# Generated by pormake.
# Topology son, (6)-cn, num edge types: 1
# Building blocks:
#     Node 0, Type 0, BuildingBlock: BETDEL_clean_sbu_0, # of connection points: 6
#     Node 1, Type 0, BuildingBlock: BETDEL_clean_sbu_0, # of connection points: 6
#     Node 2, Type 0, BuildingBlock: BETDEL_clean_sbu_0, # of connection points: 6
#     Node 3, Type 0, BuildingBlock: BETDEL_clean_sbu_0, # of connection points: 6
#     Node 4, Type 0, BuildingBlock: BETDEL_clean_sbu_0, # of connection points: 6
#     Node 5, Type 0, BuildingBlock: BETDEL_clean_sbu_0, # of connection points: 6
#     Node 6, Type 0, BuildingBlock: BETDEL_clean_sbu_0, # of connection points: 6
#     Node 7, Type 0, BuildingBlock: BETDEL_clean_sbu_0, # of connection points: 6
#     Node 8, Type 0, BuildingBlock: BETDEL_clean_sbu_0, # of connection points: 6
#     Node 9, Type 0, BuildingBlock: BETDEL_clean_sbu_0, # of connection points: 6
#     Node 10, Type 0, BuildingBlock: BETDEL_clean_sbu_0, # of connection points: 6
#     Node 11, Type 0, BuildingBlock: BETDEL_clean_sbu_0, # of connection points: 6
#     Node 12, Type 0, BuildingBlock: BETDEL_clean_sbu_0, # of connection points: 6
#     Node 13, Type 0, BuildingBlock: BETDEL_clean_sbu_0, # of connection points: 6
#     Node 14, Type 0, BuildingBlock: BETDEL_clean_sbu_0, # of connection points: 6
#     Node 15, Type 0, BuildingBlock: BETDEL_clean_sbu_0, # of connection points: 6
#     Node 16, Type 0, BuildingBlock: BETDEL_clean_sbu_0, # of connection points: 6
#     Node 17, Type 0, BuildingBlock: BETDEL_clean_sbu_0, # of connection points: 6
#     Node 18, Type 0, BuildingBlock: BETDEL_clean_sbu_0, # of connection points: 6
#     Node 19, Type 0, BuildingBlock: BETDEL_clean_sbu_0, # of connection points: 6
#     Node 20, Type 0, BuildingBlock: BETDEL_clean_sbu_0, # of connection points: 6
#     Node 21, Type 0, BuildingBlock: BETDEL_clean_sbu_0, # of connection points: 6
#     Node 22, Type 0, BuildingBlock: BETDEL_clean_sbu_0, # of connection points: 6
#     Node 23, Type 0, BuildingBlock: BETDEL_clean_sbu_0, # of connection points: 6
#     Node 24, Type 0, BuildingBlock: BETDEL_clean_sbu_0, # of connection points: 6
#     Node 25, Type 0, BuildingBlock: BETDEL_clean_sbu_0, # of connection points: 6
#     Node 26, Type 0, BuildingBlock: BETDEL_clean_sbu_0, # of connection points: 6
#     Node 27, Type 0, BuildingBlock: BETDEL_clean_sbu_0, # of connection points: 6
#     Node 28, Type 0, BuildingBlock: BETDEL_clean_sbu_0, # of connection points: 6
#     Node 29, Type 0, BuildingBlock: BETDEL_clean_sbu_0, # of connection points: 6
#     Node 30, Type 0, BuildingBlock: BETDEL_clean_sbu_0, # of connection points: 6
#     Node 31, Type 0, BuildingBlock: BETDEL_clean_sbu_0, # of connection points: 6
#     Edge 32, Type (0, 0), BuildingBlock: CIFDUS_clean_linker_0, # of connection points: 2
#     Edge 33, Type (0, 0), BuildingBlock: CIFDUS_clean_linker_0, # of connection points: 2
#     Edge 34, Type (0, 0), BuildingBlock: CIFDUS_clean_linker_0, # of connection points: 2
#     Edge 35, Type (0, 0), BuildingBlock: CIFDUS_clean_linker_0, # of connection points: 2
#     Edge 36, Type (0, 0), BuildingBlock: CIFDUS_clean_linker_0, # of connection points: 2
#     Edge 37, Type (0, 0), BuildingBlock: CIFDUS_clean_linker_0, # of connection points: 2
#     Edge 38, Type (0, 0), BuildingBlock: CIFDUS_clean_linker_0, # of connection points: 2
#     Edge 39, Type (0, 0), BuildingBlock: CIFDUS_clean_linker_0, # of connection points: 2
#     Edge 40, Type (0, 0), BuildingBlock: CIFDUS_clean_linker_0, # of connection points: 2
#     Edge 41, Type (0, 0), BuildingBlock: CIFDUS_clean_linker_0, # of connection points: 2
#     Edge 42, Type (0, 0), BuildingBlock: CIFDUS_clean_linker_0, # of connection points: 2
#     Edge 43, Type (0, 0), BuildingBlock: CIFDUS_clean_linker_0, # of connection points: 2
#     Edge 44, Type (0, 0), BuildingBlock: CIFDUS_clean_linker_0, # of connection points: 2
#     Edge 45, Type (0, 0), BuildingBlock: CIFDUS_clean_linker_0, # of connection points: 2
#     Edge 46, Type (0, 0), BuildingBlock: CIFDUS_clean_linker_0, # of connection points: 2
#     Edge 47, Type (0, 0), BuildingBlock: CIFDUS_clean_linker_0, # of connection points: 2
#     Edge 48, Type (0, 0), BuildingBlock: CIFDUS_clean_linker_0, # of connection points: 2
#     Edge 49, Type (0, 0), BuildingBlock: CIFDUS_clean_linker_0, # of connection points: 2
#     Edge 50, Type (0, 0), BuildingBlock: CIFDUS_clean_linker_0, # of connection points: 2
#     Edge 51, Type (0, 0), BuildingBlock: CIFDUS_clean_linker_0, # of connection points: 2
#     Edge 52, Type (0, 0), BuildingBlock: CIFDUS_clean_linker_0, # of connection points: 2
#     Edge 53, Type (0, 0), BuildingBlock: CIFDUS_clean_linker_0, # of connection points: 2
#     Edge 54, Type (0, 0), BuildingBlock: CIFDUS_clean_linker_0, # of connection points: 2
#     Edge 55, Type (0, 0), BuildingBlock: CIFDUS_clean_linker_0, # of connection points: 2
#     Edge 56, Type (0, 0), BuildingBlock: CIFDUS_clean_linker_0, # of connection points: 2
#     Edge 57, Type (0, 0), BuildingBlock: CIFDUS_clean_linker_0, # of connection points: 2
#     Edge 58, Type (0, 0), BuildingBlock: CIFDUS_clean_linker_0, # of connection points: 2
#     Edge 59, Type (0, 0), BuildingBlock: CIFDUS_clean_linker_0, # of connection points: 2
#     Edge 60, Type (0, 0), BuildingBlock: CIFDUS_clean_linker_0, # of connection points: 2
#     Edge 61, Type (0, 0), BuildingBlock: CIFDUS_clean_linker_0, # of connection points: 2
#     Edge 62, Type (0, 0), BuildingBlock: CIFDUS_clean_linker_0, # of connection points: 2
#     Edge 63, Type (0, 0), BuildingBlock: CIFDUS_clean_linker_0, # of connection points: 2
#     Edge 64, Type (0, 0), BuildingBlock: CIFDUS_clean_linker_0, # of connection points: 2
#     Edge 65, Type (0, 0), BuildingBlock: CIFDUS_clean_linker_0, # of connection points: 2
#     Edge 66, Type (0, 0), BuildingBlock: CIFDUS_clean_linker_0, # of connection points: 2
#     Edge 67, Type (0, 0), BuildingBlock: CIFDUS_clean_linker_0, # of connection points: 2
#     Edge 68, Type (0, 0), BuildingBlock: CIFDUS_clean_linker_0, # of connection points: 2
#     Edge 69, Type (0, 0), BuildingBlock: CIFDUS_clean_linker_0, # of connection points: 2
#     Edge 70, Type (0, 0), BuildingBlock: CIFDUS_clean_linker_0, # of connection points: 2
#     Edge 71, Type (0, 0), BuildingBlock: CIFDUS_clean_linker_0, # of connection points: 2
#     Edge 72, Type (0, 0), BuildingBlock: CIFDUS_clean_linker_0, # of connection points: 2
#     Edge 73, Type (0, 0), BuildingBlock: CIFDUS_clean_linker_0, # of connection points: 2
#     Edge 74, Type (0, 0), BuildingBlock: CIFDUS_clean_linker_0, # of connection points: 2
#     Edge 75, Type (0, 0), BuildingBlock: CIFDUS_clean_linker_0, # of connection points: 2
#     Edge 76, Type (0, 0), BuildingBlock: CIFDUS_clean_linker_0, # of connection points: 2
#     Edge 77, Type (0, 0), BuildingBlock: CIFDUS_clean_linker_0, # of connection points: 2
#     Edge 78, Type (0, 0), BuildingBlock: CIFDUS_clean_linker_0, # of connection points: 2
#     Edge 79, Type (0, 0), BuildingBlock: CIFDUS_clean_linker_0, # of connection points: 2
#     Edge 80, Type (0, 0), BuildingBlock: CIFDUS_clean_linker_0, # of connection points: 2
#     Edge 81, Type (0, 0), BuildingBlock: CIFDUS_clean_linker_0, # of connection points: 2
#     Edge 82, Type (0, 0), BuildingBlock: CIFDUS_clean_linker_0, # of connection points: 2
#     Edge 83, Type (0, 0), BuildingBlock: CIFDUS_clean_linker_0, # of connection points: 2
#     Edge 84, Type (0, 0), BuildingBlock: CIFDUS_clean_linker_0, # of connection points: 2
#     Edge 85, Type (0, 0), BuildingBlock: CIFDUS_clean_linker_0, # of connection points: 2
#     Edge 86, Type (0, 0), BuildingBlock: CIFDUS_clean_linker_0, # of connection points: 2
#     Edge 87, Type (0, 0), BuildingBlock: CIFDUS_clean_linker_0, # of connection points: 2
#     Edge 88, Type (0, 0), BuildingBlock: CIFDUS_clean_linker_0, # of connection points: 2
#     Edge 89, Type (0, 0), BuildingBlock: CIFDUS_clean_linker_0, # of connection points: 2
#     Edge 90, Type (0, 0), BuildingBlock: CIFDUS_clean_linker_0, # of connection points: 2
#     Edge 91, Type (0, 0), BuildingBlock: CIFDUS_clean_linker_0, # of connection points: 2
#     Edge 92, Type (0, 0), BuildingBlock: CIFDUS_clean_linker_0, # of connection points: 2
#     Edge 93, Type (0, 0), BuildingBlock: CIFDUS_clean_linker_0, # of connection points: 2
#     Edge 94, Type (0, 0), BuildingBlock: CIFDUS_clean_linker_0, # of connection points: 2
#     Edge 95, Type (0, 0), BuildingBlock: CIFDUS_clean_linker_0, # of connection points: 2
#     Edge 96, Type (0, 0), BuildingBlock: CIFDUS_clean_linker_0, # of connection points: 2
#     Edge 97, Type (0, 0), BuildingBlock: CIFDUS_clean_linker_0, # of connection points: 2
#     Edge 98, Type (0, 0), BuildingBlock: CIFDUS_clean_linker_0, # of connection points: 2
#     Edge 99, Type (0, 0), BuildingBlock: CIFDUS_clean_linker_0, # of connection points: 2
#     Edge 100, Type (0, 0), BuildingBlock: CIFDUS_clean_linker_0, # of connection points: 2
#     Edge 101, Type (0, 0), BuildingBlock: CIFDUS_clean_linker_0, # of connection points: 2
#     Edge 102, Type (0, 0), BuildingBlock: CIFDUS_clean_linker_0, # of connection points: 2
#     Edge 103, Type (0, 0), BuildingBlock: CIFDUS_clean_linker_0, # of connection points: 2
#     Edge 104, Type (0, 0), BuildingBlock: CIFDUS_clean_linker_0, # of connection points: 2
#     Edge 105, Type (0, 0), BuildingBlock: CIFDUS_clean_linker_0, # of connection points: 2
#     Edge 106, Type (0, 0), BuildingBlock: CIFDUS_clean_linker_0, # of connection points: 2
#     Edge 107, Type (0, 0), BuildingBlock: CIFDUS_clean_linker_0, # of connection points: 2
#     Edge 108, Type (0, 0), BuildingBlock: CIFDUS_clean_linker_0, # of connection points: 2
#     Edge 109, Type (0, 0), BuildingBlock: CIFDUS_clean_linker_0, # of connection points: 2
#     Edge 110, Type (0, 0), BuildingBlock: CIFDUS_clean_linker_0, # of connection points: 2
#     Edge 111, Type (0, 0), BuildingBlock: CIFDUS_clean_linker_0, # of connection points: 2
#     Edge 112, Type (0, 0), BuildingBlock: CIFDUS_clean_linker_0, # of connection points: 2
#     Edge 113, Type (0, 0), BuildingBlock: CIFDUS_clean_linker_0, # of connection points: 2
#     Edge 114, Type (0, 0), BuildingBlock: CIFDUS_clean_linker_0, # of connection points: 2
#     Edge 115, Type (0, 0), BuildingBlock: CIFDUS_clean_linker_0, # of connection points: 2
#     Edge 116, Type (0, 0), BuildingBlock: CIFDUS_clean_linker_0, # of connection points: 2
#     Edge 117, Type (0, 0), BuildingBlock: CIFDUS_clean_linker_0, # of connection points: 2
#     Edge 118, Type (0, 0), BuildingBlock: CIFDUS_clean_linker_0, # of connection points: 2
#     Edge 119, Type (0, 0), BuildingBlock: CIFDUS_clean_linker_0, # of connection points: 2
#     Edge 120, Type (0, 0), BuildingBlock: CIFDUS_clean_linker_0, # of connection points: 2
#     Edge 121, Type (0, 0), BuildingBlock: CIFDUS_clean_linker_0, # of connection points: 2
#     Edge 122, Type (0, 0), BuildingBlock: CIFDUS_clean_linker_0, # of connection points: 2
#     Edge 123, Type (0, 0), BuildingBlock: CIFDUS_clean_linker_0, # of connection points: 2
#     Edge 124, Type (0, 0), BuildingBlock: CIFDUS_clean_linker_0, # of connection points: 2
#     Edge 125, Type (0, 0), BuildingBlock: CIFDUS_clean_linker_0, # of connection points: 2
#     Edge 126, Type (0, 0), BuildingBlock: CIFDUS_clean_linker_0, # of connection points: 2
#     Edge 127, Type (0, 0), BuildingBlock: CIFDUS_clean_linker_0, # of connection points: 2
# Relax obj value: 0.084
# Max RMSD: 0.122
# Mean RMSD: 0.122
data_MOF--net-son--node1-BETDEL_clean_sbu_0--edge1-CIFDUS_clean_linker_0
_symmetry_space_group_name_H-M    P1
_symmetry_Int_Tables_number       1
_symmetry_cell_setting            triclinic
loop_
_symmetry_equiv_pos_as_xyz
'x, y, z'
_cell_length_a     95.729556
_cell_length_b     47.014867
_cell_length_c     16.055474
_cell_angle_alpha  90.059885
_cell_angle_beta   90.159869
_cell_angle_gamma 89.962181
loop_
_atom_site_label
_atom_site_type_symbol
_atom_site_fract_x
_atom_site_fract_y
_atom_site_fract_z
_atom_type_partial_charge
Dy0 Dy 0.30472 0.27667 0.17284 0.0
C1 C 0.28707 0.28148 0.51885 0.0
C2 C 0.30705 0.27558 1.00263 0.0
Dy3 Dy 0.29111 0.26888 0.35392 0.0
O4 O 0.30242 0.29682 0.04635 0.0
O5 O 0.31125 0.25543 0.05256 0.0
O6 O 0.31203 0.31999 0.21402 0.0
O7 O 0.29348 0.30312 0.26332 0.0
C8 C 0.30199 0.32368 0.26752 0.0
C9 C 0.29778 0.21785 0.28709 0.0
O10 O 0.27135 0.27196 0.27697 0.0
O11 O 0.2826 0.26469 0.14981 0.0
O12 O 0.28301 0.25819 0.48215 0.0
O13 O 0.29254 0.29848 0.46416 0.0
O14 O 0.29188 0.22085 0.35942 0.0
O15 O 0.29953 0.24236 0.25671 0.0
O16 O 0.32407 0.26531 0.24186 0.0
O17 O 0.31435 0.27268 0.3738 0.0
C18 C 0.27112 0.26721 0.19486 0.0
C19 C 0.3252 0.26797 0.32402 0.0
Dy20 Dy 0.92514 1.00003 0.11981 0.0
C21 C 0.93998 1.00958 0.469 0.0
C22 C 0.9221 0.99803 0.95138 0.0
Dy23 Dy 0.93689 1.0146 0.301 0.0
O24 O 0.91552 1.01556 1.00038 0.0
O25 O 0.92984 0.98086 0.99494 0.0
O26 O 0.91754 0.95768 0.16969 0.0
O27 O 0.93518 0.97713 0.22177 0.0
C28 C 0.92685 0.95658 0.22889 0.0
C29 C 0.93249 0.06268 0.214 0.0
O30 O 0.95735 1.01338 0.23272 0.0
O31 O 0.94742 1.01191 0.09926 0.0
O32 O 0.9469 0.99449 0.41472 0.0
O33 O 0.93207 0.02779 0.43101 0.0
O34 O 0.93782 0.06247 0.2887 0.0
O35 O 0.93018 0.03731 0.19242 0.0
O36 O 0.90555 1.01442 0.1794 0.0
O37 O 0.9138 1.00614 0.31356 0.0
C38 C 0.95835 1.01408 0.14981 0.0
C39 C 0.90349 1.01175 0.26048 0.0
Dy40 Dy 0.30917 1.0156 0.13164 0.0
C41 C 0.29293 1.01089 0.78461 0.0
C42 C 0.3116 1.01738 0.30133 0.0
Dy43 Dy 0.29671 0.02409 0.94884 0.0
O44 O 0.30771 0.99536 0.25827 0.0
O45 O 0.31494 0.03801 0.25114 0.0
O46 O 0.31666 0.97229 0.089 0.0
O47 O 0.2983 0.98969 0.03869 0.0
C48 C 0.30667 0.96898 0.03458 0.0
C49 C 0.30228 0.07508 0.01847 0.0
O50 O 0.27656 1.01974 0.02071 0.0
O51 O 0.28674 0.02545 0.15208 0.0
O52 O 0.28823 0.03377 0.82079 0.0
O53 O 0.29905 0.99472 0.83915 0.0
O54 O 0.29701 0.07203 0.94425 0.0
O55 O 0.3042 0.0506 0.04902 0.0
O56 O 0.32882 0.02764 0.06851 0.0
O57 O 0.32013 0.02098 0.93371 0.0
C58 C 0.27566 0.02324 0.10313 0.0
C59 C 0.3306 0.02547 0.98687 0.0
Dy60 Dy 0.92805 0.27739 0.10976 0.0
C61 C 0.94335 0.26907 0.76539 0.0
C62 C 0.92523 0.27809 0.27966 0.0
Dy63 Dy 0.94008 0.266 0.93481 0.0
O64 O 0.9332 0.29481 0.23671 0.0
O65 O 0.91816 0.2618 0.22921 0.0
O66 O 0.92172 0.32149 0.06955 0.0
O67 O 0.93956 0.30251 0.01797 0.0
C68 C 0.93155 0.32383 0.01424 0.0
C69 C 0.9365 0.21876 0.02446 0.0
O70 O 0.96029 0.2693 1.00686 0.0
O71 O 0.94944 0.26087 0.13332 0.0
O72 O 0.93678 0.24922 0.8052 0.0
O73 O 0.94884 0.28677 0.81869 0.0
O74 O 0.94572 0.22096 0.96536 0.0
O75 O 0.92872 0.24059 0.02595 0.0
O76 O 0.90785 0.26953 0.04528 0.0
O77 O 0.91743 0.27733 0.91461 0.0
C78 C 0.96084 0.26388 0.08824 0.0
C79 C 0.90649 0.27349 0.96393 0.0
Dy80 Dy 0.68734 0.77125 0.70488 0.0
C81 C 0.67213 0.7658 0.05454 0.0
C82 C 0.69092 0.76038 0.53895 0.0
Dy83 Dy 0.67476 0.76444 0.88461 0.0
O84 O 0.69921 0.776 0.58444 0.0
O85 O 0.68122 0.74951 0.58549 0.0
O86 O 0.6881 0.81895 0.69633 0.0
O87 O 0.68042 0.79964 0.8034 0.0
C88 C 0.68283 0.82343 0.76957 0.0
C89 C 0.67491 0.7176 0.78744 0.0
O90 O 0.6564 0.7838 0.82262 0.0
O91 O 0.66394 0.77045 0.69062 0.0
O92 O 0.66558 0.74829 1.00532 0.0
O93 O 0.67945 0.78338 1.01044 0.0
O94 O 0.66523 0.72321 0.84155 0.0
O95 O 0.6844 0.73618 0.79161 0.0
O96 O 0.70741 0.7641 0.77628 0.0
O97 O 0.6975 0.76282 0.90882 0.0
C98 C 0.65404 0.77933 0.74234 0.0
C99 C 0.70846 0.76308 0.85908 0.0
Dy100 Dy 0.04741 0.02212 0.70513 0.0
C101 C 0.06132 0.03023 0.05545 0.0
C102 C 0.04342 0.03314 0.5399 0.0
Dy103 Dy 0.0589 0.03091 0.88551 0.0
O104 O 0.03561 1.01642 0.58466 0.0
O105 O 0.0529 0.04487 0.58671 0.0
O106 O 0.04806 0.97475 0.69438 0.0
O107 O 0.05489 0.99433 0.80435 0.0
C108 C 0.05328 0.97055 0.76805 0.0
C109 C 0.05626 0.07795 0.78964 0.0
O110 O 0.07805 1.01379 0.82792 0.0
O111 O 0.07092 0.02565 0.69392 0.0
O112 O 0.06812 0.04724 1.00632 0.0
O113 O 0.0538 1.0129 0.01139 0.0
O114 O 0.06605 0.07475 0.845 0.0
O115 O 0.04807 0.05709 0.79283 0.0
O116 O 0.02685 0.02656 0.77372 0.0
O117 O 0.03617 0.02793 0.90792 0.0
C118 C 0.08075 1.01801 0.7482 0.0
C119 C 0.02542 0.02688 0.85638 0.0
Dy120 Dy 0.68921 0.02187 0.08334 0.0
C121 C 0.6751 0.02777 0.73011 0.0
C122 C 0.69319 0.03559 0.24683 0.0
Dy123 Dy 0.67741 0.0293 0.89969 0.0
O124 O 0.69807 1.01288 0.2107 0.0
O125 O 0.68673 0.05135 0.19262 0.0
O126 O 0.68828 0.97414 0.09295 0.0
O127 O 0.68171 0.99456 0.9848 0.0
C128 C 0.68317 0.97045 0.01863 0.0
C129 C 0.67969 0.07643 0.99475 0.0
O130 O 0.65763 1.01746 0.96091 0.0
O131 O 0.66571 0.02567 0.09626 0.0
O132 O 0.67914 0.04961 0.77345 0.0
O133 O 0.67161 1.00714 0.77988 0.0
O134 O 0.66974 0.07267 0.94036 0.0
O135 O 0.68811 0.05579 0.99191 0.0
O136 O 0.70959 0.02464 0.01252 0.0
O137 O 0.69968 1.01801 0.88099 0.0
C138 C 0.65546 0.02054 0.0419 0.0
C139 C 0.71067 0.02014 0.93058 0.0
Dy140 Dy 0.04691 0.77058 0.06832 0.0
C141 C 0.06023 0.7611 0.71855 0.0
C142 C 0.0428 0.75986 0.23336 0.0
Dy143 Dy 0.05783 0.761 0.88831 0.0
O144 O 0.03518 0.77691 0.18829 0.0
O145 O 0.0522 0.74774 0.18707 0.0
O146 O 0.04829 0.81785 0.07955 0.0
O147 O 0.05454 0.79802 0.96886 0.0
C148 C 0.0533 0.82183 1.00547 0.0
C149 C 0.05508 0.71428 0.98529 0.0
O150 O 0.07724 0.77748 0.94442 0.0
O151 O 0.07035 0.76534 0.07822 0.0
O152 O 0.06673 0.74368 0.76813 0.0
O153 O 0.05301 0.77906 0.76202 0.0
O154 O 0.06487 0.71723 0.93019 0.0
O155 O 0.04695 0.73528 0.98167 0.0
O156 O 0.02618 0.76774 1.00069 0.0
O157 O 0.03515 0.76552 0.86614 0.0
C158 C 0.08014 0.77265 0.02363 0.0
C159 C 0.02456 0.76761 0.91817 0.0
Dy160 Dy 0.31042 0.78989 0.62096 0.0
C161 C 0.2941 0.78889 0.96727 0.0
C162 C 0.31305 0.78952 0.45128 0.0
Dy163 Dy 0.29766 0.77952 0.8008 0.0
O164 O 0.31827 0.80881 0.50045 0.0
O165 O 0.30708 0.76989 0.49526 0.0
O166 O 0.32009 0.83003 0.6703 0.0
O167 O 0.30092 0.81618 0.71953 0.0
C168 C 0.31054 0.83451 0.72627 0.0
C169 C 0.30212 0.72932 0.72316 0.0
O170 O 0.27767 0.78759 0.72943 0.0
O171 O 0.28762 0.79179 0.59725 0.0
O172 O 0.28629 0.77222 0.92184 0.0
O173 O 0.3033 0.80135 0.92062 0.0
O174 O 0.29704 0.73125 0.79799 0.0
O175 O 0.30449 0.75414 0.69724 0.0
O176 O 0.32876 0.76959 0.6814 0.0
O177 O 0.32103 0.77878 0.81637 0.0
C178 C 0.27666 0.79008 0.64679 0.0
C179 C 0.33096 0.77139 0.76288 0.0
Dy180 Dy 0.9258 0.50762 0.62377 0.0
C181 C 0.94002 0.51398 0.96732 0.0
C182 C 0.9231 0.50826 0.45364 0.0
Dy183 Dy 0.93701 0.51799 0.79786 0.0
O184 O 0.9179 0.48894 0.5024 0.0
O185 O 0.92918 0.52763 0.49822 0.0
O186 O 0.91828 0.46467 0.66394 0.0
O187 O 0.93673 0.48104 0.71635 0.0
C188 C 0.92808 0.46075 0.71868 0.0
C189 C 0.93415 0.56599 0.70892 0.0
O190 O 0.95757 0.50941 0.73515 0.0
O191 O 0.94847 0.51407 0.60219 0.0
O192 O 0.94534 0.53384 0.92108 0.0
O193 O 0.93356 0.49571 0.92047 0.0
O194 O 0.94321 0.5627 0.76849 0.0
O195 O 0.92603 0.54477 0.70631 0.0
O196 O 0.9056 0.52069 0.68035 0.0
O197 O 0.91374 0.51448 0.81531 0.0
C198 C 0.95921 0.51229 0.65345 0.0
C199 C 0.90336 0.51815 0.76142 0.0
Dy200 Dy 0.31062 0.51004 0.65015 0.0
C201 C 0.29614 0.51591 0.30752 0.0
C202 C 0.3133 0.51098 0.82059 0.0
Dy203 Dy 0.29912 0.52 0.47736 0.0
O204 O 0.31872 0.49187 0.77178 0.0
O205 O 0.30704 0.53005 0.77585 0.0
O206 O 0.31825 0.4671 0.60993 0.0
O207 O 0.29962 0.48293 0.55846 0.0
C208 C 0.30839 0.4628 0.55582 0.0
C209 C 0.30174 0.56832 0.56579 0.0
O210 O 0.27873 0.51044 0.54134 0.0
O211 O 0.28801 0.51615 0.67338 0.0
O212 O 0.29051 0.53537 0.35411 0.0
O213 O 0.30287 0.49803 0.35429 0.0
O214 O 0.2926 0.56453 0.50699 0.0
O215 O 0.31008 0.54736 0.5681 0.0
O216 O 0.33072 0.52322 0.59283 0.0
O217 O 0.32238 0.51649 0.45863 0.0
C218 C 0.27719 0.51357 0.62311 0.0
C219 C 0.33284 0.52038 0.51174 0.0
Dy220 Dy 0.92284 0.78506 0.66436 0.0
C221 C 0.93852 0.79053 0.31579 0.0
C222 C 0.92038 0.78272 0.83301 0.0
Dy223 Dy 0.93496 0.77733 0.47943 0.0
O224 O 0.92363 0.80534 0.79086 0.0
O225 O 0.91778 0.76168 0.78251 0.0
O226 O 0.91292 0.8258 0.6207 0.0
O227 O 0.93186 0.81205 0.56764 0.0
C228 C 0.92234 0.83064 0.56401 0.0
C229 C 0.93105 0.72667 0.55435 0.0
O230 O 0.95521 0.78337 0.5486 0.0
O231 O 0.94574 0.77952 0.68236 0.0
O232 O 0.94314 0.76751 0.35142 0.0
O233 O 0.93251 0.80678 0.37038 0.0
O234 O 0.93576 0.72902 0.47871 0.0
O235 O 0.92874 0.7513 0.5817 0.0
O236 O 0.90366 0.76916 0.60234 0.0
O237 O 0.91152 0.77692 0.46629 0.0
C238 C 0.95652 0.78124 0.63112 0.0
C239 C 0.9015 0.77088 0.52081 0.0
Dy240 Dy 0.68604 0.26576 0.22825 0.0
C241 C 0.67054 0.2554 0.57754 0.0
C242 C 0.68957 0.25596 0.06183 0.0
Dy243 Dy 0.67295 0.25529 0.40747 0.0
O244 O 0.69739 0.27272 0.10689 0.0
O245 O 0.68037 0.24363 0.10886 0.0
O246 O 0.68662 0.31398 0.23103 0.0
O247 O 0.6788 0.29116 0.33093 0.0
C248 C 0.6812 0.31601 0.30501 0.0
C249 C 0.67356 0.21047 0.30279 0.0
O250 O 0.65452 0.27504 0.34581 0.0
O251 O 0.66266 0.26627 0.21138 0.0
O252 O 0.66458 0.23709 0.52808 0.0
O253 O 0.67711 0.2742 0.53366 0.0
O254 O 0.66387 0.21449 0.35822 0.0
O255 O 0.68291 0.22929 0.31022 0.0
O256 O 0.706 0.25816 0.30075 0.0
O257 O 0.69576 0.25388 0.43211 0.0
C258 C 0.65254 0.27331 0.26406 0.0
C259 C 0.70685 0.25572 0.3835 0.0
Dy260 Dy 0.04878 0.52601 0.22276 0.0
C261 C 0.06307 0.53846 0.57353 0.0
C262 C 0.04508 0.53555 0.05684 0.0
Dy263 Dy 0.06069 0.53745 0.4039 0.0
O264 O 0.03751 0.51834 0.1015 0.0
O265 O 0.05422 0.54826 0.10375 0.0
O266 O 0.04845 0.47785 0.22585 0.0
O267 O 0.0556 0.50102 0.32735 0.0
C268 C 0.05338 0.47609 0.30126 0.0
C269 C 0.06013 0.58193 0.29843 0.0
O270 O 0.07962 0.51832 0.34705 0.0
O271 O 0.07219 0.52642 0.21064 0.0
O272 O 0.0683 0.55748 0.52387 0.0
O273 O 0.05717 0.51853 0.53026 0.0
O274 O 0.06971 0.57827 0.35493 0.0
O275 O 0.05092 0.56281 0.30458 0.0
O276 O 0.02846 0.5327 0.29013 0.0
O277 O 0.03775 0.53688 0.42432 0.0
C278 C 0.08206 0.51995 0.2659 0.0
C279 C 0.02704 0.53455 0.37251 0.0
Dy280 Dy 0.68817 0.52405 0.56152 0.0
C281 C 0.67415 0.53697 0.21135 0.0
C282 C 0.69192 0.53336 0.72751 0.0
Dy283 Dy 0.6763 0.5369 0.38106 0.0
O284 O 0.69935 0.51585 0.68281 0.0
O285 O 0.68291 0.54648 0.68058 0.0
O286 O 0.68747 0.47593 0.55771 0.0
O287 O 0.6807 0.49982 0.45668 0.0
C288 C 0.68234 0.47469 0.48265 0.0
C289 C 0.67859 0.58153 0.48621 0.0
O290 O 0.65724 0.51879 0.43823 0.0
O291 O 0.66479 0.52665 0.57437 0.0
O292 O 0.66784 0.5549 0.26031 0.0
O293 O 0.68101 0.5186 0.25539 0.0
O294 O 0.66902 0.57966 0.42881 0.0
O295 O 0.68693 0.56087 0.47966 0.0
O296 O 0.70856 0.53 0.49379 0.0
O297 O 0.69917 0.5353 0.36019 0.0
C298 C 0.65484 0.5206 0.51929 0.0
C299 C 0.70991 0.53246 0.41148 0.0
Dy300 Dy 0.04454 0.26925 0.5677 0.0
C301 C 0.06214 0.2568 0.2185 0.0
C302 C 0.04117 0.26072 0.73536 0.0
Dy303 Dy 0.05907 0.25897 0.38847 0.0
O304 O 0.03382 0.27834 0.69022 0.0
O305 O 0.04966 0.24663 0.68754 0.0
O306 O 0.04326 0.31752 0.55965 0.0
O307 O 0.05178 0.29375 0.46411 0.0
C308 C 0.04902 0.3188 0.4864 0.0
C309 C 0.05919 0.21543 0.49631 0.0
O310 O 0.0773 0.27767 0.45548 0.0
O311 O 0.06769 0.27207 0.58874 0.0
O312 O 0.06 0.27977 0.26176 0.0
O313 O 0.06347 0.23529 0.26874 0.0
O314 O 0.06904 0.21993 0.44215 0.0
O315 O 0.04933 0.23309 0.48642 0.0
O316 O 0.02523 0.25909 0.49235 0.0
O317 O 0.03624 0.25874 0.36231 0.0
C318 C 0.07828 0.27778 0.53821 0.0
C319 C 0.0249 0.25807 0.40918 0.0
Dy320 Dy 0.8061 0.27306 0.67155 0.0
C321 C 0.789 0.27457 0.01709 0.0
C322 C 0.80887 0.27153 0.5013 0.0
Dy323 Dy 0.79309 0.26448 0.85085 0.0
O324 O 0.81463 0.29026 0.55019 0.0
O325 O 0.80237 0.25281 0.54604 0.0
O326 O 0.81316 0.31662 0.71156 0.0
O327 O 0.79486 0.29954 0.76265 0.0
C328 C 0.80333 0.32012 0.76621 0.0
C329 C 0.8 0.21329 0.78652 0.0
O330 O 0.77304 0.26857 0.77674 0.0
O331 O 0.78337 0.27026 0.64524 0.0
O332 O 0.78149 0.2574 0.97146 0.0
O333 O 0.79805 0.28747 0.97029 0.0
O334 O 0.79425 0.21674 0.85894 0.0
O335 O 0.80156 0.23749 0.75354 0.0
O336 O 0.8252 0.2584 0.7381 0.0
O337 O 0.81626 0.26934 0.8692 0.0
C338 C 0.77225 0.26879 0.69367 0.0
C339 C 0.82681 0.26274 0.81928 0.0
Dy340 Dy 0.42383 1.00164 0.59822 0.0
C341 C 0.43824 0.99822 0.94464 0.0
C342 C 0.42206 0.99751 0.42966 0.0
Dy343 Dy 0.43577 1.0107 0.78008 0.0
O344 O 0.41386 1.01324 0.47521 0.0
O345 O 0.43081 0.98372 0.47626 0.0
O346 O 0.41394 0.96106 0.64356 0.0
O347 O 0.43283 0.97474 0.69624 0.0
C348 C 0.42328 0.95639 0.70067 0.0
C349 C 0.43255 0.06137 0.70421 0.0
O350 O 0.45556 1.00157 0.70977 0.0
O351 O 0.44616 1.01325 0.5805 0.0
O352 O 0.44786 1.01108 0.90122 0.0
O353 O 0.42772 0.99158 0.89753 0.0
O354 O 0.43734 0.05882 0.77986 0.0
O355 O 0.42982 0.03691 0.67669 0.0
O356 O 0.40475 1.0198 0.65621 0.0
O357 O 0.41236 1.01177 0.79218 0.0
C358 C 0.45697 1.0074 0.62905 0.0
C359 C 0.40244 1.01836 0.73749 0.0
Dy360 Dy 0.81052 1.00928 0.65578 0.0
C361 C 0.79441 1.00055 0.30842 0.0
C362 C 0.81285 1.01125 0.82543 0.0
Dy363 Dy 0.79791 1.01439 0.47253 0.0
O364 O 0.80964 0.98883 0.78215 0.0
O365 O 0.81555 0.03235 0.77549 0.0
O366 O 0.81998 0.96766 0.61553 0.0
O367 O 0.80084 0.9808 0.56403 0.0
C368 C 0.81021 0.96187 0.56161 0.0
C369 C 0.8025 0.06669 0.53635 0.0
O370 O 0.77785 1.00871 0.54461 0.0
O371 O 0.78784 1.01652 0.67546 0.0
O372 O 0.78912 0.02286 0.34457 0.0
O373 O 0.80094 0.9851 0.36308 0.0
O374 O 0.79729 0.06222 0.46268 0.0
O375 O 0.80479 0.04284 0.56997 0.0
O376 O 0.82983 0.02311 0.59185 0.0
O377 O 0.82137 1.01312 0.45824 0.0
C378 C 0.77684 1.01285 0.6267 0.0
C379 C 0.83171 1.01952 0.51068 0.0
Dy380 Dy 0.4266 0.27673 0.61693 0.0
C381 C 0.44167 0.27127 0.27171 0.0
C382 C 0.42351 0.27624 0.78629 0.0
Dy383 Dy 0.43866 0.26751 0.44082 0.0
O384 O 0.4302 0.29538 0.74409 0.0
O385 O 0.41786 0.25797 0.73538 0.0
O386 O 0.4181 0.31911 0.57785 0.0
O387 O 0.43671 0.30389 0.52417 0.0
C388 C 0.42766 0.32348 0.52194 0.0
C389 C 0.43678 0.21991 0.53106 0.0
O390 O 0.45895 0.27309 0.50941 0.0
O391 O 0.44891 0.26509 0.63873 0.0
O392 O 0.43607 0.2502 0.31142 0.0
O393 O 0.44633 0.28995 0.32491 0.0
O394 O 0.44578 0.22324 0.47124 0.0
O395 O 0.4283 0.24055 0.53239 0.0
O396 O 0.40648 0.26713 0.55241 0.0
O397 O 0.41577 0.27573 0.42132 0.0
C398 C 0.46 0.26841 0.59088 0.0
C399 C 0.40498 0.2711 0.47105 0.0
Dy400 Dy 0.18847 0.76696 0.19735 0.0
C401 C 0.17537 0.75957 0.54945 0.0
C402 C 0.19249 0.75294 0.03431 0.0
Dy403 Dy 0.17753 0.75881 0.37992 0.0
O404 O 0.1972 0.77587 0.07006 0.0
O405 O 0.1861 0.73718 0.08853 0.0
O406 O 0.18707 0.81432 0.18527 0.0
O407 O 0.18102 0.79456 0.29606 0.0
C408 C 0.18222 0.81842 0.25985 0.0
C409 C 0.17984 0.71182 0.28389 0.0
O410 O 0.15742 0.77033 0.32311 0.0
O411 O 0.1649 0.76308 0.18652 0.0
O412 O 0.18012 0.73845 0.50573 0.0
O413 O 0.17119 0.77982 0.50016 0.0
O414 O 0.1699 0.71551 0.33795 0.0
O415 O 0.1882 0.73254 0.28711 0.0
O416 O 0.20915 0.76656 0.266 0.0
O417 O 0.19949 0.77205 0.39801 0.0
C418 C 0.1549 0.76768 0.24253 0.0
C419 C 0.21036 0.77123 0.34771 0.0
Dy420 Dy 0.54817 0.02434 0.20732 0.0
C421 C 0.55407 0.04614 0.55431 0.0
C422 C 0.54866 0.03922 0.04535 0.0
Dy423 Dy 0.55681 0.03798 0.38863 0.0
O424 O 0.53947 0.02178 0.07704 0.0
O425 O 0.55701 0.04884 0.10229 0.0
O426 O 0.54971 0.97653 0.20613 0.0
O427 O 0.55459 0.99977 0.31377 0.0
C428 C 0.55375 0.97496 0.28362 0.0
C429 C 0.55483 0.08246 0.28346 0.0
O430 O 0.57791 0.02515 0.34615 0.0
O431 O 0.57163 0.02791 0.20642 0.0
O432 O 0.54552 0.05545 0.49815 0.0
O433 O 0.56458 0.03293 0.52024 0.0
O434 O 0.56412 0.08086 0.3422 0.0
O435 O 0.54681 0.06133 0.28732 0.0
O436 O 0.52698 0.02674 0.26714 0.0
O437 O 0.53605 1.01704 0.39788 0.0
C438 C 0.58117 0.0252 0.26611 0.0
C439 C 0.5253 1.01988 0.34686 0.0
Dy440 Dy 0.18817 1.01919 0.56202 0.0
C441 C 0.17376 0.02795 0.21294 0.0
C442 C 0.19196 0.02988 0.72799 0.0
Dy443 Dy 0.17617 0.02847 0.3832 0.0
O444 O 0.19988 1.01338 0.683 0.0
O445 O 0.18251 0.0416 0.681 0.0
O446 O 0.18786 0.97179 0.57104 0.0
O447 O 0.1806 0.99151 0.46235 0.0
C448 C 0.18245 0.96765 0.49782 0.0
C449 C 0.17874 0.07517 0.48135 0.0
O450 O 0.15721 1.01091 0.44115 0.0
O451 O 0.16465 0.02242 0.57482 0.0
O452 O 0.16714 0.04528 0.26225 0.0
O453 O 0.18104 1.01022 0.25704 0.0
O454 O 0.16879 0.07189 0.42699 0.0
O455 O 0.18708 0.05457 0.47611 0.0
O456 O 0.20856 0.02461 0.49158 0.0
O457 O 0.1988 0.02609 0.35859 0.0
C458 C 0.15468 1.01497 0.52114 0.0
C459 C 0.20972 0.02515 0.40868 0.0
Dy460 Dy 0.54817 0.76756 0.53459 0.0
C461 C 0.56198 0.75582 0.19113 0.0
C462 C 0.54528 0.76303 0.70385 0.0
Dy463 Dy 0.55961 0.75565 0.36137 0.0
O464 O 0.53962 0.78269 0.65787 0.0
O465 O 0.55203 0.7453 0.65682 0.0
O466 O 0.54176 0.81184 0.50279 0.0
O467 O 0.55897 0.79363 0.44119 0.0
C468 C 0.55073 0.81475 0.44278 0.0
C469 C 0.55649 0.70981 0.46065 0.0
O470 O 0.57963 0.7699 0.41691 0.0
O471 O 0.57161 0.76567 0.55263 0.0
O472 O 0.5676 0.73698 0.2402 0.0
O473 O 0.55566 0.7749 0.23544 0.0
O474 O 0.56648 0.71225 0.40659 0.0
O475 O 0.54828 0.7306 0.45419 0.0
O476 O 0.52778 0.75746 0.47026 0.0
O477 O 0.53701 0.76208 0.33789 0.0
C478 C 0.58192 0.76897 0.49822 0.0
C479 C 0.52622 0.75984 0.38821 0.0
Dy480 Dy 0.80778 0.78636 0.13652 0.0
C481 C 0.79183 0.78259 0.48195 0.0
C482 C 0.80992 0.78685 0.96658 0.0
Dy483 Dy 0.79567 0.77315 0.31589 0.0
O484 O 0.81585 0.80522 0.01604 0.0
O485 O 0.80349 0.76782 1.01029 0.0
O486 O 0.81484 0.82903 0.18567 0.0
O487 O 0.79683 0.81009 0.23447 0.0
C488 C 0.80513 0.83079 0.2419 0.0
C489 C 0.80196 0.72397 0.23792 0.0
O490 O 0.77533 0.77744 0.24529 0.0
O491 O 0.78502 0.78353 0.11313 0.0
O492 O 0.78456 0.76477 0.43711 0.0
O493 O 0.80068 0.79598 0.43503 0.0
O494 O 0.79672 0.7251 0.31254 0.0
O495 O 0.80351 0.74914 0.21194 0.0
O496 O 0.82692 0.76873 0.1947 0.0
O497 O 0.81906 0.776 0.33034 0.0
C498 C 0.77419 0.7797 0.16269 0.0
C499 C 0.82917 0.77042 0.27602 0.0
Dy500 Dy 0.42676 0.50377 0.12054 0.0
C501 C 0.4412 0.51113 0.46393 0.0
C502 C 0.42424 0.50448 0.95029 0.0
Dy503 Dy 0.43804 0.51544 0.29469 0.0
O504 O 0.4186 0.48561 0.99893 0.0
O505 O 0.43065 0.52333 0.99504 0.0
O506 O 0.42092 0.45948 0.16082 0.0
O507 O 0.43865 0.47889 0.21224 0.0
C508 C 0.43084 0.45738 0.21575 0.0
C509 C 0.43433 0.5628 0.2047 0.0
O510 O 0.4586 0.50769 0.23067 0.0
O511 O 0.44925 0.51243 0.09827 0.0
O512 O 0.44643 0.53119 0.41794 0.0
O513 O 0.43477 0.49285 0.41689 0.0
O514 O 0.4434 0.5605 0.26464 0.0
O515 O 0.42657 0.54102 0.2027 0.0
O516 O 0.40647 0.51577 0.17813 0.0
O517 O 0.41481 0.51063 0.31308 0.0
C518 C 0.46009 0.51093 0.14893 0.0
C519 C 0.40434 0.51362 0.25944 0.0
Dy520 Dy 0.81036 0.50479 0.15328 0.0
C521 C 0.79594 0.5114 0.80449 0.0
C522 C 0.81326 0.50307 0.32151 0.0
Dy523 Dy 0.79865 0.5166 0.97243 0.0
O524 O 0.80564 0.48574 0.27783 0.0
O525 O 0.81977 0.52077 0.27284 0.0
O526 O 0.81942 0.46344 0.10818 0.0
O527 O 0.80106 0.4792 0.05278 0.0
C528 C 0.81024 0.45991 0.04927 0.0
C529 C 0.80249 0.56618 0.05431 0.0
O530 O 0.77812 0.5148 0.03888 0.0
O531 O 0.78793 0.51557 0.17239 0.0
O532 O 0.8041 0.52896 0.84308 0.0
O533 O 0.78862 0.49686 0.85807 0.0
O534 O 0.79716 0.56467 0.97981 0.0
O535 O 0.80492 0.5412 0.07877 0.0
O536 O 0.82969 0.52028 0.09317 0.0
O537 O 0.8217 0.50867 0.96085 0.0
C538 C 0.77702 0.51643 0.12145 0.0
C539 C 0.83186 0.51612 0.01276 0.0
Dy540 Dy 0.42694 0.78399 0.13216 0.0
C541 C 0.43613 0.78403 0.78899 0.0
C542 C 0.42931 0.79275 0.29799 0.0
Dy543 Dy 0.43668 0.76985 0.95158 0.0
O544 O 0.4375 0.80328 0.24201 0.0
O545 O 0.41928 0.77806 0.2635 0.0
O546 O 0.41931 0.8262 0.08277 0.0
O547 O 0.43706 0.80713 0.03116 0.0
C548 C 0.42879 0.82786 0.02537 0.0
C549 C 0.43123 0.72095 0.03075 0.0
O550 O 0.45748 0.77391 0.01541 0.0
O551 O 0.44791 0.76413 0.1447 0.0
O552 O 0.44541 0.76689 0.82158 0.0
O553 O 0.42778 0.79382 0.84544 0.0
O554 O 0.43566 0.72187 0.95403 0.0
O555 O 0.43003 0.74603 0.05806 0.0
O556 O 0.40626 0.76999 0.08552 0.0
O557 O 0.41324 0.77207 0.94687 0.0
C558 C 0.45885 0.7675 0.09573 0.0
C559 C 0.40346 0.76929 1.00472 0.0
Dy560 Dy 0.18911 0.266 0.70415 0.0
C561 C 0.1724 0.26036 0.04653 0.0
C562 C 0.1921 0.26299 0.53352 0.0
Dy563 Dy 0.17517 0.25926 0.87578 0.0
O564 O 0.18693 0.28419 0.5749 0.0
O565 O 0.19652 0.24383 0.5861 0.0
O566 O 0.1975 0.30884 0.73956 0.0
O567 O 0.17842 0.29503 0.79024 0.0
C568 C 0.18753 0.31458 0.79202 0.0
C569 C 0.17568 0.2117 0.78239 0.0
O570 O 0.1559 0.27094 0.80518 0.0
O571 O 0.1663 0.25917 0.67927 0.0
O572 O 0.17818 0.2402 1.00347 0.0
O573 O 0.16725 0.2793 0.99555 0.0
O574 O 0.16583 0.21762 0.83539 0.0
O575 O 0.18527 0.23019 0.78722 0.0
O576 O 0.20848 0.25672 0.77969 0.0
O577 O 0.19745 0.26911 0.90264 0.0
C578 C 0.15515 0.26585 0.72391 0.0
C579 C 0.20882 0.26232 0.861 0.0
Dy580 Dy 0.54894 0.52658 0.71175 0.0
C581 C 0.56208 0.54209 0.06203 0.0
C582 C 0.54624 0.53891 0.54723 0.0
Dy583 Dy 0.56049 0.53707 0.89364 0.0
O584 O 0.5369 0.52523 0.59054 0.0
O585 O 0.55663 0.54634 0.59437 0.0
O586 O 0.54845 0.47837 0.71232 0.0
O587 O 0.55535 0.50106 0.81569 0.0
C588 C 0.55324 0.47633 0.78814 0.0
C589 C 0.56052 0.58198 0.78931 0.0
O590 O 0.57972 0.51912 0.83801 0.0
O591 O 0.57237 0.52674 0.70132 0.0
O592 O 0.5709 0.52766 0.0169 0.0
O593 O 0.55277 0.55414 0.0151 0.0
O594 O 0.56983 0.57803 0.84702 0.0
O595 O 0.55123 0.56308 0.7943 0.0
O596 O 0.5289 0.53331 0.78187 0.0
O597 O 0.53861 0.52276 0.91112 0.0
C598 C 0.5822 0.52053 0.75699 0.0
C599 C 0.52767 0.52723 0.8625 0.0
Dy600 Dy 0.18795 0.52144 0.05848 0.0
C601 C 0.17327 0.52739 0.71451 0.0
C602 C 0.1907 0.52599 0.22796 0.0
Dy603 Dy 0.17622 0.52862 0.88441 0.0
O604 O 0.18648 0.50357 0.18804 0.0
O605 O 0.1941 0.54568 0.17485 0.0
O606 O 0.1986 0.48087 0.02518 0.0
O607 O 0.17949 0.49147 0.96588 0.0
C608 C 0.18962 0.47399 0.96761 0.0
C609 C 0.17494 0.57552 0.98137 0.0
O610 O 0.15645 0.51443 0.94142 0.0
O611 O 0.16454 0.52331 0.07512 0.0
O612 O 0.17863 0.54817 0.75713 0.0
O613 O 0.16889 0.50778 0.7652 0.0
O614 O 0.16552 0.56899 0.92604 0.0
O615 O 0.1849 0.55795 0.97779 0.0
O616 O 0.20815 0.53118 0.99296 0.0
O617 O 0.19884 0.5216 0.86272 0.0
C618 C 0.1543 0.51714 0.02227 0.0
C619 C 0.20962 0.52679 0.91161 0.0
Dy620 Dy 0.5481 0.26775 0.04175 0.0
C621 C 0.56354 0.25748 0.6913 0.0
C622 C 0.5445 0.2579 0.20774 0.0
Dy623 Dy 0.56098 0.2576 0.86107 0.0
O624 O 0.53674 0.27481 0.16285 0.0
O625 O 0.5537 0.24548 0.16079 0.0
O626 O 0.54754 0.31599 0.03938 0.0
O627 O 0.55522 0.29309 0.93917 0.0
C628 C 0.55288 0.31793 0.96519 0.0
C629 C 0.56038 0.21277 0.96482 0.0
O630 O 0.57953 0.27681 0.9232 0.0
O631 O 0.57148 0.26772 0.05768 0.0
O632 O 0.56913 0.23876 0.74081 0.0
O633 O 0.55724 0.27678 0.73495 0.0
O634 O 0.57007 0.2167 0.90948 0.0
O635 O 0.55109 0.23172 0.95802 0.0
O636 O 0.52813 0.25957 0.97065 0.0
O637 O 0.53805 0.25658 0.83797 0.0
C638 C 0.58158 0.27474 1.00486 0.0
C639 C 0.52708 0.25768 0.88791 0.0
H640 H 0.21123 0.26812 0.0287 0.0
H641 H 0.23593 0.25443 0.80712 0.0
H642 H 0.25717 0.25369 0.89291 0.0
H643 H 0.26846 0.2578 0.02857 0.0
H644 H 0.24388 0.27241 0.25021 0.0
H645 H 0.22255 0.2716 0.16509 0.0
C646 C 0.22123 0.26504 0.99839 0.0
C647 C 0.22195 0.26154 0.91079 0.0
C648 C 0.23331 0.26469 0.04799 0.0
C649 C 0.23504 0.25727 0.87385 0.0
C650 C 0.24716 0.25684 0.923 0.0
C651 C 0.25848 0.26078 0.05922 0.0
C652 C 0.25785 0.26527 0.14649 0.0
C653 C 0.24638 0.26064 1.00992 0.0
C654 C 0.24473 0.26893 0.18373 0.0
C655 C 0.23255 0.26855 0.13492 0.0
H656 H 0.02011 0.02826 0.02218 0.0
H657 H -0.00066 0.02293 0.78312 0.0
H658 H 0.97678 1.019 0.85423 0.0
H659 H 0.96332 1.01596 0.98319 0.0
H660 H 0.98431 0.02041 0.22176 0.0
H661 H 0.00672 0.02574 0.15046 0.0
C662 C 0.01071 0.02633 0.9848 0.0
C663 C 0.01148 0.02586 0.89679 0.0
C664 C -0.0021 0.02382 0.02595 0.0
C665 C -0.00091 0.02339 0.85054 0.0
C666 C 0.98621 0.02108 0.89128 0.0
C667 C 0.97275 1.01813 0.02024 0.0
C668 C 0.97208 1.01771 0.1083 0.0
C669 C 0.98554 0.02108 0.97889 0.0
C670 C 0.98448 0.0206 0.15432 0.0
C671 C -0.00272 0.02367 0.11349 0.0
H672 H 0.21417 0.02168 0.24226 0.0
H673 H 0.23625 0.02844 0.47685 0.0
H674 H 0.25851 0.02891 0.40128 0.0
H675 H 0.27135 0.02744 0.27001 0.0
H676 H 0.24915 0.0203 0.0359 0.0
H677 H 0.22694 0.02022 0.11151 0.0
C678 C 0.22379 0.02336 0.27775 0.0
C679 C 0.22348 0.02516 0.36583 0.0
C680 C 0.23643 0.02364 0.23405 0.0
C681 C 0.23615 0.02705 0.40952 0.0
C682 C 0.24885 0.02737 0.3662 0.0
C683 C 0.2617 0.02594 0.23474 0.0
C684 C 0.26198 0.02393 0.14667 0.0
C685 C 0.24906 0.02571 0.27858 0.0
C686 C 0.24929 0.02192 0.10319 0.0
C687 C 0.23661 0.02183 0.14652 0.0
H688 H 0.02156 0.2599 0.24111 0.0
H689 H -0.00201 0.25459 0.47001 0.0
H690 H 0.97622 0.25504 0.38917 0.0
H691 H 0.96416 0.25806 0.25525 0.0
H692 H 0.98774 0.26484 0.02681 0.0
H693 H 0.00952 0.26261 0.10729 0.0
C694 C 0.01171 0.25866 0.27414 0.0
C695 C 0.01148 0.25712 0.36226 0.0
C696 C -0.00067 0.25923 0.22744 0.0
C697 C -0.00147 0.25572 0.40273 0.0
C698 C 0.98609 0.256 0.35642 0.0
C699 C 0.97402 0.25889 0.22228 0.0
C700 C 0.97427 0.26152 0.13443 0.0
C701 C 0.98641 0.2579 0.26891 0.0
C702 C 0.98721 0.26276 0.0939 0.0
C703 C -0.00035 0.2615 0.14001 0.0
H704 H 0.71316 0.76058 0.02572 0.0
H705 H 0.73471 0.76814 0.79031 0.0
H706 H 0.75684 0.7744 0.86517 0.0
H707 H 0.76962 0.77925 0.99582 0.0
H708 H 0.74805 0.77238 0.23133 0.0
H709 H 0.726 0.76489 0.15646 0.0
C710 C 0.72266 0.76345 0.99001 0.0
C711 C 0.72222 0.76392 0.90187 0.0
C712 C 0.7352 0.76757 0.03334 0.0
C713 C 0.73471 0.76757 0.85774 0.0
C714 C 0.74733 0.77134 0.90062 0.0
C715 C 0.76014 0.77627 0.03157 0.0
C716 C 0.76052 0.7766 0.11973 0.0
C717 C 0.74763 0.77172 0.98828 0.0
C718 C 0.74807 0.77243 0.16387 0.0
C719 C 0.7355 0.76801 0.121 0.0
H720 H 0.77233 0.02069 0.79228 0.0
H721 H 0.75041 1.00562 0.56049 0.0
H722 H 0.72818 1.0057 0.63596 0.0
H723 H 0.71525 1.0103 0.76606 0.0
H724 H 0.73712 0.02592 0.99764 0.0
H725 H 0.7594 0.02497 0.92257 0.0
C726 C 0.76274 1.01741 0.75746 0.0
C727 C 0.76311 1.01319 0.67007 0.0
C728 C 0.75008 1.01743 0.80119 0.0
C729 C 0.75049 1.00897 0.62723 0.0
C730 C 0.73779 1.00897 0.67051 0.0
C731 C 0.72484 1.01347 0.80094 0.0
C732 C 0.72444 1.01824 0.88809 0.0
C733 C 0.7375 1.01319 0.75735 0.0
C734 C 0.73707 0.02218 0.93107 0.0
C735 C 0.74979 0.02172 0.88801 0.0
H736 H 0.9621 0.77922 0.79701 0.0
H737 H 0.98241 0.77998 0.55675 0.0
H738 H 0.00515 0.7757 0.62588 0.0
H739 H 0.01893 0.77112 0.75286 0.0
H740 H -0.00129 0.77017 0.99336 0.0
H741 H 0.97595 0.77503 0.92439 0.0
C742 C 0.97145 0.77849 0.75911 0.0
C743 C 0.97049 0.77987 0.67124 0.0
C744 C 0.9844 0.77586 0.79917 0.0
C745 C 0.9828 0.77901 0.62411 0.0
C746 C -0.00421 0.77648 0.66368 0.0
C747 C 0.0096 0.77186 0.79094 0.0
C748 C 0.01057 0.77011 0.87874 0.0
C749 C -0.00334 0.77475 0.75102 0.0
C750 C -0.00171 0.77136 0.92604 0.0
C751 C 0.9853 0.77418 0.88655 0.0
H752 H 0.21511 0.77723 0.5133 0.0
H753 H 0.2366 0.77528 0.27677 0.0
H754 H 0.25889 0.78257 0.34968 0.0
H755 H 0.27199 0.78839 0.47967 0.0
H756 H 0.25036 0.78889 0.71588 0.0
H757 H 0.22807 0.78356 0.64233 0.0
C758 C 0.2246 0.77846 0.47677 0.0
C759 C 0.22411 0.77569 0.38897 0.0
C760 C 0.23725 0.78252 0.51896 0.0
C761 C 0.23663 0.77728 0.34397 0.0
C762 C 0.24935 0.7815 0.38574 0.0
C763 C 0.26243 0.78761 0.51573 0.0
C764 C 0.2629 0.78917 0.60385 0.0
C765 C 0.24974 0.78405 0.47317 0.0
C766 C 0.25035 0.78787 0.64849 0.0
C767 C 0.23762 0.78471 0.60637 0.0
H768 H 0.96496 0.5159 0.48874 0.0
H769 H 0.98494 0.51541 0.73056 0.0
H770 H 0.0076 0.52345 0.66383 0.0
H771 H 0.0214 0.53105 0.53795 0.0
H772 H 0.00131 0.53136 0.29636 0.0
H773 H 0.97871 0.52345 0.36329 0.0
C774 C 0.97423 0.51746 0.52749 0.0
C775 C 0.97321 0.51503 0.61502 0.0
C776 C 0.98709 0.52238 0.48891 0.0
C777 C 0.9854 0.51704 0.66335 0.0
C778 C -0.00167 0.52181 0.62517 0.0
C779 C 0.01211 0.52964 0.49938 0.0
C780 C 0.01309 0.53199 0.41176 0.0
C781 C -0.00076 0.52469 0.53812 0.0
C782 C 0.00088 0.52981 0.3636 0.0
C783 C 0.98798 0.52515 0.40188 0.0
H784 H 0.27192 0.52012 0.78777 0.0
H785 H 0.25113 0.51047 0.54995 0.0
H786 H 0.22845 0.51442 0.61965 0.0
H787 H 0.21484 0.52074 0.74672 0.0
H788 H 0.23567 0.53036 0.9844 0.0
H789 H 0.25834 0.52657 0.91462 0.0
C790 C 0.26247 0.51878 0.75049 0.0
C791 C 0.26326 0.51491 0.66321 0.0
C792 C 0.24958 0.52123 0.79078 0.0
C793 C 0.25085 0.51333 0.61687 0.0
C794 C 0.23791 0.51566 0.65676 0.0
C795 C 0.2243 0.52204 0.78391 0.0
C796 C 0.22352 0.52581 0.87122 0.0
C797 C 0.23719 0.51966 0.74354 0.0
C798 C 0.23594 0.52755 0.91747 0.0
C799 C 0.24888 0.52529 0.87754 0.0
H800 H 0.76808 0.26772 0.52605 0.0
H801 H 0.74572 0.26455 0.75955 0.0
H802 H 0.72371 0.25906 0.68282 0.0
H803 H 0.7111 0.25521 0.551 0.0
H804 H 0.73341 0.25893 0.31742 0.0
H805 H 0.75547 0.26372 0.39414 0.0
C806 C 0.75844 0.26592 0.56094 0.0
C807 C 0.75862 0.26666 0.64917 0.0
C808 C 0.74591 0.26259 0.51651 0.0
C809 C 0.74594 0.26418 0.69212 0.0
C810 C 0.73337 0.26093 0.64816 0.0
C811 C 0.72074 0.25688 0.51607 0.0
C812 C 0.72053 0.25658 0.42782 0.0
C813 C 0.73328 0.26003 0.56048 0.0
C814 C 0.73322 0.25894 0.38485 0.0
C815 C 0.74581 0.26181 0.42882 0.0
H816 H 0.71529 0.53356 0.24579 0.0
H817 H 0.73579 0.52756 0.48552 0.0
H818 H 0.75834 0.52218 0.41539 0.0
H819 H 0.77184 0.51807 0.28739 0.0
H820 H 0.75123 0.5232 0.04778 0.0
H821 H 0.72878 0.52982 0.11795 0.0
C822 C 0.72464 0.53126 0.28342 0.0
C823 C 0.72381 0.53103 0.37133 0.0
C824 C 0.73744 0.52782 0.24283 0.0
C825 C 0.73611 0.5279 0.41811 0.0
C826 C 0.74898 0.52474 0.37797 0.0
C827 C 0.76249 0.52068 0.24986 0.0
C828 C 0.76325 0.52012 0.16195 0.0
C829 C 0.74971 0.52446 0.29048 0.0
C830 C 0.75096 0.52346 0.11521 0.0
C831 C 0.73815 0.52732 0.15535 0.0
H832 H 0.46254 1.01494 0.46472 0.0
H833 H 0.48278 1.00054 0.70205 0.0
H834 H 0.50558 1.00183 0.63354 0.0
H835 H 0.51953 1.00793 0.50816 0.0
H836 H 0.49947 0.02364 0.2711 0.0
H837 H 0.47657 0.02045 0.33849 0.0
C838 C 0.4719 1.01208 0.50199 0.0
C839 C 0.47091 1.00778 0.58894 0.0
C840 C 0.48492 1.0129 0.46227 0.0
C841 C 0.4832 1.00393 0.6354 0.0
C842 C 0.49623 1.00464 0.59617 0.0
C843 C 0.5102 1.0106 0.47054 0.0
C844 C 0.51126 1.01611 0.38425 0.0
C845 C 0.49718 1.00922 0.50983 0.0
C846 C 0.49898 1.01938 0.33731 0.0
C847 C 0.4859 1.01765 0.37595 0.0
H848 H 0.46489 0.26357 0.75697 0.0
H849 H 0.4862 0.26823 0.52034 0.0
H850 H 0.5087 0.26426 0.59239 0.0
H851 H 0.52209 0.26005 0.72139 0.0
H852 H 0.50086 0.2564 0.95847 0.0
H853 H 0.47832 0.25919 0.88619 0.0
C854 C 0.47442 0.26364 0.72057 0.0
C855 C 0.47381 0.26616 0.63284 0.0
C856 C 0.48726 0.26144 0.76237 0.0
C857 C 0.48632 0.26637 0.58756 0.0
C858 C 0.49918 0.26404 0.62882 0.0
C859 C 0.51258 0.25964 0.75791 0.0
C860 C 0.51323 0.25786 0.84582 0.0
C861 C 0.49974 0.2616 0.7161 0.0
C862 C 0.50071 0.25764 0.89112 0.0
C863 C 0.48783 0.2593 0.84974 0.0
H864 H 0.464 0.75764 0.25925 0.0
H865 H 0.48485 0.77161 0.02426 0.0
H866 H 0.50747 0.76991 0.09566 0.0
H867 H 0.52096 0.76594 0.2236 0.0
H868 H 0.50022 0.75335 0.45965 0.0
H869 H 0.47757 0.75342 0.38775 0.0
C870 C 0.47345 0.76023 0.22302 0.0
C871 C 0.47271 0.76478 0.13605 0.0
C872 C 0.48632 0.7597 0.26459 0.0
C873 C 0.48511 0.76805 0.09088 0.0
C874 C 0.49802 0.76716 0.13178 0.0
C875 C 0.51154 0.7631 0.26006 0.0
C876 C 0.51232 0.7596 0.34742 0.0
C877 C 0.49869 0.76324 0.21855 0.0
C878 C 0.49993 0.75608 0.3927 0.0
C879 C 0.48701 0.75608 0.35153 0.0
H880 H 0.52248 0.51985 0.02707 0.0
H881 H 0.50167 0.52927 0.78929 0.0
H882 H 0.47902 0.5247 0.8584 0.0
H883 H 0.46542 0.51803 0.98474 0.0
H884 H 0.4861 0.50888 0.22299 0.0
H885 H 0.50881 0.51332 0.15397 0.0
C886 C 0.51303 0.52085 0.98977 0.0
C887 C 0.5138 0.5248 0.90262 0.0
C888 C 0.50012 0.51823 0.02984 0.0
C889 C 0.5014 0.52624 0.85612 0.0
C890 C 0.48846 0.5236 0.89566 0.0
C891 C 0.47484 0.51691 0.02223 0.0
C892 C 0.47402 0.51303 0.10938 0.0
C893 C 0.48775 0.51955 0.98233 0.0
C894 C 0.48641 0.51176 0.1561 0.0
C895 C 0.49937 0.51433 0.11661 0.0
H896 H 0.37963 0.26488 0.54717 0.0
H897 H 0.39878 0.27622 0.30607 0.0
H898 H 0.376 0.27526 0.23945 0.0
H899 H 0.35055 0.27182 0.24857 0.0
H900 H 0.33118 0.26142 0.48916 0.0
H901 H 0.35404 0.26127 0.5562 0.0
C902 C 0.37882 0.26712 0.48011 0.0
C903 C 0.39094 0.27062 0.43212 0.0
C904 C 0.36561 0.26667 0.44162 0.0
C905 C 0.38967 0.27354 0.34508 0.0
C906 C 0.37661 0.27295 0.30653 0.0
C907 C 0.35133 0.26933 0.31557 0.0
C908 C 0.33916 0.26665 0.3635 0.0
C909 C 0.36451 0.26956 0.3541 0.0
C910 C 0.34037 0.26366 0.4505 0.0
C911 C 0.35346 0.26356 0.48911 0.0
H912 H 0.83941 1.01752 0.34799 0.0
H913 H 0.85633 0.02403 0.59705 0.0
H914 H 0.88 0.02247 0.54111 0.0
H915 H 0.89584 1.01765 0.42226 0.0
H916 H 0.8789 1.01153 0.17325 0.0
H917 H 0.85523 1.01451 0.22889 0.0
C918 C 0.84825 1.01872 0.39025 0.0
C919 C 0.84606 0.02075 0.47675 0.0
C920 C 0.86183 1.01772 0.35778 0.0
C921 C 0.85768 0.02248 0.53025 0.0
C922 C 0.87123 0.02149 0.49834 0.0
C923 C 0.88698 1.01692 0.38002 0.0
C924 C 0.88915 1.01414 0.29371 0.0
C925 C 0.87342 1.0188 0.41233 0.0
C926 C 0.87755 1.01361 0.23993 0.0
C927 C 0.864 1.0153 0.27169 0.0
H928 H 0.39467 0.02321 0.89917 0.0
H929 H 0.378 0.02315 0.64887 0.0
H930 H 0.35429 0.0265 0.7043 0.0
H931 H 0.33834 0.02704 0.82377 0.0
H932 H 0.35521 0.02686 0.07371 0.0
H933 H 0.37887 0.02605 0.01791 0.0
C934 C 0.38588 0.02404 0.85642 0.0
C935 C 0.38813 0.0227 0.76986 0.0
C936 C 0.37232 0.02581 0.88862 0.0
C937 C 0.37659 0.02411 0.71572 0.0
C938 C 0.36302 0.02594 0.74739 0.0
C939 C 0.34717 0.02694 0.86622 0.0
C940 C 0.34495 0.0268 0.95295 0.0
C941 C 0.36077 0.02641 0.83375 0.0
C942 C 0.35656 0.02692 1.00676 0.0
C943 C 0.37011 0.02641 0.97492 0.0
H944 H 0.85187 0.27003 0.74217 0.0
H945 H 0.83326 0.2541 0.98216 0.0
H946 H 0.85616 0.25638 0.04845 0.0
H947 H 0.88143 0.26385 0.03918 0.0
H948 H 0.90004 0.28086 0.79954 0.0
H949 H 0.87724 0.27741 0.73289 0.0
C950 C 0.85287 0.26674 0.80878 0.0
C951 C 0.8409 0.26185 0.85699 0.0
C952 C 0.86606 0.26857 0.84697 0.0
C953 C 0.84232 0.25799 0.94351 0.0
C954 C 0.85541 0.25933 0.98164 0.0
C955 C 0.88051 0.26692 0.97245 0.0
C956 C 0.89247 0.27267 0.92481 0.0
C957 C 0.86734 0.26489 0.93414 0.0
C958 C 0.89104 0.27649 0.83818 0.0
C959 C 0.87799 0.27443 0.79969 0.0
H960 H 0.58984 0.77854 0.65825 0.0
H961 H 0.6062 0.76797 0.40959 0.0
H962 H 0.62997 0.77224 0.46324 0.0
H963 H 0.64601 0.77668 0.58079 0.0
H964 H 0.6298 0.787 0.82986 0.0
H965 H 0.60596 0.78553 0.77535 0.0
C966 C 0.5986 0.77722 0.61566 0.0
C967 C 0.59626 0.7727 0.53013 0.0
C968 C 0.61222 0.77974 0.64683 0.0
C969 C 0.60771 0.77137 0.47573 0.0
C970 C 0.62131 0.7738 0.50633 0.0
C971 C 0.63729 0.77881 0.62333 0.0
C972 C 0.63969 0.78171 0.70938 0.0
C973 C 0.62367 0.77767 0.5918 0.0
C974 C 0.62825 0.78473 0.76334 0.0
C975 C 0.61462 0.78375 0.73229 0.0
H976 H 0.08985 1.01422 0.58849 0.0
H977 H 0.10443 1.01582 0.84322 0.0
H978 H 0.12859 1.01408 0.79549 0.0
H979 H 0.14559 1.014 0.68147 0.0
H980 H 0.13096 1.01152 0.42683 0.0
H981 H 0.10682 1.01155 0.47476 0.0
C982 C 0.09831 1.01412 0.63362 0.0
C983 C 0.09533 1.01537 0.71922 0.0
C984 C 0.11218 1.01298 0.60585 0.0
C985 C 0.10642 1.01488 0.77689 0.0
C986 C 0.12025 1.01396 0.7497 0.0
C987 C 0.13713 1.01334 0.63641 0.0
C988 C 0.1401 1.01296 0.55071 0.0
C989 C 0.12325 1.01329 0.66432 0.0
C990 C 0.129 1.01183 0.49323 0.0
C991 C 0.11517 1.01193 0.52052 0.0
H992 H 0.64633 0.02428 0.20289 0.0
H993 H 0.63174 1.01381 0.94963 0.0
H994 H 0.60769 1.01348 0.99773 0.0
H995 H 0.5908 1.01746 0.10963 0.0
H996 H 0.60481 0.02794 0.36371 0.0
H997 H 0.62914 0.02672 0.31699 0.0
C998 C 0.6379 0.02183 0.15819 0.0
C999 C 0.6409 1.01922 0.0726 0.0
C1000 C 0.624 0.02166 0.18624 0.0
C1001 C 0.62981 1.01593 0.01578 0.0
C1002 C 0.61601 1.01575 0.04317 0.0
C1003 C 0.59913 1.01946 0.1552 0.0
C1004 C 0.59596 0.02299 0.2401 0.0
C1005 C 0.613 1.01882 0.12802 0.0
C1006 C 0.60694 0.02522 0.29797 0.0
C1007 C 0.62086 0.0246 0.27125 0.0
H1008 H 0.08991 0.76954 0.18207 0.0
H1009 H 0.10344 0.77844 0.92703 0.0
H1010 H 0.12779 0.77784 0.97222 0.0
H1011 H 0.14525 0.77356 0.08382 0.0
H1012 H 0.13152 0.7653 0.33876 0.0
H1013 H 0.10725 0.76687 0.29357 0.0
C1014 C 0.09816 0.77143 0.13628 0.0
C1015 C 0.09484 0.77389 0.05134 0.0
C1016 C 0.11213 0.77109 0.16254 0.0
C1017 C 0.10569 0.77653 0.99293 0.0
C1018 C 0.11963 0.77611 0.01863 0.0
C1019 C 0.13695 0.77208 0.12947 0.0
C1020 C 0.14022 0.7692 0.21442 0.0
C1021 C 0.12297 0.77316 0.10322 0.0
C1022 C 0.12933 0.76758 0.27289 0.0
C1023 C 0.11542 0.76844 0.24719 0.0
H1024 H 0.33908 0.77219 0.9252 0.0
H1025 H 0.35484 0.76014 0.67557 0.0
H1026 H 0.37857 0.75654 0.73021 0.0
H1027 H 0.39482 0.75972 0.84673 0.0
H1028 H 0.37934 0.77287 0.09636 0.0
H1029 H 0.35535 0.77279 0.04331 0.0
C1030 C 0.34767 0.76858 0.88256 0.0
C1031 C 0.34518 0.7667 0.79619 0.0
C1032 C 0.36129 0.76678 0.91426 0.0
C1033 C 0.35644 0.76179 0.7422 0.0
C1034 C 0.37003 0.75977 0.77337 0.0
C1035 C 0.38623 0.76247 0.88994 0.0
C1036 C 0.38888 0.76663 0.97539 0.0
C1037 C 0.37256 0.76272 0.85902 0.0
C1038 C 0.37759 0.76972 0.03032 0.0
C1039 C 0.36389 0.76977 0.99997 0.0
H1040 H 0.89573 0.52113 0.92341 0.0
H1041 H 0.87877 0.51838 0.67384 0.0
H1042 H 0.85509 0.51816 0.73036 0.0
H1043 H 0.83937 0.51719 0.85029 0.0
H1044 H 0.8564 0.52012 0.09966 0.0
H1045 H 0.88003 0.52189 0.04294 0.0
C1046 C 0.88687 0.52055 0.88111 0.0
C1047 C 0.88901 0.51962 0.79446 0.0
C1048 C 0.87335 0.52038 0.91391 0.0
C1049 C 0.87741 0.51912 0.74076 0.0
C1050 C 0.86388 0.51891 0.77302 0.0
C1051 C 0.84824 0.51821 0.89241 0.0
C1052 C 0.84614 0.5183 0.97915 0.0
C1053 C 0.86175 0.51927 0.85947 0.0
C1054 C 0.85774 0.51999 0.03269 0.0
C1055 C 0.87124 0.52096 1.00033 0.0
H1056 H 0.34041 0.51921 0.34917 0.0
H1057 H 0.35751 0.52311 0.59826 0.0
H1058 H 0.38115 0.52167 0.54141 0.0
H1059 H 0.39682 0.51802 0.42174 0.0
H1060 H 0.37968 0.51423 0.17273 0.0
H1061 H 0.35606 0.5169 0.22943 0.0
C1062 C 0.34928 0.51986 0.3913 0.0
C1063 C 0.34718 0.52119 0.478 0.0
C1064 C 0.3628 0.51894 0.3583 0.0
C1065 C 0.35882 0.52213 0.53134 0.0
C1066 C 0.37234 0.52123 0.49889 0.0
C1067 C 0.38794 0.51778 0.37963 0.0
C1068 C 0.39002 0.51579 0.29302 0.0
C1069 C 0.37443 0.5194 0.41256 0.0
C1070 C 0.37838 0.51573 0.23958 0.0
C1071 C 0.36488 0.51724 0.27195 0.0
H1072 H 0.83727 0.76662 0.43766 0.0
H1073 H 0.85342 0.76726 0.18662 0.0
H1074 H 0.87725 0.76587 0.24082 0.0
H1075 H 0.89341 0.7672 0.35897 0.0
H1076 H 0.87725 0.76695 0.61002 0.0
H1077 H 0.85344 0.76526 0.55576 0.0
C1078 C 0.84598 0.76633 0.3946 0.0
C1079 C 0.84355 0.76732 0.30818 0.0
C1080 C 0.85964 0.76567 0.42608 0.0
C1081 C 0.85498 0.7666 0.25343 0.0
C1082 C 0.86861 0.76587 0.28435 0.0
C1083 C 0.8847 0.76664 0.40203 0.0
C1084 C 0.88713 0.76747 0.48849 0.0
C1085 C 0.87105 0.76584 0.37052 0.0
C1086 C 0.87571 0.7664 0.54319 0.0
C1087 C 0.86207 0.76552 0.51224 0.0
H1088 H 0.64537 0.27812 0.10088 0.0
H1089 H 0.62781 0.27808 0.34849 0.0
H1090 H 0.6043 0.28045 0.28933 0.0
H1091 H 0.58881 0.27925 0.1679 0.0
H1092 H 0.60633 0.27871 0.92022 0.0
H1093 H 0.62987 0.28009 0.97935 0.0
C1094 C 0.63642 0.27881 0.14216 0.0
C1095 C 0.63837 0.27763 0.22913 0.0
C1096 C 0.62295 0.27998 0.10778 0.0
C1097 C 0.62664 0.27889 0.28142 0.0
C1098 C 0.61319 0.28016 0.24762 0.0
C1099 C 0.59776 0.27962 0.12658 0.0
C1100 C 0.59579 0.27859 0.03961 0.0
C1101 C 0.61123 0.28019 0.16094 0.0
C1102 C 0.60752 0.27943 0.98729 0.0
C1103 C 0.62099 0.28012 0.02109 0.0
H1104 H 0.09014 0.51467 0.10511 0.0
H1105 H 0.10633 0.51672 0.35646 0.0
H1106 H 0.13017 0.51477 0.3028 0.0
H1107 H 0.14634 0.51524 0.18449 0.0
H1108 H 0.12998 0.51346 0.93344 0.0
H1109 H 0.1062 0.51251 0.98753 0.0
C1110 C 0.09886 0.51456 0.14842 0.0
C1111 C 0.09644 0.5161 0.23471 0.0
C1112 C 0.11249 0.51363 0.11724 0.0
C1113 C 0.10788 0.51558 0.28975 0.0
C1114 C 0.12152 0.51458 0.25911 0.0
C1115 C 0.13758 0.51454 0.14148 0.0
C1116 C 0.13994 0.51467 0.05498 0.0
C1117 C 0.12394 0.51405 0.17295 0.0
C1118 C 0.12848 0.51344 1.00027 0.0
C1119 C 0.11487 0.51295 0.03113 0.0
H1120 H 0.64653 0.51653 0.68022 0.0
H1121 H 0.63077 0.51669 0.42775 0.0
H1122 H 0.60687 0.5148 0.47984 0.0
H1123 H 0.59056 0.51614 0.5964 0.0
H1124 H 0.60625 0.51657 0.84899 0.0
H1125 H 0.63019 0.51493 0.79696 0.0
C1126 C 0.63789 0.51601 0.6364 0.0
C1127 C 0.64044 0.51707 0.55019 0.0
C1128 C 0.6242 0.51509 0.66669 0.0
C1129 C 0.62911 0.51601 0.49442 0.0
C1130 C 0.61544 0.51499 0.52413 0.0
C1131 C 0.59919 0.51572 0.64031 0.0
C1132 C 0.59662 0.51678 0.7265 0.0
C1133 C 0.61288 0.515 0.61008 0.0
C1134 C 0.60793 0.51586 0.78234 0.0
C1135 C 0.62162 0.51501 0.75265 0.0
H1136 H 0.13015 0.28717 0.77812 0.0
H1137 H 0.15001 0.24752 0.56629 0.0
H1138 H 0.12847 0.25064 0.48709 0.0
H1139 H 0.10366 0.2628 0.47845 0.0
H1140 H 0.08331 0.3007 0.69059 0.0
H1141 H 0.10531 0.30053 0.76805 0.0
C1142 C 0.12973 0.27915 0.71481 0.0
C1143 C 0.14169 0.26713 0.67867 0.0
C1144 C 0.11722 0.28094 0.66892 0.0
C1145 C 0.14099 0.25698 0.5961 0.0
C1146 C 0.12866 0.25877 0.55029 0.0
C1147 C 0.10413 0.27157 0.54094 0.0
C1148 C 0.09196 0.28187 0.57859 0.0
C1149 C 0.1167 0.27065 0.58599 0.0
C1150 C 0.09262 0.29266 0.66028 0.0
C1151 C 0.10516 0.29243 0.70482 0.0
H1152 H 0.29312 0.24027 0.63114 0.0
H1153 H 0.28646 0.33057 0.60881 0.0
H1154 H 0.29233 0.33695 0.75649 0.0
H1155 H 0.29981 0.31679 0.89164 0.0
H1156 H 0.30838 0.22697 0.91028 0.0
H1157 H 0.3016 0.22046 0.7644 0.0
C1158 C 0.29273 0.26126 0.65914 0.0
C1159 C 0.28903 0.28486 0.60987 0.0
C1160 C 0.29675 0.26488 0.74303 0.0
C1161 C 0.28903 0.31206 0.646 0.0
C1162 C 0.2925 0.31572 0.73019 0.0
C1163 C 0.30034 0.29585 0.86341 0.0
C1164 C 0.30467 0.27242 0.91167 0.0
C1165 C 0.29651 0.29231 0.77916 0.0
C1166 C 0.30525 0.24541 0.87433 0.0
C1167 C 0.30125 0.24163 0.79106 0.0
H1168 H 0.92191 0.03378 0.57483 0.0
H1169 H 0.95545 0.97258 0.56447 0.0
H1170 H 0.95232 0.96232 0.71333 0.0
H1171 H 0.94001 0.97128 0.84619 0.0
H1172 H 0.90634 0.03233 0.85308 0.0
H1173 H 0.90936 0.04174 0.70462 0.0
C1174 C 0.92863 1.01831 0.60516 0.0
C1175 C 0.93901 1.00416 0.55925 0.0
C1176 C 0.92658 1.01225 0.68957 0.0
C1177 C 0.94748 0.98392 0.59899 0.0
C1178 C 0.94563 0.97796 0.68378 0.0
C1179 C 0.93323 0.98636 0.81478 0.0
C1180 C 0.92291 1.00102 0.86016 0.0
C1181 C 0.93517 0.99196 0.72959 0.0
C1182 C 0.91429 0.02071 0.81922 0.0
C1183 C 0.91607 0.02622 0.73457 0.0
H1184 H 0.30588 0.9757 0.41331 0.0
H1185 H 0.31162 0.06636 0.39167 0.0
H1186 H 0.30493 0.07259 0.53743 0.0
H1187 H 0.29733 0.05229 0.67124 0.0
H1188 H 0.29351 0.96142 0.69684 0.0
H1189 H 0.29926 0.95516 0.54915 0.0
C1190 C 0.30581 0.99677 0.4409 0.0
C1191 C 0.30931 0.02053 0.39197 0.0
C1192 C 0.30203 1.00016 0.525 0.0
C1193 C 0.30913 0.04771 0.4283 0.0
C1194 C 0.30517 0.05131 0.51144 0.0
C1195 C 0.29752 0.03118 0.64391 0.0
C1196 C 0.29468 1.00736 0.69391 0.0
C1197 C 0.30148 0.02773 0.56019 0.0
C1198 C 0.29543 0.98005 0.65885 0.0
C1199 C 0.29883 0.97648 0.57474 0.0
H1200 H 0.94247 0.3061 0.38654 0.0
H1201 H 0.91073 0.24109 0.37736 0.0
H1202 H 0.91407 0.23174 0.52604 0.0
H1203 H 0.92622 0.24157 0.65808 0.0
H1204 H 0.9576 0.30723 0.66897 0.0
H1205 H 0.95438 0.31653 0.5198 0.0
C1206 C 0.93618 0.2901 0.41735 0.0
C1207 C 0.92628 0.27444 0.37113 0.0
C1208 C 0.93826 0.28469 0.50276 0.0
C1209 C 0.91832 0.25358 0.41167 0.0
C1210 C 0.9203 0.24811 0.49655 0.0
C1211 C 0.93245 0.25776 0.62765 0.0
C1212 C 0.94225 0.2735 0.67423 0.0
C1213 C 0.93031 0.26337 0.54252 0.0
C1214 C 0.95008 0.29469 0.63426 0.0
C1215 C 0.94818 0.30009 0.54913 0.0
H1216 H 0.69258 0.78672 0.15389 0.0
H1217 H 0.65496 0.7364 0.15896 0.0
H1218 H 0.65799 0.72856 0.30886 0.0
H1219 H 0.6712 0.73667 0.4388 0.0
H1220 H 0.70909 0.78622 0.43268 0.0
H1221 H 0.70631 0.7931 0.28245 0.0
C1222 C 0.68497 0.77427 0.18805 0.0
C1223 C 0.67342 0.76254 0.14588 0.0
C1224 C 0.68698 0.76933 0.27366 0.0
C1225 C 0.66383 0.7459 0.19038 0.0
C1226 C 0.66561 0.74129 0.27591 0.0
C1227 C 0.67895 0.74864 0.40434 0.0
C1228 C 0.69036 0.76088 0.44676 0.0
C1229 C 0.67716 0.75286 0.31818 0.0
C1230 C 0.70026 0.77648 0.4014 0.0
C1231 C 0.69861 0.78061 0.31563 0.0
H1232 H 0.04123 1.00844 0.15442 0.0
H1233 H 0.07835 0.06031 0.16001 0.0
H1234 H 0.07547 0.06764 0.31022 0.0
H1235 H 0.0626 0.0584 0.44027 0.0
H1236 H 0.02531 1.00698 0.43348 0.0
H1237 H 0.02783 1.00096 0.28289 0.0
C1238 C 0.04875 0.02116 0.18872 0.0
C1239 C 0.06012 0.03347 0.14669 0.0
C1240 C 0.04686 0.02571 0.27445 0.0
C1241 C 0.06961 0.05039 0.19136 0.0
C1242 C 0.06792 0.05469 0.27704 0.0
C1243 C 0.05492 0.04622 0.40557 0.0
C1244 C 0.04376 0.03318 0.44783 0.0
C1245 C 0.05658 0.04246 0.31923 0.0
C1246 C 0.03395 1.01731 0.40226 0.0
C1247 C 0.03545 1.01368 0.3163 0.0
H1248 H 0.68047 0.0698 0.61893 0.0
H1249 H 0.67522 0.97897 0.63908 0.0
H1250 H 0.68181 0.9732 0.49298 0.0
H1251 H 0.68917 0.99396 0.35948 0.0
H1252 H 0.69239 0.08496 0.33513 0.0
H1253 H 0.68679 0.0908 0.48322 0.0
C1254 C 0.68063 0.0488 0.59092 0.0
C1255 C 0.67731 0.02485 0.63946 0.0
C1256 C 0.68433 0.04568 0.50667 0.0
C1257 C 0.67758 0.99774 0.60269 0.0
C1258 C 0.68148 0.99441 0.51939 0.0
C1259 C 0.68888 1.01501 0.38717 0.0
C1260 C 0.69151 0.039 0.3375 0.0
C1261 C 0.68499 1.01819 0.47101 0.0
C1262 C 0.69064 0.06623 0.37293 0.0
C1263 C 0.68732 0.06954 0.45723 0.0
H1264 H 0.06143 0.73307 0.33391 0.0
H1265 H 0.02504 0.78721 0.33858 0.0
H1266 H 0.0275 0.79292 0.48935 0.0
H1267 H 0.04063 0.78437 0.61852 0.0
H1268 H 0.07682 0.72974 0.61521 0.0
H1269 H 0.07398 0.72273 0.46475 0.0
C1270 C 0.05393 0.74578 0.36819 0.0
C1271 C 0.04305 0.75969 0.32534 0.0
C1272 C 0.05555 0.74933 0.45463 0.0
C1273 C 0.03346 0.77622 0.37031 0.0
C1274 C 0.03492 0.77966 0.45636 0.0
C1275 C 0.04796 0.77111 0.58468 0.0
C1276 C 0.05905 0.75792 0.62735 0.0
C1277 C 0.04608 0.76676 0.49885 0.0
C1278 C 0.0683 0.74033 0.5833 0.0
C1279 C 0.06663 0.73621 0.49749 0.0
H1280 H 0.31221 0.8176 0.06659 0.0
H1281 H 0.27767 0.7588 0.07409 0.0
H1282 H 0.28085 0.7531 0.22448 0.0
H1283 H 0.29408 0.7633 0.3527 0.0
H1284 H 0.32822 0.82302 0.34641 0.0
H1285 H 0.32476 0.82955 0.19626 0.0
C1286 C 0.30527 0.80382 0.10137 0.0
C1287 C 0.2947 0.78864 0.05936 0.0
C1288 C 0.30728 0.8004 0.18761 0.0
C1289 C 0.28583 0.77079 0.1051 0.0
C1290 C 0.28772 0.76736 0.19094 0.0
C1291 C 0.30085 0.77754 0.31821 0.0
C1292 C 0.31156 0.79231 0.36002 0.0
C1293 C 0.29856 0.78167 0.23254 0.0
C1294 C 0.32002 0.8112 0.31519 0.0
C1295 C 0.31799 0.81503 0.22956 0.0
H1296 H 0.93889 0.54088 0.35222 0.0
H1297 H 0.9102 0.47023 0.35023 0.0
H1298 H 0.91344 0.46475 0.19966 0.0
H1299 H 0.9245 0.48019 0.06847 0.0
H1300 H 0.95328 0.55073 0.07176 0.0
H1301 H 0.95016 0.5558 0.22217 0.0
C1302 C 0.93325 0.52444 0.31867 0.0
C1303 C 0.9242 0.50615 0.36198 0.0
C1304 C 0.93535 0.52116 0.23259 0.0
C1305 C 0.91712 0.48469 0.31802 0.0
C1306 C 0.91904 0.48148 0.23208 0.0
C1307 C 0.9302 0.49647 0.10238 0.0
C1308 C 0.93917 0.51499 0.05924 0.0
C1309 C 0.92818 0.49951 0.18876 0.0
C1310 C 0.94638 0.53615 0.10369 0.0
C1311 C 0.94453 0.53915 0.18959 0.0
H1312 H 0.29699 0.54274 0.92216 0.0
H1313 H 0.32668 0.47375 0.92431 0.0
H1314 H 0.32348 0.46819 0.07485 0.0
H1315 H 0.31219 0.48306 0.20608 0.0
H1316 H 0.28241 0.55193 0.20287 0.0
H1317 H 0.28548 0.5571 0.05242 0.0
C1318 C 0.30285 0.52665 0.95574 0.0
C1319 C 0.31217 0.50886 0.91238 0.0
C1320 C 0.30078 0.52332 0.04191 0.0
C1321 C 0.31953 0.48784 0.95646 0.0
C1322 C 0.31765 0.48457 0.04242 0.0
C1323 C 0.30627 0.49899 0.17221 0.0
C1324 C 0.29702 0.517 0.21546 0.0
C1325 C 0.30825 0.5021 0.08577 0.0
C1326 C 0.28953 0.53773 0.17094 0.0
C1327 C 0.29134 0.5408 0.08499 0.0
H1328 H 0.92494 0.82487 0.94524 0.0
H1329 H 0.92131 0.73374 0.92242 0.0
H1330 H 0.92805 0.72807 0.0684 0.0
H1331 H 0.93513 0.74898 0.20222 0.0
H1332 H 0.93688 0.84011 0.22923 0.0
H1333 H 0.93102 0.84595 0.08138 0.0
C1334 C 0.92548 0.80381 0.97265 0.0
C1335 C 0.92259 0.77975 0.92348 0.0
C1336 C 0.92929 0.80075 0.05673 0.0
C1337 C 0.92335 0.75258 0.95939 0.0
C1338 C 0.92733 0.74932 0.04258 0.0
C1339 C 0.93446 0.77007 0.17518 0.0
C1340 C 0.93674 0.79409 0.22542 0.0
C1341 C 0.93045 0.77322 0.09156 0.0
C1342 C 0.9354 0.82136 0.19087 0.0
C1343 C 0.93194 0.82468 0.10676 0.0
H1344 H 0.68997 0.28031 0.67569 0.0
H1345 H 0.65493 0.22283 0.68316 0.0
H1346 H 0.65833 0.2164 0.83347 0.0
H1347 H 0.67105 0.22797 0.96306 0.0
H1348 H 0.70639 0.28475 0.95416 0.0
H1349 H 0.70333 0.29008 0.80359 0.0
C1350 C 0.68301 0.26655 0.7104 0.0
C1351 C 0.67206 0.25241 0.66884 0.0
C1352 C 0.68523 0.26253 0.79617 0.0
C1353 C 0.66332 0.23416 0.71409 0.0
C1354 C 0.66531 0.23039 0.79985 0.0
C1355 C 0.67819 0.24122 0.92794 0.0
C1356 C 0.68895 0.25595 0.96966 0.0
C1357 C 0.67624 0.24448 0.84155 0.0
C1358 C 0.69808 0.27312 0.92345 0.0
C1359 C 0.69626 0.27634 0.83748 0.0
H1360 H 0.06251 0.5659 0.95838 0.0
H1361 H 0.02878 0.50516 0.94988 0.0
H1362 H 0.03168 0.50027 0.79924 0.0
H1363 H 0.04455 0.51147 0.6715 0.0
H1364 H 0.0779 0.57303 0.67817 0.0
H1365 H 0.07459 0.57911 0.82862 0.0
C1366 C 0.05568 0.55188 0.92329 0.0
C1367 C 0.04545 0.53586 0.96498 0.0
C1368 C 0.05754 0.54894 0.83693 0.0
C1369 C 0.03669 0.51775 0.91901 0.0
C1370 C 0.03842 0.51479 0.83306 0.0
C1371 C 0.05117 0.52606 0.70608 0.0
C1372 C 0.06162 0.54145 0.66449 0.0
C1373 C 0.04898 0.52986 0.79173 0.0
C1374 C 0.0699 0.56076 0.70936 0.0
C1375 C 0.06796 0.56431 0.79511 0.0
H1376 H 0.6931 0.51094 0.1137 0.0
H1377 H 0.65856 0.56982 0.10571 0.0
H1378 H 0.66169 0.57546 0.95503 0.0
H1379 H 0.67399 0.56273 0.82558 0.0
H1380 H 0.70869 0.50421 0.83493 0.0
H1381 H 0.70599 0.49984 0.98587 0.0
C1382 C 0.68619 0.52486 0.07883 0.0
C1383 C 0.67548 0.53965 0.1202 0.0
C1384 C 0.68823 0.52834 0.99294 0.0
C1385 C 0.66678 0.55803 0.07481 0.0
C1386 C 0.66862 0.56134 0.9889 0.0
C1387 C 0.68107 0.5493 0.86088 0.0
C1388 C 0.69154 0.5338 0.81938 0.0
C1389 C 0.6793 0.54657 0.94735 0.0
C1390 C 0.7006 0.51641 0.86564 0.0
C1391 C 0.69899 0.51375 0.95176 0.0
H1392 H 0.05668 0.22613 0.83549 0.0
H1393 H 0.02882 0.2982 0.84219 0.0
H1394 H 0.03349 0.30438 0.99106 0.0
H1395 H 0.04613 0.29028 0.11891 0.0
H1396 H 0.07289 0.21658 0.11444 0.0
H1397 H 0.06823 0.21028 0.9653 0.0
C1398 C 0.05149 0.24296 0.86982 0.0
C1399 C 0.04239 0.26166 0.82767 0.0
C1400 C 0.05426 0.24642 0.95559 0.0
C1401 C 0.03578 0.28339 0.87308 0.0
C1402 C 0.03855 0.28709 0.95816 0.0
C1403 C 0.05107 0.27306 0.08493 0.0
C1404 C 0.06011 0.25428 0.12712 0.0
C1405 C 0.04793 0.26902 0.99983 0.0
C1406 C 0.06608 0.23154 0.08299 0.0
C1407 C 0.06334 0.22785 0.99786 0.0
H1408 H 0.80776 0.30153 0.1171 0.0
H1409 H 0.77234 0.24496 0.12406 0.0
H1410 H 0.77571 0.23817 0.27396 0.0
H1411 H 0.78932 0.24683 0.40222 0.0
H1412 H 0.82445 0.30411 0.39603 0.0
H1413 H 0.8208 0.31169 0.24653 0.0
C1414 C 0.80066 0.28803 0.15165 0.0
C1415 C 0.78977 0.27384 0.10944 0.0
C1416 C 0.80281 0.28388 0.23767 0.0
C1417 C 0.78074 0.25625 0.15506 0.0
C1418 C 0.78274 0.25217 0.24068 0.0
C1419 C 0.79626 0.26074 0.36789 0.0
C1420 C 0.8073 0.27453 0.4098 0.0
C1421 C 0.79388 0.26549 0.28238 0.0
C1422 C 0.816 0.293 0.36496 0.0
C1423 C 0.81385 0.29746 0.27961 0.0
H1424 H 0.445 0.99141 0.33495 0.0
H1425 H 0.40046 1.00426 0.3208 0.0
H1426 H 0.40159 1.00366 0.16816 0.0
H1427 H 0.41533 1.00007 0.03979 0.0
H1428 H 0.46017 0.99292 0.05325 0.0
H1429 H 0.45895 0.99064 0.20598 0.0
C1430 C 0.43555 0.99393 0.29817 0.0
C1431 C 0.42262 0.99749 0.33824 0.0
C1432 C 0.43639 0.99457 0.21096 0.0
C1433 C 0.41048 1.00139 0.29071 0.0
C1434 C 0.41114 1.001 0.20377 0.0
C1435 C 0.42482 0.99778 0.07627 0.0
C1436 C 0.43782 0.99621 0.03599 0.0
C1437 C 0.42404 0.99762 0.16339 0.0
C1438 C 0.45008 0.99396 0.08343 0.0
C1439 C 0.44936 0.99268 0.17043 0.0
H1440 H 0.80881 0.96852 0.9365 0.0
H1441 H 0.81107 0.05988 0.91691 0.0
H1442 H 0.80417 0.06461 0.06286 0.0
H1443 H 0.79732 0.04278 0.19603 0.0
H1444 H 0.797 0.9515 0.21961 0.0
H1445 H 0.80302 0.9466 0.07184 0.0
C1446 C 0.80794 0.98943 0.96458 0.0
C1447 C 0.8105 1.01382 0.91617 0.0
C1448 C 0.80405 0.99197 0.04875 0.0
C1449 C 0.8093 0.04079 0.95313 0.0
C1450 C 0.80523 0.04351 0.03637 0.0
C1451 C 0.79834 0.02184 0.16827 0.0
C1452 C 0.79639 0.9975 0.21771 0.0
C1453 C 0.80245 1.01927 0.08454 0.0
C1454 C 0.79821 0.97049 0.18208 0.0
C1455 C 0.80177 0.96771 0.09793 0.0
H1456 H 0.43853 0.30865 0.89403 0.0
H1457 H 0.4115 0.23538 0.88266 0.0
H1458 H 0.41529 0.22674 0.03131 0.0
H1459 H 0.42658 0.23954 0.16375 0.0
H1460 H 0.45337 0.31313 0.17647 0.0
H1461 H 0.44959 0.3219 0.02755 0.0
C1462 C 0.43336 0.29097 0.92436 0.0
C1463 C 0.42466 0.27277 0.87763 0.0
C1464 C 0.43573 0.28596 1.00963 0.0
C1465 C 0.41814 0.2498 0.91746 0.0
C1466 C 0.42038 0.24475 1.00229 0.0
C1467 C 0.4317 0.25736 0.13375 0.0
C1468 C 0.44037 0.27551 0.18072 0.0
C1469 C 0.42925 0.26254 0.04876 0.0
C1470 C 0.44676 0.29874 0.14138 0.0
C1471 C 0.44453 0.30383 0.05643 0.0
H1472 H 0.188 0.79412 0.92129 0.0
H1473 H 0.19253 0.70336 0.94654 0.0
H1474 H 0.18743 0.69714 0.79768 0.0
H1475 H 0.18122 0.71778 0.66089 0.0
H1476 H 0.17447 0.80822 0.64045 0.0
H1477 H 0.1806 0.81437 0.78724 0.0
C1478 C 0.18809 0.77304 0.89367 0.0
C1479 C 0.19096 0.74925 0.9437 0.0
C1480 C 0.18447 0.7696 0.80946 0.0
C1481 C 0.19058 0.72196 0.90839 0.0
C1482 C 0.18756 0.71842 0.82367 0.0
C1483 C 0.18096 0.73876 0.689 0.0
C1484 C 0.17737 0.76251 0.64021 0.0
C1485 C 0.18435 0.74208 0.77376 0.0
C1486 C 0.17707 0.7896 0.67706 0.0
C1487 C 0.18069 0.79316 0.76075 0.0
H1488 H 0.57226 0.04871 0.68259 0.0
H1489 H 0.52842 0.04375 0.62267 0.0
H1490 H 0.52257 0.04071 0.77043 0.0
H1491 H 0.53011 0.03818 0.91728 0.0
H1492 H 0.5738 0.04817 0.9766 0.0
H1493 H 0.57957 0.05076 0.82908 0.0
C1494 C 0.56146 0.04712 0.70241 0.0
C1495 C 0.55079 0.04623 0.64301 0.0
C1496 C 0.55816 0.04632 0.78722 0.0
C1497 C 0.53678 0.04452 0.66825 0.0
C1498 C 0.53343 0.0427 0.75245 0.0
C1499 C 0.54084 0.0411 0.8974 0.0
C1500 C 0.55152 0.04283 0.95671 0.0
C1501 C 0.54404 0.0434 0.81254 0.0
C1502 C 0.56541 0.04693 0.93131 0.0
C1503 C 0.56873 0.04829 0.84716 0.0
H1504 H 0.17286 0.0557 0.82755 0.0
H1505 H 0.20974 1.00301 0.835 0.0
H1506 H 0.2071 0.99719 0.98558 0.0
H1507 H 0.19372 1.00533 0.11402 0.0
H1508 H 0.15706 0.05861 0.10784 0.0
H1509 H 0.16003 0.06559 0.95757 0.0
C1510 C 0.18042 0.04327 0.86237 0.0
C1511 C 0.19151 0.02984 0.82021 0.0
C1512 C 0.17871 0.03967 0.94879 0.0
C1513 C 0.20117 1.01366 0.86603 0.0
C1514 C 0.1996 1.01015 0.95203 0.0
C1515 C 0.18632 1.01828 0.0796 0.0
C1516 C 0.17505 0.03109 0.12157 0.0
C1517 C 0.18827 0.02264 0.99377 0.0
C1518 C 0.16572 0.0483 0.07664 0.0
C1519 C 0.16746 0.0524 0.99088 0.0
H1520 H 0.561 0.72925 0.8047 0.0
H1521 H 0.5316 0.79879 0.80911 0.0
H1522 H 0.53451 0.80312 0.95998 0.0
H1523 H 0.54583 0.78799 0.09001 0.0
H1524 H 0.57518 0.71839 0.08707 0.0
H1525 H 0.57206 0.71346 0.93606 0.0
C1526 C 0.55513 0.74515 0.83891 0.0
C1527 C 0.54604 0.76363 0.79592 0.0
C1528 C 0.55702 0.74777 0.9256 0.0
C1529 C 0.5386 0.78427 0.84085 0.0
C1530 C 0.54032 0.78685 0.92703 0.0
C1531 C 0.55163 0.77187 0.0562 0.0
C1532 C 0.56084 0.75375 0.09937 0.0
C1533 C 0.54962 0.76895 0.96987 0.0
C1534 C 0.56813 0.73272 0.05502 0.0
C1535 C 0.56628 0.72983 0.96882 0.0
H1536 H 0.80942 0.81291 0.58055 0.0
H1537 H 0.77551 0.75262 0.58935 0.0
H1538 H 0.77836 0.74835 0.74032 0.0
H1539 H 0.79121 0.75999 0.86841 0.0
H1540 H 0.82491 0.82073 0.86113 0.0
H1541 H 0.8216 0.8263 0.71042 0.0
C1542 C 0.80254 0.79912 0.61573 0.0
C1543 C 0.79226 0.78308 0.57397 0.0
C1544 C 0.8044 0.79646 0.70231 0.0
C1545 C 0.78346 0.76523 0.62017 0.0
C1546 C 0.78516 0.76263 0.70634 0.0
C1547 C 0.7979 0.7743 0.8337 0.0
C1548 C 0.80844 0.78962 0.87533 0.0
C1549 C 0.79575 0.77774 0.74775 0.0
C1550 C 0.81684 0.80852 0.83008 0.0
C1551 C 0.8149 0.81179 0.74413 0.0
H1552 H 0.44029 0.5368 0.84963 0.0
H1553 H 0.41111 0.46697 0.84588 0.0
H1554 H 0.41436 0.46183 0.69517 0.0
H1555 H 0.42552 0.47738 0.56435 0.0
H1556 H 0.45468 0.54726 0.56933 0.0
H1557 H 0.45163 0.55187 0.71996 0.0
C1558 C 0.43455 0.5206 0.81569 0.0
C1559 C 0.42537 0.50245 0.85857 0.0
C1560 C 0.43663 0.51755 0.72952 0.0
C1561 C 0.41815 0.48133 0.81405 0.0
C1562 C 0.42006 0.4783 0.72802 0.0
C1563 C 0.43131 0.49341 0.59866 0.0
C1564 C 0.44038 0.51188 0.55593 0.0
C1565 C 0.42933 0.49622 0.68514 0.0
C1566 C 0.44771 0.53272 0.60092 0.0
C1567 C 0.4459 0.53547 0.68694 0.0
H1568 H 0.7954 0.47594 0.42518 0.0
H1569 H 0.82914 0.53674 0.42109 0.0
H1570 H 0.82635 0.54497 0.57042 0.0
H1571 H 0.81399 0.53597 0.70002 0.0
H1572 H 0.78023 0.47533 0.70725 0.0
H1573 H 0.78317 0.46617 0.55756 0.0
C1574 C 0.80224 0.49072 0.45736 0.0
C1575 C 0.81252 0.50564 0.41268 0.0
C1576 C 0.80041 0.49566 0.54291 0.0
C1577 C 0.82122 0.52496 0.4545 0.0
C1578 C 0.81957 0.52977 0.53961 0.0
C1579 C 0.8072 0.52084 0.66888 0.0
C1580 C 0.79682 0.50649 0.71408 0.0
C1581 C 0.8091 0.51549 0.58401 0.0
C1582 C 0.78821 0.48675 0.67327 0.0
C1583 C 0.78995 0.48145 0.58803 0.0
H1584 H 0.45439 0.78683 0.65993 0.0
H1585 H 0.41056 0.78705 0.72122 0.0
H1586 H 0.40435 0.78925 0.57407 0.0
H1587 H 0.41138 0.79025 0.42725 0.0
H1588 H 0.45509 0.79531 0.36567 0.0
H1589 H 0.46141 0.792 0.51283 0.0
C1590 C 0.44353 0.78746 0.64051 0.0
C1591 C 0.43295 0.78665 0.70029 0.0
C1592 C 0.44002 0.78969 0.55587 0.0
C1593 C 0.41887 0.7878 0.67554 0.0
C1594 C 0.41529 0.78896 0.5916 0.0
C1595 C 0.42224 0.79079 0.44655 0.0
C1596 C 0.43275 0.79285 0.38672 0.0
C1597 C 0.42577 0.78982 0.53119 0.0
C1598 C 0.44684 0.79383 0.41147 0.0
C1599 C 0.45046 0.79184 0.49538 0.0
H1600 H 0.18749 0.2271 0.15297 0.0
H1601 H 0.16148 0.30198 0.14607 0.0
H1602 H 0.16582 0.31002 0.29468 0.0
H1603 H 0.17717 0.29605 0.42664 0.0
H1604 H 0.20294 0.22087 0.43464 0.0
H1605 H 0.19874 0.2129 0.28563 0.0
C1606 C 0.18265 0.24502 0.18419 0.0
C1607 C 0.17404 0.26379 0.13837 0.0
C1608 C 0.18533 0.24967 0.26971 0.0
C1609 C 0.16803 0.28709 0.17974 0.0
C1610 C 0.17058 0.29178 0.26472 0.0
C1611 C 0.18198 0.27805 0.39565 0.0
C1612 C 0.1905 0.25922 0.44176 0.0
C1613 C 0.17929 0.27333 0.31026 0.0
C1614 C 0.19646 0.2358 0.40068 0.0
C1615 C 0.19399 0.23117 0.31549 0.0
H1616 H 0.56912 0.54056 0.45169 0.0
H1617 H 0.52413 0.54156 0.43914 0.0
H1618 H 0.52518 0.54427 0.28645 0.0
H1619 H 0.53905 0.54535 0.15719 0.0
H1620 H 0.58392 0.53863 0.17045 0.0
H1621 H 0.58286 0.53911 0.32307 0.0
C1622 C 0.55955 0.54161 0.41542 0.0
C1623 C 0.54655 0.54128 0.45595 0.0
C1624 C 0.56027 0.54202 0.32831 0.0
C1625 C 0.53422 0.54197 0.40877 0.0
C1626 C 0.53484 0.54349 0.32179 0.0
C1627 C 0.54858 0.54417 0.19377 0.0
C1628 C 0.56157 0.54233 0.15345 0.0
C1629 C 0.54782 0.54342 0.281 0.0
C1630 C 0.57385 0.54016 0.20073 0.0
C1631 C 0.57323 0.54047 0.28767 0.0
H1632 H 0.17757 0.49118 0.33666 0.0
H1633 H 0.20014 0.57035 0.32273 0.0
H1634 H 0.19623 0.57844 0.47174 0.0
H1635 H 0.18627 0.56292 0.60602 0.0
H1636 H 0.16338 0.48407 0.61841 0.0
H1637 H 0.16731 0.47614 0.46969 0.0
C1638 C 0.18175 0.51008 0.36643 0.0
C1639 C 0.18928 0.53 0.31904 0.0
C1640 C 0.17921 0.51481 0.45156 0.0
C1641 C 0.19443 0.5546 0.35811 0.0
C1642 C 0.19212 0.55929 0.44316 0.0
C1643 C 0.18202 0.54416 0.57589 0.0
C1644 C 0.17447 0.52417 0.62303 0.0
C1645 C 0.18446 0.53961 0.49043 0.0
C1646 C 0.16914 0.49984 0.58338 0.0
C1647 C 0.17146 0.49522 0.49846 0.0
H1648 H 0.56277 0.22932 0.30643 0.0
H1649 H 0.52786 0.28733 0.31503 0.0
H1650 H 0.53101 0.29288 0.46545 0.0
H1651 H 0.54434 0.28298 0.59318 0.0
H1652 H 0.5789 0.22418 0.58619 0.0
H1653 H 0.57542 0.21755 0.43597 0.0
C1654 C 0.55574 0.24288 0.34148 0.0
C1655 C 0.54509 0.25791 0.29977 0.0
C1656 C 0.55774 0.24625 0.42775 0.0
C1657 C 0.53609 0.27547 0.34581 0.0
C1658 C 0.53796 0.27882 0.43167 0.0
C1659 C 0.55118 0.26889 0.55857 0.0
C1660 C 0.56202 0.25443 0.60014 0.0
C1661 C 0.5489 0.26473 0.47295 0.0
C1662 C 0.5706 0.23576 0.55514 0.0
C1663 C 0.56856 0.23187 0.46948 0.0
H1664 H 0.28695 0.42763 0.50604 0.0
H1665 H 0.33076 0.44444 0.4701 0.0
H1666 H 0.33258 0.4037 0.37611 0.0
H1667 H 0.32202 0.36217 0.30742 0.0
H1668 H 0.27873 0.34232 0.35089 0.0
H1669 H 0.2764 0.38479 0.43882 0.0
C1670 C 0.29682 0.42245 0.47675 0.0
C1671 C 0.30869 0.43918 0.49433 0.0
C1672 C 0.29792 0.39817 0.42481 0.0
C1673 C 0.32149 0.43193 0.45737 0.0
C1674 C 0.32255 0.40858 0.40372 0.0
C1675 C 0.31206 0.36717 0.336 0.0
C1676 C 0.30056 0.34911 0.32236 0.0
C1677 C 0.31089 0.39135 0.38762 0.0
C1678 C 0.28776 0.35581 0.36048 0.0
C1679 C 0.28642 0.38017 0.41062 0.0
H1680 H 0.94301 0.86297 0.49656 0.0
H1681 H 0.89866 0.84789 0.48584 0.0
H1682 H 0.89611 0.88447 0.37826 0.0
H1683 H 0.90649 0.92159 0.28843 0.0
H1684 H 0.95043 0.9401 0.3103 0.0
H1685 H 0.95317 0.90176 0.41203 0.0
C1686 C 0.93281 0.86773 0.47035 0.0
C1687 C 0.92104 0.85272 0.49862 0.0
C1688 C 0.93136 0.88954 0.41061 0.0
C1689 C 0.90786 0.85926 0.46513 0.0
C1690 C 0.90641 0.88014 0.40353 0.0
C1691 C 0.91665 0.91712 0.31542 0.0
C1692 C 0.92826 0.93349 0.29139 0.0
C1693 C 0.91807 0.89555 0.37598 0.0
C1694 C 0.94134 0.92778 0.32776 0.0
C1695 C 0.94292 0.90581 0.38584 0.0
H1696 H 0.32653 0.9308 0.98594 0.0
H1697 H 0.28292 0.95124 0.95593 0.0
H1698 H 0.27986 0.91022 0.86349 0.0
H1699 H 0.28975 0.86876 0.78763 0.0
H1700 H 0.33382 0.85142 0.80777 0.0
H1701 H 0.33651 0.89039 0.90768 0.0
C1702 C 0.31635 0.92618 0.95939 0.0
C1703 C 0.30496 0.94401 0.97822 0.0
C1704 C 0.31474 0.90289 0.90449 0.0
C1705 C 0.29187 0.93789 0.9425 0.0
C1706 C 0.2901 0.91437 0.88967 0.0
C1707 C 0.29989 0.87342 0.81468 0.0
C1708 C 0.31156 0.85709 0.79089 0.0
C1709 C 0.30146 0.8967 0.86988 0.0
C1710 C 0.32469 0.86367 0.82517 0.0
C1711 C 0.32623 0.88599 0.88225 0.0
H1712 H 0.94841 0.42288 0.76473 0.0
H1713 H 0.90594 0.44783 0.81444 0.0
H1714 H 0.90341 0.40854 0.91299 0.0
H1715 H 0.91287 0.36571 0.98059 0.0
H1716 H 0.95464 0.33787 0.92291 0.0
H1717 H 0.95784 0.37914 0.83174 0.0
C1718 C 0.9387 0.41981 0.79812 0.0
C1719 C 0.92741 0.43832 0.78321 0.0
C1720 C 0.93714 0.39638 0.85249 0.0
C1721 C 0.91477 0.43386 0.82532 0.0
C1722 C 0.91331 0.41136 0.88146 0.0
C1723 C 0.92269 0.36876 0.9483 0.0
C1724 C 0.93351 0.34879 0.95875 0.0
C1725 C 0.92435 0.39225 0.89478 0.0
C1726 C 0.94613 0.35289 0.91582 0.0
C1727 C 0.94798 0.37655 0.86383 0.0
H1728 H 0.69534 0.68079 0.73647 0.0
H1729 H 0.65198 0.70213 0.70022 0.0
H1730 H 0.64934 0.66268 0.60188 0.0
H1731 H 0.65917 0.62116 0.52856 0.0
H1732 H 0.70187 0.59664 0.57471 0.0
H1733 H 0.70496 0.63775 0.66696 0.0
C1734 C 0.68538 0.67684 0.70634 0.0
C1735 C 0.67389 0.69446 0.72485 0.0
C1736 C 0.68379 0.65331 0.65219 0.0
C1737 C 0.66096 0.68885 0.68677 0.0
C1738 C 0.65944 0.66627 0.63063 0.0
C1739 C 0.66915 0.62486 0.55879 0.0
C1740 C 0.6803 0.60597 0.54428 0.0
C1741 C 0.67074 0.64819 0.61333 0.0
C1742 C 0.69312 0.61086 0.58472 0.0
C1743 C 0.69491 0.63443 0.63735 0.0
H1744 H 0.07503 0.11996 0.75682 0.0
H1745 H 0.03312 0.09253 0.6999 0.0
H1746 H 0.02971 0.13415 0.61054 0.0
H1747 H 0.03897 0.17788 0.54412 0.0
H1748 H 0.08162 0.20242 0.59104 0.0
H1749 H 0.08437 0.16301 0.68923 0.0
C1750 C 0.06514 0.12319 0.72507 0.0
C1751 C 0.05433 0.10324 0.73534 0.0
C1752 C 0.06336 0.14687 0.67216 0.0
C1753 C 0.04161 0.10757 0.69309 0.0
C1754 C 0.03965 0.13141 0.64206 0.0
C1755 C 0.04877 0.17472 0.57687 0.0
C1756 C 0.06004 0.19312 0.56121 0.0
C1757 C 0.05046 0.15119 0.63073 0.0
C1758 C 0.0728 0.18853 0.60247 0.0
C1759 C 0.07438 0.16595 0.6584 0.0
H1760 H 0.65934 0.11359 0.04178 0.0
H1761 H 0.70307 0.09512 0.07563 0.0
H1762 H 0.70545 0.13624 0.16854 0.0
H1763 H 0.69488 0.17723 0.2435 0.0
H1764 H 0.65068 0.19245 0.21944 0.0
H1765 H 0.6487 0.15341 0.11923 0.0
C1766 C 0.66939 0.11867 0.06926 0.0
C1767 C 0.68102 0.10139 0.05138 0.0
C1768 C 0.6706 0.14197 0.12437 0.0
C1769 C 0.69395 0.10806 0.08832 0.0
C1770 C 0.69532 0.13163 0.1414 0.0
C1771 C 0.68487 0.17209 0.21554 0.0
C1772 C 0.67295 0.18784 0.23825 0.0
C1773 C 0.68371 0.14876 0.16018 0.0
C1774 C 0.65999 0.18065 0.20284 0.0
C1775 C 0.65885 0.15829 0.14559 0.0
H1776 H 0.07489 0.67559 0.03006 0.0
H1777 H 0.03185 0.6983 0.07124 0.0
H1778 H 0.02914 0.65792 0.16617 0.0
H1779 H 0.03925 0.61648 0.241 0.0
H1780 H 0.08293 0.59722 0.21047 0.0
H1781 H 0.08515 0.63536 0.10768 0.0
C1782 C 0.06491 0.67159 0.05959 0.0
C1783 C 0.05356 0.68979 0.0431 0.0
C1784 C 0.06354 0.64876 0.11599 0.0
C1785 C 0.04074 0.68458 0.08276 0.0
C1786 C 0.03918 0.66144 0.13699 0.0
C1787 C 0.04919 0.62055 0.21105 0.0
C1788 C 0.06089 0.60395 0.23257 0.0
C1789 C 0.05052 0.64339 0.1544 0.0
C1790 C 0.07379 0.60972 0.1947 0.0
C1791 C 0.07506 0.63156 0.13603 0.0
H1792 H 0.78881 0.42499 1.00106 0.0
H1793 H 0.83271 0.44076 0.96546 0.0
H1794 H 0.83437 0.39956 0.87277 0.0
H1795 H 0.82355 0.35814 0.80494 0.0
H1796 H 0.78023 0.33898 0.85054 0.0
H1797 H 0.7781 0.38194 0.93665 0.0
C1798 C 0.79867 0.41947 0.97212 0.0
C1799 C 0.81061 0.43603 0.98904 0.0
C1800 C 0.79966 0.39492 0.92147 0.0
C1801 C 0.8234 0.42837 0.95289 0.0
C1802 C 0.82435 0.40478 0.9001 0.0
C1803 C 0.81363 0.3634 0.83366 0.0
C1804 C 0.80204 0.34551 0.82087 0.0
C1805 C 0.8126 0.38773 0.88453 0.0
C1806 C 0.78931 0.35241 0.85938 0.0
C1807 C 0.78809 0.37703 0.90842 0.0
H1808 H 0.44422 0.92384 0.76459 0.0
H1809 H 0.39988 0.9386 0.7792 0.0
H1810 H 0.39768 0.90102 0.88392 0.0
H1811 H 0.40833 0.86317 0.96967 0.0
H1812 H 0.4522 0.84476 0.94343 0.0
H1813 H 0.45466 0.88415 0.84481 0.0
C1814 C 0.43412 0.91881 0.79115 0.0
C1815 C 0.42224 0.93398 0.7649 0.0
C1816 C 0.43285 0.89638 0.8489 0.0
C1817 C 0.40915 0.9271 0.79855 0.0
C1818 C 0.40789 0.90564 0.8584 0.0
C1819 C 0.41842 0.86789 0.94242 0.0
C1820 C 0.4301 0.85133 0.96437 0.0
C1821 C 0.41966 0.89001 0.88375 0.0
C1822 C 0.44307 0.85729 0.92762 0.0
C1823 C 0.44449 0.87984 0.87135 0.0
H1824 H 0.82529 0.86731 0.2952 0.0
H1825 H 0.78171 0.84719 0.32623 0.0
H1826 H 0.77911 0.887 0.42375 0.0
H1827 H 0.78935 0.92772 0.50164 0.0
H1828 H 0.83346 0.94435 0.48075 0.0
H1829 H 0.83574 0.90617 0.37791 0.0
C1830 C 0.81522 0.87169 0.32329 0.0
C1831 C 0.80368 0.85445 0.30291 0.0
C1832 C 0.81391 0.89415 0.38114 0.0
C1833 C 0.79075 0.86015 0.34073 0.0
C1834 C 0.78925 0.88297 0.39641 0.0
C1835 C 0.79943 0.92295 0.4742 0.0
C1836 C 0.81122 0.9389 0.49835 0.0
C1837 C 0.80076 0.90017 0.41717 0.0
C1838 C 0.82425 0.93231 0.46329 0.0
C1839 C 0.82555 0.91049 0.40441 0.0
H1840 H 0.44821 0.35882 0.46554 0.0
H1841 H 0.40455 0.33879 0.43683 0.0
H1842 H 0.40182 0.37741 0.3362 0.0
H1843 H 0.41159 0.41811 0.26012 0.0
H1844 H 0.45458 0.44183 0.29914 0.0
H1845 H 0.45786 0.40098 0.39208 0.0
C1846 C 0.43817 0.36287 0.43646 0.0
C1847 C 0.42661 0.34592 0.45776 0.0
C1848 C 0.43654 0.38597 0.3811 0.0
C1849 C 0.41358 0.35158 0.42112 0.0
C1850 C 0.41201 0.37368 0.36371 0.0
C1851 C 0.42169 0.41424 0.28874 0.0
C1852 C 0.43285 0.4328 0.27233 0.0
C1853 C 0.42337 0.39121 0.34386 0.0
C1854 C 0.44583 0.42779 0.31075 0.0
C1855 C 0.44771 0.40441 0.36378 0.0
H1856 H 0.19592 0.6089 0.04484 0.0
H1857 H 0.15132 0.59691 0.04984 0.0
H1858 H 0.14885 0.63701 0.14606 0.0
H1859 H 0.15932 0.67622 0.22801 0.0
H1860 H 0.2036 0.69146 0.21178 0.0
H1861 H 0.20626 0.64988 0.12101 0.0
C1862 C 0.18569 0.61507 0.06734 0.0
C1863 C 0.17382 0.59981 0.04063 0.0
C1864 C 0.18429 0.63893 0.12057 0.0
C1865 C 0.1606 0.60831 0.06934 0.0
C1866 C 0.15919 0.63126 0.12448 0.0
C1867 C 0.16955 0.67036 0.20472 0.0
C1868 C 0.18127 0.68679 0.22739 0.0
C1869 C 0.17094 0.64684 0.15039 0.0
C1870 C 0.19442 0.67917 0.19554 0.0
C1871 C 0.19595 0.65533 0.14365 0.0
H1872 H 0.5746 0.12115 0.2402 0.0
H1873 H 0.53199 0.09675 0.19069 0.0
H1874 H 0.52948 0.1363 0.09255 0.0
H1875 H 0.53962 0.17767 0.01836 0.0
H1876 H 0.58295 0.19857 0.05722 0.0
H1877 H 0.58497 0.16105 0.16229 0.0
C1878 C 0.56476 0.12459 0.20807 0.0
C1879 C 0.55346 0.10622 0.22321 0.0
C1880 C 0.56353 0.14691 0.14996 0.0
C1881 C 0.54083 0.11065 0.18024 0.0
C1882 C 0.53939 0.1333 0.12421 0.0
C1883 C 0.54944 0.17404 0.0505 0.0
C1884 C 0.5611 0.19091 0.03088 0.0
C1885 C 0.55067 0.15159 0.1084 0.0
C1886 C 0.57385 0.18579 0.07156 0.0
C1887 C 0.57501 0.16434 0.13152 0.0
H1888 H 0.1593 0.11484 0.52548 0.0
H1889 H 0.20237 0.0915 0.56395 0.0
H1890 H 0.2057 0.1328 0.65499 0.0
H1891 H 0.19617 0.17549 0.72691 0.0
H1892 H 0.15251 0.19567 0.69842 0.0
H1893 H 0.14964 0.15628 0.60029 0.0
C1894 C 0.16942 0.11887 0.55363 0.0
C1895 C 0.18059 0.1002 0.53737 0.0
C1896 C 0.17116 0.14232 0.60777 0.0
C1897 C 0.19359 0.10554 0.57525 0.0
C1898 C 0.19551 0.12922 0.62729 0.0
C1899 C 0.18608 0.17132 0.6985 0.0
C1900 C 0.17459 0.1886 0.7194 0.0
C1901 C 0.18437 0.1478 0.64429 0.0
C1902 C 0.16151 0.18268 0.68332 0.0
C1903 C 0.15986 0.16012 0.62722 0.0
H1904 H 0.53971 0.61388 0.71957 0.0
H1905 H 0.58409 0.59887 0.71136 0.0
H1906 H 0.58672 0.63585 0.60536 0.0
H1907 H 0.57653 0.67378 0.51812 0.0
H1908 H 0.5326 0.69254 0.53736 0.0
H1909 H 0.52963 0.6532 0.63568 0.0
C1910 C 0.54992 0.61866 0.69395 0.0
C1911 C 0.56169 0.60363 0.72271 0.0
C1912 C 0.55143 0.64082 0.63532 0.0
C1913 C 0.57489 0.61025 0.69019 0.0
C1914 C 0.5764 0.63138 0.62959 0.0
C1915 C 0.56631 0.66912 0.5436 0.0
C1916 C 0.55478 0.68587 0.51995 0.0
C1917 C 0.56477 0.64702 0.60219 0.0
C1918 C 0.54163 0.67991 0.55447 0.0
C1919 C 0.53992 0.65738 0.61064 0.0
H1920 H 0.30266 0.20474 0.12267 0.0
H1921 H 0.29939 0.16753 0.367 0.0
H1922 H 0.30192 0.11997 0.30808 0.0
H1923 H 0.30313 0.08826 0.18534 0.0
H1924 H 0.30524 0.12542 0.94048 0.0
H1925 H 0.30526 0.1731 1.00059 0.0
C1926 C 0.30274 0.18624 0.16288 0.0
C1927 C 0.30083 0.18973 0.249 0.0
C1928 C 0.30392 0.15868 0.12826 0.0
C1929 C 0.30079 0.16546 0.30032 0.0
C1930 C 0.30223 0.13816 0.26672 0.0
C1931 C 0.30388 0.1068 0.14551 0.0
C1932 C 0.30422 0.10326 0.05865 0.0
C1933 C 0.30354 0.13439 0.18054 0.0
C1934 C 0.30495 0.12755 1.00766 0.0
C1935 C 0.30493 0.1549 0.04194 0.0
H1936 H 0.93817 0.1651 0.96275 0.0
H1937 H 0.92848 0.21228 0.1854 0.0
H1938 H 0.92562 0.16781 0.26276 0.0
H1939 H 0.92741 0.11561 0.26879 0.0
H1940 H 0.93546 0.06785 0.04481 0.0
H1941 H 0.93726 0.11235 0.96536 0.0
C1942 C 0.93532 0.16554 0.02807 0.0
C1943 C 0.93361 0.19187 0.06883 0.0
C1944 C 0.9334 0.13981 0.07147 0.0
C1945 C 0.92975 0.19228 0.15294 0.0
C1946 C 0.92819 0.16685 0.19711 0.0
C1947 C 0.92936 0.11498 0.20227 0.0
C1948 C 0.93139 0.08862 0.16255 0.0
C1949 C 0.93017 0.14054 0.15728 0.0
C1950 C 0.9338 0.08793 0.07643 0.0
C1951 C 0.93492 0.11336 0.0313 0.0
H1952 H 0.68135 0.95479 0.85398 0.0
H1953 H 0.67934 0.92178 0.10396 0.0
H1954 H 0.67778 0.8733 0.05056 0.0
H1955 H 0.67892 0.83953 0.93266 0.0
H1956 H 0.68217 0.87252 0.68308 0.0
H1957 H 0.68117 0.92113 0.73569 0.0
C1958 C 0.68031 0.93699 0.89642 0.0
C1959 C 0.68046 0.9419 0.98268 0.0
C1960 C 0.67976 0.9089 0.86526 0.0
C1961 C 0.6793 0.91857 0.03712 0.0
C1962 C 0.67843 0.89076 1.0067 0.0
C1963 C 0.67921 0.85738 0.88999 0.0
C1964 C 0.68067 0.85237 0.80423 0.0
C1965 C 0.67894 0.88553 0.92089 0.0
C1966 C 0.68113 0.87577 0.74959 0.0
C1967 C 0.68057 0.90366 0.77956 0.0
H1968 H 0.0568 0.95345 0.93069 0.0
H1969 H 0.05544 0.92241 0.67806 0.0
H1970 H 0.05673 0.87348 0.72703 0.0
H1971 H 0.05606 0.83882 0.84247 0.0
H1972 H 0.0565 0.86983 0.09521 0.0
H1973 H 0.0579 0.91874 0.04602 0.0
C1974 C 0.05702 0.93596 0.88661 0.0
C1975 C 0.05594 0.9416 0.80104 0.0
C1976 C 0.0575 0.90757 0.9153 0.0
C1977 C 0.05616 0.91867 0.74451 0.0
C1978 C 0.05688 0.89058 0.77236 0.0
C1979 C 0.05671 0.85629 0.88648 0.0
C1980 C 0.0561 0.85067 0.9722 0.0
C1981 C 0.05723 0.88465 0.85772 0.0
C1982 C 0.05685 0.87357 0.02867 0.0
C1983 C 0.05764 0.90164 1.00069 0.0
H1984 H 0.31075 0.67878 0.7847 0.0
H1985 H 0.2964 0.71903 0.55927 0.0
H1986 H 0.29522 0.67256 0.4898 0.0
H1987 H 0.29661 0.62007 0.49721 0.0
H1988 H 0.31319 0.58027 0.71797 0.0
H1989 H 0.31522 0.62687 0.78562 0.0
C1990 C 0.3076 0.67735 0.71989 0.0
C1991 C 0.30364 0.70222 0.67699 0.0
C1992 C 0.3072 0.65062 0.68015 0.0
C1993 C 0.29963 0.70022 0.59309 0.0
C1994 C 0.29884 0.67362 0.55373 0.0
C1995 C 0.30077 0.62164 0.55995 0.0
C1996 C 0.30446 0.59666 0.60341 0.0
C1997 C 0.30234 0.64862 0.5972 0.0
C1998 C 0.31011 0.59908 0.6838 0.0
C1999 C 0.31128 0.62575 0.72237 0.0
H2000 H 0.92351 0.67574 0.49142 0.0
H2001 H 0.93661 0.71683 0.71853 0.0
H2002 H 0.93859 0.6704 0.78734 0.0
H2003 H 0.93828 0.61787 0.77878 0.0
H2004 H 0.92283 0.57718 0.55633 0.0
H2005 H 0.92004 0.62364 0.48929 0.0
C2006 C 0.92658 0.67447 0.55641 0.0
C2007 C 0.92999 0.69951 0.59997 0.0
C2008 C 0.92742 0.64779 0.59571 0.0
C2009 C 0.93385 0.69779 0.68416 0.0
C2010 C 0.93509 0.67125 0.72315 0.0
C2011 C 0.93422 0.61922 0.71578 0.0
C2012 C 0.93109 0.5941 0.67154 0.0
C2013 C 0.93218 0.64608 0.67895 0.0
C2014 C 0.92552 0.59615 0.59091 0.0
C2015 C 0.92391 0.62273 0.55275 0.0
H2016 H 0.67956 0.42198 0.54742 0.0
H2017 H 0.68043 0.46687 0.31372 0.0
H2018 H 0.67958 0.42157 0.23811 0.0
H2019 H 0.68017 0.36897 0.23916 0.0
H2020 H 0.6783 0.32428 0.47289 0.0
H2021 H 0.67786 0.3696 0.54815 0.0
C2022 C 0.67942 0.42184 0.47987 0.0
C2023 C 0.68016 0.44777 0.43606 0.0
C2024 C 0.67881 0.3957 0.4371 0.0
C2025 C 0.67984 0.44728 0.34872 0.0
C2026 C 0.67942 0.42134 0.30559 0.0
C2027 C 0.67953 0.36918 0.30659 0.0
C2028 C 0.67937 0.34324 0.35062 0.0
C2029 C 0.67914 0.3954 0.34917 0.0
C2030 C 0.67841 0.34385 0.43774 0.0
C2031 C 0.67822 0.36981 0.48069 0.0
H2032 H 0.0529 0.37162 0.5493 0.0
H2033 H 0.0498 0.32575 0.31774 0.0
H2034 H 0.05171 0.37035 0.23996 0.0
H2035 H 0.05282 0.42275 0.23847 0.0
H2036 H 0.05643 0.4687 0.4697 0.0
H2037 H 0.05583 0.4239 0.54733 0.0
C2038 C 0.05278 0.37143 0.48174 0.0
C2039 C 0.05133 0.3454 0.43903 0.0
C2040 C 0.0539 0.39723 0.4377 0.0
C2041 C 0.05121 0.34539 0.35172 0.0
C2042 C 0.05216 0.37095 0.30739 0.0
C2043 C 0.05361 0.42293 0.30587 0.0
C2044 C 0.05457 0.44908 0.34849 0.0
C2045 C 0.05334 0.39703 0.34976 0.0
C2046 C 0.05569 0.44895 0.43561 0.0
C2047 C 0.05529 0.42329 0.47992 0.0
H2048 H 0.80522 0.08257 0.70043 0.0
H2049 H 0.80393 0.11583 0.45051 0.0
H2050 H 0.80448 0.16439 0.5039 0.0
H2051 H 0.8033 0.19791 0.62242 0.0
H2052 H 0.80332 0.16454 0.8723 0.0
H2053 H 0.80545 0.11616 0.81891 0.0
C2054 C 0.80531 0.10047 0.65791 0.0
C2055 C 0.80453 0.09556 0.57176 0.0
C2056 C 0.8053 0.12857 0.68918 0.0
C2057 C 0.80447 0.11901 0.51729 0.0
C2058 C 0.80477 0.14687 0.54771 0.0
C2059 C 0.80402 0.18006 0.66492 0.0
C2060 C 0.80313 0.18484 0.75107 0.0
C2061 C 0.80489 0.15201 0.63363 0.0
C2062 C 0.80392 0.16143 0.80552 0.0
C2063 C 0.80512 0.13368 0.77511 0.0
H2064 H 0.43683 0.16713 0.4634 0.0
H2065 H 0.43195 0.21183 0.69575 0.0
H2066 H 0.42973 0.16654 0.76994 0.0
H2067 H 0.43032 0.11411 0.76903 0.0
H2068 H 0.43349 0.06919 0.53571 0.0
H2069 H 0.43513 0.11456 0.46095 0.0
C2070 C 0.43519 0.16683 0.53022 0.0
C2071 C 0.43457 0.19265 0.57448 0.0
C2072 C 0.43364 0.1407 0.5719 0.0
C2073 C 0.43231 0.19219 0.66066 0.0
C2074 C 0.43112 0.16631 0.70297 0.0
C2075 C 0.43123 0.11432 0.7017 0.0
C2076 C 0.4319 0.08845 0.65779 0.0
C2077 C 0.43191 0.14044 0.65933 0.0
C2078 C 0.43294 0.08889 0.57064 0.0
C2079 C 0.43394 0.1148 0.52806 0.0
H2080 H 0.17878 0.95029 0.33495 0.0
H2081 H 0.18057 0.91947 0.58754 0.0
H2082 H 0.17933 0.87049 0.53871 0.0
H2083 H 0.17984 0.83567 0.42331 0.0
H2084 H 0.1789 0.86643 0.17054 0.0
H2085 H 0.17758 0.91539 0.21971 0.0
C2086 C 0.17866 0.93285 0.37907 0.0
C2087 C 0.17984 0.93861 0.46463 0.0
C2088 C 0.1782 0.90439 0.35044 0.0
C2089 C 0.17977 0.91569 0.52112 0.0
C2090 C 0.17907 0.88755 0.49334 0.0
C2091 C 0.17909 0.85309 0.37928 0.0
C2092 C 0.17952 0.84734 0.2935 0.0
C2093 C 0.1786 0.88152 0.40802 0.0
C2094 C 0.17867 0.87022 0.2371 0.0
C2095 C 0.17793 0.89834 0.26508 0.0
H2096 H 0.54646 0.86684 0.51052 0.0
H2097 H 0.56202 0.82537 0.28999 0.0
H2098 H 0.56485 0.87163 0.22184 0.0
H2099 H 0.56142 0.92377 0.22253 0.0
H2100 H 0.54808 0.96549 0.44789 0.0
H2101 H 0.54605 0.9193 0.51753 0.0
C2102 C 0.55054 0.86796 0.44766 0.0
C2103 C 0.55372 0.8427 0.40435 0.0
C2104 C 0.55257 0.89468 0.41018 0.0
C2105 C 0.55931 0.84447 0.3239 0.0
C2106 C 0.56094 0.87093 0.2851 0.0
C2107 C 0.55828 0.92271 0.28731 0.0
C2108 C 0.55478 0.94789 0.32996 0.0
C2109 C 0.5574 0.89614 0.3272 0.0
C2110 C 0.55085 0.94638 0.41396 0.0
C2111 C 0.54961 0.91997 0.45353 0.0
H2112 H 0.80386 0.67086 0.30165 0.0
H2113 H 0.80463 0.71668 0.06945 0.0
H2114 H 0.80529 0.67168 0.99249 0.0
H2115 H 0.80415 0.61925 0.99147 0.0
H2116 H 0.80441 0.57321 0.22349 0.0
H2117 H 0.80493 0.6183 0.30077 0.0
C2118 C 0.80432 0.67097 0.23416 0.0
C2119 C 0.80409 0.69711 0.19108 0.0
C2120 C 0.80481 0.64497 0.19062 0.0
C2121 C 0.80481 0.69694 0.10387 0.0
C2122 C 0.80512 0.67117 0.05997 0.0
C2123 C 0.80443 0.61912 0.05902 0.0
C2124 C 0.80412 0.59299 0.10192 0.0
C2125 C 0.80489 0.64508 0.10267 0.0
C2126 C 0.80465 0.59305 0.18925 0.0
C2127 C 0.80489 0.61883 0.23329 0.0
H2128 H 0.43848 0.61553 0.26791 0.0
H2129 H 0.42256 0.57172 0.05182 0.0
H2130 H 0.41974 0.61717 0.97907 0.0
H2131 H 0.42341 0.66924 0.97434 0.0
H2132 H 0.43684 0.71335 0.19594 0.0
H2133 H 0.43883 0.668 0.27008 0.0
C2134 C 0.4343 0.61598 0.20506 0.0
C2135 C 0.43108 0.59028 0.16417 0.0
C2136 C 0.43224 0.64225 0.16504 0.0
C2137 C 0.42535 0.59116 0.08376 0.0
C2138 C 0.42371 0.61716 0.04235 0.0
C2139 C 0.42656 0.66887 0.03929 0.0
C2140 C 0.43013 0.69446 0.07955 0.0
C2141 C 0.42737 0.64279 0.08189 0.0
C2142 C 0.43404 0.6939 0.1638 0.0
C2143 C 0.43526 0.66797 0.20597 0.0
H2144 H 0.20616 0.35783 0.79827 0.0
H2145 H 0.164 0.33607 0.86668 0.0
H2146 H 0.1603 0.38442 0.92001 0.0
H2147 H 0.16935 0.43312 0.9499 0.0
H2148 H 0.21206 0.45288 0.88918 0.0
H2149 H 0.21518 0.40555 0.82881 0.0
C2150 C 0.19615 0.36366 0.82489 0.0
C2151 C 0.18537 0.34337 0.82832 0.0
C2152 C 0.19416 0.39138 0.85599 0.0
C2153 C 0.17249 0.35124 0.86347 0.0
C2154 C 0.17035 0.37896 0.89363 0.0
C2155 C 0.17922 0.4271 0.92205 0.0
C2156 C 0.19042 0.44654 0.92264 0.0
C2157 C 0.18111 0.39929 0.89018 0.0
C2158 C 0.20329 0.43832 0.88858 0.0
C2159 C 0.20509 0.41121 0.85451 0.0
H2160 H 0.55442 0.37079 0.0311 0.0
H2161 H 0.55531 0.32589 0.79726 0.0
H2162 H 0.556 0.37108 0.72186 0.0
H2163 H 0.55493 0.42349 0.72269 0.0
H2164 H 0.5551 0.46862 0.95655 0.0
H2165 H 0.55549 0.42331 0.03213 0.0
C2166 C 0.55489 0.37094 0.9636 0.0
C2167 C 0.55474 0.34501 0.91952 0.0
C2168 C 0.55541 0.39707 0.92099 0.0
C2169 C 0.55548 0.34548 0.83235 0.0
C2170 C 0.5558 0.37136 0.78934 0.0
C2171 C 0.55517 0.42337 0.79024 0.0
C2172 C 0.55486 0.44929 0.83417 0.0
C2173 C 0.55556 0.39728 0.83299 0.0
C2174 C 0.55532 0.44892 0.92153 0.0
C2175 C 0.5555 0.42302 0.96464 0.0
loop_
_geom_bond_atom_site_label_1
_geom_bond_atom_site_label_2
_geom_bond_distance
_geom_bond_site_symmetry_2
_ccdc_geom_bond_type
Dy0 O4 2.398 1_554 S
Dy0 O5 2.491 1_554 S
Dy0 O6 2.403 . S
Dy0 O7 2.664 . S
Dy0 O11 2.326 . S
Dy0 O15 2.310 . S
Dy0 O16 2.351 . S
C1 O12 1.185 . S
C1 O13 1.355 . S
C2 O4 1.185 . S
C2 O5 1.355 . S
Dy3 O7 2.310 . S
Dy3 O10 2.351 . S
Dy3 O12 2.398 . S
Dy3 O13 2.491 . S
Dy3 O14 2.403 . S
Dy3 O15 2.664 . S
Dy3 O17 2.326 . S
O4 Dy0 2.398 1_556 S
O4 C2 1.185 . S
O5 Dy0 2.491 1_556 S
O5 C2 1.355 . S
O6 Dy0 2.403 . S
O6 C8 1.254 . S
O7 Dy0 2.664 . S
O7 Dy3 2.310 . S
O7 C8 1.268 . S
C8 O6 1.254 . S
C8 O7 1.268 . S
C9 O14 1.254 . S
C9 O15 1.268 . S
O10 Dy3 2.351 . S
O10 C18 1.249 . S
O11 Dy0 2.326 . S
O11 C18 1.267 . S
O12 C1 1.185 . S
O12 Dy3 2.398 . S
O13 C1 1.355 . S
O13 Dy3 2.491 . S
O14 Dy3 2.403 . S
O14 C9 1.254 . S
O15 Dy0 2.310 . S
O15 Dy3 2.664 . S
O15 C9 1.268 . S
O16 Dy0 2.351 . S
O16 C19 1.249 . S
O17 Dy3 2.326 . S
O17 C19 1.267 . S
C18 O10 1.249 . S
C18 O11 1.267 . S
C19 O16 1.249 . S
C19 O17 1.267 . S
Dy20 O24 2.398 1_554 S
Dy20 O25 2.491 1_564 S
Dy20 O26 2.403 . S
Dy20 O27 2.664 . S
Dy20 O31 2.326 . S
Dy20 O35 2.310 1_565 S
Dy20 O36 2.351 . S
C21 O32 1.185 . S
C21 O33 1.355 1_545 S
C22 O24 1.185 . S
C22 O25 1.355 1_565 S
Dy23 O27 2.310 1_545 S
Dy23 O30 2.351 . S
Dy23 O32 2.398 . S
Dy23 O33 2.491 1_545 S
Dy23 O34 2.403 . S
Dy23 O35 2.664 . S
Dy23 O37 2.326 . S
O24 Dy20 2.398 1_556 S
O24 C22 1.185 . S
O25 Dy20 2.491 1_546 S
O25 C22 1.355 1_545 S
O26 Dy20 2.403 . S
O26 C28 1.254 . S
O27 Dy20 2.664 . S
O27 Dy23 2.310 1_565 S
O27 C28 1.268 . S
C28 O26 1.254 . S
C28 O27 1.268 . S
C29 O34 1.254 . S
C29 O35 1.268 . S
O30 Dy23 2.351 . S
O30 C38 1.249 1_545 S
O31 Dy20 2.326 . S
O31 C38 1.267 . S
O32 C21 1.185 . S
O32 Dy23 2.398 . S
O33 C21 1.355 1_565 S
O33 Dy23 2.491 1_565 S
O34 Dy23 2.403 . S
O34 C29 1.254 . S
O35 Dy20 2.310 1_545 S
O35 Dy23 2.664 . S
O35 C29 1.268 . S
O36 Dy20 2.351 . S
O36 C39 1.249 1_565 S
O37 Dy23 2.326 . S
O37 C39 1.267 . S
C38 O30 1.249 1_565 S
C38 O31 1.267 . S
C39 O36 1.249 1_545 S
C39 O37 1.267 . S
Dy40 O44 2.398 . S
Dy40 O45 2.491 1_565 S
Dy40 O46 2.403 . S
Dy40 O47 2.664 1_554 S
Dy40 O51 2.326 . S
Dy40 O55 2.310 1_565 S
Dy40 O56 2.351 . S
C41 O52 1.185 . S
C41 O53 1.355 1_545 S
C42 O44 1.185 . S
C42 O45 1.355 1_565 S
Dy43 O47 2.310 1_545 S
Dy43 O50 2.351 1_556 S
Dy43 O52 2.398 . S
Dy43 O53 2.491 1_545 S
Dy43 O54 2.403 . S
Dy43 O55 2.664 1_556 S
Dy43 O57 2.326 . S
O44 Dy40 2.398 . S
O44 C42 1.185 . S
O45 Dy40 2.491 1_545 S
O45 C42 1.355 1_545 S
O46 Dy40 2.403 . S
O46 C48 1.254 . S
O47 Dy40 2.664 1_556 S
O47 Dy43 2.310 1_565 S
O47 C48 1.268 1_556 S
C48 O46 1.254 . S
C48 O47 1.268 1_554 S
C49 O54 1.254 1_554 S
C49 O55 1.268 . S
O50 Dy43 2.351 1_554 S
O50 C58 1.249 1_545 S
O51 Dy40 2.326 . S
O51 C58 1.267 . S
O52 C41 1.185 . S
O52 Dy43 2.398 . S
O53 C41 1.355 1_565 S
O53 Dy43 2.491 1_565 S
O54 Dy43 2.403 . S
O54 C49 1.254 1_556 S
O55 Dy40 2.310 1_545 S
O55 Dy43 2.664 1_554 S
O55 C49 1.268 . S
O56 Dy40 2.351 . S
O56 C59 1.249 1_564 S
O57 Dy43 2.326 . S
O57 C59 1.267 . S
C58 O50 1.249 1_565 S
C58 O51 1.267 . S
C59 O56 1.249 1_546 S
C59 O57 1.267 . S
Dy60 O64 2.398 . S
Dy60 O65 2.491 . S
Dy60 O66 2.403 . S
Dy60 O67 2.664 1_554 S
Dy60 O71 2.326 . S
Dy60 O75 2.310 . S
Dy60 O76 2.351 . S
C61 O72 1.185 . S
C61 O73 1.355 . S
C62 O64 1.185 . S
C62 O65 1.355 . S
Dy63 O67 2.310 . S
Dy63 O70 2.351 1_556 S
Dy63 O72 2.398 . S
Dy63 O73 2.491 . S
Dy63 O74 2.403 . S
Dy63 O75 2.664 1_556 S
Dy63 O77 2.326 . S
O64 Dy60 2.398 . S
O64 C62 1.185 . S
O65 Dy60 2.491 . S
O65 C62 1.355 . S
O66 Dy60 2.403 . S
O66 C68 1.254 . S
O67 Dy60 2.664 1_556 S
O67 Dy63 2.310 . S
O67 C68 1.268 1_556 S
C68 O66 1.254 . S
C68 O67 1.268 1_554 S
C69 O74 1.254 1_554 S
C69 O75 1.268 . S
O70 Dy63 2.351 1_554 S
O70 C78 1.249 . S
O71 Dy60 2.326 . S
O71 C78 1.267 . S
O72 C61 1.185 . S
O72 Dy63 2.398 . S
O73 C61 1.355 . S
O73 Dy63 2.491 . S
O74 Dy63 2.403 . S
O74 C69 1.254 1_556 S
O75 Dy60 2.310 . S
O75 Dy63 2.664 1_554 S
O75 C69 1.268 . S
O76 Dy60 2.351 . S
O76 C79 1.249 1_554 S
O77 Dy63 2.326 . S
O77 C79 1.267 . S
C78 O70 1.249 . S
C78 O71 1.267 . S
C79 O76 1.249 1_556 S
C79 O77 1.267 . S
Dy80 O84 2.398 . S
Dy80 O85 2.491 . S
Dy80 O86 2.403 . S
Dy80 O87 2.664 . S
Dy80 O91 2.326 . S
Dy80 O95 2.310 . S
Dy80 O96 2.351 . S
C81 O92 1.185 . S
C81 O93 1.355 . S
C82 O84 1.185 . S
C82 O85 1.355 . S
Dy83 O87 2.310 . S
Dy83 O90 2.351 . S
Dy83 O92 2.398 1_556 S
Dy83 O93 2.491 1_556 S
Dy83 O94 2.403 . S
Dy83 O95 2.664 . S
Dy83 O97 2.326 . S
O84 Dy80 2.398 . S
O84 C82 1.185 . S
O85 Dy80 2.491 . S
O85 C82 1.355 . S
O86 Dy80 2.403 . S
O86 C88 1.254 . S
O87 Dy80 2.664 . S
O87 Dy83 2.310 . S
O87 C88 1.268 . S
C88 O86 1.254 . S
C88 O87 1.268 . S
C89 O94 1.254 . S
C89 O95 1.268 . S
O90 Dy83 2.351 . S
O90 C98 1.249 . S
O91 Dy80 2.326 . S
O91 C98 1.267 . S
O92 C81 1.185 . S
O92 Dy83 2.398 1_554 S
O93 C81 1.355 . S
O93 Dy83 2.491 1_554 S
O94 Dy83 2.403 . S
O94 C89 1.254 . S
O95 Dy80 2.310 . S
O95 Dy83 2.664 . S
O95 C89 1.268 . S
O96 Dy80 2.351 . S
O96 C99 1.249 . S
O97 Dy83 2.326 . S
O97 C99 1.267 . S
C98 O90 1.249 . S
C98 O91 1.267 . S
C99 O96 1.249 . S
C99 O97 1.267 . S
Dy100 O104 2.398 . S
Dy100 O105 2.491 1_565 S
Dy100 O106 2.403 . S
Dy100 O107 2.664 . S
Dy100 O111 2.326 . S
Dy100 O115 2.310 1_565 S
Dy100 O116 2.351 . S
C101 O112 1.185 . S
C101 O113 1.355 1_545 S
C102 O104 1.185 . S
C102 O105 1.355 1_565 S
Dy103 O107 2.310 1_545 S
Dy103 O110 2.351 . S
Dy103 O112 2.398 1_556 S
Dy103 O113 2.491 1_546 S
Dy103 O114 2.403 . S
Dy103 O115 2.664 . S
Dy103 O117 2.326 . S
O104 Dy100 2.398 . S
O104 C102 1.185 . S
O105 Dy100 2.491 1_545 S
O105 C102 1.355 1_545 S
O106 Dy100 2.403 . S
O106 C108 1.254 . S
O107 Dy100 2.664 . S
O107 Dy103 2.310 1_565 S
O107 C108 1.268 . S
C108 O106 1.254 . S
C108 O107 1.268 . S
C109 O114 1.254 . S
C109 O115 1.268 . S
O110 Dy103 2.351 . S
O110 C118 1.249 1_545 S
O111 Dy100 2.326 . S
O111 C118 1.267 . S
O112 C101 1.185 . S
O112 Dy103 2.398 1_554 S
O113 C101 1.355 1_565 S
O113 Dy103 2.491 1_564 S
O114 Dy103 2.403 . S
O114 C109 1.254 . S
O115 Dy100 2.310 1_545 S
O115 Dy103 2.664 . S
O115 C109 1.268 . S
O116 Dy100 2.351 . S
O116 C119 1.249 1_565 S
O117 Dy103 2.326 . S
O117 C119 1.267 . S
C118 O110 1.249 1_565 S
C118 O111 1.267 . S
C119 O116 1.249 1_545 S
C119 O117 1.267 . S
Dy120 O124 2.398 . S
Dy120 O125 2.491 1_565 S
Dy120 O126 2.403 . S
Dy120 O127 2.664 1_554 S
Dy120 O131 2.326 . S
Dy120 O135 2.310 1_565 S
Dy120 O136 2.351 1_554 S
C121 O132 1.185 . S
C121 O133 1.355 1_545 S
C122 O124 1.185 . S
C122 O125 1.355 1_565 S
Dy123 O127 2.310 1_545 S
Dy123 O130 2.351 . S
Dy123 O132 2.398 . S
Dy123 O133 2.491 1_545 S
Dy123 O134 2.403 . S
Dy123 O135 2.664 1_556 S
Dy123 O137 2.326 . S
O124 Dy120 2.398 . S
O124 C122 1.185 . S
O125 Dy120 2.491 1_545 S
O125 C122 1.355 1_545 S
O126 Dy120 2.403 . S
O126 C128 1.254 1_554 S
O127 Dy120 2.664 1_556 S
O127 Dy123 2.310 1_565 S
O127 C128 1.268 . S
C128 O126 1.254 1_556 S
C128 O127 1.268 . S
C129 O134 1.254 . S
C129 O135 1.268 1_556 S
O130 Dy123 2.351 . S
O130 C138 1.249 1_546 S
O131 Dy120 2.326 . S
O131 C138 1.267 . S
O132 C121 1.185 . S
O132 Dy123 2.398 . S
O133 C121 1.355 1_565 S
O133 Dy123 2.491 1_565 S
O134 Dy123 2.403 . S
O134 C129 1.254 . S
O135 Dy120 2.310 1_545 S
O135 Dy123 2.664 1_554 S
O135 C129 1.268 1_554 S
O136 Dy120 2.351 1_556 S
O136 C139 1.249 1_565 S
O137 Dy123 2.326 . S
O137 C139 1.267 . S
C138 O130 1.249 1_564 S
C138 O131 1.267 . S
C139 O136 1.249 1_545 S
C139 O137 1.267 . S
Dy140 O144 2.398 . S
Dy140 O145 2.491 . S
Dy140 O146 2.403 . S
Dy140 O147 2.664 1_554 S
Dy140 O151 2.326 . S
Dy140 O155 2.310 . S
Dy140 O156 2.351 1_554 S
C141 O152 1.185 . S
C141 O153 1.355 . S
C142 O144 1.185 . S
C142 O145 1.355 . S
Dy143 O147 2.310 . S
Dy143 O150 2.351 . S
Dy143 O152 2.398 . S
Dy143 O153 2.491 . S
Dy143 O154 2.403 . S
Dy143 O155 2.664 1_556 S
Dy143 O157 2.326 . S
O144 Dy140 2.398 . S
O144 C142 1.185 . S
O145 Dy140 2.491 . S
O145 C142 1.355 . S
O146 Dy140 2.403 . S
O146 C148 1.254 1_554 S
O147 Dy140 2.664 1_556 S
O147 Dy143 2.310 . S
O147 C148 1.268 . S
C148 O146 1.254 1_556 S
C148 O147 1.268 . S
C149 O154 1.254 . S
C149 O155 1.268 1_556 S
O150 Dy143 2.351 . S
O150 C158 1.249 1_556 S
O151 Dy140 2.326 . S
O151 C158 1.267 . S
O152 C141 1.185 . S
O152 Dy143 2.398 . S
O153 C141 1.355 . S
O153 Dy143 2.491 . S
O154 Dy143 2.403 . S
O154 C149 1.254 . S
O155 Dy140 2.310 . S
O155 Dy143 2.664 1_554 S
O155 C149 1.268 1_554 S
O156 Dy140 2.351 1_556 S
O156 C159 1.249 . S
O157 Dy143 2.326 . S
O157 C159 1.267 . S
C158 O150 1.249 1_554 S
C158 O151 1.267 . S
C159 O156 1.249 . S
C159 O157 1.267 . S
Dy160 O164 2.398 . S
Dy160 O165 2.491 . S
Dy160 O166 2.403 . S
Dy160 O167 2.664 . S
Dy160 O171 2.326 . S
Dy160 O175 2.310 . S
Dy160 O176 2.351 . S
C161 O172 1.185 . S
C161 O173 1.355 . S
C162 O164 1.185 . S
C162 O165 1.355 . S
Dy163 O167 2.310 . S
Dy163 O170 2.351 . S
Dy163 O172 2.398 . S
Dy163 O173 2.491 . S
Dy163 O174 2.403 . S
Dy163 O175 2.664 . S
Dy163 O177 2.326 . S
O164 Dy160 2.398 . S
O164 C162 1.185 . S
O165 Dy160 2.491 . S
O165 C162 1.355 . S
O166 Dy160 2.403 . S
O166 C168 1.254 . S
O167 Dy160 2.664 . S
O167 Dy163 2.310 . S
O167 C168 1.268 . S
C168 O166 1.254 . S
C168 O167 1.268 . S
C169 O174 1.254 . S
C169 O175 1.268 . S
O170 Dy163 2.351 . S
O170 C178 1.249 . S
O171 Dy160 2.326 . S
O171 C178 1.267 . S
O172 C161 1.185 . S
O172 Dy163 2.398 . S
O173 C161 1.355 . S
O173 Dy163 2.491 . S
O174 Dy163 2.403 . S
O174 C169 1.254 . S
O175 Dy160 2.310 . S
O175 Dy163 2.664 . S
O175 C169 1.268 . S
O176 Dy160 2.351 . S
O176 C179 1.249 . S
O177 Dy163 2.326 . S
O177 C179 1.267 . S
C178 O170 1.249 . S
C178 O171 1.267 . S
C179 O176 1.249 . S
C179 O177 1.267 . S
Dy180 O184 2.398 . S
Dy180 O185 2.491 . S
Dy180 O186 2.403 . S
Dy180 O187 2.664 . S
Dy180 O191 2.326 . S
Dy180 O195 2.310 . S
Dy180 O196 2.351 . S
C181 O192 1.185 . S
C181 O193 1.355 . S
C182 O184 1.185 . S
C182 O185 1.355 . S
Dy183 O187 2.310 . S
Dy183 O190 2.351 . S
Dy183 O192 2.398 . S
Dy183 O193 2.491 . S
Dy183 O194 2.403 . S
Dy183 O195 2.664 . S
Dy183 O197 2.326 . S
O184 Dy180 2.398 . S
O184 C182 1.185 . S
O185 Dy180 2.491 . S
O185 C182 1.355 . S
O186 Dy180 2.403 . S
O186 C188 1.254 . S
O187 Dy180 2.664 . S
O187 Dy183 2.310 . S
O187 C188 1.268 . S
C188 O186 1.254 . S
C188 O187 1.268 . S
C189 O194 1.254 . S
C189 O195 1.268 . S
O190 Dy183 2.351 . S
O190 C198 1.249 . S
O191 Dy180 2.326 . S
O191 C198 1.267 . S
O192 C181 1.185 . S
O192 Dy183 2.398 . S
O193 C181 1.355 . S
O193 Dy183 2.491 . S
O194 Dy183 2.403 . S
O194 C189 1.254 . S
O195 Dy180 2.310 . S
O195 Dy183 2.664 . S
O195 C189 1.268 . S
O196 Dy180 2.351 . S
O196 C199 1.249 . S
O197 Dy183 2.326 . S
O197 C199 1.267 . S
C198 O190 1.249 . S
C198 O191 1.267 . S
C199 O196 1.249 . S
C199 O197 1.267 . S
Dy200 O204 2.398 . S
Dy200 O205 2.491 . S
Dy200 O206 2.403 . S
Dy200 O207 2.664 . S
Dy200 O211 2.326 . S
Dy200 O215 2.310 . S
Dy200 O216 2.351 . S
C201 O212 1.185 . S
C201 O213 1.355 . S
C202 O204 1.185 . S
C202 O205 1.355 . S
Dy203 O207 2.310 . S
Dy203 O210 2.351 . S
Dy203 O212 2.398 . S
Dy203 O213 2.491 . S
Dy203 O214 2.403 . S
Dy203 O215 2.664 . S
Dy203 O217 2.326 . S
O204 Dy200 2.398 . S
O204 C202 1.185 . S
O205 Dy200 2.491 . S
O205 C202 1.355 . S
O206 Dy200 2.403 . S
O206 C208 1.254 . S
O207 Dy200 2.664 . S
O207 Dy203 2.310 . S
O207 C208 1.268 . S
C208 O206 1.254 . S
C208 O207 1.268 . S
C209 O214 1.254 . S
C209 O215 1.268 . S
O210 Dy203 2.351 . S
O210 C218 1.249 . S
O211 Dy200 2.326 . S
O211 C218 1.267 . S
O212 C201 1.185 . S
O212 Dy203 2.398 . S
O213 C201 1.355 . S
O213 Dy203 2.491 . S
O214 Dy203 2.403 . S
O214 C209 1.254 . S
O215 Dy200 2.310 . S
O215 Dy203 2.664 . S
O215 C209 1.268 . S
O216 Dy200 2.351 . S
O216 C219 1.249 . S
O217 Dy203 2.326 . S
O217 C219 1.267 . S
C218 O210 1.249 . S
C218 O211 1.267 . S
C219 O216 1.249 . S
C219 O217 1.267 . S
Dy220 O224 2.398 . S
Dy220 O225 2.491 . S
Dy220 O226 2.403 . S
Dy220 O227 2.664 . S
Dy220 O231 2.326 . S
Dy220 O235 2.310 . S
Dy220 O236 2.351 . S
C221 O232 1.185 . S
C221 O233 1.355 . S
C222 O224 1.185 . S
C222 O225 1.355 . S
Dy223 O227 2.310 . S
Dy223 O230 2.351 . S
Dy223 O232 2.398 . S
Dy223 O233 2.491 . S
Dy223 O234 2.403 . S
Dy223 O235 2.664 . S
Dy223 O237 2.326 . S
O224 Dy220 2.398 . S
O224 C222 1.185 . S
O225 Dy220 2.491 . S
O225 C222 1.355 . S
O226 Dy220 2.403 . S
O226 C228 1.254 . S
O227 Dy220 2.664 . S
O227 Dy223 2.310 . S
O227 C228 1.268 . S
C228 O226 1.254 . S
C228 O227 1.268 . S
C229 O234 1.254 . S
C229 O235 1.268 . S
O230 Dy223 2.351 . S
O230 C238 1.249 . S
O231 Dy220 2.326 . S
O231 C238 1.267 . S
O232 C221 1.185 . S
O232 Dy223 2.398 . S
O233 C221 1.355 . S
O233 Dy223 2.491 . S
O234 Dy223 2.403 . S
O234 C229 1.254 . S
O235 Dy220 2.310 . S
O235 Dy223 2.664 . S
O235 C229 1.268 . S
O236 Dy220 2.351 . S
O236 C239 1.249 . S
O237 Dy223 2.326 . S
O237 C239 1.267 . S
C238 O230 1.249 . S
C238 O231 1.267 . S
C239 O236 1.249 . S
C239 O237 1.267 . S
Dy240 O244 2.398 . S
Dy240 O245 2.491 . S
Dy240 O246 2.403 . S
Dy240 O247 2.664 . S
Dy240 O251 2.326 . S
Dy240 O255 2.310 . S
Dy240 O256 2.351 . S
C241 O252 1.185 . S
C241 O253 1.355 . S
C242 O244 1.185 . S
C242 O245 1.355 . S
Dy243 O247 2.310 . S
Dy243 O250 2.351 . S
Dy243 O252 2.398 . S
Dy243 O253 2.491 . S
Dy243 O254 2.403 . S
Dy243 O255 2.664 . S
Dy243 O257 2.326 . S
O244 Dy240 2.398 . S
O244 C242 1.185 . S
O245 Dy240 2.491 . S
O245 C242 1.355 . S
O246 Dy240 2.403 . S
O246 C248 1.254 . S
O247 Dy240 2.664 . S
O247 Dy243 2.310 . S
O247 C248 1.268 . S
C248 O246 1.254 . S
C248 O247 1.268 . S
C249 O254 1.254 . S
C249 O255 1.268 . S
O250 Dy243 2.351 . S
O250 C258 1.249 . S
O251 Dy240 2.326 . S
O251 C258 1.267 . S
O252 C241 1.185 . S
O252 Dy243 2.398 . S
O253 C241 1.355 . S
O253 Dy243 2.491 . S
O254 Dy243 2.403 . S
O254 C249 1.254 . S
O255 Dy240 2.310 . S
O255 Dy243 2.664 . S
O255 C249 1.268 . S
O256 Dy240 2.351 . S
O256 C259 1.249 . S
O257 Dy243 2.326 . S
O257 C259 1.267 . S
C258 O250 1.249 . S
C258 O251 1.267 . S
C259 O256 1.249 . S
C259 O257 1.267 . S
Dy260 O264 2.398 . S
Dy260 O265 2.491 . S
Dy260 O266 2.403 . S
Dy260 O267 2.664 . S
Dy260 O271 2.326 . S
Dy260 O275 2.310 . S
Dy260 O276 2.351 . S
C261 O272 1.185 . S
C261 O273 1.355 . S
C262 O264 1.185 . S
C262 O265 1.355 . S
Dy263 O267 2.310 . S
Dy263 O270 2.351 . S
Dy263 O272 2.398 . S
Dy263 O273 2.491 . S
Dy263 O274 2.403 . S
Dy263 O275 2.664 . S
Dy263 O277 2.326 . S
O264 Dy260 2.398 . S
O264 C262 1.185 . S
O265 Dy260 2.491 . S
O265 C262 1.355 . S
O266 Dy260 2.403 . S
O266 C268 1.254 . S
O267 Dy260 2.664 . S
O267 Dy263 2.310 . S
O267 C268 1.268 . S
C268 O266 1.254 . S
C268 O267 1.268 . S
C269 O274 1.254 . S
C269 O275 1.268 . S
O270 Dy263 2.351 . S
O270 C278 1.249 . S
O271 Dy260 2.326 . S
O271 C278 1.267 . S
O272 C261 1.185 . S
O272 Dy263 2.398 . S
O273 C261 1.355 . S
O273 Dy263 2.491 . S
O274 Dy263 2.403 . S
O274 C269 1.254 . S
O275 Dy260 2.310 . S
O275 Dy263 2.664 . S
O275 C269 1.268 . S
O276 Dy260 2.351 . S
O276 C279 1.249 . S
O277 Dy263 2.326 . S
O277 C279 1.267 . S
C278 O270 1.249 . S
C278 O271 1.267 . S
C279 O276 1.249 . S
C279 O277 1.267 . S
Dy280 O284 2.398 . S
Dy280 O285 2.491 . S
Dy280 O286 2.403 . S
Dy280 O287 2.664 . S
Dy280 O291 2.326 . S
Dy280 O295 2.310 . S
Dy280 O296 2.351 . S
C281 O292 1.185 . S
C281 O293 1.355 . S
C282 O284 1.185 . S
C282 O285 1.355 . S
Dy283 O287 2.310 . S
Dy283 O290 2.351 . S
Dy283 O292 2.398 . S
Dy283 O293 2.491 . S
Dy283 O294 2.403 . S
Dy283 O295 2.664 . S
Dy283 O297 2.326 . S
O284 Dy280 2.398 . S
O284 C282 1.185 . S
O285 Dy280 2.491 . S
O285 C282 1.355 . S
O286 Dy280 2.403 . S
O286 C288 1.254 . S
O287 Dy280 2.664 . S
O287 Dy283 2.310 . S
O287 C288 1.268 . S
C288 O286 1.254 . S
C288 O287 1.268 . S
C289 O294 1.254 . S
C289 O295 1.268 . S
O290 Dy283 2.351 . S
O290 C298 1.249 . S
O291 Dy280 2.326 . S
O291 C298 1.267 . S
O292 C281 1.185 . S
O292 Dy283 2.398 . S
O293 C281 1.355 . S
O293 Dy283 2.491 . S
O294 Dy283 2.403 . S
O294 C289 1.254 . S
O295 Dy280 2.310 . S
O295 Dy283 2.664 . S
O295 C289 1.268 . S
O296 Dy280 2.351 . S
O296 C299 1.249 . S
O297 Dy283 2.326 . S
O297 C299 1.267 . S
C298 O290 1.249 . S
C298 O291 1.267 . S
C299 O296 1.249 . S
C299 O297 1.267 . S
Dy300 O304 2.398 . S
Dy300 O305 2.491 . S
Dy300 O306 2.403 . S
Dy300 O307 2.664 . S
Dy300 O311 2.326 . S
Dy300 O315 2.310 . S
Dy300 O316 2.351 . S
C301 O312 1.185 . S
C301 O313 1.355 . S
C302 O304 1.185 . S
C302 O305 1.355 . S
Dy303 O307 2.310 . S
Dy303 O310 2.351 . S
Dy303 O312 2.398 . S
Dy303 O313 2.491 . S
Dy303 O314 2.403 . S
Dy303 O315 2.664 . S
Dy303 O317 2.326 . S
O304 Dy300 2.398 . S
O304 C302 1.185 . S
O305 Dy300 2.491 . S
O305 C302 1.355 . S
O306 Dy300 2.403 . S
O306 C308 1.254 . S
O307 Dy300 2.664 . S
O307 Dy303 2.310 . S
O307 C308 1.268 . S
C308 O306 1.254 . S
C308 O307 1.268 . S
C309 O314 1.254 . S
C309 O315 1.268 . S
O310 Dy303 2.351 . S
O310 C318 1.249 . S
O311 Dy300 2.326 . S
O311 C318 1.267 . S
O312 C301 1.185 . S
O312 Dy303 2.398 . S
O313 C301 1.355 . S
O313 Dy303 2.491 . S
O314 Dy303 2.403 . S
O314 C309 1.254 . S
O315 Dy300 2.310 . S
O315 Dy303 2.664 . S
O315 C309 1.268 . S
O316 Dy300 2.351 . S
O316 C319 1.249 . S
O317 Dy303 2.326 . S
O317 C319 1.267 . S
C318 O310 1.249 . S
C318 O311 1.267 . S
C319 O316 1.249 . S
C319 O317 1.267 . S
Dy320 O324 2.398 . S
Dy320 O325 2.491 . S
Dy320 O326 2.403 . S
Dy320 O327 2.664 . S
Dy320 O331 2.326 . S
Dy320 O335 2.310 . S
Dy320 O336 2.351 . S
C321 O332 1.185 . S
C321 O333 1.355 . S
C322 O324 1.185 . S
C322 O325 1.355 . S
Dy323 O327 2.310 . S
Dy323 O330 2.351 . S
Dy323 O332 2.398 . S
Dy323 O333 2.491 . S
Dy323 O334 2.403 . S
Dy323 O335 2.664 . S
Dy323 O337 2.326 . S
O324 Dy320 2.398 . S
O324 C322 1.185 . S
O325 Dy320 2.491 . S
O325 C322 1.355 . S
O326 Dy320 2.403 . S
O326 C328 1.254 . S
O327 Dy320 2.664 . S
O327 Dy323 2.310 . S
O327 C328 1.268 . S
C328 O326 1.254 . S
C328 O327 1.268 . S
C329 O334 1.254 . S
C329 O335 1.268 . S
O330 Dy323 2.351 . S
O330 C338 1.249 . S
O331 Dy320 2.326 . S
O331 C338 1.267 . S
O332 C321 1.185 . S
O332 Dy323 2.398 . S
O333 C321 1.355 . S
O333 Dy323 2.491 . S
O334 Dy323 2.403 . S
O334 C329 1.254 . S
O335 Dy320 2.310 . S
O335 Dy323 2.664 . S
O335 C329 1.268 . S
O336 Dy320 2.351 . S
O336 C339 1.249 . S
O337 Dy323 2.326 . S
O337 C339 1.267 . S
C338 O330 1.249 . S
C338 O331 1.267 . S
C339 O336 1.249 . S
C339 O337 1.267 . S
Dy340 O344 2.398 . S
Dy340 O345 2.491 1_565 S
Dy340 O346 2.403 . S
Dy340 O347 2.664 . S
Dy340 O351 2.326 . S
Dy340 O355 2.310 1_565 S
Dy340 O356 2.351 . S
C341 O352 1.185 . S
C341 O353 1.355 1_545 S
C342 O344 1.185 . S
C342 O345 1.355 1_565 S
Dy343 O347 2.310 1_545 S
Dy343 O350 2.351 . S
Dy343 O352 2.398 . S
Dy343 O353 2.491 1_545 S
Dy343 O354 2.403 . S
Dy343 O355 2.664 . S
Dy343 O357 2.326 . S
O344 Dy340 2.398 . S
O344 C342 1.185 . S
O345 Dy340 2.491 1_545 S
O345 C342 1.355 1_545 S
O346 Dy340 2.403 . S
O346 C348 1.254 . S
O347 Dy340 2.664 . S
O347 Dy343 2.310 1_565 S
O347 C348 1.268 . S
C348 O346 1.254 . S
C348 O347 1.268 . S
C349 O354 1.254 . S
C349 O355 1.268 . S
O350 Dy343 2.351 . S
O350 C358 1.249 1_545 S
O351 Dy340 2.326 . S
O351 C358 1.267 . S
O352 C341 1.185 . S
O352 Dy343 2.398 . S
O353 C341 1.355 1_565 S
O353 Dy343 2.491 1_565 S
O354 Dy343 2.403 . S
O354 C349 1.254 . S
O355 Dy340 2.310 1_545 S
O355 Dy343 2.664 . S
O355 C349 1.268 . S
O356 Dy340 2.351 . S
O356 C359 1.249 1_565 S
O357 Dy343 2.326 . S
O357 C359 1.267 . S
C358 O350 1.249 1_565 S
C358 O351 1.267 . S
C359 O356 1.249 1_545 S
C359 O357 1.267 . S
Dy360 O364 2.398 . S
Dy360 O365 2.491 1_565 S
Dy360 O366 2.403 . S
Dy360 O367 2.664 . S
Dy360 O371 2.326 . S
Dy360 O375 2.310 1_565 S
Dy360 O376 2.351 . S
C361 O372 1.185 . S
C361 O373 1.355 1_545 S
C362 O364 1.185 . S
C362 O365 1.355 1_565 S
Dy363 O367 2.310 1_545 S
Dy363 O370 2.351 . S
Dy363 O372 2.398 . S
Dy363 O373 2.491 1_545 S
Dy363 O374 2.403 . S
Dy363 O375 2.664 . S
Dy363 O377 2.326 . S
O364 Dy360 2.398 . S
O364 C362 1.185 . S
O365 Dy360 2.491 1_545 S
O365 C362 1.355 1_545 S
O366 Dy360 2.403 . S
O366 C368 1.254 . S
O367 Dy360 2.664 . S
O367 Dy363 2.310 1_565 S
O367 C368 1.268 . S
C368 O366 1.254 . S
C368 O367 1.268 . S
C369 O374 1.254 . S
C369 O375 1.268 . S
O370 Dy363 2.351 . S
O370 C378 1.249 1_545 S
O371 Dy360 2.326 . S
O371 C378 1.267 . S
O372 C361 1.185 . S
O372 Dy363 2.398 . S
O373 C361 1.355 1_565 S
O373 Dy363 2.491 1_565 S
O374 Dy363 2.403 . S
O374 C369 1.254 . S
O375 Dy360 2.310 1_545 S
O375 Dy363 2.664 . S
O375 C369 1.268 . S
O376 Dy360 2.351 . S
O376 C379 1.249 1_565 S
O377 Dy363 2.326 . S
O377 C379 1.267 . S
C378 O370 1.249 1_565 S
C378 O371 1.267 . S
C379 O376 1.249 1_545 S
C379 O377 1.267 . S
Dy380 O384 2.398 . S
Dy380 O385 2.491 . S
Dy380 O386 2.403 . S
Dy380 O387 2.664 . S
Dy380 O391 2.326 . S
Dy380 O395 2.310 . S
Dy380 O396 2.351 . S
C381 O392 1.185 . S
C381 O393 1.355 . S
C382 O384 1.185 . S
C382 O385 1.355 . S
Dy383 O387 2.310 . S
Dy383 O390 2.351 . S
Dy383 O392 2.398 . S
Dy383 O393 2.491 . S
Dy383 O394 2.403 . S
Dy383 O395 2.664 . S
Dy383 O397 2.326 . S
O384 Dy380 2.398 . S
O384 C382 1.185 . S
O385 Dy380 2.491 . S
O385 C382 1.355 . S
O386 Dy380 2.403 . S
O386 C388 1.254 . S
O387 Dy380 2.664 . S
O387 Dy383 2.310 . S
O387 C388 1.268 . S
C388 O386 1.254 . S
C388 O387 1.268 . S
C389 O394 1.254 . S
C389 O395 1.268 . S
O390 Dy383 2.351 . S
O390 C398 1.249 . S
O391 Dy380 2.326 . S
O391 C398 1.267 . S
O392 C381 1.185 . S
O392 Dy383 2.398 . S
O393 C381 1.355 . S
O393 Dy383 2.491 . S
O394 Dy383 2.403 . S
O394 C389 1.254 . S
O395 Dy380 2.310 . S
O395 Dy383 2.664 . S
O395 C389 1.268 . S
O396 Dy380 2.351 . S
O396 C399 1.249 . S
O397 Dy383 2.326 . S
O397 C399 1.267 . S
C398 O390 1.249 . S
C398 O391 1.267 . S
C399 O396 1.249 . S
C399 O397 1.267 . S
Dy400 O404 2.398 . S
Dy400 O405 2.491 . S
Dy400 O406 2.403 . S
Dy400 O407 2.664 . S
Dy400 O411 2.326 . S
Dy400 O415 2.310 . S
Dy400 O416 2.351 . S
C401 O412 1.185 . S
C401 O413 1.355 . S
C402 O404 1.185 . S
C402 O405 1.355 . S
Dy403 O407 2.310 . S
Dy403 O410 2.351 . S
Dy403 O412 2.398 . S
Dy403 O413 2.491 . S
Dy403 O414 2.403 . S
Dy403 O415 2.664 . S
Dy403 O417 2.326 . S
O404 Dy400 2.398 . S
O404 C402 1.185 . S
O405 Dy400 2.491 . S
O405 C402 1.355 . S
O406 Dy400 2.403 . S
O406 C408 1.254 . S
O407 Dy400 2.664 . S
O407 Dy403 2.310 . S
O407 C408 1.268 . S
C408 O406 1.254 . S
C408 O407 1.268 . S
C409 O414 1.254 . S
C409 O415 1.268 . S
O410 Dy403 2.351 . S
O410 C418 1.249 . S
O411 Dy400 2.326 . S
O411 C418 1.267 . S
O412 C401 1.185 . S
O412 Dy403 2.398 . S
O413 C401 1.355 . S
O413 Dy403 2.491 . S
O414 Dy403 2.403 . S
O414 C409 1.254 . S
O415 Dy400 2.310 . S
O415 Dy403 2.664 . S
O415 C409 1.268 . S
O416 Dy400 2.351 . S
O416 C419 1.249 . S
O417 Dy403 2.326 . S
O417 C419 1.267 . S
C418 O410 1.249 . S
C418 O411 1.267 . S
C419 O416 1.249 . S
C419 O417 1.267 . S
Dy420 O424 2.398 . S
Dy420 O425 2.491 1_565 S
Dy420 O426 2.403 . S
Dy420 O427 2.664 . S
Dy420 O431 2.326 . S
Dy420 O435 2.310 1_565 S
Dy420 O436 2.351 . S
C421 O432 1.185 . S
C421 O433 1.355 1_545 S
C422 O424 1.185 . S
C422 O425 1.355 1_565 S
Dy423 O427 2.310 1_545 S
Dy423 O430 2.351 . S
Dy423 O432 2.398 . S
Dy423 O433 2.491 1_545 S
Dy423 O434 2.403 . S
Dy423 O435 2.664 . S
Dy423 O437 2.326 . S
O424 Dy420 2.398 . S
O424 C422 1.185 . S
O425 Dy420 2.491 1_545 S
O425 C422 1.355 1_545 S
O426 Dy420 2.403 . S
O426 C428 1.254 . S
O427 Dy420 2.664 . S
O427 Dy423 2.310 1_565 S
O427 C428 1.268 . S
C428 O426 1.254 . S
C428 O427 1.268 . S
C429 O434 1.254 . S
C429 O435 1.268 . S
O430 Dy423 2.351 . S
O430 C438 1.249 1_545 S
O431 Dy420 2.326 . S
O431 C438 1.267 . S
O432 C421 1.185 . S
O432 Dy423 2.398 . S
O433 C421 1.355 1_565 S
O433 Dy423 2.491 1_565 S
O434 Dy423 2.403 . S
O434 C429 1.254 . S
O435 Dy420 2.310 1_545 S
O435 Dy423 2.664 . S
O435 C429 1.268 . S
O436 Dy420 2.351 . S
O436 C439 1.249 1_565 S
O437 Dy423 2.326 . S
O437 C439 1.267 . S
C438 O430 1.249 1_565 S
C438 O431 1.267 . S
C439 O436 1.249 1_545 S
C439 O437 1.267 . S
Dy440 O444 2.398 . S
Dy440 O445 2.491 1_565 S
Dy440 O446 2.403 . S
Dy440 O447 2.664 . S
Dy440 O451 2.326 . S
Dy440 O455 2.310 1_565 S
Dy440 O456 2.351 . S
C441 O452 1.185 . S
C441 O453 1.355 1_545 S
C442 O444 1.185 . S
C442 O445 1.355 1_565 S
Dy443 O447 2.310 1_545 S
Dy443 O450 2.351 . S
Dy443 O452 2.398 . S
Dy443 O453 2.491 1_545 S
Dy443 O454 2.403 . S
Dy443 O455 2.664 . S
Dy443 O457 2.326 . S
O444 Dy440 2.398 . S
O444 C442 1.185 . S
O445 Dy440 2.491 1_545 S
O445 C442 1.355 1_545 S
O446 Dy440 2.403 . S
O446 C448 1.254 . S
O447 Dy440 2.664 . S
O447 Dy443 2.310 1_565 S
O447 C448 1.268 . S
C448 O446 1.254 . S
C448 O447 1.268 . S
C449 O454 1.254 . S
C449 O455 1.268 . S
O450 Dy443 2.351 . S
O450 C458 1.249 1_545 S
O451 Dy440 2.326 . S
O451 C458 1.267 . S
O452 C441 1.185 . S
O452 Dy443 2.398 . S
O453 C441 1.355 1_565 S
O453 Dy443 2.491 1_565 S
O454 Dy443 2.403 . S
O454 C449 1.254 . S
O455 Dy440 2.310 1_545 S
O455 Dy443 2.664 . S
O455 C449 1.268 . S
O456 Dy440 2.351 . S
O456 C459 1.249 1_565 S
O457 Dy443 2.326 . S
O457 C459 1.267 . S
C458 O450 1.249 1_565 S
C458 O451 1.267 . S
C459 O456 1.249 1_545 S
C459 O457 1.267 . S
Dy460 O464 2.398 . S
Dy460 O465 2.491 . S
Dy460 O466 2.403 . S
Dy460 O467 2.664 . S
Dy460 O471 2.326 . S
Dy460 O475 2.310 . S
Dy460 O476 2.351 . S
C461 O472 1.185 . S
C461 O473 1.355 . S
C462 O464 1.185 . S
C462 O465 1.355 . S
Dy463 O467 2.310 . S
Dy463 O470 2.351 . S
Dy463 O472 2.398 . S
Dy463 O473 2.491 . S
Dy463 O474 2.403 . S
Dy463 O475 2.664 . S
Dy463 O477 2.326 . S
O464 Dy460 2.398 . S
O464 C462 1.185 . S
O465 Dy460 2.491 . S
O465 C462 1.355 . S
O466 Dy460 2.403 . S
O466 C468 1.254 . S
O467 Dy460 2.664 . S
O467 Dy463 2.310 . S
O467 C468 1.268 . S
C468 O466 1.254 . S
C468 O467 1.268 . S
C469 O474 1.254 . S
C469 O475 1.268 . S
O470 Dy463 2.351 . S
O470 C478 1.249 . S
O471 Dy460 2.326 . S
O471 C478 1.267 . S
O472 C461 1.185 . S
O472 Dy463 2.398 . S
O473 C461 1.355 . S
O473 Dy463 2.491 . S
O474 Dy463 2.403 . S
O474 C469 1.254 . S
O475 Dy460 2.310 . S
O475 Dy463 2.664 . S
O475 C469 1.268 . S
O476 Dy460 2.351 . S
O476 C479 1.249 . S
O477 Dy463 2.326 . S
O477 C479 1.267 . S
C478 O470 1.249 . S
C478 O471 1.267 . S
C479 O476 1.249 . S
C479 O477 1.267 . S
Dy480 O484 2.398 1_554 S
Dy480 O485 2.491 1_554 S
Dy480 O486 2.403 . S
Dy480 O487 2.664 . S
Dy480 O491 2.326 . S
Dy480 O495 2.310 . S
Dy480 O496 2.351 . S
C481 O492 1.185 . S
C481 O493 1.355 . S
C482 O484 1.185 . S
C482 O485 1.355 . S
Dy483 O487 2.310 . S
Dy483 O490 2.351 . S
Dy483 O492 2.398 . S
Dy483 O493 2.491 . S
Dy483 O494 2.403 . S
Dy483 O495 2.664 . S
Dy483 O497 2.326 . S
O484 Dy480 2.398 1_556 S
O484 C482 1.185 . S
O485 Dy480 2.491 1_556 S
O485 C482 1.355 . S
O486 Dy480 2.403 . S
O486 C488 1.254 . S
O487 Dy480 2.664 . S
O487 Dy483 2.310 . S
O487 C488 1.268 . S
C488 O486 1.254 . S
C488 O487 1.268 . S
C489 O494 1.254 . S
C489 O495 1.268 . S
O490 Dy483 2.351 . S
O490 C498 1.249 . S
O491 Dy480 2.326 . S
O491 C498 1.267 . S
O492 C481 1.185 . S
O492 Dy483 2.398 . S
O493 C481 1.355 . S
O493 Dy483 2.491 . S
O494 Dy483 2.403 . S
O494 C489 1.254 . S
O495 Dy480 2.310 . S
O495 Dy483 2.664 . S
O495 C489 1.268 . S
O496 Dy480 2.351 . S
O496 C499 1.249 . S
O497 Dy483 2.326 . S
O497 C499 1.267 . S
C498 O490 1.249 . S
C498 O491 1.267 . S
C499 O496 1.249 . S
C499 O497 1.267 . S
Dy500 O504 2.398 1_554 S
Dy500 O505 2.491 1_554 S
Dy500 O506 2.403 . S
Dy500 O507 2.664 . S
Dy500 O511 2.326 . S
Dy500 O515 2.310 . S
Dy500 O516 2.351 . S
C501 O512 1.185 . S
C501 O513 1.355 . S
C502 O504 1.185 . S
C502 O505 1.355 . S
Dy503 O507 2.310 . S
Dy503 O510 2.351 . S
Dy503 O512 2.398 . S
Dy503 O513 2.491 . S
Dy503 O514 2.403 . S
Dy503 O515 2.664 . S
Dy503 O517 2.326 . S
O504 Dy500 2.398 1_556 S
O504 C502 1.185 . S
O505 Dy500 2.491 1_556 S
O505 C502 1.355 . S
O506 Dy500 2.403 . S
O506 C508 1.254 . S
O507 Dy500 2.664 . S
O507 Dy503 2.310 . S
O507 C508 1.268 . S
C508 O506 1.254 . S
C508 O507 1.268 . S
C509 O514 1.254 . S
C509 O515 1.268 . S
O510 Dy503 2.351 . S
O510 C518 1.249 . S
O511 Dy500 2.326 . S
O511 C518 1.267 . S
O512 C501 1.185 . S
O512 Dy503 2.398 . S
O513 C501 1.355 . S
O513 Dy503 2.491 . S
O514 Dy503 2.403 . S
O514 C509 1.254 . S
O515 Dy500 2.310 . S
O515 Dy503 2.664 . S
O515 C509 1.268 . S
O516 Dy500 2.351 . S
O516 C519 1.249 . S
O517 Dy503 2.326 . S
O517 C519 1.267 . S
C518 O510 1.249 . S
C518 O511 1.267 . S
C519 O516 1.249 . S
C519 O517 1.267 . S
Dy520 O524 2.398 . S
Dy520 O525 2.491 . S
Dy520 O526 2.403 . S
Dy520 O527 2.664 1_554 S
Dy520 O531 2.326 . S
Dy520 O535 2.310 . S
Dy520 O536 2.351 . S
C521 O532 1.185 . S
C521 O533 1.355 . S
C522 O524 1.185 . S
C522 O525 1.355 . S
Dy523 O527 2.310 . S
Dy523 O530 2.351 1_556 S
Dy523 O532 2.398 . S
Dy523 O533 2.491 . S
Dy523 O534 2.403 . S
Dy523 O535 2.664 1_556 S
Dy523 O537 2.326 . S
O524 Dy520 2.398 . S
O524 C522 1.185 . S
O525 Dy520 2.491 . S
O525 C522 1.355 . S
O526 Dy520 2.403 . S
O526 C528 1.254 . S
O527 Dy520 2.664 1_556 S
O527 Dy523 2.310 . S
O527 C528 1.268 1_556 S
C528 O526 1.254 . S
C528 O527 1.268 1_554 S
C529 O534 1.254 1_554 S
C529 O535 1.268 . S
O530 Dy523 2.351 1_554 S
O530 C538 1.249 . S
O531 Dy520 2.326 . S
O531 C538 1.267 . S
O532 C521 1.185 . S
O532 Dy523 2.398 . S
O533 C521 1.355 . S
O533 Dy523 2.491 . S
O534 Dy523 2.403 . S
O534 C529 1.254 1_556 S
O535 Dy520 2.310 . S
O535 Dy523 2.664 1_554 S
O535 C529 1.268 . S
O536 Dy520 2.351 . S
O536 C539 1.249 1_554 S
O537 Dy523 2.326 . S
O537 C539 1.267 . S
C538 O530 1.249 . S
C538 O531 1.267 . S
C539 O536 1.249 1_556 S
C539 O537 1.267 . S
Dy540 O544 2.398 . S
Dy540 O545 2.491 . S
Dy540 O546 2.403 . S
Dy540 O547 2.664 1_554 S
Dy540 O551 2.326 . S
Dy540 O555 2.310 . S
Dy540 O556 2.351 . S
C541 O552 1.185 . S
C541 O553 1.355 . S
C542 O544 1.185 . S
C542 O545 1.355 . S
Dy543 O547 2.310 . S
Dy543 O550 2.351 1_556 S
Dy543 O552 2.398 . S
Dy543 O553 2.491 . S
Dy543 O554 2.403 . S
Dy543 O555 2.664 1_556 S
Dy543 O557 2.326 . S
O544 Dy540 2.398 . S
O544 C542 1.185 . S
O545 Dy540 2.491 . S
O545 C542 1.355 . S
O546 Dy540 2.403 . S
O546 C548 1.254 . S
O547 Dy540 2.664 1_556 S
O547 Dy543 2.310 . S
O547 C548 1.268 1_556 S
C548 O546 1.254 . S
C548 O547 1.268 1_554 S
C549 O554 1.254 1_554 S
C549 O555 1.268 . S
O550 Dy543 2.351 1_554 S
O550 C558 1.249 . S
O551 Dy540 2.326 . S
O551 C558 1.267 . S
O552 C541 1.185 . S
O552 Dy543 2.398 . S
O553 C541 1.355 . S
O553 Dy543 2.491 . S
O554 Dy543 2.403 . S
O554 C549 1.254 1_556 S
O555 Dy540 2.310 . S
O555 Dy543 2.664 1_554 S
O555 C549 1.268 . S
O556 Dy540 2.351 . S
O556 C559 1.249 1_554 S
O557 Dy543 2.326 . S
O557 C559 1.267 . S
C558 O550 1.249 . S
C558 O551 1.267 . S
C559 O556 1.249 1_556 S
C559 O557 1.267 . S
Dy560 O564 2.398 . S
Dy560 O565 2.491 . S
Dy560 O566 2.403 . S
Dy560 O567 2.664 . S
Dy560 O571 2.326 . S
Dy560 O575 2.310 . S
Dy560 O576 2.351 . S
C561 O572 1.185 . S
C561 O573 1.355 . S
C562 O564 1.185 . S
C562 O565 1.355 . S
Dy563 O567 2.310 . S
Dy563 O570 2.351 . S
Dy563 O572 2.398 1_556 S
Dy563 O573 2.491 1_556 S
Dy563 O574 2.403 . S
Dy563 O575 2.664 . S
Dy563 O577 2.326 . S
O564 Dy560 2.398 . S
O564 C562 1.185 . S
O565 Dy560 2.491 . S
O565 C562 1.355 . S
O566 Dy560 2.403 . S
O566 C568 1.254 . S
O567 Dy560 2.664 . S
O567 Dy563 2.310 . S
O567 C568 1.268 . S
C568 O566 1.254 . S
C568 O567 1.268 . S
C569 O574 1.254 . S
C569 O575 1.268 . S
O570 Dy563 2.351 . S
O570 C578 1.249 . S
O571 Dy560 2.326 . S
O571 C578 1.267 . S
O572 C561 1.185 . S
O572 Dy563 2.398 1_554 S
O573 C561 1.355 . S
O573 Dy563 2.491 1_554 S
O574 Dy563 2.403 . S
O574 C569 1.254 . S
O575 Dy560 2.310 . S
O575 Dy563 2.664 . S
O575 C569 1.268 . S
O576 Dy560 2.351 . S
O576 C579 1.249 . S
O577 Dy563 2.326 . S
O577 C579 1.267 . S
C578 O570 1.249 . S
C578 O571 1.267 . S
C579 O576 1.249 . S
C579 O577 1.267 . S
Dy580 O584 2.398 . S
Dy580 O585 2.491 . S
Dy580 O586 2.403 . S
Dy580 O587 2.664 . S
Dy580 O591 2.326 . S
Dy580 O595 2.310 . S
Dy580 O596 2.351 . S
C581 O592 1.185 . S
C581 O593 1.355 . S
C582 O584 1.185 . S
C582 O585 1.355 . S
Dy583 O587 2.310 . S
Dy583 O590 2.351 . S
Dy583 O592 2.398 1_556 S
Dy583 O593 2.491 1_556 S
Dy583 O594 2.403 . S
Dy583 O595 2.664 . S
Dy583 O597 2.326 . S
O584 Dy580 2.398 . S
O584 C582 1.185 . S
O585 Dy580 2.491 . S
O585 C582 1.355 . S
O586 Dy580 2.403 . S
O586 C588 1.254 . S
O587 Dy580 2.664 . S
O587 Dy583 2.310 . S
O587 C588 1.268 . S
C588 O586 1.254 . S
C588 O587 1.268 . S
C589 O594 1.254 . S
C589 O595 1.268 . S
O590 Dy583 2.351 . S
O590 C598 1.249 . S
O591 Dy580 2.326 . S
O591 C598 1.267 . S
O592 C581 1.185 . S
O592 Dy583 2.398 1_554 S
O593 C581 1.355 . S
O593 Dy583 2.491 1_554 S
O594 Dy583 2.403 . S
O594 C589 1.254 . S
O595 Dy580 2.310 . S
O595 Dy583 2.664 . S
O595 C589 1.268 . S
O596 Dy580 2.351 . S
O596 C599 1.249 . S
O597 Dy583 2.326 . S
O597 C599 1.267 . S
C598 O590 1.249 . S
C598 O591 1.267 . S
C599 O596 1.249 . S
C599 O597 1.267 . S
Dy600 O604 2.398 . S
Dy600 O605 2.491 . S
Dy600 O606 2.403 . S
Dy600 O607 2.664 1_554 S
Dy600 O611 2.326 . S
Dy600 O615 2.310 . S
Dy600 O616 2.351 1_554 S
C601 O612 1.185 . S
C601 O613 1.355 . S
C602 O604 1.185 . S
C602 O605 1.355 . S
Dy603 O607 2.310 . S
Dy603 O610 2.351 . S
Dy603 O612 2.398 . S
Dy603 O613 2.491 . S
Dy603 O614 2.403 . S
Dy603 O615 2.664 1_556 S
Dy603 O617 2.326 . S
O604 Dy600 2.398 . S
O604 C602 1.185 . S
O605 Dy600 2.491 . S
O605 C602 1.355 . S
O606 Dy600 2.403 . S
O606 C608 1.254 1_554 S
O607 Dy600 2.664 1_556 S
O607 Dy603 2.310 . S
O607 C608 1.268 . S
C608 O606 1.254 1_556 S
C608 O607 1.268 . S
C609 O614 1.254 . S
C609 O615 1.268 1_556 S
O610 Dy603 2.351 . S
O610 C618 1.249 1_556 S
O611 Dy600 2.326 . S
O611 C618 1.267 . S
O612 C601 1.185 . S
O612 Dy603 2.398 . S
O613 C601 1.355 . S
O613 Dy603 2.491 . S
O614 Dy603 2.403 . S
O614 C609 1.254 . S
O615 Dy600 2.310 . S
O615 Dy603 2.664 1_554 S
O615 C609 1.268 1_554 S
O616 Dy600 2.351 1_556 S
O616 C619 1.249 . S
O617 Dy603 2.326 . S
O617 C619 1.267 . S
C618 O610 1.249 1_554 S
C618 O611 1.267 . S
C619 O616 1.249 . S
C619 O617 1.267 . S
Dy620 O624 2.398 . S
Dy620 O625 2.491 . S
Dy620 O626 2.403 . S
Dy620 O627 2.664 1_554 S
Dy620 O631 2.326 . S
Dy620 O635 2.310 . S
Dy620 O636 2.351 1_554 S
C621 O632 1.185 . S
C621 O633 1.355 . S
C622 O624 1.185 . S
C622 O625 1.355 . S
Dy623 O627 2.310 . S
Dy623 O630 2.351 . S
Dy623 O632 2.398 . S
Dy623 O633 2.491 . S
Dy623 O634 2.403 . S
Dy623 O635 2.664 1_556 S
Dy623 O637 2.326 . S
O624 Dy620 2.398 . S
O624 C622 1.185 . S
O625 Dy620 2.491 . S
O625 C622 1.355 . S
O626 Dy620 2.403 . S
O626 C628 1.254 1_554 S
O627 Dy620 2.664 1_556 S
O627 Dy623 2.310 . S
O627 C628 1.268 . S
C628 O626 1.254 1_556 S
C628 O627 1.268 . S
C629 O634 1.254 . S
C629 O635 1.268 1_556 S
O630 Dy623 2.351 . S
O630 C638 1.249 1_556 S
O631 Dy620 2.326 . S
O631 C638 1.267 . S
O632 C621 1.185 . S
O632 Dy623 2.398 . S
O633 C621 1.355 . S
O633 Dy623 2.491 . S
O634 Dy623 2.403 . S
O634 C629 1.254 . S
O635 Dy620 2.310 . S
O635 Dy623 2.664 1_554 S
O635 C629 1.268 1_554 S
O636 Dy620 2.351 1_556 S
O636 C639 1.249 . S
O637 Dy623 2.326 . S
O637 C639 1.267 . S
C638 O630 1.249 1_554 S
C638 O631 1.267 . S
C639 O636 1.249 . S
C639 O637 1.267 . S
H640 C646 0.930 . S
H641 C649 0.930 . S
H642 C650 0.930 . S
H643 C651 0.930 . S
H644 C654 0.930 . S
H645 C655 0.930 . S
C646 H640 0.930 . S
C646 C647 1.355 . S
C646 C648 1.415 1_556 S
C647 C646 1.355 . S
C647 C649 1.419 . S
C648 C646 1.415 1_554 S
C648 C653 1.425 1_554 S
C648 C655 1.409 . S
C649 H641 0.930 . S
C649 C647 1.419 . S
C649 C650 1.362 . S
C650 H642 0.930 . S
C650 C649 1.362 . S
C650 C653 1.409 . S
C651 H643 0.930 . S
C651 C652 1.355 . S
C651 C653 1.415 1_554 S
C652 C651 1.355 . S
C652 C654 1.419 . S
C653 C648 1.425 1_556 S
C653 C650 1.409 . S
C653 C651 1.415 1_556 S
C654 H644 0.930 . S
C654 C652 1.419 . S
C654 C655 1.362 . S
C655 H645 0.930 . S
C655 C648 1.409 . S
C655 C654 1.362 . S
H656 C662 0.930 1_554 S
H657 C665 0.930 . S
H658 C666 0.930 . S
H659 C667 0.930 1_556 S
H660 C670 0.930 . S
H661 C671 0.930 . S
C662 H656 0.930 1_556 S
C662 C663 1.353 1_545 S
C662 C664 1.415 1_556 S
C663 C662 1.353 1_565 S
C663 C665 1.421 . S
C664 C662 1.415 1_554 S
C664 C669 1.425 1_444 S
C664 C671 1.409 . S
C665 H657 0.930 . S
C665 C663 1.421 . S
C665 C666 1.362 1_455 S
C666 H658 0.930 . S
C666 C665 1.362 1_655 S
C666 C669 1.409 . S
C667 H659 0.930 1_554 S
C667 C668 1.352 1_565 S
C667 C669 1.415 1_554 S
C668 C667 1.352 1_545 S
C668 C670 1.424 . S
C669 C664 1.425 1_666 S
C669 C666 1.409 . S
C669 C667 1.415 1_556 S
C670 H660 0.930 . S
C670 C668 1.424 . S
C670 C671 1.362 1_655 S
C671 H661 0.930 . S
C671 C664 1.409 . S
C671 C670 1.362 1_455 S
H672 C678 0.930 . S
H673 C681 0.930 . S
H674 C682 0.930 . S
H675 C683 0.930 . S
H676 C686 0.930 . S
H677 C687 0.930 . S
C678 H672 0.930 . S
C678 C679 1.353 . S
C678 C680 1.415 . S
C679 C678 1.353 . S
C679 C681 1.422 1_545 S
C680 C678 1.415 . S
C680 C685 1.425 1_545 S
C680 C687 1.409 . S
C681 H673 0.930 . S
C681 C679 1.422 1_565 S
C681 C682 1.362 . S
C682 H674 0.930 . S
C682 C681 1.362 . S
C682 C685 1.409 . S
C683 H675 0.930 . S
C683 C684 1.353 1_565 S
C683 C685 1.415 . S
C684 C683 1.353 1_545 S
C684 C686 1.422 . S
C685 C680 1.425 1_565 S
C685 C682 1.409 . S
C685 C683 1.415 . S
C686 H676 0.930 . S
C686 C684 1.422 . S
C686 C687 1.362 . S
C687 H677 0.930 . S
C687 C680 1.409 . S
C687 C686 1.362 . S
H688 C694 0.930 . S
H689 C697 0.930 . S
H690 C698 0.930 . S
H691 C699 0.930 . S
H692 C702 0.930 . S
H693 C703 0.930 . S
C694 H688 0.930 . S
C694 C695 1.355 . S
C694 C696 1.415 . S
C695 C694 1.355 . S
C695 C697 1.419 . S
C696 C694 1.415 . S
C696 C701 1.425 1_455 S
C696 C703 1.409 . S
C697 H689 0.930 . S
C697 C695 1.419 . S
C697 C698 1.362 1_455 S
C698 H690 0.930 . S
C698 C697 1.362 1_655 S
C698 C701 1.409 . S
C699 H691 0.930 . S
C699 C700 1.355 . S
C699 C701 1.415 . S
C700 C699 1.355 . S
C700 C702 1.419 . S
C701 C696 1.425 1_655 S
C701 C698 1.409 . S
C701 C699 1.415 . S
C702 H692 0.930 . S
C702 C700 1.419 . S
C702 C703 1.362 1_655 S
C703 H693 0.930 . S
C703 C696 1.409 . S
C703 C702 1.362 1_455 S
H704 C710 0.930 . S
H705 C713 0.930 . S
H706 C714 0.930 . S
H707 C715 0.930 . S
H708 C718 0.930 . S
H709 C719 0.930 . S
C710 H704 0.930 . S
C710 C711 1.355 . S
C710 C712 1.415 . S
C711 C710 1.355 . S
C711 C713 1.419 . S
C712 C710 1.415 . S
C712 C717 1.425 1_556 S
C712 C719 1.409 . S
C713 H705 0.930 . S
C713 C711 1.419 . S
C713 C714 1.362 1_556 S
C714 H706 0.930 . S
C714 C713 1.362 1_554 S
C714 C717 1.409 . S
C715 H707 0.930 . S
C715 C716 1.355 . S
C715 C717 1.415 . S
C716 C715 1.355 . S
C716 C718 1.419 . S
C717 C712 1.425 1_554 S
C717 C714 1.409 . S
C717 C715 1.415 . S
C718 H708 0.930 . S
C718 C716 1.419 . S
C718 C719 1.362 1_554 S
C719 H709 0.930 . S
C719 C712 1.409 . S
C719 C718 1.362 1_556 S
H720 C726 0.930 . S
H721 C729 0.930 . S
H722 C730 0.930 . S
H723 C731 0.930 . S
H724 C734 0.930 . S
H725 C735 0.930 . S
C726 H720 0.930 . S
C726 C727 1.355 1_545 S
C726 C728 1.415 . S
C727 C726 1.355 1_565 S
C727 C729 1.419 . S
C728 C726 1.415 . S
C728 C733 1.425 1_545 S
C728 C735 1.409 . S
C729 H721 0.930 . S
C729 C727 1.419 . S
C729 C730 1.362 . S
C730 H722 0.930 . S
C730 C729 1.362 . S
C730 C733 1.409 . S
C731 H723 0.930 . S
C731 C732 1.355 1_565 S
C731 C733 1.415 . S
C732 C731 1.355 1_545 S
C732 C734 1.419 . S
C733 C728 1.425 1_565 S
C733 C730 1.409 . S
C733 C731 1.415 . S
C734 H724 0.930 . S
C734 C732 1.419 . S
C734 C735 1.362 . S
C735 H725 0.930 . S
C735 C728 1.409 . S
C735 C734 1.362 . S
H736 C742 0.930 . S
H737 C745 0.930 . S
H738 C746 0.925 1_455 S
H739 C747 0.930 . S
H740 C750 0.930 . S
H741 C751 0.927 1_655 S
C742 H736 0.930 . S
C742 C743 1.355 . S
C742 C744 1.415 . S
C743 C742 1.355 . S
C743 C745 1.419 . S
C744 C742 1.415 . S
C744 C749 1.425 1_655 S
C744 C751 1.409 1_655 S
C745 H737 0.930 . S
C745 C743 1.419 . S
C745 C746 1.362 . S
C746 H738 0.925 1_655 S
C746 C745 1.362 . S
C746 C749 1.409 1_655 S
C747 H739 0.930 . S
C747 C748 1.355 . S
C747 C749 1.415 . S
C748 C747 1.355 . S
C748 C750 1.419 . S
C749 C744 1.425 1_455 S
C749 C746 1.409 1_455 S
C749 C747 1.415 . S
C750 H740 0.930 . S
C750 C748 1.419 . S
C750 C751 1.362 . S
C751 H741 0.927 1_455 S
C751 C744 1.409 1_455 S
C751 C750 1.362 . S
H752 C758 0.930 . S
H753 C761 0.930 . S
H754 C762 0.930 . S
H755 C763 0.930 . S
H756 C766 0.930 . S
H757 C767 0.930 . S
C758 H752 0.930 . S
C758 C759 1.355 . S
C758 C760 1.415 . S
C759 C758 1.355 . S
C759 C761 1.419 . S
C760 C758 1.415 . S
C760 C765 1.425 . S
C760 C767 1.409 . S
C761 H753 0.930 . S
C761 C759 1.419 . S
C761 C762 1.362 . S
C762 H754 0.930 . S
C762 C761 1.362 . S
C762 C765 1.409 . S
C763 H755 0.930 . S
C763 C764 1.355 . S
C763 C765 1.415 . S
C764 C763 1.355 . S
C764 C766 1.419 . S
C765 C760 1.425 . S
C765 C762 1.409 . S
C765 C763 1.415 . S
C766 H756 0.930 . S
C766 C764 1.419 . S
C766 C767 1.362 . S
C767 H757 0.930 . S
C767 C760 1.409 . S
C767 C766 1.362 . S
H768 C774 0.930 . S
H769 C777 0.930 . S
H770 C778 0.930 . S
H771 C779 0.930 . S
H772 C782 0.930 . S
H773 C783 0.930 . S
C774 H768 0.930 . S
C774 C775 1.355 . S
C774 C776 1.415 . S
C775 C774 1.355 . S
C775 C777 1.419 . S
C776 C774 1.415 . S
C776 C781 1.425 1_655 S
C776 C783 1.409 . S
C777 H769 0.930 . S
C777 C775 1.419 . S
C777 C778 1.362 1_655 S
C778 H770 0.930 . S
C778 C777 1.362 1_455 S
C778 C781 1.409 . S
C779 H771 0.930 . S
C779 C780 1.355 . S
C779 C781 1.415 . S
C780 C779 1.355 . S
C780 C782 1.419 . S
C781 C776 1.425 1_455 S
C781 C778 1.409 . S
C781 C779 1.415 . S
C782 H772 0.930 . S
C782 C780 1.419 . S
C782 C783 1.362 1_455 S
C783 H773 0.930 . S
C783 C776 1.409 . S
C783 C782 1.362 1_655 S
H784 C790 0.930 . S
H785 C793 0.930 . S
H786 C794 0.930 . S
H787 C795 0.930 . S
H788 C798 0.930 . S
H789 C799 0.930 . S
C790 H784 0.930 . S
C790 C791 1.355 . S
C790 C792 1.415 . S
C791 C790 1.355 . S
C791 C793 1.419 . S
C792 C790 1.415 . S
C792 C797 1.425 . S
C792 C799 1.409 . S
C793 H785 0.930 . S
C793 C791 1.419 . S
C793 C794 1.362 . S
C794 H786 0.930 . S
C794 C793 1.362 . S
C794 C797 1.409 . S
C795 H787 0.930 . S
C795 C796 1.355 . S
C795 C797 1.415 . S
C796 C795 1.355 . S
C796 C798 1.419 . S
C797 C792 1.425 . S
C797 C794 1.409 . S
C797 C795 1.415 . S
C798 H788 0.930 . S
C798 C796 1.419 . S
C798 C799 1.362 . S
C799 H789 0.930 . S
C799 C792 1.409 . S
C799 C798 1.362 . S
H800 C806 0.930 . S
H801 C809 0.930 . S
H802 C810 0.930 . S
H803 C811 0.930 . S
H804 C814 0.930 . S
H805 C815 0.930 . S
C806 H800 0.930 . S
C806 C807 1.355 . S
C806 C808 1.415 . S
C807 C806 1.355 . S
C807 C809 1.419 . S
C808 C806 1.415 . S
C808 C813 1.425 . S
C808 C815 1.409 . S
C809 H801 0.930 . S
C809 C807 1.419 . S
C809 C810 1.362 . S
C810 H802 0.930 . S
C810 C809 1.362 . S
C810 C813 1.409 . S
C811 H803 0.930 . S
C811 C812 1.355 . S
C811 C813 1.415 . S
C812 C811 1.355 . S
C812 C814 1.419 . S
C813 C808 1.425 . S
C813 C810 1.409 . S
C813 C811 1.415 . S
C814 H804 0.930 . S
C814 C812 1.419 . S
C814 C815 1.362 . S
C815 H805 0.930 . S
C815 C808 1.409 . S
C815 C814 1.362 . S
H816 C822 0.930 . S
H817 C825 0.930 . S
H818 C826 0.930 . S
H819 C827 0.930 . S
H820 C830 0.930 . S
H821 C831 0.930 . S
C822 H816 0.930 . S
C822 C823 1.355 . S
C822 C824 1.415 . S
C823 C822 1.355 . S
C823 C825 1.419 . S
C824 C822 1.415 . S
C824 C829 1.425 . S
C824 C831 1.409 . S
C825 H817 0.930 . S
C825 C823 1.419 . S
C825 C826 1.362 . S
C826 H818 0.930 . S
C826 C825 1.362 . S
C826 C829 1.409 . S
C827 H819 0.930 . S
C827 C828 1.355 . S
C827 C829 1.415 . S
C828 C827 1.355 . S
C828 C830 1.419 . S
C829 C824 1.425 . S
C829 C826 1.409 . S
C829 C827 1.415 . S
C830 H820 0.930 . S
C830 C828 1.419 . S
C830 C831 1.362 . S
C831 H821 0.930 . S
C831 C824 1.409 . S
C831 C830 1.362 . S
H832 C838 0.930 . S
H833 C841 0.930 . S
H834 C842 0.930 . S
H835 C843 0.930 . S
H836 C846 0.930 . S
H837 C847 0.930 . S
C838 H832 0.930 . S
C838 C839 1.355 1_545 S
C838 C840 1.415 . S
C839 C838 1.355 1_565 S
C839 C841 1.419 . S
C840 C838 1.415 . S
C840 C845 1.425 1_545 S
C840 C847 1.409 . S
C841 H833 0.930 . S
C841 C839 1.419 . S
C841 C842 1.362 . S
C842 H834 0.930 . S
C842 C841 1.362 . S
C842 C845 1.409 . S
C843 H835 0.930 . S
C843 C844 1.355 1_565 S
C843 C845 1.415 . S
C844 C843 1.355 1_545 S
C844 C846 1.419 . S
C845 C840 1.425 1_565 S
C845 C842 1.409 . S
C845 C843 1.415 . S
C846 H836 0.930 . S
C846 C844 1.419 . S
C846 C847 1.362 . S
C847 H837 0.930 . S
C847 C840 1.409 . S
C847 C846 1.362 . S
H848 C854 0.930 . S
H849 C857 0.930 . S
H850 C858 0.930 . S
H851 C859 0.930 . S
H852 C862 0.930 . S
H853 C863 0.930 . S
C854 H848 0.930 . S
C854 C855 1.355 . S
C854 C856 1.415 . S
C855 C854 1.355 . S
C855 C857 1.419 . S
C856 C854 1.415 . S
C856 C861 1.425 . S
C856 C863 1.409 . S
C857 H849 0.930 . S
C857 C855 1.419 . S
C857 C858 1.362 . S
C858 H850 0.930 . S
C858 C857 1.362 . S
C858 C861 1.409 . S
C859 H851 0.930 . S
C859 C860 1.355 . S
C859 C861 1.415 . S
C860 C859 1.355 . S
C860 C862 1.419 . S
C861 C856 1.425 . S
C861 C858 1.409 . S
C861 C859 1.415 . S
C862 H852 0.930 . S
C862 C860 1.419 . S
C862 C863 1.362 . S
C863 H853 0.930 . S
C863 C856 1.409 . S
C863 C862 1.362 . S
H864 C870 0.930 . S
H865 C873 0.930 . S
H866 C874 0.930 . S
H867 C875 0.930 . S
H868 C878 0.930 . S
H869 C879 0.930 . S
C870 H864 0.930 . S
C870 C871 1.355 . S
C870 C872 1.415 . S
C871 C870 1.355 . S
C871 C873 1.419 . S
C872 C870 1.415 . S
C872 C877 1.425 . S
C872 C879 1.409 . S
C873 H865 0.930 . S
C873 C871 1.419 . S
C873 C874 1.362 . S
C874 H866 0.930 . S
C874 C873 1.362 . S
C874 C877 1.409 . S
C875 H867 0.930 . S
C875 C876 1.355 . S
C875 C877 1.415 . S
C876 C875 1.355 . S
C876 C878 1.419 . S
C877 C872 1.425 . S
C877 C874 1.409 . S
C877 C875 1.415 . S
C878 H868 0.930 . S
C878 C876 1.419 . S
C878 C879 1.362 . S
C879 H869 0.930 . S
C879 C872 1.409 . S
C879 C878 1.362 . S
H880 C886 0.930 . S
H881 C889 0.930 . S
H882 C890 0.930 . S
H883 C891 0.930 . S
H884 C894 0.930 . S
H885 C895 0.930 . S
C886 H880 0.930 . S
C886 C887 1.355 . S
C886 C888 1.415 . S
C887 C886 1.355 . S
C887 C889 1.419 . S
C888 C886 1.415 . S
C888 C893 1.425 1_556 S
C888 C895 1.409 . S
C889 H881 0.930 . S
C889 C887 1.419 . S
C889 C890 1.362 1_556 S
C890 H882 0.930 . S
C890 C889 1.362 1_554 S
C890 C893 1.409 . S
C891 H883 0.930 . S
C891 C892 1.355 . S
C891 C893 1.415 . S
C892 C891 1.355 . S
C892 C894 1.419 . S
C893 C888 1.425 1_554 S
C893 C890 1.409 . S
C893 C891 1.415 . S
C894 H884 0.930 . S
C894 C892 1.419 . S
C894 C895 1.362 1_554 S
C895 H885 0.930 . S
C895 C888 1.409 . S
C895 C894 1.362 1_556 S
H896 C902 0.930 . S
H897 C905 0.930 . S
H898 C906 0.930 . S
H899 C907 0.930 . S
H900 C910 0.930 . S
H901 C911 0.930 . S
C902 H896 0.930 . S
C902 C903 1.355 . S
C902 C904 1.415 . S
C903 C902 1.355 . S
C903 C905 1.419 . S
C904 C902 1.415 . S
C904 C909 1.425 . S
C904 C911 1.409 . S
C905 H897 0.930 . S
C905 C903 1.419 . S
C905 C906 1.362 . S
C906 H898 0.930 . S
C906 C905 1.362 . S
C906 C909 1.409 . S
C907 H899 0.930 . S
C907 C908 1.355 . S
C907 C909 1.415 . S
C908 C907 1.355 . S
C908 C910 1.419 . S
C909 C904 1.425 . S
C909 C906 1.409 . S
C909 C907 1.415 . S
C910 H900 0.930 . S
C910 C908 1.419 . S
C910 C911 1.362 . S
C911 H901 0.930 . S
C911 C904 1.409 . S
C911 C910 1.362 . S
H912 C918 0.930 . S
H913 C921 0.930 . S
H914 C922 0.930 . S
H915 C923 0.930 . S
H916 C926 0.930 . S
H917 C927 0.930 . S
C918 H912 0.930 . S
C918 C919 1.354 1_545 S
C918 C920 1.415 . S
C919 C918 1.354 1_565 S
C919 C921 1.420 . S
C920 C918 1.415 . S
C920 C925 1.425 1_545 S
C920 C927 1.409 . S
C921 H913 0.930 . S
C921 C919 1.420 . S
C921 C922 1.362 . S
C922 H914 0.930 . S
C922 C921 1.362 . S
C922 C925 1.409 . S
C923 H915 0.930 . S
C923 C924 1.355 1_565 S
C923 C925 1.415 . S
C924 C923 1.355 1_545 S
C924 C926 1.419 . S
C925 C920 1.425 1_565 S
C925 C922 1.409 . S
C925 C923 1.415 . S
C926 H916 0.930 . S
C926 C924 1.419 . S
C926 C927 1.362 . S
C927 H917 0.930 . S
C927 C920 1.409 . S
C927 C926 1.362 . S
H928 C934 0.930 . S
H929 C937 0.930 . S
H930 C938 0.930 . S
H931 C939 0.930 . S
H932 C942 0.930 . S
H933 C943 0.930 . S
C934 H928 0.930 . S
C934 C935 1.355 1_545 S
C934 C936 1.415 . S
C935 C934 1.355 1_565 S
C935 C937 1.419 . S
C936 C934 1.415 . S
C936 C941 1.425 1_545 S
C936 C943 1.409 . S
C937 H929 0.930 . S
C937 C935 1.419 . S
C937 C938 1.362 . S
C938 H930 0.930 . S
C938 C937 1.362 . S
C938 C941 1.409 . S
C939 H931 0.930 . S
C939 C940 1.355 1_565 S
C939 C941 1.415 . S
C940 C939 1.355 1_545 S
C940 C942 1.419 . S
C941 C936 1.425 1_565 S
C941 C938 1.409 . S
C941 C939 1.415 . S
C942 H932 0.930 . S
C942 C940 1.419 . S
C942 C943 1.362 . S
C943 H933 0.930 . S
C943 C936 1.409 . S
C943 C942 1.362 . S
H944 C950 0.930 . S
H945 C953 0.930 . S
H946 C954 0.930 . S
H947 C955 0.930 . S
H948 C958 0.930 . S
H949 C959 0.930 . S
C950 H944 0.930 . S
C950 C951 1.355 . S
C950 C952 1.415 . S
C951 C950 1.355 . S
C951 C953 1.419 . S
C952 C950 1.415 . S
C952 C957 1.425 . S
C952 C959 1.409 . S
C953 H945 0.930 . S
C953 C951 1.419 . S
C953 C954 1.362 . S
C954 H946 0.930 . S
C954 C953 1.362 . S
C954 C957 1.409 . S
C955 H947 0.930 . S
C955 C956 1.355 . S
C955 C957 1.415 . S
C956 C955 1.355 . S
C956 C958 1.419 . S
C957 C952 1.425 . S
C957 C954 1.409 . S
C957 C955 1.415 . S
C958 H948 0.930 . S
C958 C956 1.419 . S
C958 C959 1.362 . S
C959 H949 0.930 . S
C959 C952 1.409 . S
C959 C958 1.362 . S
H960 C966 0.930 . S
H961 C969 0.930 . S
H962 C970 0.930 . S
H963 C971 0.930 . S
H964 C974 0.930 . S
H965 C975 0.930 . S
C966 H960 0.930 . S
C966 C967 1.355 . S
C966 C968 1.415 . S
C967 C966 1.355 . S
C967 C969 1.419 . S
C968 C966 1.415 . S
C968 C973 1.425 . S
C968 C975 1.409 . S
C969 H961 0.930 . S
C969 C967 1.419 . S
C969 C970 1.362 . S
C970 H962 0.930 . S
C970 C969 1.362 . S
C970 C973 1.409 . S
C971 H963 0.930 . S
C971 C972 1.355 . S
C971 C973 1.415 . S
C972 C971 1.355 . S
C972 C974 1.419 . S
C973 C968 1.425 . S
C973 C970 1.409 . S
C973 C971 1.415 . S
C974 H964 0.930 . S
C974 C972 1.419 . S
C974 C975 1.362 . S
C975 H965 0.930 . S
C975 C968 1.409 . S
C975 C974 1.362 . S
H976 C982 0.930 . S
H977 C985 0.930 . S
H978 C986 0.930 . S
H979 C987 0.930 . S
H980 C990 0.930 . S
H981 C991 0.930 . S
C982 H976 0.930 . S
C982 C983 1.355 1_545 S
C982 C984 1.415 . S
C983 C982 1.355 1_565 S
C983 C985 1.419 . S
C984 C982 1.415 . S
C984 C989 1.425 1_545 S
C984 C991 1.409 . S
C985 H977 0.930 . S
C985 C983 1.419 . S
C985 C986 1.362 . S
C986 H978 0.930 . S
C986 C985 1.362 . S
C986 C989 1.409 . S
C987 H979 0.930 . S
C987 C988 1.352 1_565 S
C987 C989 1.415 . S
C988 C987 1.352 1_545 S
C988 C990 1.423 . S
C989 C984 1.425 1_565 S
C989 C986 1.409 . S
C989 C987 1.415 . S
C990 H980 0.930 . S
C990 C988 1.423 . S
C990 C991 1.362 . S
C991 H981 0.930 . S
C991 C984 1.409 . S
C991 C990 1.362 . S
H992 C998 0.930 . S
H993 C1001 0.930 1_556 S
H994 C1002 0.930 1_556 S
H995 C1003 0.930 . S
H996 C1006 0.930 . S
H997 C1007 0.930 . S
C998 H992 0.930 . S
C998 C999 1.355 1_545 S
C998 C1000 1.415 . S
C999 C998 1.355 1_565 S
C999 C1001 1.419 . S
C1000 C998 1.415 . S
C1000 C1005 1.425 1_545 S
C1000 C1007 1.409 . S
C1001 H993 0.930 1_554 S
C1001 C999 1.419 . S
C1001 C1002 1.362 . S
C1002 H994 0.930 1_554 S
C1002 C1001 1.362 . S
C1002 C1005 1.409 . S
C1003 H995 0.930 . S
C1003 C1004 1.355 1_565 S
C1003 C1005 1.415 . S
C1004 C1003 1.355 1_545 S
C1004 C1006 1.419 . S
C1005 C1000 1.425 1_565 S
C1005 C1002 1.409 . S
C1005 C1003 1.415 . S
C1006 H996 0.930 . S
C1006 C1004 1.419 . S
C1006 C1007 1.362 . S
C1007 H997 0.930 . S
C1007 C1000 1.409 . S
C1007 C1006 1.362 . S
H1008 C1014 0.930 . S
H1009 C1017 0.930 1_556 S
H1010 C1018 0.930 1_556 S
H1011 C1019 0.930 . S
H1012 C1022 0.930 . S
H1013 C1023 0.930 . S
C1014 H1008 0.930 . S
C1014 C1015 1.355 . S
C1014 C1016 1.415 . S
C1015 C1014 1.355 . S
C1015 C1017 1.419 . S
C1016 C1014 1.415 . S
C1016 C1021 1.425 . S
C1016 C1023 1.409 . S
C1017 H1009 0.930 1_554 S
C1017 C1015 1.419 . S
C1017 C1018 1.362 . S
C1018 H1010 0.930 1_554 S
C1018 C1017 1.362 . S
C1018 C1021 1.409 . S
C1019 H1011 0.930 . S
C1019 C1020 1.355 . S
C1019 C1021 1.415 . S
C1020 C1019 1.355 . S
C1020 C1022 1.419 . S
C1021 C1016 1.425 . S
C1021 C1018 1.409 . S
C1021 C1019 1.415 . S
C1022 H1012 0.930 . S
C1022 C1020 1.419 . S
C1022 C1023 1.362 . S
C1023 H1013 0.930 . S
C1023 C1016 1.409 . S
C1023 C1022 1.362 . S
H1024 C1030 0.930 . S
H1025 C1033 0.930 . S
H1026 C1034 0.930 . S
H1027 C1035 0.930 . S
H1028 C1038 0.930 . S
H1029 C1039 0.930 . S
C1030 H1024 0.930 . S
C1030 C1031 1.355 . S
C1030 C1032 1.415 . S
C1031 C1030 1.355 . S
C1031 C1033 1.419 . S
C1032 C1030 1.415 . S
C1032 C1037 1.425 . S
C1032 C1039 1.409 . S
C1033 H1025 0.930 . S
C1033 C1031 1.419 . S
C1033 C1034 1.362 . S
C1034 H1026 0.930 . S
C1034 C1033 1.362 . S
C1034 C1037 1.409 . S
C1035 H1027 0.930 . S
C1035 C1036 1.355 . S
C1035 C1037 1.415 . S
C1036 C1035 1.355 . S
C1036 C1038 1.419 . S
C1037 C1032 1.425 . S
C1037 C1034 1.409 . S
C1037 C1035 1.415 . S
C1038 H1028 0.930 . S
C1038 C1036 1.419 . S
C1038 C1039 1.362 . S
C1039 H1029 0.930 . S
C1039 C1032 1.409 . S
C1039 C1038 1.362 . S
H1040 C1046 0.930 . S
H1041 C1049 0.930 . S
H1042 C1050 0.930 . S
H1043 C1051 0.930 . S
H1044 C1054 0.930 1_554 S
H1045 C1055 0.930 . S
C1046 H1040 0.930 . S
C1046 C1047 1.355 . S
C1046 C1048 1.415 . S
C1047 C1046 1.355 . S
C1047 C1049 1.419 . S
C1048 C1046 1.415 . S
C1048 C1053 1.425 . S
C1048 C1055 1.409 . S
C1049 H1041 0.930 . S
C1049 C1047 1.419 . S
C1049 C1050 1.362 . S
C1050 H1042 0.930 . S
C1050 C1049 1.362 . S
C1050 C1053 1.409 . S
C1051 H1043 0.930 . S
C1051 C1052 1.355 . S
C1051 C1053 1.415 . S
C1052 C1051 1.355 . S
C1052 C1054 1.419 . S
C1053 C1048 1.425 . S
C1053 C1050 1.409 . S
C1053 C1051 1.415 . S
C1054 H1044 0.930 1_556 S
C1054 C1052 1.419 . S
C1054 C1055 1.362 . S
C1055 H1045 0.930 . S
C1055 C1048 1.409 . S
C1055 C1054 1.362 . S
H1056 C1062 0.930 . S
H1057 C1065 0.930 . S
H1058 C1066 0.930 . S
H1059 C1067 0.930 . S
H1060 C1070 0.930 . S
H1061 C1071 0.930 . S
C1062 H1056 0.930 . S
C1062 C1063 1.355 . S
C1062 C1064 1.415 . S
C1063 C1062 1.355 . S
C1063 C1065 1.419 . S
C1064 C1062 1.415 . S
C1064 C1069 1.425 . S
C1064 C1071 1.409 . S
C1065 H1057 0.930 . S
C1065 C1063 1.419 . S
C1065 C1066 1.362 . S
C1066 H1058 0.930 . S
C1066 C1065 1.362 . S
C1066 C1069 1.409 . S
C1067 H1059 0.930 . S
C1067 C1068 1.355 . S
C1067 C1069 1.415 . S
C1068 C1067 1.355 . S
C1068 C1070 1.419 . S
C1069 C1064 1.425 . S
C1069 C1066 1.409 . S
C1069 C1067 1.415 . S
C1070 H1060 0.930 . S
C1070 C1068 1.419 . S
C1070 C1071 1.362 . S
C1071 H1061 0.930 . S
C1071 C1064 1.409 . S
C1071 C1070 1.362 . S
H1072 C1078 0.930 . S
H1073 C1081 0.930 . S
H1074 C1082 0.930 . S
H1075 C1083 0.930 . S
H1076 C1086 0.930 . S
H1077 C1087 0.930 . S
C1078 H1072 0.930 . S
C1078 C1079 1.355 . S
C1078 C1080 1.415 . S
C1079 C1078 1.355 . S
C1079 C1081 1.419 . S
C1080 C1078 1.415 . S
C1080 C1085 1.425 . S
C1080 C1087 1.409 . S
C1081 H1073 0.930 . S
C1081 C1079 1.419 . S
C1081 C1082 1.362 . S
C1082 H1074 0.930 . S
C1082 C1081 1.362 . S
C1082 C1085 1.409 . S
C1083 H1075 0.930 . S
C1083 C1084 1.355 . S
C1083 C1085 1.415 . S
C1084 C1083 1.355 . S
C1084 C1086 1.419 . S
C1085 C1080 1.425 . S
C1085 C1082 1.409 . S
C1085 C1083 1.415 . S
C1086 H1076 0.930 . S
C1086 C1084 1.419 . S
C1086 C1087 1.362 . S
C1087 H1077 0.930 . S
C1087 C1080 1.409 . S
C1087 C1086 1.362 . S
H1088 C1094 0.930 . S
H1089 C1097 0.930 . S
H1090 C1098 0.930 . S
H1091 C1099 0.930 . S
H1092 C1102 0.930 1_556 S
H1093 C1103 0.930 1_556 S
C1094 H1088 0.930 . S
C1094 C1095 1.355 . S
C1094 C1096 1.415 . S
C1095 C1094 1.355 . S
C1095 C1097 1.419 . S
C1096 C1094 1.415 . S
C1096 C1101 1.425 . S
C1096 C1103 1.409 . S
C1097 H1089 0.930 . S
C1097 C1095 1.419 . S
C1097 C1098 1.362 . S
C1098 H1090 0.930 . S
C1098 C1097 1.362 . S
C1098 C1101 1.409 . S
C1099 H1091 0.930 . S
C1099 C1100 1.355 . S
C1099 C1101 1.415 . S
C1100 C1099 1.355 . S
C1100 C1102 1.419 . S
C1101 C1096 1.425 . S
C1101 C1098 1.409 . S
C1101 C1099 1.415 . S
C1102 H1092 0.930 1_554 S
C1102 C1100 1.419 . S
C1102 C1103 1.362 . S
C1103 H1093 0.930 1_554 S
C1103 C1096 1.409 . S
C1103 C1102 1.362 . S
H1104 C1110 0.930 . S
H1105 C1113 0.930 . S
H1106 C1114 0.930 . S
H1107 C1115 0.930 . S
H1108 C1118 0.930 1_556 S
H1109 C1119 0.930 1_556 S
C1110 H1104 0.930 . S
C1110 C1111 1.355 . S
C1110 C1112 1.415 . S
C1111 C1110 1.355 . S
C1111 C1113 1.419 . S
C1112 C1110 1.415 . S
C1112 C1117 1.425 . S
C1112 C1119 1.409 . S
C1113 H1105 0.930 . S
C1113 C1111 1.419 . S
C1113 C1114 1.362 . S
C1114 H1106 0.930 . S
C1114 C1113 1.362 . S
C1114 C1117 1.409 . S
C1115 H1107 0.930 . S
C1115 C1116 1.355 . S
C1115 C1117 1.415 . S
C1116 C1115 1.355 . S
C1116 C1118 1.419 . S
C1117 C1112 1.425 . S
C1117 C1114 1.409 . S
C1117 C1115 1.415 . S
C1118 H1108 0.930 1_554 S
C1118 C1116 1.419 . S
C1118 C1119 1.362 . S
C1119 H1109 0.930 1_554 S
C1119 C1112 1.409 . S
C1119 C1118 1.362 . S
H1120 C1126 0.930 . S
H1121 C1129 0.930 . S
H1122 C1130 0.930 . S
H1123 C1131 0.930 . S
H1124 C1134 0.930 . S
H1125 C1135 0.930 . S
C1126 H1120 0.930 . S
C1126 C1127 1.355 . S
C1126 C1128 1.415 . S
C1127 C1126 1.355 . S
C1127 C1129 1.419 . S
C1128 C1126 1.415 . S
C1128 C1133 1.425 . S
C1128 C1135 1.409 . S
C1129 H1121 0.930 . S
C1129 C1127 1.419 . S
C1129 C1130 1.362 . S
C1130 H1122 0.930 . S
C1130 C1129 1.362 . S
C1130 C1133 1.409 . S
C1131 H1123 0.930 . S
C1131 C1132 1.355 . S
C1131 C1133 1.415 . S
C1132 C1131 1.355 . S
C1132 C1134 1.419 . S
C1133 C1128 1.425 . S
C1133 C1130 1.409 . S
C1133 C1131 1.415 . S
C1134 H1124 0.930 . S
C1134 C1132 1.419 . S
C1134 C1135 1.362 . S
C1135 H1125 0.930 . S
C1135 C1128 1.409 . S
C1135 C1134 1.362 . S
H1136 C1142 0.930 . S
H1137 C1145 0.930 . S
H1138 C1146 0.930 . S
H1139 C1147 0.930 . S
H1140 C1150 0.930 . S
H1141 C1151 0.930 . S
C1142 H1136 0.930 . S
C1142 C1143 1.355 . S
C1142 C1144 1.415 . S
C1143 C1142 1.355 . S
C1143 C1145 1.419 . S
C1144 C1142 1.415 . S
C1144 C1149 1.425 . S
C1144 C1151 1.409 . S
C1145 H1137 0.930 . S
C1145 C1143 1.419 . S
C1145 C1146 1.362 . S
C1146 H1138 0.930 . S
C1146 C1145 1.362 . S
C1146 C1149 1.409 . S
C1147 H1139 0.930 . S
C1147 C1148 1.355 . S
C1147 C1149 1.415 . S
C1148 C1147 1.355 . S
C1148 C1150 1.419 . S
C1149 C1144 1.425 . S
C1149 C1146 1.409 . S
C1149 C1147 1.415 . S
C1150 H1140 0.930 . S
C1150 C1148 1.419 . S
C1150 C1151 1.362 . S
C1151 H1141 0.930 . S
C1151 C1144 1.409 . S
C1151 C1150 1.362 . S
H1152 C1158 0.930 . S
H1153 C1161 0.930 . S
H1154 C1162 0.930 . S
H1155 C1163 0.930 . S
H1156 C1166 0.930 . S
H1157 C1167 0.930 . S
C1158 H1152 0.930 . S
C1158 C1159 1.355 . S
C1158 C1160 1.415 . S
C1159 C1158 1.355 . S
C1159 C1161 1.419 . S
C1160 C1158 1.415 . S
C1160 C1165 1.425 . S
C1160 C1167 1.409 . S
C1161 H1153 0.930 . S
C1161 C1159 1.419 . S
C1161 C1162 1.362 . S
C1162 H1154 0.930 . S
C1162 C1161 1.362 . S
C1162 C1165 1.409 . S
C1163 H1155 0.930 . S
C1163 C1164 1.355 . S
C1163 C1165 1.415 . S
C1164 C1163 1.355 . S
C1164 C1166 1.419 . S
C1165 C1160 1.425 . S
C1165 C1162 1.409 . S
C1165 C1163 1.415 . S
C1166 H1156 0.930 . S
C1166 C1164 1.419 . S
C1166 C1167 1.362 . S
C1167 H1157 0.930 . S
C1167 C1160 1.409 . S
C1167 C1166 1.362 . S
H1168 C1174 0.930 . S
H1169 C1177 0.930 . S
H1170 C1178 0.930 . S
H1171 C1179 0.930 . S
H1172 C1182 0.930 . S
H1173 C1183 0.930 . S
C1174 H1168 0.930 . S
C1174 C1175 1.355 . S
C1174 C1176 1.415 . S
C1175 C1174 1.355 . S
C1175 C1177 1.419 1_545 S
C1176 C1174 1.415 . S
C1176 C1181 1.425 1_545 S
C1176 C1183 1.409 . S
C1177 H1169 0.930 . S
C1177 C1175 1.419 1_565 S
C1177 C1178 1.362 . S
C1178 H1170 0.930 . S
C1178 C1177 1.362 . S
C1178 C1181 1.409 . S
C1179 H1171 0.930 . S
C1179 C1180 1.355 . S
C1179 C1181 1.415 . S
C1180 C1179 1.355 . S
C1180 C1182 1.419 1_565 S
C1181 C1176 1.425 1_565 S
C1181 C1178 1.409 . S
C1181 C1179 1.415 . S
C1182 H1172 0.930 . S
C1182 C1180 1.419 1_545 S
C1182 C1183 1.362 . S
C1183 H1173 0.930 . S
C1183 C1176 1.409 . S
C1183 C1182 1.362 . S
H1184 C1190 0.930 . S
H1185 C1193 0.930 . S
H1186 C1194 0.930 . S
H1187 C1195 0.930 . S
H1188 C1198 0.930 . S
H1189 C1199 0.930 . S
C1190 H1184 0.930 . S
C1190 C1191 1.355 . S
C1190 C1192 1.415 . S
C1191 C1190 1.355 . S
C1191 C1193 1.419 1_565 S
C1192 C1190 1.415 . S
C1192 C1197 1.425 1_565 S
C1192 C1199 1.409 . S
C1193 H1185 0.930 . S
C1193 C1191 1.419 1_545 S
C1193 C1194 1.362 . S
C1194 H1186 0.930 . S
C1194 C1193 1.362 . S
C1194 C1197 1.409 . S
C1195 H1187 0.930 . S
C1195 C1196 1.355 . S
C1195 C1197 1.415 . S
C1196 C1195 1.355 . S
C1196 C1198 1.419 1_545 S
C1197 C1192 1.425 1_545 S
C1197 C1194 1.409 . S
C1197 C1195 1.415 . S
C1198 H1188 0.930 . S
C1198 C1196 1.419 1_565 S
C1198 C1199 1.362 . S
C1199 H1189 0.930 . S
C1199 C1192 1.409 . S
C1199 C1198 1.362 . S
H1200 C1206 0.930 . S
H1201 C1209 0.930 . S
H1202 C1210 0.930 . S
H1203 C1211 0.930 . S
H1204 C1214 0.930 . S
H1205 C1215 0.930 . S
C1206 H1200 0.930 . S
C1206 C1207 1.355 . S
C1206 C1208 1.415 . S
C1207 C1206 1.355 . S
C1207 C1209 1.419 . S
C1208 C1206 1.415 . S
C1208 C1213 1.425 . S
C1208 C1215 1.409 . S
C1209 H1201 0.930 . S
C1209 C1207 1.419 . S
C1209 C1210 1.362 . S
C1210 H1202 0.930 . S
C1210 C1209 1.362 . S
C1210 C1213 1.409 . S
C1211 H1203 0.930 . S
C1211 C1212 1.355 . S
C1211 C1213 1.415 . S
C1212 C1211 1.355 . S
C1212 C1214 1.419 . S
C1213 C1208 1.425 . S
C1213 C1210 1.409 . S
C1213 C1211 1.415 . S
C1214 H1204 0.930 . S
C1214 C1212 1.419 . S
C1214 C1215 1.362 . S
C1215 H1205 0.930 . S
C1215 C1208 1.409 . S
C1215 C1214 1.362 . S
H1216 C1222 0.930 . S
H1217 C1225 0.930 . S
H1218 C1226 0.930 . S
H1219 C1227 0.930 . S
H1220 C1230 0.930 . S
H1221 C1231 0.930 . S
C1222 H1216 0.930 . S
C1222 C1223 1.355 . S
C1222 C1224 1.415 . S
C1223 C1222 1.355 . S
C1223 C1225 1.419 . S
C1224 C1222 1.415 . S
C1224 C1229 1.425 . S
C1224 C1231 1.409 . S
C1225 H1217 0.930 . S
C1225 C1223 1.419 . S
C1225 C1226 1.362 . S
C1226 H1218 0.930 . S
C1226 C1225 1.362 . S
C1226 C1229 1.409 . S
C1227 H1219 0.930 . S
C1227 C1228 1.355 . S
C1227 C1229 1.415 . S
C1228 C1227 1.355 . S
C1228 C1230 1.419 . S
C1229 C1224 1.425 . S
C1229 C1226 1.409 . S
C1229 C1227 1.415 . S
C1230 H1220 0.930 . S
C1230 C1228 1.419 . S
C1230 C1231 1.362 . S
C1231 H1221 0.930 . S
C1231 C1224 1.409 . S
C1231 C1230 1.362 . S
H1232 C1238 0.930 . S
H1233 C1241 0.930 . S
H1234 C1242 0.930 . S
H1235 C1243 0.930 . S
H1236 C1246 0.930 . S
H1237 C1247 0.930 . S
C1238 H1232 0.930 . S
C1238 C1239 1.355 1_565 S
C1238 C1240 1.415 . S
C1239 C1238 1.355 1_545 S
C1239 C1241 1.419 . S
C1240 C1238 1.415 . S
C1240 C1245 1.425 1_565 S
C1240 C1247 1.409 . S
C1241 H1233 0.930 . S
C1241 C1239 1.419 . S
C1241 C1242 1.362 . S
C1242 H1234 0.930 . S
C1242 C1241 1.362 . S
C1242 C1245 1.409 . S
C1243 H1235 0.930 . S
C1243 C1244 1.355 1_545 S
C1243 C1245 1.415 . S
C1244 C1243 1.355 1_565 S
C1244 C1246 1.419 . S
C1245 C1240 1.425 1_545 S
C1245 C1242 1.409 . S
C1245 C1243 1.415 . S
C1246 H1236 0.930 . S
C1246 C1244 1.419 . S
C1246 C1247 1.362 . S
C1247 H1237 0.930 . S
C1247 C1240 1.409 . S
C1247 C1246 1.362 . S
H1248 C1254 0.930 . S
H1249 C1257 0.930 . S
H1250 C1258 0.930 . S
H1251 C1259 0.930 . S
H1252 C1262 0.930 . S
H1253 C1263 0.930 . S
C1254 H1248 0.930 . S
C1254 C1255 1.355 . S
C1254 C1256 1.415 . S
C1255 C1254 1.355 . S
C1255 C1257 1.419 1_545 S
C1256 C1254 1.415 . S
C1256 C1261 1.425 1_545 S
C1256 C1263 1.409 . S
C1257 H1249 0.930 . S
C1257 C1255 1.419 1_565 S
C1257 C1258 1.362 . S
C1258 H1250 0.930 . S
C1258 C1257 1.362 . S
C1258 C1261 1.409 . S
C1259 H1251 0.930 . S
C1259 C1260 1.355 . S
C1259 C1261 1.415 . S
C1260 C1259 1.355 . S
C1260 C1262 1.419 1_565 S
C1261 C1256 1.425 1_565 S
C1261 C1258 1.409 . S
C1261 C1259 1.415 . S
C1262 H1252 0.930 . S
C1262 C1260 1.419 1_545 S
C1262 C1263 1.362 . S
C1263 H1253 0.930 . S
C1263 C1256 1.409 . S
C1263 C1262 1.362 . S
H1264 C1270 0.930 . S
H1265 C1273 0.930 . S
H1266 C1274 0.930 . S
H1267 C1275 0.930 . S
H1268 C1278 0.930 . S
H1269 C1279 0.930 . S
C1270 H1264 0.930 . S
C1270 C1271 1.355 . S
C1270 C1272 1.415 . S
C1271 C1270 1.355 . S
C1271 C1273 1.419 . S
C1272 C1270 1.415 . S
C1272 C1277 1.425 . S
C1272 C1279 1.409 . S
C1273 H1265 0.930 . S
C1273 C1271 1.419 . S
C1273 C1274 1.362 . S
C1274 H1266 0.930 . S
C1274 C1273 1.362 . S
C1274 C1277 1.409 . S
C1275 H1267 0.930 . S
C1275 C1276 1.355 . S
C1275 C1277 1.415 . S
C1276 C1275 1.355 . S
C1276 C1278 1.419 . S
C1277 C1272 1.425 . S
C1277 C1274 1.409 . S
C1277 C1275 1.415 . S
C1278 H1268 0.930 . S
C1278 C1276 1.419 . S
C1278 C1279 1.362 . S
C1279 H1269 0.930 . S
C1279 C1272 1.409 . S
C1279 C1278 1.362 . S
H1280 C1286 0.930 . S
H1281 C1289 0.930 . S
H1282 C1290 0.930 . S
H1283 C1291 0.930 . S
H1284 C1294 0.930 . S
H1285 C1295 0.930 . S
C1286 H1280 0.930 . S
C1286 C1287 1.355 . S
C1286 C1288 1.415 . S
C1287 C1286 1.355 . S
C1287 C1289 1.419 . S
C1288 C1286 1.415 . S
C1288 C1293 1.425 . S
C1288 C1295 1.409 . S
C1289 H1281 0.930 . S
C1289 C1287 1.419 . S
C1289 C1290 1.362 . S
C1290 H1282 0.930 . S
C1290 C1289 1.362 . S
C1290 C1293 1.409 . S
C1291 H1283 0.930 . S
C1291 C1292 1.355 . S
C1291 C1293 1.415 . S
C1292 C1291 1.355 . S
C1292 C1294 1.419 . S
C1293 C1288 1.425 . S
C1293 C1290 1.409 . S
C1293 C1291 1.415 . S
C1294 H1284 0.930 . S
C1294 C1292 1.419 . S
C1294 C1295 1.362 . S
C1295 H1285 0.930 . S
C1295 C1288 1.409 . S
C1295 C1294 1.362 . S
H1296 C1302 0.930 . S
H1297 C1305 0.930 . S
H1298 C1306 0.930 . S
H1299 C1307 0.930 . S
H1300 C1310 0.930 . S
H1301 C1311 0.930 . S
C1302 H1296 0.930 . S
C1302 C1303 1.355 . S
C1302 C1304 1.415 . S
C1303 C1302 1.355 . S
C1303 C1305 1.419 . S
C1304 C1302 1.415 . S
C1304 C1309 1.425 . S
C1304 C1311 1.409 . S
C1305 H1297 0.930 . S
C1305 C1303 1.419 . S
C1305 C1306 1.362 . S
C1306 H1298 0.930 . S
C1306 C1305 1.362 . S
C1306 C1309 1.409 . S
C1307 H1299 0.930 . S
C1307 C1308 1.355 . S
C1307 C1309 1.415 . S
C1308 C1307 1.355 . S
C1308 C1310 1.419 . S
C1309 C1304 1.425 . S
C1309 C1306 1.409 . S
C1309 C1307 1.415 . S
C1310 H1300 0.930 . S
C1310 C1308 1.419 . S
C1310 C1311 1.362 . S
C1311 H1301 0.930 . S
C1311 C1304 1.409 . S
C1311 C1310 1.362 . S
H1312 C1318 0.930 . S
H1313 C1321 0.930 . S
H1314 C1322 0.930 1_554 S
H1315 C1323 0.930 . S
H1316 C1326 0.930 . S
H1317 C1327 0.930 . S
C1318 H1312 0.930 . S
C1318 C1319 1.355 . S
C1318 C1320 1.415 1_556 S
C1319 C1318 1.355 . S
C1319 C1321 1.419 . S
C1320 C1318 1.415 1_554 S
C1320 C1325 1.425 . S
C1320 C1327 1.409 . S
C1321 H1313 0.930 . S
C1321 C1319 1.419 . S
C1321 C1322 1.362 . S
C1322 H1314 0.930 1_556 S
C1322 C1321 1.362 . S
C1322 C1325 1.409 1_556 S
C1323 H1315 0.930 . S
C1323 C1324 1.355 . S
C1323 C1325 1.415 . S
C1324 C1323 1.355 . S
C1324 C1326 1.419 . S
C1325 C1320 1.425 . S
C1325 C1322 1.409 1_554 S
C1325 C1323 1.415 . S
C1326 H1316 0.930 . S
C1326 C1324 1.419 . S
C1326 C1327 1.362 . S
C1327 H1317 0.930 . S
C1327 C1320 1.409 . S
C1327 C1326 1.362 . S
H1328 C1334 0.930 . S
H1329 C1337 0.930 . S
H1330 C1338 0.930 1_554 S
H1331 C1339 0.930 . S
H1332 C1342 0.930 . S
H1333 C1343 0.930 . S
C1334 H1328 0.930 . S
C1334 C1335 1.355 . S
C1334 C1336 1.415 1_556 S
C1335 C1334 1.355 . S
C1335 C1337 1.419 . S
C1336 C1334 1.415 1_554 S
C1336 C1341 1.425 . S
C1336 C1343 1.409 . S
C1337 H1329 0.930 . S
C1337 C1335 1.419 . S
C1337 C1338 1.362 . S
C1338 H1330 0.930 1_556 S
C1338 C1337 1.362 . S
C1338 C1341 1.409 1_556 S
C1339 H1331 0.930 . S
C1339 C1340 1.355 . S
C1339 C1341 1.415 . S
C1340 C1339 1.355 . S
C1340 C1342 1.419 . S
C1341 C1336 1.425 . S
C1341 C1338 1.409 1_554 S
C1341 C1339 1.415 . S
C1342 H1332 0.930 . S
C1342 C1340 1.419 . S
C1342 C1343 1.362 . S
C1343 H1333 0.930 . S
C1343 C1336 1.409 . S
C1343 C1342 1.362 . S
H1344 C1350 0.930 . S
H1345 C1353 0.930 . S
H1346 C1354 0.930 . S
H1347 C1355 0.930 . S
H1348 C1358 0.930 . S
H1349 C1359 0.930 . S
C1350 H1344 0.930 . S
C1350 C1351 1.355 . S
C1350 C1352 1.415 . S
C1351 C1350 1.355 . S
C1351 C1353 1.419 . S
C1352 C1350 1.415 . S
C1352 C1357 1.425 . S
C1352 C1359 1.409 . S
C1353 H1345 0.930 . S
C1353 C1351 1.419 . S
C1353 C1354 1.362 . S
C1354 H1346 0.930 . S
C1354 C1353 1.362 . S
C1354 C1357 1.409 . S
C1355 H1347 0.930 . S
C1355 C1356 1.355 . S
C1355 C1357 1.415 . S
C1356 C1355 1.355 . S
C1356 C1358 1.419 . S
C1357 C1352 1.425 . S
C1357 C1354 1.409 . S
C1357 C1355 1.415 . S
C1358 H1348 0.930 . S
C1358 C1356 1.419 . S
C1358 C1359 1.362 . S
C1359 H1349 0.930 . S
C1359 C1352 1.409 . S
C1359 C1358 1.362 . S
H1360 C1366 0.930 . S
H1361 C1369 0.930 . S
H1362 C1370 0.930 . S
H1363 C1371 0.930 . S
H1364 C1374 0.930 . S
H1365 C1375 0.930 . S
C1366 H1360 0.930 . S
C1366 C1367 1.355 . S
C1366 C1368 1.415 . S
C1367 C1366 1.355 . S
C1367 C1369 1.419 . S
C1368 C1366 1.415 . S
C1368 C1373 1.425 . S
C1368 C1375 1.409 . S
C1369 H1361 0.930 . S
C1369 C1367 1.419 . S
C1369 C1370 1.362 . S
C1370 H1362 0.930 . S
C1370 C1369 1.362 . S
C1370 C1373 1.409 . S
C1371 H1363 0.930 . S
C1371 C1372 1.355 . S
C1371 C1373 1.415 . S
C1372 C1371 1.355 . S
C1372 C1374 1.419 . S
C1373 C1368 1.425 . S
C1373 C1370 1.409 . S
C1373 C1371 1.415 . S
C1374 H1364 0.930 . S
C1374 C1372 1.419 . S
C1374 C1375 1.362 . S
C1375 H1365 0.930 . S
C1375 C1368 1.409 . S
C1375 C1374 1.362 . S
H1376 C1382 0.930 . S
H1377 C1385 0.930 . S
H1378 C1386 0.930 1_556 S
H1379 C1387 0.930 . S
H1380 C1390 0.930 . S
H1381 C1391 0.930 . S
C1382 H1376 0.930 . S
C1382 C1383 1.355 . S
C1382 C1384 1.415 1_554 S
C1383 C1382 1.355 . S
C1383 C1385 1.419 . S
C1384 C1382 1.415 1_556 S
C1384 C1389 1.425 . S
C1384 C1391 1.409 . S
C1385 H1377 0.930 . S
C1385 C1383 1.419 . S
C1385 C1386 1.362 . S
C1386 H1378 0.930 1_554 S
C1386 C1385 1.362 . S
C1386 C1389 1.409 1_554 S
C1387 H1379 0.930 . S
C1387 C1388 1.355 . S
C1387 C1389 1.415 . S
C1388 C1387 1.355 . S
C1388 C1390 1.419 . S
C1389 C1384 1.425 . S
C1389 C1386 1.409 1_556 S
C1389 C1387 1.415 . S
C1390 H1380 0.930 . S
C1390 C1388 1.419 . S
C1390 C1391 1.362 . S
C1391 H1381 0.930 . S
C1391 C1384 1.409 . S
C1391 C1390 1.362 . S
H1392 C1398 0.930 . S
H1393 C1401 0.930 . S
H1394 C1402 0.930 . S
H1395 C1403 0.930 . S
H1396 C1406 0.930 . S
H1397 C1407 0.930 1_556 S
C1398 H1392 0.930 . S
C1398 C1399 1.355 . S
C1398 C1400 1.415 . S
C1399 C1398 1.355 . S
C1399 C1401 1.419 . S
C1400 C1398 1.415 . S
C1400 C1405 1.425 . S
C1400 C1407 1.409 1_556 S
C1401 H1393 0.930 . S
C1401 C1399 1.419 . S
C1401 C1402 1.362 . S
C1402 H1394 0.930 . S
C1402 C1401 1.362 . S
C1402 C1405 1.409 . S
C1403 H1395 0.930 . S
C1403 C1404 1.355 . S
C1403 C1405 1.415 1_554 S
C1404 C1403 1.355 . S
C1404 C1406 1.419 . S
C1405 C1400 1.425 . S
C1405 C1402 1.409 . S
C1405 C1403 1.415 1_556 S
C1406 H1396 0.930 . S
C1406 C1404 1.419 . S
C1406 C1407 1.362 . S
C1407 H1397 0.930 1_554 S
C1407 C1400 1.409 1_554 S
C1407 C1406 1.362 . S
H1408 C1414 0.930 . S
H1409 C1417 0.930 . S
H1410 C1418 0.930 . S
H1411 C1419 0.930 . S
H1412 C1422 0.930 . S
H1413 C1423 0.930 . S
C1414 H1408 0.930 . S
C1414 C1415 1.355 . S
C1414 C1416 1.415 . S
C1415 C1414 1.355 . S
C1415 C1417 1.419 . S
C1416 C1414 1.415 . S
C1416 C1421 1.425 . S
C1416 C1423 1.409 . S
C1417 H1409 0.930 . S
C1417 C1415 1.419 . S
C1417 C1418 1.362 . S
C1418 H1410 0.930 . S
C1418 C1417 1.362 . S
C1418 C1421 1.409 . S
C1419 H1411 0.930 . S
C1419 C1420 1.355 . S
C1419 C1421 1.415 . S
C1420 C1419 1.355 . S
C1420 C1422 1.419 . S
C1421 C1416 1.425 . S
C1421 C1418 1.409 . S
C1421 C1419 1.415 . S
C1422 H1412 0.930 . S
C1422 C1420 1.419 . S
C1422 C1423 1.362 . S
C1423 H1413 0.930 . S
C1423 C1416 1.409 . S
C1423 C1422 1.362 . S
H1424 C1430 0.930 . S
H1425 C1433 0.930 . S
H1426 C1434 0.930 . S
H1427 C1435 0.930 . S
H1428 C1438 0.930 . S
H1429 C1439 0.930 . S
C1430 H1424 0.930 . S
C1430 C1431 1.355 . S
C1430 C1432 1.415 . S
C1431 C1430 1.355 . S
C1431 C1433 1.419 1_565 S
C1432 C1430 1.415 . S
C1432 C1437 1.425 1_565 S
C1432 C1439 1.409 . S
C1433 H1425 0.930 . S
C1433 C1431 1.419 1_545 S
C1433 C1434 1.362 . S
C1434 H1426 0.930 . S
C1434 C1433 1.362 . S
C1434 C1437 1.409 . S
C1435 H1427 0.930 . S
C1435 C1436 1.355 . S
C1435 C1437 1.415 . S
C1436 C1435 1.355 . S
C1436 C1438 1.419 1_545 S
C1437 C1432 1.425 1_545 S
C1437 C1434 1.409 . S
C1437 C1435 1.415 . S
C1438 H1428 0.930 . S
C1438 C1436 1.419 1_565 S
C1438 C1439 1.362 . S
C1439 H1429 0.930 . S
C1439 C1432 1.409 . S
C1439 C1438 1.362 . S
H1440 C1446 0.930 . S
H1441 C1449 0.930 . S
H1442 C1450 0.930 . S
H1443 C1451 0.930 . S
H1444 C1454 0.930 . S
H1445 C1455 0.930 . S
C1446 H1440 0.930 . S
C1446 C1447 1.355 . S
C1446 C1448 1.415 1_556 S
C1447 C1446 1.355 . S
C1447 C1449 1.419 1_565 S
C1448 C1446 1.415 1_554 S
C1448 C1453 1.425 1_565 S
C1448 C1455 1.409 . S
C1449 H1441 0.930 . S
C1449 C1447 1.419 1_545 S
C1449 C1450 1.362 . S
C1450 H1442 0.930 . S
C1450 C1449 1.362 . S
C1450 C1453 1.409 1_556 S
C1451 H1443 0.930 . S
C1451 C1452 1.355 . S
C1451 C1453 1.415 . S
C1452 C1451 1.355 . S
C1452 C1454 1.419 1_545 S
C1453 C1448 1.425 1_545 S
C1453 C1450 1.409 1_554 S
C1453 C1451 1.415 . S
C1454 H1444 0.930 . S
C1454 C1452 1.419 1_565 S
C1454 C1455 1.362 . S
C1455 H1445 0.930 . S
C1455 C1448 1.409 . S
C1455 C1454 1.362 . S
H1456 C1462 0.930 . S
H1457 C1465 0.930 . S
H1458 C1466 0.927 1_554 S
H1459 C1467 0.930 . S
H1460 C1470 0.930 . S
H1461 C1471 0.930 . S
C1462 H1456 0.930 . S
C1462 C1463 1.355 . S
C1462 C1464 1.415 1_556 S
C1463 C1462 1.355 . S
C1463 C1465 1.419 . S
C1464 C1462 1.415 1_554 S
C1464 C1469 1.425 . S
C1464 C1471 1.409 . S
C1465 H1457 0.930 . S
C1465 C1463 1.419 . S
C1465 C1466 1.362 . S
C1466 H1458 0.927 1_556 S
C1466 C1465 1.362 . S
C1466 C1469 1.409 1_556 S
C1467 H1459 0.930 . S
C1467 C1468 1.355 . S
C1467 C1469 1.415 . S
C1468 C1467 1.355 . S
C1468 C1470 1.419 . S
C1469 C1464 1.425 . S
C1469 C1466 1.409 1_554 S
C1469 C1467 1.415 . S
C1470 H1460 0.930 . S
C1470 C1468 1.419 . S
C1470 C1471 1.362 . S
C1471 H1461 0.930 . S
C1471 C1464 1.409 . S
C1471 C1470 1.362 . S
H1472 C1478 0.930 . S
H1473 C1481 0.930 . S
H1474 C1482 0.930 . S
H1475 C1483 0.930 . S
H1476 C1486 0.930 . S
H1477 C1487 0.930 . S
C1478 H1472 0.930 . S
C1478 C1479 1.355 . S
C1478 C1480 1.415 . S
C1479 C1478 1.355 . S
C1479 C1481 1.419 . S
C1480 C1478 1.415 . S
C1480 C1485 1.425 . S
C1480 C1487 1.409 . S
C1481 H1473 0.930 . S
C1481 C1479 1.419 . S
C1481 C1482 1.362 . S
C1482 H1474 0.930 . S
C1482 C1481 1.362 . S
C1482 C1485 1.409 . S
C1483 H1475 0.930 . S
C1483 C1484 1.355 . S
C1483 C1485 1.415 . S
C1484 C1483 1.355 . S
C1484 C1486 1.419 . S
C1485 C1480 1.425 . S
C1485 C1482 1.409 . S
C1485 C1483 1.415 . S
C1486 H1476 0.930 . S
C1486 C1484 1.419 . S
C1486 C1487 1.362 . S
C1487 H1477 0.930 . S
C1487 C1480 1.409 . S
C1487 C1486 1.362 . S
H1488 C1494 0.930 . S
H1489 C1497 0.930 . S
H1490 C1498 0.930 . S
H1491 C1499 0.930 . S
H1492 C1502 0.930 . S
H1493 C1503 0.930 . S
C1494 H1488 0.930 . S
C1494 C1495 1.355 1_565 S
C1494 C1496 1.415 . S
C1495 C1494 1.355 1_545 S
C1495 C1497 1.419 . S
C1496 C1494 1.415 . S
C1496 C1501 1.425 1_565 S
C1496 C1503 1.409 . S
C1497 H1489 0.930 . S
C1497 C1495 1.419 . S
C1497 C1498 1.362 . S
C1498 H1490 0.930 . S
C1498 C1497 1.362 . S
C1498 C1501 1.409 . S
C1499 H1491 0.930 . S
C1499 C1500 1.355 1_545 S
C1499 C1501 1.415 . S
C1500 C1499 1.355 1_565 S
C1500 C1502 1.419 . S
C1501 C1496 1.425 1_545 S
C1501 C1498 1.409 . S
C1501 C1499 1.415 . S
C1502 H1492 0.930 . S
C1502 C1500 1.419 . S
C1502 C1503 1.362 . S
C1503 H1493 0.930 . S
C1503 C1496 1.409 . S
C1503 C1502 1.362 . S
H1504 C1510 0.941 . S
H1505 C1513 0.930 . S
H1506 C1514 0.930 . S
H1507 C1515 0.938 . S
H1508 C1518 0.930 . S
H1509 C1519 0.930 1_556 S
C1510 H1504 0.941 . S
C1510 C1511 1.341 1_545 S
C1510 C1512 1.419 . S
C1511 C1510 1.341 1_565 S
C1511 C1513 1.419 . S
C1512 C1510 1.419 . S
C1512 C1517 1.425 1_545 S
C1512 C1519 1.409 1_556 S
C1513 H1505 0.930 . S
C1513 C1511 1.419 . S
C1513 C1514 1.362 . S
C1514 H1506 0.930 . S
C1514 C1513 1.362 . S
C1514 C1517 1.409 . S
C1515 H1507 0.938 . S
C1515 C1516 1.344 1_565 S
C1515 C1517 1.418 1_554 S
C1516 C1515 1.344 1_545 S
C1516 C1518 1.419 . S
C1517 C1512 1.425 1_565 S
C1517 C1514 1.409 . S
C1517 C1515 1.418 1_556 S
C1518 H1508 0.930 . S
C1518 C1516 1.419 . S
C1518 C1519 1.362 . S
C1519 H1509 0.930 1_554 S
C1519 C1512 1.409 1_554 S
C1519 C1518 1.362 . S
H1520 C1526 0.930 . S
H1521 C1529 0.930 . S
H1522 C1530 0.930 . S
H1523 C1531 0.930 . S
H1524 C1534 0.930 . S
H1525 C1535 0.930 . S
C1526 H1520 0.930 . S
C1526 C1527 1.355 . S
C1526 C1528 1.415 . S
C1527 C1526 1.355 . S
C1527 C1529 1.419 . S
C1528 C1526 1.415 . S
C1528 C1533 1.425 . S
C1528 C1535 1.409 . S
C1529 H1521 0.930 . S
C1529 C1527 1.419 . S
C1529 C1530 1.362 . S
C1530 H1522 0.930 . S
C1530 C1529 1.362 . S
C1530 C1533 1.409 . S
C1531 H1523 0.930 . S
C1531 C1532 1.355 . S
C1531 C1533 1.415 1_554 S
C1532 C1531 1.355 . S
C1532 C1534 1.419 . S
C1533 C1528 1.425 . S
C1533 C1530 1.409 . S
C1533 C1531 1.415 1_556 S
C1534 H1524 0.930 . S
C1534 C1532 1.419 . S
C1534 C1535 1.362 1_554 S
C1535 H1525 0.930 . S
C1535 C1528 1.409 . S
C1535 C1534 1.362 1_556 S
H1536 C1542 0.930 . S
H1537 C1545 0.930 . S
H1538 C1546 0.930 . S
H1539 C1547 0.930 . S
H1540 C1550 0.930 . S
H1541 C1551 0.930 . S
C1542 H1536 0.930 . S
C1542 C1543 1.355 . S
C1542 C1544 1.415 . S
C1543 C1542 1.355 . S
C1543 C1545 1.419 . S
C1544 C1542 1.415 . S
C1544 C1549 1.425 . S
C1544 C1551 1.409 . S
C1545 H1537 0.930 . S
C1545 C1543 1.419 . S
C1545 C1546 1.362 . S
C1546 H1538 0.930 . S
C1546 C1545 1.362 . S
C1546 C1549 1.409 . S
C1547 H1539 0.930 . S
C1547 C1548 1.355 . S
C1547 C1549 1.415 . S
C1548 C1547 1.355 . S
C1548 C1550 1.419 . S
C1549 C1544 1.425 . S
C1549 C1546 1.409 . S
C1549 C1547 1.415 . S
C1550 H1540 0.930 . S
C1550 C1548 1.419 . S
C1550 C1551 1.362 . S
C1551 H1541 0.930 . S
C1551 C1544 1.409 . S
C1551 C1550 1.362 . S
H1552 C1558 0.930 . S
H1553 C1561 0.930 . S
H1554 C1562 0.930 . S
H1555 C1563 0.930 . S
H1556 C1566 0.930 . S
H1557 C1567 0.930 . S
C1558 H1552 0.930 . S
C1558 C1559 1.355 . S
C1558 C1560 1.415 . S
C1559 C1558 1.355 . S
C1559 C1561 1.419 . S
C1560 C1558 1.415 . S
C1560 C1565 1.425 . S
C1560 C1567 1.409 . S
C1561 H1553 0.930 . S
C1561 C1559 1.419 . S
C1561 C1562 1.362 . S
C1562 H1554 0.930 . S
C1562 C1561 1.362 . S
C1562 C1565 1.409 . S
C1563 H1555 0.930 . S
C1563 C1564 1.355 . S
C1563 C1565 1.415 . S
C1564 C1563 1.355 . S
C1564 C1566 1.419 . S
C1565 C1560 1.425 . S
C1565 C1562 1.409 . S
C1565 C1563 1.415 . S
C1566 H1556 0.930 . S
C1566 C1564 1.419 . S
C1566 C1567 1.362 . S
C1567 H1557 0.930 . S
C1567 C1560 1.409 . S
C1567 C1566 1.362 . S
H1568 C1574 0.930 . S
H1569 C1577 0.930 . S
H1570 C1578 0.930 . S
H1571 C1579 0.930 . S
H1572 C1582 0.930 . S
H1573 C1583 0.930 . S
C1574 H1568 0.930 . S
C1574 C1575 1.355 . S
C1574 C1576 1.415 . S
C1575 C1574 1.355 . S
C1575 C1577 1.419 . S
C1576 C1574 1.415 . S
C1576 C1581 1.425 . S
C1576 C1583 1.409 . S
C1577 H1569 0.930 . S
C1577 C1575 1.419 . S
C1577 C1578 1.362 . S
C1578 H1570 0.930 . S
C1578 C1577 1.362 . S
C1578 C1581 1.409 . S
C1579 H1571 0.930 . S
C1579 C1580 1.355 . S
C1579 C1581 1.415 . S
C1580 C1579 1.355 . S
C1580 C1582 1.419 . S
C1581 C1576 1.425 . S
C1581 C1578 1.409 . S
C1581 C1579 1.415 . S
C1582 H1572 0.930 . S
C1582 C1580 1.419 . S
C1582 C1583 1.362 . S
C1583 H1573 0.930 . S
C1583 C1576 1.409 . S
C1583 C1582 1.362 . S
H1584 C1590 0.930 . S
H1585 C1593 0.930 . S
H1586 C1594 0.930 . S
H1587 C1595 0.930 . S
H1588 C1598 0.930 . S
H1589 C1599 0.930 . S
C1590 H1584 0.930 . S
C1590 C1591 1.355 . S
C1590 C1592 1.415 . S
C1591 C1590 1.355 . S
C1591 C1593 1.419 . S
C1592 C1590 1.415 . S
C1592 C1597 1.425 . S
C1592 C1599 1.409 . S
C1593 H1585 0.930 . S
C1593 C1591 1.419 . S
C1593 C1594 1.362 . S
C1594 H1586 0.930 . S
C1594 C1593 1.362 . S
C1594 C1597 1.409 . S
C1595 H1587 0.930 . S
C1595 C1596 1.355 . S
C1595 C1597 1.415 . S
C1596 C1595 1.355 . S
C1596 C1598 1.419 . S
C1597 C1592 1.425 . S
C1597 C1594 1.409 . S
C1597 C1595 1.415 . S
C1598 H1588 0.930 . S
C1598 C1596 1.419 . S
C1598 C1599 1.362 . S
C1599 H1589 0.930 . S
C1599 C1592 1.409 . S
C1599 C1598 1.362 . S
H1600 C1606 0.930 . S
H1601 C1609 0.930 . S
H1602 C1610 0.930 . S
H1603 C1611 0.930 . S
H1604 C1614 0.930 . S
H1605 C1615 0.930 . S
C1606 H1600 0.930 . S
C1606 C1607 1.355 . S
C1606 C1608 1.415 . S
C1607 C1606 1.355 . S
C1607 C1609 1.419 . S
C1608 C1606 1.415 . S
C1608 C1613 1.425 . S
C1608 C1615 1.409 . S
C1609 H1601 0.930 . S
C1609 C1607 1.419 . S
C1609 C1610 1.362 . S
C1610 H1602 0.930 . S
C1610 C1609 1.362 . S
C1610 C1613 1.409 . S
C1611 H1603 0.930 . S
C1611 C1612 1.355 . S
C1611 C1613 1.415 . S
C1612 C1611 1.355 . S
C1612 C1614 1.419 . S
C1613 C1608 1.425 . S
C1613 C1610 1.409 . S
C1613 C1611 1.415 . S
C1614 H1604 0.930 . S
C1614 C1612 1.419 . S
C1614 C1615 1.362 . S
C1615 H1605 0.930 . S
C1615 C1608 1.409 . S
C1615 C1614 1.362 . S
H1616 C1622 0.930 . S
H1617 C1625 0.930 . S
H1618 C1626 0.930 . S
H1619 C1627 0.930 . S
H1620 C1630 0.930 . S
H1621 C1631 0.930 . S
C1622 H1616 0.930 . S
C1622 C1623 1.355 . S
C1622 C1624 1.415 . S
C1623 C1622 1.355 . S
C1623 C1625 1.419 . S
C1624 C1622 1.415 . S
C1624 C1629 1.425 . S
C1624 C1631 1.409 . S
C1625 H1617 0.930 . S
C1625 C1623 1.419 . S
C1625 C1626 1.362 . S
C1626 H1618 0.930 . S
C1626 C1625 1.362 . S
C1626 C1629 1.409 . S
C1627 H1619 0.930 . S
C1627 C1628 1.355 . S
C1627 C1629 1.415 . S
C1628 C1627 1.355 . S
C1628 C1630 1.419 . S
C1629 C1624 1.425 . S
C1629 C1626 1.409 . S
C1629 C1627 1.415 . S
C1630 H1620 0.930 . S
C1630 C1628 1.419 . S
C1630 C1631 1.362 . S
C1631 H1621 0.930 . S
C1631 C1624 1.409 . S
C1631 C1630 1.362 . S
H1632 C1638 0.930 . S
H1633 C1641 0.930 . S
H1634 C1642 0.930 . S
H1635 C1643 0.930 . S
H1636 C1646 0.930 . S
H1637 C1647 0.930 . S
C1638 H1632 0.930 . S
C1638 C1639 1.355 . S
C1638 C1640 1.415 . S
C1639 C1638 1.355 . S
C1639 C1641 1.419 . S
C1640 C1638 1.415 . S
C1640 C1645 1.425 . S
C1640 C1647 1.409 . S
C1641 H1633 0.930 . S
C1641 C1639 1.419 . S
C1641 C1642 1.362 . S
C1642 H1634 0.930 . S
C1642 C1641 1.362 . S
C1642 C1645 1.409 . S
C1643 H1635 0.930 . S
C1643 C1644 1.355 . S
C1643 C1645 1.415 . S
C1644 C1643 1.355 . S
C1644 C1646 1.419 . S
C1645 C1640 1.425 . S
C1645 C1642 1.409 . S
C1645 C1643 1.415 . S
C1646 H1636 0.930 . S
C1646 C1644 1.419 . S
C1646 C1647 1.362 . S
C1647 H1637 0.930 . S
C1647 C1640 1.409 . S
C1647 C1646 1.362 . S
H1648 C1654 0.930 . S
H1649 C1657 0.930 . S
H1650 C1658 0.930 . S
H1651 C1659 0.930 . S
H1652 C1662 0.930 . S
H1653 C1663 0.930 . S
C1654 H1648 0.930 . S
C1654 C1655 1.355 . S
C1654 C1656 1.415 . S
C1655 C1654 1.355 . S
C1655 C1657 1.419 . S
C1656 C1654 1.415 . S
C1656 C1661 1.425 . S
C1656 C1663 1.409 . S
C1657 H1649 0.930 . S
C1657 C1655 1.419 . S
C1657 C1658 1.362 . S
C1658 H1650 0.930 . S
C1658 C1657 1.362 . S
C1658 C1661 1.409 . S
C1659 H1651 0.930 . S
C1659 C1660 1.355 . S
C1659 C1661 1.415 . S
C1660 C1659 1.355 . S
C1660 C1662 1.419 . S
C1661 C1656 1.425 . S
C1661 C1658 1.409 . S
C1661 C1659 1.415 . S
C1662 H1652 0.930 . S
C1662 C1660 1.419 . S
C1662 C1663 1.362 . S
C1663 H1653 0.930 . S
C1663 C1656 1.409 . S
C1663 C1662 1.362 . S
H1664 C1670 0.930 . S
H1665 C1673 0.930 . S
H1666 C1674 0.930 . S
H1667 C1675 0.930 . S
H1668 C1678 0.930 . S
H1669 C1679 0.930 . S
C1670 H1664 0.930 . S
C1670 C1671 1.355 . S
C1670 C1672 1.415 . S
C1671 C1670 1.355 . S
C1671 C1673 1.419 . S
C1672 C1670 1.415 . S
C1672 C1677 1.425 . S
C1672 C1679 1.409 . S
C1673 H1665 0.930 . S
C1673 C1671 1.419 . S
C1673 C1674 1.362 . S
C1674 H1666 0.930 . S
C1674 C1673 1.362 . S
C1674 C1677 1.409 . S
C1675 H1667 0.930 . S
C1675 C1676 1.355 . S
C1675 C1677 1.415 . S
C1676 C1675 1.355 . S
C1676 C1678 1.419 . S
C1677 C1672 1.425 . S
C1677 C1674 1.409 . S
C1677 C1675 1.415 . S
C1678 H1668 0.930 . S
C1678 C1676 1.419 . S
C1678 C1679 1.362 . S
C1679 H1669 0.930 . S
C1679 C1672 1.409 . S
C1679 C1678 1.362 . S
H1680 C1686 0.930 . S
H1681 C1689 0.930 . S
H1682 C1690 0.930 . S
H1683 C1691 0.930 . S
H1684 C1694 0.930 . S
H1685 C1695 0.930 . S
C1686 H1680 0.930 . S
C1686 C1687 1.355 . S
C1686 C1688 1.415 . S
C1687 C1686 1.355 . S
C1687 C1689 1.419 . S
C1688 C1686 1.415 . S
C1688 C1693 1.425 . S
C1688 C1695 1.409 . S
C1689 H1681 0.930 . S
C1689 C1687 1.419 . S
C1689 C1690 1.362 . S
C1690 H1682 0.930 . S
C1690 C1689 1.362 . S
C1690 C1693 1.409 . S
C1691 H1683 0.930 . S
C1691 C1692 1.355 . S
C1691 C1693 1.415 . S
C1692 C1691 1.355 . S
C1692 C1694 1.419 . S
C1693 C1688 1.425 . S
C1693 C1690 1.409 . S
C1693 C1691 1.415 . S
C1694 H1684 0.930 . S
C1694 C1692 1.419 . S
C1694 C1695 1.362 . S
C1695 H1685 0.930 . S
C1695 C1688 1.409 . S
C1695 C1694 1.362 . S
H1696 C1702 0.930 1_554 S
H1697 C1705 0.930 . S
H1698 C1706 0.930 . S
H1699 C1707 0.930 . S
H1700 C1710 0.930 . S
H1701 C1711 0.930 . S
C1702 H1696 0.930 1_556 S
C1702 C1703 1.355 . S
C1702 C1704 1.415 . S
C1703 C1702 1.355 . S
C1703 C1705 1.419 . S
C1704 C1702 1.415 . S
C1704 C1709 1.425 . S
C1704 C1711 1.409 . S
C1705 H1697 0.930 . S
C1705 C1703 1.419 . S
C1705 C1706 1.362 . S
C1706 H1698 0.930 . S
C1706 C1705 1.362 . S
C1706 C1709 1.409 . S
C1707 H1699 0.930 . S
C1707 C1708 1.355 . S
C1707 C1709 1.415 . S
C1708 C1707 1.355 . S
C1708 C1710 1.419 . S
C1709 C1704 1.425 . S
C1709 C1706 1.409 . S
C1709 C1707 1.415 . S
C1710 H1700 0.930 . S
C1710 C1708 1.419 . S
C1710 C1711 1.362 . S
C1711 H1701 0.930 . S
C1711 C1704 1.409 . S
C1711 C1710 1.362 . S
H1712 C1718 0.930 . S
H1713 C1721 0.930 . S
H1714 C1722 0.930 . S
H1715 C1723 0.930 . S
H1716 C1726 0.930 . S
H1717 C1727 0.930 . S
C1718 H1712 0.930 . S
C1718 C1719 1.355 . S
C1718 C1720 1.415 . S
C1719 C1718 1.355 . S
C1719 C1721 1.419 . S
C1720 C1718 1.415 . S
C1720 C1725 1.425 . S
C1720 C1727 1.409 . S
C1721 H1713 0.930 . S
C1721 C1719 1.419 . S
C1721 C1722 1.362 . S
C1722 H1714 0.930 . S
C1722 C1721 1.362 . S
C1722 C1725 1.409 . S
C1723 H1715 0.930 . S
C1723 C1724 1.355 . S
C1723 C1725 1.415 . S
C1724 C1723 1.355 . S
C1724 C1726 1.419 . S
C1725 C1720 1.425 . S
C1725 C1722 1.409 . S
C1725 C1723 1.415 . S
C1726 H1716 0.930 . S
C1726 C1724 1.419 . S
C1726 C1727 1.362 . S
C1727 H1717 0.930 . S
C1727 C1720 1.409 . S
C1727 C1726 1.362 . S
H1728 C1734 0.930 . S
H1729 C1737 0.930 . S
H1730 C1738 0.930 . S
H1731 C1739 0.930 . S
H1732 C1742 0.930 . S
H1733 C1743 0.930 . S
C1734 H1728 0.930 . S
C1734 C1735 1.355 . S
C1734 C1736 1.415 . S
C1735 C1734 1.355 . S
C1735 C1737 1.419 . S
C1736 C1734 1.415 . S
C1736 C1741 1.425 . S
C1736 C1743 1.409 . S
C1737 H1729 0.930 . S
C1737 C1735 1.419 . S
C1737 C1738 1.362 . S
C1738 H1730 0.930 . S
C1738 C1737 1.362 . S
C1738 C1741 1.409 . S
C1739 H1731 0.930 . S
C1739 C1740 1.355 . S
C1739 C1741 1.415 . S
C1740 C1739 1.355 . S
C1740 C1742 1.419 . S
C1741 C1736 1.425 . S
C1741 C1738 1.409 . S
C1741 C1739 1.415 . S
C1742 H1732 0.930 . S
C1742 C1740 1.419 . S
C1742 C1743 1.362 . S
C1743 H1733 0.930 . S
C1743 C1736 1.409 . S
C1743 C1742 1.362 . S
H1744 C1750 0.930 . S
H1745 C1753 0.930 . S
H1746 C1754 0.930 . S
H1747 C1755 0.930 . S
H1748 C1758 0.930 . S
H1749 C1759 0.930 . S
C1750 H1744 0.930 . S
C1750 C1751 1.355 . S
C1750 C1752 1.415 . S
C1751 C1750 1.355 . S
C1751 C1753 1.419 . S
C1752 C1750 1.415 . S
C1752 C1757 1.425 . S
C1752 C1759 1.409 . S
C1753 H1745 0.930 . S
C1753 C1751 1.419 . S
C1753 C1754 1.362 . S
C1754 H1746 0.930 . S
C1754 C1753 1.362 . S
C1754 C1757 1.409 . S
C1755 H1747 0.930 . S
C1755 C1756 1.355 . S
C1755 C1757 1.415 . S
C1756 C1755 1.355 . S
C1756 C1758 1.419 . S
C1757 C1752 1.425 . S
C1757 C1754 1.409 . S
C1757 C1755 1.415 . S
C1758 H1748 0.930 . S
C1758 C1756 1.419 . S
C1758 C1759 1.362 . S
C1759 H1749 0.930 . S
C1759 C1752 1.409 . S
C1759 C1758 1.362 . S
H1760 C1766 0.930 . S
H1761 C1769 0.930 . S
H1762 C1770 0.930 . S
H1763 C1771 0.930 . S
H1764 C1774 0.930 . S
H1765 C1775 0.930 . S
C1766 H1760 0.930 . S
C1766 C1767 1.355 . S
C1766 C1768 1.415 . S
C1767 C1766 1.355 . S
C1767 C1769 1.419 . S
C1768 C1766 1.415 . S
C1768 C1773 1.425 . S
C1768 C1775 1.409 . S
C1769 H1761 0.930 . S
C1769 C1767 1.419 . S
C1769 C1770 1.362 . S
C1770 H1762 0.930 . S
C1770 C1769 1.362 . S
C1770 C1773 1.409 . S
C1771 H1763 0.930 . S
C1771 C1772 1.355 . S
C1771 C1773 1.415 . S
C1772 C1771 1.355 . S
C1772 C1774 1.419 . S
C1773 C1768 1.425 . S
C1773 C1770 1.409 . S
C1773 C1771 1.415 . S
C1774 H1764 0.930 . S
C1774 C1772 1.419 . S
C1774 C1775 1.362 . S
C1775 H1765 0.930 . S
C1775 C1768 1.409 . S
C1775 C1774 1.362 . S
H1776 C1782 0.924 1_556 S
H1777 C1785 0.930 . S
H1778 C1786 0.930 . S
H1779 C1787 0.930 . S
H1780 C1790 0.930 . S
H1781 C1791 0.930 . S
C1782 H1776 0.924 1_554 S
C1782 C1783 1.355 . S
C1782 C1784 1.415 . S
C1783 C1782 1.355 . S
C1783 C1785 1.419 . S
C1784 C1782 1.415 . S
C1784 C1789 1.425 . S
C1784 C1791 1.409 . S
C1785 H1777 0.930 . S
C1785 C1783 1.419 . S
C1785 C1786 1.362 . S
C1786 H1778 0.930 . S
C1786 C1785 1.362 . S
C1786 C1789 1.409 . S
C1787 H1779 0.930 . S
C1787 C1788 1.355 . S
C1787 C1789 1.415 . S
C1788 C1787 1.355 . S
C1788 C1790 1.419 . S
C1789 C1784 1.425 . S
C1789 C1786 1.409 . S
C1789 C1787 1.415 . S
C1790 H1780 0.930 . S
C1790 C1788 1.419 . S
C1790 C1791 1.362 . S
C1791 H1781 0.930 . S
C1791 C1784 1.409 . S
C1791 C1790 1.362 . S
H1792 C1798 0.930 . S
H1793 C1801 0.930 . S
H1794 C1802 0.930 . S
H1795 C1803 0.930 . S
H1796 C1806 0.930 . S
H1797 C1807 0.930 . S
C1798 H1792 0.930 . S
C1798 C1799 1.355 . S
C1798 C1800 1.415 . S
C1799 C1798 1.355 . S
C1799 C1801 1.419 . S
C1800 C1798 1.415 . S
C1800 C1805 1.425 . S
C1800 C1807 1.409 . S
C1801 H1793 0.930 . S
C1801 C1799 1.419 . S
C1801 C1802 1.362 . S
C1802 H1794 0.930 . S
C1802 C1801 1.362 . S
C1802 C1805 1.409 . S
C1803 H1795 0.930 . S
C1803 C1804 1.355 . S
C1803 C1805 1.415 . S
C1804 C1803 1.355 . S
C1804 C1806 1.419 . S
C1805 C1800 1.425 . S
C1805 C1802 1.409 . S
C1805 C1803 1.415 . S
C1806 H1796 0.930 . S
C1806 C1804 1.419 . S
C1806 C1807 1.362 . S
C1807 H1797 0.930 . S
C1807 C1800 1.409 . S
C1807 C1806 1.362 . S
H1808 C1814 0.930 . S
H1809 C1817 0.930 . S
H1810 C1818 0.930 . S
H1811 C1819 0.930 1_554 S
H1812 C1822 0.930 . S
H1813 C1823 0.930 . S
C1814 H1808 0.930 . S
C1814 C1815 1.355 . S
C1814 C1816 1.415 . S
C1815 C1814 1.355 . S
C1815 C1817 1.419 . S
C1816 C1814 1.415 . S
C1816 C1821 1.425 . S
C1816 C1823 1.409 . S
C1817 H1809 0.930 . S
C1817 C1815 1.419 . S
C1817 C1818 1.362 . S
C1818 H1810 0.930 . S
C1818 C1817 1.362 . S
C1818 C1821 1.409 . S
C1819 H1811 0.930 1_556 S
C1819 C1820 1.355 . S
C1819 C1821 1.415 . S
C1820 C1819 1.355 . S
C1820 C1822 1.419 . S
C1821 C1816 1.425 . S
C1821 C1818 1.409 . S
C1821 C1819 1.415 . S
C1822 H1812 0.930 . S
C1822 C1820 1.419 . S
C1822 C1823 1.362 . S
C1823 H1813 0.930 . S
C1823 C1816 1.409 . S
C1823 C1822 1.362 . S
H1824 C1830 0.930 . S
H1825 C1833 0.930 . S
H1826 C1834 0.930 . S
H1827 C1835 0.930 . S
H1828 C1838 0.930 . S
H1829 C1839 0.930 . S
C1830 H1824 0.930 . S
C1830 C1831 1.355 . S
C1830 C1832 1.415 . S
C1831 C1830 1.355 . S
C1831 C1833 1.419 . S
C1832 C1830 1.415 . S
C1832 C1837 1.425 . S
C1832 C1839 1.409 . S
C1833 H1825 0.930 . S
C1833 C1831 1.419 . S
C1833 C1834 1.362 . S
C1834 H1826 0.930 . S
C1834 C1833 1.362 . S
C1834 C1837 1.409 . S
C1835 H1827 0.930 . S
C1835 C1836 1.355 . S
C1835 C1837 1.415 . S
C1836 C1835 1.355 . S
C1836 C1838 1.419 . S
C1837 C1832 1.425 . S
C1837 C1834 1.409 . S
C1837 C1835 1.415 . S
C1838 H1828 0.930 . S
C1838 C1836 1.419 . S
C1838 C1839 1.362 . S
C1839 H1829 0.930 . S
C1839 C1832 1.409 . S
C1839 C1838 1.362 . S
H1840 C1846 0.930 . S
H1841 C1849 0.930 . S
H1842 C1850 0.930 . S
H1843 C1851 0.930 . S
H1844 C1854 0.930 . S
H1845 C1855 0.930 . S
C1846 H1840 0.930 . S
C1846 C1847 1.355 . S
C1846 C1848 1.415 . S
C1847 C1846 1.355 . S
C1847 C1849 1.419 . S
C1848 C1846 1.415 . S
C1848 C1853 1.425 . S
C1848 C1855 1.409 . S
C1849 H1841 0.930 . S
C1849 C1847 1.419 . S
C1849 C1850 1.362 . S
C1850 H1842 0.930 . S
C1850 C1849 1.362 . S
C1850 C1853 1.409 . S
C1851 H1843 0.930 . S
C1851 C1852 1.355 . S
C1851 C1853 1.415 . S
C1852 C1851 1.355 . S
C1852 C1854 1.419 . S
C1853 C1848 1.425 . S
C1853 C1850 1.409 . S
C1853 C1851 1.415 . S
C1854 H1844 0.930 . S
C1854 C1852 1.419 . S
C1854 C1855 1.362 . S
C1855 H1845 0.930 . S
C1855 C1848 1.409 . S
C1855 C1854 1.362 . S
H1856 C1862 0.930 . S
H1857 C1865 0.930 . S
H1858 C1866 0.930 . S
H1859 C1867 0.930 . S
H1860 C1870 0.930 . S
H1861 C1871 0.930 . S
C1862 H1856 0.930 . S
C1862 C1863 1.355 . S
C1862 C1864 1.415 . S
C1863 C1862 1.355 . S
C1863 C1865 1.419 . S
C1864 C1862 1.415 . S
C1864 C1869 1.425 . S
C1864 C1871 1.409 . S
C1865 H1857 0.930 . S
C1865 C1863 1.419 . S
C1865 C1866 1.362 . S
C1866 H1858 0.930 . S
C1866 C1865 1.362 . S
C1866 C1869 1.409 . S
C1867 H1859 0.930 . S
C1867 C1868 1.355 . S
C1867 C1869 1.415 . S
C1868 C1867 1.355 . S
C1868 C1870 1.419 . S
C1869 C1864 1.425 . S
C1869 C1866 1.409 . S
C1869 C1867 1.415 . S
C1870 H1860 0.930 . S
C1870 C1868 1.419 . S
C1870 C1871 1.362 . S
C1871 H1861 0.930 . S
C1871 C1864 1.409 . S
C1871 C1870 1.362 . S
H1872 C1878 0.930 . S
H1873 C1881 0.930 . S
H1874 C1882 0.930 . S
H1875 C1883 0.930 1_556 S
H1876 C1886 0.930 . S
H1877 C1887 0.930 . S
C1878 H1872 0.930 . S
C1878 C1879 1.355 . S
C1878 C1880 1.415 . S
C1879 C1878 1.355 . S
C1879 C1881 1.419 . S
C1880 C1878 1.415 . S
C1880 C1885 1.425 . S
C1880 C1887 1.409 . S
C1881 H1873 0.930 . S
C1881 C1879 1.419 . S
C1881 C1882 1.362 . S
C1882 H1874 0.930 . S
C1882 C1881 1.362 . S
C1882 C1885 1.409 . S
C1883 H1875 0.930 1_554 S
C1883 C1884 1.355 . S
C1883 C1885 1.415 . S
C1884 C1883 1.355 . S
C1884 C1886 1.419 . S
C1885 C1880 1.425 . S
C1885 C1882 1.409 . S
C1885 C1883 1.415 . S
C1886 H1876 0.930 . S
C1886 C1884 1.419 . S
C1886 C1887 1.362 . S
C1887 H1877 0.930 . S
C1887 C1880 1.409 . S
C1887 C1886 1.362 . S
H1888 C1894 0.930 . S
H1889 C1897 0.930 . S
H1890 C1898 0.930 . S
H1891 C1899 0.930 . S
H1892 C1902 0.930 . S
H1893 C1903 0.930 . S
C1894 H1888 0.930 . S
C1894 C1895 1.355 . S
C1894 C1896 1.415 . S
C1895 C1894 1.355 . S
C1895 C1897 1.419 . S
C1896 C1894 1.415 . S
C1896 C1901 1.425 . S
C1896 C1903 1.409 . S
C1897 H1889 0.930 . S
C1897 C1895 1.419 . S
C1897 C1898 1.362 . S
C1898 H1890 0.930 . S
C1898 C1897 1.362 . S
C1898 C1901 1.409 . S
C1899 H1891 0.930 . S
C1899 C1900 1.355 . S
C1899 C1901 1.415 . S
C1900 C1899 1.355 . S
C1900 C1902 1.419 . S
C1901 C1896 1.425 . S
C1901 C1898 1.409 . S
C1901 C1899 1.415 . S
C1902 H1892 0.930 . S
C1902 C1900 1.419 . S
C1902 C1903 1.362 . S
C1903 H1893 0.930 . S
C1903 C1896 1.409 . S
C1903 C1902 1.362 . S
H1904 C1910 0.930 . S
H1905 C1913 0.930 . S
H1906 C1914 0.930 . S
H1907 C1915 0.930 . S
H1908 C1918 0.930 . S
H1909 C1919 0.930 . S
C1910 H1904 0.930 . S
C1910 C1911 1.355 . S
C1910 C1912 1.415 . S
C1911 C1910 1.355 . S
C1911 C1913 1.419 . S
C1912 C1910 1.415 . S
C1912 C1917 1.425 . S
C1912 C1919 1.409 . S
C1913 H1905 0.930 . S
C1913 C1911 1.419 . S
C1913 C1914 1.362 . S
C1914 H1906 0.930 . S
C1914 C1913 1.362 . S
C1914 C1917 1.409 . S
C1915 H1907 0.930 . S
C1915 C1916 1.355 . S
C1915 C1917 1.415 . S
C1916 C1915 1.355 . S
C1916 C1918 1.419 . S
C1917 C1912 1.425 . S
C1917 C1914 1.409 . S
C1917 C1915 1.415 . S
C1918 H1908 0.930 . S
C1918 C1916 1.419 . S
C1918 C1919 1.362 . S
C1919 H1909 0.930 . S
C1919 C1912 1.409 . S
C1919 C1918 1.362 . S
H1920 C1926 0.930 . S
H1921 C1929 0.930 . S
H1922 C1930 0.930 . S
H1923 C1931 0.930 . S
H1924 C1934 0.930 1_556 S
H1925 C1935 0.930 . S
C1926 H1920 0.930 . S
C1926 C1927 1.355 . S
C1926 C1928 1.415 . S
C1927 C1926 1.355 . S
C1927 C1929 1.419 . S
C1928 C1926 1.415 . S
C1928 C1933 1.425 . S
C1928 C1935 1.409 . S
C1929 H1921 0.930 . S
C1929 C1927 1.419 . S
C1929 C1930 1.362 . S
C1930 H1922 0.930 . S
C1930 C1929 1.362 . S
C1930 C1933 1.409 . S
C1931 H1923 0.930 . S
C1931 C1932 1.355 . S
C1931 C1933 1.415 . S
C1932 C1931 1.355 . S
C1932 C1934 1.419 . S
C1933 C1928 1.425 . S
C1933 C1930 1.409 . S
C1933 C1931 1.415 . S
C1934 H1924 0.930 1_554 S
C1934 C1932 1.419 . S
C1934 C1935 1.362 . S
C1935 H1925 0.930 . S
C1935 C1928 1.409 . S
C1935 C1934 1.362 . S
H1936 C1942 0.930 . S
H1937 C1945 0.930 . S
H1938 C1946 0.930 . S
H1939 C1947 0.930 . S
H1940 C1950 0.930 . S
H1941 C1951 0.930 . S
C1942 H1936 0.930 . S
C1942 C1943 1.355 . S
C1942 C1944 1.415 . S
C1943 C1942 1.355 . S
C1943 C1945 1.419 . S
C1944 C1942 1.415 . S
C1944 C1949 1.425 . S
C1944 C1951 1.409 . S
C1945 H1937 0.930 . S
C1945 C1943 1.419 . S
C1945 C1946 1.362 . S
C1946 H1938 0.930 . S
C1946 C1945 1.362 . S
C1946 C1949 1.409 . S
C1947 H1939 0.930 . S
C1947 C1948 1.355 . S
C1947 C1949 1.415 . S
C1948 C1947 1.355 . S
C1948 C1950 1.419 . S
C1949 C1944 1.425 . S
C1949 C1946 1.409 . S
C1949 C1947 1.415 . S
C1950 H1940 0.930 . S
C1950 C1948 1.419 . S
C1950 C1951 1.362 . S
C1951 H1941 0.930 . S
C1951 C1944 1.409 . S
C1951 C1950 1.362 . S
H1952 C1958 0.930 . S
H1953 C1961 0.930 1_554 S
H1954 C1962 0.930 1_554 S
H1955 C1963 0.930 . S
H1956 C1966 0.930 . S
H1957 C1967 0.930 . S
C1958 H1952 0.930 . S
C1958 C1959 1.355 . S
C1958 C1960 1.415 . S
C1959 C1958 1.355 . S
C1959 C1961 1.419 . S
C1960 C1958 1.415 . S
C1960 C1965 1.425 . S
C1960 C1967 1.409 . S
C1961 H1953 0.930 1_556 S
C1961 C1959 1.419 . S
C1961 C1962 1.362 . S
C1962 H1954 0.930 1_556 S
C1962 C1961 1.362 . S
C1962 C1965 1.409 . S
C1963 H1955 0.930 . S
C1963 C1964 1.355 . S
C1963 C1965 1.415 . S
C1964 C1963 1.355 . S
C1964 C1966 1.419 . S
C1965 C1960 1.425 . S
C1965 C1962 1.409 . S
C1965 C1963 1.415 . S
C1966 H1956 0.930 . S
C1966 C1964 1.419 . S
C1966 C1967 1.362 . S
C1967 H1957 0.930 . S
C1967 C1960 1.409 . S
C1967 C1966 1.362 . S
H1968 C1974 0.930 . S
H1969 C1977 0.930 . S
H1970 C1978 0.930 . S
H1971 C1979 0.930 . S
H1972 C1982 0.919 1_554 S
H1973 C1983 0.930 1_554 S
C1974 H1968 0.930 . S
C1974 C1975 1.355 . S
C1974 C1976 1.415 . S
C1975 C1974 1.355 . S
C1975 C1977 1.419 . S
C1976 C1974 1.415 . S
C1976 C1981 1.425 . S
C1976 C1983 1.409 . S
C1977 H1969 0.930 . S
C1977 C1975 1.419 . S
C1977 C1978 1.362 . S
C1978 H1970 0.930 . S
C1978 C1977 1.362 . S
C1978 C1981 1.409 . S
C1979 H1971 0.930 . S
C1979 C1980 1.355 . S
C1979 C1981 1.415 . S
C1980 C1979 1.355 . S
C1980 C1982 1.428 . S
C1981 C1976 1.425 . S
C1981 C1978 1.409 . S
C1981 C1979 1.415 . S
C1982 H1972 0.919 1_556 S
C1982 C1980 1.428 . S
C1982 C1983 1.364 . S
C1983 H1973 0.930 1_556 S
C1983 C1976 1.409 . S
C1983 C1982 1.364 . S
H1984 C1990 0.930 . S
H1985 C1993 0.930 . S
H1986 C1994 0.930 . S
H1987 C1995 0.930 . S
H1988 C1998 0.930 . S
H1989 C1999 0.930 . S
C1990 H1984 0.930 . S
C1990 C1991 1.355 . S
C1990 C1992 1.415 . S
C1991 C1990 1.355 . S
C1991 C1993 1.419 . S
C1992 C1990 1.415 . S
C1992 C1997 1.425 . S
C1992 C1999 1.409 . S
C1993 H1985 0.930 . S
C1993 C1991 1.419 . S
C1993 C1994 1.362 . S
C1994 H1986 0.930 . S
C1994 C1993 1.362 . S
C1994 C1997 1.409 . S
C1995 H1987 0.930 . S
C1995 C1996 1.355 . S
C1995 C1997 1.415 . S
C1996 C1995 1.355 . S
C1996 C1998 1.419 . S
C1997 C1992 1.425 . S
C1997 C1994 1.409 . S
C1997 C1995 1.415 . S
C1998 H1988 0.930 . S
C1998 C1996 1.419 . S
C1998 C1999 1.362 . S
C1999 H1989 0.930 . S
C1999 C1992 1.409 . S
C1999 C1998 1.362 . S
H2000 C2006 0.930 . S
H2001 C2009 0.930 . S
H2002 C2010 0.930 . S
H2003 C2011 0.930 . S
H2004 C2014 0.930 . S
H2005 C2015 0.930 . S
C2006 H2000 0.930 . S
C2006 C2007 1.355 . S
C2006 C2008 1.415 . S
C2007 C2006 1.355 . S
C2007 C2009 1.419 . S
C2008 C2006 1.415 . S
C2008 C2013 1.425 . S
C2008 C2015 1.409 . S
C2009 H2001 0.930 . S
C2009 C2007 1.419 . S
C2009 C2010 1.362 . S
C2010 H2002 0.930 . S
C2010 C2009 1.362 . S
C2010 C2013 1.409 . S
C2011 H2003 0.930 . S
C2011 C2012 1.355 . S
C2011 C2013 1.415 . S
C2012 C2011 1.355 . S
C2012 C2014 1.419 . S
C2013 C2008 1.425 . S
C2013 C2010 1.409 . S
C2013 C2011 1.415 . S
C2014 H2004 0.930 . S
C2014 C2012 1.419 . S
C2014 C2015 1.362 . S
C2015 H2005 0.930 . S
C2015 C2008 1.409 . S
C2015 C2014 1.362 . S
H2016 C2022 0.930 . S
H2017 C2025 0.930 . S
H2018 C2026 0.930 . S
H2019 C2027 0.930 . S
H2020 C2030 0.930 . S
H2021 C2031 0.930 . S
C2022 H2016 0.930 . S
C2022 C2023 1.355 . S
C2022 C2024 1.415 . S
C2023 C2022 1.355 . S
C2023 C2025 1.419 . S
C2024 C2022 1.415 . S
C2024 C2029 1.425 . S
C2024 C2031 1.409 . S
C2025 H2017 0.930 . S
C2025 C2023 1.419 . S
C2025 C2026 1.362 . S
C2026 H2018 0.930 . S
C2026 C2025 1.362 . S
C2026 C2029 1.409 . S
C2027 H2019 0.930 . S
C2027 C2028 1.355 . S
C2027 C2029 1.415 . S
C2028 C2027 1.355 . S
C2028 C2030 1.419 . S
C2029 C2024 1.425 . S
C2029 C2026 1.409 . S
C2029 C2027 1.415 . S
C2030 H2020 0.930 . S
C2030 C2028 1.419 . S
C2030 C2031 1.362 . S
C2031 H2021 0.930 . S
C2031 C2024 1.409 . S
C2031 C2030 1.362 . S
H2032 C2038 0.930 . S
H2033 C2041 0.930 . S
H2034 C2042 0.930 . S
H2035 C2043 0.930 . S
H2036 C2046 0.930 . S
H2037 C2047 0.930 . S
C2038 H2032 0.930 . S
C2038 C2039 1.355 . S
C2038 C2040 1.415 . S
C2039 C2038 1.355 . S
C2039 C2041 1.419 . S
C2040 C2038 1.415 . S
C2040 C2045 1.425 . S
C2040 C2047 1.409 . S
C2041 H2033 0.930 . S
C2041 C2039 1.419 . S
C2041 C2042 1.362 . S
C2042 H2034 0.930 . S
C2042 C2041 1.362 . S
C2042 C2045 1.409 . S
C2043 H2035 0.930 . S
C2043 C2044 1.355 . S
C2043 C2045 1.415 . S
C2044 C2043 1.355 . S
C2044 C2046 1.419 . S
C2045 C2040 1.425 . S
C2045 C2042 1.409 . S
C2045 C2043 1.415 . S
C2046 H2036 0.930 . S
C2046 C2044 1.419 . S
C2046 C2047 1.362 . S
C2047 H2037 0.930 . S
C2047 C2040 1.409 . S
C2047 C2046 1.362 . S
H2048 C2054 0.930 . S
H2049 C2057 0.930 . S
H2050 C2058 0.930 . S
H2051 C2059 0.930 . S
H2052 C2062 0.930 . S
H2053 C2063 0.930 . S
C2054 H2048 0.930 . S
C2054 C2055 1.355 . S
C2054 C2056 1.415 . S
C2055 C2054 1.355 . S
C2055 C2057 1.419 . S
C2056 C2054 1.415 . S
C2056 C2061 1.425 . S
C2056 C2063 1.409 . S
C2057 H2049 0.930 . S
C2057 C2055 1.419 . S
C2057 C2058 1.362 . S
C2058 H2050 0.930 . S
C2058 C2057 1.362 . S
C2058 C2061 1.409 . S
C2059 H2051 0.930 . S
C2059 C2060 1.355 . S
C2059 C2061 1.415 . S
C2060 C2059 1.355 . S
C2060 C2062 1.419 . S
C2061 C2056 1.425 . S
C2061 C2058 1.409 . S
C2061 C2059 1.415 . S
C2062 H2052 0.930 . S
C2062 C2060 1.419 . S
C2062 C2063 1.362 . S
C2063 H2053 0.930 . S
C2063 C2056 1.409 . S
C2063 C2062 1.362 . S
H2064 C2070 0.930 . S
H2065 C2073 0.930 . S
H2066 C2074 0.930 . S
H2067 C2075 0.930 . S
H2068 C2078 0.930 . S
H2069 C2079 0.930 . S
C2070 H2064 0.930 . S
C2070 C2071 1.355 . S
C2070 C2072 1.415 . S
C2071 C2070 1.355 . S
C2071 C2073 1.419 . S
C2072 C2070 1.415 . S
C2072 C2077 1.425 . S
C2072 C2079 1.409 . S
C2073 H2065 0.930 . S
C2073 C2071 1.419 . S
C2073 C2074 1.362 . S
C2074 H2066 0.930 . S
C2074 C2073 1.362 . S
C2074 C2077 1.409 . S
C2075 H2067 0.930 . S
C2075 C2076 1.355 . S
C2075 C2077 1.415 . S
C2076 C2075 1.355 . S
C2076 C2078 1.419 . S
C2077 C2072 1.425 . S
C2077 C2074 1.409 . S
C2077 C2075 1.415 . S
C2078 H2068 0.930 . S
C2078 C2076 1.419 . S
C2078 C2079 1.362 . S
C2079 H2069 0.930 . S
C2079 C2072 1.409 . S
C2079 C2078 1.362 . S
H2080 C2086 0.930 . S
H2081 C2089 0.930 . S
H2082 C2090 0.930 . S
H2083 C2091 0.930 . S
H2084 C2094 0.930 . S
H2085 C2095 0.930 . S
C2086 H2080 0.930 . S
C2086 C2087 1.355 . S
C2086 C2088 1.415 . S
C2087 C2086 1.355 . S
C2087 C2089 1.419 . S
C2088 C2086 1.415 . S
C2088 C2093 1.425 . S
C2088 C2095 1.409 . S
C2089 H2081 0.930 . S
C2089 C2087 1.419 . S
C2089 C2090 1.362 . S
C2090 H2082 0.930 . S
C2090 C2089 1.362 . S
C2090 C2093 1.409 . S
C2091 H2083 0.930 . S
C2091 C2092 1.355 . S
C2091 C2093 1.415 . S
C2092 C2091 1.355 . S
C2092 C2094 1.419 . S
C2093 C2088 1.425 . S
C2093 C2090 1.409 . S
C2093 C2091 1.415 . S
C2094 H2084 0.930 . S
C2094 C2092 1.419 . S
C2094 C2095 1.362 . S
C2095 H2085 0.930 . S
C2095 C2088 1.409 . S
C2095 C2094 1.362 . S
H2096 C2102 0.930 . S
H2097 C2105 0.930 . S
H2098 C2106 0.930 . S
H2099 C2107 0.930 . S
H2100 C2110 0.930 . S
H2101 C2111 0.930 . S
C2102 H2096 0.930 . S
C2102 C2103 1.355 . S
C2102 C2104 1.415 . S
C2103 C2102 1.355 . S
C2103 C2105 1.419 . S
C2104 C2102 1.415 . S
C2104 C2109 1.425 . S
C2104 C2111 1.409 . S
C2105 H2097 0.930 . S
C2105 C2103 1.419 . S
C2105 C2106 1.362 . S
C2106 H2098 0.930 . S
C2106 C2105 1.362 . S
C2106 C2109 1.409 . S
C2107 H2099 0.930 . S
C2107 C2108 1.355 . S
C2107 C2109 1.415 . S
C2108 C2107 1.355 . S
C2108 C2110 1.419 . S
C2109 C2104 1.425 . S
C2109 C2106 1.409 . S
C2109 C2107 1.415 . S
C2110 H2100 0.930 . S
C2110 C2108 1.419 . S
C2110 C2111 1.362 . S
C2111 H2101 0.930 . S
C2111 C2104 1.409 . S
C2111 C2110 1.362 . S
H2112 C2118 0.930 . S
H2113 C2121 0.930 . S
H2114 C2122 0.930 1_556 S
H2115 C2123 0.930 1_556 S
H2116 C2126 0.930 . S
H2117 C2127 0.930 . S
C2118 H2112 0.930 . S
C2118 C2119 1.355 . S
C2118 C2120 1.415 . S
C2119 C2118 1.355 . S
C2119 C2121 1.419 . S
C2120 C2118 1.415 . S
C2120 C2125 1.425 . S
C2120 C2127 1.409 . S
C2121 H2113 0.930 . S
C2121 C2119 1.419 . S
C2121 C2122 1.362 . S
C2122 H2114 0.930 1_554 S
C2122 C2121 1.362 . S
C2122 C2125 1.409 . S
C2123 H2115 0.930 1_554 S
C2123 C2124 1.355 . S
C2123 C2125 1.415 . S
C2124 C2123 1.355 . S
C2124 C2126 1.419 . S
C2125 C2120 1.425 . S
C2125 C2122 1.409 . S
C2125 C2123 1.415 . S
C2126 H2116 0.930 . S
C2126 C2124 1.419 . S
C2126 C2127 1.362 . S
C2127 H2117 0.930 . S
C2127 C2120 1.409 . S
C2127 C2126 1.362 . S
H2128 C2134 0.930 . S
H2129 C2137 0.930 . S
H2130 C2138 0.930 . S
H2131 C2139 0.930 . S
H2132 C2142 0.930 . S
H2133 C2143 0.930 . S
C2134 H2128 0.930 . S
C2134 C2135 1.355 . S
C2134 C2136 1.415 . S
C2135 C2134 1.355 . S
C2135 C2137 1.419 . S
C2136 C2134 1.415 . S
C2136 C2141 1.425 . S
C2136 C2143 1.409 . S
C2137 H2129 0.930 . S
C2137 C2135 1.419 . S
C2137 C2138 1.362 . S
C2138 H2130 0.930 . S
C2138 C2137 1.362 . S
C2138 C2141 1.409 . S
C2139 H2131 0.930 . S
C2139 C2140 1.355 . S
C2139 C2141 1.415 . S
C2140 C2139 1.355 . S
C2140 C2142 1.419 . S
C2141 C2136 1.425 . S
C2141 C2138 1.409 . S
C2141 C2139 1.415 . S
C2142 H2132 0.930 . S
C2142 C2140 1.419 . S
C2142 C2143 1.362 . S
C2143 H2133 0.930 . S
C2143 C2136 1.409 . S
C2143 C2142 1.362 . S
H2144 C2150 0.930 . S
H2145 C2153 0.930 . S
H2146 C2154 0.930 . S
H2147 C2155 0.930 . S
H2148 C2158 0.930 . S
H2149 C2159 0.930 . S
C2150 H2144 0.930 . S
C2150 C2151 1.355 . S
C2150 C2152 1.415 . S
C2151 C2150 1.355 . S
C2151 C2153 1.419 . S
C2152 C2150 1.415 . S
C2152 C2157 1.425 . S
C2152 C2159 1.409 . S
C2153 H2145 0.930 . S
C2153 C2151 1.419 . S
C2153 C2154 1.362 . S
C2154 H2146 0.930 . S
C2154 C2153 1.362 . S
C2154 C2157 1.409 . S
C2155 H2147 0.930 . S
C2155 C2156 1.355 . S
C2155 C2157 1.415 . S
C2156 C2155 1.355 . S
C2156 C2158 1.419 . S
C2157 C2152 1.425 . S
C2157 C2154 1.409 . S
C2157 C2155 1.415 . S
C2158 H2148 0.930 . S
C2158 C2156 1.419 . S
C2158 C2159 1.362 . S
C2159 H2149 0.930 . S
C2159 C2152 1.409 . S
C2159 C2158 1.362 . S
H2160 C2166 0.930 1_554 S
H2161 C2169 0.930 . S
H2162 C2170 0.930 . S
H2163 C2171 0.930 . S
H2164 C2174 0.930 . S
H2165 C2175 0.930 1_554 S
C2166 H2160 0.930 1_556 S
C2166 C2167 1.355 . S
C2166 C2168 1.415 . S
C2167 C2166 1.355 . S
C2167 C2169 1.419 . S
C2168 C2166 1.415 . S
C2168 C2173 1.425 . S
C2168 C2175 1.409 . S
C2169 H2161 0.930 . S
C2169 C2167 1.419 . S
C2169 C2170 1.362 . S
C2170 H2162 0.930 . S
C2170 C2169 1.362 . S
C2170 C2173 1.409 . S
C2171 H2163 0.930 . S
C2171 C2172 1.355 . S
C2171 C2173 1.415 . S
C2172 C2171 1.355 . S
C2172 C2174 1.419 . S
C2173 C2168 1.425 . S
C2173 C2170 1.409 . S
C2173 C2171 1.415 . S
C2174 H2164 0.930 . S
C2174 C2172 1.419 . S
C2174 C2175 1.362 . S
C2175 H2165 0.930 1_556 S
C2175 C2168 1.409 . S
C2175 C2174 1.362 . S
C647 C579 1.544 . S
C652 C18 1.544 . S
C663 C119 1.538 1_565 S
C668 C38 1.538 1_545 S
C679 C459 1.532 . S
C684 C58 1.533 1_545 S
C695 C319 1.535 . S
C700 C78 1.535 . S
C711 C99 1.522 . S
C716 C498 1.522 . S
C727 C378 1.525 . S
C732 C139 1.525 . S
C743 C238 1.544 . S
C748 C159 1.544 . S
C759 C419 1.544 . S
C764 C178 1.544 . S
C775 C198 1.531 . S
C780 C279 1.531 . S
C791 C218 1.522 . S
C796 C619 1.522 . S
C807 C338 1.534 . S
C812 C259 1.534 . S
C823 C299 1.522 . S
C828 C538 1.522 . S
C839 C358 1.521 . S
C844 C439 1.521 . S
C855 C398 1.534 . S
C860 C639 1.534 . S
C871 C558 1.531 . S
C876 C479 1.531 . S
C887 C599 1.521 . S
C892 C518 1.521 . S
C903 C399 1.515 . S
C908 C19 1.537 . S
C919 C379 1.517 1_565 S
C924 C39 1.505 . S
C935 C359 1.534 1_565 S
C940 C59 1.512 . S
C951 C339 1.553 . S
C956 C79 1.546 . S
C967 C478 1.511 . S
C972 C98 1.505 . S
C983 C118 1.505 . S
C988 C458 1.518 1_545 S
C999 C138 1.504 . S
C1004 C438 1.517 1_545 S
C1015 C158 1.505 . S
C1020 C418 1.512 . S
C1031 C179 1.549 . S
C1036 C559 1.528 . S
C1047 C199 1.505 . S
C1052 C539 1.514 . S
C1063 C219 1.510 . S
C1068 C519 1.506 . S
C1079 C499 1.533 . S
C1084 C239 1.513 . S
C1095 C258 1.513 . S
C1100 C638 1.509 . S
C1111 C278 1.506 . S
C1116 C618 1.520 . S
C1127 C298 1.505 . S
C1132 C598 1.512 . S
C1143 C578 1.544 . S
C1148 C318 1.522 . S
C1159 C1 1.312 . S
C1164 C2 1.312 . S
C1175 C21 1.291 . S
C1180 C22 1.291 . S
C1191 C42 1.345 . S
C1196 C41 1.345 . S
C1207 C62 1.306 . S
C1212 C61 1.306 . S
C1223 C81 1.351 . S
C1228 C82 1.351 . S
C1239 C101 1.341 . S
C1244 C102 1.341 . S
C1255 C121 1.290 . S
C1260 C122 1.290 . S
C1271 C142 1.307 . S
C1276 C141 1.307 . S
C1287 C161 1.318 1_554 S
C1292 C162 1.318 . S
C1303 C182 1.300 . S
C1308 C181 1.300 1_554 S
C1319 C202 1.298 . S
C1324 C201 1.298 . S
C1335 C222 1.349 . S
C1340 C221 1.349 . S
C1351 C241 1.351 . S
C1356 C242 1.351 1_556 S
C1367 C262 1.321 1_556 S
C1372 C261 1.321 . S
C1383 C281 1.323 . S
C1388 C282 1.323 . S
C1399 C302 1.352 . S
C1404 C301 1.352 . S
C1415 C321 1.351 1_554 S
C1420 C322 1.351 . S
C1431 C342 1.289 . S
C1436 C341 1.289 1_554 S
C1447 C362 1.341 . S
C1452 C361 1.341 . S
C1463 C382 1.348 . S
C1468 C381 1.348 . S
C1479 C402 1.324 1_556 S
C1484 C401 1.324 . S
C1495 C421 1.350 . S
C1500 C422 1.350 1_556 S
C1511 C442 1.293 . S
C1516 C441 1.293 . S
C1527 C462 1.337 . S
C1532 C461 1.337 . S
C1543 C481 1.324 . S
C1548 C482 1.324 . S
C1559 C502 1.299 . S
C1564 C501 1.299 . S
C1575 C522 1.300 . S
C1580 C521 1.300 . S
C1591 C541 1.350 . S
C1596 C542 1.350 . S
C1607 C561 1.344 . S
C1612 C562 1.344 . S
C1623 C582 1.293 . S
C1628 C581 1.293 . S
C1639 C602 1.311 . S
C1644 C601 1.311 . S
C1655 C622 1.347 . S
C1660 C621 1.347 . S
C1671 C208 1.780 . S
C1676 C8 1.805 . S
C1687 C228 1.772 . S
C1692 C28 1.777 . S
C1703 C48 1.782 1_556 S
C1708 C168 1.777 . S
C1719 C188 1.776 . S
C1724 C68 1.806 1_556 S
C1735 C89 1.797 . S
C1740 C289 1.791 . S
C1751 C109 1.788 . S
C1756 C309 1.770 . S
C1767 C129 1.794 1_554 S
C1772 C249 1.760 . S
C1783 C149 1.806 1_554 S
C1788 C269 1.778 . S
C1799 C528 1.776 1_556 S
C1804 C328 1.806 . S
C1815 C348 1.770 . S
C1820 C548 1.787 1_556 S
C1831 C488 1.783 . S
C1836 C368 1.776 . S
C1847 C388 1.780 . S
C1852 C508 1.799 . S
C1863 C609 1.785 1_554 S
C1868 C409 1.802 . S
C1879 C429 1.792 . S
C1884 C629 1.765 1_554 S
C1895 C449 1.788 . S
C1900 C569 1.762 . S
C1911 C589 1.776 . S
C1916 C469 1.806 . S
C1927 C9 1.285 . S
C1932 C49 1.323 . S
C1943 C69 1.341 . S
C1948 C29 1.311 . S
C1959 C128 1.294 . S
C1964 C88 1.294 . S
C1975 C108 1.299 . S
C1980 C148 1.291 . S
C1991 C169 1.291 . S
C1996 C209 1.327 . S
C2007 C229 1.290 . S
C2012 C189 1.327 . S
C2023 C288 1.300 . S
C2028 C248 1.329 . S
C2039 C308 1.311 . S
C2044 C268 1.327 . S
C2055 C369 1.293 . S
C2060 C329 1.295 . S
C2071 C389 1.338 . S
C2076 C349 1.304 . S
C2087 C448 1.284 . S
C2092 C408 1.308 . S
C2103 C468 1.330 . S
C2108 C428 1.294 . S
C2119 C489 1.323 . S
C2124 C529 1.319 . S
C2135 C509 1.322 . S
C2140 C549 1.281 . S
C2151 C568 1.329 . S
C2156 C608 1.303 . S
C2167 C628 1.307 . S
C2172 C588 1.328 . S
