# Generated by pormake.
# Topology vme, (6)-cn, num edge types: 1
# Building blocks:
#     Node 0, Type 0, BuildingBlock: VOLQOD_clean_sbu_1, # of connection points: 6
#     Node 1, Type 0, BuildingBlock: VOLQOD_clean_sbu_1, # of connection points: 6
#     Node 2, Type 0, BuildingBlock: VOLQOD_clean_sbu_1, # of connection points: 6
#     Node 3, Type 0, BuildingBlock: VOLQOD_clean_sbu_1, # of connection points: 6
#     Edge 4, Type (0, 0), BuildingBlock: KIFKEQ_clean_linker_1, # of connection points: 2
#     Edge 5, Type (0, 0), BuildingBlock: KIFKEQ_clean_linker_1, # of connection points: 2
#     Edge 6, Type (0, 0), BuildingBlock: KIFKEQ_clean_linker_1, # of connection points: 2
#     Edge 7, Type (0, 0), BuildingBlock: KIFKEQ_clean_linker_1, # of connection points: 2
#     Edge 8, Type (0, 0), BuildingBlock: KIFKEQ_clean_linker_1, # of connection points: 2
#     Edge 9, Type (0, 0), BuildingBlock: KIFKEQ_clean_linker_1, # of connection points: 2
#     Edge 10, Type (0, 0), BuildingBlock: KIFKEQ_clean_linker_1, # of connection points: 2
#     Edge 11, Type (0, 0), BuildingBlock: KIFKEQ_clean_linker_1, # of connection points: 2
#     Edge 12, Type (0, 0), BuildingBlock: KIFKEQ_clean_linker_1, # of connection points: 2
#     Edge 13, Type (0, 0), BuildingBlock: KIFKEQ_clean_linker_1, # of connection points: 2
#     Edge 14, Type (0, 0), BuildingBlock: KIFKEQ_clean_linker_1, # of connection points: 2
#     Edge 15, Type (0, 0), BuildingBlock: KIFKEQ_clean_linker_1, # of connection points: 2
# Relax obj value: 0.301
# Max RMSD: 0.246
# Mean RMSD: 0.246
data_MOF--net-vme--node1-VOLQOD_clean_sbu_1--edge1-KIFKEQ_clean_linker_1
_symmetry_space_group_name_H-M    P1
_symmetry_Int_Tables_number       1
_symmetry_cell_setting            triclinic
loop_
_symmetry_equiv_pos_as_xyz
'x, y, z'
_cell_length_a     27.628786
_cell_length_b     27.760602
_cell_length_c     29.582025
_cell_angle_alpha  90.060115
_cell_angle_beta   114.79103
_cell_angle_gamma 90.029769
loop_
_atom_site_label
_atom_site_type_symbol
_atom_site_fract_x
_atom_site_fract_y
_atom_site_fract_z
_atom_type_partial_charge
O0 O 0.08572 0.39028 0.3893 0.0
Zn1 Zn 0.11139 0.36572 0.33985 0.0
O2 O 0.18854 0.36411 0.36906 0.0
Zn3 Zn 0.2141 0.29877 0.36853 0.0
Zn4 Zn 0.21506 0.38858 0.43612 0.0
Zn5 Zn 0.21381 0.4073 0.33254 0.0
O6 O 0.25101 0.29552 0.32119 0.0
O7 O 0.23447 0.36843 0.28629 0.0
O8 O 0.0791 0.2996 0.31841 0.0
O9 O 0.1513 0.25378 0.33983 0.0
O10 O 0.25643 0.27382 0.44013 0.0
O11 O 0.24375 0.33467 0.48308 0.0
O12 O 0.27778 0.43152 0.45209 0.0
O13 O 0.08299 0.41606 0.28604 0.0
O14 O 0.28115 0.44099 0.37912 0.0
O15 O 0.15621 0.45611 0.29506 0.0
C16 C 0.10763 0.41397 0.42967 0.0
C17 C 0.2516 0.32543 0.28845 0.0
C18 C 0.26089 0.29262 0.48122 0.0
C19 C 0.10084 0.25843 0.32195 0.0
C20 C 0.30093 0.44755 0.42604 0.0
C21 C 0.10548 0.45283 0.27734 0.0
O22 O 0.15791 0.42004 0.45085 0.0
O23 O 0.90473 0.89033 0.11852 0.0
Zn24 Zn 0.8791 0.86575 0.16863 0.0
O25 O 0.80193 0.86485 0.13916 0.0
Zn26 Zn 0.7734 0.80031 0.13474 0.0
Zn27 Zn 0.77619 0.89448 0.07525 0.0
Zn28 Zn 0.77735 0.90518 0.17733 0.0
O29 O 0.73711 0.79466 0.18324 0.0
O30 O 0.76255 0.86411 0.22468 0.0
O31 O 0.90947 0.79855 0.18942 0.0
O32 O 0.83559 0.75404 0.15913 0.0
O33 O 0.72905 0.78137 0.061 0.0
O34 O 0.74891 0.84372 0.02462 0.0
O35 O 0.71227 0.93529 0.06118 0.0
O36 O 0.90771 0.91643 0.22309 0.0
O37 O 0.70778 0.93702 0.1341 0.0
O38 O 0.83314 0.95487 0.21269 0.0
C39 C 0.88332 0.91944 0.08227 0.0
C40 C 0.7422 0.82218 0.21986 0.0
C41 C 0.72811 0.80241 0.02211 0.0
C42 C 0.8863 0.75754 0.18027 0.0
C43 C 0.68805 0.94673 0.08784 0.0
C44 C 0.88386 0.95284 0.23075 0.0
O45 O 0.83383 0.92944 0.06472 0.0
O46 O 0.89699 0.60458 0.6063 0.0
Zn47 Zn 0.87612 0.62665 0.65998 0.0
O48 O 0.79973 0.62605 0.63615 0.0
Zn49 Zn 0.77114 0.69053 0.63337 0.0
Zn50 Zn 0.77066 0.59453 0.57266 0.0
Zn51 Zn 0.78024 0.58624 0.67825 0.0
O52 O 0.7346 0.69463 0.68173 0.0
O53 O 0.76699 0.62788 0.7261 0.0
O54 O 0.90625 0.69355 0.68074 0.0
O55 O 0.83287 0.73785 0.65965 0.0
O56 O 0.72698 0.70978 0.55968 0.0
O57 O 0.74016 0.64489 0.52198 0.0
O58 O 0.70891 0.55173 0.56327 0.0
O59 O 0.90902 0.5756 0.71276 0.0
O60 O 0.71042 0.55324 0.63866 0.0
O61 O 0.83821 0.5379 0.71328 0.0
C62 C 0.87522 0.57367 0.57187 0.0
C63 C 0.74329 0.6683 0.71999 0.0
C64 C 0.72238 0.6874 0.52014 0.0
C65 C 0.8835 0.73429 0.67693 0.0
C66 C 0.68796 0.54137 0.59294 0.0
C67 C 0.88832 0.54018 0.72587 0.0
O68 O 0.82693 0.56068 0.55848 0.0
O69 O 0.08786 0.10075 0.89299 0.0
Zn70 Zn 0.11137 0.12552 0.8418 0.0
O71 O 0.18887 0.12706 0.87065 0.0
Zn72 Zn 0.21541 0.19193 0.87099 0.0
Zn73 Zn 0.21805 0.10071 0.93722 0.0
Zn74 Zn 0.21201 0.08557 0.83194 0.0
O75 O 0.25008 0.19642 0.82162 0.0
O76 O 0.22943 0.12469 0.78435 0.0
O77 O 0.07945 0.19235 0.82042 0.0
O78 O 0.15305 0.23682 0.84551 0.0
O79 O 0.25954 0.21574 0.94261 0.0
O80 O 0.24882 0.15388 0.98539 0.0
O81 O 0.27992 0.05639 0.95021 0.0
O82 O 0.08159 0.07474 0.78757 0.0
O83 O 0.28036 0.05333 0.87555 0.0
O84 O 0.15544 0.0359 0.79664 0.0
C85 C 0.11083 0.07676 0.93306 0.0
C86 C 0.24796 0.16719 0.78726 0.0
C87 C 0.26544 0.19624 0.98376 0.0
C88 C 0.10245 0.2333 0.82665 0.0
C89 C 0.30169 0.04361 0.9218 0.0
C90 C 0.10474 0.03824 0.77919 0.0
O91 O 0.1611 0.07016 0.95284 0.0
H92 H 0.99167 0.96075 0.2869 0.0
H93 H 0.84685 0.04463 0.22467 0.0
H94 H 0.04374 0.03472 0.3126 0.0
H95 H 0.89856 0.11824 0.24748 0.0
H96 H 0.0025 0.24631 0.32128 0.0
H97 H 0.95134 0.17205 0.30735 0.0
H98 H 0.07226 0.09726 0.27754 0.0
H99 H 0.12459 0.17095 0.29446 0.0
C100 C 0.97093 0.99496 0.2791 0.0
C101 C 0.91513 -0.00329 0.25368 0.0
C102 C 0.0008 0.03749 0.29323 0.0
C103 C 0.97564 0.08282 0.28143 0.0
C104 C 0.9196 0.0843 0.25787 0.0
C105 C 0.88977 0.04185 0.24461 0.0
C106 C 0.01788 0.21401 0.31143 0.0
C107 C 0.06745 0.21449 0.30879 0.0
C108 C 0.98852 0.1713 0.30337 0.0
C109 C 0.00753 0.12821 0.29147 0.0
C110 C 0.05676 0.12918 0.28786 0.0
C111 C 0.08656 0.17165 0.29692 0.0
H112 H -0.00155 0.46362 0.249 0.0
H113 H 0.13677 0.53921 0.25249 0.0
H114 H 0.94661 0.5369 0.22384 0.0
H115 H 0.08392 0.61264 0.2251 0.0
H116 H 0.99326 0.7467 0.23967 0.0
H117 H 0.04554 0.67266 0.2573 0.0
H118 H 0.905 0.59361 0.16128 0.0
H119 H 0.85264 0.66689 0.14554 0.0
C120 C 0.01759 0.4956 0.24319 0.0
C121 C 0.07203 0.49536 0.25306 0.0
C122 C 0.98763 0.53786 0.22854 0.0
C123 C 0.01099 0.5811 0.22273 0.0
C124 C 0.0648 0.58035 0.23021 0.0
C125 C 0.095 0.53803 0.24534 0.0
C126 C 0.97356 0.71344 0.22253 0.0
C127 C 0.91861 0.71273 0.19166 0.0
C128 C 0.00365 0.67097 0.2322 0.0
C129 C 0.97965 0.62686 0.21079 0.0
C130 C 0.92482 0.62652 0.17929 0.0
C131 C 0.89471 0.66873 0.17014 0.0
H132 H -0.00318 0.03221 0.72258 0.0
H133 H 0.13974 0.9458 0.78371 0.0
H134 H 0.94328 0.95936 0.69386 0.0
H135 H 0.08654 0.87314 0.7579 0.0
H136 H 0.98227 0.74754 0.67892 0.0
H137 H 0.03414 0.8215 0.69589 0.0
H138 H 0.91136 0.8953 0.72368 0.0
H139 H 0.85827 0.82185 0.70362 0.0
C140 C 0.01684 -0.00233 0.72958 0.0
C141 C 0.07259 0.99493 0.7554 0.0
C142 C 0.98609 0.95572 0.71368 0.0
C143 C 0.01021 0.90988 0.72403 0.0
C144 C 0.06621 0.90746 0.74841 0.0
C145 C 0.09694 0.94937 0.76345 0.0
C146 C 0.96649 0.77958 0.68881 0.0
C147 C 0.91627 0.77877 0.69016 0.0
C148 C -0.00366 0.82213 0.69874 0.0
C149 C 0.9773 0.86485 0.71133 0.0
C150 C 0.92711 0.8637 0.71309 0.0
C151 C 0.89679 0.82136 0.70214 0.0
H152 H 0.86029 0.45821 0.76103 0.0
H153 H 0.99231 0.52533 0.74301 0.0
H154 H 0.91197 0.38422 0.78863 0.0
H155 H 0.04294 0.45129 0.76879 0.0
H156 H 0.13902 0.32474 0.85341 0.0
H157 H 0.08845 0.39899 0.83594 0.0
H158 H 0.94328 0.31922 0.75422 0.0
H159 H 0.99407 0.24411 0.77346 0.0
C160 C 0.9005 0.45741 0.76345 0.0
C161 C 0.92207 0.49782 0.74976 0.0
C162 C 0.92991 0.41478 0.77874 0.0
C163 C 0.98148 0.41149 0.78051 0.0
C164 C 0.00365 0.45251 0.76852 0.0
C165 C 0.97446 0.49514 0.7536 0.0
C166 C 0.09631 0.32284 0.83158 0.0
C167 C 0.07068 0.27835 0.81446 0.0
C168 C 0.06725 0.36562 0.82144 0.0
C169 C 0.01174 0.36532 0.7934 0.0
C170 C 0.98591 0.3208 0.77651 0.0
C171 C 0.01504 0.27774 0.78712 0.0
H172 H 0.97252 0.60276 0.57933 0.0
H173 H 0.85172 0.49335 0.51298 0.0
H174 H 0.02821 0.56378 0.54471 0.0
H175 H 0.90828 0.45345 0.47966 0.0
H176 H -0.00033 0.42427 0.38516 0.0
H177 H 0.94304 0.46353 0.41843 0.0
H178 H 0.08092 0.49228 0.55595 0.0
H179 H 0.13803 0.45427 0.52198 0.0
C180 C 0.9579 0.57029 0.55745 0.0
C181 C 0.90772 0.5511 0.54889 0.0
C182 C 0.99002 0.54776 0.53794 0.0
C183 C 0.97285 0.50534 0.50977 0.0
C184 C 0.9224 0.48641 0.50075 0.0
C185 C 0.89004 0.50919 0.51994 0.0
C186 C 0.01796 0.43879 0.4226 0.0
C187 C 0.07338 0.43622 0.45097 0.0
C188 C 0.9854 0.46111 0.44173 0.0
C189 C 0.00746 0.48104 0.4898 0.0
C190 C 0.06283 0.47796 0.51844 0.0
C191 C 0.09551 0.45595 0.49913 0.0
H192 H 0.8589 -0.00205 0.02143 0.0
H193 H 0.98361 0.89387 0.09494 0.0
H194 H 0.91476 0.03752 0.98735 0.0
H195 H 0.03876 0.93234 0.05926 0.0
H196 H 0.14397 0.04047 0.0272 0.0
H197 H 0.08912 0.00369 0.06433 0.0
H198 H 0.94891 0.02509 0.92682 0.0
H199 H 0.00328 0.06337 0.89051 0.0
C200 C 0.89806 0.98325 0.02992 0.0
C201 C 0.91683 0.94276 0.06079 0.0
C202 C 0.93002 0.00581 0.01022 0.0
C203 C 0.9812 0.98804 0.02047 0.0
C204 C -0.00011 0.94743 0.05128 0.0
C205 C 0.96814 0.92518 0.07145 0.0
C206 C 0.1014 0.03742 0.00503 0.0
C207 C 0.07792 0.05492 0.95602 0.0
C208 C 0.07001 0.0161 0.02618 0.0
C209 C 0.01462 0.01141 0.99853 0.0
C210 C 0.99128 0.02891 0.94948 0.0
C211 C 0.02253 0.05066 0.92857 0.0
H212 H 0.24125 0.28878 0.99754 0.0
H213 H 0.33125 0.16474 0.07573 0.0
H214 H 0.24956 0.32343 0.07631 0.0
H215 H 0.34198 0.20003 0.15481 0.0
H216 H 0.265 0.2332 0.26274 0.0
H217 H 0.28237 0.20758 0.19236 0.0
H218 H 0.29699 0.35635 0.15676 0.0
H219 H 0.27763 0.38193 0.22622 0.0
C220 C 0.26496 0.27004 0.03186 0.0
C221 C 0.28536 0.22405 0.03062 0.0
C222 C 0.26964 0.28974 0.07716 0.0
C223 C 0.29539 0.264 0.12207 0.0
C224 C 0.32045 0.22022 0.12096 0.0
C225 C 0.31501 0.20027 0.07572 0.0
C226 C 0.2727 0.26043 0.24038 0.0
C227 C 0.26934 0.30958 0.24988 0.0
C228 C 0.28305 0.24577 0.20002 0.0
C229 C 0.29095 0.27989 0.16845 0.0
C230 C 0.29018 0.32905 0.17956 0.0
C231 C 0.2793 0.3437 0.21962 0.0
H232 H 0.77814 0.85623 0.31424 0.0
H233 H 0.67001 0.75144 0.21476 0.0
H234 H 0.7569 0.8286 0.38108 0.0
H235 H 0.64589 0.72515 0.2815 0.0
H236 H 0.68849 0.6444 0.42971 0.0
H237 H 0.68143 0.68042 0.35319 0.0
H238 H 0.70043 0.82177 0.42031 0.0
H239 H 0.71131 0.78469 0.49891 0.0
C240 C 0.74891 0.82772 0.30637 0.0
C241 C 0.7262 0.80564 0.25924 0.0
C242 C 0.73609 0.81221 0.34479 0.0
C243 C 0.6994 0.77459 0.33716 0.0
C244 C 0.67505 0.75364 0.28928 0.0
C245 C 0.68876 0.76866 0.25089 0.0
C246 C 0.69032 0.68332 0.42809 0.0
C247 C 0.70208 0.71158 0.47097 0.0
C248 C 0.68569 0.70418 0.38366 0.0
C249 C 0.69178 0.75412 0.38048 0.0
C250 C 0.69741 0.78298 0.42178 0.0
C251 C 0.70286 0.76187 0.46675 0.0
H252 H 0.71492 0.70527 1.00035 0.0
H253 H 0.6947 0.84568 0.93217 0.0
H254 H 0.70228 0.66807 0.92113 0.0
H255 H 0.68551 0.80947 0.8549 0.0
H256 H 0.67048 0.73823 0.71547 0.0
H257 H 0.64718 0.76436 0.78282 0.0
H258 H 0.75904 0.66134 0.88157 0.0
H259 H 0.7798 0.63404 0.81435 0.0
C260 C 0.7066 0.72807 0.96826 0.0
C261 C 0.7071 0.77838 0.97285 0.0
C262 C 0.70007 0.70691 0.92296 0.0
C263 C 0.69447 0.73574 0.88171 0.0
C264 C 0.68967 0.78579 0.88535 0.0
C265 C 0.69555 0.80673 0.93016 0.0
C266 C 0.68958 0.72103 0.75152 0.0
C267 C 0.72728 0.68439 0.75956 0.0
C268 C 0.67631 0.73593 0.79023 0.0
C269 C 0.70121 0.7151 0.83805 0.0
C270 C 0.73791 0.67764 0.84533 0.0
C271 C 0.75044 0.66234 0.80665 0.0
H272 H 0.27241 0.10999 0.72473 0.0
H273 H 0.2618 0.25922 0.76103 0.0
H274 H 0.29119 0.13447 0.65476 0.0
H275 H 0.27876 0.28384 0.68999 0.0
H276 H 0.32836 0.32369 0.57266 0.0
H277 H 0.33867 0.28951 0.65202 0.0
H278 H 0.24285 0.16719 0.57423 0.0
H279 H 0.23474 0.20079 0.49513 0.0
C280 C 0.27434 0.14812 0.71791 0.0
C281 C 0.2651 0.18271 0.74825 0.0
C282 C 0.28491 0.16213 0.67758 0.0
C283 C 0.28613 0.21111 0.66623 0.0
C284 C 0.27898 0.24574 0.69785 0.0
C285 C 0.26891 0.2317 0.73854 0.0
C286 C 0.31132 0.28856 0.57288 0.0
C287 C 0.28078 0.26479 0.52791 0.0
C288 C 0.3165 0.2693 0.61826 0.0
C289 C 0.29041 0.22621 0.61962 0.0
C290 C 0.26372 0.20037 0.57483 0.0
C291 C 0.25921 0.21941 0.52936 0.0
H292 H 0.36419 0.44599 0.52566 0.0
H293 H 0.36174 0.4922 0.3852 0.0
H294 H 0.45815 0.46539 0.5672 0.0
H295 H 0.45573 0.51393 0.4274 0.0
H296 H 0.63439 0.49632 0.50349 0.0
H297 H 0.54001 0.47578 0.46421 0.0
H298 H 0.52217 0.52659 0.59465 0.0
H299 H 0.6168 0.54491 0.63461 0.0
C300 C 0.38339 0.46144 0.50376 0.0
C301 C 0.35542 0.46736 0.45198 0.0
C302 C 0.43747 0.47264 0.52771 0.0
C303 C 0.46486 0.49073 0.50066 0.0
C304 C 0.43626 0.49887 0.44922 0.0
C305 C 0.38218 0.48704 0.42508 0.0
C306 C 0.61042 0.50227 0.52405 0.0
C307 C 0.63307 0.52211 0.57217 0.0
C308 C 0.55614 0.49114 0.50129 0.0
C309 C 0.52315 0.50024 0.52587 0.0
C310 C 0.54631 0.51863 0.57469 0.0
C311 C 0.60071 0.5291 0.59771 0.0
H312 H 0.37323 0.04235 0.88086 0.0
H313 H 0.35428 0.00223 0.01362 0.0
H314 H 0.46696 0.02225 0.92128 0.0
H315 H 0.44805 0.97928 0.05351 0.0
H316 H 0.62842 0.99091 0.13024 0.0
H317 H 0.53429 0.01275 0.0893 0.0
H318 H 0.52834 0.96057 0.94918 0.0
H319 H 0.62231 0.94162 0.98933 0.0
C320 C 0.38881 0.02795 0.91831 0.0
C321 C 0.35628 0.02381 0.94403 0.0
C322 C 0.44277 0.01634 0.9416 0.0
C323 C 0.46544 -0.0007 0.99089 0.0
C324 C 0.43234 0.99335 0.01596 0.0
C325 C 0.37841 0.00586 0.9929 0.0
C326 C 0.60703 0.98495 0.09054 0.0
C327 C 0.6329 0.96495 0.06299 0.0
C328 C 0.55291 -0.00316 0.06713 0.0
C329 C 0.52338 0.98815 0.01588 0.0
C330 C 0.54973 0.96868 0.98843 0.0
C331 C 0.60384 0.95771 0.01157 0.0
loop_
_geom_bond_atom_site_label_1
_geom_bond_atom_site_label_2
_geom_bond_distance
_geom_bond_site_symmetry_2
_ccdc_geom_bond_type
O0 Zn1 1.953 . S
O0 C16 1.225 . S
Zn1 O0 1.953 . S
Zn1 O2 1.949 . S
Zn1 O8 1.919 . S
Zn1 O13 1.924 . S
O2 Zn1 1.949 . S
O2 Zn3 1.923 . S
O2 Zn4 1.950 . S
O2 Zn5 1.945 . S
Zn3 O2 1.923 . S
Zn3 O6 1.933 . S
Zn3 O9 1.941 . S
Zn3 O10 1.965 . S
Zn4 O2 1.950 . S
Zn4 O11 1.938 . S
Zn4 O12 1.906 . S
Zn4 O22 1.953 . S
Zn5 O2 1.945 . S
Zn5 O7 1.932 . S
Zn5 O14 1.977 . S
Zn5 O15 1.910 . S
O6 Zn3 1.933 . S
O6 C17 1.226 . S
O7 Zn5 1.932 . S
O7 C17 1.307 . S
O8 Zn1 1.919 . S
O8 C19 1.253 . S
O9 Zn3 1.941 . S
O9 C19 1.283 . S
O10 Zn3 1.965 . S
O10 C18 1.303 . S
O11 Zn4 1.938 . S
O11 C18 1.247 . S
O12 Zn4 1.906 . S
O12 C20 1.304 . S
O13 Zn1 1.924 . S
O13 C21 1.311 . S
O14 Zn5 1.977 . S
O14 C20 1.272 . S
O15 Zn5 1.910 . S
O15 C21 1.231 . S
C16 O0 1.225 . S
C16 O22 1.298 . S
C17 O6 1.226 . S
C17 O7 1.307 . S
C18 O10 1.303 . S
C18 O11 1.247 . S
C19 O8 1.253 . S
C19 O9 1.283 . S
C20 O12 1.304 . S
C20 O14 1.272 . S
C21 O13 1.311 . S
C21 O15 1.231 . S
O22 Zn4 1.953 . S
O22 C16 1.298 . S
O23 Zn24 1.953 . S
O23 C39 1.225 . S
Zn24 O23 1.953 . S
Zn24 O25 1.949 . S
Zn24 O31 1.919 . S
Zn24 O36 1.924 . S
O25 Zn24 1.949 . S
O25 Zn26 1.923 . S
O25 Zn27 1.950 . S
O25 Zn28 1.945 . S
Zn26 O25 1.923 . S
Zn26 O29 1.933 . S
Zn26 O32 1.941 . S
Zn26 O33 1.965 . S
Zn27 O25 1.950 . S
Zn27 O34 1.938 1_554 S
Zn27 O35 1.906 . S
Zn27 O45 1.953 . S
Zn28 O25 1.945 . S
Zn28 O30 1.932 . S
Zn28 O37 1.977 . S
Zn28 O38 1.910 . S
O29 Zn26 1.933 . S
O29 C40 1.226 . S
O30 Zn28 1.932 . S
O30 C40 1.307 . S
O31 Zn24 1.919 . S
O31 C42 1.253 . S
O32 Zn26 1.941 . S
O32 C42 1.283 . S
O33 Zn26 1.965 . S
O33 C41 1.303 . S
O34 Zn27 1.938 1_556 S
O34 C41 1.247 1_556 S
O35 Zn27 1.906 . S
O35 C43 1.304 . S
O36 Zn24 1.924 . S
O36 C44 1.311 . S
O37 Zn28 1.977 . S
O37 C43 1.272 . S
O38 Zn28 1.910 . S
O38 C44 1.231 . S
C39 O23 1.225 . S
C39 O45 1.298 . S
C40 O29 1.226 . S
C40 O30 1.307 . S
C41 O33 1.303 . S
C41 O34 1.247 1_554 S
C42 O31 1.253 . S
C42 O32 1.283 . S
C43 O35 1.304 . S
C43 O37 1.272 . S
C44 O36 1.311 . S
C44 O38 1.231 . S
O45 Zn27 1.953 . S
O45 C39 1.298 . S
O46 Zn47 1.953 . S
O46 C62 1.225 . S
Zn47 O46 1.953 . S
Zn47 O48 1.949 . S
Zn47 O54 1.919 . S
Zn47 O59 1.924 . S
O48 Zn47 1.949 . S
O48 Zn49 1.923 . S
O48 Zn50 1.950 . S
O48 Zn51 1.945 . S
Zn49 O48 1.923 . S
Zn49 O52 1.933 . S
Zn49 O55 1.941 . S
Zn49 O56 1.965 . S
Zn50 O48 1.950 . S
Zn50 O57 1.938 . S
Zn50 O58 1.906 . S
Zn50 O68 1.953 . S
Zn51 O48 1.945 . S
Zn51 O53 1.932 . S
Zn51 O60 1.977 . S
Zn51 O61 1.910 . S
O52 Zn49 1.933 . S
O52 C63 1.226 . S
O53 Zn51 1.932 . S
O53 C63 1.307 . S
O54 Zn47 1.919 . S
O54 C65 1.253 . S
O55 Zn49 1.941 . S
O55 C65 1.283 . S
O56 Zn49 1.965 . S
O56 C64 1.303 . S
O57 Zn50 1.938 . S
O57 C64 1.247 . S
O58 Zn50 1.906 . S
O58 C66 1.304 . S
O59 Zn47 1.924 . S
O59 C67 1.311 . S
O60 Zn51 1.977 . S
O60 C66 1.272 . S
O61 Zn51 1.910 . S
O61 C67 1.231 . S
C62 O46 1.225 . S
C62 O68 1.298 . S
C63 O52 1.226 . S
C63 O53 1.307 . S
C64 O56 1.303 . S
C64 O57 1.247 . S
C65 O54 1.253 . S
C65 O55 1.283 . S
C66 O58 1.304 . S
C66 O60 1.272 . S
C67 O59 1.311 . S
C67 O61 1.231 . S
O68 Zn50 1.953 . S
O68 C62 1.298 . S
O69 Zn70 1.953 . S
O69 C85 1.225 . S
Zn70 O69 1.953 . S
Zn70 O71 1.949 . S
Zn70 O77 1.919 . S
Zn70 O82 1.924 . S
O71 Zn70 1.949 . S
O71 Zn72 1.923 . S
O71 Zn73 1.950 . S
O71 Zn74 1.945 . S
Zn72 O71 1.923 . S
Zn72 O75 1.933 . S
Zn72 O78 1.941 . S
Zn72 O79 1.965 . S
Zn73 O71 1.950 . S
Zn73 O80 1.938 1_556 S
Zn73 O81 1.906 . S
Zn73 O91 1.953 . S
Zn74 O71 1.945 . S
Zn74 O76 1.932 . S
Zn74 O83 1.977 . S
Zn74 O84 1.910 . S
O75 Zn72 1.933 . S
O75 C86 1.226 . S
O76 Zn74 1.932 . S
O76 C86 1.307 . S
O77 Zn70 1.919 . S
O77 C88 1.253 . S
O78 Zn72 1.941 . S
O78 C88 1.283 . S
O79 Zn72 1.965 . S
O79 C87 1.303 . S
O80 Zn73 1.938 1_554 S
O80 C87 1.247 1_554 S
O81 Zn73 1.906 . S
O81 C89 1.304 . S
O82 Zn70 1.924 . S
O82 C90 1.311 . S
O83 Zn74 1.977 . S
O83 C89 1.272 . S
O84 Zn74 1.910 . S
O84 C90 1.231 . S
C85 O69 1.225 . S
C85 O91 1.298 . S
C86 O75 1.226 . S
C86 O76 1.307 . S
C87 O79 1.303 . S
C87 O80 1.247 1_556 S
C88 O77 1.253 . S
C88 O78 1.283 . S
C89 O81 1.304 . S
C89 O83 1.272 . S
C90 O82 1.311 . S
C90 O84 1.231 . S
O91 Zn73 1.953 . S
O91 C85 1.298 . S
H92 C100 0.950 . S
H93 C105 0.950 . S
H94 C102 0.950 1_455 S
H95 C104 0.950 . S
H96 C106 0.950 . S
H97 C108 0.950 . S
H98 C110 0.950 . S
H99 C111 0.950 . S
C100 H92 0.950 . S
C100 C101 1.386 . S
C100 C102 1.391 . S
C101 C100 1.386 . S
C101 C105 1.393 . S
C102 H94 0.950 1_655 S
C102 C100 1.391 . S
C102 C103 1.400 . S
C103 C102 1.400 . S
C103 C104 1.398 . S
C103 C109 1.491 . S
C104 H95 0.950 . S
C104 C103 1.398 . S
C104 C105 1.391 . S
C105 H93 0.950 . S
C105 C101 1.393 . S
C105 C104 1.391 . S
C106 H96 0.950 . S
C106 C107 1.386 1_655 S
C106 C108 1.391 . S
C107 C106 1.386 1_455 S
C107 C111 1.393 . S
C108 H97 0.950 . S
C108 C106 1.391 . S
C108 C109 1.400 . S
C109 C103 1.491 . S
C109 C108 1.400 . S
C109 C110 1.398 1_655 S
C110 H98 0.950 . S
C110 C109 1.398 1_455 S
C110 C111 1.391 . S
C111 H99 0.950 . S
C111 C107 1.393 . S
C111 C110 1.391 . S
H112 C120 0.950 . S
H113 C125 0.950 . S
H114 C122 0.950 1_655 S
H115 C124 0.950 . S
H116 C126 0.950 . S
H117 C128 0.950 . S
H118 C130 0.950 . S
H119 C131 0.950 . S
C120 H112 0.950 . S
C120 C121 1.386 . S
C120 C122 1.391 . S
C121 C120 1.386 . S
C121 C125 1.393 . S
C122 H114 0.950 1_455 S
C122 C120 1.391 . S
C122 C123 1.400 . S
C123 C122 1.400 . S
C123 C124 1.398 . S
C123 C129 1.491 . S
C124 H115 0.950 . S
C124 C123 1.398 . S
C124 C125 1.391 . S
C125 H113 0.950 . S
C125 C121 1.393 . S
C125 C124 1.391 . S
C126 H116 0.950 . S
C126 C127 1.386 1_455 S
C126 C128 1.391 . S
C127 C126 1.386 1_655 S
C127 C131 1.393 . S
C128 H117 0.950 . S
C128 C126 1.391 . S
C128 C129 1.400 . S
C129 C123 1.491 . S
C129 C128 1.400 . S
C129 C130 1.398 1_455 S
C130 H118 0.950 . S
C130 C129 1.398 1_655 S
C130 C131 1.391 . S
C131 H119 0.950 . S
C131 C127 1.393 . S
C131 C130 1.391 . S
H132 C140 0.950 . S
H133 C145 0.950 . S
H134 C142 0.950 1_655 S
H135 C144 0.950 . S
H136 C146 0.950 . S
H137 C148 0.950 . S
H138 C150 0.950 . S
H139 C151 0.950 . S
C140 H132 0.950 . S
C140 C141 1.386 . S
C140 C142 1.391 . S
C141 C140 1.386 . S
C141 C145 1.393 . S
C142 H134 0.950 1_455 S
C142 C140 1.391 . S
C142 C143 1.400 . S
C143 C142 1.400 . S
C143 C144 1.398 . S
C143 C149 1.491 . S
C144 H135 0.950 . S
C144 C143 1.398 . S
C144 C145 1.391 . S
C145 H133 0.950 . S
C145 C141 1.393 . S
C145 C144 1.391 . S
C146 H136 0.950 . S
C146 C147 1.386 1_455 S
C146 C148 1.391 . S
C147 C146 1.386 1_655 S
C147 C151 1.393 . S
C148 H137 0.950 . S
C148 C146 1.391 . S
C148 C149 1.400 . S
C149 C143 1.491 . S
C149 C148 1.400 . S
C149 C150 1.398 1_455 S
C150 H138 0.950 . S
C150 C149 1.398 1_655 S
C150 C151 1.391 . S
C151 H139 0.950 . S
C151 C147 1.393 . S
C151 C150 1.391 . S
H152 C160 0.950 . S
H153 C165 0.950 . S
H154 C162 0.950 . S
H155 C164 0.950 1_455 S
H156 C166 0.950 . S
H157 C168 0.950 . S
H158 C170 0.950 . S
H159 C171 0.950 . S
C160 H152 0.950 . S
C160 C161 1.386 . S
C160 C162 1.391 . S
C161 C160 1.386 . S
C161 C165 1.393 . S
C162 H154 0.950 . S
C162 C160 1.391 . S
C162 C163 1.400 . S
C163 C162 1.400 . S
C163 C164 1.398 . S
C163 C169 1.491 . S
C164 H155 0.950 1_655 S
C164 C163 1.398 . S
C164 C165 1.391 . S
C165 H153 0.950 . S
C165 C161 1.393 . S
C165 C164 1.391 . S
C166 H156 0.950 . S
C166 C167 1.386 . S
C166 C168 1.391 . S
C167 C166 1.386 . S
C167 C171 1.393 1_455 S
C168 H157 0.950 . S
C168 C166 1.391 . S
C168 C169 1.400 1_455 S
C169 C163 1.491 . S
C169 C168 1.400 1_655 S
C169 C170 1.398 . S
C170 H158 0.950 . S
C170 C169 1.398 . S
C170 C171 1.391 . S
C171 H159 0.950 . S
C171 C167 1.393 1_655 S
C171 C170 1.391 . S
H172 C180 0.950 . S
H173 C185 0.950 . S
H174 C182 0.950 1_455 S
H175 C184 0.950 . S
H176 C186 0.950 . S
H177 C188 0.950 1_655 S
H178 C190 0.950 . S
H179 C191 0.950 . S
C180 H172 0.950 . S
C180 C181 1.386 . S
C180 C182 1.391 . S
C181 C180 1.386 . S
C181 C185 1.393 . S
C182 H174 0.950 1_655 S
C182 C180 1.391 . S
C182 C183 1.400 . S
C183 C182 1.400 . S
C183 C184 1.398 . S
C183 C189 1.491 1_655 S
C184 H175 0.950 . S
C184 C183 1.398 . S
C184 C185 1.391 . S
C185 H173 0.950 . S
C185 C181 1.393 . S
C185 C184 1.391 . S
C186 H176 0.950 . S
C186 C187 1.386 . S
C186 C188 1.391 . S
C187 C186 1.386 . S
C187 C191 1.393 . S
C188 H177 0.950 1_455 S
C188 C186 1.391 . S
C188 C189 1.400 . S
C189 C183 1.491 1_455 S
C189 C188 1.400 . S
C189 C190 1.398 . S
C190 H178 0.950 . S
C190 C189 1.398 . S
C190 C191 1.391 . S
C191 H179 0.950 . S
C191 C187 1.393 . S
C191 C190 1.391 . S
H192 C200 0.950 . S
H193 C205 0.948 1_556 S
H194 C202 0.950 . S
H195 C204 0.950 . S
H196 C206 0.950 . S
H197 C208 0.950 . S
H198 C210 0.950 . S
H199 C211 0.948 1_554 S
C200 H192 0.950 . S
C200 C201 1.386 1_545 S
C200 C202 1.391 . S
C201 C200 1.386 1_565 S
C201 C205 1.393 . S
C202 H194 0.950 . S
C202 C200 1.391 . S
C202 C203 1.400 1_545 S
C203 C202 1.400 1_565 S
C203 C204 1.398 1_554 S
C203 C209 1.491 1_664 S
C204 H195 0.950 . S
C204 C203 1.398 1_556 S
C204 C205 1.391 1_556 S
C205 H193 0.948 1_554 S
C205 C201 1.393 . S
C205 C204 1.391 1_554 S
C206 H196 0.950 . S
C206 C207 1.386 1_565 S
C206 C208 1.391 . S
C207 C206 1.386 1_545 S
C207 C211 1.393 . S
C208 H197 0.950 . S
C208 C206 1.391 . S
C208 C209 1.400 1_565 S
C209 C203 1.491 1_446 S
C209 C208 1.400 1_545 S
C209 C210 1.398 1_556 S
C210 H198 0.950 . S
C210 C209 1.398 1_554 S
C210 C211 1.391 1_554 S
C211 H199 0.948 1_556 S
C211 C207 1.393 . S
C211 C210 1.391 1_556 S
H212 C220 0.950 . S
H213 C225 0.950 . S
H214 C222 0.950 . S
H215 C224 0.950 . S
H216 C226 0.950 . S
H217 C228 0.950 . S
H218 C230 0.950 . S
H219 C231 0.950 . S
C220 H212 0.950 . S
C220 C221 1.386 . S
C220 C222 1.391 . S
C221 C220 1.386 . S
C221 C225 1.393 . S
C222 H214 0.950 . S
C222 C220 1.391 . S
C222 C223 1.400 . S
C223 C222 1.400 . S
C223 C224 1.398 . S
C223 C229 1.491 . S
C224 H215 0.950 . S
C224 C223 1.398 . S
C224 C225 1.391 . S
C225 H213 0.950 . S
C225 C221 1.393 . S
C225 C224 1.391 . S
C226 H216 0.950 . S
C226 C227 1.386 . S
C226 C228 1.391 . S
C227 C226 1.386 . S
C227 C231 1.393 . S
C228 H217 0.950 . S
C228 C226 1.391 . S
C228 C229 1.400 . S
C229 C223 1.491 . S
C229 C228 1.400 . S
C229 C230 1.398 . S
C230 H218 0.950 . S
C230 C229 1.398 . S
C230 C231 1.391 . S
C231 H219 0.950 . S
C231 C227 1.393 . S
C231 C230 1.391 . S
H232 C240 0.950 . S
H233 C245 0.950 . S
H234 C242 0.950 . S
H235 C244 0.950 . S
H236 C246 0.950 . S
H237 C248 0.950 . S
H238 C250 0.950 . S
H239 C251 0.950 . S
C240 H232 0.950 . S
C240 C241 1.386 . S
C240 C242 1.391 . S
C241 C240 1.386 . S
C241 C245 1.393 . S
C242 H234 0.950 . S
C242 C240 1.391 . S
C242 C243 1.400 . S
C243 C242 1.400 . S
C243 C244 1.398 . S
C243 C249 1.491 . S
C244 H235 0.950 . S
C244 C243 1.398 . S
C244 C245 1.391 . S
C245 H233 0.950 . S
C245 C241 1.393 . S
C245 C244 1.391 . S
C246 H236 0.950 . S
C246 C247 1.386 . S
C246 C248 1.391 . S
C247 C246 1.386 . S
C247 C251 1.393 . S
C248 H237 0.950 . S
C248 C246 1.391 . S
C248 C249 1.400 . S
C249 C243 1.491 . S
C249 C248 1.400 . S
C249 C250 1.398 . S
C250 H238 0.950 . S
C250 C249 1.398 . S
C250 C251 1.391 . S
C251 H239 0.950 . S
C251 C247 1.393 . S
C251 C250 1.391 . S
H252 C260 0.950 . S
H253 C265 0.950 . S
H254 C262 0.950 . S
H255 C264 0.950 . S
H256 C266 0.950 . S
H257 C268 0.950 . S
H258 C270 0.950 . S
H259 C271 0.950 . S
C260 H252 0.950 . S
C260 C261 1.386 . S
C260 C262 1.391 . S
C261 C260 1.386 . S
C261 C265 1.393 . S
C262 H254 0.950 . S
C262 C260 1.391 . S
C262 C263 1.400 . S
C263 C262 1.400 . S
C263 C264 1.398 . S
C263 C269 1.491 . S
C264 H255 0.950 . S
C264 C263 1.398 . S
C264 C265 1.391 . S
C265 H253 0.950 . S
C265 C261 1.393 . S
C265 C264 1.391 . S
C266 H256 0.950 . S
C266 C267 1.386 . S
C266 C268 1.391 . S
C267 C266 1.386 . S
C267 C271 1.393 . S
C268 H257 0.950 . S
C268 C266 1.391 . S
C268 C269 1.400 . S
C269 C263 1.491 . S
C269 C268 1.400 . S
C269 C270 1.398 . S
C270 H258 0.950 . S
C270 C269 1.398 . S
C270 C271 1.391 . S
C271 H259 0.950 . S
C271 C267 1.393 . S
C271 C270 1.391 . S
H272 C280 0.950 . S
H273 C285 0.950 . S
H274 C282 0.950 . S
H275 C284 0.950 . S
H276 C286 0.950 . S
H277 C288 0.950 . S
H278 C290 0.950 . S
H279 C291 0.950 . S
C280 H272 0.950 . S
C280 C281 1.386 . S
C280 C282 1.391 . S
C281 C280 1.386 . S
C281 C285 1.393 . S
C282 H274 0.950 . S
C282 C280 1.391 . S
C282 C283 1.400 . S
C283 C282 1.400 . S
C283 C284 1.398 . S
C283 C289 1.491 . S
C284 H275 0.950 . S
C284 C283 1.398 . S
C284 C285 1.391 . S
C285 H273 0.950 . S
C285 C281 1.393 . S
C285 C284 1.391 . S
C286 H276 0.950 . S
C286 C287 1.386 . S
C286 C288 1.391 . S
C287 C286 1.386 . S
C287 C291 1.393 . S
C288 H277 0.950 . S
C288 C286 1.391 . S
C288 C289 1.400 . S
C289 C283 1.491 . S
C289 C288 1.400 . S
C289 C290 1.398 . S
C290 H278 0.950 . S
C290 C289 1.398 . S
C290 C291 1.391 . S
C291 H279 0.950 . S
C291 C287 1.393 . S
C291 C290 1.391 . S
H292 C300 0.950 . S
H293 C305 0.950 . S
H294 C302 0.950 . S
H295 C304 0.950 . S
H296 C306 0.950 . S
H297 C308 0.950 . S
H298 C310 0.950 . S
H299 C311 0.950 . S
C300 H292 0.950 . S
C300 C301 1.386 . S
C300 C302 1.391 . S
C301 C300 1.386 . S
C301 C305 1.393 . S
C302 H294 0.950 . S
C302 C300 1.391 . S
C302 C303 1.400 . S
C303 C302 1.400 . S
C303 C304 1.398 . S
C303 C309 1.491 . S
C304 H295 0.950 . S
C304 C303 1.398 . S
C304 C305 1.391 . S
C305 H293 0.950 . S
C305 C301 1.393 . S
C305 C304 1.391 . S
C306 H296 0.950 . S
C306 C307 1.386 . S
C306 C308 1.391 . S
C307 C306 1.386 . S
C307 C311 1.393 . S
C308 H297 0.950 . S
C308 C306 1.391 . S
C308 C309 1.400 . S
C309 C303 1.491 . S
C309 C308 1.400 . S
C309 C310 1.398 . S
C310 H298 0.950 . S
C310 C309 1.398 . S
C310 C311 1.391 . S
C311 H299 0.950 . S
C311 C307 1.393 . S
C311 C310 1.391 . S
H312 C320 0.950 . S
H313 C325 0.950 . S
H314 C322 0.950 . S
H315 C324 0.950 . S
H316 C326 0.950 . S
H317 C328 0.950 . S
H318 C330 0.950 . S
H319 C331 0.950 . S
C320 H312 0.950 . S
C320 C321 1.386 1_565 S
C320 C322 1.391 . S
C321 C320 1.386 1_545 S
C321 C325 1.393 . S
C322 H314 0.950 . S
C322 C320 1.391 . S
C322 C323 1.400 1_565 S
C323 C322 1.400 1_545 S
C323 C324 1.398 1_556 S
C323 C329 1.491 1_546 S
C324 H315 0.950 . S
C324 C323 1.398 1_554 S
C324 C325 1.391 1_554 S
C325 H313 0.950 . S
C325 C321 1.393 . S
C325 C324 1.391 1_556 S
C326 H316 0.950 . S
C326 C327 1.386 1_545 S
C326 C328 1.391 . S
C327 C326 1.386 1_565 S
C327 C331 1.393 . S
C328 H317 0.950 . S
C328 C326 1.391 . S
C328 C329 1.400 1_545 S
C329 C323 1.491 1_564 S
C329 C328 1.400 1_565 S
C329 C330 1.398 1_554 S
C330 H318 0.950 . S
C330 C329 1.398 1_556 S
C330 C331 1.391 1_556 S
C331 H319 0.950 . S
C331 C327 1.393 . S
C331 C330 1.391 1_554 S
C101 C44 1.664 1_545 S
C107 C19 1.609 . S
C121 C21 1.663 . S
C127 C42 1.613 . S
C141 C90 1.666 1_565 S
C147 C65 1.630 . S
C161 C67 1.663 . S
C167 C88 1.614 . S
C181 C62 0.864 . S
C187 C16 0.864 . S
C201 C39 0.836 . S
C207 C85 0.836 . S
C221 C87 1.580 1_554 S
C227 C17 1.574 . S
C241 C40 1.573 . S
C247 C64 1.580 . S
C261 C41 1.590 1_556 S
C267 C63 1.569 . S
C281 C86 1.564 . S
C287 C18 1.586 . S
C301 C20 1.321 . S
C307 C66 1.321 . S
C321 C89 1.321 . S
C327 C43 1.321 . S
