# Generated by pormake.
# Topology ukp, (4)-cn, num edge types: 1
# Building blocks:
#     Node 0, Type 0, BuildingBlock: ESEHIV_clean_sbu_0, # of connection points: 4
#     Node 1, Type 0, BuildingBlock: ESEHIV_clean_sbu_0, # of connection points: 4
#     Node 2, Type 0, BuildingBlock: ESEHIV_clean_sbu_0, # of connection points: 4
#     Node 3, Type 0, BuildingBlock: ESEHIV_clean_sbu_0, # of connection points: 4
#     Node 4, Type 0, BuildingBlock: ESEHIV_clean_sbu_0, # of connection points: 4
#     Node 5, Type 0, BuildingBlock: ESEHIV_clean_sbu_0, # of connection points: 4
#     Node 6, Type 0, BuildingBlock: ESEHIV_clean_sbu_0, # of connection points: 4
#     Node 7, Type 0, BuildingBlock: ESEHIV_clean_sbu_0, # of connection points: 4
#     Node 8, Type 0, BuildingBlock: ESEHIV_clean_sbu_0, # of connection points: 4
#     Node 9, Type 0, BuildingBlock: ESEHIV_clean_sbu_0, # of connection points: 4
#     Node 10, Type 0, BuildingBlock: ESEHIV_clean_sbu_0, # of connection points: 4
#     Node 11, Type 0, BuildingBlock: ESEHIV_clean_sbu_0, # of connection points: 4
#     Node 12, Type 0, BuildingBlock: ESEHIV_clean_sbu_0, # of connection points: 4
#     Node 13, Type 0, BuildingBlock: ESEHIV_clean_sbu_0, # of connection points: 4
#     Node 14, Type 0, BuildingBlock: ESEHIV_clean_sbu_0, # of connection points: 4
#     Node 15, Type 0, BuildingBlock: ESEHIV_clean_sbu_0, # of connection points: 4
#     Node 16, Type 0, BuildingBlock: ESEHIV_clean_sbu_0, # of connection points: 4
#     Node 17, Type 0, BuildingBlock: ESEHIV_clean_sbu_0, # of connection points: 4
#     Node 18, Type 0, BuildingBlock: ESEHIV_clean_sbu_0, # of connection points: 4
#     Node 19, Type 0, BuildingBlock: ESEHIV_clean_sbu_0, # of connection points: 4
#     Node 20, Type 0, BuildingBlock: ESEHIV_clean_sbu_0, # of connection points: 4
#     Node 21, Type 0, BuildingBlock: ESEHIV_clean_sbu_0, # of connection points: 4
#     Node 22, Type 0, BuildingBlock: ESEHIV_clean_sbu_0, # of connection points: 4
#     Node 23, Type 0, BuildingBlock: ESEHIV_clean_sbu_0, # of connection points: 4
#     Node 24, Type 0, BuildingBlock: ESEHIV_clean_sbu_0, # of connection points: 4
#     Node 25, Type 0, BuildingBlock: ESEHIV_clean_sbu_0, # of connection points: 4
#     Node 26, Type 0, BuildingBlock: ESEHIV_clean_sbu_0, # of connection points: 4
#     Node 27, Type 0, BuildingBlock: ESEHIV_clean_sbu_0, # of connection points: 4
#     Node 28, Type 0, BuildingBlock: ESEHIV_clean_sbu_0, # of connection points: 4
#     Node 29, Type 0, BuildingBlock: ESEHIV_clean_sbu_0, # of connection points: 4
#     Node 30, Type 0, BuildingBlock: ESEHIV_clean_sbu_0, # of connection points: 4
#     Node 31, Type 0, BuildingBlock: ESEHIV_clean_sbu_0, # of connection points: 4
#     Node 32, Type 0, BuildingBlock: ESEHIV_clean_sbu_0, # of connection points: 4
#     Node 33, Type 0, BuildingBlock: ESEHIV_clean_sbu_0, # of connection points: 4
#     Node 34, Type 0, BuildingBlock: ESEHIV_clean_sbu_0, # of connection points: 4
#     Node 35, Type 0, BuildingBlock: ESEHIV_clean_sbu_0, # of connection points: 4
#     Node 36, Type 0, BuildingBlock: ESEHIV_clean_sbu_0, # of connection points: 4
#     Node 37, Type 0, BuildingBlock: ESEHIV_clean_sbu_0, # of connection points: 4
#     Node 38, Type 0, BuildingBlock: ESEHIV_clean_sbu_0, # of connection points: 4
#     Node 39, Type 0, BuildingBlock: ESEHIV_clean_sbu_0, # of connection points: 4
#     Node 40, Type 0, BuildingBlock: ESEHIV_clean_sbu_0, # of connection points: 4
#     Node 41, Type 0, BuildingBlock: ESEHIV_clean_sbu_0, # of connection points: 4
#     Node 42, Type 0, BuildingBlock: ESEHIV_clean_sbu_0, # of connection points: 4
#     Node 43, Type 0, BuildingBlock: ESEHIV_clean_sbu_0, # of connection points: 4
#     Node 44, Type 0, BuildingBlock: ESEHIV_clean_sbu_0, # of connection points: 4
#     Node 45, Type 0, BuildingBlock: ESEHIV_clean_sbu_0, # of connection points: 4
#     Node 46, Type 0, BuildingBlock: ESEHIV_clean_sbu_0, # of connection points: 4
#     Node 47, Type 0, BuildingBlock: ESEHIV_clean_sbu_0, # of connection points: 4
#     Edge 48, Type (0, 0), BuildingBlock: OJICUG_clean_linker_0, # of connection points: 2
#     Edge 49, Type (0, 0), BuildingBlock: OJICUG_clean_linker_0, # of connection points: 2
#     Edge 50, Type (0, 0), BuildingBlock: OJICUG_clean_linker_0, # of connection points: 2
#     Edge 51, Type (0, 0), BuildingBlock: OJICUG_clean_linker_0, # of connection points: 2
#     Edge 52, Type (0, 0), BuildingBlock: OJICUG_clean_linker_0, # of connection points: 2
#     Edge 53, Type (0, 0), BuildingBlock: OJICUG_clean_linker_0, # of connection points: 2
#     Edge 54, Type (0, 0), BuildingBlock: OJICUG_clean_linker_0, # of connection points: 2
#     Edge 55, Type (0, 0), BuildingBlock: OJICUG_clean_linker_0, # of connection points: 2
#     Edge 56, Type (0, 0), BuildingBlock: OJICUG_clean_linker_0, # of connection points: 2
#     Edge 57, Type (0, 0), BuildingBlock: OJICUG_clean_linker_0, # of connection points: 2
#     Edge 58, Type (0, 0), BuildingBlock: OJICUG_clean_linker_0, # of connection points: 2
#     Edge 59, Type (0, 0), BuildingBlock: OJICUG_clean_linker_0, # of connection points: 2
#     Edge 60, Type (0, 0), BuildingBlock: OJICUG_clean_linker_0, # of connection points: 2
#     Edge 61, Type (0, 0), BuildingBlock: OJICUG_clean_linker_0, # of connection points: 2
#     Edge 62, Type (0, 0), BuildingBlock: OJICUG_clean_linker_0, # of connection points: 2
#     Edge 63, Type (0, 0), BuildingBlock: OJICUG_clean_linker_0, # of connection points: 2
#     Edge 64, Type (0, 0), BuildingBlock: OJICUG_clean_linker_0, # of connection points: 2
#     Edge 65, Type (0, 0), BuildingBlock: OJICUG_clean_linker_0, # of connection points: 2
#     Edge 66, Type (0, 0), BuildingBlock: OJICUG_clean_linker_0, # of connection points: 2
#     Edge 67, Type (0, 0), BuildingBlock: OJICUG_clean_linker_0, # of connection points: 2
#     Edge 68, Type (0, 0), BuildingBlock: OJICUG_clean_linker_0, # of connection points: 2
#     Edge 69, Type (0, 0), BuildingBlock: OJICUG_clean_linker_0, # of connection points: 2
#     Edge 70, Type (0, 0), BuildingBlock: OJICUG_clean_linker_0, # of connection points: 2
#     Edge 71, Type (0, 0), BuildingBlock: OJICUG_clean_linker_0, # of connection points: 2
#     Edge 72, Type (0, 0), BuildingBlock: OJICUG_clean_linker_0, # of connection points: 2
#     Edge 73, Type (0, 0), BuildingBlock: OJICUG_clean_linker_0, # of connection points: 2
#     Edge 74, Type (0, 0), BuildingBlock: OJICUG_clean_linker_0, # of connection points: 2
#     Edge 75, Type (0, 0), BuildingBlock: OJICUG_clean_linker_0, # of connection points: 2
#     Edge 76, Type (0, 0), BuildingBlock: OJICUG_clean_linker_0, # of connection points: 2
#     Edge 77, Type (0, 0), BuildingBlock: OJICUG_clean_linker_0, # of connection points: 2
#     Edge 78, Type (0, 0), BuildingBlock: OJICUG_clean_linker_0, # of connection points: 2
#     Edge 79, Type (0, 0), BuildingBlock: OJICUG_clean_linker_0, # of connection points: 2
#     Edge 80, Type (0, 0), BuildingBlock: OJICUG_clean_linker_0, # of connection points: 2
#     Edge 81, Type (0, 0), BuildingBlock: OJICUG_clean_linker_0, # of connection points: 2
#     Edge 82, Type (0, 0), BuildingBlock: OJICUG_clean_linker_0, # of connection points: 2
#     Edge 83, Type (0, 0), BuildingBlock: OJICUG_clean_linker_0, # of connection points: 2
#     Edge 84, Type (0, 0), BuildingBlock: OJICUG_clean_linker_0, # of connection points: 2
#     Edge 85, Type (0, 0), BuildingBlock: OJICUG_clean_linker_0, # of connection points: 2
#     Edge 86, Type (0, 0), BuildingBlock: OJICUG_clean_linker_0, # of connection points: 2
#     Edge 87, Type (0, 0), BuildingBlock: OJICUG_clean_linker_0, # of connection points: 2
#     Edge 88, Type (0, 0), BuildingBlock: OJICUG_clean_linker_0, # of connection points: 2
#     Edge 89, Type (0, 0), BuildingBlock: OJICUG_clean_linker_0, # of connection points: 2
#     Edge 90, Type (0, 0), BuildingBlock: OJICUG_clean_linker_0, # of connection points: 2
#     Edge 91, Type (0, 0), BuildingBlock: OJICUG_clean_linker_0, # of connection points: 2
#     Edge 92, Type (0, 0), BuildingBlock: OJICUG_clean_linker_0, # of connection points: 2
#     Edge 93, Type (0, 0), BuildingBlock: OJICUG_clean_linker_0, # of connection points: 2
#     Edge 94, Type (0, 0), BuildingBlock: OJICUG_clean_linker_0, # of connection points: 2
#     Edge 95, Type (0, 0), BuildingBlock: OJICUG_clean_linker_0, # of connection points: 2
#     Edge 96, Type (0, 0), BuildingBlock: OJICUG_clean_linker_0, # of connection points: 2
#     Edge 97, Type (0, 0), BuildingBlock: OJICUG_clean_linker_0, # of connection points: 2
#     Edge 98, Type (0, 0), BuildingBlock: OJICUG_clean_linker_0, # of connection points: 2
#     Edge 99, Type (0, 0), BuildingBlock: OJICUG_clean_linker_0, # of connection points: 2
#     Edge 100, Type (0, 0), BuildingBlock: OJICUG_clean_linker_0, # of connection points: 2
#     Edge 101, Type (0, 0), BuildingBlock: OJICUG_clean_linker_0, # of connection points: 2
#     Edge 102, Type (0, 0), BuildingBlock: OJICUG_clean_linker_0, # of connection points: 2
#     Edge 103, Type (0, 0), BuildingBlock: OJICUG_clean_linker_0, # of connection points: 2
#     Edge 104, Type (0, 0), BuildingBlock: OJICUG_clean_linker_0, # of connection points: 2
#     Edge 105, Type (0, 0), BuildingBlock: OJICUG_clean_linker_0, # of connection points: 2
#     Edge 106, Type (0, 0), BuildingBlock: OJICUG_clean_linker_0, # of connection points: 2
#     Edge 107, Type (0, 0), BuildingBlock: OJICUG_clean_linker_0, # of connection points: 2
#     Edge 108, Type (0, 0), BuildingBlock: OJICUG_clean_linker_0, # of connection points: 2
#     Edge 109, Type (0, 0), BuildingBlock: OJICUG_clean_linker_0, # of connection points: 2
#     Edge 110, Type (0, 0), BuildingBlock: OJICUG_clean_linker_0, # of connection points: 2
#     Edge 111, Type (0, 0), BuildingBlock: OJICUG_clean_linker_0, # of connection points: 2
#     Edge 112, Type (0, 0), BuildingBlock: OJICUG_clean_linker_0, # of connection points: 2
#     Edge 113, Type (0, 0), BuildingBlock: OJICUG_clean_linker_0, # of connection points: 2
#     Edge 114, Type (0, 0), BuildingBlock: OJICUG_clean_linker_0, # of connection points: 2
#     Edge 115, Type (0, 0), BuildingBlock: OJICUG_clean_linker_0, # of connection points: 2
#     Edge 116, Type (0, 0), BuildingBlock: OJICUG_clean_linker_0, # of connection points: 2
#     Edge 117, Type (0, 0), BuildingBlock: OJICUG_clean_linker_0, # of connection points: 2
#     Edge 118, Type (0, 0), BuildingBlock: OJICUG_clean_linker_0, # of connection points: 2
#     Edge 119, Type (0, 0), BuildingBlock: OJICUG_clean_linker_0, # of connection points: 2
#     Edge 120, Type (0, 0), BuildingBlock: OJICUG_clean_linker_0, # of connection points: 2
#     Edge 121, Type (0, 0), BuildingBlock: OJICUG_clean_linker_0, # of connection points: 2
#     Edge 122, Type (0, 0), BuildingBlock: OJICUG_clean_linker_0, # of connection points: 2
#     Edge 123, Type (0, 0), BuildingBlock: OJICUG_clean_linker_0, # of connection points: 2
#     Edge 124, Type (0, 0), BuildingBlock: OJICUG_clean_linker_0, # of connection points: 2
#     Edge 125, Type (0, 0), BuildingBlock: OJICUG_clean_linker_0, # of connection points: 2
#     Edge 126, Type (0, 0), BuildingBlock: OJICUG_clean_linker_0, # of connection points: 2
#     Edge 127, Type (0, 0), BuildingBlock: OJICUG_clean_linker_0, # of connection points: 2
#     Edge 128, Type (0, 0), BuildingBlock: OJICUG_clean_linker_0, # of connection points: 2
#     Edge 129, Type (0, 0), BuildingBlock: OJICUG_clean_linker_0, # of connection points: 2
#     Edge 130, Type (0, 0), BuildingBlock: OJICUG_clean_linker_0, # of connection points: 2
#     Edge 131, Type (0, 0), BuildingBlock: OJICUG_clean_linker_0, # of connection points: 2
#     Edge 132, Type (0, 0), BuildingBlock: OJICUG_clean_linker_0, # of connection points: 2
#     Edge 133, Type (0, 0), BuildingBlock: OJICUG_clean_linker_0, # of connection points: 2
#     Edge 134, Type (0, 0), BuildingBlock: OJICUG_clean_linker_0, # of connection points: 2
#     Edge 135, Type (0, 0), BuildingBlock: OJICUG_clean_linker_0, # of connection points: 2
#     Edge 136, Type (0, 0), BuildingBlock: OJICUG_clean_linker_0, # of connection points: 2
#     Edge 137, Type (0, 0), BuildingBlock: OJICUG_clean_linker_0, # of connection points: 2
#     Edge 138, Type (0, 0), BuildingBlock: OJICUG_clean_linker_0, # of connection points: 2
#     Edge 139, Type (0, 0), BuildingBlock: OJICUG_clean_linker_0, # of connection points: 2
#     Edge 140, Type (0, 0), BuildingBlock: OJICUG_clean_linker_0, # of connection points: 2
#     Edge 141, Type (0, 0), BuildingBlock: OJICUG_clean_linker_0, # of connection points: 2
#     Edge 142, Type (0, 0), BuildingBlock: OJICUG_clean_linker_0, # of connection points: 2
#     Edge 143, Type (0, 0), BuildingBlock: OJICUG_clean_linker_0, # of connection points: 2
# Relax obj value: 0.093
# Max RMSD: 0.155
# Mean RMSD: 0.155
data_MOF--net-ukp--node1-ESEHIV_clean_sbu_0--edge1-OJICUG_clean_linker_0
_symmetry_space_group_name_H-M    P1
_symmetry_Int_Tables_number       1
_symmetry_cell_setting            triclinic
loop_
_symmetry_equiv_pos_as_xyz
'x, y, z'
_cell_length_a     52.108657
_cell_length_b     52.157807
_cell_length_c     52.158923
_cell_angle_alpha  90.059457
_cell_angle_beta   90.006737
_cell_angle_gamma 89.885072
loop_
_atom_site_label
_atom_site_type_symbol
_atom_site_fract_x
_atom_site_fract_y
_atom_site_fract_z
_atom_type_partial_charge
Cu0 Cu 0.21072 0.30376 0.3986 0.0
N1 N 0.20505 0.31864 0.36615 0.0
N2 N 0.2126 0.3385 0.32877 0.0
C3 C 0.22277 0.32987 0.35098 0.0
C4 C 0.18755 0.33209 0.3298 0.0
C5 C 0.18299 0.31984 0.35274 0.0
O6 O 0.23942 0.28003 0.39478 0.0
C7 C 0.22455 0.35302 0.42014 0.0
O8 O 0.23583 0.3579 0.39821 0.0
H9 H 0.24288 0.33122 0.35584 0.0
H10 H 0.16485 0.31203 0.35886 0.0
N11 N 0.18157 0.28574 0.40975 0.0
N12 N 0.15633 0.25871 0.43187 0.0
C13 C 0.18051 0.26396 0.42373 0.0
C14 C 0.15738 0.29471 0.40932 0.0
C15 C 0.14182 0.27806 0.42252 0.0
C16 C 0.26243 0.28758 0.39181 0.0
O17 O 0.26772 0.312 0.39488 0.0
H18 H 0.1974 0.25305 0.42893 0.0
H19 H 0.1516 0.31287 0.40118 0.0
O20 O 0.2153 0.33078 0.42416 0.0
H21 H 0.17347 0.33598 0.31505 0.0
H22 H 0.12144 0.28062 0.42547 0.0
Cu23 Cu 0.98164 0.9621 0.65017 0.0
N24 N 0.96452 0.95513 0.61941 0.0
N25 N 0.94307 0.96202 0.58288 0.0
C26 C 0.95783 0.97248 0.60143 0.0
C27 C 0.94029 0.93718 0.58952 0.0
C28 C 0.95324 0.93308 0.6122 0.0
O29 O 1.00124 0.99335 0.6443 0.0
C30 C 0.95085 0.95165 0.69477 0.0
O31 O 0.96873 0.93496 0.70075 0.0
H32 H 0.96335 0.99246 0.60218 0.0
H33 H 0.95357 0.9155 0.62317 0.0
N34 N 1.0043 0.93518 0.65894 0.0
N35 N 0.0333 0.9112 0.67995 0.0
C36 C 0.02015 0.93363 0.67941 0.0
C37 C 1.00813 0.91329 0.64579 0.0
C38 C 0.02581 0.89849 0.65869 0.0
C39 C 0.02147 0.99156 0.63065 0.0
O40 O 0.02875 0.96883 0.62255 0.0
H41 H 0.02143 0.94837 0.69397 0.0
H42 H 0.99892 0.90842 0.6279 0.0
O43 O 0.954 0.9661 0.67532 0.0
H44 H 0.92888 0.92322 0.57923 0.0
H45 H 0.0328 0.87989 0.65265 0.0
Cu46 Cu 0.32222 0.73331 0.90162 0.0
N47 N 0.32514 0.71436 0.87116 0.0
N48 N 0.31348 0.68956 0.83807 0.0
C49 C 0.30556 0.70592 0.85654 0.0
C50 C 0.33919 0.68801 0.84087 0.0
C51 C 0.3463 0.70321 0.86138 0.0
O52 O 0.29197 0.75515 0.89867 0.0
C53 C 0.31254 0.68686 0.92832 0.0
O54 O 0.29786 0.68173 0.90853 0.0
H55 H 0.28576 0.71109 0.85983 0.0
H56 H 0.36538 0.70515 0.8693 0.0
N57 N 0.35016 0.75552 0.90536 0.0
N58 N 0.37622 0.785 0.92249 0.0
C59 C 0.35823 0.76695 0.92715 0.0
C60 C 0.3636 0.7666 0.88636 0.0
C61 C 0.37964 0.78482 0.89685 0.0
C62 C 0.26877 0.74768 0.89769 0.0
O63 O 0.26339 0.72353 0.90225 0.0
H64 H 0.34996 0.76323 0.94582 0.0
H65 H 0.36102 0.76255 0.86618 0.0
O66 O 0.32276 0.70899 0.93007 0.0
H67 H 0.35181 0.67585 0.82971 0.0
H68 H 0.3923 0.79747 0.88637 0.0
Cu69 Cu 0.55318 0.06768 0.15505 0.0
N70 N 0.57223 0.0719 0.12484 0.0
N71 N 0.59607 0.06067 0.09088 0.0
C72 C 0.57829 0.05312 0.10812 0.0
C73 C 0.60112 0.08536 0.09674 0.0
C74 C 0.58655 0.09216 0.11781 0.0
O75 O 0.53036 0.03862 0.14996 0.0
C76 C 0.59984 0.05495 0.18051 0.0
O77 O 0.60508 0.04236 0.15933 0.0
H78 H 0.57061 0.03393 0.10923 0.0
H79 H 0.58745 0.11011 0.12817 0.0
N80 N 0.5324 0.09629 0.16177 0.0
N81 N 0.50411 0.12196 0.18161 0.0
C82 C 0.51644 0.09911 0.18194 0.0
C83 C 0.53003 0.11802 0.1481 0.0
C84 C 0.51269 0.13391 0.16031 0.0
C85 C 0.53738 1.01531 0.14837 0.0
O86 O 0.5613 1.00922 0.15347 0.0
H87 H 0.51418 0.08474 0.19672 0.0
H88 H 0.54005 0.12202 0.13041 0.0
O89 O 0.57762 0.06486 0.18328 0.0
H90 H 0.6154 0.09718 0.08745 0.0
H91 H 0.50654 0.15261 0.15373 0.0
Cu92 Cu 0.21018 0.73498 0.13835 0.0
N93 N 0.20323 0.71842 0.16931 0.0
N94 N 0.21033 0.69601 0.20518 0.0
C95 C 0.22105 0.70857 0.18525 0.0
C96 C 0.18474 0.69805 0.20157 0.0
C97 C 0.18043 0.71167 0.17929 0.0
O98 O 0.24272 0.75269 0.14346 0.0
C99 C 0.19201 0.70163 0.09996 0.0
O100 O 0.17121 0.71566 0.10229 0.0
H101 H 0.2415 0.71058 0.18222 0.0
H102 H 0.16201 0.71588 0.17071 0.0
N103 N 0.1846 0.75939 0.13025 0.0
N104 N 0.16184 0.78947 0.10961 0.0
C105 C 0.18075 0.77176 0.10778 0.0
C106 C 0.16749 0.76969 0.14666 0.0
C107 C 0.15356 0.78829 0.13406 0.0
C108 C 0.24242 0.7727 0.15752 0.0
O109 O 0.22044 0.78085 0.16675 0.0
H110 H 0.19202 0.76834 0.09067 0.0
H111 H 0.1658 0.76461 0.16668 0.0
O112 O 0.2119 0.70755 0.11285 0.0
H113 H 0.17018 0.68976 0.2138 0.0
H114 H 0.1386 0.80016 0.14225 0.0
Cu115 Cu 0.55528 0.96559 0.38097 0.0
N116 N 0.57234 0.96103 0.41217 0.0
N117 N 0.59557 0.97258 0.44636 0.0
C118 C 0.57961 0.98045 0.42754 0.0
C119 C 0.59819 0.94706 0.44288 0.0
C120 C 0.58404 0.94002 0.4216 0.0
O121 O 0.53479 0.99668 0.38494 0.0
C122 C 0.60106 0.98271 0.35742 0.0
O123 O 0.6003 1.00054 0.37521 0.0
H124 H 0.57411 1.00019 0.42426 0.0
H125 H 0.58355 0.92126 0.41279 0.0
N126 N 0.53408 0.93774 0.3726 0.0
N127 N 0.5071 0.91268 0.35042 0.0
C128 C 0.52018 0.93506 0.35094 0.0
C129 C 0.52957 0.91638 0.38632 0.0
C130 C 0.51303 0.90088 0.37269 0.0
C131 C 0.51418 0.99499 0.39799 0.0
O132 O 0.50687 0.97233 0.40615 0.0
H133 H 0.51989 0.94921 0.33579 0.0
H134 H 0.53752 0.91243 0.40504 0.0
O135 O 0.5821 0.96754 0.35515 0.0
H136 H 0.61062 0.93465 0.45397 0.0
H137 H 0.50551 0.88261 0.37898 0.0
Cu138 Cu 0.32613 0.29933 0.63692 0.0
N139 N 0.33014 0.31736 0.66775 0.0
N140 N 0.31932 0.34284 0.70066 0.0
C141 C 0.31094 0.32946 0.68015 0.0
C142 C 0.34493 0.33891 0.70129 0.0
C143 C 0.35159 0.32337 0.68082 0.0
O144 O 0.29591 0.27802 0.64097 0.0
C145 C 0.34405 0.33279 0.59897 0.0
O146 O 0.36568 0.32077 0.6037 0.0
H147 H 0.29115 0.32861 0.67414 0.0
H148 H 0.37076 0.31746 0.67548 0.0
N149 N 0.35322 0.27629 0.63075 0.0
N150 N 0.37679 0.24593 0.61144 0.0
C151 C 0.35868 0.26427 0.60844 0.0
C152 C 0.36828 0.26499 0.64843 0.0
C153 C 0.38282 0.24629 0.63659 0.0
C154 C 0.27273 0.28558 0.64171 0.0
O155 O 0.26728 0.30957 0.63631 0.0
H156 H 0.34864 0.268 0.59065 0.0
H157 H 0.36782 0.26918 0.66873 0.0
O158 O 0.32366 0.3256 0.61034 0.0
H159 H 0.35801 0.34728 0.71507 0.0
H160 H 0.39631 0.23349 0.64586 0.0
Cu161 Cu 0.98048 0.06795 0.87838 0.0
N162 N 0.96323 0.07223 0.90964 0.0
N163 N 0.94039 0.06031 0.94401 0.0
C164 C 0.95836 0.05341 0.92665 0.0
C165 C 0.93392 0.08461 0.93791 0.0
C166 C 0.9478 0.09178 0.91656 0.0
O167 O 1.00363 0.0389 0.88252 0.0
C168 C 0.95072 0.07414 0.83215 0.0
O169 O 0.97041 0.0869 0.82308 0.0
H170 H 0.96684 0.03453 0.92556 0.0
H171 H 0.94525 0.10924 0.90568 0.0
N172 N 1.00019 0.09698 0.87005 0.0
N173 N 0.02813 0.12265 0.84975 0.0
C174 C 0.01805 0.09878 0.85137 0.0
C175 C 0.9993 0.12035 0.88093 0.0
C176 C 1.01637 0.13618 0.86848 0.0
C177 C 0.99611 1.01581 0.88478 0.0
O178 O 0.97177 1.01047 0.881 0.0
H179 H 0.02296 0.08303 0.83876 0.0
H180 H 0.98711 0.12563 0.89684 0.0
O181 O 0.95272 0.06291 0.85373 0.0
H182 H 0.91888 0.09569 0.94701 0.0
H183 H 0.01996 0.15609 0.87307 0.0
Cu184 Cu 0.40183 0.21361 0.30212 0.0
N185 N 0.37067 0.20975 0.31976 0.0
N186 N 0.33648 0.22142 0.34309 0.0
C187 C 0.35447 0.22893 0.32605 0.0
C188 C 0.34124 0.19634 0.34734 0.0
C189 C 0.36246 0.18926 0.3331 0.0
O190 O 0.39875 0.2436 0.28009 0.0
C191 C 0.42567 0.22401 0.35012 0.0
O192 O 0.40465 0.23712 0.35485 0.0
H193 H 0.35657 0.24835 0.3192 0.0
H194 H 0.37217 0.17092 0.33368 0.0
N195 N 0.40869 0.18548 0.28079 0.0
N196 N 0.42939 0.16002 0.25295 0.0
C197 C 0.42968 0.18248 0.26594 0.0
C198 C 0.39454 0.16427 0.27702 0.0
C199 C 0.40727 0.14851 0.25994 0.0
C200 C 0.39743 0.26668 0.28788 0.0
O201 O 0.40127 0.2717 0.31225 0.0
H202 H 0.44502 0.19641 0.265 0.0
H203 H 0.3762 0.16053 0.28594 0.0
O204 O 0.42908 0.21469 0.32777 0.0
H205 H 0.33116 0.18441 0.36098 0.0
H206 H 0.40053 0.13019 0.25291 0.0
Cu207 Cu 0.07414 0.1463 0.5516 0.0
N208 N 0.08147 0.11522 0.56781 0.0
N209 N 0.07462 0.07868 0.58912 0.0
C210 C 0.0638 0.09847 0.57639 0.0
C211 C 0.10012 0.08322 0.58855 0.0
C212 C 0.10426 0.10591 0.57562 0.0
O213 O 0.04202 0.14092 0.53326 0.0
C214 C 0.08949 0.18666 0.5847 0.0
O215 O 0.10991 0.18699 0.56999 0.0
H216 H 0.04337 0.10085 0.57342 0.0
H217 H 0.12252 0.11528 0.57269 0.0
N218 N 0.09988 0.1553 0.52777 0.0
N219 N 0.12252 0.17749 0.49855 0.0
C220 C 0.10211 0.17755 0.51473 0.0
C221 C 0.11928 0.1405 0.51934 0.0
C222 C 0.13322 0.15404 0.50146 0.0
C223 C 0.04283 0.12736 0.51293 0.0
O224 O 0.06514 0.11891 0.50478 0.0
H225 H 0.08907 0.19347 0.51742 0.0
H226 H 0.12279 0.12098 0.52534 0.0
O227 O 0.07117 0.17143 0.57934 0.0
H228 H 0.11467 0.07136 0.59744 0.0
H229 H 0.1497 0.14678 0.49114 0.0
Cu230 Cu 0.13173 0.82018 0.80399 0.0
N231 N 0.162 0.82452 0.82298 0.0
N232 N 0.19526 0.81317 0.8477 0.0
C233 C 0.17847 0.80566 0.82949 0.0
C234 C 0.18952 0.83795 0.8525 0.0
C235 C 0.16884 0.84482 0.83738 0.0
O236 O 0.13675 0.79104 0.78104 0.0
C237 C 0.10684 0.80699 0.85069 0.0
O238 O 0.12809 0.79427 0.85537 0.0
H239 H 0.17734 0.78637 0.82201 0.0
H240 H 0.15848 0.86279 0.83812 0.0
N241 N 0.12473 0.84889 0.78348 0.0
N242 N 0.10455 0.87456 0.75546 0.0
C243 C 0.1044 0.85169 0.76771 0.0
C244 C 0.1383 0.87067 0.7811 0.0
C245 C 0.12589 0.88655 0.76392 0.0
C246 C 0.13884 0.76782 0.78819 0.0
O247 O 0.13441 0.76192 0.81225 0.0
H248 H 0.08968 0.83725 0.76549 0.0
H249 H 0.15609 0.87469 0.79096 0.0
O250 O 0.10372 0.8172 0.82869 0.0
H251 H 0.19847 0.84971 0.86706 0.0
H252 H 0.13241 0.90524 0.75775 0.0
Cu253 Cu 0.46779 0.88194 0.04831 0.0
N254 N 0.46287 0.91231 0.06659 0.0
N255 N 0.47345 0.94455 0.09287 0.0
C256 C 0.48213 0.92564 0.07741 0.0
C257 C 0.4476 0.94311 0.09156 0.0
C258 C 0.44113 0.92302 0.07553 0.0
O259 O 0.49989 0.88674 0.02966 0.0
C260 C 0.45 0.84202 0.08035 0.0
O261 O 0.42953 0.8435 0.06578 0.0
H262 H 0.50216 0.92102 0.07445 0.0
H263 H 0.422 0.91599 0.07166 0.0
N264 N 0.44109 0.87568 0.02471 0.0
N265 N 0.41724 0.85697 0.99428 0.0
C266 C 0.43704 0.85419 1.0108 0.0
C267 C 0.42326 0.89254 1.0166 0.0
C268 C 0.40861 0.88111 0.9978 0.0
C269 C 0.49926 0.90038 1.00939 0.0
O270 O 0.47706 0.90902 1.00115 0.0
H271 H 0.44874 0.83708 1.01233 0.0
H272 H 0.4215 0.91208 0.02333 0.0
O273 O 0.46953 0.85562 0.07492 0.0
H274 H 0.43432 0.95493 0.10232 0.0
H275 H 0.39288 0.88987 0.98743 0.0
Cu276 Cu 0.40232 0.82417 0.22825 0.0
N277 N 0.37044 0.83103 0.2131 0.0
N278 N 0.33265 0.82404 0.19407 0.0
C279 C 0.35138 0.81406 0.20892 0.0
C280 C 0.34007 0.84823 0.18884 0.0
C281 C 0.36352 0.85237 0.20033 0.0
O282 O 0.39764 0.79499 0.25119 0.0
C283 C 0.41923 0.808 0.17944 0.0
O284 O 0.39691 0.79638 0.17937 0.0
H285 H 0.35171 0.7945 0.2158 0.0
H286 H 0.37529 0.86931 0.19844 0.0
N287 N 0.41272 0.85224 0.24831 0.0
N288 N 0.43509 0.87699 0.27547 0.0
C289 C 0.43408 0.85429 0.26285 0.0
C290 C 0.39973 0.87425 0.25211 0.0
C291 C 0.41348 0.88954 0.26866 0.0
C292 C 0.39598 0.77164 0.24432 0.0
O293 O 0.40052 0.76544 0.22037 0.0
H294 H 0.44852 0.83941 0.26418 0.0
H295 H 0.38121 0.87872 0.24394 0.0
O296 O 0.42646 0.81948 0.1998 0.0
H297 H 0.32989 0.86149 0.17653 0.0
H298 H 0.40756 0.90813 0.27578 0.0
Cu299 Cu 0.46066 0.14746 0.48196 0.0
N300 N 0.45396 0.11739 0.46358 0.0
N301 N 0.46092 0.08169 0.44077 0.0
C302 C 0.47165 0.1007 0.45472 0.0
C303 C 0.43547 0.08661 0.44096 0.0
C304 C 0.43127 0.10875 0.45487 0.0
O305 O 0.49282 0.14183 0.50025 0.0
C306 C 0.47278 0.17345 0.43578 0.0
O307 O 0.48756 0.15348 0.43149 0.0
H308 H 0.49201 0.10252 0.45841 0.0
H309 H 0.41301 0.11812 0.45807 0.0
N310 N 0.43439 0.15434 0.50572 0.0
N311 N 0.41149 0.17372 0.53649 0.0
C312 C 0.43051 0.17624 0.51904 0.0
C313 C 0.41703 0.1376 0.5149 0.0
C314 C 0.40301 0.14944 0.53394 0.0
C315 C 0.49203 0.12734 0.51991 0.0
O316 O 0.46985 0.118 0.52727 0.0
H317 H 0.44212 0.19328 0.51678 0.0
H318 H 0.41536 0.11784 0.50886 0.0
O319 O 0.46141 0.1754 0.45731 0.0
H320 H 0.42099 0.07534 0.43127 0.0
H321 H 0.388 0.14076 0.54534 0.0
Cu322 Cu 0.13346 0.21403 0.73139 0.0
N323 N 0.1653 0.20922 0.71544 0.0
N324 N 0.19961 0.22047 0.69226 0.0
C325 C 0.18186 0.22811 0.70952 0.0
C326 C 0.19443 0.19555 0.68763 0.0
C327 C 0.17311 0.18874 0.70177 0.0
O328 O 0.13712 0.24339 0.75449 0.0
C329 C 0.11432 0.22861 0.68277 0.0
O330 O 0.13496 0.24297 0.68252 0.0
H331 H 0.17982 0.24759 0.71632 0.0
H332 H 0.16285 0.17077 0.70058 0.0
N333 N 0.12492 0.18557 0.7516 0.0
N334 N 0.10345 0.1601 0.77878 0.0
C335 C 0.10327 0.18235 0.76541 0.0
C336 C 0.13937 0.16473 0.75644 0.0
C337 C 0.12619 0.14899 0.77307 0.0
C338 C 0.1389 0.26679 0.74784 0.0
O339 O 0.13445 0.27319 0.72393 0.0
H340 H 0.08774 0.19616 0.76562 0.0
H341 H 0.15839 0.16142 0.74884 0.0
O342 O 0.10855 0.21669 0.70332 0.0
H343 H 0.20408 0.18369 0.67356 0.0
H344 H 0.13322 0.1311 0.78091 0.0
Cu345 Cu 0.06925 0.8811 0.98223 0.0
N346 N 0.07287 0.91098 0.96276 0.0
N347 N 0.06125 0.94355 0.93729 0.0
C348 C 0.05326 0.92524 0.95376 0.0
C349 C 0.08702 0.94085 0.93617 0.0
C350 C 0.0941 0.92063 0.95176 0.0
O351 O 0.03747 0.88529 1.0017 0.0
C352 C 0.05682 0.85346 0.93698 0.0
O353 O 0.04033 0.87214 0.93314 0.0
H354 H 0.03342 0.92169 0.9587 0.0
H355 H 0.11322 0.91285 0.95408 0.0
N356 N 0.09718 0.87634 1.00459 0.0
N357 N 0.12299 0.85881 0.03413 0.0
C358 C 0.10319 0.8549 0.01784 0.0
C359 C 0.11395 0.89424 1.01259 0.0
C360 C 0.12975 0.88355 0.03092 0.0
C361 C 0.03812 0.89765 0.0228 0.0
O362 O 0.06035 0.90534 0.03178 0.0
H363 H 0.09253 0.83716 1.01643 0.0
H364 H 0.11402 0.91398 1.00626 0.0
O365 O 0.06915 0.85266 0.95805 0.0
H366 H 0.09973 0.95191 0.92409 0.0
H367 H 0.14476 0.89331 0.04142 0.0
Cu368 Cu 0.30614 0.40537 0.21604 0.0
N369 N 0.32516 0.37527 0.21133 0.0
N370 N 0.34952 0.34178 0.22271 0.0
C371 C 0.33244 0.35963 0.23054 0.0
C372 C 0.35287 0.34615 0.19742 0.0
C373 C 0.33799 0.367 0.19051 0.0
O374 O 0.28539 0.39976 0.24664 0.0
C375 C 0.35245 0.43092 0.22909 0.0
O376 O 0.35647 0.41099 0.24394 0.0
H377 H 0.32605 0.36203 0.25014 0.0
H378 H 0.33763 0.37627 0.17197 0.0
N379 N 0.2845 0.41252 0.18814 0.0
N380 N 0.2564 0.43345 0.16317 0.0
C381 C 0.26916 0.43324 0.18577 0.0
C382 C 0.2813 0.39907 0.16636 0.0
C383 C 0.26405 0.41193 0.15091 0.0
C384 C 0.26753 0.38325 0.2442 0.0
O385 O 0.26369 0.37293 0.22154 0.0
H386 H 0.26771 0.44806 0.20024 0.0
H387 H 0.29074 0.38111 0.16201 0.0
O388 O 0.33081 0.43328 0.21798 0.0
H389 H 0.36615 0.33594 0.18513 0.0
H390 H 0.25734 0.40566 0.1323 0.0
Cu391 Cu 0.80661 0.13256 0.81764 0.0
N392 N 0.82466 0.16319 0.82209 0.0
N393 N 0.84814 0.19712 0.81047 0.0
C394 C 0.83134 0.17898 0.80282 0.0
C395 C 0.85199 0.19272 0.83568 0.0
C396 C 0.83769 0.1716 0.84273 0.0
O397 O 0.78551 0.13727 0.78711 0.0
C398 C 0.85126 0.10808 0.79899 0.0
O399 O 0.85035 0.12621 0.78155 0.0
H400 H 0.82481 0.17647 0.78328 0.0
H401 H 0.838 0.16216 0.86117 0.0
N402 N 0.7858 0.1249 0.84601 0.0
N403 N 0.75816 0.10432 0.87164 0.0
C404 C 0.77028 0.10439 0.8487 0.0
C405 C 0.78326 0.13834 0.86791 0.0
C406 C 0.76634 0.12567 0.88376 0.0
C407 C 0.76531 0.15093 0.78934 0.0
O408 O 0.75878 0.15935 0.81217 0.0
H409 H 0.76816 0.0897 0.83419 0.0
H410 H 0.79281 0.15623 0.87204 0.0
O411 O 0.8327 0.10599 0.81472 0.0
H412 H 0.86532 0.20306 0.84777 0.0
H413 H 0.76014 0.13199 0.90254 0.0
Cu414 Cu 0.14781 0.55344 0.07595 0.0
N415 N 0.11542 0.56766 0.08262 0.0
N416 N 0.0776 0.5866 0.07516 0.0
C417 C 0.09677 0.57223 0.06526 0.0
C418 C 0.08428 0.59104 0.09975 0.0
C419 C 0.10774 0.5796 0.10419 0.0
O420 O 0.14415 0.53123 0.04602 0.0
C421 C 0.16381 0.60311 0.06175 0.0
O422 O 0.14177 0.60305 0.04959 0.0
H423 H 0.09778 0.56612 0.04546 0.0
H424 H 0.11905 0.58109 0.12151 0.0
N425 N 0.15834 0.5328 0.10356 0.0
N426 N 0.18126 0.5057 0.12792 0.0
C427 C 0.18021 0.51899 0.10563 0.0
C428 C 0.14506 0.52784 0.12511 0.0
C429 C 0.15914 0.51132 0.14017 0.0
C430 C 0.14218 0.53873 0.02289 0.0
O431 O 0.1458 0.563 0.01744 0.0
H432 H 0.19501 0.51871 0.09108 0.0
H433 H 0.12617 0.53523 0.12943 0.0
O434 O 0.17133 0.58255 0.07268 0.0
H435 H 0.07368 0.60292 0.1131 0.0
H436 H 0.15316 0.50345 0.15841 0.0
Cu437 Cu 0.72954 0.89862 0.32403 0.0
N438 N 0.71224 0.86777 0.33061 0.0
N439 N 0.69069 0.83138 0.3233 0.0
C440 C 0.70723 0.84881 0.31369 0.0
C441 C 0.68507 0.83961 0.34716 0.0
C442 C 0.69806 0.8622 0.35145 0.0
O443 O 0.75232 0.89293 0.29493 0.0
C444 C 0.70029 0.94569 0.32697 0.0
O445 O 0.72027 0.95562 0.33858 0.0
H446 H 0.71492 0.84813 0.29446 0.0
H447 H 0.69606 0.87448 0.36804 0.0
N448 N 0.74956 0.90862 0.35248 0.0
N449 N 0.77718 0.93051 0.37726 0.0
C450 C 0.7669 0.92784 0.35355 0.0
C451 C 0.74938 0.89844 0.37618 0.0
C452 C 0.76621 0.91189 0.39146 0.0
C453 C 0.7443 0.8888 0.27226 0.0
O454 O 0.71963 0.89093 0.26742 0.0
H455 H 0.77135 0.94003 0.33738 0.0
H456 H 0.73796 0.88225 0.38208 0.0
O457 O 0.70184 0.92313 0.31773 0.0
H458 H 0.67143 0.83069 0.36 0.0
H459 H 0.77027 0.90799 0.41143 0.0
Cu460 Cu 0.88348 0.98157 0.07162 0.0
N461 N 0.9136 0.96313 0.07862 0.0
N462 N 0.94943 0.94018 0.07261 0.0
C463 C 0.93194 0.95595 0.0618 0.0
C464 C 0.94195 0.93747 0.09722 0.0
C465 C 0.91974 0.95144 0.10079 0.0
O466 O 0.88926 1.00287 0.04149 0.0
C467 C 0.85936 0.93416 0.06005 0.0
O468 O 0.8811 0.92897 0.04839 0.0
H469 H 0.93228 0.96181 0.04193 0.0
H470 H 0.90836 0.95234 0.11811 0.0
N471 N 0.87571 1.0036 0.09901 0.0
N472 N 0.85455 0.03125 0.12433 0.0
C473 C 0.85388 0.01716 0.10253 0.0
C474 C 0.89075 1.00947 0.11914 0.0
C475 C 0.87775 0.02638 0.13481 0.0
C476 C 0.89323 0.99444 0.01893 0.0
O477 O 0.89076 0.96982 1.01432 0.0
H478 H 0.83778 1.0165 0.08943 0.0
H479 H 0.90995 1.00218 0.12213 0.0
O480 O 0.85574 0.95661 0.06904 0.0
H481 H 0.95134 0.92551 0.11135 0.0
H482 H 0.88507 0.03486 0.15228 0.0
Cu483 Cu 0.23112 0.63076 0.71448 0.0
N484 N 0.2137 0.66192 0.70982 0.0
N485 N 0.18973 0.69563 0.72172 0.0
C486 C 0.20775 0.67841 0.72885 0.0
C487 C 0.1843 0.69 0.69708 0.0
C488 C 0.19884 0.66901 0.68991 0.0
O489 O 0.25481 0.63565 0.74291 0.0
C490 C 0.20195 0.5839 0.71194 0.0
O491 O 0.22207 0.57376 0.70068 0.0
H492 H 0.21538 0.67692 0.74805 0.0
H493 H 0.19693 0.6584 0.67221 0.0
N494 N 0.25022 0.62105 0.68533 0.0
N495 N 0.27773 0.59938 0.66014 0.0
C496 C 0.26817 0.60236 0.68411 0.0
C497 C 0.24874 0.63054 0.6614 0.0
C498 C 0.26555 0.61724 0.64587 0.0
C499 C 0.24774 0.63752 0.76618 0.0
O500 O 0.22364 0.63304 0.77206 0.0
H501 H 0.27357 0.59074 0.70043 0.0
H502 H 0.2364 0.6461 0.65551 0.0
O503 O 0.20346 0.60649 0.72105 0.0
H504 H 0.16944 0.69905 0.68573 0.0
H505 H 0.2687 0.62072 0.62567 0.0
Cu506 Cu 0.15273 0.48516 0.46107 0.0
N507 N 0.12266 0.46676 0.45406 0.0
N508 N 0.0868 0.44402 0.46003 0.0
C509 C 0.10434 0.45967 0.47088 0.0
C510 C 0.09425 0.44129 0.43541 0.0
C511 C 0.11649 0.45512 0.43186 0.0
O512 O 0.14709 0.50613 0.49151 0.0
C513 C 0.17734 0.43774 0.47168 0.0
O514 O 0.15585 0.43232 0.48363 0.0
H515 H 0.10399 0.46556 0.49075 0.0
H516 H 0.12784 0.456 0.41452 0.0
N517 N 0.16036 0.5074 0.43393 0.0
N518 N 0.18178 0.53511 0.40911 0.0
C519 C 0.18209 0.52109 0.43092 0.0
C520 C 0.14574 0.51306 0.41344 0.0
C521 C 0.15891 0.53004 0.39806 0.0
C522 C 0.14332 0.49744 0.51398 0.0
O523 O 0.1459 0.47277 0.51822 0.0
H524 H 0.19791 0.52053 0.44437 0.0
H525 H 0.12674 0.50553 0.40997 0.0
O526 O 0.18065 0.46032 0.46302 0.0
H527 H 0.08479 0.42944 0.42123 0.0
H528 H 0.15195 0.53839 0.38039 0.0
Cu529 Cu 0.38536 0.55315 0.96512 0.0
N530 N 0.41601 0.5702 0.95762 0.0
N531 N 0.45276 0.59147 0.96359 0.0
C532 C 0.43396 0.57759 0.97471 0.0
C533 C 0.44642 0.5928 0.93854 0.0
C534 C 0.42362 0.57987 0.93497 0.0
O535 O 0.39081 0.53478 0.99722 0.0
C536 C 0.36212 0.6011 0.97656 0.0
O537 O 0.38309 0.60507 0.98996 0.0
H538 H 0.43304 0.57313 0.99495 0.0
H539 H 0.41299 0.57822 0.91724 0.0
N540 N 0.37684 0.52994 0.93884 0.0
N541 N 0.35484 0.50212 0.91451 0.0
C542 C 0.35463 0.51696 0.93584 0.0
C543 C 0.39161 0.52292 0.91886 0.0
C544 C 0.37812 0.50588 0.90384 0.0
C545 C 0.40422 0.51433 0.99635 0.0
O546 O 0.41235 0.50604 0.97399 0.0
H547 H 0.33856 0.51863 0.94889 0.0
H548 H 0.41098 0.52951 0.91555 0.0
O549 O 0.35854 0.57916 0.96643 0.0
H550 H 0.45706 0.60306 0.924 0.0
H551 H 0.38516 0.49659 0.88665 0.0
Cu552 Cu 0.71106 0.80428 0.89787 0.0
N553 N 0.70413 0.82282 0.86794 0.0
N554 N 0.71108 0.84549 0.83222 0.0
C555 C 0.72156 0.83024 0.85035 0.0
C556 C 0.68608 0.84769 0.83864 0.0
C557 C 0.68192 0.83391 0.86081 0.0
O558 O 0.74229 0.78463 0.89155 0.0
C559 C 0.72497 0.85062 0.92292 0.0
O560 O 0.73868 0.85478 0.90221 0.0
H561 H 0.74162 0.82483 0.85107 0.0
H562 H 0.66413 0.8327 0.87141 0.0
N563 N 0.6839 0.78212 0.90626 0.0
N564 N 0.65921 0.75479 0.9284 0.0
C565 C 0.68146 0.76814 0.9279 0.0
C566 C 0.66256 0.7773 0.89256 0.0
C567 C 0.64729 0.76056 0.90616 0.0
C568 C 0.74053 0.76417 0.87828 0.0
O569 O 0.71775 0.75641 0.87084 0.0
H570 H 0.69559 0.76806 0.94311 0.0
H571 H 0.6584 0.78525 0.87388 0.0
O572 O 0.71378 0.8291 0.92555 0.0
H573 H 0.67201 0.85912 0.8285 0.0
H574 H 0.62906 0.75286 0.89992 0.0
Cu575 Cu 0.48485 0.46337 0.15169 0.0
N576 N 0.46628 0.45674 0.12174 0.0
N577 N 0.44432 0.4633 0.08549 0.0
C578 C 0.45816 0.47419 0.10448 0.0
C579 C 0.44375 0.43803 0.09103 0.0
C580 C 0.45715 0.43408 0.1135 0.0
O581 O 0.50314 0.49553 0.14608 0.0
C582 C 0.43891 0.47584 0.17796 0.0
O583 O 0.43476 0.49063 0.15801 0.0
H584 H 0.46244 0.49445 0.1058 0.0
H585 H 0.45986 0.416 0.12328 0.0
N586 N 0.5084 0.43675 0.15799 0.0
N587 N 0.53818 0.41218 0.17686 0.0
C588 C 0.52122 0.43161 0.17992 0.0
C589 C 0.51738 0.41979 0.14069 0.0
C590 C 0.53582 0.40475 0.1522 0.0
C591 C 0.52285 0.49493 0.1316 0.0
O592 O 0.53055 0.47281 0.12233 0.0
H593 H 0.51889 0.44252 0.19744 0.0
H594 H 0.51153 0.41897 0.12081 0.0
O595 O 0.46033 0.46419 0.17981 0.0
H596 H 0.43399 0.42351 0.07989 0.0
H597 H 0.54689 0.38971 0.14308 0.0
Cu598 Cu 0.82219 0.232 0.40405 0.0
N599 N 0.82605 0.21323 0.37381 0.0
N600 N 0.81431 0.18724 0.34172 0.0
C601 C 0.80632 0.20299 0.36069 0.0
C602 C 0.8402 0.18774 0.34291 0.0
C603 C 0.84738 0.2036 0.3629 0.0
O604 O 0.79065 0.25183 0.39945 0.0
C605 C 0.83964 0.19983 0.44438 0.0
O606 O 0.86047 0.21383 0.44284 0.0
H607 H 0.78643 0.20662 0.36547 0.0
H608 H 0.8667 0.20694 0.36968 0.0
N609 N 0.84968 0.25483 0.40951 0.0
N610 N 0.87426 0.28534 0.42705 0.0
C611 C 0.85438 0.26913 0.43062 0.0
C612 C 0.86721 0.26237 0.39211 0.0
C613 C 0.88229 0.28124 0.40283 0.0
C614 C 0.79175 0.27091 0.3842 0.0
O615 O 0.81389 0.27679 0.37377 0.0
H616 H 0.84295 0.26825 0.44792 0.0
H617 H 0.86834 0.25535 0.37264 0.0
O618 O 0.82019 0.20576 0.43076 0.0
H619 H 0.85303 0.1766 0.33095 0.0
H620 H 0.89778 0.29139 0.39347 0.0
Cu621 Cu 0.05649 0.56881 0.65595 0.0
N622 N 0.07379 0.57374 0.62487 0.0
N623 N 0.09628 0.56235 0.59009 0.0
C624 C 0.07854 0.55516 0.60752 0.0
C625 C 0.10261 0.58661 0.59645 0.0
C626 C 0.0889 0.59349 0.61805 0.0
O627 O 0.03221 0.54092 0.65042 0.0
C628 C 0.1035 0.55075 0.67678 0.0
O629 O 0.10473 0.5376 0.65534 0.0
H630 H 0.07033 0.53617 0.60866 0.0
H631 H 0.09125 0.61089 0.62908 0.0
N632 N 0.03742 0.59789 0.66537 0.0
N633 N 1.01006 0.62316 0.68701 0.0
C634 C 0.02107 0.59968 0.68536 0.0
C635 C 0.03667 0.62097 0.6539 0.0
C636 C 0.01991 0.63659 0.6672 0.0
C637 C 0.03756 0.51711 0.64995 0.0
O638 O 0.06058 0.50945 0.6567 0.0
H639 H 1.01745 0.58404 0.69848 0.0
H640 H 0.04725 0.62605 0.63684 0.0
O641 O 0.08314 0.56342 0.68181 0.0
H642 H 0.11743 0.59788 0.58731 0.0
H643 H 1.01491 0.65611 0.66225 0.0
Cu644 Cu 0.71126 0.23412 0.63724 0.0
N645 N 0.70414 0.21713 0.66794 0.0
N646 N 0.71115 0.1946 0.70375 0.0
C647 C 0.7219 0.20761 0.68414 0.0
C648 C 0.68559 0.19598 0.69967 0.0
C649 C 0.68134 0.20967 0.67742 0.0
O650 O 0.74337 0.25241 0.64309 0.0
C651 C 0.69488 0.20149 0.59714 0.0
O652 O 0.6743 0.21601 0.59794 0.0
H653 H 0.74235 0.21016 0.68151 0.0
H654 H 0.66298 0.21341 0.6685 0.0
N655 N 0.68539 0.25819 0.629 0.0
N656 N 0.6628 0.28856 0.6086 0.0
C657 C 0.68222 0.2714 0.60691 0.0
C658 C 0.66737 0.26745 0.64506 0.0
C659 C 0.65353 0.28621 0.6326 0.0
C660 C 0.74242 0.27209 0.65758 0.0
O661 O 0.72011 0.27951 0.66667 0.0
H662 H 0.69436 0.26901 0.59023 0.0
H663 H 0.665 0.26161 0.66479 0.0
O664 O 0.71388 0.20691 0.61152 0.0
H665 H 0.67104 0.18718 0.71154 0.0
H666 H 0.638 0.29746 0.64063 0.0
Cu667 Cu 0.05746 0.46508 0.88159 0.0
N668 N 0.07338 0.46029 0.91333 0.0
N669 N 0.09563 0.47234 0.94802 0.0
C670 C 0.07923 0.47968 0.92936 0.0
C671 C 0.10016 0.44723 0.94367 0.0
C672 C 0.0867 0.43994 0.92205 0.0
O673 O 0.03598 0.49543 0.88586 0.0
C674 C 0.08816 0.46059 0.83571 0.0
O675 O 0.06793 0.45013 0.825 0.0
H676 H 0.07262 0.49915 0.92649 0.0
H677 H 0.08824 0.42171 0.91232 0.0
N678 N 0.03732 0.43667 0.87177 0.0
N679 N 1.00967 0.41192 0.8499 0.0
C680 C 0.02022 0.43552 0.85232 0.0
C681 C 0.03718 0.41311 0.88228 0.0
C682 C 0.0203 0.39786 0.86886 0.0
C683 C 1.01521 0.49301 0.89854 0.0
O684 O 1.00816 0.47 0.90593 0.0
H685 H 1.01607 0.45158 0.83986 0.0
H686 H 0.04843 0.40732 0.89866 0.0
O687 O 0.08632 0.46979 0.85824 0.0
H688 H 0.11367 0.43547 0.95419 0.0
H689 H 1.01598 0.37801 0.87301 0.0
Cu690 Cu 0.82131 0.80145 0.1327 0.0
N691 N 0.82456 0.8194 0.16377 0.0
N692 N 0.81185 0.84228 0.19791 0.0
C693 C 0.8052 0.82465 0.18013 0.0
C694 C 0.83657 0.84803 0.19282 0.0
C695 C 0.84428 0.83405 0.17165 0.0
O696 O 0.79181 0.77887 0.13583 0.0
C697 C 0.80979 0.84905 0.10845 0.0
O698 O 0.79688 0.85395 0.12952 0.0
H699 H 0.78622 0.81658 0.17832 0.0
H700 H 0.86242 0.83572 0.16172 0.0
N701 N 0.8499 0.78058 0.12591 0.0
N702 N 0.87503 0.75187 0.10586 0.0
C703 C 0.85205 0.76404 0.10612 0.0
C704 C 0.87226 0.77884 0.13871 0.0
C705 C 0.88779 0.76122 0.12638 0.0
C706 C 0.76859 0.78628 0.13718 0.0
O707 O 0.7631 0.81053 0.13316 0.0
H708 H 0.83709 0.76129 0.092 0.0
H709 H 0.87694 0.78954 0.15584 0.0
O710 O 0.81948 0.82681 0.10529 0.0
H711 H 0.84777 0.86248 0.20263 0.0
H712 H 0.90683 0.75547 0.13236 0.0
Cu713 Cu 0.48113 0.57094 0.38161 0.0
N714 N 0.46398 0.57493 0.41282 0.0
N715 N 0.44083 0.56233 0.44668 0.0
C716 C 0.45755 0.55524 0.42819 0.0
C717 C 0.43669 0.58759 0.44288 0.0
C718 C 0.45073 0.59524 0.42177 0.0
O719 O 0.50249 0.54047 0.38591 0.0
C720 C 0.45115 0.57886 0.33564 0.0
O721 O 0.47066 0.59223 0.32708 0.0
H722 H 0.46414 0.53579 0.42506 0.0
H723 H 0.44984 0.61379 0.4126 0.0
N724 N 0.50191 0.59943 0.37373 0.0
N725 N 0.53067 0.62454 0.35388 0.0
C726 C 0.51917 0.60128 0.3545 0.0
C727 C 0.50293 0.6221 0.386 0.0
C728 C 0.5205 0.6376 0.37381 0.0
C729 C 0.52259 0.54272 0.39967 0.0
O730 O 0.52887 0.56553 0.40829 0.0
H731 H 0.52273 0.586 0.3409 0.0
H732 H 0.49188 0.62707 0.4028 0.0
O733 O 0.45324 0.56696 0.35685 0.0
H734 H 0.4232 0.59931 0.45349 0.0
H735 H 0.52556 0.6569 0.37947 0.0
Cu736 Cu 0.89798 0.70999 0.80367 0.0
N737 N 0.8658 0.70338 0.81827 0.0
N738 N 0.82816 0.71073 0.83759 0.0
C739 C 0.84754 0.72091 0.82378 0.0
C740 C 0.83431 0.68579 0.84067 0.0
C741 C 0.85765 0.68139 0.82897 0.0
O742 O 0.89404 0.73983 0.78144 0.0
C743 C 0.91559 0.72417 0.85308 0.0
O744 O 0.89358 0.7364 0.85406 0.0
H745 H 0.84886 0.74093 0.81856 0.0
H746 H 0.86848 0.66367 0.82927 0.0
N747 N 0.90842 0.68248 0.78286 0.0
N748 N 0.93199 0.6581 0.7563 0.0
C749 C 0.93104 0.67985 0.77048 0.0
C750 C 0.89454 0.66182 0.77612 0.0
C751 C 0.90901 0.64674 0.7599 0.0
C752 C 0.89168 0.76296 0.7889 0.0
O753 O 0.89497 0.76849 0.81321 0.0
H754 H 0.94643 0.69369 0.77182 0.0
H755 H 0.87502 0.65821 0.78206 0.0
O756 O 0.92217 0.71322 0.83221 0.0
H757 H 0.82335 0.67205 0.85167 0.0
H758 H 0.90273 0.62917 0.75082 0.0
Cu759 Cu 0.57259 0.65137 0.05316 0.0
N760 N 0.57988 0.62056 0.07 0.0
N761 N 0.57338 0.58405 0.09144 0.0
C762 C 0.56262 0.60265 0.07699 0.0
C763 C 0.59835 0.5905 0.09362 0.0
C764 C 0.60223 0.61318 0.08064 0.0
O765 O 0.54085 0.64591 0.03419 0.0
C766 C 0.55432 0.67323 0.09877 0.0
O767 O 0.53743 0.65464 0.09691 0.0
H768 H 0.54249 0.6035 0.07193 0.0
H769 H 0.61989 0.624 0.0798 0.0
N770 N 0.59939 0.66055 0.03079 0.0
N771 N 0.62362 0.68236 1.00277 0.0
C772 C 0.60163 0.68212 1.01663 0.0
C773 C 0.62052 0.64665 0.02544 0.0
C774 C 0.63549 0.66004 1.00834 0.0
C775 C 0.54193 0.633 1.01346 0.0
O776 O 0.56445 0.62557 1.00486 0.0
H777 H 0.58752 0.69737 1.01665 0.0
H778 H 0.62464 0.62786 0.03311 0.0
O779 O 0.56983 0.67681 0.08028 0.0
H780 H 0.61257 0.58004 0.10458 0.0
H781 H 0.65345 0.65354 1.00014 0.0
Cu782 Cu 0.63731 0.32372 0.30307 0.0
N783 N 0.66825 0.33017 0.32017 0.0
N784 N 0.70436 0.32374 0.34254 0.0
C785 C 0.6848 0.31267 0.32967 0.0
C786 C 0.69996 0.34921 0.34106 0.0
C787 C 0.67758 0.35309 0.32746 0.0
O788 O 0.6417 0.29238 0.28329 0.0
C789 C 0.59862 0.342 0.33633 0.0
O790 O 0.60131 0.36302 0.32279 0.0
H791 H 0.6827 0.29223 0.32713 0.0
H792 H 0.66849 0.37133 0.32351 0.0
N793 N 0.63056 0.34976 0.27905 0.0
N794 N 0.61151 0.37325 0.24853 0.0
C795 C 0.60832 0.35517 0.26682 0.0
C796 C 0.6483 0.36481 0.26794 0.0
C797 C 0.63665 0.37929 0.24917 0.0
C798 C 0.64459 0.26995 0.29238 0.0
O799 O 0.6419 0.26624 0.31715 0.0
H800 H 0.59042 0.34534 0.27053 0.0
H801 H 0.66854 0.36461 0.27255 0.0
O802 O 0.61126 0.32203 0.32999 0.0
H803 H 0.71179 0.36394 0.34962 0.0
H804 H 0.64601 0.39291 0.23664 0.0
Cu805 Cu 0.96566 0.38599 0.54906 0.0
N806 N 0.96119 0.41658 0.56708 0.0
N807 N 0.9721 0.44873 0.59332 0.0
C808 C 0.98052 0.42899 0.5788 0.0
C809 C 0.94633 0.44881 0.59046 0.0
C810 C 0.93963 0.42877 0.57444 0.0
O811 O 0.99787 0.3901 0.53034 0.0
C812 C 0.94644 0.3484 0.58241 0.0
O813 O 0.92521 0.35282 0.5696 0.0
H814 H 1.00041 0.42323 0.57705 0.0
H815 H 0.92038 0.42291 0.56939 0.0
N816 N 0.93884 0.37968 0.5256 0.0
N817 N 0.91437 0.3602 0.49618 0.0
C818 C 0.93373 0.3575 0.51321 0.0
C819 C 0.92207 0.39687 0.51603 0.0
C820 C 0.90708 0.38496 0.4978 0.0
C821 C 0.99752 0.4031 0.50964 0.0
O822 O 0.97548 0.41165 0.50094 0.0
H823 H 0.94446 0.33994 0.5161 0.0
H824 H 0.92136 0.41691 0.52132 0.0
O825 O 0.96701 0.35971 0.5757 0.0
H826 H 0.93319 0.46173 0.60007 0.0
H827 H 0.89211 0.39383 0.48645 0.0
Cu828 Cu 0.9011 0.3249 0.73009 0.0
N829 N 0.86883 0.33162 0.71569 0.0
N830 N 0.83108 0.32448 0.69661 0.0
C831 C 0.85034 0.31427 0.7106 0.0
C832 C 0.83753 0.34924 0.69297 0.0
C833 C 0.86094 0.3535 0.70451 0.0
O834 O 0.89722 0.29499 0.75225 0.0
C835 C 0.91756 0.31039 0.68059 0.0
O836 O 0.89556 0.2982 0.68061 0.0
H837 H 0.85147 0.29432 0.71618 0.0
H838 H 0.87201 0.371 0.70376 0.0
N839 N 0.91129 0.35254 0.75087 0.0
N840 N 0.93399 0.37707 0.778 0.0
C841 C 0.93361 0.35532 0.76376 0.0
C842 C 0.89705 0.3731 0.75735 0.0
C843 C 0.91097 0.38826 0.7739 0.0
C844 C 0.89571 0.27179 0.74482 0.0
O845 O 0.89997 0.26623 0.72066 0.0
H846 H 0.94912 0.34153 0.76282 0.0
H847 H 0.87758 0.37654 0.75109 0.0
O848 O 0.92487 0.32151 0.70112 0.0
H849 H 0.82671 0.36292 0.68169 0.0
H850 H 0.90423 0.40571 0.78292 0.0
Cu851 Cu 0.95936 0.64477 0.98212 0.0
N852 N 0.95262 0.6137 0.96548 0.0
N853 N 0.96047 0.57792 0.94305 0.0
C854 C 0.97057 0.5967 0.95776 0.0
C855 C 0.9352 0.58337 0.9414 0.0
C856 C 0.93049 0.60562 0.95494 0.0
O857 O 0.99098 0.63929 1.0013 0.0
C858 C 0.94955 0.68982 0.95171 0.0
O859 O 0.93526 0.69748 0.97096 0.0
H860 H 0.99075 0.59845 0.96235 0.0
H861 H 0.91244 0.61584 0.95591 0.0
N862 N 0.93274 0.65389 1.00508 0.0
N863 N 0.90956 0.67517 0.03461 0.0
C864 C 0.93177 0.67429 0.0211 0.0
C865 C 0.91073 0.64109 1.0092 0.0
C866 C 0.89643 0.65414 0.02719 0.0
C867 C 0.98953 0.62615 0.02185 0.0
O868 O 0.96689 0.61845 0.02978 0.0
H869 H 0.94679 0.68854 0.02228 0.0
H870 H 0.90545 0.62331 1.00003 0.0
O871 O 0.96268 0.66932 0.95395 0.0
H872 H 0.92134 0.57269 0.93022 0.0
H873 H 0.87787 0.64835 0.03444 0.0
Cu874 Cu 0.63193 0.71375 0.23018 0.0
N875 N 0.66266 0.70912 0.21237 0.0
N876 N 0.69567 0.72078 0.18757 0.0
C877 C 0.67753 0.7286 0.20435 0.0
C878 C 0.69215 0.69527 0.18506 0.0
C879 C 0.67155 0.68819 0.20013 0.0
O880 O 0.63675 0.74497 0.25024 0.0
C881 C 0.58739 0.70235 0.19955 0.0
O882 O 0.58154 0.68573 0.21748 0.0
H883 H 0.67432 0.74834 0.20992 0.0
H884 H 0.66269 0.66947 0.20072 0.0
N885 N 0.62454 0.68599 0.25209 0.0
N886 N 0.60474 0.66134 0.28126 0.0
C887 C 0.60463 0.68397 0.26854 0.0
C888 C 0.63799 0.66412 0.25491 0.0
C889 C 0.62583 0.6489 0.27273 0.0
C890 C 0.64923 0.74358 0.27122 0.0
O891 O 0.65648 0.72099 0.27968 0.0
H892 H 0.59004 0.69862 0.2706 0.0
H893 H 0.65557 0.65957 0.24492 0.0
O894 O 0.60649 0.71722 0.20282 0.0
H895 H 0.70264 0.68289 0.17208 0.0
H896 H 0.63229 0.63024 0.27911 0.0
Cu897 Cu 0.57843 0.39013 0.48175 0.0
N898 N 0.58482 0.42131 0.46522 0.0
N899 N 0.57732 0.45738 0.44323 0.0
C900 C 0.56687 0.43782 0.45656 0.0
C901 C 0.60286 0.45304 0.44362 0.0
C902 C 0.60741 0.43066 0.45699 0.0
O903 O 0.54637 0.3948 0.50055 0.0
C904 C 0.56106 0.3678 0.43612 0.0
O905 O 0.54327 0.38555 0.43833 0.0
H906 H 0.5465 0.43536 0.45977 0.0
H907 H 0.62581 0.42149 0.4599 0.0
N908 N 0.60513 0.3819 0.50467 0.0
N909 N 0.62858 0.36162 0.53444 0.0
C910 C 0.60939 0.35954 0.51709 0.0
C911 C 0.6224 0.39845 0.51439 0.0
C912 C 0.63674 0.38607 0.5328 0.0
C913 C 0.54707 0.40843 0.52085 0.0
O914 O 0.56927 0.41726 0.5288 0.0
H915 H 0.59783 0.34252 0.51442 0.0
H916 H 0.62367 0.4185 0.50932 0.0
O917 O 0.57683 0.36468 0.45449 0.0
H918 H 0.61717 0.46476 0.43425 0.0
H919 H 0.65162 0.39454 0.54454 0.0
Cu920 Cu 0.80462 0.90277 0.71467 0.0
N921 N 0.8212 0.87128 0.71026 0.0
N922 N 0.8441 0.83697 0.72222 0.0
C923 C 0.82783 0.8557 0.72974 0.0
C924 C 0.84757 0.84072 0.69685 0.0
C925 C 0.83363 0.86207 0.68958 0.0
O926 O 0.78441 0.89939 0.74596 0.0
C927 C 0.85069 0.92517 0.73183 0.0
O928 O 0.84909 0.90755 0.74974 0.0
H929 H 0.82178 0.85888 0.74933 0.0
H930 H 0.83388 0.87116 0.67096 0.0
N931 N 0.78338 0.91111 0.68681 0.0
N932 N 0.75609 0.93295 0.66174 0.0
C933 C 0.7689 0.93244 0.68431 0.0
C934 C 0.77951 0.8976 0.66517 0.0
C935 C 0.76277 0.91102 0.64967 0.0
C936 C 0.76325 0.88722 0.74463 0.0
O937 O 0.75498 0.87962 0.72208 0.0
H938 H 0.76803 0.94739 0.69869 0.0
H939 H 0.78805 0.87917 0.661 0.0
O940 O 0.83195 0.92803 0.71644 0.0
H941 H 0.86052 0.82983 0.68477 0.0
H942 H 0.75567 0.90483 0.63118 0.0
Cu943 Cu 0.30613 0.63421 0.31885 0.0
N944 N 0.32374 0.66509 0.32319 0.0
N945 N 0.34722 0.69888 0.31121 0.0
C946 C 0.3304 0.68069 0.30377 0.0
C947 C 0.35107 0.69478 0.33646 0.0
C948 C 0.33677 0.67372 0.34374 0.0
O949 O 0.28505 0.63858 0.28825 0.0
C950 C 0.3514 0.61046 0.30079 0.0
O951 O 0.35034 0.62847 0.28324 0.0
H952 H 0.32396 0.67789 0.28423 0.0
H953 H 0.33719 0.66442 0.36225 0.0
N954 N 0.28523 0.62642 0.34709 0.0
N955 N 0.25721 0.60583 0.37231 0.0
C956 C 0.2695 0.60603 0.34946 0.0
C957 C 0.28267 0.63965 0.36911 0.0
C958 C 0.26551 0.62698 0.3847 0.0
C959 C 0.26495 0.65239 0.2905 0.0
O960 O 0.25869 0.66109 0.3133 0.0
H961 H 0.26734 0.59152 0.33477 0.0
H962 H 0.29235 0.65742 0.37347 0.0
O963 O 0.33265 0.60802 0.31624 0.0
H964 H 0.3645 0.70517 0.34839 0.0
H965 H 0.25924 0.63317 0.4035 0.0
Cu966 Cu 0.65013 0.05402 0.57321 0.0
N967 N 0.61821 0.06917 0.57986 0.0
N968 N 0.58077 0.08882 0.57255 0.0
C969 C 0.59959 0.07406 0.56257 0.0
C970 C 0.58765 0.09322 0.59708 0.0
C971 C 0.6109 0.08135 0.60143 0.0
O972 O 0.64572 0.03145 0.54361 0.0
C973 C 0.66731 0.10307 0.55835 0.0
O974 O 0.64549 0.10321 0.54579 0.0
H975 H 0.60033 0.06779 0.5428 0.0
H976 H 0.62229 0.08259 0.61872 0.0
N977 N 0.66019 0.03356 0.60109 0.0
N978 N 0.68267 1.00651 0.62586 0.0
C979 C 0.68192 0.01959 0.60346 0.0
C980 C 0.64669 0.02892 0.62258 0.0
C981 C 0.66051 1.01242 0.6379 0.0
C982 C 0.64432 0.03848 0.52029 0.0
O983 O 0.64905 0.06244 0.51434 0.0
H984 H 0.69682 0.01904 0.58901 0.0
H985 H 0.62782 0.03649 0.62666 0.0
O986 O 0.67431 0.08251 0.56962 0.0
H987 H 0.57727 0.10525 0.61047 0.0
H988 H 0.65432 1.00474 0.65615 0.0
Cu989 Cu 0.23291 0.40176 0.82217 0.0
N990 N 0.2148 0.37107 0.82667 0.0
N991 N 0.19069 0.3376 0.8148 0.0
C992 C 0.20878 0.35467 0.80763 0.0
C993 C 0.18547 0.34316 0.83953 0.0
C994 C 0.20016 0.36398 0.84671 0.0
O995 O 0.25752 0.39588 0.79451 0.0
C996 C 0.1867 0.42397 0.80343 0.0
O997 O 0.18551 0.40304 0.7895 0.0
H998 H 0.21624 0.35637 0.78835 0.0
H999 H 0.19873 0.3744 0.86458 0.0
N1000 N 0.25175 0.4107 0.85154 0.0
N1001 N 0.27853 0.43221 0.87745 0.0
C1002 C 0.26769 0.43094 0.8539 0.0
C1003 C 0.25266 0.39865 0.87433 0.0
C1004 C 0.26904 0.41189 0.89034 0.0
C1005 C 0.253 0.39695 0.77056 0.0
O1006 O 0.23061 0.40529 0.76258 0.0
H1007 H 0.27112 0.44453 0.83862 0.0
H1008 H 0.24246 0.38125 0.87895 0.0
O1009 O 0.20681 0.42823 0.81671 0.0
H1010 H 0.17069 0.33412 0.85095 0.0
H1011 H 0.27406 0.40657 0.90976 0.0
Cu1012 Cu 0.3875 0.48012 0.57322 0.0
N1013 N 0.41981 0.46573 0.57994 0.0
N1014 N 0.45765 0.44664 0.57294 0.0
C1015 C 0.43836 0.46055 0.56263 0.0
C1016 C 0.45113 0.44315 0.59771 0.0
C1017 C 0.42768 0.4547 0.6019 0.0
O1018 O 0.39128 0.50228 0.54329 0.0
C1019 C 0.37102 0.43058 0.55903 0.0
O1020 O 0.39292 0.43057 0.5466 0.0
H1021 H 0.43731 0.46608 0.54268 0.0
H1022 H 0.41659 0.4541 0.61941 0.0
N1023 N 0.37729 0.50108 0.60075 0.0
N1024 N 0.35453 0.5284 0.62512 0.0
C1025 C 0.35483 0.51376 0.60362 0.0
C1026 C 0.39169 0.50807 0.62098 0.0
C1027 C 0.37774 0.52474 0.63603 0.0
C1028 C 0.39377 0.49491 0.52016 0.0
O1029 O 0.39065 0.47061 0.5145 0.0
H1030 H 0.33918 0.51242 0.59006 0.0
H1031 H 0.41129 0.50208 0.62422 0.0
O1032 O 0.36374 0.45117 0.5701 0.0
H1033 H 0.46195 0.43199 0.61149 0.0
H1034 H 0.3846 0.53413 0.65321 0.0
Cu1035 Cu 0.73157 0.12772 0.21915 0.0
N1036 N 0.71268 0.15818 0.21568 0.0
N1037 N 0.68943 0.19232 0.22765 0.0
C1038 C 0.70743 0.175 0.23462 0.0
C1039 C 0.68339 0.18639 0.20319 0.0
C1040 C 0.69759 0.16521 0.19595 0.0
O1041 O 0.75491 0.13203 0.24798 0.0
C1042 C 0.68467 0.1027 0.23147 0.0
O1043 O 0.67967 0.12371 0.24446 0.0
H1044 H 0.71587 0.17395 0.25351 0.0
H1045 H 0.6959 0.15476 0.17811 0.0
N1046 N 0.75172 0.12118 0.19008 0.0
N1047 N 0.77928 0.10129 0.16367 0.0
C1048 C 0.76801 0.10127 0.18704 0.0
C1049 C 0.75279 0.13435 0.16793 0.0
C1050 C 0.7697 0.12211 0.15161 0.0
C1051 C 0.74816 0.13379 0.27135 0.0
O1052 O 0.72415 0.12939 0.2776 0.0
H1053 H 0.77117 0.08683 0.20159 0.0
H1054 H 0.7421 0.15166 0.16391 0.0
O1055 O 0.70691 0.09975 0.22171 0.0
H1056 H 0.66871 0.19572 0.19186 0.0
H1057 H 0.77482 0.12831 0.13249 0.0
Cu1058 Cu 0.65391 0.98418 0.96196 0.0
N1059 N 0.62379 0.96598 0.95468 0.0
N1060 N 0.58794 0.94315 0.96031 0.0
C1061 C 0.60548 0.95862 0.9714 0.0
C1062 C 0.59535 0.94082 0.93564 0.0
C1063 C 0.61759 0.95471 0.9323 0.0
O1064 O 0.64808 1.00514 0.99243 0.0
C1065 C 0.67788 0.93652 0.97284 0.0
O1066 O 0.65624 0.9315 0.98468 0.0
H1067 H 0.60521 0.96412 0.99138 0.0
H1068 H 0.62894 0.95582 0.91498 0.0
N1069 N 0.66172 1.0064 0.93482 0.0
N1070 N 0.68315 0.03385 0.90971 0.0
C1071 C 0.68362 0.01976 0.93148 0.0
C1072 C 0.64683 1.0124 0.91461 0.0
C1073 C 0.66001 0.0292 0.89906 0.0
C1074 C 0.64435 0.99644 1.01491 0.0
O1075 O 0.64712 0.97179 0.01917 0.0
H1076 H 0.69965 0.01895 0.94465 0.0
H1077 H 0.62763 1.00524 0.91146 0.0
O1078 O 0.68159 0.95901 0.96407 0.0
H1079 H 0.58589 0.92917 0.9213 0.0
H1080 H 0.65286 0.03775 0.88155 0.0
Cu1081 Cu 0.88473 0.05257 0.46283 0.0
N1082 N 0.91609 0.0682 0.45542 0.0
N1083 N 0.9533 0.08846 0.46185 0.0
C1084 C 0.93409 0.07494 0.4727 0.0
C1085 C 0.94716 0.09024 0.43678 0.0
C1086 C 0.92406 0.07797 0.43293 0.0
O1087 O 0.88978 0.0338 0.49478 0.0
C1088 C 0.86463 0.09917 0.48046 0.0
O1089 O 0.88324 0.09669 0.49728 0.0
H1090 H 0.93289 0.07038 0.4929 0.0
H1091 H 0.9134 0.07698 0.41516 0.0
N1092 N 0.87513 0.0301 0.43626 0.0
N1093 N 0.85287 1.00222 0.4122 0.0
C1094 C 0.85284 0.01721 0.43345 0.0
C1095 C 0.88976 0.02286 0.41626 0.0
C1096 C 0.87613 1.00581 0.40141 0.0
C1097 C 0.90239 1.01284 0.49385 0.0
O1098 O 0.90969 1.00399 0.47141 0.0
H1099 H 0.83697 0.01884 0.44673 0.0
H1100 H 0.90925 0.02906 0.41296 0.0
O1101 O 0.86016 0.08064 0.4652 0.0
H1102 H 0.95813 0.10048 0.42245 0.0
H1103 H 0.88316 0.99623 0.38439 0.0
C1104 C 0.15533 0.19694 0.4697 0.0
C1105 C 0.13109 0.19795 0.48171 0.0
H1106 H 0.18216 0.21485 0.44439 0.0
C1107 C 0.11544 0.21943 0.47689 0.0
H1108 H 0.16824 0.18104 0.47292 0.0
C1109 C 0.12371 0.23917 0.46075 0.0
C1110 C 0.14787 0.23813 0.44862 0.0
H1111 H 0.09662 0.22112 0.48543 0.0
H1112 H 0.11101 0.25535 0.45809 0.0
C1113 C 0.16354 0.21665 0.45337 0.0
C1114 C 0.07189 0.8667 0.72179 0.0
C1115 C 0.08624 0.88391 0.73676 0.0
H1116 H 0.04383 0.86177 0.69231 0.0
C1117 C 0.08258 0.91039 0.73292 0.0
H1118 H 0.07431 0.84621 0.724 0.0
C1119 C 0.0651 0.91938 0.71452 0.0
C1120 C 0.05099 0.90212 0.69935 0.0
H1121 H 0.09308 0.92423 0.74425 0.0
H1122 H 0.06296 0.93986 0.71192 0.0
C1123 C 0.05457 0.87566 0.70334 0.0
C1124 C 0.40021 0.84642 0.95139 0.0
C1125 C 0.40764 0.83852 0.97604 0.0
H1126 H 0.38471 0.83546 0.91494 0.0
C1127 C 0.4049 0.81257 0.98275 0.0
H1128 H 0.40224 0.86627 0.9457 0.0
C1129 C 0.3944 0.79498 0.96527 0.0
C1130 C 0.38712 0.80291 0.94056 0.0
H1131 H 0.41033 0.80606 1.00169 0.0
H1132 H 0.39217 0.77515 0.97094 0.0
C1133 C 0.39035 0.82877 0.93376 0.0
C1134 C 0.46407 0.16736 0.22121 0.0
C1135 C 0.4485 0.15041 0.23522 0.0
H1136 H 0.49393 0.17168 0.19334 0.0
C1137 C 0.45178 0.12388 0.23143 0.0
H1138 H 0.46195 0.18789 0.22344 0.0
C1139 C 0.47011 0.11457 0.21409 0.0
C1140 C 0.48552 0.13154 0.1999 0.0
H1141 H 0.44033 0.11025 0.24204 0.0
H1142 H 0.47192 0.09406 0.21151 0.0
C1143 C 0.48226 0.15806 0.20372 0.0
C1144 C 0.14786 0.79845 0.06508 0.0
C1145 C 0.15288 0.80697 0.09016 0.0
H1146 H 0.13372 0.80835 0.02757 0.0
C1147 C 0.14815 0.83277 0.09634 0.0
H1148 H 0.1512 0.77861 0.05993 0.0
C1149 C 0.13873 0.84977 0.07784 0.0
C1150 C 0.13319 0.84122 0.0529 0.0
H1151 H 0.15193 0.83981 0.1155 0.0
H1152 H 0.13526 0.86954 0.08317 0.0
C1153 C 0.13774 0.81535 0.0467 0.0
C1154 C 0.4857 0.87715 0.32705 0.0
C1155 C 0.48981 0.90358 0.33072 0.0
H1156 H 0.46523 0.84794 0.30657 0.0
C1157 C 0.47629 0.92097 0.31516 0.0
H1158 H 0.49599 0.8632 0.33847 0.0
C1159 C 0.45872 0.91221 0.29685 0.0
C1160 C 0.4543 0.88581 0.29344 0.0
H1161 H 0.4788 0.94142 0.31754 0.0
H1162 H 0.44853 0.92617 0.28536 0.0
C1163 C 0.46826 0.86837 0.30856 0.0
C1164 C 0.39101 0.2358 0.56721 0.0
C1165 C 0.38583 0.22791 0.59246 0.0
H1166 H 0.40388 0.22466 0.5296 0.0
C1167 C 0.38951 0.20203 0.59895 0.0
H1168 H 0.38842 0.25567 0.56178 0.0
C1169 C 0.3978 0.18433 0.58055 0.0
C1170 C 0.40319 0.19219 0.55537 0.0
H1171 H 0.38549 0.19539 0.61819 0.0
H1172 H 0.40029 0.16447 0.58607 0.0
C1173 C 0.39996 0.21816 0.54891 0.0
C1174 C 0.08238 0.12425 0.80195 0.0
C1175 C 0.08408 0.15058 0.79626 0.0
H1176 H 0.06359 0.09476 0.82339 0.0
C1177 C 0.06678 0.16745 0.80832 0.0
H1178 H 0.09513 0.11059 0.79287 0.0
C1179 C 0.04849 0.1583 0.82571 0.0
C1180 C 0.04691 0.132 0.83156 0.0
H1181 H 0.06757 0.18785 0.80467 0.0
H1182 H 0.03546 0.17193 0.83442 0.0
C1183 C 0.06405 0.11509 0.81931 0.0
C1184 C 0.22344 0.46673 0.1717 0.0
C1185 C 0.23811 0.45235 0.1542 0.0
H1186 H 0.19411 0.49501 0.1771 0.0
C1187 C 0.2343 0.45649 0.12779 0.0
H1188 H 0.2257 0.46395 0.19213 0.0
C1189 C 0.21611 0.47434 0.11914 0.0
C1190 C 0.20108 0.48832 0.13667 0.0
H1191 H 0.24545 0.44597 0.11377 0.0
H1192 H 0.21339 0.47675 0.09871 0.0
C1193 C 0.20513 0.48439 0.16306 0.0
C1194 C 0.72375 0.0724 0.86422 0.0
C1195 C 0.7399 0.08578 0.88115 0.0
H1196 H 0.69309 0.0454 0.86001 0.0
C1197 C 0.73752 0.08118 0.90763 0.0
H1198 H 0.72495 0.0756 0.84376 0.0
C1199 C 0.71929 0.06383 0.91695 0.0
C1200 C 0.70277 0.05086 0.90006 0.0
H1201 H 0.74983 0.09096 0.92117 0.0
H1202 H 0.71774 0.06103 0.93745 0.0
C1203 C 0.70532 0.05527 0.87357 0.0
C1204 C 0.79703 0.95645 0.41192 0.0
C1205 C 0.79568 0.94931 0.3859 0.0
H1206 H 0.81612 0.97873 0.44069 0.0
C1207 C 0.81295 0.96066 0.3686 0.0
H1208 H 0.78384 0.94845 0.42577 0.0
C1209 C 0.83138 0.97821 0.37717 0.0
C1210 C 0.833 0.98502 0.40326 0.0
H1211 H 0.8126 0.9556 0.34848 0.0
H1212 H 0.84437 0.98646 0.36328 0.0
C1213 C 0.81539 0.9741 0.42047 0.0
C1214 C 0.81805 0.06114 0.11763 0.0
C1215 C 0.83502 0.04834 0.13424 0.0
H1216 H 0.78706 0.08797 0.11391 0.0
C1217 C 0.83296 0.05295 0.16075 0.0
H1218 H 0.81921 0.05821 0.09712 0.0
C1219 C 0.81455 0.07001 0.17039 0.0
C1220 C 0.79784 0.08313 0.15376 0.0
H1221 H 0.84553 0.04324 0.17413 0.0
H1222 H 0.81375 0.0733 0.19086 0.0
C1223 C 0.79978 0.07842 0.12725 0.0
C1224 C 0.29794 0.57358 0.62544 0.0
C1225 C 0.29665 0.58091 0.65142 0.0
H1226 H 0.31717 0.55135 0.59671 0.0
C1227 C 0.31431 0.56997 0.66865 0.0
H1228 H 0.28449 0.58125 0.61163 0.0
C1229 C 0.33295 0.55256 0.66008 0.0
C1230 C 0.33448 0.54552 0.63405 0.0
H1231 H 0.31409 0.57517 0.68872 0.0
H1232 H 0.34616 0.54459 0.67396 0.0
C1233 C 0.31655 0.55611 0.61689 0.0
C1234 C 0.236 0.58265 0.40792 0.0
C1235 C 0.23874 0.58735 0.3815 0.0
H1236 H 0.21586 0.56239 0.43739 0.0
C1237 C 0.22278 0.57406 0.3643 0.0
H1238 H 0.24815 0.59234 0.42167 0.0
C1239 C 0.20424 0.55688 0.37334 0.0
C1240 C 0.20137 0.55233 0.39977 0.0
H1241 H 0.22424 0.57735 0.34387 0.0
H1242 H 0.19221 0.54705 0.35958 0.0
C1243 C 0.21765 0.56527 0.41693 0.0
C1244 C 0.33271 0.47986 0.87877 0.0
C1245 C 0.33483 0.48534 0.90512 0.0
H1246 H 0.31329 0.45881 0.84934 0.0
C1247 C 0.31751 0.4736 0.92211 0.0
H1248 H 0.34551 0.48877 0.86511 0.0
C1249 C 0.29896 0.45639 0.91303 0.0
C1250 C 0.29708 0.45067 0.88671 0.0
H1251 H 0.31867 0.47725 0.9425 0.0
H1252 H 0.28605 0.44759 0.92666 0.0
C1253 C 0.31403 0.46285 0.86968 0.0
C1254 C 0.65893 0.70558 0.98111 0.0
C1255 C 0.63249 0.70171 0.98504 0.0
H1256 H 0.68813 0.72549 0.96018 0.0
C1257 C 0.61501 0.71636 0.97065 0.0
H1258 H 0.67291 0.69481 0.99206 0.0
C1259 C 0.62376 0.73391 0.95228 0.0
C1260 C 0.65021 0.73748 0.94809 0.0
H1261 H 0.59455 0.71376 0.97308 0.0
H1262 H 0.60979 0.74469 0.94133 0.0
C1263 C 0.66767 0.72334 0.96299 0.0
C1264 C 0.59953 0.38691 0.20486 0.0
C1265 C 0.59273 0.38282 0.23059 0.0
H1266 H 0.58739 0.39925 0.16761 0.0
C1267 C 0.56758 0.38864 0.23849 0.0
H1268 H 0.61872 0.38245 0.19823 0.0
C1269 C 0.54972 0.39875 0.22101 0.0
C1270 C 0.55654 0.40253 0.1952 0.0
H1271 H 0.56193 0.38579 0.25825 0.0
H1272 H 0.53049 0.40322 0.2275 0.0
C1273 C 0.58159 0.39638 0.18733 0.0
C1274 C 0.89907 0.31615 0.48735 0.0
C1275 C 0.90435 0.34115 0.47884 0.0
H1276 H 0.88459 0.2788 0.47746 0.0
C1277 C 0.89939 0.34748 0.45314 0.0
H1278 H 0.90261 0.31091 0.50712 0.0
C1279 C 0.88969 0.3291 0.43617 0.0
C1280 C 0.88408 0.3042 0.44471 0.0
H1281 H 0.9034 0.36658 0.44612 0.0
H1282 H 0.88624 0.3344 0.4164 0.0
C1283 C 0.88864 0.29793 0.47051 0.0
C1284 C 0.9695 0.66668 0.72825 0.0
C1285 C 0.95249 0.64925 0.73976 0.0
H1286 H 1.00115 0.67211 0.70262 0.0
C1287 C 0.95535 0.62298 0.7342 0.0
H1288 H 0.9678 0.68703 0.73191 0.0
C1289 C 0.97442 0.61441 0.71729 0.0
C1290 C 0.99108 0.63188 0.70534 0.0
H1291 H 0.94281 0.60896 0.74292 0.0
H1292 H 0.97568 0.59412 0.71316 0.0
C1293 C 0.98848 0.65812 0.7112 0.0
C1294 C 0.6419 0.31737 0.54576 0.0
C1295 C 0.63693 0.34288 0.55298 0.0
H1296 H 0.65484 0.28005 0.55793 0.0
C1297 C 0.64078 0.35014 0.57864 0.0
H1298 H 0.63919 0.31139 0.52607 0.0
C1299 C 0.64915 0.33227 0.59679 0.0
C1300 C 0.65451 0.30686 0.5896 0.0
H1301 H 0.63697 0.36964 0.5847 0.0
H1302 H 0.65177 0.33837 0.61646 0.0
C1303 C 0.651 0.29959 0.56386 0.0
C1304 C 0.97108 0.36863 0.80672 0.0
C1305 C 0.95389 0.38597 0.79523 0.0
H1306 H 1.00228 0.36321 0.83284 0.0
C1307 C 0.95593 0.41215 0.80154 0.0
H1308 H 0.97002 0.34835 0.80251 0.0
C1309 C 0.97434 0.4207 0.81915 0.0
C1310 C 0.99118 0.40329 0.83104 0.0
H1311 H 0.94327 0.42614 0.79286 0.0
H1312 H 0.975 0.4409 0.82382 0.0
C1313 C 0.98942 0.37717 0.82441 0.0
C1314 C 0.91025 0.7287 0.08338 0.0
C1315 C 0.88386 0.7327 0.08775 0.0
H1316 H 0.93914 0.70736 0.0632 0.0
C1317 C 0.86622 0.71749 0.07417 0.0
H1318 H 0.92442 0.74017 0.09327 0.0
C1319 C 0.87466 0.69878 0.05684 0.0
C1320 C 0.90103 0.6947 0.05248 0.0
H1321 H 0.8458 0.71977 0.07714 0.0
H1322 H 0.86041 0.68768 0.04666 0.0
C1323 C 0.91872 0.71001 0.06591 0.0
C1324 C 0.56491 0.61661 0.32167 0.0
C1325 C 0.5494 0.63379 0.33557 0.0
H1326 H 0.59433 0.61173 0.29351 0.0
C1327 C 0.55247 0.66025 0.3312 0.0
H1328 H 0.5633 0.59615 0.32461 0.0
C1329 C 0.57052 0.66926 0.31348 0.0
C1330 C 0.58607 0.65208 0.29962 0.0
H1331 H 0.54073 0.67412 0.34125 0.0
H1332 H 0.57243 0.68974 0.31087 0.0
C1333 C 0.58298 0.62562 0.30398 0.0
C1334 C 0.72405 0.96715 0.67005 0.0
C1335 C 0.73842 0.95234 0.65266 0.0
H1336 H 0.69524 0.99603 0.67518 0.0
C1337 C 0.73479 0.95641 0.62622 0.0
H1338 H 0.7262 0.96444 0.6905 0.0
C1339 C 0.71699 0.97455 0.61741 0.0
C1340 C 0.70218 0.98891 0.63482 0.0
H1341 H 0.74574 0.94556 0.6123 0.0
H1342 H 0.71437 0.97686 0.59696 0.0
C1343 C 0.7061 0.98511 0.66124 0.0
C1344 C 0.26107 0.3773 0.29177 0.0
C1345 C 0.25257 0.37373 0.26644 0.0
H1346 H 0.255 0.36876 0.33157 0.0
C1347 C 0.23028 0.35918 0.26216 0.0
H1348 H 0.27823 0.3883 0.29569 0.0
C1349 C 0.21705 0.34805 0.28258 0.0
C1350 C 0.22585 0.35094 0.30787 0.0
H1351 H 0.22318 0.35604 0.2429 0.0
H1352 H 0.20031 0.33653 0.27843 0.0
C1353 C 0.24791 0.36589 0.31228 0.0
C1354 C 0.91865 0.9737 0.51622 0.0
C1355 C 0.91096 0.99953 0.51745 0.0
H1356 H 0.93481 0.94158 0.53607 0.0
C1357 C 0.9134 1.01272 0.54084 0.0
H1358 H 0.91706 0.96301 0.49847 0.0
C1359 C 0.92399 1.00048 0.56233 0.0
C1360 C 0.9319 0.97469 0.56096 0.0
H1361 H 0.90782 0.03268 0.54234 0.0
H1362 H 0.92589 1.01113 0.58005 0.0
C1363 C 0.92878 0.96138 0.53776 0.0
C1364 C 0.27204 0.66908 0.82706 0.0
C1365 C 0.2975 0.67525 0.82052 0.0
H1366 H 0.23661 0.65201 0.81535 0.0
C1367 C 0.30695 0.66734 0.79653 0.0
H1368 H 0.26427 0.67438 0.84556 0.0
C1369 C 0.29107 0.65433 0.77918 0.0
C1370 C 0.26541 0.64877 0.7855 0.0
H1371 H 0.32641 0.67182 0.79088 0.0
H1372 H 0.29878 0.64913 0.76061 0.0
C1373 C 0.25624 0.65596 0.80981 0.0
C1374 C 0.62443 1.00288 0.05822 0.0
C1375 C 0.6336 1.01338 0.03517 0.0
H1376 H 0.60543 1.00961 0.09395 0.0
C1377 C 0.6308 0.03991 0.03107 0.0
H1378 H 0.62621 0.98255 0.06205 0.0
C1379 C 0.61876 0.05547 0.04942 0.0
C1380 C 0.60901 0.04482 0.07217 0.0
H1381 H 0.63759 0.04864 1.01351 0.0
H1382 H 0.61654 0.07573 0.04555 0.0
C1383 C 0.61222 0.01838 0.07643 0.0
C1384 C 0.21221 0.6824 0.25052 0.0
C1385 C 0.22345 0.6834 0.22607 0.0
H1386 H 0.21647 0.67179 0.28989 0.0
C1387 C 0.24792 0.67242 0.22257 0.0
H1388 H 0.19351 0.69079 0.25391 0.0
C1389 C 0.26106 0.66124 0.24321 0.0
C1390 C 0.25014 0.66114 0.26784 0.0
H1391 H 0.25695 0.67258 0.20388 0.0
H1392 H 0.2801 0.65347 0.24005 0.0
C1393 C 0.22545 0.67157 0.27116 0.0
C1394 C 0.62758 0.02987 0.47606 0.0
C1395 C 0.63382 0.02074 0.50063 0.0
H1396 H 0.6107 0.02177 0.43959 0.0
C1397 C 0.62814 0.99507 0.5067 0.0
H1398 H 0.63168 0.04949 0.47068 0.0
C1399 C 0.61598 0.97914 0.48879 0.0
C1400 C 0.60901 0.98858 0.46453 0.0
H1401 H 0.63263 0.9874 0.52547 0.0
H1402 H 0.61139 0.95964 0.49418 0.0
C1403 C 0.61527 1.01403 0.45829 0.0
C1404 C 0.28079 0.36938 0.70921 0.0
C1405 C 0.30386 0.35825 0.7178 0.0
H1406 H 0.24694 0.39057 0.71887 0.0
C1407 C 0.31102 0.36173 0.74355 0.0
H1408 H 0.27491 0.36758 0.68939 0.0
C1409 C 0.29496 0.37508 0.76053 0.0
C1410 C 0.27144 0.3854 0.7521 0.0
H1411 H 0.3286 0.35337 0.75081 0.0
H1412 H 0.30069 0.37671 0.78043 0.0
C1413 C 0.26482 0.38281 0.72611 0.0
C1414 C 0.91378 1.00155 0.97606 0.0
C1415 C 0.90389 1.01172 0.999 0.0
H1416 H 0.93309 1.00894 0.94067 0.0
C1417 C 0.90582 0.03828 1.00333 0.0
H1418 H 0.91269 0.9812 0.97209 0.0
C1419 C 0.91764 0.05423 0.98526 0.0
C1420 C 0.92803 0.04396 0.96259 0.0
H1421 H 0.89847 0.04675 0.02082 0.0
H1422 H 0.91911 0.07455 0.98925 0.0
C1423 C 0.92578 0.01745 0.95814 0.0
C1424 C 0.29473 0.22776 0.36508 0.0
C1425 C 0.31825 0.23761 0.35633 0.0
H1426 H 0.25863 0.23571 0.3832 0.0
C1427 C 0.32378 0.26361 0.36082 0.0
H1428 H 0.28991 0.20783 0.3619 0.0
C1429 C 0.30604 0.27951 0.37318 0.0
C1430 C 0.28219 0.2699 0.38125 0.0
H1431 H 0.34192 0.27173 0.35486 0.0
H1432 H 0.31086 0.29952 0.37589 0.0
C1433 C 0.27683 0.24375 0.37729 0.0
C1434 C 0.06062 1.01196 0.612 0.0
C1435 C 0.03567 1.01458 0.62196 0.0
H1436 H 0.09253 0.03028 0.59383 0.0
C1437 C 0.02406 0.03893 0.62183 0.0
H1438 H 0.07012 0.99347 0.61183 0.0
C1439 C 0.03687 0.06001 0.6112 0.0
C1440 C 0.06169 0.05725 0.60086 0.0
H1441 H 1.00482 0.04154 0.62925 0.0
H1442 H 0.02738 0.07848 0.61108 0.0
C1443 C 0.07353 0.03306 0.60176 0.0
C1444 C 0.20782 0.77101 0.86551 0.0
C1445 C 0.21317 0.79712 0.86145 0.0
H1446 H 0.22083 0.73511 0.88058 0.0
C1447 C 0.23622 0.80723 0.87105 0.0
H1448 H 0.19 0.76273 0.85884 0.0
C1449 C 0.25396 0.79137 0.88358 0.0
C1450 C 0.24886 0.76511 0.8871 0.0
H1451 H 0.24085 0.82725 0.86823 0.0
H1452 H 0.27188 0.79961 0.8901 0.0
C1453 C 0.22538 0.75523 0.87829 0.0
C1454 C 0.52885 0.97148 0.13046 0.0
C1455 C 0.5199 0.99617 0.13657 0.0
H1456 H 0.5211 0.93568 0.11207 0.0
C1457 C 0.49482 1.00307 0.12924 0.0
H1458 H 0.54801 0.96546 0.13582 0.0
C1459 C 0.4794 0.986 0.11539 0.0
C1460 C 0.48872 0.96165 0.10844 0.0
H1461 H 0.48729 0.02196 0.13359 0.0
H1462 H 0.4605 0.99219 0.10942 0.0
C1463 C 0.51347 0.95446 0.11656 0.0
C1464 C 0.31152 0.78522 0.1767 0.0
C1465 C 0.31034 0.81114 0.18415 0.0
H1466 H 0.29103 0.75278 0.1617 0.0
C1467 C 0.28708 0.82445 0.18154 0.0
H1468 H 0.32934 0.77462 0.17824 0.0
C1469 C 0.26522 0.81197 0.17238 0.0
C1470 C 0.26628 0.78603 0.16509 0.0
H1471 H 0.28566 0.84438 0.18718 0.0
H1472 H 0.2474 0.82264 0.17114 0.0
C1473 C 0.28973 0.77283 0.16699 0.0
C1474 C 0.51182 0.04218 0.40791 0.0
C1475 C 0.49988 0.01807 0.40655 0.0
H1476 H 0.50877 0.08139 0.42011 0.0
C1477 C 0.47458 1.01562 0.41559 0.0
H1478 H 0.53135 0.04465 0.40126 0.0
C1479 C 0.46167 0.0366 0.42624 0.0
C1480 C 0.47386 0.06049 0.42847 0.0
H1481 H 0.46484 0.9973 0.41484 0.0
H1482 H 0.44241 0.03389 0.4335 0.0
C1483 C 0.499 0.06313 0.41895 0.0
C1484 C 0.24082 0.22649 0.66956 0.0
C1485 C 0.2175 0.23654 0.67862 0.0
H1486 H 0.27649 0.23401 0.65068 0.0
C1487 C 0.21177 0.26249 0.67387 0.0
H1488 H 0.24573 0.2066 0.6729 0.0
C1489 C 0.22923 0.27817 0.66092 0.0
C1490 C 0.25292 0.26833 0.6526 0.0
H1491 H 0.19372 0.2707 0.68008 0.0
H1492 H 0.22441 0.29817 0.65806 0.0
C1493 C 0.25839 0.24223 0.65682 0.0
C1494 C 0.0551 0.98483 0.91453 0.0
C1495 C 0.0454 0.96109 0.92277 0.0
H1496 H 0.04732 0.02063 0.89596 0.0
C1497 C 0.01983 0.95486 0.91675 0.0
H1498 H 0.07465 0.9903 0.91889 0.0
C1499 C 1.00416 0.97219 0.90351 0.0
C1500 C 1.01361 0.99627 0.89601 0.0
H1501 H 1.01183 0.93656 0.92229 0.0
H1502 H 0.98443 0.96691 0.89972 0.0
C1503 C 0.03939 1.00224 0.90138 0.0
C1504 C 0.36785 0.32891 0.26457 0.0
C1505 C 0.36297 0.3235 0.23859 0.0
H1506 H 0.38293 0.31554 0.30031 0.0
C1507 C 0.37122 0.29987 0.22853 0.0
H1508 H 0.36226 0.34713 0.27282 0.0
C1509 C 0.3832 0.28172 0.24431 0.0
C1510 C 0.38742 0.28688 0.27047 0.0
H1511 H 0.36772 0.29512 0.20863 0.0
H1512 H 0.38865 0.26341 0.23611 0.0
C1513 C 0.38 0.31088 0.28028 0.0
C1514 C 0.86902 0.23929 0.8043 0.0
C1515 C 0.86124 0.21545 0.79445 0.0
H1516 H 0.88605 0.27583 0.79643 0.0
C1517 C 0.86639 0.20977 0.7686 0.0
H1518 H 0.86529 0.24422 0.82412 0.0
C1519 C 0.87846 0.22771 0.7528 0.0
C1520 C 0.88551 0.25189 0.76239 0.0
H1521 H 0.86114 0.19139 0.76053 0.0
H1522 H 0.88169 0.22278 0.73288 0.0
C1523 C 0.88091 0.25738 0.78841 0.0
C1524 C 0.03656 0.61538 0.02325 0.0
C1525 C 1.01278 0.61761 0.03578 0.0
H1526 H 0.07588 0.60334 0.02598 0.0
C1527 C 1.01087 0.60989 0.06153 0.0
H1528 H 0.03856 0.621 1.00337 0.0
C1529 C 0.0322 0.60001 0.07446 0.0
C1530 C 0.05579 0.59713 0.0618 0.0
H1531 H 0.9928 0.61136 0.0717 0.0
H1532 H 0.03011 0.59405 0.09423 0.0
C1533 C 0.05781 0.60501 0.03609 0.0
C1534 C 0.66414 0.7657 0.31104 0.0
C1535 C 0.65802 0.76692 0.28482 0.0
H1536 H 0.67921 0.78542 0.34384 0.0
C1537 C 0.66239 0.78991 0.2715 0.0
H1538 H 0.66106 0.74822 0.3218 0.0
C1539 C 0.67332 0.81102 0.28404 0.0
C1540 C 0.67957 0.8097 0.31025 0.0
H1541 H 0.6581 0.79133 0.25122 0.0
H1542 H 0.67673 0.82844 0.27332 0.0
C1543 C 0.67452 0.78695 0.32367 0.0
C1544 C 1.01529 0.91306 0.06198 0.0
C1545 C 1.01436 0.90605 0.03596 0.0
H1546 H 0.99531 0.92933 0.094 0.0
C1547 C 0.99133 0.90951 0.02238 0.0
H1548 H 0.03278 0.91066 0.07296 0.0
C1549 C 0.96995 0.92062 0.0344 0.0
C1550 C 0.97109 0.92806 0.06032 0.0
H1551 H 0.9901 0.90449 1.00225 0.0
H1552 H 0.95254 0.92344 0.02342 0.0
C1553 C 0.99384 0.92372 0.07407 0.0
C1554 C 0.16638 0.73654 0.7283 0.0
C1555 C 0.17624 0.71345 0.73812 0.0
H1556 H 0.14681 0.77185 0.73633 0.0
C1557 C 0.17242 0.70785 0.76422 0.0
H1558 H 0.16903 0.74137 0.70829 0.0
C1559 C 0.15945 0.72508 0.7802 0.0
C1560 C 0.15019 0.7485 0.77056 0.0
H1561 H 0.17931 0.69002 0.77231 0.0
H1562 H 0.15722 0.72025 0.80026 0.0
C1563 C 0.15365 0.75396 0.74437 0.0
C1564 C 0.02059 0.41812 0.47056 0.0
C1565 C 0.02142 0.41103 0.49654 0.0
H1566 H 0.04079 0.43407 0.4386 0.0
C1567 C 0.04452 0.41394 0.51013 0.0
H1568 H 1.00304 0.41612 0.45959 0.0
C1569 C 0.06606 0.42468 0.49814 0.0
C1570 C 0.06501 0.43222 0.47226 0.0
H1571 H 0.04566 0.40883 0.53022 0.0
H1572 H 0.08352 0.42713 0.50911 0.0
C1573 C 0.04219 0.42836 0.4585 0.0
C1574 C 0.49811 0.6051 0.96269 0.0
C1575 C 0.47473 0.60295 0.97589 0.0
H1576 H 0.53759 0.61623 0.96422 0.0
C1577 C 0.47323 0.61203 1.00126 0.0
H1578 H 0.49989 0.59816 0.94321 0.0
C1579 C 0.49478 0.62275 1.01326 0.0
C1580 C 0.51835 0.62419 1.00024 0.0
H1581 H 0.45537 0.61092 1.01179 0.0
H1582 H 0.49315 0.62922 0.03293 0.0
C1583 C 0.51971 0.6154 0.97478 0.0
C1584 C 0.74967 0.86519 0.81265 0.0
C1585 C 0.72391 0.85736 0.81079 0.0
H1586 H 0.78223 0.88141 0.79337 0.0
C1587 C 0.71088 0.86103 0.7875 0.0
H1588 H 0.7601 0.8629 0.83045 0.0
C1589 C 0.72353 0.87144 0.76631 0.0
C1590 C 0.7494 0.87887 0.76799 0.0
H1591 H 0.69109 0.85508 0.78544 0.0
H1592 H 0.71311 0.87333 0.74843 0.0
C1593 C 0.76224 0.87605 0.79153 0.0
C1594 C 0.43134 0.46303 0.03997 0.0
C1595 C 0.43298 0.47586 0.06359 0.0
H1596 H 0.421 0.46514 1.00034 0.0
C1597 C 0.42375 0.50119 0.06531 0.0
H1598 H 0.43843 0.44362 0.03797 0.0
C1599 C 0.41341 0.5135 0.04374 0.0
C1600 C 0.41252 0.50085 0.01995 0.0
H1601 H 0.42451 0.51145 0.08334 0.0
H1602 H 0.40684 0.53314 0.04552 0.0
C1603 C 0.42142 0.47543 0.01839 0.0
C1604 C 0.77347 0.16492 0.33203 0.0
C1605 C 0.79841 0.1722 0.3247 0.0
H1606 H 0.73828 0.14677 0.32124 0.0
C1607 C 0.80731 0.16494 0.3003 0.0
H1608 H 0.76614 0.16966 0.35085 0.0
C1609 C 0.79135 0.15159 0.28333 0.0
C1610 C 0.76612 0.14507 0.29038 0.0
H1611 H 0.82634 0.17029 0.29399 0.0
H1612 H 0.7986 0.14699 0.26441 0.0
C1613 C 0.75756 0.1515 0.31512 0.0
C1614 C 0.11131 0.51973 0.57541 0.0
C1615 C 0.10866 0.54624 0.57123 0.0
H1616 H 0.12466 0.48369 0.56095 0.0
C1617 C 0.11865 0.55678 0.54855 0.0
H1618 H 0.10432 0.51104 0.59289 0.0
C1619 C 0.13045 0.54107 0.53019 0.0
C1620 C 0.13274 0.51448 0.53423 0.0
H1621 H 0.11688 0.57711 0.54478 0.0
H1622 H 0.13747 0.54973 0.51269 0.0
C1623 C 0.12327 0.50407 0.55719 0.0
C1624 C 0.74885 0.17145 0.72142 0.0
C1625 C 0.7242 0.18205 0.72472 0.0
H1626 H 0.78104 0.15274 0.73912 0.0
C1627 C 0.71268 0.18072 0.74902 0.0
H1628 H 0.7581 0.17188 0.70285 0.0
C1629 C 0.72581 0.16989 0.76974 0.0
C1630 C 0.75066 0.15978 0.76662 0.0
H1631 H 0.69381 0.18882 0.75223 0.0
H1632 H 0.71661 0.16983 0.78837 0.0
C1633 C 0.76188 0.16025 0.74212 0.0
C1634 C 0.11622 0.47892 0.99033 0.0
C1635 C 0.10826 0.48864 0.96649 0.0
H1636 H 0.13324 0.48701 0.02686 0.0
C1637 C 0.11296 0.51458 0.96088 0.0
H1638 H 0.11283 0.45905 0.99522 0.0
C1639 C 0.12481 0.53054 0.97885 0.0
C1640 C 0.13211 0.52104 1.00298 0.0
H1641 H 0.10759 0.52258 0.94251 0.0
H1642 H 0.12773 0.5505 0.97396 0.0
C1643 C 0.12791 0.49496 1.00844 0.0
C1644 C 0.75237 0.86886 0.22918 0.0
C1645 C 0.76204 0.87836 0.25249 0.0
H1646 H 0.76051 0.85009 0.19363 0.0
C1647 C 0.78855 0.87629 0.25727 0.0
H1648 H 0.73208 0.87009 0.22482 0.0
C1649 C 0.8049 0.86467 0.23933 0.0
C1650 C 0.79511 0.85464 0.21629 0.0
H1651 H 0.79666 0.88334 0.27505 0.0
H1652 H 0.82514 0.86305 0.24374 0.0
C1653 C 0.76867 0.8571 0.21137 0.0
C1654 C 0.41151 0.50366 0.47638 0.0
C1655 C 0.40387 0.51287 0.50054 0.0
H1656 H 0.42911 0.5121 0.44036 0.0
C1657 C 0.40781 0.53893 0.50634 0.0
H1658 H 0.40879 0.48373 0.47122 0.0
C1659 C 0.41961 0.55522 0.48858 0.0
C1660 C 0.42794 0.54579 0.46473 0.0
H1661 H 0.40222 0.54666 0.5248 0.0
H1662 H 0.42282 0.57506 0.49377 0.0
C1663 C 0.42346 0.51989 0.45874 0.0
C1664 C 0.76147 0.72462 0.86092 0.0
C1665 C 0.76364 0.75013 0.8694 0.0
H1666 H 0.78038 0.6921 0.84424 0.0
C1667 C 0.78758 0.76236 0.86771 0.0
H1668 H 0.74327 0.71466 0.86196 0.0
C1669 C 0.80874 0.7495 0.85714 0.0
C1670 C 0.80647 0.72404 0.84849 0.0
H1671 H 0.78982 0.78205 0.87393 0.0
H1672 H 0.82693 0.75941 0.85591 0.0
C1673 C 0.78269 0.71166 0.85081 0.0
C1674 C 0.5617 0.51715 0.11479 0.0
C1675 C 0.53617 0.51859 0.1234 0.0
H1676 H 0.59352 0.53689 0.09801 0.0
C1677 C 0.52324 0.54223 0.12211 0.0
H1678 H 0.57217 0.49919 0.11553 0.0
C1679 C 0.53541 0.56377 0.11161 0.0
C1680 C 0.56087 0.56216 0.10271 0.0
H1681 H 0.5035 0.54386 0.12842 0.0
H1682 H 0.52497 0.58169 0.11049 0.0
C1683 C 0.57397 0.53872 0.1048 0.0
C1684 C 0.72296 0.28654 0.36573 0.0
C1685 C 0.72574 0.31105 0.35476 0.0
H1686 H 0.74155 0.25474 0.38428 0.0
C1687 C 0.74997 0.32275 0.35533 0.0
H1688 H 0.70445 0.27716 0.36585 0.0
C1689 C 0.77112 0.30992 0.36569 0.0
C1690 C 0.76852 0.28522 0.37613 0.0
H1691 H 0.75278 0.3415 0.34693 0.0
H1692 H 0.78968 0.31923 0.36511 0.0
C1693 C 0.74411 0.27382 0.37652 0.0
C1694 C 0.99536 0.50713 0.62872 0.0
C1695 C 0.01939 0.4988 0.63786 0.0
H1696 H 0.96155 0.49779 0.60725 0.0
C1697 C 0.02683 0.47328 0.63335 0.0
H1698 H 0.98901 0.52668 0.63182 0.0
C1699 C 1.01111 0.4568 0.61921 0.0
C1700 C 0.9875 0.46536 0.60926 0.0
H1701 H 0.04514 0.46615 0.64014 0.0
H1702 H 0.01759 0.43735 0.61595 0.0
C1703 C 0.97957 0.49057 0.61465 0.0
C1704 C 0.78549 0.32405 0.68404 0.0
C1705 C 0.80917 0.31138 0.68603 0.0
H1706 H 0.74589 0.3215 0.67355 0.0
C1707 C 0.81114 0.28588 0.67736 0.0
H1708 H 0.78343 0.34364 0.69063 0.0
C1709 C 0.78972 0.27328 0.66709 0.0
C1710 C 0.76586 0.2858 0.66581 0.0
H1711 H 0.82928 0.27578 0.67837 0.0
H1712 H 0.79166 0.25355 0.66087 0.0
C1713 C 0.76402 0.31133 0.67429 0.0
C1714 C 0.96187 0.53329 0.92722 0.0
C1715 C 0.97392 0.5571 0.93065 0.0
H1716 H 0.96546 0.49445 0.91438 0.0
C1717 C 0.99929 0.56016 0.92193 0.0
H1718 H 0.94241 0.53032 0.93383 0.0
C1719 C 1.01243 0.53969 0.91038 0.0
C1720 C 1.00059 0.51564 0.90774 0.0
H1721 H 1.00896 0.57839 0.924 0.0
H1722 H 0.0321 0.54248 0.9043 0.0
C1723 C 0.97511 0.51275 0.91611 0.0
C1724 C 0.70727 0.76245 0.16805 0.0
C1725 C 0.71337 0.73674 0.17351 0.0
H1726 H 0.7196 0.79806 0.15191 0.0
C1727 C 0.73711 0.72698 0.16518 0.0
H1728 H 0.68895 0.77047 0.17368 0.0
C1729 C 0.7547 0.7428 0.15254 0.0
C1730 C 0.74886 0.76872 0.14774 0.0
H1731 H 0.74241 0.7073 0.16913 0.0
H1732 H 0.77312 0.73485 0.14705 0.0
C1733 C 0.72475 0.77822 0.15526 0.0
C1734 C 0.56227 0.52322 0.41833 0.0
C1735 C 0.53734 0.52003 0.40851 0.0
H1736 H 0.59447 0.5058 0.43701 0.0
C1737 C 0.52612 0.49556 0.40934 0.0
H1738 H 0.57145 0.54183 0.418 0.0
C1739 C 0.53926 0.47494 0.4206 0.0
C1740 C 0.56402 0.4783 0.43086 0.0
H1741 H 0.50689 0.49253 0.40209 0.0
H1742 H 0.53005 0.45638 0.4213 0.0
C1743 C 0.57551 0.50257 0.42919 0.0
C1744 C 0.8625 0.82483 0.76425 0.0
C1745 C 0.85723 0.8188 0.73849 0.0
H1746 H 0.87784 0.81225 0.80013 0.0
C1747 C 0.86496 0.79477 0.72898 0.0
H1748 H 0.85736 0.84337 0.77207 0.0
C1749 C 0.87688 0.77687 0.74511 0.0
C1750 C 0.88152 0.7827 0.77105 0.0
H1751 H 0.86116 0.78955 0.70926 0.0
H1752 H 0.88196 0.75827 0.73735 0.0
C1753 C 0.87454 0.80705 0.7803 0.0
C1754 C 0.36593 0.71045 0.26923 0.0
C1755 C 0.36057 0.71677 0.29489 0.0
H1756 H 0.38168 0.7225 0.23339 0.0
C1757 C 0.36842 0.74077 0.30427 0.0
H1758 H 0.36065 0.69191 0.26155 0.0
C1759 C 0.38058 0.7584 0.28808 0.0
C1760 C 0.38541 0.75226 0.26224 0.0
H1761 H 0.36453 0.74616 0.32394 0.0
H1762 H 0.38579 0.777 0.29572 0.0
C1763 C 0.37828 0.72792 0.25315 0.0
C1764 C 0.53928 0.1176 0.52102 0.0
C1765 C 0.51554 0.11938 0.53367 0.0
H1766 H 0.57876 0.10596 0.52353 0.0
C1767 C 0.51384 0.11154 0.55939 0.0
H1768 H 0.54107 0.12332 0.50114 0.0
C1769 C 0.53533 0.1019 0.57218 0.0
C1770 C 0.55887 0.09936 0.55939 0.0
H1771 H 0.49578 0.11268 0.56962 0.0
H1772 H 0.53341 0.0958 0.59192 0.0
C1773 C 0.56071 0.10742 0.53371 0.0
C1774 C 0.16727 0.29688 0.80793 0.0
C1775 C 0.17685 0.32016 0.79837 0.0
H1776 H 0.14772 0.2617 0.79953 0.0
C1777 C 0.17241 0.32634 0.77252 0.0
H1778 H 0.17038 0.29165 0.82777 0.0
C1779 C 0.15918 0.30946 0.75646 0.0
C1780 C 0.15026 0.2858 0.76575 0.0
H1781 H 0.17905 0.34436 0.76469 0.0
H1782 H 0.15652 0.31473 0.73655 0.0
C1783 C 0.15427 0.27979 0.79176 0.0
C1784 C 0.50326 0.43394 0.57282 0.0
C1785 C 0.47972 0.43614 0.55994 0.0
H1786 H 0.54292 0.42348 0.57053 0.0
C1787 C 0.47809 0.42782 0.53431 0.0
H1788 H 0.50509 0.44025 0.59252 0.0
C1789 C 0.49969 0.41776 0.52177 0.0
C1790 C 0.52341 0.41629 0.5345 0.0
H1791 H 0.46008 0.42898 0.52402 0.0
H1792 H 0.49801 0.41186 0.50192 0.0
C1793 C 0.5249 0.42436 0.56019 0.0
C1794 C 0.65604 0.25272 0.24884 0.0
C1795 C 0.65436 0.24912 0.27554 0.0
H1796 H 0.66866 0.23755 0.21276 0.0
C1797 C 0.6638 0.22618 0.28608 0.0
H1798 H 0.64901 0.27018 0.24006 0.0
C1799 C 0.67523 0.20758 0.27041 0.0
C1800 C 0.67733 0.21137 0.24377 0.0
H1801 H 0.66289 0.22278 0.30654 0.0
H1802 H 0.68232 0.19016 0.27918 0.0
C1803 C 0.66728 0.23402 0.23315 0.0
C1804 C 0.54615 0.91159 1.00987 0.0
C1805 C 0.52298 0.9089 0.99637 0.0
H1806 H 0.58506 0.92503 1.00896 0.0
C1807 C 0.52191 0.91672 0.9706 0.0
H1808 H 0.54746 0.90593 0.02981 0.0
C1809 C 0.54337 0.92742 0.95869 0.0
C1810 C 0.56626 0.93101 0.97239 0.0
H1811 H 0.5043 0.91492 0.95971 0.0
H1812 H 0.54181 0.93365 0.93895 0.0
C1813 C 0.56753 0.92278 0.99805 0.0
C1814 C 0.9954 0.11854 0.51213 0.0
C1815 C 0.01918 0.11927 0.49945 0.0
H1816 H 0.9557 0.10785 0.51008 0.0
C1817 C 0.02066 0.11047 0.474 0.0
H1818 H 0.99371 0.12506 0.53178 0.0
C1819 C 0.99896 0.10083 0.46159 0.0
C1820 C 0.97536 0.09935 0.47446 0.0
H1821 H 0.0387 0.11079 0.4637 0.0
H1822 H 1.00081 0.09386 0.44212 0.0
C1823 C 0.97374 0.10846 0.49981 0.0
C1824 C 0.18918 0.39118 0.47075 0.0
C1825 C 0.19419 0.41648 0.46294 0.0
H1826 H 0.19516 0.3512 0.46366 0.0
C1827 C 0.21281 0.42062 0.44387 0.0
H1828 H 0.17517 0.38728 0.48557 0.0
C1829 C 0.22427 0.39986 0.43122 0.0
C1830 C 0.21742 0.37454 0.43742 0.0
H1831 H 0.21729 0.43985 0.43749 0.0
H1832 H 0.2373 0.40375 0.41553 0.0
C1833 C 0.20069 0.37044 0.45817 0.0
C1834 C 0.92252 0.93507 0.72975 0.0
C1835 C 0.92539 0.94984 0.7074 0.0
H1836 H 0.8967 0.91618 0.75533 0.0
C1837 C 0.90327 0.95981 0.69554 0.0
H1838 H 0.93914 0.92729 0.7395 0.0
C1839 C 0.87881 0.95329 0.70456 0.0
C1840 C 0.87596 0.93682 0.72573 0.0
H1841 H 0.90478 0.9713 0.67833 0.0
H1842 H 0.86217 0.96002 0.69407 0.0
C1843 C 0.89811 0.92873 0.73887 0.0
C1844 C 0.34117 0.66937 0.96301 0.0
C1845 C 0.32148 0.66554 0.94498 0.0
H1846 H 0.36925 0.65201 0.98745 0.0
C1847 C 0.31273 0.6404 0.94057 0.0
H1848 H 0.34828 0.68846 0.967 0.0
C1849 C 0.32481 0.61947 0.95224 0.0
C1850 C 0.34588 0.62317 0.96866 0.0
H1851 H 0.29745 0.63671 0.92699 0.0
H1852 H 0.31848 0.60032 0.94729 0.0
C1853 C 0.35321 0.64841 0.97475 0.0
C1854 C 0.63775 0.09205 0.23007 0.0
C1855 C 0.66314 0.08609 0.22299 0.0
H1856 H 0.59774 0.08667 0.22246 0.0
C1857 C 0.66725 0.06654 0.20485 0.0
H1858 H 0.63384 0.10684 0.24414 0.0
C1859 C 0.64648 0.05493 0.19243 0.0
C1860 C 0.62114 0.0626 0.19783 0.0
H1861 H 0.68652 0.06128 0.19907 0.0
H1862 H 0.65042 0.04104 0.17747 0.0
C1863 C 0.61699 0.08045 0.21763 0.0
C1864 C 0.20257 0.65483 0.09522 0.0
C1865 C 0.19021 0.67699 0.08603 0.0
H1866 H 0.20394 0.61366 0.0947 0.0
C1867 C 0.17259 0.67466 0.06584 0.0
H1868 H 0.21617 0.65608 0.11088 0.0
C1869 C 0.16583 0.65057 0.05642 0.0
C1870 C 0.17619 0.62814 0.06728 0.0
H1871 H 0.16294 0.69144 0.05825 0.0
H1872 H 0.15117 0.64954 0.04173 0.0
C1873 C 0.19551 0.63053 0.08599 0.0
C1874 C 0.67226 0.98142 0.34311 0.0
C1875 C 0.67475 0.95817 0.32964 0.0
H1876 H 0.647 1.00765 0.36214 0.0
C1877 C 0.65232 0.94535 0.32183 0.0
H1878 H 0.68908 0.99194 0.34924 0.0
C1879 C 0.62811 0.9544 0.32925 0.0
C1880 C 0.62578 0.97646 0.34462 0.0
H1881 H 0.65347 0.9275 0.31127 0.0
H1882 H 0.61136 0.94323 0.32417 0.0
C1883 C 0.64806 0.99046 0.35051 0.0
C1884 C 0.33933 0.40332 0.58344 0.0
C1885 C 0.35872 0.40556 0.56478 0.0
H1886 H 0.31889 0.378 0.60871 0.0
C1887 C 0.36929 0.38303 0.55428 0.0
H1888 H 0.33074 0.42027 0.59187 0.0
C1889 C 0.36277 0.35905 0.56411 0.0
C1890 C 0.34511 0.35694 0.58426 0.0
H1891 H 0.38402 0.38392 0.53965 0.0
H1892 H 0.37269 0.34223 0.55694 0.0
C1893 C 0.33246 0.37912 0.59302 0.0
C1894 C 0.92219 0.09229 0.79789 0.0
C1895 C 0.92496 0.07778 0.82043 0.0
H1896 H 0.8967 0.11288 0.77316 0.0
C1897 C 0.90269 0.0699 0.83348 0.0
H1898 H 0.93888 0.09851 0.78722 0.0
C1899 C 0.87842 0.07822 0.82543 0.0
C1900 C 0.87586 0.09454 0.80411 0.0
H1901 H 0.90405 0.0586 0.85084 0.0
H1902 H 0.86183 0.07305 0.8368 0.0
C1903 C 0.89793 0.10054 0.7898 0.0
C1904 C 0.47286 0.18466 0.38897 0.0
C1905 C 0.465 0.19029 0.41417 0.0
H1906 H 0.46684 0.1911 0.34886 0.0
C1907 C 0.44704 0.21008 0.41801 0.0
H1908 H 0.48679 0.16967 0.38528 0.0
C1909 C 0.43565 0.22244 0.3971 0.0
C1910 C 0.44189 0.21525 0.37185 0.0
H1911 H 0.44071 0.21511 0.43715 0.0
H1912 H 0.42088 0.23661 0.4008 0.0
C1913 C 0.46142 0.19699 0.36803 0.0
C1914 C 0.07905 0.19069 0.63161 0.0
C1915 C 0.09022 0.20085 0.60928 0.0
H1916 H 0.07784 0.19158 0.67277 0.0
C1917 C 0.10559 0.22281 0.6113 0.0
H1918 H 0.06717 0.1737 0.63061 0.0
C1919 C 0.1114 0.23321 0.63526 0.0
C1920 C 0.10237 0.22162 0.65786 0.0
H1921 H 0.11425 0.23119 0.5944 0.0
H1922 H 0.12441 0.24936 0.63605 0.0
C1923 C 0.08519 0.20092 0.65577 0.0
C1924 C 0.08417 0.8183 0.91865 0.0
C1925 C 0.06535 0.8373 0.9151 0.0
H1926 H 0.11166 0.7934 0.90107 0.0
C1927 C 0.05738 0.84307 0.88996 0.0
H1928 H 0.09059 0.81319 0.93773 0.0
C1929 C 0.06959 0.83179 0.86884 0.0
C1930 C 0.08994 0.81441 0.87241 0.0
H1931 H 0.04282 0.8575 0.8865 0.0
H1932 H 0.06408 0.83785 0.84976 0.0
C1933 C 0.09626 0.80693 0.89755 0.0
C1934 C 0.45953 0.83898 0.12747 0.0
C1935 C 0.44777 0.82889 0.10538 0.0
H1936 H 0.45974 0.84024 0.16863 0.0
C1937 C 0.43014 0.8088 0.10807 0.0
H1938 H 0.47312 0.8546 0.12595 0.0
C1939 C 0.42268 0.80045 0.13234 0.0
C1940 C 0.43238 0.81228 0.15456 0.0
H1941 H 0.42093 0.80052 0.09137 0.0
H1942 H 0.40797 0.78586 0.1336 0.0
C1943 C 0.4518 0.83081 0.15192 0.0
C1944 C 0.39215 0.47693 0.18946 0.0
C1945 C 0.41724 0.46855 0.19496 0.0
H1946 H 0.35194 0.47187 0.19616 0.0
C1947 C 0.42083 0.45066 0.21479 0.0
H1948 H 0.38865 0.49083 0.17445 0.0
C1949 C 0.39972 0.43986 0.22736 0.0
C1950 C 0.37454 0.44661 0.22029 0.0
H1951 H 0.43988 0.44394 0.2197 0.0
H1952 H 0.40318 0.42508 0.24153 0.0
C1953 C 0.37104 0.46605 0.20195 0.0
C1954 C 0.82256 0.91674 0.08576 0.0
C1955 C 0.84236 0.91273 0.06789 0.0
H1956 H 0.79643 0.8997 0.11238 0.0
C1957 C 0.84815 0.88744 0.06039 0.0
H1958 H 0.81745 0.93594 0.09186 0.0
C1959 C 0.83609 0.86661 0.07218 0.0
C1960 C 0.81797 0.8706 0.09176 0.0
H1961 H 0.86311 0.88363 0.04647 0.0
H1962 H 0.84215 0.84741 0.06703 0.0
C1963 C 0.8105 0.89589 0.09757 0.0
C1964 C 0.15388 0.58495 0.71622 0.0
C1965 C 0.17631 0.57195 0.70852 0.0
H1966 H 0.11303 0.58823 0.71255 0.0
C1967 C 0.17381 0.54927 0.69417 0.0
H1968 H 0.15505 0.60238 0.72746 0.0
C1969 C 0.14971 0.54119 0.68559 0.0
C1970 C 0.12754 0.55554 0.69126 0.0
H1971 H 0.1906 0.53859 0.68811 0.0
H1972 H 0.14869 0.52454 0.67321 0.0
C1973 C 0.12972 0.57679 0.70771 0.0
C1974 C 0.71368 0.91862 0.94586 0.0
C1975 C 0.69451 0.91492 0.96447 0.0
H1976 H 0.73864 0.90115 0.91828 0.0
C1977 C 0.68882 0.88974 0.97224 0.0
H1978 H 0.71867 0.93774 0.93952 0.0
C1979 C 0.70025 0.86874 0.96004 0.0
C1980 C 0.71766 0.87241 0.93978 0.0
H1981 H 0.67437 0.88615 0.98671 0.0
H1982 H 0.69425 0.84963 0.96549 0.0
C1983 C 0.72513 0.89759 0.93364 0.0
C1984 C 0.85891 0.17134 0.4776 0.0
C1985 C 0.84116 0.17477 0.45764 0.0
H1986 H 0.87966 0.14486 0.50099 0.0
C1987 C 0.82817 0.15323 0.44795 0.0
H1988 H 0.86914 0.18759 0.48551 0.0
C1989 C 0.83453 0.12852 0.45653 0.0
C1990 C 0.8537 0.12499 0.47522 0.0
H1991 H 0.81448 0.15526 0.43244 0.0
H1992 H 0.82541 0.11217 0.44755 0.0
C1993 C 0.86492 0.14677 0.48647 0.0
C1994 C 0.67676 0.17453 0.56226 0.0
C1995 C 0.69348 0.1768 0.58321 0.0
H1996 H 0.65612 0.14947 0.53739 0.0
C1997 C 0.70522 0.15457 0.59301 0.0
H1998 H 0.66762 0.19136 0.55416 0.0
C1999 C 0.69835 0.1303 0.58359 0.0
C2000 C 0.67981 0.12799 0.56409 0.0
H2001 H 0.71814 0.15576 0.60925 0.0
H2002 H 0.70621 0.1134 0.59276 0.0
C2003 C 0.67017 0.15045 0.55268 0.0
C2004 C 0.11661 0.44244 0.80141 0.0
C2005 C 0.11397 0.45654 0.82424 0.0
H2006 H 0.14179 0.42146 0.77668 0.0
C2007 C 0.13631 0.46358 0.8377 0.0
H2008 H 0.0999 0.43688 0.79039 0.0
C2009 C 0.16046 0.45477 0.82975 0.0
C2010 C 0.16274 0.43866 0.80823 0.0
H2011 H 0.13504 0.4746 0.85527 0.0
H2012 H 0.17704 0.45915 0.84148 0.0
C2013 C 0.1407 0.43358 0.79353 0.0
C2014 C 0.39843 0.60423 0.29255 0.0
C2015 C 0.37627 0.5976 0.30641 0.0
H2016 H 0.43946 0.60328 0.29071 0.0
C2017 C 0.37886 0.58134 0.32777 0.0
H2018 H 0.39719 0.61657 0.2759 0.0
C2019 C 0.40319 0.57364 0.33625 0.0
C2020 C 0.42548 0.5821 0.32362 0.0
H2021 H 0.3622 0.57571 0.33882 0.0
H2022 H 0.40453 0.56232 0.3536 0.0
C2023 C 0.42274 0.59662 0.30108 0.0
C2024 C 0.95483 0.68976 0.90369 0.0
C2025 C 0.94602 0.7019 0.92617 0.0
H2026 H 0.95235 0.68747 0.86268 0.0
C2027 C 0.93068 0.72396 0.92382 0.0
H2028 H 0.96676 0.67277 0.90479 0.0
C2029 C 0.92245 0.73234 0.89975 0.0
C2030 C 0.92938 0.7189 0.87741 0.0
H2031 H 0.92378 0.73399 0.94067 0.0
H2032 H 0.90946 0.74856 0.89881 0.0
C2033 C 0.94659 0.69821 0.87952 0.0
C2034 C 0.57955 0.70279 0.12735 0.0
C2035 C 0.55919 0.68541 0.12407 0.0
H2036 H 0.60424 0.72219 0.15385 0.0
C2037 C 0.54572 0.67707 0.14588 0.0
H2038 H 0.59025 0.70974 0.11097 0.0
C2039 C 0.55383 0.6841 0.17046 0.0
C2040 C 0.57547 0.6998 0.17382 0.0
H2041 H 0.52982 0.66384 0.14411 0.0
H2042 H 0.54392 0.67611 0.18686 0.0
C2043 C 0.58755 0.70999 0.15197 0.0
C2044 C 0.59454 0.33093 0.38294 0.0
C2045 C 0.585 0.34361 0.36116 0.0
H2046 H 0.59449 0.32869 0.42404 0.0
C2047 C 0.56483 0.36125 0.36412 0.0
H2048 H 0.61023 0.31737 0.38122 0.0
C2049 C 0.55556 0.36743 0.38849 0.0
C2050 C 0.56666 0.35655 0.41054 0.0
H2051 H 0.55707 0.37125 0.34764 0.0
H2052 H 0.54088 0.38208 0.39006 0.0
C2053 C 0.58561 0.33752 0.40746 0.0
C2054 C 0.91958 0.30511 0.6331 0.0
C2055 C 0.93011 0.31568 0.65558 0.0
H2056 H 0.91671 0.30722 0.59224 0.0
C2057 C 0.94985 0.33394 0.65327 0.0
H2058 H 0.90459 0.29079 0.63406 0.0
C2059 C 0.95716 0.34303 0.62901 0.0
C2060 C 0.94462 0.3342 0.60683 0.0
H2061 H 0.95843 0.34241 0.67019 0.0
H2062 H 0.97106 0.35841 0.62781 0.0
C2063 C 0.92656 0.31446 0.60906 0.0
loop_
_geom_bond_atom_site_label_1
_geom_bond_atom_site_label_2
_geom_bond_distance
_geom_bond_site_symmetry_2
_ccdc_geom_bond_type
Cu0 N1 1.999 . S
Cu0 O6 1.974 . S
Cu0 N11 1.985 . S
Cu0 O20 1.959 . S
N1 Cu0 1.999 . S
N1 C3 1.263 . S
N1 C5 1.389 . S
N2 C3 1.358 . S
N2 C4 1.400 . S
C3 N1 1.263 . S
C3 N2 1.358 . S
C3 H9 0.930 . S
C4 N2 1.400 . S
C4 C5 1.351 . S
C4 H21 0.930 . S
C5 N1 1.389 . S
C5 C4 1.351 . S
C5 H10 0.930 . S
O6 Cu0 1.974 . S
O6 C16 1.282 . S
C7 O8 1.261 . S
C7 O20 1.251 . S
O8 C7 1.261 . S
H9 C3 0.930 . S
H10 C5 0.930 . S
N11 Cu0 1.985 . S
N11 C13 1.335 . S
N11 C14 1.390 . S
N12 C13 1.345 . S
N12 C15 1.336 . S
C13 N11 1.335 . S
C13 N12 1.345 . S
C13 H18 0.930 . S
C14 N11 1.390 . S
C14 C15 1.346 . S
C14 H19 0.930 . S
C15 N12 1.336 . S
C15 C14 1.346 . S
C15 H22 0.929 . S
C16 O6 1.282 . S
C16 O17 1.216 . S
O17 C16 1.216 . S
H18 C13 0.930 . S
H19 C14 0.930 . S
O20 Cu0 1.959 . S
O20 C7 1.251 . S
H21 C4 0.930 . S
H22 C15 0.929 . S
Cu23 N24 1.999 . S
Cu23 O29 1.974 . S
Cu23 N34 1.985 . S
Cu23 O43 1.959 . S
N24 Cu23 1.999 . S
N24 C26 1.263 . S
N24 C28 1.389 . S
N25 C26 1.358 . S
N25 C27 1.400 . S
C26 N24 1.263 . S
C26 N25 1.358 . S
C26 H32 0.930 . S
C27 N25 1.400 . S
C27 C28 1.351 . S
C27 H44 0.930 . S
C28 N24 1.389 . S
C28 C27 1.351 . S
C28 H33 0.930 . S
O29 Cu23 1.974 . S
O29 C39 1.282 . S
C30 O31 1.261 . S
C30 O43 1.251 . S
O31 C30 1.261 . S
H32 C26 0.930 . S
H33 C28 0.930 . S
N34 Cu23 1.985 . S
N34 C36 1.335 . S
N34 C37 1.390 1_655 S
N35 C36 1.345 1_455 S
N35 C38 1.336 . S
C36 N34 1.335 . S
C36 N35 1.345 1_655 S
C36 H41 0.930 . S
C37 N34 1.390 1_455 S
C37 C38 1.346 . S
C37 H42 0.930 . S
C38 N35 1.336 . S
C38 C37 1.346 . S
C38 H45 0.929 . S
C39 O29 1.282 . S
C39 O40 1.216 . S
O40 C39 1.216 . S
H41 C36 0.930 . S
H42 C37 0.930 . S
O43 Cu23 1.959 . S
O43 C30 1.251 . S
H44 C27 0.930 . S
H45 C38 0.929 . S
Cu46 N47 1.999 . S
Cu46 O52 1.974 . S
Cu46 N57 1.985 . S
Cu46 O66 1.959 . S
N47 Cu46 1.999 . S
N47 C49 1.263 . S
N47 C51 1.389 . S
N48 C49 1.358 . S
N48 C50 1.400 . S
C49 N47 1.263 . S
C49 N48 1.358 . S
C49 H55 0.930 . S
C50 N48 1.400 . S
C50 C51 1.351 . S
C50 H67 0.930 . S
C51 N47 1.389 . S
C51 C50 1.351 . S
C51 H56 0.930 . S
O52 Cu46 1.974 . S
O52 C62 1.282 . S
C53 O54 1.261 . S
C53 O66 1.251 . S
O54 C53 1.261 . S
H55 C49 0.930 . S
H56 C51 0.930 . S
N57 Cu46 1.985 . S
N57 C59 1.335 . S
N57 C60 1.390 . S
N58 C59 1.345 . S
N58 C61 1.336 . S
C59 N57 1.335 . S
C59 N58 1.345 . S
C59 H64 0.930 . S
C60 N57 1.390 . S
C60 C61 1.346 . S
C60 H65 0.930 . S
C61 N58 1.336 . S
C61 C60 1.346 . S
C61 H68 0.929 . S
C62 O52 1.282 . S
C62 O63 1.216 . S
O63 C62 1.216 . S
H64 C59 0.930 . S
H65 C60 0.930 . S
O66 Cu46 1.959 . S
O66 C53 1.251 . S
H67 C50 0.930 . S
H68 C61 0.929 . S
Cu69 N70 1.999 . S
Cu69 O75 1.974 . S
Cu69 N80 1.985 . S
Cu69 O89 1.959 . S
N70 Cu69 1.999 . S
N70 C72 1.263 . S
N70 C74 1.389 . S
N71 C72 1.358 . S
N71 C73 1.400 . S
C72 N70 1.263 . S
C72 N71 1.358 . S
C72 H78 0.930 . S
C73 N71 1.400 . S
C73 C74 1.351 . S
C73 H90 0.930 . S
C74 N70 1.389 . S
C74 C73 1.351 . S
C74 H79 0.930 . S
O75 Cu69 1.974 . S
O75 C85 1.282 . S
C76 O77 1.261 . S
C76 O89 1.251 . S
O77 C76 1.261 . S
H78 C72 0.930 . S
H79 C74 0.930 . S
N80 Cu69 1.985 . S
N80 C82 1.335 . S
N80 C83 1.390 . S
N81 C82 1.345 . S
N81 C84 1.336 . S
C82 N80 1.335 . S
C82 N81 1.345 . S
C82 H87 0.930 . S
C83 N80 1.390 . S
C83 C84 1.346 . S
C83 H88 0.930 . S
C84 N81 1.336 . S
C84 C83 1.346 . S
C84 H91 0.929 . S
C85 O75 1.282 . S
C85 O86 1.216 . S
O86 C85 1.216 . S
H87 C82 0.930 . S
H88 C83 0.930 . S
O89 Cu69 1.959 . S
O89 C76 1.251 . S
H90 C73 0.930 . S
H91 C84 0.929 . S
Cu92 N93 1.999 . S
Cu92 O98 1.974 . S
Cu92 N103 1.985 . S
Cu92 O112 1.959 . S
N93 Cu92 1.999 . S
N93 C95 1.263 . S
N93 C97 1.389 . S
N94 C95 1.358 . S
N94 C96 1.400 . S
C95 N93 1.263 . S
C95 N94 1.358 . S
C95 H101 0.930 . S
C96 N94 1.400 . S
C96 C97 1.351 . S
C96 H113 0.930 . S
C97 N93 1.389 . S
C97 C96 1.351 . S
C97 H102 0.930 . S
O98 Cu92 1.974 . S
O98 C108 1.282 . S
C99 O100 1.261 . S
C99 O112 1.251 . S
O100 C99 1.261 . S
H101 C95 0.930 . S
H102 C97 0.930 . S
N103 Cu92 1.985 . S
N103 C105 1.335 . S
N103 C106 1.390 . S
N104 C105 1.345 . S
N104 C107 1.336 . S
C105 N103 1.335 . S
C105 N104 1.345 . S
C105 H110 0.930 . S
C106 N103 1.390 . S
C106 C107 1.346 . S
C106 H111 0.930 . S
C107 N104 1.336 . S
C107 C106 1.346 . S
C107 H114 0.929 . S
C108 O98 1.282 . S
C108 O109 1.216 . S
O109 C108 1.216 . S
H110 C105 0.930 . S
H111 C106 0.930 . S
O112 Cu92 1.959 . S
O112 C99 1.251 . S
H113 C96 0.930 . S
H114 C107 0.929 . S
Cu115 N116 1.999 . S
Cu115 O121 1.974 . S
Cu115 N126 1.985 . S
Cu115 O135 1.959 . S
N116 Cu115 1.999 . S
N116 C118 1.263 . S
N116 C120 1.389 . S
N117 C118 1.358 . S
N117 C119 1.400 . S
C118 N116 1.263 . S
C118 N117 1.358 . S
C118 H124 0.930 . S
C119 N117 1.400 . S
C119 C120 1.351 . S
C119 H136 0.930 . S
C120 N116 1.389 . S
C120 C119 1.351 . S
C120 H125 0.930 . S
O121 Cu115 1.974 . S
O121 C131 1.282 . S
C122 O123 1.261 . S
C122 O135 1.251 . S
O123 C122 1.261 . S
H124 C118 0.930 . S
H125 C120 0.930 . S
N126 Cu115 1.985 . S
N126 C128 1.335 . S
N126 C129 1.390 . S
N127 C128 1.345 . S
N127 C130 1.336 . S
C128 N126 1.335 . S
C128 N127 1.345 . S
C128 H133 0.930 . S
C129 N126 1.390 . S
C129 C130 1.346 . S
C129 H134 0.930 . S
C130 N127 1.336 . S
C130 C129 1.346 . S
C130 H137 0.929 . S
C131 O121 1.282 . S
C131 O132 1.216 . S
O132 C131 1.216 . S
H133 C128 0.930 . S
H134 C129 0.930 . S
O135 Cu115 1.959 . S
O135 C122 1.251 . S
H136 C119 0.930 . S
H137 C130 0.929 . S
Cu138 N139 1.999 . S
Cu138 O144 1.974 . S
Cu138 N149 1.985 . S
Cu138 O158 1.959 . S
N139 Cu138 1.999 . S
N139 C141 1.263 . S
N139 C143 1.389 . S
N140 C141 1.358 . S
N140 C142 1.400 . S
C141 N139 1.263 . S
C141 N140 1.358 . S
C141 H147 0.930 . S
C142 N140 1.400 . S
C142 C143 1.351 . S
C142 H159 0.930 . S
C143 N139 1.389 . S
C143 C142 1.351 . S
C143 H148 0.930 . S
O144 Cu138 1.974 . S
O144 C154 1.282 . S
C145 O146 1.261 . S
C145 O158 1.251 . S
O146 C145 1.261 . S
H147 C141 0.930 . S
H148 C143 0.930 . S
N149 Cu138 1.985 . S
N149 C151 1.335 . S
N149 C152 1.390 . S
N150 C151 1.345 . S
N150 C153 1.336 . S
C151 N149 1.335 . S
C151 N150 1.345 . S
C151 H156 0.930 . S
C152 N149 1.390 . S
C152 C153 1.346 . S
C152 H157 0.930 . S
C153 N150 1.336 . S
C153 C152 1.346 . S
C153 H160 0.929 . S
C154 O144 1.282 . S
C154 O155 1.216 . S
O155 C154 1.216 . S
H156 C151 0.930 . S
H157 C152 0.930 . S
O158 Cu138 1.959 . S
O158 C145 1.251 . S
H159 C142 0.930 . S
H160 C153 0.929 . S
Cu161 N162 1.999 . S
Cu161 O167 1.974 . S
Cu161 N172 1.985 . S
Cu161 O181 1.959 . S
N162 Cu161 1.999 . S
N162 C164 1.263 . S
N162 C166 1.389 . S
N163 C164 1.358 . S
N163 C165 1.400 . S
C164 N162 1.263 . S
C164 N163 1.358 . S
C164 H170 0.930 . S
C165 N163 1.400 . S
C165 C166 1.351 . S
C165 H182 0.930 . S
C166 N162 1.389 . S
C166 C165 1.351 . S
C166 H171 0.930 . S
O167 Cu161 1.974 . S
O167 C177 1.282 . S
C168 O169 1.261 . S
C168 O181 1.251 . S
O169 C168 1.261 . S
H170 C164 0.930 . S
H171 C166 0.930 . S
N172 Cu161 1.985 . S
N172 C174 1.335 . S
N172 C175 1.390 1_655 S
N173 C174 1.345 1_455 S
N173 C176 1.336 . S
C174 N172 1.335 . S
C174 N173 1.345 1_655 S
C174 H179 0.930 . S
C175 N172 1.390 1_455 S
C175 C176 1.346 . S
C175 H180 0.930 . S
C176 N173 1.336 . S
C176 C175 1.346 . S
C176 H183 0.929 . S
C177 O167 1.282 . S
C177 O178 1.216 . S
O178 C177 1.216 . S
H179 C174 0.930 . S
H180 C175 0.930 . S
O181 Cu161 1.959 . S
O181 C168 1.251 . S
H182 C165 0.930 . S
H183 C176 0.929 . S
Cu184 N185 1.999 . S
Cu184 O190 1.974 . S
Cu184 N195 1.985 . S
Cu184 O204 1.959 . S
N185 Cu184 1.999 . S
N185 C187 1.263 . S
N185 C189 1.389 . S
N186 C187 1.358 . S
N186 C188 1.400 . S
C187 N185 1.263 . S
C187 N186 1.358 . S
C187 H193 0.930 . S
C188 N186 1.400 . S
C188 C189 1.351 . S
C188 H205 0.930 . S
C189 N185 1.389 . S
C189 C188 1.351 . S
C189 H194 0.930 . S
O190 Cu184 1.974 . S
O190 C200 1.282 . S
C191 O192 1.261 . S
C191 O204 1.251 . S
O192 C191 1.261 . S
H193 C187 0.930 . S
H194 C189 0.930 . S
N195 Cu184 1.985 . S
N195 C197 1.335 . S
N195 C198 1.390 . S
N196 C197 1.345 . S
N196 C199 1.336 . S
C197 N195 1.335 . S
C197 N196 1.345 . S
C197 H202 0.930 . S
C198 N195 1.390 . S
C198 C199 1.346 . S
C198 H203 0.930 . S
C199 N196 1.336 . S
C199 C198 1.346 . S
C199 H206 0.929 . S
C200 O190 1.282 . S
C200 O201 1.216 . S
O201 C200 1.216 . S
H202 C197 0.930 . S
H203 C198 0.930 . S
O204 Cu184 1.959 . S
O204 C191 1.251 . S
H205 C188 0.930 . S
H206 C199 0.929 . S
Cu207 N208 1.999 . S
Cu207 O213 1.974 . S
Cu207 N218 1.985 . S
Cu207 O227 1.959 . S
N208 Cu207 1.999 . S
N208 C210 1.263 . S
N208 C212 1.389 . S
N209 C210 1.358 . S
N209 C211 1.400 . S
C210 N208 1.263 . S
C210 N209 1.358 . S
C210 H216 0.930 . S
C211 N209 1.400 . S
C211 C212 1.351 . S
C211 H228 0.930 . S
C212 N208 1.389 . S
C212 C211 1.351 . S
C212 H217 0.930 . S
O213 Cu207 1.974 . S
O213 C223 1.282 . S
C214 O215 1.261 . S
C214 O227 1.251 . S
O215 C214 1.261 . S
H216 C210 0.930 . S
H217 C212 0.930 . S
N218 Cu207 1.985 . S
N218 C220 1.335 . S
N218 C221 1.390 . S
N219 C220 1.345 . S
N219 C222 1.336 . S
C220 N218 1.335 . S
C220 N219 1.345 . S
C220 H225 0.930 . S
C221 N218 1.390 . S
C221 C222 1.346 . S
C221 H226 0.930 . S
C222 N219 1.336 . S
C222 C221 1.346 . S
C222 H229 0.929 . S
C223 O213 1.282 . S
C223 O224 1.216 . S
O224 C223 1.216 . S
H225 C220 0.930 . S
H226 C221 0.930 . S
O227 Cu207 1.959 . S
O227 C214 1.251 . S
H228 C211 0.930 . S
H229 C222 0.929 . S
Cu230 N231 1.999 . S
Cu230 O236 1.974 . S
Cu230 N241 1.985 . S
Cu230 O250 1.959 . S
N231 Cu230 1.999 . S
N231 C233 1.263 . S
N231 C235 1.389 . S
N232 C233 1.358 . S
N232 C234 1.400 . S
C233 N231 1.263 . S
C233 N232 1.358 . S
C233 H239 0.930 . S
C234 N232 1.400 . S
C234 C235 1.351 . S
C234 H251 0.930 . S
C235 N231 1.389 . S
C235 C234 1.351 . S
C235 H240 0.930 . S
O236 Cu230 1.974 . S
O236 C246 1.282 . S
C237 O238 1.261 . S
C237 O250 1.251 . S
O238 C237 1.261 . S
H239 C233 0.930 . S
H240 C235 0.930 . S
N241 Cu230 1.985 . S
N241 C243 1.335 . S
N241 C244 1.390 . S
N242 C243 1.345 . S
N242 C245 1.336 . S
C243 N241 1.335 . S
C243 N242 1.345 . S
C243 H248 0.930 . S
C244 N241 1.390 . S
C244 C245 1.346 . S
C244 H249 0.930 . S
C245 N242 1.336 . S
C245 C244 1.346 . S
C245 H252 0.929 . S
C246 O236 1.282 . S
C246 O247 1.216 . S
O247 C246 1.216 . S
H248 C243 0.930 . S
H249 C244 0.930 . S
O250 Cu230 1.959 . S
O250 C237 1.251 . S
H251 C234 0.930 . S
H252 C245 0.929 . S
Cu253 N254 1.999 . S
Cu253 O259 1.974 . S
Cu253 N264 1.985 . S
Cu253 O273 1.959 . S
N254 Cu253 1.999 . S
N254 C256 1.263 . S
N254 C258 1.389 . S
N255 C256 1.358 . S
N255 C257 1.400 . S
C256 N254 1.263 . S
C256 N255 1.358 . S
C256 H262 0.930 . S
C257 N255 1.400 . S
C257 C258 1.351 . S
C257 H274 0.930 . S
C258 N254 1.389 . S
C258 C257 1.351 . S
C258 H263 0.930 . S
O259 Cu253 1.974 . S
O259 C269 1.282 . S
C260 O261 1.261 . S
C260 O273 1.251 . S
O261 C260 1.261 . S
H262 C256 0.930 . S
H263 C258 0.930 . S
N264 Cu253 1.985 . S
N264 C266 1.335 . S
N264 C267 1.390 1_554 S
N265 C266 1.345 1_556 S
N265 C268 1.336 . S
C266 N264 1.335 . S
C266 N265 1.345 1_554 S
C266 H271 0.930 . S
C267 N264 1.390 1_556 S
C267 C268 1.346 . S
C267 H272 0.930 . S
C268 N265 1.336 . S
C268 C267 1.346 . S
C268 H275 0.929 . S
C269 O259 1.282 . S
C269 O270 1.216 . S
O270 C269 1.216 . S
H271 C266 0.930 . S
H272 C267 0.930 . S
O273 Cu253 1.959 . S
O273 C260 1.251 . S
H274 C257 0.930 . S
H275 C268 0.929 . S
Cu276 N277 1.999 . S
Cu276 O282 1.974 . S
Cu276 N287 1.985 . S
Cu276 O296 1.959 . S
N277 Cu276 1.999 . S
N277 C279 1.263 . S
N277 C281 1.389 . S
N278 C279 1.358 . S
N278 C280 1.400 . S
C279 N277 1.263 . S
C279 N278 1.358 . S
C279 H285 0.930 . S
C280 N278 1.400 . S
C280 C281 1.351 . S
C280 H297 0.930 . S
C281 N277 1.389 . S
C281 C280 1.351 . S
C281 H286 0.930 . S
O282 Cu276 1.974 . S
O282 C292 1.282 . S
C283 O284 1.261 . S
C283 O296 1.251 . S
O284 C283 1.261 . S
H285 C279 0.930 . S
H286 C281 0.930 . S
N287 Cu276 1.985 . S
N287 C289 1.335 . S
N287 C290 1.390 . S
N288 C289 1.345 . S
N288 C291 1.336 . S
C289 N287 1.335 . S
C289 N288 1.345 . S
C289 H294 0.930 . S
C290 N287 1.390 . S
C290 C291 1.346 . S
C290 H295 0.930 . S
C291 N288 1.336 . S
C291 C290 1.346 . S
C291 H298 0.929 . S
C292 O282 1.282 . S
C292 O293 1.216 . S
O293 C292 1.216 . S
H294 C289 0.930 . S
H295 C290 0.930 . S
O296 Cu276 1.959 . S
O296 C283 1.251 . S
H297 C280 0.930 . S
H298 C291 0.929 . S
Cu299 N300 1.999 . S
Cu299 O305 1.974 . S
Cu299 N310 1.985 . S
Cu299 O319 1.959 . S
N300 Cu299 1.999 . S
N300 C302 1.263 . S
N300 C304 1.389 . S
N301 C302 1.358 . S
N301 C303 1.400 . S
C302 N300 1.263 . S
C302 N301 1.358 . S
C302 H308 0.930 . S
C303 N301 1.400 . S
C303 C304 1.351 . S
C303 H320 0.930 . S
C304 N300 1.389 . S
C304 C303 1.351 . S
C304 H309 0.930 . S
O305 Cu299 1.974 . S
O305 C315 1.282 . S
C306 O307 1.261 . S
C306 O319 1.251 . S
O307 C306 1.261 . S
H308 C302 0.930 . S
H309 C304 0.930 . S
N310 Cu299 1.985 . S
N310 C312 1.335 . S
N310 C313 1.390 . S
N311 C312 1.345 . S
N311 C314 1.336 . S
C312 N310 1.335 . S
C312 N311 1.345 . S
C312 H317 0.930 . S
C313 N310 1.390 . S
C313 C314 1.346 . S
C313 H318 0.930 . S
C314 N311 1.336 . S
C314 C313 1.346 . S
C314 H321 0.929 . S
C315 O305 1.282 . S
C315 O316 1.216 . S
O316 C315 1.216 . S
H317 C312 0.930 . S
H318 C313 0.930 . S
O319 Cu299 1.959 . S
O319 C306 1.251 . S
H320 C303 0.930 . S
H321 C314 0.929 . S
Cu322 N323 1.999 . S
Cu322 O328 1.974 . S
Cu322 N333 1.985 . S
Cu322 O342 1.959 . S
N323 Cu322 1.999 . S
N323 C325 1.263 . S
N323 C327 1.389 . S
N324 C325 1.358 . S
N324 C326 1.400 . S
C325 N323 1.263 . S
C325 N324 1.358 . S
C325 H331 0.930 . S
C326 N324 1.400 . S
C326 C327 1.351 . S
C326 H343 0.930 . S
C327 N323 1.389 . S
C327 C326 1.351 . S
C327 H332 0.930 . S
O328 Cu322 1.974 . S
O328 C338 1.282 . S
C329 O330 1.261 . S
C329 O342 1.251 . S
O330 C329 1.261 . S
H331 C325 0.930 . S
H332 C327 0.930 . S
N333 Cu322 1.985 . S
N333 C335 1.335 . S
N333 C336 1.390 . S
N334 C335 1.345 . S
N334 C337 1.336 . S
C335 N333 1.335 . S
C335 N334 1.345 . S
C335 H340 0.930 . S
C336 N333 1.390 . S
C336 C337 1.346 . S
C336 H341 0.930 . S
C337 N334 1.336 . S
C337 C336 1.346 . S
C337 H344 0.929 . S
C338 O328 1.282 . S
C338 O339 1.216 . S
O339 C338 1.216 . S
H340 C335 0.930 . S
H341 C336 0.930 . S
O342 Cu322 1.959 . S
O342 C329 1.251 . S
H343 C326 0.930 . S
H344 C337 0.929 . S
Cu345 N346 1.999 . S
Cu345 O351 1.974 . S
Cu345 N356 1.985 . S
Cu345 O365 1.959 . S
N346 Cu345 1.999 . S
N346 C348 1.263 . S
N346 C350 1.389 . S
N347 C348 1.358 . S
N347 C349 1.400 . S
C348 N346 1.263 . S
C348 N347 1.358 . S
C348 H354 0.930 . S
C349 N347 1.400 . S
C349 C350 1.351 . S
C349 H366 0.930 . S
C350 N346 1.389 . S
C350 C349 1.351 . S
C350 H355 0.930 . S
O351 Cu345 1.974 . S
O351 C361 1.282 . S
C352 O353 1.261 . S
C352 O365 1.251 . S
O353 C352 1.261 . S
H354 C348 0.930 . S
H355 C350 0.930 . S
N356 Cu345 1.985 . S
N356 C358 1.335 . S
N356 C359 1.390 1_556 S
N357 C358 1.345 1_554 S
N357 C360 1.336 . S
C358 N356 1.335 . S
C358 N357 1.345 1_556 S
C358 H363 0.930 . S
C359 N356 1.390 1_554 S
C359 C360 1.346 . S
C359 H364 0.930 . S
C360 N357 1.336 . S
C360 C359 1.346 . S
C360 H367 0.929 . S
C361 O351 1.282 . S
C361 O362 1.216 . S
O362 C361 1.216 . S
H363 C358 0.930 . S
H364 C359 0.930 . S
O365 Cu345 1.959 . S
O365 C352 1.251 . S
H366 C349 0.930 . S
H367 C360 0.929 . S
Cu368 N369 1.999 . S
Cu368 O374 1.974 . S
Cu368 N379 1.985 . S
Cu368 O388 1.959 . S
N369 Cu368 1.999 . S
N369 C371 1.263 . S
N369 C373 1.389 . S
N370 C371 1.358 . S
N370 C372 1.400 . S
C371 N369 1.263 . S
C371 N370 1.358 . S
C371 H377 0.930 . S
C372 N370 1.400 . S
C372 C373 1.351 . S
C372 H389 0.930 . S
C373 N369 1.389 . S
C373 C372 1.351 . S
C373 H378 0.930 . S
O374 Cu368 1.974 . S
O374 C384 1.282 . S
C375 O376 1.261 . S
C375 O388 1.251 . S
O376 C375 1.261 . S
H377 C371 0.930 . S
H378 C373 0.930 . S
N379 Cu368 1.985 . S
N379 C381 1.335 . S
N379 C382 1.390 . S
N380 C381 1.345 . S
N380 C383 1.336 . S
C381 N379 1.335 . S
C381 N380 1.345 . S
C381 H386 0.930 . S
C382 N379 1.390 . S
C382 C383 1.346 . S
C382 H387 0.930 . S
C383 N380 1.336 . S
C383 C382 1.346 . S
C383 H390 0.929 . S
C384 O374 1.282 . S
C384 O385 1.216 . S
O385 C384 1.216 . S
H386 C381 0.930 . S
H387 C382 0.930 . S
O388 Cu368 1.959 . S
O388 C375 1.251 . S
H389 C372 0.930 . S
H390 C383 0.929 . S
Cu391 N392 1.999 . S
Cu391 O397 1.974 . S
Cu391 N402 1.985 . S
Cu391 O411 1.959 . S
N392 Cu391 1.999 . S
N392 C394 1.263 . S
N392 C396 1.389 . S
N393 C394 1.358 . S
N393 C395 1.400 . S
C394 N392 1.263 . S
C394 N393 1.358 . S
C394 H400 0.930 . S
C395 N393 1.400 . S
C395 C396 1.351 . S
C395 H412 0.930 . S
C396 N392 1.389 . S
C396 C395 1.351 . S
C396 H401 0.930 . S
O397 Cu391 1.974 . S
O397 C407 1.282 . S
C398 O399 1.261 . S
C398 O411 1.251 . S
O399 C398 1.261 . S
H400 C394 0.930 . S
H401 C396 0.930 . S
N402 Cu391 1.985 . S
N402 C404 1.335 . S
N402 C405 1.390 . S
N403 C404 1.345 . S
N403 C406 1.336 . S
C404 N402 1.335 . S
C404 N403 1.345 . S
C404 H409 0.930 . S
C405 N402 1.390 . S
C405 C406 1.346 . S
C405 H410 0.930 . S
C406 N403 1.336 . S
C406 C405 1.346 . S
C406 H413 0.929 . S
C407 O397 1.282 . S
C407 O408 1.216 . S
O408 C407 1.216 . S
H409 C404 0.930 . S
H410 C405 0.930 . S
O411 Cu391 1.959 . S
O411 C398 1.251 . S
H412 C395 0.930 . S
H413 C406 0.929 . S
Cu414 N415 1.999 . S
Cu414 O420 1.974 . S
Cu414 N425 1.985 . S
Cu414 O434 1.959 . S
N415 Cu414 1.999 . S
N415 C417 1.263 . S
N415 C419 1.389 . S
N416 C417 1.358 . S
N416 C418 1.400 . S
C417 N415 1.263 . S
C417 N416 1.358 . S
C417 H423 0.930 . S
C418 N416 1.400 . S
C418 C419 1.351 . S
C418 H435 0.930 . S
C419 N415 1.389 . S
C419 C418 1.351 . S
C419 H424 0.930 . S
O420 Cu414 1.974 . S
O420 C430 1.282 . S
C421 O422 1.261 . S
C421 O434 1.251 . S
O422 C421 1.261 . S
H423 C417 0.930 . S
H424 C419 0.930 . S
N425 Cu414 1.985 . S
N425 C427 1.335 . S
N425 C428 1.390 . S
N426 C427 1.345 . S
N426 C429 1.336 . S
C427 N425 1.335 . S
C427 N426 1.345 . S
C427 H432 0.930 . S
C428 N425 1.390 . S
C428 C429 1.346 . S
C428 H433 0.930 . S
C429 N426 1.336 . S
C429 C428 1.346 . S
C429 H436 0.929 . S
C430 O420 1.282 . S
C430 O431 1.216 . S
O431 C430 1.216 . S
H432 C427 0.930 . S
H433 C428 0.930 . S
O434 Cu414 1.959 . S
O434 C421 1.251 . S
H435 C418 0.930 . S
H436 C429 0.929 . S
Cu437 N438 1.999 . S
Cu437 O443 1.974 . S
Cu437 N448 1.985 . S
Cu437 O457 1.959 . S
N438 Cu437 1.999 . S
N438 C440 1.263 . S
N438 C442 1.389 . S
N439 C440 1.358 . S
N439 C441 1.400 . S
C440 N438 1.263 . S
C440 N439 1.358 . S
C440 H446 0.930 . S
C441 N439 1.400 . S
C441 C442 1.351 . S
C441 H458 0.930 . S
C442 N438 1.389 . S
C442 C441 1.351 . S
C442 H447 0.930 . S
O443 Cu437 1.974 . S
O443 C453 1.282 . S
C444 O445 1.261 . S
C444 O457 1.251 . S
O445 C444 1.261 . S
H446 C440 0.930 . S
H447 C442 0.930 . S
N448 Cu437 1.985 . S
N448 C450 1.335 . S
N448 C451 1.390 . S
N449 C450 1.345 . S
N449 C452 1.336 . S
C450 N448 1.335 . S
C450 N449 1.345 . S
C450 H455 0.930 . S
C451 N448 1.390 . S
C451 C452 1.346 . S
C451 H456 0.930 . S
C452 N449 1.336 . S
C452 C451 1.346 . S
C452 H459 0.929 . S
C453 O443 1.282 . S
C453 O454 1.216 . S
O454 C453 1.216 . S
H455 C450 0.930 . S
H456 C451 0.930 . S
O457 Cu437 1.959 . S
O457 C444 1.251 . S
H458 C441 0.930 . S
H459 C452 0.929 . S
Cu460 N461 1.999 . S
Cu460 O466 1.974 . S
Cu460 N471 1.985 . S
Cu460 O480 1.959 . S
N461 Cu460 1.999 . S
N461 C463 1.263 . S
N461 C465 1.389 . S
N462 C463 1.358 . S
N462 C464 1.400 . S
C463 N461 1.263 . S
C463 N462 1.358 . S
C463 H469 0.930 . S
C464 N462 1.400 . S
C464 C465 1.351 . S
C464 H481 0.930 . S
C465 N461 1.389 . S
C465 C464 1.351 . S
C465 H470 0.930 . S
O466 Cu460 1.974 . S
O466 C476 1.282 . S
C467 O468 1.261 . S
C467 O480 1.251 . S
O468 C467 1.261 . S
H469 C463 0.930 . S
H470 C465 0.930 . S
N471 Cu460 1.985 . S
N471 C473 1.335 . S
N471 C474 1.390 1_565 S
N472 C473 1.345 1_545 S
N472 C475 1.336 . S
C473 N471 1.335 . S
C473 N472 1.345 1_565 S
C473 H478 0.930 . S
C474 N471 1.390 1_545 S
C474 C475 1.346 . S
C474 H479 0.930 . S
C475 N472 1.336 . S
C475 C474 1.346 . S
C475 H482 0.929 . S
C476 O466 1.282 . S
C476 O477 1.216 . S
O477 C476 1.216 . S
H478 C473 0.930 . S
H479 C474 0.930 . S
O480 Cu460 1.959 . S
O480 C467 1.251 . S
H481 C464 0.930 . S
H482 C475 0.929 . S
Cu483 N484 1.999 . S
Cu483 O489 1.974 . S
Cu483 N494 1.985 . S
Cu483 O503 1.959 . S
N484 Cu483 1.999 . S
N484 C486 1.263 . S
N484 C488 1.389 . S
N485 C486 1.358 . S
N485 C487 1.400 . S
C486 N484 1.263 . S
C486 N485 1.358 . S
C486 H492 0.930 . S
C487 N485 1.400 . S
C487 C488 1.351 . S
C487 H504 0.930 . S
C488 N484 1.389 . S
C488 C487 1.351 . S
C488 H493 0.930 . S
O489 Cu483 1.974 . S
O489 C499 1.282 . S
C490 O491 1.261 . S
C490 O503 1.251 . S
O491 C490 1.261 . S
H492 C486 0.930 . S
H493 C488 0.930 . S
N494 Cu483 1.985 . S
N494 C496 1.335 . S
N494 C497 1.390 . S
N495 C496 1.345 . S
N495 C498 1.336 . S
C496 N494 1.335 . S
C496 N495 1.345 . S
C496 H501 0.930 . S
C497 N494 1.390 . S
C497 C498 1.346 . S
C497 H502 0.930 . S
C498 N495 1.336 . S
C498 C497 1.346 . S
C498 H505 0.929 . S
C499 O489 1.282 . S
C499 O500 1.216 . S
O500 C499 1.216 . S
H501 C496 0.930 . S
H502 C497 0.930 . S
O503 Cu483 1.959 . S
O503 C490 1.251 . S
H504 C487 0.930 . S
H505 C498 0.929 . S
Cu506 N507 1.999 . S
Cu506 O512 1.974 . S
Cu506 N517 1.985 . S
Cu506 O526 1.959 . S
N507 Cu506 1.999 . S
N507 C509 1.263 . S
N507 C511 1.389 . S
N508 C509 1.358 . S
N508 C510 1.400 . S
C509 N507 1.263 . S
C509 N508 1.358 . S
C509 H515 0.930 . S
C510 N508 1.400 . S
C510 C511 1.351 . S
C510 H527 0.930 . S
C511 N507 1.389 . S
C511 C510 1.351 . S
C511 H516 0.930 . S
O512 Cu506 1.974 . S
O512 C522 1.282 . S
C513 O514 1.261 . S
C513 O526 1.251 . S
O514 C513 1.261 . S
H515 C509 0.930 . S
H516 C511 0.930 . S
N517 Cu506 1.985 . S
N517 C519 1.335 . S
N517 C520 1.390 . S
N518 C519 1.345 . S
N518 C521 1.336 . S
C519 N517 1.335 . S
C519 N518 1.345 . S
C519 H524 0.930 . S
C520 N517 1.390 . S
C520 C521 1.346 . S
C520 H525 0.930 . S
C521 N518 1.336 . S
C521 C520 1.346 . S
C521 H528 0.929 . S
C522 O512 1.282 . S
C522 O523 1.216 . S
O523 C522 1.216 . S
H524 C519 0.930 . S
H525 C520 0.930 . S
O526 Cu506 1.959 . S
O526 C513 1.251 . S
H527 C510 0.930 . S
H528 C521 0.929 . S
Cu529 N530 1.999 . S
Cu529 O535 1.974 . S
Cu529 N540 1.985 . S
Cu529 O549 1.959 . S
N530 Cu529 1.999 . S
N530 C532 1.263 . S
N530 C534 1.389 . S
N531 C532 1.358 . S
N531 C533 1.400 . S
C532 N530 1.263 . S
C532 N531 1.358 . S
C532 H538 0.930 . S
C533 N531 1.400 . S
C533 C534 1.351 . S
C533 H550 0.930 . S
C534 N530 1.389 . S
C534 C533 1.351 . S
C534 H539 0.930 . S
O535 Cu529 1.974 . S
O535 C545 1.282 . S
C536 O537 1.261 . S
C536 O549 1.251 . S
O537 C536 1.261 . S
H538 C532 0.930 . S
H539 C534 0.930 . S
N540 Cu529 1.985 . S
N540 C542 1.335 . S
N540 C543 1.390 . S
N541 C542 1.345 . S
N541 C544 1.336 . S
C542 N540 1.335 . S
C542 N541 1.345 . S
C542 H547 0.930 . S
C543 N540 1.390 . S
C543 C544 1.346 . S
C543 H548 0.930 . S
C544 N541 1.336 . S
C544 C543 1.346 . S
C544 H551 0.929 . S
C545 O535 1.282 . S
C545 O546 1.216 . S
O546 C545 1.216 . S
H547 C542 0.930 . S
H548 C543 0.930 . S
O549 Cu529 1.959 . S
O549 C536 1.251 . S
H550 C533 0.930 . S
H551 C544 0.929 . S
Cu552 N553 1.999 . S
Cu552 O558 1.974 . S
Cu552 N563 1.985 . S
Cu552 O572 1.959 . S
N553 Cu552 1.999 . S
N553 C555 1.263 . S
N553 C557 1.389 . S
N554 C555 1.358 . S
N554 C556 1.400 . S
C555 N553 1.263 . S
C555 N554 1.358 . S
C555 H561 0.930 . S
C556 N554 1.400 . S
C556 C557 1.351 . S
C556 H573 0.930 . S
C557 N553 1.389 . S
C557 C556 1.351 . S
C557 H562 0.930 . S
O558 Cu552 1.974 . S
O558 C568 1.282 . S
C559 O560 1.261 . S
C559 O572 1.251 . S
O560 C559 1.261 . S
H561 C555 0.930 . S
H562 C557 0.930 . S
N563 Cu552 1.985 . S
N563 C565 1.335 . S
N563 C566 1.390 . S
N564 C565 1.345 . S
N564 C567 1.336 . S
C565 N563 1.335 . S
C565 N564 1.345 . S
C565 H570 0.930 . S
C566 N563 1.390 . S
C566 C567 1.346 . S
C566 H571 0.930 . S
C567 N564 1.336 . S
C567 C566 1.346 . S
C567 H574 0.929 . S
C568 O558 1.282 . S
C568 O569 1.216 . S
O569 C568 1.216 . S
H570 C565 0.930 . S
H571 C566 0.930 . S
O572 Cu552 1.959 . S
O572 C559 1.251 . S
H573 C556 0.930 . S
H574 C567 0.929 . S
Cu575 N576 1.999 . S
Cu575 O581 1.974 . S
Cu575 N586 1.985 . S
Cu575 O595 1.959 . S
N576 Cu575 1.999 . S
N576 C578 1.263 . S
N576 C580 1.389 . S
N577 C578 1.358 . S
N577 C579 1.400 . S
C578 N576 1.263 . S
C578 N577 1.358 . S
C578 H584 0.930 . S
C579 N577 1.400 . S
C579 C580 1.351 . S
C579 H596 0.930 . S
C580 N576 1.389 . S
C580 C579 1.351 . S
C580 H585 0.930 . S
O581 Cu575 1.974 . S
O581 C591 1.282 . S
C582 O583 1.261 . S
C582 O595 1.251 . S
O583 C582 1.261 . S
H584 C578 0.930 . S
H585 C580 0.930 . S
N586 Cu575 1.985 . S
N586 C588 1.335 . S
N586 C589 1.390 . S
N587 C588 1.345 . S
N587 C590 1.336 . S
C588 N586 1.335 . S
C588 N587 1.345 . S
C588 H593 0.930 . S
C589 N586 1.390 . S
C589 C590 1.346 . S
C589 H594 0.930 . S
C590 N587 1.336 . S
C590 C589 1.346 . S
C590 H597 0.929 . S
C591 O581 1.282 . S
C591 O592 1.216 . S
O592 C591 1.216 . S
H593 C588 0.930 . S
H594 C589 0.930 . S
O595 Cu575 1.959 . S
O595 C582 1.251 . S
H596 C579 0.930 . S
H597 C590 0.929 . S
Cu598 N599 1.999 . S
Cu598 O604 1.974 . S
Cu598 N609 1.985 . S
Cu598 O618 1.959 . S
N599 Cu598 1.999 . S
N599 C601 1.263 . S
N599 C603 1.389 . S
N600 C601 1.358 . S
N600 C602 1.400 . S
C601 N599 1.263 . S
C601 N600 1.358 . S
C601 H607 0.930 . S
C602 N600 1.400 . S
C602 C603 1.351 . S
C602 H619 0.930 . S
C603 N599 1.389 . S
C603 C602 1.351 . S
C603 H608 0.930 . S
O604 Cu598 1.974 . S
O604 C614 1.282 . S
C605 O606 1.261 . S
C605 O618 1.251 . S
O606 C605 1.261 . S
H607 C601 0.930 . S
H608 C603 0.930 . S
N609 Cu598 1.985 . S
N609 C611 1.335 . S
N609 C612 1.390 . S
N610 C611 1.345 . S
N610 C613 1.336 . S
C611 N609 1.335 . S
C611 N610 1.345 . S
C611 H616 0.930 . S
C612 N609 1.390 . S
C612 C613 1.346 . S
C612 H617 0.930 . S
C613 N610 1.336 . S
C613 C612 1.346 . S
C613 H620 0.929 . S
C614 O604 1.282 . S
C614 O615 1.216 . S
O615 C614 1.216 . S
H616 C611 0.930 . S
H617 C612 0.930 . S
O618 Cu598 1.959 . S
O618 C605 1.251 . S
H619 C602 0.930 . S
H620 C613 0.929 . S
Cu621 N622 1.999 . S
Cu621 O627 1.974 . S
Cu621 N632 1.985 . S
Cu621 O641 1.959 . S
N622 Cu621 1.999 . S
N622 C624 1.263 . S
N622 C626 1.389 . S
N623 C624 1.358 . S
N623 C625 1.400 . S
C624 N622 1.263 . S
C624 N623 1.358 . S
C624 H630 0.930 . S
C625 N623 1.400 . S
C625 C626 1.351 . S
C625 H642 0.930 . S
C626 N622 1.389 . S
C626 C625 1.351 . S
C626 H631 0.930 . S
O627 Cu621 1.974 . S
O627 C637 1.282 . S
C628 O629 1.261 . S
C628 O641 1.251 . S
O629 C628 1.261 . S
H630 C624 0.930 . S
H631 C626 0.930 . S
N632 Cu621 1.985 . S
N632 C634 1.335 . S
N632 C635 1.390 1_455 S
N633 C634 1.345 1_655 S
N633 C636 1.336 . S
C634 N632 1.335 . S
C634 N633 1.345 1_455 S
C634 H639 0.930 . S
C635 N632 1.390 1_655 S
C635 C636 1.346 . S
C635 H640 0.930 . S
C636 N633 1.336 . S
C636 C635 1.346 . S
C636 H643 0.929 . S
C637 O627 1.282 . S
C637 O638 1.216 . S
O638 C637 1.216 . S
H639 C634 0.930 . S
H640 C635 0.930 . S
O641 Cu621 1.959 . S
O641 C628 1.251 . S
H642 C625 0.930 . S
H643 C636 0.929 . S
Cu644 N645 1.999 . S
Cu644 O650 1.974 . S
Cu644 N655 1.985 . S
Cu644 O664 1.959 . S
N645 Cu644 1.999 . S
N645 C647 1.263 . S
N645 C649 1.389 . S
N646 C647 1.358 . S
N646 C648 1.400 . S
C647 N645 1.263 . S
C647 N646 1.358 . S
C647 H653 0.930 . S
C648 N646 1.400 . S
C648 C649 1.351 . S
C648 H665 0.930 . S
C649 N645 1.389 . S
C649 C648 1.351 . S
C649 H654 0.930 . S
O650 Cu644 1.974 . S
O650 C660 1.282 . S
C651 O652 1.261 . S
C651 O664 1.251 . S
O652 C651 1.261 . S
H653 C647 0.930 . S
H654 C649 0.930 . S
N655 Cu644 1.985 . S
N655 C657 1.335 . S
N655 C658 1.390 . S
N656 C657 1.345 . S
N656 C659 1.336 . S
C657 N655 1.335 . S
C657 N656 1.345 . S
C657 H662 0.930 . S
C658 N655 1.390 . S
C658 C659 1.346 . S
C658 H663 0.930 . S
C659 N656 1.336 . S
C659 C658 1.346 . S
C659 H666 0.929 . S
C660 O650 1.282 . S
C660 O661 1.216 . S
O661 C660 1.216 . S
H662 C657 0.930 . S
H663 C658 0.930 . S
O664 Cu644 1.959 . S
O664 C651 1.251 . S
H665 C648 0.930 . S
H666 C659 0.929 . S
Cu667 N668 1.999 . S
Cu667 O673 1.974 . S
Cu667 N678 1.985 . S
Cu667 O687 1.959 . S
N668 Cu667 1.999 . S
N668 C670 1.263 . S
N668 C672 1.389 . S
N669 C670 1.358 . S
N669 C671 1.400 . S
C670 N668 1.263 . S
C670 N669 1.358 . S
C670 H676 0.930 . S
C671 N669 1.400 . S
C671 C672 1.351 . S
C671 H688 0.930 . S
C672 N668 1.389 . S
C672 C671 1.351 . S
C672 H677 0.930 . S
O673 Cu667 1.974 . S
O673 C683 1.282 . S
C674 O675 1.261 . S
C674 O687 1.251 . S
O675 C674 1.261 . S
H676 C670 0.930 . S
H677 C672 0.930 . S
N678 Cu667 1.985 . S
N678 C680 1.335 . S
N678 C681 1.390 1_455 S
N679 C680 1.345 1_655 S
N679 C682 1.336 . S
C680 N678 1.335 . S
C680 N679 1.345 1_455 S
C680 H685 0.930 . S
C681 N678 1.390 1_655 S
C681 C682 1.346 . S
C681 H686 0.930 . S
C682 N679 1.336 . S
C682 C681 1.346 . S
C682 H689 0.929 . S
C683 O673 1.282 . S
C683 O684 1.216 . S
O684 C683 1.216 . S
H685 C680 0.930 . S
H686 C681 0.930 . S
O687 Cu667 1.959 . S
O687 C674 1.251 . S
H688 C671 0.930 . S
H689 C682 0.929 . S
Cu690 N691 1.999 . S
Cu690 O696 1.974 . S
Cu690 N701 1.985 . S
Cu690 O710 1.959 . S
N691 Cu690 1.999 . S
N691 C693 1.263 . S
N691 C695 1.389 . S
N692 C693 1.358 . S
N692 C694 1.400 . S
C693 N691 1.263 . S
C693 N692 1.358 . S
C693 H699 0.930 . S
C694 N692 1.400 . S
C694 C695 1.351 . S
C694 H711 0.930 . S
C695 N691 1.389 . S
C695 C694 1.351 . S
C695 H700 0.930 . S
O696 Cu690 1.974 . S
O696 C706 1.282 . S
C697 O698 1.261 . S
C697 O710 1.251 . S
O698 C697 1.261 . S
H699 C693 0.930 . S
H700 C695 0.930 . S
N701 Cu690 1.985 . S
N701 C703 1.335 . S
N701 C704 1.390 . S
N702 C703 1.345 . S
N702 C705 1.336 . S
C703 N701 1.335 . S
C703 N702 1.345 . S
C703 H708 0.930 . S
C704 N701 1.390 . S
C704 C705 1.346 . S
C704 H709 0.930 . S
C705 N702 1.336 . S
C705 C704 1.346 . S
C705 H712 0.929 . S
C706 O696 1.282 . S
C706 O707 1.216 . S
O707 C706 1.216 . S
H708 C703 0.930 . S
H709 C704 0.930 . S
O710 Cu690 1.959 . S
O710 C697 1.251 . S
H711 C694 0.930 . S
H712 C705 0.929 . S
Cu713 N714 1.999 . S
Cu713 O719 1.974 . S
Cu713 N724 1.985 . S
Cu713 O733 1.959 . S
N714 Cu713 1.999 . S
N714 C716 1.263 . S
N714 C718 1.389 . S
N715 C716 1.358 . S
N715 C717 1.400 . S
C716 N714 1.263 . S
C716 N715 1.358 . S
C716 H722 0.930 . S
C717 N715 1.400 . S
C717 C718 1.351 . S
C717 H734 0.930 . S
C718 N714 1.389 . S
C718 C717 1.351 . S
C718 H723 0.930 . S
O719 Cu713 1.974 . S
O719 C729 1.282 . S
C720 O721 1.261 . S
C720 O733 1.251 . S
O721 C720 1.261 . S
H722 C716 0.930 . S
H723 C718 0.930 . S
N724 Cu713 1.985 . S
N724 C726 1.335 . S
N724 C727 1.390 . S
N725 C726 1.345 . S
N725 C728 1.336 . S
C726 N724 1.335 . S
C726 N725 1.345 . S
C726 H731 0.930 . S
C727 N724 1.390 . S
C727 C728 1.346 . S
C727 H732 0.930 . S
C728 N725 1.336 . S
C728 C727 1.346 . S
C728 H735 0.929 . S
C729 O719 1.282 . S
C729 O730 1.216 . S
O730 C729 1.216 . S
H731 C726 0.930 . S
H732 C727 0.930 . S
O733 Cu713 1.959 . S
O733 C720 1.251 . S
H734 C717 0.930 . S
H735 C728 0.929 . S
Cu736 N737 1.999 . S
Cu736 O742 1.974 . S
Cu736 N747 1.985 . S
Cu736 O756 1.959 . S
N737 Cu736 1.999 . S
N737 C739 1.263 . S
N737 C741 1.389 . S
N738 C739 1.358 . S
N738 C740 1.400 . S
C739 N737 1.263 . S
C739 N738 1.358 . S
C739 H745 0.930 . S
C740 N738 1.400 . S
C740 C741 1.351 . S
C740 H757 0.930 . S
C741 N737 1.389 . S
C741 C740 1.351 . S
C741 H746 0.930 . S
O742 Cu736 1.974 . S
O742 C752 1.282 . S
C743 O744 1.261 . S
C743 O756 1.251 . S
O744 C743 1.261 . S
H745 C739 0.930 . S
H746 C741 0.930 . S
N747 Cu736 1.985 . S
N747 C749 1.335 . S
N747 C750 1.390 . S
N748 C749 1.345 . S
N748 C751 1.336 . S
C749 N747 1.335 . S
C749 N748 1.345 . S
C749 H754 0.930 . S
C750 N747 1.390 . S
C750 C751 1.346 . S
C750 H755 0.930 . S
C751 N748 1.336 . S
C751 C750 1.346 . S
C751 H758 0.929 . S
C752 O742 1.282 . S
C752 O753 1.216 . S
O753 C752 1.216 . S
H754 C749 0.930 . S
H755 C750 0.930 . S
O756 Cu736 1.959 . S
O756 C743 1.251 . S
H757 C740 0.930 . S
H758 C751 0.929 . S
Cu759 N760 1.999 . S
Cu759 O765 1.974 . S
Cu759 N770 1.985 . S
Cu759 O779 1.959 . S
N760 Cu759 1.999 . S
N760 C762 1.263 . S
N760 C764 1.389 . S
N761 C762 1.358 . S
N761 C763 1.400 . S
C762 N760 1.263 . S
C762 N761 1.358 . S
C762 H768 0.930 . S
C763 N761 1.400 . S
C763 C764 1.351 . S
C763 H780 0.930 . S
C764 N760 1.389 . S
C764 C763 1.351 . S
C764 H769 0.930 . S
O765 Cu759 1.974 . S
O765 C775 1.282 . S
C766 O767 1.261 . S
C766 O779 1.251 . S
O767 C766 1.261 . S
H768 C762 0.930 . S
H769 C764 0.930 . S
N770 Cu759 1.985 . S
N770 C772 1.335 . S
N770 C773 1.390 1_554 S
N771 C772 1.345 1_556 S
N771 C774 1.336 . S
C772 N770 1.335 . S
C772 N771 1.345 1_554 S
C772 H777 0.930 . S
C773 N770 1.390 1_556 S
C773 C774 1.346 . S
C773 H778 0.930 . S
C774 N771 1.336 . S
C774 C773 1.346 . S
C774 H781 0.929 . S
C775 O765 1.282 . S
C775 O776 1.216 . S
O776 C775 1.216 . S
H777 C772 0.930 . S
H778 C773 0.930 . S
O779 Cu759 1.959 . S
O779 C766 1.251 . S
H780 C763 0.930 . S
H781 C774 0.929 . S
Cu782 N783 1.999 . S
Cu782 O788 1.974 . S
Cu782 N793 1.985 . S
Cu782 O802 1.959 . S
N783 Cu782 1.999 . S
N783 C785 1.263 . S
N783 C787 1.389 . S
N784 C785 1.358 . S
N784 C786 1.400 . S
C785 N783 1.263 . S
C785 N784 1.358 . S
C785 H791 0.930 . S
C786 N784 1.400 . S
C786 C787 1.351 . S
C786 H803 0.930 . S
C787 N783 1.389 . S
C787 C786 1.351 . S
C787 H792 0.930 . S
O788 Cu782 1.974 . S
O788 C798 1.282 . S
C789 O790 1.261 . S
C789 O802 1.251 . S
O790 C789 1.261 . S
H791 C785 0.930 . S
H792 C787 0.930 . S
N793 Cu782 1.985 . S
N793 C795 1.335 . S
N793 C796 1.390 . S
N794 C795 1.345 . S
N794 C797 1.336 . S
C795 N793 1.335 . S
C795 N794 1.345 . S
C795 H800 0.930 . S
C796 N793 1.390 . S
C796 C797 1.346 . S
C796 H801 0.930 . S
C797 N794 1.336 . S
C797 C796 1.346 . S
C797 H804 0.929 . S
C798 O788 1.282 . S
C798 O799 1.216 . S
O799 C798 1.216 . S
H800 C795 0.930 . S
H801 C796 0.930 . S
O802 Cu782 1.959 . S
O802 C789 1.251 . S
H803 C786 0.930 . S
H804 C797 0.929 . S
Cu805 N806 1.999 . S
Cu805 O811 1.974 . S
Cu805 N816 1.985 . S
Cu805 O825 1.959 . S
N806 Cu805 1.999 . S
N806 C808 1.263 . S
N806 C810 1.389 . S
N807 C808 1.358 . S
N807 C809 1.400 . S
C808 N806 1.263 . S
C808 N807 1.358 . S
C808 H814 0.930 . S
C809 N807 1.400 . S
C809 C810 1.351 . S
C809 H826 0.930 . S
C810 N806 1.389 . S
C810 C809 1.351 . S
C810 H815 0.930 . S
O811 Cu805 1.974 . S
O811 C821 1.282 . S
C812 O813 1.261 . S
C812 O825 1.251 . S
O813 C812 1.261 . S
H814 C808 0.930 . S
H815 C810 0.930 . S
N816 Cu805 1.985 . S
N816 C818 1.335 . S
N816 C819 1.390 . S
N817 C818 1.345 . S
N817 C820 1.336 . S
C818 N816 1.335 . S
C818 N817 1.345 . S
C818 H823 0.930 . S
C819 N816 1.390 . S
C819 C820 1.346 . S
C819 H824 0.930 . S
C820 N817 1.336 . S
C820 C819 1.346 . S
C820 H827 0.929 . S
C821 O811 1.282 . S
C821 O822 1.216 . S
O822 C821 1.216 . S
H823 C818 0.930 . S
H824 C819 0.930 . S
O825 Cu805 1.959 . S
O825 C812 1.251 . S
H826 C809 0.930 . S
H827 C820 0.929 . S
Cu828 N829 1.999 . S
Cu828 O834 1.974 . S
Cu828 N839 1.985 . S
Cu828 O848 1.959 . S
N829 Cu828 1.999 . S
N829 C831 1.263 . S
N829 C833 1.389 . S
N830 C831 1.358 . S
N830 C832 1.400 . S
C831 N829 1.263 . S
C831 N830 1.358 . S
C831 H837 0.930 . S
C832 N830 1.400 . S
C832 C833 1.351 . S
C832 H849 0.930 . S
C833 N829 1.389 . S
C833 C832 1.351 . S
C833 H838 0.930 . S
O834 Cu828 1.974 . S
O834 C844 1.282 . S
C835 O836 1.261 . S
C835 O848 1.251 . S
O836 C835 1.261 . S
H837 C831 0.930 . S
H838 C833 0.930 . S
N839 Cu828 1.985 . S
N839 C841 1.335 . S
N839 C842 1.390 . S
N840 C841 1.345 . S
N840 C843 1.336 . S
C841 N839 1.335 . S
C841 N840 1.345 . S
C841 H846 0.930 . S
C842 N839 1.390 . S
C842 C843 1.346 . S
C842 H847 0.930 . S
C843 N840 1.336 . S
C843 C842 1.346 . S
C843 H850 0.929 . S
C844 O834 1.282 . S
C844 O845 1.216 . S
O845 C844 1.216 . S
H846 C841 0.930 . S
H847 C842 0.930 . S
O848 Cu828 1.959 . S
O848 C835 1.251 . S
H849 C832 0.930 . S
H850 C843 0.929 . S
Cu851 N852 1.999 . S
Cu851 O857 1.974 . S
Cu851 N862 1.985 . S
Cu851 O871 1.959 . S
N852 Cu851 1.999 . S
N852 C854 1.263 . S
N852 C856 1.389 . S
N853 C854 1.358 . S
N853 C855 1.400 . S
C854 N852 1.263 . S
C854 N853 1.358 . S
C854 H860 0.930 . S
C855 N853 1.400 . S
C855 C856 1.351 . S
C855 H872 0.930 . S
C856 N852 1.389 . S
C856 C855 1.351 . S
C856 H861 0.930 . S
O857 Cu851 1.974 . S
O857 C867 1.282 . S
C858 O859 1.261 . S
C858 O871 1.251 . S
O859 C858 1.261 . S
H860 C854 0.930 . S
H861 C856 0.930 . S
N862 Cu851 1.985 . S
N862 C864 1.335 . S
N862 C865 1.390 1_556 S
N863 C864 1.345 1_554 S
N863 C866 1.336 . S
C864 N862 1.335 . S
C864 N863 1.345 1_556 S
C864 H869 0.930 . S
C865 N862 1.390 1_554 S
C865 C866 1.346 . S
C865 H870 0.930 . S
C866 N863 1.336 . S
C866 C865 1.346 . S
C866 H873 0.929 . S
C867 O857 1.282 . S
C867 O868 1.216 . S
O868 C867 1.216 . S
H869 C864 0.930 . S
H870 C865 0.930 . S
O871 Cu851 1.959 . S
O871 C858 1.251 . S
H872 C855 0.930 . S
H873 C866 0.929 . S
Cu874 N875 1.999 . S
Cu874 O880 1.974 . S
Cu874 N885 1.985 . S
Cu874 O894 1.959 . S
N875 Cu874 1.999 . S
N875 C877 1.263 . S
N875 C879 1.389 . S
N876 C877 1.358 . S
N876 C878 1.400 . S
C877 N875 1.263 . S
C877 N876 1.358 . S
C877 H883 0.930 . S
C878 N876 1.400 . S
C878 C879 1.351 . S
C878 H895 0.930 . S
C879 N875 1.389 . S
C879 C878 1.351 . S
C879 H884 0.930 . S
O880 Cu874 1.974 . S
O880 C890 1.282 . S
C881 O882 1.261 . S
C881 O894 1.251 . S
O882 C881 1.261 . S
H883 C877 0.930 . S
H884 C879 0.930 . S
N885 Cu874 1.985 . S
N885 C887 1.335 . S
N885 C888 1.390 . S
N886 C887 1.345 . S
N886 C889 1.336 . S
C887 N885 1.335 . S
C887 N886 1.345 . S
C887 H892 0.930 . S
C888 N885 1.390 . S
C888 C889 1.346 . S
C888 H893 0.930 . S
C889 N886 1.336 . S
C889 C888 1.346 . S
C889 H896 0.929 . S
C890 O880 1.282 . S
C890 O891 1.216 . S
O891 C890 1.216 . S
H892 C887 0.930 . S
H893 C888 0.930 . S
O894 Cu874 1.959 . S
O894 C881 1.251 . S
H895 C878 0.930 . S
H896 C889 0.929 . S
Cu897 N898 1.999 . S
Cu897 O903 1.974 . S
Cu897 N908 1.985 . S
Cu897 O917 1.959 . S
N898 Cu897 1.999 . S
N898 C900 1.263 . S
N898 C902 1.389 . S
N899 C900 1.358 . S
N899 C901 1.400 . S
C900 N898 1.263 . S
C900 N899 1.358 . S
C900 H906 0.930 . S
C901 N899 1.400 . S
C901 C902 1.351 . S
C901 H918 0.930 . S
C902 N898 1.389 . S
C902 C901 1.351 . S
C902 H907 0.930 . S
O903 Cu897 1.974 . S
O903 C913 1.282 . S
C904 O905 1.261 . S
C904 O917 1.251 . S
O905 C904 1.261 . S
H906 C900 0.930 . S
H907 C902 0.930 . S
N908 Cu897 1.985 . S
N908 C910 1.335 . S
N908 C911 1.390 . S
N909 C910 1.345 . S
N909 C912 1.336 . S
C910 N908 1.335 . S
C910 N909 1.345 . S
C910 H915 0.930 . S
C911 N908 1.390 . S
C911 C912 1.346 . S
C911 H916 0.930 . S
C912 N909 1.336 . S
C912 C911 1.346 . S
C912 H919 0.929 . S
C913 O903 1.282 . S
C913 O914 1.216 . S
O914 C913 1.216 . S
H915 C910 0.930 . S
H916 C911 0.930 . S
O917 Cu897 1.959 . S
O917 C904 1.251 . S
H918 C901 0.930 . S
H919 C912 0.929 . S
Cu920 N921 1.999 . S
Cu920 O926 1.974 . S
Cu920 N931 1.985 . S
Cu920 O940 1.959 . S
N921 Cu920 1.999 . S
N921 C923 1.263 . S
N921 C925 1.389 . S
N922 C923 1.358 . S
N922 C924 1.400 . S
C923 N921 1.263 . S
C923 N922 1.358 . S
C923 H929 0.930 . S
C924 N922 1.400 . S
C924 C925 1.351 . S
C924 H941 0.930 . S
C925 N921 1.389 . S
C925 C924 1.351 . S
C925 H930 0.930 . S
O926 Cu920 1.974 . S
O926 C936 1.282 . S
C927 O928 1.261 . S
C927 O940 1.251 . S
O928 C927 1.261 . S
H929 C923 0.930 . S
H930 C925 0.930 . S
N931 Cu920 1.985 . S
N931 C933 1.335 . S
N931 C934 1.390 . S
N932 C933 1.345 . S
N932 C935 1.336 . S
C933 N931 1.335 . S
C933 N932 1.345 . S
C933 H938 0.930 . S
C934 N931 1.390 . S
C934 C935 1.346 . S
C934 H939 0.930 . S
C935 N932 1.336 . S
C935 C934 1.346 . S
C935 H942 0.929 . S
C936 O926 1.282 . S
C936 O937 1.216 . S
O937 C936 1.216 . S
H938 C933 0.930 . S
H939 C934 0.930 . S
O940 Cu920 1.959 . S
O940 C927 1.251 . S
H941 C924 0.930 . S
H942 C935 0.929 . S
Cu943 N944 1.999 . S
Cu943 O949 1.974 . S
Cu943 N954 1.985 . S
Cu943 O963 1.959 . S
N944 Cu943 1.999 . S
N944 C946 1.263 . S
N944 C948 1.389 . S
N945 C946 1.358 . S
N945 C947 1.400 . S
C946 N944 1.263 . S
C946 N945 1.358 . S
C946 H952 0.930 . S
C947 N945 1.400 . S
C947 C948 1.351 . S
C947 H964 0.930 . S
C948 N944 1.389 . S
C948 C947 1.351 . S
C948 H953 0.930 . S
O949 Cu943 1.974 . S
O949 C959 1.282 . S
C950 O951 1.261 . S
C950 O963 1.251 . S
O951 C950 1.261 . S
H952 C946 0.930 . S
H953 C948 0.930 . S
N954 Cu943 1.985 . S
N954 C956 1.335 . S
N954 C957 1.390 . S
N955 C956 1.345 . S
N955 C958 1.336 . S
C956 N954 1.335 . S
C956 N955 1.345 . S
C956 H961 0.930 . S
C957 N954 1.390 . S
C957 C958 1.346 . S
C957 H962 0.930 . S
C958 N955 1.336 . S
C958 C957 1.346 . S
C958 H965 0.929 . S
C959 O949 1.282 . S
C959 O960 1.216 . S
O960 C959 1.216 . S
H961 C956 0.930 . S
H962 C957 0.930 . S
O963 Cu943 1.959 . S
O963 C950 1.251 . S
H964 C947 0.930 . S
H965 C958 0.929 . S
Cu966 N967 1.999 . S
Cu966 O972 1.974 . S
Cu966 N977 1.985 . S
Cu966 O986 1.959 . S
N967 Cu966 1.999 . S
N967 C969 1.263 . S
N967 C971 1.389 . S
N968 C969 1.358 . S
N968 C970 1.400 . S
C969 N967 1.263 . S
C969 N968 1.358 . S
C969 H975 0.930 . S
C970 N968 1.400 . S
C970 C971 1.351 . S
C970 H987 0.930 . S
C971 N967 1.389 . S
C971 C970 1.351 . S
C971 H976 0.930 . S
O972 Cu966 1.974 . S
O972 C982 1.282 . S
C973 O974 1.261 . S
C973 O986 1.251 . S
O974 C973 1.261 . S
H975 C969 0.930 . S
H976 C971 0.930 . S
N977 Cu966 1.985 . S
N977 C979 1.335 . S
N977 C980 1.390 1_545 S
N978 C979 1.345 1_565 S
N978 C981 1.336 . S
C979 N977 1.335 . S
C979 N978 1.345 1_545 S
C979 H984 0.930 . S
C980 N977 1.390 1_565 S
C980 C981 1.346 . S
C980 H985 0.930 . S
C981 N978 1.336 . S
C981 C980 1.346 . S
C981 H988 0.929 . S
C982 O972 1.282 . S
C982 O983 1.216 . S
O983 C982 1.216 . S
H984 C979 0.930 . S
H985 C980 0.930 . S
O986 Cu966 1.959 . S
O986 C973 1.251 . S
H987 C970 0.930 . S
H988 C981 0.929 . S
Cu989 N990 1.999 . S
Cu989 O995 1.974 . S
Cu989 N1000 1.985 . S
Cu989 O1009 1.959 . S
N990 Cu989 1.999 . S
N990 C992 1.263 . S
N990 C994 1.389 . S
N991 C992 1.358 . S
N991 C993 1.400 . S
C992 N990 1.263 . S
C992 N991 1.358 . S
C992 H998 0.930 . S
C993 N991 1.400 . S
C993 C994 1.351 . S
C993 H1010 0.930 . S
C994 N990 1.389 . S
C994 C993 1.351 . S
C994 H999 0.930 . S
O995 Cu989 1.974 . S
O995 C1005 1.282 . S
C996 O997 1.261 . S
C996 O1009 1.251 . S
O997 C996 1.261 . S
H998 C992 0.930 . S
H999 C994 0.930 . S
N1000 Cu989 1.985 . S
N1000 C1002 1.335 . S
N1000 C1003 1.390 . S
N1001 C1002 1.345 . S
N1001 C1004 1.336 . S
C1002 N1000 1.335 . S
C1002 N1001 1.345 . S
C1002 H1007 0.930 . S
C1003 N1000 1.390 . S
C1003 C1004 1.346 . S
C1003 H1008 0.930 . S
C1004 N1001 1.336 . S
C1004 C1003 1.346 . S
C1004 H1011 0.929 . S
C1005 O995 1.282 . S
C1005 O1006 1.216 . S
O1006 C1005 1.216 . S
H1007 C1002 0.930 . S
H1008 C1003 0.930 . S
O1009 Cu989 1.959 . S
O1009 C996 1.251 . S
H1010 C993 0.930 . S
H1011 C1004 0.929 . S
Cu1012 N1013 1.999 . S
Cu1012 O1018 1.974 . S
Cu1012 N1023 1.985 . S
Cu1012 O1032 1.959 . S
N1013 Cu1012 1.999 . S
N1013 C1015 1.263 . S
N1013 C1017 1.389 . S
N1014 C1015 1.358 . S
N1014 C1016 1.400 . S
C1015 N1013 1.263 . S
C1015 N1014 1.358 . S
C1015 H1021 0.930 . S
C1016 N1014 1.400 . S
C1016 C1017 1.351 . S
C1016 H1033 0.930 . S
C1017 N1013 1.389 . S
C1017 C1016 1.351 . S
C1017 H1022 0.930 . S
O1018 Cu1012 1.974 . S
O1018 C1028 1.282 . S
C1019 O1020 1.261 . S
C1019 O1032 1.251 . S
O1020 C1019 1.261 . S
H1021 C1015 0.930 . S
H1022 C1017 0.930 . S
N1023 Cu1012 1.985 . S
N1023 C1025 1.335 . S
N1023 C1026 1.390 . S
N1024 C1025 1.345 . S
N1024 C1027 1.336 . S
C1025 N1023 1.335 . S
C1025 N1024 1.345 . S
C1025 H1030 0.930 . S
C1026 N1023 1.390 . S
C1026 C1027 1.346 . S
C1026 H1031 0.930 . S
C1027 N1024 1.336 . S
C1027 C1026 1.346 . S
C1027 H1034 0.929 . S
C1028 O1018 1.282 . S
C1028 O1029 1.216 . S
O1029 C1028 1.216 . S
H1030 C1025 0.930 . S
H1031 C1026 0.930 . S
O1032 Cu1012 1.959 . S
O1032 C1019 1.251 . S
H1033 C1016 0.930 . S
H1034 C1027 0.929 . S
Cu1035 N1036 1.999 . S
Cu1035 O1041 1.974 . S
Cu1035 N1046 1.985 . S
Cu1035 O1055 1.959 . S
N1036 Cu1035 1.999 . S
N1036 C1038 1.263 . S
N1036 C1040 1.389 . S
N1037 C1038 1.358 . S
N1037 C1039 1.400 . S
C1038 N1036 1.263 . S
C1038 N1037 1.358 . S
C1038 H1044 0.930 . S
C1039 N1037 1.400 . S
C1039 C1040 1.351 . S
C1039 H1056 0.930 . S
C1040 N1036 1.389 . S
C1040 C1039 1.351 . S
C1040 H1045 0.930 . S
O1041 Cu1035 1.974 . S
O1041 C1051 1.282 . S
C1042 O1043 1.261 . S
C1042 O1055 1.251 . S
O1043 C1042 1.261 . S
H1044 C1038 0.930 . S
H1045 C1040 0.930 . S
N1046 Cu1035 1.985 . S
N1046 C1048 1.335 . S
N1046 C1049 1.390 . S
N1047 C1048 1.345 . S
N1047 C1050 1.336 . S
C1048 N1046 1.335 . S
C1048 N1047 1.345 . S
C1048 H1053 0.930 . S
C1049 N1046 1.390 . S
C1049 C1050 1.346 . S
C1049 H1054 0.930 . S
C1050 N1047 1.336 . S
C1050 C1049 1.346 . S
C1050 H1057 0.929 . S
C1051 O1041 1.282 . S
C1051 O1052 1.216 . S
O1052 C1051 1.216 . S
H1053 C1048 0.930 . S
H1054 C1049 0.930 . S
O1055 Cu1035 1.959 . S
O1055 C1042 1.251 . S
H1056 C1039 0.930 . S
H1057 C1050 0.929 . S
Cu1058 N1059 1.999 . S
Cu1058 O1064 1.974 . S
Cu1058 N1069 1.985 . S
Cu1058 O1078 1.959 . S
N1059 Cu1058 1.999 . S
N1059 C1061 1.263 . S
N1059 C1063 1.389 . S
N1060 C1061 1.358 . S
N1060 C1062 1.400 . S
C1061 N1059 1.263 . S
C1061 N1060 1.358 . S
C1061 H1067 0.930 . S
C1062 N1060 1.400 . S
C1062 C1063 1.351 . S
C1062 H1079 0.930 . S
C1063 N1059 1.389 . S
C1063 C1062 1.351 . S
C1063 H1068 0.930 . S
O1064 Cu1058 1.974 . S
O1064 C1074 1.282 . S
C1065 O1066 1.261 . S
C1065 O1078 1.251 . S
O1066 C1065 1.261 . S
H1067 C1061 0.930 . S
H1068 C1063 0.930 . S
N1069 Cu1058 1.985 . S
N1069 C1071 1.335 . S
N1069 C1072 1.390 1_565 S
N1070 C1071 1.345 1_545 S
N1070 C1073 1.336 . S
C1071 N1069 1.335 . S
C1071 N1070 1.345 1_565 S
C1071 H1076 0.930 . S
C1072 N1069 1.390 1_545 S
C1072 C1073 1.346 . S
C1072 H1077 0.930 . S
C1073 N1070 1.336 . S
C1073 C1072 1.346 . S
C1073 H1080 0.929 . S
C1074 O1064 1.282 . S
C1074 O1075 1.216 . S
O1075 C1074 1.216 . S
H1076 C1071 0.930 . S
H1077 C1072 0.930 . S
O1078 Cu1058 1.959 . S
O1078 C1065 1.251 . S
H1079 C1062 0.930 . S
H1080 C1073 0.929 . S
Cu1081 N1082 1.999 . S
Cu1081 O1087 1.974 . S
Cu1081 N1092 1.985 . S
Cu1081 O1101 1.959 . S
N1082 Cu1081 1.999 . S
N1082 C1084 1.263 . S
N1082 C1086 1.389 . S
N1083 C1084 1.358 . S
N1083 C1085 1.400 . S
C1084 N1082 1.263 . S
C1084 N1083 1.358 . S
C1084 H1090 0.930 . S
C1085 N1083 1.400 . S
C1085 C1086 1.351 . S
C1085 H1102 0.930 . S
C1086 N1082 1.389 . S
C1086 C1085 1.351 . S
C1086 H1091 0.930 . S
O1087 Cu1081 1.974 . S
O1087 C1097 1.282 . S
C1088 O1089 1.261 . S
C1088 O1101 1.251 . S
O1089 C1088 1.261 . S
H1090 C1084 0.930 . S
H1091 C1086 0.930 . S
N1092 Cu1081 1.985 . S
N1092 C1094 1.335 . S
N1092 C1095 1.390 1_545 S
N1093 C1094 1.345 1_565 S
N1093 C1096 1.336 . S
C1094 N1092 1.335 . S
C1094 N1093 1.345 1_545 S
C1094 H1099 0.930 . S
C1095 N1092 1.390 1_565 S
C1095 C1096 1.346 . S
C1095 H1100 0.930 . S
C1096 N1093 1.336 . S
C1096 C1095 1.346 . S
C1096 H1103 0.929 . S
C1097 O1087 1.282 . S
C1097 O1098 1.216 . S
O1098 C1097 1.216 . S
H1099 C1094 0.930 . S
H1100 C1095 0.930 . S
O1101 Cu1081 1.959 . S
O1101 C1088 1.251 . S
H1102 C1085 0.930 . S
H1103 C1096 0.929 . S
C1104 C1105 1.387 . S
C1104 H1108 0.950 . S
C1104 C1113 1.390 . S
C1105 C1104 1.387 . S
C1105 C1107 1.387 . S
H1106 C1113 0.950 . S
C1107 C1105 1.387 . S
C1107 C1109 1.390 . S
C1107 H1111 0.950 . S
H1108 C1104 0.950 . S
C1109 C1107 1.390 . S
C1109 C1110 1.387 . S
C1109 H1112 0.950 . S
C1110 C1109 1.387 . S
C1110 C1113 1.387 . S
H1111 C1107 0.950 . S
H1112 C1109 0.950 . S
C1113 C1104 1.390 . S
C1113 H1106 0.950 . S
C1113 C1110 1.387 . S
C1114 C1115 1.387 . S
C1114 H1118 0.950 . S
C1114 C1123 1.390 . S
C1115 C1114 1.387 . S
C1115 C1117 1.387 . S
H1116 C1123 0.950 . S
C1117 C1115 1.387 . S
C1117 C1119 1.390 . S
C1117 H1121 0.950 . S
H1118 C1114 0.950 . S
C1119 C1117 1.390 . S
C1119 C1120 1.387 . S
C1119 H1122 0.950 . S
C1120 C1119 1.387 . S
C1120 C1123 1.387 . S
H1121 C1117 0.950 . S
H1122 C1119 0.950 . S
C1123 C1114 1.390 . S
C1123 H1116 0.950 . S
C1123 C1120 1.387 . S
C1124 C1125 1.387 . S
C1124 H1128 0.950 . S
C1124 C1133 1.390 . S
C1125 C1124 1.387 . S
C1125 C1127 1.387 . S
H1126 C1133 0.950 . S
C1127 C1125 1.387 . S
C1127 C1129 1.390 . S
C1127 H1131 0.950 . S
H1128 C1124 0.950 . S
C1129 C1127 1.390 . S
C1129 C1130 1.387 . S
C1129 H1132 0.950 . S
C1130 C1129 1.387 . S
C1130 C1133 1.387 . S
H1131 C1127 0.950 . S
H1132 C1129 0.950 . S
C1133 C1124 1.390 . S
C1133 H1126 0.950 . S
C1133 C1130 1.387 . S
C1134 C1135 1.387 . S
C1134 H1138 0.950 . S
C1134 C1143 1.390 . S
C1135 C1134 1.387 . S
C1135 C1137 1.387 . S
H1136 C1143 0.950 . S
C1137 C1135 1.387 . S
C1137 C1139 1.390 . S
C1137 H1141 0.950 . S
H1138 C1134 0.950 . S
C1139 C1137 1.390 . S
C1139 C1140 1.387 . S
C1139 H1142 0.950 . S
C1140 C1139 1.387 . S
C1140 C1143 1.387 . S
H1141 C1137 0.950 . S
H1142 C1139 0.950 . S
C1143 C1134 1.390 . S
C1143 H1136 0.950 . S
C1143 C1140 1.387 . S
C1144 C1145 1.387 . S
C1144 H1148 0.950 . S
C1144 C1153 1.390 . S
C1145 C1144 1.387 . S
C1145 C1147 1.387 . S
H1146 C1153 0.950 1_556 S
C1147 C1145 1.387 . S
C1147 C1149 1.390 . S
C1147 H1151 0.950 . S
H1148 C1144 0.950 . S
C1149 C1147 1.390 . S
C1149 C1150 1.387 . S
C1149 H1152 0.950 . S
C1150 C1149 1.387 . S
C1150 C1153 1.387 . S
H1151 C1147 0.950 . S
H1152 C1149 0.950 . S
C1153 C1144 1.390 . S
C1153 H1146 0.950 1_554 S
C1153 C1150 1.387 . S
C1154 C1155 1.387 . S
C1154 H1158 0.950 . S
C1154 C1163 1.390 . S
C1155 C1154 1.387 . S
C1155 C1157 1.387 . S
H1156 C1163 0.950 . S
C1157 C1155 1.387 . S
C1157 C1159 1.390 . S
C1157 H1161 0.950 . S
H1158 C1154 0.950 . S
C1159 C1157 1.390 . S
C1159 C1160 1.387 . S
C1159 H1162 0.950 . S
C1160 C1159 1.387 . S
C1160 C1163 1.387 . S
H1161 C1157 0.950 . S
H1162 C1159 0.950 . S
C1163 C1154 1.390 . S
C1163 H1156 0.950 . S
C1163 C1160 1.387 . S
C1164 C1165 1.387 . S
C1164 H1168 0.950 . S
C1164 C1173 1.390 . S
C1165 C1164 1.387 . S
C1165 C1167 1.387 . S
H1166 C1173 0.950 . S
C1167 C1165 1.387 . S
C1167 C1169 1.390 . S
C1167 H1171 0.950 . S
H1168 C1164 0.950 . S
C1169 C1167 1.390 . S
C1169 C1170 1.387 . S
C1169 H1172 0.950 . S
C1170 C1169 1.387 . S
C1170 C1173 1.387 . S
H1171 C1167 0.950 . S
H1172 C1169 0.950 . S
C1173 C1164 1.390 . S
C1173 H1166 0.950 . S
C1173 C1170 1.387 . S
C1174 C1175 1.387 . S
C1174 H1178 0.950 . S
C1174 C1183 1.390 . S
C1175 C1174 1.387 . S
C1175 C1177 1.387 . S
H1176 C1183 0.950 . S
C1177 C1175 1.387 . S
C1177 C1179 1.390 . S
C1177 H1181 0.950 . S
H1178 C1174 0.950 . S
C1179 C1177 1.390 . S
C1179 C1180 1.387 . S
C1179 H1182 0.950 . S
C1180 C1179 1.387 . S
C1180 C1183 1.387 . S
H1181 C1177 0.950 . S
H1182 C1179 0.950 . S
C1183 C1174 1.390 . S
C1183 H1176 0.950 . S
C1183 C1180 1.387 . S
C1184 C1185 1.387 . S
C1184 H1188 0.950 . S
C1184 C1193 1.390 . S
C1185 C1184 1.387 . S
C1185 C1187 1.387 . S
H1186 C1193 0.950 . S
C1187 C1185 1.387 . S
C1187 C1189 1.390 . S
C1187 H1191 0.950 . S
H1188 C1184 0.950 . S
C1189 C1187 1.390 . S
C1189 C1190 1.387 . S
C1189 H1192 0.950 . S
C1190 C1189 1.387 . S
C1190 C1193 1.387 . S
H1191 C1187 0.950 . S
H1192 C1189 0.950 . S
C1193 C1184 1.390 . S
C1193 H1186 0.950 . S
C1193 C1190 1.387 . S
C1194 C1195 1.387 . S
C1194 H1198 0.950 . S
C1194 C1203 1.390 . S
C1195 C1194 1.387 . S
C1195 C1197 1.387 . S
H1196 C1203 0.950 1_565 S
C1197 C1195 1.387 . S
C1197 C1199 1.390 . S
C1197 H1201 0.950 . S
H1198 C1194 0.950 . S
C1199 C1197 1.390 . S
C1199 C1200 1.387 . S
C1199 H1202 0.950 . S
C1200 C1199 1.387 . S
C1200 C1203 1.387 . S
H1201 C1197 0.950 . S
H1202 C1199 0.950 . S
C1203 C1194 1.390 . S
C1203 H1196 0.950 1_545 S
C1203 C1200 1.387 . S
C1204 C1205 1.387 . S
C1204 H1208 0.950 . S
C1204 C1213 1.390 . S
C1205 C1204 1.387 . S
C1205 C1207 1.387 . S
H1206 C1213 0.950 . S
C1207 C1205 1.387 . S
C1207 C1209 1.390 . S
C1207 H1211 0.950 . S
H1208 C1204 0.950 . S
C1209 C1207 1.390 . S
C1209 C1210 1.387 . S
C1209 H1212 0.950 . S
C1210 C1209 1.387 . S
C1210 C1213 1.387 . S
H1211 C1207 0.950 . S
H1212 C1209 0.950 . S
C1213 C1204 1.390 . S
C1213 H1206 0.950 . S
C1213 C1210 1.387 . S
C1214 C1215 1.387 . S
C1214 H1218 0.950 . S
C1214 C1223 1.390 . S
C1215 C1214 1.387 . S
C1215 C1217 1.387 . S
H1216 C1223 0.950 . S
C1217 C1215 1.387 . S
C1217 C1219 1.390 . S
C1217 H1221 0.950 . S
H1218 C1214 0.950 . S
C1219 C1217 1.390 . S
C1219 C1220 1.387 . S
C1219 H1222 0.950 . S
C1220 C1219 1.387 . S
C1220 C1223 1.387 . S
H1221 C1217 0.950 . S
H1222 C1219 0.950 . S
C1223 C1214 1.390 . S
C1223 H1216 0.950 . S
C1223 C1220 1.387 . S
C1224 C1225 1.387 . S
C1224 H1228 0.950 . S
C1224 C1233 1.390 . S
C1225 C1224 1.387 . S
C1225 C1227 1.387 . S
H1226 C1233 0.950 . S
C1227 C1225 1.387 . S
C1227 C1229 1.390 . S
C1227 H1231 0.950 . S
H1228 C1224 0.950 . S
C1229 C1227 1.390 . S
C1229 C1230 1.387 . S
C1229 H1232 0.950 . S
C1230 C1229 1.387 . S
C1230 C1233 1.387 . S
H1231 C1227 0.950 . S
H1232 C1229 0.950 . S
C1233 C1224 1.390 . S
C1233 H1226 0.950 . S
C1233 C1230 1.387 . S
C1234 C1235 1.387 . S
C1234 H1238 0.950 . S
C1234 C1243 1.390 . S
C1235 C1234 1.387 . S
C1235 C1237 1.387 . S
H1236 C1243 0.950 . S
C1237 C1235 1.387 . S
C1237 C1239 1.390 . S
C1237 H1241 0.950 . S
H1238 C1234 0.950 . S
C1239 C1237 1.390 . S
C1239 C1240 1.387 . S
C1239 H1242 0.950 . S
C1240 C1239 1.387 . S
C1240 C1243 1.387 . S
H1241 C1237 0.950 . S
H1242 C1239 0.950 . S
C1243 C1234 1.390 . S
C1243 H1236 0.950 . S
C1243 C1240 1.387 . S
C1244 C1245 1.387 . S
C1244 H1248 0.950 . S
C1244 C1253 1.390 . S
C1245 C1244 1.387 . S
C1245 C1247 1.387 . S
H1246 C1253 0.950 . S
C1247 C1245 1.387 . S
C1247 C1249 1.390 . S
C1247 H1251 0.950 . S
H1248 C1244 0.950 . S
C1249 C1247 1.390 . S
C1249 C1250 1.387 . S
C1249 H1252 0.950 . S
C1250 C1249 1.387 . S
C1250 C1253 1.387 . S
H1251 C1247 0.950 . S
H1252 C1249 0.950 . S
C1253 C1244 1.390 . S
C1253 H1246 0.950 . S
C1253 C1250 1.387 . S
C1254 C1255 1.387 . S
C1254 H1258 0.950 . S
C1254 C1263 1.390 . S
C1255 C1254 1.387 . S
C1255 C1257 1.387 . S
H1256 C1263 0.950 . S
C1257 C1255 1.387 . S
C1257 C1259 1.390 . S
C1257 H1261 0.950 . S
H1258 C1254 0.950 . S
C1259 C1257 1.390 . S
C1259 C1260 1.387 . S
C1259 H1262 0.950 . S
C1260 C1259 1.387 . S
C1260 C1263 1.387 . S
H1261 C1257 0.950 . S
H1262 C1259 0.950 . S
C1263 C1254 1.390 . S
C1263 H1256 0.950 . S
C1263 C1260 1.387 . S
C1264 C1265 1.387 . S
C1264 H1268 0.950 . S
C1264 C1273 1.390 . S
C1265 C1264 1.387 . S
C1265 C1267 1.387 . S
H1266 C1273 0.950 . S
C1267 C1265 1.387 . S
C1267 C1269 1.390 . S
C1267 H1271 0.950 . S
H1268 C1264 0.950 . S
C1269 C1267 1.390 . S
C1269 C1270 1.387 . S
C1269 H1272 0.950 . S
C1270 C1269 1.387 . S
C1270 C1273 1.387 . S
H1271 C1267 0.950 . S
H1272 C1269 0.950 . S
C1273 C1264 1.390 . S
C1273 H1266 0.950 . S
C1273 C1270 1.387 . S
C1274 C1275 1.387 . S
C1274 H1278 0.950 . S
C1274 C1283 1.390 . S
C1275 C1274 1.387 . S
C1275 C1277 1.387 . S
H1276 C1283 0.950 . S
C1277 C1275 1.387 . S
C1277 C1279 1.390 . S
C1277 H1281 0.950 . S
H1278 C1274 0.950 . S
C1279 C1277 1.390 . S
C1279 C1280 1.387 . S
C1279 H1282 0.950 . S
C1280 C1279 1.387 . S
C1280 C1283 1.387 . S
H1281 C1277 0.950 . S
H1282 C1279 0.950 . S
C1283 C1274 1.390 . S
C1283 H1276 0.950 . S
C1283 C1280 1.387 . S
C1284 C1285 1.387 . S
C1284 H1288 0.950 . S
C1284 C1293 1.390 . S
C1285 C1284 1.387 . S
C1285 C1287 1.387 . S
H1286 C1293 0.950 . S
C1287 C1285 1.387 . S
C1287 C1289 1.390 . S
C1287 H1291 0.950 . S
H1288 C1284 0.950 . S
C1289 C1287 1.390 . S
C1289 C1290 1.387 . S
C1289 H1292 0.950 . S
C1290 C1289 1.387 . S
C1290 C1293 1.387 . S
H1291 C1287 0.950 . S
H1292 C1289 0.950 . S
C1293 C1284 1.390 . S
C1293 H1286 0.950 . S
C1293 C1290 1.387 . S
C1294 C1295 1.387 . S
C1294 H1298 0.950 . S
C1294 C1303 1.390 . S
C1295 C1294 1.387 . S
C1295 C1297 1.387 . S
H1296 C1303 0.950 . S
C1297 C1295 1.387 . S
C1297 C1299 1.390 . S
C1297 H1301 0.950 . S
H1298 C1294 0.950 . S
C1299 C1297 1.390 . S
C1299 C1300 1.387 . S
C1299 H1302 0.950 . S
C1300 C1299 1.387 . S
C1300 C1303 1.387 . S
H1301 C1297 0.950 . S
H1302 C1299 0.950 . S
C1303 C1294 1.390 . S
C1303 H1296 0.950 . S
C1303 C1300 1.387 . S
C1304 C1305 1.387 . S
C1304 H1308 0.950 . S
C1304 C1313 1.390 . S
C1305 C1304 1.387 . S
C1305 C1307 1.387 . S
H1306 C1313 0.950 . S
C1307 C1305 1.387 . S
C1307 C1309 1.390 . S
C1307 H1311 0.950 . S
H1308 C1304 0.950 . S
C1309 C1307 1.390 . S
C1309 C1310 1.387 . S
C1309 H1312 0.950 . S
C1310 C1309 1.387 . S
C1310 C1313 1.387 . S
H1311 C1307 0.950 . S
H1312 C1309 0.950 . S
C1313 C1304 1.390 . S
C1313 H1306 0.950 . S
C1313 C1310 1.387 . S
C1314 C1315 1.387 . S
C1314 H1318 0.950 . S
C1314 C1323 1.390 . S
C1315 C1314 1.387 . S
C1315 C1317 1.387 . S
H1316 C1323 0.950 . S
C1317 C1315 1.387 . S
C1317 C1319 1.390 . S
C1317 H1321 0.950 . S
H1318 C1314 0.950 . S
C1319 C1317 1.390 . S
C1319 C1320 1.387 . S
C1319 H1322 0.950 . S
C1320 C1319 1.387 . S
C1320 C1323 1.387 . S
H1321 C1317 0.950 . S
H1322 C1319 0.950 . S
C1323 C1314 1.390 . S
C1323 H1316 0.950 . S
C1323 C1320 1.387 . S
C1324 C1325 1.387 . S
C1324 H1328 0.950 . S
C1324 C1333 1.390 . S
C1325 C1324 1.387 . S
C1325 C1327 1.387 . S
H1326 C1333 0.950 . S
C1327 C1325 1.387 . S
C1327 C1329 1.390 . S
C1327 H1331 0.950 . S
H1328 C1324 0.950 . S
C1329 C1327 1.390 . S
C1329 C1330 1.387 . S
C1329 H1332 0.950 . S
C1330 C1329 1.387 . S
C1330 C1333 1.387 . S
H1331 C1327 0.950 . S
H1332 C1329 0.950 . S
C1333 C1324 1.390 . S
C1333 H1326 0.950 . S
C1333 C1330 1.387 . S
C1334 C1335 1.387 . S
C1334 H1338 0.950 . S
C1334 C1343 1.390 . S
C1335 C1334 1.387 . S
C1335 C1337 1.387 . S
H1336 C1343 0.950 1_545 S
C1337 C1335 1.387 . S
C1337 C1339 1.390 . S
C1337 H1341 0.950 . S
H1338 C1334 0.950 . S
C1339 C1337 1.390 . S
C1339 C1340 1.387 . S
C1339 H1342 0.950 . S
C1340 C1339 1.387 . S
C1340 C1343 1.387 . S
H1341 C1337 0.950 . S
H1342 C1339 0.950 . S
C1343 C1334 1.390 . S
C1343 H1336 0.950 1_565 S
C1343 C1340 1.387 . S
C1344 C1345 1.387 . S
C1344 H1348 0.950 . S
C1344 C1353 1.390 . S
C1345 C1344 1.387 . S
C1345 C1347 1.387 . S
H1346 C1353 0.950 . S
C1347 C1345 1.387 . S
C1347 C1349 1.390 . S
C1347 H1351 0.950 . S
H1348 C1344 0.950 . S
C1349 C1347 1.390 . S
C1349 C1350 1.387 . S
C1349 H1352 0.950 . S
C1350 C1349 1.387 . S
C1350 C1353 1.387 . S
H1351 C1347 0.950 . S
H1352 C1349 0.950 . S
C1353 C1344 1.390 . S
C1353 H1346 0.950 . S
C1353 C1350 1.387 . S
C1354 C1355 1.385 1_545 S
C1354 H1358 0.965 . S
C1354 C1363 1.379 1_545 S
C1355 C1354 1.385 1_565 S
C1355 C1357 1.387 . S
H1356 C1363 0.950 . S
C1357 C1355 1.387 . S
C1357 C1359 1.390 . S
C1357 H1361 0.950 . S
H1358 C1354 0.965 . S
C1359 C1357 1.390 . S
C1359 C1360 1.387 . S
C1359 H1362 0.950 . S
C1360 C1359 1.387 . S
C1360 C1363 1.387 . S
H1361 C1357 0.950 . S
H1362 C1359 0.950 . S
C1363 C1354 1.379 1_565 S
C1363 H1356 0.950 . S
C1363 C1360 1.387 . S
C1364 C1365 1.387 . S
C1364 H1368 0.950 . S
C1364 C1373 1.390 . S
C1365 C1364 1.387 . S
C1365 C1367 1.387 . S
H1366 C1373 0.950 . S
C1367 C1365 1.387 . S
C1367 C1369 1.390 . S
C1367 H1371 0.950 . S
H1368 C1364 0.950 . S
C1369 C1367 1.390 . S
C1369 C1370 1.387 . S
C1369 H1372 0.950 . S
C1370 C1369 1.387 . S
C1370 C1373 1.387 . S
H1371 C1367 0.950 . S
H1372 C1369 0.950 . S
C1373 C1364 1.390 . S
C1373 H1366 0.950 . S
C1373 C1370 1.387 . S
C1374 C1375 1.387 1_564 S
C1374 H1378 0.950 . S
C1374 C1383 1.390 . S
C1375 C1374 1.387 1_546 S
C1375 C1377 1.392 . S
H1376 C1383 0.950 . S
C1377 C1375 1.392 . S
C1377 C1379 1.351 1_556 S
C1377 H1381 0.986 . S
H1378 C1374 0.950 . S
C1379 C1377 1.351 1_554 S
C1379 C1380 1.387 . S
C1379 H1382 0.950 . S
C1380 C1379 1.387 . S
C1380 C1383 1.387 1_545 S
H1381 C1377 0.986 . S
H1382 C1379 0.950 . S
C1383 C1374 1.390 . S
C1383 H1376 0.950 . S
C1383 C1380 1.387 1_565 S
C1384 C1385 1.387 . S
C1384 H1388 0.950 . S
C1384 C1393 1.390 . S
C1385 C1384 1.387 . S
C1385 C1387 1.387 . S
H1386 C1393 0.950 . S
C1387 C1385 1.387 . S
C1387 C1389 1.390 . S
C1387 H1391 0.950 . S
H1388 C1384 0.950 . S
C1389 C1387 1.390 . S
C1389 C1390 1.387 . S
C1389 H1392 0.950 . S
C1390 C1389 1.387 . S
C1390 C1393 1.387 . S
H1391 C1387 0.950 . S
H1392 C1389 0.950 . S
C1393 C1384 1.390 . S
C1393 H1386 0.950 . S
C1393 C1390 1.387 . S
C1394 C1395 1.387 1_545 S
C1394 H1398 0.950 . S
C1394 C1403 1.390 . S
C1395 C1394 1.387 1_565 S
C1395 C1397 1.387 . S
H1396 C1403 0.950 . S
C1397 C1395 1.387 . S
C1397 C1399 1.390 . S
C1397 H1401 0.950 . S
H1398 C1394 0.950 . S
C1399 C1397 1.390 . S
C1399 C1400 1.387 . S
C1399 H1402 0.950 . S
C1400 C1399 1.387 . S
C1400 C1403 1.387 1_565 S
H1401 C1397 0.950 . S
H1402 C1399 0.950 . S
C1403 C1394 1.390 . S
C1403 H1396 0.950 . S
C1403 C1400 1.387 1_545 S
C1404 C1405 1.387 . S
C1404 H1408 0.950 . S
C1404 C1413 1.390 . S
C1405 C1404 1.387 . S
C1405 C1407 1.387 . S
H1406 C1413 0.950 . S
C1407 C1405 1.387 . S
C1407 C1409 1.390 . S
C1407 H1411 0.950 . S
H1408 C1404 0.950 . S
C1409 C1407 1.390 . S
C1409 C1410 1.387 . S
C1409 H1412 0.950 . S
C1410 C1409 1.387 . S
C1410 C1413 1.387 . S
H1411 C1407 0.950 . S
H1412 C1409 0.950 . S
C1413 C1404 1.390 . S
C1413 H1406 0.950 . S
C1413 C1410 1.387 . S
C1414 C1415 1.387 1_566 S
C1414 H1418 0.950 . S
C1414 C1423 1.390 . S
C1415 C1414 1.387 1_544 S
C1415 C1417 1.390 . S
H1416 C1423 0.950 . S
C1417 C1415 1.390 . S
C1417 C1419 1.371 1_554 S
C1417 H1421 0.967 . S
H1418 C1414 0.950 . S
C1419 C1417 1.371 1_556 S
C1419 C1420 1.387 . S
C1419 H1422 0.950 . S
C1420 C1419 1.387 . S
C1420 C1423 1.387 1_545 S
H1421 C1417 0.967 . S
H1422 C1419 0.950 . S
C1423 C1414 1.390 . S
C1423 H1416 0.950 . S
C1423 C1420 1.387 1_565 S
C1424 C1425 1.387 . S
C1424 H1428 0.950 . S
C1424 C1433 1.390 . S
C1425 C1424 1.387 . S
C1425 C1427 1.387 . S
H1426 C1433 0.950 . S
C1427 C1425 1.387 . S
C1427 C1429 1.390 . S
C1427 H1431 0.950 . S
H1428 C1424 0.950 . S
C1429 C1427 1.390 . S
C1429 C1430 1.387 . S
C1429 H1432 0.950 . S
C1430 C1429 1.387 . S
C1430 C1433 1.387 . S
H1431 C1427 0.950 . S
H1432 C1429 0.950 . S
C1433 C1424 1.390 . S
C1433 H1426 0.950 . S
C1433 C1430 1.387 . S
C1434 C1435 1.387 1_545 S
C1434 H1438 0.950 1_455 S
C1434 C1443 1.390 . S
C1435 C1434 1.387 1_565 S
C1435 C1437 1.387 1_565 S
H1436 C1443 0.950 . S
C1437 C1435 1.387 1_545 S
C1437 C1439 1.390 . S
C1437 H1441 0.950 1_545 S
H1438 C1434 0.950 1_655 S
C1439 C1437 1.390 . S
C1439 C1440 1.387 . S
C1439 H1442 0.950 . S
C1440 C1439 1.387 . S
C1440 C1443 1.387 . S
H1441 C1437 0.950 1_565 S
H1442 C1439 0.950 . S
C1443 C1434 1.390 . S
C1443 H1436 0.950 . S
C1443 C1440 1.387 . S
C1444 C1445 1.387 . S
C1444 H1448 0.950 . S
C1444 C1453 1.390 . S
C1445 C1444 1.387 . S
C1445 C1447 1.387 . S
H1446 C1453 0.950 . S
C1447 C1445 1.387 . S
C1447 C1449 1.390 . S
C1447 H1451 0.950 . S
H1448 C1444 0.950 . S
C1449 C1447 1.390 . S
C1449 C1450 1.387 . S
C1449 H1452 0.950 . S
C1450 C1449 1.387 . S
C1450 C1453 1.387 . S
H1451 C1447 0.950 . S
H1452 C1449 0.950 . S
C1453 C1444 1.390 . S
C1453 H1446 0.950 . S
C1453 C1450 1.387 . S
C1454 C1455 1.387 1_565 S
C1454 H1458 0.950 . S
C1454 C1463 1.390 . S
C1455 C1454 1.387 1_545 S
C1455 C1457 1.392 . S
H1456 C1463 0.950 . S
C1457 C1455 1.392 . S
C1457 C1459 1.351 1_545 S
C1457 H1461 0.986 . S
H1458 C1454 0.950 . S
C1459 C1457 1.351 1_565 S
C1459 C1460 1.387 . S
C1459 H1462 0.950 . S
C1460 C1459 1.387 . S
C1460 C1463 1.387 . S
H1461 C1457 0.986 . S
H1462 C1459 0.950 . S
C1463 C1454 1.390 . S
C1463 H1456 0.950 . S
C1463 C1460 1.387 . S
C1464 C1465 1.387 . S
C1464 H1468 0.950 . S
C1464 C1473 1.390 . S
C1465 C1464 1.387 . S
C1465 C1467 1.387 . S
H1466 C1473 0.950 . S
C1467 C1465 1.387 . S
C1467 C1469 1.390 . S
C1467 H1471 0.950 . S
H1468 C1464 0.950 . S
C1469 C1467 1.390 . S
C1469 C1470 1.387 . S
C1469 H1472 0.950 . S
C1470 C1469 1.387 . S
C1470 C1473 1.387 . S
H1471 C1467 0.950 . S
H1472 C1469 0.950 . S
C1473 C1464 1.390 . S
C1473 H1466 0.950 . S
C1473 C1470 1.387 . S
C1474 C1475 1.383 1_545 S
C1474 H1478 0.926 1_545 S
C1474 C1483 1.418 . S
C1475 C1474 1.383 1_565 S
C1475 C1477 1.387 1_565 S
H1476 C1483 0.950 . S
C1477 C1475 1.387 1_545 S
C1477 C1479 1.390 . S
C1477 H1481 0.950 . S
H1478 C1474 0.926 1_565 S
C1479 C1477 1.390 . S
C1479 C1480 1.387 . S
C1479 H1482 0.950 . S
C1480 C1479 1.387 . S
C1480 C1483 1.387 . S
H1481 C1477 0.950 . S
H1482 C1479 0.950 . S
C1483 C1474 1.418 . S
C1483 H1476 0.950 . S
C1483 C1480 1.387 . S
C1484 C1485 1.387 . S
C1484 H1488 0.950 . S
C1484 C1493 1.390 . S
C1485 C1484 1.387 . S
C1485 C1487 1.387 . S
H1486 C1493 0.950 . S
C1487 C1485 1.387 . S
C1487 C1489 1.390 . S
C1487 H1491 0.950 . S
H1488 C1484 0.950 . S
C1489 C1487 1.390 . S
C1489 C1490 1.387 . S
C1489 H1492 0.950 . S
C1490 C1489 1.387 . S
C1490 C1493 1.387 . S
H1491 C1487 0.950 . S
H1492 C1489 0.950 . S
C1493 C1484 1.390 . S
C1493 H1486 0.950 . S
C1493 C1490 1.387 . S
C1494 C1495 1.387 . S
C1494 H1498 0.950 . S
C1494 C1503 1.390 . S
C1495 C1494 1.387 . S
C1495 C1497 1.387 1_455 S
H1496 C1503 0.950 1_545 S
C1497 C1495 1.387 1_655 S
C1497 C1499 1.390 . S
C1497 H1501 0.950 . S
H1498 C1494 0.950 . S
C1499 C1497 1.390 . S
C1499 C1500 1.387 1_665 S
C1499 H1502 0.950 . S
C1500 C1499 1.387 1_445 S
C1500 C1503 1.387 1_545 S
H1501 C1497 0.950 . S
H1502 C1499 0.950 . S
C1503 C1494 1.390 . S
C1503 H1496 0.950 1_565 S
C1503 C1500 1.387 1_565 S
C1504 C1505 1.387 . S
C1504 H1508 0.950 . S
C1504 C1513 1.390 . S
C1505 C1504 1.387 . S
C1505 C1507 1.387 . S
H1506 C1513 0.950 . S
C1507 C1505 1.387 . S
C1507 C1509 1.390 . S
C1507 H1511 0.950 . S
H1508 C1504 0.950 . S
C1509 C1507 1.390 . S
C1509 C1510 1.387 . S
C1509 H1512 0.950 . S
C1510 C1509 1.387 . S
C1510 C1513 1.387 . S
H1511 C1507 0.950 . S
H1512 C1509 0.950 . S
C1513 C1504 1.390 . S
C1513 H1506 0.950 . S
C1513 C1510 1.387 . S
C1514 C1515 1.387 . S
C1514 H1518 0.950 . S
C1514 C1523 1.390 . S
C1515 C1514 1.387 . S
C1515 C1517 1.387 . S
H1516 C1523 0.950 . S
C1517 C1515 1.387 . S
C1517 C1519 1.390 . S
C1517 H1521 0.950 . S
H1518 C1514 0.950 . S
C1519 C1517 1.390 . S
C1519 C1520 1.387 . S
C1519 H1522 0.950 . S
C1520 C1519 1.387 . S
C1520 C1523 1.387 . S
H1521 C1517 0.950 . S
H1522 C1519 0.950 . S
C1523 C1514 1.390 . S
C1523 H1516 0.950 . S
C1523 C1520 1.387 . S
C1524 C1525 1.387 1_456 S
C1524 H1528 0.947 1_455 S
C1524 C1533 1.390 1_556 S
C1525 C1524 1.387 1_654 S
C1525 C1527 1.387 1_655 S
H1526 C1533 0.950 1_556 S
C1527 C1525 1.387 1_455 S
C1527 C1529 1.390 . S
C1527 H1531 0.950 . S
H1528 C1524 0.947 1_655 S
C1529 C1527 1.390 . S
C1529 C1530 1.387 . S
C1529 H1532 0.950 . S
C1530 C1529 1.387 . S
C1530 C1533 1.387 . S
H1531 C1527 0.950 . S
H1532 C1529 0.950 . S
C1533 C1524 1.390 1_554 S
C1533 H1526 0.950 1_554 S
C1533 C1530 1.387 . S
C1534 C1535 1.387 . S
C1534 H1538 0.950 . S
C1534 C1543 1.390 . S
C1535 C1534 1.387 . S
C1535 C1537 1.387 . S
H1536 C1543 0.950 . S
C1537 C1535 1.387 . S
C1537 C1539 1.390 . S
C1537 H1541 0.950 . S
H1538 C1534 0.950 . S
C1539 C1537 1.390 . S
C1539 C1540 1.387 . S
C1539 H1542 0.950 . S
C1540 C1539 1.387 . S
C1540 C1543 1.387 . S
H1541 C1537 0.950 . S
H1542 C1539 0.950 . S
C1543 C1534 1.390 . S
C1543 H1536 0.950 . S
C1543 C1540 1.387 . S
C1544 C1545 1.387 1_655 S
C1544 H1548 0.950 . S
C1544 C1553 1.390 . S
C1545 C1544 1.387 1_455 S
C1545 C1547 1.387 1_454 S
H1546 C1553 0.950 . S
C1547 C1545 1.387 1_656 S
C1547 C1549 1.390 1_556 S
C1547 H1551 0.950 1_655 S
H1548 C1544 0.950 . S
C1549 C1547 1.390 1_554 S
C1549 C1550 1.387 . S
C1549 H1552 0.959 . S
C1550 C1549 1.387 . S
C1550 C1553 1.387 . S
H1551 C1547 0.950 1_455 S
H1552 C1549 0.959 . S
C1553 C1544 1.390 . S
C1553 H1546 0.950 . S
C1553 C1550 1.387 . S
C1554 C1555 1.387 . S
C1554 H1558 0.950 . S
C1554 C1563 1.390 . S
C1555 C1554 1.387 . S
C1555 C1557 1.387 . S
H1556 C1563 0.950 . S
C1557 C1555 1.387 . S
C1557 C1559 1.390 . S
C1557 H1561 0.950 . S
H1558 C1554 0.950 . S
C1559 C1557 1.390 . S
C1559 C1560 1.387 . S
C1559 H1562 0.950 . S
C1560 C1559 1.387 . S
C1560 C1563 1.387 . S
H1561 C1557 0.950 . S
H1562 C1559 0.950 . S
C1563 C1554 1.390 . S
C1563 H1556 0.950 . S
C1563 C1560 1.387 . S
C1564 C1565 1.387 1_455 S
C1564 H1568 0.950 . S
C1564 C1573 1.390 . S
C1565 C1564 1.387 1_655 S
C1565 C1567 1.387 1_655 S
H1566 C1573 0.950 . S
C1567 C1565 1.387 1_455 S
C1567 C1569 1.390 . S
C1567 H1571 0.950 1_455 S
H1568 C1564 0.950 . S
C1569 C1567 1.390 . S
C1569 C1570 1.387 . S
C1569 H1572 0.950 . S
C1570 C1569 1.387 . S
C1570 C1573 1.387 . S
H1571 C1567 0.950 1_655 S
H1572 C1569 0.950 . S
C1573 C1564 1.390 . S
C1573 H1566 0.950 . S
C1573 C1570 1.387 . S
C1574 C1575 1.387 . S
C1574 H1578 0.950 . S
C1574 C1583 1.390 . S
C1575 C1574 1.387 . S
C1575 C1577 1.387 . S
H1576 C1583 0.950 . S
C1577 C1575 1.387 . S
C1577 C1579 1.390 . S
C1577 H1581 0.950 . S
H1578 C1574 0.950 . S
C1579 C1577 1.390 . S
C1579 C1580 1.387 . S
C1579 H1582 0.950 1_556 S
C1580 C1579 1.387 . S
C1580 C1583 1.387 . S
H1581 C1577 0.950 . S
H1582 C1579 0.950 1_554 S
C1583 C1574 1.390 . S
C1583 H1576 0.950 . S
C1583 C1580 1.387 . S
C1584 C1585 1.387 . S
C1584 H1588 0.950 . S
C1584 C1593 1.390 . S
C1585 C1584 1.387 . S
C1585 C1587 1.387 . S
H1586 C1593 0.950 . S
C1587 C1585 1.387 . S
C1587 C1589 1.390 . S
C1587 H1591 0.950 . S
H1588 C1584 0.950 . S
C1589 C1587 1.390 . S
C1589 C1590 1.387 . S
C1589 H1592 0.950 . S
C1590 C1589 1.387 . S
C1590 C1593 1.387 . S
H1591 C1587 0.950 . S
H1592 C1589 0.950 . S
C1593 C1584 1.390 . S
C1593 H1586 0.950 . S
C1593 C1590 1.387 . S
C1594 C1595 1.387 . S
C1594 H1598 0.950 . S
C1594 C1603 1.390 . S
C1595 C1594 1.387 . S
C1595 C1597 1.387 . S
H1596 C1603 0.950 . S
C1597 C1595 1.387 . S
C1597 C1599 1.390 . S
C1597 H1601 0.950 . S
H1598 C1594 0.950 . S
C1599 C1597 1.390 . S
C1599 C1600 1.387 1_554 S
C1599 H1602 0.950 1_554 S
C1600 C1599 1.387 1_556 S
C1600 C1603 1.387 1_556 S
H1601 C1597 0.950 . S
H1602 C1599 0.950 1_556 S
C1603 C1594 1.390 . S
C1603 H1596 0.950 . S
C1603 C1600 1.387 1_554 S
C1604 C1605 1.387 . S
C1604 H1608 0.950 . S
C1604 C1613 1.390 . S
C1605 C1604 1.387 . S
C1605 C1607 1.387 . S
H1606 C1613 0.950 . S
C1607 C1605 1.387 . S
C1607 C1609 1.390 . S
C1607 H1611 0.950 . S
H1608 C1604 0.950 . S
C1609 C1607 1.390 . S
C1609 C1610 1.387 . S
C1609 H1612 0.950 . S
C1610 C1609 1.387 . S
C1610 C1613 1.387 . S
H1611 C1607 0.950 . S
H1612 C1609 0.950 . S
C1613 C1604 1.390 . S
C1613 H1606 0.950 . S
C1613 C1610 1.387 . S
C1614 C1615 1.387 . S
C1614 H1618 0.950 . S
C1614 C1623 1.390 . S
C1615 C1614 1.387 . S
C1615 C1617 1.387 . S
H1616 C1623 0.950 . S
C1617 C1615 1.387 . S
C1617 C1619 1.390 . S
C1617 H1621 0.950 . S
H1618 C1614 0.950 . S
C1619 C1617 1.390 . S
C1619 C1620 1.387 . S
C1619 H1622 0.950 . S
C1620 C1619 1.387 . S
C1620 C1623 1.387 . S
H1621 C1617 0.950 . S
H1622 C1619 0.950 . S
C1623 C1614 1.390 . S
C1623 H1616 0.950 . S
C1623 C1620 1.387 . S
C1624 C1625 1.387 . S
C1624 H1628 0.950 . S
C1624 C1633 1.390 . S
C1625 C1624 1.387 . S
C1625 C1627 1.387 . S
H1626 C1633 0.950 . S
C1627 C1625 1.387 . S
C1627 C1629 1.390 . S
C1627 H1631 0.950 . S
H1628 C1624 0.950 . S
C1629 C1627 1.390 . S
C1629 C1630 1.387 . S
C1629 H1632 0.950 . S
C1630 C1629 1.387 . S
C1630 C1633 1.387 . S
H1631 C1627 0.950 . S
H1632 C1629 0.950 . S
C1633 C1624 1.390 . S
C1633 H1626 0.950 . S
C1633 C1630 1.387 . S
C1634 C1635 1.387 . S
C1634 H1638 0.950 . S
C1634 C1643 1.379 1_556 S
C1635 C1634 1.387 . S
C1635 C1637 1.387 . S
H1636 C1643 0.960 . S
C1637 C1635 1.387 . S
C1637 C1639 1.390 . S
C1637 H1641 0.950 . S
H1638 C1634 0.950 . S
C1639 C1637 1.390 . S
C1639 C1640 1.387 1_556 S
C1639 H1642 0.950 . S
C1640 C1639 1.387 1_554 S
C1640 C1643 1.389 . S
H1641 C1637 0.950 . S
H1642 C1639 0.950 . S
C1643 C1634 1.379 1_554 S
C1643 H1636 0.960 . S
C1643 C1640 1.389 . S
C1644 C1645 1.387 . S
C1644 H1648 0.950 . S
C1644 C1653 1.390 . S
C1645 C1644 1.387 . S
C1645 C1647 1.387 . S
H1646 C1653 0.950 . S
C1647 C1645 1.387 . S
C1647 C1649 1.390 . S
C1647 H1651 0.950 . S
H1648 C1644 0.950 . S
C1649 C1647 1.390 . S
C1649 C1650 1.387 . S
C1649 H1652 0.950 . S
C1650 C1649 1.387 . S
C1650 C1653 1.387 . S
H1651 C1647 0.950 . S
H1652 C1649 0.950 . S
C1653 C1644 1.390 . S
C1653 H1646 0.950 . S
C1653 C1650 1.387 . S
C1654 C1655 1.387 . S
C1654 H1658 0.950 . S
C1654 C1663 1.390 . S
C1655 C1654 1.387 . S
C1655 C1657 1.387 . S
H1656 C1663 0.950 . S
C1657 C1655 1.387 . S
C1657 C1659 1.390 . S
C1657 H1661 0.950 . S
H1658 C1654 0.950 . S
C1659 C1657 1.390 . S
C1659 C1660 1.387 . S
C1659 H1662 0.950 . S
C1660 C1659 1.387 . S
C1660 C1663 1.387 . S
H1661 C1657 0.950 . S
H1662 C1659 0.950 . S
C1663 C1654 1.390 . S
C1663 H1656 0.950 . S
C1663 C1660 1.387 . S
C1664 C1665 1.387 . S
C1664 H1668 0.950 . S
C1664 C1673 1.390 . S
C1665 C1664 1.387 . S
C1665 C1667 1.387 . S
H1666 C1673 0.950 . S
C1667 C1665 1.387 . S
C1667 C1669 1.390 . S
C1667 H1671 0.950 . S
H1668 C1664 0.950 . S
C1669 C1667 1.390 . S
C1669 C1670 1.387 . S
C1669 H1672 0.950 . S
C1670 C1669 1.387 . S
C1670 C1673 1.387 . S
H1671 C1667 0.950 . S
H1672 C1669 0.950 . S
C1673 C1664 1.390 . S
C1673 H1666 0.950 . S
C1673 C1670 1.387 . S
C1674 C1675 1.387 . S
C1674 H1678 0.950 . S
C1674 C1683 1.390 . S
C1675 C1674 1.387 . S
C1675 C1677 1.387 . S
H1676 C1683 0.950 . S
C1677 C1675 1.387 . S
C1677 C1679 1.390 . S
C1677 H1681 0.950 . S
H1678 C1674 0.950 . S
C1679 C1677 1.390 . S
C1679 C1680 1.387 . S
C1679 H1682 0.950 . S
C1680 C1679 1.387 . S
C1680 C1683 1.387 . S
H1681 C1677 0.950 . S
H1682 C1679 0.950 . S
C1683 C1674 1.390 . S
C1683 H1676 0.950 . S
C1683 C1680 1.387 . S
C1684 C1685 1.387 . S
C1684 H1688 0.950 . S
C1684 C1693 1.390 . S
C1685 C1684 1.387 . S
C1685 C1687 1.387 . S
H1686 C1693 0.950 . S
C1687 C1685 1.387 . S
C1687 C1689 1.390 . S
C1687 H1691 0.950 . S
H1688 C1684 0.950 . S
C1689 C1687 1.390 . S
C1689 C1690 1.387 . S
C1689 H1692 0.950 . S
C1690 C1689 1.387 . S
C1690 C1693 1.387 . S
H1691 C1687 0.950 . S
H1692 C1689 0.950 . S
C1693 C1684 1.390 . S
C1693 H1686 0.950 . S
C1693 C1690 1.387 . S
C1694 C1695 1.387 . S
C1694 H1698 0.950 . S
C1694 C1703 1.390 . S
C1695 C1694 1.387 . S
C1695 C1697 1.387 1_655 S
H1696 C1703 0.950 . S
C1697 C1695 1.387 1_455 S
C1697 C1699 1.390 . S
C1697 H1701 0.950 . S
H1698 C1694 0.950 . S
C1699 C1697 1.390 . S
C1699 C1700 1.387 1_455 S
C1699 H1702 0.950 . S
C1700 C1699 1.387 1_655 S
C1700 C1703 1.387 . S
H1701 C1697 0.950 . S
H1702 C1699 0.950 . S
C1703 C1694 1.390 . S
C1703 H1696 0.950 . S
C1703 C1700 1.387 . S
C1704 C1705 1.387 . S
C1704 H1708 0.950 . S
C1704 C1713 1.390 . S
C1705 C1704 1.387 . S
C1705 C1707 1.387 . S
H1706 C1713 0.950 . S
C1707 C1705 1.387 . S
C1707 C1709 1.390 . S
C1707 H1711 0.950 . S
H1708 C1704 0.950 . S
C1709 C1707 1.390 . S
C1709 C1710 1.387 . S
C1709 H1712 0.950 . S
C1710 C1709 1.387 . S
C1710 C1713 1.387 . S
H1711 C1707 0.950 . S
H1712 C1709 0.950 . S
C1713 C1704 1.390 . S
C1713 H1706 0.950 . S
C1713 C1710 1.387 . S
C1714 C1715 1.387 . S
C1714 H1718 0.950 . S
C1714 C1723 1.390 . S
C1715 C1714 1.387 . S
C1715 C1717 1.387 1_655 S
H1716 C1723 0.950 . S
C1717 C1715 1.387 1_455 S
C1717 C1719 1.390 . S
C1717 H1721 0.950 . S
H1718 C1714 0.950 . S
C1719 C1717 1.390 . S
C1719 C1720 1.387 1_455 S
C1719 H1722 0.950 . S
C1720 C1719 1.387 1_655 S
C1720 C1723 1.387 . S
H1721 C1717 0.950 . S
H1722 C1719 0.950 . S
C1723 C1714 1.390 . S
C1723 H1716 0.950 . S
C1723 C1720 1.387 . S
C1724 C1725 1.387 . S
C1724 H1728 0.950 . S
C1724 C1733 1.390 . S
C1725 C1724 1.387 . S
C1725 C1727 1.387 . S
H1726 C1733 0.950 . S
C1727 C1725 1.387 . S
C1727 C1729 1.390 . S
C1727 H1731 0.950 . S
H1728 C1724 0.950 . S
C1729 C1727 1.390 . S
C1729 C1730 1.387 . S
C1729 H1732 0.950 . S
C1730 C1729 1.387 . S
C1730 C1733 1.387 . S
H1731 C1727 0.950 . S
H1732 C1729 0.950 . S
C1733 C1724 1.390 . S
C1733 H1726 0.950 . S
C1733 C1730 1.387 . S
C1734 C1735 1.387 . S
C1734 H1738 0.950 . S
C1734 C1743 1.390 . S
C1735 C1734 1.387 . S
C1735 C1737 1.387 . S
H1736 C1743 0.950 . S
C1737 C1735 1.387 . S
C1737 C1739 1.390 . S
C1737 H1741 0.950 . S
H1738 C1734 0.950 . S
C1739 C1737 1.390 . S
C1739 C1740 1.387 . S
C1739 H1742 0.950 . S
C1740 C1739 1.387 . S
C1740 C1743 1.387 . S
H1741 C1737 0.950 . S
H1742 C1739 0.950 . S
C1743 C1734 1.390 . S
C1743 H1736 0.950 . S
C1743 C1740 1.387 . S
C1744 C1745 1.387 . S
C1744 H1748 0.950 . S
C1744 C1753 1.390 . S
C1745 C1744 1.387 . S
C1745 C1747 1.387 . S
H1746 C1753 0.950 . S
C1747 C1745 1.387 . S
C1747 C1749 1.390 . S
C1747 H1751 0.950 . S
H1748 C1744 0.950 . S
C1749 C1747 1.390 . S
C1749 C1750 1.387 . S
C1749 H1752 0.950 . S
C1750 C1749 1.387 . S
C1750 C1753 1.387 . S
H1751 C1747 0.950 . S
H1752 C1749 0.950 . S
C1753 C1744 1.390 . S
C1753 H1746 0.950 . S
C1753 C1750 1.387 . S
C1754 C1755 1.387 . S
C1754 H1758 0.950 . S
C1754 C1763 1.390 . S
C1755 C1754 1.387 . S
C1755 C1757 1.387 . S
H1756 C1763 0.950 . S
C1757 C1755 1.387 . S
C1757 C1759 1.390 . S
C1757 H1761 0.950 . S
H1758 C1754 0.950 . S
C1759 C1757 1.390 . S
C1759 C1760 1.387 . S
C1759 H1762 0.950 . S
C1760 C1759 1.387 . S
C1760 C1763 1.387 . S
H1761 C1757 0.950 . S
H1762 C1759 0.950 . S
C1763 C1754 1.390 . S
C1763 H1756 0.950 . S
C1763 C1760 1.387 . S
C1764 C1765 1.387 . S
C1764 H1768 0.950 . S
C1764 C1773 1.390 . S
C1765 C1764 1.387 . S
C1765 C1767 1.387 . S
H1766 C1773 0.950 . S
C1767 C1765 1.387 . S
C1767 C1769 1.390 . S
C1767 H1771 0.950 . S
H1768 C1764 0.950 . S
C1769 C1767 1.390 . S
C1769 C1770 1.387 . S
C1769 H1772 0.950 . S
C1770 C1769 1.387 . S
C1770 C1773 1.387 . S
H1771 C1767 0.950 . S
H1772 C1769 0.950 . S
C1773 C1764 1.390 . S
C1773 H1766 0.950 . S
C1773 C1770 1.387 . S
C1774 C1775 1.387 . S
C1774 H1778 0.950 . S
C1774 C1783 1.390 . S
C1775 C1774 1.387 . S
C1775 C1777 1.387 . S
H1776 C1783 0.950 . S
C1777 C1775 1.387 . S
C1777 C1779 1.390 . S
C1777 H1781 0.950 . S
H1778 C1774 0.950 . S
C1779 C1777 1.390 . S
C1779 C1780 1.387 . S
C1779 H1782 0.950 . S
C1780 C1779 1.387 . S
C1780 C1783 1.387 . S
H1781 C1777 0.950 . S
H1782 C1779 0.950 . S
C1783 C1774 1.390 . S
C1783 H1776 0.950 . S
C1783 C1780 1.387 . S
C1784 C1785 1.387 . S
C1784 H1788 0.950 . S
C1784 C1793 1.390 . S
C1785 C1784 1.387 . S
C1785 C1787 1.387 . S
H1786 C1793 0.950 . S
C1787 C1785 1.387 . S
C1787 C1789 1.390 . S
C1787 H1791 0.950 . S
H1788 C1784 0.950 . S
C1789 C1787 1.390 . S
C1789 C1790 1.387 . S
C1789 H1792 0.950 . S
C1790 C1789 1.387 . S
C1790 C1793 1.387 . S
H1791 C1787 0.950 . S
H1792 C1789 0.950 . S
C1793 C1784 1.390 . S
C1793 H1786 0.950 . S
C1793 C1790 1.387 . S
C1794 C1795 1.387 . S
C1794 H1798 0.950 . S
C1794 C1803 1.390 . S
C1795 C1794 1.387 . S
C1795 C1797 1.387 . S
H1796 C1803 0.950 . S
C1797 C1795 1.387 . S
C1797 C1799 1.390 . S
C1797 H1801 0.950 . S
H1798 C1794 0.950 . S
C1799 C1797 1.390 . S
C1799 C1800 1.387 . S
C1799 H1802 0.950 . S
C1800 C1799 1.387 . S
C1800 C1803 1.387 . S
H1801 C1797 0.950 . S
H1802 C1799 0.950 . S
C1803 C1794 1.390 . S
C1803 H1796 0.950 . S
C1803 C1800 1.387 . S
C1804 C1805 1.387 1_554 S
C1804 H1808 0.950 . S
C1804 C1813 1.390 1_554 S
C1805 C1804 1.387 1_556 S
C1805 C1807 1.387 . S
H1806 C1813 0.946 1_554 S
C1807 C1805 1.387 . S
C1807 C1809 1.390 . S
C1807 H1811 0.950 . S
H1808 C1804 0.950 . S
C1809 C1807 1.390 . S
C1809 C1810 1.387 . S
C1809 H1812 0.950 . S
C1810 C1809 1.387 . S
C1810 C1813 1.387 . S
H1811 C1807 0.950 . S
H1812 C1809 0.950 . S
C1813 C1804 1.390 1_556 S
C1813 H1806 0.946 1_556 S
C1813 C1810 1.387 . S
C1814 C1815 1.387 1_655 S
C1814 H1818 0.950 1_655 S
C1814 C1823 1.390 . S
C1815 C1814 1.387 1_455 S
C1815 C1817 1.387 1_455 S
H1816 C1823 0.950 . S
C1817 C1815 1.387 1_655 S
C1817 C1819 1.390 . S
C1817 H1821 0.950 . S
H1818 C1814 0.950 1_455 S
C1819 C1817 1.390 . S
C1819 C1820 1.387 . S
C1819 H1822 0.950 . S
C1820 C1819 1.387 . S
C1820 C1823 1.387 . S
H1821 C1817 0.950 . S
H1822 C1819 0.950 . S
C1823 C1814 1.390 . S
C1823 H1816 0.950 . S
C1823 C1820 1.387 . S
C1824 C1825 1.387 . S
C1824 H1828 0.950 . S
C1824 C1833 1.390 . S
C1825 C1824 1.387 . S
C1825 C1827 1.387 . S
H1826 C1833 0.950 . S
C1827 C1825 1.387 . S
C1827 C1829 1.390 . S
C1827 H1831 0.950 . S
H1828 C1824 0.950 . S
C1829 C1827 1.390 . S
C1829 C1830 1.387 . S
C1829 H1832 0.950 . S
C1830 C1829 1.387 . S
C1830 C1833 1.387 . S
H1831 C1827 0.950 . S
H1832 C1829 0.950 . S
C1833 C1824 1.390 . S
C1833 H1826 0.950 . S
C1833 C1830 1.387 . S
C1834 C1835 1.387 . S
C1834 H1838 0.950 . S
C1834 C1843 1.390 . S
C1835 C1834 1.387 . S
C1835 C1837 1.387 . S
H1836 C1843 0.950 . S
C1837 C1835 1.387 . S
C1837 C1839 1.390 . S
C1837 H1841 0.950 . S
H1838 C1834 0.950 . S
C1839 C1837 1.390 . S
C1839 C1840 1.387 . S
C1839 H1842 0.950 . S
C1840 C1839 1.387 . S
C1840 C1843 1.387 . S
H1841 C1837 0.950 . S
H1842 C1839 0.950 . S
C1843 C1834 1.390 . S
C1843 H1836 0.950 . S
C1843 C1840 1.387 . S
C1844 C1845 1.387 . S
C1844 H1848 0.950 . S
C1844 C1853 1.390 . S
C1845 C1844 1.387 . S
C1845 C1847 1.387 . S
H1846 C1853 0.950 . S
C1847 C1845 1.387 . S
C1847 C1849 1.390 . S
C1847 H1851 0.950 . S
H1848 C1844 0.950 . S
C1849 C1847 1.390 . S
C1849 C1850 1.387 . S
C1849 H1852 0.950 . S
C1850 C1849 1.387 . S
C1850 C1853 1.387 . S
H1851 C1847 0.950 . S
H1852 C1849 0.950 . S
C1853 C1844 1.390 . S
C1853 H1846 0.950 . S
C1853 C1850 1.387 . S
C1854 C1855 1.387 . S
C1854 H1858 0.950 . S
C1854 C1863 1.390 . S
C1855 C1854 1.387 . S
C1855 C1857 1.387 . S
H1856 C1863 0.950 . S
C1857 C1855 1.387 . S
C1857 C1859 1.390 . S
C1857 H1861 0.950 . S
H1858 C1854 0.950 . S
C1859 C1857 1.390 . S
C1859 C1860 1.387 . S
C1859 H1862 0.950 . S
C1860 C1859 1.387 . S
C1860 C1863 1.387 . S
H1861 C1857 0.950 . S
H1862 C1859 0.950 . S
C1863 C1854 1.390 . S
C1863 H1856 0.950 . S
C1863 C1860 1.387 . S
C1864 C1865 1.387 . S
C1864 H1868 0.950 . S
C1864 C1873 1.390 . S
C1865 C1864 1.387 . S
C1865 C1867 1.387 . S
H1866 C1873 0.950 . S
C1867 C1865 1.387 . S
C1867 C1869 1.390 . S
C1867 H1871 0.950 . S
H1868 C1864 0.950 . S
C1869 C1867 1.390 . S
C1869 C1870 1.387 . S
C1869 H1872 0.950 . S
C1870 C1869 1.387 . S
C1870 C1873 1.387 . S
H1871 C1867 0.950 . S
H1872 C1869 0.950 . S
C1873 C1864 1.390 . S
C1873 H1866 0.950 . S
C1873 C1870 1.387 . S
C1874 C1875 1.387 . S
C1874 H1878 0.950 . S
C1874 C1883 1.390 . S
C1875 C1874 1.387 . S
C1875 C1877 1.387 . S
H1876 C1883 0.950 . S
C1877 C1875 1.387 . S
C1877 C1879 1.390 . S
C1877 H1881 0.950 . S
H1878 C1874 0.950 . S
C1879 C1877 1.390 . S
C1879 C1880 1.387 . S
C1879 H1882 0.950 . S
C1880 C1879 1.387 . S
C1880 C1883 1.387 . S
H1881 C1877 0.950 . S
H1882 C1879 0.950 . S
C1883 C1874 1.390 . S
C1883 H1876 0.950 . S
C1883 C1880 1.387 . S
C1884 C1885 1.387 . S
C1884 H1888 0.950 . S
C1884 C1893 1.390 . S
C1885 C1884 1.387 . S
C1885 C1887 1.387 . S
H1886 C1893 0.950 . S
C1887 C1885 1.387 . S
C1887 C1889 1.390 . S
C1887 H1891 0.950 . S
H1888 C1884 0.950 . S
C1889 C1887 1.390 . S
C1889 C1890 1.387 . S
C1889 H1892 0.950 . S
C1890 C1889 1.387 . S
C1890 C1893 1.387 . S
H1891 C1887 0.950 . S
H1892 C1889 0.950 . S
C1893 C1884 1.390 . S
C1893 H1886 0.950 . S
C1893 C1890 1.387 . S
C1894 C1895 1.387 . S
C1894 H1898 0.950 . S
C1894 C1903 1.390 . S
C1895 C1894 1.387 . S
C1895 C1897 1.387 . S
H1896 C1903 0.950 . S
C1897 C1895 1.387 . S
C1897 C1899 1.390 . S
C1897 H1901 0.950 . S
H1898 C1894 0.950 . S
C1899 C1897 1.390 . S
C1899 C1900 1.387 . S
C1899 H1902 0.950 . S
C1900 C1899 1.387 . S
C1900 C1903 1.387 . S
H1901 C1897 0.950 . S
H1902 C1899 0.950 . S
C1903 C1894 1.390 . S
C1903 H1896 0.950 . S
C1903 C1900 1.387 . S
C1904 C1905 1.387 . S
C1904 H1908 0.950 . S
C1904 C1913 1.390 . S
C1905 C1904 1.387 . S
C1905 C1907 1.387 . S
H1906 C1913 0.950 . S
C1907 C1905 1.387 . S
C1907 C1909 1.390 . S
C1907 H1911 0.950 . S
H1908 C1904 0.950 . S
C1909 C1907 1.390 . S
C1909 C1910 1.387 . S
C1909 H1912 0.950 . S
C1910 C1909 1.387 . S
C1910 C1913 1.387 . S
H1911 C1907 0.950 . S
H1912 C1909 0.950 . S
C1913 C1904 1.390 . S
C1913 H1906 0.950 . S
C1913 C1910 1.387 . S
C1914 C1915 1.387 . S
C1914 H1918 0.950 . S
C1914 C1923 1.390 . S
C1915 C1914 1.387 . S
C1915 C1917 1.387 . S
H1916 C1923 0.950 . S
C1917 C1915 1.387 . S
C1917 C1919 1.390 . S
C1917 H1921 0.950 . S
H1918 C1914 0.950 . S
C1919 C1917 1.390 . S
C1919 C1920 1.387 . S
C1919 H1922 0.950 . S
C1920 C1919 1.387 . S
C1920 C1923 1.387 . S
H1921 C1917 0.950 . S
H1922 C1919 0.950 . S
C1923 C1914 1.390 . S
C1923 H1916 0.950 . S
C1923 C1920 1.387 . S
C1924 C1925 1.387 . S
C1924 H1928 0.950 . S
C1924 C1933 1.390 . S
C1925 C1924 1.387 . S
C1925 C1927 1.387 . S
H1926 C1933 0.950 . S
C1927 C1925 1.387 . S
C1927 C1929 1.390 . S
C1927 H1931 0.950 . S
H1928 C1924 0.950 . S
C1929 C1927 1.390 . S
C1929 C1930 1.387 . S
C1929 H1932 0.950 . S
C1930 C1929 1.387 . S
C1930 C1933 1.387 . S
H1931 C1927 0.950 . S
H1932 C1929 0.950 . S
C1933 C1924 1.390 . S
C1933 H1926 0.950 . S
C1933 C1930 1.387 . S
C1934 C1935 1.387 . S
C1934 H1938 0.950 . S
C1934 C1943 1.390 . S
C1935 C1934 1.387 . S
C1935 C1937 1.387 . S
H1936 C1943 0.950 . S
C1937 C1935 1.387 . S
C1937 C1939 1.390 . S
C1937 H1941 0.950 . S
H1938 C1934 0.950 . S
C1939 C1937 1.390 . S
C1939 C1940 1.387 . S
C1939 H1942 0.950 . S
C1940 C1939 1.387 . S
C1940 C1943 1.387 . S
H1941 C1937 0.950 . S
H1942 C1939 0.950 . S
C1943 C1934 1.390 . S
C1943 H1936 0.950 . S
C1943 C1940 1.387 . S
C1944 C1945 1.387 . S
C1944 H1948 0.950 . S
C1944 C1953 1.390 . S
C1945 C1944 1.387 . S
C1945 C1947 1.387 . S
H1946 C1953 0.950 . S
C1947 C1945 1.387 . S
C1947 C1949 1.390 . S
C1947 H1951 0.950 . S
H1948 C1944 0.950 . S
C1949 C1947 1.390 . S
C1949 C1950 1.387 . S
C1949 H1952 0.950 . S
C1950 C1949 1.387 . S
C1950 C1953 1.387 . S
H1951 C1947 0.950 . S
H1952 C1949 0.950 . S
C1953 C1944 1.390 . S
C1953 H1946 0.950 . S
C1953 C1950 1.387 . S
C1954 C1955 1.387 . S
C1954 H1958 0.950 . S
C1954 C1963 1.390 . S
C1955 C1954 1.387 . S
C1955 C1957 1.387 . S
H1956 C1963 0.950 . S
C1957 C1955 1.387 . S
C1957 C1959 1.390 . S
C1957 H1961 0.950 . S
H1958 C1954 0.950 . S
C1959 C1957 1.390 . S
C1959 C1960 1.387 . S
C1959 H1962 0.950 . S
C1960 C1959 1.387 . S
C1960 C1963 1.387 . S
H1961 C1957 0.950 . S
H1962 C1959 0.950 . S
C1963 C1954 1.390 . S
C1963 H1956 0.950 . S
C1963 C1960 1.387 . S
C1964 C1965 1.387 . S
C1964 H1968 0.950 . S
C1964 C1973 1.390 . S
C1965 C1964 1.387 . S
C1965 C1967 1.387 . S
H1966 C1973 0.950 . S
C1967 C1965 1.387 . S
C1967 C1969 1.390 . S
C1967 H1971 0.950 . S
H1968 C1964 0.950 . S
C1969 C1967 1.390 . S
C1969 C1970 1.387 . S
C1969 H1972 0.950 . S
C1970 C1969 1.387 . S
C1970 C1973 1.387 . S
H1971 C1967 0.950 . S
H1972 C1969 0.950 . S
C1973 C1964 1.390 . S
C1973 H1966 0.950 . S
C1973 C1970 1.387 . S
C1974 C1975 1.387 . S
C1974 H1978 0.950 . S
C1974 C1983 1.390 . S
C1975 C1974 1.387 . S
C1975 C1977 1.387 . S
H1976 C1983 0.950 . S
C1977 C1975 1.387 . S
C1977 C1979 1.390 . S
C1977 H1981 0.950 . S
H1978 C1974 0.950 . S
C1979 C1977 1.390 . S
C1979 C1980 1.387 . S
C1979 H1982 0.950 . S
C1980 C1979 1.387 . S
C1980 C1983 1.387 . S
H1981 C1977 0.950 . S
H1982 C1979 0.950 . S
C1983 C1974 1.390 . S
C1983 H1976 0.950 . S
C1983 C1980 1.387 . S
C1984 C1985 1.387 . S
C1984 H1988 0.950 . S
C1984 C1993 1.390 . S
C1985 C1984 1.387 . S
C1985 C1987 1.387 . S
H1986 C1993 0.950 . S
C1987 C1985 1.387 . S
C1987 C1989 1.390 . S
C1987 H1991 0.950 . S
H1988 C1984 0.950 . S
C1989 C1987 1.390 . S
C1989 C1990 1.387 . S
C1989 H1992 0.950 . S
C1990 C1989 1.387 . S
C1990 C1993 1.387 . S
H1991 C1987 0.950 . S
H1992 C1989 0.950 . S
C1993 C1984 1.390 . S
C1993 H1986 0.950 . S
C1993 C1990 1.387 . S
C1994 C1995 1.387 . S
C1994 H1998 0.950 . S
C1994 C2003 1.390 . S
C1995 C1994 1.387 . S
C1995 C1997 1.387 . S
H1996 C2003 0.950 . S
C1997 C1995 1.387 . S
C1997 C1999 1.390 . S
C1997 H2001 0.950 . S
H1998 C1994 0.950 . S
C1999 C1997 1.390 . S
C1999 C2000 1.387 . S
C1999 H2002 0.950 . S
C2000 C1999 1.387 . S
C2000 C2003 1.387 . S
H2001 C1997 0.950 . S
H2002 C1999 0.950 . S
C2003 C1994 1.390 . S
C2003 H1996 0.950 . S
C2003 C2000 1.387 . S
C2004 C2005 1.387 . S
C2004 H2008 0.950 . S
C2004 C2013 1.390 . S
C2005 C2004 1.387 . S
C2005 C2007 1.387 . S
H2006 C2013 0.950 . S
C2007 C2005 1.387 . S
C2007 C2009 1.390 . S
C2007 H2011 0.950 . S
H2008 C2004 0.950 . S
C2009 C2007 1.390 . S
C2009 C2010 1.387 . S
C2009 H2012 0.950 . S
C2010 C2009 1.387 . S
C2010 C2013 1.387 . S
H2011 C2007 0.950 . S
H2012 C2009 0.950 . S
C2013 C2004 1.390 . S
C2013 H2006 0.950 . S
C2013 C2010 1.387 . S
C2014 C2015 1.387 . S
C2014 H2018 0.950 . S
C2014 C2023 1.390 . S
C2015 C2014 1.387 . S
C2015 C2017 1.387 . S
H2016 C2023 0.950 . S
C2017 C2015 1.387 . S
C2017 C2019 1.390 . S
C2017 H2021 0.950 . S
H2018 C2014 0.950 . S
C2019 C2017 1.390 . S
C2019 C2020 1.387 . S
C2019 H2022 0.950 . S
C2020 C2019 1.387 . S
C2020 C2023 1.387 . S
H2021 C2017 0.950 . S
H2022 C2019 0.950 . S
C2023 C2014 1.390 . S
C2023 H2016 0.950 . S
C2023 C2020 1.387 . S
C2024 C2025 1.387 . S
C2024 H2028 0.950 . S
C2024 C2033 1.390 . S
C2025 C2024 1.387 . S
C2025 C2027 1.387 . S
H2026 C2033 0.950 . S
C2027 C2025 1.387 . S
C2027 C2029 1.390 . S
C2027 H2031 0.950 . S
H2028 C2024 0.950 . S
C2029 C2027 1.390 . S
C2029 C2030 1.387 . S
C2029 H2032 0.950 . S
C2030 C2029 1.387 . S
C2030 C2033 1.387 . S
H2031 C2027 0.950 . S
H2032 C2029 0.950 . S
C2033 C2024 1.390 . S
C2033 H2026 0.950 . S
C2033 C2030 1.387 . S
C2034 C2035 1.387 . S
C2034 H2038 0.950 . S
C2034 C2043 1.390 . S
C2035 C2034 1.387 . S
C2035 C2037 1.387 . S
H2036 C2043 0.950 . S
C2037 C2035 1.387 . S
C2037 C2039 1.390 . S
C2037 H2041 0.950 . S
H2038 C2034 0.950 . S
C2039 C2037 1.390 . S
C2039 C2040 1.387 . S
C2039 H2042 0.950 . S
C2040 C2039 1.387 . S
C2040 C2043 1.387 . S
H2041 C2037 0.950 . S
H2042 C2039 0.950 . S
C2043 C2034 1.390 . S
C2043 H2036 0.950 . S
C2043 C2040 1.387 . S
C2044 C2045 1.387 . S
C2044 H2048 0.950 . S
C2044 C2053 1.390 . S
C2045 C2044 1.387 . S
C2045 C2047 1.387 . S
H2046 C2053 0.950 . S
C2047 C2045 1.387 . S
C2047 C2049 1.390 . S
C2047 H2051 0.950 . S
H2048 C2044 0.950 . S
C2049 C2047 1.390 . S
C2049 C2050 1.387 . S
C2049 H2052 0.950 . S
C2050 C2049 1.387 . S
C2050 C2053 1.387 . S
H2051 C2047 0.950 . S
H2052 C2049 0.950 . S
C2053 C2044 1.390 . S
C2053 H2046 0.950 . S
C2053 C2050 1.387 . S
C2054 C2055 1.387 . S
C2054 H2058 0.950 . S
C2054 C2063 1.390 . S
C2055 C2054 1.387 . S
C2055 C2057 1.387 . S
H2056 C2063 0.950 . S
C2057 C2055 1.387 . S
C2057 C2059 1.390 . S
C2057 H2061 0.950 . S
H2058 C2054 0.950 . S
C2059 C2057 1.390 . S
C2059 C2060 1.387 . S
C2059 H2062 0.950 . S
C2060 C2059 1.387 . S
C2060 C2063 1.387 . S
H2061 C2057 0.950 . S
H2062 C2059 0.950 . S
C2063 C2054 1.390 . S
C2063 H2056 0.950 . S
C2063 C2060 1.387 . S
C1105 N219 1.938 . S
C1110 N12 1.939 . S
C1115 N242 1.937 . S
C1120 N35 1.939 . S
C1125 N265 1.939 . S
C1130 N58 1.938 . S
C1135 N196 1.937 . S
C1140 N81 1.938 . S
C1145 N104 1.937 . S
C1150 N357 1.937 . S
C1155 N127 1.939 . S
C1160 N288 1.938 . S
C1165 N150 1.937 . S
C1170 N311 1.937 . S
C1175 N334 1.938 . S
C1180 N173 1.937 . S
C1185 N380 1.937 . S
C1190 N426 1.938 . S
C1195 N403 1.937 . S
C1200 N1070 1.938 . S
C1205 N449 1.939 . S
C1210 N1093 1.937 . S
C1215 N472 1.937 . S
C1220 N1047 1.938 . S
C1225 N495 1.939 . S
C1230 N1024 1.937 . S
C1235 N955 1.939 . S
C1240 N518 1.937 . S
C1245 N541 1.938 . S
C1250 N1001 1.937 . S
C1255 N771 1.939 . S
C1260 N564 1.937 . S
C1265 N794 1.939 . S
C1270 N587 1.939 . S
C1275 N817 1.937 . S
C1280 N610 1.937 . S
C1285 N748 1.937 . S
C1290 N633 1.939 . S
C1295 N909 1.937 . S
C1300 N656 1.937 . S
C1305 N840 1.938 . S
C1310 N679 1.939 . S
C1315 N702 1.938 . S
C1320 N863 1.937 . S
C1325 N725 1.937 . S
C1330 N886 1.938 . S
C1335 N932 1.936 . S
C1340 N978 1.938 . S
C1345 C384 1.190 . S
C1350 N2 1.184 . S
C1355 C1097 1.188 1_565 S
C1360 N25 1.180 . S
C1365 N48 1.182 . S
C1370 C499 1.190 . S
C1375 C1074 1.189 1_545 S
C1380 N71 1.181 . S
C1385 N94 1.180 . S
C1390 C959 1.188 . S
C1395 C982 1.190 1_565 S
C1400 N117 1.182 . S
C1405 N140 1.180 . S
C1410 C1005 1.188 . S
C1415 C476 1.190 1_545 S
C1420 N163 1.182 . S
C1425 N186 1.180 . S
C1430 C16 1.187 . S
C1435 C39 1.188 1_455 S
C1440 N209 1.180 . S
C1445 N232 1.182 . S
C1450 C62 1.190 . S
C1455 C85 1.189 . S
C1460 N255 1.181 . S
C1465 N278 1.184 . S
C1470 C108 1.190 . S
C1475 C131 1.190 . S
C1480 N301 1.184 . S
C1485 N324 1.183 . S
C1490 C154 1.188 . S
C1495 N347 1.181 . S
C1500 C177 1.187 1_455 S
C1505 N370 1.181 . S
C1510 C200 1.189 . S
C1515 N393 1.181 . S
C1520 C844 1.187 . S
C1525 C867 1.191 1_554 S
C1530 N416 1.184 . S
C1535 C890 1.187 . S
C1540 N439 1.180 . S
C1545 C361 1.187 1_554 S
C1550 N462 1.180 . S
C1555 N485 1.183 . S
C1560 C246 1.188 . S
C1565 C821 1.187 . S
C1570 N508 1.180 . S
C1575 N531 1.180 . S
C1580 C775 1.187 1_556 S
C1585 N554 1.184 . S
C1590 C936 1.191 . S
C1595 N577 1.180 . S
C1600 C545 1.187 . S
C1605 N600 1.183 . S
C1610 C1051 1.190 . S
C1615 N623 1.182 . S
C1620 C522 1.190 . S
C1625 N646 1.184 . S
C1630 C407 1.191 . S
C1635 N669 1.184 . S
C1640 C430 1.189 . S
C1645 C453 1.191 . S
C1650 N692 1.183 . S
C1655 C1028 1.191 . S
C1660 N715 1.184 . S
C1665 C568 1.187 . S
C1670 N738 1.180 . S
C1675 C591 1.187 . S
C1680 N761 1.180 . S
C1685 N784 1.184 . S
C1690 C614 1.191 . S
C1695 C637 1.187 1_655 S
C1700 N807 1.181 . S
C1705 N830 1.180 . S
C1710 C660 1.187 . S
C1715 N853 1.180 . S
C1720 C683 1.187 1_655 S
C1725 N876 1.184 . S
C1730 C706 1.191 . S
C1735 C729 1.187 . S
C1740 N899 1.180 . S
C1745 N922 1.183 . S
C1750 C752 1.190 . S
C1755 N945 1.182 . S
C1760 C292 1.190 . S
C1765 C315 1.191 . S
C1770 N968 1.184 . S
C1775 N991 1.181 . S
C1780 C338 1.187 . S
C1785 N1014 1.180 . S
C1790 C913 1.187 . S
C1795 C798 1.187 . S
C1800 N1037 1.181 . S
C1805 C269 1.191 1_556 S
C1810 N1060 1.184 . S
C1815 C223 1.191 . S
C1820 N1083 1.184 . S
C1825 C513 1.482 . S
C1830 C7 1.483 . S
C1835 C30 1.483 . S
C1840 C927 1.482 . S
C1845 C53 1.483 . S
C1850 C536 1.483 . S
C1855 C1042 1.483 . S
C1860 C76 1.482 . S
C1865 C99 1.479 . S
C1870 C421 1.479 . S
C1875 C444 1.483 . S
C1880 C122 1.483 . S
C1885 C1019 1.479 . S
C1890 C145 1.479 . S
C1895 C168 1.483 . S
C1900 C398 1.482 . S
C1905 C306 1.480 . S
C1910 C191 1.481 . S
C1915 C214 1.479 . S
C1920 C329 1.479 . S
C1925 C352 1.479 . S
C1930 C237 1.479 . S
C1935 C260 1.479 . S
C1940 C283 1.479 . S
C1945 C582 1.479 . S
C1950 C375 1.479 . S
C1955 C467 1.482 . S
C1960 C697 1.481 . S
C1965 C490 1.479 . S
C1970 C628 1.479 . S
C1975 C1065 1.480 . S
C1980 C559 1.479 . S
C1985 C605 1.483 . S
C1990 C1088 1.482 . S
C1995 C651 1.482 . S
C2000 C973 1.481 . S
C2005 C674 1.483 . S
C2010 C996 1.483 . S
C2015 C950 1.483 . S
C2020 C720 1.483 . S
C2025 C858 1.479 . S
C2030 C743 1.479 . S
C2035 C766 1.479 . S
C2040 C881 1.479 . S
C2045 C789 1.479 . S
C2050 C904 1.480 . S
C2055 C835 1.482 . S
C2060 C812 1.483 . S
