# Generated by pormake.
# Topology sva, (7)-cn, num edge types: 1
# Building blocks:
#     Node 0, Type 0, BuildingBlock: HICVOG_clean_sbu_0, # of connection points: 7
#     Node 1, Type 0, BuildingBlock: HICVOG_clean_sbu_0, # of connection points: 7
#     Node 2, Type 0, BuildingBlock: HICVOG_clean_sbu_0, # of connection points: 7
#     Node 3, Type 0, BuildingBlock: HICVOG_clean_sbu_0, # of connection points: 7
#     Node 4, Type 0, BuildingBlock: HICVOG_clean_sbu_0, # of connection points: 7
#     Node 5, Type 0, BuildingBlock: HICVOG_clean_sbu_0, # of connection points: 7
#     Node 6, Type 0, BuildingBlock: HICVOG_clean_sbu_0, # of connection points: 7
#     Node 7, Type 0, BuildingBlock: HICVOG_clean_sbu_0, # of connection points: 7
#     Edge 8, Type (0, 0), BuildingBlock: OJICUG_clean_linker_0, # of connection points: 2
#     Edge 9, Type (0, 0), BuildingBlock: OJICUG_clean_linker_0, # of connection points: 2
#     Edge 10, Type (0, 0), BuildingBlock: OJICUG_clean_linker_0, # of connection points: 2
#     Edge 11, Type (0, 0), BuildingBlock: OJICUG_clean_linker_0, # of connection points: 2
#     Edge 12, Type (0, 0), BuildingBlock: OJICUG_clean_linker_0, # of connection points: 2
#     Edge 13, Type (0, 0), BuildingBlock: OJICUG_clean_linker_0, # of connection points: 2
#     Edge 14, Type (0, 0), BuildingBlock: OJICUG_clean_linker_0, # of connection points: 2
#     Edge 15, Type (0, 0), BuildingBlock: OJICUG_clean_linker_0, # of connection points: 2
#     Edge 16, Type (0, 0), BuildingBlock: OJICUG_clean_linker_0, # of connection points: 2
#     Edge 17, Type (0, 0), BuildingBlock: OJICUG_clean_linker_0, # of connection points: 2
#     Edge 18, Type (0, 0), BuildingBlock: OJICUG_clean_linker_0, # of connection points: 2
#     Edge 19, Type (0, 0), BuildingBlock: OJICUG_clean_linker_0, # of connection points: 2
#     Edge 20, Type (0, 0), BuildingBlock: OJICUG_clean_linker_0, # of connection points: 2
#     Edge 21, Type (0, 0), BuildingBlock: OJICUG_clean_linker_0, # of connection points: 2
#     Edge 22, Type (0, 0), BuildingBlock: OJICUG_clean_linker_0, # of connection points: 2
#     Edge 23, Type (0, 0), BuildingBlock: OJICUG_clean_linker_0, # of connection points: 2
#     Edge 24, Type (0, 0), BuildingBlock: OJICUG_clean_linker_0, # of connection points: 2
#     Edge 25, Type (0, 0), BuildingBlock: OJICUG_clean_linker_0, # of connection points: 2
#     Edge 26, Type (0, 0), BuildingBlock: OJICUG_clean_linker_0, # of connection points: 2
#     Edge 27, Type (0, 0), BuildingBlock: OJICUG_clean_linker_0, # of connection points: 2
#     Edge 28, Type (0, 0), BuildingBlock: OJICUG_clean_linker_0, # of connection points: 2
#     Edge 29, Type (0, 0), BuildingBlock: OJICUG_clean_linker_0, # of connection points: 2
#     Edge 30, Type (0, 0), BuildingBlock: OJICUG_clean_linker_0, # of connection points: 2
#     Edge 31, Type (0, 0), BuildingBlock: OJICUG_clean_linker_0, # of connection points: 2
#     Edge 32, Type (0, 0), BuildingBlock: OJICUG_clean_linker_0, # of connection points: 2
#     Edge 33, Type (0, 0), BuildingBlock: OJICUG_clean_linker_0, # of connection points: 2
#     Edge 34, Type (0, 0), BuildingBlock: OJICUG_clean_linker_0, # of connection points: 2
#     Edge 35, Type (0, 0), BuildingBlock: OJICUG_clean_linker_0, # of connection points: 2
# Relax obj value: 0.250
# Max RMSD: 0.277
# Mean RMSD: 0.277
data_MOF--net-sva--node1-HICVOG_clean_sbu_0--edge1-OJICUG_clean_linker_0
_symmetry_space_group_name_H-M    P1
_symmetry_Int_Tables_number       1
_symmetry_cell_setting            triclinic
loop_
_symmetry_equiv_pos_as_xyz
'x, y, z'
_cell_length_a     29.322079
_cell_length_b     29.310756
_cell_length_c     16.456977
_cell_angle_alpha  90.127478
_cell_angle_beta   90.304374
_cell_angle_gamma 89.997637
loop_
_atom_site_label
_atom_site_type_symbol
_atom_site_fract_x
_atom_site_fract_y
_atom_site_fract_z
_atom_type_partial_charge
Zn0 Zn 0.08714 0.21284 0.87544 0.0
C1 C 0.14067 0.27813 0.06903 0.0
N2 N 0.17858 0.25528 0.04844 0.0
C3 C 0.16429 0.22842 0.98751 0.0
N4 N 0.11974 0.23562 0.96989 0.0
N5 N 0.10423 0.26576 0.02327 0.0
C6 C 0.97728 0.32497 0.13235 0.0
O7 O 0.96013 0.28506 0.1517 0.0
O8 O 0.09857 0.1464 0.85832 0.0
Zn9 Zn 0.04192 0.26454 0.06788 0.0
N10 N 0.10018 0.2507 0.78208 0.0
C11 C 0.12772 0.32079 0.7292 0.0
C12 C 0.11939 0.29227 0.79498 0.0
C13 C 0.08885 0.23633 0.70602 0.0
N14 N 0.11603 0.30675 0.65328 0.0
C15 C 0.09649 0.26528 0.63904 0.0
O16 O 0.99224 0.23412 -0.00013 0.0
C17 C 0.98694 0.21354 0.93249 0.0
O18 O 1.02012 0.2071 0.88509 0.0
H19 H 0.12798 0.30325 0.85593 0.0
H20 H 0.07445 0.20264 0.69896 0.0
C21 C 0.05351 0.24312 0.23987 0.0
C22 C 0.05382 0.21296 0.30652 0.0
C23 C 0.03622 0.15163 0.21711 0.0
C24 C 0.03604 0.18152 0.15161 0.0
N25 N 0.04464 0.22656 0.16405 0.0
N26 N 0.04497 0.16798 0.29271 0.0
H27 H 0.05917 0.27931 0.24793 0.0
C28 C 0.09339 0.12471 0.92432 0.0
O29 O 0.09641 0.1472 -0.00685 0.0
O30 O 1.01579 0.3264 0.09675 0.0
H31 H 1.02862 0.16898 0.09119 0.0
H32 H 0.14308 0.35397 0.73835 0.0
H33 H 1.0293 0.11571 0.20806 0.0
Zn34 Zn 0.86909 0.58801 0.12599 0.0
C35 C 0.80266 0.6407 0.31728 0.0
N36 N 0.82517 0.67892 0.29729 0.0
C37 C 0.85271 0.66481 0.23757 0.0
N38 N 0.84629 0.62011 0.22037 0.0
N39 N 0.81601 0.60426 0.27288 0.0
C40 C 0.75928 0.47667 0.38493 0.0
O41 O 0.79946 0.46027 0.40513 0.0
O42 O 0.93547 0.59958 0.10819 0.0
Zn43 Zn 0.81839 0.54238 0.31921 0.0
N44 N 0.83098 0.60115 0.03247 0.0
C45 C 0.76085 0.6287 0.97866 0.0
C46 C 0.78926 0.62 0.04488 0.0
C47 C 0.84558 0.59057 0.95649 0.0
N48 N 0.77512 0.61771 0.90279 0.0
C49 C 0.81673 0.59853 0.8891 0.0
O50 O 0.84981 0.49338 0.25238 0.0
C51 C 0.86999 0.48816 0.18492 0.0
O52 O 0.87533 0.52112 0.13647 0.0
H53 H 0.77812 0.62808 0.10576 0.0
H54 H 0.8794 0.57652 0.94976 0.0
C55 C 0.83992 0.55622 0.49077 0.0
C56 C 0.87001 0.55685 0.55786 0.0
C57 C 0.93129 0.53811 0.47008 0.0
C58 C 0.90142 0.53735 0.40419 0.0
N59 N 0.85644 0.54635 0.41559 0.0
N60 N 0.91493 0.54762 0.5451 0.0
H61 H 0.80378 0.56225 0.49811 0.0
C62 C 0.95749 0.59272 0.17365 0.0
O63 O 0.93526 0.59398 0.24261 0.0
O64 O 0.75721 0.51496 0.34833 0.0
H65 H 0.91395 0.52907 0.34435 0.0
H66 H 0.72757 0.64381 0.98743 0.0
H67 H 0.96715 0.53088 0.46185 0.0
Zn68 Zn 0.49748 0.36729 0.37485 0.0
C69 C 0.44346 0.30552 0.56989 0.0
N70 N 0.40625 0.32961 0.54898 0.0
C71 C 0.42085 0.35471 0.48645 0.0
N72 N 0.46484 0.34538 0.46846 0.0
N73 N 0.47976 0.31532 0.52266 0.0
C74 C 0.59553 0.22891 0.54976 0.0
O75 O 0.60381 0.24647 0.47795 0.0
O76 O 0.48335 0.43294 0.35355 0.0
Zn77 Zn 0.54282 0.31246 0.56647 0.0
N78 N 0.48717 0.32737 0.28255 0.0
C79 C 0.46357 0.25516 0.23155 0.0
C80 C 0.47001 0.28507 0.29644 0.0
C81 C 0.49827 0.3411 0.20631 0.0
N82 N 0.47503 0.26861 0.15548 0.0
C83 C 0.49255 0.31078 0.14026 0.0
O84 O 0.59321 0.34416 0.50196 0.0
C85 C 0.59728 0.36753 0.4374 0.0
O86 O 0.5635 0.37496 0.39134 0.0
H87 H 0.46155 0.27462 0.3575 0.0
H88 H 0.51099 0.37537 0.19829 0.0
C89 C 0.53398 0.33204 0.74038 0.0
C90 C 0.53348 0.36201 0.80763 0.0
C91 C 0.54806 0.42413 0.71897 0.0
C92 C 0.5482 0.3945 0.65292 0.0
N93 N 0.5413 0.34914 0.66464 0.0
N94 N 0.54077 0.40727 0.79439 0.0
H95 H 0.52924 0.2957 0.74782 0.0
C96 C 0.48721 0.45623 0.4184 0.0
O97 O 0.49045 0.43471 0.48804 0.0
O98 O 0.56705 0.24899 0.59604 0.0
H99 H 0.55405 0.40752 0.59253 0.0
H100 H 0.44984 0.22139 0.24152 0.0
H101 H 0.55365 0.46028 0.71046 0.0
Zn102 Zn 0.75926 0.04232 0.82229 0.0
C103 C 0.72267 0.91972 0.74565 0.0
N104 N 0.74682 0.90639 0.81081 0.0
C105 C 0.77057 0.94371 0.8314 0.0
N106 N 0.76132 0.97906 0.78172 0.0
N107 N 0.73289 0.9634 0.72522 0.0
C108 C 0.63216 1.01557 0.67606 0.0
O109 O 0.65365 1.01102 0.74566 0.0
O110 O 0.82106 0.07244 0.83979 0.0
Zn111 Zn 0.71945 0.99747 0.62672 0.0
N112 N 0.72571 0.04292 0.92427 0.0
C113 C 0.65595 0.06251 0.9891 0.0
C114 C 0.68207 0.05852 0.9193 0.0
C115 C 0.74435 1.03095 -0.00276 0.0
N116 N 0.67442 0.05078 0.06163 0.0
C117 C 0.71791 0.03495 0.06826 0.0
O118 O 0.74016 0.06319 0.62776 0.0
C119 C 0.71954 0.09056 0.67488 0.0
O120 O 0.72171 0.08445 0.75102 0.0
H121 H 0.6676 0.06857 0.86175 0.0
H122 H 0.77945 1.01971 -4e-05 0.0
C123 C 0.73953 0.98786 0.46083 0.0
C124 C 0.76326 0.97224 0.39196 0.0
C125 C 0.80256 0.91901 0.47608 0.0
C126 C 0.77958 0.93546 0.54399 0.0
N127 N 0.74856 0.96947 0.5347 0.0
N128 N 0.79403 0.93781 0.40218 0.0
H129 H 0.71417 1.01444 0.45762 0.0
C130 C 0.82056 0.11094 0.87612 0.0
O131 O 0.78133 0.12741 0.90089 0.0
O132 O 0.65274 1.00551 0.61092 0.0
H133 H 0.78681 0.92171 0.6036 0.0
H134 H 0.62129 0.07505 0.9858 0.0
H135 H 0.82737 0.8919 0.48209 0.0
Zn136 Zn 0.58325 0.72246 0.36914 0.0
C137 C 0.63851 0.77629 0.57042 0.0
N138 N 0.67563 0.75206 0.55072 0.0
C139 C 0.66135 0.72668 0.48757 0.0
N140 N 0.61751 0.73664 0.46756 0.0
N141 N 0.60243 0.76601 0.52263 0.0
C142 C 0.47157 0.82227 0.62276 0.0
O143 O 0.45599 0.78278 0.64811 0.0
O144 O 0.57597 0.6553 0.35359 0.0
Zn145 Zn 0.54001 0.76235 0.56519 0.0
N146 N 0.61098 0.75233 0.27747 0.0
C147 C 0.66109 0.80753 0.22153 0.0
C148 C 0.64391 0.78437 0.28859 0.0
C149 C 0.59434 0.74251 0.2024 0.0
N150 N 0.64404 0.79821 0.14643 0.0
C151 C 0.61067 0.76648 0.13441 0.0
O152 O 0.49747 0.72482 0.49433 0.0
C153 C 0.49063 0.72217 0.41834 0.0
O154 O 0.51745 0.74254 0.37016 0.0
H155 H 0.65638 0.79217 0.34898 0.0
H156 H 0.56872 0.71621 0.19712 0.0
C157 C 0.55451 0.74599 0.73897 0.0
C158 C 0.55106 0.7193 0.80976 0.0
C159 C 0.52217 0.65784 0.73103 0.0
C160 C 0.52535 0.6843 0.66136 0.0
N161 N 0.54131 0.72784 0.66625 0.0
N162 N 0.53483 0.67595 0.80342 0.0
H163 H 0.56605 0.78101 0.74187 0.0
C164 C 0.56645 0.63459 0.41888 0.0
O165 O 0.57084 0.65632 0.48823 0.0
O166 O 0.50937 0.82337 0.58484 0.0
H167 H 0.51425 0.67021 0.60407 0.0
H168 H 0.68741 0.83307 0.22912 0.0
H169 H 0.50931 0.62328 0.72779 0.0
Zn170 Zn 0.36794 0.08792 0.62399 0.0
C171 C 0.30605 0.14062 0.82067 0.0
N172 N 0.32895 0.17846 0.79982 0.0
C173 C 0.35398 0.16445 0.73673 0.0
N174 N 0.34568 0.12021 0.71828 0.0
N175 N 0.3166 0.10456 0.77299 0.0
C176 C 0.25614 0.97755 0.88009 0.0
O177 O 0.29597 0.96003 0.89956 0.0
O178 O 0.43357 0.10223 0.60591 0.0
Zn179 Zn 0.31711 0.04195 0.8166 0.0
N180 N 0.32902 0.09972 0.531 0.0
C181 C 0.25809 0.12536 0.47762 0.0
C182 C 0.28706 0.11797 0.54358 0.0
C183 C 0.34334 0.08848 0.45515 0.0
N184 N 0.2721 0.11373 0.40188 0.0
C185 C 0.31396 0.09513 0.38804 0.0
O186 O 0.34769 0.9925 0.74884 0.0
C187 C 0.36866 0.98773 0.682 0.0
O188 O 0.37508 1.02122 0.63517 0.0
H189 H 0.27617 0.12655 0.6044 0.0
H190 H 0.37735 0.07491 0.44834 0.0
C191 C 0.33756 0.05276 0.98922 0.0
C192 C 0.36734 0.05301 0.05678 0.0
C193 C 0.42923 0.03608 0.96911 0.0
C194 C 0.3997 0.03596 0.90271 0.0
N195 N 0.35457 0.04421 0.91387 0.0
N196 N 0.41242 0.04447 0.04425 0.0
H197 H 0.30132 0.0583 -0.00385 0.0
C198 C 0.45621 0.09888 0.67162 0.0
O199 O 0.43405 0.09596 0.74049 0.0
O200 O 0.25496 1.01609 0.84426 0.0
H201 H 0.4126 1.02896 0.84259 0.0
H202 H 0.2246 0.13997 0.48648 0.0
H203 H 0.46522 1.02943 0.96112 0.0
Zn204 Zn 0.99159 0.87199 0.88119 0.0
C205 C 0.94092 0.80763 0.07666 0.0
N206 N 0.9026 0.82995 0.05658 0.0
C207 C 0.91572 0.85641 -0.00522 0.0
N208 N 0.96013 0.84945 0.9762 0.0
N209 N 0.97658 0.81977 0.02971 0.0
C210 C 0.10575 0.76059 0.13573 0.0
O211 O 0.12263 0.80062 0.15572 0.0
O212 O 0.98009 0.93833 0.86412 0.0
Zn213 Zn 0.03936 0.82084 0.07381 0.0
N214 N 0.97771 0.83424 0.78751 0.0
C215 C 0.94834 0.765 0.73312 0.0
C216 C 0.95696 0.79338 0.79937 0.0
C217 C 0.99027 0.84801 0.71205 0.0
N218 N 0.96127 0.77844 0.65783 0.0
C219 C 0.98236 0.81918 0.64461 0.0
O220 O 0.08759 0.85239 0.00586 0.0
C221 C 0.09212 0.87264 0.93825 0.0
O222 O 0.05863 0.87814 0.89054 0.0
H223 H 0.94742 0.78285 0.85987 0.0
H224 H 1.00592 0.88115 0.70587 0.0
C225 C 1.02825 0.84105 0.24663 0.0
C226 C 1.02835 0.87075 0.31421 0.0
C227 C 0.04672 0.93246 0.22691 0.0
C228 C 0.04645 0.90305 0.16052 0.0
N229 N 0.03731 0.85803 0.17143 0.0
N230 N 0.03778 0.9157 0.30184 0.0
H231 H 1.02204 0.8049 0.25347 0.0
C232 C 0.98784 0.96 0.9296 0.0
O233 O 0.98697 0.93756 -0.00152 0.0
O234 O 0.06685 0.75894 0.10059 0.0
H235 H 0.05388 0.91597 0.10062 0.0
H236 H 0.93178 0.73237 0.74144 0.0
H237 H 0.05407 0.96835 0.21907 0.0
Zn238 Zn 0.26987 0.54311 0.31606 0.0
C239 C 0.22858 0.42076 0.23613 0.0
N240 N 0.25544 0.40599 0.29666 0.0
C241 C 0.27926 0.44342 0.31733 0.0
N242 N 0.26755 0.48009 0.27196 0.0
N243 N 0.23667 0.46515 0.21889 0.0
C244 C 0.12577 0.49241 0.17109 0.0
O245 O 0.14822 0.49076 0.2402 0.0
O246 O 0.33312 0.56771 0.34602 0.0
Zn247 Zn 0.21409 0.49791 0.12502 0.0
N248 N 0.23289 0.54157 0.4135 0.0
C249 C 0.15782 0.54927 0.46605 0.0
C250 C 0.18769 0.5492 0.40074 0.0
C251 C 0.2496 0.53387 0.48967 0.0
N252 N 0.17429 0.54153 0.54185 0.0
C253 C 0.21938 0.5336 0.55617 0.0
O254 O 0.20763 0.56435 0.13959 0.0
C255 C 0.21518 0.59802 0.18581 0.0
O256 O 0.23826 0.59359 0.25093 0.0
H257 H 0.17495 0.55551 0.34012 0.0
H258 H 0.28585 0.52874 0.49805 0.0
C259 C 0.23924 0.49783 0.95578 0.0
C260 C 0.26913 0.49103 0.88981 0.0
C261 C 0.324 0.46015 0.98142 0.0
C262 C 0.29458 0.46762 0.04617 0.0
N263 N 0.25286 0.48625 0.03213 0.0
N264 N 0.3107 0.47206 0.90529 0.0
H265 H 0.20545 0.51178 0.94765 0.0
C266 C 0.35309 0.59547 0.29835 0.0
O267 O 0.33559 0.60237 0.22575 0.0
O268 O 0.14766 0.48638 0.10551 0.0
H269 H 0.30499 0.45883 0.10727 0.0
H270 H 0.1218 0.55542 0.45665 0.0
H271 H 0.35731 0.44527 -0.00845 0.0
C272 C 1.02464 1.02341 0.85247 0.0
C273 C 1.01222 1.00377 0.92696 0.0
H274 H 0.0615 0.07659 0.79281 0.0
C275 C 1.02869 1.02294 -0.00037 0.0
H276 H 1.01299 1.00895 0.7954 0.0
C277 C 0.05719 0.06075 -0.00193 0.0
C278 C 0.06948 0.08065 0.92385 0.0
H279 H 1.02022 1.00832 0.05805 0.0
H280 H 0.06885 0.07488 0.05542 0.0
C281 C 0.05311 0.06157 0.85092 0.0
C282 C 1.02205 0.55702 0.09725 0.0
C283 C 1.00201 0.56959 0.17141 0.0
H284 H 0.07656 0.5214 0.03857 0.0
C285 C 1.02184 0.55462 0.24444 0.0
H286 H 1.00713 0.56753 0.03993 0.0
C287 C 0.06066 0.52746 0.24359 0.0
C288 C 0.08098 0.51503 0.16973 0.0
H289 H 1.00701 0.56322 0.30265 0.0
H290 H 0.0752 0.51695 0.30125 0.0
C291 C 0.06127 0.52992 0.09641 0.0
C292 C 0.52743 0.57091 0.48912 0.0
C293 C 0.54395 0.58984 0.41678 0.0
H294 H 0.49483 0.5144 0.54561 0.0
C295 C 0.53658 0.56677 0.34296 0.0
H296 H 0.53168 0.5883 0.5468 0.0
C297 C 0.51501 0.5243 0.34222 0.0
C298 C 0.50057 0.50446 0.41532 0.0
H299 H 0.5482 0.58106 0.28608 0.0
H300 H 0.51155 0.50621 0.28505 0.0
C301 C 0.50582 0.52874 0.48833 0.0
C302 C 0.56623 0.0479 0.59884 0.0
C303 C 0.58817 0.03927 0.6733 0.0
H304 H 0.50716 0.07501 0.53943 0.0
C305 C 0.56899 0.0558 0.7455 0.0
H306 H 0.58083 0.03637 0.54206 0.0
C307 C 0.52749 0.07858 0.74385 0.0
C308 C 0.50419 0.08492 0.67005 0.0
H309 H 0.58562 0.05061 0.80368 0.0
H310 H 0.51276 0.08946 0.80095 0.0
C311 C 0.52446 0.07063 0.5972 0.0
C312 C 0.22459 0.15809 0.82647 0.0
C313 C 0.2644 0.14538 0.86839 0.0
H314 H 0.1637 0.19767 0.82888 0.0
C315 C 0.26834 0.15552 0.95119 0.0
H316 H 0.22195 0.15278 0.7614 0.0
C317 C 0.23382 0.17959 0.99078 0.0
C318 C 0.19554 0.19568 0.94741 0.0
H319 H 0.29984 0.14846 0.98337 0.0
H320 H 0.23865 0.18827 0.05428 0.0
C321 C 0.19103 0.184 0.86517 0.0
C322 C 0.8981 0.69214 0.11725 0.0
C323 C 0.88592 0.69611 0.19917 0.0
H324 H 0.92995 0.72382 0.01507 0.0
C325 C 0.90205 0.73388 0.24385 0.0
H326 H 0.88438 0.66519 0.07999 0.0
C327 C 0.92659 0.76856 0.20576 0.0
C328 C 0.93708 0.76535 0.12315 0.0
H329 H 0.893 0.73827 0.30714 0.0
H330 H 0.93345 0.79982 0.23873 0.0
C331 C 0.92446 0.72588 0.08007 0.0
C332 C 0.35421 0.40755 0.48774 0.0
C333 C 0.39029 0.38741 0.44429 0.0
H334 H 0.28986 0.44211 0.48041 0.0
C335 C 0.39286 0.39477 0.36036 0.0
H336 H 0.35084 0.402 0.5525 0.0
C337 C 0.3596 0.42072 0.32041 0.0
C338 C 0.3219 0.43789 0.36303 0.0
H339 H 0.41853 0.37795 0.32449 0.0
H340 H 0.3606 0.42288 0.25469 0.0
C341 C 0.3199 0.43177 0.44721 0.0
C342 C 0.672 0.89489 0.62687 0.0
C343 C 0.69102 0.88726 0.70416 0.0
H344 H 0.63717 0.86526 0.52421 0.0
C345 C 0.68247 0.84504 0.7422 0.0
H346 H 0.67816 0.92626 0.59511 0.0
C347 C 0.6599 0.81005 0.70117 0.0
C348 C 0.6433 0.81671 0.62252 0.0
H349 H 0.69594 0.83759 0.80212 0.0
H350 H 0.6589 0.7764 0.72813 0.0
C351 C 0.64795 0.85995 0.58656 0.0
C352 C 0.86328 0.1752 0.94303 0.0
C353 C 0.86294 0.13773 0.88925 0.0
H354 H 0.90254 0.22864 -0.00096 0.0
C355 C 0.90313 0.12677 0.8476 0.0
H356 H 0.83286 0.18455 0.9762 0.0
C357 C 0.94273 0.15262 0.85949 0.0
C358 C 0.94335 0.18968 0.9143 0.0
H359 H 0.90402 0.09826 0.80565 0.0
H360 H 0.97327 0.14266 0.82722 0.0
C361 C 0.90314 0.20063 0.95598 0.0
C362 C 0.9333 0.44617 0.11609 0.0
C363 C 0.89543 0.44543 0.16851 0.0
H364 H 0.98942 0.4093 0.06517 0.0
C365 C 0.88527 0.40489 0.20991 0.0
H366 H 0.94273 0.47709 0.08438 0.0
C367 C 0.91205 0.36587 0.19838 0.0
C368 C 0.9501 0.36683 0.14651 0.0
H369 H 0.85672 0.40337 0.25134 0.0
H370 H 0.90314 0.33501 0.23071 0.0
C371 C 0.96051 0.40747 0.10575 0.0
C372 C 0.71945 0.4106 0.45077 0.0
C373 C 0.71784 0.44894 0.3993 0.0
H374 H 0.68278 0.35459 0.50338 0.0
C375 C 0.67684 0.45923 0.35913 0.0
H376 H 0.75062 0.40173 0.48262 0.0
C377 C 0.63843 0.43173 0.36969 0.0
C378 C 0.63977 0.39354 0.42167 0.0
H379 H 0.67447 0.48831 0.31882 0.0
H380 H 0.60728 0.44115 0.33822 0.0
C381 C 0.68071 0.38341 0.46242 0.0
C382 C 0.65578 0.14703 0.6936 0.0
C383 C 0.68711 0.12514 0.64182 0.0
H384 H 0.60174 0.19583 0.7053 0.0
C385 C 0.68568 0.13544 0.55847 0.0
H386 H 0.65518 0.13938 0.75795 0.0
C387 C 0.65491 0.16801 0.52828 0.0
C388 C 0.62438 0.19071 0.58045 0.0
H389 H 0.70877 0.11881 0.51663 0.0
H390 H 0.65557 0.1759 0.46404 0.0
C391 C 0.62469 0.17916 0.66329 0.0
C392 C 0.76791 0.65789 0.44891 0.0
C393 C 0.76198 0.64376 0.36843 0.0
H394 H 0.74032 0.69389 0.54976 0.0
C395 C 0.71952 0.65083 0.33038 0.0
H396 H 0.80085 0.6544 0.47839 0.0
C397 C 0.68512 0.67561 0.36983 0.0
C398 C 0.69252 0.69325 0.44814 0.0
H399 H 0.71477 0.64171 0.26705 0.0
H400 H 0.65462 0.68373 0.33643 0.0
C401 C 0.73342 0.68173 0.48872 0.0
C402 C 0.42998 0.26625 0.69979 0.0
C403 C 0.43741 0.26342 0.61605 0.0
H404 H 0.39909 0.23595 0.80399 0.0
C405 C 0.42128 0.22522 0.57312 0.0
H406 H 0.43969 0.29667 0.73304 0.0
C407 C 0.39494 0.19224 0.61215 0.0
C408 C 0.38636 0.19545 0.69559 0.0
H409 H 0.42449 0.2236 0.50758 0.0
H410 H 0.3789 0.16619 0.57576 0.0
C411 C 0.40549 0.2321 0.73956 0.0
C412 C 0.85269 0.92707 0.83611 0.0
C413 C 0.81263 0.93792 0.8784 0.0
H414 H 0.91464 0.8889 0.83675 0.0
C415 C 0.80893 0.92544 0.95987 0.0
H416 H 0.85501 0.93373 0.77149 0.0
C417 C 0.84436 0.9022 -0.00133 0.0
C418 C 0.88328 0.88839 0.95522 0.0
H419 H 0.77691 0.93002 -0.00891 0.0
H420 H 0.83969 0.8922 0.06142 0.0
C421 C 0.88713 0.90139 0.8736 0.0
C422 C 0.17805 0.35244 0.23892 0.0
C423 C 0.1954 0.38991 0.1954 0.0
H424 H 0.14604 0.28679 0.23179 0.0
C425 C 0.18498 0.39353 0.11245 0.0
H426 H 0.1858 0.34829 0.30292 0.0
C427 C 0.15926 0.35966 0.07329 0.0
C428 C 0.14523 0.32056 0.11563 0.0
H429 H 0.19957 0.42032 0.07625 0.0
H430 H 0.15504 0.36145 0.00789 0.0
C431 C 0.154 0.31774 0.19907 0.0
C432 C 0.4027 0.62662 0.41083 0.0
C433 C 0.39101 0.6251 0.32795 0.0
H434 H 0.44241 0.65865 0.50427 0.0
C435 C 0.41326 0.65518 0.2745 0.0
H436 H 0.38635 0.60405 0.45381 0.0
C437 C 0.44557 0.68665 0.30344 0.0
C438 C 0.45608 0.68921 0.38675 0.0
H439 H 0.40522 0.65493 0.21019 0.0
H440 H 0.46188 0.70933 0.26061 0.0
C441 C 0.4346 0.65837 0.43987 0.0
C442 C 0.38266 0.90405 0.70597 0.0
C443 C 0.39252 0.9443 0.66339 0.0
H444 H 0.39975 0.83391 0.72618 0.0
C445 C 0.42844 0.94386 0.60676 0.0
H446 H 0.3555 0.9033 0.75033 0.0
C447 C 0.45432 0.90447 0.59406 0.0
C448 C 0.44456 0.8643 0.63675 0.0
H449 H 0.43748 0.9744 0.57354 0.0
H450 H 0.48195 0.90551 0.55066 0.0
C451 C 0.40816 0.86437 0.69226 0.0
C452 C 0.17583 0.8869 0.96086 0.0
C453 C 0.13493 0.89757 0.92045 0.0
H454 H 0.24618 0.90374 0.97952 0.0
C455 C 0.13409 0.93529 0.86745 0.0
H456 H 0.17747 0.85843 0.00264 0.0
C457 C 0.17308 0.96188 0.8556 0.0
C458 C 0.21407 0.95097 0.89541 0.0
H459 H 0.10293 0.94507 0.83641 0.0
H460 H 0.17118 0.99072 0.81467 0.0
C461 C 0.21508 0.91305 0.94784 0.0
C462 C 0.12262 0.67792 0.10952 0.0
C463 C 0.13353 0.71892 0.14919 0.0
H464 H 0.14032 0.60826 0.08842 0.0
C465 C 0.17259 0.72038 0.19946 0.0
H466 H 0.09295 0.67563 0.07021 0.0
C467 C 0.19985 0.68155 0.21045 0.0
C468 C 0.18913 0.64063 0.17019 0.0
H469 H 0.18197 0.7515 0.23096 0.0
H470 H 0.22918 0.68354 0.25059 0.0
C471 C 0.15022 0.63941 0.11938 0.0
C472 C 0.04319 0.20484 0.45626 0.0
C473 C 0.0631 0.22827 0.39105 0.0
H474 H 0.03611 0.19846 0.58423 0.0
C475 C 0.09315 0.2644 0.40807 0.0
H476 H 1.01942 0.17717 0.44529 0.0
C477 C 0.10372 0.27612 0.48837 0.0
C478 C 0.08436 0.25224 0.55392 0.0
H479 H 0.10956 0.28296 0.3597 0.0
H480 H 0.12771 0.30364 0.49884 0.0
C481 C 0.05328 0.21687 0.53653 0.0
C482 C 0.86489 0.55529 0.78749 0.0
C483 C 0.83008 0.58698 0.80419 0.0
H484 H 0.90439 0.52114 0.69709 0.0
C485 C 0.80704 0.60735 0.73822 0.0
H486 H 0.88258 0.53737 0.83556 0.0
C487 C 0.81906 0.59706 0.6581 0.0
C488 C 0.85459 0.56628 0.64191 0.0
H489 H 0.77999 0.63184 0.74827 0.0
H490 H 0.80123 0.61416 0.60921 0.0
C491 C 0.87721 0.54548 0.70753 0.0
C492 C 0.54432 0.371 0.95742 0.0
C493 C 0.52519 0.34647 0.89214 0.0
H494 H 0.55097 0.37871 0.08546 0.0
C495 C 0.49642 0.30942 0.90918 0.0
H496 H 0.56712 0.3994 0.94653 0.0
C497 C 0.48616 0.29801 0.98956 0.0
C498 C 0.50454 0.32318 0.05508 0.0
H499 H 0.48064 0.28995 0.86076 0.0
H500 H 0.46308 0.26982 0.00012 0.0
C501 C 0.53452 0.35933 0.03768 0.0
C502 C 0.77284 0.96865 0.24047 0.0
C503 C 0.75526 0.99135 0.30905 0.0
H504 H 0.77592 0.96493 0.11122 0.0
C505 C 0.72977 1.03155 0.29649 0.0
H506 H 0.79318 0.93802 0.24694 0.0
C507 C 0.71937 0.04637 0.2181 0.0
C508 C 0.73504 1.02231 0.14997 0.0
H509 H 0.71712 0.05186 0.34628 0.0
H510 H 0.69837 0.07653 0.21083 0.0
C511 C 0.7631 0.98414 0.16201 0.0
C512 C 0.55124 0.73553 0.03686 0.0
C513 C 0.5932 0.75771 0.05066 0.0
H514 H 0.50538 0.7062 0.94981 0.0
C515 C 0.61899 0.77133 0.98291 0.0
H516 H 0.52896 0.72622 0.08622 0.0
C517 C 0.60436 0.76098 0.90399 0.0
C518 C 0.56388 0.73649 0.89112 0.0
H519 H 0.65124 0.78885 0.99069 0.0
H520 H 0.62578 0.77032 0.85361 0.0
C521 C 0.53715 0.72454 0.95819 0.0
C522 C 0.30294 0.10191 0.23711 0.0
C523 C 0.32707 0.083 0.30321 0.0
H524 H 0.29615 0.10753 0.10827 0.0
C525 C 0.36286 0.05238 0.28668 0.0
H526 H 0.27506 0.12549 0.24696 0.0
C527 C 0.37516 0.04242 0.20673 0.0
C528 C 0.35158 0.06199 0.14092 0.0
H529 H 0.38145 0.0355 0.33486 0.0
H530 H 0.4032 1.01906 0.19648 0.0
C531 C 0.31493 0.09145 0.15708 0.0
C532 C 0.03836 0.87834 0.46444 0.0
C533 C 1.01865 0.85516 0.39818 0.0
H534 H 0.04446 0.88484 0.59267 0.0
C535 C 0.98817 0.8193 0.41371 0.0
H536 H 0.0625 0.90575 0.45472 0.0
C537 C 0.97675 0.80782 0.4935 0.0
C538 C 0.99572 0.83164 0.56006 0.0
H539 H 0.97199 0.80084 0.36456 0.0
H540 H 0.95235 0.78061 0.50272 0.0
C541 C 1.02747 0.86652 0.54418 0.0
C542 C 0.21014 0.54425 0.70581 0.0
C543 C 0.23449 0.52484 0.64101 0.0
H544 H 0.20221 0.55075 0.83369 0.0
C545 C 0.27092 0.49532 0.65878 0.0
H546 H 0.18219 0.56759 0.69434 0.0
C547 C 0.28192 0.48467 0.73935 0.0
C548 C 0.25698 0.50339 0.80442 0.0
H549 H 0.29017 0.47927 0.61074 0.0
H550 H 0.30965 0.46103 0.75037 0.0
C551 C 0.22142 0.53406 0.78631 0.0
loop_
_geom_bond_atom_site_label_1
_geom_bond_atom_site_label_2
_geom_bond_distance
_geom_bond_site_symmetry_2
_ccdc_geom_bond_type
Zn0 N4 2.020 . S
Zn0 O8 2.019 . S
Zn0 N10 2.119 . S
Zn0 O18 1.975 1_455 S
C1 N2 1.334 . S
C1 N5 1.336 . S
N2 C1 1.334 . S
N2 C3 1.334 1_554 S
C3 N2 1.334 1_556 S
C3 N4 1.336 . S
N4 Zn0 2.020 . S
N4 C3 1.336 . S
N4 N5 1.354 1_556 S
N5 C1 1.336 . S
N5 N4 1.354 1_554 S
N5 Zn9 2.020 1_455 S
C6 O7 1.244 . S
C6 O30 1.257 . S
O7 C6 1.244 . S
O8 Zn0 2.019 . S
O8 C28 1.257 . S
Zn9 N5 2.020 1_655 S
Zn9 O16 1.975 . S
Zn9 N25 2.119 . S
Zn9 O30 2.019 . S
N10 Zn0 2.119 . S
N10 C12 1.334 1_455 S
N10 C13 1.328 . S
C11 C12 1.391 . S
C11 N14 1.329 . S
C11 H32 0.930 . S
C12 N10 1.334 1_655 S
C12 C11 1.391 . S
C12 H19 0.930 . S
C13 N10 1.328 . S
C13 C15 1.392 . S
C13 H20 0.930 . S
N14 C11 1.329 . S
N14 C15 1.331 1_655 S
C15 C13 1.392 . S
C15 N14 1.331 1_455 S
O16 Zn9 1.975 . S
O16 C17 1.252 1_554 S
C17 O16 1.252 1_556 S
C17 O18 1.252 . S
O18 Zn0 1.975 1_655 S
O18 C17 1.252 . S
H19 C12 0.930 . S
H20 C13 0.930 . S
C21 C22 1.392 . S
C21 N25 1.328 . S
C21 H27 0.930 . S
C22 C21 1.392 . S
C22 N26 1.331 . S
C23 C24 1.393 . S
C23 N26 1.329 . S
C23 H33 0.928 1_655 S
C24 C23 1.393 . S
C24 N25 1.338 . S
C24 H31 0.924 1_655 S
N25 Zn9 2.119 . S
N25 C21 1.328 . S
N25 C24 1.338 . S
N26 C22 1.331 . S
N26 C23 1.329 . S
H27 C21 0.930 . S
C28 O8 1.257 . S
C28 O29 1.244 . S
O29 C28 1.244 . S
O30 C6 1.257 . S
O30 Zn9 2.019 . S
H31 C24 0.924 1_455 S
H32 C11 0.930 . S
H33 C23 0.928 1_455 S
Zn34 N38 2.020 . S
Zn34 O42 2.019 . S
Zn34 N44 2.119 . S
Zn34 O52 1.975 . S
C35 N36 1.334 . S
C35 N39 1.336 . S
N36 C35 1.334 . S
N36 C37 1.334 . S
C37 N36 1.334 . S
C37 N38 1.336 . S
N38 Zn34 2.020 . S
N38 C37 1.336 . S
N38 N39 1.354 . S
N39 C35 1.336 . S
N39 N38 1.354 . S
N39 Zn43 2.020 . S
C40 O41 1.244 . S
C40 O64 1.257 . S
O41 C40 1.244 . S
O42 Zn34 2.019 . S
O42 C62 1.257 . S
Zn43 N39 2.020 . S
Zn43 O50 1.975 . S
Zn43 N59 2.119 . S
Zn43 O64 2.019 . S
N44 Zn34 2.119 . S
N44 C46 1.334 . S
N44 C47 1.328 1_554 S
C45 C46 1.391 1_556 S
C45 N48 1.329 . S
C45 H66 0.930 . S
C46 N44 1.334 . S
C46 C45 1.391 1_554 S
C46 H53 0.930 . S
C47 N44 1.328 1_556 S
C47 C49 1.392 . S
C47 H54 0.930 . S
N48 C45 1.329 . S
N48 C49 1.331 . S
C49 C47 1.392 . S
C49 N48 1.331 . S
O50 Zn43 1.975 . S
O50 C51 1.252 . S
C51 O50 1.252 . S
C51 O52 1.252 . S
O52 Zn34 1.975 . S
O52 C51 1.252 . S
H53 C46 0.930 . S
H54 C47 0.930 . S
C55 C56 1.392 . S
C55 N59 1.328 . S
C55 H61 0.930 . S
C56 C55 1.392 . S
C56 N60 1.331 . S
C57 C58 1.391 . S
C57 N60 1.329 . S
C57 H67 0.930 . S
C58 C57 1.391 . S
C58 N59 1.334 . S
C58 H65 0.930 . S
N59 Zn43 2.119 . S
N59 C55 1.328 . S
N59 C58 1.334 . S
N60 C56 1.331 . S
N60 C57 1.329 . S
H61 C55 0.930 . S
C62 O42 1.257 . S
C62 O63 1.244 . S
O63 C62 1.244 . S
O64 C40 1.257 . S
O64 Zn43 2.019 . S
H65 C58 0.930 . S
H66 C45 0.930 . S
H67 C57 0.930 . S
Zn68 N72 2.020 . S
Zn68 O76 2.019 . S
Zn68 N78 2.119 . S
Zn68 O86 1.975 . S
C69 N70 1.334 . S
C69 N73 1.336 . S
N70 C69 1.334 . S
N70 C71 1.334 . S
C71 N70 1.334 . S
C71 N72 1.336 . S
N72 Zn68 2.020 . S
N72 C71 1.336 . S
N72 N73 1.354 . S
N73 C69 1.336 . S
N73 N72 1.354 . S
N73 Zn77 2.020 . S
C74 O75 1.244 . S
C74 O98 1.257 . S
O75 C74 1.244 . S
O76 Zn68 2.019 . S
O76 C96 1.257 . S
Zn77 N73 2.020 . S
Zn77 O84 1.975 . S
Zn77 N93 2.119 . S
Zn77 O98 2.019 . S
N78 Zn68 2.119 . S
N78 C80 1.334 . S
N78 C81 1.328 . S
C79 C80 1.391 . S
C79 N82 1.329 . S
C79 H100 0.930 . S
C80 N78 1.334 . S
C80 C79 1.391 . S
C80 H87 0.930 . S
C81 N78 1.328 . S
C81 C83 1.392 . S
C81 H88 0.930 . S
N82 C79 1.329 . S
N82 C83 1.331 . S
C83 C81 1.392 . S
C83 N82 1.331 . S
O84 Zn77 1.975 . S
O84 C85 1.252 . S
C85 O84 1.252 . S
C85 O86 1.252 . S
O86 Zn68 1.975 . S
O86 C85 1.252 . S
H87 C80 0.930 . S
H88 C81 0.930 . S
C89 C90 1.392 . S
C89 N93 1.328 . S
C89 H95 0.930 . S
C90 C89 1.392 . S
C90 N94 1.331 . S
C91 C92 1.391 . S
C91 N94 1.329 . S
C91 H101 0.930 . S
C92 C91 1.391 . S
C92 N93 1.334 . S
C92 H99 0.930 . S
N93 Zn77 2.119 . S
N93 C89 1.328 . S
N93 C92 1.334 . S
N94 C90 1.331 . S
N94 C91 1.329 . S
H95 C89 0.930 . S
C96 O76 1.257 . S
C96 O97 1.244 . S
O97 C96 1.244 . S
O98 C74 1.257 . S
O98 Zn77 2.019 . S
H99 C92 0.930 . S
H100 C79 0.930 . S
H101 C91 0.930 . S
Zn102 N106 2.020 1_545 S
Zn102 O110 2.019 . S
Zn102 N112 2.119 . S
Zn102 O120 1.975 . S
C103 N104 1.334 . S
C103 N107 1.336 . S
N104 C103 1.334 . S
N104 C105 1.334 . S
C105 N104 1.334 . S
C105 N106 1.336 . S
N106 Zn102 2.020 1_565 S
N106 C105 1.336 . S
N106 N107 1.354 . S
N107 C103 1.336 . S
N107 N106 1.354 . S
N107 Zn111 2.020 . S
C108 O109 1.244 . S
C108 O132 1.257 . S
O109 C108 1.244 . S
O110 Zn102 2.019 . S
O110 C130 1.257 . S
Zn111 N107 2.020 . S
Zn111 O118 1.975 1_565 S
Zn111 N127 2.119 1_565 S
Zn111 O132 2.019 . S
N112 Zn102 2.119 . S
N112 C114 1.334 . S
N112 C115 1.328 1_556 S
C113 C114 1.391 1_554 S
C113 N116 1.329 . S
C113 H134 0.930 . S
C114 N112 1.334 . S
C114 C113 1.391 1_556 S
C114 H121 0.930 . S
C115 N112 1.328 1_554 S
C115 C117 1.392 . S
C115 H122 0.930 . S
N116 C113 1.329 . S
N116 C117 1.331 . S
C117 C115 1.392 . S
C117 N116 1.331 . S
O118 Zn111 1.975 1_545 S
O118 C119 1.252 . S
C119 O118 1.252 . S
C119 O120 1.252 . S
O120 Zn102 1.975 . S
O120 C119 1.252 . S
H121 C114 0.930 . S
H122 C115 0.930 . S
C123 C124 1.392 . S
C123 N127 1.328 . S
C123 H129 0.930 1_545 S
C124 C123 1.392 . S
C124 N128 1.331 . S
C125 C126 1.391 . S
C125 N128 1.329 . S
C125 H135 0.930 . S
C126 C125 1.391 . S
C126 N127 1.334 . S
C126 H133 0.930 . S
N127 Zn111 2.119 1_545 S
N127 C123 1.328 . S
N127 C126 1.334 . S
N128 C124 1.331 . S
N128 C125 1.329 . S
H129 C123 0.930 1_565 S
C130 O110 1.257 . S
C130 O131 1.244 . S
O131 C130 1.244 . S
O132 C108 1.257 . S
O132 Zn111 2.019 . S
H133 C126 0.930 . S
H134 C113 0.930 . S
H135 C125 0.930 . S
Zn136 N140 2.020 . S
Zn136 O144 2.019 . S
Zn136 N146 2.119 . S
Zn136 O154 1.975 . S
C137 N138 1.334 . S
C137 N141 1.336 . S
N138 C137 1.334 . S
N138 C139 1.334 . S
C139 N138 1.334 . S
C139 N140 1.336 . S
N140 Zn136 2.020 . S
N140 C139 1.336 . S
N140 N141 1.354 . S
N141 C137 1.336 . S
N141 N140 1.354 . S
N141 Zn145 2.020 . S
C142 O143 1.244 . S
C142 O166 1.257 . S
O143 C142 1.244 . S
O144 Zn136 2.019 . S
O144 C164 1.257 . S
Zn145 N141 2.020 . S
Zn145 O152 1.975 . S
Zn145 N161 2.119 . S
Zn145 O166 2.019 . S
N146 Zn136 2.119 . S
N146 C148 1.334 . S
N146 C149 1.328 . S
C147 C148 1.391 . S
C147 N150 1.329 . S
C147 H168 0.930 . S
C148 N146 1.334 . S
C148 C147 1.391 . S
C148 H155 0.930 . S
C149 N146 1.328 . S
C149 C151 1.392 . S
C149 H156 0.930 . S
N150 C147 1.329 . S
N150 C151 1.331 . S
C151 C149 1.392 . S
C151 N150 1.331 . S
O152 Zn145 1.975 . S
O152 C153 1.252 . S
C153 O152 1.252 . S
C153 O154 1.252 . S
O154 Zn136 1.975 . S
O154 C153 1.252 . S
H155 C148 0.930 . S
H156 C149 0.930 . S
C157 C158 1.392 . S
C157 N161 1.328 . S
C157 H163 0.930 . S
C158 C157 1.392 . S
C158 N162 1.331 . S
C159 C160 1.391 . S
C159 N162 1.329 . S
C159 H169 0.930 . S
C160 C159 1.391 . S
C160 N161 1.334 . S
C160 H167 0.930 . S
N161 Zn145 2.119 . S
N161 C157 1.328 . S
N161 C160 1.334 . S
N162 C158 1.331 . S
N162 C159 1.329 . S
H163 C157 0.930 . S
C164 O144 1.257 . S
C164 O165 1.244 . S
O165 C164 1.244 . S
O166 C142 1.257 . S
O166 Zn145 2.019 . S
H167 C160 0.930 . S
H168 C147 0.930 . S
H169 C159 0.930 . S
Zn170 N174 2.020 . S
Zn170 O178 2.019 . S
Zn170 N180 2.119 . S
Zn170 O188 1.975 1_545 S
C171 N172 1.334 . S
C171 N175 1.336 . S
N172 C171 1.334 . S
N172 C173 1.334 . S
C173 N172 1.334 . S
C173 N174 1.336 . S
N174 Zn170 2.020 . S
N174 C173 1.336 . S
N174 N175 1.354 . S
N175 C171 1.336 . S
N175 N174 1.354 . S
N175 Zn179 2.020 1_545 S
C176 O177 1.244 . S
C176 O200 1.257 . S
O177 C176 1.244 . S
O178 Zn170 2.019 . S
O178 C198 1.257 . S
Zn179 N175 2.020 1_565 S
Zn179 O186 1.975 . S
Zn179 N195 2.119 . S
Zn179 O200 2.019 . S
N180 Zn170 2.119 . S
N180 C182 1.334 1_545 S
N180 C183 1.328 . S
C181 C182 1.391 . S
C181 N184 1.329 . S
C181 H202 0.930 . S
C182 N180 1.334 1_565 S
C182 C181 1.391 . S
C182 H189 0.930 . S
C183 N180 1.328 . S
C183 C185 1.392 . S
C183 H190 0.930 . S
N184 C181 1.329 . S
N184 C185 1.331 1_565 S
C185 C183 1.392 . S
C185 N184 1.331 1_545 S
O186 Zn179 1.975 . S
O186 C187 1.252 . S
C187 O186 1.252 . S
C187 O188 1.252 . S
O188 Zn170 1.975 1_565 S
O188 C187 1.252 . S
H189 C182 0.930 . S
H190 C183 0.930 . S
C191 C192 1.392 . S
C191 N195 1.328 1_554 S
C191 H197 0.930 . S
C192 C191 1.392 . S
C192 N196 1.331 . S
C193 C194 1.393 1_554 S
C193 N196 1.329 . S
C193 H203 0.928 1_565 S
C194 C193 1.393 1_556 S
C194 N195 1.338 . S
C194 H201 0.924 1_565 S
N195 Zn179 2.119 . S
N195 C191 1.328 1_556 S
N195 C194 1.338 . S
N196 C192 1.331 . S
N196 C193 1.329 . S
H197 C191 0.930 . S
C198 O178 1.257 . S
C198 O199 1.244 . S
O199 C198 1.244 . S
O200 C176 1.257 . S
O200 Zn179 2.019 . S
H201 C194 0.924 1_545 S
H202 C181 0.930 . S
H203 C193 0.928 1_545 S
Zn204 N208 2.020 . S
Zn204 O212 2.019 . S
Zn204 N214 2.119 1_655 S
Zn204 O222 1.975 1_655 S
C205 N206 1.334 . S
C205 N209 1.336 . S
N206 C205 1.334 . S
N206 C207 1.334 1_554 S
C207 N206 1.334 1_556 S
C207 N208 1.336 . S
N208 Zn204 2.020 . S
N208 C207 1.336 . S
N208 N209 1.354 1_556 S
N209 C205 1.336 . S
N209 N208 1.354 1_554 S
N209 Zn213 2.020 1_655 S
C210 O211 1.244 . S
C210 O234 1.257 . S
O211 C210 1.244 . S
O212 Zn204 2.019 . S
O212 C232 1.257 . S
Zn213 N209 2.020 1_455 S
Zn213 O220 1.975 . S
Zn213 N229 2.119 . S
Zn213 O234 2.019 . S
N214 Zn204 2.119 1_455 S
N214 C216 1.334 . S
N214 C217 1.328 . S
C215 C216 1.391 . S
C215 N218 1.329 . S
C215 H236 0.930 . S
C216 N214 1.334 . S
C216 C215 1.391 . S
C216 H223 0.930 . S
C217 N214 1.328 . S
C217 C219 1.392 . S
C217 H224 0.930 1_455 S
N218 C215 1.329 . S
N218 C219 1.331 . S
C219 C217 1.392 . S
C219 N218 1.331 . S
O220 Zn213 1.975 . S
O220 C221 1.252 1_554 S
C221 O220 1.252 1_556 S
C221 O222 1.252 . S
O222 Zn204 1.975 1_455 S
O222 C221 1.252 . S
H223 C216 0.930 . S
H224 C217 0.930 1_655 S
C225 C226 1.392 . S
C225 N229 1.328 . S
C225 H231 0.930 . S
C226 C225 1.392 . S
C226 N230 1.331 . S
C227 C228 1.391 . S
C227 N230 1.329 . S
C227 H237 0.930 . S
C228 C227 1.391 . S
C228 N229 1.334 . S
C228 H235 0.930 . S
N229 Zn213 2.119 . S
N229 C225 1.328 . S
N229 C228 1.334 . S
N230 C226 1.331 . S
N230 C227 1.329 . S
H231 C225 0.930 . S
C232 O212 1.257 . S
C232 O233 1.244 . S
O233 C232 1.244 . S
O234 C210 1.257 . S
O234 Zn213 2.019 . S
H235 C228 0.930 . S
H236 C215 0.930 . S
H237 C227 0.930 . S
Zn238 N242 2.020 . S
Zn238 O246 2.019 . S
Zn238 N248 2.119 . S
Zn238 O256 1.975 . S
C239 N240 1.334 . S
C239 N243 1.336 . S
N240 C239 1.334 . S
N240 C241 1.334 . S
C241 N240 1.334 . S
C241 N242 1.336 . S
N242 Zn238 2.020 . S
N242 C241 1.336 . S
N242 N243 1.354 . S
N243 C239 1.336 . S
N243 N242 1.354 . S
N243 Zn247 2.020 . S
C244 O245 1.244 . S
C244 O268 1.257 . S
O245 C244 1.244 . S
O246 Zn238 2.019 . S
O246 C266 1.257 . S
Zn247 N243 2.020 . S
Zn247 O254 1.975 . S
Zn247 N263 2.119 . S
Zn247 O268 2.019 . S
N248 Zn238 2.119 . S
N248 C250 1.334 . S
N248 C251 1.328 . S
C249 C250 1.391 . S
C249 N252 1.329 . S
C249 H270 0.930 . S
C250 N248 1.334 . S
C250 C249 1.391 . S
C250 H257 0.930 . S
C251 N248 1.328 . S
C251 C253 1.392 . S
C251 H258 0.930 . S
N252 C249 1.329 . S
N252 C253 1.331 . S
C253 C251 1.392 . S
C253 N252 1.331 . S
O254 Zn247 1.975 . S
O254 C255 1.252 . S
C255 O254 1.252 . S
C255 O256 1.252 . S
O256 Zn238 1.975 . S
O256 C255 1.252 . S
H257 C250 0.930 . S
H258 C251 0.930 . S
C259 C260 1.392 . S
C259 N263 1.328 1_556 S
C259 H265 0.930 . S
C260 C259 1.392 . S
C260 N264 1.331 . S
C261 C262 1.391 1_556 S
C261 N264 1.329 . S
C261 H271 0.930 . S
C262 C261 1.391 1_554 S
C262 N263 1.334 . S
C262 H269 0.930 . S
N263 Zn247 2.119 . S
N263 C259 1.328 1_554 S
N263 C262 1.334 . S
N264 C260 1.331 . S
N264 C261 1.329 . S
H265 C259 0.930 . S
C266 O246 1.257 . S
C266 O267 1.244 . S
O267 C266 1.244 . S
O268 C244 1.257 . S
O268 Zn247 2.019 . S
H269 C262 0.930 . S
H270 C249 0.930 . S
H271 C261 0.930 . S
C272 C273 1.387 . S
C272 H276 0.950 . S
C272 C281 1.390 1_665 S
C273 C272 1.387 . S
C273 C275 1.387 . S
H274 C281 0.950 . S
C275 C273 1.387 . S
C275 C277 1.390 1_665 S
C275 H279 0.950 1_556 S
H276 C272 0.950 . S
C277 C275 1.390 1_445 S
C277 C278 1.387 . S
C277 H280 0.950 1_556 S
C278 C277 1.387 . S
C278 C281 1.387 . S
H279 C275 0.950 1_554 S
H280 C277 0.950 1_554 S
C281 C272 1.390 1_445 S
C281 H274 0.950 . S
C281 C278 1.387 . S
C282 C283 1.387 . S
C282 H286 0.950 . S
C282 C291 1.390 1_655 S
C283 C282 1.387 . S
C283 C285 1.387 . S
H284 C291 0.950 . S
C285 C283 1.387 . S
C285 C287 1.390 1_655 S
C285 H289 0.950 . S
H286 C282 0.950 . S
C287 C285 1.390 1_455 S
C287 C288 1.387 . S
C287 H290 0.950 . S
C288 C287 1.387 . S
C288 C291 1.387 . S
H289 C285 0.950 . S
H290 C287 0.950 . S
C291 C282 1.390 1_455 S
C291 H284 0.950 . S
C291 C288 1.387 . S
C292 C293 1.387 . S
C292 H296 0.950 . S
C292 C301 1.390 . S
C293 C292 1.387 . S
C293 C295 1.387 . S
H294 C301 0.950 . S
C295 C293 1.387 . S
C295 C297 1.390 . S
C295 H299 0.950 . S
H296 C292 0.950 . S
C297 C295 1.390 . S
C297 C298 1.387 . S
C297 H300 0.950 . S
C298 C297 1.387 . S
C298 C301 1.387 . S
H299 C295 0.950 . S
H300 C297 0.950 . S
C301 C292 1.390 . S
C301 H294 0.950 . S
C301 C298 1.387 . S
C302 C303 1.387 . S
C302 H306 0.950 . S
C302 C311 1.390 1_565 S
C303 C302 1.387 . S
C303 C305 1.387 . S
H304 C311 0.950 . S
C305 C303 1.387 . S
C305 C307 1.390 1_565 S
C305 H309 0.950 . S
H306 C302 0.950 . S
C307 C305 1.390 1_545 S
C307 C308 1.387 . S
C307 H310 0.950 . S
C308 C307 1.387 . S
C308 C311 1.387 . S
H309 C305 0.950 . S
H310 C307 0.950 . S
C311 C302 1.390 1_545 S
C311 H304 0.950 . S
C311 C308 1.387 . S
C312 C313 1.387 . S
C312 H316 0.950 . S
C312 C321 1.390 . S
C313 C312 1.387 . S
C313 C315 1.387 . S
H314 C321 0.950 . S
C315 C313 1.387 . S
C315 C317 1.390 . S
C315 H319 0.950 . S
H316 C312 0.950 . S
C317 C315 1.390 . S
C317 C318 1.387 . S
C317 H320 0.950 . S
C318 C317 1.387 . S
C318 C321 1.387 . S
H319 C315 0.950 . S
H320 C317 0.950 . S
C321 C312 1.390 . S
C321 H314 0.950 . S
C321 C318 1.387 . S
C322 C323 1.387 . S
C322 H326 0.950 . S
C322 C331 1.390 . S
C323 C322 1.387 . S
C323 C325 1.387 . S
H324 C331 0.950 . S
C325 C323 1.387 . S
C325 C327 1.390 . S
C325 H329 0.950 . S
H326 C322 0.950 . S
C327 C325 1.390 . S
C327 C328 1.387 . S
C327 H330 0.950 . S
C328 C327 1.387 . S
C328 C331 1.387 . S
H329 C325 0.950 . S
H330 C327 0.950 . S
C331 C322 1.390 . S
C331 H324 0.950 . S
C331 C328 1.387 . S
C332 C333 1.387 . S
C332 H336 0.950 . S
C332 C341 1.390 . S
C333 C332 1.387 . S
C333 C335 1.387 . S
H334 C341 0.950 . S
C335 C333 1.387 . S
C335 C337 1.390 . S
C335 H339 0.950 . S
H336 C332 0.950 . S
C337 C335 1.390 . S
C337 C338 1.387 . S
C337 H340 0.950 . S
C338 C337 1.387 . S
C338 C341 1.387 . S
H339 C335 0.950 . S
H340 C337 0.950 . S
C341 C332 1.390 . S
C341 H334 0.950 . S
C341 C338 1.387 . S
C342 C343 1.387 . S
C342 H346 0.950 . S
C342 C351 1.390 . S
C343 C342 1.387 . S
C343 C345 1.387 . S
H344 C351 0.950 . S
C345 C343 1.387 . S
C345 C347 1.390 . S
C345 H349 0.950 . S
H346 C342 0.950 . S
C347 C345 1.390 . S
C347 C348 1.387 . S
C347 H350 0.950 . S
C348 C347 1.387 . S
C348 C351 1.387 . S
H349 C345 0.950 . S
H350 C347 0.950 . S
C351 C342 1.390 . S
C351 H344 0.950 . S
C351 C348 1.387 . S
C352 C353 1.387 . S
C352 H356 0.950 . S
C352 C361 1.390 . S
C353 C352 1.387 . S
C353 C355 1.387 . S
H354 C361 0.950 . S
C355 C353 1.387 . S
C355 C357 1.390 . S
C355 H359 0.950 . S
H356 C352 0.950 . S
C357 C355 1.390 . S
C357 C358 1.387 . S
C357 H360 0.950 1_556 S
C358 C357 1.387 . S
C358 C361 1.387 . S
H359 C355 0.950 . S
H360 C357 0.950 1_554 S
C361 C352 1.390 . S
C361 H354 0.950 . S
C361 C358 1.387 . S
C362 C363 1.387 . S
C362 H366 0.950 . S
C362 C371 1.390 . S
C363 C362 1.387 . S
C363 C365 1.387 . S
H364 C371 0.950 . S
C365 C363 1.387 . S
C365 C367 1.390 . S
C365 H369 0.950 . S
H366 C362 0.950 . S
C367 C365 1.390 . S
C367 C368 1.387 . S
C367 H370 0.950 . S
C368 C367 1.387 . S
C368 C371 1.387 . S
H369 C365 0.950 . S
H370 C367 0.950 . S
C371 C362 1.390 . S
C371 H364 0.950 . S
C371 C368 1.387 . S
C372 C373 1.387 . S
C372 H376 0.950 . S
C372 C381 1.390 . S
C373 C372 1.387 . S
C373 C375 1.387 . S
H374 C381 0.950 . S
C375 C373 1.387 . S
C375 C377 1.390 . S
C375 H379 0.950 . S
H376 C372 0.950 . S
C377 C375 1.390 . S
C377 C378 1.387 . S
C377 H380 0.950 . S
C378 C377 1.387 . S
C378 C381 1.387 . S
H379 C375 0.950 . S
H380 C377 0.950 . S
C381 C372 1.390 . S
C381 H374 0.950 . S
C381 C378 1.387 . S
C382 C383 1.387 . S
C382 H386 0.950 . S
C382 C391 1.390 . S
C383 C382 1.387 . S
C383 C385 1.387 . S
H384 C391 0.950 . S
C385 C383 1.387 . S
C385 C387 1.390 . S
C385 H389 0.950 . S
H386 C382 0.950 . S
C387 C385 1.390 . S
C387 C388 1.387 . S
C387 H390 0.950 . S
C388 C387 1.387 . S
C388 C391 1.387 . S
H389 C385 0.950 . S
H390 C387 0.950 . S
C391 C382 1.390 . S
C391 H384 0.950 . S
C391 C388 1.387 . S
C392 C393 1.387 . S
C392 H396 0.950 . S
C392 C401 1.390 . S
C393 C392 1.387 . S
C393 C395 1.387 . S
H394 C401 0.950 . S
C395 C393 1.387 . S
C395 C397 1.390 . S
C395 H399 0.950 . S
H396 C392 0.950 . S
C397 C395 1.390 . S
C397 C398 1.387 . S
C397 H400 0.950 . S
C398 C397 1.387 . S
C398 C401 1.387 . S
H399 C395 0.950 . S
H400 C397 0.950 . S
C401 C392 1.390 . S
C401 H394 0.950 . S
C401 C398 1.387 . S
C402 C403 1.387 . S
C402 H406 0.950 . S
C402 C411 1.390 . S
C403 C402 1.387 . S
C403 C405 1.387 . S
H404 C411 0.950 . S
C405 C403 1.387 . S
C405 C407 1.390 . S
C405 H409 0.950 . S
H406 C402 0.950 . S
C407 C405 1.390 . S
C407 C408 1.387 . S
C407 H410 0.950 . S
C408 C407 1.387 . S
C408 C411 1.387 . S
H409 C405 0.950 . S
H410 C407 0.950 . S
C411 C402 1.390 . S
C411 H404 0.950 . S
C411 C408 1.387 . S
C412 C413 1.387 . S
C412 H416 0.950 . S
C412 C421 1.390 . S
C413 C412 1.387 . S
C413 C415 1.387 . S
H414 C421 0.950 . S
C415 C413 1.387 . S
C415 C417 1.390 . S
C415 H419 0.950 . S
H416 C412 0.950 . S
C417 C415 1.390 . S
C417 C418 1.387 . S
C417 H420 0.950 1_556 S
C418 C417 1.387 . S
C418 C421 1.387 . S
H419 C415 0.950 . S
H420 C417 0.950 1_554 S
C421 C412 1.390 . S
C421 H414 0.950 . S
C421 C418 1.387 . S
C422 C423 1.387 . S
C422 H426 0.950 . S
C422 C431 1.390 . S
C423 C422 1.387 . S
C423 C425 1.387 . S
H424 C431 0.950 . S
C425 C423 1.387 . S
C425 C427 1.390 . S
C425 H429 0.950 . S
H426 C422 0.950 . S
C427 C425 1.390 . S
C427 C428 1.387 . S
C427 H430 0.950 . S
C428 C427 1.387 . S
C428 C431 1.387 . S
H429 C425 0.950 . S
H430 C427 0.950 . S
C431 C422 1.390 . S
C431 H424 0.950 . S
C431 C428 1.387 . S
C432 C433 1.387 . S
C432 H436 0.950 . S
C432 C441 1.390 . S
C433 C432 1.387 . S
C433 C435 1.387 . S
H434 C441 0.950 . S
C435 C433 1.387 . S
C435 C437 1.390 . S
C435 H439 0.950 . S
H436 C432 0.950 . S
C437 C435 1.390 . S
C437 C438 1.387 . S
C437 H440 0.950 . S
C438 C437 1.387 . S
C438 C441 1.387 . S
H439 C435 0.950 . S
H440 C437 0.950 . S
C441 C432 1.390 . S
C441 H434 0.950 . S
C441 C438 1.387 . S
C442 C443 1.387 . S
C442 H446 0.950 . S
C442 C451 1.390 . S
C443 C442 1.387 . S
C443 C445 1.387 . S
H444 C451 0.950 . S
C445 C443 1.387 . S
C445 C447 1.390 . S
C445 H449 0.950 . S
H446 C442 0.950 . S
C447 C445 1.390 . S
C447 C448 1.387 . S
C447 H450 0.950 . S
C448 C447 1.387 . S
C448 C451 1.387 . S
H449 C445 0.950 . S
H450 C447 0.950 . S
C451 C442 1.390 . S
C451 H444 0.950 . S
C451 C448 1.387 . S
C452 C453 1.387 . S
C452 H456 0.950 . S
C452 C461 1.390 . S
C453 C452 1.387 . S
C453 C455 1.387 . S
H454 C461 0.950 . S
C455 C453 1.387 . S
C455 C457 1.390 . S
C455 H459 0.950 1_556 S
H456 C452 0.950 . S
C457 C455 1.390 . S
C457 C458 1.387 . S
C457 H460 0.950 . S
C458 C457 1.387 . S
C458 C461 1.387 . S
H459 C455 0.950 1_554 S
H460 C457 0.950 . S
C461 C452 1.390 . S
C461 H454 0.950 . S
C461 C458 1.387 . S
C462 C463 1.387 . S
C462 H466 0.950 . S
C462 C471 1.390 . S
C463 C462 1.387 . S
C463 C465 1.387 . S
H464 C471 0.950 . S
C465 C463 1.387 . S
C465 C467 1.390 . S
C465 H469 0.950 . S
H466 C462 0.950 . S
C467 C465 1.390 . S
C467 C468 1.387 . S
C467 H470 0.950 . S
C468 C467 1.387 . S
C468 C471 1.387 . S
H469 C465 0.950 . S
H470 C467 0.950 . S
C471 C462 1.390 . S
C471 H464 0.950 . S
C471 C468 1.387 . S
C472 C473 1.387 . S
C472 H476 0.950 . S
C472 C481 1.390 . S
C473 C472 1.387 . S
C473 C475 1.387 1_655 S
H474 C481 0.950 . S
C475 C473 1.387 1_455 S
C475 C477 1.390 . S
C475 H479 0.950 . S
H476 C472 0.950 . S
C477 C475 1.390 . S
C477 C478 1.387 . S
C477 H480 0.950 . S
C478 C477 1.387 . S
C478 C481 1.387 1_455 S
H479 C475 0.950 . S
H480 C477 0.950 . S
C481 C472 1.390 . S
C481 H474 0.950 . S
C481 C478 1.387 1_655 S
C482 C483 1.387 . S
C482 H486 0.950 . S
C482 C491 1.390 . S
C483 C482 1.387 . S
C483 C485 1.387 . S
H484 C491 0.950 . S
C485 C483 1.387 . S
C485 C487 1.390 . S
C485 H489 0.950 . S
H486 C482 0.950 . S
C487 C485 1.390 . S
C487 C488 1.387 . S
C487 H490 0.950 . S
C488 C487 1.387 . S
C488 C491 1.387 . S
H489 C485 0.950 . S
H490 C487 0.950 . S
C491 C482 1.390 . S
C491 H484 0.950 . S
C491 C488 1.387 . S
C492 C493 1.387 . S
C492 H496 0.950 . S
C492 C501 1.390 1_556 S
C493 C492 1.387 . S
C493 C495 1.387 . S
H494 C501 0.950 . S
C495 C493 1.387 . S
C495 C497 1.390 1_556 S
C495 H499 0.950 . S
H496 C492 0.950 . S
C497 C495 1.390 1_554 S
C497 C498 1.387 . S
C497 H500 0.950 . S
C498 C497 1.387 . S
C498 C501 1.387 . S
H499 C495 0.950 . S
H500 C497 0.950 . S
C501 C492 1.390 1_554 S
C501 H494 0.950 . S
C501 C498 1.387 . S
C502 C503 1.387 1_565 S
C502 H506 0.950 . S
C502 C511 1.390 . S
C503 C502 1.387 1_545 S
C503 C505 1.387 . S
H504 C511 0.950 . S
C505 C503 1.387 . S
C505 C507 1.390 . S
C505 H509 0.950 . S
H506 C502 0.950 . S
C507 C505 1.390 . S
C507 C508 1.387 . S
C507 H510 0.950 . S
C508 C507 1.387 . S
C508 C511 1.387 1_545 S
H509 C505 0.950 . S
H510 C507 0.950 . S
C511 C502 1.390 . S
C511 H504 0.950 . S
C511 C508 1.387 1_565 S
C512 C513 1.387 . S
C512 H516 0.950 . S
C512 C521 1.390 1_554 S
C513 C512 1.387 . S
C513 C515 1.387 . S
H514 C521 0.950 . S
C515 C513 1.387 . S
C515 C517 1.390 1_554 S
C515 H519 0.950 . S
H516 C512 0.950 . S
C517 C515 1.390 1_556 S
C517 C518 1.387 . S
C517 H520 0.950 . S
C518 C517 1.387 . S
C518 C521 1.387 . S
H519 C515 0.950 . S
H520 C517 0.950 . S
C521 C512 1.390 1_556 S
C521 H514 0.950 . S
C521 C518 1.387 . S
C522 C523 1.387 . S
C522 H526 0.950 . S
C522 C531 1.390 . S
C523 C522 1.387 . S
C523 C525 1.387 1_545 S
H524 C531 0.950 . S
C525 C523 1.387 1_565 S
C525 C527 1.390 . S
C525 H529 0.950 . S
H526 C522 0.950 . S
C527 C525 1.390 . S
C527 C528 1.387 . S
C527 H530 0.950 . S
C528 C527 1.387 . S
C528 C531 1.387 1_565 S
H529 C525 0.950 . S
H530 C527 0.950 . S
C531 C522 1.390 . S
C531 H524 0.950 . S
C531 C528 1.387 1_545 S
C532 C533 1.387 . S
C532 H536 0.950 . S
C532 C541 1.390 . S
C533 C532 1.387 . S
C533 C535 1.387 . S
H534 C541 0.950 . S
C535 C533 1.387 . S
C535 C537 1.390 . S
C535 H539 0.950 . S
H536 C532 0.950 . S
C537 C535 1.390 . S
C537 C538 1.387 . S
C537 H540 0.950 . S
C538 C537 1.387 . S
C538 C541 1.387 . S
H539 C535 0.950 . S
H540 C537 0.950 . S
C541 C532 1.390 . S
C541 H534 0.950 . S
C541 C538 1.387 . S
C542 C543 1.387 . S
C542 H546 0.950 . S
C542 C551 1.390 . S
C543 C542 1.387 . S
C543 C545 1.387 . S
H544 C551 0.950 . S
C545 C543 1.387 . S
C545 C547 1.390 . S
C545 H549 0.950 . S
H546 C542 0.950 . S
C547 C545 1.390 . S
C547 C548 1.387 . S
C547 H550 0.950 . S
C548 C547 1.387 . S
C548 C551 1.387 . S
H549 C545 0.950 . S
H550 C547 0.950 . S
C551 C542 1.390 . S
C551 H544 0.950 . S
C551 C548 1.387 . S
C273 C232 0.898 . S
C278 C28 0.898 . S
C283 C62 0.898 . S
C288 C244 0.898 . S
C293 C164 0.906 . S
C298 C96 0.906 . S
C303 C108 0.898 . S
C308 C198 0.898 . S
C313 C171 2.032 . S
C318 C3 2.093 . S
C323 C37 2.093 . S
C328 C205 2.031 . S
C333 C71 2.093 . S
C338 C241 2.033 . S
C343 C103 2.093 . S
C348 C137 2.031 . S
C353 C130 1.653 . S
C358 C17 1.609 . S
C363 C51 1.606 . S
C368 C6 1.650 . S
C373 C40 1.653 . S
C378 C85 1.609 . S
C383 C119 1.606 . S
C388 C74 1.651 . S
C393 C35 2.033 . S
C398 C139 2.092 . S
C403 C69 2.032 . S
C408 C173 2.092 . S
C413 C105 2.031 . S
C418 C207 2.093 . S
C423 C239 2.092 . S
C428 C1 2.032 . S
C433 C266 1.651 . S
C438 C153 1.606 . S
C443 C187 1.608 . S
C448 C142 1.652 . S
C453 C221 1.609 . S
C458 C176 1.653 . S
C463 C210 1.651 . S
C468 C255 1.607 . S
C473 C22 1.435 . S
C478 C15 1.441 . S
C483 C49 1.441 . S
C488 C56 1.435 . S
C493 C90 1.434 . S
C498 C83 1.440 . S
C503 C124 1.436 . S
C508 C117 1.430 . S
C513 C151 1.440 . S
C518 C158 1.434 . S
C523 C185 1.436 . S
C528 C192 1.430 . S
C533 C226 1.434 . S
C538 C219 1.440 . S
C543 C253 1.435 . S
C548 C260 1.441 . S
