# Generated by pormake.
# Topology dmp, (4)-cn, num edge types: 1
# Building blocks:
#     Node 0, Type 0, BuildingBlock: AZAVOO_clean_sbu_0, # of connection points: 4
#     Node 1, Type 0, BuildingBlock: AZAVOO_clean_sbu_0, # of connection points: 4
#     Node 2, Type 0, BuildingBlock: AZAVOO_clean_sbu_0, # of connection points: 4
#     Node 3, Type 0, BuildingBlock: AZAVOO_clean_sbu_0, # of connection points: 4
#     Edge 4, Type (0, 0), BuildingBlock: UVAHIK_clean_linker_0, # of connection points: 2
#     Edge 5, Type (0, 0), BuildingBlock: UVAHIK_clean_linker_0, # of connection points: 2
#     Edge 6, Type (0, 0), BuildingBlock: UVAHIK_clean_linker_0, # of connection points: 2
#     Edge 7, Type (0, 0), BuildingBlock: UVAHIK_clean_linker_0, # of connection points: 2
#     Edge 8, Type (0, 0), BuildingBlock: UVAHIK_clean_linker_0, # of connection points: 2
#     Edge 9, Type (0, 0), BuildingBlock: UVAHIK_clean_linker_0, # of connection points: 2
#     Edge 10, Type (0, 0), BuildingBlock: UVAHIK_clean_linker_0, # of connection points: 2
#     Edge 11, Type (0, 0), BuildingBlock: UVAHIK_clean_linker_0, # of connection points: 2
# Relax obj value: 0.252
# Max RMSD: 0.267
# Mean RMSD: 0.267
data_MOF--net-dmp--node1-AZAVOO_clean_sbu_0--edge1-UVAHIK_clean_linker_0
_symmetry_space_group_name_H-M    P1
_symmetry_Int_Tables_number       1
_symmetry_cell_setting            triclinic
loop_
_symmetry_equiv_pos_as_xyz
'x, y, z'
_cell_length_a     47.370908
_cell_length_b     20.042979
_cell_length_c     27.449893
_cell_angle_alpha  90.059892
_cell_angle_beta   90.067528
_cell_angle_gamma 98.837426
loop_
_atom_site_label
_atom_site_type_symbol
_atom_site_fract_x
_atom_site_fract_y
_atom_site_fract_z
_atom_type_partial_charge
Mg0 Mg 0.07538 0.1241 0.34324 0.0
O1 O 0.11462 0.19882 0.31847 0.0
O2 O 0.14654 0.13962 0.28705 0.0
Mg3 Mg 0.12755 0.02772 0.29086 0.0
C4 C 0.13888 0.19577 0.29899 0.0
C5 C 0.0352 0.20714 0.39215 0.0
O6 O 0.03246 0.15116 0.41777 0.0
O7 O 0.06035 0.10638 0.26437 0.0
O8 O 0.09232 0.04446 0.23657 0.0
O9 O 0.09655 0.11771 0.4149 0.0
O10 O 0.10102 0.04958 0.35284 0.0
C11 C 0.07014 0.07264 0.23046 0.0
C12 C 0.10892 0.07069 0.39584 0.0
O13 O 0.05091 0.21178 0.35445 0.0
Mg14 Mg 0.41442 0.86948 0.33566 0.0
O15 O 0.37479 0.79387 0.31353 0.0
O16 O 0.34322 0.8514 0.27908 0.0
Mg17 Mg 0.36261 0.96317 0.27911 0.0
C18 C 0.3506 0.79599 0.29339 0.0
C19 C 0.45425 0.78892 0.38816 0.0
O20 O 0.45769 0.84705 0.4113 0.0
O21 O 0.42923 0.8806 0.25638 0.0
O22 O 0.39767 0.94175 0.226 0.0
O23 O 0.39395 0.88247 0.40692 0.0
O24 O 0.3892 0.94556 0.34224 0.0
C25 C 0.41962 0.91235 0.22119 0.0
C26 C 0.38172 0.92849 0.38619 0.0
O27 O 0.43833 0.78187 0.35064 0.0
Mg28 Mg 0.9141 0.88105 0.66518 0.0
O29 O 0.87401 0.80698 0.68718 0.0
O30 O 0.84162 0.86693 0.71596 0.0
Mg31 Mg 0.86167 0.97826 0.71564 0.0
C32 C 0.84926 0.81059 0.70452 0.0
C33 C 0.95366 0.79693 0.61616 0.0
O34 O 0.9567 0.85325 0.59091 0.0
O35 O 0.92746 0.89543 0.74495 0.0
O36 O 0.89538 0.95765 0.77195 0.0
O37 O 0.89477 0.8913 0.59234 0.0
O38 O 0.88941 0.95751 0.65507 0.0
C39 C 0.91716 0.92825 0.77885 0.0
C40 C 0.88255 0.93874 0.61114 0.0
O41 O 0.93797 0.79235 0.6539 0.0
Mg42 Mg 0.5798 0.12782 0.66526 0.0
O43 O 0.61916 0.20247 0.68983 0.0
O44 O 0.65242 0.14301 0.71589 0.0
Mg45 Mg 0.63341 0.03107 0.71188 0.0
C46 C 0.64411 0.1993 0.70657 0.0
C47 C 0.53674 0.20914 0.62319 0.0
O48 O 0.53228 0.15209 0.59872 0.0
O49 O 0.56634 0.10665 0.7442 0.0
O50 O 0.59917 0.04506 0.76906 0.0
O51 O 0.59959 0.12453 0.59219 0.0
O52 O 0.60547 0.05425 0.65217 0.0
C53 C 0.57688 0.07227 0.77686 0.0
C54 C 0.61239 0.0769 0.60919 0.0
O55 O 0.55475 0.21507 0.65785 0.0
C56 C 0.34384 0.92011 0.45028 0.0
C57 C 0.35704 0.95281 0.4091 0.0
C58 C 0.31819 0.93711 0.46781 0.0
C59 C 0.26833 0.06276 0.45663 0.0
H60 H 0.20959 0.90581 0.46754 0.0
C61 C 0.14546 0.99389 0.40076 0.0
C62 C 0.13448 0.05029 0.41857 0.0
C63 C 0.1719 0.98013 0.41676 0.0
C64 C 0.22579 0.95015 0.46516 0.0
H65 H 0.35502 0.03248 0.35643 0.0
H66 H 0.31017 0.06133 0.38634 0.0
H67 H 0.2596 0.89089 0.46389 0.0
H68 H 0.14158 0.13408 0.46949 0.0
H69 H 0.18801 0.11004 0.4974 0.0
H70 H 0.23436 0.12163 0.45436 0.0
C71 C 0.31957 0.0228 0.40534 0.0
C72 C 0.25447 0.94171 0.46355 0.0
C73 C 0.34513 0.00571 0.38778 0.0
C74 C 0.14959 0.09034 0.45497 0.0
C75 C 0.1762 0.07681 0.47079 0.0
C76 C 0.23963 0.0712 0.45825 0.0
C77 C 0.30539 0.98738 0.44466 0.0
C78 C 0.27595 0.99773 0.45722 0.0
C79 C 0.18795 0.02263 0.45082 0.0
C80 C 0.21804 0.01473 0.46048 0.0
H81 H 0.35264 0.87942 0.46774 0.0
H82 H 0.3079 0.90949 0.49851 0.0
H83 H 0.28446 0.10693 0.45247 0.0
H84 H 0.13413 0.96172 0.37307 0.0
H85 H 0.18046 0.93841 0.40025 0.0
C86 C 0.18445 0.2587 0.26477 0.0
C87 C 0.15948 0.25883 0.29241 0.0
C88 C 0.2048 0.31691 0.2611 0.0
C89 C 0.25245 0.43135 0.28432 0.0
H90 H 0.23011 0.60936 0.28163 0.0
C91 C 0.33386 0.67421 0.31399 0.0
C92 C 0.32985 0.73282 0.28847 0.0
C93 C 0.31334 0.61608 0.3118 0.0
C94 C 0.23681 0.56008 0.28174 0.0
H95 H 0.13624 0.32088 0.33741 0.0
H96 H 0.17195 0.42178 0.33198 0.0
H97 H 0.19356 0.50993 0.28068 0.0
H98 H 0.30146 0.77532 0.23928 0.0
H99 H 0.26617 0.67363 0.23434 0.0
H100 H 0.29571 0.48144 0.28394 0.0
C101 C 0.17561 0.3771 0.31225 0.0
C102 C 0.21576 0.5029 0.28193 0.0
C103 C 0.15513 0.31902 0.31556 0.0
C104 C 0.30516 0.7313 0.25974 0.0
C105 C 0.28478 0.67301 0.25719 0.0
C106 C 0.2735 0.48851 0.28375 0.0
C107 C 0.20086 0.37668 0.28533 0.0
C108 C 0.22328 0.43772 0.28354 0.0
C109 C 0.28839 0.61483 0.28366 0.0
C110 C 0.26598 0.55372 0.28277 0.0
H111 H 0.18843 0.21341 0.24613 0.0
H112 H 0.22366 0.31494 0.23921 0.0
H113 H 0.25913 0.38212 0.28623 0.0
H114 H 0.35253 0.67367 0.33673 0.0
H115 H 0.31673 0.5727 0.33325 0.0
C116 C 0.64883 1.00047 0.60006 0.0
C117 C 0.63728 0.05698 0.58398 0.0
C118 C 0.67474 0.98697 0.58155 0.0
C119 C 0.72744 0.95785 0.52961 0.0
H120 H 0.78586 0.11572 0.53849 0.0
C121 C 0.8453 0.92829 0.54566 0.0
C122 C 0.85839 0.96285 0.58633 0.0
C123 C 0.81985 0.945 0.52688 0.0
C124 C 0.76979 0.07121 0.53534 0.0
H125 H 0.64271 0.14108 0.53342 0.0
H126 H 0.6882 0.11741 0.50099 0.0
H127 H 0.73568 0.1295 0.53878 0.0
H128 H 0.85655 0.0457 0.63648 0.0
H129 H 0.81206 0.0739 0.60461 0.0
H130 H 0.76146 0.89921 0.53021 0.0
C131 C 0.67728 0.08396 0.52827 0.0
C132 C 0.74102 0.07912 0.53495 0.0
C133 C 0.65121 0.09731 0.5467 0.0
C134 C 0.84671 0.01743 0.60562 0.0
C135 C 0.82136 0.03417 0.58687 0.0
C136 C 0.7562 0.94993 0.53016 0.0
C137 C 0.6897 0.02975 0.54655 0.0
C138 C 0.71955 0.02229 0.53442 0.0
C139 C 0.80715 0.99678 0.5483 0.0
C140 C 0.77763 0.00637 0.53536 0.0
H141 H 0.6384 0.96801 0.62834 0.0
H142 H 0.68383 0.94523 0.59687 0.0
H143 H 0.71135 0.9132 0.52832 0.0
H144 H 0.85395 0.88629 0.52973 0.0
H145 H 0.80958 0.91583 0.49675 0.0
C146 C 0.83694 0.68394 0.70586 0.0
C147 C 0.82831 0.74784 0.70979 0.0
C148 C 0.81691 0.62501 0.70921 0.0
C149 C 0.74094 0.56201 0.69016 0.0
H150 H 0.75499 0.41042 0.76931 0.0
C151 C 0.65529 0.32585 0.71162 0.0
C152 C 0.66463 0.26261 0.71271 0.0
C153 C 0.67492 0.38549 0.71466 0.0
C154 C 0.75083 0.45187 0.7465 0.0
H155 H 0.79176 0.79959 0.72059 0.0
H156 H 0.7569 0.69685 0.72586 0.0
H157 H 0.79023 0.51288 0.76736 0.0
H158 H 0.70204 0.21267 0.71809 0.0
H159 H 0.7362 0.31619 0.72193 0.0
H160 H 0.70205 0.50092 0.668 0.0
C161 C 0.77917 0.69246 0.72022 0.0
C162 C 0.77103 0.51067 0.74555 0.0
C163 C 0.79921 0.75131 0.71748 0.0
C164 C 0.69404 0.26046 0.71755 0.0
C165 C 0.71368 0.32005 0.72 0.0
C166 C 0.72091 0.503 0.69062 0.0
C167 C 0.78777 0.6287 0.71592 0.0
C168 C 0.76629 0.56636 0.71738 0.0
C169 C 0.70444 0.38347 0.71825 0.0
C170 C 0.72555 0.44702 0.71879 0.0
H171 H 0.85917 0.67937 0.69998 0.0
H172 H 0.82412 0.57654 0.70542 0.0
H173 H 0.73688 0.60381 0.66758 0.0
H174 H 0.63278 0.32937 0.70825 0.0
H175 H 0.66689 0.43323 0.71418 0.0
C176 C 0.0662 0.0278 0.14512 0.0
C177 C 0.05483 0.06253 0.18317 0.0
C178 C 0.0512 0.01391 0.10159 0.0
C179 C 0.97851 0.99424 0.05034 0.0
H180 H 0.01839 0.00765 0.92658 0.0
C181 C 0.91994 0.97036 0.86499 0.0
C182 C 0.93167 0.93634 0.82694 0.0
C183 C 0.93452 0.98323 0.90906 0.0
C184 C 0.00699 0.00274 0.96089 0.0
H185 H 0.01887 0.11114 0.20459 0.0
H186 H 0.99275 0.08736 0.12814 0.0
H187 H 0.04485 0.03912 1.00144 0.0
H188 H 0.96765 0.88736 0.8062 0.0
H189 H 0.99299 0.90937 0.88346 0.0
H190 H 0.94064 0.95794 0.0097 0.0
C191 C 0.01319 0.07017 0.13245 0.0
C192 C 0.02214 0.02099 0.0038 0.0
C193 C 0.02827 0.08425 0.17612 0.0
C194 C 0.95801 0.91383 0.83462 0.0
C195 C 0.97264 0.92689 0.87877 0.0
C196 C 0.96335 0.97601 0.00739 0.0
C197 C 0.02441 0.03435 0.09484 0.0
C198 C 0.0081 0.01688 0.04906 0.0
C199 C 0.96122 0.96249 0.91627 0.0
C200 C 0.97742 0.98001 0.96215 0.0
H201 H 0.08659 0.01022 0.14912 0.0
H202 H 0.06032 0.98556 0.07365 0.0
H203 H 0.96712 0.98939 0.08465 0.0
H204 H 0.89969 0.98842 0.86051 0.0
H205 H 0.92522 0.01131 0.93696 0.0
C206 C 0.57379 0.02365 0.86121 0.0
C207 C 0.56195 0.0594 0.82422 0.0
C208 C 0.55879 0.00636 0.90431 0.0
C209 C 0.48567 0.97784 0.95344 0.0
H210 H 0.52369 0.99092 0.07905 0.0
C211 C 0.4239 0.95186 0.13463 0.0
C212 C 0.43509 0.9194 0.17402 0.0
C213 C 0.43932 0.96427 0.09146 0.0
C214 C 0.51284 0.98595 0.04419 0.0
H215 H 0.52528 0.10656 0.80442 0.0
H216 H 0.49924 0.07677 0.87989 0.0
H217 H 0.55102 0.02548 0.00561 0.0
H218 H 0.47104 0.87256 0.19807 0.0
H219 H 0.49791 0.89367 0.12224 0.0
H220 H 0.44749 0.93841 0.9919 0.0
C221 C 0.52 0.06138 0.87512 0.0
C222 C 0.52848 0.00601 0.00212 0.0
C223 C 0.53504 0.07893 0.83201 0.0
C224 C 0.46179 0.8978 0.16855 0.0
C225 C 0.47729 0.91036 0.12522 0.0
C226 C 0.47004 0.95766 0.99546 0.0
C227 C 0.53156 0.02419 0.91151 0.0
C228 C 0.51503 0.00266 0.9563 0.0
C229 C 0.46637 0.94451 0.0864 0.0
C230 C 0.48338 0.96197 0.0414 0.0
H231 H 0.59446 0.00776 0.85657 0.0
H232 H 0.56822 0.97727 0.93142 0.0
H233 H 0.47478 0.97331 0.9186 0.0
H234 H 0.4034 0.96919 0.13738 0.0
H235 H 0.43039 0.99135 0.06259 0.0
C236 C 0.95789 0.67375 0.61899 0.0
C237 C 0.96495 0.73733 0.59688 0.0
C238 C 0.96586 0.61628 0.59732 0.0
C239 C 0.01444 0.55991 0.50563 0.0
H240 H 0.95704 0.39974 0.49941 0.0
C241 C 0.03033 0.3299 0.38849 0.0
C242 C 0.02352 0.2665 0.41095 0.0
C243 C 0.0221 0.38732 0.40977 0.0
C244 C 0.97338 0.44388 0.50117 0.0
H245 H 0.98684 0.79079 0.53569 0.0
H246 H 0.00056 0.69074 0.49794 0.0
H247 H 0.94646 0.49985 0.54197 0.0
H248 H 0.00169 0.21323 0.47226 0.0
H249 H 0.98748 0.31322 0.50934 0.0
H250 H 0.04136 0.50396 0.46485 0.0
C251 C 0.98903 0.68521 0.53211 0.0
C252 C 0.96736 0.50115 0.52571 0.0
C253 C 0.98105 0.74258 0.5537 0.0
C254 C 0.00732 0.26132 0.45402 0.0
C255 C -0.00095 0.31864 0.47521 0.0
C256 C 0.02045 0.50266 0.48108 0.0
C257 C 0.9811 0.62124 0.5532 0.0
C258 C 0.98783 0.55982 0.52824 0.0
C259 C 0.00681 0.38248 0.45384 0.0
C260 C -0.0 0.44398 0.47858 0.0
H261 H 0.94555 0.66802 0.65232 0.0
H262 H 0.95983 0.56783 0.61489 0.0
H263 H 0.03079 0.60402 0.50742 0.0
H264 H 0.04273 0.33559 0.35521 0.0
H265 H 0.02799 0.43567 0.39199 0.0
C266 C 0.48245 0.73872 0.45171 0.0
C267 C 0.46528 0.73038 0.40969 0.0
C268 C 0.49022 0.68276 0.47557 0.0
C269 C 0.46641 0.50091 0.49209 0.0
H270 H 0.54232 0.50191 0.54534 0.0
C271 C 0.50591 0.26181 0.56529 0.0
C272 C 0.52445 0.26826 0.6056 0.0
C273 C 0.49722 0.31875 0.54431 0.0
C274 C 0.52089 0.50123 0.53137 0.0
H275 H 0.44365 0.65684 0.35873 0.0
H276 H 0.45745 0.55912 0.4002 0.0
H277 H 0.53158 0.59986 0.50042 0.0
H278 H 0.54727 0.33927 0.65705 0.0
H279 H 0.53177 0.43871 0.62072 0.0
H280 H 0.45571 0.40227 0.52296 0.0
C281 C 0.46455 0.60897 0.41505 0.0
C282 C 0.51478 0.55725 0.50545 0.0
C283 C 0.45687 0.665 0.39105 0.0
C284 C 0.53306 0.3326 0.62588 0.0
C285 C 0.52438 0.38963 0.60483 0.0
C286 C 0.4725 0.44494 0.51808 0.0
C287 C 0.48092 0.61719 0.45801 0.0
C288 C 0.48752 0.55757 0.4853 0.0
C289 C 0.50686 0.38347 0.56316 0.0
C290 C 0.49985 0.44431 0.53782 0.0
H291 H 0.4893 0.78841 0.46703 0.0
H292 H 0.50269 0.69075 0.50874 0.0
H293 H 0.44504 0.50015 0.47781 0.0
H294 H 0.49883 0.21297 0.54881 0.0
H295 H 0.4839 0.31222 0.51204 0.0
loop_
_geom_bond_atom_site_label_1
_geom_bond_atom_site_label_2
_geom_bond_distance
_geom_bond_site_symmetry_2
_ccdc_geom_bond_type
Mg0 O1 2.028 . S
Mg0 O7 1.986 . S
Mg0 O9 2.114 . S
Mg0 O10 2.251 . S
Mg0 O13 2.010 . S
O1 Mg0 2.028 . S
O1 C4 1.250 . S
O2 Mg3 2.028 . S
O2 C4 1.248 . S
Mg3 O2 2.028 . S
Mg3 O8 2.032 . S
Mg3 O10 2.079 . S
C4 O1 1.250 . S
C4 O2 1.248 . S
C5 O6 1.264 . S
C5 O13 1.249 . S
O6 C5 1.264 . S
O7 Mg0 1.986 . S
O7 C11 1.246 . S
O8 Mg3 2.032 . S
O8 C11 1.259 . S
O9 Mg0 2.114 . S
O9 C12 1.252 . S
O10 Mg0 2.251 . S
O10 Mg3 2.079 . S
O10 C12 1.273 . S
C11 O7 1.246 . S
C11 O8 1.259 . S
C12 O9 1.252 . S
C12 O10 1.273 . S
O13 Mg0 2.010 . S
O13 C5 1.249 . S
Mg14 O15 2.028 . S
Mg14 O21 1.986 . S
Mg14 O23 2.114 . S
Mg14 O24 2.251 . S
Mg14 O27 2.010 . S
O15 Mg14 2.028 . S
O15 C18 1.250 . S
O16 Mg17 2.028 . S
O16 C18 1.248 . S
Mg17 O16 2.028 . S
Mg17 O22 2.032 . S
Mg17 O24 2.079 . S
C18 O15 1.250 . S
C18 O16 1.248 . S
C19 O20 1.264 . S
C19 O27 1.249 . S
O20 C19 1.264 . S
O21 Mg14 1.986 . S
O21 C25 1.246 . S
O22 Mg17 2.032 . S
O22 C25 1.259 . S
O23 Mg14 2.114 . S
O23 C26 1.252 . S
O24 Mg14 2.251 . S
O24 Mg17 2.079 . S
O24 C26 1.273 . S
C25 O21 1.246 . S
C25 O22 1.259 . S
C26 O23 1.252 . S
C26 O24 1.273 . S
O27 Mg14 2.010 . S
O27 C19 1.249 . S
Mg28 O29 2.028 . S
Mg28 O35 1.986 . S
Mg28 O37 2.114 . S
Mg28 O38 2.251 . S
Mg28 O41 2.010 . S
O29 Mg28 2.028 . S
O29 C32 1.250 . S
O30 Mg31 2.028 . S
O30 C32 1.248 . S
Mg31 O30 2.028 . S
Mg31 O36 2.032 . S
Mg31 O38 2.079 . S
C32 O29 1.250 . S
C32 O30 1.248 . S
C33 O34 1.264 . S
C33 O41 1.249 . S
O34 C33 1.264 . S
O35 Mg28 1.986 . S
O35 C39 1.246 . S
O36 Mg31 2.032 . S
O36 C39 1.259 . S
O37 Mg28 2.114 . S
O37 C40 1.252 . S
O38 Mg28 2.251 . S
O38 Mg31 2.079 . S
O38 C40 1.273 . S
C39 O35 1.246 . S
C39 O36 1.259 . S
C40 O37 1.252 . S
C40 O38 1.273 . S
O41 Mg28 2.010 . S
O41 C33 1.249 . S
Mg42 O43 2.028 . S
Mg42 O49 1.986 . S
Mg42 O51 2.114 . S
Mg42 O52 2.251 . S
Mg42 O55 2.010 . S
O43 Mg42 2.028 . S
O43 C46 1.250 . S
O44 Mg45 2.028 . S
O44 C46 1.248 . S
Mg45 O44 2.028 . S
Mg45 O50 2.032 . S
Mg45 O52 2.079 . S
C46 O43 1.250 . S
C46 O44 1.248 . S
C47 O48 1.264 . S
C47 O55 1.249 . S
O48 C47 1.264 . S
O49 Mg42 1.986 . S
O49 C53 1.246 . S
O50 Mg45 2.032 . S
O50 C53 1.259 . S
O51 Mg42 2.114 . S
O51 C54 1.252 . S
O52 Mg42 2.251 . S
O52 Mg45 2.079 . S
O52 C54 1.273 . S
C53 O49 1.246 . S
C53 O50 1.259 . S
C54 O51 1.252 . S
C54 O52 1.273 . S
O55 Mg42 2.010 . S
O55 C47 1.249 . S
C56 C57 1.349 . S
C56 C58 1.327 . S
C56 H81 0.950 . S
C57 C56 1.349 . S
C57 C73 1.349 . S
C58 C56 1.327 . S
C58 C77 1.429 . S
C58 H82 0.950 . S
C59 C76 1.574 . S
C59 C78 1.368 . S
C59 H83 0.949 . S
H60 C64 0.949 . S
C61 C62 1.349 . S
C61 C63 1.327 . S
C61 H84 0.950 . S
C62 C61 1.349 . S
C62 C74 1.349 . S
C63 C61 1.327 . S
C63 C79 1.429 . S
C63 H85 0.950 . S
C64 H60 0.949 . S
C64 C72 1.574 . S
C64 C80 1.368 . S
H65 C73 0.950 . S
H66 C71 0.950 . S
H67 C72 0.949 . S
H68 C74 0.950 . S
H69 C75 0.950 . S
H70 C76 0.949 . S
C71 H66 0.950 . S
C71 C73 1.327 . S
C71 C77 1.429 . S
C72 C64 1.574 . S
C72 H67 0.949 . S
C72 C78 1.368 1_545 S
C73 C57 1.349 . S
C73 H65 0.950 . S
C73 C71 1.327 . S
C74 C62 1.349 . S
C74 H68 0.950 . S
C74 C75 1.327 . S
C75 H69 0.950 . S
C75 C74 1.327 . S
C75 C79 1.429 . S
C76 C59 1.574 . S
C76 H70 0.949 . S
C76 C80 1.368 1_565 S
C77 C58 1.429 . S
C77 C71 1.429 . S
C77 C78 1.523 . S
C78 C59 1.368 . S
C78 C72 1.368 1_565 S
C78 C77 1.523 . S
C79 C63 1.429 . S
C79 C75 1.429 . S
C79 C80 1.523 . S
C80 C64 1.368 . S
C80 C76 1.368 1_545 S
C80 C79 1.523 . S
H81 C56 0.950 . S
H82 C58 0.950 . S
H83 C59 0.949 . S
H84 C61 0.950 . S
H85 C63 0.950 . S
C86 C87 1.349 . S
C86 C88 1.327 . S
C86 H111 0.950 . S
C87 C86 1.349 . S
C87 C103 1.349 . S
C88 C86 1.327 . S
C88 C107 1.429 . S
C88 H112 0.950 . S
C89 C106 1.574 . S
C89 C108 1.368 . S
C89 H113 0.949 . S
H90 C94 0.949 . S
C91 C92 1.349 . S
C91 C93 1.327 . S
C91 H114 0.950 . S
C92 C91 1.349 . S
C92 C104 1.349 . S
C93 C91 1.327 . S
C93 C109 1.429 . S
C93 H115 0.950 . S
C94 H90 0.949 . S
C94 C102 1.574 . S
C94 C110 1.368 . S
H95 C103 0.950 . S
H96 C101 0.950 . S
H97 C102 0.949 . S
H98 C104 0.950 . S
H99 C105 0.950 . S
H100 C106 0.949 . S
C101 H96 0.950 . S
C101 C103 1.327 . S
C101 C107 1.429 . S
C102 C94 1.574 . S
C102 H97 0.949 . S
C102 C108 1.368 . S
C103 C87 1.349 . S
C103 H95 0.950 . S
C103 C101 1.327 . S
C104 C92 1.349 . S
C104 H98 0.950 . S
C104 C105 1.327 . S
C105 H99 0.950 . S
C105 C104 1.327 . S
C105 C109 1.429 . S
C106 C89 1.574 . S
C106 H100 0.949 . S
C106 C110 1.368 . S
C107 C88 1.429 . S
C107 C101 1.429 . S
C107 C108 1.523 . S
C108 C89 1.368 . S
C108 C102 1.368 . S
C108 C107 1.523 . S
C109 C93 1.429 . S
C109 C105 1.429 . S
C109 C110 1.523 . S
C110 C94 1.368 . S
C110 C106 1.368 . S
C110 C109 1.523 . S
H111 C86 0.950 . S
H112 C88 0.950 . S
H113 C89 0.949 . S
H114 C91 0.950 . S
H115 C93 0.950 . S
C116 C117 1.349 . S
C116 C118 1.327 . S
C116 H141 0.950 . S
C117 C116 1.349 . S
C117 C133 1.349 . S
C118 C116 1.327 . S
C118 C137 1.429 . S
C118 H142 0.950 . S
C119 C136 1.574 . S
C119 C138 1.368 . S
C119 H143 0.949 . S
H120 C124 0.949 . S
C121 C122 1.349 . S
C121 C123 1.327 . S
C121 H144 0.950 . S
C122 C121 1.349 . S
C122 C134 1.349 . S
C123 C121 1.327 . S
C123 C139 1.429 . S
C123 H145 0.950 . S
C124 H120 0.949 . S
C124 C132 1.574 . S
C124 C140 1.368 . S
H125 C133 0.950 . S
H126 C131 0.950 . S
H127 C132 0.949 . S
H128 C134 0.950 . S
H129 C135 0.950 . S
H130 C136 0.949 . S
C131 H126 0.950 . S
C131 C133 1.327 . S
C131 C137 1.429 . S
C132 C124 1.574 . S
C132 H127 0.949 . S
C132 C138 1.368 1_565 S
C133 C117 1.349 . S
C133 H125 0.950 . S
C133 C131 1.327 . S
C134 C122 1.349 . S
C134 H128 0.950 . S
C134 C135 1.327 . S
C135 H129 0.950 . S
C135 C134 1.327 . S
C135 C139 1.429 . S
C136 C119 1.574 . S
C136 H130 0.949 . S
C136 C140 1.368 1_545 S
C137 C118 1.429 . S
C137 C131 1.429 . S
C137 C138 1.523 . S
C138 C119 1.368 . S
C138 C132 1.368 1_545 S
C138 C137 1.523 . S
C139 C123 1.429 . S
C139 C135 1.429 . S
C139 C140 1.523 . S
C140 C124 1.368 . S
C140 C136 1.368 1_565 S
C140 C139 1.523 . S
H141 C116 0.950 . S
H142 C118 0.950 . S
H143 C119 0.949 . S
H144 C121 0.950 . S
H145 C123 0.950 . S
C146 C147 1.349 . S
C146 C148 1.327 . S
C146 H171 0.950 . S
C147 C146 1.349 . S
C147 C163 1.349 . S
C148 C146 1.327 . S
C148 C167 1.429 . S
C148 H172 0.950 . S
C149 C166 1.574 . S
C149 C168 1.368 . S
C149 H173 0.949 . S
H150 C154 0.949 . S
C151 C152 1.349 . S
C151 C153 1.327 . S
C151 H174 0.950 . S
C152 C151 1.349 . S
C152 C164 1.349 . S
C153 C151 1.327 . S
C153 C169 1.429 . S
C153 H175 0.950 . S
C154 H150 0.949 . S
C154 C162 1.574 . S
C154 C170 1.368 . S
H155 C163 0.950 . S
H156 C161 0.950 . S
H157 C162 0.949 . S
H158 C164 0.950 . S
H159 C165 0.950 . S
H160 C166 0.949 . S
C161 H156 0.950 . S
C161 C163 1.327 . S
C161 C167 1.429 . S
C162 C154 1.574 . S
C162 H157 0.949 . S
C162 C168 1.368 . S
C163 C147 1.349 . S
C163 H155 0.950 . S
C163 C161 1.327 . S
C164 C152 1.349 . S
C164 H158 0.950 . S
C164 C165 1.327 . S
C165 H159 0.950 . S
C165 C164 1.327 . S
C165 C169 1.429 . S
C166 C149 1.574 . S
C166 H160 0.949 . S
C166 C170 1.368 . S
C167 C148 1.429 . S
C167 C161 1.429 . S
C167 C168 1.523 . S
C168 C149 1.368 . S
C168 C162 1.368 . S
C168 C167 1.523 . S
C169 C153 1.429 . S
C169 C165 1.429 . S
C169 C170 1.523 . S
C170 C154 1.368 . S
C170 C166 1.368 . S
C170 C169 1.523 . S
H171 C146 0.950 . S
H172 C148 0.950 . S
H173 C149 0.949 . S
H174 C151 0.950 . S
H175 C153 0.950 . S
C176 C177 1.349 . S
C176 C178 1.327 . S
C176 H201 0.950 . S
C177 C176 1.349 . S
C177 C193 1.349 . S
C178 C176 1.327 . S
C178 C197 1.429 . S
C178 H202 0.950 . S
C179 C196 1.574 1_455 S
C179 C198 1.368 1_565 S
C179 H203 0.949 . S
H180 C184 0.949 . S
C181 C182 1.349 . S
C181 C183 1.327 . S
C181 H204 0.950 . S
C182 C181 1.349 . S
C182 C194 1.349 . S
C183 C181 1.327 . S
C183 C199 1.429 . S
C183 H205 0.950 . S
C184 H180 0.949 . S
C184 C192 1.574 1_655 S
C184 C200 1.368 1_545 S
H185 C193 0.950 . S
H186 C191 0.950 . S
H187 C192 0.949 . S
H188 C194 0.950 . S
H189 C195 0.950 . S
H190 C196 0.949 . S
C191 H186 0.950 . S
C191 C193 1.327 . S
C191 C197 1.429 . S
C192 C184 1.574 1_455 S
C192 H187 0.949 . S
C192 C198 1.368 1_556 S
C193 C177 1.349 . S
C193 H185 0.950 . S
C193 C191 1.327 . S
C194 C182 1.349 . S
C194 H188 0.950 . S
C194 C195 1.327 . S
C195 H189 0.950 . S
C195 C194 1.327 . S
C195 C199 1.429 . S
C196 C179 1.574 1_655 S
C196 H190 0.949 . S
C196 C200 1.368 1_554 S
C197 C178 1.429 . S
C197 C191 1.429 . S
C197 C198 1.523 . S
C198 C179 1.368 1_545 S
C198 C192 1.368 1_554 S
C198 C197 1.523 . S
C199 C183 1.429 . S
C199 C195 1.429 . S
C199 C200 1.523 . S
C200 C184 1.368 1_565 S
C200 C196 1.368 1_556 S
C200 C199 1.523 . S
H201 C176 0.950 . S
H202 C178 0.950 . S
H203 C179 0.949 . S
H204 C181 0.950 . S
H205 C183 0.950 . S
C206 C207 1.349 . S
C206 C208 1.327 . S
C206 H231 0.950 . S
C207 C206 1.349 . S
C207 C223 1.349 . S
C208 C206 1.327 . S
C208 C227 1.429 . S
C208 H232 0.950 . S
C209 C226 1.574 1_556 S
C209 C228 1.368 . S
C209 H233 0.949 . S
H210 C214 0.949 . S
C211 C212 1.349 . S
C211 C213 1.327 . S
C211 H234 0.950 . S
C212 C211 1.349 . S
C212 C224 1.349 . S
C213 C211 1.327 . S
C213 C229 1.429 . S
C213 H235 0.950 . S
C214 H210 0.949 . S
C214 C222 1.574 1_554 S
C214 C230 1.368 . S
H215 C223 0.950 . S
H216 C221 0.950 . S
H217 C222 0.949 . S
H218 C224 0.950 . S
H219 C225 0.950 . S
H220 C226 0.949 . S
C221 H216 0.950 . S
C221 C223 1.327 . S
C221 C227 1.429 . S
C222 C214 1.574 1_556 S
C222 H217 0.949 . S
C222 C228 1.368 1_565 S
C223 C207 1.349 . S
C223 H215 0.950 . S
C223 C221 1.327 . S
C224 C212 1.349 . S
C224 H218 0.950 . S
C224 C225 1.327 . S
C225 H219 0.950 . S
C225 C224 1.327 . S
C225 C229 1.429 . S
C226 C209 1.574 1_554 S
C226 H220 0.949 . S
C226 C230 1.368 1_545 S
C227 C208 1.429 . S
C227 C221 1.429 . S
C227 C228 1.523 . S
C228 C209 1.368 . S
C228 C222 1.368 1_545 S
C228 C227 1.523 . S
C229 C213 1.429 . S
C229 C225 1.429 . S
C229 C230 1.523 . S
C230 C214 1.368 . S
C230 C226 1.368 1_565 S
C230 C229 1.523 . S
H231 C206 0.950 . S
H232 C208 0.950 . S
H233 C209 0.949 . S
H234 C211 0.950 . S
H235 C213 0.950 . S
C236 C237 1.349 . S
C236 C238 1.327 . S
C236 H261 0.950 . S
C237 C236 1.349 . S
C237 C253 1.349 . S
C238 C236 1.327 . S
C238 C257 1.429 . S
C238 H262 0.950 . S
C239 C256 1.574 . S
C239 C258 1.368 1_455 S
C239 H263 0.949 . S
H240 C244 0.949 . S
C241 C242 1.349 . S
C241 C243 1.327 . S
C241 H264 0.950 . S
C242 C241 1.349 . S
C242 C254 1.349 . S
C243 C241 1.327 . S
C243 C259 1.429 . S
C243 H265 0.950 . S
C244 H240 0.949 . S
C244 C252 1.574 . S
C244 C260 1.368 1_655 S
H245 C253 0.950 . S
H246 C251 0.950 . S
H247 C252 0.949 . S
H248 C254 0.950 . S
H249 C255 0.950 . S
H250 C256 0.949 . S
C251 H246 0.950 . S
C251 C253 1.327 . S
C251 C257 1.429 . S
C252 C244 1.574 . S
C252 H247 0.949 . S
C252 C258 1.368 . S
C253 C237 1.349 . S
C253 H245 0.950 . S
C253 C251 1.327 . S
C254 C242 1.349 . S
C254 H248 0.950 . S
C254 C255 1.327 . S
C255 H249 0.950 . S
C255 C254 1.327 . S
C255 C259 1.429 . S
C256 C239 1.574 . S
C256 H250 0.949 . S
C256 C260 1.368 . S
C257 C238 1.429 . S
C257 C251 1.429 . S
C257 C258 1.523 . S
C258 C239 1.368 1_655 S
C258 C252 1.368 . S
C258 C257 1.523 . S
C259 C243 1.429 . S
C259 C255 1.429 . S
C259 C260 1.523 . S
C260 C244 1.368 1_455 S
C260 C256 1.368 . S
C260 C259 1.523 . S
H261 C236 0.950 . S
H262 C238 0.950 . S
H263 C239 0.949 . S
H264 C241 0.950 . S
H265 C243 0.950 . S
C266 C267 1.349 . S
C266 C268 1.327 . S
C266 H291 0.950 . S
C267 C266 1.349 . S
C267 C283 1.349 . S
C268 C266 1.327 . S
C268 C287 1.429 . S
C268 H292 0.950 . S
C269 C286 1.574 . S
C269 C288 1.368 . S
C269 H293 0.949 . S
H270 C274 0.949 . S
C271 C272 1.349 . S
C271 C273 1.327 . S
C271 H294 0.950 . S
C272 C271 1.349 . S
C272 C284 1.349 . S
C273 C271 1.327 . S
C273 C289 1.429 . S
C273 H295 0.950 . S
C274 H270 0.949 . S
C274 C282 1.574 . S
C274 C290 1.368 . S
H275 C283 0.950 . S
H276 C281 0.950 . S
H277 C282 0.949 . S
H278 C284 0.950 . S
H279 C285 0.950 . S
H280 C286 0.949 . S
C281 H276 0.950 . S
C281 C283 1.327 . S
C281 C287 1.429 . S
C282 C274 1.574 . S
C282 H277 0.949 . S
C282 C288 1.368 . S
C283 C267 1.349 . S
C283 H275 0.950 . S
C283 C281 1.327 . S
C284 C272 1.349 . S
C284 H278 0.950 . S
C284 C285 1.327 . S
C285 H279 0.950 . S
C285 C284 1.327 . S
C285 C289 1.429 . S
C286 C269 1.574 . S
C286 H280 0.949 . S
C286 C290 1.368 . S
C287 C268 1.429 . S
C287 C281 1.429 . S
C287 C288 1.523 . S
C288 C269 1.368 . S
C288 C282 1.368 . S
C288 C287 1.523 . S
C289 C273 1.429 . S
C289 C285 1.429 . S
C289 C290 1.523 . S
C290 C274 1.368 . S
C290 C286 1.368 . S
C290 C289 1.523 . S
H291 C266 0.950 . S
H292 C268 0.950 . S
H293 C269 0.949 . S
H294 C271 0.950 . S
H295 C273 0.950 . S
C57 C26 0.608 . S
C62 C12 0.608 . S
C87 C4 0.522 . S
C92 C18 0.522 . S
C117 C54 0.608 . S
C122 C40 0.608 . S
C147 C32 0.522 . S
C152 C46 0.522 . S
C177 C11 1.484 . S
C182 C39 1.484 . S
C207 C53 1.484 . S
C212 C25 1.484 . S
C237 C33 1.466 . S
C242 C5 1.466 . S
C267 C19 1.466 . S
C272 C47 1.466 . S
