# Generated by pormake.
# Topology umb, (4)-cn, num edge types: 1
# Building blocks:
#     Node 0, Type 0, BuildingBlock: KOZSID_clean_sbu_0, # of connection points: 4
#     Node 1, Type 0, BuildingBlock: KOZSID_clean_sbu_0, # of connection points: 4
#     Node 2, Type 0, BuildingBlock: KOZSID_clean_sbu_0, # of connection points: 4
#     Node 3, Type 0, BuildingBlock: KOZSID_clean_sbu_0, # of connection points: 4
#     Node 4, Type 0, BuildingBlock: KOZSID_clean_sbu_0, # of connection points: 4
#     Node 5, Type 0, BuildingBlock: KOZSID_clean_sbu_0, # of connection points: 4
#     Node 6, Type 0, BuildingBlock: KOZSID_clean_sbu_0, # of connection points: 4
#     Node 7, Type 0, BuildingBlock: KOZSID_clean_sbu_0, # of connection points: 4
#     Node 8, Type 0, BuildingBlock: KOZSID_clean_sbu_0, # of connection points: 4
#     Node 9, Type 0, BuildingBlock: KOZSID_clean_sbu_0, # of connection points: 4
#     Node 10, Type 0, BuildingBlock: KOZSID_clean_sbu_0, # of connection points: 4
#     Node 11, Type 0, BuildingBlock: KOZSID_clean_sbu_0, # of connection points: 4
#     Edge 12, Type (0, 0), BuildingBlock: MIFKUJ_clean_linker_0, # of connection points: 2
#     Edge 13, Type (0, 0), BuildingBlock: MIFKUJ_clean_linker_0, # of connection points: 2
#     Edge 14, Type (0, 0), BuildingBlock: MIFKUJ_clean_linker_0, # of connection points: 2
#     Edge 15, Type (0, 0), BuildingBlock: MIFKUJ_clean_linker_0, # of connection points: 2
#     Edge 16, Type (0, 0), BuildingBlock: MIFKUJ_clean_linker_0, # of connection points: 2
#     Edge 17, Type (0, 0), BuildingBlock: MIFKUJ_clean_linker_0, # of connection points: 2
#     Edge 18, Type (0, 0), BuildingBlock: MIFKUJ_clean_linker_0, # of connection points: 2
#     Edge 19, Type (0, 0), BuildingBlock: MIFKUJ_clean_linker_0, # of connection points: 2
#     Edge 20, Type (0, 0), BuildingBlock: MIFKUJ_clean_linker_0, # of connection points: 2
#     Edge 21, Type (0, 0), BuildingBlock: MIFKUJ_clean_linker_0, # of connection points: 2
#     Edge 22, Type (0, 0), BuildingBlock: MIFKUJ_clean_linker_0, # of connection points: 2
#     Edge 23, Type (0, 0), BuildingBlock: MIFKUJ_clean_linker_0, # of connection points: 2
#     Edge 24, Type (0, 0), BuildingBlock: MIFKUJ_clean_linker_0, # of connection points: 2
#     Edge 25, Type (0, 0), BuildingBlock: MIFKUJ_clean_linker_0, # of connection points: 2
#     Edge 26, Type (0, 0), BuildingBlock: MIFKUJ_clean_linker_0, # of connection points: 2
#     Edge 27, Type (0, 0), BuildingBlock: MIFKUJ_clean_linker_0, # of connection points: 2
#     Edge 28, Type (0, 0), BuildingBlock: MIFKUJ_clean_linker_0, # of connection points: 2
#     Edge 29, Type (0, 0), BuildingBlock: MIFKUJ_clean_linker_0, # of connection points: 2
#     Edge 30, Type (0, 0), BuildingBlock: MIFKUJ_clean_linker_0, # of connection points: 2
#     Edge 31, Type (0, 0), BuildingBlock: MIFKUJ_clean_linker_0, # of connection points: 2
#     Edge 32, Type (0, 0), BuildingBlock: MIFKUJ_clean_linker_0, # of connection points: 2
#     Edge 33, Type (0, 0), BuildingBlock: MIFKUJ_clean_linker_0, # of connection points: 2
#     Edge 34, Type (0, 0), BuildingBlock: MIFKUJ_clean_linker_0, # of connection points: 2
#     Edge 35, Type (0, 0), BuildingBlock: MIFKUJ_clean_linker_0, # of connection points: 2
# Relax obj value: 0.195
# Max RMSD: 0.231
# Mean RMSD: 0.229
data_MOF--net-umb--node1-KOZSID_clean_sbu_0--edge1-MIFKUJ_clean_linker_0
_symmetry_space_group_name_H-M    P1
_symmetry_Int_Tables_number       1
_symmetry_cell_setting            triclinic
loop_
_symmetry_equiv_pos_as_xyz
'x, y, z'
_cell_length_a     75.776556
_cell_length_b     75.966771
_cell_length_c     54.341943
_cell_angle_alpha  89.980978
_cell_angle_beta   89.9885
_cell_angle_gamma 119.92886
loop_
_atom_site_label
_atom_site_type_symbol
_atom_site_fract_x
_atom_site_fract_y
_atom_site_fract_z
_atom_type_partial_charge
C0 C 0.56783 0.19688 0.26307 0.0
C1 C 0.58192 0.20019 0.24479 0.0
C2 C 0.59367 0.19232 0.25336 0.0
C3 C 0.58622 0.18469 0.2764 0.0
N4 N 0.57045 0.18718 0.28259 0.0
Co5 Co 0.55669 0.18077 0.31504 0.0
N6 N 0.57999 0.18107 0.33203 0.0
C7 C 0.59499 0.17956 0.32069 0.0
C8 C 0.60964 0.18112 0.33682 0.0
C9 C 0.60327 0.18344 0.35966 0.0
C10 C 0.58478 0.18282 0.35639 0.0
N11 N 0.54268 0.17474 0.3473 0.0
C12 C 0.55014 0.17645 0.37048 0.0
C13 C 0.53439 0.16917 0.38756 0.0
C14 C 0.51668 0.16281 0.37458 0.0
C15 C 0.52242 0.16636 0.35031 0.0
N16 N 0.53359 0.18057 0.29786 0.0
C17 C 0.51426 0.17154 0.30588 0.0
C18 C 0.50201 0.17538 0.29072 0.0
C19 C 0.51455 0.18772 0.27227 0.0
C20 C 0.53382 0.19078 0.27724 0.0
N21 N 0.54508 0.15126 0.30913 0.0
C22 C 0.53295 0.10979 0.30132 0.0
C23 C 0.53887 0.11879 0.32462 0.0
C24 C 0.54491 0.13927 0.32806 0.0
C25 C 0.53244 0.12203 0.28211 0.0
C26 C 0.53849 0.14265 0.28641 0.0
N27 N 0.56856 0.20982 0.32111 0.0
C28 C 0.5655 0.23891 0.3321 0.0
C29 C 0.58638 0.25161 0.32811 0.0
C30 C 0.59807 0.2431 0.32049 0.0
C31 C 0.5889 0.22227 0.31699 0.0
C32 C 0.55688 0.21791 0.32872 0.0
H33 H 0.59833 0.21629 0.31078 0.0
H34 H 0.54082 0.20823 0.33215 0.0
H35 H 0.54997 0.14544 0.34616 0.0
H36 H 0.53833 0.15177 0.27123 0.0
C37 C 0.59669 0.18058 0.29484 0.0
C38 C 0.55193 0.20276 0.26175 0.0
C39 C 0.57145 0.18248 0.37666 0.0
C40 C 0.50984 0.16461 0.33031 0.0
H41 H 0.58393 0.20795 0.22745 0.0
H42 H 0.60707 0.19353 0.24462 0.0
H43 H 0.62377 0.18154 0.33243 0.0
H44 H 0.6115 0.18547 0.37663 0.0
H45 H 0.53545 0.16803 0.40729 0.0
H46 H 0.50148 0.15665 0.38203 0.0
H47 H 0.48622 0.17102 0.29367 0.0
H48 H 0.51017 0.19405 0.25719 0.0
H49 H 0.53901 0.11013 0.34036 0.0
H50 H 0.52798 0.11596 0.26371 0.0
H51 H 0.55609 0.24511 0.33813 0.0
H52 H 0.61426 0.25255 0.31715 0.0
C53 C 0.37548 0.56659 0.59766 0.0
C54 C 0.38671 0.58128 0.58019 0.0
C55 C 0.40604 0.59283 0.58968 0.0
C56 C 0.40561 0.5847 0.61245 0.0
N57 N 0.38725 0.56871 0.61762 0.0
Co58 Co 0.37913 0.55397 0.64942 0.0
N59 N 0.40136 0.57686 0.66768 0.0
C60 C 0.41831 0.59195 0.65731 0.0
C61 C 0.43152 0.60541 0.67438 0.0
C62 C 0.42236 0.59817 0.69683 0.0
C63 C 0.40394 0.58065 0.69226 0.0
N64 N 0.37051 0.539 0.68106 0.0
C65 C 0.37528 0.54585 0.70459 0.0
C66 C 0.36532 0.52988 0.72109 0.0
C67 C 0.35455 0.51254 0.70736 0.0
C68 C 0.35827 0.51877 0.68326 0.0
N69 N 0.35692 0.53134 0.63092 0.0
C70 C 0.3465 0.51185 0.63815 0.0
C71 C 0.33095 0.50001 0.62215 0.0
C72 C 0.33162 0.51298 0.604 0.0
C73 C 0.34752 0.53209 0.60998 0.0
N74 N 0.39758 0.5429 0.64356 0.0
C75 C 0.42738 0.53117 0.63602 0.0
C76 C 0.42362 0.53638 0.65942 0.0
C77 C 0.40897 0.54223 0.66273 0.0
C78 C 0.4151 0.5312 0.61653 0.0
C79 C 0.40029 0.53704 0.62069 0.0
N80 N 0.36133 0.56521 0.65548 0.0
C81 C 0.32868 0.56112 0.66633 0.0
C82 C 0.33579 0.5816 0.661 0.0
C83 C 0.35601 0.59378 0.65349 0.0
C84 C 0.36853 0.58536 0.65106 0.0
C85 C 0.34169 0.55316 0.66327 0.0
H86 H 0.38401 0.59517 0.64526 0.0
H87 H 0.33583 0.53724 0.66692 0.0
H88 H 0.40726 0.54667 0.68097 0.0
H89 H 0.39137 0.53726 0.60531 0.0
C90 C 0.41973 0.5945 0.63155 0.0
C91 C 0.35385 0.55057 0.59515 0.0
C92 C 0.39043 0.5669 0.7117 0.0
C93 C 0.34812 0.50681 0.6626 0.0
H94 H 0.38147 0.58382 0.56277 0.0
H95 H 0.4184 0.60647 0.58169 0.0
H96 H 0.44586 0.61912 0.67094 0.0
H97 H 0.42871 0.60482 0.71455 0.0
H98 H 0.36582 0.53057 0.74097 0.0
H99 H 0.34461 0.49733 0.71419 0.0
H100 H 0.31951 0.48418 0.62436 0.0
H101 H 0.32137 0.50898 0.58848 0.0
H102 H 0.43203 0.53608 0.67536 0.0
H103 H 0.41724 0.52732 0.59803 0.0
H104 H 0.31315 0.55131 0.6724 0.0
H105 H 0.3622 0.60982 0.64979 0.0
C106 C 0.81059 0.37194 0.93099 0.0
C107 C 0.80631 0.38281 0.91381 0.0
C108 C 0.81387 0.4021 0.92314 0.0
C109 C 0.82216 0.40203 0.94561 0.0
N110 N 0.82034 0.3839 0.95077 0.0
Co111 Co 0.82723 0.37609 0.98266 0.0
N112 N 0.82621 0.3982 1.00078 0.0
C113 C 0.82765 0.41493 0.99034 0.0
C114 C 0.82696 0.42797 1.00734 0.0
C115 C 0.82524 0.41894 0.02983 0.0
C116 C 0.825 0.40083 0.02534 0.0
N117 N 0.83375 0.36773 0.01436 0.0
C118 C 0.83161 0.37257 0.03783 0.0
C119 C 0.83872 0.36365 0.05444 0.0
C120 C 0.84564 0.35308 0.04081 0.0
C121 C 0.84245 0.3561 0.01666 0.0
N122 N 0.82816 0.35411 0.96435 0.0
C123 C 0.83775 0.34416 0.97163 0.0
C124 C 0.83463 0.32884 0.95561 0.0
C125 C 0.82218 0.32917 0.93738 0.0
C126 C 0.81827 0.34464 0.94334 0.0
N127 N 0.85667 0.3947 0.97673 0.0
C128 C 0.8984 0.4233 0.96933 0.0
C129 C 0.88948 0.41998 0.99268 0.0
C130 C 0.8688 0.40592 0.99593 0.0
C131 C 0.88588 0.4118 0.94965 0.0
C132 C 0.86515 0.39743 0.95378 0.0
N133 N 0.79826 0.35806 0.98871 0.0
C134 C 0.77006 0.32506 0.99867 0.0
C135 C 0.75639 0.33182 0.99311 0.0
C136 C 0.7641 0.35207 0.9861 0.0
C137 C 0.78501 0.36494 0.98423 0.0
C138 C 0.791 0.33843 0.99619 0.0
H139 H 0.79044 0.38041 0.9787 0.0
H140 H 0.80131 0.33284 0.99995 0.0
H141 H 0.86263 0.40446 0.01413 0.0
H142 H 0.85593 0.38867 0.93839 0.0
C143 C 0.82628 0.41613 0.96462 0.0
C144 C 0.80569 0.35048 0.92844 0.0
C145 C 0.82522 0.38735 0.04478 0.0
C146 C 0.84461 0.34609 0.99606 0.0
H147 H 0.798 0.37743 0.89677 0.0
H148 H 0.81193 0.41415 0.91536 0.0
H149 H 0.82704 0.44202 1.0038 0.0
H150 H 0.82444 0.4251 0.04748 0.0
H151 H 0.83923 0.365 0.07429 0.0
H152 H 0.85182 0.34391 0.04774 0.0
H153 H 0.83957 0.31779 0.9578 0.0
H154 H 0.81631 0.31898 0.9218 0.0
H155 H 0.89835 0.4286 0.00842 0.0
H156 H 0.89208 0.41374 0.93125 0.0
H157 H 0.7646 0.30953 1.00443 0.0
H158 H 0.75401 0.358 0.98231 0.0
C159 C 0.44444 0.80952 0.26518 0.0
C160 C 0.42947 0.80544 0.2478 0.0
C161 C 0.41767 0.81302 0.25706 0.0
C162 C 0.42593 0.82123 0.27961 0.0
N163 N 0.44222 0.81934 0.28487 0.0
Co164 Co 0.45729 0.8268 0.31647 0.0
N165 N 0.43439 0.82636 0.33464 0.0
C166 C 0.41898 0.82766 0.32417 0.0
C167 C 0.40536 0.82722 0.3412 0.0
C168 C 0.41283 0.82578 0.36371 0.0
C169 C 0.43073 0.82551 0.35923 0.0
N170 N 0.47249 0.83382 0.34795 0.0
C171 C 0.46571 0.83207 0.37148 0.0
C172 C 0.48187 0.83934 0.38789 0.0
C173 C 0.49925 0.84593 0.37406 0.0
C174 C 0.49283 0.8424 0.35 0.0
N175 N 0.48002 0.82724 0.29808 0.0
C176 C 0.49963 0.83678 0.3051 0.0
C177 C 0.51162 0.83316 0.28922 0.0
C178 C 0.49863 0.82045 0.27134 0.0
C179 C 0.47937 0.81693 0.27736 0.0
N180 N 0.4681 0.85608 0.30969 0.0
C181 C 0.48102 0.89757 0.30111 0.0
C182 C 0.47566 0.88912 0.3247 0.0
C183 C 0.46917 0.86856 0.32853 0.0
C184 C 0.47989 0.88469 0.28179 0.0
C185 C 0.47363 0.86409 0.2865 0.0
N186 N 0.44637 0.79802 0.32346 0.0
C187 C 0.45123 0.76996 0.33418 0.0
C188 C 0.43037 0.75657 0.33146 0.0
C189 C 0.41768 0.7642 0.32484 0.0
C190 C 0.42597 0.78492 0.32079 0.0
C191 C 0.45893 0.79075 0.33034 0.0
H192 H 0.41586 0.79032 0.31526 0.0
H193 H 0.47504 0.80093 0.33272 0.0
H194 H 0.46467 0.86276 0.34691 0.0
H195 H 0.47303 0.85459 0.27137 0.0
C196 C 0.41613 0.82579 0.29849 0.0
C197 C 0.46083 0.80439 0.26273 0.0
C198 C 0.44459 0.82586 0.37862 0.0
C199 C 0.5048 0.84406 0.32935 0.0
H200 H 0.42693 0.7974 0.23059 0.0
H201 H 0.40383 0.81134 0.24908 0.0
H202 H 0.39128 0.82718 0.33768 0.0
H203 H 0.40592 0.82512 0.38137 0.0
H204 H 0.48122 0.84017 0.40772 0.0
H205 H 0.51465 0.85209 0.38083 0.0
H206 H 0.52759 0.83794 0.29131 0.0
H207 H 0.50275 0.81417 0.25596 0.0
H208 H 0.47596 0.89823 0.34019 0.0
H209 H 0.48399 0.89052 0.26323 0.0
H210 H 0.4614 0.76444 0.33943 0.0
H211 H 0.40144 0.75415 0.32257 0.0
C212 C 0.63937 0.44204 0.59942 0.0
C213 C 0.62849 0.42744 0.58172 0.0
C214 C 0.60902 0.41575 0.59076 0.0
C215 C 0.60902 0.4237 0.6135 0.0
N216 N 0.62726 0.4397 0.61911 0.0
Co217 Co 0.63472 0.45428 0.65101 0.0
N218 N 0.61196 0.43139 0.66869 0.0
C219 C 0.5952 0.41638 0.65789 0.0
C220 C 0.58171 0.40277 0.67466 0.0
C221 C 0.59047 0.40983 0.69733 0.0
C222 C 0.6089 0.42744 0.69319 0.0
N223 N 0.64277 0.46899 0.6828 0.0
C224 C 0.63747 0.46192 0.70618 0.0
C225 C 0.64636 0.47779 0.72294 0.0
C226 C 0.65742 0.49528 0.70949 0.0
C227 C 0.6547 0.48922 0.6853 0.0
N228 N 0.65733 0.47703 0.63311 0.0
C229 C 0.66753 0.49647 0.64057 0.0
C230 C 0.68329 0.50852 0.62493 0.0
C231 C 0.68298 0.49574 0.60675 0.0
C232 C 0.66706 0.47653 0.61234 0.0
N233 N 0.61655 0.46557 0.6444 0.0
C234 C 0.58818 0.47894 0.63602 0.0
C235 C 0.59108 0.47323 0.65952 0.0
C236 C 0.60505 0.46655 0.66325 0.0
C237 C 0.60005 0.47794 0.61671 0.0
C238 C 0.61428 0.47144 0.62132 0.0
N239 N 0.65226 0.44286 0.65787 0.0
C240 C 0.68479 0.44688 0.66921 0.0
C241 C 0.677 0.426 0.66646 0.0
C242 C 0.65673 0.41374 0.65938 0.0
C243 C 0.64467 0.42246 0.655 0.0
C244 C 0.67205 0.45501 0.66508 0.0
H245 H 0.62921 0.41267 0.64914 0.0
H246 H 0.6782 0.47111 0.66761 0.0
H247 H 0.60617 0.46178 0.68155 0.0
H248 H 0.62326 0.47093 0.60619 0.0
C249 C 0.59443 0.41387 0.63215 0.0
C250 C 0.66096 0.45824 0.59725 0.0
C251 C 0.62239 0.44081 0.71284 0.0
C252 C 0.66528 0.50137 0.6649 0.0
H253 H 0.63404 0.42511 0.5644 0.0
H254 H 0.5968 0.40218 0.58246 0.0
H255 H 0.56753 0.38898 0.67086 0.0
H256 H 0.58397 0.40287 0.71488 0.0
H257 H 0.64471 0.47686 0.74277 0.0
H258 H 0.66675 0.51052 0.71658 0.0
H259 H 0.69458 0.52437 0.62735 0.0
H260 H 0.69345 0.49995 0.59142 0.0
H261 H 0.58216 0.4734 0.67501 0.0
H262 H 0.5985 0.4823 0.59822 0.0
H263 H 0.70045 0.45673 0.67479 0.0
H264 H 0.6503 0.39751 0.65702 0.0
C265 C 0.19616 0.63458 0.92902 0.0
C266 C 0.19459 0.62173 0.9099 0.0
C267 C 0.18748 0.60268 0.91996 0.0
C268 C 0.18417 0.60462 0.94441 0.0
N269 N 0.18852 0.62355 0.95001 0.0
Co270 Co 0.18267 0.63182 0.98203 0.0
N271 N 0.18417 0.60993 0.9999 0.0
C272 C 0.18162 0.59278 0.98934 0.0
C273 C 0.1822 0.57958 1.00617 0.0
C274 C 0.18498 0.58894 0.02866 0.0
C275 C 0.18598 0.60745 0.02437 0.0
N276 N 0.17695 0.64052 0.01394 0.0
C277 C 0.17969 0.63596 0.03733 0.0
C278 C 0.17379 0.64585 0.05411 0.0
C279 C 0.16648 0.6562 0.04071 0.0
C280 C 0.1685 0.65236 0.0165 0.0
N281 N 0.18126 0.65354 0.96378 0.0
C282 C 0.17099 0.66277 0.97102 0.0
C283 C 0.17172 0.67637 0.95376 0.0
C284 C 0.18339 0.67566 0.93475 0.0
C285 C 0.18973 0.66212 0.94179 0.0
N286 N 0.15305 0.61319 0.97725 0.0
C287 C 0.11143 0.58354 0.9708 0.0
C288 C 0.12098 0.58695 0.99382 0.0
C289 C 0.14153 0.60161 0.99662 0.0
C290 C 0.1232 0.59603 0.95119 0.0
C291 C 0.14388 0.61074 0.95479 0.0
N292 N 0.21175 0.64982 0.98688 0.0
C293 C 0.24028 0.68272 0.99636 0.0
C294 C 0.25363 0.67572 0.9903 0.0
C295 C 0.24575 0.65555 0.98302 0.0
C296 C 0.22478 0.64281 0.98162 0.0
C297 C 0.21927 0.66948 0.99438 0.0
H298 H 0.21909 0.62733 0.97584 0.0
H299 H 0.2091 0.67517 0.99854 0.0
H300 H 0.14814 0.60322 0.01457 0.0
H301 H 0.15258 0.61983 0.93928 0.0
C302 C 0.18072 0.59066 0.96346 0.0
C303 C 0.20272 0.65658 0.92696 0.0
C304 C 0.18581 0.62084 0.04406 0.0
C305 C 0.16516 0.66155 0.99583 0.0
H306 H 0.19745 0.62529 0.89055 0.0
H307 H 0.18537 0.5892 0.9106 0.0
H308 H 0.18089 0.56496 1.00258 0.0
H309 H 0.18548 0.58253 0.04625 0.0
H310 H 0.17438 0.64545 0.07398 0.0
H311 H 0.16084 0.66578 0.04782 0.0
H312 H 0.16543 0.68636 0.95529 0.0
H313 H 0.187 0.6843 0.91783 0.0
H314 H 0.11265 0.5783 0.00983 0.0
H315 H 0.11669 0.59414 0.93298 0.0
H316 H 0.24602 0.69827 1.00218 0.0
H317 H 0.25576 0.64968 0.97844 0.0
C318 C 0.81277 0.44272 0.41665 0.0
C319 C 0.80898 0.42793 0.43412 0.0
C320 C 0.81633 0.41603 0.42459 0.0
C321 C 0.82413 0.42407 0.40181 0.0
N322 N 0.82221 0.44033 0.39667 0.0
Co323 Co 0.82923 0.45518 0.36493 0.0
N324 N 0.82791 0.43201 0.34662 0.0
C325 C 0.82927 0.41662 0.35695 0.0
C326 C 0.82865 0.40301 0.33984 0.0
C327 C 0.82702 0.41046 0.31741 0.0
C328 C 0.82665 0.42825 0.32203 0.0
N329 N 0.83606 0.47027 0.33336 0.0
C330 C 0.83386 0.46343 0.3098 0.0
C331 C 0.84029 0.4795 0.29336 0.0
C332 C 0.84725 0.49686 0.30717 0.0
C333 C 0.84455 0.49056 0.33125 0.0
N334 N 0.83023 0.47805 0.38351 0.0
C335 C 0.8397 0.49756 0.37635 0.0
C336 C 0.83629 0.50961 0.39234 0.0
C337 C 0.82374 0.49674 0.41043 0.0
C338 C 0.82011 0.4775 0.40441 0.0
N339 N 0.85863 0.46556 0.37089 0.0
C340 C 0.90006 0.47688 0.37839 0.0
C341 C 0.89099 0.47147 0.35506 0.0
C342 C 0.87054 0.46584 0.35177 0.0
C343 C 0.88788 0.47717 0.39785 0.0
C344 C 0.86728 0.47151 0.39372 0.0
N345 N 0.80032 0.44468 0.35872 0.0
C346 C 0.77254 0.44976 0.34691 0.0
C347 C 0.75867 0.42943 0.35227 0.0
C348 C 0.76601 0.41682 0.3604 0.0
C349 C 0.78684 0.42467 0.36325 0.0
C350 C 0.79336 0.45716 0.35051 0.0
H351 H 0.79204 0.41454 0.36936 0.0
H352 H 0.80381 0.47299 0.34684 0.0
H353 H 0.86435 0.46134 0.33356 0.0
H354 H 0.85822 0.47157 0.40906 0.0
C355 C 0.82808 0.41403 0.38269 0.0
C356 C 0.80764 0.45906 0.4192 0.0
C357 C 0.82737 0.44225 0.30263 0.0
C358 C 0.84655 0.50256 0.35194 0.0
H359 H 0.80125 0.42557 0.45156 0.0
H360 H 0.81471 0.40224 0.43255 0.0
H361 H 0.82886 0.38908 0.34325 0.0
H362 H 0.82656 0.40375 0.29968 0.0
H363 H 0.8401 0.47886 0.27348 0.0
H364 H 0.85289 0.51215 0.30039 0.0
H365 H 0.84105 0.52553 0.39018 0.0
H366 H 0.81762 0.50091 0.42593 0.0
H367 H 0.89961 0.47152 0.33914 0.0
H368 H 0.894 0.48123 0.41629 0.0
H369 H 0.76731 0.45984 0.34036 0.0
H370 H 0.75569 0.40089 0.36422 0.0
C371 C 0.37372 0.81065 0.75088 0.0
C372 C 0.38474 0.80759 0.76902 0.0
C373 C 0.40423 0.81527 0.76 0.0
C374 C 0.40407 0.82266 0.73689 0.0
N375 N 0.38574 0.82018 0.7311 0.0
Co376 Co 0.37799 0.82654 0.69892 0.0
N377 N 0.40054 0.82576 0.68141 0.0
C378 C 0.41741 0.82781 0.69235 0.0
C379 C 0.43106 0.82776 0.67575 0.0
C380 C 0.42231 0.82579 0.65302 0.0
C381 C 0.40365 0.82465 0.65694 0.0
N382 N 0.36967 0.83252 0.66678 0.0
C383 C 0.37479 0.83027 0.64346 0.0
C384 C 0.3647 0.83577 0.62646 0.0
C385 C 0.35359 0.8423 0.63962 0.0
C386 C 0.35721 0.84023 0.6639 0.0
N387 N 0.35553 0.82722 0.7168 0.0
C388 C 0.34503 0.83605 0.70879 0.0
C389 C 0.32919 0.83245 0.72423 0.0
C390 C 0.32972 0.82047 0.74288 0.0
C391 C 0.34598 0.81748 0.7379 0.0
N392 N 0.39627 0.85605 0.70447 0.0
C393 C 0.42589 0.89753 0.71169 0.0
C394 C 0.42221 0.88843 0.68838 0.0
C395 C 0.40767 0.86795 0.68524 0.0
C396 C 0.4136 0.88536 0.73125 0.0
C397 C 0.39887 0.86475 0.72724 0.0
N398 N 0.36037 0.79749 0.69325 0.0
C399 C 0.32763 0.76875 0.68346 0.0
C400 C 0.33485 0.75561 0.68958 0.0
C401 C 0.35509 0.76371 0.69685 0.0
C402 C 0.36764 0.78465 0.69832 0.0
C403 C 0.34067 0.78976 0.68554 0.0
H404 H 0.38315 0.79044 0.70411 0.0
H405 H 0.33476 0.79971 0.68135 0.0
H406 H 0.40608 0.86171 0.66709 0.0
H407 H 0.38991 0.85573 0.74266 0.0
C408 C 0.4185 0.82688 0.71818 0.0
C409 C 0.35219 0.80536 0.75317 0.0
C410 C 0.39046 0.82483 0.63697 0.0
C411 C 0.34681 0.84224 0.68415 0.0
H412 H 0.37918 0.8003 0.78668 0.0
H413 H 0.41657 0.81426 0.7686 0.0
H414 H 0.44547 0.82862 0.67969 0.0
H415 H 0.42911 0.82568 0.63556 0.0
H416 H 0.36534 0.83529 0.60661 0.0
H417 H 0.34351 0.84727 0.63232 0.0
H418 H 0.31757 0.83654 0.72124 0.0
H419 H 0.31892 0.81419 0.75784 0.0
H420 H 0.43058 0.89702 0.67237 0.0
H421 H 0.41566 0.89147 0.74968 0.0
H422 H 0.31202 0.76285 0.67755 0.0
H423 H 0.36117 0.75388 0.7014 0.0
C424 C 0.5666 0.37114 0.08521 0.0
C425 C 0.58049 0.382 0.10357 0.0
C426 C 0.59238 0.40149 0.09478 0.0
C427 C 0.58507 0.40151 0.07159 0.0
N428 N 0.56928 0.3833 0.06553 0.0
Co429 Co 0.5553 0.37601 0.03327 0.0
N430 N 0.57874 0.3986 0.0161 0.0
C431 C 0.59361 0.41523 0.02725 0.0
C432 C 0.60754 0.42883 0.01083 0.0
C433 C 0.60086 0.42028 0.988 0.0
C434 C 0.58317 0.40182 0.99168 0.0
N435 N 0.54113 0.36827 1.00103 0.0
C436 C 0.5486 0.37369 0.9778 0.0
C437 C 0.53303 0.36426 0.96066 0.0
C438 C 0.51531 0.35313 0.97368 0.0
C439 C 0.52094 0.35615 0.998 0.0
N440 N 0.53207 0.35343 0.05081 0.0
C441 C 0.51281 0.34307 0.04254 0.0
C442 C 0.50058 0.32683 0.05737 0.0
C443 C 0.51298 0.32694 0.0759 0.0
C444 C 0.5322 0.34347 0.0716 0.0
N445 N 0.54408 0.39429 0.03929 0.0
C446 C 0.53078 0.42274 0.04703 0.0
C447 C 0.53715 0.42011 0.0238 0.0
C448 C 0.54376 0.40607 0.02038 0.0
C449 C 0.53108 0.41055 0.06639 0.0
C450 C 0.53757 0.3963 0.06209 0.0
N451 N 0.56663 0.35834 0.02713 0.0
C452 C 0.56245 0.32573 0.0163 0.0
C453 C 0.5827 0.33254 0.02274 0.0
C454 C 0.59489 0.35254 0.03067 0.0
C455 C 0.58665 0.36524 0.03247 0.0
C456 C 0.55464 0.3389 0.01877 0.0
H457 H 0.59641 0.38057 0.03872 0.0
H458 H 0.53885 0.33327 0.01437 0.0
H459 H 0.549 0.40511 1.0023 0.0
H460 H 0.53756 0.3871 0.07725 0.0
C461 C 0.59544 0.41606 0.05309 0.0
C462 C 0.55041 0.34963 0.08725 0.0
C463 C 0.56985 0.38895 0.97157 0.0
C464 C 0.50848 0.34541 0.01804 0.0
H465 H 0.58205 0.37634 0.12124 0.0
H466 H 0.60563 0.41372 0.1036 0.0
H467 H 0.62119 0.44304 0.01496 0.0
H468 H 0.60797 0.42706 0.9706 0.0
H469 H 0.53424 0.36536 0.94082 0.0
H470 H 0.50024 0.34341 0.96623 0.0
H471 H 0.48496 0.3152 0.05397 0.0
H472 H 0.50837 0.31563 0.09021 0.0
H473 H 0.53754 0.42926 0.0083 0.0
H474 H 0.52618 0.41188 0.08467 0.0
H475 H 0.55272 0.31033 0.00989 0.0
H476 H 0.61073 0.35831 0.03545 0.0
C477 C 0.20076 0.56633 0.41665 0.0
C478 C 0.20386 0.58048 0.4347 0.0
C479 C 0.19575 0.59194 0.42586 0.0
C480 C 0.18822 0.58429 0.40287 0.0
N481 N 0.19103 0.5687 0.39694 0.0
Co482 Co 0.18481 0.55481 0.36459 0.0
N483 N 0.18469 0.57776 0.34741 0.0
C484 C 0.18242 0.59234 0.35852 0.0
C485 C 0.18257 0.60617 0.34208 0.0
C486 C 0.18484 0.59969 0.31928 0.0
C487 C 0.18588 0.58215 0.323 0.0
N488 N 0.17903 0.54075 0.33239 0.0
C489 C 0.18098 0.5482 0.30919 0.0
C490 C 0.17456 0.53267 0.29202 0.0
C491 C 0.16831 0.515 0.30503 0.0
C492 C 0.17118 0.52063 0.32937 0.0
N493 N 0.18499 0.53203 0.38199 0.0
C494 C 0.1763 0.51276 0.37399 0.0
C495 C 0.18023 0.50072 0.38937 0.0
C496 C 0.19227 0.51334 0.40794 0.0
C497 C 0.19509 0.53244 0.40283 0.0
N498 N 0.15516 0.5428 0.3705 0.0
C499 C 0.11325 0.52904 0.37818 0.0
C500 C 0.12213 0.535 0.35484 0.0
C501 C 0.14288 0.54189 0.35146 0.0
C502 C 0.1259 0.52989 0.39766 0.0
C503 C 0.14671 0.53656 0.39339 0.0
N504 N 0.21397 0.56698 0.35854 0.0
C505 C 0.24332 0.56395 0.34862 0.0
C506 C 0.25619 0.58449 0.35432 0.0
C507 C 0.24741 0.59617 0.36121 0.0
C508 C 0.22639 0.58718 0.36316 0.0
C509 C 0.2222 0.55546 0.35088 0.0
H510 H 0.2202 0.59656 0.36891 0.0
H511 H 0.21256 0.53953 0.34693 0.0
H512 H 0.14899 0.54694 0.33331 0.0
H513 H 0.15604 0.53699 0.40867 0.0
C514 C 0.18358 0.5943 0.38434 0.0
C515 C 0.20676 0.55055 0.41841 0.0
C516 C 0.18653 0.56928 0.30302 0.0
C517 C 0.16959 0.50821 0.34948 0.0
H518 H 0.21161 0.58274 0.4521 0.0
H519 H 0.19667 0.60523 0.43445 0.0
H520 H 0.18184 0.61973 0.3462 0.0
H521 H 0.18551 0.607 0.30193 0.0
H522 H 0.17404 0.5339 0.27222 0.0
H523 H 0.1628 0.49994 0.29755 0.0
H524 H 0.17613 0.48503 0.38653 0.0
H525 H 0.19857 0.5091 0.4232 0.0
H526 H 0.11321 0.53493 0.33923 0.0
H527 H 0.11976 0.52531 0.41604 0.0
H528 H 0.24952 0.55443 0.34306 0.0
H529 H 0.25674 0.61223 0.36512 0.0
C530 C 0.63723 0.19764 0.75135 0.0
C531 C 0.62644 0.20092 0.76961 0.0
C532 C 0.60686 0.19317 0.76091 0.0
C533 C 0.60674 0.18555 0.73787 0.0
N534 N 0.62497 0.18792 0.73183 0.0
Co535 Co 0.63242 0.18127 0.69961 0.0
N536 N 0.60958 0.18168 0.68236 0.0
C537 C 0.59302 0.18024 0.69351 0.0
C538 C 0.57988 0.18147 0.67716 0.0
C539 C 0.58857 0.18351 0.65439 0.0
C540 C 0.60654 0.18312 0.65794 0.0
N541 N 0.64048 0.17505 0.66752 0.0
C542 C 0.6349 0.17679 0.64426 0.0
C543 C 0.64361 0.16968 0.62731 0.0
C544 C 0.65488 0.16332 0.64047 0.0
C545 C 0.65244 0.16674 0.66471 0.0
N546 N 0.65512 0.18089 0.71718 0.0
C547 C 0.66542 0.17183 0.70932 0.0
C548 C 0.68134 0.17552 0.72471 0.0
C549 C 0.68102 0.18778 0.74317 0.0
C550 C 0.66487 0.1909 0.73801 0.0
N551 N 0.61436 0.15181 0.70569 0.0
C552 C 0.58624 0.11006 0.71338 0.0
C553 C 0.58898 0.11896 0.69009 0.0
C554 C 0.60282 0.13963 0.68671 0.0
C555 C 0.59809 0.12262 0.73285 0.0
C556 C 0.61221 0.14337 0.72857 0.0
N557 N 0.64986 0.21027 0.69342 0.0
C558 C 0.68271 0.23917 0.68435 0.0
C559 C 0.6753 0.25232 0.68992 0.0
C560 C 0.65472 0.24391 0.69612 0.0
C561 C 0.64234 0.22298 0.69778 0.0
C562 C 0.66969 0.21813 0.68619 0.0
H563 H 0.62675 0.21713 0.70323 0.0
H564 H 0.67576 0.20824 0.68238 0.0
H565 H 0.60381 0.14577 0.6686 0.0
H566 H 0.62122 0.15264 0.7438 0.0
C567 C 0.59222 0.1814 0.71934 0.0
C568 C 0.65883 0.20317 0.75309 0.0
C569 C 0.61957 0.18268 0.63786 0.0
C570 C 0.66312 0.16498 0.68487 0.0
H571 H 0.63224 0.20844 0.78708 0.0
H572 H 0.59465 0.19435 0.76963 0.0
H573 H 0.56606 0.18176 0.68135 0.0
H574 H 0.5823 0.18511 0.63723 0.0
H575 H 0.64163 0.1687 0.60755 0.0
H576 H 0.66407 0.15728 0.63316 0.0
H577 H 0.69278 0.17115 0.7219 0.0
H578 H 0.6917 0.19409 0.75826 0.0
H579 H 0.58005 0.11009 0.67452 0.0
H580 H 0.59661 0.11645 0.75118 0.0
H581 H 0.69849 0.24506 0.67927 0.0
H582 H 0.64814 0.25344 0.69983 0.0
C583 C 0.44456 0.63604 0.08393 0.0
C584 C 0.4302 0.62501 0.10183 0.0
C585 C 0.4185 0.60562 0.0927 0.0
C586 C 0.42624 0.60582 0.06972 0.0
N587 N 0.44213 0.62411 0.06408 0.0
Co588 Co 0.45646 0.63186 0.03198 0.0
N589 N 0.43335 0.60933 0.01435 0.0
C590 C 0.41834 0.59257 0.02514 0.0
C591 C 0.40456 0.57924 0.0084 0.0
C592 C 0.41151 0.5881 0.98575 0.0
C593 C 0.42926 0.60642 0.98986 0.0
N594 N 0.47102 0.6401 1.00004 0.0
C595 C 0.46381 0.63495 0.97671 0.0
C596 C 0.47962 0.64396 0.95983 0.0
C597 C 0.49723 0.65494 0.97315 0.0
C598 C 0.49128 0.65205 0.9974 0.0
N599 N 0.47933 0.65435 0.04982 0.0
C600 C 0.49876 0.66473 0.04214 0.0
C601 C 0.51079 0.68055 0.05769 0.0
C602 C 0.49801 0.68007 0.07604 0.0
C603 C 0.47883 0.664 0.07063 0.0
N604 N 0.46779 0.61365 0.03795 0.0
C605 C 0.4795 0.58391 0.0457 0.0
C606 C 0.47435 0.58766 0.02225 0.0
C607 C 0.46844 0.60223 0.01885 0.0
C608 C 0.47948 0.59623 0.06512 0.0
C609 C 0.4737 0.61104 0.06085 0.0
N610 N 0.44496 0.64938 0.02577 0.0
C611 C 0.44858 0.68138 0.01302 0.0
C612 C 0.42811 0.67433 0.01867 0.0
C613 C 0.41623 0.65456 0.02761 0.0
C614 C 0.42485 0.64229 0.03075 0.0
C615 C 0.45679 0.6687 0.01696 0.0
H616 H 0.41522 0.62705 0.03736 0.0
H617 H 0.47269 0.67452 0.01298 0.0
H618 H 0.46391 0.60381 1.00061 0.0
H619 H 0.47352 0.62002 0.07616 0.0
C620 C 0.41614 0.5915 0.05094 0.0
C621 C 0.46054 0.65767 0.08594 0.0
C622 C 0.44264 0.61988 0.97015 0.0
C623 C 0.50355 0.6626 0.01772 0.0
H624 H 0.428 0.63043 0.11931 0.0
H625 H 0.40501 0.59333 0.10109 0.0
H626 H 0.39077 0.56507 0.01222 0.0
H627 H 0.40442 0.5817 0.96823 0.0
H628 H 0.47859 0.64244 0.94 0.0
H629 H 0.51245 0.66433 0.96595 0.0
H630 H 0.5266 0.69198 0.05509 0.0
H631 H 0.50219 0.69054 0.09133 0.0
H632 H 0.4747 0.57929 1.00632 0.0
H633 H 0.48332 0.59414 0.08366 0.0
H634 H 0.45815 0.69659 1.00592 0.0
H635 H 0.40023 0.64847 0.03172 0.0
H636 H 0.58471 0.15933 0.40125 0.0
H637 H 0.59417 0.16097 0.44441 0.0
H638 H 0.5778 0.20711 0.45708 0.0
H639 H 0.57068 0.2071 0.41308 0.0
H640 H 0.60583 0.2162 0.48525 0.0
H641 H 0.54684 0.15201 0.47351 0.0
H642 H 0.52461 0.11847 0.45482 0.0
H643 H 0.56739 0.09938 0.47443 0.0
H644 H 0.59002 0.13292 0.49295 0.0
H645 H 0.58374 0.15781 0.61336 0.0
H646 H 0.57537 0.15909 0.5702 0.0
H647 H 0.63647 0.20846 0.55772 0.0
H648 H 0.6442 0.20818 0.60148 0.0
H649 H 0.58436 0.15186 0.53021 0.0
H650 H 0.64058 0.23761 0.50932 0.0
H651 H 0.65485 0.27072 0.5304 0.0
H652 H 0.60444 0.24581 0.58073 0.0
H653 H 0.58975 0.21266 0.55981 0.0
C654 C 0.58378 0.17033 0.41303 0.0
C655 C 0.5775 0.18353 0.40339 0.0
C656 C 0.5887 0.1709 0.43807 0.0
C657 C 0.58635 0.18384 0.45471 0.0
C658 C 0.57994 0.19698 0.44503 0.0
C659 C 0.57572 0.19691 0.41978 0.0
C660 C 0.59041 0.18358 0.482 0.0
C661 C 0.60107 0.20206 0.49496 0.0
C662 C 0.58377 0.16527 0.49546 0.0
C663 C 0.57021 0.14505 0.48441 0.0
C664 C 0.55156 0.1407 0.4737 0.0
C665 C 0.53889 0.12169 0.46315 0.0
C666 C 0.54461 0.10682 0.46338 0.0
C667 C 0.563 0.11092 0.47423 0.0
C668 C 0.57575 0.12993 0.48478 0.0
C669 C 0.5952 0.16934 0.60156 0.0
C670 C 0.61442 0.18339 0.61116 0.0
C671 C 0.59051 0.16988 0.57664 0.0
C672 C 0.60506 0.18415 0.56027 0.0
C673 C 0.62458 0.1977 0.56974 0.0
C674 C 0.6291 0.19746 0.59483 0.0
C675 C 0.59991 0.18447 0.5334 0.0
C676 C 0.5891 0.166 0.52051 0.0
C677 C 0.60534 0.20271 0.52039 0.0
C678 C 0.61419 0.2226 0.53314 0.0
C679 C 0.63253 0.23922 0.52486 0.0
C680 C 0.64069 0.25799 0.53678 0.0
C681 C 0.63057 0.26035 0.55691 0.0
C682 C 0.61229 0.24394 0.56518 0.0
C683 C 0.60406 0.22516 0.55333 0.0
H684 H 0.63682 0.27491 0.56603 0.0
H685 H 0.53478 0.09211 0.4552 0.0
H686 H 0.38772 0.5964 0.7378 0.0
H687 H 0.39629 0.60594 0.78127 0.0
H688 H 0.41373 0.56019 0.78911 0.0
H689 H 0.40541 0.55088 0.74567 0.0
H690 H 0.39079 0.55933 0.82823 0.0
H691 H 0.44917 0.61037 0.78471 0.0
H692 H 0.46694 0.63753 0.754 0.0
H693 H 0.44485 0.67335 0.78932 0.0
H694 H 0.42665 0.64624 0.82002 0.0
H695 H 0.44191 0.58904 0.94332 0.0
H696 H 0.43316 0.58074 0.89978 0.0
H697 H 0.42187 0.63088 0.89327 0.0
H698 H 0.43118 0.63942 0.93681 0.0
H699 H 0.44066 0.62972 0.85343 0.0
H700 H 0.38258 0.57953 0.89706 0.0
H701 H 0.36403 0.55246 0.92764 0.0
H702 H 0.38422 0.51513 0.89212 0.0
H703 H 0.40319 0.54213 0.86155 0.0
C704 C 0.39335 0.58839 0.74886 0.0
C705 C 0.39551 0.57263 0.7384 0.0
C706 C 0.39832 0.59388 0.77373 0.0
C707 C 0.40571 0.58383 0.78874 0.0
C708 C 0.40794 0.56813 0.77818 0.0
C709 C 0.40313 0.56277 0.75331 0.0
C710 C 0.4112 0.58963 0.81533 0.0
C711 C 0.40189 0.57468 0.83366 0.0
C712 C 0.42527 0.60977 0.82278 0.0
C713 C 0.43638 0.62618 0.80451 0.0
C714 C 0.44797 0.62397 0.78582 0.0
C715 C 0.45814 0.63937 0.76843 0.0
C716 C 0.45698 0.65713 0.76967 0.0
C717 C 0.4457 0.65957 0.78836 0.0
C718 C 0.43547 0.64419 0.80576 0.0
C719 C 0.43746 0.5982 0.93257 0.0
C720 C 0.43692 0.61469 0.94355 0.0
C721 C 0.43237 0.59343 0.90764 0.0
C722 C 0.4264 0.60489 0.89299 0.0
C723 C 0.42628 0.62166 0.90395 0.0
C724 C 0.4315 0.6265 0.9289 0.0
C725 C 0.42033 0.59938 0.86641 0.0
C726 C 0.42952 0.61437 0.84806 0.0
C727 C 0.40601 0.57929 0.85893 0.0
C728 C 0.39446 0.56293 0.87714 0.0
C729 C 0.38318 0.5656 0.89586 0.0
C730 C 0.37258 0.55027 0.91319 0.0
C731 C 0.37298 0.5321 0.91185 0.0
C732 C 0.38394 0.52922 0.89315 0.0
C733 C 0.39461 0.54453 0.87581 0.0
H734 H 0.36476 0.52025 0.92528 0.0
H735 H 0.46487 0.66904 0.7562 0.0
H736 H 0.79486 0.41288 0.27681 0.0
H737 H 0.79361 0.40296 0.23346 0.0
H738 H 0.85694 0.44819 0.22506 0.0
H739 H 0.85823 0.45784 0.26841 0.0
H740 H 0.83446 0.44882 0.18583 0.0
H741 H 0.84223 0.39843 0.23022 0.0
H742 H 0.83307 0.37171 0.26148 0.0
H743 H 0.77493 0.33533 0.22688 0.0
H744 H 0.78362 0.36201 0.19564 0.0
H745 H 0.85561 0.41794 0.0715 0.0
H746 H 0.8553 0.42651 0.11499 0.0
H747 H 0.79368 0.37676 0.1218 0.0
H748 H 0.79427 0.36799 0.07829 0.0
H749 H 0.81396 0.37817 0.16186 0.0
H750 H 0.80566 0.42764 0.11731 0.0
H751 H 0.81389 0.45428 0.08621 0.0
H752 H 0.87153 0.49231 0.12112 0.0
H753 H 0.86379 0.46574 0.15221 0.0
C754 C 0.80847 0.42073 0.26564 0.0
C755 C 0.82652 0.43644 0.27594 0.0
C756 C 0.80779 0.41501 0.24085 0.0
C757 C 0.82519 0.4248 0.22573 0.0
C758 C 0.84323 0.44047 0.23609 0.0
C759 C 0.84395 0.44604 0.2609 0.0
C760 C 0.82472 0.41869 0.19924 0.0
C761 C 0.8302 0.43341 0.18066 0.0
C762 C 0.81865 0.39847 0.19216 0.0
C763 C 0.8135 0.38231 0.21074 0.0
C764 C 0.82743 0.3848 0.22938 0.0
C765 C 0.82234 0.36965 0.24709 0.0
C766 C 0.80341 0.35185 0.2462 0.0
C767 C 0.78957 0.34914 0.22757 0.0
C768 C 0.79458 0.36427 0.20985 0.0
C769 C 0.84201 0.40889 0.08233 0.0
C770 C 0.82488 0.39246 0.07145 0.0
C771 C 0.84177 0.41382 0.10721 0.0
C772 C 0.82432 0.40256 0.1219 0.0
C773 C 0.80734 0.38582 0.11107 0.0
C774 C 0.80762 0.38083 0.08615 0.0
C775 C 0.82383 0.40834 0.14837 0.0
C776 C 0.81816 0.39357 0.16697 0.0
C777 C 0.82958 0.4285 0.15548 0.0
C778 C 0.83422 0.44461 0.13696 0.0
C779 C 0.82015 0.44162 0.11826 0.0
C780 C 0.82473 0.45671 0.10064 0.0
C781 C 0.84324 0.47495 0.10166 0.0
C782 C 0.85721 0.47816 0.12034 0.0
C783 C 0.85273 0.46309 0.13797 0.0
H784 H 0.84676 0.48662 0.088 0.0
H785 H 0.79949 0.34014 0.25992 0.0
H786 H 0.4362 0.79598 0.41257 0.0
H787 H 0.4276 0.79523 0.45638 0.0
H788 H 0.43272 0.85412 0.44886 0.0
H789 H 0.44149 0.85487 0.40518 0.0
H790 H 0.45052 0.85246 0.49078 0.0
H791 H 0.38581 0.8094 0.4519 0.0
H792 H 0.36155 0.78063 0.42634 0.0
H793 H 0.36701 0.73891 0.47475 0.0
H794 H 0.39155 0.76748 0.50042 0.0
H795 H 0.40436 0.85569 0.6029 0.0
H796 H 0.41323 0.8552 0.55974 0.0
H797 H 0.4006 0.79351 0.56832 0.0
H798 H 0.39051 0.7937 0.6113 0.0
H799 H 0.38717 0.79581 0.52592 0.0
H800 H 0.45118 0.8378 0.56522 0.0
H801 H 0.47618 0.86606 0.59083 0.0
H802 H 0.47333 0.90905 0.54207 0.0
H803 H 0.44808 0.88103 0.51634 0.0
C804 C 0.4354 0.8087 0.42032 0.0
C805 C 0.43921 0.82534 0.40537 0.0
C806 C 0.43042 0.80826 0.44537 0.0
C807 C 0.42917 0.8245 0.45614 0.0
C808 C 0.43344 0.84133 0.44121 0.0
C809 C 0.43836 0.84173 0.41617 0.0
C810 C 0.4235 0.82405 0.48284 0.0
C811 C 0.43653 0.84017 0.49835 0.0
C812 C 0.40556 0.80779 0.49321 0.0
C813 C 0.39066 0.79059 0.47794 0.0
C814 C 0.38194 0.7941 0.457 0.0
C815 C 0.36813 0.77783 0.44251 0.0
C816 C 0.36278 0.75796 0.44888 0.0
C817 C 0.37119 0.75431 0.46982 0.0
C818 C 0.38504 0.77054 0.48435 0.0
C819 C 0.40321 0.84192 0.59549 0.0
C820 C 0.39631 0.82459 0.61046 0.0
C821 C 0.4086 0.84172 0.57078 0.0
C822 C 0.40798 0.8244 0.56043 0.0
C823 C 0.40125 0.80711 0.57553 0.0
C824 C 0.39554 0.80722 0.60019 0.0
C825 C 0.41414 0.82431 0.53397 0.0
C826 C 0.40121 0.80809 0.51846 0.0
C827 C 0.43229 0.8404 0.52365 0.0
C828 C 0.4476 0.8573 0.53897 0.0
C829 C 0.45579 0.85327 0.56004 0.0
C830 C 0.47002 0.86925 0.57457 0.0
C831 C 0.47631 0.88934 0.56811 0.0
C832 C 0.46842 0.89349 0.54706 0.0
C833 C 0.45417 0.87756 0.53248 0.0
H834 H 0.48732 0.90169 0.57939 0.0
H835 H 0.35209 0.74538 0.43763 0.0
H836 H 0.5552 0.40577 0.93833 0.0
H837 H 0.56462 0.41428 0.89496 0.0
H838 H 0.60927 0.39518 0.90215 0.0
H839 H 0.59926 0.38602 0.94536 0.0
H840 H 0.59683 0.44001 0.8713 0.0
H841 H 0.61677 0.37774 0.8476 0.0
H842 H 0.60728 0.34296 0.86048 0.0
H843 H 0.5489 0.33265 0.88459 0.0
H844 H 0.55793 0.36724 0.87155 0.0
H845 H 0.64117 0.42797 0.74555 0.0
H846 H 0.63321 0.41944 0.7894 0.0
H847 H 0.58409 0.43247 0.78387 0.0
H848 H 0.59217 0.44106 0.74017 0.0
H849 H 0.59977 0.39085 0.81381 0.0
H850 H 0.57931 0.45257 0.83828 0.0
H851 H 0.58784 0.48691 0.82463 0.0
H852 H 0.64581 0.49767 0.79819 0.0
H853 H 0.63778 0.46356 0.81207 0.0
C854 C 0.56687 0.40319 0.93054 0.0
C855 C 0.57613 0.39474 0.94513 0.0
C856 C 0.57239 0.40821 0.90573 0.0
C857 C 0.58746 0.40509 0.89477 0.0
C858 C 0.59724 0.39731 0.90968 0.0
C859 C 0.59161 0.39216 0.93449 0.0
C860 C 0.59284 0.40999 0.8679 0.0
C861 C 0.59719 0.4291 0.85876 0.0
C862 C 0.59384 0.39609 0.85124 0.0
C863 C 0.58814 0.37516 0.85885 0.0
C864 C 0.60189 0.36802 0.85557 0.0
C865 C 0.59659 0.34834 0.86291 0.0
C866 C 0.57753 0.33563 0.87343 0.0
C867 C 0.56369 0.34254 0.87653 0.0
C868 C 0.5689 0.36218 0.86919 0.0
C869 C 0.62865 0.42894 0.75376 0.0
C870 C 0.61725 0.43511 0.73945 0.0
C871 C 0.62406 0.42401 0.77882 0.0
C872 C 0.60812 0.42542 0.79028 0.0
C873 C 0.59663 0.43146 0.77579 0.0
C874 C 0.60117 0.43629 0.75075 0.0
C875 C 0.6036 0.42077 0.81729 0.0
C876 C 0.59942 0.40174 0.82642 0.0
C877 C 0.60263 0.43468 0.8339 0.0
C878 C 0.60783 0.45542 0.826 0.0
C879 C 0.59392 0.46231 0.82968 0.0
C880 C 0.59866 0.48173 0.82189 0.0
C881 C 0.61733 0.49444 0.81048 0.0
C882 C 0.63133 0.48779 0.80696 0.0
C883 C 0.62668 0.46841 0.81477 0.0
H884 H 0.62095 0.50945 0.80442 0.0
H885 H 0.57347 0.32042 0.87913 0.0
H886 H 0.1572 0.57197 0.2765 0.0
H887 H 0.15783 0.58069 0.23286 0.0
H888 H 0.21787 0.58816 0.22569 0.0
H889 H 0.21723 0.57957 0.26952 0.0
H890 H 0.21565 0.61834 0.20135 0.0
H891 H 0.17558 0.54569 0.20418 0.0
H892 H 0.14772 0.51276 0.21884 0.0
H893 H 0.10368 0.52852 0.19361 0.0
H894 H 0.1313 0.56172 0.17918 0.0
H895 H 0.21777 0.62237 0.06973 0.0
H896 H 0.21868 0.61328 0.11292 0.0
H897 H 0.156 0.59791 0.12161 0.0
H898 H 0.1549 0.60604 0.0782 0.0
H899 H 0.16043 0.57148 0.14535 0.0
H900 H 0.19966 0.64432 0.14418 0.0
H901 H 0.22705 0.67788 0.13047 0.0
H902 H 0.27199 0.66253 0.15316 0.0
H903 H 0.24484 0.62876 0.16672 0.0
C904 C 0.17058 0.57563 0.26562 0.0
C905 C 0.18725 0.57529 0.27648 0.0
C906 C 0.1709 0.58049 0.24058 0.0
C907 C 0.18784 0.58498 0.22564 0.0
C908 C 0.20461 0.58483 0.23663 0.0
C909 C 0.20424 0.57988 0.26169 0.0
C910 C 0.18793 0.58958 0.19862 0.0
C911 C 0.20371 0.60794 0.18906 0.0
C912 C 0.17217 0.57634 0.18243 0.0
C913 C 0.15553 0.55627 0.19079 0.0
C914 C 0.15996 0.5422 0.20191 0.0
C915 C 0.14421 0.52348 0.21016 0.0
C916 C 0.12394 0.51857 0.2072 0.0
C917 C 0.11939 0.53235 0.19591 0.0
C918 C 0.13509 0.55112 0.18768 0.0
C919 C 0.20423 0.6171 0.08094 0.0
C920 C 0.18644 0.61547 0.07067 0.0
C921 C 0.20477 0.61201 0.10576 0.0
C922 C 0.18756 0.60531 0.12111 0.0
C923 C 0.16961 0.60317 0.11054 0.0
C924 C 0.16902 0.60803 0.08569 0.0
C925 C 0.18808 0.60039 0.14799 0.0
C926 C 0.17241 0.58193 0.15756 0.0
C927 C 0.20386 0.61361 0.16423 0.0
C928 C 0.22021 0.63394 0.15623 0.0
C929 C 0.21538 0.64805 0.1461 0.0
C930 C 0.23086 0.66712 0.13837 0.0
C931 C 0.25125 0.67231 0.14088 0.0
C932 C 0.25619 0.65847 0.15119 0.0
C933 C 0.24076 0.63937 0.15892 0.0
H934 H 0.26322 0.68708 0.13488 0.0
H935 H 0.11177 0.50406 0.2136 0.0
H936 H 0.72901 0.41173 0.38665 0.0
H937 H 0.69284 0.38857 0.3787 0.0
H938 H 0.70261 0.40322 0.30139 0.0
H939 H 0.73888 0.42659 0.30941 0.0
H940 H 0.65735 0.38484 0.35368 0.0
H941 H 0.68525 0.35696 0.27388 0.0
H942 H 0.71729 0.36062 0.25732 0.0
H943 H 0.74132 0.36823 0.33056 0.0
H944 H 0.70932 0.36423 0.34751 0.0
H945 H 0.58224 0.28019 0.30215 0.0
H946 H 0.60568 0.31724 0.30358 0.0
H947 H 0.63789 0.3091 0.36389 0.0
H948 H 0.6146 0.27242 0.36265 0.0
H949 H 0.65855 0.32736 0.31184 0.0
H950 H 0.61978 0.33029 0.38336 0.0
H951 H 0.58836 0.32615 0.40236 0.0
H952 H 0.58643 0.36696 0.34914 0.0
H953 H 0.61772 0.37111 0.32963 0.0
C954 C 0.72321 0.41062 0.36815 0.0
C955 C 0.73659 0.42066 0.34857 0.0
C956 C 0.70256 0.39753 0.36363 0.0
C957 C 0.69513 0.39406 0.33944 0.0
C958 C 0.70809 0.40576 0.3202 0.0
C959 C 0.72876 0.41904 0.32476 0.0
C960 C 0.67581 0.3752 0.3341 0.0
C961 C 0.65748 0.37239 0.3441 0.0
C962 C 0.67602 0.35889 0.32178 0.0
C963 C 0.69504 0.3606 0.31187 0.0
C964 C 0.69736 0.35933 0.28641 0.0
C965 C 0.7155 0.36146 0.27697 0.0
C966 C 0.73136 0.36475 0.29287 0.0
C967 C 0.72906 0.36575 0.31826 0.0
C968 C 0.71092 0.36355 0.32778 0.0
C969 C 0.59385 0.28651 0.31629 0.0
C970 C 0.59668 0.27367 0.33242 0.0
C971 C 0.60723 0.30755 0.317 0.0
C972 C 0.6234 0.31575 0.33388 0.0
C973 C 0.62537 0.30299 0.3509 0.0
C974 C 0.6121 0.28212 0.35022 0.0
C975 C 0.64019 0.3369 0.33175 0.0
C976 C 0.65816 0.34006 0.32045 0.0
C977 C 0.63963 0.35331 0.34314 0.0
C978 C 0.62087 0.35077 0.35484 0.0
C979 C 0.61251 0.33818 0.37554 0.0
C980 C 0.59477 0.33589 0.38645 0.0
C981 C 0.58535 0.34622 0.3769 0.0
C982 C 0.5937 0.35892 0.35647 0.0
C983 C 0.61144 0.36125 0.3455 0.0
H984 H 0.57163 0.34443 0.38538 0.0
H985 H 0.74542 0.36647 0.28552 0.0
H986 H 0.32353 0.7322 0.64865 0.0
H987 H 0.31018 0.69551 0.64719 0.0
H988 H 0.30434 0.69257 0.72637 0.0
H989 H 0.31844 0.72944 0.72773 0.0
H990 H 0.32648 0.67765 0.71307 0.0
H991 H 0.26202 0.66605 0.68664 0.0
H992 H 0.23732 0.67099 0.66244 0.0
H993 H 0.2572 0.65522 0.59627 0.0
H994 H 0.28225 0.6505 0.61998 0.0
H995 H 0.31396 0.58058 0.70148 0.0
H996 H 0.29979 0.60287 0.70951 0.0
H997 H 0.31503 0.62631 0.63552 0.0
H998 H 0.32899 0.604 0.62743 0.0
H999 H 0.28005 0.62593 0.65323 0.0
H1000 H 0.34981 0.64753 0.6785 0.0
H1001 H 0.37544 0.64319 0.70151 0.0
H1002 H 0.3455 0.64106 0.76947 0.0
H1003 H 0.31946 0.64504 0.74676 0.0
C1004 C 0.31864 0.72352 0.66558 0.0
C1005 C 0.32184 0.73341 0.68826 0.0
C1006 C 0.31094 0.70254 0.66479 0.0
C1007 C 0.30611 0.69117 0.68668 0.0
C1008 C 0.30791 0.70097 0.70924 0.0
C1009 C 0.31586 0.72197 0.71004 0.0
C1010 C 0.30275 0.67014 0.68626 0.0
C1011 C 0.31579 0.66613 0.70056 0.0
C1012 C 0.28918 0.65519 0.66955 0.0
C1013 C 0.27411 0.658 0.65513 0.0
C1014 C 0.26124 0.66377 0.66691 0.0
C1015 C 0.24715 0.66651 0.65327 0.0
C1016 C 0.2457 0.66344 0.62783 0.0
C1017 C 0.25833 0.65759 0.61598 0.0
C1018 C 0.27246 0.65484 0.62952 0.0
C1019 C 0.31356 0.58995 0.68671 0.0
C1020 C 0.32282 0.59089 0.66399 0.0
C1021 C 0.3055 0.60267 0.6913 0.0
C1022 C 0.30666 0.61644 0.67321 0.0
C1023 C 0.314 0.61582 0.64972 0.0
C1024 C 0.32212 0.60321 0.64518 0.0
C1025 C 0.30396 0.63388 0.67971 0.0
C1026 C 0.29005 0.63725 0.66641 0.0
C1027 C 0.31677 0.64838 0.69726 0.0
C1028 C 0.33256 0.6463 0.71094 0.0
C1029 C 0.34862 0.64599 0.69833 0.0
C1030 C 0.36322 0.64361 0.71131 0.0
C1031 C 0.36206 0.64178 0.73693 0.0
C1032 C 0.34634 0.64241 0.74962 0.0
C1033 C 0.33165 0.64471 0.73671 0.0
H1034 H 0.37338 0.63994 0.74695 0.0
H1035 H 0.23478 0.66557 0.61731 0.0
H1036 H 0.59398 0.32078 0.9814 0.0
H1037 H 0.6169 0.30685 0.97928 0.0
H1038 H 0.61501 0.30127 0.05847 0.0
H1039 H 0.59268 0.31597 0.0605 0.0
H1040 H 0.65192 0.32306 0.04435 0.0
H1041 H 0.59831 0.25884 0.01898 0.0
H1042 H 0.56823 0.2344 0.99532 0.0
H1043 H 0.60301 0.25357 0.92846 0.0
H1044 H 0.63324 0.27836 0.95163 0.0
H1045 H 0.73529 0.3091 0.03284 0.0
H1046 H 0.69872 0.2947 0.04037 0.0
H1047 H 0.6911 0.31085 0.9666 0.0
H1048 H 0.7275 0.32504 0.95898 0.0
H1049 H 0.6559 0.27584 0.98453 0.0
H1050 H 0.70474 0.34545 0.00875 0.0
H1051 H 0.73524 0.37082 0.03105 0.0
H1052 H 0.7084 0.3415 0.0996 0.0
H1053 H 0.67786 0.31571 0.07759 0.0
C1054 C 0.59791 0.31585 0.9982 0.0
C1055 C 0.59167 0.31932 0.02108 0.0
C1056 C 0.61093 0.3078 0.99703 0.0
C1057 C 0.61765 0.30289 0.01874 0.0
C1058 C 0.61004 0.30492 0.0415 0.0
C1059 C 0.59726 0.31323 0.04267 0.0
C1060 C 0.63518 0.29925 0.0179 0.0
C1061 C 0.65246 0.3122 0.03185 0.0
C1062 C 0.63619 0.28548 1.00116 0.0
C1063 C 0.61805 0.27055 0.98708 0.0
C1064 C 0.59953 0.25796 0.99921 0.0
C1065 C 0.58245 0.24402 0.98588 0.0
C1066 C 0.58371 0.24245 0.9604 0.0
C1067 C 0.60206 0.2548 0.9482 0.0
C1068 C 0.61919 0.26877 0.96143 0.0
C1069 C 0.72563 0.3088 0.01796 0.0
C1070 C 0.73414 0.31847 0.99551 0.0
C1071 C 0.70478 0.30059 0.02226 0.0
C1072 C 0.69231 0.30201 1.00415 0.0
C1073 C 0.70045 0.30961 0.98081 0.0
C1074 C 0.72125 0.31788 0.97656 0.0
C1075 C 0.67233 0.29975 0.01075 0.0
C1076 C 0.65485 0.286 0.99771 0.0
C1077 C 0.67102 0.31283 0.02825 0.0
C1078 C 0.68917 0.32853 0.04153 0.0
C1079 C 0.70541 0.34435 0.02856 0.0
C1080 C 0.72269 0.3588 0.04114 0.0
C1081 C 0.72378 0.35774 0.06673 0.0
C1082 C 0.70755 0.34226 0.07978 0.0
C1083 C 0.69026 0.32772 0.06727 0.0
H1084 H 0.73718 0.36894 0.07644 0.0
H1085 H 0.57046 0.23165 0.95012 0.0
H1086 H 0.40754 0.73523 0.37024 0.0
H1087 H 0.38613 0.69834 0.37313 0.0
H1088 H 0.41047 0.69164 0.30423 0.0
H1089 H 0.43194 0.72881 0.30128 0.0
H1090 H 0.36944 0.67496 0.30341 0.0
H1091 H 0.41665 0.6695 0.35488 0.0
H1092 H 0.44133 0.67854 0.38873 0.0
H1093 H 0.39428 0.66599 0.44146 0.0
H1094 H 0.36936 0.65716 0.40795 0.0
H1095 H 0.27944 0.58082 0.31806 0.0
H1096 H 0.31646 0.60179 0.31296 0.0
H1097 H 0.32026 0.63142 0.38213 0.0
H1098 H 0.28371 0.61 0.38776 0.0
H1099 H 0.35367 0.62977 0.37579 0.0
H1100 H 0.31191 0.64833 0.32502 0.0
H1101 H 0.28685 0.6423 0.29242 0.0
H1102 H 0.3238 0.63312 0.2398 0.0
H1103 H 0.34895 0.63885 0.27222 0.0
C1104 C 0.4088 0.72579 0.35619 0.0
C1105 C 0.42135 0.73463 0.33566 0.0
C1106 C 0.39667 0.70474 0.35787 0.0
C1107 C 0.39681 0.69222 0.33895 0.0
C1108 C 0.41026 0.70105 0.31905 0.0
C1109 C 0.42253 0.72217 0.31744 0.0
C1110 C 0.38042 0.67067 0.33816 0.0
C1111 C 0.36636 0.66474 0.31881 0.0
C1112 C 0.37623 0.65752 0.35848 0.0
C1113 C 0.39111 0.66266 0.37882 0.0
C1114 C 0.41157 0.66876 0.37368 0.0
C1115 C 0.42561 0.67384 0.39282 0.0
C1116 C 0.41938 0.67284 0.41723 0.0
C1117 C 0.39908 0.66672 0.42255 0.0
C1118 C 0.38498 0.66163 0.40347 0.0
C1119 C 0.28831 0.59138 0.33249 0.0
C1120 C 0.27867 0.59416 0.35302 0.0
C1121 C 0.30943 0.60342 0.32951 0.0
C1122 C 0.32109 0.61852 0.34689 0.0
C1123 C 0.31164 0.61999 0.36838 0.0
C1124 C 0.29068 0.6079 0.37144 0.0
C1125 C 0.34233 0.63468 0.34166 0.0
C1126 C 0.35725 0.63958 0.35986 0.0
C1127 C 0.34723 0.64716 0.32049 0.0
C1128 C 0.3321 0.64366 0.30108 0.0
C1129 C 0.31459 0.64486 0.30654 0.0
C1130 C 0.30039 0.64152 0.2881 0.0
C1131 C 0.30368 0.63723 0.26408 0.0
C1132 C 0.32123 0.63635 0.25844 0.0
C1133 C 0.33544 0.63962 0.27683 0.0
H1134 H 0.29268 0.63467 0.24982 0.0
H1135 H 0.43028 0.67679 0.43203 0.0
H1136 H 0.67329 0.40142 0.70431 0.0
H1137 H 0.68887 0.38007 0.70791 0.0
H1138 H 0.72346 0.40685 0.64168 0.0
H1139 H 0.70781 0.42842 0.63821 0.0
H1140 H 0.70071 0.36596 0.63876 0.0
H1141 H 0.74901 0.41229 0.6948 0.0
H1142 H 0.76207 0.43599 0.72986 0.0
H1143 H 0.72568 0.38725 0.77964 0.0
H1144 H 0.71212 0.3633 0.74489 0.0
H1145 H 0.70412 0.27584 0.6554 0.0
H1146 H 0.72076 0.31287 0.65105 0.0
H1147 H 0.69183 0.31599 0.71807 0.0
H1148 H 0.67644 0.27951 0.72327 0.0
H1149 H 0.72629 0.34915 0.71403 0.0
H1150 H 0.66932 0.30847 0.65649 0.0
H1151 H 0.65413 0.28406 0.62222 0.0
H1152 H 0.7054 0.32224 0.57642 0.0
H1153 H 0.72093 0.34675 0.61051 0.0
C1154 C 0.68474 0.40318 0.69103 0.0
C1155 C 0.68954 0.41653 0.67112 0.0
C1156 C 0.69371 0.39108 0.69312 0.0
C1157 C 0.70751 0.39201 0.67519 0.0
C1158 C 0.71302 0.40606 0.65583 0.0
C1159 C 0.70417 0.41837 0.65389 0.0
C1160 C 0.71338 0.37608 0.67494 0.0
C1161 C 0.70694 0.36263 0.65493 0.0
C1162 C 0.72137 0.37165 0.69606 0.0
C1163 C 0.72952 0.38597 0.71715 0.0
C1164 C 0.74369 0.40663 0.7132 0.0
C1165 C 0.75119 0.42012 0.73303 0.0
C1166 C 0.74471 0.41313 0.75696 0.0
C1167 C 0.73071 0.39264 0.7611 0.0
C1168 C 0.72314 0.37909 0.74133 0.0
C1169 C 0.70188 0.28455 0.66957 0.0
C1170 C 0.68849 0.27474 0.68929 0.0
C1171 C 0.71127 0.30569 0.66698 0.0
C1172 C 0.70705 0.31719 0.68381 0.0
C1173 C 0.69521 0.30753 0.70467 0.0
C1174 C 0.68616 0.28658 0.70745 0.0
C1175 C 0.71229 0.33847 0.67859 0.0
C1176 C 0.72086 0.35293 0.69751 0.0
C1177 C 0.70596 0.34376 0.65663 0.0
C1178 C 0.69637 0.32926 0.63607 0.0
C1179 C 0.67734 0.3116 0.6391 0.0
C1180 C 0.66869 0.29776 0.61974 0.0
C1181 C 0.67886 0.30156 0.5972 0.0
C1182 C 0.69759 0.31928 0.59392 0.0
C1183 C 0.70632 0.33315 0.61324 0.0
H1184 H 0.67224 0.29079 0.58228 0.0
H1185 H 0.75054 0.4236 0.77228 0.0
H1186 H 0.27976 0.69294 0.95226 0.0
H1187 H 0.31664 0.70635 0.95338 0.0
H1188 H 0.31391 0.69957 0.03238 0.0
H1189 H 0.27712 0.68673 0.03124 0.0
H1190 H 0.35116 0.73109 0.0175 0.0
H1191 H 0.30593 0.66024 0.9974 0.0
H1192 H 0.27879 0.63223 0.97347 0.0
H1193 H 0.31424 0.65544 0.9075 0.0
H1194 H 0.34153 0.68372 0.93106 0.0
H1195 H 0.40756 0.68403 0.05181 0.0
H1196 H 0.38522 0.69784 0.04289 0.0
H1197 H 0.40387 0.70574 0.96676 0.0
H1198 H 0.4264 0.69195 0.97577 0.0
H1199 H 0.36297 0.68076 0.97321 0.0
H1200 H 0.4126 0.74672 0.99909 0.0
H1201 H 0.43904 0.77251 0.02598 0.0
H1202 H 0.39526 0.75672 0.08407 0.0
H1203 H 0.3686 0.7306 0.05768 0.0
C1204 C 0.28727 0.69518 0.96989 0.0
C1205 C 0.27584 0.68889 0.99168 0.0
C1206 C 0.30826 0.70276 0.97054 0.0
C1207 C 0.31793 0.70359 0.99292 0.0
C1208 C 0.30677 0.69908 0.01493 0.0
C1209 C 0.28579 0.69173 0.0143 0.0
C1210 C 0.33832 0.70537 0.99306 0.0
C1211 C 0.35385 0.72019 0.00778 0.0
C1212 C 0.34188 0.69129 0.98006 0.0
C1213 C 0.32563 0.6742 0.9659 0.0
C1214 C 0.30787 0.65943 0.97776 0.0
C1215 C 0.29248 0.6435 0.96428 0.0
C1216 C 0.29475 0.64211 0.93896 0.0
C1217 C 0.31247 0.65658 0.9271 0.0
C1218 C 0.32792 0.67255 0.94051 0.0
C1219 C 0.40734 0.68932 0.03336 0.0
C1220 C 0.41853 0.68687 0.01442 0.0
C1221 C 0.3947 0.69733 0.02829 0.0
C1222 C 0.39293 0.70288 1.00417 0.0
C1223 C 0.40514 0.70167 0.98553 0.0
C1224 C 0.418 0.69386 0.99067 0.0
C1225 C 0.37586 0.70632 0.99796 0.0
C1226 C 0.36072 0.69223 0.98226 0.0
C1227 C 0.37265 0.72084 0.01041 0.0
C1228 C 0.38859 0.73661 0.0264 0.0
C1229 C 0.40863 0.74863 0.01766 0.0
C1230 C 0.42366 0.76334 0.03281 0.0
C1231 C 0.41884 0.76624 0.05673 0.0
C1232 C 0.39897 0.75446 0.06553 0.0
C1233 C 0.38387 0.73973 0.05046 0.0
H1234 H 0.4305 0.77763 0.06843 0.0
H1235 H 0.2828 0.62978 0.92855 0.0
H1236 H 0.50424 0.08026 0.27026 0.0
H1237 H 0.49571 0.04475 0.26587 0.0
H1238 H 0.5411 0.05412 0.32011 0.0
H1239 H 0.55046 0.08962 0.3235 0.0
H1240 H 0.54291 0.03153 0.28718 0.0
H1241 H 0.4868 0.02878 0.33167 0.0
H1242 H 0.45819 0.03491 0.33895 0.0
H1243 H 0.42841 1.00122 0.27375 0.0
H1244 H 0.45699 0.9951 0.26592 0.0
H1245 H 0.50751 0.93039 0.32883 0.0
H1246 H 0.51616 0.96588 0.32468 0.0
H1247 H 0.47754 0.95047 0.26081 0.0
H1248 H 0.46884 0.91475 0.26486 0.0
H1249 H 0.4715 0.97541 0.2944 0.0
H1250 H 0.52767 0.97598 0.25309 0.0
H1251 H 0.55619 0.96932 0.24852 0.0
H1252 H 0.58586 0.00694 0.31125 0.0
H1253 H 0.55736 0.01359 0.31641 0.0
C1254 C 0.5126 0.07487 0.28106 0.0
C1255 C 0.5279 0.08804 0.29755 0.0
C1256 C 0.5075 0.05436 0.27876 0.0
C1257 C 0.5174 0.04633 0.29302 0.0
C1258 C 0.53302 0.05962 0.30894 0.0
C1259 C 0.53821 0.08006 0.3111 0.0
C1260 C 0.51172 0.02425 0.29162 0.0
C1261 C 0.52727 0.01935 0.28901 0.0
C1262 C 0.49131 0.00801 0.29342 0.0
C1263 C 0.47414 0.01169 0.29805 0.0
C1264 C 0.47422 0.02282 0.31878 0.0
C1265 C 0.458 0.02627 0.32302 0.0
C1266 C 0.44152 0.01852 0.30678 0.0
C1267 C 0.44121 0.00725 0.28629 0.0
C1268 C 0.45741 1.00378 0.28195 0.0
C1269 C 0.50089 0.93451 0.3138 0.0
C1270 C 0.48746 0.91959 0.29717 0.0
C1271 C 0.50593 0.95491 0.31139 0.0
C1272 C 0.49759 0.96105 0.29238 0.0
C1273 C 0.48422 0.94623 0.27565 0.0
C1274 C 0.47938 0.9258 0.27786 0.0
C1275 C 0.50272 0.98286 0.29037 0.0
C1276 C 0.48709 0.98767 0.29237 0.0
C1277 C 0.52308 0.99903 0.28837 0.0
C1278 C 0.54029 0.99515 0.28525 0.0
C1279 C 0.5402 0.98271 0.26602 0.0
C1280 C 0.55638 0.97896 0.26331 0.0
C1281 C 0.57281 0.98767 0.27961 0.0
C1282 C 0.57312 1.00019 0.29864 0.0
C1283 C 0.55696 1.00397 0.30145 0.0
H1284 H 0.58532 0.98475 0.27748 0.0
H1285 H 0.42897 0.0212 0.3101 0.0
H1286 H 0.42924 0.50363 0.60384 0.0
H1287 H 0.45641 0.49524 0.59963 0.0
H1288 H 0.49071 0.53843 0.65655 0.0
H1289 H 0.4644 0.5477 0.6598 0.0
H1290 H 0.51613 0.54142 0.62426 0.0
H1291 H 0.4616 0.48379 0.665 0.0
H1292 H 0.4267 0.45502 0.67023 0.0
H1293 H 0.43268 0.42793 0.60372 0.0
H1294 H 0.46755 0.45669 0.59794 0.0
H1295 H 0.58133 0.50474 0.66458 0.0
H1296 H 0.55454 0.51357 0.66057 0.0
H1297 H 0.53249 0.4768 0.59519 0.0
H1298 H 0.55943 0.46786 0.59915 0.0
H1299 H 0.50089 0.46995 0.62767 0.0
H1300 H 0.55747 0.52747 0.59 0.0
H1301 H 0.59271 0.55604 0.58732 0.0
H1302 H 0.58296 0.58322 0.65134 0.0
H1303 H 0.54773 0.55465 0.65461 0.0
C1304 C 0.44265 0.51155 0.61528 0.0
C1305 C 0.44423 0.5262 0.63245 0.0
C1306 C 0.45817 0.50652 0.61307 0.0
C1307 C 0.47568 0.51583 0.62811 0.0
C1308 C 0.47747 0.53081 0.64475 0.0
C1309 C 0.46212 0.53594 0.64682 0.0
C1310 C 0.49218 0.51019 0.62676 0.0
C1311 C 0.51268 0.52576 0.62526 0.0
C1312 C 0.48803 0.48977 0.62748 0.0
C1313 C 0.46708 0.4725 0.63088 0.0
C1314 C 0.45541 0.47177 0.65139 0.0
C1315 C 0.43565 0.45546 0.65447 0.0
C1316 C 0.42745 0.43969 0.63727 0.0
C1317 C 0.43903 0.44018 0.61699 0.0
C1318 C 0.4588 0.45647 0.61381 0.0
C1319 C 0.57086 0.49855 0.64925 0.0
C1320 C 0.57265 0.48555 0.63219 0.0
C1321 C 0.55553 0.50371 0.64692 0.0
C1322 C 0.54138 0.49596 0.62751 0.0
C1323 C 0.54314 0.48303 0.61034 0.0
C1324 C 0.55869 0.47806 0.6125 0.0
C1325 C 0.52469 0.50119 0.62557 0.0
C1326 C 0.50423 0.48557 0.62647 0.0
C1327 C 0.52886 0.52157 0.62465 0.0
C1328 C 0.55001 0.53883 0.62266 0.0
C1329 C 0.56288 0.53946 0.60361 0.0
C1330 C 0.58285 0.55566 0.60197 0.0
C1331 C 0.59009 0.57141 0.61918 0.0
C1332 C 0.57735 0.571 0.63803 0.0
C1333 C 0.55737 0.55482 0.63977 0.0
H1334 H 0.60555 0.58394 0.61788 0.0
H1335 H 0.41215 0.42708 0.6397 0.0
H1336 H 0.91613 0.45385 0.93472 0.0
H1337 H 0.95174 0.48121 0.93245 0.0
H1338 H 0.96642 0.45511 0.99418 0.0
H1339 H 0.93079 0.42838 0.99703 0.0
H1340 H 0.98435 0.49269 1.00153 0.0
H1341 H 0.98069 0.45412 0.92963 0.0
H1342 H 0.9672 0.4373 0.88971 0.0
H1343 H 0.98023 0.49427 0.85782 0.0
H1344 H 0.99358 0.51139 0.89765 0.0
H1345 H 0.09173 0.54599 0.99315 0.0
H1346 H 0.05603 0.51976 0.99043 0.0
H1347 H 0.04531 0.55602 0.93812 0.0
H1348 H 0.0812 0.58275 0.94108 0.0
H1349 H 0.02526 0.51524 0.92488 0.0
H1350 H 0.03051 0.5536 0.99741 0.0
H1351 H 0.04482 0.56977 0.0374 0.0
H1352 H 0.02934 0.51176 0.06823 0.0
H1353 H 0.01518 0.49527 0.02831 0.0
C1354 C 0.92703 0.45382 0.94758 0.0
C1355 C 0.92052 0.43885 0.96605 0.0
C1356 C 0.94751 0.46951 0.94626 0.0
C1357 C 0.96218 0.47039 0.963 0.0
C1358 C 0.95565 0.4551 0.98107 0.0
C1359 C 0.93519 0.43968 0.98265 0.0
C1360 C 0.98406 0.48746 0.96251 0.0
C1361 C 0.99326 0.49731 0.98473 0.0
C1362 C 0.9959 0.49423 0.94063 0.0
C1363 C 0.98793 0.48399 0.91668 0.0
C1364 C 0.98054 0.46303 0.91415 0.0
C1365 C 0.97295 0.45345 0.89153 0.0
C1366 C 0.9728 0.4647 0.87126 0.0
C1367 C 0.98032 0.48557 0.87354 0.0
C1368 C 0.98792 0.49522 0.89613 0.0
C1369 C 0.08186 0.54865 0.98122 0.0
C1370 C 0.08956 0.56688 0.96767 0.0
C1371 C 0.06132 0.53346 0.97959 0.0
C1372 C 0.0477 0.53589 0.96437 0.0
C1373 C 0.0554 0.5537 0.95009 0.0
C1374 C 0.07602 0.56901 0.95176 0.0
C1375 C 0.02546 0.52 0.96392 0.0
C1376 C 0.01623 0.5105 0.9416 0.0
C1377 C 0.01361 0.51337 0.98572 0.0
C1378 C 0.02194 0.52323 0.00981 0.0
C1379 C 0.03028 0.54431 0.01267 0.0
C1380 C 0.03835 0.55353 0.03533 0.0
C1381 C 0.03803 0.5418 0.05533 0.0
C1382 C 0.02959 0.52082 0.05272 0.0
C1383 C 0.02152 0.51153 0.03009 0.0
H1384 H 0.04429 0.54897 0.07286 0.0
H1385 H 0.96691 0.45725 0.85377 0.0
H1386 H 0.09525 0.54016 0.41457 0.0
H1387 H 0.05961 0.5319 0.41747 0.0
H1388 H 0.04529 0.49445 0.35264 0.0
H1389 H 0.08089 0.50322 0.34931 0.0
H1390 H 0.02749 0.51479 0.34788 0.0
H1391 H 0.03057 0.47577 0.41561 0.0
H1392 H 0.04368 0.46994 0.45447 0.0
H1393 H 0.03036 0.51183 0.49165 0.0
H1394 H 0.01739 0.5181 0.45293 0.0
H1395 H 0.92014 0.45968 0.35522 0.0
H1396 H 0.95587 0.46914 0.35794 0.0
H1397 H 0.96575 0.51407 0.41279 0.0
H1398 H 0.92983 0.50505 0.4097 0.0
H1399 H 0.98593 0.49215 0.42404 0.0
H1400 H 0.98113 0.52927 0.35541 0.0
H1401 H 0.96711 0.53344 0.31631 0.0
H1402 H 0.98309 0.49295 0.28048 0.0
H1403 H 0.99695 0.48831 0.31947 0.0
C1404 C 0.08443 0.52994 0.40114 0.0
C1405 C 0.09107 0.52241 0.38168 0.0
C1406 C 0.06394 0.52516 0.40281 0.0
C1407 C 0.04936 0.51233 0.38539 0.0
C1408 C 0.05599 0.50447 0.36631 0.0
C1409 C 0.07646 0.50947 0.36444 0.0
C1410 C 0.02748 0.50761 0.38626 0.0
C1411 C 0.01845 0.50958 0.36455 0.0
C1412 C 0.01545 0.50132 0.40803 0.0
C1413 C 0.02322 0.49757 0.43131 0.0
C1414 C 0.03058 0.48386 0.43203 0.0
C1415 C 0.03796 0.48045 0.45404 0.0
C1416 C 0.03791 0.49056 0.4755 0.0
C1417 C 0.03042 0.50404 0.47501 0.0
C1418 C 0.02304 0.50752 0.45304 0.0
C1419 C 0.92982 0.47177 0.36772 0.0
C1420 C 0.92187 0.48181 0.38186 0.0
C1421 C 0.95037 0.47709 0.36936 0.0
C1422 C 0.96378 0.49257 0.3853 0.0
C1423 C 0.95583 0.50211 0.40026 0.0
C1424 C 0.93518 0.49687 0.39851 0.0
C1425 C 0.98607 0.49898 0.38561 0.0
C1426 C 0.99511 0.4974 0.40747 0.0
C1427 C 0.9981 0.50542 0.36394 0.0
C1428 C 0.98992 0.50831 0.34042 0.0
C1429 C 0.98152 0.52114 0.33924 0.0
C1430 C 0.97362 0.52361 0.31708 0.0
C1431 C 0.97417 0.51343 0.29594 0.0
C1432 C 0.98266 0.50081 0.29688 0.0
C1433 C 0.99056 0.49827 0.319 0.0
H1434 H 0.96804 0.51536 0.27881 0.0
H1435 H 0.04363 0.4879 0.49252 0.0
H1436 H 0.58041 0.07798 0.68465 0.0
H1437 H 0.55355 0.04249 0.6874 0.0
H1438 H 0.52954 0.05625 0.75193 0.0
H1439 H 0.55699 0.09186 0.74963 0.0
H1440 H 0.52512 0.02025 0.75791 0.0
H1441 H 0.50788 0.05032 0.69213 0.0
H1442 H 0.51304 0.06967 0.65378 0.0
H1443 H 0.52244 0.0262 0.61397 0.0
H1444 H 0.51762 0.00674 0.65217 0.0
H1445 H 0.42771 0.92692 0.7439 0.0
H1446 H 0.45457 0.96263 0.74741 0.0
H1447 H 0.48882 0.95366 0.69044 0.0
H1448 H 0.46271 0.91807 0.68742 0.0
H1449 H 0.48595 0.98785 0.68202 0.0
H1450 H 0.5036 0.95841 0.7497 0.0
H1451 H 0.49719 0.93932 0.7885 0.0
H1452 H 0.48477 0.98204 0.82515 0.0
H1453 H 0.49083 1.00124 0.78645 0.0
C1454 C 0.56949 0.07347 0.69953 0.0
C1455 C 0.57084 0.08793 0.71678 0.0
C1456 C 0.55397 0.05309 0.70102 0.0
C1457 C 0.53894 0.04651 0.71948 0.0
C1458 C 0.54073 0.06076 0.73736 0.0
C1459 C 0.5565 0.08118 0.73607 0.0
C1460 C 0.5213 0.02497 0.71963 0.0
C1461 C 0.51639 0.01334 0.74136 0.0
C1462 C 0.50976 0.01557 0.69812 0.0
C1463 C 0.51256 0.02716 0.67506 0.0
C1464 C 0.51118 0.04496 0.67523 0.0
C1465 C 0.51403 0.05594 0.65351 0.0
C1466 C 0.51811 0.0492 0.63147 0.0
C1467 C 0.5193 0.03142 0.63107 0.0
C1468 C 0.51649 0.0204 0.65274 0.0
C1469 C 0.44107 0.9324 0.73233 0.0
C1470 C 0.44264 0.91934 0.7151 0.0
C1471 C 0.45645 0.95295 0.73431 0.0
C1472 C 0.47382 0.96105 0.7191 0.0
C1473 C 0.47556 0.948 0.70223 0.0
C1474 C 0.46039 0.92752 0.70042 0.0
C1475 C 0.49005 0.98311 0.72012 0.0
C1476 C 0.49464 0.99485 0.69858 0.0
C1477 C 0.50104 0.99262 0.74186 0.0
C1478 C 0.49744 0.98112 0.76512 0.0
C1479 C 0.49932 0.96363 0.76598 0.0
C1480 C 0.49579 0.95281 0.78796 0.0
C1481 C 0.49052 0.95942 0.80926 0.0
C1482 C 0.48882 0.97691 0.80863 0.0
C1483 C 0.49231 0.98777 0.78668 0.0
H1484 H 0.48779 0.95103 0.82627 0.0
H1485 H 0.52032 0.05772 0.61467 0.0
H1486 H 0.50614 0.58141 0.07899 0.0
H1487 H 0.51419 0.55411 0.08358 0.0
H1488 H 0.47271 0.52105 0.0246 0.0
H1489 H 0.46353 0.5473 0.02118 0.0
H1490 H 0.46853 0.49505 0.0558 0.0
H1491 H 0.52848 0.55047 0.01954 0.0
H1492 H 0.55768 0.58533 0.01673 0.0
H1493 H 0.58121 0.57702 0.08494 0.0
H1494 H 0.552 0.54217 0.08829 0.0
H1495 H 0.50642 0.43066 0.01702 0.0
H1496 H 0.49771 0.45749 0.02077 0.0
H1497 H 0.53162 0.47741 0.08851 0.0
H1498 H 0.54052 0.45049 0.08477 0.0
H1499 H 0.54009 0.50988 0.05717 0.0
H1500 H 0.48038 0.45236 0.09003 0.0
H1501 H 0.45155 0.41721 0.09002 0.0
H1502 H 0.42792 0.42951 0.02448 0.0
H1503 H 0.45676 0.46467 0.02389 0.0
C1504 C 0.4985 0.56824 0.06718 0.0
C1505 C 0.48436 0.56701 0.0494 0.0
C1506 C 0.50337 0.55264 0.06959 0.0
C1507 C 0.49448 0.53546 0.05407 0.0
C1508 C 0.48002 0.53403 0.03678 0.0
C1509 C 0.47496 0.54939 0.03459 0.0
C1510 C 0.49996 0.51888 0.05561 0.0
C1511 C 0.48423 0.49844 0.05583 0.0
C1512 C 0.5204 0.5229 0.05627 0.0
C1513 C 0.53794 0.54382 0.05431 0.0
C1514 C 0.53981 0.55614 0.03403 0.0
C1515 C 0.55637 0.57588 0.03232 0.0
C1516 C 0.57126 0.58341 0.05069 0.0
C1517 C 0.56964 0.57118 0.07075 0.0
C1518 C 0.5531 0.55143 0.07256 0.0
C1519 C 0.51203 0.44069 0.03279 0.0
C1520 C 0.52422 0.4383 0.05058 0.0
C1521 C 0.50693 0.45603 0.03498 0.0
C1522 C 0.51389 0.46957 0.05499 0.0
C1523 C 0.526 0.46722 0.07288 0.0
C1524 C 0.53095 0.45168 0.07084 0.0
C1525 C 0.50867 0.48624 0.05686 0.0
C1526 C 0.52443 0.50662 0.0573 0.0
C1527 C 0.48827 0.48219 0.0564 0.0
C1528 C 0.47082 0.46111 0.05682 0.0
C1529 C 0.46911 0.44753 0.07552 0.0
C1530 C 0.45276 0.42761 0.07563 0.0
C1531 C 0.43793 0.42112 0.05723 0.0
C1532 C 0.43941 0.43456 0.03871 0.0
C1533 C 0.45575 0.45449 0.0385 0.0
H1534 H 0.42529 0.40569 0.05735 0.0
H1535 H 0.58407 0.59869 0.04933 0.0
H1536 H 0.55028 0.20132 0.21088 0.0
H1537 H 0.55112 0.22673 0.18211 0.0
H1538 H 0.55495 0.26453 0.24336 0.0
H1539 H 0.55443 0.23923 0.27203 0.0
H1540 H 0.52652 0.24198 0.17395 0.0
H1541 H 0.58094 0.31489 0.2261 0.0
H1542 H 0.60845 0.32662 0.25689 0.0
H1543 H 0.6239 0.28263 0.23097 0.0
H1544 H 0.59672 0.27086 0.19975 0.0
H1545 H 0.52507 0.33027 0.1271 0.0
H1546 H 0.52617 0.30597 0.15595 0.0
H1547 H 0.58098 0.31443 0.12129 0.0
H1548 H 0.57928 0.338 0.09147 0.0
H1549 H 0.58138 0.31415 0.17624 0.0
H1550 H 0.54088 0.27385 0.10751 0.0
H1551 H 0.51264 0.26226 0.07782 0.0
H1552 H 0.46947 0.24092 0.1372 0.0
H1553 H 0.4975 0.25271 0.16728 0.0
C1554 C 0.5516 0.21519 0.21818 0.0
C1555 C 0.55275 0.2184 0.2438 0.0
C1556 C 0.55189 0.2297 0.20169 0.0
C1557 C 0.5534 0.24794 0.21024 0.0
C1558 C 0.55418 0.25093 0.23595 0.0
C1559 C 0.55381 0.23638 0.25243 0.0
C1560 C 0.55407 0.26363 0.19235 0.0
C1561 C 0.53857 0.25773 0.17459 0.0
C1562 C 0.5697 0.28439 0.19276 0.0
C1563 C 0.58667 0.29189 0.21072 0.0
C1564 C 0.59031 0.30782 0.22685 0.0
C1565 C 0.60582 0.31445 0.24442 0.0
C1566 C 0.61785 0.30531 0.24598 0.0
C1567 C 0.61452 0.28964 0.22981 0.0
C1568 C 0.59907 0.28299 0.21217 0.0
C1569 C 0.53712 0.32664 0.1252 0.0
C1570 C 0.55165 0.33561 0.10624 0.0
C1571 C 0.53789 0.31289 0.14201 0.0
C1572 C 0.55358 0.30806 0.14091 0.0
C1573 C 0.56867 0.31774 0.1227 0.0
C1574 C 0.56767 0.33122 0.10557 0.0
C1575 C 0.55374 0.29245 0.15814 0.0
C1576 C 0.56936 0.29839 0.17571 0.0
C1577 C 0.53817 0.27175 0.15771 0.0
C1578 C 0.5213 0.26432 0.13964 0.0
C1579 C 0.52537 0.26682 0.11424 0.0
C1580 C 0.5094 0.2602 0.09734 0.0
C1581 C 0.48927 0.2509 0.10562 0.0
C1582 C 0.48507 0.24814 0.13081 0.0
C1583 C 0.501 0.25478 0.14779 0.0
H1584 H 0.47693 0.24579 0.09251 0.0
H1585 H 0.62978 0.3104 0.25968 0.0
H1586 H 0.20515 0.55025 0.46939 0.0
H1587 H 0.22998 0.55085 0.49887 0.0
H1588 H 0.2678 0.5523 0.43875 0.0
H1589 H 0.24284 0.5516 0.40929 0.0
H1590 H 0.26769 0.52749 0.47214 0.0
H1591 H 0.27892 0.59528 0.47643 0.0
H1592 H 0.26955 0.62179 0.48206 0.0
H1593 H 0.24949 0.6008 0.55569 0.0
H1594 H 0.25843 0.57393 0.55037 0.0
H1595 H 0.35601 0.55191 0.5442 0.0
H1596 H 0.33192 0.55279 0.51473 0.0
H1597 H 0.29388 0.55099 0.57482 0.0
H1598 H 0.31838 0.55072 0.60428 0.0
H1599 H 0.29429 0.57633 0.54148 0.0
H1600 H 0.2827 0.50844 0.53716 0.0
H1601 H 0.29209 0.48192 0.53172 0.0
H1602 H 0.31276 0.50311 0.4583 0.0
H1603 H 0.30378 0.52997 0.46344 0.0
C1604 C 0.21893 0.55108 0.46244 0.0
C1605 C 0.22218 0.55142 0.43688 0.0
C1606 C 0.23321 0.55137 0.47939 0.0
C1607 C 0.25126 0.55201 0.47138 0.0
C1608 C 0.25424 0.55191 0.44575 0.0
C1609 C 0.23994 0.5516 0.42882 0.0
C1610 C 0.26678 0.55247 0.48954 0.0
C1611 C 0.27367 0.53841 0.48705 0.0
C1612 C 0.2745 0.56629 0.50963 0.0
C1613 C 0.26915 0.58246 0.5129 0.0
C1614 C 0.27236 0.59621 0.49376 0.0
C1615 C 0.26714 0.61131 0.4969 0.0
C1616 C 0.25888 0.61294 0.5192 0.0
C1617 C 0.25586 0.59949 0.53842 0.0
C1618 C 0.261 0.58433 0.53535 0.0
C1619 C 0.34269 0.55205 0.55115 0.0
C1620 C 0.33939 0.55162 0.57671 0.0
C1621 C 0.32867 0.55227 0.53421 0.0
C1622 C 0.31068 0.55175 0.54221 0.0
C1623 C 0.30749 0.55144 0.56783 0.0
C1624 C 0.32152 0.55123 0.58476 0.0
C1625 C 0.29521 0.55138 0.52404 0.0
C1626 C 0.28832 0.56543 0.52655 0.0
C1627 C 0.28746 0.53754 0.50398 0.0
C1628 C 0.29275 0.52134 0.50077 0.0
C1629 C 0.28938 0.50753 0.51991 0.0
C1630 C 0.29461 0.49243 0.51688 0.0
C1631 C 0.30306 0.49086 0.4947 0.0
C1632 C 0.30624 0.50436 0.47549 0.0
C1633 C 0.30107 0.51952 0.47844 0.0
H1634 H 0.3071 0.47916 0.49239 0.0
H1635 H 0.25486 0.62465 0.5216 0.0
H1636 H 0.80323 0.35374 0.87758 0.0
H1637 H 0.77751 0.32932 0.84912 0.0
H1638 H 0.74881 0.28735 0.90893 0.0
H1639 H 0.77369 0.31238 0.93783 0.0
H1640 H 0.75766 0.27113 0.86109 0.0
H1641 H 0.72405 0.30614 0.89261 0.0
H1642 H 0.72153 0.33648 0.90237 0.0
H1643 H 0.72931 0.35321 0.82598 0.0
H1644 H 0.73225 0.32311 0.81581 0.0
H1645 H 0.66876 0.19601 0.79932 0.0
H1646 H 0.69274 0.22066 0.8291 0.0
H1647 H 0.70562 0.26939 0.7785 0.0
H1648 H 0.68114 0.24465 0.74906 0.0
H1649 H 0.70519 0.28275 0.82201 0.0
H1650 H 0.73891 0.24934 0.78923 0.0
H1651 H 0.74336 0.22043 0.77759 0.0
H1652 H 0.73805 0.2024 0.85336 0.0
H1653 H 0.73322 0.23103 0.86543 0.0
C1654 C 0.79102 0.33967 0.88493 0.0
C1655 C 0.79014 0.33552 0.91036 0.0
C1656 C 0.77646 0.32549 0.86847 0.0
C1657 C 0.76096 0.30639 0.87671 0.0
C1658 C 0.76046 0.30192 0.90195 0.0
C1659 C 0.77472 0.3163 0.91851 0.0
C1660 C 0.74538 0.2912 0.85904 0.0
C1661 C 0.746 0.27353 0.85284 0.0
C1662 C 0.73048 0.29446 0.84746 0.0
C1663 C 0.72863 0.31251 0.85349 0.0
C1664 C 0.72545 0.3164 0.87792 0.0
C1665 C 0.7239 0.33353 0.88353 0.0
C1666 C 0.72532 0.3468 0.86482 0.0
C1667 C 0.72825 0.34293 0.84046 0.0
C1668 C 0.72986 0.32583 0.83476 0.0
C1669 C 0.67668 0.212 0.79462 0.0
C1670 C 0.6731 0.21833 0.77175 0.0
C1671 C 0.69058 0.22617 0.81163 0.0
C1672 C 0.70159 0.24716 0.8062 0.0
C1673 C 0.69758 0.25346 0.78344 0.0
C1674 C 0.68358 0.23926 0.7665 0.0
C1675 C 0.71723 0.26239 0.82404 0.0
C1676 C 0.71675 0.28018 0.83023 0.0
C1677 C 0.73248 0.25938 0.83533 0.0
C1678 C 0.73549 0.24221 0.8282 0.0
C1679 C 0.73854 0.23912 0.8034 0.0
C1680 C 0.74115 0.22279 0.79672 0.0
C1681 C 0.74094 0.20955 0.81472 0.0
C1682 C 0.73817 0.21265 0.83944 0.0
C1683 C 0.7355 0.22893 0.84621 0.0
H1684 H 0.74297 0.19693 0.80952 0.0
H1685 H 0.7241 0.36006 0.86919 0.0
H1686 H 0.45822 0.69189 0.07679 0.0
H1687 H 0.45751 0.71608 0.10618 0.0
H1688 H 0.46099 0.68094 0.16637 0.0
H1689 H 0.46139 0.65661 0.13686 0.0
H1690 H 0.43554 0.6933 0.17907 0.0
H1691 H 0.50297 0.72775 0.14521 0.0
H1692 H 0.52858 0.74136 0.11203 0.0
H1693 H 0.50538 0.77974 0.08783 0.0
H1694 H 0.47941 0.76612 0.12064 0.0
H1695 H 0.46176 0.76943 0.2721 0.0
H1696 H 0.46143 0.74461 0.24285 0.0
H1697 H 0.45831 0.77982 0.1825 0.0
H1698 H 0.45929 0.80491 0.21179 0.0
H1699 H 0.48325 0.7672 0.16995 0.0
H1700 H 0.41616 0.73323 0.20418 0.0
H1701 H 0.39021 0.71934 0.23696 0.0
H1702 H 0.41235 0.67984 0.2602 0.0
H1703 H 0.43874 0.69382 0.2279 0.0
C1704 C 0.45876 0.6893 0.09631 0.0
C1705 C 0.4596 0.67212 0.10439 0.0
C1706 C 0.45848 0.70326 0.11322 0.0
C1707 C 0.45945 0.70075 0.13886 0.0
C1708 C 0.46015 0.68344 0.14689 0.0
C1709 C 0.46033 0.66942 0.12995 0.0
C1710 C 0.45988 0.71612 0.15716 0.0
C1711 C 0.44621 0.70943 0.17717 0.0
C1712 C 0.47338 0.73739 0.1548 0.0
C1713 C 0.48913 0.74578 0.13525 0.0
C1714 C 0.50326 0.73901 0.13272 0.0
C1715 C 0.51784 0.74673 0.11399 0.0
C1716 C 0.51858 0.76138 0.0978 0.0
C1717 C 0.50477 0.76838 0.10036 0.0
C1718 C 0.49012 0.76067 0.11903 0.0
C1719 C 0.46089 0.7718 0.25258 0.0
C1720 C 0.46003 0.78896 0.24442 0.0
C1721 C 0.46059 0.7575 0.23575 0.0
C1722 C 0.45942 0.75984 0.21013 0.0
C1723 C 0.45903 0.77729 0.20199 0.0
C1724 C 0.45935 0.79161 0.21884 0.0
C1725 C 0.4589 0.7444 0.19188 0.0
C1726 C 0.47257 0.75109 0.17187 0.0
C1727 C 0.44539 0.72313 0.19426 0.0
C1728 C 0.42957 0.71473 0.21376 0.0
C1729 C 0.41563 0.72172 0.21643 0.0
C1730 C 0.40083 0.71383 0.23492 0.0
C1731 C 0.39967 0.69876 0.2507 0.0
C1732 C 0.4133 0.69155 0.24802 0.0
C1733 C 0.42819 0.69947 0.22962 0.0
H1734 H 0.38817 0.69264 0.26495 0.0
H1735 H 0.52988 0.76734 0.08331 0.0
H1736 H 0.65917 0.45812 0.54633 0.0
H1737 H 0.68344 0.4579 0.51658 0.0
H1738 H 0.72076 0.45766 0.57632 0.0
H1739 H 0.69648 0.45806 0.60603 0.0
H1740 H 0.74492 0.48233 0.54261 0.0
H1741 H 0.68901 0.41413 0.53905 0.0
H1742 H 0.65321 0.38725 0.53393 0.0
H1743 H 0.65311 0.4078 0.46033 0.0
H1744 H 0.68884 0.43501 0.46515 0.0
H1745 H 0.80886 0.45817 0.47011 0.0
H1746 H 0.78403 0.45736 0.49977 0.0
H1747 H 0.74733 0.45867 0.43995 0.0
H1748 H 0.77199 0.45893 0.41029 0.0
H1749 H 0.72271 0.43317 0.47361 0.0
H1750 H 0.77854 0.50139 0.47721 0.0
H1751 H 0.81436 0.52823 0.48226 0.0
H1752 H 0.8146 0.50756 0.55575 0.0
H1753 H 0.77884 0.48039 0.55101 0.0
C1754 C 0.67237 0.45767 0.55313 0.0
C1755 C 0.67554 0.45758 0.57866 0.0
C1756 C 0.68636 0.45758 0.53603 0.0
C1757 C 0.70403 0.45736 0.54386 0.0
C1758 C 0.70737 0.45771 0.56945 0.0
C1759 C 0.69339 0.45785 0.58653 0.0
C1760 C 0.71908 0.45706 0.52554 0.0
C1761 C 0.73999 0.47134 0.52777 0.0
C1762 C 0.71299 0.44314 0.50555 0.0
C1763 C 0.69154 0.42674 0.50256 0.0
C1764 C 0.68131 0.41301 0.52184 0.0
C1765 C 0.66103 0.3977 0.51899 0.0
C1766 C 0.65088 0.39585 0.49684 0.0
C1767 C 0.66099 0.40927 0.47749 0.0
C1768 C 0.68126 0.42464 0.48027 0.0
C1769 C 0.79536 0.458 0.46326 0.0
C1770 C 0.79232 0.45828 0.43773 0.0
C1771 C 0.78119 0.45779 0.48031 0.0
C1772 C 0.76361 0.45815 0.47243 0.0
C1773 C 0.76057 0.45835 0.44684 0.0
C1774 C 0.77476 0.45857 0.4298 0.0
C1775 C 0.74854 0.45842 0.49072 0.0
C1776 C 0.72763 0.44415 0.48846 0.0
C1777 C 0.75462 0.47234 0.5107 0.0
C1778 C 0.77607 0.48873 0.51366 0.0
C1779 C 0.78627 0.50248 0.49439 0.0
C1780 C 0.80656 0.51776 0.4972 0.0
C1781 C 0.81676 0.51957 0.51929 0.0
C1782 C 0.80668 0.50613 0.53864 0.0
C1783 C 0.7864 0.49079 0.5359 0.0
H1784 H 0.83247 0.53142 0.52144 0.0
H1785 H 0.63518 0.38398 0.49467 0.0
H1786 H 0.22229 0.6991 0.92745 0.0
H1787 H 0.24745 0.72352 0.89945 0.0
H1788 H 0.25203 0.6756 0.86332 0.0
H1789 H 0.22773 0.65128 0.89187 0.0
H1790 H 0.2874 0.706 0.86319 0.0
H1791 H 0.22405 0.70031 0.83881 0.0
H1792 H 0.19194 0.70067 0.84446 0.0
H1793 H 0.22541 0.76306 0.86721 0.0
H1794 H 0.25773 0.763 0.86202 0.0
H1795 H 0.33664 0.76411 0.75419 0.0
H1796 H 0.31279 0.73911 0.7839 0.0
H1797 H 0.31237 0.78738 0.82513 0.0
H1798 H 0.33619 0.81228 0.79541 0.0
H1799 H 0.27447 0.75663 0.82176 0.0
H1800 H 0.33815 0.76173 0.84472 0.0
H1801 H 0.36974 0.76066 0.83757 0.0
H1802 H 0.3347 0.69825 0.81529 0.0
H1803 H 0.30289 0.69903 0.82198 0.0
C1804 C 0.22769 0.69327 0.91296 0.0
C1805 C 0.22031 0.67214 0.91066 0.0
C1806 C 0.24257 0.7076 0.8969 0.0
C1807 C 0.25109 0.70159 0.8779 0.0
C1808 C 0.24531 0.68088 0.87695 0.0
C1809 C 0.23059 0.66657 0.89322 0.0
C1810 C 0.26609 0.71679 0.85944 0.0
C1811 C 0.28431 0.71684 0.85395 0.0
C1812 C 0.26268 0.73144 0.84731 0.0
C1813 C 0.2433 0.73159 0.85026 0.0
C1814 C 0.22456 0.71407 0.84516 0.0
C1815 C 0.20632 0.71422 0.84827 0.0
C1816 C 0.20663 0.73186 0.85625 0.0
C1817 C 0.22519 0.7494 0.86107 0.0
C1818 C 0.24348 0.74932 0.85804 0.0
C1819 C 0.33152 0.76937 0.76968 0.0
C1820 C 0.33816 0.79021 0.77215 0.0
C1821 C 0.31786 0.75504 0.78679 0.0
C1822 C 0.31058 0.76111 0.80716 0.0
C1823 C 0.31745 0.78203 0.8097 0.0
C1824 C 0.33112 0.79634 0.79261 0.0
C1825 C 0.29572 0.74583 0.82558 0.0
C1826 C 0.27751 0.74578 0.83102 0.0
C1827 C 0.29906 0.73105 0.83743 0.0
C1828 C 0.31815 0.7305 0.83364 0.0
C1829 C 0.33718 0.74781 0.83815 0.0
C1830 C 0.35513 0.74726 0.8342 0.0
C1831 C 0.35423 0.72941 0.82593 0.0
C1832 C 0.33538 0.71207 0.82167 0.0
C1833 C 0.31738 0.71255 0.82555 0.0
H1834 H 0.36814 0.72901 0.82288 0.0
H1835 H 0.1925 0.73195 0.85865 0.0
loop_
_geom_bond_atom_site_label_1
_geom_bond_atom_site_label_2
_geom_bond_distance
_geom_bond_site_symmetry_2
_ccdc_geom_bond_type
C0 C1 1.443 . S
C0 N4 1.376 . S
C0 C38 1.389 . S
C1 C0 1.443 . S
C1 C2 1.340 . S
C1 H41 0.951 . S
C2 C1 1.340 . S
C2 C3 1.439 . S
C2 H42 0.950 . S
C3 C2 1.439 . S
C3 N4 1.374 . S
C3 C37 1.395 . S
N4 C0 1.376 . S
N4 C3 1.374 . S
N4 Co5 2.008 . S
Co5 N4 2.008 . S
Co5 N6 1.995 . S
Co5 N11 2.008 . S
Co5 N16 1.995 . S
Co5 N21 2.282 . S
Co5 N27 2.282 . S
N6 Co5 1.995 . S
N6 C7 1.376 . S
N6 C10 1.383 . S
C7 N6 1.376 . S
C7 C8 1.446 . S
C7 C37 1.391 . S
C8 C7 1.446 . S
C8 C9 1.339 . S
C8 H43 0.949 . S
C9 C8 1.339 . S
C9 C10 1.439 . S
C9 H44 0.950 . S
C10 N6 1.383 . S
C10 C9 1.439 . S
C10 C39 1.392 . S
N11 Co5 2.008 . S
N11 C12 1.376 . S
N11 C15 1.374 . S
C12 N11 1.376 . S
C12 C13 1.443 . S
C12 C39 1.389 . S
C13 C12 1.443 . S
C13 C14 1.340 . S
C13 H45 0.951 . S
C14 C13 1.340 . S
C14 C15 1.439 . S
C14 H46 0.950 . S
C15 N11 1.374 . S
C15 C14 1.439 . S
C15 C40 1.395 . S
N16 Co5 1.995 . S
N16 C17 1.376 . S
N16 C20 1.383 . S
C17 N16 1.376 . S
C17 C18 1.446 . S
C17 C40 1.391 . S
C18 C17 1.446 . S
C18 C19 1.339 . S
C18 H47 0.949 . S
C19 C18 1.339 . S
C19 C20 1.439 . S
C19 H48 0.950 . S
C20 N16 1.383 . S
C20 C19 1.439 . S
C20 C38 1.392 . S
N21 Co5 2.282 . S
N21 C24 1.332 . S
N21 C26 1.332 . S
C22 C23 1.386 . S
C22 C25 1.388 . S
C23 C22 1.386 . S
C23 C24 1.382 . S
C23 H49 0.950 . S
C24 N21 1.332 . S
C24 C23 1.382 . S
C24 H35 0.952 . S
C25 C22 1.388 . S
C25 C26 1.382 . S
C25 H50 0.950 . S
C26 N21 1.332 . S
C26 C25 1.382 . S
C26 H36 0.948 . S
N27 Co5 2.282 . S
N27 C31 1.332 . S
N27 C32 1.332 . S
C28 C29 1.388 . S
C28 C32 1.382 . S
C28 H51 0.950 . S
C29 C28 1.388 . S
C29 C30 1.386 . S
C30 C29 1.386 . S
C30 C31 1.382 . S
C30 H52 0.950 . S
C31 N27 1.332 . S
C31 C30 1.382 . S
C31 H33 0.952 . S
C32 N27 1.332 . S
C32 C28 1.382 . S
C32 H34 0.948 . S
H33 C31 0.952 . S
H34 C32 0.948 . S
H35 C24 0.952 . S
H36 C26 0.948 . S
C37 C3 1.395 . S
C37 C7 1.391 . S
C38 C0 1.389 . S
C38 C20 1.392 . S
C39 C10 1.392 . S
C39 C12 1.389 . S
C40 C15 1.395 . S
C40 C17 1.391 . S
H41 C1 0.951 . S
H42 C2 0.950 . S
H43 C8 0.949 . S
H44 C9 0.950 . S
H45 C13 0.951 . S
H46 C14 0.950 . S
H47 C18 0.949 . S
H48 C19 0.950 . S
H49 C23 0.950 . S
H50 C25 0.950 . S
H51 C28 0.950 . S
H52 C30 0.950 . S
C53 C54 1.443 . S
C53 N57 1.376 . S
C53 C91 1.389 . S
C54 C53 1.443 . S
C54 C55 1.340 . S
C54 H94 0.951 . S
C55 C54 1.340 . S
C55 C56 1.439 . S
C55 H95 0.950 . S
C56 C55 1.439 . S
C56 N57 1.374 . S
C56 C90 1.395 . S
N57 C53 1.376 . S
N57 C56 1.374 . S
N57 Co58 2.008 . S
Co58 N57 2.008 . S
Co58 N59 1.995 . S
Co58 N64 2.008 . S
Co58 N69 1.995 . S
Co58 N74 2.282 . S
Co58 N80 2.282 . S
N59 Co58 1.995 . S
N59 C60 1.376 . S
N59 C63 1.383 . S
C60 N59 1.376 . S
C60 C61 1.446 . S
C60 C90 1.391 . S
C61 C60 1.446 . S
C61 C62 1.339 . S
C61 H96 0.949 . S
C62 C61 1.339 . S
C62 C63 1.439 . S
C62 H97 0.950 . S
C63 N59 1.383 . S
C63 C62 1.439 . S
C63 C92 1.392 . S
N64 Co58 2.008 . S
N64 C65 1.376 . S
N64 C68 1.374 . S
C65 N64 1.376 . S
C65 C66 1.443 . S
C65 C92 1.389 . S
C66 C65 1.443 . S
C66 C67 1.340 . S
C66 H98 0.951 . S
C67 C66 1.340 . S
C67 C68 1.439 . S
C67 H99 0.950 . S
C68 N64 1.374 . S
C68 C67 1.439 . S
C68 C93 1.395 . S
N69 Co58 1.995 . S
N69 C70 1.376 . S
N69 C73 1.383 . S
C70 N69 1.376 . S
C70 C71 1.446 . S
C70 C93 1.391 . S
C71 C70 1.446 . S
C71 C72 1.339 . S
C71 H100 0.949 . S
C72 C71 1.339 . S
C72 C73 1.439 . S
C72 H101 0.950 . S
C73 N69 1.383 . S
C73 C72 1.439 . S
C73 C91 1.392 . S
N74 Co58 2.282 . S
N74 C77 1.332 . S
N74 C79 1.332 . S
C75 C76 1.386 . S
C75 C78 1.388 . S
C76 C75 1.386 . S
C76 C77 1.382 . S
C76 H102 0.950 . S
C77 N74 1.332 . S
C77 C76 1.382 . S
C77 H88 0.952 . S
C78 C75 1.388 . S
C78 C79 1.382 . S
C78 H103 0.950 . S
C79 N74 1.332 . S
C79 C78 1.382 . S
C79 H89 0.948 . S
N80 Co58 2.282 . S
N80 C84 1.332 . S
N80 C85 1.332 . S
C81 C82 1.388 . S
C81 C85 1.382 . S
C81 H104 0.950 . S
C82 C81 1.388 . S
C82 C83 1.386 . S
C83 C82 1.386 . S
C83 C84 1.382 . S
C83 H105 0.950 . S
C84 N80 1.332 . S
C84 C83 1.382 . S
C84 H86 0.952 . S
C85 N80 1.332 . S
C85 C81 1.382 . S
C85 H87 0.948 . S
H86 C84 0.952 . S
H87 C85 0.948 . S
H88 C77 0.952 . S
H89 C79 0.948 . S
C90 C56 1.395 . S
C90 C60 1.391 . S
C91 C53 1.389 . S
C91 C73 1.392 . S
C92 C63 1.392 . S
C92 C65 1.389 . S
C93 C68 1.395 . S
C93 C70 1.391 . S
H94 C54 0.951 . S
H95 C55 0.950 . S
H96 C61 0.949 . S
H97 C62 0.950 . S
H98 C66 0.951 . S
H99 C67 0.950 . S
H100 C71 0.949 . S
H101 C72 0.950 . S
H102 C76 0.950 . S
H103 C78 0.950 . S
H104 C81 0.950 . S
H105 C83 0.950 . S
C106 C107 1.443 . S
C106 N110 1.376 . S
C106 C144 1.389 . S
C107 C106 1.443 . S
C107 C108 1.340 . S
C107 H147 0.951 . S
C108 C107 1.340 . S
C108 C109 1.439 . S
C108 H148 0.950 . S
C109 C108 1.439 . S
C109 N110 1.374 . S
C109 C143 1.395 . S
N110 C106 1.376 . S
N110 C109 1.374 . S
N110 Co111 2.008 . S
Co111 N110 2.008 . S
Co111 N112 1.995 1_556 S
Co111 N117 2.008 1_556 S
Co111 N122 1.995 . S
Co111 N127 2.282 . S
Co111 N133 2.282 1_556 S
N112 Co111 1.995 1_554 S
N112 C113 1.376 . S
N112 C116 1.383 . S
C113 N112 1.376 . S
C113 C114 1.446 . S
C113 C143 1.391 1_554 S
C114 C113 1.446 . S
C114 C115 1.339 . S
C114 H149 0.949 . S
C115 C114 1.339 . S
C115 C116 1.439 . S
C115 H150 0.950 . S
C116 N112 1.383 . S
C116 C115 1.439 . S
C116 C145 1.392 . S
N117 Co111 2.008 1_554 S
N117 C118 1.376 . S
N117 C121 1.374 . S
C118 N117 1.376 . S
C118 C119 1.443 . S
C118 C145 1.389 . S
C119 C118 1.443 . S
C119 C120 1.340 . S
C119 H151 0.951 . S
C120 C119 1.340 . S
C120 C121 1.439 . S
C120 H152 0.950 . S
C121 N117 1.374 . S
C121 C120 1.439 . S
C121 C146 1.395 . S
N122 Co111 1.995 . S
N122 C123 1.376 . S
N122 C126 1.383 . S
C123 N122 1.376 . S
C123 C124 1.446 . S
C123 C146 1.391 1_556 S
C124 C123 1.446 . S
C124 C125 1.339 . S
C124 H153 0.949 . S
C125 C124 1.339 . S
C125 C126 1.439 . S
C125 H154 0.950 . S
C126 N122 1.383 . S
C126 C125 1.439 . S
C126 C144 1.392 . S
N127 Co111 2.282 . S
N127 C130 1.332 1_556 S
N127 C132 1.332 . S
C128 C129 1.386 . S
C128 C131 1.388 1_554 S
C129 C128 1.386 . S
C129 C130 1.382 . S
C129 H155 0.950 . S
C130 N127 1.332 1_554 S
C130 C129 1.382 . S
C130 H141 0.952 . S
C131 C128 1.388 1_556 S
C131 C132 1.382 . S
C131 H156 0.950 . S
C132 N127 1.332 . S
C132 C131 1.382 . S
C132 H142 0.948 . S
N133 Co111 2.282 1_554 S
N133 C137 1.332 1_554 S
N133 C138 1.332 . S
C134 C135 1.388 1_554 S
C134 C138 1.382 . S
C134 H157 0.950 . S
C135 C134 1.388 1_556 S
C135 C136 1.386 . S
C136 C135 1.386 . S
C136 C137 1.382 . S
C136 H158 0.950 . S
C137 N133 1.332 1_556 S
C137 C136 1.382 . S
C137 H139 0.952 . S
C138 N133 1.332 . S
C138 C134 1.382 . S
C138 H140 0.948 . S
H139 C137 0.952 . S
H140 C138 0.948 . S
H141 C130 0.952 . S
H142 C132 0.948 . S
C143 C109 1.395 . S
C143 C113 1.391 1_556 S
C144 C106 1.389 . S
C144 C126 1.392 . S
C145 C116 1.392 . S
C145 C118 1.389 . S
C146 C121 1.395 . S
C146 C123 1.391 1_554 S
H147 C107 0.951 . S
H148 C108 0.950 . S
H149 C114 0.949 . S
H150 C115 0.950 . S
H151 C119 0.951 . S
H152 C120 0.950 . S
H153 C124 0.949 . S
H154 C125 0.950 . S
H155 C129 0.950 . S
H156 C131 0.950 . S
H157 C134 0.950 . S
H158 C136 0.950 . S
C159 C160 1.443 . S
C159 N163 1.376 . S
C159 C197 1.389 . S
C160 C159 1.443 . S
C160 C161 1.340 . S
C160 H200 0.951 . S
C161 C160 1.340 . S
C161 C162 1.439 . S
C161 H201 0.950 . S
C162 C161 1.439 . S
C162 N163 1.374 . S
C162 C196 1.395 . S
N163 C159 1.376 . S
N163 C162 1.374 . S
N163 Co164 2.008 . S
Co164 N163 2.008 . S
Co164 N165 1.995 . S
Co164 N170 2.008 . S
Co164 N175 1.995 . S
Co164 N180 2.282 . S
Co164 N186 2.282 . S
N165 Co164 1.995 . S
N165 C166 1.376 . S
N165 C169 1.383 . S
C166 N165 1.376 . S
C166 C167 1.446 . S
C166 C196 1.391 . S
C167 C166 1.446 . S
C167 C168 1.339 . S
C167 H202 0.949 . S
C168 C167 1.339 . S
C168 C169 1.439 . S
C168 H203 0.950 . S
C169 N165 1.383 . S
C169 C168 1.439 . S
C169 C198 1.392 . S
N170 Co164 2.008 . S
N170 C171 1.376 . S
N170 C174 1.374 . S
C171 N170 1.376 . S
C171 C172 1.443 . S
C171 C198 1.389 . S
C172 C171 1.443 . S
C172 C173 1.340 . S
C172 H204 0.951 . S
C173 C172 1.340 . S
C173 C174 1.439 . S
C173 H205 0.950 . S
C174 N170 1.374 . S
C174 C173 1.439 . S
C174 C199 1.395 . S
N175 Co164 1.995 . S
N175 C176 1.376 . S
N175 C179 1.383 . S
C176 N175 1.376 . S
C176 C177 1.446 . S
C176 C199 1.391 . S
C177 C176 1.446 . S
C177 C178 1.339 . S
C177 H206 0.949 . S
C178 C177 1.339 . S
C178 C179 1.439 . S
C178 H207 0.950 . S
C179 N175 1.383 . S
C179 C178 1.439 . S
C179 C197 1.392 . S
N180 Co164 2.282 . S
N180 C183 1.332 . S
N180 C185 1.332 . S
C181 C182 1.386 . S
C181 C184 1.388 . S
C182 C181 1.386 . S
C182 C183 1.382 . S
C182 H208 0.950 . S
C183 N180 1.332 . S
C183 C182 1.382 . S
C183 H194 0.952 . S
C184 C181 1.388 . S
C184 C185 1.382 . S
C184 H209 0.950 . S
C185 N180 1.332 . S
C185 C184 1.382 . S
C185 H195 0.948 . S
N186 Co164 2.282 . S
N186 C190 1.332 . S
N186 C191 1.332 . S
C187 C188 1.388 . S
C187 C191 1.382 . S
C187 H210 0.950 . S
C188 C187 1.388 . S
C188 C189 1.386 . S
C189 C188 1.386 . S
C189 C190 1.382 . S
C189 H211 0.950 . S
C190 N186 1.332 . S
C190 C189 1.382 . S
C190 H192 0.952 . S
C191 N186 1.332 . S
C191 C187 1.382 . S
C191 H193 0.948 . S
H192 C190 0.952 . S
H193 C191 0.948 . S
H194 C183 0.952 . S
H195 C185 0.948 . S
C196 C162 1.395 . S
C196 C166 1.391 . S
C197 C159 1.389 . S
C197 C179 1.392 . S
C198 C169 1.392 . S
C198 C171 1.389 . S
C199 C174 1.395 . S
C199 C176 1.391 . S
H200 C160 0.951 . S
H201 C161 0.950 . S
H202 C167 0.949 . S
H203 C168 0.950 . S
H204 C172 0.951 . S
H205 C173 0.950 . S
H206 C177 0.949 . S
H207 C178 0.950 . S
H208 C182 0.950 . S
H209 C184 0.950 . S
H210 C187 0.950 . S
H211 C189 0.950 . S
C212 C213 1.443 . S
C212 N216 1.376 . S
C212 C250 1.389 . S
C213 C212 1.443 . S
C213 C214 1.340 . S
C213 H253 0.951 . S
C214 C213 1.340 . S
C214 C215 1.439 . S
C214 H254 0.950 . S
C215 C214 1.439 . S
C215 N216 1.374 . S
C215 C249 1.395 . S
N216 C212 1.376 . S
N216 C215 1.374 . S
N216 Co217 2.008 . S
Co217 N216 2.008 . S
Co217 N218 1.995 . S
Co217 N223 2.008 . S
Co217 N228 1.995 . S
Co217 N233 2.282 . S
Co217 N239 2.282 . S
N218 Co217 1.995 . S
N218 C219 1.376 . S
N218 C222 1.383 . S
C219 N218 1.376 . S
C219 C220 1.446 . S
C219 C249 1.391 . S
C220 C219 1.446 . S
C220 C221 1.339 . S
C220 H255 0.949 . S
C221 C220 1.339 . S
C221 C222 1.439 . S
C221 H256 0.950 . S
C222 N218 1.383 . S
C222 C221 1.439 . S
C222 C251 1.392 . S
N223 Co217 2.008 . S
N223 C224 1.376 . S
N223 C227 1.374 . S
C224 N223 1.376 . S
C224 C225 1.443 . S
C224 C251 1.389 . S
C225 C224 1.443 . S
C225 C226 1.340 . S
C225 H257 0.951 . S
C226 C225 1.340 . S
C226 C227 1.439 . S
C226 H258 0.950 . S
C227 N223 1.374 . S
C227 C226 1.439 . S
C227 C252 1.395 . S
N228 Co217 1.995 . S
N228 C229 1.376 . S
N228 C232 1.383 . S
C229 N228 1.376 . S
C229 C230 1.446 . S
C229 C252 1.391 . S
C230 C229 1.446 . S
C230 C231 1.339 . S
C230 H259 0.949 . S
C231 C230 1.339 . S
C231 C232 1.439 . S
C231 H260 0.950 . S
C232 N228 1.383 . S
C232 C231 1.439 . S
C232 C250 1.392 . S
N233 Co217 2.282 . S
N233 C236 1.332 . S
N233 C238 1.332 . S
C234 C235 1.386 . S
C234 C237 1.388 . S
C235 C234 1.386 . S
C235 C236 1.382 . S
C235 H261 0.950 . S
C236 N233 1.332 . S
C236 C235 1.382 . S
C236 H247 0.952 . S
C237 C234 1.388 . S
C237 C238 1.382 . S
C237 H262 0.950 . S
C238 N233 1.332 . S
C238 C237 1.382 . S
C238 H248 0.948 . S
N239 Co217 2.282 . S
N239 C243 1.332 . S
N239 C244 1.332 . S
C240 C241 1.388 . S
C240 C244 1.382 . S
C240 H263 0.950 . S
C241 C240 1.388 . S
C241 C242 1.386 . S
C242 C241 1.386 . S
C242 C243 1.382 . S
C242 H264 0.950 . S
C243 N239 1.332 . S
C243 C242 1.382 . S
C243 H245 0.952 . S
C244 N239 1.332 . S
C244 C240 1.382 . S
C244 H246 0.948 . S
H245 C243 0.952 . S
H246 C244 0.948 . S
H247 C236 0.952 . S
H248 C238 0.948 . S
C249 C215 1.395 . S
C249 C219 1.391 . S
C250 C212 1.389 . S
C250 C232 1.392 . S
C251 C222 1.392 . S
C251 C224 1.389 . S
C252 C227 1.395 . S
C252 C229 1.391 . S
H253 C213 0.951 . S
H254 C214 0.950 . S
H255 C220 0.949 . S
H256 C221 0.950 . S
H257 C225 0.951 . S
H258 C226 0.950 . S
H259 C230 0.949 . S
H260 C231 0.950 . S
H261 C235 0.950 . S
H262 C237 0.950 . S
H263 C240 0.950 . S
H264 C242 0.950 . S
C265 C266 1.443 . S
C265 N269 1.376 . S
C265 C303 1.389 . S
C266 C265 1.443 . S
C266 C267 1.340 . S
C266 H306 0.951 . S
C267 C266 1.340 . S
C267 C268 1.439 . S
C267 H307 0.950 . S
C268 C267 1.439 . S
C268 N269 1.374 . S
C268 C302 1.395 . S
N269 C265 1.376 . S
N269 C268 1.374 . S
N269 Co270 2.008 . S
Co270 N269 2.008 . S
Co270 N271 1.995 1_556 S
Co270 N276 2.008 1_556 S
Co270 N281 1.995 . S
Co270 N286 2.282 . S
Co270 N292 2.282 1_556 S
N271 Co270 1.995 1_554 S
N271 C272 1.376 . S
N271 C275 1.383 . S
C272 N271 1.376 . S
C272 C273 1.446 . S
C272 C302 1.391 1_554 S
C273 C272 1.446 . S
C273 C274 1.339 . S
C273 H308 0.949 . S
C274 C273 1.339 . S
C274 C275 1.439 . S
C274 H309 0.950 . S
C275 N271 1.383 . S
C275 C274 1.439 . S
C275 C304 1.392 . S
N276 Co270 2.008 1_554 S
N276 C277 1.376 . S
N276 C280 1.374 . S
C277 N276 1.376 . S
C277 C278 1.443 . S
C277 C304 1.389 . S
C278 C277 1.443 . S
C278 C279 1.340 . S
C278 H310 0.951 . S
C279 C278 1.340 . S
C279 C280 1.439 . S
C279 H311 0.950 . S
C280 N276 1.374 . S
C280 C279 1.439 . S
C280 C305 1.395 . S
N281 Co270 1.995 . S
N281 C282 1.376 . S
N281 C285 1.383 . S
C282 N281 1.376 . S
C282 C283 1.446 . S
C282 C305 1.391 1_556 S
C283 C282 1.446 . S
C283 C284 1.339 . S
C283 H312 0.949 . S
C284 C283 1.339 . S
C284 C285 1.439 . S
C284 H313 0.950 . S
C285 N281 1.383 . S
C285 C284 1.439 . S
C285 C303 1.392 . S
N286 Co270 2.282 . S
N286 C289 1.332 1_556 S
N286 C291 1.332 . S
C287 C288 1.386 . S
C287 C290 1.388 1_554 S
C288 C287 1.386 . S
C288 C289 1.382 . S
C288 H314 0.950 . S
C289 N286 1.332 1_554 S
C289 C288 1.382 . S
C289 H300 0.952 . S
C290 C287 1.388 1_556 S
C290 C291 1.382 . S
C290 H315 0.950 . S
C291 N286 1.332 . S
C291 C290 1.382 . S
C291 H301 0.948 . S
N292 Co270 2.282 1_554 S
N292 C296 1.332 1_554 S
N292 C297 1.332 . S
C293 C294 1.388 1_554 S
C293 C297 1.382 . S
C293 H316 0.950 . S
C294 C293 1.388 1_556 S
C294 C295 1.386 . S
C295 C294 1.386 . S
C295 C296 1.382 . S
C295 H317 0.950 . S
C296 N292 1.332 1_556 S
C296 C295 1.382 . S
C296 H298 0.952 . S
C297 N292 1.332 . S
C297 C293 1.382 . S
C297 H299 0.948 . S
H298 C296 0.952 . S
H299 C297 0.948 . S
H300 C289 0.952 . S
H301 C291 0.948 . S
C302 C268 1.395 . S
C302 C272 1.391 1_556 S
C303 C265 1.389 . S
C303 C285 1.392 . S
C304 C275 1.392 . S
C304 C277 1.389 . S
C305 C280 1.395 . S
C305 C282 1.391 1_554 S
H306 C266 0.951 . S
H307 C267 0.950 . S
H308 C273 0.949 . S
H309 C274 0.950 . S
H310 C278 0.951 . S
H311 C279 0.950 . S
H312 C283 0.949 . S
H313 C284 0.950 . S
H314 C288 0.950 . S
H315 C290 0.950 . S
H316 C293 0.950 . S
H317 C295 0.950 . S
C318 C319 1.443 . S
C318 N322 1.376 . S
C318 C356 1.389 . S
C319 C318 1.443 . S
C319 C320 1.340 . S
C319 H359 0.951 . S
C320 C319 1.340 . S
C320 C321 1.439 . S
C320 H360 0.950 . S
C321 C320 1.439 . S
C321 N322 1.374 . S
C321 C355 1.395 . S
N322 C318 1.376 . S
N322 C321 1.374 . S
N322 Co323 2.008 . S
Co323 N322 2.008 . S
Co323 N324 1.995 . S
Co323 N329 2.008 . S
Co323 N334 1.995 . S
Co323 N339 2.282 . S
Co323 N345 2.282 . S
N324 Co323 1.995 . S
N324 C325 1.376 . S
N324 C328 1.383 . S
C325 N324 1.376 . S
C325 C326 1.446 . S
C325 C355 1.391 . S
C326 C325 1.446 . S
C326 C327 1.339 . S
C326 H361 0.949 . S
C327 C326 1.339 . S
C327 C328 1.439 . S
C327 H362 0.950 . S
C328 N324 1.383 . S
C328 C327 1.439 . S
C328 C357 1.392 . S
N329 Co323 2.008 . S
N329 C330 1.376 . S
N329 C333 1.374 . S
C330 N329 1.376 . S
C330 C331 1.443 . S
C330 C357 1.389 . S
C331 C330 1.443 . S
C331 C332 1.340 . S
C331 H363 0.951 . S
C332 C331 1.340 . S
C332 C333 1.439 . S
C332 H364 0.950 . S
C333 N329 1.374 . S
C333 C332 1.439 . S
C333 C358 1.395 . S
N334 Co323 1.995 . S
N334 C335 1.376 . S
N334 C338 1.383 . S
C335 N334 1.376 . S
C335 C336 1.446 . S
C335 C358 1.391 . S
C336 C335 1.446 . S
C336 C337 1.339 . S
C336 H365 0.949 . S
C337 C336 1.339 . S
C337 C338 1.439 . S
C337 H366 0.950 . S
C338 N334 1.383 . S
C338 C337 1.439 . S
C338 C356 1.392 . S
N339 Co323 2.282 . S
N339 C342 1.332 . S
N339 C344 1.332 . S
C340 C341 1.386 . S
C340 C343 1.388 . S
C341 C340 1.386 . S
C341 C342 1.382 . S
C341 H367 0.950 . S
C342 N339 1.332 . S
C342 C341 1.382 . S
C342 H353 0.952 . S
C343 C340 1.388 . S
C343 C344 1.382 . S
C343 H368 0.950 . S
C344 N339 1.332 . S
C344 C343 1.382 . S
C344 H354 0.948 . S
N345 Co323 2.282 . S
N345 C349 1.332 . S
N345 C350 1.332 . S
C346 C347 1.388 . S
C346 C350 1.382 . S
C346 H369 0.950 . S
C347 C346 1.388 . S
C347 C348 1.386 . S
C348 C347 1.386 . S
C348 C349 1.382 . S
C348 H370 0.950 . S
C349 N345 1.332 . S
C349 C348 1.382 . S
C349 H351 0.952 . S
C350 N345 1.332 . S
C350 C346 1.382 . S
C350 H352 0.948 . S
H351 C349 0.952 . S
H352 C350 0.948 . S
H353 C342 0.952 . S
H354 C344 0.948 . S
C355 C321 1.395 . S
C355 C325 1.391 . S
C356 C318 1.389 . S
C356 C338 1.392 . S
C357 C328 1.392 . S
C357 C330 1.389 . S
C358 C333 1.395 . S
C358 C335 1.391 . S
H359 C319 0.951 . S
H360 C320 0.950 . S
H361 C326 0.949 . S
H362 C327 0.950 . S
H363 C331 0.951 . S
H364 C332 0.950 . S
H365 C336 0.949 . S
H366 C337 0.950 . S
H367 C341 0.950 . S
H368 C343 0.950 . S
H369 C346 0.950 . S
H370 C348 0.950 . S
C371 C372 1.443 . S
C371 N375 1.376 . S
C371 C409 1.389 . S
C372 C371 1.443 . S
C372 C373 1.340 . S
C372 H412 0.951 . S
C373 C372 1.340 . S
C373 C374 1.439 . S
C373 H413 0.950 . S
C374 C373 1.439 . S
C374 N375 1.374 . S
C374 C408 1.395 . S
N375 C371 1.376 . S
N375 C374 1.374 . S
N375 Co376 2.008 . S
Co376 N375 2.008 . S
Co376 N377 1.995 . S
Co376 N382 2.008 . S
Co376 N387 1.995 . S
Co376 N392 2.282 . S
Co376 N398 2.282 . S
N377 Co376 1.995 . S
N377 C378 1.376 . S
N377 C381 1.383 . S
C378 N377 1.376 . S
C378 C379 1.446 . S
C378 C408 1.391 . S
C379 C378 1.446 . S
C379 C380 1.339 . S
C379 H414 0.949 . S
C380 C379 1.339 . S
C380 C381 1.439 . S
C380 H415 0.950 . S
C381 N377 1.383 . S
C381 C380 1.439 . S
C381 C410 1.392 . S
N382 Co376 2.008 . S
N382 C383 1.376 . S
N382 C386 1.374 . S
C383 N382 1.376 . S
C383 C384 1.443 . S
C383 C410 1.389 . S
C384 C383 1.443 . S
C384 C385 1.340 . S
C384 H416 0.951 . S
C385 C384 1.340 . S
C385 C386 1.439 . S
C385 H417 0.950 . S
C386 N382 1.374 . S
C386 C385 1.439 . S
C386 C411 1.395 . S
N387 Co376 1.995 . S
N387 C388 1.376 . S
N387 C391 1.383 . S
C388 N387 1.376 . S
C388 C389 1.446 . S
C388 C411 1.391 . S
C389 C388 1.446 . S
C389 C390 1.339 . S
C389 H418 0.949 . S
C390 C389 1.339 . S
C390 C391 1.439 . S
C390 H419 0.950 . S
C391 N387 1.383 . S
C391 C390 1.439 . S
C391 C409 1.392 . S
N392 Co376 2.282 . S
N392 C395 1.332 . S
N392 C397 1.332 . S
C393 C394 1.386 . S
C393 C396 1.388 . S
C394 C393 1.386 . S
C394 C395 1.382 . S
C394 H420 0.950 . S
C395 N392 1.332 . S
C395 C394 1.382 . S
C395 H406 0.952 . S
C396 C393 1.388 . S
C396 C397 1.382 . S
C396 H421 0.950 . S
C397 N392 1.332 . S
C397 C396 1.382 . S
C397 H407 0.948 . S
N398 Co376 2.282 . S
N398 C402 1.332 . S
N398 C403 1.332 . S
C399 C400 1.388 . S
C399 C403 1.382 . S
C399 H422 0.950 . S
C400 C399 1.388 . S
C400 C401 1.386 . S
C401 C400 1.386 . S
C401 C402 1.382 . S
C401 H423 0.950 . S
C402 N398 1.332 . S
C402 C401 1.382 . S
C402 H404 0.952 . S
C403 N398 1.332 . S
C403 C399 1.382 . S
C403 H405 0.948 . S
H404 C402 0.952 . S
H405 C403 0.948 . S
H406 C395 0.952 . S
H407 C397 0.948 . S
C408 C374 1.395 . S
C408 C378 1.391 . S
C409 C371 1.389 . S
C409 C391 1.392 . S
C410 C381 1.392 . S
C410 C383 1.389 . S
C411 C386 1.395 . S
C411 C388 1.391 . S
H412 C372 0.951 . S
H413 C373 0.950 . S
H414 C379 0.949 . S
H415 C380 0.950 . S
H416 C384 0.951 . S
H417 C385 0.950 . S
H418 C389 0.949 . S
H419 C390 0.950 . S
H420 C394 0.950 . S
H421 C396 0.950 . S
H422 C399 0.950 . S
H423 C401 0.950 . S
C424 C425 1.443 . S
C424 N428 1.376 . S
C424 C462 1.389 . S
C425 C424 1.443 . S
C425 C426 1.340 . S
C425 H465 0.951 . S
C426 C425 1.340 . S
C426 C427 1.439 . S
C426 H466 0.950 . S
C427 C426 1.439 . S
C427 N428 1.374 . S
C427 C461 1.395 . S
N428 C424 1.376 . S
N428 C427 1.374 . S
N428 Co429 2.008 . S
Co429 N428 2.008 . S
Co429 N430 1.995 1_554 S
Co429 N435 2.008 1_554 S
Co429 N440 1.995 . S
Co429 N445 2.282 . S
Co429 N451 2.282 1_554 S
N430 Co429 1.995 1_556 S
N430 C431 1.376 . S
N430 C434 1.383 . S
C431 N430 1.376 . S
C431 C432 1.446 . S
C431 C461 1.391 1_556 S
C432 C431 1.446 . S
C432 C433 1.339 . S
C432 H467 0.949 . S
C433 C432 1.339 . S
C433 C434 1.439 . S
C433 H468 0.950 . S
C434 N430 1.383 . S
C434 C433 1.439 . S
C434 C463 1.392 . S
N435 Co429 2.008 1_556 S
N435 C436 1.376 . S
N435 C439 1.374 . S
C436 N435 1.376 . S
C436 C437 1.443 . S
C436 C463 1.389 . S
C437 C436 1.443 . S
C437 C438 1.340 . S
C437 H469 0.951 . S
C438 C437 1.340 . S
C438 C439 1.439 . S
C438 H470 0.950 . S
C439 N435 1.374 . S
C439 C438 1.439 . S
C439 C464 1.395 . S
N440 Co429 1.995 . S
N440 C441 1.376 . S
N440 C444 1.383 . S
C441 N440 1.376 . S
C441 C442 1.446 . S
C441 C464 1.391 1_554 S
C442 C441 1.446 . S
C442 C443 1.339 . S
C442 H471 0.949 . S
C443 C442 1.339 . S
C443 C444 1.439 . S
C443 H472 0.950 . S
C444 N440 1.383 . S
C444 C443 1.439 . S
C444 C462 1.392 . S
N445 Co429 2.282 . S
N445 C448 1.332 1_554 S
N445 C450 1.332 . S
C446 C447 1.386 . S
C446 C449 1.388 1_556 S
C447 C446 1.386 . S
C447 C448 1.382 . S
C447 H473 0.950 . S
C448 N445 1.332 1_556 S
C448 C447 1.382 . S
C448 H459 0.952 . S
C449 C446 1.388 1_554 S
C449 C450 1.382 . S
C449 H474 0.950 . S
C450 N445 1.332 . S
C450 C449 1.382 . S
C450 H460 0.948 . S
N451 Co429 2.282 1_556 S
N451 C455 1.332 1_556 S
N451 C456 1.332 . S
C452 C453 1.388 1_556 S
C452 C456 1.382 . S
C452 H475 0.950 . S
C453 C452 1.388 1_554 S
C453 C454 1.386 . S
C454 C453 1.386 . S
C454 C455 1.382 . S
C454 H476 0.950 . S
C455 N451 1.332 1_554 S
C455 C454 1.382 . S
C455 H457 0.952 . S
C456 N451 1.332 . S
C456 C452 1.382 . S
C456 H458 0.948 . S
H457 C455 0.952 . S
H458 C456 0.948 . S
H459 C448 0.952 . S
H460 C450 0.948 . S
C461 C427 1.395 . S
C461 C431 1.391 1_554 S
C462 C424 1.389 . S
C462 C444 1.392 . S
C463 C434 1.392 . S
C463 C436 1.389 . S
C464 C439 1.395 . S
C464 C441 1.391 1_556 S
H465 C425 0.951 . S
H466 C426 0.950 . S
H467 C432 0.949 . S
H468 C433 0.950 . S
H469 C437 0.951 . S
H470 C438 0.950 . S
H471 C442 0.949 . S
H472 C443 0.950 . S
H473 C447 0.950 . S
H474 C449 0.950 . S
H475 C452 0.950 . S
H476 C454 0.950 . S
C477 C478 1.443 . S
C477 N481 1.376 . S
C477 C515 1.389 . S
C478 C477 1.443 . S
C478 C479 1.340 . S
C478 H518 0.951 . S
C479 C478 1.340 . S
C479 C480 1.439 . S
C479 H519 0.950 . S
C480 C479 1.439 . S
C480 N481 1.374 . S
C480 C514 1.395 . S
N481 C477 1.376 . S
N481 C480 1.374 . S
N481 Co482 2.008 . S
Co482 N481 2.008 . S
Co482 N483 1.995 . S
Co482 N488 2.008 . S
Co482 N493 1.995 . S
Co482 N498 2.282 . S
Co482 N504 2.282 . S
N483 Co482 1.995 . S
N483 C484 1.376 . S
N483 C487 1.383 . S
C484 N483 1.376 . S
C484 C485 1.446 . S
C484 C514 1.391 . S
C485 C484 1.446 . S
C485 C486 1.339 . S
C485 H520 0.949 . S
C486 C485 1.339 . S
C486 C487 1.439 . S
C486 H521 0.950 . S
C487 N483 1.383 . S
C487 C486 1.439 . S
C487 C516 1.392 . S
N488 Co482 2.008 . S
N488 C489 1.376 . S
N488 C492 1.374 . S
C489 N488 1.376 . S
C489 C490 1.443 . S
C489 C516 1.389 . S
C490 C489 1.443 . S
C490 C491 1.340 . S
C490 H522 0.951 . S
C491 C490 1.340 . S
C491 C492 1.439 . S
C491 H523 0.950 . S
C492 N488 1.374 . S
C492 C491 1.439 . S
C492 C517 1.395 . S
N493 Co482 1.995 . S
N493 C494 1.376 . S
N493 C497 1.383 . S
C494 N493 1.376 . S
C494 C495 1.446 . S
C494 C517 1.391 . S
C495 C494 1.446 . S
C495 C496 1.339 . S
C495 H524 0.949 . S
C496 C495 1.339 . S
C496 C497 1.439 . S
C496 H525 0.950 . S
C497 N493 1.383 . S
C497 C496 1.439 . S
C497 C515 1.392 . S
N498 Co482 2.282 . S
N498 C501 1.332 . S
N498 C503 1.332 . S
C499 C500 1.386 . S
C499 C502 1.388 . S
C500 C499 1.386 . S
C500 C501 1.382 . S
C500 H526 0.950 . S
C501 N498 1.332 . S
C501 C500 1.382 . S
C501 H512 0.952 . S
C502 C499 1.388 . S
C502 C503 1.382 . S
C502 H527 0.950 . S
C503 N498 1.332 . S
C503 C502 1.382 . S
C503 H513 0.948 . S
N504 Co482 2.282 . S
N504 C508 1.332 . S
N504 C509 1.332 . S
C505 C506 1.388 . S
C505 C509 1.382 . S
C505 H528 0.950 . S
C506 C505 1.388 . S
C506 C507 1.386 . S
C507 C506 1.386 . S
C507 C508 1.382 . S
C507 H529 0.950 . S
C508 N504 1.332 . S
C508 C507 1.382 . S
C508 H510 0.952 . S
C509 N504 1.332 . S
C509 C505 1.382 . S
C509 H511 0.948 . S
H510 C508 0.952 . S
H511 C509 0.948 . S
H512 C501 0.952 . S
H513 C503 0.948 . S
C514 C480 1.395 . S
C514 C484 1.391 . S
C515 C477 1.389 . S
C515 C497 1.392 . S
C516 C487 1.392 . S
C516 C489 1.389 . S
C517 C492 1.395 . S
C517 C494 1.391 . S
H518 C478 0.951 . S
H519 C479 0.950 . S
H520 C485 0.949 . S
H521 C486 0.950 . S
H522 C490 0.951 . S
H523 C491 0.950 . S
H524 C495 0.949 . S
H525 C496 0.950 . S
H526 C500 0.950 . S
H527 C502 0.950 . S
H528 C505 0.950 . S
H529 C507 0.950 . S
C530 C531 1.443 . S
C530 N534 1.376 . S
C530 C568 1.389 . S
C531 C530 1.443 . S
C531 C532 1.340 . S
C531 H571 0.951 . S
C532 C531 1.340 . S
C532 C533 1.439 . S
C532 H572 0.950 . S
C533 C532 1.439 . S
C533 N534 1.374 . S
C533 C567 1.395 . S
N534 C530 1.376 . S
N534 C533 1.374 . S
N534 Co535 2.008 . S
Co535 N534 2.008 . S
Co535 N536 1.995 . S
Co535 N541 2.008 . S
Co535 N546 1.995 . S
Co535 N551 2.282 . S
Co535 N557 2.282 . S
N536 Co535 1.995 . S
N536 C537 1.376 . S
N536 C540 1.383 . S
C537 N536 1.376 . S
C537 C538 1.446 . S
C537 C567 1.391 . S
C538 C537 1.446 . S
C538 C539 1.339 . S
C538 H573 0.949 . S
C539 C538 1.339 . S
C539 C540 1.439 . S
C539 H574 0.950 . S
C540 N536 1.383 . S
C540 C539 1.439 . S
C540 C569 1.392 . S
N541 Co535 2.008 . S
N541 C542 1.376 . S
N541 C545 1.374 . S
C542 N541 1.376 . S
C542 C543 1.443 . S
C542 C569 1.389 . S
C543 C542 1.443 . S
C543 C544 1.340 . S
C543 H575 0.951 . S
C544 C543 1.340 . S
C544 C545 1.439 . S
C544 H576 0.950 . S
C545 N541 1.374 . S
C545 C544 1.439 . S
C545 C570 1.395 . S
N546 Co535 1.995 . S
N546 C547 1.376 . S
N546 C550 1.383 . S
C547 N546 1.376 . S
C547 C548 1.446 . S
C547 C570 1.391 . S
C548 C547 1.446 . S
C548 C549 1.339 . S
C548 H577 0.949 . S
C549 C548 1.339 . S
C549 C550 1.439 . S
C549 H578 0.950 . S
C550 N546 1.383 . S
C550 C549 1.439 . S
C550 C568 1.392 . S
N551 Co535 2.282 . S
N551 C554 1.332 . S
N551 C556 1.332 . S
C552 C553 1.386 . S
C552 C555 1.388 . S
C553 C552 1.386 . S
C553 C554 1.382 . S
C553 H579 0.950 . S
C554 N551 1.332 . S
C554 C553 1.382 . S
C554 H565 0.952 . S
C555 C552 1.388 . S
C555 C556 1.382 . S
C555 H580 0.950 . S
C556 N551 1.332 . S
C556 C555 1.382 . S
C556 H566 0.948 . S
N557 Co535 2.282 . S
N557 C561 1.332 . S
N557 C562 1.332 . S
C558 C559 1.388 . S
C558 C562 1.382 . S
C558 H581 0.950 . S
C559 C558 1.388 . S
C559 C560 1.386 . S
C560 C559 1.386 . S
C560 C561 1.382 . S
C560 H582 0.950 . S
C561 N557 1.332 . S
C561 C560 1.382 . S
C561 H563 0.952 . S
C562 N557 1.332 . S
C562 C558 1.382 . S
C562 H564 0.948 . S
H563 C561 0.952 . S
H564 C562 0.948 . S
H565 C554 0.952 . S
H566 C556 0.948 . S
C567 C533 1.395 . S
C567 C537 1.391 . S
C568 C530 1.389 . S
C568 C550 1.392 . S
C569 C540 1.392 . S
C569 C542 1.389 . S
C570 C545 1.395 . S
C570 C547 1.391 . S
H571 C531 0.951 . S
H572 C532 0.950 . S
H573 C538 0.949 . S
H574 C539 0.950 . S
H575 C543 0.951 . S
H576 C544 0.950 . S
H577 C548 0.949 . S
H578 C549 0.950 . S
H579 C553 0.950 . S
H580 C555 0.950 . S
H581 C558 0.950 . S
H582 C560 0.950 . S
C583 C584 1.443 . S
C583 N587 1.376 . S
C583 C621 1.389 . S
C584 C583 1.443 . S
C584 C585 1.340 . S
C584 H624 0.951 . S
C585 C584 1.340 . S
C585 C586 1.439 . S
C585 H625 0.950 . S
C586 C585 1.439 . S
C586 N587 1.374 . S
C586 C620 1.395 . S
N587 C583 1.376 . S
N587 C586 1.374 . S
N587 Co588 2.008 . S
Co588 N587 2.008 . S
Co588 N589 1.995 1_554 S
Co588 N594 2.008 1_554 S
Co588 N599 1.995 . S
Co588 N604 2.282 . S
Co588 N610 2.282 1_554 S
N589 Co588 1.995 1_556 S
N589 C590 1.376 . S
N589 C593 1.383 . S
C590 N589 1.376 . S
C590 C591 1.446 . S
C590 C620 1.391 1_556 S
C591 C590 1.446 . S
C591 C592 1.339 . S
C591 H626 0.949 . S
C592 C591 1.339 . S
C592 C593 1.439 . S
C592 H627 0.950 . S
C593 N589 1.383 . S
C593 C592 1.439 . S
C593 C622 1.392 . S
N594 Co588 2.008 1_556 S
N594 C595 1.376 . S
N594 C598 1.374 . S
C595 N594 1.376 . S
C595 C596 1.443 . S
C595 C622 1.389 . S
C596 C595 1.443 . S
C596 C597 1.340 . S
C596 H628 0.951 . S
C597 C596 1.340 . S
C597 C598 1.439 . S
C597 H629 0.950 . S
C598 N594 1.374 . S
C598 C597 1.439 . S
C598 C623 1.395 . S
N599 Co588 1.995 . S
N599 C600 1.376 . S
N599 C603 1.383 . S
C600 N599 1.376 . S
C600 C601 1.446 . S
C600 C623 1.391 1_554 S
C601 C600 1.446 . S
C601 C602 1.339 . S
C601 H630 0.949 . S
C602 C601 1.339 . S
C602 C603 1.439 . S
C602 H631 0.950 . S
C603 N599 1.383 . S
C603 C602 1.439 . S
C603 C621 1.392 . S
N604 Co588 2.282 . S
N604 C607 1.332 1_554 S
N604 C609 1.332 . S
C605 C606 1.386 . S
C605 C608 1.388 1_556 S
C606 C605 1.386 . S
C606 C607 1.382 . S
C606 H632 0.950 . S
C607 N604 1.332 1_556 S
C607 C606 1.382 . S
C607 H618 0.952 . S
C608 C605 1.388 1_554 S
C608 C609 1.382 . S
C608 H633 0.950 . S
C609 N604 1.332 . S
C609 C608 1.382 . S
C609 H619 0.948 . S
N610 Co588 2.282 1_556 S
N610 C614 1.332 1_556 S
N610 C615 1.332 . S
C611 C612 1.388 1_556 S
C611 C615 1.382 . S
C611 H634 0.950 . S
C612 C611 1.388 1_554 S
C612 C613 1.386 . S
C613 C612 1.386 . S
C613 C614 1.382 . S
C613 H635 0.950 . S
C614 N610 1.332 1_554 S
C614 C613 1.382 . S
C614 H616 0.952 . S
C615 N610 1.332 . S
C615 C611 1.382 . S
C615 H617 0.948 . S
H616 C614 0.952 . S
H617 C615 0.948 . S
H618 C607 0.952 . S
H619 C609 0.948 . S
C620 C586 1.395 . S
C620 C590 1.391 1_554 S
C621 C583 1.389 . S
C621 C603 1.392 . S
C622 C593 1.392 . S
C622 C595 1.389 . S
C623 C598 1.395 . S
C623 C600 1.391 1_556 S
H624 C584 0.951 . S
H625 C585 0.950 . S
H626 C591 0.949 . S
H627 C592 0.950 . S
H628 C596 0.951 . S
H629 C597 0.950 . S
H630 C601 0.949 . S
H631 C602 0.950 . S
H632 C606 0.950 . S
H633 C608 0.950 . S
H634 C611 0.950 . S
H635 C613 0.950 . S
H636 C654 0.951 . S
H637 C656 0.951 . S
H638 C658 0.950 . S
H639 C659 0.950 . S
H640 C661 0.950 . S
H641 C664 0.950 . S
H642 C665 0.950 . S
H643 C667 0.950 . S
H644 C668 0.950 . S
H645 C669 0.951 . S
H646 C671 0.951 . S
H647 C673 0.950 . S
H648 C674 0.950 . S
H649 C676 0.950 . S
H650 C679 0.950 . S
H651 C680 0.950 . S
H652 C682 0.950 . S
H653 C683 0.950 . S
C654 H636 0.951 . S
C654 C655 1.366 . S
C654 C656 1.388 . S
C655 C654 1.366 . S
C655 C659 1.385 . S
C656 H637 0.951 . S
C656 C654 1.388 . S
C656 C657 1.366 . S
C657 C656 1.366 . S
C657 C658 1.414 . S
C657 C660 1.499 . S
C658 H638 0.950 . S
C658 C657 1.414 . S
C658 C659 1.374 . S
C659 H639 0.950 . S
C659 C655 1.385 . S
C659 C658 1.374 . S
C660 C657 1.499 . S
C660 C661 1.373 . S
C660 C662 1.389 . S
C661 H640 0.950 . S
C661 C660 1.373 . S
C661 C677 1.377 . S
C662 C660 1.389 . S
C662 C663 1.524 . S
C662 C676 1.377 . S
C663 C662 1.524 . S
C663 C664 1.397 . S
C663 C668 1.363 . S
C664 H641 0.950 . S
C664 C663 1.397 . S
C664 C665 1.334 . S
C665 H642 0.950 . S
C665 C664 1.334 . S
C665 C666 1.287 . S
C666 C665 1.287 . S
C666 C667 1.524 . S
C666 H685 0.913 . S
C667 H643 0.950 . S
C667 C666 1.524 . S
C667 C668 1.415 . S
C668 H644 0.950 . S
C668 C663 1.363 . S
C668 C667 1.415 . S
C669 H645 0.951 . S
C669 C670 1.366 . S
C669 C671 1.388 . S
C670 C669 1.366 . S
C670 C674 1.385 . S
C671 H646 0.951 . S
C671 C669 1.388 . S
C671 C672 1.366 . S
C672 C671 1.366 . S
C672 C673 1.414 . S
C672 C675 1.499 . S
C673 H647 0.950 . S
C673 C672 1.414 . S
C673 C674 1.374 . S
C674 H648 0.950 . S
C674 C670 1.385 . S
C674 C673 1.374 . S
C675 C672 1.499 . S
C675 C676 1.373 . S
C675 C677 1.389 . S
C676 H649 0.950 . S
C676 C662 1.377 . S
C676 C675 1.373 . S
C677 C661 1.377 . S
C677 C675 1.389 . S
C677 C678 1.524 . S
C678 C677 1.524 . S
C678 C679 1.397 . S
C678 C683 1.363 . S
C679 H650 0.950 . S
C679 C678 1.397 . S
C679 C680 1.334 . S
C680 H651 0.950 . S
C680 C679 1.334 . S
C680 C681 1.287 . S
C681 C680 1.287 . S
C681 C682 1.524 . S
C681 H684 0.999 . S
C682 H652 0.950 . S
C682 C681 1.524 . S
C682 C683 1.415 . S
C683 H653 0.950 . S
C683 C678 1.363 . S
C683 C682 1.415 . S
H684 C681 0.999 . S
H685 C666 0.913 . S
H686 C704 0.951 . S
H687 C706 0.951 . S
H688 C708 0.950 . S
H689 C709 0.950 . S
H690 C711 0.950 . S
H691 C714 0.950 . S
H692 C715 0.950 . S
H693 C717 0.950 . S
H694 C718 0.950 . S
H695 C719 0.951 . S
H696 C721 0.951 . S
H697 C723 0.950 . S
H698 C724 0.950 . S
H699 C726 0.950 . S
H700 C729 0.950 . S
H701 C730 0.950 . S
H702 C732 0.950 . S
H703 C733 0.950 . S
C704 H686 0.951 . S
C704 C705 1.366 . S
C704 C706 1.388 . S
C705 C704 1.366 . S
C705 C709 1.385 . S
C706 H687 0.951 . S
C706 C704 1.388 . S
C706 C707 1.366 . S
C707 C706 1.366 . S
C707 C708 1.414 . S
C707 C710 1.499 . S
C708 H688 0.950 . S
C708 C707 1.414 . S
C708 C709 1.374 . S
C709 H689 0.950 . S
C709 C705 1.385 . S
C709 C708 1.374 . S
C710 C707 1.499 . S
C710 C711 1.373 . S
C710 C712 1.389 . S
C711 H690 0.950 . S
C711 C710 1.373 . S
C711 C727 1.377 . S
C712 C710 1.389 . S
C712 C713 1.524 . S
C712 C726 1.377 . S
C713 C712 1.524 . S
C713 C714 1.397 . S
C713 C718 1.363 . S
C714 H691 0.950 . S
C714 C713 1.397 . S
C714 C715 1.334 . S
C715 H692 0.950 . S
C715 C714 1.334 . S
C715 C716 1.287 . S
C716 C715 1.287 . S
C716 C717 1.524 . S
C716 H735 0.913 . S
C717 H693 0.950 . S
C717 C716 1.524 . S
C717 C718 1.415 . S
C718 H694 0.950 . S
C718 C713 1.363 . S
C718 C717 1.415 . S
C719 H695 0.951 . S
C719 C720 1.366 . S
C719 C721 1.388 . S
C720 C719 1.366 . S
C720 C724 1.385 . S
C721 H696 0.951 . S
C721 C719 1.388 . S
C721 C722 1.366 . S
C722 C721 1.366 . S
C722 C723 1.414 . S
C722 C725 1.499 . S
C723 H697 0.950 . S
C723 C722 1.414 . S
C723 C724 1.374 . S
C724 H698 0.950 . S
C724 C720 1.385 . S
C724 C723 1.374 . S
C725 C722 1.499 . S
C725 C726 1.373 . S
C725 C727 1.389 . S
C726 H699 0.950 . S
C726 C712 1.377 . S
C726 C725 1.373 . S
C727 C711 1.377 . S
C727 C725 1.389 . S
C727 C728 1.524 . S
C728 C727 1.524 . S
C728 C729 1.397 . S
C728 C733 1.363 . S
C729 H700 0.950 . S
C729 C728 1.397 . S
C729 C730 1.334 . S
C730 H701 0.950 . S
C730 C729 1.334 . S
C730 C731 1.287 . S
C731 C730 1.287 . S
C731 C732 1.524 . S
C731 H734 0.999 . S
C732 H702 0.950 . S
C732 C731 1.524 . S
C732 C733 1.415 . S
C733 H703 0.950 . S
C733 C728 1.363 . S
C733 C732 1.415 . S
H734 C731 0.999 . S
H735 C716 0.913 . S
H736 C754 0.951 . S
H737 C756 0.951 . S
H738 C758 0.950 . S
H739 C759 0.950 . S
H740 C761 0.950 . S
H741 C764 0.950 . S
H742 C765 0.950 . S
H743 C767 0.950 . S
H744 C768 0.950 . S
H745 C769 0.951 . S
H746 C771 0.951 . S
H747 C773 0.950 . S
H748 C774 0.950 . S
H749 C776 0.950 . S
H750 C779 0.950 . S
H751 C780 0.950 . S
H752 C782 0.950 . S
H753 C783 0.950 . S
C754 H736 0.951 . S
C754 C755 1.366 . S
C754 C756 1.388 . S
C755 C754 1.366 . S
C755 C759 1.385 . S
C756 H737 0.951 . S
C756 C754 1.388 . S
C756 C757 1.366 . S
C757 C756 1.366 . S
C757 C758 1.414 . S
C757 C760 1.499 . S
C758 H738 0.950 . S
C758 C757 1.414 . S
C758 C759 1.374 . S
C759 H739 0.950 . S
C759 C755 1.385 . S
C759 C758 1.374 . S
C760 C757 1.499 . S
C760 C761 1.373 . S
C760 C762 1.389 . S
C761 H740 0.950 . S
C761 C760 1.373 . S
C761 C777 1.377 . S
C762 C760 1.389 . S
C762 C763 1.524 . S
C762 C776 1.377 . S
C763 C762 1.524 . S
C763 C764 1.397 . S
C763 C768 1.363 . S
C764 H741 0.950 . S
C764 C763 1.397 . S
C764 C765 1.334 . S
C765 H742 0.950 . S
C765 C764 1.334 . S
C765 C766 1.287 . S
C766 C765 1.287 . S
C766 C767 1.524 . S
C766 H785 0.913 . S
C767 H743 0.950 . S
C767 C766 1.524 . S
C767 C768 1.415 . S
C768 H744 0.950 . S
C768 C763 1.363 . S
C768 C767 1.415 . S
C769 H745 0.951 . S
C769 C770 1.366 . S
C769 C771 1.388 . S
C770 C769 1.366 . S
C770 C774 1.385 . S
C771 H746 0.951 . S
C771 C769 1.388 . S
C771 C772 1.366 . S
C772 C771 1.366 . S
C772 C773 1.414 . S
C772 C775 1.499 . S
C773 H747 0.950 . S
C773 C772 1.414 . S
C773 C774 1.374 . S
C774 H748 0.950 . S
C774 C770 1.385 . S
C774 C773 1.374 . S
C775 C772 1.499 . S
C775 C776 1.373 . S
C775 C777 1.389 . S
C776 H749 0.950 . S
C776 C762 1.377 . S
C776 C775 1.373 . S
C777 C761 1.377 . S
C777 C775 1.389 . S
C777 C778 1.524 . S
C778 C777 1.524 . S
C778 C779 1.397 . S
C778 C783 1.363 . S
C779 H750 0.950 . S
C779 C778 1.397 . S
C779 C780 1.334 . S
C780 H751 0.950 . S
C780 C779 1.334 . S
C780 C781 1.287 . S
C781 C780 1.287 . S
C781 C782 1.524 . S
C781 H784 0.999 . S
C782 H752 0.950 . S
C782 C781 1.524 . S
C782 C783 1.415 . S
C783 H753 0.950 . S
C783 C778 1.363 . S
C783 C782 1.415 . S
H784 C781 0.999 . S
H785 C766 0.913 . S
H786 C804 0.951 . S
H787 C806 0.951 . S
H788 C808 0.950 . S
H789 C809 0.950 . S
H790 C811 0.950 . S
H791 C814 0.950 . S
H792 C815 0.950 . S
H793 C817 0.950 . S
H794 C818 0.950 . S
H795 C819 0.951 . S
H796 C821 0.951 . S
H797 C823 0.950 . S
H798 C824 0.950 . S
H799 C826 0.950 . S
H800 C829 0.950 . S
H801 C830 0.950 . S
H802 C832 0.950 . S
H803 C833 0.950 . S
C804 H786 0.951 . S
C804 C805 1.366 . S
C804 C806 1.388 . S
C805 C804 1.366 . S
C805 C809 1.385 . S
C806 H787 0.951 . S
C806 C804 1.388 . S
C806 C807 1.366 . S
C807 C806 1.366 . S
C807 C808 1.414 . S
C807 C810 1.499 . S
C808 H788 0.950 . S
C808 C807 1.414 . S
C808 C809 1.374 . S
C809 H789 0.950 . S
C809 C805 1.385 . S
C809 C808 1.374 . S
C810 C807 1.499 . S
C810 C811 1.373 . S
C810 C812 1.389 . S
C811 H790 0.950 . S
C811 C810 1.373 . S
C811 C827 1.377 . S
C812 C810 1.389 . S
C812 C813 1.524 . S
C812 C826 1.377 . S
C813 C812 1.524 . S
C813 C814 1.397 . S
C813 C818 1.363 . S
C814 H791 0.950 . S
C814 C813 1.397 . S
C814 C815 1.334 . S
C815 H792 0.950 . S
C815 C814 1.334 . S
C815 C816 1.287 . S
C816 C815 1.287 . S
C816 C817 1.524 . S
C816 H835 0.913 . S
C817 H793 0.950 . S
C817 C816 1.524 . S
C817 C818 1.415 . S
C818 H794 0.950 . S
C818 C813 1.363 . S
C818 C817 1.415 . S
C819 H795 0.951 . S
C819 C820 1.366 . S
C819 C821 1.388 . S
C820 C819 1.366 . S
C820 C824 1.385 . S
C821 H796 0.951 . S
C821 C819 1.388 . S
C821 C822 1.366 . S
C822 C821 1.366 . S
C822 C823 1.414 . S
C822 C825 1.499 . S
C823 H797 0.950 . S
C823 C822 1.414 . S
C823 C824 1.374 . S
C824 H798 0.950 . S
C824 C820 1.385 . S
C824 C823 1.374 . S
C825 C822 1.499 . S
C825 C826 1.373 . S
C825 C827 1.389 . S
C826 H799 0.950 . S
C826 C812 1.377 . S
C826 C825 1.373 . S
C827 C811 1.377 . S
C827 C825 1.389 . S
C827 C828 1.524 . S
C828 C827 1.524 . S
C828 C829 1.397 . S
C828 C833 1.363 . S
C829 H800 0.950 . S
C829 C828 1.397 . S
C829 C830 1.334 . S
C830 H801 0.950 . S
C830 C829 1.334 . S
C830 C831 1.287 . S
C831 C830 1.287 . S
C831 C832 1.524 . S
C831 H834 0.999 . S
C832 H802 0.950 . S
C832 C831 1.524 . S
C832 C833 1.415 . S
C833 H803 0.950 . S
C833 C828 1.363 . S
C833 C832 1.415 . S
H834 C831 0.999 . S
H835 C816 0.913 . S
H836 C854 0.951 . S
H837 C856 0.951 . S
H838 C858 0.950 . S
H839 C859 0.950 . S
H840 C861 0.950 . S
H841 C864 0.950 . S
H842 C865 0.950 . S
H843 C867 0.950 . S
H844 C868 0.950 . S
H845 C869 0.951 . S
H846 C871 0.951 . S
H847 C873 0.950 . S
H848 C874 0.950 . S
H849 C876 0.950 . S
H850 C879 0.950 . S
H851 C880 0.950 . S
H852 C882 0.950 . S
H853 C883 0.950 . S
C854 H836 0.951 . S
C854 C855 1.366 . S
C854 C856 1.388 . S
C855 C854 1.366 . S
C855 C859 1.385 . S
C856 H837 0.951 . S
C856 C854 1.388 . S
C856 C857 1.366 . S
C857 C856 1.366 . S
C857 C858 1.414 . S
C857 C860 1.499 . S
C858 H838 0.950 . S
C858 C857 1.414 . S
C858 C859 1.374 . S
C859 H839 0.950 . S
C859 C855 1.385 . S
C859 C858 1.374 . S
C860 C857 1.499 . S
C860 C861 1.373 . S
C860 C862 1.389 . S
C861 H840 0.950 . S
C861 C860 1.373 . S
C861 C877 1.377 . S
C862 C860 1.389 . S
C862 C863 1.524 . S
C862 C876 1.377 . S
C863 C862 1.524 . S
C863 C864 1.397 . S
C863 C868 1.363 . S
C864 H841 0.950 . S
C864 C863 1.397 . S
C864 C865 1.334 . S
C865 H842 0.950 . S
C865 C864 1.334 . S
C865 C866 1.287 . S
C866 C865 1.287 . S
C866 C867 1.524 . S
C866 H885 0.913 . S
C867 H843 0.950 . S
C867 C866 1.524 . S
C867 C868 1.415 . S
C868 H844 0.950 . S
C868 C863 1.363 . S
C868 C867 1.415 . S
C869 H845 0.951 . S
C869 C870 1.366 . S
C869 C871 1.388 . S
C870 C869 1.366 . S
C870 C874 1.385 . S
C871 H846 0.951 . S
C871 C869 1.388 . S
C871 C872 1.366 . S
C872 C871 1.366 . S
C872 C873 1.414 . S
C872 C875 1.499 . S
C873 H847 0.950 . S
C873 C872 1.414 . S
C873 C874 1.374 . S
C874 H848 0.950 . S
C874 C870 1.385 . S
C874 C873 1.374 . S
C875 C872 1.499 . S
C875 C876 1.373 . S
C875 C877 1.389 . S
C876 H849 0.950 . S
C876 C862 1.377 . S
C876 C875 1.373 . S
C877 C861 1.377 . S
C877 C875 1.389 . S
C877 C878 1.524 . S
C878 C877 1.524 . S
C878 C879 1.397 . S
C878 C883 1.363 . S
C879 H850 0.950 . S
C879 C878 1.397 . S
C879 C880 1.334 . S
C880 H851 0.950 . S
C880 C879 1.334 . S
C880 C881 1.287 . S
C881 C880 1.287 . S
C881 C882 1.524 . S
C881 H884 0.999 . S
C882 H852 0.950 . S
C882 C881 1.524 . S
C882 C883 1.415 . S
C883 H853 0.950 . S
C883 C878 1.363 . S
C883 C882 1.415 . S
H884 C881 0.999 . S
H885 C866 0.913 . S
H886 C904 0.951 . S
H887 C906 0.951 . S
H888 C908 0.950 . S
H889 C909 0.950 . S
H890 C911 0.950 . S
H891 C914 0.950 . S
H892 C915 0.950 . S
H893 C917 0.950 . S
H894 C918 0.950 . S
H895 C919 0.951 . S
H896 C921 0.951 . S
H897 C923 0.950 . S
H898 C924 0.950 . S
H899 C926 0.950 . S
H900 C929 0.950 . S
H901 C930 0.950 . S
H902 C932 0.950 . S
H903 C933 0.950 . S
C904 H886 0.951 . S
C904 C905 1.366 . S
C904 C906 1.388 . S
C905 C904 1.366 . S
C905 C909 1.385 . S
C906 H887 0.951 . S
C906 C904 1.388 . S
C906 C907 1.366 . S
C907 C906 1.366 . S
C907 C908 1.414 . S
C907 C910 1.499 . S
C908 H888 0.950 . S
C908 C907 1.414 . S
C908 C909 1.374 . S
C909 H889 0.950 . S
C909 C905 1.385 . S
C909 C908 1.374 . S
C910 C907 1.499 . S
C910 C911 1.373 . S
C910 C912 1.389 . S
C911 H890 0.950 . S
C911 C910 1.373 . S
C911 C927 1.377 . S
C912 C910 1.389 . S
C912 C913 1.524 . S
C912 C926 1.377 . S
C913 C912 1.524 . S
C913 C914 1.397 . S
C913 C918 1.363 . S
C914 H891 0.950 . S
C914 C913 1.397 . S
C914 C915 1.334 . S
C915 H892 0.950 . S
C915 C914 1.334 . S
C915 C916 1.287 . S
C916 C915 1.287 . S
C916 C917 1.524 . S
C916 H935 0.913 . S
C917 H893 0.950 . S
C917 C916 1.524 . S
C917 C918 1.415 . S
C918 H894 0.950 . S
C918 C913 1.363 . S
C918 C917 1.415 . S
C919 H895 0.951 . S
C919 C920 1.366 . S
C919 C921 1.388 . S
C920 C919 1.366 . S
C920 C924 1.385 . S
C921 H896 0.951 . S
C921 C919 1.388 . S
C921 C922 1.366 . S
C922 C921 1.366 . S
C922 C923 1.414 . S
C922 C925 1.499 . S
C923 H897 0.950 . S
C923 C922 1.414 . S
C923 C924 1.374 . S
C924 H898 0.950 . S
C924 C920 1.385 . S
C924 C923 1.374 . S
C925 C922 1.499 . S
C925 C926 1.373 . S
C925 C927 1.389 . S
C926 H899 0.950 . S
C926 C912 1.377 . S
C926 C925 1.373 . S
C927 C911 1.377 . S
C927 C925 1.389 . S
C927 C928 1.524 . S
C928 C927 1.524 . S
C928 C929 1.397 . S
C928 C933 1.363 . S
C929 H900 0.950 . S
C929 C928 1.397 . S
C929 C930 1.334 . S
C930 H901 0.950 . S
C930 C929 1.334 . S
C930 C931 1.287 . S
C931 C930 1.287 . S
C931 C932 1.524 . S
C931 H934 0.999 . S
C932 H902 0.950 . S
C932 C931 1.524 . S
C932 C933 1.415 . S
C933 H903 0.950 . S
C933 C928 1.363 . S
C933 C932 1.415 . S
H934 C931 0.999 . S
H935 C916 0.913 . S
H936 C954 0.951 . S
H937 C956 0.951 . S
H938 C958 0.950 . S
H939 C959 0.950 . S
H940 C961 0.950 . S
H941 C964 0.950 . S
H942 C965 0.950 . S
H943 C967 0.950 . S
H944 C968 0.950 . S
H945 C969 0.951 . S
H946 C971 0.951 . S
H947 C973 0.950 . S
H948 C974 0.950 . S
H949 C976 0.950 . S
H950 C979 0.950 . S
H951 C980 0.950 . S
H952 C982 0.950 . S
H953 C983 0.950 . S
C954 H936 0.951 . S
C954 C955 1.366 . S
C954 C956 1.388 . S
C955 C954 1.366 . S
C955 C959 1.385 . S
C956 H937 0.951 . S
C956 C954 1.388 . S
C956 C957 1.366 . S
C957 C956 1.366 . S
C957 C958 1.414 . S
C957 C960 1.499 . S
C958 H938 0.950 . S
C958 C957 1.414 . S
C958 C959 1.374 . S
C959 H939 0.950 . S
C959 C955 1.385 . S
C959 C958 1.374 . S
C960 C957 1.499 . S
C960 C961 1.373 . S
C960 C962 1.389 . S
C961 H940 0.950 . S
C961 C960 1.373 . S
C961 C977 1.377 . S
C962 C960 1.389 . S
C962 C963 1.524 . S
C962 C976 1.377 . S
C963 C962 1.524 . S
C963 C964 1.397 . S
C963 C968 1.363 . S
C964 H941 0.950 . S
C964 C963 1.397 . S
C964 C965 1.334 . S
C965 H942 0.950 . S
C965 C964 1.334 . S
C965 C966 1.287 . S
C966 C965 1.287 . S
C966 C967 1.524 . S
C966 H985 0.913 . S
C967 H943 0.950 . S
C967 C966 1.524 . S
C967 C968 1.415 . S
C968 H944 0.950 . S
C968 C963 1.363 . S
C968 C967 1.415 . S
C969 H945 0.951 . S
C969 C970 1.366 . S
C969 C971 1.388 . S
C970 C969 1.366 . S
C970 C974 1.385 . S
C971 H946 0.951 . S
C971 C969 1.388 . S
C971 C972 1.366 . S
C972 C971 1.366 . S
C972 C973 1.414 . S
C972 C975 1.499 . S
C973 H947 0.950 . S
C973 C972 1.414 . S
C973 C974 1.374 . S
C974 H948 0.950 . S
C974 C970 1.385 . S
C974 C973 1.374 . S
C975 C972 1.499 . S
C975 C976 1.373 . S
C975 C977 1.389 . S
C976 H949 0.950 . S
C976 C962 1.377 . S
C976 C975 1.373 . S
C977 C961 1.377 . S
C977 C975 1.389 . S
C977 C978 1.524 . S
C978 C977 1.524 . S
C978 C979 1.397 . S
C978 C983 1.363 . S
C979 H950 0.950 . S
C979 C978 1.397 . S
C979 C980 1.334 . S
C980 H951 0.950 . S
C980 C979 1.334 . S
C980 C981 1.287 . S
C981 C980 1.287 . S
C981 C982 1.524 . S
C981 H984 0.999 . S
C982 H952 0.950 . S
C982 C981 1.524 . S
C982 C983 1.415 . S
C983 H953 0.950 . S
C983 C978 1.363 . S
C983 C982 1.415 . S
H984 C981 0.999 . S
H985 C966 0.913 . S
H986 C1004 0.951 . S
H987 C1006 0.951 . S
H988 C1008 0.950 . S
H989 C1009 0.950 . S
H990 C1011 0.950 . S
H991 C1014 0.950 . S
H992 C1015 0.950 . S
H993 C1017 0.950 . S
H994 C1018 0.950 . S
H995 C1019 0.951 . S
H996 C1021 0.951 . S
H997 C1023 0.950 . S
H998 C1024 0.950 . S
H999 C1026 0.950 . S
H1000 C1029 0.950 . S
H1001 C1030 0.950 . S
H1002 C1032 0.950 . S
H1003 C1033 0.950 . S
C1004 H986 0.951 . S
C1004 C1005 1.366 . S
C1004 C1006 1.388 . S
C1005 C1004 1.366 . S
C1005 C1009 1.385 . S
C1006 H987 0.951 . S
C1006 C1004 1.388 . S
C1006 C1007 1.366 . S
C1007 C1006 1.366 . S
C1007 C1008 1.414 . S
C1007 C1010 1.499 . S
C1008 H988 0.950 . S
C1008 C1007 1.414 . S
C1008 C1009 1.374 . S
C1009 H989 0.950 . S
C1009 C1005 1.385 . S
C1009 C1008 1.374 . S
C1010 C1007 1.499 . S
C1010 C1011 1.373 . S
C1010 C1012 1.389 . S
C1011 H990 0.950 . S
C1011 C1010 1.373 . S
C1011 C1027 1.377 . S
C1012 C1010 1.389 . S
C1012 C1013 1.524 . S
C1012 C1026 1.377 . S
C1013 C1012 1.524 . S
C1013 C1014 1.397 . S
C1013 C1018 1.363 . S
C1014 H991 0.950 . S
C1014 C1013 1.397 . S
C1014 C1015 1.334 . S
C1015 H992 0.950 . S
C1015 C1014 1.334 . S
C1015 C1016 1.287 . S
C1016 C1015 1.287 . S
C1016 C1017 1.524 . S
C1016 H1035 0.913 . S
C1017 H993 0.950 . S
C1017 C1016 1.524 . S
C1017 C1018 1.415 . S
C1018 H994 0.950 . S
C1018 C1013 1.363 . S
C1018 C1017 1.415 . S
C1019 H995 0.951 . S
C1019 C1020 1.366 . S
C1019 C1021 1.388 . S
C1020 C1019 1.366 . S
C1020 C1024 1.385 . S
C1021 H996 0.951 . S
C1021 C1019 1.388 . S
C1021 C1022 1.366 . S
C1022 C1021 1.366 . S
C1022 C1023 1.414 . S
C1022 C1025 1.499 . S
C1023 H997 0.950 . S
C1023 C1022 1.414 . S
C1023 C1024 1.374 . S
C1024 H998 0.950 . S
C1024 C1020 1.385 . S
C1024 C1023 1.374 . S
C1025 C1022 1.499 . S
C1025 C1026 1.373 . S
C1025 C1027 1.389 . S
C1026 H999 0.950 . S
C1026 C1012 1.377 . S
C1026 C1025 1.373 . S
C1027 C1011 1.377 . S
C1027 C1025 1.389 . S
C1027 C1028 1.524 . S
C1028 C1027 1.524 . S
C1028 C1029 1.397 . S
C1028 C1033 1.363 . S
C1029 H1000 0.950 . S
C1029 C1028 1.397 . S
C1029 C1030 1.334 . S
C1030 H1001 0.950 . S
C1030 C1029 1.334 . S
C1030 C1031 1.287 . S
C1031 C1030 1.287 . S
C1031 C1032 1.524 . S
C1031 H1034 0.999 . S
C1032 H1002 0.950 . S
C1032 C1031 1.524 . S
C1032 C1033 1.415 . S
C1033 H1003 0.950 . S
C1033 C1028 1.363 . S
C1033 C1032 1.415 . S
H1034 C1031 0.999 . S
H1035 C1016 0.913 . S
H1036 C1054 0.951 . S
H1037 C1056 0.951 . S
H1038 C1058 0.950 . S
H1039 C1059 0.950 . S
H1040 C1061 0.950 . S
H1041 C1064 0.950 1_554 S
H1042 C1065 0.950 . S
H1043 C1067 0.950 . S
H1044 C1068 0.950 . S
H1045 C1069 0.951 . S
H1046 C1071 0.951 . S
H1047 C1073 0.950 . S
H1048 C1074 0.950 . S
H1049 C1076 0.950 . S
H1050 C1079 0.950 1_556 S
H1051 C1080 0.950 . S
H1052 C1082 0.950 . S
H1053 C1083 0.950 . S
C1054 H1036 0.951 . S
C1054 C1055 1.366 1_556 S
C1054 C1056 1.388 . S
C1055 C1054 1.366 1_554 S
C1055 C1059 1.385 . S
C1056 H1037 0.951 . S
C1056 C1054 1.388 . S
C1056 C1057 1.366 1_556 S
C1057 C1056 1.366 1_554 S
C1057 C1058 1.414 . S
C1057 C1060 1.499 . S
C1058 H1038 0.950 . S
C1058 C1057 1.414 . S
C1058 C1059 1.374 . S
C1059 H1039 0.950 . S
C1059 C1055 1.385 . S
C1059 C1058 1.374 . S
C1060 C1057 1.499 . S
C1060 C1061 1.373 . S
C1060 C1062 1.389 1_554 S
C1061 H1040 0.950 . S
C1061 C1060 1.373 . S
C1061 C1077 1.377 . S
C1062 C1060 1.389 1_556 S
C1062 C1063 1.524 . S
C1062 C1076 1.377 . S
C1063 C1062 1.524 . S
C1063 C1064 1.397 . S
C1063 C1068 1.363 . S
C1064 H1041 0.950 1_556 S
C1064 C1063 1.397 . S
C1064 C1065 1.334 . S
C1065 H1042 0.950 . S
C1065 C1064 1.334 . S
C1065 C1066 1.287 . S
C1066 C1065 1.287 . S
C1066 C1067 1.524 . S
C1066 H1085 0.913 . S
C1067 H1043 0.950 . S
C1067 C1066 1.524 . S
C1067 C1068 1.415 . S
C1068 H1044 0.950 . S
C1068 C1063 1.363 . S
C1068 C1067 1.415 . S
C1069 H1045 0.951 . S
C1069 C1070 1.366 1_554 S
C1069 C1071 1.388 . S
C1070 C1069 1.366 1_556 S
C1070 C1074 1.385 . S
C1071 H1046 0.951 . S
C1071 C1069 1.388 . S
C1071 C1072 1.366 1_554 S
C1072 C1071 1.366 1_556 S
C1072 C1073 1.414 . S
C1072 C1075 1.499 . S
C1073 H1047 0.950 . S
C1073 C1072 1.414 . S
C1073 C1074 1.374 . S
C1074 H1048 0.950 . S
C1074 C1070 1.385 . S
C1074 C1073 1.374 . S
C1075 C1072 1.499 . S
C1075 C1076 1.373 . S
C1075 C1077 1.389 1_556 S
C1076 H1049 0.950 . S
C1076 C1062 1.377 . S
C1076 C1075 1.373 . S
C1077 C1061 1.377 . S
C1077 C1075 1.389 1_554 S
C1077 C1078 1.524 . S
C1078 C1077 1.524 . S
C1078 C1079 1.397 . S
C1078 C1083 1.363 . S
C1079 H1050 0.950 1_554 S
C1079 C1078 1.397 . S
C1079 C1080 1.334 . S
C1080 H1051 0.950 . S
C1080 C1079 1.334 . S
C1080 C1081 1.287 . S
C1081 C1080 1.287 . S
C1081 C1082 1.524 . S
C1081 H1084 0.999 . S
C1082 H1052 0.950 . S
C1082 C1081 1.524 . S
C1082 C1083 1.415 . S
C1083 H1053 0.950 . S
C1083 C1078 1.363 . S
C1083 C1082 1.415 . S
H1084 C1081 0.999 . S
H1085 C1066 0.913 . S
H1086 C1104 0.951 . S
H1087 C1106 0.951 . S
H1088 C1108 0.950 . S
H1089 C1109 0.950 . S
H1090 C1111 0.950 . S
H1091 C1114 0.950 . S
H1092 C1115 0.950 . S
H1093 C1117 0.950 . S
H1094 C1118 0.950 . S
H1095 C1119 0.951 . S
H1096 C1121 0.951 . S
H1097 C1123 0.950 . S
H1098 C1124 0.950 . S
H1099 C1126 0.950 . S
H1100 C1129 0.950 . S
H1101 C1130 0.950 . S
H1102 C1132 0.950 . S
H1103 C1133 0.950 . S
C1104 H1086 0.951 . S
C1104 C1105 1.366 . S
C1104 C1106 1.388 . S
C1105 C1104 1.366 . S
C1105 C1109 1.385 . S
C1106 H1087 0.951 . S
C1106 C1104 1.388 . S
C1106 C1107 1.366 . S
C1107 C1106 1.366 . S
C1107 C1108 1.414 . S
C1107 C1110 1.499 . S
C1108 H1088 0.950 . S
C1108 C1107 1.414 . S
C1108 C1109 1.374 . S
C1109 H1089 0.950 . S
C1109 C1105 1.385 . S
C1109 C1108 1.374 . S
C1110 C1107 1.499 . S
C1110 C1111 1.373 . S
C1110 C1112 1.389 . S
C1111 H1090 0.950 . S
C1111 C1110 1.373 . S
C1111 C1127 1.377 . S
C1112 C1110 1.389 . S
C1112 C1113 1.524 . S
C1112 C1126 1.377 . S
C1113 C1112 1.524 . S
C1113 C1114 1.397 . S
C1113 C1118 1.363 . S
C1114 H1091 0.950 . S
C1114 C1113 1.397 . S
C1114 C1115 1.334 . S
C1115 H1092 0.950 . S
C1115 C1114 1.334 . S
C1115 C1116 1.287 . S
C1116 C1115 1.287 . S
C1116 C1117 1.524 . S
C1116 H1135 0.913 . S
C1117 H1093 0.950 . S
C1117 C1116 1.524 . S
C1117 C1118 1.415 . S
C1118 H1094 0.950 . S
C1118 C1113 1.363 . S
C1118 C1117 1.415 . S
C1119 H1095 0.951 . S
C1119 C1120 1.366 . S
C1119 C1121 1.388 . S
C1120 C1119 1.366 . S
C1120 C1124 1.385 . S
C1121 H1096 0.951 . S
C1121 C1119 1.388 . S
C1121 C1122 1.366 . S
C1122 C1121 1.366 . S
C1122 C1123 1.414 . S
C1122 C1125 1.499 . S
C1123 H1097 0.950 . S
C1123 C1122 1.414 . S
C1123 C1124 1.374 . S
C1124 H1098 0.950 . S
C1124 C1120 1.385 . S
C1124 C1123 1.374 . S
C1125 C1122 1.499 . S
C1125 C1126 1.373 . S
C1125 C1127 1.389 . S
C1126 H1099 0.950 . S
C1126 C1112 1.377 . S
C1126 C1125 1.373 . S
C1127 C1111 1.377 . S
C1127 C1125 1.389 . S
C1127 C1128 1.524 . S
C1128 C1127 1.524 . S
C1128 C1129 1.397 . S
C1128 C1133 1.363 . S
C1129 H1100 0.950 . S
C1129 C1128 1.397 . S
C1129 C1130 1.334 . S
C1130 H1101 0.950 . S
C1130 C1129 1.334 . S
C1130 C1131 1.287 . S
C1131 C1130 1.287 . S
C1131 C1132 1.524 . S
C1131 H1134 0.999 . S
C1132 H1102 0.950 . S
C1132 C1131 1.524 . S
C1132 C1133 1.415 . S
C1133 H1103 0.950 . S
C1133 C1128 1.363 . S
C1133 C1132 1.415 . S
H1134 C1131 0.999 . S
H1135 C1116 0.913 . S
H1136 C1154 0.951 . S
H1137 C1156 0.951 . S
H1138 C1158 0.950 . S
H1139 C1159 0.950 . S
H1140 C1161 0.950 . S
H1141 C1164 0.950 . S
H1142 C1165 0.950 . S
H1143 C1167 0.950 . S
H1144 C1168 0.950 . S
H1145 C1169 0.951 . S
H1146 C1171 0.951 . S
H1147 C1173 0.950 . S
H1148 C1174 0.950 . S
H1149 C1176 0.950 . S
H1150 C1179 0.950 . S
H1151 C1180 0.950 . S
H1152 C1182 0.950 . S
H1153 C1183 0.950 . S
C1154 H1136 0.951 . S
C1154 C1155 1.366 . S
C1154 C1156 1.388 . S
C1155 C1154 1.366 . S
C1155 C1159 1.385 . S
C1156 H1137 0.951 . S
C1156 C1154 1.388 . S
C1156 C1157 1.366 . S
C1157 C1156 1.366 . S
C1157 C1158 1.414 . S
C1157 C1160 1.499 . S
C1158 H1138 0.950 . S
C1158 C1157 1.414 . S
C1158 C1159 1.374 . S
C1159 H1139 0.950 . S
C1159 C1155 1.385 . S
C1159 C1158 1.374 . S
C1160 C1157 1.499 . S
C1160 C1161 1.373 . S
C1160 C1162 1.389 . S
C1161 H1140 0.950 . S
C1161 C1160 1.373 . S
C1161 C1177 1.377 . S
C1162 C1160 1.389 . S
C1162 C1163 1.524 . S
C1162 C1176 1.377 . S
C1163 C1162 1.524 . S
C1163 C1164 1.397 . S
C1163 C1168 1.363 . S
C1164 H1141 0.950 . S
C1164 C1163 1.397 . S
C1164 C1165 1.334 . S
C1165 H1142 0.950 . S
C1165 C1164 1.334 . S
C1165 C1166 1.287 . S
C1166 C1165 1.287 . S
C1166 C1167 1.524 . S
C1166 H1185 0.913 . S
C1167 H1143 0.950 . S
C1167 C1166 1.524 . S
C1167 C1168 1.415 . S
C1168 H1144 0.950 . S
C1168 C1163 1.363 . S
C1168 C1167 1.415 . S
C1169 H1145 0.951 . S
C1169 C1170 1.366 . S
C1169 C1171 1.388 . S
C1170 C1169 1.366 . S
C1170 C1174 1.385 . S
C1171 H1146 0.951 . S
C1171 C1169 1.388 . S
C1171 C1172 1.366 . S
C1172 C1171 1.366 . S
C1172 C1173 1.414 . S
C1172 C1175 1.499 . S
C1173 H1147 0.950 . S
C1173 C1172 1.414 . S
C1173 C1174 1.374 . S
C1174 H1148 0.950 . S
C1174 C1170 1.385 . S
C1174 C1173 1.374 . S
C1175 C1172 1.499 . S
C1175 C1176 1.373 . S
C1175 C1177 1.389 . S
C1176 H1149 0.950 . S
C1176 C1162 1.377 . S
C1176 C1175 1.373 . S
C1177 C1161 1.377 . S
C1177 C1175 1.389 . S
C1177 C1178 1.524 . S
C1178 C1177 1.524 . S
C1178 C1179 1.397 . S
C1178 C1183 1.363 . S
C1179 H1150 0.950 . S
C1179 C1178 1.397 . S
C1179 C1180 1.334 . S
C1180 H1151 0.950 . S
C1180 C1179 1.334 . S
C1180 C1181 1.287 . S
C1181 C1180 1.287 . S
C1181 C1182 1.524 . S
C1181 H1184 0.999 . S
C1182 H1152 0.950 . S
C1182 C1181 1.524 . S
C1182 C1183 1.415 . S
C1183 H1153 0.950 . S
C1183 C1178 1.363 . S
C1183 C1182 1.415 . S
H1184 C1181 0.999 . S
H1185 C1166 0.913 . S
H1186 C1204 0.951 . S
H1187 C1206 0.951 . S
H1188 C1208 0.950 . S
H1189 C1209 0.950 . S
H1190 C1211 0.950 . S
H1191 C1214 0.950 . S
H1192 C1215 0.950 . S
H1193 C1217 0.950 . S
H1194 C1218 0.950 . S
H1195 C1219 0.951 . S
H1196 C1221 0.951 . S
H1197 C1223 0.950 . S
H1198 C1224 0.950 . S
H1199 C1226 0.950 . S
H1200 C1229 0.950 . S
H1201 C1230 0.950 . S
H1202 C1232 0.950 . S
H1203 C1233 0.950 . S
C1204 H1186 0.951 . S
C1204 C1205 1.366 . S
C1204 C1206 1.388 . S
C1205 C1204 1.366 . S
C1205 C1209 1.385 1_556 S
C1206 H1187 0.951 . S
C1206 C1204 1.388 . S
C1206 C1207 1.366 . S
C1207 C1206 1.366 . S
C1207 C1208 1.414 1_556 S
C1207 C1210 1.498 1_556 S
C1208 H1188 0.950 . S
C1208 C1207 1.414 1_554 S
C1208 C1209 1.374 . S
C1209 H1189 0.950 . S
C1209 C1205 1.385 1_554 S
C1209 C1208 1.374 . S
C1210 C1207 1.498 1_554 S
C1210 C1211 1.377 . S
C1210 C1212 1.386 1_554 S
C1211 H1190 0.950 . S
C1211 C1210 1.377 . S
C1211 C1227 1.377 . S
C1212 C1210 1.386 1_556 S
C1212 C1213 1.524 . S
C1212 C1226 1.377 . S
C1213 C1212 1.524 . S
C1213 C1214 1.397 1_556 S
C1213 C1218 1.363 . S
C1214 H1191 0.950 . S
C1214 C1213 1.397 1_554 S
C1214 C1215 1.334 . S
C1215 H1192 0.950 . S
C1215 C1214 1.334 . S
C1215 C1216 1.287 1_554 S
C1216 C1215 1.287 1_556 S
C1216 C1217 1.524 . S
C1216 H1235 0.913 . S
C1217 H1193 0.950 . S
C1217 C1216 1.524 . S
C1217 C1218 1.415 . S
C1218 H1194 0.950 . S
C1218 C1213 1.363 . S
C1218 C1217 1.415 . S
C1219 H1195 0.951 . S
C1219 C1220 1.366 . S
C1219 C1221 1.388 . S
C1220 C1219 1.366 . S
C1220 C1224 1.385 1_554 S
C1221 H1196 0.951 . S
C1221 C1219 1.388 . S
C1221 C1222 1.401 . S
C1222 C1221 1.401 . S
C1222 C1223 1.382 1_554 S
C1222 C1225 1.496 1_554 S
C1223 H1197 0.950 . S
C1223 C1222 1.382 1_556 S
C1223 C1224 1.374 . S
C1224 H1198 0.950 . S
C1224 C1220 1.385 1_556 S
C1224 C1223 1.374 . S
C1225 C1222 1.496 1_556 S
C1225 C1226 1.379 . S
C1225 C1227 1.384 1_556 S
C1226 H1199 0.950 . S
C1226 C1212 1.377 . S
C1226 C1225 1.379 . S
C1227 C1211 1.377 . S
C1227 C1225 1.384 1_554 S
C1227 C1228 1.524 . S
C1228 C1227 1.524 . S
C1228 C1229 1.397 1_554 S
C1228 C1233 1.363 . S
C1229 H1200 0.950 . S
C1229 C1228 1.397 1_556 S
C1229 C1230 1.334 . S
C1230 H1201 0.950 . S
C1230 C1229 1.334 . S
C1230 C1231 1.287 1_556 S
C1231 C1230 1.287 1_554 S
C1231 C1232 1.524 . S
C1231 H1234 0.999 . S
C1232 H1202 0.950 . S
C1232 C1231 1.524 . S
C1232 C1233 1.415 . S
C1233 H1203 0.950 . S
C1233 C1228 1.363 . S
C1233 C1232 1.415 . S
H1234 C1231 0.999 . S
H1235 C1216 0.913 . S
H1236 C1254 0.951 . S
H1237 C1256 0.951 . S
H1238 C1258 0.950 . S
H1239 C1259 0.950 . S
H1240 C1261 0.950 . S
H1241 C1264 0.950 . S
H1242 C1265 0.986 . S
H1243 C1267 0.950 . S
H1244 C1268 0.950 . S
H1245 C1269 0.951 . S
H1246 C1271 0.951 . S
H1247 C1273 0.950 . S
H1248 C1274 0.950 . S
H1249 C1276 0.950 . S
H1250 C1279 0.950 . S
H1251 C1280 0.986 . S
H1252 C1282 0.950 . S
H1253 C1283 0.950 . S
C1254 H1236 0.951 . S
C1254 C1255 1.366 . S
C1254 C1256 1.388 . S
C1255 C1254 1.366 . S
C1255 C1259 1.385 . S
C1256 H1237 0.951 . S
C1256 C1254 1.388 . S
C1256 C1257 1.366 . S
C1257 C1256 1.366 . S
C1257 C1258 1.414 . S
C1257 C1260 1.499 . S
C1258 H1238 0.950 . S
C1258 C1257 1.414 . S
C1258 C1259 1.374 . S
C1259 H1239 0.950 . S
C1259 C1255 1.385 . S
C1259 C1258 1.374 . S
C1260 C1257 1.499 . S
C1260 C1261 1.373 . S
C1260 C1262 1.389 1_545 S
C1261 H1240 0.950 . S
C1261 C1260 1.373 . S
C1261 C1277 1.377 . S
C1262 C1260 1.389 1_565 S
C1262 C1263 1.524 . S
C1262 C1276 1.377 . S
C1263 C1262 1.524 . S
C1263 C1264 1.397 1_565 S
C1263 C1268 1.363 . S
C1264 H1241 0.950 . S
C1264 C1263 1.397 1_545 S
C1264 C1265 1.321 . S
C1265 H1242 0.986 . S
C1265 C1264 1.321 . S
C1265 C1266 1.265 1_545 S
C1266 C1265 1.265 1_565 S
C1266 C1267 1.524 . S
C1266 H1285 0.913 . S
C1267 H1243 0.950 . S
C1267 C1266 1.524 . S
C1267 C1268 1.415 . S
C1268 H1244 0.950 . S
C1268 C1263 1.363 . S
C1268 C1267 1.415 . S
C1269 H1245 0.951 . S
C1269 C1270 1.366 . S
C1269 C1271 1.388 . S
C1270 C1269 1.366 . S
C1270 C1274 1.385 . S
C1271 H1246 0.951 . S
C1271 C1269 1.388 . S
C1271 C1272 1.366 . S
C1272 C1271 1.366 . S
C1272 C1273 1.414 . S
C1272 C1275 1.499 . S
C1273 H1247 0.950 . S
C1273 C1272 1.414 . S
C1273 C1274 1.374 . S
C1274 H1248 0.950 . S
C1274 C1270 1.385 . S
C1274 C1273 1.374 . S
C1275 C1272 1.499 . S
C1275 C1276 1.373 . S
C1275 C1277 1.389 1_565 S
C1276 H1249 0.950 . S
C1276 C1262 1.377 . S
C1276 C1275 1.373 . S
C1277 C1261 1.377 . S
C1277 C1275 1.389 1_545 S
C1277 C1278 1.524 . S
C1278 C1277 1.524 . S
C1278 C1279 1.397 1_545 S
C1278 C1283 1.363 . S
C1279 H1250 0.950 . S
C1279 C1278 1.397 1_565 S
C1279 C1280 1.321 . S
C1280 H1251 0.986 . S
C1280 C1279 1.321 . S
C1280 C1281 1.265 1_565 S
C1281 C1280 1.265 1_545 S
C1281 C1282 1.524 . S
C1281 H1284 0.999 . S
C1282 H1252 0.950 . S
C1282 C1281 1.524 . S
C1282 C1283 1.415 . S
C1283 H1253 0.950 . S
C1283 C1278 1.363 . S
C1283 C1282 1.415 . S
H1284 C1281 0.999 . S
H1285 C1266 0.913 . S
H1286 C1304 0.951 . S
H1287 C1306 0.951 . S
H1288 C1308 0.950 . S
H1289 C1309 0.950 . S
H1290 C1311 0.950 . S
H1291 C1314 0.950 . S
H1292 C1315 0.950 . S
H1293 C1317 0.950 . S
H1294 C1318 0.950 . S
H1295 C1319 0.951 . S
H1296 C1321 0.951 . S
H1297 C1323 0.950 . S
H1298 C1324 0.950 . S
H1299 C1326 0.950 . S
H1300 C1329 0.950 . S
H1301 C1330 0.950 . S
H1302 C1332 0.950 . S
H1303 C1333 0.950 . S
C1304 H1286 0.951 . S
C1304 C1305 1.366 . S
C1304 C1306 1.388 . S
C1305 C1304 1.366 . S
C1305 C1309 1.385 . S
C1306 H1287 0.951 . S
C1306 C1304 1.388 . S
C1306 C1307 1.366 . S
C1307 C1306 1.366 . S
C1307 C1308 1.414 . S
C1307 C1310 1.499 . S
C1308 H1288 0.950 . S
C1308 C1307 1.414 . S
C1308 C1309 1.374 . S
C1309 H1289 0.950 . S
C1309 C1305 1.385 . S
C1309 C1308 1.374 . S
C1310 C1307 1.499 . S
C1310 C1311 1.373 . S
C1310 C1312 1.389 . S
C1311 H1290 0.950 . S
C1311 C1310 1.373 . S
C1311 C1327 1.377 . S
C1312 C1310 1.389 . S
C1312 C1313 1.524 . S
C1312 C1326 1.377 . S
C1313 C1312 1.524 . S
C1313 C1314 1.397 . S
C1313 C1318 1.363 . S
C1314 H1291 0.950 . S
C1314 C1313 1.397 . S
C1314 C1315 1.334 . S
C1315 H1292 0.950 . S
C1315 C1314 1.334 . S
C1315 C1316 1.287 . S
C1316 C1315 1.287 . S
C1316 C1317 1.524 . S
C1316 H1335 0.913 . S
C1317 H1293 0.950 . S
C1317 C1316 1.524 . S
C1317 C1318 1.415 . S
C1318 H1294 0.950 . S
C1318 C1313 1.363 . S
C1318 C1317 1.415 . S
C1319 H1295 0.951 . S
C1319 C1320 1.366 . S
C1319 C1321 1.388 . S
C1320 C1319 1.366 . S
C1320 C1324 1.385 . S
C1321 H1296 0.951 . S
C1321 C1319 1.388 . S
C1321 C1322 1.366 . S
C1322 C1321 1.366 . S
C1322 C1323 1.414 . S
C1322 C1325 1.499 . S
C1323 H1297 0.950 . S
C1323 C1322 1.414 . S
C1323 C1324 1.374 . S
C1324 H1298 0.950 . S
C1324 C1320 1.385 . S
C1324 C1323 1.374 . S
C1325 C1322 1.499 . S
C1325 C1326 1.373 . S
C1325 C1327 1.389 . S
C1326 H1299 0.950 . S
C1326 C1312 1.377 . S
C1326 C1325 1.373 . S
C1327 C1311 1.377 . S
C1327 C1325 1.389 . S
C1327 C1328 1.524 . S
C1328 C1327 1.524 . S
C1328 C1329 1.397 . S
C1328 C1333 1.363 . S
C1329 H1300 0.950 . S
C1329 C1328 1.397 . S
C1329 C1330 1.334 . S
C1330 H1301 0.950 . S
C1330 C1329 1.334 . S
C1330 C1331 1.287 . S
C1331 C1330 1.287 . S
C1331 C1332 1.524 . S
C1331 H1334 0.999 . S
C1332 H1302 0.950 . S
C1332 C1331 1.524 . S
C1332 C1333 1.415 . S
C1333 H1303 0.950 . S
C1333 C1328 1.363 . S
C1333 C1332 1.415 . S
H1334 C1331 0.999 . S
H1335 C1316 0.913 . S
H1336 C1354 0.951 . S
H1337 C1356 0.951 . S
H1338 C1358 0.950 . S
H1339 C1359 0.950 . S
H1340 C1361 0.956 . S
H1341 C1364 0.950 . S
H1342 C1365 0.950 . S
H1343 C1367 0.950 . S
H1344 C1368 0.950 . S
H1345 C1369 0.951 . S
H1346 C1371 0.951 . S
H1347 C1373 0.950 . S
H1348 C1374 0.950 . S
H1349 C1376 0.956 . S
H1350 C1379 0.950 . S
H1351 C1380 0.950 . S
H1352 C1382 0.950 . S
H1353 C1383 0.950 . S
C1354 H1336 0.951 . S
C1354 C1355 1.366 . S
C1354 C1356 1.388 . S
C1355 C1354 1.366 . S
C1355 C1359 1.385 . S
C1356 H1337 0.951 . S
C1356 C1354 1.388 . S
C1356 C1357 1.366 . S
C1357 C1356 1.366 . S
C1357 C1358 1.414 . S
C1357 C1360 1.499 . S
C1358 H1338 0.950 . S
C1358 C1357 1.414 . S
C1358 C1359 1.374 . S
C1359 H1339 0.950 . S
C1359 C1355 1.385 . S
C1359 C1358 1.374 . S
C1360 C1357 1.499 . S
C1360 C1361 1.399 . S
C1360 C1362 1.389 1_554 S
C1361 H1340 0.956 . S
C1361 C1360 1.399 . S
C1361 C1377 1.366 1_655 S
C1362 C1360 1.389 1_556 S
C1362 C1363 1.524 . S
C1362 C1376 1.366 1_655 S
C1363 C1362 1.524 . S
C1363 C1364 1.397 . S
C1363 C1368 1.363 . S
C1364 H1341 0.950 . S
C1364 C1363 1.397 . S
C1364 C1365 1.334 . S
C1365 H1342 0.950 . S
C1365 C1364 1.334 . S
C1365 C1366 1.287 . S
C1366 C1365 1.287 . S
C1366 C1367 1.524 . S
C1366 H1385 0.913 . S
C1367 H1343 0.950 . S
C1367 C1366 1.524 . S
C1367 C1368 1.415 . S
C1368 H1344 0.950 . S
C1368 C1363 1.363 . S
C1368 C1367 1.415 . S
C1369 H1345 0.951 . S
C1369 C1370 1.366 . S
C1369 C1371 1.388 . S
C1370 C1369 1.366 . S
C1370 C1374 1.385 . S
C1371 H1346 0.951 . S
C1371 C1369 1.388 . S
C1371 C1372 1.366 . S
C1372 C1371 1.366 . S
C1372 C1373 1.414 . S
C1372 C1375 1.499 . S
C1373 H1347 0.950 . S
C1373 C1372 1.414 . S
C1373 C1374 1.374 . S
C1374 H1348 0.950 . S
C1374 C1370 1.385 . S
C1374 C1373 1.374 . S
C1375 C1372 1.499 . S
C1375 C1376 1.399 1_554 S
C1375 C1377 1.389 . S
C1376 H1349 0.956 . S
C1376 C1362 1.366 1_455 S
C1376 C1375 1.399 1_556 S
C1377 C1361 1.366 1_455 S
C1377 C1375 1.389 . S
C1377 C1378 1.524 . S
C1378 C1377 1.524 . S
C1378 C1379 1.397 . S
C1378 C1383 1.363 . S
C1379 H1350 0.950 . S
C1379 C1378 1.397 . S
C1379 C1380 1.334 . S
C1380 H1351 0.950 . S
C1380 C1379 1.334 . S
C1380 C1381 1.287 . S
C1381 C1380 1.287 . S
C1381 C1382 1.524 . S
C1381 H1384 0.999 . S
C1382 H1352 0.950 . S
C1382 C1381 1.524 . S
C1382 C1383 1.415 . S
C1383 H1353 0.950 . S
C1383 C1378 1.363 . S
C1383 C1382 1.415 . S
H1384 C1381 0.999 . S
H1385 C1366 0.913 . S
H1386 C1404 0.951 . S
H1387 C1406 0.951 . S
H1388 C1408 0.950 . S
H1389 C1409 0.950 . S
H1390 C1411 0.950 . S
H1391 C1414 0.950 . S
H1392 C1415 0.950 . S
H1393 C1417 0.950 . S
H1394 C1418 0.950 . S
H1395 C1419 0.951 . S
H1396 C1421 0.951 . S
H1397 C1423 0.950 . S
H1398 C1424 0.950 . S
H1399 C1426 0.950 . S
H1400 C1429 0.950 . S
H1401 C1430 0.950 . S
H1402 C1432 0.950 . S
H1403 C1433 0.950 . S
C1404 H1386 0.951 . S
C1404 C1405 1.366 . S
C1404 C1406 1.388 . S
C1405 C1404 1.366 . S
C1405 C1409 1.385 . S
C1406 H1387 0.951 . S
C1406 C1404 1.388 . S
C1406 C1407 1.366 . S
C1407 C1406 1.366 . S
C1407 C1408 1.414 . S
C1407 C1410 1.499 . S
C1408 H1388 0.950 . S
C1408 C1407 1.414 . S
C1408 C1409 1.374 . S
C1409 H1389 0.950 . S
C1409 C1405 1.385 . S
C1409 C1408 1.374 . S
C1410 C1407 1.499 . S
C1410 C1411 1.373 . S
C1410 C1412 1.389 . S
C1411 H1390 0.950 . S
C1411 C1410 1.373 . S
C1411 C1427 1.377 1_455 S
C1412 C1410 1.389 . S
C1412 C1413 1.524 . S
C1412 C1426 1.377 1_455 S
C1413 C1412 1.524 . S
C1413 C1414 1.397 . S
C1413 C1418 1.363 . S
C1414 H1391 0.950 . S
C1414 C1413 1.397 . S
C1414 C1415 1.334 . S
C1415 H1392 0.950 . S
C1415 C1414 1.334 . S
C1415 C1416 1.287 . S
C1416 C1415 1.287 . S
C1416 C1417 1.524 . S
C1416 H1435 0.913 . S
C1417 H1393 0.950 . S
C1417 C1416 1.524 . S
C1417 C1418 1.415 . S
C1418 H1394 0.950 . S
C1418 C1413 1.363 . S
C1418 C1417 1.415 . S
C1419 H1395 0.951 . S
C1419 C1420 1.366 . S
C1419 C1421 1.388 . S
C1420 C1419 1.366 . S
C1420 C1424 1.385 . S
C1421 H1396 0.951 . S
C1421 C1419 1.388 . S
C1421 C1422 1.366 . S
C1422 C1421 1.366 . S
C1422 C1423 1.414 . S
C1422 C1425 1.499 . S
C1423 H1397 0.950 . S
C1423 C1422 1.414 . S
C1423 C1424 1.374 . S
C1424 H1398 0.950 . S
C1424 C1420 1.385 . S
C1424 C1423 1.374 . S
C1425 C1422 1.499 . S
C1425 C1426 1.373 . S
C1425 C1427 1.389 . S
C1426 H1399 0.950 . S
C1426 C1412 1.377 1_655 S
C1426 C1425 1.373 . S
C1427 C1411 1.377 1_655 S
C1427 C1425 1.389 . S
C1427 C1428 1.524 . S
C1428 C1427 1.524 . S
C1428 C1429 1.397 . S
C1428 C1433 1.363 . S
C1429 H1400 0.950 . S
C1429 C1428 1.397 . S
C1429 C1430 1.334 . S
C1430 H1401 0.950 . S
C1430 C1429 1.334 . S
C1430 C1431 1.287 . S
C1431 C1430 1.287 . S
C1431 C1432 1.524 . S
C1431 H1434 0.999 . S
C1432 H1402 0.950 . S
C1432 C1431 1.524 . S
C1432 C1433 1.415 . S
C1433 H1403 0.950 . S
C1433 C1428 1.363 . S
C1433 C1432 1.415 . S
H1434 C1431 0.999 . S
H1435 C1416 0.913 . S
H1436 C1454 0.951 . S
H1437 C1456 0.951 . S
H1438 C1458 0.950 . S
H1439 C1459 0.950 . S
H1440 C1461 0.950 . S
H1441 C1464 0.950 . S
H1442 C1465 0.950 . S
H1443 C1467 0.950 . S
H1444 C1468 0.975 . S
H1445 C1469 0.951 . S
H1446 C1471 0.951 . S
H1447 C1473 0.950 . S
H1448 C1474 0.950 . S
H1449 C1476 0.950 . S
H1450 C1479 0.950 . S
H1451 C1480 0.950 . S
H1452 C1482 0.950 . S
H1453 C1483 0.975 . S
C1454 H1436 0.951 . S
C1454 C1455 1.366 . S
C1454 C1456 1.388 . S
C1455 C1454 1.366 . S
C1455 C1459 1.385 . S
C1456 H1437 0.951 . S
C1456 C1454 1.388 . S
C1456 C1457 1.366 . S
C1457 C1456 1.366 . S
C1457 C1458 1.414 . S
C1457 C1460 1.499 . S
C1458 H1438 0.950 . S
C1458 C1457 1.414 . S
C1458 C1459 1.374 . S
C1459 H1439 0.950 . S
C1459 C1455 1.385 . S
C1459 C1458 1.374 . S
C1460 C1457 1.499 . S
C1460 C1461 1.373 . S
C1460 C1462 1.389 . S
C1461 H1440 0.950 . S
C1461 C1460 1.373 . S
C1461 C1477 1.377 1_545 S
C1462 C1460 1.389 . S
C1462 C1463 1.524 . S
C1462 C1476 1.377 1_545 S
C1463 C1462 1.524 . S
C1463 C1464 1.397 . S
C1463 C1468 1.363 . S
C1464 H1441 0.950 . S
C1464 C1463 1.397 . S
C1464 C1465 1.334 . S
C1465 H1442 0.950 . S
C1465 C1464 1.334 . S
C1465 C1466 1.287 . S
C1466 C1465 1.287 . S
C1466 C1467 1.524 . S
C1466 H1485 0.913 . S
C1467 H1443 0.950 . S
C1467 C1466 1.524 . S
C1467 C1468 1.415 . S
C1468 H1444 0.975 . S
C1468 C1463 1.363 . S
C1468 C1467 1.415 . S
C1469 H1445 0.951 . S
C1469 C1470 1.366 . S
C1469 C1471 1.388 . S
C1470 C1469 1.366 . S
C1470 C1474 1.385 . S
C1471 H1446 0.951 . S
C1471 C1469 1.388 . S
C1471 C1472 1.366 . S
C1472 C1471 1.366 . S
C1472 C1473 1.414 . S
C1472 C1475 1.499 . S
C1473 H1447 0.950 . S
C1473 C1472 1.414 . S
C1473 C1474 1.374 . S
C1474 H1448 0.950 . S
C1474 C1470 1.385 . S
C1474 C1473 1.374 . S
C1475 C1472 1.499 . S
C1475 C1476 1.373 . S
C1475 C1477 1.389 . S
C1476 H1449 0.950 . S
C1476 C1462 1.377 1_565 S
C1476 C1475 1.373 . S
C1477 C1461 1.377 1_565 S
C1477 C1475 1.389 . S
C1477 C1478 1.524 . S
C1478 C1477 1.524 . S
C1478 C1479 1.397 . S
C1478 C1483 1.363 . S
C1479 H1450 0.950 . S
C1479 C1478 1.397 . S
C1479 C1480 1.334 . S
C1480 H1451 0.950 . S
C1480 C1479 1.334 . S
C1480 C1481 1.287 . S
C1481 C1480 1.287 . S
C1481 C1482 1.524 . S
C1481 H1484 0.999 . S
C1482 H1452 0.950 . S
C1482 C1481 1.524 . S
C1482 C1483 1.415 . S
C1483 H1453 0.975 . S
C1483 C1478 1.363 . S
C1483 C1482 1.415 . S
H1484 C1481 0.999 . S
H1485 C1466 0.913 . S
H1486 C1504 0.951 . S
H1487 C1506 0.951 . S
H1488 C1508 0.950 . S
H1489 C1509 0.950 . S
H1490 C1511 0.950 . S
H1491 C1514 0.950 . S
H1492 C1515 0.950 . S
H1493 C1517 0.950 . S
H1494 C1518 0.950 . S
H1495 C1519 0.951 . S
H1496 C1521 0.951 . S
H1497 C1523 0.950 . S
H1498 C1524 0.950 . S
H1499 C1526 0.950 . S
H1500 C1529 0.950 . S
H1501 C1530 0.950 . S
H1502 C1532 0.950 . S
H1503 C1533 0.950 . S
C1504 H1486 0.951 . S
C1504 C1505 1.366 1_554 S
C1504 C1506 1.388 . S
C1505 C1504 1.366 1_556 S
C1505 C1509 1.385 . S
C1506 H1487 0.951 . S
C1506 C1504 1.388 . S
C1506 C1507 1.366 1_554 S
C1507 C1506 1.366 1_556 S
C1507 C1508 1.414 . S
C1507 C1510 1.499 . S
C1508 H1488 0.950 . S
C1508 C1507 1.414 . S
C1508 C1509 1.374 . S
C1509 H1489 0.950 . S
C1509 C1505 1.385 . S
C1509 C1508 1.374 . S
C1510 C1507 1.499 . S
C1510 C1511 1.373 . S
C1510 C1512 1.389 . S
C1511 H1490 0.950 . S
C1511 C1510 1.373 . S
C1511 C1527 1.377 . S
C1512 C1510 1.389 . S
C1512 C1513 1.526 . S
C1512 C1526 1.377 1_556 S
C1513 C1512 1.526 . S
C1513 C1514 1.433 . S
C1513 C1518 1.330 1_556 S
C1514 H1491 0.950 . S
C1514 C1513 1.433 . S
C1514 C1515 1.334 . S
C1515 H1492 0.950 . S
C1515 C1514 1.334 . S
C1515 C1516 1.287 . S
C1516 C1515 1.287 . S
C1516 C1517 1.524 1_556 S
C1516 H1535 0.913 . S
C1517 H1493 0.950 . S
C1517 C1516 1.524 1_554 S
C1517 C1518 1.415 . S
C1518 H1494 0.950 . S
C1518 C1513 1.330 1_554 S
C1518 C1517 1.415 . S
C1519 H1495 0.951 . S
C1519 C1520 1.366 . S
C1519 C1521 1.388 . S
C1520 C1519 1.366 . S
C1520 C1524 1.385 1_556 S
C1521 H1496 0.951 . S
C1521 C1519 1.388 . S
C1521 C1522 1.366 . S
C1522 C1521 1.366 . S
C1522 C1523 1.414 1_556 S
C1522 C1525 1.499 . S
C1523 H1497 0.950 . S
C1523 C1522 1.414 1_554 S
C1523 C1524 1.374 . S
C1524 H1498 0.950 . S
C1524 C1520 1.385 1_554 S
C1524 C1523 1.374 . S
C1525 C1522 1.499 . S
C1525 C1526 1.374 1_556 S
C1525 C1527 1.389 . S
C1526 H1499 0.950 . S
C1526 C1512 1.377 1_554 S
C1526 C1525 1.374 1_554 S
C1527 C1511 1.377 . S
C1527 C1525 1.389 . S
C1527 C1528 1.524 . S
C1528 C1527 1.524 . S
C1528 C1529 1.397 1_556 S
C1528 C1533 1.363 . S
C1529 H1500 0.950 . S
C1529 C1528 1.397 1_554 S
C1529 C1530 1.334 . S
C1530 H1501 0.950 . S
C1530 C1529 1.334 . S
C1530 C1531 1.287 1_554 S
C1531 C1530 1.287 1_556 S
C1531 C1532 1.524 . S
C1531 H1534 0.999 . S
C1532 H1502 0.950 . S
C1532 C1531 1.524 . S
C1532 C1533 1.415 . S
C1533 H1503 0.950 . S
C1533 C1528 1.363 . S
C1533 C1532 1.415 . S
H1534 C1531 0.999 . S
H1535 C1516 0.913 . S
H1536 C1554 0.951 . S
H1537 C1556 0.951 . S
H1538 C1558 0.950 . S
H1539 C1559 0.950 . S
H1540 C1561 0.950 . S
H1541 C1564 0.950 . S
H1542 C1565 0.950 . S
H1543 C1567 0.950 . S
H1544 C1568 0.950 . S
H1545 C1569 0.951 . S
H1546 C1571 0.951 . S
H1547 C1573 0.950 . S
H1548 C1574 0.950 . S
H1549 C1576 0.950 . S
H1550 C1579 0.950 . S
H1551 C1580 0.950 . S
H1552 C1582 0.950 . S
H1553 C1583 0.950 . S
C1554 H1536 0.951 . S
C1554 C1555 1.366 . S
C1554 C1556 1.388 . S
C1555 C1554 1.366 . S
C1555 C1559 1.385 . S
C1556 H1537 0.951 . S
C1556 C1554 1.388 . S
C1556 C1557 1.366 . S
C1557 C1556 1.366 . S
C1557 C1558 1.414 . S
C1557 C1560 1.499 . S
C1558 H1538 0.950 . S
C1558 C1557 1.414 . S
C1558 C1559 1.374 . S
C1559 H1539 0.950 . S
C1559 C1555 1.385 . S
C1559 C1558 1.374 . S
C1560 C1557 1.499 . S
C1560 C1561 1.373 . S
C1560 C1562 1.389 . S
C1561 H1540 0.950 . S
C1561 C1560 1.373 . S
C1561 C1577 1.377 . S
C1562 C1560 1.389 . S
C1562 C1563 1.524 . S
C1562 C1576 1.377 . S
C1563 C1562 1.524 . S
C1563 C1564 1.397 . S
C1563 C1568 1.363 . S
C1564 H1541 0.950 . S
C1564 C1563 1.397 . S
C1564 C1565 1.334 . S
C1565 H1542 0.950 . S
C1565 C1564 1.334 . S
C1565 C1566 1.287 . S
C1566 C1565 1.287 . S
C1566 C1567 1.524 . S
C1566 H1585 0.913 . S
C1567 H1543 0.950 . S
C1567 C1566 1.524 . S
C1567 C1568 1.415 . S
C1568 H1544 0.950 . S
C1568 C1563 1.363 . S
C1568 C1567 1.415 . S
C1569 H1545 0.951 . S
C1569 C1570 1.366 . S
C1569 C1571 1.388 . S
C1570 C1569 1.366 . S
C1570 C1574 1.385 . S
C1571 H1546 0.951 . S
C1571 C1569 1.388 . S
C1571 C1572 1.366 . S
C1572 C1571 1.366 . S
C1572 C1573 1.414 . S
C1572 C1575 1.499 . S
C1573 H1547 0.950 . S
C1573 C1572 1.414 . S
C1573 C1574 1.374 . S
C1574 H1548 0.950 . S
C1574 C1570 1.385 . S
C1574 C1573 1.374 . S
C1575 C1572 1.499 . S
C1575 C1576 1.373 . S
C1575 C1577 1.389 . S
C1576 H1549 0.950 . S
C1576 C1562 1.377 . S
C1576 C1575 1.373 . S
C1577 C1561 1.377 . S
C1577 C1575 1.389 . S
C1577 C1578 1.524 . S
C1578 C1577 1.524 . S
C1578 C1579 1.397 . S
C1578 C1583 1.363 . S
C1579 H1550 0.950 . S
C1579 C1578 1.397 . S
C1579 C1580 1.334 . S
C1580 H1551 0.950 . S
C1580 C1579 1.334 . S
C1580 C1581 1.287 . S
C1581 C1580 1.287 . S
C1581 C1582 1.524 . S
C1581 H1584 0.999 . S
C1582 H1552 0.950 . S
C1582 C1581 1.524 . S
C1582 C1583 1.415 . S
C1583 H1553 0.950 . S
C1583 C1578 1.363 . S
C1583 C1582 1.415 . S
H1584 C1581 0.999 . S
H1585 C1566 0.913 . S
H1586 C1604 0.951 . S
H1587 C1606 0.951 . S
H1588 C1608 0.950 . S
H1589 C1609 0.950 . S
H1590 C1611 0.950 . S
H1591 C1614 0.950 . S
H1592 C1615 0.950 . S
H1593 C1617 0.950 . S
H1594 C1618 0.950 . S
H1595 C1619 0.951 . S
H1596 C1621 0.951 . S
H1597 C1623 0.950 . S
H1598 C1624 0.950 . S
H1599 C1626 0.950 . S
H1600 C1629 0.950 . S
H1601 C1630 0.950 . S
H1602 C1632 0.950 . S
H1603 C1633 0.950 . S
C1604 H1586 0.951 . S
C1604 C1605 1.366 . S
C1604 C1606 1.388 . S
C1605 C1604 1.366 . S
C1605 C1609 1.385 . S
C1606 H1587 0.951 . S
C1606 C1604 1.388 . S
C1606 C1607 1.366 . S
C1607 C1606 1.366 . S
C1607 C1608 1.414 . S
C1607 C1610 1.499 . S
C1608 H1588 0.950 . S
C1608 C1607 1.414 . S
C1608 C1609 1.374 . S
C1609 H1589 0.950 . S
C1609 C1605 1.385 . S
C1609 C1608 1.374 . S
C1610 C1607 1.499 . S
C1610 C1611 1.373 . S
C1610 C1612 1.389 . S
C1611 H1590 0.950 . S
C1611 C1610 1.373 . S
C1611 C1627 1.377 . S
C1612 C1610 1.389 . S
C1612 C1613 1.524 . S
C1612 C1626 1.377 . S
C1613 C1612 1.524 . S
C1613 C1614 1.397 . S
C1613 C1618 1.363 . S
C1614 H1591 0.950 . S
C1614 C1613 1.397 . S
C1614 C1615 1.334 . S
C1615 H1592 0.950 . S
C1615 C1614 1.334 . S
C1615 C1616 1.287 . S
C1616 C1615 1.287 . S
C1616 C1617 1.524 . S
C1616 H1635 0.913 . S
C1617 H1593 0.950 . S
C1617 C1616 1.524 . S
C1617 C1618 1.415 . S
C1618 H1594 0.950 . S
C1618 C1613 1.363 . S
C1618 C1617 1.415 . S
C1619 H1595 0.951 . S
C1619 C1620 1.366 . S
C1619 C1621 1.388 . S
C1620 C1619 1.366 . S
C1620 C1624 1.385 . S
C1621 H1596 0.951 . S
C1621 C1619 1.388 . S
C1621 C1622 1.366 . S
C1622 C1621 1.366 . S
C1622 C1623 1.414 . S
C1622 C1625 1.499 . S
C1623 H1597 0.950 . S
C1623 C1622 1.414 . S
C1623 C1624 1.374 . S
C1624 H1598 0.950 . S
C1624 C1620 1.385 . S
C1624 C1623 1.374 . S
C1625 C1622 1.499 . S
C1625 C1626 1.373 . S
C1625 C1627 1.389 . S
C1626 H1599 0.950 . S
C1626 C1612 1.377 . S
C1626 C1625 1.373 . S
C1627 C1611 1.377 . S
C1627 C1625 1.389 . S
C1627 C1628 1.524 . S
C1628 C1627 1.524 . S
C1628 C1629 1.397 . S
C1628 C1633 1.363 . S
C1629 H1600 0.950 . S
C1629 C1628 1.397 . S
C1629 C1630 1.334 . S
C1630 H1601 0.950 . S
C1630 C1629 1.334 . S
C1630 C1631 1.287 . S
C1631 C1630 1.287 . S
C1631 C1632 1.524 . S
C1631 H1634 0.999 . S
C1632 H1602 0.950 . S
C1632 C1631 1.524 . S
C1632 C1633 1.415 . S
C1633 H1603 0.950 . S
C1633 C1628 1.363 . S
C1633 C1632 1.415 . S
H1634 C1631 0.999 . S
H1635 C1616 0.913 . S
H1636 C1654 0.951 . S
H1637 C1656 0.951 . S
H1638 C1658 0.950 . S
H1639 C1659 0.950 . S
H1640 C1661 0.950 . S
H1641 C1664 0.950 . S
H1642 C1665 0.950 . S
H1643 C1667 0.950 . S
H1644 C1668 0.950 . S
H1645 C1669 0.951 . S
H1646 C1671 0.951 . S
H1647 C1673 0.950 . S
H1648 C1674 0.950 . S
H1649 C1676 0.950 . S
H1650 C1679 0.950 . S
H1651 C1680 0.950 . S
H1652 C1682 0.950 . S
H1653 C1683 0.950 . S
C1654 H1636 0.951 . S
C1654 C1655 1.366 . S
C1654 C1656 1.388 . S
C1655 C1654 1.366 . S
C1655 C1659 1.385 . S
C1656 H1637 0.951 . S
C1656 C1654 1.388 . S
C1656 C1657 1.366 . S
C1657 C1656 1.366 . S
C1657 C1658 1.414 . S
C1657 C1660 1.499 . S
C1658 H1638 0.950 . S
C1658 C1657 1.414 . S
C1658 C1659 1.374 . S
C1659 H1639 0.950 . S
C1659 C1655 1.385 . S
C1659 C1658 1.374 . S
C1660 C1657 1.499 . S
C1660 C1661 1.373 . S
C1660 C1662 1.389 . S
C1661 H1640 0.950 . S
C1661 C1660 1.373 . S
C1661 C1677 1.377 . S
C1662 C1660 1.389 . S
C1662 C1663 1.524 . S
C1662 C1676 1.377 . S
C1663 C1662 1.524 . S
C1663 C1664 1.397 . S
C1663 C1668 1.363 . S
C1664 H1641 0.950 . S
C1664 C1663 1.397 . S
C1664 C1665 1.334 . S
C1665 H1642 0.950 . S
C1665 C1664 1.334 . S
C1665 C1666 1.287 . S
C1666 C1665 1.287 . S
C1666 C1667 1.524 . S
C1666 H1685 0.913 . S
C1667 H1643 0.950 . S
C1667 C1666 1.524 . S
C1667 C1668 1.415 . S
C1668 H1644 0.950 . S
C1668 C1663 1.363 . S
C1668 C1667 1.415 . S
C1669 H1645 0.951 . S
C1669 C1670 1.366 . S
C1669 C1671 1.388 . S
C1670 C1669 1.366 . S
C1670 C1674 1.385 . S
C1671 H1646 0.951 . S
C1671 C1669 1.388 . S
C1671 C1672 1.366 . S
C1672 C1671 1.366 . S
C1672 C1673 1.414 . S
C1672 C1675 1.499 . S
C1673 H1647 0.950 . S
C1673 C1672 1.414 . S
C1673 C1674 1.374 . S
C1674 H1648 0.950 . S
C1674 C1670 1.385 . S
C1674 C1673 1.374 . S
C1675 C1672 1.499 . S
C1675 C1676 1.373 . S
C1675 C1677 1.389 . S
C1676 H1649 0.950 . S
C1676 C1662 1.377 . S
C1676 C1675 1.373 . S
C1677 C1661 1.377 . S
C1677 C1675 1.389 . S
C1677 C1678 1.524 . S
C1678 C1677 1.524 . S
C1678 C1679 1.397 . S
C1678 C1683 1.363 . S
C1679 H1650 0.950 . S
C1679 C1678 1.397 . S
C1679 C1680 1.334 . S
C1680 H1651 0.950 . S
C1680 C1679 1.334 . S
C1680 C1681 1.287 . S
C1681 C1680 1.287 . S
C1681 C1682 1.524 . S
C1681 H1684 0.999 . S
C1682 H1652 0.950 . S
C1682 C1681 1.524 . S
C1682 C1683 1.415 . S
C1683 H1653 0.950 . S
C1683 C1678 1.363 . S
C1683 C1682 1.415 . S
H1684 C1681 0.999 . S
H1685 C1666 0.913 . S
H1686 C1704 0.951 . S
H1687 C1706 0.951 . S
H1688 C1708 0.950 . S
H1689 C1709 0.950 . S
H1690 C1711 0.950 . S
H1691 C1714 0.950 . S
H1692 C1715 0.950 . S
H1693 C1717 0.950 . S
H1694 C1718 0.950 . S
H1695 C1719 0.951 . S
H1696 C1721 0.951 . S
H1697 C1723 0.950 . S
H1698 C1724 0.950 . S
H1699 C1726 0.950 . S
H1700 C1729 0.950 . S
H1701 C1730 0.950 . S
H1702 C1732 0.950 . S
H1703 C1733 0.950 . S
C1704 H1686 0.951 . S
C1704 C1705 1.366 . S
C1704 C1706 1.388 . S
C1705 C1704 1.366 . S
C1705 C1709 1.385 . S
C1706 H1687 0.951 . S
C1706 C1704 1.388 . S
C1706 C1707 1.366 . S
C1707 C1706 1.366 . S
C1707 C1708 1.414 . S
C1707 C1710 1.499 . S
C1708 H1688 0.950 . S
C1708 C1707 1.414 . S
C1708 C1709 1.374 . S
C1709 H1689 0.950 . S
C1709 C1705 1.385 . S
C1709 C1708 1.374 . S
C1710 C1707 1.499 . S
C1710 C1711 1.373 . S
C1710 C1712 1.389 . S
C1711 H1690 0.950 . S
C1711 C1710 1.373 . S
C1711 C1727 1.377 . S
C1712 C1710 1.389 . S
C1712 C1713 1.524 . S
C1712 C1726 1.377 . S
C1713 C1712 1.524 . S
C1713 C1714 1.397 . S
C1713 C1718 1.363 . S
C1714 H1691 0.950 . S
C1714 C1713 1.397 . S
C1714 C1715 1.334 . S
C1715 H1692 0.950 . S
C1715 C1714 1.334 . S
C1715 C1716 1.287 . S
C1716 C1715 1.287 . S
C1716 C1717 1.524 . S
C1716 H1735 0.913 . S
C1717 H1693 0.950 . S
C1717 C1716 1.524 . S
C1717 C1718 1.415 . S
C1718 H1694 0.950 . S
C1718 C1713 1.363 . S
C1718 C1717 1.415 . S
C1719 H1695 0.951 . S
C1719 C1720 1.366 . S
C1719 C1721 1.388 . S
C1720 C1719 1.366 . S
C1720 C1724 1.385 . S
C1721 H1696 0.951 . S
C1721 C1719 1.388 . S
C1721 C1722 1.366 . S
C1722 C1721 1.366 . S
C1722 C1723 1.414 . S
C1722 C1725 1.499 . S
C1723 H1697 0.950 . S
C1723 C1722 1.414 . S
C1723 C1724 1.374 . S
C1724 H1698 0.950 . S
C1724 C1720 1.385 . S
C1724 C1723 1.374 . S
C1725 C1722 1.499 . S
C1725 C1726 1.373 . S
C1725 C1727 1.389 . S
C1726 H1699 0.950 . S
C1726 C1712 1.377 . S
C1726 C1725 1.373 . S
C1727 C1711 1.377 . S
C1727 C1725 1.389 . S
C1727 C1728 1.524 . S
C1728 C1727 1.524 . S
C1728 C1729 1.397 . S
C1728 C1733 1.363 . S
C1729 H1700 0.950 . S
C1729 C1728 1.397 . S
C1729 C1730 1.334 . S
C1730 H1701 0.950 . S
C1730 C1729 1.334 . S
C1730 C1731 1.287 . S
C1731 C1730 1.287 . S
C1731 C1732 1.524 . S
C1731 H1734 0.999 . S
C1732 H1702 0.950 . S
C1732 C1731 1.524 . S
C1732 C1733 1.415 . S
C1733 H1703 0.950 . S
C1733 C1728 1.363 . S
C1733 C1732 1.415 . S
H1734 C1731 0.999 . S
H1735 C1716 0.913 . S
H1736 C1754 0.951 . S
H1737 C1756 0.951 . S
H1738 C1758 0.950 . S
H1739 C1759 0.950 . S
H1740 C1761 0.950 . S
H1741 C1764 0.950 . S
H1742 C1765 0.950 . S
H1743 C1767 0.950 . S
H1744 C1768 0.950 . S
H1745 C1769 0.951 . S
H1746 C1771 0.951 . S
H1747 C1773 0.950 . S
H1748 C1774 0.950 . S
H1749 C1776 0.950 . S
H1750 C1779 0.950 . S
H1751 C1780 0.950 . S
H1752 C1782 0.950 . S
H1753 C1783 0.950 . S
C1754 H1736 0.951 . S
C1754 C1755 1.366 . S
C1754 C1756 1.388 . S
C1755 C1754 1.366 . S
C1755 C1759 1.385 . S
C1756 H1737 0.951 . S
C1756 C1754 1.388 . S
C1756 C1757 1.366 . S
C1757 C1756 1.366 . S
C1757 C1758 1.414 . S
C1757 C1760 1.499 . S
C1758 H1738 0.950 . S
C1758 C1757 1.414 . S
C1758 C1759 1.374 . S
C1759 H1739 0.950 . S
C1759 C1755 1.385 . S
C1759 C1758 1.374 . S
C1760 C1757 1.499 . S
C1760 C1761 1.373 . S
C1760 C1762 1.389 . S
C1761 H1740 0.950 . S
C1761 C1760 1.373 . S
C1761 C1777 1.377 . S
C1762 C1760 1.389 . S
C1762 C1763 1.524 . S
C1762 C1776 1.377 . S
C1763 C1762 1.524 . S
C1763 C1764 1.397 . S
C1763 C1768 1.363 . S
C1764 H1741 0.950 . S
C1764 C1763 1.397 . S
C1764 C1765 1.334 . S
C1765 H1742 0.950 . S
C1765 C1764 1.334 . S
C1765 C1766 1.287 . S
C1766 C1765 1.287 . S
C1766 C1767 1.524 . S
C1766 H1785 0.913 . S
C1767 H1743 0.950 . S
C1767 C1766 1.524 . S
C1767 C1768 1.415 . S
C1768 H1744 0.950 . S
C1768 C1763 1.363 . S
C1768 C1767 1.415 . S
C1769 H1745 0.951 . S
C1769 C1770 1.366 . S
C1769 C1771 1.388 . S
C1770 C1769 1.366 . S
C1770 C1774 1.385 . S
C1771 H1746 0.951 . S
C1771 C1769 1.388 . S
C1771 C1772 1.366 . S
C1772 C1771 1.366 . S
C1772 C1773 1.414 . S
C1772 C1775 1.499 . S
C1773 H1747 0.950 . S
C1773 C1772 1.414 . S
C1773 C1774 1.374 . S
C1774 H1748 0.950 . S
C1774 C1770 1.385 . S
C1774 C1773 1.374 . S
C1775 C1772 1.499 . S
C1775 C1776 1.373 . S
C1775 C1777 1.389 . S
C1776 H1749 0.950 . S
C1776 C1762 1.377 . S
C1776 C1775 1.373 . S
C1777 C1761 1.377 . S
C1777 C1775 1.389 . S
C1777 C1778 1.524 . S
C1778 C1777 1.524 . S
C1778 C1779 1.397 . S
C1778 C1783 1.363 . S
C1779 H1750 0.950 . S
C1779 C1778 1.397 . S
C1779 C1780 1.334 . S
C1780 H1751 0.950 . S
C1780 C1779 1.334 . S
C1780 C1781 1.287 . S
C1781 C1780 1.287 . S
C1781 C1782 1.524 . S
C1781 H1784 0.999 . S
C1782 H1752 0.950 . S
C1782 C1781 1.524 . S
C1782 C1783 1.415 . S
C1783 H1753 0.950 . S
C1783 C1778 1.363 . S
C1783 C1782 1.415 . S
H1784 C1781 0.999 . S
H1785 C1766 0.913 . S
H1786 C1804 0.951 . S
H1787 C1806 0.951 . S
H1788 C1808 0.950 . S
H1789 C1809 0.950 . S
H1790 C1811 0.950 . S
H1791 C1814 0.950 . S
H1792 C1815 0.950 . S
H1793 C1817 0.950 . S
H1794 C1818 0.950 . S
H1795 C1819 0.951 . S
H1796 C1821 0.951 . S
H1797 C1823 0.950 . S
H1798 C1824 0.950 . S
H1799 C1826 0.950 . S
H1800 C1829 0.950 . S
H1801 C1830 0.950 . S
H1802 C1832 0.950 . S
H1803 C1833 0.950 . S
C1804 H1786 0.951 . S
C1804 C1805 1.366 . S
C1804 C1806 1.388 . S
C1805 C1804 1.366 . S
C1805 C1809 1.385 . S
C1806 H1787 0.951 . S
C1806 C1804 1.388 . S
C1806 C1807 1.366 . S
C1807 C1806 1.366 . S
C1807 C1808 1.414 . S
C1807 C1810 1.499 . S
C1808 H1788 0.950 . S
C1808 C1807 1.414 . S
C1808 C1809 1.374 . S
C1809 H1789 0.950 . S
C1809 C1805 1.385 . S
C1809 C1808 1.374 . S
C1810 C1807 1.499 . S
C1810 C1811 1.373 . S
C1810 C1812 1.389 . S
C1811 H1790 0.950 . S
C1811 C1810 1.373 . S
C1811 C1827 1.377 . S
C1812 C1810 1.389 . S
C1812 C1813 1.524 . S
C1812 C1826 1.377 . S
C1813 C1812 1.524 . S
C1813 C1814 1.397 . S
C1813 C1818 1.363 . S
C1814 H1791 0.950 . S
C1814 C1813 1.397 . S
C1814 C1815 1.334 . S
C1815 H1792 0.950 . S
C1815 C1814 1.334 . S
C1815 C1816 1.287 . S
C1816 C1815 1.287 . S
C1816 C1817 1.524 . S
C1816 H1835 0.913 . S
C1817 H1793 0.950 . S
C1817 C1816 1.524 . S
C1817 C1818 1.415 . S
C1818 H1794 0.950 . S
C1818 C1813 1.363 . S
C1818 C1817 1.415 . S
C1819 H1795 0.951 . S
C1819 C1820 1.366 . S
C1819 C1821 1.388 . S
C1820 C1819 1.366 . S
C1820 C1824 1.385 . S
C1821 H1796 0.951 . S
C1821 C1819 1.388 . S
C1821 C1822 1.366 . S
C1822 C1821 1.366 . S
C1822 C1823 1.414 . S
C1822 C1825 1.499 . S
C1823 H1797 0.950 . S
C1823 C1822 1.414 . S
C1823 C1824 1.374 . S
C1824 H1798 0.950 . S
C1824 C1820 1.385 . S
C1824 C1823 1.374 . S
C1825 C1822 1.499 . S
C1825 C1826 1.373 . S
C1825 C1827 1.389 . S
C1826 H1799 0.950 . S
C1826 C1812 1.377 . S
C1826 C1825 1.373 . S
C1827 C1811 1.377 . S
C1827 C1825 1.389 . S
C1827 C1828 1.524 . S
C1828 C1827 1.524 . S
C1828 C1829 1.397 . S
C1828 C1833 1.363 . S
C1829 H1800 0.950 . S
C1829 C1828 1.397 . S
C1829 C1830 1.334 . S
C1830 H1801 0.950 . S
C1830 C1829 1.334 . S
C1830 C1831 1.287 . S
C1831 C1830 1.287 . S
C1831 C1832 1.524 . S
C1831 H1834 0.999 . S
C1832 H1802 0.950 . S
C1832 C1831 1.524 . S
C1832 C1833 1.415 . S
C1833 H1803 0.950 . S
C1833 C1828 1.363 . S
C1833 C1832 1.415 . S
H1834 C1831 0.999 . S
H1835 C1816 0.913 . S
C655 C39 1.211 . S
C670 C569 1.212 . S
C705 C92 1.388 . S
C720 C622 1.391 . S
C755 C357 1.388 . S
C770 C145 1.390 . S
C805 C198 1.212 . S
C820 C410 1.211 . S
C855 C463 1.386 . S
C870 C251 1.392 . S
C905 C516 1.387 . S
C920 C304 1.390 . S
C955 C347 1.255 . S
C970 C29 1.254 . S
C1005 C400 1.254 . S
C1020 C82 1.255 . S
C1055 C453 1.257 . S
C1070 C135 1.258 . S
C1105 C188 1.254 . S
C1120 C506 1.255 . S
C1155 C241 1.254 . S
C1170 C559 1.255 . S
C1205 C294 1.258 . S
C1220 C612 1.257 . S
C1255 C22 2.960 . S
C1270 C181 2.960 . S
C1305 C75 2.965 . S
C1320 C234 2.965 . S
C1355 C128 2.938 . S
C1370 C287 2.938 . S
C1405 C499 2.966 . S
C1420 C340 2.966 . S
C1455 C552 2.961 . S
C1470 C393 2.961 . S
C1505 C605 2.938 . S
C1520 C446 2.938 . S
C1555 C38 2.428 . S
C1570 C462 2.425 . S
C1605 C515 2.581 . S
C1620 C91 2.580 . S
C1655 C144 2.430 . S
C1670 C568 2.423 . S
C1705 C621 2.430 . S
C1720 C197 2.423 . S
C1755 C250 2.581 . S
C1770 C356 2.580 . S
C1805 C303 2.429 . S
C1820 C409 2.423 . S
