# Generated by pormake.
# Topology qtz-e, (6)-cn, num edge types: 1
# Building blocks:
#     Node 0, Type 0, BuildingBlock: CUWYAW_clean_sbu_0, # of connection points: 6
#     Node 1, Type 0, BuildingBlock: CUWYAW_clean_sbu_0, # of connection points: 6
#     Node 2, Type 0, BuildingBlock: CUWYAW_clean_sbu_0, # of connection points: 6
#     Node 3, Type 0, BuildingBlock: CUWYAW_clean_sbu_0, # of connection points: 6
#     Node 4, Type 0, BuildingBlock: CUWYAW_clean_sbu_0, # of connection points: 6
#     Node 5, Type 0, BuildingBlock: CUWYAW_clean_sbu_0, # of connection points: 6
#     Edge 6, Type (0, 0), BuildingBlock: EZIPEK_clean_linker_0, # of connection points: 2
#     Edge 7, Type (0, 0), BuildingBlock: EZIPEK_clean_linker_0, # of connection points: 2
#     Edge 8, Type (0, 0), BuildingBlock: EZIPEK_clean_linker_0, # of connection points: 2
#     Edge 9, Type (0, 0), BuildingBlock: EZIPEK_clean_linker_0, # of connection points: 2
#     Edge 10, Type (0, 0), BuildingBlock: EZIPEK_clean_linker_0, # of connection points: 2
#     Edge 11, Type (0, 0), BuildingBlock: EZIPEK_clean_linker_0, # of connection points: 2
#     Edge 12, Type (0, 0), BuildingBlock: EZIPEK_clean_linker_0, # of connection points: 2
#     Edge 13, Type (0, 0), BuildingBlock: EZIPEK_clean_linker_0, # of connection points: 2
#     Edge 14, Type (0, 0), BuildingBlock: EZIPEK_clean_linker_0, # of connection points: 2
#     Edge 15, Type (0, 0), BuildingBlock: EZIPEK_clean_linker_0, # of connection points: 2
#     Edge 16, Type (0, 0), BuildingBlock: EZIPEK_clean_linker_0, # of connection points: 2
#     Edge 17, Type (0, 0), BuildingBlock: EZIPEK_clean_linker_0, # of connection points: 2
#     Edge 18, Type (0, 0), BuildingBlock: EZIPEK_clean_linker_0, # of connection points: 2
#     Edge 19, Type (0, 0), BuildingBlock: EZIPEK_clean_linker_0, # of connection points: 2
#     Edge 20, Type (0, 0), BuildingBlock: EZIPEK_clean_linker_0, # of connection points: 2
#     Edge 21, Type (0, 0), BuildingBlock: EZIPEK_clean_linker_0, # of connection points: 2
#     Edge 22, Type (0, 0), BuildingBlock: EZIPEK_clean_linker_0, # of connection points: 2
#     Edge 23, Type (0, 0), BuildingBlock: EZIPEK_clean_linker_0, # of connection points: 2
# Relax obj value: 0.126
# Max RMSD: 0.210
# Mean RMSD: 0.209
data_MOF--net-qtz-e--node1-CUWYAW_clean_sbu_0--edge1-EZIPEK_clean_linker_0
_symmetry_space_group_name_H-M    P1
_symmetry_Int_Tables_number       1
_symmetry_cell_setting            triclinic
loop_
_symmetry_equiv_pos_as_xyz
'x, y, z'
_cell_length_a     19.035462
_cell_length_b     19.274218
_cell_length_c     41.912274
_cell_angle_alpha  90.096133
_cell_angle_beta   89.284356
_cell_angle_gamma 119.5045
loop_
_atom_site_label
_atom_site_type_symbol
_atom_site_fract_x
_atom_site_fract_y
_atom_site_fract_z
_atom_type_partial_charge
C0 C 0.15239 0.21067 1.02138 0.0
Eu1 Eu 0.17304 0.33804 0.05135 0.0
C2 C 0.16712 0.20077 0.98704 0.0
C3 C 0.18251 0.13958 0.97729 0.0
C4 C 0.20566 0.13588 0.94554 0.0
C5 C 0.21452 0.19373 0.92296 0.0
C6 C 0.19757 0.25394 0.93257 0.0
C7 C 0.17399 0.25732 0.96417 0.0
C8 C 0.08506 0.41502 0.04454 0.0
C9 C 0.25942 0.49197 1.00624 0.0
C10 C 0.28747 0.63725 0.10994 0.0
Eu11 Eu 0.2456 0.5035 0.08088 0.0
C12 C 0.27321 0.66225 0.14101 0.0
C13 C 0.33638 0.72855 0.15572 0.0
C14 C 0.32832 0.74549 0.18744 0.0
C15 C 0.25717 0.69581 0.20448 0.0
C16 C 0.19298 0.63128 0.18949 0.0
C17 C 0.20115 0.61474 0.15782 0.0
C18 C 0.35469 0.45779 0.06542 0.0
C19 C 0.14605 0.34599 0.12789 0.0
O20 O 0.2172 0.25681 0.03758 0.0
O21 O 0.0929 0.2245 0.02813 0.0
O22 O 0.09081 0.3698 1.02299 0.0
O23 O 0.12317 0.41353 0.06856 0.0
O24 O 0.2501 0.42092 1.01223 0.0
O25 O 0.24823 0.53338 0.02876 0.0
O26 O 0.22618 0.6039 0.09056 0.0
O27 O 0.32891 0.59988 0.11096 0.0
O28 O 0.36429 0.52801 0.06029 0.0
O29 O 0.28631 0.4134 0.07817 0.0
O30 O 0.19317 0.42464 0.12526 0.0
O31 O 0.12743 0.29857 0.10251 0.0
H32 H 0.17868 0.09583 0.99443 0.0
H33 H 0.219 0.08928 0.93881 0.0
H34 H 0.20456 0.29961 0.91576 0.0
H35 H 0.16309 0.30548 0.97092 0.0
H36 H 0.39282 0.76525 0.14306 0.0
H37 H 0.37812 0.79565 0.19897 0.0
H38 H 0.13774 0.59277 0.20253 0.0
H39 H 0.15253 0.56365 0.14675 0.0
C40 C 0.90188 0.14283 0.34969 0.0
Eu41 Eu 0.78933 0.15404 0.38229 0.0
C42 C 0.93614 0.16419 0.31662 0.0
C43 C 0.88999 0.16695 0.29117 0.0
C44 C 0.9243 0.19123 0.2605 0.0
C45 C 0.00547 0.21282 0.25447 0.0
C46 C 0.05118 0.20858 0.27974 0.0
C47 C 0.01689 0.18462 0.31046 0.0
C48 C 0.62923 0.04734 0.38559 0.0
C49 C 0.71632 0.23097 0.33127 0.0
C50 C 0.56481 0.23125 0.43438 0.0
Eu51 Eu 0.67626 0.21598 0.40451 0.0
C52 C 0.5542 0.23489 0.469 0.0
C53 C 0.62224 0.27726 0.48823 0.0
C54 C 0.6142 0.27428 0.5213 0.0
C55 C 0.53825 0.22852 0.53567 0.0
C56 C 0.46987 0.18614 0.51669 0.0
C57 C 0.4779 0.18912 0.48341 0.0
C58 C 0.83038 0.33033 0.39815 0.0
C59 C 0.749 0.13612 0.4565 0.0
O60 O 0.91661 0.20228 0.36873 0.0
O61 O 0.82746 0.08451 0.35274 0.0
O62 O 0.68359 0.02836 0.39338 0.0
O63 O 0.66186 0.11719 0.37537 0.0
O64 O 0.77498 0.21694 0.33932 0.0
O65 O 0.65892 0.22166 0.35172 0.0
O66 O 0.55409 0.16278 0.42409 0.0
O67 O 0.62883 0.29175 0.42167 0.0
O68 O 0.76913 0.3398 0.39203 0.0
O69 O 0.80824 0.26156 0.40959 0.0
O70 O 0.6959 0.15946 0.44938 0.0
O71 O 0.8005 0.13633 0.43486 0.0
H72 H 0.82768 0.15136 0.29507 0.0
H73 H 0.88794 0.19474 0.24157 0.0
H74 H 0.11403 0.2257 0.27585 0.0
H75 H 0.05395 0.18322 0.32958 0.0
H76 H 0.68205 0.3117 0.47776 0.0
H77 H 0.66722 0.30762 0.53576 0.0
H78 H 0.41078 0.15075 0.52764 0.0
H79 H 0.42504 0.15479 0.46898 0.0
C80 C 0.71384 0.91585 0.68065 0.0
Eu81 Eu 0.60795 0.79349 0.71424 0.0
C82 C 0.71681 0.95167 0.64885 0.0
C83 C 0.79144 0.00918 0.63586 0.0
C84 C 0.79641 0.04068 0.60518 0.0
C85 C 0.72682 0.01501 0.58674 0.0
C86 C 0.65188 0.95818 0.59981 0.0
C87 C 0.64691 0.92693 0.63058 0.0
C88 C 0.57429 0.64154 0.71476 0.0
C89 C 0.4394 0.70266 0.67041 0.0
C90 C 0.32797 0.53034 0.77116 0.0
Eu91 Eu 0.43346 0.66062 0.74391 0.0
C92 C 0.3065 0.52213 0.80499 0.0
C93 C 0.26289 0.44738 0.81982 0.0
C94 C 0.25167 0.44277 0.85299 0.0
C95 C 0.28592 0.51294 0.87123 0.0
C96 C 0.32829 0.58724 0.85617 0.0
C97 C 0.33801 0.59181 0.8233 0.0
C98 C 0.45897 0.81004 0.75253 0.0
C99 C 0.59602 0.75095 0.79017 0.0
O100 O 0.66733 0.92109 0.70277 0.0
O101 O 0.70943 0.84588 0.68047 0.0
O102 O 0.64817 0.7001 0.71732 0.0
O103 O 0.5256 0.66639 0.71009 0.0
O104 O 0.51741 0.75538 0.67333 0.0
O105 O 0.39374 0.65535 0.69369 0.0
O106 O 0.40277 0.54729 0.76569 0.0
O107 O 0.30767 0.57605 0.755 0.0
O108 O 0.39189 0.74697 0.76079 0.0
O109 O 0.50605 0.78848 0.74071 0.0
O110 O 0.51846 0.69897 0.78604 0.0
O111 O 0.64337 0.79748 0.76645 0.0
H112 H 0.84624 0.02908 0.64933 0.0
H113 H 0.85481 0.08429 0.5956 0.0
H114 H 0.59735 0.93747 0.58608 0.0
H115 H 0.58857 0.88287 0.63985 0.0
H116 H 0.23938 0.39316 0.80595 0.0
H117 H 0.21896 0.38498 0.86453 0.0
H118 H 0.35502 0.6417 0.86998 0.0
H119 H 0.37236 0.64998 0.81222 0.0
C120 C 0.79877 0.747 1.01448 0.0
Eu121 Eu 0.82514 0.64681 0.04751 0.0
C122 C 0.77416 0.7527 0.9814 0.0
C123 C 0.77887 0.70595 0.95654 0.0
C124 C 0.75434 0.71129 0.92557 0.0
C125 C 0.72499 0.76384 0.91867 0.0
C126 C 0.72105 0.81112 0.94347 0.0
C127 C 0.74543 0.80561 0.97447 0.0
C128 C 0.95181 0.61964 0.04322 0.0
C129 C 0.75571 0.48397 1.00317 0.0
C130 C 0.83249 0.37856 0.10166 0.0
Eu131 Eu 0.80077 0.4814 0.07652 0.0
C132 C 0.80752 0.34211 0.1335 0.0
C133 C 0.7281 0.31516 0.14459 0.0
C134 C 0.70796 0.29501 0.17657 0.0
C135 C 0.76699 0.30222 0.19794 0.0
C136 C 0.84561 0.32637 0.1869 0.0
C137 C 0.86565 0.34607 0.15474 0.0
C138 C 0.66457 0.48833 0.0852 0.0
C139 C 0.85842 0.64085 0.12302 0.0
O140 O 0.74417 0.69126 0.03298 0.0
O141 O 0.87008 0.75348 1.0177 0.0
O142 O 0.96181 0.69114 0.04664 0.0
O143 O 0.87859 0.57001 0.04088 0.0
O144 O 0.77312 0.5591 1.0068 0.0
O145 O 0.76507 0.44199 0.026 0.0
O146 O 0.88358 0.4555 0.1019 0.0
O147 O 0.7743 0.35843 0.08099 0.0
O148 O 0.67249 0.4286 0.09469 0.0
O149 O 0.73063 0.54171 0.07341 0.0
O150 O 0.84521 0.56709 0.11855 0.0
O151 O 0.85074 0.68345 0.09967 0.0
H152 H 0.80099 0.66487 0.96106 0.0
H153 H 0.75701 0.67336 0.90704 0.0
H154 H 0.69761 0.85118 0.93896 0.0
H155 H 0.74115 0.84229 0.99317 0.0
H156 H 0.68205 0.31227 0.12887 0.0
H157 H 0.64688 0.27561 0.18484 0.0
H158 H 0.89141 0.33109 0.20323 0.0
H159 H 0.92698 0.36715 0.14663 0.0
C160 C 0.0278 0.82076 0.35221 0.0
Eu161 Eu 0.13653 0.8124 0.38705 0.0
C162 C 0.00063 0.79869 0.31846 0.0
C163 C 0.04672 0.84731 0.29261 0.0
C164 C 0.02223 0.82524 0.26099 0.0
C165 C 0.95068 0.75448 0.25433 0.0
C166 C 0.90388 0.70623 0.27996 0.0
C167 C 0.92844 0.72815 0.31164 0.0
C168 C 0.29434 0.92513 0.39029 0.0
C169 C 0.22466 0.74846 0.33709 0.0
C170 C 0.36869 0.7501 0.43918 0.0
Eu171 Eu 0.25438 0.76003 0.41039 0.0
C172 C 0.37446 0.73566 0.47295 0.0
C173 C 0.30345 0.69599 0.49148 0.0
C174 C 0.30765 0.68699 0.52416 0.0
C175 C 0.38287 0.71829 0.53868 0.0
C176 C 0.45411 0.75843 0.52035 0.0
C177 C 0.44988 0.76723 0.48748 0.0
C178 C 0.10524 0.63834 0.40196 0.0
C179 C 0.16961 0.83166 0.46121 0.0
O180 O 0.01053 0.76255 0.37239 0.0
O181 O 0.10042 0.88078 0.35647 0.0
O182 O 0.23727 0.94088 0.39786 0.0
O183 O 0.26525 0.85571 0.38059 0.0
O184 O 0.15858 0.75079 0.34494 0.0
O185 O 0.28217 0.76564 0.35796 0.0
O186 O 0.37156 0.81787 0.43309 0.0
O187 O 0.3111 0.69037 0.42383 0.0
O188 O 0.17056 0.63482 0.39707 0.0
O189 O 0.12005 0.70465 0.41407 0.0
O190 O 0.22629 0.81221 0.45486 0.0
O191 O 0.11856 0.82818 0.43925 0.0
H192 H 0.10237 0.90224 0.29673 0.0
H193 H 0.05958 0.86315 0.24164 0.0
H194 H 0.84879 0.65103 0.27542 0.0
H195 H 0.89123 0.68938 0.33083 0.0
H196 H 0.24475 0.67289 0.48071 0.0
H197 H 0.25243 0.65618 0.53819 0.0
H198 H 0.51253 0.78307 0.53154 0.0
H199 H 0.50506 0.79944 0.47352 0.0
C200 C 0.21395 0.04086 0.68741 0.0
Eu201 Eu 0.33299 0.15167 0.72005 0.0
C202 C 0.20494 0.00955 0.65423 0.0
C203 C 0.12927 0.97436 0.63946 0.0
C204 C 0.12004 0.94456 0.60821 0.0
C205 C 0.18631 0.94903 0.59119 0.0
C206 C 0.26196 -0.01564 0.60585 0.0
C207 C 0.27121 0.0146 0.6369 0.0
C208 C 0.38857 0.30951 0.71957 0.0
C209 C 0.49254 0.22249 0.67128 0.0
C210 C 0.63319 0.36206 0.77324 0.0
Eu211 Eu 0.50445 0.25624 0.74497 0.0
C212 C 0.65317 0.37229 0.80694 0.0
C213 C 0.71646 0.44427 0.81799 0.0
C214 C 0.73135 0.45511 0.85063 0.0
C215 C 0.68236 0.39425 0.87221 0.0
C216 C 0.61977 0.32192 0.86109 0.0
C217 C 0.60556 0.31077 0.82853 0.0
C218 C 0.45632 0.10099 0.74395 0.0
C219 C 0.34494 0.20139 0.79378 0.0
O220 O 0.25925 0.02666 0.70659 0.0
O221 O 0.22589 0.11343 0.69054 0.0
O222 O 0.31285 0.25886 0.72533 0.0
O223 O 0.42731 0.27493 0.71246 0.0
O224 O 0.41698 0.16775 0.67765 0.0
O225 O 0.53849 0.27322 0.6931 0.0
O226 O 0.57381 0.37428 0.76551 0.0
O227 O 0.62705 0.29731 0.76056 0.0
O228 O 0.52944 0.15617 0.73779 0.0
O229 O 0.41163 0.12925 0.75235 0.0
O230 O 0.42355 0.24456 0.78781 0.0
O231 O 0.29657 0.15024 0.77208 0.0
H232 H 0.07721 0.96993 0.65209 0.0
H233 H 0.06115 0.91781 0.59732 0.0
H234 H 0.31405 -0.01102 0.59315 0.0
H235 H 0.33041 0.04199 0.64714 0.0
H236 H 0.75319 0.49222 0.80151 0.0
H237 H 0.77954 0.51144 0.85916 0.0
H238 H 0.58132 0.2749 0.87764 0.0
H239 H 0.55616 0.2549 0.82023 0.0
C240 C 0.23155 0.78736 0.28016 0.0
C241 C 0.23749 0.73694 0.30337 0.0
C242 C 0.26467 0.6647 0.26157 0.0
C243 C 0.25058 0.70997 0.23848 0.0
N244 N 0.207 0.80429 0.225 0.0
N245 N 0.24678 0.61981 0.31648 0.0
C246 C 0.23007 0.76846 0.24752 0.0
C247 C 0.25099 0.67361 0.29424 0.0
N248 N 0.23053 0.85506 0.2892 0.0
N249 N 0.29225 0.61423 0.25227 0.0
H250 H 0.23635 0.62401 0.34069 0.0
H251 H 0.24688 0.56732 0.31066 0.0
H252 H 0.30149 0.60496 0.22841 0.0
H253 H 0.31191 0.58622 0.26822 0.0
H254 H 0.23548 0.89842 0.2731 0.0
H255 H 0.23231 0.87194 0.31291 0.0
H256 H 0.18247 0.84064 0.23066 0.0
H257 H 0.20589 0.79241 0.20066 0.0
C258 C 0.53009 0.2981 0.6196 0.0
C259 C 0.52054 0.23183 0.63769 0.0
C260 C 0.52871 0.16538 0.58899 0.0
C261 C 0.53107 0.22858 0.57081 0.0
N262 N 0.5257 0.35079 0.56768 0.0
N263 N 0.53478 0.11526 0.6415 0.0
C264 C 0.53044 0.29425 0.58581 0.0
C265 C 0.52632 0.16872 0.62286 0.0
N266 N 0.54145 0.36573 0.63463 0.0
N267 N 0.52689 0.10167 0.57376 0.0
H268 H 0.53982 0.12124 0.66624 0.0
H269 H 0.54474 0.07026 0.63276 0.0
H270 H 0.53165 0.09891 0.54902 0.0
H271 H 0.51697 0.04976 0.58526 0.0
H272 H 0.55855 0.4193 0.62285 0.0
H273 H 0.54166 0.37138 0.6593 0.0
H274 H 0.51461 0.39455 0.57708 0.0
H275 H 0.52628 0.35046 0.54279 0.0
C276 C 0.23709 0.54815 0.95557 0.0
C277 C 0.28284 0.52199 0.97314 0.0
C278 C 0.33361 0.49327 0.92384 0.0
C279 C 0.28106 0.51095 0.90637 0.0
N280 N 0.17692 0.5476 0.90486 0.0
N281 N 0.39791 0.50265 0.97438 0.0
C282 C 0.23175 0.53717 0.922 0.0
C283 C 0.33814 0.5043 0.95727 0.0
N284 N 0.20252 0.58709 0.97054 0.0
N285 N 0.37714 0.46356 0.90867 0.0
H286 H 0.40512 0.51626 0.99864 0.0
H287 H 0.44505 0.49712 0.9642 0.0
H288 H 0.37851 0.45783 0.88397 0.0
H289 H 0.40838 0.44006 0.92064 0.0
H290 H 0.17453 0.6139 0.95852 0.0
H291 H 0.20974 0.60124 0.99464 0.0
H292 H 0.13292 0.55789 0.9152 0.0
H293 H 0.17058 0.53893 0.88025 0.0
C294 C 0.73684 0.3251 0.28641 0.0
C295 C 0.71186 0.2466 0.29716 0.0
C296 C 0.71989 0.20429 0.24276 0.0
C297 C 0.74555 0.2828 0.23195 0.0
N298 N 0.76762 0.41551 0.24144 0.0
N299 N 0.66335 0.10814 0.28583 0.0
C300 C 0.75029 0.3425 0.25318 0.0
C301 C 0.69804 0.18514 0.27527 0.0
N302 N 0.75111 0.3834 0.30814 0.0
N303 N 0.71939 0.14893 0.22212 0.0
H304 H 0.6488 0.09318 0.30976 0.0
H305 H 0.64344 0.05894 0.27092 0.0
H306 H 0.73242 0.15988 0.1978 0.0
H307 H 0.71125 0.09374 0.22928 0.0
H308 H 0.77891 0.44386 0.3026 0.0
H309 H 0.73799 0.37138 0.3324 0.0
H310 H 0.76466 0.45932 0.25496 0.0
H311 H 0.78076 0.43108 0.2174 0.0
C312 C 0.39847 0.63354 0.61807 0.0
C313 C 0.40438 0.69422 0.63863 0.0
C314 C 0.38241 0.76329 0.59451 0.0
C315 C 0.38641 0.7079 0.57327 0.0
N316 N 0.39701 0.58988 0.56365 0.0
N317 N 0.36899 0.79524 0.64945 0.0
C318 C 0.39284 0.64205 0.58474 0.0
C319 C 0.38672 0.75307 0.62775 0.0
N320 N 0.39444 0.56641 0.63068 0.0
N321 N 0.37794 0.82722 0.58282 0.0
H322 H 0.36611 0.78365 0.67389 0.0
H323 H 0.3481 0.83413 0.64331 0.0
H324 H 0.37294 0.83571 0.55856 0.0
H325 H 0.3842 0.87446 0.59689 0.0
H326 H 0.38171 0.51599 0.61741 0.0
H327 H 0.3958 0.55803 0.65517 0.0
H328 H 0.41147 0.54634 0.57009 0.0
H329 H 0.3902 0.59268 0.53911 0.0
C330 C 0.76493 0.40957 0.95503 0.0
C331 C 0.72796 0.44853 0.97133 0.0
C332 C 0.65825 0.44829 0.92258 0.0
C333 C 0.69382 0.40817 0.90673 0.0
N334 N 0.76501 0.33395 0.90877 0.0
N335 N 0.62344 0.48549 0.9729 0.0
C336 C 0.74154 0.38292 0.92336 0.0
C337 C 0.66955 0.46179 0.95578 0.0
N338 N 0.82632 0.4029 0.96861 0.0
N339 N 0.61539 0.47539 0.90574 0.0
H340 H 0.62937 0.49608 0.99734 0.0
H341 H 0.57397 0.48738 0.96358 0.0
H342 H 0.60364 0.46478 0.88146 0.0
H343 H 0.5961 0.5131 0.9153 0.0
H344 H 0.86147 0.38394 0.95619 0.0
H345 H 0.8481 0.42285 0.99133 0.0
H346 H 0.79141 0.30564 0.92087 0.0
H347 H 0.75203 0.31608 0.88507 0.0
C348 C 0.45769 0.41906 0.05077 0.0
C349 C 0.42663 0.45221 0.07311 0.0
C350 C 0.55386 0.51379 0.10207 0.0
C351 C 0.58457 0.47955 0.08002 0.0
N352 N 0.55813 0.38062 0.03921 0.0
N353 N 0.43513 0.51209 0.12449 0.0
C354 C 0.53419 0.42624 0.05614 0.0
C355 C 0.47176 0.49385 0.1002 0.0
N356 N 0.41537 0.38291 1.02394 0.0
N357 N 0.60298 0.56474 0.12488 0.0
H358 H 0.37394 0.49486 0.1244 0.0
H359 H 0.46267 0.5366 0.14608 0.0
H360 H 0.66209 0.57654 0.12801 0.0
H361 H 0.58699 0.59878 0.13939 0.0
H362 H 0.43973 0.36705 1.00473 0.0
H363 H 0.35741 0.37352 1.01999 0.0
H364 H 0.51985 0.33435 1.02431 0.0
H365 H 0.61461 0.38525 0.04145 0.0
C366 C 0.01265 0.51222 0.43077 0.0
C367 C 0.02815 0.56344 0.40412 0.0
C368 C 0.93624 0.4503 0.37212 0.0
C369 C 0.91143 0.40106 0.39955 0.0
N370 N 0.92421 0.38483 0.45591 0.0
N371 N -0.00816 0.58391 0.35164 0.0
C372 C 0.9494 0.43166 0.42921 0.0
C373 C -0.01417 0.5332 0.37548 0.0
N374 N 0.06013 0.53993 0.4571 0.0
N375 N 0.91363 0.41716 0.34263 0.0
H376 H 0.02403 0.64528 0.35449 0.0
H377 H 0.95706 0.56549 0.33111 0.0
H378 H 0.88136 0.35574 0.33957 0.0
H379 H 0.9352 0.44943 0.32143 0.0
H380 H 0.05839 0.50341 0.47573 0.0
H381 H 0.10466 0.59936 0.45945 0.0
H382 H 0.94131 0.40688 0.4789 0.0
H383 H 0.88477 0.32379 0.4551 0.0
C384 C 0.4457 -0.00887 0.77858 0.0
C385 C 0.43805 0.01863 0.74821 0.0
C386 C 0.46801 0.92422 0.72199 0.0
C387 C 0.46722 0.88986 0.75181 0.0
N388 N 0.4485 0.88554 0.80902 0.0
N389 N 0.41592 -0.00521 0.6922 0.0
C390 C 0.45342 0.92152 0.78037 0.0
C391 C 0.44061 0.97947 0.72035 0.0
N392 N 0.44879 0.03307 0.80533 0.0
N393 N 0.49745 0.90682 0.69529 0.0
H394 H 0.3935 0.03407 0.69102 0.0
H395 H 0.4101 0.96288 0.67137 0.0
H396 H 0.52116 0.8689 0.6958 0.0
H397 H 0.50653 0.93707 0.67369 0.0
H398 H 0.46363 0.02124 0.82774 0.0
H399 H 0.43999 0.08236 0.80475 0.0
H400 H 0.42961 0.90037 0.83011 0.0
H401 H 0.46049 0.83847 0.8114 0.0
C402 C 0.51002 0.51492 0.68545 0.0
C403 C 0.54785 0.55634 0.71356 0.0
C404 C 0.46622 0.43902 0.74579 0.0
C405 C 0.42713 0.39655 0.71813 0.0
N406 N 0.4057 0.39242 0.66164 0.0
N407 N 0.5866 0.55024 0.76702 0.0
C408 C 0.44773 0.43401 0.68776 0.0
C409 C 0.53399 0.51582 0.74267 0.0
N410 N 0.53672 0.55318 0.65677 0.0
N411 N 0.43512 0.40812 0.77512 0.0
H412 H 0.63715 0.60691 0.76478 0.0
H413 H 0.58382 0.5193 0.78782 0.0
H414 H 0.38091 0.35474 0.77775 0.0
H415 H 0.45719 0.44057 0.79607 0.0
H416 H 0.51672 0.52623 0.63473 0.0
H417 H 0.58389 0.61199 0.65524 0.0
H418 H 0.41507 0.41597 0.6387 0.0
H419 H 0.35814 0.33389 0.66332 0.0
C420 C 0.03322 0.49315 1.01057 0.0
C421 C 0.05357 0.47258 0.04066 0.0
C422 C 0.04929 0.58595 0.065 0.0
C423 C 0.01431 0.59642 0.03783 0.0
N424 N -0.01665 0.57167 0.98257 0.0
N425 N 0.04334 0.48239 0.0978 0.0
C426 C 0.01059 0.55403 1.00971 0.0
C427 C 0.05247 0.515 0.06825 0.0
N428 N 0.03245 0.4539 0.98329 0.0
N429 N 0.07533 0.64161 0.08845 0.0
H430 H 0.02656 0.42251 0.10076 0.0
H431 H 0.03595 0.50935 0.1182 0.0
H432 H 0.07251 0.69414 0.08611 0.0
H433 H 0.1056 0.63792 0.10838 0.0
H434 H 0.02714 0.47211 0.96055 0.0
H435 H 0.03693 0.4025 0.98264 0.0
H436 H 0.97344 0.54141 0.9611 0.0
H437 H 0.97027 0.61832 0.98186 0.0
C438 C 0.42337 -0.01463 0.41984 0.0
C439 C 0.38255 0.97687 0.39084 0.0
C440 C 0.49689 -0.01424 0.36061 0.0
C441 C 0.54049 -0.00047 0.38899 0.0
N442 N 0.54366 -4e-05 0.44612 0.0
N443 N 0.3874 -0.00969 0.33392 0.0
C444 C 0.50305 -0.00457 0.41892 0.0
C445 C 0.42208 -0.0157 0.36131 0.0
N446 N 0.38505 -0.01713 0.44792 0.0
N447 N 0.5258 0.96998 0.33324 0.0
H448 H 0.33391 -0.00701 0.33446 0.0
H449 H 0.41568 0.00131 0.3116 0.0
H450 H 0.5785 0.96582 0.33308 0.0
H451 H 0.49368 0.95288 0.31204 0.0
H452 H 0.40911 -0.01304 0.47042 0.0
H453 H 0.32873 0.97967 0.44837 0.0
H454 H 0.52263 -3e-05 0.46912 0.0
H455 H 0.59831 -0.00016 0.44532 0.0
C456 C 0.36319 0.25125 0.85246 0.0
C457 C 0.31141 0.20918 0.82634 0.0
C458 C 0.19441 0.16217 0.86375 0.0
C459 C 0.24726 0.19565 0.88988 0.0
N460 N 0.38291 0.26335 0.90969 0.0
N461 N 0.17678 0.16242 0.80665 0.0
C462 C 0.33176 0.23719 0.88434 0.0
C463 C 0.22636 0.17432 0.83182 0.0
N464 N 0.43966 0.31272 0.8471 0.0
N465 N 0.11329 0.11705 0.86949 0.0
H466 H 0.19881 0.18438 0.78384 0.0
H467 H 0.11539 0.1431 0.80908 0.0
H468 H 0.08787 0.10843 0.89234 0.0
H469 H 0.07213 0.0827 0.85211 0.0
H470 H 0.47614 0.34949 0.86515 0.0
H471 H 0.46232 0.33781 0.8249 0.0
H472 H 0.4447 0.28402 0.90745 0.0
H473 H 0.363 0.25803 0.93332 0.0
C474 C 0.06452 0.20245 0.20076 0.0
C475 C 0.04418 0.24671 0.2225 0.0
C476 C 0.08328 0.35113 0.18175 0.0
C477 C 0.11108 0.31105 0.16066 0.0
N478 N 0.14565 0.20658 0.15491 0.0
N479 N 0.05376 0.37251 0.23611 0.0
C480 C 0.10631 0.23864 0.17147 0.0
C481 C 0.05992 0.32398 0.21373 0.0
N482 N 0.04271 0.1252 0.20777 0.0
N483 N 0.07374 0.41241 0.17086 0.0
H484 H 0.03652 0.35499 0.25977 0.0
H485 H 0.07358 0.43272 0.23202 0.0
H486 H 0.08294 0.42975 0.14718 0.0
H487 H 0.04669 0.43883 0.18417 0.0
H488 H 0.04786 0.0871 0.19143 0.0
H489 H 0.01318 0.09732 0.22901 0.0
H490 H 0.15048 0.15821 0.16322 0.0
H491 H 0.18146 0.23363 0.13478 0.0
C492 C 0.73986 0.00324 0.52708 0.0
C493 C 0.73305 0.04612 0.55339 0.0
C494 C 0.74832 0.15251 0.51669 0.0
C495 C 0.74745 0.10633 0.48992 0.0
N496 N 0.72763 0.97996 0.47014 0.0
N497 N 0.71858 0.15588 0.57303 0.0
C498 C 0.73973 0.02975 0.49526 0.0
C499 C 0.73372 0.11911 0.54809 0.0
N500 N 0.74784 0.93752 0.53248 0.0
N501 N 0.76693 0.22997 0.51237 0.0
H502 H 0.70887 0.13396 0.59636 0.0
H503 H 0.70885 0.20416 0.5702 0.0
H504 H 0.77839 0.25715 0.49004 0.0
H505 H 0.77851 0.26958 0.5311 0.0
H506 H 0.76295 0.90929 0.51465 0.0
H507 H 0.74568 0.91477 0.55526 0.0
H508 H 0.71127 0.92016 0.47285 0.0
H509 H 0.72648 -0.0043 0.44653 0.0
C510 C 0.59675 0.68693 0.84396 0.0
C511 C 0.62931 0.75584 0.82347 0.0
C512 C 0.72933 0.83001 0.8653 0.0
C513 C 0.69141 0.76343 0.88628 0.0
N514 N 0.57296 0.63826 0.89838 0.0
N515 N 0.71089 0.89987 0.82111 0.0
C516 C 0.62023 0.69509 0.87645 0.0
C517 C 0.69153 0.82946 0.83588 0.0
N518 N 0.54629 0.61224 0.83265 0.0
N519 N 0.80188 0.89369 0.87319 0.0
H520 H 0.6792 0.90387 0.80178 0.0
H521 H 0.75096 0.9552 0.83071 0.0
H522 H 0.83088 0.89638 0.89449 0.0
H523 H 0.83615 0.94027 0.85735 0.0
H524 H 0.52914 0.5607 0.84607 0.0
H525 H 0.52853 0.59957 0.80916 0.0
H526 H 0.51564 0.59189 0.8931 0.0
H527 H 0.5869 0.64223 0.92255 0.0
C528 C 0.87897 0.75159 0.20294 0.0
C529 C 0.92753 0.72859 0.22044 0.0
C530 C 0.94177 0.66159 0.17293 0.0
C531 C 0.88523 0.67609 0.15603 0.0
N532 N 0.79091 0.7264 0.15798 0.0
N533 N -0.00449 0.65437 0.22481 0.0
C534 C 0.85184 0.71947 0.17176 0.0
C535 C 0.9559 0.6811 0.20595 0.0
N536 N 0.85929 0.80483 0.21604 0.0
N537 N -0.01427 0.63367 0.15703 0.0
H538 H 0.01384 0.61383 0.21766 0.0
H539 H 0.01384 0.61383 0.21766 0.0
H540 H -0.02009 0.62173 0.1328 0.0
H541 H 0.03435 0.631 0.16681 0.0
H542 H 0.83223 0.83153 0.20329 0.0
H543 H 0.87586 0.82711 0.23908 0.0
H544 H 0.75783 0.74852 0.16991 0.0
H545 H 0.76811 0.70403 0.1356 0.0
C546 C 0.19409 0.96983 0.53144 0.0
C547 C 0.17711 0.91757 0.55782 0.0
C548 C 0.15123 0.80787 0.52092 0.0
C549 C 0.16557 0.85947 0.49438 0.0
N550 N 0.18928 -0.01321 0.47432 0.0
N551 N 0.13135 0.78537 0.57829 0.0
C552 C 0.18323 0.9395 0.49966 0.0
C553 C 0.15329 0.83608 0.55269 0.0
N554 N 0.22344 0.0494 0.53678 0.0
N555 N 0.13589 0.73167 0.51567 0.0
H556 H 0.13481 0.80441 0.60182 0.0
H557 H 0.10523 0.72378 0.57646 0.0
H558 H 0.12624 0.70666 0.49299 0.0
H559 H 0.13533 0.69379 0.53344 0.0
H560 H 0.24736 0.09276 0.51896 0.0
H561 H 0.22922 0.07338 0.55956 0.0
H562 H 0.19227 0.04195 0.47658 0.0
H563 H 0.18565 0.96896 0.4507 0.0
loop_
_geom_bond_atom_site_label_1
_geom_bond_atom_site_label_2
_geom_bond_distance
_geom_bond_site_symmetry_2
_ccdc_geom_bond_type
C0 Eu1 2.835 1_556 S
C0 C2 1.500 . S
C0 O20 1.257 . S
C0 O21 1.260 . S
Eu1 C0 2.835 1_554 S
Eu1 O20 2.473 1_554 S
Eu1 O21 2.480 1_554 S
Eu1 O22 2.430 . S
Eu1 O23 2.670 . S
Eu1 O24 2.394 1_554 S
Eu1 O29 2.355 . S
Eu1 O31 2.374 . S
C2 C0 1.500 . S
C2 C3 1.377 . S
C2 C7 1.377 . S
C3 C2 1.377 . S
C3 C4 1.395 . S
C3 H32 0.931 . S
C4 C3 1.395 . S
C4 C5 1.383 . S
C4 H33 0.931 . S
C5 C4 1.383 . S
C5 C6 1.394 . S
C6 C5 1.394 . S
C6 C7 1.378 . S
C6 H34 0.931 . S
C7 C2 1.377 . S
C7 C6 1.378 . S
C7 H35 0.931 . S
C8 O22 1.259 . S
C8 O23 1.270 . S
C9 O24 1.251 . S
C9 O25 1.251 1_556 S
C10 Eu11 2.835 . S
C10 C12 1.500 . S
C10 O26 1.257 . S
C10 O27 1.260 . S
Eu11 C10 2.835 . S
Eu11 O23 2.355 . S
Eu11 O25 2.374 . S
Eu11 O26 2.473 . S
Eu11 O27 2.480 . S
Eu11 O28 2.430 . S
Eu11 O29 2.670 . S
Eu11 O30 2.394 . S
C12 C10 1.500 . S
C12 C13 1.377 . S
C12 C17 1.377 . S
C13 C12 1.377 . S
C13 C14 1.395 . S
C13 H36 0.931 . S
C14 C13 1.395 . S
C14 C15 1.383 . S
C14 H37 0.931 . S
C15 C14 1.383 . S
C15 C16 1.394 . S
C16 C15 1.394 . S
C16 C17 1.378 . S
C16 H38 0.931 . S
C17 C12 1.377 . S
C17 C16 1.378 . S
C17 H39 0.931 . S
C18 O28 1.259 . S
C18 O29 1.270 . S
C19 O30 1.251 . S
C19 O31 1.251 . S
O20 C0 1.257 . S
O20 Eu1 2.473 1_556 S
O21 C0 1.260 . S
O21 Eu1 2.480 1_556 S
O22 Eu1 2.430 . S
O22 C8 1.259 . S
O23 Eu1 2.670 . S
O23 C8 1.270 . S
O23 Eu11 2.355 . S
O24 Eu1 2.394 1_556 S
O24 C9 1.251 . S
O25 C9 1.251 1_554 S
O25 Eu11 2.374 . S
O26 C10 1.257 . S
O26 Eu11 2.473 . S
O27 C10 1.260 . S
O27 Eu11 2.480 . S
O28 Eu11 2.430 . S
O28 C18 1.259 . S
O29 Eu1 2.355 . S
O29 Eu11 2.670 . S
O29 C18 1.270 . S
O30 Eu11 2.394 . S
O30 C19 1.251 . S
O31 Eu1 2.374 . S
O31 C19 1.251 . S
H32 C3 0.931 . S
H33 C4 0.931 . S
H34 C6 0.931 . S
H35 C7 0.931 . S
H36 C13 0.931 . S
H37 C14 0.931 . S
H38 C16 0.931 . S
H39 C17 0.931 . S
C40 Eu41 2.835 . S
C40 C42 1.500 . S
C40 O60 1.257 . S
C40 O61 1.260 . S
Eu41 C40 2.835 . S
Eu41 O60 2.473 . S
Eu41 O61 2.480 . S
Eu41 O62 2.430 . S
Eu41 O63 2.670 . S
Eu41 O64 2.394 . S
Eu41 O69 2.355 . S
Eu41 O71 2.374 . S
C42 C40 1.500 . S
C42 C43 1.377 . S
C42 C47 1.377 1_655 S
C43 C42 1.377 . S
C43 C44 1.395 . S
C43 H72 0.931 . S
C44 C43 1.395 . S
C44 C45 1.383 1_655 S
C44 H73 0.931 . S
C45 C44 1.383 1_455 S
C45 C46 1.394 . S
C46 C45 1.394 . S
C46 C47 1.378 . S
C46 H74 0.931 . S
C47 C42 1.377 1_455 S
C47 C46 1.378 . S
C47 H75 0.931 . S
C48 O62 1.259 . S
C48 O63 1.270 . S
C49 O64 1.251 . S
C49 O65 1.251 . S
C50 Eu51 2.835 . S
C50 C52 1.500 . S
C50 O66 1.257 . S
C50 O67 1.260 . S
Eu51 C50 2.835 . S
Eu51 O63 2.355 . S
Eu51 O65 2.374 . S
Eu51 O66 2.473 . S
Eu51 O67 2.480 . S
Eu51 O68 2.430 . S
Eu51 O69 2.670 . S
Eu51 O70 2.394 . S
C52 C50 1.500 . S
C52 C53 1.377 . S
C52 C57 1.377 . S
C53 C52 1.377 . S
C53 C54 1.395 . S
C53 H76 0.931 . S
C54 C53 1.395 . S
C54 C55 1.383 . S
C54 H77 0.931 . S
C55 C54 1.383 . S
C55 C56 1.394 . S
C56 C55 1.394 . S
C56 C57 1.378 . S
C56 H78 0.931 . S
C57 C52 1.377 . S
C57 C56 1.378 . S
C57 H79 0.931 . S
C58 O68 1.259 . S
C58 O69 1.270 . S
C59 O70 1.251 . S
C59 O71 1.251 . S
O60 C40 1.257 . S
O60 Eu41 2.473 . S
O61 C40 1.260 . S
O61 Eu41 2.480 . S
O62 Eu41 2.430 . S
O62 C48 1.259 . S
O63 Eu41 2.670 . S
O63 C48 1.270 . S
O63 Eu51 2.355 . S
O64 Eu41 2.394 . S
O64 C49 1.251 . S
O65 C49 1.251 . S
O65 Eu51 2.374 . S
O66 C50 1.257 . S
O66 Eu51 2.473 . S
O67 C50 1.260 . S
O67 Eu51 2.480 . S
O68 Eu51 2.430 . S
O68 C58 1.259 . S
O69 Eu41 2.355 . S
O69 Eu51 2.670 . S
O69 C58 1.270 . S
O70 Eu51 2.394 . S
O70 C59 1.251 . S
O71 Eu41 2.374 . S
O71 C59 1.251 . S
H72 C43 0.931 . S
H73 C44 0.931 . S
H74 C46 0.931 . S
H75 C47 0.931 . S
H76 C53 0.931 . S
H77 C54 0.931 . S
H78 C56 0.931 . S
H79 C57 0.931 . S
C80 Eu81 2.835 . S
C80 C82 1.500 . S
C80 O100 1.257 . S
C80 O101 1.260 . S
Eu81 C80 2.835 . S
Eu81 O100 2.473 . S
Eu81 O101 2.480 . S
Eu81 O102 2.430 . S
Eu81 O103 2.670 . S
Eu81 O104 2.394 . S
Eu81 O109 2.355 . S
Eu81 O111 2.374 . S
C82 C80 1.500 . S
C82 C83 1.377 . S
C82 C87 1.377 1_565 S
C83 C82 1.377 . S
C83 C84 1.395 . S
C83 H112 0.931 . S
C84 C83 1.395 . S
C84 C85 1.383 1_565 S
C84 H113 0.931 . S
C85 C84 1.383 1_545 S
C85 C86 1.394 . S
C86 C85 1.394 . S
C86 C87 1.378 . S
C86 H114 0.931 . S
C87 C82 1.377 1_545 S
C87 C86 1.378 . S
C87 H115 0.931 . S
C88 O102 1.259 . S
C88 O103 1.270 . S
C89 O104 1.251 . S
C89 O105 1.251 . S
C90 Eu91 2.835 . S
C90 C92 1.500 . S
C90 O106 1.257 . S
C90 O107 1.260 . S
Eu91 C90 2.835 . S
Eu91 O103 2.355 . S
Eu91 O105 2.374 . S
Eu91 O106 2.473 . S
Eu91 O107 2.480 . S
Eu91 O108 2.430 . S
Eu91 O109 2.670 . S
Eu91 O110 2.394 . S
C92 C90 1.500 . S
C92 C93 1.377 . S
C92 C97 1.377 . S
C93 C92 1.377 . S
C93 C94 1.395 . S
C93 H116 0.931 . S
C94 C93 1.395 . S
C94 C95 1.383 . S
C94 H117 0.931 . S
C95 C94 1.383 . S
C95 C96 1.394 . S
C96 C95 1.394 . S
C96 C97 1.378 . S
C96 H118 0.931 . S
C97 C92 1.377 . S
C97 C96 1.378 . S
C97 H119 0.931 . S
C98 O108 1.259 . S
C98 O109 1.270 . S
C99 O110 1.251 . S
C99 O111 1.251 . S
O100 C80 1.257 . S
O100 Eu81 2.473 . S
O101 C80 1.260 . S
O101 Eu81 2.480 . S
O102 Eu81 2.430 . S
O102 C88 1.259 . S
O103 Eu81 2.670 . S
O103 C88 1.270 . S
O103 Eu91 2.355 . S
O104 Eu81 2.394 . S
O104 C89 1.251 . S
O105 C89 1.251 . S
O105 Eu91 2.374 . S
O106 C90 1.257 . S
O106 Eu91 2.473 . S
O107 C90 1.260 . S
O107 Eu91 2.480 . S
O108 Eu91 2.430 . S
O108 C98 1.259 . S
O109 Eu81 2.355 . S
O109 Eu91 2.670 . S
O109 C98 1.270 . S
O110 Eu91 2.394 . S
O110 C99 1.251 . S
O111 Eu81 2.374 . S
O111 C99 1.251 . S
H112 C83 0.931 . S
H113 C84 0.931 . S
H114 C86 0.931 . S
H115 C87 0.931 . S
H116 C93 0.931 . S
H117 C94 0.931 . S
H118 C96 0.931 . S
H119 C97 0.931 . S
C120 Eu121 2.835 1_556 S
C120 C122 1.500 . S
C120 O140 1.257 . S
C120 O141 1.260 . S
Eu121 C120 2.835 1_554 S
Eu121 O140 2.473 1_554 S
Eu121 O141 2.480 1_554 S
Eu121 O142 2.430 . S
Eu121 O143 2.670 . S
Eu121 O144 2.394 1_554 S
Eu121 O149 2.355 . S
Eu121 O151 2.374 . S
C122 C120 1.500 . S
C122 C123 1.377 . S
C122 C127 1.377 . S
C123 C122 1.377 . S
C123 C124 1.395 . S
C123 H152 0.931 . S
C124 C123 1.395 . S
C124 C125 1.383 . S
C124 H153 0.931 . S
C125 C124 1.383 . S
C125 C126 1.394 . S
C126 C125 1.394 . S
C126 C127 1.378 . S
C126 H154 0.931 . S
C127 C122 1.377 . S
C127 C126 1.378 . S
C127 H155 0.931 . S
C128 O142 1.259 . S
C128 O143 1.270 . S
C129 O144 1.251 . S
C129 O145 1.251 1_556 S
C130 Eu131 2.835 . S
C130 C132 1.500 . S
C130 O146 1.257 . S
C130 O147 1.260 . S
Eu131 C130 2.835 . S
Eu131 O143 2.355 . S
Eu131 O145 2.374 . S
Eu131 O146 2.473 . S
Eu131 O147 2.480 . S
Eu131 O148 2.430 . S
Eu131 O149 2.670 . S
Eu131 O150 2.394 . S
C132 C130 1.500 . S
C132 C133 1.377 . S
C132 C137 1.377 . S
C133 C132 1.377 . S
C133 C134 1.395 . S
C133 H156 0.931 . S
C134 C133 1.395 . S
C134 C135 1.383 . S
C134 H157 0.931 . S
C135 C134 1.383 . S
C135 C136 1.394 . S
C136 C135 1.394 . S
C136 C137 1.378 . S
C136 H158 0.931 . S
C137 C132 1.377 . S
C137 C136 1.378 . S
C137 H159 0.931 . S
C138 O148 1.259 . S
C138 O149 1.270 . S
C139 O150 1.251 . S
C139 O151 1.251 . S
O140 C120 1.257 . S
O140 Eu121 2.473 1_556 S
O141 C120 1.260 . S
O141 Eu121 2.480 1_556 S
O142 Eu121 2.430 . S
O142 C128 1.259 . S
O143 Eu121 2.670 . S
O143 C128 1.270 . S
O143 Eu131 2.355 . S
O144 Eu121 2.394 1_556 S
O144 C129 1.251 . S
O145 C129 1.251 1_554 S
O145 Eu131 2.374 . S
O146 C130 1.257 . S
O146 Eu131 2.473 . S
O147 C130 1.260 . S
O147 Eu131 2.480 . S
O148 Eu131 2.430 . S
O148 C138 1.259 . S
O149 Eu121 2.355 . S
O149 Eu131 2.670 . S
O149 C138 1.270 . S
O150 Eu131 2.394 . S
O150 C139 1.251 . S
O151 Eu121 2.374 . S
O151 C139 1.251 . S
H152 C123 0.931 . S
H153 C124 0.931 . S
H154 C126 0.931 . S
H155 C127 0.931 . S
H156 C133 0.931 . S
H157 C134 0.931 . S
H158 C136 0.931 . S
H159 C137 0.931 . S
C160 Eu161 2.835 . S
C160 C162 1.500 . S
C160 O180 1.257 . S
C160 O181 1.260 . S
Eu161 C160 2.835 . S
Eu161 O180 2.473 . S
Eu161 O181 2.480 . S
Eu161 O182 2.430 . S
Eu161 O183 2.670 . S
Eu161 O184 2.394 . S
Eu161 O189 2.355 . S
Eu161 O191 2.374 . S
C162 C160 1.500 . S
C162 C163 1.377 . S
C162 C167 1.377 1_455 S
C163 C162 1.377 . S
C163 C164 1.395 . S
C163 H192 0.931 . S
C164 C163 1.395 . S
C164 C165 1.383 1_455 S
C164 H193 0.931 . S
C165 C164 1.383 1_655 S
C165 C166 1.394 . S
C166 C165 1.394 . S
C166 C167 1.378 . S
C166 H194 0.931 . S
C167 C162 1.377 1_655 S
C167 C166 1.378 . S
C167 H195 0.931 . S
C168 O182 1.259 . S
C168 O183 1.270 . S
C169 O184 1.251 . S
C169 O185 1.251 . S
C170 Eu171 2.835 . S
C170 C172 1.500 . S
C170 O186 1.257 . S
C170 O187 1.260 . S
Eu171 C170 2.835 . S
Eu171 O183 2.355 . S
Eu171 O185 2.374 . S
Eu171 O186 2.473 . S
Eu171 O187 2.480 . S
Eu171 O188 2.430 . S
Eu171 O189 2.670 . S
Eu171 O190 2.394 . S
C172 C170 1.500 . S
C172 C173 1.377 . S
C172 C177 1.377 . S
C173 C172 1.377 . S
C173 C174 1.395 . S
C173 H196 0.931 . S
C174 C173 1.395 . S
C174 C175 1.383 . S
C174 H197 0.931 . S
C175 C174 1.383 . S
C175 C176 1.394 . S
C176 C175 1.394 . S
C176 C177 1.378 . S
C176 H198 0.931 . S
C177 C172 1.377 . S
C177 C176 1.378 . S
C177 H199 0.931 . S
C178 O188 1.259 . S
C178 O189 1.270 . S
C179 O190 1.251 . S
C179 O191 1.251 . S
O180 C160 1.257 . S
O180 Eu161 2.473 . S
O181 C160 1.260 . S
O181 Eu161 2.480 . S
O182 Eu161 2.430 . S
O182 C168 1.259 . S
O183 Eu161 2.670 . S
O183 C168 1.270 . S
O183 Eu171 2.355 . S
O184 Eu161 2.394 . S
O184 C169 1.251 . S
O185 C169 1.251 . S
O185 Eu171 2.374 . S
O186 C170 1.257 . S
O186 Eu171 2.473 . S
O187 C170 1.260 . S
O187 Eu171 2.480 . S
O188 Eu171 2.430 . S
O188 C178 1.259 . S
O189 Eu161 2.355 . S
O189 Eu171 2.670 . S
O189 C178 1.270 . S
O190 Eu171 2.394 . S
O190 C179 1.251 . S
O191 Eu161 2.374 . S
O191 C179 1.251 . S
H192 C163 0.931 . S
H193 C164 0.931 . S
H194 C166 0.931 . S
H195 C167 0.931 . S
H196 C173 0.931 . S
H197 C174 0.931 . S
H198 C176 0.931 . S
H199 C177 0.931 . S
C200 Eu201 2.835 . S
C200 C202 1.500 . S
C200 O220 1.257 . S
C200 O221 1.260 . S
Eu201 C200 2.835 . S
Eu201 O220 2.473 . S
Eu201 O221 2.480 . S
Eu201 O222 2.430 . S
Eu201 O223 2.670 . S
Eu201 O224 2.394 . S
Eu201 O229 2.355 . S
Eu201 O231 2.374 . S
C202 C200 1.500 . S
C202 C203 1.377 . S
C202 C207 1.377 1_545 S
C203 C202 1.377 . S
C203 C204 1.395 . S
C203 H232 0.931 . S
C204 C203 1.395 . S
C204 C205 1.383 1_545 S
C204 H233 0.931 . S
C205 C204 1.383 1_565 S
C205 C206 1.394 . S
C206 C205 1.394 . S
C206 C207 1.378 . S
C206 H234 0.931 . S
C207 C202 1.377 1_565 S
C207 C206 1.378 . S
C207 H235 0.931 . S
C208 O222 1.259 . S
C208 O223 1.270 . S
C209 O224 1.251 . S
C209 O225 1.251 . S
C210 Eu211 2.835 . S
C210 C212 1.500 . S
C210 O226 1.257 . S
C210 O227 1.260 . S
Eu211 C210 2.835 . S
Eu211 O223 2.355 . S
Eu211 O225 2.374 . S
Eu211 O226 2.473 . S
Eu211 O227 2.480 . S
Eu211 O228 2.430 . S
Eu211 O229 2.670 . S
Eu211 O230 2.394 . S
C212 C210 1.500 . S
C212 C213 1.377 . S
C212 C217 1.377 . S
C213 C212 1.377 . S
C213 C214 1.395 . S
C213 H236 0.931 . S
C214 C213 1.395 . S
C214 C215 1.383 . S
C214 H237 0.931 . S
C215 C214 1.383 . S
C215 C216 1.394 . S
C216 C215 1.394 . S
C216 C217 1.378 . S
C216 H238 0.931 . S
C217 C212 1.377 . S
C217 C216 1.378 . S
C217 H239 0.931 . S
C218 O228 1.259 . S
C218 O229 1.270 . S
C219 O230 1.251 . S
C219 O231 1.251 . S
O220 C200 1.257 . S
O220 Eu201 2.473 . S
O221 C200 1.260 . S
O221 Eu201 2.480 . S
O222 Eu201 2.430 . S
O222 C208 1.259 . S
O223 Eu201 2.670 . S
O223 C208 1.270 . S
O223 Eu211 2.355 . S
O224 Eu201 2.394 . S
O224 C209 1.251 . S
O225 C209 1.251 . S
O225 Eu211 2.374 . S
O226 C210 1.257 . S
O226 Eu211 2.473 . S
O227 C210 1.260 . S
O227 Eu211 2.480 . S
O228 Eu211 2.430 . S
O228 C218 1.259 . S
O229 Eu201 2.355 . S
O229 Eu211 2.670 . S
O229 C218 1.270 . S
O230 Eu211 2.394 . S
O230 C219 1.251 . S
O231 Eu201 2.374 . S
O231 C219 1.251 . S
H232 C203 0.931 . S
H233 C204 0.931 . S
H234 C206 0.931 . S
H235 C207 0.931 . S
H236 C213 0.931 . S
H237 C214 0.931 . S
H238 C216 0.931 . S
H239 C217 0.931 . S
C240 C241 1.363 . S
C240 C246 1.379 . S
C240 N248 1.356 . S
C241 C240 1.363 . S
C241 C247 1.363 . S
C242 C243 1.363 . S
C242 C247 1.379 . S
C242 N249 1.356 . S
C243 C242 1.363 . S
C243 C246 1.363 . S
N244 C246 1.356 . S
N244 H256 0.984 . S
N244 H257 0.985 . S
N245 C247 1.356 . S
N245 H250 0.984 . S
N245 H251 0.985 . S
C246 C240 1.379 . S
C246 C243 1.363 . S
C246 N244 1.356 . S
C247 C241 1.363 . S
C247 C242 1.379 . S
C247 N245 1.356 . S
N248 C240 1.356 . S
N248 H254 0.984 . S
N248 H255 0.984 . S
N249 C242 1.356 . S
N249 H252 0.984 . S
N249 H253 0.985 . S
H250 N245 0.984 . S
H251 N245 0.985 . S
H252 N249 0.984 . S
H253 N249 0.985 . S
H254 N248 0.984 . S
H255 N248 0.984 . S
H256 N244 0.984 . S
H257 N244 0.985 . S
C258 C259 1.363 . S
C258 C264 1.379 . S
C258 N266 1.356 . S
C259 C258 1.363 . S
C259 C265 1.363 . S
C260 C261 1.363 . S
C260 C265 1.379 . S
C260 N267 1.356 . S
C261 C260 1.363 . S
C261 C264 1.363 . S
N262 C264 1.356 . S
N262 H274 0.984 . S
N262 H275 0.985 . S
N263 C265 1.356 . S
N263 H268 0.984 . S
N263 H269 0.985 . S
C264 C258 1.379 . S
C264 C261 1.363 . S
C264 N262 1.356 . S
C265 C259 1.363 . S
C265 C260 1.379 . S
C265 N263 1.356 . S
N266 C258 1.356 . S
N266 H272 0.984 . S
N266 H273 0.984 . S
N267 C260 1.356 . S
N267 H270 0.984 . S
N267 H271 0.985 . S
H268 N263 0.984 . S
H269 N263 0.985 . S
H270 N267 0.984 . S
H271 N267 0.985 . S
H272 N266 0.984 . S
H273 N266 0.984 . S
H274 N262 0.984 . S
H275 N262 0.985 . S
C276 C277 1.363 . S
C276 C282 1.379 . S
C276 N284 1.356 . S
C277 C276 1.363 . S
C277 C283 1.363 . S
C278 C279 1.363 . S
C278 C283 1.379 . S
C278 N285 1.356 . S
C279 C278 1.363 . S
C279 C282 1.363 . S
N280 C282 1.356 . S
N280 H292 0.984 . S
N280 H293 0.985 . S
N281 C283 1.356 . S
N281 H286 0.984 . S
N281 H287 0.985 . S
C282 C276 1.379 . S
C282 C279 1.363 . S
C282 N280 1.356 . S
C283 C277 1.363 . S
C283 C278 1.379 . S
C283 N281 1.356 . S
N284 C276 1.356 . S
N284 H290 0.984 . S
N284 H291 0.984 . S
N285 C278 1.356 . S
N285 H288 0.984 . S
N285 H289 0.985 . S
H286 N281 0.984 . S
H287 N281 0.985 . S
H288 N285 0.984 . S
H289 N285 0.985 . S
H290 N284 0.984 . S
H291 N284 0.984 . S
H292 N280 0.984 . S
H293 N280 0.985 . S
C294 C295 1.363 . S
C294 C300 1.379 . S
C294 N302 1.356 . S
C295 C294 1.363 . S
C295 C301 1.363 . S
C296 C297 1.363 . S
C296 C301 1.379 . S
C296 N303 1.356 . S
C297 C296 1.363 . S
C297 C300 1.363 . S
N298 C300 1.356 . S
N298 H310 0.984 . S
N298 H311 0.985 . S
N299 C301 1.356 . S
N299 H304 0.984 . S
N299 H305 0.985 . S
C300 C294 1.379 . S
C300 C297 1.363 . S
C300 N298 1.356 . S
C301 C295 1.363 . S
C301 C296 1.379 . S
C301 N299 1.356 . S
N302 C294 1.356 . S
N302 H308 0.984 . S
N302 H309 0.984 . S
N303 C296 1.356 . S
N303 H306 0.984 . S
N303 H307 0.985 . S
H304 N299 0.984 . S
H305 N299 0.985 . S
H306 N303 0.984 . S
H307 N303 0.985 . S
H308 N302 0.984 . S
H309 N302 0.984 . S
H310 N298 0.984 . S
H311 N298 0.985 . S
C312 C313 1.363 . S
C312 C318 1.379 . S
C312 N320 1.356 . S
C313 C312 1.363 . S
C313 C319 1.363 . S
C314 C315 1.363 . S
C314 C319 1.379 . S
C314 N321 1.356 . S
C315 C314 1.363 . S
C315 C318 1.363 . S
N316 C318 1.356 . S
N316 H328 0.984 . S
N316 H329 0.985 . S
N317 C319 1.356 . S
N317 H322 0.984 . S
N317 H323 0.985 . S
C318 C312 1.379 . S
C318 C315 1.363 . S
C318 N316 1.356 . S
C319 C313 1.363 . S
C319 C314 1.379 . S
C319 N317 1.356 . S
N320 C312 1.356 . S
N320 H326 0.984 . S
N320 H327 0.984 . S
N321 C314 1.356 . S
N321 H324 0.984 . S
N321 H325 0.985 . S
H322 N317 0.984 . S
H323 N317 0.985 . S
H324 N321 0.984 . S
H325 N321 0.985 . S
H326 N320 0.984 . S
H327 N320 0.984 . S
H328 N316 0.984 . S
H329 N316 0.985 . S
C330 C331 1.363 . S
C330 C336 1.379 . S
C330 N338 1.356 . S
C331 C330 1.363 . S
C331 C337 1.363 . S
C332 C333 1.363 . S
C332 C337 1.379 . S
C332 N339 1.356 . S
C333 C332 1.363 . S
C333 C336 1.363 . S
N334 C336 1.356 . S
N334 H346 0.984 . S
N334 H347 0.985 . S
N335 C337 1.356 . S
N335 H340 0.984 . S
N335 H341 0.985 . S
C336 C330 1.379 . S
C336 C333 1.363 . S
C336 N334 1.356 . S
C337 C331 1.363 . S
C337 C332 1.379 . S
C337 N335 1.356 . S
N338 C330 1.356 . S
N338 H344 0.984 . S
N338 H345 0.984 . S
N339 C332 1.356 . S
N339 H342 0.984 . S
N339 H343 0.985 . S
H340 N335 0.984 . S
H341 N335 0.985 . S
H342 N339 0.984 . S
H343 N339 0.985 . S
H344 N338 0.984 . S
H345 N338 0.984 . S
H346 N334 0.984 . S
H347 N334 0.985 . S
C348 C349 1.363 . S
C348 C354 1.379 . S
C348 N356 1.356 . S
C349 C348 1.363 . S
C349 C355 1.363 . S
C350 C351 1.363 . S
C350 C355 1.379 . S
C350 N357 1.356 . S
C351 C350 1.363 . S
C351 C354 1.363 . S
N352 C354 1.356 . S
N352 H364 0.984 1_554 S
N352 H365 0.985 . S
N353 C355 1.356 . S
N353 H358 0.984 . S
N353 H359 0.985 . S
C354 C348 1.379 . S
C354 C351 1.363 . S
C354 N352 1.356 . S
C355 C349 1.363 . S
C355 C350 1.379 . S
C355 N353 1.356 . S
N356 C348 1.356 . S
N356 H362 0.984 1_554 S
N356 H363 0.984 . S
N357 C350 1.356 . S
N357 H360 0.984 . S
N357 H361 0.985 . S
H358 N353 0.984 . S
H359 N353 0.985 . S
H360 N357 0.984 . S
H361 N357 0.985 . S
H362 N356 0.984 1_556 S
H363 N356 0.984 . S
H364 N352 0.984 1_556 S
H365 N352 0.985 . S
C366 C367 1.363 . S
C366 C372 1.379 . S
C366 N374 1.356 . S
C367 C366 1.363 . S
C367 C373 1.363 1_455 S
C368 C369 1.363 . S
C368 C373 1.379 . S
C368 N375 1.356 . S
C369 C368 1.363 . S
C369 C372 1.363 1_655 S
N370 C372 1.356 . S
N370 H382 0.984 . S
N370 H383 0.985 . S
N371 C373 1.356 . S
N371 H376 0.984 . S
N371 H377 0.985 . S
C372 C366 1.379 . S
C372 C369 1.363 1_455 S
C372 N370 1.356 . S
C373 C367 1.363 1_655 S
C373 C368 1.379 . S
C373 N371 1.356 . S
N374 C366 1.356 . S
N374 H380 0.984 . S
N374 H381 0.984 . S
N375 C368 1.356 . S
N375 H378 0.984 . S
N375 H379 0.985 . S
H376 N371 0.984 . S
H377 N371 0.985 . S
H378 N375 0.984 . S
H379 N375 0.985 . S
H380 N374 0.984 . S
H381 N374 0.984 . S
H382 N370 0.984 . S
H383 N370 0.985 . S
C384 C385 1.363 . S
C384 C390 1.379 . S
C384 N392 1.356 . S
C385 C384 1.363 . S
C385 C391 1.363 1_545 S
C386 C387 1.363 . S
C386 C391 1.379 . S
C386 N393 1.356 . S
C387 C386 1.363 . S
C387 C390 1.363 1_565 S
N388 C390 1.356 . S
N388 H400 0.984 . S
N388 H401 0.985 . S
N389 C391 1.356 . S
N389 H394 0.984 . S
N389 H395 0.985 . S
C390 C384 1.379 . S
C390 C387 1.363 1_545 S
C390 N388 1.356 . S
C391 C385 1.363 1_565 S
C391 C386 1.379 . S
C391 N389 1.356 . S
N392 C384 1.356 . S
N392 H398 0.984 . S
N392 H399 0.984 . S
N393 C386 1.356 . S
N393 H396 0.984 . S
N393 H397 0.985 . S
H394 N389 0.984 . S
H395 N389 0.985 . S
H396 N393 0.984 . S
H397 N393 0.985 . S
H398 N392 0.984 . S
H399 N392 0.984 . S
H400 N388 0.984 . S
H401 N388 0.985 . S
C402 C403 1.363 . S
C402 C408 1.379 . S
C402 N410 1.356 . S
C403 C402 1.363 . S
C403 C409 1.363 . S
C404 C405 1.363 . S
C404 C409 1.379 . S
C404 N411 1.356 . S
C405 C404 1.363 . S
C405 C408 1.363 . S
N406 C408 1.356 . S
N406 H418 0.984 . S
N406 H419 0.985 . S
N407 C409 1.356 . S
N407 H412 0.984 . S
N407 H413 0.985 . S
C408 C402 1.379 . S
C408 C405 1.363 . S
C408 N406 1.356 . S
C409 C403 1.363 . S
C409 C404 1.379 . S
C409 N407 1.356 . S
N410 C402 1.356 . S
N410 H416 0.984 . S
N410 H417 0.984 . S
N411 C404 1.356 . S
N411 H414 0.984 . S
N411 H415 0.985 . S
H412 N407 0.984 . S
H413 N407 0.985 . S
H414 N411 0.984 . S
H415 N411 0.985 . S
H416 N410 0.984 . S
H417 N410 0.984 . S
H418 N406 0.984 . S
H419 N406 0.985 . S
C420 C421 1.363 . S
C420 C426 1.379 . S
C420 N428 1.356 1_554 S
C421 C420 1.363 . S
C421 C427 1.363 1_455 S
C422 C423 1.363 . S
C422 C427 1.379 . S
C422 N429 1.356 . S
C423 C422 1.363 . S
C423 C426 1.363 1_655 S
N424 C426 1.356 1_556 S
N424 H436 0.984 . S
N424 H437 0.985 . S
N425 C427 1.356 . S
N425 H430 0.984 . S
N425 H431 0.985 . S
C426 C420 1.379 . S
C426 C423 1.363 1_455 S
C426 N424 1.356 1_554 S
C427 C421 1.363 1_655 S
C427 C422 1.379 . S
C427 N425 1.356 . S
N428 C420 1.356 1_556 S
N428 H434 0.984 . S
N428 H435 0.984 . S
N429 C422 1.356 . S
N429 H432 0.984 . S
N429 H433 0.985 . S
H430 N425 0.984 . S
H431 N425 0.985 . S
H432 N429 0.984 . S
H433 N429 0.985 . S
H434 N428 0.984 . S
H435 N428 0.984 . S
H436 N424 0.984 . S
H437 N424 0.985 . S
C438 C439 1.363 1_545 S
C438 C444 1.379 . S
C438 N446 1.356 . S
C439 C438 1.363 1_565 S
C439 C445 1.363 . S
C440 C441 1.363 1_565 S
C440 C445 1.379 . S
C440 N447 1.356 . S
C441 C440 1.363 1_545 S
C441 C444 1.363 . S
N442 C444 1.356 . S
N442 H454 0.984 . S
N442 H455 0.985 . S
N443 C445 1.356 . S
N443 H448 0.984 . S
N443 H449 0.985 . S
C444 C438 1.379 . S
C444 C441 1.363 . S
C444 N442 1.356 . S
C445 C439 1.363 . S
C445 C440 1.379 . S
C445 N443 1.356 . S
N446 C438 1.356 . S
N446 H452 0.984 . S
N446 H453 0.984 . S
N447 C440 1.356 . S
N447 H450 0.984 . S
N447 H451 0.985 . S
H448 N443 0.984 . S
H449 N443 0.985 . S
H450 N447 0.984 . S
H451 N447 0.985 . S
H452 N446 0.984 . S
H453 N446 0.984 . S
H454 N442 0.984 . S
H455 N442 0.985 . S
C456 C457 1.363 . S
C456 C462 1.379 . S
C456 N464 1.356 . S
C457 C456 1.363 . S
C457 C463 1.363 . S
C458 C459 1.363 . S
C458 C463 1.379 . S
C458 N465 1.356 . S
C459 C458 1.363 . S
C459 C462 1.363 . S
N460 C462 1.356 . S
N460 H472 0.984 . S
N460 H473 0.985 . S
N461 C463 1.356 . S
N461 H466 0.984 . S
N461 H467 0.985 . S
C462 C456 1.379 . S
C462 C459 1.363 . S
C462 N460 1.356 . S
C463 C457 1.363 . S
C463 C458 1.379 . S
C463 N461 1.356 . S
N464 C456 1.356 . S
N464 H470 0.984 . S
N464 H471 0.984 . S
N465 C458 1.356 . S
N465 H468 0.984 . S
N465 H469 0.985 . S
H466 N461 0.984 . S
H467 N461 0.985 . S
H468 N465 0.984 . S
H469 N465 0.985 . S
H470 N464 0.984 . S
H471 N464 0.984 . S
H472 N460 0.984 . S
H473 N460 0.985 . S
C474 C475 1.363 . S
C474 C480 1.379 . S
C474 N482 1.356 . S
C475 C474 1.363 . S
C475 C481 1.363 . S
C476 C477 1.363 . S
C476 C481 1.379 . S
C476 N483 1.356 . S
C477 C476 1.363 . S
C477 C480 1.363 . S
N478 C480 1.356 . S
N478 H490 0.984 . S
N478 H491 0.985 . S
N479 C481 1.356 . S
N479 H484 0.984 . S
N479 H485 0.985 . S
C480 C474 1.379 . S
C480 C477 1.363 . S
C480 N478 1.356 . S
C481 C475 1.363 . S
C481 C476 1.379 . S
C481 N479 1.356 . S
N482 C474 1.356 . S
N482 H488 0.984 . S
N482 H489 0.984 . S
N483 C476 1.356 . S
N483 H486 0.984 . S
N483 H487 0.985 . S
H484 N479 0.984 . S
H485 N479 0.985 . S
H486 N483 0.984 . S
H487 N483 0.985 . S
H488 N482 0.984 . S
H489 N482 0.984 . S
H490 N478 0.984 . S
H491 N478 0.985 . S
C492 C493 1.363 . S
C492 C498 1.379 . S
C492 N500 1.356 1_545 S
C493 C492 1.363 . S
C493 C499 1.363 . S
C494 C495 1.363 . S
C494 C499 1.379 . S
C494 N501 1.356 . S
C495 C494 1.363 . S
C495 C498 1.363 . S
N496 C498 1.356 . S
N496 H508 0.984 1_545 S
N496 H509 0.985 . S
N497 C499 1.356 . S
N497 H502 0.984 . S
N497 H503 0.985 . S
C498 C492 1.379 . S
C498 C495 1.363 . S
C498 N496 1.356 . S
C499 C493 1.363 . S
C499 C494 1.379 . S
C499 N497 1.356 . S
N500 C492 1.356 1_565 S
N500 H506 0.984 . S
N500 H507 0.984 . S
N501 C494 1.356 . S
N501 H504 0.984 . S
N501 H505 0.985 . S
H502 N497 0.984 . S
H503 N497 0.985 . S
H504 N501 0.984 . S
H505 N501 0.985 . S
H506 N500 0.984 . S
H507 N500 0.984 . S
H508 N496 0.984 1_565 S
H509 N496 0.985 . S
C510 C511 1.363 . S
C510 C516 1.379 . S
C510 N518 1.356 . S
C511 C510 1.363 . S
C511 C517 1.363 . S
C512 C513 1.363 . S
C512 C517 1.379 . S
C512 N519 1.356 . S
C513 C512 1.363 . S
C513 C516 1.363 . S
N514 C516 1.356 . S
N514 H526 0.984 . S
N514 H527 0.985 . S
N515 C517 1.356 . S
N515 H520 0.984 . S
N515 H521 0.985 . S
C516 C510 1.379 . S
C516 C513 1.363 . S
C516 N514 1.356 . S
C517 C511 1.363 . S
C517 C512 1.379 . S
C517 N515 1.356 . S
N518 C510 1.356 . S
N518 H524 0.984 . S
N518 H525 0.984 . S
N519 C512 1.356 . S
N519 H522 0.984 . S
N519 H523 0.989 . S
H520 N515 0.984 . S
H521 N515 0.985 . S
H522 N519 0.984 . S
H523 N519 0.989 . S
H524 N518 0.984 . S
H525 N518 0.984 . S
H526 N514 0.984 . S
H527 N514 0.985 . S
C528 C529 1.363 . S
C528 C534 1.379 . S
C528 N536 1.356 . S
C529 C528 1.363 . S
C529 C535 1.363 . S
C530 C531 1.363 . S
C530 C535 1.379 . S
C530 N537 1.356 . S
C531 C530 1.363 . S
C531 C534 1.363 . S
N532 C534 1.356 . S
N532 H544 0.984 . S
N532 H545 0.985 . S
N533 C535 1.356 . S
N533 H538 0.984 . S
N533 H539 0.985 . S
C534 C528 1.379 . S
C534 C531 1.363 . S
C534 N532 1.356 . S
C535 C529 1.363 . S
C535 C530 1.379 . S
C535 N533 1.356 . S
N536 C528 1.356 . S
N536 H542 0.984 . S
N536 H543 0.984 . S
N537 C530 1.356 . S
N537 H540 0.984 . S
N537 H541 0.985 . S
H538 N533 0.984 . S
H539 N533 0.985 . S
H540 N537 0.984 . S
H541 N537 0.985 . S
H542 N536 0.984 . S
H543 N536 0.984 . S
H544 N532 0.984 . S
H545 N532 0.985 . S
C546 C547 1.363 . S
C546 C552 1.379 . S
C546 N554 1.356 1_565 S
C547 C546 1.363 . S
C547 C553 1.363 . S
C548 C549 1.363 . S
C548 C553 1.379 . S
C548 N555 1.356 . S
C549 C548 1.363 . S
C549 C552 1.363 . S
N550 C552 1.356 . S
N550 H562 0.984 1_565 S
N550 H563 0.985 . S
N551 C553 1.356 . S
N551 H556 0.984 . S
N551 H557 0.985 . S
C552 C546 1.379 . S
C552 C549 1.363 . S
C552 N550 1.356 . S
C553 C547 1.363 . S
C553 C548 1.379 . S
C553 N551 1.356 . S
N554 C546 1.356 1_545 S
N554 H560 0.984 . S
N554 H561 0.984 . S
N555 C548 1.356 . S
N555 H558 0.984 . S
N555 H559 0.985 . S
H556 N551 0.984 . S
H557 N551 0.985 . S
H558 N555 0.984 . S
H559 N555 0.985 . S
H560 N554 0.984 . S
H561 N554 0.984 . S
H562 N550 0.984 1_545 S
H563 N550 0.985 . S
C241 C169 1.219 . S
C243 C15 1.216 . S
C259 C209 1.219 . S
C261 C55 1.216 . S
C277 C9 1.219 . S
C279 C95 1.216 . S
C295 C49 1.219 . S
C297 C135 1.216 . S
C313 C89 1.219 . S
C315 C175 1.217 . S
C331 C129 1.219 . S
C333 C215 1.217 . S
C349 C18 1.218 . S
C351 C138 1.218 . S
C367 C178 1.218 . S
C369 C58 1.218 . S
C385 C218 1.218 . S
C387 C98 1.218 . S
C403 C88 1.541 . S
C405 C208 1.541 . S
C421 C8 1.543 . S
C423 C128 1.543 . S
C439 C168 1.543 . S
C441 C48 1.543 . S
C457 C219 1.340 . S
C459 C5 1.291 . S
C475 C45 1.291 . S
C477 C19 1.340 . S
C493 C85 1.291 . S
C495 C59 1.340 . S
C511 C99 1.340 . S
C513 C125 1.291 . S
C529 C165 1.291 . S
C531 C139 1.340 . S
C547 C205 1.291 . S
C549 C179 1.339 . S
