# Generated by pormake.
# Topology wka, (5)-cn, num edge types: 1
# Building blocks:
#     Node 0, Type 0, BuildingBlock: XOMCOT_clean_sbu_0, # of connection points: 5
#     Node 1, Type 0, BuildingBlock: XOMCOT_clean_sbu_0, # of connection points: 5
#     Node 2, Type 0, BuildingBlock: XOMCOT_clean_sbu_0, # of connection points: 5
#     Node 3, Type 0, BuildingBlock: XOMCOT_clean_sbu_0, # of connection points: 5
#     Node 4, Type 0, BuildingBlock: XOMCOT_clean_sbu_0, # of connection points: 5
#     Node 5, Type 0, BuildingBlock: XOMCOT_clean_sbu_0, # of connection points: 5
#     Node 6, Type 0, BuildingBlock: XOMCOT_clean_sbu_0, # of connection points: 5
#     Node 7, Type 0, BuildingBlock: XOMCOT_clean_sbu_0, # of connection points: 5
#     Node 8, Type 0, BuildingBlock: XOMCOT_clean_sbu_0, # of connection points: 5
#     Node 9, Type 0, BuildingBlock: XOMCOT_clean_sbu_0, # of connection points: 5
#     Node 10, Type 0, BuildingBlock: XOMCOT_clean_sbu_0, # of connection points: 5
#     Node 11, Type 0, BuildingBlock: XOMCOT_clean_sbu_0, # of connection points: 5
#     Edge 12, Type (0, 0), BuildingBlock: AJUNOK_clean_linker_0, # of connection points: 2
#     Edge 13, Type (0, 0), BuildingBlock: AJUNOK_clean_linker_0, # of connection points: 2
#     Edge 14, Type (0, 0), BuildingBlock: AJUNOK_clean_linker_0, # of connection points: 2
#     Edge 15, Type (0, 0), BuildingBlock: AJUNOK_clean_linker_0, # of connection points: 2
#     Edge 16, Type (0, 0), BuildingBlock: AJUNOK_clean_linker_0, # of connection points: 2
#     Edge 17, Type (0, 0), BuildingBlock: AJUNOK_clean_linker_0, # of connection points: 2
#     Edge 18, Type (0, 0), BuildingBlock: AJUNOK_clean_linker_0, # of connection points: 2
#     Edge 19, Type (0, 0), BuildingBlock: AJUNOK_clean_linker_0, # of connection points: 2
#     Edge 20, Type (0, 0), BuildingBlock: AJUNOK_clean_linker_0, # of connection points: 2
#     Edge 21, Type (0, 0), BuildingBlock: AJUNOK_clean_linker_0, # of connection points: 2
#     Edge 22, Type (0, 0), BuildingBlock: AJUNOK_clean_linker_0, # of connection points: 2
#     Edge 23, Type (0, 0), BuildingBlock: AJUNOK_clean_linker_0, # of connection points: 2
#     Edge 24, Type (0, 0), BuildingBlock: AJUNOK_clean_linker_0, # of connection points: 2
#     Edge 25, Type (0, 0), BuildingBlock: AJUNOK_clean_linker_0, # of connection points: 2
#     Edge 26, Type (0, 0), BuildingBlock: AJUNOK_clean_linker_0, # of connection points: 2
#     Edge 27, Type (0, 0), BuildingBlock: AJUNOK_clean_linker_0, # of connection points: 2
#     Edge 28, Type (0, 0), BuildingBlock: AJUNOK_clean_linker_0, # of connection points: 2
#     Edge 29, Type (0, 0), BuildingBlock: AJUNOK_clean_linker_0, # of connection points: 2
#     Edge 30, Type (0, 0), BuildingBlock: AJUNOK_clean_linker_0, # of connection points: 2
#     Edge 31, Type (0, 0), BuildingBlock: AJUNOK_clean_linker_0, # of connection points: 2
#     Edge 32, Type (0, 0), BuildingBlock: AJUNOK_clean_linker_0, # of connection points: 2
#     Edge 33, Type (0, 0), BuildingBlock: AJUNOK_clean_linker_0, # of connection points: 2
#     Edge 34, Type (0, 0), BuildingBlock: AJUNOK_clean_linker_0, # of connection points: 2
#     Edge 35, Type (0, 0), BuildingBlock: AJUNOK_clean_linker_0, # of connection points: 2
#     Edge 36, Type (0, 0), BuildingBlock: AJUNOK_clean_linker_0, # of connection points: 2
#     Edge 37, Type (0, 0), BuildingBlock: AJUNOK_clean_linker_0, # of connection points: 2
#     Edge 38, Type (0, 0), BuildingBlock: AJUNOK_clean_linker_0, # of connection points: 2
#     Edge 39, Type (0, 0), BuildingBlock: AJUNOK_clean_linker_0, # of connection points: 2
#     Edge 40, Type (0, 0), BuildingBlock: AJUNOK_clean_linker_0, # of connection points: 2
#     Edge 41, Type (0, 0), BuildingBlock: AJUNOK_clean_linker_0, # of connection points: 2
# Relax obj value: 0.228
# Max RMSD: 0.189
# Mean RMSD: 0.189
data_MOF--net-wka--node1-XOMCOT_clean_sbu_0--edge1-AJUNOK_clean_linker_0
_symmetry_space_group_name_H-M    P1
_symmetry_Int_Tables_number       1
_symmetry_cell_setting            triclinic
loop_
_symmetry_equiv_pos_as_xyz
'x, y, z'
_cell_length_a     49.900464
_cell_length_b     49.891961
_cell_length_c     13.289212
_cell_angle_alpha  90.074783
_cell_angle_beta   90.002946
_cell_angle_gamma 120.00686
loop_
_atom_site_label
_atom_site_type_symbol
_atom_site_fract_x
_atom_site_fract_y
_atom_site_fract_z
_atom_type_partial_charge
Co0 Co 0.11792 0.40407 0.0865 0.0
C1 C 0.11231 0.40553 0.30557 0.0
C2 C 0.07334 0.36548 0.24332 0.0
C3 C 0.07268 0.36233 0.34665 0.0
N4 N 0.09814 0.39286 0.21751 0.0
N5 N 0.09764 0.38738 0.38481 0.0
H6 H 0.1344 0.42641 0.31179 0.0
H7 H 0.05837 0.34766 0.19094 0.0
C8 C 0.05137 0.37542 0.0182 0.0
O9 O 0.04707 0.3923 0.08514 0.0
N10 N 0.13767 0.41434 0.95711 0.0
C11 C 0.16134 0.44186 0.92748 0.0
C12 C 0.16351 0.44155 0.82408 0.0
C13 C 0.12625 0.39754 0.87267 0.0
N14 N 0.14118 0.41373 0.79038 0.0
C15 C 0.12339 0.46178 0.14948 0.0
C16 C 0.09345 0.4697 0.98746 0.0
C17 C 0.10374 0.49154 0.06585 0.0
C18 C 0.11946 0.48752 0.14646 0.0
C19 C 0.09866 0.44461 0.99249 0.0
N20 N 0.11161 0.4397 0.07605 0.0
H21 H 0.13696 0.46043 0.2096 0.0
H22 H 0.0921 0.429 0.92922 0.0
H23 H 0.17435 0.46153 0.97653 0.0
H24 H 0.10613 0.3746 0.87023 0.0
O25 O 0.15806 0.4249 0.14942 0.0
O26 O 0.13289 0.37506 0.11022 0.0
O27 O 0.07709 0.37565 0.01547 0.0
C28 C 0.15731 0.39854 0.14971 0.0
H29 H 0.05663 0.34217 0.3894 0.0
H30 H 0.17852 0.46106 0.77703 0.0
H31 H 0.08138 0.47172 0.9229 0.0
H32 H 0.12933 0.50453 0.20621 0.0
Co33 Co 0.71705 0.11253 0.25656 0.0
C34 C 0.70954 0.10571 0.47669 0.0
C35 C 0.71354 0.06859 0.41222 0.0
C36 C 0.71449 0.0667 0.51564 0.0
N37 N 0.70986 0.09282 0.38761 0.0
N38 N 0.7121 0.09025 0.5554 0.0
H39 H 0.71089 0.12787 0.48491 0.0
H40 H 0.71764 0.05458 0.35924 0.0
C41 C 0.68049 0.04543 0.19183 0.0
O42 O 0.66058 0.04042 0.26423 0.0
N43 N 0.72506 0.13218 0.12671 0.0
C44 C 0.71993 0.15516 0.09868 0.0
C45 C 0.72155 0.15737 0.99516 0.0
C46 C 0.73031 0.12119 0.04082 0.0
N47 N 0.72795 0.13587 0.95924 0.0
C48 C 0.66555 0.11853 0.32246 0.0
C49 C 0.62517 0.08551 0.16905 0.0
C50 C 0.61488 0.0976 0.24592 0.0
C51 C 0.63599 0.11489 0.32196 0.0
C52 C 0.6555 0.09066 0.1708 0.0
N53 N 0.67468 0.10525 0.25046 0.0
H54 H 0.6814 0.1332 0.37922 0.0
H55 H 0.66351 0.08292 0.10775 0.0
H56 H 0.71314 0.16774 0.14914 0.0
H57 H 0.7331 0.10108 0.03708 0.0
O58 O 0.73581 0.1525 0.32023 0.0
O59 O 0.76146 0.12877 0.27726 0.0
O60 O 0.7051 0.07186 0.18483 0.0
C61 C 0.76184 0.15262 0.31954 0.0
H62 H 0.7181 0.05024 0.55786 0.0
H63 H 0.71658 0.17233 0.9496 0.0
H64 H 0.61012 0.07206 0.108 0.0
H65 H 0.63007 0.12627 0.38005 0.0
Co66 Co 0.61129 0.71691 0.39915 0.0
C67 C 0.61034 0.71109 0.61957 0.0
C68 C 0.64808 0.70767 0.55775 0.0
C69 C 0.65037 0.70825 0.66137 0.0
N70 N 0.62237 0.7086 0.53133 0.0
N71 N 0.62665 0.71064 0.69896 0.0
H72 H 0.59116 0.71527 0.62678 0.0
H73 H 0.6654 0.70892 0.50628 0.0
C74 C 0.63929 0.67839 0.33351 0.0
O75 O 0.62246 0.65793 0.40228 0.0
N76 N 0.60109 0.72625 0.2688 0.0
C77 C 0.57416 0.72415 0.24022 0.0
C78 C 0.57401 0.72627 0.13662 0.0
C79 C 0.61706 0.73014 0.18322 0.0
N80 N 0.60092 0.72977 0.10181 0.0
C81 C 0.55479 0.66407 0.46526 0.0
C82 C 0.54502 0.62691 0.29919 0.0
C83 C 0.52422 0.61509 0.38003 0.0
C84 C 0.52924 0.63428 0.46314 0.0
C85 C 0.57041 0.65706 0.30444 0.0
N86 N 0.57587 0.67482 0.38888 0.0
H87 H 0.557 0.67866 0.52779 0.0
H88 H 0.58586 0.66593 0.24089 0.0
H89 H 0.55507 0.71898 0.29019 0.0
H90 H 0.63909 0.73096 0.17899 0.0
O91 O 0.59025 0.73597 0.46173 0.0
O92 O 0.63997 0.76101 0.42351 0.0
O93 O 0.63971 0.70424 0.32953 0.0
C94 C 0.61654 0.76166 0.46491 0.0
H95 H 0.66906 0.70909 0.70522 0.0
H96 H 0.55473 0.72287 0.09018 0.0
H97 H 0.54186 0.613 0.23285 0.0
H98 H 0.51307 0.62656 0.52542 0.0
Co99 Co 0.89764 0.60188 0.56154 0.0
C100 C 0.90752 0.60117 0.77951 0.0
C101 C 0.93509 0.64671 0.71924 0.0
C102 C 0.93619 0.64861 0.82305 0.0
N103 N 0.91728 0.61681 0.69182 0.0
N104 N 0.91878 0.61984 0.86047 0.0
H105 H 0.88961 0.5773 0.78502 0.0
H106 H 0.94443 0.66605 0.66771 0.0
C107 C 0.96592 0.64025 0.5037 0.0
O108 O 0.97367 0.63128 0.58623 0.0
N109 N 0.87766 0.58706 0.4327 0.0
C110 C 0.85793 0.55744 0.40682 0.0
C111 C 0.85597 0.55541 0.30321 0.0
C112 C 0.88666 0.60268 0.34513 0.0
N113 N 0.87452 0.58388 0.26474 0.0
C114 C 0.88911 0.54344 0.62567 0.0
C115 C 0.9349 0.54232 0.51298 0.0
C116 C 0.91827 0.51833 0.58222 0.0
C117 C 0.89435 0.51871 0.63578 0.0
C118 C 0.92838 0.56656 0.50355 0.0
N119 N 0.907 0.568 0.56447 0.0
H120 H 0.86988 0.5421 0.66642 0.0
H121 H 0.94016 0.58354 0.44565 0.0
H122 H 0.84751 0.53829 0.45903 0.0
H123 H 0.90348 0.62692 0.3399 0.0
O124 O 0.85816 0.5809 0.62808 0.0
O125 O 0.87984 0.62907 0.57527 0.0
O126 O 0.93738 0.63108 0.48636 0.0
C127 C 0.85731 0.60637 0.62452 0.0
H128 H 0.94731 0.66965 0.86734 0.0
H129 H 0.84312 0.53439 0.25971 0.0
H130 H 0.95262 0.5423 0.46605 0.0
H131 H 0.87911 0.49962 0.68394 0.0
Co132 Co 0.30489 0.89505 0.74412 0.0
C133 C 0.31491 0.90552 0.96163 0.0
C134 C 0.29399 0.93025 0.89977 0.0
C135 C 0.29213 0.93069 1.00317 0.0
N136 N 0.30864 0.91476 0.87342 0.0
N137 N 0.3048 0.91459 0.04182 0.0
H138 H 0.32326 0.88935 0.96712 0.0
H139 H 0.28284 0.93818 0.84746 0.0
C140 C 0.32883 0.96309 0.67896 0.0
O141 O 0.33957 0.97502 0.76804 0.0
N142 N 0.30052 0.87516 0.61525 0.0
C143 C 0.31219 0.85708 0.58729 0.0
C144 C 0.31171 0.85524 0.48352 0.0
C145 C 0.29239 0.88334 0.52859 0.0
N146 N 0.29933 0.87187 0.44702 0.0
C147 C 0.35411 0.88492 0.80463 0.0
C148 C 0.40284 0.93562 0.71465 0.0
C149 C 0.40896 0.91558 0.7715 0.0
C150 C 0.38389 0.88962 0.81468 0.0
C151 C 0.37234 0.92972 0.70472 0.0
N152 N 0.34828 0.90495 0.75166 0.0
H153 H 0.33573 0.8645 0.83913 0.0
H154 H 0.36862 0.945 0.65775 0.0
H155 H 0.32243 0.84775 0.63787 0.0
H156 H 0.28412 0.89965 0.5246 0.0
O157 O 0.2863 0.85572 0.81138 0.0
O158 O 0.2597 0.87686 0.75452 0.0
O159 O 0.31572 0.93392 0.66452 0.0
C160 C 0.25982 0.85432 0.80397 0.0
H161 H 0.28063 0.94048 0.04595 0.0
H162 H 0.32126 0.84397 0.43826 0.0
H163 H 0.42141 0.95562 0.67766 0.0
H164 H 0.38702 0.87246 0.85447 0.0
Co165 Co 0.41074 0.30153 0.93199 0.0
C166 C 0.41135 0.30989 0.15171 0.0
C167 C 0.36829 0.30118 0.08903 0.0
C168 C 0.36607 0.30084 0.19284 0.0
N169 N 0.39705 0.30749 0.0631 0.0
N170 N 0.39341 0.30664 0.23141 0.0
H171 H 0.43304 0.31031 0.15942 0.0
H172 H 0.34947 0.29496 0.03678 0.0
C173 C 0.37556 0.33397 0.86753 0.0
O174 O 0.38898 0.3543 0.94018 0.0
N175 N 0.42401 0.29494 0.80247 0.0
C176 C 0.45288 0.30193 0.77638 0.0
C177 C 0.45457 0.30155 0.67278 0.0
C178 C 0.40847 0.2897 0.71514 0.0
N179 N 0.42667 0.29437 0.63467 0.0
C180 C 0.46739 0.35359 0.99796 0.0
C181 C 0.47417 0.39423 0.8463 0.0
C182 C 0.49726 0.40353 0.91997 0.0
C183 C 0.4935 0.38287 0.99651 0.0
C184 C 0.44811 0.36436 0.85058 0.0
N185 N 0.44441 0.34468 0.928 0.0
H186 H 0.46693 0.3376 0.0525 0.0
H187 H 0.4317 0.35676 0.78932 0.0
H188 H 0.47193 0.30909 0.82847 0.0
H189 H 0.38498 0.28492 0.70977 0.0
O190 O 0.43306 0.28411 0.99665 0.0
O191 O 0.38408 0.25685 0.95062 0.0
O192 O 0.38071 0.31138 0.85928 0.0
C193 C 0.40777 0.25751 0.99491 0.0
H194 H 0.3456 0.29529 0.23637 0.0
H195 H 0.47513 0.30761 0.62912 0.0
H196 H 0.47692 0.40931 0.78378 0.0
H197 H 0.51133 0.3889 0.05288 0.0
Co198 Co 0.61382 0.90241 0.76045 0.0
C199 C 0.61303 0.9078 0.54062 0.0
C200 C 0.65224 0.94739 0.60382 0.0
C201 C 0.65565 0.94833 0.50057 0.0
N202 N 0.62515 0.92209 0.62907 0.0
N203 N 0.63114 0.92302 0.46189 0.0
H204 H 0.59258 0.88532 0.53364 0.0
H205 H 0.66978 0.96265 0.65646 0.0
C206 C 0.64219 0.96888 0.82827 0.0
O207 O 0.62583 0.97306 0.75906 0.0
N208 N 0.60366 0.88282 0.89022 0.0
C209 C 0.57636 0.85891 0.92048 0.0
C210 C 0.57698 0.85677 0.0239 0.0
C211 C 0.62061 0.89442 0.97433 0.0
N212 N 0.60474 0.87936 0.05689 0.0
C213 C 0.55673 0.89797 0.69627 0.0
C214 C 0.54736 0.92543 0.86251 0.0
C215 C 0.52582 0.91571 0.78339 0.0
C216 C 0.53066 0.90133 0.70036 0.0
C217 C 0.57299 0.92111 0.85597 0.0
N218 N 0.57838 0.90901 0.77107 0.0
H219 H 0.55873 0.88542 0.63397 0.0
H220 H 0.5886 0.92769 0.9193 0.0
H221 H 0.55665 0.84565 0.87191 0.0
H222 H 0.64341 0.91473 0.97651 0.0
O223 O 0.59255 0.8623 0.69768 0.0
O224 O 0.64233 0.88679 0.73598 0.0
O225 O 0.64239 0.94334 0.83118 0.0
C226 C 0.61867 0.86259 0.69584 0.0
H227 H 0.67565 0.96488 0.45819 0.0
H228 H 0.55773 0.84155 0.07157 0.0
H229 H 0.54475 0.93653 0.92873 0.0
H230 H 0.51401 0.892 0.63951 0.0
Co231 Co 0.71525 0.60808 0.90693 0.0
C232 C 0.71042 0.60872 0.68625 0.0
C233 C 0.7066 0.64591 0.75092 0.0
C234 C 0.70749 0.64887 0.64739 0.0
N235 N 0.70781 0.62024 0.77534 0.0
N236 N 0.70983 0.62528 0.60776 0.0
H237 H 0.71508 0.58988 0.67789 0.0
H238 H 0.70697 0.66253 0.80386 0.0
C239 C 0.67723 0.63604 0.97995 0.0
O240 O 0.65521 0.61849 0.91631 0.0
N241 N 0.72374 0.59706 0.03723 0.0
C242 C 0.72059 0.56973 0.06559 0.0
C243 C 0.72286 0.56965 0.16903 0.0
C244 C 0.72852 0.61336 0.12273 0.0
N245 N 0.72766 0.59709 0.20455 0.0
C246 C 0.66296 0.55245 0.834 0.0
C247 C 0.62536 0.53927 1.00051 0.0
C248 C 0.61464 0.51911 0.91776 0.0
C249 C 0.63384 0.52603 0.83399 0.0
C250 C 0.65499 0.56563 0.99748 0.0
N251 N 0.67302 0.57267 0.91304 0.0
H252 H 0.67777 0.55568 0.7714 0.0
H253 H 0.66355 0.58018 0.06342 0.0
H254 H 0.71486 0.5505 0.0155 0.0
H255 H 0.72995 0.63567 0.12613 0.0
O256 O 0.73419 0.58684 0.84488 0.0
O257 O 0.75952 0.63653 0.88626 0.0
O258 O 0.70313 0.63666 0.97791 0.0
C259 C 0.76012 0.61287 0.84651 0.0
H260 H 0.70738 0.66732 0.60498 0.0
H261 H 0.71944 0.55026 0.21485 0.0
H262 H 0.61144 0.53416 0.06791 0.0
H263 H 0.62668 0.51066 0.76951 0.0
Co264 Co 0.12169 0.71134 0.10641 0.0
C265 C 0.11175 0.70071 0.89003 0.0
C266 C 0.08664 0.72154 0.94969 0.0
C267 C 0.08704 0.7238 0.8463 0.0
N268 N 0.10196 0.70681 0.97725 0.0
N269 N 0.10342 0.71124 0.80944 0.0
H270 H 0.1273 0.69162 0.88573 0.0
H271 H 0.07866 0.73282 1.00136 0.0
C272 C 0.0532 0.68518 0.1668 0.0
O273 O 0.04253 0.67324 0.07767 0.0
N274 N 0.14163 0.7167 0.23508 0.0
C275 C 0.16107 0.70679 0.26396 0.0
C276 C 0.16351 0.70859 0.36759 0.0
C277 C 0.13313 0.725 0.32054 0.0
N278 N 0.14566 0.71981 0.40289 0.0
C279 C 0.13281 0.66254 0.04797 0.0
C280 C 0.08292 0.61373 0.14083 0.0
C281 C 0.10277 0.60774 0.08236 0.0
C282 C 0.1284 0.63286 0.03809 0.0
C283 C 0.08851 0.64414 0.15043 0.0
N284 N 0.11267 0.66818 0.10125 0.0
H285 H 0.15298 0.68097 0.01254 0.0
H286 H 0.07353 0.64784 0.199 0.0
H287 H 0.17094 0.69683 0.21435 0.0
H288 H 0.11653 0.73291 0.32302 0.0
O289 O 0.16109 0.73016 0.0396 0.0
O290 O 0.13938 0.75648 0.09379 0.0
O291 O 0.0823 0.69999 0.18424 0.0
C292 C 0.16215 0.75651 0.04532 0.0
H293 H 0.07866 0.7364 0.80248 0.0
H294 H 0.17539 0.69986 0.41345 0.0
H295 H 0.06329 0.59513 0.17921 0.0
H296 H 0.1455 0.62985 0.99731 0.0
Co297 Co 0.41377 0.11737 0.28084 0.0
C298 C 0.4146 0.11071 0.06125 0.0
C299 C 0.37136 0.07593 0.12201 0.0
C300 C 0.36952 0.07421 0.0182 0.0
N301 N 0.4 0.09841 0.14909 0.0
N302 N 0.39677 0.09628 0.98108 0.0
H303 H 0.43685 0.13145 0.05478 0.0
H304 H 0.35236 0.06319 0.17342 0.0
C305 C 0.37705 0.04884 0.33957 0.0
O306 O 0.3888 0.04162 0.2627 0.0
N307 N 0.42751 0.13675 0.41075 0.0
C308 C 0.45677 0.15708 0.43905 0.0
C309 C 0.45778 0.15916 0.54283 0.0
C310 C 0.41117 0.12736 0.49667 0.0
N311 N 0.42906 0.14023 0.57816 0.0
C312 C 0.47163 0.12511 0.21497 0.0
C313 C 0.47473 0.08263 0.33973 0.0
C314 C 0.49816 0.09809 0.26764 0.0
C315 C 0.49679 0.12045 0.20795 0.0
C316 C 0.45019 0.08877 0.34645 0.0
N317 N 0.4478 0.1084 0.27993 0.0
H318 H 0.47212 0.14313 0.16952 0.0
H319 H 0.43358 0.07808 0.40627 0.0
H320 H 0.47637 0.16766 0.38862 0.0
H321 H 0.38708 0.11007 0.50036 0.0
O322 O 0.43513 0.15753 0.21801 0.0
O323 O 0.38633 0.13467 0.26634 0.0
O324 O 0.38421 0.07707 0.35315 0.0
C325 C 0.40949 0.15812 0.22188 0.0
H326 H 0.34914 0.05962 0.97371 0.0
H327 H 0.47832 0.17152 0.58885 0.0
H328 H 0.4754 0.06613 0.39099 0.0
H329 H 0.51545 0.13502 0.15733 0.0
Co330 Co 0.30589 0.41402 0.44529 0.0
C331 C 0.319 0.41572 0.23061 0.0
C332 C 0.29537 0.36921 0.28551 0.0
C333 C 0.2945 0.36841 0.18206 0.0
N334 N 0.31121 0.39891 0.31648 0.0
N335 N 0.30888 0.39772 0.14725 0.0
H336 H 0.32786 0.44041 0.23002 0.0
H337 H 0.28206 0.34961 0.33427 0.0
C338 C 0.32714 0.3677 0.51796 0.0
O339 O 0.32967 0.35792 0.42878 0.0
N340 N 0.29996 0.42903 0.57393 0.0
C341 C 0.30584 0.45773 0.59861 0.0
C342 C 0.30577 0.46014 0.70224 0.0
C343 C 0.29524 0.41417 0.66288 0.0
N344 N 0.29938 0.43275 0.74208 0.0
C345 C 0.35267 0.47659 0.40692 0.0
C346 C 0.40391 0.47034 0.43916 0.0
C347 C 0.40819 0.49894 0.40679 0.0
C348 C 0.38208 0.5019 0.3917 0.0
C349 C 0.37386 0.44534 0.45309 0.0
N350 N 0.34852 0.44862 0.43779 0.0
H351 H 0.3332 0.4797 0.3919 0.0
H352 H 0.37147 0.42347 0.47394 0.0
H353 H 0.31116 0.47618 0.54604 0.0
H354 H 0.29078 0.39071 0.67058 0.0
O355 O 0.28609 0.43291 0.37449 0.0
O356 O 0.26094 0.38536 0.43325 0.0
O357 O 0.31919 0.38826 0.52767 0.0
C358 C 0.2603 0.407 0.3798 0.0
H359 H 0.28182 0.34779 0.13659 0.0
H360 H 0.31101 0.48069 0.74493 0.0
H361 H 0.4236 0.46716 0.45158 0.0
H362 H 0.38433 0.52375 0.36859 0.0
Co363 Co 0.9025 0.29931 0.6052 0.0
C364 C 0.90758 0.30538 0.3852 0.0
C365 C 0.9471 0.30518 0.44661 0.0
C366 C 0.94879 0.30478 0.343 0.0
N367 N 0.92157 0.30641 0.47318 0.0
N368 N 0.92372 0.30469 0.30566 0.0
H369 H 0.88485 0.3028 0.37822 0.0
H370 H 0.96228 0.30238 0.49804 0.0
C371 C 0.96984 0.33586 0.66755 0.0
O372 O 0.97457 0.3562 0.59696 0.0
N373 N 0.8833 0.29145 0.7356 0.0
C374 C 0.85926 0.29495 0.76367 0.0
C375 C 0.857 0.29322 0.86731 0.0
C376 C 0.895 0.28724 0.82141 0.0
N377 N 0.8797 0.28863 0.90252 0.0
C378 C 0.89687 0.35089 0.53914 0.0
C379 C 0.93102 0.39192 0.69003 0.0
C380 C 0.91894 0.40207 0.61278 0.0
C381 C 0.90115 0.3807 0.53801 0.0
C382 C 0.9253 0.36136 0.68989 0.0
N383 N 0.91 0.34178 0.61154 0.0
H384 H 0.88209 0.33492 0.48274 0.0
H385 H 0.93345 0.35365 0.75256 0.0
H386 H 0.84585 0.30066 0.71319 0.0
H387 H 0.91558 0.28525 0.82587 0.0
O388 O 0.86227 0.28035 0.54324 0.0
O389 O 0.88627 0.2549 0.58461 0.0
O390 O 0.94341 0.31123 0.67468 0.0
C391 C 0.86232 0.25438 0.54281 0.0
H392 H 0.96577 0.30247 0.2989 0.0
H393 H 0.84164 0.29749 0.91341 0.0
H394 H 0.94492 0.4073 0.74995 0.0
H395 H 0.88996 0.3867 0.47951 0.0
C396 C 0.09179 0.55714 0.15798 0.0
C397 C 0.09847 0.57603 0.07259 0.0
C398 C 0.09217 0.52924 0.15363 0.0
C399 C 0.09953 0.51915 0.06399 0.0
H400 H 0.08756 0.56455 0.22995 0.0
H401 H 0.08744 0.51585 0.22207 0.0
S402 S 0.11544 0.55863 0.8163 0.0
N403 N 0.10915 0.58098 0.89283 0.0
N404 N 0.11185 0.52967 0.88607 0.0
C405 C 0.10478 0.53712 0.97682 0.0
C406 C 0.10384 0.56527 0.98088 0.0
C407 C 0.53981 0.09041 0.3457 0.0
C408 C 0.52529 0.09318 0.25886 0.0
C409 C 0.56784 0.09032 0.33984 0.0
C410 C 0.58303 0.09363 0.24714 0.0
H411 H 0.53021 0.0896 0.41945 0.0
H412 H 0.57807 0.08842 0.40939 0.0
S413 S 0.55258 0.0978 0.9958 0.0
N414 N 0.52601 0.09497 0.07577 0.0
N415 N 0.57996 0.09779 0.06535 0.0
C416 C 0.56795 0.09492 0.15912 0.0
C417 C 0.5389 0.09406 0.16493 0.0
C418 C 0.46148 0.53602 0.46977 0.0
C419 C 0.43955 0.52615 0.39175 0.0
C420 C 0.48941 0.56422 0.46333 0.0
C421 C 0.49659 0.58348 0.3783 0.0
H422 H 0.45638 0.52259 0.53828 0.0
H423 H 0.50518 0.57144 0.52671 0.0
S424 S 0.44818 0.56647 0.14925 0.0
N425 N 0.42791 0.53642 0.22332 0.0
N426 N 0.48019 0.58961 0.21179 0.0
C427 C 0.47556 0.57304 0.29752 0.0
C428 C 0.44708 0.54437 0.30422 0.0
C429 C 0.9276 0.44916 0.51651 0.0
C430 C 0.92338 0.43405 0.60983 0.0
C431 C 0.9275 0.47715 0.50857 0.0
C432 C 0.92359 0.49156 0.59384 0.0
H433 H 0.93009 0.43879 0.44808 0.0
H434 H 0.92905 0.48676 0.43434 0.0
S435 S 0.91619 0.46432 0.85793 0.0
N436 N 0.91742 0.43714 0.7906 0.0
N437 N 0.91954 0.49076 0.77645 0.0
C438 C 0.92174 0.478 0.68858 0.0
C439 C 0.92116 0.44911 0.69647 0.0
C440 C 0.45974 0.92743 0.69499 0.0
C441 C 0.44074 0.92003 0.78047 0.0
C442 C 0.48776 0.92726 0.69817 0.0
C443 C 0.49786 0.91936 0.7866 0.0
H444 H 0.45235 0.9321 0.62377 0.0
H445 H 0.50125 0.93265 0.62971 0.0
S446 S 0.45811 0.90146 0.03431 0.0
N447 N 0.43572 0.90813 0.95934 0.0
N448 N 0.48717 0.90569 0.96369 0.0
C449 C 0.47975 0.91333 0.87395 0.0
C450 C 0.45151 0.91411 0.87116 0.0
C451 C 0.55657 0.48952 0.9316 0.0
C452 C 0.58468 0.48965 0.91989 0.0
C453 C 0.52803 0.46165 0.92775 0.0
C454 C 0.52688 0.43315 0.91331 0.0
H455 H 0.55667 0.51109 0.94261 0.0
H456 H 0.50682 0.46228 0.93816 0.0
S457 S 0.59386 0.42108 0.88035 0.0
N458 N 0.60948 0.45888 0.89415 0.0
N459 N 0.55608 0.40676 0.88733 0.0
C460 C 0.55481 0.43309 0.90167 0.0
C461 C 0.58366 0.46127 0.90493 0.0
C462 C 0.0277 0.38565 0.86828 0.0
C463 C 0.03096 0.36424 0.92829 0.0
C464 C 1.00906 0.37631 0.78178 0.0
C465 C 0.99208 0.34498 0.75299 0.0
H466 H 0.0394 0.40989 0.88867 0.0
H467 H 1.00705 0.39375 0.73935 0.0
S468 S 0.99217 0.27962 0.8857 0.0
N469 N 0.01611 0.3104 0.95241 0.0
N470 N 0.97968 0.29243 0.79247 0.0
C471 C 0.99499 0.32325 0.81271 0.0
C472 C 0.0148 0.33297 0.89947 0.0
C473 C 0.68155 0.99864 0.96451 0.0
C474 C 0.65272 0.98934 0.91872 0.0
C475 C 0.69062 0.01676 0.05323 0.0
C476 C 0.6704 0.02451 0.10256 0.0
H477 H 0.69737 0.99234 0.93061 0.0
H478 H 0.71342 0.02443 0.08408 0.0
S479 S 0.59189 1.00468 0.01581 0.0
N480 N 0.60454 0.99019 0.92855 0.0
N481 N 0.61983 0.02045 0.10016 0.0
C482 C 0.64118 0.01438 0.0591 0.0
C483 C 0.6328 0.99778 0.96606 0.0
C484 C 0.63645 0.63707 0.21969 0.0
C485 C 0.65152 0.66856 0.24723 0.0
C486 C 0.64487 0.62704 0.13282 0.0
C487 C 0.6692 0.64792 0.07071 0.0
H488 H 0.61715 0.62001 0.2636 0.0
H489 H 0.632 0.60267 0.11379 0.0
S490 S 0.717 0.73255 0.11001 0.0
N491 N 0.69235 0.72057 0.20504 0.0
N492 N 0.70892 0.70134 0.04373 0.0
C493 C 0.68512 0.67929 0.09838 0.0
C494 C 0.67605 0.68971 0.18587 0.0
C495 C 0.01752 0.65534 0.42502 0.0
C496 C 0.98925 0.65526 0.42099 0.0
C497 C 0.03825 0.6657 0.34346 0.0
C498 C 0.03159 0.6762 0.25374 0.0
H499 H 0.02343 0.64647 0.49058 0.0
H500 H 0.05926 0.66451 0.34973 0.0
S501 S 0.96329 0.68512 0.20812 0.0
N502 N 0.9579 0.67058 0.32276 0.0
N503 N 0.99608 0.68828 0.16818 0.0
C504 C 1.00407 0.67729 0.24942 0.0
C505 C 0.98321 0.66739 0.33333 0.0
C506 C 0.36042 0.99715 0.42039 0.0
C507 C 0.36039 0.0254 0.42085 0.0
C508 C 0.34893 0.97658 0.50223 0.0
C509 C 0.33753 0.98364 0.58929 0.0
H510 H 0.37032 0.99119 0.3577 0.0
H511 H 0.35019 0.95554 0.49874 0.0
S512 S 0.32676 0.05133 0.62265 0.0
N513 N 0.34281 0.05641 0.51043 0.0
N514 N 0.32346 0.01887 0.66655 0.0
C515 C 0.33566 0.01076 0.58885 0.0
C516 C 0.34651 0.03132 0.50423 0.0
C517 C 0.36272 0.37019 0.77457 0.0
C518 C 0.35955 0.34056 0.78364 0.0
C519 C 0.35154 0.37845 0.68981 0.0
C520 C 0.33715 0.35766 0.60934 0.0
H521 H 0.37477 0.38758 0.83198 0.0
H522 H 0.35514 0.40172 0.68591 0.0
S523 S 0.31838 0.27581 0.60184 0.0
N524 N 0.33667 0.28903 0.70992 0.0
N525 N 0.31758 0.30527 0.54848 0.0
C526 C 0.33266 0.32765 0.61893 0.0
C527 C 0.34329 0.31893 0.7065 0.0
C528 C 0.17826 0.37522 0.27371 0.0
C529 C 0.18319 0.39644 0.19612 0.0
C530 C 0.20322 0.37797 0.33227 0.0
C531 C 0.23375 0.40209 0.31498 0.0
H532 H 0.15491 0.35757 0.29301 0.0
H533 H 0.19843 0.36197 0.39373 0.0
S534 S 0.25887 0.45959 0.10682 0.0
N535 N 0.22083 0.43953 0.0969 0.0
N536 N 0.26747 0.44457 0.20351 0.0
C537 C 0.23885 0.42192 0.23242 0.0
C538 C 0.21364 0.41915 0.17399 0.0
C539 C 0.78899 0.20566 0.39228 0.0
C540 C 0.78919 0.17811 0.37157 0.0
C541 C 0.81245 0.22954 0.44869 0.0
C542 C 0.83739 0.22718 0.488 0.0
H543 H 0.77033 0.20888 0.36505 0.0
H544 H 0.81084 0.25014 0.46141 0.0
S545 S 0.8491 0.15981 0.45612 0.0
N546 N 0.81653 0.14967 0.39513 0.0
N547 N 0.86098 0.19486 0.5014 0.0
C548 C 0.83813 0.19982 0.46774 0.0
C549 C 0.81405 0.17529 0.40936 0.0
C550 C 0.59293 0.80907 0.62716 0.0
C551 C 0.62052 0.83719 0.64318 0.0
C552 C 0.59225 0.78534 0.56914 0.0
C553 C 0.61911 0.78845 0.52329 0.0
H554 H 0.57134 0.80533 0.65903 0.0
H555 H 0.57015 0.76432 0.55997 0.0
S556 S 0.69766 0.85748 0.54175 0.0
N557 N 0.6757 0.86691 0.60887 0.0
N558 N 0.67449 0.82204 0.49938 0.0
C559 C 0.64711 0.81632 0.53945 0.0
C560 C 0.64781 0.84068 0.59952 0.0
C561 C 0.80565 0.6368 0.72768 0.0
C562 C 0.78796 0.61448 0.80085 0.0
C563 C 0.82839 0.63449 0.67096 0.0
C564 C 0.83399 0.6097 0.68543 0.0
H565 H 0.80095 0.65531 0.71109 0.0
H566 H 0.84104 0.65171 0.61383 0.0
S567 S 0.79635 0.54776 0.87834 0.0
N568 N 0.77934 0.56866 0.89086 0.0
N569 N 0.82177 0.56428 0.78693 0.0
C570 C 0.81728 0.58819 0.76218 0.0
C571 C 0.79434 0.59058 0.81907 0.0
C572 C 0.23439 0.80345 0.88997 0.0
C573 C 0.23292 0.82969 0.85993 0.0
C574 C 0.21194 0.78092 0.95237 0.0
C575 C 0.18669 0.78329 0.98843 0.0
H576 H 0.25329 0.80021 0.86549 0.0
H577 H 0.21446 0.76121 0.97182 0.0
S578 S 0.17193 0.84771 0.93387 0.0
N579 N 0.20429 0.8572 0.87247 0.0
N580 N 0.16148 0.81426 0.98939 0.0
C581 C 0.18474 0.80943 0.95952 0.0
C582 C 0.20789 0.83266 0.89514 0.0
C583 C 0.43461 0.21025 0.14276 0.0
C584 C 0.40713 0.18311 0.16875 0.0
C585 C 0.43426 0.23351 0.08512 0.0
C586 C 0.40642 0.2308 0.0497 0.0
H587 H 0.45684 0.21365 0.16687 0.0
H588 H 0.45626 0.25392 0.06835 0.0
S589 S 0.3278 0.1641 0.095 0.0
N590 N 0.35105 0.15457 0.1536 0.0
N591 N 0.35037 0.19854 0.04491 0.0
C592 C 0.37861 0.20374 0.07465 0.0
C593 C 0.37897 0.17992 0.1344 0.0
C594 C 0.08803 0.38465 0.56715 0.0
C595 C 0.10882 0.39224 0.48675 0.0
C596 C 0.09871 0.39125 0.66655 0.0
C597 C 0.13056 0.40561 0.68865 0.0
H598 H 0.06347 0.37442 0.55275 0.0
H599 H 0.08203 0.38593 0.72627 0.0
S600 S 0.19414 0.42664 0.50708 0.0
N601 N 0.16258 0.41222 0.43715 0.0
N602 N 0.1824 0.42501 0.62417 0.0
C603 C 0.15145 0.41237 0.60961 0.0
C604 C 0.14065 0.40554 0.50854 0.0
C605 C 0.70215 0.12452 0.79385 0.0
C606 C 0.72519 0.12535 0.85683 0.0
C607 C 0.69764 0.11235 0.69635 0.0
C608 C 0.71587 0.10043 0.65833 0.0
H609 H 0.68706 0.13273 0.82078 0.0
H610 H 0.67964 0.11211 0.65016 0.0
S611 S 0.78086 0.09948 0.79004 0.0
N612 N 0.76749 0.11469 0.87258 0.0
N613 N 0.75893 0.09175 0.68892 0.0
C614 C 0.73919 0.10138 0.71997 0.0
C615 C 0.74387 0.11388 0.81928 0.0
C616 C 0.6183 0.74163 0.82607 0.0
C617 C 0.62157 0.71597 0.80116 0.0
C618 C 0.61133 0.74608 0.92479 0.0
C619 C 0.60741 0.72492 1.00067 0.0
H620 H 0.62114 0.75826 0.76868 0.0
H621 H 0.60917 0.76612 0.94229 0.0
S622 S 0.60889 0.65195 0.96972 0.0
N623 N 0.61765 0.66801 0.85709 0.0
N624 N 0.60444 0.67621 0.04297 0.0
C625 C 0.60993 0.6989 0.97597 0.0
C626 C 0.6171 0.69448 0.87594 0.0
C627 C 0.90211 0.62994 0.02497 0.0
C628 C 0.90868 0.61104 0.96301 0.0
C629 C 0.89038 0.62062 0.12268 0.0
C630 C 0.88467 0.59205 0.16194 0.0
H631 H 0.90552 0.6518 0.99711 0.0
H632 H 0.88559 0.6358 0.16793 0.0
S633 S 0.9008 0.53552 0.03331 0.0
N634 N 0.91039 0.56338 0.95 0.0
N635 N 0.8885 0.54593 0.13326 0.0
C636 C 0.89162 0.57319 0.10124 0.0
C637 C 0.90359 0.58269 1.00199 0.0
C638 C 0.3258 0.88985 0.28299 0.0
C639 C 0.29974 0.88131 0.34418 0.0
C640 C 0.32736 0.90097 0.18484 0.0
C641 C 0.30296 0.90398 0.14411 0.0
H642 H 0.3454 0.88859 0.31205 0.0
H643 H 0.34798 0.9076 0.14067 0.0
S644 S 0.22819 0.88138 0.27015 0.0
N645 N 0.24826 0.87469 0.35522 0.0
N646 N 0.25082 0.89496 0.17044 0.0
C647 C 0.27644 0.89477 0.20387 0.0
C648 C 0.27495 0.88361 0.30391 0.0
C649 C 0.38897 0.27727 0.49487 0.0
C650 C 0.41892 0.29737 0.53232 0.0
C651 C 0.38025 0.28091 0.39759 0.0
C652 C 0.40123 0.30479 0.33445 0.0
H653 H 0.37227 0.25845 0.54105 0.0
H654 H 0.35728 0.26452 0.37067 0.0
S655 S 0.48105 0.36568 0.39987 0.0
N656 N 0.46858 0.34355 0.50089 0.0
N657 N 0.45231 0.35006 0.3181 0.0
C658 C 0.43091 0.32545 0.37175 0.0
C659 C 0.43977 0.32181 0.47055 0.0
C660 C 0.62538 0.92182 0.18073 0.0
C661 C 0.61298 0.89018 0.15833 0.0
C662 C 0.63214 0.9326 0.28003 0.0
C663 C 0.6267 0.91209 0.35981 0.0
H664 H 0.62901 0.93815 0.12135 0.0
H665 H 0.64072 0.95691 0.295 0.0
S666 S 0.59868 0.82792 0.33793 0.0
N667 N 0.59806 0.8391 0.22149 0.0
N668 N 0.61142 0.85927 0.40836 0.0
C669 C 0.61561 0.88063 0.33756 0.0
C670 C 0.60851 0.86969 0.23667 0.0
C671 C 0.70338 0.58148 0.37172 0.0
C672 C 0.72452 0.60466 0.30687 0.0
C673 C 0.69818 0.58866 0.46887 0.0
C674 C 0.7137 0.61928 0.50468 0.0
H675 H 0.69026 0.55768 0.34663 0.0
H676 H 0.68178 0.57012 0.51668 0.0
S677 S 0.77282 0.6882 0.36782 0.0
N678 N 0.76225 0.65936 0.28736 0.0
N679 N 0.75196 0.67278 0.47019 0.0
C680 C 0.73496 0.64271 0.44124 0.0
C681 C 0.74052 0.6354 0.34235 0.0
C682 C 0.10522 0.71105 0.52734 0.0
C683 C 0.13608 0.71937 0.50568 0.0
C684 C 0.09476 0.70848 0.62657 0.0
C685 C 0.11477 0.7142 0.70812 0.0
H686 H 0.08878 0.70591 0.46731 0.0
H687 H 0.07073 0.70149 0.63983 0.0
S688 S 0.19885 0.74152 0.69269 0.0
N689 N 0.18722 0.73636 0.57429 0.0
N690 N 0.16772 0.73195 0.76113 0.0
C691 C 0.14599 0.72377 0.68791 0.0
C692 C 0.1566 0.72626 0.58667 0.0
C693 C 0.42067 0.1484 0.75545 0.0
C694 C 0.42094 0.12908 0.6792 0.0
C695 C 0.41225 0.13735 0.85416 0.0
C696 C 0.4038 0.10668 0.8789 0.0
H697 H 0.42684 0.17201 0.73827 0.0
H698 H 0.41226 0.15276 0.91169 0.0
S699 S 0.40491 0.04859 0.70877 0.0
N700 N 0.41466 0.07896 0.6361 0.0
N701 N 0.39858 0.05817 0.82174 0.0
C702 C 0.4045 0.08741 0.80362 0.0
C703 C 0.41319 0.09865 0.70357 0.0
C704 C 0.27875 0.39701 0.88597 0.0
C705 C 0.30125 0.42551 0.84598 0.0
C706 C 0.2813 0.38824 0.98416 0.0
C707 C 0.30681 0.40739 0.0461 0.0
H708 H 0.25899 0.38138 0.84065 0.0
H709 H 0.26292 0.3663 0.01167 0.0
S710 S 0.3731 0.48375 0.97381 0.0
N711 N 0.35026 0.47263 0.87409 0.0
N712 N 0.35559 0.45592 0.05778 0.0
C713 C 0.32957 0.436 1.00655 0.0
C714 C 0.32669 0.44509 0.9068 0.0
C715 C 0.88357 0.27596 0.17838 0.0
C716 C 0.91336 0.30016 0.20347 0.0
C717 C 0.8724 0.27232 0.07958 0.0
C718 C 0.89075 0.29282 1.00382 0.0
H719 H 0.86895 0.25983 0.23567 0.0
H720 H 0.84952 0.25336 0.06188 0.0
S721 S 0.9681 0.36224 0.03511 0.0
N722 N 0.95962 0.34621 0.14781 0.0
N723 N 0.93866 0.33952 0.96163 0.0
C724 C 0.9202 0.31744 0.02866 0.0
C725 C 0.93154 0.32105 0.12881 0.0
loop_
_geom_bond_atom_site_label_1
_geom_bond_atom_site_label_2
_geom_bond_distance
_geom_bond_site_symmetry_2
_ccdc_geom_bond_type
Co0 N4 2.148 . S
Co0 N10 2.128 1_554 S
Co0 N20 2.194 . S
Co0 O25 2.351 . S
Co0 O26 2.155 . S
Co0 O27 2.096 . S
C1 N4 1.301 . S
C1 N5 1.328 . S
C1 H6 0.930 . S
C2 C3 1.333 . S
C2 N4 1.317 . S
C2 H7 0.930 . S
C3 C2 1.333 . S
C3 N5 1.350 . S
C3 H29 0.931 . S
N4 Co0 2.148 . S
N4 C1 1.301 . S
N4 C2 1.317 . S
N5 C1 1.328 . S
N5 C3 1.350 . S
H6 C1 0.930 . S
H7 C2 0.930 . S
C8 O9 1.224 . S
C8 O27 1.247 1_556 S
O9 C8 1.224 . S
N10 Co0 2.128 1_556 S
N10 C11 1.355 . S
N10 C13 1.311 . S
C11 N10 1.355 . S
C11 C12 1.363 . S
C11 H23 0.929 . S
C12 C11 1.363 . S
C12 N14 1.375 . S
C12 H30 0.931 . S
C13 N10 1.311 . S
C13 N14 1.347 . S
C13 H24 0.929 . S
N14 C12 1.375 . S
N14 C13 1.347 . S
C15 C18 1.365 . S
C15 N20 1.328 . S
C15 H21 0.929 . S
C16 C17 1.362 . S
C16 C19 1.378 . S
C16 H31 0.929 . S
C17 C16 1.362 . S
C17 C18 1.366 . S
C18 C15 1.365 . S
C18 C17 1.366 . S
C18 H32 0.930 . S
C19 C16 1.378 . S
C19 N20 1.315 . S
C19 H22 0.930 . S
N20 Co0 2.194 . S
N20 C15 1.328 . S
N20 C19 1.315 . S
H21 C15 0.929 . S
H22 C19 0.930 . S
H23 C11 0.929 . S
H24 C13 0.929 . S
O25 Co0 2.351 . S
O25 C28 1.244 . S
O26 Co0 2.155 . S
O26 C28 1.240 . S
O27 Co0 2.096 . S
O27 C8 1.247 1_554 S
C28 O25 1.244 . S
C28 O26 1.240 . S
H29 C3 0.931 . S
H30 C12 0.931 . S
H31 C16 0.929 . S
H32 C18 0.930 . S
Co33 N37 2.148 . S
Co33 N43 2.128 . S
Co33 N53 2.194 . S
Co33 O58 2.351 . S
Co33 O59 2.155 . S
Co33 O60 2.096 . S
C34 N37 1.301 . S
C34 N38 1.328 . S
C34 H39 0.930 . S
C35 C36 1.333 . S
C35 N37 1.317 . S
C35 H40 0.930 . S
C36 C35 1.333 . S
C36 N38 1.350 . S
C36 H62 0.931 . S
N37 Co33 2.148 . S
N37 C34 1.301 . S
N37 C35 1.317 . S
N38 C34 1.328 . S
N38 C36 1.350 . S
H39 C34 0.930 . S
H40 C35 0.930 . S
C41 O42 1.224 . S
C41 O60 1.247 . S
O42 C41 1.224 . S
N43 Co33 2.128 . S
N43 C44 1.355 . S
N43 C46 1.311 1_554 S
C44 N43 1.355 . S
C44 C45 1.363 1_554 S
C44 H56 0.929 . S
C45 C44 1.363 1_556 S
C45 N47 1.375 . S
C45 H63 0.931 . S
C46 N43 1.311 1_556 S
C46 N47 1.347 . S
C46 H57 0.929 . S
N47 C45 1.375 . S
N47 C46 1.347 . S
C48 C51 1.365 . S
C48 N53 1.328 . S
C48 H54 0.929 . S
C49 C50 1.362 . S
C49 C52 1.378 . S
C49 H64 0.929 . S
C50 C49 1.362 . S
C50 C51 1.366 . S
C51 C48 1.365 . S
C51 C50 1.366 . S
C51 H65 0.930 . S
C52 C49 1.378 . S
C52 N53 1.315 . S
C52 H55 0.930 . S
N53 Co33 2.194 . S
N53 C48 1.328 . S
N53 C52 1.315 . S
H54 C48 0.929 . S
H55 C52 0.930 . S
H56 C44 0.929 . S
H57 C46 0.929 . S
O58 Co33 2.351 . S
O58 C61 1.244 . S
O59 Co33 2.155 . S
O59 C61 1.240 . S
O60 Co33 2.096 . S
O60 C41 1.247 . S
C61 O58 1.244 . S
C61 O59 1.240 . S
H62 C36 0.931 . S
H63 C45 0.931 . S
H64 C49 0.929 . S
H65 C51 0.930 . S
Co66 N70 2.148 . S
Co66 N76 2.128 . S
Co66 N86 2.194 . S
Co66 O91 2.351 . S
Co66 O92 2.155 . S
Co66 O93 2.096 . S
C67 N70 1.301 . S
C67 N71 1.328 . S
C67 H72 0.930 . S
C68 C69 1.333 . S
C68 N70 1.317 . S
C68 H73 0.930 . S
C69 C68 1.333 . S
C69 N71 1.350 . S
C69 H95 0.931 . S
N70 Co66 2.148 . S
N70 C67 1.301 . S
N70 C68 1.317 . S
N71 C67 1.328 . S
N71 C69 1.350 . S
H72 C67 0.930 . S
H73 C68 0.930 . S
C74 O75 1.224 . S
C74 O93 1.247 . S
O75 C74 1.224 . S
N76 Co66 2.128 . S
N76 C77 1.355 . S
N76 C79 1.311 . S
C77 N76 1.355 . S
C77 C78 1.363 . S
C77 H89 0.929 . S
C78 C77 1.363 . S
C78 N80 1.375 . S
C78 H96 0.931 . S
C79 N76 1.311 . S
C79 N80 1.347 . S
C79 H90 0.929 . S
N80 C78 1.375 . S
N80 C79 1.347 . S
C81 C84 1.365 . S
C81 N86 1.328 . S
C81 H87 0.929 . S
C82 C83 1.362 . S
C82 C85 1.378 . S
C82 H97 0.929 . S
C83 C82 1.362 . S
C83 C84 1.366 . S
C84 C81 1.365 . S
C84 C83 1.366 . S
C84 H98 0.930 . S
C85 C82 1.378 . S
C85 N86 1.315 . S
C85 H88 0.930 . S
N86 Co66 2.194 . S
N86 C81 1.328 . S
N86 C85 1.315 . S
H87 C81 0.929 . S
H88 C85 0.930 . S
H89 C77 0.929 . S
H90 C79 0.929 . S
O91 Co66 2.351 . S
O91 C94 1.244 . S
O92 Co66 2.155 . S
O92 C94 1.240 . S
O93 Co66 2.096 . S
O93 C74 1.247 . S
C94 O91 1.244 . S
C94 O92 1.240 . S
H95 C69 0.931 . S
H96 C78 0.931 . S
H97 C82 0.929 . S
H98 C84 0.930 . S
Co99 N103 2.148 . S
Co99 N109 2.128 . S
Co99 N119 2.194 . S
Co99 O124 2.351 . S
Co99 O125 2.155 . S
Co99 O126 2.096 . S
C100 N103 1.301 . S
C100 N104 1.328 . S
C100 H105 0.930 . S
C101 C102 1.333 . S
C101 N103 1.317 . S
C101 H106 0.930 . S
C102 C101 1.333 . S
C102 N104 1.350 . S
C102 H128 0.931 . S
N103 Co99 2.148 . S
N103 C100 1.301 . S
N103 C101 1.317 . S
N104 C100 1.328 . S
N104 C102 1.350 . S
H105 C100 0.930 . S
H106 C101 0.930 . S
C107 O108 1.224 . S
C107 O126 1.247 . S
O108 C107 1.224 . S
N109 Co99 2.128 . S
N109 C110 1.355 . S
N109 C112 1.311 . S
C110 N109 1.355 . S
C110 C111 1.363 . S
C110 H122 0.929 . S
C111 C110 1.363 . S
C111 N113 1.375 . S
C111 H129 0.931 . S
C112 N109 1.311 . S
C112 N113 1.347 . S
C112 H123 0.929 . S
N113 C111 1.375 . S
N113 C112 1.347 . S
C114 C117 1.365 . S
C114 N119 1.328 . S
C114 H120 0.929 . S
C115 C116 1.362 . S
C115 C118 1.378 . S
C115 H130 0.929 . S
C116 C115 1.362 . S
C116 C117 1.366 . S
C117 C114 1.365 . S
C117 C116 1.366 . S
C117 H131 0.930 . S
C118 C115 1.378 . S
C118 N119 1.315 . S
C118 H121 0.930 . S
N119 Co99 2.194 . S
N119 C114 1.328 . S
N119 C118 1.315 . S
H120 C114 0.929 . S
H121 C118 0.930 . S
H122 C110 0.929 . S
H123 C112 0.929 . S
O124 Co99 2.351 . S
O124 C127 1.244 . S
O125 Co99 2.155 . S
O125 C127 1.240 . S
O126 Co99 2.096 . S
O126 C107 1.247 . S
C127 O124 1.244 . S
C127 O125 1.240 . S
H128 C102 0.931 . S
H129 C111 0.931 . S
H130 C115 0.929 . S
H131 C117 0.930 . S
Co132 N136 2.148 . S
Co132 N142 2.128 . S
Co132 N152 2.194 . S
Co132 O157 2.351 . S
Co132 O158 2.155 . S
Co132 O159 2.096 . S
C133 N136 1.301 . S
C133 N137 1.328 1_556 S
C133 H138 0.930 . S
C134 C135 1.333 . S
C134 N136 1.317 . S
C134 H139 0.930 . S
C135 C134 1.333 . S
C135 N137 1.350 1_556 S
C135 H161 0.931 1_556 S
N136 Co132 2.148 . S
N136 C133 1.301 . S
N136 C134 1.317 . S
N137 C133 1.328 1_554 S
N137 C135 1.350 1_554 S
H138 C133 0.930 . S
H139 C134 0.930 . S
C140 O141 1.224 . S
C140 O159 1.247 . S
O141 C140 1.224 . S
N142 Co132 2.128 . S
N142 C143 1.355 . S
N142 C145 1.311 . S
C143 N142 1.355 . S
C143 C144 1.363 . S
C143 H155 0.929 . S
C144 C143 1.363 . S
C144 N146 1.375 . S
C144 H162 0.931 . S
C145 N142 1.311 . S
C145 N146 1.347 . S
C145 H156 0.929 . S
N146 C144 1.375 . S
N146 C145 1.347 . S
C147 C150 1.365 . S
C147 N152 1.328 . S
C147 H153 0.929 . S
C148 C149 1.362 . S
C148 C151 1.378 . S
C148 H163 0.929 . S
C149 C148 1.362 . S
C149 C150 1.366 . S
C150 C147 1.365 . S
C150 C149 1.366 . S
C150 H164 0.930 . S
C151 C148 1.378 . S
C151 N152 1.315 . S
C151 H154 0.930 . S
N152 Co132 2.194 . S
N152 C147 1.328 . S
N152 C151 1.315 . S
H153 C147 0.929 . S
H154 C151 0.930 . S
H155 C143 0.929 . S
H156 C145 0.929 . S
O157 Co132 2.351 . S
O157 C160 1.244 . S
O158 Co132 2.155 . S
O158 C160 1.240 . S
O159 Co132 2.096 . S
O159 C140 1.247 . S
C160 O157 1.244 . S
C160 O158 1.240 . S
H161 C135 0.931 1_554 S
H162 C144 0.931 . S
H163 C148 0.929 . S
H164 C150 0.930 . S
Co165 N169 2.148 1_556 S
Co165 N175 2.128 . S
Co165 N185 2.194 . S
Co165 O190 2.351 . S
Co165 O191 2.155 . S
Co165 O192 2.096 . S
C166 N169 1.301 . S
C166 N170 1.328 . S
C166 H171 0.930 . S
C167 C168 1.333 . S
C167 N169 1.317 . S
C167 H172 0.930 . S
C168 C167 1.333 . S
C168 N170 1.350 . S
C168 H194 0.931 . S
N169 Co165 2.148 1_554 S
N169 C166 1.301 . S
N169 C167 1.317 . S
N170 C166 1.328 . S
N170 C168 1.350 . S
H171 C166 0.930 . S
H172 C167 0.930 . S
C173 O174 1.224 . S
C173 O192 1.247 . S
O174 C173 1.224 . S
N175 Co165 2.128 . S
N175 C176 1.355 . S
N175 C178 1.311 . S
C176 N175 1.355 . S
C176 C177 1.363 . S
C176 H188 0.929 . S
C177 C176 1.363 . S
C177 N179 1.375 . S
C177 H195 0.931 . S
C178 N175 1.311 . S
C178 N179 1.347 . S
C178 H189 0.929 . S
N179 C177 1.375 . S
N179 C178 1.347 . S
C180 C183 1.365 . S
C180 N185 1.328 . S
C180 H186 0.929 . S
C181 C182 1.362 . S
C181 C184 1.378 . S
C181 H196 0.929 . S
C182 C181 1.362 . S
C182 C183 1.366 . S
C183 C180 1.365 . S
C183 C182 1.366 . S
C183 H197 0.930 . S
C184 C181 1.378 . S
C184 N185 1.315 . S
C184 H187 0.930 . S
N185 Co165 2.194 . S
N185 C180 1.328 . S
N185 C184 1.315 . S
H186 C180 0.929 . S
H187 C184 0.930 . S
H188 C176 0.929 . S
H189 C178 0.929 . S
O190 Co165 2.351 . S
O190 C193 1.244 . S
O191 Co165 2.155 . S
O191 C193 1.240 . S
O192 Co165 2.096 . S
O192 C173 1.247 . S
C193 O190 1.244 . S
C193 O191 1.240 . S
H194 C168 0.931 . S
H195 C177 0.931 . S
H196 C181 0.929 . S
H197 C183 0.930 . S
Co198 N202 2.148 . S
Co198 N208 2.128 . S
Co198 N218 2.194 . S
Co198 O223 2.351 . S
Co198 O224 2.155 . S
Co198 O225 2.096 . S
C199 N202 1.301 . S
C199 N203 1.328 . S
C199 H204 0.930 . S
C200 C201 1.333 . S
C200 N202 1.317 . S
C200 H205 0.930 . S
C201 C200 1.333 . S
C201 N203 1.350 . S
C201 H227 0.931 . S
N202 Co198 2.148 . S
N202 C199 1.301 . S
N202 C200 1.317 . S
N203 C199 1.328 . S
N203 C201 1.350 . S
H204 C199 0.930 . S
H205 C200 0.930 . S
C206 O207 1.224 . S
C206 O225 1.247 . S
O207 C206 1.224 . S
N208 Co198 2.128 . S
N208 C209 1.355 . S
N208 C211 1.311 1_556 S
C209 N208 1.355 . S
C209 C210 1.363 1_556 S
C209 H221 0.929 . S
C210 C209 1.363 1_554 S
C210 N212 1.375 . S
C210 H228 0.931 . S
C211 N208 1.311 1_554 S
C211 N212 1.347 . S
C211 H222 0.929 . S
N212 C210 1.375 . S
N212 C211 1.347 . S
C213 C216 1.365 . S
C213 N218 1.328 . S
C213 H219 0.929 . S
C214 C215 1.362 . S
C214 C217 1.378 . S
C214 H229 0.929 . S
C215 C214 1.362 . S
C215 C216 1.366 . S
C216 C213 1.365 . S
C216 C215 1.366 . S
C216 H230 0.930 . S
C217 C214 1.378 . S
C217 N218 1.315 . S
C217 H220 0.930 . S
N218 Co198 2.194 . S
N218 C213 1.328 . S
N218 C217 1.315 . S
H219 C213 0.929 . S
H220 C217 0.930 . S
H221 C209 0.929 . S
H222 C211 0.929 . S
O223 Co198 2.351 . S
O223 C226 1.244 . S
O224 Co198 2.155 . S
O224 C226 1.240 . S
O225 Co198 2.096 . S
O225 C206 1.247 . S
C226 O223 1.244 . S
C226 O224 1.240 . S
H227 C201 0.931 . S
H228 C210 0.931 . S
H229 C214 0.929 . S
H230 C216 0.930 . S
Co231 N235 2.148 . S
Co231 N241 2.128 1_556 S
Co231 N251 2.194 . S
Co231 O256 2.351 . S
Co231 O257 2.155 . S
Co231 O258 2.096 . S
C232 N235 1.301 . S
C232 N236 1.328 . S
C232 H237 0.930 . S
C233 C234 1.333 . S
C233 N235 1.317 . S
C233 H238 0.930 . S
C234 C233 1.333 . S
C234 N236 1.350 . S
C234 H260 0.931 . S
N235 Co231 2.148 . S
N235 C232 1.301 . S
N235 C233 1.317 . S
N236 C232 1.328 . S
N236 C234 1.350 . S
H237 C232 0.930 . S
H238 C233 0.930 . S
C239 O240 1.224 . S
C239 O258 1.247 1_554 S
O240 C239 1.224 . S
N241 Co231 2.128 1_554 S
N241 C242 1.355 . S
N241 C244 1.311 . S
C242 N241 1.355 . S
C242 C243 1.363 . S
C242 H254 0.929 . S
C243 C242 1.363 . S
C243 N245 1.375 . S
C243 H261 0.931 . S
C244 N241 1.311 . S
C244 N245 1.347 . S
C244 H255 0.929 . S
N245 C243 1.375 . S
N245 C244 1.347 . S
C246 C249 1.365 . S
C246 N251 1.328 . S
C246 H252 0.929 . S
C247 C248 1.362 . S
C247 C250 1.378 . S
C247 H262 0.929 . S
C248 C247 1.362 . S
C248 C249 1.366 . S
C249 C246 1.365 . S
C249 C248 1.366 . S
C249 H263 0.930 . S
C250 C247 1.378 . S
C250 N251 1.315 . S
C250 H253 0.930 . S
N251 Co231 2.194 . S
N251 C246 1.328 . S
N251 C250 1.315 . S
H252 C246 0.929 . S
H253 C250 0.930 . S
H254 C242 0.929 . S
H255 C244 0.929 . S
O256 Co231 2.351 . S
O256 C259 1.244 . S
O257 Co231 2.155 . S
O257 C259 1.240 . S
O258 Co231 2.096 . S
O258 C239 1.247 1_556 S
C259 O256 1.244 . S
C259 O257 1.240 . S
H260 C234 0.931 . S
H261 C243 0.931 . S
H262 C247 0.929 . S
H263 C249 0.930 . S
Co264 N268 2.148 1_554 S
Co264 N274 2.128 . S
Co264 N284 2.194 . S
Co264 O289 2.351 . S
Co264 O290 2.155 . S
Co264 O291 2.096 . S
C265 N268 1.301 . S
C265 N269 1.328 . S
C265 H270 0.930 . S
C266 C267 1.333 . S
C266 N268 1.317 . S
C266 H271 0.930 . S
C267 C266 1.333 . S
C267 N269 1.350 . S
C267 H293 0.931 . S
N268 Co264 2.148 1_556 S
N268 C265 1.301 . S
N268 C266 1.317 . S
N269 C265 1.328 . S
N269 C267 1.350 . S
H270 C265 0.930 . S
H271 C266 0.930 . S
C272 O273 1.224 . S
C272 O291 1.247 . S
O273 C272 1.224 . S
N274 Co264 2.128 . S
N274 C275 1.355 . S
N274 C277 1.311 . S
C275 N274 1.355 . S
C275 C276 1.363 . S
C275 H287 0.929 . S
C276 C275 1.363 . S
C276 N278 1.375 . S
C276 H294 0.931 . S
C277 N274 1.311 . S
C277 N278 1.347 . S
C277 H288 0.929 . S
N278 C276 1.375 . S
N278 C277 1.347 . S
C279 C282 1.365 . S
C279 N284 1.328 . S
C279 H285 0.929 . S
C280 C281 1.362 . S
C280 C283 1.378 . S
C280 H295 0.929 . S
C281 C280 1.362 . S
C281 C282 1.366 . S
C282 C279 1.365 . S
C282 C281 1.366 . S
C282 H296 0.930 . S
C283 C280 1.378 . S
C283 N284 1.315 . S
C283 H286 0.930 . S
N284 Co264 2.194 . S
N284 C279 1.328 . S
N284 C283 1.315 . S
H285 C279 0.929 . S
H286 C283 0.930 . S
H287 C275 0.929 . S
H288 C277 0.929 . S
O289 Co264 2.351 . S
O289 C292 1.244 . S
O290 Co264 2.155 . S
O290 C292 1.240 . S
O291 Co264 2.096 . S
O291 C272 1.247 . S
C292 O289 1.244 . S
C292 O290 1.240 . S
H293 C267 0.931 . S
H294 C276 0.931 . S
H295 C280 0.929 . S
H296 C282 0.930 . S
Co297 N301 2.148 . S
Co297 N307 2.128 . S
Co297 N317 2.194 . S
Co297 O322 2.351 . S
Co297 O323 2.155 . S
Co297 O324 2.096 . S
C298 N301 1.301 . S
C298 N302 1.328 1_554 S
C298 H303 0.930 . S
C299 C300 1.333 . S
C299 N301 1.317 . S
C299 H304 0.930 . S
C300 C299 1.333 . S
C300 N302 1.350 1_554 S
C300 H326 0.931 1_554 S
N301 Co297 2.148 . S
N301 C298 1.301 . S
N301 C299 1.317 . S
N302 C298 1.328 1_556 S
N302 C300 1.350 1_556 S
H303 C298 0.930 . S
H304 C299 0.930 . S
C305 O306 1.224 . S
C305 O324 1.247 . S
O306 C305 1.224 . S
N307 Co297 2.128 . S
N307 C308 1.355 . S
N307 C310 1.311 . S
C308 N307 1.355 . S
C308 C309 1.363 . S
C308 H320 0.929 . S
C309 C308 1.363 . S
C309 N311 1.375 . S
C309 H327 0.931 . S
C310 N307 1.311 . S
C310 N311 1.347 . S
C310 H321 0.929 . S
N311 C309 1.375 . S
N311 C310 1.347 . S
C312 C315 1.365 . S
C312 N317 1.328 . S
C312 H318 0.929 . S
C313 C314 1.362 . S
C313 C316 1.378 . S
C313 H328 0.929 . S
C314 C313 1.362 . S
C314 C315 1.366 . S
C315 C312 1.365 . S
C315 C314 1.366 . S
C315 H329 0.930 . S
C316 C313 1.378 . S
C316 N317 1.315 . S
C316 H319 0.930 . S
N317 Co297 2.194 . S
N317 C312 1.328 . S
N317 C316 1.315 . S
H318 C312 0.929 . S
H319 C316 0.930 . S
H320 C308 0.929 . S
H321 C310 0.929 . S
O322 Co297 2.351 . S
O322 C325 1.244 . S
O323 Co297 2.155 . S
O323 C325 1.240 . S
O324 Co297 2.096 . S
O324 C305 1.247 . S
C325 O322 1.244 . S
C325 O323 1.240 . S
H326 C300 0.931 1_556 S
H327 C309 0.931 . S
H328 C313 0.929 . S
H329 C315 0.930 . S
Co330 N334 2.148 . S
Co330 N340 2.128 . S
Co330 N350 2.194 . S
Co330 O355 2.351 . S
Co330 O356 2.155 . S
Co330 O357 2.096 . S
C331 N334 1.301 . S
C331 N335 1.328 . S
C331 H336 0.930 . S
C332 C333 1.333 . S
C332 N334 1.317 . S
C332 H337 0.930 . S
C333 C332 1.333 . S
C333 N335 1.350 . S
C333 H359 0.931 . S
N334 Co330 2.148 . S
N334 C331 1.301 . S
N334 C332 1.317 . S
N335 C331 1.328 . S
N335 C333 1.350 . S
H336 C331 0.930 . S
H337 C332 0.930 . S
C338 O339 1.224 . S
C338 O357 1.247 . S
O339 C338 1.224 . S
N340 Co330 2.128 . S
N340 C341 1.355 . S
N340 C343 1.311 . S
C341 N340 1.355 . S
C341 C342 1.363 . S
C341 H353 0.929 . S
C342 C341 1.363 . S
C342 N344 1.375 . S
C342 H360 0.931 . S
C343 N340 1.311 . S
C343 N344 1.347 . S
C343 H354 0.929 . S
N344 C342 1.375 . S
N344 C343 1.347 . S
C345 C348 1.365 . S
C345 N350 1.328 . S
C345 H351 0.929 . S
C346 C347 1.362 . S
C346 C349 1.378 . S
C346 H361 0.929 . S
C347 C346 1.362 . S
C347 C348 1.366 . S
C348 C345 1.365 . S
C348 C347 1.366 . S
C348 H362 0.930 . S
C349 C346 1.378 . S
C349 N350 1.315 . S
C349 H352 0.930 . S
N350 Co330 2.194 . S
N350 C345 1.328 . S
N350 C349 1.315 . S
H351 C345 0.929 . S
H352 C349 0.930 . S
H353 C341 0.929 . S
H354 C343 0.929 . S
O355 Co330 2.351 . S
O355 C358 1.244 . S
O356 Co330 2.155 . S
O356 C358 1.240 . S
O357 Co330 2.096 . S
O357 C338 1.247 . S
C358 O355 1.244 . S
C358 O356 1.240 . S
H359 C333 0.931 . S
H360 C342 0.931 . S
H361 C346 0.929 . S
H362 C348 0.930 . S
Co363 N367 2.148 . S
Co363 N373 2.128 . S
Co363 N383 2.194 . S
Co363 O388 2.351 . S
Co363 O389 2.155 . S
Co363 O390 2.096 . S
C364 N367 1.301 . S
C364 N368 1.328 . S
C364 H369 0.930 . S
C365 C366 1.333 . S
C365 N367 1.317 . S
C365 H370 0.930 . S
C366 C365 1.333 . S
C366 N368 1.350 . S
C366 H392 0.931 . S
N367 Co363 2.148 . S
N367 C364 1.301 . S
N367 C365 1.317 . S
N368 C364 1.328 . S
N368 C366 1.350 . S
H369 C364 0.930 . S
H370 C365 0.930 . S
C371 O372 1.224 . S
C371 O390 1.247 . S
O372 C371 1.224 . S
N373 Co363 2.128 . S
N373 C374 1.355 . S
N373 C376 1.311 . S
C374 N373 1.355 . S
C374 C375 1.363 . S
C374 H386 0.929 . S
C375 C374 1.363 . S
C375 N377 1.375 . S
C375 H393 0.931 . S
C376 N373 1.311 . S
C376 N377 1.347 . S
C376 H387 0.929 . S
N377 C375 1.375 . S
N377 C376 1.347 . S
C378 C381 1.365 . S
C378 N383 1.328 . S
C378 H384 0.929 . S
C379 C380 1.362 . S
C379 C382 1.378 . S
C379 H394 0.929 . S
C380 C379 1.362 . S
C380 C381 1.366 . S
C381 C378 1.365 . S
C381 C380 1.366 . S
C381 H395 0.930 . S
C382 C379 1.378 . S
C382 N383 1.315 . S
C382 H385 0.930 . S
N383 Co363 2.194 . S
N383 C378 1.328 . S
N383 C382 1.315 . S
H384 C378 0.929 . S
H385 C382 0.930 . S
H386 C374 0.929 . S
H387 C376 0.929 . S
O388 Co363 2.351 . S
O388 C391 1.244 . S
O389 Co363 2.155 . S
O389 C391 1.240 . S
O390 Co363 2.096 . S
O390 C371 1.247 . S
C391 O388 1.244 . S
C391 O389 1.240 . S
H392 C366 0.931 . S
H393 C375 0.931 . S
H394 C379 0.929 . S
H395 C381 0.930 . S
C396 C397 1.369 . S
C396 C398 1.419 . S
C396 H400 0.930 . S
C397 C396 1.369 . S
C397 C406 1.429 1_554 S
C398 C396 1.419 . S
C398 C399 1.363 . S
C398 H401 0.929 . S
C399 C398 1.363 . S
C399 C405 1.428 1_554 S
H400 C396 0.930 . S
H401 C398 0.929 . S
S402 N403 1.613 . S
S402 N404 1.610 . S
N403 S402 1.613 . S
N403 C406 1.350 . S
N404 S402 1.610 . S
N404 C405 1.351 . S
C405 C399 1.428 1_556 S
C405 N404 1.351 . S
C405 C406 1.434 . S
C406 C397 1.429 1_556 S
C406 N403 1.350 . S
C406 C405 1.434 . S
C407 C408 1.369 . S
C407 C409 1.419 . S
C407 H411 0.930 . S
C408 C407 1.369 . S
C408 C417 1.429 . S
C409 C407 1.419 . S
C409 C410 1.363 . S
C409 H412 0.929 . S
C410 C409 1.363 . S
C410 C416 1.428 . S
H411 C407 0.930 . S
H412 C409 0.929 . S
S413 N414 1.613 . S
S413 N415 1.610 . S
N414 S413 1.613 . S
N414 C417 1.350 . S
N415 S413 1.610 . S
N415 C416 1.351 . S
C416 C410 1.428 . S
C416 N415 1.351 . S
C416 C417 1.434 . S
C417 C408 1.429 . S
C417 N414 1.350 . S
C417 C416 1.434 . S
C418 C419 1.369 . S
C418 C420 1.419 . S
C418 H422 0.930 . S
C419 C418 1.369 . S
C419 C428 1.429 . S
C420 C418 1.419 . S
C420 C421 1.363 . S
C420 H423 0.929 . S
C421 C420 1.363 . S
C421 C427 1.428 . S
H422 C418 0.930 . S
H423 C420 0.929 . S
S424 N425 1.613 . S
S424 N426 1.610 . S
N425 S424 1.613 . S
N425 C428 1.350 . S
N426 S424 1.610 . S
N426 C427 1.351 . S
C427 C421 1.428 . S
C427 N426 1.351 . S
C427 C428 1.434 . S
C428 C419 1.429 . S
C428 N425 1.350 . S
C428 C427 1.434 . S
C429 C430 1.369 . S
C429 C431 1.419 . S
C429 H433 0.930 . S
C430 C429 1.369 . S
C430 C439 1.429 . S
C431 C429 1.419 . S
C431 C432 1.363 . S
C431 H434 0.929 . S
C432 C431 1.363 . S
C432 C438 1.428 . S
H433 C429 0.930 . S
H434 C431 0.929 . S
S435 N436 1.613 . S
S435 N437 1.610 . S
N436 S435 1.613 . S
N436 C439 1.350 . S
N437 S435 1.610 . S
N437 C438 1.351 . S
C438 C432 1.428 . S
C438 N437 1.351 . S
C438 C439 1.434 . S
C439 C430 1.429 . S
C439 N436 1.350 . S
C439 C438 1.434 . S
C440 C441 1.369 . S
C440 C442 1.419 . S
C440 H444 0.930 . S
C441 C440 1.369 . S
C441 C450 1.429 . S
C442 C440 1.419 . S
C442 C443 1.363 . S
C442 H445 0.929 . S
C443 C442 1.363 . S
C443 C449 1.428 . S
H444 C440 0.930 . S
H445 C442 0.929 . S
S446 N447 1.613 1_554 S
S446 N448 1.610 1_554 S
N447 S446 1.613 1_556 S
N447 C450 1.350 . S
N448 S446 1.610 1_556 S
N448 C449 1.351 . S
C449 C443 1.428 . S
C449 N448 1.351 . S
C449 C450 1.434 . S
C450 C441 1.429 . S
C450 N447 1.350 . S
C450 C449 1.434 . S
C451 C452 1.369 . S
C451 C453 1.419 . S
C451 H455 0.930 . S
C452 C451 1.369 . S
C452 C461 1.429 . S
C453 C451 1.419 . S
C453 C454 1.363 . S
C453 H456 0.929 . S
C454 C453 1.363 . S
C454 C460 1.428 . S
H455 C451 0.930 . S
H456 C453 0.929 . S
S457 N458 1.613 . S
S457 N459 1.610 . S
N458 S457 1.613 . S
N458 C461 1.350 . S
N459 S457 1.610 . S
N459 C460 1.351 . S
C460 C454 1.428 . S
C460 N459 1.351 . S
C460 C461 1.434 . S
C461 C452 1.429 . S
C461 N458 1.350 . S
C461 C460 1.434 . S
C462 C463 1.369 . S
C462 C464 1.419 1_455 S
C462 H466 0.930 . S
C463 C462 1.369 . S
C463 C472 1.429 . S
C464 C462 1.419 1_655 S
C464 C465 1.363 . S
C464 H467 0.929 . S
C465 C464 1.363 . S
C465 C471 1.428 . S
H466 C462 0.930 . S
H467 C464 0.929 . S
S468 N469 1.613 1_655 S
S468 N470 1.610 . S
N469 S468 1.613 1_455 S
N469 C472 1.350 . S
N470 S468 1.610 . S
N470 C471 1.351 . S
C471 C465 1.428 . S
C471 N470 1.351 . S
C471 C472 1.434 1_655 S
C472 C463 1.429 . S
C472 N469 1.350 . S
C472 C471 1.434 1_455 S
C473 C474 1.369 . S
C473 C475 1.419 1_566 S
C473 H477 0.930 . S
C474 C473 1.369 . S
C474 C483 1.429 . S
C475 C473 1.419 1_544 S
C475 C476 1.363 . S
C475 H478 0.929 . S
C476 C475 1.363 . S
C476 C482 1.428 . S
H477 C473 0.930 . S
H478 C475 0.929 . S
S479 N480 1.613 1_545 S
S479 N481 1.610 1_556 S
N480 S479 1.613 1_565 S
N480 C483 1.350 . S
N481 S479 1.610 1_554 S
N481 C482 1.351 . S
C482 C476 1.428 . S
C482 N481 1.351 . S
C482 C483 1.434 1_544 S
C483 C474 1.429 . S
C483 N480 1.350 . S
C483 C482 1.434 1_566 S
C484 C485 1.369 . S
C484 C486 1.419 . S
C484 H488 0.930 . S
C485 C484 1.369 . S
C485 C494 1.429 . S
C486 C484 1.419 . S
C486 C487 1.363 . S
C486 H489 0.929 . S
C487 C486 1.363 . S
C487 C493 1.428 . S
H488 C484 0.930 . S
H489 C486 0.929 . S
S490 N491 1.613 . S
S490 N492 1.610 1_554 S
N491 S490 1.613 . S
N491 C494 1.350 . S
N492 S490 1.610 1_556 S
N492 C493 1.351 1_556 S
C493 C487 1.428 . S
C493 N492 1.351 1_554 S
C493 C494 1.434 . S
C494 C485 1.429 . S
C494 N491 1.350 . S
C494 C493 1.434 . S
C495 C496 1.369 1_455 S
C495 C497 1.419 . S
C495 H499 0.930 . S
C496 C495 1.369 1_655 S
C496 C505 1.429 . S
C497 C495 1.419 . S
C497 C498 1.363 . S
C497 H500 0.929 . S
C498 C497 1.363 . S
C498 C504 1.428 1_455 S
H499 C495 0.930 . S
H500 C497 0.929 . S
S501 N502 1.613 . S
S501 N503 1.610 . S
N502 S501 1.613 . S
N502 C505 1.350 . S
N503 S501 1.610 . S
N503 C504 1.351 . S
C504 C498 1.428 1_655 S
C504 N503 1.351 . S
C504 C505 1.434 . S
C505 C496 1.429 . S
C505 N502 1.350 . S
C505 C504 1.434 . S
C506 C507 1.369 1_565 S
C506 C508 1.419 . S
C506 H510 0.930 . S
C507 C506 1.369 1_545 S
C507 C516 1.429 . S
C508 C506 1.419 . S
C508 C509 1.363 . S
C508 H511 0.929 . S
C509 C508 1.363 . S
C509 C515 1.428 1_565 S
H510 C506 0.930 . S
H511 C508 0.929 . S
S512 N513 1.613 . S
S512 N514 1.610 . S
N513 S512 1.613 . S
N513 C516 1.350 . S
N514 S512 1.610 . S
N514 C515 1.351 . S
C515 C509 1.428 1_545 S
C515 N514 1.351 . S
C515 C516 1.434 . S
C516 C507 1.429 . S
C516 N513 1.350 . S
C516 C515 1.434 . S
C517 C518 1.369 . S
C517 C519 1.419 . S
C517 H521 0.930 . S
C518 C517 1.369 . S
C518 C527 1.429 . S
C519 C517 1.419 . S
C519 C520 1.363 . S
C519 H522 0.929 . S
C520 C519 1.363 . S
C520 C526 1.428 . S
H521 C517 0.930 . S
H522 C519 0.929 . S
S523 N524 1.613 . S
S523 N525 1.610 . S
N524 S523 1.613 . S
N524 C527 1.350 . S
N525 S523 1.610 . S
N525 C526 1.351 . S
C526 C520 1.428 . S
C526 N525 1.351 . S
C526 C527 1.434 . S
C527 C518 1.429 . S
C527 N524 1.350 . S
C527 C526 1.434 . S
C528 C529 1.369 . S
C528 C530 1.419 . S
C528 H532 0.930 . S
C529 C528 1.369 . S
C529 C538 1.429 . S
C530 C528 1.419 . S
C530 C531 1.363 . S
C530 H533 0.929 . S
C531 C530 1.363 . S
C531 C537 1.428 . S
H532 C528 0.930 . S
H533 C530 0.929 . S
S534 N535 1.613 . S
S534 N536 1.610 . S
N535 S534 1.613 . S
N535 C538 1.350 . S
N536 S534 1.610 . S
N536 C537 1.351 . S
C537 C531 1.428 . S
C537 N536 1.351 . S
C537 C538 1.434 . S
C538 C529 1.429 . S
C538 N535 1.350 . S
C538 C537 1.434 . S
C539 C540 1.369 . S
C539 C541 1.419 . S
C539 H543 0.930 . S
C540 C539 1.369 . S
C540 C549 1.429 . S
C541 C539 1.419 . S
C541 C542 1.363 . S
C541 H544 0.929 . S
C542 C541 1.363 . S
C542 C548 1.428 . S
H543 C539 0.930 . S
H544 C541 0.929 . S
S545 N546 1.613 . S
S545 N547 1.610 . S
N546 S545 1.613 . S
N546 C549 1.350 . S
N547 S545 1.610 . S
N547 C548 1.351 . S
C548 C542 1.428 . S
C548 N547 1.351 . S
C548 C549 1.434 . S
C549 C540 1.429 . S
C549 N546 1.350 . S
C549 C548 1.434 . S
C550 C551 1.369 . S
C550 C552 1.419 . S
C550 H554 0.930 . S
C551 C550 1.369 . S
C551 C560 1.429 . S
C552 C550 1.419 . S
C552 C553 1.363 . S
C552 H555 0.929 . S
C553 C552 1.363 . S
C553 C559 1.428 . S
H554 C550 0.930 . S
H555 C552 0.929 . S
S556 N557 1.613 . S
S556 N558 1.610 . S
N557 S556 1.613 . S
N557 C560 1.350 . S
N558 S556 1.610 . S
N558 C559 1.351 . S
C559 C553 1.428 . S
C559 N558 1.351 . S
C559 C560 1.434 . S
C560 C551 1.429 . S
C560 N557 1.350 . S
C560 C559 1.434 . S
C561 C562 1.369 . S
C561 C563 1.419 . S
C561 H565 0.930 . S
C562 C561 1.369 . S
C562 C571 1.429 . S
C563 C561 1.419 . S
C563 C564 1.363 . S
C563 H566 0.929 . S
C564 C563 1.363 . S
C564 C570 1.428 . S
H565 C561 0.930 . S
H566 C563 0.929 . S
S567 N568 1.613 . S
S567 N569 1.610 . S
N568 S567 1.613 . S
N568 C571 1.350 . S
N569 S567 1.610 . S
N569 C570 1.351 . S
C570 C564 1.428 . S
C570 N569 1.351 . S
C570 C571 1.434 . S
C571 C562 1.429 . S
C571 N568 1.350 . S
C571 C570 1.434 . S
C572 C573 1.369 . S
C572 C574 1.419 . S
C572 H576 0.930 . S
C573 C572 1.369 . S
C573 C582 1.429 . S
C574 C572 1.419 . S
C574 C575 1.363 . S
C574 H577 0.929 . S
C575 C574 1.363 . S
C575 C581 1.428 1_556 S
H576 C572 0.930 . S
H577 C574 0.929 . S
S578 N579 1.613 1_554 S
S578 N580 1.610 . S
N579 S578 1.613 1_556 S
N579 C582 1.350 . S
N580 S578 1.610 . S
N580 C581 1.351 . S
C581 C575 1.428 1_554 S
C581 N580 1.351 . S
C581 C582 1.434 1_554 S
C582 C573 1.429 . S
C582 N579 1.350 . S
C582 C581 1.434 1_556 S
C583 C584 1.369 . S
C583 C585 1.419 . S
C583 H587 0.930 . S
C584 C583 1.369 . S
C584 C593 1.429 . S
C585 C583 1.419 . S
C585 C586 1.363 . S
C585 H588 0.929 . S
C586 C585 1.363 . S
C586 C592 1.428 1_554 S
H587 C583 0.930 . S
H588 C585 0.929 . S
S589 N590 1.613 1_556 S
S589 N591 1.610 . S
N590 S589 1.613 1_554 S
N590 C593 1.350 . S
N591 S589 1.610 . S
N591 C592 1.351 . S
C592 C586 1.428 1_556 S
C592 N591 1.351 . S
C592 C593 1.434 1_556 S
C593 C584 1.429 . S
C593 N590 1.350 . S
C593 C592 1.434 1_554 S
C594 C595 1.369 . S
C594 C596 1.419 . S
C594 H598 0.930 . S
C595 C594 1.369 . S
C595 C604 1.429 . S
C596 C594 1.419 . S
C596 C597 1.363 . S
C596 H599 0.929 . S
C597 C596 1.363 . S
C597 C603 1.428 . S
H598 C594 0.930 . S
H599 C596 0.929 . S
S600 N601 1.613 . S
S600 N602 1.610 . S
N601 S600 1.613 . S
N601 C604 1.350 . S
N602 S600 1.610 . S
N602 C603 1.351 . S
C603 C597 1.428 . S
C603 N602 1.351 . S
C603 C604 1.434 . S
C604 C595 1.429 . S
C604 N601 1.350 . S
C604 C603 1.434 . S
C605 C606 1.369 . S
C605 C607 1.419 . S
C605 H609 0.930 . S
C606 C605 1.369 . S
C606 C615 1.429 . S
C607 C605 1.419 . S
C607 C608 1.363 . S
C607 H610 0.929 . S
C608 C607 1.363 . S
C608 C614 1.428 . S
H609 C605 0.930 . S
H610 C607 0.929 . S
S611 N612 1.613 . S
S611 N613 1.610 . S
N612 S611 1.613 . S
N612 C615 1.350 . S
N613 S611 1.610 . S
N613 C614 1.351 . S
C614 C608 1.428 . S
C614 N613 1.351 . S
C614 C615 1.434 . S
C615 C606 1.429 . S
C615 N612 1.350 . S
C615 C614 1.434 . S
C616 C617 1.369 . S
C616 C618 1.419 . S
C616 H620 0.930 . S
C617 C616 1.369 . S
C617 C626 1.429 . S
C618 C616 1.419 . S
C618 C619 1.363 . S
C618 H621 0.929 . S
C619 C618 1.363 . S
C619 C625 1.428 . S
H620 C616 0.930 . S
H621 C618 0.929 . S
S622 N623 1.613 . S
S622 N624 1.610 1_556 S
N623 S622 1.613 . S
N623 C626 1.350 . S
N624 S622 1.610 1_554 S
N624 C625 1.351 1_554 S
C625 C619 1.428 . S
C625 N624 1.351 1_556 S
C625 C626 1.434 . S
C626 C617 1.429 . S
C626 N623 1.350 . S
C626 C625 1.434 . S
C627 C628 1.369 1_554 S
C627 C629 1.419 . S
C627 H631 0.930 1_554 S
C628 C627 1.369 1_556 S
C628 C637 1.429 1_556 S
C629 C627 1.419 . S
C629 C630 1.363 . S
C629 H632 0.929 . S
C630 C629 1.363 . S
C630 C636 1.428 . S
H631 C627 0.930 1_556 S
H632 C629 0.929 . S
S633 N634 1.613 1_554 S
S633 N635 1.610 . S
N634 S633 1.613 1_556 S
N634 C637 1.350 1_556 S
N635 S633 1.610 . S
N635 C636 1.351 . S
C636 C630 1.428 . S
C636 N635 1.351 . S
C636 C637 1.434 . S
C637 C628 1.429 1_554 S
C637 N634 1.350 1_554 S
C637 C636 1.434 . S
C638 C639 1.369 . S
C638 C640 1.419 . S
C638 H642 0.930 . S
C639 C638 1.369 . S
C639 C648 1.429 . S
C640 C638 1.419 . S
C640 C641 1.363 . S
C640 H643 0.929 . S
C641 C640 1.363 . S
C641 C647 1.428 . S
H642 C638 0.930 . S
H643 C640 0.929 . S
S644 N645 1.613 . S
S644 N646 1.610 . S
N645 S644 1.613 . S
N645 C648 1.350 . S
N646 S644 1.610 . S
N646 C647 1.351 . S
C647 C641 1.428 . S
C647 N646 1.351 . S
C647 C648 1.434 . S
C648 C639 1.429 . S
C648 N645 1.350 . S
C648 C647 1.434 . S
C649 C650 1.369 . S
C649 C651 1.419 . S
C649 H653 0.930 . S
C650 C649 1.369 . S
C650 C659 1.429 . S
C651 C649 1.419 . S
C651 C652 1.363 . S
C651 H654 0.929 . S
C652 C651 1.363 . S
C652 C658 1.428 . S
H653 C649 0.930 . S
H654 C651 0.929 . S
S655 N656 1.613 . S
S655 N657 1.610 . S
N656 S655 1.613 . S
N656 C659 1.350 . S
N657 S655 1.610 . S
N657 C658 1.351 . S
C658 C652 1.428 . S
C658 N657 1.351 . S
C658 C659 1.434 . S
C659 C650 1.429 . S
C659 N656 1.350 . S
C659 C658 1.434 . S
C660 C661 1.369 . S
C660 C662 1.419 . S
C660 H664 0.930 . S
C661 C660 1.369 . S
C661 C670 1.429 . S
C662 C660 1.419 . S
C662 C663 1.363 . S
C662 H665 0.929 . S
C663 C662 1.363 . S
C663 C669 1.428 . S
H664 C660 0.930 . S
H665 C662 0.929 . S
S666 N667 1.613 . S
S666 N668 1.610 . S
N667 S666 1.613 . S
N667 C670 1.350 . S
N668 S666 1.610 . S
N668 C669 1.351 . S
C669 C663 1.428 . S
C669 N668 1.351 . S
C669 C670 1.434 . S
C670 C661 1.429 . S
C670 N667 1.350 . S
C670 C669 1.434 . S
C671 C672 1.369 . S
C671 C673 1.419 . S
C671 H675 0.930 . S
C672 C671 1.369 . S
C672 C681 1.429 . S
C673 C671 1.419 . S
C673 C674 1.363 . S
C673 H676 0.929 . S
C674 C673 1.363 . S
C674 C680 1.428 . S
H675 C671 0.930 . S
H676 C673 0.929 . S
S677 N678 1.613 . S
S677 N679 1.610 . S
N678 S677 1.613 . S
N678 C681 1.350 . S
N679 S677 1.610 . S
N679 C680 1.351 . S
C680 C674 1.428 . S
C680 N679 1.351 . S
C680 C681 1.434 . S
C681 C672 1.429 . S
C681 N678 1.350 . S
C681 C680 1.434 . S
C682 C683 1.369 . S
C682 C684 1.419 . S
C682 H686 0.930 . S
C683 C682 1.369 . S
C683 C692 1.429 . S
C684 C682 1.419 . S
C684 C685 1.363 . S
C684 H687 0.929 . S
C685 C684 1.363 . S
C685 C691 1.428 . S
H686 C682 0.930 . S
H687 C684 0.929 . S
S688 N689 1.613 . S
S688 N690 1.610 . S
N689 S688 1.613 . S
N689 C692 1.350 . S
N690 S688 1.610 . S
N690 C691 1.351 . S
C691 C685 1.428 . S
C691 N690 1.351 . S
C691 C692 1.434 . S
C692 C683 1.429 . S
C692 N689 1.350 . S
C692 C691 1.434 . S
C693 C694 1.369 . S
C693 C695 1.419 . S
C693 H697 0.930 . S
C694 C693 1.369 . S
C694 C703 1.429 . S
C695 C693 1.419 . S
C695 C696 1.363 . S
C695 H698 0.929 . S
C696 C695 1.363 . S
C696 C702 1.428 . S
H697 C693 0.930 . S
H698 C695 0.929 . S
S699 N700 1.613 . S
S699 N701 1.610 . S
N700 S699 1.613 . S
N700 C703 1.350 . S
N701 S699 1.610 . S
N701 C702 1.351 . S
C702 C696 1.428 . S
C702 N701 1.351 . S
C702 C703 1.434 . S
C703 C694 1.429 . S
C703 N700 1.350 . S
C703 C702 1.434 . S
C704 C705 1.369 . S
C704 C706 1.419 . S
C704 H708 0.930 . S
C705 C704 1.369 . S
C705 C714 1.429 . S
C706 C704 1.419 . S
C706 C707 1.363 1_556 S
C706 H709 0.929 1_556 S
C707 C706 1.363 1_554 S
C707 C713 1.428 1_554 S
H708 C704 0.930 . S
H709 C706 0.929 1_554 S
S710 N711 1.613 . S
S710 N712 1.610 1_556 S
N711 S710 1.613 . S
N711 C714 1.350 . S
N712 S710 1.610 1_554 S
N712 C713 1.351 1_554 S
C713 C707 1.428 1_556 S
C713 N712 1.351 1_556 S
C713 C714 1.434 . S
C714 C705 1.429 . S
C714 N711 1.350 . S
C714 C713 1.434 . S
C715 C716 1.369 . S
C715 C717 1.419 . S
C715 H719 0.930 . S
C716 C715 1.369 . S
C716 C725 1.429 . S
C717 C715 1.419 . S
C717 C718 1.363 . S
C717 H720 0.929 . S
C718 C717 1.363 . S
C718 C724 1.428 . S
H719 C715 0.930 . S
H720 C717 0.929 . S
S721 N722 1.613 . S
S721 N723 1.610 1_554 S
N722 S721 1.613 . S
N722 C725 1.350 . S
N723 S721 1.610 1_556 S
N723 C724 1.351 1_556 S
C724 C718 1.428 . S
C724 N723 1.351 1_554 S
C724 C725 1.434 . S
C725 C716 1.429 . S
C725 N722 1.350 . S
C725 C724 1.434 . S
C397 C281 1.598 . S
C399 C17 1.599 . S
C408 C314 1.597 . S
C410 C50 1.598 . S
C419 C347 1.599 . S
C421 C83 1.599 . S
C430 C380 1.599 . S
C432 C116 1.598 . S
C441 C149 1.598 . S
C443 C215 1.599 . S
C452 C248 1.599 . S
C454 C182 1.600 . S
C463 C8 1.364 . S
C465 C371 1.364 . S
C474 C206 1.359 . S
C476 C41 1.357 . S
C485 C74 1.354 . S
C487 C239 1.362 . S
C496 C107 1.355 . S
C498 C272 1.363 . S
C507 C305 1.355 . S
C509 C140 1.363 . S
C518 C173 1.356 . S
C520 C338 1.364 . S
C529 C28 1.514 . S
C531 C358 1.508 . S
C540 C61 1.508 . S
C542 C391 1.514 . S
C551 C226 1.514 . S
C553 C94 1.509 . S
C562 C259 1.513 . S
C564 C127 1.508 . S
C573 C160 1.508 . S
C575 C292 1.514 1_556 S
C584 C325 1.507 . S
C586 C193 1.514 1_554 S
C595 N5 1.261 . S
C597 N14 1.263 . S
C606 N47 1.264 . S
C608 N38 1.261 . S
C617 N71 1.264 . S
C619 N80 1.261 1_556 S
C628 N104 1.263 . S
C630 N113 1.262 . S
C639 N146 1.264 . S
C641 N137 1.262 . S
C650 N179 1.261 . S
C652 N170 1.262 . S
C661 N212 1.264 . S
C663 N203 1.261 . S
C672 N245 1.263 . S
C674 N236 1.262 . S
C683 N278 1.263 . S
C685 N269 1.261 . S
C694 N311 1.261 . S
C696 N302 1.264 . S
C705 N344 1.261 . S
C707 N335 1.263 . S
C716 N368 1.264 . S
C718 N377 1.261 1_554 S
