# Generated by pormake.
# Topology umb, (4)-cn, num edge types: 1
# Building blocks:
#     Node 0, Type 0, BuildingBlock: KOZSID_clean_sbu_0, # of connection points: 4
#     Node 1, Type 0, BuildingBlock: KOZSID_clean_sbu_0, # of connection points: 4
#     Node 2, Type 0, BuildingBlock: KOZSID_clean_sbu_0, # of connection points: 4
#     Node 3, Type 0, BuildingBlock: KOZSID_clean_sbu_0, # of connection points: 4
#     Node 4, Type 0, BuildingBlock: KOZSID_clean_sbu_0, # of connection points: 4
#     Node 5, Type 0, BuildingBlock: KOZSID_clean_sbu_0, # of connection points: 4
#     Node 6, Type 0, BuildingBlock: KOZSID_clean_sbu_0, # of connection points: 4
#     Node 7, Type 0, BuildingBlock: KOZSID_clean_sbu_0, # of connection points: 4
#     Node 8, Type 0, BuildingBlock: KOZSID_clean_sbu_0, # of connection points: 4
#     Node 9, Type 0, BuildingBlock: KOZSID_clean_sbu_0, # of connection points: 4
#     Node 10, Type 0, BuildingBlock: KOZSID_clean_sbu_0, # of connection points: 4
#     Node 11, Type 0, BuildingBlock: KOZSID_clean_sbu_0, # of connection points: 4
#     Edge 12, Type (0, 0), BuildingBlock: UVAHIK_clean_linker_0, # of connection points: 2
#     Edge 13, Type (0, 0), BuildingBlock: UVAHIK_clean_linker_0, # of connection points: 2
#     Edge 14, Type (0, 0), BuildingBlock: UVAHIK_clean_linker_0, # of connection points: 2
#     Edge 15, Type (0, 0), BuildingBlock: UVAHIK_clean_linker_0, # of connection points: 2
#     Edge 16, Type (0, 0), BuildingBlock: UVAHIK_clean_linker_0, # of connection points: 2
#     Edge 17, Type (0, 0), BuildingBlock: UVAHIK_clean_linker_0, # of connection points: 2
#     Edge 18, Type (0, 0), BuildingBlock: UVAHIK_clean_linker_0, # of connection points: 2
#     Edge 19, Type (0, 0), BuildingBlock: UVAHIK_clean_linker_0, # of connection points: 2
#     Edge 20, Type (0, 0), BuildingBlock: UVAHIK_clean_linker_0, # of connection points: 2
#     Edge 21, Type (0, 0), BuildingBlock: UVAHIK_clean_linker_0, # of connection points: 2
#     Edge 22, Type (0, 0), BuildingBlock: UVAHIK_clean_linker_0, # of connection points: 2
#     Edge 23, Type (0, 0), BuildingBlock: UVAHIK_clean_linker_0, # of connection points: 2
#     Edge 24, Type (0, 0), BuildingBlock: UVAHIK_clean_linker_0, # of connection points: 2
#     Edge 25, Type (0, 0), BuildingBlock: UVAHIK_clean_linker_0, # of connection points: 2
#     Edge 26, Type (0, 0), BuildingBlock: UVAHIK_clean_linker_0, # of connection points: 2
#     Edge 27, Type (0, 0), BuildingBlock: UVAHIK_clean_linker_0, # of connection points: 2
#     Edge 28, Type (0, 0), BuildingBlock: UVAHIK_clean_linker_0, # of connection points: 2
#     Edge 29, Type (0, 0), BuildingBlock: UVAHIK_clean_linker_0, # of connection points: 2
#     Edge 30, Type (0, 0), BuildingBlock: UVAHIK_clean_linker_0, # of connection points: 2
#     Edge 31, Type (0, 0), BuildingBlock: UVAHIK_clean_linker_0, # of connection points: 2
#     Edge 32, Type (0, 0), BuildingBlock: UVAHIK_clean_linker_0, # of connection points: 2
#     Edge 33, Type (0, 0), BuildingBlock: UVAHIK_clean_linker_0, # of connection points: 2
#     Edge 34, Type (0, 0), BuildingBlock: UVAHIK_clean_linker_0, # of connection points: 2
#     Edge 35, Type (0, 0), BuildingBlock: UVAHIK_clean_linker_0, # of connection points: 2
# Relax obj value: 0.195
# Max RMSD: 0.231
# Mean RMSD: 0.229
data_MOF--net-umb--node1-KOZSID_clean_sbu_0--edge1-UVAHIK_clean_linker_0
_symmetry_space_group_name_H-M    P1
_symmetry_Int_Tables_number       1
_symmetry_cell_setting            triclinic
loop_
_symmetry_equiv_pos_as_xyz
'x, y, z'
_cell_length_a     75.398517
_cell_length_b     75.550034
_cell_length_c     54.042788
_cell_angle_alpha  89.967268
_cell_angle_beta   90.035682
_cell_angle_gamma 119.93733
loop_
_atom_site_label
_atom_site_type_symbol
_atom_site_fract_x
_atom_site_fract_y
_atom_site_fract_z
_atom_type_partial_charge
C0 C 0.56409 0.19655 0.26339 0.0
C1 C 0.5777 0.19942 0.24451 0.0
C2 C 0.58991 0.19192 0.25305 0.0
C3 C 0.58306 0.18484 0.27659 0.0
N4 N 0.56726 0.18735 0.28311 0.0
Co5 Co 0.55372 0.18106 0.31581 0.0
N6 N 0.57757 0.18195 0.33239 0.0
C7 C 0.59237 0.18002 0.32091 0.0
C8 C 0.60673 0.18071 0.33713 0.0
C9 C 0.60041 0.18297 0.36018 0.0
C10 C 0.58242 0.1835 0.35678 0.0
N11 N 0.54001 0.17501 0.34847 0.0
C12 C 0.54799 0.17741 0.37154 0.0
C13 C 0.53264 0.1707 0.38926 0.0
C14 C 0.51451 0.16376 0.3767 0.0
C15 C 0.51972 0.16655 0.35207 0.0
N16 N 0.53001 0.18019 0.29894 0.0
C17 C 0.51073 0.17112 0.30757 0.0
C18 C 0.49802 0.17455 0.29258 0.0
C19 C 0.51014 0.18661 0.27353 0.0
C20 C 0.52967 0.18979 0.27785 0.0
N21 N 0.54237 0.15153 0.31003 0.0
C22 C 0.529 0.1098 0.30216 0.0
C23 C 0.53555 0.11872 0.32551 0.0
C24 C 0.54226 0.13944 0.32899 0.0
C25 C 0.52905 0.12225 0.28278 0.0
C26 C 0.53555 0.14299 0.28717 0.0
N27 N 0.56522 0.21024 0.32163 0.0
C28 C 0.56125 0.23891 0.3329 0.0
C29 C 0.58153 0.25229 0.3261 0.0
C30 C 0.59362 0.24434 0.31766 0.0
C31 C 0.58526 0.2233 0.31582 0.0
C32 C 0.55331 0.21783 0.33037 0.0
H33 H 0.59495 0.21761 0.30923 0.0
H34 H 0.5375 0.2077 0.33512 0.0
H35 H 0.54775 0.14571 0.34711 0.0
H36 H 0.53533 0.15221 0.27201 0.0
C37 C 0.59385 0.1808 0.29489 0.0
C38 C 0.5477 0.20174 0.2619 0.0
C39 C 0.56951 0.18382 0.37708 0.0
C40 C 0.50671 0.16448 0.33227 0.0
H41 H 0.57884 0.20643 0.22668 0.0
H42 H 0.60306 0.19283 0.2438 0.0
H43 H 0.6205 0.18025 0.33272 0.0
H44 H 0.60803 0.18389 0.3775 0.0
H45 H 0.53433 0.17052 0.40913 0.0
H46 H 0.49943 0.15791 0.38464 0.0
H47 H 0.48222 0.1702 0.29603 0.0
H48 H 0.50518 0.19273 0.25872 0.0
H49 H 0.53602 0.10984 0.34099 0.0
H50 H 0.52397 0.11598 0.26444 0.0
H51 H 0.5516 0.24468 0.3397 0.0
H52 H 0.60947 0.25435 0.31256 0.0
C53 C 0.37302 0.56409 0.59794 0.0
C54 C 0.3842 0.57799 0.57953 0.0
C55 C 0.4037 0.58994 0.58874 0.0
C56 C 0.40337 0.58264 0.61219 0.0
N57 N 0.38491 0.56684 0.61804 0.0
Co58 Co 0.37696 0.55268 0.65035 0.0
N59 N 0.39959 0.57611 0.66783 0.0
C60 C 0.41658 0.59099 0.65694 0.0
C61 C 0.43007 0.60486 0.67366 0.0
C62 C 0.42108 0.59813 0.69643 0.0
C63 C 0.40247 0.58046 0.69237 0.0
N64 N 0.36864 0.53835 0.68263 0.0
C65 C 0.37378 0.54582 0.70599 0.0
C66 C 0.36407 0.53021 0.72321 0.0
C67 C 0.35302 0.51243 0.71008 0.0
C68 C 0.35637 0.51808 0.68563 0.0
N69 N 0.35445 0.5294 0.63254 0.0
C70 C 0.34395 0.51002 0.64064 0.0
C71 C 0.32816 0.49768 0.62503 0.0
C72 C 0.32877 0.51017 0.60613 0.0
C73 C 0.34504 0.52951 0.61115 0.0
N74 N 0.3952 0.54133 0.64474 0.0
C75 C 0.42353 0.52778 0.63721 0.0
C76 C 0.42079 0.53398 0.66061 0.0
C77 C 0.40679 0.54078 0.66393 0.0
C78 C 0.41153 0.52829 0.6176 0.0
C79 C 0.39729 0.53487 0.62182 0.0
N80 N 0.35919 0.56417 0.656 0.0
C81 C 0.32633 0.56015 0.66641 0.0
C82 C 0.33343 0.58057 0.66026 0.0
C83 C 0.35367 0.59273 0.65254 0.0
C84 C 0.36634 0.58431 0.65077 0.0
C85 C 0.33948 0.55217 0.66402 0.0
H86 H 0.38186 0.59405 0.64471 0.0
H87 H 0.33365 0.53627 0.66829 0.0
H88 H 0.4057 0.54596 0.6821 0.0
H89 H 0.38816 0.535 0.60648 0.0
C90 C 0.41783 0.59296 0.63098 0.0
C91 C 0.35151 0.5478 0.59561 0.0
C92 C 0.38909 0.56711 0.71228 0.0
C93 C 0.34587 0.50555 0.66537 0.0
H94 H 0.37875 0.57947 0.56154 0.0
H95 H 0.41619 0.60317 0.57997 0.0
H96 H 0.4445 0.61851 0.66977 0.0
H97 H 0.42765 0.60519 0.71403 0.0
H98 H 0.36497 0.53143 0.74316 0.0
H99 H 0.34316 0.49731 0.71753 0.0
H100 H 0.31658 0.48189 0.62799 0.0
H101 H 0.31805 0.50557 0.59093 0.0
H102 H 0.42983 0.5341 0.67626 0.0
H103 H 0.41302 0.5235 0.59921 0.0
H104 H 0.31073 0.55042 0.67263 0.0
H105 H 0.35965 0.60868 0.64794 0.0
C106 C 0.81396 0.36978 0.92974 0.0
C107 C 0.81129 0.38054 0.91074 0.0
C108 C 0.81891 0.40024 0.91918 0.0
C109 C 0.82586 0.40044 0.9428 0.0
N110 N 0.82315 0.38212 0.94946 0.0
Co111 Co 0.82928 0.37488 0.98228 0.0
N112 N 0.82858 0.39796 0.99863 0.0
C113 C 0.8307 0.41469 0.98702 0.0
C114 C 0.83006 0.42842 1.00313 0.0
C115 C 0.82761 0.41986 0.02623 0.0
C116 C 0.82693 0.4013 0.02298 0.0
N117 N 0.83516 0.36724 0.01505 0.0
C118 C 0.8327 0.37287 0.03805 0.0
C119 C 0.83925 0.36419 0.05591 0.0
C120 C 0.84615 0.35291 0.04352 0.0
C121 C 0.84349 0.35532 0.01885 0.0
N122 N 0.82995 0.35191 0.96564 0.0
C123 C 0.83888 0.34161 0.97446 0.0
C124 C 0.83534 0.32541 0.9596 0.0
C125 C 0.82338 0.32554 0.94044 0.0
C126 C 0.82037 0.34198 0.94454 0.0
N127 N 0.85891 0.39282 0.97657 0.0
C128 C 0.90076 0.42108 0.96875 0.0
C129 C 0.89179 0.41873 0.99208 0.0
C130 C 0.87102 0.40477 0.99554 0.0
C131 C 0.8883 0.40869 0.94938 0.0
C132 C 0.8675 0.39449 0.95374 0.0
N133 N 0.79999 0.35747 0.98807 0.0
C134 C 0.77108 0.32537 1.00036 0.0
C135 C 0.75776 0.33244 0.99369 0.0
C136 C 0.76601 0.35236 0.98464 0.0
C137 C 0.78709 0.36464 0.9822 0.0
C138 C 0.7922 0.3381 0.99721 0.0
H139 H 0.79294 0.37993 0.9753 0.0
H140 H 0.80221 0.33226 1.00196 0.0
H141 H 0.86472 0.40403 0.01362 0.0
H142 H 0.85828 0.38508 0.93858 0.0
C143 C 0.83001 0.41533 0.96099 0.0
C144 C 0.80861 0.34818 0.92838 0.0
C145 C 0.82634 0.38802 0.04337 0.0
C146 C 0.84549 0.34427 0.99918 0.0
H147 H 0.80433 0.37469 0.89287 0.0
H148 H 0.81818 0.41252 0.90979 0.0
H149 H 0.83064 0.44266 0.99859 0.0
H150 H 0.82664 0.42659 0.04347 0.0
H151 H 0.83935 0.36609 0.07577 0.0
H152 H 0.85187 0.34362 0.05161 0.0
H153 H 0.83956 0.3139 0.96322 0.0
H154 H 0.81721 0.31443 0.92569 0.0
H155 H 0.90067 0.42807 0.00755 0.0
H156 H 0.8946 0.40986 0.93106 0.0
H157 H 0.76522 0.31007 0.00757 0.0
H158 H 0.75623 0.35854 0.97978 0.0
C159 C 0.44771 0.81248 0.26376 0.0
C160 C 0.43369 0.80958 0.24534 0.0
C161 C 0.42173 0.81717 0.25437 0.0
C162 C 0.42896 0.82418 0.2778 0.0
N163 N 0.44477 0.82153 0.28382 0.0
Co164 Co 0.4585 0.82735 0.31647 0.0
N165 N 0.43489 0.82654 0.33354 0.0
C166 C 0.42009 0.8287 0.32244 0.0
C167 C 0.40591 0.82801 0.33895 0.0
C168 C 0.41237 0.8255 0.3618 0.0
C169 C 0.43024 0.82483 0.358 0.0
N170 N 0.47245 0.83296 0.34896 0.0
C171 C 0.46466 0.83043 0.37216 0.0
C172 C 0.48014 0.83683 0.38967 0.0
C173 C 0.49816 0.84372 0.37687 0.0
C174 C 0.49276 0.84121 0.3523 0.0
N175 N 0.48193 0.8281 0.29919 0.0
C176 C 0.50131 0.83704 0.30745 0.0
C177 C 0.51381 0.83374 0.29187 0.0
C178 C 0.50139 0.82189 0.27286 0.0
C179 C 0.48195 0.81856 0.27797 0.0
N180 N 0.47001 0.85698 0.3112 0.0
C181 C 0.4814 0.89838 0.30377 0.0
C182 C 0.47586 0.88928 0.32723 0.0
C183 C 0.47013 0.86878 0.33047 0.0
C184 C 0.48212 0.88639 0.28427 0.0
C185 C 0.47649 0.8658 0.2884 0.0
N186 N 0.44678 0.79808 0.32185 0.0
C187 C 0.45021 0.76914 0.3334 0.0
C188 C 0.42972 0.7559 0.32708 0.0
C189 C 0.41792 0.76421 0.31855 0.0
C190 C 0.42665 0.78526 0.3163 0.0
C191 C 0.45851 0.79023 0.33046 0.0
H192 H 0.4171 0.79116 0.30982 0.0
H193 H 0.47442 0.80018 0.33494 0.0
H194 H 0.46522 0.86241 0.34866 0.0
H195 H 0.47678 0.85683 0.273 0.0
C196 C 0.41842 0.82815 0.29646 0.0
C197 C 0.46389 0.80693 0.26209 0.0
C198 C 0.44325 0.82425 0.37803 0.0
C199 C 0.50561 0.84343 0.33223 0.0
H200 H 0.43187 0.80232 0.22756 0.0
H201 H 0.40838 0.81623 0.24557 0.0
H202 H 0.39218 0.82863 0.33484 0.0
H203 H 0.4049 0.8245 0.37926 0.0
H204 H 0.47863 0.83687 0.40958 0.0
H205 H 0.51328 0.84939 0.38461 0.0
H206 H 0.52969 0.83816 0.29481 0.0
H207 H 0.50596 0.81606 0.25731 0.0
H208 H 0.47565 0.89784 0.34317 0.0
H209 H 0.48634 0.89259 0.26577 0.0
H210 H 0.45977 0.76324 0.34018 0.0
H211 H 0.4019 0.7545 0.31399 0.0
C212 C 0.6383 0.44694 0.5956 0.0
C213 C 0.62547 0.4363 0.57596 0.0
C214 C 0.60622 0.42406 0.58574 0.0
C215 C 0.60806 0.42849 0.61058 0.0
N216 N 0.62715 0.44284 0.61669 0.0
Co217 Co 0.63551 0.45608 0.64938 0.0
N218 N 0.61315 0.43224 0.66638 0.0
C219 C 0.59587 0.41794 0.65538 0.0
C220 C 0.58258 0.40359 0.67185 0.0
C221 C 0.59202 0.40948 0.69456 0.0
C222 C 0.61061 0.42723 0.69075 0.0
N223 N 0.64424 0.46962 0.68194 0.0
C224 C 0.63941 0.46158 0.70505 0.0
C225 C 0.64844 0.47693 0.7227 0.0
C226 C 0.65894 0.49509 0.71005 0.0
C227 C 0.65582 0.48992 0.68543 0.0
N228 N 0.65763 0.47976 0.63208 0.0
C229 C 0.66676 0.49913 0.64009 0.0
C230 C 0.68024 0.51258 0.62297 0.0
C231 C 0.67951 0.50071 0.6032 0.0
C232 C 0.66612 0.48055 0.60971 0.0
N233 N 0.61712 0.4675 0.64532 0.0
C234 C 0.58712 0.47918 0.63923 0.0
C235 C 0.59063 0.47297 0.66231 0.0
C236 C 0.60544 0.46713 0.6649 0.0
C237 C 0.59982 0.48035 0.61947 0.0
C238 C 0.61477 0.47459 0.62294 0.0
N239 N 0.65333 0.4445 0.65348 0.0
C240 C 0.68575 0.44776 0.66451 0.0
C241 C 0.67851 0.42736 0.65787 0.0
C242 C 0.65841 0.41574 0.64922 0.0
C243 C 0.64607 0.42452 0.64735 0.0
C244 C 0.67294 0.45612 0.66195 0.0
H245 H 0.63059 0.41513 0.64083 0.0
H246 H 0.67885 0.47196 0.66672 0.0
H247 H 0.607 0.46181 0.6828 0.0
H248 H 0.62402 0.4753 0.60731 0.0
C249 C 0.59383 0.41743 0.62937 0.0
C250 C 0.66042 0.46238 0.59405 0.0
C251 C 0.62436 0.4401 0.71077 0.0
C252 C 0.66521 0.50315 0.66519 0.0
H253 H 0.62933 0.43753 0.55654 0.0
H254 H 0.59267 0.41296 0.57595 0.0
H255 H 0.56791 0.39028 0.66784 0.0
H256 H 0.58571 0.40187 0.71198 0.0
H257 H 0.64708 0.47524 0.74261 0.0
H258 H 0.66797 0.5102 0.71791 0.0
H259 H 0.69004 0.52892 0.62495 0.0
H260 H 0.68795 0.50626 0.58608 0.0
H261 H 0.58185 0.47238 0.67845 0.0
H262 H 0.59787 0.48505 0.60123 0.0
H263 H 0.70121 0.45718 0.67134 0.0
H264 H 0.65211 0.39981 0.64435 0.0
C265 C 0.19846 0.63767 0.93054 0.0
C266 C 0.20152 0.6266 0.91225 0.0
C267 C 0.1941 0.60715 0.92143 0.0
C268 C 0.18702 0.60738 0.94482 0.0
N269 N 0.18946 0.62574 0.95066 0.0
Co270 Co 0.1835 0.63368 0.98318 0.0
N271 N 0.18466 0.6112 1.00052 0.0
C272 C 0.18269 0.59429 0.9896 0.0
C273 C 0.18355 0.581 1.00627 0.0
C274 C 0.18597 0.59005 0.02903 0.0
C275 C 0.18642 0.60843 0.02503 0.0
N276 N 0.17775 0.64204 0.01554 0.0
C277 C 0.18036 0.63697 0.03882 0.0
C278 C 0.17378 0.64597 0.05619 0.0
C279 C 0.16669 0.65684 0.04322 0.0
C280 C 0.16927 0.6539 0.0187 0.0
N281 N 0.18242 0.65605 0.96562 0.0
C282 C 0.17329 0.66633 0.97371 0.0
C283 C 0.17648 0.682 0.95799 0.0
C284 C 0.18847 0.68152 0.93909 0.0
C285 C 0.19199 0.66559 0.94439 0.0
N286 N 0.15386 0.61529 0.97797 0.0
C287 C 0.11242 0.58513 0.97065 0.0
C288 C 0.12158 0.58877 0.99409 0.0
C289 C 0.1421 0.60362 0.99729 0.0
C290 C 0.12438 0.59781 0.9511 0.0
C291 C 0.14499 0.61284 0.95517 0.0
N292 N 0.21279 0.65153 0.98846 0.0
C293 C 0.24155 0.68437 0.99878 0.0
C294 C 0.25493 0.67738 0.99231 0.0
C295 C 0.24694 0.65721 0.98448 0.0
C296 C 0.22585 0.64449 0.98293 0.0
C297 C 0.22043 0.67118 0.99658 0.0
H298 H 0.22013 0.62901 0.97681 0.0
H299 H 0.21029 0.67691 1.00109 0.0
H300 H 0.14852 0.60519 0.01548 0.0
H301 H 0.15392 0.62207 0.93974 0.0
C302 C 0.18323 0.59304 0.96363 0.0
C303 C 0.20385 0.65929 0.92872 0.0
C304 C 0.18681 0.622 0.0449 0.0
C305 C 0.16688 0.6643 0.99849 0.0
H306 H 0.20876 0.63202 0.89445 0.0
H307 H 0.1952 0.59482 0.91277 0.0
H308 H 0.18308 0.56674 1.00233 0.0
H309 H 0.18703 0.58372 0.04658 0.0
H310 H 0.17376 0.64453 0.07612 0.0
H311 H 0.16085 0.66619 0.05082 0.0
H312 H 0.17192 0.69336 0.9608 0.0
H313 H 0.19429 0.69187 0.92351 0.0
H314 H 0.11305 0.58003 0.01007 0.0
H315 H 0.11815 0.59577 0.9326 0.0
H316 H 0.24736 0.69991 1.00509 0.0
H317 H 0.25696 0.65131 0.97967 0.0
C318 C 0.81361 0.44543 0.41629 0.0
C319 C 0.81117 0.43163 0.43471 0.0
C320 C 0.81869 0.41971 0.42534 0.0
C321 C 0.82535 0.42691 0.40179 0.0
N322 N 0.82255 0.44264 0.39603 0.0
Co323 Co 0.82829 0.45663 0.36363 0.0
N324 N 0.82733 0.43315 0.34611 0.0
C325 C 0.82964 0.41837 0.35693 0.0
C326 C 0.82915 0.40446 0.34017 0.0
C327 C 0.82659 0.41108 0.31746 0.0
C328 C 0.82561 0.42871 0.32157 0.0
N329 N 0.8338 0.47081 0.33128 0.0
C330 C 0.83119 0.46324 0.30795 0.0
C331 C 0.83676 0.47875 0.29066 0.0
C332 C 0.84358 0.49658 0.30371 0.0
C333 C 0.84167 0.49105 0.32818 0.0
N334 N 0.8292 0.47995 0.38149 0.0
C335 C 0.83791 0.49929 0.37327 0.0
C336 C 0.83459 0.51166 0.38897 0.0
C337 C 0.82297 0.49923 0.40806 0.0
C338 C 0.81992 0.4799 0.40304 0.0
N339 N 0.85796 0.46803 0.36866 0.0
C340 C 0.8995 0.47951 0.37566 0.0
C341 C 0.89029 0.47409 0.35225 0.0
C342 C 0.86972 0.46833 0.34921 0.0
C343 C 0.88754 0.48003 0.39536 0.0
C344 C 0.86688 0.47436 0.39144 0.0
N345 N 0.79893 0.445 0.35851 0.0
C346 C 0.76983 0.44845 0.34762 0.0
C347 C 0.75663 0.42797 0.35383 0.0
C348 C 0.76503 0.41615 0.36195 0.0
C349 C 0.78613 0.42487 0.36392 0.0
C350 C 0.79099 0.45675 0.3503 0.0
H351 H 0.79209 0.41529 0.37008 0.0
H352 H 0.80092 0.47266 0.34594 0.0
H353 H 0.86326 0.46354 0.33104 0.0
H354 H 0.85794 0.47451 0.40697 0.0
C355 C 0.82929 0.41654 0.3829 0.0
C356 C 0.80832 0.46167 0.41873 0.0
C357 C 0.82533 0.44197 0.30169 0.0
C358 C 0.84393 0.50365 0.34843 0.0
H359 H 0.80444 0.4302 0.45281 0.0
H360 H 0.81809 0.40653 0.43409 0.0
H361 H 0.83006 0.39088 0.34402 0.0
H362 H 0.82596 0.40397 0.29985 0.0
H363 H 0.83617 0.47744 0.27072 0.0
H364 H 0.84866 0.51165 0.2962 0.0
H365 H 0.83869 0.52741 0.38597 0.0
H366 H 0.81701 0.50387 0.42337 0.0
H367 H 0.89882 0.47404 0.33617 0.0
H368 H 0.89383 0.48414 0.41384 0.0
H369 H 0.76385 0.45801 0.34112 0.0
H370 H 0.75533 0.40013 0.36642 0.0
C371 C 0.37299 0.81207 0.75067 0.0
C372 C 0.38431 0.80907 0.76872 0.0
C373 C 0.40376 0.81671 0.75931 0.0
C374 C 0.40327 0.82385 0.73604 0.0
N375 N 0.38475 0.82123 0.73047 0.0
Co376 Co 0.37649 0.82724 0.69815 0.0
N377 N 0.39904 0.82641 0.68043 0.0
C378 C 0.41615 0.82859 0.69113 0.0
C379 C 0.42955 0.82817 0.67426 0.0
C380 C 0.42035 0.8258 0.65159 0.0
C381 C 0.40172 0.82483 0.65586 0.0
N382 N 0.36782 0.83307 0.66599 0.0
C383 C 0.37277 0.83063 0.64257 0.0
C384 C 0.36285 0.83643 0.62548 0.0
C385 C 0.35187 0.8432 0.63874 0.0
C386 C 0.35547 0.84104 0.66315 0.0
N387 N 0.35404 0.82795 0.71611 0.0
C388 C 0.34347 0.83688 0.70831 0.0
C389 C 0.32788 0.83354 0.72428 0.0
C390 C 0.32871 0.82164 0.74305 0.0
C391 C 0.34474 0.81833 0.73742 0.0
N392 N 0.39473 0.85682 0.70352 0.0
C393 C 0.42483 0.89818 0.71095 0.0
C394 C 0.42107 0.88918 0.68744 0.0
C395 C 0.40624 0.8687 0.68418 0.0
C396 C 0.41229 0.88612 0.73053 0.0
C397 C 0.39729 0.86555 0.72641 0.0
N398 N 0.35882 0.798 0.69267 0.0
C399 C 0.32626 0.7691 0.68164 0.0
C400 C 0.33354 0.75583 0.68761 0.0
C401 C 0.35377 0.76409 0.69564 0.0
C402 C 0.36617 0.78514 0.69781 0.0
C403 C 0.33913 0.79019 0.6845 0.0
H404 H 0.3817 0.79099 0.70393 0.0
H405 H 0.33313 0.80016 0.68034 0.0
H406 H 0.40458 0.8624 0.66592 0.0
H407 H 0.38817 0.85652 0.74186 0.0
C408 C 0.41758 0.82793 0.71707 0.0
C409 C 0.3513 0.80656 0.75285 0.0
C410 C 0.38811 0.82466 0.6361 0.0
C411 C 0.34513 0.84319 0.68356 0.0
H412 H 0.37907 0.80173 0.7865 0.0
H413 H 0.41627 0.81573 0.76775 0.0
H414 H 0.44404 0.82898 0.67799 0.0
H415 H 0.4268 0.82525 0.63392 0.0
H416 H 0.36357 0.83601 0.60551 0.0
H417 H 0.34191 0.84842 0.63141 0.0
H418 H 0.31635 0.83792 0.72172 0.0
H419 H 0.31848 0.81573 0.75877 0.0
H420 H 0.42971 0.8978 0.67145 0.0
H421 H 0.41444 0.89226 0.74908 0.0
H422 H 0.3107 0.76322 0.67522 0.0
H423 H 0.3601 0.75434 0.69993 0.0
C424 C 0.56451 0.36999 0.08333 0.0
C425 C 0.57839 0.38095 0.10187 0.0
C426 C 0.59059 0.40043 0.0928 0.0
C427 C 0.58346 0.4003 0.06929 0.0
N428 N 0.56751 0.38199 0.0633 0.0
Co429 Co 0.55358 0.37426 0.03084 0.0
N430 N 0.57737 0.39663 0.01357 0.0
C431 C 0.59233 0.41349 0.02458 0.0
C432 C 0.60646 0.42685 0.00797 0.0
C433 C 0.59982 0.41791 0.98515 0.0
C434 C 0.58194 0.39947 0.98907 0.0
N435 N 0.53946 0.36611 0.99841 0.0
C436 C 0.54716 0.37114 0.97513 0.0
C437 C 0.53163 0.3616 0.95775 0.0
C438 C 0.51367 0.35079 0.97067 0.0
C439 C 0.51914 0.3541 0.99519 0.0
N440 N 0.52995 0.35199 0.04844 0.0
C441 C 0.51058 0.34176 0.04015 0.0
C442 C 0.49797 0.32602 0.05563 0.0
C443 C 0.51028 0.32635 0.07464 0.0
C444 C 0.52979 0.34244 0.0698 0.0
N445 N 0.5426 0.39286 0.03612 0.0
C446 C 0.53151 0.42313 0.04355 0.0
C447 C 0.53707 0.41956 0.02011 0.0
C448 C 0.54263 0.40464 0.01686 0.0
C449 C 0.5307 0.41036 0.06305 0.0
C450 C 0.53619 0.39529 0.05892 0.0
N451 N 0.56478 0.35621 0.02551 0.0
C452 C 0.56052 0.3233 0.01518 0.0
C453 C 0.5809 0.33021 0.0216 0.0
C454 C 0.59315 0.35036 0.02941 0.0
C455 C 0.58488 0.36315 0.031 0.0
C456 C 0.55267 0.33657 0.01742 0.0
H457 H 0.59471 0.37862 0.03711 0.0
H458 H 0.5368 0.33091 0.01294 0.0
H459 H 0.54749 0.40309 0.99867 0.0
H460 H 0.53581 0.38598 0.07432 0.0
C461 C 0.59409 0.4147 0.05057 0.0
C462 C 0.54801 0.34856 0.08542 0.0
C463 C 0.56862 0.38621 0.96905 0.0
C464 C 0.50636 0.34376 0.01533 0.0
H465 H 0.5797 0.37536 0.11983 0.0
H466 H 0.6039 0.41274 0.10168 0.0
H467 H 0.62022 0.44115 0.01197 0.0
H468 H 0.60708 0.42441 0.96762 0.0
H469 H 0.53302 0.36246 0.93781 0.0
H470 H 0.49855 0.34111 0.96306 0.0
H471 H 0.48212 0.3146 0.0525 0.0
H472 H 0.50545 0.31557 0.08975 0.0
H473 H 0.53736 0.42839 1.00418 0.0
H474 H 0.52649 0.41237 0.08155 0.0
H475 H 0.55073 0.30778 0.00886 0.0
H476 H 0.60908 0.35621 0.0342 0.0
C477 C 0.19618 0.56295 0.4187 0.0
C478 C 0.19429 0.57404 0.43803 0.0
C479 C 0.18723 0.58613 0.42791 0.0
C480 C 0.18431 0.58118 0.40322 0.0
N481 N 0.18888 0.56665 0.39751 0.0
Co482 Co 0.18336 0.55264 0.36527 0.0
N483 N 0.18476 0.57617 0.34754 0.0
C484 C 0.18198 0.59073 0.35814 0.0
C485 C 0.1827 0.60467 0.34125 0.0
C486 C 0.18584 0.59825 0.31869 0.0
C487 C 0.18688 0.58066 0.32302 0.0
N488 N 0.17789 0.53834 0.33313 0.0
C489 C 0.18081 0.54585 0.30975 0.0
C490 C 0.17483 0.53014 0.29265 0.0
C491 C 0.16735 0.51229 0.3059 0.0
C492 C 0.16933 0.51799 0.33032 0.0
N493 N 0.1819 0.52928 0.38332 0.0
C494 C 0.17154 0.50974 0.37593 0.0
C495 C 0.17179 0.49665 0.39343 0.0
C496 C 0.18321 0.50892 0.4128 0.0
C497 C 0.1899 0.52894 0.40567 0.0
N498 N 0.15366 0.54146 0.36994 0.0
C499 C 0.11176 0.52831 0.37651 0.0
C500 C 0.1211 0.53466 0.35331 0.0
C501 C 0.14192 0.54124 0.35046 0.0
C502 C 0.12385 0.52838 0.39634 0.0
C503 C 0.14465 0.53475 0.39261 0.0
N504 N 0.21265 0.56389 0.36062 0.0
C505 C 0.24149 0.55979 0.35056 0.0
C506 C 0.2548 0.58021 0.35671 0.0
C507 C 0.24673 0.59236 0.36448 0.0
C508 C 0.22563 0.58397 0.36611 0.0
C509 C 0.22036 0.55184 0.35282 0.0
H510 H 0.21978 0.59368 0.37214 0.0
H511 H 0.21024 0.53594 0.34852 0.0
H512 H 0.14855 0.54652 0.33244 0.0
H513 H 0.15354 0.53455 0.40818 0.0
C514 C 0.18085 0.59182 0.38413 0.0
C515 C 0.2027 0.54741 0.4207 0.0
C516 C 0.18712 0.56723 0.3033 0.0
C517 C 0.16576 0.50521 0.35096 0.0
H518 H 0.19703 0.57313 0.45749 0.0
H519 H 0.1849 0.59743 0.43739 0.0
H520 H 0.1813 0.618 0.34487 0.0
H521 H 0.18659 0.60532 0.30101 0.0
H522 H 0.17543 0.53133 0.27269 0.0
H523 H 0.16159 0.49706 0.29857 0.0
H524 H 0.16526 0.48028 0.39192 0.0
H525 H 0.1864 0.50374 0.43002 0.0
H526 H 0.1125 0.53507 0.33747 0.0
H527 H 0.11725 0.5234 0.41457 0.0
H528 H 0.24737 0.55007 0.34435 0.0
H529 H 0.2567 0.6083 0.36913 0.0
C530 C 0.63919 0.19653 0.74979 0.0
C531 C 0.62801 0.19954 0.76796 0.0
C532 C 0.60847 0.19182 0.75872 0.0
C533 C 0.60881 0.18456 0.73546 0.0
N534 N 0.6273 0.18717 0.72977 0.0
Co535 Co 0.63533 0.18071 0.69764 0.0
N536 N 0.61265 0.18126 0.67991 0.0
C537 C 0.59561 0.17922 0.69065 0.0
C538 C 0.58212 0.17947 0.67373 0.0
C539 C 0.59119 0.18158 0.65103 0.0
C540 C 0.60983 0.18258 0.65531 0.0
N541 N 0.64377 0.17443 0.66564 0.0
C542 C 0.63867 0.17659 0.64218 0.0
C543 C 0.64848 0.17057 0.62521 0.0
C544 C 0.65954 0.16395 0.63862 0.0
C545 C 0.6561 0.16642 0.66298 0.0
N546 N 0.65794 0.18026 0.71564 0.0
C547 C 0.66848 0.17126 0.70805 0.0
C548 C 0.68423 0.17491 0.72394 0.0
C549 C 0.68352 0.18708 0.74243 0.0
C550 C 0.66738 0.19021 0.73673 0.0
N551 N 0.61722 0.15121 0.70367 0.0
C552 C 0.58884 0.10951 0.71181 0.0
C553 C 0.59163 0.1182 0.68824 0.0
C554 C 0.60565 0.13891 0.68462 0.0
C555 C 0.60086 0.12217 0.73127 0.0
C556 C 0.61512 0.14289 0.72676 0.0
N557 N 0.65296 0.20987 0.69156 0.0
C558 C 0.68577 0.23861 0.68096 0.0
C559 C 0.67853 0.25191 0.68672 0.0
C560 C 0.65827 0.24388 0.69433 0.0
C561 C 0.64569 0.22284 0.69641 0.0
C562 C 0.6727 0.21754 0.68362 0.0
H563 H 0.63015 0.21709 0.70242 0.0
H564 H 0.67862 0.20747 0.67963 0.0
H565 H 0.60676 0.145 0.66632 0.0
H566 H 0.62424 0.15228 0.742 0.0
C567 C 0.59434 0.18021 0.71658 0.0
C568 C 0.66087 0.20216 0.75178 0.0
C569 C 0.62338 0.1826 0.6356 0.0
C570 C 0.66663 0.16458 0.68344 0.0
H571 H 0.63346 0.20685 0.78573 0.0
H572 H 0.59599 0.19274 0.76729 0.0
H573 H 0.56766 0.17873 0.67745 0.0
H574 H 0.58466 0.18196 0.63334 0.0
H575 H 0.64767 0.17078 0.60524 0.0
H576 H 0.66947 0.15866 0.6314 0.0
H577 H 0.69579 0.17056 0.72147 0.0
H578 H 0.69389 0.19329 0.75799 0.0
H579 H 0.58258 0.10917 0.67268 0.0
H580 H 0.59936 0.11609 0.74978 0.0
H581 H 0.70139 0.24444 0.67484 0.0
H582 H 0.6522 0.25385 0.69864 0.0
C583 C 0.44767 0.63774 0.08481 0.0
C584 C 0.43356 0.6267 0.10315 0.0
C585 C 0.42173 0.60714 0.0942 0.0
C586 C 0.42913 0.60728 0.07089 0.0
N587 N 0.4449 0.6257 0.06486 0.0
Co588 Co 0.45881 0.63345 0.03233 0.0
N589 N 0.43541 0.61055 0.01521 0.0
C590 C 0.42062 0.59365 0.02631 0.0
C591 C 0.40657 0.58011 0.00975 0.0
C592 C 0.4131 0.58899 0.98688 0.0
C593 C 0.43087 0.60754 0.99072 0.0
N594 N 0.47294 0.64162 0.99996 0.0
C595 C 0.46528 0.63627 0.97672 0.0
C596 C 0.48084 0.64525 0.95932 0.0
C597 C 0.49878 0.6564 0.97224 0.0
C598 C 0.49326 0.65365 0.99677 0.0
N599 N 0.48206 0.65625 0.04963 0.0
C600 C 0.50147 0.66665 0.04153 0.0
C601 C 0.51385 0.68248 0.0571 0.0
C602 C 0.5013 0.68196 0.07594 0.0
C603 C 0.48192 0.66586 0.07074 0.0
N604 N 0.47054 0.61555 0.03814 0.0
C605 C 0.48414 0.58731 0.04601 0.0
C606 C 0.47789 0.58993 0.02256 0.0
C607 C 0.47107 0.60389 0.01908 0.0
C608 C 0.4837 0.59942 0.06548 0.0
C609 C 0.47711 0.61362 0.06109 0.0
N610 N 0.44693 0.65084 0.02641 0.0
C611 C 0.45023 0.68306 0.01446 0.0
C612 C 0.42972 0.67584 0.02062 0.0
C613 C 0.41794 0.6558 0.02923 0.0
C614 C 0.42675 0.64353 0.03176 0.0
C615 C 0.45862 0.67033 0.01769 0.0
H616 H 0.41724 0.62815 0.03832 0.0
H617 H 0.47456 0.67629 0.01337 0.0
H618 H 0.46581 0.60484 1.00088 0.0
H619 H 0.47701 0.62282 0.07633 0.0
C620 C 0.41878 0.59267 0.05228 0.0
C621 C 0.46379 0.65944 0.08649 0.0
C622 C 0.44389 0.62112 0.97075 0.0
C623 C 0.50596 0.66441 0.01688 0.0
H624 H 0.43161 0.63218 0.12083 0.0
H625 H 0.40839 0.59477 0.10295 0.0
H626 H 0.39285 0.56579 0.01384 0.0
H627 H 0.40572 0.58248 0.9694 0.0
H628 H 0.47943 0.64361 0.93941 0.0
H629 H 0.51394 0.66583 0.9646 0.0
H630 H 0.52974 0.6939 0.05428 0.0
H631 H 0.50577 0.69238 0.09144 0.0
H632 H 0.47771 0.58081 1.00701 0.0
H633 H 0.48854 0.59803 0.0839 0.0
H634 H 0.45977 0.69847 0.00762 0.0
H635 H 0.4019 0.64952 0.03368 0.0
C636 C 0.58228 0.20209 0.41787 0.0
C637 C 0.57595 0.1845 0.40344 0.0
C638 C 0.58774 0.20244 0.44283 0.0
C639 C 0.60227 0.17452 0.48876 0.0
H640 H 0.58933 0.2043 0.53706 0.0
C641 C 0.60961 0.16557 0.59433 0.0
C642 C 0.618 0.18328 0.60901 0.0
C643 C 0.60471 0.16616 0.5694 0.0
C644 C 0.59327 0.19606 0.5238 0.0
H645 H 0.56985 0.15336 0.40377 0.0
H646 H 0.579 0.1537 0.44726 0.0
H647 H 0.58048 0.20447 0.49364 0.0
H648 H 0.62696 0.21527 0.60942 0.0
H649 H 0.61833 0.21641 0.56583 0.0
H650 H 0.6148 0.1659 0.51899 0.0
C651 C 0.58034 0.1675 0.43938 0.0
C652 C 0.58821 0.19619 0.49878 0.0
C653 C 0.57497 0.1672 0.41445 0.0
C654 C 0.62074 0.20146 0.59843 0.0
C655 C 0.61568 0.20205 0.57349 0.0
C656 C 0.6072 0.1743 0.51377 0.0
C657 C 0.58685 0.18513 0.45404 0.0
C658 C 0.59256 0.18535 0.48081 0.0
C659 C 0.60776 0.18443 0.55852 0.0
C660 C 0.60272 0.185 0.53172 0.0
H661 H 0.58303 0.21557 0.4098 0.0
H662 H 0.59288 0.21641 0.45323 0.0
H663 H 0.60633 0.16633 0.4756 0.0
H664 H 0.60687 0.15122 0.60217 0.0
H665 H 0.59826 0.15218 0.55872 0.0
C666 C 0.39203 0.58861 0.74955 0.0
C667 C 0.39479 0.57324 0.73879 0.0
C668 C 0.39749 0.59438 0.77436 0.0
C669 C 0.42878 0.59095 0.82633 0.0
H670 H 0.39553 0.60522 0.86716 0.0
C671 C 0.43914 0.59977 0.93291 0.0
C672 C 0.43775 0.61575 0.94426 0.0
C673 C 0.43402 0.59506 0.90787 0.0
C674 C 0.40514 0.60149 0.85599 0.0
H675 H 0.40613 0.55239 0.74524 0.0
H676 H 0.41509 0.56188 0.78853 0.0
H677 H 0.38654 0.59628 0.82378 0.0
H678 H 0.43016 0.63948 0.9384 0.0
H679 H 0.42111 0.6313 0.89457 0.0
H680 H 0.44721 0.59592 0.85863 0.0
C681 C 0.40889 0.56972 0.77797 0.0
C682 C 0.39999 0.59637 0.83098 0.0
C683 C 0.40353 0.56407 0.75318 0.0
C684 C 0.43117 0.62697 0.93009 0.0
C685 C 0.42592 0.6222 0.90503 0.0
C686 C 0.43384 0.59594 0.85134 0.0
C687 C 0.40596 0.58497 0.78905 0.0
C688 C 0.41168 0.59092 0.81572 0.0
C689 C 0.42735 0.60621 0.89349 0.0
C690 C 0.42206 0.60121 0.86662 0.0
H691 H 0.38561 0.59614 0.73874 0.0
H692 H 0.39531 0.60642 0.78191 0.0
H693 H 0.43849 0.58732 0.81525 0.0
H694 H 0.44429 0.59097 0.94345 0.0
H695 H 0.43511 0.58251 0.89984 0.0
C696 C 0.84272 0.44525 0.26069 0.0
C697 C 0.82487 0.43587 0.27518 0.0
C698 C 0.84233 0.43983 0.23579 0.0
C699 C 0.81285 0.39874 0.1899 0.0
H700 H 0.84275 0.44175 0.14203 0.0
C701 C 0.80769 0.38228 0.08391 0.0
C702 C 0.82539 0.39368 0.06967 0.0
C703 C 0.8071 0.38724 0.10886 0.0
C704 C 0.83452 0.42945 0.1551 0.0
H705 H 0.79283 0.41281 0.27528 0.0
H706 H 0.79205 0.40317 0.23171 0.0
H707 H 0.84282 0.45039 0.18543 0.0
H708 H 0.85651 0.41882 0.07034 0.0
H709 H 0.85577 0.42738 0.11381 0.0
H710 H 0.80476 0.37775 0.15964 0.0
C711 C 0.80637 0.41487 0.23952 0.0
C712 C 0.83453 0.43445 0.18011 0.0
C713 C 0.80675 0.42043 0.26444 0.0
C714 C 0.84257 0.41 0.08087 0.0
C715 C 0.84205 0.41493 0.10579 0.0
C716 C 0.81293 0.39371 0.16487 0.0
C717 C 0.82412 0.42464 0.22474 0.0
C718 C 0.82376 0.41918 0.19794 0.0
C719 C 0.8243 0.40366 0.12026 0.0
C720 C 0.82384 0.40898 0.14703 0.0
H721 H 0.85701 0.45687 0.26867 0.0
H722 H 0.85641 0.44742 0.22525 0.0
H723 H 0.80457 0.38652 0.20307 0.0
H724 H 0.79429 0.36953 0.07571 0.0
H725 H 0.79305 0.3783 0.11912 0.0
C726 C 0.43045 0.80591 0.41879 0.0
C727 C 0.43707 0.82361 0.40448 0.0
C728 C 0.42494 0.8055 0.44372 0.0
C729 C 0.41045 0.83346 0.48952 0.0
H730 H 0.42262 0.80317 0.53797 0.0
C731 C 0.40205 0.84182 0.59495 0.0
C732 C 0.39358 0.82405 0.60954 0.0
C733 C 0.40715 0.84133 0.57009 0.0
C734 C 0.4189 0.81154 0.52467 0.0
H735 H 0.44363 0.8549 0.405 0.0
H736 H 0.43438 0.85446 0.44845 0.0
H737 H 0.43184 0.80317 0.49468 0.0
H738 H 0.38463 0.79206 0.60988 0.0
H739 H 0.39356 0.7911 0.56639 0.0
H740 H 0.39772 0.84201 0.51955 0.0
C741 C 0.43288 0.84064 0.4405 0.0
C742 C 0.42417 0.81152 0.49972 0.0
C743 C 0.43831 0.84098 0.4156 0.0
C744 C 0.39091 0.80591 0.59894 0.0
C745 C 0.39615 0.80543 0.57407 0.0
C746 C 0.40529 0.83356 0.51445 0.0
C747 C 0.42603 0.82287 0.45502 0.0
C748 C 0.42011 0.82255 0.48171 0.0
C749 C 0.4042 0.82312 0.55919 0.0
C750 C 0.40948 0.82267 0.53246 0.0
H751 H 0.42947 0.79235 0.41062 0.0
H752 H 0.41955 0.79145 0.45404 0.0
H753 H 0.40662 0.8418 0.4763 0.0
H754 H 0.40472 0.85613 0.60282 0.0
H755 H 0.41368 0.85536 0.55948 0.0
C756 C 0.59018 0.38864 0.93201 0.0
C757 C 0.57498 0.39181 0.94259 0.0
C758 C 0.59597 0.39376 0.90713 0.0
C759 C 0.57725 0.40328 0.8475 0.0
H760 H 0.63404 0.42841 0.82734 0.0
C761 C 0.60287 0.43556 0.74841 0.0
C762 C 0.61876 0.43388 0.7372 0.0
C763 C 0.59781 0.43026 0.77334 0.0
C764 C 0.61805 0.42113 0.83249 0.0
H765 H 0.55464 0.40375 0.93583 0.0
H766 H 0.5645 0.41252 0.8925 0.0
H767 H 0.62492 0.41958 0.87074 0.0
H768 H 0.642 0.4256 0.74324 0.0
H769 H 0.63302 0.41588 0.78671 0.0
H770 H 0.57027 0.4046 0.80938 0.0
C771 C 0.57172 0.40569 0.90312 0.0
C772 C 0.61282 0.41609 0.8575 0.0
C773 C 0.56608 0.40071 0.92799 0.0
C774 C 0.62961 0.42691 0.75146 0.0
C775 C 0.62453 0.42152 0.77643 0.0
C776 C 0.58246 0.40822 0.82252 0.0
C777 C 0.58666 0.40218 0.89222 0.0
C778 C 0.59234 0.40721 0.86543 0.0
C779 C 0.60851 0.42308 0.78782 0.0
C780 C 0.60297 0.41736 0.81456 0.0
H781 H 0.59744 0.38201 0.94295 0.0
H782 H 0.60746 0.39075 0.89945 0.0
H783 H 0.56128 0.39612 0.85272 0.0
H784 H 0.59445 0.44116 0.73786 0.0
H785 H 0.58569 0.43212 0.78135 0.0
C786 C 0.2059 0.58856 0.26597 0.0
C787 C 0.18769 0.57328 0.27672 0.0
C788 C 0.20632 0.59423 0.24107 0.0
C789 C 0.17771 0.5753 0.18167 0.0
H790 H 0.2087 0.63201 0.16144 0.0
C791 C 0.17007 0.6007 0.08275 0.0
C792 C 0.18751 0.6166 0.07142 0.0
C793 C 0.1705 0.59571 0.10768 0.0
C794 C 0.20017 0.61605 0.16661 0.0
H795 H 0.15545 0.55268 0.27023 0.0
H796 H 0.15612 0.56231 0.22688 0.0
H797 H 0.20885 0.62293 0.20477 0.0
H798 H 0.219 0.63992 0.07722 0.0
H799 H 0.22004 0.63108 0.12068 0.0
H800 H 0.16915 0.56832 0.14361 0.0
C801 C 0.17024 0.56968 0.23737 0.0
C802 C 0.20024 0.61084 0.19158 0.0
C803 C 0.16981 0.56415 0.26225 0.0
C804 C 0.20538 0.62754 0.08554 0.0
C805 C 0.20587 0.62253 0.11051 0.0
C806 C 0.17772 0.58049 0.15672 0.0
C807 C 0.18852 0.58474 0.22631 0.0
C808 C 0.1889 0.59038 0.19954 0.0
C809 C 0.18843 0.60648 0.12202 0.0
C810 C 0.18884 0.60097 0.14874 0.0
H811 H 0.21984 0.59601 0.2768 0.0
H812 H 0.22071 0.60581 0.23327 0.0
H813 H 0.16909 0.55935 0.18689 0.0
H814 H 0.15603 0.5922 0.07228 0.0
H815 H 0.15662 0.58356 0.11578 0.0
C816 C 0.72136 0.40629 0.37044 0.0
C817 C 0.73418 0.41833 0.35115 0.0
C818 C 0.7004 0.39375 0.36648 0.0
C819 C 0.6675 0.36418 0.3161 0.0
H820 H 0.62498 0.34668 0.36587 0.0
C821 C 0.59565 0.28644 0.30649 0.0
C822 C 0.59067 0.27457 0.32804 0.0
C823 C 0.60836 0.30761 0.30774 0.0
C824 C 0.63665 0.3514 0.35173 0.0
H825 H 0.73507 0.42801 0.31324 0.0
H826 H 0.69827 0.40595 0.3062 0.0
H827 H 0.65705 0.37886 0.37126 0.0
H828 H 0.59394 0.27517 0.36779 0.0
H829 H 0.61665 0.31206 0.37013 0.0
H830 H 0.64798 0.33629 0.29738 0.0
C831 C 0.70447 0.40615 0.32435 0.0
C832 C 0.65497 0.36986 0.35478 0.0
C833 C 0.72547 0.41885 0.3284 0.0
C834 C 0.59746 0.28417 0.35101 0.0
C835 C 0.61041 0.30532 0.35228 0.0
C836 C 0.6493 0.3457 0.31314 0.0
C837 C 0.69186 0.3929 0.34308 0.0
C838 C 0.67088 0.37607 0.33743 0.0
C839 C 0.61667 0.31721 0.33054 0.0
C840 C 0.63393 0.33869 0.33136 0.0
H841 H 0.72773 0.40578 0.38823 0.0
H842 H 0.69119 0.38364 0.38125 0.0
H843 H 0.67952 0.36835 0.30254 0.0
H844 H 0.59053 0.2792 0.28857 0.0
H845 H 0.61249 0.31631 0.2907 0.0
C846 C 0.31985 0.72057 0.7041 0.0
C847 C 0.32069 0.73344 0.68486 0.0
C848 C 0.31131 0.69964 0.70012 0.0
C849 C 0.30765 0.66665 0.64973 0.0
H850 H 0.28254 0.62434 0.69963 0.0
C851 C 0.31331 0.59461 0.64053 0.0
C852 C 0.32028 0.58975 0.66211 0.0
C853 C 0.30486 0.60737 0.64168 0.0
C854 C 0.28951 0.63595 0.68545 0.0
H855 H 0.3119 0.73449 0.64698 0.0
H856 H 0.29695 0.69773 0.63987 0.0
H857 H 0.2826 0.65649 0.70493 0.0
H858 H 0.32315 0.59329 0.70182 0.0
H859 H 0.30897 0.61605 0.70398 0.0
H860 H 0.31588 0.64698 0.63105 0.0
C861 C 0.30299 0.70386 0.65802 0.0
C862 C 0.28946 0.65432 0.68845 0.0
C863 C 0.31142 0.72484 0.6621 0.0
C864 C 0.3176 0.59672 0.68503 0.0
C865 C 0.30939 0.60969 0.68619 0.0
C866 C 0.30782 0.64839 0.64681 0.0
C867 C 0.30355 0.69118 0.67672 0.0
C868 C 0.29922 0.67016 0.67106 0.0
C869 C 0.30366 0.61583 0.6644 0.0
C870 C 0.29945 0.63311 0.66509 0.0
H871 H 0.32677 0.72687 0.72189 0.0
H872 H 0.31216 0.69037 0.71486 0.0
H873 H 0.31553 0.67861 0.63614 0.0
H874 H 0.31536 0.58938 0.62266 0.0
H875 H 0.30024 0.61144 0.62461 0.0
C876 C 0.59688 0.31417 0.9969 0.0
C877 C 0.59003 0.31702 0.01983 0.0
C878 C 0.61013 0.30626 0.99578 0.0
C879 C 0.64975 0.30615 0.035 0.0
H880 H 0.65816 0.28078 0.97729 0.0
C881 C 0.72689 0.31081 0.01973 0.0
C882 C 0.73533 0.31971 0.99676 0.0
C883 C 0.70588 0.30232 0.02395 0.0
C884 C 0.65591 0.28771 0.99365 0.0
H885 H 0.59012 0.31262 0.05935 0.0
H886 H 0.61263 0.298 0.05747 0.0
H887 H 0.62561 0.28004 0.98264 0.0
H888 H 0.72841 0.32506 0.95955 0.0
H889 H 0.69186 0.31038 0.96684 0.0
H890 H 0.68026 0.31458 0.0455 0.0
C891 C 0.60828 0.30228 0.04036 0.0
C892 C 0.63731 0.28736 0.99668 0.0
C893 C 0.59525 0.31043 0.04147 0.0
C894 C 0.72225 0.31847 0.9775 0.0
C895 C 0.70129 0.30988 0.98164 0.0
C896 C 0.66824 0.30638 0.03205 0.0
C897 C 0.61667 0.30101 0.01761 0.0
C898 C 0.63431 0.29731 0.0169 0.0
C899 C 0.69298 0.30245 1.00519 0.0
C900 C 0.67184 0.29788 0.01086 0.0
H901 H 0.59321 0.31944 0.98006 0.0
H902 H 0.61642 0.30576 0.97796 0.0
H903 H 0.64822 0.31424 0.05064 0.0
H904 H 0.73668 0.31159 0.03487 0.0
H905 H 0.69987 0.29654 0.04221 0.0
C906 C 0.40797 0.72053 0.31093 0.0
C907 C 0.42008 0.73351 0.33005 0.0
C908 C 0.39558 0.69962 0.3151 0.0
C909 C 0.3665 0.66683 0.36582 0.0
H910 H 0.34922 0.62424 0.31631 0.0
C911 C 0.28914 0.59456 0.37609 0.0
C912 C 0.27713 0.58945 0.35463 0.0
C913 C 0.31032 0.60741 0.37468 0.0
C914 C 0.35388 0.63593 0.33038 0.0
H915 H 0.43002 0.73475 0.36792 0.0
H916 H 0.40823 0.69803 0.37534 0.0
H917 H 0.38118 0.65647 0.31061 0.0
H918 H 0.27749 0.59267 0.31489 0.0
H919 H 0.31439 0.6156 0.31228 0.0
H920 H 0.33875 0.64715 0.3848 0.0
C921 C 0.40826 0.70407 0.35715 0.0
C922 C 0.37222 0.65435 0.32715 0.0
C923 C 0.4208 0.72502 0.35289 0.0
C924 C 0.28661 0.59628 0.33159 0.0
C925 C 0.30776 0.60936 0.33017 0.0
C926 C 0.34815 0.64853 0.36897 0.0
C927 C 0.39496 0.69128 0.33856 0.0
C928 C 0.37833 0.67027 0.3444 0.0
C929 C 0.31979 0.61574 0.35182 0.0
C930 C 0.34121 0.63313 0.35084 0.0
H931 H 0.40732 0.72672 0.29308 0.0
H932 H 0.38542 0.69027 0.30044 0.0
H933 H 0.37059 0.67886 0.37932 0.0
H934 H 0.282 0.58943 0.39406 0.0
H935 H 0.31913 0.61166 0.39166 0.0
C936 C 0.692 0.40549 0.64155 0.0
C937 C 0.69119 0.41759 0.66074 0.0
C938 C 0.70042 0.39297 0.64565 0.0
C939 C 0.70403 0.36365 0.69625 0.0
H940 H 0.729 0.34615 0.64643 0.0
C941 C 0.69874 0.28614 0.70606 0.0
C942 C 0.6916 0.27418 0.68461 0.0
C943 C 0.7071 0.3073 0.70471 0.0
C944 C 0.72208 0.35088 0.66059 0.0
H945 H 0.69991 0.42733 0.69865 0.0
H946 H 0.71467 0.40533 0.70591 0.0
H947 H 0.72893 0.37823 0.64092 0.0
H948 H 0.68833 0.27459 0.64494 0.0
H949 H 0.7024 0.31146 0.64243 0.0
H950 H 0.69591 0.33586 0.71514 0.0
C951 C 0.70868 0.40547 0.68774 0.0
C952 C 0.7221 0.36928 0.65747 0.0
C953 C 0.70037 0.41814 0.68356 0.0
C954 C 0.69402 0.28367 0.66162 0.0
C955 C 0.70216 0.3048 0.66026 0.0
C956 C 0.7039 0.34525 0.6993 0.0
C957 C 0.7081 0.39219 0.66908 0.0
C958 C 0.71239 0.37547 0.67482 0.0
C959 C 0.70806 0.31679 0.68192 0.0
C960 C 0.71222 0.33823 0.68106 0.0
H961 H 0.68518 0.40496 0.62371 0.0
H962 H 0.69956 0.38284 0.63093 0.0
H963 H 0.69619 0.36781 0.70983 0.0
H964 H 0.6969 0.27898 0.72399 0.0
H965 H 0.71184 0.31608 0.72168 0.0
C966 C 0.287 0.6934 0.01697 0.0
C967 C 0.27727 0.69053 0.99405 0.0
C968 C 0.30817 0.70144 0.01808 0.0
C969 C 0.34807 0.702 0.97886 0.0
H970 H 0.38171 0.72743 0.03669 0.0
C971 C 0.42066 0.69761 0.99457 0.0
C972 C 0.42004 0.68858 0.0175 0.0
C973 C 0.40814 0.7061 0.99026 0.0
C974 C 0.37258 0.7205 0.02029 0.0
H975 H 0.28169 0.69503 0.95454 0.0
H976 H 0.31886 0.70986 0.9564 0.0
H977 H 0.3498 0.72797 0.03124 0.0
H978 H 0.40749 0.68296 0.05456 0.0
H979 H 0.38567 0.69768 0.04713 0.0
H980 H 0.3703 0.69376 0.96842 0.0
C981 C 0.31024 0.7055 0.97351 0.0
C982 C 0.35427 0.72073 0.0172 0.0
C983 C 0.28903 0.69721 0.97241 0.0
C984 C 0.40805 0.68967 0.03664 0.0
C985 C 0.39571 0.69829 0.03243 0.0
C986 C 0.36639 0.7019 0.98186 0.0
C987 C 0.31995 0.70682 0.99625 0.0
C988 C 0.34137 0.71073 0.99696 0.0
C989 C 0.395 0.70585 0.00891 0.0
C990 C 0.37843 0.7104 1.0031 0.0
H991 H 0.27807 0.68807 0.03381 0.0
H992 H 0.315 0.70197 0.0359 0.0
H993 H 0.33849 0.69389 0.96319 0.0
H994 H 0.42978 0.69692 0.97952 0.0
H995 H 0.40803 0.71198 0.97202 0.0
C996 C 0.53027 0.08142 0.27873 0.0
C997 C 0.52252 0.08774 0.29842 0.0
C998 C 0.5255 0.06094 0.27669 0.0
C999 C 0.48767 0.00829 0.29629 0.0
H1000 H 0.53137 0.99615 0.28603 0.0
C1001 C 0.47485 0.92732 0.3138 0.0
C1002 C 0.48568 0.91993 0.30003 0.0
C1003 C 0.47913 0.94753 0.31142 0.0
C1004 C 0.51885 0.99914 0.28847 0.0
H1005 H 0.50311 0.07725 0.3309 0.0
H1006 H 0.49451 0.04163 0.32709 0.0
H1007 H 0.53889 0.03158 0.28533 0.0
H1008 H 0.50939 0.92846 0.27235 0.0
H1009 H 0.51635 0.96353 0.2675 0.0
H1010 H 0.46752 0.97605 0.29907 0.0
C1011 C 0.5044 0.05248 0.3133 0.0
C1012 C 0.52322 0.01955 0.28814 0.0
C1013 C 0.50942 0.07295 0.31556 0.0
C1014 C 0.50063 0.93343 0.28325 0.0
C1015 C 0.50482 0.95372 0.2807 0.0
C1016 C 0.48325 0.98792 0.29631 0.0
C1017 C 0.51254 0.04619 0.29401 0.0
C1018 C 0.50774 0.02442 0.29246 0.0
C1019 C 0.49419 0.96115 0.29487 0.0
C1020 C 0.49881 0.98296 0.29288 0.0
H1021 H 0.54052 0.09244 0.26533 0.0
H1022 H 0.53194 0.05663 0.26151 0.0
H1023 H 0.47529 0.01142 0.29926 0.0
H1024 H 0.4629 0.91745 0.32654 0.0
H1025 H 0.47075 0.9525 0.32302 0.0
C1026 C 0.44044 0.50782 0.65067 0.0
C1027 C 0.43908 0.52121 0.63366 0.0
C1028 C 0.45588 0.50272 0.64863 0.0
C1029 C 0.50803 0.52171 0.62462 0.0
H1030 H 0.49574 0.46594 0.63478 0.0
C1031 C 0.57152 0.49898 0.61961 0.0
C1032 C 0.56996 0.48376 0.63602 0.0
C1033 C 0.55546 0.50328 0.61722 0.0
C1034 C 0.49961 0.48168 0.63225 0.0
H1035 H 0.45297 0.53963 0.60102 0.0
H1036 H 0.48017 0.53089 0.59759 0.0
H1037 H 0.4681 0.47377 0.63463 0.0
H1038 H 0.54956 0.46073 0.66217 0.0
H1039 H 0.52238 0.46879 0.65894 0.0
H1040 H 0.5396 0.5298 0.62306 0.0
C1041 C 0.46917 0.5243 0.6125 0.0
C1042 C 0.48365 0.48614 0.63203 0.0
C1043 C 0.45347 0.52916 0.61431 0.0
C1044 C 0.55172 0.47287 0.6497 0.0
C1045 C 0.53581 0.47727 0.64749 0.0
C1046 C 0.52407 0.5173 0.62515 0.0
C1047 C 0.47063 0.51107 0.62971 0.0
C1048 C 0.48762 0.50623 0.62844 0.0
C1049 C 0.53734 0.49253 0.63121 0.0
C1050 C 0.52016 0.49722 0.62925 0.0
H1051 H 0.42957 0.50135 0.66573 0.0
H1052 H 0.45659 0.49261 0.66232 0.0
H1053 H 0.51169 0.53739 0.62204 0.0
H1054 H 0.58529 0.50784 0.60882 0.0
H1055 H 0.55725 0.51498 0.60424 0.0
C1056 C 0.92919 0.45071 0.94535 0.0
C1057 C 0.92286 0.43665 0.96504 0.0
C1058 C 0.9497 0.46645 0.94336 0.0
C1059 C 1.00247 0.48144 0.96324 0.0
H1060 H 0.01444 0.53709 0.95275 0.0
C1061 C 0.08347 0.54971 0.98083 0.0
C1062 C 0.09084 0.56785 0.96697 0.0
C1063 C 0.06324 0.53375 0.97846 0.0
C1064 C 0.0115 0.52164 0.95526 0.0
H1065 H 0.93336 0.4278 0.99759 0.0
H1066 H 0.96902 0.45485 0.99388 0.0
H1067 H 0.97899 0.50914 0.95195 0.0
H1068 H 0.08224 0.58288 0.93915 0.0
H1069 H 0.04715 0.55474 0.93431 0.0
H1070 H 0.03478 0.49364 0.96619 0.0
C1071 C 0.95816 0.45386 0.98004 0.0
C1072 C 0.99108 0.50557 0.95487 0.0
C1073 C 0.93767 0.43839 0.98224 0.0
C1074 C 0.0773 0.56921 0.95012 0.0
C1075 C 0.05699 0.55309 0.94758 0.0
C1076 C 0.02285 0.49742 0.96333 0.0
C1077 C 0.96446 0.46828 0.96075 0.0
C1078 C 0.98626 0.48528 0.95927 0.0
C1079 C 0.04958 0.5351 0.96182 0.0
C1080 C 0.02775 0.51788 0.95981 0.0
H1081 H 0.91816 0.44992 0.9319 0.0
H1082 H 0.95402 0.47718 0.92818 0.0
H1083 H 0.99939 0.46599 0.96627 0.0
H1084 H 0.09337 0.54769 0.99363 0.0
H1085 H 0.05828 0.52045 0.99012 0.0
C1086 C 0.075 0.50908 0.36236 0.0
C1087 C 0.08966 0.52201 0.37974 0.0
C1088 C 0.05445 0.50397 0.36449 0.0
C1089 C 0.02106 0.52215 0.39 0.0
H1090 H 0.97782 0.46642 0.37896 0.0
C1091 C 0.93467 0.49879 0.39594 0.0
C1092 C 0.92113 0.4839 0.37914 0.0
C1093 C 0.95506 0.50312 0.39824 0.0
C1094 C 0.98962 0.48215 0.38175 0.0
H1095 H 0.09407 0.53969 0.41304 0.0
H1096 H 0.05815 0.53094 0.41661 0.0
H1097 H 0.01337 0.47454 0.37841 0.0
H1098 H 0.91868 0.46136 0.35234 0.0
H1099 H 0.95391 0.46947 0.35543 0.0
H1100 H 0.99741 0.52996 0.39252 0.0
C1101 C 0.06261 0.5247 0.40136 0.0
C1102 C 0.01009 0.48677 0.38156 0.0
C1103 C 0.08316 0.52957 0.39945 0.0
C1104 C 0.92858 0.47327 0.36511 0.0
C1105 C 0.94889 0.47769 0.36723 0.0
C1106 C 1.00055 0.51759 0.38988 0.0
C1107 C 0.04798 0.51186 0.38387 0.0
C1108 C 0.02612 0.50685 0.38545 0.0
C1109 C 0.96255 0.49271 0.38378 0.0
C1110 C 0.98447 0.49753 0.38547 0.0
H1111 H 0.07943 0.50291 0.34702 0.0
H1112 H 0.04367 0.49416 0.35058 0.0
H1113 H 0.03302 0.53782 0.39287 0.0
H1114 H 0.92966 0.5074 0.40704 0.0
H1115 H 0.96491 0.51461 0.41146 0.0
C1116 C 0.57169 0.07256 0.69883 0.0
C1117 C 0.57323 0.08747 0.71567 0.0
C1118 C 0.55622 0.0521 0.70118 0.0
C1119 C 0.50426 0.01932 0.72614 0.0
H1120 H 0.51642 0.97575 0.71558 0.0
C1121 C 0.44075 0.9332 0.7315 0.0
C1122 C 0.44213 0.91971 0.71465 0.0
C1123 C 0.45686 0.9535 0.73397 0.0
C1124 C 0.51258 0.98765 0.71825 0.0
H1125 H 0.55961 0.09237 0.74833 0.0
H1126 H 0.53238 0.05659 0.75232 0.0
H1127 H 0.54405 0.0111 0.71532 0.0
H1128 H 0.4623 0.91722 0.68796 0.0
H1129 H 0.48956 0.95227 0.69143 0.0
H1130 H 0.47271 0.99593 0.72829 0.0
C1131 C 0.54326 0.0608 0.73729 0.0
C1132 C 0.52855 0.00801 0.71821 0.0
C1133 C 0.55898 0.08127 0.73515 0.0
C1134 C 0.46028 0.92709 0.70076 0.0
C1135 C 0.47624 0.94729 0.7031 0.0
C1136 C 0.48821 0.99891 0.72589 0.0
C1137 C 0.54162 0.04594 0.72026 0.0
C1138 C 0.52463 0.02417 0.72189 0.0
C1139 C 0.47487 0.96092 0.7197 0.0
C1140 C 0.49206 0.98272 0.72162 0.0
H1141 H 0.58245 0.07675 0.68367 0.0
H1142 H 0.55539 0.04117 0.6876 0.0
H1143 H 0.50063 0.03136 0.72882 0.0
H1144 H 0.42706 0.92824 0.74248 0.0
H1145 H 0.4552 0.96332 0.74721 0.0
C1146 C 0.48269 0.55746 0.0692 0.0
C1147 C 0.49065 0.57172 0.04973 0.0
C1148 C 0.48745 0.54172 0.07115 0.0
C1149 C 0.52543 0.52688 0.0516 0.0
H1150 H 0.48161 0.47118 0.06129 0.0
C1151 C 0.53811 0.45864 0.0336 0.0
C1152 C 0.52725 0.44043 0.0473 0.0
C1153 C 0.53387 0.47461 0.03605 0.0
C1154 C 0.49416 0.48664 0.059 0.0
H1155 H 0.51043 0.58093 0.01757 0.0
H1156 H 0.51899 0.55385 0.02121 0.0
H1157 H 0.47415 0.49915 0.06219 0.0
H1158 H 0.50347 0.42527 0.0749 0.0
H1159 H 0.49656 0.45341 0.07985 0.0
H1160 H 0.54553 0.51466 0.04873 0.0
C1161 C 0.50896 0.55469 0.0349 0.0
C1162 C 0.48983 0.50272 0.05946 0.0
C1163 C 0.50395 0.57018 0.03273 0.0
C1164 C 0.51227 0.43899 0.06406 0.0
C1165 C 0.50811 0.45512 0.06666 0.0
C1166 C 0.5298 0.51088 0.05143 0.0
C1167 C 0.5006 0.54007 0.05394 0.0
C1168 C 0.50536 0.52304 0.05535 0.0
C1169 C 0.51879 0.47319 0.05259 0.0
C1170 C 0.5142 0.49041 0.05466 0.0
H1171 H 0.47228 0.5581 0.08248 0.0
H1172 H 0.48085 0.53082 0.08614 0.0
H1173 H 0.53785 0.54235 0.0488 0.0
H1174 H 0.55008 0.4607 0.02088 0.0
H1175 H 0.54229 0.48798 0.02452 0.0
C1176 C 0.53475 0.21088 0.22331 0.0
C1177 C 0.54857 0.21695 0.24323 0.0
C1178 C 0.53526 0.22531 0.20641 0.0
C1179 C 0.56854 0.27823 0.18204 0.0
H1180 H 0.51714 0.27263 0.15962 0.0
C1181 C 0.56349 0.32798 0.10199 0.0
C1182 C 0.54898 0.3344 0.10429 0.0
C1183 C 0.56407 0.31417 0.11905 0.0
C1184 C 0.53169 0.27457 0.16573 0.0
H1185 H 0.57439 0.24286 0.26033 0.0
H1186 H 0.57547 0.2681 0.23083 0.0
H1187 H 0.51703 0.24788 0.18872 0.0
H1188 H 0.52451 0.33227 0.12726 0.0
H1189 H 0.52523 0.30804 0.15678 0.0
H1190 H 0.58318 0.30501 0.15907 0.0
C1191 C 0.56407 0.25219 0.22827 0.0
C1192 C 0.53162 0.26016 0.18231 0.0
C1193 C 0.56343 0.23774 0.24528 0.0
C1194 C 0.53548 0.32717 0.12454 0.0
C1195 C 0.53593 0.31326 0.14149 0.0
C1196 C 0.56861 0.29255 0.16524 0.0
C1197 C 0.54984 0.24625 0.20867 0.0
C1198 C 0.55003 0.26174 0.19081 0.0
C1199 C 0.55012 0.30636 0.13897 0.0
C1200 C 0.55017 0.29101 0.15685 0.0
H1201 H 0.52351 0.19491 0.22075 0.0
H1202 H 0.52433 0.21997 0.19136 0.0
H1203 H 0.58306 0.27997 0.1879 0.0
H1204 H 0.57419 0.33339 0.08667 0.0
H1205 H 0.57516 0.30924 0.11629 0.0
C1206 C 0.23099 0.56591 0.45371 0.0
C1207 C 0.22043 0.54959 0.43687 0.0
C1208 C 0.24596 0.56663 0.46994 0.0
C1209 C 0.28181 0.54653 0.48013 0.0
H1210 H 0.28007 0.56063 0.54866 0.0
C1211 C 0.33066 0.53569 0.55602 0.0
C1212 C 0.33766 0.54899 0.57644 0.0
C1213 C 0.31722 0.53653 0.53861 0.0
C1214 C 0.28111 0.55695 0.52956 0.0
H1215 H 0.22184 0.52379 0.42103 0.0
H1216 H 0.24698 0.52467 0.44945 0.0
H1217 H 0.25597 0.56111 0.51901 0.0
H1218 H 0.33675 0.57425 0.59391 0.0
H1219 H 0.31377 0.57617 0.56336 0.0
H1220 H 0.30705 0.54257 0.49051 0.0
C1221 C 0.24269 0.53632 0.45111 0.0
C1222 C 0.26714 0.55719 0.51245 0.0
C1223 C 0.2276 0.53552 0.43505 0.0
C1224 C 0.33142 0.56362 0.57853 0.0
C1225 C 0.31805 0.56456 0.56105 0.0
C1226 C 0.29588 0.54643 0.4972 0.0
C1227 C 0.25175 0.55158 0.46933 0.0
C1228 C 0.26715 0.55187 0.48745 0.0
C1229 C 0.31054 0.55091 0.54082 0.0
C1230 C 0.29575 0.55152 0.52231 0.0
H1231 H 0.22824 0.57855 0.45453 0.0
H1232 H 0.25326 0.57927 0.4828 0.0
H1233 H 0.28263 0.54266 0.46104 0.0
H1234 H 0.33553 0.52453 0.55357 0.0
H1235 H 0.3118 0.52557 0.52361 0.0
C1236 C 0.79946 0.32599 0.88992 0.0
C1237 C 0.79342 0.33394 0.90962 0.0
C1238 C 0.78504 0.31223 0.8729 0.0
C1239 C 0.72825 0.27731 0.86391 0.0
H1240 H 0.74447 0.27593 0.79627 0.0
C1241 C 0.67435 0.21299 0.79536 0.0
C1242 C 0.67521 0.21766 0.77007 0.0
C1243 C 0.68845 0.22735 0.81219 0.0
C1244 C 0.73946 0.27614 0.81497 0.0
H1245 H 0.76756 0.33441 0.92614 0.0
H1246 H 0.74244 0.31094 0.89622 0.0
H1247 H 0.76903 0.30079 0.825 0.0
H1248 H 0.69147 0.24101 0.74256 0.0
H1249 H 0.71567 0.2663 0.77175 0.0
H1250 H 0.69847 0.2531 0.85363 0.0
C1251 C 0.75821 0.31468 0.89423 0.0
C1252 C 0.75379 0.29033 0.83174 0.0
C1253 C 0.77266 0.32834 0.91135 0.0
C1254 C 0.69043 0.23702 0.76198 0.0
C1255 C 0.70445 0.25145 0.77879 0.0
C1256 C 0.71388 0.26319 0.84709 0.0
C1257 C 0.76408 0.3062 0.87475 0.0
C1258 C 0.74853 0.29117 0.8566 0.0
C1259 C 0.70383 0.24689 0.80425 0.0
C1260 C 0.7192 0.26226 0.82229 0.0
H1261 H 0.81541 0.33039 0.88768 0.0
H1262 H 0.79038 0.3061 0.8585 0.0
H1263 H 0.72344 0.27709 0.88282 0.0
H1264 H 0.66294 0.19807 0.80205 0.0
H1265 H 0.6875 0.2229 0.83139 0.0
C1266 C 0.46276 0.69155 0.09645 0.0
C1267 C 0.46305 0.67407 0.1048 0.0
C1268 C 0.46265 0.7057 0.11329 0.0
C1269 C 0.47374 0.72259 0.17982 0.0
H1270 H 0.44351 0.75027 0.16439 0.0
C1271 C 0.4629 0.7738 0.25223 0.0
C1272 C 0.4632 0.79157 0.24382 0.0
C1273 C 0.46277 0.7595 0.23544 0.0
C1274 C 0.45226 0.7429 0.16898 0.0
H1275 H 0.46438 0.65828 0.13752 0.0
H1276 H 0.46357 0.68247 0.16692 0.0
H1277 H 0.44339 0.72557 0.1353 0.0
H1278 H 0.46463 0.80867 0.21105 0.0
H1279 H 0.46423 0.78378 0.18171 0.0
H1280 H 0.48252 0.73987 0.21356 0.0
C1281 C 0.46347 0.68542 0.14734 0.0
C1282 C 0.45221 0.72864 0.15216 0.0
C1283 C 0.46361 0.67129 0.13046 0.0
C1284 C 0.46374 0.79484 0.21814 0.0
C1285 C 0.46356 0.78053 0.20131 0.0
C1286 C 0.47374 0.73681 0.19666 0.0
C1287 C 0.46298 0.70292 0.1391 0.0
C1288 C 0.46296 0.7182 0.15722 0.0
C1289 C 0.46307 0.76257 0.20963 0.0
C1290 C 0.46301 0.74725 0.19157 0.0
H1291 H 0.46263 0.69427 0.07678 0.0
H1292 H 0.46266 0.71905 0.10597 0.0
H1293 H 0.48257 0.71531 0.18441 0.0
H1294 H 0.46264 0.77092 0.27191 0.0
H1295 H 0.46219 0.74588 0.24275 0.0
C1296 C 0.6972 0.4744 0.57948 0.0
C1297 C 0.67596 0.4603 0.57776 0.0
C1298 C 0.71144 0.47359 0.56337 0.0
C1299 C 0.71488 0.4525 0.50212 0.0
H1300 H 0.76949 0.46727 0.52398 0.0
C1301 C 0.77251 0.44576 0.43609 0.0
C1302 C 0.79338 0.46045 0.43803 0.0
C1303 C 0.75827 0.44487 0.45362 0.0
C1304 C 0.75443 0.46335 0.51731 0.0
H1305 H 0.65476 0.43132 0.56017 0.0
H1306 H 0.67899 0.43058 0.53182 0.0
H1307 H 0.74506 0.4673 0.55343 0.0
H1308 H 0.81578 0.48505 0.46069 0.0
H1309 H 0.79112 0.4841 0.49072 0.0
H1310 H 0.72426 0.44887 0.46594 0.0
C1311 C 0.68436 0.44324 0.54465 0.0
C1312 C 0.7403 0.46334 0.53437 0.0
C1313 C 0.67016 0.44397 0.56092 0.0
C1314 C 0.79975 0.47384 0.45836 0.0
C1315 C 0.78554 0.47306 0.47582 0.0
C1316 C 0.72903 0.45265 0.48502 0.0
C1317 C 0.7052 0.45829 0.54519 0.0
C1318 C 0.72028 0.45795 0.52708 0.0
C1319 C 0.76447 0.45864 0.47374 0.0
C1320 C 0.74913 0.45813 0.49224 0.0
H1321 H 0.70324 0.48614 0.59348 0.0
H1322 H 0.72739 0.48525 0.56497 0.0
H1323 H 0.69976 0.44854 0.49557 0.0
H1324 H 0.76716 0.43507 0.42079 0.0
H1325 H 0.74238 0.43323 0.45142 0.0
C1326 C 0.23712 0.69131 0.91891 0.0
C1327 C 0.21927 0.67396 0.91048 0.0
C1328 C 0.25149 0.70545 0.90213 0.0
C1329 C 0.26797 0.71163 0.83555 0.0
H1330 H 0.296 0.76937 0.8512 0.0
C1331 C 0.31918 0.77349 0.76296 0.0
C1332 C 0.3368 0.79116 0.77123 0.0
C1333 C 0.30508 0.75922 0.77985 0.0
C1334 C 0.28859 0.75331 0.84655 0.0
H1335 H 0.2021 0.65839 0.87771 0.0
H1336 H 0.22706 0.68285 0.84839 0.0
H1337 H 0.27142 0.74481 0.88039 0.0
H1338 H 0.35293 0.80806 0.80389 0.0
H1339 H 0.32884 0.78306 0.83339 0.0
H1340 H 0.28518 0.7201 0.80176 0.0
C1341 C 0.23034 0.68538 0.86798 0.0
C1342 C 0.27437 0.73911 0.86342 0.0
C1343 C 0.21597 0.67127 0.88481 0.0
C1344 C 0.3398 0.79436 0.79688 0.0
C1345 C 0.32573 0.7801 0.81382 0.0
C1346 C 0.28224 0.72582 0.81871 0.0
C1347 C 0.24839 0.70276 0.87631 0.0
C1348 C 0.26376 0.718 0.85824 0.0
C1349 C 0.30807 0.76222 0.80565 0.0
C1350 C 0.29282 0.74695 0.82384 0.0
H1351 H 0.24003 0.69387 0.93859 0.0
H1352 H 0.26519 0.7184 0.90945 0.0
H1353 H 0.26048 0.69556 0.8309 0.0
H1354 H 0.31628 0.77073 0.7433 0.0
H1355 H 0.29162 0.74598 0.77259 0.0
loop_
_geom_bond_atom_site_label_1
_geom_bond_atom_site_label_2
_geom_bond_distance
_geom_bond_site_symmetry_2
_ccdc_geom_bond_type
C0 C1 1.443 . S
C0 N4 1.376 . S
C0 C38 1.389 . S
C1 C0 1.443 . S
C1 C2 1.340 . S
C1 H41 0.951 . S
C2 C1 1.340 . S
C2 C3 1.439 . S
C2 H42 0.950 . S
C3 C2 1.439 . S
C3 N4 1.374 . S
C3 C37 1.395 . S
N4 C0 1.376 . S
N4 C3 1.374 . S
N4 Co5 2.008 . S
Co5 N4 2.008 . S
Co5 N6 1.995 . S
Co5 N11 2.008 . S
Co5 N16 1.995 . S
Co5 N21 2.282 . S
Co5 N27 2.282 . S
N6 Co5 1.995 . S
N6 C7 1.376 . S
N6 C10 1.383 . S
C7 N6 1.376 . S
C7 C8 1.446 . S
C7 C37 1.391 . S
C8 C7 1.446 . S
C8 C9 1.339 . S
C8 H43 0.949 . S
C9 C8 1.339 . S
C9 C10 1.439 . S
C9 H44 0.950 . S
C10 N6 1.383 . S
C10 C9 1.439 . S
C10 C39 1.392 . S
N11 Co5 2.008 . S
N11 C12 1.376 . S
N11 C15 1.374 . S
C12 N11 1.376 . S
C12 C13 1.443 . S
C12 C39 1.389 . S
C13 C12 1.443 . S
C13 C14 1.340 . S
C13 H45 0.951 . S
C14 C13 1.340 . S
C14 C15 1.439 . S
C14 H46 0.950 . S
C15 N11 1.374 . S
C15 C14 1.439 . S
C15 C40 1.395 . S
N16 Co5 1.995 . S
N16 C17 1.376 . S
N16 C20 1.383 . S
C17 N16 1.376 . S
C17 C18 1.446 . S
C17 C40 1.391 . S
C18 C17 1.446 . S
C18 C19 1.339 . S
C18 H47 0.949 . S
C19 C18 1.339 . S
C19 C20 1.439 . S
C19 H48 0.950 . S
C20 N16 1.383 . S
C20 C19 1.439 . S
C20 C38 1.392 . S
N21 Co5 2.282 . S
N21 C24 1.332 . S
N21 C26 1.332 . S
C22 C23 1.386 . S
C22 C25 1.388 . S
C23 C22 1.386 . S
C23 C24 1.382 . S
C23 H49 0.950 . S
C24 N21 1.332 . S
C24 C23 1.382 . S
C24 H35 0.952 . S
C25 C22 1.388 . S
C25 C26 1.382 . S
C25 H50 0.950 . S
C26 N21 1.332 . S
C26 C25 1.382 . S
C26 H36 0.948 . S
N27 Co5 2.282 . S
N27 C31 1.332 . S
N27 C32 1.332 . S
C28 C29 1.388 . S
C28 C32 1.382 . S
C28 H51 0.950 . S
C29 C28 1.388 . S
C29 C30 1.386 . S
C30 C29 1.386 . S
C30 C31 1.382 . S
C30 H52 0.950 . S
C31 N27 1.332 . S
C31 C30 1.382 . S
C31 H33 0.952 . S
C32 N27 1.332 . S
C32 C28 1.382 . S
C32 H34 0.948 . S
H33 C31 0.952 . S
H34 C32 0.948 . S
H35 C24 0.952 . S
H36 C26 0.948 . S
C37 C3 1.395 . S
C37 C7 1.391 . S
C38 C0 1.389 . S
C38 C20 1.392 . S
C39 C10 1.392 . S
C39 C12 1.389 . S
C40 C15 1.395 . S
C40 C17 1.391 . S
H41 C1 0.951 . S
H42 C2 0.950 . S
H43 C8 0.949 . S
H44 C9 0.950 . S
H45 C13 0.951 . S
H46 C14 0.950 . S
H47 C18 0.949 . S
H48 C19 0.950 . S
H49 C23 0.950 . S
H50 C25 0.950 . S
H51 C28 0.950 . S
H52 C30 0.950 . S
C53 C54 1.443 . S
C53 N57 1.376 . S
C53 C91 1.389 . S
C54 C53 1.443 . S
C54 C55 1.340 . S
C54 H94 0.951 . S
C55 C54 1.340 . S
C55 C56 1.439 . S
C55 H95 0.950 . S
C56 C55 1.439 . S
C56 N57 1.374 . S
C56 C90 1.395 . S
N57 C53 1.376 . S
N57 C56 1.374 . S
N57 Co58 2.008 . S
Co58 N57 2.008 . S
Co58 N59 1.995 . S
Co58 N64 2.008 . S
Co58 N69 1.995 . S
Co58 N74 2.282 . S
Co58 N80 2.282 . S
N59 Co58 1.995 . S
N59 C60 1.376 . S
N59 C63 1.383 . S
C60 N59 1.376 . S
C60 C61 1.446 . S
C60 C90 1.391 . S
C61 C60 1.446 . S
C61 C62 1.339 . S
C61 H96 0.949 . S
C62 C61 1.339 . S
C62 C63 1.439 . S
C62 H97 0.950 . S
C63 N59 1.383 . S
C63 C62 1.439 . S
C63 C92 1.392 . S
N64 Co58 2.008 . S
N64 C65 1.376 . S
N64 C68 1.374 . S
C65 N64 1.376 . S
C65 C66 1.443 . S
C65 C92 1.389 . S
C66 C65 1.443 . S
C66 C67 1.340 . S
C66 H98 0.951 . S
C67 C66 1.340 . S
C67 C68 1.439 . S
C67 H99 0.950 . S
C68 N64 1.374 . S
C68 C67 1.439 . S
C68 C93 1.395 . S
N69 Co58 1.995 . S
N69 C70 1.376 . S
N69 C73 1.383 . S
C70 N69 1.376 . S
C70 C71 1.446 . S
C70 C93 1.391 . S
C71 C70 1.446 . S
C71 C72 1.339 . S
C71 H100 0.949 . S
C72 C71 1.339 . S
C72 C73 1.439 . S
C72 H101 0.950 . S
C73 N69 1.383 . S
C73 C72 1.439 . S
C73 C91 1.392 . S
N74 Co58 2.282 . S
N74 C77 1.332 . S
N74 C79 1.332 . S
C75 C76 1.386 . S
C75 C78 1.388 . S
C76 C75 1.386 . S
C76 C77 1.382 . S
C76 H102 0.950 . S
C77 N74 1.332 . S
C77 C76 1.382 . S
C77 H88 0.952 . S
C78 C75 1.388 . S
C78 C79 1.382 . S
C78 H103 0.950 . S
C79 N74 1.332 . S
C79 C78 1.382 . S
C79 H89 0.948 . S
N80 Co58 2.282 . S
N80 C84 1.332 . S
N80 C85 1.332 . S
C81 C82 1.388 . S
C81 C85 1.382 . S
C81 H104 0.950 . S
C82 C81 1.388 . S
C82 C83 1.386 . S
C83 C82 1.386 . S
C83 C84 1.382 . S
C83 H105 0.950 . S
C84 N80 1.332 . S
C84 C83 1.382 . S
C84 H86 0.952 . S
C85 N80 1.332 . S
C85 C81 1.382 . S
C85 H87 0.948 . S
H86 C84 0.952 . S
H87 C85 0.948 . S
H88 C77 0.952 . S
H89 C79 0.948 . S
C90 C56 1.395 . S
C90 C60 1.391 . S
C91 C53 1.389 . S
C91 C73 1.392 . S
C92 C63 1.392 . S
C92 C65 1.389 . S
C93 C68 1.395 . S
C93 C70 1.391 . S
H94 C54 0.951 . S
H95 C55 0.950 . S
H96 C61 0.949 . S
H97 C62 0.950 . S
H98 C66 0.951 . S
H99 C67 0.950 . S
H100 C71 0.949 . S
H101 C72 0.950 . S
H102 C76 0.950 . S
H103 C78 0.950 . S
H104 C81 0.950 . S
H105 C83 0.950 . S
C106 C107 1.443 . S
C106 N110 1.376 . S
C106 C144 1.389 . S
C107 C106 1.443 . S
C107 C108 1.340 . S
C107 H147 0.951 . S
C108 C107 1.340 . S
C108 C109 1.439 . S
C108 H148 0.950 . S
C109 C108 1.439 . S
C109 N110 1.374 . S
C109 C143 1.395 . S
N110 C106 1.376 . S
N110 C109 1.374 . S
N110 Co111 2.008 . S
Co111 N110 2.008 . S
Co111 N112 1.995 1_556 S
Co111 N117 2.008 1_556 S
Co111 N122 1.995 . S
Co111 N127 2.282 . S
Co111 N133 2.282 1_556 S
N112 Co111 1.995 1_554 S
N112 C113 1.376 . S
N112 C116 1.383 . S
C113 N112 1.376 . S
C113 C114 1.446 . S
C113 C143 1.391 1_554 S
C114 C113 1.446 . S
C114 C115 1.339 . S
C114 H149 0.949 . S
C115 C114 1.339 . S
C115 C116 1.439 . S
C115 H150 0.950 . S
C116 N112 1.383 . S
C116 C115 1.439 . S
C116 C145 1.392 . S
N117 Co111 2.008 1_554 S
N117 C118 1.376 . S
N117 C121 1.374 . S
C118 N117 1.376 . S
C118 C119 1.443 . S
C118 C145 1.389 . S
C119 C118 1.443 . S
C119 C120 1.340 . S
C119 H151 0.951 . S
C120 C119 1.340 . S
C120 C121 1.439 . S
C120 H152 0.950 . S
C121 N117 1.374 . S
C121 C120 1.439 . S
C121 C146 1.395 . S
N122 Co111 1.995 . S
N122 C123 1.376 . S
N122 C126 1.383 . S
C123 N122 1.376 . S
C123 C124 1.446 . S
C123 C146 1.391 1_556 S
C124 C123 1.446 . S
C124 C125 1.339 . S
C124 H153 0.949 . S
C125 C124 1.339 . S
C125 C126 1.439 . S
C125 H154 0.950 . S
C126 N122 1.383 . S
C126 C125 1.439 . S
C126 C144 1.392 . S
N127 Co111 2.282 . S
N127 C130 1.332 1_556 S
N127 C132 1.332 . S
C128 C129 1.386 . S
C128 C131 1.388 1_554 S
C129 C128 1.386 . S
C129 C130 1.382 . S
C129 H155 0.950 . S
C130 N127 1.332 1_554 S
C130 C129 1.382 . S
C130 H141 0.952 . S
C131 C128 1.388 1_556 S
C131 C132 1.382 . S
C131 H156 0.950 . S
C132 N127 1.332 . S
C132 C131 1.382 . S
C132 H142 0.948 . S
N133 Co111 2.282 1_554 S
N133 C137 1.332 1_554 S
N133 C138 1.332 . S
C134 C135 1.388 1_554 S
C134 C138 1.382 . S
C134 H157 0.950 . S
C135 C134 1.388 1_556 S
C135 C136 1.386 . S
C136 C135 1.386 . S
C136 C137 1.382 . S
C136 H158 0.950 . S
C137 N133 1.332 1_556 S
C137 C136 1.382 . S
C137 H139 0.952 . S
C138 N133 1.332 . S
C138 C134 1.382 . S
C138 H140 0.948 . S
H139 C137 0.952 . S
H140 C138 0.948 . S
H141 C130 0.952 . S
H142 C132 0.948 . S
C143 C109 1.395 . S
C143 C113 1.391 1_556 S
C144 C106 1.389 . S
C144 C126 1.392 . S
C145 C116 1.392 . S
C145 C118 1.389 . S
C146 C121 1.395 . S
C146 C123 1.391 1_554 S
H147 C107 0.951 . S
H148 C108 0.950 . S
H149 C114 0.949 . S
H150 C115 0.950 . S
H151 C119 0.951 . S
H152 C120 0.950 . S
H153 C124 0.949 . S
H154 C125 0.950 . S
H155 C129 0.950 . S
H156 C131 0.950 . S
H157 C134 0.950 . S
H158 C136 0.950 . S
C159 C160 1.443 . S
C159 N163 1.376 . S
C159 C197 1.389 . S
C160 C159 1.443 . S
C160 C161 1.340 . S
C160 H200 0.951 . S
C161 C160 1.340 . S
C161 C162 1.439 . S
C161 H201 0.950 . S
C162 C161 1.439 . S
C162 N163 1.374 . S
C162 C196 1.395 . S
N163 C159 1.376 . S
N163 C162 1.374 . S
N163 Co164 2.008 . S
Co164 N163 2.008 . S
Co164 N165 1.995 . S
Co164 N170 2.008 . S
Co164 N175 1.995 . S
Co164 N180 2.282 . S
Co164 N186 2.282 . S
N165 Co164 1.995 . S
N165 C166 1.376 . S
N165 C169 1.383 . S
C166 N165 1.376 . S
C166 C167 1.446 . S
C166 C196 1.391 . S
C167 C166 1.446 . S
C167 C168 1.339 . S
C167 H202 0.949 . S
C168 C167 1.339 . S
C168 C169 1.439 . S
C168 H203 0.950 . S
C169 N165 1.383 . S
C169 C168 1.439 . S
C169 C198 1.392 . S
N170 Co164 2.008 . S
N170 C171 1.376 . S
N170 C174 1.374 . S
C171 N170 1.376 . S
C171 C172 1.443 . S
C171 C198 1.389 . S
C172 C171 1.443 . S
C172 C173 1.340 . S
C172 H204 0.951 . S
C173 C172 1.340 . S
C173 C174 1.439 . S
C173 H205 0.950 . S
C174 N170 1.374 . S
C174 C173 1.439 . S
C174 C199 1.395 . S
N175 Co164 1.995 . S
N175 C176 1.376 . S
N175 C179 1.383 . S
C176 N175 1.376 . S
C176 C177 1.446 . S
C176 C199 1.391 . S
C177 C176 1.446 . S
C177 C178 1.339 . S
C177 H206 0.949 . S
C178 C177 1.339 . S
C178 C179 1.439 . S
C178 H207 0.950 . S
C179 N175 1.383 . S
C179 C178 1.439 . S
C179 C197 1.392 . S
N180 Co164 2.282 . S
N180 C183 1.332 . S
N180 C185 1.332 . S
C181 C182 1.386 . S
C181 C184 1.388 . S
C182 C181 1.386 . S
C182 C183 1.382 . S
C182 H208 0.950 . S
C183 N180 1.332 . S
C183 C182 1.382 . S
C183 H194 0.952 . S
C184 C181 1.388 . S
C184 C185 1.382 . S
C184 H209 0.950 . S
C185 N180 1.332 . S
C185 C184 1.382 . S
C185 H195 0.948 . S
N186 Co164 2.282 . S
N186 C190 1.332 . S
N186 C191 1.332 . S
C187 C188 1.388 . S
C187 C191 1.382 . S
C187 H210 0.950 . S
C188 C187 1.388 . S
C188 C189 1.386 . S
C189 C188 1.386 . S
C189 C190 1.382 . S
C189 H211 0.950 . S
C190 N186 1.332 . S
C190 C189 1.382 . S
C190 H192 0.952 . S
C191 N186 1.332 . S
C191 C187 1.382 . S
C191 H193 0.948 . S
H192 C190 0.952 . S
H193 C191 0.948 . S
H194 C183 0.952 . S
H195 C185 0.948 . S
C196 C162 1.395 . S
C196 C166 1.391 . S
C197 C159 1.389 . S
C197 C179 1.392 . S
C198 C169 1.392 . S
C198 C171 1.389 . S
C199 C174 1.395 . S
C199 C176 1.391 . S
H200 C160 0.951 . S
H201 C161 0.950 . S
H202 C167 0.949 . S
H203 C168 0.950 . S
H204 C172 0.951 . S
H205 C173 0.950 . S
H206 C177 0.949 . S
H207 C178 0.950 . S
H208 C182 0.950 . S
H209 C184 0.950 . S
H210 C187 0.950 . S
H211 C189 0.950 . S
C212 C213 1.443 . S
C212 N216 1.376 . S
C212 C250 1.389 . S
C213 C212 1.443 . S
C213 C214 1.340 . S
C213 H253 0.951 . S
C214 C213 1.340 . S
C214 C215 1.439 . S
C214 H254 0.950 . S
C215 C214 1.439 . S
C215 N216 1.374 . S
C215 C249 1.395 . S
N216 C212 1.376 . S
N216 C215 1.374 . S
N216 Co217 2.008 . S
Co217 N216 2.008 . S
Co217 N218 1.995 . S
Co217 N223 2.008 . S
Co217 N228 1.995 . S
Co217 N233 2.282 . S
Co217 N239 2.282 . S
N218 Co217 1.995 . S
N218 C219 1.376 . S
N218 C222 1.383 . S
C219 N218 1.376 . S
C219 C220 1.446 . S
C219 C249 1.391 . S
C220 C219 1.446 . S
C220 C221 1.339 . S
C220 H255 0.949 . S
C221 C220 1.339 . S
C221 C222 1.439 . S
C221 H256 0.950 . S
C222 N218 1.383 . S
C222 C221 1.439 . S
C222 C251 1.392 . S
N223 Co217 2.008 . S
N223 C224 1.376 . S
N223 C227 1.374 . S
C224 N223 1.376 . S
C224 C225 1.443 . S
C224 C251 1.389 . S
C225 C224 1.443 . S
C225 C226 1.340 . S
C225 H257 0.951 . S
C226 C225 1.340 . S
C226 C227 1.439 . S
C226 H258 0.950 . S
C227 N223 1.374 . S
C227 C226 1.439 . S
C227 C252 1.395 . S
N228 Co217 1.995 . S
N228 C229 1.376 . S
N228 C232 1.383 . S
C229 N228 1.376 . S
C229 C230 1.446 . S
C229 C252 1.391 . S
C230 C229 1.446 . S
C230 C231 1.339 . S
C230 H259 0.949 . S
C231 C230 1.339 . S
C231 C232 1.439 . S
C231 H260 0.950 . S
C232 N228 1.383 . S
C232 C231 1.439 . S
C232 C250 1.392 . S
N233 Co217 2.282 . S
N233 C236 1.332 . S
N233 C238 1.332 . S
C234 C235 1.386 . S
C234 C237 1.388 . S
C235 C234 1.386 . S
C235 C236 1.382 . S
C235 H261 0.950 . S
C236 N233 1.332 . S
C236 C235 1.382 . S
C236 H247 0.952 . S
C237 C234 1.388 . S
C237 C238 1.382 . S
C237 H262 0.950 . S
C238 N233 1.332 . S
C238 C237 1.382 . S
C238 H248 0.948 . S
N239 Co217 2.282 . S
N239 C243 1.332 . S
N239 C244 1.332 . S
C240 C241 1.388 . S
C240 C244 1.382 . S
C240 H263 0.950 . S
C241 C240 1.388 . S
C241 C242 1.386 . S
C242 C241 1.386 . S
C242 C243 1.382 . S
C242 H264 0.950 . S
C243 N239 1.332 . S
C243 C242 1.382 . S
C243 H245 0.952 . S
C244 N239 1.332 . S
C244 C240 1.382 . S
C244 H246 0.948 . S
H245 C243 0.952 . S
H246 C244 0.948 . S
H247 C236 0.952 . S
H248 C238 0.948 . S
C249 C215 1.395 . S
C249 C219 1.391 . S
C250 C212 1.389 . S
C250 C232 1.392 . S
C251 C222 1.392 . S
C251 C224 1.389 . S
C252 C227 1.395 . S
C252 C229 1.391 . S
H253 C213 0.951 . S
H254 C214 0.950 . S
H255 C220 0.949 . S
H256 C221 0.950 . S
H257 C225 0.951 . S
H258 C226 0.950 . S
H259 C230 0.949 . S
H260 C231 0.950 . S
H261 C235 0.950 . S
H262 C237 0.950 . S
H263 C240 0.950 . S
H264 C242 0.950 . S
C265 C266 1.443 . S
C265 N269 1.376 . S
C265 C303 1.389 . S
C266 C265 1.443 . S
C266 C267 1.340 . S
C266 H306 0.951 . S
C267 C266 1.340 . S
C267 C268 1.439 . S
C267 H307 0.950 . S
C268 C267 1.439 . S
C268 N269 1.374 . S
C268 C302 1.395 . S
N269 C265 1.376 . S
N269 C268 1.374 . S
N269 Co270 2.008 . S
Co270 N269 2.008 . S
Co270 N271 1.995 1_556 S
Co270 N276 2.008 1_556 S
Co270 N281 1.995 . S
Co270 N286 2.282 . S
Co270 N292 2.282 1_556 S
N271 Co270 1.995 1_554 S
N271 C272 1.376 . S
N271 C275 1.383 . S
C272 N271 1.376 . S
C272 C273 1.446 . S
C272 C302 1.391 1_554 S
C273 C272 1.446 . S
C273 C274 1.339 . S
C273 H308 0.949 . S
C274 C273 1.339 . S
C274 C275 1.439 . S
C274 H309 0.950 . S
C275 N271 1.383 . S
C275 C274 1.439 . S
C275 C304 1.392 . S
N276 Co270 2.008 1_554 S
N276 C277 1.376 . S
N276 C280 1.374 . S
C277 N276 1.376 . S
C277 C278 1.443 . S
C277 C304 1.389 . S
C278 C277 1.443 . S
C278 C279 1.340 . S
C278 H310 0.951 . S
C279 C278 1.340 . S
C279 C280 1.439 . S
C279 H311 0.950 . S
C280 N276 1.374 . S
C280 C279 1.439 . S
C280 C305 1.395 . S
N281 Co270 1.995 . S
N281 C282 1.376 . S
N281 C285 1.383 . S
C282 N281 1.376 . S
C282 C283 1.446 . S
C282 C305 1.391 1_556 S
C283 C282 1.446 . S
C283 C284 1.339 . S
C283 H312 0.949 . S
C284 C283 1.339 . S
C284 C285 1.439 . S
C284 H313 0.950 . S
C285 N281 1.383 . S
C285 C284 1.439 . S
C285 C303 1.392 . S
N286 Co270 2.282 . S
N286 C289 1.332 1_556 S
N286 C291 1.332 . S
C287 C288 1.386 . S
C287 C290 1.388 1_554 S
C288 C287 1.386 . S
C288 C289 1.382 . S
C288 H314 0.950 . S
C289 N286 1.332 1_554 S
C289 C288 1.382 . S
C289 H300 0.952 . S
C290 C287 1.388 1_556 S
C290 C291 1.382 . S
C290 H315 0.950 . S
C291 N286 1.332 . S
C291 C290 1.382 . S
C291 H301 0.948 . S
N292 Co270 2.282 1_554 S
N292 C296 1.332 1_554 S
N292 C297 1.332 . S
C293 C294 1.388 1_554 S
C293 C297 1.382 . S
C293 H316 0.950 . S
C294 C293 1.388 1_556 S
C294 C295 1.386 . S
C295 C294 1.386 . S
C295 C296 1.382 . S
C295 H317 0.950 . S
C296 N292 1.332 1_556 S
C296 C295 1.382 . S
C296 H298 0.952 . S
C297 N292 1.332 . S
C297 C293 1.382 . S
C297 H299 0.948 . S
H298 C296 0.952 . S
H299 C297 0.948 . S
H300 C289 0.952 . S
H301 C291 0.948 . S
C302 C268 1.395 . S
C302 C272 1.391 1_556 S
C303 C265 1.389 . S
C303 C285 1.392 . S
C304 C275 1.392 . S
C304 C277 1.389 . S
C305 C280 1.395 . S
C305 C282 1.391 1_554 S
H306 C266 0.951 . S
H307 C267 0.950 . S
H308 C273 0.949 . S
H309 C274 0.950 . S
H310 C278 0.951 . S
H311 C279 0.950 . S
H312 C283 0.949 . S
H313 C284 0.950 . S
H314 C288 0.950 . S
H315 C290 0.950 . S
H316 C293 0.950 . S
H317 C295 0.950 . S
C318 C319 1.443 . S
C318 N322 1.376 . S
C318 C356 1.389 . S
C319 C318 1.443 . S
C319 C320 1.340 . S
C319 H359 0.951 . S
C320 C319 1.340 . S
C320 C321 1.439 . S
C320 H360 0.950 . S
C321 C320 1.439 . S
C321 N322 1.374 . S
C321 C355 1.395 . S
N322 C318 1.376 . S
N322 C321 1.374 . S
N322 Co323 2.008 . S
Co323 N322 2.008 . S
Co323 N324 1.995 . S
Co323 N329 2.008 . S
Co323 N334 1.995 . S
Co323 N339 2.282 . S
Co323 N345 2.282 . S
N324 Co323 1.995 . S
N324 C325 1.376 . S
N324 C328 1.383 . S
C325 N324 1.376 . S
C325 C326 1.446 . S
C325 C355 1.391 . S
C326 C325 1.446 . S
C326 C327 1.339 . S
C326 H361 0.949 . S
C327 C326 1.339 . S
C327 C328 1.439 . S
C327 H362 0.950 . S
C328 N324 1.383 . S
C328 C327 1.439 . S
C328 C357 1.392 . S
N329 Co323 2.008 . S
N329 C330 1.376 . S
N329 C333 1.374 . S
C330 N329 1.376 . S
C330 C331 1.443 . S
C330 C357 1.389 . S
C331 C330 1.443 . S
C331 C332 1.340 . S
C331 H363 0.951 . S
C332 C331 1.340 . S
C332 C333 1.439 . S
C332 H364 0.950 . S
C333 N329 1.374 . S
C333 C332 1.439 . S
C333 C358 1.395 . S
N334 Co323 1.995 . S
N334 C335 1.376 . S
N334 C338 1.383 . S
C335 N334 1.376 . S
C335 C336 1.446 . S
C335 C358 1.391 . S
C336 C335 1.446 . S
C336 C337 1.339 . S
C336 H365 0.949 . S
C337 C336 1.339 . S
C337 C338 1.439 . S
C337 H366 0.950 . S
C338 N334 1.383 . S
C338 C337 1.439 . S
C338 C356 1.392 . S
N339 Co323 2.282 . S
N339 C342 1.332 . S
N339 C344 1.332 . S
C340 C341 1.386 . S
C340 C343 1.388 . S
C341 C340 1.386 . S
C341 C342 1.382 . S
C341 H367 0.950 . S
C342 N339 1.332 . S
C342 C341 1.382 . S
C342 H353 0.952 . S
C343 C340 1.388 . S
C343 C344 1.382 . S
C343 H368 0.950 . S
C344 N339 1.332 . S
C344 C343 1.382 . S
C344 H354 0.948 . S
N345 Co323 2.282 . S
N345 C349 1.332 . S
N345 C350 1.332 . S
C346 C347 1.388 . S
C346 C350 1.382 . S
C346 H369 0.950 . S
C347 C346 1.388 . S
C347 C348 1.386 . S
C348 C347 1.386 . S
C348 C349 1.382 . S
C348 H370 0.950 . S
C349 N345 1.332 . S
C349 C348 1.382 . S
C349 H351 0.952 . S
C350 N345 1.332 . S
C350 C346 1.382 . S
C350 H352 0.948 . S
H351 C349 0.952 . S
H352 C350 0.948 . S
H353 C342 0.952 . S
H354 C344 0.948 . S
C355 C321 1.395 . S
C355 C325 1.391 . S
C356 C318 1.389 . S
C356 C338 1.392 . S
C357 C328 1.392 . S
C357 C330 1.389 . S
C358 C333 1.395 . S
C358 C335 1.391 . S
H359 C319 0.951 . S
H360 C320 0.950 . S
H361 C326 0.949 . S
H362 C327 0.950 . S
H363 C331 0.951 . S
H364 C332 0.950 . S
H365 C336 0.949 . S
H366 C337 0.950 . S
H367 C341 0.950 . S
H368 C343 0.950 . S
H369 C346 0.950 . S
H370 C348 0.950 . S
C371 C372 1.443 . S
C371 N375 1.376 . S
C371 C409 1.389 . S
C372 C371 1.443 . S
C372 C373 1.340 . S
C372 H412 0.951 . S
C373 C372 1.340 . S
C373 C374 1.439 . S
C373 H413 0.950 . S
C374 C373 1.439 . S
C374 N375 1.374 . S
C374 C408 1.395 . S
N375 C371 1.376 . S
N375 C374 1.374 . S
N375 Co376 2.008 . S
Co376 N375 2.008 . S
Co376 N377 1.995 . S
Co376 N382 2.008 . S
Co376 N387 1.995 . S
Co376 N392 2.282 . S
Co376 N398 2.282 . S
N377 Co376 1.995 . S
N377 C378 1.376 . S
N377 C381 1.383 . S
C378 N377 1.376 . S
C378 C379 1.446 . S
C378 C408 1.391 . S
C379 C378 1.446 . S
C379 C380 1.339 . S
C379 H414 0.949 . S
C380 C379 1.339 . S
C380 C381 1.439 . S
C380 H415 0.950 . S
C381 N377 1.383 . S
C381 C380 1.439 . S
C381 C410 1.392 . S
N382 Co376 2.008 . S
N382 C383 1.376 . S
N382 C386 1.374 . S
C383 N382 1.376 . S
C383 C384 1.443 . S
C383 C410 1.389 . S
C384 C383 1.443 . S
C384 C385 1.340 . S
C384 H416 0.951 . S
C385 C384 1.340 . S
C385 C386 1.439 . S
C385 H417 0.950 . S
C386 N382 1.374 . S
C386 C385 1.439 . S
C386 C411 1.395 . S
N387 Co376 1.995 . S
N387 C388 1.376 . S
N387 C391 1.383 . S
C388 N387 1.376 . S
C388 C389 1.446 . S
C388 C411 1.391 . S
C389 C388 1.446 . S
C389 C390 1.339 . S
C389 H418 0.949 . S
C390 C389 1.339 . S
C390 C391 1.439 . S
C390 H419 0.950 . S
C391 N387 1.383 . S
C391 C390 1.439 . S
C391 C409 1.392 . S
N392 Co376 2.282 . S
N392 C395 1.332 . S
N392 C397 1.332 . S
C393 C394 1.386 . S
C393 C396 1.388 . S
C394 C393 1.386 . S
C394 C395 1.382 . S
C394 H420 0.950 . S
C395 N392 1.332 . S
C395 C394 1.382 . S
C395 H406 0.952 . S
C396 C393 1.388 . S
C396 C397 1.382 . S
C396 H421 0.950 . S
C397 N392 1.332 . S
C397 C396 1.382 . S
C397 H407 0.948 . S
N398 Co376 2.282 . S
N398 C402 1.332 . S
N398 C403 1.332 . S
C399 C400 1.388 . S
C399 C403 1.382 . S
C399 H422 0.950 . S
C400 C399 1.388 . S
C400 C401 1.386 . S
C401 C400 1.386 . S
C401 C402 1.382 . S
C401 H423 0.950 . S
C402 N398 1.332 . S
C402 C401 1.382 . S
C402 H404 0.952 . S
C403 N398 1.332 . S
C403 C399 1.382 . S
C403 H405 0.948 . S
H404 C402 0.952 . S
H405 C403 0.948 . S
H406 C395 0.952 . S
H407 C397 0.948 . S
C408 C374 1.395 . S
C408 C378 1.391 . S
C409 C371 1.389 . S
C409 C391 1.392 . S
C410 C381 1.392 . S
C410 C383 1.389 . S
C411 C386 1.395 . S
C411 C388 1.391 . S
H412 C372 0.951 . S
H413 C373 0.950 . S
H414 C379 0.949 . S
H415 C380 0.950 . S
H416 C384 0.951 . S
H417 C385 0.950 . S
H418 C389 0.949 . S
H419 C390 0.950 . S
H420 C394 0.950 . S
H421 C396 0.950 . S
H422 C399 0.950 . S
H423 C401 0.950 . S
C424 C425 1.443 . S
C424 N428 1.376 . S
C424 C462 1.389 . S
C425 C424 1.443 . S
C425 C426 1.340 . S
C425 H465 0.951 . S
C426 C425 1.340 . S
C426 C427 1.439 . S
C426 H466 0.950 . S
C427 C426 1.439 . S
C427 N428 1.374 . S
C427 C461 1.395 . S
N428 C424 1.376 . S
N428 C427 1.374 . S
N428 Co429 2.008 . S
Co429 N428 2.008 . S
Co429 N430 1.995 1_554 S
Co429 N435 2.008 1_554 S
Co429 N440 1.995 . S
Co429 N445 2.282 . S
Co429 N451 2.282 1_554 S
N430 Co429 1.995 1_556 S
N430 C431 1.376 . S
N430 C434 1.383 . S
C431 N430 1.376 . S
C431 C432 1.446 . S
C431 C461 1.391 1_556 S
C432 C431 1.446 . S
C432 C433 1.339 . S
C432 H467 0.949 . S
C433 C432 1.339 . S
C433 C434 1.439 . S
C433 H468 0.950 . S
C434 N430 1.383 . S
C434 C433 1.439 . S
C434 C463 1.392 . S
N435 Co429 2.008 1_556 S
N435 C436 1.376 . S
N435 C439 1.374 . S
C436 N435 1.376 . S
C436 C437 1.443 . S
C436 C463 1.389 . S
C437 C436 1.443 . S
C437 C438 1.340 . S
C437 H469 0.951 . S
C438 C437 1.340 . S
C438 C439 1.439 . S
C438 H470 0.950 . S
C439 N435 1.374 . S
C439 C438 1.439 . S
C439 C464 1.395 . S
N440 Co429 1.995 . S
N440 C441 1.376 . S
N440 C444 1.383 . S
C441 N440 1.376 . S
C441 C442 1.446 . S
C441 C464 1.391 1_554 S
C442 C441 1.446 . S
C442 C443 1.339 . S
C442 H471 0.949 . S
C443 C442 1.339 . S
C443 C444 1.439 . S
C443 H472 0.950 . S
C444 N440 1.383 . S
C444 C443 1.439 . S
C444 C462 1.392 . S
N445 Co429 2.282 . S
N445 C448 1.332 1_554 S
N445 C450 1.332 . S
C446 C447 1.386 . S
C446 C449 1.388 1_556 S
C447 C446 1.386 . S
C447 C448 1.382 . S
C447 H473 0.950 . S
C448 N445 1.332 1_556 S
C448 C447 1.382 . S
C448 H459 0.952 . S
C449 C446 1.388 1_554 S
C449 C450 1.382 . S
C449 H474 0.950 . S
C450 N445 1.332 . S
C450 C449 1.382 . S
C450 H460 0.948 . S
N451 Co429 2.282 1_556 S
N451 C455 1.332 1_556 S
N451 C456 1.332 . S
C452 C453 1.388 1_556 S
C452 C456 1.382 . S
C452 H475 0.950 . S
C453 C452 1.388 1_554 S
C453 C454 1.386 . S
C454 C453 1.386 . S
C454 C455 1.382 . S
C454 H476 0.950 . S
C455 N451 1.332 1_554 S
C455 C454 1.382 . S
C455 H457 0.952 . S
C456 N451 1.332 . S
C456 C452 1.382 . S
C456 H458 0.948 . S
H457 C455 0.952 . S
H458 C456 0.948 . S
H459 C448 0.952 . S
H460 C450 0.948 . S
C461 C427 1.395 . S
C461 C431 1.391 1_554 S
C462 C424 1.389 . S
C462 C444 1.392 . S
C463 C434 1.392 . S
C463 C436 1.389 . S
C464 C439 1.395 . S
C464 C441 1.391 1_556 S
H465 C425 0.951 . S
H466 C426 0.950 . S
H467 C432 0.949 . S
H468 C433 0.950 . S
H469 C437 0.951 . S
H470 C438 0.950 . S
H471 C442 0.949 . S
H472 C443 0.950 . S
H473 C447 0.950 . S
H474 C449 0.950 . S
H475 C452 0.950 . S
H476 C454 0.950 . S
C477 C478 1.443 . S
C477 N481 1.376 . S
C477 C515 1.389 . S
C478 C477 1.443 . S
C478 C479 1.340 . S
C478 H518 0.951 . S
C479 C478 1.340 . S
C479 C480 1.439 . S
C479 H519 0.950 . S
C480 C479 1.439 . S
C480 N481 1.374 . S
C480 C514 1.395 . S
N481 C477 1.376 . S
N481 C480 1.374 . S
N481 Co482 2.008 . S
Co482 N481 2.008 . S
Co482 N483 1.995 . S
Co482 N488 2.008 . S
Co482 N493 1.995 . S
Co482 N498 2.282 . S
Co482 N504 2.282 . S
N483 Co482 1.995 . S
N483 C484 1.376 . S
N483 C487 1.383 . S
C484 N483 1.376 . S
C484 C485 1.446 . S
C484 C514 1.391 . S
C485 C484 1.446 . S
C485 C486 1.339 . S
C485 H520 0.949 . S
C486 C485 1.339 . S
C486 C487 1.439 . S
C486 H521 0.950 . S
C487 N483 1.383 . S
C487 C486 1.439 . S
C487 C516 1.392 . S
N488 Co482 2.008 . S
N488 C489 1.376 . S
N488 C492 1.374 . S
C489 N488 1.376 . S
C489 C490 1.443 . S
C489 C516 1.389 . S
C490 C489 1.443 . S
C490 C491 1.340 . S
C490 H522 0.951 . S
C491 C490 1.340 . S
C491 C492 1.439 . S
C491 H523 0.950 . S
C492 N488 1.374 . S
C492 C491 1.439 . S
C492 C517 1.395 . S
N493 Co482 1.995 . S
N493 C494 1.376 . S
N493 C497 1.383 . S
C494 N493 1.376 . S
C494 C495 1.446 . S
C494 C517 1.391 . S
C495 C494 1.446 . S
C495 C496 1.339 . S
C495 H524 0.949 . S
C496 C495 1.339 . S
C496 C497 1.439 . S
C496 H525 0.950 . S
C497 N493 1.383 . S
C497 C496 1.439 . S
C497 C515 1.392 . S
N498 Co482 2.282 . S
N498 C501 1.332 . S
N498 C503 1.332 . S
C499 C500 1.386 . S
C499 C502 1.388 . S
C500 C499 1.386 . S
C500 C501 1.382 . S
C500 H526 0.950 . S
C501 N498 1.332 . S
C501 C500 1.382 . S
C501 H512 0.952 . S
C502 C499 1.388 . S
C502 C503 1.382 . S
C502 H527 0.950 . S
C503 N498 1.332 . S
C503 C502 1.382 . S
C503 H513 0.948 . S
N504 Co482 2.282 . S
N504 C508 1.332 . S
N504 C509 1.332 . S
C505 C506 1.388 . S
C505 C509 1.382 . S
C505 H528 0.950 . S
C506 C505 1.388 . S
C506 C507 1.386 . S
C507 C506 1.386 . S
C507 C508 1.382 . S
C507 H529 0.950 . S
C508 N504 1.332 . S
C508 C507 1.382 . S
C508 H510 0.952 . S
C509 N504 1.332 . S
C509 C505 1.382 . S
C509 H511 0.948 . S
H510 C508 0.952 . S
H511 C509 0.948 . S
H512 C501 0.952 . S
H513 C503 0.948 . S
C514 C480 1.395 . S
C514 C484 1.391 . S
C515 C477 1.389 . S
C515 C497 1.392 . S
C516 C487 1.392 . S
C516 C489 1.389 . S
C517 C492 1.395 . S
C517 C494 1.391 . S
H518 C478 0.951 . S
H519 C479 0.950 . S
H520 C485 0.949 . S
H521 C486 0.950 . S
H522 C490 0.951 . S
H523 C491 0.950 . S
H524 C495 0.949 . S
H525 C496 0.950 . S
H526 C500 0.950 . S
H527 C502 0.950 . S
H528 C505 0.950 . S
H529 C507 0.950 . S
C530 C531 1.443 . S
C530 N534 1.376 . S
C530 C568 1.389 . S
C531 C530 1.443 . S
C531 C532 1.340 . S
C531 H571 0.951 . S
C532 C531 1.340 . S
C532 C533 1.439 . S
C532 H572 0.950 . S
C533 C532 1.439 . S
C533 N534 1.374 . S
C533 C567 1.395 . S
N534 C530 1.376 . S
N534 C533 1.374 . S
N534 Co535 2.008 . S
Co535 N534 2.008 . S
Co535 N536 1.995 . S
Co535 N541 2.008 . S
Co535 N546 1.995 . S
Co535 N551 2.282 . S
Co535 N557 2.282 . S
N536 Co535 1.995 . S
N536 C537 1.376 . S
N536 C540 1.383 . S
C537 N536 1.376 . S
C537 C538 1.446 . S
C537 C567 1.391 . S
C538 C537 1.446 . S
C538 C539 1.339 . S
C538 H573 0.949 . S
C539 C538 1.339 . S
C539 C540 1.439 . S
C539 H574 0.950 . S
C540 N536 1.383 . S
C540 C539 1.439 . S
C540 C569 1.392 . S
N541 Co535 2.008 . S
N541 C542 1.376 . S
N541 C545 1.374 . S
C542 N541 1.376 . S
C542 C543 1.443 . S
C542 C569 1.389 . S
C543 C542 1.443 . S
C543 C544 1.340 . S
C543 H575 0.951 . S
C544 C543 1.340 . S
C544 C545 1.439 . S
C544 H576 0.950 . S
C545 N541 1.374 . S
C545 C544 1.439 . S
C545 C570 1.395 . S
N546 Co535 1.995 . S
N546 C547 1.376 . S
N546 C550 1.383 . S
C547 N546 1.376 . S
C547 C548 1.446 . S
C547 C570 1.391 . S
C548 C547 1.446 . S
C548 C549 1.339 . S
C548 H577 0.949 . S
C549 C548 1.339 . S
C549 C550 1.439 . S
C549 H578 0.950 . S
C550 N546 1.383 . S
C550 C549 1.439 . S
C550 C568 1.392 . S
N551 Co535 2.282 . S
N551 C554 1.332 . S
N551 C556 1.332 . S
C552 C553 1.386 . S
C552 C555 1.388 . S
C553 C552 1.386 . S
C553 C554 1.382 . S
C553 H579 0.950 . S
C554 N551 1.332 . S
C554 C553 1.382 . S
C554 H565 0.952 . S
C555 C552 1.388 . S
C555 C556 1.382 . S
C555 H580 0.950 . S
C556 N551 1.332 . S
C556 C555 1.382 . S
C556 H566 0.948 . S
N557 Co535 2.282 . S
N557 C561 1.332 . S
N557 C562 1.332 . S
C558 C559 1.388 . S
C558 C562 1.382 . S
C558 H581 0.950 . S
C559 C558 1.388 . S
C559 C560 1.386 . S
C560 C559 1.386 . S
C560 C561 1.382 . S
C560 H582 0.950 . S
C561 N557 1.332 . S
C561 C560 1.382 . S
C561 H563 0.952 . S
C562 N557 1.332 . S
C562 C558 1.382 . S
C562 H564 0.948 . S
H563 C561 0.952 . S
H564 C562 0.948 . S
H565 C554 0.952 . S
H566 C556 0.948 . S
C567 C533 1.395 . S
C567 C537 1.391 . S
C568 C530 1.389 . S
C568 C550 1.392 . S
C569 C540 1.392 . S
C569 C542 1.389 . S
C570 C545 1.395 . S
C570 C547 1.391 . S
H571 C531 0.951 . S
H572 C532 0.950 . S
H573 C538 0.949 . S
H574 C539 0.950 . S
H575 C543 0.951 . S
H576 C544 0.950 . S
H577 C548 0.949 . S
H578 C549 0.950 . S
H579 C553 0.950 . S
H580 C555 0.950 . S
H581 C558 0.950 . S
H582 C560 0.950 . S
C583 C584 1.443 . S
C583 N587 1.376 . S
C583 C621 1.389 . S
C584 C583 1.443 . S
C584 C585 1.340 . S
C584 H624 0.951 . S
C585 C584 1.340 . S
C585 C586 1.439 . S
C585 H625 0.950 . S
C586 C585 1.439 . S
C586 N587 1.374 . S
C586 C620 1.395 . S
N587 C583 1.376 . S
N587 C586 1.374 . S
N587 Co588 2.008 . S
Co588 N587 2.008 . S
Co588 N589 1.995 1_554 S
Co588 N594 2.008 1_554 S
Co588 N599 1.995 . S
Co588 N604 2.282 . S
Co588 N610 2.282 1_554 S
N589 Co588 1.995 1_556 S
N589 C590 1.376 . S
N589 C593 1.383 . S
C590 N589 1.376 . S
C590 C591 1.446 . S
C590 C620 1.391 1_556 S
C591 C590 1.446 . S
C591 C592 1.339 . S
C591 H626 0.949 . S
C592 C591 1.339 . S
C592 C593 1.439 . S
C592 H627 0.950 . S
C593 N589 1.383 . S
C593 C592 1.439 . S
C593 C622 1.392 . S
N594 Co588 2.008 1_556 S
N594 C595 1.376 . S
N594 C598 1.374 . S
C595 N594 1.376 . S
C595 C596 1.443 . S
C595 C622 1.389 . S
C596 C595 1.443 . S
C596 C597 1.340 . S
C596 H628 0.951 . S
C597 C596 1.340 . S
C597 C598 1.439 . S
C597 H629 0.950 . S
C598 N594 1.374 . S
C598 C597 1.439 . S
C598 C623 1.395 . S
N599 Co588 1.995 . S
N599 C600 1.376 . S
N599 C603 1.383 . S
C600 N599 1.376 . S
C600 C601 1.446 . S
C600 C623 1.391 1_554 S
C601 C600 1.446 . S
C601 C602 1.339 . S
C601 H630 0.949 . S
C602 C601 1.339 . S
C602 C603 1.439 . S
C602 H631 0.950 . S
C603 N599 1.383 . S
C603 C602 1.439 . S
C603 C621 1.392 . S
N604 Co588 2.282 . S
N604 C607 1.332 1_554 S
N604 C609 1.332 . S
C605 C606 1.386 . S
C605 C608 1.388 1_556 S
C606 C605 1.386 . S
C606 C607 1.382 . S
C606 H632 0.950 . S
C607 N604 1.332 1_556 S
C607 C606 1.382 . S
C607 H618 0.952 . S
C608 C605 1.388 1_554 S
C608 C609 1.382 . S
C608 H633 0.950 . S
C609 N604 1.332 . S
C609 C608 1.382 . S
C609 H619 0.948 . S
N610 Co588 2.282 1_556 S
N610 C614 1.332 1_556 S
N610 C615 1.332 . S
C611 C612 1.388 1_556 S
C611 C615 1.382 . S
C611 H634 0.950 . S
C612 C611 1.388 1_554 S
C612 C613 1.386 . S
C613 C612 1.386 . S
C613 C614 1.382 . S
C613 H635 0.950 . S
C614 N610 1.332 1_554 S
C614 C613 1.382 . S
C614 H616 0.952 . S
C615 N610 1.332 . S
C615 C611 1.382 . S
C615 H617 0.948 . S
H616 C614 0.952 . S
H617 C615 0.948 . S
H618 C607 0.952 . S
H619 C609 0.948 . S
C620 C586 1.395 . S
C620 C590 1.391 1_554 S
C621 C583 1.389 . S
C621 C603 1.392 . S
C622 C593 1.392 . S
C622 C595 1.389 . S
C623 C598 1.395 . S
C623 C600 1.391 1_556 S
H624 C584 0.951 . S
H625 C585 0.950 . S
H626 C591 0.949 . S
H627 C592 0.950 . S
H628 C596 0.951 . S
H629 C597 0.950 . S
H630 C601 0.949 . S
H631 C602 0.950 . S
H632 C606 0.950 . S
H633 C608 0.950 . S
H634 C611 0.950 . S
H635 C613 0.950 . S
C636 C637 1.349 . S
C636 C638 1.327 . S
C636 H661 0.950 . S
C637 C636 1.349 . S
C637 C653 1.349 . S
C638 C636 1.327 . S
C638 C657 1.429 . S
C638 H662 0.950 . S
C639 C656 1.574 . S
C639 C658 1.368 . S
C639 H663 0.949 . S
H640 C644 0.949 . S
C641 C642 1.349 . S
C641 C643 1.327 . S
C641 H664 0.950 . S
C642 C641 1.349 . S
C642 C654 1.349 . S
C643 C641 1.327 . S
C643 C659 1.429 . S
C643 H665 0.950 . S
C644 H640 0.949 . S
C644 C652 1.574 . S
C644 C660 1.368 . S
H645 C653 0.950 . S
H646 C651 0.950 . S
H647 C652 0.949 . S
H648 C654 0.950 . S
H649 C655 0.950 . S
H650 C656 0.949 . S
C651 H646 0.950 . S
C651 C653 1.327 . S
C651 C657 1.429 . S
C652 C644 1.574 . S
C652 H647 0.949 . S
C652 C658 1.368 . S
C653 C637 1.349 . S
C653 H645 0.950 . S
C653 C651 1.327 . S
C654 C642 1.349 . S
C654 H648 0.950 . S
C654 C655 1.327 . S
C655 H649 0.950 . S
C655 C654 1.327 . S
C655 C659 1.429 . S
C656 C639 1.574 . S
C656 H650 0.949 . S
C656 C660 1.368 . S
C657 C638 1.429 . S
C657 C651 1.429 . S
C657 C658 1.523 . S
C658 C639 1.368 . S
C658 C652 1.368 . S
C658 C657 1.523 . S
C659 C643 1.429 . S
C659 C655 1.429 . S
C659 C660 1.523 . S
C660 C644 1.368 . S
C660 C656 1.368 . S
C660 C659 1.523 . S
H661 C636 0.950 . S
H662 C638 0.950 . S
H663 C639 0.949 . S
H664 C641 0.950 . S
H665 C643 0.950 . S
C666 C667 1.349 . S
C666 C668 1.327 . S
C666 H691 0.950 . S
C667 C666 1.349 . S
C667 C683 1.349 . S
C668 C666 1.327 . S
C668 C687 1.429 . S
C668 H692 0.950 . S
C669 C686 1.574 . S
C669 C688 1.368 . S
C669 H693 0.949 . S
H670 C674 0.949 . S
C671 C672 1.349 . S
C671 C673 1.327 . S
C671 H694 0.950 . S
C672 C671 1.349 . S
C672 C684 1.349 . S
C673 C671 1.327 . S
C673 C689 1.429 . S
C673 H695 0.950 . S
C674 H670 0.949 . S
C674 C682 1.574 . S
C674 C690 1.368 . S
H675 C683 0.950 . S
H676 C681 0.950 . S
H677 C682 0.949 . S
H678 C684 0.950 . S
H679 C685 0.950 . S
H680 C686 0.949 . S
C681 H676 0.950 . S
C681 C683 1.327 . S
C681 C687 1.429 . S
C682 C674 1.574 . S
C682 H677 0.949 . S
C682 C688 1.368 . S
C683 C667 1.349 . S
C683 H675 0.950 . S
C683 C681 1.327 . S
C684 C672 1.349 . S
C684 H678 0.950 . S
C684 C685 1.327 . S
C685 H679 0.950 . S
C685 C684 1.327 . S
C685 C689 1.429 . S
C686 C669 1.574 . S
C686 H680 0.949 . S
C686 C690 1.368 . S
C687 C668 1.429 . S
C687 C681 1.429 . S
C687 C688 1.523 . S
C688 C669 1.368 . S
C688 C682 1.368 . S
C688 C687 1.523 . S
C689 C673 1.429 . S
C689 C685 1.429 . S
C689 C690 1.523 . S
C690 C674 1.368 . S
C690 C686 1.368 . S
C690 C689 1.523 . S
H691 C666 0.950 . S
H692 C668 0.950 . S
H693 C669 0.949 . S
H694 C671 0.950 . S
H695 C673 0.950 . S
C696 C697 1.349 . S
C696 C698 1.327 . S
C696 H721 0.950 . S
C697 C696 1.349 . S
C697 C713 1.349 . S
C698 C696 1.327 . S
C698 C717 1.429 . S
C698 H722 0.950 . S
C699 C716 1.574 . S
C699 C718 1.368 . S
C699 H723 0.949 . S
H700 C704 0.949 . S
C701 C702 1.349 . S
C701 C703 1.327 . S
C701 H724 0.950 . S
C702 C701 1.349 . S
C702 C714 1.349 . S
C703 C701 1.327 . S
C703 C719 1.429 . S
C703 H725 0.950 . S
C704 H700 0.949 . S
C704 C712 1.574 . S
C704 C720 1.368 . S
H705 C713 0.950 . S
H706 C711 0.950 . S
H707 C712 0.949 . S
H708 C714 0.950 . S
H709 C715 0.950 . S
H710 C716 0.949 . S
C711 H706 0.950 . S
C711 C713 1.327 . S
C711 C717 1.429 . S
C712 C704 1.574 . S
C712 H707 0.949 . S
C712 C718 1.368 . S
C713 C697 1.349 . S
C713 H705 0.950 . S
C713 C711 1.327 . S
C714 C702 1.349 . S
C714 H708 0.950 . S
C714 C715 1.327 . S
C715 H709 0.950 . S
C715 C714 1.327 . S
C715 C719 1.429 . S
C716 C699 1.574 . S
C716 H710 0.949 . S
C716 C720 1.368 . S
C717 C698 1.429 . S
C717 C711 1.429 . S
C717 C718 1.523 . S
C718 C699 1.368 . S
C718 C712 1.368 . S
C718 C717 1.523 . S
C719 C703 1.429 . S
C719 C715 1.429 . S
C719 C720 1.523 . S
C720 C704 1.368 . S
C720 C716 1.368 . S
C720 C719 1.523 . S
H721 C696 0.950 . S
H722 C698 0.950 . S
H723 C699 0.949 . S
H724 C701 0.950 . S
H725 C703 0.950 . S
C726 C727 1.349 . S
C726 C728 1.327 . S
C726 H751 0.950 . S
C727 C726 1.349 . S
C727 C743 1.349 . S
C728 C726 1.327 . S
C728 C747 1.429 . S
C728 H752 0.950 . S
C729 C746 1.574 . S
C729 C748 1.368 . S
C729 H753 0.949 . S
H730 C734 0.949 . S
C731 C732 1.349 . S
C731 C733 1.327 . S
C731 H754 0.950 . S
C732 C731 1.349 . S
C732 C744 1.349 . S
C733 C731 1.327 . S
C733 C749 1.429 . S
C733 H755 0.950 . S
C734 H730 0.949 . S
C734 C742 1.574 . S
C734 C750 1.368 . S
H735 C743 0.950 . S
H736 C741 0.950 . S
H737 C742 0.949 . S
H738 C744 0.950 . S
H739 C745 0.950 . S
H740 C746 0.949 . S
C741 H736 0.950 . S
C741 C743 1.327 . S
C741 C747 1.429 . S
C742 C734 1.574 . S
C742 H737 0.949 . S
C742 C748 1.368 . S
C743 C727 1.349 . S
C743 H735 0.950 . S
C743 C741 1.327 . S
C744 C732 1.349 . S
C744 H738 0.950 . S
C744 C745 1.327 . S
C745 H739 0.950 . S
C745 C744 1.327 . S
C745 C749 1.429 . S
C746 C729 1.574 . S
C746 H740 0.949 . S
C746 C750 1.368 . S
C747 C728 1.429 . S
C747 C741 1.429 . S
C747 C748 1.523 . S
C748 C729 1.368 . S
C748 C742 1.368 . S
C748 C747 1.523 . S
C749 C733 1.429 . S
C749 C745 1.429 . S
C749 C750 1.523 . S
C750 C734 1.368 . S
C750 C746 1.368 . S
C750 C749 1.523 . S
H751 C726 0.950 . S
H752 C728 0.950 . S
H753 C729 0.949 . S
H754 C731 0.950 . S
H755 C733 0.950 . S
C756 C757 1.349 . S
C756 C758 1.327 . S
C756 H781 0.950 . S
C757 C756 1.349 . S
C757 C773 1.349 . S
C758 C756 1.327 . S
C758 C777 1.429 . S
C758 H782 0.950 . S
C759 C776 1.574 . S
C759 C778 1.368 . S
C759 H783 0.949 . S
H760 C764 0.949 . S
C761 C762 1.349 . S
C761 C763 1.327 . S
C761 H784 0.950 . S
C762 C761 1.349 . S
C762 C774 1.349 . S
C763 C761 1.327 . S
C763 C779 1.429 . S
C763 H785 0.950 . S
C764 H760 0.949 . S
C764 C772 1.574 . S
C764 C780 1.368 . S
H765 C773 0.950 . S
H766 C771 0.950 . S
H767 C772 0.949 . S
H768 C774 0.950 . S
H769 C775 0.950 . S
H770 C776 0.949 . S
C771 H766 0.950 . S
C771 C773 1.327 . S
C771 C777 1.429 . S
C772 C764 1.574 . S
C772 H767 0.949 . S
C772 C778 1.368 . S
C773 C757 1.349 . S
C773 H765 0.950 . S
C773 C771 1.327 . S
C774 C762 1.349 . S
C774 H768 0.950 . S
C774 C775 1.327 . S
C775 H769 0.950 . S
C775 C774 1.327 . S
C775 C779 1.429 . S
C776 C759 1.574 . S
C776 H770 0.949 . S
C776 C780 1.368 . S
C777 C758 1.429 . S
C777 C771 1.429 . S
C777 C778 1.523 . S
C778 C759 1.368 . S
C778 C772 1.368 . S
C778 C777 1.523 . S
C779 C763 1.429 . S
C779 C775 1.429 . S
C779 C780 1.523 . S
C780 C764 1.368 . S
C780 C776 1.368 . S
C780 C779 1.523 . S
H781 C756 0.950 . S
H782 C758 0.950 . S
H783 C759 0.949 . S
H784 C761 0.950 . S
H785 C763 0.950 . S
C786 C787 1.349 . S
C786 C788 1.327 . S
C786 H811 0.950 . S
C787 C786 1.349 . S
C787 C803 1.349 . S
C788 C786 1.327 . S
C788 C807 1.429 . S
C788 H812 0.950 . S
C789 C806 1.574 . S
C789 C808 1.368 . S
C789 H813 0.949 . S
H790 C794 0.949 . S
C791 C792 1.349 . S
C791 C793 1.327 . S
C791 H814 0.950 . S
C792 C791 1.349 . S
C792 C804 1.349 . S
C793 C791 1.327 . S
C793 C809 1.429 . S
C793 H815 0.950 . S
C794 H790 0.949 . S
C794 C802 1.574 . S
C794 C810 1.368 . S
H795 C803 0.950 . S
H796 C801 0.950 . S
H797 C802 0.949 . S
H798 C804 0.950 . S
H799 C805 0.950 . S
H800 C806 0.949 . S
C801 H796 0.950 . S
C801 C803 1.327 . S
C801 C807 1.429 . S
C802 C794 1.574 . S
C802 H797 0.949 . S
C802 C808 1.368 . S
C803 C787 1.349 . S
C803 H795 0.950 . S
C803 C801 1.327 . S
C804 C792 1.349 . S
C804 H798 0.950 . S
C804 C805 1.327 . S
C805 H799 0.950 . S
C805 C804 1.327 . S
C805 C809 1.429 . S
C806 C789 1.574 . S
C806 H800 0.949 . S
C806 C810 1.368 . S
C807 C788 1.429 . S
C807 C801 1.429 . S
C807 C808 1.523 . S
C808 C789 1.368 . S
C808 C802 1.368 . S
C808 C807 1.523 . S
C809 C793 1.429 . S
C809 C805 1.429 . S
C809 C810 1.523 . S
C810 C794 1.368 . S
C810 C806 1.368 . S
C810 C809 1.523 . S
H811 C786 0.950 . S
H812 C788 0.950 . S
H813 C789 0.949 . S
H814 C791 0.950 . S
H815 C793 0.950 . S
C816 C817 1.349 . S
C816 C818 1.327 . S
C816 H841 0.950 . S
C817 C816 1.349 . S
C817 C833 1.349 . S
C818 C816 1.327 . S
C818 C837 1.429 . S
C818 H842 0.950 . S
C819 C836 1.574 . S
C819 C838 1.368 . S
C819 H843 0.949 . S
H820 C824 0.949 . S
C821 C822 1.349 . S
C821 C823 1.327 . S
C821 H844 0.950 . S
C822 C821 1.349 . S
C822 C834 1.349 . S
C823 C821 1.327 . S
C823 C839 1.429 . S
C823 H845 0.950 . S
C824 H820 0.949 . S
C824 C832 1.574 . S
C824 C840 1.368 . S
H825 C833 0.950 . S
H826 C831 0.950 . S
H827 C832 0.949 . S
H828 C834 0.950 . S
H829 C835 0.950 . S
H830 C836 0.949 . S
C831 H826 0.950 . S
C831 C833 1.327 . S
C831 C837 1.429 . S
C832 C824 1.574 . S
C832 H827 0.949 . S
C832 C838 1.368 . S
C833 C817 1.349 . S
C833 H825 0.950 . S
C833 C831 1.327 . S
C834 C822 1.349 . S
C834 H828 0.950 . S
C834 C835 1.327 . S
C835 H829 0.950 . S
C835 C834 1.327 . S
C835 C839 1.429 . S
C836 C819 1.574 . S
C836 H830 0.949 . S
C836 C840 1.368 . S
C837 C818 1.429 . S
C837 C831 1.429 . S
C837 C838 1.523 . S
C838 C819 1.368 . S
C838 C832 1.368 . S
C838 C837 1.523 . S
C839 C823 1.429 . S
C839 C835 1.429 . S
C839 C840 1.523 . S
C840 C824 1.368 . S
C840 C836 1.368 . S
C840 C839 1.523 . S
H841 C816 0.950 . S
H842 C818 0.950 . S
H843 C819 0.949 . S
H844 C821 0.950 . S
H845 C823 0.950 . S
C846 C847 1.349 . S
C846 C848 1.327 . S
C846 H871 0.950 . S
C847 C846 1.349 . S
C847 C863 1.349 . S
C848 C846 1.327 . S
C848 C867 1.429 . S
C848 H872 0.950 . S
C849 C866 1.574 . S
C849 C868 1.368 . S
C849 H873 0.949 . S
H850 C854 0.949 . S
C851 C852 1.349 . S
C851 C853 1.327 . S
C851 H874 0.950 . S
C852 C851 1.349 . S
C852 C864 1.349 . S
C853 C851 1.327 . S
C853 C869 1.429 . S
C853 H875 0.950 . S
C854 H850 0.949 . S
C854 C862 1.574 . S
C854 C870 1.368 . S
H855 C863 0.950 . S
H856 C861 0.950 . S
H857 C862 0.949 . S
H858 C864 0.950 . S
H859 C865 0.950 . S
H860 C866 0.949 . S
C861 H856 0.950 . S
C861 C863 1.327 . S
C861 C867 1.429 . S
C862 C854 1.574 . S
C862 H857 0.949 . S
C862 C868 1.368 . S
C863 C847 1.349 . S
C863 H855 0.950 . S
C863 C861 1.327 . S
C864 C852 1.349 . S
C864 H858 0.950 . S
C864 C865 1.327 . S
C865 H859 0.950 . S
C865 C864 1.327 . S
C865 C869 1.429 . S
C866 C849 1.574 . S
C866 H860 0.949 . S
C866 C870 1.368 . S
C867 C848 1.429 . S
C867 C861 1.429 . S
C867 C868 1.523 . S
C868 C849 1.368 . S
C868 C862 1.368 . S
C868 C867 1.523 . S
C869 C853 1.429 . S
C869 C865 1.429 . S
C869 C870 1.523 . S
C870 C854 1.368 . S
C870 C866 1.368 . S
C870 C869 1.523 . S
H871 C846 0.950 . S
H872 C848 0.950 . S
H873 C849 0.949 . S
H874 C851 0.950 . S
H875 C853 0.950 . S
C876 C877 1.349 1_556 S
C876 C878 1.327 . S
C876 H901 0.950 . S
C877 C876 1.349 1_554 S
C877 C893 1.349 . S
C878 C876 1.327 . S
C878 C897 1.429 1_556 S
C878 H902 0.950 . S
C879 C896 1.574 . S
C879 C898 1.392 . S
C879 H903 0.949 . S
H880 C884 0.949 . S
C881 C882 1.349 1_554 S
C881 C883 1.327 . S
C881 H904 0.950 . S
C882 C881 1.349 1_556 S
C882 C894 1.349 . S
C883 C881 1.327 . S
C883 C899 1.429 1_554 S
C883 H905 0.950 . S
C884 H880 0.949 . S
C884 C892 1.574 . S
C884 C900 1.386 . S
H885 C893 0.950 . S
H886 C891 0.950 . S
H887 C892 0.949 . S
H888 C894 0.950 . S
H889 C895 0.950 . S
H890 C896 0.949 . S
C891 H886 0.950 . S
C891 C893 1.327 . S
C891 C897 1.429 . S
C892 C884 1.574 . S
C892 H887 0.949 . S
C892 C898 1.345 1_556 S
C893 C877 1.349 . S
C893 H885 0.950 . S
C893 C891 1.327 . S
C894 C882 1.349 . S
C894 H888 0.950 . S
C894 C895 1.327 . S
C895 H889 0.950 . S
C895 C894 1.327 . S
C895 C899 1.429 . S
C896 C879 1.574 . S
C896 H890 0.949 . S
C896 C900 1.350 1_554 S
C897 C878 1.429 1_554 S
C897 C891 1.429 . S
C897 C898 1.525 . S
C898 C879 1.392 . S
C898 C892 1.345 1_554 S
C898 C897 1.525 . S
C899 C883 1.429 1_556 S
C899 C895 1.429 . S
C899 C900 1.524 . S
C900 C884 1.386 . S
C900 C896 1.350 1_556 S
C900 C899 1.524 . S
H901 C876 0.950 . S
H902 C878 0.950 . S
H903 C879 0.949 . S
H904 C881 0.950 . S
H905 C883 0.950 . S
C906 C907 1.349 . S
C906 C908 1.327 . S
C906 H931 0.950 . S
C907 C906 1.349 . S
C907 C923 1.349 . S
C908 C906 1.327 . S
C908 C927 1.429 . S
C908 H932 0.950 . S
C909 C926 1.574 . S
C909 C928 1.368 . S
C909 H933 0.949 . S
H910 C914 0.949 . S
C911 C912 1.349 . S
C911 C913 1.327 . S
C911 H934 0.950 . S
C912 C911 1.349 . S
C912 C924 1.349 . S
C913 C911 1.327 . S
C913 C929 1.429 . S
C913 H935 0.950 . S
C914 H910 0.949 . S
C914 C922 1.574 . S
C914 C930 1.368 . S
H915 C923 0.950 . S
H916 C921 0.950 . S
H917 C922 0.949 . S
H918 C924 0.950 . S
H919 C925 0.950 . S
H920 C926 0.949 . S
C921 H916 0.950 . S
C921 C923 1.327 . S
C921 C927 1.429 . S
C922 C914 1.574 . S
C922 H917 0.949 . S
C922 C928 1.368 . S
C923 C907 1.349 . S
C923 H915 0.950 . S
C923 C921 1.327 . S
C924 C912 1.349 . S
C924 H918 0.950 . S
C924 C925 1.327 . S
C925 H919 0.950 . S
C925 C924 1.327 . S
C925 C929 1.429 . S
C926 C909 1.574 . S
C926 H920 0.949 . S
C926 C930 1.368 . S
C927 C908 1.429 . S
C927 C921 1.429 . S
C927 C928 1.523 . S
C928 C909 1.368 . S
C928 C922 1.368 . S
C928 C927 1.523 . S
C929 C913 1.429 . S
C929 C925 1.429 . S
C929 C930 1.523 . S
C930 C914 1.368 . S
C930 C926 1.368 . S
C930 C929 1.523 . S
H931 C906 0.950 . S
H932 C908 0.950 . S
H933 C909 0.949 . S
H934 C911 0.950 . S
H935 C913 0.950 . S
C936 C937 1.349 . S
C936 C938 1.327 . S
C936 H961 0.950 . S
C937 C936 1.349 . S
C937 C953 1.349 . S
C938 C936 1.327 . S
C938 C957 1.429 . S
C938 H962 0.950 . S
C939 C956 1.574 . S
C939 C958 1.368 . S
C939 H963 0.949 . S
H940 C944 0.949 . S
C941 C942 1.349 . S
C941 C943 1.327 . S
C941 H964 0.950 . S
C942 C941 1.349 . S
C942 C954 1.349 . S
C943 C941 1.327 . S
C943 C959 1.429 . S
C943 H965 0.950 . S
C944 H940 0.949 . S
C944 C952 1.574 . S
C944 C960 1.368 . S
H945 C953 0.950 . S
H946 C951 0.950 . S
H947 C952 0.949 . S
H948 C954 0.950 . S
H949 C955 0.950 . S
H950 C956 0.949 . S
C951 H946 0.950 . S
C951 C953 1.327 . S
C951 C957 1.429 . S
C952 C944 1.574 . S
C952 H947 0.949 . S
C952 C958 1.368 . S
C953 C937 1.349 . S
C953 H945 0.950 . S
C953 C951 1.327 . S
C954 C942 1.349 . S
C954 H948 0.950 . S
C954 C955 1.327 . S
C955 H949 0.950 . S
C955 C954 1.327 . S
C955 C959 1.429 . S
C956 C939 1.574 . S
C956 H950 0.949 . S
C956 C960 1.368 . S
C957 C938 1.429 . S
C957 C951 1.429 . S
C957 C958 1.523 . S
C958 C939 1.368 . S
C958 C952 1.368 . S
C958 C957 1.523 . S
C959 C943 1.429 . S
C959 C955 1.429 . S
C959 C960 1.523 . S
C960 C944 1.368 . S
C960 C956 1.368 . S
C960 C959 1.523 . S
H961 C936 0.950 . S
H962 C938 0.950 . S
H963 C939 0.949 . S
H964 C941 0.950 . S
H965 C943 0.950 . S
C966 C967 1.349 1_554 S
C966 C968 1.327 . S
C966 H991 0.950 . S
C967 C966 1.349 1_556 S
C967 C983 1.349 . S
C968 C966 1.327 . S
C968 C987 1.429 1_554 S
C968 H992 0.950 . S
C969 C986 1.574 . S
C969 C988 1.388 . S
C969 H993 0.949 . S
H970 C974 0.949 . S
C971 C972 1.349 1_556 S
C971 C973 1.327 . S
C971 H994 0.950 . S
C972 C971 1.349 1_554 S
C972 C984 1.349 . S
C973 C971 1.327 . S
C973 C989 1.429 1_556 S
C973 H995 0.950 . S
C974 H970 0.949 . S
C974 C982 1.574 . S
C974 C990 1.383 . S
H975 C983 0.950 . S
H976 C981 0.950 . S
H977 C982 0.949 . S
H978 C984 0.950 . S
H979 C985 0.950 . S
H980 C986 0.949 . S
C981 H976 0.950 . S
C981 C983 1.327 . S
C981 C987 1.429 . S
C982 C974 1.574 . S
C982 H977 0.949 . S
C982 C988 1.349 1_554 S
C983 C967 1.349 . S
C983 H975 0.950 . S
C983 C981 1.327 . S
C984 C972 1.349 . S
C984 H978 0.950 . S
C984 C985 1.327 . S
C985 H979 0.950 . S
C985 C984 1.327 . S
C985 C989 1.429 . S
C986 C969 1.574 . S
C986 H980 0.949 . S
C986 C990 1.354 1_556 S
C987 C968 1.429 1_556 S
C987 C981 1.429 . S
C987 C988 1.525 . S
C988 C969 1.388 . S
C988 C982 1.349 1_556 S
C988 C987 1.525 . S
C989 C973 1.429 1_554 S
C989 C985 1.429 . S
C989 C990 1.524 . S
C990 C974 1.383 . S
C990 C986 1.354 1_554 S
C990 C989 1.524 . S
H991 C966 0.950 . S
H992 C968 0.950 . S
H993 C969 0.949 . S
H994 C971 0.950 . S
H995 C973 0.950 . S
C996 C997 1.349 . S
C996 C998 1.327 . S
C996 H1021 0.950 . S
C997 C996 1.349 . S
C997 C1013 1.349 . S
C998 C996 1.327 . S
C998 C1017 1.429 . S
C998 H1022 0.950 . S
C999 C1016 1.574 1_545 S
C999 C1018 1.368 . S
C999 H1023 0.949 . S
H1000 C1004 0.949 . S
C1001 C1002 1.349 . S
C1001 C1003 1.327 . S
C1001 H1024 0.950 . S
C1002 C1001 1.349 . S
C1002 C1014 1.349 . S
C1003 C1001 1.327 . S
C1003 C1019 1.429 . S
C1003 H1025 0.950 . S
C1004 H1000 0.949 . S
C1004 C1012 1.574 1_565 S
C1004 C1020 1.368 . S
H1005 C1013 0.950 . S
H1006 C1011 0.950 . S
H1007 C1012 0.949 . S
H1008 C1014 0.950 . S
H1009 C1015 0.950 . S
H1010 C1016 0.949 . S
C1011 H1006 0.950 . S
C1011 C1013 1.327 . S
C1011 C1017 1.429 . S
C1012 C1004 1.574 1_545 S
C1012 H1007 0.949 . S
C1012 C1018 1.368 . S
C1013 C997 1.349 . S
C1013 H1005 0.950 . S
C1013 C1011 1.327 . S
C1014 C1002 1.349 . S
C1014 H1008 0.950 . S
C1014 C1015 1.327 . S
C1015 H1009 0.950 . S
C1015 C1014 1.327 . S
C1015 C1019 1.429 . S
C1016 C999 1.574 1_565 S
C1016 H1010 0.949 . S
C1016 C1020 1.368 . S
C1017 C998 1.429 . S
C1017 C1011 1.429 . S
C1017 C1018 1.523 . S
C1018 C999 1.368 . S
C1018 C1012 1.368 . S
C1018 C1017 1.523 . S
C1019 C1003 1.429 . S
C1019 C1015 1.429 . S
C1019 C1020 1.523 . S
C1020 C1004 1.368 . S
C1020 C1016 1.368 . S
C1020 C1019 1.523 . S
H1021 C996 0.950 . S
H1022 C998 0.950 . S
H1023 C999 0.949 . S
H1024 C1001 0.950 . S
H1025 C1003 0.950 . S
C1026 C1027 1.349 . S
C1026 C1028 1.327 . S
C1026 H1051 0.950 . S
C1027 C1026 1.349 . S
C1027 C1043 1.349 . S
C1028 C1026 1.327 . S
C1028 C1047 1.429 . S
C1028 H1052 0.950 . S
C1029 C1046 1.574 . S
C1029 C1048 1.368 . S
C1029 H1053 0.949 . S
H1030 C1034 0.949 . S
C1031 C1032 1.349 . S
C1031 C1033 1.327 . S
C1031 H1054 0.950 . S
C1032 C1031 1.349 . S
C1032 C1044 1.349 . S
C1033 C1031 1.327 . S
C1033 C1049 1.429 . S
C1033 H1055 0.950 . S
C1034 H1030 0.949 . S
C1034 C1042 1.574 . S
C1034 C1050 1.368 . S
H1035 C1043 0.950 . S
H1036 C1041 0.950 . S
H1037 C1042 0.949 . S
H1038 C1044 0.950 . S
H1039 C1045 0.950 . S
H1040 C1046 0.949 . S
C1041 H1036 0.950 . S
C1041 C1043 1.327 . S
C1041 C1047 1.429 . S
C1042 C1034 1.574 . S
C1042 H1037 0.949 . S
C1042 C1048 1.368 . S
C1043 C1027 1.349 . S
C1043 H1035 0.950 . S
C1043 C1041 1.327 . S
C1044 C1032 1.349 . S
C1044 H1038 0.950 . S
C1044 C1045 1.327 . S
C1045 H1039 0.950 . S
C1045 C1044 1.327 . S
C1045 C1049 1.429 . S
C1046 C1029 1.574 . S
C1046 H1040 0.949 . S
C1046 C1050 1.368 . S
C1047 C1028 1.429 . S
C1047 C1041 1.429 . S
C1047 C1048 1.523 . S
C1048 C1029 1.368 . S
C1048 C1042 1.368 . S
C1048 C1047 1.523 . S
C1049 C1033 1.429 . S
C1049 C1045 1.429 . S
C1049 C1050 1.523 . S
C1050 C1034 1.368 . S
C1050 C1046 1.368 . S
C1050 C1049 1.523 . S
H1051 C1026 0.950 . S
H1052 C1028 0.950 . S
H1053 C1029 0.949 . S
H1054 C1031 0.950 . S
H1055 C1033 0.950 . S
C1056 C1057 1.349 1_556 S
C1056 C1058 1.327 . S
C1056 H1081 0.950 . S
C1057 C1056 1.349 1_554 S
C1057 C1073 1.349 . S
C1058 C1056 1.327 . S
C1058 C1077 1.429 1_556 S
C1058 H1082 0.950 . S
C1059 C1076 1.574 1_655 S
C1059 C1078 1.368 . S
C1059 H1083 0.949 . S
H1060 C1064 0.949 . S
C1061 C1062 1.349 . S
C1061 C1063 1.327 . S
C1061 H1084 0.950 . S
C1062 C1061 1.349 . S
C1062 C1074 1.349 1_554 S
C1063 C1061 1.327 . S
C1063 C1079 1.429 . S
C1063 H1085 0.950 . S
C1064 H1060 0.949 . S
C1064 C1072 1.574 1_455 S
C1064 C1080 1.368 1_556 S
H1065 C1073 0.950 . S
H1066 C1071 0.950 . S
H1067 C1072 0.949 . S
H1068 C1074 0.950 . S
H1069 C1075 0.950 . S
H1070 C1076 0.949 . S
C1071 H1066 0.950 . S
C1071 C1073 1.327 . S
C1071 C1077 1.429 . S
C1072 C1064 1.574 1_655 S
C1072 H1067 0.949 . S
C1072 C1078 1.368 1_556 S
C1073 C1057 1.349 . S
C1073 H1065 0.950 . S
C1073 C1071 1.327 . S
C1074 C1062 1.349 1_556 S
C1074 H1068 0.950 . S
C1074 C1075 1.327 . S
C1075 H1069 0.950 . S
C1075 C1074 1.327 . S
C1075 C1079 1.429 1_556 S
C1076 C1059 1.574 1_455 S
C1076 H1070 0.949 . S
C1076 C1080 1.368 . S
C1077 C1058 1.429 1_554 S
C1077 C1071 1.429 . S
C1077 C1078 1.523 . S
C1078 C1059 1.368 . S
C1078 C1072 1.368 1_554 S
C1078 C1077 1.523 . S
C1079 C1063 1.429 . S
C1079 C1075 1.429 1_554 S
C1079 C1080 1.523 . S
C1080 C1064 1.368 1_554 S
C1080 C1076 1.368 . S
C1080 C1079 1.523 . S
H1081 C1056 0.950 . S
H1082 C1058 0.950 . S
H1083 C1059 0.949 . S
H1084 C1061 0.950 . S
H1085 C1063 0.950 . S
C1086 C1087 1.349 . S
C1086 C1088 1.327 . S
C1086 H1111 0.950 . S
C1087 C1086 1.349 . S
C1087 C1103 1.349 . S
C1088 C1086 1.327 . S
C1088 C1107 1.429 . S
C1088 H1112 0.950 . S
C1089 C1106 1.574 1_455 S
C1089 C1108 1.368 . S
C1089 H1113 0.949 . S
H1090 C1094 0.949 . S
C1091 C1092 1.349 . S
C1091 C1093 1.327 . S
C1091 H1114 0.950 . S
C1092 C1091 1.349 . S
C1092 C1104 1.349 . S
C1093 C1091 1.327 . S
C1093 C1109 1.429 . S
C1093 H1115 0.950 . S
C1094 H1090 0.949 . S
C1094 C1102 1.574 1_655 S
C1094 C1110 1.368 . S
H1095 C1103 0.950 . S
H1096 C1101 0.950 . S
H1097 C1102 0.949 . S
H1098 C1104 0.950 . S
H1099 C1105 0.950 . S
H1100 C1106 0.949 . S
C1101 H1096 0.950 . S
C1101 C1103 1.327 . S
C1101 C1107 1.429 . S
C1102 C1094 1.574 1_455 S
C1102 H1097 0.949 . S
C1102 C1108 1.368 . S
C1103 C1087 1.349 . S
C1103 H1095 0.950 . S
C1103 C1101 1.327 . S
C1104 C1092 1.349 . S
C1104 H1098 0.950 . S
C1104 C1105 1.327 . S
C1105 H1099 0.950 . S
C1105 C1104 1.327 . S
C1105 C1109 1.429 . S
C1106 C1089 1.574 1_655 S
C1106 H1100 0.949 . S
C1106 C1110 1.368 . S
C1107 C1088 1.429 . S
C1107 C1101 1.429 . S
C1107 C1108 1.523 . S
C1108 C1089 1.368 . S
C1108 C1102 1.368 . S
C1108 C1107 1.523 . S
C1109 C1093 1.429 . S
C1109 C1105 1.429 . S
C1109 C1110 1.523 . S
C1110 C1094 1.368 . S
C1110 C1106 1.368 . S
C1110 C1109 1.523 . S
H1111 C1086 0.950 . S
H1112 C1088 0.950 . S
H1113 C1089 0.949 . S
H1114 C1091 0.950 . S
H1115 C1093 0.950 . S
C1116 C1117 1.349 . S
C1116 C1118 1.327 . S
C1116 H1141 0.950 . S
C1117 C1116 1.349 . S
C1117 C1133 1.349 . S
C1118 C1116 1.327 . S
C1118 C1137 1.429 . S
C1118 H1142 0.950 . S
C1119 C1136 1.574 1_545 S
C1119 C1138 1.368 . S
C1119 H1143 0.949 . S
H1120 C1124 0.949 . S
C1121 C1122 1.349 . S
C1121 C1123 1.327 . S
C1121 H1144 0.950 . S
C1122 C1121 1.349 . S
C1122 C1134 1.349 . S
C1123 C1121 1.327 . S
C1123 C1139 1.429 . S
C1123 H1145 0.950 . S
C1124 H1120 0.949 . S
C1124 C1132 1.574 1_565 S
C1124 C1140 1.368 . S
H1125 C1133 0.950 . S
H1126 C1131 0.950 . S
H1127 C1132 0.949 . S
H1128 C1134 0.950 . S
H1129 C1135 0.950 . S
H1130 C1136 0.949 . S
C1131 H1126 0.950 . S
C1131 C1133 1.327 . S
C1131 C1137 1.429 . S
C1132 C1124 1.574 1_545 S
C1132 H1127 0.949 . S
C1132 C1138 1.368 . S
C1133 C1117 1.349 . S
C1133 H1125 0.950 . S
C1133 C1131 1.327 . S
C1134 C1122 1.349 . S
C1134 H1128 0.950 . S
C1134 C1135 1.327 . S
C1135 H1129 0.950 . S
C1135 C1134 1.327 . S
C1135 C1139 1.429 . S
C1136 C1119 1.574 1_565 S
C1136 H1130 0.949 . S
C1136 C1140 1.368 . S
C1137 C1118 1.429 . S
C1137 C1131 1.429 . S
C1137 C1138 1.523 . S
C1138 C1119 1.368 . S
C1138 C1132 1.368 . S
C1138 C1137 1.523 . S
C1139 C1123 1.429 . S
C1139 C1135 1.429 . S
C1139 C1140 1.523 . S
C1140 C1124 1.368 . S
C1140 C1136 1.368 . S
C1140 C1139 1.523 . S
H1141 C1116 0.950 . S
H1142 C1118 0.950 . S
H1143 C1119 0.949 . S
H1144 C1121 0.950 . S
H1145 C1123 0.950 . S
C1146 C1147 1.349 1_554 S
C1146 C1148 1.327 . S
C1146 H1171 0.950 . S
C1147 C1146 1.349 1_556 S
C1147 C1163 1.349 . S
C1148 C1146 1.327 . S
C1148 C1167 1.429 1_554 S
C1148 H1172 0.950 . S
C1149 C1166 1.574 . S
C1149 C1168 1.368 . S
C1149 H1173 0.949 . S
H1150 C1154 0.949 . S
C1151 C1152 1.349 . S
C1151 C1153 1.327 . S
C1151 H1174 0.950 . S
C1152 C1151 1.349 . S
C1152 C1164 1.349 1_556 S
C1153 C1151 1.327 . S
C1153 C1169 1.429 . S
C1153 H1175 0.950 . S
C1154 H1150 0.949 . S
C1154 C1162 1.574 . S
C1154 C1170 1.368 1_554 S
H1155 C1163 0.950 . S
H1156 C1161 0.950 . S
H1157 C1162 0.949 . S
H1158 C1164 0.950 . S
H1159 C1165 0.950 . S
H1160 C1166 0.949 . S
C1161 H1156 0.950 . S
C1161 C1163 1.327 . S
C1161 C1167 1.429 . S
C1162 C1154 1.574 . S
C1162 H1157 0.949 . S
C1162 C1168 1.368 1_554 S
C1163 C1147 1.349 . S
C1163 H1155 0.950 . S
C1163 C1161 1.327 . S
C1164 C1152 1.349 1_554 S
C1164 H1158 0.950 . S
C1164 C1165 1.327 . S
C1165 H1159 0.950 . S
C1165 C1164 1.327 . S
C1165 C1169 1.429 1_554 S
C1166 C1149 1.574 . S
C1166 H1160 0.949 . S
C1166 C1170 1.368 . S
C1167 C1148 1.429 1_556 S
C1167 C1161 1.429 . S
C1167 C1168 1.523 . S
C1168 C1149 1.368 . S
C1168 C1162 1.368 1_556 S
C1168 C1167 1.523 . S
C1169 C1153 1.429 . S
C1169 C1165 1.429 1_556 S
C1169 C1170 1.523 . S
C1170 C1154 1.368 1_556 S
C1170 C1166 1.368 . S
C1170 C1169 1.523 . S
H1171 C1146 0.950 . S
H1172 C1148 0.950 . S
H1173 C1149 0.949 . S
H1174 C1151 0.950 . S
H1175 C1153 0.950 . S
C1176 C1177 1.349 . S
C1176 C1178 1.327 . S
C1176 H1201 0.950 . S
C1177 C1176 1.349 . S
C1177 C1193 1.349 . S
C1178 C1176 1.327 . S
C1178 C1197 1.429 . S
C1178 H1202 0.950 . S
C1179 C1196 1.574 . S
C1179 C1198 1.368 . S
C1179 H1203 0.949 . S
H1180 C1184 0.949 . S
C1181 C1182 1.349 . S
C1181 C1183 1.327 . S
C1181 H1204 0.950 . S
C1182 C1181 1.349 . S
C1182 C1194 1.349 . S
C1183 C1181 1.327 . S
C1183 C1199 1.429 . S
C1183 H1205 0.950 . S
C1184 H1180 0.949 . S
C1184 C1192 1.574 . S
C1184 C1200 1.368 . S
H1185 C1193 0.950 . S
H1186 C1191 0.950 . S
H1187 C1192 0.949 . S
H1188 C1194 0.950 . S
H1189 C1195 0.950 . S
H1190 C1196 0.949 . S
C1191 H1186 0.950 . S
C1191 C1193 1.327 . S
C1191 C1197 1.429 . S
C1192 C1184 1.574 . S
C1192 H1187 0.949 . S
C1192 C1198 1.368 . S
C1193 C1177 1.349 . S
C1193 H1185 0.950 . S
C1193 C1191 1.327 . S
C1194 C1182 1.349 . S
C1194 H1188 0.950 . S
C1194 C1195 1.327 . S
C1195 H1189 0.950 . S
C1195 C1194 1.327 . S
C1195 C1199 1.429 . S
C1196 C1179 1.574 . S
C1196 H1190 0.949 . S
C1196 C1200 1.368 . S
C1197 C1178 1.429 . S
C1197 C1191 1.429 . S
C1197 C1198 1.523 . S
C1198 C1179 1.368 . S
C1198 C1192 1.368 . S
C1198 C1197 1.523 . S
C1199 C1183 1.429 . S
C1199 C1195 1.429 . S
C1199 C1200 1.523 . S
C1200 C1184 1.368 . S
C1200 C1196 1.368 . S
C1200 C1199 1.523 . S
H1201 C1176 0.950 . S
H1202 C1178 0.950 . S
H1203 C1179 0.949 . S
H1204 C1181 0.950 . S
H1205 C1183 0.950 . S
C1206 C1207 1.349 . S
C1206 C1208 1.327 . S
C1206 H1231 0.950 . S
C1207 C1206 1.349 . S
C1207 C1223 1.349 . S
C1208 C1206 1.327 . S
C1208 C1227 1.429 . S
C1208 H1232 0.950 . S
C1209 C1226 1.574 . S
C1209 C1228 1.368 . S
C1209 H1233 0.949 . S
H1210 C1214 0.949 . S
C1211 C1212 1.349 . S
C1211 C1213 1.327 . S
C1211 H1234 0.950 . S
C1212 C1211 1.349 . S
C1212 C1224 1.349 . S
C1213 C1211 1.327 . S
C1213 C1229 1.429 . S
C1213 H1235 0.950 . S
C1214 H1210 0.949 . S
C1214 C1222 1.574 . S
C1214 C1230 1.368 . S
H1215 C1223 0.950 . S
H1216 C1221 0.950 . S
H1217 C1222 0.949 . S
H1218 C1224 0.950 . S
H1219 C1225 0.950 . S
H1220 C1226 0.949 . S
C1221 H1216 0.950 . S
C1221 C1223 1.327 . S
C1221 C1227 1.429 . S
C1222 C1214 1.574 . S
C1222 H1217 0.949 . S
C1222 C1228 1.368 . S
C1223 C1207 1.349 . S
C1223 H1215 0.950 . S
C1223 C1221 1.327 . S
C1224 C1212 1.349 . S
C1224 H1218 0.950 . S
C1224 C1225 1.327 . S
C1225 H1219 0.950 . S
C1225 C1224 1.327 . S
C1225 C1229 1.429 . S
C1226 C1209 1.574 . S
C1226 H1220 0.949 . S
C1226 C1230 1.368 . S
C1227 C1208 1.429 . S
C1227 C1221 1.429 . S
C1227 C1228 1.523 . S
C1228 C1209 1.368 . S
C1228 C1222 1.368 . S
C1228 C1227 1.523 . S
C1229 C1213 1.429 . S
C1229 C1225 1.429 . S
C1229 C1230 1.523 . S
C1230 C1214 1.368 . S
C1230 C1226 1.368 . S
C1230 C1229 1.523 . S
H1231 C1206 0.950 . S
H1232 C1208 0.950 . S
H1233 C1209 0.949 . S
H1234 C1211 0.950 . S
H1235 C1213 0.950 . S
C1236 C1237 1.349 . S
C1236 C1238 1.327 . S
C1236 H1261 0.950 . S
C1237 C1236 1.349 . S
C1237 C1253 1.349 . S
C1238 C1236 1.327 . S
C1238 C1257 1.429 . S
C1238 H1262 0.950 . S
C1239 C1256 1.574 . S
C1239 C1258 1.368 . S
C1239 H1263 0.949 . S
H1240 C1244 0.949 . S
C1241 C1242 1.349 . S
C1241 C1243 1.327 . S
C1241 H1264 0.950 . S
C1242 C1241 1.349 . S
C1242 C1254 1.349 . S
C1243 C1241 1.327 . S
C1243 C1259 1.429 . S
C1243 H1265 0.950 . S
C1244 H1240 0.949 . S
C1244 C1252 1.574 . S
C1244 C1260 1.368 . S
H1245 C1253 0.950 . S
H1246 C1251 0.950 . S
H1247 C1252 0.949 . S
H1248 C1254 0.950 . S
H1249 C1255 0.950 . S
H1250 C1256 0.949 . S
C1251 H1246 0.950 . S
C1251 C1253 1.327 . S
C1251 C1257 1.429 . S
C1252 C1244 1.574 . S
C1252 H1247 0.949 . S
C1252 C1258 1.368 . S
C1253 C1237 1.349 . S
C1253 H1245 0.950 . S
C1253 C1251 1.327 . S
C1254 C1242 1.349 . S
C1254 H1248 0.950 . S
C1254 C1255 1.327 . S
C1255 H1249 0.950 . S
C1255 C1254 1.327 . S
C1255 C1259 1.429 . S
C1256 C1239 1.574 . S
C1256 H1250 0.949 . S
C1256 C1260 1.368 . S
C1257 C1238 1.429 . S
C1257 C1251 1.429 . S
C1257 C1258 1.523 . S
C1258 C1239 1.368 . S
C1258 C1252 1.368 . S
C1258 C1257 1.523 . S
C1259 C1243 1.429 . S
C1259 C1255 1.429 . S
C1259 C1260 1.523 . S
C1260 C1244 1.368 . S
C1260 C1256 1.368 . S
C1260 C1259 1.523 . S
H1261 C1236 0.950 . S
H1262 C1238 0.950 . S
H1263 C1239 0.949 . S
H1264 C1241 0.950 . S
H1265 C1243 0.950 . S
C1266 C1267 1.349 . S
C1266 C1268 1.327 . S
C1266 H1291 0.950 . S
C1267 C1266 1.349 . S
C1267 C1283 1.349 . S
C1268 C1266 1.327 . S
C1268 C1287 1.429 . S
C1268 H1292 0.950 . S
C1269 C1286 1.574 . S
C1269 C1288 1.368 . S
C1269 H1293 0.949 . S
H1270 C1274 0.949 . S
C1271 C1272 1.349 . S
C1271 C1273 1.327 . S
C1271 H1294 0.950 . S
C1272 C1271 1.349 . S
C1272 C1284 1.349 . S
C1273 C1271 1.327 . S
C1273 C1289 1.429 . S
C1273 H1295 0.950 . S
C1274 H1270 0.949 . S
C1274 C1282 1.574 . S
C1274 C1290 1.368 . S
H1275 C1283 0.950 . S
H1276 C1281 0.950 . S
H1277 C1282 0.949 . S
H1278 C1284 0.950 . S
H1279 C1285 0.950 . S
H1280 C1286 0.949 . S
C1281 H1276 0.950 . S
C1281 C1283 1.327 . S
C1281 C1287 1.429 . S
C1282 C1274 1.574 . S
C1282 H1277 0.949 . S
C1282 C1288 1.368 . S
C1283 C1267 1.349 . S
C1283 H1275 0.950 . S
C1283 C1281 1.327 . S
C1284 C1272 1.349 . S
C1284 H1278 0.950 . S
C1284 C1285 1.327 . S
C1285 H1279 0.950 . S
C1285 C1284 1.327 . S
C1285 C1289 1.429 . S
C1286 C1269 1.574 . S
C1286 H1280 0.949 . S
C1286 C1290 1.368 . S
C1287 C1268 1.429 . S
C1287 C1281 1.429 . S
C1287 C1288 1.523 . S
C1288 C1269 1.368 . S
C1288 C1282 1.368 . S
C1288 C1287 1.523 . S
C1289 C1273 1.429 . S
C1289 C1285 1.429 . S
C1289 C1290 1.523 . S
C1290 C1274 1.368 . S
C1290 C1286 1.368 . S
C1290 C1289 1.523 . S
H1291 C1266 0.950 . S
H1292 C1268 0.950 . S
H1293 C1269 0.949 . S
H1294 C1271 0.950 . S
H1295 C1273 0.950 . S
C1296 C1297 1.349 . S
C1296 C1298 1.327 . S
C1296 H1321 0.950 . S
C1297 C1296 1.349 . S
C1297 C1313 1.349 . S
C1298 C1296 1.327 . S
C1298 C1317 1.429 . S
C1298 H1322 0.950 . S
C1299 C1316 1.574 . S
C1299 C1318 1.368 . S
C1299 H1323 0.949 . S
H1300 C1304 0.949 . S
C1301 C1302 1.349 . S
C1301 C1303 1.327 . S
C1301 H1324 0.950 . S
C1302 C1301 1.349 . S
C1302 C1314 1.349 . S
C1303 C1301 1.327 . S
C1303 C1319 1.429 . S
C1303 H1325 0.950 . S
C1304 H1300 0.949 . S
C1304 C1312 1.574 . S
C1304 C1320 1.368 . S
H1305 C1313 0.950 . S
H1306 C1311 0.950 . S
H1307 C1312 0.949 . S
H1308 C1314 0.950 . S
H1309 C1315 0.950 . S
H1310 C1316 0.949 . S
C1311 H1306 0.950 . S
C1311 C1313 1.327 . S
C1311 C1317 1.429 . S
C1312 C1304 1.574 . S
C1312 H1307 0.949 . S
C1312 C1318 1.368 . S
C1313 C1297 1.349 . S
C1313 H1305 0.950 . S
C1313 C1311 1.327 . S
C1314 C1302 1.349 . S
C1314 H1308 0.950 . S
C1314 C1315 1.327 . S
C1315 H1309 0.950 . S
C1315 C1314 1.327 . S
C1315 C1319 1.429 . S
C1316 C1299 1.574 . S
C1316 H1310 0.949 . S
C1316 C1320 1.368 . S
C1317 C1298 1.429 . S
C1317 C1311 1.429 . S
C1317 C1318 1.523 . S
C1318 C1299 1.368 . S
C1318 C1312 1.368 . S
C1318 C1317 1.523 . S
C1319 C1303 1.429 . S
C1319 C1315 1.429 . S
C1319 C1320 1.523 . S
C1320 C1304 1.368 . S
C1320 C1316 1.368 . S
C1320 C1319 1.523 . S
H1321 C1296 0.950 . S
H1322 C1298 0.950 . S
H1323 C1299 0.949 . S
H1324 C1301 0.950 . S
H1325 C1303 0.950 . S
C1326 C1327 1.349 . S
C1326 C1328 1.327 . S
C1326 H1351 0.950 . S
C1327 C1326 1.349 . S
C1327 C1343 1.349 . S
C1328 C1326 1.327 . S
C1328 C1347 1.429 . S
C1328 H1352 0.950 . S
C1329 C1346 1.574 . S
C1329 C1348 1.368 . S
C1329 H1353 0.949 . S
H1330 C1334 0.949 . S
C1331 C1332 1.349 . S
C1331 C1333 1.327 . S
C1331 H1354 0.950 . S
C1332 C1331 1.349 . S
C1332 C1344 1.349 . S
C1333 C1331 1.327 . S
C1333 C1349 1.429 . S
C1333 H1355 0.950 . S
C1334 H1330 0.949 . S
C1334 C1342 1.574 . S
C1334 C1350 1.368 . S
H1335 C1343 0.950 . S
H1336 C1341 0.950 . S
H1337 C1342 0.949 . S
H1338 C1344 0.950 . S
H1339 C1345 0.950 . S
H1340 C1346 0.949 . S
C1341 H1336 0.950 . S
C1341 C1343 1.327 . S
C1341 C1347 1.429 . S
C1342 C1334 1.574 . S
C1342 H1337 0.949 . S
C1342 C1348 1.368 . S
C1343 C1327 1.349 . S
C1343 H1335 0.950 . S
C1343 C1341 1.327 . S
C1344 C1332 1.349 . S
C1344 H1338 0.950 . S
C1344 C1345 1.327 . S
C1345 H1339 0.950 . S
C1345 C1344 1.327 . S
C1345 C1349 1.429 . S
C1346 C1329 1.574 . S
C1346 H1340 0.949 . S
C1346 C1350 1.368 . S
C1347 C1328 1.429 . S
C1347 C1341 1.429 . S
C1347 C1348 1.523 . S
C1348 C1329 1.368 . S
C1348 C1342 1.368 . S
C1348 C1347 1.523 . S
C1349 C1333 1.429 . S
C1349 C1345 1.429 . S
C1349 C1350 1.523 . S
C1350 C1334 1.368 . S
C1350 C1346 1.368 . S
C1350 C1349 1.523 . S
H1351 C1326 0.950 . S
H1352 C1328 0.950 . S
H1353 C1329 0.949 . S
H1354 C1331 0.950 . S
H1355 C1333 0.950 . S
C637 C39 1.214 . S
C642 C569 1.214 . S
C667 C92 1.390 . S
C672 C622 1.392 . S
C697 C357 1.390 . S
C702 C145 1.392 . S
C727 C198 1.214 . S
C732 C410 1.214 . S
C757 C463 1.388 . S
C762 C251 1.395 . S
C787 C516 1.390 . S
C792 C304 1.392 . S
C817 C347 1.258 . S
C822 C29 1.258 . S
C847 C400 1.258 . S
C852 C82 1.258 . S
C877 C453 1.261 . S
C882 C135 1.261 . S
C907 C188 1.258 . S
C912 C506 1.258 . S
C937 C241 1.258 . S
C942 C559 1.258 . S
C967 C294 1.262 . S
C972 C612 1.261 . S
C997 C22 2.960 . S
C1002 C181 2.960 . S
C1027 C75 2.964 . S
C1032 C234 2.964 . S
C1057 C128 2.937 . S
C1062 C287 2.937 . S
C1087 C499 2.964 . S
C1092 C340 2.964 . S
C1117 C552 2.959 . S
C1122 C393 2.959 . S
C1147 C605 2.937 . S
C1152 C446 2.937 . S
C1177 C38 2.424 . S
C1182 C462 2.422 . S
C1207 C515 2.576 . S
C1212 C91 2.576 . S
C1237 C144 2.426 . S
C1242 C568 2.420 . S
C1267 C621 2.426 . S
C1272 C197 2.420 . S
C1297 C250 2.576 . S
C1302 C356 2.576 . S
C1327 C303 2.426 . S
C1332 C409 2.420 . S
