# Generated by pormake.
# Topology msp, (4)-cn, num edge types: 1
# Building blocks:
#     Node 0, Type 0, BuildingBlock: ICAMEG_clean_sbu_1, # of connection points: 4
#     Node 1, Type 0, BuildingBlock: ICAMEG_clean_sbu_1, # of connection points: 4
#     Node 2, Type 0, BuildingBlock: ICAMEG_clean_sbu_1, # of connection points: 4
#     Node 3, Type 0, BuildingBlock: ICAMEG_clean_sbu_1, # of connection points: 4
#     Node 4, Type 0, BuildingBlock: ICAMEG_clean_sbu_1, # of connection points: 4
#     Node 5, Type 0, BuildingBlock: ICAMEG_clean_sbu_1, # of connection points: 4
#     Node 6, Type 0, BuildingBlock: ICAMEG_clean_sbu_1, # of connection points: 4
#     Node 7, Type 0, BuildingBlock: ICAMEG_clean_sbu_1, # of connection points: 4
#     Edge 8, Type (0, 0), BuildingBlock: CIFDUS_clean_linker_0, # of connection points: 2
#     Edge 9, Type (0, 0), BuildingBlock: CIFDUS_clean_linker_0, # of connection points: 2
#     Edge 10, Type (0, 0), BuildingBlock: CIFDUS_clean_linker_0, # of connection points: 2
#     Edge 11, Type (0, 0), BuildingBlock: CIFDUS_clean_linker_0, # of connection points: 2
#     Edge 12, Type (0, 0), BuildingBlock: CIFDUS_clean_linker_0, # of connection points: 2
#     Edge 13, Type (0, 0), BuildingBlock: CIFDUS_clean_linker_0, # of connection points: 2
#     Edge 14, Type (0, 0), BuildingBlock: CIFDUS_clean_linker_0, # of connection points: 2
#     Edge 15, Type (0, 0), BuildingBlock: CIFDUS_clean_linker_0, # of connection points: 2
#     Edge 16, Type (0, 0), BuildingBlock: CIFDUS_clean_linker_0, # of connection points: 2
#     Edge 17, Type (0, 0), BuildingBlock: CIFDUS_clean_linker_0, # of connection points: 2
#     Edge 18, Type (0, 0), BuildingBlock: CIFDUS_clean_linker_0, # of connection points: 2
#     Edge 19, Type (0, 0), BuildingBlock: CIFDUS_clean_linker_0, # of connection points: 2
#     Edge 20, Type (0, 0), BuildingBlock: CIFDUS_clean_linker_0, # of connection points: 2
#     Edge 21, Type (0, 0), BuildingBlock: CIFDUS_clean_linker_0, # of connection points: 2
#     Edge 22, Type (0, 0), BuildingBlock: CIFDUS_clean_linker_0, # of connection points: 2
#     Edge 23, Type (0, 0), BuildingBlock: CIFDUS_clean_linker_0, # of connection points: 2
# Relax obj value: 0.050
# Max RMSD: 0.150
# Mean RMSD: 0.150
data_MOF--net-msp--node1-ICAMEG_clean_sbu_1--edge1-CIFDUS_clean_linker_0
_symmetry_space_group_name_H-M    P1
_symmetry_Int_Tables_number       1
_symmetry_cell_setting            triclinic
loop_
_symmetry_equiv_pos_as_xyz
'x, y, z'
_cell_length_a     23.558408
_cell_length_b     16.490639
_cell_length_c     38.724515
_cell_angle_alpha  90.043726
_cell_angle_beta   103.55077
_cell_angle_gamma 89.923167
loop_
_atom_site_label
_atom_site_type_symbol
_atom_site_fract_x
_atom_site_fract_y
_atom_site_fract_z
_atom_type_partial_charge
Co0 Co 0.07219 0.34067 0.35365 0.0
Co1 Co 0.98366 0.18696 0.37069 0.0
O2 O 0.01463 0.25502 0.33793 0.0
C3 C 0.12936 0.24418 0.30681 0.0
O4 O 0.11764 0.1796 0.32371 0.0
C5 C 0.87863 0.25276 0.32214 0.0
O6 O 0.90249 0.32472 0.32881 0.0
O7 O 0.9638 0.28381 0.39636 0.0
O8 O 0.03638 0.37016 0.39414 0.0
H9 H 0.95595 0.09734 0.48976 0.0
H10 H 0.00595 0.33639 0.27851 0.0
O11 O 0.11133 0.31353 0.31416 0.0
H12 H 0.95834 0.6005 0.32458 0.0
H13 H 0.20106 0.57228 0.33519 0.0
H14 H 0.14413 0.394 0.42351 0.0
H15 H 0.02661 0.50621 0.36302 0.0
H16 H 0.12586 0.46703 0.31629 0.0
O17 O 0.90499 0.19032 0.33726 0.0
H18 H 0.9953 0.18313 0.44875 0.0
H19 H 0.90195 0.04628 0.36071 0.0
H20 H 0.21917 0.49874 0.44359 0.0
H21 H 0.93712 0.42862 0.23924 0.0
H22 H 0.24814 0.58882 0.39927 0.0
H23 H 0.91317 0.56183 0.2622 0.0
O24 O 0.12426 0.26356 0.38556 0.0
H25 H 0.98023 0.01326 0.26371 0.0
H26 H 0.04829 0.03322 0.39391 0.0
H27 H 0.06964 0.90955 0.36334 0.0
H28 H 0.03449 0.89828 0.29785 0.0
H29 H 0.96207 0.13693 0.29513 0.0
H30 H 0.86114 0.95946 0.40075 0.0
H31 H 0.88842 0.9844 0.46581 0.0
O32 O 0.06141 0.18305 0.40502 0.0
C33 C 0.99414 0.34687 0.40718 0.0
C34 C 0.94398 0.08556 0.46148 0.0
C35 C 0.89071 0.00825 0.41152 0.0
N36 N 0.95168 0.11902 0.40242 0.0
C37 C 0.96633 0.13375 0.43814 0.0
C38 C 0.91392 0.0577 0.38898 0.0
C39 C 0.90604 0.02228 0.44802 0.0
C40 C 0.99594 0.39449 0.28861 0.0
N41 N 0.02047 0.41609 0.32293 0.0
C42 C 0.95684 0.44633 0.2663 0.0
C43 C 0.94328 0.521 0.27923 0.0
C44 C 0.96861 0.5427 0.31424 0.0
C45 C 0.00717 0.48905 0.33588 0.0
C46 C 0.18864 0.53364 0.35477 0.0
C47 C 0.15604 0.43343 0.40409 0.0
C48 C 0.1461 0.47391 0.34423 0.0
N49 N 0.13005 0.42506 0.36882 0.0
C50 C 0.19876 0.49245 0.41561 0.0
C51 C 0.21504 0.54289 0.39073 0.0
C52 C 0.11248 0.21153 0.40725 0.0
C53 C 0.99592 0.01735 0.29224 0.0
C54 C 0.03414 0.02959 0.36531 0.0
C55 C 0.04599 0.95918 0.34817 0.0
C56 C 0.02631 0.95293 0.31141 0.0
N57 N 0.00361 0.09203 0.34635 0.0
C58 C 0.98541 0.08711 0.31022 0.0
Co59 Co 0.365 0.41764 0.6379 0.0
Co60 Co 0.47208 0.27924 0.63225 0.0
O61 O 0.42492 0.33903 0.65936 0.0
C62 C 0.30107 0.30577 0.67486 0.0
O63 O 0.32077 0.24632 0.65832 0.0
C64 C 0.55982 0.34687 0.69292 0.0
O65 O 0.53407 0.41764 0.68586 0.0
O66 O 0.49552 0.38214 0.61213 0.0
O67 O 0.41418 0.45774 0.6058 0.0
H68 H 0.54448 0.20523 0.52396 0.0
H69 H 0.40408 0.41372 0.71651 0.0
O70 O 0.31422 0.37889 0.66952 0.0
H71 H 0.44352 0.69213 0.68215 0.0
H72 H 0.21511 0.63548 0.63866 0.0
H73 H 0.31452 0.47158 0.56412 0.0
H74 H 0.40306 0.59002 0.63649 0.0
H75 H 0.28648 0.53023 0.66567 0.0
O76 O 0.54053 0.28547 0.6739 0.0
H77 H 0.48405 0.27957 0.55743 0.0
H78 H 0.56265 0.14985 0.65121 0.0
H79 H 0.24268 0.57492 0.53617 0.0
H80 H 0.4429 0.5146 0.76307 0.0
H81 H 0.19353 0.65913 0.57375 0.0
H82 H 0.46262 0.65512 0.74594 0.0
O83 O 0.32801 0.3379 0.60088 0.0
H84 H 0.42746 0.09806 0.72691 0.0
H85 H 0.42676 0.12126 0.59996 0.0
H86 H 0.39168 0.99542 0.62227 0.0
H87 H 0.39192 0.98334 0.68624 0.0
H88 H 0.46371 0.22235 0.70374 0.0
H89 H 0.62426 0.07444 0.61876 0.0
H90 H 0.61524 0.10173 0.55463 0.0
O91 O 0.40537 0.27136 0.59009 0.0
C92 C 0.46372 0.44281 0.5991 0.0
C93 C 0.54885 0.1928 0.5519 0.0
C94 C 0.59368 0.11951 0.60512 0.0
N95 N 0.51995 0.21954 0.60632 0.0
C96 C 0.51471 0.23476 0.57102 0.0
C97 C 0.55886 0.16273 0.6234 0.0
C98 C 0.58857 0.1348 0.56913 0.0
C99 C 0.41252 0.47472 0.70886 0.0
N100 N 0.40095 0.49604 0.67381 0.0
C101 C 0.43471 0.53151 0.73534 0.0
C102 C 0.44583 0.61029 0.72573 0.0
C103 C 0.43509 0.63111 0.68992 0.0
C104 C 0.41261 0.57284 0.66417 0.0
C105 C 0.23635 0.59917 0.62218 0.0
C106 C 0.29264 0.50706 0.58061 0.0
C107 C 0.27678 0.53957 0.63726 0.0
N108 N 0.30518 0.49549 0.61656 0.0
C109 C 0.25204 0.56556 0.56461 0.0
C110 C 0.22425 0.61246 0.58567 0.0
C111 C 0.35168 0.29084 0.5822 0.0
C112 C 0.42805 0.10233 0.69915 0.0
C113 C 0.42749 0.11626 0.62789 0.0
C114 C 0.40752 0.04484 0.64035 0.0
C115 C 0.40772 0.03806 0.67624 0.0
N116 N 0.44768 0.17891 0.65058 0.0
C117 C 0.4484 0.1725 0.68585 0.0
Co118 Co 0.93168 0.58465 0.64526 0.0
Co119 Co 0.02827 0.72954 0.63213 0.0
O120 O 0.99544 0.66026 0.66368 0.0
C121 C 0.88756 0.67549 0.69931 0.0
O122 O 0.90196 0.74195 0.68478 0.0
C123 C 0.13317 0.65839 0.6805 0.0
O124 O 0.10964 0.5864 0.6731 0.0
O125 O 0.04466 0.63264 0.60532 0.0
O126 O 0.96269 0.56105 0.60212 0.0
H127 H 0.0597 0.82313 0.51447 0.0
H128 H 0.9993 0.5617 0.71941 0.0
O129 O 0.89824 0.60648 0.68746 0.0
H130 H 0.02075 0.30573 0.65771 0.0
H131 H 0.78763 0.36582 0.65563 0.0
H132 H 0.85411 0.5536 0.57422 0.0
H133 H 0.9644 0.41953 0.62529 0.0
H134 H 0.87043 0.45811 0.67795 0.0
O135 O 0.10668 0.72125 0.66588 0.0
H136 H 0.01618 0.73916 0.55414 0.0
H137 H 0.11516 0.86429 0.64418 0.0
H138 H 0.77152 0.46185 0.55073 0.0
H139 H 0.05396 0.4484 0.75315 0.0
H140 H 0.73769 0.36714 0.59156 0.0
H141 H 0.06474 0.319 0.72208 0.0
O142 O 0.88391 0.67391 0.61931 0.0
H143 H 0.02732 0.89295 0.7417 0.0
H144 H 0.97127 0.88912 0.61075 0.0
H145 H 0.94996 0.01023 0.64292 0.0
H146 H 0.97887 0.01309 0.70874 0.0
H147 H 0.04741 0.77267 0.70846 0.0
H148 H 0.16008 0.94926 0.60547 0.0
H149 H 0.13218 0.9292 0.54009 0.0
O150 O 0.95068 0.74074 0.59754 0.0
C151 C 0.00827 0.57799 0.59102 0.0
C152 C 0.07204 0.83269 0.5429 0.0
C153 C 0.12844 0.90339 0.59398 0.0
N154 N 0.06265 0.79724 0.60143 0.0
C155 C 0.04739 0.78547 0.56551 0.0
C156 C 0.10292 0.85497 0.61577 0.0
C157 C 0.11276 0.89211 0.5573 0.0
C158 C 0.00378 0.50561 0.70583 0.0
N159 N 0.97849 0.49708 0.6705 0.0
C160 C 0.03511 0.44177 0.72502 0.0
C161 C 0.0412 0.36936 0.70763 0.0
C162 C 0.01632 0.36174 0.67144 0.0
C163 C 0.98483 0.42659 0.65318 0.0
C164 C 0.80206 0.40665 0.63755 0.0
C165 C 0.84 0.51212 0.59212 0.0
C166 C 0.84887 0.45915 0.65005 0.0
N167 N 0.86747 0.5107 0.62736 0.0
C168 C 0.79306 0.46048 0.57868 0.0
C169 C 0.77407 0.40742 0.6016 0.0
C170 C 0.89797 0.72374 0.5977 0.0
C171 C 0.0149 0.89257 0.71296 0.0
C172 C 0.98335 0.88948 0.63945 0.0
C173 C 0.97134 0.95834 0.65751 0.0
C174 C 0.98747 0.95984 0.69449 0.0
N175 N 0.01091 0.82408 0.65771 0.0
C176 C 0.02631 0.82477 0.69399 0.0
Co177 Co 0.6079 0.60984 0.36437 0.0
Co178 Co 0.53691 0.77736 0.38668 0.0
O179 O 0.55719 0.70401 0.3518 0.0
C180 C 0.66658 0.69472 0.31548 0.0
O181 O 0.66481 0.76024 0.3345 0.0
C182 C 0.42394 0.72977 0.34013 0.0
O183 O 0.44096 0.65432 0.34653 0.0
O184 O 0.51255 0.68482 0.41316 0.0
O185 O 0.57633 0.58757 0.40708 0.0
H186 H 0.53231 0.87371 0.5092 0.0
H187 H 0.52895 0.62683 0.2929 0.0
O188 O 0.64193 0.62985 0.32225 0.0
H189 H 0.47149 0.37109 0.34116 0.0
H190 H 0.71412 0.36142 0.33706 0.0
H191 H 0.68195 0.54458 0.43145 0.0
H192 H 0.5547 0.45071 0.37506 0.0
H193 H 0.64552 0.47637 0.32268 0.0
O194 O 0.45604 0.78739 0.35559 0.0
H195 H 0.55865 0.78129 0.46533 0.0
H196 H 0.46787 0.93046 0.38093 0.0
H197 H 0.75055 0.42994 0.44706 0.0
H198 H 0.44274 0.55221 0.2594 0.0
H199 H 0.76719 0.33763 0.39966 0.0
H200 H 0.41456 0.42223 0.28295 0.0
O201 O 0.66938 0.67849 0.39435 0.0
H202 H 0.54606 0.94009 0.27851 0.0
H203 H 0.61442 0.92037 0.40864 0.0
H204 H 0.64808 0.03374 0.37702 0.0
H205 H 0.61366 0.04429 0.31142 0.0
H206 H 0.51434 0.82707 0.31101 0.0
H207 H 0.44008 0.02424 0.42387 0.0
H208 H 0.47269 0.99636 0.48853 0.0
O209 O 0.61736 0.76886 0.41793 0.0
C210 C 0.53853 0.6174 0.42235 0.0
C211 C 0.51809 0.88676 0.4811 0.0
C212 C 0.46625 0.97116 0.43321 0.0
N213 N 0.51542 0.85094 0.42064 0.0
C214 C 0.53307 0.83479 0.45614 0.0
C215 C 0.48203 0.91777 0.40902 0.0
C216 C 0.48456 0.95549 0.46949 0.0
C217 C 0.51684 0.57037 0.30338 0.0
N218 N 0.54696 0.54294 0.33579 0.0
C219 C 0.46825 0.52811 0.28418 0.0
C220 C 0.45201 0.45566 0.29764 0.0
C221 C 0.48387 0.42704 0.33032 0.0
C222 C 0.53114 0.47215 0.3493 0.0
C223 C 0.70711 0.40108 0.35797 0.0
C224 C 0.68843 0.50414 0.41073 0.0
C225 C 0.66836 0.46633 0.34999 0.0
N226 N 0.65935 0.51677 0.37624 0.0
C227 C 0.7275 0.4395 0.41971 0.0
C228 C 0.73686 0.38776 0.3931 0.0
C229 C 0.66522 0.7338 0.41668 0.0
C230 C 0.56132 0.93628 0.30703 0.0
C231 C 0.59951 0.9243 0.38008 0.0
C232 C 0.6186 0.98876 0.36233 0.0
C233 C 0.59926 0.99468 0.32555 0.0
N234 N 0.56213 0.86741 0.36172 0.0
C235 C 0.54324 0.87259 0.32563 0.0
Co236 Co 0.6174 0.86631 0.87517 0.0
Co237 Co 0.51787 0.71869 0.88127 0.0
O238 O 0.55869 0.7868 0.85332 0.0
C239 C 0.68183 0.77129 0.83172 0.0
O240 O 0.66704 0.7055 0.84655 0.0
C241 C 0.42277 0.78406 0.8241 0.0
O242 O 0.44501 0.85637 0.83261 0.0
O243 O 0.49177 0.81696 0.90363 0.0
O244 O 0.57231 0.89427 0.91144 0.0
H245 H 0.45946 0.6264 0.99181 0.0
H246 H 0.56608 0.87674 0.79756 0.0
O247 O 0.66406 0.84045 0.83945 0.0
H248 H 0.52615 0.14137 0.84651 0.0
H249 H 0.76404 0.08827 0.8746 0.0
H250 H 0.67567 0.90908 0.94947 0.0
H251 H 0.57728 0.03367 0.88591 0.0
H252 H 0.68756 0.9903 0.84733 0.0
O253 O 0.44635 0.72206 0.84121 0.0
H254 H 0.50975 0.71357 0.9567 0.0
H255 H 0.43527 0.57967 0.86336 0.0
H256 H 0.75174 0.00655 0.97785 0.0
H257 H 0.51512 0.98331 0.75703 0.0
H258 H 0.79625 0.09717 0.94033 0.0
H259 H 0.49578 0.11725 0.78165 0.0
O260 O 0.66073 0.78215 0.90736 0.0
H261 H 0.56031 0.55458 0.78073 0.0
H262 H 0.57359 0.56213 0.90969 0.0
H263 H 0.61197 0.44359 0.88355 0.0
H264 H 0.6054 0.43932 0.81862 0.0
H265 H 0.52202 0.67177 0.80795 0.0
H266 H 0.38336 0.49191 0.89738 0.0
H267 H 0.39582 0.51447 0.96216 0.0
O268 O 0.58797 0.7128 0.92201 0.0
C269 C 0.52314 0.87672 0.91811 0.0
C270 C 0.45384 0.61578 0.96362 0.0
C271 C 0.41109 0.54035 0.91062 0.0
N272 N 0.47598 0.65125 0.90807 0.0
C273 C 0.48237 0.6648 0.9436 0.0
C274 C 0.44043 0.59045 0.89146 0.0
C275 C 0.4181 0.55304 0.94696 0.0
C276 C 0.55747 0.93475 0.80833 0.0
N277 N 0.57492 0.94917 0.84398 0.0
C278 C 0.52854 0.99475 0.7853 0.0
C279 C 0.51745 0.06971 0.79908 0.0
C280 C 0.53461 0.08345 0.83553 0.0
C281 C 0.56331 0.02206 0.85772 0.0
C282 C 0.7448 0.04927 0.89123 0.0
C283 C 0.69466 0.94856 0.93296 0.0
C284 C 0.70154 0.99355 0.87594 0.0
N285 N 0.67679 0.94444 0.89679 0.0
C286 C 0.73783 0.00348 0.94919 0.0
C287 C 0.76291 0.0542 0.92811 0.0
C288 C 0.64145 0.73291 0.92717 0.0
C289 C 0.56294 0.55548 0.80901 0.0
C290 C 0.57031 0.56059 0.88138 0.0
C291 C 0.59214 0.49329 0.86673 0.0
C292 C 0.58843 0.49092 0.8303 0.0
N293 N 0.5451 0.62354 0.8603 0.0
C294 C 0.54117 0.62151 0.82454 0.0
Co295 Co 0.94593 0.83939 0.14322 0.0
Co296 Co 0.04197 0.70146 0.12321 0.0
O297 O 0.00922 0.76115 0.15776 0.0
C298 C 0.89341 0.74161 0.19235 0.0
O299 O 0.89673 0.67706 0.17303 0.0
C300 C 0.14593 0.76283 0.17593 0.0
O301 O 0.1225 0.83552 0.17231 0.0
O302 O 0.05747 0.8052 0.1001 0.0
O303 O 0.97541 0.87297 0.10117 0.0
H304 H 0.07158 0.637 0.00173 0.0
H305 H 0.0214 0.84399 0.21624 0.0
O306 O 0.91413 0.80907 0.18509 0.0
H307 H 0.04106 0.11353 0.16518 0.0
H308 H 0.80537 0.05413 0.16419 0.0
H309 H 0.86625 0.88409 0.07441 0.0
H310 H 0.97577 0.01061 0.1306 0.0
H311 H 0.8875 0.95822 0.18178 0.0
O312 O 0.12062 0.70443 0.15694 0.0
H313 H 0.02911 0.71019 0.04521 0.0
H314 H 0.12851 0.56663 0.12894 0.0
H315 H 0.78426 0.97958 0.05565 0.0
H316 H 0.08897 0.94437 0.25127 0.0
H317 H 0.75328 0.06547 0.1007 0.0
H318 H 0.09808 0.08055 0.22588 0.0
O319 O 0.89715 0.75552 0.11329 0.0
H320 H 0.04223 0.51555 0.22609 0.0
H321 H 0.9853 0.54488 0.09578 0.0
H322 H 0.96388 0.41717 0.12331 0.0
H323 H 0.99285 0.40164 0.1889 0.0
H324 H 0.06195 0.64259 0.19753 0.0
H325 H 0.17248 0.49227 0.08634 0.0
H326 H 0.14402 0.52753 0.02223 0.0
O327 O 0.96403 0.69538 0.08904 0.0
C328 C 0.02034 0.86151 0.08879 0.0
C329 C 0.08423 0.62103 0.02959 0.0
C330 C 0.14092 0.5399 0.07709 0.0
N331 N 0.07585 0.64228 0.08955 0.0
C332 C 0.06018 0.6621 0.05433 0.0
C333 C 0.11596 0.58233 0.10109 0.0
C334 C 0.12488 0.55955 0.04111 0.0
C335 C 0.02537 0.90317 0.20506 0.0
N336 N 0.99454 0.92154 0.1715 0.0
C337 C 0.06369 0.95964 0.22498 0.0
C338 C 0.0691 0.03595 0.21067 0.0
C339 C 0.03703 0.05453 0.17659 0.0
C340 C 1.00005 0.99605 0.15718 0.0
C341 C 0.81855 0.01717 0.1443 0.0
C342 C 0.85332 0.92156 0.09417 0.0
C343 C 0.86496 0.96264 0.15411 0.0
N344 N 0.88203 0.91604 0.12911 0.0
C345 C 0.80673 0.9754 0.08338 0.0
C346 C 0.78934 0.02352 0.10867 0.0
C347 C 0.91121 0.71129 0.08953 0.0
C348 C 0.02951 0.52146 0.19747 0.0
C349 C 0.99761 0.53885 0.12436 0.0
C350 C 0.98552 0.4663 0.13979 0.0
C351 C 0.00176 0.45763 0.1766 0.0
N352 N 0.0253 0.60095 0.14499 0.0
C353 C 0.04079 0.59317 0.18112 0.0
Co354 Co 0.39572 0.18236 0.12471 0.0
Co355 Co 0.49151 0.32891 0.11105 0.0
O356 O 0.45537 0.26423 0.1426 0.0
C357 C 0.33879 0.281 0.17135 0.0
O358 O 0.35281 0.3457 0.15542 0.0
C359 C 0.59075 0.2643 0.16501 0.0
O360 O 0.56642 0.19256 0.15862 0.0
O361 O 0.51326 0.22899 0.08849 0.0
O362 O 0.43444 0.15067 0.08552 0.0
H363 H 0.53193 0.41067 0.99399 0.0
H364 H 0.45732 0.1796 0.20083 0.0
O365 O 0.35465 0.21102 0.16316 0.0
H366 H 0.49937 0.91501 0.15274 0.0
H367 H 0.25446 0.96085 0.13666 0.0
H368 H 0.32789 0.13439 0.05303 0.0
H369 H 0.43567 0.01433 0.11457 0.0
H370 H 0.33316 0.05972 0.15869 0.0
O371 O 0.56716 0.32577 0.14751 0.0
H372 H 0.48807 0.32754 0.03385 0.0
H373 H 0.5756 0.46702 0.12261 0.0
H374 H 0.24941 0.03602 0.02984 0.0
H375 H 0.52103 0.08164 0.2401 0.0
H376 H 0.21205 0.94853 0.07179 0.0
H377 H 0.54294 0.94862 0.21579 0.0
O378 O 0.34835 0.26398 0.093 0.0
H379 H 0.48258 0.51032 0.21346 0.0
H380 H 0.43052 0.48276 0.08322 0.0
H381 H 0.40384 0.60782 0.11064 0.0
H382 H 0.43026 0.62259 0.17634 0.0
H383 H 0.50508 0.38486 0.18523 0.0
H384 H 0.62121 0.55081 0.08379 0.0
H385 H 0.59892 0.52343 0.01892 0.0
O386 O 0.41693 0.33351 0.0738 0.0
C387 C 0.4815 0.16814 0.07616 0.0
C388 C 0.54179 0.42343 0.02219 0.0
C389 C 0.59193 0.50203 0.07259 0.0
N390 N 0.52861 0.39302 0.08046 0.0
C391 C 0.51689 0.37675 0.04488 0.0
C392 C 0.56611 0.4542 0.09446 0.0
C393 C 0.57942 0.48663 0.0362 0.0
C394 C 0.466 0.12133 0.19033 0.0
N395 N 0.44278 0.10264 0.15551 0.0
C396 C 0.50228 0.06628 0.21261 0.0
C397 C 0.51455 0.99168 0.19901 0.0
C398 C 0.49025 0.97282 0.16356 0.0
C399 C 0.4543 0.02938 0.14206 0.0
C400 C 0.27044 0.99852 0.11811 0.0
C401 C 0.31224 0.09606 0.07144 0.0
C402 C 0.31497 0.05467 0.13043 0.0
N403 N 0.33544 0.10236 0.10716 0.0
C404 C 0.26766 0.04063 0.05816 0.0
C405 C 0.24668 0.99161 0.08171 0.0
C406 C 0.36411 0.31285 0.07156 0.0
C407 C 0.46999 0.50451 0.18495 0.0
C408 C 0.44102 0.488 0.11183 0.0
C409 C 0.42616 0.55922 0.1272 0.0
C410 C 0.44099 0.56749 0.16404 0.0
N411 N 0.46947 0.42655 0.13261 0.0
C412 C 0.48331 0.43376 0.16873 0.0
Co413 Co 0.05631 0.1723 0.86226 0.0
Co414 Co 0.95574 0.30616 0.88182 0.0
O415 O 0.99065 0.24709 0.84806 0.0
C416 C 0.10329 0.28489 0.81682 0.0
O417 O 0.0877 0.3441 0.83535 0.0
C418 C 0.85323 0.22862 0.83416 0.0
O419 O 0.88095 0.15894 0.8396 0.0
O420 O 0.94671 0.2036 0.90767 0.0
O421 O 0.0253 0.13128 0.90265 0.0
H422 H 0.92571 0.37917 0.00241 0.0
H423 H 0.98595 0.17329 0.78811 0.0
O424 O 0.09046 0.21189 0.82254 0.0
H425 H 0.96789 0.89589 0.8318 0.0
H426 H 0.20502 0.97134 0.84003 0.0
H427 H 0.13432 0.12449 0.93111 0.0
H428 H 0.02879 0.99765 0.87026 0.0
H429 H 0.12033 0.06319 0.82287 0.0
O430 O 0.87686 0.29246 0.84947 0.0
H431 H 0.96972 0.30429 0.96004 0.0
H432 H 0.86325 0.43333 0.87385 0.0
H433 H 0.21881 0.0329 0.94945 0.0
H434 H 0.9235 0.07407 0.74906 0.0
H435 H 0.25476 0.95558 0.90374 0.0
H436 H 0.91467 0.93394 0.77072 0.0
O437 O 0.10184 0.25505 0.89449 0.0
H438 H 0.94336 0.48002 0.77374 0.0
H439 H 0.00473 0.47005 0.90451 0.0
H440 H 0.01913 0.59582 0.87315 0.0
H441 H 0.98804 0.60142 0.80727 0.0
H442 H 0.92986 0.35558 0.8061 0.0
H443 H 0.81769 0.50915 0.91526 0.0
H444 H 0.84911 0.48246 0.98007 0.0
O445 O 0.03332 0.32223 0.91496 0.0
C446 C 0.9826 0.1448 0.9169 0.0
C447 C 0.91185 0.39161 0.97424 0.0
C448 C 0.85116 0.46446 0.92533 0.0
N449 N 0.91978 0.36522 0.91456 0.0
C450 C 0.93681 0.34962 0.95014 0.0
C451 C 0.87709 0.42124 0.902 0.0
C452 C 0.86884 0.44952 0.96169 0.0
C453 C 0.9824 0.11237 0.79767 0.0
N454 N 0.01122 0.09111 0.8313 0.0
C455 C 0.94697 0.05646 0.77547 0.0
C456 C 0.94182 0.97797 0.7877 0.0
C457 C 0.97167 0.95659 0.82197 0.0
C458 C 0.00612 0.01443 0.84361 0.0
C459 C 0.18965 0.00451 0.86021 0.0
C460 C 0.14935 0.09055 0.91107 0.0
C461 C 0.14176 0.05665 0.85065 0.0
N462 N 0.12197 0.09848 0.87599 0.0
C463 C 0.19736 0.03897 0.92162 0.0
C464 C 0.21754 0.99568 0.89596 0.0
C465 C 0.08628 0.30427 0.91598 0.0
C466 C 0.95671 0.47853 0.80244 0.0
C467 C 0.99124 0.47197 0.87585 0.0
C468 C 0.9994 0.5434 0.85823 0.0
C469 C 0.98194 0.54654 0.82128 0.0
N470 N 0.96602 0.40571 0.8572 0.0
C471 C 0.94905 0.40827 0.82095 0.0
H472 H 0.06594 0.45686 0.44822 0.0
H473 H 0.90258 0.33078 0.43941 0.0
H474 H 0.89375 0.3889 0.496 0.0
H475 H 0.93375 0.47215 0.5487 0.0
H476 H 0.09758 0.59672 0.55752 0.0
H477 H 0.1056 0.54043 0.50056 0.0
C478 C 0.02803 0.44245 0.45837 0.0
C479 C 0.98491 0.38946 0.43931 0.0
C480 C 0.0239 0.47453 0.49132 0.0
C481 C 0.93639 0.37145 0.4533 0.0
C482 C 0.93148 0.4043 0.48582 0.0
C483 C 0.97149 0.48676 0.53838 0.0
C484 C 0.01536 0.53837 0.55774 0.0
C485 C 0.97535 0.45507 0.50527 0.0
C486 C 0.06356 0.55668 0.54355 0.0
C487 C 0.06791 0.52497 0.51078 0.0
H488 H 0.47339 0.66696 0.46864 0.0
H489 H 0.58446 0.47185 0.44907 0.0
H490 H 0.57745 0.40663 0.50422 0.0
H491 H 0.53893 0.40308 0.55771 0.0
H492 H 0.42286 0.59296 0.57562 0.0
H493 H 0.43468 0.66313 0.52236 0.0
C494 C 0.49572 0.60987 0.47623 0.0
C495 C 0.52918 0.57461 0.45439 0.0
C496 C 0.49162 0.5722 0.50818 0.0
C497 C 0.55811 0.5007 0.46505 0.0
C498 C 0.55449 0.46333 0.49681 0.0
C499 C 0.51655 0.46006 0.55022 0.0
C500 C 0.47988 0.49217 0.57076 0.0
C501 C 0.5215 0.49855 0.51865 0.0
C502 C 0.45149 0.56658 0.56047 0.0
C503 C 0.45777 0.60654 0.52976 0.0
H504 H 0.41946 0.04493 0.03723 0.0
H505 H 0.58048 0.17973 0.05113 0.0
H506 H 0.60582 0.10337 0.00302 0.0
H507 H 0.58266 1.00002 0.957 0.0
H508 H 0.4226 0.86308 0.94251 0.0
H509 H 0.39627 0.93984 0.99064 0.0
C510 C 0.46028 0.05745 0.02992 0.0
C511 C 0.49802 0.11819 0.04804 0.0
C512 C 0.47455 0.01357 0.0019 0.0
C513 C 0.55055 0.13349 0.03788 0.0
C514 C 0.56507 0.08996 0.01023 0.0
C515 C 0.54179 0.98673 0.96411 0.0
C516 C 0.50464 0.92565 0.94589 0.0
C517 C 0.52732 0.03023 0.99199 0.0
C518 C 0.45201 0.90979 0.95584 0.0
C519 C 0.43704 0.95349 0.9835 0.0
H520 H 0.94484 0.97819 0.05635 0.0
H521 H 0.10438 0.85604 0.04978 0.0
H522 H 0.10476 0.93025 0.99507 0.0
H523 H 0.05876 0.0273 0.94884 0.0
H524 H 0.89964 0.14961 0.95617 0.0
H525 H 0.89917 0.07479 0.01052 0.0
C526 C 0.98001 0.96751 0.04319 0.0
C527 C 0.02462 0.91117 0.0574 0.0
C528 C 0.97937 0.00919 0.01153 0.0
C529 C 0.06965 0.89901 0.0397 0.0
C530 C 0.06963 0.94108 0.00826 0.0
C531 C 0.02364 0.03757 0.96208 0.0
C532 C 0.97896 0.09404 0.94807 0.0
C533 C 0.0244 0.99571 0.99379 0.0
C534 C 0.9342 0.10622 0.96597 0.0
C535 C 0.93421 0.06391 0.99725 0.0
H536 H 0.64979 0.14976 0.21016 0.0
H537 H 0.65174 0.40428 0.18414 0.0
H538 H 0.73953 0.4235 0.23126 0.0
H539 H 0.81675 0.36842 0.27912 0.0
H540 H 0.81553 0.11375 0.3049 0.0
H541 H 0.72634 0.09484 0.25879 0.0
C542 C 0.66945 0.20943 0.21472 0.0
C543 C 0.64434 0.27521 0.19345 0.0
C544 C 0.71999 0.22038 0.24192 0.0
C545 C 0.67022 0.35232 0.19995 0.0
C546 C 0.7204 0.3636 0.22696 0.0
C547 C 0.79682 0.30886 0.27481 0.0
C548 C 0.82289 0.24271 0.29542 0.0
C549 C 0.74576 0.29809 0.24803 0.0
C550 C 0.79649 0.16585 0.28939 0.0
C551 C 0.74548 0.15483 0.26297 0.0
H552 H 0.61935 0.20794 0.71522 0.0
H553 H 0.61845 0.46481 0.73708 0.0
H554 H 0.7078 0.44972 0.7837 0.0
H555 H 0.78802 0.36489 0.81632 0.0
H556 H 0.78933 0.10808 0.79431 0.0
H557 H 0.69746 0.12207 0.74961 0.0
C558 C 0.63854 0.26077 0.73017 0.0
C559 C 0.61243 0.33763 0.72236 0.0
C560 C 0.68998 0.2517 0.75682 0.0
C561 C 0.63773 0.4051 0.74231 0.0
C562 C 0.68889 0.39651 0.76897 0.0
C563 C 0.7682 0.3117 0.80192 0.0
C564 C 0.79583 0.2355 0.80856 0.0
C565 C 0.71567 0.32027 0.77615 0.0
C566 C 0.76922 0.16743 0.78968 0.0
C567 C 0.71671 0.17542 0.76408 0.0
H568 H 0.18601 0.79903 0.70713 0.0
H569 H 0.20937 0.53952 0.71112 0.0
H570 H 0.30227 0.55531 0.75499 0.0
H571 H 0.37464 0.64304 0.79392 0.0
H572 H 0.35091 0.90288 0.78908 0.0
H573 H 0.26032 0.88667 0.74368 0.0
C574 C 0.21137 0.74577 0.71752 0.0
C575 C 0.19031 0.6679 0.70626 0.0
C576 C 0.26454 0.75546 0.74269 0.0
C577 C 0.2241 0.59987 0.71986 0.0
C578 C 0.27729 0.60896 0.74482 0.0
C579 C 0.34969 0.6962 0.78294 0.0
C580 C 0.36933 0.77412 0.79524 0.0
C581 C 0.29753 0.68646 0.75679 0.0
C582 C 0.33681 0.84225 0.78029 0.0
C583 C 0.28489 0.83303 0.75434 0.0
H584 H 0.36013 0.62661 0.29133 0.0
H585 H 0.36873 0.87618 0.3258 0.0
H586 H 0.28436 0.90921 0.27776 0.0
H587 H 0.20836 0.86737 0.22549 0.0
H588 H 0.20224 0.61788 0.19067 0.0
H589 H 0.28552 0.58528 0.23898 0.0
C590 C 0.34339 0.68814 0.28853 0.0
C591 C 0.37064 0.74864 0.31229 0.0
C592 C 0.29548 0.70706 0.2605 0.0
C593 C 0.34855 0.82826 0.30796 0.0
C594 C 0.30036 0.84732 0.28041 0.0
C595 C 0.22546 0.80602 0.22833 0.0
C596 C 0.19894 0.74544 0.2043 0.0
C597 C 0.27363 0.7873 0.25637 0.0
C598 C 0.22167 0.66605 0.20859 0.0
C599 C 0.26931 0.64707 0.23636 0.0
H600 H 0.29765 0.15911 0.20633 0.0
H601 H 0.29415 0.41945 0.19405 0.0
H602 H 0.22797 0.43083 0.23386 0.0
H603 H 0.17026 0.36683 0.27182 0.0
H604 H 0.17592 0.10673 0.28508 0.0
H605 H 0.24143 0.09549 0.24495 0.0
C606 C 0.28267 0.21847 0.21242 0.0
C607 C 0.30097 0.28829 0.19705 0.0
C608 C 0.24451 0.22464 0.23533 0.0
C609 C 0.28092 0.36461 0.20539 0.0
C610 C 0.24289 0.3712 0.22813 0.0
C611 C 0.18559 0.30758 0.26586 0.0
C612 C 0.16757 0.23763 0.28131 0.0
C613 C 0.22413 0.30159 0.24313 0.0
C614 C 0.18859 0.16159 0.27348 0.0
C615 C 0.22629 0.15507 0.25057 0.0
H616 H 0.2652 0.41135 0.71939 0.0
H617 H 0.25336 0.16033 0.6869 0.0
H618 H 0.19095 0.13183 0.7277 0.0
H619 H 0.13933 0.17827 0.77242 0.0
H620 H 0.15195 0.42935 0.80506 0.0
H621 H 0.21465 0.45728 0.76469 0.0
C622 C 0.24869 0.3505 0.72105 0.0
C623 C 0.26362 0.28828 0.69986 0.0
C624 C 0.21288 0.33448 0.74459 0.0
C625 C 0.24251 0.20948 0.70279 0.0
C626 C 0.20674 0.1931 0.72611 0.0
C627 C 0.15556 0.23925 0.77059 0.0
C628 C 0.14023 0.30183 0.7915 0.0
C629 C 0.19155 0.25516 0.74709 0.0
C630 C 0.1623 0.3802 0.789 0.0
C631 C 0.1982 0.39635 0.76581 0.0
H632 H 0.73043 0.63582 0.8099 0.0
H633 H 0.72267 0.89643 0.79834 0.0
H634 H 0.78839 0.89012 0.75834 0.0
H635 H 0.84586 0.81088 0.72516 0.0
H636 H 0.85255 0.55017 0.73562 0.0
H637 H 0.79039 0.5566 0.77785 0.0
C638 C 0.74305 0.69124 0.79863 0.0
C639 C 0.72127 0.76638 0.80705 0.0
C640 C 0.78096 0.68733 0.7755 0.0
C641 C 0.7384 0.83761 0.79225 0.0
C642 C 0.77616 0.83419 0.76938 0.0
C643 C 0.83407 0.75546 0.73682 0.0
C644 C 0.8538 0.68021 0.7271 0.0
C645 C 0.79745 0.7594 0.76065 0.0
C646 C 0.83803 0.60902 0.74256 0.0
C647 C 0.80221 0.61254 0.76664 0.0
H648 H 0.81469 0.6275 0.20176 0.0
H649 H 0.89292 0.85441 0.24372 0.0
H650 H 0.82829 0.86136 0.28446 0.0
H651 H 0.74796 0.80508 0.30726 0.0
H652 H 0.6694 0.5782 0.26559 0.0
H653 H 0.73482 0.57042 0.22515 0.0
C654 C 0.81806 0.67797 0.2201 0.0
C655 C 0.85864 0.74025 0.21965 0.0
C656 C 0.78007 0.68232 0.24318 0.0
C657 C 0.86206 0.8056 0.24344 0.0
C658 C 0.82494 0.80986 0.26669 0.0
C659 C 0.74483 0.75411 0.28919 0.0
C660 C 0.70351 0.69267 0.28933 0.0
C661 C 0.78329 0.74911 0.26649 0.0
C662 C 0.70064 0.62655 0.26599 0.0
C663 C 0.73831 0.62169 0.24302 0.0
H664 H 0.24938 0.20865 0.56611 0.0
H665 H 0.37959 0.32062 0.52015 0.0
H666 H 0.32039 0.2944 0.46039 0.0
H667 H 0.2272 0.25339 0.42194 0.0
H668 H 0.09807 0.13613 0.46759 0.0
H669 H 0.16218 0.1476 0.52657 0.0
C670 C 0.2647 0.22621 0.54287 0.0
C671 C 0.31785 0.2672 0.54705 0.0
C672 C 0.23098 0.2096 0.50866 0.0
C673 C 0.33841 0.289 0.51715 0.0
C674 C 0.30469 0.27411 0.4831 0.0
C675 C 0.21351 0.22865 0.44464 0.0
C676 C 0.15719 0.19623 0.44037 0.0
C677 C 0.2503 0.23614 0.47858 0.0
C678 C 0.14075 0.16287 0.47005 0.0
C679 C 0.17722 0.16989 0.50394 0.0
H680 H 0.90402 0.73338 0.52939 0.0
H681 H 0.78771 0.77004 0.59899 0.0
H682 H 0.70579 0.79017 0.5476 0.0
H683 H 0.66591 0.77852 0.48368 0.0
H684 H 0.78 0.72375 0.41438 0.0
H685 H 0.86477 0.73047 0.46488 0.0
C686 C 0.86101 0.74809 0.53322 0.0
C687 C 0.85157 0.75096 0.56769 0.0
C688 C 0.8139 0.75523 0.50365 0.0
C689 C 0.79561 0.76792 0.57254 0.0
C690 C 0.74893 0.77902 0.54324 0.0
C691 C 0.70942 0.76992 0.47947 0.0
C692 C 0.71688 0.75063 0.44547 0.0
C693 C 0.75729 0.77006 0.50874 0.0
C694 C 0.77338 0.73834 0.44044 0.0
C695 C 0.8217 0.74203 0.46926 0.0
H696 H 0.79315 0.71169 0.08218 0.0
H697 H 0.92652 0.66064 0.02529 0.0
H698 H 0.85315 0.65432 0.96967 0.0
H699 H 0.75325 0.68381 0.93613 0.0
H700 H 0.61876 0.72812 0.99253 0.0
H701 H 0.69016 0.7154 0.04935 0.0
C702 C 0.806 0.69758 0.05772 0.0
C703 C 0.8654 0.68895 0.05787 0.0
C704 C 0.76347 0.6936 0.02564 0.0
C705 C 0.88124 0.66891 0.02602 0.0
C706 C 0.83931 0.66559 0.99404 0.0
C707 C 0.73961 0.68889 0.96095 0.0
C708 C 0.68148 0.70794 0.96043 0.0
C709 C 0.78069 0.68109 0.99338 0.0
C710 C 0.66359 0.71339 0.9925 0.0
C711 C 0.7044 0.70674 0.02494 0.0
H712 H 0.24988 0.34401 0.06642 0.0
H713 H 0.38081 0.33338 0.00514 0.0
H714 H 0.30527 0.34101 0.95009 0.0
H715 H 0.20157 0.32774 0.91988 0.0
H716 H 0.071 0.34298 0.9814 0.0
H717 H 0.14672 0.35754 0.03575 0.0
C718 C 0.26173 0.34515 0.04097 0.0
C719 C 0.32032 0.33656 0.03962 0.0
C720 C 0.21819 0.34937 0.0095 0.0
C721 C 0.33572 0.33962 0.00671 0.0
C722 C 0.29258 0.34335 0.97523 0.0
C723 C 0.18982 0.33609 0.94513 0.0
C724 C 0.13104 0.3324 0.94677 0.0
C725 C 0.23359 0.34474 0.97634 0.0
C726 C 0.11604 0.34487 0.97946 0.0
C727 C 0.15932 0.3527 0.01064 0.0
loop_
_geom_bond_atom_site_label_1
_geom_bond_atom_site_label_2
_geom_bond_distance
_geom_bond_site_symmetry_2
_ccdc_geom_bond_type
Co0 O2 2.143 . S
Co0 O8 2.074 . S
Co0 O11 2.093 . S
Co0 O24 2.097 . S
Co0 N41 2.151 . S
Co0 N49 2.214 . S
Co1 O2 2.160 . S
Co1 O7 2.058 1_455 S
Co1 O17 2.057 1_455 S
Co1 O32 2.037 . S
Co1 N36 2.145 1_455 S
Co1 N57 2.257 . S
O2 Co0 2.143 . S
O2 Co1 2.160 . S
C3 O4 1.278 . S
C3 O11 1.224 . S
O4 C3 1.278 . S
C5 O6 1.245 . S
C5 O17 1.232 . S
O6 C5 1.245 . S
O7 Co1 2.058 1_655 S
O7 C33 1.269 1_655 S
O8 Co0 2.074 . S
O8 C33 1.257 . S
H9 C34 0.930 . S
H10 C40 0.930 . S
O11 Co0 2.093 . S
O11 C3 1.224 . S
H12 C44 0.929 . S
H13 C46 0.930 . S
H14 C47 0.930 . S
H15 C45 0.929 . S
H16 C48 0.928 . S
O17 Co1 2.057 1_655 S
O17 C5 1.232 . S
H18 C37 0.929 1_455 S
H19 C38 0.929 . S
H20 C50 0.931 . S
H21 C42 0.929 . S
H22 C51 0.930 . S
H23 C43 0.931 . S
O24 Co0 2.097 . S
O24 C52 1.214 . S
H25 C53 0.929 . S
H26 C54 0.929 . S
H27 C55 0.930 . S
H28 C56 0.929 . S
H29 C58 0.930 1_655 S
H30 C35 0.930 . S
H31 C39 0.930 1_565 S
O32 Co1 2.037 . S
O32 C52 1.234 . S
C33 O7 1.269 1_455 S
C33 O8 1.257 . S
C34 H9 0.930 . S
C34 C37 1.388 . S
C34 C39 1.418 . S
C35 H30 0.930 . S
C35 C38 1.404 . S
C35 C39 1.353 . S
N36 Co1 2.145 1_655 S
N36 C37 1.397 . S
N36 C38 1.334 . S
C37 H18 0.929 1_655 S
C37 C34 1.388 . S
C37 N36 1.397 . S
C38 H19 0.929 . S
C38 C35 1.404 . S
C38 N36 1.334 . S
C39 H31 0.930 1_545 S
C39 C34 1.418 . S
C39 C35 1.353 . S
C40 H10 0.930 . S
C40 N41 1.330 . S
C40 C42 1.446 . S
N41 Co0 2.151 . S
N41 C40 1.330 . S
N41 C45 1.418 . S
C42 H21 0.929 . S
C42 C40 1.446 . S
C42 C43 1.332 . S
C43 H23 0.931 . S
C43 C42 1.332 . S
C43 C44 1.267 . S
C44 H12 0.929 . S
C44 C43 1.267 . S
C44 C45 1.251 . S
C45 H15 0.929 . S
C45 N41 1.418 . S
C45 C44 1.251 . S
C46 H13 0.930 . S
C46 C48 1.406 . S
C46 C51 1.261 . S
C47 H14 0.930 . S
C47 N49 1.325 . S
C47 C50 1.357 . S
C48 H16 0.928 . S
C48 C46 1.406 . S
C48 N49 1.261 . S
N49 Co0 2.214 . S
N49 C47 1.325 . S
N49 C48 1.261 . S
C50 H20 0.931 . S
C50 C47 1.357 . S
C50 C51 1.312 . S
C51 H22 0.930 . S
C51 C46 1.261 . S
C51 C50 1.312 . S
C52 O24 1.214 . S
C52 O32 1.234 . S
C53 H25 0.929 . S
C53 C56 1.391 . S
C53 C58 1.391 1_565 S
C54 H26 0.929 . S
C54 C55 1.390 1_545 S
C54 N57 1.391 . S
C55 H27 0.930 . S
C55 C54 1.390 1_565 S
C55 C56 1.392 . S
C56 H28 0.929 . S
C56 C53 1.391 . S
C56 C55 1.392 . S
N57 Co1 2.257 . S
N57 C54 1.391 . S
N57 C58 1.388 . S
C58 H29 0.930 1_455 S
C58 C53 1.391 1_545 S
C58 N57 1.388 . S
Co59 O61 2.143 . S
Co59 O67 2.074 . S
Co59 O70 2.093 . S
Co59 O83 2.097 . S
Co59 N100 2.151 . S
Co59 N108 2.214 . S
Co60 O61 2.160 . S
Co60 O66 2.058 . S
Co60 O76 2.057 . S
Co60 O91 2.037 . S
Co60 N95 2.145 . S
Co60 N116 2.257 . S
O61 Co59 2.143 . S
O61 Co60 2.160 . S
C62 O63 1.278 . S
C62 O70 1.224 . S
O63 C62 1.278 . S
C64 O65 1.245 . S
C64 O76 1.232 . S
O65 C64 1.245 . S
O66 Co60 2.058 . S
O66 C92 1.269 . S
O67 Co59 2.074 . S
O67 C92 1.257 . S
H68 C93 0.930 . S
H69 C99 0.930 . S
O70 Co59 2.093 . S
O70 C62 1.224 . S
H71 C103 0.929 . S
H72 C105 0.930 . S
H73 C106 0.930 . S
H74 C104 0.929 . S
H75 C107 0.928 . S
O76 Co60 2.057 . S
O76 C64 1.232 . S
H77 C96 0.929 . S
H78 C97 0.929 . S
H79 C109 0.931 . S
H80 C101 0.929 . S
H81 C110 0.930 . S
H82 C102 0.931 . S
O83 Co59 2.097 . S
O83 C111 1.214 . S
H84 C112 0.929 . S
H85 C113 0.929 . S
H86 C114 0.930 . S
H87 C115 0.929 . S
H88 C117 0.930 . S
H89 C94 0.930 . S
H90 C98 0.930 1_565 S
O91 Co60 2.037 . S
O91 C111 1.234 . S
C92 O66 1.269 . S
C92 O67 1.257 . S
C93 H68 0.930 . S
C93 C96 1.388 . S
C93 C98 1.418 . S
C94 H89 0.930 . S
C94 C97 1.404 . S
C94 C98 1.353 . S
N95 Co60 2.145 . S
N95 C96 1.397 . S
N95 C97 1.334 . S
C96 H77 0.929 . S
C96 C93 1.388 . S
C96 N95 1.397 . S
C97 H78 0.929 . S
C97 C94 1.404 . S
C97 N95 1.334 . S
C98 H90 0.930 1_545 S
C98 C93 1.418 . S
C98 C94 1.353 . S
C99 H69 0.930 . S
C99 N100 1.330 . S
C99 C101 1.446 . S
N100 Co59 2.151 . S
N100 C99 1.330 . S
N100 C104 1.418 . S
C101 H80 0.929 . S
C101 C99 1.446 . S
C101 C102 1.332 . S
C102 H82 0.931 . S
C102 C101 1.332 . S
C102 C103 1.267 . S
C103 H71 0.929 . S
C103 C102 1.267 . S
C103 C104 1.251 . S
C104 H74 0.929 . S
C104 N100 1.418 . S
C104 C103 1.251 . S
C105 H72 0.930 . S
C105 C107 1.406 . S
C105 C110 1.261 . S
C106 H73 0.930 . S
C106 N108 1.325 . S
C106 C109 1.357 . S
C107 H75 0.928 . S
C107 C105 1.406 . S
C107 N108 1.261 . S
N108 Co59 2.214 . S
N108 C106 1.325 . S
N108 C107 1.261 . S
C109 H79 0.931 . S
C109 C106 1.357 . S
C109 C110 1.312 . S
C110 H81 0.930 . S
C110 C105 1.261 . S
C110 C109 1.312 . S
C111 O83 1.214 . S
C111 O91 1.234 . S
C112 H84 0.929 . S
C112 C115 1.391 . S
C112 C117 1.391 1_565 S
C113 H85 0.929 . S
C113 C114 1.390 1_545 S
C113 N116 1.391 . S
C114 H86 0.930 . S
C114 C113 1.390 1_565 S
C114 C115 1.392 . S
C115 H87 0.929 . S
C115 C112 1.391 . S
C115 C114 1.392 . S
N116 Co60 2.257 . S
N116 C113 1.391 . S
N116 C117 1.388 . S
C117 H88 0.930 . S
C117 C112 1.391 1_545 S
C117 N116 1.388 . S
Co118 O120 2.143 . S
Co118 O126 2.074 . S
Co118 O129 2.093 . S
Co118 O142 2.097 . S
Co118 N159 2.151 . S
Co118 N167 2.214 . S
Co119 O120 2.160 . S
Co119 O125 2.058 1_655 S
Co119 O135 2.057 1_655 S
Co119 O150 2.037 . S
Co119 N154 2.145 1_655 S
Co119 N175 2.257 . S
O120 Co118 2.143 . S
O120 Co119 2.160 . S
C121 O122 1.278 . S
C121 O129 1.224 . S
O122 C121 1.278 . S
C123 O124 1.245 . S
C123 O135 1.232 . S
O124 C123 1.245 . S
O125 Co119 2.058 1_455 S
O125 C151 1.269 1_455 S
O126 Co118 2.074 . S
O126 C151 1.257 . S
H127 C152 0.930 . S
H128 C158 0.930 . S
O129 Co118 2.093 . S
O129 C121 1.224 . S
H130 C162 0.929 . S
H131 C164 0.930 . S
H132 C165 0.930 . S
H133 C163 0.929 . S
H134 C166 0.928 . S
O135 Co119 2.057 1_455 S
O135 C123 1.232 . S
H136 C155 0.929 1_655 S
H137 C156 0.929 . S
H138 C168 0.931 . S
H139 C160 0.929 . S
H140 C169 0.930 . S
H141 C161 0.931 . S
O142 Co118 2.097 . S
O142 C170 1.214 . S
H143 C171 0.929 . S
H144 C172 0.929 . S
H145 C173 0.930 . S
H146 C174 0.929 . S
H147 C176 0.930 1_455 S
H148 C153 0.930 . S
H149 C157 0.930 1_545 S
O150 Co119 2.037 . S
O150 C170 1.234 . S
C151 O125 1.269 1_655 S
C151 O126 1.257 . S
C152 H127 0.930 . S
C152 C155 1.388 . S
C152 C157 1.418 . S
C153 H148 0.930 . S
C153 C156 1.404 . S
C153 C157 1.353 . S
N154 Co119 2.145 1_455 S
N154 C155 1.397 . S
N154 C156 1.334 . S
C155 H136 0.929 1_455 S
C155 C152 1.388 . S
C155 N154 1.397 . S
C156 H137 0.929 . S
C156 C153 1.404 . S
C156 N154 1.334 . S
C157 H149 0.930 1_565 S
C157 C152 1.418 . S
C157 C153 1.353 . S
C158 H128 0.930 . S
C158 N159 1.330 . S
C158 C160 1.446 . S
N159 Co118 2.151 . S
N159 C158 1.330 . S
N159 C163 1.418 . S
C160 H139 0.929 . S
C160 C158 1.446 . S
C160 C161 1.332 . S
C161 H141 0.931 . S
C161 C160 1.332 . S
C161 C162 1.267 . S
C162 H130 0.929 . S
C162 C161 1.267 . S
C162 C163 1.251 . S
C163 H133 0.929 . S
C163 N159 1.418 . S
C163 C162 1.251 . S
C164 H131 0.930 . S
C164 C166 1.406 . S
C164 C169 1.261 . S
C165 H132 0.930 . S
C165 N167 1.325 . S
C165 C168 1.357 . S
C166 H134 0.928 . S
C166 C164 1.406 . S
C166 N167 1.261 . S
N167 Co118 2.214 . S
N167 C165 1.325 . S
N167 C166 1.261 . S
C168 H138 0.931 . S
C168 C165 1.357 . S
C168 C169 1.312 . S
C169 H140 0.930 . S
C169 C164 1.261 . S
C169 C168 1.312 . S
C170 O142 1.214 . S
C170 O150 1.234 . S
C171 H143 0.929 . S
C171 C174 1.391 . S
C171 C176 1.391 1_545 S
C172 H144 0.929 . S
C172 C173 1.390 1_565 S
C172 N175 1.391 . S
C173 H145 0.930 . S
C173 C172 1.390 1_545 S
C173 C174 1.392 . S
C174 H146 0.929 . S
C174 C171 1.391 . S
C174 C173 1.392 . S
N175 Co119 2.257 . S
N175 C172 1.391 . S
N175 C176 1.388 . S
C176 H147 0.930 1_655 S
C176 C171 1.391 1_565 S
C176 N175 1.388 . S
Co177 O179 2.143 . S
Co177 O185 2.074 . S
Co177 O188 2.093 . S
Co177 O201 2.097 . S
Co177 N218 2.151 . S
Co177 N226 2.214 . S
Co178 O179 2.160 . S
Co178 O184 2.058 . S
Co178 O194 2.057 . S
Co178 O209 2.037 . S
Co178 N213 2.145 . S
Co178 N234 2.257 . S
O179 Co177 2.143 . S
O179 Co178 2.160 . S
C180 O181 1.278 . S
C180 O188 1.224 . S
O181 C180 1.278 . S
C182 O183 1.245 . S
C182 O194 1.232 . S
O183 C182 1.245 . S
O184 Co178 2.058 . S
O184 C210 1.269 . S
O185 Co177 2.074 . S
O185 C210 1.257 . S
H186 C211 0.930 . S
H187 C217 0.930 . S
O188 Co177 2.093 . S
O188 C180 1.224 . S
H189 C221 0.929 . S
H190 C223 0.930 . S
H191 C224 0.930 . S
H192 C222 0.929 . S
H193 C225 0.928 . S
O194 Co178 2.057 . S
O194 C182 1.232 . S
H195 C214 0.929 . S
H196 C215 0.929 . S
H197 C227 0.931 . S
H198 C219 0.929 . S
H199 C228 0.930 . S
H200 C220 0.931 . S
O201 Co177 2.097 . S
O201 C229 1.214 . S
H202 C230 0.929 . S
H203 C231 0.929 . S
H204 C232 0.930 . S
H205 C233 0.929 . S
H206 C235 0.930 . S
H207 C212 0.930 . S
H208 C216 0.930 1_545 S
O209 Co178 2.037 . S
O209 C229 1.234 . S
C210 O184 1.269 . S
C210 O185 1.257 . S
C211 H186 0.930 . S
C211 C214 1.388 . S
C211 C216 1.418 . S
C212 H207 0.930 . S
C212 C215 1.404 . S
C212 C216 1.353 . S
N213 Co178 2.145 . S
N213 C214 1.397 . S
N213 C215 1.334 . S
C214 H195 0.929 . S
C214 C211 1.388 . S
C214 N213 1.397 . S
C215 H196 0.929 . S
C215 C212 1.404 . S
C215 N213 1.334 . S
C216 H208 0.930 1_565 S
C216 C211 1.418 . S
C216 C212 1.353 . S
C217 H187 0.930 . S
C217 N218 1.330 . S
C217 C219 1.446 . S
N218 Co177 2.151 . S
N218 C217 1.330 . S
N218 C222 1.418 . S
C219 H198 0.929 . S
C219 C217 1.446 . S
C219 C220 1.332 . S
C220 H200 0.931 . S
C220 C219 1.332 . S
C220 C221 1.267 . S
C221 H189 0.929 . S
C221 C220 1.267 . S
C221 C222 1.251 . S
C222 H192 0.929 . S
C222 N218 1.418 . S
C222 C221 1.251 . S
C223 H190 0.930 . S
C223 C225 1.406 . S
C223 C228 1.261 . S
C224 H191 0.930 . S
C224 N226 1.325 . S
C224 C227 1.357 . S
C225 H193 0.928 . S
C225 C223 1.406 . S
C225 N226 1.261 . S
N226 Co177 2.214 . S
N226 C224 1.325 . S
N226 C225 1.261 . S
C227 H197 0.931 . S
C227 C224 1.357 . S
C227 C228 1.312 . S
C228 H199 0.930 . S
C228 C223 1.261 . S
C228 C227 1.312 . S
C229 O201 1.214 . S
C229 O209 1.234 . S
C230 H202 0.929 . S
C230 C233 1.391 . S
C230 C235 1.391 1_545 S
C231 H203 0.929 . S
C231 C232 1.390 1_565 S
C231 N234 1.391 . S
C232 H204 0.930 . S
C232 C231 1.390 1_545 S
C232 C233 1.392 . S
C233 H205 0.929 . S
C233 C230 1.391 . S
C233 C232 1.392 . S
N234 Co178 2.257 . S
N234 C231 1.391 . S
N234 C235 1.388 . S
C235 H206 0.930 . S
C235 C230 1.391 1_565 S
C235 N234 1.388 . S
Co236 O238 2.143 . S
Co236 O244 2.074 . S
Co236 O247 2.093 . S
Co236 O260 2.097 . S
Co236 N277 2.151 . S
Co236 N285 2.214 . S
Co237 O238 2.160 . S
Co237 O243 2.058 . S
Co237 O253 2.057 . S
Co237 O268 2.037 . S
Co237 N272 2.145 . S
Co237 N293 2.257 . S
O238 Co236 2.143 . S
O238 Co237 2.160 . S
C239 O240 1.278 . S
C239 O247 1.224 . S
O240 C239 1.278 . S
C241 O242 1.245 . S
C241 O253 1.232 . S
O242 C241 1.245 . S
O243 Co237 2.058 . S
O243 C269 1.269 . S
O244 Co236 2.074 . S
O244 C269 1.257 . S
H245 C270 0.930 1_554 S
H246 C276 0.930 . S
O247 Co236 2.093 . S
O247 C239 1.224 . S
H248 C280 0.929 . S
H249 C282 0.930 . S
H250 C283 0.930 . S
H251 C281 0.929 . S
H252 C284 0.928 . S
O253 Co237 2.057 . S
O253 C241 1.232 . S
H254 C273 0.929 . S
H255 C274 0.929 . S
H256 C286 0.931 . S
H257 C278 0.929 1_565 S
H258 C287 0.930 . S
H259 C279 0.931 . S
O260 Co236 2.097 . S
O260 C288 1.214 . S
H261 C289 0.929 . S
H262 C290 0.929 . S
H263 C291 0.930 . S
H264 C292 0.929 . S
H265 C294 0.930 . S
H266 C271 0.930 . S
H267 C275 0.930 . S
O268 Co237 2.037 . S
O268 C288 1.234 . S
C269 O243 1.269 . S
C269 O244 1.257 . S
C270 H245 0.930 1_556 S
C270 C273 1.388 . S
C270 C275 1.418 . S
C271 H266 0.930 . S
C271 C274 1.404 . S
C271 C275 1.353 . S
N272 Co237 2.145 . S
N272 C273 1.397 . S
N272 C274 1.334 . S
C273 H254 0.929 . S
C273 C270 1.388 . S
C273 N272 1.397 . S
C274 H255 0.929 . S
C274 C271 1.404 . S
C274 N272 1.334 . S
C275 H267 0.930 . S
C275 C270 1.418 . S
C275 C271 1.353 . S
C276 H246 0.930 . S
C276 N277 1.330 . S
C276 C278 1.446 1_565 S
N277 Co236 2.151 . S
N277 C276 1.330 . S
N277 C281 1.418 1_565 S
C278 H257 0.929 1_545 S
C278 C276 1.446 1_545 S
C278 C279 1.332 . S
C279 H259 0.931 . S
C279 C278 1.332 . S
C279 C280 1.267 . S
C280 H248 0.929 . S
C280 C279 1.267 . S
C280 C281 1.251 . S
C281 H251 0.929 . S
C281 N277 1.418 1_545 S
C281 C280 1.251 . S
C282 H249 0.930 . S
C282 C284 1.406 1_545 S
C282 C287 1.261 . S
C283 H250 0.930 . S
C283 N285 1.325 . S
C283 C286 1.357 . S
C284 H252 0.928 . S
C284 C282 1.406 1_565 S
C284 N285 1.261 . S
N285 Co236 2.214 . S
N285 C283 1.325 . S
N285 C284 1.261 . S
C286 H256 0.931 . S
C286 C283 1.357 . S
C286 C287 1.312 1_565 S
C287 H258 0.930 . S
C287 C282 1.261 . S
C287 C286 1.312 1_545 S
C288 O260 1.214 . S
C288 O268 1.234 . S
C289 H261 0.929 . S
C289 C292 1.391 . S
C289 C294 1.391 . S
C290 H262 0.929 . S
C290 C291 1.390 . S
C290 N293 1.391 . S
C291 H263 0.930 . S
C291 C290 1.390 . S
C291 C292 1.392 . S
C292 H264 0.929 . S
C292 C289 1.391 . S
C292 C291 1.392 . S
N293 Co237 2.257 . S
N293 C290 1.391 . S
N293 C294 1.388 . S
C294 H265 0.930 . S
C294 C289 1.391 . S
C294 N293 1.388 . S
Co295 O297 2.143 . S
Co295 O303 2.074 . S
Co295 O306 2.093 . S
Co295 O319 2.097 . S
Co295 N336 2.151 . S
Co295 N344 2.214 . S
Co296 O297 2.160 . S
Co296 O302 2.058 1_655 S
Co296 O312 2.057 1_655 S
Co296 O327 2.037 . S
Co296 N331 2.145 1_655 S
Co296 N352 2.257 . S
O297 Co295 2.143 . S
O297 Co296 2.160 . S
C298 O299 1.278 . S
C298 O306 1.224 . S
O299 C298 1.278 . S
C300 O301 1.245 . S
C300 O312 1.232 . S
O301 C300 1.245 . S
O302 Co296 2.058 1_455 S
O302 C328 1.269 1_455 S
O303 Co295 2.074 . S
O303 C328 1.257 . S
H304 C329 0.930 1_556 S
H305 C335 0.930 . S
O306 Co295 2.093 . S
O306 C298 1.224 . S
H307 C339 0.929 . S
H308 C341 0.930 . S
H309 C342 0.930 . S
H310 C340 0.929 . S
H311 C343 0.928 . S
O312 Co296 2.057 1_455 S
O312 C300 1.232 . S
H313 C332 0.929 1_655 S
H314 C333 0.929 . S
H315 C345 0.931 . S
H316 C337 0.929 1_565 S
H317 C346 0.930 . S
H318 C338 0.931 . S
O319 Co295 2.097 . S
O319 C347 1.214 . S
H320 C348 0.929 . S
H321 C349 0.929 . S
H322 C350 0.930 . S
H323 C351 0.929 . S
H324 C353 0.930 1_455 S
H325 C330 0.930 . S
H326 C334 0.930 . S
O327 Co296 2.037 . S
O327 C347 1.234 . S
C328 O302 1.269 1_655 S
C328 O303 1.257 . S
C329 H304 0.930 1_554 S
C329 C332 1.388 . S
C329 C334 1.418 . S
C330 H325 0.930 . S
C330 C333 1.404 . S
C330 C334 1.353 . S
N331 Co296 2.145 1_455 S
N331 C332 1.397 . S
N331 C333 1.334 . S
C332 H313 0.929 1_455 S
C332 C329 1.388 . S
C332 N331 1.397 . S
C333 H314 0.929 . S
C333 C330 1.404 . S
C333 N331 1.334 . S
C334 H326 0.930 . S
C334 C329 1.418 . S
C334 C330 1.353 . S
C335 H305 0.930 . S
C335 N336 1.330 . S
C335 C337 1.446 1_565 S
N336 Co295 2.151 . S
N336 C335 1.330 . S
N336 C340 1.418 1_565 S
C337 H316 0.929 1_545 S
C337 C335 1.446 1_545 S
C337 C338 1.332 . S
C338 H318 0.931 . S
C338 C337 1.332 . S
C338 C339 1.267 . S
C339 H307 0.929 . S
C339 C338 1.267 . S
C339 C340 1.251 . S
C340 H310 0.929 . S
C340 N336 1.418 1_545 S
C340 C339 1.251 . S
C341 H308 0.930 . S
C341 C343 1.406 1_545 S
C341 C346 1.261 . S
C342 H309 0.930 . S
C342 N344 1.325 . S
C342 C345 1.357 . S
C343 H311 0.928 . S
C343 C341 1.406 1_565 S
C343 N344 1.261 . S
N344 Co295 2.214 . S
N344 C342 1.325 . S
N344 C343 1.261 . S
C345 H315 0.931 . S
C345 C342 1.357 . S
C345 C346 1.312 1_565 S
C346 H317 0.930 . S
C346 C341 1.261 . S
C346 C345 1.312 1_545 S
C347 O319 1.214 . S
C347 O327 1.234 . S
C348 H320 0.929 . S
C348 C351 1.391 . S
C348 C353 1.391 . S
C349 H321 0.929 . S
C349 C350 1.390 . S
C349 N352 1.391 . S
C350 H322 0.930 . S
C350 C349 1.390 . S
C350 C351 1.392 . S
C351 H323 0.929 . S
C351 C348 1.391 . S
C351 C350 1.392 . S
N352 Co296 2.257 . S
N352 C349 1.391 . S
N352 C353 1.388 . S
C353 H324 0.930 1_655 S
C353 C348 1.391 . S
C353 N352 1.388 . S
Co354 O356 2.143 . S
Co354 O362 2.074 . S
Co354 O365 2.093 . S
Co354 O378 2.097 . S
Co354 N395 2.151 . S
Co354 N403 2.214 . S
Co355 O356 2.160 . S
Co355 O361 2.058 . S
Co355 O371 2.057 . S
Co355 O386 2.037 . S
Co355 N390 2.145 . S
Co355 N411 2.257 . S
O356 Co354 2.143 . S
O356 Co355 2.160 . S
C357 O358 1.278 . S
C357 O365 1.224 . S
O358 C357 1.278 . S
C359 O360 1.245 . S
C359 O371 1.232 . S
O360 C359 1.245 . S
O361 Co355 2.058 . S
O361 C387 1.269 . S
O362 Co354 2.074 . S
O362 C387 1.257 . S
H363 C388 0.930 1_556 S
H364 C394 0.930 . S
O365 Co354 2.093 . S
O365 C357 1.224 . S
H366 C398 0.929 . S
H367 C400 0.930 . S
H368 C401 0.930 . S
H369 C399 0.929 . S
H370 C402 0.928 . S
O371 Co355 2.057 . S
O371 C359 1.232 . S
H372 C391 0.929 . S
H373 C392 0.929 . S
H374 C404 0.931 . S
H375 C396 0.929 1_545 S
H376 C405 0.930 . S
H377 C397 0.931 . S
O378 Co354 2.097 . S
O378 C406 1.214 . S
H379 C407 0.929 . S
H380 C408 0.929 . S
H381 C409 0.930 . S
H382 C410 0.929 . S
H383 C412 0.930 . S
H384 C389 0.930 . S
H385 C393 0.930 . S
O386 Co355 2.037 . S
O386 C406 1.234 . S
C387 O361 1.269 . S
C387 O362 1.257 . S
C388 H363 0.930 1_554 S
C388 C391 1.388 . S
C388 C393 1.418 . S
C389 H384 0.930 . S
C389 C392 1.404 . S
C389 C393 1.353 . S
N390 Co355 2.145 . S
N390 C391 1.397 . S
N390 C392 1.334 . S
C391 H372 0.929 . S
C391 C388 1.388 . S
C391 N390 1.397 . S
C392 H373 0.929 . S
C392 C389 1.404 . S
C392 N390 1.334 . S
C393 H385 0.930 . S
C393 C388 1.418 . S
C393 C389 1.353 . S
C394 H364 0.930 . S
C394 N395 1.330 . S
C394 C396 1.446 1_545 S
N395 Co354 2.151 . S
N395 C394 1.330 . S
N395 C399 1.418 1_545 S
C396 H375 0.929 1_565 S
C396 C394 1.446 1_565 S
C396 C397 1.332 . S
C397 H377 0.931 . S
C397 C396 1.332 . S
C397 C398 1.267 . S
C398 H366 0.929 . S
C398 C397 1.267 . S
C398 C399 1.251 . S
C399 H369 0.929 . S
C399 N395 1.418 1_565 S
C399 C398 1.251 . S
C400 H367 0.930 . S
C400 C402 1.406 1_565 S
C400 C405 1.261 . S
C401 H368 0.930 . S
C401 N403 1.325 . S
C401 C404 1.357 . S
C402 H370 0.928 . S
C402 C400 1.406 1_545 S
C402 N403 1.261 . S
N403 Co354 2.214 . S
N403 C401 1.325 . S
N403 C402 1.261 . S
C404 H374 0.931 . S
C404 C401 1.357 . S
C404 C405 1.312 1_545 S
C405 H376 0.930 . S
C405 C400 1.261 . S
C405 C404 1.312 1_565 S
C406 O378 1.214 . S
C406 O386 1.234 . S
C407 H379 0.929 . S
C407 C410 1.391 . S
C407 C412 1.391 . S
C408 H380 0.929 . S
C408 C409 1.390 . S
C408 N411 1.391 . S
C409 H381 0.930 . S
C409 C408 1.390 . S
C409 C410 1.392 . S
C410 H382 0.929 . S
C410 C407 1.391 . S
C410 C409 1.392 . S
N411 Co355 2.257 . S
N411 C408 1.391 . S
N411 C412 1.388 . S
C412 H383 0.930 . S
C412 C407 1.391 . S
C412 N411 1.388 . S
Co413 O415 2.143 . S
Co413 O421 2.074 . S
Co413 O424 2.093 . S
Co413 O437 2.097 . S
Co413 N454 2.151 . S
Co413 N462 2.214 . S
Co414 O415 2.160 . S
Co414 O420 2.058 1_455 S
Co414 O430 2.057 1_455 S
Co414 O445 2.037 . S
Co414 N449 2.145 1_455 S
Co414 N470 2.257 . S
O415 Co413 2.143 . S
O415 Co414 2.160 . S
C416 O417 1.278 . S
C416 O424 1.224 . S
O417 C416 1.278 . S
C418 O419 1.245 . S
C418 O430 1.232 . S
O419 C418 1.245 . S
O420 Co414 2.058 1_655 S
O420 C446 1.269 1_655 S
O421 Co413 2.074 . S
O421 C446 1.257 . S
H422 C447 0.930 1_554 S
H423 C453 0.930 . S
O424 Co413 2.093 . S
O424 C416 1.224 . S
H425 C457 0.929 . S
H426 C459 0.930 . S
H427 C460 0.930 . S
H428 C458 0.929 . S
H429 C461 0.928 . S
O430 Co414 2.057 1_655 S
O430 C418 1.232 . S
H431 C450 0.929 1_455 S
H432 C451 0.929 . S
H433 C463 0.931 . S
H434 C455 0.929 1_545 S
H435 C464 0.930 . S
H436 C456 0.931 . S
O437 Co413 2.097 . S
O437 C465 1.214 . S
H438 C466 0.929 . S
H439 C467 0.929 . S
H440 C468 0.930 . S
H441 C469 0.929 . S
H442 C471 0.930 1_655 S
H443 C448 0.930 . S
H444 C452 0.930 . S
O445 Co414 2.037 . S
O445 C465 1.234 . S
C446 O420 1.269 1_455 S
C446 O421 1.257 . S
C447 H422 0.930 1_556 S
C447 C450 1.388 . S
C447 C452 1.418 . S
C448 H443 0.930 . S
C448 C451 1.404 . S
C448 C452 1.353 . S
N449 Co414 2.145 1_655 S
N449 C450 1.397 . S
N449 C451 1.334 . S
C450 H431 0.929 1_655 S
C450 C447 1.388 . S
C450 N449 1.397 . S
C451 H432 0.929 . S
C451 C448 1.404 . S
C451 N449 1.334 . S
C452 H444 0.930 . S
C452 C447 1.418 . S
C452 C448 1.353 . S
C453 H423 0.930 . S
C453 N454 1.330 . S
C453 C455 1.446 1_545 S
N454 Co413 2.151 . S
N454 C453 1.330 . S
N454 C458 1.418 1_545 S
C455 H434 0.929 1_565 S
C455 C453 1.446 1_565 S
C455 C456 1.332 . S
C456 H436 0.931 . S
C456 C455 1.332 . S
C456 C457 1.267 . S
C457 H425 0.929 . S
C457 C456 1.267 . S
C457 C458 1.251 . S
C458 H428 0.929 . S
C458 N454 1.418 1_565 S
C458 C457 1.251 . S
C459 H426 0.930 . S
C459 C461 1.406 1_565 S
C459 C464 1.261 . S
C460 H427 0.930 . S
C460 N462 1.325 . S
C460 C463 1.357 . S
C461 H429 0.928 . S
C461 C459 1.406 1_545 S
C461 N462 1.261 . S
N462 Co413 2.214 . S
N462 C460 1.325 . S
N462 C461 1.261 . S
C463 H433 0.931 . S
C463 C460 1.357 . S
C463 C464 1.312 1_545 S
C464 H435 0.930 . S
C464 C459 1.261 . S
C464 C463 1.312 1_565 S
C465 O437 1.214 . S
C465 O445 1.234 . S
C466 H438 0.929 . S
C466 C469 1.391 . S
C466 C471 1.391 . S
C467 H439 0.929 . S
C467 C468 1.390 . S
C467 N470 1.391 . S
C468 H440 0.930 . S
C468 C467 1.390 . S
C468 C469 1.392 . S
C469 H441 0.929 . S
C469 C466 1.391 . S
C469 C468 1.392 . S
N470 Co414 2.257 . S
N470 C467 1.391 . S
N470 C471 1.388 . S
C471 H442 0.930 1_455 S
C471 C466 1.391 . S
C471 N470 1.388 . S
H472 C478 0.930 . S
H473 C481 0.930 . S
H474 C482 0.930 . S
H475 C483 0.930 . S
H476 C486 0.930 . S
H477 C487 0.930 . S
C478 H472 0.930 . S
C478 C479 1.355 . S
C478 C480 1.415 . S
C479 C478 1.355 . S
C479 C481 1.419 1_455 S
C480 C478 1.415 . S
C480 C485 1.425 1_455 S
C480 C487 1.409 . S
C481 H473 0.930 . S
C481 C479 1.419 1_655 S
C481 C482 1.362 . S
C482 H474 0.930 . S
C482 C481 1.362 . S
C482 C485 1.409 . S
C483 H475 0.930 . S
C483 C484 1.355 . S
C483 C485 1.415 . S
C484 C483 1.355 . S
C484 C486 1.419 1_655 S
C485 C480 1.425 1_655 S
C485 C482 1.409 . S
C485 C483 1.415 . S
C486 H476 0.930 . S
C486 C484 1.419 1_455 S
C486 C487 1.362 . S
C487 H477 0.930 . S
C487 C480 1.409 . S
C487 C486 1.362 . S
H488 C494 0.930 . S
H489 C497 0.930 . S
H490 C498 0.930 . S
H491 C499 0.930 . S
H492 C502 0.930 . S
H493 C503 0.930 . S
C494 H488 0.930 . S
C494 C495 1.355 . S
C494 C496 1.415 . S
C495 C494 1.355 . S
C495 C497 1.419 . S
C496 C494 1.415 . S
C496 C501 1.425 . S
C496 C503 1.409 . S
C497 H489 0.930 . S
C497 C495 1.419 . S
C497 C498 1.362 . S
C498 H490 0.930 . S
C498 C497 1.362 . S
C498 C501 1.409 . S
C499 H491 0.930 . S
C499 C500 1.355 . S
C499 C501 1.415 . S
C500 C499 1.355 . S
C500 C502 1.419 . S
C501 C496 1.425 . S
C501 C498 1.409 . S
C501 C499 1.415 . S
C502 H492 0.930 . S
C502 C500 1.419 . S
C502 C503 1.362 . S
C503 H493 0.930 . S
C503 C496 1.409 . S
C503 C502 1.362 . S
H504 C510 0.930 1_565 S
H505 C513 0.930 . S
H506 C514 0.930 . S
H507 C515 0.930 1_545 S
H508 C518 0.930 . S
H509 C519 0.930 . S
C510 H504 0.930 1_545 S
C510 C511 1.355 . S
C510 C512 1.415 1_545 S
C511 C510 1.355 . S
C511 C513 1.419 . S
C512 C510 1.415 1_565 S
C512 C517 1.425 1_564 S
C512 C519 1.409 . S
C513 H505 0.930 . S
C513 C511 1.419 . S
C513 C514 1.362 1_554 S
C514 H506 0.930 . S
C514 C513 1.362 1_556 S
C514 C517 1.409 . S
C515 H507 0.930 1_565 S
C515 C516 1.355 . S
C515 C517 1.415 1_565 S
C516 C515 1.355 . S
C516 C518 1.419 . S
C517 C512 1.425 1_546 S
C517 C514 1.409 . S
C517 C515 1.415 1_545 S
C518 H508 0.930 . S
C518 C516 1.419 . S
C518 C519 1.362 1_556 S
C519 H509 0.930 . S
C519 C512 1.409 . S
C519 C518 1.362 1_554 S
H520 C526 0.930 . S
H521 C529 0.930 . S
H522 C530 0.930 . S
H523 C531 0.930 . S
H524 C534 0.930 . S
H525 C535 0.930 . S
C526 H520 0.930 . S
C526 C527 1.355 . S
C526 C528 1.415 1_554 S
C527 C526 1.355 . S
C527 C529 1.419 1_655 S
C528 C526 1.415 1_556 S
C528 C533 1.425 1_666 S
C528 C535 1.409 . S
C529 H521 0.930 . S
C529 C527 1.419 1_455 S
C529 C530 1.362 1_565 S
C530 H522 0.930 . S
C530 C529 1.362 1_545 S
C530 C533 1.409 . S
C531 H523 0.930 . S
C531 C532 1.355 . S
C531 C533 1.415 1_556 S
C532 C531 1.355 . S
C532 C534 1.419 1_455 S
C533 C528 1.425 1_444 S
C533 C530 1.409 . S
C533 C531 1.415 1_554 S
C534 H524 0.930 . S
C534 C532 1.419 1_655 S
C534 C535 1.362 1_545 S
C535 H525 0.930 . S
C535 C528 1.409 . S
C535 C534 1.362 1_565 S
H536 C542 0.930 . S
H537 C545 0.930 . S
H538 C546 0.930 . S
H539 C547 0.930 . S
H540 C550 0.930 . S
H541 C551 0.930 . S
C542 H536 0.930 . S
C542 C543 1.355 . S
C542 C544 1.415 . S
C543 C542 1.355 . S
C543 C545 1.419 . S
C544 C542 1.415 . S
C544 C549 1.425 . S
C544 C551 1.409 . S
C545 H537 0.930 . S
C545 C543 1.419 . S
C545 C546 1.362 . S
C546 H538 0.930 . S
C546 C545 1.362 . S
C546 C549 1.409 . S
C547 H539 0.930 . S
C547 C548 1.355 . S
C547 C549 1.415 . S
C548 C547 1.355 . S
C548 C550 1.419 . S
C549 C544 1.425 . S
C549 C546 1.409 . S
C549 C547 1.415 . S
C550 H540 0.930 . S
C550 C548 1.419 . S
C550 C551 1.362 . S
C551 H541 0.930 . S
C551 C544 1.409 . S
C551 C550 1.362 . S
H552 C558 0.930 . S
H553 C561 0.930 . S
H554 C562 0.930 . S
H555 C563 0.930 . S
H556 C566 0.930 . S
H557 C567 0.930 . S
C558 H552 0.930 . S
C558 C559 1.355 . S
C558 C560 1.415 . S
C559 C558 1.355 . S
C559 C561 1.419 . S
C560 C558 1.415 . S
C560 C565 1.425 . S
C560 C567 1.409 . S
C561 H553 0.930 . S
C561 C559 1.419 . S
C561 C562 1.362 . S
C562 H554 0.930 . S
C562 C561 1.362 . S
C562 C565 1.409 . S
C563 H555 0.930 . S
C563 C564 1.355 . S
C563 C565 1.415 . S
C564 C563 1.355 . S
C564 C566 1.419 . S
C565 C560 1.425 . S
C565 C562 1.409 . S
C565 C563 1.415 . S
C566 H556 0.930 . S
C566 C564 1.419 . S
C566 C567 1.362 . S
C567 H557 0.930 . S
C567 C560 1.409 . S
C567 C566 1.362 . S
H568 C574 0.930 . S
H569 C577 0.930 . S
H570 C578 0.930 . S
H571 C579 0.930 . S
H572 C582 0.930 . S
H573 C583 0.930 . S
C574 H568 0.930 . S
C574 C575 1.355 . S
C574 C576 1.415 . S
C575 C574 1.355 . S
C575 C577 1.419 . S
C576 C574 1.415 . S
C576 C581 1.425 . S
C576 C583 1.409 . S
C577 H569 0.930 . S
C577 C575 1.419 . S
C577 C578 1.362 . S
C578 H570 0.930 . S
C578 C577 1.362 . S
C578 C581 1.409 . S
C579 H571 0.930 . S
C579 C580 1.355 . S
C579 C581 1.415 . S
C580 C579 1.355 . S
C580 C582 1.419 . S
C581 C576 1.425 . S
C581 C578 1.409 . S
C581 C579 1.415 . S
C582 H572 0.930 . S
C582 C580 1.419 . S
C582 C583 1.362 . S
C583 H573 0.930 . S
C583 C576 1.409 . S
C583 C582 1.362 . S
H584 C590 0.930 . S
H585 C593 0.930 . S
H586 C594 0.930 . S
H587 C595 0.930 . S
H588 C598 0.930 . S
H589 C599 0.930 . S
C590 H584 0.930 . S
C590 C591 1.355 . S
C590 C592 1.415 . S
C591 C590 1.355 . S
C591 C593 1.419 . S
C592 C590 1.415 . S
C592 C597 1.425 . S
C592 C599 1.409 . S
C593 H585 0.930 . S
C593 C591 1.419 . S
C593 C594 1.362 . S
C594 H586 0.930 . S
C594 C593 1.362 . S
C594 C597 1.409 . S
C595 H587 0.930 . S
C595 C596 1.355 . S
C595 C597 1.415 . S
C596 C595 1.355 . S
C596 C598 1.419 . S
C597 C592 1.425 . S
C597 C594 1.409 . S
C597 C595 1.415 . S
C598 H588 0.930 . S
C598 C596 1.419 . S
C598 C599 1.362 . S
C599 H589 0.930 . S
C599 C592 1.409 . S
C599 C598 1.362 . S
H600 C606 0.930 . S
H601 C609 0.930 . S
H602 C610 0.930 . S
H603 C611 0.930 . S
H604 C614 0.930 . S
H605 C615 0.930 . S
C606 H600 0.930 . S
C606 C607 1.355 . S
C606 C608 1.415 . S
C607 C606 1.355 . S
C607 C609 1.419 . S
C608 C606 1.415 . S
C608 C613 1.425 . S
C608 C615 1.409 . S
C609 H601 0.930 . S
C609 C607 1.419 . S
C609 C610 1.362 . S
C610 H602 0.930 . S
C610 C609 1.362 . S
C610 C613 1.409 . S
C611 H603 0.930 . S
C611 C612 1.355 . S
C611 C613 1.415 . S
C612 C611 1.355 . S
C612 C614 1.419 . S
C613 C608 1.425 . S
C613 C610 1.409 . S
C613 C611 1.415 . S
C614 H604 0.930 . S
C614 C612 1.419 . S
C614 C615 1.362 . S
C615 H605 0.930 . S
C615 C608 1.409 . S
C615 C614 1.362 . S
H616 C622 0.930 . S
H617 C625 0.930 . S
H618 C626 0.930 . S
H619 C627 0.930 . S
H620 C630 0.930 . S
H621 C631 0.930 . S
C622 H616 0.930 . S
C622 C623 1.355 . S
C622 C624 1.415 . S
C623 C622 1.355 . S
C623 C625 1.419 . S
C624 C622 1.415 . S
C624 C629 1.425 . S
C624 C631 1.409 . S
C625 H617 0.930 . S
C625 C623 1.419 . S
C625 C626 1.362 . S
C626 H618 0.930 . S
C626 C625 1.362 . S
C626 C629 1.409 . S
C627 H619 0.930 . S
C627 C628 1.355 . S
C627 C629 1.415 . S
C628 C627 1.355 . S
C628 C630 1.419 . S
C629 C624 1.425 . S
C629 C626 1.409 . S
C629 C627 1.415 . S
C630 H620 0.930 . S
C630 C628 1.419 . S
C630 C631 1.362 . S
C631 H621 0.930 . S
C631 C624 1.409 . S
C631 C630 1.362 . S
H632 C638 0.930 . S
H633 C641 0.930 . S
H634 C642 0.930 . S
H635 C643 0.930 . S
H636 C646 0.930 . S
H637 C647 0.930 . S
C638 H632 0.930 . S
C638 C639 1.355 . S
C638 C640 1.415 . S
C639 C638 1.355 . S
C639 C641 1.419 . S
C640 C638 1.415 . S
C640 C645 1.425 . S
C640 C647 1.409 . S
C641 H633 0.930 . S
C641 C639 1.419 . S
C641 C642 1.362 . S
C642 H634 0.930 . S
C642 C641 1.362 . S
C642 C645 1.409 . S
C643 H635 0.930 . S
C643 C644 1.355 . S
C643 C645 1.415 . S
C644 C643 1.355 . S
C644 C646 1.419 . S
C645 C640 1.425 . S
C645 C642 1.409 . S
C645 C643 1.415 . S
C646 H636 0.930 . S
C646 C644 1.419 . S
C646 C647 1.362 . S
C647 H637 0.930 . S
C647 C640 1.409 . S
C647 C646 1.362 . S
H648 C654 0.930 . S
H649 C657 0.930 . S
H650 C658 0.930 . S
H651 C659 0.930 . S
H652 C662 0.930 . S
H653 C663 0.930 . S
C654 H648 0.930 . S
C654 C655 1.355 . S
C654 C656 1.415 . S
C655 C654 1.355 . S
C655 C657 1.419 . S
C656 C654 1.415 . S
C656 C661 1.425 . S
C656 C663 1.409 . S
C657 H649 0.930 . S
C657 C655 1.419 . S
C657 C658 1.362 . S
C658 H650 0.930 . S
C658 C657 1.362 . S
C658 C661 1.409 . S
C659 H651 0.930 . S
C659 C660 1.355 . S
C659 C661 1.415 . S
C660 C659 1.355 . S
C660 C662 1.419 . S
C661 C656 1.425 . S
C661 C658 1.409 . S
C661 C659 1.415 . S
C662 H652 0.930 . S
C662 C660 1.419 . S
C662 C663 1.362 . S
C663 H653 0.930 . S
C663 C656 1.409 . S
C663 C662 1.362 . S
H664 C670 0.930 . S
H665 C673 0.930 . S
H666 C674 0.930 . S
H667 C675 0.930 . S
H668 C678 0.930 . S
H669 C679 0.930 . S
C670 H664 0.930 . S
C670 C671 1.355 . S
C670 C672 1.415 . S
C671 C670 1.355 . S
C671 C673 1.419 . S
C672 C670 1.415 . S
C672 C677 1.425 . S
C672 C679 1.409 . S
C673 H665 0.930 . S
C673 C671 1.419 . S
C673 C674 1.362 . S
C674 H666 0.930 . S
C674 C673 1.362 . S
C674 C677 1.409 . S
C675 H667 0.930 . S
C675 C676 1.355 . S
C675 C677 1.415 . S
C676 C675 1.355 . S
C676 C678 1.419 . S
C677 C672 1.425 . S
C677 C674 1.409 . S
C677 C675 1.415 . S
C678 H668 0.930 . S
C678 C676 1.419 . S
C678 C679 1.362 . S
C679 H669 0.930 . S
C679 C672 1.409 . S
C679 C678 1.362 . S
H680 C686 0.930 . S
H681 C689 0.930 . S
H682 C690 0.930 . S
H683 C691 0.930 . S
H684 C694 0.930 . S
H685 C695 0.930 . S
C686 H680 0.930 . S
C686 C687 1.355 . S
C686 C688 1.415 . S
C687 C686 1.355 . S
C687 C689 1.419 . S
C688 C686 1.415 . S
C688 C693 1.425 . S
C688 C695 1.409 . S
C689 H681 0.930 . S
C689 C687 1.419 . S
C689 C690 1.362 . S
C690 H682 0.930 . S
C690 C689 1.362 . S
C690 C693 1.409 . S
C691 H683 0.930 . S
C691 C692 1.355 . S
C691 C693 1.415 . S
C692 C691 1.355 . S
C692 C694 1.419 . S
C693 C688 1.425 . S
C693 C690 1.409 . S
C693 C691 1.415 . S
C694 H684 0.930 . S
C694 C692 1.419 . S
C694 C695 1.362 . S
C695 H685 0.930 . S
C695 C688 1.409 . S
C695 C694 1.362 . S
H696 C702 0.930 . S
H697 C705 0.930 . S
H698 C706 0.930 . S
H699 C707 0.930 . S
H700 C710 0.930 . S
H701 C711 0.930 . S
C702 H696 0.930 . S
C702 C703 1.355 . S
C702 C704 1.415 . S
C703 C702 1.355 . S
C703 C705 1.419 . S
C704 C702 1.415 . S
C704 C709 1.425 1_554 S
C704 C711 1.409 . S
C705 H697 0.930 . S
C705 C703 1.419 . S
C705 C706 1.362 1_554 S
C706 H698 0.930 . S
C706 C705 1.362 1_556 S
C706 C709 1.409 . S
C707 H699 0.930 . S
C707 C708 1.355 . S
C707 C709 1.415 . S
C708 C707 1.355 . S
C708 C710 1.419 . S
C709 C704 1.425 1_556 S
C709 C706 1.409 . S
C709 C707 1.415 . S
C710 H700 0.930 . S
C710 C708 1.419 . S
C710 C711 1.362 1_556 S
C711 H701 0.930 . S
C711 C704 1.409 . S
C711 C710 1.362 1_554 S
H712 C718 0.930 . S
H713 C721 0.930 . S
H714 C722 0.938 . S
H715 C723 0.930 . S
H716 C726 0.930 . S
H717 C727 0.938 . S
C718 H712 0.930 . S
C718 C719 1.355 . S
C718 C720 1.415 . S
C719 C718 1.355 . S
C719 C721 1.419 . S
C720 C718 1.415 . S
C720 C725 1.425 1_554 S
C720 C727 1.410 . S
C721 H713 0.930 . S
C721 C719 1.419 . S
C721 C722 1.353 1_554 S
C722 H714 0.938 . S
C722 C721 1.353 1_556 S
C722 C725 1.410 . S
C723 H715 0.930 . S
C723 C724 1.355 . S
C723 C725 1.415 . S
C724 C723 1.355 . S
C724 C726 1.419 . S
C725 C720 1.425 1_556 S
C725 C722 1.410 . S
C725 C723 1.415 . S
C726 H716 0.930 . S
C726 C724 1.419 . S
C726 C727 1.353 1_556 S
C727 H717 0.938 . S
C727 C720 1.410 . S
C727 C726 1.353 1_554 S
C479 C33 1.507 . S
C484 C151 1.507 . S
C495 C210 1.509 . S
C500 C92 1.509 . S
C511 C387 1.510 . S
C516 C269 1.510 . S
C527 C328 1.538 . S
C532 C446 1.538 . S
C543 C359 1.719 . S
C548 C5 1.719 . S
C559 C64 1.693 . S
C564 C418 1.693 . S
C575 C123 1.692 . S
C580 C241 1.692 . S
C591 C182 1.726 . S
C596 C300 1.726 . S
C607 C357 1.493 . S
C612 C3 1.493 . S
C623 C62 1.496 . S
C628 C416 1.496 . S
C639 C239 1.496 . S
C644 C121 1.496 . S
C655 C298 1.493 . S
C660 C180 1.493 . S
C671 C111 0.863 . S
C676 C52 0.898 . S
C687 C170 0.828 . S
C692 C229 0.872 . S
C703 C347 0.885 . S
C708 C288 0.881 . S
C719 C406 0.833 . S
C724 C465 0.904 . S
