# Generated by pormake.
# Topology wkp, (6)-cn, num edge types: 1
# Building blocks:
#     Node 0, Type 0, BuildingBlock: OJICUG_clean_sbu_0, # of connection points: 6
#     Node 1, Type 0, BuildingBlock: OJICUG_clean_sbu_0, # of connection points: 6
#     Node 2, Type 0, BuildingBlock: OJICUG_clean_sbu_0, # of connection points: 6
#     Node 3, Type 0, BuildingBlock: OJICUG_clean_sbu_0, # of connection points: 6
#     Node 4, Type 0, BuildingBlock: OJICUG_clean_sbu_0, # of connection points: 6
#     Node 5, Type 0, BuildingBlock: OJICUG_clean_sbu_0, # of connection points: 6
#     Node 6, Type 0, BuildingBlock: OJICUG_clean_sbu_0, # of connection points: 6
#     Node 7, Type 0, BuildingBlock: OJICUG_clean_sbu_0, # of connection points: 6
#     Node 8, Type 0, BuildingBlock: OJICUG_clean_sbu_0, # of connection points: 6
#     Node 9, Type 0, BuildingBlock: OJICUG_clean_sbu_0, # of connection points: 6
#     Node 10, Type 0, BuildingBlock: OJICUG_clean_sbu_0, # of connection points: 6
#     Node 11, Type 0, BuildingBlock: OJICUG_clean_sbu_0, # of connection points: 6
#     Edge 12, Type (0, 0), BuildingBlock: XIVTED_clean_linker_0, # of connection points: 2
#     Edge 13, Type (0, 0), BuildingBlock: XIVTED_clean_linker_0, # of connection points: 2
#     Edge 14, Type (0, 0), BuildingBlock: XIVTED_clean_linker_0, # of connection points: 2
#     Edge 15, Type (0, 0), BuildingBlock: XIVTED_clean_linker_0, # of connection points: 2
#     Edge 16, Type (0, 0), BuildingBlock: XIVTED_clean_linker_0, # of connection points: 2
#     Edge 17, Type (0, 0), BuildingBlock: XIVTED_clean_linker_0, # of connection points: 2
#     Edge 18, Type (0, 0), BuildingBlock: XIVTED_clean_linker_0, # of connection points: 2
#     Edge 19, Type (0, 0), BuildingBlock: XIVTED_clean_linker_0, # of connection points: 2
#     Edge 20, Type (0, 0), BuildingBlock: XIVTED_clean_linker_0, # of connection points: 2
#     Edge 21, Type (0, 0), BuildingBlock: XIVTED_clean_linker_0, # of connection points: 2
#     Edge 22, Type (0, 0), BuildingBlock: XIVTED_clean_linker_0, # of connection points: 2
#     Edge 23, Type (0, 0), BuildingBlock: XIVTED_clean_linker_0, # of connection points: 2
#     Edge 24, Type (0, 0), BuildingBlock: XIVTED_clean_linker_0, # of connection points: 2
#     Edge 25, Type (0, 0), BuildingBlock: XIVTED_clean_linker_0, # of connection points: 2
#     Edge 26, Type (0, 0), BuildingBlock: XIVTED_clean_linker_0, # of connection points: 2
#     Edge 27, Type (0, 0), BuildingBlock: XIVTED_clean_linker_0, # of connection points: 2
#     Edge 28, Type (0, 0), BuildingBlock: XIVTED_clean_linker_0, # of connection points: 2
#     Edge 29, Type (0, 0), BuildingBlock: XIVTED_clean_linker_0, # of connection points: 2
#     Edge 30, Type (0, 0), BuildingBlock: XIVTED_clean_linker_0, # of connection points: 2
#     Edge 31, Type (0, 0), BuildingBlock: XIVTED_clean_linker_0, # of connection points: 2
#     Edge 32, Type (0, 0), BuildingBlock: XIVTED_clean_linker_0, # of connection points: 2
#     Edge 33, Type (0, 0), BuildingBlock: XIVTED_clean_linker_0, # of connection points: 2
#     Edge 34, Type (0, 0), BuildingBlock: XIVTED_clean_linker_0, # of connection points: 2
#     Edge 35, Type (0, 0), BuildingBlock: XIVTED_clean_linker_0, # of connection points: 2
#     Edge 36, Type (0, 0), BuildingBlock: XIVTED_clean_linker_0, # of connection points: 2
#     Edge 37, Type (0, 0), BuildingBlock: XIVTED_clean_linker_0, # of connection points: 2
#     Edge 38, Type (0, 0), BuildingBlock: XIVTED_clean_linker_0, # of connection points: 2
#     Edge 39, Type (0, 0), BuildingBlock: XIVTED_clean_linker_0, # of connection points: 2
#     Edge 40, Type (0, 0), BuildingBlock: XIVTED_clean_linker_0, # of connection points: 2
#     Edge 41, Type (0, 0), BuildingBlock: XIVTED_clean_linker_0, # of connection points: 2
#     Edge 42, Type (0, 0), BuildingBlock: XIVTED_clean_linker_0, # of connection points: 2
#     Edge 43, Type (0, 0), BuildingBlock: XIVTED_clean_linker_0, # of connection points: 2
#     Edge 44, Type (0, 0), BuildingBlock: XIVTED_clean_linker_0, # of connection points: 2
#     Edge 45, Type (0, 0), BuildingBlock: XIVTED_clean_linker_0, # of connection points: 2
#     Edge 46, Type (0, 0), BuildingBlock: XIVTED_clean_linker_0, # of connection points: 2
#     Edge 47, Type (0, 0), BuildingBlock: XIVTED_clean_linker_0, # of connection points: 2
# Relax obj value: 0.288
# Max RMSD: 0.309
# Mean RMSD: 0.309
data_MOF--net-wkp--node1-OJICUG_clean_sbu_0--edge1-XIVTED_clean_linker_0
_symmetry_space_group_name_H-M    P1
_symmetry_Int_Tables_number       1
_symmetry_cell_setting            triclinic
loop_
_symmetry_equiv_pos_as_xyz
'x, y, z'
_cell_length_a     43.731814
_cell_length_b     43.621438
_cell_length_c     30.683474
_cell_angle_alpha  90.070883
_cell_angle_beta   89.866749
_cell_angle_gamma 119.91693
loop_
_atom_site_label
_atom_site_type_symbol
_atom_site_fract_x
_atom_site_fract_y
_atom_site_fract_z
_atom_type_partial_charge
Sc0 Sc 0.20872 0.42853 0.00708 0.0
Sc1 Sc 0.20017 0.34555 0.98916 0.0
Sc2 Sc 0.25517 0.39926 0.07119 0.0
O3 O 0.22111 0.39114 0.02267 0.0
C4 C 0.29139 0.47307 0.02579 0.0
C5 C 0.21287 0.40115 0.91385 0.0
C6 C 0.27647 0.36011 -2e-05 0.0
C7 C 0.13512 0.35632 -0.00105 0.0
C8 C 0.21337 0.43661 0.1083 0.0
C9 C 0.20385 0.32003 0.08641 0.0
O10 O 0.26207 0.47072 0.01578 0.0
O11 O 0.20134 0.36994 0.928 0.0
O12 O 0.27846 0.37212 0.03826 0.0
O13 O 0.15423 0.38983 0.99684 0.0
O14 O 0.23683 0.42762 0.11041 0.0
O15 O 0.19805 0.31471 0.04567 0.0
O16 O 0.19617 0.43379 0.07375 0.0
O17 O 0.14776 0.33566 0.00184 0.0
O18 O 0.2182 0.35084 0.10298 0.0
O19 O 0.22049 0.42721 0.93892 0.0
O20 O 0.294 0.44768 0.042 0.0
O21 O 0.25152 0.3539 0.97394 0.0
Sc22 Sc 0.86816 0.27967 0.20535 0.0
Sc23 Sc 0.83974 0.19416 0.16494 0.0
Sc24 Sc 0.77814 0.22266 0.18278 0.0
O25 O 0.82867 0.23209 0.18464 0.0
C26 C 0.80654 0.2621 0.27377 0.0
C27 C 0.89336 0.22798 0.24386 0.0
C28 C 0.76741 0.14824 0.21411 0.0
C29 C 0.90226 0.26377 0.1228 0.0
C30 C 0.82042 0.30314 0.15365 0.0
C31 C 0.78319 0.18816 0.0942 0.0
O32 O 0.83898 0.27795 0.26291 0.0
O33 O 0.87538 0.20236 0.21818 0.0
O34 O 0.75657 0.17006 0.20847 0.0
O35 O 0.90041 0.28515 0.14947 0.0
O36 O 0.79244 0.27341 0.15638 0.0
O37 O 0.80665 0.18167 0.10846 0.0
O38 O 0.84949 0.30915 0.16987 0.0
O39 O 0.88252 0.23047 0.12509 0.0
O40 O 0.77067 0.20384 0.11666 0.0
O41 O 0.89304 0.25687 0.24291 0.0
O42 O 0.78183 0.24141 0.24834 0.0
O43 O 0.79761 0.15405 0.20208 0.0
Sc44 Sc 0.54042 0.77399 0.34952 0.0
Sc45 Sc 0.62741 0.84119 0.33552 0.0
Sc46 Sc 0.57205 0.85438 0.40519 0.0
O47 O 0.57993 0.82304 0.36385 0.0
C48 C 0.50054 0.81823 0.35393 0.0
C49 C 0.57542 0.79808 0.25767 0.0
C50 C 0.61745 0.90692 0.32853 0.0
C51 C 0.60796 0.76401 0.35713 0.0
C52 C 0.52899 0.77798 0.45004 0.0
C53 C 0.64961 0.87822 0.42958 0.0
O54 O 0.50127 0.78982 0.34765 0.0
O55 O 0.60597 0.81478 0.27449 0.0
O56 O 0.6018 0.90085 0.36522 0.0
O57 O 0.5754 0.75259 0.34971 0.0
O58 O 0.54129 0.81128 0.4491 0.0
O59 O 0.65668 0.87274 0.39111 0.0
O60 O 0.52967 0.76042 0.4173 0.0
O61 O 0.63084 0.79678 0.35894 0.0
O62 O 0.6182 0.86667 0.4428 0.0
O63 O 0.54747 0.78409 0.28054 0.0
O64 O 0.52574 0.84556 0.37123 0.0
O65 O 0.6253 0.88554 0.31039 0.0
Sc66 Sc 0.68882 0.56199 0.5497 0.0
Sc67 Sc 0.76952 0.62248 0.50356 0.0
Sc68 Sc 0.74698 0.53399 0.51375 0.0
O69 O 0.735 0.57273 0.52251 0.0
C70 C 0.71257 0.5164 0.60736 0.0
C71 C 0.7365 0.63713 0.58899 0.0
C72 C 0.81929 0.59951 0.54587 0.0
C73 C 0.69855 0.61438 0.47083 0.0
C74 C 0.66539 0.49487 0.49077 0.0
C75 C 0.77649 0.5763 0.42743 0.0
O76 O 0.69204 0.52848 0.59901 0.0
O77 O 0.75649 0.64754 0.55569 0.0
O78 O 0.80146 0.56817 0.53118 0.0
O79 O 0.68134 0.59471 0.50292 0.0
O80 O 0.69451 0.49536 0.49462 0.0
O81 O 0.78686 0.60562 0.44689 0.0
O82 O 0.65988 0.51854 0.50662 0.0
O83 O 0.73078 0.62434 0.46345 0.0
O84 O 0.75811 0.5467 0.44617 0.0
O85 O 0.71347 0.60497 0.59518 0.0
O86 O 0.73585 0.51845 0.58071 0.0
O87 O 0.80937 0.62231 0.54348 0.0
Sc88 Sc 0.19498 0.77083 0.67782 0.0
Sc89 Sc 0.12319 0.7836 0.66121 0.0
Sc90 Sc 0.11643 0.72079 0.73548 0.0
O91 O 0.14519 0.75869 0.6918 0.0
C92 C 0.15364 0.68657 0.68417 0.0
C93 C 0.16879 0.77654 0.5847 0.0
C94 C 0.06046 0.7074 0.6614 0.0
C95 C 0.19869 0.8461 0.68102 0.0
C96 C 0.19346 0.75645 0.77761 0.0
C97 C 0.08929 0.77161 0.75731 0.0
O98 O 0.18161 0.71617 0.67813 0.0
O99 O 0.14941 0.78803 0.60011 0.0
O100 O 0.06812 0.70208 0.69952 0.0
O101 O 0.21253 0.82661 0.67608 0.0
O102 O 0.16073 0.73394 0.77689 0.0
O103 O 0.09152 0.78072 0.71747 0.0
O104 O 0.20972 0.77636 0.7455 0.0
O105 O 0.16548 0.83404 0.68165 0.0
O106 O 0.10505 0.75597 0.77203 0.0
O107 O 0.18497 0.76567 0.60882 0.0
O108 O 0.12574 0.68364 0.70103 0.0
O109 O 0.08083 0.73425 0.63867 0.0
Sc110 Sc 0.40589 0.11988 0.87644 0.0
Sc111 Sc 0.35024 0.14984 0.83824 0.0
Sc112 Sc 0.44026 0.20904 0.84996 0.0
O113 O 0.39879 0.15944 0.85494 0.0
C114 C 0.45318 0.18383 0.94094 0.0
C115 C 0.33242 0.09738 0.91921 0.0
C116 C 0.37926 0.22209 0.88532 0.0
C117 C 0.35135 0.08467 0.7973 0.0
C118 C 0.47451 0.1629 0.82046 0.0
C119 C 0.39966 0.20345 0.76417 0.0
O120 O 0.44031 0.15188 0.92844 0.0
O121 O 0.32308 0.11074 0.88883 0.0
O122 O 0.41004 0.23335 0.86996 0.0
O123 O 0.37143 0.08405 0.82694 0.0
O124 O 0.47631 0.19226 0.82862 0.0
O125 O 0.37002 0.18611 0.78352 0.0
O126 O 0.44889 0.1335 0.83266 0.0
O127 O 0.34328 0.10883 0.79445 0.0
O128 O 0.42876 0.21167 0.7826 0.0
O129 O 0.36331 0.10189 0.92221 0.0
O130 O 0.45343 0.20786 0.91711 0.0
O131 O 0.35459 0.19022 0.88176 0.0
Sc132 Sc 0.55919 0.69216 0.81528 0.0
Sc133 Sc 0.61864 0.775 0.85891 0.0
Sc134 Sc 0.52963 0.75084 0.8448 0.0
O135 O 0.56918 0.73944 0.83937 0.0
C136 C 0.51269 0.71182 0.75362 0.0
C137 C 0.63409 0.74142 0.77443 0.0
C138 C 0.59488 0.82407 0.813 0.0
C139 C 0.61179 0.70441 0.89412 0.0
C140 C 0.49232 0.67031 0.8743 0.0
C141 C 0.571 0.78287 0.93253 0.0
O142 O 0.52628 0.69299 0.76387 0.0
O143 O 0.64411 0.76347 0.80573 0.0
O144 O 0.56237 0.80414 0.82182 0.0
O145 O 0.59109 0.68575 0.86375 0.0
O146 O 0.49261 0.6993 0.86902 0.0
O147 O 0.6005 0.79021 0.91584 0.0
O148 O 0.51545 0.66419 0.85818 0.0
O149 O 0.62238 0.73708 0.89875 0.0
O150 O 0.54212 0.76666 0.91178 0.0
O151 O 0.60271 0.71593 0.77063 0.0
O152 O 0.51336 0.73539 0.77863 0.0
O153 O 0.61845 0.81599 0.82126 0.0
Sc154 Sc 0.77328 0.54687 0.01061 0.0
Sc155 Sc 0.84015 0.63463 0.02395 0.0
Sc156 Sc 0.85499 0.57761 0.95853 0.0
O157 O 0.82273 0.5864 0.99729 0.0
C158 C 0.81674 0.50615 0.0109 0.0
C159 C 0.79581 0.58324 0.10219 0.0
C160 C 0.906 0.62493 0.03528 0.0
C161 C 0.76307 0.6142 0.00021 0.0
C162 C 0.78003 0.53457 0.91083 0.0
C163 C 0.87858 0.65544 0.93056 0.0
O164 O 0.78862 0.50743 0.01611 0.0
O165 O 0.81396 0.6137 0.08522 0.0
O166 O 0.90007 0.60695 0.00044 0.0
O167 O 0.75166 0.58151 0.00698 0.0
O168 O 0.81325 0.54712 0.91293 0.0
O169 O 0.871 0.66313 0.96754 0.0
O170 O 0.76166 0.53516 0.94268 0.0
O171 O 0.79568 0.63733 -7e-05 0.0
O172 O 0.86969 0.62396 0.91968 0.0
O173 O 0.78137 0.55506 0.07969 0.0
O174 O 0.84436 0.53094 0.99352 0.0
O175 O 0.88499 0.63448 0.05032 0.0
Sc176 Sc 0.27964 0.8661 0.13957 0.0
Sc177 Sc 0.19903 0.84257 0.18787 0.0
Sc178 Sc 0.22376 0.77878 0.17193 0.0
O179 O 0.23404 0.82898 0.16621 0.0
C180 C 0.26017 0.79897 0.08 0.0
C181 C 0.22976 0.89038 0.10188 0.0
C182 C 0.14962 0.77022 0.14356 0.0
C183 C 0.26799 0.90751 0.21788 0.0
C184 C 0.30493 0.82413 0.19751 0.0
C185 C 0.19313 0.78753 0.26044 0.0
O186 O 0.28062 0.83092 0.09106 0.0
O187 O 0.21127 0.88139 0.13659 0.0
O188 O 0.16924 0.75754 0.15406 0.0
O189 O 0.28417 0.90659 0.18384 0.0
O190 O 0.2769 0.79488 0.19059 0.0
O191 O 0.18292 0.80729 0.24296 0.0
O192 O 0.30939 0.85368 0.18427 0.0
O193 O 0.23776 0.88259 0.2288 0.0
O194 O 0.21181 0.77726 0.24029 0.0
O195 O 0.2523 0.88087 0.09368 0.0
O196 O 0.23543 0.77691 0.10438 0.0
O197 O 0.15839 0.8025 0.14886 0.0
Sc198 Sc 0.41378 0.21416 0.34656 0.0
Sc199 Sc 0.33133 0.20625 0.36287 0.0
Sc200 Sc 0.39008 0.26905 0.29018 0.0
O201 O 0.37845 0.22968 0.33279 0.0
C202 C 0.46203 0.29786 0.33931 0.0
C203 C 0.38219 0.20978 0.43942 0.0
C204 C 0.35146 0.28532 0.36741 0.0
C205 C 0.34024 0.1417 0.34223 0.0
C206 C 0.42517 0.22735 0.24576 0.0
C207 C 0.31069 0.22161 0.26834 0.0
O208 O 0.4578 0.26723 0.34598 0.0
O209 O 0.3517 0.19907 0.42354 0.0
O210 O 0.36539 0.29179 0.32963 0.0
O211 O 0.37332 0.1592 0.34926 0.0
O212 O 0.41674 0.25136 0.24677 0.0
O213 O 0.30343 0.21122 0.30764 0.0
O214 O 0.42178 0.20785 0.27836 0.0
O215 O 0.32079 0.15566 0.33991 0.0
O216 O 0.34215 0.23818 0.25404 0.0
O217 O 0.40942 0.22022 0.41563 0.0
O218 O 0.43841 0.30304 0.32278 0.0
O219 O 0.34093 0.25607 0.38696 0.0
Sc220 Sc 0.10716 0.41282 0.4806 0.0
Sc221 Sc 0.13921 0.35901 0.5217 0.0
Sc222 Sc 0.19767 0.4497 0.50251 0.0
O223 O 0.14803 0.4071 0.50144 0.0
C224 C 0.16803 0.45918 0.41213 0.0
C225 C 0.08771 0.33801 0.43991 0.0
C226 C 0.21264 0.38826 0.47397 0.0
C227 C 0.07281 0.36022 0.56099 0.0
C228 C 0.15169 0.48389 0.53304 0.0
C229 C 0.19425 0.4121 0.59223 0.0
O230 O 0.13608 0.44335 0.42478 0.0
O231 O 0.10463 0.33069 0.46775 0.0
O232 O 0.22192 0.42062 0.47872 0.0
O233 O 0.07356 0.38251 0.53376 0.0
O234 O 0.1807 0.48458 0.52709 0.0
O235 O 0.17183 0.38152 0.57833 0.0
O236 O 0.12243 0.45904 0.51936 0.0
O237 O 0.09505 0.34966 0.56086 0.0
O238 O 0.20557 0.44001 0.56936 0.0
O239 O 0.08718 0.36685 0.43992 0.0
O240 O 0.19336 0.46278 0.43605 0.0
O241 O 0.1828 0.36305 0.48566 0.0
Sc242 Sc 0.75943 0.19927 0.67917 0.0
Sc243 Sc 0.77371 0.12819 0.69189 0.0
Sc244 Sc 0.70793 0.12064 0.62124 0.0
O245 O 0.74711 0.14945 0.66363 0.0
C246 C 0.67572 0.16065 0.67179 0.0
C247 C 0.76599 0.17177 0.77043 0.0
C248 C 0.69591 0.06586 0.69731 0.0
C249 C 0.83487 0.20409 0.67383 0.0
C250 C 0.74765 0.1979 0.57807 0.0
C251 C 0.75847 0.09205 0.59728 0.0
O252 O 0.70562 0.18764 0.67915 0.0
O253 O 0.77887 0.15414 0.75332 0.0
O254 O 0.68732 0.07335 0.66085 0.0
O255 O 0.81498 0.21707 0.68137 0.0
O256 O 0.72454 0.16512 0.57794 0.0
O257 O 0.77077 0.09683 0.63574 0.0
O258 O 0.76543 0.21411 0.61163 0.0
O259 O 0.82329 0.17103 0.67031 0.0
O260 O 0.73969 0.10492 0.5842 0.0
O261 O 0.7537 0.18752 0.74781 0.0
O262 O 0.67209 0.13272 0.65417 0.0
O263 O 0.72557 0.08527 0.71539 0.0
H264 H 0.21996 0.46995 0.64647 0.0
H265 H 0.21339 0.35574 0.85344 0.0
H266 H 0.19394 0.36063 0.64251 0.0
H267 H 0.22273 0.45876 0.86533 0.0
H268 H 0.21623 0.36197 0.77484 0.0
H269 H 0.23093 0.47091 0.72507 0.0
C270 C 0.21713 0.44637 0.66196 0.0
C271 C 0.20567 0.41503 0.63805 0.0
C272 C 0.21777 0.38334 0.79449 0.0
C273 C 0.21804 0.41597 0.72751 0.0
C274 C 0.21606 0.37978 0.83953 0.0
C275 C 0.21719 0.40653 0.86613 0.0
C276 C 0.22043 0.4138 0.77546 0.0
C277 C 0.22143 0.43734 0.84605 0.0
C278 C 0.22319 0.44689 0.70679 0.0
C279 C 0.20228 0.38522 0.65973 0.0
N280 N 0.22254 0.44001 0.80176 0.0
N281 N 0.20825 0.38641 0.70317 0.0
H282 H 0.79098 0.14207 0.04169 0.0
H283 H 0.74373 0.2085 0.82263 0.0
H284 H 0.75246 0.21598 0.04137 0.0
H285 H 0.78457 0.13651 0.82817 0.0
H286 H 0.74181 0.20848 0.90255 0.0
H287 H 0.78243 0.1354 0.9633 0.0
C288 C 0.78036 0.15665 0.02515 0.0
C289 C 0.77279 0.17991 0.04806 0.0
C290 C 0.75106 0.19264 0.8861 0.0
C291 C 0.76339 0.17281 0.95789 0.0
C292 C 0.75229 0.19274 0.84053 0.0
C293 C 0.76466 0.17276 0.81856 0.0
C294 C 0.76217 0.17235 0.90967 0.0
C295 C 0.77516 0.15263 0.84348 0.0
C296 C 0.77554 0.1529 0.98029 0.0
C297 C 0.75871 0.1978 0.02494 0.0
N298 N 0.77374 0.15304 0.88754 0.0
N299 N 0.75486 0.19422 0.98094 0.0
H300 H 0.62682 0.82576 0.98451 0.0
H301 H 0.51579 0.76483 0.20648 0.0
H302 H 0.51377 0.75688 0.98765 0.0
H303 H 0.62938 0.82824 0.19881 0.0
H304 H 0.51322 0.76466 0.12666 0.0
H305 H 0.62674 0.83133 0.06333 0.0
C306 C 0.60188 0.81206 0.00172 0.0
C307 C 0.5703 0.79054 0.97938 0.0
C308 C 0.53864 0.7786 0.1426 0.0
C309 C 0.57008 0.79645 0.07009 0.0
C310 C 0.54016 0.77861 0.18813 0.0
C311 C 0.57286 0.79639 0.20951 0.0
C312 C 0.57004 0.7966 0.11839 0.0
C313 C 0.60354 0.81397 0.18397 0.0
C314 C 0.60186 0.81516 0.04686 0.0
C315 C 0.53877 0.77371 0.00352 0.0
N316 N 0.60134 0.81359 0.13991 0.0
N317 N 0.53949 0.77673 0.04769 0.0
H318 H 0.81687 0.63389 0.37596 0.0
H319 H 0.76172 0.52365 0.15335 0.0
H320 H 0.75208 0.52006 0.37105 0.0
H321 H 0.82395 0.63761 0.16085 0.0
H322 H 0.75978 0.52111 0.23302 0.0
H323 H 0.82278 0.63494 0.29702 0.0
C324 C 0.80413 0.60905 0.35837 0.0
C325 C 0.78373 0.57686 0.38026 0.0
C326 C 0.77384 0.54664 0.21713 0.0
C327 C 0.79011 0.57793 0.28955 0.0
C328 C 0.77485 0.54812 0.17165 0.0
C329 C 0.79291 0.5809 0.15026 0.0
C330 C 0.79104 0.57813 0.24133 0.0
C331 C 0.80959 0.61172 0.17575 0.0
C332 C 0.80742 0.60969 0.31319 0.0
C333 C 0.76799 0.54553 0.3556 0.0
N334 N 0.80823 0.60954 0.21984 0.0
N335 N 0.7713 0.54688 0.3115 0.0
H336 H 0.20939 0.75663 0.53664 0.0
H337 H 0.14379 0.79276 0.30932 0.0
H338 H 0.13392 0.7925 0.52311 0.0
H339 H 0.2243 0.76326 0.3182 0.0
H340 H 0.136 0.78655 0.38785 0.0
H341 H 0.21235 0.75403 0.45703 0.0
C342 C 0.19348 0.76397 0.51704 0.0
C343 C 0.17156 0.77505 0.53672 0.0
C344 C 0.15524 0.78119 0.37273 0.0
C345 C 0.17461 0.77181 0.4458 0.0
C346 C 0.15966 0.78466 0.32776 0.0
C347 C 0.18501 0.77888 0.30713 0.0
C348 C 0.17646 0.77209 0.39756 0.0
C349 C 0.20449 0.76804 0.33277 0.0
C350 C 0.19512 0.76238 0.47163 0.0
C351 C 0.15141 0.78405 0.50961 0.0
N352 N 0.20008 0.76535 0.37679 0.0
N353 N 0.15348 0.78226 0.46569 0.0
H354 H 0.33037 0.19284 0.50011 0.0
H355 H 0.4553 0.22994 0.70648 0.0
H356 H 0.44196 0.23 0.48872 0.0
H357 H 0.34375 0.19378 0.71421 0.0
H358 H 0.45241 0.23431 0.62728 0.0
H359 H 0.33609 0.19605 0.57886 0.0
C360 C 0.35614 0.20159 0.5141 0.0
C361 C 0.38571 0.21095 0.48752 0.0
C362 C 0.42867 0.22573 0.64641 0.0
C363 C 0.39245 0.21486 0.57837 0.0
C364 C 0.43031 0.2234 0.69169 0.0
C365 C 0.39965 0.2112 0.71716 0.0
C366 C 0.39616 0.21577 0.62648 0.0
C367 C 0.36803 0.20305 0.69604 0.0
C368 C 0.3594 0.20355 0.55925 0.0
C369 C 0.4184 0.22234 0.50784 0.0
N370 N 0.36709 0.20525 0.65201 0.0
N371 N 0.42088 0.22388 0.5521 0.0
H372 H 0.30344 0.3291 0.05177 0.0
H373 H 0.4039 0.29071 0.86264 0.0
H374 H 0.30452 0.36337 0.9196 0.0
H375 H 0.33715 0.21106 0.95577 0.0
H376 H 0.38668 0.33147 0.89488 0.0
H377 H 0.33619 0.3 0.02767 0.0
C378 C 0.31145 0.33129 0.01794 0.0
C379 C 0.30124 0.34832 0.98739 0.0
C380 C 0.37633 0.30522 0.90847 0.0
C381 C 0.3386 0.31576 0.96018 0.0
C382 C 0.38607 0.28208 0.89029 0.0
C383 C 0.37149 0.24753 0.90645 0.0
C384 C 0.35273 0.29385 0.94362 0.0
C385 C 0.3485 0.23741 0.94216 0.0
C386 C 0.32985 0.31459 0.0043 0.0
C387 C 0.31178 0.35017 0.94389 0.0
N388 N 0.33979 0.26058 0.95971 0.0
N389 N 0.32992 0.3339 0.93142 0.0
H390 H 0.94719 0.33302 0.10088 0.0
H391 H 0.08356 0.28642 0.00131 0.0
H392 H 0.92114 0.22621 0.06866 0.0
H393 H 0.09882 0.39226 0.00094 0.0
H394 H 0.02107 0.26328 0.01624 0.0
H395 H -0.0005 0.35522 0.05489 0.0
C396 C 0.95221 0.31425 0.08372 0.0
C397 C 0.93037 0.27774 0.08965 0.0
C398 C 0.038 0.29153 0.01212 0.0
C399 C -0.00985 0.30287 0.03735 0.0
C400 C 0.07373 0.30476 0.00381 0.0
C401 C 0.09663 0.34137 0.00114 0.0
C402 C 0.02535 0.31516 0.0184 0.0
C403 C 0.08231 0.36386 0.00376 0.0
C404 C 0.98198 0.32692 0.05729 0.0
C405 C 0.93769 0.25461 0.06583 0.0
N406 N 0.04767 0.35042 0.0131 0.0
N407 N 0.9674 0.26758 0.04141 0.0
H408 H 0.76939 0.08789 0.20098 0.0
H409 H 0.61992 0.96632 0.36306 0.0
H410 H 0.70899 0.12848 0.26558 0.0
H411 H 0.64527 0.92689 0.24719 0.0
H412 H 0.65285 0.02632 0.33305 0.0
H413 H 0.7267 0.02878 0.22524 0.0
C414 C 0.74726 0.08439 0.22063 0.0
C415 C 0.74271 0.11306 0.23147 0.0
C416 C 0.65051 0.0043 0.31407 0.0
C417 C 0.69361 0.04541 0.25894 0.0
C418 C 0.63178 0.97013 0.33105 0.0
C419 C 0.63066 0.94173 0.30803 0.0
C420 C 0.6683 0.00975 0.27429 0.0
C421 C 0.64619 0.94809 0.26658 0.0
C422 C 0.72267 0.05059 0.23398 0.0
C423 C 0.7133 0.10692 0.25657 0.0
N424 N 0.66491 0.98155 0.25138 0.0
N425 N 0.68982 0.07358 0.26991 0.0
H426 H 0.62886 0.59597 0.46987 0.0
H427 H 0.56646 0.69199 0.36057 0.0
H428 H 0.72937 0.66688 0.40995 0.0
H429 H 0.675 0.77594 0.37018 0.0
H430 H 0.58492 0.6492 0.37777 0.0
H431 H 0.60345 0.62761 0.43364 0.0
C432 C 0.6454 0.61772 0.44837 0.0
C433 C 0.6814 0.62912 0.44346 0.0
C434 C 0.60461 0.67699 0.37647 0.0
C435 C 0.6524 0.66512 0.40135 0.0
C436 C 0.59418 0.70149 0.36637 0.0
C437 C 0.61916 0.73775 0.36486 0.0
C438 C 0.64023 0.6889 0.3853 0.0
C439 C 0.65476 0.74834 0.37178 0.0
C440 C 0.63077 0.63559 0.4273 0.0
C441 C 0.70155 0.65734 0.415 0.0
N442 N 0.66421 0.72398 0.38196 0.0
N443 N 0.68689 0.67483 0.39566 0.0
H444 H 0.03986 0.68819 0.57725 0.0
H445 H 0.84738 0.64041 0.61755 0.0
H446 H 0.00038 0.67423 0.7091 0.0
H447 H 0.86815 0.58244 0.51898 0.0
H448 H 0.90586 0.65995 0.64859 0.0
H449 H 0.97881 0.65492 0.55082 0.0
C450 C 0.01832 0.67768 0.60052 0.0
C451 C 0.02482 0.68388 0.64524 0.0
C452 C 0.89734 0.64263 0.62045 0.0
C453 C 0.95592 0.647 0.61552 0.0
C454 C 0.86432 0.6318 0.60264 0.0
C455 C 0.8534 0.61006 0.56576 0.0
C456 C 0.91967 0.63242 0.60031 0.0
C457 C 0.8759 0.59922 0.54758 0.0
C458 C 0.98375 0.65868 0.58554 0.0
C459 C -0.00372 0.66979 0.67434 0.0
N460 N 0.90848 0.6111 0.56463 0.0
N461 N 0.96285 0.65255 0.65886 0.0
H462 H 0.3014 0.07232 0.73537 0.0
H463 H 0.18149 0.89843 0.68726 0.0
H464 H 0.36108 0.02748 0.79115 0.0
H465 H 0.27041 0.88088 0.68981 0.0
H466 H 0.2211 0.96045 0.70445 0.0
H467 H 0.26576 0.01743 0.69557 0.0
C468 C 0.3072 0.05104 0.73908 0.0
C469 C 0.33368 0.05416 0.76763 0.0
C470 C 0.23214 0.9433 0.70002 0.0
C471 C 0.29238 -0.00893 0.72306 0.0
C472 C 0.2094 0.90771 0.69076 0.0
C473 C 0.22256 0.88431 0.68755 0.0
C474 C 0.26822 0.95546 0.70619 0.0
C475 C 0.259 0.89786 0.69228 0.0
C476 C 0.28654 0.01957 0.71666 0.0
C477 C 0.34046 0.026 0.77029 0.0
N478 N 0.28048 0.93246 0.70201 0.0
N479 N 0.31964 -0.00454 0.74862 0.0
H480 H 0.66313 0.73739 0.95576 0.0
H481 H 0.69301 0.57268 0.98161 0.0
H482 H 0.59588 0.63522 0.89699 0.0
H483 H 0.77361 0.68143 0.003 0.0
H484 H 0.65057 0.59227 0.96744 0.0
H485 H 0.69613 0.71328 0.99165 0.0
C486 C 0.65491 0.70974 0.9509 0.0
C487 C 0.62728 0.6885 0.92237 0.0
C488 C 0.67749 0.61174 0.97557 0.0
C489 C 0.66502 0.661 0.96323 0.0
C490 C 0.70175 0.60066 0.98357 0.0
C491 C 0.73703 0.62557 0.99284 0.0
C492 C 0.68857 0.64791 0.97713 0.0
C493 C 0.74682 0.66141 0.99525 0.0
C494 C 0.67386 0.69608 0.97132 0.0
C495 C 0.61748 0.65274 0.91796 0.0
N496 N 0.7227 0.67154 0.9872 0.0
N497 N 0.63671 0.64019 0.93773 0.0
H498 H 0.92649 0.66088 0.11213 0.0
H499 H 0.12642 0.70714 0.10125 0.0
H500 H 0.96364 0.62029 0.00857 0.0
H501 H 0.09176 0.77746 0.15108 0.0
H502 H 0.06548 0.66559 0.07893 0.0
H503 H -0.01401 0.69262 0.14124 0.0
C504 C 0.94704 0.65826 0.09573 0.0
C505 C 0.94026 0.63859 0.05719 0.0
C506 C 0.07146 0.69016 0.09477 0.0
C507 C 0.00828 0.67489 0.0905 0.0
C508 C 0.10601 0.71379 0.10741 0.0
C509 C 0.11398 0.74577 0.12773 0.0
C510 C 0.04495 0.69843 0.10359 0.0
C511 C 0.08678 0.75327 0.13507 0.0
C512 C 0.98097 0.67649 0.11235 0.0
C513 C 0.96785 0.6356 0.03799 0.0
N514 N 0.05338 0.72962 0.12322 0.0
N515 N 0.00095 0.65401 0.05463 0.0
H516 H 0.3019 0.97274 0.18232 0.0
H517 H 0.35537 0.09457 0.38045 0.0
H518 H 0.26344 0.91819 0.30497 0.0
H519 H 0.29141 0.1044 0.2806 0.0
H520 H 0.33644 0.03426 0.35462 0.0
H521 H 0.31614 0.02831 0.21837 0.0
C522 C 0.29727 0.97265 0.21705 0.0
C523 C 0.28166 0.94112 0.24096 0.0
C524 C 0.3262 0.04959 0.33913 0.0
C525 C 0.29772 0.00399 0.28171 0.0
C526 C 0.33692 0.08373 0.35361 0.0
C527 C 0.32487 0.10414 0.33234 0.0
C528 C 0.30443 0.03676 0.30251 0.0
C529 C 0.30107 0.08927 0.29782 0.0
C530 C 0.30495 0.00412 0.23728 0.0
C531 C 0.2755 0.94217 0.28568 0.0
N532 N 0.29219 0.05657 0.28318 0.0
N533 N 0.28381 0.97342 0.30496 0.0
H534 H 0.26688 0.42416 0.41582 0.0
H535 H 0.33614 0.28857 0.45263 0.0
H536 H 0.21892 0.33268 0.49998 0.0
H537 H 0.34859 0.34049 0.32868 0.0
H538 H 0.31 0.32198 0.48246 0.0
H539 H 0.31123 0.4079 0.39385 0.0
C540 C 0.2658 0.40079 0.42962 0.0
C541 C 0.23902 0.37929 0.45905 0.0
C542 C 0.31899 0.32642 0.44891 0.0
C543 C 0.28973 0.36166 0.4357 0.0
C544 C 0.33388 0.30741 0.43186 0.0
C545 C 0.34344 0.31098 0.38776 0.0
C546 C 0.31349 0.34895 0.42162 0.0
C547 C 0.34088 0.33651 0.36267 0.0
C548 C 0.29103 0.39172 0.41731 0.0
C549 C 0.23872 0.34951 0.47648 0.0
N550 N 0.32539 0.35415 0.37977 0.0
N551 N 0.26377 0.34164 0.4646 0.0
H552 H 0.88848 0.18896 0.6661 0.0
H553 H 0.0234 0.3794 0.57987 0.0
H554 H 0.86782 0.27608 0.66892 0.0
H555 H 0.05332 0.30124 0.61043 0.0
H556 H 0.96803 0.3439 0.61883 0.0
H557 H 0.95048 0.23085 0.65104 0.0
C558 C 0.89699 0.21687 0.66383 0.0
C559 C 0.87283 0.22896 0.668 0.0
C560 C -0.01302 0.33482 0.61762 0.0
C561 C 0.94354 0.27689 0.65089 0.0
C562 C 0.01856 0.35505 0.5953 0.0
C563 C 0.04262 0.34286 0.59104 0.0
C564 C 0.97929 0.30199 0.63511 0.0
C565 C 0.03528 0.31141 0.61232 0.0
C566 C 0.93241 0.24079 0.65555 0.0
C567 C 0.88541 0.26548 0.66541 0.0
N568 N 0.00391 0.29169 0.63275 0.0
N569 N 0.91983 0.2881 0.65643 0.0
H570 H 0.6585 0.88269 0.82467 0.0
H571 H 0.63844 0.00783 0.66174 0.0
H572 H 0.55726 0.84608 0.76344 0.0
H573 H 0.69997 0.04562 0.7798 0.0
H574 H 0.60852 0.94782 0.69235 0.0
H575 H 0.67695 0.94237 0.80001 0.0
C576 C 0.64025 0.88721 0.8057 0.0
C577 C 0.60638 0.85954 0.79589 0.0
C578 C 0.62809 0.96954 0.71165 0.0
C579 C 0.62726 0.92769 0.76789 0.0
C580 C 0.64513 0.00369 0.69434 0.0
C581 C 0.67237 0.03152 0.71785 0.0
C582 C 0.63888 0.96357 0.75221 0.0
C583 C 0.67981 0.02479 0.76004 0.0
C584 C 0.65062 0.9213 0.79213 0.0
C585 C 0.5836 0.8669 0.77165 0.0
N586 N 0.66363 -0.00865 0.77553 0.0
N587 N 0.5946 0.90045 0.75795 0.0
H588 H 0.29796 0.53713 0.00666 0.0
H589 H 0.48843 0.60965 0.90478 0.0
H590 H 0.35836 0.48378 0.01905 0.0
H591 H 0.43394 0.66945 0.90798 0.0
H592 H 0.44272 0.56507 0.95114 0.0
H593 H 0.34971 0.58837 0.9766 0.0
C594 C 0.32225 0.53636 0.00349 0.0
C595 C 0.32374 0.50594 0.01451 0.0
C596 C 0.44088 0.58805 0.94191 0.0
C597 C 0.38283 0.56426 0.97984 0.0
C598 C 0.4668 0.61338 0.91512 0.0
C599 C 0.46471 0.64307 0.90199 0.0
C600 C 0.41255 0.59232 0.95534 0.0
C601 C 0.43642 0.6468 0.91698 0.0
C602 C 0.35179 0.56564 0.98639 0.0
C603 C 0.35599 0.50658 0.01052 0.0
N604 N 0.41125 0.62152 0.94263 0.0
N605 N 0.3842 0.53515 0.99282 0.0
H606 H 0.87415 0.49737 0.02021 0.0
H607 H 0.76233 0.30425 0.12282 0.0
H608 H 0.7611 0.44367 0.0387 0.0
H609 H 0.87601 0.36721 0.12992 0.0
H610 H 0.76128 0.35228 0.08363 0.0
H611 H 0.875 0.44647 0.05169 0.0
C612 C 0.84949 0.47481 0.0306 0.0
C613 C 0.81754 0.47487 0.02719 0.0
C614 C 0.78642 0.35553 0.09379 0.0
C615 C 0.8184 0.41678 0.0632 0.0
C616 C 0.78707 0.32814 0.11614 0.0
C617 C 0.81929 0.33184 0.12995 0.0
C618 C 0.81823 0.38669 0.08502 0.0
C619 C 0.85053 0.36333 0.12024 0.0
C620 C 0.85003 0.44585 0.0487 0.0
C621 C 0.78639 0.44491 0.04112 0.0
N622 N 0.8492 0.3896 0.09835 0.0
N623 N 0.78762 0.41708 0.05866 0.0
H624 H 0.49425 0.87704 0.34172 0.0
H625 H 0.30544 0.76622 0.22997 0.0
H626 H 0.43694 0.76317 0.32936 0.0
H627 H 0.36762 0.88035 0.22485 0.0
H628 H 0.35089 0.76519 0.27397 0.0
H629 H 0.44496 0.87911 0.30735 0.0
C630 C 0.47117 0.85248 0.33225 0.0
C631 C 0.46981 0.8199 0.33788 0.0
C632 C 0.35463 0.79048 0.26324 0.0
C633 C 0.41374 0.82215 0.29854 0.0
C634 C 0.3287 0.79112 0.23798 0.0
C635 C 0.33285 0.82344 0.22336 0.0
C636 C 0.38499 0.82235 0.27401 0.0
C637 C 0.36347 0.85482 0.23512 0.0
C638 C 0.44317 0.85371 0.31248 0.0
C639 C 0.4393 0.7889 0.3251 0.0
N640 N 0.38851 0.85349 0.25974 0.0
N641 N 0.41254 0.79083 0.30578 0.0
H642 H 0.66191 0.43377 0.46213 0.0
H643 H 0.47803 0.36694 0.34162 0.0
H644 H 0.60507 0.49126 0.46053 0.0
H645 H 0.52108 0.29904 0.37082 0.0
H646 H 0.53003 0.41644 0.37394 0.0
H647 H 0.61508 0.38724 0.41861 0.0
C648 C 0.63961 0.43661 0.45267 0.0
C649 C 0.63719 0.46625 0.4653 0.0
C650 C 0.52813 0.39073 0.37302 0.0
C651 C 0.58395 0.41346 0.41534 0.0
C652 C 0.49854 0.36247 0.35442 0.0
C653 C 0.49498 0.32869 0.35411 0.0
C654 C 0.55432 0.38513 0.39126 0.0
C655 C 0.52253 0.32455 0.3709 0.0
C656 C 0.61296 0.4101 0.42781 0.0
C657 C 0.60781 0.46867 0.45196 0.0
N658 N 0.551 0.35246 0.38913 0.0
N659 N 0.58228 0.44255 0.42768 0.0
H660 H 0.20928 0.54356 0.56339 0.0
H661 H 0.09648 0.62017 0.6751 0.0
H662 H 0.0953 0.48999 0.56066 0.0
H663 H 0.20957 0.67992 0.65726 0.0
H664 H 0.09578 0.56893 0.642 0.0
H665 H 0.20981 0.59087 0.6058 0.0
C666 C 0.18433 0.54173 0.57163 0.0
C667 C 0.15218 0.51288 0.55814 0.0
C668 C 0.12073 0.59323 0.6456 0.0
C669 C 0.15268 0.56696 0.6069 0.0
C670 C 0.1212 0.62243 0.66465 0.0
C671 C 0.15311 0.65447 0.66849 0.0
C672 C 0.15238 0.59616 0.63053 0.0
C673 C 0.18432 0.65587 0.65448 0.0
C674 C 0.18468 0.56877 0.59593 0.0
C675 C 0.1207 0.51189 0.57005 0.0
N676 N 0.18313 0.62714 0.63588 0.0
N677 N 0.12175 0.53866 0.59375 0.0
H678 H 0.53593 0.22036 0.79335 0.0
H679 H 0.60797 0.10519 0.67661 0.0
H680 H 0.47828 0.10607 0.78896 0.0
H681 H 0.67133 0.21738 0.70149 0.0
H682 H 0.55719 0.10593 0.70859 0.0
H683 H 0.58312 0.22032 0.75128 0.0
C684 C 0.53316 0.19523 0.78356 0.0
C685 C 0.50322 0.16314 0.79504 0.0
C686 C 0.58219 0.13038 0.70678 0.0
C687 C 0.55713 0.163 0.7467 0.0
C688 C 0.61114 0.13004 0.68838 0.0
C689 C 0.64404 0.16121 0.68684 0.0
C690 C 0.58621 0.16212 0.72353 0.0
C691 C 0.64659 0.19264 0.70246 0.0
C692 C 0.56012 0.19526 0.75948 0.0
C693 C 0.50103 0.13143 0.78119 0.0
N694 N 0.61806 0.19224 0.7204 0.0
N695 N 0.52773 0.13216 0.75779 0.0
H696 H 0.20705 0.26233 0.05836 0.0
H697 H 0.24993 0.21914 0.29501 0.0
H698 H 0.19928 0.31295 0.17553 0.0
H699 H 0.30763 0.22255 0.17904 0.0
H700 H 0.21096 0.23145 0.25043 0.0
H701 H 0.22262 0.22563 0.10262 0.0
C702 C 0.2073 0.26487 0.0935 0.0
C703 C 0.20231 0.29115 0.11328 0.0
C704 C 0.2316 0.22857 0.23475 0.0
C705 C 0.22005 0.24913 0.16381 0.0
C706 C 0.25375 0.22134 0.26002 0.0
C707 C 0.28238 0.22026 0.24071 0.0
C708 C 0.23772 0.23404 0.18984 0.0
C709 C 0.28614 0.22358 0.19527 0.0
C710 C 0.21648 0.24408 0.11861 0.0
C711 C 0.2033 0.29332 0.15895 0.0
N712 N 0.26424 0.23063 0.17136 0.0
N713 N 0.21248 0.27286 0.1827 0.0
H714 H 0.04051 0.26837 0.45532 0.0
H715 H 0.8894 0.21099 0.33011 0.0
H716 H 0.08139 0.347 0.35362 0.0
H717 H 0.95951 0.24716 0.21955 0.0
H718 H 0.9402 0.22723 0.37799 0.0
H719 H -0.00759 0.2285 0.40637 0.0
C720 C 0.03992 0.27674 0.42225 0.0
C721 C 0.0646 0.31097 0.40836 0.0
C722 C 0.94432 0.23023 0.34309 0.0
C723 C 0.00999 0.26611 0.35291 0.0
C724 C 0.91536 0.22098 0.3159 0.0
C725 C 0.92053 0.22738 0.27106 0.0
C726 C 0.9785 0.24688 0.32513 0.0
C727 C 0.95465 0.24141 0.25403 0.0
C728 C 0.01233 0.25423 0.39464 0.0
C729 C 0.06262 0.32085 0.36551 0.0
N730 N 0.98251 0.25153 0.28121 0.0
N731 N 0.03565 0.29857 0.33932 0.0
H732 H 0.75515 0.08555 0.50819 0.0
H733 H 0.65363 0.88469 0.51862 0.0
H734 H 0.76081 0.03407 0.62542 0.0
H735 H 0.70999 0.93542 0.40062 0.0
H736 H 0.69327 0.9384 0.55937 0.0
H737 H 0.73999 0.03157 0.46711 0.0
C738 C 0.7542 0.06327 0.52502 0.0
C739 C 0.75908 0.06425 0.57027 0.0
C740 C 0.69755 0.93734 0.52475 0.0
C741 C 0.74062 0.00226 0.52393 0.0
C742 C 0.67497 0.90672 0.50154 0.0
C743 C 0.67845 0.90564 0.4562 0.0
C744 C 0.72289 0.96736 0.50218 0.0
C745 C 0.70645 0.93506 0.43559 0.0
C746 C 0.74556 0.03251 0.50162 0.0
C747 C 0.75736 0.03453 0.59054 0.0
N748 N 0.72698 0.96512 0.45852 0.0
N749 N 0.74727 0.00437 0.56746 0.0
H750 H 0.7397 0.69846 0.56451 0.0
H751 H 0.69564 0.74542 0.7982 0.0
H752 H 0.72856 0.63502 0.67757 0.0
H753 H 0.63161 0.73386 0.68596 0.0
H754 H 0.73152 0.72866 0.75303 0.0
H755 H 0.72374 0.73508 0.60939 0.0
C756 C 0.73516 0.69305 0.59909 0.0
C757 C 0.73536 0.66372 0.61753 0.0
C758 C 0.71029 0.73095 0.73819 0.0
C759 C 0.71778 0.70559 0.66861 0.0
C760 C 0.69007 0.74076 0.76367 0.0
C761 C 0.66079 0.74105 0.74554 0.0
C762 C 0.70164 0.72242 0.69421 0.0
C763 C 0.65406 0.73398 0.70095 0.0
C764 C 0.72587 0.71376 0.62444 0.0
C765 C 0.7286 0.65739 0.66227 0.0
N766 N 0.67432 0.72481 0.6767 0.0
N767 N 0.71996 0.67815 0.68638 0.0
H768 H 0.08546 0.77397 0.84643 0.0
H769 H 0.92905 0.72157 0.95618 0.0
H770 H 0.02711 0.76455 0.72917 0.0
H771 H 0.88912 0.65487 0.84243 0.0
H772 H 0.98181 0.76236 0.91483 0.0
H773 H 0.03185 0.75647 0.88917 0.0
C774 C 0.06169 0.76936 0.82985 0.0
C775 C 0.06078 0.77077 0.78423 0.0
C776 C 0.96112 0.73913 0.89881 0.0
C777 C -0.0007 0.75003 0.83265 0.0
C778 C 0.9308 0.71603 0.92213 0.0
C779 C 0.90483 0.68446 0.90286 0.0
C780 C 0.9652 0.73082 0.85581 0.0
C781 C 0.90869 0.67865 0.85869 0.0
C782 C 0.03113 0.75948 0.85422 0.0
C783 C 0.02911 0.7641 0.7643 0.0
N784 N 0.93851 0.70148 0.83672 0.0
N785 N -0.00064 0.75298 0.78853 0.0
H786 H 0.2702 0.04066 0.89532 0.0
H787 H 0.22923 0.94936 0.12894 0.0
H788 H 0.33486 0.09216 0.00751 0.0
H789 H 0.2341 0.89592 0.01303 0.0
H790 H 0.24479 0.0022 0.08502 0.0
H791 H 0.23375 0.98811 0.94029 0.0
C792 C 0.27579 0.04139 0.92981 0.0
C793 C 0.3054 0.07061 0.94798 0.0
C794 C 0.24134 0.97848 0.06918 0.0
C795 C 0.26397 0.01125 -0.00091 0.0
C796 C 0.23226 0.94832 0.094 0.0
C797 C 0.23043 0.91836 0.0744 0.0
C798 C 0.24767 0.97819 0.02444 0.0
C799 C 0.23534 0.91858 0.02921 0.0
C800 C 0.25525 0.01141 0.95519 0.0
C801 C 0.31215 0.07007 0.99251 0.0
N802 N 0.24389 0.94818 0.00566 0.0
N803 N 0.29162 0.04071 0.01663 0.0
H804 H 0.23231 0.49882 0.37258 0.0
H805 H 0.15124 0.43176 0.13635 0.0
H806 H 0.12045 0.44318 0.34581 0.0
H807 H 0.26071 0.47472 0.1708 0.0
H808 H 0.14045 0.44917 0.20849 0.0
H809 H 0.2439 0.50462 0.29449 0.0
C810 C 0.21017 0.48833 0.35033 0.0
C811 C 0.17537 0.46971 0.36583 0.0
C812 C 0.16692 0.45527 0.19986 0.0
C813 C 0.18846 0.47575 0.27631 0.0
C814 C 0.17305 0.44539 0.15879 0.0
C815 C 0.2067 0.45111 0.14821 0.0
C816 C 0.19477 0.47117 0.23 0.0
C817 C 0.23416 0.46904 0.17817 0.0
C818 C 0.21679 0.4916 0.30568 0.0
C819 C 0.14774 0.45726 0.33537 0.0
N820 N 0.22752 0.4781 0.2178 0.0
N821 N 0.15487 0.45987 0.292 0.0
H822 H 0.80859 0.25721 0.55272 0.0
H823 H 0.74067 0.23799 0.30807 0.0
H824 H 0.7034 0.18254 0.50904 0.0
H825 H 0.85093 0.29209 0.34359 0.0
H826 H 0.72503 0.232 0.385 0.0
H827 H 0.82232 0.28349 0.47967 0.0
C828 C 0.78822 0.24677 0.528 0.0
C829 C 0.75502 0.21726 0.53657 0.0
C830 C 0.75266 0.24563 0.37593 0.0
C831 C 0.77043 0.24719 0.45354 0.0
C832 C 0.76165 0.24909 0.33198 0.0
C833 C 0.79717 0.26476 0.31935 0.0
C834 C 0.77933 0.25772 0.40751 0.0
C835 C 0.82317 0.2793 0.35184 0.0
C836 C 0.7961 0.26172 0.4864 0.0
C837 C 0.72955 0.20482 0.50352 0.0
N838 N 0.81371 0.27487 0.39457 0.0
N839 N 0.73789 0.21967 0.46336 0.0
H840 H 0.51203 0.66902 0.68769 0.0
H841 H 0.50866 0.70916 0.47139 0.0
H842 H 0.48455 0.74929 0.71633 0.0
H843 H 0.51535 0.80434 0.5236 0.0
H844 H 0.49057 0.68171 0.54305 0.0
H845 H 0.50463 0.67565 0.61074 0.0
C846 C 0.50349 0.6874 0.67789 0.0
C847 C 0.49984 0.70932 0.70854 0.0
C848 C 0.4962 0.70865 0.539 0.0
C849 C 0.49079 0.71682 0.61996 0.0
C850 C 0.50628 0.72426 0.49789 0.0
C851 C 0.51453 0.75947 0.49175 0.0
C852 C 0.49469 0.72858 0.57415 0.0
C853 C 0.51018 0.77747 0.52699 0.0
C854 C 0.49901 0.69105 0.63363 0.0
C855 C 0.48837 0.73234 0.69386 0.0
N856 N 0.50094 0.76194 0.5667 0.0
N857 N 0.48497 0.73598 0.65055 0.0
H858 H 0.71439 0.52054 0.88435 0.0
H859 H 0.75274 0.48951 0.63962 0.0
H860 H 0.80547 0.51447 0.84183 0.0
H861 H 0.6722 0.51431 0.67711 0.0
H862 H 0.76163 0.48157 0.71617 0.0
H863 H 0.68915 0.50248 0.81145 0.0
C864 C 0.72887 0.51497 0.8599 0.0
C865 C 0.76245 0.51979 0.86885 0.0
C866 C 0.74162 0.4882 0.70757 0.0
C867 C 0.73369 0.49902 0.78575 0.0
C868 C 0.73645 0.49268 0.66382 0.0
C869 C 0.7124 0.50362 0.65195 0.0
C870 C 0.72276 0.49491 0.73964 0.0
C871 C 0.69159 0.50662 0.68477 0.0
C872 C 0.71443 0.50465 0.81835 0.0
C873 C 0.77986 0.51187 0.83609 0.0
N874 N 0.69773 0.50297 0.72725 0.0
N875 N 0.76544 0.50224 0.79586 0.0
H876 H 0.17699 0.70498 0.83772 0.0
H877 H 0.30357 0.84083 0.01438 0.0
H878 H 0.25381 0.81362 0.80911 0.0
H879 H 0.22149 0.73381 0.04195 0.0
H880 H 0.29662 0.82706 0.9368 0.0
H881 H 0.20357 0.71115 0.90901 0.0
C882 C 0.19967 0.73014 0.84642 0.0
C883 C 0.21269 0.75916 0.81803 0.0
C884 C 0.28063 0.80642 0.95989 0.0
C885 C 0.24312 0.76647 0.89981 0.0
C886 C 0.28459 0.8142 0.00427 0.0
C887 C 0.2623 0.7887 0.03471 0.0
C888 C 0.25418 0.77298 0.94594 0.0
C889 C 0.23867 0.75455 0.01965 0.0
C890 C 0.21495 0.73359 0.88707 0.0
C891 C 0.24269 0.79078 0.83039 0.0
N892 N 0.23479 0.74788 0.97625 0.0
N893 N 0.25654 0.79384 0.87085 0.0
H894 H 0.44459 0.13772 0.00698 0.0
H895 H 0.46054 0.27713 0.18397 0.0
H896 H 0.48397 0.24854 0.9811 0.0
H897 H 0.42358 0.16749 0.21394 0.0
H898 H 0.47938 0.26881 0.11257 0.0
H899 H 0.44771 0.14987 0.08495 0.0
C900 C 0.45468 0.16476 0.01759 0.0
C901 C 0.46324 0.19205 0.98729 0.0
C902 C 0.46748 0.24656 0.13476 0.0
C903 C 0.46646 0.20594 0.07657 0.0
C904 C 0.45651 0.25125 0.17551 0.0
C905 C 0.43978 0.22274 0.20452 0.0
C906 C 0.46118 0.21292 0.12243 0.0
C907 C 0.43605 0.19005 0.19229 0.0
C908 C 0.4563 0.17162 0.06222 0.0
C909 C 0.47642 0.22654 0.00314 0.0
N910 N 0.44611 0.18584 0.15174 0.0
N911 N 0.47706 0.23238 0.04664 0.0
loop_
_geom_bond_atom_site_label_1
_geom_bond_atom_site_label_2
_geom_bond_distance
_geom_bond_site_symmetry_2
_ccdc_geom_bond_type
Sc0 O3 2.025 . S
Sc0 O10 2.105 1_554 S
Sc0 O13 2.105 . S
Sc0 O16 2.105 . S
Sc0 O19 2.105 1_554 S
Sc1 O3 2.025 1_556 S
Sc1 O11 2.105 . S
Sc1 O15 2.105 1_556 S
Sc1 O17 2.105 1_556 S
Sc1 O21 2.105 . S
Sc2 O3 2.025 . S
Sc2 O12 2.105 1_554 S
Sc2 O14 2.105 . S
Sc2 O18 2.105 . S
Sc2 O20 2.105 . S
O3 Sc0 2.025 . S
O3 Sc1 2.025 1_554 S
O3 Sc2 2.025 . S
C4 O10 1.268 . S
C4 O20 1.268 1_556 S
C5 O11 1.268 . S
C5 O19 1.268 . S
C6 O12 1.268 . S
C6 O21 1.268 . S
C7 O13 1.268 . S
C7 O17 1.268 . S
C8 O14 1.268 . S
C8 O16 1.268 . S
C9 O15 1.268 . S
C9 O18 1.268 . S
O10 Sc0 2.105 1_556 S
O10 C4 1.268 . S
O11 Sc1 2.105 . S
O11 C5 1.268 . S
O12 Sc2 2.105 1_556 S
O12 C6 1.268 . S
O13 Sc0 2.105 . S
O13 C7 1.268 . S
O14 Sc2 2.105 . S
O14 C8 1.268 . S
O15 Sc1 2.105 1_554 S
O15 C9 1.268 . S
O16 Sc0 2.105 . S
O16 C8 1.268 . S
O17 Sc1 2.105 1_554 S
O17 C7 1.268 . S
O18 Sc2 2.105 . S
O18 C9 1.268 . S
O19 Sc0 2.105 1_556 S
O19 C5 1.268 . S
O20 Sc2 2.105 . S
O20 C4 1.268 1_554 S
O21 Sc1 2.105 . S
O21 C6 1.268 . S
Sc22 O25 2.025 . S
Sc22 O32 2.105 . S
Sc22 O35 2.105 . S
Sc22 O38 2.105 . S
Sc22 O41 2.105 . S
Sc23 O25 2.025 . S
Sc23 O33 2.105 . S
Sc23 O37 2.105 . S
Sc23 O39 2.105 . S
Sc23 O43 2.105 . S
Sc24 O25 2.025 . S
Sc24 O34 2.105 . S
Sc24 O36 2.105 . S
Sc24 O40 2.105 . S
Sc24 O42 2.105 . S
O25 Sc22 2.025 . S
O25 Sc23 2.025 . S
O25 Sc24 2.025 . S
C26 O32 1.268 . S
C26 O42 1.268 . S
C27 O33 1.268 . S
C27 O41 1.268 . S
C28 O34 1.268 . S
C28 O43 1.268 . S
C29 O35 1.268 . S
C29 O39 1.268 . S
C30 O36 1.268 . S
C30 O38 1.268 . S
C31 O37 1.268 . S
C31 O40 1.268 . S
O32 Sc22 2.105 . S
O32 C26 1.268 . S
O33 Sc23 2.105 . S
O33 C27 1.268 . S
O34 Sc24 2.105 . S
O34 C28 1.268 . S
O35 Sc22 2.105 . S
O35 C29 1.268 . S
O36 Sc24 2.105 . S
O36 C30 1.268 . S
O37 Sc23 2.105 . S
O37 C31 1.268 . S
O38 Sc22 2.105 . S
O38 C30 1.268 . S
O39 Sc23 2.105 . S
O39 C29 1.268 . S
O40 Sc24 2.105 . S
O40 C31 1.268 . S
O41 Sc22 2.105 . S
O41 C27 1.268 . S
O42 Sc24 2.105 . S
O42 C26 1.268 . S
O43 Sc23 2.105 . S
O43 C28 1.268 . S
Sc44 O47 2.025 . S
Sc44 O54 2.105 . S
Sc44 O57 2.105 . S
Sc44 O60 2.105 . S
Sc44 O63 2.105 . S
Sc45 O47 2.025 . S
Sc45 O55 2.105 . S
Sc45 O59 2.105 . S
Sc45 O61 2.105 . S
Sc45 O65 2.105 . S
Sc46 O47 2.025 . S
Sc46 O56 2.105 . S
Sc46 O58 2.105 . S
Sc46 O62 2.105 . S
Sc46 O64 2.105 . S
O47 Sc44 2.025 . S
O47 Sc45 2.025 . S
O47 Sc46 2.025 . S
C48 O54 1.268 . S
C48 O64 1.268 . S
C49 O55 1.268 . S
C49 O63 1.268 . S
C50 O56 1.268 . S
C50 O65 1.268 . S
C51 O57 1.268 . S
C51 O61 1.268 . S
C52 O58 1.268 . S
C52 O60 1.268 . S
C53 O59 1.268 . S
C53 O62 1.268 . S
O54 Sc44 2.105 . S
O54 C48 1.268 . S
O55 Sc45 2.105 . S
O55 C49 1.268 . S
O56 Sc46 2.105 . S
O56 C50 1.268 . S
O57 Sc44 2.105 . S
O57 C51 1.268 . S
O58 Sc46 2.105 . S
O58 C52 1.268 . S
O59 Sc45 2.105 . S
O59 C53 1.268 . S
O60 Sc44 2.105 . S
O60 C52 1.268 . S
O61 Sc45 2.105 . S
O61 C51 1.268 . S
O62 Sc46 2.105 . S
O62 C53 1.268 . S
O63 Sc44 2.105 . S
O63 C49 1.268 . S
O64 Sc46 2.105 . S
O64 C48 1.268 . S
O65 Sc45 2.105 . S
O65 C50 1.268 . S
Sc66 O69 2.025 . S
Sc66 O76 2.105 . S
Sc66 O79 2.105 . S
Sc66 O82 2.105 . S
Sc66 O85 2.105 . S
Sc67 O69 2.025 . S
Sc67 O77 2.105 . S
Sc67 O81 2.105 . S
Sc67 O83 2.105 . S
Sc67 O87 2.105 . S
Sc68 O69 2.025 . S
Sc68 O78 2.105 . S
Sc68 O80 2.105 . S
Sc68 O84 2.105 . S
Sc68 O86 2.105 . S
O69 Sc66 2.025 . S
O69 Sc67 2.025 . S
O69 Sc68 2.025 . S
C70 O76 1.268 . S
C70 O86 1.268 . S
C71 O77 1.268 . S
C71 O85 1.268 . S
C72 O78 1.268 . S
C72 O87 1.268 . S
C73 O79 1.268 . S
C73 O83 1.268 . S
C74 O80 1.268 . S
C74 O82 1.268 . S
C75 O81 1.268 . S
C75 O84 1.268 . S
O76 Sc66 2.105 . S
O76 C70 1.268 . S
O77 Sc67 2.105 . S
O77 C71 1.268 . S
O78 Sc68 2.105 . S
O78 C72 1.268 . S
O79 Sc66 2.105 . S
O79 C73 1.268 . S
O80 Sc68 2.105 . S
O80 C74 1.268 . S
O81 Sc67 2.105 . S
O81 C75 1.268 . S
O82 Sc66 2.105 . S
O82 C74 1.268 . S
O83 Sc67 2.105 . S
O83 C73 1.268 . S
O84 Sc68 2.105 . S
O84 C75 1.268 . S
O85 Sc66 2.105 . S
O85 C71 1.268 . S
O86 Sc68 2.105 . S
O86 C70 1.268 . S
O87 Sc67 2.105 . S
O87 C72 1.268 . S
Sc88 O91 2.025 . S
Sc88 O98 2.105 . S
Sc88 O101 2.105 . S
Sc88 O104 2.105 . S
Sc88 O107 2.105 . S
Sc89 O91 2.025 . S
Sc89 O99 2.105 . S
Sc89 O103 2.105 . S
Sc89 O105 2.105 . S
Sc89 O109 2.105 . S
Sc90 O91 2.025 . S
Sc90 O100 2.105 . S
Sc90 O102 2.105 . S
Sc90 O106 2.105 . S
Sc90 O108 2.105 . S
O91 Sc88 2.025 . S
O91 Sc89 2.025 . S
O91 Sc90 2.025 . S
C92 O98 1.268 . S
C92 O108 1.268 . S
C93 O99 1.268 . S
C93 O107 1.268 . S
C94 O100 1.268 . S
C94 O109 1.268 . S
C95 O101 1.268 . S
C95 O105 1.268 . S
C96 O102 1.268 . S
C96 O104 1.268 . S
C97 O103 1.268 . S
C97 O106 1.268 . S
O98 Sc88 2.105 . S
O98 C92 1.268 . S
O99 Sc89 2.105 . S
O99 C93 1.268 . S
O100 Sc90 2.105 . S
O100 C94 1.268 . S
O101 Sc88 2.105 . S
O101 C95 1.268 . S
O102 Sc90 2.105 . S
O102 C96 1.268 . S
O103 Sc89 2.105 . S
O103 C97 1.268 . S
O104 Sc88 2.105 . S
O104 C96 1.268 . S
O105 Sc89 2.105 . S
O105 C95 1.268 . S
O106 Sc90 2.105 . S
O106 C97 1.268 . S
O107 Sc88 2.105 . S
O107 C93 1.268 . S
O108 Sc90 2.105 . S
O108 C92 1.268 . S
O109 Sc89 2.105 . S
O109 C94 1.268 . S
Sc110 O113 2.025 . S
Sc110 O120 2.105 . S
Sc110 O123 2.105 . S
Sc110 O126 2.105 . S
Sc110 O129 2.105 . S
Sc111 O113 2.025 . S
Sc111 O121 2.105 . S
Sc111 O125 2.105 . S
Sc111 O127 2.105 . S
Sc111 O131 2.105 . S
Sc112 O113 2.025 . S
Sc112 O122 2.105 . S
Sc112 O124 2.105 . S
Sc112 O128 2.105 . S
Sc112 O130 2.105 . S
O113 Sc110 2.025 . S
O113 Sc111 2.025 . S
O113 Sc112 2.025 . S
C114 O120 1.268 . S
C114 O130 1.268 . S
C115 O121 1.268 . S
C115 O129 1.268 . S
C116 O122 1.268 . S
C116 O131 1.268 . S
C117 O123 1.268 . S
C117 O127 1.268 . S
C118 O124 1.268 . S
C118 O126 1.268 . S
C119 O125 1.268 . S
C119 O128 1.268 . S
O120 Sc110 2.105 . S
O120 C114 1.268 . S
O121 Sc111 2.105 . S
O121 C115 1.268 . S
O122 Sc112 2.105 . S
O122 C116 1.268 . S
O123 Sc110 2.105 . S
O123 C117 1.268 . S
O124 Sc112 2.105 . S
O124 C118 1.268 . S
O125 Sc111 2.105 . S
O125 C119 1.268 . S
O126 Sc110 2.105 . S
O126 C118 1.268 . S
O127 Sc111 2.105 . S
O127 C117 1.268 . S
O128 Sc112 2.105 . S
O128 C119 1.268 . S
O129 Sc110 2.105 . S
O129 C115 1.268 . S
O130 Sc112 2.105 . S
O130 C114 1.268 . S
O131 Sc111 2.105 . S
O131 C116 1.268 . S
Sc132 O135 2.025 . S
Sc132 O142 2.105 . S
Sc132 O145 2.105 . S
Sc132 O148 2.105 . S
Sc132 O151 2.105 . S
Sc133 O135 2.025 . S
Sc133 O143 2.105 . S
Sc133 O147 2.105 . S
Sc133 O149 2.105 . S
Sc133 O153 2.105 . S
Sc134 O135 2.025 . S
Sc134 O144 2.105 . S
Sc134 O146 2.105 . S
Sc134 O150 2.105 . S
Sc134 O152 2.105 . S
O135 Sc132 2.025 . S
O135 Sc133 2.025 . S
O135 Sc134 2.025 . S
C136 O142 1.268 . S
C136 O152 1.268 . S
C137 O143 1.268 . S
C137 O151 1.268 . S
C138 O144 1.268 . S
C138 O153 1.268 . S
C139 O145 1.268 . S
C139 O149 1.268 . S
C140 O146 1.268 . S
C140 O148 1.268 . S
C141 O147 1.268 . S
C141 O150 1.268 . S
O142 Sc132 2.105 . S
O142 C136 1.268 . S
O143 Sc133 2.105 . S
O143 C137 1.268 . S
O144 Sc134 2.105 . S
O144 C138 1.268 . S
O145 Sc132 2.105 . S
O145 C139 1.268 . S
O146 Sc134 2.105 . S
O146 C140 1.268 . S
O147 Sc133 2.105 . S
O147 C141 1.268 . S
O148 Sc132 2.105 . S
O148 C140 1.268 . S
O149 Sc133 2.105 . S
O149 C139 1.268 . S
O150 Sc134 2.105 . S
O150 C141 1.268 . S
O151 Sc132 2.105 . S
O151 C137 1.268 . S
O152 Sc134 2.105 . S
O152 C136 1.268 . S
O153 Sc133 2.105 . S
O153 C138 1.268 . S
Sc154 O157 2.025 . S
Sc154 O164 2.105 . S
Sc154 O167 2.105 . S
Sc154 O170 2.105 1_554 S
Sc154 O173 2.105 . S
Sc155 O157 2.025 . S
Sc155 O165 2.105 . S
Sc155 O169 2.105 1_554 S
Sc155 O171 2.105 . S
Sc155 O175 2.105 . S
Sc156 O157 2.025 1_556 S
Sc156 O166 2.105 1_556 S
Sc156 O168 2.105 . S
Sc156 O172 2.105 . S
Sc156 O174 2.105 1_556 S
O157 Sc154 2.025 . S
O157 Sc155 2.025 . S
O157 Sc156 2.025 1_554 S
C158 O164 1.268 . S
C158 O174 1.268 . S
C159 O165 1.268 . S
C159 O173 1.268 . S
C160 O166 1.268 . S
C160 O175 1.268 . S
C161 O167 1.268 1_556 S
C161 O171 1.268 1_556 S
C162 O168 1.268 . S
C162 O170 1.268 . S
C163 O169 1.268 . S
C163 O172 1.268 . S
O164 Sc154 2.105 . S
O164 C158 1.268 . S
O165 Sc155 2.105 . S
O165 C159 1.268 . S
O166 Sc156 2.105 1_554 S
O166 C160 1.268 . S
O167 Sc154 2.105 . S
O167 C161 1.268 1_554 S
O168 Sc156 2.105 . S
O168 C162 1.268 . S
O169 Sc155 2.105 1_556 S
O169 C163 1.268 . S
O170 Sc154 2.105 1_556 S
O170 C162 1.268 . S
O171 Sc155 2.105 . S
O171 C161 1.268 1_554 S
O172 Sc156 2.105 . S
O172 C163 1.268 . S
O173 Sc154 2.105 . S
O173 C159 1.268 . S
O174 Sc156 2.105 1_554 S
O174 C158 1.268 . S
O175 Sc155 2.105 . S
O175 C160 1.268 . S
Sc176 O179 2.025 . S
Sc176 O186 2.105 . S
Sc176 O189 2.105 . S
Sc176 O192 2.105 . S
Sc176 O195 2.105 . S
Sc177 O179 2.025 . S
Sc177 O187 2.105 . S
Sc177 O191 2.105 . S
Sc177 O193 2.105 . S
Sc177 O197 2.105 . S
Sc178 O179 2.025 . S
Sc178 O188 2.105 . S
Sc178 O190 2.105 . S
Sc178 O194 2.105 . S
Sc178 O196 2.105 . S
O179 Sc176 2.025 . S
O179 Sc177 2.025 . S
O179 Sc178 2.025 . S
C180 O186 1.268 . S
C180 O196 1.268 . S
C181 O187 1.268 . S
C181 O195 1.268 . S
C182 O188 1.268 . S
C182 O197 1.268 . S
C183 O189 1.268 . S
C183 O193 1.268 . S
C184 O190 1.268 . S
C184 O192 1.268 . S
C185 O191 1.268 . S
C185 O194 1.268 . S
O186 Sc176 2.105 . S
O186 C180 1.268 . S
O187 Sc177 2.105 . S
O187 C181 1.268 . S
O188 Sc178 2.105 . S
O188 C182 1.268 . S
O189 Sc176 2.105 . S
O189 C183 1.268 . S
O190 Sc178 2.105 . S
O190 C184 1.268 . S
O191 Sc177 2.105 . S
O191 C185 1.268 . S
O192 Sc176 2.105 . S
O192 C184 1.268 . S
O193 Sc177 2.105 . S
O193 C183 1.268 . S
O194 Sc178 2.105 . S
O194 C185 1.268 . S
O195 Sc176 2.105 . S
O195 C181 1.268 . S
O196 Sc178 2.105 . S
O196 C180 1.268 . S
O197 Sc177 2.105 . S
O197 C182 1.268 . S
Sc198 O201 2.025 . S
Sc198 O208 2.105 . S
Sc198 O211 2.105 . S
Sc198 O214 2.105 . S
Sc198 O217 2.105 . S
Sc199 O201 2.025 . S
Sc199 O209 2.105 . S
Sc199 O213 2.105 . S
Sc199 O215 2.105 . S
Sc199 O219 2.105 . S
Sc200 O201 2.025 . S
Sc200 O210 2.105 . S
Sc200 O212 2.105 . S
Sc200 O216 2.105 . S
Sc200 O218 2.105 . S
O201 Sc198 2.025 . S
O201 Sc199 2.025 . S
O201 Sc200 2.025 . S
C202 O208 1.268 . S
C202 O218 1.268 . S
C203 O209 1.268 . S
C203 O217 1.268 . S
C204 O210 1.268 . S
C204 O219 1.268 . S
C205 O211 1.268 . S
C205 O215 1.268 . S
C206 O212 1.268 . S
C206 O214 1.268 . S
C207 O213 1.268 . S
C207 O216 1.268 . S
O208 Sc198 2.105 . S
O208 C202 1.268 . S
O209 Sc199 2.105 . S
O209 C203 1.268 . S
O210 Sc200 2.105 . S
O210 C204 1.268 . S
O211 Sc198 2.105 . S
O211 C205 1.268 . S
O212 Sc200 2.105 . S
O212 C206 1.268 . S
O213 Sc199 2.105 . S
O213 C207 1.268 . S
O214 Sc198 2.105 . S
O214 C206 1.268 . S
O215 Sc199 2.105 . S
O215 C205 1.268 . S
O216 Sc200 2.105 . S
O216 C207 1.268 . S
O217 Sc198 2.105 . S
O217 C203 1.268 . S
O218 Sc200 2.105 . S
O218 C202 1.268 . S
O219 Sc199 2.105 . S
O219 C204 1.268 . S
Sc220 O223 2.025 . S
Sc220 O230 2.105 . S
Sc220 O233 2.105 . S
Sc220 O236 2.105 . S
Sc220 O239 2.105 . S
Sc221 O223 2.025 . S
Sc221 O231 2.105 . S
Sc221 O235 2.105 . S
Sc221 O237 2.105 . S
Sc221 O241 2.105 . S
Sc222 O223 2.025 . S
Sc222 O232 2.105 . S
Sc222 O234 2.105 . S
Sc222 O238 2.105 . S
Sc222 O240 2.105 . S
O223 Sc220 2.025 . S
O223 Sc221 2.025 . S
O223 Sc222 2.025 . S
C224 O230 1.268 . S
C224 O240 1.268 . S
C225 O231 1.268 . S
C225 O239 1.268 . S
C226 O232 1.268 . S
C226 O241 1.268 . S
C227 O233 1.268 . S
C227 O237 1.268 . S
C228 O234 1.268 . S
C228 O236 1.268 . S
C229 O235 1.268 . S
C229 O238 1.268 . S
O230 Sc220 2.105 . S
O230 C224 1.268 . S
O231 Sc221 2.105 . S
O231 C225 1.268 . S
O232 Sc222 2.105 . S
O232 C226 1.268 . S
O233 Sc220 2.105 . S
O233 C227 1.268 . S
O234 Sc222 2.105 . S
O234 C228 1.268 . S
O235 Sc221 2.105 . S
O235 C229 1.268 . S
O236 Sc220 2.105 . S
O236 C228 1.268 . S
O237 Sc221 2.105 . S
O237 C227 1.268 . S
O238 Sc222 2.105 . S
O238 C229 1.268 . S
O239 Sc220 2.105 . S
O239 C225 1.268 . S
O240 Sc222 2.105 . S
O240 C224 1.268 . S
O241 Sc221 2.105 . S
O241 C226 1.268 . S
Sc242 O245 2.025 . S
Sc242 O252 2.105 . S
Sc242 O255 2.105 . S
Sc242 O258 2.105 . S
Sc242 O261 2.105 . S
Sc243 O245 2.025 . S
Sc243 O253 2.105 . S
Sc243 O257 2.105 . S
Sc243 O259 2.105 . S
Sc243 O263 2.105 . S
Sc244 O245 2.025 . S
Sc244 O254 2.105 . S
Sc244 O256 2.105 . S
Sc244 O260 2.105 . S
Sc244 O262 2.105 . S
O245 Sc242 2.025 . S
O245 Sc243 2.025 . S
O245 Sc244 2.025 . S
C246 O252 1.268 . S
C246 O262 1.268 . S
C247 O253 1.268 . S
C247 O261 1.268 . S
C248 O254 1.268 . S
C248 O263 1.268 . S
C249 O255 1.268 . S
C249 O259 1.268 . S
C250 O256 1.268 . S
C250 O258 1.268 . S
C251 O257 1.268 . S
C251 O260 1.268 . S
O252 Sc242 2.105 . S
O252 C246 1.268 . S
O253 Sc243 2.105 . S
O253 C247 1.268 . S
O254 Sc244 2.105 . S
O254 C248 1.268 . S
O255 Sc242 2.105 . S
O255 C249 1.268 . S
O256 Sc244 2.105 . S
O256 C250 1.268 . S
O257 Sc243 2.105 . S
O257 C251 1.268 . S
O258 Sc242 2.105 . S
O258 C250 1.268 . S
O259 Sc243 2.105 . S
O259 C249 1.268 . S
O260 Sc244 2.105 . S
O260 C251 1.268 . S
O261 Sc242 2.105 . S
O261 C247 1.268 . S
O262 Sc244 2.105 . S
O262 C246 1.268 . S
O263 Sc243 2.105 . S
O263 C248 1.268 . S
H264 C270 0.930 . S
H265 C274 0.930 . S
H266 C279 0.929 . S
H267 C277 0.929 . S
H268 C272 0.929 . S
H269 C278 0.929 . S
C270 H264 0.930 . S
C270 C271 1.367 . S
C270 C278 1.378 . S
C271 C270 1.367 . S
C271 C279 1.433 . S
C272 H268 0.929 . S
C272 C274 1.378 . S
C272 C276 1.350 . S
C273 C276 1.463 . S
C273 C278 1.350 . S
C273 N281 1.427 . S
C274 H265 0.930 . S
C274 C272 1.378 . S
C274 C275 1.367 . S
C275 C274 1.367 . S
C275 C277 1.433 . S
C276 C272 1.350 . S
C276 C273 1.463 . S
C276 N280 1.427 . S
C277 H267 0.929 . S
C277 C275 1.433 . S
C277 N280 1.384 . S
C278 H269 0.929 . S
C278 C270 1.378 . S
C278 C273 1.350 . S
C279 H266 0.929 . S
C279 C271 1.433 . S
C279 N281 1.384 . S
N280 C276 1.427 . S
N280 C277 1.384 . S
N281 C273 1.427 . S
N281 C279 1.384 . S
H282 C288 0.930 . S
H283 C292 0.930 . S
H284 C297 0.929 . S
H285 C295 0.929 . S
H286 C290 0.929 . S
H287 C296 0.929 . S
C288 H282 0.930 . S
C288 C289 1.367 . S
C288 C296 1.378 1_554 S
C289 C288 1.367 . S
C289 C297 1.433 . S
C290 H286 0.929 . S
C290 C292 1.378 . S
C290 C294 1.350 . S
C291 C294 1.463 . S
C291 C296 1.350 . S
C291 N299 1.427 . S
C292 H283 0.930 . S
C292 C290 1.378 . S
C292 C293 1.367 . S
C293 C292 1.367 . S
C293 C295 1.433 . S
C294 C290 1.350 . S
C294 C291 1.463 . S
C294 N298 1.427 . S
C295 H285 0.929 . S
C295 C293 1.433 . S
C295 N298 1.384 . S
C296 H287 0.929 . S
C296 C288 1.378 1_556 S
C296 C291 1.350 . S
C297 H284 0.929 . S
C297 C289 1.433 . S
C297 N299 1.384 1_554 S
N298 C294 1.427 . S
N298 C295 1.384 . S
N299 C291 1.427 . S
N299 C297 1.384 1_556 S
H300 C306 0.930 . S
H301 C310 0.930 . S
H302 C315 0.929 1_556 S
H303 C313 0.929 . S
H304 C308 0.929 . S
H305 C314 0.929 . S
C306 H300 0.930 . S
C306 C307 1.367 1_554 S
C306 C314 1.378 . S
C307 C306 1.367 1_556 S
C307 C315 1.433 1_556 S
C308 H304 0.929 . S
C308 C310 1.378 . S
C308 C312 1.350 . S
C309 C312 1.463 . S
C309 C314 1.350 . S
C309 N317 1.427 . S
C310 H301 0.930 . S
C310 C308 1.378 . S
C310 C311 1.367 . S
C311 C310 1.367 . S
C311 C313 1.433 . S
C312 C308 1.350 . S
C312 C309 1.463 . S
C312 N316 1.427 . S
C313 H303 0.929 . S
C313 C311 1.433 . S
C313 N316 1.384 . S
C314 H305 0.929 . S
C314 C306 1.378 . S
C314 C309 1.350 . S
C315 H302 0.929 1_554 S
C315 C307 1.433 1_554 S
C315 N317 1.384 . S
N316 C312 1.427 . S
N316 C313 1.384 . S
N317 C309 1.427 . S
N317 C315 1.384 . S
H318 C324 0.930 . S
H319 C328 0.930 . S
H320 C333 0.929 . S
H321 C331 0.929 . S
H322 C326 0.929 . S
H323 C332 0.929 . S
C324 H318 0.930 . S
C324 C325 1.367 . S
C324 C332 1.378 . S
C325 C324 1.367 . S
C325 C333 1.433 . S
C326 H322 0.929 . S
C326 C328 1.378 . S
C326 C330 1.350 . S
C327 C330 1.463 . S
C327 C332 1.350 . S
C327 N335 1.427 . S
C328 H319 0.930 . S
C328 C326 1.378 . S
C328 C329 1.367 . S
C329 C328 1.367 . S
C329 C331 1.433 . S
C330 C326 1.350 . S
C330 C327 1.463 . S
C330 N334 1.427 . S
C331 H321 0.929 . S
C331 C329 1.433 . S
C331 N334 1.384 . S
C332 H323 0.929 . S
C332 C324 1.378 . S
C332 C327 1.350 . S
C333 H320 0.929 . S
C333 C325 1.433 . S
C333 N335 1.384 . S
N334 C330 1.427 . S
N334 C331 1.384 . S
N335 C327 1.427 . S
N335 C333 1.384 . S
H336 C342 0.930 . S
H337 C346 0.930 . S
H338 C351 0.929 . S
H339 C349 0.929 . S
H340 C344 0.929 . S
H341 C350 0.929 . S
C342 H336 0.930 . S
C342 C343 1.367 . S
C342 C350 1.378 . S
C343 C342 1.367 . S
C343 C351 1.433 . S
C344 H340 0.929 . S
C344 C346 1.378 . S
C344 C348 1.350 . S
C345 C348 1.463 . S
C345 C350 1.350 . S
C345 N353 1.427 . S
C346 H337 0.930 . S
C346 C344 1.378 . S
C346 C347 1.367 . S
C347 C346 1.367 . S
C347 C349 1.433 . S
C348 C344 1.350 . S
C348 C345 1.463 . S
C348 N352 1.427 . S
C349 H339 0.929 . S
C349 C347 1.433 . S
C349 N352 1.384 . S
C350 H341 0.929 . S
C350 C342 1.378 . S
C350 C345 1.350 . S
C351 H338 0.929 . S
C351 C343 1.433 . S
C351 N353 1.384 . S
N352 C348 1.427 . S
N352 C349 1.384 . S
N353 C345 1.427 . S
N353 C351 1.384 . S
H354 C360 0.930 . S
H355 C364 0.930 . S
H356 C369 0.929 . S
H357 C367 0.929 . S
H358 C362 0.929 . S
H359 C368 0.929 . S
C360 H354 0.930 . S
C360 C361 1.367 . S
C360 C368 1.378 . S
C361 C360 1.367 . S
C361 C369 1.433 . S
C362 H358 0.929 . S
C362 C364 1.378 . S
C362 C366 1.350 . S
C363 C366 1.463 . S
C363 C368 1.350 . S
C363 N371 1.427 . S
C364 H355 0.930 . S
C364 C362 1.378 . S
C364 C365 1.367 . S
C365 C364 1.367 . S
C365 C367 1.433 . S
C366 C362 1.350 . S
C366 C363 1.463 . S
C366 N370 1.427 . S
C367 H357 0.929 . S
C367 C365 1.433 . S
C367 N370 1.384 . S
C368 H359 0.929 . S
C368 C360 1.378 . S
C368 C363 1.350 . S
C369 H356 0.929 . S
C369 C361 1.433 . S
C369 N371 1.384 . S
N370 C366 1.427 . S
N370 C367 1.384 . S
N371 C363 1.427 . S
N371 C369 1.384 . S
H372 C378 0.930 . S
H373 C382 0.930 . S
H374 C387 0.929 . S
H375 C385 0.929 . S
H376 C380 0.929 . S
H377 C386 0.929 . S
C378 H372 0.930 . S
C378 C379 1.367 . S
C378 C386 1.378 . S
C379 C378 1.367 . S
C379 C387 1.433 . S
C380 H376 0.929 . S
C380 C382 1.378 . S
C380 C384 1.350 . S
C381 C384 1.463 . S
C381 C386 1.350 . S
C381 N389 1.427 . S
C382 H373 0.930 . S
C382 C380 1.378 . S
C382 C383 1.367 . S
C383 C382 1.367 . S
C383 C385 1.433 . S
C384 C380 1.350 . S
C384 C381 1.463 . S
C384 N388 1.427 . S
C385 H375 0.929 . S
C385 C383 1.433 . S
C385 N388 1.384 . S
C386 H377 0.929 . S
C386 C378 1.378 . S
C386 C381 1.350 . S
C387 H374 0.929 . S
C387 C379 1.433 . S
C387 N389 1.384 . S
N388 C384 1.427 . S
N388 C385 1.384 . S
N389 C381 1.427 . S
N389 C387 1.384 . S
H390 C396 0.930 . S
H391 C400 0.930 . S
H392 C405 0.929 . S
H393 C403 0.929 . S
H394 C398 0.929 . S
H395 C404 0.929 . S
C396 H390 0.930 . S
C396 C397 1.367 . S
C396 C404 1.378 1_655 S
C397 C396 1.367 . S
C397 C405 1.433 . S
C398 H394 0.929 . S
C398 C400 1.378 . S
C398 C402 1.350 . S
C399 C402 1.463 . S
C399 C404 1.350 . S
C399 N407 1.427 1_455 S
C400 H391 0.930 . S
C400 C398 1.378 . S
C400 C401 1.367 . S
C401 C400 1.367 . S
C401 C403 1.433 . S
C402 C398 1.350 . S
C402 C399 1.463 . S
C402 N406 1.427 . S
C403 H393 0.929 . S
C403 C401 1.433 . S
C403 N406 1.384 . S
C404 H395 0.929 . S
C404 C396 1.378 1_455 S
C404 C399 1.350 . S
C405 H392 0.929 . S
C405 C397 1.433 . S
C405 N407 1.384 . S
N406 C402 1.427 . S
N406 C403 1.384 . S
N407 C399 1.427 1_655 S
N407 C405 1.384 . S
H408 C414 0.930 . S
H409 C418 0.930 . S
H410 C423 0.929 . S
H411 C421 0.929 . S
H412 C416 0.929 . S
H413 C422 0.929 . S
C414 H408 0.930 . S
C414 C415 1.367 . S
C414 C422 1.378 . S
C415 C414 1.367 . S
C415 C423 1.433 . S
C416 H412 0.929 . S
C416 C418 1.378 1_545 S
C416 C420 1.350 . S
C417 C420 1.463 . S
C417 C422 1.350 . S
C417 N425 1.427 . S
C418 H409 0.930 . S
C418 C416 1.378 1_565 S
C418 C419 1.367 . S
C419 C418 1.367 . S
C419 C421 1.433 . S
C420 C416 1.350 . S
C420 C417 1.463 . S
C420 N424 1.427 . S
C421 H411 0.929 . S
C421 C419 1.433 . S
C421 N424 1.384 1_565 S
C422 H413 0.929 . S
C422 C414 1.378 . S
C422 C417 1.350 . S
C423 H410 0.929 . S
C423 C415 1.433 . S
C423 N425 1.384 . S
N424 C420 1.427 . S
N424 C421 1.384 1_545 S
N425 C417 1.427 . S
N425 C423 1.384 . S
H426 C432 0.930 . S
H427 C436 0.930 . S
H428 C441 0.929 . S
H429 C439 0.929 . S
H430 C434 0.929 . S
H431 C440 0.929 . S
C432 H426 0.930 . S
C432 C433 1.367 . S
C432 C440 1.378 . S
C433 C432 1.367 . S
C433 C441 1.433 . S
C434 H430 0.929 . S
C434 C436 1.378 . S
C434 C438 1.350 . S
C435 C438 1.463 . S
C435 C440 1.350 . S
C435 N443 1.427 . S
C436 H427 0.930 . S
C436 C434 1.378 . S
C436 C437 1.367 . S
C437 C436 1.367 . S
C437 C439 1.433 . S
C438 C434 1.350 . S
C438 C435 1.463 . S
C438 N442 1.427 . S
C439 H429 0.929 . S
C439 C437 1.433 . S
C439 N442 1.384 . S
C440 H431 0.929 . S
C440 C432 1.378 . S
C440 C435 1.350 . S
C441 H428 0.929 . S
C441 C433 1.433 . S
C441 N443 1.384 . S
N442 C438 1.427 . S
N442 C439 1.384 . S
N443 C435 1.427 . S
N443 C441 1.384 . S
H444 C450 0.930 . S
H445 C454 0.930 . S
H446 C459 0.929 . S
H447 C457 0.929 . S
H448 C452 0.929 . S
H449 C458 0.933 . S
C450 H444 0.930 . S
C450 C451 1.367 . S
C450 C458 1.364 1_455 S
C451 C450 1.367 . S
C451 C459 1.433 . S
C452 H448 0.929 . S
C452 C454 1.378 . S
C452 C456 1.350 . S
C453 C456 1.463 . S
C453 C458 1.360 . S
C453 N461 1.427 . S
C454 H445 0.930 . S
C454 C452 1.378 . S
C454 C455 1.367 . S
C455 C454 1.367 . S
C455 C457 1.433 . S
C456 C452 1.350 . S
C456 C453 1.463 . S
C456 N460 1.427 . S
C457 H447 0.929 . S
C457 C455 1.433 . S
C457 N460 1.384 . S
C458 H449 0.933 . S
C458 C450 1.364 1_655 S
C458 C453 1.360 . S
C459 H446 0.929 . S
C459 C451 1.433 . S
C459 N461 1.384 1_455 S
N460 C456 1.427 . S
N460 C457 1.384 . S
N461 C453 1.427 . S
N461 C459 1.384 1_655 S
H462 C468 0.930 . S
H463 C472 0.930 . S
H464 C477 0.929 . S
H465 C475 0.929 . S
H466 C470 0.929 . S
H467 C476 0.932 . S
C468 H462 0.930 . S
C468 C469 1.367 . S
C468 C476 1.363 1_545 S
C469 C468 1.367 . S
C469 C477 1.433 . S
C470 H466 0.929 . S
C470 C472 1.378 . S
C470 C474 1.350 . S
C471 C474 1.463 . S
C471 C476 1.362 . S
C471 N479 1.427 . S
C472 H463 0.930 . S
C472 C470 1.378 . S
C472 C473 1.367 . S
C473 C472 1.367 . S
C473 C475 1.433 . S
C474 C470 1.350 . S
C474 C471 1.463 . S
C474 N478 1.427 . S
C475 H465 0.929 . S
C475 C473 1.433 . S
C475 N478 1.384 . S
C476 H467 0.932 . S
C476 C468 1.363 1_565 S
C476 C471 1.362 . S
C477 H464 0.929 . S
C477 C469 1.433 . S
C477 N479 1.384 1_545 S
N478 C474 1.427 . S
N478 C475 1.384 . S
N479 C471 1.427 . S
N479 C477 1.384 1_565 S
H480 C486 0.930 . S
H481 C490 0.930 . S
H482 C495 0.929 . S
H483 C493 0.929 . S
H484 C488 0.929 . S
H485 C494 0.929 . S
C486 H480 0.930 . S
C486 C487 1.367 . S
C486 C494 1.378 . S
C487 C486 1.367 . S
C487 C495 1.433 . S
C488 H484 0.929 . S
C488 C490 1.378 . S
C488 C492 1.350 . S
C489 C492 1.463 . S
C489 C494 1.350 . S
C489 N497 1.427 . S
C490 H481 0.930 . S
C490 C488 1.378 . S
C490 C491 1.367 . S
C491 C490 1.367 . S
C491 C493 1.433 1_556 S
C492 C488 1.350 . S
C492 C489 1.463 . S
C492 N496 1.427 . S
C493 H483 0.929 . S
C493 C491 1.433 1_554 S
C493 N496 1.384 1_554 S
C494 H485 0.929 . S
C494 C486 1.378 . S
C494 C489 1.350 . S
C495 H482 0.929 . S
C495 C487 1.433 . S
C495 N497 1.384 . S
N496 C492 1.427 . S
N496 C493 1.384 1_556 S
N497 C489 1.427 . S
N497 C495 1.384 . S
H498 C504 0.930 . S
H499 C508 0.930 . S
H500 C513 0.929 . S
H501 C511 0.929 . S
H502 C506 0.929 . S
H503 C512 0.928 . S
C504 H498 0.930 . S
C504 C505 1.367 . S
C504 C512 1.378 . S
C505 C504 1.367 . S
C505 C513 1.433 . S
C506 H502 0.929 . S
C506 C508 1.378 . S
C506 C510 1.350 . S
C507 C510 1.463 . S
C507 C512 1.350 1_455 S
C507 N515 1.427 . S
C508 H499 0.930 . S
C508 C506 1.378 . S
C508 C509 1.367 . S
C509 C508 1.367 . S
C509 C511 1.433 . S
C510 C506 1.350 . S
C510 C507 1.463 . S
C510 N514 1.427 . S
C511 H501 0.929 . S
C511 C509 1.433 . S
C511 N514 1.384 . S
C512 H503 0.928 . S
C512 C504 1.378 . S
C512 C507 1.350 1_655 S
C513 H500 0.929 . S
C513 C505 1.433 . S
C513 N515 1.384 1_655 S
N514 C510 1.427 . S
N514 C511 1.384 . S
N515 C507 1.427 . S
N515 C513 1.384 1_455 S
H516 C522 0.930 . S
H517 C526 0.930 . S
H518 C531 0.929 . S
H519 C529 0.929 . S
H520 C524 0.929 . S
H521 C530 0.929 . S
C522 H516 0.930 . S
C522 C523 1.367 . S
C522 C530 1.378 1_565 S
C523 C522 1.367 . S
C523 C531 1.433 . S
C524 H520 0.929 . S
C524 C526 1.378 . S
C524 C528 1.350 . S
C525 C528 1.463 . S
C525 C530 1.350 . S
C525 N533 1.427 . S
C526 H517 0.930 . S
C526 C524 1.378 . S
C526 C527 1.367 . S
C527 C526 1.367 . S
C527 C529 1.433 . S
C528 C524 1.350 . S
C528 C525 1.463 . S
C528 N532 1.427 . S
C529 H519 0.929 . S
C529 C527 1.433 . S
C529 N532 1.384 . S
C530 H521 0.929 . S
C530 C522 1.378 1_545 S
C530 C525 1.350 . S
C531 H518 0.929 . S
C531 C523 1.433 . S
C531 N533 1.384 1_565 S
N532 C528 1.427 . S
N532 C529 1.384 . S
N533 C525 1.427 . S
N533 C531 1.384 1_545 S
H534 C540 0.930 . S
H535 C544 0.930 . S
H536 C549 0.929 . S
H537 C547 0.929 . S
H538 C542 0.929 . S
H539 C548 0.929 . S
C540 H534 0.930 . S
C540 C541 1.367 . S
C540 C548 1.378 . S
C541 C540 1.367 . S
C541 C549 1.433 . S
C542 H538 0.929 . S
C542 C544 1.378 . S
C542 C546 1.350 . S
C543 C546 1.463 . S
C543 C548 1.350 . S
C543 N551 1.427 . S
C544 H535 0.930 . S
C544 C542 1.378 . S
C544 C545 1.367 . S
C545 C544 1.367 . S
C545 C547 1.433 . S
C546 C542 1.350 . S
C546 C543 1.463 . S
C546 N550 1.427 . S
C547 H537 0.929 . S
C547 C545 1.433 . S
C547 N550 1.384 . S
C548 H539 0.929 . S
C548 C540 1.378 . S
C548 C543 1.350 . S
C549 H536 0.929 . S
C549 C541 1.433 . S
C549 N551 1.384 . S
N550 C546 1.427 . S
N550 C547 1.384 . S
N551 C543 1.427 . S
N551 C549 1.384 . S
H552 C558 0.930 . S
H553 C562 0.930 . S
H554 C567 0.929 . S
H555 C565 0.929 . S
H556 C560 0.929 . S
H557 C566 0.929 . S
C558 H552 0.930 . S
C558 C559 1.367 . S
C558 C566 1.378 . S
C559 C558 1.367 . S
C559 C567 1.433 . S
C560 H556 0.929 . S
C560 C562 1.378 1_655 S
C560 C564 1.350 . S
C561 C564 1.463 . S
C561 C566 1.350 . S
C561 N569 1.427 . S
C562 H553 0.930 . S
C562 C560 1.378 1_455 S
C562 C563 1.367 . S
C563 C562 1.367 . S
C563 C565 1.433 . S
C564 C560 1.350 . S
C564 C561 1.463 . S
C564 N568 1.427 1_655 S
C565 H555 0.929 . S
C565 C563 1.433 . S
C565 N568 1.384 . S
C566 H557 0.929 . S
C566 C558 1.378 . S
C566 C561 1.350 . S
C567 H554 0.929 . S
C567 C559 1.433 . S
C567 N569 1.384 . S
N568 C564 1.427 1_455 S
N568 C565 1.384 . S
N569 C561 1.427 . S
N569 C567 1.384 . S
H570 C576 0.930 . S
H571 C580 0.930 . S
H572 C585 0.929 . S
H573 C583 0.929 . S
H574 C578 0.929 . S
H575 C584 0.929 . S
C576 H570 0.930 . S
C576 C577 1.367 . S
C576 C584 1.378 . S
C577 C576 1.367 . S
C577 C585 1.433 . S
C578 H574 0.929 . S
C578 C580 1.378 1_565 S
C578 C582 1.350 . S
C579 C582 1.463 . S
C579 C584 1.350 . S
C579 N587 1.427 . S
C580 H571 0.930 . S
C580 C578 1.378 1_545 S
C580 C581 1.367 . S
C581 C580 1.367 . S
C581 C583 1.433 . S
C582 C578 1.350 . S
C582 C579 1.463 . S
C582 N586 1.427 1_565 S
C583 H573 0.929 . S
C583 C581 1.433 . S
C583 N586 1.384 . S
C584 H575 0.929 . S
C584 C576 1.378 . S
C584 C579 1.350 . S
C585 H572 0.929 . S
C585 C577 1.433 . S
C585 N587 1.384 . S
N586 C582 1.427 1_545 S
N586 C583 1.384 . S
N587 C579 1.427 . S
N587 C585 1.384 . S
H588 C594 0.930 . S
H589 C598 0.930 . S
H590 C603 0.929 . S
H591 C601 0.929 . S
H592 C596 0.929 . S
H593 C602 0.929 . S
C594 H588 0.930 . S
C594 C595 1.367 . S
C594 C602 1.378 . S
C595 C594 1.367 . S
C595 C603 1.433 . S
C596 H592 0.929 . S
C596 C598 1.378 . S
C596 C600 1.350 . S
C597 C600 1.463 . S
C597 C602 1.350 . S
C597 N605 1.427 . S
C598 H589 0.930 . S
C598 C596 1.378 . S
C598 C599 1.367 . S
C599 C598 1.367 . S
C599 C601 1.433 . S
C600 C596 1.350 . S
C600 C597 1.463 . S
C600 N604 1.427 . S
C601 H591 0.929 . S
C601 C599 1.433 . S
C601 N604 1.384 . S
C602 H593 0.929 . S
C602 C594 1.378 . S
C602 C597 1.350 . S
C603 H590 0.929 . S
C603 C595 1.433 . S
C603 N605 1.384 . S
N604 C600 1.427 . S
N604 C601 1.384 . S
N605 C597 1.427 . S
N605 C603 1.384 . S
H606 C612 0.930 . S
H607 C616 0.930 . S
H608 C621 0.929 . S
H609 C619 0.929 . S
H610 C614 0.929 . S
H611 C620 0.929 . S
C612 H606 0.930 . S
C612 C613 1.367 . S
C612 C620 1.378 . S
C613 C612 1.367 . S
C613 C621 1.433 . S
C614 H610 0.929 . S
C614 C616 1.378 . S
C614 C618 1.350 . S
C615 C618 1.463 . S
C615 C620 1.350 . S
C615 N623 1.427 . S
C616 H607 0.930 . S
C616 C614 1.378 . S
C616 C617 1.367 . S
C617 C616 1.367 . S
C617 C619 1.433 . S
C618 C614 1.350 . S
C618 C615 1.463 . S
C618 N622 1.427 . S
C619 H609 0.929 . S
C619 C617 1.433 . S
C619 N622 1.384 . S
C620 H611 0.929 . S
C620 C612 1.378 . S
C620 C615 1.350 . S
C621 H608 0.929 . S
C621 C613 1.433 . S
C621 N623 1.384 . S
N622 C618 1.427 . S
N622 C619 1.384 . S
N623 C615 1.427 . S
N623 C621 1.384 . S
H624 C630 0.930 . S
H625 C634 0.930 . S
H626 C639 0.929 . S
H627 C637 0.929 . S
H628 C632 0.929 . S
H629 C638 0.929 . S
C630 H624 0.930 . S
C630 C631 1.367 . S
C630 C638 1.378 . S
C631 C630 1.367 . S
C631 C639 1.433 . S
C632 H628 0.929 . S
C632 C634 1.378 . S
C632 C636 1.350 . S
C633 C636 1.463 . S
C633 C638 1.350 . S
C633 N641 1.427 . S
C634 H625 0.930 . S
C634 C632 1.378 . S
C634 C635 1.367 . S
C635 C634 1.367 . S
C635 C637 1.433 . S
C636 C632 1.350 . S
C636 C633 1.463 . S
C636 N640 1.427 . S
C637 H627 0.929 . S
C637 C635 1.433 . S
C637 N640 1.384 . S
C638 H629 0.929 . S
C638 C630 1.378 . S
C638 C633 1.350 . S
C639 H626 0.929 . S
C639 C631 1.433 . S
C639 N641 1.384 . S
N640 C636 1.427 . S
N640 C637 1.384 . S
N641 C633 1.427 . S
N641 C639 1.384 . S
H642 C648 0.930 . S
H643 C652 0.930 . S
H644 C657 0.929 . S
H645 C655 0.929 . S
H646 C650 0.929 . S
H647 C656 0.929 . S
C648 H642 0.930 . S
C648 C649 1.367 . S
C648 C656 1.378 . S
C649 C648 1.367 . S
C649 C657 1.433 . S
C650 H646 0.929 . S
C650 C652 1.378 . S
C650 C654 1.350 . S
C651 C654 1.463 . S
C651 C656 1.350 . S
C651 N659 1.427 . S
C652 H643 0.930 . S
C652 C650 1.378 . S
C652 C653 1.367 . S
C653 C652 1.367 . S
C653 C655 1.433 . S
C654 C650 1.350 . S
C654 C651 1.463 . S
C654 N658 1.427 . S
C655 H645 0.929 . S
C655 C653 1.433 . S
C655 N658 1.384 . S
C656 H647 0.929 . S
C656 C648 1.378 . S
C656 C651 1.350 . S
C657 H644 0.929 . S
C657 C649 1.433 . S
C657 N659 1.384 . S
N658 C654 1.427 . S
N658 C655 1.384 . S
N659 C651 1.427 . S
N659 C657 1.384 . S
H660 C666 0.930 . S
H661 C670 0.930 . S
H662 C675 0.929 . S
H663 C673 0.929 . S
H664 C668 0.929 . S
H665 C674 0.929 . S
C666 H660 0.930 . S
C666 C667 1.367 . S
C666 C674 1.378 . S
C667 C666 1.367 . S
C667 C675 1.433 . S
C668 H664 0.929 . S
C668 C670 1.378 . S
C668 C672 1.350 . S
C669 C672 1.463 . S
C669 C674 1.350 . S
C669 N677 1.427 . S
C670 H661 0.930 . S
C670 C668 1.378 . S
C670 C671 1.367 . S
C671 C670 1.367 . S
C671 C673 1.433 . S
C672 C668 1.350 . S
C672 C669 1.463 . S
C672 N676 1.427 . S
C673 H663 0.929 . S
C673 C671 1.433 . S
C673 N676 1.384 . S
C674 H665 0.929 . S
C674 C666 1.378 . S
C674 C669 1.350 . S
C675 H662 0.929 . S
C675 C667 1.433 . S
C675 N677 1.384 . S
N676 C672 1.427 . S
N676 C673 1.384 . S
N677 C669 1.427 . S
N677 C675 1.384 . S
H678 C684 0.930 . S
H679 C688 0.930 . S
H680 C693 0.929 . S
H681 C691 0.929 . S
H682 C686 0.929 . S
H683 C692 0.929 . S
C684 H678 0.930 . S
C684 C685 1.367 . S
C684 C692 1.378 . S
C685 C684 1.367 . S
C685 C693 1.433 . S
C686 H682 0.929 . S
C686 C688 1.378 . S
C686 C690 1.350 . S
C687 C690 1.463 . S
C687 C692 1.350 . S
C687 N695 1.427 . S
C688 H679 0.930 . S
C688 C686 1.378 . S
C688 C689 1.367 . S
C689 C688 1.367 . S
C689 C691 1.433 . S
C690 C686 1.350 . S
C690 C687 1.463 . S
C690 N694 1.427 . S
C691 H681 0.929 . S
C691 C689 1.433 . S
C691 N694 1.384 . S
C692 H683 0.929 . S
C692 C684 1.378 . S
C692 C687 1.350 . S
C693 H680 0.929 . S
C693 C685 1.433 . S
C693 N695 1.384 . S
N694 C690 1.427 . S
N694 C691 1.384 . S
N695 C687 1.427 . S
N695 C693 1.384 . S
H696 C702 0.930 . S
H697 C706 0.930 . S
H698 C711 0.929 . S
H699 C709 0.929 . S
H700 C704 0.929 . S
H701 C710 0.929 . S
C702 H696 0.930 . S
C702 C703 1.367 . S
C702 C710 1.378 . S
C703 C702 1.367 . S
C703 C711 1.433 . S
C704 H700 0.929 . S
C704 C706 1.378 . S
C704 C708 1.350 . S
C705 C708 1.463 . S
C705 C710 1.350 . S
C705 N713 1.427 . S
C706 H697 0.930 . S
C706 C704 1.378 . S
C706 C707 1.367 . S
C707 C706 1.367 . S
C707 C709 1.433 . S
C708 C704 1.350 . S
C708 C705 1.463 . S
C708 N712 1.427 . S
C709 H699 0.929 . S
C709 C707 1.433 . S
C709 N712 1.384 . S
C710 H701 0.929 . S
C710 C702 1.378 . S
C710 C705 1.350 . S
C711 H698 0.929 . S
C711 C703 1.433 . S
C711 N713 1.384 . S
N712 C708 1.427 . S
N712 C709 1.384 . S
N713 C705 1.427 . S
N713 C711 1.384 . S
H714 C720 0.930 . S
H715 C724 0.930 . S
H716 C729 0.929 . S
H717 C727 0.929 . S
H718 C722 0.929 . S
H719 C728 0.929 . S
C720 H714 0.930 . S
C720 C721 1.367 . S
C720 C728 1.378 . S
C721 C720 1.367 . S
C721 C729 1.433 . S
C722 H718 0.929 . S
C722 C724 1.378 . S
C722 C726 1.350 . S
C723 C726 1.463 1_455 S
C723 C728 1.350 . S
C723 N731 1.427 . S
C724 H715 0.930 . S
C724 C722 1.378 . S
C724 C725 1.367 . S
C725 C724 1.367 . S
C725 C727 1.433 . S
C726 C722 1.350 . S
C726 C723 1.463 1_655 S
C726 N730 1.427 . S
C727 H717 0.929 . S
C727 C725 1.433 . S
C727 N730 1.384 . S
C728 H719 0.929 . S
C728 C720 1.378 . S
C728 C723 1.350 . S
C729 H716 0.929 . S
C729 C721 1.433 . S
C729 N731 1.384 . S
N730 C726 1.427 . S
N730 C727 1.384 . S
N731 C723 1.427 . S
N731 C729 1.384 . S
H732 C738 0.930 . S
H733 C742 0.930 . S
H734 C747 0.929 . S
H735 C745 0.929 . S
H736 C740 0.929 . S
H737 C746 0.929 . S
C738 H732 0.930 . S
C738 C739 1.367 . S
C738 C746 1.378 . S
C739 C738 1.367 . S
C739 C747 1.433 . S
C740 H736 0.929 . S
C740 C742 1.378 . S
C740 C744 1.350 . S
C741 C744 1.463 1_545 S
C741 C746 1.350 . S
C741 N749 1.427 . S
C742 H733 0.930 . S
C742 C740 1.378 . S
C742 C743 1.367 . S
C743 C742 1.367 . S
C743 C745 1.433 . S
C744 C740 1.350 . S
C744 C741 1.463 1_565 S
C744 N748 1.427 . S
C745 H735 0.929 . S
C745 C743 1.433 . S
C745 N748 1.384 . S
C746 H737 0.929 . S
C746 C738 1.378 . S
C746 C741 1.350 . S
C747 H734 0.929 . S
C747 C739 1.433 . S
C747 N749 1.384 . S
N748 C744 1.427 . S
N748 C745 1.384 . S
N749 C741 1.427 . S
N749 C747 1.384 . S
H750 C756 0.930 . S
H751 C760 0.930 . S
H752 C765 0.929 . S
H753 C763 0.929 . S
H754 C758 0.929 . S
H755 C764 0.929 . S
C756 H750 0.930 . S
C756 C757 1.367 . S
C756 C764 1.378 . S
C757 C756 1.367 . S
C757 C765 1.433 . S
C758 H754 0.929 . S
C758 C760 1.378 . S
C758 C762 1.350 . S
C759 C762 1.463 . S
C759 C764 1.350 . S
C759 N767 1.427 . S
C760 H751 0.930 . S
C760 C758 1.378 . S
C760 C761 1.367 . S
C761 C760 1.367 . S
C761 C763 1.433 . S
C762 C758 1.350 . S
C762 C759 1.463 . S
C762 N766 1.427 . S
C763 H753 0.929 . S
C763 C761 1.433 . S
C763 N766 1.384 . S
C764 H755 0.929 . S
C764 C756 1.378 . S
C764 C759 1.350 . S
C765 H752 0.929 . S
C765 C757 1.433 . S
C765 N767 1.384 . S
N766 C762 1.427 . S
N766 C763 1.384 . S
N767 C759 1.427 . S
N767 C765 1.384 . S
H768 C774 0.930 . S
H769 C778 0.930 . S
H770 C783 0.929 . S
H771 C781 0.929 . S
H772 C776 0.929 . S
H773 C782 0.929 . S
C774 H768 0.930 . S
C774 C775 1.367 . S
C774 C782 1.378 . S
C775 C774 1.367 . S
C775 C783 1.433 . S
C776 H772 0.929 . S
C776 C778 1.378 . S
C776 C780 1.350 . S
C777 C780 1.463 1_455 S
C777 C782 1.350 . S
C777 N785 1.427 . S
C778 H769 0.930 . S
C778 C776 1.378 . S
C778 C779 1.367 . S
C779 C778 1.367 . S
C779 C781 1.433 . S
C780 C776 1.350 . S
C780 C777 1.463 1_655 S
C780 N784 1.427 . S
C781 H771 0.929 . S
C781 C779 1.433 . S
C781 N784 1.384 . S
C782 H773 0.929 . S
C782 C774 1.378 . S
C782 C777 1.350 . S
C783 H770 0.929 . S
C783 C775 1.433 . S
C783 N785 1.384 . S
N784 C780 1.427 . S
N784 C781 1.384 . S
N785 C777 1.427 . S
N785 C783 1.384 . S
H786 C792 0.930 . S
H787 C796 0.930 . S
H788 C801 0.929 . S
H789 C799 0.929 . S
H790 C794 0.929 1_545 S
H791 C800 0.929 1_565 S
C792 H786 0.930 . S
C792 C793 1.367 . S
C792 C800 1.378 . S
C793 C792 1.367 . S
C793 C801 1.433 . S
C794 H790 0.929 1_565 S
C794 C796 1.378 . S
C794 C798 1.350 . S
C795 C798 1.463 1_546 S
C795 C800 1.350 . S
C795 N803 1.427 1_556 S
C796 H787 0.930 . S
C796 C794 1.378 . S
C796 C797 1.367 . S
C797 C796 1.367 . S
C797 C799 1.433 . S
C798 C794 1.350 . S
C798 C795 1.463 1_564 S
C798 N802 1.427 . S
C799 H789 0.929 . S
C799 C797 1.433 . S
C799 N802 1.384 . S
C800 H791 0.929 1_545 S
C800 C792 1.378 . S
C800 C795 1.350 . S
C801 H788 0.929 . S
C801 C793 1.433 . S
C801 N803 1.384 1_556 S
N802 C798 1.427 . S
N802 C799 1.384 . S
N803 C795 1.427 1_554 S
N803 C801 1.384 1_554 S
H804 C810 0.930 . S
H805 C814 0.930 . S
H806 C819 0.929 . S
H807 C817 0.929 . S
H808 C812 0.929 . S
H809 C818 0.929 . S
C810 H804 0.930 . S
C810 C811 1.367 . S
C810 C818 1.378 . S
C811 C810 1.367 . S
C811 C819 1.433 . S
C812 H808 0.929 . S
C812 C814 1.378 . S
C812 C816 1.350 . S
C813 C816 1.463 . S
C813 C818 1.350 . S
C813 N821 1.427 . S
C814 H805 0.930 . S
C814 C812 1.378 . S
C814 C815 1.367 . S
C815 C814 1.367 . S
C815 C817 1.433 . S
C816 C812 1.350 . S
C816 C813 1.463 . S
C816 N820 1.427 . S
C817 H807 0.929 . S
C817 C815 1.433 . S
C817 N820 1.384 . S
C818 H809 0.929 . S
C818 C810 1.378 . S
C818 C813 1.350 . S
C819 H806 0.929 . S
C819 C811 1.433 . S
C819 N821 1.384 . S
N820 C816 1.427 . S
N820 C817 1.384 . S
N821 C813 1.427 . S
N821 C819 1.384 . S
H822 C828 0.930 . S
H823 C832 0.930 . S
H824 C837 0.929 . S
H825 C835 0.929 . S
H826 C830 0.929 . S
H827 C836 0.929 . S
C828 H822 0.930 . S
C828 C829 1.367 . S
C828 C836 1.378 . S
C829 C828 1.367 . S
C829 C837 1.433 . S
C830 H826 0.929 . S
C830 C832 1.378 . S
C830 C834 1.350 . S
C831 C834 1.463 . S
C831 C836 1.350 . S
C831 N839 1.427 . S
C832 H823 0.930 . S
C832 C830 1.378 . S
C832 C833 1.367 . S
C833 C832 1.367 . S
C833 C835 1.433 . S
C834 C830 1.350 . S
C834 C831 1.463 . S
C834 N838 1.427 . S
C835 H825 0.929 . S
C835 C833 1.433 . S
C835 N838 1.384 . S
C836 H827 0.929 . S
C836 C828 1.378 . S
C836 C831 1.350 . S
C837 H824 0.929 . S
C837 C829 1.433 . S
C837 N839 1.384 . S
N838 C834 1.427 . S
N838 C835 1.384 . S
N839 C831 1.427 . S
N839 C837 1.384 . S
H840 C846 0.930 . S
H841 C850 0.930 . S
H842 C855 0.929 . S
H843 C853 0.929 . S
H844 C848 0.929 . S
H845 C854 0.929 . S
C846 H840 0.930 . S
C846 C847 1.367 . S
C846 C854 1.378 . S
C847 C846 1.367 . S
C847 C855 1.433 . S
C848 H844 0.929 . S
C848 C850 1.378 . S
C848 C852 1.350 . S
C849 C852 1.463 . S
C849 C854 1.350 . S
C849 N857 1.427 . S
C850 H841 0.930 . S
C850 C848 1.378 . S
C850 C851 1.367 . S
C851 C850 1.367 . S
C851 C853 1.433 . S
C852 C848 1.350 . S
C852 C849 1.463 . S
C852 N856 1.427 . S
C853 H843 0.929 . S
C853 C851 1.433 . S
C853 N856 1.384 . S
C854 H845 0.929 . S
C854 C846 1.378 . S
C854 C849 1.350 . S
C855 H842 0.929 . S
C855 C847 1.433 . S
C855 N857 1.384 . S
N856 C852 1.427 . S
N856 C853 1.384 . S
N857 C849 1.427 . S
N857 C855 1.384 . S
H858 C864 0.930 . S
H859 C868 0.930 . S
H860 C873 0.929 . S
H861 C871 0.929 . S
H862 C866 0.929 . S
H863 C872 0.929 . S
C864 H858 0.930 . S
C864 C865 1.367 . S
C864 C872 1.378 . S
C865 C864 1.367 . S
C865 C873 1.433 . S
C866 H862 0.929 . S
C866 C868 1.378 . S
C866 C870 1.350 . S
C867 C870 1.463 . S
C867 C872 1.350 . S
C867 N875 1.427 . S
C868 H859 0.930 . S
C868 C866 1.378 . S
C868 C869 1.367 . S
C869 C868 1.367 . S
C869 C871 1.433 . S
C870 C866 1.350 . S
C870 C867 1.463 . S
C870 N874 1.427 . S
C871 H861 0.929 . S
C871 C869 1.433 . S
C871 N874 1.384 . S
C872 H863 0.929 . S
C872 C864 1.378 . S
C872 C867 1.350 . S
C873 H860 0.929 . S
C873 C865 1.433 . S
C873 N875 1.384 . S
N874 C870 1.427 . S
N874 C871 1.384 . S
N875 C867 1.427 . S
N875 C873 1.384 . S
H876 C882 0.930 . S
H877 C886 0.930 . S
H878 C891 0.929 . S
H879 C889 0.929 . S
H880 C884 0.929 . S
H881 C890 0.929 . S
C882 H876 0.930 . S
C882 C883 1.367 . S
C882 C890 1.378 . S
C883 C882 1.367 . S
C883 C891 1.433 . S
C884 H880 0.929 . S
C884 C886 1.378 1_556 S
C884 C888 1.350 . S
C885 C888 1.463 . S
C885 C890 1.350 . S
C885 N893 1.427 . S
C886 H877 0.930 . S
C886 C884 1.378 1_554 S
C886 C887 1.367 . S
C887 C886 1.367 . S
C887 C889 1.433 . S
C888 C884 1.350 . S
C888 C885 1.463 . S
C888 N892 1.427 . S
C889 H879 0.929 . S
C889 C887 1.433 . S
C889 N892 1.384 1_554 S
C890 H881 0.929 . S
C890 C882 1.378 . S
C890 C885 1.350 . S
C891 H878 0.929 . S
C891 C883 1.433 . S
C891 N893 1.384 . S
N892 C888 1.427 . S
N892 C889 1.384 1_556 S
N893 C885 1.427 . S
N893 C891 1.384 . S
H894 C900 0.930 . S
H895 C904 0.930 . S
H896 C909 0.929 . S
H897 C907 0.929 . S
H898 C902 0.929 . S
H899 C908 0.929 . S
C900 H894 0.930 . S
C900 C901 1.367 1_554 S
C900 C908 1.378 . S
C901 C900 1.367 1_556 S
C901 C909 1.433 . S
C902 H898 0.929 . S
C902 C904 1.378 . S
C902 C906 1.350 . S
C903 C906 1.463 . S
C903 C908 1.350 . S
C903 N911 1.427 . S
C904 H895 0.930 . S
C904 C902 1.378 . S
C904 C905 1.367 . S
C905 C904 1.367 . S
C905 C907 1.433 . S
C906 C902 1.350 . S
C906 C903 1.463 . S
C906 N910 1.427 . S
C907 H897 0.929 . S
C907 C905 1.433 . S
C907 N910 1.384 . S
C908 H899 0.929 . S
C908 C900 1.378 . S
C908 C903 1.350 . S
C909 H896 0.929 . S
C909 C901 1.433 . S
C909 N911 1.384 1_556 S
N910 C906 1.427 . S
N910 C907 1.384 . S
N911 C903 1.427 . S
N911 C909 1.384 1_554 S
C271 C229 1.220 . S
C275 C5 1.216 . S
C289 C31 1.219 . S
C293 C247 1.219 . S
C307 C141 1.219 . S
C311 C49 1.220 . S
C325 C75 1.215 . S
C329 C159 1.219 . S
C343 C93 1.217 . S
C347 C185 1.216 . S
C361 C203 1.218 . S
C365 C119 1.220 . S
C379 C6 1.225 . S
C383 C116 1.313 . S
C397 C29 1.241 . S
C401 C7 1.321 . S
C415 C28 1.314 . S
C419 C50 1.227 . S
C433 C73 1.227 . S
C437 C51 1.314 . S
C451 C94 1.246 . S
C455 C72 1.324 . S
C469 C117 1.246 . S
C473 C95 1.324 . S
C487 C139 1.239 . S
C491 C161 1.320 . S
C505 C160 1.239 . S
C509 C182 1.321 . S
C523 C183 1.226 . S
C527 C205 1.313 . S
C541 C226 1.322 . S
C545 C204 1.242 . S
C559 C249 1.317 . S
C563 C227 1.233 . S
C577 C138 1.319 . S
C581 C248 1.237 . S
C595 C4 1.286 . S
C599 C140 1.285 . S
C613 C158 1.290 . S
C617 C30 1.291 . S
C631 C48 1.284 . S
C635 C184 1.285 . S
C649 C74 1.287 . S
C653 C202 1.286 . S
C667 C228 1.289 . S
C671 C92 1.288 . S
C685 C118 1.286 . S
C689 C246 1.285 . S
C703 C9 1.152 . S
C707 C207 1.150 . S
C721 C225 1.168 . S
C725 C27 1.151 . S
C739 C251 1.168 . S
C743 C53 1.165 . S
C757 C71 1.156 . S
C761 C137 1.148 . S
C775 C97 1.148 . S
C779 C163 1.164 . S
C793 C115 1.149 . S
C797 C181 1.153 . S
C811 C224 1.829 . S
C815 C8 1.825 . S
C829 C250 1.826 . S
C833 C26 1.828 . S
C847 C136 1.830 . S
C851 C52 1.825 . S
C865 C162 1.829 . S
C869 C70 1.825 . S
C883 C96 1.829 . S
C887 C180 1.826 . S
C901 C114 1.827 . S
C905 C206 1.828 . S
