# Generated by pormake.
# Topology ukr, (4)-cn, num edge types: 1
# Building blocks:
#     Node 0, Type 0, BuildingBlock: TATPOV_clean_sbu_0, # of connection points: 4
#     Node 1, Type 0, BuildingBlock: TATPOV_clean_sbu_0, # of connection points: 4
#     Node 2, Type 0, BuildingBlock: TATPOV_clean_sbu_0, # of connection points: 4
#     Node 3, Type 0, BuildingBlock: TATPOV_clean_sbu_0, # of connection points: 4
#     Node 4, Type 0, BuildingBlock: TATPOV_clean_sbu_0, # of connection points: 4
#     Node 5, Type 0, BuildingBlock: TATPOV_clean_sbu_0, # of connection points: 4
#     Node 6, Type 0, BuildingBlock: TATPOV_clean_sbu_0, # of connection points: 4
#     Node 7, Type 0, BuildingBlock: TATPOV_clean_sbu_0, # of connection points: 4
#     Node 8, Type 0, BuildingBlock: TATPOV_clean_sbu_0, # of connection points: 4
#     Node 9, Type 0, BuildingBlock: TATPOV_clean_sbu_0, # of connection points: 4
#     Node 10, Type 0, BuildingBlock: TATPOV_clean_sbu_0, # of connection points: 4
#     Node 11, Type 0, BuildingBlock: TATPOV_clean_sbu_0, # of connection points: 4
#     Node 12, Type 0, BuildingBlock: TATPOV_clean_sbu_0, # of connection points: 4
#     Node 13, Type 0, BuildingBlock: TATPOV_clean_sbu_0, # of connection points: 4
#     Node 14, Type 0, BuildingBlock: TATPOV_clean_sbu_0, # of connection points: 4
#     Node 15, Type 0, BuildingBlock: TATPOV_clean_sbu_0, # of connection points: 4
#     Node 16, Type 0, BuildingBlock: TATPOV_clean_sbu_0, # of connection points: 4
#     Node 17, Type 0, BuildingBlock: TATPOV_clean_sbu_0, # of connection points: 4
#     Node 18, Type 0, BuildingBlock: TATPOV_clean_sbu_0, # of connection points: 4
#     Node 19, Type 0, BuildingBlock: TATPOV_clean_sbu_0, # of connection points: 4
#     Node 20, Type 0, BuildingBlock: TATPOV_clean_sbu_0, # of connection points: 4
#     Node 21, Type 0, BuildingBlock: TATPOV_clean_sbu_0, # of connection points: 4
#     Node 22, Type 0, BuildingBlock: TATPOV_clean_sbu_0, # of connection points: 4
#     Node 23, Type 0, BuildingBlock: TATPOV_clean_sbu_0, # of connection points: 4
#     Node 24, Type 0, BuildingBlock: TATPOV_clean_sbu_0, # of connection points: 4
#     Node 25, Type 0, BuildingBlock: TATPOV_clean_sbu_0, # of connection points: 4
#     Node 26, Type 0, BuildingBlock: TATPOV_clean_sbu_0, # of connection points: 4
#     Node 27, Type 0, BuildingBlock: TATPOV_clean_sbu_0, # of connection points: 4
#     Node 28, Type 0, BuildingBlock: TATPOV_clean_sbu_0, # of connection points: 4
#     Node 29, Type 0, BuildingBlock: TATPOV_clean_sbu_0, # of connection points: 4
#     Node 30, Type 0, BuildingBlock: TATPOV_clean_sbu_0, # of connection points: 4
#     Node 31, Type 0, BuildingBlock: TATPOV_clean_sbu_0, # of connection points: 4
#     Node 32, Type 0, BuildingBlock: TATPOV_clean_sbu_0, # of connection points: 4
#     Node 33, Type 0, BuildingBlock: TATPOV_clean_sbu_0, # of connection points: 4
#     Node 34, Type 0, BuildingBlock: TATPOV_clean_sbu_0, # of connection points: 4
#     Node 35, Type 0, BuildingBlock: TATPOV_clean_sbu_0, # of connection points: 4
#     Node 36, Type 0, BuildingBlock: TATPOV_clean_sbu_0, # of connection points: 4
#     Node 37, Type 0, BuildingBlock: TATPOV_clean_sbu_0, # of connection points: 4
#     Node 38, Type 0, BuildingBlock: TATPOV_clean_sbu_0, # of connection points: 4
#     Node 39, Type 0, BuildingBlock: TATPOV_clean_sbu_0, # of connection points: 4
#     Node 40, Type 0, BuildingBlock: TATPOV_clean_sbu_0, # of connection points: 4
#     Node 41, Type 0, BuildingBlock: TATPOV_clean_sbu_0, # of connection points: 4
#     Node 42, Type 0, BuildingBlock: TATPOV_clean_sbu_0, # of connection points: 4
#     Node 43, Type 0, BuildingBlock: TATPOV_clean_sbu_0, # of connection points: 4
#     Node 44, Type 0, BuildingBlock: TATPOV_clean_sbu_0, # of connection points: 4
#     Node 45, Type 0, BuildingBlock: TATPOV_clean_sbu_0, # of connection points: 4
#     Node 46, Type 0, BuildingBlock: TATPOV_clean_sbu_0, # of connection points: 4
#     Node 47, Type 0, BuildingBlock: TATPOV_clean_sbu_0, # of connection points: 4
#     Edge 48, Type (0, 0), None
#     Edge 49, Type (0, 0), None
#     Edge 50, Type (0, 0), None
#     Edge 51, Type (0, 0), None
#     Edge 52, Type (0, 0), None
#     Edge 53, Type (0, 0), None
#     Edge 54, Type (0, 0), None
#     Edge 55, Type (0, 0), None
#     Edge 56, Type (0, 0), None
#     Edge 57, Type (0, 0), None
#     Edge 58, Type (0, 0), None
#     Edge 59, Type (0, 0), None
#     Edge 60, Type (0, 0), None
#     Edge 61, Type (0, 0), None
#     Edge 62, Type (0, 0), None
#     Edge 63, Type (0, 0), None
#     Edge 64, Type (0, 0), None
#     Edge 65, Type (0, 0), None
#     Edge 66, Type (0, 0), None
#     Edge 67, Type (0, 0), None
#     Edge 68, Type (0, 0), None
#     Edge 69, Type (0, 0), None
#     Edge 70, Type (0, 0), None
#     Edge 71, Type (0, 0), None
#     Edge 72, Type (0, 0), None
#     Edge 73, Type (0, 0), None
#     Edge 74, Type (0, 0), None
#     Edge 75, Type (0, 0), None
#     Edge 76, Type (0, 0), None
#     Edge 77, Type (0, 0), None
#     Edge 78, Type (0, 0), None
#     Edge 79, Type (0, 0), None
#     Edge 80, Type (0, 0), None
#     Edge 81, Type (0, 0), None
#     Edge 82, Type (0, 0), None
#     Edge 83, Type (0, 0), None
#     Edge 84, Type (0, 0), None
#     Edge 85, Type (0, 0), None
#     Edge 86, Type (0, 0), None
#     Edge 87, Type (0, 0), None
#     Edge 88, Type (0, 0), None
#     Edge 89, Type (0, 0), None
#     Edge 90, Type (0, 0), None
#     Edge 91, Type (0, 0), None
#     Edge 92, Type (0, 0), None
#     Edge 93, Type (0, 0), None
#     Edge 94, Type (0, 0), None
#     Edge 95, Type (0, 0), None
#     Edge 96, Type (0, 0), None
#     Edge 97, Type (0, 0), None
#     Edge 98, Type (0, 0), None
#     Edge 99, Type (0, 0), None
#     Edge 100, Type (0, 0), None
#     Edge 101, Type (0, 0), None
#     Edge 102, Type (0, 0), None
#     Edge 103, Type (0, 0), None
#     Edge 104, Type (0, 0), None
#     Edge 105, Type (0, 0), None
#     Edge 106, Type (0, 0), None
#     Edge 107, Type (0, 0), None
#     Edge 108, Type (0, 0), None
#     Edge 109, Type (0, 0), None
#     Edge 110, Type (0, 0), None
#     Edge 111, Type (0, 0), None
#     Edge 112, Type (0, 0), None
#     Edge 113, Type (0, 0), None
#     Edge 114, Type (0, 0), None
#     Edge 115, Type (0, 0), None
#     Edge 116, Type (0, 0), None
#     Edge 117, Type (0, 0), None
#     Edge 118, Type (0, 0), None
#     Edge 119, Type (0, 0), None
#     Edge 120, Type (0, 0), None
#     Edge 121, Type (0, 0), None
#     Edge 122, Type (0, 0), None
#     Edge 123, Type (0, 0), None
#     Edge 124, Type (0, 0), None
#     Edge 125, Type (0, 0), None
#     Edge 126, Type (0, 0), None
#     Edge 127, Type (0, 0), None
#     Edge 128, Type (0, 0), None
#     Edge 129, Type (0, 0), None
#     Edge 130, Type (0, 0), None
#     Edge 131, Type (0, 0), None
#     Edge 132, Type (0, 0), None
#     Edge 133, Type (0, 0), None
#     Edge 134, Type (0, 0), None
#     Edge 135, Type (0, 0), None
#     Edge 136, Type (0, 0), None
#     Edge 137, Type (0, 0), None
#     Edge 138, Type (0, 0), None
#     Edge 139, Type (0, 0), None
#     Edge 140, Type (0, 0), None
#     Edge 141, Type (0, 0), None
#     Edge 142, Type (0, 0), None
#     Edge 143, Type (0, 0), None
# Relax obj value: 0.346
# Max RMSD: 0.180
# Mean RMSD: 0.180
data_MOF--net-ukr--node1-TATPOV_clean_sbu_0--edge1-none
_symmetry_space_group_name_H-M    P1
_symmetry_Int_Tables_number       1
_symmetry_cell_setting            triclinic
loop_
_symmetry_equiv_pos_as_xyz
'x, y, z'
_cell_length_a     31.213306
_cell_length_b     31.213306
_cell_length_c     31.639412
_cell_angle_alpha  90.0
_cell_angle_beta   90.0
_cell_angle_gamma 90.0
loop_
_atom_site_label
_atom_site_type_symbol
_atom_site_fract_x
_atom_site_fract_y
_atom_site_fract_z
_atom_type_partial_charge
Zn0 Zn 0.14589 0.22236 0.24292 0.0
Zn1 Zn 0.08312 0.24497 0.21687 0.0
O2 O 0.075 0.19573 0.26284 0.0
O3 O 0.11866 0.16472 0.2218 0.0
O4 O 0.0244 0.25789 0.19449 0.0
O5 O 0.12554 0.25429 0.29597 0.0
O6 O 0.10692 0.29937 0.24701 0.0
C7 C 0.09542 0.16169 0.25392 0.0
C8 C 0.16399 0.23782 0.16852 0.0
O9 O 0.12484 0.22593 0.16725 0.0
O10 O 0.17487 0.26031 0.19972 0.0
C11 C 0.00187 0.22721 0.18033 0.0
O12 O 0.01851 0.18865 0.17792 0.0
C13 C 0.12048 0.29279 0.28439 0.0
Zn14 Zn 0.27462 0.64589 0.74292 0.0
Zn15 Zn 0.25201 0.58312 0.71687 0.0
O16 O 0.30125 0.575 0.76284 0.0
O17 O 0.33226 0.61866 0.7218 0.0
O18 O 0.23909 0.5244 0.69449 0.0
O19 O 0.24268 0.62554 0.79597 0.0
O20 O 0.19761 0.60692 0.74701 0.0
C21 C 0.33529 0.59542 0.75392 0.0
C22 C 0.25916 0.66399 0.66852 0.0
O23 O 0.27105 0.62484 0.66725 0.0
O24 O 0.23667 0.67487 0.69972 0.0
C25 C 0.26977 0.50187 0.68033 0.0
O26 O 0.30833 0.51851 0.67792 0.0
C27 C 0.20419 0.62048 0.78439 0.0
Zn28 Zn 0.85109 0.77462 0.24292 0.0
Zn29 Zn 0.91386 0.75201 0.21687 0.0
O30 O 0.92198 0.80125 0.26284 0.0
O31 O 0.87831 0.83226 0.2218 0.0
O32 O 0.97258 0.73909 0.19449 0.0
O33 O 0.87143 0.74268 0.29597 0.0
O34 O 0.89006 0.69761 0.24701 0.0
C35 C 0.90156 0.83529 0.25392 0.0
C36 C 0.83299 0.75916 0.16852 0.0
O37 O 0.87214 0.77105 0.16725 0.0
O38 O 0.82211 0.73667 0.19972 0.0
C39 C 0.99511 0.76977 0.18033 0.0
O40 O 0.97847 0.80833 0.17792 0.0
C41 C 0.8765 0.70419 0.28439 0.0
Zn42 Zn 0.72236 0.35109 0.74292 0.0
Zn43 Zn 0.74497 0.41386 0.71687 0.0
O44 O 0.69573 0.42198 0.76284 0.0
O45 O 0.66472 0.37831 0.7218 0.0
O46 O 0.75789 0.47258 0.69449 0.0
O47 O 0.75429 0.37143 0.79597 0.0
O48 O 0.79937 0.39006 0.74701 0.0
C49 C 0.66169 0.40156 0.75392 0.0
C50 C 0.73782 0.33299 0.66852 0.0
O51 O 0.72593 0.37214 0.66725 0.0
O52 O 0.76031 0.32211 0.69972 0.0
C53 C 0.72721 0.49511 0.68033 0.0
O54 O 0.68865 0.47847 0.67792 0.0
C55 C 0.79279 0.3765 0.78439 0.0
Zn56 Zn 0.23155 0.70265 0.80632 0.0
Zn57 Zn 0.12227 0.72269 0.8013 0.0
O58 O 0.1415 0.75644 0.75016 0.0
O59 O 0.21105 0.74031 0.75499 0.0
O60 O 0.05812 0.72744 0.80316 0.0
O61 O 0.18577 0.66667 0.83834 0.0
O62 O 0.13968 0.65919 0.7888 0.0
C63 C 0.17977 0.75889 0.73635 0.0
C64 C 0.18533 0.74709 0.8656 0.0
O65 O 0.14975 0.75844 0.84985 0.0
O66 O 0.19514 0.70812 0.8601 0.0
C67 C 0.04102 0.76358 0.8106 0.0
O68 O 0.06545 0.79666 0.81934 0.0
C69 C 0.1712 0.64359 0.80882 0.0
Zn70 Zn 0.79433 0.73155 0.30632 0.0
Zn71 Zn 0.77429 0.62227 0.3013 0.0
O72 O 0.74053 0.6415 0.25016 0.0
O73 O 0.75666 0.71105 0.25499 0.0
O74 O 0.76954 0.55812 0.30316 0.0
O75 O 0.83031 0.68577 0.33834 0.0
O76 O 0.83779 0.63968 0.2888 0.0
C77 C 0.73808 0.67977 0.23635 0.0
C78 C 0.74989 0.68533 0.3656 0.0
O79 O 0.73854 0.64975 0.34985 0.0
O80 O 0.78885 0.69514 0.3601 0.0
C81 C 0.7334 0.54102 0.3106 0.0
O82 O 0.70032 0.56546 0.31934 0.0
C83 C 0.85339 0.6712 0.30882 0.0
Zn84 Zn 0.76543 0.29433 0.80632 0.0
Zn85 Zn 0.87471 0.27429 0.8013 0.0
O86 O 0.85547 0.24053 0.75016 0.0
O87 O 0.78593 0.25666 0.75499 0.0
O88 O 0.93886 0.26954 0.80316 0.0
O89 O 0.81121 0.33031 0.83834 0.0
O90 O 0.85729 0.33779 0.7888 0.0
C91 C 0.81721 0.23808 0.73635 0.0
C92 C 0.81164 0.24989 0.8656 0.0
O93 O 0.84723 0.23854 0.84985 0.0
O94 O 0.80183 0.28885 0.8601 0.0
C95 C 0.95596 0.2334 0.8106 0.0
O96 O 0.93152 0.20032 0.81934 0.0
C97 C 0.82577 0.35339 0.80882 0.0
Zn98 Zn 0.20265 0.26543 0.30632 0.0
Zn99 Zn 0.22269 0.37471 0.3013 0.0
O100 O 0.25644 0.35547 0.25016 0.0
O101 O 0.24031 0.28593 0.25499 0.0
O102 O 0.22744 0.43886 0.30316 0.0
O103 O 0.16667 0.31121 0.33834 0.0
O104 O 0.15919 0.35729 0.2888 0.0
C105 C 0.25889 0.31721 0.23635 0.0
C106 C 0.24709 0.31165 0.3656 0.0
O107 O 0.25844 0.34723 0.34985 0.0
O108 O 0.20812 0.30183 0.3601 0.0
C109 C 0.26358 0.45596 0.3106 0.0
O110 O 0.29666 0.43152 0.31934 0.0
C111 C 0.14359 0.32578 0.30882 0.0
Zn112 Zn 0.19191 0.14485 0.26566 0.0
Zn113 Zn 0.18867 0.07381 0.29307 0.0
O114 O 0.22112 0.06566 0.23657 0.0
O115 O 0.18486 0.11675 0.20648 0.0
O116 O 0.18137 0.01325 0.31319 0.0
O117 O 0.25151 0.1489 0.28719 0.0
O118 O 0.23141 0.10324 0.33577 0.0
C119 C 0.20929 0.08468 0.20296 0.0
C120 C 0.11606 0.13747 0.28822 0.0
O121 O 0.12773 0.09955 0.27876 0.0
O122 O 0.14343 0.15931 0.30785 0.0
C123 C 0.1571 0.98837 0.29235 0.0
O124 O 0.13304 0.00435 0.26217 0.0
C125 C 0.25852 0.13052 0.32204 0.0
Zn126 Zn 0.35212 0.69191 0.76566 0.0
Zn127 Zn 0.42317 0.68867 0.79307 0.0
O128 O 0.43132 0.72112 0.73657 0.0
O129 O 0.38022 0.68486 0.70648 0.0
O130 O 0.48373 0.68137 0.81319 0.0
O131 O 0.34807 0.75151 0.78719 0.0
O132 O 0.39374 0.73141 0.83577 0.0
C133 C 0.4123 0.70929 0.70296 0.0
C134 C 0.3595 0.61606 0.78822 0.0
O135 O 0.39743 0.62773 0.77876 0.0
O136 O 0.33767 0.64343 0.80785 0.0
C137 C 0.50861 0.6571 0.79235 0.0
O138 O 0.49263 0.63304 0.76217 0.0
C139 C 0.36645 0.75851 0.82204 0.0
Zn140 Zn 0.80507 0.85212 0.26566 0.0
Zn141 Zn 0.80831 0.92317 0.29307 0.0
O142 O 0.77586 0.93132 0.23657 0.0
O143 O 0.81212 0.88022 0.20648 0.0
O144 O 0.81561 0.98373 0.31319 0.0
O145 O 0.74547 0.84807 0.28719 0.0
O146 O 0.76557 0.89374 0.33577 0.0
C147 C 0.78769 0.9123 0.20296 0.0
C148 C 0.88092 0.8595 0.28822 0.0
O149 O 0.86925 0.89743 0.27876 0.0
O150 O 0.85354 0.83767 0.30785 0.0
C151 C 0.83988 0.00861 0.29235 0.0
O152 O 0.86394 0.99263 0.26217 0.0
C153 C 0.73846 0.86645 0.32204 0.0
Zn154 Zn 0.64485 0.30507 0.76566 0.0
Zn155 Zn 0.57381 0.30831 0.79307 0.0
O156 O 0.56566 0.27586 0.73657 0.0
O157 O 0.61675 0.31212 0.70648 0.0
O158 O 0.51325 0.31561 0.81319 0.0
O159 O 0.6489 0.24547 0.78719 0.0
O160 O 0.60324 0.26557 0.83577 0.0
C161 C 0.58468 0.28769 0.70296 0.0
C162 C 0.63747 0.38092 0.78822 0.0
O163 O 0.59955 0.36925 0.77876 0.0
O164 O 0.65931 0.35354 0.80785 0.0
C165 C 0.48837 0.33988 0.79235 0.0
O166 O 0.50435 0.36394 0.76217 0.0
C167 C 0.63052 0.23846 0.82204 0.0
Zn168 Zn 0.25883 0.82318 0.72441 0.0
Zn169 Zn 0.22622 0.87592 0.68995 0.0
O170 O 0.25995 0.9005 0.742 0.0
O171 O 0.22904 0.85073 0.77711 0.0
O172 O 0.19613 0.92804 0.66782 0.0
O173 O 0.31449 0.84567 0.69965 0.0
O174 O 0.27045 0.85175 0.6465 0.0
C175 C 0.25067 0.88472 0.77786 0.0
C176 C 0.19133 0.78942 0.70304 0.0
O177 O 0.18184 0.82871 0.70913 0.0
O178 O 0.22694 0.78206 0.68596 0.0
C179 C 0.16572 0.94224 0.69056 0.0
O180 O 0.15098 0.91835 0.72148 0.0
C181 C 0.3083 0.84468 0.66011 0.0
Zn182 Zn 0.6738 0.75883 0.22441 0.0
Zn183 Zn 0.62106 0.72622 0.18995 0.0
O184 O 0.59648 0.75995 0.242 0.0
O185 O 0.64625 0.72904 0.27711 0.0
O186 O 0.56894 0.69613 0.16782 0.0
O187 O 0.65131 0.81449 0.19965 0.0
O188 O 0.64523 0.77045 0.1465 0.0
C189 C 0.61225 0.75067 0.27786 0.0
C190 C 0.70756 0.69133 0.20304 0.0
O191 O 0.66827 0.68184 0.20913 0.0
O192 O 0.71492 0.72694 0.18596 0.0
C193 C 0.55474 0.66572 0.19056 0.0
O194 O 0.57862 0.65098 0.22148 0.0
C195 C 0.6523 0.8083 0.16011 0.0
Zn196 Zn 0.73815 0.1738 0.72441 0.0
Zn197 Zn 0.77076 0.12106 0.68995 0.0
O198 O 0.73703 0.09648 0.742 0.0
O199 O 0.76794 0.14625 0.77711 0.0
O200 O 0.80085 0.06894 0.66782 0.0
O201 O 0.68249 0.15131 0.69965 0.0
O202 O 0.72653 0.14523 0.6465 0.0
C203 C 0.74631 0.11225 0.77786 0.0
C204 C 0.80565 0.20756 0.70304 0.0
O205 O 0.81513 0.16827 0.70913 0.0
O206 O 0.77004 0.21492 0.68596 0.0
C207 C 0.83126 0.05474 0.69056 0.0
O208 O 0.846 0.07862 0.72148 0.0
C209 C 0.68868 0.1523 0.66011 0.0
Zn210 Zn 0.32318 0.23815 0.22441 0.0
Zn211 Zn 0.37592 0.27076 0.18995 0.0
O212 O 0.4005 0.23703 0.242 0.0
O213 O 0.35073 0.26794 0.27711 0.0
O214 O 0.42804 0.30085 0.16782 0.0
O215 O 0.34567 0.18249 0.19965 0.0
O216 O 0.35175 0.22653 0.1465 0.0
C217 C 0.38472 0.24631 0.27786 0.0
C218 C 0.28942 0.30565 0.20304 0.0
O219 O 0.32871 0.31513 0.20913 0.0
O220 O 0.28206 0.27004 0.18596 0.0
C221 C 0.44224 0.33126 0.19056 0.0
O222 O 0.41835 0.346 0.22148 0.0
C223 C 0.34468 0.18868 0.16011 0.0
Zn224 Zn 0.27075 0.14977 0.20138 0.0
Zn225 Zn 0.23703 0.14478 0.09693 0.0
O226 O 0.19649 0.19114 0.11765 0.0
O227 O 0.22239 0.19355 0.18353 0.0
O228 O 0.22932 0.1364 0.03447 0.0
O229 O 0.30888 0.12382 0.15426 0.0
O230 O 0.29821 0.17001 0.10521 0.0
C231 C 0.19683 0.2071 0.15478 0.0
C232 C 0.23473 0.08062 0.16399 0.0
O233 O 0.216 0.09135 0.13 0.0
O234 O 0.27312 0.09319 0.16759 0.0
C235 C 0.194 0.14049 0.01493 0.0
O236 O 0.1588 0.14906 0.03602 0.0
C237 C 0.32249 0.15621 0.13428 0.0
Zn238 Zn 0.29124 0.80569 0.78946 0.0
Zn239 Zn 0.28537 0.83822 0.89084 0.0
O240 O 0.23388 0.79937 0.89205 0.0
O241 O 0.24028 0.77872 0.82507 0.0
O242 O 0.29207 0.86023 0.94958 0.0
O243 O 0.34472 0.82932 0.81993 0.0
O244 O 0.33633 0.79643 0.87863 0.0
C245 C 0.22078 0.7777 0.86055 0.0
C246 C 0.28183 0.88814 0.81251 0.0
O247 O 0.26635 0.8866 0.84953 0.0
O248 O 0.31496 0.86551 0.80678 0.0
C249 C 0.26064 0.87726 0.96868 0.0
O250 O 0.22499 0.88492 0.94797 0.0
C251 C 0.35622 0.79897 0.84386 0.0
Zn252 Zn 0.69129 0.79124 0.28946 0.0
Zn253 Zn 0.65876 0.78537 0.39084 0.0
O254 O 0.69761 0.73388 0.39205 0.0
O255 O 0.71826 0.74028 0.32507 0.0
O256 O 0.63675 0.79207 0.44958 0.0
O257 O 0.66766 0.84472 0.31993 0.0
O258 O 0.70055 0.83633 0.37863 0.0
C259 C 0.71928 0.72078 0.36055 0.0
C260 C 0.60883 0.78183 0.31251 0.0
O261 O 0.61038 0.76635 0.34953 0.0
O262 O 0.63147 0.81496 0.30678 0.0
C263 C 0.61971 0.76064 0.46868 0.0
O264 O 0.61206 0.72499 0.44797 0.0
C265 C 0.69801 0.85622 0.34386 0.0
Zn266 Zn 0.70574 0.19129 0.78946 0.0
Zn267 Zn 0.71161 0.15876 0.89084 0.0
O268 O 0.76309 0.19761 0.89205 0.0
O269 O 0.7567 0.21826 0.82507 0.0
O270 O 0.70491 0.13675 0.94958 0.0
O271 O 0.65226 0.16766 0.81993 0.0
O272 O 0.66065 0.20055 0.87863 0.0
C273 C 0.7762 0.21928 0.86055 0.0
C274 C 0.71515 0.10883 0.81251 0.0
O275 O 0.73063 0.11038 0.84953 0.0
O276 O 0.68201 0.13147 0.80678 0.0
C277 C 0.73634 0.11971 0.96868 0.0
O278 O 0.77199 0.11206 0.94797 0.0
C279 C 0.64075 0.19801 0.84386 0.0
Zn280 Zn 0.30569 0.20574 0.28946 0.0
Zn281 Zn 0.33822 0.21161 0.39084 0.0
O282 O 0.29937 0.26309 0.39205 0.0
O283 O 0.27872 0.2567 0.32507 0.0
O284 O 0.36023 0.20491 0.44958 0.0
O285 O 0.32932 0.15226 0.31993 0.0
O286 O 0.29643 0.16065 0.37863 0.0
C287 C 0.2777 0.2762 0.36055 0.0
C288 C 0.38814 0.21515 0.31251 0.0
O289 O 0.3866 0.23063 0.34953 0.0
O290 O 0.36551 0.18201 0.30678 0.0
C291 C 0.37726 0.23634 0.46868 0.0
O292 O 0.38492 0.27199 0.44797 0.0
C293 C 0.29897 0.14075 0.34386 0.0
Zn294 Zn 0.72623 0.8472 0.20138 0.0
Zn295 Zn 0.75994 0.8522 0.09693 0.0
O296 O 0.80049 0.80584 0.11765 0.0
O297 O 0.77459 0.80343 0.18353 0.0
O298 O 0.76766 0.86058 0.03447 0.0
O299 O 0.6881 0.87316 0.15426 0.0
O300 O 0.69877 0.82697 0.10521 0.0
C301 C 0.80015 0.78988 0.15478 0.0
C302 C 0.76225 0.91636 0.16399 0.0
O303 O 0.78098 0.90563 0.13 0.0
O304 O 0.72386 0.90379 0.16759 0.0
C305 C 0.80297 0.85649 0.01493 0.0
O306 O 0.83817 0.84791 0.03602 0.0
C307 C 0.67449 0.84077 0.13428 0.0
Zn308 Zn 0.64977 0.22623 0.70138 0.0
Zn309 Zn 0.64478 0.25994 0.59693 0.0
O310 O 0.69114 0.30049 0.61765 0.0
O311 O 0.69355 0.27459 0.68353 0.0
O312 O 0.6364 0.26766 0.53447 0.0
O313 O 0.62382 0.1881 0.65426 0.0
O314 O 0.67001 0.19877 0.60521 0.0
C315 C 0.7071 0.30015 0.65478 0.0
C316 C 0.58062 0.26225 0.66399 0.0
O317 O 0.59135 0.28098 0.63 0.0
O318 O 0.59319 0.22386 0.66759 0.0
C319 C 0.64049 0.30297 0.51493 0.0
O320 O 0.64906 0.33817 0.53602 0.0
C321 C 0.65621 0.17449 0.63428 0.0
Zn322 Zn 0.3472 0.77075 0.70138 0.0
Zn323 Zn 0.3522 0.73703 0.59693 0.0
O324 O 0.30584 0.69649 0.61765 0.0
O325 O 0.30343 0.72239 0.68353 0.0
O326 O 0.36058 0.72932 0.53447 0.0
O327 O 0.37316 0.80888 0.65426 0.0
O328 O 0.32697 0.79821 0.60521 0.0
C329 C 0.28988 0.69683 0.65478 0.0
C330 C 0.41636 0.73473 0.66399 0.0
O331 O 0.40563 0.716 0.63 0.0
O332 O 0.40379 0.77312 0.66759 0.0
C333 C 0.35649 0.694 0.51493 0.0
O334 O 0.34791 0.6588 0.53602 0.0
C335 C 0.34077 0.82249 0.63428 0.0
Zn336 Zn 0.85109 0.77462 0.74063 0.0
Zn337 Zn 0.91386 0.75201 0.76668 0.0
O338 O 0.92198 0.80125 0.72071 0.0
O339 O 0.87831 0.83226 0.76175 0.0
O340 O 0.97258 0.73909 0.78906 0.0
O341 O 0.87143 0.74269 0.68758 0.0
O342 O 0.89006 0.69761 0.73654 0.0
C343 C 0.90156 0.83529 0.72963 0.0
C344 C 0.83299 0.75915 0.81503 0.0
O345 O 0.87214 0.77105 0.8163 0.0
O346 O 0.82211 0.73667 0.78383 0.0
C347 C 0.99511 0.76977 0.80321 0.0
O348 O 0.97847 0.80833 0.80562 0.0
C349 C 0.8765 0.70419 0.69916 0.0
Zn350 Zn 0.72236 0.35109 0.24063 0.0
Zn351 Zn 0.74497 0.41386 0.26668 0.0
O352 O 0.69573 0.42198 0.22071 0.0
O353 O 0.66472 0.37831 0.26175 0.0
O354 O 0.75789 0.47258 0.28906 0.0
O355 O 0.75429 0.37143 0.18758 0.0
O356 O 0.79937 0.39006 0.23654 0.0
C357 C 0.66169 0.40156 0.22963 0.0
C358 C 0.73782 0.33299 0.31503 0.0
O359 O 0.72593 0.37214 0.3163 0.0
O360 O 0.76031 0.32211 0.28383 0.0
C361 C 0.72721 0.49511 0.30321 0.0
O362 O 0.68865 0.47847 0.30562 0.0
C363 C 0.79279 0.3765 0.19916 0.0
Zn364 Zn 0.14589 0.22236 0.74063 0.0
Zn365 Zn 0.08312 0.24497 0.76668 0.0
O366 O 0.075 0.19573 0.72071 0.0
O367 O 0.11867 0.16472 0.76175 0.0
O368 O 0.0244 0.25789 0.78906 0.0
O369 O 0.12555 0.25429 0.68758 0.0
O370 O 0.10692 0.29937 0.73654 0.0
C371 C 0.09542 0.16169 0.72963 0.0
C372 C 0.16399 0.23782 0.81503 0.0
O373 O 0.12484 0.22593 0.8163 0.0
O374 O 0.17487 0.26031 0.78383 0.0
C375 C 0.00187 0.22721 0.80321 0.0
O376 O 0.01851 0.18865 0.80562 0.0
C377 C 0.12048 0.29279 0.69916 0.0
Zn378 Zn 0.27462 0.64589 0.24063 0.0
Zn379 Zn 0.25201 0.58312 0.26668 0.0
O380 O 0.30125 0.575 0.22071 0.0
O381 O 0.33226 0.61867 0.26175 0.0
O382 O 0.23909 0.5244 0.28906 0.0
O383 O 0.24269 0.62555 0.18758 0.0
O384 O 0.19761 0.60692 0.23654 0.0
C385 C 0.33529 0.59542 0.22963 0.0
C386 C 0.25915 0.66399 0.31503 0.0
O387 O 0.27105 0.62484 0.3163 0.0
O388 O 0.23667 0.67487 0.28383 0.0
C389 C 0.26977 0.50187 0.30321 0.0
O390 O 0.30833 0.51851 0.30562 0.0
C391 C 0.20419 0.62048 0.19916 0.0
Zn392 Zn 0.76543 0.29433 0.17723 0.0
Zn393 Zn 0.87471 0.27429 0.18225 0.0
O394 O 0.85547 0.24053 0.23339 0.0
O395 O 0.78593 0.25666 0.22856 0.0
O396 O 0.93886 0.26954 0.18039 0.0
O397 O 0.81121 0.3303 0.14521 0.0
O398 O 0.85729 0.33779 0.19475 0.0
C399 C 0.81721 0.23808 0.2472 0.0
C400 C 0.81164 0.24989 0.11795 0.0
O401 O 0.84723 0.23854 0.1337 0.0
O402 O 0.80183 0.28885 0.12345 0.0
C403 C 0.95596 0.2334 0.17295 0.0
O404 O 0.93153 0.20032 0.16421 0.0
C405 C 0.82577 0.35339 0.17473 0.0
Zn406 Zn 0.20265 0.26543 0.67723 0.0
Zn407 Zn 0.22269 0.37471 0.68225 0.0
O408 O 0.25645 0.35547 0.73339 0.0
O409 O 0.24032 0.28593 0.72856 0.0
O410 O 0.22744 0.43886 0.68039 0.0
O411 O 0.16667 0.31121 0.64521 0.0
O412 O 0.15919 0.35729 0.69475 0.0
C413 C 0.2589 0.31721 0.7472 0.0
C414 C 0.24709 0.31164 0.61795 0.0
O415 O 0.25844 0.34723 0.6337 0.0
O416 O 0.20813 0.30183 0.62345 0.0
C417 C 0.26358 0.45596 0.67295 0.0
O418 O 0.29666 0.43153 0.66421 0.0
C419 C 0.14359 0.32577 0.67473 0.0
Zn420 Zn 0.23155 0.70265 0.17723 0.0
Zn421 Zn 0.12227 0.72269 0.18225 0.0
O422 O 0.1415 0.75645 0.23339 0.0
O423 O 0.21105 0.74032 0.22856 0.0
O424 O 0.05812 0.72744 0.18039 0.0
O425 O 0.18577 0.66667 0.14521 0.0
O426 O 0.13968 0.65919 0.19475 0.0
C427 C 0.17977 0.7589 0.2472 0.0
C428 C 0.18534 0.74709 0.11795 0.0
O429 O 0.14975 0.75844 0.1337 0.0
O430 O 0.19515 0.70813 0.12345 0.0
C431 C 0.04102 0.76358 0.17295 0.0
O432 O 0.06545 0.79666 0.16421 0.0
C433 C 0.17121 0.64359 0.17473 0.0
Zn434 Zn 0.79433 0.73155 0.67723 0.0
Zn435 Zn 0.77429 0.62227 0.68225 0.0
O436 O 0.74053 0.6415 0.73339 0.0
O437 O 0.75666 0.71105 0.72856 0.0
O438 O 0.76954 0.55812 0.68039 0.0
O439 O 0.8303 0.68577 0.64521 0.0
O440 O 0.83779 0.63968 0.69475 0.0
C441 C 0.73808 0.67977 0.7472 0.0
C442 C 0.74989 0.68534 0.61795 0.0
O443 O 0.73854 0.64975 0.6337 0.0
O444 O 0.78885 0.69515 0.62345 0.0
C445 C 0.7334 0.54102 0.67295 0.0
O446 O 0.70032 0.56545 0.66421 0.0
C447 C 0.85339 0.67121 0.67473 0.0
Zn448 Zn 0.80507 0.85212 0.71789 0.0
Zn449 Zn 0.8083 0.92317 0.69049 0.0
O450 O 0.77586 0.93132 0.74698 0.0
O451 O 0.81212 0.88022 0.77707 0.0
O452 O 0.8156 0.98373 0.67036 0.0
O453 O 0.74546 0.84807 0.69636 0.0
O454 O 0.76556 0.89374 0.64779 0.0
C455 C 0.78768 0.9123 0.78059 0.0
C456 C 0.88091 0.8595 0.69533 0.0
O457 O 0.86925 0.89743 0.70479 0.0
O458 O 0.85354 0.83767 0.6757 0.0
C459 C 0.83988 0.0086 0.6912 0.0
O460 O 0.86395 0.99264 0.72139 0.0
C461 C 0.73846 0.86645 0.66151 0.0
Zn462 Zn 0.64486 0.30507 0.21789 0.0
Zn463 Zn 0.57381 0.3083 0.19049 0.0
O464 O 0.56566 0.27586 0.24698 0.0
O465 O 0.61676 0.31212 0.27707 0.0
O466 O 0.51325 0.3156 0.17036 0.0
O467 O 0.64891 0.24546 0.19636 0.0
O468 O 0.60324 0.26556 0.14779 0.0
C469 C 0.58468 0.28768 0.28059 0.0
C470 C 0.63747 0.38091 0.19533 0.0
O471 O 0.59955 0.36925 0.20479 0.0
O472 O 0.65931 0.35354 0.1757 0.0
C473 C 0.48838 0.33988 0.1912 0.0
O474 O 0.50434 0.36395 0.22139 0.0
C475 C 0.63052 0.23846 0.16151 0.0
Zn476 Zn 0.19191 0.14486 0.71789 0.0
Zn477 Zn 0.18867 0.07381 0.69049 0.0
O478 O 0.22112 0.06566 0.74698 0.0
O479 O 0.18486 0.11676 0.77707 0.0
O480 O 0.18137 0.01325 0.67036 0.0
O481 O 0.25151 0.1489 0.69636 0.0
O482 O 0.23142 0.10324 0.64779 0.0
C483 C 0.2093 0.08468 0.78059 0.0
C484 C 0.11607 0.13747 0.69533 0.0
O485 O 0.12773 0.09955 0.70479 0.0
O486 O 0.14344 0.15931 0.6757 0.0
C487 C 0.1571 0.98838 0.6912 0.0
O488 O 0.13303 0.00434 0.72139 0.0
C489 C 0.25852 0.13052 0.66151 0.0
Zn490 Zn 0.35212 0.69191 0.21789 0.0
Zn491 Zn 0.42317 0.68867 0.19049 0.0
O492 O 0.43132 0.72112 0.24698 0.0
O493 O 0.38022 0.68486 0.27707 0.0
O494 O 0.48373 0.68137 0.17036 0.0
O495 O 0.34807 0.75151 0.19636 0.0
O496 O 0.39374 0.73142 0.14779 0.0
C497 C 0.4123 0.7093 0.28059 0.0
C498 C 0.3595 0.61607 0.19533 0.0
O499 O 0.39743 0.62773 0.20479 0.0
O500 O 0.33767 0.64344 0.1757 0.0
C501 C 0.5086 0.6571 0.1912 0.0
O502 O 0.49264 0.63303 0.22139 0.0
C503 C 0.36645 0.75852 0.16151 0.0
Zn504 Zn 0.73815 0.17379 0.25914 0.0
Zn505 Zn 0.77077 0.12106 0.2936 0.0
O506 O 0.73703 0.09647 0.24156 0.0
O507 O 0.76794 0.14625 0.20645 0.0
O508 O 0.80086 0.06894 0.31573 0.0
O509 O 0.68249 0.1513 0.2839 0.0
O510 O 0.72654 0.14523 0.33705 0.0
C511 C 0.74631 0.11225 0.20569 0.0
C512 C 0.80565 0.20755 0.28051 0.0
O513 O 0.81514 0.16827 0.27442 0.0
O514 O 0.77004 0.21492 0.29759 0.0
C515 C 0.83127 0.05475 0.293 0.0
O516 O 0.84602 0.07862 0.26207 0.0
C517 C 0.68868 0.1523 0.32344 0.0
Zn518 Zn 0.32318 0.23815 0.75914 0.0
Zn519 Zn 0.37592 0.27077 0.7936 0.0
O520 O 0.4005 0.23703 0.74156 0.0
O521 O 0.35073 0.26794 0.70645 0.0
O522 O 0.42804 0.30086 0.81573 0.0
O523 O 0.34568 0.18249 0.7839 0.0
O524 O 0.35175 0.22654 0.83705 0.0
C525 C 0.38473 0.24631 0.70569 0.0
C526 C 0.28942 0.30565 0.78051 0.0
O527 O 0.32871 0.31514 0.77442 0.0
O528 O 0.28206 0.27004 0.79759 0.0
C529 C 0.44223 0.33127 0.793 0.0
O530 O 0.41836 0.34602 0.76207 0.0
C531 C 0.34468 0.18868 0.82344 0.0
Zn532 Zn 0.25883 0.82319 0.25914 0.0
Zn533 Zn 0.22621 0.87592 0.2936 0.0
O534 O 0.25995 0.9005 0.24156 0.0
O535 O 0.22904 0.85073 0.20644 0.0
O536 O 0.19612 0.92804 0.31573 0.0
O537 O 0.31449 0.84568 0.2839 0.0
O538 O 0.27044 0.85175 0.33705 0.0
C539 C 0.25067 0.88473 0.20569 0.0
C540 C 0.19133 0.78942 0.28051 0.0
O541 O 0.18184 0.82871 0.27442 0.0
O542 O 0.22694 0.78206 0.29759 0.0
C543 C 0.16571 0.94223 0.293 0.0
O544 O 0.15096 0.91836 0.26207 0.0
C545 C 0.3083 0.84468 0.32344 0.0
Zn546 Zn 0.67379 0.75883 0.75914 0.0
Zn547 Zn 0.62106 0.72621 0.7936 0.0
O548 O 0.59647 0.75995 0.74156 0.0
O549 O 0.64625 0.72904 0.70644 0.0
O550 O 0.56894 0.69612 0.81573 0.0
O551 O 0.6513 0.81449 0.7839 0.0
O552 O 0.64523 0.77044 0.83705 0.0
C553 C 0.61225 0.75067 0.70569 0.0
C554 C 0.70755 0.69132 0.78051 0.0
O555 O 0.66827 0.68184 0.77442 0.0
O556 O 0.71492 0.72694 0.79759 0.0
C557 C 0.55475 0.66571 0.793 0.0
O558 O 0.57862 0.65096 0.76207 0.0
C559 C 0.6523 0.8083 0.82344 0.0
Zn560 Zn 0.72623 0.8472 0.78217 0.0
Zn561 Zn 0.75994 0.8522 0.88662 0.0
O562 O 0.80049 0.80584 0.8659 0.0
O563 O 0.77459 0.80343 0.80002 0.0
O564 O 0.76766 0.86058 0.94909 0.0
O565 O 0.6881 0.87316 0.8293 0.0
O566 O 0.69876 0.82697 0.87834 0.0
C567 C 0.80015 0.78988 0.82877 0.0
C568 C 0.76225 0.91636 0.81957 0.0
O569 O 0.78098 0.90563 0.85355 0.0
O570 O 0.72385 0.90379 0.81597 0.0
C571 C 0.80297 0.85649 0.96862 0.0
O572 O 0.83818 0.84791 0.94753 0.0
C573 C 0.67449 0.84076 0.84927 0.0
Zn574 Zn 0.70574 0.19129 0.19409 0.0
Zn575 Zn 0.71161 0.15875 0.09271 0.0
O576 O 0.76309 0.19761 0.09151 0.0
O577 O 0.7567 0.21826 0.15848 0.0
O578 O 0.70491 0.13674 0.03398 0.0
O579 O 0.65226 0.16766 0.16362 0.0
O580 O 0.66065 0.20054 0.10492 0.0
C581 C 0.7762 0.21928 0.123 0.0
C582 C 0.71515 0.10883 0.17104 0.0
O583 O 0.73063 0.11038 0.13402 0.0
O584 O 0.68202 0.13147 0.17678 0.0
C585 C 0.73634 0.11971 0.01488 0.0
O586 O 0.772 0.11205 0.03558 0.0
C587 C 0.64075 0.198 0.13969 0.0
Zn588 Zn 0.30569 0.20574 0.69409 0.0
Zn589 Zn 0.33823 0.21161 0.59271 0.0
O590 O 0.29937 0.26309 0.59151 0.0
O591 O 0.27872 0.2567 0.65848 0.0
O592 O 0.36024 0.20491 0.53398 0.0
O593 O 0.32932 0.15226 0.66362 0.0
O594 O 0.29643 0.16065 0.60492 0.0
C595 C 0.2777 0.2762 0.623 0.0
C596 C 0.38815 0.21515 0.67104 0.0
O597 O 0.3866 0.23063 0.63402 0.0
O598 O 0.36551 0.18202 0.67678 0.0
C599 C 0.37727 0.23634 0.51488 0.0
O600 O 0.38493 0.272 0.53558 0.0
C601 C 0.29898 0.14075 0.63969 0.0
Zn602 Zn 0.29124 0.80569 0.19409 0.0
Zn603 Zn 0.28537 0.83823 0.09271 0.0
O604 O 0.23389 0.79937 0.09151 0.0
O605 O 0.24028 0.77872 0.15848 0.0
O606 O 0.29207 0.86024 0.03398 0.0
O607 O 0.34472 0.82932 0.16362 0.0
O608 O 0.33633 0.79643 0.10492 0.0
C609 C 0.22078 0.7777 0.123 0.0
C610 C 0.28183 0.88815 0.17104 0.0
O611 O 0.26635 0.8866 0.13402 0.0
O612 O 0.31496 0.86551 0.17678 0.0
C613 C 0.26063 0.87727 0.01488 0.0
O614 O 0.22498 0.88493 0.03558 0.0
C615 C 0.35622 0.79898 0.13969 0.0
Zn616 Zn 0.69129 0.79124 0.69409 0.0
Zn617 Zn 0.65875 0.78537 0.59271 0.0
O618 O 0.69761 0.73389 0.59151 0.0
O619 O 0.71826 0.74028 0.65848 0.0
O620 O 0.63674 0.79207 0.53398 0.0
O621 O 0.66766 0.84472 0.66362 0.0
O622 O 0.70054 0.83633 0.60492 0.0
C623 C 0.71928 0.72078 0.623 0.0
C624 C 0.60883 0.78183 0.67104 0.0
O625 O 0.61037 0.76635 0.63402 0.0
O626 O 0.63147 0.81496 0.67678 0.0
C627 C 0.61971 0.76063 0.51488 0.0
O628 O 0.61205 0.72498 0.53558 0.0
C629 C 0.698 0.85622 0.63969 0.0
Zn630 Zn 0.27075 0.14978 0.78217 0.0
Zn631 Zn 0.23704 0.14478 0.88662 0.0
O632 O 0.19649 0.19114 0.8659 0.0
O633 O 0.22239 0.19355 0.80002 0.0
O634 O 0.22932 0.1364 0.94909 0.0
O635 O 0.30888 0.12382 0.8293 0.0
O636 O 0.29821 0.17001 0.87834 0.0
C637 C 0.19683 0.2071 0.82877 0.0
C638 C 0.23473 0.08062 0.81957 0.0
O639 O 0.216 0.09135 0.85355 0.0
O640 O 0.27313 0.09319 0.81597 0.0
C641 C 0.194 0.14049 0.96862 0.0
O642 O 0.1588 0.14906 0.94753 0.0
C643 C 0.32249 0.15621 0.84927 0.0
Zn644 Zn 0.3472 0.77075 0.28217 0.0
Zn645 Zn 0.3522 0.73704 0.38662 0.0
O646 O 0.30584 0.69649 0.3659 0.0
O647 O 0.30343 0.72239 0.30002 0.0
O648 O 0.36058 0.72932 0.44909 0.0
O649 O 0.37316 0.80888 0.3293 0.0
O650 O 0.32697 0.79821 0.37834 0.0
C651 C 0.28988 0.69683 0.32877 0.0
C652 C 0.41636 0.73473 0.31957 0.0
O653 O 0.40563 0.716 0.35355 0.0
O654 O 0.40379 0.77313 0.31597 0.0
C655 C 0.35649 0.694 0.46862 0.0
O656 O 0.34791 0.6588 0.44753 0.0
C657 C 0.34076 0.82249 0.34927 0.0
Zn658 Zn 0.64978 0.22623 0.28217 0.0
Zn659 Zn 0.64478 0.25994 0.38662 0.0
O660 O 0.69114 0.30049 0.3659 0.0
O661 O 0.69355 0.27459 0.30002 0.0
O662 O 0.6364 0.26766 0.44909 0.0
O663 O 0.62382 0.1881 0.3293 0.0
O664 O 0.67001 0.19877 0.37834 0.0
C665 C 0.7071 0.30015 0.32877 0.0
C666 C 0.58062 0.26225 0.31957 0.0
O667 O 0.59135 0.28098 0.35355 0.0
O668 O 0.59319 0.22385 0.31597 0.0
C669 C 0.64049 0.30297 0.46862 0.0
O670 O 0.64906 0.33818 0.44753 0.0
C671 C 0.65621 0.17449 0.34927 0.0
loop_
_geom_bond_atom_site_label_1
_geom_bond_atom_site_label_2
_geom_bond_distance
_geom_bond_site_symmetry_2
_ccdc_geom_bond_type
Zn0 O3 2.031 . S
Zn0 O5 2.049 . S
Zn0 O10 2.067 . S
Zn1 O2 1.962 . S
Zn1 O4 1.986 . S
Zn1 O6 1.996 . S
Zn1 O9 1.943 . S
O2 Zn1 1.962 . S
O2 C7 1.254 . S
O3 Zn0 2.031 . S
O3 C7 1.269 . S
O4 Zn1 1.986 . S
O4 C11 1.262 . S
O5 Zn0 2.049 . S
O5 C13 1.260 . S
O6 Zn1 1.996 . S
O6 C13 1.257 . S
C7 O2 1.254 . S
C7 O3 1.269 . S
C8 O9 1.249 . S
C8 O10 1.270 . S
O9 Zn1 1.943 . S
O9 C8 1.249 . S
O10 Zn0 2.067 . S
O10 C8 1.270 . S
C11 O4 1.262 . S
C11 O12 1.232 . S
O12 C11 1.232 . S
C13 O5 1.260 . S
C13 O6 1.257 . S
Zn14 O17 2.031 . S
Zn14 O19 2.049 . S
Zn14 O24 2.067 . S
Zn15 O16 1.962 . S
Zn15 O18 1.986 . S
Zn15 O20 1.996 . S
Zn15 O23 1.943 . S
O16 Zn15 1.962 . S
O16 C21 1.254 . S
O17 Zn14 2.031 . S
O17 C21 1.269 . S
O18 Zn15 1.986 . S
O18 C25 1.262 . S
O19 Zn14 2.049 . S
O19 C27 1.260 . S
O20 Zn15 1.996 . S
O20 C27 1.257 . S
C21 O16 1.254 . S
C21 O17 1.269 . S
C22 O23 1.249 . S
C22 O24 1.270 . S
O23 Zn15 1.943 . S
O23 C22 1.249 . S
O24 Zn14 2.067 . S
O24 C22 1.270 . S
C25 O18 1.262 . S
C25 O26 1.232 . S
O26 C25 1.232 . S
C27 O19 1.260 . S
C27 O20 1.257 . S
Zn28 O31 2.031 . S
Zn28 O33 2.049 . S
Zn28 O38 2.067 . S
Zn29 O30 1.962 . S
Zn29 O32 1.986 . S
Zn29 O34 1.996 . S
Zn29 O37 1.943 . S
O30 Zn29 1.962 . S
O30 C35 1.254 . S
O31 Zn28 2.031 . S
O31 C35 1.269 . S
O32 Zn29 1.986 . S
O32 C39 1.262 . S
O33 Zn28 2.049 . S
O33 C41 1.260 . S
O34 Zn29 1.996 . S
O34 C41 1.257 . S
C35 O30 1.254 . S
C35 O31 1.269 . S
C36 O37 1.249 . S
C36 O38 1.270 . S
O37 Zn29 1.943 . S
O37 C36 1.249 . S
O38 Zn28 2.067 . S
O38 C36 1.270 . S
C39 O32 1.262 . S
C39 O40 1.232 . S
O40 C39 1.232 . S
C41 O33 1.260 . S
C41 O34 1.257 . S
Zn42 O45 2.031 . S
Zn42 O47 2.049 . S
Zn42 O52 2.067 . S
Zn43 O44 1.962 . S
Zn43 O46 1.986 . S
Zn43 O48 1.996 . S
Zn43 O51 1.943 . S
O44 Zn43 1.962 . S
O44 C49 1.254 . S
O45 Zn42 2.031 . S
O45 C49 1.269 . S
O46 Zn43 1.986 . S
O46 C53 1.262 . S
O47 Zn42 2.049 . S
O47 C55 1.260 . S
O48 Zn43 1.996 . S
O48 C55 1.257 . S
C49 O44 1.254 . S
C49 O45 1.269 . S
C50 O51 1.249 . S
C50 O52 1.270 . S
O51 Zn43 1.943 . S
O51 C50 1.249 . S
O52 Zn42 2.067 . S
O52 C50 1.270 . S
C53 O46 1.262 . S
C53 O54 1.232 . S
O54 C53 1.232 . S
C55 O47 1.260 . S
C55 O48 1.257 . S
Zn56 O59 2.031 . S
Zn56 O61 2.049 . S
Zn56 O66 2.067 . S
Zn57 O58 1.962 . S
Zn57 O60 1.986 . S
Zn57 O62 1.996 . S
Zn57 O65 1.943 . S
O58 Zn57 1.962 . S
O58 C63 1.254 . S
O59 Zn56 2.031 . S
O59 C63 1.269 . S
O60 Zn57 1.986 . S
O60 C67 1.262 . S
O61 Zn56 2.049 . S
O61 C69 1.260 . S
O62 Zn57 1.996 . S
O62 C69 1.257 . S
C63 O58 1.254 . S
C63 O59 1.269 . S
C64 O65 1.249 . S
C64 O66 1.270 . S
O65 Zn57 1.943 . S
O65 C64 1.249 . S
O66 Zn56 2.067 . S
O66 C64 1.270 . S
C67 O60 1.262 . S
C67 O68 1.232 . S
O68 C67 1.232 . S
C69 O61 1.260 . S
C69 O62 1.257 . S
Zn70 O73 2.031 . S
Zn70 O75 2.049 . S
Zn70 O80 2.067 . S
Zn71 O72 1.962 . S
Zn71 O74 1.986 . S
Zn71 O76 1.996 . S
Zn71 O79 1.943 . S
O72 Zn71 1.962 . S
O72 C77 1.254 . S
O73 Zn70 2.031 . S
O73 C77 1.269 . S
O74 Zn71 1.986 . S
O74 C81 1.262 . S
O75 Zn70 2.049 . S
O75 C83 1.260 . S
O76 Zn71 1.996 . S
O76 C83 1.257 . S
C77 O72 1.254 . S
C77 O73 1.269 . S
C78 O79 1.249 . S
C78 O80 1.270 . S
O79 Zn71 1.943 . S
O79 C78 1.249 . S
O80 Zn70 2.067 . S
O80 C78 1.270 . S
C81 O74 1.262 . S
C81 O82 1.232 . S
O82 C81 1.232 . S
C83 O75 1.260 . S
C83 O76 1.257 . S
Zn84 O87 2.031 . S
Zn84 O89 2.049 . S
Zn84 O94 2.067 . S
Zn85 O86 1.962 . S
Zn85 O88 1.986 . S
Zn85 O90 1.996 . S
Zn85 O93 1.943 . S
O86 Zn85 1.962 . S
O86 C91 1.254 . S
O87 Zn84 2.031 . S
O87 C91 1.269 . S
O88 Zn85 1.986 . S
O88 C95 1.262 . S
O89 Zn84 2.049 . S
O89 C97 1.260 . S
O90 Zn85 1.996 . S
O90 C97 1.257 . S
C91 O86 1.254 . S
C91 O87 1.269 . S
C92 O93 1.249 . S
C92 O94 1.270 . S
O93 Zn85 1.943 . S
O93 C92 1.249 . S
O94 Zn84 2.067 . S
O94 C92 1.270 . S
C95 O88 1.262 . S
C95 O96 1.232 . S
O96 C95 1.232 . S
C97 O89 1.260 . S
C97 O90 1.257 . S
Zn98 O101 2.031 . S
Zn98 O103 2.049 . S
Zn98 O108 2.067 . S
Zn99 O100 1.962 . S
Zn99 O102 1.986 . S
Zn99 O104 1.996 . S
Zn99 O107 1.943 . S
O100 Zn99 1.962 . S
O100 C105 1.254 . S
O101 Zn98 2.031 . S
O101 C105 1.269 . S
O102 Zn99 1.986 . S
O102 C109 1.262 . S
O103 Zn98 2.049 . S
O103 C111 1.260 . S
O104 Zn99 1.996 . S
O104 C111 1.257 . S
C105 O100 1.254 . S
C105 O101 1.269 . S
C106 O107 1.249 . S
C106 O108 1.270 . S
O107 Zn99 1.943 . S
O107 C106 1.249 . S
O108 Zn98 2.067 . S
O108 C106 1.270 . S
C109 O102 1.262 . S
C109 O110 1.232 . S
O110 C109 1.232 . S
C111 O103 1.260 . S
C111 O104 1.257 . S
Zn112 O115 2.031 . S
Zn112 O117 2.049 . S
Zn112 O122 2.067 . S
Zn113 O114 1.962 . S
Zn113 O116 1.986 . S
Zn113 O118 1.996 . S
Zn113 O121 1.943 . S
O114 Zn113 1.962 . S
O114 C119 1.254 . S
O115 Zn112 2.031 . S
O115 C119 1.269 . S
O116 Zn113 1.986 . S
O116 C123 1.262 . S
O117 Zn112 2.049 . S
O117 C125 1.260 . S
O118 Zn113 1.996 . S
O118 C125 1.257 . S
C119 O114 1.254 . S
C119 O115 1.269 . S
C120 O121 1.249 . S
C120 O122 1.270 . S
O121 Zn113 1.943 . S
O121 C120 1.249 . S
O122 Zn112 2.067 . S
O122 C120 1.270 . S
C123 O116 1.262 . S
C123 O124 1.232 . S
O124 C123 1.232 . S
C125 O117 1.260 . S
C125 O118 1.257 . S
Zn126 O129 2.031 . S
Zn126 O131 2.049 . S
Zn126 O136 2.067 . S
Zn127 O128 1.962 . S
Zn127 O130 1.986 . S
Zn127 O132 1.996 . S
Zn127 O135 1.943 . S
O128 Zn127 1.962 . S
O128 C133 1.254 . S
O129 Zn126 2.031 . S
O129 C133 1.269 . S
O130 Zn127 1.986 . S
O130 C137 1.262 . S
O131 Zn126 2.049 . S
O131 C139 1.260 . S
O132 Zn127 1.996 . S
O132 C139 1.257 . S
C133 O128 1.254 . S
C133 O129 1.269 . S
C134 O135 1.249 . S
C134 O136 1.270 . S
O135 Zn127 1.943 . S
O135 C134 1.249 . S
O136 Zn126 2.067 . S
O136 C134 1.270 . S
C137 O130 1.262 . S
C137 O138 1.232 . S
O138 C137 1.232 . S
C139 O131 1.260 . S
C139 O132 1.257 . S
Zn140 O143 2.031 . S
Zn140 O145 2.049 . S
Zn140 O150 2.067 . S
Zn141 O142 1.962 . S
Zn141 O144 1.986 . S
Zn141 O146 1.996 . S
Zn141 O149 1.943 . S
O142 Zn141 1.962 . S
O142 C147 1.254 . S
O143 Zn140 2.031 . S
O143 C147 1.269 . S
O144 Zn141 1.986 . S
O144 C151 1.262 . S
O145 Zn140 2.049 . S
O145 C153 1.260 . S
O146 Zn141 1.996 . S
O146 C153 1.257 . S
C147 O142 1.254 . S
C147 O143 1.269 . S
C148 O149 1.249 . S
C148 O150 1.270 . S
O149 Zn141 1.943 . S
O149 C148 1.249 . S
O150 Zn140 2.067 . S
O150 C148 1.270 . S
C151 O144 1.262 . S
C151 O152 1.232 . S
O152 C151 1.232 . S
C153 O145 1.260 . S
C153 O146 1.257 . S
Zn154 O157 2.031 . S
Zn154 O159 2.049 . S
Zn154 O164 2.067 . S
Zn155 O156 1.962 . S
Zn155 O158 1.986 . S
Zn155 O160 1.996 . S
Zn155 O163 1.943 . S
O156 Zn155 1.962 . S
O156 C161 1.254 . S
O157 Zn154 2.031 . S
O157 C161 1.269 . S
O158 Zn155 1.986 . S
O158 C165 1.262 . S
O159 Zn154 2.049 . S
O159 C167 1.260 . S
O160 Zn155 1.996 . S
O160 C167 1.257 . S
C161 O156 1.254 . S
C161 O157 1.269 . S
C162 O163 1.249 . S
C162 O164 1.270 . S
O163 Zn155 1.943 . S
O163 C162 1.249 . S
O164 Zn154 2.067 . S
O164 C162 1.270 . S
C165 O158 1.262 . S
C165 O166 1.232 . S
O166 C165 1.232 . S
C167 O159 1.260 . S
C167 O160 1.257 . S
Zn168 O171 2.031 . S
Zn168 O173 2.049 . S
Zn168 O178 2.067 . S
Zn169 O170 1.962 . S
Zn169 O172 1.986 . S
Zn169 O174 1.996 . S
Zn169 O177 1.943 . S
O170 Zn169 1.962 . S
O170 C175 1.254 . S
O171 Zn168 2.031 . S
O171 C175 1.269 . S
O172 Zn169 1.986 . S
O172 C179 1.262 . S
O173 Zn168 2.049 . S
O173 C181 1.260 . S
O174 Zn169 1.996 . S
O174 C181 1.257 . S
C175 O170 1.254 . S
C175 O171 1.269 . S
C176 O177 1.249 . S
C176 O178 1.270 . S
O177 Zn169 1.943 . S
O177 C176 1.249 . S
O178 Zn168 2.067 . S
O178 C176 1.270 . S
C179 O172 1.262 . S
C179 O180 1.232 . S
O180 C179 1.232 . S
C181 O173 1.260 . S
C181 O174 1.257 . S
Zn182 O185 2.031 . S
Zn182 O187 2.049 . S
Zn182 O192 2.067 . S
Zn183 O184 1.962 . S
Zn183 O186 1.986 . S
Zn183 O188 1.996 . S
Zn183 O191 1.943 . S
O184 Zn183 1.962 . S
O184 C189 1.254 . S
O185 Zn182 2.031 . S
O185 C189 1.269 . S
O186 Zn183 1.986 . S
O186 C193 1.262 . S
O187 Zn182 2.049 . S
O187 C195 1.260 . S
O188 Zn183 1.996 . S
O188 C195 1.257 . S
C189 O184 1.254 . S
C189 O185 1.269 . S
C190 O191 1.249 . S
C190 O192 1.270 . S
O191 Zn183 1.943 . S
O191 C190 1.249 . S
O192 Zn182 2.067 . S
O192 C190 1.270 . S
C193 O186 1.262 . S
C193 O194 1.232 . S
O194 C193 1.232 . S
C195 O187 1.260 . S
C195 O188 1.257 . S
Zn196 O199 2.031 . S
Zn196 O201 2.049 . S
Zn196 O206 2.067 . S
Zn197 O198 1.962 . S
Zn197 O200 1.986 . S
Zn197 O202 1.996 . S
Zn197 O205 1.943 . S
O198 Zn197 1.962 . S
O198 C203 1.254 . S
O199 Zn196 2.031 . S
O199 C203 1.269 . S
O200 Zn197 1.986 . S
O200 C207 1.262 . S
O201 Zn196 2.049 . S
O201 C209 1.260 . S
O202 Zn197 1.996 . S
O202 C209 1.257 . S
C203 O198 1.254 . S
C203 O199 1.269 . S
C204 O205 1.249 . S
C204 O206 1.270 . S
O205 Zn197 1.943 . S
O205 C204 1.249 . S
O206 Zn196 2.067 . S
O206 C204 1.270 . S
C207 O200 1.262 . S
C207 O208 1.232 . S
O208 C207 1.232 . S
C209 O201 1.260 . S
C209 O202 1.257 . S
Zn210 O213 2.031 . S
Zn210 O215 2.049 . S
Zn210 O220 2.067 . S
Zn211 O212 1.962 . S
Zn211 O214 1.986 . S
Zn211 O216 1.996 . S
Zn211 O219 1.943 . S
O212 Zn211 1.962 . S
O212 C217 1.254 . S
O213 Zn210 2.031 . S
O213 C217 1.269 . S
O214 Zn211 1.986 . S
O214 C221 1.262 . S
O215 Zn210 2.049 . S
O215 C223 1.260 . S
O216 Zn211 1.996 . S
O216 C223 1.257 . S
C217 O212 1.254 . S
C217 O213 1.269 . S
C218 O219 1.249 . S
C218 O220 1.270 . S
O219 Zn211 1.943 . S
O219 C218 1.249 . S
O220 Zn210 2.067 . S
O220 C218 1.270 . S
C221 O214 1.262 . S
C221 O222 1.232 . S
O222 C221 1.232 . S
C223 O215 1.260 . S
C223 O216 1.257 . S
Zn224 O227 2.031 . S
Zn224 O229 2.049 . S
Zn224 O234 2.067 . S
Zn225 O226 1.962 . S
Zn225 O228 1.986 . S
Zn225 O230 1.996 . S
Zn225 O233 1.943 . S
O226 Zn225 1.962 . S
O226 C231 1.254 . S
O227 Zn224 2.031 . S
O227 C231 1.269 . S
O228 Zn225 1.986 . S
O228 C235 1.262 . S
O229 Zn224 2.049 . S
O229 C237 1.260 . S
O230 Zn225 1.996 . S
O230 C237 1.257 . S
C231 O226 1.254 . S
C231 O227 1.269 . S
C232 O233 1.249 . S
C232 O234 1.270 . S
O233 Zn225 1.943 . S
O233 C232 1.249 . S
O234 Zn224 2.067 . S
O234 C232 1.270 . S
C235 O228 1.262 . S
C235 O236 1.232 . S
O236 C235 1.232 . S
C237 O229 1.260 . S
C237 O230 1.257 . S
Zn238 O241 2.031 . S
Zn238 O243 2.049 . S
Zn238 O248 2.067 . S
Zn239 O240 1.962 . S
Zn239 O242 1.986 . S
Zn239 O244 1.996 . S
Zn239 O247 1.943 . S
O240 Zn239 1.962 . S
O240 C245 1.254 . S
O241 Zn238 2.031 . S
O241 C245 1.269 . S
O242 Zn239 1.986 . S
O242 C249 1.262 . S
O243 Zn238 2.049 . S
O243 C251 1.260 . S
O244 Zn239 1.996 . S
O244 C251 1.257 . S
C245 O240 1.254 . S
C245 O241 1.269 . S
C246 O247 1.249 . S
C246 O248 1.270 . S
O247 Zn239 1.943 . S
O247 C246 1.249 . S
O248 Zn238 2.067 . S
O248 C246 1.270 . S
C249 O242 1.262 . S
C249 O250 1.232 . S
O250 C249 1.232 . S
C251 O243 1.260 . S
C251 O244 1.257 . S
Zn252 O255 2.031 . S
Zn252 O257 2.049 . S
Zn252 O262 2.067 . S
Zn253 O254 1.962 . S
Zn253 O256 1.986 . S
Zn253 O258 1.996 . S
Zn253 O261 1.943 . S
O254 Zn253 1.962 . S
O254 C259 1.254 . S
O255 Zn252 2.031 . S
O255 C259 1.269 . S
O256 Zn253 1.986 . S
O256 C263 1.262 . S
O257 Zn252 2.049 . S
O257 C265 1.260 . S
O258 Zn253 1.996 . S
O258 C265 1.257 . S
C259 O254 1.254 . S
C259 O255 1.269 . S
C260 O261 1.249 . S
C260 O262 1.270 . S
O261 Zn253 1.943 . S
O261 C260 1.249 . S
O262 Zn252 2.067 . S
O262 C260 1.270 . S
C263 O256 1.262 . S
C263 O264 1.232 . S
O264 C263 1.232 . S
C265 O257 1.260 . S
C265 O258 1.257 . S
Zn266 O269 2.031 . S
Zn266 O271 2.049 . S
Zn266 O276 2.067 . S
Zn267 O268 1.962 . S
Zn267 O270 1.986 . S
Zn267 O272 1.996 . S
Zn267 O275 1.943 . S
O268 Zn267 1.962 . S
O268 C273 1.254 . S
O269 Zn266 2.031 . S
O269 C273 1.269 . S
O270 Zn267 1.986 . S
O270 C277 1.262 . S
O271 Zn266 2.049 . S
O271 C279 1.260 . S
O272 Zn267 1.996 . S
O272 C279 1.257 . S
C273 O268 1.254 . S
C273 O269 1.269 . S
C274 O275 1.249 . S
C274 O276 1.270 . S
O275 Zn267 1.943 . S
O275 C274 1.249 . S
O276 Zn266 2.067 . S
O276 C274 1.270 . S
C277 O270 1.262 . S
C277 O278 1.232 . S
O278 C277 1.232 . S
C279 O271 1.260 . S
C279 O272 1.257 . S
Zn280 O283 2.031 . S
Zn280 O285 2.049 . S
Zn280 O290 2.067 . S
Zn281 O282 1.962 . S
Zn281 O284 1.986 . S
Zn281 O286 1.996 . S
Zn281 O289 1.943 . S
O282 Zn281 1.962 . S
O282 C287 1.254 . S
O283 Zn280 2.031 . S
O283 C287 1.269 . S
O284 Zn281 1.986 . S
O284 C291 1.262 . S
O285 Zn280 2.049 . S
O285 C293 1.260 . S
O286 Zn281 1.996 . S
O286 C293 1.257 . S
C287 O282 1.254 . S
C287 O283 1.269 . S
C288 O289 1.249 . S
C288 O290 1.270 . S
O289 Zn281 1.943 . S
O289 C288 1.249 . S
O290 Zn280 2.067 . S
O290 C288 1.270 . S
C291 O284 1.262 . S
C291 O292 1.232 . S
O292 C291 1.232 . S
C293 O285 1.260 . S
C293 O286 1.257 . S
Zn294 O297 2.031 . S
Zn294 O299 2.049 . S
Zn294 O304 2.067 . S
Zn295 O296 1.962 . S
Zn295 O298 1.986 . S
Zn295 O300 1.996 . S
Zn295 O303 1.943 . S
O296 Zn295 1.962 . S
O296 C301 1.254 . S
O297 Zn294 2.031 . S
O297 C301 1.269 . S
O298 Zn295 1.986 . S
O298 C305 1.262 . S
O299 Zn294 2.049 . S
O299 C307 1.260 . S
O300 Zn295 1.996 . S
O300 C307 1.257 . S
C301 O296 1.254 . S
C301 O297 1.269 . S
C302 O303 1.249 . S
C302 O304 1.270 . S
O303 Zn295 1.943 . S
O303 C302 1.249 . S
O304 Zn294 2.067 . S
O304 C302 1.270 . S
C305 O298 1.262 . S
C305 O306 1.232 . S
O306 C305 1.232 . S
C307 O299 1.260 . S
C307 O300 1.257 . S
Zn308 O311 2.031 . S
Zn308 O313 2.049 . S
Zn308 O318 2.067 . S
Zn309 O310 1.962 . S
Zn309 O312 1.986 . S
Zn309 O314 1.996 . S
Zn309 O317 1.943 . S
O310 Zn309 1.962 . S
O310 C315 1.254 . S
O311 Zn308 2.031 . S
O311 C315 1.269 . S
O312 Zn309 1.986 . S
O312 C319 1.262 . S
O313 Zn308 2.049 . S
O313 C321 1.260 . S
O314 Zn309 1.996 . S
O314 C321 1.257 . S
C315 O310 1.254 . S
C315 O311 1.269 . S
C316 O317 1.249 . S
C316 O318 1.270 . S
O317 Zn309 1.943 . S
O317 C316 1.249 . S
O318 Zn308 2.067 . S
O318 C316 1.270 . S
C319 O312 1.262 . S
C319 O320 1.232 . S
O320 C319 1.232 . S
C321 O313 1.260 . S
C321 O314 1.257 . S
Zn322 O325 2.031 . S
Zn322 O327 2.049 . S
Zn322 O332 2.067 . S
Zn323 O324 1.962 . S
Zn323 O326 1.986 . S
Zn323 O328 1.996 . S
Zn323 O331 1.943 . S
O324 Zn323 1.962 . S
O324 C329 1.254 . S
O325 Zn322 2.031 . S
O325 C329 1.269 . S
O326 Zn323 1.986 . S
O326 C333 1.262 . S
O327 Zn322 2.049 . S
O327 C335 1.260 . S
O328 Zn323 1.996 . S
O328 C335 1.257 . S
C329 O324 1.254 . S
C329 O325 1.269 . S
C330 O331 1.249 . S
C330 O332 1.270 . S
O331 Zn323 1.943 . S
O331 C330 1.249 . S
O332 Zn322 2.067 . S
O332 C330 1.270 . S
C333 O326 1.262 . S
C333 O334 1.232 . S
O334 C333 1.232 . S
C335 O327 1.260 . S
C335 O328 1.257 . S
Zn336 O339 2.031 . S
Zn336 O341 2.049 . S
Zn336 O346 2.067 . S
Zn337 O338 1.962 . S
Zn337 O340 1.986 . S
Zn337 O342 1.996 . S
Zn337 O345 1.943 . S
O338 Zn337 1.962 . S
O338 C343 1.254 . S
O339 Zn336 2.031 . S
O339 C343 1.269 . S
O340 Zn337 1.986 . S
O340 C347 1.262 . S
O341 Zn336 2.049 . S
O341 C349 1.260 . S
O342 Zn337 1.996 . S
O342 C349 1.257 . S
C343 O338 1.254 . S
C343 O339 1.269 . S
C344 O345 1.249 . S
C344 O346 1.270 . S
O345 Zn337 1.943 . S
O345 C344 1.249 . S
O346 Zn336 2.067 . S
O346 C344 1.270 . S
C347 O340 1.262 . S
C347 O348 1.232 . S
O348 C347 1.232 . S
C349 O341 1.260 . S
C349 O342 1.257 . S
Zn350 O353 2.031 . S
Zn350 O355 2.049 . S
Zn350 O360 2.067 . S
Zn351 O352 1.962 . S
Zn351 O354 1.986 . S
Zn351 O356 1.996 . S
Zn351 O359 1.943 . S
O352 Zn351 1.962 . S
O352 C357 1.254 . S
O353 Zn350 2.031 . S
O353 C357 1.269 . S
O354 Zn351 1.986 . S
O354 C361 1.262 . S
O355 Zn350 2.049 . S
O355 C363 1.260 . S
O356 Zn351 1.996 . S
O356 C363 1.257 . S
C357 O352 1.254 . S
C357 O353 1.269 . S
C358 O359 1.249 . S
C358 O360 1.270 . S
O359 Zn351 1.943 . S
O359 C358 1.249 . S
O360 Zn350 2.067 . S
O360 C358 1.270 . S
C361 O354 1.262 . S
C361 O362 1.232 . S
O362 C361 1.232 . S
C363 O355 1.260 . S
C363 O356 1.257 . S
Zn364 O367 2.031 . S
Zn364 O369 2.049 . S
Zn364 O374 2.067 . S
Zn365 O366 1.962 . S
Zn365 O368 1.986 . S
Zn365 O370 1.996 . S
Zn365 O373 1.943 . S
O366 Zn365 1.962 . S
O366 C371 1.254 . S
O367 Zn364 2.031 . S
O367 C371 1.269 . S
O368 Zn365 1.986 . S
O368 C375 1.262 . S
O369 Zn364 2.049 . S
O369 C377 1.260 . S
O370 Zn365 1.996 . S
O370 C377 1.257 . S
C371 O366 1.254 . S
C371 O367 1.269 . S
C372 O373 1.249 . S
C372 O374 1.270 . S
O373 Zn365 1.943 . S
O373 C372 1.249 . S
O374 Zn364 2.067 . S
O374 C372 1.270 . S
C375 O368 1.262 . S
C375 O376 1.232 . S
O376 C375 1.232 . S
C377 O369 1.260 . S
C377 O370 1.257 . S
Zn378 O381 2.031 . S
Zn378 O383 2.049 . S
Zn378 O388 2.067 . S
Zn379 O380 1.962 . S
Zn379 O382 1.986 . S
Zn379 O384 1.996 . S
Zn379 O387 1.943 . S
O380 Zn379 1.962 . S
O380 C385 1.254 . S
O381 Zn378 2.031 . S
O381 C385 1.269 . S
O382 Zn379 1.986 . S
O382 C389 1.262 . S
O383 Zn378 2.049 . S
O383 C391 1.260 . S
O384 Zn379 1.996 . S
O384 C391 1.257 . S
C385 O380 1.254 . S
C385 O381 1.269 . S
C386 O387 1.249 . S
C386 O388 1.270 . S
O387 Zn379 1.943 . S
O387 C386 1.249 . S
O388 Zn378 2.067 . S
O388 C386 1.270 . S
C389 O382 1.262 . S
C389 O390 1.232 . S
O390 C389 1.232 . S
C391 O383 1.260 . S
C391 O384 1.257 . S
Zn392 O395 2.031 . S
Zn392 O397 2.049 . S
Zn392 O402 2.067 . S
Zn393 O394 1.962 . S
Zn393 O396 1.986 . S
Zn393 O398 1.996 . S
Zn393 O401 1.943 . S
O394 Zn393 1.962 . S
O394 C399 1.254 . S
O395 Zn392 2.031 . S
O395 C399 1.269 . S
O396 Zn393 1.986 . S
O396 C403 1.262 . S
O397 Zn392 2.049 . S
O397 C405 1.260 . S
O398 Zn393 1.996 . S
O398 C405 1.257 . S
C399 O394 1.254 . S
C399 O395 1.269 . S
C400 O401 1.249 . S
C400 O402 1.270 . S
O401 Zn393 1.943 . S
O401 C400 1.249 . S
O402 Zn392 2.067 . S
O402 C400 1.270 . S
C403 O396 1.262 . S
C403 O404 1.232 . S
O404 C403 1.232 . S
C405 O397 1.260 . S
C405 O398 1.257 . S
Zn406 O409 2.031 . S
Zn406 O411 2.049 . S
Zn406 O416 2.067 . S
Zn407 O408 1.962 . S
Zn407 O410 1.986 . S
Zn407 O412 1.996 . S
Zn407 O415 1.943 . S
O408 Zn407 1.962 . S
O408 C413 1.254 . S
O409 Zn406 2.031 . S
O409 C413 1.269 . S
O410 Zn407 1.986 . S
O410 C417 1.262 . S
O411 Zn406 2.049 . S
O411 C419 1.260 . S
O412 Zn407 1.996 . S
O412 C419 1.257 . S
C413 O408 1.254 . S
C413 O409 1.269 . S
C414 O415 1.249 . S
C414 O416 1.270 . S
O415 Zn407 1.943 . S
O415 C414 1.249 . S
O416 Zn406 2.067 . S
O416 C414 1.270 . S
C417 O410 1.262 . S
C417 O418 1.232 . S
O418 C417 1.232 . S
C419 O411 1.260 . S
C419 O412 1.257 . S
Zn420 O423 2.031 . S
Zn420 O425 2.049 . S
Zn420 O430 2.067 . S
Zn421 O422 1.962 . S
Zn421 O424 1.986 . S
Zn421 O426 1.996 . S
Zn421 O429 1.943 . S
O422 Zn421 1.962 . S
O422 C427 1.254 . S
O423 Zn420 2.031 . S
O423 C427 1.269 . S
O424 Zn421 1.986 . S
O424 C431 1.262 . S
O425 Zn420 2.049 . S
O425 C433 1.260 . S
O426 Zn421 1.996 . S
O426 C433 1.257 . S
C427 O422 1.254 . S
C427 O423 1.269 . S
C428 O429 1.249 . S
C428 O430 1.270 . S
O429 Zn421 1.943 . S
O429 C428 1.249 . S
O430 Zn420 2.067 . S
O430 C428 1.270 . S
C431 O424 1.262 . S
C431 O432 1.232 . S
O432 C431 1.232 . S
C433 O425 1.260 . S
C433 O426 1.257 . S
Zn434 O437 2.031 . S
Zn434 O439 2.049 . S
Zn434 O444 2.067 . S
Zn435 O436 1.962 . S
Zn435 O438 1.986 . S
Zn435 O440 1.996 . S
Zn435 O443 1.943 . S
O436 Zn435 1.962 . S
O436 C441 1.254 . S
O437 Zn434 2.031 . S
O437 C441 1.269 . S
O438 Zn435 1.986 . S
O438 C445 1.262 . S
O439 Zn434 2.049 . S
O439 C447 1.260 . S
O440 Zn435 1.996 . S
O440 C447 1.257 . S
C441 O436 1.254 . S
C441 O437 1.269 . S
C442 O443 1.249 . S
C442 O444 1.270 . S
O443 Zn435 1.943 . S
O443 C442 1.249 . S
O444 Zn434 2.067 . S
O444 C442 1.270 . S
C445 O438 1.262 . S
C445 O446 1.232 . S
O446 C445 1.232 . S
C447 O439 1.260 . S
C447 O440 1.257 . S
Zn448 O451 2.031 . S
Zn448 O453 2.049 . S
Zn448 O458 2.067 . S
Zn449 O450 1.962 . S
Zn449 O452 1.986 . S
Zn449 O454 1.996 . S
Zn449 O457 1.943 . S
O450 Zn449 1.962 . S
O450 C455 1.254 . S
O451 Zn448 2.031 . S
O451 C455 1.269 . S
O452 Zn449 1.986 . S
O452 C459 1.262 . S
O453 Zn448 2.049 . S
O453 C461 1.260 . S
O454 Zn449 1.996 . S
O454 C461 1.257 . S
C455 O450 1.254 . S
C455 O451 1.269 . S
C456 O457 1.249 . S
C456 O458 1.270 . S
O457 Zn449 1.943 . S
O457 C456 1.249 . S
O458 Zn448 2.067 . S
O458 C456 1.270 . S
C459 O452 1.262 . S
C459 O460 1.232 . S
O460 C459 1.232 . S
C461 O453 1.260 . S
C461 O454 1.257 . S
Zn462 O465 2.031 . S
Zn462 O467 2.049 . S
Zn462 O472 2.067 . S
Zn463 O464 1.962 . S
Zn463 O466 1.986 . S
Zn463 O468 1.996 . S
Zn463 O471 1.943 . S
O464 Zn463 1.962 . S
O464 C469 1.254 . S
O465 Zn462 2.031 . S
O465 C469 1.269 . S
O466 Zn463 1.986 . S
O466 C473 1.262 . S
O467 Zn462 2.049 . S
O467 C475 1.260 . S
O468 Zn463 1.996 . S
O468 C475 1.257 . S
C469 O464 1.254 . S
C469 O465 1.269 . S
C470 O471 1.249 . S
C470 O472 1.270 . S
O471 Zn463 1.943 . S
O471 C470 1.249 . S
O472 Zn462 2.067 . S
O472 C470 1.270 . S
C473 O466 1.262 . S
C473 O474 1.232 . S
O474 C473 1.232 . S
C475 O467 1.260 . S
C475 O468 1.257 . S
Zn476 O479 2.031 . S
Zn476 O481 2.049 . S
Zn476 O486 2.067 . S
Zn477 O478 1.962 . S
Zn477 O480 1.986 . S
Zn477 O482 1.996 . S
Zn477 O485 1.943 . S
O478 Zn477 1.962 . S
O478 C483 1.254 . S
O479 Zn476 2.031 . S
O479 C483 1.269 . S
O480 Zn477 1.986 . S
O480 C487 1.262 . S
O481 Zn476 2.049 . S
O481 C489 1.260 . S
O482 Zn477 1.996 . S
O482 C489 1.257 . S
C483 O478 1.254 . S
C483 O479 1.269 . S
C484 O485 1.249 . S
C484 O486 1.270 . S
O485 Zn477 1.943 . S
O485 C484 1.249 . S
O486 Zn476 2.067 . S
O486 C484 1.270 . S
C487 O480 1.262 . S
C487 O488 1.232 . S
O488 C487 1.232 . S
C489 O481 1.260 . S
C489 O482 1.257 . S
Zn490 O493 2.031 . S
Zn490 O495 2.049 . S
Zn490 O500 2.067 . S
Zn491 O492 1.962 . S
Zn491 O494 1.986 . S
Zn491 O496 1.996 . S
Zn491 O499 1.943 . S
O492 Zn491 1.962 . S
O492 C497 1.254 . S
O493 Zn490 2.031 . S
O493 C497 1.269 . S
O494 Zn491 1.986 . S
O494 C501 1.262 . S
O495 Zn490 2.049 . S
O495 C503 1.260 . S
O496 Zn491 1.996 . S
O496 C503 1.257 . S
C497 O492 1.254 . S
C497 O493 1.269 . S
C498 O499 1.249 . S
C498 O500 1.270 . S
O499 Zn491 1.943 . S
O499 C498 1.249 . S
O500 Zn490 2.067 . S
O500 C498 1.270 . S
C501 O494 1.262 . S
C501 O502 1.232 . S
O502 C501 1.232 . S
C503 O495 1.260 . S
C503 O496 1.257 . S
Zn504 O507 2.031 . S
Zn504 O509 2.049 . S
Zn504 O514 2.067 . S
Zn505 O506 1.962 . S
Zn505 O508 1.986 . S
Zn505 O510 1.996 . S
Zn505 O513 1.943 . S
O506 Zn505 1.962 . S
O506 C511 1.254 . S
O507 Zn504 2.031 . S
O507 C511 1.269 . S
O508 Zn505 1.986 . S
O508 C515 1.262 . S
O509 Zn504 2.049 . S
O509 C517 1.260 . S
O510 Zn505 1.996 . S
O510 C517 1.257 . S
C511 O506 1.254 . S
C511 O507 1.269 . S
C512 O513 1.249 . S
C512 O514 1.270 . S
O513 Zn505 1.943 . S
O513 C512 1.249 . S
O514 Zn504 2.067 . S
O514 C512 1.270 . S
C515 O508 1.262 . S
C515 O516 1.232 . S
O516 C515 1.232 . S
C517 O509 1.260 . S
C517 O510 1.257 . S
Zn518 O521 2.031 . S
Zn518 O523 2.049 . S
Zn518 O528 2.067 . S
Zn519 O520 1.962 . S
Zn519 O522 1.986 . S
Zn519 O524 1.996 . S
Zn519 O527 1.943 . S
O520 Zn519 1.962 . S
O520 C525 1.254 . S
O521 Zn518 2.031 . S
O521 C525 1.269 . S
O522 Zn519 1.986 . S
O522 C529 1.262 . S
O523 Zn518 2.049 . S
O523 C531 1.260 . S
O524 Zn519 1.996 . S
O524 C531 1.257 . S
C525 O520 1.254 . S
C525 O521 1.269 . S
C526 O527 1.249 . S
C526 O528 1.270 . S
O527 Zn519 1.943 . S
O527 C526 1.249 . S
O528 Zn518 2.067 . S
O528 C526 1.270 . S
C529 O522 1.262 . S
C529 O530 1.232 . S
O530 C529 1.232 . S
C531 O523 1.260 . S
C531 O524 1.257 . S
Zn532 O535 2.031 . S
Zn532 O537 2.049 . S
Zn532 O542 2.067 . S
Zn533 O534 1.962 . S
Zn533 O536 1.986 . S
Zn533 O538 1.996 . S
Zn533 O541 1.943 . S
O534 Zn533 1.962 . S
O534 C539 1.254 . S
O535 Zn532 2.031 . S
O535 C539 1.269 . S
O536 Zn533 1.986 . S
O536 C543 1.262 . S
O537 Zn532 2.049 . S
O537 C545 1.260 . S
O538 Zn533 1.996 . S
O538 C545 1.257 . S
C539 O534 1.254 . S
C539 O535 1.269 . S
C540 O541 1.249 . S
C540 O542 1.270 . S
O541 Zn533 1.943 . S
O541 C540 1.249 . S
O542 Zn532 2.067 . S
O542 C540 1.270 . S
C543 O536 1.262 . S
C543 O544 1.232 . S
O544 C543 1.232 . S
C545 O537 1.260 . S
C545 O538 1.257 . S
Zn546 O549 2.031 . S
Zn546 O551 2.049 . S
Zn546 O556 2.067 . S
Zn547 O548 1.962 . S
Zn547 O550 1.986 . S
Zn547 O552 1.996 . S
Zn547 O555 1.943 . S
O548 Zn547 1.962 . S
O548 C553 1.254 . S
O549 Zn546 2.031 . S
O549 C553 1.269 . S
O550 Zn547 1.986 . S
O550 C557 1.262 . S
O551 Zn546 2.049 . S
O551 C559 1.260 . S
O552 Zn547 1.996 . S
O552 C559 1.257 . S
C553 O548 1.254 . S
C553 O549 1.269 . S
C554 O555 1.249 . S
C554 O556 1.270 . S
O555 Zn547 1.943 . S
O555 C554 1.249 . S
O556 Zn546 2.067 . S
O556 C554 1.270 . S
C557 O550 1.262 . S
C557 O558 1.232 . S
O558 C557 1.232 . S
C559 O551 1.260 . S
C559 O552 1.257 . S
Zn560 O563 2.031 . S
Zn560 O565 2.049 . S
Zn560 O570 2.067 . S
Zn561 O562 1.962 . S
Zn561 O564 1.986 . S
Zn561 O566 1.996 . S
Zn561 O569 1.943 . S
O562 Zn561 1.962 . S
O562 C567 1.254 . S
O563 Zn560 2.031 . S
O563 C567 1.269 . S
O564 Zn561 1.986 . S
O564 C571 1.262 . S
O565 Zn560 2.049 . S
O565 C573 1.260 . S
O566 Zn561 1.996 . S
O566 C573 1.257 . S
C567 O562 1.254 . S
C567 O563 1.269 . S
C568 O569 1.249 . S
C568 O570 1.270 . S
O569 Zn561 1.943 . S
O569 C568 1.249 . S
O570 Zn560 2.067 . S
O570 C568 1.270 . S
C571 O564 1.262 . S
C571 O572 1.232 . S
O572 C571 1.232 . S
C573 O565 1.260 . S
C573 O566 1.257 . S
Zn574 O577 2.031 . S
Zn574 O579 2.049 . S
Zn574 O584 2.067 . S
Zn575 O576 1.962 . S
Zn575 O578 1.986 . S
Zn575 O580 1.996 . S
Zn575 O583 1.943 . S
O576 Zn575 1.962 . S
O576 C581 1.254 . S
O577 Zn574 2.031 . S
O577 C581 1.269 . S
O578 Zn575 1.986 . S
O578 C585 1.262 . S
O579 Zn574 2.049 . S
O579 C587 1.260 . S
O580 Zn575 1.996 . S
O580 C587 1.257 . S
C581 O576 1.254 . S
C581 O577 1.269 . S
C582 O583 1.249 . S
C582 O584 1.270 . S
O583 Zn575 1.943 . S
O583 C582 1.249 . S
O584 Zn574 2.067 . S
O584 C582 1.270 . S
C585 O578 1.262 . S
C585 O586 1.232 . S
O586 C585 1.232 . S
C587 O579 1.260 . S
C587 O580 1.257 . S
Zn588 O591 2.031 . S
Zn588 O593 2.049 . S
Zn588 O598 2.067 . S
Zn589 O590 1.962 . S
Zn589 O592 1.986 . S
Zn589 O594 1.996 . S
Zn589 O597 1.943 . S
O590 Zn589 1.962 . S
O590 C595 1.254 . S
O591 Zn588 2.031 . S
O591 C595 1.269 . S
O592 Zn589 1.986 . S
O592 C599 1.262 . S
O593 Zn588 2.049 . S
O593 C601 1.260 . S
O594 Zn589 1.996 . S
O594 C601 1.257 . S
C595 O590 1.254 . S
C595 O591 1.269 . S
C596 O597 1.249 . S
C596 O598 1.270 . S
O597 Zn589 1.943 . S
O597 C596 1.249 . S
O598 Zn588 2.067 . S
O598 C596 1.270 . S
C599 O592 1.262 . S
C599 O600 1.232 . S
O600 C599 1.232 . S
C601 O593 1.260 . S
C601 O594 1.257 . S
Zn602 O605 2.031 . S
Zn602 O607 2.049 . S
Zn602 O612 2.067 . S
Zn603 O604 1.962 . S
Zn603 O606 1.986 . S
Zn603 O608 1.996 . S
Zn603 O611 1.943 . S
O604 Zn603 1.962 . S
O604 C609 1.254 . S
O605 Zn602 2.031 . S
O605 C609 1.269 . S
O606 Zn603 1.986 . S
O606 C613 1.262 . S
O607 Zn602 2.049 . S
O607 C615 1.260 . S
O608 Zn603 1.996 . S
O608 C615 1.257 . S
C609 O604 1.254 . S
C609 O605 1.269 . S
C610 O611 1.249 . S
C610 O612 1.270 . S
O611 Zn603 1.943 . S
O611 C610 1.249 . S
O612 Zn602 2.067 . S
O612 C610 1.270 . S
C613 O606 1.262 . S
C613 O614 1.232 . S
O614 C613 1.232 . S
C615 O607 1.260 . S
C615 O608 1.257 . S
Zn616 O619 2.031 . S
Zn616 O621 2.049 . S
Zn616 O626 2.067 . S
Zn617 O618 1.962 . S
Zn617 O620 1.986 . S
Zn617 O622 1.996 . S
Zn617 O625 1.943 . S
O618 Zn617 1.962 . S
O618 C623 1.254 . S
O619 Zn616 2.031 . S
O619 C623 1.269 . S
O620 Zn617 1.986 . S
O620 C627 1.262 . S
O621 Zn616 2.049 . S
O621 C629 1.260 . S
O622 Zn617 1.996 . S
O622 C629 1.257 . S
C623 O618 1.254 . S
C623 O619 1.269 . S
C624 O625 1.249 . S
C624 O626 1.270 . S
O625 Zn617 1.943 . S
O625 C624 1.249 . S
O626 Zn616 2.067 . S
O626 C624 1.270 . S
C627 O620 1.262 . S
C627 O628 1.232 . S
O628 C627 1.232 . S
C629 O621 1.260 . S
C629 O622 1.257 . S
Zn630 O633 2.031 . S
Zn630 O635 2.049 . S
Zn630 O640 2.067 . S
Zn631 O632 1.962 . S
Zn631 O634 1.986 . S
Zn631 O636 1.996 . S
Zn631 O639 1.943 . S
O632 Zn631 1.962 . S
O632 C637 1.254 . S
O633 Zn630 2.031 . S
O633 C637 1.269 . S
O634 Zn631 1.986 . S
O634 C641 1.262 . S
O635 Zn630 2.049 . S
O635 C643 1.260 . S
O636 Zn631 1.996 . S
O636 C643 1.257 . S
C637 O632 1.254 . S
C637 O633 1.269 . S
C638 O639 1.249 . S
C638 O640 1.270 . S
O639 Zn631 1.943 . S
O639 C638 1.249 . S
O640 Zn630 2.067 . S
O640 C638 1.270 . S
C641 O634 1.262 . S
C641 O642 1.232 . S
O642 C641 1.232 . S
C643 O635 1.260 . S
C643 O636 1.257 . S
Zn644 O647 2.031 . S
Zn644 O649 2.049 . S
Zn644 O654 2.067 . S
Zn645 O646 1.962 . S
Zn645 O648 1.986 . S
Zn645 O650 1.996 . S
Zn645 O653 1.943 . S
O646 Zn645 1.962 . S
O646 C651 1.254 . S
O647 Zn644 2.031 . S
O647 C651 1.269 . S
O648 Zn645 1.986 . S
O648 C655 1.262 . S
O649 Zn644 2.049 . S
O649 C657 1.260 . S
O650 Zn645 1.996 . S
O650 C657 1.257 . S
C651 O646 1.254 . S
C651 O647 1.269 . S
C652 O653 1.249 . S
C652 O654 1.270 . S
O653 Zn645 1.943 . S
O653 C652 1.249 . S
O654 Zn644 2.067 . S
O654 C652 1.270 . S
C655 O648 1.262 . S
C655 O656 1.232 . S
O656 C655 1.232 . S
C657 O649 1.260 . S
C657 O650 1.257 . S
Zn658 O661 2.031 . S
Zn658 O663 2.049 . S
Zn658 O668 2.067 . S
Zn659 O660 1.962 . S
Zn659 O662 1.986 . S
Zn659 O664 1.996 . S
Zn659 O667 1.943 . S
O660 Zn659 1.962 . S
O660 C665 1.254 . S
O661 Zn658 2.031 . S
O661 C665 1.269 . S
O662 Zn659 1.986 . S
O662 C669 1.262 . S
O663 Zn658 2.049 . S
O663 C671 1.260 . S
O664 Zn659 1.996 . S
O664 C671 1.257 . S
C665 O660 1.254 . S
C665 O661 1.269 . S
C666 O667 1.249 . S
C666 O668 1.270 . S
O667 Zn659 1.943 . S
O667 C666 1.249 . S
O668 Zn658 2.067 . S
O668 C666 1.270 . S
C669 O662 1.262 . S
C669 O670 1.232 . S
O670 C669 1.232 . S
C671 O663 1.260 . S
C671 O664 1.257 . S
C403 C11 1.135 1_655 S
C25 C417 1.135 . S
C431 C39 1.135 1_455 S
C53 C445 1.135 . S
C347 C67 1.135 1_655 S
C81 C361 1.135 . S
C375 C95 1.135 1_455 S
C109 C389 1.135 . S
C543 C123 1.135 1_565 S
C557 C137 1.135 . S
C515 C151 1.135 1_545 S
C165 C529 1.135 . S
C487 C179 1.135 1_545 S
C501 C193 1.135 . S
C207 C459 1.135 1_545 S
C473 C221 1.135 . S
C235 C641 1.135 1_554 S
C613 C249 1.135 1_554 S
C627 C263 1.135 . S
C585 C277 1.135 1_554 S
C599 C291 1.135 . S
C305 C571 1.135 1_554 S
C319 C669 1.135 . S
C655 C333 1.135 . S
C111 C13 1.046 . S
C69 C27 1.046 . S
C83 C41 1.046 . S
C97 C55 1.046 . S
C293 C125 1.046 . S
C251 C139 1.046 . S
C265 C153 1.046 . S
C279 C167 1.046 . S
C335 C181 1.046 . S
C307 C195 1.046 . S
C209 C321 1.046 . S
C237 C223 1.046 . S
C447 C349 1.046 . S
C405 C363 1.046 . S
C377 C419 1.046 . S
C391 C433 1.046 . S
C461 C629 1.046 . S
C475 C587 1.046 . S
C601 C489 1.046 . S
C615 C503 1.046 . S
C671 C517 1.046 . S
C643 C531 1.046 . S
C657 C545 1.046 . S
C559 C573 1.046 . S
C7 C120 1.260 . S
C134 C21 1.260 . S
C148 C35 1.260 . S
C162 C49 1.260 . S
C63 C176 1.260 . S
C190 C77 1.260 . S
C91 C204 1.260 . S
C218 C105 1.260 . S
C232 C119 1.260 . S
C330 C133 1.260 . S
C147 C302 1.260 . S
C161 C316 1.260 . S
C175 C246 1.260 . S
C189 C260 1.260 . S
C203 C274 1.260 . S
C217 C288 1.260 . S
C231 C8 1.260 . S
C245 C64 1.260 . S
C259 C78 1.260 . S
C273 C92 1.260 . S
C287 C106 1.260 . S
C301 C36 1.260 . S
C50 C315 1.260 . S
C22 C329 1.260 . S
C456 C343 1.260 . S
C470 C357 1.260 . S
C484 C371 1.260 . S
C498 C385 1.260 . S
C512 C399 1.260 . S
C413 C526 1.260 . S
C540 C427 1.260 . S
C441 C554 1.260 . S
C568 C455 1.260 . S
C469 C666 1.260 . S
C483 C638 1.260 . S
C652 C497 1.260 . S
C582 C511 1.260 . S
C525 C596 1.260 . S
C539 C610 1.260 . S
C624 C553 1.260 . S
C344 C567 1.260 . S
C400 C581 1.260 . S
C414 C595 1.260 . S
C609 C428 1.260 . S
C442 C623 1.260 . S
C372 C637 1.260 . S
C651 C386 1.260 . S
C358 C665 1.260 . S
