# Generated by pormake.
# Topology irl, (4)-cn, num edge types: 1
# Building blocks:
#     Node 0, Type 0, BuildingBlock: QUQFOY_clean_sbu_3, # of connection points: 4
#     Node 1, Type 0, BuildingBlock: QUQFOY_clean_sbu_3, # of connection points: 4
#     Node 2, Type 0, BuildingBlock: QUQFOY_clean_sbu_3, # of connection points: 4
#     Node 3, Type 0, BuildingBlock: QUQFOY_clean_sbu_3, # of connection points: 4
#     Node 4, Type 0, BuildingBlock: QUQFOY_clean_sbu_3, # of connection points: 4
#     Node 5, Type 0, BuildingBlock: QUQFOY_clean_sbu_3, # of connection points: 4
#     Node 6, Type 0, BuildingBlock: QUQFOY_clean_sbu_3, # of connection points: 4
#     Node 7, Type 0, BuildingBlock: QUQFOY_clean_sbu_3, # of connection points: 4
#     Edge 8, Type (0, 0), BuildingBlock: TEMPAE_clean_linker_10, # of connection points: 2
#     Edge 9, Type (0, 0), BuildingBlock: TEMPAE_clean_linker_10, # of connection points: 2
#     Edge 10, Type (0, 0), BuildingBlock: TEMPAE_clean_linker_10, # of connection points: 2
#     Edge 11, Type (0, 0), BuildingBlock: TEMPAE_clean_linker_10, # of connection points: 2
#     Edge 12, Type (0, 0), BuildingBlock: TEMPAE_clean_linker_10, # of connection points: 2
#     Edge 13, Type (0, 0), BuildingBlock: TEMPAE_clean_linker_10, # of connection points: 2
#     Edge 14, Type (0, 0), BuildingBlock: TEMPAE_clean_linker_10, # of connection points: 2
#     Edge 15, Type (0, 0), BuildingBlock: TEMPAE_clean_linker_10, # of connection points: 2
#     Edge 16, Type (0, 0), BuildingBlock: TEMPAE_clean_linker_10, # of connection points: 2
#     Edge 17, Type (0, 0), BuildingBlock: TEMPAE_clean_linker_10, # of connection points: 2
#     Edge 18, Type (0, 0), BuildingBlock: TEMPAE_clean_linker_10, # of connection points: 2
#     Edge 19, Type (0, 0), BuildingBlock: TEMPAE_clean_linker_10, # of connection points: 2
#     Edge 20, Type (0, 0), BuildingBlock: TEMPAE_clean_linker_10, # of connection points: 2
#     Edge 21, Type (0, 0), BuildingBlock: TEMPAE_clean_linker_10, # of connection points: 2
#     Edge 22, Type (0, 0), BuildingBlock: TEMPAE_clean_linker_10, # of connection points: 2
#     Edge 23, Type (0, 0), BuildingBlock: TEMPAE_clean_linker_10, # of connection points: 2
# Relax obj value: 0.062
# Max RMSD: 0.123
# Mean RMSD: 0.123
data_MOF--net-irl--node1-QUQFOY_clean_sbu_3--edge1-TEMPAE_clean_linker_10
_symmetry_space_group_name_H-M    P1
_symmetry_Int_Tables_number       1
_symmetry_cell_setting            triclinic
loop_
_symmetry_equiv_pos_as_xyz
'x, y, z'
_cell_length_a     35.890788
_cell_length_b     46.120349
_cell_length_c     29.571069
_cell_angle_alpha  89.941785
_cell_angle_beta   90.119395
_cell_angle_gamma 89.794792
loop_
_atom_site_label
_atom_site_type_symbol
_atom_site_fract_x
_atom_site_fract_y
_atom_site_fract_z
_atom_type_partial_charge
C0 C 0.96596 0.21223 0.89754 0.0
O1 O 0.93927 0.20768 0.92466 0.0
Cd2 Cd 0.95262 0.18646 -0.00229 0.0
O3 O -0.00072 0.20638 0.90879 0.0
Cd4 Cd 0.03793 0.18877 0.97072 0.0
C5 C -0.00462 0.12374 0.96173 0.0
O6 O 0.00448 0.21006 0.03523 0.0
O7 O 0.0485 0.17893 0.0487 0.0
O8 O 0.07716 0.22849 0.94683 0.0
C9 C 0.02459 0.19661 0.06398 0.0
O10 O 0.96682 0.13632 -0.0219 0.0
C11 C 0.10736 0.21414 0.94775 0.0
O12 O 0.02541 0.13758 0.95416 0.0
O13 O 0.10532 0.18751 0.9586 0.0
C14 C 0.97952 0.81954 0.86686 0.0
O15 O 0.0124 0.82247 0.88185 0.0
Cd16 Cd 0.02024 0.84335 0.95593 0.0
O17 O 0.95186 0.82597 0.89156 0.0
Cd18 Cd 0.93808 0.84201 0.96854 0.0
C19 C 0.97304 0.90756 0.94626 0.0
O20 O 0.98658 0.81853 0.01594 0.0
O21 O 0.95375 0.85348 0.04466 0.0
O22 O 0.89734 0.80093 0.96352 0.0
C23 C 0.97685 0.833 0.05067 0.0
O24 O 0.0043 0.89453 0.94807 0.0
C25 C 0.86819 0.81378 0.97708 0.0
O26 O 0.94263 0.89373 0.95087 0.0
O27 O 0.87113 0.8405 -0.0129 0.0
C28 C 0.9567 0.79499 0.53911 0.0
O29 O 0.93319 0.80272 0.50929 0.0
Cd30 Cd 0.95404 0.81909 0.43534 0.0
O31 O -0.00863 0.7962 0.5312 0.0
Cd32 Cd 0.03579 0.80963 0.47336 0.0
C33 C 0.00239 0.87872 0.47129 0.0
O34 O 0.00518 0.79118 0.40528 0.0
O35 O 0.05271 0.81955 0.3965 0.0
O36 O 0.0692 0.76523 0.48817 0.0
C37 C 0.02834 0.80325 0.37872 0.0
O38 O 0.97533 0.86821 0.44879 0.0
C39 C 0.09912 0.77702 0.50151 0.0
O40 O 0.02759 0.86227 0.48805 0.0
O41 O 0.09973 0.8046 0.50279 0.0
C42 C -0.00806 0.18986 0.57055 0.0
O43 O 0.02364 0.18466 0.55344 0.0
Cd44 Cd 0.02811 0.16343 0.47888 0.0
O45 O 0.96243 0.18287 0.54965 0.0
Cd46 Cd 0.94367 0.15947 0.47948 0.0
C47 C -0.00911 0.09635 0.49441 0.0
O48 O 0.98442 0.18449 0.42577 0.0
O49 O 0.95363 0.14711 0.4017 0.0
O50 O 0.89647 0.19559 0.46597 0.0
C51 C 0.97352 0.16906 0.39267 0.0
O52 O 0.01956 0.11138 0.48521 0.0
C53 C 0.86868 0.17974 0.47467 0.0
O54 O 0.95903 0.10847 0.49823 0.0
O55 O 0.87529 0.1536 0.48592 0.0
C56 C 0.5003 0.68594 0.94475 0.0
O57 O 0.47222 0.68838 0.97048 0.0
Cd58 Cd 0.47756 0.66807 0.04522 0.0
O59 O 0.53174 0.67816 0.96059 0.0
Cd60 Cd 0.56546 0.66861 0.03107 0.0
C61 C 0.5249 0.60385 0.02084 0.0
O62 O 0.5256 0.69243 0.0867 0.0
O63 O 0.56623 0.66129 0.11115 0.0
O64 O 0.60237 0.70941 0.00764 0.0
C65 C 0.54095 0.67967 0.12007 0.0
O66 O 0.49495 0.61744 0.03034 0.0
C67 C 0.63376 0.69747 0.01454 0.0
O68 O 0.55608 0.61685 0.01814 0.0
O69 O 0.6337 0.67141 0.02878 0.0
C70 C 0.49139 0.30549 0.91457 0.0
O71 O 0.51633 0.30032 0.94398 0.0
Cd72 Cd 0.50741 0.31938 0.01896 0.0
O73 O 0.46045 0.31689 0.92574 0.0
Cd74 Cd 0.42284 0.33149 -0.0091 0.0
C75 C 0.47786 0.39008 -0.00147 0.0
O76 O 0.45042 0.29883 0.04699 0.0
O77 O 0.41262 0.3319 0.07127 0.0
O78 O 0.37894 0.30033 0.95291 0.0
C79 C 0.43319 0.31023 0.08002 0.0
O80 O 0.50356 0.3724 0.01007 0.0
C81 C 0.35069 0.31636 0.95939 0.0
O82 O 0.44521 0.38125 -0.01108 0.0
O83 O 0.35596 0.34024 -0.02014 0.0
C84 C 0.50088 0.2821 0.5821 0.0
O85 O 0.46939 0.28091 0.56266 0.0
Cd86 Cd 0.46358 0.30483 0.49041 0.0
O87 O 0.52896 0.29163 0.5608 0.0
Cd88 Cd 0.54882 0.30741 0.48598 0.0
C89 C 0.50649 0.3706 0.50927 0.0
O90 O 0.50438 0.28549 0.433 0.0
O91 O 0.53744 0.32199 0.40997 0.0
O92 O 0.59045 0.26675 0.47765 0.0
C93 C 0.51467 0.30186 0.40065 0.0
O94 O 0.4766 0.35598 0.50554 0.0
C95 C 0.62041 0.28108 0.48064 0.0
O96 O 0.53831 0.35867 0.50427 0.0
O97 O 0.61749 0.30835 0.48628 0.0
C98 C 0.47194 0.6735 0.61017 0.0
O99 O 0.50123 0.67526 0.58641 0.0
Cd100 Cd 0.50238 0.6538 0.5125 0.0
O101 O 0.44194 0.66361 0.59336 0.0
Cd102 Cd 0.41546 0.64804 0.52081 0.0
C103 C 0.46423 0.5857 0.52858 0.0
O104 O 0.45371 0.67512 0.46775 0.0
O105 O 0.4207 0.63988 0.44063 0.0
O106 O 0.37005 0.68628 0.51974 0.0
C107 C 0.44193 0.66135 0.43341 0.0
O108 O 0.49279 0.60158 0.52277 0.0
C109 C 0.34172 0.67049 0.52587 0.0
O110 O 0.43158 0.59666 0.52987 0.0
O111 O 0.34721 0.64339 0.53067 0.0
C112 C 0.95293 0.95608 0.97341 0.0
C113 C 0.97271 0.93933 0.94213 0.0
C114 C 0.95664 0.98636 0.97413 0.0
C115 C 0.97953 0.00014 0.9416 0.0
C116 C -0.00201 0.9833 0.90843 0.0
C117 C -0.00496 0.95298 0.90976 0.0
C118 C 0.93746 0.00345 0.01095 0.0
C119 C 0.02138 -0.00274 0.8721 0.0
C120 C 0.96328 0.08109 0.92863 0.0
C121 C -0.00654 0.09244 0.95281 0.0
C122 C 0.95932 0.05107 0.92287 0.0
C123 C 0.98529 0.03203 0.94357 0.0
C124 C 0.01601 0.04351 0.9678 0.0
C125 C 0.02012 0.07368 0.97137 0.0
C126 C 0.92708 0.03973 0.89529 0.0
C127 C 0.04364 0.02394 -0.00844 0.0
H128 H 0.93613 0.94536 -0.00118 0.0
H129 H 0.01028 0.93987 0.88559 0.0
H130 H 0.95858 0.01498 0.03162 0.0
H131 H 0.91888 0.02013 -0.00407 0.0
H132 H 0.92068 0.98943 0.03363 0.0
H133 H 0.03064 0.98139 0.84617 0.0
H134 H 0.00539 0.01481 0.85512 0.0
H135 H 0.04641 0.00728 0.88749 0.0
H136 H 0.94278 0.09577 0.91422 0.0
H137 H 0.04318 0.08261 -0.00948 0.0
H138 H 0.90737 0.02801 0.91755 0.0
H139 H 0.93723 0.02404 0.86964 0.0
H140 H 0.91164 0.05739 0.87776 0.0
H141 H 0.02894 0.01041 0.01689 0.0
H142 H 0.0659 0.03632 0.00906 0.0
H143 H 0.05684 0.00898 0.96698 0.0
C144 C 0.98678 0.92873 0.44572 0.0
C145 C 0.00366 0.91051 0.47782 0.0
C146 C 0.9859 0.95886 0.45159 0.0
C147 C 0.00159 0.97116 0.49108 0.0
C148 C 0.01867 0.95291 0.52375 0.0
C149 C 0.01991 0.92275 0.51646 0.0
C150 C 0.96824 0.97755 0.41536 0.0
C151 C 0.03509 0.9652 0.56663 0.0
C152 C 0.02687 0.05067 0.48107 0.0
C153 C -0.00527 0.06436 0.49782 0.0
C154 C 0.03003 0.02036 0.4802 0.0
C155 C 0.00061 0.00321 0.4972 0.0
C156 C 0.96881 0.01686 0.5161 0.0
C157 C 0.96607 0.04729 0.51578 0.0
C158 C 0.06409 0.00671 0.45898 0.0
C159 C 0.93716 -0.0007 0.53532 0.0
H160 H 0.9744 0.91939 0.41562 0.0
H161 H 0.03266 0.9087 0.54155 0.0
H162 H 0.94439 0.98983 0.42966 0.0
H163 H -0.01132 0.99364 0.40282 0.0
H164 H 0.95808 0.96462 0.38619 0.0
H165 H 0.0469 0.94809 0.58896 0.0
H166 H 0.05743 0.98088 0.55834 0.0
H167 H 0.01333 0.97724 0.58558 0.0
H168 H 0.04917 0.06363 0.467 0.0
H169 H 0.9413 0.05769 0.52913 0.0
H170 H 0.05589 -0.00497 0.42773 0.0
H171 H 0.07668 0.99054 0.48225 0.0
H172 H 0.08558 0.02302 0.4501 0.0
H173 H 0.9227 0.98764 0.50762 0.0
H174 H 0.91645 0.01306 0.55322 0.0
H175 H 0.948 0.98271 0.55921 0.0
C176 C 0.53892 0.55324 0.04416 0.0
C177 C 0.52285 0.57248 0.01315 0.0
C178 C 0.53299 0.52325 0.04038 0.0
C179 C 0.51142 0.51243 0.00392 0.0
C180 C 0.49667 0.53188 0.97133 0.0
C181 C 0.50196 0.56179 0.97687 0.0
C182 C 0.54827 0.50332 0.07652 0.0
C183 C 0.47457 0.52116 0.93123 0.0
C184 C 0.51912 0.43171 -0.02041 0.0
C185 C 0.48584 0.42137 -0.00185 0.0
C186 C 0.5274 0.46145 -0.01994 0.0
C187 C 0.5025 0.481 0.00132 0.0
C188 C 0.469 0.47052 0.02054 0.0
C189 C 0.46073 0.44085 0.01789 0.0
C190 C 0.56264 0.47194 0.95767 0.0
C191 C 0.44229 0.49051 0.04477 0.0
H192 H 0.55468 0.56177 0.07248 0.0
H193 H 0.48955 0.5769 0.95304 0.0
H194 H 0.52492 0.49241 0.09414 0.0
H195 H 0.56576 0.48612 0.0611 0.0
H196 H 0.56525 0.5151 0.10198 0.0
H197 H 0.46848 0.53875 0.90657 0.0
H198 H 0.49001 0.5036 0.91367 0.0
H199 H 0.44776 0.51193 0.94288 0.0
H200 H 0.5384 0.41654 0.96409 0.0
H201 H 0.43519 0.43271 0.03265 0.0
H202 H 0.58129 0.48192 -0.01683 0.0
H203 H 0.55583 0.48894 0.93234 0.0
H204 H 0.57801 0.45414 0.94053 0.0
H205 H 0.45703 0.50196 0.0725 0.0
H206 H 0.41818 0.47872 0.05933 0.0
H207 H 0.43161 0.50727 0.02112 0.0
C208 C 0.52307 0.42157 0.49033 0.0
C209 C 0.50355 0.40201 0.51754 0.0
C210 C 0.51684 0.45157 0.49406 0.0
C211 C 0.49157 0.46215 0.52699 0.0
C212 C 0.47322 0.44242 0.55605 0.0
C213 C 0.47883 0.41252 0.55029 0.0
C214 C 0.53606 0.47181 0.4615 0.0
C215 C 0.44723 0.45286 0.59272 0.0
C216 C 0.49963 0.54229 0.55519 0.0
C217 C 0.46933 0.554 0.53133 0.0
C218 C 0.50641 0.51229 0.5555 0.0
C219 C 0.48323 0.49376 0.52976 0.0
C220 C 0.45249 0.50554 0.5057 0.0
C221 C 0.44551 0.53551 0.50749 0.0
C222 C 0.53854 0.50046 0.58299 0.0
C223 C 0.42778 0.48666 0.47678 0.0
H224 H 0.54182 0.41332 0.46463 0.0
H225 H 0.46385 0.39727 0.5714 0.0
H226 H 0.5149 0.48375 0.44127 0.0
H227 H 0.5525 0.48816 0.48031 0.0
H228 H 0.55496 0.46012 0.43799 0.0
H229 H 0.43809 0.43495 0.61522 0.0
H230 H 0.46108 0.46968 0.61357 0.0
H231 H 0.42216 0.46298 0.5773 0.0
H232 H 0.51795 0.55665 0.57378 0.0
H233 H 0.42236 0.54465 0.48859 0.0
H234 H 0.55987 0.49102 0.56021 0.0
H235 H 0.52875 0.48279 0.60549 0.0
H236 H 0.55197 0.51743 0.60402 0.0
H237 H 0.44477 0.47559 0.45061 0.0
H238 H 0.40538 0.49927 0.45968 0.0
H239 H 0.41471 0.46956 0.49774 0.0
C240 C 0.98732 0.21255 0.13113 0.0
C241 C 0.01938 0.19954 0.11322 0.0
C242 C 0.98036 0.21175 0.17785 0.0
C243 C 0.00613 0.19767 0.20691 0.0
C244 C 0.03964 0.18621 0.18922 0.0
C245 C 0.04582 0.18727 0.14259 0.0
C246 C 0.94445 0.22438 0.1957 0.0
C247 C 0.0679 0.17111 0.21909 0.0
C248 C 8e-05 0.20286 0.33483 0.0
C249 C 0.98188 0.17685 0.34535 0.0
C250 C 0.0073 0.21047 0.2897 0.0
C251 C -0.00376 0.19151 0.2546 0.0
C252 C 0.97761 0.16537 0.26509 0.0
C253 C 0.97062 0.1584 0.31032 0.0
C254 C 0.02715 0.23853 0.27959 0.0
C255 C 0.96564 0.14445 0.22857 0.0
H256 H 0.96693 0.2222 0.10854 0.0
H257 H 0.07096 0.17755 0.12898 0.0
H258 H 0.92553 0.20654 0.20578 0.0
H259 H 0.94979 0.2377 0.22624 0.0
H260 H 0.92998 0.238 0.17005 0.0
H261 H 0.09421 0.16622 0.20086 0.0
H262 H 0.0745 0.1846 0.24905 0.0
H263 H 0.05608 0.1504 0.23163 0.0
H264 H 0.00861 0.21729 0.36181 0.0
H265 H 0.95647 0.1383 0.3182 0.0
H266 H 0.01074 0.25162 0.25509 0.0
H267 H 0.0545 0.23387 0.2637 0.0
H268 H 0.03191 0.25168 0.31052 0.0
H269 H 0.94758 0.15567 0.20356 0.0
H270 H 0.95022 0.12557 0.24237 0.0
H271 H -0.00952 0.13629 0.2102 0.0
C272 C 0.05342 0.8125 0.3016 0.0
C273 C 0.0254 0.8008 0.32904 0.0
C274 C 0.04923 0.81382 0.25455 0.0
C275 C 0.01612 0.8033 0.23452 0.0
C276 C -0.01115 0.78968 0.26173 0.0
C277 C -0.00616 0.78854 0.3088 0.0
C278 C 0.07907 0.82835 0.22671 0.0
C279 C 0.9532 0.77815 0.24153 0.0
C280 C 0.98038 0.84434 0.13258 0.0
C281 C -0.01068 0.82558 0.09691 0.0
C282 C -0.01079 0.83729 0.17731 0.0
C283 C 0.00748 0.81074 0.18679 0.0
C284 C 0.0173 0.79186 0.15096 0.0
C285 C 0.00812 0.79954 0.10623 0.0
C286 C 0.97854 0.85819 0.2145 0.0
C287 C 0.0369 0.76343 0.15999 0.0
H288 H 0.07817 0.82163 0.31701 0.0
H289 H 0.97224 0.77926 0.32984 0.0
H290 H 0.08536 0.81548 0.19598 0.0
H291 H 0.06896 0.84994 0.21541 0.0
H292 H 0.10526 0.83141 0.2462 0.0
H293 H 0.9374 0.76466 0.26598 0.0
H294 H 0.93524 0.79658 0.2309 0.0
H295 H 0.95916 0.765 0.21099 0.0
H296 H 0.96603 0.86459 0.12563 0.0
H297 H 0.01498 0.78494 0.07877 0.0
H298 H 0.00369 0.8648 0.2337 0.0
H299 H 0.95942 0.84744 0.23867 0.0
H300 H 0.96462 0.87802 0.20128 0.0
H301 H 0.06295 0.7672 0.17933 0.0
H302 H 0.04389 0.75171 0.1283 0.0
H303 H 0.01893 0.74933 0.18105 0.0
C304 C 0.92576 0.81153 0.60902 0.0
C305 C 0.94544 0.78985 0.58609 0.0
C306 C 0.92658 0.8129 0.65641 0.0
C307 C 0.94665 0.79155 0.68102 0.0
C308 C 0.96264 0.7677 0.65799 0.0
C309 C 0.96249 0.76744 0.6106 0.0
C310 C 0.90965 0.83894 0.67957 0.0
C311 C 0.98297 0.74389 0.68307 0.0
C312 C -0.00226 0.81746 0.78572 0.0
C313 C 0.97277 0.80998 0.82002 0.0
C314 C -0.01047 0.8114 0.74034 0.0
C315 C 0.95609 0.79668 0.72928 0.0
C316 C 0.93162 0.78788 0.76405 0.0
C317 C 0.93996 0.79508 0.80903 0.0
C318 C 0.01608 0.82162 0.70413 0.0
C319 C 0.89645 0.77128 0.7537 0.0
H320 H 0.91312 0.8291 0.58992 0.0
H321 H 0.97783 0.75074 0.59266 0.0
H322 H 0.89372 0.83234 0.70993 0.0
H323 H 0.93228 0.85357 0.69102 0.0
H324 H 0.89087 0.85135 0.65668 0.0
H325 H 0.9869 0.72436 0.66163 0.0
H326 H 0.01084 0.75177 0.69359 0.0
H327 H 0.96762 0.73763 0.71409 0.0
H328 H 0.02293 0.82918 0.79419 0.0
H329 H 0.92074 0.78911 0.83568 0.0
H330 H 0.00133 0.83635 0.68034 0.0
H331 H 0.02639 0.80286 0.68426 0.0
H332 H 0.04046 0.83326 0.71839 0.0
H333 H 0.87677 0.78528 0.73458 0.0
H334 H 0.88233 0.76361 0.78488 0.0
H335 H 0.90287 0.75227 0.73206 0.0
C336 C 0.9804 0.24064 0.82877 0.0
C337 C 0.95889 0.21937 0.85002 0.0
C338 C 0.98266 0.24193 0.78149 0.0
C339 C 0.9644 0.22055 0.75538 0.0
C340 C 0.94046 0.20037 0.77672 0.0
C341 C 0.93751 0.20037 0.82398 0.0
C342 C 0.00699 0.26465 0.75985 0.0
C343 C 0.92112 0.17681 0.75023 0.0
C344 C 0.95851 0.21983 0.62749 0.0
C345 C -0.01144 0.20165 0.61655 0.0
C346 C 0.95164 0.22786 0.67244 0.0
C347 C 0.97449 0.21642 0.70718 0.0
C348 C 0.0057 0.19889 0.69603 0.0
C349 C 0.01273 0.19213 0.65063 0.0
C350 C 0.91913 0.24759 0.68283 0.0
C351 C 0.03037 0.1858 0.7322 0.0
H352 H -0.00295 0.25522 0.84919 0.0
H353 H 0.92142 0.18364 0.84068 0.0
H354 H 0.03413 0.25483 0.75042 0.0
H355 H -0.00611 0.27319 0.7285 0.0
H356 H 0.01244 0.28301 0.78322 0.0
H357 H 0.90098 0.16453 0.77127 0.0
H358 H 0.90608 0.18608 0.72079 0.0
H359 H 0.94223 0.16138 0.73696 0.0
H360 H 0.93996 0.22733 0.60092 0.0
H361 H 0.03575 0.17788 0.64209 0.0
H362 H 0.92733 0.26441 0.70772 0.0
H363 H 0.89624 0.23482 0.69807 0.0
H364 H 0.90823 0.25846 0.65195 0.0
H365 H 0.04222 0.20309 0.75384 0.0
H366 H 0.05369 0.17291 0.71778 0.0
H367 H 0.01359 0.17145 0.75433 0.0
C368 C 0.54571 0.66854 0.20205 0.0
C369 C 0.52751 0.68325 0.16682 0.0
C370 C 0.53134 0.66873 0.24594 0.0
C371 C 0.49803 0.68414 0.25485 0.0
C372 C 0.48055 0.70034 0.22004 0.0
C373 C 0.49551 0.69966 0.17622 0.0
C374 C 0.55081 0.65118 0.28221 0.0
C375 C 0.44518 0.71725 0.22859 0.0
C376 C 0.44263 0.65171 0.35062 0.0
C377 C 0.45379 0.66894 0.38719 0.0
C378 C 0.45553 0.65733 0.30688 0.0
C379 C 0.48001 0.68084 0.29956 0.0
C380 C 0.49005 0.69914 0.33594 0.0
C381 C 0.4769 0.69289 0.37949 0.0
C382 C 0.44432 0.63725 0.2689 0.0
C383 C 0.51583 0.72456 0.32918 0.0
H384 H 0.57068 0.65604 0.1951 0.0
H385 H 0.48147 0.7112 0.14911 0.0
H386 H 0.55602 0.66475 0.31248 0.0
H387 H 0.53269 0.63296 0.29283 0.0
H388 H 0.57781 0.64209 0.27046 0.0
H389 H 0.43774 0.73155 0.19966 0.0
H390 H 0.42186 0.70199 0.23444 0.0
H391 H 0.44803 0.73073 0.25945 0.0
H392 H 0.42454 0.6333 0.35631 0.0
H393 H 0.48531 0.70645 0.40762 0.0
H394 H 0.46915 0.6252 0.25669 0.0
H395 H 0.43315 0.64989 0.23993 0.0
H396 H 0.42295 0.62129 0.27959 0.0
H397 H 0.54429 0.71653 0.32149 0.0
H398 H 0.51732 0.73863 0.3596 0.0
H399 H 0.50655 0.73786 0.29994 0.0
C400 C 0.47632 0.27569 0.34266 0.0
C401 C 0.50106 0.29804 0.35391 0.0
C402 C 0.46306 0.27263 0.29817 0.0
C403 C 0.47479 0.29246 0.26457 0.0
C404 C 0.50023 0.31472 0.2757 0.0
C405 C 0.51305 0.31719 0.32016 0.0
C406 C 0.43608 0.24859 0.28728 0.0
C407 C 0.51332 0.3364 0.24085 0.0
C408 C 0.46895 0.28206 0.13807 0.0
C409 C 0.43981 0.30116 0.1272 0.0
C410 C 0.47891 0.27703 0.18333 0.0
C411 C 0.45922 0.29146 0.21815 0.0
C412 C 0.42793 0.30889 0.2074 0.0
C413 C 0.41862 0.31354 0.162 0.0
C414 C 0.51224 0.25807 0.1936 0.0
C415 C 0.40611 0.32458 0.24357 0.0
H416 H 0.46711 0.26076 0.36863 0.0
H417 H 0.53228 0.33445 0.32853 0.0
H418 H 0.40874 0.25799 0.27749 0.0
H419 H 0.44628 0.2358 0.25802 0.0
H420 H 0.43185 0.23373 0.31639 0.0
H421 H 0.5341 0.35181 0.25479 0.0
H422 H 0.52602 0.32497 0.21168 0.0
H423 H 0.48921 0.34904 0.22783 0.0
H424 H 0.48519 0.27222 0.11126 0.0
H425 H 0.39566 0.32796 0.15378 0.0
H426 H 0.50647 0.24356 0.22268 0.0
H427 H 0.53623 0.27194 0.20303 0.0
H428 H 0.52041 0.24464 0.16405 0.0
H429 H 0.39951 0.30977 0.27198 0.0
H430 H 0.37967 0.33389 0.23027 0.0
H431 H 0.4232 0.34253 0.25741 0.0
C432 C 0.51514 0.27232 0.85428 0.0
C433 C 0.49739 0.29818 0.86679 0.0
C434 C 0.51783 0.2644 0.80852 0.0
C435 C 0.50342 0.28329 0.77493 0.0
C436 C 0.48643 0.30981 0.78761 0.0
C437 C 0.48313 0.31669 0.83344 0.0
C438 C 0.5352 0.23564 0.79615 0.0
C439 C 0.47169 0.33098 0.7528 0.0
C440 C 0.53644 0.28548 0.65424 0.0
C441 C 0.50443 0.27621 0.63108 0.0
C442 C 0.53766 0.28585 0.70153 0.0
C443 C 0.50643 0.27611 0.72622 0.0
C444 C 0.47557 0.264 0.70314 0.0
C445 C 0.47473 0.26449 0.65568 0.0
C446 C 0.57088 0.29934 0.72475 0.0
C447 C 0.44224 0.25258 0.72849 0.0
H448 H 0.52571 0.25788 0.8803 0.0
H449 H 0.46956 0.33676 0.84328 0.0
H450 H 0.51424 0.22191 0.77883 0.0
H451 H 0.55851 0.23888 0.77213 0.0
H452 H 0.54586 0.22376 0.82624 0.0
H453 H 0.46069 0.35117 0.76838 0.0
H454 H 0.49412 0.3369 0.72875 0.0
H455 H 0.449 0.32079 0.73295 0.0
H456 H 0.55971 0.29436 0.63554 0.0
H457 H 0.45015 0.25688 0.638 0.0
H458 H 0.57994 0.28608 0.75409 0.0
H459 H 0.56294 0.32106 0.73777 0.0
H460 H 0.59487 0.30196 0.70144 0.0
H461 H 0.45122 0.23942 0.75802 0.0
H462 H 0.42405 0.23914 0.70652 0.0
H463 H 0.42552 0.27105 0.74147 0.0
C464 C 0.5195 0.67358 0.86672 0.0
C465 C 0.49635 0.68964 0.8955 0.0
C466 C 0.51464 0.67447 0.81984 0.0
C467 C 0.48664 0.69257 0.8012 0.0
C468 C 0.46433 0.70997 0.82993 0.0
C469 C 0.469 0.7079 0.87701 0.0
C470 C 0.53834 0.65497 0.79048 0.0
C471 C 0.43506 0.73021 0.81099 0.0
C472 C 0.49791 0.70194 0.6748 0.0
C473 C 0.47301 0.68108 0.6585 0.0
C474 C 0.50069 0.70757 0.72131 0.0
C475 C 0.47904 0.69116 0.75198 0.0
C476 C 0.45307 0.67071 0.73548 0.0
C477 C 0.44997 0.66625 0.68883 0.0
C478 C 0.52778 0.73023 0.73771 0.0
C479 C 0.43025 0.65216 0.76711 0.0
H480 H 0.5405 0.65927 0.88098 0.0
H481 H 0.45133 0.72051 0.8993 0.0
H482 H 0.52028 0.63937 0.77221 0.0
H483 H 0.55321 0.66795 0.76467 0.0
H484 H 0.55926 0.64252 0.81038 0.0
H485 H 0.42345 0.74484 0.83729 0.0
H486 H 0.44697 0.74357 0.78338 0.0
H487 H 0.41189 0.71744 0.79628 0.0
H488 H 0.51539 0.71367 0.65123 0.0
H489 H 0.43079 0.65002 0.67624 0.0
H490 H 0.55212 0.71948 0.7538 0.0
H491 H 0.51453 0.74423 0.76364 0.0
H492 H 0.538 0.74411 0.70966 0.0
H493 H 0.44906 0.6378 0.78693 0.0
H494 H 0.40986 0.63842 0.74875 0.0
H495 H 0.4149 0.66593 0.79154 0.0
C496 C 0.2827 0.31363 0.97464 0.0
C497 C 0.31318 0.30596 0.94769 0.0
C498 C 0.24836 0.29959 0.96948 0.0
C499 C 0.24432 0.27805 0.93571 0.0
C500 C 0.27424 0.27191 0.90611 0.0
C501 C 0.30858 0.28563 0.91295 0.0
C502 C 0.21728 0.30638 0.00221 0.0
C503 C 0.27058 0.24984 0.86871 0.0
C504 C 0.17547 0.21828 0.96167 0.0
C505 C 0.14333 0.22854 0.94 0.0
C506 C 0.2088 0.23398 0.95976 0.0
C507 C 0.21015 0.26006 0.93446 0.0
C508 C 0.17831 0.26959 0.91032 0.0
C509 C 0.14501 0.25393 0.91399 0.0
C510 C 0.24202 0.22336 -0.0134 0.0
C511 C 0.17911 0.29672 0.88173 0.0
H512 H 0.28635 0.32922 0.00169 0.0
H513 H 0.33215 0.27989 0.89185 0.0
H514 H 0.19122 0.31154 -0.01636 0.0
H515 H 0.21171 0.28706 0.02353 0.0
H516 H 0.22413 0.32489 0.02471 0.0
H517 H 0.29424 0.25086 0.8446 0.0
H518 H 0.26973 0.22773 0.88346 0.0
H519 H 0.24419 0.2532 0.84975 0.0
H520 H 0.17409 0.19875 -0.01799 0.0
H521 H 0.12016 0.26173 0.89692 0.0
H522 H 0.24967 0.23973 0.01245 0.0
H523 H 0.26643 0.22052 0.96409 0.0
H524 H 0.23652 0.20243 0.00395 0.0
H525 H 0.18178 0.31602 0.90383 0.0
H526 H 0.15348 0.29921 0.86092 0.0
H527 H 0.20364 0.29642 0.85896 0.0
C528 C 0.66869 0.73768 -0.02184 0.0
C529 C 0.6685 0.71377 0.00747 0.0
C530 C 0.70088 0.75434 0.97235 0.0
C531 C 0.73334 0.74732 -0.00267 0.0
C532 C 0.7333 0.72322 0.02708 0.0
C533 C 0.70092 0.70647 0.03137 0.0
C534 C 0.70019 0.77938 0.9394 0.0
C535 C 0.76725 0.71542 0.05484 0.0
C536 C 0.82714 0.77292 0.95501 0.0
C537 C 0.83287 0.79783 -0.0188 0.0
C538 C 0.79458 0.75655 0.95945 0.0
C539 C 0.76755 0.76491 -0.00833 0.0
C540 C 0.77316 0.79008 0.01825 0.0
C541 C 0.80565 0.80651 0.01226 0.0
C542 C 0.78914 0.73029 0.92968 0.0
C543 C 0.7452 0.79931 0.05353 0.0
H544 H 0.64364 0.74326 0.95947 0.0
H545 H 0.70067 0.68815 0.05436 0.0
H546 H 0.70601 0.79996 0.95742 0.0
H547 H 0.72236 0.77648 0.91367 0.0
H548 H 0.67296 0.78149 0.92175 0.0
H549 H 0.76232 0.69649 0.07729 0.0
H550 H 0.791 0.71032 0.03224 0.0
H551 H 0.77561 0.73418 0.07598 0.0
H552 H 0.8481 0.76631 0.93072 0.0
H553 H 0.81026 0.82564 0.03276 0.0
H554 H 0.7626 0.7323 0.9106 0.0
H555 H 0.78717 0.71047 0.95081 0.0
H556 H 0.81226 0.72736 0.90517 0.0
H557 H 0.71776 0.80352 0.03744 0.0
H558 H 0.75401 0.81916 0.07186 0.0
H559 H 0.74123 0.78159 0.07845 0.0
C560 C 0.16079 0.76989 0.53964 0.0
C561 C 0.13225 0.75922 0.51201 0.0
C562 C 0.19336 0.75358 0.54707 0.0
C563 C 0.19783 0.72651 0.52507 0.0
C564 C 0.16859 0.71534 0.49816 0.0
C565 C 0.13593 0.73167 0.4925 0.0
C566 C 0.22353 0.76579 0.57707 0.0
C567 C 0.17265 0.68699 0.47306 0.0
C568 C 0.29671 0.70587 0.49459 0.0
C569 C 0.30429 0.68352 0.52532 0.0
C570 C 0.26194 0.71964 0.49381 0.0
C571 C 0.23453 0.71155 0.52571 0.0
C572 C 0.24214 0.68909 0.5572 0.0
C573 C 0.27688 0.6749 0.55608 0.0
C574 C 0.25454 0.74278 0.45865 0.0
C575 C 0.21395 0.68054 0.59253 0.0
H576 H 0.15777 0.79105 0.55516 0.0
H577 H 0.11392 0.72339 0.47097 0.0
H578 H 0.23366 0.74901 0.6011 0.0
H579 H 0.2476 0.77251 0.5561 0.0
H580 H 0.21371 0.78491 0.59659 0.0
H581 H 0.14632 0.68032 0.45628 0.0
H582 H 0.19456 0.68917 0.44684 0.0
H583 H 0.1816 0.66947 0.4964 0.0
H584 H 0.31797 0.71235 0.47064 0.0
H585 H 0.28307 0.65778 0.58014 0.0
H586 H 0.24911 0.76387 0.47541 0.0
H587 H 0.22931 0.73723 0.43874 0.0
H588 H 0.27827 0.7455 0.43498 0.0
H589 H 0.20683 0.69964 0.61368 0.0
H590 H 0.22437 0.66292 0.61491 0.0
H591 H 0.18782 0.67325 0.5761 0.0
C592 C 0.65993 0.24033 0.4535 0.0
C593 C 0.65675 0.26622 0.47799 0.0
C594 C 0.69383 0.22523 0.45149 0.0
C595 C 0.72493 0.23585 0.47572 0.0
C596 C 0.72179 0.2619 0.50083 0.0
C597 C 0.68778 0.27706 0.50109 0.0
C598 C 0.69644 0.19806 0.42316 0.0
C599 C 0.75418 0.27355 0.52784 0.0
C600 C 0.80349 0.18324 0.50353 0.0
C601 C 0.83078 0.19196 0.4727 0.0
C602 C 0.76877 0.19737 0.505 0.0
C603 C 0.76103 0.22006 0.47395 0.0
C604 C 0.78804 0.22802 0.4415 0.0
C605 C 0.82282 0.21417 0.44176 0.0
C606 C 0.7409 0.18874 0.54069 0.0
C607 C 0.7804 0.25142 0.40689 0.0
H608 H 0.63594 0.23205 0.43537 0.0
H609 H 0.68518 0.29694 0.52037 0.0
H610 H 0.71873 0.20048 0.39749 0.0
H611 H 0.70408 0.17928 0.44476 0.0
H612 H 0.66986 0.19311 0.40551 0.0
H613 H 0.7467 0.29342 0.54704 0.0
H614 H 0.7642 0.25682 0.55203 0.0
H615 H 0.77771 0.2787 0.50497 0.0
H616 H 0.80988 0.16625 0.52774 0.0
H617 H 0.84394 0.22077 0.41772 0.0
H618 H 0.71428 0.18221 0.52463 0.0
H619 H 0.73477 0.20759 0.56279 0.0
H620 H 0.75113 0.17056 0.56209 0.0
H621 H 0.7543 0.24662 0.38821 0.0
H622 H 0.80345 0.25364 0.38212 0.0
H623 H 0.77641 0.27256 0.4241 0.0
loop_
_geom_bond_atom_site_label_1
_geom_bond_atom_site_label_2
_geom_bond_distance
_geom_bond_site_symmetry_2
_ccdc_geom_bond_type
C0 O1 1.306 1_455 S
C0 O3 1.160 . S
O1 C0 1.306 1_655 S
O1 Cd2 2.228 1_556 S
Cd2 O1 2.228 1_554 S
Cd2 O6 2.273 1_655 S
Cd2 O10 2.277 1_655 S
O3 C0 1.160 . S
O3 Cd4 2.203 1_556 S
Cd4 O3 2.203 1_554 S
Cd4 O6 2.411 . S
Cd4 O7 2.333 . S
Cd4 O8 2.352 . S
Cd4 O12 2.277 . S
Cd4 O13 2.356 . S
C5 O10 1.209 . S
C5 O12 1.226 . S
O6 Cd2 2.273 1_455 S
O6 Cd4 2.411 . S
O6 C9 1.320 . S
O7 Cd4 2.333 . S
O7 C9 1.214 . S
O8 Cd4 2.352 . S
O8 C11 1.258 . S
C9 O6 1.320 . S
C9 O7 1.214 . S
O10 Cd2 2.277 1_455 S
O10 C5 1.209 . S
C11 O8 1.258 . S
C11 O13 1.282 . S
O12 Cd4 2.277 . S
O12 C5 1.226 . S
O13 Cd4 2.356 . S
O13 C11 1.282 . S
C14 O15 1.306 1_655 S
C14 O17 1.160 . S
O15 C14 1.306 1_455 S
O15 Cd16 2.228 1_556 S
Cd16 O15 2.228 1_554 S
Cd16 O20 2.273 1_455 S
Cd16 O24 2.277 1_455 S
O17 C14 1.160 . S
O17 Cd18 2.203 1_556 S
Cd18 O17 2.203 1_554 S
Cd18 O20 2.411 . S
Cd18 O21 2.333 . S
Cd18 O22 2.352 . S
Cd18 O26 2.277 . S
Cd18 O27 2.356 . S
C19 O24 1.209 . S
C19 O26 1.226 . S
O20 Cd16 2.273 1_655 S
O20 Cd18 2.411 . S
O20 C23 1.320 . S
O21 Cd18 2.333 . S
O21 C23 1.214 . S
O22 Cd18 2.352 . S
O22 C25 1.258 . S
C23 O20 1.320 . S
C23 O21 1.214 . S
O24 Cd16 2.277 1_655 S
O24 C19 1.209 . S
C25 O22 1.258 . S
C25 O27 1.282 . S
O26 Cd18 2.277 . S
O26 C19 1.226 . S
O27 Cd18 2.356 . S
O27 C25 1.282 . S
C28 O29 1.306 1_455 S
C28 O31 1.160 . S
O29 C28 1.306 1_655 S
O29 Cd30 2.228 . S
Cd30 O29 2.228 . S
Cd30 O34 2.273 1_655 S
Cd30 O38 2.277 1_655 S
O31 C28 1.160 . S
O31 Cd32 2.203 . S
Cd32 O31 2.203 . S
Cd32 O34 2.411 . S
Cd32 O35 2.333 . S
Cd32 O36 2.352 . S
Cd32 O40 2.277 . S
Cd32 O41 2.356 . S
C33 O38 1.209 . S
C33 O40 1.226 . S
O34 Cd30 2.273 1_455 S
O34 Cd32 2.411 . S
O34 C37 1.320 . S
O35 Cd32 2.333 . S
O35 C37 1.214 . S
O36 Cd32 2.352 . S
O36 C39 1.258 . S
C37 O34 1.320 . S
C37 O35 1.214 . S
O38 Cd30 2.277 1_455 S
O38 C33 1.209 . S
C39 O36 1.258 . S
C39 O41 1.282 . S
O40 Cd32 2.277 . S
O40 C33 1.226 . S
O41 Cd32 2.356 . S
O41 C39 1.282 . S
C42 O43 1.306 1_655 S
C42 O45 1.160 . S
O43 C42 1.306 1_455 S
O43 Cd44 2.228 . S
Cd44 O43 2.228 . S
Cd44 O48 2.273 1_455 S
Cd44 O52 2.277 1_455 S
O45 C42 1.160 . S
O45 Cd46 2.203 . S
Cd46 O45 2.203 . S
Cd46 O48 2.411 . S
Cd46 O49 2.333 . S
Cd46 O50 2.352 . S
Cd46 O54 2.277 . S
Cd46 O55 2.356 . S
C47 O52 1.209 . S
C47 O54 1.226 . S
O48 Cd44 2.273 1_655 S
O48 Cd46 2.411 . S
O48 C51 1.320 . S
O49 Cd46 2.333 . S
O49 C51 1.214 . S
O50 Cd46 2.352 . S
O50 C53 1.258 . S
C51 O48 1.320 . S
C51 O49 1.214 . S
O52 Cd44 2.277 1_655 S
O52 C47 1.209 . S
C53 O50 1.258 . S
C53 O55 1.282 . S
O54 Cd46 2.277 . S
O54 C47 1.226 . S
O55 Cd46 2.356 . S
O55 C53 1.282 . S
C56 O57 1.306 . S
C56 O59 1.160 . S
O57 C56 1.306 . S
O57 Cd58 2.228 1_556 S
Cd58 O57 2.228 1_554 S
Cd58 O62 2.273 . S
Cd58 O66 2.277 . S
O59 C56 1.160 . S
O59 Cd60 2.203 1_556 S
Cd60 O59 2.203 1_554 S
Cd60 O62 2.411 . S
Cd60 O63 2.333 . S
Cd60 O64 2.352 . S
Cd60 O68 2.277 . S
Cd60 O69 2.356 . S
C61 O66 1.209 . S
C61 O68 1.226 . S
O62 Cd58 2.273 . S
O62 Cd60 2.411 . S
O62 C65 1.320 . S
O63 Cd60 2.333 . S
O63 C65 1.214 . S
O64 Cd60 2.352 . S
O64 C67 1.258 . S
C65 O62 1.320 . S
C65 O63 1.214 . S
O66 Cd58 2.277 . S
O66 C61 1.209 . S
C67 O64 1.258 . S
C67 O69 1.282 . S
O68 Cd60 2.277 . S
O68 C61 1.226 . S
O69 Cd60 2.356 . S
O69 C67 1.282 . S
C70 O71 1.306 . S
C70 O73 1.160 . S
O71 C70 1.306 . S
O71 Cd72 2.228 1_556 S
Cd72 O71 2.228 1_554 S
Cd72 O76 2.273 . S
Cd72 O80 2.277 . S
O73 C70 1.160 . S
O73 Cd74 2.203 1_556 S
Cd74 O73 2.203 1_554 S
Cd74 O76 2.411 . S
Cd74 O77 2.333 . S
Cd74 O78 2.352 . S
Cd74 O82 2.277 . S
Cd74 O83 2.356 . S
C75 O80 1.209 . S
C75 O82 1.226 . S
O76 Cd72 2.273 . S
O76 Cd74 2.411 . S
O76 C79 1.320 . S
O77 Cd74 2.333 . S
O77 C79 1.214 . S
O78 Cd74 2.352 . S
O78 C81 1.258 . S
C79 O76 1.320 . S
C79 O77 1.214 . S
O80 Cd72 2.277 . S
O80 C75 1.209 . S
C81 O78 1.258 . S
C81 O83 1.282 . S
O82 Cd74 2.277 . S
O82 C75 1.226 . S
O83 Cd74 2.356 . S
O83 C81 1.282 . S
C84 O85 1.306 . S
C84 O87 1.160 . S
O85 C84 1.306 . S
O85 Cd86 2.228 . S
Cd86 O85 2.228 . S
Cd86 O90 2.273 . S
Cd86 O94 2.277 . S
O87 C84 1.160 . S
O87 Cd88 2.203 . S
Cd88 O87 2.203 . S
Cd88 O90 2.411 . S
Cd88 O91 2.333 . S
Cd88 O92 2.352 . S
Cd88 O96 2.277 . S
Cd88 O97 2.356 . S
C89 O94 1.209 . S
C89 O96 1.226 . S
O90 Cd86 2.273 . S
O90 Cd88 2.411 . S
O90 C93 1.320 . S
O91 Cd88 2.333 . S
O91 C93 1.214 . S
O92 Cd88 2.352 . S
O92 C95 1.258 . S
C93 O90 1.320 . S
C93 O91 1.214 . S
O94 Cd86 2.277 . S
O94 C89 1.209 . S
C95 O92 1.258 . S
C95 O97 1.282 . S
O96 Cd88 2.277 . S
O96 C89 1.226 . S
O97 Cd88 2.356 . S
O97 C95 1.282 . S
C98 O99 1.306 . S
C98 O101 1.160 . S
O99 C98 1.306 . S
O99 Cd100 2.228 . S
Cd100 O99 2.228 . S
Cd100 O104 2.273 . S
Cd100 O108 2.277 . S
O101 C98 1.160 . S
O101 Cd102 2.203 . S
Cd102 O101 2.203 . S
Cd102 O104 2.411 . S
Cd102 O105 2.333 . S
Cd102 O106 2.352 . S
Cd102 O110 2.277 . S
Cd102 O111 2.356 . S
C103 O108 1.209 . S
C103 O110 1.226 . S
O104 Cd100 2.273 . S
O104 Cd102 2.411 . S
O104 C107 1.320 . S
O105 Cd102 2.333 . S
O105 C107 1.214 . S
O106 Cd102 2.352 . S
O106 C109 1.258 . S
C107 O104 1.320 . S
C107 O105 1.214 . S
O108 Cd100 2.277 . S
O108 C103 1.209 . S
C109 O106 1.258 . S
C109 O111 1.282 . S
O110 Cd102 2.277 . S
O110 C103 1.226 . S
O111 Cd102 2.356 . S
O111 C109 1.282 . S
C112 C113 1.391 . S
C112 C114 1.394 . S
C112 H128 0.931 . S
C113 C112 1.391 . S
C113 C117 1.376 1_654 S
C114 C112 1.394 . S
C114 C115 1.391 . S
C114 C118 1.531 . S
C115 C114 1.391 . S
C115 C116 1.394 1_654 S
C115 C123 1.497 1_665 S
C116 C115 1.394 1_456 S
C116 C117 1.392 . S
C116 C119 1.511 . S
C117 C113 1.376 1_456 S
C117 C116 1.392 . S
C117 H129 0.929 . S
C118 C114 1.531 . S
C118 H130 0.960 1_565 S
C118 H131 0.962 1_565 S
C118 H132 0.960 . S
C119 C116 1.511 . S
C119 H133 0.961 . S
C119 H134 0.961 . S
C119 H135 0.961 . S
C120 C121 1.370 1_556 S
C120 C122 1.363 1_455 S
C120 H136 0.931 1_455 S
C121 C120 1.370 1_554 S
C121 C125 1.408 . S
C122 C120 1.363 1_655 S
C122 C123 1.370 1_656 S
C122 C126 1.524 . S
C123 C115 1.497 1_445 S
C123 C122 1.370 1_454 S
C123 C124 1.403 . S
C124 C123 1.403 . S
C124 C125 1.404 . S
C124 C127 1.539 . S
C125 C121 1.408 . S
C125 C124 1.404 . S
C125 H137 0.930 . S
C126 C122 1.524 . S
C126 H138 0.956 . S
C126 H139 0.961 . S
C126 H140 0.961 . S
C127 C124 1.539 . S
C127 H141 0.958 . S
C127 H142 0.961 . S
C127 H143 0.960 1_545 S
H128 C112 0.931 . S
H129 C117 0.929 . S
H130 C118 0.960 1_545 S
H131 C118 0.962 1_545 S
H132 C118 0.960 . S
H133 C119 0.961 . S
H134 C119 0.961 . S
H135 C119 0.961 . S
H136 C120 0.931 1_655 S
H137 C125 0.930 . S
H138 C126 0.956 . S
H139 C126 0.961 . S
H140 C126 0.961 . S
H141 C127 0.958 . S
H142 C127 0.961 . S
H143 C127 0.960 1_565 S
C144 C145 1.391 . S
C144 C146 1.394 . S
C144 H160 0.931 . S
C145 C144 1.391 . S
C145 C149 1.376 1_455 S
C146 C144 1.394 . S
C146 C147 1.365 1_455 S
C146 C150 1.531 . S
C147 C146 1.365 1_655 S
C147 C148 1.412 . S
C147 C155 1.504 1_565 S
C148 C147 1.412 . S
C148 C149 1.392 . S
C148 C151 1.511 . S
C149 C145 1.376 1_655 S
C149 C148 1.392 . S
C149 H161 0.929 . S
C150 C146 1.531 . S
C150 H162 0.960 1_565 S
C150 H163 0.962 1_565 S
C150 H164 0.960 . S
C151 C148 1.511 . S
C151 H165 0.961 . S
C151 H166 0.961 . S
C151 H167 0.961 . S
C152 C153 1.370 1_455 S
C152 C154 1.363 . S
C152 H168 0.931 . S
C153 C152 1.370 1_655 S
C153 C157 1.408 . S
C154 C152 1.363 . S
C154 C155 1.370 1_455 S
C154 C158 1.524 . S
C155 C147 1.504 1_545 S
C155 C154 1.370 1_655 S
C155 C156 1.403 . S
C156 C155 1.403 . S
C156 C157 1.404 . S
C156 C159 1.539 . S
C157 C153 1.408 . S
C157 C156 1.404 . S
C157 H169 0.930 . S
C158 C154 1.524 . S
C158 H170 0.956 . S
C158 H171 0.961 . S
C158 H172 0.961 . S
C159 C156 1.539 . S
C159 H173 0.958 . S
C159 H174 0.961 . S
C159 H175 0.960 1_545 S
H160 C144 0.931 . S
H161 C149 0.929 . S
H162 C150 0.960 1_545 S
H163 C150 0.962 1_545 S
H164 C150 0.960 . S
H165 C151 0.961 . S
H166 C151 0.961 . S
H167 C151 0.961 . S
H168 C152 0.931 . S
H169 C157 0.930 . S
H170 C158 0.956 . S
H171 C158 0.961 . S
H172 C158 0.961 . S
H173 C159 0.958 . S
H174 C159 0.961 . S
H175 C159 0.960 1_565 S
C176 C177 1.391 . S
C176 C178 1.394 . S
C176 H192 0.931 . S
C177 C176 1.391 . S
C177 C181 1.376 1_554 S
C178 C176 1.394 . S
C178 C179 1.369 . S
C178 C182 1.531 . S
C179 C178 1.369 . S
C179 C180 1.410 1_554 S
C179 C187 1.503 . S
C180 C179 1.410 1_556 S
C180 C181 1.392 . S
C180 C183 1.511 . S
C181 C177 1.376 1_556 S
C181 C180 1.392 . S
C181 H193 0.929 . S
C182 C178 1.531 . S
C182 H194 0.960 . S
C182 H195 0.962 . S
C182 H196 0.960 . S
C183 C180 1.511 . S
C183 H197 0.961 . S
C183 H198 0.961 . S
C183 H199 0.961 . S
C184 C185 1.370 1_556 S
C184 C186 1.363 . S
C184 H200 0.931 . S
C185 C184 1.370 1_554 S
C185 C189 1.408 . S
C186 C184 1.363 . S
C186 C187 1.370 1_556 S
C186 C190 1.524 . S
C187 C179 1.503 . S
C187 C186 1.370 1_554 S
C187 C188 1.403 . S
C188 C187 1.403 . S
C188 C189 1.404 . S
C188 C191 1.539 . S
C189 C185 1.408 . S
C189 C188 1.404 . S
C189 H201 0.930 . S
C190 C186 1.524 . S
C190 H202 0.956 . S
C190 H203 0.961 . S
C190 H204 0.961 . S
C191 C188 1.539 . S
C191 H205 0.958 . S
C191 H206 0.961 . S
C191 H207 0.960 . S
H192 C176 0.931 . S
H193 C181 0.929 . S
H194 C182 0.960 . S
H195 C182 0.962 . S
H196 C182 0.960 . S
H197 C183 0.961 . S
H198 C183 0.961 . S
H199 C183 0.961 . S
H200 C184 0.931 . S
H201 C189 0.930 . S
H202 C190 0.956 . S
H203 C190 0.961 . S
H204 C190 0.961 . S
H205 C191 0.958 . S
H206 C191 0.961 . S
H207 C191 0.960 . S
C208 C209 1.391 . S
C208 C210 1.394 . S
C208 H224 0.931 . S
C209 C208 1.391 . S
C209 C213 1.376 . S
C210 C208 1.394 . S
C210 C211 1.369 . S
C210 C214 1.531 . S
C211 C210 1.369 . S
C211 C212 1.410 . S
C211 C219 1.503 . S
C212 C211 1.410 . S
C212 C213 1.392 . S
C212 C215 1.511 . S
C213 C209 1.376 . S
C213 C212 1.392 . S
C213 H225 0.929 . S
C214 C210 1.531 . S
C214 H226 0.960 . S
C214 H227 0.962 . S
C214 H228 0.960 . S
C215 C212 1.511 . S
C215 H229 0.961 . S
C215 H230 0.961 . S
C215 H231 0.961 . S
C216 C217 1.370 . S
C216 C218 1.363 . S
C216 H232 0.931 . S
C217 C216 1.370 . S
C217 C221 1.408 . S
C218 C216 1.363 . S
C218 C219 1.370 . S
C218 C222 1.524 . S
C219 C211 1.503 . S
C219 C218 1.370 . S
C219 C220 1.403 . S
C220 C219 1.403 . S
C220 C221 1.404 . S
C220 C223 1.539 . S
C221 C217 1.408 . S
C221 C220 1.404 . S
C221 H233 0.930 . S
C222 C218 1.524 . S
C222 H234 0.956 . S
C222 H235 0.961 . S
C222 H236 0.961 . S
C223 C220 1.539 . S
C223 H237 0.958 . S
C223 H238 0.961 . S
C223 H239 0.960 . S
H224 C208 0.931 . S
H225 C213 0.929 . S
H226 C214 0.960 . S
H227 C214 0.962 . S
H228 C214 0.960 . S
H229 C215 0.961 . S
H230 C215 0.961 . S
H231 C215 0.961 . S
H232 C216 0.931 . S
H233 C221 0.930 . S
H234 C222 0.956 . S
H235 C222 0.961 . S
H236 C222 0.961 . S
H237 C223 0.958 . S
H238 C223 0.961 . S
H239 C223 0.960 . S
C240 C241 1.391 1_655 S
C240 C242 1.394 . S
C240 H256 0.931 . S
C241 C240 1.391 1_455 S
C241 C245 1.376 . S
C242 C240 1.394 . S
C242 C243 1.369 1_655 S
C242 C246 1.531 . S
C243 C242 1.369 1_455 S
C243 C244 1.410 . S
C243 C251 1.504 1_455 S
C244 C243 1.410 . S
C244 C245 1.392 . S
C244 C247 1.511 . S
C245 C241 1.376 . S
C245 C244 1.392 . S
C245 H257 0.929 . S
C246 C242 1.531 . S
C246 H258 0.960 . S
C246 H259 0.962 . S
C246 H260 0.960 . S
C247 C244 1.511 . S
C247 H261 0.961 . S
C247 H262 0.961 . S
C247 H263 0.961 . S
C248 C249 1.370 . S
C248 C250 1.363 . S
C248 H264 0.931 . S
C249 C248 1.370 . S
C249 C253 1.408 1_655 S
C250 C248 1.363 . S
C250 C251 1.369 . S
C250 C254 1.524 . S
C251 C243 1.504 1_655 S
C251 C250 1.369 . S
C251 C252 1.403 1_655 S
C252 C251 1.403 1_455 S
C252 C253 1.404 . S
C252 C255 1.539 . S
C253 C249 1.408 1_455 S
C253 C252 1.404 . S
C253 H265 0.930 . S
C254 C250 1.524 . S
C254 H266 0.956 . S
C254 H267 0.961 . S
C254 H268 0.961 . S
C255 C252 1.539 . S
C255 H269 0.958 . S
C255 H270 0.961 . S
C255 H271 0.960 . S
H256 C240 0.931 . S
H257 C245 0.929 . S
H258 C246 0.960 . S
H259 C246 0.962 . S
H260 C246 0.960 . S
H261 C247 0.961 . S
H262 C247 0.961 . S
H263 C247 0.961 . S
H264 C248 0.931 . S
H265 C253 0.930 . S
H266 C254 0.956 . S
H267 C254 0.961 . S
H268 C254 0.961 . S
H269 C255 0.958 . S
H270 C255 0.961 . S
H271 C255 0.960 . S
C272 C273 1.391 . S
C272 C274 1.394 . S
C272 H288 0.931 . S
C273 C272 1.391 . S
C273 C277 1.376 1_455 S
C274 C272 1.394 . S
C274 C275 1.369 1_455 S
C274 C278 1.531 . S
C275 C274 1.369 1_655 S
C275 C276 1.410 . S
C275 C283 1.503 . S
C276 C275 1.410 . S
C276 C277 1.392 . S
C276 C279 1.511 . S
C277 C273 1.376 1_655 S
C277 C276 1.392 . S
C277 H289 0.929 . S
C278 C274 1.531 . S
C278 H290 0.960 . S
C278 H291 0.962 . S
C278 H292 0.960 . S
C279 C276 1.511 . S
C279 H293 0.961 . S
C279 H294 0.961 . S
C279 H295 0.961 . S
C280 C281 1.370 1_455 S
C280 C282 1.363 . S
C280 H296 0.931 . S
C281 C280 1.370 1_655 S
C281 C285 1.408 . S
C282 C280 1.363 . S
C282 C283 1.370 1_455 S
C282 C286 1.524 . S
C283 C275 1.503 . S
C283 C282 1.370 1_655 S
C283 C284 1.403 . S
C284 C283 1.403 . S
C284 C285 1.404 . S
C284 C287 1.539 . S
C285 C281 1.408 . S
C285 C284 1.404 . S
C285 H297 0.930 . S
C286 C282 1.524 . S
C286 H298 0.956 . S
C286 H299 0.961 . S
C286 H300 0.961 . S
C287 C284 1.539 . S
C287 H301 0.958 . S
C287 H302 0.961 . S
C287 H303 0.960 . S
H288 C272 0.931 . S
H289 C277 0.929 . S
H290 C278 0.960 . S
H291 C278 0.962 . S
H292 C278 0.960 . S
H293 C279 0.961 . S
H294 C279 0.961 . S
H295 C279 0.961 . S
H296 C280 0.931 . S
H297 C285 0.930 . S
H298 C286 0.956 . S
H299 C286 0.961 . S
H300 C286 0.961 . S
H301 C287 0.958 . S
H302 C287 0.961 . S
H303 C287 0.960 . S
C304 C305 1.391 . S
C304 C306 1.394 . S
C304 H320 0.931 . S
C305 C304 1.391 . S
C305 C309 1.376 1_455 S
C306 C304 1.394 . S
C306 C307 1.369 1_455 S
C306 C310 1.531 . S
C307 C306 1.369 1_655 S
C307 C308 1.410 . S
C307 C315 1.503 . S
C308 C307 1.410 . S
C308 C309 1.392 . S
C308 C311 1.511 . S
C309 C305 1.376 1_655 S
C309 C308 1.392 . S
C309 H321 0.929 . S
C310 C306 1.531 . S
C310 H322 0.960 . S
C310 H323 0.962 . S
C310 H324 0.960 . S
C311 C308 1.511 . S
C311 H325 0.961 . S
C311 H326 0.961 . S
C311 H327 0.961 . S
C312 C313 1.370 1_455 S
C312 C314 1.363 . S
C312 H328 0.931 . S
C313 C312 1.370 1_655 S
C313 C317 1.408 . S
C314 C312 1.363 . S
C314 C315 1.370 1_455 S
C314 C318 1.524 . S
C315 C307 1.503 . S
C315 C314 1.370 1_655 S
C315 C316 1.403 . S
C316 C315 1.403 . S
C316 C317 1.404 . S
C316 C319 1.539 . S
C317 C313 1.408 . S
C317 C316 1.404 . S
C317 H329 0.930 . S
C318 C314 1.524 . S
C318 H330 0.956 . S
C318 H331 0.961 . S
C318 H332 0.961 . S
C319 C316 1.539 . S
C319 H333 0.958 . S
C319 H334 0.961 . S
C319 H335 0.960 . S
H320 C304 0.931 . S
H321 C309 0.929 . S
H322 C310 0.960 . S
H323 C310 0.962 . S
H324 C310 0.960 . S
H325 C311 0.961 . S
H326 C311 0.961 . S
H327 C311 0.961 . S
H328 C312 0.931 . S
H329 C317 0.930 . S
H330 C318 0.956 . S
H331 C318 0.961 . S
H332 C318 0.961 . S
H333 C319 0.958 . S
H334 C319 0.961 . S
H335 C319 0.960 . S
C336 C337 1.391 1_655 S
C336 C338 1.394 . S
C336 H352 0.931 . S
C337 C336 1.391 1_455 S
C337 C341 1.376 . S
C338 C336 1.394 . S
C338 C339 1.369 1_655 S
C338 C342 1.531 . S
C339 C338 1.369 1_455 S
C339 C340 1.410 . S
C339 C347 1.503 . S
C340 C339 1.410 . S
C340 C341 1.392 . S
C340 C343 1.511 . S
C341 C337 1.376 . S
C341 C340 1.392 . S
C341 H353 0.929 . S
C342 C338 1.531 . S
C342 H354 0.960 . S
C342 H355 0.962 . S
C342 H356 0.960 . S
C343 C340 1.511 . S
C343 H357 0.961 . S
C343 H358 0.961 . S
C343 H359 0.961 . S
C344 C345 1.370 . S
C344 C346 1.363 . S
C344 H360 0.931 . S
C345 C344 1.370 . S
C345 C349 1.408 1_655 S
C346 C344 1.363 . S
C346 C347 1.370 1_655 S
C346 C350 1.524 . S
C347 C339 1.503 . S
C347 C346 1.370 1_455 S
C347 C348 1.403 . S
C348 C347 1.403 . S
C348 C349 1.404 . S
C348 C351 1.539 . S
C349 C345 1.408 1_455 S
C349 C348 1.404 . S
C349 H361 0.930 . S
C350 C346 1.524 . S
C350 H362 0.956 . S
C350 H363 0.961 . S
C350 H364 0.961 . S
C351 C348 1.539 . S
C351 H365 0.958 . S
C351 H366 0.961 . S
C351 H367 0.960 . S
H352 C336 0.931 . S
H353 C341 0.929 . S
H354 C342 0.960 . S
H355 C342 0.962 . S
H356 C342 0.960 . S
H357 C343 0.961 . S
H358 C343 0.961 . S
H359 C343 0.961 . S
H360 C344 0.931 . S
H361 C349 0.930 . S
H362 C350 0.956 . S
H363 C350 0.961 . S
H364 C350 0.961 . S
H365 C351 0.958 . S
H366 C351 0.961 . S
H367 C351 0.960 . S
C368 C369 1.391 . S
C368 C370 1.394 . S
C368 H384 0.931 . S
C369 C368 1.391 . S
C369 C373 1.376 . S
C370 C368 1.394 . S
C370 C371 1.369 . S
C370 C374 1.531 . S
C371 C370 1.369 . S
C371 C372 1.410 . S
C371 C379 1.503 . S
C372 C371 1.410 . S
C372 C373 1.392 . S
C372 C375 1.511 . S
C373 C369 1.376 . S
C373 C372 1.392 . S
C373 H385 0.929 . S
C374 C370 1.531 . S
C374 H386 0.960 . S
C374 H387 0.962 . S
C374 H388 0.960 . S
C375 C372 1.511 . S
C375 H389 0.961 . S
C375 H390 0.961 . S
C375 H391 0.961 . S
C376 C377 1.370 . S
C376 C378 1.363 . S
C376 H392 0.931 . S
C377 C376 1.370 . S
C377 C381 1.408 . S
C378 C376 1.363 . S
C378 C379 1.370 . S
C378 C382 1.524 . S
C379 C371 1.503 . S
C379 C378 1.370 . S
C379 C380 1.403 . S
C380 C379 1.403 . S
C380 C381 1.404 . S
C380 C383 1.539 . S
C381 C377 1.408 . S
C381 C380 1.404 . S
C381 H393 0.930 . S
C382 C378 1.524 . S
C382 H394 0.956 . S
C382 H395 0.961 . S
C382 H396 0.961 . S
C383 C380 1.539 . S
C383 H397 0.958 . S
C383 H398 0.961 . S
C383 H399 0.960 . S
H384 C368 0.931 . S
H385 C373 0.929 . S
H386 C374 0.960 . S
H387 C374 0.962 . S
H388 C374 0.960 . S
H389 C375 0.961 . S
H390 C375 0.961 . S
H391 C375 0.961 . S
H392 C376 0.931 . S
H393 C381 0.930 . S
H394 C382 0.956 . S
H395 C382 0.961 . S
H396 C382 0.961 . S
H397 C383 0.958 . S
H398 C383 0.961 . S
H399 C383 0.960 . S
C400 C401 1.391 . S
C400 C402 1.394 . S
C400 H416 0.931 . S
C401 C400 1.391 . S
C401 C405 1.376 . S
C402 C400 1.394 . S
C402 C403 1.369 . S
C402 C406 1.531 . S
C403 C402 1.369 . S
C403 C404 1.410 . S
C403 C411 1.503 . S
C404 C403 1.410 . S
C404 C405 1.392 . S
C404 C407 1.511 . S
C405 C401 1.376 . S
C405 C404 1.392 . S
C405 H417 0.929 . S
C406 C402 1.531 . S
C406 H418 0.960 . S
C406 H419 0.962 . S
C406 H420 0.960 . S
C407 C404 1.511 . S
C407 H421 0.961 . S
C407 H422 0.961 . S
C407 H423 0.961 . S
C408 C409 1.370 . S
C408 C410 1.363 . S
C408 H424 0.931 . S
C409 C408 1.370 . S
C409 C413 1.408 . S
C410 C408 1.363 . S
C410 C411 1.370 . S
C410 C414 1.524 . S
C411 C403 1.503 . S
C411 C410 1.370 . S
C411 C412 1.403 . S
C412 C411 1.403 . S
C412 C413 1.404 . S
C412 C415 1.539 . S
C413 C409 1.408 . S
C413 C412 1.404 . S
C413 H425 0.930 . S
C414 C410 1.524 . S
C414 H426 0.956 . S
C414 H427 0.961 . S
C414 H428 0.961 . S
C415 C412 1.539 . S
C415 H429 0.958 . S
C415 H430 0.961 . S
C415 H431 0.960 . S
H416 C400 0.931 . S
H417 C405 0.929 . S
H418 C406 0.960 . S
H419 C406 0.962 . S
H420 C406 0.960 . S
H421 C407 0.961 . S
H422 C407 0.961 . S
H423 C407 0.961 . S
H424 C408 0.931 . S
H425 C413 0.930 . S
H426 C414 0.956 . S
H427 C414 0.961 . S
H428 C414 0.961 . S
H429 C415 0.958 . S
H430 C415 0.961 . S
H431 C415 0.960 . S
C432 C433 1.391 . S
C432 C434 1.394 . S
C432 H448 0.931 . S
C433 C432 1.391 . S
C433 C437 1.376 . S
C434 C432 1.394 . S
C434 C435 1.369 . S
C434 C438 1.531 . S
C435 C434 1.369 . S
C435 C436 1.410 . S
C435 C443 1.503 . S
C436 C435 1.410 . S
C436 C437 1.392 . S
C436 C439 1.511 . S
C437 C433 1.376 . S
C437 C436 1.392 . S
C437 H449 0.929 . S
C438 C434 1.531 . S
C438 H450 0.960 . S
C438 H451 0.962 . S
C438 H452 0.960 . S
C439 C436 1.511 . S
C439 H453 0.961 . S
C439 H454 0.961 . S
C439 H455 0.961 . S
C440 C441 1.370 . S
C440 C442 1.363 . S
C440 H456 0.931 . S
C441 C440 1.370 . S
C441 C445 1.408 . S
C442 C440 1.363 . S
C442 C443 1.370 . S
C442 C446 1.524 . S
C443 C435 1.503 . S
C443 C442 1.370 . S
C443 C444 1.403 . S
C444 C443 1.403 . S
C444 C445 1.404 . S
C444 C447 1.539 . S
C445 C441 1.408 . S
C445 C444 1.404 . S
C445 H457 0.930 . S
C446 C442 1.524 . S
C446 H458 0.956 . S
C446 H459 0.961 . S
C446 H460 0.961 . S
C447 C444 1.539 . S
C447 H461 0.958 . S
C447 H462 0.961 . S
C447 H463 0.960 . S
H448 C432 0.931 . S
H449 C437 0.929 . S
H450 C438 0.960 . S
H451 C438 0.962 . S
H452 C438 0.960 . S
H453 C439 0.961 . S
H454 C439 0.961 . S
H455 C439 0.961 . S
H456 C440 0.931 . S
H457 C445 0.930 . S
H458 C446 0.956 . S
H459 C446 0.961 . S
H460 C446 0.961 . S
H461 C447 0.958 . S
H462 C447 0.961 . S
H463 C447 0.960 . S
C464 C465 1.391 . S
C464 C466 1.394 . S
C464 H480 0.931 . S
C465 C464 1.391 . S
C465 C469 1.376 . S
C466 C464 1.394 . S
C466 C467 1.369 . S
C466 C470 1.531 . S
C467 C466 1.369 . S
C467 C468 1.410 . S
C467 C475 1.503 . S
C468 C467 1.410 . S
C468 C469 1.392 . S
C468 C471 1.511 . S
C469 C465 1.376 . S
C469 C468 1.392 . S
C469 H481 0.929 . S
C470 C466 1.531 . S
C470 H482 0.960 . S
C470 H483 0.962 . S
C470 H484 0.960 . S
C471 C468 1.511 . S
C471 H485 0.961 . S
C471 H486 0.961 . S
C471 H487 0.961 . S
C472 C473 1.370 . S
C472 C474 1.363 . S
C472 H488 0.931 . S
C473 C472 1.370 . S
C473 C477 1.408 . S
C474 C472 1.363 . S
C474 C475 1.370 . S
C474 C478 1.524 . S
C475 C467 1.503 . S
C475 C474 1.370 . S
C475 C476 1.403 . S
C476 C475 1.403 . S
C476 C477 1.404 . S
C476 C479 1.539 . S
C477 C473 1.408 . S
C477 C476 1.404 . S
C477 H489 0.930 . S
C478 C474 1.524 . S
C478 H490 0.956 . S
C478 H491 0.961 . S
C478 H492 0.961 . S
C479 C476 1.539 . S
C479 H493 0.958 . S
C479 H494 0.961 . S
C479 H495 0.960 . S
H480 C464 0.931 . S
H481 C469 0.929 . S
H482 C470 0.960 . S
H483 C470 0.962 . S
H484 C470 0.960 . S
H485 C471 0.961 . S
H486 C471 0.961 . S
H487 C471 0.961 . S
H488 C472 0.931 . S
H489 C477 0.930 . S
H490 C478 0.956 . S
H491 C478 0.961 . S
H492 C478 0.961 . S
H493 C479 0.958 . S
H494 C479 0.961 . S
H495 C479 0.960 . S
C496 C497 1.391 . S
C496 C498 1.394 . S
C496 H512 0.931 . S
C497 C496 1.391 . S
C497 C501 1.376 . S
C498 C496 1.394 . S
C498 C499 1.369 . S
C498 C502 1.531 . S
C499 C498 1.369 . S
C499 C500 1.410 . S
C499 C507 1.503 . S
C500 C499 1.410 . S
C500 C501 1.392 . S
C500 C503 1.511 . S
C501 C497 1.376 . S
C501 C500 1.392 . S
C501 H513 0.929 . S
C502 C498 1.531 . S
C502 H514 0.960 1_554 S
C502 H515 0.962 . S
C502 H516 0.960 1_554 S
C503 C500 1.511 . S
C503 H517 0.961 . S
C503 H518 0.961 . S
C503 H519 0.961 1_554 S
C504 C505 1.370 . S
C504 C506 1.363 . S
C504 H520 0.931 . S
C505 C504 1.370 . S
C505 C509 1.408 1_554 S
C506 C504 1.363 . S
C506 C507 1.370 . S
C506 C510 1.524 . S
C507 C499 1.503 . S
C507 C506 1.370 . S
C507 C508 1.403 1_554 S
C508 C507 1.403 1_556 S
C508 C509 1.404 . S
C508 C511 1.539 . S
C509 C505 1.408 1_556 S
C509 C508 1.404 . S
C509 H521 0.930 . S
C510 C506 1.524 . S
C510 H522 0.956 . S
C510 H523 0.961 . S
C510 H524 0.961 . S
C511 C508 1.539 . S
C511 H525 0.958 . S
C511 H526 0.961 . S
C511 H527 0.960 . S
H512 C496 0.931 . S
H513 C501 0.929 . S
H514 C502 0.960 1_556 S
H515 C502 0.962 . S
H516 C502 0.960 1_556 S
H517 C503 0.961 . S
H518 C503 0.961 . S
H519 C503 0.961 1_556 S
H520 C504 0.931 . S
H521 C509 0.930 . S
H522 C510 0.956 . S
H523 C510 0.961 . S
H524 C510 0.961 . S
H525 C511 0.958 . S
H526 C511 0.961 . S
H527 C511 0.960 . S
C528 C529 1.391 1_556 S
C528 C530 1.394 . S
C528 H544 0.931 . S
C529 C528 1.391 1_554 S
C529 C533 1.376 . S
C530 C528 1.394 . S
C530 C531 1.369 1_556 S
C530 C534 1.531 . S
C531 C530 1.369 1_554 S
C531 C532 1.410 . S
C531 C539 1.503 . S
C532 C531 1.410 . S
C532 C533 1.392 . S
C532 C535 1.511 . S
C533 C529 1.376 . S
C533 C532 1.392 . S
C533 H545 0.929 . S
C534 C530 1.531 . S
C534 H546 0.960 . S
C534 H547 0.962 . S
C534 H548 0.960 . S
C535 C532 1.511 . S
C535 H549 0.961 . S
C535 H550 0.961 . S
C535 H551 0.961 . S
C536 C537 1.370 . S
C536 C538 1.363 . S
C536 H552 0.931 . S
C537 C536 1.370 . S
C537 C541 1.408 . S
C538 C536 1.363 . S
C538 C539 1.370 . S
C538 C542 1.524 . S
C539 C531 1.503 . S
C539 C538 1.370 . S
C539 C540 1.403 . S
C540 C539 1.403 . S
C540 C541 1.404 . S
C540 C543 1.539 . S
C541 C537 1.408 . S
C541 C540 1.404 . S
C541 H553 0.930 . S
C542 C538 1.524 . S
C542 H554 0.956 1_554 S
C542 H555 0.961 . S
C542 H556 0.961 . S
C543 C540 1.539 . S
C543 H557 0.958 1_554 S
C543 H558 0.961 . S
C543 H559 0.960 . S
H544 C528 0.931 . S
H545 C533 0.929 . S
H546 C534 0.960 . S
H547 C534 0.962 . S
H548 C534 0.960 . S
H549 C535 0.961 . S
H550 C535 0.961 . S
H551 C535 0.961 . S
H552 C536 0.931 . S
H553 C541 0.930 . S
H554 C542 0.956 1_556 S
H555 C542 0.961 . S
H556 C542 0.961 . S
H557 C543 0.958 1_556 S
H558 C543 0.961 . S
H559 C543 0.960 . S
C560 C561 1.391 . S
C560 C562 1.394 . S
C560 H576 0.931 . S
C561 C560 1.391 . S
C561 C565 1.376 . S
C562 C560 1.394 . S
C562 C563 1.369 . S
C562 C566 1.531 . S
C563 C562 1.369 . S
C563 C564 1.410 . S
C563 C571 1.503 . S
C564 C563 1.410 . S
C564 C565 1.392 . S
C564 C567 1.511 . S
C565 C561 1.376 . S
C565 C564 1.392 . S
C565 H577 0.929 . S
C566 C562 1.531 . S
C566 H578 0.960 . S
C566 H579 0.962 . S
C566 H580 0.960 . S
C567 C564 1.511 . S
C567 H581 0.961 . S
C567 H582 0.961 . S
C567 H583 0.961 . S
C568 C569 1.370 . S
C568 C570 1.363 . S
C568 H584 0.931 . S
C569 C568 1.370 . S
C569 C573 1.408 . S
C570 C568 1.363 . S
C570 C571 1.370 . S
C570 C574 1.524 . S
C571 C563 1.503 . S
C571 C570 1.370 . S
C571 C572 1.403 . S
C572 C571 1.403 . S
C572 C573 1.404 . S
C572 C575 1.539 . S
C573 C569 1.408 . S
C573 C572 1.404 . S
C573 H585 0.930 . S
C574 C570 1.524 . S
C574 H586 0.956 . S
C574 H587 0.961 . S
C574 H588 0.961 . S
C575 C572 1.539 . S
C575 H589 0.958 . S
C575 H590 0.961 . S
C575 H591 0.960 . S
H576 C560 0.931 . S
H577 C565 0.929 . S
H578 C566 0.960 . S
H579 C566 0.962 . S
H580 C566 0.960 . S
H581 C567 0.961 . S
H582 C567 0.961 . S
H583 C567 0.961 . S
H584 C568 0.931 . S
H585 C573 0.930 . S
H586 C574 0.956 . S
H587 C574 0.961 . S
H588 C574 0.961 . S
H589 C575 0.958 . S
H590 C575 0.961 . S
H591 C575 0.960 . S
C592 C593 1.391 . S
C592 C594 1.394 . S
C592 H608 0.931 . S
C593 C592 1.391 . S
C593 C597 1.376 . S
C594 C592 1.394 . S
C594 C595 1.369 . S
C594 C598 1.531 . S
C595 C594 1.369 . S
C595 C596 1.410 . S
C595 C603 1.503 . S
C596 C595 1.410 . S
C596 C597 1.392 . S
C596 C599 1.511 . S
C597 C593 1.376 . S
C597 C596 1.392 . S
C597 H609 0.929 . S
C598 C594 1.531 . S
C598 H610 0.960 . S
C598 H611 0.962 . S
C598 H612 0.960 . S
C599 C596 1.511 . S
C599 H613 0.961 . S
C599 H614 0.961 . S
C599 H615 0.961 . S
C600 C601 1.370 . S
C600 C602 1.363 . S
C600 H616 0.931 . S
C601 C600 1.370 . S
C601 C605 1.408 . S
C602 C600 1.363 . S
C602 C603 1.370 . S
C602 C606 1.524 . S
C603 C595 1.503 . S
C603 C602 1.370 . S
C603 C604 1.403 . S
C604 C603 1.403 . S
C604 C605 1.404 . S
C604 C607 1.539 . S
C605 C601 1.408 . S
C605 C604 1.404 . S
C605 H617 0.930 . S
C606 C602 1.524 . S
C606 H618 0.956 . S
C606 H619 0.961 . S
C606 H620 0.961 . S
C607 C604 1.539 . S
C607 H621 0.958 . S
C607 H622 0.961 . S
C607 H623 0.960 . S
H608 C592 0.931 . S
H609 C597 0.929 . S
H610 C598 0.960 . S
H611 C598 0.962 . S
H612 C598 0.960 . S
H613 C599 0.961 . S
H614 C599 0.961 . S
H615 C599 0.961 . S
H616 C600 0.931 . S
H617 C605 0.930 . S
H618 C606 0.956 . S
H619 C606 0.961 . S
H620 C606 0.961 . S
H621 C607 0.958 . S
H622 C607 0.961 . S
H623 C607 0.960 . S
C113 C19 1.495 . S
C121 C5 1.504 . S
C145 C33 1.494 . S
C153 C47 1.505 . S
C177 C61 1.494 . S
C185 C75 1.505 . S
C209 C89 1.495 . S
C217 C103 1.505 . S
C241 C9 1.220 . S
C249 C51 1.252 . S
C273 C37 1.276 . S
C281 C23 1.246 . S
C305 C28 1.280 . S
C313 C14 1.281 . S
C337 C0 1.296 . S
C345 C42 1.296 . S
C369 C65 1.226 . S
C377 C107 1.263 . S
C401 C93 1.240 . S
C409 C79 1.242 . S
C433 C70 1.293 . S
C441 C84 1.295 . S
C465 C56 1.272 . S
C473 C98 1.279 . S
C497 C81 1.506 . S
C505 C11 1.507 . S
C529 C67 1.513 . S
C537 C25 1.503 . S
C561 C39 1.511 . S
C569 C109 1.505 . S
C593 C95 1.497 . S
C601 C53 1.509 . S
