# Generated by pormake.
# Topology uoq, (4)-cn, num edge types: 1
# Building blocks:
#     Node 0, Type 0, BuildingBlock: NAHDIM_clean_sbu_0, # of connection points: 4
#     Node 1, Type 0, BuildingBlock: NAHDIM_clean_sbu_0, # of connection points: 4
#     Node 2, Type 0, BuildingBlock: NAHDIM_clean_sbu_0, # of connection points: 4
#     Node 3, Type 0, BuildingBlock: NAHDIM_clean_sbu_0, # of connection points: 4
#     Node 4, Type 0, BuildingBlock: NAHDIM_clean_sbu_0, # of connection points: 4
#     Node 5, Type 0, BuildingBlock: NAHDIM_clean_sbu_0, # of connection points: 4
#     Node 6, Type 0, BuildingBlock: NAHDIM_clean_sbu_0, # of connection points: 4
#     Node 7, Type 0, BuildingBlock: NAHDIM_clean_sbu_0, # of connection points: 4
#     Node 8, Type 0, BuildingBlock: NAHDIM_clean_sbu_0, # of connection points: 4
#     Node 9, Type 0, BuildingBlock: NAHDIM_clean_sbu_0, # of connection points: 4
#     Node 10, Type 0, BuildingBlock: NAHDIM_clean_sbu_0, # of connection points: 4
#     Node 11, Type 0, BuildingBlock: NAHDIM_clean_sbu_0, # of connection points: 4
#     Edge 12, Type (0, 0), BuildingBlock: EZIPEK_clean_linker_0, # of connection points: 2
#     Edge 13, Type (0, 0), BuildingBlock: EZIPEK_clean_linker_0, # of connection points: 2
#     Edge 14, Type (0, 0), BuildingBlock: EZIPEK_clean_linker_0, # of connection points: 2
#     Edge 15, Type (0, 0), BuildingBlock: EZIPEK_clean_linker_0, # of connection points: 2
#     Edge 16, Type (0, 0), BuildingBlock: EZIPEK_clean_linker_0, # of connection points: 2
#     Edge 17, Type (0, 0), BuildingBlock: EZIPEK_clean_linker_0, # of connection points: 2
#     Edge 18, Type (0, 0), BuildingBlock: EZIPEK_clean_linker_0, # of connection points: 2
#     Edge 19, Type (0, 0), BuildingBlock: EZIPEK_clean_linker_0, # of connection points: 2
#     Edge 20, Type (0, 0), BuildingBlock: EZIPEK_clean_linker_0, # of connection points: 2
#     Edge 21, Type (0, 0), BuildingBlock: EZIPEK_clean_linker_0, # of connection points: 2
#     Edge 22, Type (0, 0), BuildingBlock: EZIPEK_clean_linker_0, # of connection points: 2
#     Edge 23, Type (0, 0), BuildingBlock: EZIPEK_clean_linker_0, # of connection points: 2
#     Edge 24, Type (0, 0), BuildingBlock: EZIPEK_clean_linker_0, # of connection points: 2
#     Edge 25, Type (0, 0), BuildingBlock: EZIPEK_clean_linker_0, # of connection points: 2
#     Edge 26, Type (0, 0), BuildingBlock: EZIPEK_clean_linker_0, # of connection points: 2
#     Edge 27, Type (0, 0), BuildingBlock: EZIPEK_clean_linker_0, # of connection points: 2
#     Edge 28, Type (0, 0), BuildingBlock: EZIPEK_clean_linker_0, # of connection points: 2
#     Edge 29, Type (0, 0), BuildingBlock: EZIPEK_clean_linker_0, # of connection points: 2
#     Edge 30, Type (0, 0), BuildingBlock: EZIPEK_clean_linker_0, # of connection points: 2
#     Edge 31, Type (0, 0), BuildingBlock: EZIPEK_clean_linker_0, # of connection points: 2
#     Edge 32, Type (0, 0), BuildingBlock: EZIPEK_clean_linker_0, # of connection points: 2
#     Edge 33, Type (0, 0), BuildingBlock: EZIPEK_clean_linker_0, # of connection points: 2
#     Edge 34, Type (0, 0), BuildingBlock: EZIPEK_clean_linker_0, # of connection points: 2
#     Edge 35, Type (0, 0), BuildingBlock: EZIPEK_clean_linker_0, # of connection points: 2
# Relax obj value: 0.065
# Max RMSD: 0.071
# Mean RMSD: 0.071
data_MOF--net-uoq--node1-NAHDIM_clean_sbu_0--edge1-EZIPEK_clean_linker_0
_symmetry_space_group_name_H-M    P1
_symmetry_Int_Tables_number       1
_symmetry_cell_setting            triclinic
loop_
_symmetry_equiv_pos_as_xyz
'x, y, z'
_cell_length_a     43.071006
_cell_length_b     43.029515
_cell_length_c     17.646373
_cell_angle_alpha  89.880388
_cell_angle_beta   90.056988
_cell_angle_gamma 119.97872
loop_
_atom_site_label
_atom_site_type_symbol
_atom_site_fract_x
_atom_site_fract_y
_atom_site_fract_z
_atom_type_partial_charge
C0 C 0.25828 0.45949 0.14675 0.0
O1 O 0.26252 0.48314 0.19869 0.0
O2 O 0.33598 0.493 0.27086 0.0
Zn3 Zn 0.29296 0.44305 0.26063 0.0
O4 O 0.25603 0.43443 0.33914 0.0
C5 C 0.33754 0.41192 0.24509 0.0
O6 O 0.35566 0.43951 0.20001 0.0
O7 O 0.26999 0.43809 0.15918 0.0
C8 C 0.25697 0.42282 0.40482 0.0
O9 O 0.28267 0.41604 0.42221 0.0
C10 C 0.34753 0.50786 0.33487 0.0
O11 O 0.33118 0.49101 0.39721 0.0
O12 O 0.30881 0.40699 0.27568 0.0
C13 C 0.79326 0.26189 0.46253 0.0
O14 O 0.77337 0.26449 0.51574 0.0
O15 O 0.83867 0.33969 0.5907 0.0
Zn16 Zn 0.84646 0.29773 0.57493 0.0
O17 O 0.82085 0.26175 0.65755 0.0
C18 C 0.92118 0.34765 0.60047 0.0
O19 O 0.90929 0.37026 0.6073 0.0
O20 O 0.82656 0.27458 0.47418 0.0
C21 C 0.8376 0.25853 0.71353 0.0
O22 O 0.87264 0.27837 0.71748 0.0
C23 C 0.8142 0.33922 0.63159 0.0
O24 O 0.79041 0.30937 0.66467 0.0
O25 O 0.89954 0.31512 0.58329 0.0
C26 C 0.53279 0.79413 0.82004 0.0
O27 O 0.51269 0.77474 0.87679 0.0
O28 O 0.50252 0.84308 0.94599 0.0
Zn29 Zn 0.55139 0.84901 0.92863 0.0
O30 O 0.56123 0.82301 0.01111 0.0
C31 C 0.57801 0.92486 0.92733 0.0
O32 O 0.54436 0.91418 0.91147 0.0
O33 O 0.55257 0.82784 0.82802 0.0
C34 C 0.57598 0.83888 0.0725 0.0
O35 O 0.58566 0.87284 0.08141 0.0
C36 C 0.4776 0.81814 0.98453 0.0
O37 O 0.48237 0.79308 0.01558 0.0
O38 O 0.5881 0.90185 0.93446 0.0
C39 C 0.73283 0.53638 0.13352 0.0
O40 O 0.72606 0.51028 0.1813 0.0
O41 O 0.65408 0.49983 0.24959 0.0
Zn42 Zn 0.69583 0.55054 0.24727 0.0
O43 O 0.72923 0.55587 0.33213 0.0
C44 C 0.66568 0.58877 0.32184 0.0
O45 O 0.66878 0.57242 0.38178 0.0
O46 O 0.72235 0.55849 0.14911 0.0
C47 C 0.75103 0.58498 0.36492 0.0
O48 O 0.75258 0.61513 0.34486 0.0
C49 C 0.64241 0.48403 0.31281 0.0
O50 O 0.6581 0.50057 0.3758 0.0
O51 O 0.67647 0.58447 0.25781 0.0
C52 C 0.20632 0.7465 0.49721 0.0
O53 O 0.22463 0.74757 0.55767 0.0
O54 O 0.15698 0.65917 0.60551 0.0
Zn55 Zn 0.15015 0.70202 0.59546 0.0
O56 O 0.1754 0.73593 0.68077 0.0
C57 C 0.08104 0.66609 0.65926 0.0
O58 O 0.09995 0.66388 0.71526 0.0
O59 O 0.17232 0.72779 0.498 0.0
C60 C 0.16393 0.75429 0.71414 0.0
O61 O 0.1335 0.75186 0.69357 0.0
C62 C 0.16651 0.65153 0.66778 0.0
O63 O 0.17384 0.67278 0.72648 0.0
O64 O 0.09703 0.68352 0.59989 0.0
C65 C 0.45702 0.19651 0.79752 0.0
O66 O 0.48177 0.21638 0.84718 0.0
O67 O 0.4938 0.15442 0.91564 0.0
Zn68 Zn 0.44305 0.14532 0.91191 0.0
O69 O 0.43552 0.17216 0.99613 0.0
C70 C 0.41576 0.07643 0.9789 0.0
O71 O 0.4421 0.09567 0.02593 0.0
O72 O 0.43565 0.1636 0.8123 0.0
C73 C 0.40872 0.15763 0.04036 0.0
O74 O 0.38397 0.12391 0.03131 0.0
C75 C 0.51237 0.16484 0.97597 0.0
O76 O 0.49912 0.17153 0.03673 0.0
O77 O 0.40959 0.09201 0.92443 0.0
C78 C 0.52669 0.72261 0.53827 0.0
O79 O 0.49868 0.71187 0.49391 0.0
O80 O 0.50041 0.6483 0.40808 0.0
Zn81 Zn 0.54842 0.69329 0.41844 0.0
O82 O 0.55426 0.72754 0.33524 0.0
C83 C 0.58888 0.66645 0.34595 0.0
O84 O 0.56976 0.66639 0.28791 0.0
O85 O 0.55196 0.71717 0.51856 0.0
C86 C 0.5845 0.75147 0.31024 0.0
O87 O 0.61414 0.75482 0.3391 0.0
C88 C 0.47501 0.64654 0.36815 0.0
O89 O 0.4789 0.67528 0.33338 0.0
O90 O 0.58544 0.6781 0.40967 0.0
C91 C 0.80444 0.53744 0.85595 0.0
O92 O 0.78439 0.51323 0.80552 0.0
O93 O 0.84229 0.49871 0.73659 0.0
Zn94 Zn 0.85445 0.55091 0.7412 0.0
O95 O 0.82752 0.56132 0.66172 0.0
C96 C 0.92793 0.57585 0.69599 0.0
O97 O 0.91441 0.54271 0.67221 0.0
O98 O 0.83746 0.55838 0.84188 0.0
C99 C 0.83842 0.56947 0.59384 0.0
O100 O 0.86872 0.57154 0.57357 0.0
C101 C 0.83637 0.4814 0.67492 0.0
O102 O 0.83758 0.49724 0.61049 0.0
O103 O 0.90752 0.58546 0.72741 0.0
C104 C 0.289 0.82555 0.23625 0.0
O105 O 0.32277 0.83394 0.23301 0.0
O106 O 0.34327 0.84196 0.07843 0.0
Zn107 Zn 0.3021 0.85197 0.08277 0.0
O108 O 0.26809 0.82655 0.9972 0.0
C109 C 0.34531 0.92281 0.02455 0.0
O110 O 0.35682 0.9057 0.98184 0.0
O111 O 0.27468 0.83191 0.17984 0.0
C112 C 0.25599 0.8418 0.95437 0.0
O113 O 0.26554 0.8756 0.96483 0.0
C114 C 0.35218 0.83274 0.01748 0.0
O115 O 0.3338 0.82866 0.9552 0.0
O116 O 0.32116 0.90532 0.0737 0.0
C117 C 0.4591 0.26612 0.51501 0.0
O118 O 0.48444 0.27144 0.46658 0.0
O119 O 0.49088 0.34437 0.38541 0.0
Zn120 Zn 0.4421 0.30036 0.39683 0.0
O121 O 0.43577 0.26567 0.31419 0.0
C122 C 0.4071 0.3314 0.32057 0.0
O123 O 0.42876 0.3322 0.26746 0.0
O124 O 0.43708 0.27659 0.49829 0.0
C125 C 0.40572 0.24491 0.28361 0.0
O126 O 0.37671 0.24478 0.30682 0.0
C127 C 0.51672 0.34457 0.35025 0.0
O128 O 0.51293 0.31474 0.32159 0.0
O129 O 0.40636 0.31722 0.38427 0.0
C130 C 0.18632 0.46007 0.87057 0.0
O131 O 0.20528 0.48552 0.82131 0.0
O132 O 0.14146 0.4928 0.74688 0.0
Zn133 Zn 0.13579 0.44339 0.75491 0.0
O134 O 0.16554 0.43835 0.67436 0.0
C135 C 0.07083 0.40975 0.67462 0.0
O136 O 0.09255 0.43163 0.62259 0.0
O137 O 0.15382 0.43744 0.8557 0.0
C138 C 0.15652 0.41014 0.6362 0.0
O139 O 0.12571 0.381 0.6494 0.0
C140 C 0.1653 0.51742 0.70563 0.0
O141 O 0.18837 0.51165 0.66865 0.0
O142 O 0.0835 0.40797 0.73856 0.0
C143 C 0.72479 0.19413 0.17989 0.0
O144 O 0.71692 0.21258 0.13197 0.0
O145 O 0.65016 0.14837 0.05035 0.0
Zn146 Zn 0.69377 0.14304 0.06191 0.0
O147 O 0.72894 0.17121 0.98003 0.0
C148 C 0.66459 0.07637 0.98655 0.0
O149 O 0.66667 0.09698 0.92955 0.0
O150 O 0.71708 0.16236 0.16303 0.0
C151 C 0.7506 0.16272 0.9509 0.0
O152 O 0.75128 0.13414 0.97473 0.0
C153 C 0.64942 0.17228 0.00925 0.0
O154 O 0.67847 0.19598 0.97366 0.0
O155 O 0.67645 0.0903 0.05118 0.0
C156 C 0.34684 0.35979 0.22286 0.0
C157 C 0.35287 0.38946 0.26797 0.0
C158 C 0.39357 0.38043 0.34997 0.0
C159 C 0.38612 0.34955 0.30722 0.0
N160 N 0.34994 0.30521 0.2141 0.0
N161 N 0.37559 0.42379 0.38298 0.0
C162 C 0.36107 0.33787 0.24675 0.0
C163 C 0.37414 0.39836 0.33444 0.0
N164 N 0.32803 0.35293 0.15665 0.0
N165 N 0.42065 0.39394 0.40224 0.0
H166 H 0.36216 0.43794 0.37295 0.0
H167 H 0.38753 0.42868 0.43626 0.0
H168 H 0.43595 0.382 0.41492 0.0
H169 H 0.43004 0.4187 0.42852 0.0
H170 H 0.32621 0.33421 0.11696 0.0
H171 H 0.31616 0.36771 0.13884 0.0
H172 H 0.32934 0.29363 0.17444 0.0
H173 H 0.35886 0.28798 0.23244 0.0
C174 C 0.97082 0.37494 0.6948 0.0
C175 C 0.95854 0.35925 0.62247 0.0
C176 C 0.01836 0.36909 0.59326 0.0
C177 C 0.03174 0.38996 0.66014 0.0
N178 N 0.02127 0.41823 0.76802 0.0
N179 N 0.9713 0.3446 0.49868 0.0
C180 C 0.00814 0.39417 0.70966 0.0
C181 C 0.98239 0.35686 0.57063 0.0
N182 N 0.9468 0.3708 0.75004 0.0
N183 N 0.03976 0.36028 0.55229 0.0
H184 H 0.94526 0.33562 0.47968 0.0
H185 H 0.98868 0.34611 0.45596 0.0
H186 H 0.06603 0.3682 0.56798 0.0
H187 H 0.03041 0.34225 0.50727 0.0
H188 H 0.95425 0.37875 0.806 0.0
H189 H 0.91911 0.35592 0.74209 0.0
H190 H 0.00525 0.42495 0.80035 0.0
H191 H 0.04851 0.4343 0.77949 0.0
C192 C 0.59344 0.97817 0.00816 0.0
C193 C 0.60252 0.96289 0.947 0.0
C194 C 0.6566 0.02075 0.92327 0.0
C195 C 0.64464 0.03696 0.97701 0.0
N196 N 0.59841 0.03204 0.06213 0.0
N197 N 0.64076 0.96993 0.84088 0.0
C198 C 0.61229 0.01593 0.01765 0.0
C199 C 0.63374 0.98417 0.90328 0.0
N200 N 0.56748 0.95649 0.05861 0.0
N201 N 0.69017 0.04008 0.89292 0.0
H202 H 0.62471 0.94322 0.82464 0.0
H203 H 0.66087 0.9852 0.80193 0.0
H204 H 0.7078 0.06667 0.90782 0.0
H205 H 0.70177 0.02889 0.85892 0.0
H206 H 0.56222 0.96593 0.10851 0.0
H207 H 0.55381 0.92858 0.05477 0.0
H208 H 0.5729 0.01818 0.08599 0.0
H209 H 0.6108 0.05972 0.06966 0.0
C210 C 0.66404 0.64614 0.31019 0.0
C211 C 0.64626 0.60895 0.32763 0.0
C212 C 0.59199 0.61051 0.36284 0.0
C213 C 0.60898 0.64706 0.34056 0.0
N214 N 0.65893 0.69882 0.28378 0.0
N215 N 0.59162 0.55409 0.35734 0.0
C216 C 0.64437 0.66464 0.31134 0.0
C217 C 0.60979 0.59068 0.35072 0.0
N218 N 0.70005 0.66406 0.29567 0.0
N219 N 0.55887 0.5948 0.39616 0.0
H220 H 0.6035 0.53844 0.34835 0.0
H221 H 0.56402 0.53881 0.36524 0.0
H222 H 0.54414 0.60784 0.40286 0.0
H223 H 0.54695 0.56967 0.42199 0.0
H224 H 0.71539 0.69184 0.29059 0.0
H225 H 0.71535 0.65144 0.29458 0.0
H226 H 0.68296 0.71174 0.25386 0.0
H227 H 0.64572 0.71355 0.28634 0.0
C228 C 0.98253 0.60319 0.613 0.0
C229 C 0.96659 0.60178 0.6843 0.0
C230 C 0.02457 0.64952 0.73037 0.0
C231 C 0.04138 0.64618 0.6643 0.0
N232 N 0.03636 0.61385 0.54853 0.0
N233 N 0.97457 0.6194 0.81634 0.0
C234 C 0.02042 0.62154 0.6068 0.0
C235 C 0.98809 0.62396 0.74456 0.0
N236 N 0.96163 0.58797 0.55051 0.0
N237 N 0.04317 0.67758 0.77875 0.0
H238 H 0.94861 0.59974 0.83073 0.0
H239 H 0.99041 0.63261 0.86322 0.0
H240 H 0.06944 0.69771 0.76808 0.0
H241 H 0.03123 0.68301 0.82428 0.0
H242 H 0.97219 0.59121 0.49605 0.0
H243 H 0.93377 0.57572 0.55163 0.0
H244 H 0.02193 0.59325 0.50993 0.0
H245 H 0.06402 0.6252 0.5431 0.0
C246 C 0.36507 0.97596 0.93864 0.0
C247 C 0.35996 0.96192 0.01337 0.0
C248 C 0.38293 0.02254 0.06316 0.0
C249 C 0.39428 0.03694 0.9893 0.0
N250 N 0.4024 0.02624 0.85793 0.0
N251 N 0.37109 0.9737 0.14775 0.0
C252 C 0.38696 0.01341 0.92707 0.0
C253 C 0.37063 0.98564 0.07617 0.0
N254 N 0.34819 0.9538 0.87874 0.0
N255 N 0.38284 0.04373 0.12056 0.0
H256 H 0.36436 0.94737 0.15996 0.0
H257 H 0.38199 0.99095 0.19386 0.0
H258 H 0.38965 0.07038 0.11224 0.0
H259 H 0.3719 0.03364 0.17377 0.0
H260 H 0.34875 0.96335 0.82411 0.0
H261 H 0.33013 0.9265 0.88534 0.0
H262 H 0.40032 0.00945 0.81333 0.0
H263 H 0.42053 0.05321 0.84738 0.0
C264 C 0.23566 0.45622 0.93722 0.0
C265 C 0.20333 0.45737 0.94134 0.0
C266 C 0.2041 0.45306 0.07963 0.0
C267 C 0.2389 0.45722 0.07577 0.0
N268 N 0.29051 0.46879 0.00075 0.0
N269 N 0.1597 0.46291 0.01734 0.0
C270 C 0.25543 0.4603 0.00451 0.0
C271 C 0.18819 0.45726 0.01278 0.0
N272 N 0.24688 0.44997 0.86943 0.0
N273 N 0.18569 0.44386 0.14662 0.0
H274 H 0.14771 0.46704 0.96998 0.0
H275 H 0.15016 0.46694 0.06846 0.0
H276 H 0.19596 0.43943 0.19646 0.0
H277 H 0.15887 0.43695 0.1509 0.0
H278 H 0.26834 0.44534 0.86454 0.0
H279 H 0.23252 0.44561 0.81917 0.0
H280 H 0.30491 0.47518 0.9502 0.0
H281 H 0.30632 0.47286 0.04858 0.0
C282 C 0.74701 0.20855 0.39049 0.0
C283 C 0.77673 0.244 0.38993 0.0
C284 C 0.77551 0.24421 0.25114 0.0
C285 C 0.74309 0.2107 0.25221 0.0
N286 N 0.6943 0.16402 0.32414 0.0
N287 N 0.81531 0.29823 0.32019 0.0
C288 C 0.72783 0.19359 0.32222 0.0
C289 C 0.79003 0.26258 0.32036 0.0
N290 N 0.73783 0.18862 0.4556 0.0
N291 N 0.79319 0.25797 0.18432 0.0
H292 H 0.82606 0.31304 0.36958 0.0
H293 H 0.82307 0.31394 0.2713 0.0
H294 H 0.78389 0.24504 0.13247 0.0
H295 H 0.81881 0.28034 0.18133 0.0
H296 H 0.71872 0.16143 0.4573 0.0
H297 H 0.75182 0.19822 0.50637 0.0
H298 H 0.68041 0.15286 0.37433 0.0
H299 H 0.67884 0.15269 0.27573 0.0
C300 C 0.5229 0.78745 0.67935 0.0
C301 C 0.53228 0.77663 0.74752 0.0
C302 C 0.53467 0.72823 0.67964 0.0
C303 C 0.52892 0.74134 0.61025 0.0
N304 N 0.52478 0.78798 0.54237 0.0
N305 N 0.55439 0.74156 0.81002 0.0
C306 C 0.52505 0.77226 0.60956 0.0
C307 C 0.54025 0.74837 0.747 0.0
N308 N 0.51036 0.81103 0.68137 0.0
N309 N 0.53314 0.69573 0.68207 0.0
H310 H 0.55972 0.75626 0.86001 0.0
H311 H 0.56417 0.72376 0.81027 0.0
H312 H 0.52804 0.67955 0.6345 0.0
H313 H 0.53334 0.68319 0.73248 0.0
H314 H 0.49946 0.81679 0.63435 0.0
H315 H 0.50759 0.82226 0.73142 0.0
H316 H 0.52603 0.81276 0.5389 0.0
H317 H 0.52679 0.77809 0.4899 0.0
C318 C 0.73749 0.54015 0.99129 0.0
C319 C 0.75265 0.53981 0.06253 0.0
C320 C 0.80191 0.53744 0.99847 0.0
C321 C 0.78815 0.54048 0.92744 0.0
N322 N 0.74805 0.55387 0.85749 0.0
N323 N 0.80375 0.54718 0.13387 0.0
C324 C 0.75749 0.54462 0.92421 0.0
C325 C 0.78624 0.54118 0.06613 0.0
N326 N 0.70329 0.53434 0.98706 0.0
N327 N 0.82867 0.52917 0.00168 0.0
H328 H 0.79364 0.55112 0.18439 0.0
H329 H 0.8299 0.55197 0.13857 0.0
H330 H 0.84044 0.52537 0.95363 0.0
H331 H 0.8369 0.52276 0.05198 0.0
H332 H 0.68965 0.53045 0.93602 0.0
H333 H 0.68719 0.52992 0.03448 0.0
H334 H 0.72809 0.56075 0.8536 0.0
H335 H 0.76263 0.55838 0.80751 0.0
C336 C 0.22732 0.79856 0.40809 0.0
C337 C 0.22557 0.76575 0.42792 0.0
C338 C 0.2617 0.77029 0.31688 0.0
C339 C 0.26661 0.80487 0.30152 0.0
N340 N 0.25778 0.85407 0.3362 0.0
N341 N 0.24343 0.72153 0.4067 0.0
C342 C 0.25018 0.81952 0.34777 0.0
C343 C 0.24352 0.75199 0.38397 0.0
N344 N 0.20712 0.80963 0.44693 0.0
N345 N 0.27288 0.7542 0.26541 0.0
H346 H 0.22864 0.70609 0.45292 0.0
H347 H 0.25972 0.7127 0.38266 0.0
H348 H 0.28561 0.76635 0.21469 0.0
H349 H 0.26667 0.72756 0.26931 0.0
H350 H 0.20411 0.83119 0.4302 0.0
H351 H 0.19115 0.79568 0.49324 0.0
H352 H 0.24987 0.86775 0.37285 0.0
H353 H 0.27451 0.87026 0.29281 0.0
C354 C 0.45717 0.19789 0.65488 0.0
C355 C 0.45457 0.21259 0.72493 0.0
C356 C 0.4561 0.26327 0.65763 0.0
C357 C 0.45584 0.2471 0.5874 0.0
N358 N 0.4472 0.1947 0.51945 0.0
N359 N 0.44291 0.25453 0.79193 0.0
C360 C 0.4537 0.21309 0.58608 0.0
C361 C 0.45143 0.24389 0.72601 0.0
N362 N 0.4648 0.17063 0.65363 0.0
N363 N 0.46261 0.29778 0.65962 0.0
H364 H 0.43833 0.24049 0.84279 0.0
H365 H 0.43674 0.27504 0.79444 0.0
H366 H 0.46712 0.31335 0.61114 0.0
H367 H 0.46694 0.31212 0.70975 0.0
H368 H 0.47087 0.16167 0.60405 0.0
H369 H 0.46848 0.15921 0.7025 0.0
H370 H 0.44171 0.16825 0.51649 0.0
H371 H 0.44358 0.20447 0.46806 0.0
C372 C 0.19344 0.44039 0.52172 0.0
C373 C 0.18002 0.41141 0.57384 0.0
C374 C 0.21242 0.38672 0.50631 0.0
C375 C 0.23019 0.41863 0.46243 0.0
N376 N 0.24304 0.47962 0.44163 0.0
N377 N 0.18203 0.36011 0.62412 0.0
C378 C 0.2222 0.44656 0.47358 0.0
C379 C 0.19083 0.38528 0.56845 0.0
N380 N 0.17802 0.46141 0.51622 0.0
N381 N 0.21495 0.35731 0.48716 0.0
H382 H 0.16724 0.35873 0.67199 0.0
H383 H 0.19247 0.34289 0.62641 0.0
H384 H 0.22918 0.35665 0.44003 0.0
H385 H 0.19971 0.33239 0.51315 0.0
H386 H 0.18485 0.4808 0.47413 0.0
H387 H 0.15565 0.45673 0.54783 0.0
H388 H 0.24017 0.50168 0.45459 0.0
H389 H 0.26569 0.48624 0.40918 0.0
C390 C 0.81982 0.24637 0.85015 0.0
C391 C 0.81743 0.2333 0.77535 0.0
C392 C 0.77142 0.17321 0.81582 0.0
C393 C 0.77546 0.18585 0.89135 0.0
N394 N 0.80895 0.23183 0.98368 0.0
N395 N 0.7969 0.18315 0.68974 0.0
C396 C 0.8014 0.22167 0.90952 0.0
C397 C 0.79497 0.19634 0.75894 0.0
N398 N 0.83804 0.28247 0.86395 0.0
N399 N 0.74409 0.13975 0.79769 0.0
H400 H 0.81423 0.19921 0.64695 0.0
H401 H 0.78386 0.15587 0.67716 0.0
H402 H 0.72634 0.12199 0.8378 0.0
H403 H 0.73725 0.13067 0.74219 0.0
H404 H 0.83733 0.29359 0.91584 0.0
H405 H 0.85124 0.30167 0.82183 0.0
H406 H 0.83008 0.2566 0.00059 0.0
H407 H 0.79633 0.21412 0.0286 0.0
C408 C 0.60018 0.80058 0.12223 0.0
C409 C 0.5806 0.81859 0.13489 0.0
C410 C 0.57069 0.7984 0.26686 0.0
C411 C 0.58587 0.7765 0.25127 0.0
N412 N 0.61123 0.75301 0.16178 0.0
N413 N 0.54178 0.82962 0.21551 0.0
C414 C 0.59982 0.77669 0.17841 0.0
C415 C 0.56452 0.81636 0.20635 0.0
N416 N 0.61999 0.80712 0.05758 0.0
N417 N 0.56304 0.80276 0.33988 0.0
H418 H 0.53547 0.84198 0.17205 0.0
H419 H 0.5264 0.82524 0.26411 0.0
H420 H 0.56817 0.7907 0.38584 0.0
H421 H 0.55519 0.82115 0.35554 0.0
H422 H 0.63765 0.79757 0.04873 0.0
H423 H 0.62142 0.82494 0.01569 0.0
H424 H 0.61779 0.74909 0.1072 0.0
H425 H 0.61141 0.73509 0.20141 0.0
C426 C 0.75718 0.5583 0.48578 0.0
C427 C 0.7736 0.58404 0.42726 0.0
C428 C 0.83203 0.60464 0.48675 0.0
C429 C 0.81613 0.57488 0.53715 0.0
N430 N 0.76382 0.51841 0.5716 0.0
N431 N 0.82795 0.62801 0.36469 0.0
C432 C 0.77872 0.55031 0.53332 0.0
C433 C 0.81142 0.60638 0.42569 0.0
N434 N 0.7211 0.54229 0.49771 0.0
N435 N 0.86628 0.63193 0.49856 0.0
H436 H 0.81404 0.62946 0.31771 0.0
H437 H 0.85568 0.64189 0.35763 0.0
H438 H 0.88176 0.63261 0.54465 0.0
H439 H 0.87779 0.65571 0.4674 0.0
H440 H 0.70833 0.52551 0.5438 0.0
H441 H 0.70484 0.54935 0.46712 0.0
H442 H 0.73718 0.49838 0.56441 0.0
H443 H 0.77874 0.51011 0.60344 0.0
C444 C 0.21964 0.80867 0.75707 0.0
C445 C 0.1857 0.77887 0.77515 0.0
C446 C 0.19587 0.79425 0.90975 0.0
C447 C 0.23136 0.82135 0.89237 0.0
N448 N 0.27915 0.8515 0.80158 0.0
N449 N 0.14297 0.73994 0.8685 0.0
C450 C 0.24382 0.82801 0.8165 0.0
C451 C 0.174 0.77085 0.85143 0.0
N452 N 0.22845 0.81881 0.68311 0.0
N453 N 0.18292 0.7913 0.98172 0.0
H454 H 0.12644 0.72196 0.82728 0.0
H455 H 0.13508 0.73061 0.92357 0.0
H456 H 0.19835 0.80788 0.02601 0.0
H457 H 0.15613 0.77456 0.99612 0.0
H458 H 0.2513 0.84241 0.66674 0.0
H459 H 0.21124 0.80526 0.6381 0.0
H460 H 0.29068 0.8546 0.74825 0.0
H461 H 0.29778 0.86574 0.84391 0.0
C462 C 0.39916 0.20702 0.08624 0.0
C463 C 0.40589 0.17869 0.10289 0.0
C464 C 0.40679 0.19055 0.23871 0.0
C465 C 0.40376 0.22111 0.22159 0.0
N466 N 0.40182 0.26164 0.12956 0.0
N467 N 0.42164 0.14655 0.19284 0.0
C468 C 0.40106 0.23017 0.14546 0.0
C469 C 0.41103 0.1711 0.17863 0.0
N470 N 0.39016 0.21124 0.01412 0.0
N471 N 0.40494 0.1798 0.31235 0.0
H472 H 0.42569 0.13227 0.15006 0.0
H473 H 0.4295 0.14257 0.24611 0.0
H474 H 0.40184 0.19352 0.35773 0.0
H475 H 0.40334 0.1557 0.32807 0.0
H476 H 0.3812 0.22895 -3e-05 0.0
H477 H 0.38876 0.1949 0.96913 0.0
H478 H 0.4041 0.27178 0.07496 0.0
H479 H 0.40304 0.27918 0.17151 0.0
C480 C 0.41373 0.54845 0.31874 0.0
C481 C 0.37988 0.54379 0.33977 0.0
C482 C 0.4086 0.60623 0.3829 0.0
C483 C 0.44206 0.61153 0.35686 0.0
N484 N 0.47557 0.59007 0.28629 0.0
N485 N 0.34383 0.56934 0.37909 0.0
C486 C 0.44439 0.5833 0.32086 0.0
C487 C 0.37693 0.57303 0.36824 0.0
N488 N 0.41688 0.51936 0.29978 0.0
N489 N 0.40725 0.63235 0.42431 0.0
H490 H 0.32005 0.54548 0.36838 0.0
H491 H 0.33984 0.59068 0.39214 0.0
H492 H 0.42986 0.65702 0.43628 0.0
H493 H 0.38429 0.62855 0.45212 0.0
H494 H 0.44142 0.52049 0.2926 0.0
H495 H 0.39508 0.49337 0.29752 0.0
H496 H 0.47777 0.57151 0.25231 0.0
H497 H 0.49849 0.61539 0.28552 0.0
C498 C 0.8518 0.43343 0.7073 0.0
C499 C 0.82781 0.44339 0.67459 0.0
C500 C 0.79276 0.38347 0.61828 0.0
C501 C 0.81651 0.37361 0.65154 0.0
N502 N 0.86276 0.38522 0.74258 0.0
N503 N 0.77034 0.42513 0.61731 0.0
C504 C 0.84417 0.39738 0.70087 0.0
C505 C 0.7967 0.41752 0.63553 0.0
N506 N 0.88287 0.45862 0.74088 0.0
N507 N 0.76726 0.36083 0.5682 0.0
H508 H 0.77174 0.44928 0.6318 0.0
H509 H 0.74559 0.40631 0.59507 0.0
H510 H 0.76305 0.33529 0.5559 0.0
H511 H 0.75193 0.3682 0.53516 0.0
H512 H 0.90349 0.45387 0.75624 0.0
H513 H 0.88941 0.48511 0.74912 0.0
H514 H 0.88065 0.40004 0.78553 0.0
H515 H 0.85785 0.35893 0.73921 0.0
C516 C 0.41108 0.79257 0.97217 0.0
C517 C 0.44467 0.81967 -3e-05 0.0
C518 C 0.41784 0.85549 0.03993 0.0
C519 C 0.38374 0.82756 0.01571 0.0
N520 N 0.34651 0.76607 0.97606 0.0
N521 N 0.47825 0.87209 0.07769 0.0
C522 C 0.37993 0.79503 0.98688 0.0
C523 C 0.44749 0.84967 0.03924 0.0
N524 N 0.40912 0.76527 0.92912 0.0
N525 N 0.42255 0.88827 0.05979 0.0
H526 H 0.50022 0.8681 0.07991 0.0
H527 H 0.48061 0.89233 0.11364 0.0
H528 H 0.4019 0.89418 0.06043 0.0
H529 H 0.44766 0.91069 0.06911 0.0
H530 H 0.38609 0.74706 0.90004 0.0
H531 H 0.43131 0.76243 0.91751 0.0
H532 H 0.34204 0.74063 0.96231 0.0
H533 H 0.32305 0.76651 0.98831 0.0
C534 C 0.57773 0.44021 0.28486 0.0
C535 C 0.611 0.44736 0.31638 0.0
C536 C 0.58242 0.38673 0.37065 0.0
C537 C 0.54975 0.37907 0.33556 0.0
N538 N 0.51854 0.39501 0.24385 0.0
N539 N 0.64696 0.42523 0.37451 0.0
C540 C 0.54807 0.40479 0.28801 0.0
C541 C 0.61393 0.41995 0.35505 0.0
N542 N 0.57383 0.46745 0.25523 0.0
N543 N 0.58308 0.36284 0.42091 0.0
H544 H 0.67072 0.44887 0.36221 0.0
H545 H 0.6511 0.40504 0.39606 0.0
H546 H 0.5606 0.33806 0.43305 0.0
H547 H 0.60513 0.36869 0.45484 0.0
H548 H 0.54909 0.4644 0.2399 0.0
H549 H 0.59468 0.49393 0.25196 0.0
H550 H 0.5172 0.4116 0.20247 0.0
H551 H 0.49682 0.36893 0.24289 0.0
C552 C 0.19824 0.61757 0.69875 0.0
C553 C 0.16647 0.6173 0.67617 0.0
C554 C 0.13523 0.55184 0.66553 0.0
C555 C 0.16577 0.55182 0.69573 0.0
N556 N 0.22438 0.5841 0.75307 0.0
N557 N 0.10267 0.58383 0.65246 0.0
C558 C 0.19682 0.58455 0.71556 0.0
C559 C 0.13437 0.58435 0.66343 0.0
N560 N 0.23002 0.64924 0.70148 0.0
N561 N 0.10759 0.52113 0.63582 0.0
H562 H 0.10057 0.60691 0.65146 0.0
H563 H 0.07789 0.56029 0.65155 0.0
H564 H 0.10746 0.49689 0.63469 0.0
H565 H 0.0865 0.5205 0.60555 0.0
H566 H 0.25468 0.65073 0.70972 0.0
H567 H 0.23222 0.67393 0.68854 0.0
H568 H 0.24598 0.60694 0.77616 0.0
H569 H 0.22414 0.56044 0.76727 0.0
C570 C 0.61105 0.20089 0.01872 0.0
C571 C 0.61504 0.1714 0.99669 0.0
C572 C 0.55149 0.13714 0.96251 0.0
C573 C 0.548 0.16753 0.97951 0.0
N574 N 0.57611 0.23069 0.00806 0.0
N575 N 0.59154 0.11491 0.9311 0.0
C576 C 0.57829 0.20014 0.00312 0.0
C577 C 0.58597 0.14052 0.96371 0.0
N578 N 0.63798 0.22898 0.05726 0.0
N579 N 0.52179 0.10455 0.94876 0.0
H580 H 0.61659 0.11675 0.92935 0.0
H581 H 0.5722 0.09374 0.89909 0.0
H582 H 0.49587 0.10049 0.94753 0.0
H583 H 0.52251 0.08075 0.94523 0.0
H584 H 0.63506 0.24928 0.0822 0.0
H585 H 0.66234 0.23047 0.06999 0.0
H586 H 0.59824 0.25599 0.01747 0.0
H587 H 0.5528 0.23138 0.99535 0.0
loop_
_geom_bond_atom_site_label_1
_geom_bond_atom_site_label_2
_geom_bond_distance
_geom_bond_site_symmetry_2
_ccdc_geom_bond_type
C0 O1 1.160 . S
C0 O7 1.185 . S
O1 C0 1.160 . S
O2 Zn3 1.899 . S
O2 C10 1.284 . S
Zn3 O2 1.899 . S
Zn3 O4 2.032 . S
Zn3 O7 2.086 . S
Zn3 O12 1.977 . S
O4 Zn3 2.032 . S
O4 C8 1.278 . S
C5 O6 1.203 . S
C5 O12 1.267 . S
O6 C5 1.203 . S
O7 C0 1.185 . S
O7 Zn3 2.086 . S
C8 O4 1.278 . S
C8 O9 1.211 . S
O9 C8 1.211 . S
C10 O2 1.284 . S
C10 O11 1.273 . S
O11 C10 1.273 . S
O12 Zn3 1.977 . S
O12 C5 1.267 . S
C13 O14 1.160 . S
C13 O20 1.185 . S
O14 C13 1.160 . S
O15 Zn16 1.899 . S
O15 C23 1.284 . S
Zn16 O15 1.899 . S
Zn16 O17 2.032 . S
Zn16 O20 2.086 . S
Zn16 O25 1.977 . S
O17 Zn16 2.032 . S
O17 C21 1.278 . S
C18 O19 1.203 . S
C18 O25 1.267 . S
O19 C18 1.203 . S
O20 C13 1.185 . S
O20 Zn16 2.086 . S
C21 O17 1.278 . S
C21 O22 1.211 . S
O22 C21 1.211 . S
C23 O15 1.284 . S
C23 O24 1.273 . S
O24 C23 1.273 . S
O25 Zn16 1.977 . S
O25 C18 1.267 . S
C26 O27 1.160 . S
C26 O33 1.185 . S
O27 C26 1.160 . S
O28 Zn29 1.899 . S
O28 C36 1.284 . S
Zn29 O28 1.899 . S
Zn29 O30 2.032 . S
Zn29 O33 2.086 . S
Zn29 O38 1.977 . S
O30 Zn29 2.032 . S
O30 C34 1.278 1_556 S
C31 O32 1.203 1_556 S
C31 O38 1.267 . S
O32 C31 1.203 1_554 S
O33 C26 1.185 . S
O33 Zn29 2.086 . S
C34 O30 1.278 1_554 S
C34 O35 1.211 . S
O35 C34 1.211 . S
C36 O28 1.284 . S
C36 O37 1.273 1_556 S
O37 C36 1.273 1_554 S
O38 Zn29 1.977 . S
O38 C31 1.267 . S
C39 O40 1.160 . S
C39 O46 1.185 . S
O40 C39 1.160 . S
O41 Zn42 1.899 . S
O41 C49 1.284 . S
Zn42 O41 1.899 . S
Zn42 O43 2.032 . S
Zn42 O46 2.086 . S
Zn42 O51 1.977 . S
O43 Zn42 2.032 . S
O43 C47 1.278 . S
C44 O45 1.203 . S
C44 O51 1.267 . S
O45 C44 1.203 . S
O46 C39 1.185 . S
O46 Zn42 2.086 . S
C47 O43 1.278 . S
C47 O48 1.211 . S
O48 C47 1.211 . S
C49 O41 1.284 . S
C49 O50 1.273 . S
O50 C49 1.273 . S
O51 Zn42 1.977 . S
O51 C44 1.267 . S
C52 O53 1.160 . S
C52 O59 1.185 . S
O53 C52 1.160 . S
O54 Zn55 1.899 . S
O54 C62 1.284 . S
Zn55 O54 1.899 . S
Zn55 O56 2.032 . S
Zn55 O59 2.086 . S
Zn55 O64 1.977 . S
O56 Zn55 2.032 . S
O56 C60 1.278 . S
C57 O58 1.203 . S
C57 O64 1.267 . S
O58 C57 1.203 . S
O59 C52 1.185 . S
O59 Zn55 2.086 . S
C60 O56 1.278 . S
C60 O61 1.211 . S
O61 C60 1.211 . S
C62 O54 1.284 . S
C62 O63 1.273 . S
O63 C62 1.273 . S
O64 Zn55 1.977 . S
O64 C57 1.267 . S
C65 O66 1.160 . S
C65 O72 1.185 . S
O66 C65 1.160 . S
O67 Zn68 1.899 . S
O67 C75 1.284 . S
Zn68 O67 1.899 . S
Zn68 O69 2.032 . S
Zn68 O72 2.086 . S
Zn68 O77 1.977 . S
O69 Zn68 2.032 . S
O69 C73 1.278 1_556 S
C70 O71 1.203 1_556 S
C70 O77 1.267 . S
O71 C70 1.203 1_554 S
O72 C65 1.185 . S
O72 Zn68 2.086 . S
C73 O69 1.278 1_554 S
C73 O74 1.211 . S
O74 C73 1.211 . S
C75 O67 1.284 . S
C75 O76 1.273 1_556 S
O76 C75 1.273 1_554 S
O77 Zn68 1.977 . S
O77 C70 1.267 . S
C78 O79 1.160 . S
C78 O85 1.185 . S
O79 C78 1.160 . S
O80 Zn81 1.899 . S
O80 C88 1.284 . S
Zn81 O80 1.899 . S
Zn81 O82 2.032 . S
Zn81 O85 2.086 . S
Zn81 O90 1.977 . S
O82 Zn81 2.032 . S
O82 C86 1.278 . S
C83 O84 1.203 . S
C83 O90 1.267 . S
O84 C83 1.203 . S
O85 C78 1.185 . S
O85 Zn81 2.086 . S
C86 O82 1.278 . S
C86 O87 1.211 . S
O87 C86 1.211 . S
C88 O80 1.284 . S
C88 O89 1.273 . S
O89 C88 1.273 . S
O90 Zn81 1.977 . S
O90 C83 1.267 . S
C91 O92 1.160 . S
C91 O98 1.185 . S
O92 C91 1.160 . S
O93 Zn94 1.899 . S
O93 C101 1.284 . S
Zn94 O93 1.899 . S
Zn94 O95 2.032 . S
Zn94 O98 2.086 . S
Zn94 O103 1.977 . S
O95 Zn94 2.032 . S
O95 C99 1.278 . S
C96 O97 1.203 . S
C96 O103 1.267 . S
O97 C96 1.203 . S
O98 C91 1.185 . S
O98 Zn94 2.086 . S
C99 O95 1.278 . S
C99 O100 1.211 . S
O100 C99 1.211 . S
C101 O93 1.284 . S
C101 O102 1.273 . S
O102 C101 1.273 . S
O103 Zn94 1.977 . S
O103 C96 1.267 . S
C104 O105 1.160 . S
C104 O111 1.185 . S
O105 C104 1.160 . S
O106 Zn107 1.899 . S
O106 C114 1.284 . S
Zn107 O106 1.899 . S
Zn107 O108 2.032 . S
Zn107 O111 2.086 . S
Zn107 O116 1.977 . S
O108 Zn107 2.032 . S
O108 C112 1.278 1_554 S
C109 O110 1.203 1_554 S
C109 O116 1.267 . S
O110 C109 1.203 1_556 S
O111 C104 1.185 . S
O111 Zn107 2.086 . S
C112 O108 1.278 1_556 S
C112 O113 1.211 . S
O113 C112 1.211 . S
C114 O106 1.284 . S
C114 O115 1.273 1_554 S
O115 C114 1.273 1_556 S
O116 Zn107 1.977 . S
O116 C109 1.267 . S
C117 O118 1.160 . S
C117 O124 1.185 . S
O118 C117 1.160 . S
O119 Zn120 1.899 . S
O119 C127 1.284 . S
Zn120 O119 1.899 . S
Zn120 O121 2.032 . S
Zn120 O124 2.086 . S
Zn120 O129 1.977 . S
O121 Zn120 2.032 . S
O121 C125 1.278 . S
C122 O123 1.203 . S
C122 O129 1.267 . S
O123 C122 1.203 . S
O124 C117 1.185 . S
O124 Zn120 2.086 . S
C125 O121 1.278 . S
C125 O126 1.211 . S
O126 C125 1.211 . S
C127 O119 1.284 . S
C127 O128 1.273 . S
O128 C127 1.273 . S
O129 Zn120 1.977 . S
O129 C122 1.267 . S
C130 O131 1.160 . S
C130 O137 1.185 . S
O131 C130 1.160 . S
O132 Zn133 1.899 . S
O132 C140 1.284 . S
Zn133 O132 1.899 . S
Zn133 O134 2.032 . S
Zn133 O137 2.086 . S
Zn133 O142 1.977 . S
O134 Zn133 2.032 . S
O134 C138 1.278 . S
C135 O136 1.203 . S
C135 O142 1.267 . S
O136 C135 1.203 . S
O137 C130 1.185 . S
O137 Zn133 2.086 . S
C138 O134 1.278 . S
C138 O139 1.211 . S
O139 C138 1.211 . S
C140 O132 1.284 . S
C140 O141 1.273 . S
O141 C140 1.273 . S
O142 Zn133 1.977 . S
O142 C135 1.267 . S
C143 O144 1.160 . S
C143 O150 1.185 . S
O144 C143 1.160 . S
O145 Zn146 1.899 . S
O145 C153 1.284 . S
Zn146 O145 1.899 . S
Zn146 O147 2.032 . S
Zn146 O150 2.086 . S
Zn146 O155 1.977 . S
O147 Zn146 2.032 . S
O147 C151 1.278 1_554 S
C148 O149 1.203 1_554 S
C148 O155 1.267 . S
O149 C148 1.203 1_556 S
O150 C143 1.185 . S
O150 Zn146 2.086 . S
C151 O147 1.278 1_556 S
C151 O152 1.211 . S
O152 C151 1.211 . S
C153 O145 1.284 . S
C153 O154 1.273 1_554 S
O154 C153 1.273 1_556 S
O155 Zn146 1.977 . S
O155 C148 1.267 . S
C156 C157 1.363 . S
C156 C162 1.379 . S
C156 N164 1.356 . S
C157 C156 1.363 . S
C157 C163 1.363 . S
C158 C159 1.363 . S
C158 C163 1.379 . S
C158 N165 1.356 . S
C159 C158 1.363 . S
C159 C162 1.363 . S
N160 C162 1.356 . S
N160 H172 0.984 . S
N160 H173 0.985 . S
N161 C163 1.356 . S
N161 H166 0.984 . S
N161 H167 0.985 . S
C162 C156 1.379 . S
C162 C159 1.363 . S
C162 N160 1.356 . S
C163 C157 1.363 . S
C163 C158 1.379 . S
C163 N161 1.356 . S
N164 C156 1.356 . S
N164 H170 0.984 . S
N164 H171 0.984 . S
N165 C158 1.356 . S
N165 H168 0.984 . S
N165 H169 0.985 . S
H166 N161 0.984 . S
H167 N161 0.985 . S
H168 N165 0.984 . S
H169 N165 0.985 . S
H170 N164 0.984 . S
H171 N164 0.984 . S
H172 N160 0.984 . S
H173 N160 0.985 . S
C174 C175 1.363 . S
C174 C180 1.379 1_655 S
C174 N182 1.356 . S
C175 C174 1.363 . S
C175 C181 1.363 . S
C176 C177 1.363 . S
C176 C181 1.379 1_455 S
C176 N183 1.356 . S
C177 C176 1.363 . S
C177 C180 1.363 . S
N178 C180 1.356 . S
N178 H190 0.984 . S
N178 H191 0.985 . S
N179 C181 1.356 . S
N179 H184 0.984 . S
N179 H185 0.985 . S
C180 C174 1.379 1_455 S
C180 C177 1.363 . S
C180 N178 1.356 . S
C181 C175 1.363 . S
C181 C176 1.379 1_655 S
C181 N179 1.356 . S
N182 C174 1.356 . S
N182 H188 0.984 . S
N182 H189 0.984 . S
N183 C176 1.356 . S
N183 H186 0.984 . S
N183 H187 0.985 . S
H184 N179 0.984 . S
H185 N179 0.985 . S
H186 N183 0.984 . S
H187 N183 0.985 . S
H188 N182 0.984 . S
H189 N182 0.984 . S
H190 N178 0.984 . S
H191 N178 0.985 . S
C192 C193 1.363 1_554 S
C192 C198 1.379 1_565 S
C192 N200 1.356 . S
C193 C192 1.363 1_556 S
C193 C199 1.363 . S
C194 C195 1.363 1_556 S
C194 C199 1.379 1_545 S
C194 N201 1.356 . S
C195 C194 1.363 1_554 S
C195 C198 1.363 . S
N196 C198 1.356 . S
N196 H208 0.984 . S
N196 H209 0.985 . S
N197 C199 1.356 . S
N197 H202 0.984 . S
N197 H203 0.985 . S
C198 C192 1.379 1_545 S
C198 C195 1.363 . S
C198 N196 1.356 . S
C199 C193 1.363 . S
C199 C194 1.379 1_565 S
C199 N197 1.356 . S
N200 C192 1.356 . S
N200 H206 0.984 . S
N200 H207 0.984 . S
N201 C194 1.356 . S
N201 H204 0.984 . S
N201 H205 0.985 . S
H202 N197 0.984 . S
H203 N197 0.985 . S
H204 N201 0.984 . S
H205 N201 0.985 . S
H206 N200 0.984 . S
H207 N200 0.984 . S
H208 N196 0.984 . S
H209 N196 0.985 . S
C210 C211 1.363 . S
C210 C216 1.379 . S
C210 N218 1.356 . S
C211 C210 1.363 . S
C211 C217 1.363 . S
C212 C213 1.363 . S
C212 C217 1.379 . S
C212 N219 1.356 . S
C213 C212 1.363 . S
C213 C216 1.363 . S
N214 C216 1.356 . S
N214 H226 0.984 . S
N214 H227 0.985 . S
N215 C217 1.356 . S
N215 H220 0.984 . S
N215 H221 0.985 . S
C216 C210 1.379 . S
C216 C213 1.363 . S
C216 N214 1.356 . S
C217 C211 1.363 . S
C217 C212 1.379 . S
C217 N215 1.356 . S
N218 C210 1.356 . S
N218 H224 0.984 . S
N218 H225 0.984 . S
N219 C212 1.356 . S
N219 H222 0.984 . S
N219 H223 0.985 . S
H220 N215 0.984 . S
H221 N215 0.985 . S
H222 N219 0.984 . S
H223 N219 0.985 . S
H224 N218 0.984 . S
H225 N218 0.984 . S
H226 N214 0.984 . S
H227 N214 0.985 . S
C228 C229 1.363 . S
C228 C234 1.379 1_655 S
C228 N236 1.356 . S
C229 C228 1.363 . S
C229 C235 1.363 . S
C230 C231 1.363 . S
C230 C235 1.379 1_455 S
C230 N237 1.356 . S
C231 C230 1.363 . S
C231 C234 1.363 . S
N232 C234 1.356 . S
N232 H244 0.984 . S
N232 H245 0.985 . S
N233 C235 1.356 . S
N233 H238 0.984 . S
N233 H239 0.985 . S
C234 C228 1.379 1_455 S
C234 C231 1.363 . S
C234 N232 1.356 . S
C235 C229 1.363 . S
C235 C230 1.379 1_655 S
C235 N233 1.356 . S
N236 C228 1.356 . S
N236 H242 0.984 . S
N236 H243 0.984 . S
N237 C230 1.356 . S
N237 H240 0.984 . S
N237 H241 0.985 . S
H238 N233 0.984 . S
H239 N233 0.985 . S
H240 N237 0.984 . S
H241 N237 0.985 . S
H242 N236 0.984 . S
H243 N236 0.984 . S
H244 N232 0.984 . S
H245 N232 0.985 . S
C246 C247 1.363 1_556 S
C246 C252 1.379 1_565 S
C246 N254 1.356 . S
C247 C246 1.363 1_554 S
C247 C253 1.363 . S
C248 C249 1.363 1_554 S
C248 C253 1.379 1_545 S
C248 N255 1.356 . S
C249 C248 1.363 1_556 S
C249 C252 1.363 . S
N250 C252 1.356 . S
N250 H262 0.984 . S
N250 H263 0.985 . S
N251 C253 1.356 . S
N251 H256 0.984 . S
N251 H257 0.985 . S
C252 C246 1.379 1_545 S
C252 C249 1.363 . S
C252 N250 1.356 . S
C253 C247 1.363 . S
C253 C248 1.379 1_565 S
C253 N251 1.356 . S
N254 C246 1.356 . S
N254 H260 0.984 . S
N254 H261 0.984 . S
N255 C248 1.356 . S
N255 H258 0.984 . S
N255 H259 0.985 . S
H256 N251 0.984 . S
H257 N251 0.985 . S
H258 N255 0.984 . S
H259 N255 0.985 . S
H260 N254 0.984 . S
H261 N254 0.984 . S
H262 N250 0.984 . S
H263 N250 0.985 . S
C264 C265 1.363 . S
C264 C270 1.379 1_556 S
C264 N272 1.356 . S
C265 C264 1.363 . S
C265 C271 1.363 . S
C266 C267 1.363 . S
C266 C271 1.379 1_554 S
C266 N273 1.356 . S
C267 C266 1.363 . S
C267 C270 1.363 . S
N268 C270 1.356 . S
N268 H280 0.984 . S
N268 H281 0.985 . S
N269 C271 1.356 . S
N269 H274 0.984 . S
N269 H275 0.985 . S
C270 C264 1.379 1_554 S
C270 C267 1.363 . S
C270 N268 1.356 . S
C271 C265 1.363 . S
C271 C266 1.379 1_556 S
C271 N269 1.356 . S
N272 C264 1.356 . S
N272 H278 0.984 . S
N272 H279 0.984 . S
N273 C266 1.356 . S
N273 H276 0.984 . S
N273 H277 0.985 . S
H274 N269 0.984 . S
H275 N269 0.985 . S
H276 N273 0.984 . S
H277 N273 0.985 . S
H278 N272 0.984 . S
H279 N272 0.984 . S
H280 N268 0.984 . S
H281 N268 0.985 . S
C282 C283 1.363 . S
C282 C288 1.379 . S
C282 N290 1.356 . S
C283 C282 1.363 . S
C283 C289 1.363 . S
C284 C285 1.363 . S
C284 C289 1.379 . S
C284 N291 1.356 . S
C285 C284 1.363 . S
C285 C288 1.363 . S
N286 C288 1.356 . S
N286 H298 0.984 . S
N286 H299 0.985 . S
N287 C289 1.356 . S
N287 H292 0.984 . S
N287 H293 0.985 . S
C288 C282 1.379 . S
C288 C285 1.363 . S
C288 N286 1.356 . S
C289 C283 1.363 . S
C289 C284 1.379 . S
C289 N287 1.356 . S
N290 C282 1.356 . S
N290 H296 0.984 . S
N290 H297 0.984 . S
N291 C284 1.356 . S
N291 H294 0.984 . S
N291 H295 0.985 . S
H292 N287 0.984 . S
H293 N287 0.985 . S
H294 N291 0.984 . S
H295 N291 0.985 . S
H296 N290 0.984 . S
H297 N290 0.984 . S
H298 N286 0.984 . S
H299 N286 0.985 . S
C300 C301 1.363 . S
C300 C306 1.379 . S
C300 N308 1.356 . S
C301 C300 1.363 . S
C301 C307 1.363 . S
C302 C303 1.363 . S
C302 C307 1.379 . S
C302 N309 1.356 . S
C303 C302 1.363 . S
C303 C306 1.363 . S
N304 C306 1.356 . S
N304 H316 0.984 . S
N304 H317 0.985 . S
N305 C307 1.356 . S
N305 H310 0.984 . S
N305 H311 0.985 . S
C306 C300 1.379 . S
C306 C303 1.363 . S
C306 N304 1.356 . S
C307 C301 1.363 . S
C307 C302 1.379 . S
C307 N305 1.356 . S
N308 C300 1.356 . S
N308 H314 0.984 . S
N308 H315 0.984 . S
N309 C302 1.356 . S
N309 H312 0.984 . S
N309 H313 0.985 . S
H310 N305 0.984 . S
H311 N305 0.985 . S
H312 N309 0.984 . S
H313 N309 0.985 . S
H314 N308 0.984 . S
H315 N308 0.984 . S
H316 N304 0.984 . S
H317 N304 0.985 . S
C318 C319 1.363 . S
C318 C324 1.379 1_554 S
C318 N326 1.356 . S
C319 C318 1.363 . S
C319 C325 1.363 . S
C320 C321 1.363 . S
C320 C325 1.379 1_556 S
C320 N327 1.356 . S
C321 C320 1.363 . S
C321 C324 1.363 . S
N322 C324 1.356 . S
N322 H334 0.984 . S
N322 H335 0.985 . S
N323 C325 1.356 . S
N323 H328 0.984 . S
N323 H329 0.985 . S
C324 C318 1.379 1_556 S
C324 C321 1.363 . S
C324 N322 1.356 . S
C325 C319 1.363 . S
C325 C320 1.379 1_554 S
C325 N323 1.356 . S
N326 C318 1.356 . S
N326 H332 0.984 . S
N326 H333 0.984 . S
N327 C320 1.356 . S
N327 H330 0.984 . S
N327 H331 0.985 . S
H328 N323 0.984 . S
H329 N323 0.985 . S
H330 N327 0.984 . S
H331 N327 0.985 . S
H332 N326 0.984 . S
H333 N326 0.984 . S
H334 N322 0.984 . S
H335 N322 0.985 . S
C336 C337 1.363 . S
C336 C342 1.379 . S
C336 N344 1.356 . S
C337 C336 1.363 . S
C337 C343 1.363 . S
C338 C339 1.363 . S
C338 C343 1.379 . S
C338 N345 1.356 . S
C339 C338 1.363 . S
C339 C342 1.363 . S
N340 C342 1.356 . S
N340 H352 0.984 . S
N340 H353 0.985 . S
N341 C343 1.356 . S
N341 H346 0.984 . S
N341 H347 0.985 . S
C342 C336 1.379 . S
C342 C339 1.363 . S
C342 N340 1.356 . S
C343 C337 1.363 . S
C343 C338 1.379 . S
C343 N341 1.356 . S
N344 C336 1.356 . S
N344 H350 0.984 . S
N344 H351 0.984 . S
N345 C338 1.356 . S
N345 H348 0.984 . S
N345 H349 0.985 . S
H346 N341 0.984 . S
H347 N341 0.985 . S
H348 N345 0.984 . S
H349 N345 0.985 . S
H350 N344 0.984 . S
H351 N344 0.984 . S
H352 N340 0.984 . S
H353 N340 0.985 . S
C354 C355 1.363 . S
C354 C360 1.379 . S
C354 N362 1.356 . S
C355 C354 1.363 . S
C355 C361 1.363 . S
C356 C357 1.363 . S
C356 C361 1.379 . S
C356 N363 1.356 . S
C357 C356 1.363 . S
C357 C360 1.363 . S
N358 C360 1.356 . S
N358 H370 0.984 . S
N358 H371 0.985 . S
N359 C361 1.356 . S
N359 H364 0.984 . S
N359 H365 0.985 . S
C360 C354 1.379 . S
C360 C357 1.363 . S
C360 N358 1.356 . S
C361 C355 1.363 . S
C361 C356 1.379 . S
C361 N359 1.356 . S
N362 C354 1.356 . S
N362 H368 0.984 . S
N362 H369 0.984 . S
N363 C356 1.356 . S
N363 H366 0.984 . S
N363 H367 0.985 . S
H364 N359 0.984 . S
H365 N359 0.985 . S
H366 N363 0.984 . S
H367 N363 0.985 . S
H368 N362 0.984 . S
H369 N362 0.984 . S
H370 N358 0.984 . S
H371 N358 0.985 . S
C372 C373 1.363 . S
C372 C378 1.379 . S
C372 N380 1.356 . S
C373 C372 1.363 . S
C373 C379 1.363 . S
C374 C375 1.363 . S
C374 C379 1.379 . S
C374 N381 1.356 . S
C375 C374 1.363 . S
C375 C378 1.363 . S
N376 C378 1.356 . S
N376 H388 0.984 . S
N376 H389 0.985 . S
N377 C379 1.356 . S
N377 H382 0.984 . S
N377 H383 0.985 . S
C378 C372 1.379 . S
C378 C375 1.363 . S
C378 N376 1.356 . S
C379 C373 1.363 . S
C379 C374 1.379 . S
C379 N377 1.356 . S
N380 C372 1.356 . S
N380 H386 0.984 . S
N380 H387 0.984 . S
N381 C374 1.356 . S
N381 H384 0.984 . S
N381 H385 0.985 . S
H382 N377 0.984 . S
H383 N377 0.985 . S
H384 N381 0.984 . S
H385 N381 0.985 . S
H386 N380 0.984 . S
H387 N380 0.984 . S
H388 N376 0.984 . S
H389 N376 0.985 . S
C390 C391 1.363 . S
C390 C396 1.379 . S
C390 N398 1.356 . S
C391 C390 1.363 . S
C391 C397 1.363 . S
C392 C393 1.363 . S
C392 C397 1.379 . S
C392 N399 1.356 . S
C393 C392 1.363 . S
C393 C396 1.363 . S
N394 C396 1.356 . S
N394 H406 0.984 1_556 S
N394 H407 0.985 1_556 S
N395 C397 1.356 . S
N395 H400 0.984 . S
N395 H401 0.985 . S
C396 C390 1.379 . S
C396 C393 1.363 . S
C396 N394 1.356 . S
C397 C391 1.363 . S
C397 C392 1.379 . S
C397 N395 1.356 . S
N398 C390 1.356 . S
N398 H404 0.984 . S
N398 H405 0.984 . S
N399 C392 1.356 . S
N399 H402 0.984 . S
N399 H403 0.985 . S
H400 N395 0.984 . S
H401 N395 0.985 . S
H402 N399 0.984 . S
H403 N399 0.985 . S
H404 N398 0.984 . S
H405 N398 0.984 . S
H406 N394 0.984 1_554 S
H407 N394 0.985 1_554 S
C408 C409 1.363 . S
C408 C414 1.379 . S
C408 N416 1.356 . S
C409 C408 1.363 . S
C409 C415 1.363 . S
C410 C411 1.363 . S
C410 C415 1.379 . S
C410 N417 1.356 . S
C411 C410 1.363 . S
C411 C414 1.363 . S
N412 C414 1.356 . S
N412 H424 0.984 . S
N412 H425 0.985 . S
N413 C415 1.356 . S
N413 H418 0.984 . S
N413 H419 0.985 . S
C414 C408 1.379 . S
C414 C411 1.363 . S
C414 N412 1.356 . S
C415 C409 1.363 . S
C415 C410 1.379 . S
C415 N413 1.356 . S
N416 C408 1.356 . S
N416 H422 0.984 1_554 S
N416 H423 0.984 1_554 S
N417 C410 1.356 . S
N417 H420 0.984 . S
N417 H421 0.985 . S
H418 N413 0.984 . S
H419 N413 0.985 . S
H420 N417 0.984 . S
H421 N417 0.985 . S
H422 N416 0.984 1_556 S
H423 N416 0.984 1_556 S
H424 N412 0.984 . S
H425 N412 0.985 . S
C426 C427 1.363 . S
C426 C432 1.379 . S
C426 N434 1.356 . S
C427 C426 1.363 . S
C427 C433 1.363 . S
C428 C429 1.363 . S
C428 C433 1.379 . S
C428 N435 1.356 . S
C429 C428 1.363 . S
C429 C432 1.363 . S
N430 C432 1.356 . S
N430 H442 0.984 . S
N430 H443 0.985 . S
N431 C433 1.356 . S
N431 H436 0.984 . S
N431 H437 0.985 . S
C432 C426 1.379 . S
C432 C429 1.363 . S
C432 N430 1.356 . S
C433 C427 1.363 . S
C433 C428 1.379 . S
C433 N431 1.356 . S
N434 C426 1.356 . S
N434 H440 0.984 . S
N434 H441 0.984 . S
N435 C428 1.356 . S
N435 H438 0.984 . S
N435 H439 0.985 . S
H436 N431 0.984 . S
H437 N431 0.985 . S
H438 N435 0.984 . S
H439 N435 0.985 . S
H440 N434 0.984 . S
H441 N434 0.984 . S
H442 N430 0.984 . S
H443 N430 0.985 . S
C444 C445 1.363 . S
C444 C450 1.379 . S
C444 N452 1.356 . S
C445 C444 1.363 . S
C445 C451 1.363 . S
C446 C447 1.363 . S
C446 C451 1.379 . S
C446 N453 1.356 . S
C447 C446 1.363 . S
C447 C450 1.363 . S
N448 C450 1.356 . S
N448 H460 0.984 . S
N448 H461 0.985 . S
N449 C451 1.356 . S
N449 H454 0.984 . S
N449 H455 0.985 . S
C450 C444 1.379 . S
C450 C447 1.363 . S
C450 N448 1.356 . S
C451 C445 1.363 . S
C451 C446 1.379 . S
C451 N449 1.356 . S
N452 C444 1.356 . S
N452 H458 0.984 . S
N452 H459 0.984 . S
N453 C446 1.356 . S
N453 H456 0.984 1_556 S
N453 H457 0.985 1_556 S
H454 N449 0.984 . S
H455 N449 0.985 . S
H456 N453 0.984 1_554 S
H457 N453 0.985 1_554 S
H458 N452 0.984 . S
H459 N452 0.984 . S
H460 N448 0.984 . S
H461 N448 0.985 . S
C462 C463 1.363 . S
C462 C468 1.379 . S
C462 N470 1.356 . S
C463 C462 1.363 . S
C463 C469 1.363 . S
C464 C465 1.363 . S
C464 C469 1.379 . S
C464 N471 1.356 . S
C465 C464 1.363 . S
C465 C468 1.363 . S
N466 C468 1.356 . S
N466 H478 0.984 . S
N466 H479 0.985 . S
N467 C469 1.356 . S
N467 H472 0.984 . S
N467 H473 0.985 . S
C468 C462 1.379 . S
C468 C465 1.363 . S
C468 N466 1.356 . S
C469 C463 1.363 . S
C469 C464 1.379 . S
C469 N467 1.356 . S
N470 C462 1.356 . S
N470 H476 0.984 1_554 S
N470 H477 0.984 1_554 S
N471 C464 1.356 . S
N471 H474 0.984 . S
N471 H475 0.985 . S
H472 N467 0.984 . S
H473 N467 0.985 . S
H474 N471 0.984 . S
H475 N471 0.985 . S
H476 N470 0.984 1_556 S
H477 N470 0.984 1_556 S
H478 N466 0.984 . S
H479 N466 0.985 . S
C480 C481 1.363 . S
C480 C486 1.379 . S
C480 N488 1.356 . S
C481 C480 1.363 . S
C481 C487 1.363 . S
C482 C483 1.363 . S
C482 C487 1.379 . S
C482 N489 1.356 . S
C483 C482 1.363 . S
C483 C486 1.363 . S
N484 C486 1.356 . S
N484 H496 0.984 . S
N484 H497 0.985 . S
N485 C487 1.356 . S
N485 H490 0.984 . S
N485 H491 0.985 . S
C486 C480 1.379 . S
C486 C483 1.363 . S
C486 N484 1.356 . S
C487 C481 1.363 . S
C487 C482 1.379 . S
C487 N485 1.356 . S
N488 C480 1.356 . S
N488 H494 0.984 . S
N488 H495 0.984 . S
N489 C482 1.356 . S
N489 H492 0.984 . S
N489 H493 0.985 . S
H490 N485 0.984 . S
H491 N485 0.985 . S
H492 N489 0.984 . S
H493 N489 0.985 . S
H494 N488 0.984 . S
H495 N488 0.984 . S
H496 N484 0.984 . S
H497 N484 0.985 . S
C498 C499 1.363 . S
C498 C504 1.379 . S
C498 N506 1.356 . S
C499 C498 1.363 . S
C499 C505 1.363 . S
C500 C501 1.363 . S
C500 C505 1.379 . S
C500 N507 1.356 . S
C501 C500 1.363 . S
C501 C504 1.363 . S
N502 C504 1.356 . S
N502 H514 0.984 . S
N502 H515 0.985 . S
N503 C505 1.356 . S
N503 H508 0.984 . S
N503 H509 0.985 . S
C504 C498 1.379 . S
C504 C501 1.363 . S
C504 N502 1.356 . S
C505 C499 1.363 . S
C505 C500 1.379 . S
C505 N503 1.356 . S
N506 C498 1.356 . S
N506 H512 0.984 . S
N506 H513 0.984 . S
N507 C500 1.356 . S
N507 H510 0.984 . S
N507 H511 0.985 . S
H508 N503 0.984 . S
H509 N503 0.985 . S
H510 N507 0.984 . S
H511 N507 0.985 . S
H512 N506 0.984 . S
H513 N506 0.984 . S
H514 N502 0.984 . S
H515 N502 0.985 . S
C516 C517 1.363 . S
C516 C522 1.379 . S
C516 N524 1.356 . S
C517 C516 1.363 . S
C517 C523 1.363 1_556 S
C518 C519 1.363 . S
C518 C523 1.379 . S
C518 N525 1.356 . S
C519 C518 1.363 . S
C519 C522 1.363 1_554 S
N520 C522 1.356 . S
N520 H532 0.984 . S
N520 H533 0.985 . S
N521 C523 1.356 . S
N521 H526 0.984 . S
N521 H527 0.985 . S
C522 C516 1.379 . S
C522 C519 1.363 1_556 S
C522 N520 1.356 . S
C523 C517 1.363 1_554 S
C523 C518 1.379 . S
C523 N521 1.356 . S
N524 C516 1.356 . S
N524 H530 0.984 . S
N524 H531 0.984 . S
N525 C518 1.356 . S
N525 H528 0.984 . S
N525 H529 0.985 . S
H526 N521 0.984 . S
H527 N521 0.985 . S
H528 N525 0.984 . S
H529 N525 0.985 . S
H530 N524 0.984 . S
H531 N524 0.984 . S
H532 N520 0.984 . S
H533 N520 0.985 . S
C534 C535 1.363 . S
C534 C540 1.379 . S
C534 N542 1.356 . S
C535 C534 1.363 . S
C535 C541 1.363 . S
C536 C537 1.363 . S
C536 C541 1.379 . S
C536 N543 1.356 . S
C537 C536 1.363 . S
C537 C540 1.363 . S
N538 C540 1.356 . S
N538 H550 0.984 . S
N538 H551 0.985 . S
N539 C541 1.356 . S
N539 H544 0.984 . S
N539 H545 0.985 . S
C540 C534 1.379 . S
C540 C537 1.363 . S
C540 N538 1.356 . S
C541 C535 1.363 . S
C541 C536 1.379 . S
C541 N539 1.356 . S
N542 C534 1.356 . S
N542 H548 0.984 . S
N542 H549 0.984 . S
N543 C536 1.356 . S
N543 H546 0.984 . S
N543 H547 0.985 . S
H544 N539 0.984 . S
H545 N539 0.985 . S
H546 N543 0.984 . S
H547 N543 0.985 . S
H548 N542 0.984 . S
H549 N542 0.984 . S
H550 N538 0.984 . S
H551 N538 0.985 . S
C552 C553 1.363 . S
C552 C558 1.379 . S
C552 N560 1.356 . S
C553 C552 1.363 . S
C553 C559 1.363 . S
C554 C555 1.363 . S
C554 C559 1.379 . S
C554 N561 1.356 . S
C555 C554 1.363 . S
C555 C558 1.363 . S
N556 C558 1.356 . S
N556 H568 0.984 . S
N556 H569 0.985 . S
N557 C559 1.356 . S
N557 H562 0.984 . S
N557 H563 0.985 . S
C558 C552 1.379 . S
C558 C555 1.363 . S
C558 N556 1.356 . S
C559 C553 1.363 . S
C559 C554 1.379 . S
C559 N557 1.356 . S
N560 C552 1.356 . S
N560 H566 0.984 . S
N560 H567 0.984 . S
N561 C554 1.356 . S
N561 H564 0.984 . S
N561 H565 0.985 . S
H562 N557 0.984 . S
H563 N557 0.985 . S
H564 N561 0.984 . S
H565 N561 0.985 . S
H566 N560 0.984 . S
H567 N560 0.984 . S
H568 N556 0.984 . S
H569 N556 0.985 . S
C570 C571 1.363 . S
C570 C576 1.379 . S
C570 N578 1.356 . S
C571 C570 1.363 . S
C571 C577 1.363 1_554 S
C572 C573 1.363 . S
C572 C577 1.379 . S
C572 N579 1.356 . S
C573 C572 1.363 . S
C573 C576 1.363 1_556 S
N574 C576 1.356 . S
N574 H586 0.984 . S
N574 H587 0.985 . S
N575 C577 1.356 . S
N575 H580 0.984 . S
N575 H581 0.985 . S
C576 C570 1.379 . S
C576 C573 1.363 1_554 S
C576 N574 1.356 . S
C577 C571 1.363 1_556 S
C577 C572 1.379 . S
C577 N575 1.356 . S
N578 C570 1.356 . S
N578 H584 0.984 . S
N578 H585 0.984 . S
N579 C572 1.356 . S
N579 H582 0.984 . S
N579 H583 0.985 . S
H580 N575 0.984 . S
H581 N575 0.985 . S
H582 N579 0.984 . S
H583 N579 0.985 . S
H584 N578 0.984 . S
H585 N578 0.984 . S
H586 N574 0.984 . S
H587 N574 0.985 . S
C157 C5 1.361 . S
C159 C122 1.361 . S
C175 C18 1.361 . S
C177 C135 1.361 . S
C193 C31 1.361 . S
C195 C148 1.361 . S
C211 C44 1.361 . S
C213 C83 1.361 . S
C229 C96 1.361 . S
C231 C57 1.361 . S
C247 C109 1.361 . S
C249 C70 1.361 . S
C265 C130 1.557 . S
C267 C0 1.557 . S
C283 C13 1.557 . S
C285 C143 1.557 . S
C301 C26 1.557 . S
C303 C78 1.557 . S
C319 C39 1.557 . S
C321 C91 1.557 . S
C337 C52 1.557 . S
C339 C104 1.557 . S
C355 C65 1.557 . S
C357 C117 1.557 . S
C373 C138 1.111 . S
C375 C8 1.111 . S
C391 C21 1.111 . S
C393 C151 1.111 . S
C409 C34 1.111 . S
C411 C86 1.111 . S
C427 C47 1.111 . S
C429 C99 1.111 . S
C445 C60 1.111 . S
C447 C112 1.111 . S
C463 C73 1.111 . S
C465 C125 1.111 . S
C481 C10 1.539 . S
C483 C88 1.539 . S
C499 C101 1.539 . S
C501 C23 1.539 . S
C517 C36 1.539 . S
C519 C114 1.539 . S
C535 C49 1.539 . S
C537 C127 1.539 . S
C553 C62 1.539 . S
C555 C140 1.539 . S
C571 C153 1.539 . S
C573 C75 1.539 . S
