# Generated by pormake.
# Topology uof, (4)-cn, num edge types: 1
# Building blocks:
#     Node 0, Type 0, BuildingBlock: NAHDIM_clean_sbu_0, # of connection points: 4
#     Node 1, Type 0, BuildingBlock: NAHDIM_clean_sbu_0, # of connection points: 4
#     Node 2, Type 0, BuildingBlock: NAHDIM_clean_sbu_0, # of connection points: 4
#     Node 3, Type 0, BuildingBlock: NAHDIM_clean_sbu_0, # of connection points: 4
#     Node 4, Type 0, BuildingBlock: NAHDIM_clean_sbu_0, # of connection points: 4
#     Node 5, Type 0, BuildingBlock: NAHDIM_clean_sbu_0, # of connection points: 4
#     Node 6, Type 0, BuildingBlock: NAHDIM_clean_sbu_0, # of connection points: 4
#     Node 7, Type 0, BuildingBlock: NAHDIM_clean_sbu_0, # of connection points: 4
#     Node 8, Type 0, BuildingBlock: NAHDIM_clean_sbu_0, # of connection points: 4
#     Node 9, Type 0, BuildingBlock: NAHDIM_clean_sbu_0, # of connection points: 4
#     Node 10, Type 0, BuildingBlock: NAHDIM_clean_sbu_0, # of connection points: 4
#     Node 11, Type 0, BuildingBlock: NAHDIM_clean_sbu_0, # of connection points: 4
#     Edge 12, Type (0, 0), BuildingBlock: EZIPEK_clean_linker_0, # of connection points: 2
#     Edge 13, Type (0, 0), BuildingBlock: EZIPEK_clean_linker_0, # of connection points: 2
#     Edge 14, Type (0, 0), BuildingBlock: EZIPEK_clean_linker_0, # of connection points: 2
#     Edge 15, Type (0, 0), BuildingBlock: EZIPEK_clean_linker_0, # of connection points: 2
#     Edge 16, Type (0, 0), BuildingBlock: EZIPEK_clean_linker_0, # of connection points: 2
#     Edge 17, Type (0, 0), BuildingBlock: EZIPEK_clean_linker_0, # of connection points: 2
#     Edge 18, Type (0, 0), BuildingBlock: EZIPEK_clean_linker_0, # of connection points: 2
#     Edge 19, Type (0, 0), BuildingBlock: EZIPEK_clean_linker_0, # of connection points: 2
#     Edge 20, Type (0, 0), BuildingBlock: EZIPEK_clean_linker_0, # of connection points: 2
#     Edge 21, Type (0, 0), BuildingBlock: EZIPEK_clean_linker_0, # of connection points: 2
#     Edge 22, Type (0, 0), BuildingBlock: EZIPEK_clean_linker_0, # of connection points: 2
#     Edge 23, Type (0, 0), BuildingBlock: EZIPEK_clean_linker_0, # of connection points: 2
#     Edge 24, Type (0, 0), BuildingBlock: EZIPEK_clean_linker_0, # of connection points: 2
#     Edge 25, Type (0, 0), BuildingBlock: EZIPEK_clean_linker_0, # of connection points: 2
#     Edge 26, Type (0, 0), BuildingBlock: EZIPEK_clean_linker_0, # of connection points: 2
#     Edge 27, Type (0, 0), BuildingBlock: EZIPEK_clean_linker_0, # of connection points: 2
#     Edge 28, Type (0, 0), BuildingBlock: EZIPEK_clean_linker_0, # of connection points: 2
#     Edge 29, Type (0, 0), BuildingBlock: EZIPEK_clean_linker_0, # of connection points: 2
#     Edge 30, Type (0, 0), BuildingBlock: EZIPEK_clean_linker_0, # of connection points: 2
#     Edge 31, Type (0, 0), BuildingBlock: EZIPEK_clean_linker_0, # of connection points: 2
#     Edge 32, Type (0, 0), BuildingBlock: EZIPEK_clean_linker_0, # of connection points: 2
#     Edge 33, Type (0, 0), BuildingBlock: EZIPEK_clean_linker_0, # of connection points: 2
#     Edge 34, Type (0, 0), BuildingBlock: EZIPEK_clean_linker_0, # of connection points: 2
#     Edge 35, Type (0, 0), BuildingBlock: EZIPEK_clean_linker_0, # of connection points: 2
# Relax obj value: 0.211
# Max RMSD: 0.168
# Mean RMSD: 0.168
data_MOF--net-uof--node1-NAHDIM_clean_sbu_0--edge1-EZIPEK_clean_linker_0
_symmetry_space_group_name_H-M    P1
_symmetry_Int_Tables_number       1
_symmetry_cell_setting            triclinic
loop_
_symmetry_equiv_pos_as_xyz
'x, y, z'
_cell_length_a     24.104306
_cell_length_b     24.105175
_cell_length_c     44.515589
_cell_angle_alpha  90.182867
_cell_angle_beta   89.725458
_cell_angle_gamma 119.88097
loop_
_atom_site_label
_atom_site_type_symbol
_atom_site_fract_x
_atom_site_fract_y
_atom_site_fract_z
_atom_type_partial_charge
C0 C 0.06903 0.27787 0.20796 0.0
O1 O 0.08161 0.3094 0.23345 0.0
O2 O 0.17676 0.26585 0.26422 0.0
Zn3 Zn 0.18365 0.26527 0.21898 0.0
O4 O 0.18221 0.18417 0.20812 0.0
C5 C 0.31594 0.33133 0.20001 0.0
O6 O 0.30712 0.27304 0.19967 0.0
O7 O 0.10696 0.25985 0.19794 0.0
C8 C 0.13763 0.13019 0.21697 0.0
O9 O 0.09135 0.1268 0.23397 0.0
C10 C 0.21787 0.25668 0.27772 0.0
O11 O 0.2599 0.24937 0.26198 0.0
O12 O 0.26935 0.34033 0.20627 0.0
C13 C 0.84708 0.115 0.53364 0.0
O14 O 0.82161 0.11805 0.55931 0.0
O15 O 0.95508 0.22497 0.59535 0.0
Zn16 Zn 0.9654 0.23621 0.55041 0.0
O17 O 0.05064 0.24553 0.54092 0.0
C18 C 0.01288 0.36245 0.52455 0.0
O19 O 0.05238 0.34908 0.5101 0.0
O20 O 0.90229 0.15974 0.52613 0.0
C21 C 0.10138 0.28551 0.55435 0.0
O22 O 0.09909 0.32346 0.57491 0.0
C23 C 0.95542 0.18099 0.61088 0.0
O24 O 0.95782 0.13359 0.59753 0.0
O25 O 0.96839 0.31972 0.54063 0.0
C26 C 0.75091 0.87165 0.8593 0.0
O27 O 0.80011 0.92024 0.87211 0.0
O28 O 0.68947 0.92918 0.93059 0.0
Zn29 Zn 0.69126 0.93615 0.88552 0.0
O30 O 0.76962 0.01961 0.87579 0.0
C31 C 0.61953 0.99338 0.86161 0.0
O32 O 0.6738 0.03314 0.84841 0.0
O33 O 0.69538 0.8648 0.86279 0.0
C34 C 0.78674 0.06736 0.89312 0.0
O35 O 0.75345 0.06193 0.91743 0.0
C36 C 0.73551 0.93778 0.94741 0.0
O37 O 0.78628 0.9391 0.93579 0.0
O38 O 0.61428 0.94515 0.87574 0.0
C39 C 0.83553 0.66769 0.17335 0.0
O40 O 0.84569 0.68788 0.20126 0.0
O41 O 0.72381 0.65862 0.23036 0.0
Zn42 Zn 0.70371 0.63639 0.18613 0.0
O43 O 0.68515 0.70179 0.16689 0.0
C44 C 0.57158 0.54708 0.19186 0.0
O45 O 0.57388 0.59914 0.20207 0.0
O46 O 0.77891 0.6406 0.16291 0.0
C47 C 0.66419 0.73381 0.18089 0.0
O48 O 0.6509 0.72434 0.20963 0.0
C49 C 0.75332 0.71634 0.23949 0.0
O50 O 0.77953 0.76291 0.21975 0.0
O51 O 0.62295 0.54912 0.18316 0.0
C52 C 0.19779 0.8863 0.51503 0.0
O53 O 0.14585 0.88434 0.52548 0.0
O54 O 0.09769 0.76328 0.57295 0.0
Zn55 Zn 0.12145 0.75661 0.52993 0.0
O56 O 0.0496 0.74842 0.50514 0.0
C57 C 0.06725 0.62457 0.5291 0.0
O58 O 0.01844 0.63201 0.53611 0.0
O59 O 0.20208 0.83581 0.51562 0.0
C60 C 0.04479 0.74227 0.47688 0.0
O61 O 0.08972 0.74043 0.46087 0.0
C62 C 0.05552 0.77881 0.57904 0.0
O63 O 0.02919 0.79457 0.55742 0.0
O64 O 0.1221 0.67367 0.52514 0.0
C65 C 0.29254 0.19516 0.87754 0.0
O66 O 0.26776 0.17222 0.90405 0.0
O67 O 0.31565 0.08712 0.9269 0.0
Zn68 Zn 0.33834 0.10556 0.88279 0.0
O69 O 0.27406 0.02893 0.86039 0.0
C70 C 0.42023 0.05674 0.87832 0.0
O71 O 0.36661 0.00753 0.88759 0.0
O72 O 0.3301 0.17873 0.86552 0.0
C73 C 0.27333 0.02815 0.83192 0.0
O74 O 0.31579 0.07805 0.81671 0.0
C75 C 0.25809 0.04923 0.93494 0.0
O76 O 0.21244 0.02608 0.91476 0.0
O77 O 0.42316 0.11048 0.87474 0.0
C78 C 0.77533 0.90256 0.45374 0.0
O79 O 0.82755 0.90944 0.44092 0.0
O80 O 0.73026 0.79189 0.38198 0.0
Zn81 Zn 0.72519 0.7786 0.42752 0.0
O82 O 0.80399 0.77723 0.44189 0.0
C83 C 0.62763 0.64553 0.42077 0.0
O84 O 0.65708 0.65189 0.39508 0.0
O85 O 0.72276 0.85067 0.45008 0.0
C86 C 0.81009 0.72787 0.44046 0.0
O87 O 0.76282 0.67391 0.43024 0.0
C88 C 0.75863 0.7699 0.36576 0.0
O89 O 0.78887 0.74391 0.37859 0.0
O90 O 0.64655 0.69358 0.43816 0.0
C91 C 0.86031 0.76113 0.78292 0.0
O92 O 0.90392 0.80862 0.76687 0.0
O93 O 0.93605 0.72137 0.71772 0.0
Zn94 Zn 0.93625 0.70968 0.76316 0.0
O95 O 0.01238 0.78644 0.78148 0.0
C96 C 0.97608 0.61497 0.75715 0.0
O97 O 0.00617 0.64951 0.73354 0.0
O98 O 0.8599 0.70814 0.7833 0.0
C99 C 0.06873 0.79495 0.7827 0.0
O100 O 0.08054 0.75098 0.77214 0.0
C101 C 0.98899 0.75338 0.70379 0.0
O102 O 0.04259 0.78077 0.7189 0.0
O103 O 0.94119 0.62983 0.77293 0.0
C104 C 0.07159 0.76943 0.10552 0.0
O105 O 0.07614 0.78521 0.07702 0.0
O106 O 0.19304 0.90387 0.06584 0.0
Zn107 Zn 0.19353 0.88439 0.10991 0.0
O108 O 0.17246 0.94112 0.13396 0.0
C109 C 0.32308 0.96685 0.12494 0.0
O110 O 0.30192 0.00727 0.12217 0.0
O111 O 0.12105 0.79718 0.12199 0.0
C112 C 0.1673 0.93261 0.16217 0.0
O113 O 0.17597 0.88797 0.17435 0.0
C114 C 0.20683 0.95994 0.05782 0.0
O115 O 0.21641 0.00307 0.0783 0.0
O116 O 0.28444 0.90715 0.12131 0.0
C117 C 0.31415 0.1285 0.46167 0.0
O118 O 0.26256 0.12934 0.45304 0.0
O119 O 0.31907 0.24393 0.40694 0.0
Zn120 Zn 0.35852 0.25543 0.44806 0.0
O121 O 0.29988 0.26058 0.47799 0.0
C122 C 0.42757 0.3871 0.44506 0.0
O123 O 0.368 0.37463 0.44442 0.0
O124 O 0.36801 0.17978 0.46021 0.0
C125 C 0.31599 0.2795 0.50477 0.0
O126 O 0.37322 0.29494 0.51454 0.0
C127 C 0.26894 0.24781 0.40266 0.0
O128 O 0.23811 0.25415 0.4256 0.0
O129 O 0.43913 0.34123 0.4476 0.0
C130 C 0.16484 0.287 0.79918 0.0
O131 O 0.13719 0.25149 0.77546 0.0
O132 O 0.05216 0.28018 0.7477 0.0
Zn133 Zn 0.0708 0.32323 0.78834 0.0
O134 O 0.00028 0.26739 0.816 0.0
C135 C 0.01857 0.40582 0.78591 0.0
O136 O 0.96617 0.35115 0.79066 0.0
O137 O 0.14913 0.32782 0.80755 0.0
C138 C 0.00066 0.28406 0.84308 0.0
O139 O 0.04708 0.33899 0.85298 0.0
C140 C -0.00196 0.25862 0.73503 0.0
O141 O 0.95191 0.26223 0.74901 0.0
O142 O 0.07231 0.4078 0.78446 0.0
C143 C 0.83618 0.14986 0.14086 0.0
O144 O 0.83628 0.10099 0.1278 0.0
O145 O 0.73412 0.06554 0.07758 0.0
Zn146 Zn 0.71088 0.07986 0.11941 0.0
O147 O 0.69742 0.00177 0.14072 0.0
C148 C 0.5924 0.06292 0.1439 0.0
O149 O 0.61128 0.04122 0.16632 0.0
O150 O 0.78611 0.15484 0.13958 0.0
C151 C 0.64855 0.94782 0.13539 0.0
O152 O 0.60219 0.94416 0.11864 0.0
C153 C 0.69135 0.03041 0.05875 0.0
O154 O 0.63096 0.0107 0.06477 0.0
O155 O 0.62824 0.08256 0.12072 0.0
C156 C 0.95063 0.23732 0.14439 0.0
C157 C 0.89238 0.19448 0.159 0.0
C158 C 0.94864 0.2125 0.2069 0.0
C159 C 0.00711 0.25569 0.19236 0.0
N160 N 0.06173 0.32076 0.14936 0.0
N161 N 0.83268 0.15289 0.20496 0.0
C162 C 0.00737 0.27177 0.1617 0.0
C163 C 0.89032 0.18649 0.19059 0.0
N164 N 0.95188 0.24367 0.11385 0.0
N165 N 0.94911 0.19213 0.2355 0.0
H166 H 0.78908 0.13124 0.19366 0.0
H167 H 0.8277 0.15125 0.22824 0.0
H168 H 0.99053 0.20843 0.24822 0.0
H169 H 0.90913 0.15486 0.24586 0.0
H170 H 0.99387 0.26782 0.10133 0.0
H171 H 0.91054 0.22199 0.10078 0.0
H172 H 0.06378 0.33888 0.12793 0.0
H173 H 0.10367 0.34733 0.16165 0.0
C174 C 0.80569 0.99719 0.52579 0.0
C175 C 0.8158 0.05668 0.51453 0.0
C176 C 0.7907 0.01199 0.4635 0.0
C177 C 0.78017 0.95257 0.47482 0.0
N178 N 0.76316 0.88371 0.5172 0.0
N179 N 0.80361 0.11657 0.47447 0.0
C180 C 0.78234 0.94349 0.50617 0.0
C181 C 0.80375 0.06271 0.48388 0.0
N182 N 0.82304 0.99301 0.55455 0.0
N183 N 0.78972 0.02033 0.43318 0.0
H184 H 0.812 0.15397 0.48903 0.0
H185 H 0.78953 0.12183 0.4531 0.0
H186 H 0.77684 0.98315 0.4178 0.0
H187 H 0.80463 0.06453 0.42315 0.0
H188 H 0.82445 0.95336 0.56278 0.0
H189 H 0.84121 0.03098 0.5697 0.0
H190 H 0.75676 0.87273 0.54001 0.0
H191 H 0.74835 0.84363 0.50351 0.0
C192 C 0.79191 0.79559 0.85332 0.0
C193 C 0.76237 0.82773 0.84018 0.0
C194 C 0.77806 0.79437 0.79021 0.0
C195 C 0.81812 0.7733 0.80301 0.0
N196 N 0.86705 0.7575 0.84704 0.0
N197 N 0.72861 0.86014 0.79583 0.0
C198 C 0.82514 0.77361 0.83471 0.0
C199 C 0.75456 0.82674 0.80855 0.0
N200 N 0.78807 0.78623 0.8837 0.0
N201 N 0.76248 0.78313 0.76047 0.0
H202 H 0.71013 0.88384 0.80839 0.0
H203 H 0.72898 0.86783 0.77281 0.0
H204 H 0.7788 0.75913 0.74666 0.0
H205 H 0.72879 0.79188 0.75029 0.0
H206 H 0.80331 0.75789 0.89445 0.0
H207 H 0.76358 0.80158 0.89777 0.0
H208 H 0.87996 0.76452 0.86961 0.0
H209 H 0.89287 0.74149 0.83445 0.0
C210 C 0.90824 0.73857 0.13268 0.0
C211 C 0.89128 0.68727 0.15301 0.0
C212 C 0.98745 0.6828 0.13816 0.0
C213 C 0.0078 0.73854 0.12045 0.0
N214 N 0.99345 0.82726 0.1058 0.0
N215 N 0.91582 0.61267 0.177 0.0
C216 C 0.96945 0.76813 0.11869 0.0
C217 C 0.93122 0.6599 0.15626 0.0
N218 N 0.8665 0.76018 0.12711 0.0
N219 N 0.02115 0.65103 0.13707 0.0
H220 H 0.87335 0.59246 0.18939 0.0
H221 H 0.94639 0.59579 0.18309 0.0
H222 H 0.06239 0.66669 0.12404 0.0
H223 H 0.00577 0.60671 0.14706 0.0
H224 H 0.87287 0.79176 0.10976 0.0
H225 H 0.82278 0.743 0.13812 0.0
H226 H 0.97068 0.85429 0.10695 0.0
H227 H 0.03954 0.85332 0.09699 0.0
C228 C 0.30841 0.06321 0.50659 0.0
C229 C 0.30683 0.06889 0.47492 0.0
C230 C 0.25245 0.95229 0.46938 0.0
C231 C 0.24786 0.94651 0.50114 0.0
N232 N 0.286 0.99313 0.54971 0.0
N233 N 0.29531 0.02257 0.42596 0.0
C234 C 0.28112 0.00117 0.51964 0.0
C235 C 0.28497 0.01436 0.45625 0.0
N236 N 0.33248 0.1168 0.52415 0.0
N237 N 0.22251 0.89866 0.4519 0.0
H238 H 0.31953 0.06789 0.41614 0.0
H239 H 0.28506 0.98559 0.41093 0.0
H240 H 0.20109 0.85263 0.46081 0.0
H241 H 0.21694 0.89934 0.42877 0.0
H242 H 0.32816 0.11601 0.54743 0.0
H243 H 0.35521 0.1629 0.51524 0.0
H244 H 0.31338 0.0303 0.56448 0.0
H245 H 0.26658 0.94786 0.55946 0.0
C246 C 0.19673 0.17889 0.849 0.0
C247 C 0.2608 0.22064 0.85803 0.0
C248 C 0.26362 0.30686 0.82756 0.0
C249 C 0.19811 0.26625 0.82044 0.0
N250 N 0.09839 0.169 0.8301 0.0
N251 N 0.35354 0.32598 0.85919 0.0
C252 C 0.16353 0.20381 0.83283 0.0
C253 C 0.29388 0.28522 0.84823 0.0
N254 N 0.16826 0.1147 0.85474 0.0
N255 N 0.29726 0.36506 0.81381 0.0
H256 H 0.37709 0.31114 0.87394 0.0
H257 H 0.37785 0.37512 0.85542 0.0
H258 H 0.27619 0.38245 0.79895 0.0
H259 H 0.34663 0.39427 0.81551 0.0
H260 H 0.12439 0.08113 0.84568 0.0
H261 H 0.19106 0.09377 0.86597 0.0
H262 H 0.07007 0.12607 0.84137 0.0
H263 H 0.07162 0.18607 0.81925 0.0
C264 C 0.47998 0.46676 0.22208 0.0
C265 C 0.50993 0.48646 0.1936 0.0
C266 C 0.4144 0.40041 0.16939 0.0
C267 C 0.38193 0.38603 0.19747 0.0
N268 N 0.38141 0.40909 0.25032 0.0
N269 N 0.50496 0.47693 0.13964 0.0
C270 C 0.414 0.42034 0.22376 0.0
C271 C 0.47727 0.4542 0.16708 0.0
N272 N 0.51549 0.49102 0.24761 0.0
N273 N 0.38509 0.36273 0.14495 0.0
H274 H 0.55122 0.51552 0.13711 0.0
H275 H 0.48082 0.46036 0.11937 0.0
H276 H 0.33787 0.3252 0.14536 0.0
H277 H 0.40867 0.36606 0.1248 0.0
H278 H 0.49827 0.47414 0.26911 0.0
H279 H 0.56449 0.52377 0.24715 0.0
H280 H 0.40012 0.43778 0.26929 0.0
H281 H 0.33373 0.37386 0.25294 0.0
C282 C 0.05135 0.52911 0.49961 0.0
C283 C 0.05793 0.55924 0.52782 0.0
C284 C 0.03933 0.462 0.5538 0.0
C285 C 0.02652 0.42965 0.5257 0.0
N286 N 0.01149 0.42929 0.47218 0.0
N287 N 0.05049 0.55324 0.58188 0.0
C288 C 0.03054 0.46249 0.49863 0.0
C289 C 0.04947 0.52526 0.55494 0.0
N290 N 0.06494 0.5642 0.4738 0.0
N291 N 0.04535 0.43378 0.57924 0.0
H292 H 0.06175 0.60086 0.58391 0.0
H293 H 0.03615 0.52812 0.60206 0.0
H294 H 0.03924 0.38791 0.57966 0.0
H295 H 0.06215 0.4579 0.59954 0.0
H296 H 0.06772 0.54692 0.45272 0.0
H297 H 0.07824 0.61254 0.47368 0.0
H298 H 0.00689 0.44879 0.45216 0.0
H299 H 0.99474 0.38027 0.47071 0.0
C300 C 0.49472 0.04189 0.84424 0.0
C301 C 0.4765 0.04872 0.87377 0.0
C302 C 0.55685 0.02633 0.89493 0.0
C303 C 0.57017 0.01235 0.86559 0.0
N304 N 0.54885 0.00132 0.81245 0.0
N305 N 0.48526 0.0425 0.92744 0.0
C306 C 0.53876 0.01926 0.8402 0.0
C307 C 0.50621 0.03956 0.89917 0.0
N308 N 0.46957 0.05667 0.82014 0.0
N309 N 0.59453 0.02997 0.91859 0.0
H310 H 0.45141 0.05653 0.93166 0.0
H311 H 0.49869 0.02755 0.94662 0.0
H312 H 0.63247 0.02112 0.91663 0.0
H313 H 0.59201 0.0473 0.93971 0.0
H314 H 0.48539 0.05896 0.79815 0.0
H315 H 0.43572 0.07137 0.82232 0.0
H316 H 0.52266 -0.00134 0.79345 0.0
H317 H 0.58047 0.98425 0.80875 0.0
C318 C 0.57616 0.55038 0.45564 0.0
C319 C 0.57371 0.58183 0.4291 0.0
C320 C 0.47997 0.48318 0.412 0.0
C321 C 0.47946 0.45321 0.43944 0.0
N322 N 0.51933 0.46098 0.48973 0.0
N323 N 0.51468 0.58292 0.38573 0.0
C324 C 0.52536 0.48755 0.46197 0.0
C325 C 0.52299 0.54956 0.40837 0.0
N326 N 0.62817 0.57903 0.4741 0.0
N327 N 0.44112 0.44768 0.3889 0.0
H328 H 0.54396 0.6322 0.38305 0.0
H329 H 0.47495 0.56321 0.37167 0.0
H330 H 0.41022 0.39841 0.39032 0.0
H331 H 0.4441 0.46577 0.36736 0.0
H332 H 0.6361 0.55524 0.49158 0.0
H333 H 0.66602 0.62524 0.47074 0.0
H334 H 0.54694 0.48643 0.50813 0.0
H335 H 0.48315 0.41483 0.49509 0.0
C336 C 0.97412 0.51331 0.74344 0.0
C337 C 0.98513 0.56046 0.76544 0.0
C338 C 0.01817 0.50552 0.80144 0.0
C339 C 0.01272 0.46225 0.77851 0.0
N340 N 0.99601 0.43046 0.72647 0.0
N341 N 0.02788 0.6078 0.81391 0.0
C342 C 0.994 0.46795 0.7491 0.0
C343 C 0.00973 0.55826 0.79414 0.0
N344 N 0.94175 0.50993 0.71772 0.0
N345 N 0.02998 0.49539 0.83033 0.0
H346 H 0.02269 0.6474 0.80962 0.0
H347 H 0.05292 0.61227 0.8336 0.0
H348 H 0.03871 0.45859 0.83627 0.0
H349 H 0.02681 0.52064 0.84866 0.0
H350 H 0.92674 0.47282 0.7022 0.0
H351 H 0.92389 0.54056 0.71334 0.0
H352 H 0.98944 0.43702 0.70393 0.0
H353 H 0.01003 0.3964 0.72987 0.0
C354 C 0.41312 0.98132 0.15849 0.0
C355 C 0.39231 0.99284 0.13064 0.0
C356 C 0.50357 0.06979 0.11706 0.0
C357 C 0.52493 0.05122 0.14274 0.0
N358 N 0.49949 0.01824 0.19444 0.0
N359 N 0.41765 0.04429 0.08208 0.0
C360 C 0.47963 0.01482 0.16545 0.0
C361 C 0.43752 0.03648 0.10967 0.0
N362 N 0.36945 0.93843 0.17832 0.0
N363 N 0.54549 0.1232 0.1014 0.0
H364 H 0.36974 0.02111 0.07572 0.0
H365 H 0.44899 0.06926 0.06457 0.0
H366 H 0.59195 0.15384 0.10887 0.0
H367 H 0.53191 0.14243 0.08391 0.0
H368 H 0.38215 0.92204 0.19724 0.0
H369 H 0.3202 0.91563 0.17484 0.0
H370 H 0.46858 0.99645 0.21248 0.0
H371 H 0.54574 0.05129 0.20125 0.0
C372 C 0.09517 0.97263 0.17906 0.0
C373 C 0.15506 0.97539 0.18108 0.0
C374 C 0.19394 0.06728 0.21463 0.0
C375 C 0.13893 0.07194 0.20791 0.0
N376 N 0.03829 0.03153 0.18179 0.0
N377 N 0.26376 0.02713 0.19917 0.0
C378 C 0.08919 0.02475 0.18996 0.0
C379 C 0.20497 0.02273 0.19872 0.0
N380 N 0.044 0.91973 0.1671 0.0
N381 N 0.23473 0.10444 0.23673 0.0
H382 H 0.27359 0.99472 0.18817 0.0
H383 H 0.30404 0.06552 0.2087 0.0
H384 H 0.22622 0.13555 0.2496 0.0
H385 H 0.27256 0.09922 0.24451 0.0
H386 H -0.00244 0.91229 0.16737 0.0
H387 H 0.04709 0.88019 0.15979 0.0
H388 H 0.00454 0.00228 0.16598 0.0
H389 H 0.03219 0.06934 0.18898 0.0
C390 C 0.21625 0.34453 0.53739 0.0
C391 C 0.16198 0.28696 0.54728 0.0
C392 C 0.21501 0.22603 0.53429 0.0
C393 C 0.26893 0.28338 0.52441 0.0
N394 N 0.32829 0.3985 0.52287 0.0
N395 N 0.11624 0.17668 0.56273 0.0
C396 C 0.27219 0.3432 0.52839 0.0
C397 C 0.1635 0.22884 0.54817 0.0
N398 N 0.21286 0.39921 0.53434 0.0
N399 N 0.21211 0.16861 0.52936 0.0
H400 H 0.07765 0.17684 0.57327 0.0
H401 H 0.11817 0.13516 0.56679 0.0
H402 H 0.25039 0.16507 0.52058 0.0
H403 H 0.17078 0.12453 0.53239 0.0
H404 H 0.2482 0.44041 0.52391 0.0
H405 H 0.17252 0.40234 0.53996 0.0
H406 H 0.33559 0.44376 0.52816 0.0
H407 H 0.36959 0.39889 0.51545 0.0
C408 C 0.89193 0.23722 0.86562 0.0
C409 C 0.95112 0.23851 0.86354 0.0
C410 C 0.90485 0.13198 0.88541 0.0
C411 C 0.84429 0.12858 0.88588 0.0
N412 N 0.78081 0.18043 0.8817 0.0
N413 N 0.01977 0.19839 0.87905 0.0
C414 C 0.83816 0.1824 0.878 0.0
C415 C 0.95942 0.18941 0.87602 0.0
N416 N 0.88711 0.28756 0.85464 0.0
N417 N 0.90976 0.07966 0.89298 0.0
H418 H 0.0605 0.24058 0.87242 0.0
H419 H 0.03014 0.16705 0.89047 0.0
H420 H 0.87158 0.03771 0.90147 0.0
H421 H 0.95076 0.07639 0.88948 0.0
H422 H 0.84423 0.28743 0.85192 0.0
H423 H 0.92705 0.33002 0.84764 0.0
H424 H 0.77448 0.21976 0.87905 0.0
H425 H 0.73927 0.13987 0.88891 0.0
C426 C 0.59766 0.84132 0.16115 0.0
C427 C 0.64893 0.88929 0.14423 0.0
C428 C 0.71011 0.83428 0.15025 0.0
C429 C 0.65732 0.78415 0.16561 0.0
N430 N 0.54508 0.73174 0.17854 0.0
N431 N 0.74459 0.92083 0.11472 0.0
C432 C 0.59917 0.78507 0.16883 0.0
C433 C 0.70227 0.88246 0.13624 0.0
N434 N 0.54917 0.8506 0.17114 0.0
N435 N 0.76883 0.83854 0.15055 0.0
H436 H 0.73938 0.95541 0.10307 0.0
H437 H 0.7807 0.91345 0.10612 0.0
H438 H 0.77803 0.80605 0.16166 0.0
H439 H 0.81007 0.87811 0.14231 0.0
H440 H 0.51429 0.82002 0.1863 0.0
H441 H 0.54682 0.89174 0.16645 0.0
H442 H 0.50008 0.72791 0.17865 0.0
H443 H 0.54397 0.6889 0.18341 0.0
C444 C 0.87041 0.68267 0.46649 0.0
C445 C 0.87134 0.73153 0.4484 0.0
C446 C 0.98855 0.78664 0.44685 0.0
C447 C 0.98658 0.73509 0.46284 0.0
N448 N 0.9262 0.6267 0.48065 0.0
N449 N 0.9313 0.82253 0.41543 0.0
C450 C 0.92755 0.68062 0.47027 0.0
C451 C 0.93039 0.7815 0.43681 0.0
N452 N 0.81607 0.64052 0.48158 0.0
N453 N 0.0456 0.84147 0.44224 0.0
H454 H 0.89029 0.82049 0.40685 0.0
H455 H 0.97274 0.85499 0.40406 0.0
H456 H 0.08936 0.84637 0.44865 0.0
H457 H 0.04904 0.88351 0.43403 0.0
H458 H 0.81489 0.60792 0.49725 0.0
H459 H 0.7741 0.6429 0.48116 0.0
H460 H 0.88394 0.58355 0.48403 0.0
H461 H 0.96754 0.6233 0.48252 0.0
C462 C 0.22202 0.9114 0.82224 0.0
C463 C 0.22481 0.97036 0.81638 0.0
C464 C 0.13001 0.91553 0.78472 0.0
C465 C 0.12176 0.85563 0.79448 0.0
N466 N 0.15327 0.79764 0.82813 0.0
N467 N 0.17669 0.02855 0.79538 0.0
C468 C 0.16601 0.85376 0.81476 0.0
C469 C 0.17761 0.97261 0.79847 0.0
N470 N 0.27374 0.91055 0.83409 0.0
N471 N 0.09471 0.91855 0.7615 0.0
H472 H 0.21131 0.07177 0.80466 0.0
H473 H 0.13872 0.03097 0.78563 0.0
H474 H 0.06048 0.87852 0.75001 0.0
H475 H 0.10394 0.96144 0.75159 0.0
H476 H 0.2761 0.86878 0.83649 0.0
H477 H 0.31702 0.95236 0.83794 0.0
H478 H 0.18155 0.79529 0.84517 0.0
H479 H 0.11082 0.7547 0.8248 0.0
C480 C 0.25558 0.30646 0.35942 0.0
C481 C 0.24736 0.24845 0.37172 0.0
C482 C 0.20246 0.1933 0.32414 0.0
C483 C 0.219 0.25288 0.31078 0.0
N484 N 0.26363 0.36698 0.31452 0.0
N485 N 0.21472 0.13675 0.36626 0.0
C486 C 0.24531 0.30962 0.32818 0.0
C487 C 0.22103 0.19176 0.35423 0.0
N488 N 0.27365 0.35861 0.37751 0.0
N489 N 0.16743 0.13812 0.30817 0.0
H490 H 0.22423 0.13276 0.38874 0.0
H491 H 0.20331 0.09597 0.35369 0.0
H492 H 0.1517 0.138 0.28638 0.0
H493 H 0.14876 0.0925 0.31724 0.0
H494 H 0.27367 0.39988 0.37068 0.0
H495 H 0.28465 0.3594 0.40016 0.0
H496 H 0.29092 0.41112 0.32495 0.0
H497 H 0.25456 0.37079 0.29196 0.0
C498 C 0.02885 0.24093 0.6528 0.0
C499 C 0.96792 0.19201 0.64347 0.0
C500 C 0.93133 0.17684 0.69572 0.0
C501 C 0.98836 0.23402 0.70376 0.0
N502 N 0.0853 0.32849 0.68713 0.0
N503 N 0.85882 0.11461 0.65554 0.0
C504 C 0.03578 0.26821 0.68161 0.0
C505 C 0.91835 0.15999 0.66481 0.0
N506 N 0.08056 0.2603 0.63437 0.0
N507 N 0.89101 0.13741 0.71753 0.0
H508 H 0.84869 0.09983 0.6332 0.0
H509 H 0.81893 0.09474 0.66965 0.0
H510 H 0.90052 0.14637 0.7404 0.0
H511 H 0.85177 0.09259 0.71298 0.0
H512 H 0.12718 0.29254 0.64107 0.0
H513 H 0.07732 0.23758 0.614 0.0
H514 H 0.11748 0.35682 0.67049 0.0
H515 H 0.0899 0.35333 0.70701 0.0
C516 C 0.67812 0.93845 0.02677 0.0
C517 C 0.70875 0.00557 0.03191 0.0
C518 C 0.77422 0.02347 0.98684 0.0
C519 C 0.73503 0.95806 0.97883 0.0
N520 N 0.64835 0.85279 0.99069 0.0
N521 N 0.78123 0.11298 0.01481 0.0
C522 C 0.68669 0.91536 -0.00126 0.0
C523 C 0.75619 0.04841 0.01162 0.0
N524 N 0.64312 0.89665 0.0491 0.0
N525 N 0.82838 0.06208 0.97079 0.0
H526 H 0.76811 0.13341 0.03212 0.0
H527 H 0.81037 0.14607 -0.00131 0.0
H528 H 0.84349 0.04616 0.95248 0.0
H529 H 0.8618 0.10832 0.97749 0.0
H530 H 0.62507 0.84747 0.04767 0.0
H531 H 0.63792 0.91155 0.07036 0.0
H532 H 0.60703 0.82133 0.00243 0.0
H533 H 0.65631 0.83318 0.97132 0.0
C534 C 0.69462 0.70824 0.28806 0.0
C535 C 0.7534 0.73218 0.27184 0.0
C536 C 0.81272 0.79446 0.31602 0.0
C537 C 0.75478 0.76763 0.33256 0.0
N538 N 0.63945 0.71161 0.3332 0.0
N539 N 0.86893 0.7904 0.27154 0.0
C540 C 0.69535 0.72833 0.31824 0.0
C541 C 0.8126 0.77404 0.28601 0.0
N542 N 0.6381 0.66446 0.27514 0.0
N543 N 0.86766 0.84113 0.32899 0.0
H544 H 0.87116 0.7743 0.25006 0.0
H545 H 0.91363 0.81501 0.28167 0.0
H546 H 0.86854 0.85783 0.35076 0.0
H547 H 0.91069 0.86771 0.31751 0.0
H548 H 0.59557 0.63777 0.28697 0.0
H549 H 0.63338 0.65095 0.25275 0.0
H550 H 0.59458 0.68944 0.32318 0.0
H551 H 0.63756 0.725 0.35522 0.0
C552 C 0.05093 0.82775 0.628 0.0
C553 C 0.03103 0.77254 0.61 0.0
C554 C 0.97269 0.70337 0.65252 0.0
C555 C 0.99269 0.75865 0.67066 0.0
N556 N 0.03557 0.87251 0.6741 0.0
N557 N 0.95923 0.65988 0.60223 0.0
C558 C 0.02702 0.82066 0.65782 0.0
C559 C 0.98751 0.71093 0.62137 0.0
N560 N 0.09435 0.8866 0.61696 0.0
N561 N 0.94275 0.64381 0.66518 0.0
H562 H 0.96821 0.66412 0.57919 0.0
H563 H 0.92235 0.61493 0.6086 0.0
H564 H 0.9286 0.63547 0.68759 0.0
H565 H 0.93525 0.60278 0.65385 0.0
H566 H 0.11629 0.92785 0.63007 0.0
H567 H 0.11183 0.89359 0.59499 0.0
H568 H 0.0553 0.91846 0.66527 0.0
H569 H 0.01694 0.8683 0.69572 0.0
C570 C 0.18319 0.00738 0.01302 0.0
C571 C 0.21666 0.9786 0.02573 0.0
C572 C 0.27032 0.98862 0.97757 0.0
C573 C 0.24345 0.02489 0.96615 0.0
N574 N 0.17988 0.07552 0.97395 0.0
N575 N 0.30034 0.95124 0.02146 0.0
C576 C 0.20119 0.036 0.9841 0.0
C577 C 0.26238 0.97157 0.00839 0.0
N578 N 0.13261 0.00522 0.02812 0.0
N579 N 0.30096 0.96776 0.95869 0.0
H580 H 0.2965 0.93783 0.04392 0.0
H581 H 0.33964 0.95304 0.01065 0.0
H582 H 0.30536 0.97697 0.93574 0.0
H583 H 0.31567 0.9356 0.96513 0.0
H584 H 0.10234 0.01966 0.01875 0.0
H585 H 0.11693 0.98309 0.04897 0.0
H586 H 0.1547 0.09106 0.98732 0.0
H587 H 0.19192 0.09718 0.95286 0.0
loop_
_geom_bond_atom_site_label_1
_geom_bond_atom_site_label_2
_geom_bond_distance
_geom_bond_site_symmetry_2
_ccdc_geom_bond_type
C0 O1 1.160 . S
C0 O7 1.185 . S
O1 C0 1.160 . S
O2 Zn3 1.899 . S
O2 C10 1.284 . S
Zn3 O2 1.899 . S
Zn3 O4 2.032 . S
Zn3 O7 2.086 . S
Zn3 O12 1.977 . S
O4 Zn3 2.032 . S
O4 C8 1.278 . S
C5 O6 1.203 . S
C5 O12 1.267 . S
O6 C5 1.203 . S
O7 C0 1.185 . S
O7 Zn3 2.086 . S
C8 O4 1.278 . S
C8 O9 1.211 . S
O9 C8 1.211 . S
C10 O2 1.284 . S
C10 O11 1.273 . S
O11 C10 1.273 . S
O12 Zn3 1.977 . S
O12 C5 1.267 . S
C13 O14 1.160 . S
C13 O20 1.185 . S
O14 C13 1.160 . S
O15 Zn16 1.899 . S
O15 C23 1.284 . S
Zn16 O15 1.899 . S
Zn16 O17 2.032 . S
Zn16 O20 2.086 . S
Zn16 O25 1.977 . S
O17 Zn16 2.032 . S
O17 C21 1.278 1_655 S
C18 O19 1.203 . S
C18 O25 1.267 . S
O19 C18 1.203 . S
O20 C13 1.185 . S
O20 Zn16 2.086 . S
C21 O17 1.278 1_455 S
C21 O22 1.211 . S
O22 C21 1.211 . S
C23 O15 1.284 . S
C23 O24 1.273 1_655 S
O24 C23 1.273 1_455 S
O25 Zn16 1.977 . S
O25 C18 1.267 . S
C26 O27 1.160 . S
C26 O33 1.185 . S
O27 C26 1.160 . S
O28 Zn29 1.899 . S
O28 C36 1.284 . S
Zn29 O28 1.899 . S
Zn29 O30 2.032 . S
Zn29 O33 2.086 . S
Zn29 O38 1.977 . S
O30 Zn29 2.032 . S
O30 C34 1.278 1_565 S
C31 O32 1.203 . S
C31 O38 1.267 . S
O32 C31 1.203 . S
O33 C26 1.185 . S
O33 Zn29 2.086 . S
C34 O30 1.278 1_545 S
C34 O35 1.211 . S
O35 C34 1.211 . S
C36 O28 1.284 . S
C36 O37 1.273 1_565 S
O37 C36 1.273 1_545 S
O38 Zn29 1.977 . S
O38 C31 1.267 . S
C39 O40 1.160 . S
C39 O46 1.185 . S
O40 C39 1.160 . S
O41 Zn42 1.899 . S
O41 C49 1.284 . S
Zn42 O41 1.899 . S
Zn42 O43 2.032 . S
Zn42 O46 2.086 . S
Zn42 O51 1.977 . S
O43 Zn42 2.032 . S
O43 C47 1.278 . S
C44 O45 1.203 . S
C44 O51 1.267 . S
O45 C44 1.203 . S
O46 C39 1.185 . S
O46 Zn42 2.086 . S
C47 O43 1.278 . S
C47 O48 1.211 . S
O48 C47 1.211 . S
C49 O41 1.284 . S
C49 O50 1.273 . S
O50 C49 1.273 . S
O51 Zn42 1.977 . S
O51 C44 1.267 . S
C52 O53 1.160 . S
C52 O59 1.185 . S
O53 C52 1.160 . S
O54 Zn55 1.899 . S
O54 C62 1.284 . S
Zn55 O54 1.899 . S
Zn55 O56 2.032 . S
Zn55 O59 2.086 . S
Zn55 O64 1.977 . S
O56 Zn55 2.032 . S
O56 C60 1.278 1_455 S
C57 O58 1.203 . S
C57 O64 1.267 . S
O58 C57 1.203 . S
O59 C52 1.185 . S
O59 Zn55 2.086 . S
C60 O56 1.278 1_655 S
C60 O61 1.211 . S
O61 C60 1.211 . S
C62 O54 1.284 . S
C62 O63 1.273 1_455 S
O63 C62 1.273 1_655 S
O64 Zn55 1.977 . S
O64 C57 1.267 . S
C65 O66 1.160 . S
C65 O72 1.185 . S
O66 C65 1.160 . S
O67 Zn68 1.899 . S
O67 C75 1.284 . S
Zn68 O67 1.899 . S
Zn68 O69 2.032 . S
Zn68 O72 2.086 . S
Zn68 O77 1.977 . S
O69 Zn68 2.032 . S
O69 C73 1.278 1_545 S
C70 O71 1.203 . S
C70 O77 1.267 . S
O71 C70 1.203 . S
O72 C65 1.185 . S
O72 Zn68 2.086 . S
C73 O69 1.278 1_565 S
C73 O74 1.211 . S
O74 C73 1.211 . S
C75 O67 1.284 . S
C75 O76 1.273 1_545 S
O76 C75 1.273 1_565 S
O77 Zn68 1.977 . S
O77 C70 1.267 . S
C78 O79 1.160 . S
C78 O85 1.185 . S
O79 C78 1.160 . S
O80 Zn81 1.899 . S
O80 C88 1.284 . S
Zn81 O80 1.899 . S
Zn81 O82 2.032 . S
Zn81 O85 2.086 . S
Zn81 O90 1.977 . S
O82 Zn81 2.032 . S
O82 C86 1.278 . S
C83 O84 1.203 . S
C83 O90 1.267 . S
O84 C83 1.203 . S
O85 C78 1.185 . S
O85 Zn81 2.086 . S
C86 O82 1.278 . S
C86 O87 1.211 . S
O87 C86 1.211 . S
C88 O80 1.284 . S
C88 O89 1.273 . S
O89 C88 1.273 . S
O90 Zn81 1.977 . S
O90 C83 1.267 . S
C91 O92 1.160 . S
C91 O98 1.185 . S
O92 C91 1.160 . S
O93 Zn94 1.899 . S
O93 C101 1.284 . S
Zn94 O93 1.899 . S
Zn94 O95 2.032 . S
Zn94 O98 2.086 . S
Zn94 O103 1.977 . S
O95 Zn94 2.032 . S
O95 C99 1.278 1_655 S
C96 O97 1.203 . S
C96 O103 1.267 . S
O97 C96 1.203 . S
O98 C91 1.185 . S
O98 Zn94 2.086 . S
C99 O95 1.278 1_455 S
C99 O100 1.211 . S
O100 C99 1.211 . S
C101 O93 1.284 . S
C101 O102 1.273 1_655 S
O102 C101 1.273 1_455 S
O103 Zn94 1.977 . S
O103 C96 1.267 . S
C104 O105 1.160 . S
C104 O111 1.185 . S
O105 C104 1.160 . S
O106 Zn107 1.899 . S
O106 C114 1.284 . S
Zn107 O106 1.899 . S
Zn107 O108 2.032 . S
Zn107 O111 2.086 . S
Zn107 O116 1.977 . S
O108 Zn107 2.032 . S
O108 C112 1.278 1_565 S
C109 O110 1.203 . S
C109 O116 1.267 . S
O110 C109 1.203 . S
O111 C104 1.185 . S
O111 Zn107 2.086 . S
C112 O108 1.278 1_545 S
C112 O113 1.211 . S
O113 C112 1.211 . S
C114 O106 1.284 . S
C114 O115 1.273 1_565 S
O115 C114 1.273 1_545 S
O116 Zn107 1.977 . S
O116 C109 1.267 . S
C117 O118 1.160 . S
C117 O124 1.185 . S
O118 C117 1.160 . S
O119 Zn120 1.899 . S
O119 C127 1.284 . S
Zn120 O119 1.899 . S
Zn120 O121 2.032 . S
Zn120 O124 2.086 . S
Zn120 O129 1.977 . S
O121 Zn120 2.032 . S
O121 C125 1.278 . S
C122 O123 1.203 . S
C122 O129 1.267 . S
O123 C122 1.203 . S
O124 C117 1.185 . S
O124 Zn120 2.086 . S
C125 O121 1.278 . S
C125 O126 1.211 . S
O126 C125 1.211 . S
C127 O119 1.284 . S
C127 O128 1.273 . S
O128 C127 1.273 . S
O129 Zn120 1.977 . S
O129 C122 1.267 . S
C130 O131 1.160 . S
C130 O137 1.185 . S
O131 C130 1.160 . S
O132 Zn133 1.899 . S
O132 C140 1.284 . S
Zn133 O132 1.899 . S
Zn133 O134 2.032 . S
Zn133 O137 2.086 . S
Zn133 O142 1.977 . S
O134 Zn133 2.032 . S
O134 C138 1.278 1_455 S
C135 O136 1.203 . S
C135 O142 1.267 . S
O136 C135 1.203 . S
O137 C130 1.185 . S
O137 Zn133 2.086 . S
C138 O134 1.278 1_655 S
C138 O139 1.211 . S
O139 C138 1.211 . S
C140 O132 1.284 . S
C140 O141 1.273 1_455 S
O141 C140 1.273 1_655 S
O142 Zn133 1.977 . S
O142 C135 1.267 . S
C143 O144 1.160 . S
C143 O150 1.185 . S
O144 C143 1.160 . S
O145 Zn146 1.899 . S
O145 C153 1.284 . S
Zn146 O145 1.899 . S
Zn146 O147 2.032 . S
Zn146 O150 2.086 . S
Zn146 O155 1.977 . S
O147 Zn146 2.032 . S
O147 C151 1.278 1_545 S
C148 O149 1.203 . S
C148 O155 1.267 . S
O149 C148 1.203 . S
O150 C143 1.185 . S
O150 Zn146 2.086 . S
C151 O147 1.278 1_565 S
C151 O152 1.211 . S
O152 C151 1.211 . S
C153 O145 1.284 . S
C153 O154 1.273 1_545 S
O154 C153 1.273 1_565 S
O155 Zn146 1.977 . S
O155 C148 1.267 . S
C156 C157 1.363 . S
C156 C162 1.379 1_655 S
C156 N164 1.356 . S
C157 C156 1.363 . S
C157 C163 1.363 . S
C158 C159 1.363 . S
C158 C163 1.379 1_455 S
C158 N165 1.356 . S
C159 C158 1.363 . S
C159 C162 1.363 . S
N160 C162 1.356 . S
N160 H172 0.984 . S
N160 H173 0.985 . S
N161 C163 1.356 . S
N161 H166 0.984 . S
N161 H167 0.985 . S
C162 C156 1.379 1_455 S
C162 C159 1.363 . S
C162 N160 1.356 . S
C163 C157 1.363 . S
C163 C158 1.379 1_655 S
C163 N161 1.356 . S
N164 C156 1.356 . S
N164 H170 0.984 . S
N164 H171 0.984 . S
N165 C158 1.356 . S
N165 H168 0.984 . S
N165 H169 0.985 . S
H166 N161 0.984 . S
H167 N161 0.985 . S
H168 N165 0.984 . S
H169 N165 0.985 . S
H170 N164 0.984 . S
H171 N164 0.984 . S
H172 N160 0.984 . S
H173 N160 0.985 . S
C174 C175 1.363 . S
C174 C180 1.379 1_545 S
C174 N182 1.356 . S
C175 C174 1.363 . S
C175 C181 1.363 . S
C176 C177 1.363 . S
C176 C181 1.379 1_565 S
C176 N183 1.356 . S
C177 C176 1.363 . S
C177 C180 1.363 . S
N178 C180 1.356 . S
N178 H190 0.984 . S
N178 H191 0.985 . S
N179 C181 1.356 . S
N179 H184 0.984 . S
N179 H185 0.985 . S
C180 C174 1.379 1_565 S
C180 C177 1.363 . S
C180 N178 1.356 . S
C181 C175 1.363 . S
C181 C176 1.379 1_545 S
C181 N179 1.356 . S
N182 C174 1.356 . S
N182 H188 0.984 . S
N182 H189 0.984 . S
N183 C176 1.356 . S
N183 H186 0.984 . S
N183 H187 0.985 . S
H184 N179 0.984 . S
H185 N179 0.985 . S
H186 N183 0.984 . S
H187 N183 0.985 . S
H188 N182 0.984 . S
H189 N182 0.984 . S
H190 N178 0.984 . S
H191 N178 0.985 . S
C192 C193 1.363 . S
C192 C198 1.379 . S
C192 N200 1.356 . S
C193 C192 1.363 . S
C193 C199 1.363 . S
C194 C195 1.363 . S
C194 C199 1.379 . S
C194 N201 1.356 . S
C195 C194 1.363 . S
C195 C198 1.363 . S
N196 C198 1.356 . S
N196 H208 0.984 . S
N196 H209 0.985 . S
N197 C199 1.356 . S
N197 H202 0.984 . S
N197 H203 0.985 . S
C198 C192 1.379 . S
C198 C195 1.363 . S
C198 N196 1.356 . S
C199 C193 1.363 . S
C199 C194 1.379 . S
C199 N197 1.356 . S
N200 C192 1.356 . S
N200 H206 0.984 . S
N200 H207 0.984 . S
N201 C194 1.356 . S
N201 H204 0.984 . S
N201 H205 0.985 . S
H202 N197 0.984 . S
H203 N197 0.985 . S
H204 N201 0.984 . S
H205 N201 0.985 . S
H206 N200 0.984 . S
H207 N200 0.984 . S
H208 N196 0.984 . S
H209 N196 0.985 . S
C210 C211 1.363 . S
C210 C216 1.379 1_655 S
C210 N218 1.356 . S
C211 C210 1.363 . S
C211 C217 1.363 . S
C212 C213 1.363 . S
C212 C217 1.379 1_455 S
C212 N219 1.356 . S
C213 C212 1.363 . S
C213 C216 1.363 . S
N214 C216 1.356 . S
N214 H226 0.984 . S
N214 H227 0.985 . S
N215 C217 1.356 . S
N215 H220 0.984 . S
N215 H221 0.985 . S
C216 C210 1.379 1_455 S
C216 C213 1.363 . S
C216 N214 1.356 . S
C217 C211 1.363 . S
C217 C212 1.379 1_655 S
C217 N215 1.356 . S
N218 C210 1.356 . S
N218 H224 0.984 . S
N218 H225 0.984 . S
N219 C212 1.356 . S
N219 H222 0.984 . S
N219 H223 0.985 . S
H220 N215 0.984 . S
H221 N215 0.985 . S
H222 N219 0.984 . S
H223 N219 0.985 . S
H224 N218 0.984 . S
H225 N218 0.984 . S
H226 N214 0.984 . S
H227 N214 0.985 . S
C228 C229 1.363 . S
C228 C234 1.379 1_545 S
C228 N236 1.356 . S
C229 C228 1.363 . S
C229 C235 1.363 . S
C230 C231 1.363 . S
C230 C235 1.379 1_565 S
C230 N237 1.356 . S
C231 C230 1.363 . S
C231 C234 1.363 . S
N232 C234 1.356 . S
N232 H244 0.984 . S
N232 H245 0.985 . S
N233 C235 1.356 . S
N233 H238 0.984 . S
N233 H239 0.985 . S
C234 C228 1.379 1_565 S
C234 C231 1.363 . S
C234 N232 1.356 . S
C235 C229 1.363 . S
C235 C230 1.379 1_545 S
C235 N233 1.356 . S
N236 C228 1.356 . S
N236 H242 0.984 . S
N236 H243 0.984 . S
N237 C230 1.356 . S
N237 H240 0.984 . S
N237 H241 0.985 . S
H238 N233 0.984 . S
H239 N233 0.985 . S
H240 N237 0.984 . S
H241 N237 0.985 . S
H242 N236 0.984 . S
H243 N236 0.984 . S
H244 N232 0.984 . S
H245 N232 0.985 . S
C246 C247 1.363 . S
C246 C252 1.379 . S
C246 N254 1.356 . S
C247 C246 1.363 . S
C247 C253 1.363 . S
C248 C249 1.363 . S
C248 C253 1.379 . S
C248 N255 1.356 . S
C249 C248 1.363 . S
C249 C252 1.363 . S
N250 C252 1.356 . S
N250 H262 0.984 . S
N250 H263 0.985 . S
N251 C253 1.356 . S
N251 H256 0.984 . S
N251 H257 0.985 . S
C252 C246 1.379 . S
C252 C249 1.363 . S
C252 N250 1.356 . S
C253 C247 1.363 . S
C253 C248 1.379 . S
C253 N251 1.356 . S
N254 C246 1.356 . S
N254 H260 0.984 . S
N254 H261 0.984 . S
N255 C248 1.356 . S
N255 H258 0.984 . S
N255 H259 0.985 . S
H256 N251 0.984 . S
H257 N251 0.985 . S
H258 N255 0.984 . S
H259 N255 0.985 . S
H260 N254 0.984 . S
H261 N254 0.984 . S
H262 N250 0.984 . S
H263 N250 0.985 . S
C264 C265 1.363 . S
C264 C270 1.379 . S
C264 N272 1.356 . S
C265 C264 1.363 . S
C265 C271 1.363 . S
C266 C267 1.363 . S
C266 C271 1.379 . S
C266 N273 1.356 . S
C267 C266 1.363 . S
C267 C270 1.363 . S
N268 C270 1.356 . S
N268 H280 0.984 . S
N268 H281 0.985 . S
N269 C271 1.356 . S
N269 H274 0.984 . S
N269 H275 0.985 . S
C270 C264 1.379 . S
C270 C267 1.363 . S
C270 N268 1.356 . S
C271 C265 1.363 . S
C271 C266 1.379 . S
C271 N269 1.356 . S
N272 C264 1.356 . S
N272 H278 0.984 . S
N272 H279 0.984 . S
N273 C266 1.356 . S
N273 H276 0.984 . S
N273 H277 0.985 . S
H274 N269 0.984 . S
H275 N269 0.985 . S
H276 N273 0.984 . S
H277 N273 0.985 . S
H278 N272 0.984 . S
H279 N272 0.984 . S
H280 N268 0.984 . S
H281 N268 0.985 . S
C282 C283 1.363 1_655 S
C282 C288 1.379 . S
C282 N290 1.356 1_655 S
C283 C282 1.363 1_455 S
C283 C289 1.363 . S
C284 C285 1.363 1_455 S
C284 C289 1.379 . S
C284 N291 1.356 1_455 S
C285 C284 1.363 1_655 S
C285 C288 1.363 . S
N286 C288 1.356 . S
N286 H298 0.984 . S
N286 H299 0.985 . S
N287 C289 1.356 . S
N287 H292 0.984 . S
N287 H293 0.985 . S
C288 C282 1.379 . S
C288 C285 1.363 . S
C288 N286 1.356 . S
C289 C283 1.363 . S
C289 C284 1.379 . S
C289 N287 1.356 . S
N290 C282 1.356 1_455 S
N290 H296 0.984 1_455 S
N290 H297 0.984 . S
N291 C284 1.356 1_655 S
N291 H294 0.984 . S
N291 H295 0.985 1_655 S
H292 N287 0.984 . S
H293 N287 0.985 . S
H294 N291 0.984 . S
H295 N291 0.985 1_455 S
H296 N290 0.984 1_655 S
H297 N290 0.984 . S
H298 N286 0.984 . S
H299 N286 0.985 . S
C300 C301 1.363 1_565 S
C300 C306 1.379 . S
C300 N308 1.356 1_565 S
C301 C300 1.363 1_545 S
C301 C307 1.363 . S
C302 C303 1.363 1_545 S
C302 C307 1.379 . S
C302 N309 1.356 1_545 S
C303 C302 1.363 1_565 S
C303 C306 1.363 . S
N304 C306 1.356 . S
N304 H316 0.984 . S
N304 H317 0.985 . S
N305 C307 1.356 . S
N305 H310 0.984 . S
N305 H311 0.985 . S
C306 C300 1.379 . S
C306 C303 1.363 . S
C306 N304 1.356 . S
C307 C301 1.363 . S
C307 C302 1.379 . S
C307 N305 1.356 . S
N308 C300 1.356 1_545 S
N308 H314 0.984 1_545 S
N308 H315 0.984 . S
N309 C302 1.356 1_565 S
N309 H312 0.984 . S
N309 H313 0.985 1_565 S
H310 N305 0.984 . S
H311 N305 0.985 . S
H312 N309 0.984 . S
H313 N309 0.985 1_545 S
H314 N308 0.984 1_565 S
H315 N308 0.984 . S
H316 N304 0.984 . S
H317 N304 0.985 . S
C318 C319 1.363 . S
C318 C324 1.379 . S
C318 N326 1.356 . S
C319 C318 1.363 . S
C319 C325 1.363 . S
C320 C321 1.363 . S
C320 C325 1.379 . S
C320 N327 1.356 . S
C321 C320 1.363 . S
C321 C324 1.363 . S
N322 C324 1.356 . S
N322 H334 0.984 . S
N322 H335 0.985 . S
N323 C325 1.356 . S
N323 H328 0.984 . S
N323 H329 0.985 . S
C324 C318 1.379 . S
C324 C321 1.363 . S
C324 N322 1.356 . S
C325 C319 1.363 . S
C325 C320 1.379 . S
C325 N323 1.356 . S
N326 C318 1.356 . S
N326 H332 0.984 . S
N326 H333 0.984 . S
N327 C320 1.356 . S
N327 H330 0.984 . S
N327 H331 0.985 . S
H328 N323 0.984 . S
H329 N323 0.985 . S
H330 N327 0.984 . S
H331 N327 0.985 . S
H332 N326 0.984 . S
H333 N326 0.984 . S
H334 N322 0.984 . S
H335 N322 0.985 . S
C336 C337 1.363 . S
C336 C342 1.379 . S
C336 N344 1.356 . S
C337 C336 1.363 . S
C337 C343 1.363 1_655 S
C338 C339 1.363 . S
C338 C343 1.379 . S
C338 N345 1.356 . S
C339 C338 1.363 . S
C339 C342 1.363 1_455 S
N340 C342 1.345 1_455 S
N340 H352 0.975 1_455 S
N340 H353 1.005 . S
N341 C343 1.345 1_655 S
N341 H346 1.005 . S
N341 H347 0.975 1_655 S
C342 C336 1.379 . S
C342 C339 1.363 1_655 S
C342 N340 1.345 1_655 S
C343 C337 1.363 1_455 S
C343 C338 1.379 . S
C343 N341 1.345 1_455 S
N344 C336 1.356 . S
N344 H350 0.984 . S
N344 H351 0.984 . S
N345 C338 1.356 . S
N345 H348 0.984 . S
N345 H349 0.985 . S
H346 N341 1.005 . S
H347 N341 0.975 1_455 S
H348 N345 0.984 . S
H349 N345 0.985 . S
H350 N344 0.984 . S
H351 N344 0.984 . S
H352 N340 0.975 1_655 S
H353 N340 1.005 . S
C354 C355 1.363 1_545 S
C354 C360 1.379 . S
C354 N362 1.356 1_545 S
C355 C354 1.363 1_565 S
C355 C361 1.363 . S
C356 C357 1.363 1_565 S
C356 C361 1.379 . S
C356 N363 1.356 1_565 S
C357 C356 1.363 1_545 S
C357 C360 1.363 . S
N358 C360 1.356 . S
N358 H370 0.984 . S
N358 H371 0.985 . S
N359 C361 1.356 . S
N359 H364 0.984 . S
N359 H365 0.985 . S
C360 C354 1.379 . S
C360 C357 1.363 . S
C360 N358 1.356 . S
C361 C355 1.363 . S
C361 C356 1.379 . S
C361 N359 1.356 . S
N362 C354 1.356 1_565 S
N362 H368 0.984 1_565 S
N362 H369 0.984 . S
N363 C356 1.356 1_545 S
N363 H366 0.984 . S
N363 H367 0.985 1_545 S
H364 N359 0.984 . S
H365 N359 0.985 . S
H366 N363 0.984 . S
H367 N363 0.985 1_565 S
H368 N362 0.984 1_545 S
H369 N362 0.984 . S
H370 N358 0.984 . S
H371 N358 0.985 . S
C372 C373 1.363 . S
C372 C378 1.379 . S
C372 N380 1.356 . S
C373 C372 1.363 . S
C373 C379 1.363 . S
C374 C375 1.363 . S
C374 C379 1.379 . S
C374 N381 1.356 . S
C375 C374 1.363 . S
C375 C378 1.363 . S
N376 C378 1.356 . S
N376 H388 0.984 . S
N376 H389 0.985 . S
N377 C379 1.356 . S
N377 H382 0.984 . S
N377 H383 0.985 . S
C378 C372 1.379 . S
C378 C375 1.363 . S
C378 N376 1.356 . S
C379 C373 1.363 . S
C379 C374 1.379 . S
C379 N377 1.356 . S
N380 C372 1.356 . S
N380 H386 0.984 1_545 S
N380 H387 0.984 1_545 S
N381 C374 1.356 . S
N381 H384 0.984 . S
N381 H385 0.985 . S
H382 N377 0.984 . S
H383 N377 0.985 . S
H384 N381 0.984 . S
H385 N381 0.985 . S
H386 N380 0.984 1_565 S
H387 N380 0.984 1_565 S
H388 N376 0.984 . S
H389 N376 0.985 . S
C390 C391 1.363 . S
C390 C396 1.379 . S
C390 N398 1.356 . S
C391 C390 1.363 . S
C391 C397 1.363 . S
C392 C393 1.363 . S
C392 C397 1.379 . S
C392 N399 1.356 . S
C393 C392 1.363 . S
C393 C396 1.363 . S
N394 C396 1.356 . S
N394 H406 0.984 . S
N394 H407 0.985 . S
N395 C397 1.356 . S
N395 H400 0.984 . S
N395 H401 0.985 . S
C396 C390 1.379 . S
C396 C393 1.363 . S
C396 N394 1.356 . S
C397 C391 1.363 . S
C397 C392 1.379 . S
C397 N395 1.356 . S
N398 C390 1.356 . S
N398 H404 0.984 . S
N398 H405 0.984 . S
N399 C392 1.356 . S
N399 H402 0.984 . S
N399 H403 0.985 . S
H400 N395 0.984 . S
H401 N395 0.985 . S
H402 N399 0.984 . S
H403 N399 0.985 . S
H404 N398 0.984 . S
H405 N398 0.984 . S
H406 N394 0.984 . S
H407 N394 0.985 . S
C408 C409 1.363 . S
C408 C414 1.379 . S
C408 N416 1.356 . S
C409 C408 1.363 . S
C409 C415 1.363 . S
C410 C411 1.363 . S
C410 C415 1.379 . S
C410 N417 1.356 . S
C411 C410 1.363 . S
C411 C414 1.363 . S
N412 C414 1.356 . S
N412 H424 0.984 . S
N412 H425 0.985 . S
N413 C415 1.356 . S
N413 H418 0.984 1_655 S
N413 H419 0.985 . S
C414 C408 1.379 . S
C414 C411 1.363 . S
C414 N412 1.356 . S
C415 C409 1.363 . S
C415 C410 1.379 . S
C415 N413 1.356 . S
N416 C408 1.356 . S
N416 H422 0.984 . S
N416 H423 0.984 . S
N417 C410 1.356 . S
N417 H420 0.984 . S
N417 H421 0.985 . S
H418 N413 0.984 1_455 S
H419 N413 0.985 . S
H420 N417 0.984 . S
H421 N417 0.985 . S
H422 N416 0.984 . S
H423 N416 0.984 . S
H424 N412 0.984 . S
H425 N412 0.985 . S
C426 C427 1.363 . S
C426 C432 1.379 . S
C426 N434 1.356 . S
C427 C426 1.363 . S
C427 C433 1.363 . S
C428 C429 1.363 . S
C428 C433 1.379 . S
C428 N435 1.356 . S
C429 C428 1.363 . S
C429 C432 1.363 . S
N430 C432 1.356 . S
N430 H442 0.984 . S
N430 H443 0.985 . S
N431 C433 1.356 . S
N431 H436 0.984 1_565 S
N431 H437 0.985 . S
C432 C426 1.379 . S
C432 C429 1.363 . S
C432 N430 1.356 . S
C433 C427 1.363 . S
C433 C428 1.379 . S
C433 N431 1.356 . S
N434 C426 1.356 . S
N434 H440 0.984 . S
N434 H441 0.984 . S
N435 C428 1.356 . S
N435 H438 0.984 . S
N435 H439 0.985 . S
H436 N431 0.984 1_545 S
H437 N431 0.985 . S
H438 N435 0.984 . S
H439 N435 0.985 . S
H440 N434 0.984 . S
H441 N434 0.984 . S
H442 N430 0.984 . S
H443 N430 0.985 . S
C444 C445 1.363 . S
C444 C450 1.379 . S
C444 N452 1.356 . S
C445 C444 1.363 . S
C445 C451 1.363 . S
C446 C447 1.363 . S
C446 C451 1.379 . S
C446 N453 1.356 . S
C447 C446 1.363 . S
C447 C450 1.363 . S
N448 C450 1.356 . S
N448 H460 0.984 . S
N448 H461 0.985 . S
N449 C451 1.356 . S
N449 H454 0.984 . S
N449 H455 0.985 . S
C450 C444 1.379 . S
C450 C447 1.363 . S
C450 N448 1.356 . S
C451 C445 1.363 . S
C451 C446 1.379 . S
C451 N449 1.356 . S
N452 C444 1.356 . S
N452 H458 0.984 . S
N452 H459 0.984 . S
N453 C446 1.356 . S
N453 H456 0.984 1_655 S
N453 H457 0.985 1_655 S
H454 N449 0.984 . S
H455 N449 0.985 . S
H456 N453 0.984 1_455 S
H457 N453 0.985 1_455 S
H458 N452 0.984 . S
H459 N452 0.984 . S
H460 N448 0.984 . S
H461 N448 0.985 . S
C462 C463 1.363 . S
C462 C468 1.379 . S
C462 N470 1.356 . S
C463 C462 1.363 . S
C463 C469 1.363 . S
C464 C465 1.363 . S
C464 C469 1.379 . S
C464 N471 1.356 . S
C465 C464 1.363 . S
C465 C468 1.363 . S
N466 C468 1.356 . S
N466 H478 0.984 . S
N466 H479 0.985 . S
N467 C469 1.356 . S
N467 H472 0.984 1_565 S
N467 H473 0.985 1_565 S
C468 C462 1.379 . S
C468 C465 1.363 . S
C468 N466 1.356 . S
C469 C463 1.363 . S
C469 C464 1.379 . S
C469 N467 1.356 . S
N470 C462 1.356 . S
N470 H476 0.984 . S
N470 H477 0.984 . S
N471 C464 1.356 . S
N471 H474 0.984 . S
N471 H475 0.985 . S
H472 N467 0.984 1_545 S
H473 N467 0.985 1_545 S
H474 N471 0.984 . S
H475 N471 0.985 . S
H476 N470 0.984 . S
H477 N470 0.984 . S
H478 N466 0.984 . S
H479 N466 0.985 . S
C480 C481 1.363 . S
C480 C486 1.379 . S
C480 N488 1.356 . S
C481 C480 1.363 . S
C481 C487 1.363 . S
C482 C483 1.363 . S
C482 C487 1.379 . S
C482 N489 1.356 . S
C483 C482 1.363 . S
C483 C486 1.363 . S
N484 C486 1.356 . S
N484 H496 0.984 . S
N484 H497 0.985 . S
N485 C487 1.356 . S
N485 H490 0.984 . S
N485 H491 0.985 . S
C486 C480 1.379 . S
C486 C483 1.363 . S
C486 N484 1.356 . S
C487 C481 1.363 . S
C487 C482 1.379 . S
C487 N485 1.356 . S
N488 C480 1.356 . S
N488 H494 0.984 . S
N488 H495 0.984 . S
N489 C482 1.356 . S
N489 H492 0.984 . S
N489 H493 0.985 . S
H490 N485 0.984 . S
H491 N485 0.985 . S
H492 N489 0.984 . S
H493 N489 0.985 . S
H494 N488 0.984 . S
H495 N488 0.984 . S
H496 N484 0.984 . S
H497 N484 0.985 . S
C498 C499 1.363 1_455 S
C498 C504 1.379 . S
C498 N506 1.356 . S
C499 C498 1.363 1_655 S
C499 C505 1.363 . S
C500 C501 1.363 1_655 S
C500 C505 1.379 . S
C500 N507 1.356 . S
C501 C500 1.363 1_455 S
C501 C504 1.363 . S
N502 C504 1.356 . S
N502 H514 0.984 . S
N502 H515 0.985 . S
N503 C505 1.356 . S
N503 H508 0.984 . S
N503 H509 0.985 . S
C504 C498 1.379 . S
C504 C501 1.363 . S
C504 N502 1.356 . S
C505 C499 1.363 . S
C505 C500 1.379 . S
C505 N503 1.356 . S
N506 C498 1.356 . S
N506 H512 0.984 . S
N506 H513 0.984 . S
N507 C500 1.356 . S
N507 H510 0.984 . S
N507 H511 0.985 . S
H508 N503 0.984 . S
H509 N503 0.985 . S
H510 N507 0.984 . S
H511 N507 0.985 . S
H512 N506 0.984 . S
H513 N506 0.984 . S
H514 N502 0.984 . S
H515 N502 0.985 . S
C516 C517 1.363 1_565 S
C516 C522 1.379 1_554 S
C516 N524 1.356 . S
C517 C516 1.363 1_545 S
C517 C523 1.363 . S
C518 C519 1.363 1_545 S
C518 C523 1.379 1_556 S
C518 N525 1.356 . S
C519 C518 1.363 1_565 S
C519 C522 1.363 . S
N520 C522 1.356 . S
N520 H532 0.984 . S
N520 H533 0.985 . S
N521 C523 1.356 . S
N521 H526 0.984 . S
N521 H527 0.985 . S
C522 C516 1.379 1_556 S
C522 C519 1.363 . S
C522 N520 1.356 . S
C523 C517 1.363 . S
C523 C518 1.379 1_554 S
C523 N521 1.356 . S
N524 C516 1.356 . S
N524 H530 0.984 . S
N524 H531 0.984 . S
N525 C518 1.356 . S
N525 H528 0.984 . S
N525 H529 0.985 . S
H526 N521 0.984 . S
H527 N521 0.985 . S
H528 N525 0.984 . S
H529 N525 0.985 . S
H530 N524 0.984 . S
H531 N524 0.984 . S
H532 N520 0.984 . S
H533 N520 0.985 . S
C534 C535 1.363 . S
C534 C540 1.379 . S
C534 N542 1.356 . S
C535 C534 1.363 . S
C535 C541 1.363 . S
C536 C537 1.363 . S
C536 C541 1.379 . S
C536 N543 1.356 . S
C537 C536 1.363 . S
C537 C540 1.363 . S
N538 C540 1.356 . S
N538 H550 0.984 . S
N538 H551 0.985 . S
N539 C541 1.356 . S
N539 H544 0.984 . S
N539 H545 0.985 . S
C540 C534 1.379 . S
C540 C537 1.363 . S
C540 N538 1.356 . S
C541 C535 1.363 . S
C541 C536 1.379 . S
C541 N539 1.356 . S
N542 C534 1.356 . S
N542 H548 0.984 . S
N542 H549 0.984 . S
N543 C536 1.356 . S
N543 H546 0.984 . S
N543 H547 0.985 . S
H544 N539 0.984 . S
H545 N539 0.985 . S
H546 N543 0.984 . S
H547 N543 0.985 . S
H548 N542 0.984 . S
H549 N542 0.984 . S
H550 N538 0.984 . S
H551 N538 0.985 . S
C552 C553 1.363 . S
C552 C558 1.379 . S
C552 N560 1.356 . S
C553 C552 1.363 . S
C553 C559 1.363 1_455 S
C554 C555 1.363 . S
C554 C559 1.379 . S
C554 N561 1.356 . S
C555 C554 1.363 . S
C555 C558 1.363 1_655 S
N556 C558 1.356 . S
N556 H568 0.984 . S
N556 H569 0.985 . S
N557 C559 1.356 . S
N557 H562 0.984 . S
N557 H563 0.985 . S
C558 C552 1.379 . S
C558 C555 1.363 1_455 S
C558 N556 1.356 . S
C559 C553 1.363 1_655 S
C559 C554 1.379 . S
C559 N557 1.356 . S
N560 C552 1.356 . S
N560 H566 0.984 . S
N560 H567 0.984 . S
N561 C554 1.356 . S
N561 H564 0.984 . S
N561 H565 0.985 . S
H562 N557 0.984 . S
H563 N557 0.985 . S
H564 N561 0.984 . S
H565 N561 0.985 . S
H566 N560 0.984 . S
H567 N560 0.984 . S
H568 N556 0.984 . S
H569 N556 0.985 . S
C570 C571 1.363 1_545 S
C570 C576 1.379 1_554 S
C570 N578 1.356 . S
C571 C570 1.363 1_565 S
C571 C577 1.363 . S
C572 C573 1.363 1_565 S
C572 C577 1.379 1_556 S
C572 N579 1.356 . S
C573 C572 1.363 1_545 S
C573 C576 1.363 . S
N574 C576 1.356 . S
N574 H586 0.984 . S
N574 H587 0.985 . S
N575 C577 1.356 . S
N575 H580 0.984 . S
N575 H581 0.985 . S
C576 C570 1.379 1_556 S
C576 C573 1.363 . S
C576 N574 1.356 . S
C577 C571 1.363 . S
C577 C572 1.379 1_554 S
C577 N575 1.356 . S
N578 C570 1.356 . S
N578 H584 0.984 . S
N578 H585 0.984 . S
N579 C572 1.356 . S
N579 H582 0.984 . S
N579 H583 0.985 . S
H580 N575 0.984 . S
H581 N575 0.985 . S
H582 N579 0.984 . S
H583 N579 0.985 . S
H584 N578 0.984 . S
H585 N578 0.984 . S
H586 N574 0.984 . S
H587 N574 0.985 . S
C157 C143 1.505 . S
C159 C0 1.505 . S
C175 C13 1.505 . S
C177 C78 1.505 . S
C193 C26 1.505 . S
C195 C91 1.505 . S
C211 C39 1.505 . S
C213 C104 1.505 . S
C229 C117 1.505 . S
C231 C52 1.505 . S
C247 C65 1.505 . S
C249 C130 1.505 . S
C265 C44 1.278 . S
C267 C5 1.278 . S
C283 C57 1.278 . S
C285 C18 1.278 . S
C301 C70 1.279 . S
C303 C31 1.279 . S
C319 C83 1.278 . S
C321 C122 1.278 . S
C337 C96 1.279 . S
C339 C135 1.279 . S
C355 C109 1.278 . S
C357 C148 1.278 . S
C373 C112 0.870 . S
C375 C8 0.870 . S
C391 C21 0.870 . S
C393 C125 0.870 . S
C409 C138 0.870 . S
C411 C34 0.870 . S
C427 C151 0.870 . S
C429 C47 0.870 . S
C445 C86 0.870 . S
C447 C60 0.870 . S
C463 C73 0.870 . S
C465 C99 0.870 . S
C481 C127 1.538 . S
C483 C10 1.538 . S
C499 C23 1.538 . S
C501 C140 1.538 . S
C517 C153 1.538 . S
C519 C36 1.538 . S
C535 C49 1.538 . S
C537 C88 1.538 . S
C553 C62 1.538 . S
C555 C101 1.538 . S
C571 C114 1.537 . S
C573 C75 1.537 . S
