# Generated by pormake.
# Topology smm, (6)-cn, num edge types: 1
# Building blocks:
#     Node 0, Type 0, BuildingBlock: CIFDUS_clean_sbu_1, # of connection points: 6
#     Node 1, Type 0, BuildingBlock: CIFDUS_clean_sbu_1, # of connection points: 6
#     Node 2, Type 0, BuildingBlock: CIFDUS_clean_sbu_1, # of connection points: 6
#     Node 3, Type 0, BuildingBlock: CIFDUS_clean_sbu_1, # of connection points: 6
#     Node 4, Type 0, BuildingBlock: CIFDUS_clean_sbu_1, # of connection points: 6
#     Node 5, Type 0, BuildingBlock: CIFDUS_clean_sbu_1, # of connection points: 6
#     Node 6, Type 0, BuildingBlock: CIFDUS_clean_sbu_1, # of connection points: 6
#     Node 7, Type 0, BuildingBlock: CIFDUS_clean_sbu_1, # of connection points: 6
#     Node 8, Type 0, BuildingBlock: CIFDUS_clean_sbu_1, # of connection points: 6
#     Edge 9, Type (0, 0), BuildingBlock: ZUJKAS_clean_linker_0, # of connection points: 2
#     Edge 10, Type (0, 0), BuildingBlock: ZUJKAS_clean_linker_0, # of connection points: 2
#     Edge 11, Type (0, 0), BuildingBlock: ZUJKAS_clean_linker_0, # of connection points: 2
#     Edge 12, Type (0, 0), BuildingBlock: ZUJKAS_clean_linker_0, # of connection points: 2
#     Edge 13, Type (0, 0), BuildingBlock: ZUJKAS_clean_linker_0, # of connection points: 2
#     Edge 14, Type (0, 0), BuildingBlock: ZUJKAS_clean_linker_0, # of connection points: 2
#     Edge 15, Type (0, 0), BuildingBlock: ZUJKAS_clean_linker_0, # of connection points: 2
#     Edge 16, Type (0, 0), BuildingBlock: ZUJKAS_clean_linker_0, # of connection points: 2
#     Edge 17, Type (0, 0), BuildingBlock: ZUJKAS_clean_linker_0, # of connection points: 2
#     Edge 18, Type (0, 0), BuildingBlock: ZUJKAS_clean_linker_0, # of connection points: 2
#     Edge 19, Type (0, 0), BuildingBlock: ZUJKAS_clean_linker_0, # of connection points: 2
#     Edge 20, Type (0, 0), BuildingBlock: ZUJKAS_clean_linker_0, # of connection points: 2
#     Edge 21, Type (0, 0), BuildingBlock: ZUJKAS_clean_linker_0, # of connection points: 2
#     Edge 22, Type (0, 0), BuildingBlock: ZUJKAS_clean_linker_0, # of connection points: 2
#     Edge 23, Type (0, 0), BuildingBlock: ZUJKAS_clean_linker_0, # of connection points: 2
#     Edge 24, Type (0, 0), BuildingBlock: ZUJKAS_clean_linker_0, # of connection points: 2
#     Edge 25, Type (0, 0), BuildingBlock: ZUJKAS_clean_linker_0, # of connection points: 2
#     Edge 26, Type (0, 0), BuildingBlock: ZUJKAS_clean_linker_0, # of connection points: 2
#     Edge 27, Type (0, 0), BuildingBlock: ZUJKAS_clean_linker_0, # of connection points: 2
#     Edge 28, Type (0, 0), BuildingBlock: ZUJKAS_clean_linker_0, # of connection points: 2
#     Edge 29, Type (0, 0), BuildingBlock: ZUJKAS_clean_linker_0, # of connection points: 2
#     Edge 30, Type (0, 0), BuildingBlock: ZUJKAS_clean_linker_0, # of connection points: 2
#     Edge 31, Type (0, 0), BuildingBlock: ZUJKAS_clean_linker_0, # of connection points: 2
#     Edge 32, Type (0, 0), BuildingBlock: ZUJKAS_clean_linker_0, # of connection points: 2
#     Edge 33, Type (0, 0), BuildingBlock: ZUJKAS_clean_linker_0, # of connection points: 2
#     Edge 34, Type (0, 0), BuildingBlock: ZUJKAS_clean_linker_0, # of connection points: 2
#     Edge 35, Type (0, 0), BuildingBlock: ZUJKAS_clean_linker_0, # of connection points: 2
# Relax obj value: 0.216
# Max RMSD: 0.237
# Mean RMSD: 0.216
data_MOF--net-smm--node1-CIFDUS_clean_sbu_1--edge1-ZUJKAS_clean_linker_0
_symmetry_space_group_name_H-M    P1
_symmetry_Int_Tables_number       1
_symmetry_cell_setting            triclinic
loop_
_symmetry_equiv_pos_as_xyz
'x, y, z'
_cell_length_a     65.281171
_cell_length_b     65.036602
_cell_length_c     19.871846
_cell_angle_alpha  93.916074
_cell_angle_beta   93.878684
_cell_angle_gamma 119.96946
loop_
_atom_site_label
_atom_site_type_symbol
_atom_site_fract_x
_atom_site_fract_y
_atom_site_fract_z
_atom_type_partial_charge
O0 O 0.00901 0.19061 0.12107 0.0
Mn1 Mn 0.01192 0.19025 0.01827 0.0
O2 O 0.97022 0.16317 0.1244 0.0
Mn3 Mn 0.95878 0.15926 0.03246 0.0
O4 O 0.01442 0.18939 0.91479 0.0
O5 O 0.04441 0.19426 0.03469 0.0
Mn6 Mn 0.06556 0.21853 -0.00294 0.0
O7 O 0.02593 0.22744 0.02128 0.0
O8 O 0.05386 0.21016 0.90495 0.0
O9 O 0.99854 0.15297 0.01143 0.0
O10 O 0.95965 0.13549 0.9788 0.0
O11 O 0.08119 0.20409 0.03542 0.0
O12 O 0.06574 0.24538 0.03571 0.0
C13 C 0.9625 0.19182 0.00187 0.0
C14 C 0.99136 0.17773 0.15359 0.0
C15 C 0.03201 0.19801 0.87909 0.0
C16 C 0.06027 0.18842 0.04891 0.0
C17 C 0.04673 0.24641 0.03017 0.0
C18 C 0.97851 0.1344 0.98749 0.0
O19 O 0.9792 0.18649 0.00488 0.0
O20 O 0.94178 0.17384 0.00827 0.0
O21 O 0.83555 0.83452 0.93751 0.0
Mn22 Mn 0.83905 0.83477 0.04171 0.0
O23 O 0.82413 0.86178 0.92455 0.0
Mn24 Mn 0.81737 0.86567 0.01313 0.0
O25 O 0.84271 0.83587 0.14673 0.0
O26 O 0.86772 0.83103 0.03767 0.0
Mn27 Mn 0.86469 0.80728 0.08165 0.0
O28 O 0.81557 0.79741 0.03645 0.0
O29 O 0.86237 0.81638 0.1705 0.0
O30 O 0.86343 0.87211 0.05097 0.0
O31 O 0.84225 0.88943 0.07221 0.0
O32 O 0.89424 0.82052 0.05011 0.0
O33 O 0.83771 0.77992 0.04 0.0
C34 C 0.78801 0.83403 0.04023 0.0
C35 C 0.83057 0.84732 0.90059 0.0
C36 C 0.85229 0.82807 0.18892 0.0
C37 C 0.88899 0.8358 0.02834 0.0
C38 C 0.81752 0.7786 0.03458 0.0
C39 C 0.86219 0.89059 0.07154 0.0
O40 O 0.80969 0.83805 0.04231 0.0
O41 O 0.78617 0.85246 0.0291 0.0
O42 O 0.18095 0.01347 0.08675 0.0
Mn43 Mn 0.17787 0.01025 0.98199 0.0
O44 O 0.19405 0.05274 0.11494 0.0
Mn45 Mn 0.20155 0.06359 0.03013 0.0
O46 O 0.17475 0.00797 0.87663 0.0
O47 O 0.14834 0.97769 0.97744 0.0
Mn48 Mn 0.15095 0.95712 0.92157 0.0
O49 O 0.20053 0.99567 0.97714 0.0
O50 O 0.15307 0.96872 0.83791 0.0
O51 O 0.15455 0.02425 0.98259 0.0
O52 O 0.17737 0.06313 0.97543 0.0
O53 O 0.12169 0.94008 0.95262 0.0
O54 O 0.17742 0.95589 0.95436 0.0
C55 C 0.23001 0.05993 -0.00389 0.0
C56 C 0.1866 0.03152 0.13062 0.0
C57 C 0.16431 0.99073 0.82804 0.0
C58 C 0.12714 0.96055 0.98411 0.0
C59 C 0.1979 0.97462 0.967 0.0
C60 C 0.15695 0.04453 0.97088 0.0
O61 O 0.2079 0.04282 -0.00984 0.0
O62 O 0.23305 0.08074 0.01616 0.0
O63 O 0.68585 0.52465 0.22785 0.0
Mn64 Mn 0.68292 0.52297 0.3303 0.0
O65 O 0.72488 0.53777 0.22166 0.0
Mn66 Mn 0.73658 0.54723 0.3142 0.0
O67 O 0.68034 0.5212 0.43337 0.0
O68 O 0.65037 0.49344 0.31063 0.0
Mn69 Mn 0.62959 0.49794 0.35148 0.0
O70 O 0.66897 0.54612 0.33465 0.0
O71 O 0.64096 0.50292 0.44343 0.0
O72 O 0.69724 0.49999 0.32992 0.0
O73 O 0.7364 0.52353 0.36075 0.0
O74 O 0.61304 0.46702 0.30819 0.0
O75 O 0.62926 0.52373 0.31865 0.0
C76 C 0.73011 0.57511 0.35143 0.0
C77 C 0.70357 0.52986 0.19386 0.0
C78 C 0.66277 0.51286 0.46911 0.0
C79 C 0.63377 0.47141 0.29367 0.0
C80 C 0.64825 0.54406 0.32709 0.0
C81 C 0.71777 0.5029 0.35082 0.0
O82 O 0.71528 0.55242 0.34843 0.0
O83 O 0.7514 0.57974 0.3428 0.0
O84 O 0.49959 0.17191 0.19601 0.0
Mn85 Mn 0.50493 0.1752 0.30102 0.0
O86 O 0.48371 0.19506 0.17406 0.0
Mn87 Mn 0.47977 0.2028 0.2625 0.0
O88 O 0.51037 0.1788 0.40632 0.0
O89 O 0.53415 0.17213 0.29592 0.0
Mn90 Mn 0.53169 0.14925 0.34326 0.0
O91 O 0.48225 0.13809 0.30383 0.0
O92 O 0.53073 0.16006 0.4314 0.0
O93 O 0.52798 0.21263 0.30228 0.0
O94 O 0.50571 0.22973 0.3085 0.0
O95 O 0.56047 0.16113 0.30866 0.0
O96 O 0.50459 0.12095 0.30777 0.0
C97 C 0.45324 0.17239 0.30293 0.0
C98 C 0.49176 0.18152 0.15475 0.0
C99 C 0.52072 0.1719 0.44906 0.0
C100 C 0.55523 0.17628 0.28561 0.0
C101 C 0.48435 0.11943 0.30497 0.0
C102 C 0.52593 0.2313 0.31089 0.0
O103 O 0.47535 0.17794 0.30306 0.0
O104 O 0.44939 0.18919 0.28635 0.0
O105 O 0.84895 0.34009 0.20877 0.0
Mn106 Mn 0.85157 0.34297 0.31354 0.0
O107 O 0.82337 0.30074 0.17627 0.0
Mn108 Mn 0.82152 0.28948 0.26115 0.0
O109 O 0.85371 0.34551 0.41858 0.0
O110 O 0.85443 0.37526 0.31682 0.0
Mn111 Mn 0.87982 0.39664 0.371 0.0
O112 O 0.88894 0.35795 0.3228 0.0
O113 O 0.87427 0.38506 0.45519 0.0
O114 O 0.81413 0.32842 0.30878 0.0
O115 O 0.79817 0.28905 0.30924 0.0
O116 O 0.86459 0.41232 0.33973 0.0
O117 O 0.90587 0.3978 0.33607 0.0
C118 C 0.85493 0.29421 0.30313 0.0
C119 C 0.83641 0.32225 0.16282 0.0
C120 C 0.863 0.36312 0.4662 0.0
C121 C 0.84865 0.39139 0.31026 0.0
C122 C 0.90745 0.37907 0.32845 0.0
C123 C 0.79644 0.30766 0.31553 0.0
O124 O 0.84905 0.31057 0.30719 0.0
O125 O 0.83724 0.27322 0.28004 0.0
O126 O 0.34437 0.86323 0.7476 0.0
Mn127 Mn 0.34763 0.86211 0.64503 0.0
O128 O 0.30545 0.8361 0.75057 0.0
Mn129 Mn 0.29423 0.83132 0.65802 0.0
O130 O 0.35028 0.86025 0.54155 0.0
O131 O 0.38007 0.86623 0.66357 0.0
Mn132 Mn 0.40124 0.88957 0.62317 0.0
O133 O 0.36171 0.89932 0.64516 0.0
O134 O 0.38965 0.88005 0.53125 0.0
O135 O 0.33422 0.8249 0.6412 0.0
O136 O 0.29535 0.80715 0.60723 0.0
O137 O 0.41679 0.87572 0.66568 0.0
O138 O 0.40153 0.91695 0.65707 0.0
C139 C 0.29871 0.86404 0.62673 0.0
C140 C 0.32653 0.85077 0.78002 0.0
C141 C 0.36779 0.86811 0.50556 0.0
C142 C 0.39589 0.86061 0.6807 0.0
C143 C 0.38261 0.91818 0.65125 0.0
C144 C 0.31423 0.80616 0.61787 0.0
O145 O 0.31492 0.85805 0.62894 0.0
O146 O 0.27774 0.84628 0.63206 0.0
O147 O 0.17282 0.50855 0.60261 0.0
Mn148 Mn 0.17703 0.50921 0.70674 0.0
O149 O 0.15989 0.53455 0.58783 0.0
Mn150 Mn 0.15338 0.5392 0.67643 0.0
O151 O 0.1814 0.51053 0.81165 0.0
O152 O 0.2052 0.50481 0.70093 0.0
Mn153 Mn 0.20187 0.48084 0.74458 0.0
O154 O 0.15314 0.47213 0.70257 0.0
O155 O 0.2002 0.49013 0.83408 0.0
O156 O 0.20094 0.54656 0.71468 0.0
O157 O 0.17901 0.56365 0.7324 0.0
O158 O 0.2312 0.4936 0.71165 0.0
O159 O 0.17436 0.45369 0.70408 0.0
C160 C 0.12621 0.50577 0.70521 0.0
C161 C 0.16704 0.52058 0.56483 0.0
C162 C 0.19068 0.5023 0.85329 0.0
C163 C 0.22628 0.50923 0.69086 0.0
C164 C 0.15446 0.45299 0.70049 0.0
C165 C 0.19915 0.56502 0.73214 0.0
O166 O 0.14874 0.51333 0.71097 0.0
O167 O 0.12165 0.52239 0.69223 0.0
O168 O 0.51848 0.68735 0.78724 0.0
Mn169 Mn 0.51629 0.68413 0.6826 0.0
O170 O 0.53168 0.72661 0.81568 0.0
Mn171 Mn 0.5401 0.73769 0.73151 0.0
O172 O 0.51399 0.68156 0.57743 0.0
O173 O 0.48696 0.65148 0.67684 0.0
Mn174 Mn 0.49054 0.63072 0.6247 0.0
O175 O 0.53906 0.66987 0.68061 0.0
O176 O 0.49393 0.6421 0.54026 0.0
O177 O 0.49302 0.69819 0.67964 0.0
O178 O 0.51636 0.73727 0.67469 0.0
O179 O 0.46064 0.61383 0.65253 0.0
O180 O 0.51676 0.62997 0.66296 0.0
C181 C 0.56855 0.73318 0.70029 0.0
C182 C 0.52391 0.70531 0.83112 0.0
C183 C 0.50458 0.66406 0.5295 0.0
C184 C 0.4656 0.63442 0.68193 0.0
C185 C 0.53698 0.64905 0.67461 0.0
C186 C 0.49585 0.71862 0.66761 0.0
O187 O 0.5462 0.71668 0.69201 0.0
O188 O 0.57201 0.75416 0.72013 0.0
H189 H 0.08127 0.2917 0.08303 0.0
H190 H 0.09268 0.32822 0.03021 0.0
H191 H 0.03167 0.28894 0.8786 0.0
H192 H 0.01939 0.25298 0.93429 0.0
H193 H 0.10766 0.33465 0.91731 0.0
H194 H 0.03126 0.34903 0.89284 0.0
H195 H 0.03225 0.32828 0.94681 0.0
H196 H 0.02242 0.31936 0.85715 0.0
C197 C 0.06967 0.29118 0.04045 0.0
C198 C 0.04933 0.26946 0.01329 0.0
C199 C 0.07634 0.31204 0.0096 0.0
C200 C 0.06318 0.31162 0.94979 0.0
C201 C 0.04196 0.29022 0.92535 0.0
H202 H 0.14308 0.40717 0.65829 0.0
H203 H 0.11744 0.37159 0.71172 0.0
C204 C 0.0349 0.26951 0.95743 0.0
C205 C 0.07344 0.33232 0.9085 0.0
H206 H 0.06049 0.36767 0.81519 0.0
C207 C 0.09729 0.34197 0.89588 0.0
C208 C 0.06024 0.34226 0.88028 0.0
C209 C 0.03522 0.33434 0.89563 0.0
C210 C 0.10817 0.36086 0.85613 0.0
C211 C 0.09458 0.3698 0.82437 0.0
C212 C 0.07084 0.36052 0.83781 0.0
C213 C 0.10525 0.38951 0.78004 0.0
C214 C 0.13445 0.37148 0.85067 0.0
C215 C 0.10493 0.4108 0.79487 0.0
C216 C 0.11881 0.43093 0.76206 0.0
C217 C 0.1336 0.43028 0.71454 0.0
C218 C 0.13201 0.4083 0.6949 0.0
C219 C 0.11765 0.38804 0.72638 0.0
H220 H 0.14349 0.36793 0.89391 0.0
H221 H 0.13683 0.36322 0.80335 0.0
H222 H 0.14344 0.39111 0.84949 0.0
H223 H 0.09529 0.41242 0.83522 0.0
H224 H 0.11971 0.4476 0.7788 0.0
H225 H 0.78045 0.79325 0.96343 0.0
H226 H 0.74187 0.76135 0.90712 0.0
H227 H 0.70711 0.79267 0.01575 0.0
H228 H 0.7451 0.82244 0.07759 0.0
H229 H 0.67735 0.75027 -0.00995 0.0
H230 H 0.71574 0.77508 0.74711 0.0
H231 H 0.72796 0.76083 0.79622 0.0
H232 H 0.73295 0.78984 0.82784 0.0
C233 C 0.76447 0.79229 0.97889 0.0
C234 C 0.76593 0.81026 0.02602 0.0
C235 C 0.74231 0.77451 0.94446 0.0
C236 C 0.72138 0.77512 0.95393 0.0
C237 C 0.72274 0.79167 0.00607 0.0
H238 H 0.61294 0.7616 0.66958 0.0
H239 H 0.64923 0.76611 0.72699 0.0
C240 C 0.74462 0.80876 0.04203 0.0
C241 C 0.69855 0.76054 0.90692 0.0
H242 H 0.67489 0.74888 0.74012 0.0
C243 C 0.67688 0.74999 0.93532 0.0
C244 C 0.69761 0.75995 0.83506 0.0
C245 C 0.71976 0.77219 0.79969 0.0
C246 C 0.65476 0.74085 0.89551 0.0
C247 C 0.65382 0.74043 0.82368 0.0
C248 C 0.67535 0.74917 0.79485 0.0
C249 C 0.63158 0.73442 0.77865 0.0
C250 C 0.63303 0.73362 0.93215 0.0
C251 C 0.60921 0.71428 0.78408 0.0
C252 C 0.58816 0.71221 0.75287 0.0
C253 C 0.58909 0.72938 0.71183 0.0
C254 C 0.61156 0.74782 0.69988 0.0
C255 C 0.63245 0.75045 0.73322 0.0
H256 H 0.63789 0.74091 0.98674 0.0
H257 H 0.62157 0.73999 0.90903 0.0
H258 H 0.62257 0.71386 0.92956 0.0
H259 H 0.60781 0.70097 0.81617 0.0
H260 H 0.57136 0.69857 0.76659 0.0
H261 H 0.24201 0.00792 0.93378 0.0
H262 H 0.27131 0.99981 0.88682 0.0
H263 H 0.22822 0.92548 0.91534 0.0
H264 H 0.20017 0.93387 0.96733 0.0
H265 H 0.27139 0.93618 0.93212 0.0
H266 H 0.26062 0.97249 0.69593 0.0
H267 H 0.27352 0.99426 0.76952 0.0
H268 H 0.24327 0.96994 0.76481 0.0
C269 C 0.23934 0.9901 0.93308 0.0
C270 C 0.21864 0.97161 0.95483 0.0
C271 C 0.25585 0.9853 0.90428 0.0
C272 C 0.25166 0.96178 0.89467 0.0
C273 C 0.23194 0.94375 0.92112 0.0
H274 H 0.27208 0.88239 0.58189 0.0
H275 H 0.26625 0.9115 0.6484 0.0
C276 C 0.21579 0.94861 0.95108 0.0
C277 C 0.26657 0.95519 0.85399 0.0
H278 H 0.28455 0.95512 0.69597 0.0
C279 C 0.27442 0.9405 0.88062 0.0
C280 C 0.27049 0.96061 0.78635 0.0
C281 C 0.26137 0.97499 0.7521 0.0
C282 C 0.28468 0.93002 0.84103 0.0
C283 C 0.28851 0.93534 0.77322 0.0
C284 C 0.28187 0.95111 0.74784 0.0
C285 C 0.29603 0.92217 0.72515 0.0
C286 C 0.28964 0.91202 0.87118 0.0
C287 C 0.31588 0.91961 0.74232 0.0
C288 C 0.31899 0.9025 0.70449 0.0
C289 C 0.30287 0.88831 0.64719 0.0
C290 C 0.28501 0.89324 0.6252 0.0
C291 C 0.28154 0.90983 0.6638 0.0
H292 H 0.28037 0.90579 0.91689 0.0
H293 H 0.2839 0.89614 0.83371 0.0
H294 H 0.30902 0.92039 0.88689 0.0
H295 H 0.32796 0.92952 0.78781 0.0
H296 H 0.33243 0.89872 0.72448 0.0
H297 H 0.44707 0.13208 0.22784 0.0
H298 H 0.40871 0.09792 0.1793 0.0
H299 H 0.373 0.12651 0.29486 0.0
H300 H 0.41118 0.15849 0.35009 0.0
H301 H 0.34485 0.08376 0.27276 0.0
H302 H 0.37777 0.10774 0.0229 0.0
H303 H 0.39225 0.0952 0.07028 0.0
H304 H 0.39602 0.12377 0.10133 0.0
C305 C 0.43112 0.13004 0.24692 0.0
C306 C 0.43232 0.14781 0.29432 0.0
C307 C 0.40897 0.11094 0.21674 0.0
C308 C 0.38763 0.11011 0.22999 0.0
C309 C 0.38892 0.12657 0.28234 0.0
H310 H 0.2732 0.08911 0.95925 0.0
H311 H 0.31076 0.09543 0.01251 0.0
C312 C 0.41092 0.14494 0.31454 0.0
C313 C 0.3643 0.09418 0.18617 0.0
H314 H 0.33766 0.07979 0.02196 0.0
C315 C 0.34335 0.08295 0.21783 0.0
C316 C 0.362 0.09282 0.11406 0.0
C317 C 0.38315 0.10568 0.07512 0.0
C318 C 0.32053 0.07245 0.18098 0.0
C319 C 0.31825 0.07134 0.10895 0.0
C320 C 0.33916 0.08065 0.0769 0.0
C321 C 0.29512 0.0642 0.06682 0.0
C322 C 0.29944 0.06451 0.22084 0.0
C323 C 0.2734 0.04369 0.0752 0.0
C324 C 0.25159 0.04056 0.04627 0.0
C325 C 0.25114 0.05704 0.00481 0.0
C326 C 0.27292 0.07583 -0.01005 0.0
C327 C 0.29454 0.07951 0.02093 0.0
H328 H 0.30496 0.07211 0.27513 0.0
H329 H 0.28698 0.06999 0.19953 0.0
H330 H 0.28982 0.04476 0.21916 0.0
H331 H 0.27311 0.03085 0.10751 0.0
H332 H 0.23526 0.02642 0.06107 0.0
H333 H 0.87148 0.26619 0.34439 0.0
H334 H 0.90282 0.26202 0.29862 0.0
H335 H 0.92488 0.32645 0.20336 0.0
H336 H 0.8913 0.32867 0.24219 0.0
H337 H 0.92325 0.29828 0.11541 0.0
H338 H 0.96949 0.2835 0.32872 0.0
H339 H 0.93865 0.26248 0.3304 0.0
H340 H 0.94927 0.29422 0.34279 0.0
C341 C 0.88367 0.28011 0.31626 0.0
C342 C 0.87932 0.29832 0.29944 0.0
C343 C 0.90187 0.27778 0.29008 0.0
C344 C 0.91694 0.29413 0.24807 0.0
C345 C 0.9138 0.31355 0.2358 0.0
H346 H 0.99663 0.22947 0.09205 0.0
H347 H 0.99302 0.26243 0.14423 0.0
C348 C 0.89496 0.31538 0.26013 0.0
C349 C 0.93299 0.28862 0.20916 0.0
H350 H 0.96459 0.25978 0.21932 0.0
C351 C 0.93282 0.29048 0.13893 0.0
C352 C 0.94655 0.27925 0.2386 0.0
C353 C 0.95121 0.28009 0.31444 0.0
C354 C 0.94387 0.28147 0.09729 0.0
C355 C 0.9541 0.26867 0.12525 0.0
C356 C 0.95615 0.26874 0.19632 0.0
C357 C 0.96029 0.25306 0.08199 0.0
C358 C 0.94436 0.28591 0.02372 0.0
C359 C 0.94417 0.23746 0.02638 0.0
C360 C 0.94719 0.21959 -0.00637 0.0
C361 C 0.96591 0.21609 0.01682 0.0
C362 C 0.98283 0.23238 0.06997 0.0
C363 C 0.98025 0.25088 0.10147 0.0
H364 H 0.94703 0.30398 0.01868 0.0
H365 H 0.95874 0.28455 0.00079 0.0
H366 H 0.92692 0.2728 -0.0054 0.0
H367 H 0.92807 0.23769 0.01126 0.0
H368 H 0.93343 0.20692 0.95429 0.0
H369 H 0.80913 0.73415 -0.00994 0.0
H370 H 0.78374 0.69722 0.03779 0.0
H371 H 0.75553 0.73329 0.15642 0.0
H372 H 0.78026 0.77005 0.10655 0.0
H373 H 0.79122 0.6944 0.16595 0.0
H374 H 0.69661 0.66873 0.11329 0.0
H375 H 0.71949 0.68995 0.06746 0.0
H376 H 0.71522 0.69921 0.15021 0.0
C377 C 0.79671 0.73393 0.02393 0.0
C378 C 0.79674 0.75509 0.04428 0.0
C379 C 0.7823 0.71281 0.05179 0.0
C380 C 0.76769 0.71228 0.10135 0.0
C381 C 0.76623 0.73289 0.11763 0.0
H382 H 0.74812 0.61981 0.41558 0.0
H383 H 0.75327 0.65409 0.3591 0.0
C384 C 0.78042 0.754 0.08881 0.0
C385 C 0.75716 0.69159 0.14252 0.0
H386 H 0.70591 0.6502 0.20141 0.0
C387 C 0.77251 0.68473 0.17314 0.0
C388 C 0.73272 0.67875 0.15232 0.0
C389 C 0.715 0.68436 0.11854 0.0
C390 C 0.76433 0.66566 0.21283 0.0
C391 C 0.7401 0.65332 0.22471 0.0
C392 C 0.72455 0.6599 0.19357 0.0
C393 C 0.73087 0.63292 0.26678 0.0
C394 C 0.78177 0.65856 0.2403 0.0
C395 C 0.71462 0.60951 0.23675 0.0
C396 C 0.71105 0.5898 0.27016 0.0
C397 C 0.72378 0.59319 0.33394 0.0
C398 C 0.73778 0.61658 0.36701 0.0
C399 C 0.74105 0.63623 0.33415 0.0
H400 H 0.79773 0.66557 0.21257 0.0
H401 H 0.78787 0.666 0.2945 0.0
H402 H 0.77334 0.63881 0.23685 0.0
H403 H 0.70641 0.6064 0.18502 0.0
H404 H 0.70057 0.57211 0.24254 0.0
H405 H 0.12407 0.47607 0.59836 0.0
H406 H 0.08697 0.44554 0.53128 0.0
H407 H 0.04737 0.44951 0.69162 0.0
H408 H 0.08441 0.48079 0.75747 0.0
H409 H 0.04434 0.40176 0.53446 0.0
H410 H 0.02854 0.47808 0.54014 0.0
H411 H 0.05654 0.48143 0.57343 0.0
H412 H 0.03176 0.46979 0.62273 0.0
C413 C 0.10762 0.4695 0.62099 0.0
C414 C 0.1072 0.48076 0.68349 0.0
C415 C 0.0863 0.45217 0.58211 0.0
C416 C 0.06424 0.44572 0.60536 0.0
C417 C 0.0641 0.45458 0.67179 0.0
H418 H 0.91991 0.35203 0.40145 0.0
H419 H 0.95919 0.36576 0.46227 0.0
C420 C 0.08534 0.4722 0.71004 0.0
C421 C 0.04184 0.43323 0.55697 0.0
H422 H 0.99768 0.44122 0.48489 0.0
C423 C 0.0341 0.41034 0.52353 0.0
C424 C 0.02875 0.44464 0.54105 0.0
C425 C 0.0369 0.46992 0.5706 0.0
C426 C 0.01341 0.39845 0.47591 0.0
C427 C 0.99989 0.40958 0.46202 0.0
C428 C 0.00788 0.43254 0.49512 0.0
C429 C 0.9773 0.39818 0.41419 0.0
C430 C 0.0066 0.37435 0.43992 0.0
C431 C 0.97423 0.41123 0.36482 0.0
C432 C 0.95167 0.40359 0.33087 0.0
C433 C 0.93161 0.38251 0.34463 0.0
C434 C 0.93504 0.36817 0.3888 0.0
C435 C 0.95761 0.37607 0.42386 0.0
H436 H 0.02225 0.3719 0.43906 0.0
H437 H 0.99338 0.36015 0.46737 0.0
H438 H 0.99852 0.37193 0.38688 0.0
H439 H 0.98906 0.42824 0.3558 0.0
H440 H 0.94963 0.41509 0.29741 0.0
H441 H 0.54651 0.61462 0.7108 0.0
H442 H 0.57344 0.60385 0.65993 0.0
H443 H 0.59903 0.66533 0.54935 0.0
H444 H 0.57343 0.67698 0.60408 0.0
H445 H 0.56838 0.58913 0.53789 0.0
H446 H 0.65957 0.66687 0.58219 0.0
H447 H 0.63606 0.66532 0.62824 0.0
H448 H 0.63946 0.67525 0.545 0.0
C449 C 0.55875 0.62645 0.6782 0.0
C450 C 0.55796 0.64676 0.66201 0.0
C451 C 0.57399 0.62015 0.64834 0.0
C452 C 0.58842 0.63364 0.60013 0.0
C453 C 0.58871 0.6548 0.58732 0.0
H454 H 0.61444 0.55419 0.27834 0.0
H455 H 0.60226 0.57956 0.33936 0.0
C456 C 0.57396 0.6615 0.6188 0.0
C457 C 0.6003 0.62375 0.55713 0.0
H458 H 0.65168 0.63766 0.48745 0.0
C459 C 0.58671 0.5998 0.52781 0.0
C460 C 0.6243 0.63735 0.54354 0.0
C461 C 0.64073 0.66253 0.57706 0.0
C462 C 0.59617 0.58916 0.48576 0.0
C463 C 0.61968 0.60313 0.46877 0.0
C464 C 0.63348 0.62701 0.49875 0.0
C465 C 0.63039 0.5927 0.42303 0.0
C466 C 0.58092 0.56273 0.4621 0.0
C467 C 0.65182 0.5937 0.44529 0.0
C468 C 0.65945 0.58003 0.40859 0.0
C469 C 0.64557 0.56478 0.34951 0.0
C470 C 0.62547 0.56567 0.32377 0.0
C471 C 0.61825 0.57986 0.35943 0.0
H472 H 0.56701 0.55349 0.49609 0.0
H473 H 0.5717 0.56015 0.41059 0.0
H474 H 0.5918 0.554 0.46011 0.0
H475 H 0.6618 0.60368 0.49355 0.0
H476 H 0.67493 0.57964 0.43019 0.0
H477 H 0.47918 0.07492 0.289 0.0
H478 H 0.45311 0.04065 0.34548 0.0
H479 H 0.41807 0.07764 0.41833 0.0
H480 H 0.44468 0.11241 0.36344 0.0
H481 H 0.43275 0.06184 0.52088 0.0
H482 H 0.38538 0.98696 0.31586 0.0
H483 H 0.41686 1.00206 0.31188 0.0
H484 H 0.40092 0.01774 0.29888 0.0
C485 C 0.46541 0.07553 0.31505 0.0
C486 C 0.46404 0.09651 0.32103 0.0
C487 C 0.45039 0.05579 0.34737 0.0
C488 C 0.43339 0.05632 0.3861 0.0
C489 C 0.43094 0.07665 0.38866 0.0
H490 H 0.34973 0.92579 0.58053 0.0
H491 H 0.35837 0.9607 0.52184 0.0
C492 C 0.44601 0.09648 0.35628 0.0
C493 C 0.42036 0.03693 0.42982 0.0
H494 H 0.38916 0.97616 0.42837 0.0
C495 C 0.42285 0.04312 0.50036 0.0
C496 C 0.40708 0.01242 0.40363 0.0
C497 C 0.40218 0.00442 0.32832 0.0
C498 C 0.41367 0.02559 0.54532 0.0
C499 C 0.402 1.00107 0.5195 0.0
C500 C 0.3983 0.99489 0.44869 0.0
C501 C 0.39534 0.98168 0.56466 0.0
C502 C 0.41682 0.03359 0.62023 0.0
C503 C 0.41289 0.98203 0.61056 0.0
C504 C 0.40794 0.96219 0.64465 0.0
C505 C 0.38534 0.94128 0.63333 0.0
C506 C 0.36726 0.94159 0.59124 0.0
C507 C 0.37226 0.9615 0.55691 0.0
H508 H 0.41785 0.05116 0.6291 0.0
H509 H 0.40201 0.02037 0.64599 0.0
H510 H 0.43378 0.03576 0.64389 0.0
H511 H 0.43094 0.99707 0.61683 0.0
H512 H 0.42237 0.96264 0.67631 0.0
H513 H 0.15006 0.07366 0.89304 0.0
H514 H 0.12367 0.08957 0.91034 0.0
H515 H 0.09219 0.04196 0.0615 0.0
H516 H 0.11829 0.02542 0.04284 0.0
H517 H 0.05924 0.05192 0.98326 0.0
H518 H 0.14314 0.13412 0.08952 0.0
H519 H 0.14381 0.12391 0.00394 0.0
H520 H 0.14145 0.10575 0.07072 0.0
C521 C 0.13693 0.06596 0.92821 0.0
C522 C 0.13635 0.04839 0.96681 0.0
C523 C 0.12196 0.07519 0.93844 0.0
C524 C 0.10639 0.06745 -0.01145 0.0
C525 C 0.10417 0.04834 0.02287 0.0
H526 H 0.07639 0.17492 0.15669 0.0
H527 H 0.08232 0.14059 0.15279 0.0
C528 C 0.119 0.03879 0.01189 0.0
C529 C 0.095 0.08142 0.01021 0.0
H530 H 0.10908 0.13801 0.06919 0.0
C531 C 0.07007 0.07069 0.00267 0.0
C532 C 0.10905 0.10577 0.03734 0.0
C533 C 0.13583 0.11803 0.0516 0.0
C534 C 0.05894 0.084 0.01865 0.0
C535 C 0.07313 0.10878 0.0416 0.0
C536 C 0.09801 0.11911 0.05149 0.0
C537 C 0.06319 0.12497 0.05237 0.0
C538 C 0.03214 0.07129 0.0115 0.0
C539 C 0.04909 0.12699 -0.00064 0.0
C540 C 0.0451 0.14632 0.00267 0.0
C541 C 0.05534 0.16413 0.05861 0.0
C542 C 0.06778 0.16113 0.11379 0.0
C543 C 0.07141 0.14161 0.11109 0.0
H544 H 0.02442 0.05204 0.01761 0.0
H545 H 0.02574 0.07941 0.0495 0.0
H546 H 0.02542 0.07247 0.95996 0.0
H547 H 0.04296 0.11491 0.95276 0.0
H548 H 0.03616 0.14864 0.95839 0.0
H549 H 0.89862 0.90807 -0.00774 0.0
H550 H 0.92576 0.95033 0.98194 0.0
H551 H 0.90052 0.97034 0.15571 0.0
H552 H 0.87257 0.92821 0.16359 0.0
H553 H 0.89573 0.99101 0.05672 0.0
H554 H 0.98698 0.00587 0.06652 0.0
H555 H 0.96696 0.98229 0.00187 0.0
H556 H 0.96252 0.97889 0.09 0.0
C557 C 0.89955 0.9215 0.02977 0.0
C558 C 0.88346 0.91487 0.07872 0.0
C559 C 0.91512 0.94575 0.02387 0.0
C560 C 0.9153 0.96376 0.06795 0.0
C561 C 0.90069 0.95693 0.12064 0.0
H562 H 1.00094 0.11891 0.0741 0.0
H563 H 0.9875 0.0772 0.09048 0.0
C564 C 0.88482 0.93281 0.12554 0.0
C565 C 0.92781 0.9893 0.05394 0.0
H566 H 0.9808 0.03573 0.01941 0.0
C567 C 0.91443 1.00077 0.04937 0.0
C568 C 0.95224 1.00233 0.04442 0.0
C569 C 0.96807 0.99177 0.05173 0.0
C570 C 0.92457 0.02454 0.0352 0.0
C571 C 0.94868 0.03717 0.02248 0.0
C572 C 0.96226 0.02597 0.02809 0.0
C573 C 0.95996 0.06217 0.0049 0.0
C574 C 0.90936 0.036 0.03543 0.0
C575 C 0.94995 0.06762 0.949 0.0
C576 C 0.95741 0.09138 0.94003 0.0
C577 C 0.97546 0.11021 0.98572 0.0
C578 C 0.98714 0.1048 0.03764 0.0
C579 C 0.97937 0.08094 0.0473 0.0
H580 H 0.89402 0.02659 0.06486 0.0
H581 H 0.91989 0.05505 0.05742 0.0
H582 H 0.90213 0.03513 0.98248 0.0
H583 H 0.93542 0.05345 0.91441 0.0
H584 H 0.94817 0.09502 0.8994 0.0
H585 H 0.9125 0.87854 0.10655 0.0
H586 H 0.95374 0.90932 0.0996 0.0
H587 H 0.95125 0.87431 0.90423 0.0
H588 H 0.91044 0.84289 0.91336 0.0
H589 H 0.98535 0.87772 0.98332 0.0
H590 H 0.99476 0.96706 0.01316 0.0
H591 H 0.98025 0.95025 0.08041 0.0
H592 H 0.96601 0.94011 -0.00577 0.0
C593 C 0.92038 0.87817 0.06053 0.0
C594 C 0.90814 0.85857 0.00988 0.0
C595 C 0.9441 0.89579 0.05661 0.0
C596 C 0.95591 0.89433 0.00135 0.0
C597 C 0.94274 0.87593 0.94761 0.0
H598 H 0.10444 0.98229 0.93153 0.0
H599 H 0.06258 0.9693 0.94228 0.0
C600 C 0.91924 0.85811 0.95225 0.0
C601 C 0.98251 0.90908 0.00451 0.0
H602 H 0.03072 0.96592 0.03759 0.0
C603 C 0.99511 0.89704 -0.00555 0.0
C604 C 0.99559 0.93435 0.01904 0.0
C605 C 0.9834 0.94869 0.02662 0.0
C606 C 0.02008 0.90928 -0.00097 0.0
C607 C 0.03322 0.9344 0.01672 0.0
C608 C 0.02074 0.94664 0.02551 0.0
C609 C 0.05982 0.94789 0.02366 0.0
C610 C 0.03211 0.89508 0.98353 0.0
C611 C 0.07279 0.94187 0.06951 0.0
C612 C 0.09665 0.94921 0.06318 0.0
C613 C 0.10818 0.96327 0.01222 0.0
C614 C 0.09615 0.97189 0.97228 0.0
C615 C 0.0721 0.96422 0.97788 0.0
H616 H 0.01963 0.87754 0.95345 0.0
H617 H 0.04752 0.90505 0.95485 0.0
H618 H 0.0387 0.89158 0.03187 0.0
H619 H 0.06389 0.92972 0.10628 0.0
H620 H 0.10535 0.94197 0.09377 0.0
H621 H 0.74874 0.498 0.43707 0.0
H622 H 0.76228 0.4693 0.42059 0.0
H623 H 0.71013 0.43311 0.24489 0.0
H624 H 0.69616 0.46166 0.26203 0.0
H625 H 0.71902 0.4015 0.32147 0.0
H626 H 0.80212 0.47916 0.26151 0.0
H627 H 0.79451 0.48387 0.34398 0.0
H628 H 0.77527 0.48019 0.26924 0.0
C629 C 0.73967 0.4835 0.39612 0.0
C630 C 0.72143 0.48213 0.3508 0.0
C631 C 0.74751 0.46718 0.38649 0.0
C632 C 0.73764 0.4494 0.33051 0.0
C633 C 0.7181 0.44675 0.28825 0.0
H634 H 0.83393 0.40378 0.19729 0.0
H635 H 0.80136 0.41226 0.1883 0.0
C636 C 0.71003 0.46299 0.29836 0.0
C637 C 0.74962 0.4357 0.31236 0.0
H638 H 0.8035 0.44401 0.277 0.0
C639 C 0.73743 0.4107 0.31116 0.0
C640 C 0.77343 0.44758 0.29692 0.0
C641 C 0.78705 0.47414 0.29221 0.0
C642 C 0.74883 0.39748 0.29801 0.0
C643 C 0.77316 0.40964 0.28693 0.0
C644 C 0.78491 0.43452 0.28559 0.0
C645 C 0.78757 0.39766 0.28071 0.0
C646 C 0.73464 0.37065 0.29528 0.0
C647 C 0.78984 0.38514 0.333 0.0
C648 C 0.8081 0.37966 0.33685 0.0
C649 C 0.82454 0.3868 0.289 0.0
C650 C 0.82109 0.39748 0.23372 0.0
C651 C 0.80263 0.40261 0.22917 0.0
H652 H 0.71533 0.36368 0.28161 0.0
H653 H 0.74073 0.36205 0.25779 0.0
H654 H 0.73694 0.36545 0.34603 0.0
H655 H 0.77901 0.38157 0.37438 0.0
H656 H 0.81085 0.37212 0.38118 0.0
H657 H 0.60979 0.43468 0.19392 0.0
H658 H 0.60413 0.39465 0.19638 0.0
H659 H 0.65862 0.42097 0.36714 0.0
H660 H 0.66355 0.46085 0.36638 0.0
H661 H 0.6301 0.371 0.19507 0.0
H662 H 0.59914 0.37452 0.44784 0.0
H663 H 0.60535 0.3973 0.39257 0.0
H664 H 0.62938 0.39651 0.43963 0.0
C665 C 0.62133 0.43216 0.22995 0.0
C666 C 0.63756 0.45107 0.27876 0.0
C667 C 0.61797 0.4092 0.2317 0.0
C668 C 0.63056 0.4046 0.28287 0.0
C669 C 0.6484 0.42395 0.32783 0.0
H670 H 0.56882 0.25669 0.39417 0.0
H671 H 0.6002 0.29857 0.38942 0.0
C672 C 0.65168 0.44695 0.32626 0.0
C673 C 0.62256 0.37931 0.29379 0.0
H674 H 0.59229 0.33755 0.4 0.0
C675 C 0.62225 0.36378 0.24046 0.0
C676 C 0.61229 0.36976 0.3531 0.0
C677 C 0.61133 0.38526 0.41149 0.0
C678 C 0.61107 0.33897 0.24354 0.0
C679 C 0.59952 0.32931 0.30097 0.0
C680 C 0.60118 0.34495 0.35608 0.0
C681 C 0.58256 0.30321 0.30039 0.0
C682 C 0.61106 0.3232 0.18426 0.0
C683 C 0.5623 0.29193 0.25223 0.0
C684 C 0.54452 0.26836 0.25527 0.0
C685 C 0.5465 0.25534 0.30638 0.0
C686 C 0.56703 0.26624 0.35376 0.0
C687 C 0.58487 0.29014 0.35114 0.0
H688 H 0.62689 0.33308 0.15697 0.0
H689 H 0.61083 0.30714 0.20098 0.0
H690 H 0.59495 0.31721 0.14779 0.0
H691 H 0.55974 0.30169 0.21365 0.0
H692 H 0.52884 0.26039 0.21821 0.0
H693 H 0.57056 0.22214 0.33737 0.0
H694 H 0.61024 0.25659 0.33298 0.0
H695 H 0.62537 0.21344 0.19347 0.0
H696 H 0.58539 0.17973 0.19506 0.0
H697 H 0.64769 0.25723 0.38302 0.0
H698 H 0.66165 0.27487 0.11887 0.0
H699 H 0.6322 0.25731 0.14383 0.0
H700 H 0.64938 0.24351 0.12251 0.0
C701 C 0.58166 0.22065 0.30169 0.0
C702 C 0.57448 0.19852 0.26446 0.0
C703 C 0.60466 0.2402 0.30041 0.0
C704 C 0.621 0.2379 0.26238 0.0
C705 C 0.61314 0.21617 0.22166 0.0
H706 H 0.76106 0.27292 0.37502 0.0
H707 H 0.7193 0.26164 0.36644 0.0
C708 C 0.59016 0.19678 0.22258 0.0
C709 C 0.64703 0.25612 0.27409 0.0
H710 H 0.697 0.28198 0.1926 0.0
C711 C 0.65835 0.2631 0.3412 0.0
C712 C 0.66124 0.26445 0.22025 0.0
C713 C 0.65038 0.25983 0.14747 0.0
C714 C 0.6833 0.27632 0.35545 0.0
C715 C 0.69752 0.2822 0.30123 0.0
C716 C 0.68625 0.27707 0.23441 0.0
C717 C 0.72363 0.29109 0.31229 0.0
C718 C 0.69414 0.28335 0.42871 0.0
C719 C 0.74027 0.31139 0.28431 0.0
C720 C 0.76441 0.31791 0.28905 0.0
C721 C 0.77227 0.30403 0.32111 0.0
C722 C 0.75568 0.28414 0.35056 0.0
C723 C 0.73172 0.27774 0.34605 0.0
H724 H 0.68238 0.2862 0.46125 0.0
H725 H 0.6962 0.26869 0.44714 0.0
H726 H 0.71188 0.29992 0.43501 0.0
H727 H 0.73445 0.32176 0.25703 0.0
H728 H 0.77658 0.33291 0.2642 0.0
H729 H 0.49068 0.74722 0.5837 0.0
H730 H 0.46368 0.76286 0.59063 0.0
H731 H 0.42876 0.7162 0.741 0.0
H732 H 0.45549 0.69987 0.7326 0.0
H733 H 0.39725 0.72506 0.65309 0.0
H734 H 0.47892 0.8086 0.76409 0.0
H735 H 0.48161 0.79792 0.68139 0.0
H736 H 0.47795 0.7804 0.75072 0.0
C737 C 0.47672 0.73968 0.61653 0.0
C738 C 0.4753 0.72243 0.65788 0.0
C739 C 0.46139 0.74877 0.62084 0.0
C740 C 0.44462 0.74123 0.66774 0.0
C741 C 0.44168 0.72244 0.70481 0.0
H742 H 0.41026 0.84949 0.7969 0.0
H743 H 0.41651 0.8156 0.8051 0.0
C744 C 0.45688 0.71301 0.69971 0.0
C745 C 0.43253 0.75506 0.68312 0.0
H746 H 0.44504 0.81186 0.73194 0.0
C747 C 0.40761 0.74399 0.671 0.0
C748 C 0.44593 0.77963 0.7084 0.0
C749 C 0.47255 0.7923 0.72763 0.0
C750 C 0.39593 0.75715 0.68036 0.0
C751 C 0.40956 0.78213 0.70106 0.0
C752 C 0.43438 0.79281 0.71583 0.0
C753 C 0.3992 0.79815 0.70409 0.0
C754 C 0.36912 0.74408 0.66864 0.0
C755 C 0.38595 0.79901 0.64656 0.0
C756 C 0.38173 0.81808 0.64292 0.0
C757 C 0.39092 0.8368 0.69628 0.0
C758 C 0.40246 0.835 0.75579 0.0
C759 C 0.40629 0.81573 0.76002 0.0
H760 H 0.3614 0.72512 0.6782 0.0
H761 H 0.36181 0.75264 0.70187 0.0
H762 H 0.36336 0.74419 0.61491 0.0
H763 H 0.38071 0.78619 0.60195 0.0
H764 H 0.37346 0.81944 0.59557 0.0
H765 H 0.23588 0.58144 0.654 0.0
H766 H 0.26276 0.62329 0.63892 0.0
H767 H 0.23652 0.64561 0.80579 0.0
H768 H 0.20881 0.60382 0.81832 0.0
H769 H 0.23182 0.6644 0.70214 0.0
H770 H 0.32347 0.68013 0.7204 0.0
H771 H 0.30382 0.65552 0.65791 0.0
H772 H 0.29908 0.65364 0.74625 0.0
C773 C 0.23652 0.59532 0.68906 0.0
C774 C 0.22022 0.58939 0.73729 0.0
C775 C 0.25195 0.61934 0.68044 0.0
C776 C 0.25178 0.63784 0.72109 0.0
C777 C 0.23696 0.63179 0.77331 0.0
H778 H 0.3365 0.79198 0.7093 0.0
H779 H 0.32319 0.75077 0.73102 0.0
C780 C 0.22121 0.60787 0.78087 0.0
C781 C 0.26413 0.66297 0.70363 0.0
H782 H 0.31704 0.70878 0.66642 0.0
C783 C 0.25055 0.6741 0.69516 0.0
C784 C 0.2886 0.67592 0.6945 0.0
C785 C 0.30464 0.66575 0.706 0.0
C786 C 0.26054 0.69747 0.67766 0.0
C787 C 0.2847 0.70998 0.6654 0.0
C788 C 0.29846 0.6991 0.67475 0.0
C789 C 0.29588 0.73458 0.64486 0.0
C790 C 0.24511 0.70868 0.67399 0.0
C791 C 0.28594 0.7392 0.58702 0.0
C792 C 0.2933 0.76271 0.57502 0.0
C793 C 0.31123 0.78207 0.61957 0.0
C794 C 0.32283 0.77744 0.6736 0.0
C795 C 0.31514 0.75387 0.6863 0.0
H796 H 0.22968 0.69967 0.70334 0.0
H797 H 0.25544 0.72795 0.6938 0.0
H798 H 0.23801 0.70696 0.62028 0.0
H799 H 0.27153 0.72462 0.55316 0.0
H800 H 0.28412 0.76574 0.53285 0.0
H801 H 0.44191 0.61664 0.78949 0.0
H802 H 0.40017 0.60475 0.79547 0.0
H803 H 0.40177 0.64314 0.62556 0.0
H804 H 0.4439 0.65585 0.62146 0.0
H805 H 0.36807 0.64023 0.71402 0.0
H806 H 0.35855 0.55177 0.64158 0.0
H807 H 0.37627 0.56627 0.72171 0.0
H808 H 0.38653 0.57931 0.64497 0.0
C809 C 0.43375 0.62372 0.75613 0.0
C810 C 0.44617 0.63733 0.70548 0.0
C811 C 0.40976 0.6166 0.75879 0.0
C812 C 0.39757 0.62235 0.70947 0.0
C813 C 0.4107 0.63829 0.66383 0.0
H814 H 0.25005 0.51643 0.58049 0.0
H815 H 0.29106 0.54827 0.57628 0.0
C816 C 0.43488 0.64578 0.66196 0.0
C817 C 0.37098 0.60876 0.69873 0.0
H818 H 0.32357 0.55192 0.66318 0.0
C819 C 0.35828 0.62093 0.70269 0.0
C820 C 0.35814 0.5836 0.682 0.0
C821 C 0.37053 0.56946 0.67157 0.0
C822 C 0.33313 0.60852 0.69229 0.0
C823 C 0.32029 0.58323 0.67862 0.0
C824 C 0.33316 0.57126 0.67353 0.0
C825 C 0.29365 0.56835 0.67123 0.0
C826 C 0.32067 0.62272 0.69484 0.0
C827 C 0.28064 0.56974 0.72331 0.0
C828 C 0.25681 0.55186 0.72428 0.0
C829 C 0.24571 0.53209 0.67391 0.0
C830 C 0.25801 0.53174 0.61908 0.0
C831 C 0.28161 0.54982 0.61728 0.0
H832 H 0.33235 0.64106 0.68169 0.0
H833 H 0.30389 0.61396 0.65964 0.0
H834 H 0.31633 0.62434 0.74725 0.0
H835 H 0.28941 0.5834 0.76636 0.0
H836 H 0.24796 0.55217 0.76823 0.0
H837 H 0.06332 0.20529 0.78641 0.0
H838 H 0.05547 0.20089 0.66285 0.0
H839 H 0.98172 0.17793 0.67812 0.0
H840 H 0.98927 0.18219 0.8022 0.0
H841 H 0.0176 0.15658 0.57259 0.0
H842 H 0.01029 0.23818 0.56453 0.0
H843 H 0.02571 0.23389 0.6363 0.0
H844 H 0.9938 0.21759 0.62301 0.0
C845 C 0.04539 0.19925 0.76369 0.0
C846 C 0.02693 0.1942 0.80423 0.0
C847 C 0.04097 0.1967 0.69312 0.0
C848 C 0.01812 0.1893 0.66189 0.0
C849 C 0.99952 0.18385 0.70175 0.0
H850 H 0.96132 0.14835 0.23821 0.0
H851 H 0.96822 0.15109 0.36163 0.0
C852 C 1.00387 0.18621 0.77248 0.0
C853 C 0.01391 0.18761 0.58743 0.0
H854 H 1.00394 0.2152 0.45983 0.0
C855 C 0.01454 0.16931 0.54776 0.0
C856 C 0.01022 0.20448 0.55578 0.0
C857 C 0.01007 0.22479 0.59677 0.0
C858 C 0.01128 0.16728 0.47666 0.0
C859 C 0.00732 0.18398 0.44501 0.0
C860 C 0.00693 0.20243 0.48467 0.0
C861 C 1.00334 0.18244 0.37054 0.0
C862 C 0.01233 0.1475 0.43566 0.0
C863 C 0.0208 0.19937 0.33522 0.0
C864 C 0.01701 0.19786 0.26457 0.0
C865 C 0.99555 0.17952 0.22838 0.0
C866 C 0.97803 0.16273 0.2644 0.0
C867 C 0.98193 0.16418 0.33486 0.0
H868 H 0.01939 0.13851 0.46749 0.0
H869 H 0.99415 0.13393 0.41189 0.0
H870 H 0.02369 0.15462 0.39422 0.0
H871 H 0.03741 0.21364 0.36232 0.0
H872 H 0.03082 0.21111 0.23847 0.0
H873 H 0.81844 0.86876 0.8046 0.0
H874 H 0.8225 0.8668 0.68366 0.0
H875 H 0.85122 0.8204 0.70796 0.0
H876 H 0.84748 0.82236 0.82964 0.0
H877 H 0.87767 0.86029 0.63299 0.0
H878 H 0.78107 0.80861 0.53898 0.0
H879 H 0.79037 0.8347 0.59811 0.0
H880 H 0.79233 0.80994 0.6257 0.0
C881 C 0.82555 0.85804 0.78445 0.0
C882 C 0.83255 0.84562 0.82693 0.0
C883 C 0.82773 0.85687 0.71519 0.0
C884 C 0.83685 0.84322 0.68701 0.0
C885 C 0.844 0.83092 0.729 0.0
H886 H 0.86793 0.81201 0.29274 0.0
H887 H 0.865 0.81749 0.41333 0.0
C888 C 0.84179 0.83202 0.7984 0.0
C889 C 0.83945 0.84229 0.61386 0.0
H890 H 0.8078 0.82351 0.45639 0.0
C891 C 0.86243 0.85221 0.59426 0.0
C892 C 0.81948 0.83193 0.5638 0.0
C893 C 0.79438 0.8205 0.58243 0.0
C894 C 0.86602 0.85215 0.52552 0.0
C895 C 0.84604 0.84143 0.4754 0.0
C896 C 0.82306 0.83176 0.49505 0.0
C897 C 0.84849 0.83899 0.40236 0.0
C898 C 0.89117 0.86381 0.50719 0.0
C899 C 0.83969 0.84886 0.356 0.0
C900 C 0.84113 0.8456 0.28659 0.0
C901 C 0.85131 0.8323 0.26247 0.0
C902 C 0.86013 0.8225 0.30937 0.0
C903 C 0.85862 0.82572 0.37852 0.0
H904 H 0.90411 0.87713 0.54917 0.0
H905 H 0.89608 0.84992 0.49725 0.0
H906 H 0.89285 0.87285 0.46074 0.0
H907 H 0.83164 0.85902 0.37355 0.0
H908 H 0.83414 0.85336 0.25193 0.0
H909 H 0.14612 0.95918 0.7124 0.0
H910 H 0.15001 0.96813 0.59544 0.0
H911 H 0.18917 0.04363 0.66466 0.0
H912 H 0.18573 0.03493 0.78264 0.0
H913 H 0.13503 0.99473 0.52363 0.0
H914 H 0.23329 0.03425 0.544 0.0
H915 H 0.21565 0.01711 0.60734 0.0
H916 H 0.2229 0.04755 0.60492 0.0
C917 C 0.15556 0.97773 0.70309 0.0
C918 C 0.16578 0.99635 0.75708 0.0
C919 C 0.15772 0.98278 0.6361 0.0
C920 C 0.17015 0.00649 0.62169 0.0
C921 C 0.17989 0.02519 0.67506 0.0
H922 H 0.20227 0.06566 0.2398 0.0
H923 H 0.19766 0.05965 0.35886 0.0
C924 C 0.1778 0.02017 0.74233 0.0
C925 C 0.17291 0.01141 0.55051 0.0
H926 H 0.21417 0.03454 0.4391 0.0
C927 C 0.15231 1.00346 0.50505 0.0
C928 C 0.19551 0.02273 0.52675 0.0
C929 C 0.21812 0.03075 0.57302 0.0
C930 C 0.15372 0.00662 0.43614 0.0
C931 C 0.1763 0.01774 0.41235 0.0
C932 C 0.19691 0.02597 0.45787 0.0
C933 C 0.17892 0.02108 0.34021 0.0
C934 C 0.13113 0.99829 0.38945 0.0
C935 C 0.17015 1.00129 0.29069 0.0
C936 C 0.17277 0.0046 0.22244 0.0
C937 C 0.18424 0.02779 0.20283 0.0
C938 C 0.19322 0.04754 0.25299 0.0
C939 C 0.19066 0.04419 0.32109 0.0
H940 H 0.11596 0.99503 0.41814 0.0
H941 H 0.13363 0.01164 0.35404 0.0
H942 H 0.12641 0.9813 0.35867 0.0
H943 H 0.16135 0.98331 0.30492 0.0
H944 H 0.16566 0.98901 0.18514 0.0
H945 H 0.70581 0.5395 0.54786 0.0
H946 H 0.71377 0.54215 0.67139 0.0
H947 H 0.63941 0.49284 0.68214 0.0
H948 H 0.63114 0.49009 0.55914 0.0
H949 H 0.68725 0.55476 0.77428 0.0
H950 H 0.68037 0.46608 0.78179 0.0
H951 H 0.68763 0.48189 0.70763 0.0
H952 H 0.65759 0.46713 0.72827 0.0
C953 C 0.69115 0.52916 0.57643 0.0
C954 C 0.66784 0.51457 0.54359 0.0
C955 C 0.69574 0.53074 0.64688 0.0
C956 C 0.67718 0.51755 0.68529 0.0
C957 C 0.65395 0.50299 0.65294 0.0
H958 H 0.6644 0.52363 0.1149 0.0
H959 H 0.65842 0.52087 -0.00908 0.0
C960 C 0.64929 0.50154 0.58272 0.0
C961 C 0.6819 0.51924 0.7596 0.0
H962 H 0.68401 0.48759 0.88725 0.0
C963 C 0.68665 0.54016 0.79914 0.0
C964 C 0.68114 0.50012 0.7913 0.0
C965 C 0.67656 0.47753 0.75033 0.0
C966 C 0.69026 0.54229 0.87023 0.0
C967 C 0.68904 0.52298 0.90198 0.0
C968 C 0.68474 0.50224 0.86238 0.0
C969 C 0.69242 0.52415 0.9765 0.0
C970 C 0.69545 0.56512 0.91112 0.0
C971 C 0.71337 0.52655 0.00876 0.0
C972 C 0.71691 0.52822 0.07942 0.0
C973 C 0.69941 0.52726 0.1189 0.0
C974 C 0.6782 0.52438 0.08604 0.0
C975 C 0.67478 0.52291 0.01534 0.0
H976 H 0.69935 0.57963 0.87875 0.0
H977 H 0.67977 0.56176 0.93738 0.0
H978 H 0.71082 0.57125 0.95062 0.0
H979 H 0.7271 0.52744 0.97927 0.0
H980 H 0.73339 0.5303 0.10304 0.0
H981 H 0.54532 0.16563 0.55436 0.0
H982 H 0.54014 0.16784 0.67437 0.0
H983 H 0.48921 0.19036 0.63082 0.0
H984 H 0.49397 0.1879 0.50988 0.0
H985 H 0.54573 0.20591 0.76674 0.0
H986 H 0.45267 0.12923 0.72532 0.0
H987 H 0.47289 0.13605 0.66164 0.0
H988 H 0.45872 0.15332 0.67562 0.0
C989 C 0.53311 0.17123 0.57012 0.0
C990 C 0.51981 0.17631 0.52237 0.0
C991 C 0.53024 0.17251 0.63877 0.0
C992 C 0.51399 0.1788 0.66091 0.0
C993 C 0.50152 0.18503 0.61418 0.0
H994 H 0.46891 0.19036 0.05079 0.0
H995 H 0.47423 0.18857 0.93068 0.0
C996 C 0.5044 0.18379 0.54528 0.0
C997 C 0.50967 0.17807 0.73276 0.0
H998 H 0.46733 0.14882 0.83729 0.0
C999 C 0.52862 0.19344 0.78234 0.0
C1000 C 0.48736 0.16159 0.75247 0.0
C1001 C 0.46676 0.14394 0.70115 0.0
C1002 C 0.52571 0.19307 0.85152 0.0
C1003 C 0.50338 0.17666 0.87118 0.0
C1004 C 0.48443 0.16129 0.82165 0.0
C1005 C 0.49909 0.17594 0.943 0.0
C1006 C 0.54636 0.21052 0.90301 0.0
C1007 C 0.51085 0.16874 -0.01098 0.0
C1008 C 0.50783 0.16967 0.05787 0.0
C1009 C 0.49306 0.17789 0.08142 0.0
C1010 C 0.48061 0.18418 0.03443 0.0
C1011 C 0.48356 0.18312 0.96578 0.0
H1012 H 0.56077 0.22495 0.87895 0.0
H1013 H 0.54035 0.21879 0.94185 0.0
H1014 H 0.55389 0.20086 0.92943 0.0
H1015 H 0.52266 0.16282 0.97184 0.0
H1016 H 0.51764 0.1647 0.09278 0.0
H1017 H 0.88298 0.39501 0.58111 0.0
H1018 H 0.87737 0.38685 0.69839 0.0
H1019 H 0.83077 0.31182 0.63066 0.0
H1020 H 0.83643 0.31967 0.51272 0.0
H1021 H 0.83416 0.36612 0.75505 0.0
H1022 H 0.879 0.31287 0.7771 0.0
H1023 H 0.88272 0.33111 0.70924 0.0
H1024 H 0.85611 0.3025 0.70667 0.0
C1025 C 0.87162 0.37672 0.5909 0.0
C1026 C 0.86019 0.35797 0.53739 0.0
C1027 C 0.86844 0.37213 0.65802 0.0
C1028 C 0.85387 0.34875 0.673 0.0
C1029 C 0.84243 0.32995 0.62001 0.0
H1030 H 0.81367 0.2892 0.05099 0.0
H1031 H 0.81677 0.29589 0.93193 0.0
C1032 C 0.84563 0.3345 0.55269 0.0
C1033 C 0.85021 0.34427 0.74419 0.0
H1034 H 0.85943 0.31573 0.8702 0.0
C1035 C 0.8397 0.35514 0.78038 0.0
C1036 C 0.85747 0.32991 0.77671 0.0
C1037 C 0.86964 0.31856 0.74077 0.0
C1038 C 0.83607 0.35187 0.84845 0.0
C1039 C 0.84346 0.33764 0.88105 0.0
C1040 C 0.8538 0.32662 0.84475 0.0
C1041 C 0.84081 0.33404 0.95311 0.0
C1042 C 0.82407 0.36336 0.88464 0.0
C1043 C 0.85335 0.35336 0.00424 0.0
C1044 C 0.85165 0.34965 0.07251 0.0
C1045 C 0.83746 0.32651 0.09066 0.0
C1046 C 0.82476 0.30726 0.03899 0.0
C1047 C 0.8265 0.311 0.97087 0.0
H1048 H 0.8144 0.36875 0.84838 0.0
H1049 H 0.81131 0.35102 0.91724 0.0
H1050 H 0.83775 0.37963 0.91774 0.0
H1051 H 0.8648 0.37123 -0.00866 0.0
H1052 H 0.86172 0.36487 0.11093 0.0
H1053 H 0.3241 0.84471 0.42858 0.0
H1054 H 0.31603 0.84065 0.30486 0.0
H1055 H 0.39143 0.87837 0.28923 0.0
H1056 H 0.39978 0.88269 0.41237 0.0
H1057 H 0.36491 0.89608 0.21833 0.0
H1058 H 0.32508 0.7978 0.15921 0.0
H1059 H 0.31264 0.80736 0.22387 0.0
H1060 H 0.34289 0.81404 0.23876 0.0
C1061 C 0.33899 0.85194 0.39887 0.0
C1062 C 0.3626 0.86406 0.43058 0.0
C1063 C 0.33432 0.84952 0.32818 0.0
C1064 C 0.35316 0.85907 0.28817 0.0
C1065 C 0.37668 0.87085 0.31943 0.0
H1066 H 0.36899 0.8746 0.86245 0.0
H1067 H 0.37518 0.87707 0.9861 0.0
C1068 C 0.38137 0.87326 0.38988 0.0
C1069 C 0.34851 0.85784 0.21383 0.0
H1070 H 0.32488 0.8192 0.06791 0.0
C1071 C 0.35619 0.8793 0.1853 0.0
C1072 C 0.33705 0.83589 0.1713 0.0
C1073 C 0.32906 0.81242 0.19951 0.0
C1074 C 0.35255 0.8794 0.11502 0.0
C1075 C 0.34136 0.85747 0.07231 0.0
C1076 C 0.33349 0.83598 0.10094 0.0
C1077 C 0.33767 0.85639 -0.00234 0.0
C1078 C 0.36031 0.90291 0.08728 0.0
C1079 C 0.31457 0.84358 0.96326 0.0
C1080 C 0.31096 0.84198 0.89265 0.0
C1081 C 0.33043 0.85311 0.85504 0.0
C1082 C 0.35359 0.86599 0.88981 0.0
C1083 C 0.35717 0.8675 0.9605 0.0
H1084 H 0.36262 0.91697 0.12719 0.0
H1085 H 0.37767 0.90906 0.06733 0.0
H1086 H 0.34721 0.90098 0.04505 0.0
H1087 H 0.29931 0.83483 -0.00888 0.0
H1088 H 0.29288 0.83194 0.86764 0.0
H1089 H 0.207 0.48671 0.95715 0.0
H1090 H 0.20306 0.49113 0.07764 0.0
H1091 H 0.16837 0.53142 0.03776 0.0
H1092 H 0.17189 0.52687 0.91663 0.0
H1093 H 0.2199 0.53254 0.16913 0.0
H1094 H 0.12108 0.47743 0.13898 0.0
H1095 H 0.1386 0.4776 0.07229 0.0
H1096 H 0.13311 0.50184 0.08841 0.0
C1097 C 0.19857 0.49658 0.97376 0.0
C1098 C 0.18959 0.50628 0.92693 0.0
C1099 C 0.19636 0.49909 0.04274 0.0
C1100 C 0.18508 0.51125 0.06629 0.0
C1101 C 0.1767 0.52155 0.02025 0.0
H1102 H 0.15281 0.53962 0.46597 0.0
H1103 H 0.15769 0.53774 0.3454 0.0
C1104 C 0.17886 0.51903 0.9511 0.0
C1105 C 0.18205 0.51296 0.13913 0.0
H1106 H 0.14006 0.4964 0.24927 0.0
C1107 C 0.20247 0.52463 0.18676 0.0
C1108 C 0.15925 0.50257 0.16172 0.0
C1109 C 0.13672 0.48896 0.11285 0.0
C1110 C 0.20069 0.5264 0.25661 0.0
C1111 C 0.1779 0.51591 0.27917 0.0
C1112 C 0.15749 0.50439 0.23157 0.0
C1113 C 0.17485 0.51672 0.35211 0.0
C1114 C 0.22318 0.53979 0.30567 0.0
C1115 C 0.18254 0.50516 0.39542 0.0
C1116 C 0.17977 0.50613 0.46445 0.0
C1117 C 0.16918 0.51867 0.49127 0.0
C1118 C 0.16114 0.5299 0.44723 0.0
C1119 C 0.16388 0.52885 0.37827 0.0
H1120 H 0.23885 0.55147 0.27983 0.0
H1121 H 0.22127 0.55096 0.34676 0.0
H1122 H 0.22675 0.52677 0.32943 0.0
H1123 H 0.19068 0.49535 0.37579 0.0
H1124 H 0.18613 0.49725 0.49679 0.0
H1125 H 0.48943 0.63221 0.41485 0.0
H1126 H 0.49266 0.64084 0.29741 0.0
H1127 H 0.52608 0.71623 0.3642 0.0
H1128 H 0.52325 0.70789 0.48247 0.0
H1129 H 0.47381 0.66434 0.22498 0.0
H1130 H 0.57266 0.7118 0.24299 0.0
H1131 H 0.55631 0.69386 0.30695 0.0
H1132 H 0.56078 0.72336 0.30415 0.0
C1133 C 0.49751 0.65067 0.40487 0.0
C1134 C 0.50622 0.66938 0.45825 0.0
C1135 C 0.4993 0.65553 0.33763 0.0
C1136 C 0.50987 0.67915 0.32241 0.0
C1137 C 0.51826 0.6979 0.3752 0.0
H1138 H 0.5369 0.73903 0.94023 0.0
H1139 H 0.53253 0.73267 0.05918 0.0
C1140 C 0.51653 0.69307 0.44268 0.0
C1141 C 0.51187 0.68398 0.25097 0.0
H1142 H 0.55208 0.71043 0.13868 0.0
C1143 C 0.4909 0.67442 0.20599 0.0
C1144 C 0.53423 0.69711 0.2267 0.0
C1145 C 0.55732 0.70698 0.27244 0.0
C1146 C 0.49168 0.67776 0.13709 0.0
C1147 C 0.51403 0.6907 0.11275 0.0
C1148 C 0.53499 0.70049 0.15782 0.0
C1149 C 0.51608 0.69424 0.04049 0.0
C1150 C 0.46863 0.66768 0.09105 0.0
C1151 C 0.50844 0.67468 -0.00911 0.0
C1152 C 0.51091 0.67821 0.92271 0.0
C1153 C 0.52116 0.70139 0.90316 0.0
C1154 C 0.52886 0.72093 0.95333 0.0
C1155 C 0.52641 0.71737 0.02138 0.0
H1156 H 0.4533 0.66324 0.12029 0.0
H1157 H 0.46975 0.68051 0.0553 0.0
H1158 H 0.46508 0.65104 0.06065 0.0
H1159 H 0.50077 0.65673 0.00504 0.0
H1160 H 0.50482 0.66277 0.88547 0.0
loop_
_geom_bond_atom_site_label_1
_geom_bond_atom_site_label_2
_geom_bond_distance
_geom_bond_site_symmetry_2
_ccdc_geom_bond_type
O0 Mn1 2.163 . S
O0 C14 1.244 . S
Mn1 O0 2.163 . S
Mn1 O4 2.160 1_454 S
Mn1 O5 2.221 . S
Mn1 O7 2.163 . S
Mn1 O9 2.160 1_455 S
Mn1 O19 2.221 1_455 S
O2 Mn3 2.087 . S
O2 C14 1.256 1_655 S
Mn3 O2 2.087 . S
Mn3 O10 2.089 . S
Mn3 O19 2.290 . S
Mn3 O20 2.251 . S
O4 Mn1 2.160 1_656 S
O4 C15 1.239 1_655 S
O5 Mn1 2.221 . S
O5 Mn6 2.290 1_554 S
O5 C16 1.278 . S
Mn6 O5 2.290 1_556 S
Mn6 O8 2.089 . S
Mn6 O11 2.251 1_556 S
Mn6 O12 2.087 1_556 S
O7 Mn1 2.163 . S
O7 C17 1.244 . S
O8 Mn6 2.089 . S
O8 C15 1.256 . S
O9 Mn1 2.160 1_655 S
O9 C18 1.239 . S
O10 Mn3 2.089 . S
O10 C18 1.256 . S
O11 Mn6 2.251 1_554 S
O11 C16 1.241 . S
O12 Mn6 2.087 1_554 S
O12 C17 1.256 . S
C13 O19 1.278 . S
C13 O20 1.241 . S
C14 O0 1.244 . S
C14 O2 1.256 1_455 S
C15 O4 1.239 1_455 S
C15 O8 1.256 . S
C16 O5 1.278 . S
C16 O11 1.241 . S
C17 O7 1.244 . S
C17 O12 1.256 . S
C18 O9 1.239 . S
C18 O10 1.256 . S
O19 Mn1 2.221 1_655 S
O19 Mn3 2.290 . S
O19 C13 1.278 . S
O20 Mn3 2.251 . S
O20 C13 1.241 . S
O21 Mn22 2.163 1_556 S
O21 C35 1.244 . S
Mn22 O21 2.163 1_554 S
Mn22 O25 2.160 . S
Mn22 O26 2.221 . S
Mn22 O28 2.163 . S
Mn22 O30 2.160 . S
Mn22 O40 2.221 . S
O23 Mn24 2.087 . S
O23 C35 1.256 . S
Mn24 O23 2.087 . S
Mn24 O31 2.089 1_556 S
Mn24 O40 2.290 1_556 S
Mn24 O41 2.251 . S
O25 Mn22 2.160 . S
O25 C36 1.239 . S
O26 Mn22 2.221 . S
O26 Mn27 2.290 . S
O26 C37 1.278 . S
Mn27 O26 2.290 . S
Mn27 O29 2.089 . S
Mn27 O32 2.251 . S
Mn27 O33 2.087 . S
O28 Mn22 2.163 . S
O28 C38 1.244 . S
O29 Mn27 2.089 . S
O29 C36 1.256 . S
O30 Mn22 2.160 . S
O30 C39 1.239 . S
O31 Mn24 2.089 1_554 S
O31 C39 1.256 . S
O32 Mn27 2.251 . S
O32 C37 1.241 . S
O33 Mn27 2.087 . S
O33 C38 1.256 . S
C34 O40 1.278 . S
C34 O41 1.241 1_554 S
C35 O21 1.244 . S
C35 O23 1.256 . S
C36 O25 1.239 . S
C36 O29 1.256 . S
C37 O26 1.278 . S
C37 O32 1.241 . S
C38 O28 1.244 . S
C38 O33 1.256 . S
C39 O30 1.239 . S
C39 O31 1.256 . S
O40 Mn22 2.221 . S
O40 Mn24 2.290 1_554 S
O40 C34 1.278 . S
O41 Mn24 2.251 . S
O41 C34 1.241 1_556 S
O42 Mn43 2.163 1_554 S
O42 C56 1.244 . S
Mn43 O42 2.163 1_556 S
Mn43 O46 2.160 . S
Mn43 O47 2.221 1_545 S
Mn43 O49 2.163 1_545 S
Mn43 O51 2.159 1_556 S
Mn43 O61 2.221 1_556 S
O44 Mn45 2.087 . S
O44 C56 1.256 . S
Mn45 O44 2.087 . S
Mn45 O52 2.089 . S
Mn45 O61 2.290 . S
Mn45 O62 2.251 . S
O46 Mn43 2.160 . S
O46 C57 1.239 . S
O47 Mn43 2.221 1_565 S
O47 Mn48 2.290 . S
O47 C58 1.278 . S
Mn48 O47 2.290 . S
Mn48 O50 2.089 . S
Mn48 O53 2.251 . S
Mn48 O54 2.087 . S
O49 Mn43 2.163 1_565 S
O49 C59 1.244 . S
O50 Mn48 2.089 . S
O50 C57 1.256 1_565 S
O51 Mn43 2.159 1_554 S
O51 C60 1.244 . S
O52 Mn45 2.089 . S
O52 C60 1.256 . S
O53 Mn48 2.251 . S
O53 C58 1.241 . S
O54 Mn48 2.087 . S
O54 C59 1.256 . S
C55 O61 1.278 . S
C55 O62 1.241 . S
C56 O42 1.244 . S
C56 O44 1.256 . S
C57 O46 1.239 . S
C57 O50 1.256 1_545 S
C58 O47 1.278 . S
C58 O53 1.241 . S
C59 O49 1.244 . S
C59 O54 1.256 . S
C60 O51 1.244 . S
C60 O52 1.256 . S
O61 Mn43 2.221 1_554 S
O61 Mn45 2.290 . S
O61 C55 1.278 . S
O62 Mn45 2.251 . S
O62 C55 1.241 . S
O63 Mn64 2.163 . S
O63 C77 1.244 . S
Mn64 O63 2.163 . S
Mn64 O67 2.160 . S
Mn64 O68 2.221 . S
Mn64 O70 2.163 . S
Mn64 O72 2.160 . S
Mn64 O82 2.221 . S
O65 Mn66 2.087 . S
O65 C77 1.256 . S
Mn66 O65 2.087 . S
Mn66 O73 2.089 . S
Mn66 O82 2.290 . S
Mn66 O83 2.251 . S
O67 Mn64 2.160 . S
O67 C78 1.239 . S
O68 Mn64 2.221 . S
O68 Mn69 2.290 . S
O68 C79 1.278 . S
Mn69 O68 2.290 . S
Mn69 O71 2.089 . S
Mn69 O74 2.251 . S
Mn69 O75 2.087 . S
O70 Mn64 2.163 . S
O70 C80 1.244 . S
O71 Mn69 2.089 . S
O71 C78 1.256 . S
O72 Mn64 2.160 . S
O72 C81 1.239 . S
O73 Mn66 2.089 . S
O73 C81 1.256 . S
O74 Mn69 2.251 . S
O74 C79 1.241 . S
O75 Mn69 2.087 . S
O75 C80 1.256 . S
C76 O82 1.278 . S
C76 O83 1.241 . S
C77 O63 1.244 . S
C77 O65 1.256 . S
C78 O67 1.239 . S
C78 O71 1.256 . S
C79 O68 1.278 . S
C79 O74 1.241 . S
C80 O70 1.244 . S
C80 O75 1.256 . S
C81 O72 1.239 . S
C81 O73 1.256 . S
O82 Mn64 2.221 . S
O82 Mn66 2.290 . S
O82 C76 1.278 . S
O83 Mn66 2.251 . S
O83 C76 1.241 . S
O84 Mn85 2.163 . S
O84 C98 1.244 . S
Mn85 O84 2.163 . S
Mn85 O88 2.160 . S
Mn85 O89 2.221 . S
Mn85 O91 2.163 . S
Mn85 O93 2.160 . S
Mn85 O103 2.221 . S
O86 Mn87 2.087 . S
O86 C98 1.256 . S
Mn87 O86 2.087 . S
Mn87 O94 2.089 . S
Mn87 O103 2.290 . S
Mn87 O104 2.251 . S
O88 Mn85 2.160 . S
O88 C99 1.239 . S
O89 Mn85 2.221 . S
O89 Mn90 2.290 . S
O89 C100 1.278 . S
Mn90 O89 2.290 . S
Mn90 O92 2.089 . S
Mn90 O95 2.251 . S
Mn90 O96 2.087 . S
O91 Mn85 2.163 . S
O91 C101 1.244 . S
O92 Mn90 2.089 . S
O92 C99 1.256 . S
O93 Mn85 2.160 . S
O93 C102 1.239 . S
O94 Mn87 2.089 . S
O94 C102 1.256 . S
O95 Mn90 2.251 . S
O95 C100 1.241 . S
O96 Mn90 2.087 . S
O96 C101 1.256 . S
C97 O103 1.278 . S
C97 O104 1.241 . S
C98 O84 1.244 . S
C98 O86 1.256 . S
C99 O88 1.239 . S
C99 O92 1.256 . S
C100 O89 1.278 . S
C100 O95 1.241 . S
C101 O91 1.244 . S
C101 O96 1.256 . S
C102 O93 1.239 . S
C102 O94 1.256 . S
O103 Mn85 2.221 . S
O103 Mn87 2.290 . S
O103 C97 1.278 . S
O104 Mn87 2.251 . S
O104 C97 1.241 . S
O105 Mn106 2.163 . S
O105 C119 1.244 . S
Mn106 O105 2.163 . S
Mn106 O109 2.160 . S
Mn106 O110 2.221 . S
Mn106 O112 2.163 . S
Mn106 O114 2.160 . S
Mn106 O124 2.221 . S
O107 Mn108 2.087 . S
O107 C119 1.256 . S
Mn108 O107 2.087 . S
Mn108 O115 2.089 . S
Mn108 O124 2.290 . S
Mn108 O125 2.251 . S
O109 Mn106 2.160 . S
O109 C120 1.239 . S
O110 Mn106 2.221 . S
O110 Mn111 2.290 . S
O110 C121 1.278 . S
Mn111 O110 2.290 . S
Mn111 O113 2.089 . S
Mn111 O116 2.251 . S
Mn111 O117 2.087 . S
O112 Mn106 2.163 . S
O112 C122 1.244 . S
O113 Mn111 2.089 . S
O113 C120 1.256 . S
O114 Mn106 2.160 . S
O114 C123 1.239 . S
O115 Mn108 2.089 . S
O115 C123 1.256 . S
O116 Mn111 2.251 . S
O116 C121 1.241 . S
O117 Mn111 2.087 . S
O117 C122 1.256 . S
C118 O124 1.278 . S
C118 O125 1.241 . S
C119 O105 1.244 . S
C119 O107 1.256 . S
C120 O109 1.239 . S
C120 O113 1.256 . S
C121 O110 1.278 . S
C121 O116 1.241 . S
C122 O112 1.244 . S
C122 O117 1.256 . S
C123 O114 1.239 . S
C123 O115 1.256 . S
O124 Mn106 2.221 . S
O124 Mn108 2.290 . S
O124 C118 1.278 . S
O125 Mn108 2.251 . S
O125 C118 1.241 . S
O126 Mn127 2.163 . S
O126 C140 1.244 . S
Mn127 O126 2.163 . S
Mn127 O130 2.160 . S
Mn127 O131 2.221 . S
Mn127 O133 2.163 . S
Mn127 O135 2.160 . S
Mn127 O145 2.221 . S
O128 Mn129 2.087 . S
O128 C140 1.256 . S
Mn129 O128 2.087 . S
Mn129 O136 2.089 . S
Mn129 O145 2.290 . S
Mn129 O146 2.251 . S
O130 Mn127 2.160 . S
O130 C141 1.239 . S
O131 Mn127 2.221 . S
O131 Mn132 2.290 . S
O131 C142 1.278 . S
Mn132 O131 2.290 . S
Mn132 O134 2.089 . S
Mn132 O137 2.251 . S
Mn132 O138 2.087 . S
O133 Mn127 2.163 . S
O133 C143 1.244 . S
O134 Mn132 2.089 . S
O134 C141 1.256 . S
O135 Mn127 2.160 . S
O135 C144 1.239 . S
O136 Mn129 2.089 . S
O136 C144 1.256 . S
O137 Mn132 2.251 . S
O137 C142 1.241 . S
O138 Mn132 2.087 . S
O138 C143 1.256 . S
C139 O145 1.278 . S
C139 O146 1.241 . S
C140 O126 1.244 . S
C140 O128 1.256 . S
C141 O130 1.239 . S
C141 O134 1.256 . S
C142 O131 1.278 . S
C142 O137 1.241 . S
C143 O133 1.244 . S
C143 O138 1.256 . S
C144 O135 1.239 . S
C144 O136 1.256 . S
O145 Mn127 2.221 . S
O145 Mn129 2.290 . S
O145 C139 1.278 . S
O146 Mn129 2.251 . S
O146 C139 1.241 . S
O147 Mn148 2.163 . S
O147 C161 1.244 . S
Mn148 O147 2.163 . S
Mn148 O151 2.160 . S
Mn148 O152 2.221 . S
Mn148 O154 2.163 . S
Mn148 O156 2.160 . S
Mn148 O166 2.221 . S
O149 Mn150 2.087 . S
O149 C161 1.256 . S
Mn150 O149 2.087 . S
Mn150 O157 2.089 . S
Mn150 O166 2.290 . S
Mn150 O167 2.251 . S
O151 Mn148 2.160 . S
O151 C162 1.239 . S
O152 Mn148 2.221 . S
O152 Mn153 2.290 . S
O152 C163 1.278 . S
Mn153 O152 2.290 . S
Mn153 O155 2.089 . S
Mn153 O158 2.251 . S
Mn153 O159 2.087 . S
O154 Mn148 2.163 . S
O154 C164 1.244 . S
O155 Mn153 2.089 . S
O155 C162 1.256 . S
O156 Mn148 2.160 . S
O156 C165 1.239 . S
O157 Mn150 2.089 . S
O157 C165 1.256 . S
O158 Mn153 2.251 . S
O158 C163 1.241 . S
O159 Mn153 2.087 . S
O159 C164 1.256 . S
C160 O166 1.278 . S
C160 O167 1.241 . S
C161 O147 1.244 . S
C161 O149 1.256 . S
C162 O151 1.239 . S
C162 O155 1.256 . S
C163 O152 1.278 . S
C163 O158 1.241 . S
C164 O154 1.244 . S
C164 O159 1.256 . S
C165 O156 1.239 . S
C165 O157 1.256 . S
O166 Mn148 2.221 . S
O166 Mn150 2.290 . S
O166 C160 1.278 . S
O167 Mn150 2.251 . S
O167 C160 1.241 . S
O168 Mn169 2.163 . S
O168 C182 1.244 . S
Mn169 O168 2.163 . S
Mn169 O172 2.160 . S
Mn169 O173 2.221 . S
Mn169 O175 2.163 . S
Mn169 O177 2.160 . S
Mn169 O187 2.221 . S
O170 Mn171 2.087 . S
O170 C182 1.256 . S
Mn171 O170 2.087 . S
Mn171 O178 2.089 . S
Mn171 O187 2.290 . S
Mn171 O188 2.251 . S
O172 Mn169 2.160 . S
O172 C183 1.239 . S
O173 Mn169 2.221 . S
O173 Mn174 2.290 . S
O173 C184 1.278 . S
Mn174 O173 2.290 . S
Mn174 O176 2.089 . S
Mn174 O179 2.251 . S
Mn174 O180 2.087 . S
O175 Mn169 2.163 . S
O175 C185 1.244 . S
O176 Mn174 2.089 . S
O176 C183 1.256 . S
O177 Mn169 2.160 . S
O177 C186 1.239 . S
O178 Mn171 2.089 . S
O178 C186 1.256 . S
O179 Mn174 2.251 . S
O179 C184 1.241 . S
O180 Mn174 2.087 . S
O180 C185 1.256 . S
C181 O187 1.278 . S
C181 O188 1.241 . S
C182 O168 1.244 . S
C182 O170 1.256 . S
C183 O172 1.239 . S
C183 O176 1.256 . S
C184 O173 1.278 . S
C184 O179 1.241 . S
C185 O175 1.244 . S
C185 O180 1.256 . S
C186 O177 1.239 . S
C186 O178 1.256 . S
O187 Mn169 2.221 . S
O187 Mn171 2.290 . S
O187 C181 1.278 . S
O188 Mn171 2.251 . S
O188 C181 1.241 . S
H189 C197 0.929 . S
H190 C199 0.930 . S
H191 C201 0.930 . S
H192 C204 0.929 . S
H193 C207 0.930 . S
H194 C209 0.960 . S
H195 C209 0.960 . S
H196 C209 0.960 . S
C197 H189 0.929 . S
C197 C198 1.377 . S
C197 C199 1.384 . S
C198 C197 1.377 . S
C198 C204 1.390 1_554 S
C199 H190 0.930 . S
C199 C197 1.384 . S
C199 C200 1.372 1_554 S
C200 C199 1.372 1_556 S
C200 C201 1.400 . S
C200 C205 1.490 . S
C201 H191 0.930 . S
C201 C200 1.400 . S
C201 C204 1.386 . S
H202 C218 0.930 . S
H203 C219 0.931 . S
C204 H192 0.929 . S
C204 C198 1.390 1_556 S
C204 C201 1.386 . S
C205 C200 1.490 . S
C205 C207 1.395 . S
C205 C208 1.403 . S
H206 C212 0.930 . S
C207 H193 0.930 . S
C207 C205 1.395 . S
C207 C210 1.403 . S
C208 C205 1.403 . S
C208 C209 1.524 . S
C208 C212 1.400 . S
C209 H194 0.960 . S
C209 H195 0.960 . S
C209 H196 0.960 . S
C209 C208 1.524 . S
C210 C207 1.403 . S
C210 C211 1.392 . S
C210 C214 1.495 . S
C211 C210 1.392 . S
C211 C212 1.385 . S
C211 C213 1.478 . S
C212 H206 0.930 . S
C212 C208 1.400 . S
C212 C211 1.385 . S
C213 C211 1.478 . S
C213 C215 1.381 . S
C213 C219 1.383 . S
C214 C210 1.495 . S
C214 H220 0.959 . S
C214 H221 0.961 . S
C214 H222 0.960 . S
C215 C213 1.381 . S
C215 C216 1.394 . S
C215 H223 0.930 . S
C216 C215 1.394 . S
C216 C217 1.383 . S
C216 H224 0.929 . S
C217 C216 1.383 . S
C217 C218 1.377 . S
C218 H202 0.930 . S
C218 C217 1.377 . S
C218 C219 1.379 . S
C219 H203 0.931 . S
C219 C213 1.383 . S
C219 C218 1.379 . S
H220 C214 0.959 . S
H221 C214 0.961 . S
H222 C214 0.960 . S
H223 C215 0.930 . S
H224 C216 0.929 . S
H225 C233 0.929 . S
H226 C235 0.930 . S
H227 C237 0.930 . S
H228 C240 0.929 1_556 S
H229 C243 0.930 1_554 S
H230 C245 0.960 . S
H231 C245 0.960 . S
H232 C245 0.960 . S
C233 H225 0.929 . S
C233 C234 1.377 . S
C233 C235 1.384 . S
C234 C233 1.377 . S
C234 C240 1.390 . S
C235 H226 0.930 . S
C235 C233 1.384 . S
C235 C236 1.372 1_554 S
C236 C235 1.372 1_556 S
C236 C237 1.400 . S
C236 C241 1.490 . S
C237 H227 0.930 . S
C237 C236 1.400 . S
C237 C240 1.386 1_556 S
H238 C254 0.930 . S
H239 C255 0.931 . S
C240 H228 0.929 1_554 S
C240 C234 1.390 . S
C240 C237 1.386 1_554 S
C241 C236 1.490 . S
C241 C243 1.395 . S
C241 C244 1.403 . S
H242 C248 0.930 . S
C243 H229 0.930 1_556 S
C243 C241 1.395 . S
C243 C246 1.403 . S
C244 C241 1.403 . S
C244 C245 1.524 . S
C244 C248 1.400 . S
C245 H230 0.960 . S
C245 H231 0.960 . S
C245 H232 0.960 . S
C245 C244 1.524 . S
C246 C243 1.403 . S
C246 C247 1.392 . S
C246 C250 1.495 1_556 S
C247 C246 1.392 . S
C247 C248 1.385 . S
C247 C249 1.478 . S
C248 H242 0.930 . S
C248 C244 1.400 . S
C248 C247 1.385 . S
C249 C247 1.478 . S
C249 C251 1.381 . S
C249 C255 1.383 . S
C250 C246 1.495 1_554 S
C250 H256 0.959 . S
C250 H257 0.961 1_554 S
C250 H258 0.960 1_554 S
C251 C249 1.381 . S
C251 C252 1.394 . S
C251 H259 0.930 . S
C252 C251 1.394 . S
C252 C253 1.383 . S
C252 H260 0.929 . S
C253 C252 1.383 . S
C253 C254 1.377 . S
C254 H238 0.930 . S
C254 C253 1.377 . S
C254 C255 1.379 . S
C255 H239 0.931 . S
C255 C249 1.383 . S
C255 C254 1.379 . S
H256 C250 0.959 . S
H257 C250 0.961 1_556 S
H258 C250 0.960 1_556 S
H259 C251 0.930 . S
H260 C252 0.929 . S
H261 C269 0.929 . S
H262 C271 0.930 . S
H263 C273 0.930 . S
H264 C276 0.929 . S
H265 C279 0.930 . S
H266 C281 0.960 . S
H267 C281 0.960 . S
H268 C281 0.960 . S
C269 H261 0.929 . S
C269 C270 1.377 . S
C269 C271 1.384 . S
C270 C269 1.377 . S
C270 C276 1.390 . S
C271 H262 0.930 . S
C271 C269 1.384 . S
C271 C272 1.372 . S
C272 C271 1.372 . S
C272 C273 1.400 . S
C272 C277 1.490 . S
C273 H263 0.930 . S
C273 C272 1.400 . S
C273 C276 1.386 . S
H274 C290 0.930 . S
H275 C291 0.931 . S
C276 H264 0.929 . S
C276 C270 1.390 . S
C276 C273 1.386 . S
C277 C272 1.490 . S
C277 C279 1.395 . S
C277 C280 1.403 . S
H278 C284 0.930 . S
C279 H265 0.930 . S
C279 C277 1.395 . S
C279 C282 1.403 . S
C280 C277 1.403 . S
C280 C281 1.524 . S
C280 C284 1.400 . S
C281 H266 0.960 . S
C281 H267 0.960 . S
C281 H268 0.960 . S
C281 C280 1.524 . S
C282 C279 1.403 . S
C282 C283 1.392 . S
C282 C286 1.495 . S
C283 C282 1.392 . S
C283 C284 1.385 . S
C283 C285 1.478 . S
C284 H278 0.930 . S
C284 C280 1.400 . S
C284 C283 1.385 . S
C285 C283 1.478 . S
C285 C287 1.381 . S
C285 C291 1.383 . S
C286 C282 1.495 . S
C286 H292 0.959 . S
C286 H293 0.961 . S
C286 H294 0.960 . S
C287 C285 1.381 . S
C287 C288 1.394 . S
C287 H295 0.930 . S
C288 C287 1.394 . S
C288 C289 1.383 . S
C288 H296 0.929 . S
C289 C288 1.383 . S
C289 C290 1.377 . S
C290 H274 0.930 . S
C290 C289 1.377 . S
C290 C291 1.379 . S
C291 H275 0.931 . S
C291 C285 1.383 . S
C291 C290 1.379 . S
H292 C286 0.959 . S
H293 C286 0.961 . S
H294 C286 0.960 . S
H295 C287 0.930 . S
H296 C288 0.929 . S
H297 C305 0.929 . S
H298 C307 0.930 . S
H299 C309 0.930 . S
H300 C312 0.929 . S
H301 C315 0.930 . S
H302 C317 0.960 . S
H303 C317 0.960 . S
H304 C317 0.960 . S
C305 H297 0.929 . S
C305 C306 1.377 . S
C305 C307 1.384 . S
C306 C305 1.377 . S
C306 C312 1.390 . S
C307 H298 0.930 . S
C307 C305 1.384 . S
C307 C308 1.372 . S
C308 C307 1.372 . S
C308 C309 1.400 . S
C308 C313 1.490 . S
C309 H299 0.930 . S
C309 C308 1.400 . S
C309 C312 1.386 . S
H310 C326 0.930 . S
H311 C327 0.931 . S
C312 H300 0.929 . S
C312 C306 1.390 . S
C312 C309 1.386 . S
C313 C308 1.490 . S
C313 C315 1.395 . S
C313 C316 1.403 . S
H314 C320 0.930 . S
C315 H301 0.930 . S
C315 C313 1.395 . S
C315 C318 1.403 . S
C316 C313 1.403 . S
C316 C317 1.524 . S
C316 C320 1.400 . S
C317 H302 0.960 . S
C317 H303 0.960 . S
C317 H304 0.960 . S
C317 C316 1.524 . S
C318 C315 1.403 . S
C318 C319 1.392 . S
C318 C322 1.495 . S
C319 C318 1.392 . S
C319 C320 1.385 . S
C319 C321 1.478 . S
C320 H314 0.930 . S
C320 C316 1.400 . S
C320 C319 1.385 . S
C321 C319 1.478 . S
C321 C323 1.381 . S
C321 C327 1.383 . S
C322 C318 1.495 . S
C322 H328 0.959 . S
C322 H329 0.961 . S
C322 H330 0.960 . S
C323 C321 1.381 . S
C323 C324 1.394 . S
C323 H331 0.930 . S
C324 C323 1.394 . S
C324 C325 1.383 . S
C324 H332 0.929 1_554 S
C325 C324 1.383 . S
C325 C326 1.377 . S
C326 H310 0.930 . S
C326 C325 1.377 . S
C326 C327 1.379 . S
C327 H311 0.931 . S
C327 C321 1.383 . S
C327 C326 1.379 . S
H328 C322 0.959 . S
H329 C322 0.961 . S
H330 C322 0.960 . S
H331 C323 0.930 . S
H332 C324 0.929 1_556 S
H333 C341 0.929 . S
H334 C343 0.930 . S
H335 C345 0.930 . S
H336 C348 0.929 . S
H337 C351 0.930 . S
H338 C353 0.960 . S
H339 C353 0.960 . S
H340 C353 0.960 . S
C341 H333 0.929 . S
C341 C342 1.377 . S
C341 C343 1.384 . S
C342 C341 1.377 . S
C342 C348 1.390 . S
C343 H334 0.930 . S
C343 C341 1.384 . S
C343 C344 1.372 . S
C344 C343 1.372 . S
C344 C345 1.400 . S
C344 C349 1.490 . S
C345 H335 0.930 . S
C345 C344 1.400 . S
C345 C348 1.386 . S
H346 C362 0.930 . S
H347 C363 0.931 . S
C348 H336 0.929 . S
C348 C342 1.390 . S
C348 C345 1.386 . S
C349 C344 1.490 . S
C349 C351 1.395 . S
C349 C352 1.403 . S
H350 C356 0.930 . S
C351 H337 0.930 . S
C351 C349 1.395 . S
C351 C354 1.403 . S
C352 C349 1.403 . S
C352 C353 1.524 . S
C352 C356 1.400 . S
C353 H338 0.960 . S
C353 H339 0.960 . S
C353 H340 0.960 . S
C353 C352 1.524 . S
C354 C351 1.403 . S
C354 C355 1.392 . S
C354 C358 1.495 . S
C355 C354 1.392 . S
C355 C356 1.385 . S
C355 C357 1.478 . S
C356 H350 0.930 . S
C356 C352 1.400 . S
C356 C355 1.385 . S
C357 C355 1.478 . S
C357 C359 1.381 . S
C357 C363 1.383 . S
C358 C354 1.495 . S
C358 H364 0.959 . S
C358 H365 0.961 . S
C358 H366 0.960 . S
C359 C357 1.381 . S
C359 C360 1.394 . S
C359 H367 0.930 . S
C360 C359 1.394 . S
C360 C361 1.383 . S
C360 H368 0.929 . S
C361 C360 1.383 . S
C361 C362 1.377 . S
C362 H346 0.930 . S
C362 C361 1.377 . S
C362 C363 1.379 . S
C363 H347 0.931 . S
C363 C357 1.383 . S
C363 C362 1.379 . S
H364 C358 0.959 . S
H365 C358 0.961 . S
H366 C358 0.960 . S
H367 C359 0.930 . S
H368 C360 0.929 . S
H369 C377 0.929 . S
H370 C379 0.930 . S
H371 C381 0.930 . S
H372 C384 0.929 . S
H373 C387 0.930 . S
H374 C389 0.960 . S
H375 C389 0.960 . S
H376 C389 0.960 . S
C377 H369 0.929 . S
C377 C378 1.377 . S
C377 C379 1.384 . S
C378 C377 1.377 . S
C378 C384 1.390 . S
C379 H370 0.930 . S
C379 C377 1.384 . S
C379 C380 1.372 . S
C380 C379 1.372 . S
C380 C381 1.400 . S
C380 C385 1.490 . S
C381 H371 0.930 . S
C381 C380 1.400 . S
C381 C384 1.386 . S
H382 C398 0.930 . S
H383 C399 0.931 . S
C384 H372 0.929 . S
C384 C378 1.390 . S
C384 C381 1.386 . S
C385 C380 1.490 . S
C385 C387 1.395 . S
C385 C388 1.403 . S
H386 C392 0.930 . S
C387 H373 0.930 . S
C387 C385 1.395 . S
C387 C390 1.403 . S
C388 C385 1.403 . S
C388 C389 1.524 . S
C388 C392 1.400 . S
C389 H374 0.960 . S
C389 H375 0.960 . S
C389 H376 0.960 . S
C389 C388 1.524 . S
C390 C387 1.403 . S
C390 C391 1.392 . S
C390 C394 1.495 . S
C391 C390 1.392 . S
C391 C392 1.385 . S
C391 C393 1.478 . S
C392 H386 0.930 . S
C392 C388 1.400 . S
C392 C391 1.385 . S
C393 C391 1.478 . S
C393 C395 1.381 . S
C393 C399 1.383 . S
C394 C390 1.495 . S
C394 H400 0.959 . S
C394 H401 0.961 . S
C394 H402 0.960 . S
C395 C393 1.381 . S
C395 C396 1.394 . S
C395 H403 0.930 . S
C396 C395 1.394 . S
C396 C397 1.383 . S
C396 H404 0.929 . S
C397 C396 1.383 . S
C397 C398 1.377 . S
C398 H382 0.930 . S
C398 C397 1.377 . S
C398 C399 1.379 . S
C399 H383 0.931 . S
C399 C393 1.383 . S
C399 C398 1.379 . S
H400 C394 0.959 . S
H401 C394 0.961 . S
H402 C394 0.960 . S
H403 C395 0.930 . S
H404 C396 0.929 . S
H405 C413 0.929 . S
H406 C415 0.930 . S
H407 C417 0.930 . S
H408 C420 0.929 . S
H409 C423 0.930 . S
H410 C425 0.960 . S
H411 C425 0.960 . S
H412 C425 0.960 . S
C413 H405 0.929 . S
C413 C414 1.377 . S
C413 C415 1.384 . S
C414 C413 1.377 . S
C414 C420 1.390 . S
C415 H406 0.930 . S
C415 C413 1.384 . S
C415 C416 1.372 . S
C416 C415 1.372 . S
C416 C417 1.400 . S
C416 C421 1.490 . S
C417 H407 0.930 . S
C417 C416 1.400 . S
C417 C420 1.386 . S
H418 C434 0.930 . S
H419 C435 0.931 . S
C420 H408 0.929 . S
C420 C414 1.390 . S
C420 C417 1.386 . S
C421 C416 1.490 . S
C421 C423 1.395 . S
C421 C424 1.403 . S
H422 C428 0.930 . S
C423 H409 0.930 . S
C423 C421 1.395 . S
C423 C426 1.403 1_455 S
C424 C421 1.403 . S
C424 C425 1.524 . S
C424 C428 1.400 1_455 S
C425 H410 0.960 . S
C425 H411 0.960 . S
C425 H412 0.960 . S
C425 C424 1.524 . S
C426 C423 1.403 1_655 S
C426 C427 1.392 . S
C426 C430 1.495 . S
C427 C426 1.392 . S
C427 C428 1.385 . S
C427 C429 1.478 . S
C428 H422 0.930 . S
C428 C424 1.400 1_655 S
C428 C427 1.385 . S
C429 C427 1.478 . S
C429 C431 1.381 . S
C429 C435 1.383 . S
C430 C426 1.495 . S
C430 H436 0.959 1_655 S
C430 H437 0.961 . S
C430 H438 0.960 . S
C431 C429 1.381 . S
C431 C432 1.394 . S
C431 H439 0.930 . S
C432 C431 1.394 . S
C432 C433 1.383 . S
C432 H440 0.929 . S
C433 C432 1.383 . S
C433 C434 1.377 . S
C434 H418 0.930 . S
C434 C433 1.377 . S
C434 C435 1.379 . S
C435 H419 0.931 . S
C435 C429 1.383 . S
C435 C434 1.379 . S
H436 C430 0.959 1_455 S
H437 C430 0.961 . S
H438 C430 0.960 . S
H439 C431 0.930 . S
H440 C432 0.929 . S
H441 C449 0.929 . S
H442 C451 0.930 . S
H443 C453 0.930 . S
H444 C456 0.929 . S
H445 C459 0.930 . S
H446 C461 0.960 . S
H447 C461 0.960 . S
H448 C461 0.960 . S
C449 H441 0.929 . S
C449 C450 1.377 . S
C449 C451 1.384 . S
C450 C449 1.377 . S
C450 C456 1.390 . S
C451 H442 0.930 . S
C451 C449 1.384 . S
C451 C452 1.372 . S
C452 C451 1.372 . S
C452 C453 1.400 . S
C452 C457 1.490 . S
C453 H443 0.930 . S
C453 C452 1.400 . S
C453 C456 1.386 . S
H454 C470 0.930 . S
H455 C471 0.931 . S
C456 H444 0.929 . S
C456 C450 1.390 . S
C456 C453 1.386 . S
C457 C452 1.490 . S
C457 C459 1.395 . S
C457 C460 1.403 . S
H458 C464 0.930 . S
C459 H445 0.930 . S
C459 C457 1.395 . S
C459 C462 1.403 . S
C460 C457 1.403 . S
C460 C461 1.524 . S
C460 C464 1.400 . S
C461 H446 0.960 . S
C461 H447 0.960 . S
C461 H448 0.960 . S
C461 C460 1.524 . S
C462 C459 1.403 . S
C462 C463 1.392 . S
C462 C466 1.495 . S
C463 C462 1.392 . S
C463 C464 1.385 . S
C463 C465 1.478 . S
C464 H458 0.930 . S
C464 C460 1.400 . S
C464 C463 1.385 . S
C465 C463 1.478 . S
C465 C467 1.381 . S
C465 C471 1.383 . S
C466 C462 1.495 . S
C466 H472 0.959 . S
C466 H473 0.961 . S
C466 H474 0.960 . S
C467 C465 1.381 . S
C467 C468 1.394 . S
C467 H475 0.930 . S
C468 C467 1.394 . S
C468 C469 1.383 . S
C468 H476 0.929 . S
C469 C468 1.383 . S
C469 C470 1.377 . S
C470 H454 0.930 . S
C470 C469 1.377 . S
C470 C471 1.379 . S
C471 H455 0.931 . S
C471 C465 1.383 . S
C471 C470 1.379 . S
H472 C466 0.959 . S
H473 C466 0.961 . S
H474 C466 0.960 . S
H475 C467 0.930 . S
H476 C468 0.929 . S
H477 C485 0.929 . S
H478 C487 0.930 . S
H479 C489 0.930 . S
H480 C492 0.929 . S
H481 C495 0.930 . S
H482 C497 0.972 . S
H483 C497 0.960 . S
H484 C497 0.960 . S
C485 H477 0.929 . S
C485 C486 1.377 . S
C485 C487 1.384 . S
C486 C485 1.377 . S
C486 C492 1.390 . S
C487 H478 0.930 . S
C487 C485 1.384 . S
C487 C488 1.372 . S
C488 C487 1.372 . S
C488 C489 1.400 . S
C488 C493 1.490 . S
C489 H479 0.930 . S
C489 C488 1.400 . S
C489 C492 1.386 . S
H490 C506 0.930 . S
H491 C507 0.931 . S
C492 H480 0.929 . S
C492 C486 1.390 . S
C492 C489 1.386 . S
C493 C488 1.490 . S
C493 C495 1.395 . S
C493 C496 1.403 . S
H494 C500 0.930 . S
C495 H481 0.930 . S
C495 C493 1.395 . S
C495 C498 1.403 . S
C496 C493 1.403 . S
C496 C497 1.524 . S
C496 C500 1.400 1_545 S
C497 H482 0.972 . S
C497 H483 0.960 . S
C497 H484 0.960 . S
C497 C496 1.524 . S
C498 C495 1.403 . S
C498 C499 1.392 1_545 S
C498 C502 1.495 . S
C499 C498 1.392 1_565 S
C499 C500 1.385 . S
C499 C501 1.478 . S
C500 H494 0.930 . S
C500 C496 1.400 1_565 S
C500 C499 1.385 . S
C501 C499 1.478 . S
C501 C503 1.381 . S
C501 C507 1.383 . S
C502 C498 1.495 . S
C502 H508 0.959 . S
C502 H509 0.961 . S
C502 H510 0.960 1_545 S
C503 C501 1.381 . S
C503 C504 1.394 . S
C503 H511 0.930 . S
C504 C503 1.394 . S
C504 C505 1.383 . S
C504 H512 0.929 . S
C505 C504 1.383 . S
C505 C506 1.377 . S
C506 H490 0.930 . S
C506 C505 1.377 . S
C506 C507 1.379 . S
C507 H491 0.931 . S
C507 C501 1.383 . S
C507 C506 1.379 . S
H508 C502 0.959 . S
H509 C502 0.961 . S
H510 C502 0.960 1_565 S
H511 C503 0.930 . S
H512 C504 0.929 . S
H513 C521 0.929 . S
H514 C523 0.930 . S
H515 C525 0.930 . S
H516 C528 0.929 . S
H517 C531 0.930 1_556 S
H518 C533 0.960 . S
H519 C533 0.960 . S
H520 C533 0.960 . S
C521 H513 0.929 . S
C521 C522 1.377 1_556 S
C521 C523 1.384 . S
C522 C521 1.377 1_554 S
C522 C528 1.390 . S
C523 H514 0.930 . S
C523 C521 1.384 . S
C523 C524 1.372 1_556 S
C524 C523 1.372 1_554 S
C524 C525 1.400 . S
C524 C529 1.490 . S
C525 H515 0.930 . S
C525 C524 1.400 . S
C525 C528 1.386 . S
H526 C542 0.930 . S
H527 C543 0.931 . S
C528 H516 0.929 . S
C528 C522 1.390 . S
C528 C525 1.386 . S
C529 C524 1.490 . S
C529 C531 1.395 . S
C529 C532 1.403 . S
H530 C536 0.930 . S
C531 H517 0.930 1_554 S
C531 C529 1.395 . S
C531 C534 1.403 . S
C532 C529 1.403 . S
C532 C533 1.524 . S
C532 C536 1.400 . S
C533 H518 0.960 . S
C533 H519 0.960 . S
C533 H520 0.960 . S
C533 C532 1.524 . S
C534 C531 1.403 . S
C534 C535 1.392 . S
C534 C538 1.495 1_554 S
C535 C534 1.392 . S
C535 C536 1.385 . S
C535 C537 1.478 . S
C536 H530 0.930 . S
C536 C532 1.400 . S
C536 C535 1.385 . S
C537 C535 1.478 . S
C537 C539 1.381 . S
C537 C543 1.383 . S
C538 C534 1.495 1_556 S
C538 H544 0.959 . S
C538 H545 0.961 . S
C538 H546 0.960 . S
C539 C537 1.381 . S
C539 C540 1.394 . S
C539 H547 0.930 1_554 S
C540 C539 1.394 . S
C540 C541 1.383 . S
C540 H548 0.929 1_554 S
C541 C540 1.383 . S
C541 C542 1.377 . S
C542 H526 0.930 . S
C542 C541 1.377 . S
C542 C543 1.379 . S
C543 H527 0.931 . S
C543 C537 1.383 . S
C543 C542 1.379 . S
H544 C538 0.959 . S
H545 C538 0.961 . S
H546 C538 0.960 . S
H547 C539 0.930 1_556 S
H548 C540 0.929 1_556 S
H549 C557 0.929 1_556 S
H550 C559 0.930 1_556 S
H551 C561 0.930 . S
H552 C564 0.929 . S
H553 C567 0.930 1_565 S
H554 C569 0.960 1_545 S
H555 C569 0.960 . S
H556 C569 0.960 . S
C557 H549 0.929 1_554 S
C557 C558 1.377 . S
C557 C559 1.384 . S
C558 C557 1.377 . S
C558 C564 1.390 . S
C559 H550 0.930 1_554 S
C559 C557 1.384 . S
C559 C560 1.372 . S
C560 C559 1.372 . S
C560 C561 1.400 . S
C560 C565 1.490 . S
C561 H551 0.930 . S
C561 C560 1.400 . S
C561 C564 1.386 . S
H562 C578 0.930 . S
H563 C579 0.931 . S
C564 H552 0.929 . S
C564 C558 1.390 . S
C564 C561 1.386 . S
C565 C560 1.490 . S
C565 C567 1.395 1_565 S
C565 C568 1.403 1_565 S
H566 C572 0.930 . S
C567 H553 0.930 1_545 S
C567 C565 1.395 1_545 S
C567 C570 1.403 . S
C568 C565 1.403 1_545 S
C568 C569 1.524 1_545 S
C568 C572 1.400 . S
C569 H554 0.960 1_565 S
C569 H555 0.960 . S
C569 H556 0.960 . S
C569 C568 1.524 1_565 S
C570 C567 1.403 . S
C570 C571 1.392 . S
C570 C574 1.495 . S
C571 C570 1.392 . S
C571 C572 1.385 . S
C571 C573 1.478 . S
C572 H566 0.930 . S
C572 C568 1.400 . S
C572 C571 1.385 . S
C573 C571 1.478 . S
C573 C575 1.381 . S
C573 C579 1.383 . S
C574 C570 1.495 . S
C574 H580 0.959 . S
C574 H581 0.961 . S
C574 H582 0.960 . S
C575 C573 1.381 . S
C575 C576 1.394 . S
C575 H583 0.930 1_554 S
C576 C575 1.394 . S
C576 C577 1.383 . S
C576 H584 0.929 1_554 S
C577 C576 1.383 . S
C577 C578 1.377 . S
C578 H562 0.930 . S
C578 C577 1.377 . S
C578 C579 1.379 . S
C579 H563 0.931 . S
C579 C573 1.383 . S
C579 C578 1.379 . S
H580 C574 0.959 . S
H581 C574 0.961 . S
H582 C574 0.960 . S
H583 C575 0.930 1_556 S
H584 C576 0.929 1_556 S
H585 C593 0.929 . S
H586 C595 0.930 . S
H587 C597 0.930 . S
H588 C600 0.929 . S
H589 C603 0.930 . S
H590 C605 0.960 1_455 S
H591 C605 0.960 . S
H592 C605 0.960 . S
C593 H585 0.929 . S
C593 C594 1.377 . S
C593 C595 1.384 . S
C594 C593 1.377 . S
C594 C600 1.390 . S
C595 H586 0.930 . S
C595 C593 1.384 . S
C595 C596 1.372 . S
C596 C595 1.372 . S
C596 C597 1.400 . S
C596 C601 1.490 . S
C597 H587 0.930 . S
C597 C596 1.400 . S
C597 C600 1.386 . S
H598 C614 0.930 . S
H599 C615 0.931 . S
C600 H588 0.929 . S
C600 C594 1.390 . S
C600 C597 1.386 . S
C601 C596 1.490 . S
C601 C603 1.395 . S
C601 C604 1.403 . S
H602 C608 0.930 . S
C603 H589 0.930 . S
C603 C601 1.395 . S
C603 C606 1.403 1_655 S
C604 C601 1.403 . S
C604 C605 1.524 . S
C604 C608 1.400 1_655 S
C605 H590 0.960 1_655 S
C605 H591 0.960 . S
C605 H592 0.960 . S
C605 C604 1.524 . S
C606 C603 1.403 1_455 S
C606 C607 1.392 . S
C606 C610 1.495 1_554 S
C607 C606 1.392 . S
C607 C608 1.385 . S
C607 C609 1.478 . S
C608 H602 0.930 . S
C608 C604 1.400 1_455 S
C608 C607 1.385 . S
C609 C607 1.478 . S
C609 C611 1.381 . S
C609 C615 1.383 1_554 S
C610 C606 1.495 1_556 S
C610 H616 0.959 . S
C610 H617 0.961 . S
C610 H618 0.960 . S
C611 C609 1.381 . S
C611 C612 1.394 . S
C611 H619 0.930 . S
C612 C611 1.394 . S
C612 C613 1.383 . S
C612 H620 0.929 . S
C613 C612 1.383 . S
C613 C614 1.377 1_554 S
C614 H598 0.930 . S
C614 C613 1.377 1_556 S
C614 C615 1.379 . S
C615 H599 0.931 . S
C615 C609 1.383 1_556 S
C615 C614 1.379 . S
H616 C610 0.959 . S
H617 C610 0.961 . S
H618 C610 0.960 . S
H619 C611 0.930 . S
H620 C612 0.929 . S
H621 C629 0.929 . S
H622 C631 0.930 . S
H623 C633 0.930 . S
H624 C636 0.929 . S
H625 C639 0.930 . S
H626 C641 0.960 . S
H627 C641 0.960 . S
H628 C641 0.960 . S
C629 H621 0.929 . S
C629 C630 1.377 . S
C629 C631 1.384 . S
C630 C629 1.377 . S
C630 C636 1.390 . S
C631 H622 0.930 . S
C631 C629 1.384 . S
C631 C632 1.372 . S
C632 C631 1.372 . S
C632 C633 1.400 . S
C632 C637 1.490 . S
C633 H623 0.930 . S
C633 C632 1.400 . S
C633 C636 1.386 . S
H634 C650 0.930 . S
H635 C651 0.931 . S
C636 H624 0.929 . S
C636 C630 1.390 . S
C636 C633 1.386 . S
C637 C632 1.490 . S
C637 C639 1.395 . S
C637 C640 1.403 . S
H638 C644 0.930 . S
C639 H625 0.930 . S
C639 C637 1.395 . S
C639 C642 1.403 . S
C640 C637 1.403 . S
C640 C641 1.524 . S
C640 C644 1.400 . S
C641 H626 0.960 . S
C641 H627 0.960 . S
C641 H628 0.960 . S
C641 C640 1.524 . S
C642 C639 1.403 . S
C642 C643 1.392 . S
C642 C646 1.495 . S
C643 C642 1.392 . S
C643 C644 1.385 . S
C643 C645 1.478 . S
C644 H638 0.930 . S
C644 C640 1.400 . S
C644 C643 1.385 . S
C645 C643 1.478 . S
C645 C647 1.381 . S
C645 C651 1.383 . S
C646 C642 1.495 . S
C646 H652 0.959 . S
C646 H653 0.961 . S
C646 H654 0.960 . S
C647 C645 1.381 . S
C647 C648 1.394 . S
C647 H655 0.930 . S
C648 C647 1.394 . S
C648 C649 1.383 . S
C648 H656 0.929 . S
C649 C648 1.383 . S
C649 C650 1.377 . S
C650 H634 0.930 . S
C650 C649 1.377 . S
C650 C651 1.379 . S
C651 H635 0.931 . S
C651 C645 1.383 . S
C651 C650 1.379 . S
H652 C646 0.959 . S
H653 C646 0.961 . S
H654 C646 0.960 . S
H655 C647 0.930 . S
H656 C648 0.929 . S
H657 C665 0.929 . S
H658 C667 0.930 . S
H659 C669 0.930 . S
H660 C672 0.929 . S
H661 C675 0.930 . S
H662 C677 0.960 . S
H663 C677 0.960 . S
H664 C677 0.960 . S
C665 H657 0.929 . S
C665 C666 1.377 . S
C665 C667 1.384 . S
C666 C665 1.377 . S
C666 C672 1.390 . S
C667 H658 0.930 . S
C667 C665 1.384 . S
C667 C668 1.372 . S
C668 C667 1.372 . S
C668 C669 1.400 . S
C668 C673 1.490 . S
C669 H659 0.930 . S
C669 C668 1.400 . S
C669 C672 1.386 . S
H670 C686 0.930 . S
H671 C687 0.931 . S
C672 H660 0.929 . S
C672 C666 1.390 . S
C672 C669 1.386 . S
C673 C668 1.490 . S
C673 C675 1.395 . S
C673 C676 1.403 . S
H674 C680 0.930 . S
C675 H661 0.930 . S
C675 C673 1.395 . S
C675 C678 1.403 . S
C676 C673 1.403 . S
C676 C677 1.524 . S
C676 C680 1.400 . S
C677 H662 0.960 . S
C677 H663 0.960 . S
C677 H664 0.960 . S
C677 C676 1.524 . S
C678 C675 1.403 . S
C678 C679 1.392 . S
C678 C682 1.495 . S
C679 C678 1.392 . S
C679 C680 1.385 . S
C679 C681 1.478 . S
C680 H674 0.930 . S
C680 C676 1.400 . S
C680 C679 1.385 . S
C681 C679 1.478 . S
C681 C683 1.381 . S
C681 C687 1.383 . S
C682 C678 1.495 . S
C682 H688 0.959 . S
C682 H689 0.961 . S
C682 H690 0.960 . S
C683 C681 1.381 . S
C683 C684 1.394 . S
C683 H691 0.930 . S
C684 C683 1.394 . S
C684 C685 1.383 . S
C684 H692 0.929 . S
C685 C684 1.383 . S
C685 C686 1.377 . S
C686 H670 0.930 . S
C686 C685 1.377 . S
C686 C687 1.379 . S
C687 H671 0.931 . S
C687 C681 1.383 . S
C687 C686 1.379 . S
H688 C682 0.959 . S
H689 C682 0.961 . S
H690 C682 0.960 . S
H691 C683 0.930 . S
H692 C684 0.929 . S
H693 C701 0.929 . S
H694 C703 0.930 . S
H695 C705 0.930 . S
H696 C708 0.929 . S
H697 C711 0.930 . S
H698 C713 0.960 . S
H699 C713 0.960 . S
H700 C713 0.960 . S
C701 H693 0.929 . S
C701 C702 1.377 . S
C701 C703 1.384 . S
C702 C701 1.377 . S
C702 C708 1.390 . S
C703 H694 0.930 . S
C703 C701 1.384 . S
C703 C704 1.372 . S
C704 C703 1.372 . S
C704 C705 1.400 . S
C704 C709 1.490 . S
C705 H695 0.930 . S
C705 C704 1.400 . S
C705 C708 1.386 . S
H706 C722 0.930 . S
H707 C723 0.931 . S
C708 H696 0.929 . S
C708 C702 1.390 . S
C708 C705 1.386 . S
C709 C704 1.490 . S
C709 C711 1.395 . S
C709 C712 1.403 . S
H710 C716 0.930 . S
C711 H697 0.930 . S
C711 C709 1.395 . S
C711 C714 1.403 . S
C712 C709 1.403 . S
C712 C713 1.524 . S
C712 C716 1.400 . S
C713 H698 0.960 . S
C713 H699 0.960 . S
C713 H700 0.960 . S
C713 C712 1.524 . S
C714 C711 1.403 . S
C714 C715 1.392 . S
C714 C718 1.495 . S
C715 C714 1.392 . S
C715 C716 1.385 . S
C715 C717 1.478 . S
C716 H710 0.930 . S
C716 C712 1.400 . S
C716 C715 1.385 . S
C717 C715 1.478 . S
C717 C719 1.381 . S
C717 C723 1.383 . S
C718 C714 1.495 . S
C718 H724 0.959 . S
C718 H725 0.961 . S
C718 H726 0.960 . S
C719 C717 1.381 . S
C719 C720 1.394 . S
C719 H727 0.930 . S
C720 C719 1.394 . S
C720 C721 1.383 . S
C720 H728 0.929 . S
C721 C720 1.383 . S
C721 C722 1.377 . S
C722 H706 0.930 . S
C722 C721 1.377 . S
C722 C723 1.379 . S
C723 H707 0.931 . S
C723 C717 1.383 . S
C723 C722 1.379 . S
H724 C718 0.959 . S
H725 C718 0.961 . S
H726 C718 0.960 . S
H727 C719 0.930 . S
H728 C720 0.929 . S
H729 C737 0.929 . S
H730 C739 0.930 . S
H731 C741 0.930 . S
H732 C744 0.929 . S
H733 C747 0.930 . S
H734 C749 0.960 . S
H735 C749 0.960 . S
H736 C749 0.960 . S
C737 H729 0.929 . S
C737 C738 1.377 . S
C737 C739 1.384 . S
C738 C737 1.377 . S
C738 C744 1.390 . S
C739 H730 0.930 . S
C739 C737 1.384 . S
C739 C740 1.372 . S
C740 C739 1.372 . S
C740 C741 1.400 . S
C740 C745 1.490 . S
C741 H731 0.930 . S
C741 C740 1.400 . S
C741 C744 1.386 . S
H742 C758 0.930 . S
H743 C759 0.931 . S
C744 H732 0.929 . S
C744 C738 1.390 . S
C744 C741 1.386 . S
C745 C740 1.490 . S
C745 C747 1.395 . S
C745 C748 1.403 . S
H746 C752 0.930 . S
C747 H733 0.930 . S
C747 C745 1.395 . S
C747 C750 1.403 . S
C748 C745 1.403 . S
C748 C749 1.524 . S
C748 C752 1.400 . S
C749 H734 0.960 . S
C749 H735 0.960 . S
C749 H736 0.960 . S
C749 C748 1.524 . S
C750 C747 1.403 . S
C750 C751 1.392 . S
C750 C754 1.495 . S
C751 C750 1.392 . S
C751 C752 1.385 . S
C751 C753 1.478 . S
C752 H746 0.930 . S
C752 C748 1.400 . S
C752 C751 1.385 . S
C753 C751 1.478 . S
C753 C755 1.381 . S
C753 C759 1.383 . S
C754 C750 1.495 . S
C754 H760 0.959 . S
C754 H761 0.961 . S
C754 H762 0.960 . S
C755 C753 1.381 . S
C755 C756 1.394 . S
C755 H763 0.930 . S
C756 C755 1.394 . S
C756 C757 1.383 . S
C756 H764 0.929 . S
C757 C756 1.383 . S
C757 C758 1.377 . S
C758 H742 0.930 . S
C758 C757 1.377 . S
C758 C759 1.379 . S
C759 H743 0.931 . S
C759 C753 1.383 . S
C759 C758 1.379 . S
H760 C754 0.959 . S
H761 C754 0.961 . S
H762 C754 0.960 . S
H763 C755 0.930 . S
H764 C756 0.929 . S
H765 C773 0.929 . S
H766 C775 0.930 . S
H767 C777 0.930 . S
H768 C780 0.929 . S
H769 C783 0.930 . S
H770 C785 0.960 . S
H771 C785 0.960 . S
H772 C785 0.960 . S
C773 H765 0.929 . S
C773 C774 1.377 . S
C773 C775 1.384 . S
C774 C773 1.377 . S
C774 C780 1.390 . S
C775 H766 0.930 . S
C775 C773 1.384 . S
C775 C776 1.372 . S
C776 C775 1.372 . S
C776 C777 1.400 . S
C776 C781 1.490 . S
C777 H767 0.930 . S
C777 C776 1.400 . S
C777 C780 1.386 . S
H778 C794 0.930 . S
H779 C795 0.931 . S
C780 H768 0.929 . S
C780 C774 1.390 . S
C780 C777 1.386 . S
C781 C776 1.490 . S
C781 C783 1.395 . S
C781 C784 1.403 . S
H782 C788 0.930 . S
C783 H769 0.930 . S
C783 C781 1.395 . S
C783 C786 1.403 . S
C784 C781 1.403 . S
C784 C785 1.524 . S
C784 C788 1.400 . S
C785 H770 0.960 . S
C785 H771 0.960 . S
C785 H772 0.960 . S
C785 C784 1.524 . S
C786 C783 1.403 . S
C786 C787 1.392 . S
C786 C790 1.495 . S
C787 C786 1.392 . S
C787 C788 1.385 . S
C787 C789 1.478 . S
C788 H782 0.930 . S
C788 C784 1.400 . S
C788 C787 1.385 . S
C789 C787 1.478 . S
C789 C791 1.381 . S
C789 C795 1.383 . S
C790 C786 1.495 . S
C790 H796 0.959 . S
C790 H797 0.961 . S
C790 H798 0.960 . S
C791 C789 1.381 . S
C791 C792 1.394 . S
C791 H799 0.930 . S
C792 C791 1.394 . S
C792 C793 1.383 . S
C792 H800 0.929 . S
C793 C792 1.383 . S
C793 C794 1.377 . S
C794 H778 0.930 . S
C794 C793 1.377 . S
C794 C795 1.379 . S
C795 H779 0.931 . S
C795 C789 1.383 . S
C795 C794 1.379 . S
H796 C790 0.959 . S
H797 C790 0.961 . S
H798 C790 0.960 . S
H799 C791 0.930 . S
H800 C792 0.929 . S
H801 C809 0.929 . S
H802 C811 0.930 . S
H803 C813 0.930 . S
H804 C816 0.929 . S
H805 C819 0.930 . S
H806 C821 0.960 . S
H807 C821 0.960 . S
H808 C821 0.960 . S
C809 H801 0.929 . S
C809 C810 1.377 . S
C809 C811 1.384 . S
C810 C809 1.377 . S
C810 C816 1.390 . S
C811 H802 0.930 . S
C811 C809 1.384 . S
C811 C812 1.372 . S
C812 C811 1.372 . S
C812 C813 1.400 . S
C812 C817 1.490 . S
C813 H803 0.930 . S
C813 C812 1.400 . S
C813 C816 1.386 . S
H814 C830 0.930 . S
H815 C831 0.931 . S
C816 H804 0.929 . S
C816 C810 1.390 . S
C816 C813 1.386 . S
C817 C812 1.490 . S
C817 C819 1.395 . S
C817 C820 1.403 . S
H818 C824 0.930 . S
C819 H805 0.930 . S
C819 C817 1.395 . S
C819 C822 1.403 . S
C820 C817 1.403 . S
C820 C821 1.524 . S
C820 C824 1.400 . S
C821 H806 0.960 . S
C821 H807 0.960 . S
C821 H808 0.960 . S
C821 C820 1.524 . S
C822 C819 1.403 . S
C822 C823 1.392 . S
C822 C826 1.495 . S
C823 C822 1.392 . S
C823 C824 1.385 . S
C823 C825 1.478 . S
C824 H818 0.930 . S
C824 C820 1.400 . S
C824 C823 1.385 . S
C825 C823 1.478 . S
C825 C827 1.381 . S
C825 C831 1.383 . S
C826 C822 1.495 . S
C826 H832 0.959 . S
C826 H833 0.961 . S
C826 H834 0.960 . S
C827 C825 1.381 . S
C827 C828 1.394 . S
C827 H835 0.930 . S
C828 C827 1.394 . S
C828 C829 1.383 . S
C828 H836 0.929 . S
C829 C828 1.383 . S
C829 C830 1.377 . S
C830 H814 0.930 . S
C830 C829 1.377 . S
C830 C831 1.379 . S
C831 H815 0.931 . S
C831 C825 1.383 . S
C831 C830 1.379 . S
H832 C826 0.959 . S
H833 C826 0.961 . S
H834 C826 0.960 . S
H835 C827 0.930 . S
H836 C828 0.929 . S
H837 C845 0.929 . S
H838 C847 0.930 . S
H839 C849 0.930 . S
H840 C852 0.929 . S
H841 C855 0.930 . S
H842 C857 0.960 . S
H843 C857 0.960 . S
H844 C857 0.960 1_655 S
C845 H837 0.929 . S
C845 C846 1.418 . S
C845 C847 1.384 . S
C846 C845 1.418 . S
C846 C852 1.358 1_455 S
C847 H838 0.930 . S
C847 C845 1.384 . S
C847 C848 1.372 . S
C848 C847 1.372 . S
C848 C849 1.400 1_455 S
C848 C853 1.490 . S
C849 H839 0.930 . S
C849 C848 1.400 1_655 S
C849 C852 1.386 . S
H850 C866 0.973 . S
H851 C867 0.931 . S
C852 H840 0.929 . S
C852 C846 1.358 1_655 S
C852 C849 1.386 . S
C853 C848 1.490 . S
C853 C855 1.395 . S
C853 C856 1.403 . S
H854 C860 0.930 . S
C855 H841 0.930 . S
C855 C853 1.395 . S
C855 C858 1.403 . S
C856 C853 1.403 . S
C856 C857 1.524 . S
C856 C860 1.400 . S
C857 H842 0.960 . S
C857 H843 0.960 . S
C857 H844 0.960 1_455 S
C857 C856 1.524 . S
C858 C855 1.403 . S
C858 C859 1.392 . S
C858 C862 1.495 . S
C859 C858 1.392 . S
C859 C860 1.385 . S
C859 C861 1.478 . S
C860 H854 0.930 . S
C860 C856 1.400 . S
C860 C859 1.385 . S
C861 C859 1.478 . S
C861 C863 1.381 . S
C861 C867 1.383 1_455 S
C862 C858 1.495 . S
C862 H868 0.959 . S
C862 H869 0.961 . S
C862 H870 0.960 . S
C863 C861 1.381 . S
C863 C864 1.394 . S
C863 H871 0.930 . S
C864 C863 1.394 . S
C864 C865 1.383 . S
C864 H872 0.929 . S
C865 C864 1.383 . S
C865 C866 1.327 1_455 S
C866 H850 0.973 . S
C866 C865 1.327 1_655 S
C866 C867 1.388 . S
C867 H851 0.931 . S
C867 C861 1.383 1_655 S
C867 C866 1.388 . S
H868 C862 0.959 . S
H869 C862 0.961 . S
H870 C862 0.960 . S
H871 C863 0.930 . S
H872 C864 0.929 . S
H873 C881 0.929 . S
H874 C883 0.930 . S
H875 C885 0.930 . S
H876 C888 0.929 . S
H877 C891 0.930 . S
H878 C893 0.960 . S
H879 C893 0.960 . S
H880 C893 0.960 . S
C881 H873 0.929 . S
C881 C882 1.377 . S
C881 C883 1.384 . S
C882 C881 1.377 . S
C882 C888 1.390 . S
C883 H874 0.930 . S
C883 C881 1.384 . S
C883 C884 1.372 . S
C884 C883 1.372 . S
C884 C885 1.400 . S
C884 C889 1.490 . S
C885 H875 0.930 . S
C885 C884 1.400 . S
C885 C888 1.386 . S
H886 C902 0.930 . S
H887 C903 0.931 . S
C888 H876 0.929 . S
C888 C882 1.390 . S
C888 C885 1.386 . S
C889 C884 1.490 . S
C889 C891 1.395 . S
C889 C892 1.403 . S
H890 C896 0.930 . S
C891 H877 0.930 . S
C891 C889 1.395 . S
C891 C894 1.403 . S
C892 C889 1.403 . S
C892 C893 1.524 . S
C892 C896 1.400 . S
C893 H878 0.960 . S
C893 H879 0.960 . S
C893 H880 0.960 . S
C893 C892 1.524 . S
C894 C891 1.403 . S
C894 C895 1.392 . S
C894 C898 1.495 . S
C895 C894 1.392 . S
C895 C896 1.385 . S
C895 C897 1.478 . S
C896 H890 0.930 . S
C896 C892 1.400 . S
C896 C895 1.385 . S
C897 C895 1.478 . S
C897 C899 1.381 . S
C897 C903 1.383 . S
C898 C894 1.495 . S
C898 H904 0.959 . S
C898 H905 0.961 . S
C898 H906 0.960 . S
C899 C897 1.381 . S
C899 C900 1.394 . S
C899 H907 0.930 . S
C900 C899 1.394 . S
C900 C901 1.383 . S
C900 H908 0.929 . S
C901 C900 1.383 . S
C901 C902 1.377 . S
C902 H886 0.930 . S
C902 C901 1.377 . S
C902 C903 1.379 . S
C903 H887 0.931 . S
C903 C897 1.383 . S
C903 C902 1.379 . S
H904 C898 0.959 . S
H905 C898 0.961 . S
H906 C898 0.960 . S
H907 C899 0.930 . S
H908 C900 0.929 . S
H909 C917 0.929 . S
H910 C919 0.930 . S
H911 C921 0.930 . S
H912 C924 0.929 . S
H913 C927 0.930 . S
H914 C929 0.960 . S
H915 C929 0.960 . S
H916 C929 0.960 . S
C917 H909 0.929 . S
C917 C918 1.377 1_565 S
C917 C919 1.384 . S
C918 C917 1.377 1_545 S
C918 C924 1.390 . S
C919 H910 0.930 . S
C919 C917 1.384 . S
C919 C920 1.372 1_565 S
C920 C919 1.372 1_545 S
C920 C921 1.400 . S
C920 C925 1.490 . S
C921 H911 0.930 . S
C921 C920 1.400 . S
C921 C924 1.386 . S
H922 C938 0.930 . S
H923 C939 0.931 . S
C924 H912 0.929 . S
C924 C918 1.390 . S
C924 C921 1.386 . S
C925 C920 1.490 . S
C925 C927 1.395 1_545 S
C925 C928 1.403 . S
H926 C932 0.930 . S
C927 H913 0.930 . S
C927 C925 1.395 1_565 S
C927 C930 1.403 . S
C928 C925 1.403 . S
C928 C929 1.524 . S
C928 C932 1.400 . S
C929 H914 0.960 . S
C929 H915 0.960 . S
C929 H916 0.960 . S
C929 C928 1.524 . S
C930 C927 1.403 . S
C930 C931 1.392 1_565 S
C930 C934 1.495 . S
C931 C930 1.392 1_545 S
C931 C932 1.385 . S
C931 C933 1.478 . S
C932 H926 0.930 . S
C932 C928 1.400 . S
C932 C931 1.385 . S
C933 C931 1.478 . S
C933 C935 1.381 1_545 S
C933 C939 1.383 . S
C934 C930 1.495 . S
C934 H940 0.959 . S
C934 H941 0.961 . S
C934 H942 0.960 . S
C935 C933 1.381 1_565 S
C935 C936 1.394 . S
C935 H943 0.930 . S
C936 C935 1.394 . S
C936 C937 1.383 1_565 S
C936 H944 0.929 . S
C937 C936 1.383 1_545 S
C937 C938 1.377 . S
C938 H922 0.930 . S
C938 C937 1.377 . S
C938 C939 1.379 . S
C939 H923 0.931 . S
C939 C933 1.383 . S
C939 C938 1.379 . S
H940 C934 0.959 . S
H941 C934 0.961 . S
H942 C934 0.960 . S
H943 C935 0.930 . S
H944 C936 0.929 . S
H945 C953 0.929 . S
H946 C955 0.930 . S
H947 C957 0.930 . S
H948 C960 0.929 . S
H949 C963 0.930 . S
H950 C965 0.960 . S
H951 C965 0.960 . S
H952 C965 0.960 . S
C953 H945 0.929 . S
C953 C954 1.377 . S
C953 C955 1.384 . S
C954 C953 1.377 . S
C954 C960 1.390 . S
C955 H946 0.930 . S
C955 C953 1.384 . S
C955 C956 1.372 . S
C956 C955 1.372 . S
C956 C957 1.400 . S
C956 C961 1.490 . S
C957 H947 0.930 . S
C957 C956 1.400 . S
C957 C960 1.386 . S
H958 C974 0.930 . S
H959 C975 0.931 . S
C960 H948 0.929 . S
C960 C954 1.390 . S
C960 C957 1.386 . S
C961 C956 1.490 . S
C961 C963 1.395 . S
C961 C964 1.403 . S
H962 C968 0.930 . S
C963 H949 0.930 . S
C963 C961 1.395 . S
C963 C966 1.403 . S
C964 C961 1.403 . S
C964 C965 1.524 . S
C964 C968 1.400 . S
C965 H950 0.960 . S
C965 H951 0.960 . S
C965 H952 0.960 . S
C965 C964 1.524 . S
C966 C963 1.403 . S
C966 C967 1.392 . S
C966 C970 1.495 . S
C967 C966 1.392 . S
C967 C968 1.385 . S
C967 C969 1.478 . S
C968 H962 0.930 . S
C968 C964 1.400 . S
C968 C967 1.385 . S
C969 C967 1.478 . S
C969 C971 1.381 1_556 S
C969 C975 1.383 . S
C970 C966 1.495 . S
C970 H976 0.959 . S
C970 H977 0.961 . S
C970 H978 0.960 . S
C971 C969 1.381 1_554 S
C971 C972 1.394 . S
C971 H979 0.930 1_554 S
C972 C971 1.394 . S
C972 C973 1.383 . S
C972 H980 0.929 . S
C973 C972 1.383 . S
C973 C974 1.377 . S
C974 H958 0.930 . S
C974 C973 1.377 . S
C974 C975 1.379 1_554 S
C975 H959 0.931 . S
C975 C969 1.383 . S
C975 C974 1.379 1_556 S
H976 C970 0.959 . S
H977 C970 0.961 . S
H978 C970 0.960 . S
H979 C971 0.930 1_556 S
H980 C972 0.929 . S
H981 C989 0.929 . S
H982 C991 0.930 . S
H983 C993 0.930 . S
H984 C996 0.929 . S
H985 C999 0.930 . S
H986 C1001 0.960 . S
H987 C1001 0.960 . S
H988 C1001 0.960 . S
C989 H981 0.929 . S
C989 C990 1.377 . S
C989 C991 1.384 . S
C990 C989 1.377 . S
C990 C996 1.390 . S
C991 H982 0.930 . S
C991 C989 1.384 . S
C991 C992 1.372 . S
C992 C991 1.372 . S
C992 C993 1.400 . S
C992 C997 1.490 . S
C993 H983 0.930 . S
C993 C992 1.400 . S
C993 C996 1.386 . S
H994 C1010 0.930 . S
H995 C1011 0.931 . S
C996 H984 0.929 . S
C996 C990 1.390 . S
C996 C993 1.386 . S
C997 C992 1.490 . S
C997 C999 1.395 . S
C997 C1000 1.403 . S
H998 C1004 0.930 . S
C999 H985 0.930 . S
C999 C997 1.395 . S
C999 C1002 1.403 . S
C1000 C997 1.403 . S
C1000 C1001 1.524 . S
C1000 C1004 1.400 . S
C1001 H986 0.960 . S
C1001 H987 0.960 . S
C1001 H988 0.960 . S
C1001 C1000 1.524 . S
C1002 C999 1.403 . S
C1002 C1003 1.392 . S
C1002 C1006 1.495 . S
C1003 C1002 1.392 . S
C1003 C1004 1.385 . S
C1003 C1005 1.478 . S
C1004 H998 0.930 . S
C1004 C1000 1.400 . S
C1004 C1003 1.385 . S
C1005 C1003 1.478 . S
C1005 C1007 1.381 . S
C1005 C1011 1.383 . S
C1006 C1002 1.495 . S
C1006 H1012 0.959 . S
C1006 H1013 0.961 . S
C1006 H1014 0.960 . S
C1007 C1005 1.381 . S
C1007 C1008 1.394 1_556 S
C1007 H1015 0.930 . S
C1008 C1007 1.394 1_554 S
C1008 C1009 1.383 . S
C1008 H1016 0.929 . S
C1009 C1008 1.383 . S
C1009 C1010 1.377 . S
C1010 H994 0.930 . S
C1010 C1009 1.377 . S
C1010 C1011 1.379 1_554 S
C1011 H995 0.931 . S
C1011 C1005 1.383 . S
C1011 C1010 1.379 1_556 S
H1012 C1006 0.959 . S
H1013 C1006 0.961 . S
H1014 C1006 0.960 . S
H1015 C1007 0.930 . S
H1016 C1008 0.929 . S
H1017 C1025 0.929 . S
H1018 C1027 0.930 . S
H1019 C1029 0.930 . S
H1020 C1032 0.929 . S
H1021 C1035 0.930 . S
H1022 C1037 0.960 . S
H1023 C1037 0.960 . S
H1024 C1037 0.960 . S
C1025 H1017 0.929 . S
C1025 C1026 1.377 . S
C1025 C1027 1.384 . S
C1026 C1025 1.377 . S
C1026 C1032 1.390 . S
C1027 H1018 0.930 . S
C1027 C1025 1.384 . S
C1027 C1028 1.372 . S
C1028 C1027 1.372 . S
C1028 C1029 1.400 . S
C1028 C1033 1.490 . S
C1029 H1019 0.930 . S
C1029 C1028 1.400 . S
C1029 C1032 1.386 . S
H1030 C1046 0.930 . S
H1031 C1047 0.931 . S
C1032 H1020 0.929 . S
C1032 C1026 1.390 . S
C1032 C1029 1.386 . S
C1033 C1028 1.490 . S
C1033 C1035 1.395 . S
C1033 C1036 1.403 . S
H1034 C1040 0.930 . S
C1035 H1021 0.930 . S
C1035 C1033 1.395 . S
C1035 C1038 1.403 . S
C1036 C1033 1.403 . S
C1036 C1037 1.524 . S
C1036 C1040 1.400 . S
C1037 H1022 0.960 . S
C1037 H1023 0.960 . S
C1037 H1024 0.960 . S
C1037 C1036 1.524 . S
C1038 C1035 1.403 . S
C1038 C1039 1.392 . S
C1038 C1042 1.495 . S
C1039 C1038 1.392 . S
C1039 C1040 1.385 . S
C1039 C1041 1.478 . S
C1040 H1034 0.930 . S
C1040 C1036 1.400 . S
C1040 C1039 1.385 . S
C1041 C1039 1.478 . S
C1041 C1043 1.381 1_556 S
C1041 C1047 1.383 . S
C1042 C1038 1.495 . S
C1042 H1048 0.959 . S
C1042 H1049 0.961 . S
C1042 H1050 0.960 . S
C1043 C1041 1.381 1_554 S
C1043 C1044 1.394 . S
C1043 H1051 0.930 1_554 S
C1044 C1043 1.394 . S
C1044 C1045 1.383 . S
C1044 H1052 0.929 . S
C1045 C1044 1.383 . S
C1045 C1046 1.377 . S
C1046 H1030 0.930 . S
C1046 C1045 1.377 . S
C1046 C1047 1.379 1_554 S
C1047 H1031 0.931 . S
C1047 C1041 1.383 . S
C1047 C1046 1.379 1_556 S
H1048 C1042 0.959 . S
H1049 C1042 0.961 . S
H1050 C1042 0.960 . S
H1051 C1043 0.930 1_556 S
H1052 C1044 0.929 . S
H1053 C1061 0.929 . S
H1054 C1063 0.930 . S
H1055 C1065 0.930 . S
H1056 C1068 0.929 . S
H1057 C1071 0.930 . S
H1058 C1073 0.960 . S
H1059 C1073 0.960 . S
H1060 C1073 0.960 . S
C1061 H1053 0.929 . S
C1061 C1062 1.377 . S
C1061 C1063 1.384 . S
C1062 C1061 1.377 . S
C1062 C1068 1.390 . S
C1063 H1054 0.930 . S
C1063 C1061 1.384 . S
C1063 C1064 1.372 . S
C1064 C1063 1.372 . S
C1064 C1065 1.400 . S
C1064 C1069 1.490 . S
C1065 H1055 0.930 . S
C1065 C1064 1.400 . S
C1065 C1068 1.386 . S
H1066 C1082 0.930 . S
H1067 C1083 0.931 1_554 S
C1068 H1056 0.929 . S
C1068 C1062 1.390 . S
C1068 C1065 1.386 . S
C1069 C1064 1.490 . S
C1069 C1071 1.395 . S
C1069 C1072 1.403 . S
H1070 C1076 0.930 . S
C1071 H1057 0.930 . S
C1071 C1069 1.395 . S
C1071 C1074 1.403 . S
C1072 C1069 1.403 . S
C1072 C1073 1.524 . S
C1072 C1076 1.400 . S
C1073 H1058 0.960 . S
C1073 H1059 0.960 . S
C1073 H1060 0.960 . S
C1073 C1072 1.524 . S
C1074 C1071 1.403 . S
C1074 C1075 1.392 . S
C1074 C1078 1.495 . S
C1075 C1074 1.392 . S
C1075 C1076 1.385 . S
C1075 C1077 1.478 . S
C1076 H1070 0.930 . S
C1076 C1072 1.400 . S
C1076 C1075 1.385 . S
C1077 C1075 1.478 . S
C1077 C1079 1.381 1_554 S
C1077 C1083 1.383 1_554 S
C1078 C1074 1.495 . S
C1078 H1084 0.959 . S
C1078 H1085 0.961 . S
C1078 H1086 0.960 . S
C1079 C1077 1.381 1_556 S
C1079 C1080 1.394 . S
C1079 H1087 0.930 . S
C1080 C1079 1.394 . S
C1080 C1081 1.383 . S
C1080 H1088 0.929 . S
C1081 C1080 1.383 . S
C1081 C1082 1.377 . S
C1082 H1066 0.930 . S
C1082 C1081 1.377 . S
C1082 C1083 1.379 . S
C1083 H1067 0.931 1_556 S
C1083 C1077 1.383 1_556 S
C1083 C1082 1.379 . S
H1084 C1078 0.959 . S
H1085 C1078 0.961 . S
H1086 C1078 0.960 . S
H1087 C1079 0.930 . S
H1088 C1080 0.929 . S
H1089 C1097 0.929 . S
H1090 C1099 0.930 . S
H1091 C1101 0.930 . S
H1092 C1104 0.925 1_556 S
H1093 C1107 0.930 . S
H1094 C1109 0.960 . S
H1095 C1109 0.960 . S
H1096 C1109 0.960 . S
C1097 H1089 0.929 . S
C1097 C1098 1.377 . S
C1097 C1099 1.384 1_556 S
C1098 C1097 1.377 . S
C1098 C1104 1.383 1_556 S
C1099 H1090 0.930 . S
C1099 C1097 1.384 1_554 S
C1099 C1100 1.372 . S
C1100 C1099 1.372 . S
C1100 C1101 1.400 . S
C1100 C1105 1.490 . S
C1101 H1091 0.930 . S
C1101 C1100 1.400 . S
C1101 C1104 1.397 . S
H1102 C1118 0.930 . S
H1103 C1119 0.931 . S
C1104 H1092 0.925 1_554 S
C1104 C1098 1.383 1_554 S
C1104 C1101 1.397 . S
C1105 C1100 1.490 . S
C1105 C1107 1.395 . S
C1105 C1108 1.403 . S
H1106 C1112 0.930 . S
C1107 H1093 0.930 . S
C1107 C1105 1.395 . S
C1107 C1110 1.403 . S
C1108 C1105 1.403 . S
C1108 C1109 1.524 . S
C1108 C1112 1.400 . S
C1109 H1094 0.960 . S
C1109 H1095 0.960 . S
C1109 H1096 0.960 . S
C1109 C1108 1.524 . S
C1110 C1107 1.403 . S
C1110 C1111 1.392 . S
C1110 C1114 1.495 . S
C1111 C1110 1.392 . S
C1111 C1112 1.385 . S
C1111 C1113 1.478 . S
C1112 H1106 0.930 . S
C1112 C1108 1.400 . S
C1112 C1111 1.385 . S
C1113 C1111 1.478 . S
C1113 C1115 1.381 . S
C1113 C1119 1.383 . S
C1114 C1110 1.495 . S
C1114 H1120 0.959 . S
C1114 H1121 0.961 . S
C1114 H1122 0.960 . S
C1115 C1113 1.381 . S
C1115 C1116 1.394 . S
C1115 H1123 0.930 . S
C1116 C1115 1.394 . S
C1116 C1117 1.383 . S
C1116 H1124 0.929 . S
C1117 C1116 1.383 . S
C1117 C1118 1.377 . S
C1118 H1102 0.930 . S
C1118 C1117 1.377 . S
C1118 C1119 1.379 . S
C1119 H1103 0.931 . S
C1119 C1113 1.383 . S
C1119 C1118 1.379 . S
H1120 C1114 0.959 . S
H1121 C1114 0.961 . S
H1122 C1114 0.960 . S
H1123 C1115 0.930 . S
H1124 C1116 0.929 . S
H1125 C1133 0.929 . S
H1126 C1135 0.930 . S
H1127 C1137 0.930 . S
H1128 C1140 0.929 . S
H1129 C1143 0.930 . S
H1130 C1145 0.960 . S
H1131 C1145 0.960 . S
H1132 C1145 0.960 . S
C1133 H1125 0.929 . S
C1133 C1134 1.377 . S
C1133 C1135 1.384 . S
C1134 C1133 1.377 . S
C1134 C1140 1.390 . S
C1135 H1126 0.930 . S
C1135 C1133 1.384 . S
C1135 C1136 1.372 . S
C1136 C1135 1.372 . S
C1136 C1137 1.400 . S
C1136 C1141 1.490 . S
C1137 H1127 0.930 . S
C1137 C1136 1.400 . S
C1137 C1140 1.386 . S
H1138 C1154 0.930 . S
H1139 C1155 0.931 . S
C1140 H1128 0.929 . S
C1140 C1134 1.390 . S
C1140 C1137 1.386 . S
C1141 C1136 1.490 . S
C1141 C1143 1.395 . S
C1141 C1144 1.403 . S
H1142 C1148 0.930 . S
C1143 H1129 0.930 . S
C1143 C1141 1.395 . S
C1143 C1146 1.403 . S
C1144 C1141 1.403 . S
C1144 C1145 1.524 . S
C1144 C1148 1.400 . S
C1145 H1130 0.960 . S
C1145 H1131 0.960 . S
C1145 H1132 0.960 . S
C1145 C1144 1.524 . S
C1146 C1143 1.403 . S
C1146 C1147 1.392 . S
C1146 C1150 1.495 . S
C1147 C1146 1.392 . S
C1147 C1148 1.385 . S
C1147 C1149 1.478 . S
C1148 H1142 0.930 . S
C1148 C1144 1.400 . S
C1148 C1147 1.385 . S
C1149 C1147 1.478 . S
C1149 C1151 1.381 . S
C1149 C1155 1.383 . S
C1150 C1146 1.495 . S
C1150 H1156 0.959 . S
C1150 H1157 0.961 . S
C1150 H1158 0.960 . S
C1151 C1149 1.381 . S
C1151 C1152 1.394 1_554 S
C1151 H1159 0.930 . S
C1152 C1151 1.394 1_556 S
C1152 C1153 1.383 . S
C1152 H1160 0.929 . S
C1153 C1152 1.383 . S
C1153 C1154 1.377 . S
C1154 H1138 0.930 . S
C1154 C1153 1.377 . S
C1154 C1155 1.379 1_556 S
C1155 H1139 0.931 . S
C1155 C1149 1.383 . S
C1155 C1154 1.379 1_554 S
H1156 C1150 0.959 . S
H1157 C1150 0.961 . S
H1158 C1150 0.960 . S
H1159 C1151 0.930 . S
H1160 C1152 0.929 . S
C198 C17 1.513 . S
C217 C164 1.486 . S
C234 C34 1.107 . S
C253 C181 1.052 . S
C270 C59 1.437 . S
C289 C139 1.117 . S
C306 C97 0.852 . S
C325 C55 0.842 . S
C342 C118 0.976 . S
C361 C13 1.001 . S
C378 C38 1.378 . S
C397 C76 1.091 . S
C414 C160 1.202 . S
C433 C122 1.512 . S
C450 C185 1.713 . S
C469 C80 1.684 . S
C486 C101 1.886 . S
C505 C143 1.878 . S
C522 C60 0.948 . S
C541 C16 0.882 . S
C558 C39 0.959 . S
C577 C18 0.945 . S
C594 C37 1.055 . S
C613 C58 1.005 1_554 S
C630 C81 1.088 . S
C649 C121 1.020 . S
C666 C79 1.070 . S
C685 C102 1.180 . S
C702 C100 0.977 . S
C721 C123 1.051 . S
C738 C186 1.245 . S
C757 C142 1.170 . S
C774 C165 1.000 . S
C793 C144 0.994 . S
C810 C184 1.092 . S
C829 C163 1.110 . S
C846 C15 1.004 . S
C865 C14 1.022 . S
C882 C35 0.958 . S
C901 C36 0.915 . S
C918 C57 0.948 . S
C937 C56 0.990 . S
C954 C78 1.014 . S
C973 C77 0.968 . S
C990 C99 0.952 . S
C1009 C98 0.946 . S
C1026 C120 0.997 . S
C1045 C119 0.998 . S
C1062 C141 1.007 . S
C1081 C140 1.000 . S
C1098 C162 0.974 . S
C1117 C161 1.017 . S
C1134 C183 0.968 . S
C1153 C182 1.009 . S
