# Generated by pormake.
# Topology tfs, (6)-cn, num edge types: 1
# Building blocks:
#     Node 0, Type 0, BuildingBlock: MIDCAF_clean_sbu_0, # of connection points: 6
#     Node 1, Type 0, BuildingBlock: MIDCAF_clean_sbu_0, # of connection points: 6
#     Node 2, Type 0, BuildingBlock: MIDCAF_clean_sbu_0, # of connection points: 6
#     Node 3, Type 0, BuildingBlock: MIDCAF_clean_sbu_0, # of connection points: 6
#     Node 4, Type 0, BuildingBlock: MIDCAF_clean_sbu_0, # of connection points: 6
#     Node 5, Type 0, BuildingBlock: MIDCAF_clean_sbu_0, # of connection points: 6
#     Edge 6, Type (0, 0), BuildingBlock: MIFKUJ_clean_linker_0, # of connection points: 2
#     Edge 7, Type (0, 0), BuildingBlock: MIFKUJ_clean_linker_0, # of connection points: 2
#     Edge 8, Type (0, 0), BuildingBlock: MIFKUJ_clean_linker_0, # of connection points: 2
#     Edge 9, Type (0, 0), BuildingBlock: MIFKUJ_clean_linker_0, # of connection points: 2
#     Edge 10, Type (0, 0), BuildingBlock: MIFKUJ_clean_linker_0, # of connection points: 2
#     Edge 11, Type (0, 0), BuildingBlock: MIFKUJ_clean_linker_0, # of connection points: 2
#     Edge 12, Type (0, 0), BuildingBlock: MIFKUJ_clean_linker_0, # of connection points: 2
#     Edge 13, Type (0, 0), BuildingBlock: MIFKUJ_clean_linker_0, # of connection points: 2
#     Edge 14, Type (0, 0), BuildingBlock: MIFKUJ_clean_linker_0, # of connection points: 2
#     Edge 15, Type (0, 0), BuildingBlock: MIFKUJ_clean_linker_0, # of connection points: 2
#     Edge 16, Type (0, 0), BuildingBlock: MIFKUJ_clean_linker_0, # of connection points: 2
#     Edge 17, Type (0, 0), BuildingBlock: MIFKUJ_clean_linker_0, # of connection points: 2
#     Edge 18, Type (0, 0), BuildingBlock: MIFKUJ_clean_linker_0, # of connection points: 2
#     Edge 19, Type (0, 0), BuildingBlock: MIFKUJ_clean_linker_0, # of connection points: 2
#     Edge 20, Type (0, 0), BuildingBlock: MIFKUJ_clean_linker_0, # of connection points: 2
#     Edge 21, Type (0, 0), BuildingBlock: MIFKUJ_clean_linker_0, # of connection points: 2
#     Edge 22, Type (0, 0), BuildingBlock: MIFKUJ_clean_linker_0, # of connection points: 2
#     Edge 23, Type (0, 0), BuildingBlock: MIFKUJ_clean_linker_0, # of connection points: 2
# Relax obj value: 0.134
# Max RMSD: 0.125
# Mean RMSD: 0.125
data_MOF--net-tfs--node1-MIDCAF_clean_sbu_0--edge1-MIFKUJ_clean_linker_0
_symmetry_space_group_name_H-M    P1
_symmetry_Int_Tables_number       1
_symmetry_cell_setting            triclinic
loop_
_symmetry_equiv_pos_as_xyz
'x, y, z'
_cell_length_a     54.052586
_cell_length_b     53.999513
_cell_length_c     19.691757
_cell_angle_alpha  89.989305
_cell_angle_beta   89.963481
_cell_angle_gamma 119.95682
loop_
_atom_site_label
_atom_site_type_symbol
_atom_site_fract_x
_atom_site_fract_y
_atom_site_fract_z
_atom_type_partial_charge
Zn0 Zn 0.17043 0.41715 0.92913 0.0
Zn1 Zn 0.25989 0.4327 0.06179 0.0
Zn2 Zn 0.21283 0.42162 0.99816 0.0
C3 C 0.25283 0.39445 0.95938 0.0
C4 C 0.21318 0.40257 0.15152 0.0
O5 O 0.21816 0.46493 0.97734 0.0
O6 O 0.17797 0.45665 0.92795 0.0
C7 C 0.19568 0.39378 0.84856 0.0
O8 O 0.23051 0.39669 0.94799 0.0
O9 O 0.27053 0.4096 0.0044 0.0
O10 O 0.24007 0.41466 0.14831 0.0
O11 O 0.19849 0.4025 0.09996 0.0
O12 O 0.17632 0.40031 0.84665 0.0
O13 O 0.2115 0.3993 0.90173 0.0
O14 O 0.17382 0.3951 0.06101 0.0
O15 O 0.14023 0.39109 0.99015 0.0
C16 C 0.14728 0.385 0.04594 0.0
O17 O 0.24375 0.46902 0.0049 0.0
O18 O 0.28272 0.47463 0.05603 0.0
C19 C 0.202 0.47404 0.95261 0.0
C20 C 0.2693 0.48531 0.02779 0.0
Zn21 Zn 0.73622 0.15705 0.8897 0.0
Zn22 Zn 0.82361 0.256 0.09213 0.0
Zn23 Zn 0.79632 0.21302 0.02377 0.0
C24 C 0.86284 0.25648 0.99984 0.0
C25 C 0.8084 0.20886 0.17902 0.0
O26 O 0.75502 0.21232 0.98509 0.0
O27 O 0.72078 0.18364 0.90899 0.0
C28 C 0.80197 0.19506 0.89428 0.0
O29 O 0.84057 0.23289 0.98205 0.0
O30 O 0.8606 0.27212 0.04421 0.0
O31 O 0.8215 0.23583 0.17695 0.0
O32 O 0.79578 0.19431 0.12549 0.0
O33 O 0.77711 0.18206 0.9189 0.0
O34 O 0.82111 0.21279 0.93441 0.0
O35 O 0.77947 0.17154 0.07588 0.0
O36 O 0.75874 0.16549 0.97927 0.0
C37 C 0.76154 0.15419 0.0329 0.0
O38 O 0.77705 0.24047 0.01586 0.0
O39 O 0.80204 0.27635 0.08573 0.0
C40 C 0.73143 0.2045 0.95118 0.0
C41 C 0.78206 0.26413 0.04338 0.0
Zn42 Zn 0.581 0.82624 0.08548 0.0
Zn43 Zn 0.57853 0.74859 0.93759 0.0
Zn44 Zn 0.58449 0.79088 0.00954 0.0
C45 C 0.61391 0.75318 0.0447 0.0
C46 C 0.60835 0.79827 0.85816 0.0
O47 O 0.53942 0.78201 0.01758 0.0
O48 O 0.54232 0.81964 0.06948 0.0
C49 C 0.6004 0.79868 0.16785 0.0
O50 O 0.60958 0.77382 0.06132 0.0
O51 O 0.60183 0.73804 0.99326 0.0
O52 O 0.5972 0.77145 0.8557 0.0
O53 O 0.60651 0.81059 0.91242 0.0
O54 O 0.58786 0.81299 0.1722 0.0
O55 O 0.60395 0.79008 0.10945 0.0
O56 O 0.61052 0.83269 0.95783 0.0
O57 O 0.61307 0.86023 0.04383 0.0
C58 C 0.62084 0.85757 0.9852 0.0
O59 O 0.53817 0.75681 0.99696 0.0
O60 O 0.53726 0.72191 0.93642 0.0
C61 C 0.52762 0.79637 0.03848 0.0
C62 C 0.52411 0.73173 0.96957 0.0
Zn63 Zn 0.75581 0.57549 0.05822 0.0
Zn64 Zn 0.83233 0.57963 0.92316 0.0
Zn65 Zn 0.79568 0.58155 0.99715 0.0
C66 C 0.86066 0.60629 0.04186 0.0
C67 C 0.81654 0.61382 0.85272 0.0
O68 O 0.76016 0.53545 0.00504 0.0
O69 O 0.72273 0.54081 0.02183 0.0
C70 C 0.79694 0.58711 0.15455 0.0
O71 O 0.83636 0.60427 0.05516 0.0
O72 O 0.86356 0.59459 0.9894 0.0
O73 O 0.83522 0.60637 0.85184 0.0
O74 O 0.79861 0.60617 0.90251 0.0
O75 O 0.77021 0.57208 0.14784 0.0
O76 O 0.81262 0.59725 0.10111 0.0
O77 O 0.78238 0.61118 0.95157 0.0
O78 O 0.758 0.61202 0.04052 0.0
C79 C 0.76966 0.62234 0.98428 0.0
O80 O 0.78413 0.53638 0.97206 0.0
O81 O 0.81584 0.53936 0.89664 0.0
C82 C 0.73281 0.52466 0.01005 0.0
C83 C 0.79399 0.52429 0.93217 0.0
Zn84 Zn 0.1784 0.76396 0.07306 0.0
Zn85 Zn 0.24668 0.82035 0.91906 0.0
Zn86 Zn 0.21066 0.79457 0.99427 0.0
C87 C 0.23707 0.85951 0.98563 0.0
C88 C 0.20223 0.79056 0.83678 0.0
O89 O 0.21852 0.75836 0.01794 0.0
O90 O 0.17553 0.72668 0.05389 0.0
C91 C 0.2115 0.81063 0.14776 0.0
O92 O 0.22767 0.83926 0.03002 0.0
O93 O 0.24411 0.85534 0.92755 0.0
O94 O 0.22805 0.79681 0.83757 0.0
O95 O 0.19029 0.79132 0.89291 0.0
O96 O 0.19907 0.78393 0.15582 0.0
O97 O 0.21549 0.82104 0.0871 0.0
O98 O 0.16837 0.77858 0.94569 0.0
O99 O 0.14662 0.76968 0.04473 0.0
C100 C 0.1462 0.77288 0.98144 0.0
O101 O 0.24331 0.78005 0.98947 0.0
O102 O 0.28069 0.82015 0.95476 0.0
C103 C 0.20018 0.73246 0.03544 0.0
C104 C 0.2704 0.79513 0.97759 0.0
Zn105 Zn 0.42777 0.25889 0.94685 0.0
Zn106 Zn 0.41679 0.16919 0.0527 0.0
Zn107 Zn 0.4173 0.21162 0.99656 0.0
C108 C 0.38473 0.14796 0.93566 0.0
C109 C 0.3879 0.18658 0.14127 0.0
O110 O 0.46462 0.24387 0.99149 0.0
O111 O 0.46908 0.28334 0.94588 0.0
C112 C 0.39807 0.2169 0.8467 0.0
O113 O 0.39037 0.17408 0.93058 0.0
O114 O 0.39566 0.14076 0.98267 0.0
O115 O 0.39485 0.16764 0.13394 0.0
O116 O 0.39445 0.20579 0.095 0.0
O117 O 0.40989 0.24335 0.85856 0.0
O118 O 0.39781 0.19991 0.89311 0.0
O119 O 0.39206 0.2269 0.05552 0.0
O120 O 0.4059 0.26902 0.00875 0.0
C121 C 0.39033 0.24984 0.05059 0.0
O122 O 0.46167 0.21788 0.01255 0.0
O123 O 0.45662 0.17962 0.06604 0.0
C124 C 0.4804 0.26999 0.9712 0.0
C125 C 0.47265 0.20362 0.03928 0.0
H126 H 0.33406 0.21015 0.04193 0.0
H127 H 0.29661 0.22283 0.02983 0.0
H128 H 0.35498 0.30788 0.10189 0.0
H129 H 0.39222 0.29527 0.1137 0.0
H130 H 0.30011 0.29277 0.13248 0.0
H131 H 0.35424 0.28963 0.93503 0.0
H132 H 0.36906 0.26467 0.85383 0.0
H133 H 0.28141 0.20809 0.80031 0.0
H134 H 0.2661 0.2325 0.88179 0.0
H135 H 0.29827 0.39487 0.89921 0.0
H136 H 0.30958 0.35651 0.91181 0.0
H137 H 0.225 0.30083 0.98989 0.0
H138 H 0.21322 0.33878 0.97439 0.0
H139 H 0.28319 0.29232 0.88447 0.0
H140 H 0.24298 0.28678 0.15325 0.0
H141 H 0.23155 0.31491 0.23328 0.0
H142 H 0.29558 0.39276 0.14062 0.0
H143 H 0.3077 0.36512 0.06111 0.0
C144 C 0.3383 0.23095 0.0593 0.0
C145 C 0.36607 0.2518 0.07849 0.0
C146 C 0.317 0.23835 0.05123 0.0
C147 C 0.32325 0.26658 0.06294 0.0
C148 C 0.34968 0.28604 0.09191 0.0
C149 C 0.37094 0.27874 0.09938 0.0
C150 C 0.30494 0.27756 0.03501 0.0
C151 C 0.29585 0.29205 0.07847 0.0
C152 C 0.29965 0.2771 0.96424 0.0
C153 C 0.30901 0.26265 0.91503 0.0
C154 C 0.33814 0.27175 0.90621 0.0
C155 C 0.34663 0.25772 0.86009 0.0
C156 C 0.32618 0.23477 0.82197 0.0
C157 C 0.29723 0.22585 0.82984 0.0
C158 C 0.28863 0.23976 0.876 0.0
C159 C 0.28151 0.37385 0.91462 0.0
C160 C 0.25482 0.36969 0.93525 0.0
C161 C 0.28805 0.35199 0.9224 0.0
C162 C 0.26826 0.326 0.95272 0.0
C163 C 0.24054 0.32073 0.96632 0.0
C164 C 0.23374 0.34235 0.95671 0.0
C165 C 0.27847 0.30737 0.98203 0.0
C166 C 0.28636 0.29189 0.93876 0.0
C167 C 0.28289 0.30708 0.05283 0.0
C168 C 0.27593 0.32387 0.10075 0.0
C169 C 0.25461 0.30989 0.15012 0.0
C170 C 0.24805 0.32575 0.19543 0.0
C171 C 0.26282 0.3556 0.19197 0.0
C172 C 0.28413 0.36965 0.14316 0.0
C173 C 0.29082 0.3539 0.09794 0.0
H174 H 0.25786 0.36785 0.22729 0.0
H175 H 0.33272 0.22391 0.78624 0.0
H176 H 0.12849 0.32844 0.05497 0.0
H177 H 0.0774 0.29347 0.05932 0.0
H178 H 0.06029 0.35959 0.12551 0.0
H179 H 0.1112 0.39426 0.12178 0.0
H180 H 0.01837 0.30816 0.1674 0.0
H181 H 0.06985 0.35072 0.95644 0.0
H182 H 0.10603 0.36025 0.86827 0.0
H183 H 0.06934 0.27012 0.8341 0.0
H184 H 0.03316 0.26006 0.92271 0.0
H185 H 0.90961 0.30909 0.99064 0.0
H186 H 0.95881 0.31999 0.00552 0.0
H187 H 0.93211 0.2306 0.98671 0.0
H188 H 0.88233 0.21935 0.97253 0.0
H189 H 0.99318 0.28112 0.9256 0.0
H190 H 0.93635 0.24001 0.12796 0.0
H191 H 0.89916 0.23359 0.20993 0.0
H192 H 0.94554 0.32327 0.25626 0.0
H193 H 0.98291 0.33023 0.17377 0.0
C194 C 0.114 0.33499 0.07522 0.0
C195 C 0.1237 0.36401 0.08798 0.0
C196 C 0.0847 0.3151 0.0764 0.0
C197 C 0.06493 0.32415 0.09027 0.0
C198 C 0.07506 0.35212 0.11389 0.0
C199 C 0.10429 0.37194 0.11268 0.0
C200 C 0.0346 0.30695 0.06829 0.0
C201 C 0.01289 0.3019 0.11476 0.0
C202 C 0.02722 0.29856 0.99949 0.0
C203 C 0.04906 0.30463 0.94667 0.0
C204 C 0.06966 0.33295 0.93046 0.0
C205 C 0.09013 0.33844 0.8804 0.0
C206 C 0.09001 0.3158 0.84575 0.0
C207 C 0.06943 0.28762 0.86111 0.0
C208 C 0.04896 0.28201 0.91123 0.0
C209 C 0.9143 0.29183 0.98683 0.0
C210 C 0.89208 0.26334 0.981 0.0
C211 C 0.94242 0.29809 0.99576 0.0
C212 C 0.94893 0.27604 0.99852 0.0
C213 C 0.9274 0.24787 0.98495 0.0
C214 C 0.89903 0.24152 0.9762 0.0
C215 C 0.97727 0.2826 0.02465 0.0
C216 C 0.99858 0.28617 0.97878 0.0
C217 C 0.98434 0.28974 0.0938 0.0
C218 C 0.96229 0.28565 0.14439 0.0
C219 C 0.93851 0.25839 0.15528 0.0
C220 C 0.91741 0.25465 0.2019 0.0
C221 C 0.91992 0.27803 0.23819 0.0
C222 C 0.94361 0.30518 0.22809 0.0
C223 C 0.96479 0.30902 0.1815 0.0
H224 H 0.90355 0.2751 0.27425 0.0
H225 H 0.10574 0.32007 0.80673 0.0
H226 H 0.71037 0.11702 0.9793 0.0
H227 H 0.68984 0.06567 0.96502 0.0
H228 H 0.75889 0.06857 0.08114 0.0
H229 H 0.7798 0.12062 0.09545 0.0
H230 H 0.74927 0.0393 0.9568 0.0
H231 H 0.69427 0.0372 0.14904 0.0
H232 H 0.66416 0.05022 0.21707 0.0
H233 H 0.59962 0.01646 0.06237 0.0
H234 H 0.62953 0.00359 0.99292 0.0
H235 H 0.67778 0.8867 0.00361 0.0
H236 H 0.70634 0.93879 0.99867 0.0
H237 H 0.63767 0.94153 0.89397 0.0
H238 H 0.60908 0.88932 0.89943 0.0
H239 H 0.6491 0.9682 0.01477 0.0
H240 H 0.70361 0.96994 0.82232 0.0
H241 H 0.73346 0.95681 0.75363 0.0
H242 H 0.79848 0.99065 0.90721 0.0
H243 H 0.76883 0.0036 0.97738 0.0
C244 C 0.72089 0.10667 0.00315 0.0
C245 C 0.7466 0.12275 0.03876 0.0
C246 C 0.70915 0.07729 0.99481 0.0
C247 C 0.72282 0.06325 0.02187 0.0
C248 C 0.74803 0.07904 0.05973 0.0
C249 C 0.75973 0.10862 0.06868 0.0
C250 C 0.71101 0.03233 0.00764 0.0
C251 C 0.72754 0.02359 0.97051 0.0
C252 C 0.68239 0.01205 0.02373 0.0
C253 C 0.66426 0.01963 0.06553 0.0
C254 C 0.67375 0.03274 0.12927 0.0
C255 C 0.6567 0.04006 0.16814 0.0
C256 C 0.63002 0.03422 0.144 0.0
C257 C 0.62031 0.02098 0.08099 0.0
C258 C 0.63728 0.01364 0.04189 0.0
C259 C 0.66958 0.89834 0.9756 0.0
C260 C 0.64145 0.88408 0.95101 0.0
C261 C 0.6858 0.92819 0.97342 0.0
C262 C 0.67403 0.94414 0.94669 0.0
C263 C 0.64715 0.92966 0.91507 0.0
C264 C 0.63098 0.8998 0.91714 0.0
C265 C 0.68715 0.97507 0.96294 0.0
C266 C 0.67085 0.98381 1.0009 0.0
C267 C 0.71592 0.99522 0.94755 0.0
C268 C 0.73385 0.9875 0.90546 0.0
C269 C 0.72416 0.97435 0.84178 0.0
C270 C 0.74107 0.96699 0.80249 0.0
C271 C 0.76782 0.97283 0.82612 0.0
C272 C 0.77774 0.98611 0.88901 0.0
C273 C 0.7609 0.9935 0.92853 0.0
H274 H 0.78089 0.96712 0.79563 0.0
H275 H 0.61685 0.03991 0.17416 0.0
H276 H 0.80208 0.67569 0.03108 0.0
H277 H 0.78462 0.70935 0.04375 0.0
H278 H 0.7153 0.6586 0.90679 0.0
H279 H 0.73262 0.62462 0.89495 0.0
H280 H 0.73355 0.7187 0.90432 0.0
H281 H 0.7066 0.64042 0.05946 0.0
H282 H 0.71376 0.61088 0.14379 0.0
H283 H 0.7533 0.68256 0.2795 0.0
H284 H 0.74758 0.71288 0.19464 0.0
H285 H 0.60875 0.70476 0.09795 0.0
H286 H 0.64636 0.69233 0.09314 0.0
H287 H 0.70801 0.77986 0.04509 0.0
H288 H 0.67022 0.79238 0.05086 0.0
H289 H 0.69878 0.70679 0.14214 0.0
H290 H 0.74559 0.77525 0.90147 0.0
H291 H 0.73246 0.79881 0.81252 0.0
H292 H 0.64363 0.73862 0.84504 0.0
H293 H 0.65626 0.71437 0.93314 0.0
C294 C 0.78421 0.67274 1.00024 0.0
C295 C 0.76886 0.64778 0.9614 0.0
C296 C 0.77401 0.69178 0.0083 0.0
C297 C 0.74835 0.68615 0.97733 0.0
C298 C 0.73514 0.66332 0.9312 0.0
C299 C 0.74523 0.64408 0.92369 0.0
C300 C 0.73276 0.70054 1.00208 0.0
C301 C 0.72637 0.71652 0.95657 0.0
C302 C 0.72281 0.69715 0.07003 0.0
C303 C 0.72721 0.67912 0.12001 0.0
C304 C 0.71741 0.65008 0.10661 0.0
C305 C 0.72117 0.63316 0.15459 0.0
C306 C 0.73419 0.64488 0.21677 0.0
C307 C 0.74347 0.67355 0.23106 0.0
C308 C 0.74012 0.69066 0.18289 0.0
C309 C 0.63063 0.72166 0.09051 0.0
C310 C 0.63667 0.74952 0.07521 0.0
C311 C 0.65209 0.7145 0.08695 0.0
C312 C 0.67984 0.73501 0.06698 0.0
C313 C 0.68664 0.76363 0.05972 0.0
C314 C 0.66515 0.77088 0.06421 0.0
C315 C 0.69995 0.72537 0.04479 0.0
C316 C 0.70688 0.7099 0.09055 0.0
C317 C 0.70984 0.72872 0.9768 0.0
C318 C 0.70189 0.74328 0.92456 0.0
C319 C 0.72327 0.76707 0.88963 0.0
C320 C 0.71591 0.7805 0.83928 0.0
C321 C 0.68724 0.77023 0.82322 0.0
C322 C 0.66583 0.74657 0.85763 0.0
C323 C 0.67308 0.73299 0.90782 0.0
H324 H 0.68163 0.7805 0.78378 0.0
H325 H 0.73696 0.63172 0.25402 0.0
H326 H 0.10934 0.72462 0.91573 0.0
H327 H 0.05768 0.70322 0.92424 0.0
H328 H 0.06822 0.78323 0.99791 0.0
H329 H 0.12007 0.80414 0.99197 0.0
H330 H 0.0392 0.74499 0.08529 0.0
H331 H 0.02927 0.74914 0.84806 0.0
H332 H 0.0367 0.74452 0.72626 0.0
H333 H 0.99961 0.65376 0.74949 0.0
H334 H 0.99233 0.65785 0.87167 0.0
H335 H 0.87805 0.6618 0.07174 0.0
H336 H 0.92832 0.69962 0.06504 0.0
H337 H 0.95412 0.63597 0.07204 0.0
H338 H 0.90421 0.59834 0.07937 0.0
H339 H 0.96192 0.67317 0.93963 0.0
H340 H 0.97914 0.67345 0.18397 0.0
H341 H 0.97035 0.68027 0.30356 0.0
H342 H 0.99175 0.76666 0.26017 0.0
H343 H 1.00024 0.76018 0.13997 0.0
C344 C 0.10056 0.7381 0.9296 0.0
C345 C 0.11859 0.7661 0.95221 0.0
C346 C 0.07091 0.72578 0.93519 0.0
C347 C 0.05884 0.7415 0.96232 0.0
C348 C 0.07691 0.77055 0.97737 0.0
C349 C 0.10655 0.7827 0.97269 0.0
C350 C 0.02841 0.72651 0.98475 0.0
C351 C 0.02224 0.7298 0.05265 0.0
C352 C 0.00609 0.70649 0.94285 0.0
C353 C 0.0104 0.70385 0.86926 0.0
C354 C 0.02288 0.72821 0.82735 0.0
C355 C 0.02704 0.72568 0.75819 0.0
C356 C 0.01867 0.69887 0.73018 0.0
C357 C 0.00608 0.67452 0.77126 0.0
C358 C 0.00189 0.67693 0.84048 0.0
C359 C 0.89452 0.65605 0.07651 0.0
C360 C 0.8873 0.62717 0.07562 0.0
C361 C 0.92322 0.67765 0.07161 0.0
C362 C 0.94477 0.67043 0.06673 0.0
C363 C 0.93773 0.6419 0.07538 0.0
C364 C 0.90921 0.62044 0.08051 0.0
C365 C 0.97336 0.69115 0.03994 0.0
C366 C 0.97897 0.68887 0.97129 0.0
C367 C 0.99497 0.71236 0.08066 0.0
C368 C 0.9899 0.7162 0.15283 0.0
C369 C 0.98162 0.69378 0.19974 0.0
C370 C 0.97679 0.69761 0.26768 0.0
C371 C 0.98037 0.72384 0.2894 0.0
C372 C 0.98891 0.74633 0.24325 0.0
C373 C 0.99374 0.74259 0.17523 0.0
H374 H 0.97663 0.72677 0.34202 0.0
H375 H 0.02191 0.69696 0.67662 0.0
H376 H 0.26101 0.89636 0.09414 0.0
H377 H 0.27661 0.94776 0.09234 0.0
H378 H 0.23607 0.93707 0.8972 0.0
H379 H 0.21995 0.88643 0.90031 0.0
H380 H 0.31326 0.98363 0.01099 0.0
H381 H 0.223 0.98795 0.85373 0.0
H382 H 0.17041 0.96375 0.85312 0.0
H383 H 0.16814 0.9392 0.06142 0.0
H384 H 0.22071 0.96359 0.06369 0.0
H385 H 0.38484 0.10979 0.84593 0.0
H386 H 0.34869 0.05915 0.85158 0.0
H387 H 0.29433 0.08022 0.96906 0.0
H388 H 0.32958 0.13087 0.95885 0.0
H389 H 0.26227 0.03093 0.9163 0.0
H390 H 0.34762 0.07097 0.04664 0.0
H391 H 0.3996 0.09767 0.0668 0.0
H392 H 0.40953 0.03675 0.94698 0.0
H393 H 0.35761 0.00981 0.92566 0.0
C394 C 0.25441 0.90493 0.05267 0.0
C395 C 0.23932 0.88754 0.99741 0.0
C396 C 0.26356 0.93431 0.05114 0.0
C397 C 0.25755 0.94651 0.99456 0.0
C398 C 0.24059 0.92845 0.94213 0.0
C399 C 0.23147 0.89938 0.94378 0.0
C400 C 0.27213 0.97812 0.98442 0.0
C401 C 0.30194 0.99391 0.99099 0.0
C402 C 0.25755 0.99203 0.95963 0.0
C403 C 0.22587 0.97749 0.95869 0.0
C404 C 0.21132 0.97755 0.89955 0.0
C405 C 0.18149 0.96375 0.89888 0.0
C406 C 0.16594 0.9499 0.95714 0.0
C407 C 0.1802 0.94986 0.01625 0.0
C408 C 0.21002 0.96363 0.01721 0.0
C409 C 0.36428 0.10373 0.8684 0.0
C410 C 0.36004 0.12418 0.90223 0.0
C411 C 0.34386 0.0747 0.87322 0.0
C412 C 0.31945 0.06574 0.91402 0.0
C413 C 0.31319 0.08644 0.9384 0.0
C414 C 0.33324 0.11555 0.93163 0.0
C415 C 0.30333 0.03578 0.94 0.0
C416 C 0.27337 0.02051 0.9367 0.0
C417 C 0.3176 0.02262 0.97074 0.0
C418 C 0.34878 0.03851 0.98417 0.0
C419 C 0.36091 0.06333 0.02443 0.0
C420 C 0.39035 0.0785 0.03606 0.0
C421 C 0.40786 0.06896 0.00802 0.0
C422 C 0.39594 0.04414 0.96858 0.0
C423 C 0.36651 0.02888 0.95681 0.0
H424 H 0.43066 0.08076 0.01697 0.0
H425 H 0.14286 0.93922 0.9565 0.0
H426 H 0.25202 0.73599 0.05376 0.0
H427 H 0.26354 0.69768 0.0385 0.0
H428 H 0.17417 0.63712 0.01055 0.0
H429 H 0.16321 0.67584 0.01678 0.0
H430 H 0.21128 0.6265 0.11891 0.0
H431 H 0.20851 0.65772 0.88308 0.0
H432 H 0.22875 0.69423 0.79312 0.0
H433 H 0.30895 0.69626 0.80948 0.0
H434 H 0.28934 0.66018 0.90055 0.0
H435 H 0.16707 0.49156 1.00241 0.0
H436 H 0.17734 0.5403 0.02235 0.0
H437 H 0.26278 0.57266 0.94554 0.0
H438 H 0.25161 0.52347 0.92072 0.0
H439 H 0.24257 0.6049 0.90111 0.0
H440 H 0.25249 0.57549 0.11566 0.0
H441 H 0.24234 0.54394 0.21467 0.0
H442 H 0.16452 0.54494 0.25134 0.0
H443 H 0.17393 0.5761 0.15173 0.0
C444 C 0.23521 0.7148 0.04084 0.0
C445 C 0.20711 0.70924 0.03252 0.0
C446 C 0.24162 0.69279 0.03444 0.0
C447 C 0.21969 0.66465 0.02343 0.0
C448 C 0.19139 0.65879 0.01872 0.0
C449 C 0.18518 0.68091 0.02244 0.0
C450 C 0.22562 0.64087 0.01706 0.0
C451 C 0.2182 0.62172 0.07144 0.0
C452 C 0.23646 0.63577 0.95655 0.0
C453 C 0.24769 0.65682 0.9002 0.0
C454 C 0.2306 0.6663 0.86847 0.0
C455 C 0.24193 0.68684 0.81695 0.0
C456 C 0.27019 0.69774 0.79595 0.0
C457 C 0.28711 0.68794 0.82602 0.0
C458 C 0.27591 0.6675 0.87773 0.0
C459 C 0.18804 0.50911 0.98951 0.0
C460 C 0.20897 0.50387 0.96225 0.0
C461 C 0.19402 0.53696 1.0016 0.0
C462 C 0.22118 0.56025 0.98736 0.0
C463 C 0.24187 0.5551 0.95783 0.0
C464 C 0.23572 0.52705 0.94492 0.0
C465 C 0.22704 0.58971 1.00197 0.0
C466 C 0.23658 0.60994 0.94937 0.0
C467 C 0.21972 0.59663 0.06542 0.0
C468 C 0.21388 0.57806 0.12593 0.0
C469 C 0.23312 0.56885 0.14455 0.0
C470 C 0.2275 0.55103 0.20083 0.0
C471 C 0.20278 0.54242 0.23926 0.0
C472 C 0.18366 0.55165 0.22153 0.0
C473 C 0.18916 0.56943 0.1652 0.0
H474 H 0.19846 0.52862 0.28282 0.0
H475 H 0.27892 0.71366 0.75611 0.0
H476 H 0.5108 0.23488 0.93885 0.0
H477 H 0.56068 0.24646 0.92959 0.0
H478 H 0.55289 0.20379 0.12045 0.0
H479 H 0.50392 0.19403 0.13189 0.0
H480 H 0.60369 0.247 0.11239 0.0
H481 H 0.54283 0.17025 0.96226 0.0
H482 H 0.5082 0.14761 0.8691 0.0
H483 H 0.5674 0.21011 0.72898 0.0
H484 H 0.60227 0.23325 0.82149 0.0
H485 H 0.70581 0.20069 0.07135 0.0
H486 H 0.66688 0.21016 0.09266 0.0
H487 H 0.67847 0.24706 0.89227 0.0
H488 H 0.71542 0.23457 0.86892 0.0
H489 H 0.62744 0.21169 0.9041 0.0
H490 H 0.68955 0.28702 0.07148 0.0
H491 H 0.7194 0.30459 0.17534 0.0
H492 H 0.65411 0.23568 0.29072 0.0
H493 H 0.6236 0.21808 0.18896 0.0
C494 C 0.52014 0.22901 0.97997 0.0
C495 C 0.50363 0.21397 0.03658 0.0
C496 C 0.5485 0.23519 0.97416 0.0
C497 C 0.56045 0.22553 0.02376 0.0
C498 C 0.54425 0.21149 0.08149 0.0
C499 C 0.51618 0.20577 0.0878 0.0
C500 C 0.58892 0.22802 0.014 0.0
C501 C 0.60898 0.23935 0.06674 0.0
C502 C 0.5958 0.21787 0.95477 0.0
C503 C 0.57499 0.20373 0.89896 0.0
C504 C 0.54838 0.17927 0.91166 0.0
C505 C 0.52872 0.16632 0.85897 0.0
C506 C 0.53555 0.17748 0.79321 0.0
C507 C 0.5621 0.20154 0.77997 0.0
C508 C 0.58182 0.21458 0.83251 0.0
C509 C 0.70045 0.21151 0.03269 0.0
C510 C 0.71355 0.21705 0.9687 0.0
C511 C 0.67833 0.21728 0.0451 0.0
C512 C 0.66967 0.22981 0.99458 0.0
C513 C 0.68445 0.23727 0.9322 0.0
C514 C 0.70569 0.23032 0.91883 0.0
C515 C 0.64285 0.23119 1.00228 0.0
C516 C 0.62274 0.22014 0.94919 0.0
C517 C 0.63558 0.24069 0.06229 0.0
C518 C 0.65444 0.25114 0.12254 0.0
C519 C 0.68169 0.27555 0.11893 0.0
C520 C 0.69866 0.28553 0.1773 0.0
C521 C 0.6888 0.27111 0.23899 0.0
C522 C 0.66178 0.2468 0.24286 0.0
C523 C 0.64457 0.23693 0.18507 0.0
H524 H 0.70205 0.27889 0.28389 0.0
H525 H 0.5203 0.16743 0.75248 0.0
H526 H 0.48952 0.732 0.072 0.0
H527 H 0.43774 0.7006 0.08324 0.0
H528 H 0.43712 0.65761 0.89777 0.0
H529 H 0.48793 0.69032 0.8836 0.0
H530 H 0.39163 0.66017 0.90013 0.0
H531 H 0.44092 0.63384 0.07018 0.0
H532 H 0.47166 0.64329 0.17065 0.0
H533 H 0.41632 0.66232 0.2884 0.0
H534 H 0.38541 0.65324 0.18832 0.0
H535 H 0.30531 0.5126 0.92483 0.0
H536 H 0.33874 0.56373 0.91487 0.0
H537 H 0.30274 0.57908 0.09484 0.0
H538 H 0.26933 0.52735 0.10521 0.0
H539 H 0.3581 0.60056 0.10805 0.0
H540 H 0.30535 0.61954 0.93126 0.0
H541 H 0.27708 0.6089 0.82551 0.0
H542 H 0.34128 0.60056 0.71676 0.0
H543 H 0.36997 0.61132 0.82138 0.0
C544 C 0.47809 0.71637 0.03275 0.0
C545 C 0.49272 0.71392 0.9764 0.0
C546 C 0.44856 0.69815 0.03966 0.0
C547 C 0.43341 0.67637 0.99183 0.0
C548 C 0.44809 0.67428 0.93525 0.0
C549 C 0.4773 0.69285 0.92751 0.0
C550 C 0.40283 0.6543 1.00148 0.0
C551 C 0.38427 0.64725 0.94584 0.0
C552 C 0.39264 0.6379 0.06174 0.0
C553 C 0.41111 0.64323 0.12175 0.0
C554 C 0.43543 0.64019 0.11745 0.0
C555 C 0.45285 0.64546 0.17428 0.0
C556 C 0.446 0.6535 0.23581 0.0
C557 C 0.42164 0.65618 0.24067 0.0
C558 C 0.40416 0.65097 0.18395 0.0
C559 C 0.30395 0.52704 0.96086 0.0
C560 C 0.28471 0.51628 0.01528 0.0
C561 C 0.32286 0.55635 0.95482 0.0
C562 C 0.32302 0.57554 0.0033 0.0
C563 C 0.30283 0.56481 0.05632 0.0
C564 C 0.28381 0.53533 0.06232 0.0
C565 C 0.34756 0.60534 0.00508 0.0
C566 C 0.36498 0.61404 0.06318 0.0
C567 C 0.357 0.62288 0.94655 0.0
C568 C 0.33949 0.61575 0.88422 0.0
C569 C 0.31321 0.6151 0.88491 0.0
C570 C 0.2972 0.6092 0.82523 0.0
C571 C 0.30725 0.60384 0.76478 0.0
C572 C 0.33346 0.6046 0.76366 0.0
C573 C 0.34964 0.61071 0.82301 0.0
H574 H 0.29478 0.59924 0.71874 0.0
H575 H 0.45952 0.65757 0.27975 0.0
H576 H 0.78808 0.48941 0.8257 0.0
H577 H 0.77732 0.43965 0.83182 0.0
H578 H 0.76422 0.43973 0.04807 0.0
H579 H 0.7775 0.49005 0.04235 0.0
H580 H 0.80006 0.42223 0.02053 0.0
H581 H 0.71227 0.40671 0.92005 0.0
H582 H 0.6829 0.41145 0.831 0.0
H583 H 0.70731 0.36673 0.69047 0.0
H584 H 0.7379 0.36289 0.77756 0.0
H585 H 0.75852 0.28783 0.12223 0.0
H586 H 0.75018 0.3266 0.08828 0.0
H587 H 0.76712 0.31611 0.87982 0.0
H588 H 0.77534 0.27696 0.91347 0.0
H589 H 0.72907 0.3374 0.89147 0.0
H590 H 0.82112 0.35979 0.9738 0.0
H591 H 0.85456 0.35629 0.05305 0.0
H592 H 0.82578 0.3893 0.21425 0.0
H593 H 0.7918 0.39253 0.13617 0.0
C594 C 0.78231 0.47852 0.87419 0.0
C595 C 0.78241 0.49313 0.93337 0.0
C596 C 0.77604 0.45007 0.8776 0.0
C597 C 0.76949 0.43572 0.94025 0.0
C598 C 0.76885 0.45019 0.99899 0.0
C599 C 0.7757 0.47872 0.99565 0.0
C600 C 0.76617 0.40678 0.94666 0.0
C601 C 0.78419 0.4037 0.99283 0.0
C602 C 0.74655 0.3828 0.90769 0.0
C603 C 0.72768 0.38476 0.85554 0.0
C604 C 0.71165 0.39814 0.87002 0.0
C605 C 0.69484 0.40076 0.81975 0.0
C606 C 0.69325 0.38941 0.75515 0.0
C607 C 0.70859 0.37555 0.74055 0.0
C608 C 0.72578 0.37328 0.79031 0.0
C609 C 0.75917 0.29292 0.0688 0.0
C610 C 0.76763 0.2796 0.02042 0.0
C611 C 0.75432 0.31496 0.04951 0.0
C612 C 0.75842 0.32445 0.98198 0.0
C613 C 0.76388 0.30914 0.93228 0.0
C614 C 0.76853 0.2868 0.95151 0.0
C615 C 0.76221 0.35308 0.96693 0.0
C616 C 0.74473 0.35612 0.91893 0.0
C617 C 0.78287 0.37744 1.00252 0.0
C618 C 0.80379 0.37622 0.04925 0.0
C619 C 0.82184 0.36618 0.02623 0.0
C620 C 0.84088 0.36424 0.07093 0.0
C621 C 0.84226 0.37253 0.13867 0.0
C622 C 0.82467 0.38287 0.16178 0.0
C623 C 0.80553 0.38479 0.11731 0.0
H624 H 0.857 0.37099 0.17322 0.0
H625 H 0.68004 0.39127 0.71649 0.0
H626 H 0.27074 0.75033 0.91376 0.0
H627 H 0.30872 0.73774 0.92014 0.0
H628 H 0.35259 0.80377 0.06982 0.0
H629 H 0.31481 0.81612 0.06398 0.0
H630 H 0.38275 0.80923 0.9457 0.0
H631 H 0.32966 0.74156 0.12307 0.0
H632 H 0.29101 0.69895 0.17924 0.0
H633 H 0.29809 0.64489 0.03004 0.0
H634 H 0.33689 0.68722 0.97288 0.0
H635 H 0.49197 0.80356 0.12189 0.0
H636 H 0.44256 0.79098 0.10027 0.0
H637 H 0.44449 0.75355 0.90844 0.0
H638 H 0.49464 0.76707 0.92875 0.0
H639 H 0.38864 0.72585 0.03088 0.0
H640 H 0.44445 0.79766 0.85479 0.0
H641 H 0.4879 0.84159 0.81832 0.0
H642 H 0.47642 0.88854 0.97936 0.0
H643 H 0.43313 0.84474 0.01732 0.0
C644 C 0.28814 0.76148 0.94937 0.0
C645 C 0.28988 0.78394 0.9891 0.0
C646 C 0.30968 0.75423 0.95311 0.0
C647 C 0.33333 0.76973 0.9957 0.0
C648 C 0.33437 0.7914 0.03711 0.0
C649 C 0.31289 0.79849 0.03369 0.0
C650 C 0.35922 0.7671 0.98965 0.0
C651 C 0.38384 0.79077 0.96356 0.0
C652 C 0.36057 0.74285 0.01187 0.0
C653 C 0.33579 0.71763 0.04285 0.0
C654 C 0.32265 0.72065 0.10146 0.0
C655 C 0.30094 0.69651 0.13393 0.0
C656 C 0.2921 0.66924 0.10814 0.0
C657 C 0.30494 0.66604 0.04981 0.0
C658 C 0.32683 0.69009 0.01745 0.0
C659 C 0.48181 0.7924 0.07537 0.0
C660 C 0.49702 0.7861 0.02717 0.0
C661 C 0.45355 0.78501 0.06342 0.0
C662 C 0.43996 0.7712 0.00311 0.0
C663 C 0.45466 0.76397 0.95559 0.0
C664 C 0.48319 0.77168 0.96724 0.0
C665 C 0.4118 0.76799 0.98756 0.0
C666 C 0.38698 0.74359 0.01014 0.0
C667 C 0.41006 0.79153 0.96244 0.0
C668 C 0.43577 0.81793 0.93917 0.0
C669 C 0.45136 0.81732 0.8827 0.0
C670 C 0.47591 0.84218 0.86172 0.0
C671 C 0.48496 0.86783 0.89661 0.0
C672 C 0.46941 0.86867 0.95243 0.0
C673 C 0.44486 0.84384 0.97366 0.0
H674 H 0.50397 0.88706 0.8803 0.0
H675 H 0.27538 0.6506 0.13352 0.0
H676 H 0.68392 0.49773 0.93732 0.0
H677 H 0.64676 0.44722 0.94428 0.0
H678 H 0.69868 0.43152 0.08424 0.0
H679 H 0.73491 0.48254 0.08119 0.0
H680 H 0.66446 0.39095 0.94572 0.0
H681 H 0.6589 0.42673 0.16978 0.0
H682 H 0.65802 0.46289 0.24466 0.0
H683 H 0.58447 0.45397 0.13927 0.0
H684 H 0.58525 0.41808 0.06303 0.0
H685 H 0.51148 0.27429 0.08458 0.0
H686 H 0.56227 0.30926 0.10296 0.0
H687 H 0.56959 0.33637 0.89417 0.0
H688 H 0.51926 0.30177 0.8761 0.0
H689 H 0.58032 0.36611 0.09059 0.0
H690 H 0.62926 0.36386 0.83641 0.0
H691 H 0.63387 0.3312 0.75647 0.0
H692 H 0.62347 0.27469 0.92079 0.0
H693 H 0.61778 0.30643 1.00149 0.0
C694 C 0.68757 0.48336 0.9686 0.0
C695 C 0.71285 0.49365 0.00633 0.0
C696 C 0.66637 0.45464 0.97271 0.0
C697 C 0.67011 0.43578 0.01465 0.0
C698 C 0.69561 0.44578 0.05114 0.0
C699 C 0.71659 0.4747 0.04805 0.0
C700 C 0.64667 0.40593 0.02152 0.0
C701 C 0.64629 0.38529 0.97806 0.0
C702 C 0.62303 0.39866 0.06424 0.0
C703 C 0.62232 0.41996 0.11037 0.0
C704 C 0.64273 0.4327 0.16217 0.0
C705 C 0.64221 0.4531 0.20495 0.0
C706 C 0.62124 0.46078 0.19662 0.0
C707 C 0.60071 0.44802 0.14562 0.0
C708 C 0.60117 0.42764 0.10266 0.0
C709 C 0.52432 0.28707 0.04225 0.0
C710 C 0.51166 0.28547 0.97896 0.0
C711 C 0.55324 0.30702 0.05272 0.0
C712 C 0.56982 0.32531 0.99981 0.0
C713 C 0.55749 0.32216 0.93541 0.0
C714 C 0.52866 0.30254 0.92521 0.0
C715 C 0.59796 0.35092 0.01364 0.0
C716 C 0.59899 0.37118 0.0601 0.0
C717 C 0.62225 0.35791 0.97335 0.0
C718 C 0.62302 0.33744 0.92475 0.0
C719 C 0.62763 0.34426 0.8553 0.0
C720 C 0.63027 0.32583 0.80988 0.0
C721 C 0.62869 0.3007 0.83353 0.0
C722 C 0.62414 0.29382 0.90251 0.0
C723 C 0.621 0.31192 0.94805 0.0
H724 H 0.63117 0.28666 0.79847 0.0
H725 H 0.62087 0.47657 0.22979 0.0
H726 H 0.15756 0.34451 0.78882 0.0
H727 H 0.1569 0.33308 0.66845 0.0
H728 H 0.24149 0.40599 0.64521 0.0
H729 H 0.24232 0.41676 0.76634 0.0
H730 H 0.15549 0.36567 0.57584 0.0
H731 H 0.27315 0.40126 0.50175 0.0
H732 H 0.31381 0.39795 0.54789 0.0
H733 H 0.25622 0.32374 0.66321 0.0
H734 H 0.21519 0.32631 0.61698 0.0
H735 H 0.19327 0.4245 0.2462 0.0
H736 H 0.18563 0.41124 0.36647 0.0
H737 H 0.19774 0.33948 0.32492 0.0
H738 H 0.20592 0.35327 0.20474 0.0
H739 H 0.23038 0.36851 0.42521 0.0
H740 H 0.13199 0.3306 0.37667 0.0
H741 H 0.08959 0.33023 0.32931 0.0
H742 H 0.10424 0.40019 0.45895 0.0
H743 H 0.14703 0.40133 0.50626 0.0
C744 C 0.17651 0.35718 0.75852 0.0
C745 C 0.20008 0.38129 0.78662 0.0
C746 C 0.17602 0.35087 0.6896 0.0
C747 C 0.19899 0.3688 0.64728 0.0
C748 C 0.2236 0.39157 0.67669 0.0
C749 C 0.2242 0.39766 0.74608 0.0
C750 C 0.19562 0.36615 0.57205 0.0
C751 C 0.17177 0.366 0.54299 0.0
C752 C 0.21651 0.36607 0.52886 0.0
C753 C 0.24108 0.36414 0.55623 0.0
C754 C 0.26913 0.38414 0.53664 0.0
C755 C 0.29226 0.38241 0.56288 0.0
C756 C 0.2876 0.3607 0.60858 0.0
C757 C 0.2598 0.34061 0.62798 0.0
C758 C 0.23661 0.34222 0.60183 0.0
C759 C 0.19309 0.40524 0.26252 0.0
C760 C 0.19973 0.3896 0.21661 0.0
C761 C 0.18891 0.39773 0.33129 0.0
C762 C 0.19105 0.37428 0.35505 0.0
C763 C 0.19605 0.35768 0.30806 0.0
C764 C 0.20043 0.36535 0.23942 0.0
C765 C 0.19065 0.36879 0.42931 0.0
C766 C 0.21386 0.36763 0.45814 0.0
C767 C 0.16885 0.36701 0.47233 0.0
C768 C 0.14284 0.36614 0.44478 0.0
C769 C 0.12627 0.34601 0.39483 0.0
C770 C 0.10216 0.34566 0.36799 0.0
C771 C 0.09425 0.36519 0.39106 0.0
C772 C 0.1104 0.38507 0.44114 0.0
C773 C 0.13457 0.38556 0.46805 0.0
H774 H 0.07558 0.3649 0.37018 0.0
H775 H 0.30553 0.35942 0.62888 0.0
H776 H 0.84777 0.23016 0.8128 0.0
H777 H 0.85128 0.22624 0.68919 0.0
H778 H 0.77004 0.14794 0.68915 0.0
H779 H 0.76699 0.15122 0.81173 0.0
H780 H 0.80276 0.14349 0.59833 0.0
H781 H 0.77531 0.21271 0.65241 0.0
H782 H 0.77928 0.25557 0.7074 0.0
H783 H 0.85901 0.30826 0.60544 0.0
H784 H 0.85572 0.26561 0.5506 0.0
H785 H 0.76435 0.16364 0.24804 0.0
H786 H 0.76465 0.15381 0.37057 0.0
H787 H 0.85414 0.21695 0.38022 0.0
H788 H 0.85394 0.22653 0.2596 0.0
H789 H 0.81584 0.22712 0.46501 0.0
H790 H 0.83986 0.15455 0.40683 0.0
H791 H 0.83165 0.11032 0.35045 0.0
H792 H 0.75243 0.06237 0.45798 0.0
H793 H 0.75997 0.10643 0.51428 0.0
C794 C 0.83098 0.21189 0.78644 0.0
C795 C 0.80683 0.19135 0.82181 0.0
C796 C 0.83287 0.20972 0.71578 0.0
C797 C 0.81058 0.18708 0.67944 0.0
C798 C 0.78742 0.16569 0.71561 0.0
C799 C 0.78558 0.16779 0.78586 0.0
C800 C 0.81016 0.18658 0.6037 0.0
C801 C 0.80545 0.16174 0.56926 0.0
C802 C 0.81341 0.21022 0.56537 0.0
C803 C 0.81543 0.23594 0.59803 0.0
C804 C 0.7938 0.23341 0.64213 0.0
C805 C 0.79591 0.25767 0.67322 0.0
C806 C 0.81943 0.28461 0.66008 0.0
C807 C 0.84084 0.28736 0.61568 0.0
C808 C 0.83887 0.26316 0.58457 0.0
C809 C 0.78424 0.17445 0.27595 0.0
C810 C 0.80912 0.19588 0.24454 0.0
C811 C 0.78439 0.16902 0.34588 0.0
C812 C 0.80939 0.18496 0.3845 0.0
C813 C 0.83462 0.20456 0.35159 0.0
C814 C 0.83449 0.20986 0.28249 0.0
C815 C 0.80898 0.18432 0.45989 0.0
C816 C 0.8133 0.20895 0.49421 0.0
C817 C 0.80481 0.16033 0.4978 0.0
C818 C 0.80031 0.13385 0.46414 0.0
C819 C 0.82054 0.13463 0.41792 0.0
C820 C 0.81605 0.10958 0.38611 0.0
C821 C 0.79149 0.08356 0.40045 0.0
C822 C 0.77141 0.08254 0.44682 0.0
C823 C 0.7758 0.10755 0.47873 0.0
H824 H 0.78805 0.06418 0.37578 0.0
H825 H 0.82102 0.30337 0.68418 0.0
H826 H 0.65889 0.80899 0.80621 0.0
H827 H 0.67036 0.81432 0.68452 0.0
H828 H 0.59714 0.82386 0.64517 0.0
H829 H 0.58594 0.81888 0.76676 0.0
H830 H 0.61185 0.76862 0.59859 0.0
H831 H 0.63105 0.87018 0.58655 0.0
H832 H 0.66 0.92018 0.6249 0.0
H833 H 0.73667 0.92016 0.56771 0.0
H834 H 0.7081 0.86998 0.52998 0.0
H835 H 0.56625 0.76797 0.26983 0.0
H836 H 0.5798 0.77075 0.38834 0.0
H837 H 0.66881 0.81933 0.33217 0.0
H838 H 0.65486 0.817 0.21215 0.0
H839 H 0.65851 0.84642 0.42869 0.0
H840 H 0.63969 0.7515 0.40836 0.0
H841 H 0.61425 0.70085 0.37397 0.0
H842 H 0.54231 0.68586 0.49643 0.0
H843 H 0.56711 0.7365 0.53081 0.0
C844 C 0.64633 0.81394 0.77184 0.0
C845 C 0.62187 0.81404 0.7956 0.0
C846 C 0.65274 0.81676 0.70243 0.0
C847 C 0.6347 0.81966 0.656 0.0
C848 C 0.61165 0.82223 0.68038 0.0
C849 C 0.60539 0.81963 0.74987 0.0
C850 C 0.63615 0.81406 0.58293 0.0
C851 C 0.62195 0.78554 0.56115 0.0
C852 C 0.65054 0.83611 0.53501 0.0
C853 C 0.66751 0.86632 0.55631 0.0
C854 C 0.65408 0.88077 0.58279 0.0
C855 C 0.67041 0.90915 0.60426 0.0
C856 C 0.70017 0.92331 0.59899 0.0
C857 C 0.71364 0.90915 0.57192 0.0
C858 C 0.69739 0.88077 0.55046 0.0
C859 C 0.58874 0.7781 0.28244 0.0
C860 C 0.60953 0.7918 0.23199 0.0
C861 C 0.59654 0.7798 0.35041 0.0
C862 C 0.6254 0.79511 0.36966 0.0
C863 C 0.64641 0.80732 0.31866 0.0
C864 C 0.63851 0.80561 0.25009 0.0
C865 C 0.63271 0.80075 0.44316 0.0
C866 C 0.64873 0.82926 0.4656 0.0
C867 C 0.62028 0.77853 0.49201 0.0
C868 C 0.60529 0.7479 0.47204 0.0
C869 C 0.61839 0.73745 0.42771 0.0
C870 C 0.60407 0.70872 0.40823 0.0
C871 C 0.57668 0.69015 0.43297 0.0
C872 C 0.56355 0.70026 0.47737 0.0
C873 C 0.57776 0.72898 0.49699 0.0
H874 H 0.56562 0.66792 0.41778 0.0
H875 H 0.71278 0.94526 0.61572 0.0
H876 H 0.76935 0.59424 0.77397 0.0
H877 H 0.77131 0.59977 0.65032 0.0
H878 H 0.85946 0.66617 0.66357 0.0
H879 H 0.85774 0.6602 0.78695 0.0
H880 H 0.8238 0.66858 0.54244 0.0
H881 H 0.85735 0.61077 0.65566 0.0
H882 H 0.85252 0.57518 0.74102 0.0
H883 H 0.77361 0.51265 0.64995 0.0
H884 H 0.77773 0.54811 0.56477 0.0
H885 H 0.8466 0.63373 0.20333 0.0
H886 H 0.85795 0.6472 0.32383 0.0
H887 H 0.78258 0.56881 0.38305 0.0
H888 H 0.77219 0.55498 0.2653 0.0
H889 H 0.82111 0.57923 0.4699 0.0
H890 H 0.78833 0.63762 0.35309 0.0
H891 H 0.79455 0.67353 0.26737 0.0
H892 H 0.87147 0.73599 0.36552 0.0
H893 H 0.86666 0.7 0.44974 0.0
C894 C 0.78857 0.61126 0.75096 0.0
C895 C 0.81339 0.62679 0.78986 0.0
C896 C 0.78977 0.61424 0.68017 0.0
C897 C 0.81567 0.63311 0.6478 0.0
C898 C 0.83927 0.65157 0.68749 0.0
C899 C 0.83821 0.64824 0.75809 0.0
C900 C 0.81986 0.62876 0.57515 0.0
C901 C 0.82344 0.6492 0.5263 0.0
C902 C 0.81988 0.60371 0.55444 0.0
C903 C 0.81771 0.58214 0.60433 0.0
C904 C 0.83887 0.58949 0.65417 0.0
C905 C 0.83627 0.56935 0.70247 0.0
C906 C 0.81275 0.5417 0.70096 0.0
C907 C 0.7918 0.5341 0.65106 0.0
C908 C 0.79426 0.5542 0.60276 0.0
C909 C 0.83306 0.61912 0.24241 0.0
C910 C 0.80828 0.5935 0.2248 0.0
C911 C 0.83932 0.62694 0.3112 0.0
C912 C 0.82069 0.60937 0.36284 0.0
C913 C 0.79725 0.58293 0.34474 0.0
C914 C 0.79124 0.57507 0.27695 0.0
C915 C 0.82367 0.61837 0.43549 0.0
C916 C 0.8217 0.59881 0.48527 0.0
C917 C 0.82509 0.64423 0.45655 0.0
C918 C 0.82733 0.66601 0.40722 0.0
C919 C 0.80668 0.65896 0.35619 0.0
C920 C 0.80994 0.67932 0.30782 0.0
C921 C 0.83323 0.70707 0.31124 0.0
C922 C 0.85343 0.71448 0.36289 0.0
C923 C 0.85056 0.69406 0.4107 0.0
H924 H 0.83565 0.72281 0.2738 0.0
H925 H 0.81083 0.52615 0.73829 0.0
H926 H 0.24992 0.81752 0.24317 0.0
H927 H 0.24281 0.82154 0.36419 0.0
H928 H 0.17728 0.84214 0.31785 0.0
H929 H 0.18433 0.83795 0.19601 0.0
H930 H 0.22051 0.8669 0.45791 0.0
H931 H 0.14487 0.7839 0.33401 0.0
H932 H 0.13116 0.74747 0.24426 0.0
H933 H 0.18302 0.71724 0.33715 0.0
H934 H 0.19743 0.75389 0.42673 0.0
H935 H 0.17028 0.81375 0.7903 0.0
H936 H 0.16429 0.82203 0.67002 0.0
H937 H 0.2013 0.77057 0.61095 0.0
H938 H 0.20664 0.76193 0.7298 0.0
H939 H 0.16391 0.76425 0.52057 0.0
H940 H 0.24183 0.8453 0.63653 0.0
H941 H 0.26147 0.88277 0.72464 0.0
H942 H 0.2107 0.91749 0.64839 0.0
H943 H 0.19046 0.87993 0.56039 0.0
C944 C 0.23538 0.82483 0.25855 0.0
C945 C 0.21795 0.82779 0.21017 0.0
C946 C 0.23111 0.82684 0.32787 0.0
C947 C 0.20933 0.83186 0.35004 0.0
C948 C 0.19435 0.83845 0.3018 0.0
C949 C 0.19861 0.83637 0.23208 0.0
C950 C 0.19845 0.82371 0.42063 0.0
C951 C 0.20748 0.84455 0.47164 0.0
C952 C 0.18196 0.79452 0.43866 0.0
C953 C 0.17235 0.77171 0.38668 0.0
C954 C 0.15343 0.76955 0.33506 0.0
C955 C 0.14554 0.74888 0.28425 0.0
C956 C 0.15624 0.73008 0.28494 0.0
C957 C 0.17475 0.73183 0.33665 0.0
C958 C 0.18277 0.75252 0.38747 0.0
C959 C 0.17583 0.80315 0.75146 0.0
C960 C 0.18893 0.7872 0.76928 0.0
C961 C 0.17287 0.80827 0.6827 0.0
C962 C 0.18307 0.79758 0.6311 0.0
C963 C 0.1934 0.77926 0.64934 0.0
C964 C 0.19635 0.7742 0.71752 0.0
C965 C 0.18607 0.80738 0.55899 0.0
C966 C 0.17593 0.78673 0.50723 0.0
C967 C 0.20179 0.83675 0.54067 0.0
C968 C 0.21441 0.85966 0.59247 0.0
C969 C 0.23478 0.86087 0.63878 0.0
C970 C 0.246 0.8821 0.68869 0.0
C971 C 0.23726 0.90244 0.69226 0.0
C972 C 0.21739 0.90167 0.64568 0.0
C973 C 0.20604 0.88043 0.59578 0.0
H974 H 0.24593 0.91883 0.73102 0.0
H975 H 0.15018 0.71414 0.24546 0.0
H976 H 0.39059 0.24829 0.75039 0.0
H977 H 0.3778 0.23676 0.63281 0.0
H978 H 0.36512 0.15215 0.66513 0.0
H979 H 0.37937 0.16419 0.78474 0.0
H980 H 0.39573 0.17438 0.55595 0.0
H981 H 0.30794 0.16455 0.62951 0.0
H982 H 0.27631 0.1774 0.69142 0.0
H983 H 0.30783 0.25404 0.57285 0.0
H984 H 0.33994 0.24185 0.51069 0.0
H985 H 0.35359 0.14096 0.2192 0.0
H986 H 0.34388 0.14136 0.33988 0.0
H987 H 0.38334 0.23318 0.33465 0.0
H988 H 0.39338 0.23296 0.2127 0.0
H989 H 0.33256 0.20074 0.43033 0.0
H990 H 0.42511 0.21202 0.37048 0.0
H991 H 0.45588 0.19783 0.30917 0.0
H992 H 0.41251 0.11533 0.4047 0.0
H993 H 0.38112 0.12889 0.46566 0.0
C994 C 0.3848 0.227 0.73334 0.0
C995 C 0.38612 0.20716 0.77753 0.0
C996 C 0.37712 0.22033 0.66564 0.0
C997 C 0.36992 0.1934 0.63983 0.0
C998 C 0.37038 0.17306 0.68396 0.0
C999 C 0.37835 0.17986 0.75243 0.0
C1000 C 0.36462 0.18803 0.56553 0.0
C1001 C 0.38135 0.17948 0.52892 0.0
C1002 C 0.34626 0.19518 0.52955 0.0
C1003 C 0.32646 0.20231 0.56558 0.0
C1004 C 0.30822 0.1842 0.61677 0.0
C1005 C 0.2902 0.19137 0.65191 0.0
C1006 C 0.2901 0.21655 0.63618 0.0
C1007 C 0.30793 0.23454 0.58498 0.0
C1008 C 0.32599 0.22746 0.54963 0.0
C1009 C 0.35942 0.16123 0.2431 0.0
C1010 C 0.37464 0.187 0.20675 0.0
C1011 C 0.35383 0.16138 0.31214 0.0
C1012 C 0.36333 0.18729 0.34637 0.0
C1013 C 0.37589 0.21294 0.30898 0.0
C1014 C 0.38154 0.21281 0.23934 0.0
C1015 C 0.364 0.18763 0.42174 0.0
C1016 C 0.34648 0.19523 0.45803 0.0
C1017 C 0.38138 0.17932 0.45768 0.0
C1018 C 0.40057 0.17135 0.42199 0.0
C1019 C 0.42198 0.19077 0.37795 0.0
C1020 C 0.43955 0.18286 0.34333 0.0
C1021 C 0.4361 0.15566 0.35288 0.0
C1022 C 0.41513 0.13637 0.39726 0.0
C1023 C 0.39744 0.14416 0.43186 0.0
H1024 H 0.44972 0.14957 0.32603 0.0
H1025 H 0.2762 0.22211 0.66362 0.0
loop_
_geom_bond_atom_site_label_1
_geom_bond_atom_site_label_2
_geom_bond_distance
_geom_bond_site_symmetry_2
_ccdc_geom_bond_type
Zn0 O6 1.920 . S
Zn0 O12 1.898 . S
Zn0 O15 1.905 . S
Zn1 O9 1.905 . S
Zn1 O10 1.898 . S
Zn1 O18 1.920 . S
Zn2 O5 2.080 . S
Zn2 O8 2.114 . S
Zn2 O11 2.120 . S
Zn2 O13 2.120 1_554 S
Zn2 O14 2.114 1_554 S
Zn2 O17 2.080 1_554 S
C3 O8 1.166 . S
C3 O9 1.182 . S
C4 O10 1.167 . S
C4 O11 1.299 . S
O5 Zn2 2.080 . S
O5 C19 1.305 1_554 S
O6 Zn0 1.920 . S
O6 C19 1.234 . S
C7 O12 1.167 . S
C7 O13 1.299 . S
O8 Zn2 2.114 . S
O8 C3 1.166 . S
O9 Zn1 1.905 . S
O9 C3 1.182 . S
O10 Zn1 1.898 . S
O10 C4 1.167 . S
O11 Zn2 2.120 . S
O11 C4 1.299 . S
O12 Zn0 1.898 . S
O12 C7 1.167 . S
O13 Zn2 2.120 1_556 S
O13 C7 1.299 . S
O14 Zn2 2.114 1_556 S
O14 C16 1.166 . S
O15 Zn0 1.905 . S
O15 C16 1.182 . S
C16 O14 1.166 . S
C16 O15 1.182 . S
O17 Zn2 2.080 1_556 S
O17 C20 1.305 1_556 S
O18 Zn1 1.920 . S
O18 C20 1.234 . S
C19 O5 1.305 1_556 S
C19 O6 1.234 . S
C20 O17 1.305 1_554 S
C20 O18 1.234 . S
Zn21 O27 1.920 . S
Zn21 O33 1.898 . S
Zn21 O36 1.905 . S
Zn22 O30 1.905 . S
Zn22 O31 1.898 . S
Zn22 O39 1.920 . S
Zn23 O26 2.080 . S
Zn23 O29 2.114 . S
Zn23 O32 2.120 . S
Zn23 O34 2.120 1_554 S
Zn23 O35 2.114 1_554 S
Zn23 O38 2.080 1_554 S
C24 O29 1.166 . S
C24 O30 1.182 . S
C25 O31 1.167 . S
C25 O32 1.299 . S
O26 Zn23 2.080 . S
O26 C40 1.305 1_554 S
O27 Zn21 1.920 . S
O27 C40 1.234 . S
C28 O33 1.167 . S
C28 O34 1.299 . S
O29 Zn23 2.114 . S
O29 C24 1.166 . S
O30 Zn22 1.905 . S
O30 C24 1.182 . S
O31 Zn22 1.898 . S
O31 C25 1.167 . S
O32 Zn23 2.120 . S
O32 C25 1.299 . S
O33 Zn21 1.898 . S
O33 C28 1.167 . S
O34 Zn23 2.120 1_556 S
O34 C28 1.299 . S
O35 Zn23 2.114 1_556 S
O35 C37 1.166 . S
O36 Zn21 1.905 . S
O36 C37 1.182 . S
C37 O35 1.166 . S
C37 O36 1.182 . S
O38 Zn23 2.080 1_556 S
O38 C41 1.305 1_556 S
O39 Zn22 1.920 . S
O39 C41 1.234 . S
C40 O26 1.305 1_556 S
C40 O27 1.234 . S
C41 O38 1.305 1_554 S
C41 O39 1.234 . S
Zn42 O48 1.920 . S
Zn42 O54 1.898 . S
Zn42 O57 1.905 . S
Zn43 O51 1.905 . S
Zn43 O52 1.898 . S
Zn43 O60 1.920 . S
Zn44 O47 2.080 1_554 S
Zn44 O50 2.114 1_554 S
Zn44 O53 2.120 1_554 S
Zn44 O55 2.120 . S
Zn44 O56 2.114 . S
Zn44 O59 2.080 . S
C45 O50 1.166 . S
C45 O51 1.182 . S
C46 O52 1.167 . S
C46 O53 1.299 . S
O47 Zn44 2.080 1_556 S
O47 C61 1.305 1_556 S
O48 Zn42 1.920 . S
O48 C61 1.234 . S
C49 O54 1.167 . S
C49 O55 1.299 . S
O50 Zn44 2.114 1_556 S
O50 C45 1.166 . S
O51 Zn43 1.905 . S
O51 C45 1.182 . S
O52 Zn43 1.898 . S
O52 C46 1.167 . S
O53 Zn44 2.120 1_556 S
O53 C46 1.299 . S
O54 Zn42 1.898 . S
O54 C49 1.167 . S
O55 Zn44 2.120 . S
O55 C49 1.299 . S
O56 Zn44 2.114 . S
O56 C58 1.166 . S
O57 Zn42 1.905 . S
O57 C58 1.182 . S
C58 O56 1.166 . S
C58 O57 1.182 . S
O59 Zn44 2.080 . S
O59 C62 1.305 1_554 S
O60 Zn43 1.920 . S
O60 C62 1.234 . S
C61 O47 1.305 1_554 S
C61 O48 1.234 . S
C62 O59 1.305 1_556 S
C62 O60 1.234 . S
Zn63 O69 1.920 . S
Zn63 O75 1.898 . S
Zn63 O78 1.905 . S
Zn64 O72 1.905 . S
Zn64 O73 1.898 . S
Zn64 O81 1.920 . S
Zn65 O68 2.080 1_554 S
Zn65 O71 2.114 1_554 S
Zn65 O74 2.120 1_554 S
Zn65 O76 2.120 . S
Zn65 O77 2.114 . S
Zn65 O80 2.080 . S
C66 O71 1.166 . S
C66 O72 1.182 . S
C67 O73 1.167 . S
C67 O74 1.299 . S
O68 Zn65 2.080 1_556 S
O68 C82 1.305 1_556 S
O69 Zn63 1.920 . S
O69 C82 1.234 . S
C70 O75 1.167 . S
C70 O76 1.299 . S
O71 Zn65 2.114 1_556 S
O71 C66 1.166 . S
O72 Zn64 1.905 . S
O72 C66 1.182 . S
O73 Zn64 1.898 . S
O73 C67 1.167 . S
O74 Zn65 2.120 1_556 S
O74 C67 1.299 . S
O75 Zn63 1.898 . S
O75 C70 1.167 . S
O76 Zn65 2.120 . S
O76 C70 1.299 . S
O77 Zn65 2.114 . S
O77 C79 1.166 . S
O78 Zn63 1.905 . S
O78 C79 1.182 . S
C79 O77 1.166 . S
C79 O78 1.182 . S
O80 Zn65 2.080 . S
O80 C83 1.305 1_554 S
O81 Zn64 1.920 . S
O81 C83 1.234 . S
C82 O68 1.305 1_554 S
C82 O69 1.234 . S
C83 O80 1.305 1_556 S
C83 O81 1.234 . S
Zn84 O90 1.920 . S
Zn84 O96 1.898 . S
Zn84 O99 1.905 . S
Zn85 O93 1.905 . S
Zn85 O94 1.898 . S
Zn85 O102 1.920 . S
Zn86 O89 2.080 1_554 S
Zn86 O92 2.114 1_554 S
Zn86 O95 2.120 1_554 S
Zn86 O97 2.120 . S
Zn86 O98 2.114 . S
Zn86 O101 2.080 . S
C87 O92 1.166 . S
C87 O93 1.182 . S
C88 O94 1.167 . S
C88 O95 1.299 . S
O89 Zn86 2.080 1_556 S
O89 C103 1.305 1_556 S
O90 Zn84 1.920 . S
O90 C103 1.234 . S
C91 O96 1.167 . S
C91 O97 1.299 . S
O92 Zn86 2.114 1_556 S
O92 C87 1.166 . S
O93 Zn85 1.905 . S
O93 C87 1.182 . S
O94 Zn85 1.898 . S
O94 C88 1.167 . S
O95 Zn86 2.120 1_556 S
O95 C88 1.299 . S
O96 Zn84 1.898 . S
O96 C91 1.167 . S
O97 Zn86 2.120 . S
O97 C91 1.299 . S
O98 Zn86 2.114 . S
O98 C100 1.166 . S
O99 Zn84 1.905 . S
O99 C100 1.182 . S
C100 O98 1.166 . S
C100 O99 1.182 . S
O101 Zn86 2.080 . S
O101 C104 1.305 1_554 S
O102 Zn85 1.920 . S
O102 C104 1.234 . S
C103 O89 1.305 1_554 S
C103 O90 1.234 . S
C104 O101 1.305 1_556 S
C104 O102 1.234 . S
Zn105 O111 1.920 . S
Zn105 O117 1.898 . S
Zn105 O120 1.905 . S
Zn106 O114 1.905 . S
Zn106 O115 1.898 . S
Zn106 O123 1.920 . S
Zn107 O110 2.080 . S
Zn107 O113 2.114 . S
Zn107 O116 2.120 . S
Zn107 O118 2.120 1_554 S
Zn107 O119 2.114 1_554 S
Zn107 O122 2.080 1_554 S
C108 O113 1.166 . S
C108 O114 1.182 . S
C109 O115 1.167 . S
C109 O116 1.299 . S
O110 Zn107 2.080 . S
O110 C124 1.305 1_554 S
O111 Zn105 1.920 . S
O111 C124 1.234 . S
C112 O117 1.167 . S
C112 O118 1.299 . S
O113 Zn107 2.114 . S
O113 C108 1.166 . S
O114 Zn106 1.905 . S
O114 C108 1.182 . S
O115 Zn106 1.898 . S
O115 C109 1.167 . S
O116 Zn107 2.120 . S
O116 C109 1.299 . S
O117 Zn105 1.898 . S
O117 C112 1.167 . S
O118 Zn107 2.120 1_556 S
O118 C112 1.299 . S
O119 Zn107 2.114 1_556 S
O119 C121 1.166 . S
O120 Zn105 1.905 . S
O120 C121 1.182 . S
C121 O119 1.166 . S
C121 O120 1.182 . S
O122 Zn107 2.080 1_556 S
O122 C125 1.305 1_556 S
O123 Zn106 1.920 . S
O123 C125 1.234 . S
C124 O110 1.305 1_556 S
C124 O111 1.234 . S
C125 O122 1.305 1_554 S
C125 O123 1.234 . S
H126 C144 0.951 . S
H127 C146 0.951 . S
H128 C148 0.950 . S
H129 C149 0.950 . S
H130 C151 0.950 . S
H131 C154 0.950 . S
H132 C155 0.950 . S
H133 C157 0.950 . S
H134 C158 0.950 . S
H135 C159 0.951 . S
H136 C161 0.951 . S
H137 C163 0.950 . S
H138 C164 0.950 . S
H139 C166 0.950 . S
H140 C169 0.950 . S
H141 C170 0.950 . S
H142 C172 0.950 . S
H143 C173 0.950 . S
C144 H126 0.951 . S
C144 C145 1.366 1_556 S
C144 C146 1.388 . S
C145 C144 1.366 1_554 S
C145 C149 1.385 . S
C146 H127 0.951 . S
C146 C144 1.388 . S
C146 C147 1.366 1_556 S
C147 C146 1.366 1_554 S
C147 C148 1.414 . S
C147 C150 1.499 . S
C148 H128 0.950 . S
C148 C147 1.414 . S
C148 C149 1.374 . S
C149 H129 0.950 . S
C149 C145 1.385 . S
C149 C148 1.374 . S
C150 C147 1.499 . S
C150 C151 1.373 . S
C150 C152 1.389 1_554 S
C151 H130 0.950 . S
C151 C150 1.373 . S
C151 C167 1.377 . S
C152 C150 1.389 1_556 S
C152 C153 1.524 . S
C152 C166 1.377 . S
C153 C152 1.524 . S
C153 C154 1.397 . S
C153 C158 1.363 . S
C154 H131 0.950 . S
C154 C153 1.397 . S
C154 C155 1.334 . S
C155 H132 0.950 . S
C155 C154 1.334 . S
C155 C156 1.287 . S
C156 C155 1.287 . S
C156 C157 1.524 . S
C156 H175 0.913 . S
C157 H133 0.950 . S
C157 C156 1.524 . S
C157 C158 1.415 . S
C158 H134 0.950 . S
C158 C153 1.363 . S
C158 C157 1.415 . S
C159 H135 0.951 . S
C159 C160 1.366 1_554 S
C159 C161 1.388 . S
C160 C159 1.366 1_556 S
C160 C164 1.385 . S
C161 H136 0.951 . S
C161 C159 1.388 . S
C161 C162 1.366 1_554 S
C162 C161 1.366 1_556 S
C162 C163 1.414 . S
C162 C165 1.499 . S
C163 H137 0.950 . S
C163 C162 1.414 . S
C163 C164 1.374 . S
C164 H138 0.950 . S
C164 C160 1.385 . S
C164 C163 1.374 . S
C165 C162 1.499 . S
C165 C166 1.373 . S
C165 C167 1.389 1_556 S
C166 H139 0.950 . S
C166 C152 1.377 . S
C166 C165 1.373 . S
C167 C151 1.377 . S
C167 C165 1.389 1_554 S
C167 C168 1.524 . S
C168 C167 1.524 . S
C168 C169 1.397 . S
C168 C173 1.363 . S
C169 H140 0.950 . S
C169 C168 1.397 . S
C169 C170 1.334 . S
C170 H141 0.950 . S
C170 C169 1.334 . S
C170 C171 1.287 . S
C171 C170 1.287 . S
C171 C172 1.524 . S
C171 H174 0.999 . S
C172 H142 0.950 . S
C172 C171 1.524 . S
C172 C173 1.415 . S
C173 H143 0.950 . S
C173 C168 1.363 . S
C173 C172 1.415 . S
H174 C171 0.999 . S
H175 C156 0.913 . S
H176 C194 0.951 . S
H177 C196 0.951 . S
H178 C198 0.950 . S
H179 C199 0.950 . S
H180 C201 0.950 . S
H181 C204 0.950 . S
H182 C205 0.950 . S
H183 C207 0.950 . S
H184 C208 0.950 . S
H185 C209 0.951 . S
H186 C211 0.951 . S
H187 C213 0.950 . S
H188 C214 0.950 . S
H189 C216 0.950 . S
H190 C219 0.950 . S
H191 C220 0.950 . S
H192 C222 0.950 . S
H193 C223 0.950 . S
C194 H176 0.951 . S
C194 C195 1.366 . S
C194 C196 1.388 . S
C195 C194 1.366 . S
C195 C199 1.385 1_554 S
C196 H177 0.951 . S
C196 C194 1.388 . S
C196 C197 1.366 . S
C197 C196 1.366 . S
C197 C198 1.414 1_554 S
C197 C200 1.500 . S
C198 H178 0.950 . S
C198 C197 1.414 1_556 S
C198 C199 1.374 . S
C199 H179 0.950 . S
C199 C195 1.385 1_556 S
C199 C198 1.374 . S
C200 C197 1.500 . S
C200 C201 1.379 . S
C200 C202 1.384 1_554 S
C201 H180 0.950 . S
C201 C200 1.379 . S
C201 C217 1.377 1_455 S
C202 C200 1.384 1_556 S
C202 C203 1.524 . S
C202 C216 1.377 1_455 S
C203 C202 1.524 . S
C203 C204 1.397 . S
C203 C208 1.363 . S
C204 H181 0.950 . S
C204 C203 1.397 . S
C204 C205 1.334 . S
C205 H182 0.950 . S
C205 C204 1.334 . S
C205 C206 1.287 . S
C206 C205 1.287 . S
C206 C207 1.524 . S
C206 H225 0.913 . S
C207 H183 0.950 . S
C207 C206 1.524 . S
C207 C208 1.415 . S
C208 H184 0.950 . S
C208 C203 1.363 . S
C208 C207 1.415 . S
C209 H185 0.951 . S
C209 C210 1.366 . S
C209 C211 1.388 . S
C210 C209 1.366 . S
C210 C214 1.385 1_556 S
C211 H186 0.951 . S
C211 C209 1.388 . S
C211 C212 1.366 . S
C212 C211 1.366 . S
C212 C213 1.414 1_556 S
C212 C215 1.500 . S
C213 H187 0.950 . S
C213 C212 1.414 1_554 S
C213 C214 1.374 . S
C214 H188 0.950 . S
C214 C210 1.385 1_554 S
C214 C213 1.374 . S
C215 C212 1.500 . S
C215 C216 1.377 . S
C215 C217 1.386 1_556 S
C216 H189 0.950 . S
C216 C202 1.377 1_655 S
C216 C215 1.377 . S
C217 C201 1.377 1_655 S
C217 C215 1.386 1_554 S
C217 C218 1.524 . S
C218 C217 1.524 . S
C218 C219 1.397 . S
C218 C223 1.363 . S
C219 H190 0.950 . S
C219 C218 1.397 . S
C219 C220 1.334 . S
C220 H191 0.950 . S
C220 C219 1.334 . S
C220 C221 1.287 . S
C221 C220 1.287 . S
C221 C222 1.524 . S
C221 H224 0.999 . S
C222 H192 0.950 . S
C222 C221 1.524 . S
C222 C223 1.415 . S
C223 H193 0.950 . S
C223 C218 1.363 . S
C223 C222 1.415 . S
H224 C221 0.999 . S
H225 C206 0.913 . S
H226 C244 0.951 . S
H227 C246 0.951 . S
H228 C248 0.950 . S
H229 C249 0.950 . S
H230 C251 0.950 . S
H231 C254 0.950 . S
H232 C255 0.950 . S
H233 C257 0.950 . S
H234 C258 0.950 1_556 S
H235 C259 0.951 . S
H236 C261 0.951 . S
H237 C263 0.950 . S
H238 C264 0.950 . S
H239 C266 0.950 . S
H240 C269 0.950 . S
H241 C270 0.950 . S
H242 C272 0.950 . S
H243 C273 0.950 1_554 S
C244 H226 0.951 . S
C244 C245 1.366 1_556 S
C244 C246 1.388 . S
C245 C244 1.366 1_554 S
C245 C249 1.385 . S
C246 H227 0.951 . S
C246 C244 1.388 . S
C246 C247 1.366 1_556 S
C247 C246 1.366 1_554 S
C247 C248 1.414 . S
C247 C250 1.499 . S
C248 H228 0.950 . S
C248 C247 1.414 . S
C248 C249 1.374 . S
C249 H229 0.950 . S
C249 C245 1.385 . S
C249 C248 1.374 . S
C250 C247 1.499 . S
C250 C251 1.373 1_554 S
C250 C252 1.389 . S
C251 H230 0.950 . S
C251 C250 1.373 1_556 S
C251 C267 1.377 1_545 S
C252 C250 1.389 . S
C252 C253 1.524 . S
C252 C266 1.377 1_545 S
C253 C252 1.524 . S
C253 C254 1.397 . S
C253 C258 1.363 . S
C254 H231 0.950 . S
C254 C253 1.397 . S
C254 C255 1.334 . S
C255 H232 0.950 . S
C255 C254 1.334 . S
C255 C256 1.287 . S
C256 C255 1.287 . S
C256 C257 1.524 . S
C256 H275 0.913 . S
C257 H233 0.950 . S
C257 C256 1.524 . S
C257 C258 1.415 . S
C258 H234 0.950 1_554 S
C258 C253 1.363 . S
C258 C257 1.415 . S
C259 H235 0.951 . S
C259 C260 1.366 1_554 S
C259 C261 1.388 . S
C260 C259 1.366 1_556 S
C260 C264 1.385 . S
C261 H236 0.951 . S
C261 C259 1.388 . S
C261 C262 1.366 1_554 S
C262 C261 1.366 1_556 S
C262 C263 1.414 . S
C262 C265 1.499 . S
C263 H237 0.950 . S
C263 C262 1.414 . S
C263 C264 1.374 . S
C264 H238 0.950 . S
C264 C260 1.385 . S
C264 C263 1.374 . S
C265 C262 1.499 . S
C265 C266 1.373 1_556 S
C265 C267 1.389 . S
C266 H239 0.950 . S
C266 C252 1.377 1_565 S
C266 C265 1.373 1_554 S
C267 C251 1.377 1_565 S
C267 C265 1.389 . S
C267 C268 1.524 . S
C268 C267 1.524 . S
C268 C269 1.397 . S
C268 C273 1.363 . S
C269 H240 0.950 . S
C269 C268 1.397 . S
C269 C270 1.334 . S
C270 H241 0.950 . S
C270 C269 1.334 . S
C270 C271 1.287 . S
C271 C270 1.287 . S
C271 C272 1.524 . S
C271 H274 0.999 . S
C272 H242 0.950 . S
C272 C271 1.524 . S
C272 C273 1.415 . S
C273 H243 0.950 1_556 S
C273 C268 1.363 . S
C273 C272 1.415 . S
H274 C271 0.999 . S
H275 C256 0.913 . S
H276 C294 0.951 . S
H277 C296 0.951 . S
H278 C298 0.950 . S
H279 C299 0.950 . S
H280 C301 0.950 . S
H281 C304 0.950 . S
H282 C305 0.950 . S
H283 C307 0.950 . S
H284 C308 0.950 . S
H285 C309 0.951 . S
H286 C311 0.951 . S
H287 C313 0.950 . S
H288 C314 0.950 . S
H289 C316 0.950 . S
H290 C319 0.950 . S
H291 C320 0.950 . S
H292 C322 0.950 . S
H293 C323 0.950 . S
C294 H276 0.951 . S
C294 C295 1.366 1_554 S
C294 C296 1.388 . S
C295 C294 1.366 1_556 S
C295 C299 1.385 . S
C296 H277 0.951 . S
C296 C294 1.388 . S
C296 C297 1.366 1_554 S
C297 C296 1.366 1_556 S
C297 C298 1.414 . S
C297 C300 1.499 . S
C298 H278 0.950 . S
C298 C297 1.414 . S
C298 C299 1.374 . S
C299 H279 0.950 . S
C299 C295 1.385 . S
C299 C298 1.374 . S
C300 C297 1.499 . S
C300 C301 1.373 . S
C300 C302 1.389 1_556 S
C301 H280 0.950 . S
C301 C300 1.373 . S
C301 C317 1.377 . S
C302 C300 1.389 1_554 S
C302 C303 1.524 . S
C302 C316 1.377 . S
C303 C302 1.524 . S
C303 C304 1.397 . S
C303 C308 1.363 . S
C304 H281 0.950 . S
C304 C303 1.397 . S
C304 C305 1.334 . S
C305 H282 0.950 . S
C305 C304 1.334 . S
C305 C306 1.287 . S
C306 C305 1.287 . S
C306 C307 1.524 . S
C306 H325 0.913 . S
C307 H283 0.950 . S
C307 C306 1.524 . S
C307 C308 1.415 . S
C308 H284 0.950 . S
C308 C303 1.363 . S
C308 C307 1.415 . S
C309 H285 0.951 . S
C309 C310 1.366 1_556 S
C309 C311 1.388 . S
C310 C309 1.366 1_554 S
C310 C314 1.385 . S
C311 H286 0.951 . S
C311 C309 1.388 . S
C311 C312 1.366 1_556 S
C312 C311 1.366 1_554 S
C312 C313 1.414 . S
C312 C315 1.499 . S
C313 H287 0.950 . S
C313 C312 1.414 . S
C313 C314 1.374 . S
C314 H288 0.950 . S
C314 C310 1.385 . S
C314 C313 1.374 . S
C315 C312 1.499 . S
C315 C316 1.373 . S
C315 C317 1.389 1_554 S
C316 H289 0.950 . S
C316 C302 1.377 . S
C316 C315 1.373 . S
C317 C301 1.377 . S
C317 C315 1.389 1_556 S
C317 C318 1.524 . S
C318 C317 1.524 . S
C318 C319 1.397 . S
C318 C323 1.363 . S
C319 H290 0.950 . S
C319 C318 1.397 . S
C319 C320 1.334 . S
C320 H291 0.950 . S
C320 C319 1.334 . S
C320 C321 1.287 . S
C321 C320 1.287 . S
C321 C322 1.524 . S
C321 H324 0.999 . S
C322 H292 0.950 . S
C322 C321 1.524 . S
C322 C323 1.415 . S
C323 H293 0.950 . S
C323 C318 1.363 . S
C323 C322 1.415 . S
H324 C321 0.999 . S
H325 C306 0.913 . S
H326 C344 0.951 . S
H327 C346 0.951 . S
H328 C348 0.950 . S
H329 C349 0.950 . S
H330 C351 0.950 . S
H331 C354 0.950 . S
H332 C355 0.950 . S
H333 C357 0.950 . S
H334 C358 0.950 . S
H335 C359 0.951 . S
H336 C361 0.951 . S
H337 C363 0.950 . S
H338 C364 0.950 . S
H339 C366 0.950 . S
H340 C369 0.950 . S
H341 C370 0.950 . S
H342 C372 0.950 . S
H343 C373 0.950 . S
C344 H326 0.951 . S
C344 C345 1.366 . S
C344 C346 1.388 . S
C345 C344 1.366 . S
C345 C349 1.385 1_556 S
C346 H327 0.951 . S
C346 C344 1.388 . S
C346 C347 1.366 . S
C347 C346 1.366 . S
C347 C348 1.414 1_556 S
C347 C350 1.499 . S
C348 H328 0.950 . S
C348 C347 1.414 1_554 S
C348 C349 1.374 . S
C349 H329 0.950 . S
C349 C345 1.385 1_554 S
C349 C348 1.374 . S
C350 C347 1.499 . S
C350 C351 1.373 1_556 S
C350 C352 1.389 . S
C351 H330 0.950 . S
C351 C350 1.373 1_554 S
C351 C367 1.377 1_455 S
C352 C350 1.389 . S
C352 C353 1.524 . S
C352 C366 1.377 1_455 S
C353 C352 1.524 . S
C353 C354 1.397 . S
C353 C358 1.363 . S
C354 H331 0.950 . S
C354 C353 1.397 . S
C354 C355 1.334 . S
C355 H332 0.950 . S
C355 C354 1.334 . S
C355 C356 1.287 . S
C356 C355 1.287 . S
C356 C357 1.524 . S
C356 H375 0.913 . S
C357 H333 0.950 . S
C357 C356 1.524 . S
C357 C358 1.415 . S
C358 H334 0.950 . S
C358 C353 1.363 . S
C358 C357 1.415 . S
C359 H335 0.951 . S
C359 C360 1.366 . S
C359 C361 1.388 . S
C360 C359 1.366 . S
C360 C364 1.385 1_554 S
C361 H336 0.951 . S
C361 C359 1.388 . S
C361 C362 1.366 . S
C362 C361 1.366 . S
C362 C363 1.414 1_554 S
C362 C365 1.499 . S
C363 H337 0.950 . S
C363 C362 1.414 1_556 S
C363 C364 1.374 . S
C364 H338 0.950 . S
C364 C360 1.385 1_556 S
C364 C363 1.374 . S
C365 C362 1.499 . S
C365 C366 1.373 1_554 S
C365 C367 1.389 . S
C366 H339 0.950 . S
C366 C352 1.377 1_655 S
C366 C365 1.373 1_556 S
C367 C351 1.377 1_655 S
C367 C365 1.389 . S
C367 C368 1.524 . S
C368 C367 1.524 . S
C368 C369 1.397 . S
C368 C373 1.363 . S
C369 H340 0.950 . S
C369 C368 1.397 . S
C369 C370 1.334 . S
C370 H341 0.950 . S
C370 C369 1.334 . S
C370 C371 1.287 . S
C371 C370 1.287 . S
C371 C372 1.524 . S
C371 H374 0.999 . S
C372 H342 0.950 . S
C372 C371 1.524 . S
C372 C373 1.415 . S
C373 H343 0.950 . S
C373 C368 1.363 . S
C373 C372 1.415 . S
H374 C371 0.999 . S
H375 C356 0.913 . S
H376 C394 0.951 . S
H377 C396 0.951 . S
H378 C398 0.950 . S
H379 C399 0.950 . S
H380 C401 0.950 . S
H381 C404 0.950 . S
H382 C405 0.950 . S
H383 C407 0.950 . S
H384 C408 0.950 . S
H385 C409 0.951 . S
H386 C411 0.951 . S
H387 C413 0.950 . S
H388 C414 0.950 . S
H389 C416 0.950 . S
H390 C419 0.950 . S
H391 C420 0.950 . S
H392 C422 0.950 . S
H393 C423 0.950 . S
C394 H376 0.951 . S
C394 C395 1.366 . S
C394 C396 1.388 . S
C395 C394 1.366 . S
C395 C399 1.385 1_554 S
C396 H377 0.951 . S
C396 C394 1.388 . S
C396 C397 1.366 . S
C397 C396 1.366 . S
C397 C398 1.414 1_554 S
C397 C400 1.499 . S
C398 H378 0.950 . S
C398 C397 1.414 1_556 S
C398 C399 1.374 . S
C399 H379 0.950 . S
C399 C395 1.385 1_556 S
C399 C398 1.374 . S
C400 C397 1.499 . S
C400 C401 1.373 1_554 S
C400 C402 1.389 . S
C401 H380 0.950 . S
C401 C400 1.373 1_556 S
C401 C417 1.377 1_565 S
C402 C400 1.389 . S
C402 C403 1.524 . S
C402 C416 1.377 1_565 S
C403 C402 1.524 . S
C403 C404 1.397 . S
C403 C408 1.363 . S
C404 H381 0.950 . S
C404 C403 1.397 . S
C404 C405 1.334 . S
C405 H382 0.950 . S
C405 C404 1.334 . S
C405 C406 1.287 . S
C406 C405 1.287 . S
C406 C407 1.524 . S
C406 H425 0.913 . S
C407 H383 0.950 . S
C407 C406 1.524 . S
C407 C408 1.415 . S
C408 H384 0.950 . S
C408 C403 1.363 . S
C408 C407 1.415 . S
C409 H385 0.951 . S
C409 C410 1.366 . S
C409 C411 1.388 . S
C410 C409 1.366 . S
C410 C414 1.385 1_556 S
C411 H386 0.951 . S
C411 C409 1.388 . S
C411 C412 1.366 . S
C412 C411 1.366 . S
C412 C413 1.414 1_556 S
C412 C415 1.499 . S
C413 H387 0.950 . S
C413 C412 1.414 1_554 S
C413 C414 1.374 . S
C414 H388 0.950 . S
C414 C410 1.385 1_554 S
C414 C413 1.374 . S
C415 C412 1.499 . S
C415 C416 1.373 1_556 S
C415 C417 1.389 . S
C416 H389 0.950 . S
C416 C402 1.377 1_545 S
C416 C415 1.373 1_554 S
C417 C401 1.377 1_545 S
C417 C415 1.389 . S
C417 C418 1.524 . S
C418 C417 1.524 . S
C418 C419 1.397 . S
C418 C423 1.363 . S
C419 H390 0.950 . S
C419 C418 1.397 . S
C419 C420 1.334 . S
C420 H391 0.950 . S
C420 C419 1.334 . S
C420 C421 1.287 . S
C421 C420 1.287 . S
C421 C422 1.524 . S
C421 H424 0.999 . S
C422 H392 0.950 . S
C422 C421 1.524 . S
C422 C423 1.415 . S
C423 H393 0.950 . S
C423 C418 1.363 . S
C423 C422 1.415 . S
H424 C421 0.999 . S
H425 C406 0.913 . S
H426 C444 0.951 . S
H427 C446 0.951 . S
H428 C448 0.950 . S
H429 C449 0.950 . S
H430 C451 0.950 . S
H431 C454 0.950 . S
H432 C455 0.950 . S
H433 C457 0.950 . S
H434 C458 0.950 . S
H435 C459 0.951 . S
H436 C461 0.951 . S
H437 C463 0.950 . S
H438 C464 0.950 . S
H439 C466 0.950 . S
H440 C469 0.950 . S
H441 C470 0.950 . S
H442 C472 0.950 . S
H443 C473 0.950 . S
C444 H426 0.951 . S
C444 C445 1.366 . S
C444 C446 1.388 . S
C445 C444 1.366 . S
C445 C449 1.385 . S
C446 H427 0.951 . S
C446 C444 1.388 . S
C446 C447 1.366 . S
C447 C446 1.366 . S
C447 C448 1.414 . S
C447 C450 1.499 . S
C448 H428 0.950 . S
C448 C447 1.414 . S
C448 C449 1.374 . S
C449 H429 0.950 . S
C449 C445 1.385 . S
C449 C448 1.374 . S
C450 C447 1.499 . S
C450 C451 1.373 . S
C450 C452 1.389 1_554 S
C451 H430 0.950 . S
C451 C450 1.373 . S
C451 C467 1.377 . S
C452 C450 1.389 1_556 S
C452 C453 1.524 . S
C452 C466 1.377 . S
C453 C452 1.524 . S
C453 C454 1.397 . S
C453 C458 1.363 . S
C454 H431 0.950 . S
C454 C453 1.397 . S
C454 C455 1.334 . S
C455 H432 0.950 . S
C455 C454 1.334 . S
C455 C456 1.287 . S
C456 C455 1.287 . S
C456 C457 1.524 . S
C456 H475 0.913 . S
C457 H433 0.950 . S
C457 C456 1.524 . S
C457 C458 1.415 . S
C458 H434 0.950 . S
C458 C453 1.363 . S
C458 C457 1.415 . S
C459 H435 0.951 . S
C459 C460 1.366 . S
C459 C461 1.388 . S
C460 C459 1.366 . S
C460 C464 1.385 . S
C461 H436 0.951 . S
C461 C459 1.388 . S
C461 C462 1.366 . S
C462 C461 1.366 . S
C462 C463 1.414 . S
C462 C465 1.499 . S
C463 H437 0.950 . S
C463 C462 1.414 . S
C463 C464 1.374 . S
C464 H438 0.950 . S
C464 C460 1.385 . S
C464 C463 1.374 . S
C465 C462 1.499 . S
C465 C466 1.373 . S
C465 C467 1.389 1_556 S
C466 H439 0.950 . S
C466 C452 1.377 . S
C466 C465 1.373 . S
C467 C451 1.377 . S
C467 C465 1.389 1_554 S
C467 C468 1.524 . S
C468 C467 1.524 . S
C468 C469 1.397 . S
C468 C473 1.363 . S
C469 H440 0.950 . S
C469 C468 1.397 . S
C469 C470 1.334 . S
C470 H441 0.950 . S
C470 C469 1.334 . S
C470 C471 1.287 . S
C471 C470 1.287 . S
C471 C472 1.524 . S
C471 H474 0.999 . S
C472 H442 0.950 . S
C472 C471 1.524 . S
C472 C473 1.415 . S
C473 H443 0.950 . S
C473 C468 1.363 . S
C473 C472 1.415 . S
H474 C471 0.999 . S
H475 C456 0.913 . S
H476 C494 0.951 . S
H477 C496 0.951 . S
H478 C498 0.950 . S
H479 C499 0.950 . S
H480 C501 0.950 . S
H481 C504 0.950 . S
H482 C505 0.950 . S
H483 C507 0.950 . S
H484 C508 0.950 . S
H485 C509 0.951 . S
H486 C511 0.951 . S
H487 C513 0.950 . S
H488 C514 0.950 . S
H489 C516 0.950 . S
H490 C519 0.950 . S
H491 C520 0.950 . S
H492 C522 0.950 . S
H493 C523 0.950 . S
C494 H476 0.951 . S
C494 C495 1.366 1_556 S
C494 C496 1.388 . S
C495 C494 1.366 1_554 S
C495 C499 1.385 . S
C496 H477 0.951 . S
C496 C494 1.388 . S
C496 C497 1.366 1_556 S
C497 C496 1.366 1_554 S
C497 C498 1.414 . S
C497 C500 1.499 . S
C498 H478 0.950 . S
C498 C497 1.414 . S
C498 C499 1.374 . S
C499 H479 0.950 . S
C499 C495 1.385 . S
C499 C498 1.374 . S
C500 C497 1.499 . S
C500 C501 1.373 . S
C500 C502 1.389 1_554 S
C501 H480 0.950 . S
C501 C500 1.373 . S
C501 C517 1.377 . S
C502 C500 1.389 1_556 S
C502 C503 1.524 . S
C502 C516 1.377 . S
C503 C502 1.524 . S
C503 C504 1.397 . S
C503 C508 1.363 . S
C504 H481 0.950 . S
C504 C503 1.397 . S
C504 C505 1.334 . S
C505 H482 0.950 . S
C505 C504 1.334 . S
C505 C506 1.287 . S
C506 C505 1.287 . S
C506 C507 1.524 . S
C506 H525 0.913 . S
C507 H483 0.950 . S
C507 C506 1.524 . S
C507 C508 1.415 . S
C508 H484 0.950 . S
C508 C503 1.363 . S
C508 C507 1.415 . S
C509 H485 0.951 . S
C509 C510 1.366 1_554 S
C509 C511 1.388 . S
C510 C509 1.366 1_556 S
C510 C514 1.385 . S
C511 H486 0.951 . S
C511 C509 1.388 . S
C511 C512 1.366 1_554 S
C512 C511 1.366 1_556 S
C512 C513 1.414 . S
C512 C515 1.499 . S
C513 H487 0.950 . S
C513 C512 1.414 . S
C513 C514 1.374 . S
C514 H488 0.950 . S
C514 C510 1.385 . S
C514 C513 1.374 . S
C515 C512 1.499 . S
C515 C516 1.373 . S
C515 C517 1.389 1_556 S
C516 H489 0.950 . S
C516 C502 1.377 . S
C516 C515 1.373 . S
C517 C501 1.377 . S
C517 C515 1.389 1_554 S
C517 C518 1.524 . S
C518 C517 1.524 . S
C518 C519 1.397 . S
C518 C523 1.363 . S
C519 H490 0.950 . S
C519 C518 1.397 . S
C519 C520 1.334 . S
C520 H491 0.950 . S
C520 C519 1.334 . S
C520 C521 1.287 . S
C521 C520 1.287 . S
C521 C522 1.524 . S
C521 H524 0.999 . S
C522 H492 0.950 . S
C522 C521 1.524 . S
C522 C523 1.415 . S
C523 H493 0.950 . S
C523 C518 1.363 . S
C523 C522 1.415 . S
H524 C521 0.999 . S
H525 C506 0.913 . S
H526 C544 0.951 . S
H527 C546 0.951 1_554 S
H528 C548 0.950 . S
H529 C549 0.950 . S
H530 C551 0.950 . S
H531 C554 0.950 . S
H532 C555 0.950 . S
H533 C557 0.950 . S
H534 C558 0.950 . S
H535 C559 0.951 . S
H536 C561 0.951 1_556 S
H537 C563 0.950 . S
H538 C564 0.950 . S
H539 C566 0.950 . S
H540 C569 0.950 . S
H541 C570 0.950 . S
H542 C572 0.950 . S
H543 C573 0.950 . S
C544 H526 0.951 . S
C544 C545 1.366 . S
C544 C546 1.388 . S
C545 C544 1.366 . S
C545 C549 1.385 . S
C546 H527 0.951 1_556 S
C546 C544 1.388 . S
C546 C547 1.366 . S
C547 C546 1.366 . S
C547 C548 1.414 . S
C547 C550 1.499 . S
C548 H528 0.950 . S
C548 C547 1.414 . S
C548 C549 1.374 . S
C549 H529 0.950 . S
C549 C545 1.385 . S
C549 C548 1.374 . S
C550 C547 1.499 . S
C550 C551 1.373 . S
C550 C552 1.389 1_556 S
C551 H530 0.950 . S
C551 C550 1.373 . S
C551 C567 1.377 . S
C552 C550 1.389 1_554 S
C552 C553 1.524 . S
C552 C566 1.377 . S
C553 C552 1.524 . S
C553 C554 1.397 . S
C553 C558 1.363 . S
C554 H531 0.950 . S
C554 C553 1.397 . S
C554 C555 1.334 . S
C555 H532 0.950 . S
C555 C554 1.334 . S
C555 C556 1.287 . S
C556 C555 1.287 . S
C556 C557 1.524 . S
C556 H575 0.913 . S
C557 H533 0.950 . S
C557 C556 1.524 . S
C557 C558 1.415 . S
C558 H534 0.950 . S
C558 C553 1.363 . S
C558 C557 1.415 . S
C559 H535 0.951 . S
C559 C560 1.366 . S
C559 C561 1.388 . S
C560 C559 1.366 . S
C560 C564 1.385 . S
C561 H536 0.951 1_554 S
C561 C559 1.388 . S
C561 C562 1.366 . S
C562 C561 1.366 . S
C562 C563 1.414 . S
C562 C565 1.499 . S
C563 H537 0.950 . S
C563 C562 1.414 . S
C563 C564 1.374 . S
C564 H538 0.950 . S
C564 C560 1.385 . S
C564 C563 1.374 . S
C565 C562 1.499 . S
C565 C566 1.373 . S
C565 C567 1.389 1_554 S
C566 H539 0.950 . S
C566 C552 1.377 . S
C566 C565 1.373 . S
C567 C551 1.377 . S
C567 C565 1.389 1_556 S
C567 C568 1.524 . S
C568 C567 1.524 . S
C568 C569 1.397 . S
C568 C573 1.363 . S
C569 H540 0.950 . S
C569 C568 1.397 . S
C569 C570 1.334 . S
C570 H541 0.950 . S
C570 C569 1.334 . S
C570 C571 1.287 . S
C571 C570 1.287 . S
C571 C572 1.524 . S
C571 H574 0.999 . S
C572 H542 0.950 . S
C572 C571 1.524 . S
C572 C573 1.415 . S
C573 H543 0.950 . S
C573 C568 1.363 . S
C573 C572 1.415 . S
H574 C571 0.999 . S
H575 C556 0.913 . S
H576 C594 0.951 . S
H577 C596 0.951 . S
H578 C598 0.950 . S
H579 C599 0.950 . S
H580 C601 0.950 . S
H581 C604 0.950 . S
H582 C605 0.950 . S
H583 C607 0.950 . S
H584 C608 0.950 . S
H585 C609 0.951 . S
H586 C611 0.951 . S
H587 C613 0.950 . S
H588 C614 0.950 . S
H589 C616 0.950 . S
H590 C619 0.950 . S
H591 C620 0.950 . S
H592 C622 0.950 . S
H593 C623 0.950 . S
C594 H576 0.951 . S
C594 C595 1.366 . S
C594 C596 1.388 . S
C595 C594 1.366 . S
C595 C599 1.385 1_556 S
C596 H577 0.951 . S
C596 C594 1.388 . S
C596 C597 1.366 . S
C597 C596 1.366 . S
C597 C598 1.414 1_556 S
C597 C600 1.499 . S
C598 H578 0.950 . S
C598 C597 1.414 1_554 S
C598 C599 1.374 . S
C599 H579 0.950 . S
C599 C595 1.385 1_554 S
C599 C598 1.374 . S
C600 C597 1.499 . S
C600 C601 1.373 1_556 S
C600 C602 1.389 . S
C601 H580 0.950 . S
C601 C600 1.373 1_554 S
C601 C617 1.377 . S
C602 C600 1.389 . S
C602 C603 1.524 . S
C602 C616 1.377 . S
C603 C602 1.524 . S
C603 C604 1.397 . S
C603 C608 1.363 . S
C604 H581 0.950 . S
C604 C603 1.397 . S
C604 C605 1.334 . S
C605 H582 0.950 . S
C605 C604 1.334 . S
C605 C606 1.287 . S
C606 C605 1.287 . S
C606 C607 1.524 . S
C606 H625 0.913 . S
C607 H583 0.950 . S
C607 C606 1.524 . S
C607 C608 1.415 . S
C608 H584 0.950 . S
C608 C603 1.363 . S
C608 C607 1.415 . S
C609 H585 0.951 . S
C609 C610 1.366 . S
C609 C611 1.388 . S
C610 C609 1.366 . S
C610 C614 1.385 1_554 S
C611 H586 0.951 . S
C611 C609 1.388 . S
C611 C612 1.366 . S
C612 C611 1.366 . S
C612 C613 1.414 1_554 S
C612 C615 1.499 . S
C613 H587 0.950 . S
C613 C612 1.414 1_556 S
C613 C614 1.374 . S
C614 H588 0.950 . S
C614 C610 1.385 1_556 S
C614 C613 1.374 . S
C615 C612 1.499 . S
C615 C616 1.373 1_554 S
C615 C617 1.389 . S
C616 H589 0.950 . S
C616 C602 1.377 . S
C616 C615 1.373 1_556 S
C617 C601 1.377 . S
C617 C615 1.389 . S
C617 C618 1.524 . S
C618 C617 1.524 . S
C618 C619 1.397 . S
C618 C623 1.363 . S
C619 H590 0.950 . S
C619 C618 1.397 . S
C619 C620 1.334 . S
C620 H591 0.950 . S
C620 C619 1.334 . S
C620 C621 1.287 . S
C621 C620 1.287 . S
C621 C622 1.524 . S
C621 H624 0.999 . S
C622 H592 0.950 . S
C622 C621 1.524 . S
C622 C623 1.415 . S
C623 H593 0.950 . S
C623 C618 1.363 . S
C623 C622 1.415 . S
H624 C621 0.999 . S
H625 C606 0.913 . S
H626 C644 0.951 . S
H627 C646 0.951 . S
H628 C648 0.950 . S
H629 C649 0.950 . S
H630 C651 0.950 . S
H631 C654 0.950 . S
H632 C655 0.950 . S
H633 C657 0.950 . S
H634 C658 0.950 . S
H635 C659 0.951 . S
H636 C661 0.951 . S
H637 C663 0.950 . S
H638 C664 0.950 . S
H639 C666 0.950 . S
H640 C669 0.950 . S
H641 C670 0.950 . S
H642 C672 0.950 . S
H643 C673 0.950 . S
C644 H626 0.951 . S
C644 C645 1.366 . S
C644 C646 1.388 . S
C645 C644 1.366 . S
C645 C649 1.385 1_556 S
C646 H627 0.951 . S
C646 C644 1.388 . S
C646 C647 1.366 . S
C647 C646 1.366 . S
C647 C648 1.414 1_556 S
C647 C650 1.500 . S
C648 H628 0.950 . S
C648 C647 1.414 1_554 S
C648 C649 1.374 . S
C649 H629 0.950 . S
C649 C645 1.385 1_554 S
C649 C648 1.374 . S
C650 C647 1.500 . S
C650 C651 1.374 . S
C650 C652 1.389 1_556 S
C651 H630 0.950 . S
C651 C650 1.374 . S
C651 C667 1.377 . S
C652 C650 1.389 1_554 S
C652 C653 1.524 . S
C652 C666 1.377 . S
C653 C652 1.524 . S
C653 C654 1.397 . S
C653 C658 1.363 1_554 S
C654 H631 0.950 . S
C654 C653 1.397 . S
C654 C655 1.334 . S
C655 H632 0.950 . S
C655 C654 1.334 . S
C655 C656 1.287 . S
C656 C655 1.287 . S
C656 C657 1.524 1_554 S
C656 H675 0.913 . S
C657 H633 0.950 . S
C657 C656 1.524 1_556 S
C657 C658 1.415 . S
C658 H634 0.950 . S
C658 C653 1.363 1_556 S
C658 C657 1.415 . S
C659 H635 0.951 . S
C659 C660 1.366 . S
C659 C661 1.388 . S
C660 C659 1.366 . S
C660 C664 1.385 1_554 S
C661 H636 0.951 . S
C661 C659 1.388 . S
C661 C662 1.366 . S
C662 C661 1.366 . S
C662 C663 1.414 1_554 S
C662 C665 1.499 . S
C663 H637 0.950 . S
C663 C662 1.414 1_556 S
C663 C664 1.374 . S
C664 H638 0.950 . S
C664 C660 1.385 1_556 S
C664 C663 1.374 . S
C665 C662 1.499 . S
C665 C666 1.373 . S
C665 C667 1.389 1_554 S
C666 H639 0.950 . S
C666 C652 1.377 . S
C666 C665 1.373 . S
C667 C651 1.377 . S
C667 C665 1.389 1_556 S
C667 C668 1.524 . S
C668 C667 1.524 . S
C668 C669 1.397 . S
C668 C673 1.363 1_556 S
C669 H640 0.950 . S
C669 C668 1.397 . S
C669 C670 1.334 . S
C670 H641 0.950 . S
C670 C669 1.334 . S
C670 C671 1.287 . S
C671 C670 1.287 . S
C671 C672 1.524 1_556 S
C671 H674 0.999 . S
C672 H642 0.950 . S
C672 C671 1.524 1_554 S
C672 C673 1.415 . S
C673 H643 0.950 . S
C673 C668 1.363 1_554 S
C673 C672 1.415 . S
H674 C671 0.999 . S
H675 C656 0.913 . S
H676 C694 0.951 . S
H677 C696 0.951 . S
H678 C698 0.950 . S
H679 C699 0.950 . S
H680 C701 0.950 . S
H681 C704 0.950 . S
H682 C705 0.950 . S
H683 C707 0.950 . S
H684 C708 0.950 . S
H685 C709 0.951 . S
H686 C711 0.951 . S
H687 C713 0.950 . S
H688 C714 0.950 . S
H689 C716 0.950 . S
H690 C719 0.950 . S
H691 C720 0.950 . S
H692 C722 0.950 . S
H693 C723 0.950 . S
C694 H676 0.951 . S
C694 C695 1.366 . S
C694 C696 1.388 . S
C695 C694 1.366 . S
C695 C699 1.385 . S
C696 H677 0.951 . S
C696 C694 1.388 . S
C696 C697 1.366 . S
C697 C696 1.366 . S
C697 C698 1.414 . S
C697 C700 1.499 . S
C698 H678 0.950 . S
C698 C697 1.414 . S
C698 C699 1.374 . S
C699 H679 0.950 . S
C699 C695 1.385 . S
C699 C698 1.374 . S
C700 C697 1.499 . S
C700 C701 1.373 1_554 S
C700 C702 1.389 . S
C701 H680 0.950 . S
C701 C700 1.373 1_556 S
C701 C717 1.377 . S
C702 C700 1.389 . S
C702 C703 1.524 . S
C702 C716 1.377 . S
C703 C702 1.524 . S
C703 C704 1.397 . S
C703 C708 1.363 . S
C704 H681 0.950 . S
C704 C703 1.397 . S
C704 C705 1.334 . S
C705 H682 0.950 . S
C705 C704 1.334 . S
C705 C706 1.287 . S
C706 C705 1.287 . S
C706 C707 1.524 . S
C706 H725 0.913 . S
C707 H683 0.950 . S
C707 C706 1.524 . S
C707 C708 1.415 . S
C708 H684 0.950 . S
C708 C703 1.363 . S
C708 C707 1.415 . S
C709 H685 0.951 . S
C709 C710 1.366 . S
C709 C711 1.388 . S
C710 C709 1.366 . S
C710 C714 1.385 . S
C711 H686 0.951 . S
C711 C709 1.388 . S
C711 C712 1.366 . S
C712 C711 1.366 . S
C712 C713 1.414 . S
C712 C715 1.499 . S
C713 H687 0.950 . S
C713 C712 1.414 . S
C713 C714 1.374 . S
C714 H688 0.950 . S
C714 C710 1.385 . S
C714 C713 1.374 . S
C715 C712 1.499 . S
C715 C716 1.373 1_556 S
C715 C717 1.389 . S
C716 H689 0.950 . S
C716 C702 1.377 . S
C716 C715 1.373 1_554 S
C717 C701 1.377 . S
C717 C715 1.389 . S
C717 C718 1.524 . S
C718 C717 1.524 . S
C718 C719 1.397 . S
C718 C723 1.363 . S
C719 H690 0.950 . S
C719 C718 1.397 . S
C719 C720 1.334 . S
C720 H691 0.950 . S
C720 C719 1.334 . S
C720 C721 1.287 . S
C721 C720 1.287 . S
C721 C722 1.524 . S
C721 H724 0.999 . S
C722 H692 0.950 . S
C722 C721 1.524 . S
C722 C723 1.415 . S
C723 H693 0.950 . S
C723 C718 1.363 . S
C723 C722 1.415 . S
H724 C721 0.999 . S
H725 C706 0.913 . S
H726 C744 0.951 . S
H727 C746 0.951 . S
H728 C748 0.950 . S
H729 C749 0.950 . S
H730 C751 0.950 . S
H731 C754 0.950 . S
H732 C755 0.950 . S
H733 C757 0.950 . S
H734 C758 0.950 . S
H735 C759 0.951 . S
H736 C761 0.951 . S
H737 C763 0.950 . S
H738 C764 0.950 . S
H739 C766 0.950 . S
H740 C769 0.950 . S
H741 C770 0.950 . S
H742 C772 0.950 . S
H743 C773 0.950 . S
C744 H726 0.951 . S
C744 C745 1.366 . S
C744 C746 1.388 . S
C745 C744 1.366 . S
C745 C749 1.385 . S
C746 H727 0.951 . S
C746 C744 1.388 . S
C746 C747 1.366 . S
C747 C746 1.366 . S
C747 C748 1.414 . S
C747 C750 1.499 . S
C748 H728 0.950 . S
C748 C747 1.414 . S
C748 C749 1.374 . S
C749 H729 0.950 . S
C749 C745 1.385 . S
C749 C748 1.374 . S
C750 C747 1.499 . S
C750 C751 1.373 . S
C750 C752 1.389 . S
C751 H730 0.950 . S
C751 C750 1.373 . S
C751 C767 1.377 . S
C752 C750 1.389 . S
C752 C753 1.524 . S
C752 C766 1.377 . S
C753 C752 1.524 . S
C753 C754 1.397 . S
C753 C758 1.363 . S
C754 H731 0.950 . S
C754 C753 1.397 . S
C754 C755 1.334 . S
C755 H732 0.950 . S
C755 C754 1.334 . S
C755 C756 1.287 . S
C756 C755 1.287 . S
C756 C757 1.524 . S
C756 H775 0.913 . S
C757 H733 0.950 . S
C757 C756 1.524 . S
C757 C758 1.415 . S
C758 H734 0.950 . S
C758 C753 1.363 . S
C758 C757 1.415 . S
C759 H735 0.951 . S
C759 C760 1.366 . S
C759 C761 1.388 . S
C760 C759 1.366 . S
C760 C764 1.385 . S
C761 H736 0.951 . S
C761 C759 1.388 . S
C761 C762 1.366 . S
C762 C761 1.366 . S
C762 C763 1.414 . S
C762 C765 1.499 . S
C763 H737 0.950 . S
C763 C762 1.414 . S
C763 C764 1.374 . S
C764 H738 0.950 . S
C764 C760 1.385 . S
C764 C763 1.374 . S
C765 C762 1.499 . S
C765 C766 1.373 . S
C765 C767 1.389 . S
C766 H739 0.950 . S
C766 C752 1.377 . S
C766 C765 1.373 . S
C767 C751 1.377 . S
C767 C765 1.389 . S
C767 C768 1.524 . S
C768 C767 1.524 . S
C768 C769 1.397 . S
C768 C773 1.363 . S
C769 H740 0.950 . S
C769 C768 1.397 . S
C769 C770 1.334 . S
C770 H741 0.950 . S
C770 C769 1.334 . S
C770 C771 1.287 . S
C771 C770 1.287 . S
C771 C772 1.524 . S
C771 H774 0.999 . S
C772 H742 0.950 . S
C772 C771 1.524 . S
C772 C773 1.415 . S
C773 H743 0.950 . S
C773 C768 1.363 . S
C773 C772 1.415 . S
H774 C771 0.999 . S
H775 C756 0.913 . S
H776 C794 0.951 . S
H777 C796 0.951 . S
H778 C798 0.950 . S
H779 C799 0.950 . S
H780 C801 0.950 . S
H781 C804 0.950 . S
H782 C805 0.950 . S
H783 C807 0.950 . S
H784 C808 0.950 . S
H785 C809 0.951 . S
H786 C811 0.951 . S
H787 C813 0.950 . S
H788 C814 0.950 . S
H789 C816 0.950 . S
H790 C819 0.950 . S
H791 C820 0.950 . S
H792 C822 0.950 . S
H793 C823 0.950 . S
C794 H776 0.951 . S
C794 C795 1.366 . S
C794 C796 1.388 . S
C795 C794 1.366 . S
C795 C799 1.385 . S
C796 H777 0.951 . S
C796 C794 1.388 . S
C796 C797 1.366 . S
C797 C796 1.366 . S
C797 C798 1.414 . S
C797 C800 1.499 . S
C798 H778 0.950 . S
C798 C797 1.414 . S
C798 C799 1.374 . S
C799 H779 0.950 . S
C799 C795 1.385 . S
C799 C798 1.374 . S
C800 C797 1.499 . S
C800 C801 1.373 . S
C800 C802 1.389 . S
C801 H780 0.950 . S
C801 C800 1.373 . S
C801 C817 1.377 . S
C802 C800 1.389 . S
C802 C803 1.524 . S
C802 C816 1.377 . S
C803 C802 1.524 . S
C803 C804 1.397 . S
C803 C808 1.363 . S
C804 H781 0.950 . S
C804 C803 1.397 . S
C804 C805 1.334 . S
C805 H782 0.950 . S
C805 C804 1.334 . S
C805 C806 1.287 . S
C806 C805 1.287 . S
C806 C807 1.524 . S
C806 H825 0.913 . S
C807 H783 0.950 . S
C807 C806 1.524 . S
C807 C808 1.415 . S
C808 H784 0.950 . S
C808 C803 1.363 . S
C808 C807 1.415 . S
C809 H785 0.951 . S
C809 C810 1.366 . S
C809 C811 1.388 . S
C810 C809 1.366 . S
C810 C814 1.385 . S
C811 H786 0.951 . S
C811 C809 1.388 . S
C811 C812 1.366 . S
C812 C811 1.366 . S
C812 C813 1.414 . S
C812 C815 1.499 . S
C813 H787 0.950 . S
C813 C812 1.414 . S
C813 C814 1.374 . S
C814 H788 0.950 . S
C814 C810 1.385 . S
C814 C813 1.374 . S
C815 C812 1.499 . S
C815 C816 1.373 . S
C815 C817 1.389 . S
C816 H789 0.950 . S
C816 C802 1.377 . S
C816 C815 1.373 . S
C817 C801 1.377 . S
C817 C815 1.389 . S
C817 C818 1.524 . S
C818 C817 1.524 . S
C818 C819 1.397 . S
C818 C823 1.363 . S
C819 H790 0.950 . S
C819 C818 1.397 . S
C819 C820 1.334 . S
C820 H791 0.950 . S
C820 C819 1.334 . S
C820 C821 1.287 . S
C821 C820 1.287 . S
C821 C822 1.524 . S
C821 H824 0.999 . S
C822 H792 0.950 . S
C822 C821 1.524 . S
C822 C823 1.415 . S
C823 H793 0.950 . S
C823 C818 1.363 . S
C823 C822 1.415 . S
H824 C821 0.999 . S
H825 C806 0.913 . S
H826 C844 0.951 . S
H827 C846 0.951 . S
H828 C848 0.950 . S
H829 C849 0.950 . S
H830 C851 0.950 . S
H831 C854 0.950 . S
H832 C855 0.950 . S
H833 C857 0.950 . S
H834 C858 0.950 . S
H835 C859 0.951 . S
H836 C861 0.951 . S
H837 C863 0.950 . S
H838 C864 0.950 . S
H839 C866 0.950 . S
H840 C869 0.950 . S
H841 C870 0.950 . S
H842 C872 0.950 . S
H843 C873 0.950 . S
C844 H826 0.951 . S
C844 C845 1.366 . S
C844 C846 1.388 . S
C845 C844 1.366 . S
C845 C849 1.385 . S
C846 H827 0.951 . S
C846 C844 1.388 . S
C846 C847 1.366 . S
C847 C846 1.366 . S
C847 C848 1.414 . S
C847 C850 1.499 . S
C848 H828 0.950 . S
C848 C847 1.414 . S
C848 C849 1.374 . S
C849 H829 0.950 . S
C849 C845 1.385 . S
C849 C848 1.374 . S
C850 C847 1.499 . S
C850 C851 1.373 . S
C850 C852 1.389 . S
C851 H830 0.950 . S
C851 C850 1.373 . S
C851 C867 1.377 . S
C852 C850 1.389 . S
C852 C853 1.524 . S
C852 C866 1.377 . S
C853 C852 1.524 . S
C853 C854 1.397 . S
C853 C858 1.363 . S
C854 H831 0.950 . S
C854 C853 1.397 . S
C854 C855 1.334 . S
C855 H832 0.950 . S
C855 C854 1.334 . S
C855 C856 1.287 . S
C856 C855 1.287 . S
C856 C857 1.524 . S
C856 H875 0.913 . S
C857 H833 0.950 . S
C857 C856 1.524 . S
C857 C858 1.415 . S
C858 H834 0.950 . S
C858 C853 1.363 . S
C858 C857 1.415 . S
C859 H835 0.951 . S
C859 C860 1.366 . S
C859 C861 1.388 . S
C860 C859 1.366 . S
C860 C864 1.385 . S
C861 H836 0.951 . S
C861 C859 1.388 . S
C861 C862 1.366 . S
C862 C861 1.366 . S
C862 C863 1.414 . S
C862 C865 1.499 . S
C863 H837 0.950 . S
C863 C862 1.414 . S
C863 C864 1.374 . S
C864 H838 0.950 . S
C864 C860 1.385 . S
C864 C863 1.374 . S
C865 C862 1.499 . S
C865 C866 1.373 . S
C865 C867 1.389 . S
C866 H839 0.950 . S
C866 C852 1.377 . S
C866 C865 1.373 . S
C867 C851 1.377 . S
C867 C865 1.389 . S
C867 C868 1.524 . S
C868 C867 1.524 . S
C868 C869 1.397 . S
C868 C873 1.363 . S
C869 H840 0.950 . S
C869 C868 1.397 . S
C869 C870 1.334 . S
C870 H841 0.950 . S
C870 C869 1.334 . S
C870 C871 1.287 . S
C871 C870 1.287 . S
C871 C872 1.524 . S
C871 H874 0.999 . S
C872 H842 0.950 . S
C872 C871 1.524 . S
C872 C873 1.415 . S
C873 H843 0.950 . S
C873 C868 1.363 . S
C873 C872 1.415 . S
H874 C871 0.999 . S
H875 C856 0.913 . S
H876 C894 0.951 . S
H877 C896 0.951 . S
H878 C898 0.950 . S
H879 C899 0.950 . S
H880 C901 0.950 . S
H881 C904 0.950 . S
H882 C905 0.950 . S
H883 C907 0.950 . S
H884 C908 0.950 . S
H885 C909 0.951 . S
H886 C911 0.951 . S
H887 C913 0.950 . S
H888 C914 0.950 . S
H889 C916 0.950 . S
H890 C919 0.950 . S
H891 C920 0.950 . S
H892 C922 0.950 . S
H893 C923 0.950 . S
C894 H876 0.951 . S
C894 C895 1.366 . S
C894 C896 1.388 . S
C895 C894 1.366 . S
C895 C899 1.385 . S
C896 H877 0.951 . S
C896 C894 1.388 . S
C896 C897 1.366 . S
C897 C896 1.366 . S
C897 C898 1.414 . S
C897 C900 1.499 . S
C898 H878 0.950 . S
C898 C897 1.414 . S
C898 C899 1.374 . S
C899 H879 0.950 . S
C899 C895 1.385 . S
C899 C898 1.374 . S
C900 C897 1.499 . S
C900 C901 1.373 . S
C900 C902 1.389 . S
C901 H880 0.950 . S
C901 C900 1.373 . S
C901 C917 1.377 . S
C902 C900 1.389 . S
C902 C903 1.524 . S
C902 C916 1.377 . S
C903 C902 1.524 . S
C903 C904 1.397 . S
C903 C908 1.363 . S
C904 H881 0.950 . S
C904 C903 1.397 . S
C904 C905 1.334 . S
C905 H882 0.950 . S
C905 C904 1.334 . S
C905 C906 1.287 . S
C906 C905 1.287 . S
C906 C907 1.524 . S
C906 H925 0.913 . S
C907 H883 0.950 . S
C907 C906 1.524 . S
C907 C908 1.415 . S
C908 H884 0.950 . S
C908 C903 1.363 . S
C908 C907 1.415 . S
C909 H885 0.951 . S
C909 C910 1.366 . S
C909 C911 1.388 . S
C910 C909 1.366 . S
C910 C914 1.385 . S
C911 H886 0.951 . S
C911 C909 1.388 . S
C911 C912 1.366 . S
C912 C911 1.366 . S
C912 C913 1.414 . S
C912 C915 1.499 . S
C913 H887 0.950 . S
C913 C912 1.414 . S
C913 C914 1.374 . S
C914 H888 0.950 . S
C914 C910 1.385 . S
C914 C913 1.374 . S
C915 C912 1.499 . S
C915 C916 1.373 . S
C915 C917 1.389 . S
C916 H889 0.950 . S
C916 C902 1.377 . S
C916 C915 1.373 . S
C917 C901 1.377 . S
C917 C915 1.389 . S
C917 C918 1.524 . S
C918 C917 1.524 . S
C918 C919 1.397 . S
C918 C923 1.363 . S
C919 H890 0.950 . S
C919 C918 1.397 . S
C919 C920 1.334 . S
C920 H891 0.950 . S
C920 C919 1.334 . S
C920 C921 1.287 . S
C921 C920 1.287 . S
C921 C922 1.524 . S
C921 H924 0.999 . S
C922 H892 0.950 . S
C922 C921 1.524 . S
C922 C923 1.415 . S
C923 H893 0.950 . S
C923 C918 1.363 . S
C923 C922 1.415 . S
H924 C921 0.999 . S
H925 C906 0.913 . S
H926 C944 0.951 . S
H927 C946 0.951 . S
H928 C948 0.950 . S
H929 C949 0.950 . S
H930 C951 0.950 . S
H931 C954 0.950 . S
H932 C955 0.950 . S
H933 C957 0.950 . S
H934 C958 0.950 . S
H935 C959 0.951 . S
H936 C961 0.951 . S
H937 C963 0.950 . S
H938 C964 0.950 . S
H939 C966 0.950 . S
H940 C969 0.950 . S
H941 C970 0.950 . S
H942 C972 0.950 . S
H943 C973 0.950 . S
C944 H926 0.951 . S
C944 C945 1.366 . S
C944 C946 1.388 . S
C945 C944 1.366 . S
C945 C949 1.385 . S
C946 H927 0.951 . S
C946 C944 1.388 . S
C946 C947 1.366 . S
C947 C946 1.366 . S
C947 C948 1.414 . S
C947 C950 1.499 . S
C948 H928 0.950 . S
C948 C947 1.414 . S
C948 C949 1.374 . S
C949 H929 0.950 . S
C949 C945 1.385 . S
C949 C948 1.374 . S
C950 C947 1.499 . S
C950 C951 1.373 . S
C950 C952 1.389 . S
C951 H930 0.950 . S
C951 C950 1.373 . S
C951 C967 1.377 . S
C952 C950 1.389 . S
C952 C953 1.524 . S
C952 C966 1.377 . S
C953 C952 1.524 . S
C953 C954 1.397 . S
C953 C958 1.363 . S
C954 H931 0.950 . S
C954 C953 1.397 . S
C954 C955 1.334 . S
C955 H932 0.950 . S
C955 C954 1.334 . S
C955 C956 1.287 . S
C956 C955 1.287 . S
C956 C957 1.524 . S
C956 H975 0.913 . S
C957 H933 0.950 . S
C957 C956 1.524 . S
C957 C958 1.415 . S
C958 H934 0.950 . S
C958 C953 1.363 . S
C958 C957 1.415 . S
C959 H935 0.951 . S
C959 C960 1.366 . S
C959 C961 1.388 . S
C960 C959 1.366 . S
C960 C964 1.385 . S
C961 H936 0.951 . S
C961 C959 1.388 . S
C961 C962 1.366 . S
C962 C961 1.366 . S
C962 C963 1.414 . S
C962 C965 1.499 . S
C963 H937 0.950 . S
C963 C962 1.414 . S
C963 C964 1.374 . S
C964 H938 0.950 . S
C964 C960 1.385 . S
C964 C963 1.374 . S
C965 C962 1.499 . S
C965 C966 1.373 . S
C965 C967 1.389 . S
C966 H939 0.950 . S
C966 C952 1.377 . S
C966 C965 1.373 . S
C967 C951 1.377 . S
C967 C965 1.389 . S
C967 C968 1.524 . S
C968 C967 1.524 . S
C968 C969 1.397 . S
C968 C973 1.363 . S
C969 H940 0.950 . S
C969 C968 1.397 . S
C969 C970 1.334 . S
C970 H941 0.950 . S
C970 C969 1.334 . S
C970 C971 1.287 . S
C971 C970 1.287 . S
C971 C972 1.524 . S
C971 H974 0.999 . S
C972 H942 0.950 . S
C972 C971 1.524 . S
C972 C973 1.415 . S
C973 H943 0.950 . S
C973 C968 1.363 . S
C973 C972 1.415 . S
H974 C971 0.999 . S
H975 C956 0.913 . S
H976 C994 0.951 . S
H977 C996 0.951 . S
H978 C998 0.950 . S
H979 C999 0.950 . S
H980 C1001 0.950 . S
H981 C1004 0.950 . S
H982 C1005 0.950 . S
H983 C1007 0.950 . S
H984 C1008 0.950 . S
H985 C1009 0.951 . S
H986 C1011 0.951 . S
H987 C1013 0.950 . S
H988 C1014 0.950 . S
H989 C1016 0.950 . S
H990 C1019 0.950 . S
H991 C1020 0.950 . S
H992 C1022 0.950 . S
H993 C1023 0.950 . S
C994 H976 0.951 . S
C994 C995 1.366 . S
C994 C996 1.388 . S
C995 C994 1.366 . S
C995 C999 1.385 . S
C996 H977 0.951 . S
C996 C994 1.388 . S
C996 C997 1.366 . S
C997 C996 1.366 . S
C997 C998 1.414 . S
C997 C1000 1.499 . S
C998 H978 0.950 . S
C998 C997 1.414 . S
C998 C999 1.374 . S
C999 H979 0.950 . S
C999 C995 1.385 . S
C999 C998 1.374 . S
C1000 C997 1.499 . S
C1000 C1001 1.373 . S
C1000 C1002 1.389 . S
C1001 H980 0.950 . S
C1001 C1000 1.373 . S
C1001 C1017 1.377 . S
C1002 C1000 1.389 . S
C1002 C1003 1.524 . S
C1002 C1016 1.377 . S
C1003 C1002 1.524 . S
C1003 C1004 1.397 . S
C1003 C1008 1.363 . S
C1004 H981 0.950 . S
C1004 C1003 1.397 . S
C1004 C1005 1.334 . S
C1005 H982 0.950 . S
C1005 C1004 1.334 . S
C1005 C1006 1.287 . S
C1006 C1005 1.287 . S
C1006 C1007 1.524 . S
C1006 H1025 0.913 . S
C1007 H983 0.950 . S
C1007 C1006 1.524 . S
C1007 C1008 1.415 . S
C1008 H984 0.950 . S
C1008 C1003 1.363 . S
C1008 C1007 1.415 . S
C1009 H985 0.951 . S
C1009 C1010 1.366 . S
C1009 C1011 1.388 . S
C1010 C1009 1.366 . S
C1010 C1014 1.385 . S
C1011 H986 0.951 . S
C1011 C1009 1.388 . S
C1011 C1012 1.366 . S
C1012 C1011 1.366 . S
C1012 C1013 1.414 . S
C1012 C1015 1.499 . S
C1013 H987 0.950 . S
C1013 C1012 1.414 . S
C1013 C1014 1.374 . S
C1014 H988 0.950 . S
C1014 C1010 1.385 . S
C1014 C1013 1.374 . S
C1015 C1012 1.499 . S
C1015 C1016 1.373 . S
C1015 C1017 1.389 . S
C1016 H989 0.950 . S
C1016 C1002 1.377 . S
C1016 C1015 1.373 . S
C1017 C1001 1.377 . S
C1017 C1015 1.389 . S
C1017 C1018 1.524 . S
C1018 C1017 1.524 . S
C1018 C1019 1.397 . S
C1018 C1023 1.363 . S
C1019 H990 0.950 . S
C1019 C1018 1.397 . S
C1019 C1020 1.334 . S
C1020 H991 0.950 . S
C1020 C1019 1.334 . S
C1020 C1021 1.287 . S
C1021 C1020 1.287 . S
C1021 C1022 1.524 . S
C1021 H1024 0.999 . S
C1022 H992 0.950 . S
C1022 C1021 1.524 . S
C1022 C1023 1.415 . S
C1023 H993 0.950 . S
C1023 C1018 1.363 . S
C1023 C1022 1.415 . S
H1024 C1021 0.999 . S
H1025 C1006 0.913 . S
C145 C121 1.264 1_554 S
C160 C3 1.263 1_556 S
C195 C16 1.263 1_554 S
C210 C24 1.264 1_556 S
C245 C37 1.263 1_554 S
C260 C58 1.262 1_556 S
C295 C79 1.264 1_556 S
C310 C45 1.264 1_554 S
C345 C100 1.262 1_556 S
C360 C66 1.262 1_554 S
C395 C87 1.262 1_554 S
C410 C108 1.263 1_556 S
C445 C103 1.405 . S
C460 C19 1.405 . S
C495 C125 1.405 . S
C510 C40 1.405 . S
C545 C62 1.405 . S
C560 C20 1.405 . S
C595 C83 1.405 . S
C610 C41 1.406 . S
C645 C104 1.405 . S
C660 C61 1.406 . S
C695 C82 1.406 . S
C710 C124 1.405 . S
C745 C7 1.271 . S
C760 C4 1.271 . S
C795 C28 1.273 . S
C810 C25 1.272 . S
C845 C46 1.271 . S
C860 C49 1.271 . S
C895 C67 1.273 . S
C910 C70 1.273 . S
C945 C91 1.273 . S
C960 C88 1.273 . S
C995 C112 1.272 . S
C1010 C109 1.273 . S
