# Generated by pormake.
# Topology ukg, (4)-cn, num edge types: 1
# Building blocks:
#     Node 0, Type 0, BuildingBlock: NAWXER_clean_sbu_0, # of connection points: 4
#     Node 1, Type 0, BuildingBlock: NAWXER_clean_sbu_0, # of connection points: 4
#     Node 2, Type 0, BuildingBlock: NAWXER_clean_sbu_0, # of connection points: 4
#     Node 3, Type 0, BuildingBlock: NAWXER_clean_sbu_0, # of connection points: 4
#     Node 4, Type 0, BuildingBlock: NAWXER_clean_sbu_0, # of connection points: 4
#     Node 5, Type 0, BuildingBlock: NAWXER_clean_sbu_0, # of connection points: 4
#     Node 6, Type 0, BuildingBlock: NAWXER_clean_sbu_0, # of connection points: 4
#     Node 7, Type 0, BuildingBlock: NAWXER_clean_sbu_0, # of connection points: 4
#     Edge 8, Type (0, 0), BuildingBlock: UVAHIK_clean_linker_0, # of connection points: 2
#     Edge 9, Type (0, 0), BuildingBlock: UVAHIK_clean_linker_0, # of connection points: 2
#     Edge 10, Type (0, 0), BuildingBlock: UVAHIK_clean_linker_0, # of connection points: 2
#     Edge 11, Type (0, 0), BuildingBlock: UVAHIK_clean_linker_0, # of connection points: 2
#     Edge 12, Type (0, 0), BuildingBlock: UVAHIK_clean_linker_0, # of connection points: 2
#     Edge 13, Type (0, 0), BuildingBlock: UVAHIK_clean_linker_0, # of connection points: 2
#     Edge 14, Type (0, 0), BuildingBlock: UVAHIK_clean_linker_0, # of connection points: 2
#     Edge 15, Type (0, 0), BuildingBlock: UVAHIK_clean_linker_0, # of connection points: 2
#     Edge 16, Type (0, 0), BuildingBlock: UVAHIK_clean_linker_0, # of connection points: 2
#     Edge 17, Type (0, 0), BuildingBlock: UVAHIK_clean_linker_0, # of connection points: 2
#     Edge 18, Type (0, 0), BuildingBlock: UVAHIK_clean_linker_0, # of connection points: 2
#     Edge 19, Type (0, 0), BuildingBlock: UVAHIK_clean_linker_0, # of connection points: 2
#     Edge 20, Type (0, 0), BuildingBlock: UVAHIK_clean_linker_0, # of connection points: 2
#     Edge 21, Type (0, 0), BuildingBlock: UVAHIK_clean_linker_0, # of connection points: 2
#     Edge 22, Type (0, 0), BuildingBlock: UVAHIK_clean_linker_0, # of connection points: 2
#     Edge 23, Type (0, 0), BuildingBlock: UVAHIK_clean_linker_0, # of connection points: 2
# Relax obj value: 0.100
# Max RMSD: 0.242
# Mean RMSD: 0.242
data_MOF--net-ukg--node1-NAWXER_clean_sbu_0--edge1-UVAHIK_clean_linker_0
_symmetry_space_group_name_H-M    P1
_symmetry_Int_Tables_number       1
_symmetry_cell_setting            triclinic
loop_
_symmetry_equiv_pos_as_xyz
'x, y, z'
_cell_length_a     40.216229
_cell_length_b     40.205635
_cell_length_c     50.011312
_cell_angle_alpha  90.01294
_cell_angle_beta   90.008886
_cell_angle_gamma 89.997238
loop_
_atom_site_label
_atom_site_type_symbol
_atom_site_fract_x
_atom_site_fract_y
_atom_site_fract_z
_atom_type_partial_charge
C0 C 0.08952 0.6724 0.14436 0.0
C1 C 0.98938 0.62128 0.17946 0.0
O2 O 0.0864 0.6503 0.16226 0.0
Zn3 Zn 0.03904 0.64609 0.16085 0.0
O4 O 0.06369 0.68294 0.13188 0.0
Zn5 Zn 0.01101 0.67195 0.13251 0.0
O6 O 0.99194 0.7146 0.13953 0.0
O7 O 0.02072 0.69454 0.17346 0.0
O8 O 0.98286 0.64033 0.15952 0.0
O9 O 0.01929 0.61758 0.18703 0.0
O10 O 0.03049 0.61936 0.12403 0.0
O11 O 0.00201 0.65316 0.09803 0.0
C12 C 0.00281 0.71775 0.16323 0.0
C13 C 0.0159 0.62521 0.1017 0.0
C14 C 0.32683 0.59006 0.64502 0.0
C15 C 0.37821 0.49001 0.68009 0.0
O16 O 0.34912 0.58704 0.66278 0.0
Zn17 Zn 0.35328 0.53965 0.66152 0.0
O18 O 0.31614 0.56416 0.63272 0.0
Zn19 Zn 0.32703 0.51148 0.63346 0.0
O20 O 0.28446 0.49254 0.64087 0.0
O21 O 0.30499 0.52146 0.67455 0.0
O22 O 0.35892 0.48345 0.66031 0.0
O23 O 0.38207 0.51994 0.68756 0.0
O24 O 0.37949 0.53088 0.6245 0.0
O25 O 0.34537 0.50225 0.59887 0.0
C26 C 0.28163 0.50354 0.66456 0.0
C27 C 0.37336 0.51616 0.60227 0.0
C28 C 0.4966 0.78105 0.16313 0.0
C29 C 0.48477 0.87042 0.09855 0.0
O30 O 0.50683 0.78239 0.13913 0.0
Zn31 Zn 0.48905 0.82518 0.1309 0.0
O32 O 0.47953 0.80528 0.17277 0.0
Zn33 Zn 0.46103 0.85292 0.15816 0.0
O34 O 0.41351 0.84867 0.15957 0.0
O35 O 0.43646 0.81478 0.13026 0.0
O36 O 0.46991 0.87735 0.12054 0.0
O37 O 0.49872 0.84233 0.09588 0.0
O38 O 0.51736 0.85743 0.15747 0.0
O39 O 0.48072 0.8834 0.18287 0.0
C40 C 0.41052 0.8258 0.14227 0.0
C41 C 0.51077 0.87823 0.17625 0.0
C42 C 0.12498 0.98355 0.60028 0.0
C43 C 0.21581 0.99654 0.66344 0.0
O44 O 0.15295 0.99757 0.59707 0.0
Zn45 Zn 0.17095 0.98849 0.63183 0.0
O46 O 0.11863 0.96889 0.62249 0.0
Zn47 Zn 0.14426 0.96034 0.65975 0.0
O48 O 0.11493 0.98005 0.68534 0.0
O49 O 0.1387 0.01658 0.65847 0.0
O50 O 0.19202 0.97913 0.67334 0.0
O51 O 0.21379 0.00693 0.63952 0.0
O52 O 0.18183 0.93598 0.63123 0.0
O53 O 0.14898 0.91285 0.66119 0.0
C54 C 0.119 0.01001 0.678 0.0
C55 C 0.1714 0.91 0.64352 0.0
C56 C 0.01033 0.37892 0.82266 0.0
C57 C 0.90939 0.32757 0.85607 0.0
O58 O 0.01664 0.35789 0.84134 0.0
Zn59 Zn 0.98787 0.32579 0.8677 0.0
O60 O 0.98035 0.38457 0.81609 0.0
Zn61 Zn 0.96027 0.35418 0.84059 0.0
O62 O 0.96922 0.3781 0.87835 0.0
O63 O 0.9976 0.3426 0.90288 0.0
O64 O 0.91278 0.35065 0.83902 0.0
O65 O 0.9351 0.31597 0.86807 0.0
O66 O 0.00522 0.28284 0.85914 0.0
O67 O 0.97815 0.30647 0.82572 0.0
C68 C 0.9839 0.37084 0.90036 0.0
C69 C 0.99496 0.28193 0.83513 0.0
C70 C 0.71689 0.49786 0.33629 0.0
C71 C 0.62713 0.48537 0.40044 0.0
O72 O 0.69309 0.48012 0.32678 0.0
Zn73 Zn 0.64565 0.46123 0.34108 0.0
O74 O 0.71514 0.5086 0.36013 0.0
Zn75 Zn 0.67256 0.49003 0.36835 0.0
O76 O 0.68387 0.43756 0.36941 0.0
O77 O 0.65059 0.41379 0.34006 0.0
O78 O 0.65503 0.49967 0.40318 0.0
O79 O 0.62054 0.47026 0.37846 0.0
O80 O 0.61578 0.48015 0.31557 0.0
O81 O 0.63986 0.51749 0.34155 0.0
C82 C 0.67335 0.41133 0.35749 0.0
C83 C 0.6199 0.51032 0.32232 0.0
C84 C 0.51652 0.12418 0.89682 0.0
C85 C 0.50283 0.21557 0.83431 0.0
O86 O 0.53119 0.11812 0.87456 0.0
Zn87 Zn 0.53954 0.14422 0.83747 0.0
O88 O 0.50235 0.15204 0.90022 0.0
Zn89 Zn 0.51127 0.17047 0.8656 0.0
O90 O 0.48338 0.13835 0.83874 0.0
O91 O 0.51998 0.11506 0.81165 0.0
O92 O 0.49252 0.21325 0.85824 0.0
O93 O 0.52039 0.192 0.82424 0.0
O94 O 0.587 0.14932 0.83603 0.0
O95 O 0.56364 0.18172 0.86622 0.0
C96 C 0.49003 0.11892 0.81905 0.0
C97 C 0.58968 0.17161 0.85385 0.0
C98 C 0.87141 0.01572 0.39835 0.0
C99 C 0.78072 0.0046 0.33487 0.0
O100 O 0.87804 0.03063 0.37631 0.0
Zn101 Zn 0.85288 0.03979 0.33902 0.0
O102 O 0.84331 0.00188 0.40126 0.0
Zn103 Zn 0.82561 0.01178 0.36648 0.0
O104 O 0.85712 0.98344 0.33951 0.0
O105 O 0.88256 0.01995 0.31371 0.0
O106 O 0.78291 0.99368 0.35863 0.0
O107 O 0.80455 0.02214 0.32513 0.0
O108 O 0.84932 0.08725 0.33785 0.0
O109 O 0.81545 0.06463 0.36737 0.0
C110 C 0.87743 0.98992 0.32039 0.0
C111 C 0.82673 0.09047 0.35535 0.0
C112 C 0.00303 0.38868 0.94593 0.0
C113 C 0.98584 0.39574 0.92212 0.0
C114 C 0.00604 0.41282 0.96592 0.0
C115 C 0.96911 0.49162 0.99 0.0
H116 H 0.05439 0.50333 0.02498 0.0
C117 C 0.99701 0.60501 0.05678 0.0
C118 C 0.0141 0.59912 0.08084 0.0
C119 C 0.99392 0.5799 0.03763 0.0
C120 C 0.03032 0.50014 0.01561 0.0
H121 H 0.958 0.43362 0.9008 0.0
H122 H 0.96347 0.47569 0.93551 0.0
H123 H 0.0476 0.45956 0.99163 0.0
H124 H 0.04175 0.56229 0.10346 0.0
H125 H 0.03619 0.51843 0.07008 0.0
H126 H 0.95186 0.53226 0.01389 0.0
C127 C 0.97432 0.4514 0.93889 0.0
C128 C 0.02641 0.47503 0.99652 0.0
C129 C 0.97134 0.4273 0.91891 0.0
C130 C 0.02848 0.56769 0.08512 0.0
C131 C 0.02542 0.54258 0.06594 0.0
C132 C 0.97302 0.51672 0.00906 0.0
C133 C 0.99188 0.44453 0.96256 0.0
C134 C 0.99579 0.47058 0.98341 0.0
C135 C 0.00786 0.54832 0.04207 0.0
C136 C 0.00371 0.52137 0.022 0.0
H137 H 0.01444 0.36459 0.94907 0.0
H138 H 0.01935 0.4066 0.98407 0.0
H139 H 0.94505 0.48851 0.9806 0.0
H140 H 0.98572 0.62896 0.05279 0.0
H141 H 0.98068 0.58528 0.01927 0.0
C142 C 0.39295 0.49714 0.55722 0.0
C143 C 0.39914 0.51432 0.5812 0.0
C144 C 0.41777 0.49412 0.53783 0.0
C145 C 0.49691 0.53106 0.51506 0.0
H146 H 0.50884 0.44585 0.47997 0.0
C147 C 0.6086 0.50439 0.44581 0.0
C148 C 0.60191 0.48712 0.42196 0.0
C149 C 0.58426 0.50725 0.46562 0.0
C150 C 0.50562 0.4699 0.48939 0.0
H151 H 0.4362 0.54215 0.60344 0.0
H152 H 0.47953 0.53671 0.56963 0.0
H153 H 0.46529 0.45238 0.51347 0.0
H154 H 0.56448 0.45899 0.40038 0.0
H155 H 0.52201 0.4642 0.43484 0.0
H156 H 0.53719 0.5486 0.49093 0.0
C157 C 0.45538 0.52583 0.56574 0.0
C158 C 0.48064 0.47365 0.50857 0.0
C159 C 0.43057 0.52882 0.58517 0.0
C160 C 0.5705 0.47239 0.41854 0.0
C161 C 0.54618 0.47524 0.43835 0.0
C162 C 0.52188 0.52731 0.49586 0.0
C163 C 0.44933 0.50824 0.54193 0.0
C164 C 0.47595 0.50429 0.52158 0.0
C165 C 0.5527 0.49289 0.46205 0.0
C166 C 0.52649 0.4967 0.48277 0.0
H167 H 0.36899 0.48574 0.55348 0.0
H168 H 0.41216 0.48083 0.51953 0.0
H169 H 0.49365 0.55511 0.52446 0.0
H170 H 0.63257 0.51596 0.44913 0.0
H171 H 0.59023 0.5206 0.48381 0.0
C172 C 0.47242 0.92716 0.08043 0.0
C173 C 0.4868 0.89557 0.07699 0.0
C174 C 0.47578 0.95155 0.06074 0.0
C175 C 0.49519 0.96381 0.98924 0.0
H176 H 0.51497 0.05403 0.01164 0.0
C177 C 0.52964 0.06703 0.91387 0.0
C178 C 0.51505 0.09841 0.91793 0.0
C179 C 0.52698 0.04222 0.93333 0.0
C180 C 0.50913 0.02904 0.00506 0.0
H181 H 0.51555 0.86471 0.04993 0.0
H182 H 0.52153 0.90738 0.01561 0.0
H183 H 0.50801 0.01063 0.04518 0.0
H184 H 0.48653 0.12841 0.94577 0.0
H185 H 0.48172 0.08509 0.97957 0.0
H186 H 0.49623 0.98227 0.94911 0.0
C187 C 0.50743 0.91317 0.03347 0.0
C188 C 0.50511 0.00417 0.02428 0.0
C189 C 0.50411 0.88876 0.05319 0.0
C190 C 0.49814 0.10456 0.94202 0.0
C191 C 0.49552 0.07976 0.96148 0.0
C192 C 0.4992 0.9887 0.97001 0.0
C193 C 0.49355 0.94494 0.03713 0.0
C194 C 0.49799 0.97129 0.01661 0.0
C195 C 0.50972 0.04824 0.95729 0.0
C196 C 0.50612 0.02163 0.9777 0.0
H197 H 0.45883 0.93322 0.09848 0.0
H198 H 0.46434 0.97561 0.06398 0.0
H199 H 0.48931 0.93882 0.98269 0.0
H200 H 0.5429 0.06148 0.89556 0.0
H201 H 0.5386 0.01835 0.92964 0.0
C202 C 0.89013 0.99645 0.44361 0.0
C203 C 0.8968 0.01361 0.41972 0.0
C204 C 0.91464 0.99324 0.46326 0.0
C205 C 0.00565 0.9957 0.47235 0.0
H206 H 0.98366 0.00485 0.54748 0.0
C207 C 0.1058 0.00212 0.55497 0.0
C208 C 0.0994 0.9852 0.57902 0.0
C209 C 0.08115 0.00493 0.53541 0.0
C210 C 0.99012 0.00182 0.5266 0.0
H211 H 0.93435 0.04136 0.39795 0.0
H212 H 0.97694 0.03603 0.43233 0.0
H213 H 0.9403 0.01178 0.51384 0.0
H214 H 0.06217 0.9575 0.60118 0.0
H215 H 0.01931 0.96213 0.56692 0.0
H216 H 0.05547 0.98575 0.48509 0.0
C217 C 0.9529 0.02464 0.43571 0.0
C218 C 0.96528 0.00582 0.50732 0.0
C219 C 0.92839 0.02789 0.41608 0.0
C220 C 0.06792 0.97078 0.58291 0.0
C221 C 0.04326 0.97362 0.56335 0.0
C222 C 0.03048 0.99169 0.49162 0.0
C223 C 0.94639 0.00708 0.45944 0.0
C224 C 0.97277 0.00287 0.47997 0.0
C225 C 0.04952 0.99092 0.53945 0.0
C226 C 0.02302 0.99474 0.51896 0.0
H227 H 0.86608 0.98509 0.44703 0.0
H228 H 0.90893 0.97928 0.4812 0.0
H229 H 0.01212 0.9927 0.45147 0.0
H230 H 0.12974 0.0136 0.55136 0.0
H231 H 0.08666 0.01873 0.51735 0.0
C232 C 0.12563 0.72017 0.13099 0.0
C233 C 0.12254 0.68682 0.13885 0.0
C234 C 0.15706 0.73464 0.12816 0.0
C235 C 0.24555 0.72071 0.14811 0.0
H236 H 0.26134 0.79501 0.10031 0.0
C237 C 0.3754 0.77765 0.12811 0.0
C238 C 0.37767 0.81069 0.13712 0.0
C239 C 0.34439 0.76229 0.1255 0.0
C240 C 0.25715 0.77421 0.11367 0.0
H241 H 0.14962 0.64186 0.14849 0.0
H242 H 0.20435 0.66626 0.14196 0.0
H243 H 0.20724 0.76731 0.10007 0.0
H244 H 0.34937 0.85401 0.14933 0.0
H245 H 0.29498 0.82731 0.14383 0.0
H246 H 0.29601 0.72718 0.16091 0.0
C247 C 0.18276 0.68195 0.13921 0.0
C248 C 0.22611 0.75846 0.11376 0.0
C249 C 0.15136 0.66778 0.14272 0.0
C250 C 0.34832 0.82849 0.14244 0.0
C251 C 0.31728 0.81334 0.1392 0.0
C252 C 0.27673 0.73594 0.14751 0.0
C253 C 0.18614 0.71583 0.13252 0.0
C254 C 0.21972 0.73168 0.13122 0.0
C255 C 0.31516 0.77996 0.13119 0.0
C256 C 0.28264 0.76298 0.13051 0.0
H257 H 0.10374 0.73546 0.12808 0.0
H258 H 0.15839 0.76086 0.12343 0.0
H259 H 0.24162 0.70084 0.16235 0.0
H260 H 0.39761 0.76329 0.124 0.0
H261 H 0.34322 0.73648 0.11933 0.0
C262 C 0.33127 0.65193 0.64321 0.0
C263 C 0.3123 0.62304 0.6395 0.0
C264 C 0.31698 0.68329 0.63965 0.0
C265 C 0.24011 0.72624 0.61442 0.0
H266 H 0.27128 0.79643 0.66136 0.0
C267 C 0.16941 0.84777 0.64392 0.0
C268 C 0.18674 0.87729 0.63823 0.0
C269 C 0.18481 0.81687 0.64054 0.0
C270 C 0.26255 0.77706 0.64802 0.0
H271 H 0.26365 0.60404 0.62898 0.0
H272 H 0.23806 0.65859 0.62427 0.0
H273 H 0.29803 0.74222 0.66269 0.0
H274 H 0.23357 0.89768 0.6243 0.0
H275 H 0.26086 0.84354 0.61939 0.0
H276 H 0.20318 0.76118 0.60117 0.0
C277 C 0.26432 0.65737 0.62889 0.0
C278 C 0.27802 0.74599 0.64855 0.0
C279 C 0.2789 0.62599 0.63176 0.0
C280 C 0.21956 0.87532 0.62871 0.0
C281 C 0.2352 0.84447 0.62596 0.0
C282 C 0.22413 0.75716 0.6144 0.0
C283 C 0.28306 0.68653 0.63308 0.0
C284 C 0.26707 0.72005 0.63175 0.0
C285 C 0.218 0.81508 0.63202 0.0
C286 C 0.2353 0.78274 0.63119 0.0
H287 H 0.35723 0.6503 0.64887 0.0
H288 H 0.33262 0.70495 0.64228 0.0
H289 H 0.23128 0.70728 0.60079 0.0
H290 H 0.14406 0.84858 0.65121 0.0
H291 H 0.17122 0.79443 0.64547 0.0
C292 C 0.6519 0.17002 0.85354 0.0
C293 C 0.62226 0.18713 0.85925 0.0
C294 C 0.68268 0.18556 0.85716 0.0
C295 C 0.72235 0.26353 0.85063 0.0
H296 H 0.79143 0.23185 0.89832 0.0
C297 C 0.84747 0.33219 0.85722 0.0
C298 C 0.87627 0.31308 0.86104 0.0
C299 C 0.81604 0.31791 0.86031 0.0
C300 C 0.77268 0.24081 0.88457 0.0
H301 H 0.60152 0.23373 0.87338 0.0
H302 H 0.65545 0.26128 0.87871 0.0
H303 H 0.73762 0.20368 0.89722 0.0
H304 H 0.89495 0.26419 0.87123 0.0
H305 H 0.84033 0.23868 0.87516 0.0
H306 H 0.75736 0.29925 0.83658 0.0
C307 C 0.65471 0.23568 0.87195 0.0
C308 C 0.7418 0.22478 0.88418 0.0
C309 C 0.62397 0.21989 0.86896 0.0
C310 C 0.8731 0.27955 0.86839 0.0
C311 C 0.84167 0.26501 0.87081 0.0
C312 C 0.75339 0.27907 0.85053 0.0
C313 C 0.68423 0.21868 0.86593 0.0
C314 C 0.71648 0.23607 0.8672 0.0
C315 C 0.81263 0.2839 0.86655 0.0
C316 C 0.77909 0.26795 0.86748 0.0
H317 H 0.65128 0.14472 0.8461 0.0
H318 H 0.70523 0.17212 0.85228 0.0
H319 H 0.70317 0.27237 0.83717 0.0
H320 H 0.84925 0.35823 0.85184 0.0
H321 H 0.79444 0.33362 0.85762 0.0
C322 C 0.72202 0.37694 0.37172 0.0
C323 C 0.68888 0.37874 0.36291 0.0
C324 C 0.73773 0.34612 0.37449 0.0
C325 C 0.72626 0.25867 0.38681 0.0
H326 H 0.7998 0.24323 0.33828 0.0
C327 C 0.77928 0.127 0.36872 0.0
C328 C 0.81262 0.12363 0.36092 0.0
C329 C 0.76514 0.15856 0.37174 0.0
C330 C 0.77989 0.24714 0.35249 0.0
H331 H 0.64574 0.34983 0.35125 0.0
H332 H 0.67303 0.29579 0.35705 0.0
H333 H 0.77353 0.29768 0.33981 0.0
H334 H 0.85788 0.15036 0.35156 0.0
H335 H 0.83401 0.2053 0.35838 0.0
H336 H 0.73298 0.20867 0.40023 0.0
C337 C 0.68683 0.3183 0.36139 0.0
C338 C 0.76471 0.27836 0.35315 0.0
C339 C 0.67134 0.34913 0.35798 0.0
C340 C 0.83196 0.1523 0.35727 0.0
C341 C 0.8181 0.18383 0.36096 0.0
C342 C 0.74194 0.22761 0.38665 0.0
C343 C 0.7203 0.31661 0.36918 0.0
C344 C 0.73755 0.28422 0.37005 0.0
C345 C 0.78426 0.1875 0.36765 0.0
C346 C 0.76873 0.22121 0.3692 0.0
H347 H 0.73617 0.39937 0.37552 0.0
H348 H 0.76361 0.34529 0.3805 0.0
H349 H 0.70538 0.26281 0.40009 0.0
H350 H 0.76375 0.10525 0.37146 0.0
H351 H 0.73892 0.1601 0.37643 0.0
C352 C 0.74311 0.50513 0.29131 0.0
C353 C 0.74565 0.50659 0.31931 0.0
C354 C 0.76972 0.51505 0.27521 0.0
C355 C 0.85964 0.5254 0.27374 0.0
H356 H 0.8431 0.59347 0.22048 0.0
C357 C 0.96686 0.59369 0.22044 0.0
C358 C 0.9621 0.6047 0.19408 0.0
C359 C 0.94058 0.57967 0.23481 0.0
C360 C 0.84817 0.57397 0.23483 0.0
H361 H 0.77832 0.51866 0.35243 0.0
H362 H 0.82515 0.53524 0.3242 0.0
H363 H 0.79709 0.57184 0.24693 0.0
H364 H 0.92646 0.60864 0.16173 0.0
H365 H 0.88098 0.58288 0.18632 0.0
H366 H 0.91048 0.52674 0.2614 0.0
C367 C 0.80243 0.52669 0.3148 0.0
C368 C 0.82177 0.56175 0.25008 0.0
C369 C 0.77561 0.51737 0.33091 0.0
C370 C 0.93077 0.60065 0.18213 0.0
C371 C 0.90463 0.58608 0.19633 0.0
C372 C 0.88599 0.53717 0.25817 0.0
C373 C 0.79957 0.52598 0.28682 0.0
C374 C 0.82733 0.53763 0.26984 0.0
C375 C 0.90903 0.57578 0.22301 0.0
C376 C 0.88071 0.56193 0.2387 0.0
H377 H 0.72029 0.49703 0.28181 0.0
H378 H 0.76701 0.51417 0.25367 0.0
H379 H 0.86446 0.50654 0.28871 0.0
H380 H 0.99067 0.59674 0.23026 0.0
H381 H 0.9449 0.57269 0.25543 0.0
C382 C 0.39884 0.43141 0.68264 0.0
C383 C 0.39484 0.46271 0.69465 0.0
C384 C 0.41336 0.4052 0.69679 0.0
C385 C 0.46221 0.38613 0.75856 0.0
H386 H 0.42749 0.29734 0.74676 0.0
C387 C 0.48304 0.27437 0.82996 0.0
C388 C 0.49379 0.2447 0.81785 0.0
C389 C 0.47344 0.30152 0.81431 0.0
C390 C 0.43758 0.32198 0.75008 0.0
H391 H 0.40289 0.49119 0.73087 0.0
H392 H 0.42687 0.44527 0.75596 0.0
H393 H 0.4057 0.34366 0.72075 0.0
H394 H 0.50299 0.22021 0.77991 0.0
H395 H 0.48537 0.26748 0.75259 0.0
H396 H 0.49304 0.36422 0.78882 0.0
C397 C 0.41986 0.44103 0.73534 0.0
C398 C 0.42527 0.34857 0.73508 0.0
C399 C 0.4059 0.46739 0.72101 0.0
C400 C 0.49493 0.24278 0.78981 0.0
C401 C 0.48473 0.26971 0.77417 0.0
C402 C 0.47407 0.35959 0.77389 0.0
C403 C 0.42365 0.40949 0.72348 0.0
C404 C 0.4374 0.38105 0.73909 0.0
C405 C 0.47382 0.29926 0.78629 0.0
C406 C 0.46185 0.32731 0.76976 0.0
H407 H 0.39082 0.42716 0.66224 0.0
H408 H 0.41651 0.38157 0.68672 0.0
H409 H 0.47267 0.41058 0.76191 0.0
H410 H 0.482 0.27659 0.85153 0.0
H411 H 0.46492 0.324 0.82409 0.0
C412 C 0.53104 0.92095 0.2089 0.0
C413 C 0.53803 0.89533 0.19062 0.0
C414 C 0.55665 0.93614 0.22331 0.0
C415 C 0.6485 0.94668 0.22539 0.0
H416 H 0.63227 0.96586 0.30024 0.0
C417 C 0.72726 0.9739 0.32798 0.0
C418 C 0.75147 0.99602 0.31826 0.0
C419 C 0.70046 0.96442 0.31196 0.0
C420 C 0.6373 0.9605 0.2794 0.0
H421 H 0.57746 0.86582 0.17292 0.0
H422 H 0.622 0.89174 0.19848 0.0
H423 H 0.58765 0.94344 0.27283 0.0
H424 H 0.76606 0.02614 0.28424 0.0
H425 H 0.71888 0.01005 0.25642 0.0
H426 H 0.69858 0.96241 0.2323 0.0
C427 C 0.59683 0.90061 0.20133 0.0
C428 C 0.61155 0.94805 0.26356 0.0
C429 C 0.57124 0.88558 0.18677 0.0
C430 C 0.74792 0.00893 0.2923 0.0
C431 C 0.72098 0.99955 0.27629 0.0
C432 C 0.67432 0.95898 0.24128 0.0
C433 C 0.58983 0.9259 0.21994 0.0
C434 C 0.61688 0.9407 0.23641 0.0
C435 C 0.69706 0.97697 0.28586 0.0
C436 C 0.66912 0.96573 0.26856 0.0
H437 H 0.50574 0.92923 0.21219 0.0
H438 H 0.5504 0.95592 0.23712 0.0
H439 H 0.65338 0.94173 0.20447 0.0
H440 H 0.72929 0.96336 0.34784 0.0
H441 H 0.68284 0.94658 0.31985 0.0
C442 C 0.0027 0.25643 0.78991 0.0
C443 C 0.0033 0.25328 0.81789 0.0
C444 C 0.01247 0.2299 0.77362 0.0
C445 C 0.02128 0.13971 0.7712 0.0
H446 H 0.09126 0.1561 0.71955 0.0
C447 C 0.09017 0.03234 0.71851 0.0
C448 C 0.10215 0.03729 0.69244 0.0
C449 C 0.07591 0.0586 0.73277 0.0
C450 C 0.07123 0.15108 0.73343 0.0
H451 H 0.0136 0.21962 0.85075 0.0
H452 H 0.0299 0.173 0.8222 0.0
H453 H 0.06939 0.20202 0.74599 0.0
H454 H 0.10755 0.07327 0.66048 0.0
H455 H 0.0814 0.11874 0.68484 0.0
H456 H 0.02239 0.08901 0.75841 0.0
C457 C 0.02215 0.1961 0.81295 0.0
C458 C 0.05886 0.17744 0.74868 0.0
C459 C 0.01299 0.22281 0.82925 0.0
C460 C 0.09881 0.0688 0.68065 0.0
C461 C 0.08401 0.09493 0.69473 0.0
C462 C 0.03322 0.11341 0.75563 0.0
C463 C 0.02238 0.19956 0.78501 0.0
C464 C 0.03406 0.17191 0.76789 0.0
C465 C 0.07275 0.09033 0.72113 0.0
C466 C 0.05868 0.11864 0.73674 0.0
H467 H 0.99546 0.27964 0.78059 0.0
H468 H 0.01231 0.23309 0.75211 0.0
H469 H 0.0019 0.13492 0.78574 0.0
H470 H 0.09265 0.00838 0.72821 0.0
H471 H 0.06817 0.05412 0.75318 0.0
C472 C 0.07092 0.38571 0.81235 0.0
C473 C 0.03779 0.39559 0.80823 0.0
C474 C 0.09667 0.40024 0.79768 0.0
C475 C 0.1121 0.44603 0.73482 0.0
H476 H 0.19865 0.4617 0.76656 0.0
C477 C 0.24797 0.50806 0.70662 0.0
C478 C 0.2522 0.49473 0.68085 0.0
C479 C 0.22094 0.49851 0.72243 0.0
C480 C 0.17453 0.45787 0.75743 0.0
H481 H 0.00584 0.42919 0.78605 0.0
H482 H 0.0508 0.45499 0.76088 0.0
H483 H 0.15324 0.44139 0.79433 0.0
H484 H 0.23113 0.46115 0.6514 0.0
H485 H 0.18445 0.44409 0.67909 0.0
H486 H 0.13318 0.46307 0.69804 0.0
C487 C 0.05684 0.4355 0.77501 0.0
C488 C 0.14859 0.44579 0.7733 0.0
C489 C 0.03107 0.42084 0.78957 0.0
C490 C 0.22856 0.47201 0.67112 0.0
C491 C 0.20164 0.46236 0.68696 0.0
C492 C 0.13797 0.45823 0.71899 0.0
C493 C 0.08992 0.42513 0.77866 0.0
C494 C 0.11714 0.43943 0.76213 0.0
C495 C 0.1976 0.47532 0.71287 0.0
C496 C 0.1696 0.46399 0.73003 0.0
H497 H 0.07694 0.36623 0.8265 0.0
H498 H 0.12179 0.39132 0.80076 0.0
H499 H 0.08832 0.44108 0.72546 0.0
H500 H 0.26565 0.52574 0.71468 0.0
H501 H 0.21831 0.50935 0.74214 0.0
C502 C 0.59032 0.53095 0.28158 0.0
C503 C 0.60306 0.53712 0.30728 0.0
C504 C 0.57644 0.55672 0.26655 0.0
C505 C 0.53664 0.63788 0.27042 0.0
H506 H 0.57359 0.65217 0.19976 0.0
C507 C 0.50579 0.75504 0.208 0.0
C508 C 0.50519 0.75217 0.18002 0.0
C509 C 0.51594 0.72825 0.22385 0.0
C510 C 0.56242 0.64825 0.21919 0.0
H511 H 0.61021 0.57486 0.33775 0.0
H512 H 0.58514 0.61982 0.31157 0.0
H513 H 0.59353 0.60608 0.22687 0.0
H514 H 0.51333 0.71867 0.14672 0.0
H515 H 0.52948 0.67152 0.17426 0.0
H516 H 0.50484 0.67939 0.26263 0.0
C517 C 0.58624 0.59505 0.30308 0.0
C518 C 0.57407 0.62192 0.23478 0.0
C519 C 0.6007 0.56939 0.31797 0.0
C520 C 0.51393 0.72172 0.16824 0.0
C521 C 0.52345 0.69475 0.18408 0.0
C522 C 0.52451 0.66393 0.25464 0.0
C523 C 0.57448 0.58902 0.27709 0.0
C524 C 0.5614 0.61658 0.26055 0.0
C525 C 0.52516 0.69778 0.2121 0.0
C526 C 0.53735 0.66958 0.22883 0.0
H527 H 0.59185 0.50639 0.27277 0.0
H528 H 0.56735 0.55145 0.2466 0.0
H529 H 0.52634 0.63408 0.2902 0.0
H530 H 0.49939 0.77832 0.21762 0.0
H531 H 0.51738 0.73181 0.24528 0.0
C532 C 0.43144 0.09831 0.81638 0.0
C533 C 0.46278 0.10226 0.80445 0.0
C534 C 0.40525 0.08389 0.80214 0.0
C535 C 0.38616 0.03542 0.74013 0.0
H536 H 0.29755 0.07061 0.75178 0.0
C537 C 0.27472 0.01585 0.66817 0.0
C538 C 0.24488 0.00528 0.68009 0.0
C539 C 0.30183 0.02513 0.684 0.0
C540 C 0.32214 0.06038 0.7485 0.0
H541 H 0.49136 0.09419 0.76829 0.0
H542 H 0.44547 0.07039 0.74304 0.0
H543 H 0.34385 0.09192 0.77806 0.0
H544 H 0.22007 0.99602 0.71787 0.0
H545 H 0.26728 0.01307 0.7455 0.0
H546 H 0.36423 0.00495 0.70964 0.0
C547 C 0.44119 0.07736 0.76366 0.0
C548 C 0.34871 0.07242 0.76366 0.0
C549 C 0.46753 0.09122 0.77809 0.0
C550 C 0.24277 0.00397 0.70812 0.0
C551 C 0.26967 0.01384 0.72393 0.0
C552 C 0.35963 0.02383 0.72465 0.0
C553 C 0.4096 0.07366 0.77543 0.0
C554 C 0.38114 0.06013 0.75969 0.0
C555 C 0.29938 0.02458 0.712 0.0
C556 C 0.32741 0.03622 0.72872 0.0
H557 H 0.42714 0.10631 0.83677 0.0
H558 H 0.38158 0.08079 0.81214 0.0
H559 H 0.41057 0.02484 0.7368 0.0
H560 H 0.2771 0.01701 0.64662 0.0
H561 H 0.32444 0.03353 0.67435 0.0
C562 C 0.97099 0.77075 0.16937 0.0
C563 C 0.99386 0.74737 0.17928 0.0
C564 C 0.9612 0.79783 0.185 0.0
C565 C 0.95652 0.86189 0.21656 0.0
H566 H 0.94044 0.84745 0.29211 0.0
C567 C 0.91871 0.96937 0.28666 0.0
C568 C 0.89394 0.96255 0.30571 0.0
C569 C 0.93335 0.9436 0.27206 0.0
C570 C 0.94461 0.85187 0.27101 0.0
H571 H 0.02502 0.73458 0.21316 0.0
H572 H 0.00842 0.7822 0.24024 0.0
H573 H 0.96092 0.80188 0.26461 0.0
H574 H 0.86532 0.92325 0.32452 0.0
H575 H 0.89032 0.87844 0.29869 0.0
H576 H 0.93894 0.91148 0.22271 0.0
C577 C 0.99754 0.77924 0.22057 0.0
C578 C 0.9568 0.82584 0.2553 0.0
C579 C 0.00721 0.75204 0.20498 0.0
C580 C 0.88445 0.92935 0.31008 0.0
C581 C 0.89894 0.90361 0.29536 0.0
C582 C 0.94418 0.88787 0.23224 0.0
C583 C 0.97418 0.80231 0.21086 0.0
C584 C 0.96267 0.83045 0.22783 0.0
C585 C 0.92343 0.91043 0.27604 0.0
C586 C 0.93785 0.88313 0.25963 0.0
H587 H 0.9601 0.76784 0.1497 0.0
H588 H 0.9428 0.8148 0.17701 0.0
H589 H 0.96116 0.86646 0.19555 0.0
H590 H 0.92675 0.99466 0.28293 0.0
H591 H 0.95252 0.94971 0.25767 0.0
loop_
_geom_bond_atom_site_label_1
_geom_bond_atom_site_label_2
_geom_bond_distance
_geom_bond_site_symmetry_2
_ccdc_geom_bond_type
C0 O2 1.247 . S
C0 O4 1.258 . S
C1 O8 1.247 . S
C1 O9 1.258 . S
O2 C0 1.247 . S
O2 Zn3 2.028 . S
Zn3 O2 2.028 . S
Zn3 O7 2.035 . S
Zn3 O9 2.035 1_455 S
Zn3 O10 2.028 . S
O4 C0 1.258 . S
O4 Zn5 2.035 1_455 S
Zn5 O4 2.035 1_655 S
Zn5 O6 2.028 . S
Zn5 O8 2.028 . S
Zn5 O11 2.033 1_655 S
O6 Zn5 2.028 . S
O6 C12 1.247 . S
O7 Zn3 2.035 . S
O7 C12 1.258 1_455 S
O8 C1 1.247 . S
O8 Zn5 2.028 . S
O9 C1 1.258 . S
O9 Zn3 2.035 1_655 S
O10 Zn3 2.028 . S
O10 C13 1.247 . S
O11 Zn5 2.033 1_455 S
O11 C13 1.263 . S
C12 O6 1.247 . S
C12 O7 1.258 1_655 S
C13 O10 1.247 . S
C13 O11 1.263 . S
C14 O16 1.247 . S
C14 O18 1.258 . S
C15 O22 1.247 . S
C15 O23 1.258 . S
O16 C14 1.247 . S
O16 Zn17 2.028 . S
Zn17 O16 2.028 . S
Zn17 O21 2.035 . S
Zn17 O23 2.035 . S
Zn17 O24 2.028 . S
O18 C14 1.258 . S
O18 Zn19 2.035 . S
Zn19 O18 2.035 . S
Zn19 O20 2.028 . S
Zn19 O22 2.028 . S
Zn19 O25 2.035 . S
O20 Zn19 2.028 . S
O20 C26 1.247 . S
O21 Zn17 2.035 . S
O21 C26 1.258 . S
O22 C15 1.247 . S
O22 Zn19 2.028 . S
O23 C15 1.258 . S
O23 Zn17 2.035 . S
O24 Zn17 2.028 . S
O24 C27 1.247 . S
O25 Zn19 2.035 . S
O25 C27 1.258 . S
C26 O20 1.247 . S
C26 O21 1.258 . S
C27 O24 1.247 . S
C27 O25 1.258 . S
C28 O30 1.247 . S
C28 O32 1.258 . S
C29 O36 1.247 . S
C29 O37 1.258 . S
O30 C28 1.247 . S
O30 Zn31 2.028 . S
Zn31 O30 2.028 . S
Zn31 O35 2.035 . S
Zn31 O37 2.035 . S
Zn31 O38 2.028 . S
O32 C28 1.258 . S
O32 Zn33 2.035 . S
Zn33 O32 2.035 . S
Zn33 O34 2.028 . S
Zn33 O36 2.028 . S
Zn33 O39 2.035 . S
O34 Zn33 2.028 . S
O34 C40 1.247 . S
O35 Zn31 2.035 . S
O35 C40 1.258 . S
O36 C29 1.247 . S
O36 Zn33 2.028 . S
O37 C29 1.258 . S
O37 Zn31 2.035 . S
O38 Zn31 2.028 . S
O38 C41 1.247 . S
O39 Zn33 2.035 . S
O39 C41 1.258 . S
C40 O34 1.247 . S
C40 O35 1.258 . S
C41 O38 1.247 . S
C41 O39 1.258 . S
C42 O44 1.247 . S
C42 O46 1.258 . S
C43 O50 1.247 1_545 S
C43 O51 1.258 . S
O44 C42 1.247 . S
O44 Zn45 2.028 1_565 S
Zn45 O44 2.028 1_545 S
Zn45 O49 2.035 . S
Zn45 O51 2.035 . S
Zn45 O52 2.028 1_545 S
O46 C42 1.258 . S
O46 Zn47 2.035 . S
Zn47 O46 2.035 . S
Zn47 O48 2.028 1_565 S
Zn47 O50 2.028 . S
Zn47 O53 2.035 . S
O48 Zn47 2.028 1_545 S
O48 C54 1.247 . S
O49 Zn45 2.035 . S
O49 C54 1.258 . S
O50 C43 1.247 1_565 S
O50 Zn47 2.028 . S
O51 C43 1.258 . S
O51 Zn45 2.035 . S
O52 Zn45 2.028 1_565 S
O52 C55 1.247 . S
O53 Zn47 2.035 . S
O53 C55 1.258 . S
C54 O48 1.247 . S
C54 O49 1.258 . S
C55 O52 1.247 . S
C55 O53 1.258 . S
C56 O58 1.247 . S
C56 O60 1.258 . S
C57 O64 1.247 . S
C57 O65 1.258 . S
O58 C56 1.247 . S
O58 Zn59 2.028 . S
Zn59 O58 2.028 . S
Zn59 O63 2.033 1_455 S
Zn59 O65 2.035 1_455 S
Zn59 O66 2.028 . S
O60 C56 1.258 . S
O60 Zn61 2.035 1_455 S
Zn61 O60 2.035 1_655 S
Zn61 O62 2.028 . S
Zn61 O64 2.028 . S
Zn61 O67 2.035 . S
O62 Zn61 2.028 . S
O62 C68 1.247 . S
O63 Zn59 2.033 1_655 S
O63 C68 1.263 . S
O64 C57 1.247 . S
O64 Zn61 2.028 . S
O65 C57 1.258 . S
O65 Zn59 2.035 1_655 S
O66 Zn59 2.028 . S
O66 C69 1.247 . S
O67 Zn61 2.035 . S
O67 C69 1.258 1_655 S
C68 O62 1.247 . S
C68 O63 1.263 . S
C69 O66 1.247 . S
C69 O67 1.258 1_455 S
C70 O72 1.247 . S
C70 O74 1.258 . S
C71 O78 1.247 . S
C71 O79 1.258 . S
O72 C70 1.247 . S
O72 Zn73 2.028 . S
Zn73 O72 2.028 . S
Zn73 O77 2.035 . S
Zn73 O79 2.035 . S
Zn73 O80 2.028 . S
O74 C70 1.258 . S
O74 Zn75 2.035 . S
Zn75 O74 2.035 . S
Zn75 O76 2.028 . S
Zn75 O78 2.028 . S
Zn75 O81 2.035 . S
O76 Zn75 2.028 . S
O76 C82 1.247 . S
O77 Zn73 2.035 . S
O77 C82 1.258 . S
O78 C71 1.247 . S
O78 Zn75 2.028 . S
O79 C71 1.258 . S
O79 Zn73 2.035 . S
O80 Zn73 2.028 . S
O80 C83 1.247 . S
O81 Zn75 2.035 . S
O81 C83 1.258 . S
C82 O76 1.247 . S
C82 O77 1.258 . S
C83 O80 1.247 . S
C83 O81 1.258 . S
C84 O86 1.247 . S
C84 O88 1.258 . S
C85 O92 1.247 . S
C85 O93 1.258 . S
O86 C84 1.247 . S
O86 Zn87 2.028 . S
Zn87 O86 2.028 . S
Zn87 O91 2.035 . S
Zn87 O93 2.035 . S
Zn87 O94 2.028 . S
O88 C84 1.258 . S
O88 Zn89 2.035 . S
Zn89 O88 2.035 . S
Zn89 O90 2.028 . S
Zn89 O92 2.028 . S
Zn89 O95 2.035 . S
O90 Zn89 2.028 . S
O90 C96 1.247 . S
O91 Zn87 2.035 . S
O91 C96 1.258 . S
O92 C85 1.247 . S
O92 Zn89 2.028 . S
O93 C85 1.258 . S
O93 Zn87 2.035 . S
O94 Zn87 2.028 . S
O94 C97 1.247 . S
O95 Zn89 2.035 . S
O95 C97 1.258 . S
C96 O90 1.247 . S
C96 O91 1.258 . S
C97 O94 1.247 . S
C97 O95 1.258 . S
C98 O100 1.247 . S
C98 O102 1.263 . S
C99 O106 1.247 . S
C99 O107 1.258 1_565 S
O100 C98 1.247 . S
O100 Zn101 2.028 . S
Zn101 O100 2.028 . S
Zn101 O105 2.035 1_545 S
Zn101 O107 2.035 . S
Zn101 O108 2.028 . S
O102 C98 1.263 . S
O102 Zn103 2.033 1_545 S
Zn103 O102 2.033 1_565 S
Zn103 O104 2.028 . S
Zn103 O106 2.028 . S
Zn103 O109 2.035 1_565 S
O104 Zn103 2.028 . S
O104 C110 1.247 . S
O105 Zn101 2.035 1_565 S
O105 C110 1.258 . S
O106 C99 1.247 . S
O106 Zn103 2.028 . S
O107 C99 1.258 1_545 S
O107 Zn101 2.035 . S
O108 Zn101 2.028 . S
O108 C111 1.247 . S
O109 Zn103 2.035 1_545 S
O109 C111 1.258 . S
C110 O104 1.247 . S
C110 O105 1.258 . S
C111 O108 1.247 . S
C111 O109 1.258 . S
C112 C113 1.349 1_455 S
C112 C114 1.327 . S
C112 H137 0.950 . S
C113 C112 1.349 1_655 S
C113 C129 1.349 . S
C114 C112 1.327 . S
C114 C133 1.429 1_455 S
C114 H138 0.950 . S
C115 C132 1.574 1_556 S
C115 C134 1.368 . S
C115 H139 0.949 . S
H116 C120 0.949 . S
C117 C118 1.349 1_655 S
C117 C119 1.327 . S
C117 H140 0.950 . S
C118 C117 1.349 1_455 S
C118 C130 1.349 . S
C119 C117 1.327 . S
C119 C135 1.429 1_655 S
C119 H141 0.950 . S
C120 H116 0.949 . S
C120 C128 1.574 1_554 S
C120 C136 1.368 . S
H121 C129 0.950 . S
H122 C127 0.950 . S
H123 C128 0.949 . S
H124 C130 0.950 . S
H125 C131 0.950 . S
H126 C132 0.949 . S
C127 H122 0.950 . S
C127 C129 1.327 . S
C127 C133 1.429 . S
C128 C120 1.574 1_556 S
C128 H123 0.949 . S
C128 C134 1.368 1_455 S
C129 C113 1.349 . S
C129 H121 0.950 . S
C129 C127 1.327 . S
C130 C118 1.349 . S
C130 H124 0.950 . S
C130 C131 1.327 . S
C131 H125 0.950 . S
C131 C130 1.327 . S
C131 C135 1.429 . S
C132 C115 1.574 1_554 S
C132 H126 0.949 . S
C132 C136 1.368 1_655 S
C133 C114 1.429 1_655 S
C133 C127 1.429 . S
C133 C134 1.523 . S
C134 C115 1.368 . S
C134 C128 1.368 1_655 S
C134 C133 1.523 . S
C135 C119 1.429 1_455 S
C135 C131 1.429 . S
C135 C136 1.523 . S
C136 C120 1.368 . S
C136 C132 1.368 1_455 S
C136 C135 1.523 . S
H137 C112 0.950 . S
H138 C114 0.950 . S
H139 C115 0.949 . S
H140 C117 0.950 . S
H141 C119 0.950 . S
C142 C143 1.349 . S
C142 C144 1.327 . S
C142 H167 0.950 . S
C143 C142 1.349 . S
C143 C159 1.349 . S
C144 C142 1.327 . S
C144 C163 1.429 . S
C144 H168 0.950 . S
C145 C162 1.574 . S
C145 C164 1.368 . S
C145 H169 0.949 . S
H146 C150 0.949 . S
C147 C148 1.349 . S
C147 C149 1.327 . S
C147 H170 0.950 . S
C148 C147 1.349 . S
C148 C160 1.349 . S
C149 C147 1.327 . S
C149 C165 1.429 . S
C149 H171 0.950 . S
C150 H146 0.949 . S
C150 C158 1.574 . S
C150 C166 1.368 . S
H151 C159 0.950 . S
H152 C157 0.950 . S
H153 C158 0.949 . S
H154 C160 0.950 . S
H155 C161 0.950 . S
H156 C162 0.949 . S
C157 H152 0.950 . S
C157 C159 1.327 . S
C157 C163 1.429 . S
C158 C150 1.574 . S
C158 H153 0.949 . S
C158 C164 1.368 . S
C159 C143 1.349 . S
C159 H151 0.950 . S
C159 C157 1.327 . S
C160 C148 1.349 . S
C160 H154 0.950 . S
C160 C161 1.327 . S
C161 H155 0.950 . S
C161 C160 1.327 . S
C161 C165 1.429 . S
C162 C145 1.574 . S
C162 H156 0.949 . S
C162 C166 1.368 . S
C163 C144 1.429 . S
C163 C157 1.429 . S
C163 C164 1.523 . S
C164 C145 1.368 . S
C164 C158 1.368 . S
C164 C163 1.523 . S
C165 C149 1.429 . S
C165 C161 1.429 . S
C165 C166 1.523 . S
C166 C150 1.368 . S
C166 C162 1.368 . S
C166 C165 1.523 . S
H167 C142 0.950 . S
H168 C144 0.950 . S
H169 C145 0.949 . S
H170 C147 0.950 . S
H171 C149 0.950 . S
C172 C173 1.349 . S
C172 C174 1.327 . S
C172 H197 0.950 . S
C173 C172 1.349 . S
C173 C189 1.349 . S
C174 C172 1.327 . S
C174 C193 1.429 . S
C174 H198 0.950 . S
C175 C192 1.585 1_565 S
C175 C194 1.357 1_556 S
C175 H199 0.949 . S
H176 C180 0.949 . S
C177 C178 1.349 . S
C177 C179 1.327 . S
C177 H200 0.950 . S
C178 C177 1.349 . S
C178 C190 1.349 . S
C179 C177 1.327 . S
C179 C195 1.429 . S
C179 H201 0.950 . S
C180 H176 0.949 . S
C180 C188 1.585 1_545 S
C180 C196 1.357 1_554 S
H181 C189 0.950 . S
H182 C187 0.950 . S
H183 C188 0.949 . S
H184 C190 0.950 . S
H185 C191 0.950 . S
H186 C192 0.949 . S
C187 H182 0.950 . S
C187 C189 1.327 . S
C187 C193 1.429 . S
C188 C180 1.585 1_565 S
C188 H183 0.949 . S
C188 C194 1.368 . S
C189 C173 1.349 . S
C189 H181 0.950 . S
C189 C187 1.327 . S
C190 C178 1.349 . S
C190 H184 0.950 . S
C190 C191 1.327 . S
C191 H185 0.950 . S
C191 C190 1.327 . S
C191 C195 1.429 . S
C192 C175 1.585 1_545 S
C192 H186 0.949 . S
C192 C196 1.368 . S
C193 C174 1.429 . S
C193 C187 1.429 . S
C193 C194 1.523 . S
C194 C175 1.357 1_554 S
C194 C188 1.368 . S
C194 C193 1.523 . S
C195 C179 1.429 . S
C195 C191 1.429 . S
C195 C196 1.523 . S
C196 C180 1.357 1_556 S
C196 C192 1.368 . S
C196 C195 1.523 . S
H197 C172 0.950 . S
H198 C174 0.950 . S
H199 C175 0.949 . S
H200 C177 0.950 . S
H201 C179 0.950 . S
C202 C203 1.349 . S
C202 C204 1.327 . S
C202 H227 0.950 . S
C203 C202 1.349 . S
C203 C219 1.349 1_545 S
C204 C202 1.327 . S
C204 C223 1.429 . S
C204 H228 0.950 . S
C205 C222 1.574 1_655 S
C205 C224 1.368 1_565 S
C205 H229 0.949 . S
H206 C210 0.949 . S
C207 C208 1.349 . S
C207 C209 1.327 . S
C207 H230 0.950 . S
C208 C207 1.349 . S
C208 C220 1.349 1_565 S
C209 C207 1.327 . S
C209 C225 1.429 . S
C209 H231 0.950 . S
C210 H206 0.949 . S
C210 C218 1.574 1_455 S
C210 C226 1.368 1_545 S
H211 C219 0.950 . S
H212 C217 0.950 . S
H213 C218 0.949 . S
H214 C220 0.950 . S
H215 C221 0.950 . S
H216 C222 0.949 . S
C217 H212 0.950 . S
C217 C219 1.327 . S
C217 C223 1.429 1_565 S
C218 C210 1.574 1_655 S
C218 H213 0.949 . S
C218 C224 1.368 . S
C219 C203 1.349 1_565 S
C219 H211 0.950 . S
C219 C217 1.327 . S
C220 C208 1.349 1_545 S
C220 H214 0.950 . S
C220 C221 1.327 . S
C221 H215 0.950 . S
C221 C220 1.327 . S
C221 C225 1.429 1_545 S
C222 C205 1.574 1_455 S
C222 H216 0.949 . S
C222 C226 1.368 . S
C223 C204 1.429 . S
C223 C217 1.429 1_545 S
C223 C224 1.523 . S
C224 C205 1.368 1_545 S
C224 C218 1.368 . S
C224 C223 1.523 . S
C225 C209 1.429 . S
C225 C221 1.429 1_565 S
C225 C226 1.523 . S
C226 C210 1.368 1_565 S
C226 C222 1.368 . S
C226 C225 1.523 . S
H227 C202 0.950 . S
H228 C204 0.950 . S
H229 C205 0.949 . S
H230 C207 0.950 . S
H231 C209 0.950 . S
C232 C233 1.349 . S
C232 C234 1.327 . S
C232 H257 0.950 . S
C233 C232 1.349 . S
C233 C249 1.349 . S
C234 C232 1.327 . S
C234 C253 1.429 . S
C234 H258 0.950 . S
C235 C252 1.574 . S
C235 C254 1.368 . S
C235 H259 0.949 . S
H236 C240 0.949 . S
C237 C238 1.349 . S
C237 C239 1.327 . S
C237 H260 0.950 . S
C238 C237 1.349 . S
C238 C250 1.349 . S
C239 C237 1.327 . S
C239 C255 1.429 . S
C239 H261 0.950 . S
C240 H236 0.949 . S
C240 C248 1.574 . S
C240 C256 1.368 . S
H241 C249 0.950 . S
H242 C247 0.950 . S
H243 C248 0.949 . S
H244 C250 0.950 . S
H245 C251 0.950 . S
H246 C252 0.949 . S
C247 H242 0.950 . S
C247 C249 1.327 . S
C247 C253 1.429 . S
C248 C240 1.574 . S
C248 H243 0.949 . S
C248 C254 1.368 . S
C249 C233 1.349 . S
C249 H241 0.950 . S
C249 C247 1.327 . S
C250 C238 1.349 . S
C250 H244 0.950 . S
C250 C251 1.327 . S
C251 H245 0.950 . S
C251 C250 1.327 . S
C251 C255 1.429 . S
C252 C235 1.574 . S
C252 H246 0.949 . S
C252 C256 1.368 . S
C253 C234 1.429 . S
C253 C247 1.429 . S
C253 C254 1.523 . S
C254 C235 1.368 . S
C254 C248 1.368 . S
C254 C253 1.523 . S
C255 C239 1.429 . S
C255 C251 1.429 . S
C255 C256 1.523 . S
C256 C240 1.368 . S
C256 C252 1.368 . S
C256 C255 1.523 . S
H257 C232 0.950 . S
H258 C234 0.950 . S
H259 C235 0.949 . S
H260 C237 0.950 . S
H261 C239 0.950 . S
C262 C263 1.349 . S
C262 C264 1.327 . S
C262 H287 0.950 . S
C263 C262 1.349 . S
C263 C279 1.349 . S
C264 C262 1.327 . S
C264 C283 1.429 . S
C264 H288 0.950 . S
C265 C282 1.574 . S
C265 C284 1.368 . S
C265 H289 0.949 . S
H266 C270 0.949 . S
C267 C268 1.349 . S
C267 C269 1.327 . S
C267 H290 0.950 . S
C268 C267 1.349 . S
C268 C280 1.349 . S
C269 C267 1.327 . S
C269 C285 1.429 . S
C269 H291 0.950 . S
C270 H266 0.949 . S
C270 C278 1.574 . S
C270 C286 1.368 . S
H271 C279 0.950 . S
H272 C277 0.950 . S
H273 C278 0.949 . S
H274 C280 0.950 . S
H275 C281 0.950 . S
H276 C282 0.949 . S
C277 H272 0.950 . S
C277 C279 1.327 . S
C277 C283 1.429 . S
C278 C270 1.574 . S
C278 H273 0.949 . S
C278 C284 1.368 . S
C279 C263 1.349 . S
C279 H271 0.950 . S
C279 C277 1.327 . S
C280 C268 1.349 . S
C280 H274 0.950 . S
C280 C281 1.327 . S
C281 H275 0.950 . S
C281 C280 1.327 . S
C281 C285 1.429 . S
C282 C265 1.574 . S
C282 H276 0.949 . S
C282 C286 1.368 . S
C283 C264 1.429 . S
C283 C277 1.429 . S
C283 C284 1.523 . S
C284 C265 1.368 . S
C284 C278 1.368 . S
C284 C283 1.523 . S
C285 C269 1.429 . S
C285 C281 1.429 . S
C285 C286 1.523 . S
C286 C270 1.368 . S
C286 C282 1.368 . S
C286 C285 1.523 . S
H287 C262 0.950 . S
H288 C264 0.950 . S
H289 C265 0.949 . S
H290 C267 0.950 . S
H291 C269 0.950 . S
C292 C293 1.349 . S
C292 C294 1.327 . S
C292 H317 0.950 . S
C293 C292 1.349 . S
C293 C309 1.349 . S
C294 C292 1.327 . S
C294 C313 1.429 . S
C294 H318 0.950 . S
C295 C312 1.574 . S
C295 C314 1.368 . S
C295 H319 0.949 . S
H296 C300 0.949 . S
C297 C298 1.349 . S
C297 C299 1.327 . S
C297 H320 0.950 . S
C298 C297 1.349 . S
C298 C310 1.349 . S
C299 C297 1.327 . S
C299 C315 1.429 . S
C299 H321 0.950 . S
C300 H296 0.949 . S
C300 C308 1.574 . S
C300 C316 1.368 . S
H301 C309 0.950 . S
H302 C307 0.950 . S
H303 C308 0.949 . S
H304 C310 0.950 . S
H305 C311 0.950 . S
H306 C312 0.949 . S
C307 H302 0.950 . S
C307 C309 1.327 . S
C307 C313 1.429 . S
C308 C300 1.574 . S
C308 H303 0.949 . S
C308 C314 1.368 . S
C309 C293 1.349 . S
C309 H301 0.950 . S
C309 C307 1.327 . S
C310 C298 1.349 . S
C310 H304 0.950 . S
C310 C311 1.327 . S
C311 H305 0.950 . S
C311 C310 1.327 . S
C311 C315 1.429 . S
C312 C295 1.574 . S
C312 H306 0.949 . S
C312 C316 1.368 . S
C313 C294 1.429 . S
C313 C307 1.429 . S
C313 C314 1.523 . S
C314 C295 1.368 . S
C314 C308 1.368 . S
C314 C313 1.523 . S
C315 C299 1.429 . S
C315 C311 1.429 . S
C315 C316 1.523 . S
C316 C300 1.368 . S
C316 C312 1.368 . S
C316 C315 1.523 . S
H317 C292 0.950 . S
H318 C294 0.950 . S
H319 C295 0.949 . S
H320 C297 0.950 . S
H321 C299 0.950 . S
C322 C323 1.349 . S
C322 C324 1.327 . S
C322 H347 0.950 . S
C323 C322 1.349 . S
C323 C339 1.349 . S
C324 C322 1.327 . S
C324 C343 1.429 . S
C324 H348 0.950 . S
C325 C342 1.574 . S
C325 C344 1.368 . S
C325 H349 0.949 . S
H326 C330 0.949 . S
C327 C328 1.349 . S
C327 C329 1.327 . S
C327 H350 0.950 . S
C328 C327 1.349 . S
C328 C340 1.349 . S
C329 C327 1.327 . S
C329 C345 1.429 . S
C329 H351 0.950 . S
C330 H326 0.949 . S
C330 C338 1.574 . S
C330 C346 1.368 . S
H331 C339 0.950 . S
H332 C337 0.950 . S
H333 C338 0.949 . S
H334 C340 0.950 . S
H335 C341 0.950 . S
H336 C342 0.949 . S
C337 H332 0.950 . S
C337 C339 1.327 . S
C337 C343 1.429 . S
C338 C330 1.574 . S
C338 H333 0.949 . S
C338 C344 1.368 . S
C339 C323 1.349 . S
C339 H331 0.950 . S
C339 C337 1.327 . S
C340 C328 1.349 . S
C340 H334 0.950 . S
C340 C341 1.327 . S
C341 H335 0.950 . S
C341 C340 1.327 . S
C341 C345 1.429 . S
C342 C325 1.574 . S
C342 H336 0.949 . S
C342 C346 1.368 . S
C343 C324 1.429 . S
C343 C337 1.429 . S
C343 C344 1.523 . S
C344 C325 1.368 . S
C344 C338 1.368 . S
C344 C343 1.523 . S
C345 C329 1.429 . S
C345 C341 1.429 . S
C345 C346 1.523 . S
C346 C330 1.368 . S
C346 C342 1.368 . S
C346 C345 1.523 . S
H347 C322 0.950 . S
H348 C324 0.950 . S
H349 C325 0.949 . S
H350 C327 0.950 . S
H351 C329 0.950 . S
C352 C353 1.349 . S
C352 C354 1.327 . S
C352 H377 0.950 . S
C353 C352 1.349 . S
C353 C369 1.349 . S
C354 C352 1.327 . S
C354 C373 1.429 . S
C354 H378 0.950 . S
C355 C372 1.574 . S
C355 C374 1.368 . S
C355 H379 0.949 . S
H356 C360 0.949 . S
C357 C358 1.349 . S
C357 C359 1.327 . S
C357 H380 0.950 . S
C358 C357 1.349 . S
C358 C370 1.349 . S
C359 C357 1.327 . S
C359 C375 1.429 . S
C359 H381 0.950 . S
C360 H356 0.949 . S
C360 C368 1.574 . S
C360 C376 1.368 . S
H361 C369 0.950 . S
H362 C367 0.950 . S
H363 C368 0.949 . S
H364 C370 0.950 . S
H365 C371 0.950 . S
H366 C372 0.949 . S
C367 H362 0.950 . S
C367 C369 1.327 . S
C367 C373 1.429 . S
C368 C360 1.574 . S
C368 H363 0.949 . S
C368 C374 1.368 . S
C369 C353 1.349 . S
C369 H361 0.950 . S
C369 C367 1.327 . S
C370 C358 1.349 . S
C370 H364 0.950 . S
C370 C371 1.327 . S
C371 H365 0.950 . S
C371 C370 1.327 . S
C371 C375 1.429 . S
C372 C355 1.574 . S
C372 H366 0.949 . S
C372 C376 1.368 . S
C373 C354 1.429 . S
C373 C367 1.429 . S
C373 C374 1.523 . S
C374 C355 1.368 . S
C374 C368 1.368 . S
C374 C373 1.523 . S
C375 C359 1.429 . S
C375 C371 1.429 . S
C375 C376 1.523 . S
C376 C360 1.368 . S
C376 C372 1.368 . S
C376 C375 1.523 . S
H377 C352 0.950 . S
H378 C354 0.950 . S
H379 C355 0.949 . S
H380 C357 0.950 . S
H381 C359 0.950 . S
C382 C383 1.349 . S
C382 C384 1.327 . S
C382 H407 0.950 . S
C383 C382 1.349 . S
C383 C399 1.349 . S
C384 C382 1.327 . S
C384 C403 1.429 . S
C384 H408 0.950 . S
C385 C402 1.574 . S
C385 C404 1.368 . S
C385 H409 0.949 . S
H386 C390 0.949 . S
C387 C388 1.349 . S
C387 C389 1.327 . S
C387 H410 0.950 . S
C388 C387 1.349 . S
C388 C400 1.349 . S
C389 C387 1.327 . S
C389 C405 1.429 . S
C389 H411 0.950 . S
C390 H386 0.949 . S
C390 C398 1.574 . S
C390 C406 1.368 . S
H391 C399 0.950 . S
H392 C397 0.950 . S
H393 C398 0.949 . S
H394 C400 0.950 . S
H395 C401 0.950 . S
H396 C402 0.949 . S
C397 H392 0.950 . S
C397 C399 1.327 . S
C397 C403 1.429 . S
C398 C390 1.574 . S
C398 H393 0.949 . S
C398 C404 1.368 . S
C399 C383 1.349 . S
C399 H391 0.950 . S
C399 C397 1.327 . S
C400 C388 1.349 . S
C400 H394 0.950 . S
C400 C401 1.327 . S
C401 H395 0.950 . S
C401 C400 1.327 . S
C401 C405 1.429 . S
C402 C385 1.574 . S
C402 H396 0.949 . S
C402 C406 1.368 . S
C403 C384 1.429 . S
C403 C397 1.429 . S
C403 C404 1.523 . S
C404 C385 1.368 . S
C404 C398 1.368 . S
C404 C403 1.523 . S
C405 C389 1.429 . S
C405 C401 1.429 . S
C405 C406 1.523 . S
C406 C390 1.368 . S
C406 C402 1.368 . S
C406 C405 1.523 . S
H407 C382 0.950 . S
H408 C384 0.950 . S
H409 C385 0.949 . S
H410 C387 0.950 . S
H411 C389 0.950 . S
C412 C413 1.349 . S
C412 C414 1.327 . S
C412 H437 0.950 . S
C413 C412 1.349 . S
C413 C429 1.349 . S
C414 C412 1.327 . S
C414 C433 1.429 . S
C414 H438 0.950 . S
C415 C432 1.574 . S
C415 C434 1.368 . S
C415 H439 0.949 . S
H416 C420 0.949 . S
C417 C418 1.349 . S
C417 C419 1.327 . S
C417 H440 0.950 . S
C418 C417 1.349 . S
C418 C430 1.349 1_565 S
C419 C417 1.327 . S
C419 C435 1.429 . S
C419 H441 0.950 . S
C420 H416 0.949 . S
C420 C428 1.574 . S
C420 C436 1.368 . S
H421 C429 0.950 . S
H422 C427 0.950 . S
H423 C428 0.949 . S
H424 C430 0.950 . S
H425 C431 0.950 1_545 S
H426 C432 0.949 . S
C427 H422 0.950 . S
C427 C429 1.327 . S
C427 C433 1.429 . S
C428 C420 1.574 . S
C428 H423 0.949 . S
C428 C434 1.368 . S
C429 C413 1.349 . S
C429 H421 0.950 . S
C429 C427 1.327 . S
C430 C418 1.349 1_545 S
C430 H424 0.950 . S
C430 C431 1.327 1_545 S
C431 H425 0.950 1_565 S
C431 C430 1.327 1_565 S
C431 C435 1.429 . S
C432 C415 1.574 . S
C432 H426 0.949 . S
C432 C436 1.368 . S
C433 C414 1.429 . S
C433 C427 1.429 . S
C433 C434 1.523 . S
C434 C415 1.368 . S
C434 C428 1.368 . S
C434 C433 1.523 . S
C435 C419 1.429 . S
C435 C431 1.429 . S
C435 C436 1.523 . S
C436 C420 1.368 . S
C436 C432 1.368 . S
C436 C435 1.523 . S
H437 C412 0.950 . S
H438 C414 0.950 . S
H439 C415 0.949 . S
H440 C417 0.950 . S
H441 C419 0.950 . S
C442 C443 1.349 . S
C442 C444 1.327 . S
C442 H467 0.950 . S
C443 C442 1.349 . S
C443 C459 1.349 . S
C444 C442 1.327 . S
C444 C463 1.429 . S
C444 H468 0.950 . S
C445 C462 1.574 . S
C445 C464 1.368 . S
C445 H469 0.949 . S
H446 C450 0.949 . S
C447 C448 1.349 . S
C447 C449 1.327 . S
C447 H470 0.950 . S
C448 C447 1.349 . S
C448 C460 1.349 . S
C449 C447 1.327 . S
C449 C465 1.429 . S
C449 H471 0.950 . S
C450 H446 0.949 . S
C450 C458 1.574 . S
C450 C466 1.368 . S
H451 C459 0.950 . S
H452 C457 0.950 . S
H453 C458 0.949 . S
H454 C460 0.950 . S
H455 C461 0.950 . S
H456 C462 0.949 . S
C457 H452 0.950 . S
C457 C459 1.327 . S
C457 C463 1.429 . S
C458 C450 1.574 . S
C458 H453 0.949 . S
C458 C464 1.368 . S
C459 C443 1.349 . S
C459 H451 0.950 . S
C459 C457 1.327 . S
C460 C448 1.349 . S
C460 H454 0.950 . S
C460 C461 1.327 . S
C461 H455 0.950 . S
C461 C460 1.327 . S
C461 C465 1.429 . S
C462 C445 1.574 . S
C462 H456 0.949 . S
C462 C466 1.368 . S
C463 C444 1.429 . S
C463 C457 1.429 . S
C463 C464 1.523 . S
C464 C445 1.368 . S
C464 C458 1.368 . S
C464 C463 1.523 . S
C465 C449 1.429 . S
C465 C461 1.429 . S
C465 C466 1.523 . S
C466 C450 1.368 . S
C466 C462 1.368 . S
C466 C465 1.523 . S
H467 C442 0.950 . S
H468 C444 0.950 . S
H469 C445 0.949 . S
H470 C447 0.950 . S
H471 C449 0.950 . S
C472 C473 1.349 . S
C472 C474 1.327 . S
C472 H497 0.950 . S
C473 C472 1.349 . S
C473 C489 1.349 . S
C474 C472 1.327 . S
C474 C493 1.429 . S
C474 H498 0.950 . S
C475 C492 1.574 . S
C475 C494 1.368 . S
C475 H499 0.949 . S
H476 C480 0.949 . S
C477 C478 1.349 . S
C477 C479 1.327 . S
C477 H500 0.950 . S
C478 C477 1.349 . S
C478 C490 1.349 . S
C479 C477 1.327 . S
C479 C495 1.429 . S
C479 H501 0.950 . S
C480 H476 0.949 . S
C480 C488 1.574 . S
C480 C496 1.368 . S
H481 C489 0.950 . S
H482 C487 0.950 . S
H483 C488 0.949 . S
H484 C490 0.950 . S
H485 C491 0.950 . S
H486 C492 0.949 . S
C487 H482 0.950 . S
C487 C489 1.327 . S
C487 C493 1.429 . S
C488 C480 1.574 . S
C488 H483 0.949 . S
C488 C494 1.368 . S
C489 C473 1.349 . S
C489 H481 0.950 . S
C489 C487 1.327 . S
C490 C478 1.349 . S
C490 H484 0.950 . S
C490 C491 1.327 . S
C491 H485 0.950 . S
C491 C490 1.327 . S
C491 C495 1.429 . S
C492 C475 1.574 . S
C492 H486 0.949 . S
C492 C496 1.368 . S
C493 C474 1.429 . S
C493 C487 1.429 . S
C493 C494 1.523 . S
C494 C475 1.368 . S
C494 C488 1.368 . S
C494 C493 1.523 . S
C495 C479 1.429 . S
C495 C491 1.429 . S
C495 C496 1.523 . S
C496 C480 1.368 . S
C496 C492 1.368 . S
C496 C495 1.523 . S
H497 C472 0.950 . S
H498 C474 0.950 . S
H499 C475 0.949 . S
H500 C477 0.950 . S
H501 C479 0.950 . S
C502 C503 1.349 . S
C502 C504 1.327 . S
C502 H527 0.950 . S
C503 C502 1.349 . S
C503 C519 1.349 . S
C504 C502 1.327 . S
C504 C523 1.429 . S
C504 H528 0.950 . S
C505 C522 1.574 . S
C505 C524 1.368 . S
C505 H529 0.949 . S
H506 C510 0.949 . S
C507 C508 1.349 . S
C507 C509 1.327 . S
C507 H530 0.950 . S
C508 C507 1.349 . S
C508 C520 1.349 . S
C509 C507 1.327 . S
C509 C525 1.429 . S
C509 H531 0.950 . S
C510 H506 0.949 . S
C510 C518 1.574 . S
C510 C526 1.368 . S
H511 C519 0.950 . S
H512 C517 0.950 . S
H513 C518 0.949 . S
H514 C520 0.950 . S
H515 C521 0.950 . S
H516 C522 0.949 . S
C517 H512 0.950 . S
C517 C519 1.327 . S
C517 C523 1.429 . S
C518 C510 1.574 . S
C518 H513 0.949 . S
C518 C524 1.368 . S
C519 C503 1.349 . S
C519 H511 0.950 . S
C519 C517 1.327 . S
C520 C508 1.349 . S
C520 H514 0.950 . S
C520 C521 1.327 . S
C521 H515 0.950 . S
C521 C520 1.327 . S
C521 C525 1.429 . S
C522 C505 1.574 . S
C522 H516 0.949 . S
C522 C526 1.368 . S
C523 C504 1.429 . S
C523 C517 1.429 . S
C523 C524 1.523 . S
C524 C505 1.368 . S
C524 C518 1.368 . S
C524 C523 1.523 . S
C525 C509 1.429 . S
C525 C521 1.429 . S
C525 C526 1.523 . S
C526 C510 1.368 . S
C526 C522 1.368 . S
C526 C525 1.523 . S
H527 C502 0.950 . S
H528 C504 0.950 . S
H529 C505 0.949 . S
H530 C507 0.950 . S
H531 C509 0.950 . S
C532 C533 1.349 . S
C532 C534 1.327 . S
C532 H557 0.950 . S
C533 C532 1.349 . S
C533 C549 1.349 . S
C534 C532 1.327 . S
C534 C553 1.429 . S
C534 H558 0.950 . S
C535 C552 1.574 . S
C535 C554 1.368 . S
C535 H559 0.949 . S
H536 C540 0.949 . S
C537 C538 1.349 . S
C537 C539 1.327 . S
C537 H560 0.950 . S
C538 C537 1.349 . S
C538 C550 1.349 . S
C539 C537 1.327 . S
C539 C555 1.429 . S
C539 H561 0.950 . S
C540 H536 0.949 . S
C540 C548 1.574 . S
C540 C556 1.368 . S
H541 C549 0.950 . S
H542 C547 0.950 . S
H543 C548 0.949 . S
H544 C550 0.950 . S
H545 C551 0.950 . S
H546 C552 0.949 . S
C547 H542 0.950 . S
C547 C549 1.327 . S
C547 C553 1.429 . S
C548 C540 1.574 . S
C548 H543 0.949 . S
C548 C554 1.368 . S
C549 C533 1.349 . S
C549 H541 0.950 . S
C549 C547 1.327 . S
C550 C538 1.349 . S
C550 H544 0.950 . S
C550 C551 1.327 . S
C551 H545 0.950 . S
C551 C550 1.327 . S
C551 C555 1.429 . S
C552 C535 1.574 . S
C552 H546 0.949 . S
C552 C556 1.368 . S
C553 C534 1.429 . S
C553 C547 1.429 . S
C553 C554 1.523 . S
C554 C535 1.368 . S
C554 C548 1.368 . S
C554 C553 1.523 . S
C555 C539 1.429 . S
C555 C551 1.429 . S
C555 C556 1.523 . S
C556 C540 1.368 . S
C556 C552 1.368 . S
C556 C555 1.523 . S
H557 C532 0.950 . S
H558 C534 0.950 . S
H559 C535 0.949 . S
H560 C537 0.950 . S
H561 C539 0.950 . S
C562 C563 1.349 . S
C562 C564 1.327 . S
C562 H587 0.950 . S
C563 C562 1.349 . S
C563 C579 1.349 1_655 S
C564 C562 1.327 . S
C564 C583 1.429 . S
C564 H588 0.950 . S
C565 C582 1.574 . S
C565 C584 1.368 . S
C565 H589 0.949 . S
H566 C570 0.949 . S
C567 C568 1.349 . S
C567 C569 1.327 . S
C567 H590 0.950 . S
C568 C567 1.349 . S
C568 C580 1.349 . S
C569 C567 1.327 . S
C569 C585 1.429 . S
C569 H591 0.950 . S
C570 H566 0.949 . S
C570 C578 1.574 . S
C570 C586 1.368 . S
H571 C579 0.950 . S
H572 C577 0.950 1_455 S
H573 C578 0.949 . S
H574 C580 0.950 . S
H575 C581 0.950 . S
H576 C582 0.949 . S
C577 H572 0.950 1_655 S
C577 C579 1.327 1_655 S
C577 C583 1.429 . S
C578 C570 1.574 . S
C578 H573 0.949 . S
C578 C584 1.368 . S
C579 C563 1.349 1_455 S
C579 H571 0.950 . S
C579 C577 1.327 1_455 S
C580 C568 1.349 . S
C580 H574 0.950 . S
C580 C581 1.327 . S
C581 H575 0.950 . S
C581 C580 1.327 . S
C581 C585 1.429 . S
C582 C565 1.574 . S
C582 H576 0.949 . S
C582 C586 1.368 . S
C583 C564 1.429 . S
C583 C577 1.429 . S
C583 C584 1.523 . S
C584 C565 1.368 . S
C584 C578 1.368 . S
C584 C583 1.523 . S
C585 C569 1.429 . S
C585 C581 1.429 . S
C585 C586 1.523 . S
C586 C570 1.368 . S
C586 C582 1.368 . S
C586 C585 1.523 . S
H587 C562 0.950 . S
H588 C564 0.950 . S
H589 C565 0.949 . S
H590 C567 0.950 . S
H591 C569 0.950 . S
C113 C68 1.797 . S
C118 C13 1.797 . S
C143 C27 1.797 . S
C148 C71 1.796 . S
C173 C29 1.797 . S
C178 C84 1.797 . S
C203 C98 1.797 . S
C208 C42 1.796 . S
C233 C0 2.269 . S
C238 C40 2.269 . S
C263 C14 2.269 . S
C268 C55 2.271 . S
C293 C97 2.269 . S
C298 C57 2.269 . S
C323 C82 2.271 . S
C328 C111 2.269 . S
C353 C70 1.329 . S
C358 C1 1.311 . S
C383 C15 1.311 . S
C388 C85 1.328 . S
C413 C41 1.311 . S
C418 C99 1.328 . S
C443 C69 1.328 . S
C448 C54 1.309 . S
C473 C56 1.311 . S
C478 C26 1.328 . S
C503 C83 1.309 . S
C508 C28 1.328 . S
C533 C96 1.311 . S
C538 C43 1.329 . S
C563 C12 1.328 . S
C568 C110 1.311 . S
