# Generated by pormake.
# Topology vmg, (6)-cn, num edge types: 1
# Building blocks:
#     Node 0, Type 0, BuildingBlock: OJICUG_clean_sbu_0, # of connection points: 6
#     Node 1, Type 0, BuildingBlock: OJICUG_clean_sbu_0, # of connection points: 6
#     Node 2, Type 0, BuildingBlock: OJICUG_clean_sbu_0, # of connection points: 6
#     Node 3, Type 0, BuildingBlock: OJICUG_clean_sbu_0, # of connection points: 6
#     Node 4, Type 0, BuildingBlock: OJICUG_clean_sbu_0, # of connection points: 6
#     Node 5, Type 0, BuildingBlock: OJICUG_clean_sbu_0, # of connection points: 6
#     Node 6, Type 0, BuildingBlock: OJICUG_clean_sbu_0, # of connection points: 6
#     Node 7, Type 0, BuildingBlock: OJICUG_clean_sbu_0, # of connection points: 6
#     Edge 8, Type (0, 0), BuildingBlock: EZIPEK_clean_linker_0, # of connection points: 2
#     Edge 9, Type (0, 0), BuildingBlock: EZIPEK_clean_linker_0, # of connection points: 2
#     Edge 10, Type (0, 0), BuildingBlock: EZIPEK_clean_linker_0, # of connection points: 2
#     Edge 11, Type (0, 0), BuildingBlock: EZIPEK_clean_linker_0, # of connection points: 2
#     Edge 12, Type (0, 0), BuildingBlock: EZIPEK_clean_linker_0, # of connection points: 2
#     Edge 13, Type (0, 0), BuildingBlock: EZIPEK_clean_linker_0, # of connection points: 2
#     Edge 14, Type (0, 0), BuildingBlock: EZIPEK_clean_linker_0, # of connection points: 2
#     Edge 15, Type (0, 0), BuildingBlock: EZIPEK_clean_linker_0, # of connection points: 2
#     Edge 16, Type (0, 0), BuildingBlock: EZIPEK_clean_linker_0, # of connection points: 2
#     Edge 17, Type (0, 0), BuildingBlock: EZIPEK_clean_linker_0, # of connection points: 2
#     Edge 18, Type (0, 0), BuildingBlock: EZIPEK_clean_linker_0, # of connection points: 2
#     Edge 19, Type (0, 0), BuildingBlock: EZIPEK_clean_linker_0, # of connection points: 2
#     Edge 20, Type (0, 0), BuildingBlock: EZIPEK_clean_linker_0, # of connection points: 2
#     Edge 21, Type (0, 0), BuildingBlock: EZIPEK_clean_linker_0, # of connection points: 2
#     Edge 22, Type (0, 0), BuildingBlock: EZIPEK_clean_linker_0, # of connection points: 2
#     Edge 23, Type (0, 0), BuildingBlock: EZIPEK_clean_linker_0, # of connection points: 2
#     Edge 24, Type (0, 0), BuildingBlock: EZIPEK_clean_linker_0, # of connection points: 2
#     Edge 25, Type (0, 0), BuildingBlock: EZIPEK_clean_linker_0, # of connection points: 2
#     Edge 26, Type (0, 0), BuildingBlock: EZIPEK_clean_linker_0, # of connection points: 2
#     Edge 27, Type (0, 0), BuildingBlock: EZIPEK_clean_linker_0, # of connection points: 2
#     Edge 28, Type (0, 0), BuildingBlock: EZIPEK_clean_linker_0, # of connection points: 2
#     Edge 29, Type (0, 0), BuildingBlock: EZIPEK_clean_linker_0, # of connection points: 2
#     Edge 30, Type (0, 0), BuildingBlock: EZIPEK_clean_linker_0, # of connection points: 2
#     Edge 31, Type (0, 0), BuildingBlock: EZIPEK_clean_linker_0, # of connection points: 2
# Relax obj value: 0.217
# Max RMSD: 0.229
# Mean RMSD: 0.229
data_MOF--net-vmg--node1-OJICUG_clean_sbu_0--edge1-EZIPEK_clean_linker_0
_symmetry_space_group_name_H-M    P1
_symmetry_Int_Tables_number       1
_symmetry_cell_setting            triclinic
loop_
_symmetry_equiv_pos_as_xyz
'x, y, z'
_cell_length_a     22.727294
_cell_length_b     33.212051
_cell_length_c     20.620591
_cell_angle_alpha  89.884714
_cell_angle_beta   106.55346
_cell_angle_gamma 90.316701
loop_
_atom_site_label
_atom_site_type_symbol
_atom_site_fract_x
_atom_site_fract_y
_atom_site_fract_z
_atom_type_partial_charge
Sc0 Sc 0.14204 0.39456 0.06953 0.0
Sc1 Sc 0.25335 0.46407 0.14312 0.0
Sc2 Sc 0.24404 0.37308 0.22647 0.0
O3 O 0.2142 0.4099 0.14697 0.0
C4 C 0.10048 0.35621 0.19227 0.0
C5 C 0.11195 0.48125 0.07496 0.0
C6 C 0.23911 0.46238 0.28895 0.0
C7 C 0.23237 0.4405 -0.00318 0.0
C8 C 0.22096 0.31693 0.09209 0.0
C9 C 0.36963 0.4121 0.22231 0.0
O10 O 0.09154 0.36299 0.12951 0.0
O11 O 0.16762 0.4919 0.08456 0.0
O12 O 0.24753 0.42413 0.29663 0.0
O13 O 0.17965 0.42648 -0.00374 0.0
O14 O 0.24204 0.32185 0.15658 0.0
O15 O 0.34489 0.44503 0.19767 0.0
O16 O 0.18609 0.34173 0.05269 0.0
O17 O 0.27261 0.44777 0.05218 0.0
O18 O 0.33896 0.38128 0.22976 0.0
O19 O 0.09747 0.44624 0.08824 0.0
O20 O 0.15269 0.36092 0.23498 0.0
O21 O 0.23535 0.48106 0.23421 0.0
Sc22 Sc 0.74632 0.35683 0.27277 0.0
Sc23 Sc 0.7617 0.45293 0.33914 0.0
Sc24 Sc 0.86059 0.37952 0.41965 0.0
O25 O 0.78767 0.39578 0.34492 0.0
C26 C 0.77402 0.30766 0.41453 0.0
C27 C 0.63432 0.40412 0.28678 0.0
C28 C 0.79096 0.44424 0.48896 0.0
C29 C 0.75074 0.43928 0.19109 0.0
C30 C 0.88603 0.33866 0.29357 0.0
C31 C 0.9074 0.46019 0.38935 0.0
O32 O 0.75601 0.30826 0.3494 0.0
O33 O 0.66502 0.43699 0.29526 0.0
O34 O 0.83739 0.42203 0.49093 0.0
O35 O 0.72982 0.40338 0.19223 0.0
O36 O 0.89484 0.33776 0.35745 0.0
O37 O 0.85477 0.47542 0.38383 0.0
O38 O 0.83318 0.34529 0.25318 0.0
O39 O 0.77761 0.45823 0.2443 0.0
O40 O 0.91393 0.42269 0.3875 0.0
O41 O 0.65866 0.36971 0.28714 0.0
O42 O 0.80803 0.33457 0.45003 0.0
O43 O 0.7478 0.44938 0.43533 0.0
Sc44 Sc 0.75558 0.63649 0.77067 0.0
Sc45 Sc 0.74859 0.53884 0.82914 0.0
Sc46 Sc 0.854 0.6048 0.92249 0.0
O47 O 0.78457 0.59422 0.84064 0.0
C48 C 0.89756 0.65275 0.80997 0.0
C49 C 0.76197 0.55451 0.68802 0.0
C50 C 0.89117 0.52309 0.89576 0.0
C51 C 0.63226 0.59412 0.76409 0.0
C52 C 0.77662 0.681 0.91643 0.0
C53 C 0.76313 0.54475 0.9746 0.0
O54 O 0.84697 0.64788 0.76471 0.0
O55 O 0.77312 0.53199 0.73953 0.0
O56 O 0.90253 0.55967 0.88982 0.0
O57 O 0.66229 0.62685 0.76973 0.0
O58 O 0.8054 0.65207 0.95142 0.0
O59 O 0.72254 0.54581 0.9185 0.0
O60 O 0.76185 0.68223 0.85124 0.0
O61 O 0.65744 0.55963 0.77441 0.0
O62 O 0.8159 0.56155 0.98331 0.0
O63 O 0.74728 0.59189 0.68829 0.0
O64 O 0.90326 0.64594 0.8724 0.0
O65 O 0.83614 0.51041 0.88513 0.0
Sc66 Sc 0.1385 0.62616 0.57411 0.0
Sc67 Sc 0.24518 0.55183 0.63274 0.0
Sc68 Sc 0.25026 0.64009 0.72682 0.0
O69 O 0.21271 0.60658 0.64512 0.0
C70 C 0.22703 0.69948 0.59604 0.0
C71 C 0.21028 0.57499 0.48717 0.0
C72 C 0.36862 0.59916 0.70521 0.0
C73 C 0.09918 0.54104 0.57921 0.0
C74 C 0.11018 0.66114 0.70539 0.0
C75 C 0.24344 0.54933 0.78403 0.0
O76 O 0.18838 0.67663 0.55601 0.0
O77 O 0.25582 0.56911 0.53815 0.0
O78 O 0.34231 0.62946 0.72184 0.0
O79 O 0.09049 0.5763 0.59612 0.0
O80 O 0.16288 0.65273 0.7439 0.0
O81 O 0.23754 0.5323 0.72751 0.0
O82 O 0.09825 0.65976 0.64139 0.0
O83 O 0.15321 0.52894 0.58256 0.0
O84 O 0.25201 0.58747 0.7933 0.0
O85 O 0.16245 0.59278 0.49301 0.0
O86 O 0.24887 0.693 0.6601 0.0
O87 O 0.33994 0.56791 0.67756 0.0
Sc88 Sc 0.63284 0.87143 0.06807 0.0
Sc89 Sc 0.73455 0.94639 0.13907 0.0
Sc90 Sc 0.73346 0.85531 0.22437 0.0
O91 O 0.70327 0.89032 0.14369 0.0
C92 C 0.593 0.83451 0.18805 0.0
C93 C 0.58942 0.95277 0.07923 0.0
C94 C 0.72575 0.94352 0.28787 0.0
C95 C 0.70646 0.93085 0.992 0.0
C96 C 0.71897 0.79992 0.08927 0.0
C97 C 0.85538 0.89685 0.21467 0.0
O98 O 0.59264 0.8305 0.12679 0.0
O99 O 0.64251 0.96797 0.08524 0.0
O100 O 0.73611 0.90557 0.29544 0.0
O101 O 0.65884 0.91053 -0.00674 0.0
O102 O 0.7325 0.80368 0.15432 0.0
O103 O 0.82841 0.92917 0.18906 0.0
O104 O 0.68686 0.82499 0.04767 0.0
O105 O 0.75095 0.93482 0.04485 0.0
O106 O 0.82719 0.86549 0.22555 0.0
O107 O 0.58274 0.91742 0.09736 0.0
O108 O 0.6414 0.84572 0.23218 0.0
O109 O 0.71965 0.96181 0.2324 0.0
Sc110 Sc 0.24357 0.8661 0.27396 0.0
Sc111 Sc 0.23435 0.96113 0.34148 0.0
Sc112 Sc 0.35321 0.89925 0.41728 0.0
O113 O 0.27521 0.90772 0.34413 0.0
C114 C 0.28014 0.82118 0.42169 0.0
C115 C 0.11943 0.90305 0.28191 0.0
C116 C 0.27144 0.95324 0.48901 0.0
C117 C 0.23384 0.9508 0.19176 0.0
C118 C 0.3863 0.85243 0.29892 0.0
C119 C 0.3765 0.98273 0.38875 0.0
O120 O 0.25688 0.82065 0.35668 0.0
O121 O 0.14278 0.93771 0.29805 0.0
O122 O 0.32362 0.94001 0.48672 0.0
O123 O 0.22804 0.91215 0.19226 0.0
O124 O 0.3981 0.86013 0.36161 0.0
O125 O 0.32188 0.99239 0.38679 0.0
O126 O 0.33276 0.85651 0.25878 0.0
O127 O 0.24316 0.97256 0.24425 0.0
O128 O 0.38754 0.9476 0.37289 0.0
O129 O 0.15085 0.8721 0.2785 0.0
O130 O 0.31422 0.84936 0.4539 0.0
O131 O 0.22442 0.94923 0.439 0.0
Sc132 Sc 0.24147 0.14502 0.77594 0.0
Sc133 Sc 0.23695 0.05117 0.85221 0.0
Sc134 Sc 0.34896 0.11979 0.92549 0.0
O135 O 0.27387 0.10636 0.8512 0.0
C136 C 0.38465 0.16065 0.80234 0.0
C137 C 0.24903 0.05798 0.70592 0.0
C138 C 0.37972 0.03625 0.91413 0.0
C139 C 0.11873 0.10293 0.78089 0.0
C140 C 0.26949 0.19646 0.91583 0.0
C141 C 0.26397 0.06672 -0.00114 0.0
O142 O 0.33035 0.15833 0.76355 0.0
O143 O 0.25278 0.03744 0.75892 0.0
O144 O 0.3908 0.0702 0.89387 0.0
O145 O 0.14808 0.13496 0.77662 0.0
O146 O 0.30636 0.17106 0.9515 0.0
O147 O 0.21994 0.0641 0.9453 0.0
O148 O 0.24583 0.19355 0.85124 0.0
O149 O 0.14468 0.06955 0.80058 0.0
O150 O 0.31488 0.08351 -0.00138 0.0
O151 O 0.23892 0.09622 0.70193 0.0
O152 O 0.39683 0.15405 0.8655 0.0
O153 O 0.32489 0.02483 0.90832 0.0
Sc154 Sc 0.62989 0.11158 0.56552 0.0
Sc155 Sc 0.73741 0.04126 0.6411 0.0
Sc156 Sc 0.73038 0.13302 0.72115 0.0
O157 O 0.70093 0.09573 0.64312 0.0
C158 C 0.71204 0.18641 0.58369 0.0
C159 C 0.70985 0.05803 0.49174 0.0
C160 C 0.85462 0.09553 0.71288 0.0
C161 C 0.59252 0.02706 0.58277 0.0
C162 C 0.58965 0.15125 0.68507 0.0
C163 C 0.73105 0.04523 0.78997 0.0
O164 O 0.6816 0.15984 0.54362 0.0
O165 O 0.75253 0.05395 0.54618 0.0
O166 O 0.82427 0.12593 0.72196 0.0
O167 O 0.58092 0.06339 0.59227 0.0
O168 O 0.6385 0.14127 0.72955 0.0
O169 O 0.72503 0.02584 0.73567 0.0
O170 O 0.58734 0.15189 0.62278 0.0
O171 O 0.6474 0.01503 0.59064 0.0
O172 O 0.73769 0.08364 0.79493 0.0
O173 O 0.65856 0.07294 0.49318 0.0
O174 O 0.7257 0.18381 0.64879 0.0
O175 O 0.83005 0.06209 0.68932 0.0
C176 C 0.53034 0.40052 0.20283 0.0
C177 C 0.56661 0.40611 0.27073 0.0
C178 C 0.47348 0.4122 0.30791 0.0
C179 C 0.43737 0.40907 0.23946 0.0
N180 N 0.42976 0.40329 0.1209 0.0
N181 N 0.57491 0.42028 0.38754 0.0
C182 C 0.46541 0.40403 0.18668 0.0
C183 C 0.53876 0.41284 0.32324 0.0
N184 N 0.55811 0.39133 0.15394 0.0
N185 N 0.44515 0.41392 0.35815 0.0
H186 H 0.62273 0.41922 0.40095 0.0
H187 H 0.55821 0.42963 0.42702 0.0
H188 H 0.39755 0.41461 0.3485 0.0
H189 H 0.46814 0.41222 0.40949 0.0
H190 H 0.53461 0.38208 0.10525 0.0
H191 H 0.60561 0.39074 0.16287 0.0
H192 H 0.44701 0.40433 0.07931 0.0
H193 H 0.38197 0.40381 0.10737 0.0
C194 C 0.52814 0.59663 0.68031 0.0
C195 C 0.56494 0.59639 0.7486 0.0
C196 C 0.47325 0.59799 0.78838 0.0
C197 C 0.43626 0.59963 0.72013 0.0
N198 N 0.42702 0.6055 0.60107 0.0
N199 N 0.57495 0.6022 0.86777 0.0
C200 C 0.46331 0.60019 0.66595 0.0
C201 C 0.53816 0.59867 0.8027 0.0
N202 N 0.55535 0.59289 0.62941 0.0
N203 N 0.44618 0.59395 0.83935 0.0
H204 H 0.62274 0.60112 0.88055 0.0
H205 H 0.55868 0.60895 0.90881 0.0
H206 H 0.39883 0.59434 0.83085 0.0
H207 H 0.47 0.58754 0.88933 0.0
H208 H 0.53135 0.58801 0.57897 0.0
H209 H 0.60286 0.59269 0.6381 0.0
H210 H 0.44385 0.61038 0.55978 0.0
H211 H 0.37937 0.60775 0.58867 0.0
C212 C 0.02382 0.89141 0.31618 0.0
C213 C 0.05211 0.8989 0.26435 0.0
C214 C 0.95176 0.89898 0.17912 0.0
C215 C 0.92311 0.89562 0.23172 0.0
N216 N 0.93041 0.89125 0.35059 0.0
N217 N 0.04486 0.9127 0.14751 0.0
C218 C 0.95875 0.89217 0.30036 0.0
C219 C 0.01659 0.90339 0.19601 0.0
N220 N 0.05933 0.88294 0.38029 0.0
N221 N 0.91708 0.8963 0.11305 0.0
H222 H 0.09245 0.91423 0.1574 0.0
H223 H 0.02136 0.92131 0.09844 0.0
H224 H 0.86952 0.89253 0.09882 0.0
H225 H 0.93555 0.8943 0.07244 0.0
H226 H 0.04186 0.87272 0.41886 0.0
H227 H 0.10717 0.88343 0.39392 0.0
H228 H 0.9535 0.89391 0.40181 0.0
H229 H 0.88292 0.89021 0.34096 0.0
C230 C 0.02226 0.10052 0.81623 0.0
C231 C 0.05105 0.10439 0.76377 0.0
C232 C 0.9509 0.10278 0.67798 0.0
C233 C 0.9221 0.09937 0.73045 0.0
N234 N 0.92773 0.10017 0.84902 0.0
N235 N 0.0444 0.11519 0.64622 0.0
C236 C 0.95706 0.09986 0.79953 0.0
C237 C 0.01578 0.10742 0.69501 0.0
N238 N 0.05752 0.09702 0.88196 0.0
N239 N 0.91608 0.10101 0.61187 0.0
H240 H 0.0919 0.11762 0.65655 0.0
H241 H 0.02144 0.12191 0.59615 0.0
H242 H 0.86824 0.10011 0.59749 0.0
H243 H 0.93412 0.09849 0.57103 0.0
H244 H 0.04042 0.08914 0.92198 0.0
H245 H 0.10512 0.10051 0.89663 0.0
H246 H 0.94971 0.10485 0.90005 0.0
H247 H 0.88018 0.09799 0.83888 0.0
C248 C 0.28488 0.29132 0.02137 0.0
C249 C 0.241 0.28311 0.05698 0.0
C250 C 0.20751 0.22233 0.98857 0.0
C251 C 0.25297 0.22974 0.95479 0.0
N252 N 0.33981 0.26794 0.94347 0.0
N253 N 0.16599 0.23922 0.08175 0.0
C254 C 0.29298 0.26339 0.9724 0.0
C255 C 0.20404 0.24795 0.04279 0.0
N256 N 0.31734 0.32667 0.03307 0.0
N257 N 0.16732 0.19093 0.96789 0.0
H258 H 0.16329 0.25755 0.12186 0.0
H259 H 0.14077 0.21268 0.07821 0.0
H260 H 0.16861 0.17196 0.92802 0.0
H261 H 0.13009 0.18515 0.98643 0.0
H262 H 0.34409 0.33728 0.0032 0.0
H263 H 0.31536 0.34647 0.07159 0.0
H264 H 0.37526 0.28882 0.95972 0.0
H265 H 0.34482 0.24934 0.90466 0.0
C266 C 0.70127 0.27965 0.4744 0.0
C267 C 0.75507 0.27486 0.45322 0.0
C268 C 0.78778 0.21885 0.53326 0.0
C269 C 0.73162 0.22142 0.55015 0.0
N270 N 0.63234 0.25151 0.53379 0.0
N271 N 0.84679 0.23816 0.45642 0.0
C272 C 0.68773 0.25121 0.52002 0.0
C273 C 0.79763 0.24393 0.4811 0.0
N274 N 0.66413 0.31213 0.45241 0.0
N275 N 0.83169 0.19248 0.56767 0.0
H276 H 0.85481 0.25594 0.41797 0.0
H277 H 0.8769 0.21406 0.46981 0.0
H278 H 0.82555 0.17396 0.60618 0.0
H279 H 0.8758 0.19111 0.56236 0.0
H280 H 0.62844 0.32021 0.47204 0.0
H281 H 0.67108 0.33254 0.41674 0.0
H282 H 0.59524 0.26889 0.50734 0.0
H283 H 0.62254 0.23279 0.57013 0.0
C284 C 0.69458 0.73616 0.02479 0.0
C285 C 0.73952 0.76501 0.05711 0.0
C286 C 0.80799 0.74058 0.99279 0.0
C287 C 0.76075 0.71419 0.95619 0.0
N288 N 0.65702 0.68946 0.93136 0.0
N289 N 0.83694 0.79753 0.06931 0.0
C290 C 0.70335 0.71278 0.97052 0.0
C291 C 0.79598 0.76776 0.04081 0.0
N292 N 0.64374 0.7311 0.04691 0.0
N293 N 0.86466 0.73913 0.98218 0.0
H294 H 0.83091 0.8164 0.1073 0.0
H295 H 0.87538 0.80472 0.05361 0.0
H296 H 0.87383 0.72158 0.94429 0.0
H297 H 0.90323 0.75383 0.0126 0.0
H298 H 0.61122 0.70845 0.02986 0.0
H299 H 0.63699 0.74762 0.0872 0.0
H300 H 0.61227 0.68949 0.93493 0.0
H301 H 0.66212 0.67237 0.89095 0.0
C302 C 0.21519 0.7701 0.55223 0.0
C303 C 0.24881 0.73373 0.56277 0.0
C304 C 0.29669 0.75227 0.47375 0.0
C305 C 0.26455 0.78928 0.46465 0.0
N306 N 0.2001 0.83652 0.50125 0.0
N307 N 0.3284 0.69241 0.54289 0.0
C308 C 0.2259 0.79911 0.50586 0.0
C309 C 0.29183 0.72561 0.52631 0.0
N310 N 0.17126 0.77609 0.58474 0.0
N311 N 0.3313 0.74257 0.43163 0.0
H312 H 0.32612 0.6729 0.58185 0.0
H313 H 0.3642 0.68588 0.52255 0.0
H314 H 0.33639 0.76175 0.39346 0.0
H315 H 0.35152 0.7146 0.43104 0.0
H316 H 0.13947 0.79936 0.57316 0.0
H317 H 0.16475 0.75641 0.62165 0.0
H318 H 0.17777 0.84741 0.53518 0.0
H319 H 0.2038 0.85779 0.46533 0.0
C320 C -0.00215 0.50326 0.91445 0.0
C321 C 0.94458 0.50082 0.9367 0.0
C322 C 0.0072 0.50377 0.05417 0.0
C323 C 0.0606 0.50439 0.03235 0.0
N324 N 0.10715 0.51708 0.94316 0.0
N325 N 0.90028 0.48514 0.02621 0.0
C326 C 0.05618 0.50774 0.96268 0.0
C327 C 0.94975 0.49719 0.00635 0.0
N328 N 0.99166 0.50081 0.84676 0.0
N329 N 0.0125 0.50851 0.12132 0.0
H330 H 0.86056 0.47535 0.9908 0.0
H331 H 0.90153 0.47944 0.07628 0.0
H332 H 0.05516 0.51323 0.1567 0.0
H333 H 0.97496 0.51151 0.14042 0.0
H334 H 0.02843 0.49923 0.82627 0.0
H335 H 0.94871 0.49676 0.81159 0.0
H336 H 0.10592 0.52386 0.89354 0.0
H337 H 0.1496 0.5229 0.97782 0.0
C338 C 0.99272 0.54056 0.49759 0.0
C339 C 0.04561 0.51884 0.53537 0.0
C340 C 0.01802 0.4635 0.45491 0.0
C341 C 0.96365 0.48414 0.42042 0.0
N342 N 0.91671 0.5483 0.38898 0.0
N343 N 0.09528 0.45454 0.56163 0.0
C344 C 0.95687 0.5248 0.43526 0.0
C345 C 0.05457 0.47878 0.51721 0.0
N346 N 0.97257 0.57372 0.52394 0.0
N347 N 0.03626 0.43056 0.4263 0.0
H348 H 0.11827 0.46389 0.61067 0.0
H349 H 0.09993 0.42396 0.55307 0.0
H350 H 0.01391 0.4216 0.37687 0.0
H351 H 0.07803 0.41618 0.4472 0.0
H352 H 0.9325 0.58895 0.49914 0.0
H353 H 0.98842 0.58148 0.57489 0.0
H354 H 0.91345 0.57933 0.39443 0.0
H355 H 0.89265 0.53721 0.34138 0.0
C356 C 0.4915 0.95268 0.98422 0.0
C357 C 0.5343 0.97338 0.03864 0.0
C358 C 0.47444 0.03463 0.01281 0.0
C359 C 0.43156 0.01414 0.95824 0.0
N360 N 0.40284 0.95621 0.88574 0.0
N361 N 0.55899 0.02988 0.11469 0.0
C362 C 0.44019 0.97353 0.94323 0.0
C363 C 0.52411 0.01332 0.05521 0.0
N364 N 0.50064 0.91335 0.97009 0.0
N365 N 0.46796 0.07459 0.02486 0.0
H366 H 0.59553 0.01507 0.14819 0.0
H367 H 0.54848 0.0568 0.13456 0.0
H368 H 0.42756 0.0904 0.00582 0.0
H369 H 0.5036 0.09251 0.05365 0.0
H370 H 0.46601 0.89446 0.94215 0.0
H371 H 0.54272 0.89893 0.98638 0.0
H372 H 0.41104 0.92856 0.86648 0.0
H373 H 0.36519 0.97061 0.85333 0.0
C374 C 0.4287 0.01571 0.49908 0.0
C375 C 0.43049 0.00365 0.43378 0.0
C376 C 0.54082 0.99097 0.4769 0.0
C377 C 0.53926 0.00406 0.54155 0.0
N378 N 0.48085 0.01597 0.61957 0.0
N379 N 0.48934 0.99047 0.35654 0.0
C380 C 0.4824 0.01187 0.55421 0.0
C381 C 0.48743 0.99513 0.42165 0.0
N382 N 0.37735 0.03344 0.50744 0.0
N383 N 0.59192 0.97246 0.46922 0.0
H384 H 0.45074 0.99508 0.31531 0.0
H385 H 0.52945 0.98531 0.3435 0.0
H386 H 0.62887 0.96467 0.51024 0.0
H387 H 0.59433 0.95956 0.4241 0.0
H388 H 0.37347 0.04357 0.55373 0.0
H389 H 0.34152 0.04297 0.46658 0.0
H390 H 0.4404 0.01794 0.63349 0.0
H391 H 0.5205 0.01312 0.66016 0.0
C392 C 0.00806 0.3842 0.21979 0.0
C393 C 0.04556 0.35045 0.21784 0.0
C394 C 0.98085 0.30863 0.2698 0.0
C395 C 0.94064 0.34174 0.26657 0.0
N396 N 0.913 0.41051 0.23207 0.0
N397 N 0.06555 0.27965 0.23501 0.0
C398 C 0.95324 0.3792 0.23923 0.0
C399 C 0.03148 0.31238 0.24148 0.0
N400 N 0.02681 0.42183 0.20695 0.0
N401 N 0.97071 0.27372 0.30021 0.0
H402 H 0.10301 0.28171 0.21537 0.0
H403 H 0.05468 0.25022 0.2448 0.0
H404 H 0.93268 0.26947 0.31832 0.0
H405 H 0.00132 0.24979 0.31084 0.0
H406 H 0.00638 0.44822 0.21674 0.0
H407 H 0.06691 0.42716 0.19339 0.0
H408 H 0.91426 0.43585 0.20263 0.0
H409 H 0.87614 0.41065 0.2525 0.0
C410 C 0.03101 0.69656 0.75115 0.0
C411 C 0.05749 0.66056 0.73533 0.0
C412 C 0.97803 0.6207 0.76606 0.0
C413 C 0.95398 0.65624 0.78678 0.0
N414 N 0.96061 0.72771 0.80596 0.0
N415 N 0.06378 0.58806 0.74143 0.0
C416 C 0.98153 0.69418 0.78151 0.0
C417 C 0.03328 0.62262 0.74708 0.0
N418 N 0.05257 0.73282 0.73613 0.0
N419 N 0.94677 0.58504 0.76171 0.0
H420 H 0.10373 0.58764 0.72629 0.0
H421 H 0.0526 0.56013 0.7578 0.0
H422 H 0.90581 0.58187 0.7744 0.0
H423 H 0.95782 0.55944 0.73863 0.0
H424 H 0.032 0.76025 0.7402 0.0
H425 H 0.08948 0.7352 0.71563 0.0
H426 H 0.98171 0.75583 0.80941 0.0
H427 H 0.92397 0.72673 0.82705 0.0
C428 C 0.47949 0.81196 0.29123 0.0
C429 C 0.43829 0.8446 0.2695 0.0
C430 C 0.48656 0.85933 0.18008 0.0
C431 C 0.53437 0.83155 0.20806 0.0
N432 N 0.57724 0.78158 0.293 0.0
N433 N 0.41864 0.90728 0.20789 0.0
C434 C 0.53114 0.80791 0.26472 0.0
C435 C 0.44628 0.8705 0.21804 0.0
N436 N 0.46855 0.78439 0.33568 0.0
N437 N 0.47787 0.87465 0.11667 0.0
H438 H 0.39064 0.9178 0.23637 0.0
H439 H 0.42996 0.92902 0.17681 0.0
H440 H 0.50087 0.86391 0.08339 0.0
H441 H 0.44135 0.8936 0.09386 0.0
H442 H 0.49342 0.75789 0.34869 0.0
H443 H 0.43128 0.78654 0.35551 0.0
H444 H 0.58152 0.76692 0.3388 0.0
H445 H 0.61268 0.77562 0.27152 0.0
C446 C 0.53614 0.18703 0.76174 0.0
C447 C 0.53325 0.15995 0.70718 0.0
C448 C 0.43579 0.1333 0.71851 0.0
C449 C 0.43612 0.16181 0.76995 0.0
N450 N 0.48199 0.22038 0.83307 0.0
N451 N 0.46821 0.11684 0.6206 0.0
C452 C 0.48514 0.19003 0.78959 0.0
C453 C 0.47914 0.1365 0.68103 0.0
N454 N 0.58748 0.21018 0.78656 0.0
N455 N 0.39697 0.10086 0.70854 0.0
H456 H 0.49752 0.11708 0.59021 0.0
H457 H 0.42568 0.10405 0.59644 0.0
H458 H 0.36818 0.09489 0.73863 0.0
H459 H 0.39899 0.07716 0.67626 0.0
H460 H 0.59622 0.22662 0.83126 0.0
H461 H 0.6225 0.21199 0.76314 0.0
H462 H 0.51304 0.24427 0.84474 0.0
H463 H 0.44519 0.22339 0.85348 0.0
C464 C 0.2948 0.48322 0.93975 0.0
C465 C 0.24196 0.45914 0.9341 0.0
C466 C 0.19104 0.49257 0.82696 0.0
C467 C 0.23977 0.52165 0.83981 0.0
N468 N 0.33523 0.54669 0.915 0.0
N469 N 0.15478 0.42787 0.8564 0.0
C470 C 0.29078 0.51765 0.89815 0.0
C471 C 0.19406 0.45996 0.87286 0.0
N472 N 0.35021 0.47103 0.98075 0.0
N473 N 0.14071 0.49709 0.77221 0.0
H474 H 0.16168 0.40156 0.88527 0.0
H475 H 0.12092 0.42473 0.81056 0.0
H476 H 0.13592 0.52069 0.73788 0.0
H477 H 0.10127 0.47945 0.76314 0.0
H478 H 0.39152 0.48552 0.98296 0.0
H479 H 0.35554 0.44287 0.00409 0.0
H480 H 0.37011 0.54654 0.96055 0.0
H481 H 0.33371 0.57314 0.88775 0.0
C482 C 0.73196 0.46955 0.56486 0.0
C483 C 0.78787 0.46962 0.54701 0.0
C484 C 0.81754 0.5338 0.6068 0.0
C485 C 0.76267 0.5332 0.62568 0.0
N486 N 0.66328 0.50491 0.61652 0.0
N487 N 0.8899 0.49724 0.56364 0.0
C488 C 0.71843 0.50229 0.60251 0.0
C489 C 0.83245 0.50044 0.57144 0.0
N490 N 0.69349 0.43696 0.54818 0.0
N491 N 0.85441 0.56712 0.62109 0.0
H492 H 0.90335 0.47417 0.53714 0.0
H493 H 0.92656 0.51513 0.59019 0.0
H494 H 0.8431 0.59229 0.6452 0.0
H495 H 0.89262 0.5715 0.60369 0.0
H496 H 0.6533 0.43326 0.56212 0.0
H497 H 0.70438 0.41161 0.52413 0.0
H498 H 0.62658 0.48525 0.59814 0.0
H499 H 0.65268 0.52901 0.64345 0.0
C500 C 0.75457 0.44797 0.07019 0.0
C501 C 0.74023 0.46307 0.12785 0.0
C502 C 0.73892 0.53202 0.08407 0.0
C503 C 0.75196 0.51677 0.02591 0.0
N504 N 0.74616 0.45877 0.9524 0.0
N505 N 0.69482 0.51715 0.1752 0.0
C506 C 0.75077 0.4743 0.01495 0.0
C507 C 0.72475 0.50449 0.13015 0.0
N508 N 0.77576 0.40964 0.06919 0.0
N509 N 0.73965 0.57257 0.0953 0.0
H510 H 0.6802 0.49717 0.20663 0.0
H511 H 0.67826 0.54631 0.1756 0.0
H512 H 0.74738 0.59369 0.06104 0.0
H513 H 0.73662 0.58495 0.14063 0.0
H514 H 0.79335 0.39922 0.03085 0.0
H515 H 0.78107 0.38945 0.1091 0.0
H516 H 0.73934 0.42814 0.94166 0.0
H517 H 0.74397 0.47637 0.91005 0.0
C518 C 0.28063 0.51618 0.37346 0.0
C519 C 0.23294 0.48825 0.34498 0.0
C520 C 0.16184 0.52677 0.39092 0.0
C521 C 0.21114 0.5529 0.42427 0.0
N522 N 0.31038 0.58043 0.42985 0.0
N523 N 0.13052 0.46381 0.33023 0.0
C524 C 0.26856 0.54984 0.41016 0.0
C525 C 0.17419 0.49269 0.3549 0.0
N526 N 0.338 0.50956 0.36687 0.0
N527 N 0.10299 0.53553 0.39038 0.0
H528 H 0.13934 0.43794 0.30607 0.0
H529 H 0.08726 0.46353 0.33767 0.0
H530 H 0.09051 0.56207 0.40932 0.0
H531 H 0.06461 0.51943 0.36307 0.0
H532 H 0.37662 0.52645 0.39124 0.0
H533 H 0.3481 0.48476 0.341 0.0
H534 H 0.3516 0.5822 0.41746 0.0
H535 H 0.30078 0.60639 0.45341 0.0
C536 C 0.65918 0.98432 0.90304 0.0
C537 C 0.70779 0.95682 0.9326 0.0
C538 C 0.77522 0.99449 0.87916 0.0
C539 C 0.72609 0.02048 0.84784 0.0
N540 N 0.61882 0.0368 0.82059 0.0
N541 N 0.80669 0.93037 0.93442 0.0
C542 C 0.66754 0.01463 0.8576 0.0
C543 C 0.76434 0.96048 0.91641 0.0
N544 N 0.60515 0.98253 0.91916 0.0
N545 N 0.83258 0.00264 0.87352 0.0
H546 H 0.79864 0.90413 0.9586 0.0
H547 H 0.84662 0.92926 0.91932 0.0
H548 H 0.84165 0.0273 0.84634 0.0
H549 H 0.87184 0.98735 0.90044 0.0
H550 H 0.5737 0.00604 0.91063 0.0
H551 H 0.59133 0.95752 0.9408 0.0
H552 H 0.57326 0.03012 0.81744 0.0
H553 H 0.6235 0.0607 0.78948 0.0
C554 C 0.30425 0.00405 0.66125 0.0
C555 C 0.25895 0.03496 0.64795 0.0
C556 C 0.2324 0.01742 0.52814 0.0
C557 C 0.26796 0.9815 0.54389 0.0
N558 N 0.32907 0.93753 0.63037 0.0
N559 N 0.17021 0.06445 0.56799 0.0
C560 C 0.30167 0.97394 0.61186 0.0
C561 C 0.22028 0.03995 0.58118 0.0
N562 N 0.35079 0.00378 0.7203 0.0
N563 N 0.2128 0.03162 0.46334 0.0
H564 H 0.15723 0.08006 0.60533 0.0
H565 H 0.1378 0.06565 0.52064 0.0
H566 H 0.22533 0.0189 0.42319 0.0
H567 H 0.19121 0.05939 0.45139 0.0
H568 H 0.38767 0.98398 0.72907 0.0
H569 H 0.35654 0.02612 0.75701 0.0
H570 H 0.34944 0.92963 0.68071 0.0
H571 H 0.32535 0.91365 0.5967 0.0
C572 C 0.19063 0.00802 0.11464 0.0
C573 C 0.22995 0.97393 0.12893 0.0
C574 C 0.29945 0.00691 0.07486 0.0
C575 C 0.25886 0.04014 0.05575 0.0
N576 N 0.16311 0.07138 0.05461 0.0
N577 N 0.30775 0.93566 0.09952 0.0
C578 C 0.20331 0.04023 0.07461 0.0
C579 C 0.27947 0.97157 0.101 0.0
N580 N 0.14203 0.00976 0.14117 0.0
N581 N 0.35861 0.00968 0.0726 0.0
H582 H 0.2934 0.90912 0.11756 0.0
H583 H 0.34017 0.9317 0.07308 0.0
H584 H 0.37813 0.03697 0.06528 0.0
H585 H 0.39062 0.98682 0.08939 0.0
H586 H 0.11558 0.03535 0.14019 0.0
H587 H 0.12935 0.98535 0.16631 0.0
H588 H 0.1186 0.0712 0.05897 0.0
H589 H 0.17408 0.09731 0.0317 0.0
C590 C 0.7719 0.01524 0.43481 0.0
C591 C 0.71605 0.03553 0.43039 0.0
C592 C 0.66514 0.99383 0.33145 0.0
C593 C 0.71875 0.9695 0.34397 0.0
N594 N 0.82086 0.95437 0.41345 0.0
N595 N 0.61742 0.05495 0.35734 0.0
C596 C 0.77125 0.97927 0.39772 0.0
C597 C 0.66459 0.02801 0.37347 0.0
N598 N 0.82638 0.03254 0.46962 0.0
N599 N 0.6152 0.98401 0.27861 0.0
H600 H 0.62169 0.08371 0.37835 0.0
H601 H 0.57684 0.05122 0.31884 0.0
H602 H 0.61245 0.95723 0.25143 0.0
H603 H 0.57582 0.00126 0.26184 0.0
H604 H 0.86902 0.02088 0.47033 0.0
H605 H 0.82865 0.0617 0.48897 0.0
H606 H 0.8582 0.95829 0.45616 0.0
H607 H 0.8217 0.92747 0.38807 0.0
loop_
_geom_bond_atom_site_label_1
_geom_bond_atom_site_label_2
_geom_bond_distance
_geom_bond_site_symmetry_2
_ccdc_geom_bond_type
Sc0 O3 2.025 . S
Sc0 O10 2.105 . S
Sc0 O13 2.105 1_554 S
Sc0 O16 2.105 . S
Sc0 O19 2.105 . S
Sc1 O3 2.025 . S
Sc1 O11 2.105 . S
Sc1 O15 2.105 . S
Sc1 O17 2.105 . S
Sc1 O21 2.105 . S
Sc2 O3 2.025 . S
Sc2 O12 2.105 . S
Sc2 O14 2.105 . S
Sc2 O18 2.105 . S
Sc2 O20 2.105 . S
O3 Sc0 2.025 . S
O3 Sc1 2.025 . S
O3 Sc2 2.025 . S
C4 O10 1.268 . S
C4 O20 1.268 . S
C5 O11 1.268 . S
C5 O19 1.268 . S
C6 O12 1.268 . S
C6 O21 1.268 . S
C7 O13 1.268 . S
C7 O17 1.268 1_556 S
C8 O14 1.268 . S
C8 O16 1.268 . S
C9 O15 1.268 . S
C9 O18 1.268 . S
O10 Sc0 2.105 . S
O10 C4 1.268 . S
O11 Sc1 2.105 . S
O11 C5 1.268 . S
O12 Sc2 2.105 . S
O12 C6 1.268 . S
O13 Sc0 2.105 1_556 S
O13 C7 1.268 . S
O14 Sc2 2.105 . S
O14 C8 1.268 . S
O15 Sc1 2.105 . S
O15 C9 1.268 . S
O16 Sc0 2.105 . S
O16 C8 1.268 . S
O17 Sc1 2.105 . S
O17 C7 1.268 1_554 S
O18 Sc2 2.105 . S
O18 C9 1.268 . S
O19 Sc0 2.105 . S
O19 C5 1.268 . S
O20 Sc2 2.105 . S
O20 C4 1.268 . S
O21 Sc1 2.105 . S
O21 C6 1.268 . S
Sc22 O25 2.025 . S
Sc22 O32 2.105 . S
Sc22 O35 2.105 . S
Sc22 O38 2.105 . S
Sc22 O41 2.105 . S
Sc23 O25 2.025 . S
Sc23 O33 2.105 . S
Sc23 O37 2.105 . S
Sc23 O39 2.105 . S
Sc23 O43 2.105 . S
Sc24 O25 2.025 . S
Sc24 O34 2.105 . S
Sc24 O36 2.105 . S
Sc24 O40 2.105 . S
Sc24 O42 2.105 . S
O25 Sc22 2.025 . S
O25 Sc23 2.025 . S
O25 Sc24 2.025 . S
C26 O32 1.268 . S
C26 O42 1.268 . S
C27 O33 1.268 . S
C27 O41 1.268 . S
C28 O34 1.268 . S
C28 O43 1.268 . S
C29 O35 1.268 . S
C29 O39 1.268 . S
C30 O36 1.268 . S
C30 O38 1.268 . S
C31 O37 1.268 . S
C31 O40 1.268 . S
O32 Sc22 2.105 . S
O32 C26 1.268 . S
O33 Sc23 2.105 . S
O33 C27 1.268 . S
O34 Sc24 2.105 . S
O34 C28 1.268 . S
O35 Sc22 2.105 . S
O35 C29 1.268 . S
O36 Sc24 2.105 . S
O36 C30 1.268 . S
O37 Sc23 2.105 . S
O37 C31 1.268 . S
O38 Sc22 2.105 . S
O38 C30 1.268 . S
O39 Sc23 2.105 . S
O39 C29 1.268 . S
O40 Sc24 2.105 . S
O40 C31 1.268 . S
O41 Sc22 2.105 . S
O41 C27 1.268 . S
O42 Sc24 2.105 . S
O42 C26 1.268 . S
O43 Sc23 2.105 . S
O43 C28 1.268 . S
Sc44 O47 2.025 . S
Sc44 O54 2.105 . S
Sc44 O57 2.105 . S
Sc44 O60 2.105 . S
Sc44 O63 2.105 . S
Sc45 O47 2.025 . S
Sc45 O55 2.105 . S
Sc45 O59 2.105 . S
Sc45 O61 2.105 . S
Sc45 O65 2.105 . S
Sc46 O47 2.025 . S
Sc46 O56 2.105 . S
Sc46 O58 2.105 . S
Sc46 O62 2.105 1_556 S
Sc46 O64 2.105 . S
O47 Sc44 2.025 . S
O47 Sc45 2.025 . S
O47 Sc46 2.025 . S
C48 O54 1.268 . S
C48 O64 1.268 . S
C49 O55 1.268 . S
C49 O63 1.268 . S
C50 O56 1.268 . S
C50 O65 1.268 . S
C51 O57 1.268 . S
C51 O61 1.268 . S
C52 O58 1.268 . S
C52 O60 1.268 . S
C53 O59 1.268 1_554 S
C53 O62 1.268 . S
O54 Sc44 2.105 . S
O54 C48 1.268 . S
O55 Sc45 2.105 . S
O55 C49 1.268 . S
O56 Sc46 2.105 . S
O56 C50 1.268 . S
O57 Sc44 2.105 . S
O57 C51 1.268 . S
O58 Sc46 2.105 . S
O58 C52 1.268 . S
O59 Sc45 2.105 . S
O59 C53 1.268 1_556 S
O60 Sc44 2.105 . S
O60 C52 1.268 . S
O61 Sc45 2.105 . S
O61 C51 1.268 . S
O62 Sc46 2.105 1_554 S
O62 C53 1.268 . S
O63 Sc44 2.105 . S
O63 C49 1.268 . S
O64 Sc46 2.105 . S
O64 C48 1.268 . S
O65 Sc45 2.105 . S
O65 C50 1.268 . S
Sc66 O69 2.025 . S
Sc66 O76 2.105 . S
Sc66 O79 2.105 . S
Sc66 O82 2.105 . S
Sc66 O85 2.105 . S
Sc67 O69 2.025 . S
Sc67 O77 2.105 . S
Sc67 O81 2.105 . S
Sc67 O83 2.105 . S
Sc67 O87 2.105 . S
Sc68 O69 2.025 . S
Sc68 O78 2.105 . S
Sc68 O80 2.105 . S
Sc68 O84 2.105 . S
Sc68 O86 2.105 . S
O69 Sc66 2.025 . S
O69 Sc67 2.025 . S
O69 Sc68 2.025 . S
C70 O76 1.268 . S
C70 O86 1.268 . S
C71 O77 1.268 . S
C71 O85 1.268 . S
C72 O78 1.268 . S
C72 O87 1.268 . S
C73 O79 1.268 . S
C73 O83 1.268 . S
C74 O80 1.268 . S
C74 O82 1.268 . S
C75 O81 1.268 . S
C75 O84 1.268 . S
O76 Sc66 2.105 . S
O76 C70 1.268 . S
O77 Sc67 2.105 . S
O77 C71 1.268 . S
O78 Sc68 2.105 . S
O78 C72 1.268 . S
O79 Sc66 2.105 . S
O79 C73 1.268 . S
O80 Sc68 2.105 . S
O80 C74 1.268 . S
O81 Sc67 2.105 . S
O81 C75 1.268 . S
O82 Sc66 2.105 . S
O82 C74 1.268 . S
O83 Sc67 2.105 . S
O83 C73 1.268 . S
O84 Sc68 2.105 . S
O84 C75 1.268 . S
O85 Sc66 2.105 . S
O85 C71 1.268 . S
O86 Sc68 2.105 . S
O86 C70 1.268 . S
O87 Sc67 2.105 . S
O87 C72 1.268 . S
Sc88 O91 2.025 . S
Sc88 O98 2.105 . S
Sc88 O101 2.105 1_554 S
Sc88 O104 2.105 . S
Sc88 O107 2.105 . S
Sc89 O91 2.025 . S
Sc89 O99 2.105 . S
Sc89 O103 2.105 . S
Sc89 O105 2.105 . S
Sc89 O109 2.105 . S
Sc90 O91 2.025 . S
Sc90 O100 2.105 . S
Sc90 O102 2.105 . S
Sc90 O106 2.105 . S
Sc90 O108 2.105 . S
O91 Sc88 2.025 . S
O91 Sc89 2.025 . S
O91 Sc90 2.025 . S
C92 O98 1.268 . S
C92 O108 1.268 . S
C93 O99 1.268 . S
C93 O107 1.268 . S
C94 O100 1.268 . S
C94 O109 1.268 . S
C95 O101 1.268 . S
C95 O105 1.268 1_556 S
C96 O102 1.268 . S
C96 O104 1.268 . S
C97 O103 1.268 . S
C97 O106 1.268 . S
O98 Sc88 2.105 . S
O98 C92 1.268 . S
O99 Sc89 2.105 . S
O99 C93 1.268 . S
O100 Sc90 2.105 . S
O100 C94 1.268 . S
O101 Sc88 2.105 1_556 S
O101 C95 1.268 . S
O102 Sc90 2.105 . S
O102 C96 1.268 . S
O103 Sc89 2.105 . S
O103 C97 1.268 . S
O104 Sc88 2.105 . S
O104 C96 1.268 . S
O105 Sc89 2.105 . S
O105 C95 1.268 1_554 S
O106 Sc90 2.105 . S
O106 C97 1.268 . S
O107 Sc88 2.105 . S
O107 C93 1.268 . S
O108 Sc90 2.105 . S
O108 C92 1.268 . S
O109 Sc89 2.105 . S
O109 C94 1.268 . S
Sc110 O113 2.025 . S
Sc110 O120 2.105 . S
Sc110 O123 2.105 . S
Sc110 O126 2.105 . S
Sc110 O129 2.105 . S
Sc111 O113 2.025 . S
Sc111 O121 2.105 . S
Sc111 O125 2.105 . S
Sc111 O127 2.105 . S
Sc111 O131 2.105 . S
Sc112 O113 2.025 . S
Sc112 O122 2.105 . S
Sc112 O124 2.105 . S
Sc112 O128 2.105 . S
Sc112 O130 2.105 . S
O113 Sc110 2.025 . S
O113 Sc111 2.025 . S
O113 Sc112 2.025 . S
C114 O120 1.268 . S
C114 O130 1.268 . S
C115 O121 1.268 . S
C115 O129 1.268 . S
C116 O122 1.268 . S
C116 O131 1.268 . S
C117 O123 1.268 . S
C117 O127 1.268 . S
C118 O124 1.268 . S
C118 O126 1.268 . S
C119 O125 1.268 . S
C119 O128 1.268 . S
O120 Sc110 2.105 . S
O120 C114 1.268 . S
O121 Sc111 2.105 . S
O121 C115 1.268 . S
O122 Sc112 2.105 . S
O122 C116 1.268 . S
O123 Sc110 2.105 . S
O123 C117 1.268 . S
O124 Sc112 2.105 . S
O124 C118 1.268 . S
O125 Sc111 2.105 . S
O125 C119 1.268 . S
O126 Sc110 2.105 . S
O126 C118 1.268 . S
O127 Sc111 2.105 . S
O127 C117 1.268 . S
O128 Sc112 2.105 . S
O128 C119 1.268 . S
O129 Sc110 2.105 . S
O129 C115 1.268 . S
O130 Sc112 2.105 . S
O130 C114 1.268 . S
O131 Sc111 2.105 . S
O131 C116 1.268 . S
Sc132 O135 2.025 . S
Sc132 O142 2.105 . S
Sc132 O145 2.105 . S
Sc132 O148 2.105 . S
Sc132 O151 2.105 . S
Sc133 O135 2.025 . S
Sc133 O143 2.105 . S
Sc133 O147 2.105 . S
Sc133 O149 2.105 . S
Sc133 O153 2.105 . S
Sc134 O135 2.025 . S
Sc134 O144 2.105 . S
Sc134 O146 2.105 . S
Sc134 O150 2.105 1_556 S
Sc134 O152 2.105 . S
O135 Sc132 2.025 . S
O135 Sc133 2.025 . S
O135 Sc134 2.025 . S
C136 O142 1.268 . S
C136 O152 1.268 . S
C137 O143 1.268 . S
C137 O151 1.268 . S
C138 O144 1.268 . S
C138 O153 1.268 . S
C139 O145 1.268 . S
C139 O149 1.268 . S
C140 O146 1.268 . S
C140 O148 1.268 . S
C141 O147 1.268 1_554 S
C141 O150 1.268 . S
O142 Sc132 2.105 . S
O142 C136 1.268 . S
O143 Sc133 2.105 . S
O143 C137 1.268 . S
O144 Sc134 2.105 . S
O144 C138 1.268 . S
O145 Sc132 2.105 . S
O145 C139 1.268 . S
O146 Sc134 2.105 . S
O146 C140 1.268 . S
O147 Sc133 2.105 . S
O147 C141 1.268 1_556 S
O148 Sc132 2.105 . S
O148 C140 1.268 . S
O149 Sc133 2.105 . S
O149 C139 1.268 . S
O150 Sc134 2.105 1_554 S
O150 C141 1.268 . S
O151 Sc132 2.105 . S
O151 C137 1.268 . S
O152 Sc134 2.105 . S
O152 C136 1.268 . S
O153 Sc133 2.105 . S
O153 C138 1.268 . S
Sc154 O157 2.025 . S
Sc154 O164 2.105 . S
Sc154 O167 2.105 . S
Sc154 O170 2.105 . S
Sc154 O173 2.105 . S
Sc155 O157 2.025 . S
Sc155 O165 2.105 . S
Sc155 O169 2.105 . S
Sc155 O171 2.105 . S
Sc155 O175 2.105 . S
Sc156 O157 2.025 . S
Sc156 O166 2.105 . S
Sc156 O168 2.105 . S
Sc156 O172 2.105 . S
Sc156 O174 2.105 . S
O157 Sc154 2.025 . S
O157 Sc155 2.025 . S
O157 Sc156 2.025 . S
C158 O164 1.268 . S
C158 O174 1.268 . S
C159 O165 1.268 . S
C159 O173 1.268 . S
C160 O166 1.268 . S
C160 O175 1.268 . S
C161 O167 1.268 . S
C161 O171 1.268 . S
C162 O168 1.268 . S
C162 O170 1.268 . S
C163 O169 1.268 . S
C163 O172 1.268 . S
O164 Sc154 2.105 . S
O164 C158 1.268 . S
O165 Sc155 2.105 . S
O165 C159 1.268 . S
O166 Sc156 2.105 . S
O166 C160 1.268 . S
O167 Sc154 2.105 . S
O167 C161 1.268 . S
O168 Sc156 2.105 . S
O168 C162 1.268 . S
O169 Sc155 2.105 . S
O169 C163 1.268 . S
O170 Sc154 2.105 . S
O170 C162 1.268 . S
O171 Sc155 2.105 . S
O171 C161 1.268 . S
O172 Sc156 2.105 . S
O172 C163 1.268 . S
O173 Sc154 2.105 . S
O173 C159 1.268 . S
O174 Sc156 2.105 . S
O174 C158 1.268 . S
O175 Sc155 2.105 . S
O175 C160 1.268 . S
C176 C177 1.363 . S
C176 C182 1.379 . S
C176 N184 1.356 . S
C177 C176 1.363 . S
C177 C183 1.363 . S
C178 C179 1.363 . S
C178 C183 1.379 . S
C178 N185 1.356 . S
C179 C178 1.363 . S
C179 C182 1.363 . S
N180 C182 1.356 . S
N180 H192 0.984 . S
N180 H193 0.985 . S
N181 C183 1.356 . S
N181 H186 0.984 . S
N181 H187 0.985 . S
C182 C176 1.379 . S
C182 C179 1.363 . S
C182 N180 1.356 . S
C183 C177 1.363 . S
C183 C178 1.379 . S
C183 N181 1.356 . S
N184 C176 1.356 . S
N184 H190 0.984 . S
N184 H191 0.984 . S
N185 C178 1.356 . S
N185 H188 0.984 . S
N185 H189 0.985 . S
H186 N181 0.984 . S
H187 N181 0.985 . S
H188 N185 0.984 . S
H189 N185 0.985 . S
H190 N184 0.984 . S
H191 N184 0.984 . S
H192 N180 0.984 . S
H193 N180 0.985 . S
C194 C195 1.363 . S
C194 C200 1.379 . S
C194 N202 1.356 . S
C195 C194 1.363 . S
C195 C201 1.363 . S
C196 C197 1.363 . S
C196 C201 1.379 . S
C196 N203 1.356 . S
C197 C196 1.363 . S
C197 C200 1.363 . S
N198 C200 1.356 . S
N198 H210 0.984 . S
N198 H211 0.985 . S
N199 C201 1.356 . S
N199 H204 0.984 . S
N199 H205 0.985 . S
C200 C194 1.379 . S
C200 C197 1.363 . S
C200 N198 1.356 . S
C201 C195 1.363 . S
C201 C196 1.379 . S
C201 N199 1.356 . S
N202 C194 1.356 . S
N202 H208 0.984 . S
N202 H209 0.984 . S
N203 C196 1.356 . S
N203 H206 0.984 . S
N203 H207 0.985 . S
H204 N199 0.984 . S
H205 N199 0.985 . S
H206 N203 0.984 . S
H207 N203 0.985 . S
H208 N202 0.984 . S
H209 N202 0.984 . S
H210 N198 0.984 . S
H211 N198 0.985 . S
C212 C213 1.363 . S
C212 C218 1.379 1_455 S
C212 N220 1.356 . S
C213 C212 1.363 . S
C213 C219 1.363 . S
C214 C215 1.363 . S
C214 C219 1.379 1_655 S
C214 N221 1.356 . S
C215 C214 1.363 . S
C215 C218 1.363 . S
N216 C218 1.356 . S
N216 H228 0.984 . S
N216 H229 0.985 . S
N217 C219 1.356 . S
N217 H222 0.984 . S
N217 H223 0.985 . S
C218 C212 1.379 1_655 S
C218 C215 1.363 . S
C218 N216 1.356 . S
C219 C213 1.363 . S
C219 C214 1.379 1_455 S
C219 N217 1.356 . S
N220 C212 1.356 . S
N220 H226 0.984 . S
N220 H227 0.984 . S
N221 C214 1.356 . S
N221 H224 0.984 . S
N221 H225 0.985 . S
H222 N217 0.984 . S
H223 N217 0.985 . S
H224 N221 0.984 . S
H225 N221 0.985 . S
H226 N220 0.984 . S
H227 N220 0.984 . S
H228 N216 0.984 . S
H229 N216 0.985 . S
C230 C231 1.363 . S
C230 C236 1.379 1_455 S
C230 N238 1.356 . S
C231 C230 1.363 . S
C231 C237 1.363 . S
C232 C233 1.363 . S
C232 C237 1.379 1_655 S
C232 N239 1.356 . S
C233 C232 1.363 . S
C233 C236 1.363 . S
N234 C236 1.356 . S
N234 H246 0.984 . S
N234 H247 0.985 . S
N235 C237 1.356 . S
N235 H240 0.984 . S
N235 H241 0.985 . S
C236 C230 1.379 1_655 S
C236 C233 1.363 . S
C236 N234 1.356 . S
C237 C231 1.363 . S
C237 C232 1.379 1_455 S
C237 N235 1.356 . S
N238 C230 1.356 . S
N238 H244 0.984 . S
N238 H245 0.984 . S
N239 C232 1.356 . S
N239 H242 0.984 . S
N239 H243 0.985 . S
H240 N235 0.984 . S
H241 N235 0.985 . S
H242 N239 0.984 . S
H243 N239 0.985 . S
H244 N238 0.984 . S
H245 N238 0.984 . S
H246 N234 0.984 . S
H247 N234 0.985 . S
C248 C249 1.363 1_556 S
C248 C254 1.379 . S
C248 N256 1.356 . S
C249 C248 1.363 1_554 S
C249 C255 1.363 . S
C250 C251 1.363 1_554 S
C250 C255 1.379 . S
C250 N257 1.356 . S
C251 C250 1.363 1_556 S
C251 C254 1.363 . S
N252 C254 1.356 . S
N252 H264 0.984 . S
N252 H265 0.985 . S
N253 C255 1.356 . S
N253 H258 0.984 . S
N253 H259 0.985 . S
C254 C248 1.379 . S
C254 C251 1.363 . S
C254 N252 1.356 . S
C255 C249 1.363 . S
C255 C250 1.379 . S
C255 N253 1.356 . S
N256 C248 1.356 . S
N256 H262 0.984 . S
N256 H263 0.984 1_556 S
N257 C250 1.356 . S
N257 H260 0.984 1_554 S
N257 H261 0.985 . S
H258 N253 0.984 . S
H259 N253 0.985 . S
H260 N257 0.984 1_556 S
H261 N257 0.985 . S
H262 N256 0.984 . S
H263 N256 0.984 1_554 S
H264 N252 0.984 . S
H265 N252 0.985 . S
C266 C267 1.363 . S
C266 C272 1.379 . S
C266 N274 1.356 . S
C267 C266 1.363 . S
C267 C273 1.363 . S
C268 C269 1.363 . S
C268 C273 1.379 . S
C268 N275 1.356 . S
C269 C268 1.363 . S
C269 C272 1.363 . S
N270 C272 1.356 . S
N270 H282 0.984 . S
N270 H283 0.985 . S
N271 C273 1.356 . S
N271 H276 0.984 . S
N271 H277 0.985 . S
C272 C266 1.379 . S
C272 C269 1.363 . S
C272 N270 1.356 . S
C273 C267 1.363 . S
C273 C268 1.379 . S
C273 N271 1.356 . S
N274 C266 1.356 . S
N274 H280 0.984 . S
N274 H281 0.984 . S
N275 C268 1.356 . S
N275 H278 0.984 . S
N275 H279 0.985 . S
H276 N271 0.984 . S
H277 N271 0.985 . S
H278 N275 0.984 . S
H279 N275 0.985 . S
H280 N274 0.984 . S
H281 N274 0.984 . S
H282 N270 0.984 . S
H283 N270 0.985 . S
C284 C285 1.363 1_556 S
C284 C290 1.379 . S
C284 N292 1.356 . S
C285 C284 1.363 1_554 S
C285 C291 1.363 . S
C286 C287 1.363 1_554 S
C286 C291 1.379 . S
C286 N293 1.356 . S
C287 C286 1.363 1_556 S
C287 C290 1.363 . S
N288 C290 1.356 . S
N288 H300 0.984 . S
N288 H301 0.985 . S
N289 C291 1.356 . S
N289 H294 0.984 . S
N289 H295 0.985 . S
C290 C284 1.379 . S
C290 C287 1.363 . S
C290 N288 1.356 . S
C291 C285 1.363 . S
C291 C286 1.379 . S
C291 N289 1.356 . S
N292 C284 1.356 . S
N292 H298 0.984 . S
N292 H299 0.984 1_556 S
N293 C286 1.356 . S
N293 H296 0.984 1_554 S
N293 H297 0.985 . S
H294 N289 0.984 . S
H295 N289 0.985 . S
H296 N293 0.984 1_556 S
H297 N293 0.985 . S
H298 N292 0.984 . S
H299 N292 0.984 1_554 S
H300 N288 0.984 . S
H301 N288 0.985 . S
C302 C303 1.363 . S
C302 C308 1.379 . S
C302 N310 1.356 . S
C303 C302 1.363 . S
C303 C309 1.363 . S
C304 C305 1.363 . S
C304 C309 1.379 . S
C304 N311 1.356 . S
C305 C304 1.363 . S
C305 C308 1.363 . S
N306 C308 1.356 . S
N306 H318 0.984 . S
N306 H319 0.985 . S
N307 C309 1.356 . S
N307 H312 0.984 . S
N307 H313 0.985 . S
C308 C302 1.379 . S
C308 C305 1.363 . S
C308 N306 1.356 . S
C309 C303 1.363 . S
C309 C304 1.379 . S
C309 N307 1.356 . S
N310 C302 1.356 . S
N310 H316 0.984 . S
N310 H317 0.984 . S
N311 C304 1.356 . S
N311 H314 0.984 . S
N311 H315 0.985 . S
H312 N307 0.984 . S
H313 N307 0.985 . S
H314 N311 0.984 . S
H315 N311 0.985 . S
H316 N310 0.984 . S
H317 N310 0.984 . S
H318 N306 0.984 . S
H319 N306 0.985 . S
C320 C321 1.363 . S
C320 C326 1.379 1_655 S
C320 N328 1.356 . S
C321 C320 1.363 . S
C321 C327 1.363 1_556 S
C322 C323 1.363 . S
C322 C327 1.379 1_455 S
C322 N329 1.356 . S
C323 C322 1.363 . S
C323 C326 1.363 1_554 S
N324 C326 1.356 . S
N324 H336 0.984 . S
N324 H337 0.985 1_556 S
N325 C327 1.356 . S
N325 H330 0.984 1_554 S
N325 H331 0.985 . S
C326 C320 1.379 1_455 S
C326 C323 1.363 1_556 S
C326 N324 1.356 . S
C327 C321 1.363 1_554 S
C327 C322 1.379 1_655 S
C327 N325 1.356 . S
N328 C320 1.356 . S
N328 H334 0.984 . S
N328 H335 0.984 . S
N329 C322 1.356 . S
N329 H332 0.984 . S
N329 H333 0.985 . S
H330 N325 0.984 1_556 S
H331 N325 0.985 . S
H332 N329 0.984 . S
H333 N329 0.985 . S
H334 N328 0.984 . S
H335 N328 0.984 . S
H336 N324 0.984 . S
H337 N324 0.985 1_554 S
C338 C339 1.363 . S
C338 C344 1.379 1_455 S
C338 N346 1.356 . S
C339 C338 1.363 . S
C339 C345 1.363 . S
C340 C341 1.363 . S
C340 C345 1.379 1_655 S
C340 N347 1.356 . S
C341 C340 1.363 . S
C341 C344 1.363 . S
N342 C344 1.356 . S
N342 H354 0.984 . S
N342 H355 0.985 . S
N343 C345 1.356 . S
N343 H348 0.984 . S
N343 H349 0.985 . S
C344 C338 1.379 1_655 S
C344 C341 1.363 . S
C344 N342 1.356 . S
C345 C339 1.363 . S
C345 C340 1.379 1_455 S
C345 N343 1.356 . S
N346 C338 1.356 . S
N346 H352 0.984 . S
N346 H353 0.984 . S
N347 C340 1.356 . S
N347 H350 0.984 . S
N347 H351 0.985 . S
H348 N343 0.984 . S
H349 N343 0.985 . S
H350 N347 0.984 . S
H351 N347 0.985 . S
H352 N346 0.984 . S
H353 N346 0.984 . S
H354 N342 0.984 . S
H355 N342 0.985 . S
C356 C357 1.363 1_556 S
C356 C362 1.379 . S
C356 N364 1.356 1_556 S
C357 C356 1.363 1_554 S
C357 C363 1.363 1_565 S
C358 C359 1.363 1_554 S
C358 C363 1.379 . S
C358 N365 1.356 1_554 S
C359 C358 1.363 1_556 S
C359 C362 1.363 1_545 S
N360 C362 1.356 . S
N360 H372 0.984 . S
N360 H373 0.985 . S
N361 C363 1.356 . S
N361 H366 0.984 . S
N361 H367 0.985 . S
C362 C356 1.379 . S
C362 C359 1.363 1_565 S
C362 N360 1.356 . S
C363 C357 1.363 1_545 S
C363 C358 1.379 . S
C363 N361 1.356 . S
N364 C356 1.356 1_554 S
N364 H370 0.984 1_554 S
N364 H371 0.984 . S
N365 C358 1.356 1_556 S
N365 H368 0.984 . S
N365 H369 0.985 1_556 S
H366 N361 0.984 . S
H367 N361 0.985 . S
H368 N365 0.984 . S
H369 N365 0.985 1_554 S
H370 N364 0.984 1_556 S
H371 N364 0.984 . S
H372 N360 0.984 . S
H373 N360 0.985 . S
C374 C375 1.363 . S
C374 C380 1.379 . S
C374 N382 1.356 . S
C375 C374 1.363 . S
C375 C381 1.363 1_565 S
C376 C377 1.363 . S
C376 C381 1.379 . S
C376 N383 1.356 . S
C377 C376 1.363 . S
C377 C380 1.363 1_545 S
N378 C380 1.356 . S
N378 H390 0.984 . S
N378 H391 0.985 . S
N379 C381 1.356 . S
N379 H384 0.984 . S
N379 H385 0.985 . S
C380 C374 1.379 . S
C380 C377 1.363 1_565 S
C380 N378 1.356 . S
C381 C375 1.363 1_545 S
C381 C376 1.379 . S
C381 N379 1.356 . S
N382 C374 1.356 . S
N382 H388 0.984 . S
N382 H389 0.984 . S
N383 C376 1.356 . S
N383 H386 0.984 . S
N383 H387 0.985 . S
H384 N379 0.984 . S
H385 N379 0.985 . S
H386 N383 0.984 . S
H387 N383 0.985 . S
H388 N382 0.984 . S
H389 N382 0.984 . S
H390 N378 0.984 . S
H391 N378 0.985 . S
C392 C393 1.363 . S
C392 C398 1.379 . S
C392 N400 1.356 . S
C393 C392 1.363 . S
C393 C399 1.363 1_455 S
C394 C395 1.363 . S
C394 C399 1.379 . S
C394 N401 1.356 . S
C395 C394 1.363 . S
C395 C398 1.363 1_655 S
N396 C398 1.356 1_655 S
N396 H408 0.984 1_655 S
N396 H409 0.985 . S
N397 C399 1.356 1_455 S
N397 H402 0.984 . S
N397 H403 0.985 1_455 S
C398 C392 1.379 . S
C398 C395 1.363 1_455 S
C398 N396 1.356 1_455 S
C399 C393 1.363 1_655 S
C399 C394 1.379 . S
C399 N397 1.356 1_655 S
N400 C392 1.356 . S
N400 H406 0.984 . S
N400 H407 0.984 . S
N401 C394 1.356 . S
N401 H404 0.984 . S
N401 H405 0.985 . S
H402 N397 0.984 . S
H403 N397 0.985 1_655 S
H404 N401 0.984 . S
H405 N401 0.985 . S
H406 N400 0.984 . S
H407 N400 0.984 . S
H408 N396 0.984 1_455 S
H409 N396 0.985 . S
C410 C411 1.363 . S
C410 C416 1.379 . S
C410 N418 1.356 . S
C411 C410 1.363 . S
C411 C417 1.363 1_455 S
C412 C413 1.363 . S
C412 C417 1.379 . S
C412 N419 1.356 . S
C413 C412 1.363 . S
C413 C416 1.363 1_655 S
N414 C416 1.356 1_655 S
N414 H426 0.984 1_655 S
N414 H427 0.985 . S
N415 C417 1.356 1_455 S
N415 H420 0.984 . S
N415 H421 0.985 1_455 S
C416 C410 1.379 . S
C416 C413 1.363 1_455 S
C416 N414 1.356 1_455 S
C417 C411 1.363 1_655 S
C417 C412 1.379 . S
C417 N415 1.356 1_655 S
N418 C410 1.356 . S
N418 H424 0.984 . S
N418 H425 0.984 . S
N419 C412 1.356 . S
N419 H422 0.984 . S
N419 H423 0.985 . S
H420 N415 0.984 . S
H421 N415 0.985 1_655 S
H422 N419 0.984 . S
H423 N419 0.985 . S
H424 N418 0.984 . S
H425 N418 0.984 . S
H426 N414 0.984 1_455 S
H427 N414 0.985 . S
C428 C429 1.363 . S
C428 C434 1.379 . S
C428 N436 1.356 . S
C429 C428 1.363 . S
C429 C435 1.363 . S
C430 C431 1.363 . S
C430 C435 1.379 . S
C430 N437 1.356 . S
C431 C430 1.363 . S
C431 C434 1.363 . S
N432 C434 1.356 . S
N432 H444 0.984 . S
N432 H445 0.985 . S
N433 C435 1.356 . S
N433 H438 0.984 . S
N433 H439 0.985 . S
C434 C428 1.379 . S
C434 C431 1.363 . S
C434 N432 1.356 . S
C435 C429 1.363 . S
C435 C430 1.379 . S
C435 N433 1.356 . S
N436 C428 1.356 . S
N436 H442 0.984 . S
N436 H443 0.984 . S
N437 C430 1.356 . S
N437 H440 0.984 . S
N437 H441 0.985 . S
H438 N433 0.984 . S
H439 N433 0.985 . S
H440 N437 0.984 . S
H441 N437 0.985 . S
H442 N436 0.984 . S
H443 N436 0.984 . S
H444 N432 0.984 . S
H445 N432 0.985 . S
C446 C447 1.363 . S
C446 C452 1.379 . S
C446 N454 1.356 . S
C447 C446 1.363 . S
C447 C453 1.363 . S
C448 C449 1.363 . S
C448 C453 1.379 . S
C448 N455 1.356 . S
C449 C448 1.363 . S
C449 C452 1.363 . S
N450 C452 1.356 . S
N450 H462 0.984 . S
N450 H463 0.985 . S
N451 C453 1.356 . S
N451 H456 0.984 . S
N451 H457 0.985 . S
C452 C446 1.379 . S
C452 C449 1.363 . S
C452 N450 1.356 . S
C453 C447 1.363 . S
C453 C448 1.379 . S
C453 N451 1.356 . S
N454 C446 1.356 . S
N454 H460 0.984 . S
N454 H461 0.984 . S
N455 C448 1.356 . S
N455 H458 0.984 . S
N455 H459 0.985 . S
H456 N451 0.984 . S
H457 N451 0.985 . S
H458 N455 0.984 . S
H459 N455 0.985 . S
H460 N454 0.984 . S
H461 N454 0.984 . S
H462 N450 0.984 . S
H463 N450 0.985 . S
C464 C465 1.363 . S
C464 C470 1.379 . S
C464 N472 1.356 1_556 S
C465 C464 1.363 . S
C465 C471 1.363 . S
C466 C467 1.363 . S
C466 C471 1.379 . S
C466 N473 1.356 . S
C467 C466 1.363 . S
C467 C470 1.363 . S
N468 C470 1.356 . S
N468 H480 0.984 . S
N468 H481 0.985 . S
N469 C471 1.356 . S
N469 H474 0.984 . S
N469 H475 0.985 . S
C470 C464 1.379 . S
C470 C467 1.363 . S
C470 N468 1.356 . S
C471 C465 1.363 . S
C471 C466 1.379 . S
C471 N469 1.356 . S
N472 C464 1.356 1_554 S
N472 H478 0.984 . S
N472 H479 0.984 . S
N473 C466 1.356 . S
N473 H476 0.984 . S
N473 H477 0.985 . S
H474 N469 0.984 . S
H475 N469 0.985 . S
H476 N473 0.984 . S
H477 N473 0.985 . S
H478 N472 0.984 . S
H479 N472 0.984 . S
H480 N468 0.984 . S
H481 N468 0.985 . S
C482 C483 1.363 . S
C482 C488 1.379 . S
C482 N490 1.356 . S
C483 C482 1.363 . S
C483 C489 1.363 . S
C484 C485 1.363 . S
C484 C489 1.379 . S
C484 N491 1.356 . S
C485 C484 1.363 . S
C485 C488 1.363 . S
N486 C488 1.356 . S
N486 H498 0.984 . S
N486 H499 0.985 . S
N487 C489 1.356 . S
N487 H492 0.984 . S
N487 H493 0.985 . S
C488 C482 1.379 . S
C488 C485 1.363 . S
C488 N486 1.356 . S
C489 C483 1.363 . S
C489 C484 1.379 . S
C489 N487 1.356 . S
N490 C482 1.356 . S
N490 H496 0.984 . S
N490 H497 0.984 . S
N491 C484 1.356 . S
N491 H494 0.984 . S
N491 H495 0.985 . S
H492 N487 0.984 . S
H493 N487 0.985 . S
H494 N491 0.984 . S
H495 N491 0.985 . S
H496 N490 0.984 . S
H497 N490 0.984 . S
H498 N486 0.984 . S
H499 N486 0.985 . S
C500 C501 1.363 . S
C500 C506 1.379 . S
C500 N508 1.356 . S
C501 C500 1.363 . S
C501 C507 1.363 . S
C502 C503 1.363 . S
C502 C507 1.379 . S
C502 N509 1.356 . S
C503 C502 1.363 . S
C503 C506 1.363 . S
N504 C506 1.356 . S
N504 H516 0.984 . S
N504 H517 0.985 . S
N505 C507 1.356 . S
N505 H510 0.984 . S
N505 H511 0.985 . S
C506 C500 1.379 . S
C506 C503 1.363 . S
C506 N504 1.356 . S
C507 C501 1.363 . S
C507 C502 1.379 . S
C507 N505 1.356 . S
N508 C500 1.356 . S
N508 H514 0.984 . S
N508 H515 0.984 . S
N509 C502 1.356 . S
N509 H512 0.984 . S
N509 H513 0.985 . S
H510 N505 0.984 . S
H511 N505 0.985 . S
H512 N509 0.984 . S
H513 N509 0.985 . S
H514 N508 0.984 . S
H515 N508 0.984 . S
H516 N504 0.984 . S
H517 N504 0.985 . S
C518 C519 1.363 . S
C518 C524 1.379 . S
C518 N526 1.356 . S
C519 C518 1.363 . S
C519 C525 1.363 . S
C520 C521 1.363 . S
C520 C525 1.379 . S
C520 N527 1.356 . S
C521 C520 1.363 . S
C521 C524 1.363 . S
N522 C524 1.356 . S
N522 H534 0.984 . S
N522 H535 0.985 . S
N523 C525 1.356 . S
N523 H528 0.984 . S
N523 H529 0.985 . S
C524 C518 1.379 . S
C524 C521 1.363 . S
C524 N522 1.356 . S
C525 C519 1.363 . S
C525 C520 1.379 . S
C525 N523 1.356 . S
N526 C518 1.356 . S
N526 H532 0.984 . S
N526 H533 0.984 . S
N527 C520 1.356 . S
N527 H530 0.984 . S
N527 H531 0.985 . S
H528 N523 0.984 . S
H529 N523 0.985 . S
H530 N527 0.984 . S
H531 N527 0.985 . S
H532 N526 0.984 . S
H533 N526 0.984 . S
H534 N522 0.984 . S
H535 N522 0.985 . S
C536 C537 1.363 . S
C536 C542 1.379 1_565 S
C536 N544 1.356 . S
C537 C536 1.363 . S
C537 C543 1.363 . S
C538 C539 1.363 1_565 S
C538 C543 1.379 . S
C538 N545 1.356 . S
C539 C538 1.363 1_545 S
C539 C542 1.363 . S
N540 C542 1.356 . S
N540 H552 0.984 . S
N540 H553 0.985 . S
N541 C543 1.356 . S
N541 H546 0.984 . S
N541 H547 0.985 . S
C542 C536 1.379 1_545 S
C542 C539 1.363 . S
C542 N540 1.356 . S
C543 C537 1.363 . S
C543 C538 1.379 . S
C543 N541 1.356 . S
N544 C536 1.356 . S
N544 H550 0.984 1_565 S
N544 H551 0.984 1_556 S
N545 C538 1.356 . S
N545 H548 0.984 1_565 S
N545 H549 0.985 . S
H546 N541 0.984 . S
H547 N541 0.985 . S
H548 N545 0.984 1_545 S
H549 N545 0.985 . S
H550 N544 0.984 1_545 S
H551 N544 0.984 1_554 S
H552 N540 0.984 . S
H553 N540 0.985 . S
C554 C555 1.363 1_565 S
C554 C560 1.379 . S
C554 N562 1.356 . S
C555 C554 1.363 1_545 S
C555 C561 1.363 . S
C556 C557 1.363 . S
C556 C561 1.379 1_565 S
C556 N563 1.356 . S
C557 C556 1.363 . S
C557 C560 1.363 . S
N558 C560 1.356 . S
N558 H570 0.984 . S
N558 H571 0.985 . S
N559 C561 1.356 . S
N559 H564 0.984 . S
N559 H565 0.985 . S
C560 C554 1.379 . S
C560 C557 1.363 . S
C560 N558 1.356 . S
C561 C555 1.363 . S
C561 C556 1.379 1_545 S
C561 N559 1.356 . S
N562 C554 1.356 . S
N562 H568 0.984 . S
N562 H569 0.984 1_565 S
N563 C556 1.356 . S
N563 H566 0.984 . S
N563 H567 0.985 1_565 S
H564 N559 0.984 . S
H565 N559 0.985 . S
H566 N563 0.984 . S
H567 N563 0.985 1_545 S
H568 N562 0.984 . S
H569 N562 0.984 1_545 S
H570 N558 0.984 . S
H571 N558 0.985 . S
C572 C573 1.363 1_545 S
C572 C578 1.379 . S
C572 N580 1.356 . S
C573 C572 1.363 1_565 S
C573 C579 1.363 . S
C574 C575 1.363 . S
C574 C579 1.379 1_545 S
C574 N581 1.356 . S
C575 C574 1.363 . S
C575 C578 1.363 . S
N576 C578 1.356 . S
N576 H588 0.984 . S
N576 H589 0.985 . S
N577 C579 1.356 . S
N577 H582 0.984 . S
N577 H583 0.985 . S
C578 C572 1.379 . S
C578 C575 1.363 . S
C578 N576 1.356 . S
C579 C573 1.363 . S
C579 C574 1.379 1_565 S
C579 N577 1.356 . S
N580 C572 1.356 . S
N580 H586 0.984 . S
N580 H587 0.984 1_545 S
N581 C574 1.356 . S
N581 H584 0.984 . S
N581 H585 0.985 . S
H582 N577 0.984 . S
H583 N577 0.985 . S
H584 N581 0.984 . S
H585 N581 0.985 . S
H586 N580 0.984 . S
H587 N580 0.984 1_565 S
H588 N576 0.984 . S
H589 N576 0.985 . S
C590 C591 1.363 . S
C590 C596 1.379 1_545 S
C590 N598 1.356 . S
C591 C590 1.363 . S
C591 C597 1.363 . S
C592 C593 1.363 1_545 S
C592 C597 1.379 . S
C592 N599 1.356 . S
C593 C592 1.363 1_565 S
C593 C596 1.363 . S
N594 C596 1.356 . S
N594 H606 0.984 . S
N594 H607 0.985 . S
N595 C597 1.356 . S
N595 H600 0.984 . S
N595 H601 0.985 . S
C596 C590 1.379 1_565 S
C596 C593 1.363 . S
C596 N594 1.356 . S
C597 C591 1.363 . S
C597 C592 1.379 . S
C597 N595 1.356 . S
N598 C590 1.356 . S
N598 H604 0.984 1_545 S
N598 H605 0.984 . S
N599 C592 1.356 . S
N599 H602 0.984 1_545 S
N599 H603 0.985 . S
H600 N595 0.984 . S
H601 N595 0.985 . S
H602 N599 0.984 1_565 S
H603 N599 0.985 . S
H604 N598 0.984 1_565 S
H605 N598 0.984 . S
H606 N594 0.984 . S
H607 N594 0.985 . S
C177 C27 1.424 . S
C179 C9 1.424 . S
C195 C51 1.424 . S
C197 C72 1.424 . S
C213 C115 1.424 . S
C215 C97 1.424 . S
C231 C139 1.424 . S
C233 C160 1.424 . S
C249 C8 1.619 . S
C251 C140 1.619 . S
C267 C26 1.619 . S
C269 C158 1.619 . S
C285 C96 1.619 . S
C287 C52 1.619 . S
C303 C70 1.619 . S
C305 C114 1.619 . S
C321 C50 1.061 . S
C323 C5 1.061 . S
C339 C73 1.061 . S
C341 C31 1.061 . S
C357 C93 1.061 . S
C359 C138 1.061 . S
C375 C119 1.061 . S
C377 C161 1.061 . S
C393 C4 1.858 . S
C395 C30 1.858 . S
C411 C74 1.858 . S
C413 C48 1.858 . S
C429 C118 1.858 . S
C431 C92 1.858 . S
C447 C162 1.858 . S
C449 C136 1.858 . S
C465 C7 1.310 . S
C467 C75 1.430 . S
C483 C28 1.310 . S
C485 C49 1.430 . S
C501 C29 1.430 . S
C503 C53 1.310 . S
C519 C6 1.430 . S
C521 C71 1.310 . S
C537 C95 1.310 . S
C539 C163 1.430 . S
C555 C137 1.430 . S
C557 C116 1.310 . S
C573 C117 1.430 . S
C575 C141 1.310 . S
C591 C159 1.310 . S
C593 C94 1.430 . S
