# Generated by pormake.
# Topology uof, (4)-cn, num edge types: 1
# Building blocks:
#     Node 0, Type 0, BuildingBlock: QUQFOY_clean_sbu_3, # of connection points: 4
#     Node 1, Type 0, BuildingBlock: QUQFOY_clean_sbu_3, # of connection points: 4
#     Node 2, Type 0, BuildingBlock: QUQFOY_clean_sbu_3, # of connection points: 4
#     Node 3, Type 0, BuildingBlock: QUQFOY_clean_sbu_3, # of connection points: 4
#     Node 4, Type 0, BuildingBlock: QUQFOY_clean_sbu_3, # of connection points: 4
#     Node 5, Type 0, BuildingBlock: QUQFOY_clean_sbu_3, # of connection points: 4
#     Node 6, Type 0, BuildingBlock: QUQFOY_clean_sbu_3, # of connection points: 4
#     Node 7, Type 0, BuildingBlock: QUQFOY_clean_sbu_3, # of connection points: 4
#     Node 8, Type 0, BuildingBlock: QUQFOY_clean_sbu_3, # of connection points: 4
#     Node 9, Type 0, BuildingBlock: QUQFOY_clean_sbu_3, # of connection points: 4
#     Node 10, Type 0, BuildingBlock: QUQFOY_clean_sbu_3, # of connection points: 4
#     Node 11, Type 0, BuildingBlock: QUQFOY_clean_sbu_3, # of connection points: 4
#     Edge 12, Type (0, 0), BuildingBlock: EZIPEK_clean_linker_0, # of connection points: 2
#     Edge 13, Type (0, 0), BuildingBlock: EZIPEK_clean_linker_0, # of connection points: 2
#     Edge 14, Type (0, 0), BuildingBlock: EZIPEK_clean_linker_0, # of connection points: 2
#     Edge 15, Type (0, 0), BuildingBlock: EZIPEK_clean_linker_0, # of connection points: 2
#     Edge 16, Type (0, 0), BuildingBlock: EZIPEK_clean_linker_0, # of connection points: 2
#     Edge 17, Type (0, 0), BuildingBlock: EZIPEK_clean_linker_0, # of connection points: 2
#     Edge 18, Type (0, 0), BuildingBlock: EZIPEK_clean_linker_0, # of connection points: 2
#     Edge 19, Type (0, 0), BuildingBlock: EZIPEK_clean_linker_0, # of connection points: 2
#     Edge 20, Type (0, 0), BuildingBlock: EZIPEK_clean_linker_0, # of connection points: 2
#     Edge 21, Type (0, 0), BuildingBlock: EZIPEK_clean_linker_0, # of connection points: 2
#     Edge 22, Type (0, 0), BuildingBlock: EZIPEK_clean_linker_0, # of connection points: 2
#     Edge 23, Type (0, 0), BuildingBlock: EZIPEK_clean_linker_0, # of connection points: 2
#     Edge 24, Type (0, 0), BuildingBlock: EZIPEK_clean_linker_0, # of connection points: 2
#     Edge 25, Type (0, 0), BuildingBlock: EZIPEK_clean_linker_0, # of connection points: 2
#     Edge 26, Type (0, 0), BuildingBlock: EZIPEK_clean_linker_0, # of connection points: 2
#     Edge 27, Type (0, 0), BuildingBlock: EZIPEK_clean_linker_0, # of connection points: 2
#     Edge 28, Type (0, 0), BuildingBlock: EZIPEK_clean_linker_0, # of connection points: 2
#     Edge 29, Type (0, 0), BuildingBlock: EZIPEK_clean_linker_0, # of connection points: 2
#     Edge 30, Type (0, 0), BuildingBlock: EZIPEK_clean_linker_0, # of connection points: 2
#     Edge 31, Type (0, 0), BuildingBlock: EZIPEK_clean_linker_0, # of connection points: 2
#     Edge 32, Type (0, 0), BuildingBlock: EZIPEK_clean_linker_0, # of connection points: 2
#     Edge 33, Type (0, 0), BuildingBlock: EZIPEK_clean_linker_0, # of connection points: 2
#     Edge 34, Type (0, 0), BuildingBlock: EZIPEK_clean_linker_0, # of connection points: 2
#     Edge 35, Type (0, 0), BuildingBlock: EZIPEK_clean_linker_0, # of connection points: 2
# Relax obj value: 0.194
# Max RMSD: 0.142
# Mean RMSD: 0.142
data_MOF--net-uof--node1-QUQFOY_clean_sbu_3--edge1-EZIPEK_clean_linker_0
_symmetry_space_group_name_H-M    P1
_symmetry_Int_Tables_number       1
_symmetry_cell_setting            triclinic
loop_
_symmetry_equiv_pos_as_xyz
'x, y, z'
_cell_length_a     25.419401
_cell_length_b     25.52287
_cell_length_c     49.720694
_cell_angle_alpha  90.007691
_cell_angle_beta   90.847836
_cell_angle_gamma 119.83874
loop_
_atom_site_label
_atom_site_type_symbol
_atom_site_fract_x
_atom_site_fract_y
_atom_site_fract_z
_atom_type_partial_charge
C0 C 0.22362 0.24433 0.24848 0.0
O1 O 0.2498 0.21908 0.23724 0.0
Cd2 Cd 0.2641 0.20998 0.19148 0.0
O3 O 0.19855 0.26921 0.23492 0.0
Cd4 Cd 0.18336 0.28344 0.18487 0.0
C5 C 0.33897 0.36359 0.17811 0.0
O6 O 0.16829 0.1874 0.1757 0.0
O7 O 0.18674 0.24184 0.14027 0.0
O8 O 0.07348 0.2442 0.18526 0.0
C9 C 0.17062 0.19072 0.15052 0.0
O10 O 0.33794 0.31345 0.18063 0.0
C11 C 0.07306 0.2834 0.16968 0.0
O12 O 0.29063 0.36727 0.17974 0.0
O13 O 0.12458 0.32889 0.16464 0.0
C14 C 0.96017 0.25474 0.57692 0.0
O15 O 0.01233 0.28526 0.56683 0.0
Cd16 Cd 0.03434 0.29738 0.52154 0.0
O17 O 0.91167 0.22655 0.56226 0.0
Cd18 Cd 0.88316 0.20977 0.5118 0.0
C19 C 0.94635 0.36293 0.50561 0.0
O20 O -0.03316 0.19584 0.51117 0.0
O21 O 0.93926 0.2065 0.47159 0.0
O22 O 0.79623 0.1072 0.52122 0.0
C23 C -0.02864 0.19243 0.48628 0.0
O24 O -0.00307 0.3651 0.50958 0.0
C25 C 0.77706 0.0957 0.49694 0.0
O26 O 0.89618 0.31284 0.50597 0.0
O27 O 0.80021 0.14009 0.48099 0.0
C28 C 0.69392 0.97081 0.91451 0.0
O29 O 0.71783 0.01968 0.90138 0.0
Cd30 Cd 0.71937 0.03284 0.8549 0.0
O31 O 0.66806 0.91874 0.90286 0.0
Cd32 Cd 0.64928 0.87877 0.85444 0.0
C33 C 0.56298 0.94756 0.8456 0.0
O34 O 0.74156 0.95854 0.84181 0.0
O35 O 0.68082 0.91539 0.80806 0.0
O36 O 0.69907 0.81824 0.85779 0.0
C37 C 0.73375 0.95234 0.81676 0.0
O38 O 0.61274 -0.0025 0.84609 0.0
C39 C 0.65999 0.773 0.84426 0.0
O40 O 0.5613 0.89688 0.84881 0.0
O41 O 0.60986 0.7715 0.83939 0.0
C42 C 0.69265 0.69583 0.24642 0.0
O43 O 0.66048 0.71603 0.23603 0.0
Cd44 Cd 0.64269 0.72739 0.19104 0.0
O45 O 0.72147 0.6766 0.2321 0.0
Cd46 Cd 0.73313 0.66631 0.1814 0.0
C47 C 0.5774 0.57581 0.1752 0.0
O48 O 0.74188 0.76069 0.17744 0.0
O49 O 0.72649 0.71578 0.13918 0.0
O50 O 0.84389 0.70829 0.18076 0.0
C51 C 0.74094 0.76375 0.15232 0.0
O52 O 0.57358 0.6231 0.17889 0.0
C53 C 0.84362 0.67159 0.16343 0.0
O54 O 0.62866 0.57759 0.17551 0.0
O55 O 0.79204 0.62616 0.15772 0.0
C56 C -0.01049 0.71942 0.59032 0.0
O57 O 0.9365 0.69205 0.58004 0.0
Cd58 Cd 0.90505 0.67664 0.53508 0.0
O59 O 0.03715 0.74493 0.57571 0.0
Cd60 Cd 0.05663 0.7585 0.52456 0.0
C61 C -0.01714 0.60378 0.51529 0.0
O62 O -0.0272 0.77224 0.5187 0.0
O63 O 0.00195 0.75156 0.48181 0.0
O64 O 0.12649 0.86822 0.52275 0.0
C65 C -0.03147 0.76796 0.49351 0.0
O66 O 0.93401 0.60378 0.52051 0.0
C67 C 0.1631 0.86643 0.50617 0.0
O68 O 0.03451 0.65233 0.51635 0.0
O69 O 0.15645 0.81443 0.50144 0.0
C70 C 0.21758 0.96753 0.90262 0.0
O71 O 0.19171 0.91856 0.88924 0.0
Cd72 Cd 0.20102 0.90763 0.84314 0.0
O73 O 0.24836 0.01896 0.89116 0.0
Cd74 Cd 0.27465 0.05894 0.84299 0.0
C75 C 0.35899 -0.01177 0.84165 0.0
O76 O 0.18626 -0.01759 0.82307 0.0
O77 O 0.25993 0.02392 0.79539 0.0
O78 O 0.22549 0.12005 0.84421 0.0
C79 C 0.20403 -0.01187 0.79914 0.0
O80 O 0.30832 0.93923 0.84036 0.0
C81 C 0.26615 0.16521 0.83181 0.0
O82 O 0.36214 0.03979 0.84382 0.0
O83 O 0.31618 0.16604 0.82834 0.0
C84 C 0.68765 0.71383 0.36087 0.0
O85 O 0.71225 0.68552 0.37096 0.0
Cd86 Cd 0.72468 0.66907 0.4159 0.0
O87 O 0.66519 0.73923 0.37549 0.0
Cd88 Cd 0.65516 0.75056 0.42623 0.0
C89 C 0.5717 0.59543 0.43098 0.0
O90 O 0.75305 0.76552 0.43231 0.0
O91 O 0.70267 0.74212 0.46888 0.0
O92 O 0.69175 0.86014 0.42544 0.0
C93 C 0.75306 0.76111 0.45743 0.0
O94 O 0.6214 0.59591 0.4274 0.0
C95 C 0.65799 0.8604 0.44394 0.0
O96 O 0.56886 0.64417 0.43051 0.0
O97 O 0.61656 0.80891 0.4517 0.0
C98 C -0.03429 0.70017 0.70539 0.0
O99 O 0.01413 0.70938 0.7175 0.0
Cd100 Cd 0.0488 0.70285 0.76197 0.0
O101 O 0.91578 0.68365 0.71777 0.0
Cd102 Cd 0.89089 0.67022 0.76736 0.0
C103 C 0.93877 0.55873 0.77224 0.0
O104 O -0.01247 0.72635 0.78583 0.0
O105 O 0.94566 0.7797 0.78025 0.0
O106 O 0.80389 0.68796 0.76868 0.0
C107 C -0.00602 0.7783 0.78448 0.0
O108 O -0.00561 0.5973 0.76899 0.0
C109 C 0.78644 0.66631 0.79203 0.0
O110 O 0.89719 0.57349 0.77249 0.0
O111 O 0.81177 0.63846 0.80223 0.0
C112 C 0.2077 0.94679 0.0175 0.0
O113 O 0.23877 0.00077 0.02603 0.0
Cd114 Cd 0.26128 0.03827 0.07007 0.0
O115 O 0.18261 0.90157 0.0335 0.0
Cd116 Cd 0.17632 0.88881 0.0848 0.0
C117 C 0.33313 0.95997 0.09084 0.0
O118 O 0.16519 -0.02578 0.08717 0.0
O119 O 0.18384 0.94816 0.12568 0.0
O120 O 0.06626 0.81935 0.08725 0.0
C121 C 0.16852 -0.01926 0.11224 0.0
O122 O 0.33435 0.00906 0.08495 0.0
C123 C 0.06847 0.78474 0.10501 0.0
O124 O 0.2832 0.90957 0.0914 0.0
O125 O 0.12089 0.79232 0.11051 0.0
C126 C 0.24403 0.2352 0.36316 0.0
O127 O 0.21927 0.26281 0.37352 0.0
Cd128 Cd 0.20966 0.28092 0.41852 0.0
O129 O 0.26811 0.21052 0.3776 0.0
Cd130 Cd 0.2799 0.19854 0.42838 0.0
C131 C 0.36372 0.35425 0.43345 0.0
O132 O 0.18361 0.18505 0.43418 0.0
O133 O 0.23485 0.20632 0.47126 0.0
O134 O 0.23991 0.08881 0.42933 0.0
C135 C 0.18436 0.1888 0.45934 0.0
O136 O 0.31417 0.3545 0.42988 0.0
C137 C 0.27744 0.08981 0.44676 0.0
O138 O 0.36562 0.305 0.43325 0.0
O139 O 0.32285 0.1415 0.45222 0.0
C140 C -0.02783 0.24595 0.6916 0.0
O141 O 0.91772 0.21671 0.69933 0.0
Cd142 Cd 0.87894 0.19134 0.74239 0.0
O143 O 0.0177 0.26728 0.7081 0.0
Cd144 Cd 0.03112 0.2671 0.75909 0.0
C145 C 0.94676 0.33914 0.76539 0.0
O146 O 0.95137 0.16794 0.75828 0.0
O147 O -0.02641 0.2055 0.7982 0.0
O148 O 0.11004 0.23818 0.75965 0.0
C149 C 0.94344 0.15983 0.78307 0.0
O150 O 0.89989 0.28943 0.75882 0.0
C151 C 0.14161 0.27308 0.77883 0.0
O152 O -0.0003 0.34467 0.7664 0.0
O153 O 0.12762 0.31234 0.78615 0.0
C154 C 0.70267 0.00164 0.02866 0.0
O155 O 0.67372 0.94829 0.03766 0.0
Cd156 Cd 0.6519 0.91507 0.0818 0.0
O157 O 0.72598 0.04848 0.04413 0.0
Cd158 Cd 0.73239 0.06719 0.09495 0.0
C159 C 0.57533 -0.00765 0.09617 0.0
O160 O 0.74672 -0.01512 0.09922 0.0
O161 O 0.72648 0.01115 0.13699 0.0
O162 O 0.84203 0.13842 0.09595 0.0
C163 C 0.74321 -0.02091 0.12424 0.0
O164 O 0.57699 0.94389 0.0923 0.0
C165 C 0.84157 0.17328 0.11404 0.0
O166 O 0.62391 0.04405 0.09715 0.0
O167 O 0.78961 0.16509 0.1203 0.0
C168 C 0.95282 0.25058 0.11429 0.0
C169 C 0.89918 0.21575 0.12905 0.0
C170 C 0.96131 0.24788 0.1708 0.0
C171 C 0.0151 0.27111 0.15566 0.0
N172 N 0.06039 0.28745 0.11161 0.0
N173 N 0.85418 0.17563 0.17232 0.0
C174 C 0.01069 0.27167 0.12702 0.0
C175 C 0.90361 0.21372 0.15765 0.0
N176 N 0.94845 0.26339 0.08796 0.0
N177 N -0.0346 0.25834 0.19789 0.0
H178 H 0.81119 0.14799 0.16404 0.0
H179 H 0.85705 0.16734 0.19266 0.0
H180 H 0.00695 0.28404 0.20793 0.0
H181 H 0.9278 0.24737 0.20969 0.0
H182 H -0.01418 0.29319 0.07679 0.0
H183 H 0.90676 0.24943 0.07831 0.0
H184 H 0.05768 0.28139 0.09081 0.0
H185 H 0.10356 0.3014 0.11943 0.0
C186 C 0.75283 -0.01344 0.49339 0.0
C187 C 0.73834 0.03216 0.48638 0.0
C188 C 0.66588 0.96272 0.45193 0.0
C189 C 0.67776 0.91651 0.46042 0.0
N190 N 0.71975 0.87995 0.49453 0.0
N191 N 0.67099 0.05811 0.46278 0.0
C192 C 0.71651 0.92691 0.48304 0.0
C193 C 0.69169 0.01849 0.46676 0.0
N194 N 0.80455 0.0007 0.50781 0.0
N195 N 0.6308 0.95374 0.42945 0.0
H196 H 0.68736 0.09802 0.47391 0.0
H197 H 0.63372 0.04866 0.45049 0.0
H198 H 0.60942 0.91264 0.419 0.0
H199 H 0.62583 -0.01216 0.42038 0.0
H200 H 0.82026 0.97032 0.51061 0.0
H201 H 0.8361 0.04417 0.51417 0.0
H202 H 0.74261 0.88412 0.51269 0.0
H203 H 0.69478 0.83565 0.48747 0.0
C204 C 0.66749 0.71253 0.80461 0.0
C205 C 0.67711 0.72921 0.83244 0.0
C206 C 0.75444 0.69811 0.83495 0.0
C207 C 0.74328 0.67917 0.80741 0.0
N208 N 0.67364 0.64958 0.76963 0.0
N209 N 0.71352 0.71611 0.87542 0.0
C210 C 0.69455 0.6801 0.79348 0.0
C211 C 0.71489 0.71424 0.84801 0.0
N212 N 0.63664 0.73102 0.78803 0.0
N213 N 0.80532 0.70612 0.84831 0.0
H214 H 0.6839 0.72627 0.88549 0.0
H215 H 0.73635 0.70078 0.88785 0.0
H216 H 0.83876 0.69985 0.83965 0.0
H217 H 0.81788 0.72584 0.8674 0.0
H218 H 0.63533 0.72611 0.76718 0.0
H219 H 0.61664 0.75569 0.79441 0.0
H220 H 0.6348 0.64431 0.75976 0.0
H221 H 0.69086 0.62363 0.76147 0.0
C222 C 0.90092 0.68725 0.11966 0.0
C223 C 0.90031 0.68658 0.14837 0.0
C224 C 0.01202 0.74445 0.14908 0.0
C225 C 0.01259 0.74281 0.12038 0.0
N226 N 0.95752 0.69581 0.07944 0.0
N227 N 0.95598 0.69851 0.18963 0.0
C228 C 0.95693 0.70837 0.1061 0.0
C229 C 0.95619 0.70974 0.16277 0.0
N230 N 0.84939 0.67271 0.10506 0.0
N231 N 0.06335 0.78251 0.16345 0.0
H232 H 0.91596 0.67223 0.20004 0.0
H233 H -0.00472 0.70944 0.20072 0.0
H234 H 0.10503 0.81075 0.15478 0.0
H235 H 0.06323 0.79032 0.18401 0.0
H236 H 0.84948 0.67938 0.08438 0.0
H237 H 0.80758 0.65977 0.11354 0.0
H238 H 0.91851 0.66625 0.06853 0.0
H239 H -0.00224 0.70958 0.06914 0.0
C240 C 0.24058 -0.02191 0.44833 0.0
C241 C 0.26297 0.03377 0.46235 0.0
C242 C 0.23944 -0.02234 0.50502 0.0
C243 C 0.20584 0.92212 0.49087 0.0
N244 N 0.16821 0.87118 0.44781 0.0
N245 N 0.27524 0.08479 0.50515 0.0
C246 C 0.20551 0.92251 0.46216 0.0
C247 C 0.26117 0.03335 0.49105 0.0
N248 N 0.2528 -0.02169 0.42166 0.0
N249 N 0.25056 -0.02276 0.53195 0.0
H250 H 0.289 0.12644 0.49631 0.0
H251 H 0.26758 0.08489 0.52568 0.0
H252 H 0.23616 0.93724 0.54258 0.0
H253 H 0.27954 0.01615 0.54292 0.0
H254 H 0.24254 0.93923 0.41089 0.0
H255 H 0.27919 0.0182 0.41117 0.0
H256 H 0.16117 0.87108 0.4271 0.0
H257 H 0.1398 0.82963 0.45652 0.0
C258 C 0.25412 0.2185 0.79081 0.0
C259 C 0.25097 0.2096 0.81919 0.0
C260 C 0.18334 0.25248 0.82209 0.0
C261 C 0.18715 0.26223 0.79374 0.0
N262 N 0.24142 0.27198 0.75314 0.0
N263 N 0.22854 0.23586 0.86223 0.0
C264 C 0.22786 0.25119 0.77884 0.0
C265 C 0.22113 0.23294 0.8349 0.0
N266 N 0.27766 0.19195 0.77481 0.0
N267 N 0.14038 0.25667 0.83666 0.0
H268 H 0.25644 0.22239 0.87201 0.0
H269 H 0.21258 0.25753 0.87471 0.0
H270 H 0.10998 0.26868 0.82855 0.0
H271 H 0.13117 0.24282 0.85658 0.0
H272 H 0.27377 0.19068 0.7539 0.0
H273 H 0.29681 0.16694 0.78215 0.0
H274 H 0.27501 0.27027 0.74205 0.0
H275 H 0.22366 0.29688 0.74408 0.0
C276 C 0.47842 0.50452 0.15202 0.0
C277 C 0.51952 0.51738 0.17404 0.0
C278 C 0.43964 0.43393 0.19941 0.0
C279 C 0.39955 0.41887 0.17686 0.0
N280 N 0.38229 0.4336 0.13045 0.0
N281 N 0.5424 0.48975 0.21729 0.0
C282 C 0.41929 0.45255 0.1528 0.0
C283 C 0.50115 0.48037 0.19722 0.0
N284 N 0.49582 0.54259 0.13052 0.0
N285 N 0.41798 0.40557 0.2234 0.0
H286 H 0.5872 0.52487 0.21723 0.0
H287 H 0.53376 0.46005 0.23314 0.0
H288 H 0.37322 0.37146 0.22589 0.0
H289 H 0.4425 0.41912 0.24146 0.0
H290 H 0.46614 0.54037 0.11533 0.0
H291 H 0.53992 0.57858 0.12848 0.0
H292 H 0.39613 0.45197 0.11144 0.0
H293 H 0.33847 0.39647 0.13053 0.0
C294 C -0.02849 0.50934 0.53502 0.0
C295 C -0.02165 0.54397 0.51174 0.0
C296 C 0.95937 0.45729 0.48328 0.0
C297 C 0.94743 0.42149 0.50667 0.0
N298 N 0.92988 0.40975 0.55434 0.0
N299 N -0.02817 0.55 0.46359 0.0
C300 C 0.94954 0.44645 0.5324 0.0
C301 C -0.02973 0.51768 0.48576 0.0
N302 N -0.01194 0.53718 0.55964 0.0
N303 N 0.96145 0.4339 0.45887 0.0
H304 H -0.01804 0.59491 0.46478 0.0
H305 H 0.9599 0.53147 0.4443 0.0
H306 H 0.95091 0.38907 0.4564 0.0
H307 H -0.02361 0.45947 0.44145 0.0
H308 H -0.01051 0.51555 0.57716 0.0
H309 H 0.00677 0.58373 0.56199 0.0
H310 H 0.92481 0.42426 0.57321 0.0
H311 H 0.91293 0.36325 0.55311 0.0
C312 C 0.43835 -0.02476 0.81788 0.0
C313 C 0.41447 -0.01717 0.84227 0.0
C314 C 0.47912 0.95399 0.86806 0.0
C315 C 0.50652 0.95113 0.84386 0.0
N316 N 0.5176 0.96494 0.79595 0.0
N317 N 0.41768 -0.01145 0.89063 0.0
C318 C 0.48758 0.9634 0.81879 0.0
C319 C 0.43655 -0.02516 0.8674 0.0
N320 N 0.41308 -0.0218 0.79386 0.0
N321 N 0.49343 0.93609 0.89166 0.0
H322 H 0.3871 0.00458 0.89076 0.0
H323 H 0.43607 -0.01068 0.90956 0.0
H324 H 0.52445 0.92067 0.89284 0.0
H325 H 0.47103 0.93149 0.90961 0.0
H326 H 0.42329 0.96611 0.77549 0.0
H327 H 0.37919 -0.01014 0.79245 0.0
H328 H 0.51111 -0.01944 0.77755 0.0
H329 H 0.55157 0.95331 0.79572 0.0
C330 C 0.48485 0.51249 0.45637 0.0
C331 C 0.51586 0.53526 0.4319 0.0
C332 C 0.4543 0.43566 0.41041 0.0
C333 C 0.42029 0.41391 0.43426 0.0
N334 N 0.39801 0.43234 0.47906 0.0
N335 N 0.52367 0.52255 0.38436 0.0
C336 C 0.43406 0.45265 0.457 0.0
C337 C 0.49882 0.49783 0.40858 0.0
N338 N 0.50532 0.54731 0.47917 0.0
N339 N 0.44412 0.39684 0.38945 0.0
H340 H 0.55593 0.56805 0.38218 0.0
H341 H 0.50856 0.49972 0.36605 0.0
H342 H 0.4107 0.35141 0.38956 0.0
H343 H 0.47181 0.40824 0.37274 0.0
H344 H 0.48927 0.53129 0.4983 0.0
H345 H 0.54133 0.59168 0.4792 0.0
H346 H 0.4009 0.46009 0.49503 0.0
H347 H 0.36279 0.38784 0.4808 0.0
C348 C 0.90543 0.46027 0.74951 0.0
C349 C 0.92416 0.49493 0.77355 0.0
C350 C 0.94941 0.42215 0.7939 0.0
C351 C 0.93915 0.39281 0.76856 0.0
N352 N 0.9139 0.3877 0.72121 0.0
N353 N -0.03558 0.51068 0.81877 0.0
C354 C 0.91811 0.41237 0.74615 0.0
C355 C 0.94573 0.47595 0.79591 0.0
N356 N 0.87647 0.47394 0.7297 0.0
N357 N 0.96129 0.39782 0.81606 0.0
H358 H 0.95849 0.548 0.82137 0.0
H359 H -0.01234 0.50406 0.83461 0.0
H360 H -0.03527 0.3588 0.81516 0.0
H361 H -0.03667 0.41351 0.83559 0.0
H362 H 0.85644 0.44698 0.71272 0.0
H363 H 0.86729 0.5093 0.73145 0.0
H364 H 0.90564 0.40464 0.70359 0.0
H365 H 0.92408 0.3535 0.71762 0.0
C366 C 0.41566 0.9458 0.07178 0.0
C367 C 0.39256 0.96243 0.09398 0.0
C368 C 0.49 -0.00059 0.11833 0.0
C369 C 0.5144 -0.01278 0.09523 0.0
N370 N 0.50443 0.95981 0.04822 0.0
N371 N 0.40856 0.01064 0.13736 0.0
C372 C 0.47818 0.96325 0.0715 0.0
C373 C 0.43008 -0.00904 0.11698 0.0
N374 N 0.37783 0.91333 0.05086 0.0
N375 N 0.52322 0.01687 0.14178 0.0
H376 H 0.36392 0.00205 0.13774 0.0
H377 H 0.43557 0.038 0.15317 0.0
H378 H 0.56743 0.02437 0.14327 0.0
H379 H 0.50583 0.02011 0.16014 0.0
H380 H 0.39025 0.89403 0.03554 0.0
H381 H 0.33216 0.90115 0.04987 0.0
H382 H 0.48238 0.94923 0.02954 0.0
H383 H 0.55036 0.97332 0.04699 0.0
C384 C 0.22516 0.08736 0.12766 0.0
C385 C 0.16884 0.03366 0.12352 0.0
C386 C 0.11353 0.08718 0.13226 0.0
C387 C 0.16985 0.14111 0.13563 0.0
N388 N 0.27864 0.19652 0.13192 0.0
N389 N 0.05982 -0.01808 0.11848 0.0
C390 C 0.22557 0.14246 0.13178 0.0
C391 C 0.11304 0.03344 0.12477 0.0
N392 N 0.27798 0.08537 0.12806 0.0
N393 N 0.06075 0.0874 0.13704 0.0
H394 H 0.05739 0.94057 0.1146 0.0
H395 H 0.01836 -0.01963 0.11593 0.0
H396 H 0.05955 0.12705 0.14076 0.0
H397 H 0.01852 0.04853 0.13831 0.0
H398 H 0.31993 0.12164 0.13374 0.0
H399 H 0.27959 0.04591 0.12466 0.0
H400 H 0.32037 0.2014 0.12679 0.0
H401 H 0.28037 0.23776 0.13495 0.0
C402 C 0.02379 0.13466 0.47809 0.0
C403 C 0.0241 0.19027 0.47652 0.0
C404 C 0.13426 0.24556 0.47294 0.0
C405 C 0.13335 0.18976 0.47185 0.0
N406 N 0.0793 0.08105 0.47212 0.0
N407 N 0.07698 0.29764 0.46848 0.0
C408 C 0.07863 0.13416 0.47427 0.0
C409 C 0.0786 0.24552 0.47273 0.0
N410 N -0.02891 0.08265 0.48358 0.0
N411 N 0.18842 0.29843 0.47436 0.0
H412 H 0.03691 0.29944 0.46827 0.0
H413 H 0.11453 0.33817 0.4629 0.0
H414 H 0.23009 0.2998 0.47465 0.0
H415 H 0.19223 0.34044 0.47775 0.0
H416 H -0.03111 0.04183 0.48817 0.0
H417 H 0.92925 0.08089 0.4845 0.0
H418 H 0.04042 0.03883 0.4704 0.0
H419 H 0.11953 0.07954 0.47113 0.0
C420 C 0.8884 0.04963 0.7907 0.0
C421 C 0.88917 0.10556 0.79186 0.0
C422 C 0.77943 0.05313 0.79724 0.0
C423 C 0.78028 -0.00143 0.80011 0.0
N424 N 0.83258 0.94196 0.79941 0.0
N425 N 0.83718 0.16226 0.79806 0.0
C426 C 0.83386 -0.00416 0.79636 0.0
C427 C 0.83512 0.1079 0.79557 0.0
N428 N 0.93976 0.04819 0.78414 0.0
N429 N 0.72517 0.05213 0.79626 0.0
H430 H 0.87705 0.20363 0.79667 0.0
H431 H 0.80021 0.16667 0.80355 0.0
H432 H 0.68374 0.01204 0.79726 0.0
H433 H 0.72081 0.0897 0.79191 0.0
H434 H 0.94052 0.00858 0.78003 0.0
H435 H -0.01834 0.08714 0.78157 0.0
H436 H 0.87115 0.9376 0.80033 0.0
H437 H 0.79212 0.90133 0.80193 0.0
C438 C 0.6867 0.87183 0.13723 0.0
C439 C 0.74294 0.92623 0.13553 0.0
C440 C 0.79827 0.87123 0.14051 0.0
C441 C 0.74197 0.81663 0.14067 0.0
N442 N 0.63329 0.76237 0.13502 0.0
N443 N 0.85206 -0.02057 0.13342 0.0
C444 C 0.68629 0.81615 0.13769 0.0
C445 C 0.79878 0.92642 0.13666 0.0
N446 N 0.63393 0.87365 0.13861 0.0
N447 N 0.85099 0.87 0.1447 0.0
H448 H 0.85417 0.02131 0.13251 0.0
H449 H 0.89381 -0.01795 0.13069 0.0
H450 H 0.85227 0.82978 0.14568 0.0
H451 H 0.89307 0.90832 0.1481 0.0
H452 H 0.59189 0.83613 0.14241 0.0
H453 H 0.63263 0.9138 0.13817 0.0
H454 H 0.59159 0.75874 0.13029 0.0
H455 H 0.63166 0.72075 0.1353 0.0
C456 C 0.80566 0.70648 0.47268 0.0
C457 C 0.80516 0.76162 0.47045 0.0
C458 C 0.91485 0.82 0.47749 0.0
C459 C 0.9153 0.76514 0.4805 0.0
N460 N 0.86439 0.65637 0.48046 0.0
N461 N 0.85506 0.86997 0.47383 0.0
C462 C 0.86158 0.70828 0.47776 0.0
C463 C 0.85868 0.81824 0.47377 0.0
N464 N 0.75276 0.65278 0.46935 0.0
N465 N -0.03139 0.87346 0.47756 0.0
H466 H 0.81404 0.8696 0.47133 0.0
H467 H 0.89128 0.91271 0.47832 0.0
H468 H 0.01054 0.87555 0.4797 0.0
H469 H -0.02747 0.91518 0.47342 0.0
H470 H 0.74979 0.61076 0.46806 0.0
H471 H 0.71054 0.64995 0.46747 0.0
H472 H 0.82697 0.61321 0.48146 0.0
H473 H 0.90526 0.65631 0.48196 0.0
C474 C 0.11627 0.93837 0.76856 0.0
C475 C 0.167 0.93884 0.78045 0.0
C476 C 0.10779 0.83358 0.79178 0.0
C477 C 0.05482 0.83223 0.78091 0.0
N478 N 0.01846 0.87695 0.74729 0.0
N479 N 0.21741 0.88281 0.78977 0.0
C480 C 0.06175 0.88252 0.76548 0.0
C481 C 0.16481 0.88414 0.78639 0.0
N482 N 0.11963 -0.00845 0.76149 0.0
N483 N 0.10435 0.79078 0.8093 0.0
H484 H 0.25946 0.92124 0.78659 0.0
H485 H 0.2183 0.84291 0.79308 0.0
H486 H 0.06401 0.75736 0.81737 0.0
H487 H 0.14258 0.79349 0.8187 0.0
H488 H 0.08182 -0.00524 0.75556 0.0
H489 H 0.16045 0.03251 0.76284 0.0
H490 H 0.02422 0.9122 0.73483 0.0
H491 H -0.01866 0.83553 0.74174 0.0
C492 C 0.20292 0.18321 0.319 0.0
C493 C 0.24562 0.2354 0.33345 0.0
C494 C 0.2698 0.29586 0.29226 0.0
C495 C 0.2245 0.24445 0.2782 0.0
N496 N 0.14262 0.14162 0.27803 0.0
N497 N 0.31817 0.342 0.33499 0.0
C498 C 0.18965 0.18869 0.29156 0.0
C499 C 0.27883 0.29189 0.32032 0.0
N500 N 0.17524 0.12853 0.33158 0.0
N501 N 0.30536 0.34788 0.27852 0.0
H502 H 0.32938 0.33986 0.35508 0.0
H503 H 0.33822 0.3859 0.32774 0.0
H504 H 0.29706 0.35358 0.25844 0.0
H505 H 0.34429 0.38464 0.28653 0.0
H506 H 0.14769 0.08759 0.32176 0.0
H507 H 0.18353 0.12337 0.35173 0.0
H508 H 0.11171 0.10119 0.28692 0.0
H509 H 0.13133 0.1449 0.25807 0.0
C510 C 0.9517 0.19871 0.61915 0.0
C511 C 0.95854 0.25154 0.60654 0.0
C512 C -0.01539 0.30499 0.65003 0.0
C513 C -0.01984 0.25297 0.66234 0.0
N514 N -0.02988 0.15449 0.65895 0.0
N515 N -0.01127 0.35736 0.60879 0.0
C516 C -0.03312 0.20103 0.64692 0.0
C517 C -0.02281 0.30546 0.62167 0.0
N518 N 0.93058 0.14638 0.60458 0.0
N519 N -0.00633 0.353 0.66565 0.0
H520 H -0.01964 0.35864 0.58828 0.0
H521 H 0.00937 0.39973 0.61802 0.0
H522 H 0.00295 0.35544 0.68626 0.0
H523 H -0.0106 0.38908 0.65854 0.0
H524 H 0.91869 0.10475 0.61306 0.0
H525 H 0.92061 0.14337 0.58404 0.0
H526 H -0.03364 0.1173 0.64861 0.0
H527 H -0.01794 0.15569 0.67921 0.0
C528 C 0.66482 0.01261 -0.01622 0.0
C529 C 0.70875 0.00665 -0.00077 0.0
C530 C 0.73759 0.96976 0.95969 0.0
C531 C 0.69451 -0.02317 0.94405 0.0
N532 N 0.62187 0.01132 0.93974 0.0
N533 N 0.7941 -0.0094 0.00196 0.0
C534 C 0.65961 0.00032 0.95569 0.0
C535 C 0.74742 -0.01137 -0.01289 0.0
N536 N 0.62654 0.02764 -0.00371 0.0
N537 N 0.76852 0.94446 0.94836 0.0
H538 H 0.80255 0.00522 0.02198 0.0
H539 H 0.82741 -0.01703 -0.00592 0.0
H540 H 0.76325 0.93134 0.92818 0.0
H541 H 0.79628 0.93255 0.95917 0.0
H542 H 0.58818 0.02497 -0.01285 0.0
H543 H 0.63206 0.04088 0.01646 0.0
H544 H 0.60065 0.03489 0.94617 0.0
H545 H 0.61368 -0.00083 0.91945 0.0
C546 C 0.64123 0.65798 0.28989 0.0
C547 C 0.69539 0.69636 0.27607 0.0
C548 C 0.74237 0.75211 0.31787 0.0
C549 C 0.6868 0.71614 0.33124 0.0
N550 N 0.58091 0.64111 0.32977 0.0
N551 N 0.79505 0.78441 0.27553 0.0
C552 C 0.63537 0.67103 0.31711 0.0
C553 C 0.74551 0.74453 0.28971 0.0
N554 N 0.596 0.60829 0.27695 0.0
N555 N 0.79245 0.79272 0.33231 0.0
H556 H 0.79994 0.77876 0.25511 0.0
H557 H 0.82988 0.82469 0.28355 0.0
H558 H 0.79067 0.80245 0.35256 0.0
H559 H 0.83609 0.81479 0.32466 0.0
H560 H 0.55743 0.57521 0.28636 0.0
H561 H 0.59963 0.59731 0.2571 0.0
H562 H 0.54025 0.61116 0.3201 0.0
H563 H 0.57542 0.65036 0.34964 0.0
C564 C -0.03404 0.65959 0.63231 0.0
C565 C -0.00704 0.71733 0.62007 0.0
C566 C 0.00183 0.76446 0.66414 0.0
C567 C -0.03108 0.70615 0.67577 0.0
N568 N 0.91456 0.59779 0.67082 0.0
N569 N 0.03071 0.82439 0.62347 0.0
C570 C 0.94934 0.65356 0.65977 0.0
C571 C 0.00981 0.76985 0.63578 0.0
N572 N 0.95772 0.61068 0.61766 0.0
N573 N 0.02616 0.81469 0.68031 0.0
H574 H 0.03874 0.8303 0.60289 0.0
H575 H 0.03667 0.86303 0.63332 0.0
H576 H 0.01875 0.81263 0.70094 0.0
H577 H 0.05656 0.85791 0.67362 0.0
H578 H 0.94405 0.56835 0.62582 0.0
H579 H -0.02987 0.61397 0.59759 0.0
H580 H 0.89339 0.55784 0.65964 0.0
H581 H 0.90275 0.59155 0.69104 0.0
C582 C 0.24329 0.92898 -0.02623 0.0
C583 C 0.20129 0.93914 -0.01202 0.0
C584 C 0.17423 -0.02631 0.94666 0.0
C585 C 0.21525 0.96226 0.93227 0.0
N586 N 0.28248 0.92088 0.93075 0.0
N587 N 0.11905 0.96014 -0.012 0.0
C588 C 0.24772 0.93721 0.94543 0.0
C589 C 0.16427 0.95805 -0.02566 0.0
N590 N 0.28085 0.91413 -0.01237 0.0
N591 N 0.14553 0.0002 0.93391 0.0
H592 H 0.11054 0.94806 0.00819 0.0
H593 H 0.08681 0.96858 -0.02098 0.0
H594 H 0.15091 0.01099 0.91352 0.0
H595 H 0.11964 0.01533 0.94373 0.0
H596 H 0.31798 0.91386 -0.02077 0.0
H597 H 0.27645 0.90465 0.00814 0.0
H598 H 0.30145 0.89598 0.93847 0.0
H599 H 0.28986 0.92935 0.91025 0.0
loop_
_geom_bond_atom_site_label_1
_geom_bond_atom_site_label_2
_geom_bond_distance
_geom_bond_site_symmetry_2
_ccdc_geom_bond_type
C0 O1 1.306 . S
C0 O3 1.160 . S
O1 C0 1.306 . S
O1 Cd2 2.228 . S
Cd2 O1 2.228 . S
Cd2 O6 2.273 . S
Cd2 O10 2.277 . S
O3 C0 1.160 . S
O3 Cd4 2.203 . S
Cd4 O3 2.203 . S
Cd4 O6 2.411 . S
Cd4 O7 2.333 . S
Cd4 O8 2.352 . S
Cd4 O12 2.277 . S
Cd4 O13 2.356 . S
C5 O10 1.209 . S
C5 O12 1.226 . S
O6 Cd2 2.273 . S
O6 Cd4 2.411 . S
O6 C9 1.320 . S
O7 Cd4 2.333 . S
O7 C9 1.214 . S
O8 Cd4 2.352 . S
O8 C11 1.258 . S
C9 O6 1.320 . S
C9 O7 1.214 . S
O10 Cd2 2.277 . S
O10 C5 1.209 . S
C11 O8 1.258 . S
C11 O13 1.282 . S
O12 Cd4 2.277 . S
O12 C5 1.226 . S
O13 Cd4 2.356 . S
O13 C11 1.282 . S
C14 O15 1.306 1_655 S
C14 O17 1.160 . S
O15 C14 1.306 1_455 S
O15 Cd16 2.228 . S
Cd16 O15 2.228 . S
Cd16 O20 2.273 . S
Cd16 O24 2.277 . S
O17 C14 1.160 . S
O17 Cd18 2.203 . S
Cd18 O17 2.203 . S
Cd18 O20 2.411 1_655 S
Cd18 O21 2.333 1_655 S
Cd18 O22 2.352 . S
Cd18 O26 2.277 . S
Cd18 O27 2.356 . S
C19 O24 1.209 1_655 S
C19 O26 1.226 . S
O20 Cd16 2.273 . S
O20 Cd18 2.411 1_455 S
O20 C23 1.320 . S
O21 Cd18 2.333 1_455 S
O21 C23 1.214 . S
O22 Cd18 2.352 . S
O22 C25 1.258 . S
C23 O20 1.320 . S
C23 O21 1.214 . S
O24 Cd16 2.277 . S
O24 C19 1.209 1_455 S
C25 O22 1.258 . S
C25 O27 1.282 . S
O26 Cd18 2.277 . S
O26 C19 1.226 . S
O27 Cd18 2.356 . S
O27 C25 1.282 . S
C28 O29 1.306 1_565 S
C28 O31 1.160 . S
O29 C28 1.306 1_545 S
O29 Cd30 2.228 . S
Cd30 O29 2.228 . S
Cd30 O34 2.273 . S
Cd30 O38 2.277 . S
O31 C28 1.160 . S
O31 Cd32 2.203 . S
Cd32 O31 2.203 . S
Cd32 O34 2.411 1_565 S
Cd32 O35 2.333 1_565 S
Cd32 O36 2.352 . S
Cd32 O40 2.277 . S
Cd32 O41 2.356 . S
C33 O38 1.209 1_565 S
C33 O40 1.226 . S
O34 Cd30 2.273 . S
O34 Cd32 2.411 1_545 S
O34 C37 1.320 . S
O35 Cd32 2.333 1_545 S
O35 C37 1.214 . S
O36 Cd32 2.352 . S
O36 C39 1.258 . S
C37 O34 1.320 . S
C37 O35 1.214 . S
O38 Cd30 2.277 . S
O38 C33 1.209 1_545 S
C39 O36 1.258 . S
C39 O41 1.282 . S
O40 Cd32 2.277 . S
O40 C33 1.226 . S
O41 Cd32 2.356 . S
O41 C39 1.282 . S
C42 O43 1.306 . S
C42 O45 1.160 . S
O43 C42 1.306 . S
O43 Cd44 2.228 . S
Cd44 O43 2.228 . S
Cd44 O48 2.273 . S
Cd44 O52 2.277 . S
O45 C42 1.160 . S
O45 Cd46 2.203 . S
Cd46 O45 2.203 . S
Cd46 O48 2.411 . S
Cd46 O49 2.333 . S
Cd46 O50 2.352 . S
Cd46 O54 2.277 . S
Cd46 O55 2.356 . S
C47 O52 1.209 . S
C47 O54 1.226 . S
O48 Cd44 2.273 . S
O48 Cd46 2.411 . S
O48 C51 1.320 . S
O49 Cd46 2.333 . S
O49 C51 1.214 . S
O50 Cd46 2.352 . S
O50 C53 1.258 . S
C51 O48 1.320 . S
C51 O49 1.214 . S
O52 Cd44 2.277 . S
O52 C47 1.209 . S
C53 O50 1.258 . S
C53 O55 1.282 . S
O54 Cd46 2.277 . S
O54 C47 1.226 . S
O55 Cd46 2.356 . S
O55 C53 1.282 . S
C56 O57 1.306 1_455 S
C56 O59 1.160 . S
O57 C56 1.306 1_655 S
O57 Cd58 2.228 . S
Cd58 O57 2.228 . S
Cd58 O62 2.273 . S
Cd58 O66 2.277 . S
O59 C56 1.160 . S
O59 Cd60 2.203 . S
Cd60 O59 2.203 . S
Cd60 O62 2.411 1_455 S
Cd60 O63 2.333 1_455 S
Cd60 O64 2.352 . S
Cd60 O68 2.277 . S
Cd60 O69 2.356 . S
C61 O66 1.209 1_455 S
C61 O68 1.226 . S
O62 Cd58 2.273 . S
O62 Cd60 2.411 1_655 S
O62 C65 1.320 . S
O63 Cd60 2.333 1_655 S
O63 C65 1.214 . S
O64 Cd60 2.352 . S
O64 C67 1.258 . S
C65 O62 1.320 . S
C65 O63 1.214 . S
O66 Cd58 2.277 . S
O66 C61 1.209 1_655 S
C67 O64 1.258 . S
C67 O69 1.282 . S
O68 Cd60 2.277 . S
O68 C61 1.226 . S
O69 Cd60 2.356 . S
O69 C67 1.282 . S
C70 O71 1.306 1_545 S
C70 O73 1.160 . S
O71 C70 1.306 1_565 S
O71 Cd72 2.228 . S
Cd72 O71 2.228 . S
Cd72 O76 2.273 . S
Cd72 O80 2.277 . S
O73 C70 1.160 . S
O73 Cd74 2.203 . S
Cd74 O73 2.203 . S
Cd74 O76 2.411 1_545 S
Cd74 O77 2.333 1_545 S
Cd74 O78 2.352 . S
Cd74 O82 2.277 . S
Cd74 O83 2.356 . S
C75 O80 1.209 1_545 S
C75 O82 1.226 . S
O76 Cd72 2.273 . S
O76 Cd74 2.411 1_565 S
O76 C79 1.320 . S
O77 Cd74 2.333 1_565 S
O77 C79 1.214 . S
O78 Cd74 2.352 . S
O78 C81 1.258 . S
C79 O76 1.320 . S
C79 O77 1.214 . S
O80 Cd72 2.277 . S
O80 C75 1.209 1_565 S
C81 O78 1.258 . S
C81 O83 1.282 . S
O82 Cd74 2.277 . S
O82 C75 1.226 . S
O83 Cd74 2.356 . S
O83 C81 1.282 . S
C84 O85 1.306 . S
C84 O87 1.160 . S
O85 C84 1.306 . S
O85 Cd86 2.228 . S
Cd86 O85 2.228 . S
Cd86 O90 2.273 . S
Cd86 O94 2.277 . S
O87 C84 1.160 . S
O87 Cd88 2.203 . S
Cd88 O87 2.203 . S
Cd88 O90 2.411 . S
Cd88 O91 2.333 . S
Cd88 O92 2.352 . S
Cd88 O96 2.277 . S
Cd88 O97 2.356 . S
C89 O94 1.209 . S
C89 O96 1.226 . S
O90 Cd86 2.273 . S
O90 Cd88 2.411 . S
O90 C93 1.320 . S
O91 Cd88 2.333 . S
O91 C93 1.214 . S
O92 Cd88 2.352 . S
O92 C95 1.258 . S
C93 O90 1.320 . S
C93 O91 1.214 . S
O94 Cd86 2.277 . S
O94 C89 1.209 . S
C95 O92 1.258 . S
C95 O97 1.282 . S
O96 Cd88 2.277 . S
O96 C89 1.226 . S
O97 Cd88 2.356 . S
O97 C95 1.282 . S
C98 O99 1.306 1_655 S
C98 O101 1.160 . S
O99 C98 1.306 1_455 S
O99 Cd100 2.228 . S
Cd100 O99 2.228 . S
Cd100 O104 2.273 . S
Cd100 O108 2.277 . S
O101 C98 1.160 . S
O101 Cd102 2.203 . S
Cd102 O101 2.203 . S
Cd102 O104 2.411 1_655 S
Cd102 O105 2.333 1_655 S
Cd102 O106 2.352 . S
Cd102 O110 2.277 . S
Cd102 O111 2.356 . S
C103 O108 1.209 1_655 S
C103 O110 1.226 . S
O104 Cd100 2.273 . S
O104 Cd102 2.411 1_455 S
O104 C107 1.320 . S
O105 Cd102 2.333 1_455 S
O105 C107 1.214 . S
O106 Cd102 2.352 . S
O106 C109 1.258 . S
C107 O104 1.320 . S
C107 O105 1.214 . S
O108 Cd100 2.277 . S
O108 C103 1.209 1_455 S
C109 O106 1.258 . S
C109 O111 1.282 . S
O110 Cd102 2.277 . S
O110 C103 1.226 . S
O111 Cd102 2.356 . S
O111 C109 1.282 . S
C112 O113 1.306 1_565 S
C112 O115 1.160 . S
O113 C112 1.306 1_545 S
O113 Cd114 2.228 . S
Cd114 O113 2.228 . S
Cd114 O118 2.273 . S
Cd114 O122 2.277 . S
O115 C112 1.160 . S
O115 Cd116 2.203 . S
Cd116 O115 2.203 . S
Cd116 O118 2.411 1_565 S
Cd116 O119 2.333 1_565 S
Cd116 O120 2.352 . S
Cd116 O124 2.277 . S
Cd116 O125 2.356 . S
C117 O122 1.209 1_565 S
C117 O124 1.226 . S
O118 Cd114 2.273 . S
O118 Cd116 2.411 1_545 S
O118 C121 1.320 . S
O119 Cd116 2.333 1_545 S
O119 C121 1.214 . S
O120 Cd116 2.352 . S
O120 C123 1.258 . S
C121 O118 1.320 . S
C121 O119 1.214 . S
O122 Cd114 2.277 . S
O122 C117 1.209 1_545 S
C123 O120 1.258 . S
C123 O125 1.282 . S
O124 Cd116 2.277 . S
O124 C117 1.226 . S
O125 Cd116 2.356 . S
O125 C123 1.282 . S
C126 O127 1.306 . S
C126 O129 1.160 . S
O127 C126 1.306 . S
O127 Cd128 2.228 . S
Cd128 O127 2.228 . S
Cd128 O132 2.273 . S
Cd128 O136 2.277 . S
O129 C126 1.160 . S
O129 Cd130 2.203 . S
Cd130 O129 2.203 . S
Cd130 O132 2.411 . S
Cd130 O133 2.333 . S
Cd130 O134 2.352 . S
Cd130 O138 2.277 . S
Cd130 O139 2.356 . S
C131 O136 1.209 . S
C131 O138 1.226 . S
O132 Cd128 2.273 . S
O132 Cd130 2.411 . S
O132 C135 1.320 . S
O133 Cd130 2.333 . S
O133 C135 1.214 . S
O134 Cd130 2.352 . S
O134 C137 1.258 . S
C135 O132 1.320 . S
C135 O133 1.214 . S
O136 Cd128 2.277 . S
O136 C131 1.209 . S
C137 O134 1.258 . S
C137 O139 1.282 . S
O138 Cd130 2.277 . S
O138 C131 1.226 . S
O139 Cd130 2.356 . S
O139 C137 1.282 . S
C140 O141 1.306 1_455 S
C140 O143 1.160 . S
O141 C140 1.306 1_655 S
O141 Cd142 2.228 . S
Cd142 O141 2.228 . S
Cd142 O146 2.273 . S
Cd142 O150 2.277 . S
O143 C140 1.160 . S
O143 Cd144 2.203 . S
Cd144 O143 2.203 . S
Cd144 O146 2.411 1_455 S
Cd144 O147 2.333 1_455 S
Cd144 O148 2.352 . S
Cd144 O152 2.277 . S
Cd144 O153 2.356 . S
C145 O150 1.209 1_455 S
C145 O152 1.226 . S
O146 Cd142 2.273 . S
O146 Cd144 2.411 1_655 S
O146 C149 1.320 . S
O147 Cd144 2.333 1_655 S
O147 C149 1.214 . S
O148 Cd144 2.352 . S
O148 C151 1.258 . S
C149 O146 1.320 . S
C149 O147 1.214 . S
O150 Cd142 2.277 . S
O150 C145 1.209 1_655 S
C151 O148 1.258 . S
C151 O153 1.282 . S
O152 Cd144 2.277 . S
O152 C145 1.226 . S
O153 Cd144 2.356 . S
O153 C151 1.282 . S
C154 O155 1.306 1_545 S
C154 O157 1.160 . S
O155 C154 1.306 1_565 S
O155 Cd156 2.228 . S
Cd156 O155 2.228 . S
Cd156 O160 2.273 . S
Cd156 O164 2.277 . S
O157 C154 1.160 . S
O157 Cd158 2.203 . S
Cd158 O157 2.203 . S
Cd158 O160 2.411 1_545 S
Cd158 O161 2.333 1_545 S
Cd158 O162 2.352 . S
Cd158 O166 2.277 . S
Cd158 O167 2.356 . S
C159 O164 1.209 1_545 S
C159 O166 1.226 . S
O160 Cd156 2.273 . S
O160 Cd158 2.411 1_565 S
O160 C163 1.320 . S
O161 Cd158 2.333 1_565 S
O161 C163 1.214 . S
O162 Cd158 2.352 . S
O162 C165 1.258 . S
C163 O160 1.320 . S
C163 O161 1.214 . S
O164 Cd156 2.277 . S
O164 C159 1.209 1_565 S
C165 O162 1.258 . S
C165 O167 1.282 . S
O166 Cd158 2.277 . S
O166 C159 1.226 . S
O167 Cd158 2.356 . S
O167 C165 1.282 . S
C168 C169 1.363 . S
C168 C174 1.379 1_655 S
C168 N176 1.356 . S
C169 C168 1.363 . S
C169 C175 1.363 . S
C170 C171 1.363 . S
C170 C175 1.379 1_455 S
C170 N177 1.356 . S
C171 C170 1.363 . S
C171 C174 1.363 . S
N172 C174 1.356 . S
N172 H184 0.984 . S
N172 H185 0.985 . S
N173 C175 1.356 . S
N173 H178 0.984 . S
N173 H179 0.985 . S
C174 C168 1.379 1_455 S
C174 C171 1.363 . S
C174 N172 1.356 . S
C175 C169 1.363 . S
C175 C170 1.379 1_655 S
C175 N173 1.356 . S
N176 C168 1.356 . S
N176 H182 0.983 1_655 S
N176 H183 0.984 . S
N177 C170 1.356 . S
N177 H180 0.984 . S
N177 H181 0.983 1_455 S
H178 N173 0.984 . S
H179 N173 0.985 . S
H180 N177 0.984 . S
H181 N177 0.983 1_655 S
H182 N176 0.983 1_455 S
H183 N176 0.984 . S
H184 N172 0.984 . S
H185 N172 0.985 . S
C186 C187 1.363 . S
C186 C192 1.379 1_545 S
C186 N194 1.356 . S
C187 C186 1.363 . S
C187 C193 1.363 . S
C188 C189 1.363 . S
C188 C193 1.379 1_565 S
C188 N195 1.356 . S
C189 C188 1.363 . S
C189 C192 1.363 . S
N190 C192 1.356 . S
N190 H202 0.984 . S
N190 H203 0.985 . S
N191 C193 1.356 . S
N191 H196 0.984 . S
N191 H197 0.985 . S
C192 C186 1.379 1_565 S
C192 C189 1.363 . S
C192 N190 1.356 . S
C193 C187 1.363 . S
C193 C188 1.379 1_545 S
C193 N191 1.356 . S
N194 C186 1.356 . S
N194 H200 0.984 . S
N194 H201 0.984 . S
N195 C188 1.356 . S
N195 H198 0.984 . S
N195 H199 0.985 . S
H196 N191 0.984 . S
H197 N191 0.985 . S
H198 N195 0.984 . S
H199 N195 0.985 . S
H200 N194 0.984 . S
H201 N194 0.984 . S
H202 N190 0.984 . S
H203 N190 0.985 . S
C204 C205 1.363 . S
C204 C210 1.379 . S
C204 N212 1.356 . S
C205 C204 1.363 . S
C205 C211 1.363 . S
C206 C207 1.363 . S
C206 C211 1.379 . S
C206 N213 1.356 . S
C207 C206 1.363 . S
C207 C210 1.363 . S
N208 C210 1.356 . S
N208 H220 0.984 . S
N208 H221 0.985 . S
N209 C211 1.356 . S
N209 H214 0.984 . S
N209 H215 0.985 . S
C210 C204 1.379 . S
C210 C207 1.363 . S
C210 N208 1.356 . S
C211 C205 1.363 . S
C211 C206 1.379 . S
C211 N209 1.356 . S
N212 C204 1.356 . S
N212 H218 0.984 . S
N212 H219 0.984 . S
N213 C206 1.356 . S
N213 H216 0.984 . S
N213 H217 0.985 . S
H214 N209 0.984 . S
H215 N209 0.985 . S
H216 N213 0.984 . S
H217 N213 0.985 . S
H218 N212 0.984 . S
H219 N212 0.984 . S
H220 N208 0.984 . S
H221 N208 0.985 . S
C222 C223 1.363 . S
C222 C228 1.379 1_655 S
C222 N230 1.356 . S
C223 C222 1.363 . S
C223 C229 1.363 . S
C224 C225 1.363 . S
C224 C229 1.379 1_455 S
C224 N231 1.356 . S
C225 C224 1.363 . S
C225 C228 1.363 . S
N226 C228 1.356 . S
N226 H238 0.984 . S
N226 H239 0.985 . S
N227 C229 1.356 . S
N227 H232 0.984 . S
N227 H233 0.985 . S
C228 C222 1.379 1_455 S
C228 C225 1.363 . S
C228 N226 1.356 . S
C229 C223 1.363 . S
C229 C224 1.379 1_655 S
C229 N227 1.356 . S
N230 C222 1.356 . S
N230 H236 0.984 . S
N230 H237 0.984 . S
N231 C224 1.356 . S
N231 H234 0.984 . S
N231 H235 0.985 . S
H232 N227 0.984 . S
H233 N227 0.985 . S
H234 N231 0.984 . S
H235 N231 0.985 . S
H236 N230 0.984 . S
H237 N230 0.984 . S
H238 N226 0.984 . S
H239 N226 0.985 . S
C240 C241 1.363 . S
C240 C246 1.379 1_545 S
C240 N248 1.356 . S
C241 C240 1.363 . S
C241 C247 1.363 . S
C242 C243 1.363 . S
C242 C247 1.379 1_565 S
C242 N249 1.356 . S
C243 C242 1.363 . S
C243 C246 1.363 . S
N244 C246 1.356 . S
N244 H256 0.984 . S
N244 H257 0.985 . S
N245 C247 1.356 . S
N245 H250 0.984 . S
N245 H251 0.985 . S
C246 C240 1.379 1_565 S
C246 C243 1.363 . S
C246 N244 1.356 . S
C247 C241 1.363 . S
C247 C242 1.379 1_545 S
C247 N245 1.356 . S
N248 C240 1.356 . S
N248 H254 0.984 . S
N248 H255 0.984 . S
N249 C242 1.356 . S
N249 H252 0.984 . S
N249 H253 0.985 . S
H250 N245 0.984 . S
H251 N245 0.985 . S
H252 N249 0.984 . S
H253 N249 0.985 . S
H254 N248 0.984 . S
H255 N248 0.984 . S
H256 N244 0.984 . S
H257 N244 0.985 . S
C258 C259 1.363 . S
C258 C264 1.379 . S
C258 N266 1.356 . S
C259 C258 1.363 . S
C259 C265 1.363 . S
C260 C261 1.363 . S
C260 C265 1.379 . S
C260 N267 1.356 . S
C261 C260 1.363 . S
C261 C264 1.363 . S
N262 C264 1.356 . S
N262 H274 0.984 . S
N262 H275 0.985 . S
N263 C265 1.356 . S
N263 H268 0.984 . S
N263 H269 0.985 . S
C264 C258 1.379 . S
C264 C261 1.363 . S
C264 N262 1.356 . S
C265 C259 1.363 . S
C265 C260 1.379 . S
C265 N263 1.356 . S
N266 C258 1.356 . S
N266 H272 0.984 . S
N266 H273 0.984 . S
N267 C260 1.356 . S
N267 H270 0.984 . S
N267 H271 0.985 . S
H268 N263 0.984 . S
H269 N263 0.985 . S
H270 N267 0.984 . S
H271 N267 0.985 . S
H272 N266 0.984 . S
H273 N266 0.984 . S
H274 N262 0.984 . S
H275 N262 0.985 . S
C276 C277 1.363 . S
C276 C282 1.379 . S
C276 N284 1.356 . S
C277 C276 1.363 . S
C277 C283 1.363 . S
C278 C279 1.363 . S
C278 C283 1.379 . S
C278 N285 1.356 . S
C279 C278 1.363 . S
C279 C282 1.363 . S
N280 C282 1.356 . S
N280 H292 0.984 . S
N280 H293 0.985 . S
N281 C283 1.356 . S
N281 H286 0.984 . S
N281 H287 0.985 . S
C282 C276 1.379 . S
C282 C279 1.363 . S
C282 N280 1.356 . S
C283 C277 1.363 . S
C283 C278 1.379 . S
C283 N281 1.356 . S
N284 C276 1.356 . S
N284 H290 0.984 . S
N284 H291 0.984 . S
N285 C278 1.356 . S
N285 H288 0.984 . S
N285 H289 0.985 . S
H286 N281 0.984 . S
H287 N281 0.985 . S
H288 N285 0.984 . S
H289 N285 0.985 . S
H290 N284 0.984 . S
H291 N284 0.984 . S
H292 N280 0.984 . S
H293 N280 0.985 . S
C294 C295 1.363 . S
C294 C300 1.379 . S
C294 N302 1.356 . S
C295 C294 1.363 . S
C295 C301 1.363 1_455 S
C296 C297 1.363 . S
C296 C301 1.379 . S
C296 N303 1.356 . S
C297 C296 1.363 . S
C297 C300 1.363 1_655 S
N298 C300 1.356 . S
N298 H310 0.984 . S
N298 H311 0.985 . S
N299 C301 1.356 . S
N299 H304 0.984 . S
N299 H305 0.985 . S
C300 C294 1.379 . S
C300 C297 1.363 1_455 S
C300 N298 1.356 . S
C301 C295 1.363 1_655 S
C301 C296 1.379 . S
C301 N299 1.356 . S
N302 C294 1.356 . S
N302 H308 0.984 . S
N302 H309 0.984 . S
N303 C296 1.356 . S
N303 H306 0.984 . S
N303 H307 0.985 . S
H304 N299 0.984 . S
H305 N299 0.985 . S
H306 N303 0.984 . S
H307 N303 0.985 . S
H308 N302 0.984 . S
H309 N302 0.984 . S
H310 N298 0.984 . S
H311 N298 0.985 . S
C312 C313 1.363 1_565 S
C312 C318 1.379 . S
C312 N320 1.356 . S
C313 C312 1.363 1_545 S
C313 C319 1.363 . S
C314 C315 1.363 1_545 S
C314 C319 1.379 . S
C314 N321 1.356 . S
C315 C314 1.363 1_565 S
C315 C318 1.363 . S
N316 C318 1.356 . S
N316 H328 0.984 . S
N316 H329 0.985 . S
N317 C319 1.356 . S
N317 H322 0.984 . S
N317 H323 0.985 . S
C318 C312 1.379 . S
C318 C315 1.363 . S
C318 N316 1.356 . S
C319 C313 1.363 . S
C319 C314 1.379 . S
C319 N317 1.356 . S
N320 C312 1.356 . S
N320 H326 0.984 . S
N320 H327 0.984 . S
N321 C314 1.356 . S
N321 H324 0.984 . S
N321 H325 0.985 . S
H322 N317 0.984 . S
H323 N317 0.985 . S
H324 N321 0.984 . S
H325 N321 0.985 . S
H326 N320 0.984 . S
H327 N320 0.984 . S
H328 N316 0.984 . S
H329 N316 0.985 . S
C330 C331 1.363 . S
C330 C336 1.379 . S
C330 N338 1.356 . S
C331 C330 1.363 . S
C331 C337 1.363 . S
C332 C333 1.363 . S
C332 C337 1.379 . S
C332 N339 1.356 . S
C333 C332 1.363 . S
C333 C336 1.363 . S
N334 C336 1.356 . S
N334 H346 0.984 . S
N334 H347 0.985 . S
N335 C337 1.356 . S
N335 H340 0.984 . S
N335 H341 0.985 . S
C336 C330 1.379 . S
C336 C333 1.363 . S
C336 N334 1.356 . S
C337 C331 1.363 . S
C337 C332 1.379 . S
C337 N335 1.356 . S
N338 C330 1.356 . S
N338 H344 0.984 . S
N338 H345 0.984 . S
N339 C332 1.356 . S
N339 H342 0.984 . S
N339 H343 0.985 . S
H340 N335 0.984 . S
H341 N335 0.985 . S
H342 N339 0.984 . S
H343 N339 0.985 . S
H344 N338 0.984 . S
H345 N338 0.984 . S
H346 N334 0.984 . S
H347 N334 0.985 . S
C348 C349 1.363 . S
C348 C354 1.379 . S
C348 N356 1.356 . S
C349 C348 1.363 . S
C349 C355 1.363 1_655 S
C350 C351 1.363 . S
C350 C355 1.379 . S
C350 N357 1.356 . S
C351 C350 1.363 . S
C351 C354 1.363 1_455 S
N352 C354 1.356 . S
N352 H364 0.984 . S
N352 H365 0.985 . S
N353 C355 1.356 . S
N353 H358 0.984 . S
N353 H359 0.985 . S
C354 C348 1.379 . S
C354 C351 1.363 1_655 S
C354 N352 1.356 . S
C355 C349 1.363 1_455 S
C355 C350 1.379 . S
C355 N353 1.356 . S
N356 C348 1.356 . S
N356 H362 0.984 . S
N356 H363 0.984 . S
N357 C350 1.356 . S
N357 H360 0.984 . S
N357 H361 0.985 . S
H358 N353 0.984 . S
H359 N353 0.985 . S
H360 N357 0.984 . S
H361 N357 0.985 . S
H362 N356 0.984 . S
H363 N356 0.984 . S
H364 N352 0.984 . S
H365 N352 0.985 . S
C366 C367 1.363 . S
C366 C372 1.379 . S
C366 N374 1.356 . S
C367 C366 1.363 . S
C367 C373 1.363 1_565 S
C368 C369 1.363 . S
C368 C373 1.379 . S
C368 N375 1.356 . S
C369 C368 1.363 . S
C369 C372 1.363 1_545 S
N370 C372 1.356 . S
N370 H382 0.984 . S
N370 H383 0.985 . S
N371 C373 1.356 . S
N371 H376 0.984 . S
N371 H377 0.985 . S
C372 C366 1.379 . S
C372 C369 1.363 1_565 S
C372 N370 1.356 . S
C373 C367 1.363 1_545 S
C373 C368 1.379 . S
C373 N371 1.356 . S
N374 C366 1.356 . S
N374 H380 0.984 . S
N374 H381 0.984 . S
N375 C368 1.356 . S
N375 H378 0.984 . S
N375 H379 0.985 . S
H376 N371 0.984 . S
H377 N371 0.985 . S
H378 N375 0.984 . S
H379 N375 0.985 . S
H380 N374 0.984 . S
H381 N374 0.984 . S
H382 N370 0.984 . S
H383 N370 0.985 . S
C384 C385 1.363 . S
C384 C390 1.379 . S
C384 N392 1.356 . S
C385 C384 1.363 . S
C385 C391 1.363 . S
C386 C387 1.363 . S
C386 C391 1.379 . S
C386 N393 1.356 . S
C387 C386 1.363 . S
C387 C390 1.363 . S
N388 C390 1.356 . S
N388 H400 0.984 . S
N388 H401 0.985 . S
N389 C391 1.356 . S
N389 H394 0.984 . S
N389 H395 0.985 . S
C390 C384 1.379 . S
C390 C387 1.363 . S
C390 N388 1.356 . S
C391 C385 1.363 . S
C391 C386 1.379 . S
C391 N389 1.356 . S
N392 C384 1.356 . S
N392 H398 0.984 . S
N392 H399 0.984 . S
N393 C386 1.356 . S
N393 H396 0.984 . S
N393 H397 0.985 . S
H394 N389 0.984 . S
H395 N389 0.985 . S
H396 N393 0.984 . S
H397 N393 0.985 . S
H398 N392 0.984 . S
H399 N392 0.984 . S
H400 N388 0.984 . S
H401 N388 0.985 . S
C402 C403 1.363 . S
C402 C408 1.379 . S
C402 N410 1.356 . S
C403 C402 1.363 . S
C403 C409 1.363 . S
C404 C405 1.363 . S
C404 C409 1.379 . S
C404 N411 1.356 . S
C405 C404 1.363 . S
C405 C408 1.363 . S
N406 C408 1.356 . S
N406 H418 0.984 . S
N406 H419 0.985 . S
N407 C409 1.356 . S
N407 H412 0.984 . S
N407 H413 0.985 . S
C408 C402 1.379 . S
C408 C405 1.363 . S
C408 N406 1.356 . S
C409 C403 1.363 . S
C409 C404 1.379 . S
C409 N407 1.356 . S
N410 C402 1.356 . S
N410 H416 0.984 . S
N410 H417 0.984 . S
N411 C404 1.356 . S
N411 H414 0.984 . S
N411 H415 0.985 . S
H412 N407 0.984 . S
H413 N407 0.985 . S
H414 N411 0.984 . S
H415 N411 0.985 . S
H416 N410 0.984 . S
H417 N410 0.984 . S
H418 N406 0.984 . S
H419 N406 0.985 . S
C420 C421 1.363 . S
C420 C426 1.379 . S
C420 N428 1.356 . S
C421 C420 1.363 . S
C421 C427 1.363 . S
C422 C423 1.363 . S
C422 C427 1.379 . S
C422 N429 1.356 . S
C423 C422 1.363 . S
C423 C426 1.363 . S
N424 C426 1.356 . S
N424 H436 0.984 . S
N424 H437 0.985 . S
N425 C427 1.356 . S
N425 H430 0.984 . S
N425 H431 0.985 . S
C426 C420 1.379 . S
C426 C423 1.363 . S
C426 N424 1.356 . S
C427 C421 1.363 . S
C427 C422 1.379 . S
C427 N425 1.356 . S
N428 C420 1.356 . S
N428 H434 0.984 . S
N428 H435 0.979 1_655 S
N429 C422 1.356 . S
N429 H432 0.984 . S
N429 H433 0.985 . S
H430 N425 0.984 . S
H431 N425 0.985 . S
H432 N429 0.984 . S
H433 N429 0.985 . S
H434 N428 0.984 . S
H435 N428 0.979 1_455 S
H436 N424 0.984 . S
H437 N424 0.985 . S
C438 C439 1.363 . S
C438 C444 1.379 . S
C438 N446 1.356 . S
C439 C438 1.363 . S
C439 C445 1.363 . S
C440 C441 1.363 . S
C440 C445 1.379 . S
C440 N447 1.356 . S
C441 C440 1.363 . S
C441 C444 1.363 . S
N442 C444 1.356 . S
N442 H454 0.984 . S
N442 H455 0.985 . S
N443 C445 1.356 . S
N443 H448 0.984 1_565 S
N443 H449 0.985 . S
C444 C438 1.379 . S
C444 C441 1.363 . S
C444 N442 1.356 . S
C445 C439 1.363 . S
C445 C440 1.379 . S
C445 N443 1.356 . S
N446 C438 1.356 . S
N446 H452 0.984 . S
N446 H453 0.984 . S
N447 C440 1.356 . S
N447 H450 0.984 . S
N447 H451 0.985 . S
H448 N443 0.984 1_545 S
H449 N443 0.985 . S
H450 N447 0.984 . S
H451 N447 0.985 . S
H452 N446 0.984 . S
H453 N446 0.984 . S
H454 N442 0.984 . S
H455 N442 0.985 . S
C456 C457 1.363 . S
C456 C462 1.379 . S
C456 N464 1.356 . S
C457 C456 1.363 . S
C457 C463 1.363 . S
C458 C459 1.363 . S
C458 C463 1.379 . S
C458 N465 1.356 . S
C459 C458 1.363 . S
C459 C462 1.363 . S
N460 C462 1.356 . S
N460 H472 0.984 . S
N460 H473 0.985 . S
N461 C463 1.356 . S
N461 H466 0.984 . S
N461 H467 0.985 . S
C462 C456 1.379 . S
C462 C459 1.363 . S
C462 N460 1.356 . S
C463 C457 1.363 . S
C463 C458 1.379 . S
C463 N461 1.356 . S
N464 C456 1.356 . S
N464 H470 0.984 . S
N464 H471 0.984 . S
N465 C458 1.356 . S
N465 H468 0.984 1_655 S
N465 H469 0.985 . S
H466 N461 0.984 . S
H467 N461 0.985 . S
H468 N465 0.984 1_455 S
H469 N465 0.985 . S
H470 N464 0.984 . S
H471 N464 0.984 . S
H472 N460 0.984 . S
H473 N460 0.985 . S
C474 C475 1.363 . S
C474 C480 1.379 . S
C474 N482 1.356 . S
C475 C474 1.363 . S
C475 C481 1.363 . S
C476 C477 1.363 . S
C476 C481 1.379 . S
C476 N483 1.356 . S
C477 C476 1.363 . S
C477 C480 1.363 . S
N478 C480 1.356 . S
N478 H490 0.984 . S
N478 H491 0.985 . S
N479 C481 1.356 . S
N479 H484 0.984 . S
N479 H485 0.985 . S
C480 C474 1.379 . S
C480 C477 1.363 . S
C480 N478 1.356 . S
C481 C475 1.363 . S
C481 C476 1.379 . S
C481 N479 1.356 . S
N482 C474 1.356 . S
N482 H488 0.984 . S
N482 H489 0.984 . S
N483 C476 1.356 . S
N483 H486 0.984 . S
N483 H487 0.985 . S
H484 N479 0.984 . S
H485 N479 0.985 . S
H486 N483 0.984 . S
H487 N483 0.985 . S
H488 N482 0.984 . S
H489 N482 0.984 . S
H490 N478 0.984 . S
H491 N478 0.985 . S
C492 C493 1.363 . S
C492 C498 1.379 . S
C492 N500 1.356 . S
C493 C492 1.363 . S
C493 C499 1.363 . S
C494 C495 1.363 . S
C494 C499 1.379 . S
C494 N501 1.356 . S
C495 C494 1.363 . S
C495 C498 1.363 . S
N496 C498 1.356 . S
N496 H508 0.984 . S
N496 H509 0.985 . S
N497 C499 1.356 . S
N497 H502 0.984 . S
N497 H503 0.985 . S
C498 C492 1.379 . S
C498 C495 1.363 . S
C498 N496 1.356 . S
C499 C493 1.363 . S
C499 C494 1.379 . S
C499 N497 1.356 . S
N500 C492 1.356 . S
N500 H506 0.984 . S
N500 H507 0.984 . S
N501 C494 1.356 . S
N501 H504 0.984 . S
N501 H505 0.985 . S
H502 N497 0.984 . S
H503 N497 0.985 . S
H504 N501 0.984 . S
H505 N501 0.985 . S
H506 N500 0.984 . S
H507 N500 0.984 . S
H508 N496 0.984 . S
H509 N496 0.985 . S
C510 C511 1.363 . S
C510 C516 1.379 . S
C510 N518 1.356 . S
C511 C510 1.363 . S
C511 C517 1.363 1_655 S
C512 C513 1.363 . S
C512 C517 1.379 . S
C512 N519 1.356 . S
C513 C512 1.363 . S
C513 C516 1.363 1_455 S
N514 C516 1.356 . S
N514 H526 0.984 . S
N514 H527 0.985 . S
N515 C517 1.356 . S
N515 H520 0.984 . S
N515 H521 0.985 . S
C516 C510 1.379 . S
C516 C513 1.363 1_655 S
C516 N514 1.356 . S
C517 C511 1.363 1_455 S
C517 C512 1.379 . S
C517 N515 1.356 . S
N518 C510 1.356 . S
N518 H524 0.984 . S
N518 H525 0.984 . S
N519 C512 1.356 . S
N519 H522 0.984 . S
N519 H523 0.985 . S
H520 N515 0.984 . S
H521 N515 0.985 . S
H522 N519 0.984 . S
H523 N519 0.985 . S
H524 N518 0.984 . S
H525 N518 0.984 . S
H526 N514 0.984 . S
H527 N514 0.985 . S
C528 C529 1.363 . S
C528 C534 1.379 1_554 S
C528 N536 1.356 . S
C529 C528 1.363 . S
C529 C535 1.363 1_545 S
C530 C531 1.363 . S
C530 C535 1.379 1_556 S
C530 N537 1.356 . S
C531 C530 1.363 . S
C531 C534 1.363 1_565 S
N532 C534 1.356 . S
N532 H544 0.984 . S
N532 H545 0.985 . S
N533 C535 1.356 . S
N533 H538 0.984 . S
N533 H539 0.985 . S
C534 C528 1.379 1_556 S
C534 C531 1.363 1_545 S
C534 N532 1.356 . S
C535 C529 1.363 1_565 S
C535 C530 1.379 1_554 S
C535 N533 1.356 . S
N536 C528 1.356 . S
N536 H542 0.984 . S
N536 H543 0.984 . S
N537 C530 1.356 . S
N537 H540 0.984 . S
N537 H541 0.985 . S
H538 N533 0.984 . S
H539 N533 0.985 . S
H540 N537 0.984 . S
H541 N537 0.985 . S
H542 N536 0.984 . S
H543 N536 0.984 . S
H544 N532 0.984 . S
H545 N532 0.985 . S
C546 C547 1.363 . S
C546 C552 1.379 . S
C546 N554 1.356 . S
C547 C546 1.363 . S
C547 C553 1.363 . S
C548 C549 1.363 . S
C548 C553 1.379 . S
C548 N555 1.356 . S
C549 C548 1.363 . S
C549 C552 1.363 . S
N550 C552 1.356 . S
N550 H562 0.984 . S
N550 H563 0.985 . S
N551 C553 1.356 . S
N551 H556 0.984 . S
N551 H557 0.985 . S
C552 C546 1.379 . S
C552 C549 1.363 . S
C552 N550 1.356 . S
C553 C547 1.363 . S
C553 C548 1.379 . S
C553 N551 1.356 . S
N554 C546 1.356 . S
N554 H560 0.984 . S
N554 H561 0.984 . S
N555 C548 1.356 . S
N555 H558 0.984 . S
N555 H559 0.985 . S
H556 N551 0.984 . S
H557 N551 0.985 . S
H558 N555 0.984 . S
H559 N555 0.985 . S
H560 N554 0.984 . S
H561 N554 0.984 . S
H562 N550 0.984 . S
H563 N550 0.985 . S
C564 C565 1.363 1_655 S
C564 C570 1.379 . S
C564 N572 1.356 . S
C565 C564 1.363 1_455 S
C565 C571 1.363 . S
C566 C567 1.363 1_455 S
C566 C571 1.379 . S
C566 N573 1.356 . S
C567 C566 1.363 1_655 S
C567 C570 1.363 . S
N568 C570 1.356 . S
N568 H580 0.984 . S
N568 H581 0.985 . S
N569 C571 1.356 . S
N569 H574 0.984 . S
N569 H575 0.985 . S
C570 C564 1.379 . S
C570 C567 1.363 . S
C570 N568 1.356 . S
C571 C565 1.363 . S
C571 C566 1.379 . S
C571 N569 1.356 . S
N572 C564 1.356 . S
N572 H578 0.984 . S
N572 H579 0.984 . S
N573 C566 1.356 . S
N573 H576 0.984 . S
N573 H577 0.985 . S
H574 N569 0.984 . S
H575 N569 0.985 . S
H576 N573 0.984 . S
H577 N573 0.985 . S
H578 N572 0.984 . S
H579 N572 0.984 . S
H580 N568 0.984 . S
H581 N568 0.985 . S
C582 C583 1.363 . S
C582 C588 1.379 1_554 S
C582 N590 1.356 . S
C583 C582 1.363 . S
C583 C589 1.363 1_565 S
C584 C585 1.363 . S
C584 C589 1.379 1_556 S
C584 N591 1.356 . S
C585 C584 1.363 . S
C585 C588 1.363 1_545 S
N586 C588 1.356 . S
N586 H598 0.984 . S
N586 H599 0.985 . S
N587 C589 1.356 . S
N587 H592 0.984 . S
N587 H593 0.985 . S
C588 C582 1.379 1_556 S
C588 C585 1.363 1_565 S
C588 N586 1.356 . S
C589 C583 1.363 1_545 S
C589 C584 1.379 1_554 S
C589 N587 1.356 . S
N590 C582 1.356 . S
N590 H596 0.984 . S
N590 H597 0.984 . S
N591 C584 1.356 . S
N591 H594 0.984 . S
N591 H595 0.985 . S
H592 N587 0.984 . S
H593 N587 0.985 . S
H594 N591 0.984 . S
H595 N591 0.985 . S
H596 N590 0.984 . S
H597 N590 0.984 . S
H598 N586 0.984 . S
H599 N586 0.985 . S
C169 C165 1.647 . S
C171 C11 1.647 . S
C187 C25 1.647 . S
C189 C95 1.647 . S
C205 C39 1.647 . S
C207 C109 1.647 . S
C223 C53 1.647 . S
C225 C123 1.647 . S
C241 C137 1.647 . S
C243 C67 1.647 . S
C259 C81 1.647 . S
C261 C151 1.647 . S
C277 C47 1.297 . S
C279 C5 1.297 . S
C295 C61 1.298 . S
C297 C19 1.298 . S
C313 C75 1.298 . S
C315 C33 1.298 . S
C331 C89 1.297 . S
C333 C131 1.297 . S
C349 C103 1.298 . S
C351 C145 1.298 . S
C367 C117 1.298 . S
C369 C159 1.298 . S
C385 C121 0.852 . S
C387 C9 0.852 . S
C403 C23 0.852 . S
C405 C135 0.852 . S
C421 C149 0.852 . S
C423 C37 0.852 . S
C439 C163 0.852 . S
C441 C51 0.852 . S
C457 C93 0.852 . S
C459 C65 0.852 . S
C475 C79 0.852 . S
C477 C107 0.852 . S
C493 C126 1.626 . S
C495 C0 1.626 . S
C511 C14 1.626 . S
C513 C140 1.626 . S
C529 C154 1.626 . S
C531 C28 1.626 . S
C547 C42 1.625 . S
C549 C84 1.626 . S
C565 C56 1.625 . S
C567 C98 1.625 . S
C583 C112 1.626 . S
C585 C70 1.626 . S
