# Generated by pormake.
# Topology afw, (4)-cn, num edge types: 1
# Building blocks:
#     Node 0, Type 0, BuildingBlock: ESEHIV_clean_sbu_0, # of connection points: 4
#     Node 1, Type 0, BuildingBlock: ESEHIV_clean_sbu_0, # of connection points: 4
#     Node 2, Type 0, BuildingBlock: ESEHIV_clean_sbu_0, # of connection points: 4
#     Node 3, Type 0, BuildingBlock: ESEHIV_clean_sbu_0, # of connection points: 4
#     Node 4, Type 0, BuildingBlock: ESEHIV_clean_sbu_0, # of connection points: 4
#     Node 5, Type 0, BuildingBlock: ESEHIV_clean_sbu_0, # of connection points: 4
#     Node 6, Type 0, BuildingBlock: ESEHIV_clean_sbu_0, # of connection points: 4
#     Node 7, Type 0, BuildingBlock: ESEHIV_clean_sbu_0, # of connection points: 4
#     Node 8, Type 0, BuildingBlock: ESEHIV_clean_sbu_0, # of connection points: 4
#     Edge 9, Type (0, 0), BuildingBlock: KIFKEQ_clean_linker_1, # of connection points: 2
#     Edge 10, Type (0, 0), BuildingBlock: KIFKEQ_clean_linker_1, # of connection points: 2
#     Edge 11, Type (0, 0), BuildingBlock: KIFKEQ_clean_linker_1, # of connection points: 2
#     Edge 12, Type (0, 0), BuildingBlock: KIFKEQ_clean_linker_1, # of connection points: 2
#     Edge 13, Type (0, 0), BuildingBlock: KIFKEQ_clean_linker_1, # of connection points: 2
#     Edge 14, Type (0, 0), BuildingBlock: KIFKEQ_clean_linker_1, # of connection points: 2
#     Edge 15, Type (0, 0), BuildingBlock: KIFKEQ_clean_linker_1, # of connection points: 2
#     Edge 16, Type (0, 0), BuildingBlock: KIFKEQ_clean_linker_1, # of connection points: 2
#     Edge 17, Type (0, 0), BuildingBlock: KIFKEQ_clean_linker_1, # of connection points: 2
#     Edge 18, Type (0, 0), BuildingBlock: KIFKEQ_clean_linker_1, # of connection points: 2
#     Edge 19, Type (0, 0), BuildingBlock: KIFKEQ_clean_linker_1, # of connection points: 2
#     Edge 20, Type (0, 0), BuildingBlock: KIFKEQ_clean_linker_1, # of connection points: 2
#     Edge 21, Type (0, 0), BuildingBlock: KIFKEQ_clean_linker_1, # of connection points: 2
#     Edge 22, Type (0, 0), BuildingBlock: KIFKEQ_clean_linker_1, # of connection points: 2
#     Edge 23, Type (0, 0), BuildingBlock: KIFKEQ_clean_linker_1, # of connection points: 2
#     Edge 24, Type (0, 0), BuildingBlock: KIFKEQ_clean_linker_1, # of connection points: 2
#     Edge 25, Type (0, 0), BuildingBlock: KIFKEQ_clean_linker_1, # of connection points: 2
#     Edge 26, Type (0, 0), BuildingBlock: KIFKEQ_clean_linker_1, # of connection points: 2
# Relax obj value: 0.053
# Max RMSD: 0.170
# Mean RMSD: 0.158
data_MOF--net-afw--node1-ESEHIV_clean_sbu_0--edge1-KIFKEQ_clean_linker_1
_symmetry_space_group_name_H-M    P1
_symmetry_Int_Tables_number       1
_symmetry_cell_setting            triclinic
loop_
_symmetry_equiv_pos_as_xyz
'x, y, z'
_cell_length_a     49.778301
_cell_length_b     55.059849
_cell_length_c     21.148158
_cell_angle_alpha  96.31788
_cell_angle_beta   91.67158
_cell_angle_gamma 118.55818
loop_
_atom_site_label
_atom_site_type_symbol
_atom_site_fract_x
_atom_site_fract_y
_atom_site_fract_z
_atom_type_partial_charge
Cu0 Cu 0.03313 0.20475 0.07265 0.0
N1 N 1.00189 0.16847 0.04263 0.0
N2 N 0.97207 0.12211 0.03567 0.0
C3 C 0.99872 0.14467 0.06111 0.0
C4 C 0.958 0.13226 -0.00052 0.0
C5 C 0.97634 0.16081 0.00417 0.0
O6 O 0.07003 0.20248 0.09407 0.0
C7 C 1.03078 0.23669 0.19087 0.0
O8 O 0.06073 0.24802 0.20201 0.0
H9 H 1.01507 0.14409 0.09471 0.0
H10 H 0.97101 0.17509 0.98251 0.0
N11 N 0.0417 0.2271 0.00746 0.0
N12 N 0.06293 0.26417 0.95493 0.0
C13 C 0.05956 0.25506 0.01262 0.0
C14 C 0.03355 0.21823 0.94457 0.0
C15 C 0.04644 0.24097 0.91216 0.0
C16 C 0.07417 0.19054 0.13866 0.0
O17 O 0.05426 0.18227 0.18162 0.0
H18 H 0.07071 0.26825 0.05758 0.0
H19 H 1.01983 0.19664 0.92347 0.0
O20 O 1.017 0.21886 0.14137 0.0
H21 H 0.93583 0.12012 0.97221 0.0
H22 H 0.04395 0.24033 0.86092 0.0
Cu23 Cu 0.88484 0.85126 0.12415 0.0
N24 N 0.88139 0.88347 0.14514 0.0
N25 N 0.88933 0.92709 0.14494 0.0
C26 C 0.898 0.90806 0.12356 0.0
C27 C 0.86632 0.91378 0.18171 0.0
C28 C 0.86146 0.88691 0.1816 0.0
O29 O 0.92743 0.86291 0.10926 0.0
C30 C 0.84019 0.83441 0.01695 0.0
O31 O 0.85077 0.86125 0.01588 0.0
H32 H 0.91548 0.91156 0.09122 0.0
H33 H 0.84438 0.8709 0.2058 0.0
N34 N 0.87626 0.83082 0.19243 0.0
N35 N 0.86269 0.79396 0.24423 0.0
C36 C 0.86736 0.80339 0.18709 0.0
C37 C 0.87738 0.83921 0.25509 0.0
C38 C 0.86889 0.81645 0.28722 0.0
C39 C 0.94082 0.87396 0.06157 0.0
O40 O 0.92455 0.87519 0.0132 0.0
H41 H 0.864 0.79057 0.14184 0.0
H42 H 0.88399 0.86035 0.27592 0.0
O43 O 0.85372 0.82648 0.05509 0.0
H44 H 0.8538 0.92269 0.20703 0.0
H45 H 0.86784 0.81658 0.33829 0.0
Cu46 Cu 0.22362 0.03548 0.03632 0.0
N47 N 0.23505 0.02212 0.96256 0.0
N48 N 0.2567 1.00183 0.90129 0.0
C49 C 0.25953 0.01796 0.95668 0.0
C50 C 0.22975 0.9961 0.87061 0.0
C51 C 0.21652 1.00869 0.90842 0.0
O52 O 0.25768 0.05069 0.10255 0.0
C53 C 0.16996 1.00303 0.10199 0.0
O54 O 0.18211 0.02309 0.1508 0.0
H55 H 0.27795 0.02477 -0.00602 0.0
H56 H 0.19396 1.00658 0.89917 0.0
N57 N 0.21648 0.06475 0.02043 0.0
N58 N 0.20024 0.0964 0.03068 0.0
C59 C 0.19849 0.07332 0.05118 0.0
C60 C 0.23002 0.08293 0.97896 0.0
C61 C 0.22007 0.10247 0.98514 0.0
C62 C 0.27099 0.03764 0.12154 0.0
O63 O 0.25846 1.01056 0.10387 0.0
H64 H 0.18506 0.06332 0.08905 0.0
H65 H 0.24633 0.08223 0.94714 0.0
O66 O 0.18502 1.00443 0.05369 0.0
H67 H 0.21961 0.98261 0.82555 0.0
H68 H 0.22684 0.11973 0.958 0.0
Cu69 Cu 0.74833 0.53416 0.42799 0.0
N70 N 0.7123 0.50387 0.38776 0.0
N71 N 0.67445 0.4599 0.36478 0.0
C72 C 0.70368 0.47683 0.38997 0.0
C73 C 0.66433 0.47695 0.34568 0.0
C74 C 0.68784 0.50413 0.35973 0.0
O75 O 0.77292 0.51894 0.46238 0.0
C76 C 0.71302 0.54418 0.51978 0.0
O77 O 0.69748 0.51682 0.5151 0.0
H78 H 0.7179 0.46985 0.41321 0.0
H79 H 0.68675 0.52283 0.35294 0.0
N80 N 0.7687 0.55768 0.36844 0.0
N81 N 0.79051 0.59632 0.32178 0.0
C82 C 0.77782 0.58516 0.37417 0.0
C83 C 0.77582 0.55108 0.31054 0.0
C84 C 0.78928 0.5749 0.28154 0.0
C85 C 0.80207 0.53069 0.46451 0.0
O86 O 0.81731 0.5561 0.44973 0.0
H87 H 0.77435 0.59654 0.41532 0.0
H88 H 0.77119 0.53035 0.29061 0.0
O89 O 0.73723 0.55545 0.491 0.0
H90 H 0.64136 0.47029 0.32472 0.0
H91 H 0.79753 0.57632 0.23458 0.0
Cu92 Cu 0.54977 0.17824 0.34642 0.0
N93 N 0.54701 0.2102 0.3754 0.0
N94 N 0.55803 0.25486 0.39244 0.0
C95 C 0.56905 0.23699 0.37818 0.0
C96 C 0.52806 0.23874 0.40006 0.0
C97 C 0.52138 0.21119 0.38998 0.0
O98 O 0.58854 0.189 0.30863 0.0
C99 C 0.49801 0.1598 0.25481 0.0
O100 O 0.51005 0.18619 0.24685 0.0
H101 H 0.59226 0.24323 0.36647 0.0
H102 H 0.49908 0.19306 0.39017 0.0
N103 N 0.54914 0.15991 0.41556 0.0
N104 N 0.53706 0.12468 0.47199 0.0
C105 C 0.53652 0.13208 0.41341 0.0
C106 C 0.5581 0.17063 0.47753 0.0
C107 C 0.55061 0.14889 0.51259 0.0
C108 C 0.59821 0.20617 0.26821 0.0
O109 O 0.58004 0.21487 0.2451 0.0
H110 H 0.52599 0.1175 0.36992 0.0
H111 H 0.56858 0.19262 0.49599 0.0
O112 O 0.51292 0.15232 0.29057 0.0
H113 H 0.51196 0.2463 0.4104 0.0
H114 H 0.55457 0.15075 0.56392 0.0
Cu115 Cu 0.90673 0.36216 0.36454 0.0
N116 N 0.94478 0.38388 0.33436 0.0
N117 N 0.99605 0.40741 0.33957 0.0
C118 C 0.97132 0.39089 0.36842 0.0
C119 C 0.98477 0.41124 0.28499 0.0
C120 C 0.95297 0.39636 0.2815 0.0
O121 O 0.91563 0.3382 0.41263 0.0
C122 C 0.89329 0.40502 0.38196 0.0
O123 O 0.89938 0.40466 0.32197 0.0
H124 H 0.97249 0.38471 0.41482 0.0
H125 H 0.93706 0.39509 0.24367 0.0
N126 N 0.8753 0.34033 0.29936 0.0
N127 N 0.82718 0.31253 0.25499 0.0
C128 C 0.84528 0.33176 0.30464 0.0
C129 C 0.87636 0.32628 0.24409 0.0
C130 C 0.84665 0.30901 0.21668 0.0
C131 C 0.90302 0.31186 0.39654 0.0
O132 O 0.87524 0.29862 0.36681 0.0
H133 H 0.83679 0.33816 0.34623 0.0
H134 H 0.89711 0.32743 0.22676 0.0
O135 O 0.89495 0.38725 0.41351 0.0
H136 H 0.99849 0.42381 0.25033 0.0
H137 H 0.83986 0.29444 0.17296 0.0
Cu138 Cu 0.39071 0.86965 0.68483 0.0
N139 N 0.35957 0.83425 0.65073 0.0
N140 N 0.32845 0.7882 0.64176 0.0
C141 C 0.35426 0.81029 0.67173 0.0
C142 C 0.31712 0.79873 0.60015 0.0
C143 C 0.33643 0.8272 0.60579 0.0
O144 O 0.42063 0.86326 0.73111 0.0
C145 C 0.38371 0.90915 0.77646 0.0
O146 O 0.41315 0.92068 0.79496 0.0
H147 H 0.3684 0.80932 0.71016 0.0
H148 H 0.33345 0.84182 0.58014 0.0
N149 N 0.40808 0.8905 0.61909 0.0
N150 N 0.43205 0.92725 0.56705 0.0
C151 C 0.42191 0.9185 0.62315 0.0
C152 C 0.40938 0.88111 0.55842 0.0
C153 C 0.42411 0.90376 0.52608 0.0
C154 C 0.44921 0.87542 0.7237 0.0
O155 O 0.46076 0.89737 0.69356 0.0
H156 H 0.42424 0.93213 0.66631 0.0
H157 H 0.40031 0.85935 0.5392 0.0
O158 O 0.37123 0.88747 0.73473 0.0
H159 H 0.29627 0.78679 0.56834 0.0
H160 H 0.42901 0.90301 0.47659 0.0
Cu161 Cu 0.22899 0.51577 0.72927 0.0
N162 N 0.22471 0.54777 0.74345 0.0
N163 N 0.2335 0.59149 0.74098 0.0
C164 C 0.24566 0.57411 0.73712 0.0
C165 C 0.2038 0.57539 0.75126 0.0
C166 C 0.19848 0.54849 0.75266 0.0
O167 O 0.27262 0.52694 0.72746 0.0
C168 C 0.19825 0.50345 0.60454 0.0
O169 O 0.21446 0.53047 0.6037 0.0
H170 H 0.26912 0.58019 0.72809 0.0
H171 H 0.17667 0.5304 0.75686 0.0
N172 N 0.21422 0.4953 0.79703 0.0
N173 N 0.18989 0.45955 0.85228 0.0
C174 C 0.19636 0.46744 0.79375 0.0
C175 C 0.2192 0.50545 0.85953 0.0
C176 C 0.20428 0.4835 0.89372 0.0
C177 C 0.28935 0.54121 0.68664 0.0
O178 O 0.27644 0.54656 0.63899 0.0
H179 H 0.18863 0.45328 0.74928 0.0
H180 H 0.23266 0.52733 0.87877 0.0
O181 O 0.2028 0.49298 0.6519 0.0
H182 H 0.18665 0.58211 0.75414 0.0
H183 H 0.20374 0.48517 0.94508 0.0
Cu184 Cu 0.57358 0.69911 0.73085 0.0
N185 N 0.5813 0.67765 0.66652 0.0
N186 N 0.59993 0.65167 0.61671 0.0
C187 C 0.60366 0.67045 0.66766 0.0
C188 C 0.57449 0.64725 0.58164 0.0
C189 C 0.56312 0.66332 0.61242 0.0
O190 O 0.60879 0.71846 0.79481 0.0
C191 C 0.52098 0.64924 0.75692 0.0
O192 O 0.53659 0.63639 0.73944 0.0
H193 H 0.62153 0.67784 0.70638 0.0
H194 H 0.54236 0.66373 0.59775 0.0
N195 N 0.56876 0.72666 0.6963 0.0
N196 N 0.55493 0.7594 0.68712 0.0
C197 C 0.5567 0.74183 0.72491 0.0
C198 C 0.57496 0.7348 0.63842 0.0
C199 C 0.56647 0.75497 0.63257 0.0
C200 C 0.62107 0.70717 0.82583 0.0
O201 O 0.60762 0.67982 0.82143 0.0
H202 H 0.54936 0.73983 0.77258 0.0
H203 H 0.5845 0.72634 0.60264 0.0
O204 O 0.5341 0.6758 0.76228 0.0
H205 H 0.5644 0.633 0.53759 0.0
H206 H 0.56798 0.76498 0.59058 0.0
H207 H 0.21969 0.15164 0.03175 0.0
H208 H 0.14541 0.07584 0.08136 0.0
H209 H 0.19273 0.17708 0.06663 0.0
H210 H 0.11813 0.1011 0.11538 0.0
H211 H 0.08376 0.15675 0.2122 0.0
H212 H 0.11684 0.13578 0.19289 0.0
H213 H 0.14909 0.18066 0.03178 0.0
H214 H 0.1169 0.20213 0.05214 0.0
C215 C 0.19751 0.14035 0.04975 0.0
C216 C 0.18464 0.11163 0.05328 0.0
C217 C 0.18202 0.15495 0.06985 0.0
C218 C 0.15313 0.1412 0.09369 0.0
C219 C 0.14053 0.11255 0.09832 0.0
C220 C 0.15613 0.09798 0.07855 0.0
C221 C 0.09838 0.16256 0.17345 0.0
C222 C 0.09752 0.18106 0.1336 0.0
C223 C 0.11712 0.15029 0.16193 0.0
C224 C 0.13546 0.15624 0.1103 0.0
C225 C 0.13558 0.17572 0.07235 0.0
C226 C 0.11694 0.18799 0.08391 0.0
H227 H 0.94395 0.95839 0.09756 0.0
H228 H 0.86248 0.96024 0.15695 0.0
H229 H 0.96331 1.00471 0.06772 0.0
H230 H 0.88282 1.00733 0.13065 0.0
H231 H 0.91264 0.0802 0.01822 0.0
H232 H 0.89287 0.03291 0.04277 0.0
H233 H 0.98448 0.05221 0.11128 0.0
H234 H 1.00454 0.0989 0.08319 0.0
C235 C 0.93007 0.96855 0.10441 0.0
C236 C 0.90142 0.95521 0.12952 0.0
C237 C 0.94146 0.99543 0.08799 0.0
C238 C 0.9247 1.00991 0.0967 0.0
C239 C 0.8962 0.99672 0.12232 0.0
C240 C 0.88469 0.96973 0.13833 0.0
C241 C 0.92873 0.07436 0.03759 0.0
C242 C 0.9603 0.09368 0.04875 0.0
C243 C 0.91726 0.04722 0.05259 0.0
C244 C 0.93698 0.03866 0.07948 0.0
C245 C 0.96857 0.05787 0.09005 0.0
C246 C 0.98007 0.08492 0.07464 0.0
H247 H 0.98135 0.88144 0.16189 0.0
H248 H 0.97778 0.90106 0.97058 0.0
H249 H 0.03712 0.91011 0.17269 0.0
H250 H 0.0336 0.92989 0.98169 0.0
H251 H 0.13656 0.96161 0.00271 0.0
H252 H 0.08193 0.92796 0.9925 0.0
H253 H 0.07446 0.96043 0.18262 0.0
H254 H 0.12927 0.99407 0.19319 0.0
C255 C 0.99244 0.89161 0.12182 0.0
C256 C 0.97497 0.88895 0.06533 0.0
C257 C 1.02444 0.90824 0.12827 0.0
C258 C 0.03986 0.92246 0.07827 0.0
C259 C 1.02251 0.91904 0.02099 0.0
C260 C 0.99045 0.90256 0.01467 0.0
C261 C 0.1234 0.96143 0.04273 0.0
C262 C 0.13739 0.98069 0.09878 0.0
C263 C 0.09199 0.94222 0.03661 0.0
C264 C 0.07372 0.9416 0.0865 0.0
C265 C 0.08789 0.96018 0.14342 0.0
C266 C 0.11933 0.97955 0.14943 0.0
H267 H 0.90532 0.45352 0.34001 0.0
H268 H 0.85965 0.40257 0.48502 0.0
H269 H 0.88578 0.48505 0.37454 0.0
H270 H 0.83992 0.43465 0.52036 0.0
H271 H 0.77659 0.47537 0.47969 0.0
H272 H 0.80167 0.44654 0.4735 0.0
H273 H 0.88875 0.51953 0.46135 0.0
H274 H 0.86368 0.54831 0.46648 0.0
C275 C 0.89138 0.44925 0.37999 0.0
C276 C 0.8839 0.42545 0.40956 0.0
C277 C 0.88036 0.46752 0.4002 0.0
C278 C 0.86132 0.46248 0.45038 0.0
C279 C 0.85444 0.43905 0.48137 0.0
C280 C 0.86587 0.4208 0.46146 0.0
C281 C 0.8012 0.4854 0.47697 0.0
C282 C 0.81803 0.51414 0.4726 0.0
C283 C 0.81561 0.46884 0.47376 0.0
C284 C 0.84715 0.48065 0.46606 0.0
C285 C 0.8643 0.50969 0.46612 0.0
C286 C 0.84993 0.52623 0.46932 0.0
H287 H 0.53478 0.28597 0.34901 0.0
H288 H 0.61764 0.29065 0.43149 0.0
H289 H 0.56265 0.33556 0.33967 0.0
H290 H 0.64552 0.34056 0.42501 0.0
H291 H 0.69485 0.42252 0.34664 0.0
H292 H 0.66612 0.37263 0.35282 0.0
H293 H 0.5861 0.38086 0.39517 0.0
H294 H 0.6147 0.43047 0.38599 0.0
C295 C 0.55888 0.2978 0.36628 0.0
C296 C 0.57407 0.28452 0.39104 0.0
C297 C 0.57492 0.32627 0.36105 0.0
C298 C 0.60648 0.34225 0.38137 0.0
C299 C 0.62145 0.32893 0.40744 0.0
C300 C 0.60548 0.30037 0.41168 0.0
C301 C 0.67107 0.41351 0.35696 0.0
C302 C 0.65696 0.43027 0.36565 0.0
C303 C 0.65461 0.38496 0.36103 0.0
C304 C 0.62374 0.37256 0.37504 0.0
C305 C 0.60962 0.38944 0.38326 0.0
C306 C 0.62598 0.41792 0.37812 0.0
H307 H 0.64073 0.18954 0.29471 0.0
H308 H 0.63044 0.25391 0.21501 0.0
H309 H 0.69601 0.21479 0.28483 0.0
H310 H 0.68565 0.27916 0.20577 0.0
H311 H 0.78822 0.33145 0.29187 0.0
H312 H 0.73222 0.30449 0.28785 0.0
H313 H 0.73495 0.23106 0.20119 0.0
H314 H 0.79105 0.25814 0.20514 0.0
C315 C 0.65017 0.20887 0.27437 0.0
C316 C 0.63112 0.21968 0.25572 0.0
C317 C 0.68183 0.22329 0.26855 0.0
C318 C 0.69521 0.24905 0.24486 0.0
C319 C 0.67605 0.25949 0.22473 0.0
C320 C 0.64437 0.24489 0.22964 0.0
C321 C 0.77682 0.3096 0.2717 0.0
C322 C 0.79403 0.29694 0.24882 0.0
C323 C 0.74476 0.2942 0.26898 0.0
C324 C 0.72916 0.26564 0.24419 0.0
C325 C 0.74633 0.253 0.2208 0.0
C326 C 0.7784 0.26854 0.22256 0.0
H327 H 0.42867 0.82287 0.75522 0.0
H328 H 0.51085 0.89537 0.7161 0.0
H329 H 0.4562 0.7964 0.75305 0.0
H330 H 0.53879 0.86913 0.71615 0.0
H331 H 0.56398 0.8037 0.62732 0.0
H332 H 0.54033 0.83313 0.64605 0.0
H333 H 0.49455 0.78832 0.79973 0.0
H334 H 0.5168 0.7578 0.77865 0.0
C335 C 0.45286 0.83342 0.74785 0.0
C336 C 0.46746 0.86121 0.73524 0.0
C337 C 0.46874 0.8182 0.74674 0.0
C338 C 0.4997 0.83044 0.73352 0.0
C339 C 0.51478 0.85878 0.72492 0.0
C340 C 0.49883 0.87394 0.72555 0.0
C341 C 0.54874 0.79989 0.66484 0.0
C342 C 0.54225 0.77802 0.70093 0.0
C343 C 0.53548 0.81715 0.67632 0.0
C344 C 0.51547 0.81322 0.72455 0.0
C345 C 0.50953 0.79181 0.76167 0.0
C346 C 0.52264 0.77442 0.74994 0.0
H347 H 0.26797 0.74977 0.63006 0.0
H348 H 0.35847 0.76218 0.68377 0.0
H349 H 0.24527 0.70206 0.65526 0.0
H350 H 0.33578 0.7147 0.71016 0.0
H351 H 0.2844 0.61832 0.67798 0.0
H352 H 0.30756 0.66601 0.6545 0.0
H353 H 0.23879 0.67799 0.75149 0.0
H354 H 0.21575 0.63031 0.77625 0.0
C355 C 0.28302 0.74227 0.64686 0.0
C356 C 0.31503 0.75977 0.65489 0.0
C357 C 0.27001 0.71506 0.662 0.0
C358 C 0.28874 0.70466 0.68493 0.0
C359 C 0.32076 0.72205 0.69224 0.0
C360 C 0.33374 0.74932 0.67761 0.0
C361 C 0.27437 0.6311 0.69537 0.0
C362 C 0.24806 0.62023 0.72919 0.0
C363 C 0.28768 0.65851 0.68161 0.0
C364 C 0.27494 0.67573 0.70089 0.0
C365 C 0.24886 0.66507 0.73513 0.0
C366 C 0.23565 0.6377 0.74931 0.0
H367 H 0.32447 0.53086 0.77107 0.0
H368 H 0.33138 0.58348 0.62826 0.0
H369 H 0.38049 0.5565 0.79424 0.0
H370 H 0.38701 0.60904 0.65182 0.0
H371 H 0.47977 0.66885 0.76099 0.0
H372 H 0.42387 0.64168 0.74625 0.0
H373 H 0.42906 0.56541 0.73865 0.0
H374 H 0.4852 0.59257 0.75303 0.0
C375 C 0.3379 0.54773 0.74435 0.0
C376 C 0.32339 0.55507 0.69774 0.0
C377 C 0.36997 0.56238 0.75761 0.0
C378 C 0.38812 0.58497 0.72534 0.0
C379 C 0.37362 0.592 0.67817 0.0
C380 C 0.34172 0.57715 0.66428 0.0
C381 C 0.46908 0.64631 0.7572 0.0
C382 C 0.48707 0.63291 0.75793 0.0
C383 C 0.43701 0.63074 0.7482 0.0
C384 C 0.42207 0.60139 0.74049 0.0
C385 C 0.43991 0.58799 0.74451 0.0
C386 C 0.47208 0.60357 0.75271 0.0
H387 H 0.0882 0.28009 0.84447 0.0
H388 H 0.07988 0.31262 0.03389 0.0
H389 H 0.11866 0.32738 0.82034 0.0
H390 H 0.11048 0.36015 0.00962 0.0
H391 H 0.19316 0.44053 0.964 0.0
H392 H 0.16232 0.39342 0.98968 0.0
H393 H 0.11384 0.36763 0.80115 0.0
H394 H 0.14468 0.41473 0.77545 0.0
C395 C 0.09255 0.29729 0.88086 0.0
C396 C 0.08134 0.2924 0.94111 0.0
C397 C 0.11009 0.3245 0.86694 0.0
C398 C 0.11696 0.34766 0.91285 0.0
C399 C 0.10596 0.34283 0.97332 0.0
C400 C 0.08838 0.31555 0.98728 0.0
C401 C 0.17576 0.42493 0.92814 0.0
C402 C 0.17153 0.43156 0.86752 0.0
C403 C 0.15802 0.39785 0.94295 0.0
C404 C 0.13557 0.37665 0.89753 0.0
C405 C 0.13125 0.38329 0.837 0.0
C406 C 0.14899 0.41036 0.82219 0.0
H407 H 0.80327 0.7802 0.03582 0.0
H408 H 0.80767 0.84249 0.92274 0.0
H409 H 0.75036 0.74909 0.992 0.0
H410 H 0.75519 0.81098 0.87672 0.0
H411 H 0.65149 0.76374 0.86112 0.0
H412 H 0.70465 0.7932 0.90503 0.0
H413 H 0.71602 0.72005 0.90337 0.0
H414 H 0.66236 0.69053 0.86189 0.0
C415 C 0.79317 0.78704 0.0005 0.0
C416 C 0.80972 0.81394 0.98305 0.0
C417 C 0.76273 0.76913 0.9752 0.0
C418 C 0.74811 0.77752 0.93125 0.0
C419 C 0.76525 0.80398 0.9117 0.0
C420 C 0.79555 0.822 0.93755 0.0
C421 C 0.66525 0.75392 0.87077 0.0
C422 C 0.65261 0.72476 0.85812 0.0
C423 C 0.69594 0.77086 0.89531 0.0
C424 C 0.71501 0.75917 0.90711 0.0
C425 C 0.70211 0.72989 0.89561 0.0
C426 C 0.67126 0.7129 0.87174 0.0
H427 H 0.32972 0.90071 0.71962 0.0
H428 H 0.39648 0.94874 0.88109 0.0
H429 H 0.30036 0.92393 0.74989 0.0
H430 H 0.36595 0.97117 0.91406 0.0
H431 H 0.31862 0.02554 0.92011 0.0
H432 H 0.3501 1.00353 0.89182 0.0
H433 H 0.26759 0.92626 0.82162 0.0
H434 H 0.23682 0.94881 0.84685 0.0
C435 C 0.33788 0.91594 0.76243 0.0
C436 C 0.36539 0.92272 0.79817 0.0
C437 C 0.32085 0.92923 0.78015 0.0
C438 C 0.33042 0.94935 0.835 0.0
C439 C 0.35795 0.95607 0.87109 0.0
C440 C 0.37537 0.94305 0.85257 0.0
C441 C 0.30744 1.00391 0.89825 0.0
C442 C 0.27537 0.98902 0.8846 0.0
C443 C 0.32539 0.99116 0.88248 0.0
C444 C 0.31157 0.96306 0.85375 0.0
C445 C 0.27932 0.94812 0.84176 0.0
C446 C 0.26155 0.96101 0.85635 0.0
H447 H 0.45916 0.16874 0.17865 0.0
H448 H 0.46269 0.10612 0.27969 0.0
H449 H 0.40433 0.1383 0.15035 0.0
H450 H 0.40762 0.07591 0.25269 0.0
H451 H 0.3129 0.01928 0.13678 0.0
H452 H 0.36798 0.04767 0.16729 0.0
H453 H 0.3575 0.12139 0.20127 0.0
H454 H 0.30269 0.09316 0.16933 0.0
C455 C 0.4483 0.14841 0.19454 0.0
C456 C 0.46541 0.13996 0.23155 0.0
C457 C 0.41672 0.13103 0.17889 0.0
C458 C 0.40134 0.10476 0.20003 0.0
C459 C 0.41865 0.09591 0.2353 0.0
C460 C 0.45029 0.11328 0.25082 0.0
C461 C 0.32226 0.04148 0.15176 0.0
C462 C 0.30333 0.05393 0.15026 0.0
C463 C 0.35391 0.05779 0.16921 0.0
C464 C 0.36737 0.08694 0.18577 0.0
C465 C 0.34813 0.09913 0.1872 0.0
C466 C 0.31658 0.08287 0.16954 0.0
H467 H 0.05062 0.27294 0.30403 0.0
H468 H 0.96973 0.22029 0.17353 0.0
H469 H 1.02052 0.28848 0.36968 0.0
H470 H 0.94023 0.23639 0.23697 0.0
H471 H 0.88511 0.25626 0.36816 0.0
H472 H 0.91676 0.23581 0.33136 0.0
H473 H 0.99743 0.31731 0.36797 0.0
H474 H 0.96604 0.33731 0.40791 0.0
C475 C 1.02645 0.26461 0.28942 0.0
C476 C 1.01269 0.24542 0.23332 0.0
C477 C 1.00918 0.27361 0.32693 0.0
C478 C 0.97778 0.26369 0.30904 0.0
C479 C 0.96407 0.2441 0.25349 0.0
C480 C 0.98119 0.23503 0.21647 0.0
C481 C 0.90972 0.26966 0.37006 0.0
C482 C 0.92287 0.29853 0.38998 0.0
C483 C 0.9279 0.258 0.34819 0.0
C484 C 0.95965 0.27497 0.34469 0.0
C485 C 0.97315 0.30346 0.36976 0.0
C486 C 0.95501 0.31503 0.39259 0.0
H487 H 0.7926 0.61505 0.20764 0.0
H488 H 0.81411 0.64249 0.41075 0.0
H489 H 0.81037 0.66308 0.18926 0.0
H490 H 0.83221 0.69056 0.39252 0.0
H491 H 0.83084 0.76868 0.34114 0.0
H492 H 0.81368 0.72077 0.35998 0.0
H493 H 0.85593 0.70743 0.19367 0.0
H494 H 0.87273 0.75518 0.17462 0.0
C495 C 0.80146 0.63136 0.24833 0.0
C496 C 0.80185 0.62486 0.31068 0.0
C497 C 0.81168 0.65895 0.23783 0.0
C498 C 0.8227 0.68077 0.28941 0.0
C499 C 0.82336 0.67427 0.35172 0.0
C500 C 0.81302 0.64668 0.36221 0.0
C501 C 0.83667 0.7556 0.30894 0.0
C502 C 0.85307 0.76579 0.25626 0.0
C503 C 0.82686 0.7281 0.31974 0.0
C504 C 0.83335 0.71014 0.27828 0.0
C505 C 0.85 0.72046 0.22592 0.0
C506 C 0.85968 0.74789 0.215 0.0
H507 H 0.14759 0.45369 0.61452 0.0
H508 H 0.18821 0.515 0.48642 0.0
H509 H 0.10054 0.42954 0.54346 0.0
H510 H 0.1417 0.48998 0.41297 0.0
H511 H 0.04083 0.46084 0.34346 0.0
H512 H 0.09181 0.48254 0.40135 0.0
H513 H 0.07349 0.40197 0.44956 0.0
H514 H 1.02203 0.38104 0.39479 0.0
C515 C 0.14676 0.46159 0.5702 0.0
C516 C 0.1716 0.48635 0.55632 0.0
C517 C 0.1197 0.44763 0.529 0.0
C518 C 0.11692 0.45776 0.4721 0.0
C519 C 0.1425 0.48181 0.45685 0.0
C520 C 0.16936 0.49606 0.49869 0.0
C521 C 0.04806 0.44787 0.36578 0.0
C522 C 1.02755 0.41939 0.36524 0.0
C523 C 0.07734 0.4602 0.39889 0.0
C524 C 0.08697 0.44418 0.43119 0.0
C525 C 0.06681 0.41527 0.42717 0.0
C526 C 0.03738 0.40314 0.39529 0.0
H527 H 0.73632 0.60083 0.52735 0.0
H528 H 0.65809 0.52619 0.57149 0.0
H529 H 0.70977 0.62749 0.55493 0.0
H530 H 0.63178 0.55295 0.5997 0.0
H531 H 0.5797 0.59956 0.55346 0.0
H532 H 0.60871 0.57456 0.53747 0.0
H533 H 0.68876 0.6452 0.64176 0.0
H534 H 0.65984 0.67059 0.65638 0.0
C535 C 0.71372 0.5902 0.54412 0.0
C536 C 0.69925 0.56129 0.54671 0.0
C537 C 0.69852 0.60552 0.56002 0.0
C538 C 0.66849 0.59227 0.57866 0.0
C539 C 0.65467 0.56367 0.58431 0.0
C540 C 0.66988 0.54837 0.56865 0.0
C541 C 0.60356 0.60993 0.57242 0.0
C542 C 0.61743 0.63715 0.60604 0.0
C543 C 0.62009 0.59542 0.56404 0.0
C544 C 0.65099 0.60778 0.58882 0.0
C545 C 0.66502 0.63511 0.62193 0.0
C546 C 0.64839 0.64959 0.63067 0.0
H547 H 0.43093 0.94564 0.45394 0.0
H548 H 0.46949 0.97342 0.65049 0.0
H549 H 0.45736 0.99374 0.43202 0.0
H550 H 0.49638 0.02153 0.62858 0.0
H551 H 0.51239 0.10667 0.58141 0.0
H552 H 0.48745 0.05877 0.60505 0.0
H553 H 0.50724 0.0312 0.4216 0.0
H554 H 0.53165 0.07902 0.39781 0.0
C555 C 0.44533 0.962 0.49229 0.0
C556 C 0.44804 0.95569 0.55395 0.0
C557 C 0.46057 0.98961 0.47977 0.0
C558 C 0.47909 1.01159 0.5285 0.0
C559 C 0.48193 1.00522 0.59013 0.0
C560 C 0.46653 0.97762 0.60272 0.0
C561 C 0.5117 0.09042 0.54649 0.0
C562 C 0.52387 0.09664 0.4876 0.0
C563 C 0.49741 0.06292 0.56001 0.0
C564 C 0.49515 0.04102 0.5151 0.0
C565 C 0.50795 0.0474 0.45677 0.0
C566 C 0.52204 0.07484 0.44314 0.0
loop_
_geom_bond_atom_site_label_1
_geom_bond_atom_site_label_2
_geom_bond_distance
_geom_bond_site_symmetry_2
_ccdc_geom_bond_type
Cu0 N1 1.999 1_455 S
Cu0 O6 1.974 . S
Cu0 N11 1.985 . S
Cu0 O20 1.959 1_455 S
N1 Cu0 1.999 1_655 S
N1 C3 1.263 . S
N1 C5 1.389 . S
N2 C3 1.358 . S
N2 C4 1.400 . S
C3 N1 1.263 . S
C3 N2 1.358 . S
C3 H9 0.930 1_655 S
C4 N2 1.400 . S
C4 C5 1.351 . S
C4 H21 0.930 . S
C5 N1 1.389 . S
C5 C4 1.351 . S
C5 H10 0.930 . S
O6 Cu0 1.974 . S
O6 C16 1.282 . S
C7 O8 1.261 1_655 S
C7 O20 1.251 . S
O8 C7 1.261 1_455 S
H9 C3 0.930 1_455 S
H10 C5 0.930 . S
N11 Cu0 1.985 . S
N11 C13 1.335 . S
N11 C14 1.390 . S
N12 C13 1.345 . S
N12 C15 1.336 . S
C13 N11 1.335 . S
C13 N12 1.345 . S
C13 H18 0.930 . S
C14 N11 1.390 . S
C14 C15 1.346 . S
C14 H19 0.930 . S
C15 N12 1.336 . S
C15 C14 1.346 . S
C15 H22 0.929 . S
C16 O6 1.282 . S
C16 O17 1.216 . S
O17 C16 1.216 . S
H18 C13 0.930 . S
H19 C14 0.930 . S
O20 Cu0 1.959 1_655 S
O20 C7 1.251 . S
H21 C4 0.930 . S
H22 C15 0.929 . S
Cu23 N24 1.999 . S
Cu23 O29 1.974 . S
Cu23 N34 1.985 . S
Cu23 O43 1.959 . S
N24 Cu23 1.999 . S
N24 C26 1.263 . S
N24 C28 1.389 . S
N25 C26 1.358 . S
N25 C27 1.400 . S
C26 N24 1.263 . S
C26 N25 1.358 . S
C26 H32 0.930 . S
C27 N25 1.400 . S
C27 C28 1.351 . S
C27 H44 0.930 . S
C28 N24 1.389 . S
C28 C27 1.351 . S
C28 H33 0.930 . S
O29 Cu23 1.974 . S
O29 C39 1.282 . S
C30 O31 1.261 1_554 S
C30 O43 1.251 . S
O31 C30 1.261 1_556 S
H32 C26 0.930 . S
H33 C28 0.930 . S
N34 Cu23 1.985 . S
N34 C36 1.335 . S
N34 C37 1.390 . S
N35 C36 1.345 . S
N35 C38 1.336 . S
C36 N34 1.335 . S
C36 N35 1.345 . S
C36 H41 0.930 . S
C37 N34 1.390 . S
C37 C38 1.346 . S
C37 H42 0.930 . S
C38 N35 1.336 . S
C38 C37 1.346 . S
C38 H45 0.929 . S
C39 O29 1.282 . S
C39 O40 1.216 . S
O40 C39 1.216 . S
H41 C36 0.930 . S
H42 C37 0.930 . S
O43 Cu23 1.959 . S
O43 C30 1.251 . S
H44 C27 0.930 . S
H45 C38 0.929 . S
Cu46 N47 1.999 1_545 S
Cu46 O52 1.974 . S
Cu46 N57 1.985 . S
Cu46 O66 1.959 1_545 S
N47 Cu46 1.999 1_565 S
N47 C49 1.263 . S
N47 C51 1.389 1_554 S
N48 C49 1.358 1_556 S
N48 C50 1.400 . S
C49 N47 1.263 . S
C49 N48 1.358 1_554 S
C49 H55 0.930 . S
C50 N48 1.400 . S
C50 C51 1.351 . S
C50 H67 0.930 . S
C51 N47 1.389 1_556 S
C51 C50 1.351 . S
C51 H56 0.930 . S
O52 Cu46 1.974 . S
O52 C62 1.282 . S
C53 O54 1.261 . S
C53 O66 1.251 . S
O54 C53 1.261 . S
H55 C49 0.930 . S
H56 C51 0.930 . S
N57 Cu46 1.985 . S
N57 C59 1.335 . S
N57 C60 1.390 . S
N58 C59 1.345 . S
N58 C61 1.336 . S
C59 N57 1.335 . S
C59 N58 1.345 . S
C59 H64 0.930 . S
C60 N57 1.390 . S
C60 C61 1.346 . S
C60 H65 0.930 . S
C61 N58 1.336 . S
C61 C60 1.346 . S
C61 H68 0.929 . S
C62 O52 1.282 . S
C62 O63 1.216 . S
O63 C62 1.216 . S
H64 C59 0.930 . S
H65 C60 0.930 . S
O66 Cu46 1.959 1_565 S
O66 C53 1.251 . S
H67 C50 0.930 . S
H68 C61 0.929 . S
Cu69 N70 1.999 . S
Cu69 O75 1.974 . S
Cu69 N80 1.985 . S
Cu69 O89 1.959 . S
N70 Cu69 1.999 . S
N70 C72 1.263 . S
N70 C74 1.389 . S
N71 C72 1.358 . S
N71 C73 1.400 . S
C72 N70 1.263 . S
C72 N71 1.358 . S
C72 H78 0.930 . S
C73 N71 1.400 . S
C73 C74 1.351 . S
C73 H90 0.930 . S
C74 N70 1.389 . S
C74 C73 1.351 . S
C74 H79 0.930 . S
O75 Cu69 1.974 . S
O75 C85 1.282 . S
C76 O77 1.261 . S
C76 O89 1.251 . S
O77 C76 1.261 . S
H78 C72 0.930 . S
H79 C74 0.930 . S
N80 Cu69 1.985 . S
N80 C82 1.335 . S
N80 C83 1.390 . S
N81 C82 1.345 . S
N81 C84 1.336 . S
C82 N80 1.335 . S
C82 N81 1.345 . S
C82 H87 0.930 . S
C83 N80 1.390 . S
C83 C84 1.346 . S
C83 H88 0.930 . S
C84 N81 1.336 . S
C84 C83 1.346 . S
C84 H91 0.929 . S
C85 O75 1.282 . S
C85 O86 1.216 . S
O86 C85 1.216 . S
H87 C82 0.930 . S
H88 C83 0.930 . S
O89 Cu69 1.959 . S
O89 C76 1.251 . S
H90 C73 0.930 . S
H91 C84 0.929 . S
Cu92 N93 1.999 . S
Cu92 O98 1.974 . S
Cu92 N103 1.985 . S
Cu92 O112 1.959 . S
N93 Cu92 1.999 . S
N93 C95 1.263 . S
N93 C97 1.389 . S
N94 C95 1.358 . S
N94 C96 1.400 . S
C95 N93 1.263 . S
C95 N94 1.358 . S
C95 H101 0.930 . S
C96 N94 1.400 . S
C96 C97 1.351 . S
C96 H113 0.930 . S
C97 N93 1.389 . S
C97 C96 1.351 . S
C97 H102 0.930 . S
O98 Cu92 1.974 . S
O98 C108 1.282 . S
C99 O100 1.261 . S
C99 O112 1.251 . S
O100 C99 1.261 . S
H101 C95 0.930 . S
H102 C97 0.930 . S
N103 Cu92 1.985 . S
N103 C105 1.335 . S
N103 C106 1.390 . S
N104 C105 1.345 . S
N104 C107 1.336 . S
C105 N103 1.335 . S
C105 N104 1.345 . S
C105 H110 0.930 . S
C106 N103 1.390 . S
C106 C107 1.346 . S
C106 H111 0.930 . S
C107 N104 1.336 . S
C107 C106 1.346 . S
C107 H114 0.929 . S
C108 O98 1.282 . S
C108 O109 1.216 . S
O109 C108 1.216 . S
H110 C105 0.930 . S
H111 C106 0.930 . S
O112 Cu92 1.959 . S
O112 C99 1.251 . S
H113 C96 0.930 . S
H114 C107 0.929 . S
Cu115 N116 1.999 . S
Cu115 O121 1.974 . S
Cu115 N126 1.985 . S
Cu115 O135 1.959 . S
N116 Cu115 1.999 . S
N116 C118 1.263 . S
N116 C120 1.389 . S
N117 C118 1.358 . S
N117 C119 1.400 . S
C118 N116 1.263 . S
C118 N117 1.358 . S
C118 H124 0.930 . S
C119 N117 1.400 . S
C119 C120 1.351 . S
C119 H136 0.930 . S
C120 N116 1.389 . S
C120 C119 1.351 . S
C120 H125 0.930 . S
O121 Cu115 1.974 . S
O121 C131 1.282 . S
C122 O123 1.261 . S
C122 O135 1.251 . S
O123 C122 1.261 . S
H124 C118 0.930 . S
H125 C120 0.930 . S
N126 Cu115 1.985 . S
N126 C128 1.335 . S
N126 C129 1.390 . S
N127 C128 1.345 . S
N127 C130 1.336 . S
C128 N126 1.335 . S
C128 N127 1.345 . S
C128 H133 0.930 . S
C129 N126 1.390 . S
C129 C130 1.346 . S
C129 H134 0.930 . S
C130 N127 1.336 . S
C130 C129 1.346 . S
C130 H137 0.929 . S
C131 O121 1.282 . S
C131 O132 1.216 . S
O132 C131 1.216 . S
H133 C128 0.930 . S
H134 C129 0.930 . S
O135 Cu115 1.959 . S
O135 C122 1.251 . S
H136 C119 0.930 . S
H137 C130 0.929 . S
Cu138 N139 1.999 . S
Cu138 O144 1.974 . S
Cu138 N149 1.985 . S
Cu138 O158 1.959 . S
N139 Cu138 1.999 . S
N139 C141 1.263 . S
N139 C143 1.389 . S
N140 C141 1.358 . S
N140 C142 1.400 . S
C141 N139 1.263 . S
C141 N140 1.358 . S
C141 H147 0.930 . S
C142 N140 1.400 . S
C142 C143 1.351 . S
C142 H159 0.930 . S
C143 N139 1.389 . S
C143 C142 1.351 . S
C143 H148 0.930 . S
O144 Cu138 1.974 . S
O144 C154 1.282 . S
C145 O146 1.261 . S
C145 O158 1.251 . S
O146 C145 1.261 . S
H147 C141 0.930 . S
H148 C143 0.930 . S
N149 Cu138 1.985 . S
N149 C151 1.335 . S
N149 C152 1.390 . S
N150 C151 1.345 . S
N150 C153 1.336 . S
C151 N149 1.335 . S
C151 N150 1.345 . S
C151 H156 0.930 . S
C152 N149 1.390 . S
C152 C153 1.346 . S
C152 H157 0.930 . S
C153 N150 1.336 . S
C153 C152 1.346 . S
C153 H160 0.929 . S
C154 O144 1.282 . S
C154 O155 1.216 . S
O155 C154 1.216 . S
H156 C151 0.930 . S
H157 C152 0.930 . S
O158 Cu138 1.959 . S
O158 C145 1.251 . S
H159 C142 0.930 . S
H160 C153 0.929 . S
Cu161 N162 1.999 . S
Cu161 O167 1.974 . S
Cu161 N172 1.985 . S
Cu161 O181 1.959 . S
N162 Cu161 1.999 . S
N162 C164 1.263 . S
N162 C166 1.389 . S
N163 C164 1.358 . S
N163 C165 1.400 . S
C164 N162 1.263 . S
C164 N163 1.358 . S
C164 H170 0.930 . S
C165 N163 1.400 . S
C165 C166 1.351 . S
C165 H182 0.930 . S
C166 N162 1.389 . S
C166 C165 1.351 . S
C166 H171 0.930 . S
O167 Cu161 1.974 . S
O167 C177 1.282 . S
C168 O169 1.261 . S
C168 O181 1.251 . S
O169 C168 1.261 . S
H170 C164 0.930 . S
H171 C166 0.930 . S
N172 Cu161 1.985 . S
N172 C174 1.335 . S
N172 C175 1.390 . S
N173 C174 1.345 . S
N173 C176 1.336 . S
C174 N172 1.335 . S
C174 N173 1.345 . S
C174 H179 0.930 . S
C175 N172 1.390 . S
C175 C176 1.346 . S
C175 H180 0.930 . S
C176 N173 1.336 . S
C176 C175 1.346 . S
C176 H183 0.929 . S
C177 O167 1.282 . S
C177 O178 1.216 . S
O178 C177 1.216 . S
H179 C174 0.930 . S
H180 C175 0.930 . S
O181 Cu161 1.959 . S
O181 C168 1.251 . S
H182 C165 0.930 . S
H183 C176 0.929 . S
Cu184 N185 1.999 . S
Cu184 O190 1.974 . S
Cu184 N195 1.985 . S
Cu184 O204 1.959 . S
N185 Cu184 1.999 . S
N185 C187 1.263 . S
N185 C189 1.389 . S
N186 C187 1.358 . S
N186 C188 1.400 . S
C187 N185 1.263 . S
C187 N186 1.358 . S
C187 H193 0.930 . S
C188 N186 1.400 . S
C188 C189 1.351 . S
C188 H205 0.930 . S
C189 N185 1.389 . S
C189 C188 1.351 . S
C189 H194 0.930 . S
O190 Cu184 1.974 . S
O190 C200 1.282 . S
C191 O192 1.261 . S
C191 O204 1.251 . S
O192 C191 1.261 . S
H193 C187 0.930 . S
H194 C189 0.930 . S
N195 Cu184 1.985 . S
N195 C197 1.335 . S
N195 C198 1.390 . S
N196 C197 1.345 . S
N196 C199 1.336 . S
C197 N195 1.335 . S
C197 N196 1.345 . S
C197 H202 0.930 . S
C198 N195 1.390 . S
C198 C199 1.346 . S
C198 H203 0.930 . S
C199 N196 1.336 . S
C199 C198 1.346 . S
C199 H206 0.929 . S
C200 O190 1.282 . S
C200 O201 1.216 . S
O201 C200 1.216 . S
H202 C197 0.930 . S
H203 C198 0.930 . S
O204 Cu184 1.959 . S
O204 C191 1.251 . S
H205 C188 0.930 . S
H206 C199 0.929 . S
H207 C215 0.950 . S
H208 C220 0.950 . S
H209 C217 0.950 1_556 S
H210 C219 0.950 . S
H211 C221 0.950 . S
H212 C223 0.950 . S
H213 C225 0.950 1_556 S
H214 C226 0.950 1_556 S
C215 H207 0.950 . S
C215 C216 1.386 . S
C215 C217 1.391 . S
C216 C215 1.386 . S
C216 C220 1.393 . S
C217 H209 0.950 1_554 S
C217 C215 1.391 . S
C217 C218 1.400 . S
C218 C217 1.400 . S
C218 C219 1.398 . S
C218 C224 1.491 . S
C219 H210 0.950 . S
C219 C218 1.398 . S
C219 C220 1.391 . S
C220 H208 0.950 . S
C220 C216 1.393 . S
C220 C219 1.391 . S
C221 H211 0.950 . S
C221 C222 1.386 . S
C221 C223 1.391 . S
C222 C221 1.386 . S
C222 C226 1.393 . S
C223 H212 0.950 . S
C223 C221 1.391 . S
C223 C224 1.400 . S
C224 C218 1.491 . S
C224 C223 1.400 . S
C224 C225 1.398 . S
C225 H213 0.950 1_554 S
C225 C224 1.398 . S
C225 C226 1.391 . S
C226 H214 0.950 1_554 S
C226 C222 1.393 . S
C226 C225 1.391 . S
H227 C235 0.950 1_556 S
H228 C240 0.950 . S
H229 C237 0.964 . S
H230 C239 0.950 . S
H231 C241 0.950 . S
H232 C243 0.950 . S
H233 C245 0.950 . S
H234 C246 0.950 . S
C235 H227 0.950 1_554 S
C235 C236 1.386 . S
C235 C237 1.391 . S
C236 C235 1.386 . S
C236 C240 1.393 . S
C237 H229 0.964 . S
C237 C235 1.391 . S
C237 C238 1.400 1_565 S
C238 C237 1.400 1_545 S
C238 C239 1.398 1_545 S
C238 C244 1.491 . S
C239 H230 0.950 . S
C239 C238 1.398 1_565 S
C239 C240 1.391 . S
C240 H228 0.950 . S
C240 C236 1.393 . S
C240 C239 1.391 . S
C241 H231 0.950 . S
C241 C242 1.386 . S
C241 C243 1.391 . S
C242 C241 1.386 . S
C242 C246 1.393 . S
C243 H232 0.950 . S
C243 C241 1.391 . S
C243 C244 1.400 . S
C244 C238 1.491 . S
C244 C243 1.400 . S
C244 C245 1.398 . S
C245 H233 0.950 . S
C245 C244 1.398 . S
C245 C246 1.391 . S
C246 H234 0.950 . S
C246 C242 1.393 . S
C246 C245 1.391 . S
H247 C255 0.950 . S
H248 C260 0.950 . S
H249 C257 0.950 1_455 S
H250 C259 0.950 1_455 S
H251 C261 0.950 1_556 S
H252 C263 0.950 . S
H253 C265 0.950 . S
H254 C266 0.950 . S
C255 H247 0.950 . S
C255 C256 1.386 . S
C255 C257 1.391 . S
C256 C255 1.386 . S
C256 C260 1.393 . S
C257 H249 0.950 1_655 S
C257 C255 1.391 . S
C257 C258 1.400 1_655 S
C258 C257 1.400 1_455 S
C258 C259 1.398 1_455 S
C258 C264 1.491 . S
C259 H250 0.950 1_655 S
C259 C258 1.398 1_655 S
C259 C260 1.391 . S
C260 H248 0.950 . S
C260 C256 1.393 . S
C260 C259 1.391 . S
C261 H251 0.950 1_554 S
C261 C262 1.386 . S
C261 C263 1.391 . S
C262 C261 1.386 . S
C262 C266 1.393 . S
C263 H252 0.950 . S
C263 C261 1.391 . S
C263 C264 1.400 . S
C264 C258 1.491 . S
C264 C263 1.400 . S
C264 C265 1.398 . S
C265 H253 0.950 . S
C265 C264 1.398 . S
C265 C266 1.391 . S
C266 H254 0.950 . S
C266 C262 1.393 . S
C266 C265 1.391 . S
H267 C275 0.950 . S
H268 C280 0.950 . S
H269 C277 0.950 . S
H270 C279 0.950 . S
H271 C281 0.950 . S
H272 C283 0.950 . S
H273 C285 0.950 . S
H274 C286 0.950 . S
C275 H267 0.950 . S
C275 C276 1.386 . S
C275 C277 1.391 . S
C276 C275 1.386 . S
C276 C280 1.393 . S
C277 H269 0.950 . S
C277 C275 1.391 . S
C277 C278 1.400 . S
C278 C277 1.400 . S
C278 C279 1.398 . S
C278 C284 1.491 . S
C279 H270 0.950 . S
C279 C278 1.398 . S
C279 C280 1.391 . S
C280 H268 0.950 . S
C280 C276 1.393 . S
C280 C279 1.391 . S
C281 H271 0.950 . S
C281 C282 1.386 . S
C281 C283 1.391 . S
C282 C281 1.386 . S
C282 C286 1.393 . S
C283 H272 0.950 . S
C283 C281 1.391 . S
C283 C284 1.400 . S
C284 C278 1.491 . S
C284 C283 1.400 . S
C284 C285 1.398 . S
C285 H273 0.950 . S
C285 C284 1.398 . S
C285 C286 1.391 . S
C286 H274 0.950 . S
C286 C282 1.393 . S
C286 C285 1.391 . S
H287 C295 0.950 . S
H288 C300 0.950 . S
H289 C297 0.950 . S
H290 C299 0.950 . S
H291 C301 0.950 . S
H292 C303 0.950 . S
H293 C305 0.950 . S
H294 C306 0.950 . S
C295 H287 0.950 . S
C295 C296 1.386 . S
C295 C297 1.391 . S
C296 C295 1.386 . S
C296 C300 1.393 . S
C297 H289 0.950 . S
C297 C295 1.391 . S
C297 C298 1.400 . S
C298 C297 1.400 . S
C298 C299 1.398 . S
C298 C304 1.491 . S
C299 H290 0.950 . S
C299 C298 1.398 . S
C299 C300 1.391 . S
C300 H288 0.950 . S
C300 C296 1.393 . S
C300 C299 1.391 . S
C301 H291 0.950 . S
C301 C302 1.386 . S
C301 C303 1.391 . S
C302 C301 1.386 . S
C302 C306 1.393 . S
C303 H292 0.950 . S
C303 C301 1.391 . S
C303 C304 1.400 . S
C304 C298 1.491 . S
C304 C303 1.400 . S
C304 C305 1.398 . S
C305 H293 0.950 . S
C305 C304 1.398 . S
C305 C306 1.391 . S
C306 H294 0.950 . S
C306 C302 1.393 . S
C306 C305 1.391 . S
H307 C315 0.950 . S
H308 C320 0.950 . S
H309 C317 0.950 . S
H310 C319 0.950 . S
H311 C321 0.950 . S
H312 C323 0.950 . S
H313 C325 0.950 . S
H314 C326 0.950 . S
C315 H307 0.950 . S
C315 C316 1.386 . S
C315 C317 1.391 . S
C316 C315 1.386 . S
C316 C320 1.393 . S
C317 H309 0.950 . S
C317 C315 1.391 . S
C317 C318 1.400 . S
C318 C317 1.400 . S
C318 C319 1.398 . S
C318 C324 1.491 . S
C319 H310 0.950 . S
C319 C318 1.398 . S
C319 C320 1.391 . S
C320 H308 0.950 . S
C320 C316 1.393 . S
C320 C319 1.391 . S
C321 H311 0.950 . S
C321 C322 1.386 . S
C321 C323 1.391 . S
C322 C321 1.386 . S
C322 C326 1.393 . S
C323 H312 0.950 . S
C323 C321 1.391 . S
C323 C324 1.400 . S
C324 C318 1.491 . S
C324 C323 1.400 . S
C324 C325 1.398 . S
C325 H313 0.950 . S
C325 C324 1.398 . S
C325 C326 1.391 . S
C326 H314 0.950 . S
C326 C322 1.393 . S
C326 C325 1.391 . S
H327 C335 0.950 . S
H328 C340 0.950 . S
H329 C337 0.950 . S
H330 C339 0.950 . S
H331 C341 0.950 . S
H332 C343 0.950 . S
H333 C345 0.950 . S
H334 C346 0.950 . S
C335 H327 0.950 . S
C335 C336 1.386 . S
C335 C337 1.391 . S
C336 C335 1.386 . S
C336 C340 1.393 . S
C337 H329 0.950 . S
C337 C335 1.391 . S
C337 C338 1.400 . S
C338 C337 1.400 . S
C338 C339 1.398 . S
C338 C344 1.491 . S
C339 H330 0.950 . S
C339 C338 1.398 . S
C339 C340 1.391 . S
C340 H328 0.950 . S
C340 C336 1.393 . S
C340 C339 1.391 . S
C341 H331 0.950 . S
C341 C342 1.386 . S
C341 C343 1.391 . S
C342 C341 1.386 . S
C342 C346 1.393 . S
C343 H332 0.950 . S
C343 C341 1.391 . S
C343 C344 1.400 . S
C344 C338 1.491 . S
C344 C343 1.400 . S
C344 C345 1.398 . S
C345 H333 0.950 . S
C345 C344 1.398 . S
C345 C346 1.391 . S
C346 H334 0.950 . S
C346 C342 1.393 . S
C346 C345 1.391 . S
H347 C355 0.950 . S
H348 C360 0.950 . S
H349 C357 0.950 . S
H350 C359 0.950 . S
H351 C361 0.950 . S
H352 C363 0.950 . S
H353 C365 0.950 . S
H354 C366 0.950 . S
C355 H347 0.950 . S
C355 C356 1.386 . S
C355 C357 1.391 . S
C356 C355 1.386 . S
C356 C360 1.393 . S
C357 H349 0.950 . S
C357 C355 1.391 . S
C357 C358 1.400 . S
C358 C357 1.400 . S
C358 C359 1.398 . S
C358 C364 1.491 . S
C359 H350 0.950 . S
C359 C358 1.398 . S
C359 C360 1.391 . S
C360 H348 0.950 . S
C360 C356 1.393 . S
C360 C359 1.391 . S
C361 H351 0.950 . S
C361 C362 1.386 . S
C361 C363 1.391 . S
C362 C361 1.386 . S
C362 C366 1.393 . S
C363 H352 0.950 . S
C363 C361 1.391 . S
C363 C364 1.400 . S
C364 C358 1.491 . S
C364 C363 1.400 . S
C364 C365 1.398 . S
C365 H353 0.950 . S
C365 C364 1.398 . S
C365 C366 1.391 . S
C366 H354 0.950 . S
C366 C362 1.393 . S
C366 C365 1.391 . S
H367 C375 0.950 . S
H368 C380 0.950 . S
H369 C377 0.950 . S
H370 C379 0.950 . S
H371 C381 0.950 . S
H372 C383 0.950 . S
H373 C385 0.950 . S
H374 C386 0.950 . S
C375 H367 0.950 . S
C375 C376 1.386 . S
C375 C377 1.391 . S
C376 C375 1.386 . S
C376 C380 1.393 . S
C377 H369 0.950 . S
C377 C375 1.391 . S
C377 C378 1.400 . S
C378 C377 1.400 . S
C378 C379 1.398 . S
C378 C384 1.491 . S
C379 H370 0.950 . S
C379 C378 1.398 . S
C379 C380 1.391 . S
C380 H368 0.950 . S
C380 C376 1.393 . S
C380 C379 1.391 . S
C381 H371 0.950 . S
C381 C382 1.386 . S
C381 C383 1.391 . S
C382 C381 1.386 . S
C382 C386 1.393 . S
C383 H372 0.950 . S
C383 C381 1.391 . S
C383 C384 1.400 . S
C384 C378 1.491 . S
C384 C383 1.400 . S
C384 C385 1.398 . S
C385 H373 0.950 . S
C385 C384 1.398 . S
C385 C386 1.391 . S
C386 H374 0.950 . S
C386 C382 1.393 . S
C386 C385 1.391 . S
H387 C395 0.950 . S
H388 C400 0.950 . S
H389 C397 0.950 . S
H390 C399 0.950 1_554 S
H391 C401 0.950 . S
H392 C403 0.950 . S
H393 C405 0.950 . S
H394 C406 0.950 . S
C395 H387 0.950 . S
C395 C396 1.386 . S
C395 C397 1.391 . S
C396 C395 1.386 . S
C396 C400 1.393 1_556 S
C397 H389 0.950 . S
C397 C395 1.391 . S
C397 C398 1.400 . S
C398 C397 1.400 . S
C398 C399 1.398 . S
C398 C404 1.491 . S
C399 H390 0.950 1_556 S
C399 C398 1.398 . S
C399 C400 1.391 1_556 S
C400 H388 0.950 . S
C400 C396 1.393 1_554 S
C400 C399 1.391 1_554 S
C401 H391 0.950 . S
C401 C402 1.386 . S
C401 C403 1.391 . S
C402 C401 1.386 . S
C402 C406 1.393 . S
C403 H392 0.950 . S
C403 C401 1.391 . S
C403 C404 1.400 . S
C404 C398 1.491 . S
C404 C403 1.400 . S
C404 C405 1.398 . S
C405 H393 0.950 . S
C405 C404 1.398 . S
C405 C406 1.391 . S
C406 H394 0.950 . S
C406 C402 1.393 . S
C406 C405 1.391 . S
H407 C415 0.950 . S
H408 C420 0.950 . S
H409 C417 0.950 . S
H410 C419 0.950 . S
H411 C421 0.950 . S
H412 C423 0.950 . S
H413 C425 0.950 . S
H414 C426 0.950 . S
C415 H407 0.950 . S
C415 C416 1.386 1_554 S
C415 C417 1.391 1_554 S
C416 C415 1.386 1_556 S
C416 C420 1.393 . S
C417 H409 0.950 . S
C417 C415 1.391 1_556 S
C417 C418 1.400 . S
C418 C417 1.400 . S
C418 C419 1.398 . S
C418 C424 1.491 . S
C419 H410 0.950 . S
C419 C418 1.398 . S
C419 C420 1.391 . S
C420 H408 0.950 . S
C420 C416 1.393 . S
C420 C419 1.391 . S
C421 H411 0.950 . S
C421 C422 1.386 . S
C421 C423 1.391 . S
C422 C421 1.386 . S
C422 C426 1.393 . S
C423 H412 0.950 . S
C423 C421 1.391 . S
C423 C424 1.400 . S
C424 C418 1.491 . S
C424 C423 1.400 . S
C424 C425 1.398 . S
C425 H413 0.950 . S
C425 C424 1.398 . S
C425 C426 1.391 . S
C426 H414 0.950 . S
C426 C422 1.393 . S
C426 C425 1.391 . S
H427 C435 0.950 . S
H428 C440 0.950 . S
H429 C437 0.950 . S
H430 C439 0.950 . S
H431 C441 0.950 1_554 S
H432 C443 0.950 . S
H433 C445 0.950 . S
H434 C446 0.950 . S
C435 H427 0.950 . S
C435 C436 1.386 . S
C435 C437 1.391 . S
C436 C435 1.386 . S
C436 C440 1.393 . S
C437 H429 0.950 . S
C437 C435 1.391 . S
C437 C438 1.400 . S
C438 C437 1.400 . S
C438 C439 1.398 . S
C438 C444 1.491 . S
C439 H430 0.950 . S
C439 C438 1.398 . S
C439 C440 1.391 . S
C440 H428 0.950 . S
C440 C436 1.393 . S
C440 C439 1.391 . S
C441 H431 0.950 1_556 S
C441 C442 1.386 . S
C441 C443 1.391 . S
C442 C441 1.386 . S
C442 C446 1.393 . S
C443 H432 0.950 . S
C443 C441 1.391 . S
C443 C444 1.400 . S
C444 C438 1.491 . S
C444 C443 1.400 . S
C444 C445 1.398 . S
C445 H433 0.950 . S
C445 C444 1.398 . S
C445 C446 1.391 . S
C446 H434 0.950 . S
C446 C442 1.393 . S
C446 C445 1.391 . S
H447 C455 0.950 . S
H448 C460 0.950 . S
H449 C457 0.950 . S
H450 C459 0.950 . S
H451 C461 0.950 . S
H452 C463 0.950 . S
H453 C465 0.950 . S
H454 C466 0.950 . S
C455 H447 0.950 . S
C455 C456 1.386 . S
C455 C457 1.391 . S
C456 C455 1.386 . S
C456 C460 1.393 . S
C457 H449 0.950 . S
C457 C455 1.391 . S
C457 C458 1.400 . S
C458 C457 1.400 . S
C458 C459 1.398 . S
C458 C464 1.491 . S
C459 H450 0.950 . S
C459 C458 1.398 . S
C459 C460 1.391 . S
C460 H448 0.950 . S
C460 C456 1.393 . S
C460 C459 1.391 . S
C461 H451 0.950 . S
C461 C462 1.386 . S
C461 C463 1.391 . S
C462 C461 1.386 . S
C462 C466 1.393 . S
C463 H452 0.950 . S
C463 C461 1.391 . S
C463 C464 1.400 . S
C464 C458 1.491 . S
C464 C463 1.400 . S
C464 C465 1.398 . S
C465 H453 0.950 . S
C465 C464 1.398 . S
C465 C466 1.391 . S
C466 H454 0.950 . S
C466 C462 1.393 . S
C466 C465 1.391 . S
H467 C475 0.950 1_455 S
H468 C480 0.950 . S
H469 C477 0.950 . S
H470 C479 0.950 . S
H471 C481 0.950 . S
H472 C483 0.950 . S
H473 C485 0.950 . S
H474 C486 0.950 . S
C475 H467 0.950 1_655 S
C475 C476 1.386 . S
C475 C477 1.391 . S
C476 C475 1.386 . S
C476 C480 1.393 . S
C477 H469 0.950 . S
C477 C475 1.391 . S
C477 C478 1.400 . S
C478 C477 1.400 . S
C478 C479 1.398 . S
C478 C484 1.491 . S
C479 H470 0.950 . S
C479 C478 1.398 . S
C479 C480 1.391 . S
C480 H468 0.950 . S
C480 C476 1.393 . S
C480 C479 1.391 . S
C481 H471 0.950 . S
C481 C482 1.386 . S
C481 C483 1.391 . S
C482 C481 1.386 . S
C482 C486 1.393 . S
C483 H472 0.950 . S
C483 C481 1.391 . S
C483 C484 1.400 . S
C484 C478 1.491 . S
C484 C483 1.400 . S
C484 C485 1.398 . S
C485 H473 0.950 . S
C485 C484 1.398 . S
C485 C486 1.391 . S
C486 H474 0.950 . S
C486 C482 1.393 . S
C486 C485 1.391 . S
H487 C495 0.950 . S
H488 C500 0.950 . S
H489 C497 0.950 . S
H490 C499 0.950 . S
H491 C501 0.950 . S
H492 C503 0.950 . S
H493 C505 0.950 . S
H494 C506 0.950 . S
C495 H487 0.950 . S
C495 C496 1.386 . S
C495 C497 1.391 . S
C496 C495 1.386 . S
C496 C500 1.393 . S
C497 H489 0.950 . S
C497 C495 1.391 . S
C497 C498 1.400 . S
C498 C497 1.400 . S
C498 C499 1.398 . S
C498 C504 1.491 . S
C499 H490 0.950 . S
C499 C498 1.398 . S
C499 C500 1.391 . S
C500 H488 0.950 . S
C500 C496 1.393 . S
C500 C499 1.391 . S
C501 H491 0.950 . S
C501 C502 1.386 . S
C501 C503 1.391 . S
C502 C501 1.386 . S
C502 C506 1.393 . S
C503 H492 0.950 . S
C503 C501 1.391 . S
C503 C504 1.400 . S
C504 C498 1.491 . S
C504 C503 1.400 . S
C504 C505 1.398 . S
C505 H493 0.950 . S
C505 C504 1.398 . S
C505 C506 1.391 . S
C506 H494 0.950 . S
C506 C502 1.393 . S
C506 C505 1.391 . S
H507 C515 0.950 . S
H508 C520 0.950 . S
H509 C517 0.950 . S
H510 C519 0.950 . S
H511 C521 0.950 . S
H512 C523 0.950 . S
H513 C525 0.950 . S
H514 C526 0.950 . S
C515 H507 0.950 . S
C515 C516 1.386 . S
C515 C517 1.391 . S
C516 C515 1.386 . S
C516 C520 1.393 . S
C517 H509 0.950 . S
C517 C515 1.391 . S
C517 C518 1.400 . S
C518 C517 1.400 . S
C518 C519 1.398 . S
C518 C524 1.491 . S
C519 H510 0.950 . S
C519 C518 1.398 . S
C519 C520 1.391 . S
C520 H508 0.950 . S
C520 C516 1.393 . S
C520 C519 1.391 . S
C521 H511 0.950 . S
C521 C522 1.386 1_455 S
C521 C523 1.391 . S
C522 C521 1.386 1_655 S
C522 C526 1.393 . S
C523 H512 0.950 . S
C523 C521 1.391 . S
C523 C524 1.400 . S
C524 C518 1.491 . S
C524 C523 1.400 . S
C524 C525 1.398 . S
C525 H513 0.950 . S
C525 C524 1.398 . S
C525 C526 1.391 1_455 S
C526 H514 0.950 . S
C526 C522 1.393 . S
C526 C525 1.391 1_655 S
H527 C535 0.950 . S
H528 C540 0.950 . S
H529 C537 0.950 . S
H530 C539 0.950 . S
H531 C541 0.950 . S
H532 C543 0.950 . S
H533 C545 0.950 . S
H534 C546 0.950 . S
C535 H527 0.950 . S
C535 C536 1.386 . S
C535 C537 1.391 . S
C536 C535 1.386 . S
C536 C540 1.393 . S
C537 H529 0.950 . S
C537 C535 1.391 . S
C537 C538 1.400 . S
C538 C537 1.400 . S
C538 C539 1.398 . S
C538 C544 1.491 . S
C539 H530 0.950 . S
C539 C538 1.398 . S
C539 C540 1.391 . S
C540 H528 0.950 . S
C540 C536 1.393 . S
C540 C539 1.391 . S
C541 H531 0.950 . S
C541 C542 1.386 . S
C541 C543 1.391 . S
C542 C541 1.386 . S
C542 C546 1.393 . S
C543 H532 0.950 . S
C543 C541 1.391 . S
C543 C544 1.400 . S
C544 C538 1.491 . S
C544 C543 1.400 . S
C544 C545 1.398 . S
C545 H533 0.950 . S
C545 C544 1.398 . S
C545 C546 1.391 . S
C546 H534 0.950 . S
C546 C542 1.393 . S
C546 C545 1.391 . S
H547 C555 0.950 . S
H548 C560 0.950 . S
H549 C557 0.950 . S
H550 C559 0.950 . S
H551 C561 0.950 . S
H552 C563 0.950 . S
H553 C565 0.950 . S
H554 C566 0.950 . S
C555 H547 0.950 . S
C555 C556 1.386 . S
C555 C557 1.391 . S
C556 C555 1.386 . S
C556 C560 1.393 . S
C557 H549 0.950 . S
C557 C555 1.391 . S
C557 C558 1.397 . S
C558 C557 1.397 . S
C558 C559 1.398 1_565 S
C558 C564 1.494 1_565 S
C559 H550 0.950 . S
C559 C558 1.398 1_545 S
C559 C560 1.391 1_545 S
C560 H548 0.950 . S
C560 C556 1.393 . S
C560 C559 1.391 1_565 S
C561 H551 0.950 . S
C561 C562 1.386 . S
C561 C563 1.391 . S
C562 C561 1.386 . S
C562 C566 1.393 . S
C563 H552 0.950 . S
C563 C561 1.391 . S
C563 C564 1.400 . S
C564 C558 1.494 1_545 S
C564 C563 1.400 . S
C564 C565 1.398 . S
C565 H553 0.950 . S
C565 C564 1.398 . S
C565 C566 1.391 . S
C566 H554 0.950 . S
C566 C562 1.393 . S
C566 C565 1.391 . S
C216 N58 1.342 . S
C222 C16 1.315 . S
C236 N25 1.242 . S
C242 N2 1.265 . S
C256 C39 1.512 . S
C262 C53 1.535 . S
C276 C122 1.575 . S
C282 C85 1.539 . S
C296 N94 1.156 . S
C302 N71 1.140 . S
C316 C108 1.332 . S
C322 N127 1.370 . S
C336 C154 1.378 . S
C342 N196 1.397 . S
C356 N140 1.068 . S
C362 N163 1.069 . S
C376 C177 1.555 . S
C382 C191 1.594 . S
C396 N12 1.534 1_556 S
C402 N173 1.545 . S
C416 C30 1.577 1_556 S
C422 C200 1.548 . S
C436 C145 1.516 . S
C442 N48 1.430 . S
C456 C99 1.488 . S
C462 C62 1.463 . S
C476 C7 1.547 . S
C482 C131 1.527 . S
C496 N81 1.574 . S
C502 N35 1.552 . S
C516 C168 1.577 . S
C522 N117 1.494 . S
C536 C76 1.595 . S
C542 N186 1.514 . S
C556 N150 1.497 . S
C562 N104 1.472 . S
