# Generated by pormake.
# Topology vbk, (5)-cn, num edge types: 1
# Building blocks:
#     Node 0, Type 0, BuildingBlock: BEQFEK_clean_sbu_0, # of connection points: 5
#     Node 1, Type 0, BuildingBlock: BEQFEK_clean_sbu_0, # of connection points: 5
#     Node 2, Type 0, BuildingBlock: BEQFEK_clean_sbu_0, # of connection points: 5
#     Node 3, Type 0, BuildingBlock: BEQFEK_clean_sbu_0, # of connection points: 5
#     Node 4, Type 0, BuildingBlock: BEQFEK_clean_sbu_0, # of connection points: 5
#     Node 5, Type 0, BuildingBlock: BEQFEK_clean_sbu_0, # of connection points: 5
#     Node 6, Type 0, BuildingBlock: BEQFEK_clean_sbu_0, # of connection points: 5
#     Node 7, Type 0, BuildingBlock: BEQFEK_clean_sbu_0, # of connection points: 5
#     Node 8, Type 0, BuildingBlock: BEQFEK_clean_sbu_0, # of connection points: 5
#     Node 9, Type 0, BuildingBlock: BEQFEK_clean_sbu_0, # of connection points: 5
#     Node 10, Type 0, BuildingBlock: BEQFEK_clean_sbu_0, # of connection points: 5
#     Node 11, Type 0, BuildingBlock: BEQFEK_clean_sbu_0, # of connection points: 5
#     Node 12, Type 0, BuildingBlock: BEQFEK_clean_sbu_0, # of connection points: 5
#     Node 13, Type 0, BuildingBlock: BEQFEK_clean_sbu_0, # of connection points: 5
#     Node 14, Type 0, BuildingBlock: BEQFEK_clean_sbu_0, # of connection points: 5
#     Node 15, Type 0, BuildingBlock: BEQFEK_clean_sbu_0, # of connection points: 5
#     Edge 16, Type (0, 0), BuildingBlock: ZUJKAS_clean_linker_0, # of connection points: 2
#     Edge 17, Type (0, 0), BuildingBlock: ZUJKAS_clean_linker_0, # of connection points: 2
#     Edge 18, Type (0, 0), BuildingBlock: ZUJKAS_clean_linker_0, # of connection points: 2
#     Edge 19, Type (0, 0), BuildingBlock: ZUJKAS_clean_linker_0, # of connection points: 2
#     Edge 20, Type (0, 0), BuildingBlock: ZUJKAS_clean_linker_0, # of connection points: 2
#     Edge 21, Type (0, 0), BuildingBlock: ZUJKAS_clean_linker_0, # of connection points: 2
#     Edge 22, Type (0, 0), BuildingBlock: ZUJKAS_clean_linker_0, # of connection points: 2
#     Edge 23, Type (0, 0), BuildingBlock: ZUJKAS_clean_linker_0, # of connection points: 2
#     Edge 24, Type (0, 0), BuildingBlock: ZUJKAS_clean_linker_0, # of connection points: 2
#     Edge 25, Type (0, 0), BuildingBlock: ZUJKAS_clean_linker_0, # of connection points: 2
#     Edge 26, Type (0, 0), BuildingBlock: ZUJKAS_clean_linker_0, # of connection points: 2
#     Edge 27, Type (0, 0), BuildingBlock: ZUJKAS_clean_linker_0, # of connection points: 2
#     Edge 28, Type (0, 0), BuildingBlock: ZUJKAS_clean_linker_0, # of connection points: 2
#     Edge 29, Type (0, 0), BuildingBlock: ZUJKAS_clean_linker_0, # of connection points: 2
#     Edge 30, Type (0, 0), BuildingBlock: ZUJKAS_clean_linker_0, # of connection points: 2
#     Edge 31, Type (0, 0), BuildingBlock: ZUJKAS_clean_linker_0, # of connection points: 2
#     Edge 32, Type (0, 0), BuildingBlock: ZUJKAS_clean_linker_0, # of connection points: 2
#     Edge 33, Type (0, 0), BuildingBlock: ZUJKAS_clean_linker_0, # of connection points: 2
#     Edge 34, Type (0, 0), BuildingBlock: ZUJKAS_clean_linker_0, # of connection points: 2
#     Edge 35, Type (0, 0), BuildingBlock: ZUJKAS_clean_linker_0, # of connection points: 2
#     Edge 36, Type (0, 0), BuildingBlock: ZUJKAS_clean_linker_0, # of connection points: 2
#     Edge 37, Type (0, 0), BuildingBlock: ZUJKAS_clean_linker_0, # of connection points: 2
#     Edge 38, Type (0, 0), BuildingBlock: ZUJKAS_clean_linker_0, # of connection points: 2
#     Edge 39, Type (0, 0), BuildingBlock: ZUJKAS_clean_linker_0, # of connection points: 2
#     Edge 40, Type (0, 0), BuildingBlock: ZUJKAS_clean_linker_0, # of connection points: 2
#     Edge 41, Type (0, 0), BuildingBlock: ZUJKAS_clean_linker_0, # of connection points: 2
#     Edge 42, Type (0, 0), BuildingBlock: ZUJKAS_clean_linker_0, # of connection points: 2
#     Edge 43, Type (0, 0), BuildingBlock: ZUJKAS_clean_linker_0, # of connection points: 2
#     Edge 44, Type (0, 0), BuildingBlock: ZUJKAS_clean_linker_0, # of connection points: 2
#     Edge 45, Type (0, 0), BuildingBlock: ZUJKAS_clean_linker_0, # of connection points: 2
#     Edge 46, Type (0, 0), BuildingBlock: ZUJKAS_clean_linker_0, # of connection points: 2
#     Edge 47, Type (0, 0), BuildingBlock: ZUJKAS_clean_linker_0, # of connection points: 2
#     Edge 48, Type (0, 0), BuildingBlock: ZUJKAS_clean_linker_0, # of connection points: 2
#     Edge 49, Type (0, 0), BuildingBlock: ZUJKAS_clean_linker_0, # of connection points: 2
#     Edge 50, Type (0, 0), BuildingBlock: ZUJKAS_clean_linker_0, # of connection points: 2
#     Edge 51, Type (0, 0), BuildingBlock: ZUJKAS_clean_linker_0, # of connection points: 2
#     Edge 52, Type (0, 0), BuildingBlock: ZUJKAS_clean_linker_0, # of connection points: 2
#     Edge 53, Type (0, 0), BuildingBlock: ZUJKAS_clean_linker_0, # of connection points: 2
#     Edge 54, Type (0, 0), BuildingBlock: ZUJKAS_clean_linker_0, # of connection points: 2
#     Edge 55, Type (0, 0), BuildingBlock: ZUJKAS_clean_linker_0, # of connection points: 2
# Relax obj value: 0.035
# Max RMSD: 0.071
# Mean RMSD: 0.071
data_MOF--net-vbk--node1-BEQFEK_clean_sbu_0--edge1-ZUJKAS_clean_linker_0
_symmetry_space_group_name_H-M    P1
_symmetry_Int_Tables_number       1
_symmetry_cell_setting            triclinic
loop_
_symmetry_equiv_pos_as_xyz
'x, y, z'
_cell_length_a     94.494063
_cell_length_b     54.078763
_cell_length_c     34.241507
_cell_angle_alpha  89.999851
_cell_angle_beta   89.976668
_cell_angle_gamma 89.99684
loop_
_atom_site_label
_atom_site_type_symbol
_atom_site_fract_x
_atom_site_fract_y
_atom_site_fract_z
_atom_type_partial_charge
Co0 Co 0.10616 0.14321 0.15376 0.0
Co1 Co 0.13943 0.14866 0.15611 0.0
C2 C 0.12551 0.1035 0.12318 0.0
O3 O 0.11321 0.11215 0.13008 0.0
O4 O 0.13663 0.11547 0.1324 0.0
C5 C 0.07866 0.12055 0.16454 0.0
O6 O 0.08589 0.0998 0.16513 0.0
C7 C 0.16935 0.14048 0.18052 0.0
C8 C 0.1792 0.17473 0.1582 0.0
C9 C 0.18222 0.1529 0.17764 0.0
N10 N 0.15925 0.1545 0.16369 0.0
N11 N 0.16527 0.17491 0.15045 0.0
C12 C 0.16675 0.11523 0.19685 0.0
H13 H 0.15678 0.1074 0.18512 0.0
H14 H 0.16577 0.11644 0.22906 0.0
H15 H 0.17577 0.1028 0.18995 0.0
C16 C 0.10968 0.15587 0.23708 0.0
N17 N 0.11518 0.14982 0.20211 0.0
N18 N 0.12902 0.1526 0.20328 0.0
C19 C 0.13273 0.16093 0.23898 0.0
C20 C 0.12059 0.16316 0.26165 0.0
C21 C 0.09417 0.15578 0.24599 0.0
H22 H 0.08966 0.13751 0.23817 0.0
H23 H 0.09207 0.15941 0.27734 0.0
H24 H 0.08881 0.17001 0.22793 0.0
O25 O 0.10968 0.1707 0.11662 0.0
O26 O 0.1331 0.17376 0.11792 0.0
H27 H 0.1472 0.18148 0.27605 0.0
H28 H 0.15436 0.15413 0.25343 0.0
C29 C 0.14722 0.17014 0.24908 0.0
H30 H 0.15143 0.18147 0.22474 0.0
H31 H 0.15985 0.18899 0.13595 0.0
O32 O 0.08524 0.14092 0.16052 0.0
C33 C 0.12112 0.18076 0.10499 0.0
Co34 Co 0.39969 0.85388 0.65979 0.0
Co35 Co 0.36662 0.84678 0.65798 0.0
C36 C 0.38056 0.89279 0.62709 0.0
O37 O 0.39283 0.88486 0.63591 0.0
O38 O 0.36951 0.88008 0.63436 0.0
C39 C 0.42796 0.86488 0.64042 0.0
O40 O 0.42176 0.87104 0.60749 0.0
C41 C 0.33685 0.85544 0.68164 0.0
C42 C 0.32648 0.82218 0.65752 0.0
C43 C 0.32379 0.8437 0.67821 0.0
N44 N 0.34672 0.84132 0.66405 0.0
N45 N 0.34042 0.82151 0.64967 0.0
C46 C 0.33989 0.88018 0.69932 0.0
H47 H 0.34992 0.88784 0.68764 0.0
H48 H 0.34105 0.87818 0.73138 0.0
H49 H 0.33104 0.89318 0.69349 0.0
C50 C 0.3951 0.842 0.74295 0.0
N51 N 0.39008 0.84708 0.70708 0.0
N52 N 0.37633 0.84312 0.70641 0.0
C53 C 0.37224 0.83467 0.74172 0.0
C54 C 0.38399 0.83385 0.76619 0.0
C55 C 0.41035 0.84436 0.75414 0.0
H56 H 0.41641 0.82887 0.741 0.0
H57 H 0.41469 0.86191 0.74243 0.0
H58 H 0.41173 0.84407 0.78632 0.0
O59 O 0.39694 0.82632 0.62224 0.0
O60 O 0.37361 0.82162 0.62066 0.0
H61 H 0.35389 0.81415 0.72391 0.0
H62 H 0.35817 0.81092 0.77485 0.0
C63 C 0.3579 0.82404 0.74997 0.0
H64 H 0.35048 0.83924 0.75716 0.0
H65 H 0.34564 0.8075 0.63444 0.0
O66 O 0.4204 0.85695 0.66844 0.0
C67 C 0.38595 0.81546 0.60926 0.0
Co68 Co 0.1068 0.852 0.84182 0.0
Co69 Co 0.14002 0.84642 0.84159 0.0
C70 C 0.12626 0.89229 0.87116 0.0
O71 O 0.114 0.88349 0.86412 0.0
O72 O 0.13745 0.88012 0.86323 0.0
C73 C 0.07974 0.87468 0.82437 0.0
O74 O 0.08726 0.89475 0.81832 0.0
C75 C 0.17036 0.85373 0.82191 0.0
C76 C 0.17864 0.81619 0.83309 0.0
C77 C 0.18265 0.83947 0.82023 0.0
N78 N 0.1597 0.83935 0.83481 0.0
N79 N 0.16478 0.81704 0.84181 0.0
C80 C 0.16836 0.87982 0.80849 0.0
H81 H 0.15703 0.88345 0.80215 0.0
H82 H 0.17482 0.88351 0.78205 0.0
H83 H 0.1718 0.8926 0.832 0.0
C84 C 0.11085 0.83708 0.75947 0.0
N85 N 0.11605 0.84405 0.7944 0.0
N86 N 0.12994 0.84207 0.79393 0.0
C87 C 0.13402 0.83397 0.75844 0.0
C88 C 0.12207 0.83044 0.73546 0.0
C89 C 0.09539 0.83388 0.75133 0.0
H90 H 0.0903 0.82411 0.77611 0.0
H91 H 0.09039 0.85237 0.74868 0.0
H92 H 0.09348 0.82329 0.72411 0.0
O93 O 0.1098 0.82528 0.88028 0.0
O94 O 0.1332 0.82213 0.88079 0.0
H95 H 0.15317 0.81325 0.76473 0.0
H96 H 0.15007 0.82448 0.71566 0.0
C97 C 0.14905 0.82891 0.74715 0.0
H98 H 0.15557 0.84543 0.75341 0.0
H99 H 0.15871 0.80222 0.85179 0.0
O100 O 0.08601 0.85479 0.83402 0.0
C101 C 0.12109 0.8154 0.89318 0.0
Co102 Co 0.39912 0.14626 0.34781 0.0
Co103 Co 0.36573 0.15006 0.34615 0.0
C104 C 0.38025 0.10504 0.37672 0.0
O105 O 0.39241 0.11439 0.37007 0.0
O106 O 0.36893 0.11666 0.36822 0.0
C107 C 0.42657 0.1247 0.33166 0.0
O108 O 0.4193 0.1043 0.32611 0.0
C109 C 0.33531 0.14138 0.32606 0.0
C110 C 0.32631 0.17762 0.34254 0.0
C111 C 0.3227 0.15464 0.32776 0.0
N112 N 0.34587 0.15602 0.33903 0.0
N113 N 0.34035 0.17761 0.34881 0.0
C114 C 0.33722 0.115 0.31395 0.0
H115 H 0.34711 0.10728 0.32628 0.0
H116 H 0.33792 0.11399 0.28166 0.0
H117 H 0.32802 0.10373 0.32344 0.0
C118 C 0.3952 0.16124 0.26542 0.0
N119 N 0.38993 0.15376 0.30002 0.0
N120 N 0.37602 0.15508 0.29902 0.0
C121 C 0.372 0.16333 0.26359 0.0
C122 C 0.384 0.16759 0.24111 0.0
C123 C 0.41064 0.16529 0.258 0.0
H124 H 0.41539 0.17535 0.283 0.0
H125 H 0.41599 0.14708 0.25565 0.0
H126 H 0.41255 0.17597 0.23087 0.0
O127 O 0.39542 0.17278 0.38631 0.0
O128 O 0.37196 0.17461 0.38563 0.0
H129 H 0.35265 0.18345 0.26986 0.0
H130 H 0.35598 0.17261 0.22064 0.0
C131 C 0.35696 0.16803 0.2521 0.0
H132 H 0.35058 0.15131 0.2581 0.0
H133 H 0.34619 0.19239 0.35995 0.0
O134 O 0.42004 0.14448 0.34058 0.0
C135 C 0.38385 0.18197 0.3987 0.0
Co136 Co 0.90022 0.85376 0.84454 0.0
Co137 Co 0.86707 0.84743 0.84184 0.0
C138 C 0.88043 0.89349 0.87321 0.0
O139 O 0.89281 0.88503 0.86682 0.0
O140 O 0.86941 0.88108 0.86432 0.0
C141 C 0.9275 0.87666 0.83105 0.0
O142 O 0.92008 0.89703 0.82681 0.0
C143 C 0.83743 0.8556 0.81711 0.0
C144 C 0.82808 0.81897 0.8294 0.0
C145 C 0.82495 0.84207 0.8142 0.0
N146 N 0.84743 0.84102 0.83303 0.0
N147 N 0.8417 0.81927 0.84071 0.0
C148 C 0.84024 0.88111 0.80215 0.0
H149 H 0.85172 0.88368 0.79659 0.0
H150 H 0.83414 0.88459 0.77499 0.0
H151 H 0.83687 0.89475 0.8245 0.0
C152 C 0.89706 0.84006 0.76137 0.0
N153 N 0.89147 0.84621 0.79622 0.0
N154 N 0.87764 0.84338 0.79485 0.0
C155 C 0.87401 0.83521 0.759 0.0
C156 C 0.8862 0.83289 0.73656 0.0
C157 C 0.91258 0.84013 0.75271 0.0
H158 H 0.91693 0.85878 0.75871 0.0
H159 H 0.91481 0.8353 0.72183 0.0
H160 H 0.91801 0.82681 0.7723 0.0
O161 O 0.8968 0.82677 0.88252 0.0
O162 O 0.87342 0.82293 0.8812 0.0
H163 H 0.85925 0.81705 0.71964 0.0
H164 H 0.85225 0.84275 0.74706 0.0
C165 C 0.85946 0.82661 0.74826 0.0
H166 H 0.8555 0.81369 0.77088 0.0
H167 H 0.84721 0.80439 0.85277 0.0
O168 O 0.92111 0.85647 0.83822 0.0
C169 C 0.88547 0.81652 0.89448 0.0
Co170 Co 0.60649 0.14614 0.34608 0.0
Co171 Co 0.63975 0.1508 0.34125 0.0
C172 C 0.62615 0.10555 0.37375 0.0
O173 O 0.61384 0.11457 0.36808 0.0
O174 O 0.63728 0.1174 0.36406 0.0
C175 C 0.57902 0.12408 0.33178 0.0
O176 O 0.58635 0.10387 0.32499 0.0
C177 C 0.66972 0.14207 0.31889 0.0
C178 C 0.67821 0.18006 0.32289 0.0
C179 C 0.68191 0.15605 0.31312 0.0
N180 N 0.65933 0.15726 0.33118 0.0
N181 N 0.66456 0.17985 0.33394 0.0
C182 C 0.66752 0.11534 0.30952 0.0
H183 H 0.65616 0.11164 0.30358 0.0
H184 H 0.674 0.10981 0.28392 0.0
H185 H 0.6708 0.10401 0.33497 0.0
C186 C 0.60924 0.16081 0.26312 0.0
N187 N 0.61496 0.15362 0.29734 0.0
N188 N 0.62885 0.15497 0.29494 0.0
C189 C 0.63239 0.16273 0.25883 0.0
C190 C 0.62011 0.16688 0.23754 0.0
C191 C 0.59371 0.16481 0.25714 0.0
H192 H 0.58923 0.17472 0.28267 0.0
H193 H 0.58838 0.14659 0.25502 0.0
H194 H 0.59149 0.17559 0.23029 0.0
O195 O 0.61045 0.17299 0.3837 0.0
O196 O 0.63387 0.17559 0.38091 0.0
H197 H 0.65173 0.18322 0.26048 0.0
H198 H 0.64778 0.16995 0.21327 0.0
C199 C 0.64726 0.16689 0.24528 0.0
H200 H 0.65379 0.15053 0.25255 0.0
H201 H 0.65868 0.19528 0.34243 0.0
O202 O 0.58553 0.14384 0.34084 0.0
C203 C 0.62205 0.18266 0.39488 0.0
Co204 Co 0.89901 0.14453 0.15687 0.0
Co205 Co 0.86578 0.15025 0.15809 0.0
C206 C 0.87949 0.10515 0.12501 0.0
O207 O 0.89177 0.11368 0.13258 0.0
O208 O 0.86833 0.11714 0.13394 0.0
C209 C 0.92633 0.12144 0.16953 0.0
O210 O 0.91903 0.10078 0.17112 0.0
C211 C 0.83564 0.14176 0.17859 0.0
C212 C 0.82713 0.17964 0.17276 0.0
C213 C 0.82339 0.15576 0.18322 0.0
N214 N 0.8461 0.15682 0.16634 0.0
N215 N 0.84086 0.17934 0.16244 0.0
C216 C 0.83784 0.1152 0.18916 0.0
H217 H 0.8492 0.11158 0.19511 0.0
H218 H 0.8314 0.11019 0.21508 0.0
H219 H 0.83449 0.10342 0.16429 0.0
C220 C 0.89525 0.15758 0.23997 0.0
N221 N 0.8899 0.15124 0.20491 0.0
N222 N 0.87602 0.15337 0.20579 0.0
C223 C 0.8721 0.161 0.24169 0.0
C224 C 0.88414 0.16403 0.26449 0.0
C225 C 0.91074 0.16059 0.24772 0.0
H226 H 0.91558 0.17183 0.22413 0.0
H227 H 0.91586 0.14213 0.24736 0.0
H228 H 0.91282 0.16961 0.27622 0.0
O229 O 0.89582 0.17217 0.12023 0.0
O230 O 0.87242 0.17564 0.12031 0.0
H231 H 0.85322 0.18256 0.23675 0.0
H232 H 0.8563 0.17036 0.2852 0.0
C233 C 0.85717 0.16642 0.2535 0.0
H234 H 0.85042 0.15027 0.24667 0.0
H235 H 0.84678 0.19468 0.15376 0.0
O236 O 0.91986 0.14177 0.16418 0.0
C237 C 0.88454 0.18251 0.10813 0.0
Co238 Co 0.60834 0.85404 0.65631 0.0
Co239 Co 0.64149 0.84789 0.65677 0.0
C240 C 0.62794 0.89344 0.62491 0.0
O241 O 0.61567 0.88497 0.63275 0.0
O242 O 0.63909 0.88125 0.63319 0.0
C243 C 0.58003 0.86592 0.63677 0.0
O244 O 0.58615 0.8724 0.60387 0.0
C245 C 0.67172 0.85584 0.67617 0.0
C246 C 0.67994 0.81772 0.67109 0.0
C247 C 0.68388 0.84163 0.68077 0.0
N248 N 0.66113 0.84089 0.66461 0.0
N249 N 0.66618 0.81822 0.66117 0.0
C250 C 0.66976 0.88254 0.68616 0.0
H251 H 0.65849 0.8864 0.69297 0.0
H252 H 0.67651 0.88777 0.71138 0.0
H253 H 0.67289 0.89399 0.66068 0.0
C254 C 0.61212 0.84025 0.73889 0.0
N255 N 0.61748 0.84677 0.70394 0.0
N256 N 0.63134 0.84454 0.70467 0.0
C257 C 0.63526 0.8367 0.74045 0.0
C258 C 0.62322 0.83359 0.76328 0.0
C259 C 0.59661 0.83725 0.74651 0.0
H260 H 0.59181 0.82602 0.72286 0.0
H261 H 0.59149 0.85571 0.74603 0.0
H262 H 0.59448 0.82822 0.77497 0.0
O263 O 0.6112 0.82666 0.61896 0.0
O264 O 0.6346 0.82291 0.61858 0.0
H265 H 0.65405 0.81487 0.73584 0.0
H266 H 0.65111 0.82769 0.78395 0.0
C267 C 0.6502 0.83126 0.75214 0.0
H268 H 0.657 0.84724 0.74467 0.0
H269 H 0.66012 0.80292 0.65308 0.0
O270 O 0.58764 0.85766 0.66444 0.0
C271 C 0.62242 0.8163 0.60645 0.0
Co272 Co 0.60764 0.64546 0.15604 0.0
Co273 Co 0.64071 0.65213 0.1562 0.0
C274 C 0.62738 0.60611 0.12534 0.0
O275 O 0.61505 0.6144 0.13289 0.0
O276 O 0.63843 0.61858 0.13351 0.0
C277 C 0.57949 0.63315 0.13628 0.0
O278 O 0.58581 0.62662 0.10369 0.0
C279 C 0.6708 0.64447 0.17669 0.0
C280 C 0.6796 0.68145 0.16406 0.0
C281 C 0.68327 0.65821 0.17787 0.0
N282 N 0.66037 0.65907 0.16309 0.0
N283 N 0.66575 0.68106 0.15528 0.0
C284 C 0.66837 0.6187 0.19111 0.0
H285 H 0.65697 0.61572 0.19746 0.0
H286 H 0.67471 0.61513 0.21779 0.0
H287 H 0.67163 0.60539 0.16815 0.0
C288 C 0.61147 0.65984 0.23852 0.0
N289 N 0.61681 0.65319 0.20359 0.0
N290 N 0.63065 0.65588 0.20404 0.0
C291 C 0.63457 0.66433 0.23946 0.0
C292 C 0.62256 0.66718 0.26249 0.0
C293 C 0.59595 0.66224 0.2465 0.0
H294 H 0.59099 0.67359 0.22325 0.0
H295 H 0.59102 0.64363 0.24552 0.0
H296 H 0.5938 0.67086 0.27526 0.0
O297 O 0.61035 0.67268 0.11816 0.0
O298 O 0.63372 0.6767 0.11773 0.0
H299 H 0.65328 0.68605 0.23172 0.0
H300 H 0.65036 0.6761 0.28158 0.0
C301 C 0.64946 0.6707 0.25044 0.0
H302 H 0.65634 0.65444 0.24542 0.0
H303 H 0.65989 0.69595 0.14458 0.0
O304 O 0.58694 0.64166 0.16412 0.0
C305 C 0.62153 0.68311 0.10551 0.0
Co306 Co 0.89929 0.35135 0.65721 0.0
Co307 Co 0.86606 0.3461 0.65763 0.0
C308 C 0.88002 0.39144 0.6264 0.0
O309 O 0.89223 0.38258 0.63386 0.0
O310 O 0.86877 0.37952 0.63465 0.0
C311 C 0.92649 0.37408 0.67234 0.0
O312 O 0.91912 0.39455 0.67595 0.0
C313 C 0.83583 0.35434 0.67765 0.0
C314 C 0.82741 0.31651 0.67043 0.0
C315 C 0.82358 0.34023 0.68152 0.0
N316 N 0.84635 0.33948 0.66523 0.0
N317 N 0.84117 0.317 0.6605 0.0
C318 C 0.83794 0.38079 0.68901 0.0
H319 H 0.84929 0.38445 0.69513 0.0
H320 H 0.83147 0.38543 0.71505 0.0
H321 H 0.83457 0.39284 0.66449 0.0
C322 C 0.89527 0.33766 0.73998 0.0
N323 N 0.89005 0.34422 0.70488 0.0
N324 N 0.87616 0.34231 0.70546 0.0
C325 C 0.87211 0.33461 0.74122 0.0
C326 C 0.88406 0.33131 0.76423 0.0
C327 C 0.91073 0.33446 0.74809 0.0
H328 H 0.9157 0.32382 0.72401 0.0
H329 H 0.91584 0.35293 0.74909 0.0
H330 H 0.91267 0.32474 0.77608 0.0
O331 O 0.89614 0.32415 0.61976 0.0
O332 O 0.87272 0.32108 0.61924 0.0
H333 H 0.85302 0.31365 0.73581 0.0
H334 H 0.85613 0.32559 0.78441 0.0
C335 C 0.8571 0.3296 0.75276 0.0
H336 H 0.85052 0.34597 0.74596 0.0
H337 H 0.84714 0.30179 0.65153 0.0
O338 O 0.9201 0.35394 0.66492 0.0
C339 C 0.88484 0.31413 0.60715 0.0
Co340 Co 0.60708 0.35559 0.8439 0.0
Co341 Co 0.64013 0.34755 0.84379 0.0
C342 C 0.62719 0.39422 0.8744 0.0
O343 O 0.61476 0.38647 0.86672 0.0
O344 O 0.63808 0.38122 0.86652 0.0
C345 C 0.57892 0.37242 0.85882 0.0
O346 O 0.58521 0.38408 0.88764 0.0
C347 C 0.67 0.3547 0.82068 0.0
C348 C 0.67904 0.3181 0.83485 0.0
C349 C 0.68244 0.34096 0.81911 0.0
N350 N 0.65978 0.34049 0.8364 0.0
N351 N 0.66531 0.31876 0.84518 0.0
C352 C 0.66744 0.38004 0.80472 0.0
H353 H 0.65602 0.38274 0.79851 0.0
H354 H 0.67373 0.38304 0.77774 0.0
H355 H 0.67074 0.39393 0.82676 0.0
C356 C 0.61087 0.34216 0.76102 0.0
N357 N 0.61622 0.34781 0.79632 0.0
N358 N 0.63 0.34416 0.79597 0.0
C359 C 0.63382 0.33582 0.76035 0.0
C360 C 0.62182 0.33435 0.73698 0.0
C361 C 0.59544 0.34322 0.75129 0.0
H362 H 0.59107 0.36136 0.76045 0.0
H363 H 0.59357 0.34067 0.71955 0.0
H364 H 0.58978 0.32859 0.76778 0.0
O365 O 0.60969 0.32835 0.88189 0.0
O366 O 0.63299 0.32314 0.8823 0.0
H367 H 0.64847 0.31609 0.7226 0.0
H368 H 0.65577 0.34196 0.74899 0.0
C369 C 0.64827 0.32623 0.75072 0.0
H370 H 0.65188 0.31359 0.77414 0.0
H371 H 0.65962 0.30414 0.8574 0.0
O372 O 0.58632 0.35927 0.83579 0.0
C373 C 0.6207 0.31738 0.89456 0.0
Co374 Co 0.89927 0.6443 0.34439 0.0
Co375 Co 0.86597 0.64828 0.34397 0.0
C376 C 0.88068 0.60339 0.37491 0.0
O377 O 0.89282 0.61251 0.3674 0.0
O378 O 0.86937 0.61512 0.3668 0.0
C379 C 0.92652 0.62284 0.32686 0.0
O380 O 0.91919 0.60251 0.32124 0.0
C381 C 0.83593 0.63828 0.32291 0.0
C382 C 0.82608 0.67377 0.33973 0.0
C383 C 0.82306 0.65079 0.32395 0.0
N384 N 0.84606 0.65338 0.33703 0.0
N385 N 0.84004 0.6745 0.34713 0.0
C386 C 0.83848 0.61218 0.31018 0.0
H387 H 0.84822 0.60472 0.32372 0.0
H388 H 0.83985 0.61165 0.27803 0.0
H389 H 0.82929 0.60034 0.31788 0.0
C390 C 0.89503 0.65897 0.262 0.0
N391 N 0.88989 0.65151 0.29677 0.0
N392 N 0.87599 0.65308 0.29632 0.0
C393 C 0.87185 0.66156 0.26111 0.0
C394 C 0.88376 0.66561 0.23818 0.0
C395 C 0.91046 0.66288 0.25405 0.0
H396 H 0.9153 0.67319 0.27866 0.0
H397 H 0.91578 0.64464 0.25202 0.0
H398 H 0.91228 0.67328 0.2266 0.0
O399 O 0.89567 0.67104 0.38262 0.0
O400 O 0.87221 0.67336 0.38261 0.0
H401 H 0.85263 0.68181 0.26947 0.0
H402 H 0.85573 0.6725 0.21936 0.0
C403 C 0.8568 0.66692 0.25038 0.0
H404 H 0.85034 0.65015 0.25512 0.0
H405 H 0.84549 0.68949 0.35902 0.0
O406 O 0.92009 0.64258 0.33644 0.0
C407 C 0.88421 0.68059 0.39514 0.0
Co408 Co 0.39843 0.35614 0.84694 0.0
Co409 Co 0.36529 0.34906 0.84695 0.0
C410 C 0.37885 0.39544 0.87722 0.0
O411 O 0.39122 0.38744 0.86944 0.0
O412 O 0.36788 0.38262 0.8696 0.0
C413 C 0.4268 0.37199 0.86152 0.0
O414 O 0.42068 0.38362 0.89069 0.0
C415 C 0.33545 0.35696 0.82281 0.0
C416 C 0.32544 0.3231 0.84604 0.0
C417 C 0.32252 0.34473 0.82588 0.0
N418 N 0.34547 0.34302 0.84012 0.0
N419 N 0.33937 0.32284 0.85395 0.0
C420 C 0.3382 0.38196 0.80572 0.0
H421 H 0.34814 0.38986 0.81751 0.0
H422 H 0.33937 0.3803 0.7736 0.0
H423 H 0.32921 0.39459 0.81189 0.0
C424 C 0.39449 0.34231 0.76433 0.0
N425 N 0.38916 0.34844 0.79946 0.0
N426 N 0.37537 0.34491 0.79926 0.0
C427 C 0.37154 0.33595 0.76405 0.0
C428 C 0.38353 0.33412 0.74067 0.0
C429 C 0.40991 0.34324 0.75445 0.0
H430 H 0.41555 0.32851 0.7708 0.0
H431 H 0.41435 0.36132 0.76361 0.0
H432 H 0.41174 0.34072 0.72268 0.0
O433 O 0.3955 0.32915 0.88539 0.0
O434 O 0.37215 0.32457 0.88556 0.0
H435 H 0.35319 0.31502 0.78035 0.0
H436 H 0.35724 0.31373 0.72897 0.0
C437 C 0.35714 0.32583 0.75511 0.0
H438 H 0.34975 0.34138 0.74981 0.0
H439 H 0.34473 0.30888 0.8689 0.0
O440 O 0.41922 0.35914 0.83852 0.0
C441 C 0.38437 0.31853 0.89803 0.0
Co442 Co 0.10616 0.64352 0.34191 0.0
Co443 Co 0.13945 0.64839 0.34163 0.0
C444 C 0.12512 0.60351 0.37378 0.0
O445 O 0.11291 0.61218 0.36584 0.0
O446 O 0.13635 0.61546 0.36554 0.0
C447 C 0.07878 0.62163 0.32583 0.0
O448 O 0.08595 0.601 0.32149 0.0
C449 C 0.16995 0.63967 0.32304 0.0
C450 C 0.17845 0.6772 0.33296 0.0
C451 C 0.18236 0.65359 0.32155 0.0
N452 N 0.15926 0.65459 0.3343 0.0
N453 N 0.16448 0.67693 0.34033 0.0
C454 C 0.16828 0.61262 0.31503 0.0
H455 H 0.1589 0.60514 0.33032 0.0
H456 H 0.16674 0.60978 0.28323 0.0
H457 H 0.17787 0.60233 0.32431 0.0
C458 C 0.11041 0.65723 0.25914 0.0
N459 N 0.11553 0.65035 0.29422 0.0
N460 N 0.12943 0.65198 0.29377 0.0
C461 C 0.1336 0.65971 0.25817 0.0
C462 C 0.12171 0.66344 0.23508 0.0
C463 C 0.09499 0.66103 0.25105 0.0
H464 H 0.09014 0.67164 0.27532 0.0
H465 H 0.08968 0.64276 0.24963 0.0
H466 H 0.09318 0.67105 0.22326 0.0
O467 O 0.10945 0.67078 0.37922 0.0
O468 O 0.13287 0.67377 0.37939 0.0
H469 H 0.15268 0.68067 0.26373 0.0
H470 H 0.14977 0.66827 0.2153 0.0
C471 C 0.14866 0.66457 0.24701 0.0
H472 H 0.15519 0.64825 0.25446 0.0
H473 H 0.15847 0.69209 0.34924 0.0
O474 O 0.08536 0.64147 0.33401 0.0
C475 C 0.12078 0.68081 0.39155 0.0
Co476 Co 0.3992 0.64678 0.15753 0.0
Co477 Co 0.3661 0.65285 0.16164 0.0
C478 C 0.37921 0.6075 0.12778 0.0
O479 O 0.39158 0.61589 0.13452 0.0
O480 O 0.36818 0.61969 0.13724 0.0
C481 C 0.42737 0.6343 0.13616 0.0
O482 O 0.42102 0.62751 0.10376 0.0
C483 C 0.33606 0.64469 0.18276 0.0
C484 C 0.32793 0.68299 0.18074 0.0
C485 C 0.32401 0.65888 0.18908 0.0
N486 N 0.3466 0.65984 0.17146 0.0
N487 N 0.3416 0.68263 0.16986 0.0
C488 C 0.338 0.61772 0.19082 0.0
H489 H 0.34927 0.61365 0.19726 0.0
H490 H 0.33126 0.61179 0.21568 0.0
H491 H 0.33484 0.60703 0.16456 0.0
C492 C 0.39644 0.66019 0.24076 0.0
N493 N 0.39068 0.65384 0.20623 0.0
N494 N 0.37682 0.65581 0.20845 0.0
C495 C 0.37332 0.66328 0.24475 0.0
C496 C 0.38563 0.66645 0.26639 0.0
C497 C 0.41202 0.6633 0.24698 0.0
H498 H 0.41651 0.67466 0.223 0.0
H499 H 0.41719 0.64488 0.24585 0.0
H500 H 0.41446 0.67223 0.27533 0.0
O501 O 0.39584 0.67422 0.12045 0.0
O502 O 0.37248 0.6782 0.12359 0.0
H503 H 0.35446 0.68507 0.24321 0.0
H504 H 0.35798 0.67108 0.29016 0.0
C505 C 0.35851 0.66829 0.25809 0.0
H506 H 0.35165 0.65247 0.25024 0.0
H507 H 0.34765 0.69806 0.16234 0.0
O508 O 0.41997 0.64303 0.16393 0.0
C509 C 0.38443 0.68477 0.10982 0.0
Co510 Co 0.106 0.35117 0.65435 0.0
Co511 Co 0.13923 0.34583 0.65626 0.0
C512 C 0.12543 0.39132 0.62486 0.0
O513 O 0.11318 0.38238 0.63148 0.0
O514 O 0.13663 0.37942 0.63377 0.0
C515 C 0.07873 0.37412 0.66703 0.0
O516 O 0.08613 0.39464 0.66934 0.0
C517 C 0.16915 0.35326 0.68003 0.0
C518 C 0.17829 0.31717 0.66331 0.0
C519 C 0.18168 0.33964 0.68038 0.0
N520 N 0.15893 0.3393 0.66375 0.0
N521 N 0.16453 0.31787 0.65352 0.0
C522 C 0.16652 0.37824 0.6973 0.0
H523 H 0.15506 0.38086 0.70312 0.0
H524 H 0.17264 0.38056 0.72473 0.0
H525 H 0.16998 0.39262 0.67623 0.0
C526 C 0.10957 0.33791 0.73746 0.0
N527 N 0.11501 0.34404 0.70244 0.0
N528 N 0.12887 0.34157 0.70353 0.0
C529 C 0.13266 0.33357 0.73935 0.0
C530 C 0.12055 0.33108 0.76207 0.0
C531 C 0.09407 0.33771 0.74645 0.0
H532 H 0.08871 0.32397 0.72746 0.0
H533 H 0.08954 0.35615 0.73989 0.0
H534 H 0.09198 0.33325 0.77755 0.0
O535 O 0.10936 0.32407 0.61653 0.0
O536 O 0.13278 0.3213 0.61721 0.0
H537 H 0.15147 0.31301 0.7266 0.0
H538 H 0.14754 0.31509 0.77794 0.0
C539 C 0.14729 0.32525 0.74984 0.0
H540 H 0.1543 0.34162 0.75212 0.0
H541 H 0.15887 0.30349 0.64051 0.0
O542 O 0.08513 0.35374 0.66131 0.0
C543 C 0.1208 0.31431 0.60431 0.0
H544 H 0.18938 0.12885 0.24592 0.0
H545 H 0.21322 0.12303 0.27254 0.0
H546 H 0.23107 0.15662 0.16953 0.0
H547 H 0.20735 0.16236 0.14267 0.0
H548 H 0.23945 0.09981 0.24205 0.0
H549 H 0.24323 0.20149 0.26257 0.0
H550 H 0.22665 0.18598 0.25347 0.0
H551 H 0.23867 0.19195 0.21392 0.0
C552 C 0.19837 0.13428 0.22838 0.0
C553 C 0.19647 0.14594 0.19204 0.0
C554 C 0.212 0.13109 0.24377 0.0
C555 C 0.22388 0.13964 0.22316 0.0
C556 C 0.22203 0.15015 0.18609 0.0
H557 H 0.31429 0.12713 0.26416 0.0
H558 H 0.29005 0.1204 0.24138 0.0
C559 C 0.20847 0.15341 0.1708 0.0
C560 C 0.23809 0.13954 0.24145 0.0
H561 H 0.26411 0.17835 0.27324 0.0
C562 C 0.24485 0.11693 0.24909 0.0
C563 C 0.24501 0.16192 0.25105 0.0
C564 C 0.238 0.18674 0.2452 0.0
C565 C 0.25854 0.11617 0.26531 0.0
C566 C 0.26563 0.13861 0.27367 0.0
C567 C 0.25871 0.16115 0.26666 0.0
C568 C 0.28021 0.13951 0.28987 0.0
C569 C 0.26521 0.09142 0.27379 0.0
C570 C 0.28277 0.15245 0.32467 0.0
C571 C 0.2966 0.15639 0.3376 0.0
C572 C 0.30818 0.14735 0.31617 0.0
C573 C 0.30561 0.13368 0.28197 0.0
C574 C 0.29173 0.12987 0.26885 0.0
H575 H 0.25715 0.0765 0.27564 0.0
H576 H 0.27265 0.08667 0.24987 0.0
H577 H 0.27126 0.09192 0.30157 0.0
H578 H 0.27406 0.16016 0.34127 0.0
H579 H 0.29824 0.16704 0.36401 0.0
H580 H 0.19701 0.88413 0.82394 0.0
H581 H 0.2212 0.89256 0.80158 0.0
H582 H 0.22522 0.81695 0.76335 0.0
H583 H 0.2011 0.80849 0.78469 0.0
H584 H 0.24763 0.83551 0.81388 0.0
H585 H 0.23657 0.8959 0.6856 0.0
H586 H 0.22794 0.90294 0.7312 0.0
H587 H 0.2234 0.8752 0.70545 0.0
C588 C 0.20288 0.86948 0.80983 0.0
C589 C 0.19699 0.84573 0.80552 0.0
C590 C 0.21675 0.87429 0.79735 0.0
C591 C 0.22494 0.85541 0.78057 0.0
C592 C 0.21907 0.83178 0.77618 0.0
H593 H 0.29837 0.83485 0.64434 0.0
H594 H 0.27484 0.84208 0.67153 0.0
C595 C 0.20527 0.827 0.78848 0.0
C596 C 0.23983 0.85957 0.76874 0.0
H597 H 0.26032 0.88505 0.69708 0.0
C598 C 0.25047 0.84665 0.78872 0.0
C599 C 0.24342 0.87398 0.73577 0.0
C600 C 0.23228 0.88777 0.71295 0.0
C601 C 0.26457 0.84701 0.7758 0.0
C602 C 0.26814 0.86096 0.74224 0.0
C603 C 0.25756 0.87454 0.72297 0.0
C604 C 0.28243 0.85943 0.72444 0.0
C605 C 0.27536 0.83139 0.79695 0.0
C606 C 0.29452 0.8673 0.74477 0.0
C607 C 0.30804 0.86305 0.72935 0.0
C608 C 0.30967 0.85109 0.69314 0.0
C609 C 0.29749 0.8441 0.6723 0.0
C610 C 0.28402 0.84833 0.6877 0.0
H611 H 0.27035 0.81828 0.81777 0.0
H612 H 0.28185 0.82066 0.77586 0.0
H613 H 0.28258 0.84361 0.81371 0.0
H614 H 0.29352 0.87606 0.77307 0.0
H615 H 0.31714 0.86811 0.7467 0.0
H616 H 0.70063 0.81508 0.72924 0.0
H617 H 0.72454 0.82489 0.75145 0.0
H618 H 0.72324 0.89363 0.68777 0.0
H619 H 0.69919 0.88383 0.66519 0.0
H620 H 0.74793 0.86206 0.67416 0.0
H621 H 0.73789 0.8783 0.83159 0.0
H622 H 0.72962 0.85084 0.81283 0.0
H623 H 0.72417 0.88061 0.79499 0.0
C624 C 0.70536 0.83242 0.72027 0.0
C625 C 0.69797 0.84883 0.69587 0.0
C626 C 0.71898 0.83807 0.7332 0.0
C627 C 0.72556 0.86016 0.72176 0.0
C628 C 0.71825 0.87665 0.69734 0.0
H629 H 0.81072 0.8864 0.81962 0.0
H630 H 0.78705 0.89595 0.79401 0.0
C631 C 0.70449 0.87111 0.68469 0.0
C632 C 0.74042 0.86481 0.73339 0.0
H633 H 0.76178 0.86811 0.81362 0.0
C634 C 0.75097 0.86393 0.70456 0.0
C635 C 0.74435 0.86747 0.77301 0.0
C636 C 0.73342 0.8696 0.80492 0.0
C637 C 0.76538 0.86393 0.71462 0.0
C638 C 0.76929 0.86473 0.75447 0.0
C639 C 0.75876 0.86734 0.78308 0.0
C640 C 0.78404 0.86011 0.76724 0.0
C641 C 0.77632 0.86227 0.68264 0.0
C642 C 0.79011 0.83681 0.7608 0.0
C643 C 0.80352 0.83131 0.77546 0.0
C644 C 0.8112 0.84906 0.79662 0.0
C645 C 0.80521 0.87256 0.80264 0.0
C646 C 0.79166 0.87798 0.78828 0.0
H647 H 0.77204 0.8689 0.65428 0.0
H648 H 0.78588 0.87324 0.69008 0.0
H649 H 0.77955 0.84268 0.67896 0.0
H650 H 0.7843 0.82259 0.74531 0.0
H651 H 0.80785 0.81302 0.77051 0.0
H652 H 0.69859 0.18244 0.26423 0.0
H653 H 0.72237 0.17242 0.24134 0.0
H654 H 0.72092 0.10332 0.30403 0.0
H655 H 0.69702 0.11341 0.3275 0.0
H656 H 0.74552 0.13259 0.31813 0.0
H657 H 0.73584 0.12135 0.15971 0.0
H658 H 0.72807 0.14902 0.17923 0.0
H659 H 0.72187 0.11933 0.19565 0.0
C660 C 0.70325 0.16496 0.2728 0.0
C661 C 0.69586 0.14857 0.29725 0.0
C662 C 0.7168 0.15917 0.25943 0.0
C663 C 0.72331 0.13693 0.27038 0.0
C664 C 0.71598 0.12042 0.29478 0.0
H665 H 0.80846 0.11268 0.17068 0.0
H666 H 0.78457 0.10275 0.19437 0.0
C667 C 0.7023 0.12612 0.30793 0.0
C668 C 0.73817 0.1322 0.25861 0.0
H669 H 0.75977 0.13118 0.17864 0.0
C670 C 0.74864 0.13174 0.28766 0.0
C671 C 0.74222 0.13079 0.21889 0.0
C672 C 0.7314 0.12989 0.18656 0.0
C673 C 0.76308 0.13166 0.27792 0.0
C674 C 0.76712 0.13228 0.23815 0.0
C675 C 0.75666 0.13095 0.20914 0.0
C676 C 0.78195 0.13703 0.22613 0.0
C677 C 0.7739 0.13171 0.31028 0.0
C678 C 0.78832 0.15961 0.23591 0.0
C679 C 0.80187 0.1653 0.22243 0.0
C680 C 0.8094 0.14849 0.19902 0.0
C681 C 0.80307 0.12574 0.18945 0.0
C682 C 0.7894 0.12012 0.20272 0.0
H683 H 0.76951 0.12367 0.33759 0.0
H684 H 0.7835 0.12116 0.30179 0.0
H685 H 0.77709 0.15106 0.31656 0.0
H686 H 0.78266 0.17316 0.25321 0.0
H687 H 0.80643 0.18302 0.23015 0.0
H688 H 0.70246 0.68891 0.21103 0.0
H689 H 0.7264 0.67937 0.2329 0.0
H690 H 0.72063 0.60311 0.20011 0.0
H691 H 0.69671 0.61259 0.17687 0.0
H692 H 0.73331 0.61441 0.28047 0.0
H693 H 0.7598 0.66039 0.15523 0.0
H694 H 0.74591 0.67809 0.17778 0.0
H695 H 0.74169 0.64968 0.15323 0.0
C696 C 0.70623 0.67006 0.2084 0.0
C697 C 0.69753 0.65146 0.19267 0.0
C698 C 0.71992 0.66467 0.22096 0.0
C699 C 0.72526 0.64059 0.21795 0.0
C700 C 0.71663 0.6218 0.20279 0.0
H701 H 0.81638 0.62371 0.25848 0.0
H702 H 0.79272 0.61528 0.23262 0.0
C703 C 0.70289 0.62723 0.18993 0.0
C704 C 0.73996 0.63549 0.23041 0.0
H705 H 0.77407 0.65215 0.21117 0.0
C706 C 0.74228 0.62226 0.26505 0.0
C707 C 0.75161 0.64551 0.20992 0.0
C708 C 0.74971 0.65905 0.17177 0.0
C709 C 0.75593 0.62002 0.28094 0.0
C710 C 0.76746 0.63152 0.26181 0.0
C711 C 0.76522 0.64346 0.22595 0.0
C712 C 0.78167 0.63342 0.27998 0.0
C713 C 0.75785 0.60581 0.31846 0.0
C714 C 0.7833 0.6463 0.31525 0.0
C715 C 0.79679 0.65103 0.33014 0.0
C716 C 0.80892 0.64291 0.31016 0.0
C717 C 0.80727 0.62952 0.27526 0.0
C718 C 0.79375 0.62489 0.26023 0.0
H719 H 0.7493 0.59193 0.32255 0.0
H720 H 0.76823 0.5962 0.31911 0.0
H721 H 0.75742 0.61886 0.34344 0.0
H722 H 0.77417 0.65361 0.33048 0.0
H723 H 0.79774 0.66159 0.3569 0.0
H724 H 0.80651 0.31208 0.72675 0.0
H725 H 0.78261 0.32139 0.7495 0.0
H726 H 0.78465 0.39293 0.69424 0.0
H727 H 0.80865 0.38359 0.67079 0.0
H728 H 0.77255 0.36371 0.79643 0.0
H729 H 0.74873 0.3569 0.64786 0.0
H730 H 0.76589 0.34398 0.65888 0.0
H731 H 0.76381 0.37682 0.65457 0.0
C732 C 0.80192 0.32988 0.71958 0.0
C733 C 0.80951 0.34717 0.6972 0.0
C734 C 0.78829 0.3352 0.73276 0.0
C735 C 0.78186 0.35779 0.72346 0.0
C736 C 0.78944 0.37535 0.70164 0.0
H737 H 0.69662 0.3855 0.82251 0.0
H738 H 0.72048 0.39446 0.79772 0.0
C739 C 0.8032 0.37009 0.68861 0.0
C740 C 0.76701 0.36209 0.73555 0.0
H741 H 0.73312 0.36032 0.70094 0.0
C742 C 0.76391 0.36352 0.77558 0.0
C743 C 0.7558 0.3616 0.7082 0.0
C744 C 0.7586 0.35963 0.66493 0.0
C745 C 0.74987 0.3635 0.78908 0.0
C746 C 0.73868 0.36204 0.76179 0.0
C747 C 0.74176 0.3616 0.7217 0.0
C748 C 0.72389 0.35775 0.77447 0.0
C749 C 0.74707 0.36358 0.83246 0.0
C750 C 0.71787 0.33432 0.769 0.0
C751 C 0.70432 0.32919 0.783 0.0
C752 C 0.69641 0.34749 0.8023 0.0
C753 C 0.70232 0.37117 0.80703 0.0
C754 C 0.71599 0.37626 0.79324 0.0
H755 H 0.75698 0.36249 0.84982 0.0
H756 H 0.74142 0.38083 0.84056 0.0
H757 H 0.74017 0.34776 0.84049 0.0
H758 H 0.72382 0.31978 0.75467 0.0
H759 H 0.70005 0.31078 0.77889 0.0
H760 H 0.20027 0.3078 0.71325 0.0
H761 H 0.22418 0.31611 0.73641 0.0
H762 H 0.21935 0.39316 0.70702 0.0
H763 H 0.19533 0.38494 0.68319 0.0
H764 H 0.24636 0.33614 0.69017 0.0
H765 H 0.23472 0.39354 0.82136 0.0
H766 H 0.22152 0.37405 0.79882 0.0
H767 H 0.22659 0.40256 0.776 0.0
C768 C 0.20421 0.32659 0.71192 0.0
C769 C 0.19578 0.34576 0.69686 0.0
C770 C 0.21789 0.33129 0.72522 0.0
C771 C 0.2235 0.35527 0.72376 0.0
C772 C 0.21512 0.3746 0.70907 0.0
H773 H 0.31558 0.36957 0.75803 0.0
H774 H 0.29186 0.37709 0.73206 0.0
C775 C 0.20135 0.36989 0.69569 0.0
C776 C 0.23835 0.35937 0.73614 0.0
H777 H 0.25864 0.38429 0.8087 0.0
C778 C 0.2491 0.34694 0.71578 0.0
C779 C 0.24182 0.37335 0.76967 0.0
C780 C 0.2306 0.38657 0.79303 0.0
C781 C 0.26318 0.34739 0.72877 0.0
C782 C 0.26665 0.361 0.76275 0.0
C783 C 0.25596 0.37406 0.78248 0.0
C784 C 0.28097 0.35967 0.78038 0.0
C785 C 0.27409 0.33226 0.70714 0.0
C786 C 0.2827 0.34825 0.81682 0.0
C787 C 0.29622 0.34426 0.83199 0.0
C788 C 0.30832 0.35181 0.81122 0.0
C789 C 0.30654 0.36408 0.77533 0.0
C790 C 0.29297 0.36808 0.76013 0.0
H791 H 0.26917 0.31921 0.68608 0.0
H792 H 0.28117 0.34482 0.69058 0.0
H793 H 0.28069 0.3215 0.7279 0.0
H794 H 0.2736 0.34158 0.83292 0.0
H795 H 0.29722 0.33478 0.85972 0.0
H796 H 0.20693 0.67282 0.34864 0.0
H797 H 0.2309 0.665 0.3254 0.0
H798 H 0.21496 0.61042 0.24481 0.0
H799 H 0.19083 0.61916 0.26634 0.0
H800 H 0.2476 0.62412 0.32389 0.0
H801 H 0.2363 0.65613 0.17259 0.0
H802 H 0.22396 0.66052 0.21214 0.0
H803 H 0.22566 0.63074 0.18929 0.0
C804 C 0.2085 0.65905 0.32606 0.0
C805 C 0.19692 0.64643 0.30976 0.0
C806 C 0.22223 0.65452 0.31293 0.0
C807 C 0.22473 0.63732 0.28306 0.0
C808 C 0.21327 0.62404 0.26752 0.0
H809 H 0.3083 0.61775 0.17031 0.0
H810 H 0.28435 0.60757 0.19346 0.0
C811 C 0.19946 0.62872 0.28046 0.0
C812 C 0.23931 0.63432 0.26753 0.0
H813 H 0.25971 0.64461 0.18666 0.0
C814 C 0.25021 0.62829 0.29375 0.0
C815 C 0.24273 0.63978 0.22816 0.0
C816 C 0.2316 0.64736 0.19891 0.0
C817 C 0.26445 0.62846 0.28204 0.0
C818 C 0.26786 0.6348 0.24318 0.0
C819 C 0.25698 0.63962 0.21642 0.0
C820 C 0.28263 0.63957 0.23105 0.0
C821 C 0.27582 0.62262 0.31154 0.0
C822 C 0.28949 0.66092 0.24446 0.0
C823 C 0.30302 0.66683 0.23115 0.0
C824 C 0.31004 0.65135 0.2045 0.0
C825 C 0.30325 0.62973 0.19147 0.0
C826 C 0.28957 0.62397 0.20446 0.0
H827 H 0.27148 0.61284 0.33744 0.0
H828 H 0.28425 0.61107 0.29817 0.0
H829 H 0.28074 0.64013 0.3216 0.0
H830 H 0.28421 0.67333 0.26461 0.0
H831 H 0.30799 0.68363 0.24159 0.0
H832 H 0.94368 0.0811 0.17649 0.0
H833 H 0.96957 0.08058 0.17944 0.0
H834 H 0.9703 0.16015 0.17191 0.0
H835 H 0.94446 0.16092 0.1694 0.0
H836 H 0.98833 0.09883 0.12311 0.0
H837 H 0.99619 0.14617 0.26523 0.0
H838 H 0.97934 0.13344 0.25057 0.0
H839 H 0.98511 0.16276 0.23162 0.0
C840 C 0.94933 0.09852 0.17581 0.0
C841 C 0.94198 0.12106 0.17276 0.0
C842 C 0.96413 0.09817 0.17745 0.0
C843 C 0.97185 0.12033 0.17641 0.0
C844 C 0.96455 0.14286 0.17355 0.0
H845 H 0.06056 0.16011 0.16487 0.0
H846 H 0.0347 0.15938 0.16815 0.0
C847 C 0.94977 0.14323 0.17185 0.0
C848 C 0.98756 0.11984 0.17645 0.0
H849 H 0.01668 0.14028 0.22595 0.0
C850 C 0.99454 0.10772 0.14574 0.0
C851 C 0.99563 0.13155 0.20593 0.0
C852 C 0.98871 0.14404 0.24042 0.0
C853 C 0.00937 0.10746 0.14321 0.0
C854 C 0.01745 0.11924 0.17261 0.0
C855 C 0.01047 0.13127 0.20344 0.0
C856 C 0.03315 0.11953 0.17161 0.0
C857 C 0.01626 0.09516 0.10849 0.0
C858 C 0.04088 0.09739 0.17317 0.0
C859 C 0.05566 0.09772 0.17121 0.0
C860 C 0.06302 0.12024 0.16788 0.0
C861 C 0.05524 0.14243 0.16721 0.0
C862 C 0.04046 0.14207 0.16915 0.0
H863 H 0.00868 0.09259 0.08402 0.0
H864 H 0.0254 0.10616 0.09783 0.0
H865 H 0.0202 0.07665 0.11727 0.0
H866 H 0.03546 0.07982 0.17587 0.0
H867 H 0.06131 0.0803 0.17208 0.0
H868 H 0.56372 0.85089 0.69869 0.0
H869 H 0.53783 0.85079 0.70306 0.0
H870 H 0.53521 0.88372 0.58862 0.0
H871 H 0.56099 0.88363 0.58373 0.0
H872 H 0.51798 0.88999 0.69749 0.0
H873 H 0.51076 0.82133 0.57882 0.0
H874 H 0.52764 0.82667 0.60199 0.0
H875 H 0.52131 0.8475 0.56496 0.0
C876 C 0.55763 0.85816 0.67448 0.0
C877 C 0.56442 0.86705 0.64068 0.0
C878 C 0.54285 0.85811 0.67706 0.0
C879 C 0.53461 0.86683 0.64587 0.0
C880 C 0.54137 0.87641 0.61267 0.0
H881 H 0.44676 0.88227 0.58653 0.0
H882 H 0.47254 0.88306 0.59096 0.0
C883 C 0.55612 0.87645 0.61001 0.0
C884 C 0.51895 0.86576 0.64769 0.0
H885 H 0.49009 0.84222 0.60069 0.0
C886 C 0.51185 0.87941 0.67657 0.0
C887 C 0.51101 0.85183 0.62045 0.0
C888 C 0.51805 0.8358 0.59002 0.0
C889 C 0.49699 0.88022 0.67801 0.0
C890 C 0.48907 0.86672 0.65017 0.0
C891 C 0.49619 0.85268 0.62184 0.0
C892 C 0.47338 0.86734 0.64901 0.0
C893 C 0.48989 0.89612 0.70846 0.0
C894 C 0.46528 0.85824 0.68024 0.0
C895 C 0.45049 0.8578 0.67785 0.0
C896 C 0.44357 0.86629 0.64403 0.0
C897 C 0.45174 0.87556 0.61298 0.0
C898 C 0.46648 0.87603 0.61544 0.0
H899 H 0.49736 0.90962 0.72162 0.0
H900 H 0.48082 0.90638 0.6957 0.0
H901 H 0.48577 0.88413 0.73218 0.0
H902 H 0.4704 0.851 0.70612 0.0
H903 H 0.44451 0.85044 0.70221 0.0
H904 H 0.94595 0.83809 0.84013 0.0
H905 H 0.97177 0.8391 0.836 0.0
H906 H 0.97032 0.91694 0.80899 0.0
H907 H 0.94448 0.91623 0.81371 0.0
H908 H 0.98927 0.85216 0.77406 0.0
H909 H 0.99775 0.91445 0.90091 0.0
H910 H 0.98099 0.8996 0.89145 0.0
H911 H 0.9861 0.92657 0.86417 0.0
C912 C 0.9511 0.85546 0.8334 0.0
C913 C 0.94314 0.87713 0.82757 0.0
C914 C 0.96587 0.85598 0.83099 0.0
C915 C 0.97298 0.87817 0.82281 0.0
C916 C 0.96507 0.89973 0.81618 0.0
H917 H 0.06282 0.91433 0.80707 0.0
H918 H 0.03693 0.91535 0.80387 0.0
C919 C 0.95029 0.89925 0.81869 0.0
C920 C 0.98868 0.87861 0.82104 0.0
H921 H 0.01797 0.9039 0.86372 0.0
C922 C 0.99555 0.86346 0.79367 0.0
C923 C 0.99685 0.8934 0.84662 0.0
C924 C 0.99009 0.90928 0.8777 0.0
C925 C 0.01039 0.86281 0.791 0.0
C926 C 0.01855 0.87742 0.81682 0.0
C927 C 0.01168 0.89277 0.84389 0.0
C928 C 0.03425 0.87651 0.81709 0.0
C929 C 0.01717 0.84673 0.76024 0.0
C930 C 0.04132 0.85437 0.8258 0.0
C931 C 0.05609 0.85372 0.82763 0.0
C932 C 0.0641 0.87525 0.82105 0.0
C933 C 0.05698 0.8974 0.81221 0.0
C934 C 0.04219 0.89803 0.81041 0.0
H935 H 0.00967 0.8423 0.73626 0.0
H936 H 0.02665 0.85583 0.74755 0.0
H937 H 0.02056 0.82905 0.77375 0.0
H938 H 0.0354 0.83766 0.83188 0.0
H939 H 0.06122 0.83636 0.83466 0.0
H940 H 0.56081 0.16291 0.34215 0.0
H941 H 0.53494 0.16221 0.33997 0.0
H942 H 0.53582 0.08431 0.31328 0.0
H943 H 0.5617 0.08473 0.31584 0.0
H944 H 0.51676 0.14857 0.27856 0.0
H945 H 0.50932 0.0881 0.40809 0.0
H946 H 0.52595 0.10304 0.39725 0.0
H947 H 0.52079 0.07566 0.37114 0.0
C948 C 0.55552 0.14559 0.33589 0.0
C949 C 0.56334 0.12382 0.32946 0.0
C950 C 0.54073 0.14525 0.33459 0.0
C951 C 0.53345 0.12314 0.32707 0.0
C952 C 0.54122 0.10148 0.31991 0.0
H953 H 0.44393 0.08534 0.31621 0.0
H954 H 0.46981 0.08509 0.31291 0.0
C955 C 0.55602 0.10179 0.32118 0.0
C956 C 0.51774 0.12285 0.32647 0.0
H957 H 0.48881 0.09805 0.37172 0.0
C958 C 0.51064 0.13756 0.29896 0.0
C959 C 0.50978 0.10845 0.35309 0.0
C960 C 0.51681 0.09306 0.38432 0.0
C961 C 0.49579 0.13805 0.29704 0.0
C962 C 0.48782 0.12376 0.32381 0.0
C963 C 0.49493 0.10894 0.35117 0.0
C964 C 0.47211 0.12421 0.32443 0.0
C965 C 0.48875 0.15352 0.26593 0.0
C966 C 0.46481 0.14627 0.33224 0.0
C967 C 0.45002 0.14649 0.33413 0.0
C968 C 0.44223 0.12461 0.32849 0.0
C969 C 0.44959 0.10254 0.32061 0.0
C970 C 0.46438 0.10234 0.31876 0.0
H971 H 0.49613 0.15781 0.24157 0.0
H972 H 0.47931 0.14398 0.25386 0.0
H973 H 0.48525 0.17129 0.27894 0.0
H974 H 0.47056 0.16327 0.33751 0.0
H975 H 0.44471 0.1638 0.3404 0.0
H976 H 0.44605 0.61589 0.08266 0.0
H977 H 0.47184 0.61469 0.08709 0.0
H978 H 0.4699 0.64829 0.20118 0.0
H979 H 0.44404 0.64928 0.19728 0.0
H980 H 0.48969 0.6553 0.09561 0.0
H981 H 0.49646 0.58942 0.21875 0.0
H982 H 0.47997 0.59264 0.19264 0.0
H983 H 0.485 0.61518 0.22859 0.0
C984 C 0.45108 0.62284 0.10887 0.0
C985 C 0.44297 0.63267 0.13963 0.0
C986 C 0.46583 0.62214 0.11134 0.0
C987 C 0.47278 0.63113 0.14463 0.0
C988 C 0.46474 0.6408 0.17554 0.0
H989 H 0.56275 0.64862 0.19706 0.0
H990 H 0.53683 0.64839 0.20023 0.0
C991 C 0.44996 0.64149 0.17314 0.0
C992 C 0.48847 0.6315 0.1459 0.0
H993 H 0.51719 0.60898 0.19499 0.0
C994 C 0.4957 0.64512 0.11728 0.0
C995 C 0.49628 0.61838 0.17442 0.0
C996 C 0.48907 0.60289 0.2052 0.0
C997 C 0.51053 0.64602 0.11638 0.0
C998 C 0.51836 0.63254 0.14442 0.0
C999 C 0.51115 0.61923 0.17347 0.0
C1000 C 0.53404 0.63165 0.14337 0.0
C1001 C 0.51769 0.66168 0.08567 0.0
C1002 C 0.54104 0.62177 0.11078 0.0
C1003 C 0.55581 0.62193 0.10881 0.0
C1004 C 0.56388 0.6318 0.13957 0.0
C1005 C 0.55685 0.64097 0.1728 0.0
C1006 C 0.54204 0.64084 0.17469 0.0
H1007 H 0.51041 0.67592 0.07366 0.0
H1008 H 0.52718 0.67107 0.0977 0.0
H1009 H 0.52112 0.64966 0.06117 0.0
H1010 H 0.53507 0.61409 0.08666 0.0
H1011 H 0.56087 0.61451 0.08296 0.0
H1012 H 0.06033 0.3351 0.66334 0.0
H1013 H 0.03449 0.33628 0.66705 0.0
H1014 H 0.03587 0.41531 0.68324 0.0
H1015 H 0.06171 0.4144 0.679 0.0
H1016 H 0.01678 0.35311 0.72696 0.0
H1017 H 0.00879 0.40725 0.59087 0.0
H1018 H 0.02546 0.39283 0.60285 0.0
H1019 H 0.02044 0.42143 0.62573 0.0
C1020 C 0.05515 0.35276 0.66763 0.0
C1021 C 0.0631 0.37469 0.67055 0.0
C1022 C 0.04038 0.35338 0.66981 0.0
C1023 C 0.03325 0.37593 0.67479 0.0
C1024 C 0.04115 0.39778 0.67857 0.0
H1025 H 0.9437 0.41419 0.68394 0.0
H1026 H 0.96958 0.41481 0.6872 0.0
C1027 C 0.05593 0.39719 0.67635 0.0
C1028 C 0.01756 0.37649 0.6761 0.0
H1029 H 0.98846 0.39929 0.62918 0.0
C1030 C 0.01058 0.36318 0.70557 0.0
C1031 C 0.0095 0.38966 0.64818 0.0
C1032 C 0.01639 0.40344 0.61489 0.0
C1033 C 0.99574 0.36287 0.7081 0.0
C1034 C 0.98768 0.37591 0.68001 0.0
C1035 C 0.99466 0.38938 0.65075 0.0
C1036 C 0.97198 0.37531 0.67978 0.0
C1037 C 0.98882 0.34889 0.74111 0.0
C1038 C 0.96476 0.3529 0.67433 0.0
C1039 C 0.94998 0.35247 0.67247 0.0
C1040 C 0.94213 0.37448 0.67576 0.0
C1041 C 0.9494 0.3969 0.68138 0.0
C1042 C 0.9642 0.3973 0.68321 0.0
H1043 H 0.99629 0.34574 0.76569 0.0
H1044 H 0.97942 0.35896 0.75232 0.0
H1045 H 0.98528 0.33057 0.7303 0.0
H1046 H 0.97056 0.33578 0.67082 0.0
H1047 H 0.94473 0.33489 0.66799 0.0
H1048 H 0.44562 0.39981 0.90303 0.0
H1049 H 0.47138 0.40028 0.89727 0.0
H1050 H 0.46911 0.34672 0.80417 0.0
H1051 H 0.44326 0.34646 0.80923 0.0
H1052 H 0.48915 0.36051 0.90828 0.0
H1053 H 0.49578 0.39862 0.7587 0.0
H1054 H 0.47925 0.40047 0.78503 0.0
H1055 H 0.48445 0.37204 0.76197 0.0
C1056 C 0.45057 0.38829 0.88105 0.0
C1057 C 0.44237 0.37308 0.85661 0.0
C1058 C 0.4653 0.38858 0.87781 0.0
C1059 C 0.47217 0.37375 0.85002 0.0
C1060 C 0.46403 0.3587 0.82528 0.0
H1061 H 0.5621 0.34653 0.80788 0.0
H1062 H 0.53618 0.34652 0.80463 0.0
C1063 C 0.44925 0.35846 0.82839 0.0
C1064 C 0.48787 0.37308 0.84873 0.0
H1065 H 0.51654 0.38465 0.79068 0.0
C1066 C 0.49514 0.36585 0.88259 0.0
C1067 C 0.49565 0.37983 0.81506 0.0
C1068 C 0.48842 0.38838 0.77819 0.0
C1069 C 0.50997 0.36519 0.88377 0.0
C1070 C 0.51778 0.37241 0.8504 0.0
C1071 C 0.51053 0.37923 0.81626 0.0
C1072 C 0.53347 0.3734 0.85081 0.0
C1073 C 0.51714 0.35642 0.92065 0.0
C1074 C 0.54053 0.38899 0.87715 0.0
C1075 C 0.55529 0.38896 0.87923 0.0
C1076 C 0.56331 0.3735 0.85473 0.0
C1077 C 0.55623 0.35857 0.82731 0.0
C1078 C 0.54143 0.35855 0.82537 0.0
H1079 H 0.50989 0.34519 0.93906 0.0
H1080 H 0.52667 0.34519 0.91385 0.0
H1081 H 0.52051 0.3727 0.93803 0.0
H1082 H 0.5346 0.40103 0.89641 0.0
H1083 H 0.5604 0.40088 0.90037 0.0
H1084 H 0.94466 0.66199 0.3342 0.0
H1085 H 0.97049 0.66149 0.33018 0.0
H1086 H 0.96965 0.58304 0.30774 0.0
H1087 H 0.94379 0.58339 0.31121 0.0
H1088 H 0.98888 0.63479 0.37719 0.0
H1089 H 0.99571 0.60875 0.22148 0.0
H1090 H 0.97908 0.61967 0.24094 0.0
H1091 H 0.98454 0.58823 0.24887 0.0
C1092 C 0.94995 0.64464 0.32811 0.0
C1093 C 0.94215 0.62272 0.32301 0.0
C1094 C 0.96472 0.6444 0.32582 0.0
C1095 C 0.97199 0.6223 0.31817 0.0
C1096 C 0.96425 0.6004 0.31287 0.0
H1097 H 0.06114 0.58228 0.3126 0.0
H1098 H 0.03523 0.58249 0.31034 0.0
C1099 C 0.94946 0.60061 0.3151 0.0
C1100 C 0.98769 0.622 0.31774 0.0
H1101 H 0.01643 0.60889 0.26078 0.0
C1102 C 0.99491 0.62925 0.35167 0.0
C1103 C 0.99552 0.61466 0.28447 0.0
C1104 C 0.98835 0.60759 0.24673 0.0
C1105 C 0.00974 0.62905 0.35345 0.0
C1106 C 0.01758 0.6218 0.32016 0.0
C1107 C 0.01038 0.61444 0.28625 0.0
C1108 C 0.03327 0.62187 0.32003 0.0
C1109 C 0.0169 0.63614 0.39124 0.0
C1110 C 0.04075 0.64402 0.32541 0.0
C1111 C 0.05553 0.64397 0.32678 0.0
C1112 C 0.06314 0.62176 0.32257 0.0
C1113 C 0.05562 0.59969 0.31611 0.0
C1114 C 0.04081 0.59977 0.31477 0.0
H1115 H 0.00951 0.63506 0.41645 0.0
H1116 H 0.02613 0.624 0.39714 0.0
H1117 H 0.02076 0.65547 0.38905 0.0
H1118 H 0.03514 0.66136 0.32874 0.0
H1119 H 0.06098 0.66135 0.33144 0.0
H1120 H 0.10413 0.0741 0.09598 0.0
H1121 H 0.10613 0.03842 0.05269 0.0
H1122 H 0.15161 0.04452 0.05524 0.0
H1123 H 0.14978 0.08024 0.09885 0.0
H1124 H 0.11964 0.04032 0.9777 0.0
H1125 H 0.14386 0.97009 0.07591 0.0
H1126 H 0.13494 0.99725 0.09427 0.0
H1127 H 0.15242 -0.00024 0.07419 0.0
C1128 C 0.11459 0.06769 0.08788 0.0
C1129 C 0.1268 0.08013 0.10084 0.0
C1130 C 0.1157 0.04732 0.06304 0.0
C1131 C 0.12901 0.03882 0.05091 0.0
C1132 C 0.14124 0.05063 0.06467 0.0
H1133 H 0.15036 0.91603 0.89548 0.0
H1134 H 0.15193 0.95323 0.93598 0.0
C1135 C 0.14016 0.07109 0.08952 0.0
C1136 C 0.12995 0.01855 0.022 0.0
H1137 H 0.14057 0.95872 0.00999 0.0
C1138 C 0.12424 0.02248 0.98469 0.0
C1139 C 0.13609 0.99544 0.03117 0.0
C1140 C 0.1421 0.99017 0.07111 0.0
C1141 C 0.12439 0.00379 0.95628 0.0
C1142 C 0.13015 0.98042 0.96577 0.0
C1143 C 0.13617 0.97668 0.00281 0.0
C1144 C 0.1293 0.95916 0.93857 0.0
C1145 C 0.11845 0.00931 0.91633 0.0
C1146 C 0.11607 0.95029 0.92638 0.0
C1147 C 0.11513 0.92914 0.90317 0.0
C1148 C 0.12741 0.91624 0.89198 0.0
C1149 C 0.14069 0.92551 0.9035 0.0
C1150 C 0.14161 0.94673 0.92673 0.0
H1151 H 0.1186 0.02947 0.90999 0.0
H1152 H 0.12447 -0.00047 0.89316 0.0
H1153 H 0.10728 0.00303 0.91509 0.0
H1154 H 0.10642 0.9593 0.93583 0.0
H1155 H 0.10473 0.92251 0.89502 0.0
H1156 H 0.40191 0.92358 0.60397 0.0
H1157 H 0.40015 0.96005 0.56251 0.0
H1158 H 0.35477 0.95202 0.55857 0.0
H1159 H 0.3564 0.9151 0.59978 0.0
H1160 H 0.36693 0.95824 0.4854 0.0
H1161 H 0.38663 0.02956 0.58797 0.0
H1162 H 0.39838 0.00362 0.58373 0.0
H1163 H 0.38098 -0.00067 0.60401 0.0
C1164 C 0.39151 0.92969 0.59481 0.0
C1165 C 0.37929 0.91637 0.60528 0.0
C1166 C 0.39053 0.95065 0.57121 0.0
C1167 C 0.37732 0.95892 0.55787 0.0
C1168 C 0.36507 0.94598 0.56874 0.0
H1169 H 0.35632 0.07984 0.39847 0.0
H1170 H 0.35487 0.04349 0.4408 0.0
C1171 C 0.36602 0.92494 0.59238 0.0
C1172 C 0.37649 0.98022 0.53074 0.0
H1173 H 0.38616 0.04066 0.52038 0.0
C1174 C 0.37097 0.97636 0.49314 0.0
C1175 C 0.38177 0.00381 0.54096 0.0
C1176 C 0.38714 0.00944 0.58149 0.0
C1177 C 0.37108 0.99526 0.46501 0.0
C1178 C 0.37673 0.01862 0.47495 0.0
C1179 C 0.38195 0.02263 0.51278 0.0
C1180 C 0.37753 0.03917 0.44651 0.0
C1181 C 0.36559 0.98991 0.42452 0.0
C1182 C 0.39076 0.04866 0.43555 0.0
C1183 C 0.39165 0.06942 0.41141 0.0
C1184 C 0.3793 0.08125 0.39806 0.0
C1185 C 0.36605 0.07119 0.40815 0.0
C1186 C 0.36518 0.05036 0.43225 0.0
H1187 H 0.3643 0.96976 0.41927 0.0
H1188 H 0.35511 0.99887 0.42079 0.0
H1189 H 0.37284 0.99759 0.40204 0.0
H1190 H 0.40041 0.04026 0.44632 0.0
H1191 H 0.40203 0.07662 0.40426 0.0
H1192 H 0.90151 0.92394 0.8992 0.0
H1193 H 0.89918 0.96037 0.94068 0.0
H1194 H 0.85373 0.9536 0.93699 0.0
H1195 H 0.85593 0.91676 0.89586 0.0
H1196 H 0.88543 0.00526 0.92942 0.0
H1197 H 0.86222 0.95344 0.05431 0.0
H1198 H 0.87043 0.93814 0.0133 0.0
H1199 H 0.85288 0.9506 0.00885 0.0
C1200 C 0.89099 0.93023 0.90691 0.0
C1201 C 0.8789 0.91722 0.89449 0.0
C1202 C 0.88969 0.95109 0.93066 0.0
C1203 C 0.8763 0.95937 0.94256 0.0
C1204 C 0.86418 0.94715 0.92887 0.0
H1205 H 0.85532 0.08194 0.09967 0.0
H1206 H 0.85371 0.04644 0.0554 0.0
C1207 C 0.86546 0.92621 0.90511 0.0
C1208 C 0.87519 0.98057 0.96985 0.0
H1209 H 0.86509 0.99649 0.06236 0.0
C1210 C 0.88093 0.00338 0.95842 0.0
C1211 C 0.8693 0.97804 0.00768 0.0
C1212 C 0.86345 0.95371 0.02204 0.0
C1213 C 0.88105 0.02368 0.9839 0.0
C1214 C 0.87546 0.02099 0.02198 0.0
C1215 C 0.86939 0.99841 0.03314 0.0
C1216 C 0.87634 0.04122 0.05098 0.0
C1217 C 0.88716 0.04789 0.96988 0.0
C1218 C 0.88958 0.04942 0.06413 0.0
C1219 C 0.89056 0.06957 0.08945 0.0
C1220 C 0.87829 0.08194 0.10219 0.0
C1221 C 0.86499 0.07294 0.09031 0.0
C1222 C 0.86403 0.05269 0.06499 0.0
H1223 H 0.88771 0.04874 0.93749 0.0
H1224 H 0.88078 0.06375 0.98056 0.0
H1225 H 0.89807 0.04994 0.98144 0.0
H1226 H 0.89919 0.04047 0.05421 0.0
H1227 H 0.90098 0.07584 0.09817 0.0
H1228 H 0.60491 0.07624 0.40214 0.0
H1229 H 0.6072 0.03978 0.44366 0.0
H1230 H 0.65265 0.04437 0.43543 0.0
H1231 H 0.65052 0.08116 0.39424 0.0
H1232 H 0.62024 0.99417 0.43108 0.0
H1233 H 0.64559 0.04509 0.55361 0.0
H1234 H 0.63704 0.06068 0.51342 0.0
H1235 H 0.65439 0.04766 0.50727 0.0
C1236 C 0.61541 0.06945 0.40887 0.0
C1237 C 0.62753 0.08182 0.39513 0.0
C1238 C 0.61669 0.04859 0.43265 0.0
C1239 C 0.63009 0.0397 0.44328 0.0
C1240 C 0.64222 0.0513 0.4283 0.0
H1241 H 0.65199 0.9163 0.59776 0.0
H1242 H 0.65333 0.95196 0.55368 0.0
C1243 C 0.64096 0.07222 0.40451 0.0
C1244 C 0.63125 0.01848 0.47049 0.0
H1245 H 0.64247 0.00208 0.56178 0.0
C1246 C 0.62514 0.99587 0.4596 0.0
C1247 C 0.63768 0.02077 0.50767 0.0
C1248 C 0.64396 0.04489 0.52148 0.0
C1249 C 0.6252 0.9755 0.48497 0.0
C1250 C 0.63135 0.97795 0.52243 0.0
C1251 C 0.63776 0.00034 0.53304 0.0
C1252 C 0.63069 0.95766 0.5514 0.0
C1253 C 0.6187 0.95149 0.47147 0.0
C1254 C 0.61756 0.9497 0.56572 0.0
C1255 C 0.61674 0.92947 0.5909 0.0
C1256 C 0.62907 0.91678 0.60238 0.0
C1257 C 0.64229 0.92556 0.5894 0.0
C1258 C 0.64308 0.94589 0.56418 0.0
H1259 H 0.61775 0.95071 0.43915 0.0
H1260 H 0.62506 0.93543 0.48148 0.0
H1261 H 0.60792 0.94974 0.48404 0.0
H1262 H 0.6079 0.95889 0.55679 0.0
H1263 H 0.60639 0.92338 0.60048 0.0
H1264 H 0.65173 0.58269 0.10181 0.0
H1265 H 0.65366 0.5469 0.05819 0.0
H1266 H 0.60819 0.54092 0.05473 0.0
H1267 H 0.60609 0.57655 0.09807 0.0
H1268 H 0.64172 0.49657 0.0652 0.0
H1269 H 0.62107 0.54945 0.93839 0.0
H1270 H 0.62784 0.56428 0.98181 0.0
H1271 H 0.61038 0.55113 0.98175 0.0
C1272 C 0.64214 0.57361 0.09213 0.0
C1273 C 0.62875 0.58267 0.10318 0.0
C1274 C 0.64327 0.55319 0.0672 0.0
C1275 C 0.63106 0.54164 0.05275 0.0
C1276 C 0.61773 0.5499 0.0651 0.0
H1277 H 0.6063 0.42564 0.89867 0.0
H1278 H 0.60869 0.46187 0.94048 0.0
C1279 C 0.61657 0.5702 0.09006 0.0
C1280 C 0.63213 0.52138 0.02387 0.0
H1281 H 0.62315 0.50597 0.93045 0.0
C1282 C 0.63782 0.49862 0.03559 0.0
C1283 C 0.62705 0.52425 0.9853 0.0
C1284 C 0.62134 0.54864 0.97081 0.0
C1285 C 0.63799 0.47822 0.01016 0.0
C1286 C 0.63259 0.48094 0.97181 0.0
C1287 C 0.62727 0.50394 0.95984 0.0
C1288 C 0.6315 0.45976 0.94449 0.0
C1289 C 0.64336 0.4537 0.02508 0.0
C1290 C 0.6436 0.44695 0.9319 0.0
C1291 C 0.64228 0.4261 0.90794 0.0
C1292 C 0.62884 0.41781 0.896 0.0
C1293 C 0.61681 0.43138 0.90738 0.0
C1294 C 0.61815 0.45213 0.93133 0.0
H1295 H 0.6442 0.45342 0.05744 0.0
H1296 H 0.6363 0.43839 0.01575 0.0
H1297 H 0.65405 0.45017 0.01283 0.0
H1298 H 0.65403 0.45289 0.941 0.0
H1299 H 0.65177 0.4162 0.89953 0.0
H1300 H 0.90175 0.42129 0.6028 0.0
H1301 H 0.90038 0.45786 0.56141 0.0
H1302 H 0.85488 0.4521 0.55922 0.0
H1303 H 0.85611 0.4151 0.60033 0.0
H1304 H 0.86676 0.45743 0.48557 0.0
H1305 H 0.88817 0.52813 0.58663 0.0
H1306 H 0.89945 0.5016 0.58205 0.0
H1307 H 0.88212 0.49825 0.6032 0.0
C1308 C 0.89141 0.42793 0.59404 0.0
C1309 C 0.87903 0.41519 0.60491 0.0
C1310 C 0.89066 0.44895 0.57049 0.0
C1311 C 0.87753 0.45787 0.55761 0.0
C1312 C 0.86512 0.44556 0.56901 0.0
H1313 H 0.85677 0.57865 0.39806 0.0
H1314 H 0.85538 0.54254 0.44086 0.0
C1315 C 0.86585 0.42446 0.59259 0.0
C1316 C 0.8769 0.47911 0.53031 0.0
H1317 H 0.88732 0.53912 0.51906 0.0
C1318 C 0.8711 0.47539 0.493 0.0
C1319 C 0.88259 0.50249 0.54009 0.0
C1320 C 0.88831 0.50798 0.5803 0.0
C1321 C 0.87129 0.49421 0.46473 0.0
C1322 C 0.87729 0.51738 0.47426 0.0
C1323 C 0.88283 0.52124 0.51178 0.0
C1324 C 0.87805 0.53791 0.44572 0.0
C1325 C 0.86548 0.48896 0.42454 0.0
C1326 C 0.89126 0.5472 0.43417 0.0
C1327 C 0.89212 0.56784 0.40976 0.0
C1328 C 0.87975 0.57975 0.39672 0.0
C1329 C 0.86651 0.56993 0.40748 0.0
C1330 C 0.86568 0.54923 0.43185 0.0
H1331 H 0.8641 0.46882 0.41934 0.0
H1332 H 0.85499 0.49798 0.42147 0.0
H1333 H 0.87257 0.49659 0.40165 0.0
H1334 H 0.90093 0.5387 0.44463 0.0
H1335 H 0.90249 0.57487 0.40211 0.0
H1336 H 0.39992 0.42638 0.90186 0.0
H1337 H 0.39766 0.46282 0.94336 0.0
H1338 H 0.35225 0.45494 0.94264 0.0
H1339 H 0.35438 0.41811 0.9015 0.0
H1340 H 0.38343 0.50732 0.93256 0.0
H1341 H 0.36173 0.45538 0.05939 0.0
H1342 H 0.36972 0.44014 0.018 0.0
H1343 H 0.35204 0.45214 0.01455 0.0
C1344 C 0.38942 0.43243 0.91023 0.0
C1345 C 0.37734 0.41913 0.89862 0.0
C1346 C 0.38816 0.45328 0.934 0.0
C1347 C 0.37481 0.46127 0.94671 0.0
C1348 C 0.36267 0.44873 0.93387 0.0
H1349 H 0.35477 0.58436 0.10417 0.0
H1350 H 0.35273 0.54872 0.06027 0.0
C1351 C 0.36392 0.42779 0.91011 0.0
C1352 C 0.37376 0.48252 0.97388 0.0
H1353 H 0.36439 0.49851 0.06695 0.0
C1354 C 0.37921 0.50543 0.96187 0.0
C1355 C 0.36822 0.47998 0.01211 0.0
C1356 C 0.36269 0.45557 0.02705 0.0
C1357 C 0.37941 0.52581 0.98718 0.0
C1358 C 0.3742 0.5231 0.02566 0.0
C1359 C 0.36839 0.50044 0.03741 0.0
C1360 C 0.37532 0.54337 0.0545 0.0
C1361 C 0.38525 0.55009 0.97261 0.0
C1362 C 0.38867 0.55154 0.06675 0.0
C1363 C 0.3899 0.57175 0.09184 0.0
C1364 C 0.37776 0.58422 0.10525 0.0
C1365 C 0.36434 0.57527 0.09428 0.0
C1366 C 0.36314 0.55494 0.06918 0.0
H1367 H 0.3855 0.55087 0.94019 0.0
H1368 H 0.37885 0.56585 0.98363 0.0
H1369 H 0.39624 0.55238 0.98343 0.0
H1370 H 0.39819 0.54253 0.05626 0.0
H1371 H 0.4004 0.578 0.09981 0.0
H1372 H 0.10353 0.57445 0.40086 0.0
H1373 H 0.10533 0.53825 0.44317 0.0
H1374 H 0.15086 0.5429 0.43909 0.0
H1375 H 0.14921 0.57941 0.3972 0.0
H1376 H 0.11849 0.49269 0.43219 0.0
H1377 H 0.14246 0.54393 0.55645 0.0
H1378 H 0.1344 0.55941 0.51539 0.0
H1379 H 0.15183 0.54643 0.51098 0.0
C1380 C 0.11395 0.56774 0.4087 0.0
C1381 C 0.12622 0.58002 0.3959 0.0
C1382 C 0.11494 0.54704 0.43293 0.0
C1383 C 0.12821 0.53823 0.44491 0.0
C1384 C 0.14051 0.54977 0.43092 0.0
H1385 H 0.14948 0.41474 0.59909 0.0
H1386 H 0.15085 0.45074 0.55577 0.0
C1387 C 0.13953 0.57053 0.40673 0.0
C1388 C 0.12908 0.5171 0.47234 0.0
H1389 H 0.13959 0.50079 0.5643 0.0
C1390 C 0.12313 0.49444 0.46103 0.0
C1391 C 0.13516 0.51947 0.50995 0.0
C1392 C 0.14123 0.54365 0.52419 0.0
C1393 C 0.12305 0.47407 0.48637 0.0
C1394 C 0.1289 0.47656 0.52418 0.0
C1395 C 0.13511 0.49903 0.53527 0.0
C1396 C 0.1282 0.45618 0.55293 0.0
C1397 C 0.11675 0.44999 0.47245 0.0
C1398 C 0.11504 0.44797 0.5667 0.0
C1399 C 0.11421 0.42753 0.59145 0.0
C1400 C 0.12654 0.4149 0.603 0.0
C1401 C 0.13978 0.42395 0.59065 0.0
C1402 C 0.14059 0.44449 0.56587 0.0
H1403 H 0.11595 0.4493 0.44009 0.0
H1404 H 0.12318 0.43402 0.48254 0.0
H1405 H 0.10594 0.44797 0.48468 0.0
H1406 H 0.10538 0.45709 0.55761 0.0
H1407 H 0.10384 0.42124 0.6006 0.0
H1408 H 0.13352 0.34438 0.82989 0.0
H1409 H 0.13314 0.32187 0.89238 0.0
H1410 H 0.10491 0.26779 0.84243 0.0
H1411 H 0.10535 0.29008 0.78007 0.0
H1412 H 0.10801 0.30538 0.94108 0.0
H1413 H 0.14152 0.22975 0.88122 0.0
H1414 H 0.14056 0.25998 0.85893 0.0
H1415 H 0.12639 0.23827 0.85234 0.0
C1416 C 0.12714 0.32781 0.83258 0.0
C1417 C 0.11944 0.3189 0.8005 0.0
C1418 C 0.1269 0.31507 0.86811 0.0
C1419 C 0.11906 0.29316 0.87175 0.0
C1420 C 0.11106 0.28462 0.84001 0.0
H1421 H 0.09776 0.19989 0.0682 0.0
H1422 H 0.09734 0.22935 0.01398 0.0
C1423 C 0.11126 0.29739 0.8046 0.0
C1424 C 0.11976 0.27845 0.90803 0.0
H1425 H 0.13186 0.22364 0.94419 0.0
C1426 C 0.11325 0.28755 0.94194 0.0
C1427 C 0.12676 0.25538 0.90895 0.0
C1428 C 0.13432 0.24524 0.87356 0.0
C1429 C 0.11331 0.27378 0.97675 0.0
C1430 C 0.11996 0.25036 0.97731 0.0
C1431 C 0.12671 0.24157 0.94356 0.0
C1432 C 0.12004 0.23445 0.01244 0.0
C1433 C 0.10637 0.28443 0.01268 0.0
C1434 C 0.13295 0.22753 0.02941 0.0
C1435 C 0.13325 0.21065 0.06022 0.0
C1436 C 0.12063 0.20018 0.07449 0.0
C1437 C 0.10767 0.20761 0.05799 0.0
C1438 C 0.10739 0.22456 0.02715 0.0
H1439 H 0.10476 0.30472 0.01008 0.0
H1440 H 0.09586 0.27565 0.01678 0.0
H1441 H 0.11282 0.28063 0.03911 0.0
H1442 H 0.14283 0.2349 0.01831 0.0
H1443 H 0.14342 0.20541 0.07223 0.0
H1444 H 0.36488 0.7898 0.57237 0.0
H1445 H 0.36728 0.76022 0.51903 0.0
H1446 H 0.41271 0.76723 0.52422 0.0
H1447 H 0.41043 0.79725 0.57728 0.0
H1448 H 0.4026 0.77296 0.45073 0.0
H1449 H 0.37965 0.68845 0.51617 0.0
H1450 H 0.36808 0.7146 0.5207 0.0
H1451 H 0.38495 0.71477 0.54515 0.0
C1452 C 0.37541 0.78486 0.56258 0.0
C1453 C 0.38746 0.79598 0.57909 0.0
C1454 C 0.37676 0.76776 0.53225 0.0
C1455 C 0.39018 0.76122 0.51806 0.0
C1456 C 0.40225 0.7719 0.53494 0.0
H1457 H 0.39955 0.65027 0.33142 0.0
H1458 H 0.40222 0.67222 0.39402 0.0
C1459 C 0.40092 0.78906 0.56525 0.0
C1460 C 0.39149 0.74497 0.4834 0.0
H1461 H 0.38091 0.68946 0.44589 0.0
C1462 C 0.39804 0.75456 0.44986 0.0
C1463 C 0.38572 0.72083 0.48242 0.0
C1464 C 0.37934 0.70895 0.51818 0.0
C1465 C 0.39835 0.74115 0.41484 0.0
C1466 C 0.39173 0.71772 0.41316 0.0
C1467 C 0.38582 0.70757 0.44716 0.0
C1468 C 0.39014 0.70422 0.37584 0.0
C1469 C 0.40563 0.75231 0.37978 0.0
C1470 C 0.3823 0.71481 0.34533 0.0
C1471 C 0.38081 0.70239 0.30989 0.0
C1472 C 0.38701 0.67908 0.30445 0.0
C1473 C 0.39471 0.66829 0.33508 0.0
C1474 C 0.39621 0.68074 0.37068 0.0
H1475 H 0.41359 0.76637 0.38857 0.0
H1476 H 0.41096 0.73788 0.36201 0.0
H1477 H 0.39763 0.76162 0.36116 0.0
H1478 H 0.37733 0.73271 0.34897 0.0
H1479 H 0.37492 0.71115 0.28654 0.0
H1480 H 0.09722 0.79531 0.92582 0.0
H1481 H 0.09589 0.76606 0.98017 0.0
H1482 H 0.14146 0.76357 0.98571 0.0
H1483 H 0.14294 0.79244 0.93103 0.0
H1484 H 0.12863 0.71703 0.99376 0.0
H1485 H 0.10463 0.78699 0.09269 0.0
H1486 H 0.09517 0.78171 0.04798 0.0
H1487 H 0.11255 0.79513 0.04649 0.0
C1488 C 0.10697 0.78845 0.93841 0.0
C1489 C 0.1202 0.79645 0.92431 0.0
C1490 C 0.10618 0.77179 0.96955 0.0
C1491 C 0.11857 0.76301 0.98732 0.0
C1492 C 0.13177 0.77023 0.97245 0.0
H1493 H 0.13321 0.70798 0.21764 0.0
H1494 H 0.132 0.7304 0.15571 0.0
C1495 C 0.13259 0.7868 0.94125 0.0
C1496 C 0.11787 0.74707 0.02241 0.0
H1497 H 0.10777 0.74688 0.1181 0.0
C1498 C 0.124 0.72344 0.02092 0.0
C1499 C 0.11196 0.75568 0.05785 0.0
C1500 C 0.10581 0.78133 0.06166 0.0
C1501 C 0.1245 0.70823 0.05414 0.0
C1502 C 0.11853 0.71682 0.0895 0.0
C1503 C 0.11225 0.74032 0.09082 0.0
C1504 C 0.1195 0.70252 0.12625 0.0
C1505 C 0.13184 0.68351 0.05152 0.0
C1506 C 0.11284 0.67944 0.13021 0.0
C1507 C 0.11364 0.66651 0.16555 0.0
C1508 C 0.12107 0.67655 0.1973 0.0
C1509 C 0.12763 0.69969 0.19331 0.0
C1510 C 0.12686 0.71255 0.1581 0.0
H1511 H 0.13839 0.68191 0.02469 0.0
H1512 H 0.13871 0.68044 0.07736 0.0
H1513 H 0.12377 0.6686 0.05092 0.0
H1514 H 0.10689 0.67161 0.10619 0.0
H1515 H 0.10843 0.64874 0.16818 0.0
H1516 H 0.40046 0.29523 0.72242 0.0
H1517 H 0.40136 0.27234 0.66072 0.0
H1518 H 0.36968 0.32086 0.6122 0.0
H1519 H 0.3689 0.34403 0.67395 0.0
H1520 H 0.37737 0.24832 0.62684 0.0
H1521 H 0.4014 0.31792 0.52729 0.0
H1522 H 0.40289 0.31986 0.57982 0.0
H1523 H 0.38666 0.3284 0.55616 0.0
C1524 C 0.39391 0.30128 0.69829 0.0
C1525 C 0.38471 0.32147 0.70259 0.0
C1526 C 0.39438 0.28816 0.66322 0.0
C1527 C 0.38571 0.2951 0.63184 0.0
C1528 C 0.37662 0.31549 0.63589 0.0
H1529 H 0.36126 0.2033 0.43568 0.0
H1530 H 0.36174 0.23189 0.49091 0.0
C1531 C 0.37612 0.32859 0.67109 0.0
C1532 C 0.38552 0.27992 0.59593 0.0
H1533 H 0.39311 0.28078 0.49841 0.0
C1534 C 0.38081 0.25539 0.59875 0.0
C1535 C 0.39011 0.28922 0.55948 0.0
C1536 C 0.39567 0.31523 0.5553 0.0
C1537 C 0.38045 0.23991 0.56594 0.0
C1538 C 0.38482 0.24931 0.52936 0.0
C1539 C 0.38967 0.27376 0.52653 0.0
C1540 C 0.38457 0.23371 0.49393 0.0
C1541 C 0.3756 0.21349 0.57069 0.0
C1542 C 0.39727 0.22585 0.47679 0.0
C1543 C 0.39707 0.20945 0.44524 0.0
C1544 C 0.38413 0.20076 0.43018 0.0
C1545 C 0.37142 0.20947 0.44663 0.0
C1546 C 0.37165 0.22578 0.47824 0.0
H1547 H 0.37524 0.2078 0.60186 0.0
H1548 H 0.3648 0.21152 0.55835 0.0
H1549 H 0.3827 0.20069 0.55461 0.0
H1550 H 0.40735 0.23187 0.48854 0.0
H1551 H 0.40705 0.20323 0.43317 0.0
H1552 H 0.87254 0.7105 0.2211 0.0
H1553 H 0.8738 0.73298 0.15918 0.0
H1554 H 0.89858 0.67385 0.10931 0.0
H1555 H 0.89695 0.65093 0.17119 0.0
H1556 H 0.89764 0.74948 0.12111 0.0
H1557 H 0.86734 0.68405 0.02795 0.0
H1558 H 0.86717 0.68243 0.08061 0.0
H1559 H 0.88206 0.67077 0.05368 0.0
C1560 C 0.87805 0.70215 0.19669 0.0
C1561 C 0.88447 0.67888 0.20051 0.0
C1562 C 0.87885 0.71505 0.16147 0.0
C1563 C 0.88611 0.70493 0.12949 0.0
C1564 C 0.89268 0.68176 0.13338 0.0
H1565 H 0.90917 0.79696 0.92881 0.0
H1566 H 0.91021 0.76813 0.98377 0.0
C1567 C 0.89183 0.66879 0.16868 0.0
C1568 C 0.88708 0.71918 0.09263 0.0
H1569 H 0.87742 0.71878 0.99653 0.0
C1570 C 0.89328 0.74274 0.0938 0.0
C1571 C 0.88127 0.71038 0.05719 0.0
C1572 C 0.87397 0.68562 0.05463 0.0
C1573 C 0.89369 0.75792 0.06062 0.0
C1574 C 0.88798 0.74906 0.02507 0.0
C1575 C 0.8819 0.7254 0.02376 0.0
C1576 C 0.88749 0.76474 0.98962 0.0
C1577 C 0.89975 0.78364 0.0643 0.0
C1578 C 0.87439 0.77158 0.97373 0.0
C1579 C 0.87374 0.78788 0.94214 0.0
C1580 C 0.88621 0.79766 0.92581 0.0
C1581 C 0.89935 0.79 0.9409 0.0
C1582 C 0.89998 0.7736 0.97242 0.0
H1583 H 0.90064 0.78955 0.09528 0.0
H1584 H 0.91051 0.78398 0.05132 0.0
H1585 H 0.89311 0.79729 0.04843 0.0
H1586 H 0.86462 0.76485 0.98649 0.0
H1587 H 0.86344 0.79327 0.93117 0.0
H1588 H 0.64473 0.20471 0.43039 0.0
H1589 H 0.64438 0.2336 0.4853 0.0
H1590 H 0.59877 0.23257 0.4851 0.0
H1591 H 0.59894 0.20368 0.43012 0.0
H1592 H 0.6125 0.28171 0.49403 0.0
H1593 H 0.63184 0.20959 0.59697 0.0
H1594 H 0.64201 0.21372 0.55303 0.0
H1595 H 0.62424 0.20211 0.55006 0.0
C1596 C 0.6346 0.21074 0.44175 0.0
C1597 C 0.62186 0.20167 0.42605 0.0
C1598 C 0.63444 0.22722 0.47317 0.0
C1599 C 0.62156 0.23494 0.48939 0.0
C1600 C 0.60882 0.22673 0.47294 0.0
H1601 H 0.6053 0.29507 0.71824 0.0
H1602 H 0.60464 0.27254 0.65618 0.0
C1603 C 0.60895 0.21017 0.44161 0.0
C1604 C 0.62137 0.25063 0.52473 0.0
H1605 H 0.62907 0.24993 0.62206 0.0
C1606 C 0.61614 0.27485 0.52205 0.0
C1607 C 0.62599 0.24142 0.5612 0.0
C1608 C 0.63125 0.21523 0.56582 0.0
C1609 C 0.61553 0.29026 0.55505 0.0
C1610 C 0.62033 0.28114 0.5914 0.0
C1611 C 0.62546 0.25686 0.59404 0.0
C1612 C 0.61989 0.2962 0.62742 0.0
C1613 C 0.60955 0.31599 0.55106 0.0
C1614 C 0.62862 0.31703 0.6316 0.0
C1615 C 0.62899 0.32992 0.667 0.0
C1616 C 0.62062 0.32213 0.69857 0.0
C1617 C 0.6117 0.30159 0.69407 0.0
C1618 C 0.61137 0.28868 0.6588 0.0
H1619 H 0.60377 0.31847 0.52308 0.0
H1620 H 0.60226 0.32018 0.57562 0.0
H1621 H 0.61833 0.32961 0.552 0.0
H1622 H 0.63544 0.32287 0.60789 0.0
H1623 H 0.63598 0.34567 0.67001 0.0
H1624 H 0.90848 0.20271 0.07625 0.0
H1625 H 0.90998 0.23263 0.02294 0.0
H1626 H 0.86442 0.23595 0.0175 0.0
H1627 H 0.86278 0.20641 0.0712 0.0
H1628 H 0.90001 0.22536 0.94956 0.0
H1629 H 0.87504 0.3087 0.01346 0.0
H1630 H 0.88097 0.283 0.0429 0.0
H1631 H 0.86419 0.28163 0.01818 0.0
C1632 C 0.89876 0.21006 0.06413 0.0
C1633 C 0.8855 0.20209 0.07798 0.0
C1634 C 0.89965 0.22717 0.03367 0.0
C1635 C 0.88732 0.23675 0.01659 0.0
C1636 C 0.87408 0.22924 0.03084 0.0
H1637 H 0.87312 0.28658 0.78332 0.0
H1638 H 0.87481 0.265 0.84596 0.0
C1639 C 0.87317 0.21218 0.06138 0.0
C1640 C 0.88827 0.25284 0.98165 0.0
H1641 H 0.877 0.30775 0.94347 0.0
C1642 C 0.89513 0.24351 0.9484 0.0
C1643 C 0.88206 0.27663 0.98031 0.0
C1644 C 0.87528 0.2882 0.01576 0.0
C1645 C 0.89544 0.25689 0.91336 0.0
C1646 C 0.88849 0.28001 0.91136 0.0
C1647 C 0.88216 0.28986 0.94502 0.0
C1648 C 0.88716 0.29362 0.87407 0.0
C1649 C 0.90311 0.24607 0.87867 0.0
C1650 C 0.89321 0.31716 0.86954 0.0
C1651 C 0.89214 0.32961 0.83383 0.0
C1652 C 0.88488 0.31875 0.80245 0.0
C1653 C 0.87866 0.29539 0.80727 0.0
C1654 C 0.87974 0.28298 0.84284 0.0
H1655 H 0.91109 0.23214 0.88779 0.0
H1656 H 0.89534 0.23671 0.85936 0.0
H1657 H 0.90849 0.26072 0.86148 0.0
H1658 H 0.89892 0.3257 0.89343 0.0
H1659 H 0.89699 0.34765 0.83064 0.0
H1660 H 0.59835 0.79635 0.57491 0.0
H1661 H 0.59663 0.76664 0.52135 0.0
H1662 H 0.64217 0.76341 0.51437 0.0
H1663 H 0.64402 0.79269 0.56833 0.0
H1664 H 0.60608 0.77361 0.44775 0.0
H1665 H 0.6318 0.69076 0.51067 0.0
H1666 H 0.62603 0.71648 0.54031 0.0
H1667 H 0.64266 0.71785 0.51471 0.0
C1668 C 0.60801 0.78907 0.56238 0.0
C1669 C 0.62133 0.79695 0.57594 0.0
C1670 C 0.607 0.77208 0.53177 0.0
C1671 C 0.61927 0.76254 0.51421 0.0
C1672 C 0.63256 0.77005 0.52808 0.0
H1673 H 0.63231 0.713 0.28009 0.0
H1674 H 0.6305 0.73488 0.34245 0.0
C1675 C 0.63359 0.78697 0.55878 0.0
C1676 C 0.61819 0.74642 0.47933 0.0
H1677 H 0.62963 0.69173 0.4407 0.0
C1678 C 0.61108 0.75557 0.44639 0.0
C1679 C 0.62454 0.72273 0.47773 0.0
C1680 C 0.63156 0.71125 0.51289 0.0
C1681 C 0.61065 0.74215 0.41137 0.0
C1682 C 0.61777 0.7192 0.40904 0.0
C1683 C 0.62434 0.7095 0.44244 0.0
C1684 C 0.61903 0.70558 0.37169 0.0
C1685 C 0.60266 0.75277 0.37711 0.0
C1686 C 0.61353 0.68158 0.36783 0.0
C1687 C 0.61471 0.66895 0.33229 0.0
C1688 C 0.62151 0.6801 0.30038 0.0
C1689 C 0.62712 0.70398 0.30445 0.0
C1690 C 0.62596 0.71655 0.33987 0.0
H1691 H 0.59449 0.76624 0.38674 0.0
H1692 H 0.61017 0.76266 0.3577 0.0
H1693 H 0.59743 0.73797 0.35989 0.0
H1694 H 0.60821 0.67275 0.39215 0.0
H1695 H 0.61033 0.65051 0.32969 0.0
H1696 H 0.64311 0.70773 0.06909 0.0
H1697 H 0.64136 0.73726 0.0155 0.0
H1698 H 0.59584 0.73198 0.01897 0.0
H1699 H 0.59746 0.70199 0.07224 0.0
H1700 H 0.60624 0.72606 0.9458 0.0
H1701 H 0.6299 0.80949 0.0128 0.0
H1702 H 0.64111 0.78287 0.0174 0.0
H1703 H 0.62415 0.78327 0.04135 0.0
C1704 C 0.6327 0.71302 0.05883 0.0
C1705 C 0.62042 0.70242 0.07496 0.0
C1706 C 0.63172 0.73009 0.02835 0.0
C1707 C 0.61846 0.73713 0.01366 0.0
C1708 C 0.60617 0.72692 0.03008 0.0
H1709 H 0.61009 0.84965 0.82959 0.0
H1710 H 0.60763 0.8272 0.89177 0.0
C1711 C 0.60713 0.70977 0.06052 0.0
C1712 C 0.61753 0.75352 0.97907 0.0
H1713 H 0.62874 0.80894 0.94259 0.0
C1714 C 0.611 0.74432 0.94527 0.0
C1715 C 0.62356 0.77747 0.97855 0.0
C1716 C 0.62994 0.78897 0.01461 0.0
C1717 C 0.61089 0.75795 0.91046 0.0
C1718 C 0.61772 0.7812 0.90925 0.0
C1719 C 0.62368 0.79095 0.94349 0.0
C1720 C 0.61934 0.79508 0.87227 0.0
C1721 C 0.60354 0.74725 0.87517 0.0
C1722 C 0.62693 0.78462 0.84117 0.0
C1723 C 0.62829 0.79731 0.80591 0.0
C1724 C 0.62221 0.8208 0.80129 0.0
C1725 C 0.61483 0.83151 0.8326 0.0
C1726 C 0.61345 0.81876 0.86797 0.0
H1727 H 0.59546 0.73332 0.88365 0.0
H1728 H 0.59833 0.76195 0.85768 0.0
H1729 H 0.61147 0.73789 0.85637 0.0
H1730 H 0.63177 0.76655 0.84414 0.0
H1731 H 0.63393 0.78861 0.78203 0.0
H1732 H 0.87375 0.20928 0.28272 0.0
H1733 H 0.87557 0.23118 0.34504 0.0
H1734 H 0.89891 0.16995 0.39375 0.0
H1735 H 0.89685 0.1477 0.33124 0.0
H1736 H 0.87696 0.18884 0.44299 0.0
H1737 H 0.91206 0.26309 0.38751 0.0
H1738 H 0.8964 0.25885 0.3586 0.0
H1739 H 0.90928 0.23445 0.36149 0.0
C1740 C 0.87916 0.20044 0.30686 0.0
C1741 C 0.88511 0.17683 0.30248 0.0
C1742 C 0.88031 0.21302 0.34225 0.0
C1743 C 0.88755 0.20231 0.37376 0.0
C1744 C 0.89335 0.17855 0.36965 0.0
H1745 H 0.90875 0.29349 0.57583 0.0
H1746 H 0.91025 0.2635 0.52262 0.0
C1747 C 0.89221 0.16592 0.3341 0.0
C1748 C 0.88888 0.21604 0.41093 0.0
H1749 H 0.90073 0.27057 0.44878 0.0
C1750 C 0.8823 0.20658 0.44448 0.0
C1751 C 0.89604 0.23897 0.41286 0.0
C1752 C 0.90397 0.24936 0.3783 0.0
C1753 C 0.88214 0.22002 0.47958 0.0
C1754 C 0.88857 0.24364 0.48081 0.0
C1755 C 0.89569 0.25256 0.4477 0.0
C1756 C 0.8876 0.25995 0.51548 0.0
C1757 C 0.87507 0.20885 0.51492 0.0
C1758 C 0.87435 0.26785 0.5292 0.0
C1759 C 0.87344 0.28495 0.55968 0.0
C1760 C 0.88578 0.2947 0.57675 0.0
C1761 C 0.89904 0.28642 0.56334 0.0
C1762 C 0.89992 0.26925 0.53294 0.0
H1763 H 0.87467 0.18835 0.51291 0.0
H1764 H 0.88067 0.21406 0.54221 0.0
H1765 H 0.86403 0.21573 0.51679 0.0
H1766 H 0.8647 0.26136 0.51555 0.0
H1767 H 0.86306 0.29098 0.56915 0.0
H1768 H 0.60533 0.15273 0.17268 0.0
H1769 H 0.60329 0.17526 0.11046 0.0
H1770 H 0.63021 0.2329 0.156 0.0
H1771 H 0.63193 0.21084 0.21815 0.0
H1772 H 0.60586 0.25053 0.11978 0.0
H1773 H 0.63422 0.18251 0.02626 0.0
H1774 H 0.61959 0.17063 0.0541 0.0
H1775 H 0.63507 0.18169 0.07892 0.0
C1776 C 0.61079 0.1702 0.16917 0.0
C1777 C 0.61891 0.17999 0.19982 0.0
C1778 C 0.60971 0.18294 0.13369 0.0
C1779 C 0.61677 0.20556 0.12849 0.0
C1780 C 0.62475 0.2154 0.15934 0.0
H1781 H 0.64185 0.29228 0.93208 0.0
H1782 H 0.63954 0.26357 0.98675 0.0
C1783 C 0.62581 0.20273 0.19467 0.0
C1784 C 0.61573 0.2195 0.09138 0.0
H1785 H 0.6254 0.21829 0.9953 0.0
C1786 C 0.61002 0.24344 0.09245 0.0
C1787 C 0.62129 0.21021 0.05595 0.0
C1788 C 0.628 0.18493 0.05354 0.0
C1789 C 0.60996 0.25858 0.05921 0.0
C1790 C 0.61554 0.24933 0.02375 0.0
C1791 C 0.62103 0.22522 0.02248 0.0
C1792 C 0.61667 0.26508 0.98851 0.0
C1793 C 0.60448 0.28471 0.06278 0.0
C1794 C 0.60455 0.27497 0.97076 0.0
C1795 C 0.60582 0.29154 0.93962 0.0
C1796 C 0.61925 0.29836 0.92547 0.0
C1797 C 0.63134 0.28757 0.94233 0.0
C1798 C 0.63005 0.27109 0.97353 0.0
H1799 H 0.60347 0.29059 0.09375 0.0
H1800 H 0.61157 0.2979 0.04744 0.0
H1801 H 0.59385 0.28587 0.04913 0.0
H1802 H 0.59411 0.27019 0.98144 0.0
H1803 H 0.59628 0.2993 0.9271 0.0
H1804 H 0.90773 0.70084 0.42941 0.0
H1805 H 0.90849 0.72969 0.48442 0.0
H1806 H 0.8629 0.73236 0.48626 0.0
H1807 H 0.86196 0.70348 0.43144 0.0
H1808 H 0.89592 0.77892 0.49434 0.0
H1809 H 0.87502 0.70819 0.59725 0.0
H1810 H 0.88217 0.70028 0.54997 0.0
H1811 H 0.8647 0.7131 0.55385 0.0
C1812 C 0.89785 0.70768 0.44128 0.0
C1813 C 0.88478 0.69962 0.42624 0.0
C1814 C 0.89832 0.72421 0.47263 0.0
C1815 C 0.88575 0.73285 0.48959 0.0
C1816 C 0.87271 0.72561 0.47381 0.0
H1817 H 0.87327 0.84538 0.66827 0.0
H1818 H 0.87381 0.82231 0.60641 0.0
C1819 C 0.87221 0.70914 0.44243 0.0
C1820 C 0.88627 0.74851 0.52496 0.0
H1821 H 0.87821 0.74854 0.62208 0.0
C1822 C 0.89205 0.77236 0.52231 0.0
C1823 C 0.88136 0.73969 0.56138 0.0
C1824 C 0.87556 0.71385 0.56609 0.0
C1825 C 0.89289 0.78778 0.55525 0.0
C1826 C 0.88774 0.77909 0.59151 0.0
C1827 C 0.88209 0.75516 0.59415 0.0
C1828 C 0.88826 0.79426 0.62743 0.0
C1829 C 0.89948 0.81305 0.55124 0.0
C1830 C 0.89615 0.78604 0.65963 0.0
C1831 C 0.89579 0.79908 0.69479 0.0
C1832 C 0.8875 0.82049 0.69833 0.0
C1833 C 0.87979 0.82897 0.66597 0.0
C1834 C 0.88016 0.81592 0.63072 0.0
H1835 H 0.90566 0.81484 0.52378 0.0
H1836 H 0.891 0.82724 0.55093 0.0
H1837 H 0.90655 0.81705 0.57637 0.0
H1838 H 0.90237 0.76925 0.65773 0.0
H1839 H 0.90166 0.79203 0.71958 0.0
H1840 H 0.36287 0.29408 0.93508 0.0
H1841 H 0.36469 0.26545 0.98994 0.0
H1842 H 0.4102 0.27093 0.98609 0.0
H1843 H 0.40851 0.29999 0.93153 0.0
H1844 H 0.37828 0.21993 0.99895 0.0
H1845 H 0.40059 0.29141 0.09811 0.0
H1846 H 0.39281 0.299 0.05154 0.0
H1847 H 0.41038 0.28639 0.05384 0.0
C1848 C 0.37329 0.28914 0.94569 0.0
C1849 C 0.38554 0.29959 0.92915 0.0
C1850 C 0.3743 0.27271 0.97701 0.0
C1851 C 0.38756 0.2664 0.99244 0.0
C1852 C 0.39985 0.27595 0.97506 0.0
H1853 H 0.39791 0.15317 0.17504 0.0
H1854 H 0.39971 0.17591 0.11301 0.0
C1855 C 0.39886 0.29249 0.94378 0.0
C1856 C 0.38839 0.2506 0.0277 0.0
H1857 H 0.39782 0.25133 0.1239 0.0
C1858 C 0.38263 0.22668 0.02624 0.0
C1859 C 0.39394 0.25963 0.06332 0.0
C1860 C 0.39968 0.28557 0.06711 0.0
C1861 C 0.38212 0.21163 0.05964 0.0
C1862 C 0.3877 0.22066 0.09521 0.0
C1863 C 0.39364 0.24443 0.09649 0.0
C1864 C 0.38665 0.20651 0.13213 0.0
C1865 C 0.37515 0.18658 0.05696 0.0
C1866 C 0.37897 0.21642 0.16353 0.0
C1867 C 0.37806 0.20363 0.19881 0.0
C1868 C 0.3848 0.18069 0.2033 0.0
C1869 C 0.39256 0.17079 0.17203 0.0
C1870 C 0.39351 0.18365 0.13665 0.0
H1871 H 0.36877 0.18461 0.02989 0.0
H1872 H 0.38343 0.17203 0.05679 0.0
H1873 H 0.36818 0.18329 0.08255 0.0
H1874 H 0.37368 0.23411 0.16072 0.0
H1875 H 0.37223 0.21183 0.22278 0.0
H1876 H 0.13333 0.78589 0.71678 0.0
H1877 H 0.13196 0.76417 0.65423 0.0
H1878 H 0.10702 0.82381 0.60658 0.0
H1879 H 0.10874 0.84597 0.66915 0.0
H1880 H 0.10773 0.74835 0.61637 0.0
H1881 H 0.13831 0.81422 0.52445 0.0
H1882 H 0.13867 0.81516 0.57715 0.0
H1883 H 0.12372 0.82729 0.55109 0.0
C1884 C 0.12775 0.79451 0.69273 0.0
C1885 C 0.1213 0.81769 0.69739 0.0
C1886 C 0.1269 0.78206 0.65716 0.0
C1887 C 0.11955 0.79253 0.62565 0.0
C1888 C 0.11297 0.81563 0.63032 0.0
H1889 H 0.09697 0.70148 0.42359 0.0
H1890 H 0.09571 0.73072 0.47793 0.0
C1891 C 0.11387 0.82816 0.666 0.0
C1892 C 0.11849 0.77867 0.5885 0.0
H1893 H 0.12847 0.77947 0.49265 0.0
C1894 C 0.11218 0.75519 0.58923 0.0
C1895 C 0.12442 0.78763 0.55331 0.0
C1896 C 0.13177 0.81236 0.55128 0.0
C1897 C 0.11184 0.7402 0.55586 0.0
C1898 C 0.11772 0.74916 0.5206 0.0
C1899 C 0.12387 0.77279 0.51969 0.0
C1900 C 0.11839 0.73356 0.48515 0.0
C1901 C 0.10567 0.71452 0.55905 0.0
C1902 C 0.13158 0.72629 0.47023 0.0
C1903 C 0.13236 0.70972 0.43902 0.0
C1904 C 0.11995 0.70012 0.42215 0.0
C1905 C 0.10674 0.7083 0.43614 0.0
C1906 C 0.10598 0.72495 0.46728 0.0
H1907 H 0.10449 0.70856 0.58993 0.0
H1908 H 0.09503 0.71429 0.54535 0.0
H1909 H 0.11241 0.70086 0.54355 0.0
H1910 H 0.14128 0.73282 0.48357 0.0
H1911 H 0.1427 0.70394 0.42887 0.0
H1912 H 0.40254 0.79888 0.79191 0.0
H1913 H 0.40282 0.77838 0.8557 0.0
H1914 H 0.36709 0.8222 0.89236 0.0
H1915 H 0.36699 0.84331 0.82875 0.0
H1916 H 0.4025 0.80345 0.93927 0.0
H1917 H 0.35665 0.74397 0.89824 0.0
H1918 H 0.36807 0.75772 0.86192 0.0
H1919 H 0.35575 0.77665 0.88819 0.0
C1920 C 0.39497 0.80457 0.81389 0.0
C1921 C 0.38479 0.82276 0.80562 0.0
C1922 C 0.3951 0.79277 0.85017 0.0
C1923 C 0.38497 0.79881 0.8785 0.0
C1924 C 0.37497 0.81733 0.8707 0.0
H1925 H 0.36326 0.71651 0.0885 0.0
H1926 H 0.36358 0.74685 0.03564 0.0
C1927 C 0.3749 0.82927 0.83448 0.0
C1928 C 0.38441 0.78467 0.91533 0.0
H1929 H 0.36681 0.73743 0.95988 0.0
C1930 C 0.39467 0.78911 0.94404 0.0
C1931 C 0.37413 0.76612 0.92127 0.0
C1932 C 0.36302 0.7606 0.89084 0.0
C1933 C 0.39493 0.77529 0.97878 0.0
C1934 C 0.3849 0.75614 0.98425 0.0
C1935 C 0.37449 0.75209 0.95568 0.0
C1936 C 0.38523 0.73944 0.0186 0.0
C1937 C 0.40585 0.78155 0.00937 0.0
C1938 C 0.39732 0.72525 0.02674 0.0
C1939 C 0.39722 0.70803 0.05718 0.0
C1940 C 0.38493 0.70436 0.07963 0.0
C1941 C 0.37289 0.71881 0.0717 0.0
C1942 C 0.37306 0.73619 0.04152 0.0
H1943 H 0.40944 0.80104 0.00671 0.0
H1944 H 0.40164 0.77862 0.0393 0.0
H1945 H 0.41523 0.76948 0.00535 0.0
H1946 H 0.40671 0.72693 0.00881 0.0
H1947 H 0.40663 0.69706 0.06228 0.0
H1948 H 0.13413 0.15159 0.32943 0.0
H1949 H 0.13328 0.17447 0.39147 0.0
H1950 H 0.10358 0.22592 0.34096 0.0
H1951 H 0.10457 0.20333 0.279 0.0
H1952 H 0.12771 0.24771 0.377 0.0
H1953 H 0.10087 0.17975 0.47386 0.0
H1954 H 0.11564 0.16819 0.44618 0.0
H1955 H 0.09993 0.17807 0.42122 0.0
C1956 C 0.12731 0.16762 0.33193 0.0
C1957 C 0.11932 0.17565 0.29982 0.0
C1958 C 0.12677 0.18055 0.36728 0.0
C1959 C 0.11822 0.20167 0.37084 0.0
C1960 C 0.11013 0.20953 0.33883 0.0
H1961 H 0.09737 0.29459 0.56874 0.0
H1962 H 0.09682 0.26592 0.51341 0.0
C1963 C 0.11065 0.19659 0.30361 0.0
C1964 C 0.11845 0.21667 0.40694 0.0
H1965 H 0.10985 0.21606 0.50383 0.0
C1966 C 0.1238 0.24081 0.40473 0.0
C1967 C 0.11325 0.20761 0.44291 0.0
C1968 C 0.10698 0.18205 0.44638 0.0
C1969 C 0.12422 0.25614 0.43771 0.0
C1970 C 0.11925 0.24695 0.47385 0.0
C1971 C 0.11374 0.2229 0.47605 0.0
C1972 C 0.11957 0.26239 0.50944 0.0
C1973 C 0.12978 0.28217 0.43358 0.0
C1974 C 0.13254 0.26933 0.52595 0.0
C1975 C 0.13291 0.28566 0.5575 0.0
C1976 C 0.12029 0.29536 0.57311 0.0
C1977 C 0.10728 0.28759 0.55733 0.0
C1978 C 0.10693 0.27117 0.5258 0.0
H1979 H 0.13052 0.28797 0.40252 0.0
H1980 H 0.1229 0.29545 0.44942 0.0
H1981 H 0.14053 0.28322 0.44655 0.0
H1982 H 0.14239 0.26249 0.51389 0.0
H1983 H 0.14312 0.2911 0.56904 0.0
loop_
_geom_bond_atom_site_label_1
_geom_bond_atom_site_label_2
_geom_bond_distance
_geom_bond_site_symmetry_2
_ccdc_geom_bond_type
Co0 O3 1.970 . S
Co0 N17 1.989 . S
Co0 O25 1.967 . S
Co0 O32 1.920 . S
Co1 O4 1.966 . S
Co1 N10 2.022 . S
Co1 N18 1.993 . S
Co1 O26 1.941 . S
C2 O3 1.258 . S
C2 O4 1.263 . S
O3 Co0 1.970 . S
O3 C2 1.258 . S
O4 Co1 1.966 . S
O4 C2 1.263 . S
C5 O6 1.235 . S
C5 O32 1.289 . S
O6 C5 1.235 . S
C7 C9 1.400 . S
C7 N10 1.351 . S
C7 C12 1.501 . S
C8 C9 1.387 . S
C8 N11 1.341 . S
C9 C7 1.400 . S
C9 C8 1.387 . S
N10 Co1 2.022 . S
N10 C7 1.351 . S
N10 N11 1.365 . S
N11 C8 1.341 . S
N11 N10 1.365 . S
N11 H31 0.862 . S
C12 C7 1.501 . S
C12 H13 0.961 . S
C12 H14 0.961 . S
C12 H15 0.960 . S
H13 C12 0.961 . S
H14 C12 0.961 . S
H15 C12 0.960 . S
C16 N17 1.342 . S
C16 C20 1.401 . S
C16 C21 1.499 . S
N17 Co0 1.989 . S
N17 C16 1.342 . S
N17 N18 1.388 . S
N18 Co1 1.993 . S
N18 N17 1.388 . S
N18 C19 1.346 . S
C19 N18 1.346 . S
C19 C20 1.396 . S
C19 C29 1.510 . S
C20 C16 1.401 . S
C20 C19 1.396 . S
C21 C16 1.499 . S
C21 H22 0.959 . S
C21 H23 0.960 . S
C21 H24 0.961 . S
H22 C21 0.959 . S
H23 C21 0.960 . S
H24 C21 0.961 . S
O25 Co0 1.967 . S
O25 C33 1.258 . S
O26 Co1 1.941 . S
O26 C33 1.266 . S
H27 C29 0.959 . S
H28 C29 0.961 . S
C29 C19 1.510 . S
C29 H27 0.959 . S
C29 H28 0.961 . S
C29 H30 0.960 . S
H30 C29 0.960 . S
H31 N11 0.862 . S
O32 Co0 1.920 . S
O32 C5 1.289 . S
C33 O25 1.258 . S
C33 O26 1.266 . S
Co34 O37 1.970 . S
Co34 N51 1.989 . S
Co34 O59 1.967 . S
Co34 O66 1.920 . S
Co35 O38 1.966 . S
Co35 N44 2.022 . S
Co35 N52 1.993 . S
Co35 O60 1.941 . S
C36 O37 1.258 . S
C36 O38 1.263 . S
O37 Co34 1.970 . S
O37 C36 1.258 . S
O38 Co35 1.966 . S
O38 C36 1.263 . S
C39 O40 1.235 . S
C39 O66 1.289 . S
O40 C39 1.235 . S
C41 C43 1.400 . S
C41 N44 1.351 . S
C41 C46 1.501 . S
C42 C43 1.387 . S
C42 N45 1.341 . S
C43 C41 1.400 . S
C43 C42 1.387 . S
N44 Co35 2.022 . S
N44 C41 1.351 . S
N44 N45 1.365 . S
N45 C42 1.341 . S
N45 N44 1.365 . S
N45 H65 0.862 . S
C46 C41 1.501 . S
C46 H47 0.961 . S
C46 H48 0.961 . S
C46 H49 0.960 . S
H47 C46 0.961 . S
H48 C46 0.961 . S
H49 C46 0.960 . S
C50 N51 1.342 . S
C50 C54 1.401 . S
C50 C55 1.499 . S
N51 Co34 1.989 . S
N51 C50 1.342 . S
N51 N52 1.388 . S
N52 Co35 1.993 . S
N52 N51 1.388 . S
N52 C53 1.346 . S
C53 N52 1.346 . S
C53 C54 1.396 . S
C53 C63 1.510 . S
C54 C50 1.401 . S
C54 C53 1.396 . S
C55 C50 1.499 . S
C55 H56 0.959 . S
C55 H57 0.960 . S
C55 H58 0.961 . S
H56 C55 0.959 . S
H57 C55 0.960 . S
H58 C55 0.961 . S
O59 Co34 1.967 . S
O59 C67 1.258 . S
O60 Co35 1.941 . S
O60 C67 1.266 . S
H61 C63 0.959 . S
H62 C63 0.961 . S
C63 C53 1.510 . S
C63 H61 0.959 . S
C63 H62 0.961 . S
C63 H64 0.960 . S
H64 C63 0.960 . S
H65 N45 0.862 . S
O66 Co34 1.920 . S
O66 C39 1.289 . S
C67 O59 1.258 . S
C67 O60 1.266 . S
Co68 O71 1.970 . S
Co68 N85 1.989 . S
Co68 O93 1.967 . S
Co68 O100 1.920 . S
Co69 O72 1.966 . S
Co69 N78 2.022 . S
Co69 N86 1.993 . S
Co69 O94 1.941 . S
C70 O71 1.258 . S
C70 O72 1.263 . S
O71 Co68 1.970 . S
O71 C70 1.258 . S
O72 Co69 1.966 . S
O72 C70 1.263 . S
C73 O74 1.235 . S
C73 O100 1.289 . S
O74 C73 1.235 . S
C75 C77 1.400 . S
C75 N78 1.351 . S
C75 C80 1.501 . S
C76 C77 1.387 . S
C76 N79 1.341 . S
C77 C75 1.400 . S
C77 C76 1.387 . S
N78 Co69 2.022 . S
N78 C75 1.351 . S
N78 N79 1.365 . S
N79 C76 1.341 . S
N79 N78 1.365 . S
N79 H99 0.862 . S
C80 C75 1.501 . S
C80 H81 0.961 . S
C80 H82 0.961 . S
C80 H83 0.960 . S
H81 C80 0.961 . S
H82 C80 0.961 . S
H83 C80 0.960 . S
C84 N85 1.342 . S
C84 C88 1.401 . S
C84 C89 1.499 . S
N85 Co68 1.989 . S
N85 C84 1.342 . S
N85 N86 1.388 . S
N86 Co69 1.993 . S
N86 N85 1.388 . S
N86 C87 1.346 . S
C87 N86 1.346 . S
C87 C88 1.396 . S
C87 C97 1.510 . S
C88 C84 1.401 . S
C88 C87 1.396 . S
C89 C84 1.499 . S
C89 H90 0.959 . S
C89 H91 0.960 . S
C89 H92 0.961 . S
H90 C89 0.959 . S
H91 C89 0.960 . S
H92 C89 0.961 . S
O93 Co68 1.967 . S
O93 C101 1.258 . S
O94 Co69 1.941 . S
O94 C101 1.266 . S
H95 C97 0.959 . S
H96 C97 0.961 . S
C97 C87 1.510 . S
C97 H95 0.959 . S
C97 H96 0.961 . S
C97 H98 0.960 . S
H98 C97 0.960 . S
H99 N79 0.862 . S
O100 Co68 1.920 . S
O100 C73 1.289 . S
C101 O93 1.258 . S
C101 O94 1.266 . S
Co102 O105 1.970 . S
Co102 N119 1.989 . S
Co102 O127 1.967 . S
Co102 O134 1.920 . S
Co103 O106 1.966 . S
Co103 N112 2.022 . S
Co103 N120 1.993 . S
Co103 O128 1.941 . S
C104 O105 1.258 . S
C104 O106 1.263 . S
O105 Co102 1.970 . S
O105 C104 1.258 . S
O106 Co103 1.966 . S
O106 C104 1.263 . S
C107 O108 1.235 . S
C107 O134 1.289 . S
O108 C107 1.235 . S
C109 C111 1.400 . S
C109 N112 1.351 . S
C109 C114 1.501 . S
C110 C111 1.387 . S
C110 N113 1.341 . S
C111 C109 1.400 . S
C111 C110 1.387 . S
N112 Co103 2.022 . S
N112 C109 1.351 . S
N112 N113 1.365 . S
N113 C110 1.341 . S
N113 N112 1.365 . S
N113 H133 0.862 . S
C114 C109 1.501 . S
C114 H115 0.961 . S
C114 H116 0.961 . S
C114 H117 0.960 . S
H115 C114 0.961 . S
H116 C114 0.961 . S
H117 C114 0.960 . S
C118 N119 1.342 . S
C118 C122 1.401 . S
C118 C123 1.499 . S
N119 Co102 1.989 . S
N119 C118 1.342 . S
N119 N120 1.388 . S
N120 Co103 1.993 . S
N120 N119 1.388 . S
N120 C121 1.346 . S
C121 N120 1.346 . S
C121 C122 1.396 . S
C121 C131 1.510 . S
C122 C118 1.401 . S
C122 C121 1.396 . S
C123 C118 1.499 . S
C123 H124 0.959 . S
C123 H125 0.960 . S
C123 H126 0.961 . S
H124 C123 0.959 . S
H125 C123 0.960 . S
H126 C123 0.961 . S
O127 Co102 1.967 . S
O127 C135 1.258 . S
O128 Co103 1.941 . S
O128 C135 1.266 . S
H129 C131 0.959 . S
H130 C131 0.961 . S
C131 C121 1.510 . S
C131 H129 0.959 . S
C131 H130 0.961 . S
C131 H132 0.960 . S
H132 C131 0.960 . S
H133 N113 0.862 . S
O134 Co102 1.920 . S
O134 C107 1.289 . S
C135 O127 1.258 . S
C135 O128 1.266 . S
Co136 O139 1.970 . S
Co136 N153 1.989 . S
Co136 O161 1.967 . S
Co136 O168 1.920 . S
Co137 O140 1.966 . S
Co137 N146 2.022 . S
Co137 N154 1.993 . S
Co137 O162 1.941 . S
C138 O139 1.258 . S
C138 O140 1.263 . S
O139 Co136 1.970 . S
O139 C138 1.258 . S
O140 Co137 1.966 . S
O140 C138 1.263 . S
C141 O142 1.235 . S
C141 O168 1.289 . S
O142 C141 1.235 . S
C143 C145 1.400 . S
C143 N146 1.351 . S
C143 C148 1.501 . S
C144 C145 1.387 . S
C144 N147 1.341 . S
C145 C143 1.400 . S
C145 C144 1.387 . S
N146 Co137 2.022 . S
N146 C143 1.351 . S
N146 N147 1.365 . S
N147 C144 1.341 . S
N147 N146 1.365 . S
N147 H167 0.862 . S
C148 C143 1.501 . S
C148 H149 0.961 . S
C148 H150 0.961 . S
C148 H151 0.960 . S
H149 C148 0.961 . S
H150 C148 0.961 . S
H151 C148 0.960 . S
C152 N153 1.342 . S
C152 C156 1.401 . S
C152 C157 1.499 . S
N153 Co136 1.989 . S
N153 C152 1.342 . S
N153 N154 1.388 . S
N154 Co137 1.993 . S
N154 N153 1.388 . S
N154 C155 1.346 . S
C155 N154 1.346 . S
C155 C156 1.396 . S
C155 C165 1.510 . S
C156 C152 1.401 . S
C156 C155 1.396 . S
C157 C152 1.499 . S
C157 H158 0.959 . S
C157 H159 0.960 . S
C157 H160 0.961 . S
H158 C157 0.959 . S
H159 C157 0.960 . S
H160 C157 0.961 . S
O161 Co136 1.967 . S
O161 C169 1.258 . S
O162 Co137 1.941 . S
O162 C169 1.266 . S
H163 C165 0.959 . S
H164 C165 0.961 . S
C165 C155 1.510 . S
C165 H163 0.959 . S
C165 H164 0.961 . S
C165 H166 0.960 . S
H166 C165 0.960 . S
H167 N147 0.862 . S
O168 Co136 1.920 . S
O168 C141 1.289 . S
C169 O161 1.258 . S
C169 O162 1.266 . S
Co170 O173 1.970 . S
Co170 N187 1.989 . S
Co170 O195 1.967 . S
Co170 O202 1.920 . S
Co171 O174 1.966 . S
Co171 N180 2.022 . S
Co171 N188 1.993 . S
Co171 O196 1.941 . S
C172 O173 1.258 . S
C172 O174 1.263 . S
O173 Co170 1.970 . S
O173 C172 1.258 . S
O174 Co171 1.966 . S
O174 C172 1.263 . S
C175 O176 1.235 . S
C175 O202 1.289 . S
O176 C175 1.235 . S
C177 C179 1.400 . S
C177 N180 1.351 . S
C177 C182 1.501 . S
C178 C179 1.387 . S
C178 N181 1.341 . S
C179 C177 1.400 . S
C179 C178 1.387 . S
N180 Co171 2.022 . S
N180 C177 1.351 . S
N180 N181 1.365 . S
N181 C178 1.341 . S
N181 N180 1.365 . S
N181 H201 0.862 . S
C182 C177 1.501 . S
C182 H183 0.961 . S
C182 H184 0.961 . S
C182 H185 0.960 . S
H183 C182 0.961 . S
H184 C182 0.961 . S
H185 C182 0.960 . S
C186 N187 1.342 . S
C186 C190 1.401 . S
C186 C191 1.499 . S
N187 Co170 1.989 . S
N187 C186 1.342 . S
N187 N188 1.388 . S
N188 Co171 1.993 . S
N188 N187 1.388 . S
N188 C189 1.346 . S
C189 N188 1.346 . S
C189 C190 1.396 . S
C189 C199 1.510 . S
C190 C186 1.401 . S
C190 C189 1.396 . S
C191 C186 1.499 . S
C191 H192 0.959 . S
C191 H193 0.960 . S
C191 H194 0.961 . S
H192 C191 0.959 . S
H193 C191 0.960 . S
H194 C191 0.961 . S
O195 Co170 1.967 . S
O195 C203 1.258 . S
O196 Co171 1.941 . S
O196 C203 1.266 . S
H197 C199 0.959 . S
H198 C199 0.961 . S
C199 C189 1.510 . S
C199 H197 0.959 . S
C199 H198 0.961 . S
C199 H200 0.960 . S
H200 C199 0.960 . S
H201 N181 0.862 . S
O202 Co170 1.920 . S
O202 C175 1.289 . S
C203 O195 1.258 . S
C203 O196 1.266 . S
Co204 O207 1.970 . S
Co204 N221 1.989 . S
Co204 O229 1.967 . S
Co204 O236 1.920 . S
Co205 O208 1.966 . S
Co205 N214 2.022 . S
Co205 N222 1.993 . S
Co205 O230 1.941 . S
C206 O207 1.258 . S
C206 O208 1.263 . S
O207 Co204 1.970 . S
O207 C206 1.258 . S
O208 Co205 1.966 . S
O208 C206 1.263 . S
C209 O210 1.235 . S
C209 O236 1.289 . S
O210 C209 1.235 . S
C211 C213 1.400 . S
C211 N214 1.351 . S
C211 C216 1.501 . S
C212 C213 1.387 . S
C212 N215 1.341 . S
C213 C211 1.400 . S
C213 C212 1.387 . S
N214 Co205 2.022 . S
N214 C211 1.351 . S
N214 N215 1.365 . S
N215 C212 1.341 . S
N215 N214 1.365 . S
N215 H235 0.862 . S
C216 C211 1.501 . S
C216 H217 0.961 . S
C216 H218 0.961 . S
C216 H219 0.960 . S
H217 C216 0.961 . S
H218 C216 0.961 . S
H219 C216 0.960 . S
C220 N221 1.342 . S
C220 C224 1.401 . S
C220 C225 1.499 . S
N221 Co204 1.989 . S
N221 C220 1.342 . S
N221 N222 1.388 . S
N222 Co205 1.993 . S
N222 N221 1.388 . S
N222 C223 1.346 . S
C223 N222 1.346 . S
C223 C224 1.396 . S
C223 C233 1.510 . S
C224 C220 1.401 . S
C224 C223 1.396 . S
C225 C220 1.499 . S
C225 H226 0.959 . S
C225 H227 0.960 . S
C225 H228 0.961 . S
H226 C225 0.959 . S
H227 C225 0.960 . S
H228 C225 0.961 . S
O229 Co204 1.967 . S
O229 C237 1.258 . S
O230 Co205 1.941 . S
O230 C237 1.266 . S
H231 C233 0.959 . S
H232 C233 0.961 . S
C233 C223 1.510 . S
C233 H231 0.959 . S
C233 H232 0.961 . S
C233 H234 0.960 . S
H234 C233 0.960 . S
H235 N215 0.862 . S
O236 Co204 1.920 . S
O236 C209 1.289 . S
C237 O229 1.258 . S
C237 O230 1.266 . S
Co238 O241 1.970 . S
Co238 N255 1.989 . S
Co238 O263 1.967 . S
Co238 O270 1.920 . S
Co239 O242 1.966 . S
Co239 N248 2.022 . S
Co239 N256 1.993 . S
Co239 O264 1.941 . S
C240 O241 1.258 . S
C240 O242 1.263 . S
O241 Co238 1.970 . S
O241 C240 1.258 . S
O242 Co239 1.966 . S
O242 C240 1.263 . S
C243 O244 1.235 . S
C243 O270 1.289 . S
O244 C243 1.235 . S
C245 C247 1.400 . S
C245 N248 1.351 . S
C245 C250 1.501 . S
C246 C247 1.387 . S
C246 N249 1.341 . S
C247 C245 1.400 . S
C247 C246 1.387 . S
N248 Co239 2.022 . S
N248 C245 1.351 . S
N248 N249 1.365 . S
N249 C246 1.341 . S
N249 N248 1.365 . S
N249 H269 0.862 . S
C250 C245 1.501 . S
C250 H251 0.961 . S
C250 H252 0.961 . S
C250 H253 0.960 . S
H251 C250 0.961 . S
H252 C250 0.961 . S
H253 C250 0.960 . S
C254 N255 1.342 . S
C254 C258 1.401 . S
C254 C259 1.499 . S
N255 Co238 1.989 . S
N255 C254 1.342 . S
N255 N256 1.388 . S
N256 Co239 1.993 . S
N256 N255 1.388 . S
N256 C257 1.346 . S
C257 N256 1.346 . S
C257 C258 1.396 . S
C257 C267 1.510 . S
C258 C254 1.401 . S
C258 C257 1.396 . S
C259 C254 1.499 . S
C259 H260 0.959 . S
C259 H261 0.960 . S
C259 H262 0.961 . S
H260 C259 0.959 . S
H261 C259 0.960 . S
H262 C259 0.961 . S
O263 Co238 1.967 . S
O263 C271 1.258 . S
O264 Co239 1.941 . S
O264 C271 1.266 . S
H265 C267 0.959 . S
H266 C267 0.961 . S
C267 C257 1.510 . S
C267 H265 0.959 . S
C267 H266 0.961 . S
C267 H268 0.960 . S
H268 C267 0.960 . S
H269 N249 0.862 . S
O270 Co238 1.920 . S
O270 C243 1.289 . S
C271 O263 1.258 . S
C271 O264 1.266 . S
Co272 O275 1.970 . S
Co272 N289 1.989 . S
Co272 O297 1.967 . S
Co272 O304 1.920 . S
Co273 O276 1.966 . S
Co273 N282 2.022 . S
Co273 N290 1.993 . S
Co273 O298 1.941 . S
C274 O275 1.258 . S
C274 O276 1.263 . S
O275 Co272 1.970 . S
O275 C274 1.258 . S
O276 Co273 1.966 . S
O276 C274 1.263 . S
C277 O278 1.235 . S
C277 O304 1.289 . S
O278 C277 1.235 . S
C279 C281 1.400 . S
C279 N282 1.351 . S
C279 C284 1.501 . S
C280 C281 1.387 . S
C280 N283 1.341 . S
C281 C279 1.400 . S
C281 C280 1.387 . S
N282 Co273 2.022 . S
N282 C279 1.351 . S
N282 N283 1.365 . S
N283 C280 1.341 . S
N283 N282 1.365 . S
N283 H303 0.862 . S
C284 C279 1.501 . S
C284 H285 0.961 . S
C284 H286 0.961 . S
C284 H287 0.960 . S
H285 C284 0.961 . S
H286 C284 0.961 . S
H287 C284 0.960 . S
C288 N289 1.342 . S
C288 C292 1.401 . S
C288 C293 1.499 . S
N289 Co272 1.989 . S
N289 C288 1.342 . S
N289 N290 1.388 . S
N290 Co273 1.993 . S
N290 N289 1.388 . S
N290 C291 1.346 . S
C291 N290 1.346 . S
C291 C292 1.396 . S
C291 C301 1.510 . S
C292 C288 1.401 . S
C292 C291 1.396 . S
C293 C288 1.499 . S
C293 H294 0.959 . S
C293 H295 0.960 . S
C293 H296 0.961 . S
H294 C293 0.959 . S
H295 C293 0.960 . S
H296 C293 0.961 . S
O297 Co272 1.967 . S
O297 C305 1.258 . S
O298 Co273 1.941 . S
O298 C305 1.266 . S
H299 C301 0.959 . S
H300 C301 0.961 . S
C301 C291 1.510 . S
C301 H299 0.959 . S
C301 H300 0.961 . S
C301 H302 0.960 . S
H302 C301 0.960 . S
H303 N283 0.862 . S
O304 Co272 1.920 . S
O304 C277 1.289 . S
C305 O297 1.258 . S
C305 O298 1.266 . S
Co306 O309 1.970 . S
Co306 N323 1.989 . S
Co306 O331 1.967 . S
Co306 O338 1.920 . S
Co307 O310 1.966 . S
Co307 N316 2.022 . S
Co307 N324 1.993 . S
Co307 O332 1.941 . S
C308 O309 1.258 . S
C308 O310 1.263 . S
O309 Co306 1.970 . S
O309 C308 1.258 . S
O310 Co307 1.966 . S
O310 C308 1.263 . S
C311 O312 1.235 . S
C311 O338 1.289 . S
O312 C311 1.235 . S
C313 C315 1.400 . S
C313 N316 1.351 . S
C313 C318 1.501 . S
C314 C315 1.387 . S
C314 N317 1.341 . S
C315 C313 1.400 . S
C315 C314 1.387 . S
N316 Co307 2.022 . S
N316 C313 1.351 . S
N316 N317 1.365 . S
N317 C314 1.341 . S
N317 N316 1.365 . S
N317 H337 0.862 . S
C318 C313 1.501 . S
C318 H319 0.961 . S
C318 H320 0.961 . S
C318 H321 0.960 . S
H319 C318 0.961 . S
H320 C318 0.961 . S
H321 C318 0.960 . S
C322 N323 1.342 . S
C322 C326 1.401 . S
C322 C327 1.499 . S
N323 Co306 1.989 . S
N323 C322 1.342 . S
N323 N324 1.388 . S
N324 Co307 1.993 . S
N324 N323 1.388 . S
N324 C325 1.346 . S
C325 N324 1.346 . S
C325 C326 1.396 . S
C325 C335 1.510 . S
C326 C322 1.401 . S
C326 C325 1.396 . S
C327 C322 1.499 . S
C327 H328 0.959 . S
C327 H329 0.960 . S
C327 H330 0.961 . S
H328 C327 0.959 . S
H329 C327 0.960 . S
H330 C327 0.961 . S
O331 Co306 1.967 . S
O331 C339 1.258 . S
O332 Co307 1.941 . S
O332 C339 1.266 . S
H333 C335 0.959 . S
H334 C335 0.961 . S
C335 C325 1.510 . S
C335 H333 0.959 . S
C335 H334 0.961 . S
C335 H336 0.960 . S
H336 C335 0.960 . S
H337 N317 0.862 . S
O338 Co306 1.920 . S
O338 C311 1.289 . S
C339 O331 1.258 . S
C339 O332 1.266 . S
Co340 O343 1.970 . S
Co340 N357 1.989 . S
Co340 O365 1.967 . S
Co340 O372 1.920 . S
Co341 O344 1.966 . S
Co341 N350 2.022 . S
Co341 N358 1.993 . S
Co341 O366 1.941 . S
C342 O343 1.258 . S
C342 O344 1.263 . S
O343 Co340 1.970 . S
O343 C342 1.258 . S
O344 Co341 1.966 . S
O344 C342 1.263 . S
C345 O346 1.235 . S
C345 O372 1.289 . S
O346 C345 1.235 . S
C347 C349 1.400 . S
C347 N350 1.351 . S
C347 C352 1.501 . S
C348 C349 1.387 . S
C348 N351 1.341 . S
C349 C347 1.400 . S
C349 C348 1.387 . S
N350 Co341 2.022 . S
N350 C347 1.351 . S
N350 N351 1.365 . S
N351 C348 1.341 . S
N351 N350 1.365 . S
N351 H371 0.862 . S
C352 C347 1.501 . S
C352 H353 0.961 . S
C352 H354 0.961 . S
C352 H355 0.960 . S
H353 C352 0.961 . S
H354 C352 0.961 . S
H355 C352 0.960 . S
C356 N357 1.342 . S
C356 C360 1.401 . S
C356 C361 1.499 . S
N357 Co340 1.989 . S
N357 C356 1.342 . S
N357 N358 1.388 . S
N358 Co341 1.993 . S
N358 N357 1.388 . S
N358 C359 1.346 . S
C359 N358 1.346 . S
C359 C360 1.396 . S
C359 C369 1.510 . S
C360 C356 1.401 . S
C360 C359 1.396 . S
C361 C356 1.499 . S
C361 H362 0.959 . S
C361 H363 0.960 . S
C361 H364 0.961 . S
H362 C361 0.959 . S
H363 C361 0.960 . S
H364 C361 0.961 . S
O365 Co340 1.967 . S
O365 C373 1.258 . S
O366 Co341 1.941 . S
O366 C373 1.266 . S
H367 C369 0.959 . S
H368 C369 0.961 . S
C369 C359 1.510 . S
C369 H367 0.959 . S
C369 H368 0.961 . S
C369 H370 0.960 . S
H370 C369 0.960 . S
H371 N351 0.862 . S
O372 Co340 1.920 . S
O372 C345 1.289 . S
C373 O365 1.258 . S
C373 O366 1.266 . S
Co374 O377 1.970 . S
Co374 N391 1.989 . S
Co374 O399 1.967 . S
Co374 O406 1.920 . S
Co375 O378 1.966 . S
Co375 N384 2.022 . S
Co375 N392 1.993 . S
Co375 O400 1.941 . S
C376 O377 1.258 . S
C376 O378 1.263 . S
O377 Co374 1.970 . S
O377 C376 1.258 . S
O378 Co375 1.966 . S
O378 C376 1.263 . S
C379 O380 1.235 . S
C379 O406 1.289 . S
O380 C379 1.235 . S
C381 C383 1.400 . S
C381 N384 1.351 . S
C381 C386 1.501 . S
C382 C383 1.387 . S
C382 N385 1.341 . S
C383 C381 1.400 . S
C383 C382 1.387 . S
N384 Co375 2.022 . S
N384 C381 1.351 . S
N384 N385 1.365 . S
N385 C382 1.341 . S
N385 N384 1.365 . S
N385 H405 0.862 . S
C386 C381 1.501 . S
C386 H387 0.961 . S
C386 H388 0.961 . S
C386 H389 0.960 . S
H387 C386 0.961 . S
H388 C386 0.961 . S
H389 C386 0.960 . S
C390 N391 1.342 . S
C390 C394 1.401 . S
C390 C395 1.499 . S
N391 Co374 1.989 . S
N391 C390 1.342 . S
N391 N392 1.388 . S
N392 Co375 1.993 . S
N392 N391 1.388 . S
N392 C393 1.346 . S
C393 N392 1.346 . S
C393 C394 1.396 . S
C393 C403 1.510 . S
C394 C390 1.401 . S
C394 C393 1.396 . S
C395 C390 1.499 . S
C395 H396 0.959 . S
C395 H397 0.960 . S
C395 H398 0.961 . S
H396 C395 0.959 . S
H397 C395 0.960 . S
H398 C395 0.961 . S
O399 Co374 1.967 . S
O399 C407 1.258 . S
O400 Co375 1.941 . S
O400 C407 1.266 . S
H401 C403 0.959 . S
H402 C403 0.961 . S
C403 C393 1.510 . S
C403 H401 0.959 . S
C403 H402 0.961 . S
C403 H404 0.960 . S
H404 C403 0.960 . S
H405 N385 0.862 . S
O406 Co374 1.920 . S
O406 C379 1.289 . S
C407 O399 1.258 . S
C407 O400 1.266 . S
Co408 O411 1.970 . S
Co408 N425 1.989 . S
Co408 O433 1.967 . S
Co408 O440 1.920 . S
Co409 O412 1.966 . S
Co409 N418 2.022 . S
Co409 N426 1.993 . S
Co409 O434 1.941 . S
C410 O411 1.258 . S
C410 O412 1.263 . S
O411 Co408 1.970 . S
O411 C410 1.258 . S
O412 Co409 1.966 . S
O412 C410 1.263 . S
C413 O414 1.235 . S
C413 O440 1.289 . S
O414 C413 1.235 . S
C415 C417 1.400 . S
C415 N418 1.351 . S
C415 C420 1.501 . S
C416 C417 1.387 . S
C416 N419 1.341 . S
C417 C415 1.400 . S
C417 C416 1.387 . S
N418 Co409 2.022 . S
N418 C415 1.351 . S
N418 N419 1.365 . S
N419 C416 1.341 . S
N419 N418 1.365 . S
N419 H439 0.862 . S
C420 C415 1.501 . S
C420 H421 0.961 . S
C420 H422 0.961 . S
C420 H423 0.960 . S
H421 C420 0.961 . S
H422 C420 0.961 . S
H423 C420 0.960 . S
C424 N425 1.342 . S
C424 C428 1.401 . S
C424 C429 1.499 . S
N425 Co408 1.989 . S
N425 C424 1.342 . S
N425 N426 1.388 . S
N426 Co409 1.993 . S
N426 N425 1.388 . S
N426 C427 1.346 . S
C427 N426 1.346 . S
C427 C428 1.396 . S
C427 C437 1.510 . S
C428 C424 1.401 . S
C428 C427 1.396 . S
C429 C424 1.499 . S
C429 H430 0.959 . S
C429 H431 0.960 . S
C429 H432 0.961 . S
H430 C429 0.959 . S
H431 C429 0.960 . S
H432 C429 0.961 . S
O433 Co408 1.967 . S
O433 C441 1.258 . S
O434 Co409 1.941 . S
O434 C441 1.266 . S
H435 C437 0.959 . S
H436 C437 0.961 . S
C437 C427 1.510 . S
C437 H435 0.959 . S
C437 H436 0.961 . S
C437 H438 0.960 . S
H438 C437 0.960 . S
H439 N419 0.862 . S
O440 Co408 1.920 . S
O440 C413 1.289 . S
C441 O433 1.258 . S
C441 O434 1.266 . S
Co442 O445 1.970 . S
Co442 N459 1.989 . S
Co442 O467 1.967 . S
Co442 O474 1.920 . S
Co443 O446 1.966 . S
Co443 N452 2.022 . S
Co443 N460 1.993 . S
Co443 O468 1.941 . S
C444 O445 1.258 . S
C444 O446 1.263 . S
O445 Co442 1.970 . S
O445 C444 1.258 . S
O446 Co443 1.966 . S
O446 C444 1.263 . S
C447 O448 1.235 . S
C447 O474 1.289 . S
O448 C447 1.235 . S
C449 C451 1.400 . S
C449 N452 1.351 . S
C449 C454 1.501 . S
C450 C451 1.387 . S
C450 N453 1.341 . S
C451 C449 1.400 . S
C451 C450 1.387 . S
N452 Co443 2.022 . S
N452 C449 1.351 . S
N452 N453 1.365 . S
N453 C450 1.341 . S
N453 N452 1.365 . S
N453 H473 0.862 . S
C454 C449 1.501 . S
C454 H455 0.961 . S
C454 H456 0.961 . S
C454 H457 0.960 . S
H455 C454 0.961 . S
H456 C454 0.961 . S
H457 C454 0.960 . S
C458 N459 1.342 . S
C458 C462 1.401 . S
C458 C463 1.499 . S
N459 Co442 1.989 . S
N459 C458 1.342 . S
N459 N460 1.388 . S
N460 Co443 1.993 . S
N460 N459 1.388 . S
N460 C461 1.346 . S
C461 N460 1.346 . S
C461 C462 1.396 . S
C461 C471 1.510 . S
C462 C458 1.401 . S
C462 C461 1.396 . S
C463 C458 1.499 . S
C463 H464 0.959 . S
C463 H465 0.960 . S
C463 H466 0.961 . S
H464 C463 0.959 . S
H465 C463 0.960 . S
H466 C463 0.961 . S
O467 Co442 1.967 . S
O467 C475 1.258 . S
O468 Co443 1.941 . S
O468 C475 1.266 . S
H469 C471 0.959 . S
H470 C471 0.961 . S
C471 C461 1.510 . S
C471 H469 0.959 . S
C471 H470 0.961 . S
C471 H472 0.960 . S
H472 C471 0.960 . S
H473 N453 0.862 . S
O474 Co442 1.920 . S
O474 C447 1.289 . S
C475 O467 1.258 . S
C475 O468 1.266 . S
Co476 O479 1.970 . S
Co476 N493 1.989 . S
Co476 O501 1.967 . S
Co476 O508 1.920 . S
Co477 O480 1.966 . S
Co477 N486 2.022 . S
Co477 N494 1.993 . S
Co477 O502 1.941 . S
C478 O479 1.258 . S
C478 O480 1.263 . S
O479 Co476 1.970 . S
O479 C478 1.258 . S
O480 Co477 1.966 . S
O480 C478 1.263 . S
C481 O482 1.235 . S
C481 O508 1.289 . S
O482 C481 1.235 . S
C483 C485 1.400 . S
C483 N486 1.351 . S
C483 C488 1.501 . S
C484 C485 1.387 . S
C484 N487 1.341 . S
C485 C483 1.400 . S
C485 C484 1.387 . S
N486 Co477 2.022 . S
N486 C483 1.351 . S
N486 N487 1.365 . S
N487 C484 1.341 . S
N487 N486 1.365 . S
N487 H507 0.862 . S
C488 C483 1.501 . S
C488 H489 0.961 . S
C488 H490 0.961 . S
C488 H491 0.960 . S
H489 C488 0.961 . S
H490 C488 0.961 . S
H491 C488 0.960 . S
C492 N493 1.342 . S
C492 C496 1.401 . S
C492 C497 1.499 . S
N493 Co476 1.989 . S
N493 C492 1.342 . S
N493 N494 1.388 . S
N494 Co477 1.993 . S
N494 N493 1.388 . S
N494 C495 1.346 . S
C495 N494 1.346 . S
C495 C496 1.396 . S
C495 C505 1.510 . S
C496 C492 1.401 . S
C496 C495 1.396 . S
C497 C492 1.499 . S
C497 H498 0.959 . S
C497 H499 0.960 . S
C497 H500 0.961 . S
H498 C497 0.959 . S
H499 C497 0.960 . S
H500 C497 0.961 . S
O501 Co476 1.967 . S
O501 C509 1.258 . S
O502 Co477 1.941 . S
O502 C509 1.266 . S
H503 C505 0.959 . S
H504 C505 0.961 . S
C505 C495 1.510 . S
C505 H503 0.959 . S
C505 H504 0.961 . S
C505 H506 0.960 . S
H506 C505 0.960 . S
H507 N487 0.862 . S
O508 Co476 1.920 . S
O508 C481 1.289 . S
C509 O501 1.258 . S
C509 O502 1.266 . S
Co510 O513 1.970 . S
Co510 N527 1.989 . S
Co510 O535 1.967 . S
Co510 O542 1.920 . S
Co511 O514 1.966 . S
Co511 N520 2.022 . S
Co511 N528 1.993 . S
Co511 O536 1.941 . S
C512 O513 1.258 . S
C512 O514 1.263 . S
O513 Co510 1.970 . S
O513 C512 1.258 . S
O514 Co511 1.966 . S
O514 C512 1.263 . S
C515 O516 1.235 . S
C515 O542 1.289 . S
O516 C515 1.235 . S
C517 C519 1.400 . S
C517 N520 1.351 . S
C517 C522 1.501 . S
C518 C519 1.387 . S
C518 N521 1.341 . S
C519 C517 1.400 . S
C519 C518 1.387 . S
N520 Co511 2.022 . S
N520 C517 1.351 . S
N520 N521 1.365 . S
N521 C518 1.341 . S
N521 N520 1.365 . S
N521 H541 0.862 . S
C522 C517 1.501 . S
C522 H523 0.961 . S
C522 H524 0.961 . S
C522 H525 0.960 . S
H523 C522 0.961 . S
H524 C522 0.961 . S
H525 C522 0.960 . S
C526 N527 1.342 . S
C526 C530 1.401 . S
C526 C531 1.499 . S
N527 Co510 1.989 . S
N527 C526 1.342 . S
N527 N528 1.388 . S
N528 Co511 1.993 . S
N528 N527 1.388 . S
N528 C529 1.346 . S
C529 N528 1.346 . S
C529 C530 1.396 . S
C529 C539 1.510 . S
C530 C526 1.401 . S
C530 C529 1.396 . S
C531 C526 1.499 . S
C531 H532 0.959 . S
C531 H533 0.960 . S
C531 H534 0.961 . S
H532 C531 0.959 . S
H533 C531 0.960 . S
H534 C531 0.961 . S
O535 Co510 1.967 . S
O535 C543 1.258 . S
O536 Co511 1.941 . S
O536 C543 1.266 . S
H537 C539 0.959 . S
H538 C539 0.961 . S
C539 C529 1.510 . S
C539 H537 0.959 . S
C539 H538 0.961 . S
C539 H540 0.960 . S
H540 C539 0.960 . S
H541 N521 0.862 . S
O542 Co510 1.920 . S
O542 C515 1.289 . S
C543 O535 1.258 . S
C543 O536 1.266 . S
H544 C552 0.929 . S
H545 C554 0.930 . S
H546 C556 0.930 . S
H547 C559 0.929 . S
H548 C562 0.930 . S
H549 C564 0.960 . S
H550 C564 0.960 . S
H551 C564 0.960 . S
C552 H544 0.929 . S
C552 C553 1.377 . S
C552 C554 1.384 . S
C553 C552 1.377 . S
C553 C559 1.390 . S
C554 H545 0.930 . S
C554 C552 1.384 . S
C554 C555 1.372 . S
C555 C554 1.372 . S
C555 C556 1.400 . S
C555 C560 1.490 . S
C556 H546 0.930 . S
C556 C555 1.400 . S
C556 C559 1.386 . S
H557 C573 0.930 . S
H558 C574 0.931 . S
C559 H547 0.929 . S
C559 C553 1.390 . S
C559 C556 1.386 . S
C560 C555 1.490 . S
C560 C562 1.395 . S
C560 C563 1.403 . S
H561 C567 0.930 . S
C562 H548 0.930 . S
C562 C560 1.395 . S
C562 C565 1.403 . S
C563 C560 1.403 . S
C563 C564 1.524 . S
C563 C567 1.400 . S
C564 H549 0.960 . S
C564 H550 0.960 . S
C564 H551 0.960 . S
C564 C563 1.524 . S
C565 C562 1.403 . S
C565 C566 1.392 . S
C565 C569 1.495 . S
C566 C565 1.392 . S
C566 C567 1.385 . S
C566 C568 1.478 . S
C567 H561 0.930 . S
C567 C563 1.400 . S
C567 C566 1.385 . S
C568 C566 1.478 . S
C568 C570 1.381 . S
C568 C574 1.383 . S
C569 C565 1.495 . S
C569 H575 0.959 . S
C569 H576 0.961 . S
C569 H577 0.960 . S
C570 C568 1.381 . S
C570 C571 1.394 . S
C570 H578 0.930 . S
C571 C570 1.394 . S
C571 C572 1.383 . S
C571 H579 0.929 . S
C572 C571 1.383 . S
C572 C573 1.377 . S
C573 H557 0.930 . S
C573 C572 1.377 . S
C573 C574 1.379 . S
C574 H558 0.931 . S
C574 C568 1.383 . S
C574 C573 1.379 . S
H575 C569 0.959 . S
H576 C569 0.961 . S
H577 C569 0.960 . S
H578 C570 0.930 . S
H579 C571 0.929 . S
H580 C588 0.929 . S
H581 C590 0.930 . S
H582 C592 0.930 . S
H583 C595 0.929 . S
H584 C598 0.930 . S
H585 C600 0.960 . S
H586 C600 0.960 . S
H587 C600 0.960 . S
C588 H580 0.929 . S
C588 C589 1.377 . S
C588 C590 1.384 . S
C589 C588 1.377 . S
C589 C595 1.390 . S
C590 H581 0.930 . S
C590 C588 1.384 . S
C590 C591 1.372 . S
C591 C590 1.372 . S
C591 C592 1.400 . S
C591 C596 1.490 . S
C592 H582 0.930 . S
C592 C591 1.400 . S
C592 C595 1.386 . S
H593 C609 0.930 . S
H594 C610 0.931 . S
C595 H583 0.929 . S
C595 C589 1.390 . S
C595 C592 1.386 . S
C596 C591 1.490 . S
C596 C598 1.395 . S
C596 C599 1.403 . S
H597 C603 0.930 . S
C598 H584 0.930 . S
C598 C596 1.395 . S
C598 C601 1.403 . S
C599 C596 1.403 . S
C599 C600 1.524 . S
C599 C603 1.400 . S
C600 H585 0.960 . S
C600 H586 0.960 . S
C600 H587 0.960 . S
C600 C599 1.524 . S
C601 C598 1.403 . S
C601 C602 1.392 . S
C601 C605 1.495 . S
C602 C601 1.392 . S
C602 C603 1.385 . S
C602 C604 1.478 . S
C603 H597 0.930 . S
C603 C599 1.400 . S
C603 C602 1.385 . S
C604 C602 1.478 . S
C604 C606 1.381 . S
C604 C610 1.383 . S
C605 C601 1.495 . S
C605 H611 0.959 . S
C605 H612 0.961 . S
C605 H613 0.960 . S
C606 C604 1.381 . S
C606 C607 1.394 . S
C606 H614 0.930 . S
C607 C606 1.394 . S
C607 C608 1.383 . S
C607 H615 0.929 . S
C608 C607 1.383 . S
C608 C609 1.377 . S
C609 H593 0.930 . S
C609 C608 1.377 . S
C609 C610 1.379 . S
C610 H594 0.931 . S
C610 C604 1.383 . S
C610 C609 1.379 . S
H611 C605 0.959 . S
H612 C605 0.961 . S
H613 C605 0.960 . S
H614 C606 0.930 . S
H615 C607 0.929 . S
H616 C624 0.929 . S
H617 C626 0.930 . S
H618 C628 0.930 . S
H619 C631 0.929 . S
H620 C634 0.930 . S
H621 C636 0.960 . S
H622 C636 0.960 . S
H623 C636 0.960 . S
C624 H616 0.929 . S
C624 C625 1.377 . S
C624 C626 1.384 . S
C625 C624 1.377 . S
C625 C631 1.390 . S
C626 H617 0.930 . S
C626 C624 1.384 . S
C626 C627 1.372 . S
C627 C626 1.372 . S
C627 C628 1.400 . S
C627 C632 1.490 . S
C628 H618 0.930 . S
C628 C627 1.400 . S
C628 C631 1.386 . S
H629 C645 0.930 . S
H630 C646 0.931 . S
C631 H619 0.929 . S
C631 C625 1.390 . S
C631 C628 1.386 . S
C632 C627 1.490 . S
C632 C634 1.395 . S
C632 C635 1.403 . S
H633 C639 0.930 . S
C634 H620 0.930 . S
C634 C632 1.395 . S
C634 C637 1.403 . S
C635 C632 1.403 . S
C635 C636 1.524 . S
C635 C639 1.400 . S
C636 H621 0.960 . S
C636 H622 0.960 . S
C636 H623 0.960 . S
C636 C635 1.524 . S
C637 C634 1.403 . S
C637 C638 1.392 . S
C637 C641 1.495 . S
C638 C637 1.392 . S
C638 C639 1.385 . S
C638 C640 1.478 . S
C639 H633 0.930 . S
C639 C635 1.400 . S
C639 C638 1.385 . S
C640 C638 1.478 . S
C640 C642 1.381 . S
C640 C646 1.383 . S
C641 C637 1.495 . S
C641 H647 0.959 . S
C641 H648 0.961 . S
C641 H649 0.960 . S
C642 C640 1.381 . S
C642 C643 1.394 . S
C642 H650 0.930 . S
C643 C642 1.394 . S
C643 C644 1.383 . S
C643 H651 0.929 . S
C644 C643 1.383 . S
C644 C645 1.377 . S
C645 H629 0.930 . S
C645 C644 1.377 . S
C645 C646 1.379 . S
C646 H630 0.931 . S
C646 C640 1.383 . S
C646 C645 1.379 . S
H647 C641 0.959 . S
H648 C641 0.961 . S
H649 C641 0.960 . S
H650 C642 0.930 . S
H651 C643 0.929 . S
H652 C660 0.929 . S
H653 C662 0.930 . S
H654 C664 0.930 . S
H655 C667 0.929 . S
H656 C670 0.930 . S
H657 C672 0.960 . S
H658 C672 0.960 . S
H659 C672 0.960 . S
C660 H652 0.929 . S
C660 C661 1.377 . S
C660 C662 1.384 . S
C661 C660 1.377 . S
C661 C667 1.390 . S
C662 H653 0.930 . S
C662 C660 1.384 . S
C662 C663 1.372 . S
C663 C662 1.372 . S
C663 C664 1.400 . S
C663 C668 1.490 . S
C664 H654 0.930 . S
C664 C663 1.400 . S
C664 C667 1.386 . S
H665 C681 0.930 . S
H666 C682 0.931 . S
C667 H655 0.929 . S
C667 C661 1.390 . S
C667 C664 1.386 . S
C668 C663 1.490 . S
C668 C670 1.395 . S
C668 C671 1.403 . S
H669 C675 0.930 . S
C670 H656 0.930 . S
C670 C668 1.395 . S
C670 C673 1.403 . S
C671 C668 1.403 . S
C671 C672 1.524 . S
C671 C675 1.400 . S
C672 H657 0.960 . S
C672 H658 0.960 . S
C672 H659 0.960 . S
C672 C671 1.524 . S
C673 C670 1.403 . S
C673 C674 1.392 . S
C673 C677 1.495 . S
C674 C673 1.392 . S
C674 C675 1.385 . S
C674 C676 1.478 . S
C675 H669 0.930 . S
C675 C671 1.400 . S
C675 C674 1.385 . S
C676 C674 1.478 . S
C676 C678 1.381 . S
C676 C682 1.383 . S
C677 C673 1.495 . S
C677 H683 0.959 . S
C677 H684 0.961 . S
C677 H685 0.960 . S
C678 C676 1.381 . S
C678 C679 1.394 . S
C678 H686 0.930 . S
C679 C678 1.394 . S
C679 C680 1.383 . S
C679 H687 0.929 . S
C680 C679 1.383 . S
C680 C681 1.377 . S
C681 H665 0.930 . S
C681 C680 1.377 . S
C681 C682 1.379 . S
C682 H666 0.931 . S
C682 C676 1.383 . S
C682 C681 1.379 . S
H683 C677 0.959 . S
H684 C677 0.961 . S
H685 C677 0.960 . S
H686 C678 0.930 . S
H687 C679 0.929 . S
H688 C696 0.929 . S
H689 C698 0.930 . S
H690 C700 0.930 . S
H691 C703 0.929 . S
H692 C706 0.930 . S
H693 C708 0.960 . S
H694 C708 0.960 . S
H695 C708 0.960 . S
C696 H688 0.929 . S
C696 C697 1.377 . S
C696 C698 1.384 . S
C697 C696 1.377 . S
C697 C703 1.390 . S
C698 H689 0.930 . S
C698 C696 1.384 . S
C698 C699 1.372 . S
C699 C698 1.372 . S
C699 C700 1.400 . S
C699 C704 1.490 . S
C700 H690 0.930 . S
C700 C699 1.400 . S
C700 C703 1.386 . S
H701 C717 0.930 . S
H702 C718 0.931 . S
C703 H691 0.929 . S
C703 C697 1.390 . S
C703 C700 1.386 . S
C704 C699 1.490 . S
C704 C706 1.395 . S
C704 C707 1.403 . S
H705 C711 0.930 . S
C706 H692 0.930 . S
C706 C704 1.395 . S
C706 C709 1.403 . S
C707 C704 1.403 . S
C707 C708 1.524 . S
C707 C711 1.400 . S
C708 H693 0.960 . S
C708 H694 0.960 . S
C708 H695 0.960 . S
C708 C707 1.524 . S
C709 C706 1.403 . S
C709 C710 1.392 . S
C709 C713 1.495 . S
C710 C709 1.392 . S
C710 C711 1.385 . S
C710 C712 1.478 . S
C711 H705 0.930 . S
C711 C707 1.400 . S
C711 C710 1.385 . S
C712 C710 1.478 . S
C712 C714 1.381 . S
C712 C718 1.383 . S
C713 C709 1.495 . S
C713 H719 0.959 . S
C713 H720 0.961 . S
C713 H721 0.960 . S
C714 C712 1.381 . S
C714 C715 1.394 . S
C714 H722 0.930 . S
C715 C714 1.394 . S
C715 C716 1.383 . S
C715 H723 0.929 . S
C716 C715 1.383 . S
C716 C717 1.377 . S
C717 H701 0.930 . S
C717 C716 1.377 . S
C717 C718 1.379 . S
C718 H702 0.931 . S
C718 C712 1.383 . S
C718 C717 1.379 . S
H719 C713 0.959 . S
H720 C713 0.961 . S
H721 C713 0.960 . S
H722 C714 0.930 . S
H723 C715 0.929 . S
H724 C732 0.929 . S
H725 C734 0.930 . S
H726 C736 0.930 . S
H727 C739 0.929 . S
H728 C742 0.930 . S
H729 C744 0.960 . S
H730 C744 0.960 . S
H731 C744 0.960 . S
C732 H724 0.929 . S
C732 C733 1.377 . S
C732 C734 1.384 . S
C733 C732 1.377 . S
C733 C739 1.390 . S
C734 H725 0.930 . S
C734 C732 1.384 . S
C734 C735 1.372 . S
C735 C734 1.372 . S
C735 C736 1.400 . S
C735 C740 1.490 . S
C736 H726 0.930 . S
C736 C735 1.400 . S
C736 C739 1.386 . S
H737 C753 0.930 . S
H738 C754 0.931 . S
C739 H727 0.929 . S
C739 C733 1.390 . S
C739 C736 1.386 . S
C740 C735 1.490 . S
C740 C742 1.395 . S
C740 C743 1.403 . S
H741 C747 0.930 . S
C742 H728 0.930 . S
C742 C740 1.395 . S
C742 C745 1.403 . S
C743 C740 1.403 . S
C743 C744 1.524 . S
C743 C747 1.400 . S
C744 H729 0.960 . S
C744 H730 0.960 . S
C744 H731 0.960 . S
C744 C743 1.524 . S
C745 C742 1.403 . S
C745 C746 1.392 . S
C745 C749 1.495 . S
C746 C745 1.392 . S
C746 C747 1.385 . S
C746 C748 1.478 . S
C747 H741 0.930 . S
C747 C743 1.400 . S
C747 C746 1.385 . S
C748 C746 1.478 . S
C748 C750 1.381 . S
C748 C754 1.383 . S
C749 C745 1.495 . S
C749 H755 0.959 . S
C749 H756 0.961 . S
C749 H757 0.960 . S
C750 C748 1.381 . S
C750 C751 1.394 . S
C750 H758 0.930 . S
C751 C750 1.394 . S
C751 C752 1.383 . S
C751 H759 0.929 . S
C752 C751 1.383 . S
C752 C753 1.377 . S
C753 H737 0.930 . S
C753 C752 1.377 . S
C753 C754 1.379 . S
C754 H738 0.931 . S
C754 C748 1.383 . S
C754 C753 1.379 . S
H755 C749 0.959 . S
H756 C749 0.961 . S
H757 C749 0.960 . S
H758 C750 0.930 . S
H759 C751 0.929 . S
H760 C768 0.929 . S
H761 C770 0.930 . S
H762 C772 0.930 . S
H763 C775 0.929 . S
H764 C778 0.930 . S
H765 C780 0.960 . S
H766 C780 0.960 . S
H767 C780 0.960 . S
C768 H760 0.929 . S
C768 C769 1.377 . S
C768 C770 1.384 . S
C769 C768 1.377 . S
C769 C775 1.390 . S
C770 H761 0.930 . S
C770 C768 1.384 . S
C770 C771 1.372 . S
C771 C770 1.372 . S
C771 C772 1.400 . S
C771 C776 1.490 . S
C772 H762 0.930 . S
C772 C771 1.400 . S
C772 C775 1.386 . S
H773 C789 0.930 . S
H774 C790 0.931 . S
C775 H763 0.929 . S
C775 C769 1.390 . S
C775 C772 1.386 . S
C776 C771 1.490 . S
C776 C778 1.395 . S
C776 C779 1.403 . S
H777 C783 0.930 . S
C778 H764 0.930 . S
C778 C776 1.395 . S
C778 C781 1.403 . S
C779 C776 1.403 . S
C779 C780 1.524 . S
C779 C783 1.400 . S
C780 H765 0.960 . S
C780 H766 0.960 . S
C780 H767 0.960 . S
C780 C779 1.524 . S
C781 C778 1.403 . S
C781 C782 1.392 . S
C781 C785 1.495 . S
C782 C781 1.392 . S
C782 C783 1.385 . S
C782 C784 1.478 . S
C783 H777 0.930 . S
C783 C779 1.400 . S
C783 C782 1.385 . S
C784 C782 1.478 . S
C784 C786 1.381 . S
C784 C790 1.383 . S
C785 C781 1.495 . S
C785 H791 0.959 . S
C785 H792 0.961 . S
C785 H793 0.960 . S
C786 C784 1.381 . S
C786 C787 1.394 . S
C786 H794 0.930 . S
C787 C786 1.394 . S
C787 C788 1.383 . S
C787 H795 0.929 . S
C788 C787 1.383 . S
C788 C789 1.377 . S
C789 H773 0.930 . S
C789 C788 1.377 . S
C789 C790 1.379 . S
C790 H774 0.931 . S
C790 C784 1.383 . S
C790 C789 1.379 . S
H791 C785 0.959 . S
H792 C785 0.961 . S
H793 C785 0.960 . S
H794 C786 0.930 . S
H795 C787 0.929 . S
H796 C804 0.929 . S
H797 C806 0.930 . S
H798 C808 0.930 . S
H799 C811 0.929 . S
H800 C814 0.930 . S
H801 C816 0.960 . S
H802 C816 0.960 . S
H803 C816 0.960 . S
C804 H796 0.929 . S
C804 C805 1.377 . S
C804 C806 1.384 . S
C805 C804 1.377 . S
C805 C811 1.390 . S
C806 H797 0.930 . S
C806 C804 1.384 . S
C806 C807 1.372 . S
C807 C806 1.372 . S
C807 C808 1.400 . S
C807 C812 1.490 . S
C808 H798 0.930 . S
C808 C807 1.400 . S
C808 C811 1.386 . S
H809 C825 0.930 . S
H810 C826 0.931 . S
C811 H799 0.929 . S
C811 C805 1.390 . S
C811 C808 1.386 . S
C812 C807 1.490 . S
C812 C814 1.395 . S
C812 C815 1.403 . S
H813 C819 0.930 . S
C814 H800 0.930 . S
C814 C812 1.395 . S
C814 C817 1.403 . S
C815 C812 1.403 . S
C815 C816 1.524 . S
C815 C819 1.400 . S
C816 H801 0.960 . S
C816 H802 0.960 . S
C816 H803 0.960 . S
C816 C815 1.524 . S
C817 C814 1.403 . S
C817 C818 1.392 . S
C817 C821 1.495 . S
C818 C817 1.392 . S
C818 C819 1.385 . S
C818 C820 1.478 . S
C819 H813 0.930 . S
C819 C815 1.400 . S
C819 C818 1.385 . S
C820 C818 1.478 . S
C820 C822 1.381 . S
C820 C826 1.383 . S
C821 C817 1.495 . S
C821 H827 0.959 . S
C821 H828 0.961 . S
C821 H829 0.960 . S
C822 C820 1.381 . S
C822 C823 1.394 . S
C822 H830 0.930 . S
C823 C822 1.394 . S
C823 C824 1.383 . S
C823 H831 0.929 . S
C824 C823 1.383 . S
C824 C825 1.377 . S
C825 H809 0.930 . S
C825 C824 1.377 . S
C825 C826 1.379 . S
C826 H810 0.931 . S
C826 C820 1.383 . S
C826 C825 1.379 . S
H827 C821 0.959 . S
H828 C821 0.961 . S
H829 C821 0.960 . S
H830 C822 0.930 . S
H831 C823 0.929 . S
H832 C840 0.929 . S
H833 C842 0.930 . S
H834 C844 0.930 . S
H835 C847 0.929 . S
H836 C850 0.930 . S
H837 C852 0.960 . S
H838 C852 0.960 . S
H839 C852 0.960 . S
C840 H832 0.929 . S
C840 C841 1.377 . S
C840 C842 1.384 . S
C841 C840 1.377 . S
C841 C847 1.390 . S
C842 H833 0.930 . S
C842 C840 1.384 . S
C842 C843 1.372 . S
C843 C842 1.372 . S
C843 C844 1.400 . S
C843 C848 1.490 . S
C844 H834 0.930 . S
C844 C843 1.400 . S
C844 C847 1.386 . S
H845 C861 0.930 . S
H846 C862 0.931 . S
C847 H835 0.929 . S
C847 C841 1.390 . S
C847 C844 1.386 . S
C848 C843 1.490 . S
C848 C850 1.395 . S
C848 C851 1.403 . S
H849 C855 0.930 . S
C850 H836 0.930 . S
C850 C848 1.395 . S
C850 C853 1.403 1_655 S
C851 C848 1.403 . S
C851 C852 1.524 . S
C851 C855 1.400 1_655 S
C852 H837 0.960 . S
C852 H838 0.960 . S
C852 H839 0.960 . S
C852 C851 1.524 . S
C853 C850 1.403 1_455 S
C853 C854 1.392 . S
C853 C857 1.495 . S
C854 C853 1.392 . S
C854 C855 1.385 . S
C854 C856 1.478 . S
C855 H849 0.930 . S
C855 C851 1.400 1_455 S
C855 C854 1.385 . S
C856 C854 1.478 . S
C856 C858 1.381 . S
C856 C862 1.383 . S
C857 C853 1.495 . S
C857 H863 0.959 . S
C857 H864 0.961 . S
C857 H865 0.960 . S
C858 C856 1.381 . S
C858 C859 1.394 . S
C858 H866 0.930 . S
C859 C858 1.394 . S
C859 C860 1.383 . S
C859 H867 0.929 . S
C860 C859 1.383 . S
C860 C861 1.377 . S
C861 H845 0.930 . S
C861 C860 1.377 . S
C861 C862 1.379 . S
C862 H846 0.931 . S
C862 C856 1.383 . S
C862 C861 1.379 . S
H863 C857 0.959 . S
H864 C857 0.961 . S
H865 C857 0.960 . S
H866 C858 0.930 . S
H867 C859 0.929 . S
H868 C876 0.929 . S
H869 C878 0.930 . S
H870 C880 0.930 . S
H871 C883 0.929 . S
H872 C886 0.930 . S
H873 C888 0.960 . S
H874 C888 0.960 . S
H875 C888 0.960 . S
C876 H868 0.929 . S
C876 C877 1.377 . S
C876 C878 1.384 . S
C877 C876 1.377 . S
C877 C883 1.390 . S
C878 H869 0.930 . S
C878 C876 1.384 . S
C878 C879 1.372 . S
C879 C878 1.372 . S
C879 C880 1.400 . S
C879 C884 1.490 . S
C880 H870 0.930 . S
C880 C879 1.400 . S
C880 C883 1.386 . S
H881 C897 0.930 . S
H882 C898 0.931 . S
C883 H871 0.929 . S
C883 C877 1.390 . S
C883 C880 1.386 . S
C884 C879 1.490 . S
C884 C886 1.395 . S
C884 C887 1.403 . S
H885 C891 0.930 . S
C886 H872 0.930 . S
C886 C884 1.395 . S
C886 C889 1.403 . S
C887 C884 1.403 . S
C887 C888 1.524 . S
C887 C891 1.400 . S
C888 H873 0.960 . S
C888 H874 0.960 . S
C888 H875 0.960 . S
C888 C887 1.524 . S
C889 C886 1.403 . S
C889 C890 1.392 . S
C889 C893 1.495 . S
C890 C889 1.392 . S
C890 C891 1.385 . S
C890 C892 1.478 . S
C891 H885 0.930 . S
C891 C887 1.400 . S
C891 C890 1.385 . S
C892 C890 1.478 . S
C892 C894 1.381 . S
C892 C898 1.383 . S
C893 C889 1.495 . S
C893 H899 0.959 . S
C893 H900 0.961 . S
C893 H901 0.960 . S
C894 C892 1.381 . S
C894 C895 1.394 . S
C894 H902 0.930 . S
C895 C894 1.394 . S
C895 C896 1.383 . S
C895 H903 0.929 . S
C896 C895 1.383 . S
C896 C897 1.377 . S
C897 H881 0.930 . S
C897 C896 1.377 . S
C897 C898 1.379 . S
C898 H882 0.931 . S
C898 C892 1.383 . S
C898 C897 1.379 . S
H899 C893 0.959 . S
H900 C893 0.961 . S
H901 C893 0.960 . S
H902 C894 0.930 . S
H903 C895 0.929 . S
H904 C912 0.929 . S
H905 C914 0.930 . S
H906 C916 0.930 . S
H907 C919 0.929 . S
H908 C922 0.930 . S
H909 C924 0.960 . S
H910 C924 0.960 . S
H911 C924 0.960 . S
C912 H904 0.929 . S
C912 C913 1.377 . S
C912 C914 1.384 . S
C913 C912 1.377 . S
C913 C919 1.390 . S
C914 H905 0.930 . S
C914 C912 1.384 . S
C914 C915 1.372 . S
C915 C914 1.372 . S
C915 C916 1.400 . S
C915 C920 1.490 . S
C916 H906 0.930 . S
C916 C915 1.400 . S
C916 C919 1.386 . S
H917 C933 0.930 . S
H918 C934 0.931 . S
C919 H907 0.929 . S
C919 C913 1.390 . S
C919 C916 1.386 . S
C920 C915 1.490 . S
C920 C922 1.395 . S
C920 C923 1.403 . S
H921 C927 0.930 . S
C922 H908 0.930 . S
C922 C920 1.395 . S
C922 C925 1.403 1_655 S
C923 C920 1.403 . S
C923 C924 1.524 . S
C923 C927 1.400 1_655 S
C924 H909 0.960 . S
C924 H910 0.960 . S
C924 H911 0.960 . S
C924 C923 1.524 . S
C925 C922 1.403 1_455 S
C925 C926 1.392 . S
C925 C929 1.495 . S
C926 C925 1.392 . S
C926 C927 1.385 . S
C926 C928 1.478 . S
C927 H921 0.930 . S
C927 C923 1.400 1_455 S
C927 C926 1.385 . S
C928 C926 1.478 . S
C928 C930 1.381 . S
C928 C934 1.383 . S
C929 C925 1.495 . S
C929 H935 0.959 . S
C929 H936 0.961 . S
C929 H937 0.960 . S
C930 C928 1.381 . S
C930 C931 1.394 . S
C930 H938 0.930 . S
C931 C930 1.394 . S
C931 C932 1.383 . S
C931 H939 0.929 . S
C932 C931 1.383 . S
C932 C933 1.377 . S
C933 H917 0.930 . S
C933 C932 1.377 . S
C933 C934 1.379 . S
C934 H918 0.931 . S
C934 C928 1.383 . S
C934 C933 1.379 . S
H935 C929 0.959 . S
H936 C929 0.961 . S
H937 C929 0.960 . S
H938 C930 0.930 . S
H939 C931 0.929 . S
H940 C948 0.929 . S
H941 C950 0.930 . S
H942 C952 0.930 . S
H943 C955 0.929 . S
H944 C958 0.930 . S
H945 C960 0.960 . S
H946 C960 0.960 . S
H947 C960 0.960 . S
C948 H940 0.929 . S
C948 C949 1.377 . S
C948 C950 1.384 . S
C949 C948 1.377 . S
C949 C955 1.390 . S
C950 H941 0.930 . S
C950 C948 1.384 . S
C950 C951 1.372 . S
C951 C950 1.372 . S
C951 C952 1.400 . S
C951 C956 1.490 . S
C952 H942 0.930 . S
C952 C951 1.400 . S
C952 C955 1.386 . S
H953 C969 0.930 . S
H954 C970 0.931 . S
C955 H943 0.929 . S
C955 C949 1.390 . S
C955 C952 1.386 . S
C956 C951 1.490 . S
C956 C958 1.395 . S
C956 C959 1.403 . S
H957 C963 0.930 . S
C958 H944 0.930 . S
C958 C956 1.395 . S
C958 C961 1.403 . S
C959 C956 1.403 . S
C959 C960 1.524 . S
C959 C963 1.400 . S
C960 H945 0.960 . S
C960 H946 0.960 . S
C960 H947 0.960 . S
C960 C959 1.524 . S
C961 C958 1.403 . S
C961 C962 1.392 . S
C961 C965 1.495 . S
C962 C961 1.392 . S
C962 C963 1.385 . S
C962 C964 1.478 . S
C963 H957 0.930 . S
C963 C959 1.400 . S
C963 C962 1.385 . S
C964 C962 1.478 . S
C964 C966 1.381 . S
C964 C970 1.383 . S
C965 C961 1.495 . S
C965 H971 0.959 . S
C965 H972 0.961 . S
C965 H973 0.960 . S
C966 C964 1.381 . S
C966 C967 1.394 . S
C966 H974 0.930 . S
C967 C966 1.394 . S
C967 C968 1.383 . S
C967 H975 0.929 . S
C968 C967 1.383 . S
C968 C969 1.377 . S
C969 H953 0.930 . S
C969 C968 1.377 . S
C969 C970 1.379 . S
C970 H954 0.931 . S
C970 C964 1.383 . S
C970 C969 1.379 . S
H971 C965 0.959 . S
H972 C965 0.961 . S
H973 C965 0.960 . S
H974 C966 0.930 . S
H975 C967 0.929 . S
H976 C984 0.929 . S
H977 C986 0.930 . S
H978 C988 0.930 . S
H979 C991 0.929 . S
H980 C994 0.930 . S
H981 C996 0.960 . S
H982 C996 0.960 . S
H983 C996 0.960 . S
C984 H976 0.929 . S
C984 C985 1.377 . S
C984 C986 1.384 . S
C985 C984 1.377 . S
C985 C991 1.390 . S
C986 H977 0.930 . S
C986 C984 1.384 . S
C986 C987 1.372 . S
C987 C986 1.372 . S
C987 C988 1.400 . S
C987 C992 1.490 . S
C988 H978 0.930 . S
C988 C987 1.400 . S
C988 C991 1.386 . S
H989 C1005 0.930 . S
H990 C1006 0.931 . S
C991 H979 0.929 . S
C991 C985 1.390 . S
C991 C988 1.386 . S
C992 C987 1.490 . S
C992 C994 1.395 . S
C992 C995 1.403 . S
H993 C999 0.930 . S
C994 H980 0.930 . S
C994 C992 1.395 . S
C994 C997 1.403 . S
C995 C992 1.403 . S
C995 C996 1.524 . S
C995 C999 1.400 . S
C996 H981 0.960 . S
C996 H982 0.960 . S
C996 H983 0.960 . S
C996 C995 1.524 . S
C997 C994 1.403 . S
C997 C998 1.392 . S
C997 C1001 1.495 . S
C998 C997 1.392 . S
C998 C999 1.385 . S
C998 C1000 1.478 . S
C999 H993 0.930 . S
C999 C995 1.400 . S
C999 C998 1.385 . S
C1000 C998 1.478 . S
C1000 C1002 1.381 . S
C1000 C1006 1.383 . S
C1001 C997 1.495 . S
C1001 H1007 0.959 . S
C1001 H1008 0.961 . S
C1001 H1009 0.960 . S
C1002 C1000 1.381 . S
C1002 C1003 1.394 . S
C1002 H1010 0.930 . S
C1003 C1002 1.394 . S
C1003 C1004 1.383 . S
C1003 H1011 0.929 . S
C1004 C1003 1.383 . S
C1004 C1005 1.377 . S
C1005 H989 0.930 . S
C1005 C1004 1.377 . S
C1005 C1006 1.379 . S
C1006 H990 0.931 . S
C1006 C1000 1.383 . S
C1006 C1005 1.379 . S
H1007 C1001 0.959 . S
H1008 C1001 0.961 . S
H1009 C1001 0.960 . S
H1010 C1002 0.930 . S
H1011 C1003 0.929 . S
H1012 C1020 0.929 . S
H1013 C1022 0.930 . S
H1014 C1024 0.930 . S
H1015 C1027 0.929 . S
H1016 C1030 0.930 . S
H1017 C1032 0.960 . S
H1018 C1032 0.960 . S
H1019 C1032 0.960 . S
C1020 H1012 0.929 . S
C1020 C1021 1.377 . S
C1020 C1022 1.384 . S
C1021 C1020 1.377 . S
C1021 C1027 1.390 . S
C1022 H1013 0.930 . S
C1022 C1020 1.384 . S
C1022 C1023 1.372 . S
C1023 C1022 1.372 . S
C1023 C1024 1.400 . S
C1023 C1028 1.490 . S
C1024 H1014 0.930 . S
C1024 C1023 1.400 . S
C1024 C1027 1.386 . S
H1025 C1041 0.930 . S
H1026 C1042 0.931 . S
C1027 H1015 0.929 . S
C1027 C1021 1.390 . S
C1027 C1024 1.386 . S
C1028 C1023 1.490 . S
C1028 C1030 1.395 . S
C1028 C1031 1.403 . S
H1029 C1035 0.930 . S
C1030 H1016 0.930 . S
C1030 C1028 1.395 . S
C1030 C1033 1.403 1_455 S
C1031 C1028 1.403 . S
C1031 C1032 1.524 . S
C1031 C1035 1.400 1_455 S
C1032 H1017 0.960 . S
C1032 H1018 0.960 . S
C1032 H1019 0.960 . S
C1032 C1031 1.524 . S
C1033 C1030 1.403 1_655 S
C1033 C1034 1.392 . S
C1033 C1037 1.495 . S
C1034 C1033 1.392 . S
C1034 C1035 1.385 . S
C1034 C1036 1.478 . S
C1035 H1029 0.930 . S
C1035 C1031 1.400 1_655 S
C1035 C1034 1.385 . S
C1036 C1034 1.478 . S
C1036 C1038 1.381 . S
C1036 C1042 1.383 . S
C1037 C1033 1.495 . S
C1037 H1043 0.959 . S
C1037 H1044 0.961 . S
C1037 H1045 0.960 . S
C1038 C1036 1.381 . S
C1038 C1039 1.394 . S
C1038 H1046 0.930 . S
C1039 C1038 1.394 . S
C1039 C1040 1.383 . S
C1039 H1047 0.929 . S
C1040 C1039 1.383 . S
C1040 C1041 1.377 . S
C1041 H1025 0.930 . S
C1041 C1040 1.377 . S
C1041 C1042 1.379 . S
C1042 H1026 0.931 . S
C1042 C1036 1.383 . S
C1042 C1041 1.379 . S
H1043 C1037 0.959 . S
H1044 C1037 0.961 . S
H1045 C1037 0.960 . S
H1046 C1038 0.930 . S
H1047 C1039 0.929 . S
H1048 C1056 0.929 . S
H1049 C1058 0.930 . S
H1050 C1060 0.930 . S
H1051 C1063 0.929 . S
H1052 C1066 0.930 . S
H1053 C1068 0.960 . S
H1054 C1068 0.960 . S
H1055 C1068 0.960 . S
C1056 H1048 0.929 . S
C1056 C1057 1.377 . S
C1056 C1058 1.384 . S
C1057 C1056 1.377 . S
C1057 C1063 1.390 . S
C1058 H1049 0.930 . S
C1058 C1056 1.384 . S
C1058 C1059 1.372 . S
C1059 C1058 1.372 . S
C1059 C1060 1.400 . S
C1059 C1064 1.490 . S
C1060 H1050 0.930 . S
C1060 C1059 1.400 . S
C1060 C1063 1.386 . S
H1061 C1077 0.930 . S
H1062 C1078 0.931 . S
C1063 H1051 0.929 . S
C1063 C1057 1.390 . S
C1063 C1060 1.386 . S
C1064 C1059 1.490 . S
C1064 C1066 1.395 . S
C1064 C1067 1.403 . S
H1065 C1071 0.930 . S
C1066 H1052 0.930 . S
C1066 C1064 1.395 . S
C1066 C1069 1.403 . S
C1067 C1064 1.403 . S
C1067 C1068 1.524 . S
C1067 C1071 1.400 . S
C1068 H1053 0.960 . S
C1068 H1054 0.960 . S
C1068 H1055 0.960 . S
C1068 C1067 1.524 . S
C1069 C1066 1.403 . S
C1069 C1070 1.392 . S
C1069 C1073 1.495 . S
C1070 C1069 1.392 . S
C1070 C1071 1.385 . S
C1070 C1072 1.478 . S
C1071 H1065 0.930 . S
C1071 C1067 1.400 . S
C1071 C1070 1.385 . S
C1072 C1070 1.478 . S
C1072 C1074 1.381 . S
C1072 C1078 1.383 . S
C1073 C1069 1.495 . S
C1073 H1079 0.959 . S
C1073 H1080 0.961 . S
C1073 H1081 0.960 . S
C1074 C1072 1.381 . S
C1074 C1075 1.394 . S
C1074 H1082 0.930 . S
C1075 C1074 1.394 . S
C1075 C1076 1.383 . S
C1075 H1083 0.929 . S
C1076 C1075 1.383 . S
C1076 C1077 1.377 . S
C1077 H1061 0.930 . S
C1077 C1076 1.377 . S
C1077 C1078 1.379 . S
C1078 H1062 0.931 . S
C1078 C1072 1.383 . S
C1078 C1077 1.379 . S
H1079 C1073 0.959 . S
H1080 C1073 0.961 . S
H1081 C1073 0.960 . S
H1082 C1074 0.930 . S
H1083 C1075 0.929 . S
H1084 C1092 0.929 . S
H1085 C1094 0.930 . S
H1086 C1096 0.930 . S
H1087 C1099 0.929 . S
H1088 C1102 0.930 . S
H1089 C1104 0.960 . S
H1090 C1104 0.960 . S
H1091 C1104 0.960 . S
C1092 H1084 0.929 . S
C1092 C1093 1.377 . S
C1092 C1094 1.384 . S
C1093 C1092 1.377 . S
C1093 C1099 1.390 . S
C1094 H1085 0.930 . S
C1094 C1092 1.384 . S
C1094 C1095 1.372 . S
C1095 C1094 1.372 . S
C1095 C1096 1.400 . S
C1095 C1100 1.490 . S
C1096 H1086 0.930 . S
C1096 C1095 1.400 . S
C1096 C1099 1.386 . S
H1097 C1113 0.930 . S
H1098 C1114 0.931 . S
C1099 H1087 0.929 . S
C1099 C1093 1.390 . S
C1099 C1096 1.386 . S
C1100 C1095 1.490 . S
C1100 C1102 1.395 . S
C1100 C1103 1.403 . S
H1101 C1107 0.930 . S
C1102 H1088 0.930 . S
C1102 C1100 1.395 . S
C1102 C1105 1.403 1_655 S
C1103 C1100 1.403 . S
C1103 C1104 1.524 . S
C1103 C1107 1.400 1_655 S
C1104 H1089 0.960 . S
C1104 H1090 0.960 . S
C1104 H1091 0.960 . S
C1104 C1103 1.524 . S
C1105 C1102 1.403 1_455 S
C1105 C1106 1.392 . S
C1105 C1109 1.495 . S
C1106 C1105 1.392 . S
C1106 C1107 1.385 . S
C1106 C1108 1.478 . S
C1107 H1101 0.930 . S
C1107 C1103 1.400 1_455 S
C1107 C1106 1.385 . S
C1108 C1106 1.478 . S
C1108 C1110 1.381 . S
C1108 C1114 1.383 . S
C1109 C1105 1.495 . S
C1109 H1115 0.959 . S
C1109 H1116 0.961 . S
C1109 H1117 0.960 . S
C1110 C1108 1.381 . S
C1110 C1111 1.394 . S
C1110 H1118 0.930 . S
C1111 C1110 1.394 . S
C1111 C1112 1.383 . S
C1111 H1119 0.929 . S
C1112 C1111 1.383 . S
C1112 C1113 1.377 . S
C1113 H1097 0.930 . S
C1113 C1112 1.377 . S
C1113 C1114 1.379 . S
C1114 H1098 0.931 . S
C1114 C1108 1.383 . S
C1114 C1113 1.379 . S
H1115 C1109 0.959 . S
H1116 C1109 0.961 . S
H1117 C1109 0.960 . S
H1118 C1110 0.930 . S
H1119 C1111 0.929 . S
H1120 C1128 0.929 . S
H1121 C1130 0.930 . S
H1122 C1132 0.930 . S
H1123 C1135 0.929 . S
H1124 C1138 0.930 . S
H1125 C1140 0.960 . S
H1126 C1140 0.960 . S
H1127 C1140 0.960 1_545 S
C1128 H1120 0.929 . S
C1128 C1129 1.377 . S
C1128 C1130 1.384 . S
C1129 C1128 1.377 . S
C1129 C1135 1.390 . S
C1130 H1121 0.930 . S
C1130 C1128 1.384 . S
C1130 C1131 1.372 . S
C1131 C1130 1.372 . S
C1131 C1132 1.400 . S
C1131 C1136 1.490 . S
C1132 H1122 0.930 . S
C1132 C1131 1.400 . S
C1132 C1135 1.386 . S
H1133 C1149 0.930 . S
H1134 C1150 0.931 . S
C1135 H1123 0.929 . S
C1135 C1129 1.390 . S
C1135 C1132 1.386 . S
C1136 C1131 1.490 . S
C1136 C1138 1.395 1_554 S
C1136 C1139 1.406 . S
H1137 C1143 0.931 . S
C1138 H1124 0.930 . S
C1138 C1136 1.395 1_556 S
C1138 C1141 1.421 . S
C1139 C1136 1.406 . S
C1139 C1140 1.523 1_545 S
C1139 C1143 1.409 1_545 S
C1140 H1125 0.960 . S
C1140 H1126 0.960 . S
C1140 H1127 0.960 1_565 S
C1140 C1139 1.523 1_565 S
C1141 C1138 1.421 . S
C1141 C1142 1.375 1_545 S
C1141 C1145 1.496 . S
C1142 C1141 1.375 1_565 S
C1142 C1143 1.372 1_556 S
C1142 C1144 1.478 . S
C1143 H1137 0.931 . S
C1143 C1139 1.409 1_565 S
C1143 C1142 1.372 1_554 S
C1144 C1142 1.478 . S
C1144 C1146 1.381 . S
C1144 C1150 1.383 . S
C1145 C1141 1.496 . S
C1145 H1151 0.959 . S
C1145 H1152 0.961 . S
C1145 H1153 0.960 1_545 S
C1146 C1144 1.381 . S
C1146 C1147 1.394 . S
C1146 H1154 0.930 . S
C1147 C1146 1.394 . S
C1147 C1148 1.383 . S
C1147 H1155 0.929 . S
C1148 C1147 1.383 . S
C1148 C1149 1.377 . S
C1149 H1133 0.930 . S
C1149 C1148 1.377 . S
C1149 C1150 1.379 . S
C1150 H1134 0.931 . S
C1150 C1144 1.383 . S
C1150 C1149 1.379 . S
H1151 C1145 0.959 . S
H1152 C1145 0.961 . S
H1153 C1145 0.960 1_565 S
H1154 C1146 0.930 . S
H1155 C1147 0.929 . S
H1156 C1164 0.929 . S
H1157 C1166 0.930 . S
H1158 C1168 0.930 . S
H1159 C1171 0.929 . S
H1160 C1174 0.930 . S
H1161 C1176 0.960 . S
H1162 C1176 0.960 1_565 S
H1163 C1176 0.961 . S
C1164 H1156 0.929 . S
C1164 C1165 1.377 . S
C1164 C1166 1.384 . S
C1165 C1164 1.377 . S
C1165 C1171 1.390 . S
C1166 H1157 0.930 . S
C1166 C1164 1.384 . S
C1166 C1167 1.372 . S
C1167 C1166 1.372 . S
C1167 C1168 1.400 . S
C1167 C1172 1.490 . S
C1168 H1158 0.930 . S
C1168 C1167 1.400 . S
C1168 C1171 1.386 . S
H1169 C1185 0.930 . S
H1170 C1186 0.931 . S
C1171 H1159 0.929 . S
C1171 C1165 1.390 . S
C1171 C1168 1.386 . S
C1172 C1167 1.490 . S
C1172 C1174 1.395 . S
C1172 C1175 1.422 . S
H1173 C1179 0.930 . S
C1174 H1160 0.930 . S
C1174 C1172 1.395 . S
C1174 C1177 1.403 . S
C1175 C1172 1.422 . S
C1175 C1176 1.522 1_565 S
C1175 C1179 1.382 1_565 S
C1176 H1161 0.960 . S
C1176 H1162 0.960 1_545 S
C1176 H1163 0.961 . S
C1176 C1175 1.522 1_545 S
C1177 C1174 1.403 . S
C1177 C1178 1.392 1_565 S
C1177 C1181 1.495 . S
C1178 C1177 1.392 1_545 S
C1178 C1179 1.385 . S
C1178 C1180 1.478 . S
C1179 H1173 0.930 . S
C1179 C1175 1.382 1_545 S
C1179 C1178 1.385 . S
C1180 C1178 1.478 . S
C1180 C1182 1.381 . S
C1180 C1186 1.383 . S
C1181 C1177 1.495 . S
C1181 H1187 0.959 . S
C1181 H1188 0.961 1_565 S
C1181 H1189 0.960 . S
C1182 C1180 1.381 . S
C1182 C1183 1.394 . S
C1182 H1190 0.930 . S
C1183 C1182 1.394 . S
C1183 C1184 1.383 . S
C1183 H1191 0.929 . S
C1184 C1183 1.383 . S
C1184 C1185 1.377 . S
C1185 H1169 0.930 . S
C1185 C1184 1.377 . S
C1185 C1186 1.379 . S
C1186 H1170 0.931 . S
C1186 C1180 1.383 . S
C1186 C1185 1.379 . S
H1187 C1181 0.959 . S
H1188 C1181 0.961 1_545 S
H1189 C1181 0.960 . S
H1190 C1182 0.930 . S
H1191 C1183 0.929 . S
H1192 C1200 0.929 . S
H1193 C1202 0.930 . S
H1194 C1204 0.930 . S
H1195 C1207 0.929 . S
H1196 C1210 0.930 . S
H1197 C1212 0.960 . S
H1198 C1212 0.960 . S
H1199 C1212 0.960 . S
C1200 H1192 0.929 . S
C1200 C1201 1.377 . S
C1200 C1202 1.384 . S
C1201 C1200 1.377 . S
C1201 C1207 1.390 . S
C1202 H1193 0.930 . S
C1202 C1200 1.384 . S
C1202 C1203 1.372 . S
C1203 C1202 1.372 . S
C1203 C1204 1.400 . S
C1203 C1208 1.490 . S
C1204 H1194 0.930 . S
C1204 C1203 1.400 . S
C1204 C1207 1.386 . S
H1205 C1221 0.930 . S
H1206 C1222 0.931 . S
C1207 H1195 0.929 . S
C1207 C1201 1.390 . S
C1207 C1204 1.386 . S
C1208 C1203 1.490 . S
C1208 C1210 1.395 . S
C1208 C1211 1.403 . S
H1209 C1215 0.930 . S
C1210 H1196 0.930 . S
C1210 C1208 1.395 . S
C1210 C1213 1.403 1_566 S
C1211 C1208 1.403 . S
C1211 C1212 1.524 . S
C1211 C1215 1.400 1_566 S
C1212 H1197 0.960 . S
C1212 H1198 0.960 . S
C1212 H1199 0.960 . S
C1212 C1211 1.524 . S
C1213 C1210 1.403 1_544 S
C1213 C1214 1.392 . S
C1213 C1217 1.495 . S
C1214 C1213 1.392 . S
C1214 C1215 1.385 . S
C1214 C1216 1.478 . S
C1215 H1209 0.930 . S
C1215 C1211 1.400 1_544 S
C1215 C1214 1.385 . S
C1216 C1214 1.478 . S
C1216 C1218 1.381 . S
C1216 C1222 1.383 . S
C1217 C1213 1.495 . S
C1217 H1223 0.959 . S
C1217 H1224 0.961 . S
C1217 H1225 0.960 . S
C1218 C1216 1.381 . S
C1218 C1219 1.394 . S
C1218 H1226 0.930 . S
C1219 C1218 1.394 . S
C1219 C1220 1.383 . S
C1219 H1227 0.929 . S
C1220 C1219 1.383 . S
C1220 C1221 1.377 . S
C1221 H1205 0.930 . S
C1221 C1220 1.377 . S
C1221 C1222 1.379 . S
C1222 H1206 0.931 . S
C1222 C1216 1.383 . S
C1222 C1221 1.379 . S
H1223 C1217 0.959 . S
H1224 C1217 0.961 . S
H1225 C1217 0.960 . S
H1226 C1218 0.930 . S
H1227 C1219 0.929 . S
H1228 C1236 0.929 . S
H1229 C1238 0.930 . S
H1230 C1240 0.930 . S
H1231 C1243 0.929 . S
H1232 C1246 0.930 . S
H1233 C1248 0.960 . S
H1234 C1248 0.960 . S
H1235 C1248 0.960 . S
C1236 H1228 0.929 . S
C1236 C1237 1.377 . S
C1236 C1238 1.384 . S
C1237 C1236 1.377 . S
C1237 C1243 1.390 . S
C1238 H1229 0.930 . S
C1238 C1236 1.384 . S
C1238 C1239 1.372 . S
C1239 C1238 1.372 . S
C1239 C1240 1.400 . S
C1239 C1244 1.490 . S
C1240 H1230 0.930 . S
C1240 C1239 1.400 . S
C1240 C1243 1.386 . S
H1241 C1257 0.930 . S
H1242 C1258 0.931 . S
C1243 H1231 0.929 . S
C1243 C1237 1.390 . S
C1243 C1240 1.386 . S
C1244 C1239 1.490 . S
C1244 C1246 1.395 1_545 S
C1244 C1247 1.403 . S
H1245 C1251 0.930 1_545 S
C1246 H1232 0.930 . S
C1246 C1244 1.395 1_565 S
C1246 C1249 1.403 . S
C1247 C1244 1.403 . S
C1247 C1248 1.524 . S
C1247 C1251 1.396 1_545 S
C1248 H1233 0.960 . S
C1248 H1234 0.960 . S
C1248 H1235 0.960 . S
C1248 C1247 1.524 . S
C1249 C1246 1.403 . S
C1249 C1250 1.392 . S
C1249 C1253 1.495 . S
C1250 C1249 1.392 . S
C1250 C1251 1.390 . S
C1250 C1252 1.478 . S
C1251 H1245 0.930 1_565 S
C1251 C1247 1.396 1_565 S
C1251 C1250 1.390 . S
C1252 C1250 1.478 . S
C1252 C1254 1.381 . S
C1252 C1258 1.383 . S
C1253 C1249 1.495 . S
C1253 H1259 0.959 . S
C1253 H1260 0.961 . S
C1253 H1261 0.960 . S
C1254 C1252 1.381 . S
C1254 C1255 1.394 . S
C1254 H1262 0.930 . S
C1255 C1254 1.394 . S
C1255 C1256 1.383 . S
C1255 H1263 0.929 . S
C1256 C1255 1.383 . S
C1256 C1257 1.377 . S
C1257 H1241 0.930 . S
C1257 C1256 1.377 . S
C1257 C1258 1.379 . S
C1258 H1242 0.931 . S
C1258 C1252 1.383 . S
C1258 C1257 1.379 . S
H1259 C1253 0.959 . S
H1260 C1253 0.961 . S
H1261 C1253 0.960 . S
H1262 C1254 0.930 . S
H1263 C1255 0.929 . S
H1264 C1272 0.929 . S
H1265 C1274 0.930 . S
H1266 C1276 0.930 . S
H1267 C1279 0.929 . S
H1268 C1282 0.930 . S
H1269 C1284 0.960 . S
H1270 C1284 0.960 . S
H1271 C1284 0.960 1_554 S
C1272 H1264 0.929 . S
C1272 C1273 1.377 . S
C1272 C1274 1.384 . S
C1273 C1272 1.377 . S
C1273 C1279 1.390 . S
C1274 H1265 0.930 . S
C1274 C1272 1.384 . S
C1274 C1275 1.372 . S
C1275 C1274 1.372 . S
C1275 C1276 1.400 . S
C1275 C1280 1.490 . S
C1276 H1266 0.930 . S
C1276 C1275 1.400 . S
C1276 C1279 1.386 . S
H1277 C1293 0.930 . S
H1278 C1294 0.931 . S
C1279 H1267 0.929 . S
C1279 C1273 1.390 . S
C1279 C1276 1.386 . S
C1280 C1275 1.490 . S
C1280 C1282 1.395 . S
C1280 C1283 1.403 1_554 S
H1281 C1287 0.930 . S
C1282 H1268 0.930 . S
C1282 C1280 1.395 . S
C1282 C1285 1.403 . S
C1283 C1280 1.403 1_556 S
C1283 C1284 1.524 . S
C1283 C1287 1.400 . S
C1284 H1269 0.960 . S
C1284 H1270 0.960 . S
C1284 H1271 0.960 1_556 S
C1284 C1283 1.524 . S
C1285 C1282 1.403 . S
C1285 C1286 1.392 1_554 S
C1285 C1289 1.495 . S
C1286 C1285 1.392 1_556 S
C1286 C1287 1.385 . S
C1286 C1288 1.478 . S
C1287 H1281 0.930 . S
C1287 C1283 1.400 . S
C1287 C1286 1.385 . S
C1288 C1286 1.478 . S
C1288 C1290 1.381 . S
C1288 C1294 1.383 . S
C1289 C1285 1.495 . S
C1289 H1295 0.959 . S
C1289 H1296 0.961 . S
C1289 H1297 0.960 1_554 S
C1290 C1288 1.381 . S
C1290 C1291 1.394 . S
C1290 H1298 0.930 . S
C1291 C1290 1.394 . S
C1291 C1292 1.383 . S
C1291 H1299 0.929 . S
C1292 C1291 1.383 . S
C1292 C1293 1.377 . S
C1293 H1277 0.930 . S
C1293 C1292 1.377 . S
C1293 C1294 1.379 . S
C1294 H1278 0.931 . S
C1294 C1288 1.383 . S
C1294 C1293 1.379 . S
H1295 C1289 0.959 . S
H1296 C1289 0.961 . S
H1297 C1289 0.960 1_556 S
H1298 C1290 0.930 . S
H1299 C1291 0.929 . S
H1300 C1308 0.929 . S
H1301 C1310 0.930 . S
H1302 C1312 0.930 . S
H1303 C1315 0.929 . S
H1304 C1318 0.930 . S
H1305 C1320 0.960 . S
H1306 C1320 0.960 . S
H1307 C1320 0.960 . S
C1308 H1300 0.929 . S
C1308 C1309 1.377 . S
C1308 C1310 1.384 . S
C1309 C1308 1.377 . S
C1309 C1315 1.390 . S
C1310 H1301 0.930 . S
C1310 C1308 1.384 . S
C1310 C1311 1.372 . S
C1311 C1310 1.372 . S
C1311 C1312 1.400 . S
C1311 C1316 1.490 . S
C1312 H1302 0.930 . S
C1312 C1311 1.400 . S
C1312 C1315 1.386 . S
H1313 C1329 0.930 . S
H1314 C1330 0.931 . S
C1315 H1303 0.929 . S
C1315 C1309 1.390 . S
C1315 C1312 1.386 . S
C1316 C1311 1.490 . S
C1316 C1318 1.395 . S
C1316 C1319 1.403 . S
H1317 C1323 0.930 . S
C1318 H1304 0.930 . S
C1318 C1316 1.395 . S
C1318 C1321 1.403 . S
C1319 C1316 1.403 . S
C1319 C1320 1.524 . S
C1319 C1323 1.400 . S
C1320 H1305 0.960 . S
C1320 H1306 0.960 . S
C1320 H1307 0.960 . S
C1320 C1319 1.524 . S
C1321 C1318 1.403 . S
C1321 C1322 1.392 . S
C1321 C1325 1.495 . S
C1322 C1321 1.392 . S
C1322 C1323 1.385 . S
C1322 C1324 1.478 . S
C1323 H1317 0.930 . S
C1323 C1319 1.400 . S
C1323 C1322 1.385 . S
C1324 C1322 1.478 . S
C1324 C1326 1.381 . S
C1324 C1330 1.383 . S
C1325 C1321 1.495 . S
C1325 H1331 0.959 . S
C1325 H1332 0.961 . S
C1325 H1333 0.960 . S
C1326 C1324 1.381 . S
C1326 C1327 1.394 . S
C1326 H1334 0.930 . S
C1327 C1326 1.394 . S
C1327 C1328 1.383 . S
C1327 H1335 0.929 . S
C1328 C1327 1.383 . S
C1328 C1329 1.377 . S
C1329 H1313 0.930 . S
C1329 C1328 1.377 . S
C1329 C1330 1.379 . S
C1330 H1314 0.931 . S
C1330 C1324 1.383 . S
C1330 C1329 1.379 . S
H1331 C1325 0.959 . S
H1332 C1325 0.961 . S
H1333 C1325 0.960 . S
H1334 C1326 0.930 . S
H1335 C1327 0.929 . S
H1336 C1344 0.929 . S
H1337 C1346 0.930 . S
H1338 C1348 0.930 . S
H1339 C1351 0.929 . S
H1340 C1354 0.930 . S
H1341 C1356 0.960 . S
H1342 C1356 0.960 . S
H1343 C1356 0.960 1_556 S
C1344 H1336 0.929 . S
C1344 C1345 1.377 . S
C1344 C1346 1.384 . S
C1345 C1344 1.377 . S
C1345 C1351 1.390 . S
C1346 H1337 0.930 . S
C1346 C1344 1.384 . S
C1346 C1347 1.372 . S
C1347 C1346 1.372 . S
C1347 C1348 1.400 . S
C1347 C1352 1.490 . S
C1348 H1338 0.930 . S
C1348 C1347 1.400 . S
C1348 C1351 1.386 . S
H1349 C1365 0.930 . S
H1350 C1366 0.931 . S
C1351 H1339 0.929 . S
C1351 C1345 1.390 . S
C1351 C1348 1.386 . S
C1352 C1347 1.490 . S
C1352 C1354 1.395 . S
C1352 C1355 1.403 1_556 S
H1353 C1359 0.930 . S
C1354 H1340 0.930 . S
C1354 C1352 1.395 . S
C1354 C1357 1.403 . S
C1355 C1352 1.403 1_554 S
C1355 C1356 1.524 . S
C1355 C1359 1.400 . S
C1356 H1341 0.960 . S
C1356 H1342 0.960 . S
C1356 H1343 0.960 1_554 S
C1356 C1355 1.524 . S
C1357 C1354 1.403 . S
C1357 C1358 1.392 1_556 S
C1357 C1361 1.495 . S
C1358 C1357 1.392 1_554 S
C1358 C1359 1.385 . S
C1358 C1360 1.478 . S
C1359 H1353 0.930 . S
C1359 C1355 1.400 . S
C1359 C1358 1.385 . S
C1360 C1358 1.478 . S
C1360 C1362 1.381 . S
C1360 C1366 1.383 . S
C1361 C1357 1.495 . S
C1361 H1367 0.959 . S
C1361 H1368 0.961 . S
C1361 H1369 0.960 1_556 S
C1362 C1360 1.381 . S
C1362 C1363 1.394 . S
C1362 H1370 0.930 . S
C1363 C1362 1.394 . S
C1363 C1364 1.383 . S
C1363 H1371 0.929 . S
C1364 C1363 1.383 . S
C1364 C1365 1.377 . S
C1365 H1349 0.930 . S
C1365 C1364 1.377 . S
C1365 C1366 1.379 . S
C1366 H1350 0.931 . S
C1366 C1360 1.383 . S
C1366 C1365 1.379 . S
H1367 C1361 0.959 . S
H1368 C1361 0.961 . S
H1369 C1361 0.960 1_554 S
H1370 C1362 0.930 . S
H1371 C1363 0.929 . S
H1372 C1380 0.929 . S
H1373 C1382 0.930 . S
H1374 C1384 0.930 . S
H1375 C1387 0.929 . S
H1376 C1390 0.930 . S
H1377 C1392 0.960 . S
H1378 C1392 0.960 . S
H1379 C1392 0.960 . S
C1380 H1372 0.929 . S
C1380 C1381 1.377 . S
C1380 C1382 1.384 . S
C1381 C1380 1.377 . S
C1381 C1387 1.390 . S
C1382 H1373 0.930 . S
C1382 C1380 1.384 . S
C1382 C1383 1.372 . S
C1383 C1382 1.372 . S
C1383 C1384 1.400 . S
C1383 C1388 1.490 . S
C1384 H1374 0.930 . S
C1384 C1383 1.400 . S
C1384 C1387 1.386 . S
H1385 C1401 0.930 . S
H1386 C1402 0.931 . S
C1387 H1375 0.929 . S
C1387 C1381 1.390 . S
C1387 C1384 1.386 . S
C1388 C1383 1.490 . S
C1388 C1390 1.395 . S
C1388 C1391 1.403 . S
H1389 C1395 0.930 . S
C1390 H1376 0.930 . S
C1390 C1388 1.395 . S
C1390 C1393 1.403 . S
C1391 C1388 1.403 . S
C1391 C1392 1.524 . S
C1391 C1395 1.400 . S
C1392 H1377 0.960 . S
C1392 H1378 0.960 . S
C1392 H1379 0.960 . S
C1392 C1391 1.524 . S
C1393 C1390 1.403 . S
C1393 C1394 1.392 . S
C1393 C1397 1.495 . S
C1394 C1393 1.392 . S
C1394 C1395 1.385 . S
C1394 C1396 1.478 . S
C1395 H1389 0.930 . S
C1395 C1391 1.400 . S
C1395 C1394 1.385 . S
C1396 C1394 1.478 . S
C1396 C1398 1.381 . S
C1396 C1402 1.383 . S
C1397 C1393 1.495 . S
C1397 H1403 0.959 . S
C1397 H1404 0.961 . S
C1397 H1405 0.960 . S
C1398 C1396 1.381 . S
C1398 C1399 1.394 . S
C1398 H1406 0.930 . S
C1399 C1398 1.394 . S
C1399 C1400 1.383 . S
C1399 H1407 0.929 . S
C1400 C1399 1.383 . S
C1400 C1401 1.377 . S
C1401 H1385 0.930 . S
C1401 C1400 1.377 . S
C1401 C1402 1.379 . S
C1402 H1386 0.931 . S
C1402 C1396 1.383 . S
C1402 C1401 1.379 . S
H1403 C1397 0.959 . S
H1404 C1397 0.961 . S
H1405 C1397 0.960 . S
H1406 C1398 0.930 . S
H1407 C1399 0.929 . S
H1408 C1416 0.929 . S
H1409 C1418 0.930 . S
H1410 C1420 0.930 . S
H1411 C1423 0.929 . S
H1412 C1426 0.930 . S
H1413 C1428 0.960 . S
H1414 C1428 0.960 . S
H1415 C1428 0.960 . S
C1416 H1408 0.929 . S
C1416 C1417 1.377 . S
C1416 C1418 1.384 . S
C1417 C1416 1.377 . S
C1417 C1423 1.390 . S
C1418 H1409 0.930 . S
C1418 C1416 1.384 . S
C1418 C1419 1.372 . S
C1419 C1418 1.372 . S
C1419 C1420 1.400 . S
C1419 C1424 1.490 . S
C1420 H1410 0.930 . S
C1420 C1419 1.400 . S
C1420 C1423 1.386 . S
H1421 C1437 0.930 . S
H1422 C1438 0.931 . S
C1423 H1411 0.929 . S
C1423 C1417 1.390 . S
C1423 C1420 1.386 . S
C1424 C1419 1.490 . S
C1424 C1426 1.395 . S
C1424 C1427 1.403 . S
H1425 C1431 0.930 . S
C1426 H1412 0.930 . S
C1426 C1424 1.395 . S
C1426 C1429 1.403 . S
C1427 C1424 1.403 . S
C1427 C1428 1.524 . S
C1427 C1431 1.400 . S
C1428 H1413 0.960 . S
C1428 H1414 0.960 . S
C1428 H1415 0.960 . S
C1428 C1427 1.524 . S
C1429 C1426 1.403 . S
C1429 C1430 1.392 . S
C1429 C1433 1.495 . S
C1430 C1429 1.392 . S
C1430 C1431 1.385 . S
C1430 C1432 1.478 . S
C1431 H1425 0.930 . S
C1431 C1427 1.400 . S
C1431 C1430 1.385 . S
C1432 C1430 1.478 . S
C1432 C1434 1.381 1_556 S
C1432 C1438 1.383 . S
C1433 C1429 1.495 . S
C1433 H1439 0.959 . S
C1433 H1440 0.961 . S
C1433 H1441 0.960 1_556 S
C1434 C1432 1.381 1_554 S
C1434 C1435 1.394 . S
C1434 H1442 0.930 . S
C1435 C1434 1.394 . S
C1435 C1436 1.383 . S
C1435 H1443 0.929 . S
C1436 C1435 1.383 . S
C1436 C1437 1.377 . S
C1437 H1421 0.930 . S
C1437 C1436 1.377 . S
C1437 C1438 1.379 1_554 S
C1438 H1422 0.931 . S
C1438 C1432 1.383 . S
C1438 C1437 1.379 1_556 S
H1439 C1433 0.959 . S
H1440 C1433 0.961 . S
H1441 C1433 0.960 1_554 S
H1442 C1434 0.930 . S
H1443 C1435 0.929 . S
H1444 C1452 0.929 . S
H1445 C1454 0.930 . S
H1446 C1456 0.930 . S
H1447 C1459 0.929 . S
H1448 C1462 0.930 . S
H1449 C1464 0.960 . S
H1450 C1464 0.960 . S
H1451 C1464 0.960 . S
C1452 H1444 0.929 . S
C1452 C1453 1.377 . S
C1452 C1454 1.384 . S
C1453 C1452 1.377 . S
C1453 C1459 1.390 . S
C1454 H1445 0.930 . S
C1454 C1452 1.384 . S
C1454 C1455 1.372 . S
C1455 C1454 1.372 . S
C1455 C1456 1.400 . S
C1455 C1460 1.490 . S
C1456 H1446 0.930 . S
C1456 C1455 1.400 . S
C1456 C1459 1.386 . S
H1457 C1473 0.930 . S
H1458 C1474 0.931 . S
C1459 H1447 0.929 . S
C1459 C1453 1.390 . S
C1459 C1456 1.386 . S
C1460 C1455 1.490 . S
C1460 C1462 1.395 . S
C1460 C1463 1.403 . S
H1461 C1467 0.930 . S
C1462 H1448 0.930 . S
C1462 C1460 1.395 . S
C1462 C1465 1.403 . S
C1463 C1460 1.403 . S
C1463 C1464 1.524 . S
C1463 C1467 1.400 . S
C1464 H1449 0.960 . S
C1464 H1450 0.960 . S
C1464 H1451 0.960 . S
C1464 C1463 1.524 . S
C1465 C1462 1.403 . S
C1465 C1466 1.392 . S
C1465 C1469 1.495 . S
C1466 C1465 1.392 . S
C1466 C1467 1.385 . S
C1466 C1468 1.478 . S
C1467 H1461 0.930 . S
C1467 C1463 1.400 . S
C1467 C1466 1.385 . S
C1468 C1466 1.478 . S
C1468 C1470 1.381 . S
C1468 C1474 1.383 . S
C1469 C1465 1.495 . S
C1469 H1475 0.959 . S
C1469 H1476 0.961 . S
C1469 H1477 0.960 . S
C1470 C1468 1.381 . S
C1470 C1471 1.394 . S
C1470 H1478 0.930 . S
C1471 C1470 1.394 . S
C1471 C1472 1.383 . S
C1471 H1479 0.929 . S
C1472 C1471 1.383 . S
C1472 C1473 1.377 . S
C1473 H1457 0.930 . S
C1473 C1472 1.377 . S
C1473 C1474 1.379 . S
C1474 H1458 0.931 . S
C1474 C1468 1.383 . S
C1474 C1473 1.379 . S
H1475 C1469 0.959 . S
H1476 C1469 0.961 . S
H1477 C1469 0.960 . S
H1478 C1470 0.930 . S
H1479 C1471 0.929 . S
H1480 C1488 0.929 . S
H1481 C1490 0.930 . S
H1482 C1492 0.930 . S
H1483 C1495 0.929 . S
H1484 C1498 0.930 . S
H1485 C1500 0.960 . S
H1486 C1500 0.960 . S
H1487 C1500 0.960 . S
C1488 H1480 0.929 . S
C1488 C1489 1.377 . S
C1488 C1490 1.384 . S
C1489 C1488 1.377 . S
C1489 C1495 1.390 . S
C1490 H1481 0.930 . S
C1490 C1488 1.384 . S
C1490 C1491 1.372 1_556 S
C1491 C1490 1.372 1_554 S
C1491 C1492 1.400 . S
C1491 C1496 1.490 . S
C1492 H1482 0.930 . S
C1492 C1491 1.400 . S
C1492 C1495 1.386 1_554 S
H1493 C1509 0.930 . S
H1494 C1510 0.931 . S
C1495 H1483 0.929 . S
C1495 C1489 1.390 . S
C1495 C1492 1.386 1_556 S
C1496 C1491 1.490 . S
C1496 C1498 1.395 . S
C1496 C1499 1.403 . S
H1497 C1503 0.930 . S
C1498 H1484 0.930 . S
C1498 C1496 1.395 . S
C1498 C1501 1.403 . S
C1499 C1496 1.403 . S
C1499 C1500 1.524 . S
C1499 C1503 1.400 . S
C1500 H1485 0.960 . S
C1500 H1486 0.960 . S
C1500 H1487 0.960 . S
C1500 C1499 1.524 . S
C1501 C1498 1.403 . S
C1501 C1502 1.392 . S
C1501 C1505 1.495 . S
C1502 C1501 1.392 . S
C1502 C1503 1.385 . S
C1502 C1504 1.478 . S
C1503 H1497 0.930 . S
C1503 C1499 1.400 . S
C1503 C1502 1.385 . S
C1504 C1502 1.478 . S
C1504 C1506 1.381 . S
C1504 C1510 1.383 . S
C1505 C1501 1.495 . S
C1505 H1511 0.959 . S
C1505 H1512 0.961 . S
C1505 H1513 0.960 . S
C1506 C1504 1.381 . S
C1506 C1507 1.394 . S
C1506 H1514 0.930 . S
C1507 C1506 1.394 . S
C1507 C1508 1.383 . S
C1507 H1515 0.929 . S
C1508 C1507 1.383 . S
C1508 C1509 1.377 . S
C1509 H1493 0.930 . S
C1509 C1508 1.377 . S
C1509 C1510 1.379 . S
C1510 H1494 0.931 . S
C1510 C1504 1.383 . S
C1510 C1509 1.379 . S
H1511 C1505 0.959 . S
H1512 C1505 0.961 . S
H1513 C1505 0.960 . S
H1514 C1506 0.930 . S
H1515 C1507 0.929 . S
H1516 C1524 0.929 . S
H1517 C1526 0.930 . S
H1518 C1528 0.930 . S
H1519 C1531 0.929 . S
H1520 C1534 0.930 . S
H1521 C1536 0.960 . S
H1522 C1536 0.960 . S
H1523 C1536 0.960 . S
C1524 H1516 0.929 . S
C1524 C1525 1.377 . S
C1524 C1526 1.384 . S
C1525 C1524 1.377 . S
C1525 C1531 1.390 . S
C1526 H1517 0.930 . S
C1526 C1524 1.384 . S
C1526 C1527 1.372 . S
C1527 C1526 1.372 . S
C1527 C1528 1.400 . S
C1527 C1532 1.490 . S
C1528 H1518 0.930 . S
C1528 C1527 1.400 . S
C1528 C1531 1.386 . S
H1529 C1545 0.930 . S
H1530 C1546 0.931 . S
C1531 H1519 0.929 . S
C1531 C1525 1.390 . S
C1531 C1528 1.386 . S
C1532 C1527 1.490 . S
C1532 C1534 1.395 . S
C1532 C1535 1.403 . S
H1533 C1539 0.930 . S
C1534 H1520 0.930 . S
C1534 C1532 1.395 . S
C1534 C1537 1.403 . S
C1535 C1532 1.403 . S
C1535 C1536 1.524 . S
C1535 C1539 1.400 . S
C1536 H1521 0.960 . S
C1536 H1522 0.960 . S
C1536 H1523 0.960 . S
C1536 C1535 1.524 . S
C1537 C1534 1.403 . S
C1537 C1538 1.392 . S
C1537 C1541 1.495 . S
C1538 C1537 1.392 . S
C1538 C1539 1.385 . S
C1538 C1540 1.478 . S
C1539 H1533 0.930 . S
C1539 C1535 1.400 . S
C1539 C1538 1.385 . S
C1540 C1538 1.478 . S
C1540 C1542 1.381 . S
C1540 C1546 1.383 . S
C1541 C1537 1.495 . S
C1541 H1547 0.959 . S
C1541 H1548 0.961 . S
C1541 H1549 0.960 . S
C1542 C1540 1.381 . S
C1542 C1543 1.394 . S
C1542 H1550 0.930 . S
C1543 C1542 1.394 . S
C1543 C1544 1.383 . S
C1543 H1551 0.929 . S
C1544 C1543 1.383 . S
C1544 C1545 1.377 . S
C1545 H1529 0.930 . S
C1545 C1544 1.377 . S
C1545 C1546 1.379 . S
C1546 H1530 0.931 . S
C1546 C1540 1.383 . S
C1546 C1545 1.379 . S
H1547 C1541 0.959 . S
H1548 C1541 0.961 . S
H1549 C1541 0.960 . S
H1550 C1542 0.930 . S
H1551 C1543 0.929 . S
H1552 C1560 0.929 . S
H1553 C1562 0.930 . S
H1554 C1564 0.930 . S
H1555 C1567 0.929 . S
H1556 C1570 0.930 . S
H1557 C1572 0.960 . S
H1558 C1572 0.960 . S
H1559 C1572 0.960 . S
C1560 H1552 0.929 . S
C1560 C1561 1.377 . S
C1560 C1562 1.384 . S
C1561 C1560 1.377 . S
C1561 C1567 1.390 . S
C1562 H1553 0.930 . S
C1562 C1560 1.384 . S
C1562 C1563 1.372 . S
C1563 C1562 1.372 . S
C1563 C1564 1.400 . S
C1563 C1568 1.490 . S
C1564 H1554 0.930 . S
C1564 C1563 1.400 . S
C1564 C1567 1.386 . S
H1565 C1581 0.930 . S
H1566 C1582 0.931 1_554 S
C1567 H1555 0.929 . S
C1567 C1561 1.390 . S
C1567 C1564 1.386 . S
C1568 C1563 1.490 . S
C1568 C1570 1.395 . S
C1568 C1571 1.403 . S
H1569 C1575 0.930 . S
C1570 H1556 0.930 . S
C1570 C1568 1.395 . S
C1570 C1573 1.403 . S
C1571 C1568 1.403 . S
C1571 C1572 1.524 . S
C1571 C1575 1.400 . S
C1572 H1557 0.960 . S
C1572 H1558 0.960 . S
C1572 H1559 0.960 . S
C1572 C1571 1.524 . S
C1573 C1570 1.403 . S
C1573 C1574 1.392 . S
C1573 C1577 1.495 . S
C1574 C1573 1.392 . S
C1574 C1575 1.385 . S
C1574 C1576 1.478 . S
C1575 H1569 0.930 . S
C1575 C1571 1.400 . S
C1575 C1574 1.385 . S
C1576 C1574 1.478 . S
C1576 C1578 1.381 1_554 S
C1576 C1582 1.383 1_554 S
C1577 C1573 1.495 . S
C1577 H1583 0.959 . S
C1577 H1584 0.961 . S
C1577 H1585 0.960 . S
C1578 C1576 1.381 1_556 S
C1578 C1579 1.394 . S
C1578 H1586 0.930 1_556 S
C1579 C1578 1.394 . S
C1579 C1580 1.383 . S
C1579 H1587 0.929 . S
C1580 C1579 1.383 . S
C1580 C1581 1.377 . S
C1581 H1565 0.930 . S
C1581 C1580 1.377 . S
C1581 C1582 1.379 . S
C1582 H1566 0.931 1_556 S
C1582 C1576 1.383 1_556 S
C1582 C1581 1.379 . S
H1583 C1577 0.959 . S
H1584 C1577 0.961 . S
H1585 C1577 0.960 . S
H1586 C1578 0.930 1_554 S
H1587 C1579 0.929 . S
H1588 C1596 0.929 . S
H1589 C1598 0.930 . S
H1590 C1600 0.930 . S
H1591 C1603 0.929 . S
H1592 C1606 0.930 . S
H1593 C1608 0.960 . S
H1594 C1608 0.960 . S
H1595 C1608 0.960 . S
C1596 H1588 0.929 . S
C1596 C1597 1.377 . S
C1596 C1598 1.384 . S
C1597 C1596 1.377 . S
C1597 C1603 1.390 . S
C1598 H1589 0.930 . S
C1598 C1596 1.384 . S
C1598 C1599 1.372 . S
C1599 C1598 1.372 . S
C1599 C1600 1.400 . S
C1599 C1604 1.490 . S
C1600 H1590 0.930 . S
C1600 C1599 1.400 . S
C1600 C1603 1.386 . S
H1601 C1617 0.930 . S
H1602 C1618 0.931 . S
C1603 H1591 0.929 . S
C1603 C1597 1.390 . S
C1603 C1600 1.386 . S
C1604 C1599 1.490 . S
C1604 C1606 1.395 . S
C1604 C1607 1.403 . S
H1605 C1611 0.930 . S
C1606 H1592 0.930 . S
C1606 C1604 1.395 . S
C1606 C1609 1.403 . S
C1607 C1604 1.403 . S
C1607 C1608 1.524 . S
C1607 C1611 1.400 . S
C1608 H1593 0.960 . S
C1608 H1594 0.960 . S
C1608 H1595 0.960 . S
C1608 C1607 1.524 . S
C1609 C1606 1.403 . S
C1609 C1610 1.392 . S
C1609 C1613 1.495 . S
C1610 C1609 1.392 . S
C1610 C1611 1.385 . S
C1610 C1612 1.478 . S
C1611 H1605 0.930 . S
C1611 C1607 1.400 . S
C1611 C1610 1.385 . S
C1612 C1610 1.478 . S
C1612 C1614 1.381 . S
C1612 C1618 1.383 . S
C1613 C1609 1.495 . S
C1613 H1619 0.959 . S
C1613 H1620 0.961 . S
C1613 H1621 0.960 . S
C1614 C1612 1.381 . S
C1614 C1615 1.394 . S
C1614 H1622 0.930 . S
C1615 C1614 1.394 . S
C1615 C1616 1.383 . S
C1615 H1623 0.929 . S
C1616 C1615 1.383 . S
C1616 C1617 1.377 . S
C1617 H1601 0.930 . S
C1617 C1616 1.377 . S
C1617 C1618 1.379 . S
C1618 H1602 0.931 . S
C1618 C1612 1.383 . S
C1618 C1617 1.379 . S
H1619 C1613 0.959 . S
H1620 C1613 0.961 . S
H1621 C1613 0.960 . S
H1622 C1614 0.930 . S
H1623 C1615 0.929 . S
H1624 C1632 0.929 . S
H1625 C1634 0.930 . S
H1626 C1636 0.930 1_556 S
H1627 C1639 0.929 . S
H1628 C1642 0.930 . S
H1629 C1644 0.960 . S
H1630 C1644 0.960 1_554 S
H1631 C1644 0.960 . S
C1632 H1624 0.929 . S
C1632 C1633 1.377 . S
C1632 C1634 1.384 . S
C1633 C1632 1.377 . S
C1633 C1639 1.390 . S
C1634 H1625 0.930 . S
C1634 C1632 1.384 . S
C1634 C1635 1.372 1_554 S
C1635 C1634 1.372 1_556 S
C1635 C1636 1.400 1_556 S
C1635 C1640 1.490 . S
C1636 H1626 0.930 1_554 S
C1636 C1635 1.400 1_554 S
C1636 C1639 1.386 . S
H1637 C1653 0.930 . S
H1638 C1654 0.931 . S
C1639 H1627 0.929 . S
C1639 C1633 1.390 . S
C1639 C1636 1.386 . S
C1640 C1635 1.490 . S
C1640 C1642 1.395 . S
C1640 C1643 1.403 . S
H1641 C1647 0.930 . S
C1642 H1628 0.930 . S
C1642 C1640 1.395 . S
C1642 C1645 1.403 . S
C1643 C1640 1.403 . S
C1643 C1644 1.524 . S
C1643 C1647 1.400 . S
C1644 H1629 0.960 . S
C1644 H1630 0.960 1_556 S
C1644 H1631 0.960 . S
C1644 C1643 1.524 . S
C1645 C1642 1.403 . S
C1645 C1646 1.392 . S
C1645 C1649 1.495 . S
C1646 C1645 1.392 . S
C1646 C1647 1.385 . S
C1646 C1648 1.478 . S
C1647 H1641 0.930 . S
C1647 C1643 1.400 . S
C1647 C1646 1.385 . S
C1648 C1646 1.478 . S
C1648 C1650 1.381 . S
C1648 C1654 1.383 . S
C1649 C1645 1.495 . S
C1649 H1655 0.959 . S
C1649 H1656 0.961 . S
C1649 H1657 0.960 . S
C1650 C1648 1.381 . S
C1650 C1651 1.394 . S
C1650 H1658 0.930 . S
C1651 C1650 1.394 . S
C1651 C1652 1.383 . S
C1651 H1659 0.929 . S
C1652 C1651 1.383 . S
C1652 C1653 1.377 . S
C1653 H1637 0.930 . S
C1653 C1652 1.377 . S
C1653 C1654 1.379 . S
C1654 H1638 0.931 . S
C1654 C1648 1.383 . S
C1654 C1653 1.379 . S
H1655 C1649 0.959 . S
H1656 C1649 0.961 . S
H1657 C1649 0.960 . S
H1658 C1650 0.930 . S
H1659 C1651 0.929 . S
H1660 C1668 0.929 . S
H1661 C1670 0.930 . S
H1662 C1672 0.930 . S
H1663 C1675 0.929 . S
H1664 C1678 0.930 . S
H1665 C1680 0.960 . S
H1666 C1680 0.960 . S
H1667 C1680 0.960 . S
C1668 H1660 0.929 . S
C1668 C1669 1.377 . S
C1668 C1670 1.384 . S
C1669 C1668 1.377 . S
C1669 C1675 1.390 . S
C1670 H1661 0.930 . S
C1670 C1668 1.384 . S
C1670 C1671 1.372 . S
C1671 C1670 1.372 . S
C1671 C1672 1.400 . S
C1671 C1676 1.490 . S
C1672 H1662 0.930 . S
C1672 C1671 1.400 . S
C1672 C1675 1.386 . S
H1673 C1689 0.930 . S
H1674 C1690 0.931 . S
C1675 H1663 0.929 . S
C1675 C1669 1.390 . S
C1675 C1672 1.386 . S
C1676 C1671 1.490 . S
C1676 C1678 1.395 . S
C1676 C1679 1.403 . S
H1677 C1683 0.930 . S
C1678 H1664 0.930 . S
C1678 C1676 1.395 . S
C1678 C1681 1.403 . S
C1679 C1676 1.403 . S
C1679 C1680 1.524 . S
C1679 C1683 1.400 . S
C1680 H1665 0.960 . S
C1680 H1666 0.960 . S
C1680 H1667 0.960 . S
C1680 C1679 1.524 . S
C1681 C1678 1.403 . S
C1681 C1682 1.392 . S
C1681 C1685 1.495 . S
C1682 C1681 1.392 . S
C1682 C1683 1.385 . S
C1682 C1684 1.478 . S
C1683 H1677 0.930 . S
C1683 C1679 1.400 . S
C1683 C1682 1.385 . S
C1684 C1682 1.478 . S
C1684 C1686 1.381 . S
C1684 C1690 1.383 . S
C1685 C1681 1.495 . S
C1685 H1691 0.959 . S
C1685 H1692 0.961 . S
C1685 H1693 0.960 . S
C1686 C1684 1.381 . S
C1686 C1687 1.394 . S
C1686 H1694 0.930 . S
C1687 C1686 1.394 . S
C1687 C1688 1.383 . S
C1687 H1695 0.929 . S
C1688 C1687 1.383 . S
C1688 C1689 1.377 . S
C1689 H1673 0.930 . S
C1689 C1688 1.377 . S
C1689 C1690 1.379 . S
C1690 H1674 0.931 . S
C1690 C1684 1.383 . S
C1690 C1689 1.379 . S
H1691 C1685 0.959 . S
H1692 C1685 0.961 . S
H1693 C1685 0.960 . S
H1694 C1686 0.930 . S
H1695 C1687 0.929 . S
H1696 C1704 0.929 . S
H1697 C1706 0.930 . S
H1698 C1708 0.930 . S
H1699 C1711 0.929 . S
H1700 C1714 0.930 . S
H1701 C1716 0.960 . S
H1702 C1716 0.960 . S
H1703 C1716 0.960 1_554 S
C1704 H1696 0.929 . S
C1704 C1705 1.377 . S
C1704 C1706 1.384 1_554 S
C1705 C1704 1.377 . S
C1705 C1711 1.390 . S
C1706 H1697 0.930 . S
C1706 C1704 1.384 1_556 S
C1706 C1707 1.372 . S
C1707 C1706 1.372 . S
C1707 C1708 1.400 1_556 S
C1707 C1712 1.490 . S
C1708 H1698 0.930 . S
C1708 C1707 1.400 1_554 S
C1708 C1711 1.386 . S
H1709 C1725 0.930 . S
H1710 C1726 0.931 . S
C1711 H1699 0.929 . S
C1711 C1705 1.390 . S
C1711 C1708 1.386 . S
C1712 C1707 1.490 . S
C1712 C1714 1.395 . S
C1712 C1715 1.403 . S
H1713 C1719 0.930 . S
C1714 H1700 0.930 . S
C1714 C1712 1.395 . S
C1714 C1717 1.403 . S
C1715 C1712 1.403 . S
C1715 C1716 1.524 . S
C1715 C1719 1.400 . S
C1716 H1701 0.960 . S
C1716 H1702 0.960 . S
C1716 H1703 0.960 1_556 S
C1716 C1715 1.524 . S
C1717 C1714 1.403 . S
C1717 C1718 1.392 . S
C1717 C1721 1.495 . S
C1718 C1717 1.392 . S
C1718 C1719 1.385 . S
C1718 C1720 1.478 . S
C1719 H1713 0.930 . S
C1719 C1715 1.400 . S
C1719 C1718 1.385 . S
C1720 C1718 1.478 . S
C1720 C1722 1.381 . S
C1720 C1726 1.383 . S
C1721 C1717 1.495 . S
C1721 H1727 0.959 . S
C1721 H1728 0.961 . S
C1721 H1729 0.960 . S
C1722 C1720 1.381 . S
C1722 C1723 1.394 . S
C1722 H1730 0.930 . S
C1723 C1722 1.394 . S
C1723 C1724 1.383 . S
C1723 H1731 0.929 . S
C1724 C1723 1.383 . S
C1724 C1725 1.377 . S
C1725 H1709 0.930 . S
C1725 C1724 1.377 . S
C1725 C1726 1.379 . S
C1726 H1710 0.931 . S
C1726 C1720 1.383 . S
C1726 C1725 1.379 . S
H1727 C1721 0.959 . S
H1728 C1721 0.961 . S
H1729 C1721 0.960 . S
H1730 C1722 0.930 . S
H1731 C1723 0.929 . S
H1732 C1740 0.929 . S
H1733 C1742 0.930 . S
H1734 C1744 0.930 . S
H1735 C1747 0.929 . S
H1736 C1750 0.930 . S
H1737 C1752 0.960 . S
H1738 C1752 0.960 . S
H1739 C1752 0.960 . S
C1740 H1732 0.929 . S
C1740 C1741 1.377 . S
C1740 C1742 1.384 . S
C1741 C1740 1.377 . S
C1741 C1747 1.390 . S
C1742 H1733 0.930 . S
C1742 C1740 1.384 . S
C1742 C1743 1.372 . S
C1743 C1742 1.372 . S
C1743 C1744 1.400 . S
C1743 C1748 1.490 . S
C1744 H1734 0.930 . S
C1744 C1743 1.400 . S
C1744 C1747 1.386 . S
H1745 C1761 0.930 . S
H1746 C1762 0.931 . S
C1747 H1735 0.929 . S
C1747 C1741 1.390 . S
C1747 C1744 1.386 . S
C1748 C1743 1.490 . S
C1748 C1750 1.395 . S
C1748 C1751 1.403 . S
H1749 C1755 0.930 . S
C1750 H1736 0.930 . S
C1750 C1748 1.395 . S
C1750 C1753 1.403 . S
C1751 C1748 1.403 . S
C1751 C1752 1.524 . S
C1751 C1755 1.400 . S
C1752 H1737 0.960 . S
C1752 H1738 0.960 . S
C1752 H1739 0.960 . S
C1752 C1751 1.524 . S
C1753 C1750 1.403 . S
C1753 C1754 1.392 . S
C1753 C1757 1.495 . S
C1754 C1753 1.392 . S
C1754 C1755 1.385 . S
C1754 C1756 1.478 . S
C1755 H1749 0.930 . S
C1755 C1751 1.400 . S
C1755 C1754 1.385 . S
C1756 C1754 1.478 . S
C1756 C1758 1.381 . S
C1756 C1762 1.383 . S
C1757 C1753 1.495 . S
C1757 H1763 0.959 . S
C1757 H1764 0.961 . S
C1757 H1765 0.960 . S
C1758 C1756 1.381 . S
C1758 C1759 1.394 . S
C1758 H1766 0.930 . S
C1759 C1758 1.394 . S
C1759 C1760 1.383 . S
C1759 H1767 0.929 . S
C1760 C1759 1.383 . S
C1760 C1761 1.377 . S
C1761 H1745 0.930 . S
C1761 C1760 1.377 . S
C1761 C1762 1.379 . S
C1762 H1746 0.931 . S
C1762 C1756 1.383 . S
C1762 C1761 1.379 . S
H1763 C1757 0.959 . S
H1764 C1757 0.961 . S
H1765 C1757 0.960 . S
H1766 C1758 0.930 . S
H1767 C1759 0.929 . S
H1768 C1776 0.929 . S
H1769 C1778 0.930 . S
H1770 C1780 0.930 . S
H1771 C1783 0.929 . S
H1772 C1786 0.930 . S
H1773 C1788 0.960 . S
H1774 C1788 0.960 . S
H1775 C1788 0.960 . S
C1776 H1768 0.929 . S
C1776 C1777 1.377 . S
C1776 C1778 1.384 . S
C1777 C1776 1.377 . S
C1777 C1783 1.390 . S
C1778 H1769 0.930 . S
C1778 C1776 1.384 . S
C1778 C1779 1.372 . S
C1779 C1778 1.372 . S
C1779 C1780 1.400 . S
C1779 C1784 1.490 . S
C1780 H1770 0.930 . S
C1780 C1779 1.400 . S
C1780 C1783 1.386 . S
H1781 C1797 0.930 . S
H1782 C1798 0.931 . S
C1783 H1771 0.929 . S
C1783 C1777 1.390 . S
C1783 C1780 1.386 . S
C1784 C1779 1.490 . S
C1784 C1786 1.395 . S
C1784 C1787 1.403 . S
H1785 C1791 0.930 . S
C1786 H1772 0.930 . S
C1786 C1784 1.395 . S
C1786 C1789 1.403 . S
C1787 C1784 1.403 . S
C1787 C1788 1.524 . S
C1787 C1791 1.400 . S
C1788 H1773 0.960 . S
C1788 H1774 0.960 . S
C1788 H1775 0.960 . S
C1788 C1787 1.524 . S
C1789 C1786 1.403 . S
C1789 C1790 1.392 . S
C1789 C1793 1.495 . S
C1790 C1789 1.392 . S
C1790 C1791 1.385 . S
C1790 C1792 1.478 . S
C1791 H1785 0.930 . S
C1791 C1787 1.400 . S
C1791 C1790 1.385 . S
C1792 C1790 1.478 . S
C1792 C1794 1.381 1_554 S
C1792 C1798 1.383 . S
C1793 C1789 1.495 . S
C1793 H1799 0.959 . S
C1793 H1800 0.961 . S
C1793 H1801 0.960 . S
C1794 C1792 1.381 1_556 S
C1794 C1795 1.394 . S
C1794 H1802 0.930 . S
C1795 C1794 1.394 . S
C1795 C1796 1.383 . S
C1795 H1803 0.929 . S
C1796 C1795 1.383 . S
C1796 C1797 1.377 . S
C1797 H1781 0.930 . S
C1797 C1796 1.377 . S
C1797 C1798 1.379 1_556 S
C1798 H1782 0.931 . S
C1798 C1792 1.383 . S
C1798 C1797 1.379 1_554 S
H1799 C1793 0.959 . S
H1800 C1793 0.961 . S
H1801 C1793 0.960 . S
H1802 C1794 0.930 . S
H1803 C1795 0.929 . S
H1804 C1812 0.929 . S
H1805 C1814 0.930 . S
H1806 C1816 0.930 . S
H1807 C1819 0.929 . S
H1808 C1822 0.930 . S
H1809 C1824 0.960 . S
H1810 C1824 0.960 . S
H1811 C1824 0.960 . S
C1812 H1804 0.929 . S
C1812 C1813 1.377 . S
C1812 C1814 1.384 . S
C1813 C1812 1.377 . S
C1813 C1819 1.390 . S
C1814 H1805 0.930 . S
C1814 C1812 1.384 . S
C1814 C1815 1.372 . S
C1815 C1814 1.372 . S
C1815 C1816 1.400 . S
C1815 C1820 1.490 . S
C1816 H1806 0.930 . S
C1816 C1815 1.400 . S
C1816 C1819 1.386 . S
H1817 C1833 0.930 . S
H1818 C1834 0.931 . S
C1819 H1807 0.929 . S
C1819 C1813 1.390 . S
C1819 C1816 1.386 . S
C1820 C1815 1.490 . S
C1820 C1822 1.395 . S
C1820 C1823 1.403 . S
H1821 C1827 0.930 . S
C1822 H1808 0.930 . S
C1822 C1820 1.395 . S
C1822 C1825 1.403 . S
C1823 C1820 1.403 . S
C1823 C1824 1.524 . S
C1823 C1827 1.400 . S
C1824 H1809 0.960 . S
C1824 H1810 0.960 . S
C1824 H1811 0.960 . S
C1824 C1823 1.524 . S
C1825 C1822 1.403 . S
C1825 C1826 1.392 . S
C1825 C1829 1.495 . S
C1826 C1825 1.392 . S
C1826 C1827 1.385 . S
C1826 C1828 1.478 . S
C1827 H1821 0.930 . S
C1827 C1823 1.400 . S
C1827 C1826 1.385 . S
C1828 C1826 1.478 . S
C1828 C1830 1.381 . S
C1828 C1834 1.383 . S
C1829 C1825 1.495 . S
C1829 H1835 0.959 . S
C1829 H1836 0.961 . S
C1829 H1837 0.960 . S
C1830 C1828 1.381 . S
C1830 C1831 1.394 . S
C1830 H1838 0.930 . S
C1831 C1830 1.394 . S
C1831 C1832 1.383 . S
C1831 H1839 0.929 . S
C1832 C1831 1.383 . S
C1832 C1833 1.377 . S
C1833 H1817 0.930 . S
C1833 C1832 1.377 . S
C1833 C1834 1.379 . S
C1834 H1818 0.931 . S
C1834 C1828 1.383 . S
C1834 C1833 1.379 . S
H1835 C1829 0.959 . S
H1836 C1829 0.961 . S
H1837 C1829 0.960 . S
H1838 C1830 0.930 . S
H1839 C1831 0.929 . S
H1840 C1848 0.929 . S
H1841 C1850 0.930 . S
H1842 C1852 0.930 1_554 S
H1843 C1855 0.929 . S
H1844 C1858 0.930 . S
H1845 C1860 0.960 . S
H1846 C1860 0.960 . S
H1847 C1860 0.960 . S
C1848 H1840 0.929 . S
C1848 C1849 1.377 . S
C1848 C1850 1.384 . S
C1849 C1848 1.377 . S
C1849 C1855 1.390 . S
C1850 H1841 0.930 . S
C1850 C1848 1.384 . S
C1850 C1851 1.372 1_556 S
C1851 C1850 1.372 1_554 S
C1851 C1852 1.400 1_554 S
C1851 C1856 1.490 . S
C1852 H1842 0.930 1_556 S
C1852 C1851 1.400 1_556 S
C1852 C1855 1.386 . S
H1853 C1869 0.930 . S
H1854 C1870 0.931 . S
C1855 H1843 0.929 . S
C1855 C1849 1.390 . S
C1855 C1852 1.386 . S
C1856 C1851 1.490 . S
C1856 C1858 1.395 . S
C1856 C1859 1.403 . S
H1857 C1863 0.930 . S
C1858 H1844 0.930 . S
C1858 C1856 1.395 . S
C1858 C1861 1.403 . S
C1859 C1856 1.403 . S
C1859 C1860 1.524 . S
C1859 C1863 1.400 . S
C1860 H1845 0.960 . S
C1860 H1846 0.960 . S
C1860 H1847 0.960 . S
C1860 C1859 1.524 . S
C1861 C1858 1.403 . S
C1861 C1862 1.392 . S
C1861 C1865 1.495 . S
C1862 C1861 1.392 . S
C1862 C1863 1.385 . S
C1862 C1864 1.478 . S
C1863 H1857 0.930 . S
C1863 C1859 1.400 . S
C1863 C1862 1.385 . S
C1864 C1862 1.478 . S
C1864 C1866 1.381 . S
C1864 C1870 1.383 . S
C1865 C1861 1.495 . S
C1865 H1871 0.959 . S
C1865 H1872 0.961 . S
C1865 H1873 0.960 . S
C1866 C1864 1.381 . S
C1866 C1867 1.394 . S
C1866 H1874 0.930 . S
C1867 C1866 1.394 . S
C1867 C1868 1.383 . S
C1867 H1875 0.929 . S
C1868 C1867 1.383 . S
C1868 C1869 1.377 . S
C1869 H1853 0.930 . S
C1869 C1868 1.377 . S
C1869 C1870 1.379 . S
C1870 H1854 0.931 . S
C1870 C1864 1.383 . S
C1870 C1869 1.379 . S
H1871 C1865 0.959 . S
H1872 C1865 0.961 . S
H1873 C1865 0.960 . S
H1874 C1866 0.930 . S
H1875 C1867 0.929 . S
H1876 C1884 0.929 . S
H1877 C1886 0.930 . S
H1878 C1888 0.930 . S
H1879 C1891 0.929 . S
H1880 C1894 0.930 . S
H1881 C1896 0.960 . S
H1882 C1896 0.960 . S
H1883 C1896 0.960 . S
C1884 H1876 0.929 . S
C1884 C1885 1.377 . S
C1884 C1886 1.384 . S
C1885 C1884 1.377 . S
C1885 C1891 1.390 . S
C1886 H1877 0.930 . S
C1886 C1884 1.384 . S
C1886 C1887 1.372 . S
C1887 C1886 1.372 . S
C1887 C1888 1.400 . S
C1887 C1892 1.490 . S
C1888 H1878 0.930 . S
C1888 C1887 1.400 . S
C1888 C1891 1.386 . S
H1889 C1905 0.930 . S
H1890 C1906 0.931 . S
C1891 H1879 0.929 . S
C1891 C1885 1.390 . S
C1891 C1888 1.386 . S
C1892 C1887 1.490 . S
C1892 C1894 1.395 . S
C1892 C1895 1.403 . S
H1893 C1899 0.930 . S
C1894 H1880 0.930 . S
C1894 C1892 1.395 . S
C1894 C1897 1.403 . S
C1895 C1892 1.403 . S
C1895 C1896 1.524 . S
C1895 C1899 1.400 . S
C1896 H1881 0.960 . S
C1896 H1882 0.960 . S
C1896 H1883 0.960 . S
C1896 C1895 1.524 . S
C1897 C1894 1.403 . S
C1897 C1898 1.392 . S
C1897 C1901 1.495 . S
C1898 C1897 1.392 . S
C1898 C1899 1.385 . S
C1898 C1900 1.478 . S
C1899 H1893 0.930 . S
C1899 C1895 1.400 . S
C1899 C1898 1.385 . S
C1900 C1898 1.478 . S
C1900 C1902 1.381 . S
C1900 C1906 1.383 . S
C1901 C1897 1.495 . S
C1901 H1907 0.959 . S
C1901 H1908 0.961 . S
C1901 H1909 0.960 . S
C1902 C1900 1.381 . S
C1902 C1903 1.394 . S
C1902 H1910 0.930 . S
C1903 C1902 1.394 . S
C1903 C1904 1.383 . S
C1903 H1911 0.929 . S
C1904 C1903 1.383 . S
C1904 C1905 1.377 . S
C1905 H1889 0.930 . S
C1905 C1904 1.377 . S
C1905 C1906 1.379 . S
C1906 H1890 0.931 . S
C1906 C1900 1.383 . S
C1906 C1905 1.379 . S
H1907 C1901 0.959 . S
H1908 C1901 0.961 . S
H1909 C1901 0.960 . S
H1910 C1902 0.930 . S
H1911 C1903 0.929 . S
H1912 C1920 0.929 . S
H1913 C1922 0.930 . S
H1914 C1924 0.930 . S
H1915 C1927 0.929 . S
H1916 C1930 0.930 . S
H1917 C1932 0.960 . S
H1918 C1932 0.960 . S
H1919 C1932 0.960 . S
C1920 H1912 0.929 . S
C1920 C1921 1.377 . S
C1920 C1922 1.384 . S
C1921 C1920 1.377 . S
C1921 C1927 1.390 . S
C1922 H1913 0.930 . S
C1922 C1920 1.384 . S
C1922 C1923 1.372 . S
C1923 C1922 1.372 . S
C1923 C1924 1.400 . S
C1923 C1928 1.490 . S
C1924 H1914 0.930 . S
C1924 C1923 1.400 . S
C1924 C1927 1.386 . S
H1925 C1941 0.930 . S
H1926 C1942 0.931 . S
C1927 H1915 0.929 . S
C1927 C1921 1.390 . S
C1927 C1924 1.386 . S
C1928 C1923 1.490 . S
C1928 C1930 1.395 . S
C1928 C1931 1.403 . S
H1929 C1935 0.930 . S
C1930 H1916 0.930 . S
C1930 C1928 1.395 . S
C1930 C1933 1.403 . S
C1931 C1928 1.403 . S
C1931 C1932 1.524 . S
C1931 C1935 1.400 . S
C1932 H1917 0.960 . S
C1932 H1918 0.960 . S
C1932 H1919 0.960 . S
C1932 C1931 1.524 . S
C1933 C1930 1.403 . S
C1933 C1934 1.392 . S
C1933 C1937 1.495 . S
C1934 C1933 1.392 . S
C1934 C1935 1.385 . S
C1934 C1936 1.478 . S
C1935 H1929 0.930 . S
C1935 C1931 1.400 . S
C1935 C1934 1.385 . S
C1936 C1934 1.478 . S
C1936 C1938 1.381 . S
C1936 C1942 1.383 1_556 S
C1937 C1933 1.495 . S
C1937 H1943 0.959 . S
C1937 H1944 0.961 . S
C1937 H1945 0.960 . S
C1938 C1936 1.381 . S
C1938 C1939 1.394 1_556 S
C1938 H1946 0.930 . S
C1939 C1938 1.394 1_554 S
C1939 C1940 1.383 . S
C1939 H1947 0.929 . S
C1940 C1939 1.383 . S
C1940 C1941 1.377 . S
C1941 H1925 0.930 . S
C1941 C1940 1.377 . S
C1941 C1942 1.379 . S
C1942 H1926 0.931 . S
C1942 C1936 1.383 1_554 S
C1942 C1941 1.379 . S
H1943 C1937 0.959 . S
H1944 C1937 0.961 . S
H1945 C1937 0.960 . S
H1946 C1938 0.930 . S
H1947 C1939 0.929 . S
H1948 C1956 0.929 . S
H1949 C1958 0.930 . S
H1950 C1960 0.930 . S
H1951 C1963 0.929 . S
H1952 C1966 0.930 . S
H1953 C1968 0.960 . S
H1954 C1968 0.960 . S
H1955 C1968 0.960 . S
C1956 H1948 0.929 . S
C1956 C1957 1.377 . S
C1956 C1958 1.384 . S
C1957 C1956 1.377 . S
C1957 C1963 1.390 . S
C1958 H1949 0.930 . S
C1958 C1956 1.384 . S
C1958 C1959 1.372 . S
C1959 C1958 1.372 . S
C1959 C1960 1.400 . S
C1959 C1964 1.490 . S
C1960 H1950 0.930 . S
C1960 C1959 1.400 . S
C1960 C1963 1.386 . S
H1961 C1977 0.930 . S
H1962 C1978 0.931 . S
C1963 H1951 0.929 . S
C1963 C1957 1.390 . S
C1963 C1960 1.386 . S
C1964 C1959 1.490 . S
C1964 C1966 1.395 . S
C1964 C1967 1.403 . S
H1965 C1971 0.930 . S
C1966 H1952 0.930 . S
C1966 C1964 1.395 . S
C1966 C1969 1.403 . S
C1967 C1964 1.403 . S
C1967 C1968 1.524 . S
C1967 C1971 1.400 . S
C1968 H1953 0.960 . S
C1968 H1954 0.960 . S
C1968 H1955 0.960 . S
C1968 C1967 1.524 . S
C1969 C1966 1.403 . S
C1969 C1970 1.392 . S
C1969 C1973 1.495 . S
C1970 C1969 1.392 . S
C1970 C1971 1.385 . S
C1970 C1972 1.478 . S
C1971 H1965 0.930 . S
C1971 C1967 1.400 . S
C1971 C1970 1.385 . S
C1972 C1970 1.478 . S
C1972 C1974 1.381 . S
C1972 C1978 1.383 . S
C1973 C1969 1.495 . S
C1973 H1979 0.959 . S
C1973 H1980 0.961 . S
C1973 H1981 0.960 . S
C1974 C1972 1.381 . S
C1974 C1975 1.394 . S
C1974 H1982 0.930 . S
C1975 C1974 1.394 . S
C1975 C1976 1.383 . S
C1975 H1983 0.929 . S
C1976 C1975 1.383 . S
C1976 C1977 1.377 . S
C1977 H1961 0.930 . S
C1977 C1976 1.377 . S
C1977 C1978 1.379 . S
C1978 H1962 0.931 . S
C1978 C1972 1.383 . S
C1978 C1977 1.379 . S
H1979 C1973 0.959 . S
H1980 C1973 0.961 . S
H1981 C1973 0.960 . S
H1982 C1974 0.930 . S
H1983 C1975 0.929 . S
C553 C9 1.464 . S
C572 C111 1.490 . S
C589 C77 1.472 . S
C608 C43 1.469 . S
C625 C247 1.463 . S
C644 C145 1.464 . S
C661 C179 1.464 . S
C680 C213 1.458 . S
C697 C281 1.461 . S
C716 C383 1.476 . S
C733 C315 1.460 . S
C752 C349 1.448 . S
C769 C519 1.466 . S
C788 C417 1.451 . S
C805 C451 1.461 . S
C824 C485 1.478 . S
C841 C209 1.490 . S
C860 C5 1.494 . S
C877 C243 1.495 . S
C896 C39 1.479 . S
C913 C141 1.493 . S
C932 C73 1.500 . S
C949 C175 1.495 . S
C968 C107 1.485 . S
C985 C481 1.491 . S
C1004 C277 1.499 . S
C1021 C515 1.495 . S
C1040 C311 1.488 . S
C1057 C413 1.490 . S
C1076 C345 1.498 . S
C1093 C379 1.493 . S
C1112 C447 1.499 . S
C1129 C2 1.548 . S
C1148 C70 1.547 . S
C1165 C36 1.544 . S
C1184 C104 1.553 . S
C1201 C138 1.544 . S
C1220 C206 1.537 . S
C1237 C172 1.544 . S
C1256 C240 1.532 . S
C1273 C274 1.544 . S
C1292 C342 1.538 . S
C1309 C308 1.545 . S
C1328 C376 1.553 . S
C1345 C410 1.544 . S
C1364 C478 1.532 . S
C1381 C444 1.545 . S
C1400 C512 1.541 . S
C1417 C530 1.316 . S
C1436 C33 1.317 . S
C1453 C67 1.315 . S
C1472 C496 1.312 . S
C1489 C101 1.317 . S
C1508 C462 1.315 . S
C1525 C428 1.316 . S
C1544 C135 1.310 . S
C1561 C394 1.316 . S
C1580 C169 1.311 . S
C1597 C203 1.315 . S
C1616 C360 1.316 . S
C1633 C237 1.317 . S
C1652 C326 1.311 . S
C1669 C271 1.317 . S
C1688 C292 1.312 . S
C1705 C305 1.315 . S
C1724 C258 1.312 . S
C1741 C224 1.316 . S
C1760 C339 1.309 . S
C1777 C190 1.317 . S
C1796 C373 1.316 . S
C1813 C407 1.316 . S
C1832 C156 1.316 . S
C1849 C441 1.315 . S
C1868 C122 1.316 . S
C1885 C88 1.316 . S
C1904 C475 1.310 . S
C1921 C54 1.315 . S
C1940 C509 1.316 . S
C1957 C20 1.317 . S
C1976 C543 1.310 . S
