# Generated by pormake.
# Topology wfa, (4)-cn, num edge types: 1
# Building blocks:
#     Node 0, Type 0, BuildingBlock: ICAMEG_clean_sbu_1, # of connection points: 4
#     Node 1, Type 0, BuildingBlock: ICAMEG_clean_sbu_1, # of connection points: 4
#     Node 2, Type 0, BuildingBlock: ICAMEG_clean_sbu_1, # of connection points: 4
#     Node 3, Type 0, BuildingBlock: ICAMEG_clean_sbu_1, # of connection points: 4
#     Node 4, Type 0, BuildingBlock: ICAMEG_clean_sbu_1, # of connection points: 4
#     Node 5, Type 0, BuildingBlock: ICAMEG_clean_sbu_1, # of connection points: 4
#     Node 6, Type 0, BuildingBlock: ICAMEG_clean_sbu_1, # of connection points: 4
#     Node 7, Type 0, BuildingBlock: ICAMEG_clean_sbu_1, # of connection points: 4
#     Node 8, Type 0, BuildingBlock: ICAMEG_clean_sbu_1, # of connection points: 4
#     Node 9, Type 0, BuildingBlock: ICAMEG_clean_sbu_1, # of connection points: 4
#     Node 10, Type 0, BuildingBlock: ICAMEG_clean_sbu_1, # of connection points: 4
#     Node 11, Type 0, BuildingBlock: ICAMEG_clean_sbu_1, # of connection points: 4
#     Node 12, Type 0, BuildingBlock: ICAMEG_clean_sbu_1, # of connection points: 4
#     Node 13, Type 0, BuildingBlock: ICAMEG_clean_sbu_1, # of connection points: 4
#     Node 14, Type 0, BuildingBlock: ICAMEG_clean_sbu_1, # of connection points: 4
#     Node 15, Type 0, BuildingBlock: ICAMEG_clean_sbu_1, # of connection points: 4
#     Edge 16, Type (0, 0), BuildingBlock: XIVTED_clean_linker_0, # of connection points: 2
#     Edge 17, Type (0, 0), BuildingBlock: XIVTED_clean_linker_0, # of connection points: 2
#     Edge 18, Type (0, 0), BuildingBlock: XIVTED_clean_linker_0, # of connection points: 2
#     Edge 19, Type (0, 0), BuildingBlock: XIVTED_clean_linker_0, # of connection points: 2
#     Edge 20, Type (0, 0), BuildingBlock: XIVTED_clean_linker_0, # of connection points: 2
#     Edge 21, Type (0, 0), BuildingBlock: XIVTED_clean_linker_0, # of connection points: 2
#     Edge 22, Type (0, 0), BuildingBlock: XIVTED_clean_linker_0, # of connection points: 2
#     Edge 23, Type (0, 0), BuildingBlock: XIVTED_clean_linker_0, # of connection points: 2
#     Edge 24, Type (0, 0), BuildingBlock: XIVTED_clean_linker_0, # of connection points: 2
#     Edge 25, Type (0, 0), BuildingBlock: XIVTED_clean_linker_0, # of connection points: 2
#     Edge 26, Type (0, 0), BuildingBlock: XIVTED_clean_linker_0, # of connection points: 2
#     Edge 27, Type (0, 0), BuildingBlock: XIVTED_clean_linker_0, # of connection points: 2
#     Edge 28, Type (0, 0), BuildingBlock: XIVTED_clean_linker_0, # of connection points: 2
#     Edge 29, Type (0, 0), BuildingBlock: XIVTED_clean_linker_0, # of connection points: 2
#     Edge 30, Type (0, 0), BuildingBlock: XIVTED_clean_linker_0, # of connection points: 2
#     Edge 31, Type (0, 0), BuildingBlock: XIVTED_clean_linker_0, # of connection points: 2
#     Edge 32, Type (0, 0), BuildingBlock: XIVTED_clean_linker_0, # of connection points: 2
#     Edge 33, Type (0, 0), BuildingBlock: XIVTED_clean_linker_0, # of connection points: 2
#     Edge 34, Type (0, 0), BuildingBlock: XIVTED_clean_linker_0, # of connection points: 2
#     Edge 35, Type (0, 0), BuildingBlock: XIVTED_clean_linker_0, # of connection points: 2
#     Edge 36, Type (0, 0), BuildingBlock: XIVTED_clean_linker_0, # of connection points: 2
#     Edge 37, Type (0, 0), BuildingBlock: XIVTED_clean_linker_0, # of connection points: 2
#     Edge 38, Type (0, 0), BuildingBlock: XIVTED_clean_linker_0, # of connection points: 2
#     Edge 39, Type (0, 0), BuildingBlock: XIVTED_clean_linker_0, # of connection points: 2
#     Edge 40, Type (0, 0), BuildingBlock: XIVTED_clean_linker_0, # of connection points: 2
#     Edge 41, Type (0, 0), BuildingBlock: XIVTED_clean_linker_0, # of connection points: 2
#     Edge 42, Type (0, 0), BuildingBlock: XIVTED_clean_linker_0, # of connection points: 2
#     Edge 43, Type (0, 0), BuildingBlock: XIVTED_clean_linker_0, # of connection points: 2
#     Edge 44, Type (0, 0), BuildingBlock: XIVTED_clean_linker_0, # of connection points: 2
#     Edge 45, Type (0, 0), BuildingBlock: XIVTED_clean_linker_0, # of connection points: 2
#     Edge 46, Type (0, 0), BuildingBlock: XIVTED_clean_linker_0, # of connection points: 2
#     Edge 47, Type (0, 0), BuildingBlock: XIVTED_clean_linker_0, # of connection points: 2
# Relax obj value: 0.084
# Max RMSD: 0.212
# Mean RMSD: 0.186
data_MOF--net-wfa--node1-ICAMEG_clean_sbu_1--edge1-XIVTED_clean_linker_0
_symmetry_space_group_name_H-M    P1
_symmetry_Int_Tables_number       1
_symmetry_cell_setting            triclinic
loop_
_symmetry_equiv_pos_as_xyz
'x, y, z'
_cell_length_a     47.9622
_cell_length_b     47.964209
_cell_length_c     26.746156
_cell_angle_alpha  89.092163
_cell_angle_beta   89.103495
_cell_angle_gamma 88.957524
loop_
_atom_site_label
_atom_site_type_symbol
_atom_site_fract_x
_atom_site_fract_y
_atom_site_fract_z
_atom_type_partial_charge
Co0 Co 0.65636 0.9956 0.07464 0.0
Co1 Co 0.65041 0.05356 0.99653 0.0
O2 O 0.67064 0.02083 0.02264 0.0
C3 C 0.70806 0.01651 0.11676 0.0
O4 O 0.69979 0.04099 0.09944 0.0
C5 C 0.66501 0.02012 0.90736 0.0
O6 O 0.65677 0.99793 0.93246 0.0
O7 O 0.61599 0.03175 0.98775 0.0
O8 O 0.61853 0.99634 0.04375 0.0
H9 H 0.56911 0.12064 0.98217 0.0
H10 H 0.70836 0.98019 0.01986 0.0
O11 O 0.6937 0.99501 0.10816 0.0
H12 H 0.64229 0.90563 0.9848 0.0
H13 H 0.66231 0.91281 0.19226 0.0
H14 H 0.60404 0.9925 0.13501 0.0
H15 H 0.62846 0.94456 0.03966 0.0
H16 H 0.6794 0.94484 0.12598 0.0
O17 O 0.66331 0.04408 0.92718 0.0
H18 H 0.59477 0.0796 0.0157 0.0
H19 H 0.66362 0.09693 0.91907 0.0
H20 H 0.58602 0.96086 0.20106 0.0
H21 H 0.72314 0.94156 0.96502 0.0
H22 H 0.61525 0.92068 0.2301 0.0
H23 H 0.68994 0.90398 0.9471 0.0
O24 O 0.64465 0.02728 0.11735 0.0
H25 H 0.75318 0.07156 0.98266 0.0
H26 H 0.6622 0.10809 0.04318 0.0
H27 H 0.70463 0.13504 0.05699 0.0
H28 H 0.75053 0.1168 0.02658 0.0
H29 H 0.71027 0.04516 0.97008 0.0
H30 H 0.63862 0.13804 0.8842 0.0
H31 H 0.59105 0.15019 0.91593 0.0
O32 O 0.63718 0.06377 0.06513 0.0
C33 C 0.60541 0.01096 0.01106 0.0
C34 C 0.58986 0.11562 0.96816 0.0
C35 C 0.62886 0.12536 0.91312 0.0
N36 N 0.63075 0.08603 0.96968 0.0
C37 C 0.60453 0.09246 0.98711 0.0
C38 C 0.64289 0.10203 0.93294 0.0
C39 C 0.60217 0.13217 0.93096 0.0
C40 C 0.69391 0.96375 0.01258 0.0
N41 N 0.66765 0.96452 0.03308 0.0
C42 C 0.70235 0.942 0.98136 0.0
C43 C 0.68369 0.92095 0.97126 0.0
C44 C 0.65694 0.92188 0.99237 0.0
C45 C 0.64922 0.94399 0.02331 0.0
C46 C 0.64935 0.93021 0.17983 0.0
C47 C 0.61679 0.97494 0.1472 0.0
C48 C 0.65893 0.94843 0.14238 0.0
N49 N 0.64262 0.97035 0.12633 0.0
C50 C 0.60652 0.95715 0.18473 0.0
C51 C 0.62294 0.93463 0.20104 0.0
C52 C 0.63675 0.05236 0.10854 0.0
C53 C 0.73329 0.07977 0.99595 0.0
C54 C 0.6821 0.09999 0.02991 0.0
C55 C 0.70605 0.11537 0.03776 0.0
C56 C 0.73179 0.10513 0.02066 0.0
N57 N 0.68373 0.07515 0.00559 0.0
C58 C 0.7089 0.06498 0.98871 0.0
Co59 Co 0.51408 0.65629 0.06454 0.0
Co60 Co 0.45646 0.65443 0.98847 0.0
O61 O 0.48992 0.67215 0.01285 0.0
C62 C 0.49553 0.71016 0.10486 0.0
O63 O 0.47084 0.7037 0.0886 0.0
C64 C 0.49078 0.66592 0.89754 0.0
O65 O 0.51265 0.65654 0.92192 0.0
O66 O 0.47681 0.61833 0.97957 0.0
O67 O 0.51156 0.61827 0.03512 0.0
H68 H 0.38617 0.57839 0.97804 0.0
H69 H 0.53248 0.70624 0.00745 0.0
O70 O 0.51634 0.69386 0.09656 0.0
H71 H 0.60369 0.6334 0.97243 0.0
H72 H 0.59631 0.6564 0.17918 0.0
H73 H 0.51418 0.60449 0.12674 0.0
H74 H 0.56376 0.6236 0.02887 0.0
H75 H 0.56559 0.67547 0.11334 0.0
O76 O 0.46673 0.66607 0.91846 0.0
H77 H 0.42807 0.60098 0.00954 0.0
H78 H 0.414 0.67065 0.91262 0.0
H79 H 0.54445 0.58454 0.1924 0.0
H80 H 0.57218 0.71703 0.95102 0.0
H81 H 0.58586 0.61055 0.21902 0.0
H82 H 0.60808 0.68042 0.93311 0.0
O83 O 0.48163 0.64778 0.10876 0.0
H84 H 0.44303 0.75837 0.97311 0.0
H85 H 0.40237 0.67085 0.03714 0.0
H86 H 0.3773 0.71547 0.05123 0.0
H87 H 0.39763 0.75963 0.01906 0.0
H88 H 0.46753 0.71334 0.9603 0.0
H89 H 0.37207 0.64871 0.87977 0.0
H90 H 0.35785 0.60229 0.91267 0.0
O91 O 0.44539 0.64238 0.05771 0.0
C92 C 0.4967 0.60617 0.00298 0.0
C93 C 0.39209 0.59867 0.96354 0.0
C94 C 0.3842 0.63812 0.90834 0.0
N95 N 0.42331 0.63722 0.96329 0.0
C96 C 0.41574 0.6116 0.98135 0.0
C97 C 0.40798 0.65041 0.92702 0.0
C98 C 0.37623 0.61208 0.92682 0.0
C99 C 0.54818 0.69031 0.00018 0.0
N100 N 0.54591 0.66439 0.02157 0.0
C101 C 0.57054 0.69649 0.96805 0.0
C102 C 0.59065 0.67592 0.95796 0.0
C103 C 0.58819 0.64953 0.97997 0.0
C104 C 0.56551 0.64408 0.01181 0.0
C105 C 0.57837 0.64483 0.16781 0.0
C106 C 0.53227 0.61584 0.13787 0.0
C107 C 0.56089 0.65554 0.13061 0.0
N108 N 0.53829 0.64098 0.11589 0.0
C109 C 0.54929 0.60448 0.17518 0.0
C110 C 0.5725 0.6191 0.19014 0.0
C111 C 0.45639 0.64153 0.10083 0.0
C112 C 0.43392 0.73926 0.98717 0.0
C113 C 0.41138 0.68999 0.02311 0.0
C114 C 0.39706 0.71518 0.03111 0.0
C115 C 0.40847 0.73995 0.01302 0.0
N116 N 0.43632 0.68947 0.99768 0.0
C117 C 0.44763 0.71368 0.97981 0.0
Co118 Co 0.84466 0.51546 0.06225 0.0
Co119 Co 0.85 0.45746 0.98706 0.0
O120 O 0.83053 0.49094 0.01114 0.0
C121 C 0.79132 0.49643 0.10397 0.0
O122 O 0.79898 0.47187 0.08712 0.0
C123 C 0.83776 0.49123 0.89582 0.0
O124 O 0.84564 0.51341 0.91961 0.0
O125 O 0.88542 0.47797 0.97755 0.0
O126 O 0.88313 0.51319 0.03213 0.0
H127 H 0.92906 0.38745 0.97739 0.0
H128 H 0.79448 0.53315 0.0061 0.0
O129 O 0.80667 0.51744 0.09513 0.0
H130 H 0.86445 0.60488 0.96835 0.0
H131 H 0.83943 0.59818 0.17572 0.0
H132 H 0.89573 0.51635 0.12342 0.0
H133 H 0.87548 0.56528 0.02512 0.0
H134 H 0.82254 0.56698 0.11072 0.0
O135 O 0.83891 0.46729 0.91704 0.0
H136 H 0.90424 0.42938 0.00837 0.0
H137 H 0.83676 0.41458 0.91189 0.0
H138 H 0.91353 0.54712 0.18823 0.0
H139 H 0.78248 0.5725 0.94937 0.0
H140 H 0.8853 0.58837 0.21478 0.0
H141 H 0.81764 0.60866 0.93009 0.0
O142 O 0.85412 0.48331 0.10678 0.0
H143 H 0.74686 0.44334 0.97284 0.0
H144 H 0.83514 0.40346 0.03658 0.0
H145 H 0.79139 0.37817 0.05134 0.0
H146 H 0.74684 0.39809 0.01932 0.0
H147 H 0.79102 0.46809 0.95938 0.0
H148 H 0.86095 0.37261 0.87956 0.0
H149 H 0.9074 0.35874 0.91251 0.0
O150 O 0.8614 0.44677 0.05634 0.0
C151 C 0.89636 0.49814 0.00033 0.0
C152 C 0.90879 0.39322 0.96286 0.0
C153 C 0.87058 0.38492 0.90791 0.0
N154 N 0.86899 0.42429 0.96227 0.0
C155 C 0.8946 0.4169 0.98037 0.0
C156 C 0.85701 0.40874 0.92628 0.0
C157 C 0.89664 0.37714 0.92642 0.0
C158 C 0.80977 0.54897 0.99823 0.0
N159 N 0.83558 0.54703 0.01902 0.0
C160 C 0.80291 0.57113 0.96594 0.0
C161 C 0.82267 0.59139 0.95507 0.0
C162 C 0.84895 0.58926 0.97649 0.0
C163 C 0.85509 0.56677 0.00851 0.0
C164 C 0.85196 0.58031 0.16437 0.0
C165 C 0.88342 0.53438 0.13451 0.0
C166 C 0.84248 0.56256 0.12765 0.0
N167 N 0.85827 0.54004 0.11295 0.0
C168 C 0.89357 0.55167 0.17135 0.0
C169 C 0.8777 0.5748 0.18627 0.0
C170 C 0.86128 0.458 0.09924 0.0
C171 C 0.76615 0.4344 0.98684 0.0
C172 C 0.81584 0.4123 0.0226 0.0
C173 C 0.79114 0.39785 0.031 0.0
C174 C 0.76615 0.40903 0.01299 0.0
N175 N 0.81567 0.43716 0.99688 0.0
C176 C 0.79125 0.44825 0.9791 0.0
Co177 Co 0.99382 0.8441 0.07541 0.0
Co178 Co 0.05129 0.84683 0.99591 0.0
O179 O 0.01774 0.82893 0.02236 0.0
C180 C 0.01094 0.7886 0.1131 0.0
O181 O 0.0358 0.79432 0.09501 0.0
C182 C 0.01647 0.83664 0.90791 0.0
O183 O 0.99506 0.84657 0.93356 0.0
O184 O 0.03116 0.88322 0.9878 0.0
O185 O 0.99697 0.88267 0.04628 0.0
H186 H 0.12219 0.92249 0.98086 0.0
H187 H 0.97455 0.79576 0.01866 0.0
O188 O 0.9908 0.80599 0.10709 0.0
H189 H 0.90461 0.87053 0.98849 0.0
H190 H 0.91155 0.84309 0.19457 0.0
H191 H 0.99476 0.89448 0.13827 0.0
H192 H 0.94468 0.8784 0.04293 0.0
H193 H 0.94187 0.82488 0.12677 0.0
O194 O 0.04072 0.83613 0.92672 0.0
H195 H 0.08018 0.89969 0.01507 0.0
H196 H 0.09341 0.83159 0.91741 0.0
H197 H 0.9649 0.91357 0.2059 0.0
H198 H 0.93469 0.7869 0.96422 0.0
H199 H 0.92295 0.88781 0.23447 0.0
H200 H 0.89943 0.82449 0.94874 0.0
O201 O 0.02644 0.85095 0.11781 0.0
H202 H 0.06431 0.74308 0.98039 0.0
H203 H 0.10532 0.82944 0.04161 0.0
H204 H 0.13025 0.78453 0.05445 0.0
H205 H 0.10975 0.74094 0.02368 0.0
H206 H 0.03993 0.78837 0.96882 0.0
H207 H 0.13545 0.85375 0.88185 0.0
H208 H 0.15015 0.89948 0.91376 0.0
O209 O 0.06251 0.85779 0.06456 0.0
C210 C 0.01163 0.89517 0.01284 0.0
C211 C 0.11606 0.90251 0.96678 0.0
C212 C 0.12348 0.86395 0.91116 0.0
N213 N 0.0845 0.86423 0.96858 0.0
C214 C 0.09234 0.88946 0.98612 0.0
C215 C 0.09963 0.85153 0.93137 0.0
C216 C 0.13172 0.88961 0.92909 0.0
C217 C 0.95912 0.8121 0.01248 0.0
N218 N 0.96184 0.8375 0.0341 0.0
C219 C 0.93667 0.80701 0.98147 0.0
C220 C 0.91692 0.82813 0.97273 0.0
C221 C 0.91983 0.85398 0.99498 0.0
C222 C 0.94259 0.85834 0.02568 0.0
C223 C 0.92973 0.85455 0.18236 0.0
C224 C 0.97643 0.88326 0.15026 0.0
C225 C 0.94699 0.84432 0.14404 0.0
N226 N 0.9699 0.85875 0.12827 0.0
C227 C 0.95965 0.89412 0.18868 0.0
C228 C 0.93614 0.87964 0.20473 0.0
C229 C 0.05166 0.85743 0.10845 0.0
C230 C 0.0735 0.76194 0.99382 0.0
C231 C 0.09623 0.81055 0.02822 0.0
C232 C 0.11047 0.78519 0.0355 0.0
C233 C 0.09897 0.76075 0.01819 0.0
N234 N 0.07125 0.81155 0.00427 0.0
C235 C 0.05986 0.78767 0.98714 0.0
Co236 Co 0.15777 0.00306 0.43054 0.0
Co237 Co 0.15323 0.94544 0.50949 0.0
O238 O 0.17237 0.97824 0.48287 0.0
C239 C 0.21136 0.98292 0.38943 0.0
O240 O 0.20405 0.95842 0.40719 0.0
C241 C 0.1658 0.97915 0.5981 0.0
O242 O 0.15663 0.00121 0.57326 0.0
O243 O 0.11778 0.9671 0.51873 0.0
O244 O 0.1194 0.00171 0.46107 0.0
H245 H 0.07456 0.87795 0.52571 0.0
H246 H 0.20781 0.01958 0.48553 0.0
O247 O 0.19568 0.00421 0.39737 0.0
H248 H 0.13699 0.09296 0.51945 0.0
H249 H 0.16159 0.08561 0.31223 0.0
H250 H 0.10657 0.005 0.36961 0.0
H251 H 0.12641 0.05366 0.46485 0.0
H252 H 0.17906 0.0541 0.37898 0.0
O253 O 0.16506 0.95512 0.57857 0.0
H254 H 0.09893 0.91903 0.49141 0.0
H255 H 0.16731 0.90232 0.58703 0.0
H256 H 0.08821 0.0361 0.30307 0.0
H257 H 0.21937 0.0586 0.54012 0.0
H258 H 0.1158 0.07674 0.27396 0.0
H259 H 0.18378 0.0956 0.55747 0.0
O260 O 0.14865 0.97105 0.38809 0.0
H261 H 0.25659 0.92797 0.52151 0.0
H262 H 0.16782 0.89088 0.46294 0.0
H263 H 0.21152 0.86413 0.44845 0.0
H264 H 0.25632 0.88266 0.47787 0.0
H265 H 0.21246 0.95419 0.53476 0.0
H266 H 0.14359 0.86117 0.62265 0.0
H267 H 0.09692 0.84869 0.59182 0.0
O268 O 0.14121 0.93499 0.44107 0.0
C269 C 0.1065 0.98734 0.49442 0.0
C270 C 0.09493 0.88311 0.53933 0.0
C271 C 0.13366 0.87372 0.59379 0.0
N272 N 0.13461 0.91293 0.53691 0.0
C273 C 0.10887 0.9063 0.51995 0.0
C274 C 0.14696 0.89707 0.57355 0.0
C275 C 0.10748 0.86672 0.57646 0.0
C276 C 0.19233 0.03576 0.49255 0.0
N277 N 0.16653 0.03445 0.47188 0.0
C278 C 0.19895 0.05773 0.52364 0.0
C279 C 0.17895 0.07846 0.53342 0.0
C280 C 0.15268 0.07698 0.51213 0.0
C281 C 0.14679 0.05466 0.48134 0.0
C282 C 0.14934 0.06801 0.32469 0.0
C283 C 0.1186 0.02276 0.35739 0.0
C284 C 0.15915 0.05008 0.36241 0.0
N285 N 0.14372 0.02791 0.3785 0.0
C286 C 0.10814 0.04024 0.31959 0.0
C287 C 0.12365 0.06303 0.30324 0.0
C288 C 0.14138 0.94606 0.39735 0.0
C289 C 0.23719 0.91964 0.50865 0.0
C290 C 0.18723 0.89911 0.47577 0.0
C291 C 0.21191 0.88384 0.46755 0.0
C292 C 0.23703 0.89424 0.4841 0.0
N293 N 0.18756 0.92401 0.49992 0.0
C294 C 0.21211 0.93432 0.51628 0.0
Co295 Co 0.48412 0.1578 0.43664 0.0
Co296 Co 0.5419 0.15259 0.51241 0.0
O297 O 0.50837 0.17193 0.48818 0.0
C298 C 0.5028 0.21144 0.39559 0.0
O299 O 0.52738 0.20394 0.41256 0.0
C300 C 0.50785 0.16446 0.60352 0.0
O301 O 0.48574 0.15662 0.57949 0.0
O302 O 0.5216 0.11701 0.52142 0.0
O303 O 0.48666 0.11923 0.46626 0.0
H304 H 0.61239 0.07395 0.52205 0.0
H305 H 0.46583 0.20763 0.49319 0.0
O306 O 0.48191 0.1959 0.40418 0.0
H307 H 0.39464 0.13691 0.52946 0.0
H308 H 0.40169 0.16277 0.32246 0.0
H309 H 0.48386 0.10698 0.37477 0.0
H310 H 0.43449 0.12642 0.47296 0.0
H311 H 0.43255 0.17967 0.38798 0.0
O312 O 0.53184 0.16343 0.58246 0.0
H313 H 0.57039 0.09859 0.4909 0.0
H314 H 0.58449 0.16591 0.58809 0.0
H315 H 0.45344 0.08917 0.30943 0.0
H316 H 0.42621 0.2191 0.54965 0.0
H317 H 0.41201 0.11715 0.28287 0.0
H318 H 0.39031 0.18355 0.56819 0.0
O319 O 0.51647 0.14875 0.39232 0.0
H320 H 0.55535 0.25578 0.52764 0.0
H321 H 0.59592 0.16791 0.46347 0.0
H322 H 0.62098 0.21185 0.4493 0.0
H323 H 0.6007 0.25619 0.48155 0.0
H324 H 0.53084 0.21143 0.54051 0.0
H325 H 0.62652 0.1419 0.62059 0.0
H326 H 0.64078 0.09562 0.58738 0.0
O327 O 0.55284 0.14142 0.44314 0.0
C328 C 0.50168 0.10598 0.49809 0.0
C329 C 0.60645 0.09415 0.5367 0.0
C330 C 0.61436 0.13226 0.59205 0.0
N331 N 0.57513 0.13375 0.53735 0.0
C332 C 0.58274 0.10823 0.5191 0.0
C333 C 0.59051 0.14573 0.57358 0.0
C334 C 0.62235 0.1063 0.57339 0.0
C335 C 0.45013 0.19217 0.50074 0.0
N336 N 0.45237 0.16645 0.47968 0.0
C337 C 0.42782 0.19873 0.53288 0.0
C338 C 0.40771 0.17876 0.54333 0.0
C339 C 0.41014 0.15257 0.52165 0.0
C340 C 0.43277 0.14673 0.48979 0.0
C341 C 0.41964 0.15035 0.33381 0.0
C342 C 0.46576 0.11917 0.36367 0.0
C343 C 0.4372 0.15983 0.37083 0.0
N344 N 0.45981 0.14419 0.38552 0.0
C345 C 0.44866 0.10903 0.32654 0.0
C346 C 0.42544 0.12475 0.31162 0.0
C347 C 0.54177 0.14162 0.40011 0.0
C348 C 0.56444 0.23658 0.51355 0.0
C349 C 0.58693 0.18713 0.47754 0.0
C350 C 0.60124 0.21194 0.46948 0.0
C351 C 0.58986 0.23681 0.48762 0.0
N352 N 0.56201 0.18708 0.50305 0.0
C353 C 0.55072 0.21138 0.52095 0.0
Co354 Co 0.34656 0.48866 0.42487 0.0
Co355 Co 0.34825 0.54656 0.50029 0.0
O356 O 0.33055 0.51305 0.47609 0.0
C357 C 0.2929 0.50726 0.38375 0.0
O358 O 0.29937 0.53198 0.39984 0.0
C359 C 0.33653 0.51254 0.59142 0.0
O360 O 0.34598 0.4906 0.56732 0.0
O361 O 0.38429 0.52619 0.50974 0.0
O362 O 0.38443 0.4911 0.45489 0.0
H363 H 0.42436 0.61678 0.51065 0.0
H364 H 0.29628 0.47068 0.48149 0.0
O365 O 0.30913 0.48643 0.39236 0.0
H366 H 0.36865 0.39924 0.51824 0.0
H367 H 0.34664 0.40607 0.31108 0.0
H368 H 0.39864 0.48814 0.3635 0.0
H369 H 0.37887 0.43894 0.46151 0.0
H370 H 0.32738 0.43707 0.37631 0.0
O371 O 0.33642 0.53652 0.57026 0.0
H372 H 0.40179 0.57481 0.47938 0.0
H373 H 0.33189 0.58928 0.57556 0.0
H374 H 0.41878 0.45757 0.29847 0.0
H375 H 0.28509 0.43121 0.5382 0.0
H376 H 0.39271 0.4162 0.27186 0.0
H377 H 0.32146 0.39519 0.55697 0.0
O378 O 0.35538 0.52094 0.38041 0.0
H379 H 0.2443 0.56019 0.51461 0.0
H380 H 0.33204 0.60053 0.45093 0.0
H381 H 0.2875 0.62562 0.43623 0.0
H382 H 0.24322 0.60546 0.46822 0.0
H383 H 0.28926 0.53565 0.52803 0.0
H384 H 0.3538 0.63129 0.60816 0.0
H385 H 0.40032 0.64534 0.57551 0.0
O386 O 0.36048 0.55739 0.43106 0.0
C387 C 0.39644 0.50608 0.48695 0.0
C388 C 0.40404 0.61093 0.52503 0.0
C389 C 0.36445 0.61906 0.57981 0.0
N390 N 0.36544 0.57976 0.52527 0.0
C391 C 0.39111 0.58725 0.50735 0.0
C392 C 0.35217 0.59522 0.56127 0.0
C393 C 0.39055 0.62693 0.56146 0.0
C394 C 0.31211 0.45492 0.48914 0.0
N395 N 0.33813 0.45701 0.46807 0.0
C396 C 0.3057 0.4327 0.52142 0.0
C397 C 0.32613 0.41252 0.53201 0.0
C398 C 0.35263 0.41479 0.51032 0.0
C399 C 0.35831 0.43734 0.47831 0.0
C400 C 0.35823 0.424 0.32246 0.0
C401 C 0.38727 0.47006 0.35238 0.0
C402 C 0.34741 0.44164 0.3593 0.0
N403 N 0.36201 0.46423 0.37402 0.0
C404 C 0.39873 0.45288 0.31542 0.0
C405 C 0.38408 0.42968 0.30047 0.0
C406 C 0.36154 0.54623 0.38809 0.0
C407 C 0.26346 0.56923 0.50062 0.0
C408 C 0.31285 0.59159 0.46489 0.0
C409 C 0.28771 0.60593 0.45653 0.0
C410 C 0.26287 0.59461 0.47452 0.0
N411 N 0.31326 0.56672 0.49055 0.0
C412 C 0.289 0.5555 0.50833 0.0
Co413 Co 0.00596 0.34562 0.42792 0.0
Co414 Co 0.94731 0.34932 0.50476 0.0
O415 O 0.98088 0.33035 0.47922 0.0
C416 C 0.98669 0.29348 0.38539 0.0
O417 O 0.96202 0.30113 0.40266 0.0
C418 C 0.98076 0.33578 0.59432 0.0
O419 O 0.00273 0.34484 0.56955 0.0
O420 O 0.96782 0.38442 0.51421 0.0
O421 O 0.00385 0.38334 0.45932 0.0
H422 H 0.87741 0.42826 0.51858 0.0
H423 H 0.02261 0.29385 0.48229 0.0
O424 O 0.00779 0.30842 0.39395 0.0
H425 H 0.09483 0.36204 0.51975 0.0
H426 H 0.08952 0.34255 0.31182 0.0
H427 H 0.00787 0.39827 0.36826 0.0
H428 H 0.05585 0.37491 0.46433 0.0
H429 H 0.05763 0.32426 0.37726 0.0
O430 O 0.95685 0.33663 0.5742 0.0
H431 H 0.9195 0.40412 0.48562 0.0
H432 H 0.90399 0.33439 0.58124 0.0
H433 H 0.03934 0.41746 0.30305 0.0
H434 H 0.06132 0.28001 0.53768 0.0
H435 H 0.08051 0.38953 0.27442 0.0
H436 H 0.09773 0.31427 0.55681 0.0
O437 O 0.97426 0.35657 0.38473 0.0
H438 H 0.93292 0.2459 0.51757 0.0
H439 H 0.89359 0.33569 0.45688 0.0
H440 H 0.86831 0.29233 0.44216 0.0
H441 H 0.88797 0.24702 0.47265 0.0
H442 H 0.95765 0.28972 0.53105 0.0
H443 H 0.86185 0.35787 0.61555 0.0
H444 H 0.84826 0.4051 0.58403 0.0
O445 O 0.93707 0.36239 0.436 0.0
C446 C 0.98845 0.3958 0.49173 0.0
C447 C 0.88305 0.40764 0.53248 0.0
C448 C 0.87434 0.36815 0.58695 0.0
N449 N 0.91403 0.36777 0.53113 0.0
C450 C 0.90681 0.39383 0.51384 0.0
C451 C 0.89825 0.35498 0.56745 0.0
C452 C 0.86672 0.39464 0.56924 0.0
C453 C 0.03854 0.30876 0.4901 0.0
N454 N 0.03709 0.33509 0.46995 0.0
C455 C 0.06034 0.30086 0.52163 0.0
C456 C 0.08073 0.32011 0.53241 0.0
C457 C 0.07911 0.34692 0.51166 0.0
C458 C 0.05697 0.35411 0.48039 0.0
C459 C 0.0717 0.35495 0.32408 0.0
C460 C 0.02586 0.38608 0.35626 0.0
C461 C 0.05355 0.34469 0.36106 0.0
N462 N 0.03109 0.36031 0.3769 0.0
C463 C 0.04355 0.39702 0.3192 0.0
C464 C 0.06663 0.38132 0.30312 0.0
C465 C 0.94885 0.36349 0.39293 0.0
C466 C 0.9241 0.26552 0.50425 0.0
C467 C 0.90231 0.31605 0.47019 0.0
C468 C 0.88787 0.29157 0.46182 0.0
C469 C 0.8989 0.26616 0.47897 0.0
N470 N 0.927 0.31526 0.49505 0.0
C471 C 0.93794 0.29042 0.51199 0.0
Co472 Co 0.34656 0.00463 0.92671 0.0
Co473 Co 0.35282 0.94641 0.00415 0.0
O474 O 0.33257 0.97929 0.9788 0.0
C475 C 0.29454 0.98377 0.88599 0.0
O476 O 0.30289 0.95936 0.90347 0.0
C477 C 0.33908 0.97977 0.09374 0.0
O478 O 0.34746 0.00188 0.06858 0.0
O479 O 0.38742 0.96805 0.01223 0.0
O480 O 0.38459 0.00378 0.95691 0.0
H481 H 0.43392 0.87893 0.0161 0.0
H482 H 0.29491 0.01992 0.98263 0.0
O483 O 0.30902 0.00528 0.89387 0.0
H484 H 0.36126 0.09434 0.01699 0.0
H485 H 0.33998 0.08768 0.8098 0.0
H486 H 0.39854 0.00784 0.8654 0.0
H487 H 0.37471 0.05557 0.96151 0.0
H488 H 0.32325 0.05551 0.87617 0.0
O489 O 0.34046 0.95581 0.07385 0.0
H490 H 0.40821 0.92016 0.98348 0.0
H491 H 0.33999 0.90294 0.08164 0.0
H492 H 0.41619 0.03962 0.79925 0.0
H493 H 0.28051 0.05839 0.03813 0.0
H494 H 0.38682 0.07987 0.77103 0.0
H495 H 0.31385 0.0959 0.0557 0.0
O496 O 0.35797 0.97306 0.88356 0.0
H497 H 0.25005 0.92886 0.02034 0.0
H498 H 0.34042 0.89205 0.95741 0.0
H499 H 0.29773 0.86537 0.94436 0.0
H500 H 0.25214 0.88375 0.97598 0.0
H501 H 0.29319 0.95501 0.03214 0.0
H502 H 0.36506 0.86164 0.11562 0.0
H503 H 0.41233 0.84934 0.08266 0.0
O504 O 0.3655 0.9363 0.93514 0.0
C505 C 0.39789 0.98894 0.98907 0.0
C506 C 0.4133 0.88401 0.03064 0.0
C507 C 0.37466 0.87433 0.08655 0.0
N508 N 0.37254 0.9138 0.03031 0.0
C509 C 0.3986 0.90728 0.0122 0.0
C510 C 0.3606 0.89777 0.06723 0.0
C511 C 0.40118 0.86743 0.06802 0.0
C512 C 0.30941 0.03633 0.98976 0.0
N513 N 0.33554 0.03561 0.96871 0.0
C514 C 0.30119 0.05799 0.02135 0.0
C515 C 0.31993 0.079 0.03126 0.0
C516 C 0.34654 0.07813 0.00958 0.0
C517 C 0.35405 0.05611 0.97828 0.0
C518 C 0.353 0.07025 0.82187 0.0
C519 C 0.38572 0.02543 0.85357 0.0
C520 C 0.34362 0.05195 0.85936 0.0
N521 N 0.36002 0.02999 0.87495 0.0
C522 C 0.39579 0.0433 0.81599 0.0
C523 C 0.37929 0.06586 0.80014 0.0
C524 C 0.36573 0.94789 0.89188 0.0
C525 C 0.2698 0.92059 0.00653 0.0
C526 C 0.32065 0.90022 0.97121 0.0
C527 C 0.29656 0.88499 0.96379 0.0
C528 C 0.27099 0.8953 0.98157 0.0
N529 N 0.31932 0.925 0.99576 0.0
C530 C 0.29433 0.93524 0.01333 0.0
Co531 Co 0.48698 0.34698 0.93077 0.0
Co532 Co 0.54486 0.34845 0.00623 0.0
O533 O 0.5112 0.33095 0.9822 0.0
C534 C 0.50488 0.29293 0.89042 0.0
O535 O 0.52971 0.29918 0.90634 0.0
C536 C 0.51078 0.33705 0.09748 0.0
O537 O 0.48891 0.34669 0.07338 0.0
O538 O 0.52477 0.38468 0.01543 0.0
O539 O 0.48992 0.38497 0.96008 0.0
H540 H 0.61571 0.42402 0.01595 0.0
H541 H 0.46837 0.29722 0.98821 0.0
O542 O 0.48426 0.30943 0.89889 0.0
H543 H 0.39788 0.37066 0.0239 0.0
H544 H 0.40429 0.34751 0.81715 0.0
H545 H 0.48708 0.39873 0.86847 0.0
H546 H 0.43769 0.3801 0.96695 0.0
H547 H 0.4351 0.32821 0.88264 0.0
O548 O 0.53476 0.33679 0.07632 0.0
H549 H 0.57355 0.40171 0.98488 0.0
H550 H 0.58749 0.33192 0.08158 0.0
H551 H 0.45672 0.41891 0.80315 0.0
H552 H 0.42879 0.2868 0.04514 0.0
H553 H 0.41498 0.39324 0.77708 0.0
H554 H 0.39325 0.32371 0.06339 0.0
O555 O 0.51935 0.35518 0.88616 0.0
H556 H 0.55773 0.24443 0.02123 0.0
H557 H 0.59869 0.33174 0.9569 0.0
H558 H 0.62344 0.287 0.94246 0.0
H559 H 0.60296 0.24294 0.97477 0.0
H560 H 0.53353 0.28959 0.03439 0.0
H561 H 0.62969 0.35357 0.11399 0.0
H562 H 0.64411 0.3999 0.08097 0.0
O563 O 0.55576 0.36048 0.93686 0.0
C564 C 0.50492 0.39697 0.99213 0.0
C565 C 0.6097 0.40378 0.03049 0.0
C566 C 0.61753 0.36425 0.08557 0.0
N567 N 0.57821 0.36544 0.03106 0.0
C568 C 0.5859 0.391 0.01293 0.0
C569 C 0.59359 0.35212 0.06714 0.0
C570 C 0.62561 0.39025 0.06702 0.0
C571 C 0.45283 0.31328 0.99563 0.0
N572 N 0.45523 0.33917 0.97414 0.0
C573 C 0.43054 0.30731 0.02804 0.0
C574 C 0.41063 0.32805 0.03832 0.0
C575 C 0.41322 0.3544 0.01621 0.0
C576 C 0.43583 0.35964 0.98409 0.0
C577 C 0.42237 0.35893 0.82827 0.0
C578 C 0.46885 0.38753 0.85758 0.0
C579 C 0.43991 0.34809 0.86528 0.0
N580 N 0.4627 0.36247 0.87969 0.0
C581 C 0.45178 0.39902 0.82046 0.0
C582 C 0.42838 0.38459 0.80582 0.0
C583 C 0.54465 0.36132 0.89382 0.0
C584 C 0.5669 0.2635 0.0071 0.0
C585 C 0.58961 0.31265 0.971 0.0
C586 C 0.60375 0.28739 0.96279 0.0
C587 C 0.59226 0.26267 0.98097 0.0
N588 N 0.56475 0.3133 0.9967 0.0
C589 C 0.55337 0.28915 0.01467 0.0
Co590 Co 0.15698 0.488 0.93023 0.0
Co591 Co 0.15244 0.54587 0.00584 0.0
O592 O 0.17145 0.51219 0.98156 0.0
C593 C 0.21069 0.50625 0.88885 0.0
O594 O 0.20339 0.53091 0.90568 0.0
C595 C 0.16421 0.51176 0.09691 0.0
O596 O 0.1561 0.48973 0.07295 0.0
O597 O 0.11669 0.52587 0.01514 0.0
O598 O 0.11856 0.49077 0.9603 0.0
H599 H 0.07442 0.61705 0.01561 0.0
H600 H 0.20688 0.46947 0.98642 0.0
O601 O 0.19496 0.48551 0.89748 0.0
H602 H 0.13585 0.3987 0.02347 0.0
H603 H 0.16105 0.4055 0.81619 0.0
H604 H 0.10592 0.48799 0.86898 0.0
H605 H 0.12543 0.43857 0.96695 0.0
H606 H 0.17838 0.43627 0.88146 0.0
O607 O 0.16335 0.53575 0.07584 0.0
H608 H 0.09864 0.57481 0.98449 0.0
H609 H 0.16625 0.58838 0.08134 0.0
H610 H 0.08769 0.45766 0.80391 0.0
H611 H 0.21829 0.42983 0.04289 0.0
H612 H 0.11534 0.41607 0.77711 0.0
H613 H 0.18258 0.39414 0.06182 0.0
O614 O 0.14798 0.52038 0.88585 0.0
H615 H 0.2558 0.55846 0.02037 0.0
H616 H 0.16811 0.59974 0.9567 0.0
H617 H 0.21224 0.62442 0.9422 0.0
H618 H 0.25649 0.60378 0.97419 0.0
H619 H 0.21126 0.53433 0.03358 0.0
H620 H 0.14266 0.63065 0.1138 0.0
H621 H 0.09646 0.64529 0.08074 0.0
O622 O 0.14124 0.55685 0.93662 0.0
C623 C 0.1055 0.5059 0.99218 0.0
C624 C 0.09459 0.61094 0.0302 0.0
C625 C 0.13287 0.61855 0.08536 0.0
N626 N 0.13392 0.57926 0.03079 0.0
C627 C 0.10844 0.58708 0.01262 0.0
C628 C 0.1461 0.59456 0.06691 0.0
C629 C 0.10695 0.62676 0.06678 0.0
C630 C 0.19136 0.45386 0.99413 0.0
N631 N 0.16559 0.45622 0.97328 0.0
C632 C 0.19788 0.43154 0.02628 0.0
C633 C 0.17782 0.41155 0.03695 0.0
C634 C 0.15158 0.4141 0.01548 0.0
C635 C 0.14578 0.43674 0.9836 0.0
C636 C 0.14878 0.42352 0.82765 0.0
C637 C 0.11797 0.46982 0.85778 0.0
C638 C 0.1585 0.44103 0.86452 0.0
N639 N 0.14304 0.46374 0.87934 0.0
C640 C 0.10759 0.45277 0.82079 0.0
C641 C 0.12313 0.42946 0.80574 0.0
C642 C 0.14115 0.54576 0.89361 0.0
C643 C 0.23664 0.56771 0.00639 0.0
C644 C 0.18729 0.59059 0.97066 0.0
C645 C 0.2122 0.60469 0.96242 0.0
C646 C 0.23702 0.59311 0.98041 0.0
N647 N 0.18708 0.56568 0.99621 0.0
C648 C 0.21133 0.55421 0.01398 0.0
Co649 Co 0.01017 0.15499 0.9329 0.0
Co650 Co 0.95107 0.15052 0.00824 0.0
O651 O 0.98415 0.16974 0.9832 0.0
C652 C 0.98966 0.20773 0.88926 0.0
O653 O 0.96512 0.19996 0.90609 0.0
C654 C 0.9831 0.16392 0.09836 0.0
O655 O 0.00562 0.15486 0.0748 0.0
O656 O 0.97286 0.11539 0.01954 0.0
O657 O 0.00889 0.11688 0.96471 0.0
H658 H 0.88417 0.07126 0.02246 0.0
H659 H 0.02476 0.20596 0.98702 0.0
O660 O 0.01118 0.19259 0.89849 0.0
H661 H 0.09863 0.1368 0.02777 0.0
H662 H 0.09471 0.1591 0.81934 0.0
H663 H 0.01418 0.10315 0.87388 0.0
H664 H 0.06057 0.12489 0.97132 0.0
H665 H 0.06167 0.17669 0.88361 0.0
O666 O 0.95941 0.16287 0.07761 0.0
H667 H 0.92556 0.09581 0.98991 0.0
H668 H 0.90646 0.16474 0.08294 0.0
H669 H 0.04681 0.08466 0.80983 0.0
H670 H 0.06253 0.21884 0.0434 0.0
H671 H 0.08742 0.11271 0.78216 0.0
H672 H 0.09976 0.18408 0.0642 0.0
O673 O 0.97921 0.14482 0.88887 0.0
H674 H 0.93242 0.25381 0.01712 0.0
H675 H 0.8973 0.16428 0.95818 0.0
H676 H 0.87045 0.20765 0.94121 0.0
H677 H 0.88798 0.25282 0.97081 0.0
H678 H 0.95878 0.21 0.03282 0.0
H679 H 0.86497 0.14085 0.11678 0.0
H680 H 0.85354 0.0938 0.08636 0.0
O681 O 0.94199 0.1379 0.93944 0.0
C682 C 0.99384 0.10414 0.99731 0.0
C683 C 0.88887 0.09179 0.03587 0.0
C684 C 0.87812 0.13083 0.08886 0.0
N685 N 0.91827 0.13177 0.03417 0.0
C686 C 0.91223 0.10583 0.01747 0.0
C687 C 0.90166 0.14424 0.06963 0.0
C688 C 0.87171 0.10444 0.07177 0.0
C689 C 0.04106 0.19084 0.99554 0.0
N690 N 0.04057 0.16478 0.97576 0.0
C691 C 0.06231 0.1982 0.02763 0.0
C692 C 0.08317 0.17867 0.03935 0.0
C693 C 0.08253 0.15213 0.01896 0.0
C694 C 0.06091 0.14549 0.98711 0.0
C695 C 0.07714 0.14664 0.83119 0.0
C696 C 0.03193 0.11538 0.86231 0.0
C697 C 0.05835 0.15651 0.86751 0.0
N698 N 0.03621 0.14082 0.88284 0.0
C699 C 0.05028 0.10485 0.8259 0.0
C700 C 0.07304 0.12061 0.81035 0.0
C701 C 0.95406 0.13756 0.89657 0.0
C702 C 0.92453 0.23424 0.00417 0.0
C703 C 0.9051 0.18386 0.9711 0.0
C704 C 0.88977 0.20834 0.96146 0.0
C705 C 0.89961 0.23368 0.97812 0.0
N706 N 0.92952 0.18458 0.99671 0.0
C707 C 0.93928 0.20934 0.01318 0.0
Co708 Co 0.84644 0.99301 0.56947 0.0
Co709 Co 0.8517 0.05215 0.49445 0.0
O710 O 0.83207 0.01922 0.51911 0.0
C711 C 0.79354 0.01345 0.61272 0.0
O712 O 0.80137 0.03808 0.59641 0.0
C713 C 0.83803 0.02061 0.40385 0.0
O714 O 0.84705 0.99795 0.42705 0.0
O715 O 0.88667 0.03003 0.48314 0.0
O716 O 0.88472 0.99426 0.53844 0.0
H717 H 0.93165 0.11829 0.48138 0.0
H718 H 0.79575 0.97874 0.51425 0.0
O719 O 0.80866 0.99198 0.60319 0.0
H720 H 0.86492 0.90479 0.47409 0.0
H721 H 0.84149 0.90817 0.68219 0.0
H722 H 0.89791 0.9887 0.62949 0.0
H723 H 0.87661 0.94263 0.53116 0.0
H724 H 0.82435 0.94141 0.61786 0.0
O725 O 0.83928 0.04419 0.42492 0.0
H726 H 0.90664 0.07705 0.51335 0.0
H727 H 0.83804 0.09713 0.42009 0.0
H728 H 0.91595 0.95585 0.69362 0.0
H729 H 0.78309 0.9412 0.45723 0.0
H730 H 0.88766 0.91524 0.72037 0.0
H731 H 0.81786 0.90393 0.43674 0.0
O732 O 0.85645 0.02383 0.61394 0.0
H733 H 0.74861 0.07196 0.48528 0.0
H734 H 0.83846 0.10589 0.54496 0.0
H735 H 0.79537 0.13318 0.56196 0.0
H736 H 0.75003 0.11625 0.53198 0.0
H737 H 0.79215 0.04517 0.46957 0.0
H738 H 0.86239 0.13848 0.38683 0.0
H739 H 0.9095 0.14935 0.41765 0.0
O740 O 0.86433 0.06087 0.5634 0.0
C741 C 0.89772 0.0091 0.50589 0.0
C742 C 0.91109 0.11384 0.46778 0.0
C743 C 0.87224 0.12515 0.41466 0.0
N744 N 0.87082 0.08482 0.46892 0.0
C745 C 0.8968 0.09056 0.48586 0.0
C746 C 0.85858 0.10167 0.43356 0.0
C747 C 0.89866 0.13123 0.43199 0.0
C748 C 0.81087 0.96242 0.50586 0.0
N749 N 0.83682 0.96277 0.52615 0.0
C750 C 0.80364 0.9413 0.47341 0.0
C751 C 0.82317 0.92042 0.46186 0.0
C752 C 0.84959 0.9209 0.48277 0.0
C753 C 0.85611 0.9424 0.51497 0.0
C754 C 0.85404 0.92574 0.67074 0.0
C755 C 0.88557 0.97096 0.64066 0.0
C756 C 0.84443 0.94465 0.63439 0.0
N757 N 0.86025 0.9668 0.61958 0.0
C758 C 0.89586 0.95248 0.67712 0.0
C759 C 0.87995 0.92972 0.69214 0.0
C760 C 0.86418 0.04884 0.60633 0.0
C761 C 0.76825 0.0796 0.4984 0.0
C762 C 0.81881 0.09835 0.53188 0.0
C763 C 0.79448 0.11392 0.54153 0.0
C764 C 0.76906 0.10442 0.52467 0.0
N765 N 0.81785 0.07403 0.50605 0.0
C766 C 0.79299 0.06459 0.48938 0.0
Co767 Co 0.51575 0.84487 0.5582 0.0
Co768 Co 0.4574 0.84986 0.48381 0.0
O769 O 0.49124 0.83073 0.50709 0.0
C770 C 0.49774 0.79096 0.599 0.0
O771 O 0.47302 0.7983 0.58248 0.0
C772 C 0.49104 0.83864 0.39203 0.0
O773 O 0.51314 0.8468 0.41575 0.0
O774 O 0.47732 0.88566 0.47481 0.0
O775 O 0.51273 0.8835 0.52902 0.0
H776 H 0.38613 0.92789 0.47662 0.0
H777 H 0.534 0.79536 0.50074 0.0
O778 O 0.51846 0.80669 0.59024 0.0
H779 H 0.60443 0.86672 0.4636 0.0
H780 H 0.59899 0.84016 0.67051 0.0
H781 H 0.51605 0.8955 0.62057 0.0
H782 H 0.5649 0.87673 0.52111 0.0
H783 H 0.56782 0.82324 0.60549 0.0
O784 O 0.46713 0.83934 0.41344 0.0
H785 H 0.42855 0.90353 0.50659 0.0
H786 H 0.41446 0.83646 0.40883 0.0
H787 H 0.54678 0.91332 0.68542 0.0
H788 H 0.57329 0.78437 0.44325 0.0
H789 H 0.58859 0.88557 0.71079 0.0
H790 H 0.6088 0.82024 0.42428 0.0
O791 O 0.48364 0.85352 0.6033 0.0
H792 H 0.44471 0.74661 0.46764 0.0
H793 H 0.40383 0.8339 0.53369 0.0
H794 H 0.37923 0.7897 0.54786 0.0
H795 H 0.39966 0.74565 0.51467 0.0
H796 H 0.46877 0.79122 0.45479 0.0
H797 H 0.372 0.86021 0.37751 0.0
H798 H 0.35753 0.90621 0.4116 0.0
O799 O 0.44681 0.86069 0.55348 0.0
C800 C 0.49736 0.89676 0.49773 0.0
C801 C 0.39217 0.90781 0.46159 0.0
C802 C 0.38426 0.86984 0.40591 0.0
N803 N 0.42385 0.8685 0.45978 0.0
C804 C 0.41612 0.89388 0.47852 0.0
C805 C 0.40835 0.85652 0.42372 0.0
C806 C 0.37614 0.89565 0.42507 0.0
C807 C 0.54953 0.81095 0.493 0.0
N808 N 0.54727 0.83658 0.51438 0.0
C809 C 0.57166 0.80466 0.46028 0.0
C810 C 0.59155 0.82482 0.44959 0.0
C811 C 0.5891 0.85091 0.4716 0.0
C812 C 0.56665 0.85648 0.50404 0.0
C813 C 0.58088 0.85248 0.65968 0.0
C814 C 0.53433 0.8834 0.63114 0.0
C815 C 0.56314 0.84299 0.62294 0.0
N816 N 0.54031 0.8585 0.60891 0.0
C817 C 0.55159 0.89355 0.66801 0.0
C818 C 0.57503 0.87796 0.68226 0.0
C819 C 0.45822 0.86043 0.59624 0.0
C820 C 0.43555 0.76568 0.48215 0.0
C821 C 0.41289 0.81481 0.51921 0.0
C822 C 0.39883 0.78986 0.52727 0.0
C823 C 0.4103 0.76515 0.50861 0.0
N824 N 0.43764 0.81517 0.49318 0.0
C825 C 0.44901 0.79103 0.47476 0.0
Co826 Co 0.65507 0.51245 0.56797 0.0
Co827 Co 0.65357 0.45435 0.49307 0.0
O828 O 0.67119 0.48793 0.51712 0.0
C829 C 0.7087 0.4941 0.60952 0.0
O830 O 0.70227 0.46929 0.59378 0.0
C831 C 0.66549 0.4882 0.40184 0.0
O832 O 0.65575 0.5101 0.4257 0.0
O833 O 0.61755 0.47469 0.48309 0.0
O834 O 0.61725 0.50984 0.53782 0.0
H835 H 0.57753 0.38406 0.48258 0.0
H836 H 0.70538 0.53035 0.51137 0.0
O837 O 0.69244 0.51486 0.60061 0.0
H838 H 0.63292 0.60153 0.47359 0.0
H839 H 0.65464 0.59541 0.68092 0.0
H840 H 0.6029 0.51305 0.6291 0.0
H841 H 0.62272 0.56199 0.53072 0.0
H842 H 0.67406 0.56424 0.61611 0.0
O843 O 0.66564 0.46424 0.4231 0.0
H844 H 0.59999 0.42612 0.51371 0.0
H845 H 0.67016 0.41145 0.41828 0.0
H846 H 0.5826 0.54379 0.69373 0.0
H847 H 0.71657 0.56965 0.45429 0.0
H848 H 0.60853 0.58531 0.72004 0.0
H849 H 0.68015 0.60554 0.43499 0.0
O850 O 0.64624 0.48029 0.61269 0.0
H851 H 0.75756 0.4407 0.47993 0.0
H852 H 0.66963 0.40052 0.54306 0.0
H853 H 0.71412 0.37548 0.55847 0.0
H854 H 0.7585 0.39557 0.52676 0.0
H855 H 0.71265 0.46518 0.4658 0.0
H856 H 0.64837 0.36934 0.38582 0.0
H857 H 0.60177 0.35534 0.41817 0.0
O858 O 0.64111 0.4437 0.56232 0.0
C859 C 0.60532 0.4948 0.50575 0.0
C860 C 0.59789 0.38988 0.46833 0.0
C861 C 0.63763 0.38164 0.41398 0.0
N862 N 0.63646 0.42108 0.46819 0.0
C863 C 0.61075 0.41362 0.48594 0.0
C864 C 0.64984 0.40553 0.43243 0.0
C865 C 0.61149 0.3738 0.43215 0.0
C866 C 0.68953 0.54605 0.5035 0.0
N867 N 0.66349 0.54399 0.52449 0.0
C868 C 0.69594 0.56818 0.471 0.0
C869 C 0.67548 0.58828 0.46013 0.0
C870 C 0.64897 0.58604 0.48175 0.0
C871 C 0.64329 0.56358 0.51397 0.0
C872 C 0.64311 0.57742 0.66968 0.0
C873 C 0.61422 0.5312 0.6401 0.0
C874 C 0.65402 0.55968 0.63307 0.0
N875 N 0.6395 0.53701 0.61851 0.0
C876 C 0.60266 0.54847 0.67683 0.0
C877 C 0.61723 0.57175 0.69161 0.0
C878 C 0.64003 0.45499 0.60519 0.0
C879 C 0.73836 0.43169 0.49379 0.0
C880 C 0.68886 0.40942 0.52922 0.0
C881 C 0.71398 0.39512 0.53797 0.0
C882 C 0.73887 0.40639 0.52014 0.0
N883 N 0.68852 0.43422 0.50332 0.0
C884 C 0.71284 0.44539 0.48568 0.0
Co885 Co 0.98289 0.65316 0.58627 0.0
Co886 Co 0.03724 0.65265 0.49982 0.0
O887 O 0.00415 0.66955 0.53097 0.0
C888 C 0.00217 0.70614 0.62509 0.0
O889 O 0.02611 0.69935 0.6038 0.0
C890 C 0.02066 0.65239 0.39324 0.0
O891 O 0.02919 0.62625 0.39109 0.0
O892 O 0.01802 0.61643 0.49337 0.0
O893 O 0.98496 0.61575 0.5541 0.0
H894 H 0.10971 0.57745 0.4704 0.0
H895 H 0.96091 0.70407 0.53539 0.0
O896 O 0.98131 0.69028 0.62056 0.0
H897 H 0.88957 0.63274 0.51299 0.0
H898 H 0.9065 0.65218 0.71744 0.0
H899 H 0.98666 0.60024 0.64492 0.0
H900 H 0.93244 0.62157 0.55961 0.0
H901 H 0.9336 0.67209 0.64671 0.0
O902 O 0.0223 0.66577 0.43383 0.0
H903 H 0.06814 0.59887 0.51067 0.0
H904 H 0.07679 0.67148 0.41921 0.0
H905 H 0.96 0.57945 0.71531 0.0
H906 H 0.91825 0.71623 0.48878 0.0
H907 H 0.9196 0.60548 0.75205 0.0
H908 H 0.88224 0.68041 0.47734 0.0
O909 O 0.01738 0.6437 0.6232 0.0
H910 H 0.04531 0.75693 0.48717 0.0
H911 H 0.09226 0.66917 0.53956 0.0
H912 H 0.11569 0.71386 0.55142 0.0
H913 H 0.09221 0.75816 0.52507 0.0
H914 H 0.02246 0.71183 0.47655 0.0
H915 H 0.11846 0.65084 0.3779 0.0
H916 H 0.13517 0.60349 0.40348 0.0
O917 O 0.05198 0.63956 0.56587 0.0
C918 C 0.9991 0.60409 0.51903 0.0
C919 C 0.10265 0.59811 0.45896 0.0
C920 C 0.10757 0.6393 0.40705 0.0
N921 N 0.0701 0.63642 0.46742 0.0
C922 C 0.07914 0.61035 0.48166 0.0
C923 C 0.08398 0.65089 0.43059 0.0
C924 C 0.11693 0.61273 0.42141 0.0
C925 C 0.94523 0.68845 0.53078 0.0
N926 N 0.94905 0.66221 0.55038 0.0
C927 C 0.92117 0.69542 0.50425 0.0
C928 C 0.90099 0.67529 0.4978 0.0
C929 C 0.9051 0.64854 0.51777 0.0
C930 C 0.92943 0.64232 0.54401 0.0
C931 C 0.92402 0.64061 0.70167 0.0
C932 C 0.96898 0.6116 0.66048 0.0
C933 C 0.93946 0.65179 0.6617 0.0
N934 N 0.96151 0.63722 0.64144 0.0
C935 C 0.95402 0.59977 0.70044 0.0
C936 C 0.93138 0.6144 0.72106 0.0
C937 C 0.04254 0.63793 0.61067 0.0
C938 C 0.0558 0.73776 0.49863 0.0
C939 C 0.08185 0.68835 0.52811 0.0
C940 C 0.09526 0.7136 0.53481 0.0
C941 C 0.08209 0.73844 0.51998 0.0
N942 N 0.05607 0.68784 0.50708 0.0
C943 C 0.04303 0.71213 0.49244 0.0
H944 H 0.59172 0.11306 0.40184 0.0
H945 H 0.60508 0.10045 0.10516 0.0
H946 H 0.5309 0.1484 0.30036 0.0
H947 H 0.64363 0.04189 0.20846 0.0
H948 H 0.58446 0.1254 0.17612 0.0
H949 H 0.6177 0.09413 0.33041 0.0
C950 C 0.58394 0.11708 0.36457 0.0
C951 C 0.55891 0.1321 0.35711 0.0
C952 C 0.59757 0.10717 0.18311 0.0
C953 C 0.58866 0.11063 0.27541 0.0
C954 C 0.60942 0.09297 0.14271 0.0
C955 C 0.62587 0.06887 0.1509 0.0
C956 C 0.60254 0.09743 0.23195 0.0
C957 C 0.63082 0.06019 0.20039 0.0
C958 C 0.59874 0.10618 0.32389 0.0
C959 C 0.54992 0.13669 0.3079 0.0
N960 N 0.61916 0.07445 0.23908 0.0
N961 N 0.56477 0.12593 0.26887 0.0
H962 H 0.35605 0.53587 0.28837 0.0
H963 H 0.46626 0.6476 0.20058 0.0
H964 H 0.38998 0.59518 0.38986 0.0
H965 H 0.40779 0.61249 0.09883 0.0
H966 H 0.43998 0.62726 0.27072 0.0
H967 H 0.37618 0.56225 0.21815 0.0
C968 C 0.36758 0.55452 0.29589 0.0
C969 C 0.37152 0.56321 0.34511 0.0
C970 C 0.43277 0.62428 0.23304 0.0
C971 C 0.39477 0.59327 0.26501 0.0
C972 C 0.4478 0.63578 0.19298 0.0
C973 C 0.43933 0.63156 0.14372 0.0
C974 C 0.40941 0.60805 0.22374 0.0
C975 C 0.41513 0.61623 0.13615 0.0
C976 C 0.37895 0.56961 0.25579 0.0
C977 C 0.38648 0.58766 0.35258 0.0
N978 N 0.40122 0.60471 0.17573 0.0
N979 N 0.39787 0.60164 0.31297 0.0
H980 H 0.89017 0.40824 0.09813 0.0
H981 H 0.90028 0.39447 0.39519 0.0
H982 H 0.85387 0.4689 0.19884 0.0
H983 H 0.9601 0.35668 0.29333 0.0
H984 H 0.87576 0.41499 0.32358 0.0
H985 H 0.90859 0.38225 0.17003 0.0
C986 C 0.88585 0.41598 0.13533 0.0
C987 C 0.87071 0.44096 0.14244 0.0
C988 C 0.89416 0.40205 0.31706 0.0
C989 C 0.89156 0.4112 0.22467 0.0
C990 C 0.9081 0.39025 0.35782 0.0
C991 C 0.93244 0.37408 0.35022 0.0
C992 C 0.90441 0.39729 0.26845 0.0
C993 C 0.9416 0.36928 0.30094 0.0
C994 C 0.89645 0.40117 0.17627 0.0
C995 C 0.86571 0.44992 0.19157 0.0
N996 N 0.92759 0.38088 0.2619 0.0
N997 N 0.87616 0.43505 0.23086 0.0
H998 H 0.1007 0.88594 0.10461 0.0
H999 H 0.11185 0.89764 0.40136 0.0
H1000 H 0.04147 0.84934 0.20857 0.0
H1001 H 0.14918 0.95629 0.29717 0.0
H1002 H 0.09314 0.8725 0.33085 0.0
H1003 H 0.12591 0.90447 0.17521 0.0
C1004 C 0.09316 0.88152 0.14223 0.0
C1005 C 0.06874 0.86632 0.15065 0.0
C1006 C 0.10558 0.89077 0.32354 0.0
C1007 C 0.09757 0.88735 0.2314 0.0
C1008 C 0.11635 0.9051 0.36371 0.0
C1009 C 0.13185 0.92931 0.35519 0.0
C1010 C 0.11067 0.90051 0.27454 0.0
C1011 C 0.13706 0.93792 0.30553 0.0
C1012 C 0.10751 0.8922 0.18245 0.0
C1013 C 0.06001 0.86121 0.20028 0.0
N1014 N 0.12643 0.92357 0.26708 0.0
N1015 N 0.07438 0.87178 0.23879 0.0
H1016 H 0.39741 0.89976 0.89365 0.0
H1017 H 0.40812 0.88878 0.59635 0.0
H1018 H 0.35778 0.9587 0.79239 0.0
H1019 H 0.46985 0.85296 0.69553 0.0
H1020 H 0.38265 0.90714 0.66885 0.0
H1021 H 0.41732 0.87511 0.8217 0.0
C1022 C 0.39268 0.90738 0.85635 0.0
C1023 C 0.37615 0.93151 0.84901 0.0
C1024 C 0.40168 0.8951 0.67463 0.0
C1025 C 0.39867 0.90331 0.76683 0.0
C1026 C 0.4162 0.88453 0.63333 0.0
C1027 C 0.44134 0.86956 0.63983 0.0
C1028 C 0.41218 0.89037 0.72275 0.0
C1029 C 0.45073 0.86465 0.68872 0.0
C1030 C 0.40413 0.89335 0.81538 0.0
C1031 C 0.37068 0.94038 0.7998 0.0
N1032 N 0.43616 0.8751 0.72835 0.0
N1033 N 0.38195 0.92629 0.76056 0.0
H1034 H 0.64585 0.46543 0.70479 0.0
H1035 H 0.53441 0.35524 0.79418 0.0
H1036 H 0.61095 0.40639 0.60391 0.0
H1037 H 0.59353 0.38993 0.8952 0.0
H1038 H 0.56074 0.37514 0.72369 0.0
H1039 H 0.6255 0.43947 0.77529 0.0
C1040 C 0.63406 0.44692 0.69746 0.0
C1041 C 0.62993 0.43819 0.64832 0.0
C1042 C 0.56808 0.37813 0.76129 0.0
C1043 C 0.6064 0.40861 0.72878 0.0
C1044 C 0.55302 0.36688 0.80155 0.0
C1045 C 0.56166 0.3711 0.85072 0.0
C1046 C 0.59165 0.39411 0.77028 0.0
C1047 C 0.58605 0.3862 0.85797 0.0
C1048 C 0.62256 0.43207 0.73773 0.0
C1049 C 0.61462 0.41393 0.64111 0.0
N1050 N 0.6 0.39747 0.8182 0.0
N1051 N 0.6031 0.40018 0.68089 0.0
H1052 H 0.09051 0.60635 0.60126 0.0
H1053 H 0.11515 0.59703 0.89579 0.0
H1054 H 0.03753 0.64728 0.71071 0.0
H1055 H 0.14482 0.53374 0.79373 0.0
H1056 H 0.09501 0.62289 0.82543 0.0
H1057 H 0.1188 0.58677 0.66932 0.0
C1058 C 0.08504 0.61149 0.6395 0.0
C1059 C 0.06146 0.62819 0.65046 0.0
C1060 C 0.10612 0.60344 0.8185 0.0
C1061 C 0.09374 0.60613 0.728 0.0
C1062 C 0.11771 0.58867 0.85859 0.0
C1063 C 0.13139 0.56295 0.85078 0.0
C1064 C 0.10847 0.59259 0.77019 0.0
C1065 C 0.13415 0.5533 0.80159 0.0
C1066 C 0.1011 0.60024 0.67822 0.0
C1067 C 0.05532 0.6342 0.70065 0.0
N1068 N 0.12266 0.56809 0.76312 0.0
N1069 N 0.07133 0.62313 0.73758 0.0
H1070 H 0.96622 0.14536 0.79713 0.0
H1071 H 0.85623 0.03663 0.70577 0.0
H1072 H 0.90617 0.10716 0.89754 0.0
H1073 H 0.89503 0.09642 0.6056 0.0
H1074 H 0.87564 0.06077 0.77665 0.0
H1075 H 0.9418 0.12623 0.72636 0.0
C1076 C 0.94783 0.13304 0.80432 0.0
C1077 C 0.93834 0.12769 0.8534 0.0
C1078 C 0.87969 0.06872 0.73917 0.0
C1079 C 0.91044 0.10561 0.7725 0.0
C1080 C 0.86872 0.05491 0.69866 0.0
C1081 C 0.87417 0.06441 0.6496 0.0
C1082 C 0.89658 0.09195 0.7306 0.0
C1083 C 0.89032 0.08832 0.64272 0.0
C1084 C 0.93384 0.12224 0.76386 0.0
C1085 C 0.91426 0.11178 0.86038 0.0
N1086 N 0.90122 0.1011 0.68277 0.0
N1087 N 0.90131 0.10103 0.82037 0.0
H1088 H 0.67479 0.0614 0.83846 0.0
H1089 H 0.77638 0.96805 0.6686 0.0
H1090 H 0.68681 0.9729 0.86346 0.0
H1091 H 0.75617 0.05465 0.63785 0.0
H1092 H 0.74078 0.96784 0.73533 0.0
H1093 H 0.70165 0.05795 0.76074 0.0
C1094 C 0.68291 0.04115 0.82736 0.0
C1095 C 0.67872 0.01743 0.8577 0.0
C1096 C 0.74392 0.98677 0.71354 0.0
C1097 C 0.70986 0.01335 0.76864 0.0
C1098 C 0.76419 0.98689 0.67533 0.0
C1099 C 0.76951 0.01151 0.64796 0.0
C1100 C 0.72897 0.01146 0.72449 0.0
C1101 C 0.75305 0.03527 0.65832 0.0
C1102 C 0.69824 0.03918 0.78285 0.0
C1103 C 0.68956 0.99172 0.84119 0.0
N1104 N 0.73377 0.03472 0.69601 0.0
N1105 N 0.70493 0.99041 0.79801 0.0
H1106 H 0.54284 0.77477 0.65565 0.0
H1107 H 0.45025 0.67542 0.82888 0.0
H1108 H 0.45817 0.75273 0.62351 0.0
H1109 H 0.53828 0.68592 0.8518 0.0
H1110 H 0.45422 0.70102 0.74986 0.0
H1111 H 0.54336 0.73964 0.72317 0.0
C1112 C 0.52453 0.76225 0.6622 0.0
C1113 C 0.50028 0.76697 0.63427 0.0
C1114 C 0.47279 0.69753 0.77177 0.0
C1115 C 0.50067 0.72699 0.71173 0.0
C1116 C 0.47051 0.68294 0.81704 0.0
C1117 C 0.49393 0.67871 0.84716 0.0
C1118 C 0.49862 0.70844 0.75662 0.0
C1119 C 0.51969 0.68873 0.82969 0.0
C1120 C 0.52482 0.74225 0.70085 0.0
C1121 C 0.47721 0.7501 0.64442 0.0
N1122 N 0.52129 0.70347 0.78582 0.0
N1123 N 0.47788 0.73113 0.68261 0.0
H1124 H 0.83046 0.45028 0.82818 0.0
H1125 H 0.72374 0.53987 0.66302 0.0
H1126 H 0.81447 0.53801 0.8513 0.0
H1127 H 0.74825 0.45462 0.63303 0.0
H1128 H 0.75975 0.54142 0.72686 0.0
H1129 H 0.80352 0.45314 0.75184 0.0
C1130 C 0.82148 0.47025 0.81688 0.0
C1131 C 0.82454 0.4939 0.84636 0.0
C1132 C 0.75746 0.52251 0.70584 0.0
C1133 C 0.79322 0.49728 0.75898 0.0
C1134 C 0.73693 0.52162 0.66931 0.0
C1135 C 0.73272 0.49695 0.64305 0.0
C1136 C 0.77378 0.49854 0.71624 0.0
C1137 C 0.75048 0.47399 0.65273 0.0
C1138 C 0.80609 0.47189 0.77318 0.0
C1139 C 0.81262 0.51927 0.82965 0.0
N1140 N 0.76999 0.47527 0.68881 0.0
N1141 N 0.79715 0.52022 0.78736 0.0
H1142 H 0.05577 0.82472 0.83637 0.0
H1143 H 0.95902 0.72262 0.68775 0.0
H1144 H 0.96794 0.81674 0.86987 0.0
H1145 H 0.04245 0.74433 0.64054 0.0
H1146 H 0.96034 0.7588 0.75141 0.0
H1147 H 0.05008 0.79716 0.7616 0.0
C1148 C 0.0352 0.81739 0.82768 0.0
C1149 C 0.01233 0.82291 0.85954 0.0
C1150 C 0.9782 0.75584 0.72666 0.0
C1151 C 0.00568 0.79091 0.77409 0.0
C1152 C 0.97744 0.73522 0.69027 0.0
C1153 C 0.00079 0.73018 0.65915 0.0
C1154 C 0.00252 0.77137 0.73207 0.0
C1155 C 0.02408 0.74719 0.66406 0.0
C1156 C 0.03193 0.80165 0.78489 0.0
C1157 C 0.98612 0.81299 0.84626 0.0
N1158 N 0.02444 0.76676 0.70013 0.0
N1159 N 0.98357 0.79714 0.80484 0.0
H1160 H 0.18497 0.02689 0.6405 0.0
H1161 H 0.25819 0.94255 0.86516 0.0
H1162 H 0.17887 0.93811 0.66604 0.0
H1163 H 0.27639 0.02832 0.82812 0.0
H1164 H 0.22287 0.94307 0.80066 0.0
H1165 H 0.21248 0.03003 0.71674 0.0
C1166 C 0.18906 0.00814 0.66247 0.0
C1167 C 0.17975 0.98216 0.64668 0.0
C1168 C 0.2344 0.96187 0.80682 0.0
C1169 C 0.21121 0.98561 0.73374 0.0
C1170 C 0.25458 0.96162 0.84379 0.0
C1171 C 0.27055 0.98534 0.85173 0.0
C1172 C 0.2301 0.98599 0.77726 0.0
C1173 C 0.26468 0.00951 0.82313 0.0
C1174 C 0.20486 0.00994 0.70585 0.0
C1175 C 0.1858 0.95854 0.6765 0.0
N1176 N 0.2451 0.00914 0.7868 0.0
N1177 N 0.2012 0.96083 0.71835 0.0
H1178 H 0.54859 0.1713 0.67174 0.0
H1179 H 0.45916 0.27828 0.8364 0.0
H1180 H 0.46103 0.18781 0.64777 0.0
H1181 H 0.54406 0.25296 0.86756 0.0
H1182 H 0.45755 0.24233 0.77246 0.0
H1183 H 0.54562 0.19801 0.74834 0.0
C1184 C 0.52863 0.18034 0.68291 0.0
C1185 C 0.50507 0.1775 0.65312 0.0
C1186 C 0.47639 0.24443 0.79377 0.0
C1187 C 0.50156 0.20856 0.74078 0.0
C1188 C 0.47731 0.26492 0.83036 0.0
C1189 C 0.50192 0.2689 0.85696 0.0
C1190 C 0.50026 0.22792 0.78365 0.0
C1191 C 0.52475 0.25092 0.84759 0.0
C1192 C 0.52692 0.1956 0.72676 0.0
C1193 C 0.4797 0.18949 0.66967 0.0
N1194 N 0.52345 0.23147 0.81143 0.0
N1195 N 0.47869 0.20484 0.7121 0.0
H1196 H 0.32683 0.55328 0.65956 0.0
H1197 H 0.22715 0.46105 0.83277 0.0
H1198 H 0.31647 0.46516 0.63746 0.0
H1199 H 0.24873 0.54596 0.86404 0.0
H1200 H 0.26248 0.46041 0.76563 0.0
H1201 H 0.30099 0.54954 0.73836 0.0
C1202 C 0.3193 0.53305 0.67155 0.0
C1203 C 0.32362 0.50954 0.64171 0.0
C1204 C 0.25972 0.47903 0.78766 0.0
C1205 C 0.29363 0.50512 0.73198 0.0
C1206 C 0.2396 0.4794 0.82609 0.0
C1207 C 0.2347 0.50374 0.85367 0.0
C1208 C 0.27492 0.5032 0.77666 0.0
C1209 C 0.2515 0.52685 0.84339 0.0
C1210 C 0.30456 0.53091 0.71668 0.0
C1211 C 0.31358 0.48382 0.65935 0.0
N1212 N 0.27059 0.5261 0.80542 0.0
N1213 N 0.2987 0.48235 0.70308 0.0
H1214 H 0.93973 0.32518 0.66325 0.0
H1215 H 0.03465 0.22475 0.83209 0.0
H1216 H 0.02843 0.31501 0.63816 0.0
H1217 H 0.94836 0.24518 0.86527 0.0
H1218 H 0.03433 0.26031 0.76523 0.0
H1219 H 0.94377 0.29848 0.74105 0.0
C1220 C 0.96014 0.3175 0.67435 0.0
C1221 C 0.98375 0.32217 0.64398 0.0
C1222 C 0.01559 0.25722 0.7876 0.0
C1223 C 0.98852 0.2912 0.7331 0.0
C1224 C 0.01578 0.23698 0.82586 0.0
C1225 C 0.99139 0.23172 0.85393 0.0
C1226 C 0.99082 0.27219 0.7773 0.0
C1227 C 0.96756 0.24823 0.84423 0.0
C1228 C 0.96245 0.30227 0.71891 0.0
C1229 C 0.00968 0.31189 0.66048 0.0
N1230 N 0.96781 0.26746 0.80646 0.0
N1231 N 0.01134 0.29657 0.70367 0.0
H1232 H 0.2498 0.94215 0.36705 0.0
H1233 H 0.31851 0.02735 0.13812 0.0
H1234 H 0.22772 0.02776 0.33136 0.0
H1235 H 0.32822 0.93853 0.1623 0.0
H1236 H 0.29155 0.03023 0.21665 0.0
H1237 H 0.2852 0.94311 0.30072 0.0
C1238 C 0.25259 0.96128 0.34562 0.0
C1239 C 0.23549 0.9848 0.3544 0.0
C1240 C 0.29985 0.01018 0.20494 0.0
C1241 C 0.27597 0.98596 0.27789 0.0
C1242 C 0.31532 0.00854 0.16025 0.0
C1243 C 0.32545 0.98262 0.14344 0.0
C1244 C 0.29466 0.98577 0.23308 0.0
C1245 C 0.3206 0.95891 0.17353 0.0
C1246 C 0.2728 0.96179 0.30761 0.0
C1247 C 0.24031 0.00908 0.3257 0.0
N1248 N 0.30547 0.96105 0.21667 0.0
N1249 N 0.25992 0.00895 0.28834 0.0
H1250 H 0.45788 0.22822 0.33899 0.0
H1251 H 0.55147 0.32656 0.16548 0.0
H1252 H 0.54295 0.24901 0.37067 0.0
H1253 H 0.46315 0.31756 0.14354 0.0
H1254 H 0.5474 0.30068 0.24423 0.0
H1255 H 0.45775 0.26337 0.27149 0.0
C1256 C 0.47637 0.24046 0.33233 0.0
C1257 C 0.50059 0.23539 0.36016 0.0
C1258 C 0.5288 0.30456 0.22259 0.0
C1259 C 0.50065 0.2754 0.28272 0.0
C1260 C 0.53113 0.31932 0.17748 0.0
C1261 C 0.50765 0.32406 0.14772 0.0
C1262 C 0.50285 0.29403 0.23794 0.0
C1263 C 0.48179 0.31436 0.16537 0.0
C1264 C 0.47629 0.26048 0.29369 0.0
C1265 C 0.52391 0.25192 0.34986 0.0
N1266 N 0.48013 0.29947 0.20908 0.0
N1267 N 0.52344 0.2709 0.31169 0.0
H1268 H 0.27778 0.46177 0.32955 0.0
H1269 H 0.17172 0.55245 0.16496 0.0
H1270 H 0.25345 0.54692 0.36071 0.0
H1271 H 0.18711 0.4647 0.14109 0.0
H1272 H 0.19855 0.54918 0.2414 0.0
H1273 H 0.24184 0.46061 0.26553 0.0
C1274 C 0.26464 0.48007 0.32348 0.0
C1275 C 0.26889 0.50461 0.35013 0.0
C1276 C 0.19587 0.53051 0.21988 0.0
C1277 C 0.22791 0.50347 0.27673 0.0
C1278 C 0.18054 0.53238 0.17612 0.0
C1279 C 0.17735 0.50885 0.1464 0.0
C1280 C 0.20854 0.50499 0.2339 0.0
C1281 C 0.18907 0.48336 0.16293 0.0
C1282 C 0.24416 0.47941 0.28685 0.0
C1283 C 0.2512 0.52766 0.34072 0.0
N1284 N 0.20448 0.48217 0.20528 0.0
N1285 N 0.23173 0.5266 0.30452 0.0
H1286 H 0.94101 0.17599 0.16474 0.0
H1287 H 0.0323 0.27593 0.32961 0.0
H1288 H 0.02978 0.18451 0.1422 0.0
H1289 H 0.94612 0.25704 0.36157 0.0
H1290 H 0.03315 0.24041 0.26465 0.0
H1291 H 0.94361 0.20351 0.24024 0.0
C1292 C 0.96113 0.18347 0.17593 0.0
C1293 C 0.98519 0.17806 0.14693 0.0
C1294 C 0.01417 0.24384 0.28631 0.0
C1295 C 0.9883 0.20998 0.23339 0.0
C1296 C 0.01369 0.26408 0.32349 0.0
C1297 C 0.98901 0.26971 0.35076 0.0
C1298 C 0.98978 0.22925 0.27625 0.0
C1299 C 0.96553 0.25367 0.34119 0.0
C1300 C 0.96262 0.19919 0.21916 0.0
C1301 C 0.01071 0.18817 0.16348 0.0
N1302 N 0.96644 0.23442 0.30449 0.0
N1303 N 0.01155 0.20393 0.20533 0.0
H1304 H 0.72733 0.9709 0.17062 0.0
H1305 H 0.82465 0.06319 0.33913 0.0
H1306 H 0.74269 0.05826 0.14302 0.0
H1307 H 0.81823 0.97401 0.35854 0.0
H1308 H 0.7969 0.06081 0.26385 0.0
H1309 H 0.76276 0.97048 0.23566 0.0
C1310 C 0.73838 0.9899 0.17773 0.0
C1311 C 0.7318 0.01473 0.15159 0.0
C1312 C 0.80173 0.04168 0.2842 0.0
C1313 C 0.77219 0.01443 0.22627 0.0
C1314 C 0.8176 0.04304 0.32731 0.0
C1315 C 0.82368 0.01878 0.35538 0.0
C1316 C 0.7915 0.01592 0.26912 0.0
C1317 C 0.81406 0.99324 0.33802 0.0
C1318 C 0.75857 0.98965 0.21496 0.0
C1319 C 0.74683 0.03868 0.16245 0.0
N1320 N 0.79819 0.99251 0.29629 0.0
N1321 N 0.76608 0.03798 0.19918 0.0
H1322 H 0.45011 0.83074 0.32454 0.0
H1323 H 0.54101 0.72541 0.15898 0.0
H1324 H 0.53811 0.81621 0.34714 0.0
H1325 H 0.45577 0.7495 0.12798 0.0
H1326 H 0.54209 0.76131 0.22307 0.0
H1327 H 0.45331 0.80398 0.24799 0.0
C1328 C 0.47021 0.82213 0.31308 0.0
C1329 C 0.49383 0.82555 0.34246 0.0
C1330 C 0.52329 0.75895 0.20177 0.0
C1331 C 0.49763 0.79444 0.25487 0.0
C1332 C 0.52267 0.73849 0.16509 0.0
C1333 C 0.49813 0.73418 0.13847 0.0
C1334 C 0.49918 0.77511 0.21197 0.0
C1335 C 0.47504 0.75181 0.14795 0.0
C1336 C 0.47205 0.80684 0.26926 0.0
C1337 C 0.51937 0.81409 0.32556 0.0
N1338 N 0.47605 0.77124 0.1842 0.0
N1339 N 0.52053 0.7987 0.28318 0.0
H1340 H 0.67648 0.44738 0.33431 0.0
H1341 H 0.77424 0.54133 0.16032 0.0
H1342 H 0.68481 0.53583 0.35558 0.0
H1343 H 0.7541 0.45603 0.12922 0.0
H1344 H 0.7391 0.54133 0.22783 0.0
H1345 H 0.70246 0.45144 0.25568 0.0
C1346 C 0.6836 0.46774 0.32219 0.0
C1347 C 0.67864 0.49127 0.35173 0.0
C1348 C 0.74213 0.52276 0.20576 0.0
C1349 C 0.70877 0.49607 0.26164 0.0
C1350 C 0.76215 0.52276 0.16711 0.0
C1351 C 0.76739 0.49852 0.13944 0.0
C1352 C 0.7274 0.49831 0.21689 0.0
C1353 C 0.75105 0.47509 0.1499 0.0
C1354 C 0.69841 0.47007 0.27715 0.0
C1355 C 0.68818 0.51715 0.33393 0.0
N1356 N 0.73207 0.47549 0.18807 0.0
N1357 N 0.70312 0.51881 0.29029 0.0
H1358 H 0.04458 0.7421 0.11954 0.0
H1359 H 0.98733 0.69878 0.38577 0.0
H1360 H 0.9697 0.77928 0.18296 0.0
H1361 H 0.03718 0.64197 0.29667 0.0
H1362 H 0.98024 0.72836 0.31164 0.0
H1363 H 0.04221 0.70483 0.18299 0.0
C1364 C 0.02744 0.74221 0.14641 0.0
C1365 C 0.00744 0.76394 0.14628 0.0
C1366 C 0.99235 0.7092 0.30807 0.0
C1367 C 0.00487 0.72166 0.21931 0.0
C1368 C 0.99646 0.69235 0.35037 0.0
C1369 C 0.01297 0.66798 0.34731 0.0
C1370 C 0.00539 0.70198 0.26261 0.0
C1371 C 0.02425 0.66057 0.30056 0.0
C1372 C 0.02606 0.7209 0.1825 0.0
C1373 C 0.98559 0.76297 0.18176 0.0
N1374 N 0.02067 0.67778 0.26014 0.0
N1375 N 0.98515 0.74245 0.21739 0.0
H1376 H 0.42971 0.02977 0.9444 0.0
H1377 H 0.57358 0.97005 0.05535 0.0
H1378 H 0.43523 0.95988 0.0479 0.0
H1379 H 0.56817 0.03995 0.95186 0.0
H1380 H 0.52305 0.96551 0.05182 0.0
H1381 H 0.48027 0.03426 0.94766 0.0
C1382 C 0.44144 0.01554 0.96828 0.0
C1383 C 0.42801 0.99437 0.99586 0.0
C1384 C 0.53293 0.98175 0.02967 0.0
C1385 C 0.4862 0.99921 0.99916 0.0
C1386 C 0.56188 0.98426 0.0314 0.0
C1387 C 0.57533 0.00547 0.00393 0.0
C1388 C 0.51716 0.00057 0.00032 0.0
C1389 C 0.55886 0.02326 0.97371 0.0
C1390 C 0.4704 0.01803 0.96986 0.0
C1391 C 0.44451 0.97656 0.02598 0.0
N1392 N 0.5307 0.02049 0.97294 0.0
N1393 N 0.47268 0.9793 0.02661 0.0
H1394 H 0.46658 0.4321 0.9472 0.0
H1395 H 0.53495 0.57114 0.04848 0.0
H1396 H 0.53568 0.43204 0.04896 0.0
H1397 H 0.46637 0.57103 0.94563 0.0
H1398 H 0.53604 0.52025 0.04804 0.0
H1399 H 0.4656 0.48297 0.94766 0.0
C1400 C 0.48135 0.4427 0.97016 0.0
C1401 C 0.50131 0.42758 0.99798 0.0
C1402 C 0.52086 0.53137 0.02534 0.0
C1403 C 0.50052 0.48608 0.99802 0.0
C1404 C 0.52033 0.5605 0.02528 0.0
C1405 C 0.50047 0.57557 0.99715 0.0
C1406 C 0.50138 0.51707 0.99715 0.0
C1407 C 0.48207 0.56045 0.96796 0.0
C1408 C 0.48088 0.47182 0.97011 0.0
C1409 C 0.51989 0.44267 0.02689 0.0
N1410 N 0.48288 0.53209 0.96896 0.0
N1411 N 0.51913 0.47102 0.02591 0.0
H1412 H 0.92902 0.53701 0.04457 0.0
H1413 H 0.07266 0.46706 0.94845 0.0
H1414 H 0.93382 0.46727 0.94431 0.0
H1415 H 0.06813 0.53737 0.04746 0.0
H1416 H 0.02184 0.46627 0.94803 0.0
H1417 H 0.97988 0.53802 0.04489 0.0
C1418 C 0.94068 0.52212 0.02207 0.0
C1419 C 0.92693 0.50194 0.99449 0.0
C1420 C 0.03196 0.48177 0.97008 0.0
C1421 C 0.98541 0.50276 0.9954 0.0
C1422 C 0.06106 0.48213 0.97065 0.0
C1423 C 0.07489 0.50238 0.99794 0.0
C1424 C 0.01641 0.5018 0.99693 0.0
C1425 C 0.05853 0.52135 0.02586 0.0
C1426 C 0.9698 0.52261 0.02258 0.0
C1427 C 0.94336 0.48321 0.96618 0.0
N1428 N 0.03022 0.52068 0.02438 0.0
N1429 N 0.97166 0.48398 0.96764 0.0
H1430 H 0.96493 0.0682 0.05906 0.0
H1431 H 0.04156 0.93118 0.95269 0.0
H1432 H 0.0334 0.07029 0.95222 0.0
H1433 H 0.97345 0.92946 0.06029 0.0
H1434 H 0.03865 0.98205 0.95145 0.0
H1435 H 0.96871 0.01745 0.06164 0.0
C1436 C 0.98103 0.05808 0.0366 0.0
C1437 C 0.99881 0.07373 0.0052 0.0
C1438 C 0.02426 0.97053 0.97515 0.0
C1439 C 0.00292 0.01529 0.00747 0.0
C1440 C 0.02576 0.94141 0.97564 0.0
C1441 C 0.00773 0.92584 0.00669 0.0
C1442 C 0.00461 0.98432 0.00593 0.0
C1443 C 0.98782 0.94045 0.03575 0.0
C1444 C 0.98304 0.029 0.03787 0.0
C1445 C 0.01918 0.05923 0.97694 0.0
N1446 N 0.98688 0.9688 0.03478 0.0
N1447 N 0.02055 0.03088 0.97852 0.0
H1448 H 0.06954 0.95828 0.55408 0.0
H1449 H 0.93464 0.03827 0.44634 0.0
H1450 H 0.07341 0.02702 0.44799 0.0
H1451 H 0.9307 0.96877 0.55082 0.0
H1452 H 0.98539 0.03388 0.44534 0.0
H1453 H 0.01875 0.96245 0.55462 0.0
C1454 C 0.05981 0.9745 0.53136 0.0
C1455 C 0.07597 0.99228 0.50085 0.0
C1456 C 0.97342 0.01948 0.46825 0.0
C1457 C 0.01754 0.99686 0.50077 0.0
C1458 C 0.94434 0.02183 0.46858 0.0
C1459 C 0.92817 0.00392 0.49884 0.0
C1460 C 0.98659 0.99911 0.49843 0.0
C1461 C 0.94216 0.98311 0.52695 0.0
C1462 C 0.03072 0.97672 0.53143 0.0
C1463 C 0.06196 0.01279 0.4721 0.0
N1464 N 0.9705 0.9814 0.52626 0.0
N1465 N 0.03362 0.01441 0.4726 0.0
H1466 H 0.5358 0.92959 0.54263 0.0
H1467 H 0.46332 0.07324 0.4527 0.0
H1468 H 0.46548 0.93432 0.44365 0.0
H1469 H 0.53305 0.06838 0.553 0.0
H1470 H 0.46324 0.02241 0.4502 0.0
H1471 H 0.53574 0.98041 0.54526 0.0
C1472 C 0.52056 0.94124 0.52088 0.0
C1473 C 0.50054 0.92746 0.49299 0.0
C1474 C 0.47845 0.03246 0.47301 0.0
C1475 C 0.50013 0.98591 0.49657 0.0
C1476 C 0.47839 0.06156 0.47477 0.0
C1477 C 0.4983 0.07531 0.50297 0.0
C1478 C 0.49857 0.01685 0.49954 0.0
C1479 C 0.51729 0.05885 0.53068 0.0
C1480 C 0.52043 0.97034 0.52273 0.0
C1481 C 0.48133 0.94388 0.4657 0.0
N1482 N 0.51706 0.03057 0.52799 0.0
N1483 N 0.48151 0.97217 0.46844 0.0
H1484 H 0.57027 0.53376 0.54911 0.0
H1485 H 0.43145 0.46724 0.44309 0.0
H1486 H 0.57044 0.46436 0.44804 0.0
H1487 H 0.43137 0.53632 0.54484 0.0
H1488 H 0.4823 0.46539 0.44551 0.0
H1489 H 0.51944 0.53558 0.54659 0.0
C1490 C 0.55972 0.5191 0.52589 0.0
C1491 C 0.57483 0.49882 0.49885 0.0
C1492 C 0.47114 0.48085 0.46752 0.0
C1493 C 0.51638 0.50058 0.49642 0.0
C1494 C 0.44203 0.48182 0.46644 0.0
C1495 C 0.42693 0.50203 0.49371 0.0
C1496 C 0.48539 0.50024 0.496 0.0
C1497 C 0.44198 0.52037 0.52316 0.0
C1498 C 0.53061 0.52005 0.52474 0.0
C1499 C 0.55981 0.48038 0.46954 0.0
N1500 N 0.47032 0.51912 0.52328 0.0
N1501 N 0.53147 0.48162 0.46935 0.0
H1502 H 0.96176 0.56931 0.56611 0.0
H1503 H 0.02697 0.4301 0.44621 0.0
H1504 H 0.02878 0.56921 0.45626 0.0
H1505 H 0.95884 0.43092 0.55384 0.0
H1506 H 0.0289 0.48086 0.45105 0.0
H1507 H 0.96031 0.51862 0.56151 0.0
C1508 C 0.97599 0.55873 0.54058 0.0
C1509 C 0.99546 0.57373 0.51159 0.0
C1510 C 0.01364 0.4699 0.47381 0.0
C1511 C 0.99414 0.51537 0.50672 0.0
C1512 C 0.01263 0.44084 0.47134 0.0
C1513 C 0.99265 0.42604 0.49955 0.0
C1514 C 0.99454 0.48438 0.50469 0.0
C1515 C 0.97461 0.44128 0.53131 0.0
C1516 C 0.97525 0.52969 0.53821 0.0
C1517 C 0.01337 0.55866 0.47932 0.0
N1518 N 0.9759 0.46954 0.53279 0.0
N1519 N 0.01237 0.53036 0.47797 0.0
loop_
_geom_bond_atom_site_label_1
_geom_bond_atom_site_label_2
_geom_bond_distance
_geom_bond_site_symmetry_2
_ccdc_geom_bond_type
Co0 O2 2.143 . S
Co0 O8 2.074 . S
Co0 O11 2.093 . S
Co0 O24 2.097 1_565 S
Co0 N41 2.151 . S
Co0 N49 2.214 . S
Co1 O2 2.160 1_545 S
Co1 O7 2.058 1_545 S
Co1 O17 2.057 . S
Co1 O32 2.037 . S
Co1 N36 2.145 . S
Co1 N57 2.257 . S
O2 Co0 2.143 . S
O2 Co1 2.160 1_565 S
C3 O4 1.278 1_565 S
C3 O11 1.224 . S
O4 C3 1.278 1_545 S
C5 O6 1.236 1_546 S
C5 O17 1.239 1_556 S
O6 C5 1.236 1_564 S
O7 Co1 2.058 1_565 S
O7 C33 1.269 . S
O8 Co0 2.074 . S
O8 C33 1.257 . S
H9 C34 0.930 . S
H10 C40 0.930 . S
O11 Co0 2.093 . S
O11 C3 1.224 . S
H12 C44 0.929 . S
H13 C46 0.930 . S
H14 C47 0.930 . S
H15 C45 0.929 . S
H16 C48 0.928 . S
O17 Co1 2.057 . S
O17 C5 1.239 1_554 S
H18 C37 0.929 . S
H19 C38 0.929 . S
H20 C50 0.931 . S
H21 C42 0.929 . S
H22 C51 0.930 . S
H23 C43 0.931 . S
O24 Co0 2.097 1_545 S
O24 C52 1.214 . S
H25 C53 0.929 . S
H26 C54 0.929 . S
H27 C55 0.930 . S
H28 C56 0.929 . S
H29 C58 0.930 . S
H30 C35 0.930 . S
H31 C39 0.930 . S
O32 Co1 2.037 . S
O32 C52 1.234 . S
C33 O7 1.269 . S
C33 O8 1.257 . S
C34 H9 0.930 . S
C34 C37 1.388 1_556 S
C34 C39 1.418 . S
C35 H30 0.930 . S
C35 C38 1.404 . S
C35 C39 1.353 . S
N36 Co1 2.145 . S
N36 C37 1.397 . S
N36 C38 1.334 1_554 S
C37 H18 0.929 . S
C37 C34 1.388 1_554 S
C37 N36 1.397 . S
C38 H19 0.929 . S
C38 C35 1.404 . S
C38 N36 1.334 1_556 S
C39 H31 0.930 . S
C39 C34 1.418 . S
C39 C35 1.353 . S
C40 H10 0.930 . S
C40 N41 1.330 . S
C40 C42 1.446 . S
N41 Co0 2.151 . S
N41 C40 1.330 . S
N41 C45 1.418 . S
C42 H21 0.929 . S
C42 C40 1.446 . S
C42 C43 1.332 . S
C43 H23 0.931 . S
C43 C42 1.332 . S
C43 C44 1.267 . S
C44 H12 0.929 . S
C44 C43 1.267 . S
C44 C45 1.251 . S
C45 H15 0.929 . S
C45 N41 1.418 . S
C45 C44 1.251 . S
C46 H13 0.930 . S
C46 C48 1.406 . S
C46 C51 1.261 . S
C47 H14 0.930 . S
C47 N49 1.325 . S
C47 C50 1.357 . S
C48 H16 0.928 . S
C48 C46 1.406 . S
C48 N49 1.261 . S
N49 Co0 2.214 . S
N49 C47 1.325 . S
N49 C48 1.261 . S
C50 H20 0.931 . S
C50 C47 1.357 . S
C50 C51 1.312 . S
C51 H22 0.930 . S
C51 C46 1.261 . S
C51 C50 1.312 . S
C52 O24 1.214 . S
C52 O32 1.234 . S
C53 H25 0.929 . S
C53 C56 1.391 . S
C53 C58 1.391 . S
C54 H26 0.929 . S
C54 C55 1.390 . S
C54 N57 1.391 . S
C55 H27 0.930 . S
C55 C54 1.390 . S
C55 C56 1.392 . S
C56 H28 0.929 . S
C56 C53 1.391 . S
C56 C55 1.392 . S
N57 Co1 2.257 . S
N57 C54 1.391 . S
N57 C58 1.388 . S
C58 H29 0.930 . S
C58 C53 1.391 . S
C58 N57 1.388 . S
Co59 O61 2.143 . S
Co59 O67 2.074 . S
Co59 O70 2.093 . S
Co59 O83 2.097 . S
Co59 N100 2.151 . S
Co59 N108 2.214 . S
Co60 O61 2.160 . S
Co60 O66 2.058 . S
Co60 O76 2.057 . S
Co60 O91 2.037 . S
Co60 N95 2.145 . S
Co60 N116 2.257 . S
O61 Co59 2.143 . S
O61 Co60 2.160 . S
C62 O63 1.278 . S
C62 O70 1.224 . S
O63 C62 1.278 . S
C64 O65 1.245 . S
C64 O76 1.232 . S
O65 C64 1.245 . S
O66 Co60 2.058 . S
O66 C92 1.269 . S
O67 Co59 2.074 . S
O67 C92 1.257 . S
H68 C93 0.930 . S
H69 C99 0.930 . S
O70 Co59 2.093 . S
O70 C62 1.224 . S
H71 C103 0.929 . S
H72 C105 0.930 . S
H73 C106 0.930 . S
H74 C104 0.929 . S
H75 C107 0.928 . S
O76 Co60 2.057 . S
O76 C64 1.232 . S
H77 C96 0.929 . S
H78 C97 0.929 . S
H79 C109 0.931 . S
H80 C101 0.929 . S
H81 C110 0.930 . S
H82 C102 0.931 . S
O83 Co59 2.097 . S
O83 C111 1.214 . S
H84 C112 0.929 . S
H85 C113 0.929 . S
H86 C114 0.930 . S
H87 C115 0.929 . S
H88 C117 0.930 . S
H89 C94 0.930 . S
H90 C98 0.930 . S
O91 Co60 2.037 . S
O91 C111 1.234 . S
C92 O66 1.269 . S
C92 O67 1.257 . S
C93 H68 0.930 . S
C93 C96 1.388 . S
C93 C98 1.418 1_554 S
C94 H89 0.930 . S
C94 C97 1.404 . S
C94 C98 1.353 . S
N95 Co60 2.145 . S
N95 C96 1.397 . S
N95 C97 1.334 1_554 S
C96 H77 0.929 . S
C96 C93 1.388 . S
C96 N95 1.397 . S
C97 H78 0.929 . S
C97 C94 1.404 . S
C97 N95 1.334 1_556 S
C98 H90 0.930 . S
C98 C93 1.418 1_556 S
C98 C94 1.353 . S
C99 H69 0.930 . S
C99 N100 1.330 . S
C99 C101 1.446 . S
N100 Co59 2.151 . S
N100 C99 1.330 . S
N100 C104 1.418 . S
C101 H80 0.929 . S
C101 C99 1.446 . S
C101 C102 1.332 . S
C102 H82 0.931 . S
C102 C101 1.332 . S
C102 C103 1.267 . S
C103 H71 0.929 . S
C103 C102 1.267 . S
C103 C104 1.251 . S
C104 H74 0.929 . S
C104 N100 1.418 . S
C104 C103 1.251 . S
C105 H72 0.930 . S
C105 C107 1.406 . S
C105 C110 1.261 . S
C106 H73 0.930 . S
C106 N108 1.325 . S
C106 C109 1.357 . S
C107 H75 0.928 . S
C107 C105 1.406 . S
C107 N108 1.261 . S
N108 Co59 2.214 . S
N108 C106 1.325 . S
N108 C107 1.261 . S
C109 H79 0.931 . S
C109 C106 1.357 . S
C109 C110 1.312 . S
C110 H81 0.930 . S
C110 C105 1.261 . S
C110 C109 1.312 . S
C111 O83 1.214 . S
C111 O91 1.234 . S
C112 H84 0.929 . S
C112 C115 1.391 . S
C112 C117 1.391 . S
C113 H85 0.929 . S
C113 C114 1.390 . S
C113 N116 1.391 . S
C114 H86 0.930 . S
C114 C113 1.390 . S
C114 C115 1.392 . S
C115 H87 0.929 . S
C115 C112 1.391 . S
C115 C114 1.392 . S
N116 Co60 2.257 . S
N116 C113 1.391 . S
N116 C117 1.388 . S
C117 H88 0.930 . S
C117 C112 1.391 . S
C117 N116 1.388 . S
Co118 O120 2.143 . S
Co118 O126 2.074 . S
Co118 O129 2.093 . S
Co118 O142 2.097 . S
Co118 N159 2.151 . S
Co118 N167 2.214 . S
Co119 O120 2.160 . S
Co119 O125 2.058 . S
Co119 O135 2.057 . S
Co119 O150 2.037 . S
Co119 N154 2.145 . S
Co119 N175 2.257 . S
O120 Co118 2.143 . S
O120 Co119 2.160 . S
C121 O122 1.278 . S
C121 O129 1.224 . S
O122 C121 1.278 . S
C123 O124 1.245 . S
C123 O135 1.232 . S
O124 C123 1.245 . S
O125 Co119 2.058 . S
O125 C151 1.269 . S
O126 Co118 2.074 . S
O126 C151 1.257 . S
H127 C152 0.930 . S
H128 C158 0.930 . S
O129 Co118 2.093 . S
O129 C121 1.224 . S
H130 C162 0.929 . S
H131 C164 0.930 . S
H132 C165 0.930 . S
H133 C163 0.929 . S
H134 C166 0.928 . S
O135 Co119 2.057 . S
O135 C123 1.232 . S
H136 C155 0.929 . S
H137 C156 0.929 . S
H138 C168 0.931 . S
H139 C160 0.929 . S
H140 C169 0.930 . S
H141 C161 0.931 . S
O142 Co118 2.097 . S
O142 C170 1.214 . S
H143 C171 0.929 . S
H144 C172 0.929 . S
H145 C173 0.930 . S
H146 C174 0.929 . S
H147 C176 0.930 . S
H148 C153 0.930 . S
H149 C157 0.930 . S
O150 Co119 2.037 . S
O150 C170 1.234 . S
C151 O125 1.269 . S
C151 O126 1.257 . S
C152 H127 0.930 . S
C152 C155 1.388 . S
C152 C157 1.418 1_554 S
C153 H148 0.930 . S
C153 C156 1.404 . S
C153 C157 1.353 . S
N154 Co119 2.145 . S
N154 C155 1.397 . S
N154 C156 1.334 1_554 S
C155 H136 0.929 . S
C155 C152 1.388 . S
C155 N154 1.397 . S
C156 H137 0.929 . S
C156 C153 1.404 . S
C156 N154 1.334 1_556 S
C157 H149 0.930 . S
C157 C152 1.418 1_556 S
C157 C153 1.353 . S
C158 H128 0.930 . S
C158 N159 1.330 . S
C158 C160 1.446 . S
N159 Co118 2.151 . S
N159 C158 1.330 . S
N159 C163 1.418 . S
C160 H139 0.929 . S
C160 C158 1.446 . S
C160 C161 1.332 . S
C161 H141 0.931 . S
C161 C160 1.332 . S
C161 C162 1.267 . S
C162 H130 0.929 . S
C162 C161 1.267 . S
C162 C163 1.251 . S
C163 H133 0.929 . S
C163 N159 1.418 . S
C163 C162 1.251 . S
C164 H131 0.930 . S
C164 C166 1.406 . S
C164 C169 1.261 . S
C165 H132 0.930 . S
C165 N167 1.325 . S
C165 C168 1.357 . S
C166 H134 0.928 . S
C166 C164 1.406 . S
C166 N167 1.261 . S
N167 Co118 2.214 . S
N167 C165 1.325 . S
N167 C166 1.261 . S
C168 H138 0.931 . S
C168 C165 1.357 . S
C168 C169 1.312 . S
C169 H140 0.930 . S
C169 C164 1.261 . S
C169 C168 1.312 . S
C170 O142 1.214 . S
C170 O150 1.234 . S
C171 H143 0.929 . S
C171 C174 1.391 . S
C171 C176 1.391 . S
C172 H144 0.929 . S
C172 C173 1.390 . S
C172 N175 1.391 . S
C173 H145 0.930 . S
C173 C172 1.390 . S
C173 C174 1.392 . S
C174 H146 0.929 . S
C174 C171 1.391 . S
C174 C173 1.392 . S
N175 Co119 2.257 . S
N175 C172 1.391 . S
N175 C176 1.388 . S
C176 H147 0.930 . S
C176 C171 1.391 . S
C176 N175 1.388 . S
Co177 O179 2.143 . S
Co177 O185 2.074 . S
Co177 O188 2.093 . S
Co177 O201 2.097 1_655 S
Co177 N218 2.151 . S
Co177 N226 2.214 . S
Co178 O179 2.160 1_455 S
Co178 O184 2.051 1_455 S
Co178 O194 2.057 . S
Co178 O209 2.037 . S
Co178 N213 2.145 . S
Co178 N234 2.257 . S
O179 Co177 2.143 . S
O179 Co178 2.160 1_655 S
C180 O181 1.255 1_655 S
C180 O188 1.224 . S
O181 C180 1.255 1_455 S
C182 O183 1.245 1_556 S
C182 O194 1.232 1_656 S
O183 C182 1.245 1_554 S
O184 Co178 2.051 1_655 S
O184 C210 1.276 . S
O185 Co177 2.074 . S
O185 C210 1.257 . S
H186 C211 0.930 . S
H187 C217 0.930 . S
O188 Co177 2.093 . S
O188 C180 1.224 . S
H189 C221 0.929 . S
H190 C223 0.930 . S
H191 C224 0.930 . S
H192 C222 0.929 . S
H193 C225 0.928 . S
O194 Co178 2.057 . S
O194 C182 1.232 1_454 S
H195 C214 0.929 . S
H196 C215 0.929 . S
H197 C227 0.931 . S
H198 C219 0.929 . S
H199 C228 0.930 . S
H200 C220 0.931 . S
O201 Co177 2.097 1_455 S
O201 C229 1.214 . S
H202 C230 0.929 . S
H203 C231 0.929 . S
H204 C232 0.930 . S
H205 C233 0.929 . S
H206 C235 0.930 . S
H207 C212 0.930 . S
H208 C216 0.930 . S
O209 Co178 2.037 . S
O209 C229 1.234 . S
C210 O184 1.276 . S
C210 O185 1.257 . S
C211 H186 0.930 . S
C211 C214 1.388 1_556 S
C211 C216 1.418 . S
C212 H207 0.930 . S
C212 C215 1.404 . S
C212 C216 1.353 . S
N213 Co178 2.145 . S
N213 C214 1.397 . S
N213 C215 1.334 1_554 S
C214 H195 0.929 . S
C214 C211 1.388 1_554 S
C214 N213 1.397 . S
C215 H196 0.929 . S
C215 C212 1.404 . S
C215 N213 1.334 1_556 S
C216 H208 0.930 . S
C216 C211 1.418 . S
C216 C212 1.353 . S
C217 H187 0.930 . S
C217 N218 1.330 . S
C217 C219 1.446 . S
N218 Co177 2.151 . S
N218 C217 1.330 . S
N218 C222 1.418 . S
C219 H198 0.929 . S
C219 C217 1.446 . S
C219 C220 1.332 . S
C220 H200 0.931 . S
C220 C219 1.332 . S
C220 C221 1.267 . S
C221 H189 0.929 . S
C221 C220 1.267 . S
C221 C222 1.251 . S
C222 H192 0.929 . S
C222 N218 1.418 . S
C222 C221 1.251 . S
C223 H190 0.930 . S
C223 C225 1.406 . S
C223 C228 1.261 . S
C224 H191 0.930 . S
C224 N226 1.325 . S
C224 C227 1.357 . S
C225 H193 0.928 . S
C225 C223 1.406 . S
C225 N226 1.261 . S
N226 Co177 2.214 . S
N226 C224 1.325 . S
N226 C225 1.261 . S
C227 H197 0.931 . S
C227 C224 1.357 . S
C227 C228 1.312 . S
C228 H199 0.930 . S
C228 C223 1.261 . S
C228 C227 1.312 . S
C229 O201 1.214 . S
C229 O209 1.234 . S
C230 H202 0.929 . S
C230 C233 1.391 . S
C230 C235 1.391 . S
C231 H203 0.929 . S
C231 C232 1.390 . S
C231 N234 1.391 . S
C232 H204 0.930 . S
C232 C231 1.390 . S
C232 C233 1.392 . S
C233 H205 0.929 . S
C233 C230 1.391 . S
C233 C232 1.392 . S
N234 Co178 2.257 . S
N234 C231 1.391 . S
N234 C235 1.388 . S
C235 H206 0.930 . S
C235 C230 1.391 . S
C235 N234 1.388 . S
Co236 O238 2.143 . S
Co236 O244 2.074 . S
Co236 O247 2.093 . S
Co236 O260 2.097 1_545 S
Co236 N277 2.151 . S
Co236 N285 2.214 . S
Co237 O238 2.160 1_565 S
Co237 O243 2.051 1_565 S
Co237 O253 2.057 . S
Co237 O268 2.037 . S
Co237 N272 2.145 . S
Co237 N293 2.257 . S
O238 Co236 2.143 . S
O238 Co237 2.160 1_545 S
C239 O240 1.255 1_545 S
C239 O247 1.224 . S
O240 C239 1.255 1_565 S
C241 O242 1.245 . S
C241 O253 1.232 1_545 S
O242 C241 1.245 . S
O243 Co237 2.051 1_545 S
O243 C269 1.276 . S
O244 Co236 2.074 . S
O244 C269 1.257 . S
H245 C270 0.930 . S
H246 C276 0.930 . S
O247 Co236 2.093 . S
O247 C239 1.224 . S
H248 C280 0.929 . S
H249 C282 0.930 . S
H250 C283 0.930 . S
H251 C281 0.929 . S
H252 C284 0.928 . S
O253 Co237 2.057 . S
O253 C241 1.232 1_565 S
H254 C273 0.929 . S
H255 C274 0.929 . S
H256 C286 0.931 . S
H257 C278 0.929 . S
H258 C287 0.930 . S
H259 C279 0.931 . S
O260 Co236 2.097 1_565 S
O260 C288 1.214 . S
H261 C289 0.929 . S
H262 C290 0.929 . S
H263 C291 0.930 . S
H264 C292 0.929 . S
H265 C294 0.930 . S
H266 C271 0.930 . S
H267 C275 0.930 . S
O268 Co237 2.037 . S
O268 C288 1.234 . S
C269 O243 1.276 . S
C269 O244 1.257 . S
C270 H245 0.930 . S
C270 C273 1.388 . S
C270 C275 1.418 . S
C271 H266 0.930 . S
C271 C274 1.404 . S
C271 C275 1.353 . S
N272 Co237 2.145 . S
N272 C273 1.397 . S
N272 C274 1.334 . S
C273 H254 0.929 . S
C273 C270 1.388 . S
C273 N272 1.397 . S
C274 H255 0.929 . S
C274 C271 1.404 . S
C274 N272 1.334 . S
C275 H267 0.930 . S
C275 C270 1.418 . S
C275 C271 1.353 . S
C276 H246 0.930 . S
C276 N277 1.330 . S
C276 C278 1.446 . S
N277 Co236 2.151 . S
N277 C276 1.330 . S
N277 C281 1.418 . S
C278 H257 0.929 . S
C278 C276 1.446 . S
C278 C279 1.332 . S
C279 H259 0.931 . S
C279 C278 1.332 . S
C279 C280 1.267 . S
C280 H248 0.929 . S
C280 C279 1.267 . S
C280 C281 1.251 . S
C281 H251 0.929 . S
C281 N277 1.418 . S
C281 C280 1.251 . S
C282 H249 0.930 . S
C282 C284 1.406 . S
C282 C287 1.261 . S
C283 H250 0.930 . S
C283 N285 1.325 . S
C283 C286 1.357 . S
C284 H252 0.928 . S
C284 C282 1.406 . S
C284 N285 1.261 . S
N285 Co236 2.214 . S
N285 C283 1.325 . S
N285 C284 1.261 . S
C286 H256 0.931 . S
C286 C283 1.357 . S
C286 C287 1.312 . S
C287 H258 0.930 . S
C287 C282 1.261 . S
C287 C286 1.312 . S
C288 O260 1.214 . S
C288 O268 1.234 . S
C289 H261 0.929 . S
C289 C292 1.391 . S
C289 C294 1.391 . S
C290 H262 0.929 . S
C290 C291 1.390 . S
C290 N293 1.391 . S
C291 H263 0.930 . S
C291 C290 1.390 . S
C291 C292 1.392 . S
C292 H264 0.929 . S
C292 C289 1.391 . S
C292 C291 1.392 . S
N293 Co237 2.257 . S
N293 C290 1.391 . S
N293 C294 1.388 . S
C294 H265 0.930 . S
C294 C289 1.391 . S
C294 N293 1.388 . S
Co295 O297 2.143 . S
Co295 O303 2.074 . S
Co295 O306 2.093 . S
Co295 O319 2.097 . S
Co295 N336 2.151 . S
Co295 N344 2.214 . S
Co296 O297 2.160 . S
Co296 O302 2.058 . S
Co296 O312 2.057 . S
Co296 O327 2.037 . S
Co296 N331 2.145 . S
Co296 N352 2.257 . S
O297 Co295 2.143 . S
O297 Co296 2.160 . S
C298 O299 1.278 . S
C298 O306 1.224 . S
O299 C298 1.278 . S
C300 O301 1.245 . S
C300 O312 1.232 . S
O301 C300 1.245 . S
O302 Co296 2.058 . S
O302 C328 1.269 . S
O303 Co295 2.074 . S
O303 C328 1.257 . S
H304 C329 0.930 . S
H305 C335 0.930 . S
O306 Co295 2.093 . S
O306 C298 1.224 . S
H307 C339 0.929 . S
H308 C341 0.930 . S
H309 C342 0.930 . S
H310 C340 0.929 . S
H311 C343 0.928 . S
O312 Co296 2.057 . S
O312 C300 1.232 . S
H313 C332 0.929 . S
H314 C333 0.929 . S
H315 C345 0.931 . S
H316 C337 0.929 . S
H317 C346 0.930 . S
H318 C338 0.931 . S
O319 Co295 2.097 . S
O319 C347 1.214 . S
H320 C348 0.929 . S
H321 C349 0.929 . S
H322 C350 0.930 . S
H323 C351 0.929 . S
H324 C353 0.930 . S
H325 C330 0.930 . S
H326 C334 0.930 . S
O327 Co296 2.037 . S
O327 C347 1.234 . S
C328 O302 1.269 . S
C328 O303 1.257 . S
C329 H304 0.930 . S
C329 C332 1.388 . S
C329 C334 1.418 . S
C330 H325 0.930 . S
C330 C333 1.404 . S
C330 C334 1.353 . S
N331 Co296 2.145 . S
N331 C332 1.397 . S
N331 C333 1.334 . S
C332 H313 0.929 . S
C332 C329 1.388 . S
C332 N331 1.397 . S
C333 H314 0.929 . S
C333 C330 1.404 . S
C333 N331 1.334 . S
C334 H326 0.930 . S
C334 C329 1.418 . S
C334 C330 1.353 . S
C335 H305 0.930 . S
C335 N336 1.330 . S
C335 C337 1.446 . S
N336 Co295 2.151 . S
N336 C335 1.330 . S
N336 C340 1.418 . S
C337 H316 0.929 . S
C337 C335 1.446 . S
C337 C338 1.332 . S
C338 H318 0.931 . S
C338 C337 1.332 . S
C338 C339 1.267 . S
C339 H307 0.929 . S
C339 C338 1.267 . S
C339 C340 1.251 . S
C340 H310 0.929 . S
C340 N336 1.418 . S
C340 C339 1.251 . S
C341 H308 0.930 . S
C341 C343 1.406 . S
C341 C346 1.261 . S
C342 H309 0.930 . S
C342 N344 1.325 . S
C342 C345 1.357 . S
C343 H311 0.928 . S
C343 C341 1.406 . S
C343 N344 1.261 . S
N344 Co295 2.214 . S
N344 C342 1.325 . S
N344 C343 1.261 . S
C345 H315 0.931 . S
C345 C342 1.357 . S
C345 C346 1.312 . S
C346 H317 0.930 . S
C346 C341 1.261 . S
C346 C345 1.312 . S
C347 O319 1.214 . S
C347 O327 1.234 . S
C348 H320 0.929 . S
C348 C351 1.391 . S
C348 C353 1.391 . S
C349 H321 0.929 . S
C349 C350 1.390 . S
C349 N352 1.391 . S
C350 H322 0.930 . S
C350 C349 1.390 . S
C350 C351 1.392 . S
C351 H323 0.929 . S
C351 C348 1.391 . S
C351 C350 1.392 . S
N352 Co296 2.257 . S
N352 C349 1.391 . S
N352 C353 1.388 . S
C353 H324 0.930 . S
C353 C348 1.391 . S
C353 N352 1.388 . S
Co354 O356 2.143 . S
Co354 O362 2.074 . S
Co354 O365 2.093 . S
Co354 O378 2.097 . S
Co354 N395 2.151 . S
Co354 N403 2.214 . S
Co355 O356 2.160 . S
Co355 O361 2.058 . S
Co355 O371 2.057 . S
Co355 O386 2.037 . S
Co355 N390 2.145 . S
Co355 N411 2.257 . S
O356 Co354 2.143 . S
O356 Co355 2.160 . S
C357 O358 1.278 . S
C357 O365 1.224 . S
O358 C357 1.278 . S
C359 O360 1.245 . S
C359 O371 1.232 . S
O360 C359 1.245 . S
O361 Co355 2.058 . S
O361 C387 1.269 . S
O362 Co354 2.074 . S
O362 C387 1.257 . S
H363 C388 0.930 . S
H364 C394 0.930 . S
O365 Co354 2.093 . S
O365 C357 1.224 . S
H366 C398 0.929 . S
H367 C400 0.930 . S
H368 C401 0.930 . S
H369 C399 0.929 . S
H370 C402 0.928 . S
O371 Co355 2.057 . S
O371 C359 1.232 . S
H372 C391 0.929 . S
H373 C392 0.929 . S
H374 C404 0.931 . S
H375 C396 0.929 . S
H376 C405 0.930 . S
H377 C397 0.931 . S
O378 Co354 2.097 . S
O378 C406 1.214 . S
H379 C407 0.929 . S
H380 C408 0.929 . S
H381 C409 0.930 . S
H382 C410 0.929 . S
H383 C412 0.930 . S
H384 C389 0.930 . S
H385 C393 0.930 . S
O386 Co355 2.037 . S
O386 C406 1.234 . S
C387 O361 1.269 . S
C387 O362 1.257 . S
C388 H363 0.930 . S
C388 C391 1.388 . S
C388 C393 1.418 . S
C389 H384 0.930 . S
C389 C392 1.404 . S
C389 C393 1.353 . S
N390 Co355 2.145 . S
N390 C391 1.397 . S
N390 C392 1.334 . S
C391 H372 0.929 . S
C391 C388 1.388 . S
C391 N390 1.397 . S
C392 H373 0.929 . S
C392 C389 1.404 . S
C392 N390 1.334 . S
C393 H385 0.930 . S
C393 C388 1.418 . S
C393 C389 1.353 . S
C394 H364 0.930 . S
C394 N395 1.330 . S
C394 C396 1.446 . S
N395 Co354 2.151 . S
N395 C394 1.330 . S
N395 C399 1.418 . S
C396 H375 0.929 . S
C396 C394 1.446 . S
C396 C397 1.332 . S
C397 H377 0.931 . S
C397 C396 1.332 . S
C397 C398 1.267 . S
C398 H366 0.929 . S
C398 C397 1.267 . S
C398 C399 1.251 . S
C399 H369 0.929 . S
C399 N395 1.418 . S
C399 C398 1.251 . S
C400 H367 0.930 . S
C400 C402 1.406 . S
C400 C405 1.261 . S
C401 H368 0.930 . S
C401 N403 1.325 . S
C401 C404 1.357 . S
C402 H370 0.928 . S
C402 C400 1.406 . S
C402 N403 1.261 . S
N403 Co354 2.214 . S
N403 C401 1.325 . S
N403 C402 1.261 . S
C404 H374 0.931 . S
C404 C401 1.357 . S
C404 C405 1.312 . S
C405 H376 0.930 . S
C405 C400 1.261 . S
C405 C404 1.312 . S
C406 O378 1.214 . S
C406 O386 1.234 . S
C407 H379 0.929 . S
C407 C410 1.391 . S
C407 C412 1.391 . S
C408 H380 0.929 . S
C408 C409 1.390 . S
C408 N411 1.391 . S
C409 H381 0.930 . S
C409 C408 1.390 . S
C409 C410 1.392 . S
C410 H382 0.929 . S
C410 C407 1.391 . S
C410 C409 1.392 . S
N411 Co355 2.257 . S
N411 C408 1.391 . S
N411 C412 1.388 . S
C412 H383 0.930 . S
C412 C407 1.391 . S
C412 N411 1.388 . S
Co413 O415 2.143 . S
Co413 O421 2.074 . S
Co413 O424 2.093 . S
Co413 O437 2.097 1_455 S
Co413 N454 2.151 . S
Co413 N462 2.214 . S
Co414 O415 2.160 1_655 S
Co414 O420 2.058 1_655 S
Co414 O430 2.057 . S
Co414 O445 2.037 . S
Co414 N449 2.145 . S
Co414 N470 2.257 . S
O415 Co413 2.143 . S
O415 Co414 2.160 1_455 S
C416 O417 1.278 1_455 S
C416 O424 1.224 . S
O417 C416 1.278 1_655 S
C418 O419 1.237 1_655 S
C418 O430 1.239 . S
O419 C418 1.237 1_455 S
O420 Co414 2.058 1_455 S
O420 C446 1.269 . S
O421 Co413 2.074 . S
O421 C446 1.257 . S
H422 C447 0.930 . S
H423 C453 0.930 . S
O424 Co413 2.093 . S
O424 C416 1.224 . S
H425 C457 0.929 . S
H426 C459 0.930 . S
H427 C460 0.930 . S
H428 C458 0.929 . S
H429 C461 0.928 . S
O430 Co414 2.057 . S
O430 C418 1.239 . S
H431 C450 0.929 . S
H432 C451 0.929 . S
H433 C463 0.931 . S
H434 C455 0.929 . S
H435 C464 0.930 . S
H436 C456 0.931 . S
O437 Co413 2.097 1_655 S
O437 C465 1.214 . S
H438 C466 0.929 . S
H439 C467 0.929 . S
H440 C468 0.930 . S
H441 C469 0.929 . S
H442 C471 0.930 . S
H443 C448 0.930 . S
H444 C452 0.930 . S
O445 Co414 2.037 . S
O445 C465 1.234 . S
C446 O420 1.269 . S
C446 O421 1.257 . S
C447 H422 0.930 . S
C447 C450 1.388 . S
C447 C452 1.418 . S
C448 H443 0.930 . S
C448 C451 1.404 . S
C448 C452 1.353 . S
N449 Co414 2.145 . S
N449 C450 1.397 . S
N449 C451 1.334 . S
C450 H431 0.929 . S
C450 C447 1.388 . S
C450 N449 1.397 . S
C451 H432 0.929 . S
C451 C448 1.404 . S
C451 N449 1.334 . S
C452 H444 0.930 . S
C452 C447 1.418 . S
C452 C448 1.353 . S
C453 H423 0.930 . S
C453 N454 1.330 . S
C453 C455 1.446 . S
N454 Co413 2.151 . S
N454 C453 1.330 . S
N454 C458 1.418 . S
C455 H434 0.929 . S
C455 C453 1.446 . S
C455 C456 1.332 . S
C456 H436 0.931 . S
C456 C455 1.332 . S
C456 C457 1.267 . S
C457 H425 0.929 . S
C457 C456 1.267 . S
C457 C458 1.251 . S
C458 H428 0.929 . S
C458 N454 1.418 . S
C458 C457 1.251 . S
C459 H426 0.930 . S
C459 C461 1.406 . S
C459 C464 1.261 . S
C460 H427 0.930 . S
C460 N462 1.325 . S
C460 C463 1.357 . S
C461 H429 0.928 . S
C461 C459 1.406 . S
C461 N462 1.261 . S
N462 Co413 2.214 . S
N462 C460 1.325 . S
N462 C461 1.261 . S
C463 H433 0.931 . S
C463 C460 1.357 . S
C463 C464 1.312 . S
C464 H435 0.930 . S
C464 C459 1.261 . S
C464 C463 1.312 . S
C465 O437 1.214 . S
C465 O445 1.234 . S
C466 H438 0.929 . S
C466 C469 1.391 . S
C466 C471 1.391 . S
C467 H439 0.929 . S
C467 C468 1.390 . S
C467 N470 1.391 . S
C468 H440 0.930 . S
C468 C467 1.390 . S
C468 C469 1.392 . S
C469 H441 0.929 . S
C469 C466 1.391 . S
C469 C468 1.392 . S
N470 Co414 2.257 . S
N470 C467 1.391 . S
N470 C471 1.388 . S
C471 H442 0.930 . S
C471 C466 1.391 . S
C471 N470 1.388 . S
Co472 O474 2.143 . S
Co472 O480 2.074 . S
Co472 O483 2.093 . S
Co472 O496 2.097 1_545 S
Co472 N513 2.151 . S
Co472 N521 2.214 . S
Co473 O474 2.160 1_565 S
Co473 O479 2.058 1_565 S
Co473 O489 2.057 . S
Co473 O504 2.037 . S
Co473 N508 2.145 . S
Co473 N529 2.257 . S
O474 Co472 2.143 . S
O474 Co473 2.160 1_545 S
C475 O476 1.278 1_545 S
C475 O483 1.224 . S
O476 C475 1.278 1_565 S
C477 O478 1.236 1_564 S
C477 O489 1.239 1_554 S
O478 C477 1.236 1_546 S
O479 Co473 2.058 1_545 S
O479 C505 1.269 . S
O480 Co472 2.074 . S
O480 C505 1.257 . S
H481 C506 0.930 . S
H482 C512 0.930 . S
O483 Co472 2.093 . S
O483 C475 1.224 . S
H484 C516 0.929 . S
H485 C518 0.930 . S
H486 C519 0.930 . S
H487 C517 0.929 . S
H488 C520 0.928 . S
O489 Co473 2.057 . S
O489 C477 1.239 1_556 S
H490 C509 0.929 . S
H491 C510 0.929 . S
H492 C522 0.931 . S
H493 C514 0.929 . S
H494 C523 0.930 . S
H495 C515 0.931 . S
O496 Co472 2.097 1_565 S
O496 C524 1.214 . S
H497 C525 0.929 . S
H498 C526 0.929 . S
H499 C527 0.930 . S
H500 C528 0.929 . S
H501 C530 0.930 . S
H502 C507 0.930 . S
H503 C511 0.930 . S
O504 Co473 2.037 . S
O504 C524 1.234 . S
C505 O479 1.269 . S
C505 O480 1.257 . S
C506 H481 0.930 . S
C506 C509 1.388 1_554 S
C506 C511 1.418 . S
C507 H502 0.930 . S
C507 C510 1.404 . S
C507 C511 1.353 . S
N508 Co473 2.145 . S
N508 C509 1.397 . S
N508 C510 1.334 1_556 S
C509 H490 0.929 . S
C509 C506 1.388 1_556 S
C509 N508 1.397 . S
C510 H491 0.929 . S
C510 C507 1.404 . S
C510 N508 1.334 1_554 S
C511 H503 0.930 . S
C511 C506 1.418 . S
C511 C507 1.353 . S
C512 H482 0.930 . S
C512 N513 1.330 . S
C512 C514 1.446 . S
N513 Co472 2.151 . S
N513 C512 1.330 . S
N513 C517 1.418 . S
C514 H493 0.929 . S
C514 C512 1.446 . S
C514 C515 1.332 . S
C515 H495 0.931 . S
C515 C514 1.332 . S
C515 C516 1.267 . S
C516 H484 0.929 . S
C516 C515 1.267 . S
C516 C517 1.251 . S
C517 H487 0.929 . S
C517 N513 1.418 . S
C517 C516 1.251 . S
C518 H485 0.930 . S
C518 C520 1.406 . S
C518 C523 1.261 . S
C519 H486 0.930 . S
C519 N521 1.325 . S
C519 C522 1.357 . S
C520 H488 0.928 . S
C520 C518 1.406 . S
C520 N521 1.261 . S
N521 Co472 2.214 . S
N521 C519 1.325 . S
N521 C520 1.261 . S
C522 H492 0.931 . S
C522 C519 1.357 . S
C522 C523 1.312 . S
C523 H494 0.930 . S
C523 C518 1.261 . S
C523 C522 1.312 . S
C524 O496 1.214 . S
C524 O504 1.234 . S
C525 H497 0.929 . S
C525 C528 1.391 . S
C525 C530 1.391 . S
C526 H498 0.929 . S
C526 C527 1.390 . S
C526 N529 1.391 . S
C527 H499 0.930 . S
C527 C526 1.390 . S
C527 C528 1.392 . S
C528 H500 0.929 . S
C528 C525 1.391 . S
C528 C527 1.392 . S
N529 Co473 2.257 . S
N529 C526 1.391 . S
N529 C530 1.388 . S
C530 H501 0.930 . S
C530 C525 1.391 . S
C530 N529 1.388 . S
Co531 O533 2.143 . S
Co531 O539 2.074 . S
Co531 O542 2.093 . S
Co531 O555 2.097 . S
Co531 N572 2.151 . S
Co531 N580 2.214 . S
Co532 O533 2.160 . S
Co532 O538 2.058 . S
Co532 O548 2.057 . S
Co532 O563 2.037 . S
Co532 N567 2.145 . S
Co532 N588 2.257 . S
O533 Co531 2.143 . S
O533 Co532 2.160 . S
C534 O535 1.278 . S
C534 O542 1.224 . S
O535 C534 1.278 . S
C536 O537 1.245 . S
C536 O548 1.232 . S
O537 C536 1.245 . S
O538 Co532 2.058 . S
O538 C564 1.269 . S
O539 Co531 2.074 . S
O539 C564 1.257 . S
H540 C565 0.930 . S
H541 C571 0.930 . S
O542 Co531 2.093 . S
O542 C534 1.224 . S
H543 C575 0.929 . S
H544 C577 0.930 . S
H545 C578 0.930 . S
H546 C576 0.929 . S
H547 C579 0.928 . S
O548 Co532 2.057 . S
O548 C536 1.232 . S
H549 C568 0.929 . S
H550 C569 0.929 . S
H551 C581 0.931 . S
H552 C573 0.929 . S
H553 C582 0.930 . S
H554 C574 0.931 . S
O555 Co531 2.097 . S
O555 C583 1.214 . S
H556 C584 0.929 . S
H557 C585 0.929 . S
H558 C586 0.930 . S
H559 C587 0.929 . S
H560 C589 0.930 . S
H561 C566 0.930 . S
H562 C570 0.930 . S
O563 Co532 2.037 . S
O563 C583 1.234 . S
C564 O538 1.269 . S
C564 O539 1.257 . S
C565 H540 0.930 . S
C565 C568 1.388 . S
C565 C570 1.418 1_556 S
C566 H561 0.930 . S
C566 C569 1.404 . S
C566 C570 1.353 . S
N567 Co532 2.145 . S
N567 C568 1.397 . S
N567 C569 1.334 1_556 S
C568 H549 0.929 . S
C568 C565 1.388 . S
C568 N567 1.397 . S
C569 H550 0.929 . S
C569 C566 1.404 . S
C569 N567 1.334 1_554 S
C570 H562 0.930 . S
C570 C565 1.418 1_554 S
C570 C566 1.353 . S
C571 H541 0.930 . S
C571 N572 1.330 . S
C571 C573 1.446 . S
N572 Co531 2.151 . S
N572 C571 1.330 . S
N572 C576 1.418 . S
C573 H552 0.929 . S
C573 C571 1.446 . S
C573 C574 1.332 . S
C574 H554 0.931 . S
C574 C573 1.332 . S
C574 C575 1.267 . S
C575 H543 0.929 . S
C575 C574 1.267 . S
C575 C576 1.251 . S
C576 H546 0.929 . S
C576 N572 1.418 . S
C576 C575 1.251 . S
C577 H544 0.930 . S
C577 C579 1.406 . S
C577 C582 1.261 . S
C578 H545 0.930 . S
C578 N580 1.325 . S
C578 C581 1.357 . S
C579 H547 0.928 . S
C579 C577 1.406 . S
C579 N580 1.261 . S
N580 Co531 2.214 . S
N580 C578 1.325 . S
N580 C579 1.261 . S
C581 H551 0.931 . S
C581 C578 1.357 . S
C581 C582 1.312 . S
C582 H553 0.930 . S
C582 C577 1.261 . S
C582 C581 1.312 . S
C583 O555 1.214 . S
C583 O563 1.234 . S
C584 H556 0.929 . S
C584 C587 1.391 . S
C584 C589 1.391 . S
C585 H557 0.929 . S
C585 C586 1.390 . S
C585 N588 1.391 . S
C586 H558 0.930 . S
C586 C585 1.390 . S
C586 C587 1.392 . S
C587 H559 0.929 . S
C587 C584 1.391 . S
C587 C586 1.392 . S
N588 Co532 2.257 . S
N588 C585 1.391 . S
N588 C589 1.388 . S
C589 H560 0.930 . S
C589 C584 1.391 . S
C589 N588 1.388 . S
Co590 O592 2.143 . S
Co590 O598 2.074 . S
Co590 O601 2.093 . S
Co590 O614 2.097 . S
Co590 N631 2.151 . S
Co590 N639 2.214 . S
Co591 O592 2.160 . S
Co591 O597 2.058 . S
Co591 O607 2.057 . S
Co591 O622 2.037 . S
Co591 N626 2.145 . S
Co591 N647 2.257 . S
O592 Co590 2.143 . S
O592 Co591 2.160 . S
C593 O594 1.278 . S
C593 O601 1.224 . S
O594 C593 1.278 . S
C595 O596 1.245 . S
C595 O607 1.232 . S
O596 C595 1.245 . S
O597 Co591 2.058 . S
O597 C623 1.269 . S
O598 Co590 2.074 . S
O598 C623 1.257 . S
H599 C624 0.930 . S
H600 C630 0.930 . S
O601 Co590 2.093 . S
O601 C593 1.224 . S
H602 C634 0.929 . S
H603 C636 0.930 . S
H604 C637 0.930 . S
H605 C635 0.929 . S
H606 C638 0.928 . S
O607 Co591 2.057 . S
O607 C595 1.232 . S
H608 C627 0.929 . S
H609 C628 0.929 . S
H610 C640 0.931 . S
H611 C632 0.929 . S
H612 C641 0.930 . S
H613 C633 0.931 . S
O614 Co590 2.097 . S
O614 C642 1.214 . S
H615 C643 0.929 . S
H616 C644 0.929 . S
H617 C645 0.930 . S
H618 C646 0.929 . S
H619 C648 0.930 . S
H620 C625 0.930 . S
H621 C629 0.930 . S
O622 Co591 2.037 . S
O622 C642 1.234 . S
C623 O597 1.269 . S
C623 O598 1.257 . S
C624 H599 0.930 . S
C624 C627 1.388 . S
C624 C629 1.418 1_556 S
C625 H620 0.930 . S
C625 C628 1.404 . S
C625 C629 1.353 . S
N626 Co591 2.145 . S
N626 C627 1.397 . S
N626 C628 1.334 1_556 S
C627 H608 0.929 . S
C627 C624 1.388 . S
C627 N626 1.397 . S
C628 H609 0.929 . S
C628 C625 1.404 . S
C628 N626 1.334 1_554 S
C629 H621 0.930 . S
C629 C624 1.418 1_554 S
C629 C625 1.353 . S
C630 H600 0.930 . S
C630 N631 1.330 . S
C630 C632 1.446 . S
N631 Co590 2.151 . S
N631 C630 1.330 . S
N631 C635 1.418 . S
C632 H611 0.929 . S
C632 C630 1.446 . S
C632 C633 1.332 . S
C633 H613 0.931 . S
C633 C632 1.332 . S
C633 C634 1.267 . S
C634 H602 0.929 . S
C634 C633 1.267 . S
C634 C635 1.251 . S
C635 H605 0.929 . S
C635 N631 1.418 . S
C635 C634 1.251 . S
C636 H603 0.930 . S
C636 C638 1.406 . S
C636 C641 1.261 . S
C637 H604 0.930 . S
C637 N639 1.325 . S
C637 C640 1.357 . S
C638 H606 0.928 . S
C638 C636 1.406 . S
C638 N639 1.261 . S
N639 Co590 2.214 . S
N639 C637 1.325 . S
N639 C638 1.261 . S
C640 H610 0.931 . S
C640 C637 1.357 . S
C640 C641 1.312 . S
C641 H612 0.930 . S
C641 C636 1.261 . S
C641 C640 1.312 . S
C642 O614 1.214 . S
C642 O622 1.234 . S
C643 H615 0.929 . S
C643 C646 1.391 . S
C643 C648 1.391 . S
C644 H616 0.929 . S
C644 C645 1.390 . S
C644 N647 1.391 . S
C645 H617 0.930 . S
C645 C644 1.390 . S
C645 C646 1.392 . S
C646 H618 0.929 . S
C646 C643 1.391 . S
C646 C645 1.392 . S
N647 Co591 2.257 . S
N647 C644 1.391 . S
N647 C648 1.388 . S
C648 H619 0.930 . S
C648 C643 1.391 . S
C648 N647 1.388 . S
Co649 O651 2.143 . S
Co649 O657 2.074 . S
Co649 O660 2.093 . S
Co649 O673 2.097 1_455 S
Co649 N690 2.151 . S
Co649 N698 2.214 . S
Co650 O651 2.160 1_655 S
Co650 O656 2.051 1_655 S
Co650 O666 2.057 . S
Co650 O681 2.037 . S
Co650 N685 2.145 . S
Co650 N706 2.257 . S
O651 Co649 2.143 . S
O651 Co650 2.160 1_455 S
C652 O653 1.255 1_455 S
C652 O660 1.224 . S
O653 C652 1.255 1_655 S
C654 O655 1.245 1_554 S
C654 O666 1.232 1_454 S
O655 C654 1.245 1_556 S
O656 Co650 2.051 1_455 S
O656 C682 1.276 . S
O657 Co649 2.074 . S
O657 C682 1.257 . S
H658 C683 0.930 . S
H659 C689 0.930 . S
O660 Co649 2.093 . S
O660 C652 1.224 . S
H661 C693 0.929 . S
H662 C695 0.930 . S
H663 C696 0.930 . S
H664 C694 0.929 . S
H665 C697 0.928 . S
O666 Co650 2.057 . S
O666 C654 1.232 1_656 S
H667 C686 0.929 . S
H668 C687 0.929 . S
H669 C699 0.931 . S
H670 C691 0.929 . S
H671 C700 0.930 . S
H672 C692 0.931 . S
O673 Co649 2.097 1_655 S
O673 C701 1.214 . S
H674 C702 0.929 . S
H675 C703 0.929 . S
H676 C704 0.930 . S
H677 C705 0.929 . S
H678 C707 0.930 . S
H679 C684 0.930 . S
H680 C688 0.930 . S
O681 Co650 2.037 . S
O681 C701 1.234 . S
C682 O656 1.276 . S
C682 O657 1.257 . S
C683 H658 0.930 . S
C683 C686 1.388 1_554 S
C683 C688 1.418 . S
C684 H679 0.930 . S
C684 C687 1.404 . S
C684 C688 1.353 . S
N685 Co650 2.145 . S
N685 C686 1.397 . S
N685 C687 1.334 1_556 S
C686 H667 0.929 . S
C686 C683 1.388 1_556 S
C686 N685 1.397 . S
C687 H668 0.929 . S
C687 C684 1.404 . S
C687 N685 1.334 1_554 S
C688 H680 0.930 . S
C688 C683 1.418 . S
C688 C684 1.353 . S
C689 H659 0.930 . S
C689 N690 1.330 . S
C689 C691 1.446 . S
N690 Co649 2.151 . S
N690 C689 1.330 . S
N690 C694 1.418 . S
C691 H670 0.929 . S
C691 C689 1.446 . S
C691 C692 1.332 . S
C692 H672 0.931 . S
C692 C691 1.332 . S
C692 C693 1.267 . S
C693 H661 0.929 . S
C693 C692 1.267 . S
C693 C694 1.251 . S
C694 H664 0.929 . S
C694 N690 1.418 . S
C694 C693 1.251 . S
C695 H662 0.930 . S
C695 C697 1.406 . S
C695 C700 1.261 . S
C696 H663 0.930 . S
C696 N698 1.325 . S
C696 C699 1.357 . S
C697 H665 0.928 . S
C697 C695 1.406 . S
C697 N698 1.261 . S
N698 Co649 2.214 . S
N698 C696 1.325 . S
N698 C697 1.261 . S
C699 H669 0.931 . S
C699 C696 1.357 . S
C699 C700 1.312 . S
C700 H671 0.930 . S
C700 C695 1.261 . S
C700 C699 1.312 . S
C701 O673 1.214 . S
C701 O681 1.234 . S
C702 H674 0.929 . S
C702 C705 1.391 . S
C702 C707 1.391 . S
C703 H675 0.929 . S
C703 C704 1.390 . S
C703 N706 1.391 . S
C704 H676 0.930 . S
C704 C703 1.390 . S
C704 C705 1.392 . S
C705 H677 0.929 . S
C705 C702 1.391 . S
C705 C704 1.392 . S
N706 Co650 2.257 . S
N706 C703 1.391 . S
N706 C707 1.388 . S
C707 H678 0.930 . S
C707 C702 1.391 . S
C707 N706 1.388 . S
Co708 O710 2.143 . S
Co708 O716 2.074 . S
Co708 O719 2.093 . S
Co708 O732 2.097 1_565 S
Co708 N749 2.151 . S
Co708 N757 2.214 . S
Co709 O710 2.160 1_545 S
Co709 O715 2.051 1_545 S
Co709 O725 2.057 . S
Co709 O740 2.037 . S
Co709 N744 2.145 . S
Co709 N765 2.257 . S
O710 Co708 2.143 . S
O710 Co709 2.160 1_565 S
C711 O712 1.255 1_565 S
C711 O719 1.224 . S
O712 C711 1.255 1_545 S
C713 O714 1.245 . S
C713 O725 1.232 1_565 S
O714 C713 1.245 . S
O715 Co709 2.051 1_565 S
O715 C741 1.276 . S
O716 Co708 2.074 . S
O716 C741 1.257 . S
H717 C742 0.930 . S
H718 C748 0.930 . S
O719 Co708 2.093 . S
O719 C711 1.224 . S
H720 C752 0.929 . S
H721 C754 0.930 . S
H722 C755 0.930 . S
H723 C753 0.929 . S
H724 C756 0.928 . S
O725 Co709 2.057 . S
O725 C713 1.232 1_545 S
H726 C745 0.929 . S
H727 C746 0.929 . S
H728 C758 0.931 . S
H729 C750 0.929 . S
H730 C759 0.930 . S
H731 C751 0.931 . S
O732 Co708 2.097 1_545 S
O732 C760 1.214 . S
H733 C761 0.929 . S
H734 C762 0.929 . S
H735 C763 0.930 . S
H736 C764 0.929 . S
H737 C766 0.930 . S
H738 C743 0.930 . S
H739 C747 0.930 . S
O740 Co709 2.037 . S
O740 C760 1.234 . S
C741 O715 1.276 . S
C741 O716 1.257 . S
C742 H717 0.930 . S
C742 C745 1.388 . S
C742 C747 1.418 . S
C743 H738 0.930 . S
C743 C746 1.404 . S
C743 C747 1.353 . S
N744 Co709 2.145 . S
N744 C745 1.397 . S
N744 C746 1.334 . S
C745 H726 0.929 . S
C745 C742 1.388 . S
C745 N744 1.397 . S
C746 H727 0.929 . S
C746 C743 1.404 . S
C746 N744 1.334 . S
C747 H739 0.930 . S
C747 C742 1.418 . S
C747 C743 1.353 . S
C748 H718 0.930 . S
C748 N749 1.330 . S
C748 C750 1.446 . S
N749 Co708 2.151 . S
N749 C748 1.330 . S
N749 C753 1.418 . S
C750 H729 0.929 . S
C750 C748 1.446 . S
C750 C751 1.332 . S
C751 H731 0.931 . S
C751 C750 1.332 . S
C751 C752 1.267 . S
C752 H720 0.929 . S
C752 C751 1.267 . S
C752 C753 1.251 . S
C753 H723 0.929 . S
C753 N749 1.418 . S
C753 C752 1.251 . S
C754 H721 0.930 . S
C754 C756 1.406 . S
C754 C759 1.261 . S
C755 H722 0.930 . S
C755 N757 1.325 . S
C755 C758 1.357 . S
C756 H724 0.928 . S
C756 C754 1.406 . S
C756 N757 1.261 . S
N757 Co708 2.214 . S
N757 C755 1.325 . S
N757 C756 1.261 . S
C758 H728 0.931 . S
C758 C755 1.357 . S
C758 C759 1.312 . S
C759 H730 0.930 . S
C759 C754 1.261 . S
C759 C758 1.312 . S
C760 O732 1.214 . S
C760 O740 1.234 . S
C761 H733 0.929 . S
C761 C764 1.391 . S
C761 C766 1.391 . S
C762 H734 0.929 . S
C762 C763 1.390 . S
C762 N765 1.391 . S
C763 H735 0.930 . S
C763 C762 1.390 . S
C763 C764 1.392 . S
C764 H736 0.929 . S
C764 C761 1.391 . S
C764 C763 1.392 . S
N765 Co709 2.257 . S
N765 C762 1.391 . S
N765 C766 1.388 . S
C766 H737 0.930 . S
C766 C761 1.391 . S
C766 N765 1.388 . S
Co767 O769 2.143 . S
Co767 O775 2.074 . S
Co767 O778 2.093 . S
Co767 O791 2.097 . S
Co767 N808 2.151 . S
Co767 N816 2.214 . S
Co768 O769 2.160 . S
Co768 O774 2.058 . S
Co768 O784 2.057 . S
Co768 O799 2.037 . S
Co768 N803 2.145 . S
Co768 N824 2.257 . S
O769 Co767 2.143 . S
O769 Co768 2.160 . S
C770 O771 1.278 . S
C770 O778 1.224 . S
O771 C770 1.278 . S
C772 O773 1.245 . S
C772 O784 1.232 . S
O773 C772 1.245 . S
O774 Co768 2.058 . S
O774 C800 1.269 . S
O775 Co767 2.074 . S
O775 C800 1.257 . S
H776 C801 0.930 . S
H777 C807 0.930 . S
O778 Co767 2.093 . S
O778 C770 1.224 . S
H779 C811 0.929 . S
H780 C813 0.930 . S
H781 C814 0.930 . S
H782 C812 0.929 . S
H783 C815 0.928 . S
O784 Co768 2.057 . S
O784 C772 1.232 . S
H785 C804 0.929 . S
H786 C805 0.929 . S
H787 C817 0.931 . S
H788 C809 0.929 . S
H789 C818 0.930 . S
H790 C810 0.931 . S
O791 Co767 2.097 . S
O791 C819 1.214 . S
H792 C820 0.929 . S
H793 C821 0.929 . S
H794 C822 0.930 . S
H795 C823 0.929 . S
H796 C825 0.930 . S
H797 C802 0.930 . S
H798 C806 0.930 . S
O799 Co768 2.037 . S
O799 C819 1.234 . S
C800 O774 1.269 . S
C800 O775 1.257 . S
C801 H776 0.930 . S
C801 C804 1.388 . S
C801 C806 1.418 . S
C802 H797 0.930 . S
C802 C805 1.404 . S
C802 C806 1.353 . S
N803 Co768 2.145 . S
N803 C804 1.397 . S
N803 C805 1.334 . S
C804 H785 0.929 . S
C804 C801 1.388 . S
C804 N803 1.397 . S
C805 H786 0.929 . S
C805 C802 1.404 . S
C805 N803 1.334 . S
C806 H798 0.930 . S
C806 C801 1.418 . S
C806 C802 1.353 . S
C807 H777 0.930 . S
C807 N808 1.330 . S
C807 C809 1.446 . S
N808 Co767 2.151 . S
N808 C807 1.330 . S
N808 C812 1.418 . S
C809 H788 0.929 . S
C809 C807 1.446 . S
C809 C810 1.332 . S
C810 H790 0.931 . S
C810 C809 1.332 . S
C810 C811 1.267 . S
C811 H779 0.929 . S
C811 C810 1.267 . S
C811 C812 1.251 . S
C812 H782 0.929 . S
C812 N808 1.418 . S
C812 C811 1.251 . S
C813 H780 0.930 . S
C813 C815 1.406 . S
C813 C818 1.261 . S
C814 H781 0.930 . S
C814 N816 1.325 . S
C814 C817 1.357 . S
C815 H783 0.928 . S
C815 C813 1.406 . S
C815 N816 1.261 . S
N816 Co767 2.214 . S
N816 C814 1.325 . S
N816 C815 1.261 . S
C817 H787 0.931 . S
C817 C814 1.357 . S
C817 C818 1.312 . S
C818 H789 0.930 . S
C818 C813 1.261 . S
C818 C817 1.312 . S
C819 O791 1.214 . S
C819 O799 1.234 . S
C820 H792 0.929 . S
C820 C823 1.391 . S
C820 C825 1.391 . S
C821 H793 0.929 . S
C821 C822 1.390 . S
C821 N824 1.391 . S
C822 H794 0.930 . S
C822 C821 1.390 . S
C822 C823 1.392 . S
C823 H795 0.929 . S
C823 C820 1.391 . S
C823 C822 1.392 . S
N824 Co768 2.257 . S
N824 C821 1.391 . S
N824 C825 1.388 . S
C825 H796 0.930 . S
C825 C820 1.391 . S
C825 N824 1.388 . S
Co826 O828 2.143 . S
Co826 O834 2.074 . S
Co826 O837 2.093 . S
Co826 O850 2.097 . S
Co826 N867 2.151 . S
Co826 N875 2.214 . S
Co827 O828 2.160 . S
Co827 O833 2.058 . S
Co827 O843 2.057 . S
Co827 O858 2.037 . S
Co827 N862 2.145 . S
Co827 N883 2.257 . S
O828 Co826 2.143 . S
O828 Co827 2.160 . S
C829 O830 1.278 . S
C829 O837 1.224 . S
O830 C829 1.278 . S
C831 O832 1.245 . S
C831 O843 1.232 . S
O832 C831 1.245 . S
O833 Co827 2.058 . S
O833 C859 1.269 . S
O834 Co826 2.074 . S
O834 C859 1.257 . S
H835 C860 0.930 . S
H836 C866 0.930 . S
O837 Co826 2.093 . S
O837 C829 1.224 . S
H838 C870 0.929 . S
H839 C872 0.930 . S
H840 C873 0.930 . S
H841 C871 0.929 . S
H842 C874 0.928 . S
O843 Co827 2.057 . S
O843 C831 1.232 . S
H844 C863 0.929 . S
H845 C864 0.929 . S
H846 C876 0.931 . S
H847 C868 0.929 . S
H848 C877 0.930 . S
H849 C869 0.931 . S
O850 Co826 2.097 . S
O850 C878 1.214 . S
H851 C879 0.929 . S
H852 C880 0.929 . S
H853 C881 0.930 . S
H854 C882 0.929 . S
H855 C884 0.930 . S
H856 C861 0.930 . S
H857 C865 0.930 . S
O858 Co827 2.037 . S
O858 C878 1.234 . S
C859 O833 1.269 . S
C859 O834 1.257 . S
C860 H835 0.930 . S
C860 C863 1.388 . S
C860 C865 1.418 . S
C861 H856 0.930 . S
C861 C864 1.404 . S
C861 C865 1.353 . S
N862 Co827 2.145 . S
N862 C863 1.397 . S
N862 C864 1.334 . S
C863 H844 0.929 . S
C863 C860 1.388 . S
C863 N862 1.397 . S
C864 H845 0.929 . S
C864 C861 1.404 . S
C864 N862 1.334 . S
C865 H857 0.930 . S
C865 C860 1.418 . S
C865 C861 1.353 . S
C866 H836 0.930 . S
C866 N867 1.330 . S
C866 C868 1.446 . S
N867 Co826 2.151 . S
N867 C866 1.330 . S
N867 C871 1.418 . S
C868 H847 0.929 . S
C868 C866 1.446 . S
C868 C869 1.332 . S
C869 H849 0.931 . S
C869 C868 1.332 . S
C869 C870 1.267 . S
C870 H838 0.929 . S
C870 C869 1.267 . S
C870 C871 1.251 . S
C871 H841 0.929 . S
C871 N867 1.418 . S
C871 C870 1.251 . S
C872 H839 0.930 . S
C872 C874 1.406 . S
C872 C877 1.261 . S
C873 H840 0.930 . S
C873 N875 1.325 . S
C873 C876 1.357 . S
C874 H842 0.928 . S
C874 C872 1.406 . S
C874 N875 1.261 . S
N875 Co826 2.214 . S
N875 C873 1.325 . S
N875 C874 1.261 . S
C876 H846 0.931 . S
C876 C873 1.357 . S
C876 C877 1.312 . S
C877 H848 0.930 . S
C877 C872 1.261 . S
C877 C876 1.312 . S
C878 O850 1.214 . S
C878 O858 1.234 . S
C879 H851 0.929 . S
C879 C882 1.391 . S
C879 C884 1.391 . S
C880 H852 0.929 . S
C880 C881 1.390 . S
C880 N883 1.391 . S
C881 H853 0.930 . S
C881 C880 1.390 . S
C881 C882 1.392 . S
C882 H854 0.929 . S
C882 C879 1.391 . S
C882 C881 1.392 . S
N883 Co827 2.257 . S
N883 C880 1.391 . S
N883 C884 1.388 . S
C884 H855 0.930 . S
C884 C879 1.391 . S
C884 N883 1.388 . S
Co885 O887 2.143 . S
Co885 O893 2.074 . S
Co885 O896 2.093 . S
Co885 O909 2.097 1_655 S
Co885 N926 2.151 . S
Co885 N934 2.214 . S
Co886 O887 2.160 1_455 S
Co886 O892 2.058 1_455 S
Co886 O902 2.057 . S
Co886 O917 2.037 . S
Co886 N921 2.145 . S
Co886 N942 2.257 . S
O887 Co885 2.143 . S
O887 Co886 2.160 1_655 S
C888 O889 1.278 1_655 S
C888 O896 1.224 . S
O889 C888 1.278 1_455 S
C890 O891 1.237 1_455 S
C890 O902 1.239 . S
O891 C890 1.237 1_655 S
O892 Co886 2.058 1_655 S
O892 C918 1.269 . S
O893 Co885 2.074 . S
O893 C918 1.257 . S
H894 C919 0.930 . S
H895 C925 0.930 . S
O896 Co885 2.093 . S
O896 C888 1.224 . S
H897 C929 0.929 . S
H898 C931 0.930 . S
H899 C932 0.930 . S
H900 C930 0.929 . S
H901 C933 0.928 . S
O902 Co886 2.057 . S
O902 C890 1.239 . S
H903 C922 0.929 . S
H904 C923 0.929 . S
H905 C935 0.931 . S
H906 C927 0.929 . S
H907 C936 0.930 . S
H908 C928 0.931 . S
O909 Co885 2.097 1_455 S
O909 C937 1.214 . S
H910 C938 0.929 . S
H911 C939 0.929 . S
H912 C940 0.930 . S
H913 C941 0.929 . S
H914 C943 0.930 . S
H915 C920 0.930 . S
H916 C924 0.930 . S
O917 Co886 2.037 . S
O917 C937 1.234 . S
C918 O892 1.269 . S
C918 O893 1.257 . S
C919 H894 0.930 . S
C919 C922 1.388 . S
C919 C924 1.418 . S
C920 H915 0.930 . S
C920 C923 1.404 . S
C920 C924 1.353 . S
N921 Co886 2.145 . S
N921 C922 1.397 . S
N921 C923 1.334 . S
C922 H903 0.929 . S
C922 C919 1.388 . S
C922 N921 1.397 . S
C923 H904 0.929 . S
C923 C920 1.404 . S
C923 N921 1.334 . S
C924 H916 0.930 . S
C924 C919 1.418 . S
C924 C920 1.353 . S
C925 H895 0.930 . S
C925 N926 1.330 . S
C925 C927 1.446 . S
N926 Co885 2.151 . S
N926 C925 1.330 . S
N926 C930 1.418 . S
C927 H906 0.929 . S
C927 C925 1.446 . S
C927 C928 1.332 . S
C928 H908 0.931 . S
C928 C927 1.332 . S
C928 C929 1.267 . S
C929 H897 0.929 . S
C929 C928 1.267 . S
C929 C930 1.251 . S
C930 H900 0.929 . S
C930 N926 1.418 . S
C930 C929 1.251 . S
C931 H898 0.930 . S
C931 C933 1.406 . S
C931 C936 1.261 . S
C932 H899 0.930 . S
C932 N934 1.325 . S
C932 C935 1.357 . S
C933 H901 0.928 . S
C933 C931 1.406 . S
C933 N934 1.261 . S
N934 Co885 2.214 . S
N934 C932 1.325 . S
N934 C933 1.261 . S
C935 H905 0.931 . S
C935 C932 1.357 . S
C935 C936 1.312 . S
C936 H907 0.930 . S
C936 C931 1.261 . S
C936 C935 1.312 . S
C937 O909 1.214 . S
C937 O917 1.234 . S
C938 H910 0.929 . S
C938 C941 1.391 . S
C938 C943 1.391 . S
C939 H911 0.929 . S
C939 C940 1.390 . S
C939 N942 1.391 . S
C940 H912 0.930 . S
C940 C939 1.390 . S
C940 C941 1.392 . S
C941 H913 0.929 . S
C941 C938 1.391 . S
C941 C940 1.392 . S
N942 Co886 2.257 . S
N942 C939 1.391 . S
N942 C943 1.388 . S
C943 H914 0.930 . S
C943 C938 1.391 . S
C943 N942 1.388 . S
H944 C950 0.930 . S
H945 C954 0.930 . S
H946 C959 0.929 . S
H947 C957 0.929 . S
H948 C952 0.929 . S
H949 C958 0.929 . S
C950 H944 0.930 . S
C950 C951 1.367 . S
C950 C958 1.378 . S
C951 C950 1.367 . S
C951 C959 1.433 . S
C952 H948 0.929 . S
C952 C954 1.378 . S
C952 C956 1.350 . S
C953 C956 1.463 . S
C953 C958 1.350 . S
C953 N961 1.427 . S
C954 H945 0.930 . S
C954 C952 1.378 . S
C954 C955 1.367 . S
C955 C954 1.367 . S
C955 C957 1.433 . S
C956 C952 1.350 . S
C956 C953 1.463 . S
C956 N960 1.427 . S
C957 H947 0.929 . S
C957 C955 1.433 . S
C957 N960 1.384 . S
C958 H949 0.929 . S
C958 C950 1.378 . S
C958 C953 1.350 . S
C959 H946 0.929 . S
C959 C951 1.433 . S
C959 N961 1.384 . S
N960 C956 1.427 . S
N960 C957 1.384 . S
N961 C953 1.427 . S
N961 C959 1.384 . S
H962 C968 0.930 . S
H963 C972 0.930 . S
H964 C977 0.929 . S
H965 C975 0.929 . S
H966 C970 0.929 . S
H967 C976 0.929 . S
C968 H962 0.930 . S
C968 C969 1.367 . S
C968 C976 1.378 . S
C969 C968 1.367 . S
C969 C977 1.433 . S
C970 H966 0.929 . S
C970 C972 1.378 . S
C970 C974 1.350 . S
C971 C974 1.463 . S
C971 C976 1.350 . S
C971 N979 1.427 . S
C972 H963 0.930 . S
C972 C970 1.378 . S
C972 C973 1.367 . S
C973 C972 1.367 . S
C973 C975 1.433 . S
C974 C970 1.350 . S
C974 C971 1.463 . S
C974 N978 1.427 . S
C975 H965 0.929 . S
C975 C973 1.433 . S
C975 N978 1.384 . S
C976 H967 0.929 . S
C976 C968 1.378 . S
C976 C971 1.350 . S
C977 H964 0.929 . S
C977 C969 1.433 . S
C977 N979 1.384 . S
N978 C974 1.427 . S
N978 C975 1.384 . S
N979 C971 1.427 . S
N979 C977 1.384 . S
H980 C986 0.930 . S
H981 C990 0.930 . S
H982 C995 0.929 . S
H983 C993 0.929 . S
H984 C988 0.929 . S
H985 C994 0.929 . S
C986 H980 0.930 . S
C986 C987 1.367 . S
C986 C994 1.378 . S
C987 C986 1.367 . S
C987 C995 1.433 . S
C988 H984 0.929 . S
C988 C990 1.378 . S
C988 C992 1.350 . S
C989 C992 1.463 . S
C989 C994 1.350 . S
C989 N997 1.427 . S
C990 H981 0.930 . S
C990 C988 1.378 . S
C990 C991 1.367 . S
C991 C990 1.367 . S
C991 C993 1.433 . S
C992 C988 1.350 . S
C992 C989 1.463 . S
C992 N996 1.427 . S
C993 H983 0.929 . S
C993 C991 1.433 . S
C993 N996 1.384 . S
C994 H985 0.929 . S
C994 C986 1.378 . S
C994 C989 1.350 . S
C995 H982 0.929 . S
C995 C987 1.433 . S
C995 N997 1.384 . S
N996 C992 1.427 . S
N996 C993 1.384 . S
N997 C989 1.427 . S
N997 C995 1.384 . S
H998 C1004 0.930 . S
H999 C1008 0.930 . S
H1000 C1013 0.929 . S
H1001 C1011 0.929 . S
H1002 C1006 0.929 . S
H1003 C1012 0.929 . S
C1004 H998 0.930 . S
C1004 C1005 1.367 . S
C1004 C1012 1.378 . S
C1005 C1004 1.367 . S
C1005 C1013 1.433 . S
C1006 H1002 0.929 . S
C1006 C1008 1.378 . S
C1006 C1010 1.350 . S
C1007 C1010 1.463 . S
C1007 C1012 1.350 . S
C1007 N1015 1.427 . S
C1008 H999 0.930 . S
C1008 C1006 1.378 . S
C1008 C1009 1.367 . S
C1009 C1008 1.367 . S
C1009 C1011 1.433 . S
C1010 C1006 1.350 . S
C1010 C1007 1.463 . S
C1010 N1014 1.427 . S
C1011 H1001 0.929 . S
C1011 C1009 1.433 . S
C1011 N1014 1.384 . S
C1012 H1003 0.929 . S
C1012 C1004 1.378 . S
C1012 C1007 1.350 . S
C1013 H1000 0.929 . S
C1013 C1005 1.433 . S
C1013 N1015 1.384 . S
N1014 C1010 1.427 . S
N1014 C1011 1.384 . S
N1015 C1007 1.427 . S
N1015 C1013 1.384 . S
H1016 C1022 0.930 . S
H1017 C1026 0.930 . S
H1018 C1031 0.929 . S
H1019 C1029 0.929 . S
H1020 C1024 0.929 . S
H1021 C1030 0.929 . S
C1022 H1016 0.930 . S
C1022 C1023 1.367 . S
C1022 C1030 1.378 . S
C1023 C1022 1.367 . S
C1023 C1031 1.433 . S
C1024 H1020 0.929 . S
C1024 C1026 1.378 . S
C1024 C1028 1.350 . S
C1025 C1028 1.463 . S
C1025 C1030 1.350 . S
C1025 N1033 1.427 . S
C1026 H1017 0.930 . S
C1026 C1024 1.378 . S
C1026 C1027 1.367 . S
C1027 C1026 1.367 . S
C1027 C1029 1.433 . S
C1028 C1024 1.350 . S
C1028 C1025 1.463 . S
C1028 N1032 1.427 . S
C1029 H1019 0.929 . S
C1029 C1027 1.433 . S
C1029 N1032 1.384 . S
C1030 H1021 0.929 . S
C1030 C1022 1.378 . S
C1030 C1025 1.350 . S
C1031 H1018 0.929 . S
C1031 C1023 1.433 . S
C1031 N1033 1.384 . S
N1032 C1028 1.427 . S
N1032 C1029 1.384 . S
N1033 C1025 1.427 . S
N1033 C1031 1.384 . S
H1034 C1040 0.930 . S
H1035 C1044 0.930 . S
H1036 C1049 0.929 . S
H1037 C1047 0.929 . S
H1038 C1042 0.929 . S
H1039 C1048 0.929 . S
C1040 H1034 0.930 . S
C1040 C1041 1.367 . S
C1040 C1048 1.378 . S
C1041 C1040 1.367 . S
C1041 C1049 1.433 . S
C1042 H1038 0.929 . S
C1042 C1044 1.378 . S
C1042 C1046 1.350 . S
C1043 C1046 1.463 . S
C1043 C1048 1.350 . S
C1043 N1051 1.427 . S
C1044 H1035 0.930 . S
C1044 C1042 1.378 . S
C1044 C1045 1.367 . S
C1045 C1044 1.367 . S
C1045 C1047 1.433 . S
C1046 C1042 1.350 . S
C1046 C1043 1.463 . S
C1046 N1050 1.427 . S
C1047 H1037 0.929 . S
C1047 C1045 1.433 . S
C1047 N1050 1.384 . S
C1048 H1039 0.929 . S
C1048 C1040 1.378 . S
C1048 C1043 1.350 . S
C1049 H1036 0.929 . S
C1049 C1041 1.433 . S
C1049 N1051 1.384 . S
N1050 C1046 1.427 . S
N1050 C1047 1.384 . S
N1051 C1043 1.427 . S
N1051 C1049 1.384 . S
H1052 C1058 0.930 . S
H1053 C1062 0.930 . S
H1054 C1067 0.929 . S
H1055 C1065 0.929 . S
H1056 C1060 0.929 . S
H1057 C1066 0.929 . S
C1058 H1052 0.930 . S
C1058 C1059 1.367 . S
C1058 C1066 1.378 . S
C1059 C1058 1.367 . S
C1059 C1067 1.433 . S
C1060 H1056 0.929 . S
C1060 C1062 1.378 . S
C1060 C1064 1.350 . S
C1061 C1064 1.463 . S
C1061 C1066 1.350 . S
C1061 N1069 1.427 . S
C1062 H1053 0.930 . S
C1062 C1060 1.378 . S
C1062 C1063 1.367 . S
C1063 C1062 1.367 . S
C1063 C1065 1.433 . S
C1064 C1060 1.350 . S
C1064 C1061 1.463 . S
C1064 N1068 1.427 . S
C1065 H1055 0.929 . S
C1065 C1063 1.433 . S
C1065 N1068 1.384 . S
C1066 H1057 0.929 . S
C1066 C1058 1.378 . S
C1066 C1061 1.350 . S
C1067 H1054 0.929 . S
C1067 C1059 1.433 . S
C1067 N1069 1.384 . S
N1068 C1064 1.427 . S
N1068 C1065 1.384 . S
N1069 C1061 1.427 . S
N1069 C1067 1.384 . S
H1070 C1076 0.930 . S
H1071 C1080 0.930 . S
H1072 C1085 0.929 . S
H1073 C1083 0.929 . S
H1074 C1078 0.929 . S
H1075 C1084 0.929 . S
C1076 H1070 0.930 . S
C1076 C1077 1.367 . S
C1076 C1084 1.378 . S
C1077 C1076 1.367 . S
C1077 C1085 1.433 . S
C1078 H1074 0.929 . S
C1078 C1080 1.378 . S
C1078 C1082 1.350 . S
C1079 C1082 1.463 . S
C1079 C1084 1.350 . S
C1079 N1087 1.427 . S
C1080 H1071 0.930 . S
C1080 C1078 1.378 . S
C1080 C1081 1.367 . S
C1081 C1080 1.367 . S
C1081 C1083 1.433 . S
C1082 C1078 1.350 . S
C1082 C1079 1.463 . S
C1082 N1086 1.427 . S
C1083 H1073 0.929 . S
C1083 C1081 1.433 . S
C1083 N1086 1.384 . S
C1084 H1075 0.929 . S
C1084 C1076 1.378 . S
C1084 C1079 1.350 . S
C1085 H1072 0.929 . S
C1085 C1077 1.433 . S
C1085 N1087 1.384 . S
N1086 C1082 1.427 . S
N1086 C1083 1.384 . S
N1087 C1079 1.427 . S
N1087 C1085 1.384 . S
H1088 C1094 0.930 . S
H1089 C1098 0.930 . S
H1090 C1103 0.929 . S
H1091 C1101 0.929 1_545 S
H1092 C1096 0.929 . S
H1093 C1102 0.929 . S
C1094 H1088 0.930 . S
C1094 C1095 1.350 1_545 S
C1094 C1102 1.378 . S
C1095 C1094 1.350 1_565 S
C1095 C1103 1.456 . S
C1096 H1092 0.929 . S
C1096 C1098 1.378 . S
C1096 C1100 1.350 . S
C1097 C1100 1.463 . S
C1097 C1102 1.350 1_565 S
C1097 N1105 1.427 . S
C1098 H1089 0.930 . S
C1098 C1096 1.378 . S
C1098 C1099 1.367 . S
C1099 C1098 1.367 . S
C1099 C1101 1.433 . S
C1100 C1096 1.350 . S
C1100 C1097 1.463 . S
C1100 N1104 1.406 1_565 S
C1101 H1091 0.929 1_565 S
C1101 C1099 1.433 . S
C1101 N1104 1.378 1_565 S
C1102 H1093 0.929 . S
C1102 C1094 1.378 . S
C1102 C1097 1.350 1_545 S
C1103 H1090 0.929 . S
C1103 C1095 1.456 . S
C1103 N1105 1.384 . S
N1104 C1100 1.406 1_545 S
N1104 C1101 1.378 1_545 S
N1105 C1097 1.427 . S
N1105 C1103 1.384 . S
H1106 C1112 0.930 . S
H1107 C1116 0.930 . S
H1108 C1121 0.929 . S
H1109 C1119 0.929 . S
H1110 C1114 0.929 . S
H1111 C1120 0.929 . S
C1112 H1106 0.930 . S
C1112 C1113 1.367 . S
C1112 C1120 1.378 . S
C1113 C1112 1.367 . S
C1113 C1121 1.433 . S
C1114 H1110 0.929 . S
C1114 C1116 1.378 . S
C1114 C1118 1.350 . S
C1115 C1118 1.463 . S
C1115 C1120 1.350 . S
C1115 N1123 1.427 . S
C1116 H1107 0.930 . S
C1116 C1114 1.378 . S
C1116 C1117 1.367 . S
C1117 C1116 1.367 . S
C1117 C1119 1.433 . S
C1118 C1114 1.350 . S
C1118 C1115 1.463 . S
C1118 N1122 1.427 . S
C1119 H1109 0.929 . S
C1119 C1117 1.433 . S
C1119 N1122 1.384 . S
C1120 H1111 0.929 . S
C1120 C1112 1.378 . S
C1120 C1115 1.350 . S
C1121 H1108 0.929 . S
C1121 C1113 1.433 . S
C1121 N1123 1.384 . S
N1122 C1118 1.427 . S
N1122 C1119 1.384 . S
N1123 C1115 1.427 . S
N1123 C1121 1.384 . S
H1124 C1130 0.930 . S
H1125 C1134 0.930 . S
H1126 C1139 0.929 . S
H1127 C1137 0.929 . S
H1128 C1132 0.929 . S
H1129 C1138 0.929 . S
C1130 H1124 0.930 . S
C1130 C1131 1.367 . S
C1130 C1138 1.378 . S
C1131 C1130 1.367 . S
C1131 C1139 1.433 . S
C1132 H1128 0.929 . S
C1132 C1134 1.378 . S
C1132 C1136 1.350 . S
C1133 C1136 1.463 . S
C1133 C1138 1.350 . S
C1133 N1141 1.427 . S
C1134 H1125 0.930 . S
C1134 C1132 1.378 . S
C1134 C1135 1.367 . S
C1135 C1134 1.367 . S
C1135 C1137 1.433 . S
C1136 C1132 1.350 . S
C1136 C1133 1.463 . S
C1136 N1140 1.427 . S
C1137 H1127 0.929 . S
C1137 C1135 1.433 . S
C1137 N1140 1.384 . S
C1138 H1129 0.929 . S
C1138 C1130 1.378 . S
C1138 C1133 1.350 . S
C1139 H1126 0.929 . S
C1139 C1131 1.433 . S
C1139 N1141 1.384 . S
N1140 C1136 1.427 . S
N1140 C1137 1.384 . S
N1141 C1133 1.427 . S
N1141 C1139 1.384 . S
H1142 C1148 0.930 1_455 S
H1143 C1152 0.930 . S
H1144 C1157 0.929 . S
H1145 C1155 0.929 . S
H1146 C1150 0.929 . S
H1147 C1156 0.929 . S
C1148 H1142 0.930 1_655 S
C1148 C1149 1.367 . S
C1148 C1156 1.378 . S
C1149 C1148 1.367 . S
C1149 C1157 1.433 . S
C1150 H1146 0.929 . S
C1150 C1152 1.378 . S
C1150 C1154 1.350 . S
C1151 C1154 1.463 . S
C1151 C1156 1.350 . S
C1151 N1159 1.427 . S
C1152 H1143 0.930 . S
C1152 C1150 1.378 . S
C1152 C1153 1.367 . S
C1153 C1152 1.367 . S
C1153 C1155 1.433 . S
C1154 C1150 1.350 . S
C1154 C1151 1.463 . S
C1154 N1158 1.427 . S
C1155 H1145 0.929 . S
C1155 C1153 1.433 . S
C1155 N1158 1.384 . S
C1156 H1147 0.929 . S
C1156 C1148 1.378 . S
C1156 C1151 1.350 . S
C1157 H1144 0.929 . S
C1157 C1149 1.433 . S
C1157 N1159 1.384 . S
N1158 C1154 1.427 . S
N1158 C1155 1.384 . S
N1159 C1151 1.427 . S
N1159 C1157 1.384 . S
H1160 C1166 0.930 . S
H1161 C1170 0.930 . S
H1162 C1175 0.929 . S
H1163 C1173 0.929 . S
H1164 C1168 0.929 . S
H1165 C1174 0.929 . S
C1166 H1160 0.930 . S
C1166 C1167 1.367 . S
C1166 C1174 1.378 . S
C1167 C1166 1.367 . S
C1167 C1175 1.433 1_545 S
C1168 H1164 0.929 . S
C1168 C1170 1.378 . S
C1168 C1172 1.350 1_565 S
C1169 C1172 1.463 . S
C1169 C1174 1.350 . S
C1169 N1177 1.427 1_545 S
C1170 H1161 0.930 . S
C1170 C1168 1.378 . S
C1170 C1171 1.367 1_565 S
C1171 C1170 1.367 1_545 S
C1171 C1173 1.433 . S
C1172 C1168 1.350 1_545 S
C1172 C1169 1.463 . S
C1172 N1176 1.427 . S
C1173 H1163 0.929 . S
C1173 C1171 1.433 . S
C1173 N1176 1.384 . S
C1174 H1165 0.929 . S
C1174 C1166 1.378 . S
C1174 C1169 1.350 . S
C1175 H1162 0.929 . S
C1175 C1167 1.433 1_565 S
C1175 N1177 1.384 . S
N1176 C1172 1.427 . S
N1176 C1173 1.384 . S
N1177 C1169 1.427 1_565 S
N1177 C1175 1.384 . S
H1178 C1184 0.930 . S
H1179 C1188 0.930 . S
H1180 C1193 0.929 . S
H1181 C1191 0.929 . S
H1182 C1186 0.929 . S
H1183 C1192 0.929 . S
C1184 H1178 0.930 . S
C1184 C1185 1.367 . S
C1184 C1192 1.378 . S
C1185 C1184 1.367 . S
C1185 C1193 1.433 . S
C1186 H1182 0.929 . S
C1186 C1188 1.378 . S
C1186 C1190 1.350 . S
C1187 C1190 1.463 . S
C1187 C1192 1.350 . S
C1187 N1195 1.427 . S
C1188 H1179 0.930 . S
C1188 C1186 1.378 . S
C1188 C1189 1.367 . S
C1189 C1188 1.367 . S
C1189 C1191 1.433 . S
C1190 C1186 1.350 . S
C1190 C1187 1.463 . S
C1190 N1194 1.427 . S
C1191 H1181 0.929 . S
C1191 C1189 1.433 . S
C1191 N1194 1.384 . S
C1192 H1183 0.929 . S
C1192 C1184 1.378 . S
C1192 C1187 1.350 . S
C1193 H1180 0.929 . S
C1193 C1185 1.433 . S
C1193 N1195 1.384 . S
N1194 C1190 1.427 . S
N1194 C1191 1.384 . S
N1195 C1187 1.427 . S
N1195 C1193 1.384 . S
H1196 C1202 0.930 . S
H1197 C1206 0.930 . S
H1198 C1211 0.929 . S
H1199 C1209 0.929 . S
H1200 C1204 0.929 . S
H1201 C1210 0.929 . S
C1202 H1196 0.930 . S
C1202 C1203 1.367 . S
C1202 C1210 1.378 . S
C1203 C1202 1.367 . S
C1203 C1211 1.433 . S
C1204 H1200 0.929 . S
C1204 C1206 1.378 . S
C1204 C1208 1.350 . S
C1205 C1208 1.463 . S
C1205 C1210 1.350 . S
C1205 N1213 1.427 . S
C1206 H1197 0.930 . S
C1206 C1204 1.378 . S
C1206 C1207 1.367 . S
C1207 C1206 1.367 . S
C1207 C1209 1.433 . S
C1208 C1204 1.350 . S
C1208 C1205 1.463 . S
C1208 N1212 1.427 . S
C1209 H1199 0.929 . S
C1209 C1207 1.433 . S
C1209 N1212 1.384 . S
C1210 H1201 0.929 . S
C1210 C1202 1.378 . S
C1210 C1205 1.350 . S
C1211 H1198 0.929 . S
C1211 C1203 1.433 . S
C1211 N1213 1.384 . S
N1212 C1208 1.427 . S
N1212 C1209 1.384 . S
N1213 C1205 1.427 . S
N1213 C1211 1.384 . S
H1214 C1220 0.930 . S
H1215 C1224 0.930 . S
H1216 C1229 0.929 . S
H1217 C1227 0.929 . S
H1218 C1222 0.929 . S
H1219 C1228 0.929 . S
C1220 H1214 0.930 . S
C1220 C1221 1.356 1_655 S
C1220 C1228 1.378 . S
C1221 C1220 1.356 1_455 S
C1221 C1229 1.450 . S
C1222 H1218 0.929 . S
C1222 C1224 1.378 . S
C1222 C1226 1.350 . S
C1223 C1226 1.463 . S
C1223 C1228 1.350 1_455 S
C1223 N1231 1.427 . S
C1224 H1215 0.930 . S
C1224 C1222 1.378 . S
C1224 C1225 1.367 . S
C1225 C1224 1.367 . S
C1225 C1227 1.433 . S
C1226 C1222 1.350 . S
C1226 C1223 1.463 . S
C1226 N1230 1.427 . S
C1227 H1217 0.929 . S
C1227 C1225 1.433 . S
C1227 N1230 1.384 . S
C1228 H1219 0.929 . S
C1228 C1220 1.378 . S
C1228 C1223 1.350 1_655 S
C1229 H1216 0.929 . S
C1229 C1221 1.450 . S
C1229 N1231 1.384 . S
N1230 C1226 1.427 . S
N1230 C1227 1.384 . S
N1231 C1223 1.427 . S
N1231 C1229 1.384 . S
H1232 C1238 0.930 . S
H1233 C1242 0.930 . S
H1234 C1247 0.929 . S
H1235 C1245 0.929 . S
H1236 C1240 0.929 . S
H1237 C1246 0.929 . S
C1238 H1232 0.930 . S
C1238 C1239 1.367 1_565 S
C1238 C1246 1.378 . S
C1239 C1238 1.367 1_545 S
C1239 C1247 1.433 . S
C1240 H1236 0.929 . S
C1240 C1242 1.378 . S
C1240 C1244 1.350 . S
C1241 C1244 1.463 . S
C1241 C1246 1.350 1_545 S
C1241 N1249 1.427 . S
C1242 H1233 0.930 . S
C1242 C1240 1.378 . S
C1242 C1243 1.367 . S
C1243 C1242 1.367 . S
C1243 C1245 1.433 1_545 S
C1244 C1240 1.350 . S
C1244 C1241 1.463 . S
C1244 N1248 1.427 1_545 S
C1245 H1235 0.929 . S
C1245 C1243 1.433 1_565 S
C1245 N1248 1.384 . S
C1246 H1237 0.929 . S
C1246 C1238 1.378 . S
C1246 C1241 1.350 1_565 S
C1247 H1234 0.929 . S
C1247 C1239 1.433 . S
C1247 N1249 1.384 . S
N1248 C1244 1.427 1_565 S
N1248 C1245 1.384 . S
N1249 C1241 1.427 . S
N1249 C1247 1.384 . S
H1250 C1256 0.930 . S
H1251 C1260 0.930 . S
H1252 C1265 0.929 . S
H1253 C1263 0.929 . S
H1254 C1258 0.929 . S
H1255 C1264 0.929 . S
C1256 H1250 0.930 . S
C1256 C1257 1.367 . S
C1256 C1264 1.378 . S
C1257 C1256 1.367 . S
C1257 C1265 1.433 . S
C1258 H1254 0.929 . S
C1258 C1260 1.378 . S
C1258 C1262 1.350 . S
C1259 C1262 1.463 . S
C1259 C1264 1.350 . S
C1259 N1267 1.427 . S
C1260 H1251 0.930 . S
C1260 C1258 1.378 . S
C1260 C1261 1.367 . S
C1261 C1260 1.367 . S
C1261 C1263 1.433 . S
C1262 C1258 1.350 . S
C1262 C1259 1.463 . S
C1262 N1266 1.427 . S
C1263 H1253 0.929 . S
C1263 C1261 1.433 . S
C1263 N1266 1.384 . S
C1264 H1255 0.929 . S
C1264 C1256 1.378 . S
C1264 C1259 1.350 . S
C1265 H1252 0.929 . S
C1265 C1257 1.433 . S
C1265 N1267 1.384 . S
N1266 C1262 1.427 . S
N1266 C1263 1.384 . S
N1267 C1259 1.427 . S
N1267 C1265 1.384 . S
H1268 C1274 0.930 . S
H1269 C1278 0.930 . S
H1270 C1283 0.929 . S
H1271 C1281 0.929 . S
H1272 C1276 0.929 . S
H1273 C1282 0.929 . S
C1274 H1268 0.930 . S
C1274 C1275 1.367 . S
C1274 C1282 1.378 . S
C1275 C1274 1.367 . S
C1275 C1283 1.433 . S
C1276 H1272 0.929 . S
C1276 C1278 1.378 . S
C1276 C1280 1.350 . S
C1277 C1280 1.463 . S
C1277 C1282 1.350 . S
C1277 N1285 1.427 . S
C1278 H1269 0.930 . S
C1278 C1276 1.378 . S
C1278 C1279 1.367 . S
C1279 C1278 1.367 . S
C1279 C1281 1.433 . S
C1280 C1276 1.350 . S
C1280 C1277 1.463 . S
C1280 N1284 1.427 . S
C1281 H1271 0.929 . S
C1281 C1279 1.433 . S
C1281 N1284 1.384 . S
C1282 H1273 0.929 . S
C1282 C1274 1.378 . S
C1282 C1277 1.350 . S
C1283 H1270 0.929 . S
C1283 C1275 1.433 . S
C1283 N1285 1.384 . S
N1284 C1280 1.427 . S
N1284 C1281 1.384 . S
N1285 C1277 1.427 . S
N1285 C1283 1.384 . S
H1286 C1292 0.936 . S
H1287 C1296 0.930 . S
H1288 C1301 0.929 . S
H1289 C1299 0.929 . S
H1290 C1294 0.929 . S
H1291 C1300 0.929 . S
C1292 H1286 0.936 . S
C1292 C1293 1.367 . S
C1292 C1300 1.378 . S
C1293 C1292 1.367 . S
C1293 C1301 1.433 . S
C1294 H1290 0.929 . S
C1294 C1296 1.378 . S
C1294 C1298 1.350 . S
C1295 C1298 1.463 . S
C1295 C1300 1.350 . S
C1295 N1303 1.427 . S
C1296 H1287 0.930 . S
C1296 C1294 1.378 . S
C1296 C1297 1.367 . S
C1297 C1296 1.367 . S
C1297 C1299 1.433 . S
C1298 C1294 1.350 . S
C1298 C1295 1.463 . S
C1298 N1302 1.427 . S
C1299 H1289 0.929 . S
C1299 C1297 1.433 . S
C1299 N1302 1.384 . S
C1300 H1291 0.929 . S
C1300 C1292 1.378 . S
C1300 C1295 1.350 . S
C1301 H1288 0.929 . S
C1301 C1293 1.433 . S
C1301 N1303 1.384 . S
N1302 C1298 1.427 . S
N1302 C1299 1.384 . S
N1303 C1295 1.427 . S
N1303 C1301 1.384 . S
H1304 C1310 0.930 . S
H1305 C1314 0.930 . S
H1306 C1319 0.929 . S
H1307 C1317 0.929 . S
H1308 C1312 0.929 . S
H1309 C1318 0.929 . S
C1310 H1304 0.930 . S
C1310 C1311 1.367 . S
C1310 C1318 1.378 . S
C1311 C1310 1.367 . S
C1311 C1319 1.433 1_565 S
C1312 H1308 0.929 . S
C1312 C1314 1.378 . S
C1312 C1316 1.350 1_545 S
C1313 C1316 1.463 . S
C1313 C1318 1.350 . S
C1313 N1321 1.427 1_565 S
C1314 H1305 0.930 . S
C1314 C1312 1.378 . S
C1314 C1315 1.367 1_545 S
C1315 C1314 1.367 1_565 S
C1315 C1317 1.433 . S
C1316 C1312 1.350 1_565 S
C1316 C1313 1.463 . S
C1316 N1320 1.427 . S
C1317 H1307 0.929 . S
C1317 C1315 1.433 . S
C1317 N1320 1.384 . S
C1318 H1309 0.929 . S
C1318 C1310 1.378 . S
C1318 C1313 1.350 . S
C1319 H1306 0.929 . S
C1319 C1311 1.433 1_545 S
C1319 N1321 1.384 . S
N1320 C1316 1.427 . S
N1320 C1317 1.384 . S
N1321 C1313 1.427 1_545 S
N1321 C1319 1.384 . S
H1322 C1328 0.930 . S
H1323 C1332 0.930 . S
H1324 C1337 0.929 . S
H1325 C1335 0.929 . S
H1326 C1330 0.929 . S
H1327 C1336 0.929 . S
C1328 H1322 0.930 . S
C1328 C1329 1.367 . S
C1328 C1336 1.378 . S
C1329 C1328 1.367 . S
C1329 C1337 1.433 . S
C1330 H1326 0.929 . S
C1330 C1332 1.378 . S
C1330 C1334 1.350 . S
C1331 C1334 1.463 . S
C1331 C1336 1.350 . S
C1331 N1339 1.427 . S
C1332 H1323 0.930 . S
C1332 C1330 1.378 . S
C1332 C1333 1.367 . S
C1333 C1332 1.367 . S
C1333 C1335 1.433 . S
C1334 C1330 1.350 . S
C1334 C1331 1.463 . S
C1334 N1338 1.427 . S
C1335 H1325 0.929 . S
C1335 C1333 1.433 . S
C1335 N1338 1.384 . S
C1336 H1327 0.929 . S
C1336 C1328 1.378 . S
C1336 C1331 1.350 . S
C1337 H1324 0.929 . S
C1337 C1329 1.433 . S
C1337 N1339 1.384 . S
N1338 C1334 1.427 . S
N1338 C1335 1.384 . S
N1339 C1331 1.427 . S
N1339 C1337 1.384 . S
H1340 C1346 0.930 . S
H1341 C1350 0.930 . S
H1342 C1355 0.929 . S
H1343 C1353 0.929 . S
H1344 C1348 0.929 . S
H1345 C1354 0.929 . S
C1346 H1340 0.930 . S
C1346 C1347 1.367 . S
C1346 C1354 1.378 . S
C1347 C1346 1.367 . S
C1347 C1355 1.433 . S
C1348 H1344 0.929 . S
C1348 C1350 1.378 . S
C1348 C1352 1.350 . S
C1349 C1352 1.463 . S
C1349 C1354 1.350 . S
C1349 N1357 1.427 . S
C1350 H1341 0.930 . S
C1350 C1348 1.378 . S
C1350 C1351 1.367 . S
C1351 C1350 1.367 . S
C1351 C1353 1.433 . S
C1352 C1348 1.350 . S
C1352 C1349 1.463 . S
C1352 N1356 1.427 . S
C1353 H1343 0.929 . S
C1353 C1351 1.433 . S
C1353 N1356 1.384 . S
C1354 H1345 0.929 . S
C1354 C1346 1.378 . S
C1354 C1349 1.350 . S
C1355 H1342 0.929 . S
C1355 C1347 1.433 . S
C1355 N1357 1.384 . S
N1356 C1352 1.427 . S
N1356 C1353 1.384 . S
N1357 C1349 1.427 . S
N1357 C1355 1.384 . S
H1358 C1364 0.930 . S
H1359 C1368 0.930 . S
H1360 C1373 0.929 . S
H1361 C1371 0.929 . S
H1362 C1366 0.929 . S
H1363 C1372 0.929 . S
C1364 H1358 0.930 . S
C1364 C1365 1.367 . S
C1364 C1372 1.378 . S
C1365 C1364 1.367 . S
C1365 C1373 1.433 . S
C1366 H1362 0.929 . S
C1366 C1368 1.378 . S
C1366 C1370 1.350 1_455 S
C1367 C1370 1.463 . S
C1367 C1372 1.350 . S
C1367 N1375 1.427 . S
C1368 H1359 0.930 . S
C1368 C1366 1.378 . S
C1368 C1369 1.357 1_455 S
C1369 C1368 1.357 1_655 S
C1369 C1371 1.451 . S
C1370 C1366 1.350 1_655 S
C1370 C1367 1.463 . S
C1370 N1374 1.427 . S
C1371 H1361 0.929 . S
C1371 C1369 1.451 . S
C1371 N1374 1.384 . S
C1372 H1363 0.929 . S
C1372 C1364 1.378 . S
C1372 C1367 1.350 . S
C1373 H1360 0.929 . S
C1373 C1365 1.433 . S
C1373 N1375 1.384 . S
N1374 C1370 1.427 . S
N1374 C1371 1.384 . S
N1375 C1367 1.427 . S
N1375 C1373 1.384 . S
H1376 C1382 0.930 . S
H1377 C1386 0.930 . S
H1378 C1391 0.929 . S
H1379 C1389 0.929 . S
H1380 C1384 0.929 . S
H1381 C1390 0.929 . S
C1382 H1376 0.930 . S
C1382 C1383 1.367 1_565 S
C1382 C1390 1.378 . S
C1383 C1382 1.367 1_545 S
C1383 C1391 1.433 . S
C1384 H1380 0.929 . S
C1384 C1386 1.378 . S
C1384 C1388 1.350 1_545 S
C1385 C1388 1.463 1_546 S
C1385 C1390 1.350 1_545 S
C1385 N1393 1.427 1_556 S
C1386 H1377 0.930 . S
C1386 C1384 1.378 . S
C1386 C1387 1.367 1_545 S
C1387 C1386 1.367 1_565 S
C1387 C1389 1.433 . S
C1388 C1384 1.350 1_565 S
C1388 C1385 1.463 1_564 S
C1388 N1392 1.427 1_554 S
C1389 H1379 0.929 . S
C1389 C1387 1.433 . S
C1389 N1392 1.384 1_554 S
C1390 H1381 0.929 . S
C1390 C1382 1.378 . S
C1390 C1385 1.350 1_565 S
C1391 H1378 0.929 . S
C1391 C1383 1.433 . S
C1391 N1393 1.384 1_556 S
N1392 C1388 1.427 1_556 S
N1392 C1389 1.384 1_556 S
N1393 C1385 1.427 1_554 S
N1393 C1391 1.384 1_554 S
H1394 C1400 0.930 . S
H1395 C1404 0.930 . S
H1396 C1409 0.929 . S
H1397 C1407 0.929 . S
H1398 C1402 0.929 . S
H1399 C1408 0.929 . S
C1400 H1394 0.930 . S
C1400 C1401 1.367 . S
C1400 C1408 1.378 . S
C1401 C1400 1.367 . S
C1401 C1409 1.433 1_556 S
C1402 H1398 0.929 . S
C1402 C1404 1.378 . S
C1402 C1406 1.350 . S
C1403 C1406 1.463 1_556 S
C1403 C1408 1.350 . S
C1403 N1411 1.427 1_556 S
C1404 H1395 0.930 . S
C1404 C1402 1.378 . S
C1404 C1405 1.367 . S
C1405 C1404 1.367 . S
C1405 C1407 1.433 1_554 S
C1406 C1402 1.350 . S
C1406 C1403 1.463 1_554 S
C1406 N1410 1.427 1_554 S
C1407 H1397 0.929 . S
C1407 C1405 1.433 1_556 S
C1407 N1410 1.384 . S
C1408 H1399 0.929 . S
C1408 C1400 1.378 . S
C1408 C1403 1.350 . S
C1409 H1396 0.929 . S
C1409 C1401 1.433 1_554 S
C1409 N1411 1.384 . S
N1410 C1406 1.427 1_556 S
N1410 C1407 1.384 . S
N1411 C1403 1.427 1_554 S
N1411 C1409 1.384 . S
H1412 C1418 0.930 . S
H1413 C1422 0.930 . S
H1414 C1427 0.931 . S
H1415 C1425 0.931 . S
H1416 C1420 0.929 . S
H1417 C1426 0.929 . S
C1418 H1412 0.930 . S
C1418 C1419 1.367 . S
C1418 C1426 1.378 . S
C1419 C1418 1.367 . S
C1419 C1427 1.431 1_554 S
C1420 H1416 0.929 . S
C1420 C1422 1.378 . S
C1420 C1424 1.350 . S
C1421 C1424 1.463 1_654 S
C1421 C1426 1.350 . S
C1421 N1429 1.427 1_554 S
C1422 H1413 0.930 . S
C1422 C1420 1.378 . S
C1422 C1423 1.367 . S
C1423 C1422 1.367 . S
C1423 C1425 1.431 1_556 S
C1424 C1420 1.350 . S
C1424 C1421 1.463 1_456 S
C1424 N1428 1.427 1_556 S
C1425 H1415 0.931 . S
C1425 C1423 1.431 1_554 S
C1425 N1428 1.385 . S
C1426 H1417 0.929 . S
C1426 C1418 1.378 . S
C1426 C1421 1.350 . S
C1427 H1414 0.931 . S
C1427 C1419 1.431 1_556 S
C1427 N1429 1.385 . S
N1428 C1424 1.427 1_554 S
N1428 C1425 1.385 . S
N1429 C1421 1.427 1_556 S
N1429 C1427 1.385 . S
H1430 C1436 0.930 . S
H1431 C1440 0.930 . S
H1432 C1445 0.929 . S
H1433 C1443 0.929 . S
H1434 C1438 0.929 . S
H1435 C1444 0.929 . S
C1436 H1430 0.930 . S
C1436 C1437 1.367 1_654 S
C1436 C1444 1.378 . S
C1437 C1436 1.367 1_456 S
C1437 C1445 1.433 . S
C1438 H1434 0.929 . S
C1438 C1440 1.378 . S
C1438 C1442 1.350 1_456 S
C1439 C1442 1.463 1_446 S
C1439 C1444 1.350 1_456 S
C1439 N1447 1.427 . S
C1440 H1431 0.930 . S
C1440 C1438 1.378 . S
C1440 C1441 1.367 1_456 S
C1441 C1440 1.367 1_654 S
C1441 C1443 1.433 . S
C1442 C1438 1.350 1_654 S
C1442 C1439 1.463 1_664 S
C1442 N1446 1.427 . S
C1443 H1433 0.929 . S
C1443 C1441 1.433 . S
C1443 N1446 1.384 . S
C1444 H1435 0.929 . S
C1444 C1436 1.378 . S
C1444 C1439 1.350 1_654 S
C1445 H1432 0.929 . S
C1445 C1437 1.433 . S
C1445 N1447 1.384 . S
N1446 C1442 1.427 . S
N1446 C1443 1.384 . S
N1447 C1439 1.427 . S
N1447 C1445 1.384 . S
H1448 C1454 0.930 . S
H1449 C1458 0.930 . S
H1450 C1463 0.929 . S
H1451 C1461 0.929 . S
H1452 C1456 0.929 . S
H1453 C1462 0.929 . S
C1454 H1448 0.930 . S
C1454 C1455 1.367 . S
C1454 C1462 1.378 . S
C1455 C1454 1.367 . S
C1455 C1463 1.433 1_545 S
C1456 H1452 0.929 . S
C1456 C1458 1.378 . S
C1456 C1460 1.350 . S
C1457 C1460 1.463 1_445 S
C1457 C1462 1.350 . S
C1457 N1465 1.427 1_545 S
C1458 H1449 0.930 . S
C1458 C1456 1.378 . S
C1458 C1459 1.367 . S
C1459 C1458 1.367 . S
C1459 C1461 1.433 1_565 S
C1460 C1456 1.350 . S
C1460 C1457 1.463 1_665 S
C1460 N1464 1.427 1_565 S
C1461 H1451 0.929 . S
C1461 C1459 1.433 1_545 S
C1461 N1464 1.384 . S
C1462 H1453 0.929 . S
C1462 C1454 1.378 . S
C1462 C1457 1.350 . S
C1463 H1450 0.929 . S
C1463 C1455 1.433 1_565 S
C1463 N1465 1.384 . S
N1464 C1460 1.427 1_545 S
N1464 C1461 1.384 . S
N1465 C1457 1.427 1_565 S
N1465 C1463 1.384 . S
H1466 C1472 0.930 . S
H1467 C1476 0.930 . S
H1468 C1481 0.929 . S
H1469 C1479 0.929 . S
H1470 C1474 0.929 . S
H1471 C1480 0.929 . S
C1472 H1466 0.930 . S
C1472 C1473 1.367 . S
C1472 C1480 1.378 . S
C1473 C1472 1.367 . S
C1473 C1481 1.433 . S
C1474 H1470 0.929 . S
C1474 C1476 1.378 . S
C1474 C1478 1.350 . S
C1475 C1478 1.463 1_565 S
C1475 C1480 1.350 . S
C1475 N1483 1.427 . S
C1476 H1467 0.930 . S
C1476 C1474 1.378 . S
C1476 C1477 1.367 . S
C1477 C1476 1.367 . S
C1477 C1479 1.433 . S
C1478 C1474 1.350 . S
C1478 C1475 1.463 1_545 S
C1478 N1482 1.427 . S
C1479 H1469 0.929 . S
C1479 C1477 1.433 . S
C1479 N1482 1.384 . S
C1480 H1471 0.929 . S
C1480 C1472 1.378 . S
C1480 C1475 1.350 . S
C1481 H1468 0.929 . S
C1481 C1473 1.433 . S
C1481 N1483 1.384 . S
N1482 C1478 1.427 . S
N1482 C1479 1.384 . S
N1483 C1475 1.427 . S
N1483 C1481 1.384 . S
H1484 C1490 0.930 . S
H1485 C1494 0.930 . S
H1486 C1499 0.929 . S
H1487 C1497 0.929 . S
H1488 C1492 0.929 . S
H1489 C1498 0.929 . S
C1490 H1484 0.930 . S
C1490 C1491 1.367 . S
C1490 C1498 1.378 . S
C1491 C1490 1.367 . S
C1491 C1499 1.433 . S
C1492 H1488 0.929 . S
C1492 C1494 1.378 . S
C1492 C1496 1.350 . S
C1493 C1496 1.463 . S
C1493 C1498 1.350 . S
C1493 N1501 1.427 . S
C1494 H1485 0.930 . S
C1494 C1492 1.378 . S
C1494 C1495 1.367 . S
C1495 C1494 1.367 . S
C1495 C1497 1.433 . S
C1496 C1492 1.350 . S
C1496 C1493 1.463 . S
C1496 N1500 1.427 . S
C1497 H1487 0.929 . S
C1497 C1495 1.433 . S
C1497 N1500 1.384 . S
C1498 H1489 0.929 . S
C1498 C1490 1.378 . S
C1498 C1493 1.350 . S
C1499 H1486 0.929 . S
C1499 C1491 1.433 . S
C1499 N1501 1.384 . S
N1500 C1496 1.427 . S
N1500 C1497 1.384 . S
N1501 C1493 1.427 . S
N1501 C1499 1.384 . S
H1502 C1508 0.930 . S
H1503 C1512 0.930 . S
H1504 C1517 0.929 . S
H1505 C1515 0.929 . S
H1506 C1510 0.929 . S
H1507 C1516 0.929 . S
C1508 H1502 0.930 . S
C1508 C1509 1.367 . S
C1508 C1516 1.378 . S
C1509 C1508 1.367 . S
C1509 C1517 1.433 1_655 S
C1510 H1506 0.929 . S
C1510 C1512 1.378 . S
C1510 C1514 1.350 . S
C1511 C1514 1.463 1_655 S
C1511 C1516 1.350 . S
C1511 N1519 1.427 1_655 S
C1512 H1503 0.930 . S
C1512 C1510 1.378 . S
C1512 C1513 1.367 . S
C1513 C1512 1.367 . S
C1513 C1515 1.433 1_455 S
C1514 C1510 1.350 . S
C1514 C1511 1.463 1_455 S
C1514 N1518 1.427 1_455 S
C1515 H1505 0.929 . S
C1515 C1513 1.433 1_655 S
C1515 N1518 1.384 . S
C1516 H1507 0.929 . S
C1516 C1508 1.378 . S
C1516 C1511 1.350 . S
C1517 H1504 0.929 . S
C1517 C1509 1.433 1_455 S
C1517 N1519 1.384 . S
N1518 C1514 1.427 1_655 S
N1518 C1515 1.384 . S
N1519 C1511 1.427 1_455 S
N1519 C1517 1.384 . S
C951 C347 0.576 . S
C955 C52 0.577 . S
C969 C406 0.770 . S
C973 C111 0.769 . S
C987 C170 0.576 . S
C991 C465 0.575 . S
C1005 C229 0.391 . S
C1009 C288 0.386 . S
C1023 C524 0.581 . S
C1027 C819 0.574 . S
C1041 C878 0.769 . S
C1045 C583 0.770 . S
C1059 C937 0.576 . S
C1063 C642 0.572 . S
C1077 C701 0.372 . S
C1081 C760 0.368 . S
C1095 C5 1.547 1_565 S
C1099 C711 1.486 . S
C1113 C770 1.668 . S
C1117 C64 1.769 1_556 S
C1131 C123 1.821 1_556 S
C1135 C829 1.746 . S
C1149 C182 1.601 . S
C1153 C888 1.541 . S
C1167 C241 1.600 . S
C1171 C475 1.537 . S
C1185 C300 1.821 . S
C1189 C534 1.747 . S
C1203 C359 1.772 . S
C1207 C593 1.678 . S
C1221 C418 1.542 1_455 S
C1225 C652 1.477 . S
C1239 C239 1.470 . S
C1243 C477 1.541 1_545 S
C1257 C298 1.674 . S
C1261 C536 1.771 1_554 S
C1275 C357 1.747 . S
C1279 C595 1.821 1_554 S
C1293 C654 1.601 . S
C1297 C416 1.540 . S
C1311 C3 1.551 . S
C1315 C713 1.604 . S
C1329 C772 1.821 . S
C1333 C62 1.746 . S
C1347 C831 1.772 . S
C1351 C121 1.677 . S
C1365 C180 1.485 . S
C1369 C890 1.545 1_655 S
C1383 C505 1.479 . S
C1387 C33 1.480 . S
C1401 C564 1.722 . S
C1405 C92 1.722 . S
C1419 C151 1.973 . S
C1423 C623 1.973 . S
C1437 C682 1.680 . S
C1441 C210 1.681 . S
C1455 C269 1.690 . S
C1459 C741 1.690 . S
C1473 C800 1.976 . S
C1477 C328 1.976 . S
C1491 C859 1.719 . S
C1495 C387 1.719 . S
C1509 C918 1.493 . S
C1513 C446 1.494 . S
