# Generated by pormake.
# Topology sof, (5)-cn, num edge types: 1
# Building blocks:
#     Node 0, Type 0, BuildingBlock: BEQFEK_clean_sbu_0, # of connection points: 5
#     Node 1, Type 0, BuildingBlock: BEQFEK_clean_sbu_0, # of connection points: 5
#     Node 2, Type 0, BuildingBlock: BEQFEK_clean_sbu_0, # of connection points: 5
#     Node 3, Type 0, BuildingBlock: BEQFEK_clean_sbu_0, # of connection points: 5
#     Node 4, Type 0, BuildingBlock: BEQFEK_clean_sbu_0, # of connection points: 5
#     Node 5, Type 0, BuildingBlock: BEQFEK_clean_sbu_0, # of connection points: 5
#     Node 6, Type 0, BuildingBlock: BEQFEK_clean_sbu_0, # of connection points: 5
#     Node 7, Type 0, BuildingBlock: BEQFEK_clean_sbu_0, # of connection points: 5
#     Edge 8, Type (0, 0), BuildingBlock: CIFDUS_clean_linker_0, # of connection points: 2
#     Edge 9, Type (0, 0), BuildingBlock: CIFDUS_clean_linker_0, # of connection points: 2
#     Edge 10, Type (0, 0), BuildingBlock: CIFDUS_clean_linker_0, # of connection points: 2
#     Edge 11, Type (0, 0), BuildingBlock: CIFDUS_clean_linker_0, # of connection points: 2
#     Edge 12, Type (0, 0), BuildingBlock: CIFDUS_clean_linker_0, # of connection points: 2
#     Edge 13, Type (0, 0), BuildingBlock: CIFDUS_clean_linker_0, # of connection points: 2
#     Edge 14, Type (0, 0), BuildingBlock: CIFDUS_clean_linker_0, # of connection points: 2
#     Edge 15, Type (0, 0), BuildingBlock: CIFDUS_clean_linker_0, # of connection points: 2
#     Edge 16, Type (0, 0), BuildingBlock: CIFDUS_clean_linker_0, # of connection points: 2
#     Edge 17, Type (0, 0), BuildingBlock: CIFDUS_clean_linker_0, # of connection points: 2
#     Edge 18, Type (0, 0), BuildingBlock: CIFDUS_clean_linker_0, # of connection points: 2
#     Edge 19, Type (0, 0), BuildingBlock: CIFDUS_clean_linker_0, # of connection points: 2
#     Edge 20, Type (0, 0), BuildingBlock: CIFDUS_clean_linker_0, # of connection points: 2
#     Edge 21, Type (0, 0), BuildingBlock: CIFDUS_clean_linker_0, # of connection points: 2
#     Edge 22, Type (0, 0), BuildingBlock: CIFDUS_clean_linker_0, # of connection points: 2
#     Edge 23, Type (0, 0), BuildingBlock: CIFDUS_clean_linker_0, # of connection points: 2
#     Edge 24, Type (0, 0), BuildingBlock: CIFDUS_clean_linker_0, # of connection points: 2
#     Edge 25, Type (0, 0), BuildingBlock: CIFDUS_clean_linker_0, # of connection points: 2
#     Edge 26, Type (0, 0), BuildingBlock: CIFDUS_clean_linker_0, # of connection points: 2
#     Edge 27, Type (0, 0), BuildingBlock: CIFDUS_clean_linker_0, # of connection points: 2
# Relax obj value: 0.165
# Max RMSD: 0.176
# Mean RMSD: 0.176
data_MOF--net-sof--node1-BEQFEK_clean_sbu_0--edge1-CIFDUS_clean_linker_0
_symmetry_space_group_name_H-M    P1
_symmetry_Int_Tables_number       1
_symmetry_cell_setting            triclinic
loop_
_symmetry_equiv_pos_as_xyz
'x, y, z'
_cell_length_a     51.270961
_cell_length_b     16.908128
_cell_length_c     38.847369
_cell_angle_alpha  90.01197
_cell_angle_beta   90.069403
_cell_angle_gamma 90.203654
loop_
_atom_site_label
_atom_site_type_symbol
_atom_site_fract_x
_atom_site_fract_y
_atom_site_fract_z
_atom_type_partial_charge
Co0 Co 0.14058 0.17648 0.07317 0.0
Co1 Co 0.13695 0.00874 0.10724 0.0
C2 C 0.18605 0.06841 0.07189 0.0
O3 O 0.17587 0.13402 0.06315 0.0
O4 O 0.1731 0.01688 0.08869 0.0
C5 C 0.1566 0.33021 0.05422 0.0
O6 O 0.17978 0.29868 0.05821 0.0
C7 C 0.13844 0.83769 0.10061 0.0
C8 C 0.11715 0.79624 0.14662 0.0
C9 C 0.12922 0.76997 0.11679 0.0
N10 N 0.13195 0.90073 0.11981 0.0
N11 N 0.11954 0.87561 0.14754 0.0
C12 C 0.1504 0.84397 0.06556 0.0
H13 H 0.1471 0.90369 0.05458 0.0
H14 H 0.14211 0.79857 0.048 0.0
H15 H 0.17172 0.83425 0.06767 0.0
C16 C 0.09349 0.11669 0.0364 0.0
N17 N 0.11354 0.10739 0.05849 0.0
N18 N 0.11148 0.03793 0.07359 0.0
C19 C 0.08982 0.00117 0.06183 0.0
C20 C 0.0777 0.0497 0.03785 0.0
C21 C 0.08876 0.19085 0.0164 0.0
H22 H 0.08707 0.24131 0.03452 0.0
H23 H 0.10578 0.20273 0.99953 0.0
H24 H 0.07076 0.18693 0.00062 0.0
O25 O 0.13756 0.19367 0.12303 0.0
O26 O 0.13387 0.07751 0.14898 0.0
H27 H 0.08092 0.91698 0.10137 0.0
H28 H 0.06169 0.90433 0.06278 0.0
C29 C 0.0812 0.92032 0.07288 0.0
H30 H 0.09518 0.8761 0.06301 0.0
H31 H 0.11195 0.91277 0.16646 0.0
O32 O 0.13658 0.28566 0.05542 0.0
C33 C 0.13482 0.15287 0.15025 0.0
Co34 Co 0.37874 0.81595 0.0775 0.0
Co35 Co 0.38141 0.9835 0.11203 0.0
C36 C 0.33323 0.92346 0.0744 0.0
O37 O 0.34362 0.85791 0.06601 0.0
O38 O 0.34577 0.97493 0.0918 0.0
C39 C 0.36368 0.66197 0.05653 0.0
O40 O 0.34027 0.69302 0.05815 0.0
C41 C 0.3805 0.15434 0.10448 0.0
C42 C 0.3992 0.19696 0.15227 0.0
C43 C 0.38878 0.2225 0.12123 0.0
N44 N 0.38592 0.09178 0.12456 0.0
N45 N 0.39679 0.1176 0.15331 0.0
C46 C 0.37039 0.14713 0.06844 0.0
H47 H 0.37417 0.08705 0.05813 0.0
H48 H 0.37962 0.19199 0.05147 0.0
H49 H 0.34902 0.15703 0.06848 0.0
C50 C 0.42705 0.87578 0.04375 0.0
N51 N 0.40604 0.88549 0.06413 0.0
N52 N 0.40773 0.95448 0.07972 0.0
C53 C 0.43014 0.99024 0.07017 0.0
C54 C 0.44309 0.94182 0.04701 0.0
C55 C 0.4327 0.80139 0.02438 0.0
H56 H 0.43716 0.75356 0.04302 0.0
H57 H 0.41513 0.78312 0.00965 0.0
H58 H 0.44949 0.80889 0.00666 0.0
O59 O 0.38064 0.79872 0.12755 0.0
O60 O 0.38361 0.91472 0.15386 0.0
H61 H 0.43781 0.06947 0.11207 0.0
H62 H 0.45971 0.08182 0.07604 0.0
C63 C 0.43934 0.06857 0.08362 0.0
H64 H 0.42681 0.11587 0.07301 0.0
H65 H 0.40331 0.08094 0.17312 0.0
O66 O 0.38348 0.70685 0.05992 0.0
C67 C 0.38273 0.83933 0.15495 0.0
Co68 Co 0.14011 0.29981 0.41984 0.0
Co69 Co 0.1346 0.46689 0.38572 0.0
C70 C 0.18409 0.41309 0.42219 0.0
O71 O 0.17486 0.3459 0.43083 0.0
O72 O 0.17054 0.46239 0.40509 0.0
C73 C 0.15607 0.14519 0.43842 0.0
O74 O 0.17943 0.17593 0.43436 0.0
C75 C 0.13377 0.63714 0.39457 0.0
C76 C 0.11567 0.68035 0.34657 0.0
C77 C 0.12566 0.70535 0.37797 0.0
N78 N 0.12885 0.57494 0.37402 0.0
N79 N 0.11821 0.60108 0.34521 0.0
C80 C 0.1438 0.62975 0.43062 0.0
H81 H 0.1401 0.56939 0.44075 0.0
H82 H 0.13449 0.67419 0.44764 0.0
H83 H 0.16516 0.64041 0.43071 0.0
C84 C 0.09199 0.35312 0.4555 0.0
N85 N 0.11227 0.36549 0.43413 0.0
N86 N 0.10936 0.43421 0.41874 0.0
C87 C 0.08691 0.46732 0.42949 0.0
C88 C 0.0752 0.41741 0.45336 0.0
C89 C 0.08873 0.28048 0.47705 0.0
H90 H 0.10801 0.26024 0.48649 0.0
H91 H 0.07563 0.2917 0.49923 0.0
H92 H 0.0802 0.23268 0.46096 0.0
O93 O 0.13774 0.28323 0.36979 0.0
O94 O 0.1325 0.39871 0.34375 0.0
H95 H 0.07916 0.54237 0.38618 0.0
H96 H 0.05404 0.54356 0.41849 0.0
C97 C 0.0754 0.54071 0.41424 0.0
H98 H 0.08461 0.59329 0.42631 0.0
H99 H 0.11219 0.56473 0.32497 0.0
O100 O 0.1363 0.19025 0.43713 0.0
C101 C 0.13453 0.32357 0.34252 0.0
Co102 Co 0.37281 0.69553 0.42417 0.0
Co103 Co 0.37913 0.52839 0.3915 0.0
C104 C 0.32842 0.58576 0.42438 0.0
O105 O 0.33766 0.6522 0.43401 0.0
O106 O 0.34233 0.53649 0.40782 0.0
C107 C 0.37347 0.85544 0.4628 0.0
O108 O 0.36776 0.83062 0.49394 0.0
C109 C 0.37926 0.35662 0.40051 0.0
C110 C 0.39731 0.31544 0.35216 0.0
C111 C 0.38712 0.28889 0.38317 0.0
N112 N 0.38494 0.41988 0.38084 0.0
N113 N 0.39569 0.39487 0.35196 0.0
C114 C 0.36589 0.36154 0.43473 0.0
H115 H 0.35693 0.42008 0.43868 0.0
H116 H 0.38036 0.35317 0.45563 0.0
H117 H 0.35079 0.3146 0.43695 0.0
C118 C 0.41964 0.64258 0.46372 0.0
N119 N 0.40027 0.63075 0.44076 0.0
N120 N 0.40353 0.56153 0.42587 0.0
C121 C 0.42535 0.5277 0.43849 0.0
C122 C 0.43619 0.57765 0.46307 0.0
C123 C 0.42317 0.71708 0.48396 0.0
H124 H 0.42242 0.76858 0.46633 0.0
H125 H 0.40692 0.72262 0.50261 0.0
H126 H 0.442 0.7179 0.49806 0.0
O127 O 0.37654 0.70888 0.37413 0.0
O128 O 0.38309 0.59347 0.34886 0.0
H129 H 0.43503 0.44449 0.39889 0.0
H130 H 0.45552 0.43755 0.4366 0.0
C131 C 0.43545 0.4487 0.42736 0.0
H132 H 0.42277 0.4017 0.43805 0.0
H133 H 0.40192 0.43202 0.33214 0.0
O134 O 0.37557 0.80672 0.43815 0.0
C135 C 0.3808 0.6684 0.34721 0.0
Co136 Co 0.87533 0.80641 0.92585 0.0
Co137 Co 0.87984 0.97325 0.89078 0.0
C138 C 0.83006 0.91505 0.92518 0.0
O139 O 0.84 0.84982 0.93493 0.0
O140 O 0.84338 0.96539 0.9082 0.0
C141 C 0.85896 0.65232 0.94319 0.0
O142 O 0.83598 0.68391 0.93755 0.0
C143 C 0.87813 0.14454 0.89723 0.0
C144 C 0.90012 0.18609 0.85185 0.0
C145 C 0.88755 0.21236 0.88131 0.0
N146 N 0.88498 0.08147 0.87824 0.0
N147 N 0.89781 0.10669 0.85087 0.0
C148 C 0.86566 0.13823 0.93197 0.0
H149 H 0.86882 0.07855 0.94305 0.0
H150 H 0.87366 0.1837 0.94972 0.0
H151 H 0.84436 0.14787 0.92932 0.0
C152 C 0.92216 0.86633 0.9632 0.0
N153 N 0.90234 0.87545 0.94074 0.0
N154 N 0.90469 0.94448 0.92533 0.0
C155 C 0.92628 0.98119 0.93733 0.0
C156 C 0.93809 0.93302 0.96173 0.0
C157 C 0.9266 0.79243 0.9835 0.0
H158 H 0.92818 0.74156 0.96558 0.0
H159 H 0.90949 0.78138 1.00032 0.0
H160 H 0.94456 0.79613 0.99936 0.0
O161 O 0.87896 0.78846 0.87618 0.0
O162 O 0.88358 0.9033 0.84938 0.0
H163 H 0.93594 0.06403 0.89756 0.0
H164 H 0.95446 0.07799 0.93669 0.0
C165 C 0.93515 0.06164 0.92605 0.0
H166 H 0.92101 0.1062 0.93518 0.0
H167 H 0.90574 0.06959 0.83217 0.0
O168 O 0.87898 0.69699 0.94369 0.0
C169 C 0.88233 0.8279 0.84872 0.0
Co170 Co 0.63663 0.16106 0.90867 0.0
Co171 Co 0.63485 0.99172 0.87697 0.0
C172 C 0.68259 0.05613 0.91435 0.0
O173 O 0.67184 0.12209 0.9212 0.0
O174 O 0.67043 0.00229 0.89779 0.0
C175 C 0.63217 0.32051 0.94759 0.0
O176 O 0.63497 0.29591 0.97944 0.0
C177 C 0.63635 0.82012 0.88332 0.0
C178 C 0.61606 0.78016 0.83617 0.0
C179 C 0.62753 0.75306 0.86626 0.0
N180 N 0.62985 0.88379 0.86456 0.0
N181 N 0.61789 0.85962 0.83629 0.0
C182 C 0.65222 0.82504 0.9156 0.0
H183 H 0.64305 0.8673 0.93376 0.0
H184 H 0.65506 0.76701 0.92816 0.0
H185 H 0.67171 0.8486 0.90887 0.0
C186 C 0.58793 0.10267 0.94285 0.0
N187 N 0.60922 0.09259 0.92295 0.0
N188 N 0.60818 0.02197 0.90867 0.0
C189 C 0.58608 0.9853 0.91885 0.0
C190 C 0.57259 0.03496 0.94086 0.0
C191 C 0.5814 0.17796 0.96102 0.0
H192 H 0.58278 0.22811 0.94271 0.0
H193 H 0.59583 0.18812 0.98185 0.0
H194 H 0.56153 0.17594 0.9723 0.0
O195 O 0.63496 0.17469 0.85845 0.0
O196 O 0.63282 0.05671 0.83408 0.0
H197 H 0.57769 0.90219 0.87873 0.0
H198 H 0.55798 0.88894 0.91682 0.0
C199 C 0.57768 0.90471 0.90724 0.0
H200 H 0.59161 0.8603 0.91716 0.0
H201 H 0.61064 0.89741 0.81735 0.0
O202 O 0.63247 0.27174 0.92279 0.0
C203 C 0.63331 0.13183 0.83171 0.0
Co204 Co 0.87981 0.66982 0.58089 0.0
Co205 Co 0.88431 0.50221 0.6156 0.0
C206 C 0.83532 0.56053 0.57776 0.0
O207 O 0.84467 0.62776 0.56932 0.0
O208 O 0.84861 0.51082 0.59509 0.0
C209 C 0.86974 0.82808 0.55322 0.0
O210 O 0.84667 0.8031 0.54325 0.0
C211 C 0.88005 0.32838 0.61411 0.0
C212 C 0.91004 0.29259 0.65175 0.0
C213 C 0.89271 0.2626 0.62756 0.0
N214 N 0.89023 0.39392 0.62861 0.0
N215 N 0.90772 0.3719 0.65167 0.0
C216 C 0.85672 0.32958 0.59097 0.0
H217 H 0.84158 0.36717 0.60288 0.0
H218 H 0.86217 0.3556 0.56575 0.0
H219 H 0.84796 0.27023 0.58734 0.0
C220 C 0.92697 0.61297 0.54474 0.0
N221 N 0.90702 0.60186 0.56674 0.0
N222 N 0.90975 0.53315 0.58221 0.0
C223 C 0.93176 0.49856 0.57065 0.0
C224 C 0.94341 0.54789 0.54643 0.0
C225 C 0.93016 0.6851 0.52285 0.0
H226 H 0.9108 0.70585 0.51388 0.0
H227 H 0.94283 0.67301 0.50032 0.0
H228 H 0.93913 0.7329 0.53851 0.0
O229 O 0.88171 0.68558 0.63078 0.0
O230 O 0.88659 0.57112 0.65753 0.0
H231 H 0.94471 0.43112 0.61371 0.0
H232 H 0.96249 0.41054 0.57517 0.0
C233 C 0.94289 0.42424 0.58548 0.0
H234 H 0.92954 0.37406 0.58 0.0
H235 H 0.91869 0.41117 0.66659 0.0
O236 O 0.88604 0.7795 0.56564 0.0
C237 C 0.88467 0.64627 0.65831 0.0
Co238 Co 0.63955 0.3859 0.58881 0.0
Co239 Co 0.63056 0.55307 0.62104 0.0
C240 C 0.68176 0.50504 0.5871 0.0
O241 O 0.67386 0.43638 0.57824 0.0
O242 O 0.66696 0.55206 0.60356 0.0
C243 C 0.65711 0.23107 0.57493 0.0
O244 O 0.67971 0.26223 0.58351 0.0
C245 C 0.62991 0.72364 0.61293 0.0
C246 C 0.60742 0.76484 0.65789 0.0
C247 C 0.62029 0.79107 0.62862 0.0
N248 N 0.62314 0.66056 0.63199 0.0
N249 N 0.60983 0.68549 0.65899 0.0
C250 C 0.64285 0.71798 0.57849 0.0
H251 H 0.64005 0.65813 0.56733 0.0
H252 H 0.63488 0.76309 0.56062 0.0
H253 H 0.66403 0.7291 0.58154 0.0
C254 C 0.59215 0.43176 0.54942 0.0
N255 N 0.61109 0.4469 0.57261 0.0
N256 N 0.60679 0.51618 0.58691 0.0
C257 C 0.5848 0.54711 0.5735 0.0
C258 C 0.57478 0.49474 0.54924 0.0
C259 C 0.59002 0.35599 0.5297 0.0
H260 H 0.58818 0.30607 0.54809 0.0
H261 H 0.60818 0.34675 0.51474 0.0
H262 H 0.57296 0.35557 0.51213 0.0
O263 O 0.63643 0.37049 0.63903 0.0
O264 O 0.62836 0.4864 0.66334 0.0
H265 H 0.5725 0.63095 0.61144 0.0
H266 H 0.55482 0.63785 0.57126 0.0
C267 C 0.57411 0.62646 0.58305 0.0
H268 H 0.58768 0.67304 0.57399 0.0
H269 H 0.60205 0.6483 0.67782 0.0
O270 O 0.63743 0.27594 0.57181 0.0
C271 C 0.63175 0.41189 0.66563 0.0
H272 H 0.21066 0.92698 0.06541 0.0
H273 H 0.22455 0.17876 0.0646 0.0
H274 H 0.27159 0.15622 0.06289 0.0
H275 H 0.30876 0.0649 0.06718 0.0
H276 H 0.29489 0.81312 0.06547 0.0
H277 H 0.24789 0.83568 0.0622 0.0
C278 C 0.22399 0.97686 0.0644 0.0
C279 C 0.21413 0.05439 0.06552 0.0
C280 C 0.25101 0.96347 0.06315 0.0
C281 C 0.23162 0.11848 0.06374 0.0
C282 C 0.25853 0.10565 0.06296 0.0
C283 C 0.29545 0.01502 0.06562 0.0
C284 C 0.30529 0.93747 0.06696 0.0
C285 C 0.26845 0.02842 0.0635 0.0
C286 C 0.28784 0.87339 0.06446 0.0
C287 C 0.26094 0.88624 0.0628 0.0
H288 H 0.30641 0.44016 0.43065 0.0
H289 H 0.28792 0.68889 0.43086 0.0
H290 H 0.24134 0.65732 0.43252 0.0
H291 H 0.20597 0.5589 0.42872 0.0
H292 H 0.22445 0.31024 0.43102 0.0
H293 H 0.27097 0.3419 0.43399 0.0
C294 C 0.29218 0.48744 0.43146 0.0
C295 C 0.30057 0.56675 0.43022 0.0
C296 C 0.26547 0.46886 0.43273 0.0
C297 C 0.28195 0.6274 0.43179 0.0
C298 C 0.25532 0.60938 0.43256 0.0
C299 C 0.22017 0.51168 0.43032 0.0
C300 C 0.21178 0.43235 0.42927 0.0
C301 C 0.24686 0.53033 0.43226 0.0
C302 C 0.23038 0.37177 0.43181 0.0
C303 C 0.257 0.38983 0.43331 0.0
H304 H 0.80511 0.05688 0.92489 0.0
H305 H 0.7916 0.80641 0.93717 0.0
H306 H 0.74455 0.82859 0.93744 0.0
H307 H 0.70732 0.91787 0.92894 0.0
H308 H 0.7207 0.16849 0.9182 0.0
H309 H 0.76773 0.14776 0.92317 0.0
C310 C 0.79189 0.00725 0.92807 0.0
C311 C 0.80189 0.93001 0.9306 0.0
C312 C 0.76483 0.02044 0.92832 0.0
C313 C 0.78447 0.86646 0.93516 0.0
C314 C 0.75753 0.87904 0.93513 0.0
C315 C 0.7205 0.96792 0.92789 0.0
C316 C 0.71053 0.04437 0.92262 0.0
C317 C 0.7475 0.95554 0.93087 0.0
C318 C 0.72786 0.10898 0.92221 0.0
C319 C 0.75477 0.09712 0.92484 0.0
H320 H 0.72276 0.41383 0.56608 0.0
H321 H 0.70234 0.65326 0.59333 0.0
H322 H 0.74772 0.69383 0.58819 0.0
H323 H 0.79393 0.65902 0.58182 0.0
H324 H 0.81488 0.41887 0.55769 0.0
H325 H 0.76884 0.38108 0.55553 0.0
C326 C 0.72817 0.4751 0.5704 0.0
C327 C 0.70905 0.5302 0.58018 0.0
C328 C 0.75456 0.49789 0.56827 0.0
C329 C 0.71654 0.60935 0.58583 0.0
C330 C 0.74257 0.63276 0.58297 0.0
C331 C 0.78835 0.59885 0.57538 0.0
C332 C 0.80772 0.54151 0.5704 0.0
C333 C 0.76184 0.57723 0.575 0.0
C334 C 0.80029 0.46359 0.56238 0.0
C335 C 0.77396 0.44204 0.56103 0.0
H336 H 0.03008 0.01502 0.06414 0.0
H337 H 0.07115 0.04681 0.96846 0.0
H338 H 0.03172 0.01066 0.93623 0.0
H339 H 0.98576 0.9671 0.93552 0.0
H340 H 0.94461 0.93584 0.03117 0.0
H341 H 0.98407 0.97165 0.06342 0.0
C342 C 0.0303 0.0138 0.03622 0.0
C343 C 0.05337 0.03304 0.01856 0.0
C344 C 1.0077 0.99186 0.01803 0.0
C345 C 0.0535 0.03243 0.98246 0.0
C346 C 0.03105 0.01126 0.96411 0.0
C347 C 0.98552 0.9684 0.96344 0.0
C348 C 0.96242 0.94939 0.98108 0.0
C349 C 0.00811 0.99034 0.98164 0.0
C350 C 0.96228 0.95003 0.01718 0.0
C351 C 0.98474 0.97103 0.03554 0.0
H352 H 0.45556 0.95939 0.97974 0.0
H353 H 0.48888 0.95501 0.0815 0.0
H354 H 0.53196 0.98708 0.05795 0.0
H355 H 0.56014 0.01753 0.0081 0.0
H356 H 0.52698 0.01982 0.90624 0.0
H357 H 0.48384 0.98831 0.92982 0.0
C358 C 0.47238 0.96485 0.99655 0.0
C359 C 0.46927 0.95509 0.03217 0.0
C360 C 0.49699 0.98372 0.9828 0.0
C361 C 0.49101 0.96256 0.05395 0.0
C362 C 0.51555 0.98109 0.04052 0.0
C363 C 0.54334 0.01161 0.99127 0.0
C364 C 0.54645 0.02109 0.95565 0.0
C365 C 0.51875 0.99237 0.00501 0.0
C366 C 0.52479 0.01281 0.93382 0.0
C367 C 0.50023 0.99455 0.94726 0.0
H368 H 0.05812 0.547 0.48726 0.0
H369 H 0.03475 0.3125 0.45624 0.0
H370 H 0.99153 0.33302 0.48138 0.0
H371 H 0.96013 0.41894 0.51137 0.0
H372 H 0.9839 0.65232 0.54348 0.0
H373 H 0.02689 0.63241 0.51767 0.0
C374 C 0.0435 0.50055 0.48605 0.0
C375 C 0.04954 0.42828 0.47013 0.0
C376 C 0.01868 0.51313 0.50026 0.0
C377 C 0.0306 0.36819 0.46884 0.0
C378 C 1.00585 0.38018 0.48292 0.0
C379 C 0.97482 0.46517 0.51278 0.0
C380 C 0.96895 0.53692 0.52927 0.0
C381 C 0.99965 0.45252 0.49858 0.0
C382 C 0.98792 0.59691 0.53058 0.0
C383 C 0.01255 0.58528 0.51611 0.0
H384 H 0.48528 0.54998 0.44014 0.0
H385 H 0.43997 0.57635 0.53271 0.0
H386 H 0.47876 0.5504 0.56782 0.0
H387 H 0.52558 0.51901 0.57198 0.0
H388 H 0.57095 0.4928 0.47948 0.0
H389 H 0.53204 0.51709 0.44431 0.0
C390 C 0.48397 0.54935 0.46801 0.0
C391 C 0.45991 0.56431 0.48397 0.0
C392 C 0.50626 0.53358 0.48788 0.0
C393 C 0.45838 0.565 0.52002 0.0
C394 C 0.48049 0.54981 0.54001 0.0
C395 C 0.52683 0.51877 0.5441 0.0
C396 C 0.55095 0.50458 0.52818 0.0
C397 C 0.5045 0.5338 0.52422 0.0
C398 C 0.55247 0.50334 0.49214 0.0
C399 C 0.53031 0.51769 0.47211 0.0
H400 H 0.13188 0.38572 0.27757 0.0
H401 H 0.13456 0.16386 0.33255 0.0
H402 H 0.13405 0.09154 0.27845 0.0
H403 H 0.13405 0.09039 0.21522 0.0
H404 H 0.13188 0.31229 0.16023 0.0
H405 H 0.1309 0.38448 0.21435 0.0
C406 C 0.13226 0.32159 0.27773 0.0
C407 C 0.13337 0.28071 0.30919 0.0
C408 C 0.13211 0.27986 0.24639 0.0
C409 C 0.13383 0.19735 0.3088 0.0
C410 C 0.13353 0.15561 0.27781 0.0
C411 C 0.13324 0.15448 0.21507 0.0
C412 C 0.13315 0.19545 0.1836 0.0
C413 C 0.13285 0.19617 0.24641 0.0
C414 C 0.1321 0.27877 0.18399 0.0
C415 C 0.13153 0.32042 0.215 0.0
H416 H 0.38373 0.60593 0.28225 0.0
H417 H 0.38209 0.82794 0.33724 0.0
H418 H 0.38326 0.90024 0.28319 0.0
H419 H 0.38344 0.90149 0.22 0.0
H420 H 0.38455 0.67964 0.16488 0.0
H421 H 0.38496 0.60727 0.21897 0.0
C422 C 0.38376 0.67007 0.28241 0.0
C423 C 0.38271 0.711 0.31387 0.0
C424 C 0.38426 0.71186 0.25108 0.0
C425 C 0.38275 0.7944 0.31349 0.0
C426 C 0.38343 0.83614 0.28252 0.0
C427 C 0.38387 0.83736 0.2198 0.0
C428 C 0.38385 0.79649 0.1883 0.0
C429 C 0.38396 0.79559 0.25112 0.0
C430 C 0.38443 0.71312 0.18866 0.0
C431 C 0.38468 0.67135 0.21965 0.0
H432 H 0.88433 0.88661 0.78308 0.0
H433 H 0.88499 0.66793 0.84053 0.0
H434 H 0.88653 0.59254 0.78729 0.0
H435 H 0.88637 0.58752 0.72404 0.0
H436 H 0.88522 0.80631 0.66669 0.0
H437 H 0.88528 0.8817 0.71991 0.0
C438 C 0.88494 0.82253 0.78397 0.0
C439 C 0.88442 0.78344 0.81587 0.0
C440 C 0.88566 0.77895 0.75312 0.0
C441 C 0.88523 0.70008 0.81641 0.0
C442 C 0.88612 0.65656 0.78591 0.0
C443 C 0.88624 0.65163 0.72319 0.0
C444 C 0.88567 0.69071 0.69128 0.0
C445 C 0.88612 0.69524 0.75406 0.0
C446 C 0.88552 0.77413 0.69078 0.0
C447 C 0.88557 0.81767 0.72129 0.0
H448 H 0.62944 0.28956 0.8192 0.0
H449 H 0.63452 0.0639 0.76749 0.0
H450 H 0.63399 0.13103 0.71172 0.0
H451 H 0.63309 0.25349 0.67789 0.0
H452 H 0.62773 0.47895 0.72972 0.0
H453 H 0.62729 0.4116 0.78539 0.0
C454 C 0.63041 0.25473 0.79578 0.0
C455 C 0.63216 0.17155 0.79764 0.0
C456 C 0.63008 0.29365 0.76387 0.0
C457 C 0.63321 0.12781 0.76691 0.0
C458 C 0.63294 0.16621 0.735 0.0
C459 C 0.6318 0.28817 0.70132 0.0
C460 C 0.63058 0.37145 0.69953 0.0
C461 C 0.63154 0.24909 0.73322 0.0
C462 C 0.62872 0.41498 0.73025 0.0
C463 C 0.62851 0.37647 0.76211 0.0
H464 H 0.16859 0.6941 0.08324 0.0
H465 H 0.09089 0.65977 0.12305 0.0
H466 H 0.09123 0.52244 0.10339 0.0
H467 H 0.11444 0.41066 0.07754 0.0
H468 H 0.19286 0.44359 0.03986 0.0
H469 H 0.19102 0.58397 0.05477 0.0
C470 C 0.15151 0.65717 0.0869 0.0
C471 C 0.12961 0.68739 0.10413 0.0
C472 C 0.15191 0.57822 0.07567 0.0
C473 C 0.10801 0.63778 0.10987 0.0
C474 C 0.10813 0.55943 0.09848 0.0
C475 C 0.13092 0.44889 0.07187 0.0
C476 C 0.15372 0.41687 0.05744 0.0
C477 C 0.13005 0.52884 0.08158 0.0
C478 C 0.17507 0.46693 0.05085 0.0
C479 C 0.17409 0.54705 0.05958 0.0
H480 H 0.35119 0.29737 0.08368 0.0
H481 H 0.42643 0.33347 0.13099 0.0
H482 H 0.42679 0.47083 0.11143 0.0
H483 H 0.4047 0.58221 0.08363 0.0
H484 H 0.32856 0.5478 0.03851 0.0
H485 H 0.33002 0.40726 0.05326 0.0
C486 C 0.36793 0.33468 0.08901 0.0
C487 C 0.38892 0.30494 0.10835 0.0
C488 C 0.36791 0.41374 0.07786 0.0
C489 C 0.41002 0.35506 0.11617 0.0
C490 C 0.4103 0.43345 0.10485 0.0
C491 C 0.38867 0.54365 0.07632 0.0
C492 C 0.3666 0.57531 0.05984 0.0
C493 C 0.38925 0.46362 0.08594 0.0
C494 C 0.34579 0.52477 0.05113 0.0
C495 C 0.34655 0.44455 0.05975 0.0
H496 H 0.11357 0.06637 0.41467 0.0
H497 H 0.19125 0.03024 0.45433 0.0
H498 H 0.18813 0.88913 0.44089 0.0
H499 H 0.16485 0.77896 0.41305 0.0
H500 H 0.0883 0.8172 0.37025 0.0
H501 H 0.08962 0.95518 0.38912 0.0
C502 C 0.12961 0.02735 0.42107 0.0
C503 C 0.15256 0.05858 0.43568 0.0
C504 C 0.12804 0.94704 0.4121 0.0
C505 C 0.17335 0.0075 0.44319 0.0
C506 C 0.17163 0.92696 0.43532 0.0
C507 C 0.14823 0.81699 0.40857 0.0
C508 C 0.12635 0.78776 0.39073 0.0
C509 C 0.1493 0.89645 0.41907 0.0
C510 C 0.10535 0.83852 0.38396 0.0
C511 C 0.10605 0.91724 0.39485 0.0
H512 H 0.37245 0.92172 0.3998 0.0
H513 H 0.38099 0.98006 0.50744 0.0
H514 H 0.38672 0.11999 0.49229 0.0
H515 H 0.39033 0.22376 0.4481 0.0
H516 H 0.37927 0.16372 0.34101 0.0
H517 H 0.3745 0.02474 0.3564 0.0
C518 C 0.3756 0.96478 0.42011 0.0
C519 C 0.3764 0.94046 0.45476 0.0
C520 C 0.37862 0.04439 0.41126 0.0
C521 C 0.38025 0.99733 0.48062 0.0
C522 C 0.38359 0.07716 0.47193 0.0
C523 C 0.38604 0.18109 0.42818 0.0
C524 C 0.38439 0.20488 0.39347 0.0
C525 C 0.38278 0.10128 0.4373 0.0
C526 C 0.38046 0.14726 0.36792 0.0
C527 C 0.37762 0.06781 0.37669 0.0
H528 H 0.90152 0.57205 0.92097 0.0
H529 H 0.82251 0.53884 0.95631 0.0
H530 H 0.82464 0.39845 0.94146 0.0
H531 H 0.8476 0.28823 0.91376 0.0
H532 H 0.9259 0.32286 0.87611 0.0
H533 H 0.92519 0.46022 0.89573 0.0
C534 C 0.88498 0.53372 0.92616 0.0
C535 C 0.86194 0.56566 0.93997 0.0
C536 C 0.88603 0.45374 0.91645 0.0
C537 C 0.84049 0.51554 0.94585 0.0
C538 C 0.84164 0.43541 0.93715 0.0
C539 C 0.86472 0.32524 0.91055 0.0
C540 C 0.88691 0.29504 0.89395 0.0
C541 C 0.8641 0.40427 0.92173 0.0
C542 C 0.90857 0.34478 0.8888 0.0
C543 C 0.90823 0.42318 0.90017 0.0
H544 H 0.618 0.68964 0.92971 0.0
H545 H 0.63953 0.62867 0.82574 0.0
H546 H 0.64245 0.48944 0.84193 0.0
H547 H 0.63975 0.38662 0.88534 0.0
H548 H 0.62041 0.44528 0.99042 0.0
H549 H 0.61664 0.58522 0.97432 0.0
C550 C 0.62405 0.64609 0.91089 0.0
C551 C 0.62938 0.66945 0.87682 0.0
C552 C 0.62613 0.56632 0.92057 0.0
C553 C 0.63567 0.612 0.85218 0.0
C554 C 0.6374 0.53259 0.86144 0.0
C555 C 0.63465 0.42974 0.90488 0.0
C556 C 0.63024 0.40552 0.93906 0.0
C557 C 0.63278 0.50931 0.89554 0.0
C558 C 0.62394 0.46249 0.96397 0.0
C559 C 0.62172 0.54231 0.95474 0.0
H560 H 0.88704 0.89154 0.61209 0.0
H561 H 0.86117 0.95354 0.51007 0.0
H562 H 0.86758 0.09452 0.52337 0.0
H563 H 0.88092 0.19868 0.56426 0.0
H564 H 0.90071 0.13534 0.66872 0.0
H565 H 0.89732 0.99541 0.65387 0.0
C566 C 0.88299 0.93603 0.5927 0.0
C567 C 0.87407 0.91278 0.55999 0.0
C568 C 0.88568 0.01623 0.60103 0.0
C569 C 0.86826 0.97054 0.5353 0.0
C570 C 0.87191 0.05082 0.54295 0.0
C571 C 0.88345 0.15467 0.58422 0.0
C572 C 0.89002 0.17791 0.618 0.0
C573 C 0.88042 0.0743 0.57586 0.0
C574 C 0.89522 0.1193 0.64269 0.0
C575 C 0.89325 0.03926 0.63425 0.0
H576 H 0.66287 0.86486 0.60184 0.0
H577 H 0.58265 0.90354 0.63017 0.0
H578 H 0.58611 0.04183 0.61209 0.0
H579 H 0.61257 0.15279 0.59105 0.0
H580 H 0.6936 0.11598 0.56609 0.0
H581 H 0.68899 0.97492 0.5789 0.0
C582 C 0.646 0.9031 0.60333 0.0
C583 C 0.62242 0.87392 0.61679 0.0
C584 C 0.64827 0.98261 0.59332 0.0
C585 C 0.60099 0.92487 0.61983 0.0
C586 C 0.60293 0.00373 0.60938 0.0
C587 C 0.62909 0.11363 0.58772 0.0
C588 C 0.65336 0.14458 0.57738 0.0
C589 C 0.62654 0.03337 0.59636 0.0
C590 C 0.67471 0.09339 0.57388 0.0
C591 C 0.67211 0.01291 0.58139 0.0
loop_
_geom_bond_atom_site_label_1
_geom_bond_atom_site_label_2
_geom_bond_distance
_geom_bond_site_symmetry_2
_ccdc_geom_bond_type
Co0 O3 1.970 . S
Co0 N17 1.989 . S
Co0 O25 1.967 . S
Co0 O32 1.920 . S
Co1 O4 1.966 1_565 S
Co1 N10 2.022 . S
Co1 N18 1.993 1_565 S
Co1 O26 1.941 1_565 S
C2 O3 1.258 . S
C2 O4 1.263 . S
O3 Co0 1.970 . S
O3 C2 1.258 . S
O4 Co1 1.966 1_545 S
O4 C2 1.263 . S
C5 O6 1.235 . S
C5 O32 1.289 . S
O6 C5 1.235 . S
C7 C9 1.400 . S
C7 N10 1.351 . S
C7 C12 1.501 . S
C8 C9 1.387 . S
C8 N11 1.341 . S
C9 C7 1.400 . S
C9 C8 1.387 . S
N10 Co1 2.022 . S
N10 C7 1.351 . S
N10 N11 1.365 . S
N11 C8 1.341 . S
N11 N10 1.365 . S
N11 H31 0.862 . S
C12 C7 1.501 . S
C12 H13 0.961 . S
C12 H14 0.961 . S
C12 H15 0.960 . S
H13 C12 0.961 . S
H14 C12 0.961 . S
H15 C12 0.960 . S
C16 N17 1.342 . S
C16 C20 1.401 . S
C16 C21 1.499 . S
N17 Co0 1.989 . S
N17 C16 1.342 . S
N17 N18 1.388 . S
N18 Co1 1.993 1_545 S
N18 N17 1.388 . S
N18 C19 1.346 1_545 S
C19 N18 1.346 1_565 S
C19 C20 1.396 1_565 S
C19 C29 1.510 . S
C20 C16 1.401 . S
C20 C19 1.396 1_545 S
C21 C16 1.499 . S
C21 H22 0.959 . S
C21 H23 0.960 . S
C21 H24 0.961 . S
H22 C21 0.959 . S
H23 C21 0.960 . S
H24 C21 0.961 . S
O25 Co0 1.967 . S
O25 C33 1.258 . S
O26 Co1 1.941 1_545 S
O26 C33 1.266 . S
H27 C29 0.959 . S
H28 C29 0.961 . S
C29 C19 1.510 . S
C29 H27 0.959 . S
C29 H28 0.961 . S
C29 H30 0.960 . S
H30 C29 0.960 . S
H31 N11 0.862 . S
O32 Co0 1.920 . S
O32 C5 1.289 . S
C33 O25 1.258 . S
C33 O26 1.266 . S
Co34 O37 1.970 . S
Co34 N51 1.989 . S
Co34 O59 1.967 . S
Co34 O66 1.920 . S
Co35 O38 1.966 1_545 S
Co35 N44 2.022 . S
Co35 N52 1.993 1_545 S
Co35 O60 1.941 1_545 S
C36 O37 1.258 . S
C36 O38 1.263 . S
O37 Co34 1.970 . S
O37 C36 1.258 . S
O38 Co35 1.966 1_565 S
O38 C36 1.263 . S
C39 O40 1.235 . S
C39 O66 1.289 . S
O40 C39 1.235 . S
C41 C43 1.400 . S
C41 N44 1.351 . S
C41 C46 1.501 . S
C42 C43 1.387 . S
C42 N45 1.341 . S
C43 C41 1.400 . S
C43 C42 1.387 . S
N44 Co35 2.022 . S
N44 C41 1.351 . S
N44 N45 1.365 . S
N45 C42 1.341 . S
N45 N44 1.365 . S
N45 H65 0.862 . S
C46 C41 1.501 . S
C46 H47 0.961 . S
C46 H48 0.961 . S
C46 H49 0.960 . S
H47 C46 0.961 . S
H48 C46 0.961 . S
H49 C46 0.960 . S
C50 N51 1.342 . S
C50 C54 1.401 . S
C50 C55 1.499 . S
N51 Co34 1.989 . S
N51 C50 1.342 . S
N51 N52 1.388 . S
N52 Co35 1.993 1_565 S
N52 N51 1.388 . S
N52 C53 1.346 1_565 S
C53 N52 1.346 1_545 S
C53 C54 1.396 1_545 S
C53 C63 1.510 . S
C54 C50 1.401 . S
C54 C53 1.396 1_565 S
C55 C50 1.499 . S
C55 H56 0.959 . S
C55 H57 0.960 . S
C55 H58 0.961 . S
H56 C55 0.959 . S
H57 C55 0.960 . S
H58 C55 0.961 . S
O59 Co34 1.967 . S
O59 C67 1.258 . S
O60 Co35 1.941 1_565 S
O60 C67 1.266 . S
H61 C63 0.959 . S
H62 C63 0.961 . S
C63 C53 1.510 . S
C63 H61 0.959 . S
C63 H62 0.961 . S
C63 H64 0.960 . S
H64 C63 0.960 . S
H65 N45 0.862 . S
O66 Co34 1.920 . S
O66 C39 1.289 . S
C67 O59 1.258 . S
C67 O60 1.266 . S
Co68 O71 1.970 . S
Co68 N85 1.989 . S
Co68 O93 1.967 . S
Co68 O100 1.920 . S
Co69 O72 1.966 . S
Co69 N78 2.022 . S
Co69 N86 1.993 . S
Co69 O94 1.941 . S
C70 O71 1.258 . S
C70 O72 1.263 . S
O71 Co68 1.970 . S
O71 C70 1.258 . S
O72 Co69 1.966 . S
O72 C70 1.263 . S
C73 O74 1.235 . S
C73 O100 1.289 . S
O74 C73 1.235 . S
C75 C77 1.400 . S
C75 N78 1.351 . S
C75 C80 1.501 . S
C76 C77 1.387 . S
C76 N79 1.341 . S
C77 C75 1.400 . S
C77 C76 1.387 . S
N78 Co69 2.022 . S
N78 C75 1.351 . S
N78 N79 1.365 . S
N79 C76 1.341 . S
N79 N78 1.365 . S
N79 H99 0.862 . S
C80 C75 1.501 . S
C80 H81 0.961 . S
C80 H82 0.961 . S
C80 H83 0.960 . S
H81 C80 0.961 . S
H82 C80 0.961 . S
H83 C80 0.960 . S
C84 N85 1.342 . S
C84 C88 1.401 . S
C84 C89 1.499 . S
N85 Co68 1.989 . S
N85 C84 1.342 . S
N85 N86 1.388 . S
N86 Co69 1.993 . S
N86 N85 1.388 . S
N86 C87 1.346 . S
C87 N86 1.346 . S
C87 C88 1.396 . S
C87 C97 1.510 . S
C88 C84 1.401 . S
C88 C87 1.396 . S
C89 C84 1.499 . S
C89 H90 0.959 . S
C89 H91 0.960 . S
C89 H92 0.961 . S
H90 C89 0.959 . S
H91 C89 0.960 . S
H92 C89 0.961 . S
O93 Co68 1.967 . S
O93 C101 1.258 . S
O94 Co69 1.941 . S
O94 C101 1.266 . S
H95 C97 0.959 . S
H96 C97 0.961 . S
C97 C87 1.510 . S
C97 H95 0.959 . S
C97 H96 0.961 . S
C97 H98 0.960 . S
H98 C97 0.960 . S
H99 N79 0.862 . S
O100 Co68 1.920 . S
O100 C73 1.289 . S
C101 O93 1.258 . S
C101 O94 1.266 . S
Co102 O105 1.970 . S
Co102 N119 1.989 . S
Co102 O127 1.967 . S
Co102 O134 1.920 . S
Co103 O106 1.966 . S
Co103 N112 2.022 . S
Co103 N120 1.993 . S
Co103 O128 1.941 . S
C104 O105 1.258 . S
C104 O106 1.263 . S
O105 Co102 1.970 . S
O105 C104 1.258 . S
O106 Co103 1.966 . S
O106 C104 1.263 . S
C107 O108 1.235 . S
C107 O134 1.289 . S
O108 C107 1.235 . S
C109 C111 1.400 . S
C109 N112 1.351 . S
C109 C114 1.501 . S
C110 C111 1.387 . S
C110 N113 1.341 . S
C111 C109 1.400 . S
C111 C110 1.387 . S
N112 Co103 2.022 . S
N112 C109 1.351 . S
N112 N113 1.365 . S
N113 C110 1.341 . S
N113 N112 1.365 . S
N113 H133 0.862 . S
C114 C109 1.501 . S
C114 H115 0.961 . S
C114 H116 0.961 . S
C114 H117 0.960 . S
H115 C114 0.961 . S
H116 C114 0.961 . S
H117 C114 0.960 . S
C118 N119 1.342 . S
C118 C122 1.401 . S
C118 C123 1.499 . S
N119 Co102 1.989 . S
N119 C118 1.342 . S
N119 N120 1.388 . S
N120 Co103 1.993 . S
N120 N119 1.388 . S
N120 C121 1.346 . S
C121 N120 1.346 . S
C121 C122 1.396 . S
C121 C131 1.510 . S
C122 C118 1.401 . S
C122 C121 1.396 . S
C123 C118 1.499 . S
C123 H124 0.959 . S
C123 H125 0.960 . S
C123 H126 0.961 . S
H124 C123 0.959 . S
H125 C123 0.960 . S
H126 C123 0.961 . S
O127 Co102 1.967 . S
O127 C135 1.258 . S
O128 Co103 1.941 . S
O128 C135 1.266 . S
H129 C131 0.959 . S
H130 C131 0.961 . S
C131 C121 1.510 . S
C131 H129 0.959 . S
C131 H130 0.961 . S
C131 H132 0.960 . S
H132 C131 0.960 . S
H133 N113 0.862 . S
O134 Co102 1.920 . S
O134 C107 1.289 . S
C135 O127 1.258 . S
C135 O128 1.266 . S
Co136 O139 1.970 . S
Co136 N153 1.989 . S
Co136 O161 1.967 . S
Co136 O168 1.920 . S
Co137 O140 1.966 1_545 S
Co137 N146 2.022 . S
Co137 N154 1.993 1_545 S
Co137 O162 1.941 1_545 S
C138 O139 1.258 . S
C138 O140 1.263 . S
O139 Co136 1.970 . S
O139 C138 1.258 . S
O140 Co137 1.966 1_565 S
O140 C138 1.263 . S
C141 O142 1.235 . S
C141 O168 1.289 . S
O142 C141 1.235 . S
C143 C145 1.400 . S
C143 N146 1.351 . S
C143 C148 1.501 . S
C144 C145 1.387 . S
C144 N147 1.341 . S
C145 C143 1.400 . S
C145 C144 1.387 . S
N146 Co137 2.022 . S
N146 C143 1.351 . S
N146 N147 1.365 . S
N147 C144 1.341 . S
N147 N146 1.365 . S
N147 H167 0.862 . S
C148 C143 1.501 . S
C148 H149 0.961 . S
C148 H150 0.961 . S
C148 H151 0.960 . S
H149 C148 0.961 . S
H150 C148 0.961 . S
H151 C148 0.960 . S
C152 N153 1.342 . S
C152 C156 1.401 . S
C152 C157 1.499 . S
N153 Co136 1.989 . S
N153 C152 1.342 . S
N153 N154 1.388 . S
N154 Co137 1.993 1_565 S
N154 N153 1.388 . S
N154 C155 1.346 1_565 S
C155 N154 1.346 1_545 S
C155 C156 1.396 1_545 S
C155 C165 1.510 . S
C156 C152 1.401 . S
C156 C155 1.396 1_565 S
C157 C152 1.499 . S
C157 H158 0.959 . S
C157 H159 0.960 . S
C157 H160 0.961 . S
H158 C157 0.959 . S
H159 C157 0.960 . S
H160 C157 0.961 . S
O161 Co136 1.967 . S
O161 C169 1.258 . S
O162 Co137 1.941 1_565 S
O162 C169 1.266 . S
H163 C165 0.959 . S
H164 C165 0.961 . S
C165 C155 1.510 . S
C165 H163 0.959 . S
C165 H164 0.961 . S
C165 H166 0.960 . S
H166 C165 0.960 . S
H167 N147 0.862 . S
O168 Co136 1.920 . S
O168 C141 1.289 . S
C169 O161 1.258 . S
C169 O162 1.266 . S
Co170 O173 1.970 . S
Co170 N187 1.989 . S
Co170 O195 1.967 . S
Co170 O202 1.920 . S
Co171 O174 1.966 1_565 S
Co171 N180 2.022 . S
Co171 N188 1.993 1_565 S
Co171 O196 1.941 1_565 S
C172 O173 1.258 . S
C172 O174 1.263 . S
O173 Co170 1.970 . S
O173 C172 1.258 . S
O174 Co171 1.966 1_545 S
O174 C172 1.263 . S
C175 O176 1.235 . S
C175 O202 1.289 . S
O176 C175 1.235 . S
C177 C179 1.400 . S
C177 N180 1.351 . S
C177 C182 1.501 . S
C178 C179 1.387 . S
C178 N181 1.341 . S
C179 C177 1.400 . S
C179 C178 1.387 . S
N180 Co171 2.022 . S
N180 C177 1.351 . S
N180 N181 1.365 . S
N181 C178 1.341 . S
N181 N180 1.365 . S
N181 H201 0.862 . S
C182 C177 1.501 . S
C182 H183 0.961 . S
C182 H184 0.961 . S
C182 H185 0.960 . S
H183 C182 0.961 . S
H184 C182 0.961 . S
H185 C182 0.960 . S
C186 N187 1.342 . S
C186 C190 1.401 . S
C186 C191 1.499 . S
N187 Co170 1.989 . S
N187 C186 1.342 . S
N187 N188 1.388 . S
N188 Co171 1.993 1_545 S
N188 N187 1.388 . S
N188 C189 1.346 1_545 S
C189 N188 1.346 1_565 S
C189 C190 1.396 1_565 S
C189 C199 1.510 . S
C190 C186 1.401 . S
C190 C189 1.396 1_545 S
C191 C186 1.499 . S
C191 H192 0.959 . S
C191 H193 0.960 . S
C191 H194 0.961 . S
H192 C191 0.959 . S
H193 C191 0.960 . S
H194 C191 0.961 . S
O195 Co170 1.967 . S
O195 C203 1.258 . S
O196 Co171 1.941 1_545 S
O196 C203 1.266 . S
H197 C199 0.959 . S
H198 C199 0.961 . S
C199 C189 1.510 . S
C199 H197 0.959 . S
C199 H198 0.961 . S
C199 H200 0.960 . S
H200 C199 0.960 . S
H201 N181 0.862 . S
O202 Co170 1.920 . S
O202 C175 1.289 . S
C203 O195 1.258 . S
C203 O196 1.266 . S
Co204 O207 1.970 . S
Co204 N221 1.989 . S
Co204 O229 1.967 . S
Co204 O236 1.920 . S
Co205 O208 1.966 . S
Co205 N214 2.022 . S
Co205 N222 1.993 . S
Co205 O230 1.941 . S
C206 O207 1.258 . S
C206 O208 1.263 . S
O207 Co204 1.970 . S
O207 C206 1.258 . S
O208 Co205 1.966 . S
O208 C206 1.263 . S
C209 O210 1.235 . S
C209 O236 1.289 . S
O210 C209 1.235 . S
C211 C213 1.400 . S
C211 N214 1.351 . S
C211 C216 1.501 . S
C212 C213 1.387 . S
C212 N215 1.341 . S
C213 C211 1.400 . S
C213 C212 1.387 . S
N214 Co205 2.022 . S
N214 C211 1.351 . S
N214 N215 1.365 . S
N215 C212 1.341 . S
N215 N214 1.365 . S
N215 H235 0.862 . S
C216 C211 1.501 . S
C216 H217 0.961 . S
C216 H218 0.961 . S
C216 H219 0.960 . S
H217 C216 0.961 . S
H218 C216 0.961 . S
H219 C216 0.960 . S
C220 N221 1.342 . S
C220 C224 1.401 . S
C220 C225 1.499 . S
N221 Co204 1.989 . S
N221 C220 1.342 . S
N221 N222 1.388 . S
N222 Co205 1.993 . S
N222 N221 1.388 . S
N222 C223 1.346 . S
C223 N222 1.346 . S
C223 C224 1.396 . S
C223 C233 1.510 . S
C224 C220 1.401 . S
C224 C223 1.396 . S
C225 C220 1.499 . S
C225 H226 0.959 . S
C225 H227 0.960 . S
C225 H228 0.961 . S
H226 C225 0.959 . S
H227 C225 0.960 . S
H228 C225 0.961 . S
O229 Co204 1.967 . S
O229 C237 1.258 . S
O230 Co205 1.941 . S
O230 C237 1.266 . S
H231 C233 0.959 . S
H232 C233 0.961 . S
C233 C223 1.510 . S
C233 H231 0.959 . S
C233 H232 0.961 . S
C233 H234 0.960 . S
H234 C233 0.960 . S
H235 N215 0.862 . S
O236 Co204 1.920 . S
O236 C209 1.289 . S
C237 O229 1.258 . S
C237 O230 1.266 . S
Co238 O241 1.970 . S
Co238 N255 1.989 . S
Co238 O263 1.967 . S
Co238 O270 1.920 . S
Co239 O242 1.966 . S
Co239 N248 2.022 . S
Co239 N256 1.993 . S
Co239 O264 1.941 . S
C240 O241 1.258 . S
C240 O242 1.263 . S
O241 Co238 1.970 . S
O241 C240 1.258 . S
O242 Co239 1.966 . S
O242 C240 1.263 . S
C243 O244 1.235 . S
C243 O270 1.289 . S
O244 C243 1.235 . S
C245 C247 1.400 . S
C245 N248 1.351 . S
C245 C250 1.501 . S
C246 C247 1.387 . S
C246 N249 1.341 . S
C247 C245 1.400 . S
C247 C246 1.387 . S
N248 Co239 2.022 . S
N248 C245 1.351 . S
N248 N249 1.365 . S
N249 C246 1.341 . S
N249 N248 1.365 . S
N249 H269 0.862 . S
C250 C245 1.501 . S
C250 H251 0.961 . S
C250 H252 0.961 . S
C250 H253 0.960 . S
H251 C250 0.961 . S
H252 C250 0.961 . S
H253 C250 0.960 . S
C254 N255 1.342 . S
C254 C258 1.401 . S
C254 C259 1.499 . S
N255 Co238 1.989 . S
N255 C254 1.342 . S
N255 N256 1.388 . S
N256 Co239 1.993 . S
N256 N255 1.388 . S
N256 C257 1.346 . S
C257 N256 1.346 . S
C257 C258 1.396 . S
C257 C267 1.510 . S
C258 C254 1.401 . S
C258 C257 1.396 . S
C259 C254 1.499 . S
C259 H260 0.959 . S
C259 H261 0.960 . S
C259 H262 0.961 . S
H260 C259 0.959 . S
H261 C259 0.960 . S
H262 C259 0.961 . S
O263 Co238 1.967 . S
O263 C271 1.258 . S
O264 Co239 1.941 . S
O264 C271 1.266 . S
H265 C267 0.959 . S
H266 C267 0.961 . S
C267 C257 1.510 . S
C267 H265 0.959 . S
C267 H266 0.961 . S
C267 H268 0.960 . S
H268 C267 0.960 . S
H269 N249 0.862 . S
O270 Co238 1.920 . S
O270 C243 1.289 . S
C271 O263 1.258 . S
C271 O264 1.266 . S
H272 C278 0.930 . S
H273 C281 0.930 . S
H274 C282 0.930 . S
H275 C283 0.930 . S
H276 C286 0.930 . S
H277 C287 0.930 . S
C278 H272 0.930 . S
C278 C279 1.355 . S
C278 C280 1.415 1_545 S
C279 C278 1.355 . S
C279 C281 1.419 . S
C280 C278 1.415 1_565 S
C280 C285 1.425 1_565 S
C280 C287 1.409 . S
C281 H273 0.930 . S
C281 C279 1.419 . S
C281 C282 1.362 . S
C282 H274 0.930 . S
C282 C281 1.362 . S
C282 C285 1.409 . S
C283 H275 0.930 . S
C283 C284 1.355 . S
C283 C285 1.415 1_565 S
C284 C283 1.355 . S
C284 C286 1.419 . S
C285 C280 1.425 1_545 S
C285 C282 1.409 . S
C285 C283 1.415 1_545 S
C286 H276 0.930 . S
C286 C284 1.419 . S
C286 C287 1.362 . S
C287 H277 0.930 . S
C287 C280 1.409 . S
C287 C286 1.362 . S
H288 C294 0.930 . S
H289 C297 0.930 . S
H290 C298 0.930 . S
H291 C299 0.930 . S
H292 C302 0.930 . S
H293 C303 0.930 . S
C294 H288 0.930 . S
C294 C295 1.355 . S
C294 C296 1.415 . S
C295 C294 1.355 . S
C295 C297 1.419 . S
C296 C294 1.415 . S
C296 C301 1.425 . S
C296 C303 1.409 . S
C297 H289 0.930 . S
C297 C295 1.419 . S
C297 C298 1.362 . S
C298 H290 0.930 . S
C298 C297 1.362 . S
C298 C301 1.409 . S
C299 H291 0.930 . S
C299 C300 1.355 . S
C299 C301 1.415 . S
C300 C299 1.355 . S
C300 C302 1.419 . S
C301 C296 1.425 . S
C301 C298 1.409 . S
C301 C299 1.415 . S
C302 H292 0.930 . S
C302 C300 1.419 . S
C302 C303 1.362 . S
C303 H293 0.930 . S
C303 C296 1.409 . S
C303 C302 1.362 . S
H304 C310 0.930 . S
H305 C313 0.930 . S
H306 C314 0.930 . S
H307 C315 0.930 . S
H308 C318 0.930 . S
H309 C319 0.930 . S
C310 H304 0.930 . S
C310 C311 1.355 1_545 S
C310 C312 1.415 . S
C311 C310 1.355 1_565 S
C311 C313 1.419 . S
C312 C310 1.415 . S
C312 C317 1.425 1_545 S
C312 C319 1.409 . S
C313 H305 0.930 . S
C313 C311 1.419 . S
C313 C314 1.362 . S
C314 H306 0.930 . S
C314 C313 1.362 . S
C314 C317 1.409 . S
C315 H307 0.930 . S
C315 C316 1.355 1_565 S
C315 C317 1.415 . S
C316 C315 1.355 1_545 S
C316 C318 1.419 . S
C317 C312 1.425 1_565 S
C317 C314 1.409 . S
C317 C315 1.415 . S
C318 H308 0.930 . S
C318 C316 1.419 . S
C318 C319 1.362 . S
C319 H309 0.930 . S
C319 C312 1.409 . S
C319 C318 1.362 . S
H320 C326 0.930 . S
H321 C329 0.930 . S
H322 C330 0.930 . S
H323 C331 0.930 . S
H324 C334 0.930 . S
H325 C335 0.930 . S
C326 H320 0.930 . S
C326 C327 1.355 . S
C326 C328 1.415 . S
C327 C326 1.355 . S
C327 C329 1.419 . S
C328 C326 1.415 . S
C328 C333 1.425 . S
C328 C335 1.409 . S
C329 H321 0.930 . S
C329 C327 1.419 . S
C329 C330 1.362 . S
C330 H322 0.930 . S
C330 C329 1.362 . S
C330 C333 1.409 . S
C331 H323 0.930 . S
C331 C332 1.355 . S
C331 C333 1.415 . S
C332 C331 1.355 . S
C332 C334 1.419 . S
C333 C328 1.425 . S
C333 C330 1.409 . S
C333 C331 1.415 . S
C334 H324 0.930 . S
C334 C332 1.419 . S
C334 C335 1.362 . S
C335 H325 0.930 . S
C335 C328 1.409 . S
C335 C334 1.362 . S
H336 C342 0.930 . S
H337 C345 0.930 . S
H338 C346 0.930 . S
H339 C347 0.930 . S
H340 C350 0.930 . S
H341 C351 0.930 . S
C342 H336 0.930 . S
C342 C343 1.355 . S
C342 C344 1.415 1_455 S
C343 C342 1.355 . S
C343 C345 1.419 1_544 S
C344 C342 1.415 1_655 S
C344 C349 1.425 1_644 S
C344 C351 1.409 . S
C345 H337 0.930 . S
C345 C343 1.419 1_566 S
C345 C346 1.362 . S
C346 H338 0.930 . S
C346 C345 1.362 . S
C346 C349 1.409 . S
C347 H339 0.930 . S
C347 C348 1.355 . S
C347 C349 1.415 1_655 S
C348 C347 1.355 . S
C348 C350 1.419 1_566 S
C349 C344 1.425 1_466 S
C349 C346 1.409 . S
C349 C347 1.415 1_455 S
C350 H340 0.930 . S
C350 C348 1.419 1_544 S
C350 C351 1.362 . S
C351 H341 0.930 . S
C351 C344 1.409 . S
C351 C350 1.362 . S
H352 C358 0.930 1_556 S
H353 C361 0.930 . S
H354 C362 0.930 . S
H355 C363 0.930 1_554 S
H356 C366 0.930 . S
H357 C367 0.930 . S
C358 H352 0.930 1_554 S
C358 C359 1.355 . S
C358 C360 1.415 1_554 S
C359 C358 1.355 . S
C359 C361 1.419 1_565 S
C360 C358 1.415 1_556 S
C360 C365 1.425 1_566 S
C360 C367 1.409 . S
C361 H353 0.930 . S
C361 C359 1.419 1_545 S
C361 C362 1.362 . S
C362 H354 0.930 . S
C362 C361 1.362 . S
C362 C365 1.409 . S
C363 H355 0.930 1_556 S
C363 C364 1.355 . S
C363 C365 1.415 1_556 S
C364 C363 1.355 . S
C364 C366 1.419 1_545 S
C365 C360 1.425 1_544 S
C365 C362 1.409 . S
C365 C363 1.415 1_554 S
C366 H356 0.930 . S
C366 C364 1.419 1_565 S
C366 C367 1.362 . S
C367 H357 0.930 . S
C367 C360 1.409 . S
C367 C366 1.362 . S
H368 C374 0.930 . S
H369 C377 0.930 . S
H370 C378 0.930 . S
H371 C379 0.930 . S
H372 C382 0.930 . S
H373 C383 0.930 . S
C374 H368 0.930 . S
C374 C375 1.355 . S
C374 C376 1.415 . S
C375 C374 1.355 . S
C375 C377 1.419 . S
C376 C374 1.415 . S
C376 C381 1.425 1_455 S
C376 C383 1.409 . S
C377 H369 0.930 . S
C377 C375 1.419 . S
C377 C378 1.362 1_455 S
C378 H370 0.930 . S
C378 C377 1.362 1_655 S
C378 C381 1.409 . S
C379 H371 0.930 . S
C379 C380 1.355 . S
C379 C381 1.415 . S
C380 C379 1.355 . S
C380 C382 1.419 . S
C381 C376 1.425 1_655 S
C381 C378 1.409 . S
C381 C379 1.415 . S
C382 H372 0.930 . S
C382 C380 1.419 . S
C382 C383 1.362 1_655 S
C383 H373 0.930 . S
C383 C376 1.409 . S
C383 C382 1.362 1_455 S
H384 C390 0.930 . S
H385 C393 0.930 . S
H386 C394 0.930 . S
H387 C395 0.930 . S
H388 C398 0.930 . S
H389 C399 0.930 . S
C390 H384 0.930 . S
C390 C391 1.355 . S
C390 C392 1.415 . S
C391 C390 1.355 . S
C391 C393 1.419 . S
C392 C390 1.415 . S
C392 C397 1.425 . S
C392 C399 1.409 . S
C393 H385 0.930 . S
C393 C391 1.419 . S
C393 C394 1.362 . S
C394 H386 0.930 . S
C394 C393 1.362 . S
C394 C397 1.409 . S
C395 H387 0.930 . S
C395 C396 1.355 . S
C395 C397 1.415 . S
C396 C395 1.355 . S
C396 C398 1.419 . S
C397 C392 1.425 . S
C397 C394 1.409 . S
C397 C395 1.415 . S
C398 H388 0.930 . S
C398 C396 1.419 . S
C398 C399 1.362 . S
C399 H389 0.930 . S
C399 C392 1.409 . S
C399 C398 1.362 . S
H400 C406 0.930 . S
H401 C409 0.930 . S
H402 C410 0.930 . S
H403 C411 0.930 . S
H404 C414 0.930 . S
H405 C415 0.930 . S
C406 H400 0.930 . S
C406 C407 1.355 . S
C406 C408 1.415 . S
C407 C406 1.355 . S
C407 C409 1.419 . S
C408 C406 1.415 . S
C408 C413 1.425 . S
C408 C415 1.409 . S
C409 H401 0.930 . S
C409 C407 1.419 . S
C409 C410 1.362 . S
C410 H402 0.930 . S
C410 C409 1.362 . S
C410 C413 1.409 . S
C411 H403 0.930 . S
C411 C412 1.355 . S
C411 C413 1.415 . S
C412 C411 1.355 . S
C412 C414 1.419 . S
C413 C408 1.425 . S
C413 C410 1.409 . S
C413 C411 1.415 . S
C414 H404 0.930 . S
C414 C412 1.419 . S
C414 C415 1.362 . S
C415 H405 0.930 . S
C415 C408 1.409 . S
C415 C414 1.362 . S
H416 C422 0.930 . S
H417 C425 0.930 . S
H418 C426 0.930 . S
H419 C427 0.930 . S
H420 C430 0.930 . S
H421 C431 0.930 . S
C422 H416 0.930 . S
C422 C423 1.355 . S
C422 C424 1.415 . S
C423 C422 1.355 . S
C423 C425 1.419 . S
C424 C422 1.415 . S
C424 C429 1.425 . S
C424 C431 1.409 . S
C425 H417 0.930 . S
C425 C423 1.419 . S
C425 C426 1.362 . S
C426 H418 0.930 . S
C426 C425 1.362 . S
C426 C429 1.409 . S
C427 H419 0.930 . S
C427 C428 1.355 . S
C427 C429 1.415 . S
C428 C427 1.355 . S
C428 C430 1.419 . S
C429 C424 1.425 . S
C429 C426 1.409 . S
C429 C427 1.415 . S
C430 H420 0.930 . S
C430 C428 1.419 . S
C430 C431 1.362 . S
C431 H421 0.930 . S
C431 C424 1.409 . S
C431 C430 1.362 . S
H432 C438 0.930 . S
H433 C441 0.930 . S
H434 C442 0.930 . S
H435 C443 0.930 . S
H436 C446 0.930 . S
H437 C447 0.930 . S
C438 H432 0.930 . S
C438 C439 1.355 . S
C438 C440 1.415 . S
C439 C438 1.355 . S
C439 C441 1.419 . S
C440 C438 1.415 . S
C440 C445 1.425 . S
C440 C447 1.409 . S
C441 H433 0.930 . S
C441 C439 1.419 . S
C441 C442 1.362 . S
C442 H434 0.930 . S
C442 C441 1.362 . S
C442 C445 1.409 . S
C443 H435 0.930 . S
C443 C444 1.355 . S
C443 C445 1.415 . S
C444 C443 1.355 . S
C444 C446 1.419 . S
C445 C440 1.425 . S
C445 C442 1.409 . S
C445 C443 1.415 . S
C446 H436 0.930 . S
C446 C444 1.419 . S
C446 C447 1.362 . S
C447 H437 0.930 . S
C447 C440 1.409 . S
C447 C446 1.362 . S
H448 C454 0.930 . S
H449 C457 0.930 . S
H450 C458 0.930 . S
H451 C459 0.930 . S
H452 C462 0.930 . S
H453 C463 0.930 . S
C454 H448 0.930 . S
C454 C455 1.355 . S
C454 C456 1.415 . S
C455 C454 1.355 . S
C455 C457 1.419 . S
C456 C454 1.415 . S
C456 C461 1.425 . S
C456 C463 1.409 . S
C457 H449 0.930 . S
C457 C455 1.419 . S
C457 C458 1.362 . S
C458 H450 0.930 . S
C458 C457 1.362 . S
C458 C461 1.409 . S
C459 H451 0.930 . S
C459 C460 1.355 . S
C459 C461 1.415 . S
C460 C459 1.355 . S
C460 C462 1.419 . S
C461 C456 1.425 . S
C461 C458 1.409 . S
C461 C459 1.415 . S
C462 H452 0.930 . S
C462 C460 1.419 . S
C462 C463 1.362 . S
C463 H453 0.930 . S
C463 C456 1.409 . S
C463 C462 1.362 . S
H464 C470 0.930 . S
H465 C473 0.930 . S
H466 C474 0.930 . S
H467 C475 0.930 . S
H468 C478 0.930 . S
H469 C479 0.930 . S
C470 H464 0.930 . S
C470 C471 1.355 . S
C470 C472 1.415 . S
C471 C470 1.355 . S
C471 C473 1.419 . S
C472 C470 1.415 . S
C472 C477 1.425 . S
C472 C479 1.409 . S
C473 H465 0.930 . S
C473 C471 1.419 . S
C473 C474 1.362 . S
C474 H466 0.930 . S
C474 C473 1.362 . S
C474 C477 1.409 . S
C475 H467 0.930 . S
C475 C476 1.355 . S
C475 C477 1.415 . S
C476 C475 1.355 . S
C476 C478 1.419 . S
C477 C472 1.425 . S
C477 C474 1.409 . S
C477 C475 1.415 . S
C478 H468 0.930 . S
C478 C476 1.419 . S
C478 C479 1.362 . S
C479 H469 0.930 . S
C479 C472 1.409 . S
C479 C478 1.362 . S
H480 C486 0.930 . S
H481 C489 0.930 . S
H482 C490 0.930 . S
H483 C491 0.930 . S
H484 C494 0.930 . S
H485 C495 0.930 . S
C486 H480 0.930 . S
C486 C487 1.355 . S
C486 C488 1.415 . S
C487 C486 1.355 . S
C487 C489 1.419 . S
C488 C486 1.415 . S
C488 C493 1.425 . S
C488 C495 1.409 . S
C489 H481 0.930 . S
C489 C487 1.419 . S
C489 C490 1.362 . S
C490 H482 0.930 . S
C490 C489 1.362 . S
C490 C493 1.409 . S
C491 H483 0.930 . S
C491 C492 1.355 . S
C491 C493 1.415 . S
C492 C491 1.355 . S
C492 C494 1.419 . S
C493 C488 1.425 . S
C493 C490 1.409 . S
C493 C491 1.415 . S
C494 H484 0.930 . S
C494 C492 1.419 . S
C494 C495 1.362 . S
C495 H485 0.930 . S
C495 C488 1.409 . S
C495 C494 1.362 . S
H496 C502 0.930 . S
H497 C505 0.930 . S
H498 C506 0.930 . S
H499 C507 0.930 . S
H500 C510 0.930 . S
H501 C511 0.930 . S
C502 H496 0.930 . S
C502 C503 1.355 . S
C502 C504 1.415 1_545 S
C503 C502 1.355 . S
C503 C505 1.419 . S
C504 C502 1.415 1_565 S
C504 C509 1.425 . S
C504 C511 1.409 . S
C505 H497 0.930 . S
C505 C503 1.419 . S
C505 C506 1.362 1_545 S
C506 H498 0.930 . S
C506 C505 1.362 1_565 S
C506 C509 1.409 . S
C507 H499 0.930 . S
C507 C508 1.355 . S
C507 C509 1.415 . S
C508 C507 1.355 . S
C508 C510 1.419 . S
C509 C504 1.425 . S
C509 C506 1.409 . S
C509 C507 1.415 . S
C510 H500 0.930 . S
C510 C508 1.419 . S
C510 C511 1.362 . S
C511 H501 0.930 . S
C511 C504 1.409 . S
C511 C510 1.362 . S
H512 C518 0.930 . S
H513 C521 0.930 . S
H514 C522 0.930 1_545 S
H515 C523 0.930 . S
H516 C526 0.930 . S
H517 C527 0.930 . S
C518 H512 0.930 . S
C518 C519 1.355 . S
C518 C520 1.415 1_565 S
C519 C518 1.355 . S
C519 C521 1.419 . S
C520 C518 1.415 1_545 S
C520 C525 1.425 . S
C520 C527 1.409 . S
C521 H513 0.930 . S
C521 C519 1.419 . S
C521 C522 1.362 . S
C522 H514 0.930 1_565 S
C522 C521 1.362 . S
C522 C525 1.409 1_565 S
C523 H515 0.930 . S
C523 C524 1.355 . S
C523 C525 1.415 . S
C524 C523 1.355 . S
C524 C526 1.419 . S
C525 C520 1.425 . S
C525 C522 1.409 1_545 S
C525 C523 1.415 . S
C526 H516 0.930 . S
C526 C524 1.419 . S
C526 C527 1.362 . S
C527 H517 0.930 . S
C527 C520 1.409 . S
C527 C526 1.362 . S
H528 C534 0.930 . S
H529 C537 0.930 . S
H530 C538 0.930 . S
H531 C539 0.930 . S
H532 C542 0.930 . S
H533 C543 0.930 . S
C534 H528 0.930 . S
C534 C535 1.355 . S
C534 C536 1.415 . S
C535 C534 1.355 . S
C535 C537 1.419 . S
C536 C534 1.415 . S
C536 C541 1.425 . S
C536 C543 1.409 . S
C537 H529 0.930 . S
C537 C535 1.419 . S
C537 C538 1.362 . S
C538 H530 0.930 . S
C538 C537 1.362 . S
C538 C541 1.409 . S
C539 H531 0.930 . S
C539 C540 1.355 . S
C539 C541 1.415 . S
C540 C539 1.355 . S
C540 C542 1.419 . S
C541 C536 1.425 . S
C541 C538 1.409 . S
C541 C539 1.415 . S
C542 H532 0.930 . S
C542 C540 1.419 . S
C542 C543 1.362 . S
C543 H533 0.930 . S
C543 C536 1.409 . S
C543 C542 1.362 . S
H544 C550 0.930 . S
H545 C553 0.930 . S
H546 C554 0.930 . S
H547 C555 0.930 . S
H548 C558 0.930 . S
H549 C559 0.930 . S
C550 H544 0.930 . S
C550 C551 1.355 . S
C550 C552 1.415 . S
C551 C550 1.355 . S
C551 C553 1.419 . S
C552 C550 1.415 . S
C552 C557 1.425 . S
C552 C559 1.409 . S
C553 H545 0.930 . S
C553 C551 1.419 . S
C553 C554 1.362 . S
C554 H546 0.930 . S
C554 C553 1.362 . S
C554 C557 1.409 . S
C555 H547 0.930 . S
C555 C556 1.355 . S
C555 C557 1.415 . S
C556 C555 1.355 . S
C556 C558 1.419 . S
C557 C552 1.425 . S
C557 C554 1.409 . S
C557 C555 1.415 . S
C558 H548 0.930 . S
C558 C556 1.419 . S
C558 C559 1.362 . S
C559 H549 0.930 . S
C559 C552 1.409 . S
C559 C558 1.362 . S
H560 C566 0.930 . S
H561 C569 0.930 . S
H562 C570 0.930 . S
H563 C571 0.930 . S
H564 C574 0.930 . S
H565 C575 0.930 . S
C566 H560 0.930 . S
C566 C567 1.355 . S
C566 C568 1.415 1_565 S
C567 C566 1.355 . S
C567 C569 1.419 . S
C568 C566 1.415 1_545 S
C568 C573 1.425 . S
C568 C575 1.409 . S
C569 H561 0.930 . S
C569 C567 1.419 . S
C569 C570 1.362 1_565 S
C570 H562 0.930 . S
C570 C569 1.362 1_545 S
C570 C573 1.409 . S
C571 H563 0.930 . S
C571 C572 1.355 . S
C571 C573 1.415 . S
C572 C571 1.355 . S
C572 C574 1.419 . S
C573 C568 1.425 . S
C573 C570 1.409 . S
C573 C571 1.415 . S
C574 H564 0.930 . S
C574 C572 1.419 . S
C574 C575 1.362 . S
C575 H565 0.930 . S
C575 C568 1.409 . S
C575 C574 1.362 . S
H576 C582 0.930 . S
H577 C585 0.930 . S
H578 C586 0.930 . S
H579 C587 0.930 . S
H580 C590 0.930 . S
H581 C591 0.930 . S
C582 H576 0.930 . S
C582 C583 1.355 . S
C582 C584 1.415 . S
C583 C582 1.355 . S
C583 C585 1.419 . S
C584 C582 1.415 . S
C584 C589 1.425 . S
C584 C591 1.409 1_565 S
C585 H577 0.930 . S
C585 C583 1.419 . S
C585 C586 1.362 . S
C586 H578 0.930 . S
C586 C585 1.362 . S
C586 C589 1.409 . S
C587 H579 0.930 . S
C587 C588 1.355 . S
C587 C589 1.415 1_545 S
C588 C587 1.355 . S
C588 C590 1.419 . S
C589 C584 1.425 . S
C589 C586 1.409 . S
C589 C587 1.415 1_565 S
C590 H580 0.930 . S
C590 C588 1.419 . S
C590 C591 1.362 . S
C591 H581 0.930 . S
C591 C584 1.409 1_545 S
C591 C590 1.362 . S
C279 C2 1.560 . S
C284 C36 1.569 . S
C295 C104 1.576 . S
C300 C70 1.577 . S
C311 C138 1.578 . S
C316 C172 1.574 . S
C327 C240 1.553 . S
C332 C206 1.558 . S
C343 C20 1.527 . S
C348 C156 1.527 . S
C359 C54 1.533 . S
C364 C190 1.533 . S
C375 C88 1.545 . S
C380 C224 1.545 . S
C391 C122 1.529 . S
C396 C258 1.529 . S
C407 C101 1.623 . S
C412 C33 1.615 . S
C423 C135 1.610 . S
C428 C67 1.608 . S
C439 C169 1.617 . S
C444 C237 1.625 . S
C455 C203 1.658 . S
C460 C271 1.656 . S
C471 C9 1.252 . S
C476 C5 1.259 . S
C487 C43 1.239 . S
C492 C39 1.282 . S
C503 C73 1.279 . S
C508 C77 1.239 . S
C519 C107 1.266 . S
C524 C111 1.272 . S
C535 C141 1.242 . S
C540 C145 1.274 . S
C551 C179 1.273 . S
C556 C175 1.265 . S
C567 C209 1.270 . S
C572 C213 1.243 . S
C583 C247 1.253 . S
C588 C243 1.257 . S
