# Generated by pormake.
# Topology kag, (6)-cn, num edge types: 1
# Building blocks:
#     Node 0, Type 0, BuildingBlock: BETDIP_clean_sbu_0, # of connection points: 6
#     Node 1, Type 0, BuildingBlock: BETDIP_clean_sbu_0, # of connection points: 6
#     Node 2, Type 0, BuildingBlock: BETDIP_clean_sbu_0, # of connection points: 6
#     Edge 3, Type (0, 0), BuildingBlock: FUNLAD_clean_linker_0, # of connection points: 2
#     Edge 4, Type (0, 0), BuildingBlock: FUNLAD_clean_linker_0, # of connection points: 2
#     Edge 5, Type (0, 0), BuildingBlock: FUNLAD_clean_linker_0, # of connection points: 2
#     Edge 6, Type (0, 0), BuildingBlock: FUNLAD_clean_linker_0, # of connection points: 2
#     Edge 7, Type (0, 0), BuildingBlock: FUNLAD_clean_linker_0, # of connection points: 2
#     Edge 8, Type (0, 0), BuildingBlock: FUNLAD_clean_linker_0, # of connection points: 2
#     Edge 9, Type (0, 0), BuildingBlock: FUNLAD_clean_linker_0, # of connection points: 2
#     Edge 10, Type (0, 0), BuildingBlock: FUNLAD_clean_linker_0, # of connection points: 2
#     Edge 11, Type (0, 0), BuildingBlock: FUNLAD_clean_linker_0, # of connection points: 2
# Relax obj value: 0.013
# Max RMSD: 0.069
# Mean RMSD: 0.060
data_MOF--net-kag--node1-BETDIP_clean_sbu_0--edge1-FUNLAD_clean_linker_0
_symmetry_space_group_name_H-M    P1
_symmetry_Int_Tables_number       1
_symmetry_cell_setting            triclinic
loop_
_symmetry_equiv_pos_as_xyz
'x, y, z'
_cell_length_a     45.794117
_cell_length_b     45.811447
_cell_length_c     16.759177
_cell_angle_alpha  92.804756
_cell_angle_beta   91.829518
_cell_angle_gamma 119.96387
loop_
_atom_site_label
_atom_site_type_symbol
_atom_site_fract_x
_atom_site_fract_y
_atom_site_fract_z
_atom_type_partial_charge
Tb0 Tb 1.01312 0.48587 0.03025 0.0
Tb1 Tb 0.05083 0.55917 1.00029 0.0
C2 C 0.97475 0.42961 0.0838 0.0
C3 C 0.93859 0.40326 0.07638 0.0
C4 C 0.92074 0.39323 0.14574 0.0
C5 C 0.88719 0.36683 0.14124 0.0
C6 C 0.87074 0.34961 0.06716 0.0
C7 C 0.88849 0.3602 0.99745 0.0
C8 C 0.92201 0.38676 1.00196 0.0
C9 C 1.02613 0.49849 0.87916 0.0
C10 C 0.97227 0.52421 0.99565 0.0
C11 C 0.08845 0.61553 0.9458 0.0
C12 C 0.12391 0.6436 0.95343 0.0
C13 C 0.14139 0.65507 0.884 0.0
C14 C 0.17364 0.68378 0.88836 0.0
C15 C 0.18902 0.70181 0.96234 0.0
C16 C 0.17187 0.68971 0.03216 0.0
C17 C 0.13969 0.66087 0.02783 0.0
C18 C 0.03795 0.54656 0.1516 0.0
C19 C 0.09133 0.52024 0.03592 0.0
O20 O 0.9824 0.45859 0.12102 0.0
O21 O 0.99217 0.43335 0.02087 0.0
O22 O 1.01775 0.51424 0.9282 0.0
O23 O 1.02463 0.4729 0.91236 0.0
O24 O 0.97263 0.49833 0.02653 0.0
O25 O 0.99991 0.54932 0.96924 0.0
O26 O 0.08256 0.58672 0.91096 0.0
O27 O 0.07031 0.61145 1.00746 0.0
O28 O 0.04622 0.53087 0.10217 0.0
O29 O 0.03989 0.5724 0.1188 0.0
O30 O 0.09139 0.54626 1.00419 0.0
O31 O 0.06357 0.49563 0.06295 0.0
H32 H 0.93294 0.40557 0.2038 0.0
H33 H 0.8742 0.35985 0.19601 0.0
H34 H 0.87684 0.34736 0.93947 0.0
H35 H 0.93507 0.39389 0.94729 0.0
H36 H 0.12968 0.64234 0.82591 0.0
H37 H 0.18598 0.69255 0.83337 0.0
H38 H 0.1832 0.70275 0.09019 0.0
H39 H 0.12693 0.6526 0.08255 0.0
Tb40 Tb 0.5518 1.00259 0.03309 0.0
Tb41 Tb 0.51537 0.03963 0.9951 0.0
C42 C 0.57109 0.96465 0.09016 0.0
C43 C 0.56384 0.92954 0.07639 0.0
C44 C 0.57198 0.91465 0.13783 0.0
C45 C 0.56765 0.88228 0.12467 0.0
C46 C 0.55514 0.86413 0.0495 0.0
C47 C 0.54633 0.87893 0.9884 0.0
C48 C 0.55055 0.9113 1.0018 0.0
C49 C 0.55176 1.01626 0.88174 0.0
C50 C 0.47212 0.96114 0.98622 0.0
C51 C 0.49674 0.07808 0.93786 0.0
C52 C 0.50693 0.11426 0.94483 0.0
C53 C 0.50027 0.12844 0.87938 0.0
C54 C 0.50764 0.16205 0.88574 0.0
C55 C 0.52175 0.18225 0.95797 0.0
C56 C 0.52899 0.16809 0.02318 0.0
C57 C 0.52176 0.13446 0.01659 0.0
C58 C 0.51511 0.02539 0.14612 0.0
C59 C 0.59485 0.08078 0.04371 0.0
O60 O 0.54724 0.96894 0.11952 0.0
O61 O 0.58572 0.98455 0.03314 0.0
O62 O 0.5276 1.00735 0.92638 0.0
O63 O 0.57598 1.01478 0.91952 0.0
O64 O 0.49884 0.96165 0.02069 0.0
O65 O 0.47404 0.98878 0.95977 0.0
O66 O 0.5172 0.07006 0.90297 0.0
O67 O 0.48463 0.06136 1.00108 0.0
O68 O 0.53941 0.03472 0.10176 0.0
O69 O 0.49078 0.02666 0.10813 0.0
O70 O 0.56869 0.08038 1.00635 0.0
O71 O 0.592 0.0532 0.0726 0.0
H72 H 0.58237 0.92836 0.19571 0.0
H73 H 0.57504 0.87189 0.17279 0.0
H74 H 0.53623 0.8655 0.93017 0.0
H75 H 0.54394 0.92229 0.9536 0.0
H76 H 0.48877 0.11329 0.82356 0.0
H77 H 0.50139 0.17193 0.8346 0.0
H78 H 0.54027 0.18302 0.07931 0.0
H79 H 0.52733 0.12411 0.06783 0.0
Tb80 Tb 0.49395 0.5009 0.02736 0.0
Tb81 Tb 0.56718 0.53781 0.99812 0.0
C82 C 0.43641 0.4822 0.07791 0.0
C83 C 0.40968 0.49139 0.06878 0.0
C84 C 0.41076 0.518 0.1169 0.0
C85 C 0.38439 0.52513 0.11055 0.0
C86 C 0.35624 0.50572 0.05621 0.0
C87 C 0.3555 0.47945 1.00741 0.0
C88 C 0.38174 0.47227 0.01392 0.0
C89 C 0.50754 0.50092 0.87518 0.0
C90 C 0.5315 0.58035 1.00674 0.0
C91 C 0.62424 0.55736 0.94377 0.0
C92 C 0.65285 0.55102 0.95224 0.0
C93 C 0.66561 0.54407 0.88332 0.0
C94 C 0.69462 0.54118 0.88896 0.0
C95 C 0.71167 0.54547 0.96374 0.0
C96 C 0.69833 0.55154 0.03296 0.0
C97 C 0.66918 0.55418 0.02735 0.0
C98 C 0.55384 0.53793 0.15053 0.0
C99 C 0.52936 0.4582 0.02219 0.0
O100 O 0.46473 0.50401 0.11804 0.0
O101 O 0.44159 0.46804 0.01444 0.0
O102 O 0.52257 0.52525 0.92737 0.0
O103 O 0.48227 0.47634 0.90608 0.0
O104 O 0.50609 0.55383 0.03592 0.0
O105 O 0.5565 0.57814 0.97511 0.0
O106 O 0.59599 0.53312 0.90812 0.0
O107 O 0.61908 0.57238 1.00557 0.0
O108 O 0.53867 0.51371 0.09819 0.0
O109 O 0.57956 0.56214 0.11985 0.0
O110 O 0.55515 0.48455 0.99294 0.0
O111 O 0.50429 0.46073 0.05226 0.0
H112 H 0.43172 0.53306 0.16038 0.0
H113 H 0.38567 0.54528 0.14979 0.0
H114 H 0.33455 0.46431 0.96396 0.0
H115 H 0.37995 0.45145 0.97631 0.0
H116 H 0.6536 0.54171 0.82473 0.0
H117 H 0.70437 0.53677 0.83444 0.0
H118 H 0.71059 0.55451 0.09153 0.0
H119 H 0.65989 0.55939 0.08171 0.0
C120 C 1.02575 0.52891 0.75851 0.0
C121 C 1.02996 0.50374 0.79267 0.0
C122 C 1.02843 0.53293 0.67608 0.0
C123 C 0.03531 0.51173 0.62592 0.0
C124 C 0.04017 0.48708 0.66091 0.0
C125 C 0.03739 0.48303 0.74306 0.0
C126 C 0.03854 0.51481 0.53768 0.0
C127 C 1.02562 0.52996 0.49296 0.0
C128 C 1.02887 0.5331 0.40476 0.0
C129 C 1.02394 0.55773 0.36992 0.0
C130 C 1.0267 0.56185 0.28781 0.0
C131 C 0.03419 0.54122 0.23806 0.0
H132 H 0.03882 0.49199 0.37786 0.0
C133 C 0.0385 0.51608 0.27205 0.0
C134 C 0.03585 0.512 0.35448 0.0
H135 H 0.04404 0.49963 0.23499 0.0
H136 H 1.02028 0.54545 0.79546 0.0
H137 H 1.02553 0.55297 0.6526 0.0
H138 H 0.04582 0.47057 0.62435 0.0
H139 H 0.04096 0.46352 0.76769 0.0
H140 H 0.05183 0.50357 0.50882 0.0
H141 H 1.01232 0.54117 0.52185 0.0
H142 H 1.01823 0.57417 0.40658 0.0
H143 H 1.02307 0.58134 0.26331 0.0
C144 C 0.54637 0.0267 0.27347 0.0
C145 C 0.5166 0.02138 0.23297 0.0
C146 C 0.54776 0.02414 0.35643 0.0
C147 C 0.5193 1.01624 0.40053 0.0
C148 C 0.48939 1.01012 0.35917 0.0
C149 C 0.48808 1.01282 0.27656 0.0
C150 C 0.51927 1.01328 0.48892 0.0
C151 C 0.54741 0.0281 0.53884 0.0
C152 C 0.54739 0.02515 0.62723 0.0
C153 C 0.57733 0.0313 0.66854 0.0
C154 C 0.57868 0.02866 0.75117 0.0
C155 C 0.55018 1.02013 0.79483 0.0
H156 H 0.49568 1.01339 0.64269 0.0
C157 C 0.52038 1.01475 0.75436 0.0
C158 C 0.51895 1.01725 0.67138 0.0
H159 H 0.4981 1.00842 0.78671 0.0
H160 H 0.56865 0.03302 0.24116 0.0
H161 H 0.57101 0.02796 0.38514 0.0
H162 H 0.46697 1.00364 0.39109 0.0
H163 H 0.46469 1.00836 0.24685 0.0
H164 H 0.49482 0.99868 0.51338 0.0
H165 H 0.57185 0.04271 0.51438 0.0
H166 H 0.59974 0.03778 0.63659 0.0
H167 H 0.60208 0.03316 0.78085 0.0
C168 C 0.53754 0.53229 0.75759 0.0
C169 C 0.51294 0.50248 0.78854 0.0
C170 C 0.54152 0.53374 0.67498 0.0
C171 C 0.52086 0.50533 0.62159 0.0
C172 C 0.49689 0.47539 0.6533 0.0
C173 C 0.49286 0.474 0.73563 0.0
C174 C 0.52386 0.50535 0.53307 0.0
C175 C 0.53757 0.53353 0.49264 0.0
C176 C 0.54056 0.53355 0.40413 0.0
C177 C 0.56466 0.56343 0.37244 0.0
C178 C 0.56869 0.56479 0.2901 0.0
C179 C 0.54846 0.53636 0.23717 0.0
H180 H 0.50013 0.48197 0.37196 0.0
C181 C 0.52374 0.50662 0.2681 0.0
C182 C 0.51978 0.50518 0.35073 0.0
H183 H 0.50758 0.48441 0.22851 0.0
H184 H 0.5536 0.55454 0.79718 0.0
H185 H 0.56108 0.55701 0.65376 0.0
H186 H 0.48086 0.453 0.61406 0.0
H187 H 0.47382 0.4506 0.75781 0.0
H188 H 0.51375 0.4809 0.50028 0.0
H189 H 0.54768 0.558 0.5254 0.0
H190 H 0.58079 0.58578 0.41169 0.0
H191 H 0.58781 0.58815 0.26792 0.0
C192 C 0.15269 0.54266 1.01047 0.0
C193 C 0.12303 0.51887 0.04402 0.0
C194 C 0.18195 0.54004 0.01547 0.0
C195 C 0.18219 0.51361 0.05474 0.0
C196 C 0.15259 0.4902 0.08888 0.0
C197 C 0.12348 0.49276 0.08371 0.0
C198 C 0.21178 0.50821 0.05906 0.0
C199 C 0.24339 0.53075 0.04058 0.0
C200 C 0.27193 0.52372 0.0447 0.0
C201 C 0.3053 0.55089 0.05407 0.0
C202 C 0.33266 0.5452 0.05797 0.0
C203 C 0.3273 0.51211 0.05182 0.0
H204 H 0.24149 0.46892 0.02728 0.0
C205 C 0.2939 0.48494 0.04135 0.0
C206 C 0.26662 0.49063 0.03733 0.0
H207 H 0.2887 0.4591 0.03695 0.0
H208 H 0.15317 0.56299 0.97905 0.0
H209 H 0.20385 0.55835 0.98693 0.0
H210 H 0.15181 0.4695 0.1193 0.0
H211 H 0.10118 0.47394 0.11039 0.0
H212 H 0.20715 0.48443 0.08087 0.0
H213 H 0.24918 0.55568 0.02485 0.0
H214 H 0.31026 0.57667 0.05887 0.0
H215 H 0.35803 0.56676 0.0648 0.0
C216 C 0.63127 0.14315 0.02954 0.0
C217 C 0.62771 0.11282 0.05514 0.0
C218 C 0.66265 0.17307 0.03816 0.0
C219 C 0.69132 0.17323 0.07206 0.0
C220 C 0.68747 0.14298 0.09878 0.0
C221 C 0.65616 0.11318 0.09037 0.0
C222 C 0.72554 0.20412 0.08217 0.0
C223 C 0.73489 0.23254 0.04422 0.0
C224 C 0.7697 0.26264 0.05277 0.0
C225 C 0.77983 0.28616 0.99413 0.0
C226 C 0.81237 0.31445 0.99897 0.0
C227 C 0.83566 0.32007 0.06295 0.0
H228 H 0.78591 0.25203 0.16595 0.0
C229 C 0.82531 0.29689 0.12249 0.0
C230 C 0.79275 0.2687 0.11786 0.0
H231 H 0.84256 0.30018 0.17239 0.0
H232 H 0.6098 0.14385 1.00273 0.0
H233 H 0.66402 0.19585 0.01878 0.0
H234 H 0.7089 0.14225 0.1257 0.0
H235 H 0.65441 0.09034 0.11091 0.0
H236 H 0.74423 0.20238 0.11983 0.0
H237 H 0.71707 0.23347 1.00172 0.0
H238 H 0.76258 0.2825 0.94381 0.0
H239 H 0.81917 0.33204 0.95273 0.0
C240 C 0.54079 0.80686 0.09331 0.0
C241 C 0.55231 0.8304 0.03459 0.0
C242 C 0.53959 0.77582 0.08087 0.0
C243 C 0.54975 0.76741 1.00897 0.0
C244 C 0.56125 0.79095 0.95036 0.0
C245 C 0.56235 0.82196 0.96273 0.0
C246 C 0.55018 0.73518 0.9945 0.0
C247 C 0.53074 0.70701 0.03215 0.0
C248 C 0.53124 0.67473 0.02016 0.0
C249 C 0.50404 0.64513 0.04541 0.0
C250 C 0.50393 0.61454 0.03959 0.0
C251 C 0.53119 0.61267 1.00866 0.0
H252 H 0.58038 0.69515 0.97005 0.0
C253 C 0.55838 0.64217 0.9826 0.0
C254 C 0.55849 0.67289 0.98844 0.0
H255 H 0.57991 0.64172 0.95903 0.0
H256 H 0.53274 0.81246 0.14925 0.0
H257 H 0.53146 0.75898 0.1287 0.0
H258 H 0.56959 0.78542 0.89478 0.0
H259 H 0.57189 0.83968 0.91672 0.0
H260 H 0.56627 0.73454 0.94913 0.0
H261 H 0.51259 0.70697 0.07228 0.0
H262 H 0.48277 0.64567 0.07044 0.0
H263 H 0.48252 0.59241 0.06038 0.0
C264 C 0.93861 0.55268 0.96647 0.0
C265 C 0.9397 0.52382 0.98696 0.0
C266 C 0.90779 0.55223 0.95999 0.0
C267 C 0.87735 0.52281 0.97357 0.0
C268 C 0.87846 0.49385 0.99245 0.0
C269 C 0.90922 0.49439 0.99977 0.0
C270 C 0.84395 0.521 0.96646 0.0
C271 C 0.83992 0.54796 0.98074 0.0
C272 C 0.80638 0.54597 0.97663 0.0
C273 C 0.80247 0.57026 0.02188 0.0
C274 C 0.77164 0.56971 0.0187 0.0
C275 C 0.74402 0.54509 0.96918 0.0
H276 H 0.78094 0.50261 0.88957 0.0
C277 C 0.74795 0.52089 0.92327 0.0
C278 C 0.77875 0.52126 0.92697 0.0
H279 H 0.72717 0.50158 0.88453 0.0
H280 H 0.96158 0.5757 0.95586 0.0
H281 H 0.90789 0.57478 0.94313 0.0
H282 H 0.85542 0.47075 1.0025 0.0
H283 H 0.90902 0.4716 0.01513 0.0
H284 H 0.82179 0.49614 0.95397 0.0
H285 H 0.86177 0.57221 1.00077 0.0
H286 H 0.82337 0.58978 0.06004 0.0
H287 H 0.76966 0.58907 0.05381 0.0
C288 C 0.24842 0.73694 0.91987 0.0
C289 C 0.22209 0.73394 0.96615 0.0
C290 C 0.27903 0.76756 0.92165 0.0
C291 C 0.284 0.79596 0.96979 0.0
C292 C 0.25759 0.79295 0.0155 0.0
C293 C 0.22711 0.76231 0.01417 0.0
C294 C 0.31576 0.82933 0.97191 0.0
C295 C 0.34607 0.83297 0.9563 0.0
C296 C 0.37799 0.86627 0.96216 0.0
C297 C 0.40862 0.86732 0.98063 0.0
C298 C 0.43911 0.89805 0.98792 0.0
C299 C 0.43979 0.92853 0.97549 0.0
H300 H 0.35568 0.8968 0.93174 0.0
C301 C 0.40925 0.92745 0.9548 0.0
C302 C 0.37865 0.89668 0.94836 0.0
H303 H 0.4089 0.95044 0.94451 0.0
H304 H 0.24537 0.71556 0.88225 0.0
H305 H 0.29838 0.76899 0.88393 0.0
H306 H 0.26053 0.81443 0.05253 0.0
H307 H 0.20718 0.76108 0.04948 0.0
H308 H 0.31431 0.85148 0.99169 0.0
H309 H 0.34818 0.81063 0.944 0.0
H310 H 0.40895 0.8443 0.99074 0.0
H311 H 0.46216 0.89785 1.00337 0.0
C312 C 0.55528 0.42179 0.99315 0.0
C313 C 0.52903 0.42559 0.02393 0.0
C314 C 0.55432 0.39069 0.99323 0.0
C315 C 0.52692 0.36254 0.02378 0.0
C316 C 0.50108 0.36664 0.05572 0.0
C317 C 0.50202 0.39763 0.05558 0.0
C318 C 0.52432 0.3287 0.02499 0.0
C319 C 0.54124 0.31828 0.97772 0.0
C320 C 0.53682 0.28362 0.97589 0.0
C321 C 0.54555 0.27133 0.90767 0.0
C322 C 0.54107 0.23873 0.90226 0.0
C323 C 0.52803 0.21758 0.96541 0.0
H324 H 0.51848 0.27147 0.09482 0.0
C325 C 0.5202 0.23018 0.03475 0.0
C326 C 0.52457 0.26278 0.04008 0.0
H327 H 0.51001 0.21458 0.08448 0.0
H328 H 0.57661 0.44284 0.96884 0.0
H329 H 0.57529 0.3891 0.97015 0.0
H330 H 0.47978 0.34562 0.08025 0.0
H331 H 0.48138 0.39954 0.08002 0.0
H332 H 0.50603 0.31101 0.06329 0.0
H333 H 0.55745 0.33491 0.93459 0.0
H334 H 0.55546 0.28685 0.85767 0.0
H335 H 0.54794 0.23013 0.84851 0.0
loop_
_geom_bond_atom_site_label_1
_geom_bond_atom_site_label_2
_geom_bond_distance
_geom_bond_site_symmetry_2
_ccdc_geom_bond_type
Tb0 C2 2.809 . S
Tb0 O20 2.484 1_556 S
Tb0 O21 2.440 . S
Tb0 O22 2.658 1_655 S
Tb0 O23 2.409 . S
Tb0 O24 2.378 . S
Tb0 O28 2.325 1_556 S
Tb0 O31 2.341 1_655 S
Tb1 C11 2.809 . S
Tb1 O22 2.325 1_554 S
Tb1 O25 2.341 1_455 S
Tb1 O26 2.484 1_554 S
Tb1 O27 2.440 . S
Tb1 O28 2.658 1_455 S
Tb1 O29 2.409 . S
Tb1 O30 2.378 . S
C2 Tb0 2.809 . S
C2 C3 1.514 1_556 S
C2 O20 1.248 1_556 S
C2 O21 1.266 . S
C3 C2 1.514 1_554 S
C3 C4 1.359 . S
C3 C8 1.348 1_554 S
C4 C3 1.359 . S
C4 C5 1.380 . S
C4 H32 0.929 . S
C5 C4 1.380 . S
C5 C6 1.347 . S
C5 H33 0.931 . S
C6 C5 1.347 . S
C6 C7 1.369 1_554 S
C7 C6 1.369 1_556 S
C7 C8 1.408 . S
C7 H34 0.930 . S
C8 C3 1.348 1_556 S
C8 C7 1.408 . S
C8 H35 0.930 . S
C9 O22 1.281 1_655 S
C9 O23 1.254 . S
C10 O24 1.236 . S
C10 O25 1.266 1_556 S
C11 Tb1 2.809 . S
C11 C12 1.514 1_554 S
C11 O26 1.248 1_554 S
C11 O27 1.266 . S
C12 C11 1.514 1_556 S
C12 C13 1.359 . S
C12 C17 1.348 1_556 S
C13 C12 1.359 . S
C13 C14 1.380 . S
C13 H36 0.929 . S
C14 C13 1.380 . S
C14 C15 1.347 . S
C14 H37 0.931 . S
C15 C14 1.347 . S
C15 C16 1.369 1_556 S
C16 C15 1.369 1_554 S
C16 C17 1.408 . S
C16 H38 0.930 . S
C17 C12 1.348 1_554 S
C17 C16 1.408 . S
C17 H39 0.930 . S
C18 O28 1.281 1_455 S
C18 O29 1.254 . S
C19 O30 1.236 . S
C19 O31 1.266 1_554 S
O20 Tb0 2.484 1_554 S
O20 C2 1.248 1_554 S
O21 Tb0 2.440 . S
O21 C2 1.266 . S
O22 Tb0 2.658 1_455 S
O22 Tb1 2.325 1_556 S
O22 C9 1.281 1_455 S
O23 Tb0 2.409 . S
O23 C9 1.254 . S
O24 Tb0 2.378 . S
O24 C10 1.236 . S
O25 Tb1 2.341 1_655 S
O25 C10 1.266 1_554 S
O26 Tb1 2.484 1_556 S
O26 C11 1.248 1_556 S
O27 Tb1 2.440 . S
O27 C11 1.266 . S
O28 Tb0 2.325 1_554 S
O28 Tb1 2.658 1_655 S
O28 C18 1.281 1_655 S
O29 Tb1 2.409 . S
O29 C18 1.254 . S
O30 Tb1 2.378 . S
O30 C19 1.236 . S
O31 Tb0 2.341 1_455 S
O31 C19 1.266 1_556 S
H32 C4 0.929 . S
H33 C5 0.931 . S
H34 C7 0.930 . S
H35 C8 0.930 . S
H36 C13 0.929 . S
H37 C14 0.931 . S
H38 C16 0.930 . S
H39 C17 0.930 . S
Tb40 C42 2.809 1_556 S
Tb40 O60 2.484 1_556 S
Tb40 O61 2.440 . S
Tb40 O62 2.658 1_565 S
Tb40 O63 2.409 . S
Tb40 O64 2.378 . S
Tb40 O68 2.325 1_556 S
Tb40 O71 2.341 1_566 S
Tb41 C51 2.809 1_554 S
Tb41 O62 2.325 1_554 S
Tb41 O65 2.341 1_544 S
Tb41 O66 2.484 1_554 S
Tb41 O67 2.440 . S
Tb41 O68 2.658 1_545 S
Tb41 O69 2.409 . S
Tb41 O70 2.378 . S
C42 Tb40 2.809 1_554 S
C42 C43 1.514 . S
C42 O60 1.248 . S
C42 O61 1.266 1_554 S
C43 C42 1.514 . S
C43 C44 1.359 . S
C43 C48 1.348 1_554 S
C44 C43 1.359 . S
C44 C45 1.380 . S
C44 H72 0.929 . S
C45 C44 1.380 . S
C45 C46 1.347 . S
C45 H73 0.931 . S
C46 C45 1.347 . S
C46 C47 1.369 1_554 S
C47 C46 1.369 1_556 S
C47 C48 1.408 . S
C47 H74 0.930 . S
C48 C43 1.348 1_556 S
C48 C47 1.408 . S
C48 H75 0.930 . S
C49 O62 1.281 1_565 S
C49 O63 1.254 . S
C50 O64 1.236 . S
C50 O65 1.266 . S
C51 Tb41 2.809 1_556 S
C51 C52 1.514 . S
C51 O66 1.248 . S
C51 O67 1.266 1_556 S
C52 C51 1.514 . S
C52 C53 1.359 . S
C52 C57 1.348 1_556 S
C53 C52 1.359 . S
C53 C54 1.380 . S
C53 H76 0.929 . S
C54 C53 1.380 . S
C54 C55 1.347 . S
C54 H77 0.931 . S
C55 C54 1.347 . S
C55 C56 1.369 1_556 S
C56 C55 1.369 1_554 S
C56 C57 1.408 . S
C56 H78 0.930 . S
C57 C52 1.348 1_554 S
C57 C56 1.408 . S
C57 H79 0.930 . S
C58 O68 1.281 1_545 S
C58 O69 1.254 . S
C59 O70 1.236 . S
C59 O71 1.266 . S
O60 Tb40 2.484 1_554 S
O60 C42 1.248 . S
O61 Tb40 2.440 . S
O61 C42 1.266 1_556 S
O62 Tb40 2.658 1_545 S
O62 Tb41 2.325 1_556 S
O62 C49 1.281 1_545 S
O63 Tb40 2.409 . S
O63 C49 1.254 . S
O64 Tb40 2.378 . S
O64 C50 1.236 . S
O65 Tb41 2.341 1_566 S
O65 C50 1.266 . S
O66 Tb41 2.484 1_556 S
O66 C51 1.248 . S
O67 Tb41 2.440 . S
O67 C51 1.266 1_554 S
O68 Tb40 2.325 1_554 S
O68 Tb41 2.658 1_565 S
O68 C58 1.281 1_565 S
O69 Tb41 2.409 . S
O69 C58 1.254 . S
O70 Tb41 2.378 . S
O70 C59 1.236 . S
O71 Tb40 2.341 1_544 S
O71 C59 1.266 . S
H72 C44 0.929 . S
H73 C45 0.931 . S
H74 C47 0.930 . S
H75 C48 0.930 . S
H76 C53 0.929 . S
H77 C54 0.931 . S
H78 C56 0.930 . S
H79 C57 0.930 . S
Tb80 C82 2.809 . S
Tb80 O100 2.484 1_556 S
Tb80 O101 2.440 . S
Tb80 O102 2.658 . S
Tb80 O103 2.409 . S
Tb80 O104 2.378 . S
Tb80 O108 2.325 1_556 S
Tb80 O111 2.341 . S
Tb81 C91 2.809 . S
Tb81 O102 2.325 1_554 S
Tb81 O105 2.341 . S
Tb81 O106 2.484 1_554 S
Tb81 O107 2.440 . S
Tb81 O108 2.658 . S
Tb81 O109 2.409 . S
Tb81 O110 2.378 . S
C82 Tb80 2.809 . S
C82 C83 1.514 1_556 S
C82 O100 1.248 1_556 S
C82 O101 1.266 . S
C83 C82 1.514 1_554 S
C83 C84 1.359 . S
C83 C88 1.348 1_554 S
C84 C83 1.359 . S
C84 C85 1.380 . S
C84 H112 0.929 . S
C85 C84 1.380 . S
C85 C86 1.347 . S
C85 H113 0.931 . S
C86 C85 1.347 . S
C86 C87 1.369 1_554 S
C87 C86 1.369 1_556 S
C87 C88 1.408 . S
C87 H114 0.930 . S
C88 C83 1.348 1_556 S
C88 C87 1.408 . S
C88 H115 0.930 . S
C89 O102 1.281 . S
C89 O103 1.254 . S
C90 O104 1.236 . S
C90 O105 1.266 1_556 S
C91 Tb81 2.809 . S
C91 C92 1.514 1_554 S
C91 O106 1.248 1_554 S
C91 O107 1.266 . S
C92 C91 1.514 1_556 S
C92 C93 1.359 . S
C92 C97 1.348 1_556 S
C93 C92 1.359 . S
C93 C94 1.380 . S
C93 H116 0.929 . S
C94 C93 1.380 . S
C94 C95 1.347 . S
C94 H117 0.931 . S
C95 C94 1.347 . S
C95 C96 1.369 1_556 S
C96 C95 1.369 1_554 S
C96 C97 1.408 . S
C96 H118 0.930 . S
C97 C92 1.348 1_554 S
C97 C96 1.408 . S
C97 H119 0.930 . S
C98 O108 1.281 . S
C98 O109 1.254 . S
C99 O110 1.236 . S
C99 O111 1.266 1_554 S
O100 Tb80 2.484 1_554 S
O100 C82 1.248 1_554 S
O101 Tb80 2.440 . S
O101 C82 1.266 . S
O102 Tb80 2.658 . S
O102 Tb81 2.325 1_556 S
O102 C89 1.281 . S
O103 Tb80 2.409 . S
O103 C89 1.254 . S
O104 Tb80 2.378 . S
O104 C90 1.236 . S
O105 Tb81 2.341 . S
O105 C90 1.266 1_554 S
O106 Tb81 2.484 1_556 S
O106 C91 1.248 1_556 S
O107 Tb81 2.440 . S
O107 C91 1.266 . S
O108 Tb80 2.325 1_554 S
O108 Tb81 2.658 . S
O108 C98 1.281 . S
O109 Tb81 2.409 . S
O109 C98 1.254 . S
O110 Tb81 2.378 . S
O110 C99 1.236 . S
O111 Tb80 2.341 . S
O111 C99 1.266 1_556 S
H112 C84 0.929 . S
H113 C85 0.931 . S
H114 C87 0.930 . S
H115 C88 0.930 . S
H116 C93 0.929 . S
H117 C94 0.931 . S
H118 C96 0.930 . S
H119 C97 0.930 . S
C120 C121 1.383 1_655 S
C120 C122 1.381 1_655 S
C120 H136 0.955 . S
C121 C120 1.383 1_455 S
C121 C125 1.383 . S
C122 C120 1.381 1_455 S
C122 C123 1.402 . S
C122 H137 0.951 . S
C123 C122 1.402 . S
C123 C124 1.375 . S
C123 C126 1.481 . S
C124 C123 1.375 . S
C124 C125 1.367 . S
C124 H138 0.951 . S
C125 C121 1.383 . S
C125 C124 1.367 . S
C125 H139 0.950 . S
C126 C123 1.481 . S
C126 C127 1.297 . S
C126 H140 0.950 . S
C127 C126 1.297 . S
C127 C128 1.479 . S
C127 H141 0.950 . S
C128 C127 1.479 . S
C128 C129 1.375 . S
C128 C134 1.404 . S
C129 C128 1.375 . S
C129 C130 1.369 . S
C129 H142 0.950 . S
C130 C129 1.369 . S
C130 C131 1.392 . S
C130 H143 0.951 1_455 S
C131 C130 1.392 . S
C131 C133 1.384 . S
H132 C134 0.949 . S
C133 C131 1.384 . S
C133 C134 1.385 . S
C133 H135 0.950 . S
C134 C128 1.404 . S
C134 H132 0.949 . S
C134 C133 1.385 . S
H135 C133 0.950 . S
H136 C120 0.955 . S
H137 C122 0.951 . S
H138 C124 0.951 . S
H139 C125 0.950 . S
H140 C126 0.950 . S
H141 C127 0.950 . S
H142 C129 0.950 . S
H143 C130 0.951 1_655 S
C144 C145 1.400 . S
C144 C146 1.386 . S
C144 H160 0.934 1_545 S
C145 C144 1.400 . S
C145 C149 1.383 . S
C146 C144 1.386 . S
C146 C147 1.402 . S
C146 H161 0.951 . S
C147 C146 1.402 . S
C147 C148 1.375 . S
C147 C150 1.481 . S
C148 C147 1.375 . S
C148 C149 1.367 . S
C148 H162 0.951 . S
C149 C145 1.383 . S
C149 C148 1.367 . S
C149 H163 0.950 . S
C150 C147 1.481 . S
C150 C151 1.297 . S
C150 H164 0.950 . S
C151 C150 1.297 . S
C151 C152 1.479 . S
C151 H165 0.950 . S
C152 C151 1.479 . S
C152 C153 1.375 . S
C152 C158 1.404 . S
C153 C152 1.375 . S
C153 C154 1.369 . S
C153 H166 0.950 . S
C154 C153 1.369 . S
C154 C155 1.392 . S
C154 H167 0.951 1_545 S
C155 C154 1.392 . S
C155 C157 1.384 . S
H156 C158 0.949 . S
C157 C155 1.384 . S
C157 C158 1.385 . S
C157 H159 0.950 . S
C158 C152 1.404 . S
C158 H156 0.949 . S
C158 C157 1.385 . S
H159 C157 0.950 . S
H160 C144 0.934 1_565 S
H161 C146 0.951 . S
H162 C148 0.951 . S
H163 C149 0.950 . S
H164 C150 0.950 . S
H165 C151 0.950 . S
H166 C153 0.950 . S
H167 C154 0.951 1_565 S
C168 C169 1.386 . S
C168 C170 1.383 . S
C168 H184 0.951 . S
C169 C168 1.386 . S
C169 C173 1.383 . S
C170 C168 1.383 . S
C170 C171 1.402 . S
C170 H185 0.951 . S
C171 C170 1.402 . S
C171 C172 1.375 . S
C171 C174 1.481 . S
C172 C171 1.375 . S
C172 C173 1.367 . S
C172 H186 0.951 . S
C173 C169 1.383 . S
C173 C172 1.367 . S
C173 H187 0.950 . S
C174 C171 1.481 . S
C174 C175 1.297 . S
C174 H188 0.950 . S
C175 C174 1.297 . S
C175 C176 1.479 . S
C175 H189 0.950 . S
C176 C175 1.479 . S
C176 C177 1.375 . S
C176 C182 1.404 . S
C177 C176 1.375 . S
C177 C178 1.369 . S
C177 H190 0.950 . S
C178 C177 1.369 . S
C178 C179 1.392 . S
C178 H191 0.951 . S
C179 C178 1.392 . S
C179 C181 1.384 . S
H180 C182 0.949 . S
C181 C179 1.384 . S
C181 C182 1.385 . S
C181 H183 0.950 . S
C182 C176 1.404 . S
C182 H180 0.949 . S
C182 C181 1.385 . S
H183 C181 0.950 . S
H184 C168 0.951 . S
H185 C170 0.951 . S
H186 C172 0.951 . S
H187 C173 0.950 . S
H188 C174 0.950 . S
H189 C175 0.950 . S
H190 C177 0.950 . S
H191 C178 0.951 . S
C192 C193 1.386 . S
C192 C194 1.383 . S
C192 H208 0.951 . S
C193 C192 1.386 . S
C193 C197 1.383 . S
C194 C192 1.383 . S
C194 C195 1.402 . S
C194 H209 0.951 . S
C195 C194 1.402 . S
C195 C196 1.375 . S
C195 C198 1.481 . S
C196 C195 1.375 . S
C196 C197 1.367 . S
C196 H210 0.951 . S
C197 C193 1.383 . S
C197 C196 1.367 . S
C197 H211 0.950 . S
C198 C195 1.481 . S
C198 C199 1.297 . S
C198 H212 0.950 . S
C199 C198 1.297 . S
C199 C200 1.479 . S
C199 H213 0.950 . S
C200 C199 1.479 . S
C200 C201 1.375 . S
C200 C206 1.404 . S
C201 C200 1.375 . S
C201 C202 1.369 . S
C201 H214 0.950 . S
C202 C201 1.369 . S
C202 C203 1.392 . S
C202 H215 0.951 . S
C203 C202 1.392 . S
C203 C205 1.384 . S
H204 C206 0.949 . S
C205 C203 1.384 . S
C205 C206 1.385 . S
C205 H207 0.950 . S
C206 C200 1.404 . S
C206 H204 0.949 . S
C206 C205 1.385 . S
H207 C205 0.950 . S
H208 C192 0.951 . S
H209 C194 0.951 . S
H210 C196 0.951 . S
H211 C197 0.950 . S
H212 C198 0.950 . S
H213 C199 0.950 . S
H214 C201 0.950 . S
H215 C202 0.951 . S
C216 C217 1.386 1_556 S
C216 C218 1.383 . S
C216 H232 0.951 . S
C217 C216 1.386 1_554 S
C217 C221 1.383 . S
C218 C216 1.383 . S
C218 C219 1.402 1_556 S
C218 H233 0.951 . S
C219 C218 1.402 1_554 S
C219 C220 1.375 . S
C219 C222 1.481 . S
C220 C219 1.375 . S
C220 C221 1.367 . S
C220 H234 0.951 . S
C221 C217 1.383 . S
C221 C220 1.367 . S
C221 H235 0.950 . S
C222 C219 1.481 . S
C222 C223 1.303 . S
C222 H236 0.950 . S
C223 C222 1.303 . S
C223 C224 1.480 . S
C223 H237 0.943 1_554 S
C224 C223 1.480 . S
C224 C225 1.375 1_554 S
C224 C230 1.404 . S
C225 C224 1.375 1_556 S
C225 C226 1.369 . S
C225 H238 0.950 . S
C226 C225 1.369 . S
C226 C227 1.392 1_556 S
C226 H239 0.951 . S
C227 C226 1.392 1_554 S
C227 C229 1.384 . S
H228 C230 0.949 . S
C229 C227 1.384 . S
C229 C230 1.385 . S
C229 H231 0.950 . S
C230 C224 1.404 . S
C230 H228 0.949 . S
C230 C229 1.385 . S
H231 C229 0.950 . S
H232 C216 0.951 . S
H233 C218 0.951 . S
H234 C220 0.951 . S
H235 C221 0.950 . S
H236 C222 0.950 . S
H237 C223 0.943 1_556 S
H238 C225 0.950 . S
H239 C226 0.951 . S
C240 C241 1.386 . S
C240 C242 1.383 . S
C240 H256 0.951 . S
C241 C240 1.386 . S
C241 C245 1.383 1_554 S
C242 C240 1.383 . S
C242 C243 1.402 1_554 S
C242 H257 0.951 . S
C243 C242 1.402 1_556 S
C243 C244 1.375 . S
C243 C246 1.481 . S
C244 C243 1.375 . S
C244 C245 1.367 . S
C244 H258 0.951 . S
C245 C241 1.383 1_556 S
C245 C244 1.367 . S
C245 H259 0.950 . S
C246 C243 1.481 . S
C246 C247 1.297 . S
C246 H260 0.950 . S
C247 C246 1.297 . S
C247 C248 1.479 . S
C247 H261 0.950 1_556 S
C248 C247 1.479 . S
C248 C249 1.375 1_556 S
C248 C254 1.404 . S
C249 C248 1.375 1_554 S
C249 C250 1.369 . S
C249 H262 0.950 . S
C250 C249 1.369 . S
C250 C251 1.392 1_554 S
C250 H263 0.951 . S
C251 C250 1.392 1_556 S
C251 C253 1.384 . S
H252 C254 0.949 . S
C253 C251 1.384 . S
C253 C254 1.385 . S
C253 H255 0.950 . S
C254 C248 1.404 . S
C254 H252 0.949 . S
C254 C253 1.385 . S
H255 C253 0.950 . S
H256 C240 0.951 . S
H257 C242 0.951 . S
H258 C244 0.951 . S
H259 C245 0.950 . S
H260 C246 0.950 . S
H261 C247 0.950 1_554 S
H262 C249 0.950 . S
H263 C250 0.951 . S
C264 C265 1.386 1_554 S
C264 C266 1.383 . S
C264 H280 0.951 . S
C265 C264 1.386 1_556 S
C265 C269 1.383 . S
C266 C264 1.383 . S
C266 C267 1.402 1_554 S
C266 H281 0.951 . S
C267 C266 1.402 1_556 S
C267 C268 1.375 . S
C267 C270 1.481 . S
C268 C267 1.375 . S
C268 C269 1.367 . S
C268 H282 0.951 . S
C269 C265 1.383 . S
C269 C268 1.367 . S
C269 H283 0.950 . S
C270 C267 1.481 . S
C270 C271 1.297 . S
C270 H284 0.950 . S
C271 C270 1.297 . S
C271 C272 1.479 . S
C271 H285 0.950 . S
C272 C271 1.479 . S
C272 C273 1.375 1_556 S
C272 C278 1.404 . S
C273 C272 1.375 1_554 S
C273 C274 1.369 . S
C273 H286 0.950 . S
C274 C273 1.369 . S
C274 C275 1.392 1_554 S
C274 H287 0.951 . S
C275 C274 1.392 1_556 S
C275 C277 1.384 . S
H276 C278 0.949 . S
C277 C275 1.384 . S
C277 C278 1.385 . S
C277 H279 0.950 . S
C278 C272 1.404 . S
C278 H276 0.949 . S
C278 C277 1.385 . S
H279 C277 0.950 . S
H280 C264 0.951 . S
H281 C266 0.951 . S
H282 C268 0.951 . S
H283 C269 0.950 . S
H284 C270 0.950 . S
H285 C271 0.950 . S
H286 C273 0.950 . S
H287 C274 0.951 . S
C288 C289 1.386 . S
C288 C290 1.383 . S
C288 H304 0.951 . S
C289 C288 1.386 . S
C289 C293 1.383 1_556 S
C290 C288 1.383 . S
C290 C291 1.402 . S
C290 H305 0.951 . S
C291 C290 1.402 . S
C291 C292 1.375 1_556 S
C291 C294 1.481 . S
C292 C291 1.375 1_554 S
C292 C293 1.367 . S
C292 H306 0.951 . S
C293 C289 1.383 1_554 S
C293 C292 1.367 . S
C293 H307 0.950 . S
C294 C291 1.481 . S
C294 C295 1.297 . S
C294 H308 0.950 1_556 S
C295 C294 1.297 . S
C295 C296 1.479 . S
C295 H309 0.950 . S
C296 C295 1.479 . S
C296 C297 1.375 . S
C296 C302 1.404 1_556 S
C297 C296 1.375 . S
C297 C298 1.369 . S
C297 H310 0.950 . S
C298 C297 1.369 . S
C298 C299 1.392 . S
C298 H311 0.951 . S
C299 C298 1.392 . S
C299 C301 1.384 1_556 S
H300 C302 0.949 . S
C301 C299 1.384 1_554 S
C301 C302 1.385 . S
C301 H303 0.950 . S
C302 C296 1.404 1_554 S
C302 H300 0.949 . S
C302 C301 1.385 . S
H303 C301 0.950 . S
H304 C288 0.951 . S
H305 C290 0.951 . S
H306 C292 0.951 . S
H307 C293 0.950 . S
H308 C294 0.950 1_554 S
H309 C295 0.950 . S
H310 C297 0.950 . S
H311 C298 0.951 . S
C312 C313 1.386 1_556 S
C312 C314 1.383 . S
C312 H328 0.951 . S
C313 C312 1.386 1_554 S
C313 C317 1.383 . S
C314 C312 1.383 . S
C314 C315 1.402 1_556 S
C314 H329 0.951 . S
C315 C314 1.402 1_554 S
C315 C316 1.375 . S
C315 C318 1.481 . S
C316 C315 1.375 . S
C316 C317 1.367 . S
C316 H330 0.951 . S
C317 C313 1.383 . S
C317 C316 1.367 . S
C317 H331 0.950 . S
C318 C315 1.481 . S
C318 C319 1.297 . S
C318 H332 0.950 . S
C319 C318 1.297 . S
C319 C320 1.479 . S
C319 H333 0.950 1_554 S
C320 C319 1.479 . S
C320 C321 1.375 1_554 S
C320 C326 1.404 . S
C321 C320 1.375 1_556 S
C321 C322 1.369 . S
C321 H334 0.950 . S
C322 C321 1.369 . S
C322 C323 1.392 . S
C322 H335 0.951 . S
C323 C322 1.392 . S
C323 C325 1.384 1_556 S
H324 C326 0.949 . S
C325 C323 1.384 1_554 S
C325 C326 1.385 . S
C325 H327 0.950 . S
C326 C320 1.404 . S
C326 H324 0.949 . S
C326 C325 1.385 . S
H327 C325 0.950 . S
H328 C312 0.951 . S
H329 C314 0.951 . S
H330 C316 0.951 . S
H331 C317 0.950 . S
H332 C318 0.950 . S
H333 C319 0.950 1_556 S
H334 C321 0.950 . S
H335 C322 0.951 . S
C121 C9 1.430 1_455 S
C131 C18 1.406 . S
C145 C58 1.411 . S
C155 C49 1.438 1_545 S
C169 C89 1.448 . S
C179 C98 1.388 . S
C193 C19 1.650 . S
C203 C86 1.666 . S
C217 C59 1.658 . S
C227 C6 1.671 . S
C241 C46 1.665 . S
C251 C90 1.656 . S
C265 C10 1.652 . S
C275 C95 1.655 . S
C289 C15 1.659 . S
C299 C50 1.639 . S
C313 C99 1.660 . S
C323 C55 1.666 . S
