# Generated by pormake.
# Topology uog, (4)-cn, num edge types: 1
# Building blocks:
#     Node 0, Type 0, BuildingBlock: KOZSID_clean_sbu_0, # of connection points: 4
#     Node 1, Type 0, BuildingBlock: KOZSID_clean_sbu_0, # of connection points: 4
#     Node 2, Type 0, BuildingBlock: KOZSID_clean_sbu_0, # of connection points: 4
#     Node 3, Type 0, BuildingBlock: KOZSID_clean_sbu_0, # of connection points: 4
#     Node 4, Type 0, BuildingBlock: KOZSID_clean_sbu_0, # of connection points: 4
#     Node 5, Type 0, BuildingBlock: KOZSID_clean_sbu_0, # of connection points: 4
#     Edge 6, Type (0, 0), None
#     Edge 7, Type (0, 0), None
#     Edge 8, Type (0, 0), None
#     Edge 9, Type (0, 0), None
#     Edge 10, Type (0, 0), None
#     Edge 11, Type (0, 0), None
#     Edge 12, Type (0, 0), None
#     Edge 13, Type (0, 0), None
#     Edge 14, Type (0, 0), None
#     Edge 15, Type (0, 0), None
#     Edge 16, Type (0, 0), None
#     Edge 17, Type (0, 0), None
# Relax obj value: 0.022
# Max RMSD: 0.284
# Mean RMSD: 0.284
data_MOF--net-uog--node1-KOZSID_clean_sbu_0--edge1-none
_symmetry_space_group_name_H-M    P1
_symmetry_Int_Tables_number       1
_symmetry_cell_setting            triclinic
loop_
_symmetry_equiv_pos_as_xyz
'x, y, z'
_cell_length_a     20.91728
_cell_length_b     20.844471
_cell_length_c     23.936208
_cell_angle_alpha  89.998965
_cell_angle_beta   90.003573
_cell_angle_gamma 120.10134
loop_
_atom_site_label
_atom_site_type_symbol
_atom_site_fract_x
_atom_site_fract_y
_atom_site_fract_z
_atom_type_partial_charge
C0 C 0.61457 0.38196 0.26173 0.0
C1 C 0.54636 0.3738 0.27537 0.0
C2 C 0.49651 0.32685 0.23622 0.0
C3 C 0.53671 0.31036 0.19934 0.0
N4 N 0.60861 0.34378 0.21304 0.0
Co5 Co 0.68804 0.35961 0.15951 0.0
N6 N 0.62175 0.30609 0.09534 0.0
C7 C 0.54765 0.26894 0.09867 0.0
C8 C 0.51473 0.23459 0.04926 0.0
C9 C 0.57184 0.25057 0.01281 0.0
C10 C 0.63731 0.2949 0.04141 0.0
N11 N 0.77321 0.38273 0.10705 0.0
C12 C 0.77665 0.36672 0.05225 0.0
C13 C 0.84926 0.39166 0.03572 0.0
C14 C 0.89251 0.42102 0.08093 0.0
C15 C 0.8448 0.41293 0.12251 0.0
N16 N 0.75856 0.40841 0.22282 0.0
C17 C 0.82734 0.41841 0.22529 0.0
C18 C 0.85734 0.43051 0.2773 0.0
C19 C 0.80463 0.42952 0.31029 0.0
C20 C 0.7473 0.4211 0.27622 0.0
N21 N 0.6759 0.2585 0.17963 0.0
C22 C 0.60233 0.09762 0.18877 0.0
C23 C 0.64564 0.13663 0.14222 0.0
C24 C 0.68268 0.2153 0.13914 0.0
C25 C 0.60311 0.14282 0.23315 0.0
C26 C 0.63953 0.22195 0.22778 0.0
N27 N 0.6829 0.45382 0.1402 0.0
C28 C 0.65783 0.54746 0.18271 0.0
C29 C 0.60185 0.53476 0.14353 0.0
C30 C 0.59478 0.48739 0.09965 0.0
C31 C 0.63449 0.44881 0.0988 0.0
C32 C 0.69882 0.50889 0.17917 0.0
H33 H 0.61852 0.40978 0.06607 0.0
H34 H 0.74015 0.52109 0.21059 0.0
H35 H 0.71276 0.23976 0.10155 0.0
H36 H 0.63432 0.2528 0.26195 0.0
C37 C 0.5125 0.27499 0.14705 0.0
C38 C 0.68412 0.4267 0.29618 0.0
C39 C 0.71285 0.32251 0.01596 0.0
C40 C 0.86506 0.42286 0.17759 0.0
H41 H 0.53408 0.39858 0.31047 0.0
H42 H 0.43858 0.31018 0.23334 0.0
H43 H 0.45616 0.20274 0.04035 0.0
H44 H 0.56612 0.232 0.96993 0.0
H45 H 0.87012 0.38451 -0.00313 0.0
H46 H 0.9511 0.44057 0.08413 0.0
H47 H 0.91068 0.43863 0.28971 0.0
H48 H 0.80667 0.43154 0.35473 0.0
H49 H 0.65001 0.1062 0.10717 0.0
H50 H 0.57241 0.11717 0.27094 0.0
H51 H 0.67008 0.58693 0.21616 0.0
H52 H 0.55546 0.47709 0.06652 0.0
C53 C 0.28825 0.60048 0.58932 0.0
C54 C 0.23495 0.53304 0.61132 0.0
C55 C 0.22389 0.47889 0.57293 0.0
C56 C 0.27074 0.5155 0.52907 0.0
N57 N 0.31142 0.58898 0.53828 0.0
Co58 Co 0.38202 0.66022 0.4829 0.0
N59 N 0.37616 0.58602 0.42792 0.0
C60 C 0.33281 0.51237 0.43452 0.0
C61 C 0.33923 0.47351 0.39047 0.0
C62 C 0.39064 0.52616 0.35462 0.0
C63 C 0.41357 0.59513 0.37824 0.0
N64 N 0.45374 0.73742 0.42807 0.0
C65 C 0.49722 0.73251 0.3878 0.0
C66 C 0.55494 0.80243 0.37273 0.0
C67 C 0.54476 0.85274 0.40025 0.0
C68 C 0.48434 0.81168 0.4327 0.0
N69 N 0.39421 0.74133 0.53646 0.0
C70 C 0.4305 0.81481 0.52501 0.0
C71 C 0.42292 0.85892 0.56293 0.0
C72 C 0.37687 0.81158 0.60134 0.0
C73 C 0.35929 0.74029 0.58477 0.0
N74 N 0.46624 0.6461 0.5158 0.0
C75 C 0.55673 0.57461 0.5172 0.0
C76 C 0.58354 0.64784 0.49688 0.0
C77 C 0.53823 0.68202 0.49655 0.0
C78 C 0.48718 0.54289 0.54218 0.0
C79 C 0.44557 0.57962 0.54295 0.0
N80 N 0.28499 0.65131 0.45089 0.0
C81 C 0.16637 0.642 0.47934 0.0
C82 C 0.12233 0.576 0.44882 0.0
C83 C 0.16263 0.55428 0.41486 0.0
C84 C 0.24133 0.59233 0.41558 0.0
C85 C 0.24587 0.67847 0.47936 0.0
H86 H 0.26493 0.56974 0.38768 0.0
H87 H 0.27427 0.72762 0.50434 0.0
H88 H 0.56216 0.73726 0.47984 0.0
H89 H 0.395 0.55039 0.5655 0.0
C90 C 0.28443 0.48392 0.48115 0.0
C91 C 0.31071 0.67414 0.61709 0.0
C92 C 0.47383 0.66722 0.35253 0.0
C93 C 0.469 0.84227 0.47691 0.0
H94 H 0.20608 0.52429 0.65061 0.0
H95 H 0.18646 0.41982 0.57688 0.0
H96 H 0.30995 0.41398 0.38481 0.0
H97 H 0.41009 0.51524 0.31585 0.0
H98 H 0.59993 0.81775 0.34431 0.0
H99 H 0.5808 0.91237 0.4 0.0
H100 H 0.4461 0.91847 0.56162 0.0
H101 H 0.35827 0.82994 0.63635 0.0
H102 H 0.63881 0.67821 0.47972 0.0
H103 H 0.46453 0.48923 0.56221 0.0
H104 H 0.13957 0.66496 0.50441 0.0
H105 H 0.13329 0.50667 0.38769 0.0
C106 C 0.76904 0.29531 0.93055 0.0
C107 C 0.7875 0.24704 0.95625 0.0
C108 C 0.82886 0.2333 0.91851 0.0
C109 C 0.83251 0.27246 0.87123 0.0
N110 N 0.79645 0.31021 0.87687 0.0
Co111 Co 0.77754 0.3615 0.81403 0.0
N112 N 0.83836 0.34539 0.75792 0.0
C113 C 0.87631 0.31055 0.76879 0.0
C114 C 0.92664 0.32143 0.72762 0.0
C115 C 0.92035 0.36646 0.68859 0.0
C116 C 0.86501 0.37961 0.70713 0.0
N117 N 0.75151 0.4093 0.75192 0.0
C118 C 0.77488 0.42555 0.69825 0.0
C119 C 0.7312 0.44595 0.66791 0.0
C120 C 0.68189 0.44717 0.70363 0.0
C121 C 0.69671 0.42561 0.75338 0.0
N122 N 0.71899 0.38453 0.86899 0.0
C123 C 0.68116 0.41966 0.85734 0.0
C124 C 0.65512 0.43867 0.90277 0.0
C125 C 0.67532 0.41176 0.9464 0.0
C126 C 0.70951 0.37479 0.92507 0.0
N127 N 0.87498 0.4574 0.83191 0.0
C128 C 1.03602 0.53672 0.83677 0.0
C129 C 0.99679 0.5425 0.79083 0.0
C130 C 0.91783 0.506 0.7905 0.0
C131 C 0.99147 0.49853 0.88316 0.0
C132 C 0.91268 0.46106 0.88003 0.0
N133 N 0.68807 0.25894 0.79664 0.0
C134 C 0.59834 0.13754 0.83649 0.0
C135 C 0.59951 0.09725 0.78949 0.0
C136 C 0.64167 0.14187 0.74399 0.0
C137 C 0.68496 0.22119 0.74841 0.0
C138 C 0.64042 0.21652 0.83861 0.0
H139 H 0.71867 0.25134 0.7132 0.0
H140 H 0.63675 0.24214 0.87634 0.0
H141 H 0.8923 0.5153 0.75508 0.0
H142 H 0.88242 0.43187 0.91618 0.0
C143 C 0.86918 0.27635 0.82095 0.0
C144 C 0.72518 0.32557 0.9587 0.0
C145 C 0.83885 0.42424 0.67447 0.0
C146 C 0.66861 0.43232 0.80333 0.0
H147 H 0.77322 0.22495 -0.00179 0.0
H148 H 0.85298 0.19848 0.92479 0.0
H149 H 0.96555 0.30158 0.72706 0.0
H150 H 0.95209 0.3868 0.65045 0.0
H151 H 0.73432 0.4585 0.62432 0.0
H152 H 0.64192 0.46439 0.69486 0.0
H153 H 0.62476 0.46814 0.90397 0.0
H154 H 0.66523 0.41813 -0.01105 0.0
H155 H 1.02692 0.57539 0.75492 0.0
H156 H 1.017 0.49463 0.92138 0.0
H157 H 0.56528 0.10799 0.87249 0.0
H158 H 0.64433 0.11564 0.70572 0.0
C159 C 0.54376 0.72723 0.26135 0.0
C160 C 0.61194 0.73516 0.27478 0.0
C161 C 0.66171 0.78212 0.23558 0.0
C162 C 0.62148 0.79881 0.19889 0.0
N163 N 0.54964 0.76551 0.21274 0.0
Co164 Co 0.47006 0.74972 0.15935 0.0
N165 N 0.53614 0.80307 0.09506 0.0
C166 C 0.61026 0.84017 0.09825 0.0
C167 C 0.64302 0.87424 0.04873 0.0
C168 C 0.58578 0.85813 0.01236 0.0
C169 C 0.5204 0.81402 0.04112 0.0
N170 N 0.38474 0.72667 0.10708 0.0
C171 C 0.38111 0.74243 0.05226 0.0
C172 C 0.30845 0.71749 0.03583 0.0
C173 C 0.26539 0.68853 0.08118 0.0
C174 C 0.31323 0.69677 0.12271 0.0
N175 N 0.39972 0.70109 0.22279 0.0
C176 C 0.33109 0.69143 0.22545 0.0
C177 C 0.3013 0.67939 0.27754 0.0
C178 C 0.35401 0.68009 0.31036 0.0
C179 C 0.4111 0.68827 0.27613 0.0
N180 N 0.48239 0.85089 0.1795 0.0
C181 C 0.55602 1.01176 0.18873 0.0
C182 C 0.51276 0.97282 0.14214 0.0
C183 C 0.47571 0.89415 0.139 0.0
C184 C 0.55518 0.9665 0.23309 0.0
C185 C 0.51875 0.88738 0.22767 0.0
N186 N 0.47502 0.65543 0.14001 0.0
C187 C 0.49987 0.56165 0.18256 0.0
C188 C 0.55592 0.57434 0.14348 0.0
C189 C 0.56316 0.62177 0.0996 0.0
C190 C 0.52352 0.66042 0.09867 0.0
C191 C 0.45894 0.60029 0.17895 0.0
H192 H 0.53965 0.69948 0.06591 0.0
H193 H 0.41753 0.5881 0.2103 0.0
H194 H 0.44569 0.86973 0.10138 0.0
H195 H 0.52392 0.85647 0.26182 0.0
C196 C 0.64554 0.83412 0.14656 0.0
C197 C 0.47427 0.68254 0.29587 0.0
C198 C 0.44479 0.78648 0.01583 0.0
C199 C 0.29321 0.68707 0.17784 0.0
H200 H 0.62425 0.71022 0.30975 0.0
H201 H 0.71958 0.79861 0.23254 0.0
H202 H 0.70155 0.90594 0.03968 0.0
H203 H 0.59137 0.87648 0.96943 0.0
H204 H 0.28748 0.72432 -0.00309 0.0
H205 H 0.20682 0.66906 0.08448 0.0
H206 H 0.24809 0.67149 0.2901 0.0
H207 H 0.35216 0.67805 0.3548 0.0
H208 H 0.50845 1.0033 0.10709 0.0
H209 H 0.58585 0.9921 0.27091 0.0
H210 H 0.48751 0.52215 0.21601 0.0
H211 H 0.60256 0.63207 0.06653 0.0
C212 C 0.87012 0.50813 0.58965 0.0
C213 C 0.92326 0.57556 0.61178 0.0
C214 C 0.93434 0.62976 0.57343 0.0
C215 C 0.88766 0.59321 0.52948 0.0
N216 N 0.84707 0.51969 0.53858 0.0
Co217 Co 0.77665 0.44851 0.48307 0.0
N218 N 0.78238 0.52282 0.42823 0.0
C219 C 0.82562 0.59646 0.43494 0.0
C220 C 0.81899 0.63539 0.39103 0.0
C221 C 0.76755 0.58278 0.35516 0.0
C222 C 0.74482 0.51378 0.37864 0.0
N223 N 0.70515 0.37136 0.4281 0.0
C224 C 0.66156 0.37619 0.38789 0.0
C225 C 0.60413 0.3062 0.37261 0.0
C226 C 0.61466 0.25598 0.39994 0.0
C227 C 0.67495 0.29712 0.43249 0.0
N228 N 0.76458 0.36731 0.53649 0.0
C229 C 0.7286 0.29388 0.52486 0.0
C230 C 0.73613 0.24974 0.56278 0.0
C231 C 0.78185 0.29701 0.60138 0.0
C232 C 0.79932 0.3683 0.58488 0.0
N233 N 0.69225 0.46235 0.51595 0.0
C234 C 0.60169 0.53376 0.51724 0.0
C235 C 0.57498 0.46059 0.49683 0.0
C236 C 0.62032 0.42644 0.49656 0.0
C237 C 0.67115 0.56544 0.54237 0.0
C238 C 0.71278 0.52874 0.54319 0.0
N239 N 0.8738 0.45773 0.45106 0.0
C240 C 0.99249 0.46706 0.47938 0.0
C241 C 1.03647 0.53308 0.44885 0.0
C242 C 0.99611 0.55484 0.415 0.0
C243 C 0.91741 0.51679 0.4158 0.0
C244 C 0.91299 0.43058 0.47947 0.0
H245 H 0.89377 0.53945 0.38801 0.0
H246 H 0.88466 0.38146 0.50447 0.0
H247 H 0.59646 0.37123 0.47979 0.0
H248 H 0.76325 0.5579 0.56588 0.0
C249 C 0.87395 0.62486 0.4816 0.0
C250 C 0.84767 0.43442 0.61731 0.0
C251 C 0.68465 0.44167 0.35291 0.0
C252 C 0.69038 0.2665 0.47663 0.0
H253 H 0.95201 0.58425 0.65112 0.0
H254 H 0.97165 0.68884 0.5775 0.0
H255 H 0.84812 0.69493 0.38549 0.0
H256 H 0.74795 0.59375 0.31649 0.0
H257 H 0.55913 0.29078 0.34418 0.0
H258 H 0.57888 0.19631 0.39951 0.0
H259 H 0.71312 0.19021 0.56138 0.0
H260 H 0.80027 0.27862 0.63648 0.0
H261 H 0.51978 0.43024 0.47955 0.0
H262 H 0.6937 0.61904 0.56248 0.0
H263 H 1.01934 0.4441 0.50438 0.0
H264 H 1.02539 0.6025 0.38788 0.0
C265 C 0.38846 0.81331 0.93032 0.0
C266 C 0.37003 0.86168 0.95588 0.0
C267 C 0.32871 0.87534 0.91803 0.0
C268 C 0.32506 0.83604 0.87084 0.0
N269 N 0.36108 0.79826 0.87663 0.0
Co270 Co 0.37998 0.74673 0.81396 0.0
N271 N 0.31945 0.76296 0.75765 0.0
C272 C 0.28151 0.79786 0.76836 0.0
C273 C 0.23139 0.7871 0.72705 0.0
C274 C 0.23781 0.74208 0.68807 0.0
C275 C 0.293 0.72882 0.70681 0.0
N276 N 0.40601 0.69864 0.75204 0.0
C277 C 0.38287 0.68244 0.69831 0.0
C278 C 0.42641 0.66164 0.6682 0.0
C279 C 0.47536 0.66011 0.70414 0.0
C280 C 0.46049 0.68188 0.75378 0.0
N281 N 0.43818 0.72355 0.86915 0.0
C282 C 0.47556 0.68788 0.85779 0.0
C283 C 0.50093 0.66847 0.90343 0.0
C284 C 0.48073 0.69566 0.94689 0.0
C285 C 0.44736 0.73326 0.92524 0.0
N286 N 0.28239 0.65101 0.83182 0.0
C287 C 0.12135 0.57179 0.83675 0.0
C288 C 0.16052 0.56604 0.79076 0.0
C289 C 0.23947 0.6025 0.79039 0.0
C290 C 0.16596 0.60995 0.88313 0.0
C291 C 0.24475 0.64739 0.87997 0.0
N292 N 0.46965 0.84916 0.79659 0.0
C293 C 0.55941 0.97053 0.83649 0.0
C294 C 0.55831 1.01085 0.78948 0.0
C295 C 0.51621 0.96626 0.74395 0.0
C296 C 0.47289 0.88694 0.74835 0.0
C297 C 0.51728 0.89155 0.83859 0.0
H298 H 0.43925 0.85682 0.71311 0.0
H299 H 0.5209 0.86589 0.87632 0.0
H300 H 0.26494 0.59325 0.75491 0.0
H301 H 0.27505 0.6766 0.91613 0.0
C302 C 0.28852 0.83211 0.82048 0.0
C303 C 0.43224 0.78306 0.9586 0.0
C304 C 0.31926 0.68419 0.67427 0.0
C305 C 0.48818 0.67496 0.80386 0.0
H306 H 0.3843 0.88388 -0.0022 0.0
H307 H 0.30464 0.91023 0.92418 0.0
H308 H 0.19256 0.80703 0.72633 0.0
H309 H 0.20625 0.72183 0.64984 0.0
H310 H 0.42341 0.64897 0.62464 0.0
H311 H 0.5151 0.64253 0.69558 0.0
H312 H 0.53072 0.63844 0.90488 0.0
H313 H 0.49006 0.68892 -0.01044 0.0
H314 H 0.13035 0.53321 0.75484 0.0
H315 H 0.14048 0.61384 0.92137 0.0
H316 H 0.59243 1.00005 0.87251 0.0
H317 H 0.51363 0.99251 0.70567 0.0
loop_
_geom_bond_atom_site_label_1
_geom_bond_atom_site_label_2
_geom_bond_distance
_geom_bond_site_symmetry_2
_ccdc_geom_bond_type
C0 C1 1.443 . S
C0 N4 1.376 . S
C0 C38 1.389 . S
C1 C0 1.443 . S
C1 C2 1.340 . S
C1 H41 0.951 . S
C2 C1 1.340 . S
C2 C3 1.439 . S
C2 H42 0.950 . S
C3 C2 1.439 . S
C3 N4 1.374 . S
C3 C37 1.395 . S
N4 C0 1.376 . S
N4 C3 1.374 . S
N4 Co5 2.008 . S
Co5 N4 2.008 . S
Co5 N6 1.995 . S
Co5 N11 2.008 . S
Co5 N16 1.995 . S
Co5 N21 2.282 . S
Co5 N27 2.282 . S
N6 Co5 1.995 . S
N6 C7 1.376 . S
N6 C10 1.383 . S
C7 N6 1.376 . S
C7 C8 1.446 . S
C7 C37 1.391 . S
C8 C7 1.446 . S
C8 C9 1.339 . S
C8 H43 0.949 . S
C9 C8 1.339 . S
C9 C10 1.439 . S
C9 H44 0.950 1_554 S
C10 N6 1.383 . S
C10 C9 1.439 . S
C10 C39 1.392 . S
N11 Co5 2.008 . S
N11 C12 1.376 . S
N11 C15 1.374 . S
C12 N11 1.376 . S
C12 C13 1.443 . S
C12 C39 1.389 . S
C13 C12 1.443 . S
C13 C14 1.340 . S
C13 H45 0.951 1_554 S
C14 C13 1.340 . S
C14 C15 1.439 . S
C14 H46 0.950 . S
C15 N11 1.374 . S
C15 C14 1.439 . S
C15 C40 1.395 . S
N16 Co5 1.995 . S
N16 C17 1.376 . S
N16 C20 1.383 . S
C17 N16 1.376 . S
C17 C18 1.446 . S
C17 C40 1.391 . S
C18 C17 1.446 . S
C18 C19 1.339 . S
C18 H47 0.949 . S
C19 C18 1.339 . S
C19 C20 1.439 . S
C19 H48 0.950 . S
C20 N16 1.383 . S
C20 C19 1.439 . S
C20 C38 1.392 . S
N21 Co5 2.282 . S
N21 C24 1.332 . S
N21 C26 1.332 . S
C22 C23 1.386 . S
C22 C25 1.388 . S
C23 C22 1.386 . S
C23 C24 1.382 . S
C23 H49 0.950 . S
C24 N21 1.332 . S
C24 C23 1.382 . S
C24 H35 0.952 . S
C25 C22 1.388 . S
C25 C26 1.382 . S
C25 H50 0.950 . S
C26 N21 1.332 . S
C26 C25 1.382 . S
C26 H36 0.948 . S
N27 Co5 2.282 . S
N27 C31 1.332 . S
N27 C32 1.332 . S
C28 C29 1.388 . S
C28 C32 1.382 . S
C28 H51 0.950 . S
C29 C28 1.388 . S
C29 C30 1.386 . S
C30 C29 1.386 . S
C30 C31 1.382 . S
C30 H52 0.950 . S
C31 N27 1.332 . S
C31 C30 1.382 . S
C31 H33 0.952 . S
C32 N27 1.332 . S
C32 C28 1.382 . S
C32 H34 0.948 . S
H33 C31 0.952 . S
H34 C32 0.948 . S
H35 C24 0.952 . S
H36 C26 0.948 . S
C37 C3 1.395 . S
C37 C7 1.391 . S
C38 C0 1.389 . S
C38 C20 1.392 . S
C39 C10 1.392 . S
C39 C12 1.389 . S
C40 C15 1.395 . S
C40 C17 1.391 . S
H41 C1 0.951 . S
H42 C2 0.950 . S
H43 C8 0.949 . S
H44 C9 0.950 1_556 S
H45 C13 0.951 1_556 S
H46 C14 0.950 . S
H47 C18 0.949 . S
H48 C19 0.950 . S
H49 C23 0.950 . S
H50 C25 0.950 . S
H51 C28 0.950 . S
H52 C30 0.950 . S
C53 C54 1.443 . S
C53 N57 1.376 . S
C53 C91 1.389 . S
C54 C53 1.443 . S
C54 C55 1.340 . S
C54 H94 0.951 . S
C55 C54 1.340 . S
C55 C56 1.439 . S
C55 H95 0.950 . S
C56 C55 1.439 . S
C56 N57 1.374 . S
C56 C90 1.395 . S
N57 C53 1.376 . S
N57 C56 1.374 . S
N57 Co58 2.008 . S
Co58 N57 2.008 . S
Co58 N59 1.995 . S
Co58 N64 2.008 . S
Co58 N69 1.995 . S
Co58 N74 2.282 . S
Co58 N80 2.282 . S
N59 Co58 1.995 . S
N59 C60 1.376 . S
N59 C63 1.383 . S
C60 N59 1.376 . S
C60 C61 1.446 . S
C60 C90 1.391 . S
C61 C60 1.446 . S
C61 C62 1.339 . S
C61 H96 0.949 . S
C62 C61 1.339 . S
C62 C63 1.439 . S
C62 H97 0.950 . S
C63 N59 1.383 . S
C63 C62 1.439 . S
C63 C92 1.392 . S
N64 Co58 2.008 . S
N64 C65 1.376 . S
N64 C68 1.374 . S
C65 N64 1.376 . S
C65 C66 1.443 . S
C65 C92 1.389 . S
C66 C65 1.443 . S
C66 C67 1.340 . S
C66 H98 0.951 . S
C67 C66 1.340 . S
C67 C68 1.439 . S
C67 H99 0.950 . S
C68 N64 1.374 . S
C68 C67 1.439 . S
C68 C93 1.395 . S
N69 Co58 1.995 . S
N69 C70 1.376 . S
N69 C73 1.383 . S
C70 N69 1.376 . S
C70 C71 1.446 . S
C70 C93 1.391 . S
C71 C70 1.446 . S
C71 C72 1.339 . S
C71 H100 0.949 . S
C72 C71 1.339 . S
C72 C73 1.439 . S
C72 H101 0.950 . S
C73 N69 1.383 . S
C73 C72 1.439 . S
C73 C91 1.392 . S
N74 Co58 2.282 . S
N74 C77 1.332 . S
N74 C79 1.332 . S
C75 C76 1.386 . S
C75 C78 1.388 . S
C76 C75 1.386 . S
C76 C77 1.382 . S
C76 H102 0.950 . S
C77 N74 1.332 . S
C77 C76 1.382 . S
C77 H88 0.952 . S
C78 C75 1.388 . S
C78 C79 1.382 . S
C78 H103 0.950 . S
C79 N74 1.332 . S
C79 C78 1.382 . S
C79 H89 0.948 . S
N80 Co58 2.282 . S
N80 C84 1.332 . S
N80 C85 1.332 . S
C81 C82 1.388 . S
C81 C85 1.382 . S
C81 H104 0.950 . S
C82 C81 1.388 . S
C82 C83 1.386 . S
C83 C82 1.386 . S
C83 C84 1.382 . S
C83 H105 0.950 . S
C84 N80 1.332 . S
C84 C83 1.382 . S
C84 H86 0.952 . S
C85 N80 1.332 . S
C85 C81 1.382 . S
C85 H87 0.948 . S
H86 C84 0.952 . S
H87 C85 0.948 . S
H88 C77 0.952 . S
H89 C79 0.948 . S
C90 C56 1.395 . S
C90 C60 1.391 . S
C91 C53 1.389 . S
C91 C73 1.392 . S
C92 C63 1.392 . S
C92 C65 1.389 . S
C93 C68 1.395 . S
C93 C70 1.391 . S
H94 C54 0.951 . S
H95 C55 0.950 . S
H96 C61 0.949 . S
H97 C62 0.950 . S
H98 C66 0.951 . S
H99 C67 0.950 . S
H100 C71 0.949 . S
H101 C72 0.950 . S
H102 C76 0.950 . S
H103 C78 0.950 . S
H104 C81 0.950 . S
H105 C83 0.950 . S
C106 C107 1.443 . S
C106 N110 1.376 . S
C106 C144 1.389 . S
C107 C106 1.443 . S
C107 C108 1.340 . S
C107 H147 0.951 1_556 S
C108 C107 1.340 . S
C108 C109 1.439 . S
C108 H148 0.950 . S
C109 C108 1.439 . S
C109 N110 1.374 . S
C109 C143 1.395 . S
N110 C106 1.376 . S
N110 C109 1.374 . S
N110 Co111 2.008 . S
Co111 N110 2.008 . S
Co111 N112 1.995 . S
Co111 N117 2.008 . S
Co111 N122 1.995 . S
Co111 N127 2.282 . S
Co111 N133 2.282 . S
N112 Co111 1.995 . S
N112 C113 1.376 . S
N112 C116 1.383 . S
C113 N112 1.376 . S
C113 C114 1.446 . S
C113 C143 1.391 . S
C114 C113 1.446 . S
C114 C115 1.339 . S
C114 H149 0.949 . S
C115 C114 1.339 . S
C115 C116 1.439 . S
C115 H150 0.950 . S
C116 N112 1.383 . S
C116 C115 1.439 . S
C116 C145 1.392 . S
N117 Co111 2.008 . S
N117 C118 1.376 . S
N117 C121 1.374 . S
C118 N117 1.376 . S
C118 C119 1.443 . S
C118 C145 1.389 . S
C119 C118 1.443 . S
C119 C120 1.340 . S
C119 H151 0.951 . S
C120 C119 1.340 . S
C120 C121 1.439 . S
C120 H152 0.950 . S
C121 N117 1.374 . S
C121 C120 1.439 . S
C121 C146 1.395 . S
N122 Co111 1.995 . S
N122 C123 1.376 . S
N122 C126 1.383 . S
C123 N122 1.376 . S
C123 C124 1.446 . S
C123 C146 1.391 . S
C124 C123 1.446 . S
C124 C125 1.339 . S
C124 H153 0.949 . S
C125 C124 1.339 . S
C125 C126 1.439 . S
C125 H154 0.950 1_556 S
C126 N122 1.383 . S
C126 C125 1.439 . S
C126 C144 1.392 . S
N127 Co111 2.282 . S
N127 C130 1.332 . S
N127 C132 1.332 . S
C128 C129 1.386 . S
C128 C131 1.388 . S
C129 C128 1.386 . S
C129 C130 1.382 . S
C129 H155 0.950 . S
C130 N127 1.332 . S
C130 C129 1.382 . S
C130 H141 0.952 . S
C131 C128 1.388 . S
C131 C132 1.382 . S
C131 H156 0.950 . S
C132 N127 1.332 . S
C132 C131 1.382 . S
C132 H142 0.948 . S
N133 Co111 2.282 . S
N133 C137 1.332 . S
N133 C138 1.332 . S
C134 C135 1.388 . S
C134 C138 1.382 . S
C134 H157 0.950 . S
C135 C134 1.388 . S
C135 C136 1.386 . S
C136 C135 1.386 . S
C136 C137 1.382 . S
C136 H158 0.950 . S
C137 N133 1.332 . S
C137 C136 1.382 . S
C137 H139 0.952 . S
C138 N133 1.332 . S
C138 C134 1.382 . S
C138 H140 0.948 . S
H139 C137 0.952 . S
H140 C138 0.948 . S
H141 C130 0.952 . S
H142 C132 0.948 . S
C143 C109 1.395 . S
C143 C113 1.391 . S
C144 C106 1.389 . S
C144 C126 1.392 . S
C145 C116 1.392 . S
C145 C118 1.389 . S
C146 C121 1.395 . S
C146 C123 1.391 . S
H147 C107 0.951 1_554 S
H148 C108 0.950 . S
H149 C114 0.949 . S
H150 C115 0.950 . S
H151 C119 0.951 . S
H152 C120 0.950 . S
H153 C124 0.949 . S
H154 C125 0.950 1_554 S
H155 C129 0.950 . S
H156 C131 0.950 . S
H157 C134 0.950 . S
H158 C136 0.950 . S
C159 C160 1.443 . S
C159 N163 1.376 . S
C159 C197 1.389 . S
C160 C159 1.443 . S
C160 C161 1.340 . S
C160 H200 0.951 . S
C161 C160 1.340 . S
C161 C162 1.439 . S
C161 H201 0.950 . S
C162 C161 1.439 . S
C162 N163 1.374 . S
C162 C196 1.395 . S
N163 C159 1.376 . S
N163 C162 1.374 . S
N163 Co164 2.008 . S
Co164 N163 2.008 . S
Co164 N165 1.995 . S
Co164 N170 2.008 . S
Co164 N175 1.995 . S
Co164 N180 2.282 . S
Co164 N186 2.282 . S
N165 Co164 1.995 . S
N165 C166 1.376 . S
N165 C169 1.383 . S
C166 N165 1.376 . S
C166 C167 1.446 . S
C166 C196 1.391 . S
C167 C166 1.446 . S
C167 C168 1.339 . S
C167 H202 0.949 . S
C168 C167 1.339 . S
C168 C169 1.439 . S
C168 H203 0.950 1_554 S
C169 N165 1.383 . S
C169 C168 1.439 . S
C169 C198 1.392 . S
N170 Co164 2.008 . S
N170 C171 1.376 . S
N170 C174 1.374 . S
C171 N170 1.376 . S
C171 C172 1.443 . S
C171 C198 1.389 . S
C172 C171 1.443 . S
C172 C173 1.340 . S
C172 H204 0.951 1_554 S
C173 C172 1.340 . S
C173 C174 1.439 . S
C173 H205 0.950 . S
C174 N170 1.374 . S
C174 C173 1.439 . S
C174 C199 1.395 . S
N175 Co164 1.995 . S
N175 C176 1.376 . S
N175 C179 1.383 . S
C176 N175 1.376 . S
C176 C177 1.446 . S
C176 C199 1.391 . S
C177 C176 1.446 . S
C177 C178 1.339 . S
C177 H206 0.949 . S
C178 C177 1.339 . S
C178 C179 1.439 . S
C178 H207 0.950 . S
C179 N175 1.383 . S
C179 C178 1.439 . S
C179 C197 1.392 . S
N180 Co164 2.282 . S
N180 C183 1.332 . S
N180 C185 1.332 . S
C181 C182 1.386 . S
C181 C184 1.388 . S
C182 C181 1.386 . S
C182 C183 1.382 . S
C182 H208 0.950 . S
C183 N180 1.332 . S
C183 C182 1.382 . S
C183 H194 0.952 . S
C184 C181 1.388 . S
C184 C185 1.382 . S
C184 H209 0.950 . S
C185 N180 1.332 . S
C185 C184 1.382 . S
C185 H195 0.948 . S
N186 Co164 2.282 . S
N186 C190 1.332 . S
N186 C191 1.332 . S
C187 C188 1.388 . S
C187 C191 1.382 . S
C187 H210 0.950 . S
C188 C187 1.388 . S
C188 C189 1.386 . S
C189 C188 1.386 . S
C189 C190 1.382 . S
C189 H211 0.950 . S
C190 N186 1.332 . S
C190 C189 1.382 . S
C190 H192 0.952 . S
C191 N186 1.332 . S
C191 C187 1.382 . S
C191 H193 0.948 . S
H192 C190 0.952 . S
H193 C191 0.948 . S
H194 C183 0.952 . S
H195 C185 0.948 . S
C196 C162 1.395 . S
C196 C166 1.391 . S
C197 C159 1.389 . S
C197 C179 1.392 . S
C198 C169 1.392 . S
C198 C171 1.389 . S
C199 C174 1.395 . S
C199 C176 1.391 . S
H200 C160 0.951 . S
H201 C161 0.950 . S
H202 C167 0.949 . S
H203 C168 0.950 1_556 S
H204 C172 0.951 1_556 S
H205 C173 0.950 . S
H206 C177 0.949 . S
H207 C178 0.950 . S
H208 C182 0.950 . S
H209 C184 0.950 . S
H210 C187 0.950 . S
H211 C189 0.950 . S
C212 C213 1.443 . S
C212 N216 1.376 . S
C212 C250 1.389 . S
C213 C212 1.443 . S
C213 C214 1.340 . S
C213 H253 0.951 . S
C214 C213 1.340 . S
C214 C215 1.439 . S
C214 H254 0.950 . S
C215 C214 1.439 . S
C215 N216 1.374 . S
C215 C249 1.395 . S
N216 C212 1.376 . S
N216 C215 1.374 . S
N216 Co217 2.008 . S
Co217 N216 2.008 . S
Co217 N218 1.995 . S
Co217 N223 2.008 . S
Co217 N228 1.995 . S
Co217 N233 2.282 . S
Co217 N239 2.282 . S
N218 Co217 1.995 . S
N218 C219 1.376 . S
N218 C222 1.383 . S
C219 N218 1.376 . S
C219 C220 1.446 . S
C219 C249 1.391 . S
C220 C219 1.446 . S
C220 C221 1.339 . S
C220 H255 0.949 . S
C221 C220 1.339 . S
C221 C222 1.439 . S
C221 H256 0.950 . S
C222 N218 1.383 . S
C222 C221 1.439 . S
C222 C251 1.392 . S
N223 Co217 2.008 . S
N223 C224 1.376 . S
N223 C227 1.374 . S
C224 N223 1.376 . S
C224 C225 1.443 . S
C224 C251 1.389 . S
C225 C224 1.443 . S
C225 C226 1.340 . S
C225 H257 0.951 . S
C226 C225 1.340 . S
C226 C227 1.439 . S
C226 H258 0.950 . S
C227 N223 1.374 . S
C227 C226 1.439 . S
C227 C252 1.395 . S
N228 Co217 1.995 . S
N228 C229 1.376 . S
N228 C232 1.383 . S
C229 N228 1.376 . S
C229 C230 1.446 . S
C229 C252 1.391 . S
C230 C229 1.446 . S
C230 C231 1.339 . S
C230 H259 0.949 . S
C231 C230 1.339 . S
C231 C232 1.439 . S
C231 H260 0.950 . S
C232 N228 1.383 . S
C232 C231 1.439 . S
C232 C250 1.392 . S
N233 Co217 2.282 . S
N233 C236 1.332 . S
N233 C238 1.332 . S
C234 C235 1.386 . S
C234 C237 1.388 . S
C235 C234 1.386 . S
C235 C236 1.382 . S
C235 H261 0.950 . S
C236 N233 1.332 . S
C236 C235 1.382 . S
C236 H247 0.952 . S
C237 C234 1.388 . S
C237 C238 1.382 . S
C237 H262 0.950 . S
C238 N233 1.332 . S
C238 C237 1.382 . S
C238 H248 0.948 . S
N239 Co217 2.282 . S
N239 C243 1.332 . S
N239 C244 1.332 . S
C240 C241 1.388 . S
C240 C244 1.382 . S
C240 H263 0.950 . S
C241 C240 1.388 . S
C241 C242 1.386 . S
C242 C241 1.386 . S
C242 C243 1.382 . S
C242 H264 0.950 . S
C243 N239 1.332 . S
C243 C242 1.382 . S
C243 H245 0.952 . S
C244 N239 1.332 . S
C244 C240 1.382 . S
C244 H246 0.948 . S
H245 C243 0.952 . S
H246 C244 0.948 . S
H247 C236 0.952 . S
H248 C238 0.948 . S
C249 C215 1.395 . S
C249 C219 1.391 . S
C250 C212 1.389 . S
C250 C232 1.392 . S
C251 C222 1.392 . S
C251 C224 1.389 . S
C252 C227 1.395 . S
C252 C229 1.391 . S
H253 C213 0.951 . S
H254 C214 0.950 . S
H255 C220 0.949 . S
H256 C221 0.950 . S
H257 C225 0.951 . S
H258 C226 0.950 . S
H259 C230 0.949 . S
H260 C231 0.950 . S
H261 C235 0.950 . S
H262 C237 0.950 . S
H263 C240 0.950 . S
H264 C242 0.950 . S
C265 C266 1.443 . S
C265 N269 1.376 . S
C265 C303 1.389 . S
C266 C265 1.443 . S
C266 C267 1.340 . S
C266 H306 0.951 1_556 S
C267 C266 1.340 . S
C267 C268 1.439 . S
C267 H307 0.950 . S
C268 C267 1.439 . S
C268 N269 1.374 . S
C268 C302 1.395 . S
N269 C265 1.376 . S
N269 C268 1.374 . S
N269 Co270 2.008 . S
Co270 N269 2.008 . S
Co270 N271 1.995 . S
Co270 N276 2.008 . S
Co270 N281 1.995 . S
Co270 N286 2.282 . S
Co270 N292 2.282 . S
N271 Co270 1.995 . S
N271 C272 1.376 . S
N271 C275 1.383 . S
C272 N271 1.376 . S
C272 C273 1.446 . S
C272 C302 1.391 . S
C273 C272 1.446 . S
C273 C274 1.339 . S
C273 H308 0.949 . S
C274 C273 1.339 . S
C274 C275 1.439 . S
C274 H309 0.950 . S
C275 N271 1.383 . S
C275 C274 1.439 . S
C275 C304 1.392 . S
N276 Co270 2.008 . S
N276 C277 1.376 . S
N276 C280 1.374 . S
C277 N276 1.376 . S
C277 C278 1.443 . S
C277 C304 1.389 . S
C278 C277 1.443 . S
C278 C279 1.340 . S
C278 H310 0.951 . S
C279 C278 1.340 . S
C279 C280 1.439 . S
C279 H311 0.950 . S
C280 N276 1.374 . S
C280 C279 1.439 . S
C280 C305 1.395 . S
N281 Co270 1.995 . S
N281 C282 1.376 . S
N281 C285 1.383 . S
C282 N281 1.376 . S
C282 C283 1.446 . S
C282 C305 1.391 . S
C283 C282 1.446 . S
C283 C284 1.339 . S
C283 H312 0.949 . S
C284 C283 1.339 . S
C284 C285 1.439 . S
C284 H313 0.950 1_556 S
C285 N281 1.383 . S
C285 C284 1.439 . S
C285 C303 1.392 . S
N286 Co270 2.282 . S
N286 C289 1.332 . S
N286 C291 1.332 . S
C287 C288 1.386 . S
C287 C290 1.388 . S
C288 C287 1.386 . S
C288 C289 1.382 . S
C288 H314 0.950 . S
C289 N286 1.332 . S
C289 C288 1.382 . S
C289 H300 0.952 . S
C290 C287 1.388 . S
C290 C291 1.382 . S
C290 H315 0.950 . S
C291 N286 1.332 . S
C291 C290 1.382 . S
C291 H301 0.948 . S
N292 Co270 2.282 . S
N292 C296 1.332 . S
N292 C297 1.332 . S
C293 C294 1.388 . S
C293 C297 1.382 . S
C293 H316 0.950 . S
C294 C293 1.388 . S
C294 C295 1.386 . S
C295 C294 1.386 . S
C295 C296 1.382 . S
C295 H317 0.950 . S
C296 N292 1.332 . S
C296 C295 1.382 . S
C296 H298 0.952 . S
C297 N292 1.332 . S
C297 C293 1.382 . S
C297 H299 0.948 . S
H298 C296 0.952 . S
H299 C297 0.948 . S
H300 C289 0.952 . S
H301 C291 0.948 . S
C302 C268 1.395 . S
C302 C272 1.391 . S
C303 C265 1.389 . S
C303 C285 1.392 . S
C304 C275 1.392 . S
C304 C277 1.389 . S
C305 C280 1.395 . S
C305 C282 1.391 . S
H306 C266 0.951 1_554 S
H307 C267 0.950 . S
H308 C273 0.949 . S
H309 C274 0.950 . S
H310 C278 0.951 . S
H311 C279 0.950 . S
H312 C283 0.949 . S
H313 C284 0.950 1_554 S
H314 C288 0.950 . S
H315 C290 0.950 . S
H316 C293 0.950 . S
H317 C295 0.950 . S
C22 C181 2.341 1_545 S
C75 C234 2.342 . S
C128 C287 2.342 1_655 S
C82 C241 2.385 1_455 S
C294 C135 2.384 1_565 S
C188 C29 2.384 . S
C144 C39 3.456 1_556 S
C197 C92 3.456 . S
C145 C250 3.456 . S
C303 C198 3.456 1_556 S
C251 C38 3.456 . S
C304 C91 3.456 . S
