# Generated by pormake.
# Topology fcs, (5)-cn, num edge types: 1
# Building blocks:
#     Node 0, Type 0, BuildingBlock: XOMCOT_clean_sbu_1, # of connection points: 5
#     Node 1, Type 0, BuildingBlock: XOMCOT_clean_sbu_1, # of connection points: 5
#     Node 2, Type 0, BuildingBlock: XOMCOT_clean_sbu_1, # of connection points: 5
#     Node 3, Type 0, BuildingBlock: XOMCOT_clean_sbu_1, # of connection points: 5
#     Node 4, Type 0, BuildingBlock: XOMCOT_clean_sbu_1, # of connection points: 5
#     Node 5, Type 0, BuildingBlock: XOMCOT_clean_sbu_1, # of connection points: 5
#     Node 6, Type 0, BuildingBlock: XOMCOT_clean_sbu_1, # of connection points: 5
#     Node 7, Type 0, BuildingBlock: XOMCOT_clean_sbu_1, # of connection points: 5
#     Node 8, Type 0, BuildingBlock: XOMCOT_clean_sbu_1, # of connection points: 5
#     Node 9, Type 0, BuildingBlock: XOMCOT_clean_sbu_1, # of connection points: 5
#     Node 10, Type 0, BuildingBlock: XOMCOT_clean_sbu_1, # of connection points: 5
#     Node 11, Type 0, BuildingBlock: XOMCOT_clean_sbu_1, # of connection points: 5
#     Node 12, Type 0, BuildingBlock: XOMCOT_clean_sbu_1, # of connection points: 5
#     Node 13, Type 0, BuildingBlock: XOMCOT_clean_sbu_1, # of connection points: 5
#     Node 14, Type 0, BuildingBlock: XOMCOT_clean_sbu_1, # of connection points: 5
#     Node 15, Type 0, BuildingBlock: XOMCOT_clean_sbu_1, # of connection points: 5
#     Node 16, Type 0, BuildingBlock: XOMCOT_clean_sbu_1, # of connection points: 5
#     Node 17, Type 0, BuildingBlock: XOMCOT_clean_sbu_1, # of connection points: 5
#     Node 18, Type 0, BuildingBlock: XOMCOT_clean_sbu_1, # of connection points: 5
#     Node 19, Type 0, BuildingBlock: XOMCOT_clean_sbu_1, # of connection points: 5
#     Node 20, Type 0, BuildingBlock: XOMCOT_clean_sbu_1, # of connection points: 5
#     Node 21, Type 0, BuildingBlock: XOMCOT_clean_sbu_1, # of connection points: 5
#     Node 22, Type 0, BuildingBlock: XOMCOT_clean_sbu_1, # of connection points: 5
#     Node 23, Type 0, BuildingBlock: XOMCOT_clean_sbu_1, # of connection points: 5
#     Node 24, Type 0, BuildingBlock: XOMCOT_clean_sbu_1, # of connection points: 5
#     Node 25, Type 0, BuildingBlock: XOMCOT_clean_sbu_1, # of connection points: 5
#     Node 26, Type 0, BuildingBlock: XOMCOT_clean_sbu_1, # of connection points: 5
#     Node 27, Type 0, BuildingBlock: XOMCOT_clean_sbu_1, # of connection points: 5
#     Node 28, Type 0, BuildingBlock: XOMCOT_clean_sbu_1, # of connection points: 5
#     Node 29, Type 0, BuildingBlock: XOMCOT_clean_sbu_1, # of connection points: 5
#     Node 30, Type 0, BuildingBlock: XOMCOT_clean_sbu_1, # of connection points: 5
#     Node 31, Type 0, BuildingBlock: XOMCOT_clean_sbu_1, # of connection points: 5
#     Node 32, Type 0, BuildingBlock: XOMCOT_clean_sbu_1, # of connection points: 5
#     Node 33, Type 0, BuildingBlock: XOMCOT_clean_sbu_1, # of connection points: 5
#     Node 34, Type 0, BuildingBlock: XOMCOT_clean_sbu_1, # of connection points: 5
#     Node 35, Type 0, BuildingBlock: XOMCOT_clean_sbu_1, # of connection points: 5
#     Node 36, Type 0, BuildingBlock: XOMCOT_clean_sbu_1, # of connection points: 5
#     Node 37, Type 0, BuildingBlock: XOMCOT_clean_sbu_1, # of connection points: 5
#     Node 38, Type 0, BuildingBlock: XOMCOT_clean_sbu_1, # of connection points: 5
#     Node 39, Type 0, BuildingBlock: XOMCOT_clean_sbu_1, # of connection points: 5
#     Node 40, Type 0, BuildingBlock: XOMCOT_clean_sbu_1, # of connection points: 5
#     Node 41, Type 0, BuildingBlock: XOMCOT_clean_sbu_1, # of connection points: 5
#     Node 42, Type 0, BuildingBlock: XOMCOT_clean_sbu_1, # of connection points: 5
#     Node 43, Type 0, BuildingBlock: XOMCOT_clean_sbu_1, # of connection points: 5
#     Node 44, Type 0, BuildingBlock: XOMCOT_clean_sbu_1, # of connection points: 5
#     Node 45, Type 0, BuildingBlock: XOMCOT_clean_sbu_1, # of connection points: 5
#     Node 46, Type 0, BuildingBlock: XOMCOT_clean_sbu_1, # of connection points: 5
#     Node 47, Type 0, BuildingBlock: XOMCOT_clean_sbu_1, # of connection points: 5
#     Edge 48, Type (0, 0), BuildingBlock: OJICUG_clean_linker_0, # of connection points: 2
#     Edge 49, Type (0, 0), BuildingBlock: OJICUG_clean_linker_0, # of connection points: 2
#     Edge 50, Type (0, 0), BuildingBlock: OJICUG_clean_linker_0, # of connection points: 2
#     Edge 51, Type (0, 0), BuildingBlock: OJICUG_clean_linker_0, # of connection points: 2
#     Edge 52, Type (0, 0), BuildingBlock: OJICUG_clean_linker_0, # of connection points: 2
#     Edge 53, Type (0, 0), BuildingBlock: OJICUG_clean_linker_0, # of connection points: 2
#     Edge 54, Type (0, 0), BuildingBlock: OJICUG_clean_linker_0, # of connection points: 2
#     Edge 55, Type (0, 0), BuildingBlock: OJICUG_clean_linker_0, # of connection points: 2
#     Edge 56, Type (0, 0), BuildingBlock: OJICUG_clean_linker_0, # of connection points: 2
#     Edge 57, Type (0, 0), BuildingBlock: OJICUG_clean_linker_0, # of connection points: 2
#     Edge 58, Type (0, 0), BuildingBlock: OJICUG_clean_linker_0, # of connection points: 2
#     Edge 59, Type (0, 0), BuildingBlock: OJICUG_clean_linker_0, # of connection points: 2
#     Edge 60, Type (0, 0), BuildingBlock: OJICUG_clean_linker_0, # of connection points: 2
#     Edge 61, Type (0, 0), BuildingBlock: OJICUG_clean_linker_0, # of connection points: 2
#     Edge 62, Type (0, 0), BuildingBlock: OJICUG_clean_linker_0, # of connection points: 2
#     Edge 63, Type (0, 0), BuildingBlock: OJICUG_clean_linker_0, # of connection points: 2
#     Edge 64, Type (0, 0), BuildingBlock: OJICUG_clean_linker_0, # of connection points: 2
#     Edge 65, Type (0, 0), BuildingBlock: OJICUG_clean_linker_0, # of connection points: 2
#     Edge 66, Type (0, 0), BuildingBlock: OJICUG_clean_linker_0, # of connection points: 2
#     Edge 67, Type (0, 0), BuildingBlock: OJICUG_clean_linker_0, # of connection points: 2
#     Edge 68, Type (0, 0), BuildingBlock: OJICUG_clean_linker_0, # of connection points: 2
#     Edge 69, Type (0, 0), BuildingBlock: OJICUG_clean_linker_0, # of connection points: 2
#     Edge 70, Type (0, 0), BuildingBlock: OJICUG_clean_linker_0, # of connection points: 2
#     Edge 71, Type (0, 0), BuildingBlock: OJICUG_clean_linker_0, # of connection points: 2
#     Edge 72, Type (0, 0), BuildingBlock: OJICUG_clean_linker_0, # of connection points: 2
#     Edge 73, Type (0, 0), BuildingBlock: OJICUG_clean_linker_0, # of connection points: 2
#     Edge 74, Type (0, 0), BuildingBlock: OJICUG_clean_linker_0, # of connection points: 2
#     Edge 75, Type (0, 0), BuildingBlock: OJICUG_clean_linker_0, # of connection points: 2
#     Edge 76, Type (0, 0), BuildingBlock: OJICUG_clean_linker_0, # of connection points: 2
#     Edge 77, Type (0, 0), BuildingBlock: OJICUG_clean_linker_0, # of connection points: 2
#     Edge 78, Type (0, 0), BuildingBlock: OJICUG_clean_linker_0, # of connection points: 2
#     Edge 79, Type (0, 0), BuildingBlock: OJICUG_clean_linker_0, # of connection points: 2
#     Edge 80, Type (0, 0), BuildingBlock: OJICUG_clean_linker_0, # of connection points: 2
#     Edge 81, Type (0, 0), BuildingBlock: OJICUG_clean_linker_0, # of connection points: 2
#     Edge 82, Type (0, 0), BuildingBlock: OJICUG_clean_linker_0, # of connection points: 2
#     Edge 83, Type (0, 0), BuildingBlock: OJICUG_clean_linker_0, # of connection points: 2
#     Edge 84, Type (0, 0), BuildingBlock: OJICUG_clean_linker_0, # of connection points: 2
#     Edge 85, Type (0, 0), BuildingBlock: OJICUG_clean_linker_0, # of connection points: 2
#     Edge 86, Type (0, 0), BuildingBlock: OJICUG_clean_linker_0, # of connection points: 2
#     Edge 87, Type (0, 0), BuildingBlock: OJICUG_clean_linker_0, # of connection points: 2
#     Edge 88, Type (0, 0), BuildingBlock: OJICUG_clean_linker_0, # of connection points: 2
#     Edge 89, Type (0, 0), BuildingBlock: OJICUG_clean_linker_0, # of connection points: 2
#     Edge 90, Type (0, 0), BuildingBlock: OJICUG_clean_linker_0, # of connection points: 2
#     Edge 91, Type (0, 0), BuildingBlock: OJICUG_clean_linker_0, # of connection points: 2
#     Edge 92, Type (0, 0), BuildingBlock: OJICUG_clean_linker_0, # of connection points: 2
#     Edge 93, Type (0, 0), BuildingBlock: OJICUG_clean_linker_0, # of connection points: 2
#     Edge 94, Type (0, 0), BuildingBlock: OJICUG_clean_linker_0, # of connection points: 2
#     Edge 95, Type (0, 0), BuildingBlock: OJICUG_clean_linker_0, # of connection points: 2
#     Edge 96, Type (0, 0), BuildingBlock: OJICUG_clean_linker_0, # of connection points: 2
#     Edge 97, Type (0, 0), BuildingBlock: OJICUG_clean_linker_0, # of connection points: 2
#     Edge 98, Type (0, 0), BuildingBlock: OJICUG_clean_linker_0, # of connection points: 2
#     Edge 99, Type (0, 0), BuildingBlock: OJICUG_clean_linker_0, # of connection points: 2
#     Edge 100, Type (0, 0), BuildingBlock: OJICUG_clean_linker_0, # of connection points: 2
#     Edge 101, Type (0, 0), BuildingBlock: OJICUG_clean_linker_0, # of connection points: 2
#     Edge 102, Type (0, 0), BuildingBlock: OJICUG_clean_linker_0, # of connection points: 2
#     Edge 103, Type (0, 0), BuildingBlock: OJICUG_clean_linker_0, # of connection points: 2
#     Edge 104, Type (0, 0), BuildingBlock: OJICUG_clean_linker_0, # of connection points: 2
#     Edge 105, Type (0, 0), BuildingBlock: OJICUG_clean_linker_0, # of connection points: 2
#     Edge 106, Type (0, 0), BuildingBlock: OJICUG_clean_linker_0, # of connection points: 2
#     Edge 107, Type (0, 0), BuildingBlock: OJICUG_clean_linker_0, # of connection points: 2
#     Edge 108, Type (0, 0), BuildingBlock: OJICUG_clean_linker_0, # of connection points: 2
#     Edge 109, Type (0, 0), BuildingBlock: OJICUG_clean_linker_0, # of connection points: 2
#     Edge 110, Type (0, 0), BuildingBlock: OJICUG_clean_linker_0, # of connection points: 2
#     Edge 111, Type (0, 0), BuildingBlock: OJICUG_clean_linker_0, # of connection points: 2
#     Edge 112, Type (0, 0), BuildingBlock: OJICUG_clean_linker_0, # of connection points: 2
#     Edge 113, Type (0, 0), BuildingBlock: OJICUG_clean_linker_0, # of connection points: 2
#     Edge 114, Type (0, 0), BuildingBlock: OJICUG_clean_linker_0, # of connection points: 2
#     Edge 115, Type (0, 0), BuildingBlock: OJICUG_clean_linker_0, # of connection points: 2
#     Edge 116, Type (0, 0), BuildingBlock: OJICUG_clean_linker_0, # of connection points: 2
#     Edge 117, Type (0, 0), BuildingBlock: OJICUG_clean_linker_0, # of connection points: 2
#     Edge 118, Type (0, 0), BuildingBlock: OJICUG_clean_linker_0, # of connection points: 2
#     Edge 119, Type (0, 0), BuildingBlock: OJICUG_clean_linker_0, # of connection points: 2
#     Edge 120, Type (0, 0), BuildingBlock: OJICUG_clean_linker_0, # of connection points: 2
#     Edge 121, Type (0, 0), BuildingBlock: OJICUG_clean_linker_0, # of connection points: 2
#     Edge 122, Type (0, 0), BuildingBlock: OJICUG_clean_linker_0, # of connection points: 2
#     Edge 123, Type (0, 0), BuildingBlock: OJICUG_clean_linker_0, # of connection points: 2
#     Edge 124, Type (0, 0), BuildingBlock: OJICUG_clean_linker_0, # of connection points: 2
#     Edge 125, Type (0, 0), BuildingBlock: OJICUG_clean_linker_0, # of connection points: 2
#     Edge 126, Type (0, 0), BuildingBlock: OJICUG_clean_linker_0, # of connection points: 2
#     Edge 127, Type (0, 0), BuildingBlock: OJICUG_clean_linker_0, # of connection points: 2
#     Edge 128, Type (0, 0), BuildingBlock: OJICUG_clean_linker_0, # of connection points: 2
#     Edge 129, Type (0, 0), BuildingBlock: OJICUG_clean_linker_0, # of connection points: 2
#     Edge 130, Type (0, 0), BuildingBlock: OJICUG_clean_linker_0, # of connection points: 2
#     Edge 131, Type (0, 0), BuildingBlock: OJICUG_clean_linker_0, # of connection points: 2
#     Edge 132, Type (0, 0), BuildingBlock: OJICUG_clean_linker_0, # of connection points: 2
#     Edge 133, Type (0, 0), BuildingBlock: OJICUG_clean_linker_0, # of connection points: 2
#     Edge 134, Type (0, 0), BuildingBlock: OJICUG_clean_linker_0, # of connection points: 2
#     Edge 135, Type (0, 0), BuildingBlock: OJICUG_clean_linker_0, # of connection points: 2
#     Edge 136, Type (0, 0), BuildingBlock: OJICUG_clean_linker_0, # of connection points: 2
#     Edge 137, Type (0, 0), BuildingBlock: OJICUG_clean_linker_0, # of connection points: 2
#     Edge 138, Type (0, 0), BuildingBlock: OJICUG_clean_linker_0, # of connection points: 2
#     Edge 139, Type (0, 0), BuildingBlock: OJICUG_clean_linker_0, # of connection points: 2
#     Edge 140, Type (0, 0), BuildingBlock: OJICUG_clean_linker_0, # of connection points: 2
#     Edge 141, Type (0, 0), BuildingBlock: OJICUG_clean_linker_0, # of connection points: 2
#     Edge 142, Type (0, 0), BuildingBlock: OJICUG_clean_linker_0, # of connection points: 2
#     Edge 143, Type (0, 0), BuildingBlock: OJICUG_clean_linker_0, # of connection points: 2
#     Edge 144, Type (0, 0), BuildingBlock: OJICUG_clean_linker_0, # of connection points: 2
#     Edge 145, Type (0, 0), BuildingBlock: OJICUG_clean_linker_0, # of connection points: 2
#     Edge 146, Type (0, 0), BuildingBlock: OJICUG_clean_linker_0, # of connection points: 2
#     Edge 147, Type (0, 0), BuildingBlock: OJICUG_clean_linker_0, # of connection points: 2
#     Edge 148, Type (0, 0), BuildingBlock: OJICUG_clean_linker_0, # of connection points: 2
#     Edge 149, Type (0, 0), BuildingBlock: OJICUG_clean_linker_0, # of connection points: 2
#     Edge 150, Type (0, 0), BuildingBlock: OJICUG_clean_linker_0, # of connection points: 2
#     Edge 151, Type (0, 0), BuildingBlock: OJICUG_clean_linker_0, # of connection points: 2
#     Edge 152, Type (0, 0), BuildingBlock: OJICUG_clean_linker_0, # of connection points: 2
#     Edge 153, Type (0, 0), BuildingBlock: OJICUG_clean_linker_0, # of connection points: 2
#     Edge 154, Type (0, 0), BuildingBlock: OJICUG_clean_linker_0, # of connection points: 2
#     Edge 155, Type (0, 0), BuildingBlock: OJICUG_clean_linker_0, # of connection points: 2
#     Edge 156, Type (0, 0), BuildingBlock: OJICUG_clean_linker_0, # of connection points: 2
#     Edge 157, Type (0, 0), BuildingBlock: OJICUG_clean_linker_0, # of connection points: 2
#     Edge 158, Type (0, 0), BuildingBlock: OJICUG_clean_linker_0, # of connection points: 2
#     Edge 159, Type (0, 0), BuildingBlock: OJICUG_clean_linker_0, # of connection points: 2
#     Edge 160, Type (0, 0), BuildingBlock: OJICUG_clean_linker_0, # of connection points: 2
#     Edge 161, Type (0, 0), BuildingBlock: OJICUG_clean_linker_0, # of connection points: 2
#     Edge 162, Type (0, 0), BuildingBlock: OJICUG_clean_linker_0, # of connection points: 2
#     Edge 163, Type (0, 0), BuildingBlock: OJICUG_clean_linker_0, # of connection points: 2
#     Edge 164, Type (0, 0), BuildingBlock: OJICUG_clean_linker_0, # of connection points: 2
#     Edge 165, Type (0, 0), BuildingBlock: OJICUG_clean_linker_0, # of connection points: 2
#     Edge 166, Type (0, 0), BuildingBlock: OJICUG_clean_linker_0, # of connection points: 2
#     Edge 167, Type (0, 0), BuildingBlock: OJICUG_clean_linker_0, # of connection points: 2
# Relax obj value: 0.343
# Max RMSD: 0.231
# Mean RMSD: 0.231
data_MOF--net-fcs--node1-XOMCOT_clean_sbu_1--edge1-OJICUG_clean_linker_0
_symmetry_space_group_name_H-M    P1
_symmetry_Int_Tables_number       1
_symmetry_cell_setting            triclinic
loop_
_symmetry_equiv_pos_as_xyz
'x, y, z'
_cell_length_a     43.368356
_cell_length_b     43.365028
_cell_length_c     43.401962
_cell_angle_alpha  90.012688
_cell_angle_beta   89.962599
_cell_angle_gamma 89.997371
loop_
_atom_site_label
_atom_site_type_symbol
_atom_site_fract_x
_atom_site_fract_y
_atom_site_fract_z
_atom_type_partial_charge
C0 C 0.07913 0.14831 0.24739 0.0
C1 C 0.10386 0.13556 0.23225 0.0
N2 N 0.10021 0.10473 0.23193 0.0
N3 N 0.06005 0.12565 0.25693 0.0
C4 C 0.0736 0.0993 0.24711 0.0
H5 H 0.07458 0.17269 0.2499 0.0
Co6 Co 0.02115 0.13271 0.27454 0.0
C7 C 0.98896 0.07294 0.25938 0.0
O8 O 0.96585 0.08783 0.24683 0.0
N9 N 0.98152 0.14093 0.29271 0.0
C10 C 0.93234 0.15475 0.3002 0.0
C11 C 0.95374 0.14478 0.27896 0.0
C12 C 0.97598 0.14888 0.32243 0.0
N13 N 0.94643 0.15746 0.32764 0.0
O14 O 0.03909 0.12686 0.31494 0.0
H15 H 0.9493 0.14223 0.25461 0.0
H16 H 0.99363 0.1501 0.33984 0.0
O17 O 0.01148 0.0881 0.271 0.0
C18 C 0.05191 0.15246 0.3221 0.0
O19 O 0.04856 0.1759 0.30321 0.0
N20 N 0.00663 0.1426 0.23511 0.0
C21 C 0.02298 0.17401 0.18186 0.0
C22 C 0.02235 0.14165 0.18209 0.0
C23 C 0.01385 0.12616 0.20919 0.0
C24 C 1.0029 0.17378 0.23362 0.0
C25 C 0.01074 0.18995 0.20708 0.0
H26 H 0.01806 0.10165 0.21059 0.0
H27 H 0.99858 0.18674 0.25447 0.0
H28 H 0.06385 0.07661 0.2501 0.0
H29 H 0.12237 0.14807 0.22112 0.0
H30 H 0.90851 0.1604 0.29547 0.0
H31 H 0.03196 0.12862 0.16308 0.0
H32 H 0.01091 0.21494 0.20767 0.0
C33 C 0.39933 0.6864 0.01415 0.0
C34 C 0.38697 0.66201 0.0302 0.0
N35 N 0.35603 0.6647 0.02975 0.0
N36 N 0.37634 0.70455 1.00373 0.0
C37 C 0.35021 0.69036 0.01316 0.0
H38 H 0.4236 0.69172 0.01206 0.0
Co39 Co 0.38263 0.74432 0.98811 0.0
C40 C 0.32176 0.77602 0.99717 0.0
O41 O 0.33618 0.80124 0.00556 0.0
N42 N 0.39039 0.78507 0.97183 0.0
C43 C 0.40645 0.83386 0.96629 0.0
C44 C 0.39811 0.8113 0.987 0.0
C45 C 0.39391 0.79292 0.94174 0.0
N46 N 0.40402 0.82219 0.93772 0.0
O47 O 0.38049 0.72759 0.94696 0.0
H48 H 0.3984 0.81407 0.01173 0.0
H49 H 0.39071 0.77706 0.92288 0.0
O50 O 0.33741 0.75218 0.98938 0.0
C51 C 0.40826 0.72004 0.9404 0.0
O52 O 0.42976 0.72634 0.96079 0.0
N53 N 0.38892 0.75755 0.02869 0.0
C54 C 0.41338 0.74002 0.0853 0.0
C55 C 0.38127 0.74169 0.08105 0.0
C56 C 0.36937 0.75081 0.05245 0.0
C57 C 0.41986 0.75986 0.03376 0.0
C58 C 0.43257 0.75153 0.06202 0.0
H59 H 0.34502 0.74772 0.04833 0.0
H60 H 0.43523 0.76379 0.01453 0.0
H61 H 0.32748 0.69982 0.01018 0.0
H62 H 0.39982 0.64436 0.04228 0.0
H63 H 0.41437 0.85683 0.97197 0.0
H64 H 0.36563 0.73317 0.09856 0.0
H65 H 0.45743 0.75037 0.06405 0.0
C66 C 0.934 0.36585 0.24647 0.0
C67 C 0.91066 0.37903 0.22962 0.0
N68 N 0.91391 0.40989 0.23089 0.0
N69 N 0.95205 0.38824 0.25834 0.0
C70 C 0.93887 0.41488 0.24878 0.0
H71 H 0.93877 0.34144 0.2481 0.0
Co72 Co 0.99089 0.38075 0.27606 0.0
C73 C 0.02314 0.44063 0.26074 0.0
O74 O 0.04605 0.42591 0.24761 0.0
N75 N 0.03042 0.3722 0.29424 0.0
C76 C 0.07973 0.35882 0.30155 0.0
C77 C 0.05829 0.36899 0.28049 0.0
C78 C 0.03591 0.3636 0.32379 0.0
N79 N 0.06558 0.35533 0.32889 0.0
O80 O 0.97299 0.38663 0.31648 0.0
H81 H 0.0628 0.37211 0.25622 0.0
H82 H 0.01817 0.36178 0.34111 0.0
O83 O 1.00088 0.4253 0.27268 0.0
C84 C 0.95925 0.36142 0.32333 0.0
O85 O 0.96134 0.33826 0.30392 0.0
N86 N 1.0055 0.37082 0.23656 0.0
C87 C 0.98973 0.3393 0.18315 0.0
C88 C 0.99015 0.37168 0.18343 0.0
C89 C 0.99837 0.38721 0.21059 0.0
C90 C 0.00944 0.33966 0.23504 0.0
C91 C 1.00191 0.32345 0.20843 0.0
H92 H 0.99402 0.4117 0.21198 0.0
H93 H 0.01372 0.3267 0.25589 0.0
H94 H 0.94864 0.43742 0.25263 0.0
H95 H 0.89335 0.36679 0.21646 0.0
H96 H 0.10368 0.35367 0.2968 0.0
H97 H 0.98059 0.38466 0.16438 0.0
H98 H 1.00197 0.29846 0.20899 0.0
C99 C 0.61039 0.82373 0.01757 0.0
C100 C 0.62287 0.84791 0.03383 0.0
N101 N 0.65382 0.84549 0.0327 0.0
N102 N 0.63332 0.80598 0.00631 0.0
C103 C 0.6595 0.82021 0.01546 0.0
H104 H 0.58613 0.81827 0.01583 0.0
Co105 Co 0.62712 0.7665 0.98984 0.0
C106 C 0.68821 0.73494 0.99792 0.0
O107 O 0.67399 0.7095 0.00598 0.0
N108 N 0.61944 0.72608 0.97272 0.0
C109 C 0.60388 0.67723 0.96634 0.0
C110 C 0.61225 0.69944 0.98741 0.0
C111 C 0.61555 0.71886 0.94252 0.0
N112 N 0.60577 0.68955 0.93801 0.0
O113 O 0.62904 0.78412 0.94909 0.0
H114 H 0.61236 0.69611 0.01208 0.0
H115 H 0.61828 0.73518 0.92397 0.0
O116 O 0.67238 0.75882 0.99066 0.0
C117 C 0.60135 0.7921 0.94278 0.0
O118 O 0.57979 0.78553 0.96305 0.0
N119 N 0.62112 0.75234 0.03013 0.0
C120 C 0.59668 0.76939 0.08686 0.0
C121 C 0.62879 0.76798 0.08253 0.0
C122 C 0.64069 0.75902 0.05388 0.0
C123 C 0.59022 0.74964 0.03532 0.0
C124 C 0.57753 0.75769 0.06367 0.0
H125 H 0.665 0.76236 0.04967 0.0
H126 H 0.57483 0.74574 0.01611 0.0
H127 H 0.68224 0.81106 0.01168 0.0
H128 H 0.61011 0.86527 0.04644 0.0
H129 H 0.59639 0.65402 0.97162 0.0
H130 H 0.64436 0.77671 0.09997 0.0
H131 H 0.55266 0.75866 0.06582 0.0
C132 C 0.07859 0.86334 0.26457 0.0
C133 C 0.10386 0.87651 0.27842 0.0
N134 N 0.10141 0.90733 0.27569 0.0
N135 N 0.06037 0.88574 0.25297 0.0
C136 C 0.07509 0.91232 0.25994 0.0
H137 H 0.07315 0.83901 0.26417 0.0
Co138 Co 0.02139 0.87888 0.23558 0.0
C139 C 0.98894 0.93893 0.2503 0.0
O140 O 0.96453 0.92445 0.26068 0.0
N141 N 0.98172 0.87062 0.21744 0.0
C142 C 0.93303 0.85496 0.21013 0.0
C143 C 0.95391 0.86649 0.23111 0.0
C144 C 0.9767 0.86134 0.18802 0.0
N145 N 0.94756 0.85133 0.18302 0.0
O146 O 0.03917 0.88518 0.1952 0.0
H147 H 0.94931 0.86935 0.25541 0.0
H148 H 0.99438 0.86062 0.17058 0.0
O149 O 0.01189 0.92353 0.23989 0.0
C150 C 0.05291 0.86002 0.18818 0.0
O151 O 0.0506 0.83665 0.20731 0.0
N152 N 0.00695 0.86875 0.275 0.0
C153 C 0.02284 0.83723 0.32837 0.0
C154 C 0.02265 0.86962 0.328 0.0
C155 C 0.01435 0.88516 0.30087 0.0
C156 C 1.0028 0.83762 0.27658 0.0
C157 C 0.01028 0.82143 0.30321 0.0
H158 H 0.01886 0.90961 0.29935 0.0
H159 H 0.99829 0.82466 0.25578 0.0
H160 H 0.06667 0.93491 0.25401 0.0
H161 H 0.12192 0.86448 0.29073 0.0
H162 H 0.90968 0.84768 0.2151 0.0
H163 H 0.03241 0.88261 0.34696 0.0
H164 H 0.00984 0.79644 0.30273 0.0
C165 C 0.11169 0.68689 0.99444 0.0
C166 C 0.12457 0.66292 0.97813 0.0
N167 N 0.15547 0.666 0.97901 0.0
N168 N 0.13431 0.70517 0.00542 0.0
C169 C 0.16075 0.69147 0.99606 0.0
H170 H 0.08733 0.69186 0.99631 0.0
Co171 Co 0.12768 0.74468 0.02183 0.0
C172 C 0.18785 0.7761 0.00902 0.0
O173 O 0.17293 0.7998 0.99762 0.0
N174 N 0.12003 0.78517 0.03899 0.0
C175 C 0.10542 0.83433 0.04542 0.0
C176 C 0.11399 0.81214 0.02438 0.0
C177 C 0.11536 0.7922 0.06912 0.0
N178 N 0.10614 0.82168 0.07365 0.0
O179 O 0.13072 0.72728 0.06271 0.0
H180 H 0.1147 0.81563 0.99974 0.0
H181 H 0.11714 0.77571 0.08762 0.0
O182 O 0.17264 0.75314 0.01973 0.0
C183 C 0.10303 0.71903 0.06888 0.0
O184 O 0.08164 0.72508 0.0483 0.0
N185 N 0.11994 0.75854 0.98161 0.0
C186 C 0.09061 0.74012 0.92782 0.0
C187 C 0.12294 0.74072 0.9293 0.0
C188 C 0.13738 0.7504 0.95661 0.0
C189 C 0.08885 0.76221 0.9787 0.0
C190 C 0.07375 0.75347 0.95185 0.0
H191 H 0.16182 0.74634 0.95911 0.0
H192 H 0.07503 0.76726 0.99883 0.0
H193 H 0.18336 0.7012 0.99935 0.0
H194 H 0.11212 0.6453 0.9656 0.0
H195 H 0.09855 0.85774 0.04019 0.0
H196 H 0.13668 0.73033 0.91122 0.0
H197 H 0.04876 0.75348 0.95145 0.0
C198 C 0.93171 0.64841 0.26711 0.0
C199 C 0.90872 0.63464 0.28402 0.0
N200 N 0.91147 0.60384 0.281 0.0
N201 N 0.94911 0.62642 0.25362 0.0
C202 C 0.93564 0.59954 0.26186 0.0
H203 H 0.93678 0.67282 0.26652 0.0
Co204 Co 0.98769 0.63378 0.23532 0.0
C205 C 0.02143 0.57458 0.25111 0.0
O206 O 0.04566 0.58955 0.2612 0.0
N207 N 0.02689 0.64236 0.21631 0.0
C208 C 0.07542 0.65789 0.2079 0.0
C209 C 0.05486 0.64688 0.22946 0.0
C210 C 0.03149 0.65089 0.18658 0.0
N211 N 0.06058 0.66075 0.18086 0.0
O212 O 0.96952 0.6261 0.19538 0.0
H213 H 0.05982 0.64454 0.25374 0.0
H214 H 0.01352 0.65098 0.16946 0.0
O215 O 0.99826 0.58947 0.24048 0.0
C216 C 0.95454 0.65047 0.18814 0.0
O217 O 0.95554 0.67407 0.20711 0.0
N218 N 1.00258 0.64523 0.27433 0.0
C219 C 0.98682 0.6782 0.32702 0.0
C220 C 0.9872 0.64577 0.32748 0.0
C221 C 0.9956 0.62952 0.30075 0.0
C222 C 0.00663 0.6764 0.27507 0.0
C223 C 0.9994 0.69327 0.30137 0.0
H224 H 0.99138 0.60497 0.29997 0.0
H225 H 0.01096 0.68884 0.25392 0.0
H226 H 0.94449 0.57719 0.25566 0.0
H227 H 0.89206 0.64641 0.2984 0.0
H228 H 0.09886 0.66516 0.2124 0.0
H229 H 0.97767 0.63318 0.34681 0.0
H230 H 1.00022 0.71822 0.30029 0.0
C231 C 0.89695 0.82866 1.00515 0.0
C232 C 0.88424 0.85447 0.99178 0.0
N233 N 0.85399 0.84917 0.98725 0.0
N234 N 0.87478 0.80728 0.00938 0.0
C235 C 0.84883 0.82053 0.99817 0.0
H236 H 0.92107 0.82535 0.01049 0.0
Co237 Co 0.88163 0.76719 0.02408 0.0
C238 C 0.82204 0.73556 0.01007 0.0
O239 O 0.83732 0.71208 0.99865 0.0
N240 N 0.88937 0.72603 0.03963 0.0
C241 C 0.90538 0.67714 0.04462 0.0
C242 C 0.89713 0.69998 0.02416 0.0
C243 C 0.89247 0.71768 0.06963 0.0
N244 N 0.90261 0.68841 0.07332 0.0
O245 O 0.87804 0.78295 0.06559 0.0
H246 H 0.89776 0.6976 0.99939 0.0
H247 H 0.88893 0.73317 0.08875 0.0
O248 O 0.83688 0.75853 0.02122 0.0
C249 C 0.90585 0.78982 0.0728 0.0
O250 O 0.92767 0.78296 0.05291 0.0
N251 N 0.88996 0.75513 0.98348 0.0
C252 C 0.91931 0.77426 0.9299 0.0
C253 C 0.88697 0.77315 0.93125 0.0
C254 C 0.87254 0.76319 0.95848 0.0
C255 C 0.92116 0.75233 0.98081 0.0
C256 C 0.93626 0.76135 0.95406 0.0
H257 H 0.84798 0.76656 0.96081 0.0
H258 H 0.9349 0.74734 1.00097 0.0
H259 H 0.82669 0.80926 0.99718 0.0
H260 H 0.89651 0.8751 0.98491 0.0
H261 H 0.91351 0.65429 0.03873 0.0
H262 H 0.87316 0.78319 0.91305 0.0
H263 H 0.96125 0.76172 0.95376 0.0
C264 C 0.24975 0.07651 0.14867 0.0
C265 C 0.23543 0.102 0.13643 0.0
N266 N 0.23383 0.09835 0.10567 0.0
N267 N 0.25745 0.05697 0.12573 0.0
C268 C 0.24738 0.07099 0.09977 0.0
H269 H 0.25336 0.07204 0.1729 0.0
Co270 Co 0.27477 0.01786 0.13188 0.0
C271 C 0.26316 0.98577 0.07199 0.0
O272 O 0.25397 0.96119 0.08701 0.0
N273 N 0.29307 0.97781 0.13932 0.0
C274 C 0.30141 0.9302 0.15757 0.0
C275 C 0.27951 0.95075 0.14717 0.0
C276 C 0.32346 0.97221 0.14419 0.0
N277 N 0.32912 0.94401 0.15624 0.0
O278 O 0.31513 0.03628 0.12811 0.0
H279 H 0.25497 0.94646 0.14722 0.0
H280 H 0.3414 0.98891 0.14016 0.0
O281 O 0.27221 0.0095 0.08705 0.0
C282 C 0.32182 0.04435 0.15569 0.0
O283 O 0.30213 0.0372 0.1776 0.0
N284 N 0.23508 1.00306 0.14017 0.0
C285 C 0.18108 0.02043 0.16975 0.0
C286 C 0.1823 0.01946 0.13744 0.0
C287 C 0.20975 0.01032 0.12287 0.0
C288 C 0.23257 0.99986 0.17133 0.0
C289 C 0.20562 0.0081 0.18657 0.0
H290 H 0.21198 0.01412 0.09837 0.0
H291 H 0.25298 0.99565 0.18499 0.0
H292 H 0.24933 0.06125 0.07702 0.0
H293 H 0.22597 0.12123 0.14923 0.0
H294 H 0.29688 0.90774 0.16745 0.0
H295 H 0.16384 0.02925 0.12379 0.0
H296 H 0.2055 0.00872 0.21154 0.0
C297 C 0.32928 0.51149 0.11417 0.0
C298 C 0.35424 0.526 0.12721 0.0
N299 N 0.34928 0.52818 0.15774 0.0
N300 N 0.3088 0.5041 0.1364 0.0
C301 C 0.3217 0.51472 0.16273 0.0
H302 H 0.32568 0.50788 0.0898 0.0
Co303 Co 0.26943 0.48791 0.12877 0.0
C304 C 0.2357 0.49984 0.18844 0.0
O305 O 0.21116 0.50913 0.17346 0.0
N306 N 0.22931 0.47119 0.11966 0.0
C307 C 0.18065 0.46548 0.10338 0.0
C308 C 0.20272 0.48618 0.11299 0.0
C309 C 0.22236 0.44124 0.11385 0.0
N310 N 0.19311 0.4371 0.10378 0.0
O311 O 0.28602 0.44687 0.13403 0.0
H312 H 0.19946 0.51086 0.11407 0.0
H313 H 0.23886 0.4227 0.11533 0.0
O314 O 0.25949 0.49087 0.17338 0.0
C315 C 0.2983 0.43905 0.10839 0.0
O316 O 0.29517 0.45769 0.08475 0.0
N317 N 0.25636 0.52803 0.12001 0.0
C318 C 0.27301 0.58399 0.09359 0.0
C319 C 0.27084 0.58104 0.12577 0.0
C320 C 0.26215 0.55274 0.13866 0.0
C321 C 0.25464 0.5317 0.08886 0.0
C322 C 0.26251 0.55966 0.07515 0.0
H323 H 0.26475 0.5497 0.16321 0.0
H324 H 0.25143 0.51172 0.0743 0.0
H325 H 0.31086 0.51361 0.185 0.0
H326 H 0.37391 0.5354 0.11505 0.0
H327 H 0.15749 0.47107 0.09602 0.0
H328 H 0.27871 0.59938 0.14077 0.0
H329 H 0.26414 0.56078 0.05027 0.0
C330 C 0.76864 0.43592 0.14818 0.0
C331 C 0.78615 0.41279 0.13544 0.0
N332 N 0.78528 0.4158 0.10457 0.0
N333 N 0.75672 0.45356 0.12552 0.0
C334 C 0.76697 0.44039 0.09917 0.0
H335 H 0.76644 0.44076 0.17252 0.0
Co336 Co 0.73803 0.49195 0.13259 0.0
C337 C 0.74765 0.52567 0.07279 0.0
O338 O 0.75509 0.55082 0.08784 0.0
N339 N 0.71881 0.53109 0.14116 0.0
C340 C 0.70985 0.57884 0.15863 0.0
C341 C 0.73202 0.55839 0.14869 0.0
C342 C 0.68838 0.53614 0.1464 0.0
N343 N 0.68228 0.56469 0.15758 0.0
O344 O 0.69809 0.47276 0.12799 0.0
H345 H 0.75647 0.56313 0.14833 0.0
H346 H 0.67088 0.51886 0.14301 0.0
O347 O 0.74024 0.50136 0.08783 0.0
C348 C 0.69133 0.4603 0.15384 0.0
O349 O 0.71067 0.46383 0.17686 0.0
N350 N 0.77735 0.50771 0.14088 0.0
C351 C 0.83405 0.49346 0.16711 0.0
C352 C 0.83094 0.49562 0.13493 0.0
C353 C 0.80224 0.50303 0.12214 0.0
C354 C 0.78111 0.50985 0.172 0.0
C355 C 0.80941 0.50315 0.18561 0.0
H356 H 0.79922 0.50005 0.09763 0.0
H357 H 0.76107 0.51216 0.18667 0.0
H358 H 0.76312 0.44986 0.07658 0.0
H359 H 0.79932 0.39572 0.14799 0.0
H360 H 0.71414 0.60171 0.16762 0.0
H361 H 0.84951 0.48847 0.11985 0.0
H362 H 0.8106 0.50153 0.21049 0.0
C363 C 0.6819 0.99679 0.11103 0.0
C364 C 0.65852 0.97996 0.12431 0.0
N365 N 0.6627 0.98005 0.15506 0.0
N366 N 0.70085 0.00742 0.13325 0.0
C367 C 0.68823 0.99716 0.15987 0.0
H368 H 0.686 0.99927 0.08659 0.0
Co369 Co 0.73995 0.0242 0.12544 0.0
C370 C 0.77298 0.01549 0.18556 0.0
O371 O 0.79769 1.0058 0.17107 0.0
N372 N 0.77995 0.04148 0.11633 0.0
C373 C 0.82876 0.04765 0.10061 0.0
C374 C 0.80677 0.02674 0.1099 0.0
C375 C 0.78679 0.07153 0.11083 0.0
N376 N 0.81611 0.07594 0.101 0.0
O377 O 0.72231 0.0649 0.12842 0.0
H378 H 0.81033 1.00212 0.11113 0.0
H379 H 0.7702 0.08997 0.11257 0.0
O380 O 0.7492 0.02356 0.17007 0.0
C381 C 0.71257 0.07134 0.10138 0.0
O382 O 0.7179 0.05122 0.07935 0.0
N383 N 0.75412 0.98399 0.11869 0.0
C384 C 0.73767 0.92707 0.09428 0.0
C385 C 0.73977 0.93119 0.12634 0.0
C386 C 0.7484 0.95995 0.13822 0.0
C387 C 0.75614 0.97911 0.08772 0.0
C388 C 0.74835 0.95067 0.07502 0.0
H389 H 0.74567 0.96388 0.16263 0.0
H390 H 0.75935 0.99853 0.07241 0.0
H391 H 0.69887 0.99973 0.18213 0.0
H392 H 0.64054 0.96763 0.11217 0.0
H393 H 0.85208 0.04223 0.09358 0.0
H394 H 0.73185 0.91341 0.14199 0.0
H395 H 0.74684 0.94866 0.05018 0.0
C396 C 0.24729 0.93583 0.36004 0.0
C397 C 0.23184 0.91096 0.37215 0.0
N398 N 0.23247 0.91325 0.40308 0.0
N399 N 0.25782 0.95373 0.38318 0.0
C400 C 0.24857 0.93919 0.40916 0.0
H401 H 0.24936 0.94133 0.33584 0.0
Co402 Co 0.27578 0.99268 0.37731 0.0
C403 C 0.26101 0.02472 0.4373 0.0
O404 O 0.25111 0.04915 0.42255 0.0
N405 N 0.29441 0.03235 0.37006 0.0
C406 C 0.30231 0.08147 0.35624 0.0
C407 C 0.28072 0.06004 0.3653 0.0
C408 C 0.3245 0.03798 0.36355 0.0
N409 N 0.32995 0.06751 0.35498 0.0
O410 O 0.31592 0.97438 0.38357 0.0
H411 H 0.25624 0.06444 0.36679 0.0
H412 H 0.34207 0.02039 0.36332 0.0
O413 O 0.27122 1.00152 0.4221 0.0
C414 C 0.32331 0.96179 0.35793 0.0
O415 O 0.30469 0.96545 0.33435 0.0
N416 N 0.23663 0.00764 0.36712 0.0
C417 C 0.18336 0.99188 0.33556 0.0
C418 C 0.18343 0.99259 0.36789 0.0
C419 C 0.21055 1.00079 0.38346 0.0
C420 C 0.23535 0.01131 0.33595 0.0
C421 C 0.2088 1.00371 0.31968 0.0
H422 H 0.21183 0.99654 0.40795 0.0
H423 H 0.25636 0.01533 0.32311 0.0
H424 H 0.25287 0.94766 0.43207 0.0
H425 H 0.21984 0.89334 0.35917 0.0
H426 H 0.29773 0.10524 0.35023 0.0
H427 H 0.16425 0.98317 0.38082 0.0
H428 H 0.20955 1.00328 0.29472 0.0
C429 C 0.18385 0.52224 0.89688 0.0
C430 C 0.1608 0.53937 0.88356 0.0
N431 N 0.16315 0.53653 0.85274 0.0
N432 N 0.20083 0.50866 0.87465 0.0
C433 C 0.18718 0.51728 0.848 0.0
H434 H 0.18916 0.52148 0.9212 0.0
Co435 Co 0.23921 0.49007 0.88211 0.0
C436 C 0.27337 0.49798 0.82186 0.0
O437 O 0.29933 0.5035 0.83629 0.0
N438 N 0.27821 0.47093 0.89129 0.0
C439 C 0.32595 0.46238 0.90905 0.0
C440 C 0.30578 0.48417 0.89776 0.0
C441 C 0.28273 0.44089 0.89878 0.0
N442 N 0.31124 0.43513 0.91009 0.0
O443 O 0.22015 0.45008 0.87757 0.0
H444 H 0.31081 0.5085 0.89589 0.0
H445 H 0.26511 0.42346 0.89711 0.0
O446 O 0.24888 0.49214 0.83732 0.0
C447 C 0.20661 0.44379 0.903 0.0
O448 O 0.20889 0.46371 0.9257 0.0
N449 N 0.25498 0.52943 0.89014 0.0
C450 C 0.23981 0.58609 0.91588 0.0
C451 C 0.242 0.58273 0.88372 0.0
C452 C 0.24999 0.55406 0.87116 0.0
C453 C 0.2573 0.53355 0.92119 0.0
C454 C 0.25011 0.56186 0.93457 0.0
H455 H 0.2471 0.55071 0.84668 0.0
H456 H 0.25997 0.5137 0.93604 0.0
H457 H 0.19578 0.51127 0.82552 0.0
H458 H 0.14432 0.55369 0.89564 0.0
H459 H 0.34895 0.46677 0.91767 0.0
H460 H 0.23444 0.60101 0.8685 0.0
H461 H 0.24857 0.56328 0.95944 0.0
C462 C 0.7701 0.57341 0.36065 0.0
C463 C 0.78752 0.59684 0.373 0.0
N464 N 0.7863 0.59462 0.40393 0.0
N465 N 0.75798 0.55632 0.38363 0.0
C466 C 0.76789 0.57018 0.40974 0.0
H467 H 0.76799 0.56804 0.33642 0.0
Co468 Co 0.73923 0.51782 0.37733 0.0
C469 C 0.747 0.48526 0.43775 0.0
O470 O 0.75366 0.45963 0.42315 0.0
N471 N 0.71983 0.47847 0.36947 0.0
C472 C 0.71069 0.43085 0.35168 0.0
C473 C 0.73294 0.4512 0.3616 0.0
C474 C 0.68933 0.47336 0.36474 0.0
N475 N 0.68315 0.445 0.35318 0.0
O476 O 0.69941 0.53748 0.38039 0.0
H477 H 0.75739 0.44643 0.36163 0.0
H478 H 0.67177 0.49049 0.36869 0.0
O479 O 0.74056 0.5096 0.42231 0.0
C480 C 0.69307 0.54649 0.35305 0.0
O481 O 0.71297 0.54003 0.33113 0.0
N482 N 0.77853 0.50157 0.37024 0.0
C483 C 0.83518 0.51669 0.34448 0.0
C484 C 0.8318 0.5146 0.37665 0.0
C485 C 0.8031 0.50676 0.38923 0.0
C486 C 0.78274 0.49902 0.33921 0.0
C487 C 0.81103 0.50616 0.32583 0.0
H488 H 0.79971 0.50994 0.41367 0.0
H489 H 0.76295 0.49627 0.32432 0.0
H490 H 0.76353 0.56143 0.43252 0.0
H491 H 0.80079 0.61364 0.36017 0.0
H492 H 0.71487 0.40814 0.34223 0.0
H493 H 0.85004 0.52227 0.39187 0.0
H494 H 0.81239 0.50761 0.30095 0.0
C495 C 0.8267 0.99336 0.90001 0.0
C496 C 0.85004 0.97648 0.88681 0.0
N497 N 0.8481 0.97957 0.85598 0.0
N498 N 0.80988 0.00691 0.87766 0.0
C499 C 0.82404 0.9987 0.85112 0.0
H500 H 0.82105 0.99394 0.92427 0.0
Co501 Co 0.77115 0.0252 0.88415 0.0
C502 C 0.73879 0.01182 0.82382 0.0
O503 O 0.71348 1.00319 0.83789 0.0
N504 N 0.73174 0.04414 0.8919 0.0
C505 C 0.68296 0.05243 0.90674 0.0
C506 C 0.70382 0.03082 0.8964 0.0
C507 C 0.72679 0.07402 0.89973 0.0
N508 N 0.69756 0.07965 0.90919 0.0
O509 O 0.78976 0.06525 0.87808 0.0
H510 H 0.69901 0.00647 0.89421 0.0
H511 H 0.74457 0.09138 0.89961 0.0
O512 O 0.76204 0.021 0.83951 0.0
C513 C 0.8034 0.07201 0.90333 0.0
O514 O 0.801 0.05264 0.92649 0.0
N515 N 0.75579 0.98603 0.89407 0.0
C516 C 0.77164 0.93252 0.92536 0.0
C517 C 0.77098 0.93283 0.89299 0.0
C518 C 0.76263 0.96004 0.87757 0.0
C519 C 0.75184 0.98445 0.9252 0.0
C520 C 0.75933 0.95775 0.94129 0.0
H521 H 0.76683 0.96151 0.85307 0.0
H522 H 0.74767 1.00532 0.9382 0.0
H523 H 0.81577 1.00495 0.82858 0.0
H524 H 0.86642 0.9621 0.89896 0.0
H525 H 0.65946 0.04791 0.91382 0.0
H526 H 0.78048 0.9138 0.8799 0.0
H527 H 0.75921 0.95824 0.96625 0.0
C528 C 0.14965 0.25119 0.07827 0.0
C529 C 0.13693 0.23698 0.10357 0.0
N530 N 0.1062 0.23562 0.09951 0.0
N531 N 0.12703 0.25913 0.05846 0.0
C532 C 0.10079 0.24923 0.07212 0.0
H533 H 0.17401 0.25436 0.07403 0.0
Co534 Co 0.13381 0.27588 0.01916 0.0
C535 C 0.07446 0.26096 0.98647 0.0
O536 O 0.08978 0.2505 0.96259 0.0
N537 N 0.14178 0.29336 0.9791 0.0
C538 C 0.1566 0.30026 0.93014 0.0
C539 C 0.14807 0.27897 0.95209 0.0
C540 C 0.14665 0.32356 0.97249 0.0
N541 N 0.15583 0.32842 0.94307 0.0
O542 O 0.12777 0.31652 0.0363 0.0
H543 H 0.14761 0.25432 0.94847 0.0
H544 H 0.14508 0.34182 0.98928 0.0
O545 O 0.08923 0.27165 0.00969 0.0
C546 C 0.15381 0.32408 0.04791 0.0
O547 O 0.17732 0.30543 0.04369 0.0
N548 N 0.1438 0.23619 0.00556 0.0
C549 C 0.17417 0.18263 0.02297 0.0
C550 C 0.14184 0.18322 0.02145 0.0
C551 C 0.12689 0.21048 0.01249 0.0
C552 C 0.17507 0.23441 1.00291 0.0
C553 C 0.19073 0.20772 0.0113 0.0
H554 H 0.10229 0.21215 0.01597 0.0
H555 H 0.18831 0.25515 0.99884 0.0
H556 H 0.07819 0.25118 0.06204 0.0
H557 H 0.1494 0.22728 0.12288 0.0
H558 H 0.16348 0.29523 0.90671 0.0
H559 H 0.12835 0.16433 0.03065 0.0
H560 H 0.2157 0.20805 0.01218 0.0
C561 C 0.14737 0.75644 0.43212 0.0
C562 C 0.13469 0.76993 0.4064 0.0
N563 N 0.10448 0.77461 0.41177 0.0
N564 N 0.1252 0.75225 0.45354 0.0
C565 C 0.09931 0.76369 0.4404 0.0
H566 H 0.17147 0.75102 0.43536 0.0
Co567 Co 0.13228 0.73736 0.4935 0.0
C568 C 0.07275 0.75136 0.52591 0.0
O569 O 0.08807 0.76206 0.54966 0.0
N570 N 0.14053 0.72168 0.53447 0.0
C571 C 0.1573 0.71711 0.5831 0.0
C572 C 0.14801 0.73734 0.56046 0.0
C573 C 0.14505 0.69177 0.5426 0.0
N574 N 0.15565 0.68834 0.57173 0.0
O575 O 0.12787 0.69586 0.47775 0.0
H576 H 0.1479 0.76214 0.56287 0.0
H577 H 0.1423 0.67263 0.52699 0.0
O578 O 0.08754 0.74073 0.50265 0.0
C579 C 0.15534 0.68846 0.46981 0.0
O580 O 0.17757 0.70802 0.47629 0.0
N581 N 0.14117 0.77783 0.50552 0.0
C582 C 0.17028 0.83157 0.48653 0.0
C583 C 0.13798 0.8303 0.48821 0.0
C584 C 0.12366 0.80298 0.49809 0.0
C585 C 0.17244 0.78032 0.50766 0.0
C586 C 0.18746 0.80711 0.4985 0.0
H587 H 0.09904 0.80075 0.49514 0.0
H588 H 0.18617 0.76001 0.51213 0.0
H589 H 0.07722 0.76482 0.45172 0.0
H590 H 0.14696 0.77679 0.38578 0.0
H591 H 0.16547 0.72327 0.60583 0.0
H592 H 0.12406 0.84869 0.47864 0.0
H593 H 0.21242 0.80725 0.49723 0.0
C594 C 0.00698 0.6147 0.82684 0.0
C595 C 0.02207 0.62695 0.85186 0.0
N596 N 0.02744 0.657 0.84627 0.0
N597 N 1.00248 0.63698 0.80564 0.0
C598 C 0.01534 0.66251 0.81818 0.0
H599 H 1.00062 0.59079 0.8239 0.0
Co600 Co 0.98577 0.63006 0.76645 0.0
C601 C 0.9945 0.68996 0.73345 0.0
O602 O 1.00123 0.67494 0.70807 0.0
N603 N 0.96827 0.62175 0.72633 0.0
C604 C 0.96042 0.60168 0.67947 0.0
C605 C 0.98224 0.61122 0.70046 0.0
C606 C 0.93782 0.61932 0.71956 0.0
N607 N 0.93228 0.60625 0.69172 0.0
O608 O 0.94503 0.63325 0.78425 0.0
H609 H 0.00683 0.60911 0.69717 0.0
H610 H 0.91979 0.62595 0.7353 0.0
O611 O 0.98751 0.67486 0.75783 0.0
C612 C 0.93766 0.60563 0.79158 0.0
O613 O 0.9568 0.58343 0.78384 0.0
N614 N 0.02582 0.62273 0.75235 0.0
C615 C 0.08287 0.59803 0.76804 0.0
C616 C 0.07909 0.63011 0.76504 0.0
C617 C 0.05022 0.64213 0.75689 0.0
C618 C 0.03021 0.59161 0.75149 0.0
C619 C 0.05867 0.57877 0.75882 0.0
H620 H 0.04671 0.66669 0.75884 0.0
H621 H 0.01052 0.57647 0.7493 0.0
H622 H 0.01657 0.68456 0.80678 0.0
H623 H 0.0294 0.61447 0.87218 0.0
H624 H 0.96518 0.59038 0.65776 0.0
H625 H 0.0973 0.64577 0.77187 0.0
H626 H 0.06033 0.55395 0.76114 0.0
C627 C 0.86645 0.7675 0.43017 0.0
C628 C 0.8791 0.75489 0.40393 0.0
N629 N 0.9074 0.74408 0.41086 0.0
N630 N 0.88673 0.76495 0.45353 0.0
C631 C 0.91143 0.75053 0.441 0.0
H632 H 0.84361 0.77729 0.43225 0.0
Co633 Co 0.87911 0.77668 0.49433 0.0
C634 C 0.93909 0.7658 0.52709 0.0
O635 O 0.92429 0.75822 0.55236 0.0
N636 N 0.87043 0.78916 0.53622 0.0
C637 C 0.85066 0.79158 0.58383 0.0
C638 C 0.8586 0.7724 0.55979 0.0
C639 C 0.87025 0.81842 0.54739 0.0
N640 N 0.85771 0.82069 0.57587 0.0
O641 O 0.8825 0.8192 0.48167 0.0
H642 H 0.85492 0.74779 0.55959 0.0
H643 H 0.87748 0.83825 0.53422 0.0
O644 O 0.92385 0.77378 0.50311 0.0
C645 C 0.85507 0.82919 0.47735 0.0
O646 O 0.83192 0.81094 0.48443 0.0
N647 N 0.87147 0.73525 0.50338 0.0
C648 C 0.84743 0.67843 0.48557 0.0
C649 C 0.87942 0.68234 0.48934 0.0
C650 C 0.89108 0.71106 0.49864 0.0
C651 C 0.84036 0.73092 0.50247 0.0
C652 C 0.82784 0.70258 0.49418 0.0
H653 H 0.91571 0.7146 0.49823 0.0
H654 H 0.82515 0.75053 0.50489 0.0
H655 H 0.93181 0.74429 0.45375 0.0
H656 H 0.86794 0.753 0.38171 0.0
H657 H 0.83962 0.78464 0.6051 0.0
H658 H 0.8953 0.6642 0.48283 0.0
H659 H 0.80311 0.70082 0.49116 0.0
C660 C 0.49444 0.39852 0.32496 0.0
C661 C 0.47728 0.38554 0.34827 0.0
N662 N 0.47743 0.3547 0.34449 0.0
N663 N 0.50531 0.37603 0.30643 0.0
C664 C 0.49492 0.34955 0.31928 0.0
H665 H 0.49706 0.42293 0.32065 0.0
Co666 Co 0.52301 0.3831 0.26754 0.0
C667 C 0.51038 0.32318 0.23526 0.0
O668 O 0.49922 0.33814 0.21149 0.0
N669 N 0.5414 0.39123 0.22775 0.0
C670 C 0.549 0.40575 0.17879 0.0
C671 C 0.52748 0.39673 0.20034 0.0
C672 C 0.57161 0.39688 0.22171 0.0
N673 N 0.57685 0.406 0.19233 0.0
O674 O 0.56333 0.37907 0.28593 0.0
H675 H 0.50296 0.39547 0.19614 0.0
H676 H 0.58955 0.39584 0.23884 0.0
O677 O 0.52074 0.33833 0.25837 0.0
C678 C 0.56951 0.40629 0.29554 0.0
O679 O 0.54938 0.42818 0.28968 0.0
N680 N 0.4833 0.39161 0.25267 0.0
C681 C 0.4297 0.4214 0.27094 0.0
C682 C 0.43062 0.38907 0.26946 0.0
C683 C 0.45785 0.3744 0.25987 0.0
C684 C 0.48095 0.42281 0.24961 0.0
C685 C 0.45423 0.43818 0.25845 0.0
H686 H 0.45987 0.34983 0.26336 0.0
H687 H 0.5014 0.43638 0.24519 0.0
H688 H 0.49787 0.32708 0.3091 0.0
H689 H 0.46481 0.39794 0.36597 0.0
H690 H 0.54427 0.41225 0.1552 0.0
H691 H 0.41212 0.3754 0.27919 0.0
H692 H 0.45427 0.46316 0.25921 0.0
C693 C 0.364 0.76548 0.57736 0.0
C694 C 0.37675 0.77963 0.60265 0.0
N695 N 0.40762 0.779 0.59953 0.0
N696 N 0.38671 0.75562 0.5585 0.0
C697 C 0.41308 0.76427 0.57272 0.0
H698 H 0.33964 0.76354 0.57248 0.0
Co699 Co 0.37995 0.73781 0.51967 0.0
C700 C 0.43937 0.75245 0.48679 0.0
O701 O 0.424 0.76295 0.46299 0.0
N702 N 0.37182 0.71916 0.48011 0.0
C703 C 0.35526 0.71096 0.4319 0.0
C704 C 0.36619 0.73257 0.45247 0.0
C705 C 0.36438 0.68917 0.47516 0.0
N706 N 0.35371 0.68362 0.44639 0.0
O707 O 0.3858 0.6976 0.53798 0.0
H708 H 0.3678 0.75699 0.44779 0.0
H709 H 0.3656 0.67159 0.49264 0.0
O710 O 0.42464 0.7418 0.51007 0.0
C711 C 0.35979 0.69085 0.55024 0.0
O712 O 0.33664 0.70994 0.54603 0.0
N713 N 0.36992 0.77715 0.50492 0.0
C714 C 0.33845 0.83036 0.52166 0.0
C715 C 0.37083 0.83016 0.52084 0.0
C716 C 0.38634 0.80311 0.51212 0.0
C717 C 0.33872 0.77861 0.50143 0.0
C718 C 0.32253 0.80512 0.50941 0.0
H719 H 0.41087 0.8017 0.5162 0.0
H720 H 0.32576 0.75773 0.49718 0.0
H721 H 0.43583 0.76036 0.56357 0.0
H722 H 0.36431 0.79057 0.62132 0.0
H723 H 0.34705 0.71555 0.40881 0.0
H724 H 0.38387 0.84919 0.53041 0.0
H725 H 0.29755 0.80449 0.50961 0.0
C726 C 0.01488 0.4007 0.68626 0.0
C727 C 0.0296 0.38831 0.66106 0.0
N728 N 0.03079 0.3575 0.66467 0.0
N729 N 0.00653 0.3778 0.70558 0.0
C730 C 0.01657 0.35172 0.69171 0.0
H731 H 0.01149 0.42499 0.69074 0.0
Co732 Co 0.98868 0.38402 0.74446 0.0
C733 C 1.00197 0.32439 0.77652 0.0
O734 O 0.01191 0.33962 0.80066 0.0
N735 N 0.96986 0.39139 0.78426 0.0
C736 C 0.96109 0.40862 0.83218 0.0
C737 C 0.98312 0.39832 0.81169 0.0
C738 C 0.93949 0.39685 0.78949 0.0
N739 N 0.93361 0.4082 0.81792 0.0
O740 O 0.94857 0.3795 0.72568 0.0
H741 H 0.0076 0.3979 0.8163 0.0
H742 H 0.92173 0.39373 0.77243 0.0
O743 O 0.99188 0.33927 0.75312 0.0
C744 C 0.94178 0.40692 0.71708 0.0
O745 O 0.96127 0.42908 0.72401 0.0
N746 N 0.02808 0.39312 0.7596 0.0
C747 C 0.08135 0.42425 0.74261 0.0
C748 C 0.08095 0.39187 0.74326 0.0
C749 C 0.05387 0.37652 0.7522 0.0
C750 C 0.02983 0.4243 0.76327 0.0
C751 C 0.0564 0.4403 0.75524 0.0
H752 H 0.05227 0.352 0.74809 0.0
H753 H 0.0091 0.43744 0.76765 0.0
H754 H 0.01417 0.32895 0.70135 0.0
H755 H 0.03963 0.40106 0.6421 0.0
H756 H 0.96539 0.41782 0.85496 0.0
H757 H 0.09977 0.37876 0.73337 0.0
H758 H 0.05593 0.46529 0.75506 0.0
C759 C 0.99206 0.1139 0.68925 0.0
C760 C 0.97465 0.1266 0.66607 0.0
N761 N 0.97696 0.15751 0.66796 0.0
N762 N 1.00532 0.13663 0.70582 0.0
C763 C 0.99606 0.16294 0.69191 0.0
H764 H 0.99337 0.08964 0.69485 0.0
Co765 Co 0.02466 0.13005 0.74389 0.0
C766 C 0.01567 0.19063 0.77694 0.0
O767 O 0.00855 0.17615 0.80249 0.0
N768 N 0.04449 0.12181 0.78266 0.0
C769 C 0.0538 0.10511 0.83057 0.0
C770 C 0.03169 0.11586 0.81053 0.0
C771 C 0.07462 0.11461 0.78687 0.0
N772 N 0.08086 0.10392 0.81552 0.0
O773 O 0.06429 0.13459 0.72394 0.0
H774 H 0.00741 0.11759 0.81588 0.0
H775 H 0.09173 0.11602 0.76892 0.0
O776 O 0.02259 0.17505 0.75281 0.0
C777 C 0.07063 0.10906 0.71058 0.0
O778 O 0.05124 0.08601 0.71385 0.0
N779 N 0.98565 0.12196 0.76052 0.0
C780 C 0.92883 0.09543 0.74747 0.0
C781 C 0.93192 0.12768 0.74911 0.0
C782 C 0.96071 0.14063 0.75586 0.0
C783 C 0.98189 0.09089 0.76349 0.0
C784 C 0.95353 0.07712 0.75735 0.0
H785 H 0.96371 0.16509 0.75231 0.0
H786 H 1.00195 0.07626 0.76586 0.0
H787 H 1.00144 0.18565 0.70029 0.0
H788 H 0.96062 0.11403 0.64972 0.0
H789 H 0.04973 0.09691 0.85377 0.0
H790 H 0.91329 0.14264 0.74186 0.0
H791 H 0.95236 0.05219 0.75618 0.0
C792 C 0.58131 0.64638 0.74819 0.0
C793 C 0.60592 0.63276 0.73362 0.0
N794 N 0.60141 0.60206 0.73361 0.0
N795 N 0.56149 0.62436 0.75773 0.0
C796 C 0.57444 0.59753 0.74841 0.0
H797 H 0.57745 0.6709 0.75046 0.0
Co798 Co 0.5228 0.63245 0.77535 0.0
C799 C 0.48913 0.57373 0.7595 0.0
O800 O 0.46625 0.58929 0.74733 0.0
N801 N 0.48341 0.6417 0.79369 0.0
C802 C 0.43508 0.6582 0.80146 0.0
C803 C 0.45572 0.64675 0.78015 0.0
C804 C 0.47851 0.65011 0.82339 0.0
N805 N 0.44962 0.66068 0.82869 0.0
O806 O 0.54055 0.62578 0.81567 0.0
H807 H 0.45103 0.64442 0.75582 0.0
H808 H 0.49606 0.64956 0.84092 0.0
O809 O 0.51192 0.58825 0.77137 0.0
C810 C 0.55421 0.65092 0.82291 0.0
O811 O 0.55178 0.67447 0.80402 0.0
N812 N 0.50859 0.64304 0.73596 0.0
C813 C 0.52533 0.67445 0.68272 0.0
C814 C 0.52426 0.64208 0.6829 0.0
C815 C 0.51556 0.62662 0.70995 0.0
C816 C 0.50536 0.67428 0.73458 0.0
C817 C 0.51325 0.69043 0.70803 0.0
H818 H 0.51937 0.60204 0.71123 0.0
H819 H 0.50122 0.68724 0.75547 0.0
H820 H 0.56412 0.57513 0.75158 0.0
H821 H 0.62504 0.64457 0.72272 0.0
H822 H 0.41187 0.66601 0.79669 0.0
H823 H 0.53358 0.62893 0.66383 0.0
H824 H 0.51341 0.71541 0.70865 0.0
C825 C 0.89953 0.18191 0.50728 0.0
C826 C 0.88694 0.15611 0.52071 0.0
N827 N 0.85674 0.1614 0.52549 0.0
N828 N 0.87733 0.20331 0.50313 0.0
C829 C 0.85152 0.19012 0.51474 0.0
H830 H 0.92362 0.18514 0.5018 0.0
Co831 Co 0.88448 0.24315 0.48774 0.0
C832 C 0.8242 0.27611 0.49719 0.0
O833 O 0.83881 0.30158 0.50439 0.0
N834 N 0.89313 0.28376 0.47168 0.0
C835 C 0.91015 0.33226 0.46652 0.0
C836 C 0.9013 0.30973 0.48706 0.0
C837 C 0.89702 0.29169 0.44166 0.0
N838 N 0.90764 0.32082 0.43785 0.0
O839 O 0.88081 0.22692 0.44655 0.0
H840 H 0.90155 0.31231 0.51181 0.0
H841 H 0.89371 0.27595 0.4227 0.0
O842 O 0.83964 0.252 0.48989 0.0
C843 C 0.90771 0.2174 0.43912 0.0
O844 O 0.93068 0.2233 0.45795 0.0
N845 N 0.89183 0.25585 0.52813 0.0
C846 C 0.91597 0.24032 0.58537 0.0
C847 C 0.88392 0.24293 0.58121 0.0
C848 C 0.87219 0.25089 0.55224 0.0
C849 C 0.92287 0.257 0.53281 0.0
C850 C 0.93545 0.2497 0.56138 0.0
H851 H 0.8477 0.24868 0.54844 0.0
H852 H 0.93817 0.25957 0.51328 0.0
H853 H 0.82947 0.20141 0.51602 0.0
H854 H 0.89924 0.13545 0.52738 0.0
H855 H 0.91839 0.35507 0.47238 0.0
H856 H 0.86812 0.23598 0.59925 0.0
H857 H 0.96027 0.24769 0.56333 0.0
C858 C 0.43339 0.86346 0.7455 0.0
C859 C 0.40881 0.8759 0.72994 0.0
N860 N 0.41063 0.90683 0.73198 0.0
N861 N 0.45069 0.88638 0.75747 0.0
C862 C 0.43603 0.91258 0.74902 0.0
H863 H 0.43914 0.83924 0.74673 0.0
Co864 Co 0.48912 0.87993 0.77628 0.0
C865 C 0.52224 0.93979 0.76297 0.0
O866 O 0.54733 0.92509 0.75472 0.0
N867 N 0.5282 0.87194 0.79577 0.0
C868 C 0.57637 0.85555 0.8046 0.0
C869 C 0.55617 0.86673 0.78283 0.0
C870 C 0.53249 0.86376 0.82564 0.0
N871 N 0.5613 0.85328 0.83158 0.0
O872 O 0.47004 0.88646 0.81604 0.0
H873 H 0.56137 0.86879 0.75856 0.0
H874 H 0.51447 0.86421 0.84271 0.0
O875 O 0.49854 0.92459 0.77191 0.0
C876 C 0.4562 0.86138 0.82314 0.0
O877 O 0.45873 0.8378 0.8043 0.0
N878 N 0.50491 0.86967 0.73745 0.0
C879 C 0.49046 0.83852 0.68356 0.0
C880 C 0.49129 0.87089 0.68391 0.0
C881 C 0.49884 0.88625 0.71135 0.0
C882 C 0.50854 0.83848 0.73601 0.0
C883 C 0.5017 0.82243 0.70912 0.0
H884 H 0.49468 0.91077 0.71274 0.0
H885 H 0.51194 0.82545 0.75698 0.0
H886 H 0.44397 0.93541 0.75473 0.0
H887 H 0.39172 0.8632 0.71692 0.0
H888 H 0.59964 0.84767 0.80026 0.0
H889 H 0.48241 0.88402 0.66464 0.0
H890 H 0.5013 0.79745 0.70964 0.0
C891 C 0.11217 0.32791 0.51141 0.0
C892 C 0.12469 0.35354 0.52521 0.0
N893 N 0.15542 0.34962 0.52685 0.0
N894 N 0.13491 0.30801 0.50399 0.0
C895 C 0.16105 0.32194 0.51382 0.0
H896 H 0.08785 0.32357 0.50811 0.0
Co897 Co 0.12825 0.26845 0.4877 0.0
C898 C 0.18819 0.23635 0.50103 0.0
O899 O 0.17316 0.21238 0.51169 0.0
N900 N 0.12032 0.22807 0.47065 0.0
C901 C 0.10515 0.17908 0.4644 0.0
C902 C 0.11405 0.20121 0.48536 0.0
C903 C 0.11518 0.22112 0.44058 0.0
N904 N 0.10572 0.1917 0.43613 0.0
O905 O 0.13277 0.28552 0.44687 0.0
H906 H 0.11477 0.19783 0.51001 0.0
H907 H 0.11673 0.2377 0.42213 0.0
O908 O 0.17311 0.25958 0.49075 0.0
C909 C 0.10599 0.29588 0.44006 0.0
O910 O 0.08321 0.29025 0.45923 0.0
N911 N 0.11952 0.25499 0.52772 0.0
C912 C 0.0903 0.2734 0.58156 0.0
C913 C 0.12261 0.27192 0.58027 0.0
C914 C 0.13698 0.26239 0.55289 0.0
C915 C 0.08831 0.25229 0.53028 0.0
C916 C 0.07322 0.26121 0.55712 0.0
H917 H 0.16153 0.26586 0.5506 0.0
H918 H 0.0746 0.24786 0.50995 0.0
H919 H 0.1837 0.31188 0.51221 0.0
H920 H 0.11207 0.37302 0.53441 0.0
H921 H 0.09811 0.15574 0.46974 0.0
H922 H 0.13647 0.28154 0.59866 0.0
H923 H 0.04824 0.26215 0.55732 0.0
C924 C 0.57665 0.36386 0.76653 0.0
C925 C 0.59964 0.37684 0.784 0.0
N926 N 0.59772 0.40773 0.78131 0.0
N927 N 0.56007 0.38639 0.75294 0.0
C928 C 0.57399 0.41284 0.76182 0.0
H929 H 0.57105 0.33959 0.76552 0.0
Co930 Co 0.5217 0.37976 0.7339 0.0
C931 C 0.48874 0.44007 0.74597 0.0
O932 O 0.46346 0.42566 0.75409 0.0
N933 N 0.48271 0.37167 0.71427 0.0
C934 C 0.43436 0.3559 0.70534 0.0
C935 C 0.45461 0.36695 0.72712 0.0
C936 C 0.47848 0.36325 0.68446 0.0
N937 N 0.44953 0.3532 0.67847 0.0
O938 O 0.54113 0.38527 0.69414 0.0
H939 H 0.4493 0.36936 0.75133 0.0
H940 H 0.49658 0.36328 0.66746 0.0
O941 O 0.51242 0.42459 0.73741 0.0
C942 C 0.55483 0.35988 0.68785 0.0
O943 O 0.55219 0.33696 0.70747 0.0
N944 N 0.50551 0.37037 0.7728 0.0
C945 C 0.52052 0.34 0.82695 0.0
C946 C 0.51956 0.37236 0.82621 0.0
C947 C 0.51164 0.38733 0.79866 0.0
C948 C 0.50178 0.33922 0.77473 0.0
C949 C 0.50889 0.32356 0.80177 0.0
H950 H 0.5157 0.41184 0.79693 0.0
H951 H 0.49822 0.32587 0.75398 0.0
H952 H 0.56578 0.43546 0.75577 0.0
H953 H 0.61578 0.36447 0.79844 0.0
H954 H 0.41092 0.34845 0.70958 0.0
H955 H 0.52862 0.38577 0.84521 0.0
H956 H 0.50922 0.29857 0.80159 0.0
C957 C 0.6216 0.17483 0.51056 0.0
C958 C 0.63566 0.14966 0.49735 0.0
N959 N 0.66459 0.15766 0.48952 0.0
N960 N 0.64168 0.19858 0.51159 0.0
C961 C 0.66764 0.18736 0.49826 0.0
H962 H 0.59791 0.17582 0.51817 0.0
Co963 Co 0.63242 0.23843 0.52621 0.0
C964 C 0.69102 0.2738 0.51494 0.0
O965 O 0.67531 0.29828 0.50669 0.0
N966 N 0.622 0.27901 0.54145 0.0
C967 C 0.60382 0.32719 0.5455 0.0
C968 C 0.61312 0.30437 0.52549 0.0
C969 C 0.61799 0.28758 0.57129 0.0
N970 N 0.6067 0.31655 0.57444 0.0
O971 O 0.6372 0.22337 0.56778 0.0
H972 H 0.61284 0.30639 0.50069 0.0
H973 H 0.62187 0.27244 0.59061 0.0
O974 O 0.67668 0.24941 0.52339 0.0
C975 C 0.61063 0.21318 0.57555 0.0
O976 O 0.58739 0.21792 0.55671 0.0
N977 N 0.62384 0.24987 0.48568 0.0
C978 C 0.59886 0.2356 0.42843 0.0
C979 C 0.63093 0.23874 0.43206 0.0
C980 C 0.64308 0.2461 0.46105 0.0
C981 C 0.59267 0.25 0.48172 0.0
C982 C 0.57967 0.24343 0.45318 0.0
H983 H 0.66772 0.24481 0.46425 0.0
H984 H 0.57774 0.25167 0.50162 0.0
H985 H 0.68821 0.20072 0.49435 0.0
H986 H 0.6251 0.12747 0.49295 0.0
H987 H 0.59512 0.34967 0.53908 0.0
H988 H 0.6465 0.23284 0.41344 0.0
H989 H 0.55488 0.24086 0.45161 0.0
C990 C 0.42874 0.14672 0.75555 0.0
C991 C 0.40363 0.13333 0.7696 0.0
N992 N 0.4098 0.10319 0.77381 0.0
N993 N 0.45051 0.12507 0.75056 0.0
C994 C 0.43819 0.09875 0.76197 0.0
H995 H 0.43141 0.17098 0.75052 0.0
Co996 Co 0.49039 0.13287 0.7357 0.0
C997 C 0.52267 0.07353 0.75068 0.0
O998 O 0.54557 0.08876 0.76325 0.0
N999 N 0.53129 0.14155 0.72018 0.0
C1000 C 0.58037 0.15713 0.71592 0.0
C1001 C 0.55753 0.14784 0.73594 0.0
C1002 C 0.5394 0.14685 0.69043 0.0
N1003 N 0.56886 0.15666 0.68719 0.0
O1004 O 0.4748 0.12833 0.69417 0.0
H1005 H 0.55999 0.14693 0.76069 0.0
H1006 H 0.52366 0.14509 0.67131 0.0
O1007 O 0.50011 0.08838 0.7388 0.0
C1008 C 0.46601 0.1556 0.687 0.0
O1009 O 0.47162 0.17782 0.70683 0.0
N1010 N 0.50224 0.14195 0.7762 0.0
C1011 C 0.48296 0.17186 0.82943 0.0
C1012 C 0.48444 0.13952 0.82854 0.0
C1013 C 0.49445 0.12481 0.80149 0.0
C1014 C 0.50476 0.17321 0.77841 0.0
C1015 C 0.49556 0.18861 0.80494 0.0
H1016 H 0.49138 0.10017 0.79954 0.0
H1017 H 0.50961 0.1867 0.75803 0.0
H1018 H 0.45004 0.0769 0.76269 0.0
H1019 H 0.38301 0.14509 0.77732 0.0
H1020 H 0.6034 0.16437 0.72221 0.0
H1021 H 0.47467 0.12586 0.84702 0.0
H1022 H 0.4949 0.21359 0.80488 0.0
C1023 C 0.39938 0.32656 0.4963 0.0
C1024 C 0.38722 0.35172 0.48134 0.0
N1025 N 0.35661 0.34744 0.47847 0.0
N1026 N 0.37654 0.3066 0.50314 0.0
C1027 C 0.35072 0.32004 0.49194 0.0
H1028 H 0.42356 0.32254 0.50081 0.0
Co1029 Co 0.38294 0.26737 0.51996 0.0
C1030 C 0.32218 0.2355 0.51261 0.0
O1031 O 0.33662 0.20998 0.50513 0.0
N1032 N 0.39081 0.22718 0.53764 0.0
C1033 C 0.41014 0.1799 0.54554 0.0
C1034 C 0.39992 0.20068 0.52376 0.0
C1035 C 0.39476 0.221 0.56804 0.0
N1036 N 0.40744 0.19302 0.57347 0.0
O1037 O 0.38112 0.28556 0.56051 0.0
H1038 H 0.40075 0.19689 0.49918 0.0
H1039 H 0.38966 0.23721 0.58618 0.0
O1040 O 0.33784 0.25961 0.51938 0.0
C1041 C 0.40898 0.29261 0.5672 0.0
O1042 O 0.43065 0.28491 0.54745 0.0
N1043 N 0.38901 0.25278 0.47987 0.0
C1044 C 0.41355 0.27003 0.42323 0.0
C1045 C 0.38144 0.26807 0.42734 0.0
C1046 C 0.36949 0.25892 0.45594 0.0
C1047 C 0.42 0.25078 0.47493 0.0
C1048 C 0.43274 0.25888 0.44664 0.0
H1049 H 0.34507 0.26164 0.45993 0.0
H1050 H 0.43534 0.24739 0.49427 0.0
H1051 H 0.32815 0.30971 0.49277 0.0
H1052 H 0.40004 0.37112 0.47227 0.0
H1053 H 0.42081 0.15783 0.54088 0.0
H1054 H 0.36584 0.2764 0.40973 0.0
H1055 H 0.45761 0.26032 0.44466 0.0
C1056 C 0.7421 0.57333 0.64702 0.0
C1057 C 0.7244 0.59635 0.63433 0.0
N1058 N 0.72509 0.59326 0.60345 0.0
N1059 N 0.75389 0.55563 0.62432 0.0
C1060 C 0.74344 0.5687 0.598 0.0
H1061 H 0.74466 0.56867 0.67135 0.0
Co1062 Co 0.7733 0.51742 0.63101 0.0
C1063 C 0.76024 0.48494 0.57134 0.0
O1064 O 0.74961 0.46096 0.58636 0.0
N1065 N 0.79338 0.47842 0.6388 0.0
C1066 C 0.80287 0.43008 0.65439 0.0
C1067 C 0.78077 0.45023 0.64372 0.0
C1068 C 0.82346 0.47419 0.64628 0.0
N1069 N 0.82976 0.44534 0.65642 0.0
O1070 O 0.81285 0.5375 0.62614 0.0
H1071 H 0.75654 0.44478 0.6418 0.0
H1072 H 0.84055 0.49219 0.64539 0.0
O1073 O 0.77051 0.50819 0.58637 0.0
C1074 C 0.81877 0.54834 0.65295 0.0
O1075 O 0.7991 0.54222 0.67518 0.0
N1076 N 0.73443 0.50084 0.64032 0.0
C1077 C 0.68106 0.51638 0.67192 0.0
C1078 C 0.68116 0.51574 0.63958 0.0
C1079 C 0.7083 0.50748 0.62398 0.0
C1080 C 0.73299 0.4968 0.67145 0.0
C1081 C 0.70635 0.50413 0.6877 0.0
H1082 H 0.70958 0.51174 0.59949 0.0
H1083 H 0.75392 0.49291 0.6844 0.0
H1084 H 0.74726 0.55922 0.57537 0.0
H1085 H 0.71137 0.6135 0.64693 0.0
H1086 H 0.79887 0.40669 0.66209 0.0
H1087 H 0.66206 0.52533 0.62667 0.0
H1088 H 0.70704 0.5043 0.71266 0.0
C1089 C 0.83266 0.01406 0.61877 0.0
C1090 C 0.85539 0.03124 0.63256 0.0
N1091 N 0.85116 0.03009 0.66328 0.0
N1092 N 0.81405 1.00207 0.64062 0.0
C1093 C 0.82626 0.01191 0.6676 0.0
H1094 H 0.82864 0.01233 0.59424 0.0
Co1095 Co 0.77567 0.98397 0.63177 0.0
C1096 C 0.74148 1.00147 0.69011 0.0
O1097 O 0.71986 0.01574 0.67456 0.0
N1098 N 0.73676 0.96541 0.62176 0.0
C1099 C 0.68806 0.9577 0.60654 0.0
C1100 C 0.70857 0.97856 0.61887 0.0
C1101 C 0.73245 0.93648 0.61069 0.0
N1102 N 0.70321 0.93122 0.6011 0.0
O1103 O 0.79325 0.94364 0.63958 0.0
H1104 H 0.70345 1.00257 0.6229 0.0
H1105 H 0.75066 0.9197 0.60855 0.0
O1106 O 0.76364 0.98831 0.67568 0.0
C1107 C 0.80936 0.93609 0.61603 0.0
O1108 O 0.8099 0.95499 0.59239 0.0
N1109 N 0.76134 0.02324 0.6202 0.0
C1110 C 0.77626 0.07645 0.5877 0.0
C1111 C 0.77571 0.07673 0.62005 0.0
C1112 C 0.76796 0.0497 0.63605 0.0
C1113 C 0.75762 0.02406 0.58902 0.0
C1114 C 0.7646 0.05056 0.57234 0.0
H1115 H 0.77214 0.04893 0.66057 0.0
H1116 H 0.7537 1.00288 0.57645 0.0
H1117 H 0.8158 0.00805 0.68983 0.0
H1118 H 0.8729 0.04458 0.6208 0.0
H1119 H 0.66443 0.96243 0.6001 0.0
H1120 H 0.78476 0.09624 0.63275 0.0
H1121 H 0.76437 0.04956 0.54739 0.0
C1122 C 0.25836 0.93394 0.64692 0.0
C1123 C 0.27268 0.90854 0.63445 0.0
N1124 N 0.27579 0.91316 0.60394 0.0
N1125 N 0.25209 0.95438 0.62436 0.0
C1126 C 0.26311 0.941 0.59839 0.0
H1127 H 0.25386 0.93771 0.67113 0.0
Co1128 Co 0.23557 0.99385 0.63099 0.0
C1129 C 0.24903 0.02557 0.57102 0.0
O1130 O 0.26 0.04952 0.58586 0.0
N1131 N 0.21826 0.03425 0.63876 0.0
C1132 C 0.21193 0.08324 0.65391 0.0
C1133 C 0.2329 0.06121 0.64474 0.0
C1134 C 0.18818 0.0411 0.64416 0.0
N1135 N 0.1837 0.07048 0.65373 0.0
O1136 O 0.19478 0.97646 0.62665 0.0
H1137 H 0.25755 0.06471 0.64379 0.0
H1138 H 0.16975 0.02449 0.64275 0.0
O1139 O 0.23853 1.00256 0.58624 0.0
C1140 C 0.18792 0.96767 0.65397 0.0
O1141 O 0.20732 0.97459 0.67619 0.0
N1142 N 0.27554 0.00762 0.63975 0.0
C1143 C 0.32953 0.99052 0.66947 0.0
C1144 C 0.32837 0.99134 0.63717 0.0
C1145 C 0.30094 1.00032 0.62254 0.0
C1146 C 0.27789 0.01078 0.67093 0.0
C1147 C 0.30481 1.00254 0.68625 0.0
H1148 H 0.29886 0.99656 0.59803 0.0
H1149 H 0.25742 0.01511 0.68448 0.0
H1150 H 0.26267 0.95163 0.57595 0.0
H1151 H 0.28119 0.88872 0.64701 0.0
H1152 H 0.21728 0.10658 0.66093 0.0
H1153 H 0.34694 0.98164 0.62357 0.0
H1154 H 0.30483 1.00182 0.71122 0.0
C1155 C 0.18201 0.50295 0.61454 0.0
C1156 C 0.15701 0.48862 0.62772 0.0
N1157 N 0.16176 0.48703 0.65832 0.0
N1158 N 0.20233 0.51076 0.63674 0.0
C1159 C 0.18927 0.50066 0.66322 0.0
H1160 H 0.18576 0.50615 0.59012 0.0
Co1161 Co 0.24168 0.52709 0.62913 0.0
C1162 C 0.27427 0.5104 0.68816 0.0
O1163 O 0.29708 0.49773 0.67286 0.0
N1164 N 0.28184 0.544 0.62052 0.0
C1165 C 0.33108 0.54984 0.60608 0.0
C1166 C 0.30887 0.52915 0.6154 0.0
C1167 C 0.28868 0.57386 0.61411 0.0
N1168 N 0.31831 0.57806 0.60518 0.0
O1169 O 0.22516 0.56799 0.6357 0.0
H1170 H 0.31226 0.50452 0.61697 0.0
H1171 H 0.27194 0.59223 0.61441 0.0
O1172 O 0.25188 0.52273 0.6734 0.0
C1173 C 0.21261 0.57573 0.61017 0.0
O1174 O 0.21588 0.5572 0.58644 0.0
N1175 N 0.25461 0.48723 0.61859 0.0
C1176 C 0.23749 0.43397 0.5874 0.0
C1177 C 0.23862 0.43424 0.61973 0.0
C1178 C 0.2474 0.46134 0.63508 0.0
C1179 C 0.25751 0.48582 0.58734 0.0
C1180 C 0.24931 0.45929 0.57129 0.0
H1181 H 0.2437 0.46271 0.65965 0.0
H1182 H 0.26178 0.50669 0.57439 0.0
H1183 H 0.19994 0.50234 0.68561 0.0
H1184 H 0.13748 0.4789 0.6156 0.0
H1185 H 0.3546 0.54434 0.5998 0.0
H1186 H 0.22932 0.41518 0.63291 0.0
H1187 H 0.24878 0.45989 0.54633 0.0
C1188 C 0.74924 0.43461 0.86289 0.0
C1189 C 0.73369 0.40972 0.87487 0.0
N1190 N 0.72983 0.4144 0.90529 0.0
N1191 N 0.75551 0.4548 0.88568 0.0
C1192 C 0.74331 0.44179 0.91127 0.0
H1193 H 0.75447 0.4383 0.83883 0.0
Co1194 Co 0.77263 0.49389 0.87914 0.0
C1195 C 0.76302 0.5265 0.93927 0.0
O1196 O 0.75552 0.55178 0.92447 0.0
N1197 N 0.7905 0.53395 0.8711 0.0
C1198 C 0.79809 0.58124 0.85172 0.0
C1199 C 0.77649 0.56051 0.86238 0.0
C1200 C 0.82083 0.54001 0.86637 0.0
N1201 N 0.82605 0.56803 0.85369 0.0
O1202 O 0.81321 0.47578 0.88266 0.0
H1203 H 0.75187 0.56432 0.86202 0.0
H1204 H 0.83905 0.52371 0.87084 0.0
O1205 O 0.77058 0.50239 0.92399 0.0
C1206 C 0.82051 0.4678 0.85522 0.0
O1207 O 0.80124 0.47489 0.83295 0.0
N1208 N 0.73277 0.50837 0.87149 0.0
C1209 C 0.67647 0.4923 0.8454 0.0
C1210 C 0.6796 0.49463 0.87759 0.0
C1211 C 0.70809 0.503 0.89031 0.0
C1212 C 0.7289 0.51013 0.84037 0.0
C1213 C 0.70082 0.50255 0.82684 0.0
H1214 H 0.71122 0.50045 0.91485 0.0
H1215 H 0.74882 0.513 0.82564 0.0
H1216 H 0.74338 0.45245 0.93369 0.0
H1217 H 0.72485 0.39026 0.86197 0.0
H1218 H 0.79326 0.60334 0.84119 0.0
H1219 H 0.66123 0.48708 0.89273 0.0
H1220 H 0.69967 0.50084 0.80197 0.0
C1221 C 0.68692 0.01752 0.39663 0.0
C1222 C 0.66311 0.03432 0.38411 0.0
N1223 N 0.66381 0.03076 0.35325 0.0
N1224 N 0.70281 1.00365 0.37378 0.0
C1225 C 0.68761 0.01148 0.34773 0.0
H1226 H 0.69357 0.01722 0.42064 0.0
Co1227 Co 0.74152 0.98471 0.37831 0.0
C1228 C 0.77103 1.00416 0.31904 0.0
O1229 O 0.7945 0.01538 0.33456 0.0
N1230 N 0.78022 0.96428 0.38357 0.0
C1231 C 0.82105 0.93376 0.376 0.0
C1232 C 0.79965 0.95256 0.36213 0.0
C1233 C 0.78992 0.951 0.41017 0.0
N1234 N 0.81481 0.9325 0.4063 0.0
O1235 O 0.72241 0.94483 0.37268 0.0
H1236 H 0.79695 0.95444 0.33754 0.0
H1237 H 0.77756 0.95311 0.43169 0.0
O1238 O 0.74915 0.99038 0.33341 0.0
C1239 C 0.71286 0.93829 0.39983 0.0
O1240 O 0.71802 0.95857 0.42175 0.0
N1241 N 0.75827 0.02395 0.38845 0.0
C1242 C 0.74551 0.07727 0.42198 0.0
C1243 C 0.74229 0.0771 0.38983 0.0
C1244 C 0.7491 0.05014 0.37331 0.0
C1245 C 0.76639 0.02572 0.41876 0.0
C1246 C 0.76035 0.05222 0.43593 0.0
H1247 H 0.7417 0.04904 0.34959 0.0
H1248 H 0.77284 1.00532 0.43121 0.0
H1249 H 0.69502 1.00495 0.32495 0.0
H1250 H 0.64729 0.04895 0.39669 0.0
H1251 H 0.83785 0.91962 0.36412 0.0
H1252 H 0.7309 0.09596 0.37808 0.0
H1253 H 0.76382 0.05166 0.46065 0.0
C1254 C 0.26764 0.07266 0.86012 0.0
C1255 C 0.28283 0.09775 0.87215 0.0
N1256 N 0.28255 0.09535 0.90308 0.0
N1257 N 0.25763 0.05456 0.88333 0.0
C1258 C 0.26697 0.06914 0.90925 0.0
H1259 H 0.26522 0.06729 0.83593 0.0
Co1260 Co 0.23933 0.01575 0.87774 0.0
C1261 C 0.25171 0.98464 0.93818 0.0
O1262 O 0.26163 0.96006 0.92361 0.0
N1263 N 0.22007 0.97606 0.87083 0.0
C1264 C 0.21116 0.92783 0.85445 0.0
C1265 C 0.23309 0.94818 0.86524 0.0
C1266 C 0.18992 0.97132 0.86394 0.0
N1267 N 0.18401 0.94268 0.85312 0.0
O1268 O 0.19947 0.03509 0.88174 0.0
H1269 H 0.25745 0.94317 0.86671 0.0
H1270 H 0.1724 0.98886 0.86551 0.0
O1271 O 0.24208 0.00786 0.92271 0.0
C1272 C 0.19319 0.04405 0.85434 0.0
O1273 O 0.21288 0.03706 0.83238 0.0
N1274 N 0.27861 0.99988 0.86925 0.0
C1275 C 0.33139 0.0178 0.8379 0.0
C1276 C 0.33108 0.0174 0.87026 0.0
C1277 C 0.30427 0.00788 0.88574 0.0
C1278 C 0.28052 0.99558 0.83818 0.0
C1279 C 0.30687 1.00411 0.82206 0.0
H1280 H 0.30257 0.01227 0.91018 0.0
H1281 H 0.25992 0.99057 0.8251 0.0
H1282 H 0.26312 0.06051 0.93219 0.0
H1283 H 0.29427 0.1157 0.85911 0.0
H1284 H 0.21542 0.90473 0.84601 0.0
H1285 H 0.34961 0.02794 0.88325 0.0
H1286 H 0.30642 1.00383 0.7971 0.0
C1287 C 0.3272 0.49988 0.39838 0.0
C1288 C 0.35235 0.48507 0.38595 0.0
N1289 N 0.34808 0.48274 0.35532 0.0
N1290 N 0.30726 0.50719 0.37568 0.0
C1291 C 0.32073 0.4964 0.3497 0.0
H1292 H 0.32316 0.5039 0.42263 0.0
Co1293 Co 0.26796 0.52405 0.38222 0.0
C1294 C 0.23565 0.51321 0.32213 0.0
O1295 O 0.21082 0.50441 0.33699 0.0
N1296 N 0.22771 0.54174 0.39015 0.0
C1297 C 0.17997 0.54898 0.40868 0.0
C1298 C 0.20086 0.52762 0.39778 0.0
C1299 C 0.2217 0.57193 0.39583 0.0
N1300 N 0.1934 0.57688 0.40798 0.0
O1301 O 0.2859 0.56475 0.37882 0.0
H1302 H 0.19696 0.50301 0.39732 0.0
H1303 H 0.23817 0.59022 0.39243 0.0
O1304 O 0.25945 0.52184 0.33733 0.0
C1305 C 0.29403 0.57149 0.40638 0.0
O1306 O 0.28722 0.55166 0.42825 0.0
N1307 N 0.25366 0.4841 0.39 0.0
C1308 C 0.2724 0.42991 0.41826 0.0
C1309 C 0.27062 0.43158 0.38601 0.0
C1310 C 0.26077 0.45912 0.37212 0.0
C1311 C 0.25109 0.48107 0.42116 0.0
C1312 C 0.26009 0.45402 0.43576 0.0
H1313 H 0.2639 0.46173 0.34756 0.0
H1314 H 0.24681 0.5012 0.43523 0.0
H1315 H 0.31047 0.49767 0.32718 0.0
H1316 H 0.37169 0.47565 0.3986 0.0
H1317 H 0.15759 0.54396 0.41852 0.0
H1318 H 0.28023 0.41342 0.37181 0.0
H1319 H 0.26114 0.45348 0.4607 0.0
C1320 C 0.64933 0.7557 0.57812 0.0
C1321 C 0.63694 0.7422 0.604 0.0
N1322 N 0.60702 0.73606 0.59844 0.0
N1323 N 0.62726 0.75841 0.55642 0.0
C1324 C 0.60175 0.74612 0.56953 0.0
H1325 H 0.67313 0.76241 0.57507 0.0
Co1326 Co 0.63394 0.77331 0.51652 0.0
C1327 C 0.57322 0.76578 0.48477 0.0
O1328 O 0.58766 0.75835 0.45924 0.0
N1329 N 0.64184 0.78913 0.47561 0.0
C1330 C 0.6623 0.79604 0.42873 0.0
C1331 C 0.65317 0.77462 0.45037 0.0
C1332 C 0.64316 0.81937 0.46769 0.0
N1333 N 0.65657 0.82438 0.43995 0.0
O1334 O 0.6326 0.81472 0.53288 0.0
H1335 H 0.65626 0.75003 0.44804 0.0
H1336 H 0.63562 0.83777 0.48262 0.0
O1337 O 0.58888 0.77267 0.50881 0.0
C1338 C 0.6607 0.82204 0.53821 0.0
O1339 O 0.68225 0.80232 0.53008 0.0
N1340 N 0.63974 0.73252 0.50379 0.0
C1341 C 0.663 0.67512 0.52063 0.0
C1342 C 0.631 0.67985 0.51821 0.0
C1343 C 0.61971 0.70885 0.50937 0.0
C1344 C 0.67071 0.7272 0.50282 0.0
C1345 C 0.68281 0.69855 0.51063 0.0
H1346 H 0.59528 0.71314 0.51141 0.0
H1347 H 0.6864 0.74637 0.49995 0.0
H1348 H 0.57984 0.74393 0.55803 0.0
H1349 H 0.64921 0.73651 0.62496 0.0
H1350 H 0.6743 0.79105 0.40744 0.0
H1351 H 0.61494 0.66227 0.52575 0.0
H1352 H 0.7076 0.69617 0.51254 0.0
C1353 C 0.64607 0.26335 0.93246 0.0
C1354 C 0.63382 0.27771 0.90701 0.0
N1355 N 0.6031 0.27979 0.91091 0.0
N1356 N 0.62315 0.25609 0.95219 0.0
C1357 C 0.59721 0.26645 0.93833 0.0
H1358 H 0.6703 0.25944 0.93677 0.0
Co1359 Co 0.62921 0.23906 0.99137 0.0
C1360 C 0.56921 0.25025 0.02323 0.0
O1361 O 0.58433 0.25929 0.0478 0.0
N1362 N 0.63648 0.22101 0.03153 0.0
C1363 C 0.65524 0.21246 0.07886 0.0
C1364 C 0.6451 0.23452 0.05836 0.0
C1365 C 0.64043 0.19052 0.03732 0.0
N1366 N 0.65287 0.1847 0.06528 0.0
O1367 O 0.62625 0.1985 0.97311 0.0
H1368 H 0.64584 0.25907 0.06251 0.0
H1369 H 0.63548 0.17258 0.02088 0.0
O1370 O 0.58423 0.24125 0.99945 0.0
C1371 C 0.65418 0.19199 0.96602 0.0
O1372 O 0.67563 0.21207 0.97345 0.0
N1373 N 0.63692 0.27894 0.00599 0.0
C1374 C 0.66608 0.33297 0.98796 0.0
C1375 C 0.63375 0.33152 0.98899 0.0
C1376 C 0.6194 0.30408 0.9985 0.0
C1377 C 0.66808 0.28174 0.00913 0.0
C1378 C 0.68309 0.30872 1.00062 0.0
H1379 H 0.59489 0.30164 0.99482 0.0
H1380 H 0.68195 0.2615 0.01353 0.0
H1381 H 0.57449 0.26494 0.94826 0.0
H1382 H 0.64661 0.28688 0.88763 0.0
H1383 H 0.66566 0.21685 0.10108 0.0
H1384 H 0.61992 0.34979 0.97906 0.0
H1385 H 0.70808 0.30905 1.00012 0.0
C1386 C 0.52104 0.11188 0.32311 0.0
C1387 C 0.53835 0.12423 0.34654 0.0
N1388 N 0.53669 0.15518 0.34462 0.0
N1389 N 0.50852 0.13487 0.30631 0.0
C1390 C 0.51807 0.16101 0.32039 0.0
H1391 H 0.51939 0.08766 0.31745 0.0
Co1392 Co 0.48984 0.12856 0.26786 0.0
C1393 C 0.49891 0.18922 0.23526 0.0
O1394 O 0.50612 0.17479 0.20971 0.0
N1395 N 0.47058 0.12058 0.22868 0.0
C1396 C 0.4618 0.10368 0.1807 0.0
C1397 C 0.48376 0.11419 0.20108 0.0
C1398 C 0.44038 0.11399 0.22393 0.0
N1399 N 0.43446 0.10314 0.19528 0.0
O1400 O 0.44999 0.13268 0.28724 0.0
H1401 H 0.50816 0.11548 0.19615 0.0
H1402 H 0.42292 0.11595 0.2415 0.0
O1403 O 0.4919 0.17362 0.25934 0.0
C1404 C 0.44363 0.10657 0.29942 0.0
O1405 O 0.46313 0.08375 0.29529 0.0
N1406 N 0.52911 0.12072 0.25181 0.0
C1407 C 0.58512 0.09403 0.26767 0.0
C1408 C 0.58229 0.12628 0.26551 0.0
C1409 C 0.55392 0.13932 0.25728 0.0
C1410 C 0.53285 0.08961 0.24919 0.0
C1411 C 0.5608 0.07575 0.25681 0.0
H1412 H 0.55089 0.16383 0.26042 0.0
H1413 H 0.51284 0.07504 0.24613 0.0
H1414 H 0.51335 0.18384 0.31191 0.0
H1415 H 0.55195 0.11141 0.36306 0.0
H1416 H 0.46611 0.09519 0.15765 0.0
H1417 H 0.6007 0.14124 0.27334 0.0
H1418 H 0.56175 0.05084 0.25823 0.0
C1419 C 0.35842 0.25355 0.93311 0.0
C1420 C 0.37044 0.23905 0.9076 0.0
N1421 N 0.40079 0.2346 0.91232 0.0
N1422 N 0.38112 0.25858 0.95372 0.0
C1423 C 0.4067 0.24671 0.94032 0.0
H1424 H 0.33438 0.25893 0.93686 0.0
Co1425 Co 0.37485 0.27419 0.9935 0.0
C1426 C 0.4354 0.26318 0.02485 0.0
O1427 O 0.42082 0.2538 0.04963 0.0
N1428 N 0.36728 0.29057 0.03428 0.0
C1429 C 0.35087 0.29628 0.0829 0.0
C1430 C 0.35959 0.27548 0.06054 0.0
C1431 C 0.36354 0.32069 0.04197 0.0
N1432 N 0.35312 0.32484 0.07108 0.0
O1433 O 0.37783 0.31538 0.97683 0.0
H1434 H 0.35926 0.25073 0.06335 0.0
H1435 H 0.36669 0.3395 0.02604 0.0
O1436 O 0.41988 0.27214 1.0014 0.0
C1437 C 0.35013 0.32265 0.96969 0.0
O1438 O 0.32813 0.30306 0.97686 0.0
N1439 N 0.3675 0.23377 0.0066 0.0
C1440 C 0.34056 0.17901 0.98752 0.0
C1441 C 0.37275 0.18134 0.98972 0.0
C1442 C 0.38597 0.20916 0.99967 0.0
C1443 C 0.33632 0.23019 0.00852 0.0
C1444 C 0.32236 0.20288 0.99922 0.0
H1445 H 0.41053 0.21218 0.99697 0.0
H1446 H 0.32186 0.25008 0.01269 0.0
H1447 H 0.42905 0.246 0.95112 0.0
H1448 H 0.35761 0.23128 0.88767 0.0
H1449 H 0.34269 0.29066 0.10578 0.0
H1450 H 0.38743 0.1634 0.98041 0.0
H1451 H 0.29744 0.20189 0.99758 0.0
C1452 C 1.00256 0.8986 0.82733 0.0
C1453 C 0.98769 0.88658 0.8526 0.0
N1454 N 0.98226 0.85647 0.8473 0.0
N1455 N 0.00684 0.87613 0.80627 0.0
C1456 C 0.99411 0.85071 0.81914 0.0
H1457 H 0.00887 0.92248 0.8241 0.0
Co1458 Co 0.02303 0.88282 0.76687 0.0
C1459 C 0.01254 0.8232 0.73385 0.0
O1460 O 1.00524 0.83845 0.70879 0.0
N1461 N 0.04 0.89093 0.72649 0.0
C1462 C 0.0473 0.9114 0.67967 0.0
C1463 C 0.02573 0.90135 0.70073 0.0
C1464 C 0.07036 0.89387 0.71952 0.0
N1465 N 0.07549 0.90726 0.69182 0.0
O1466 O 0.06399 0.87888 0.78402 0.0
H1467 H 1.00109 0.90325 0.6977 0.0
H1468 H 0.08871 0.8876 0.73504 0.0
O1469 O 0.0204 0.83806 0.75811 0.0
C1470 C 0.07199 0.90635 0.79126 0.0
O1471 O 0.05306 0.9289 0.78407 0.0
N1472 N 0.98292 0.89091 0.75346 0.0
C1473 C 0.92675 0.91688 0.77029 0.0
C1474 C 0.92979 0.88471 0.76734 0.0
C1475 C 0.95822 0.87205 0.75863 0.0
C1476 C 0.97915 0.92211 0.7525 0.0
C1477 C 0.95114 0.93558 0.76042 0.0
H1478 H 0.96128 0.84743 0.76064 0.0
H1479 H 0.9991 0.93683 0.74982 0.0
H1480 H 0.99278 0.82857 0.80793 0.0
H1481 H 0.98051 0.89924 0.87287 0.0
H1482 H 0.04239 0.92302 0.65815 0.0
H1483 H 0.9114 0.86947 0.77463 0.0
H1484 H 0.95005 0.96044 0.76265 0.0
C1485 C 0.86454 0.26112 0.07865 0.0
C1486 C 0.87707 0.27523 0.10409 0.0
N1487 N 0.90778 0.27695 0.10004 0.0
N1488 N 0.88724 0.25355 0.05876 0.0
C1489 C 0.91336 0.26363 0.07252 0.0
H1490 H 0.84021 0.25783 0.07438 0.0
Co1491 Co 0.8803 0.23744 0.01923 0.0
C1492 C 0.94079 0.2466 0.98631 0.0
O1493 O 0.92621 0.25408 0.96093 0.0
N1494 N 0.87175 0.2207 0.97893 0.0
C1495 C 0.85528 0.21479 0.93038 0.0
C1496 C 0.86439 0.23565 0.95251 0.0
C1497 C 0.86699 0.1906 0.97174 0.0
N1498 N 0.85675 0.18635 0.94258 0.0
O1499 O 0.88386 0.19641 0.03608 0.0
H1500 H 0.86485 0.26035 0.94934 0.0
H1501 H 0.86937 0.17196 0.988 0.0
O1502 O 0.92532 0.23935 0.01042 0.0
C1503 C 0.85729 0.18936 0.04674 0.0
O1504 O 0.83442 0.20871 0.04217 0.0
N1505 N 0.87308 0.2777 0.00584 0.0
C1506 C 0.84846 0.33472 0.0217 0.0
C1507 C 0.88057 0.33065 0.01976 0.0
C1508 C 0.89255 0.3018 0.01152 0.0
C1509 C 0.84207 0.2824 1.00395 0.0
C1510 C 0.82926 0.31088 0.0114 0.0
H1511 H 0.91698 0.29795 0.01432 0.0
H1512 H 0.82685 0.26288 1.00087 0.0
H1513 H 0.93594 0.26206 0.06239 0.0
H1514 H 0.86448 0.28467 0.12346 0.0
H1515 H 0.84757 0.22031 0.90732 0.0
H1516 H 0.89616 0.34857 0.02745 0.0
H1517 H 0.8044 0.31281 0.01289 0.0
C1518 C 0.5163 0.89798 0.18559 0.0
C1519 C 0.53303 0.88502 0.16196 0.0
N1520 N 0.53299 0.8542 0.16574 0.0
N1521 N 0.5058 0.87548 0.20431 0.0
C1522 C 0.51601 0.84903 0.19129 0.0
H1523 H 0.51377 0.92239 0.19 0.0
Co1524 Co 0.489 0.88274 0.24351 0.0
C1525 C 0.49883 0.82249 0.27619 0.0
O1526 O 0.50828 0.83717 0.30086 0.0
N1527 N 0.47163 0.89134 0.28361 0.0
C1528 C 0.46529 0.90725 0.33232 0.0
C1529 C 0.48629 0.89803 0.31037 0.0
C1530 C 0.44151 0.8965 0.29046 0.0
N1531 N 0.43702 0.90647 0.3197 0.0
O1532 O 0.44828 0.87951 0.22588 0.0
H1533 H 0.51093 0.89715 0.31389 0.0
H1534 H 0.42306 0.89453 0.27394 0.0
O1535 O 0.49035 0.83789 0.25248 0.0
C1536 C 0.44179 0.90674 0.21657 0.0
O1537 O 0.46186 0.92873 0.22227 0.0
N1538 N 0.52915 0.88992 0.25762 0.0
C1539 C 0.58537 0.91552 0.24054 0.0
C1540 C 0.58186 0.88334 0.24237 0.0
C1541 C 0.55345 0.87085 0.25136 0.0
C1542 C 0.53354 0.92097 0.25994 0.0
C1543 C 0.56164 0.93425 0.25187 0.0
H1544 H 0.54989 0.84639 0.24839 0.0
H1545 H 0.51392 0.93594 0.26356 0.0
H1546 H 0.5134 0.82661 0.20158 0.0
H1547 H 0.54519 0.89743 0.14406 0.0
H1548 H 0.47061 0.91458 0.35555 0.0
H1549 H 0.59975 0.86809 0.23392 0.0
H1550 H 0.56317 0.95916 0.25058 0.0
C1551 C 0.49175 0.61222 0.18685 0.0
C1552 C 0.47454 0.62486 0.16343 0.0
N1553 N 0.47592 0.6558 0.16588 0.0
N1554 N 0.50383 0.63502 0.20419 0.0
C1555 C 0.49421 0.6613 0.19044 0.0
H1556 H 0.49376 0.58792 0.19201 0.0
Co1557 Co 0.52278 0.62876 0.24263 0.0
C1558 C 0.51144 0.68871 0.27506 0.0
O1559 O 0.50251 0.67371 0.29973 0.0
N1560 N 0.54259 0.62125 0.28188 0.0
C1561 C 0.55228 0.60468 0.32981 0.0
C1562 C 0.52988 0.61473 0.30968 0.0
C1563 C 0.57303 0.61561 0.28645 0.0
N1564 N 0.5795 0.60478 0.31498 0.0
O1565 O 0.56245 0.63271 0.22283 0.0
H1566 H 0.50553 0.61547 0.3149 0.0
H1567 H 0.59035 0.61841 0.26887 0.0
O1568 O 0.5203 0.67364 0.25126 0.0
C1569 C 0.56833 0.60534 0.21342 0.0
O1570 O 0.54819 0.58363 0.21988 0.0
N1571 N 0.48367 0.62031 0.259 0.0
C1572 C 0.42986 0.58996 0.24253 0.0
C1573 C 0.43065 0.62233 0.24334 0.0
C1574 C 0.458 0.63729 0.25211 0.0
C1575 C 0.48149 0.58917 0.26282 0.0
C1576 C 0.45461 0.57356 0.25507 0.0
H1577 H 0.45989 0.66179 0.24802 0.0
H1578 H 0.50208 0.57572 0.26689 0.0
H1579 H 0.49867 0.684 0.19935 0.0
H1580 H 0.46133 0.61219 0.14648 0.0
H1581 H 0.54836 0.59606 0.35287 0.0
H1582 H 0.41198 0.63573 0.23359 0.0
H1583 H 0.45474 0.54856 0.25488 0.0
C1584 C 0.05925 0.20404 0.10787 0.0
C1585 C 0.08419 0.22116 0.11969 0.0
H1586 H 0.02029 0.17502 0.11836 0.0
C1587 C 0.08805 0.22317 0.15168 0.0
H1588 H 0.05601 0.2019 0.08323 0.0
C1589 C 0.06758 0.20837 0.17152 0.0
C1590 C 0.04294 0.19084 0.15986 0.0
H1591 H 0.10696 0.23628 0.16134 0.0
H1592 H 0.07145 0.21004 0.19613 0.0
C1593 C 0.03897 0.18862 0.12784 0.0
C1594 C 0.43048 0.67027 0.13466 0.0
C1595 C 0.45893 0.67816 0.14803 0.0
H1596 H 0.39363 0.6838 0.10494 0.0
C1597 C 0.47057 0.70809 0.14339 0.0
H1598 H 0.42053 0.64767 0.13827 0.0
C1599 C 0.45488 0.72907 0.1245 0.0
C1600 C 0.42704 0.72067 0.11012 0.0
H1601 H 0.49238 0.7149 0.1534 0.0
H1602 H 0.46501 0.75152 0.12037 0.0
C1603 C 0.41472 0.69126 0.11602 0.0
C1604 C 0.97401 0.32505 0.12891 0.0
C1605 C 0.97013 0.3223 0.16091 0.0
H1606 H 0.95722 0.31199 0.08412 0.0
C1607 C 0.94591 0.30402 0.17234 0.0
H1608 H 0.99234 0.33921 0.11958 0.0
C1609 C 0.92578 0.28902 0.15232 0.0
C1610 C 0.92956 0.29156 0.12036 0.0
H1611 H 0.94207 0.30191 0.19693 0.0
H1612 H 0.90718 0.27535 0.16183 0.0
C1613 C 0.95407 0.30943 0.10874 0.0
C1614 C 0.55551 0.78029 0.12639 0.0
C1615 C 0.58294 0.78898 0.1114 0.0
H1616 H 0.51802 0.79437 0.15545 0.0
C1617 C 0.59454 0.81887 0.1162 0.0
H1618 H 0.54591 0.75748 0.12301 0.0
C1619 C 0.5784 0.84004 0.13434 0.0
C1620 C 0.55039 0.83178 0.14837 0.0
H1621 H 0.61528 0.82651 0.10458 0.0
H1622 H 0.5877 0.86304 0.137 0.0
C1623 C 0.53952 0.80142 0.14488 0.0
C1624 C 0.03976 0.82467 0.3827 0.0
C1625 C 0.0422 0.82005 0.35076 0.0
H1626 H 0.05763 0.8132 0.42747 0.0
C1627 C 0.06498 0.79988 0.33949 0.0
H1628 H 0.02259 0.84028 0.39193 0.0
C1629 C 0.08507 0.78488 0.35955 0.0
C1630 C 0.08277 0.78937 0.39145 0.0
H1631 H 0.06783 0.7963 0.31494 0.0
H1632 H 0.10251 0.76971 0.35011 0.0
C1633 C 0.05968 0.80913 0.40294 0.0
C1634 C 0.06217 0.70188 0.85409 0.0
C1635 C 0.04322 0.67841 0.86616 0.0
H1636 H 0.09267 0.73982 0.86421 0.0
C1637 C 0.04014 0.67573 0.8982 0.0
H1638 H 0.06522 0.7042 0.82944 0.0
C1639 C 0.0554 0.69607 0.9178 0.0
C1640 C 0.07439 0.71951 0.90591 0.0
H1641 H 0.02562 0.65803 0.90814 0.0
H1642 H 0.05264 0.69322 0.94246 0.0
C1643 C 0.07796 0.7221 0.87387 0.0
C1644 C 0.94884 0.70553 0.40158 0.0
C1645 C 0.92842 0.72824 0.39047 0.0
H1646 H 0.98344 0.67177 0.39035 0.0
C1647 C 0.92835 0.73488 0.35885 0.0
H1648 H 0.94921 0.69965 0.42581 0.0
C1649 C 0.94785 0.71909 0.33874 0.0
C1650 C 0.96807 0.69612 0.3496 0.0
H1651 H 0.91313 0.75234 0.34958 0.0
H1652 H 0.94641 0.72439 0.31439 0.0
C1653 C 0.96831 0.68945 0.38129 0.0
C1654 C 0.96969 0.83832 0.89946 0.0
C1655 C 0.96654 0.83529 0.86746 0.0
H1656 H 0.95725 0.82137 0.94393 0.0
C1657 C 0.94753 0.81171 0.85569 0.0
H1658 H 0.98427 0.85611 0.90915 0.0
C1659 C 0.93177 0.79174 0.87573 0.0
C1660 C 0.9354 0.7947 0.90774 0.0
H1661 H 0.94443 0.80913 0.83108 0.0
H1662 H 0.91705 0.77391 0.86631 0.0
C1663 C 0.95443 0.81824 0.91932 0.0
C1664 C 0.17136 0.06722 0.20098 0.0
C1665 C 0.15935 0.04127 0.18577 0.0
H1666 H 0.1619 0.10755 0.22768 0.0
C1667 C 0.12741 0.03614 0.18608 0.0
H1668 H 0.19593 0.07179 0.20083 0.0
C1669 C 0.10785 0.05659 0.20186 0.0
C1670 C 0.12001 0.08272 0.21688 0.0
H1671 H 0.11771 0.01632 0.17439 0.0
H1672 H 0.08324 0.05241 0.20176 0.0
C1673 C 0.15193 0.08775 0.2162 0.0
C1674 C 0.30401 0.64183 0.03565 0.0
C1675 C 0.33407 0.64652 0.04686 0.0
H1676 H 0.26074 0.61853 0.04184 0.0
C1677 C 0.34248 0.63305 0.07507 0.0
H1678 H 0.29689 0.65195 0.01399 0.0
C1679 C 0.32175 0.61444 0.09119 0.0
C1680 C 0.29214 0.60859 0.07937 0.0
H1681 H 0.36526 0.6366 0.08458 0.0
H1682 H 0.32952 0.60335 0.11217 0.0
C1683 C 0.28332 0.62281 0.05161 0.0
C1684 C 0.8723 0.4829 0.20963 0.0
C1685 C 0.85906 0.47469 0.18117 0.0
H1686 H 0.90031 0.46856 0.24783 0.0
C1687 C 0.86609 0.44568 0.16851 0.0
H1688 H 0.86722 0.50504 0.22004 0.0
C1689 C 0.88457 0.4248 0.18454 0.0
C1690 C 0.89669 0.43242 0.21356 0.0
H1691 H 0.85588 0.43834 0.14695 0.0
H1692 H 0.88894 0.40242 0.17439 0.0
C1693 C 0.89116 0.46204 0.22556 0.0
C1694 C 0.70601 0.86819 0.03782 0.0
C1695 C 0.67604 0.86375 0.04941 0.0
H1696 H 0.7494 0.8914 0.04317 0.0
C1697 C 0.668 0.87761 0.07758 0.0
H1698 H 0.71289 0.8578 0.0162 0.0
C1699 C 0.68895 0.89642 0.09317 0.0
C1700 C 0.71842 0.90208 0.08089 0.0
H1701 H 0.64533 0.87426 0.08744 0.0
H1702 H 0.68144 0.90784 0.11406 0.0
C1703 C 0.72692 0.88735 0.05328 0.0
C1704 C 0.17328 0.94565 0.3035 0.0
C1705 C 0.16156 0.97169 0.31884 0.0
H1706 H 0.16315 0.90476 0.27781 0.0
C1707 C 0.12962 0.97691 0.319 0.0
H1708 H 0.19782 0.94095 0.30336 0.0
C1709 C 0.10978 0.95633 0.30384 0.0
C1710 C 0.12162 0.92991 0.2891 0.0
H1711 H 0.12012 0.99672 0.33087 0.0
H1712 H 0.08516 0.96044 0.30446 0.0
C1713 C 0.15353 0.92489 0.28903 0.0
C1714 C 0.19133 0.61714 0.91732 0.0
C1715 C 0.22058 0.61086 0.92981 0.0
H1716 H 0.14771 0.6394 0.92323 0.0
C1717 C 0.22873 0.62463 0.95802 0.0
H1718 H 0.18406 0.60653 0.89593 0.0
C1719 C 0.20768 0.64339 0.97382 0.0
C1720 C 0.1779 0.64831 0.96198 0.0
H1721 H 0.25103 0.62011 0.96831 0.0
H1722 H 0.21425 0.65306 0.99586 0.0
C1723 C 0.17022 0.63551 0.93326 0.0
C1724 C 0.88327 0.58716 0.32753 0.0
C1725 C 0.89497 0.58054 0.29807 0.0
H1726 H 0.85589 0.57198 0.36545 0.0
C1727 C 0.8902 0.55097 0.28565 0.0
H1728 H 0.88717 0.60942 0.33812 0.0
C1729 C 0.87251 0.52914 0.30162 0.0
C1730 C 0.85955 0.53638 0.33048 0.0
H1731 H 0.89908 0.54512 0.26307 0.0
H1732 H 0.86804 0.50703 0.2909 0.0
C1733 C 0.86587 0.56537 0.34355 0.0
C1734 C 0.83462 0.90145 0.97686 0.0
C1735 C 0.83221 0.86951 0.97258 0.0
H1736 H 0.81725 0.94606 0.9655 0.0
C1737 C 0.80888 0.85796 0.95317 0.0
H1738 H 0.85224 0.91094 0.99176 0.0
C1739 C 0.78878 0.87817 0.93782 0.0
C1740 C 0.79128 0.91016 0.94227 0.0
H1741 H 0.80675 0.8334 0.94924 0.0
H1742 H 0.77139 0.86889 0.9225 0.0
C1743 C 0.81435 0.92149 0.96205 0.0
C1744 C 0.2217 0.15097 0.08849 0.0
C1745 C 0.2196 0.11904 0.08399 0.0
H1746 H 0.20917 0.19584 0.07246 0.0
C1747 C 0.20279 0.10776 0.05861 0.0
H1748 H 0.23459 0.16024 0.10773 0.0
C1749 C 0.18785 0.1282 0.03846 0.0
C1750 C 0.19024 0.16016 0.04302 0.0
H1751 H 0.20058 0.08317 0.05486 0.0
H1752 H 0.17457 0.11913 0.01937 0.0
C1753 C 0.20737 0.17128 0.06816 0.0
C1754 C 0.21435 0.86162 0.41807 0.0
C1755 C 0.21721 0.89316 0.42469 0.0
H1756 H 0.19724 0.81773 0.43268 0.0
C1757 C 0.20414 0.90473 0.45211 0.0
H1758 H 0.22431 0.85205 0.39729 0.0
C1759 C 0.1883 0.88503 0.47234 0.0
C1760 C 0.18583 0.85349 0.46561 0.0
H1761 H 0.20569 0.92903 0.45758 0.0
H1762 H 0.17828 0.89428 0.49326 0.0
C1763 C 0.19898 0.84202 0.43835 0.0
C1764 C 0.1405 0.5408 0.8005 0.0
C1765 C 0.14591 0.55339 0.82985 0.0
H1766 H 0.11671 0.54537 0.75739 0.0
C1767 C 0.13373 0.58262 0.8368 0.0
H1768 H 0.14968 0.51839 0.79442 0.0
C1769 C 0.11517 0.59815 0.81561 0.0
C1770 C 0.10822 0.58481 0.78693 0.0
H1771 H 0.13802 0.59331 0.85891 0.0
H1772 H 0.10479 0.6198 0.82251 0.0
C1773 C 0.12169 0.55627 0.7793 0.0
C1774 C 0.83193 0.62578 0.41803 0.0
C1775 C 0.80329 0.61282 0.42599 0.0
H1776 H 0.86865 0.65607 0.43098 0.0
C1777 C 0.79123 0.61856 0.45552 0.0
H1778 H 0.84213 0.62137 0.3957 0.0
C1779 C 0.80658 0.63834 0.4759 0.0
C1780 C 0.83453 0.65243 0.46733 0.0
H1781 H 0.76926 0.60887 0.46235 0.0
H1782 H 0.79603 0.64354 0.49793 0.0
C1783 C 0.84743 0.64524 0.4385 0.0
C1784 C 0.40012 0.46903 0.33744 0.0
C1785 C 0.36808 0.46763 0.33353 0.0
H1786 H 0.44442 0.4557 0.32048 0.0
C1787 C 0.35601 0.45086 0.30846 0.0
H1788 H 0.41002 0.48186 0.35642 0.0
C1789 C 0.37578 0.43549 0.28792 0.0
C1790 C 0.40785 0.43735 0.29179 0.0
H1791 H 0.33133 0.44914 0.30515 0.0
H1792 H 0.36611 0.42241 0.26899 0.0
C1793 C 0.41976 0.45425 0.31674 0.0
C1794 C 0.3246 0.88457 0.53805 0.0
C1795 C 0.32155 0.85252 0.54149 0.0
H1796 H 0.31173 0.9293 0.55521 0.0
C1797 C 0.30299 0.84096 0.56542 0.0
H1798 H 0.33897 0.894 0.51994 0.0
C1799 C 0.28792 0.86089 0.58563 0.0
C1800 C 0.29072 0.89291 0.58225 0.0
H1801 H 0.30064 0.81633 0.56895 0.0
H1802 H 0.27395 0.85126 0.60393 0.0
C1803 C 0.30895 0.90465 0.55807 0.0
C1804 C 0.11003 0.47371 0.67716 0.0
C1805 C 0.14212 0.47218 0.68057 0.0
H1806 H 0.06598 0.45987 0.69428 0.0
C1807 C 0.15454 0.45509 0.70523 0.0
H1808 H 0.09989 0.48678 0.65849 0.0
C1809 C 0.13506 0.43929 0.72571 0.0
C1810 C 0.10294 0.44106 0.72218 0.0
H1811 H 0.17927 0.4533 0.70812 0.0
H1812 H 0.14498 0.42581 0.74422 0.0
C1813 C 0.09069 0.45849 0.69778 0.0
C1814 C 0.89106 0.05239 0.73684 0.0
C1815 C 0.90397 0.08106 0.72871 0.0
H1816 H 0.8639 0.01361 0.72221 0.0
C1817 C 0.89698 0.09359 0.69966 0.0
H1818 H 0.89608 0.04208 0.75901 0.0
C1819 C 0.87904 0.07719 0.67864 0.0
C1820 C 0.86742 0.0479 0.68612 0.0
H1821 H 0.9069 0.11532 0.69236 0.0
H1822 H 0.87479 0.08721 0.6562 0.0
C1823 C 0.87272 0.03607 0.71581 0.0
C1824 C 0.54257 0.68605 0.62826 0.0
C1825 C 0.54482 0.69126 0.66013 0.0
H1826 H 0.56061 0.69671 0.58336 0.0
C1827 C 0.56755 0.71162 0.6711 0.0
H1828 H 0.52545 0.67028 0.61923 0.0
C1829 C 0.58768 0.72634 0.65084 0.0
C1830 C 0.58552 0.7213 0.61901 0.0
H1831 H 0.57033 0.71563 0.69559 0.0
H1832 H 0.60498 0.74176 0.66009 0.0
C1833 C 0.56256 0.70124 0.60781 0.0
C1834 C 0.91583 0.19319 0.61839 0.0
C1835 C 0.92905 0.22187 0.61109 0.0
H1836 H 0.92063 0.15034 0.64219 0.0
C1837 C 0.95729 0.23 0.62483 0.0
H1838 H 0.89439 0.18592 0.60784 0.0
C1839 C 0.97261 0.20929 0.64427 0.0
C1840 C 0.96015 0.17993 0.65009 0.0
H1841 H 0.96807 0.25193 0.61962 0.0
H1842 H 0.99482 0.21573 0.65364 0.0
C1843 C 0.9312 0.17248 0.63761 0.0
C1844 C 0.42499 0.79091 0.65201 0.0
C1845 C 0.42975 0.79259 0.62013 0.0
H1846 H 0.44078 0.80383 0.69677 0.0
C1847 C 0.45553 0.80878 0.60882 0.0
H1848 H 0.40538 0.77851 0.66125 0.0
C1849 C 0.47572 0.82377 0.6292 0.0
C1850 C 0.47079 0.82196 0.66112 0.0
H1851 H 0.45945 0.81062 0.58425 0.0
H1852 H 0.49502 0.83676 0.62013 0.0
C1853 C 0.44536 0.80521 0.67226 0.0
C1854 C 0.04427 0.34043 0.61233 0.0
C1855 C 0.04524 0.33565 0.64426 0.0
H1856 H 0.05763 0.32423 0.56776 0.0
C1857 C 0.06103 0.30972 0.65582 0.0
H1858 H 0.03216 0.36007 0.60282 0.0
C1859 C 0.076 0.28924 0.63569 0.0
C1860 C 0.07467 0.29408 0.60375 0.0
H1861 H 0.06237 0.30571 0.6804 0.0
H1862 H 0.08839 0.26965 0.64496 0.0
C1863 C 0.05865 0.31981 0.59232 0.0
C1864 C 0.55653 0.31169 0.90173 0.0
C1865 C 0.58142 0.29418 0.89036 0.0
H1866 H 0.5177 0.34059 0.89049 0.0
C1867 C 0.58541 0.29145 0.85844 0.0
H1868 H 0.5532 0.31437 0.92631 0.0
C1869 C 0.56506 0.30584 0.83823 0.0
C1870 C 0.5404 0.3237 0.84941 0.0
H1871 H 0.60428 0.27801 0.84912 0.0
H1872 H 0.56901 0.30352 0.81369 0.0
C1873 C 0.53637 0.32672 0.88137 0.0
C1874 C 0.59863 0.18952 0.39408 0.0
C1875 C 0.58558 0.21804 0.40222 0.0
H1876 H 0.59323 0.14717 0.36953 0.0
C1877 C 0.55724 0.22665 0.38899 0.0
H1878 H 0.62015 0.18194 0.40423 0.0
C1879 C 0.54163 0.20648 0.36919 0.0
C1880 C 0.55386 0.17718 0.36263 0.0
H1881 H 0.54658 0.24845 0.39493 0.0
H1882 H 0.51935 0.21321 0.36018 0.0
C1883 C 0.5829 0.1693 0.37462 0.0
C1884 C 0.44606 0.2006 0.90372 0.0
C1885 C 0.42202 0.21906 0.89203 0.0
H1886 H 0.48419 0.17056 0.893 0.0
C1887 C 0.41852 0.22175 0.86004 0.0
H1888 H 0.44902 0.19784 0.92833 0.0
C1889 C 0.43862 0.20656 0.8401 0.0
C1890 C 0.46259 0.18803 0.85161 0.0
H1891 H 0.40034 0.23588 0.85042 0.0
H1892 H 0.43514 0.20899 0.8155 0.0
C1893 C 0.46602 0.18489 0.88362 0.0
C1894 C 0.41552 0.31934 0.39358 0.0
C1895 C 0.42721 0.28951 0.39857 0.0
H1896 H 0.42236 0.36342 0.37256 0.0
C1897 C 0.45474 0.28083 0.38375 0.0
H1898 H 0.39471 0.32698 0.4051 0.0
C1899 C 0.4708 0.30193 0.36532 0.0
C1900 C 0.45989 0.33225 0.36167 0.0
H1901 H 0.4644 0.25807 0.3873 0.0
H1902 H 0.49241 0.29491 0.35496 0.0
C1903 C 0.43171 0.34047 0.37543 0.0
C1904 C 0.65292 0.58271 0.72049 0.0
C1905 C 0.62084 0.57931 0.7193 0.0
H1906 H 0.6968 0.56519 0.70673 0.0
C1907 C 0.60819 0.55424 0.70298 0.0
H1908 H 0.66319 0.60173 0.73298 0.0
C1909 C 0.6275 0.53337 0.68745 0.0
C1910 C 0.65965 0.53692 0.68882 0.0
H1911 H 0.58344 0.55137 0.7015 0.0
H1912 H 0.61743 0.51459 0.67443 0.0
C1913 C 0.67209 0.56168 0.70563 0.0
C1914 C 0.81197 0.15181 0.55985 0.0
C1915 C 0.83508 0.14075 0.5399 0.0
H1916 H 0.77517 0.14009 0.59108 0.0
C1917 C 0.83755 0.10891 0.53494 0.0
H1918 H 0.80978 0.17629 0.56426 0.0
C1919 C 0.81772 0.08846 0.5498 0.0
C1920 C 0.795 0.09926 0.57029 0.0
H1921 H 0.855 0.0998 0.51958 0.0
H1922 H 0.82085 0.06397 0.54595 0.0
C1923 C 0.7923 0.13118 0.57524 0.0
C1924 C 0.38254 0.9771 0.68932 0.0
C1925 C 0.35128 0.96977 0.68544 0.0
H1926 H 0.4262 0.96264 0.7078 0.0
C1927 C 0.33988 0.94196 0.69745 0.0
H1928 H 0.39172 0.99847 0.68022 0.0
C1929 C 0.35931 0.92164 0.71294 0.0
C1930 C 0.3906 0.92873 0.71705 0.0
H1931 H 0.3158 0.93588 0.69466 0.0
H1932 H 0.3498 0.90038 0.72191 0.0
C1933 C 0.40207 0.95678 0.70527 0.0
C1934 C 0.222 0.37948 0.57378 0.0
C1935 C 0.21785 0.41146 0.57081 0.0
H1936 H 0.2054 0.33442 0.56134 0.0
C1937 C 0.19335 0.42255 0.55275 0.0
H1938 H 0.24058 0.37041 0.58777 0.0
C1939 C 0.17319 0.40222 0.53818 0.0
C1940 C 0.17722 0.37027 0.54097 0.0
H1941 H 0.1893 0.44711 0.55048 0.0
H1942 H 0.15436 0.41147 0.52467 0.0
C1943 C 0.20203 0.359 0.5586 0.0
C1944 C 0.64483 0.4442 0.84401 0.0
C1945 C 0.65173 0.4732 0.83129 0.0
H1946 H 0.62228 0.4008 0.83821 0.0
C1947 C 0.63872 0.48113 0.80265 0.0
H1948 H 0.65487 0.43705 0.86572 0.0
C1949 C 0.62034 0.45999 0.78656 0.0
C1950 C 0.61485 0.4304 0.79862 0.0
H1951 H 0.64366 0.50327 0.79221 0.0
H1952 H 0.61147 0.46637 0.76414 0.0
C1953 C 0.62666 0.42309 0.82789 0.0
C1954 C 0.68849 0.10692 0.48096 0.0
C1955 C 0.68695 0.13848 0.47412 0.0
H1956 H 0.70829 0.06321 0.47017 0.0
C1957 C 0.7065 0.15052 0.45118 0.0
H1958 H 0.67385 0.0971 0.49863 0.0
C1959 C 0.72635 0.13101 0.4346 0.0
C1960 C 0.72748 0.09928 0.44122 0.0
H1961 H 0.70557 0.17477 0.44532 0.0
H1962 H 0.74047 0.14059 0.41637 0.0
C1963 C 0.70856 0.08762 0.46487 0.0
C1964 C 0.33972 0.06141 0.80165 0.0
C1965 C 0.35249 0.03859 0.82081 0.0
H1966 H 0.348 0.09976 0.77176 0.0
C1967 C 0.38464 0.03714 0.82422 0.0
H1968 H 0.31496 0.06344 0.79901 0.0
C1969 C 0.40364 0.05795 0.80827 0.0
C1970 C 0.39067 0.08093 0.78933 0.0
H1971 H 0.39499 0.01994 0.83907 0.0
H1972 H 0.42837 0.05658 0.81131 0.0
C1973 C 0.35855 0.0824 0.78625 0.0
C1974 C 0.30975 0.3558 0.44669 0.0
C1975 C 0.33504 0.36762 0.46331 0.0
H1976 H 0.27006 0.36632 0.41871 0.0
C1977 C 0.33932 0.39963 0.46467 0.0
H1978 H 0.30617 0.33115 0.44497 0.0
C1979 C 0.31872 0.41947 0.45008 0.0
C1980 C 0.29346 0.4078 0.43349 0.0
H1981 H 0.35845 0.40937 0.47739 0.0
H1982 H 0.32268 0.4441 0.45155 0.0
C1983 C 0.28926 0.37578 0.43157 0.0
C1984 C 0.6794 0.62431 0.58933 0.0
C1985 C 0.70775 0.61085 0.58117 0.0
H1986 H 0.64275 0.65462 0.57631 0.0
C1987 C 0.71918 0.61549 0.5512 0.0
H1988 H 0.66963 0.62067 0.61199 0.0
C1989 C 0.70354 0.63473 0.53052 0.0
C1990 C 0.67596 0.64943 0.53927 0.0
H1991 H 0.74091 0.60539 0.5442 0.0
H1992 H 0.71364 0.63908 0.5081 0.0
C1993 C 0.66365 0.64329 0.56862 0.0
C1994 C 0.68051 0.38692 0.97134 0.0
C1995 C 0.68207 0.35486 0.96723 0.0
H1996 H 0.69509 0.43132 0.95476 0.0
C1997 C 0.69925 0.34292 0.94249 0.0
H1998 H 0.66725 0.3966 0.99016 0.0
C1999 C 0.71479 0.36248 0.92234 0.0
C2000 C 0.71378 0.39452 0.92651 0.0
H2001 H 0.70049 0.31826 0.93861 0.0
H2002 H 0.72796 0.35249 0.90364 0.0
C2003 C 0.69655 0.40664 0.95127 0.0
C2004 C 0.63427 0.07689 0.33749 0.0
C2005 C 0.64596 0.04744 0.33066 0.0
H2006 H 0.60655 0.11479 0.3228 0.0
C2007 C 0.64021 0.03481 0.30136 0.0
H2008 H 0.63881 0.08764 0.35953 0.0
C2009 C 0.62197 0.05068 0.27995 0.0
C2010 C 0.60933 0.07966 0.28729 0.0
H2011 H 0.64895 0.01222 0.29532 0.0
H2012 H 0.61704 0.03988 0.25799 0.0
C2013 C 0.61627 0.09279 0.3161 0.0
C2014 C 0.31007 0.10477 0.95236 0.0
C2015 C 0.29712 0.11591 0.92473 0.0
H2016 H 0.3347 0.11607 0.994 0.0
C2017 C 0.29901 0.14752 0.91817 0.0
H2018 H 0.30925 0.08043 0.95781 0.0
C2019 C 0.31323 0.16764 0.93877 0.0
C2020 C 0.32618 0.15661 0.96629 0.0
H2021 H 0.2891 0.15678 0.89724 0.0
H2022 H 0.3142 0.19198 0.93318 0.0
C2023 C 0.32478 0.12499 0.97291 0.0
C2024 C 0.88906 0.95951 0.78225 0.0
C2025 C 0.90208 0.93071 0.78967 0.0
H2026 H 0.86182 0.9978 0.79769 0.0
C2027 C 0.89529 0.91751 0.81847 0.0
H2028 H 0.89395 0.97031 0.76028 0.0
C2029 C 0.8772 0.93332 0.83988 0.0
C2030 C 0.86535 0.96271 0.83307 0.0
H2031 H 0.90536 0.89567 0.82521 0.0
H2032 H 0.87288 0.92265 0.862 0.0
C2033 C 0.87074 0.97527 0.80368 0.0
C2034 C 0.84715 0.36638 0.06974 0.0
C2035 C 0.83491 0.36004 0.04043 0.0
H2036 H 0.841 0.38904 0.11304 0.0
C2037 C 0.8071 0.37429 0.03172 0.0
H2038 H 0.86821 0.35537 0.07743 0.0
C2039 C 0.79126 0.39341 0.05239 0.0
C2040 C 0.80272 0.39831 0.0823 0.0
H2041 H 0.79706 0.36977 0.00932 0.0
H2042 H 0.76941 0.40325 0.04545 0.0
C2043 C 0.83122 0.38522 0.09042 0.0
C2044 C 0.61451 0.91785 0.191 0.0
C2045 C 0.6096 0.92958 0.22081 0.0
H2046 H 0.63497 0.92479 0.14672 0.0
C2047 C 0.6241 0.95736 0.22924 0.0
H2048 H 0.60324 0.89685 0.18355 0.0
C2049 C 0.64223 0.97352 0.20795 0.0
C2050 C 0.64578 0.9625 0.17767 0.0
H2051 H 0.62058 0.96706 0.25198 0.0
H2052 H 0.65243 0.99526 0.21478 0.0
C2053 C 0.63224 0.93418 0.16966 0.0
C2054 C 0.35651 0.56074 0.2042 0.0
C2055 C 0.36891 0.54307 0.17993 0.0
H2056 H 0.36617 0.59014 0.24308 0.0
C2057 C 0.40099 0.54071 0.17699 0.0
H2058 H 0.33179 0.56316 0.2067 0.0
C2059 C 0.42036 0.55557 0.19781 0.0
C2060 C 0.40817 0.57352 0.2219 0.0
H2061 H 0.41109 0.52718 0.15861 0.0
H2062 H 0.44506 0.55345 0.1947 0.0
C2063 C 0.37605 0.57623 0.22485 0.0
C2064 C 0.96231 0.02232 0.25035 0.0
C2065 C 0.98941 0.03856 0.25782 0.0
H2066 H 0.94102 0.97842 0.24233 0.0
C2067 C 0.01665 0.02158 0.26265 0.0
H2068 H 0.94083 0.03449 0.2466 0.0
C2069 C 0.01686 0.98933 0.25941 0.0
C2070 C 0.98971 0.97321 0.25199 0.0
H2071 H 0.03788 0.03313 0.26876 0.0
H2072 H 0.0381 0.97706 0.2636 0.0
C2073 C 0.9624 0.99012 0.24784 0.0
C2074 C 0.27059 0.80288 0.99765 0.0
C2075 C 0.28743 0.77522 0.99928 0.0
H2076 H 0.2264 0.82478 0.99925 0.0
C2077 C 0.2712 0.74765 1.00477 0.0
H2078 H 0.28225 0.82459 0.99356 0.0
C2079 C 0.23905 0.74786 0.00896 0.0
C2080 C 0.2222 0.77551 0.00681 0.0
H2081 H 0.28326 0.72597 0.00651 0.0
H2082 H 0.2275 0.72628 0.01358 0.0
C2083 C 0.23847 0.80299 1.00101 0.0
C2084 C 0.04842 0.52367 0.24772 0.0
C2085 C 0.02117 0.54033 0.25315 0.0
H2086 H 0.07031 0.47949 0.24554 0.0
C2087 C 0.9946 0.52401 0.26211 0.0
H2088 H 0.06936 0.53556 0.24107 0.0
C2089 C 0.99528 0.49178 0.26545 0.0
C2090 C 0.02238 0.47502 0.25923 0.0
H2091 H 0.97352 0.5361 0.26743 0.0
H2092 H 0.9745 0.48009 0.27276 0.0
C2093 C 0.04893 0.49148 0.25036 0.0
C2094 C 0.77073 0.76349 0.00991 0.0
C2095 C 0.78773 0.73594 0.00753 0.0
H2096 H 0.72641 0.78513 0.00769 0.0
C2097 C 0.77166 0.70845 1.00134 0.0
H2098 H 0.78218 0.78509 0.01478 0.0
C2099 C 0.73955 0.7084 0.99793 0.0
C2100 C 0.72254 0.73594 0.99992 0.0
H2101 H 0.78388 0.68675 0.99935 0.0
H2102 H 0.72803 0.68667 0.99358 0.0
C2103 C 0.73859 0.76354 0.0057 0.0
C2104 C 0.25514 0.01356 0.98881 0.0
C2105 C 0.25382 0.98555 0.97248 0.0
H2106 H 0.26042 0.03581 0.03259 0.0
C2107 C 0.256 0.95786 0.98924 0.0
H2108 H 0.25355 0.03532 0.97685 0.0
C2109 C 0.25912 0.95813 0.02135 0.0
C2110 C 0.2609 0.9861 0.03769 0.0
H2111 H 0.25507 0.93582 0.97753 0.0
H2112 H 0.2604 0.93629 0.03339 0.0
C2113 C 0.25914 0.01384 0.02094 0.0
C2114 C 0.20841 0.50973 0.27123 0.0
C2115 C 0.23624 0.51066 0.28785 0.0
H2116 H 0.18647 0.50587 0.22721 0.0
C2117 C 0.26405 0.5075 0.27145 0.0
H2118 H 0.18651 0.51205 0.283 0.0
C2119 C 0.26399 0.50287 0.23942 0.0
C2120 C 0.23617 0.50249 0.22274 0.0
H2121 H 0.28591 0.50807 0.28326 0.0
H2122 H 0.28581 0.49992 0.22784 0.0
C2123 C 0.2084 0.50608 0.23914 0.0
C2124 C 0.7575 0.55343 0.9902 0.0
C2125 C 0.75985 0.52571 0.97351 0.0
H2126 H 0.75198 0.57511 0.03417 0.0
C2127 C 0.75767 0.49774 0.9898 0.0
H2128 H 0.75906 0.57546 0.97855 0.0
C2129 C 0.75267 0.49754 0.0218 0.0
C2130 C 0.75077 0.52529 0.03851 0.0
H2131 H 0.75944 0.47593 0.9779 0.0
H2132 H 0.75066 0.47559 0.03334 0.0
C2133 C 0.75334 0.55322 0.02221 0.0
C2134 C 0.79951 0.0093 0.23657 0.0
C2135 C 0.77207 0.01383 0.21987 0.0
H2136 H 0.82059 1.00292 0.28077 0.0
C2137 C 0.74409 0.01531 0.23627 0.0
H2138 H 0.82154 0.00818 0.22484 0.0
C2139 C 0.74351 0.01135 0.26837 0.0
C2140 C 0.77098 0.0068 0.28492 0.0
H2141 H 0.72257 0.01928 0.22442 0.0
H2142 H 0.72162 0.01259 0.28019 0.0
C2143 C 0.79899 0.00622 0.26867 0.0
C2144 C 0.25354 0.99664 0.48794 0.0
C2145 C 0.25868 0.02417 0.47156 0.0
H2146 H 0.24509 0.97546 0.53179 0.0
C2147 C 0.25993 0.05197 0.48817 0.0
H2148 H 0.25197 0.97488 0.476 0.0
C2149 C 0.25666 0.05226 0.52027 0.0
C2150 C 0.25129 0.02482 0.53672 0.0
H2151 H 0.26372 0.07364 0.47634 0.0
H2152 H 0.25815 0.07416 0.53219 0.0
C2153 C 0.24944 0.99701 0.52007 0.0
C2154 C 0.29954 0.49403 0.77052 0.0
C2155 C 0.27276 0.50044 0.78761 0.0
H2156 H 0.32096 0.4919 0.72613 0.0
C2157 C 0.24646 0.51085 0.77173 0.0
H2158 H 0.32029 0.48616 0.78197 0.0
C2159 C 0.24699 0.5148 0.7396 0.0
C2160 C 0.27368 0.50786 0.72246 0.0
H2161 H 0.22572 0.51679 0.78409 0.0
H2162 H 0.22645 0.52324 0.72827 0.0
C2163 C 0.29992 0.49739 0.73842 0.0
C2164 C 0.74806 0.45822 0.48879 0.0
C2165 C 0.74959 0.48591 0.472 0.0
H2166 H 0.75002 0.43626 0.53289 0.0
C2167 C 0.75523 0.51345 0.48822 0.0
H2168 H 0.74381 0.43653 0.47716 0.0
C2169 C 0.75971 0.5132 0.52027 0.0
C2170 C 0.75767 0.48552 0.53707 0.0
H2171 H 0.75677 0.53517 0.47622 0.0
H2172 H 0.76448 0.53476 0.5318 0.0
C2173 C 0.75171 0.45807 0.52084 0.0
C2174 C 0.7668 0.999 0.77438 0.0
C2175 C 0.74021 0.0096 0.78965 0.0
H2176 H 0.78787 0.98696 0.73128 0.0
C2177 C 0.71396 0.01647 0.77202 0.0
H2178 H 0.78706 0.99252 0.78727 0.0
C2179 C 0.71447 0.01364 0.73988 0.0
C2180 C 0.74106 1.00315 0.72446 0.0
H2181 H 0.69301 0.02439 0.7831 0.0
H2182 H 0.69386 0.01959 0.72711 0.0
C2183 C 0.76713 0.99551 0.74219 0.0
C2184 C 0.99126 0.25429 0.01468 0.0
C2185 C 0.97509 0.24928 0.98703 0.0
H2186 H 0.03471 0.26343 0.03623 0.0
C2187 C 0.99197 0.24856 0.95935 0.0
H2188 H 0.97925 0.25512 0.03641 0.0
C2189 C 0.02404 0.25245 0.95932 0.0
C2190 C 0.04018 0.25791 0.9869 0.0
H2191 H 0.98039 0.2448 0.93756 0.0
H2192 H 0.03616 0.25142 0.93752 0.0
C2193 C 0.02329 0.25908 0.01456 0.0
C2194 C 0.9894 0.75867 0.49828 0.0
C2195 C 0.97335 0.76267 0.5262 0.0
H2196 H 0.03287 0.75049 0.4762 0.0
C2197 C 0.99029 0.7623 0.55381 0.0
H2198 H 0.97724 0.75879 0.47656 0.0
C2199 C 0.02237 0.75844 0.55354 0.0
C2200 C 0.03844 0.75408 0.52569 0.0
H2201 H 0.97879 0.76529 0.57577 0.0
H2202 H 0.03458 0.7587 0.5753 0.0
C2203 C 0.02146 0.75389 0.49807 0.0
C2204 C 0.00643 0.77245 0.7621 0.0
C2205 C 0.00867 0.789 0.7343 0.0
H2206 H 0.99882 0.72873 0.78384 0.0
C2207 C 1.00567 0.77267 0.70645 0.0
H2208 H 0.00867 0.78409 0.784 0.0
C2209 C 1.00084 0.74073 0.70635 0.0
C2210 C 0.99824 0.72418 0.73411 0.0
H2211 H 0.00724 0.78454 0.68455 0.0
H2212 H 0.999 0.72903 0.68438 0.0
C2213 C 1.0008 0.74053 0.76201 0.0
C2214 C 0.50703 0.23975 0.26352 0.0
C2215 C 0.50115 0.22355 0.23604 0.0
H2216 H 0.51596 0.28347 0.28483 0.0
C2217 C 0.49897 0.24044 0.20847 0.0
H2218 H 0.50917 0.22767 0.28513 0.0
C2219 C 0.50217 0.27257 0.20838 0.0
C2220 C 0.5083 0.28882 0.23577 0.0
H2221 H 0.49455 0.22881 0.18683 0.0
H2222 H 0.49997 0.28468 0.18667 0.0
C2223 C 0.51102 0.27192 0.26333 0.0
C2224 C 0.48968 0.75889 0.45886 0.0
C2225 C 0.4737 0.75515 0.48684 0.0
H2226 H 0.5332 0.76495 0.4363 0.0
C2227 C 0.49081 0.75549 0.51439 0.0
H2228 H 0.47738 0.75877 0.43715 0.0
C2229 C 0.52291 0.76 0.51395 0.0
C2230 C 0.53889 0.76325 0.4859 0.0
H2231 H 0.47948 0.75271 0.53636 0.0
H2232 H 0.53514 0.76051 0.53562 0.0
C2233 C 0.52179 0.76253 0.45838 0.0
C2234 C 0.00972 0.27392 0.80376 0.0
C2235 C 1.00484 0.2901 0.77609 0.0
H2236 H 0.0168 0.23025 0.82565 0.0
C2237 C 1.00407 0.27323 0.7484 0.0
H2238 H 0.01045 0.28602 0.82558 0.0
C2239 C 0.00861 0.24115 0.74837 0.0
C2240 C 0.01307 0.22495 0.77612 0.0
H2241 H 1.00026 0.28474 0.72666 0.0
H2242 H 0.00809 0.22913 0.72663 0.0
C2243 C 0.01345 0.24183 0.8038 0.0
C2244 C 0.46281 0.49159 0.74322 0.0
C2245 C 0.48968 0.4743 0.74859 0.0
H2246 H 0.44163 0.53615 0.74215 0.0
C2247 C 0.51635 0.48992 0.75839 0.0
H2248 H 0.44177 0.48027 0.73592 0.0
C2249 C 0.51612 0.52203 0.76273 0.0
C2250 C 0.48937 0.53941 0.75673 0.0
H2251 H 0.53716 0.47737 0.76364 0.0
H2252 H 0.53694 0.53313 0.77077 0.0
C2253 C 0.46274 0.52368 0.7469 0.0
C2254 C 0.74106 0.30204 0.5077 0.0
C2255 C 0.72521 0.27395 0.51125 0.0
H2256 H 0.78436 0.3247 0.50068 0.0
C2257 C 0.74224 0.24638 0.50962 0.0
H2258 H 0.7288 0.32377 0.50881 0.0
C2259 C 0.77409 0.24689 0.50385 0.0
C2260 C 0.79 0.27501 0.50081 0.0
H2261 H 0.73104 0.22433 0.51244 0.0
H2262 H 0.78615 0.2252 0.50218 0.0
C2263 C 0.773 0.30257 0.50291 0.0
C2264 C 0.49467 0.98999 0.75191 0.0
C2265 C 0.5216 0.97402 0.76037 0.0
H2266 H 0.47398 0.03356 0.74096 0.0
C2267 C 0.54885 0.99099 0.76475 0.0
H2268 H 0.47349 0.97766 0.74762 0.0
C2269 C 0.54908 0.02312 0.76143 0.0
C2270 C 0.5222 0.03919 0.75292 0.0
H2271 H 0.57006 0.97942 0.77108 0.0
H2272 H 0.57048 0.03535 0.76541 0.0
C2273 C 0.49504 0.02214 0.74786 0.0
C2274 C 0.27161 0.26431 0.50694 0.0
C2275 C 0.28782 0.23641 0.51049 0.0
H2276 H 0.22791 0.28629 0.49979 0.0
C2277 C 0.2709 0.20873 0.51047 0.0
H2278 H 0.28369 0.28608 0.50686 0.0
C2279 C 0.23877 0.20891 0.50725 0.0
C2280 C 0.22254 0.23673 0.50325 0.0
H2281 H 0.28249 0.18677 0.51313 0.0
H2282 H 0.22663 0.18709 0.50767 0.0
C2283 C 0.23945 0.26443 0.50286 0.0
C2284 C 0.5181 0.25514 0.99533 0.0
C2285 C 0.53489 0.25281 0.02298 0.0
H2286 H 0.47396 0.26166 0.97406 0.0
C2287 C 0.51863 0.25445 0.05098 0.0
H2288 H 0.5297 0.25403 0.97334 0.0
C2289 C 0.48653 0.258 0.05138 0.0
C2290 C 0.46972 0.26073 0.02381 0.0
H2291 H 0.5307 0.25276 0.07276 0.0
H2292 H 0.47489 0.2588 0.07346 0.0
C2293 C 0.48598 0.25957 0.99575 0.0
C2294 C 0.50546 0.7396 0.2471 0.0
C2295 C 0.50893 0.723 0.27472 0.0
H2296 H 0.4979 0.78346 0.22578 0.0
C2297 C 0.50837 0.73943 0.30266 0.0
H2298 H 0.50561 0.72791 0.22517 0.0
C2299 C 0.50487 0.77154 0.30298 0.0
C2300 C 0.50108 0.78816 0.2754 0.0
H2301 H 0.51091 0.72748 0.32443 0.0
H2302 H 0.50498 0.78333 0.32498 0.0
C2303 C 0.50103 0.77169 0.24746 0.0
C2304 C 0.05991 0.14419 0.37919 0.0
C2305 C 0.06884 0.15782 0.35124 0.0
H2306 H 0.06435 0.14462 0.42843 0.0
C2307 C 0.09217 0.18032 0.35156 0.0
H2308 H 0.04178 0.12701 0.37962 0.0
C2309 C 0.10519 0.19025 0.37921 0.0
C2310 C 0.09504 0.17825 0.4075 0.0
H2311 H 0.09979 0.19102 0.33032 0.0
H2312 H 0.12274 0.20797 0.3784 0.0
C2313 C 0.07285 0.15439 0.40712 0.0
C2314 C 0.39632 0.693 0.88988 0.0
C2315 C 0.41762 0.70558 0.91079 0.0
H2316 H 0.38981 0.66824 0.84744 0.0
C2317 C 0.44925 0.70348 0.90388 0.0
H2318 H 0.37182 0.69418 0.89456 0.0
C2319 C 0.45948 0.6889 0.87718 0.0
C2320 C 0.43848 0.67568 0.85639 0.0
H2321 H 0.46643 0.71318 0.91917 0.0
H2322 H 0.48402 0.68847 0.87279 0.0
C2323 C 0.40667 0.67815 0.86291 0.0
C2324 C 0.95327 0.36839 0.3808 0.0
C2325 C 0.94284 0.35607 0.35278 0.0
H2326 H 0.95056 0.36647 0.43011 0.0
C2327 C 0.91857 0.3346 0.35323 0.0
H2328 H 0.97217 0.38472 0.38114 0.0
C2329 C 0.90608 0.3243 0.38101 0.0
C2330 C 0.91774 0.33487 0.40928 0.0
H2331 H 0.90982 0.3249 0.33194 0.0
H2332 H 0.88778 0.30735 0.38027 0.0
C2333 C 0.94089 0.35781 0.40885 0.0
C2334 C 0.60375 0.83492 0.86588 0.0
C2335 C 0.572 0.83829 0.85946 0.0
H2336 H 0.63823 0.81758 0.89716 0.0
C2337 C 0.55069 0.82572 0.88037 0.0
H2338 H 0.62088 0.84436 0.85041 0.0
C2339 C 0.56061 0.81067 0.90693 0.0
C2340 C 0.59219 0.80743 0.91356 0.0
H2341 H 0.52616 0.82692 0.87616 0.0
H2342 H 0.54321 0.80141 0.92228 0.0
C2343 C 0.61375 0.81958 0.89266 0.0
C2344 C 0.09349 0.83301 0.15832 0.0
C2345 C 0.0697 0.85502 0.15888 0.0
H2346 H 0.12427 0.80591 0.13111 0.0
C2347 C 0.06025 0.8685 0.13105 0.0
H2348 H 0.10153 0.82246 0.17947 0.0
C2349 C 0.0731 0.85855 0.10298 0.0
C2350 C 0.09571 0.8351 0.10238 0.0
H2351 H 0.04179 0.88531 0.13081 0.0
H2352 H 0.06421 0.86811 0.08175 0.0
C2353 C 0.1064 0.82332 0.13053 0.0
C2354 C 0.05118 0.68821 0.1318 0.0
C2355 C 0.07195 0.67529 0.15298 0.0
H2356 H 0.04466 0.71203 0.0895 0.0
C2357 C 0.10384 0.67767 0.14669 0.0
H2358 H 0.02659 0.68779 0.1359 0.0
C2359 C 0.11448 0.69227 0.1197 0.0
C2360 C 0.0934 0.70464 0.09846 0.0
H2361 H 0.12059 0.66795 0.16238 0.0
H2362 H 0.13902 0.69346 0.11527 0.0
C2363 C 0.0617 0.7025 0.10505 0.0
C2364 C 0.89991 0.68428 0.13 0.0
C2365 C 0.9125 0.67433 0.1019 0.0
H2366 H 0.90313 0.68398 0.1791 0.0
C2367 C 0.93665 0.65249 0.10257 0.0
H2368 H 0.88087 0.7004 0.13045 0.0
C2369 C 0.94922 0.64258 0.13076 0.0
C2370 C 0.93792 0.6545 0.15864 0.0
H2371 H 0.94701 0.64438 0.08139 0.0
H2372 H 0.96894 0.62725 0.13065 0.0
C2373 C 0.91254 0.67464 0.15792 0.0
C2374 C 0.89396 0.81907 0.12216 0.0
C2375 C 0.91502 0.80427 0.10246 0.0
H2376 H 0.88789 0.84624 0.16322 0.0
C2377 C 0.9465 0.8046 0.11031 0.0
H2378 H 0.8696 0.8193 0.11671 0.0
C2379 C 0.95688 0.81984 0.13655 0.0
C2380 C 0.93621 0.83543 0.15596 0.0
H2381 H 0.96346 0.79312 0.09601 0.0
H2382 H 0.98127 0.81904 0.14168 0.0
C2383 C 0.90448 0.83452 0.14871 0.0
C2384 C 0.38478 0.07738 0.20595 0.0
C2385 C 0.40613 0.08903 0.18459 0.0
H2386 H 0.34225 0.05434 0.21362 0.0
C2387 C 0.39974 0.08546 0.15288 0.0
H2388 H 0.38897 0.07873 0.23046 0.0
C2389 C 0.37254 0.07077 0.14296 0.0
C2390 C 0.35125 0.05946 0.1646 0.0
H2391 H 0.41563 0.09419 0.13574 0.0
H2392 H 0.3681 0.06849 0.11852 0.0
C2393 C 0.35785 0.06297 0.19614 0.0
C2394 C 0.30586 0.38195 0.11698 0.0
C2395 C 0.31537 0.40987 0.10368 0.0
H2396 H 0.31013 0.33268 0.11669 0.0
C2397 C 0.33967 0.40952 0.08226 0.0
H2398 H 0.28701 0.38157 0.13336 0.0
C2399 C 0.35313 0.38183 0.07299 0.0
C2400 C 0.34235 0.35352 0.08446 0.0
H2401 H 0.34775 0.43078 0.07191 0.0
H2402 H 0.37146 0.38263 0.05609 0.0
C2403 C 0.31916 0.35396 0.10734 0.0
C2404 C 0.63385 0.40811 0.19297 0.0
C2405 C 0.60574 0.41699 0.17959 0.0
H2406 H 0.68262 0.41455 0.19496 0.0
C2407 C 0.60646 0.43815 0.15484 0.0
H2408 H 0.63448 0.39135 0.21142 0.0
C2409 C 0.63446 0.45119 0.14492 0.0
C2410 C 0.66217 0.44348 0.15974 0.0
H2411 H 0.58533 0.4457 0.14398 0.0
H2412 H 0.63421 0.4684 0.12684 0.0
C2413 C 0.66157 0.42128 0.18333 0.0
C2414 C 0.68816 0.12268 0.11556 0.0
C2415 C 0.69697 0.10077 0.09335 0.0
H2416 H 0.66655 0.1665 0.12414 0.0
C2417 C 0.69053 0.10685 0.0622 0.0
H2418 H 0.69273 0.11865 0.13975 0.0
C2419 C 0.67585 0.13394 0.0533 0.0
C2420 C 0.66679 0.156 0.07525 0.0
H2421 H 0.69714 0.09074 0.04429 0.0
H2422 H 0.6724 0.13774 0.02893 0.0
C2423 C 0.67317 0.15006 0.10658 0.0
C2424 C 0.38024 0.95315 0.36659 0.0
C2425 C 0.35227 0.94445 0.35286 0.0
H2426 H 0.42944 0.94821 0.36644 0.0
C2427 C 0.35246 0.92096 0.33055 0.0
H2428 H 0.38077 0.9714 0.38363 0.0
C2429 C 0.38004 0.90754 0.32088 0.0
C2430 C 0.40839 0.91749 0.33294 0.0
H2431 H 0.33118 0.91353 0.31979 0.0
H2432 H 0.37913 0.88987 0.30331 0.0
C2433 C 0.4081 0.93985 0.35663 0.0
C2434 C 0.16791 0.41338 0.93222 0.0
C2435 C 0.19057 0.41424 0.90907 0.0
H2436 H 0.13852 0.38583 0.96045 0.0
C2437 C 0.19961 0.3865 0.89506 0.0
H2438 H 0.16017 0.43443 0.94325 0.0
C2439 C 0.18745 0.35827 0.90539 0.0
C2440 C 0.16588 0.35737 0.92978 0.0
H2441 H 0.21721 0.38646 0.87733 0.0
H2442 H 0.19601 0.33718 0.89521 0.0
C2443 C 0.15563 0.38542 0.9423 0.0
C2444 C 0.61457 0.58646 0.35688 0.0
C2445 C 0.60827 0.59118 0.32529 0.0
H2446 H 0.64623 0.56858 0.39073 0.0
C2447 C 0.63012 0.58098 0.30365 0.0
H2448 H 0.59839 0.59407 0.37427 0.0
C2449 C 0.6573 0.56675 0.31307 0.0
C2450 C 0.66368 0.56191 0.34447 0.0
H2451 H 0.62613 0.58322 0.27917 0.0
H2452 H 0.67324 0.55919 0.29538 0.0
C2453 C 0.64199 0.5719 0.36637 0.0
C2454 C 0.85687 0.12938 0.94057 0.0
C2455 C 0.84616 0.15768 0.92907 0.0
H2456 H 0.85201 0.08038 0.94097 0.0
C2457 C 0.82351 0.15727 0.90569 0.0
H2458 H 0.87478 0.12859 0.95789 0.0
C2459 C 0.8107 0.12927 0.89548 0.0
C2460 C 0.82019 0.10128 0.90864 0.0
H2461 H 0.81456 0.17858 0.89631 0.0
H2462 H 0.79223 0.12967 0.87869 0.0
C2463 C 0.84396 0.10165 0.93064 0.0
C2464 C 0.15582 0.40872 0.07037 0.0
C2465 C 0.17968 0.40866 0.09253 0.0
H2466 H 0.12839 0.38178 0.03886 0.0
C2467 C 0.19166 0.38016 0.10213 0.0
H2468 H 0.14604 0.43019 0.06229 0.0
C2469 C 0.18174 0.35276 0.08857 0.0
C2470 C 0.15924 0.35291 0.0653 0.0
H2471 H 0.20934 0.37898 0.11967 0.0
H2472 H 0.19243 0.33134 0.09576 0.0
C2473 C 0.14559 0.38102 0.05694 0.0
C2474 C 0.19517 0.65197 0.45073 0.0
C2475 C 0.16371 0.65891 0.45455 0.0
H2476 H 0.22908 0.62095 0.43374 0.0
C2477 C 0.14175 0.63813 0.44284 0.0
H2478 H 0.21291 0.66711 0.45966 0.0
C2479 C 0.1513 0.6112 0.42731 0.0
C2480 C 0.18293 0.60472 0.42317 0.0
H2481 H 0.11735 0.64283 0.44535 0.0
H2482 H 0.13399 0.59566 0.41828 0.0
C2483 C 0.20459 0.62542 0.43541 0.0
C2484 C 0.8871 0.61926 0.81799 0.0
C2485 C 0.9086 0.59725 0.80774 0.0
H2486 H 0.84396 0.62725 0.8412 0.0
C2487 C 0.90253 0.56588 0.81336 0.0
H2488 H 0.89111 0.64359 0.81408 0.0
C2489 C 0.87592 0.55661 0.82869 0.0
C2490 C 0.85429 0.57834 0.83913 0.0
H2491 H 0.91834 0.54811 0.80572 0.0
H2492 H 0.87209 0.53214 0.8316 0.0
C2493 C 0.86014 0.60987 0.83351 0.0
C2494 C 0.86763 0.87314 0.4415 0.0
C2495 C 0.84802 0.85952 0.46333 0.0
H2496 H 0.87239 0.90749 0.4062 0.0
C2497 C 0.81895 0.87286 0.46871 0.0
H2498 H 0.8901 0.86329 0.4368 0.0
C2499 C 0.80877 0.89793 0.45129 0.0
C2500 C 0.82734 0.91027 0.4278 0.0
H2501 H 0.80335 0.86299 0.48555 0.0
H2502 H 0.78557 0.90628 0.45506 0.0
C2503 C 0.85732 0.89823 0.42381 0.0
C2504 C 0.63151 0.45582 0.33155 0.0
C2505 C 0.65427 0.43441 0.34005 0.0
H2506 H 0.58771 0.46381 0.31118 0.0
C2507 C 0.64878 0.40287 0.33394 0.0
H2508 H 0.63477 0.4803 0.33495 0.0
C2509 C 0.62135 0.39322 0.3195 0.0
C2510 C 0.59884 0.41493 0.31103 0.0
H2511 H 0.66565 0.38562 0.34025 0.0
H2512 H 0.6178 0.36892 0.31498 0.0
C2513 C 0.60433 0.44625 0.31744 0.0
C2514 C 0.36741 0.63382 0.55955 0.0
C2515 C 0.35367 0.66203 0.56748 0.0
H2516 H 0.36657 0.58464 0.56502 0.0
C2517 C 0.33039 0.6623 0.59003 0.0
H2518 H 0.38519 0.63293 0.54203 0.0
C2519 C 0.31985 0.63496 0.60324 0.0
C2520 C 0.33206 0.60641 0.59411 0.0
H2521 H 0.31958 0.68377 0.59688 0.0
H2522 H 0.30158 0.63622 0.62018 0.0
C2523 C 0.35663 0.60619 0.57271 0.0
C2524 C 0.89205 0.39362 0.68916 0.0
C2525 C 0.91234 0.41547 0.70181 0.0
H2526 H 0.84998 0.38601 0.66411 0.0
C2527 C 0.90484 0.44693 0.69929 0.0
H2528 H 0.8972 0.36924 0.69066 0.0
C2529 C 0.87809 0.45648 0.68439 0.0
C2530 C 0.85783 0.43494 0.67124 0.0
H2531 H 0.91962 0.46454 0.70904 0.0
H2532 H 0.87318 0.48092 0.68379 0.0
C2533 C 0.86503 0.40328 0.67396 0.0
C2534 C 0.15516 0.1076 0.68726 0.0
C2535 C 0.15518 0.08364 0.66519 0.0
H2536 H 0.12826 0.13489 0.71891 0.0
C2537 C 0.12672 0.0712 0.65603 0.0
H2538 H 0.17658 0.1177 0.69504 0.0
C2539 C 0.09932 0.08084 0.66987 0.0
C2540 C 0.09942 0.10351 0.69303 0.0
H2541 H 0.12558 0.0534 0.6386 0.0
H2542 H 0.07798 0.06985 0.66295 0.0
C2543 C 0.12748 0.11753 0.70098 0.0
C2544 C 0.56065 0.64262 0.88013 0.0
C2545 C 0.57068 0.65584 0.85237 0.0
H2546 H 0.56365 0.64335 0.92945 0.0
C2547 C 0.59459 0.67771 0.85318 0.0
H2548 H 0.54205 0.62595 0.88018 0.0
C2549 C 0.60707 0.68753 0.88112 0.0
C2550 C 0.59577 0.67603 0.90917 0.0
H2551 H 0.60304 0.68808 0.83208 0.0
H2552 H 0.62505 0.70481 0.8807 0.0
C2553 C 0.57303 0.65271 0.90833 0.0
C2554 C 0.93906 0.17873 0.41107 0.0
C2555 C 0.91427 0.19958 0.41079 0.0
H2556 H 0.9679 0.14829 0.38548 0.0
C2557 C 0.89827 0.20447 0.38313 0.0
H2558 H 0.95154 0.17408 0.43219 0.0
C2559 C 0.90815 0.18996 0.35586 0.0
C2560 C 0.93398 0.17009 0.35594 0.0
H2561 H 0.87916 0.22052 0.38228 0.0
H2562 H 0.89628 0.19531 0.33462 0.0
C2563 C 0.94862 0.16404 0.38415 0.0
C2564 C 0.44964 0.86932 0.88038 0.0
C2565 C 0.43943 0.85658 0.85246 0.0
H2566 H 0.44667 0.86801 0.92968 0.0
C2567 C 0.41515 0.83512 0.85302 0.0
H2568 H 0.46852 0.88567 0.88062 0.0
C2569 C 0.4025 0.82517 0.88086 0.0
C2570 C 0.41402 0.8361 0.90905 0.0
H2571 H 0.40658 0.82512 0.8318 0.0
H2572 H 0.38426 0.80818 0.88024 0.0
C2573 C 0.43711 0.85908 0.90847 0.0
C2574 C 0.07398 0.33419 0.41225 0.0
C2575 C 0.09907 0.31366 0.41176 0.0
H2576 H 0.04436 0.36407 0.38688 0.0
C2577 C 0.11478 0.30885 0.38389 0.0
H2578 H 0.06165 0.33876 0.43349 0.0
C2579 C 0.10441 0.32316 0.35671 0.0
C2580 C 0.07831 0.34269 0.35704 0.0
H2581 H 0.13406 0.29301 0.38284 0.0
H2582 H 0.11612 0.31794 0.33533 0.0
C2583 C 0.06387 0.3486 0.38539 0.0
C2584 C 0.56116 0.36563 0.63033 0.0
C2585 C 0.57147 0.35393 0.65865 0.0
H2586 H 0.56389 0.36251 0.58111 0.0
C2587 C 0.59564 0.33234 0.65875 0.0
H2588 H 0.54234 0.38203 0.62956 0.0
C2589 C 0.60814 0.32131 0.63124 0.0
C2590 C 0.59656 0.33124 0.6027 0.0
H2591 H 0.60426 0.32309 0.68028 0.0
H2592 H 0.62637 0.30433 0.63244 0.0
C2593 C 0.57352 0.3543 0.60257 0.0
C2594 C 0.58243 0.17212 0.60332 0.0
C2595 C 0.60465 0.19567 0.60415 0.0
H2596 H 0.55455 0.14055 0.62868 0.0
C2597 C 0.61754 0.20404 0.63258 0.0
H2598 H 0.57237 0.16492 0.58163 0.0
C2599 C 0.60677 0.19036 0.65994 0.0
C2600 C 0.58313 0.16793 0.65919 0.0
H2601 H 0.63454 0.2223 0.63383 0.0
H2602 H 0.61588 0.19847 0.68168 0.0
C2603 C 0.57201 0.15829 0.63038 0.0
C2604 C 0.44524 0.19516 0.65115 0.0
C2605 C 0.451 0.16383 0.65729 0.0
H2606 H 0.42773 0.22886 0.62029 0.0
C2607 C 0.44184 0.14182 0.63534 0.0
H2608 H 0.4521 0.21297 0.66725 0.0
C2609 C 0.42713 0.15117 0.60791 0.0
C2610 C 0.4213 0.18267 0.60204 0.0
H2611 H 0.44588 0.11751 0.63938 0.0
H2612 H 0.42021 0.13379 0.59142 0.0
C2613 C 0.43077 0.2044 0.62409 0.0
C2614 C 0.45986 0.32456 0.63028 0.0
C2615 C 0.43871 0.33824 0.65064 0.0
H2616 H 0.46707 0.2995 0.58877 0.0
C2617 C 0.40697 0.3361 0.64371 0.0
H2618 H 0.48434 0.32482 0.63497 0.0
C2619 C 0.39682 0.32095 0.61689 0.0
C2620 C 0.41824 0.30773 0.59649 0.0
H2621 H 0.39 0.34642 0.65881 0.0
H2622 H 0.37237 0.31993 0.61195 0.0
C2623 C 0.44981 0.30966 0.60369 0.0
C2624 C 0.87206 0.56927 0.64019 0.0
C2625 C 0.84753 0.56523 0.66096 0.0
H2626 H 0.91809 0.58611 0.63336 0.0
C2627 C 0.85081 0.57667 0.69112 0.0
H2628 H 0.87026 0.56085 0.61677 0.0
C2629 C 0.878 0.59074 0.70073 0.0
C2630 C 0.90309 0.59419 0.68049 0.0
H2631 H 0.83245 0.5742 0.70788 0.0
H2632 H 0.87936 0.59787 0.72452 0.0
C2633 C 0.89955 0.58366 0.64984 0.0
C2634 C 0.85228 0.90478 0.59502 0.0
C2635 C 0.82508 0.906 0.61258 0.0
H2636 H 0.88457 0.8768 0.57054 0.0
C2637 C 0.81102 0.87827 0.62153 0.0
H2638 H 0.86372 0.92584 0.58794 0.0
C2639 C 0.82271 0.84992 0.61094 0.0
C2640 C 0.84876 0.84889 0.5914 0.0
H2641 H 0.78982 0.87858 0.63475 0.0
H2642 H 0.81018 0.82908 0.61651 0.0
C2643 C 0.86408 0.87664 0.58477 0.0
C2644 C 0.15418 0.94311 0.69321 0.0
C2645 C 0.15896 0.95128 0.66221 0.0
H2646 H 0.12456 0.92356 0.72684 0.0
C2647 C 0.13611 0.94368 0.64053 0.0
H2648 H 0.1711 0.94854 0.71073 0.0
C2649 C 0.10893 0.92857 0.64996 0.0
C2650 C 0.10418 0.92076 0.6812 0.0
H2651 H 0.13913 0.94956 0.61647 0.0
H2652 H 0.09163 0.92313 0.63285 0.0
C2653 C 0.12734 0.92825 0.70254 0.0
C2654 C 0.19058 0.66048 0.608 0.0
C2655 C 0.16696 0.66012 0.58558 0.0
H2656 H 0.2236 0.63383 0.63391 0.0
C2657 C 0.15624 0.63145 0.57503 0.0
H2658 H 0.19955 0.68209 0.61663 0.0
C2659 C 0.17015 0.60412 0.58472 0.0
C2660 C 0.1949 0.60454 0.60559 0.0
H2661 H 0.13763 0.63008 0.5585 0.0
H2662 H 0.16212 0.58254 0.575 0.0
C2663 C 0.20438 0.63286 0.61801 0.0
C2664 C 0.88444 0.43445 0.80633 0.0
C2665 C 0.90523 0.4226 0.82812 0.0
H2666 H 0.84227 0.45783 0.79775 0.0
C2667 C 0.89827 0.42634 0.85968 0.0
H2668 H 0.88919 0.43308 0.7819 0.0
C2669 C 0.87093 0.44124 0.86902 0.0
C2670 C 0.85014 0.45264 0.84694 0.0
H2671 H 0.91379 0.41756 0.8771 0.0
H2672 H 0.86598 0.44358 0.89337 0.0
C2673 C 0.85743 0.44909 0.81556 0.0
C2674 C 0.68745 0.90521 0.4391 0.0
C2675 C 0.69692 0.90909 0.40832 0.0
H2676 H 0.66808 0.87608 0.47319 0.0
C2677 C 0.69154 0.88493 0.3874 0.0
H2678 H 0.69114 0.92313 0.4561 0.0
C2679 C 0.67751 0.85734 0.39741 0.0
C2680 C 0.6686 0.85345 0.4285 0.0
H2681 H 0.69848 0.88717 0.36353 0.0
H2682 H 0.67388 0.83903 0.38087 0.0
C2683 C 0.67369 0.87799 0.449 0.0
C2684 C 0.14278 0.07083 0.86736 0.0
C2685 C 0.16395 0.05958 0.84558 0.0
H2686 H 0.09991 0.09447 0.87493 0.0
C2687 C 0.15733 0.06344 0.81409 0.0
H2688 H 0.14724 0.06829 0.89178 0.0
C2689 C 0.13046 0.07807 0.80447 0.0
C2690 C 0.10919 0.08963 0.82598 0.0
H2691 H 0.17286 0.05486 0.79651 0.0
H2692 H 0.12625 0.07965 0.77997 0.0
C2693 C 0.11566 0.08579 0.85765 0.0
C2694 C 0.31133 0.60817 0.44686 0.0
C2695 C 0.30886 0.60108 0.41532 0.0
H2696 H 0.32663 0.63947 0.48127 0.0
C2697 C 0.32122 0.6219 0.39378 0.0
H2698 H 0.3018 0.59299 0.46425 0.0
C2699 C 0.33614 0.64897 0.40382 0.0
C2700 C 0.3389 0.65568 0.43555 0.0
H2701 H 0.31973 0.6171 0.36934 0.0
H2702 H 0.34579 0.66443 0.38679 0.0
C2703 C 0.32598 0.63494 0.45677 0.0
C2704 C 0.66013 0.89687 0.58453 0.0
C2705 C 0.6918 0.90442 0.58476 0.0
H2706 H 0.62513 0.86494 0.56955 0.0
C2707 C 0.71226 0.88553 0.56825 0.0
H2708 H 0.64371 0.9109 0.59703 0.0
C2709 C 0.70167 0.85951 0.55267 0.0
C2710 C 0.67025 0.85142 0.55299 0.0
H2711 H 0.73658 0.89089 0.56703 0.0
H2712 H 0.71841 0.84555 0.54046 0.0
C2713 C 0.64944 0.8706 0.56878 0.0
C2714 C 0.64316 0.14129 0.9388 0.0
C2715 C 0.66401 0.16236 0.95185 0.0
H2716 H 0.63752 0.09854 0.91435 0.0
C2717 C 0.6957 0.15549 0.9508 0.0
H2718 H 0.61863 0.14592 0.93919 0.0
C2719 C 0.70646 0.12865 0.93686 0.0
C2720 C 0.68593 0.10764 0.92328 0.0
H2721 H 0.71256 0.17089 0.96091 0.0
H2722 H 0.731 0.12429 0.93727 0.0
C2723 C 0.65404 0.11417 0.92459 0.0
C2724 C 0.41434 0.0758 0.33778 0.0
C2725 C 0.41473 0.10019 0.31646 0.0
H2726 H 0.38761 0.04698 0.36733 0.0
C2727 C 0.38704 0.11559 0.3099 0.0
H2728 H 0.4354 0.06369 0.34364 0.0
C2729 C 0.35923 0.10556 0.32323 0.0
C2730 C 0.35871 0.0801 0.34354 0.0
H2731 H 0.38663 0.13431 0.29339 0.0
H2732 H 0.33808 0.11697 0.31659 0.0
C2733 C 0.38682 0.06602 0.35125 0.0
C2734 C 0.30985 0.35925 0.95162 0.0
C2735 C 0.34137 0.35223 0.95479 0.0
H2736 H 0.27573 0.39062 0.93576 0.0
C2737 C 0.36316 0.37313 0.943 0.0
H2738 H 0.29227 0.34395 0.9606 0.0
C2739 C 0.35342 0.40029 0.9281 0.0
C2740 C 0.32174 0.407 0.92475 0.0
H2741 H 0.38759 0.36836 0.94498 0.0
H2742 H 0.37066 0.41582 0.91895 0.0
C2743 C 0.30022 0.38611 0.93695 0.0
C2744 C 0.14819 0.90122 0.83531 0.0
C2745 C 0.15619 0.93269 0.83761 0.0
H2746 H 0.11521 0.86784 0.81881 0.0
C2747 C 0.13696 0.95454 0.82345 0.0
H2748 H 0.16258 0.88378 0.84584 0.0
C2749 C 0.11026 0.9455 0.80816 0.0
C2750 C 0.10174 0.91427 0.80632 0.0
H2751 H 0.14267 0.97882 0.82368 0.0
H2752 H 0.09622 0.96333 0.79774 0.0
C2753 C 0.12114 0.89207 0.8198 0.0
C2754 C 0.81678 0.13294 0.09886 0.0
C2755 C 0.82954 0.10451 0.09002 0.0
H2756 H 0.81587 0.18174 0.09229 0.0
C2757 C 0.85437 0.10462 0.06891 0.0
H2758 H 0.79835 0.13408 0.11562 0.0
C2759 C 0.86496 0.13237 0.05587 0.0
C2760 C 0.8507 0.16039 0.0635 0.0
H2761 H 0.8648 0.08325 0.06139 0.0
H2762 H 0.8831 0.1317 0.03871 0.0
C2763 C 0.82704 0.16039 0.08563 0.0
C2764 C 0.36354 0.90228 0.17618 0.0
C2765 C 0.35757 0.93378 0.1705 0.0
H2766 H 0.39482 0.86868 0.19528 0.0
C2767 C 0.37937 0.95557 0.18046 0.0
H2768 H 0.34729 0.88483 0.16886 0.0
C2769 C 0.40628 0.94638 0.19529 0.0
C2770 C 0.41243 0.91505 0.20098 0.0
H2771 H 0.37553 0.98003 0.17756 0.0
H2772 H 0.42221 0.96418 0.20257 0.0
C2773 C 0.39074 0.89299 0.19131 0.0
C2774 C 0.64833 0.60739 0.17641 0.0
C2775 C 0.6533 0.57578 0.17016 0.0
H2776 H 0.61769 0.64184 0.19505 0.0
C2777 C 0.6298 0.55483 0.1778 0.0
H2778 H 0.66569 0.62435 0.17069 0.0
C2779 C 0.60249 0.56489 0.19133 0.0
C2780 C 0.59759 0.59626 0.19802 0.0
H2781 H 0.63251 0.53033 0.17417 0.0
H2782 H 0.58531 0.54766 0.19698 0.0
C2783 C 0.62077 0.61752 0.19028 0.0
loop_
_geom_bond_atom_site_label_1
_geom_bond_atom_site_label_2
_geom_bond_distance
_geom_bond_site_symmetry_2
_ccdc_geom_bond_type
C0 C1 1.351 . S
C0 N3 1.368 . S
C0 H5 0.931 . S
C1 C0 1.351 . S
C1 N2 1.373 . S
C1 H29 0.930 . S
N2 C1 1.373 . S
N2 C4 1.340 . S
N3 C0 1.368 . S
N3 C4 1.321 . S
N3 Co6 2.135 . S
C4 N2 1.340 . S
C4 N3 1.321 . S
C4 H28 0.930 . S
H5 C0 0.931 . S
Co6 N3 2.135 . S
Co6 N9 2.121 1_455 S
Co6 O14 2.055 . S
Co6 O17 2.039 . S
Co6 N20 2.140 . S
C7 O8 1.227 . S
C7 O17 1.265 . S
O8 C7 1.227 . S
N9 Co6 2.121 1_655 S
N9 C11 1.375 . S
N9 C12 1.313 . S
C10 C11 1.338 . S
C10 N13 1.377 . S
C10 H30 0.930 . S
C11 N9 1.375 . S
C11 C10 1.338 . S
C11 H15 0.931 . S
C12 N9 1.313 . S
C12 N13 1.344 . S
C12 H16 0.930 . S
N13 C10 1.377 . S
N13 C12 1.344 . S
O14 Co6 2.055 . S
O14 C18 1.253 . S
H15 C11 0.931 . S
H16 C12 0.930 . S
O17 Co6 2.039 . S
O17 C7 1.265 . S
C18 O14 1.253 . S
C18 O19 1.227 . S
O19 C18 1.227 . S
N20 Co6 2.140 . S
N20 C23 1.346 . S
N20 C24 1.345 . S
C21 C22 1.387 . S
C21 C25 1.391 . S
C22 C21 1.387 . S
C22 C23 1.369 . S
C22 H31 0.929 . S
C23 N20 1.346 . S
C23 C22 1.369 . S
C23 H26 0.928 . S
C24 N20 1.345 . S
C24 C25 1.371 . S
C24 H27 0.931 . S
C25 C21 1.391 . S
C25 C24 1.371 . S
C25 H32 0.930 1_455 S
H26 C23 0.928 . S
H27 C24 0.931 . S
H28 C4 0.930 . S
H29 C1 0.930 . S
H30 C10 0.930 . S
H31 C22 0.929 . S
H32 C25 0.930 1_655 S
C33 C34 1.351 . S
C33 N36 1.368 . S
C33 H38 0.931 . S
C34 C33 1.351 . S
C34 N35 1.373 1_556 S
C34 H62 0.930 1_556 S
N35 C34 1.373 1_554 S
N35 C37 1.340 1_554 S
N36 C33 1.368 . S
N36 C37 1.321 . S
N36 Co39 2.135 . S
C37 N35 1.340 1_556 S
C37 N36 1.321 . S
C37 H61 0.930 1_556 S
H38 C33 0.931 . S
Co39 N36 2.135 . S
Co39 N42 2.121 . S
Co39 O47 2.055 . S
Co39 O50 2.039 . S
Co39 N53 2.140 1_556 S
C40 O41 1.227 1_556 S
C40 O50 1.265 . S
O41 C40 1.227 1_554 S
N42 Co39 2.121 . S
N42 C44 1.375 . S
N42 C45 1.313 . S
C43 C44 1.338 . S
C43 N46 1.377 . S
C43 H63 0.930 . S
C44 N42 1.375 . S
C44 C43 1.338 . S
C44 H48 0.931 . S
C45 N42 1.313 . S
C45 N46 1.344 . S
C45 H49 0.930 . S
N46 C43 1.377 . S
N46 C45 1.344 . S
O47 Co39 2.055 . S
O47 C51 1.253 . S
H48 C44 0.931 . S
H49 C45 0.930 . S
O50 Co39 2.039 . S
O50 C40 1.265 . S
C51 O47 1.253 . S
C51 O52 1.227 . S
O52 C51 1.227 . S
N53 Co39 2.140 1_554 S
N53 C56 1.346 . S
N53 C57 1.345 . S
C54 C55 1.387 . S
C54 C58 1.391 . S
C55 C54 1.387 . S
C55 C56 1.369 . S
C55 H64 0.929 . S
C56 N53 1.346 . S
C56 C55 1.369 . S
C56 H59 0.928 . S
C57 N53 1.345 . S
C57 C58 1.371 . S
C57 H60 0.931 1_554 S
C58 C54 1.391 . S
C58 C57 1.371 . S
C58 H65 0.930 . S
H59 C56 0.928 . S
H60 C57 0.931 1_556 S
H61 C37 0.930 1_554 S
H62 C34 0.930 1_554 S
H63 C43 0.930 . S
H64 C55 0.929 . S
H65 C58 0.930 . S
C66 C67 1.351 . S
C66 N69 1.368 . S
C66 H71 0.931 . S
C67 C66 1.351 . S
C67 N68 1.373 . S
C67 H95 0.930 . S
N68 C67 1.373 . S
N68 C70 1.340 . S
N69 C66 1.368 . S
N69 C70 1.321 . S
N69 Co72 2.135 . S
C70 N68 1.340 . S
C70 N69 1.321 . S
C70 H94 0.930 . S
H71 C66 0.931 . S
Co72 N69 2.135 . S
Co72 N75 2.121 1_655 S
Co72 O80 2.055 . S
Co72 O83 2.039 . S
Co72 N86 2.140 . S
C73 O74 1.227 . S
C73 O83 1.265 . S
O74 C73 1.227 . S
N75 Co72 2.121 1_455 S
N75 C77 1.375 . S
N75 C78 1.313 . S
C76 C77 1.338 . S
C76 N79 1.377 . S
C76 H96 0.930 . S
C77 N75 1.375 . S
C77 C76 1.338 . S
C77 H81 0.931 . S
C78 N75 1.313 . S
C78 N79 1.344 . S
C78 H82 0.930 . S
N79 C76 1.377 . S
N79 C78 1.344 . S
O80 Co72 2.055 . S
O80 C84 1.253 . S
H81 C77 0.931 . S
H82 C78 0.930 . S
O83 Co72 2.039 . S
O83 C73 1.265 . S
C84 O80 1.253 . S
C84 O85 1.227 . S
O85 C84 1.227 . S
N86 Co72 2.140 . S
N86 C89 1.346 . S
N86 C90 1.345 . S
C87 C88 1.387 . S
C87 C91 1.391 . S
C88 C87 1.387 . S
C88 C89 1.369 . S
C88 H97 0.929 . S
C89 N86 1.346 . S
C89 C88 1.369 . S
C89 H92 0.928 . S
C90 N86 1.345 . S
C90 C91 1.371 . S
C90 H93 0.931 . S
C91 C87 1.391 . S
C91 C90 1.371 . S
C91 H98 0.930 1_655 S
H92 C89 0.928 . S
H93 C90 0.931 . S
H94 C70 0.930 . S
H95 C67 0.930 . S
H96 C76 0.930 . S
H97 C88 0.929 . S
H98 C91 0.930 1_455 S
C99 C100 1.351 . S
C99 N102 1.368 . S
C99 H104 0.931 . S
C100 C99 1.351 . S
C100 N101 1.373 1_556 S
C100 H128 0.930 1_556 S
N101 C100 1.373 1_554 S
N101 C103 1.340 1_554 S
N102 C99 1.368 . S
N102 C103 1.321 . S
N102 Co105 2.135 . S
C103 N101 1.340 1_556 S
C103 N102 1.321 . S
C103 H127 0.930 1_556 S
H104 C99 0.931 . S
Co105 N102 2.135 . S
Co105 N108 2.121 . S
Co105 O113 2.055 . S
Co105 O116 2.039 . S
Co105 N119 2.140 1_556 S
C106 O107 1.227 1_556 S
C106 O116 1.265 . S
O107 C106 1.227 1_554 S
N108 Co105 2.121 . S
N108 C110 1.375 . S
N108 C111 1.313 . S
C109 C110 1.338 . S
C109 N112 1.377 . S
C109 H129 0.930 . S
C110 N108 1.375 . S
C110 C109 1.338 . S
C110 H114 0.931 . S
C111 N108 1.313 . S
C111 N112 1.344 . S
C111 H115 0.930 . S
N112 C109 1.377 . S
N112 C111 1.344 . S
O113 Co105 2.055 . S
O113 C117 1.253 . S
H114 C110 0.931 . S
H115 C111 0.930 . S
O116 Co105 2.039 . S
O116 C106 1.265 . S
C117 O113 1.253 . S
C117 O118 1.227 . S
O118 C117 1.227 . S
N119 Co105 2.140 1_554 S
N119 C122 1.346 . S
N119 C123 1.345 . S
C120 C121 1.387 . S
C120 C124 1.391 . S
C121 C120 1.387 . S
C121 C122 1.369 . S
C121 H130 0.929 . S
C122 N119 1.346 . S
C122 C121 1.369 . S
C122 H125 0.928 . S
C123 N119 1.345 . S
C123 C124 1.371 . S
C123 H126 0.931 1_554 S
C124 C120 1.391 . S
C124 C123 1.371 . S
C124 H131 0.930 . S
H125 C122 0.928 . S
H126 C123 0.931 1_556 S
H127 C103 0.930 1_554 S
H128 C100 0.930 1_554 S
H129 C109 0.930 . S
H130 C121 0.929 . S
H131 C124 0.930 . S
C132 C133 1.351 . S
C132 N135 1.368 . S
C132 H137 0.931 . S
C133 C132 1.351 . S
C133 N134 1.373 . S
C133 H161 0.930 . S
N134 C133 1.373 . S
N134 C136 1.340 . S
N135 C132 1.368 . S
N135 C136 1.321 . S
N135 Co138 2.135 . S
C136 N134 1.340 . S
C136 N135 1.321 . S
C136 H160 0.930 . S
H137 C132 0.931 . S
Co138 N135 2.135 . S
Co138 N141 2.121 1_455 S
Co138 O146 2.055 . S
Co138 O149 2.039 . S
Co138 N152 2.140 . S
C139 O140 1.227 . S
C139 O149 1.265 . S
O140 C139 1.227 . S
N141 Co138 2.121 1_655 S
N141 C143 1.375 . S
N141 C144 1.313 . S
C142 C143 1.338 . S
C142 N145 1.377 . S
C142 H162 0.930 . S
C143 N141 1.375 . S
C143 C142 1.338 . S
C143 H147 0.931 . S
C144 N141 1.313 . S
C144 N145 1.344 . S
C144 H148 0.930 . S
N145 C142 1.377 . S
N145 C144 1.344 . S
O146 Co138 2.055 . S
O146 C150 1.253 . S
H147 C143 0.931 . S
H148 C144 0.930 . S
O149 Co138 2.039 . S
O149 C139 1.265 . S
C150 O146 1.253 . S
C150 O151 1.227 . S
O151 C150 1.227 . S
N152 Co138 2.140 . S
N152 C155 1.346 . S
N152 C156 1.345 . S
C153 C154 1.387 . S
C153 C157 1.391 . S
C154 C153 1.387 . S
C154 C155 1.369 . S
C154 H163 0.929 . S
C155 N152 1.346 . S
C155 C154 1.369 . S
C155 H158 0.928 . S
C156 N152 1.345 . S
C156 C157 1.371 . S
C156 H159 0.931 . S
C157 C153 1.391 . S
C157 C156 1.371 . S
C157 H164 0.930 1_455 S
H158 C155 0.928 . S
H159 C156 0.931 . S
H160 C136 0.930 . S
H161 C133 0.930 . S
H162 C142 0.930 . S
H163 C154 0.929 . S
H164 C157 0.930 1_655 S
C165 C166 1.351 . S
C165 N168 1.368 . S
C165 H170 0.931 . S
C166 C165 1.351 . S
C166 N167 1.373 1_554 S
C166 H194 0.925 1_554 S
N167 C166 1.373 1_556 S
N167 C169 1.340 1_556 S
N168 C165 1.368 . S
N168 C169 1.321 . S
N168 Co171 2.135 . S
C169 N167 1.340 1_554 S
C169 N168 1.321 . S
C169 H193 0.930 1_554 S
H170 C165 0.931 . S
Co171 N168 2.135 . S
Co171 N174 2.121 . S
Co171 O179 2.055 . S
Co171 O182 2.039 . S
Co171 N185 2.140 1_554 S
C172 O173 1.227 1_554 S
C172 O182 1.265 . S
O173 C172 1.227 1_556 S
N174 Co171 2.121 . S
N174 C176 1.375 . S
N174 C177 1.313 . S
C175 C176 1.338 . S
C175 N178 1.377 . S
C175 H195 0.930 . S
C176 N174 1.375 . S
C176 C175 1.338 . S
C176 H180 0.931 . S
C177 N174 1.313 . S
C177 N178 1.344 . S
C177 H181 0.930 . S
N178 C175 1.377 . S
N178 C177 1.344 . S
O179 Co171 2.055 . S
O179 C183 1.253 . S
H180 C176 0.931 . S
H181 C177 0.930 . S
O182 Co171 2.039 . S
O182 C172 1.265 . S
C183 O179 1.253 . S
C183 O184 1.227 . S
O184 C183 1.227 . S
N185 Co171 2.140 1_556 S
N185 C188 1.346 . S
N185 C189 1.345 . S
C186 C187 1.387 . S
C186 C190 1.391 . S
C187 C186 1.387 . S
C187 C188 1.369 . S
C187 H196 0.929 . S
C188 N185 1.346 . S
C188 C187 1.369 . S
C188 H191 0.928 . S
C189 N185 1.345 . S
C189 C190 1.371 . S
C189 H192 0.931 1_556 S
C190 C186 1.391 . S
C190 C189 1.371 . S
C190 H197 0.930 . S
H191 C188 0.928 . S
H192 C189 0.931 1_554 S
H193 C169 0.930 1_556 S
H194 C166 0.925 1_556 S
H195 C175 0.930 . S
H196 C187 0.929 . S
H197 C190 0.930 . S
C198 C199 1.351 . S
C198 N201 1.368 . S
C198 H203 0.931 . S
C199 C198 1.351 . S
C199 N200 1.373 . S
C199 H227 0.930 . S
N200 C199 1.373 . S
N200 C202 1.340 . S
N201 C198 1.368 . S
N201 C202 1.321 . S
N201 Co204 2.135 . S
C202 N200 1.340 . S
C202 N201 1.321 . S
C202 H226 0.930 . S
H203 C198 0.931 . S
Co204 N201 2.135 . S
Co204 N207 2.121 1_655 S
Co204 O212 2.055 . S
Co204 O215 2.039 . S
Co204 N218 2.140 . S
C205 O206 1.227 . S
C205 O215 1.265 . S
O206 C205 1.227 . S
N207 Co204 2.121 1_455 S
N207 C209 1.375 . S
N207 C210 1.313 . S
C208 C209 1.338 . S
C208 N211 1.377 . S
C208 H228 0.930 . S
C209 N207 1.375 . S
C209 C208 1.338 . S
C209 H213 0.931 . S
C210 N207 1.313 . S
C210 N211 1.344 . S
C210 H214 0.930 . S
N211 C208 1.377 . S
N211 C210 1.344 . S
O212 Co204 2.055 . S
O212 C216 1.253 . S
H213 C209 0.931 . S
H214 C210 0.930 . S
O215 Co204 2.039 . S
O215 C205 1.265 . S
C216 O212 1.253 . S
C216 O217 1.227 . S
O217 C216 1.227 . S
N218 Co204 2.140 . S
N218 C221 1.346 . S
N218 C222 1.345 . S
C219 C220 1.387 . S
C219 C223 1.391 . S
C220 C219 1.387 . S
C220 C221 1.369 . S
C220 H229 0.929 . S
C221 N218 1.346 . S
C221 C220 1.369 . S
C221 H224 0.928 . S
C222 N218 1.345 . S
C222 C223 1.371 . S
C222 H225 0.931 . S
C223 C219 1.391 . S
C223 C222 1.371 . S
C223 H230 0.930 1_655 S
H224 C221 0.928 . S
H225 C222 0.931 . S
H226 C202 0.930 . S
H227 C199 0.930 . S
H228 C208 0.930 . S
H229 C220 0.929 . S
H230 C223 0.930 1_455 S
C231 C232 1.351 . S
C231 N234 1.368 . S
C231 H236 0.931 . S
C232 C231 1.351 . S
C232 N233 1.373 1_554 S
C232 H260 0.925 1_554 S
N233 C232 1.373 1_556 S
N233 C235 1.340 1_556 S
N234 C231 1.368 . S
N234 C235 1.321 . S
N234 Co237 2.135 . S
C235 N233 1.340 1_554 S
C235 N234 1.321 . S
C235 H259 0.930 1_554 S
H236 C231 0.931 . S
Co237 N234 2.135 . S
Co237 N240 2.121 . S
Co237 O245 2.055 . S
Co237 O248 2.039 . S
Co237 N251 2.140 1_554 S
C238 O239 1.227 1_554 S
C238 O248 1.265 . S
O239 C238 1.227 1_556 S
N240 Co237 2.121 . S
N240 C242 1.375 . S
N240 C243 1.313 . S
C241 C242 1.338 . S
C241 N244 1.377 . S
C241 H261 0.930 . S
C242 N240 1.375 . S
C242 C241 1.338 . S
C242 H246 0.931 . S
C243 N240 1.313 . S
C243 N244 1.344 . S
C243 H247 0.930 . S
N244 C241 1.377 . S
N244 C243 1.344 . S
O245 Co237 2.055 . S
O245 C249 1.253 . S
H246 C242 0.931 . S
H247 C243 0.930 . S
O248 Co237 2.039 . S
O248 C238 1.265 . S
C249 O245 1.253 . S
C249 O250 1.227 . S
O250 C249 1.227 . S
N251 Co237 2.140 1_556 S
N251 C254 1.346 . S
N251 C255 1.345 . S
C252 C253 1.387 . S
C252 C256 1.391 . S
C253 C252 1.387 . S
C253 C254 1.369 . S
C253 H262 0.929 . S
C254 N251 1.346 . S
C254 C253 1.369 . S
C254 H257 0.928 . S
C255 N251 1.345 . S
C255 C256 1.371 . S
C255 H258 0.931 1_556 S
C256 C252 1.391 . S
C256 C255 1.371 . S
C256 H263 0.930 . S
H257 C254 0.928 . S
H258 C255 0.931 1_554 S
H259 C235 0.930 1_556 S
H260 C232 0.925 1_556 S
H261 C241 0.930 . S
H262 C253 0.929 . S
H263 C256 0.930 . S
C264 C265 1.351 . S
C264 N267 1.368 . S
C264 H269 0.931 . S
C265 C264 1.351 . S
C265 N266 1.373 . S
C265 H293 0.930 . S
N266 C265 1.373 . S
N266 C268 1.340 . S
N267 C264 1.368 . S
N267 C268 1.321 . S
N267 Co270 2.135 . S
C268 N266 1.340 . S
C268 N267 1.321 . S
C268 H292 0.930 . S
H269 C264 0.931 . S
Co270 N267 2.135 . S
Co270 N273 2.121 1_545 S
Co270 O278 2.055 . S
Co270 O281 2.039 . S
Co270 N284 2.140 . S
C271 O272 1.227 . S
C271 O281 1.265 . S
O272 C271 1.227 . S
N273 Co270 2.121 1_565 S
N273 C275 1.375 . S
N273 C276 1.313 . S
C274 C275 1.338 . S
C274 N277 1.377 . S
C274 H294 0.930 . S
C275 N273 1.375 . S
C275 C274 1.338 . S
C275 H279 0.931 . S
C276 N273 1.313 . S
C276 N277 1.344 . S
C276 H280 0.930 . S
N277 C274 1.377 . S
N277 C276 1.344 . S
O278 Co270 2.055 . S
O278 C282 1.253 . S
H279 C275 0.931 . S
H280 C276 0.930 . S
O281 Co270 2.039 . S
O281 C271 1.265 . S
C282 O278 1.253 . S
C282 O283 1.227 . S
O283 C282 1.227 . S
N284 Co270 2.140 . S
N284 C287 1.346 . S
N284 C288 1.345 . S
C285 C286 1.387 . S
C285 C289 1.391 . S
C286 C285 1.387 . S
C286 C287 1.369 . S
C286 H295 0.929 . S
C287 N284 1.346 . S
C287 C286 1.369 . S
C287 H290 0.928 . S
C288 N284 1.345 . S
C288 C289 1.371 . S
C288 H291 0.931 . S
C289 C285 1.391 . S
C289 C288 1.371 . S
C289 H296 0.930 1_545 S
H290 C287 0.928 . S
H291 C288 0.931 . S
H292 C268 0.930 . S
H293 C265 0.930 . S
H294 C274 0.930 . S
H295 C286 0.929 . S
H296 C289 0.930 1_565 S
C297 C298 1.351 . S
C297 N300 1.368 . S
C297 H302 0.931 . S
C298 C297 1.351 . S
C298 N299 1.373 . S
C298 H326 0.930 . S
N299 C298 1.373 . S
N299 C301 1.340 . S
N300 C297 1.368 . S
N300 C301 1.321 . S
N300 Co303 2.135 . S
C301 N299 1.340 . S
C301 N300 1.321 . S
C301 H325 0.930 . S
H302 C297 0.931 . S
Co303 N300 2.135 . S
Co303 N306 2.121 . S
Co303 O311 2.055 . S
Co303 O314 2.039 . S
Co303 N317 2.140 . S
C304 O305 1.227 . S
C304 O314 1.265 . S
O305 C304 1.227 . S
N306 Co303 2.121 . S
N306 C308 1.375 . S
N306 C309 1.313 . S
C307 C308 1.338 . S
C307 N310 1.377 . S
C307 H327 0.930 . S
C308 N306 1.375 . S
C308 C307 1.338 . S
C308 H312 0.931 . S
C309 N306 1.313 . S
C309 N310 1.344 . S
C309 H313 0.930 . S
N310 C307 1.377 . S
N310 C309 1.344 . S
O311 Co303 2.055 . S
O311 C315 1.253 . S
H312 C308 0.931 . S
H313 C309 0.930 . S
O314 Co303 2.039 . S
O314 C304 1.265 . S
C315 O311 1.253 . S
C315 O316 1.227 . S
O316 C315 1.227 . S
N317 Co303 2.140 . S
N317 C320 1.346 . S
N317 C321 1.345 . S
C318 C319 1.387 . S
C318 C322 1.391 . S
C319 C318 1.387 . S
C319 C320 1.369 . S
C319 H328 0.929 . S
C320 N317 1.346 . S
C320 C319 1.369 . S
C320 H323 0.928 . S
C321 N317 1.345 . S
C321 C322 1.371 . S
C321 H324 0.931 . S
C322 C318 1.391 . S
C322 C321 1.371 . S
C322 H329 0.930 . S
H323 C320 0.928 . S
H324 C321 0.931 . S
H325 C301 0.930 . S
H326 C298 0.930 . S
H327 C307 0.930 . S
H328 C319 0.929 . S
H329 C322 0.930 . S
C330 C331 1.351 . S
C330 N333 1.368 . S
C330 H335 0.931 . S
C331 C330 1.351 . S
C331 N332 1.373 . S
C331 H359 0.930 . S
N332 C331 1.373 . S
N332 C334 1.340 . S
N333 C330 1.368 . S
N333 C334 1.321 . S
N333 Co336 2.135 . S
C334 N332 1.340 . S
C334 N333 1.321 . S
C334 H358 0.930 . S
H335 C330 0.931 . S
Co336 N333 2.135 . S
Co336 N339 2.121 . S
Co336 O344 2.055 . S
Co336 O347 2.039 . S
Co336 N350 2.140 . S
C337 O338 1.227 . S
C337 O347 1.265 . S
O338 C337 1.227 . S
N339 Co336 2.121 . S
N339 C341 1.375 . S
N339 C342 1.313 . S
C340 C341 1.338 . S
C340 N343 1.377 . S
C340 H360 0.930 . S
C341 N339 1.375 . S
C341 C340 1.338 . S
C341 H345 0.931 . S
C342 N339 1.313 . S
C342 N343 1.344 . S
C342 H346 0.930 . S
N343 C340 1.377 . S
N343 C342 1.344 . S
O344 Co336 2.055 . S
O344 C348 1.253 . S
H345 C341 0.931 . S
H346 C342 0.930 . S
O347 Co336 2.039 . S
O347 C337 1.265 . S
C348 O344 1.253 . S
C348 O349 1.227 . S
O349 C348 1.227 . S
N350 Co336 2.140 . S
N350 C353 1.346 . S
N350 C354 1.345 . S
C351 C352 1.387 . S
C351 C355 1.391 . S
C352 C351 1.387 . S
C352 C353 1.369 . S
C352 H361 0.929 . S
C353 N350 1.346 . S
C353 C352 1.369 . S
C353 H356 0.928 . S
C354 N350 1.345 . S
C354 C355 1.371 . S
C354 H357 0.931 . S
C355 C351 1.391 . S
C355 C354 1.371 . S
C355 H362 0.930 . S
H356 C353 0.928 . S
H357 C354 0.931 . S
H358 C334 0.930 . S
H359 C331 0.930 . S
H360 C340 0.930 . S
H361 C352 0.929 . S
H362 C355 0.930 . S
C363 C364 1.351 . S
C363 N366 1.368 . S
C363 H368 0.931 . S
C364 C363 1.351 . S
C364 N365 1.373 1_545 S
C364 H392 0.925 1_545 S
N365 C364 1.373 1_565 S
N365 C367 1.340 1_565 S
N366 C363 1.368 . S
N366 C367 1.321 . S
N366 Co369 2.135 . S
C367 N365 1.340 1_545 S
C367 N366 1.321 . S
C367 H391 0.930 1_545 S
H368 C363 0.931 . S
Co369 N366 2.135 . S
Co369 N372 2.121 . S
Co369 O377 2.055 . S
Co369 O380 2.039 . S
Co369 N383 2.140 1_545 S
C370 O371 1.227 1_545 S
C370 O380 1.265 . S
O371 C370 1.227 1_565 S
N372 Co369 2.121 . S
N372 C374 1.375 . S
N372 C375 1.313 . S
C373 C374 1.338 . S
C373 N376 1.377 . S
C373 H393 0.930 . S
C374 N372 1.375 . S
C374 C373 1.338 . S
C374 H378 0.931 . S
C375 N372 1.313 . S
C375 N376 1.344 . S
C375 H379 0.930 . S
N376 C373 1.377 . S
N376 C375 1.344 . S
O377 Co369 2.055 . S
O377 C381 1.253 . S
H378 C374 0.931 . S
H379 C375 0.930 . S
O380 Co369 2.039 . S
O380 C370 1.265 . S
C381 O377 1.253 . S
C381 O382 1.227 . S
O382 C381 1.227 . S
N383 Co369 2.140 1_565 S
N383 C386 1.346 . S
N383 C387 1.345 . S
C384 C385 1.387 . S
C384 C388 1.391 . S
C385 C384 1.387 . S
C385 C386 1.369 . S
C385 H394 0.929 . S
C386 N383 1.346 . S
C386 C385 1.369 . S
C386 H389 0.928 . S
C387 N383 1.345 . S
C387 C388 1.371 . S
C387 H390 0.931 1_565 S
C388 C384 1.391 . S
C388 C387 1.371 . S
C388 H395 0.930 . S
H389 C386 0.928 . S
H390 C387 0.931 1_545 S
H391 C367 0.930 1_565 S
H392 C364 0.925 1_565 S
H393 C373 0.930 . S
H394 C385 0.929 . S
H395 C388 0.930 . S
C396 C397 1.351 . S
C396 N399 1.368 . S
C396 H401 0.931 . S
C397 C396 1.351 . S
C397 N398 1.373 . S
C397 H425 0.930 . S
N398 C397 1.373 . S
N398 C400 1.340 . S
N399 C396 1.368 . S
N399 C400 1.321 . S
N399 Co402 2.135 . S
C400 N398 1.340 . S
C400 N399 1.321 . S
C400 H424 0.930 . S
H401 C396 0.931 . S
Co402 N399 2.135 . S
Co402 N405 2.121 1_565 S
Co402 O410 2.055 . S
Co402 O413 2.039 . S
Co402 N416 2.140 . S
C403 O404 1.227 . S
C403 O413 1.265 . S
O404 C403 1.227 . S
N405 Co402 2.121 1_545 S
N405 C407 1.375 . S
N405 C408 1.313 . S
C406 C407 1.338 . S
C406 N409 1.377 . S
C406 H426 0.930 . S
C407 N405 1.375 . S
C407 C406 1.338 . S
C407 H411 0.931 . S
C408 N405 1.313 . S
C408 N409 1.344 . S
C408 H412 0.930 . S
N409 C406 1.377 . S
N409 C408 1.344 . S
O410 Co402 2.055 . S
O410 C414 1.253 . S
H411 C407 0.931 . S
H412 C408 0.930 . S
O413 Co402 2.039 . S
O413 C403 1.265 . S
C414 O410 1.253 . S
C414 O415 1.227 . S
O415 C414 1.227 . S
N416 Co402 2.140 . S
N416 C419 1.346 . S
N416 C420 1.345 . S
C417 C418 1.387 . S
C417 C421 1.391 . S
C418 C417 1.387 . S
C418 C419 1.369 . S
C418 H427 0.929 . S
C419 N416 1.346 . S
C419 C418 1.369 . S
C419 H422 0.928 . S
C420 N416 1.345 . S
C420 C421 1.371 . S
C420 H423 0.931 . S
C421 C417 1.391 . S
C421 C420 1.371 . S
C421 H428 0.930 1_565 S
H422 C419 0.928 . S
H423 C420 0.931 . S
H424 C400 0.930 . S
H425 C397 0.930 . S
H426 C406 0.930 . S
H427 C418 0.929 . S
H428 C421 0.930 1_545 S
C429 C430 1.351 . S
C429 N432 1.368 . S
C429 H434 0.931 . S
C430 C429 1.351 . S
C430 N431 1.373 . S
C430 H458 0.930 . S
N431 C430 1.373 . S
N431 C433 1.340 . S
N432 C429 1.368 . S
N432 C433 1.321 . S
N432 Co435 2.135 . S
C433 N431 1.340 . S
C433 N432 1.321 . S
C433 H457 0.930 . S
H434 C429 0.931 . S
Co435 N432 2.135 . S
Co435 N438 2.121 . S
Co435 O443 2.055 . S
Co435 O446 2.039 . S
Co435 N449 2.140 . S
C436 O437 1.227 . S
C436 O446 1.265 . S
O437 C436 1.227 . S
N438 Co435 2.121 . S
N438 C440 1.375 . S
N438 C441 1.313 . S
C439 C440 1.338 . S
C439 N442 1.377 . S
C439 H459 0.930 . S
C440 N438 1.375 . S
C440 C439 1.338 . S
C440 H444 0.931 . S
C441 N438 1.313 . S
C441 N442 1.344 . S
C441 H445 0.930 . S
N442 C439 1.377 . S
N442 C441 1.344 . S
O443 Co435 2.055 . S
O443 C447 1.253 . S
H444 C440 0.931 . S
H445 C441 0.930 . S
O446 Co435 2.039 . S
O446 C436 1.265 . S
C447 O443 1.253 . S
C447 O448 1.227 . S
O448 C447 1.227 . S
N449 Co435 2.140 . S
N449 C452 1.346 . S
N449 C453 1.345 . S
C450 C451 1.387 . S
C450 C454 1.391 . S
C451 C450 1.387 . S
C451 C452 1.369 . S
C451 H460 0.929 . S
C452 N449 1.346 . S
C452 C451 1.369 . S
C452 H455 0.928 . S
C453 N449 1.345 . S
C453 C454 1.371 . S
C453 H456 0.931 . S
C454 C450 1.391 . S
C454 C453 1.371 . S
C454 H461 0.930 . S
H455 C452 0.928 . S
H456 C453 0.931 . S
H457 C433 0.930 . S
H458 C430 0.930 . S
H459 C439 0.930 . S
H460 C451 0.929 . S
H461 C454 0.930 . S
C462 C463 1.351 . S
C462 N465 1.368 . S
C462 H467 0.931 . S
C463 C462 1.351 . S
C463 N464 1.373 . S
C463 H491 0.930 . S
N464 C463 1.373 . S
N464 C466 1.340 . S
N465 C462 1.368 . S
N465 C466 1.321 . S
N465 Co468 2.135 . S
C466 N464 1.340 . S
C466 N465 1.321 . S
C466 H490 0.930 . S
H467 C462 0.931 . S
Co468 N465 2.135 . S
Co468 N471 2.121 . S
Co468 O476 2.055 . S
Co468 O479 2.039 . S
Co468 N482 2.140 . S
C469 O470 1.227 . S
C469 O479 1.265 . S
O470 C469 1.227 . S
N471 Co468 2.121 . S
N471 C473 1.375 . S
N471 C474 1.313 . S
C472 C473 1.338 . S
C472 N475 1.377 . S
C472 H492 0.930 . S
C473 N471 1.375 . S
C473 C472 1.338 . S
C473 H477 0.931 . S
C474 N471 1.313 . S
C474 N475 1.344 . S
C474 H478 0.930 . S
N475 C472 1.377 . S
N475 C474 1.344 . S
O476 Co468 2.055 . S
O476 C480 1.253 . S
H477 C473 0.931 . S
H478 C474 0.930 . S
O479 Co468 2.039 . S
O479 C469 1.265 . S
C480 O476 1.253 . S
C480 O481 1.227 . S
O481 C480 1.227 . S
N482 Co468 2.140 . S
N482 C485 1.346 . S
N482 C486 1.345 . S
C483 C484 1.387 . S
C483 C487 1.391 . S
C484 C483 1.387 . S
C484 C485 1.369 . S
C484 H493 0.929 . S
C485 N482 1.346 . S
C485 C484 1.369 . S
C485 H488 0.928 . S
C486 N482 1.345 . S
C486 C487 1.371 . S
C486 H489 0.931 . S
C487 C483 1.391 . S
C487 C486 1.371 . S
C487 H494 0.930 . S
H488 C485 0.928 . S
H489 C486 0.931 . S
H490 C466 0.930 . S
H491 C463 0.930 . S
H492 C472 0.930 . S
H493 C484 0.929 . S
H494 C487 0.930 . S
C495 C496 1.351 . S
C495 N498 1.368 . S
C495 H500 0.931 . S
C496 C495 1.351 . S
C496 N497 1.373 1_545 S
C496 H524 0.925 1_545 S
N497 C496 1.373 1_565 S
N497 C499 1.340 1_565 S
N498 C495 1.368 . S
N498 C499 1.321 . S
N498 Co501 2.135 . S
C499 N497 1.340 1_545 S
C499 N498 1.321 . S
C499 H523 0.930 1_545 S
H500 C495 0.931 . S
Co501 N498 2.135 . S
Co501 N504 2.121 . S
Co501 O509 2.055 . S
Co501 O512 2.039 . S
Co501 N515 2.140 1_545 S
C502 O503 1.227 1_545 S
C502 O512 1.265 . S
O503 C502 1.227 1_565 S
N504 Co501 2.121 . S
N504 C506 1.375 . S
N504 C507 1.313 . S
C505 C506 1.338 . S
C505 N508 1.377 . S
C505 H525 0.930 . S
C506 N504 1.375 . S
C506 C505 1.338 . S
C506 H510 0.931 . S
C507 N504 1.313 . S
C507 N508 1.344 . S
C507 H511 0.930 . S
N508 C505 1.377 . S
N508 C507 1.344 . S
O509 Co501 2.055 . S
O509 C513 1.253 . S
H510 C506 0.931 . S
H511 C507 0.930 . S
O512 Co501 2.039 . S
O512 C502 1.265 . S
C513 O509 1.253 . S
C513 O514 1.227 . S
O514 C513 1.227 . S
N515 Co501 2.140 1_565 S
N515 C518 1.346 . S
N515 C519 1.345 . S
C516 C517 1.387 . S
C516 C520 1.391 . S
C517 C516 1.387 . S
C517 C518 1.369 . S
C517 H526 0.929 . S
C518 N515 1.346 . S
C518 C517 1.369 . S
C518 H521 0.928 . S
C519 N515 1.345 . S
C519 C520 1.371 . S
C519 H522 0.931 1_565 S
C520 C516 1.391 . S
C520 C519 1.371 . S
C520 H527 0.930 . S
H521 C518 0.928 . S
H522 C519 0.931 1_545 S
H523 C499 0.930 1_565 S
H524 C496 0.925 1_565 S
H525 C505 0.930 . S
H526 C517 0.929 . S
H527 C520 0.930 . S
C528 C529 1.351 . S
C528 N531 1.368 . S
C528 H533 0.931 . S
C529 C528 1.351 . S
C529 N530 1.373 . S
C529 H557 0.930 . S
N530 C529 1.373 . S
N530 C532 1.340 . S
N531 C528 1.368 . S
N531 C532 1.321 . S
N531 Co534 2.135 . S
C532 N530 1.340 . S
C532 N531 1.321 . S
C532 H556 0.930 . S
H533 C528 0.931 . S
Co534 N531 2.135 . S
Co534 N537 2.121 1_554 S
Co534 O542 2.055 . S
Co534 O545 2.039 . S
Co534 N548 2.140 . S
C535 O536 1.227 . S
C535 O545 1.265 . S
O536 C535 1.227 . S
N537 Co534 2.121 1_556 S
N537 C539 1.375 . S
N537 C540 1.313 . S
C538 C539 1.338 . S
C538 N541 1.377 . S
C538 H558 0.930 . S
C539 N537 1.375 . S
C539 C538 1.338 . S
C539 H543 0.931 . S
C540 N537 1.313 . S
C540 N541 1.344 . S
C540 H544 0.930 . S
N541 C538 1.377 . S
N541 C540 1.344 . S
O542 Co534 2.055 . S
O542 C546 1.253 . S
H543 C539 0.931 . S
H544 C540 0.930 . S
O545 Co534 2.039 . S
O545 C535 1.265 . S
C546 O542 1.253 . S
C546 O547 1.227 . S
O547 C546 1.227 . S
N548 Co534 2.140 . S
N548 C551 1.346 . S
N548 C552 1.345 . S
C549 C550 1.387 . S
C549 C553 1.391 . S
C550 C549 1.387 . S
C550 C551 1.369 . S
C550 H559 0.929 . S
C551 N548 1.346 . S
C551 C550 1.369 . S
C551 H554 0.928 . S
C552 N548 1.345 . S
C552 C553 1.371 . S
C552 H555 0.931 . S
C553 C549 1.391 . S
C553 C552 1.371 . S
C553 H560 0.930 1_554 S
H554 C551 0.928 . S
H555 C552 0.931 . S
H556 C532 0.930 . S
H557 C529 0.930 . S
H558 C538 0.930 . S
H559 C550 0.929 . S
H560 C553 0.930 1_556 S
C561 C562 1.351 . S
C561 N564 1.368 . S
C561 H566 0.931 . S
C562 C561 1.351 . S
C562 N563 1.373 . S
C562 H590 0.930 . S
N563 C562 1.373 . S
N563 C565 1.340 . S
N564 C561 1.368 . S
N564 C565 1.321 . S
N564 Co567 2.135 . S
C565 N563 1.340 . S
C565 N564 1.321 . S
C565 H589 0.930 . S
H566 C561 0.931 . S
Co567 N564 2.135 . S
Co567 N570 2.121 . S
Co567 O575 2.055 . S
Co567 O578 2.039 . S
Co567 N581 2.140 . S
C568 O569 1.227 . S
C568 O578 1.265 . S
O569 C568 1.227 . S
N570 Co567 2.121 . S
N570 C572 1.375 . S
N570 C573 1.313 . S
C571 C572 1.338 . S
C571 N574 1.377 . S
C571 H591 0.930 . S
C572 N570 1.375 . S
C572 C571 1.338 . S
C572 H576 0.931 . S
C573 N570 1.313 . S
C573 N574 1.344 . S
C573 H577 0.930 . S
N574 C571 1.377 . S
N574 C573 1.344 . S
O575 Co567 2.055 . S
O575 C579 1.253 . S
H576 C572 0.931 . S
H577 C573 0.930 . S
O578 Co567 2.039 . S
O578 C568 1.265 . S
C579 O575 1.253 . S
C579 O580 1.227 . S
O580 C579 1.227 . S
N581 Co567 2.140 . S
N581 C584 1.346 . S
N581 C585 1.345 . S
C582 C583 1.387 . S
C582 C586 1.391 . S
C583 C582 1.387 . S
C583 C584 1.369 . S
C583 H592 0.929 . S
C584 N581 1.346 . S
C584 C583 1.369 . S
C584 H587 0.928 . S
C585 N581 1.345 . S
C585 C586 1.371 . S
C585 H588 0.931 . S
C586 C582 1.391 . S
C586 C585 1.371 . S
C586 H593 0.930 . S
H587 C584 0.928 . S
H588 C585 0.931 . S
H589 C565 0.930 . S
H590 C562 0.930 . S
H591 C571 0.930 . S
H592 C583 0.929 . S
H593 C586 0.930 . S
C594 C595 1.351 . S
C594 N597 1.368 . S
C594 H599 0.931 . S
C595 C594 1.351 . S
C595 N596 1.373 1_655 S
C595 H623 0.930 1_655 S
N596 C595 1.373 1_455 S
N596 C598 1.340 1_455 S
N597 C594 1.368 . S
N597 C598 1.321 . S
N597 Co600 2.135 . S
C598 N596 1.340 1_655 S
C598 N597 1.321 . S
C598 H622 0.930 1_655 S
H599 C594 0.931 . S
Co600 N597 2.135 . S
Co600 N603 2.121 . S
Co600 O608 2.055 . S
Co600 O611 2.039 . S
Co600 N614 2.140 1_655 S
C601 O602 1.227 1_655 S
C601 O611 1.265 . S
O602 C601 1.227 1_455 S
N603 Co600 2.121 . S
N603 C605 1.375 . S
N603 C606 1.313 . S
C604 C605 1.338 . S
C604 N607 1.377 . S
C604 H624 0.930 . S
C605 N603 1.375 . S
C605 C604 1.338 . S
C605 H609 0.931 . S
C606 N603 1.313 . S
C606 N607 1.344 . S
C606 H610 0.930 . S
N607 C604 1.377 . S
N607 C606 1.344 . S
O608 Co600 2.055 . S
O608 C612 1.253 . S
H609 C605 0.931 . S
H610 C606 0.930 . S
O611 Co600 2.039 . S
O611 C601 1.265 . S
C612 O608 1.253 . S
C612 O613 1.227 . S
O613 C612 1.227 . S
N614 Co600 2.140 1_455 S
N614 C617 1.346 . S
N614 C618 1.345 . S
C615 C616 1.387 . S
C615 C619 1.391 . S
C616 C615 1.387 . S
C616 C617 1.369 . S
C616 H625 0.929 . S
C617 N614 1.346 . S
C617 C616 1.369 . S
C617 H620 0.928 . S
C618 N614 1.345 . S
C618 C619 1.371 . S
C618 H621 0.931 1_455 S
C619 C615 1.391 . S
C619 C618 1.371 . S
C619 H626 0.930 . S
H620 C617 0.928 . S
H621 C618 0.931 1_655 S
H622 C598 0.930 1_455 S
H623 C595 0.930 1_455 S
H624 C604 0.930 . S
H625 C616 0.929 . S
H626 C619 0.930 . S
C627 C628 1.351 . S
C627 N630 1.368 . S
C627 H632 0.931 . S
C628 C627 1.351 . S
C628 N629 1.373 . S
C628 H656 0.930 . S
N629 C628 1.373 . S
N629 C631 1.340 . S
N630 C627 1.368 . S
N630 C631 1.321 . S
N630 Co633 2.135 . S
C631 N629 1.340 . S
C631 N630 1.321 . S
C631 H655 0.930 . S
H632 C627 0.931 . S
Co633 N630 2.135 . S
Co633 N636 2.121 . S
Co633 O641 2.055 . S
Co633 O644 2.039 . S
Co633 N647 2.140 . S
C634 O635 1.227 . S
C634 O644 1.265 . S
O635 C634 1.227 . S
N636 Co633 2.121 . S
N636 C638 1.375 . S
N636 C639 1.313 . S
C637 C638 1.338 . S
C637 N640 1.377 . S
C637 H657 0.930 . S
C638 N636 1.375 . S
C638 C637 1.338 . S
C638 H642 0.931 . S
C639 N636 1.313 . S
C639 N640 1.344 . S
C639 H643 0.930 . S
N640 C637 1.377 . S
N640 C639 1.344 . S
O641 Co633 2.055 . S
O641 C645 1.253 . S
H642 C638 0.931 . S
H643 C639 0.930 . S
O644 Co633 2.039 . S
O644 C634 1.265 . S
C645 O641 1.253 . S
C645 O646 1.227 . S
O646 C645 1.227 . S
N647 Co633 2.140 . S
N647 C650 1.346 . S
N647 C651 1.345 . S
C648 C649 1.387 . S
C648 C652 1.391 . S
C649 C648 1.387 . S
C649 C650 1.369 . S
C649 H658 0.929 . S
C650 N647 1.346 . S
C650 C649 1.369 . S
C650 H653 0.928 . S
C651 N647 1.345 . S
C651 C652 1.371 . S
C651 H654 0.931 . S
C652 C648 1.391 . S
C652 C651 1.371 . S
C652 H659 0.930 . S
H653 C650 0.928 . S
H654 C651 0.931 . S
H655 C631 0.930 . S
H656 C628 0.930 . S
H657 C637 0.930 . S
H658 C649 0.929 . S
H659 C652 0.930 . S
C660 C661 1.351 . S
C660 N663 1.368 . S
C660 H665 0.931 . S
C661 C660 1.351 . S
C661 N662 1.373 . S
C661 H689 0.930 . S
N662 C661 1.373 . S
N662 C664 1.340 . S
N663 C660 1.368 . S
N663 C664 1.321 . S
N663 Co666 2.135 . S
C664 N662 1.340 . S
C664 N663 1.321 . S
C664 H688 0.930 . S
H665 C660 0.931 . S
Co666 N663 2.135 . S
Co666 N669 2.121 . S
Co666 O674 2.055 . S
Co666 O677 2.039 . S
Co666 N680 2.140 . S
C667 O668 1.227 . S
C667 O677 1.265 . S
O668 C667 1.227 . S
N669 Co666 2.121 . S
N669 C671 1.375 . S
N669 C672 1.313 . S
C670 C671 1.338 . S
C670 N673 1.377 . S
C670 H690 0.930 . S
C671 N669 1.375 . S
C671 C670 1.338 . S
C671 H675 0.931 . S
C672 N669 1.313 . S
C672 N673 1.344 . S
C672 H676 0.930 . S
N673 C670 1.377 . S
N673 C672 1.344 . S
O674 Co666 2.055 . S
O674 C678 1.253 . S
H675 C671 0.931 . S
H676 C672 0.930 . S
O677 Co666 2.039 . S
O677 C667 1.265 . S
C678 O674 1.253 . S
C678 O679 1.227 . S
O679 C678 1.227 . S
N680 Co666 2.140 . S
N680 C683 1.346 . S
N680 C684 1.345 . S
C681 C682 1.387 . S
C681 C685 1.391 . S
C682 C681 1.387 . S
C682 C683 1.369 . S
C682 H691 0.929 . S
C683 N680 1.346 . S
C683 C682 1.369 . S
C683 H686 0.928 . S
C684 N680 1.345 . S
C684 C685 1.371 . S
C684 H687 0.931 . S
C685 C681 1.391 . S
C685 C684 1.371 . S
C685 H692 0.930 . S
H686 C683 0.928 . S
H687 C684 0.931 . S
H688 C664 0.930 . S
H689 C661 0.930 . S
H690 C670 0.930 . S
H691 C682 0.929 . S
H692 C685 0.930 . S
C693 C694 1.351 . S
C693 N696 1.368 . S
C693 H698 0.931 . S
C694 C693 1.351 . S
C694 N695 1.373 . S
C694 H722 0.930 . S
N695 C694 1.373 . S
N695 C697 1.340 . S
N696 C693 1.368 . S
N696 C697 1.321 . S
N696 Co699 2.135 . S
C697 N695 1.340 . S
C697 N696 1.321 . S
C697 H721 0.930 . S
H698 C693 0.931 . S
Co699 N696 2.135 . S
Co699 N702 2.121 . S
Co699 O707 2.055 . S
Co699 O710 2.039 . S
Co699 N713 2.140 . S
C700 O701 1.227 . S
C700 O710 1.265 . S
O701 C700 1.227 . S
N702 Co699 2.121 . S
N702 C704 1.375 . S
N702 C705 1.313 . S
C703 C704 1.338 . S
C703 N706 1.377 . S
C703 H723 0.930 . S
C704 N702 1.375 . S
C704 C703 1.338 . S
C704 H708 0.931 . S
C705 N702 1.313 . S
C705 N706 1.344 . S
C705 H709 0.930 . S
N706 C703 1.377 . S
N706 C705 1.344 . S
O707 Co699 2.055 . S
O707 C711 1.253 . S
H708 C704 0.931 . S
H709 C705 0.930 . S
O710 Co699 2.039 . S
O710 C700 1.265 . S
C711 O707 1.253 . S
C711 O712 1.227 . S
O712 C711 1.227 . S
N713 Co699 2.140 . S
N713 C716 1.346 . S
N713 C717 1.345 . S
C714 C715 1.387 . S
C714 C718 1.391 . S
C715 C714 1.387 . S
C715 C716 1.369 . S
C715 H724 0.929 . S
C716 N713 1.346 . S
C716 C715 1.369 . S
C716 H719 0.928 . S
C717 N713 1.345 . S
C717 C718 1.371 . S
C717 H720 0.931 . S
C718 C714 1.391 . S
C718 C717 1.371 . S
C718 H725 0.930 . S
H719 C716 0.928 . S
H720 C717 0.931 . S
H721 C697 0.930 . S
H722 C694 0.930 . S
H723 C703 0.930 . S
H724 C715 0.929 . S
H725 C718 0.930 . S
C726 C727 1.351 . S
C726 N729 1.368 . S
C726 H731 0.931 . S
C727 C726 1.351 . S
C727 N728 1.373 1_655 S
C727 H755 0.930 1_655 S
N728 C727 1.373 1_455 S
N728 C730 1.340 1_455 S
N729 C726 1.368 . S
N729 C730 1.321 . S
N729 Co732 2.135 . S
C730 N728 1.340 1_655 S
C730 N729 1.321 . S
C730 H754 0.930 1_655 S
H731 C726 0.931 . S
Co732 N729 2.135 . S
Co732 N735 2.121 . S
Co732 O740 2.055 . S
Co732 O743 2.039 . S
Co732 N746 2.140 1_655 S
C733 O734 1.227 1_655 S
C733 O743 1.265 . S
O734 C733 1.227 1_455 S
N735 Co732 2.121 . S
N735 C737 1.375 . S
N735 C738 1.313 . S
C736 C737 1.338 . S
C736 N739 1.377 . S
C736 H756 0.930 . S
C737 N735 1.375 . S
C737 C736 1.338 . S
C737 H741 0.931 . S
C738 N735 1.313 . S
C738 N739 1.344 . S
C738 H742 0.930 . S
N739 C736 1.377 . S
N739 C738 1.344 . S
O740 Co732 2.055 . S
O740 C744 1.253 . S
H741 C737 0.931 . S
H742 C738 0.930 . S
O743 Co732 2.039 . S
O743 C733 1.265 . S
C744 O740 1.253 . S
C744 O745 1.227 . S
O745 C744 1.227 . S
N746 Co732 2.140 1_455 S
N746 C749 1.346 . S
N746 C750 1.345 . S
C747 C748 1.387 . S
C747 C751 1.391 . S
C748 C747 1.387 . S
C748 C749 1.369 . S
C748 H757 0.929 . S
C749 N746 1.346 . S
C749 C748 1.369 . S
C749 H752 0.928 . S
C750 N746 1.345 . S
C750 C751 1.371 . S
C750 H753 0.931 1_455 S
C751 C747 1.391 . S
C751 C750 1.371 . S
C751 H758 0.930 . S
H752 C749 0.928 . S
H753 C750 0.931 1_655 S
H754 C730 0.930 1_455 S
H755 C727 0.930 1_455 S
H756 C736 0.930 . S
H757 C748 0.929 . S
H758 C751 0.930 . S
C759 C760 1.351 . S
C759 N762 1.368 . S
C759 H764 0.931 . S
C760 C759 1.351 . S
C760 N761 1.373 1_455 S
C760 H788 0.925 1_455 S
N761 C760 1.373 1_655 S
N761 C763 1.340 1_655 S
N762 C759 1.368 . S
N762 C763 1.321 . S
N762 Co765 2.135 . S
C763 N761 1.340 1_455 S
C763 N762 1.321 . S
C763 H787 0.930 1_455 S
H764 C759 0.931 . S
Co765 N762 2.135 . S
Co765 N768 2.121 . S
Co765 O773 2.055 . S
Co765 O776 2.039 . S
Co765 N779 2.140 1_455 S
C766 O767 1.227 1_455 S
C766 O776 1.265 . S
O767 C766 1.227 1_655 S
N768 Co765 2.121 . S
N768 C770 1.375 . S
N768 C771 1.313 . S
C769 C770 1.338 . S
C769 N772 1.377 . S
C769 H789 0.930 . S
C770 N768 1.375 . S
C770 C769 1.338 . S
C770 H774 0.931 . S
C771 N768 1.313 . S
C771 N772 1.344 . S
C771 H775 0.930 . S
N772 C769 1.377 . S
N772 C771 1.344 . S
O773 Co765 2.055 . S
O773 C777 1.253 . S
H774 C770 0.931 . S
H775 C771 0.930 . S
O776 Co765 2.039 . S
O776 C766 1.265 . S
C777 O773 1.253 . S
C777 O778 1.227 . S
O778 C777 1.227 . S
N779 Co765 2.140 1_655 S
N779 C782 1.346 . S
N779 C783 1.345 . S
C780 C781 1.387 . S
C780 C784 1.391 . S
C781 C780 1.387 . S
C781 C782 1.369 . S
C781 H790 0.929 . S
C782 N779 1.346 . S
C782 C781 1.369 . S
C782 H785 0.928 . S
C783 N779 1.345 . S
C783 C784 1.371 . S
C783 H786 0.931 1_655 S
C784 C780 1.391 . S
C784 C783 1.371 . S
C784 H791 0.930 . S
H785 C782 0.928 . S
H786 C783 0.931 1_455 S
H787 C763 0.930 1_655 S
H788 C760 0.925 1_655 S
H789 C769 0.930 . S
H790 C781 0.929 . S
H791 C784 0.930 . S
C792 C793 1.351 . S
C792 N795 1.368 . S
C792 H797 0.931 . S
C793 C792 1.351 . S
C793 N794 1.373 . S
C793 H821 0.930 . S
N794 C793 1.373 . S
N794 C796 1.340 . S
N795 C792 1.368 . S
N795 C796 1.321 . S
N795 Co798 2.135 . S
C796 N794 1.340 . S
C796 N795 1.321 . S
C796 H820 0.930 . S
H797 C792 0.931 . S
Co798 N795 2.135 . S
Co798 N801 2.121 . S
Co798 O806 2.055 . S
Co798 O809 2.039 . S
Co798 N812 2.140 . S
C799 O800 1.227 . S
C799 O809 1.265 . S
O800 C799 1.227 . S
N801 Co798 2.121 . S
N801 C803 1.375 . S
N801 C804 1.313 . S
C802 C803 1.338 . S
C802 N805 1.377 . S
C802 H822 0.930 . S
C803 N801 1.375 . S
C803 C802 1.338 . S
C803 H807 0.931 . S
C804 N801 1.313 . S
C804 N805 1.344 . S
C804 H808 0.930 . S
N805 C802 1.377 . S
N805 C804 1.344 . S
O806 Co798 2.055 . S
O806 C810 1.253 . S
H807 C803 0.931 . S
H808 C804 0.930 . S
O809 Co798 2.039 . S
O809 C799 1.265 . S
C810 O806 1.253 . S
C810 O811 1.227 . S
O811 C810 1.227 . S
N812 Co798 2.140 . S
N812 C815 1.346 . S
N812 C816 1.345 . S
C813 C814 1.387 . S
C813 C817 1.391 . S
C814 C813 1.387 . S
C814 C815 1.369 . S
C814 H823 0.929 . S
C815 N812 1.346 . S
C815 C814 1.369 . S
C815 H818 0.928 . S
C816 N812 1.345 . S
C816 C817 1.371 . S
C816 H819 0.931 . S
C817 C813 1.391 . S
C817 C816 1.371 . S
C817 H824 0.930 . S
H818 C815 0.928 . S
H819 C816 0.931 . S
H820 C796 0.930 . S
H821 C793 0.930 . S
H822 C802 0.930 . S
H823 C814 0.929 . S
H824 C817 0.930 . S
C825 C826 1.351 . S
C825 N828 1.368 . S
C825 H830 0.931 . S
C826 C825 1.351 . S
C826 N827 1.373 . S
C826 H854 0.930 . S
N827 C826 1.373 . S
N827 C829 1.340 . S
N828 C825 1.368 . S
N828 C829 1.321 . S
N828 Co831 2.135 . S
C829 N827 1.340 . S
C829 N828 1.321 . S
C829 H853 0.930 . S
H830 C825 0.931 . S
Co831 N828 2.135 . S
Co831 N834 2.121 . S
Co831 O839 2.055 . S
Co831 O842 2.039 . S
Co831 N845 2.140 . S
C832 O833 1.227 . S
C832 O842 1.265 . S
O833 C832 1.227 . S
N834 Co831 2.121 . S
N834 C836 1.375 . S
N834 C837 1.313 . S
C835 C836 1.338 . S
C835 N838 1.377 . S
C835 H855 0.930 . S
C836 N834 1.375 . S
C836 C835 1.338 . S
C836 H840 0.931 . S
C837 N834 1.313 . S
C837 N838 1.344 . S
C837 H841 0.930 . S
N838 C835 1.377 . S
N838 C837 1.344 . S
O839 Co831 2.055 . S
O839 C843 1.253 . S
H840 C836 0.931 . S
H841 C837 0.930 . S
O842 Co831 2.039 . S
O842 C832 1.265 . S
C843 O839 1.253 . S
C843 O844 1.227 . S
O844 C843 1.227 . S
N845 Co831 2.140 . S
N845 C848 1.346 . S
N845 C849 1.345 . S
C846 C847 1.387 . S
C846 C850 1.391 . S
C847 C846 1.387 . S
C847 C848 1.369 . S
C847 H856 0.929 . S
C848 N845 1.346 . S
C848 C847 1.369 . S
C848 H851 0.928 . S
C849 N845 1.345 . S
C849 C850 1.371 . S
C849 H852 0.931 . S
C850 C846 1.391 . S
C850 C849 1.371 . S
C850 H857 0.930 . S
H851 C848 0.928 . S
H852 C849 0.931 . S
H853 C829 0.930 . S
H854 C826 0.930 . S
H855 C835 0.930 . S
H856 C847 0.929 . S
H857 C850 0.930 . S
C858 C859 1.351 . S
C858 N861 1.368 . S
C858 H863 0.931 . S
C859 C858 1.351 . S
C859 N860 1.373 . S
C859 H887 0.930 . S
N860 C859 1.373 . S
N860 C862 1.340 . S
N861 C858 1.368 . S
N861 C862 1.321 . S
N861 Co864 2.135 . S
C862 N860 1.340 . S
C862 N861 1.321 . S
C862 H886 0.930 . S
H863 C858 0.931 . S
Co864 N861 2.135 . S
Co864 N867 2.121 . S
Co864 O872 2.055 . S
Co864 O875 2.039 . S
Co864 N878 2.140 . S
C865 O866 1.227 . S
C865 O875 1.265 . S
O866 C865 1.227 . S
N867 Co864 2.121 . S
N867 C869 1.375 . S
N867 C870 1.313 . S
C868 C869 1.338 . S
C868 N871 1.377 . S
C868 H888 0.930 . S
C869 N867 1.375 . S
C869 C868 1.338 . S
C869 H873 0.931 . S
C870 N867 1.313 . S
C870 N871 1.344 . S
C870 H874 0.930 . S
N871 C868 1.377 . S
N871 C870 1.344 . S
O872 Co864 2.055 . S
O872 C876 1.253 . S
H873 C869 0.931 . S
H874 C870 0.930 . S
O875 Co864 2.039 . S
O875 C865 1.265 . S
C876 O872 1.253 . S
C876 O877 1.227 . S
O877 C876 1.227 . S
N878 Co864 2.140 . S
N878 C881 1.346 . S
N878 C882 1.345 . S
C879 C880 1.387 . S
C879 C883 1.391 . S
C880 C879 1.387 . S
C880 C881 1.369 . S
C880 H889 0.929 . S
C881 N878 1.346 . S
C881 C880 1.369 . S
C881 H884 0.928 . S
C882 N878 1.345 . S
C882 C883 1.371 . S
C882 H885 0.931 . S
C883 C879 1.391 . S
C883 C882 1.371 . S
C883 H890 0.930 . S
H884 C881 0.928 . S
H885 C882 0.931 . S
H886 C862 0.930 . S
H887 C859 0.930 . S
H888 C868 0.930 . S
H889 C880 0.929 . S
H890 C883 0.930 . S
C891 C892 1.351 . S
C891 N894 1.368 . S
C891 H896 0.931 . S
C892 C891 1.351 . S
C892 N893 1.373 . S
C892 H920 0.930 . S
N893 C892 1.373 . S
N893 C895 1.340 . S
N894 C891 1.368 . S
N894 C895 1.321 . S
N894 Co897 2.135 . S
C895 N893 1.340 . S
C895 N894 1.321 . S
C895 H919 0.930 . S
H896 C891 0.931 . S
Co897 N894 2.135 . S
Co897 N900 2.121 . S
Co897 O905 2.055 . S
Co897 O908 2.039 . S
Co897 N911 2.140 . S
C898 O899 1.227 . S
C898 O908 1.265 . S
O899 C898 1.227 . S
N900 Co897 2.121 . S
N900 C902 1.375 . S
N900 C903 1.313 . S
C901 C902 1.338 . S
C901 N904 1.377 . S
C901 H921 0.930 . S
C902 N900 1.375 . S
C902 C901 1.338 . S
C902 H906 0.931 . S
C903 N900 1.313 . S
C903 N904 1.344 . S
C903 H907 0.930 . S
N904 C901 1.377 . S
N904 C903 1.344 . S
O905 Co897 2.055 . S
O905 C909 1.253 . S
H906 C902 0.931 . S
H907 C903 0.930 . S
O908 Co897 2.039 . S
O908 C898 1.265 . S
C909 O905 1.253 . S
C909 O910 1.227 . S
O910 C909 1.227 . S
N911 Co897 2.140 . S
N911 C914 1.346 . S
N911 C915 1.345 . S
C912 C913 1.387 . S
C912 C916 1.391 . S
C913 C912 1.387 . S
C913 C914 1.369 . S
C913 H922 0.929 . S
C914 N911 1.346 . S
C914 C913 1.369 . S
C914 H917 0.928 . S
C915 N911 1.345 . S
C915 C916 1.371 . S
C915 H918 0.931 . S
C916 C912 1.391 . S
C916 C915 1.371 . S
C916 H923 0.930 . S
H917 C914 0.928 . S
H918 C915 0.931 . S
H919 C895 0.930 . S
H920 C892 0.930 . S
H921 C901 0.930 . S
H922 C913 0.929 . S
H923 C916 0.930 . S
C924 C925 1.351 . S
C924 N927 1.368 . S
C924 H929 0.931 . S
C925 C924 1.351 . S
C925 N926 1.373 . S
C925 H953 0.930 . S
N926 C925 1.373 . S
N926 C928 1.340 . S
N927 C924 1.368 . S
N927 C928 1.321 . S
N927 Co930 2.135 . S
C928 N926 1.340 . S
C928 N927 1.321 . S
C928 H952 0.930 . S
H929 C924 0.931 . S
Co930 N927 2.135 . S
Co930 N933 2.121 . S
Co930 O938 2.055 . S
Co930 O941 2.039 . S
Co930 N944 2.140 . S
C931 O932 1.227 . S
C931 O941 1.265 . S
O932 C931 1.227 . S
N933 Co930 2.121 . S
N933 C935 1.375 . S
N933 C936 1.313 . S
C934 C935 1.338 . S
C934 N937 1.377 . S
C934 H954 0.930 . S
C935 N933 1.375 . S
C935 C934 1.338 . S
C935 H939 0.931 . S
C936 N933 1.313 . S
C936 N937 1.344 . S
C936 H940 0.930 . S
N937 C934 1.377 . S
N937 C936 1.344 . S
O938 Co930 2.055 . S
O938 C942 1.253 . S
H939 C935 0.931 . S
H940 C936 0.930 . S
O941 Co930 2.039 . S
O941 C931 1.265 . S
C942 O938 1.253 . S
C942 O943 1.227 . S
O943 C942 1.227 . S
N944 Co930 2.140 . S
N944 C947 1.346 . S
N944 C948 1.345 . S
C945 C946 1.387 . S
C945 C949 1.391 . S
C946 C945 1.387 . S
C946 C947 1.369 . S
C946 H955 0.929 . S
C947 N944 1.346 . S
C947 C946 1.369 . S
C947 H950 0.928 . S
C948 N944 1.345 . S
C948 C949 1.371 . S
C948 H951 0.931 . S
C949 C945 1.391 . S
C949 C948 1.371 . S
C949 H956 0.930 . S
H950 C947 0.928 . S
H951 C948 0.931 . S
H952 C928 0.930 . S
H953 C925 0.930 . S
H954 C934 0.930 . S
H955 C946 0.929 . S
H956 C949 0.930 . S
C957 C958 1.351 . S
C957 N960 1.368 . S
C957 H962 0.931 . S
C958 C957 1.351 . S
C958 N959 1.373 . S
C958 H986 0.930 . S
N959 C958 1.373 . S
N959 C961 1.340 . S
N960 C957 1.368 . S
N960 C961 1.321 . S
N960 Co963 2.135 . S
C961 N959 1.340 . S
C961 N960 1.321 . S
C961 H985 0.930 . S
H962 C957 0.931 . S
Co963 N960 2.135 . S
Co963 N966 2.121 . S
Co963 O971 2.055 . S
Co963 O974 2.039 . S
Co963 N977 2.140 . S
C964 O965 1.227 . S
C964 O974 1.265 . S
O965 C964 1.227 . S
N966 Co963 2.121 . S
N966 C968 1.375 . S
N966 C969 1.313 . S
C967 C968 1.338 . S
C967 N970 1.377 . S
C967 H987 0.930 . S
C968 N966 1.375 . S
C968 C967 1.338 . S
C968 H972 0.931 . S
C969 N966 1.313 . S
C969 N970 1.344 . S
C969 H973 0.930 . S
N970 C967 1.377 . S
N970 C969 1.344 . S
O971 Co963 2.055 . S
O971 C975 1.253 . S
H972 C968 0.931 . S
H973 C969 0.930 . S
O974 Co963 2.039 . S
O974 C964 1.265 . S
C975 O971 1.253 . S
C975 O976 1.227 . S
O976 C975 1.227 . S
N977 Co963 2.140 . S
N977 C980 1.346 . S
N977 C981 1.345 . S
C978 C979 1.387 . S
C978 C982 1.391 . S
C979 C978 1.387 . S
C979 C980 1.369 . S
C979 H988 0.929 . S
C980 N977 1.346 . S
C980 C979 1.369 . S
C980 H983 0.928 . S
C981 N977 1.345 . S
C981 C982 1.371 . S
C981 H984 0.931 . S
C982 C978 1.391 . S
C982 C981 1.371 . S
C982 H989 0.930 . S
H983 C980 0.928 . S
H984 C981 0.931 . S
H985 C961 0.930 . S
H986 C958 0.930 . S
H987 C967 0.930 . S
H988 C979 0.929 . S
H989 C982 0.930 . S
C990 C991 1.351 . S
C990 N993 1.368 . S
C990 H995 0.931 . S
C991 C990 1.351 . S
C991 N992 1.373 . S
C991 H1019 0.930 . S
N992 C991 1.373 . S
N992 C994 1.340 . S
N993 C990 1.368 . S
N993 C994 1.321 . S
N993 Co996 2.135 . S
C994 N992 1.340 . S
C994 N993 1.321 . S
C994 H1018 0.930 . S
H995 C990 0.931 . S
Co996 N993 2.135 . S
Co996 N999 2.121 . S
Co996 O1004 2.055 . S
Co996 O1007 2.039 . S
Co996 N1010 2.140 . S
C997 O998 1.227 . S
C997 O1007 1.265 . S
O998 C997 1.227 . S
N999 Co996 2.121 . S
N999 C1001 1.375 . S
N999 C1002 1.313 . S
C1000 C1001 1.338 . S
C1000 N1003 1.377 . S
C1000 H1020 0.930 . S
C1001 N999 1.375 . S
C1001 C1000 1.338 . S
C1001 H1005 0.931 . S
C1002 N999 1.313 . S
C1002 N1003 1.344 . S
C1002 H1006 0.930 . S
N1003 C1000 1.377 . S
N1003 C1002 1.344 . S
O1004 Co996 2.055 . S
O1004 C1008 1.253 . S
H1005 C1001 0.931 . S
H1006 C1002 0.930 . S
O1007 Co996 2.039 . S
O1007 C997 1.265 . S
C1008 O1004 1.253 . S
C1008 O1009 1.227 . S
O1009 C1008 1.227 . S
N1010 Co996 2.140 . S
N1010 C1013 1.346 . S
N1010 C1014 1.345 . S
C1011 C1012 1.387 . S
C1011 C1015 1.391 . S
C1012 C1011 1.387 . S
C1012 C1013 1.369 . S
C1012 H1021 0.929 . S
C1013 N1010 1.346 . S
C1013 C1012 1.369 . S
C1013 H1016 0.928 . S
C1014 N1010 1.345 . S
C1014 C1015 1.371 . S
C1014 H1017 0.931 . S
C1015 C1011 1.391 . S
C1015 C1014 1.371 . S
C1015 H1022 0.930 . S
H1016 C1013 0.928 . S
H1017 C1014 0.931 . S
H1018 C994 0.930 . S
H1019 C991 0.930 . S
H1020 C1000 0.930 . S
H1021 C1012 0.929 . S
H1022 C1015 0.930 . S
C1023 C1024 1.351 . S
C1023 N1026 1.368 . S
C1023 H1028 0.931 . S
C1024 C1023 1.351 . S
C1024 N1025 1.373 . S
C1024 H1052 0.930 . S
N1025 C1024 1.373 . S
N1025 C1027 1.340 . S
N1026 C1023 1.368 . S
N1026 C1027 1.321 . S
N1026 Co1029 2.135 . S
C1027 N1025 1.340 . S
C1027 N1026 1.321 . S
C1027 H1051 0.930 . S
H1028 C1023 0.931 . S
Co1029 N1026 2.135 . S
Co1029 N1032 2.121 . S
Co1029 O1037 2.055 . S
Co1029 O1040 2.039 . S
Co1029 N1043 2.140 . S
C1030 O1031 1.227 . S
C1030 O1040 1.265 . S
O1031 C1030 1.227 . S
N1032 Co1029 2.121 . S
N1032 C1034 1.375 . S
N1032 C1035 1.313 . S
C1033 C1034 1.338 . S
C1033 N1036 1.377 . S
C1033 H1053 0.930 . S
C1034 N1032 1.375 . S
C1034 C1033 1.338 . S
C1034 H1038 0.931 . S
C1035 N1032 1.313 . S
C1035 N1036 1.344 . S
C1035 H1039 0.930 . S
N1036 C1033 1.377 . S
N1036 C1035 1.344 . S
O1037 Co1029 2.055 . S
O1037 C1041 1.253 . S
H1038 C1034 0.931 . S
H1039 C1035 0.930 . S
O1040 Co1029 2.039 . S
O1040 C1030 1.265 . S
C1041 O1037 1.253 . S
C1041 O1042 1.227 . S
O1042 C1041 1.227 . S
N1043 Co1029 2.140 . S
N1043 C1046 1.346 . S
N1043 C1047 1.345 . S
C1044 C1045 1.387 . S
C1044 C1048 1.391 . S
C1045 C1044 1.387 . S
C1045 C1046 1.369 . S
C1045 H1054 0.929 . S
C1046 N1043 1.346 . S
C1046 C1045 1.369 . S
C1046 H1049 0.928 . S
C1047 N1043 1.345 . S
C1047 C1048 1.371 . S
C1047 H1050 0.931 . S
C1048 C1044 1.391 . S
C1048 C1047 1.371 . S
C1048 H1055 0.930 . S
H1049 C1046 0.928 . S
H1050 C1047 0.931 . S
H1051 C1027 0.930 . S
H1052 C1024 0.930 . S
H1053 C1033 0.930 . S
H1054 C1045 0.929 . S
H1055 C1048 0.930 . S
C1056 C1057 1.351 . S
C1056 N1059 1.368 . S
C1056 H1061 0.931 . S
C1057 C1056 1.351 . S
C1057 N1058 1.373 . S
C1057 H1085 0.930 . S
N1058 C1057 1.373 . S
N1058 C1060 1.340 . S
N1059 C1056 1.368 . S
N1059 C1060 1.321 . S
N1059 Co1062 2.135 . S
C1060 N1058 1.340 . S
C1060 N1059 1.321 . S
C1060 H1084 0.930 . S
H1061 C1056 0.931 . S
Co1062 N1059 2.135 . S
Co1062 N1065 2.121 . S
Co1062 O1070 2.055 . S
Co1062 O1073 2.039 . S
Co1062 N1076 2.140 . S
C1063 O1064 1.227 . S
C1063 O1073 1.265 . S
O1064 C1063 1.227 . S
N1065 Co1062 2.121 . S
N1065 C1067 1.375 . S
N1065 C1068 1.313 . S
C1066 C1067 1.338 . S
C1066 N1069 1.377 . S
C1066 H1086 0.930 . S
C1067 N1065 1.375 . S
C1067 C1066 1.338 . S
C1067 H1071 0.931 . S
C1068 N1065 1.313 . S
C1068 N1069 1.344 . S
C1068 H1072 0.930 . S
N1069 C1066 1.377 . S
N1069 C1068 1.344 . S
O1070 Co1062 2.055 . S
O1070 C1074 1.253 . S
H1071 C1067 0.931 . S
H1072 C1068 0.930 . S
O1073 Co1062 2.039 . S
O1073 C1063 1.265 . S
C1074 O1070 1.253 . S
C1074 O1075 1.227 . S
O1075 C1074 1.227 . S
N1076 Co1062 2.140 . S
N1076 C1079 1.346 . S
N1076 C1080 1.345 . S
C1077 C1078 1.387 . S
C1077 C1081 1.391 . S
C1078 C1077 1.387 . S
C1078 C1079 1.369 . S
C1078 H1087 0.929 . S
C1079 N1076 1.346 . S
C1079 C1078 1.369 . S
C1079 H1082 0.928 . S
C1080 N1076 1.345 . S
C1080 C1081 1.371 . S
C1080 H1083 0.931 . S
C1081 C1077 1.391 . S
C1081 C1080 1.371 . S
C1081 H1088 0.930 . S
H1082 C1079 0.928 . S
H1083 C1080 0.931 . S
H1084 C1060 0.930 . S
H1085 C1057 0.930 . S
H1086 C1066 0.930 . S
H1087 C1078 0.929 . S
H1088 C1081 0.930 . S
C1089 C1090 1.351 . S
C1089 N1092 1.368 . S
C1089 H1094 0.931 . S
C1090 C1089 1.351 . S
C1090 N1091 1.373 1_565 S
C1090 H1118 0.930 1_565 S
N1091 C1090 1.373 1_545 S
N1091 C1093 1.340 1_545 S
N1092 C1089 1.368 . S
N1092 C1093 1.321 . S
N1092 Co1095 2.135 . S
C1093 N1091 1.340 1_565 S
C1093 N1092 1.321 . S
C1093 H1117 0.930 1_565 S
H1094 C1089 0.931 . S
Co1095 N1092 2.135 . S
Co1095 N1098 2.121 . S
Co1095 O1103 2.055 . S
Co1095 O1106 2.039 . S
Co1095 N1109 2.140 1_565 S
C1096 O1097 1.227 1_565 S
C1096 O1106 1.265 . S
O1097 C1096 1.227 1_545 S
N1098 Co1095 2.121 . S
N1098 C1100 1.375 . S
N1098 C1101 1.313 . S
C1099 C1100 1.338 . S
C1099 N1102 1.377 . S
C1099 H1119 0.930 . S
C1100 N1098 1.375 . S
C1100 C1099 1.338 . S
C1100 H1104 0.931 . S
C1101 N1098 1.313 . S
C1101 N1102 1.344 . S
C1101 H1105 0.930 . S
N1102 C1099 1.377 . S
N1102 C1101 1.344 . S
O1103 Co1095 2.055 . S
O1103 C1107 1.253 . S
H1104 C1100 0.931 . S
H1105 C1101 0.930 . S
O1106 Co1095 2.039 . S
O1106 C1096 1.265 . S
C1107 O1103 1.253 . S
C1107 O1108 1.227 . S
O1108 C1107 1.227 . S
N1109 Co1095 2.140 1_545 S
N1109 C1112 1.346 . S
N1109 C1113 1.345 . S
C1110 C1111 1.387 . S
C1110 C1114 1.391 . S
C1111 C1110 1.387 . S
C1111 C1112 1.369 . S
C1111 H1120 0.929 . S
C1112 N1109 1.346 . S
C1112 C1111 1.369 . S
C1112 H1115 0.928 . S
C1113 N1109 1.345 . S
C1113 C1114 1.371 . S
C1113 H1116 0.931 1_545 S
C1114 C1110 1.391 . S
C1114 C1113 1.371 . S
C1114 H1121 0.930 . S
H1115 C1112 0.928 . S
H1116 C1113 0.931 1_565 S
H1117 C1093 0.930 1_545 S
H1118 C1090 0.930 1_545 S
H1119 C1099 0.930 . S
H1120 C1111 0.929 . S
H1121 C1114 0.930 . S
C1122 C1123 1.351 . S
C1122 N1125 1.368 . S
C1122 H1127 0.931 . S
C1123 C1122 1.351 . S
C1123 N1124 1.373 . S
C1123 H1151 0.930 . S
N1124 C1123 1.373 . S
N1124 C1126 1.340 . S
N1125 C1122 1.368 . S
N1125 C1126 1.321 . S
N1125 Co1128 2.135 . S
C1126 N1124 1.340 . S
C1126 N1125 1.321 . S
C1126 H1150 0.930 . S
H1127 C1122 0.931 . S
Co1128 N1125 2.135 . S
Co1128 N1131 2.121 1_565 S
Co1128 O1136 2.055 . S
Co1128 O1139 2.039 . S
Co1128 N1142 2.140 . S
C1129 O1130 1.227 . S
C1129 O1139 1.265 . S
O1130 C1129 1.227 . S
N1131 Co1128 2.121 1_545 S
N1131 C1133 1.375 . S
N1131 C1134 1.313 . S
C1132 C1133 1.338 . S
C1132 N1135 1.377 . S
C1132 H1152 0.930 . S
C1133 N1131 1.375 . S
C1133 C1132 1.338 . S
C1133 H1137 0.931 . S
C1134 N1131 1.313 . S
C1134 N1135 1.344 . S
C1134 H1138 0.930 . S
N1135 C1132 1.377 . S
N1135 C1134 1.344 . S
O1136 Co1128 2.055 . S
O1136 C1140 1.253 . S
H1137 C1133 0.931 . S
H1138 C1134 0.930 . S
O1139 Co1128 2.039 . S
O1139 C1129 1.265 . S
C1140 O1136 1.253 . S
C1140 O1141 1.227 . S
O1141 C1140 1.227 . S
N1142 Co1128 2.140 . S
N1142 C1145 1.346 . S
N1142 C1146 1.345 . S
C1143 C1144 1.387 . S
C1143 C1147 1.391 . S
C1144 C1143 1.387 . S
C1144 C1145 1.369 . S
C1144 H1153 0.929 . S
C1145 N1142 1.346 . S
C1145 C1144 1.369 . S
C1145 H1148 0.928 . S
C1146 N1142 1.345 . S
C1146 C1147 1.371 . S
C1146 H1149 0.931 . S
C1147 C1143 1.391 . S
C1147 C1146 1.371 . S
C1147 H1154 0.930 1_565 S
H1148 C1145 0.928 . S
H1149 C1146 0.931 . S
H1150 C1126 0.930 . S
H1151 C1123 0.930 . S
H1152 C1132 0.930 . S
H1153 C1144 0.929 . S
H1154 C1147 0.930 1_545 S
C1155 C1156 1.351 . S
C1155 N1158 1.368 . S
C1155 H1160 0.931 . S
C1156 C1155 1.351 . S
C1156 N1157 1.373 . S
C1156 H1184 0.930 . S
N1157 C1156 1.373 . S
N1157 C1159 1.340 . S
N1158 C1155 1.368 . S
N1158 C1159 1.321 . S
N1158 Co1161 2.135 . S
C1159 N1157 1.340 . S
C1159 N1158 1.321 . S
C1159 H1183 0.930 . S
H1160 C1155 0.931 . S
Co1161 N1158 2.135 . S
Co1161 N1164 2.121 . S
Co1161 O1169 2.055 . S
Co1161 O1172 2.039 . S
Co1161 N1175 2.140 . S
C1162 O1163 1.227 . S
C1162 O1172 1.265 . S
O1163 C1162 1.227 . S
N1164 Co1161 2.121 . S
N1164 C1166 1.375 . S
N1164 C1167 1.313 . S
C1165 C1166 1.338 . S
C1165 N1168 1.377 . S
C1165 H1185 0.930 . S
C1166 N1164 1.375 . S
C1166 C1165 1.338 . S
C1166 H1170 0.931 . S
C1167 N1164 1.313 . S
C1167 N1168 1.344 . S
C1167 H1171 0.930 . S
N1168 C1165 1.377 . S
N1168 C1167 1.344 . S
O1169 Co1161 2.055 . S
O1169 C1173 1.253 . S
H1170 C1166 0.931 . S
H1171 C1167 0.930 . S
O1172 Co1161 2.039 . S
O1172 C1162 1.265 . S
C1173 O1169 1.253 . S
C1173 O1174 1.227 . S
O1174 C1173 1.227 . S
N1175 Co1161 2.140 . S
N1175 C1178 1.346 . S
N1175 C1179 1.345 . S
C1176 C1177 1.387 . S
C1176 C1180 1.391 . S
C1177 C1176 1.387 . S
C1177 C1178 1.369 . S
C1177 H1186 0.929 . S
C1178 N1175 1.346 . S
C1178 C1177 1.369 . S
C1178 H1181 0.928 . S
C1179 N1175 1.345 . S
C1179 C1180 1.371 . S
C1179 H1182 0.931 . S
C1180 C1176 1.391 . S
C1180 C1179 1.371 . S
C1180 H1187 0.930 . S
H1181 C1178 0.928 . S
H1182 C1179 0.931 . S
H1183 C1159 0.930 . S
H1184 C1156 0.930 . S
H1185 C1165 0.930 . S
H1186 C1177 0.929 . S
H1187 C1180 0.930 . S
C1188 C1189 1.351 . S
C1188 N1191 1.368 . S
C1188 H1193 0.931 . S
C1189 C1188 1.351 . S
C1189 N1190 1.373 . S
C1189 H1217 0.930 . S
N1190 C1189 1.373 . S
N1190 C1192 1.340 . S
N1191 C1188 1.368 . S
N1191 C1192 1.321 . S
N1191 Co1194 2.135 . S
C1192 N1190 1.340 . S
C1192 N1191 1.321 . S
C1192 H1216 0.930 . S
H1193 C1188 0.931 . S
Co1194 N1191 2.135 . S
Co1194 N1197 2.121 . S
Co1194 O1202 2.055 . S
Co1194 O1205 2.039 . S
Co1194 N1208 2.140 . S
C1195 O1196 1.227 . S
C1195 O1205 1.265 . S
O1196 C1195 1.227 . S
N1197 Co1194 2.121 . S
N1197 C1199 1.375 . S
N1197 C1200 1.313 . S
C1198 C1199 1.338 . S
C1198 N1201 1.377 . S
C1198 H1218 0.930 . S
C1199 N1197 1.375 . S
C1199 C1198 1.338 . S
C1199 H1203 0.931 . S
C1200 N1197 1.313 . S
C1200 N1201 1.344 . S
C1200 H1204 0.930 . S
N1201 C1198 1.377 . S
N1201 C1200 1.344 . S
O1202 Co1194 2.055 . S
O1202 C1206 1.253 . S
H1203 C1199 0.931 . S
H1204 C1200 0.930 . S
O1205 Co1194 2.039 . S
O1205 C1195 1.265 . S
C1206 O1202 1.253 . S
C1206 O1207 1.227 . S
O1207 C1206 1.227 . S
N1208 Co1194 2.140 . S
N1208 C1211 1.346 . S
N1208 C1212 1.345 . S
C1209 C1210 1.387 . S
C1209 C1213 1.391 . S
C1210 C1209 1.387 . S
C1210 C1211 1.369 . S
C1210 H1219 0.929 . S
C1211 N1208 1.346 . S
C1211 C1210 1.369 . S
C1211 H1214 0.928 . S
C1212 N1208 1.345 . S
C1212 C1213 1.371 . S
C1212 H1215 0.931 . S
C1213 C1209 1.391 . S
C1213 C1212 1.371 . S
C1213 H1220 0.930 . S
H1214 C1211 0.928 . S
H1215 C1212 0.931 . S
H1216 C1192 0.930 . S
H1217 C1189 0.930 . S
H1218 C1198 0.930 . S
H1219 C1210 0.929 . S
H1220 C1213 0.930 . S
C1221 C1222 1.351 . S
C1221 N1224 1.368 . S
C1221 H1226 0.931 . S
C1222 C1221 1.351 . S
C1222 N1223 1.373 1_565 S
C1222 H1250 0.930 1_565 S
N1223 C1222 1.373 1_545 S
N1223 C1225 1.340 1_545 S
N1224 C1221 1.368 . S
N1224 C1225 1.321 . S
N1224 Co1227 2.135 . S
C1225 N1223 1.340 1_565 S
C1225 N1224 1.321 . S
C1225 H1249 0.930 1_565 S
H1226 C1221 0.931 . S
Co1227 N1224 2.135 . S
Co1227 N1230 2.121 . S
Co1227 O1235 2.055 . S
Co1227 O1238 2.039 . S
Co1227 N1241 2.140 1_565 S
C1228 O1229 1.227 1_565 S
C1228 O1238 1.265 . S
O1229 C1228 1.227 1_545 S
N1230 Co1227 2.121 . S
N1230 C1232 1.375 . S
N1230 C1233 1.313 . S
C1231 C1232 1.338 . S
C1231 N1234 1.377 . S
C1231 H1251 0.930 . S
C1232 N1230 1.375 . S
C1232 C1231 1.338 . S
C1232 H1236 0.931 . S
C1233 N1230 1.313 . S
C1233 N1234 1.344 . S
C1233 H1237 0.930 . S
N1234 C1231 1.377 . S
N1234 C1233 1.344 . S
O1235 Co1227 2.055 . S
O1235 C1239 1.253 . S
H1236 C1232 0.931 . S
H1237 C1233 0.930 . S
O1238 Co1227 2.039 . S
O1238 C1228 1.265 . S
C1239 O1235 1.253 . S
C1239 O1240 1.227 . S
O1240 C1239 1.227 . S
N1241 Co1227 2.140 1_545 S
N1241 C1244 1.346 . S
N1241 C1245 1.345 . S
C1242 C1243 1.387 . S
C1242 C1246 1.391 . S
C1243 C1242 1.387 . S
C1243 C1244 1.369 . S
C1243 H1252 0.929 . S
C1244 N1241 1.346 . S
C1244 C1243 1.369 . S
C1244 H1247 0.928 . S
C1245 N1241 1.345 . S
C1245 C1246 1.371 . S
C1245 H1248 0.931 1_545 S
C1246 C1242 1.391 . S
C1246 C1245 1.371 . S
C1246 H1253 0.930 . S
H1247 C1244 0.928 . S
H1248 C1245 0.931 1_565 S
H1249 C1225 0.930 1_545 S
H1250 C1222 0.930 1_545 S
H1251 C1231 0.930 . S
H1252 C1243 0.929 . S
H1253 C1246 0.930 . S
C1254 C1255 1.351 . S
C1254 N1257 1.368 . S
C1254 H1259 0.931 . S
C1255 C1254 1.351 . S
C1255 N1256 1.373 . S
C1255 H1283 0.930 . S
N1256 C1255 1.373 . S
N1256 C1258 1.340 . S
N1257 C1254 1.368 . S
N1257 C1258 1.321 . S
N1257 Co1260 2.135 . S
C1258 N1256 1.340 . S
C1258 N1257 1.321 . S
C1258 H1282 0.930 . S
H1259 C1254 0.931 . S
Co1260 N1257 2.135 . S
Co1260 N1263 2.121 1_545 S
Co1260 O1268 2.055 . S
Co1260 O1271 2.039 . S
Co1260 N1274 2.140 . S
C1261 O1262 1.227 . S
C1261 O1271 1.265 . S
O1262 C1261 1.227 . S
N1263 Co1260 2.121 1_565 S
N1263 C1265 1.375 . S
N1263 C1266 1.313 . S
C1264 C1265 1.338 . S
C1264 N1267 1.377 . S
C1264 H1284 0.930 . S
C1265 N1263 1.375 . S
C1265 C1264 1.338 . S
C1265 H1269 0.931 . S
C1266 N1263 1.313 . S
C1266 N1267 1.344 . S
C1266 H1270 0.930 . S
N1267 C1264 1.377 . S
N1267 C1266 1.344 . S
O1268 Co1260 2.055 . S
O1268 C1272 1.253 . S
H1269 C1265 0.931 . S
H1270 C1266 0.930 . S
O1271 Co1260 2.039 . S
O1271 C1261 1.265 . S
C1272 O1268 1.253 . S
C1272 O1273 1.227 . S
O1273 C1272 1.227 . S
N1274 Co1260 2.140 . S
N1274 C1277 1.346 . S
N1274 C1278 1.345 . S
C1275 C1276 1.387 . S
C1275 C1279 1.391 . S
C1276 C1275 1.387 . S
C1276 C1277 1.369 . S
C1276 H1285 0.929 . S
C1277 N1274 1.346 . S
C1277 C1276 1.369 . S
C1277 H1280 0.928 . S
C1278 N1274 1.345 . S
C1278 C1279 1.371 . S
C1278 H1281 0.931 . S
C1279 C1275 1.391 . S
C1279 C1278 1.371 . S
C1279 H1286 0.930 1_545 S
H1280 C1277 0.928 . S
H1281 C1278 0.931 . S
H1282 C1258 0.930 . S
H1283 C1255 0.930 . S
H1284 C1264 0.930 . S
H1285 C1276 0.929 . S
H1286 C1279 0.930 1_565 S
C1287 C1288 1.351 . S
C1287 N1290 1.368 . S
C1287 H1292 0.931 . S
C1288 C1287 1.351 . S
C1288 N1289 1.373 . S
C1288 H1316 0.930 . S
N1289 C1288 1.373 . S
N1289 C1291 1.340 . S
N1290 C1287 1.368 . S
N1290 C1291 1.321 . S
N1290 Co1293 2.135 . S
C1291 N1289 1.340 . S
C1291 N1290 1.321 . S
C1291 H1315 0.930 . S
H1292 C1287 0.931 . S
Co1293 N1290 2.135 . S
Co1293 N1296 2.121 . S
Co1293 O1301 2.055 . S
Co1293 O1304 2.039 . S
Co1293 N1307 2.140 . S
C1294 O1295 1.227 . S
C1294 O1304 1.265 . S
O1295 C1294 1.227 . S
N1296 Co1293 2.121 . S
N1296 C1298 1.375 . S
N1296 C1299 1.313 . S
C1297 C1298 1.338 . S
C1297 N1300 1.377 . S
C1297 H1317 0.930 . S
C1298 N1296 1.375 . S
C1298 C1297 1.338 . S
C1298 H1302 0.931 . S
C1299 N1296 1.313 . S
C1299 N1300 1.344 . S
C1299 H1303 0.930 . S
N1300 C1297 1.377 . S
N1300 C1299 1.344 . S
O1301 Co1293 2.055 . S
O1301 C1305 1.253 . S
H1302 C1298 0.931 . S
H1303 C1299 0.930 . S
O1304 Co1293 2.039 . S
O1304 C1294 1.265 . S
C1305 O1301 1.253 . S
C1305 O1306 1.227 . S
O1306 C1305 1.227 . S
N1307 Co1293 2.140 . S
N1307 C1310 1.346 . S
N1307 C1311 1.345 . S
C1308 C1309 1.387 . S
C1308 C1312 1.391 . S
C1309 C1308 1.387 . S
C1309 C1310 1.369 . S
C1309 H1318 0.929 . S
C1310 N1307 1.346 . S
C1310 C1309 1.369 . S
C1310 H1313 0.928 . S
C1311 N1307 1.345 . S
C1311 C1312 1.371 . S
C1311 H1314 0.931 . S
C1312 C1308 1.391 . S
C1312 C1311 1.371 . S
C1312 H1319 0.930 . S
H1313 C1310 0.928 . S
H1314 C1311 0.931 . S
H1315 C1291 0.930 . S
H1316 C1288 0.930 . S
H1317 C1297 0.930 . S
H1318 C1309 0.929 . S
H1319 C1312 0.930 . S
C1320 C1321 1.351 . S
C1320 N1323 1.368 . S
C1320 H1325 0.931 . S
C1321 C1320 1.351 . S
C1321 N1322 1.373 . S
C1321 H1349 0.930 . S
N1322 C1321 1.373 . S
N1322 C1324 1.340 . S
N1323 C1320 1.368 . S
N1323 C1324 1.321 . S
N1323 Co1326 2.135 . S
C1324 N1322 1.340 . S
C1324 N1323 1.321 . S
C1324 H1348 0.930 . S
H1325 C1320 0.931 . S
Co1326 N1323 2.135 . S
Co1326 N1329 2.121 . S
Co1326 O1334 2.055 . S
Co1326 O1337 2.039 . S
Co1326 N1340 2.140 . S
C1327 O1328 1.227 . S
C1327 O1337 1.265 . S
O1328 C1327 1.227 . S
N1329 Co1326 2.121 . S
N1329 C1331 1.375 . S
N1329 C1332 1.313 . S
C1330 C1331 1.338 . S
C1330 N1333 1.377 . S
C1330 H1350 0.930 . S
C1331 N1329 1.375 . S
C1331 C1330 1.338 . S
C1331 H1335 0.931 . S
C1332 N1329 1.313 . S
C1332 N1333 1.344 . S
C1332 H1336 0.930 . S
N1333 C1330 1.377 . S
N1333 C1332 1.344 . S
O1334 Co1326 2.055 . S
O1334 C1338 1.253 . S
H1335 C1331 0.931 . S
H1336 C1332 0.930 . S
O1337 Co1326 2.039 . S
O1337 C1327 1.265 . S
C1338 O1334 1.253 . S
C1338 O1339 1.227 . S
O1339 C1338 1.227 . S
N1340 Co1326 2.140 . S
N1340 C1343 1.346 . S
N1340 C1344 1.345 . S
C1341 C1342 1.387 . S
C1341 C1345 1.391 . S
C1342 C1341 1.387 . S
C1342 C1343 1.369 . S
C1342 H1351 0.929 . S
C1343 N1340 1.346 . S
C1343 C1342 1.369 . S
C1343 H1346 0.928 . S
C1344 N1340 1.345 . S
C1344 C1345 1.371 . S
C1344 H1347 0.931 . S
C1345 C1341 1.391 . S
C1345 C1344 1.371 . S
C1345 H1352 0.930 . S
H1346 C1343 0.928 . S
H1347 C1344 0.931 . S
H1348 C1324 0.930 . S
H1349 C1321 0.930 . S
H1350 C1330 0.930 . S
H1351 C1342 0.929 . S
H1352 C1345 0.930 . S
C1353 C1354 1.351 . S
C1353 N1356 1.368 . S
C1353 H1358 0.931 . S
C1354 C1353 1.351 . S
C1354 N1355 1.373 . S
C1354 H1382 0.930 . S
N1355 C1354 1.373 . S
N1355 C1357 1.340 . S
N1356 C1353 1.368 . S
N1356 C1357 1.321 . S
N1356 Co1359 2.135 . S
C1357 N1355 1.340 . S
C1357 N1356 1.321 . S
C1357 H1381 0.930 . S
H1358 C1353 0.931 . S
Co1359 N1356 2.135 . S
Co1359 N1362 2.121 1_556 S
Co1359 O1367 2.055 . S
Co1359 O1370 2.039 . S
Co1359 N1373 2.140 . S
C1360 O1361 1.227 . S
C1360 O1370 1.265 . S
O1361 C1360 1.227 . S
N1362 Co1359 2.121 1_554 S
N1362 C1364 1.375 . S
N1362 C1365 1.313 . S
C1363 C1364 1.338 . S
C1363 N1366 1.377 . S
C1363 H1383 0.930 . S
C1364 N1362 1.375 . S
C1364 C1363 1.338 . S
C1364 H1368 0.931 . S
C1365 N1362 1.313 . S
C1365 N1366 1.344 . S
C1365 H1369 0.930 . S
N1366 C1363 1.377 . S
N1366 C1365 1.344 . S
O1367 Co1359 2.055 . S
O1367 C1371 1.253 . S
H1368 C1364 0.931 . S
H1369 C1365 0.930 . S
O1370 Co1359 2.039 . S
O1370 C1360 1.265 . S
C1371 O1367 1.253 . S
C1371 O1372 1.227 . S
O1372 C1371 1.227 . S
N1373 Co1359 2.140 . S
N1373 C1376 1.346 . S
N1373 C1377 1.345 . S
C1374 C1375 1.387 . S
C1374 C1378 1.391 . S
C1375 C1374 1.387 . S
C1375 C1376 1.369 . S
C1375 H1384 0.929 . S
C1376 N1373 1.346 . S
C1376 C1375 1.369 . S
C1376 H1379 0.928 . S
C1377 N1373 1.345 . S
C1377 C1378 1.371 . S
C1377 H1380 0.931 . S
C1378 C1374 1.391 . S
C1378 C1377 1.371 . S
C1378 H1385 0.930 1_556 S
H1379 C1376 0.928 . S
H1380 C1377 0.931 . S
H1381 C1357 0.930 . S
H1382 C1354 0.930 . S
H1383 C1363 0.930 . S
H1384 C1375 0.929 . S
H1385 C1378 0.930 1_554 S
C1386 C1387 1.351 . S
C1386 N1389 1.368 . S
C1386 H1391 0.931 . S
C1387 C1386 1.351 . S
C1387 N1388 1.373 . S
C1387 H1415 0.930 . S
N1388 C1387 1.373 . S
N1388 C1390 1.340 . S
N1389 C1386 1.368 . S
N1389 C1390 1.321 . S
N1389 Co1392 2.135 . S
C1390 N1388 1.340 . S
C1390 N1389 1.321 . S
C1390 H1414 0.930 . S
H1391 C1386 0.931 . S
Co1392 N1389 2.135 . S
Co1392 N1395 2.121 . S
Co1392 O1400 2.055 . S
Co1392 O1403 2.039 . S
Co1392 N1406 2.140 . S
C1393 O1394 1.227 . S
C1393 O1403 1.265 . S
O1394 C1393 1.227 . S
N1395 Co1392 2.121 . S
N1395 C1397 1.375 . S
N1395 C1398 1.313 . S
C1396 C1397 1.338 . S
C1396 N1399 1.377 . S
C1396 H1416 0.930 . S
C1397 N1395 1.375 . S
C1397 C1396 1.338 . S
C1397 H1401 0.931 . S
C1398 N1395 1.313 . S
C1398 N1399 1.344 . S
C1398 H1402 0.930 . S
N1399 C1396 1.377 . S
N1399 C1398 1.344 . S
O1400 Co1392 2.055 . S
O1400 C1404 1.253 . S
H1401 C1397 0.931 . S
H1402 C1398 0.930 . S
O1403 Co1392 2.039 . S
O1403 C1393 1.265 . S
C1404 O1400 1.253 . S
C1404 O1405 1.227 . S
O1405 C1404 1.227 . S
N1406 Co1392 2.140 . S
N1406 C1409 1.346 . S
N1406 C1410 1.345 . S
C1407 C1408 1.387 . S
C1407 C1411 1.391 . S
C1408 C1407 1.387 . S
C1408 C1409 1.369 . S
C1408 H1417 0.929 . S
C1409 N1406 1.346 . S
C1409 C1408 1.369 . S
C1409 H1412 0.928 . S
C1410 N1406 1.345 . S
C1410 C1411 1.371 . S
C1410 H1413 0.931 . S
C1411 C1407 1.391 . S
C1411 C1410 1.371 . S
C1411 H1418 0.930 . S
H1412 C1409 0.928 . S
H1413 C1410 0.931 . S
H1414 C1390 0.930 . S
H1415 C1387 0.930 . S
H1416 C1396 0.930 . S
H1417 C1408 0.929 . S
H1418 C1411 0.930 . S
C1419 C1420 1.351 . S
C1419 N1422 1.368 . S
C1419 H1424 0.931 . S
C1420 C1419 1.351 . S
C1420 N1421 1.373 . S
C1420 H1448 0.930 . S
N1421 C1420 1.373 . S
N1421 C1423 1.340 . S
N1422 C1419 1.368 . S
N1422 C1423 1.321 . S
N1422 Co1425 2.135 . S
C1423 N1421 1.340 . S
C1423 N1422 1.321 . S
C1423 H1447 0.930 . S
H1424 C1419 0.931 . S
Co1425 N1422 2.135 . S
Co1425 N1428 2.121 1_556 S
Co1425 O1433 2.055 . S
Co1425 O1436 2.039 . S
Co1425 N1439 2.140 . S
C1426 O1427 1.227 . S
C1426 O1436 1.265 . S
O1427 C1426 1.227 . S
N1428 Co1425 2.121 1_554 S
N1428 C1430 1.375 . S
N1428 C1431 1.313 . S
C1429 C1430 1.338 . S
C1429 N1432 1.377 . S
C1429 H1449 0.930 . S
C1430 N1428 1.375 . S
C1430 C1429 1.338 . S
C1430 H1434 0.931 . S
C1431 N1428 1.313 . S
C1431 N1432 1.344 . S
C1431 H1435 0.930 . S
N1432 C1429 1.377 . S
N1432 C1431 1.344 . S
O1433 Co1425 2.055 . S
O1433 C1437 1.253 . S
H1434 C1430 0.931 . S
H1435 C1431 0.930 . S
O1436 Co1425 2.039 . S
O1436 C1426 1.265 . S
C1437 O1433 1.253 . S
C1437 O1438 1.227 . S
O1438 C1437 1.227 . S
N1439 Co1425 2.140 . S
N1439 C1442 1.346 . S
N1439 C1443 1.345 . S
C1440 C1441 1.387 . S
C1440 C1444 1.391 . S
C1441 C1440 1.387 . S
C1441 C1442 1.369 . S
C1441 H1450 0.929 . S
C1442 N1439 1.346 . S
C1442 C1441 1.369 . S
C1442 H1445 0.928 . S
C1443 N1439 1.345 . S
C1443 C1444 1.371 . S
C1443 H1446 0.931 . S
C1444 C1440 1.391 . S
C1444 C1443 1.371 . S
C1444 H1451 0.930 1_556 S
H1445 C1442 0.928 . S
H1446 C1443 0.931 . S
H1447 C1423 0.930 . S
H1448 C1420 0.930 . S
H1449 C1429 0.930 . S
H1450 C1441 0.929 . S
H1451 C1444 0.930 1_554 S
C1452 C1453 1.351 . S
C1452 N1455 1.368 . S
C1452 H1457 0.931 . S
C1453 C1452 1.351 . S
C1453 N1454 1.373 1_455 S
C1453 H1481 0.925 1_455 S
N1454 C1453 1.373 1_655 S
N1454 C1456 1.340 1_655 S
N1455 C1452 1.368 . S
N1455 C1456 1.321 . S
N1455 Co1458 2.135 . S
C1456 N1454 1.340 1_455 S
C1456 N1455 1.321 . S
C1456 H1480 0.930 1_455 S
H1457 C1452 0.931 . S
Co1458 N1455 2.135 . S
Co1458 N1461 2.121 . S
Co1458 O1466 2.055 . S
Co1458 O1469 2.039 . S
Co1458 N1472 2.140 1_455 S
C1459 O1460 1.227 1_455 S
C1459 O1469 1.265 . S
O1460 C1459 1.227 1_655 S
N1461 Co1458 2.121 . S
N1461 C1463 1.375 . S
N1461 C1464 1.313 . S
C1462 C1463 1.338 . S
C1462 N1465 1.377 . S
C1462 H1482 0.930 . S
C1463 N1461 1.375 . S
C1463 C1462 1.338 . S
C1463 H1467 0.931 . S
C1464 N1461 1.313 . S
C1464 N1465 1.344 . S
C1464 H1468 0.930 . S
N1465 C1462 1.377 . S
N1465 C1464 1.344 . S
O1466 Co1458 2.055 . S
O1466 C1470 1.253 . S
H1467 C1463 0.931 . S
H1468 C1464 0.930 . S
O1469 Co1458 2.039 . S
O1469 C1459 1.265 . S
C1470 O1466 1.253 . S
C1470 O1471 1.227 . S
O1471 C1470 1.227 . S
N1472 Co1458 2.140 1_655 S
N1472 C1475 1.346 . S
N1472 C1476 1.345 . S
C1473 C1474 1.387 . S
C1473 C1477 1.391 . S
C1474 C1473 1.387 . S
C1474 C1475 1.369 . S
C1474 H1483 0.929 . S
C1475 N1472 1.346 . S
C1475 C1474 1.369 . S
C1475 H1478 0.928 . S
C1476 N1472 1.345 . S
C1476 C1477 1.371 . S
C1476 H1479 0.931 1_655 S
C1477 C1473 1.391 . S
C1477 C1476 1.371 . S
C1477 H1484 0.930 . S
H1478 C1475 0.928 . S
H1479 C1476 0.931 1_455 S
H1480 C1456 0.930 1_655 S
H1481 C1453 0.925 1_655 S
H1482 C1462 0.930 . S
H1483 C1474 0.929 . S
H1484 C1477 0.930 . S
C1485 C1486 1.351 . S
C1485 N1488 1.368 . S
C1485 H1490 0.931 . S
C1486 C1485 1.351 . S
C1486 N1487 1.373 . S
C1486 H1514 0.930 . S
N1487 C1486 1.373 . S
N1487 C1489 1.340 . S
N1488 C1485 1.368 . S
N1488 C1489 1.321 . S
N1488 Co1491 2.135 . S
C1489 N1487 1.340 . S
C1489 N1488 1.321 . S
C1489 H1513 0.930 . S
H1490 C1485 0.931 . S
Co1491 N1488 2.135 . S
Co1491 N1494 2.121 1_554 S
Co1491 O1499 2.055 . S
Co1491 O1502 2.039 . S
Co1491 N1505 2.140 . S
C1492 O1493 1.227 . S
C1492 O1502 1.265 . S
O1493 C1492 1.227 . S
N1494 Co1491 2.121 1_556 S
N1494 C1496 1.375 . S
N1494 C1497 1.313 . S
C1495 C1496 1.338 . S
C1495 N1498 1.377 . S
C1495 H1515 0.930 . S
C1496 N1494 1.375 . S
C1496 C1495 1.338 . S
C1496 H1500 0.931 . S
C1497 N1494 1.313 . S
C1497 N1498 1.344 . S
C1497 H1501 0.930 . S
N1498 C1495 1.377 . S
N1498 C1497 1.344 . S
O1499 Co1491 2.055 . S
O1499 C1503 1.253 . S
H1500 C1496 0.931 . S
H1501 C1497 0.930 . S
O1502 Co1491 2.039 . S
O1502 C1492 1.265 . S
C1503 O1499 1.253 . S
C1503 O1504 1.227 . S
O1504 C1503 1.227 . S
N1505 Co1491 2.140 . S
N1505 C1508 1.346 . S
N1505 C1509 1.345 . S
C1506 C1507 1.387 . S
C1506 C1510 1.391 . S
C1507 C1506 1.387 . S
C1507 C1508 1.369 . S
C1507 H1516 0.929 . S
C1508 N1505 1.346 . S
C1508 C1507 1.369 . S
C1508 H1511 0.928 . S
C1509 N1505 1.345 . S
C1509 C1510 1.371 . S
C1509 H1512 0.931 . S
C1510 C1506 1.391 . S
C1510 C1509 1.371 . S
C1510 H1517 0.930 1_554 S
H1511 C1508 0.928 . S
H1512 C1509 0.931 . S
H1513 C1489 0.930 . S
H1514 C1486 0.930 . S
H1515 C1495 0.930 . S
H1516 C1507 0.929 . S
H1517 C1510 0.930 1_556 S
C1518 C1519 1.351 . S
C1518 N1521 1.368 . S
C1518 H1523 0.931 . S
C1519 C1518 1.351 . S
C1519 N1520 1.373 . S
C1519 H1547 0.930 . S
N1520 C1519 1.373 . S
N1520 C1522 1.340 . S
N1521 C1518 1.368 . S
N1521 C1522 1.321 . S
N1521 Co1524 2.135 . S
C1522 N1520 1.340 . S
C1522 N1521 1.321 . S
C1522 H1546 0.930 . S
H1523 C1518 0.931 . S
Co1524 N1521 2.135 . S
Co1524 N1527 2.121 . S
Co1524 O1532 2.055 . S
Co1524 O1535 2.039 . S
Co1524 N1538 2.140 . S
C1525 O1526 1.227 . S
C1525 O1535 1.265 . S
O1526 C1525 1.227 . S
N1527 Co1524 2.121 . S
N1527 C1529 1.375 . S
N1527 C1530 1.313 . S
C1528 C1529 1.338 . S
C1528 N1531 1.377 . S
C1528 H1548 0.930 . S
C1529 N1527 1.375 . S
C1529 C1528 1.338 . S
C1529 H1533 0.931 . S
C1530 N1527 1.313 . S
C1530 N1531 1.344 . S
C1530 H1534 0.930 . S
N1531 C1528 1.377 . S
N1531 C1530 1.344 . S
O1532 Co1524 2.055 . S
O1532 C1536 1.253 . S
H1533 C1529 0.931 . S
H1534 C1530 0.930 . S
O1535 Co1524 2.039 . S
O1535 C1525 1.265 . S
C1536 O1532 1.253 . S
C1536 O1537 1.227 . S
O1537 C1536 1.227 . S
N1538 Co1524 2.140 . S
N1538 C1541 1.346 . S
N1538 C1542 1.345 . S
C1539 C1540 1.387 . S
C1539 C1543 1.391 . S
C1540 C1539 1.387 . S
C1540 C1541 1.369 . S
C1540 H1549 0.929 . S
C1541 N1538 1.346 . S
C1541 C1540 1.369 . S
C1541 H1544 0.928 . S
C1542 N1538 1.345 . S
C1542 C1543 1.371 . S
C1542 H1545 0.931 . S
C1543 C1539 1.391 . S
C1543 C1542 1.371 . S
C1543 H1550 0.930 . S
H1544 C1541 0.928 . S
H1545 C1542 0.931 . S
H1546 C1522 0.930 . S
H1547 C1519 0.930 . S
H1548 C1528 0.930 . S
H1549 C1540 0.929 . S
H1550 C1543 0.930 . S
C1551 C1552 1.351 . S
C1551 N1554 1.368 . S
C1551 H1556 0.931 . S
C1552 C1551 1.351 . S
C1552 N1553 1.373 . S
C1552 H1580 0.930 . S
N1553 C1552 1.373 . S
N1553 C1555 1.340 . S
N1554 C1551 1.368 . S
N1554 C1555 1.321 . S
N1554 Co1557 2.135 . S
C1555 N1553 1.340 . S
C1555 N1554 1.321 . S
C1555 H1579 0.930 . S
H1556 C1551 0.931 . S
Co1557 N1554 2.135 . S
Co1557 N1560 2.121 . S
Co1557 O1565 2.055 . S
Co1557 O1568 2.039 . S
Co1557 N1571 2.140 . S
C1558 O1559 1.227 . S
C1558 O1568 1.265 . S
O1559 C1558 1.227 . S
N1560 Co1557 2.121 . S
N1560 C1562 1.375 . S
N1560 C1563 1.313 . S
C1561 C1562 1.338 . S
C1561 N1564 1.377 . S
C1561 H1581 0.930 . S
C1562 N1560 1.375 . S
C1562 C1561 1.338 . S
C1562 H1566 0.931 . S
C1563 N1560 1.313 . S
C1563 N1564 1.344 . S
C1563 H1567 0.930 . S
N1564 C1561 1.377 . S
N1564 C1563 1.344 . S
O1565 Co1557 2.055 . S
O1565 C1569 1.253 . S
H1566 C1562 0.931 . S
H1567 C1563 0.930 . S
O1568 Co1557 2.039 . S
O1568 C1558 1.265 . S
C1569 O1565 1.253 . S
C1569 O1570 1.227 . S
O1570 C1569 1.227 . S
N1571 Co1557 2.140 . S
N1571 C1574 1.346 . S
N1571 C1575 1.345 . S
C1572 C1573 1.387 . S
C1572 C1576 1.391 . S
C1573 C1572 1.387 . S
C1573 C1574 1.369 . S
C1573 H1582 0.929 . S
C1574 N1571 1.346 . S
C1574 C1573 1.369 . S
C1574 H1577 0.928 . S
C1575 N1571 1.345 . S
C1575 C1576 1.371 . S
C1575 H1578 0.931 . S
C1576 C1572 1.391 . S
C1576 C1575 1.371 . S
C1576 H1583 0.930 . S
H1577 C1574 0.928 . S
H1578 C1575 0.931 . S
H1579 C1555 0.930 . S
H1580 C1552 0.930 . S
H1581 C1561 0.930 . S
H1582 C1573 0.929 . S
H1583 C1576 0.930 . S
C1584 C1585 1.387 . S
C1584 H1588 0.950 . S
C1584 C1593 1.390 . S
C1585 C1584 1.387 . S
C1585 C1587 1.387 . S
H1586 C1593 0.950 . S
C1587 C1585 1.387 . S
C1587 C1589 1.390 . S
C1587 H1591 0.950 . S
H1588 C1584 0.950 . S
C1589 C1587 1.390 . S
C1589 C1590 1.387 . S
C1589 H1592 0.950 . S
C1590 C1589 1.387 . S
C1590 C1593 1.387 . S
H1591 C1587 0.950 . S
H1592 C1589 0.950 . S
C1593 C1584 1.390 . S
C1593 H1586 0.950 . S
C1593 C1590 1.387 . S
C1594 C1595 1.387 . S
C1594 H1598 0.950 . S
C1594 C1603 1.390 . S
C1595 C1594 1.387 . S
C1595 C1597 1.387 . S
H1596 C1603 0.950 . S
C1597 C1595 1.387 . S
C1597 C1599 1.390 . S
C1597 H1601 0.950 . S
H1598 C1594 0.950 . S
C1599 C1597 1.390 . S
C1599 C1600 1.387 . S
C1599 H1602 0.950 . S
C1600 C1599 1.387 . S
C1600 C1603 1.387 . S
H1601 C1597 0.950 . S
H1602 C1599 0.950 . S
C1603 C1594 1.390 . S
C1603 H1596 0.950 . S
C1603 C1600 1.387 . S
C1604 C1605 1.387 . S
C1604 H1608 0.950 . S
C1604 C1613 1.390 . S
C1605 C1604 1.387 . S
C1605 C1607 1.387 . S
H1606 C1613 0.950 . S
C1607 C1605 1.387 . S
C1607 C1609 1.390 . S
C1607 H1611 0.950 . S
H1608 C1604 0.950 . S
C1609 C1607 1.390 . S
C1609 C1610 1.387 . S
C1609 H1612 0.950 . S
C1610 C1609 1.387 . S
C1610 C1613 1.387 . S
H1611 C1607 0.950 . S
H1612 C1609 0.950 . S
C1613 C1604 1.390 . S
C1613 H1606 0.950 . S
C1613 C1610 1.387 . S
C1614 C1615 1.387 . S
C1614 H1618 0.950 . S
C1614 C1623 1.390 . S
C1615 C1614 1.387 . S
C1615 C1617 1.387 . S
H1616 C1623 0.950 . S
C1617 C1615 1.387 . S
C1617 C1619 1.390 . S
C1617 H1621 0.950 . S
H1618 C1614 0.950 . S
C1619 C1617 1.390 . S
C1619 C1620 1.387 . S
C1619 H1622 0.950 . S
C1620 C1619 1.387 . S
C1620 C1623 1.387 . S
H1621 C1617 0.950 . S
H1622 C1619 0.950 . S
C1623 C1614 1.390 . S
C1623 H1616 0.950 . S
C1623 C1620 1.387 . S
C1624 C1625 1.387 . S
C1624 H1628 0.950 1_455 S
C1624 C1633 1.390 . S
C1625 C1624 1.387 . S
C1625 C1627 1.387 . S
H1626 C1633 0.950 . S
C1627 C1625 1.387 . S
C1627 C1629 1.390 . S
C1627 H1631 0.950 . S
H1628 C1624 0.950 1_655 S
C1629 C1627 1.390 . S
C1629 C1630 1.387 . S
C1629 H1632 0.950 . S
C1630 C1629 1.387 . S
C1630 C1633 1.387 . S
H1631 C1627 0.950 . S
H1632 C1629 0.950 . S
C1633 C1624 1.390 . S
C1633 H1626 0.950 . S
C1633 C1630 1.387 . S
C1634 C1635 1.387 . S
C1634 H1638 0.950 . S
C1634 C1643 1.390 . S
C1635 C1634 1.387 . S
C1635 C1637 1.387 . S
H1636 C1643 0.950 . S
C1637 C1635 1.387 . S
C1637 C1639 1.390 . S
C1637 H1641 0.950 . S
H1638 C1634 0.950 . S
C1639 C1637 1.390 . S
C1639 C1640 1.387 . S
C1639 H1642 0.950 . S
C1640 C1639 1.387 . S
C1640 C1643 1.387 . S
H1641 C1637 0.950 . S
H1642 C1639 0.950 . S
C1643 C1634 1.390 . S
C1643 H1636 0.950 . S
C1643 C1640 1.387 . S
C1644 C1645 1.387 . S
C1644 H1648 0.950 . S
C1644 C1653 1.390 . S
C1645 C1644 1.387 . S
C1645 C1647 1.387 . S
H1646 C1653 0.950 . S
C1647 C1645 1.387 . S
C1647 C1649 1.390 . S
C1647 H1651 0.950 . S
H1648 C1644 0.950 . S
C1649 C1647 1.390 . S
C1649 C1650 1.387 . S
C1649 H1652 0.950 . S
C1650 C1649 1.387 . S
C1650 C1653 1.387 . S
H1651 C1647 0.950 . S
H1652 C1649 0.950 . S
C1653 C1644 1.390 . S
C1653 H1646 0.950 . S
C1653 C1650 1.387 . S
C1654 C1655 1.387 . S
C1654 H1658 0.950 . S
C1654 C1663 1.390 . S
C1655 C1654 1.387 . S
C1655 C1657 1.387 . S
H1656 C1663 0.950 . S
C1657 C1655 1.387 . S
C1657 C1659 1.390 . S
C1657 H1661 0.950 . S
H1658 C1654 0.950 . S
C1659 C1657 1.390 . S
C1659 C1660 1.387 . S
C1659 H1662 0.950 . S
C1660 C1659 1.387 . S
C1660 C1663 1.387 . S
H1661 C1657 0.950 . S
H1662 C1659 0.950 . S
C1663 C1654 1.390 . S
C1663 H1656 0.950 . S
C1663 C1660 1.387 . S
C1664 C1665 1.387 . S
C1664 H1668 0.950 . S
C1664 C1673 1.390 . S
C1665 C1664 1.387 . S
C1665 C1667 1.387 . S
H1666 C1673 0.950 . S
C1667 C1665 1.387 . S
C1667 C1669 1.390 . S
C1667 H1671 0.950 . S
H1668 C1664 0.950 . S
C1669 C1667 1.390 . S
C1669 C1670 1.387 . S
C1669 H1672 0.950 . S
C1670 C1669 1.387 . S
C1670 C1673 1.387 . S
H1671 C1667 0.950 . S
H1672 C1669 0.950 . S
C1673 C1664 1.390 . S
C1673 H1666 0.950 . S
C1673 C1670 1.387 . S
C1674 C1675 1.387 . S
C1674 H1678 0.950 . S
C1674 C1683 1.390 . S
C1675 C1674 1.387 . S
C1675 C1677 1.387 . S
H1676 C1683 0.950 . S
C1677 C1675 1.387 . S
C1677 C1679 1.390 . S
C1677 H1681 0.950 . S
H1678 C1674 0.950 . S
C1679 C1677 1.390 . S
C1679 C1680 1.387 . S
C1679 H1682 0.950 . S
C1680 C1679 1.387 . S
C1680 C1683 1.387 . S
H1681 C1677 0.950 . S
H1682 C1679 0.950 . S
C1683 C1674 1.390 . S
C1683 H1676 0.950 . S
C1683 C1680 1.387 . S
C1684 C1685 1.387 . S
C1684 H1688 0.950 . S
C1684 C1693 1.390 . S
C1685 C1684 1.387 . S
C1685 C1687 1.387 . S
H1686 C1693 0.950 . S
C1687 C1685 1.387 . S
C1687 C1689 1.390 . S
C1687 H1691 0.950 . S
H1688 C1684 0.950 . S
C1689 C1687 1.390 . S
C1689 C1690 1.387 . S
C1689 H1692 0.950 . S
C1690 C1689 1.387 . S
C1690 C1693 1.387 . S
H1691 C1687 0.950 . S
H1692 C1689 0.950 . S
C1693 C1684 1.390 . S
C1693 H1686 0.950 . S
C1693 C1690 1.387 . S
C1694 C1695 1.387 . S
C1694 H1698 0.950 . S
C1694 C1703 1.390 . S
C1695 C1694 1.387 . S
C1695 C1697 1.387 . S
H1696 C1703 0.950 . S
C1697 C1695 1.387 . S
C1697 C1699 1.390 . S
C1697 H1701 0.950 . S
H1698 C1694 0.950 . S
C1699 C1697 1.390 . S
C1699 C1700 1.387 . S
C1699 H1702 0.950 . S
C1700 C1699 1.387 . S
C1700 C1703 1.387 . S
H1701 C1697 0.950 . S
H1702 C1699 0.950 . S
C1703 C1694 1.390 . S
C1703 H1696 0.950 . S
C1703 C1700 1.387 . S
C1704 C1705 1.387 . S
C1704 H1708 0.950 . S
C1704 C1713 1.390 . S
C1705 C1704 1.387 . S
C1705 C1707 1.387 . S
H1706 C1713 0.950 . S
C1707 C1705 1.387 . S
C1707 C1709 1.390 . S
C1707 H1711 0.950 1_565 S
H1708 C1704 0.950 . S
C1709 C1707 1.390 . S
C1709 C1710 1.387 . S
C1709 H1712 0.950 . S
C1710 C1709 1.387 . S
C1710 C1713 1.387 . S
H1711 C1707 0.950 1_545 S
H1712 C1709 0.950 . S
C1713 C1704 1.390 . S
C1713 H1706 0.950 . S
C1713 C1710 1.387 . S
C1714 C1715 1.387 . S
C1714 H1718 0.950 . S
C1714 C1723 1.390 . S
C1715 C1714 1.387 . S
C1715 C1717 1.387 . S
H1716 C1723 0.950 . S
C1717 C1715 1.387 . S
C1717 C1719 1.390 . S
C1717 H1721 0.950 . S
H1718 C1714 0.950 . S
C1719 C1717 1.390 . S
C1719 C1720 1.387 . S
C1719 H1722 0.950 1_556 S
C1720 C1719 1.387 . S
C1720 C1723 1.387 . S
H1721 C1717 0.950 . S
H1722 C1719 0.950 1_554 S
C1723 C1714 1.390 . S
C1723 H1716 0.950 . S
C1723 C1720 1.387 . S
C1724 C1725 1.387 . S
C1724 H1728 0.950 . S
C1724 C1733 1.390 . S
C1725 C1724 1.387 . S
C1725 C1727 1.387 . S
H1726 C1733 0.950 . S
C1727 C1725 1.387 . S
C1727 C1729 1.390 . S
C1727 H1731 0.950 . S
H1728 C1724 0.950 . S
C1729 C1727 1.390 . S
C1729 C1730 1.387 . S
C1729 H1732 0.950 . S
C1730 C1729 1.387 . S
C1730 C1733 1.387 . S
H1731 C1727 0.950 . S
H1732 C1729 0.950 . S
C1733 C1724 1.390 . S
C1733 H1726 0.950 . S
C1733 C1730 1.387 . S
C1734 C1735 1.387 . S
C1734 H1738 0.950 1_556 S
C1734 C1743 1.390 . S
C1735 C1734 1.387 . S
C1735 C1737 1.387 . S
H1736 C1743 0.950 . S
C1737 C1735 1.387 . S
C1737 C1739 1.390 . S
C1737 H1741 0.950 . S
H1738 C1734 0.950 1_554 S
C1739 C1737 1.390 . S
C1739 C1740 1.387 . S
C1739 H1742 0.950 . S
C1740 C1739 1.387 . S
C1740 C1743 1.387 . S
H1741 C1737 0.950 . S
H1742 C1739 0.950 . S
C1743 C1734 1.390 . S
C1743 H1736 0.950 . S
C1743 C1740 1.387 . S
C1744 C1745 1.387 . S
C1744 H1748 0.950 . S
C1744 C1753 1.390 . S
C1745 C1744 1.387 . S
C1745 C1747 1.387 . S
H1746 C1753 0.950 . S
C1747 C1745 1.387 . S
C1747 C1749 1.390 . S
C1747 H1751 0.950 . S
H1748 C1744 0.950 . S
C1749 C1747 1.390 . S
C1749 C1750 1.387 . S
C1749 H1752 0.950 . S
C1750 C1749 1.387 . S
C1750 C1753 1.387 . S
H1751 C1747 0.950 . S
H1752 C1749 0.950 . S
C1753 C1744 1.390 . S
C1753 H1746 0.950 . S
C1753 C1750 1.387 . S
C1754 C1755 1.387 . S
C1754 H1758 0.950 . S
C1754 C1763 1.390 . S
C1755 C1754 1.387 . S
C1755 C1757 1.387 . S
H1756 C1763 0.950 . S
C1757 C1755 1.387 . S
C1757 C1759 1.390 . S
C1757 H1761 0.950 . S
H1758 C1754 0.950 . S
C1759 C1757 1.390 . S
C1759 C1760 1.387 . S
C1759 H1762 0.950 . S
C1760 C1759 1.387 . S
C1760 C1763 1.387 . S
H1761 C1757 0.950 . S
H1762 C1759 0.950 . S
C1763 C1754 1.390 . S
C1763 H1756 0.950 . S
C1763 C1760 1.387 . S
C1764 C1765 1.387 . S
C1764 H1768 0.950 . S
C1764 C1773 1.390 . S
C1765 C1764 1.387 . S
C1765 C1767 1.387 . S
H1766 C1773 0.950 . S
C1767 C1765 1.387 . S
C1767 C1769 1.390 . S
C1767 H1771 0.950 . S
H1768 C1764 0.950 . S
C1769 C1767 1.390 . S
C1769 C1770 1.387 . S
C1769 H1772 0.950 . S
C1770 C1769 1.387 . S
C1770 C1773 1.387 . S
H1771 C1767 0.950 . S
H1772 C1769 0.950 . S
C1773 C1764 1.390 . S
C1773 H1766 0.950 . S
C1773 C1770 1.387 . S
C1774 C1775 1.387 . S
C1774 H1778 0.950 . S
C1774 C1783 1.390 . S
C1775 C1774 1.387 . S
C1775 C1777 1.387 . S
H1776 C1783 0.950 . S
C1777 C1775 1.387 . S
C1777 C1779 1.390 . S
C1777 H1781 0.950 . S
H1778 C1774 0.950 . S
C1779 C1777 1.390 . S
C1779 C1780 1.387 . S
C1779 H1782 0.950 . S
C1780 C1779 1.387 . S
C1780 C1783 1.387 . S
H1781 C1777 0.950 . S
H1782 C1779 0.950 . S
C1783 C1774 1.390 . S
C1783 H1776 0.950 . S
C1783 C1780 1.387 . S
C1784 C1785 1.387 . S
C1784 H1788 0.950 . S
C1784 C1793 1.390 . S
C1785 C1784 1.387 . S
C1785 C1787 1.387 . S
H1786 C1793 0.950 . S
C1787 C1785 1.387 . S
C1787 C1789 1.390 . S
C1787 H1791 0.950 . S
H1788 C1784 0.950 . S
C1789 C1787 1.390 . S
C1789 C1790 1.387 . S
C1789 H1792 0.950 . S
C1790 C1789 1.387 . S
C1790 C1793 1.387 . S
H1791 C1787 0.950 . S
H1792 C1789 0.950 . S
C1793 C1784 1.390 . S
C1793 H1786 0.950 . S
C1793 C1790 1.387 . S
C1794 C1795 1.387 . S
C1794 H1798 0.950 . S
C1794 C1803 1.390 . S
C1795 C1794 1.387 . S
C1795 C1797 1.387 . S
H1796 C1803 0.950 . S
C1797 C1795 1.387 . S
C1797 C1799 1.390 . S
C1797 H1801 0.950 . S
H1798 C1794 0.950 . S
C1799 C1797 1.390 . S
C1799 C1800 1.387 . S
C1799 H1802 0.950 . S
C1800 C1799 1.387 . S
C1800 C1803 1.387 . S
H1801 C1797 0.950 . S
H1802 C1799 0.950 . S
C1803 C1794 1.390 . S
C1803 H1796 0.950 . S
C1803 C1800 1.387 . S
C1804 C1805 1.387 . S
C1804 H1808 0.950 . S
C1804 C1813 1.390 . S
C1805 C1804 1.387 . S
C1805 C1807 1.387 . S
H1806 C1813 0.950 . S
C1807 C1805 1.387 . S
C1807 C1809 1.390 . S
C1807 H1811 0.950 . S
H1808 C1804 0.950 . S
C1809 C1807 1.390 . S
C1809 C1810 1.387 . S
C1809 H1812 0.950 . S
C1810 C1809 1.387 . S
C1810 C1813 1.387 . S
H1811 C1807 0.950 . S
H1812 C1809 0.950 . S
C1813 C1804 1.390 . S
C1813 H1806 0.950 . S
C1813 C1810 1.387 . S
C1814 C1815 1.387 . S
C1814 H1818 0.950 . S
C1814 C1823 1.390 . S
C1815 C1814 1.387 . S
C1815 C1817 1.387 . S
H1816 C1823 0.950 . S
C1817 C1815 1.387 . S
C1817 C1819 1.390 . S
C1817 H1821 0.950 . S
H1818 C1814 0.950 . S
C1819 C1817 1.390 . S
C1819 C1820 1.387 . S
C1819 H1822 0.950 . S
C1820 C1819 1.387 . S
C1820 C1823 1.387 . S
H1821 C1817 0.950 . S
H1822 C1819 0.950 . S
C1823 C1814 1.390 . S
C1823 H1816 0.950 . S
C1823 C1820 1.387 . S
C1824 C1825 1.387 . S
C1824 H1828 0.950 . S
C1824 C1833 1.390 . S
C1825 C1824 1.387 . S
C1825 C1827 1.387 . S
H1826 C1833 0.950 . S
C1827 C1825 1.387 . S
C1827 C1829 1.390 . S
C1827 H1831 0.950 . S
H1828 C1824 0.950 . S
C1829 C1827 1.390 . S
C1829 C1830 1.387 . S
C1829 H1832 0.950 . S
C1830 C1829 1.387 . S
C1830 C1833 1.387 . S
H1831 C1827 0.950 . S
H1832 C1829 0.950 . S
C1833 C1824 1.390 . S
C1833 H1826 0.950 . S
C1833 C1830 1.387 . S
C1834 C1835 1.387 . S
C1834 H1838 0.950 . S
C1834 C1843 1.390 . S
C1835 C1834 1.387 . S
C1835 C1837 1.387 . S
H1836 C1843 0.950 . S
C1837 C1835 1.387 . S
C1837 C1839 1.390 . S
C1837 H1841 0.950 . S
H1838 C1834 0.950 . S
C1839 C1837 1.390 . S
C1839 C1840 1.387 . S
C1839 H1842 0.950 . S
C1840 C1839 1.387 . S
C1840 C1843 1.387 . S
H1841 C1837 0.950 . S
H1842 C1839 0.950 . S
C1843 C1834 1.390 . S
C1843 H1836 0.950 . S
C1843 C1840 1.387 . S
C1844 C1845 1.387 . S
C1844 H1848 0.950 . S
C1844 C1853 1.390 . S
C1845 C1844 1.387 . S
C1845 C1847 1.387 . S
H1846 C1853 0.950 . S
C1847 C1845 1.387 . S
C1847 C1849 1.390 . S
C1847 H1851 0.950 . S
H1848 C1844 0.950 . S
C1849 C1847 1.390 . S
C1849 C1850 1.387 . S
C1849 H1852 0.950 . S
C1850 C1849 1.387 . S
C1850 C1853 1.387 . S
H1851 C1847 0.950 . S
H1852 C1849 0.950 . S
C1853 C1844 1.390 . S
C1853 H1846 0.950 . S
C1853 C1850 1.387 . S
C1854 C1855 1.387 . S
C1854 H1858 0.950 . S
C1854 C1863 1.390 . S
C1855 C1854 1.387 . S
C1855 C1857 1.387 . S
H1856 C1863 0.950 . S
C1857 C1855 1.387 . S
C1857 C1859 1.390 . S
C1857 H1861 0.950 . S
H1858 C1854 0.950 . S
C1859 C1857 1.390 . S
C1859 C1860 1.387 . S
C1859 H1862 0.950 . S
C1860 C1859 1.387 . S
C1860 C1863 1.387 . S
H1861 C1857 0.950 . S
H1862 C1859 0.950 . S
C1863 C1854 1.390 . S
C1863 H1856 0.950 . S
C1863 C1860 1.387 . S
C1864 C1865 1.387 . S
C1864 H1868 0.950 . S
C1864 C1873 1.390 . S
C1865 C1864 1.387 . S
C1865 C1867 1.387 . S
H1866 C1873 0.950 . S
C1867 C1865 1.387 . S
C1867 C1869 1.390 . S
C1867 H1871 0.950 . S
H1868 C1864 0.950 . S
C1869 C1867 1.390 . S
C1869 C1870 1.387 . S
C1869 H1872 0.950 . S
C1870 C1869 1.387 . S
C1870 C1873 1.387 . S
H1871 C1867 0.950 . S
H1872 C1869 0.950 . S
C1873 C1864 1.390 . S
C1873 H1866 0.950 . S
C1873 C1870 1.387 . S
C1874 C1875 1.387 . S
C1874 H1878 0.950 . S
C1874 C1883 1.390 . S
C1875 C1874 1.387 . S
C1875 C1877 1.387 . S
H1876 C1883 0.950 . S
C1877 C1875 1.387 . S
C1877 C1879 1.390 . S
C1877 H1881 0.950 . S
H1878 C1874 0.950 . S
C1879 C1877 1.390 . S
C1879 C1880 1.387 . S
C1879 H1882 0.950 . S
C1880 C1879 1.387 . S
C1880 C1883 1.387 . S
H1881 C1877 0.950 . S
H1882 C1879 0.950 . S
C1883 C1874 1.390 . S
C1883 H1876 0.950 . S
C1883 C1880 1.387 . S
C1884 C1885 1.387 . S
C1884 H1888 0.950 . S
C1884 C1893 1.390 . S
C1885 C1884 1.387 . S
C1885 C1887 1.387 . S
H1886 C1893 0.950 . S
C1887 C1885 1.387 . S
C1887 C1889 1.390 . S
C1887 H1891 0.950 . S
H1888 C1884 0.950 . S
C1889 C1887 1.390 . S
C1889 C1890 1.387 . S
C1889 H1892 0.950 . S
C1890 C1889 1.387 . S
C1890 C1893 1.387 . S
H1891 C1887 0.950 . S
H1892 C1889 0.950 . S
C1893 C1884 1.390 . S
C1893 H1886 0.950 . S
C1893 C1890 1.387 . S
C1894 C1895 1.387 . S
C1894 H1898 0.950 . S
C1894 C1903 1.390 . S
C1895 C1894 1.387 . S
C1895 C1897 1.387 . S
H1896 C1903 0.950 . S
C1897 C1895 1.387 . S
C1897 C1899 1.390 . S
C1897 H1901 0.950 . S
H1898 C1894 0.950 . S
C1899 C1897 1.390 . S
C1899 C1900 1.387 . S
C1899 H1902 0.950 . S
C1900 C1899 1.387 . S
C1900 C1903 1.387 . S
H1901 C1897 0.950 . S
H1902 C1899 0.950 . S
C1903 C1894 1.390 . S
C1903 H1896 0.950 . S
C1903 C1900 1.387 . S
C1904 C1905 1.387 . S
C1904 H1908 0.950 . S
C1904 C1913 1.390 . S
C1905 C1904 1.387 . S
C1905 C1907 1.387 . S
H1906 C1913 0.950 . S
C1907 C1905 1.387 . S
C1907 C1909 1.390 . S
C1907 H1911 0.950 . S
H1908 C1904 0.950 . S
C1909 C1907 1.390 . S
C1909 C1910 1.387 . S
C1909 H1912 0.950 . S
C1910 C1909 1.387 . S
C1910 C1913 1.387 . S
H1911 C1907 0.950 . S
H1912 C1909 0.950 . S
C1913 C1904 1.390 . S
C1913 H1906 0.950 . S
C1913 C1910 1.387 . S
C1914 C1915 1.387 . S
C1914 H1918 0.950 . S
C1914 C1923 1.390 . S
C1915 C1914 1.387 . S
C1915 C1917 1.387 . S
H1916 C1923 0.950 . S
C1917 C1915 1.387 . S
C1917 C1919 1.390 . S
C1917 H1921 0.950 . S
H1918 C1914 0.950 . S
C1919 C1917 1.390 . S
C1919 C1920 1.387 . S
C1919 H1922 0.950 . S
C1920 C1919 1.387 . S
C1920 C1923 1.387 . S
H1921 C1917 0.950 . S
H1922 C1919 0.950 . S
C1923 C1914 1.390 . S
C1923 H1916 0.950 . S
C1923 C1920 1.387 . S
C1924 C1925 1.387 . S
C1924 H1928 0.950 . S
C1924 C1933 1.390 . S
C1925 C1924 1.387 . S
C1925 C1927 1.387 . S
H1926 C1933 0.950 . S
C1927 C1925 1.387 . S
C1927 C1929 1.390 . S
C1927 H1931 0.950 . S
H1928 C1924 0.950 . S
C1929 C1927 1.390 . S
C1929 C1930 1.387 . S
C1929 H1932 0.950 . S
C1930 C1929 1.387 . S
C1930 C1933 1.387 . S
H1931 C1927 0.950 . S
H1932 C1929 0.950 . S
C1933 C1924 1.390 . S
C1933 H1926 0.950 . S
C1933 C1930 1.387 . S
C1934 C1935 1.387 . S
C1934 H1938 0.950 . S
C1934 C1943 1.390 . S
C1935 C1934 1.387 . S
C1935 C1937 1.387 . S
H1936 C1943 0.950 . S
C1937 C1935 1.387 . S
C1937 C1939 1.390 . S
C1937 H1941 0.950 . S
H1938 C1934 0.950 . S
C1939 C1937 1.390 . S
C1939 C1940 1.387 . S
C1939 H1942 0.950 . S
C1940 C1939 1.387 . S
C1940 C1943 1.387 . S
H1941 C1937 0.950 . S
H1942 C1939 0.950 . S
C1943 C1934 1.390 . S
C1943 H1936 0.950 . S
C1943 C1940 1.387 . S
C1944 C1945 1.387 . S
C1944 H1948 0.950 . S
C1944 C1953 1.390 . S
C1945 C1944 1.387 . S
C1945 C1947 1.387 . S
H1946 C1953 0.950 . S
C1947 C1945 1.387 . S
C1947 C1949 1.390 . S
C1947 H1951 0.950 . S
H1948 C1944 0.950 . S
C1949 C1947 1.390 . S
C1949 C1950 1.387 . S
C1949 H1952 0.950 . S
C1950 C1949 1.387 . S
C1950 C1953 1.387 . S
H1951 C1947 0.950 . S
H1952 C1949 0.950 . S
C1953 C1944 1.390 . S
C1953 H1946 0.950 . S
C1953 C1950 1.387 . S
C1954 C1955 1.387 . S
C1954 H1958 0.950 . S
C1954 C1963 1.390 . S
C1955 C1954 1.387 . S
C1955 C1957 1.387 . S
H1956 C1963 0.950 . S
C1957 C1955 1.387 . S
C1957 C1959 1.390 . S
C1957 H1961 0.950 . S
H1958 C1954 0.950 . S
C1959 C1957 1.390 . S
C1959 C1960 1.387 . S
C1959 H1962 0.950 . S
C1960 C1959 1.387 . S
C1960 C1963 1.387 . S
H1961 C1957 0.950 . S
H1962 C1959 0.950 . S
C1963 C1954 1.390 . S
C1963 H1956 0.950 . S
C1963 C1960 1.387 . S
C1964 C1965 1.387 . S
C1964 H1968 0.950 . S
C1964 C1973 1.390 . S
C1965 C1964 1.387 . S
C1965 C1967 1.387 . S
H1966 C1973 0.950 . S
C1967 C1965 1.387 . S
C1967 C1969 1.390 . S
C1967 H1971 0.950 . S
H1968 C1964 0.950 . S
C1969 C1967 1.390 . S
C1969 C1970 1.387 . S
C1969 H1972 0.950 . S
C1970 C1969 1.387 . S
C1970 C1973 1.387 . S
H1971 C1967 0.950 . S
H1972 C1969 0.950 . S
C1973 C1964 1.390 . S
C1973 H1966 0.950 . S
C1973 C1970 1.387 . S
C1974 C1975 1.387 . S
C1974 H1978 0.950 . S
C1974 C1983 1.390 . S
C1975 C1974 1.387 . S
C1975 C1977 1.387 . S
H1976 C1983 0.950 . S
C1977 C1975 1.387 . S
C1977 C1979 1.390 . S
C1977 H1981 0.950 . S
H1978 C1974 0.950 . S
C1979 C1977 1.390 . S
C1979 C1980 1.387 . S
C1979 H1982 0.950 . S
C1980 C1979 1.387 . S
C1980 C1983 1.387 . S
H1981 C1977 0.950 . S
H1982 C1979 0.950 . S
C1983 C1974 1.390 . S
C1983 H1976 0.950 . S
C1983 C1980 1.387 . S
C1984 C1985 1.387 . S
C1984 H1988 0.950 . S
C1984 C1993 1.390 . S
C1985 C1984 1.387 . S
C1985 C1987 1.387 . S
H1986 C1993 0.950 . S
C1987 C1985 1.387 . S
C1987 C1989 1.390 . S
C1987 H1991 0.950 . S
H1988 C1984 0.950 . S
C1989 C1987 1.390 . S
C1989 C1990 1.387 . S
C1989 H1992 0.950 . S
C1990 C1989 1.387 . S
C1990 C1993 1.387 . S
H1991 C1987 0.950 . S
H1992 C1989 0.950 . S
C1993 C1984 1.390 . S
C1993 H1986 0.950 . S
C1993 C1990 1.387 . S
C1994 C1995 1.387 . S
C1994 H1998 0.950 . S
C1994 C2003 1.390 . S
C1995 C1994 1.387 . S
C1995 C1997 1.387 . S
H1996 C2003 0.950 . S
C1997 C1995 1.387 . S
C1997 C1999 1.390 . S
C1997 H2001 0.950 . S
H1998 C1994 0.950 . S
C1999 C1997 1.390 . S
C1999 C2000 1.387 . S
C1999 H2002 0.950 . S
C2000 C1999 1.387 . S
C2000 C2003 1.387 . S
H2001 C1997 0.950 . S
H2002 C1999 0.950 . S
C2003 C1994 1.390 . S
C2003 H1996 0.950 . S
C2003 C2000 1.387 . S
C2004 C2005 1.387 . S
C2004 H2008 0.950 . S
C2004 C2013 1.390 . S
C2005 C2004 1.387 . S
C2005 C2007 1.387 . S
H2006 C2013 0.950 . S
C2007 C2005 1.387 . S
C2007 C2009 1.390 . S
C2007 H2011 0.950 1_545 S
H2008 C2004 0.950 . S
C2009 C2007 1.390 . S
C2009 C2010 1.387 . S
C2009 H2012 0.950 . S
C2010 C2009 1.387 . S
C2010 C2013 1.387 . S
H2011 C2007 0.950 1_565 S
H2012 C2009 0.950 . S
C2013 C2004 1.390 . S
C2013 H2006 0.950 . S
C2013 C2010 1.387 . S
C2014 C2015 1.387 . S
C2014 H2018 0.950 . S
C2014 C2023 1.390 . S
C2015 C2014 1.387 . S
C2015 C2017 1.387 . S
H2016 C2023 0.950 1_554 S
C2017 C2015 1.387 . S
C2017 C2019 1.390 . S
C2017 H2021 0.950 . S
H2018 C2014 0.950 . S
C2019 C2017 1.390 . S
C2019 C2020 1.387 . S
C2019 H2022 0.950 . S
C2020 C2019 1.387 . S
C2020 C2023 1.387 . S
H2021 C2017 0.950 . S
H2022 C2019 0.950 . S
C2023 C2014 1.390 . S
C2023 H2016 0.950 1_556 S
C2023 C2020 1.387 . S
C2024 C2025 1.387 . S
C2024 H2028 0.950 . S
C2024 C2033 1.390 . S
C2025 C2024 1.387 . S
C2025 C2027 1.387 . S
H2026 C2033 0.950 . S
C2027 C2025 1.387 . S
C2027 C2029 1.390 . S
C2027 H2031 0.950 . S
H2028 C2024 0.950 . S
C2029 C2027 1.390 . S
C2029 C2030 1.387 . S
C2029 H2032 0.950 . S
C2030 C2029 1.387 . S
C2030 C2033 1.387 . S
H2031 C2027 0.950 . S
H2032 C2029 0.950 . S
C2033 C2024 1.390 . S
C2033 H2026 0.950 . S
C2033 C2030 1.387 . S
C2034 C2035 1.387 . S
C2034 H2038 0.950 . S
C2034 C2043 1.390 . S
C2035 C2034 1.387 . S
C2035 C2037 1.387 . S
H2036 C2043 0.950 . S
C2037 C2035 1.387 . S
C2037 C2039 1.390 . S
C2037 H2041 0.950 1_554 S
H2038 C2034 0.950 . S
C2039 C2037 1.390 . S
C2039 C2040 1.387 . S
C2039 H2042 0.950 . S
C2040 C2039 1.387 . S
C2040 C2043 1.387 . S
H2041 C2037 0.950 1_556 S
H2042 C2039 0.950 . S
C2043 C2034 1.390 . S
C2043 H2036 0.950 . S
C2043 C2040 1.387 . S
C2044 C2045 1.387 . S
C2044 H2048 0.950 . S
C2044 C2053 1.390 . S
C2045 C2044 1.387 . S
C2045 C2047 1.387 . S
H2046 C2053 0.950 . S
C2047 C2045 1.387 . S
C2047 C2049 1.390 . S
C2047 H2051 0.950 . S
H2048 C2044 0.950 . S
C2049 C2047 1.390 . S
C2049 C2050 1.387 . S
C2049 H2052 0.950 . S
C2050 C2049 1.387 . S
C2050 C2053 1.387 . S
H2051 C2047 0.950 . S
H2052 C2049 0.950 . S
C2053 C2044 1.390 . S
C2053 H2046 0.950 . S
C2053 C2050 1.387 . S
C2054 C2055 1.387 . S
C2054 H2058 0.950 . S
C2054 C2063 1.390 . S
C2055 C2054 1.387 . S
C2055 C2057 1.387 . S
H2056 C2063 0.950 . S
C2057 C2055 1.387 . S
C2057 C2059 1.390 . S
C2057 H2061 0.950 . S
H2058 C2054 0.950 . S
C2059 C2057 1.390 . S
C2059 C2060 1.387 . S
C2059 H2062 0.950 . S
C2060 C2059 1.387 . S
C2060 C2063 1.387 . S
H2061 C2057 0.950 . S
H2062 C2059 0.950 . S
C2063 C2054 1.390 . S
C2063 H2056 0.950 . S
C2063 C2060 1.387 . S
C2064 C2065 1.387 1_655 S
C2064 H2068 0.950 . S
C2064 C2073 1.390 1_545 S
C2065 C2064 1.387 1_455 S
C2065 C2067 1.387 . S
H2066 C2073 0.950 . S
C2067 C2065 1.387 . S
C2067 C2069 1.390 1_545 S
C2067 H2071 0.950 . S
H2068 C2064 0.950 . S
C2069 C2067 1.390 1_565 S
C2069 C2070 1.387 . S
C2069 H2072 0.950 . S
C2070 C2069 1.387 . S
C2070 C2073 1.387 1_455 S
H2071 C2067 0.950 . S
H2072 C2069 0.950 . S
C2073 C2064 1.390 1_565 S
C2073 H2066 0.950 . S
C2073 C2070 1.387 1_655 S
C2074 C2075 1.387 . S
C2074 H2078 0.950 . S
C2074 C2083 1.390 1_556 S
C2075 C2074 1.387 . S
C2075 C2077 1.387 . S
H2076 C2083 0.950 . S
C2077 C2075 1.387 . S
C2077 C2079 1.390 1_556 S
C2077 H2081 0.950 . S
H2078 C2074 0.950 . S
C2079 C2077 1.390 1_554 S
C2079 C2080 1.387 . S
C2079 H2082 0.950 . S
C2080 C2079 1.387 . S
C2080 C2083 1.387 . S
H2081 C2077 0.950 . S
H2082 C2079 0.950 . S
C2083 C2074 1.390 1_554 S
C2083 H2076 0.950 . S
C2083 C2080 1.387 . S
C2084 C2085 1.387 1_455 S
C2084 H2088 0.950 . S
C2084 C2093 1.390 . S
C2085 C2084 1.387 1_655 S
C2085 C2087 1.387 . S
H2086 C2093 0.950 . S
C2087 C2085 1.387 . S
C2087 C2089 1.390 . S
C2087 H2091 0.950 . S
H2088 C2084 0.950 . S
C2089 C2087 1.390 . S
C2089 C2090 1.387 . S
C2089 H2092 0.950 . S
C2090 C2089 1.387 . S
C2090 C2093 1.387 1_655 S
H2091 C2087 0.950 . S
H2092 C2089 0.950 . S
C2093 C2084 1.390 . S
C2093 H2086 0.950 . S
C2093 C2090 1.387 1_455 S
C2094 C2095 1.387 . S
C2094 H2098 0.950 . S
C2094 C2103 1.390 1_554 S
C2095 C2094 1.387 . S
C2095 C2097 1.387 . S
H2096 C2103 0.950 . S
C2097 C2095 1.387 . S
C2097 C2099 1.390 1_554 S
C2097 H2101 0.950 . S
H2098 C2094 0.950 . S
C2099 C2097 1.390 1_556 S
C2099 C2100 1.387 . S
C2099 H2102 0.950 . S
C2100 C2099 1.387 . S
C2100 C2103 1.387 . S
H2101 C2097 0.950 . S
H2102 C2099 0.950 . S
C2103 C2094 1.390 1_556 S
C2103 H2096 0.950 . S
C2103 C2100 1.387 . S
C2104 C2105 1.387 . S
C2104 H2108 0.950 . S
C2104 C2113 1.390 1_556 S
C2105 C2104 1.387 . S
C2105 C2107 1.387 1_545 S
H2106 C2113 0.950 . S
C2107 C2105 1.387 1_565 S
C2107 C2109 1.390 1_556 S
C2107 H2111 0.950 . S
H2108 C2104 0.950 . S
C2109 C2107 1.390 1_554 S
C2109 C2110 1.387 1_565 S
C2109 H2112 0.950 . S
C2110 C2109 1.387 1_545 S
C2110 C2113 1.387 . S
H2111 C2107 0.950 . S
H2112 C2109 0.950 . S
C2113 C2104 1.390 1_554 S
C2113 H2106 0.950 . S
C2113 C2110 1.387 . S
C2114 C2115 1.387 . S
C2114 H2118 0.950 . S
C2114 C2123 1.390 . S
C2115 C2114 1.387 . S
C2115 C2117 1.387 . S
H2116 C2123 0.950 . S
C2117 C2115 1.387 . S
C2117 C2119 1.390 . S
C2117 H2121 0.950 . S
H2118 C2114 0.950 . S
C2119 C2117 1.390 . S
C2119 C2120 1.387 . S
C2119 H2122 0.950 . S
C2120 C2119 1.387 . S
C2120 C2123 1.387 . S
H2121 C2117 0.950 . S
H2122 C2119 0.950 . S
C2123 C2114 1.390 . S
C2123 H2116 0.950 . S
C2123 C2120 1.387 . S
C2124 C2125 1.387 . S
C2124 H2128 0.950 . S
C2124 C2133 1.390 1_556 S
C2125 C2124 1.387 . S
C2125 C2127 1.387 . S
H2126 C2133 0.950 . S
C2127 C2125 1.387 . S
C2127 C2129 1.390 1_556 S
C2127 H2131 0.950 . S
H2128 C2124 0.950 . S
C2129 C2127 1.390 1_554 S
C2129 C2130 1.387 . S
C2129 H2132 0.950 . S
C2130 C2129 1.387 . S
C2130 C2133 1.387 . S
H2131 C2127 0.950 . S
H2132 C2129 0.950 . S
C2133 C2124 1.390 1_554 S
C2133 H2126 0.950 . S
C2133 C2130 1.387 . S
C2134 C2135 1.387 . S
C2134 H2138 0.950 . S
C2134 C2143 1.390 1_545 S
C2135 C2134 1.387 . S
C2135 C2137 1.387 . S
H2136 C2143 0.950 . S
C2137 C2135 1.387 . S
C2137 C2139 1.390 1_545 S
C2137 H2141 0.950 . S
H2138 C2134 0.950 . S
C2139 C2137 1.390 1_565 S
C2139 C2140 1.387 . S
C2139 H2142 0.950 . S
C2140 C2139 1.387 . S
C2140 C2143 1.387 . S
H2141 C2137 0.950 . S
H2142 C2139 0.950 . S
C2143 C2134 1.390 1_565 S
C2143 H2136 0.950 . S
C2143 C2140 1.387 . S
C2144 C2145 1.387 . S
C2144 H2148 0.950 . S
C2144 C2153 1.390 . S
C2145 C2144 1.387 . S
C2145 C2147 1.387 1_565 S
H2146 C2153 0.950 . S
C2147 C2145 1.387 1_545 S
C2147 C2149 1.390 . S
C2147 H2151 0.950 . S
H2148 C2144 0.950 . S
C2149 C2147 1.390 . S
C2149 C2150 1.387 1_545 S
C2149 H2152 0.950 . S
C2150 C2149 1.387 1_565 S
C2150 C2153 1.387 . S
H2151 C2147 0.950 . S
H2152 C2149 0.950 . S
C2153 C2144 1.390 . S
C2153 H2146 0.950 . S
C2153 C2150 1.387 . S
C2154 C2155 1.387 . S
C2154 H2158 0.950 . S
C2154 C2163 1.390 . S
C2155 C2154 1.387 . S
C2155 C2157 1.387 . S
H2156 C2163 0.950 . S
C2157 C2155 1.387 . S
C2157 C2159 1.390 . S
C2157 H2161 0.950 . S
H2158 C2154 0.950 . S
C2159 C2157 1.390 . S
C2159 C2160 1.387 . S
C2159 H2162 0.950 . S
C2160 C2159 1.387 . S
C2160 C2163 1.387 . S
H2161 C2157 0.950 . S
H2162 C2159 0.950 . S
C2163 C2154 1.390 . S
C2163 H2156 0.950 . S
C2163 C2160 1.387 . S
C2164 C2165 1.387 . S
C2164 H2168 0.950 . S
C2164 C2173 1.390 . S
C2165 C2164 1.387 . S
C2165 C2167 1.387 . S
H2166 C2173 0.950 . S
C2167 C2165 1.387 . S
C2167 C2169 1.390 . S
C2167 H2171 0.950 . S
H2168 C2164 0.950 . S
C2169 C2167 1.390 . S
C2169 C2170 1.387 . S
C2169 H2172 0.950 . S
C2170 C2169 1.387 . S
C2170 C2173 1.387 . S
H2171 C2167 0.950 . S
H2172 C2169 0.950 . S
C2173 C2164 1.390 . S
C2173 H2166 0.950 . S
C2173 C2170 1.387 . S
C2174 C2175 1.387 . S
C2174 H2178 0.950 . S
C2174 C2183 1.390 1_545 S
C2175 C2174 1.387 . S
C2175 C2177 1.387 . S
H2176 C2183 0.950 . S
C2177 C2175 1.387 . S
C2177 C2179 1.390 1_545 S
C2177 H2181 0.950 . S
H2178 C2174 0.950 . S
C2179 C2177 1.390 1_565 S
C2179 C2180 1.387 . S
C2179 H2182 0.950 . S
C2180 C2179 1.387 . S
C2180 C2183 1.387 . S
H2181 C2177 0.950 . S
H2182 C2179 0.950 . S
C2183 C2174 1.390 1_565 S
C2183 H2176 0.950 . S
C2183 C2180 1.387 . S
C2184 C2185 1.387 . S
C2184 H2188 0.950 . S
C2184 C2193 1.390 1_655 S
C2185 C2184 1.387 . S
C2185 C2187 1.387 1_554 S
H2186 C2193 0.950 . S
C2187 C2185 1.387 1_556 S
C2187 C2189 1.390 1_655 S
C2187 H2191 0.950 . S
H2188 C2184 0.950 . S
C2189 C2187 1.390 1_455 S
C2189 C2190 1.387 1_556 S
C2189 H2192 0.950 . S
C2190 C2189 1.387 1_554 S
C2190 C2193 1.387 . S
H2191 C2187 0.950 . S
H2192 C2189 0.950 . S
C2193 C2184 1.390 1_455 S
C2193 H2186 0.950 . S
C2193 C2190 1.387 . S
C2194 C2195 1.387 . S
C2194 H2198 0.950 . S
C2194 C2203 1.390 1_655 S
C2195 C2194 1.387 . S
C2195 C2197 1.387 . S
H2196 C2203 0.950 . S
C2197 C2195 1.387 . S
C2197 C2199 1.390 1_655 S
C2197 H2201 0.950 . S
H2198 C2194 0.950 . S
C2199 C2197 1.390 1_455 S
C2199 C2200 1.387 . S
C2199 H2202 0.950 . S
C2200 C2199 1.387 . S
C2200 C2203 1.387 . S
H2201 C2197 0.950 . S
H2202 C2199 0.950 . S
C2203 C2194 1.390 1_455 S
C2203 H2196 0.950 . S
C2203 C2200 1.387 . S
C2204 C2205 1.387 . S
C2204 H2208 0.950 . S
C2204 C2213 1.390 1_455 S
C2205 C2204 1.387 . S
C2205 C2207 1.387 . S
H2206 C2213 0.950 . S
C2207 C2205 1.387 . S
C2207 C2209 1.390 1_455 S
C2207 H2211 0.950 . S
H2208 C2204 0.950 . S
C2209 C2207 1.390 1_655 S
C2209 C2210 1.387 . S
C2209 H2212 0.950 . S
C2210 C2209 1.387 . S
C2210 C2213 1.387 . S
H2211 C2207 0.950 . S
H2212 C2209 0.950 . S
C2213 C2204 1.390 1_655 S
C2213 H2206 0.950 . S
C2213 C2210 1.387 . S
C2214 C2215 1.387 . S
C2214 H2218 0.950 . S
C2214 C2223 1.390 . S
C2215 C2214 1.387 . S
C2215 C2217 1.387 . S
H2216 C2223 0.950 . S
C2217 C2215 1.387 . S
C2217 C2219 1.390 . S
C2217 H2221 0.950 . S
H2218 C2214 0.950 . S
C2219 C2217 1.390 . S
C2219 C2220 1.387 . S
C2219 H2222 0.950 . S
C2220 C2219 1.387 . S
C2220 C2223 1.387 . S
H2221 C2217 0.950 . S
H2222 C2219 0.950 . S
C2223 C2214 1.390 . S
C2223 H2216 0.950 . S
C2223 C2220 1.387 . S
C2224 C2225 1.387 . S
C2224 H2228 0.950 . S
C2224 C2233 1.390 . S
C2225 C2224 1.387 . S
C2225 C2227 1.387 . S
H2226 C2233 0.950 . S
C2227 C2225 1.387 . S
C2227 C2229 1.390 . S
C2227 H2231 0.950 . S
H2228 C2224 0.950 . S
C2229 C2227 1.390 . S
C2229 C2230 1.387 . S
C2229 H2232 0.950 . S
C2230 C2229 1.387 . S
C2230 C2233 1.387 . S
H2231 C2227 0.950 . S
H2232 C2229 0.950 . S
C2233 C2224 1.390 . S
C2233 H2226 0.950 . S
C2233 C2230 1.387 . S
C2234 C2235 1.387 . S
C2234 H2238 0.950 . S
C2234 C2243 1.390 1_655 S
C2235 C2234 1.387 . S
C2235 C2237 1.387 . S
H2236 C2243 0.950 . S
C2237 C2235 1.387 . S
C2237 C2239 1.390 1_655 S
C2237 H2241 0.950 . S
H2238 C2234 0.950 . S
C2239 C2237 1.390 1_455 S
C2239 C2240 1.387 . S
C2239 H2242 0.950 . S
C2240 C2239 1.387 . S
C2240 C2243 1.387 . S
H2241 C2237 0.950 . S
H2242 C2239 0.950 . S
C2243 C2234 1.390 1_455 S
C2243 H2236 0.950 . S
C2243 C2240 1.387 . S
C2244 C2245 1.387 . S
C2244 H2248 0.950 . S
C2244 C2253 1.390 . S
C2245 C2244 1.387 . S
C2245 C2247 1.387 . S
H2246 C2253 0.950 . S
C2247 C2245 1.387 . S
C2247 C2249 1.390 . S
C2247 H2251 0.950 . S
H2248 C2244 0.950 . S
C2249 C2247 1.390 . S
C2249 C2250 1.387 . S
C2249 H2252 0.950 . S
C2250 C2249 1.387 . S
C2250 C2253 1.387 . S
H2251 C2247 0.950 . S
H2252 C2249 0.950 . S
C2253 C2244 1.390 . S
C2253 H2246 0.950 . S
C2253 C2250 1.387 . S
C2254 C2255 1.387 . S
C2254 H2258 0.950 . S
C2254 C2263 1.390 . S
C2255 C2254 1.387 . S
C2255 C2257 1.387 . S
H2256 C2263 0.950 . S
C2257 C2255 1.387 . S
C2257 C2259 1.390 . S
C2257 H2261 0.950 . S
H2258 C2254 0.950 . S
C2259 C2257 1.390 . S
C2259 C2260 1.387 . S
C2259 H2262 0.950 . S
C2260 C2259 1.387 . S
C2260 C2263 1.387 . S
H2261 C2257 0.950 . S
H2262 C2259 0.950 . S
C2263 C2254 1.390 . S
C2263 H2256 0.950 . S
C2263 C2260 1.387 . S
C2264 C2265 1.387 . S
C2264 H2268 0.950 . S
C2264 C2273 1.390 1_565 S
C2265 C2264 1.387 . S
C2265 C2267 1.387 . S
H2266 C2273 0.950 . S
C2267 C2265 1.387 . S
C2267 C2269 1.390 1_565 S
C2267 H2271 0.950 . S
H2268 C2264 0.950 . S
C2269 C2267 1.390 1_545 S
C2269 C2270 1.387 . S
C2269 H2272 0.950 . S
C2270 C2269 1.387 . S
C2270 C2273 1.387 . S
H2271 C2267 0.950 . S
H2272 C2269 0.950 . S
C2273 C2264 1.390 1_545 S
C2273 H2266 0.950 . S
C2273 C2270 1.387 . S
C2274 C2275 1.387 . S
C2274 H2278 0.950 . S
C2274 C2283 1.390 . S
C2275 C2274 1.387 . S
C2275 C2277 1.387 . S
H2276 C2283 0.950 . S
C2277 C2275 1.387 . S
C2277 C2279 1.390 . S
C2277 H2281 0.950 . S
H2278 C2274 0.950 . S
C2279 C2277 1.390 . S
C2279 C2280 1.387 . S
C2279 H2282 0.950 . S
C2280 C2279 1.387 . S
C2280 C2283 1.387 . S
H2281 C2277 0.950 . S
H2282 C2279 0.950 . S
C2283 C2274 1.390 . S
C2283 H2276 0.950 . S
C2283 C2280 1.387 . S
C2284 C2285 1.387 . S
C2284 H2288 0.950 . S
C2284 C2293 1.390 . S
C2285 C2284 1.387 . S
C2285 C2287 1.387 1_556 S
H2286 C2293 0.950 . S
C2287 C2285 1.387 1_554 S
C2287 C2289 1.390 . S
C2287 H2291 0.950 . S
H2288 C2284 0.950 . S
C2289 C2287 1.390 . S
C2289 C2290 1.387 1_554 S
C2289 H2292 0.950 . S
C2290 C2289 1.387 1_556 S
C2290 C2293 1.387 . S
H2291 C2287 0.950 . S
H2292 C2289 0.950 . S
C2293 C2284 1.390 . S
C2293 H2286 0.950 . S
C2293 C2290 1.387 . S
C2294 C2295 1.387 . S
C2294 H2298 0.950 . S
C2294 C2303 1.390 . S
C2295 C2294 1.387 . S
C2295 C2297 1.387 . S
H2296 C2303 0.950 . S
C2297 C2295 1.387 . S
C2297 C2299 1.390 . S
C2297 H2301 0.950 . S
H2298 C2294 0.950 . S
C2299 C2297 1.390 . S
C2299 C2300 1.387 . S
C2299 H2302 0.950 . S
C2300 C2299 1.387 . S
C2300 C2303 1.387 . S
H2301 C2297 0.950 . S
H2302 C2299 0.950 . S
C2303 C2294 1.390 . S
C2303 H2296 0.950 . S
C2303 C2300 1.387 . S
C2304 C2305 1.387 . S
C2304 H2308 0.950 . S
C2304 C2313 1.390 . S
C2305 C2304 1.387 . S
C2305 C2307 1.387 . S
H2306 C2313 0.950 . S
C2307 C2305 1.387 . S
C2307 C2309 1.390 . S
C2307 H2311 0.950 . S
H2308 C2304 0.950 . S
C2309 C2307 1.390 . S
C2309 C2310 1.387 . S
C2309 H2312 0.950 . S
C2310 C2309 1.387 . S
C2310 C2313 1.387 . S
H2311 C2307 0.950 . S
H2312 C2309 0.950 . S
C2313 C2304 1.390 . S
C2313 H2306 0.950 . S
C2313 C2310 1.387 . S
C2314 C2315 1.387 . S
C2314 H2318 0.950 . S
C2314 C2323 1.390 . S
C2315 C2314 1.387 . S
C2315 C2317 1.387 . S
H2316 C2323 0.950 . S
C2317 C2315 1.387 . S
C2317 C2319 1.390 . S
C2317 H2321 0.950 . S
H2318 C2314 0.950 . S
C2319 C2317 1.390 . S
C2319 C2320 1.387 . S
C2319 H2322 0.950 . S
C2320 C2319 1.387 . S
C2320 C2323 1.387 . S
H2321 C2317 0.950 . S
H2322 C2319 0.950 . S
C2323 C2314 1.390 . S
C2323 H2316 0.950 . S
C2323 C2320 1.387 . S
C2324 C2325 1.387 . S
C2324 H2328 0.950 . S
C2324 C2333 1.390 . S
C2325 C2324 1.387 . S
C2325 C2327 1.387 . S
H2326 C2333 0.950 . S
C2327 C2325 1.387 . S
C2327 C2329 1.390 . S
C2327 H2331 0.950 . S
H2328 C2324 0.950 . S
C2329 C2327 1.390 . S
C2329 C2330 1.387 . S
C2329 H2332 0.950 . S
C2330 C2329 1.387 . S
C2330 C2333 1.387 . S
H2331 C2327 0.950 . S
H2332 C2329 0.950 . S
C2333 C2324 1.390 . S
C2333 H2326 0.950 . S
C2333 C2330 1.387 . S
C2334 C2335 1.387 . S
C2334 H2338 0.950 . S
C2334 C2343 1.390 . S
C2335 C2334 1.387 . S
C2335 C2337 1.387 . S
H2336 C2343 0.950 . S
C2337 C2335 1.387 . S
C2337 C2339 1.390 . S
C2337 H2341 0.950 . S
H2338 C2334 0.950 . S
C2339 C2337 1.390 . S
C2339 C2340 1.387 . S
C2339 H2342 0.950 . S
C2340 C2339 1.387 . S
C2340 C2343 1.387 . S
H2341 C2337 0.950 . S
H2342 C2339 0.950 . S
C2343 C2334 1.390 . S
C2343 H2336 0.950 . S
C2343 C2340 1.387 . S
C2344 C2345 1.387 . S
C2344 H2348 0.950 . S
C2344 C2353 1.390 . S
C2345 C2344 1.387 . S
C2345 C2347 1.387 . S
H2346 C2353 0.950 . S
C2347 C2345 1.387 . S
C2347 C2349 1.390 . S
C2347 H2351 0.950 . S
H2348 C2344 0.950 . S
C2349 C2347 1.390 . S
C2349 C2350 1.387 . S
C2349 H2352 0.950 . S
C2350 C2349 1.387 . S
C2350 C2353 1.387 . S
H2351 C2347 0.950 . S
H2352 C2349 0.950 . S
C2353 C2344 1.390 . S
C2353 H2346 0.950 . S
C2353 C2350 1.387 . S
C2354 C2355 1.387 . S
C2354 H2358 0.950 . S
C2354 C2363 1.390 . S
C2355 C2354 1.387 . S
C2355 C2357 1.387 . S
H2356 C2363 0.950 . S
C2357 C2355 1.387 . S
C2357 C2359 1.390 . S
C2357 H2361 0.950 . S
H2358 C2354 0.950 . S
C2359 C2357 1.390 . S
C2359 C2360 1.387 . S
C2359 H2362 0.950 . S
C2360 C2359 1.387 . S
C2360 C2363 1.387 . S
H2361 C2357 0.950 . S
H2362 C2359 0.950 . S
C2363 C2354 1.390 . S
C2363 H2356 0.950 . S
C2363 C2360 1.387 . S
C2364 C2365 1.387 . S
C2364 H2368 0.950 . S
C2364 C2373 1.390 . S
C2365 C2364 1.387 . S
C2365 C2367 1.387 . S
H2366 C2373 0.950 . S
C2367 C2365 1.387 . S
C2367 C2369 1.390 . S
C2367 H2371 0.950 . S
H2368 C2364 0.950 . S
C2369 C2367 1.390 . S
C2369 C2370 1.387 . S
C2369 H2372 0.950 . S
C2370 C2369 1.387 . S
C2370 C2373 1.387 . S
H2371 C2367 0.950 . S
H2372 C2369 0.950 . S
C2373 C2364 1.390 . S
C2373 H2366 0.950 . S
C2373 C2370 1.387 . S
C2374 C2375 1.387 . S
C2374 H2378 0.950 . S
C2374 C2383 1.390 . S
C2375 C2374 1.387 . S
C2375 C2377 1.387 . S
H2376 C2383 0.950 . S
C2377 C2375 1.387 . S
C2377 C2379 1.390 . S
C2377 H2381 0.950 . S
H2378 C2374 0.950 . S
C2379 C2377 1.390 . S
C2379 C2380 1.387 . S
C2379 H2382 0.950 . S
C2380 C2379 1.387 . S
C2380 C2383 1.387 . S
H2381 C2377 0.950 . S
H2382 C2379 0.950 . S
C2383 C2374 1.390 . S
C2383 H2376 0.950 . S
C2383 C2380 1.387 . S
C2384 C2385 1.387 . S
C2384 H2388 0.950 . S
C2384 C2393 1.390 . S
C2385 C2384 1.387 . S
C2385 C2387 1.387 . S
H2386 C2393 0.950 . S
C2387 C2385 1.387 . S
C2387 C2389 1.390 . S
C2387 H2391 0.950 . S
H2388 C2384 0.950 . S
C2389 C2387 1.390 . S
C2389 C2390 1.387 . S
C2389 H2392 0.950 . S
C2390 C2389 1.387 . S
C2390 C2393 1.387 . S
H2391 C2387 0.950 . S
H2392 C2389 0.950 . S
C2393 C2384 1.390 . S
C2393 H2386 0.950 . S
C2393 C2390 1.387 . S
C2394 C2395 1.387 . S
C2394 H2398 0.950 . S
C2394 C2403 1.390 . S
C2395 C2394 1.387 . S
C2395 C2397 1.387 . S
H2396 C2403 0.950 . S
C2397 C2395 1.387 . S
C2397 C2399 1.390 . S
C2397 H2401 0.950 . S
H2398 C2394 0.950 . S
C2399 C2397 1.390 . S
C2399 C2400 1.387 . S
C2399 H2402 0.950 . S
C2400 C2399 1.387 . S
C2400 C2403 1.387 . S
H2401 C2397 0.950 . S
H2402 C2399 0.950 . S
C2403 C2394 1.390 . S
C2403 H2396 0.950 . S
C2403 C2400 1.387 . S
C2404 C2405 1.387 . S
C2404 H2408 0.950 . S
C2404 C2413 1.390 . S
C2405 C2404 1.387 . S
C2405 C2407 1.387 . S
H2406 C2413 0.950 . S
C2407 C2405 1.387 . S
C2407 C2409 1.390 . S
C2407 H2411 0.950 . S
H2408 C2404 0.950 . S
C2409 C2407 1.390 . S
C2409 C2410 1.387 . S
C2409 H2412 0.950 . S
C2410 C2409 1.387 . S
C2410 C2413 1.387 . S
H2411 C2407 0.950 . S
H2412 C2409 0.950 . S
C2413 C2404 1.390 . S
C2413 H2406 0.950 . S
C2413 C2410 1.387 . S
C2414 C2415 1.387 . S
C2414 H2418 0.950 . S
C2414 C2423 1.390 . S
C2415 C2414 1.387 . S
C2415 C2417 1.387 . S
H2416 C2423 0.950 . S
C2417 C2415 1.387 . S
C2417 C2419 1.390 . S
C2417 H2421 0.950 . S
H2418 C2414 0.950 . S
C2419 C2417 1.390 . S
C2419 C2420 1.387 . S
C2419 H2422 0.950 . S
C2420 C2419 1.387 . S
C2420 C2423 1.387 . S
H2421 C2417 0.950 . S
H2422 C2419 0.950 . S
C2423 C2414 1.390 . S
C2423 H2416 0.950 . S
C2423 C2420 1.387 . S
C2424 C2425 1.387 . S
C2424 H2428 0.950 . S
C2424 C2433 1.390 . S
C2425 C2424 1.387 . S
C2425 C2427 1.387 . S
H2426 C2433 0.950 . S
C2427 C2425 1.387 . S
C2427 C2429 1.390 . S
C2427 H2431 0.950 . S
H2428 C2424 0.950 . S
C2429 C2427 1.390 . S
C2429 C2430 1.387 . S
C2429 H2432 0.950 . S
C2430 C2429 1.387 . S
C2430 C2433 1.387 . S
H2431 C2427 0.950 . S
H2432 C2429 0.950 . S
C2433 C2424 1.390 . S
C2433 H2426 0.950 . S
C2433 C2430 1.387 . S
C2434 C2435 1.387 . S
C2434 H2438 0.950 . S
C2434 C2443 1.390 . S
C2435 C2434 1.387 . S
C2435 C2437 1.387 . S
H2436 C2443 0.950 . S
C2437 C2435 1.387 . S
C2437 C2439 1.390 . S
C2437 H2441 0.950 . S
H2438 C2434 0.950 . S
C2439 C2437 1.390 . S
C2439 C2440 1.387 . S
C2439 H2442 0.950 . S
C2440 C2439 1.387 . S
C2440 C2443 1.387 . S
H2441 C2437 0.950 . S
H2442 C2439 0.950 . S
C2443 C2434 1.390 . S
C2443 H2436 0.950 . S
C2443 C2440 1.387 . S
C2444 C2445 1.387 . S
C2444 H2448 0.950 . S
C2444 C2453 1.390 . S
C2445 C2444 1.387 . S
C2445 C2447 1.387 . S
H2446 C2453 0.950 . S
C2447 C2445 1.387 . S
C2447 C2449 1.390 . S
C2447 H2451 0.950 . S
H2448 C2444 0.950 . S
C2449 C2447 1.390 . S
C2449 C2450 1.387 . S
C2449 H2452 0.950 . S
C2450 C2449 1.387 . S
C2450 C2453 1.387 . S
H2451 C2447 0.950 . S
H2452 C2449 0.950 . S
C2453 C2444 1.390 . S
C2453 H2446 0.950 . S
C2453 C2450 1.387 . S
C2454 C2455 1.387 . S
C2454 H2458 0.950 . S
C2454 C2463 1.390 . S
C2455 C2454 1.387 . S
C2455 C2457 1.387 . S
H2456 C2463 0.950 . S
C2457 C2455 1.387 . S
C2457 C2459 1.390 . S
C2457 H2461 0.950 . S
H2458 C2454 0.950 . S
C2459 C2457 1.390 . S
C2459 C2460 1.387 . S
C2459 H2462 0.950 . S
C2460 C2459 1.387 . S
C2460 C2463 1.387 . S
H2461 C2457 0.950 . S
H2462 C2459 0.950 . S
C2463 C2454 1.390 . S
C2463 H2456 0.950 . S
C2463 C2460 1.387 . S
C2464 C2465 1.387 . S
C2464 H2468 0.950 . S
C2464 C2473 1.390 . S
C2465 C2464 1.387 . S
C2465 C2467 1.387 . S
H2466 C2473 0.950 . S
C2467 C2465 1.387 . S
C2467 C2469 1.390 . S
C2467 H2471 0.950 . S
H2468 C2464 0.950 . S
C2469 C2467 1.390 . S
C2469 C2470 1.387 . S
C2469 H2472 0.950 . S
C2470 C2469 1.387 . S
C2470 C2473 1.387 . S
H2471 C2467 0.950 . S
H2472 C2469 0.950 . S
C2473 C2464 1.390 . S
C2473 H2466 0.950 . S
C2473 C2470 1.387 . S
C2474 C2475 1.387 . S
C2474 H2478 0.950 . S
C2474 C2483 1.390 . S
C2475 C2474 1.387 . S
C2475 C2477 1.387 . S
H2476 C2483 0.950 . S
C2477 C2475 1.387 . S
C2477 C2479 1.390 . S
C2477 H2481 0.950 . S
H2478 C2474 0.950 . S
C2479 C2477 1.390 . S
C2479 C2480 1.387 . S
C2479 H2482 0.950 . S
C2480 C2479 1.387 . S
C2480 C2483 1.387 . S
H2481 C2477 0.950 . S
H2482 C2479 0.950 . S
C2483 C2474 1.390 . S
C2483 H2476 0.950 . S
C2483 C2480 1.387 . S
C2484 C2485 1.387 . S
C2484 H2488 0.950 . S
C2484 C2493 1.390 . S
C2485 C2484 1.387 . S
C2485 C2487 1.387 . S
H2486 C2493 0.950 . S
C2487 C2485 1.387 . S
C2487 C2489 1.390 . S
C2487 H2491 0.950 . S
H2488 C2484 0.950 . S
C2489 C2487 1.390 . S
C2489 C2490 1.387 . S
C2489 H2492 0.950 . S
C2490 C2489 1.387 . S
C2490 C2493 1.387 . S
H2491 C2487 0.950 . S
H2492 C2489 0.950 . S
C2493 C2484 1.390 . S
C2493 H2486 0.950 . S
C2493 C2490 1.387 . S
C2494 C2495 1.387 . S
C2494 H2498 0.950 . S
C2494 C2503 1.390 . S
C2495 C2494 1.387 . S
C2495 C2497 1.387 . S
H2496 C2503 0.950 . S
C2497 C2495 1.387 . S
C2497 C2499 1.390 . S
C2497 H2501 0.950 . S
H2498 C2494 0.950 . S
C2499 C2497 1.390 . S
C2499 C2500 1.387 . S
C2499 H2502 0.950 . S
C2500 C2499 1.387 . S
C2500 C2503 1.387 . S
H2501 C2497 0.950 . S
H2502 C2499 0.950 . S
C2503 C2494 1.390 . S
C2503 H2496 0.950 . S
C2503 C2500 1.387 . S
C2504 C2505 1.387 . S
C2504 H2508 0.950 . S
C2504 C2513 1.390 . S
C2505 C2504 1.387 . S
C2505 C2507 1.387 . S
H2506 C2513 0.950 . S
C2507 C2505 1.387 . S
C2507 C2509 1.390 . S
C2507 H2511 0.950 . S
H2508 C2504 0.950 . S
C2509 C2507 1.390 . S
C2509 C2510 1.387 . S
C2509 H2512 0.950 . S
C2510 C2509 1.387 . S
C2510 C2513 1.387 . S
H2511 C2507 0.950 . S
H2512 C2509 0.950 . S
C2513 C2504 1.390 . S
C2513 H2506 0.950 . S
C2513 C2510 1.387 . S
C2514 C2515 1.387 . S
C2514 H2518 0.950 . S
C2514 C2523 1.390 . S
C2515 C2514 1.387 . S
C2515 C2517 1.387 . S
H2516 C2523 0.950 . S
C2517 C2515 1.387 . S
C2517 C2519 1.390 . S
C2517 H2521 0.950 . S
H2518 C2514 0.950 . S
C2519 C2517 1.390 . S
C2519 C2520 1.387 . S
C2519 H2522 0.950 . S
C2520 C2519 1.387 . S
C2520 C2523 1.387 . S
H2521 C2517 0.950 . S
H2522 C2519 0.950 . S
C2523 C2514 1.390 . S
C2523 H2516 0.950 . S
C2523 C2520 1.387 . S
C2524 C2525 1.387 . S
C2524 H2528 0.950 . S
C2524 C2533 1.390 . S
C2525 C2524 1.387 . S
C2525 C2527 1.387 . S
H2526 C2533 0.950 . S
C2527 C2525 1.387 . S
C2527 C2529 1.390 . S
C2527 H2531 0.950 . S
H2528 C2524 0.950 . S
C2529 C2527 1.390 . S
C2529 C2530 1.387 . S
C2529 H2532 0.950 . S
C2530 C2529 1.387 . S
C2530 C2533 1.387 . S
H2531 C2527 0.950 . S
H2532 C2529 0.950 . S
C2533 C2524 1.390 . S
C2533 H2526 0.950 . S
C2533 C2530 1.387 . S
C2534 C2535 1.387 . S
C2534 H2538 0.950 . S
C2534 C2543 1.390 . S
C2535 C2534 1.387 . S
C2535 C2537 1.387 . S
H2536 C2543 0.950 . S
C2537 C2535 1.387 . S
C2537 C2539 1.390 . S
C2537 H2541 0.950 . S
H2538 C2534 0.950 . S
C2539 C2537 1.390 . S
C2539 C2540 1.387 . S
C2539 H2542 0.950 . S
C2540 C2539 1.387 . S
C2540 C2543 1.387 . S
H2541 C2537 0.950 . S
H2542 C2539 0.950 . S
C2543 C2534 1.390 . S
C2543 H2536 0.950 . S
C2543 C2540 1.387 . S
C2544 C2545 1.387 . S
C2544 H2548 0.950 . S
C2544 C2553 1.390 . S
C2545 C2544 1.387 . S
C2545 C2547 1.387 . S
H2546 C2553 0.950 . S
C2547 C2545 1.387 . S
C2547 C2549 1.390 . S
C2547 H2551 0.950 . S
H2548 C2544 0.950 . S
C2549 C2547 1.390 . S
C2549 C2550 1.387 . S
C2549 H2552 0.950 . S
C2550 C2549 1.387 . S
C2550 C2553 1.387 . S
H2551 C2547 0.950 . S
H2552 C2549 0.950 . S
C2553 C2544 1.390 . S
C2553 H2546 0.950 . S
C2553 C2550 1.387 . S
C2554 C2555 1.387 . S
C2554 H2558 0.950 . S
C2554 C2563 1.390 . S
C2555 C2554 1.387 . S
C2555 C2557 1.387 . S
H2556 C2563 0.950 . S
C2557 C2555 1.387 . S
C2557 C2559 1.390 . S
C2557 H2561 0.950 . S
H2558 C2554 0.950 . S
C2559 C2557 1.390 . S
C2559 C2560 1.387 . S
C2559 H2562 0.950 . S
C2560 C2559 1.387 . S
C2560 C2563 1.387 . S
H2561 C2557 0.950 . S
H2562 C2559 0.950 . S
C2563 C2554 1.390 . S
C2563 H2556 0.950 . S
C2563 C2560 1.387 . S
C2564 C2565 1.387 . S
C2564 H2568 0.950 . S
C2564 C2573 1.390 . S
C2565 C2564 1.387 . S
C2565 C2567 1.387 . S
H2566 C2573 0.950 . S
C2567 C2565 1.387 . S
C2567 C2569 1.390 . S
C2567 H2571 0.950 . S
H2568 C2564 0.950 . S
C2569 C2567 1.390 . S
C2569 C2570 1.387 . S
C2569 H2572 0.950 . S
C2570 C2569 1.387 . S
C2570 C2573 1.387 . S
H2571 C2567 0.950 . S
H2572 C2569 0.950 . S
C2573 C2564 1.390 . S
C2573 H2566 0.950 . S
C2573 C2570 1.387 . S
C2574 C2575 1.387 . S
C2574 H2578 0.950 . S
C2574 C2583 1.390 . S
C2575 C2574 1.387 . S
C2575 C2577 1.387 . S
H2576 C2583 0.950 . S
C2577 C2575 1.387 . S
C2577 C2579 1.390 . S
C2577 H2581 0.950 . S
H2578 C2574 0.950 . S
C2579 C2577 1.390 . S
C2579 C2580 1.387 . S
C2579 H2582 0.950 . S
C2580 C2579 1.387 . S
C2580 C2583 1.387 . S
H2581 C2577 0.950 . S
H2582 C2579 0.950 . S
C2583 C2574 1.390 . S
C2583 H2576 0.950 . S
C2583 C2580 1.387 . S
C2584 C2585 1.387 . S
C2584 H2588 0.950 . S
C2584 C2593 1.390 . S
C2585 C2584 1.387 . S
C2585 C2587 1.387 . S
H2586 C2593 0.950 . S
C2587 C2585 1.387 . S
C2587 C2589 1.390 . S
C2587 H2591 0.950 . S
H2588 C2584 0.950 . S
C2589 C2587 1.390 . S
C2589 C2590 1.387 . S
C2589 H2592 0.950 . S
C2590 C2589 1.387 . S
C2590 C2593 1.387 . S
H2591 C2587 0.950 . S
H2592 C2589 0.950 . S
C2593 C2584 1.390 . S
C2593 H2586 0.950 . S
C2593 C2590 1.387 . S
C2594 C2595 1.387 . S
C2594 H2598 0.950 . S
C2594 C2603 1.390 . S
C2595 C2594 1.387 . S
C2595 C2597 1.387 . S
H2596 C2603 0.950 . S
C2597 C2595 1.387 . S
C2597 C2599 1.390 . S
C2597 H2601 0.950 . S
H2598 C2594 0.950 . S
C2599 C2597 1.390 . S
C2599 C2600 1.387 . S
C2599 H2602 0.950 . S
C2600 C2599 1.387 . S
C2600 C2603 1.387 . S
H2601 C2597 0.950 . S
H2602 C2599 0.950 . S
C2603 C2594 1.390 . S
C2603 H2596 0.950 . S
C2603 C2600 1.387 . S
C2604 C2605 1.387 . S
C2604 H2608 0.950 . S
C2604 C2613 1.390 . S
C2605 C2604 1.387 . S
C2605 C2607 1.387 . S
H2606 C2613 0.950 . S
C2607 C2605 1.387 . S
C2607 C2609 1.390 . S
C2607 H2611 0.950 . S
H2608 C2604 0.950 . S
C2609 C2607 1.390 . S
C2609 C2610 1.387 . S
C2609 H2612 0.950 . S
C2610 C2609 1.387 . S
C2610 C2613 1.387 . S
H2611 C2607 0.950 . S
H2612 C2609 0.950 . S
C2613 C2604 1.390 . S
C2613 H2606 0.950 . S
C2613 C2610 1.387 . S
C2614 C2615 1.387 . S
C2614 H2618 0.950 . S
C2614 C2623 1.390 . S
C2615 C2614 1.387 . S
C2615 C2617 1.387 . S
H2616 C2623 0.950 . S
C2617 C2615 1.387 . S
C2617 C2619 1.390 . S
C2617 H2621 0.950 . S
H2618 C2614 0.950 . S
C2619 C2617 1.390 . S
C2619 C2620 1.387 . S
C2619 H2622 0.950 . S
C2620 C2619 1.387 . S
C2620 C2623 1.387 . S
H2621 C2617 0.950 . S
H2622 C2619 0.950 . S
C2623 C2614 1.390 . S
C2623 H2616 0.950 . S
C2623 C2620 1.387 . S
C2624 C2625 1.387 . S
C2624 H2628 0.950 . S
C2624 C2633 1.390 . S
C2625 C2624 1.387 . S
C2625 C2627 1.387 . S
H2626 C2633 0.950 . S
C2627 C2625 1.387 . S
C2627 C2629 1.390 . S
C2627 H2631 0.950 . S
H2628 C2624 0.950 . S
C2629 C2627 1.390 . S
C2629 C2630 1.387 . S
C2629 H2632 0.950 . S
C2630 C2629 1.387 . S
C2630 C2633 1.387 . S
H2631 C2627 0.950 . S
H2632 C2629 0.950 . S
C2633 C2624 1.390 . S
C2633 H2626 0.950 . S
C2633 C2630 1.387 . S
C2634 C2635 1.387 . S
C2634 H2638 0.950 . S
C2634 C2643 1.390 . S
C2635 C2634 1.387 . S
C2635 C2637 1.387 . S
H2636 C2643 0.950 . S
C2637 C2635 1.387 . S
C2637 C2639 1.390 . S
C2637 H2641 0.950 . S
H2638 C2634 0.950 . S
C2639 C2637 1.390 . S
C2639 C2640 1.387 . S
C2639 H2642 0.950 . S
C2640 C2639 1.387 . S
C2640 C2643 1.387 . S
H2641 C2637 0.950 . S
H2642 C2639 0.950 . S
C2643 C2634 1.390 . S
C2643 H2636 0.950 . S
C2643 C2640 1.387 . S
C2644 C2645 1.387 . S
C2644 H2648 0.950 . S
C2644 C2653 1.390 . S
C2645 C2644 1.387 . S
C2645 C2647 1.387 . S
H2646 C2653 0.950 . S
C2647 C2645 1.387 . S
C2647 C2649 1.390 . S
C2647 H2651 0.950 . S
H2648 C2644 0.950 . S
C2649 C2647 1.390 . S
C2649 C2650 1.387 . S
C2649 H2652 0.950 . S
C2650 C2649 1.387 . S
C2650 C2653 1.387 . S
H2651 C2647 0.950 . S
H2652 C2649 0.950 . S
C2653 C2644 1.390 . S
C2653 H2646 0.950 . S
C2653 C2650 1.387 . S
C2654 C2655 1.387 . S
C2654 H2658 0.950 . S
C2654 C2663 1.390 . S
C2655 C2654 1.387 . S
C2655 C2657 1.387 . S
H2656 C2663 0.950 . S
C2657 C2655 1.387 . S
C2657 C2659 1.390 . S
C2657 H2661 0.950 . S
H2658 C2654 0.950 . S
C2659 C2657 1.390 . S
C2659 C2660 1.387 . S
C2659 H2662 0.950 . S
C2660 C2659 1.387 . S
C2660 C2663 1.387 . S
H2661 C2657 0.950 . S
H2662 C2659 0.950 . S
C2663 C2654 1.390 . S
C2663 H2656 0.950 . S
C2663 C2660 1.387 . S
C2664 C2665 1.387 . S
C2664 H2668 0.950 . S
C2664 C2673 1.390 . S
C2665 C2664 1.387 . S
C2665 C2667 1.387 . S
H2666 C2673 0.950 . S
C2667 C2665 1.387 . S
C2667 C2669 1.390 . S
C2667 H2671 0.950 . S
H2668 C2664 0.950 . S
C2669 C2667 1.390 . S
C2669 C2670 1.387 . S
C2669 H2672 0.950 . S
C2670 C2669 1.387 . S
C2670 C2673 1.387 . S
H2671 C2667 0.950 . S
H2672 C2669 0.950 . S
C2673 C2664 1.390 . S
C2673 H2666 0.950 . S
C2673 C2670 1.387 . S
C2674 C2675 1.387 . S
C2674 H2678 0.950 . S
C2674 C2683 1.390 . S
C2675 C2674 1.387 . S
C2675 C2677 1.387 . S
H2676 C2683 0.950 . S
C2677 C2675 1.387 . S
C2677 C2679 1.390 . S
C2677 H2681 0.950 . S
H2678 C2674 0.950 . S
C2679 C2677 1.390 . S
C2679 C2680 1.387 . S
C2679 H2682 0.950 . S
C2680 C2679 1.387 . S
C2680 C2683 1.387 . S
H2681 C2677 0.950 . S
H2682 C2679 0.950 . S
C2683 C2674 1.390 . S
C2683 H2676 0.950 . S
C2683 C2680 1.387 . S
C2684 C2685 1.387 . S
C2684 H2688 0.950 . S
C2684 C2693 1.390 . S
C2685 C2684 1.387 . S
C2685 C2687 1.387 . S
H2686 C2693 0.950 . S
C2687 C2685 1.387 . S
C2687 C2689 1.390 . S
C2687 H2691 0.950 . S
H2688 C2684 0.950 . S
C2689 C2687 1.390 . S
C2689 C2690 1.387 . S
C2689 H2692 0.950 . S
C2690 C2689 1.387 . S
C2690 C2693 1.387 . S
H2691 C2687 0.950 . S
H2692 C2689 0.950 . S
C2693 C2684 1.390 . S
C2693 H2686 0.950 . S
C2693 C2690 1.387 . S
C2694 C2695 1.387 . S
C2694 H2698 0.950 . S
C2694 C2703 1.390 . S
C2695 C2694 1.387 . S
C2695 C2697 1.387 . S
H2696 C2703 0.950 . S
C2697 C2695 1.387 . S
C2697 C2699 1.390 . S
C2697 H2701 0.950 . S
H2698 C2694 0.950 . S
C2699 C2697 1.390 . S
C2699 C2700 1.387 . S
C2699 H2702 0.950 . S
C2700 C2699 1.387 . S
C2700 C2703 1.387 . S
H2701 C2697 0.950 . S
H2702 C2699 0.950 . S
C2703 C2694 1.390 . S
C2703 H2696 0.950 . S
C2703 C2700 1.387 . S
C2704 C2705 1.387 . S
C2704 H2708 0.950 . S
C2704 C2713 1.390 . S
C2705 C2704 1.387 . S
C2705 C2707 1.387 . S
H2706 C2713 0.950 . S
C2707 C2705 1.387 . S
C2707 C2709 1.390 . S
C2707 H2711 0.950 . S
H2708 C2704 0.950 . S
C2709 C2707 1.390 . S
C2709 C2710 1.387 . S
C2709 H2712 0.950 . S
C2710 C2709 1.387 . S
C2710 C2713 1.387 . S
H2711 C2707 0.950 . S
H2712 C2709 0.950 . S
C2713 C2704 1.390 . S
C2713 H2706 0.950 . S
C2713 C2710 1.387 . S
C2714 C2715 1.387 . S
C2714 H2718 0.950 . S
C2714 C2723 1.390 . S
C2715 C2714 1.387 . S
C2715 C2717 1.387 . S
H2716 C2723 0.950 . S
C2717 C2715 1.387 . S
C2717 C2719 1.390 . S
C2717 H2721 0.950 . S
H2718 C2714 0.950 . S
C2719 C2717 1.390 . S
C2719 C2720 1.387 . S
C2719 H2722 0.950 . S
C2720 C2719 1.387 . S
C2720 C2723 1.387 . S
H2721 C2717 0.950 . S
H2722 C2719 0.950 . S
C2723 C2714 1.390 . S
C2723 H2716 0.950 . S
C2723 C2720 1.387 . S
C2724 C2725 1.387 . S
C2724 H2728 0.950 . S
C2724 C2733 1.390 . S
C2725 C2724 1.387 . S
C2725 C2727 1.387 . S
H2726 C2733 0.950 . S
C2727 C2725 1.387 . S
C2727 C2729 1.390 . S
C2727 H2731 0.950 . S
H2728 C2724 0.950 . S
C2729 C2727 1.390 . S
C2729 C2730 1.387 . S
C2729 H2732 0.950 . S
C2730 C2729 1.387 . S
C2730 C2733 1.387 . S
H2731 C2727 0.950 . S
H2732 C2729 0.950 . S
C2733 C2724 1.390 . S
C2733 H2726 0.950 . S
C2733 C2730 1.387 . S
C2734 C2735 1.387 . S
C2734 H2738 0.950 . S
C2734 C2743 1.390 . S
C2735 C2734 1.387 . S
C2735 C2737 1.387 . S
H2736 C2743 0.950 . S
C2737 C2735 1.387 . S
C2737 C2739 1.390 . S
C2737 H2741 0.950 . S
H2738 C2734 0.950 . S
C2739 C2737 1.390 . S
C2739 C2740 1.387 . S
C2739 H2742 0.950 . S
C2740 C2739 1.387 . S
C2740 C2743 1.387 . S
H2741 C2737 0.950 . S
H2742 C2739 0.950 . S
C2743 C2734 1.390 . S
C2743 H2736 0.950 . S
C2743 C2740 1.387 . S
C2744 C2745 1.387 . S
C2744 H2748 0.950 . S
C2744 C2753 1.390 . S
C2745 C2744 1.387 . S
C2745 C2747 1.387 . S
H2746 C2753 0.950 . S
C2747 C2745 1.387 . S
C2747 C2749 1.390 . S
C2747 H2751 0.950 . S
H2748 C2744 0.950 . S
C2749 C2747 1.390 . S
C2749 C2750 1.387 . S
C2749 H2752 0.950 . S
C2750 C2749 1.387 . S
C2750 C2753 1.387 . S
H2751 C2747 0.950 . S
H2752 C2749 0.950 . S
C2753 C2744 1.390 . S
C2753 H2746 0.950 . S
C2753 C2750 1.387 . S
C2754 C2755 1.387 . S
C2754 H2758 0.950 . S
C2754 C2763 1.390 . S
C2755 C2754 1.387 . S
C2755 C2757 1.387 . S
H2756 C2763 0.950 . S
C2757 C2755 1.387 . S
C2757 C2759 1.390 . S
C2757 H2761 0.950 . S
H2758 C2754 0.950 . S
C2759 C2757 1.390 . S
C2759 C2760 1.387 . S
C2759 H2762 0.950 . S
C2760 C2759 1.387 . S
C2760 C2763 1.387 . S
H2761 C2757 0.950 . S
H2762 C2759 0.950 . S
C2763 C2754 1.390 . S
C2763 H2756 0.950 . S
C2763 C2760 1.387 . S
C2764 C2765 1.387 . S
C2764 H2768 0.950 . S
C2764 C2773 1.390 . S
C2765 C2764 1.387 . S
C2765 C2767 1.387 . S
H2766 C2773 0.950 . S
C2767 C2765 1.387 . S
C2767 C2769 1.390 . S
C2767 H2771 0.950 . S
H2768 C2764 0.950 . S
C2769 C2767 1.390 . S
C2769 C2770 1.387 . S
C2769 H2772 0.950 . S
C2770 C2769 1.387 . S
C2770 C2773 1.387 . S
H2771 C2767 0.950 . S
H2772 C2769 0.950 . S
C2773 C2764 1.390 . S
C2773 H2766 0.950 . S
C2773 C2770 1.387 . S
C2774 C2775 1.387 . S
C2774 H2778 0.950 . S
C2774 C2783 1.390 . S
C2775 C2774 1.387 . S
C2775 C2777 1.387 . S
H2776 C2783 0.950 . S
C2777 C2775 1.387 . S
C2777 C2779 1.390 . S
C2777 H2781 0.950 . S
H2778 C2774 0.950 . S
C2779 C2777 1.390 . S
C2779 C2780 1.387 . S
C2779 H2782 0.950 . S
C2780 C2779 1.387 . S
C2780 C2783 1.387 . S
H2781 C2777 0.950 . S
H2782 C2779 0.950 . S
C2783 C2774 1.390 . S
C2783 H2776 0.950 . S
C2783 C2780 1.387 . S
C1585 N530 1.428 . S
C1590 C21 1.307 . S
C1595 N1553 1.428 . S
C1600 C54 1.311 . S
C1605 C87 1.307 . S
C1610 N1487 1.428 . S
C1615 C120 1.307 . S
C1620 N1520 1.428 . S
C1625 C153 1.309 . S
C1630 N563 1.428 . S
C1635 N596 1.428 . S
C1640 C186 1.312 . S
C1645 N629 1.428 . S
C1650 C219 1.308 . S
C1655 N1454 1.428 . S
C1660 C252 1.308 . S
C1665 C285 1.312 . S
C1670 N2 1.428 . S
C1675 N35 1.428 . S
C1680 C318 1.310 . S
C1685 C351 1.312 . S
C1690 N68 1.428 . S
C1695 N101 1.428 . S
C1700 C384 1.309 . S
C1705 C417 1.310 . S
C1710 N134 1.428 . S
C1715 C450 1.312 . S
C1720 N167 1.428 . S
C1725 N200 1.428 . S
C1730 C483 1.309 . S
C1735 N233 1.428 . S
C1740 C516 1.307 . S
C1745 N266 1.428 . S
C1750 C549 1.311 . S
C1755 N398 1.428 . S
C1760 C582 1.310 . S
C1765 N431 1.428 . S
C1770 C615 1.309 . S
C1775 N464 1.428 . S
C1780 C648 1.309 . S
C1785 N1289 1.428 . S
C1790 C681 1.307 . S
C1795 C714 1.308 . S
C1800 N1124 1.428 . S
C1805 N1157 1.428 . S
C1810 C747 1.307 . S
C1815 C780 1.310 . S
C1820 N1091 1.428 . S
C1825 C813 1.307 . S
C1830 N1322 1.428 . S
C1835 C846 1.310 . S
C1840 N761 1.428 . S
C1845 N695 1.428 . S
C1850 C879 1.312 . S
C1855 N728 1.428 . S
C1860 C912 1.309 . S
C1865 N1355 1.428 . S
C1870 C945 1.307 . S
C1875 C978 1.311 . S
C1880 N1388 1.428 . S
C1885 N1421 1.428 . S
C1890 C1011 1.307 . S
C1895 C1044 1.311 . S
C1900 N662 1.428 . S
C1905 N794 1.428 . S
C1910 C1077 1.312 . S
C1915 N827 1.428 . S
C1920 C1110 1.312 . S
C1925 C1143 1.307 . S
C1930 N860 1.428 . S
C1935 C1176 1.312 . S
C1940 N893 1.428 . S
C1945 C1209 1.308 . S
C1950 N926 1.428 . S
C1955 N959 1.428 . S
C1960 C1242 1.307 . S
C1965 C1275 1.312 . S
C1970 N992 1.428 . S
C1975 N1025 1.428 . S
C1980 C1308 1.312 . S
C1985 N1058 1.428 . S
C1990 C1341 1.309 . S
C1995 C1374 1.307 . S
C2000 N1190 1.428 . S
C2005 N1223 1.428 . S
C2010 C1407 1.312 . S
C2015 N1256 1.428 . S
C2020 C1440 1.309 . S
C2025 C1473 1.309 . S
C2030 N497 1.428 . S
C2035 C1506 1.309 . S
C2040 N332 1.428 . S
C2045 C1539 1.311 . S
C2050 N365 1.428 . S
C2055 N299 1.428 . S
C2060 C1572 1.312 . S
C2065 C7 0.900 . S
C2070 C139 0.900 . S
C2075 C40 0.896 . S
C2080 C172 0.896 . S
C2085 C205 0.900 . S
C2090 C73 0.900 . S
C2095 C238 0.900 . S
C2100 C106 0.900 . S
C2105 C1261 0.896 . S
C2110 C271 0.896 . S
C2115 C1294 0.896 . S
C2120 C304 0.896 . S
C2125 C1195 0.900 . S
C2130 C337 0.900 . S
C2135 C370 0.896 . S
C2140 C1228 0.896 . S
C2145 C403 0.896 . S
C2150 C1129 0.896 . S
C2155 C436 0.896 . S
C2160 C1162 0.896 . S
C2165 C469 0.900 . S
C2170 C1063 0.900 . S
C2175 C502 0.900 . S
C2180 C1096 0.900 . S
C2185 C1492 0.896 . S
C2190 C535 0.896 . S
C2195 C634 0.896 . S
C2200 C568 0.896 . S
C2205 C1459 0.900 . S
C2210 C601 0.900 . S
C2215 C1393 0.900 . S
C2220 C667 0.900 . S
C2225 C700 0.900 . S
C2230 C1327 0.900 . S
C2235 C733 0.896 . S
C2240 C766 0.896 . S
C2245 C931 0.900 . S
C2250 C799 0.900 . S
C2255 C964 0.896 . S
C2260 C832 0.896 . S
C2265 C865 0.896 . S
C2270 C997 0.896 . S
C2275 C1030 0.900 . S
C2280 C898 0.900 . S
C2285 C1360 0.896 . S
C2290 C1426 0.896 . S
C2295 C1558 0.900 . S
C2300 C1525 0.900 . S
C2305 C18 1.477 . S
C2310 N904 1.465 . S
C2315 C51 1.477 . S
C2320 N805 1.465 . S
C2325 C84 1.477 . S
C2330 N838 1.464 . S
C2335 N871 1.465 . S
C2340 C117 1.477 . S
C2345 C150 1.477 . S
C2350 N178 1.465 . S
C2355 N211 1.464 . S
C2360 C183 1.477 . S
C2365 N244 1.465 . S
C2370 C216 1.477 . S
C2375 C249 1.477 . S
C2380 N145 1.465 . S
C2385 N1399 1.465 . S
C2390 C282 1.477 . S
C2395 C315 1.477 . S
C2400 N1432 1.465 . S
C2405 N673 1.464 . S
C2410 C348 1.477 . S
C2415 C381 1.477 . S
C2420 N1366 1.465 . S
C2425 C414 1.476 . S
C2430 N1531 1.465 . S
C2435 C447 1.476 . S
C2440 N541 1.465 . S
C2445 N1564 1.464 . S
C2450 C480 1.477 . S
C2455 N1498 1.464 . S
C2460 C513 1.477 . S
C2465 N310 1.465 . S
C2470 C546 1.477 . S
C2475 C579 1.477 . S
C2480 N1300 1.465 . S
C2485 C612 1.477 . S
C2490 N1201 1.465 . S
C2495 C645 1.477 . S
C2500 N1234 1.464 . S
C2505 N475 1.464 . S
C2510 C678 1.477 . S
C2515 C711 1.476 . S
C2520 N1168 1.465 . S
C2525 C744 1.477 . S
C2530 N1069 1.465 . S
C2535 N1135 1.464 . S
C2540 C777 1.477 . S
C2545 C810 1.477 . S
C2550 N112 1.464 . S
C2555 C843 1.476 . S
C2560 N13 1.465 . S
C2565 C876 1.477 . S
C2570 N46 1.464 . S
C2575 C909 1.476 . S
C2580 N79 1.465 . S
C2585 C942 1.476 . S
C2590 N970 1.465 . S
C2595 C975 1.476 . S
C2600 N1003 1.464 . S
C2605 C1008 1.477 . S
C2610 N1036 1.465 . S
C2615 N937 1.464 . S
C2620 C1041 1.477 . S
C2625 C1074 1.477 . S
C2630 N607 1.464 . S
C2635 C1107 1.477 . S
C2640 N640 1.464 . S
C2645 C1140 1.477 . S
C2650 N1465 1.465 . S
C2655 N574 1.465 . S
C2660 C1173 1.477 . S
C2665 N739 1.465 . S
C2670 C1206 1.477 . S
C2675 C1239 1.477 . S
C2680 N1333 1.464 . S
C2685 C1272 1.477 . S
C2690 N772 1.464 . S
C2695 C1305 1.477 . S
C2700 N706 1.464 . S
C2705 N1102 1.464 . S
C2710 C1338 1.477 . S
C2715 C1371 1.477 . S
C2720 N508 1.464 . S
C2725 C1404 1.477 . S
C2730 N409 1.465 . S
C2735 C1437 1.477 . S
C2740 N442 1.465 . S
C2745 N1267 1.465 . S
C2750 C1470 1.477 . S
C2755 N376 1.464 . S
C2760 C1503 1.477 . S
C2765 N277 1.465 . S
C2770 C1536 1.477 . S
C2775 N343 1.465 . S
C2780 C1569 1.477 . S
