# Generated by pormake.
# Topology lcs-e, (6)-cn, num edge types: 1
# Building blocks:
#     Node 0, Type 0, BuildingBlock: GEDQOX_clean_sbu_0, # of connection points: 6
#     Node 1, Type 0, BuildingBlock: GEDQOX_clean_sbu_0, # of connection points: 6
#     Node 2, Type 0, BuildingBlock: GEDQOX_clean_sbu_0, # of connection points: 6
#     Node 3, Type 0, BuildingBlock: GEDQOX_clean_sbu_0, # of connection points: 6
#     Node 4, Type 0, BuildingBlock: GEDQOX_clean_sbu_0, # of connection points: 6
#     Node 5, Type 0, BuildingBlock: GEDQOX_clean_sbu_0, # of connection points: 6
#     Node 6, Type 0, BuildingBlock: GEDQOX_clean_sbu_0, # of connection points: 6
#     Node 7, Type 0, BuildingBlock: GEDQOX_clean_sbu_0, # of connection points: 6
#     Node 8, Type 0, BuildingBlock: GEDQOX_clean_sbu_0, # of connection points: 6
#     Node 9, Type 0, BuildingBlock: GEDQOX_clean_sbu_0, # of connection points: 6
#     Node 10, Type 0, BuildingBlock: GEDQOX_clean_sbu_0, # of connection points: 6
#     Node 11, Type 0, BuildingBlock: GEDQOX_clean_sbu_0, # of connection points: 6
#     Node 12, Type 0, BuildingBlock: GEDQOX_clean_sbu_0, # of connection points: 6
#     Node 13, Type 0, BuildingBlock: GEDQOX_clean_sbu_0, # of connection points: 6
#     Node 14, Type 0, BuildingBlock: GEDQOX_clean_sbu_0, # of connection points: 6
#     Node 15, Type 0, BuildingBlock: GEDQOX_clean_sbu_0, # of connection points: 6
#     Node 16, Type 0, BuildingBlock: GEDQOX_clean_sbu_0, # of connection points: 6
#     Node 17, Type 0, BuildingBlock: GEDQOX_clean_sbu_0, # of connection points: 6
#     Node 18, Type 0, BuildingBlock: GEDQOX_clean_sbu_0, # of connection points: 6
#     Node 19, Type 0, BuildingBlock: GEDQOX_clean_sbu_0, # of connection points: 6
#     Node 20, Type 0, BuildingBlock: GEDQOX_clean_sbu_0, # of connection points: 6
#     Node 21, Type 0, BuildingBlock: GEDQOX_clean_sbu_0, # of connection points: 6
#     Node 22, Type 0, BuildingBlock: GEDQOX_clean_sbu_0, # of connection points: 6
#     Node 23, Type 0, BuildingBlock: GEDQOX_clean_sbu_0, # of connection points: 6
#     Node 24, Type 0, BuildingBlock: GEDQOX_clean_sbu_0, # of connection points: 6
#     Node 25, Type 0, BuildingBlock: GEDQOX_clean_sbu_0, # of connection points: 6
#     Node 26, Type 0, BuildingBlock: GEDQOX_clean_sbu_0, # of connection points: 6
#     Node 27, Type 0, BuildingBlock: GEDQOX_clean_sbu_0, # of connection points: 6
#     Node 28, Type 0, BuildingBlock: GEDQOX_clean_sbu_0, # of connection points: 6
#     Node 29, Type 0, BuildingBlock: GEDQOX_clean_sbu_0, # of connection points: 6
#     Node 30, Type 0, BuildingBlock: GEDQOX_clean_sbu_0, # of connection points: 6
#     Node 31, Type 0, BuildingBlock: GEDQOX_clean_sbu_0, # of connection points: 6
#     Node 32, Type 0, BuildingBlock: GEDQOX_clean_sbu_0, # of connection points: 6
#     Node 33, Type 0, BuildingBlock: GEDQOX_clean_sbu_0, # of connection points: 6
#     Node 34, Type 0, BuildingBlock: GEDQOX_clean_sbu_0, # of connection points: 6
#     Node 35, Type 0, BuildingBlock: GEDQOX_clean_sbu_0, # of connection points: 6
#     Node 36, Type 0, BuildingBlock: GEDQOX_clean_sbu_0, # of connection points: 6
#     Node 37, Type 0, BuildingBlock: GEDQOX_clean_sbu_0, # of connection points: 6
#     Node 38, Type 0, BuildingBlock: GEDQOX_clean_sbu_0, # of connection points: 6
#     Node 39, Type 0, BuildingBlock: GEDQOX_clean_sbu_0, # of connection points: 6
#     Node 40, Type 0, BuildingBlock: GEDQOX_clean_sbu_0, # of connection points: 6
#     Node 41, Type 0, BuildingBlock: GEDQOX_clean_sbu_0, # of connection points: 6
#     Node 42, Type 0, BuildingBlock: GEDQOX_clean_sbu_0, # of connection points: 6
#     Node 43, Type 0, BuildingBlock: GEDQOX_clean_sbu_0, # of connection points: 6
#     Node 44, Type 0, BuildingBlock: GEDQOX_clean_sbu_0, # of connection points: 6
#     Node 45, Type 0, BuildingBlock: GEDQOX_clean_sbu_0, # of connection points: 6
#     Node 46, Type 0, BuildingBlock: GEDQOX_clean_sbu_0, # of connection points: 6
#     Node 47, Type 0, BuildingBlock: GEDQOX_clean_sbu_0, # of connection points: 6
#     Edge 48, Type (0, 0), BuildingBlock: XIVTED_clean_linker_0, # of connection points: 2
#     Edge 49, Type (0, 0), BuildingBlock: XIVTED_clean_linker_0, # of connection points: 2
#     Edge 50, Type (0, 0), BuildingBlock: XIVTED_clean_linker_0, # of connection points: 2
#     Edge 51, Type (0, 0), BuildingBlock: XIVTED_clean_linker_0, # of connection points: 2
#     Edge 52, Type (0, 0), BuildingBlock: XIVTED_clean_linker_0, # of connection points: 2
#     Edge 53, Type (0, 0), BuildingBlock: XIVTED_clean_linker_0, # of connection points: 2
#     Edge 54, Type (0, 0), BuildingBlock: XIVTED_clean_linker_0, # of connection points: 2
#     Edge 55, Type (0, 0), BuildingBlock: XIVTED_clean_linker_0, # of connection points: 2
#     Edge 56, Type (0, 0), BuildingBlock: XIVTED_clean_linker_0, # of connection points: 2
#     Edge 57, Type (0, 0), BuildingBlock: XIVTED_clean_linker_0, # of connection points: 2
#     Edge 58, Type (0, 0), BuildingBlock: XIVTED_clean_linker_0, # of connection points: 2
#     Edge 59, Type (0, 0), BuildingBlock: XIVTED_clean_linker_0, # of connection points: 2
#     Edge 60, Type (0, 0), BuildingBlock: XIVTED_clean_linker_0, # of connection points: 2
#     Edge 61, Type (0, 0), BuildingBlock: XIVTED_clean_linker_0, # of connection points: 2
#     Edge 62, Type (0, 0), BuildingBlock: XIVTED_clean_linker_0, # of connection points: 2
#     Edge 63, Type (0, 0), BuildingBlock: XIVTED_clean_linker_0, # of connection points: 2
#     Edge 64, Type (0, 0), BuildingBlock: XIVTED_clean_linker_0, # of connection points: 2
#     Edge 65, Type (0, 0), BuildingBlock: XIVTED_clean_linker_0, # of connection points: 2
#     Edge 66, Type (0, 0), BuildingBlock: XIVTED_clean_linker_0, # of connection points: 2
#     Edge 67, Type (0, 0), BuildingBlock: XIVTED_clean_linker_0, # of connection points: 2
#     Edge 68, Type (0, 0), BuildingBlock: XIVTED_clean_linker_0, # of connection points: 2
#     Edge 69, Type (0, 0), BuildingBlock: XIVTED_clean_linker_0, # of connection points: 2
#     Edge 70, Type (0, 0), BuildingBlock: XIVTED_clean_linker_0, # of connection points: 2
#     Edge 71, Type (0, 0), BuildingBlock: XIVTED_clean_linker_0, # of connection points: 2
#     Edge 72, Type (0, 0), BuildingBlock: XIVTED_clean_linker_0, # of connection points: 2
#     Edge 73, Type (0, 0), BuildingBlock: XIVTED_clean_linker_0, # of connection points: 2
#     Edge 74, Type (0, 0), BuildingBlock: XIVTED_clean_linker_0, # of connection points: 2
#     Edge 75, Type (0, 0), BuildingBlock: XIVTED_clean_linker_0, # of connection points: 2
#     Edge 76, Type (0, 0), BuildingBlock: XIVTED_clean_linker_0, # of connection points: 2
#     Edge 77, Type (0, 0), BuildingBlock: XIVTED_clean_linker_0, # of connection points: 2
#     Edge 78, Type (0, 0), BuildingBlock: XIVTED_clean_linker_0, # of connection points: 2
#     Edge 79, Type (0, 0), BuildingBlock: XIVTED_clean_linker_0, # of connection points: 2
#     Edge 80, Type (0, 0), BuildingBlock: XIVTED_clean_linker_0, # of connection points: 2
#     Edge 81, Type (0, 0), BuildingBlock: XIVTED_clean_linker_0, # of connection points: 2
#     Edge 82, Type (0, 0), BuildingBlock: XIVTED_clean_linker_0, # of connection points: 2
#     Edge 83, Type (0, 0), BuildingBlock: XIVTED_clean_linker_0, # of connection points: 2
#     Edge 84, Type (0, 0), BuildingBlock: XIVTED_clean_linker_0, # of connection points: 2
#     Edge 85, Type (0, 0), BuildingBlock: XIVTED_clean_linker_0, # of connection points: 2
#     Edge 86, Type (0, 0), BuildingBlock: XIVTED_clean_linker_0, # of connection points: 2
#     Edge 87, Type (0, 0), BuildingBlock: XIVTED_clean_linker_0, # of connection points: 2
#     Edge 88, Type (0, 0), BuildingBlock: XIVTED_clean_linker_0, # of connection points: 2
#     Edge 89, Type (0, 0), BuildingBlock: XIVTED_clean_linker_0, # of connection points: 2
#     Edge 90, Type (0, 0), BuildingBlock: XIVTED_clean_linker_0, # of connection points: 2
#     Edge 91, Type (0, 0), BuildingBlock: XIVTED_clean_linker_0, # of connection points: 2
#     Edge 92, Type (0, 0), BuildingBlock: XIVTED_clean_linker_0, # of connection points: 2
#     Edge 93, Type (0, 0), BuildingBlock: XIVTED_clean_linker_0, # of connection points: 2
#     Edge 94, Type (0, 0), BuildingBlock: XIVTED_clean_linker_0, # of connection points: 2
#     Edge 95, Type (0, 0), BuildingBlock: XIVTED_clean_linker_0, # of connection points: 2
#     Edge 96, Type (0, 0), BuildingBlock: XIVTED_clean_linker_0, # of connection points: 2
#     Edge 97, Type (0, 0), BuildingBlock: XIVTED_clean_linker_0, # of connection points: 2
#     Edge 98, Type (0, 0), BuildingBlock: XIVTED_clean_linker_0, # of connection points: 2
#     Edge 99, Type (0, 0), BuildingBlock: XIVTED_clean_linker_0, # of connection points: 2
#     Edge 100, Type (0, 0), BuildingBlock: XIVTED_clean_linker_0, # of connection points: 2
#     Edge 101, Type (0, 0), BuildingBlock: XIVTED_clean_linker_0, # of connection points: 2
#     Edge 102, Type (0, 0), BuildingBlock: XIVTED_clean_linker_0, # of connection points: 2
#     Edge 103, Type (0, 0), BuildingBlock: XIVTED_clean_linker_0, # of connection points: 2
#     Edge 104, Type (0, 0), BuildingBlock: XIVTED_clean_linker_0, # of connection points: 2
#     Edge 105, Type (0, 0), BuildingBlock: XIVTED_clean_linker_0, # of connection points: 2
#     Edge 106, Type (0, 0), BuildingBlock: XIVTED_clean_linker_0, # of connection points: 2
#     Edge 107, Type (0, 0), BuildingBlock: XIVTED_clean_linker_0, # of connection points: 2
#     Edge 108, Type (0, 0), BuildingBlock: XIVTED_clean_linker_0, # of connection points: 2
#     Edge 109, Type (0, 0), BuildingBlock: XIVTED_clean_linker_0, # of connection points: 2
#     Edge 110, Type (0, 0), BuildingBlock: XIVTED_clean_linker_0, # of connection points: 2
#     Edge 111, Type (0, 0), BuildingBlock: XIVTED_clean_linker_0, # of connection points: 2
#     Edge 112, Type (0, 0), BuildingBlock: XIVTED_clean_linker_0, # of connection points: 2
#     Edge 113, Type (0, 0), BuildingBlock: XIVTED_clean_linker_0, # of connection points: 2
#     Edge 114, Type (0, 0), BuildingBlock: XIVTED_clean_linker_0, # of connection points: 2
#     Edge 115, Type (0, 0), BuildingBlock: XIVTED_clean_linker_0, # of connection points: 2
#     Edge 116, Type (0, 0), BuildingBlock: XIVTED_clean_linker_0, # of connection points: 2
#     Edge 117, Type (0, 0), BuildingBlock: XIVTED_clean_linker_0, # of connection points: 2
#     Edge 118, Type (0, 0), BuildingBlock: XIVTED_clean_linker_0, # of connection points: 2
#     Edge 119, Type (0, 0), BuildingBlock: XIVTED_clean_linker_0, # of connection points: 2
#     Edge 120, Type (0, 0), BuildingBlock: XIVTED_clean_linker_0, # of connection points: 2
#     Edge 121, Type (0, 0), BuildingBlock: XIVTED_clean_linker_0, # of connection points: 2
#     Edge 122, Type (0, 0), BuildingBlock: XIVTED_clean_linker_0, # of connection points: 2
#     Edge 123, Type (0, 0), BuildingBlock: XIVTED_clean_linker_0, # of connection points: 2
#     Edge 124, Type (0, 0), BuildingBlock: XIVTED_clean_linker_0, # of connection points: 2
#     Edge 125, Type (0, 0), BuildingBlock: XIVTED_clean_linker_0, # of connection points: 2
#     Edge 126, Type (0, 0), BuildingBlock: XIVTED_clean_linker_0, # of connection points: 2
#     Edge 127, Type (0, 0), BuildingBlock: XIVTED_clean_linker_0, # of connection points: 2
#     Edge 128, Type (0, 0), BuildingBlock: XIVTED_clean_linker_0, # of connection points: 2
#     Edge 129, Type (0, 0), BuildingBlock: XIVTED_clean_linker_0, # of connection points: 2
#     Edge 130, Type (0, 0), BuildingBlock: XIVTED_clean_linker_0, # of connection points: 2
#     Edge 131, Type (0, 0), BuildingBlock: XIVTED_clean_linker_0, # of connection points: 2
#     Edge 132, Type (0, 0), BuildingBlock: XIVTED_clean_linker_0, # of connection points: 2
#     Edge 133, Type (0, 0), BuildingBlock: XIVTED_clean_linker_0, # of connection points: 2
#     Edge 134, Type (0, 0), BuildingBlock: XIVTED_clean_linker_0, # of connection points: 2
#     Edge 135, Type (0, 0), BuildingBlock: XIVTED_clean_linker_0, # of connection points: 2
#     Edge 136, Type (0, 0), BuildingBlock: XIVTED_clean_linker_0, # of connection points: 2
#     Edge 137, Type (0, 0), BuildingBlock: XIVTED_clean_linker_0, # of connection points: 2
#     Edge 138, Type (0, 0), BuildingBlock: XIVTED_clean_linker_0, # of connection points: 2
#     Edge 139, Type (0, 0), BuildingBlock: XIVTED_clean_linker_0, # of connection points: 2
#     Edge 140, Type (0, 0), BuildingBlock: XIVTED_clean_linker_0, # of connection points: 2
#     Edge 141, Type (0, 0), BuildingBlock: XIVTED_clean_linker_0, # of connection points: 2
#     Edge 142, Type (0, 0), BuildingBlock: XIVTED_clean_linker_0, # of connection points: 2
#     Edge 143, Type (0, 0), BuildingBlock: XIVTED_clean_linker_0, # of connection points: 2
#     Edge 144, Type (0, 0), BuildingBlock: XIVTED_clean_linker_0, # of connection points: 2
#     Edge 145, Type (0, 0), BuildingBlock: XIVTED_clean_linker_0, # of connection points: 2
#     Edge 146, Type (0, 0), BuildingBlock: XIVTED_clean_linker_0, # of connection points: 2
#     Edge 147, Type (0, 0), BuildingBlock: XIVTED_clean_linker_0, # of connection points: 2
#     Edge 148, Type (0, 0), BuildingBlock: XIVTED_clean_linker_0, # of connection points: 2
#     Edge 149, Type (0, 0), BuildingBlock: XIVTED_clean_linker_0, # of connection points: 2
#     Edge 150, Type (0, 0), BuildingBlock: XIVTED_clean_linker_0, # of connection points: 2
#     Edge 151, Type (0, 0), BuildingBlock: XIVTED_clean_linker_0, # of connection points: 2
#     Edge 152, Type (0, 0), BuildingBlock: XIVTED_clean_linker_0, # of connection points: 2
#     Edge 153, Type (0, 0), BuildingBlock: XIVTED_clean_linker_0, # of connection points: 2
#     Edge 154, Type (0, 0), BuildingBlock: XIVTED_clean_linker_0, # of connection points: 2
#     Edge 155, Type (0, 0), BuildingBlock: XIVTED_clean_linker_0, # of connection points: 2
#     Edge 156, Type (0, 0), BuildingBlock: XIVTED_clean_linker_0, # of connection points: 2
#     Edge 157, Type (0, 0), BuildingBlock: XIVTED_clean_linker_0, # of connection points: 2
#     Edge 158, Type (0, 0), BuildingBlock: XIVTED_clean_linker_0, # of connection points: 2
#     Edge 159, Type (0, 0), BuildingBlock: XIVTED_clean_linker_0, # of connection points: 2
#     Edge 160, Type (0, 0), BuildingBlock: XIVTED_clean_linker_0, # of connection points: 2
#     Edge 161, Type (0, 0), BuildingBlock: XIVTED_clean_linker_0, # of connection points: 2
#     Edge 162, Type (0, 0), BuildingBlock: XIVTED_clean_linker_0, # of connection points: 2
#     Edge 163, Type (0, 0), BuildingBlock: XIVTED_clean_linker_0, # of connection points: 2
#     Edge 164, Type (0, 0), BuildingBlock: XIVTED_clean_linker_0, # of connection points: 2
#     Edge 165, Type (0, 0), BuildingBlock: XIVTED_clean_linker_0, # of connection points: 2
#     Edge 166, Type (0, 0), BuildingBlock: XIVTED_clean_linker_0, # of connection points: 2
#     Edge 167, Type (0, 0), BuildingBlock: XIVTED_clean_linker_0, # of connection points: 2
#     Edge 168, Type (0, 0), BuildingBlock: XIVTED_clean_linker_0, # of connection points: 2
#     Edge 169, Type (0, 0), BuildingBlock: XIVTED_clean_linker_0, # of connection points: 2
#     Edge 170, Type (0, 0), BuildingBlock: XIVTED_clean_linker_0, # of connection points: 2
#     Edge 171, Type (0, 0), BuildingBlock: XIVTED_clean_linker_0, # of connection points: 2
#     Edge 172, Type (0, 0), BuildingBlock: XIVTED_clean_linker_0, # of connection points: 2
#     Edge 173, Type (0, 0), BuildingBlock: XIVTED_clean_linker_0, # of connection points: 2
#     Edge 174, Type (0, 0), BuildingBlock: XIVTED_clean_linker_0, # of connection points: 2
#     Edge 175, Type (0, 0), BuildingBlock: XIVTED_clean_linker_0, # of connection points: 2
#     Edge 176, Type (0, 0), BuildingBlock: XIVTED_clean_linker_0, # of connection points: 2
#     Edge 177, Type (0, 0), BuildingBlock: XIVTED_clean_linker_0, # of connection points: 2
#     Edge 178, Type (0, 0), BuildingBlock: XIVTED_clean_linker_0, # of connection points: 2
#     Edge 179, Type (0, 0), BuildingBlock: XIVTED_clean_linker_0, # of connection points: 2
#     Edge 180, Type (0, 0), BuildingBlock: XIVTED_clean_linker_0, # of connection points: 2
#     Edge 181, Type (0, 0), BuildingBlock: XIVTED_clean_linker_0, # of connection points: 2
#     Edge 182, Type (0, 0), BuildingBlock: XIVTED_clean_linker_0, # of connection points: 2
#     Edge 183, Type (0, 0), BuildingBlock: XIVTED_clean_linker_0, # of connection points: 2
#     Edge 184, Type (0, 0), BuildingBlock: XIVTED_clean_linker_0, # of connection points: 2
#     Edge 185, Type (0, 0), BuildingBlock: XIVTED_clean_linker_0, # of connection points: 2
#     Edge 186, Type (0, 0), BuildingBlock: XIVTED_clean_linker_0, # of connection points: 2
#     Edge 187, Type (0, 0), BuildingBlock: XIVTED_clean_linker_0, # of connection points: 2
#     Edge 188, Type (0, 0), BuildingBlock: XIVTED_clean_linker_0, # of connection points: 2
#     Edge 189, Type (0, 0), BuildingBlock: XIVTED_clean_linker_0, # of connection points: 2
#     Edge 190, Type (0, 0), BuildingBlock: XIVTED_clean_linker_0, # of connection points: 2
#     Edge 191, Type (0, 0), BuildingBlock: XIVTED_clean_linker_0, # of connection points: 2
# Relax obj value: 0.402
# Max RMSD: 0.429
# Mean RMSD: 0.314
data_MOF--net-lcs-e--node1-GEDQOX_clean_sbu_0--edge1-XIVTED_clean_linker_0
_symmetry_space_group_name_H-M    P1
_symmetry_Int_Tables_number       1
_symmetry_cell_setting            triclinic
loop_
_symmetry_equiv_pos_as_xyz
'x, y, z'
_cell_length_a     66.868994
_cell_length_b     74.424403
_cell_length_c     65.830433
_cell_angle_alpha  94.661084
_cell_angle_beta   85.898137
_cell_angle_gamma 87.397948
loop_
_atom_site_label
_atom_site_type_symbol
_atom_site_fract_x
_atom_site_fract_y
_atom_site_fract_z
_atom_type_partial_charge
Nd0 Nd 0.05341 0.42701 0.18855 0.0
Nd1 Nd 0.02433 0.46079 0.17919 0.0
C2 C 0.0703 0.39473 0.19056 0.0
C3 C 0.07672 0.38502 0.20765 0.0
C4 C 0.06726 0.3692 0.21202 0.0
C5 C 0.0692 0.36206 0.23072 0.0
C6 C 0.08087 0.37053 0.24525 0.0
C7 C 0.09156 0.38558 0.24019 0.0
C8 C 0.08939 0.39286 0.22159 0.0
C9 C 0.06023 0.45747 0.21368 0.0
C10 C 0.0111 0.43662 0.21633 0.0
C11 C 0.00636 0.49117 0.16968 0.0
C12 C 0.00772 0.51008 0.16421 0.0
C13 C 0.02011 0.52234 0.1739 0.0
C14 C 0.01932 0.54061 0.16974 0.0
C15 C 0.00606 0.54706 0.15589 0.0
C16 C 0.99415 0.53452 0.14584 0.0
C17 C 0.995 0.51633 0.14995 0.0
C18 C 0.0164 0.4263 0.16285 0.0
C19 C 0.07015 0.45355 0.15779 0.0
O20 O 0.05085 0.39796 0.1911 0.0
O21 O 0.08061 0.40855 0.18561 0.0
O22 O 0.0697 0.44197 0.21456 0.0
O23 O 0.04794 0.45588 0.20026 0.0
O24 O 0.0243 0.42398 0.20784 0.0
O25 O 0.00978 0.45321 0.2102 0.0
O26 O 0.00917 0.48762 0.18851 0.0
O27 O 0.01293 0.47804 0.15598 0.0
O28 O 0.00257 0.43866 0.16944 0.0
O29 O 0.03323 0.43298 0.16407 0.0
O30 O 0.05656 0.46609 0.16596 0.0
O31 O 0.06775 0.43631 0.15952 0.0
H32 H 0.05728 0.36307 0.20153 0.0
H33 H 0.06067 0.35052 0.23418 0.0
H34 H 0.1011 0.3921 0.25087 0.0
H35 H 0.09684 0.40511 0.21864 0.0
H36 H 0.03011 0.5179 0.18494 0.0
H37 H 0.02901 0.54969 0.17755 0.0
H38 H 0.98354 0.53884 0.13532 0.0
H39 H 0.98519 0.50719 0.14237 0.0
Nd40 Nd 0.94059 0.75797 0.47839 0.0
Nd41 Nd 0.91695 0.72947 0.50163 0.0
C42 C 0.95456 0.78619 0.46143 0.0
C43 C 0.9455 0.79996 0.44944 0.0
C44 C 0.93097 0.8129 0.45863 0.0
C45 C 0.92143 0.82497 0.44689 0.0
C46 C 0.92632 0.82451 0.42573 0.0
C47 C 0.94114 0.81182 0.41657 0.0
C48 C 0.95063 0.79965 0.42833 0.0
C49 C 0.9613 0.7252 0.4809 0.0
C50 C 0.90851 0.73439 0.45536 0.0
C51 C 0.90842 0.69918 0.51733 0.0
C52 C 0.91711 0.68941 0.53323 0.0
C53 C 0.93781 0.68954 0.53577 0.0
C54 C 0.94539 0.68314 0.55318 0.0
C55 C 0.9323 0.67672 0.56815 0.0
C56 C 0.91177 0.67598 0.56528 0.0
C57 C 0.90422 0.68226 0.54785 0.0
C58 C 0.89182 0.75983 0.49934 0.0
C59 C 0.94143 0.75835 0.52862 0.0
O60 O 0.94841 0.7866 0.48082 0.0
O61 O 0.9566 0.76979 0.45247 0.0
O62 O 0.96207 0.7341 0.46477 0.0
O63 O 0.94994 0.73379 0.49477 0.0
O64 O 0.91532 0.75073 0.45794 0.0
O65 O 0.91291 0.72209 0.46786 0.0
O66 O 0.9195 0.69963 0.5001 0.0
O67 O 0.89951 0.7148 0.52401 0.0
O68 O 0.88611 0.74563 0.5079 0.0
O69 O 0.90968 0.75695 0.49219 0.0
O70 O 0.93237 0.74293 0.52813 0.0
O71 O 0.94543 0.76697 0.51203 0.0
H72 H 0.92684 0.81371 0.47489 0.0
H73 H 0.91042 0.83488 0.45448 0.0
H74 H 0.94521 0.81115 0.40029 0.0
H75 H 0.96181 0.78983 0.42086 0.0
H76 H 0.94794 0.6953 0.52478 0.0
H77 H 0.96126 0.68384 0.55534 0.0
H78 H 0.90153 0.67112 0.57686 0.0
H79 H 0.88819 0.68235 0.54626 0.0
Nd80 Nd 0.48501 0.68918 0.8214 0.0
Nd81 Nd 0.5003 0.71486 0.7912 0.0
C82 C 0.4763 0.65873 0.83673 0.0
C83 C 0.45948 0.64701 0.83359 0.0
C84 C 0.45934 0.63525 0.81574 0.0
C85 C 0.44299 0.62471 0.81255 0.0
C86 C 0.42651 0.62582 0.8271 0.0
C87 C 0.42648 0.6378 0.84471 0.0
C88 C 0.44287 0.64823 0.84798 0.0
C89 C 0.46847 0.72272 0.8366 0.0
C90 C 0.45763 0.6987 0.78423 0.0
C91 C 0.5159 0.73873 0.76787 0.0
C92 C 0.52426 0.75639 0.76501 0.0
C93 C 0.51772 0.77188 0.77774 0.0
C94 C 0.52251 0.78901 0.77207 0.0
C95 C 0.53372 0.79093 0.75346 0.0
C96 C 0.54136 0.77523 0.74155 0.0
C97 C 0.53669 0.75816 0.74731 0.0
C98 C 0.50523 0.6783 0.77784 0.0
C99 C 0.52279 0.71104 0.83356 0.0
O100 O 0.48913 0.65957 0.82099 0.0
O101 O 0.47183 0.67449 0.84665 0.0
O102 O 0.46529 0.70768 0.84452 0.0
O103 O 0.47994 0.72011 0.82019 0.0
O104 O 0.46242 0.68682 0.79708 0.0
O105 O 0.46816 0.71303 0.78174 0.0
O106 O 0.49675 0.73857 0.7736 0.0
O107 O 0.52689 0.72601 0.77502 0.0
O108 O 0.49997 0.69085 0.7666 0.0
O109 O 0.50852 0.6855 0.79528 0.0
O110 O 0.51857 0.72166 0.81912 0.0
O111 O 0.51383 0.69587 0.83555 0.0
H112 H 0.47186 0.6341 0.80425 0.0
H113 H 0.44335 0.61546 0.79892 0.0
H114 H 0.41413 0.63856 0.85638 0.0
H115 H 0.44258 0.65718 0.86184 0.0
H116 H 0.50815 0.7708 0.79153 0.0
H117 H 0.51678 0.80076 0.7819 0.0
H118 H 0.54988 0.77607 0.72707 0.0
H119 H 0.54178 0.74635 0.73722 0.0
Nd120 Nd 0.59601 0.1722 0.07501 0.0
Nd121 Nd 0.62564 0.20037 0.05825 0.0
C122 C 0.56702 0.15396 0.09154 0.0
C123 C 0.56351 0.14529 0.11083 0.0
C124 C 0.54544 0.14915 0.12288 0.0
C125 C 0.54184 0.14104 0.14113 0.0
C126 C 0.55622 0.12881 0.14769 0.0
C127 C 0.57435 0.12501 0.13564 0.0
C128 C 0.57801 0.13323 0.11745 0.0
C129 C 0.6358 0.16532 0.08028 0.0
C130 C 0.60553 0.20916 0.104 0.0
C131 C 0.65737 0.21457 0.03952 0.0
C132 C 0.67705 0.21055 0.02714 0.0
C133 C 0.68565 0.19294 0.02244 0.0
C134 C 0.70461 0.18994 0.01131 0.0
C135 C 0.71556 0.2045 1.00465 0.0
C136 C 0.70658 0.22204 0.00917 0.0
C137 C 0.68772 0.22497 0.02018 0.0
C138 C 0.58502 0.20767 0.05424 0.0
C139 C 0.6159 0.16585 0.03032 0.0
O140 O 0.56663 0.17165 0.09298 0.0
O141 O 0.58131 0.14653 0.07847 0.0
O142 O 0.62328 0.15273 0.0773 0.0
O143 O 0.62667 0.18047 0.08193 0.0
O144 O 0.59357 0.19579 0.10001 0.0
O145 O 0.62052 0.21304 0.09106 0.0
O146 O 0.65624 0.2111 0.05874 0.0
O147 O 0.64074 0.21135 0.03082 0.0
O148 O 0.59764 0.22022 0.0577 0.0
O149 O 0.59419 0.19247 0.05161 0.0
O150 O 0.6307 0.173 0.03963 0.0
O151 O 0.59819 0.16571 0.04051 0.0
H152 H 0.53406 0.15841 0.11812 0.0
H153 H 0.52763 0.14413 0.14996 0.0
H154 H 0.58583 0.11585 0.14039 0.0
H155 H 0.59221 0.13013 0.1086 0.0
H156 H 0.6778 0.18152 0.02755 0.0
H157 H 0.7109 0.17624 0.00837 0.0
H158 H 0.71409 0.23364 1.00411 0.0
H159 H 0.68151 0.23869 0.02341 0.0
Nd160 Nd 0.00364 0.69108 0.10122 0.0
Nd161 Nd 0.98631 0.71661 0.13786 0.0
C162 C 0.01499 0.66698 0.07089 0.0
C163 C 0.03347 0.65528 0.06892 0.0
C164 C 0.03555 0.64166 0.08228 0.0
C165 C 0.05431 0.63388 0.08482 0.0
C166 C 0.07145 0.63904 0.07358 0.0
C167 C 0.06924 0.65171 0.05908 0.0
C168 C 0.05036 0.65981 0.0568 0.0
C169 C 0.0224 0.72279 0.10732 0.0
C170 C 0.02626 0.69116 0.14227 0.0
C171 C 0.97516 0.74521 0.16336 0.0
C172 C 0.96971 0.76449 0.16214 0.0
C173 C 0.97373 0.77272 0.14395 0.0
C174 C 0.97106 0.79147 0.14362 0.0
C175 C 0.96404 0.80232 0.16144 0.0
C176 C 0.95915 0.79388 0.1794 0.0
C177 C 0.96207 0.77515 0.17975 0.0
C178 C 0.98016 0.68054 0.14222 0.0
C179 C 0.96211 0.71424 0.0964 0.0
O180 O 0.00188 0.66387 0.08577 0.0
O181 O 0.01755 0.68422 0.06977 0.0
O182 O 0.03196 0.70734 0.10242 0.0
O183 O 0.00368 0.72127 0.10858 0.0
O184 O 0.02132 0.68069 0.12646 0.0
O185 O 0.0174 0.70735 0.14727 0.0
O186 O 0.99391 0.74026 0.15768 0.0
O187 O 0.96249 0.73347 0.15688 0.0
O188 O 0.98206 0.69248 0.15738 0.0
O189 O 0.97925 0.68833 0.12591 0.0
O190 O 0.9635 0.72252 0.11469 0.0
O191 O 0.97526 0.70159 0.08816 0.0
H192 H 0.02291 0.63777 0.09189 0.0
H193 H 0.05537 0.62441 0.09638 0.0
H194 H 0.08211 0.65567 0.04986 0.0
H195 H 0.04916 0.67028 0.04636 0.0
H196 H 0.97941 0.76467 0.13015 0.0
H197 H 0.97467 0.79749 0.12946 0.0
H198 H 0.95385 0.80182 0.19342 0.0
H199 H 0.95893 0.76906 0.19396 0.0
Nd200 Nd 0.74818 0.77216 0.4016 0.0
Nd201 Nd 0.72724 0.75761 0.43954 0.0
C202 C 0.77245 0.78562 0.374 0.0
C203 C 0.7743 0.80337 0.36594 0.0
C204 C 0.79325 0.81055 0.36378 0.0
C205 C 0.79513 0.82803 0.35791 0.0
C206 C 0.77806 0.8386 0.35406 0.0
C207 C 0.75916 0.83113 0.35547 0.0
C208 C 0.75726 0.81368 0.36149 0.0
C209 C 0.70749 0.779 0.40555 0.0
C210 C 0.742 0.79788 0.44556 0.0
C211 C 0.70197 0.7427 0.46505 0.0
C212 C 0.68185 0.73587 0.46366 0.0
C213 C 0.6709 0.73898 0.44676 0.0
C214 C 0.65152 0.73289 0.44574 0.0
C215 C 0.6429 0.72341 0.46151 0.0
C216 C 0.65411 0.72009 0.47824 0.0
C217 C 0.67343 0.72633 0.47932 0.0
C218 C 0.76805 0.75108 0.43528 0.0
C219 C 0.72722 0.7359 0.39539 0.0
O220 O 0.77672 0.78468 0.393 0.0
O221 O 0.75658 0.77691 0.36949 0.0
O222 O 0.71772 0.77617 0.38801 0.0
O223 O 0.7189 0.7796 0.41989 0.0
O224 O 0.75127 0.79507 0.427 0.0
O225 O 0.73078 0.78581 0.4536 0.0
O226 O 0.70307 0.76015 0.4645 0.0
O227 O 0.71641 0.7335 0.45374 0.0
O228 O 0.75786 0.7541 0.45285 0.0
O229 O 0.75663 0.75003 0.42093 0.0
O230 O 0.71583 0.74235 0.41168 0.0
O231 O 0.7445 0.74276 0.39039 0.0
H232 H 0.80655 0.8028 0.36714 0.0
H233 H 0.80991 0.83342 0.35676 0.0
H234 H 0.74575 0.83905 0.3528 0.0
H235 H 0.74242 0.80847 0.36321 0.0
H236 H 0.67731 0.74619 0.43443 0.0
H237 H 0.64332 0.7355 0.43259 0.0
H238 H 0.64776 0.71302 0.49073 0.0
H239 H 0.68172 0.72383 0.49245 0.0
Nd240 Nd 0.43656 0.43026 0.67436 0.0
Nd241 Nd 0.46621 0.46059 0.69376 0.0
C242 C 0.41772 0.40008 0.6666 0.0
C243 C 0.4088 0.38704 0.65183 0.0
C244 C 0.41879 0.37017 0.64605 0.0
C245 C 0.4096 0.35674 0.63438 0.0
C246 C 0.39005 0.3597 0.62824 0.0
C247 C 0.38017 0.37671 0.63374 0.0
C248 C 0.38941 0.3902 0.64539 0.0
C249 C 0.43343 0.46245 0.65593 0.0
C250 C 0.48465 0.43096 0.65639 0.0
C251 C 0.48397 0.49041 0.70646 0.0
C252 C 0.48292 0.50973 0.71538 0.0
C253 C 0.47948 0.52417 0.70329 0.0
C254 C 0.48122 0.5422 0.71107 0.0
C255 C 0.48654 0.54648 0.73123 0.0
C256 C 0.48961 0.53198 0.7434 0.0
C257 C 0.48789 0.51396 0.7356 0.0
C258 C 0.46998 0.42559 0.70498 0.0
C259 C 0.42033 0.45728 0.71513 0.0
O260 O 0.43734 0.40069 0.66601 0.0
O261 O 0.40835 0.41581 0.67197 0.0
O262 O 0.42387 0.44824 0.65041 0.0
O263 O 0.4446 0.45848 0.6696 0.0
O264 O 0.46794 0.42197 0.65812 0.0
O265 O 0.48647 0.44713 0.66618 0.0
O266 O 0.4794 0.4867 0.68753 0.0
O267 O 0.47951 0.47758 0.71834 0.0
O268 O 0.48498 0.43616 0.70392 0.0
O269 O 0.45405 0.43426 0.70194 0.0
O270 O 0.43553 0.4678 0.71175 0.0
O271 O 0.41901 0.44138 0.70469 0.0
H272 H 0.43353 0.36711 0.65111 0.0
H273 H 0.41762 0.34377 0.63076 0.0
H274 H 0.36522 0.37959 0.62912 0.0
H275 H 0.38115 0.40294 0.64973 0.0
H276 H 0.47597 0.52156 0.68755 0.0
H277 H 0.47899 0.55276 0.70095 0.0
H278 H 0.49341 0.53449 0.75905 0.0
H279 H 0.49096 0.50326 0.74533 0.0
Nd280 Nd 0.87693 0.16898 0.88907 0.0
Nd281 Nd 0.89884 0.17173 0.93148 0.0
C282 C 0.85006 0.1683 0.86185 0.0
C283 C 0.83078 0.15995 0.86131 0.0
C284 C 0.82191 0.15347 0.87905 0.0
C285 C 0.804 0.14464 0.87849 0.0
C286 C 0.79509 0.14178 0.85997 0.0
C287 C 0.8044 0.14775 0.84205 0.0
C288 C 0.82213 0.15683 0.84274 0.0
C289 C 0.91475 0.15129 0.88323 0.0
C290 C 0.87148 0.13801 0.92166 0.0
C291 C 0.92489 0.17118 0.95965 0.0
C292 C 0.94554 0.17632 0.96204 0.0
C293 C 0.95951 0.17627 0.94512 0.0
C294 C 0.97872 0.18236 0.94755 0.0
C295 C 0.98412 0.18897 0.96694 0.0
C296 C 0.96991 0.18912 0.98381 0.0
C297 C 0.95085 0.18277 0.98137 0.0
C298 C 0.85842 0.18385 0.93907 0.0
C299 C 0.9067 0.20195 0.89756 0.0
O300 O 0.85115 0.18202 0.87555 0.0
O301 O 0.86538 0.15665 0.86102 0.0
O302 O 0.90227 0.15235 0.86918 0.0
O303 O 0.90679 0.15983 0.89944 0.0
O304 O 0.86349 0.14686 0.90734 0.0
O305 O 0.88731 0.1434 0.93093 0.0
O306 O 0.92229 0.15716 0.94686 0.0
O307 O 0.91195 0.18469 0.9584 0.0
O308 O 0.87135 0.1836 0.95276 0.0
O309 O 0.86755 0.17825 0.92199 0.0
O310 O 0.91201 0.19442 0.91404 0.0
O311 O 0.8925 0.19574 0.88622 0.0
H312 H 0.82898 0.15513 0.89322 0.0
H313 H 0.79712 0.14009 0.89245 0.0
H314 H 0.79762 0.1459 0.82761 0.0
H315 H 0.8291 0.16137 0.82883 0.0
H316 H 0.95547 0.17181 0.93001 0.0
H317 H 0.98928 0.18192 0.93424 0.0
H318 H 0.97328 0.19456 0.99886 0.0
H319 H 0.94007 0.18328 0.99454 0.0
Nd320 Nd 0.30878 0.02198 0.41848 0.0
Nd321 Nd 0.27985 0.04445 0.39989 0.0
C322 C 0.33759 0.00412 0.43455 0.0
C323 C 0.34233 0.98457 0.43194 0.0
C324 C 0.36102 0.97805 0.42265 0.0
C325 C 0.3646 0.95965 0.41713 0.0
C326 C 0.34957 0.94748 0.42096 0.0
C327 C 0.33104 0.95392 0.43072 0.0
C328 C 0.32737 0.97234 0.43604 0.0
C329 C 0.27054 0.01736 0.43503 0.0
C330 C 0.29641 0.00589 0.37341 0.0
C331 C 0.24796 0.05947 0.38545 0.0
C332 C 0.23417 0.07502 0.39203 0.0
C333 C 0.22983 0.08051 0.41287 0.0
C334 C 0.21955 0.09708 0.4188 0.0
C335 C 0.21391 0.10844 0.40395 0.0
C336 C 0.21754 0.10257 0.38315 0.0
C337 C 0.22752 0.08592 0.37724 0.0
C338 C 0.31919 0.0497 0.38797 0.0
C339 C 0.29889 0.06413 0.43799 0.0
O340 O 0.34076 0.01257 0.41808 0.0
O341 O 0.3206 0.00933 0.44475 0.0
O342 O 0.28268 0.00423 0.4268 0.0
O343 O 0.27752 0.03226 0.43072 0.0
O344 O 0.30916 0.00407 0.38769 0.0
O345 O 0.28211 0.019 0.37618 0.0
O346 O 0.24709 0.04549 0.39633 0.0
O347 O 0.26632 0.06362 0.38032 0.0
O348 O 0.30609 0.06316 0.39236 0.0
O349 O 0.31113 0.03506 0.3896 0.0
O350 O 0.28218 0.0634 0.42858 0.0
O351 O 0.31306 0.05093 0.43417 0.0
H352 H 0.37266 0.98724 0.41915 0.0
H353 H 0.37921 0.95491 0.41002 0.0
H354 H 0.31931 0.94475 0.43391 0.0
H355 H 0.31265 0.977 0.44289 0.0
H356 H 0.23512 0.07237 0.42451 0.0
H357 H 0.21693 0.10144 0.43492 0.0
H358 H 0.21314 0.1111 0.37149 0.0
H359 H 0.2309 0.08193 0.36111 0.0
Nd360 Nd 0.19746 0.00927 0.6029 0.0
Nd361 Nd 0.23331 0.9964 0.62505 0.0
C362 C 0.17548 0.02091 0.57488 0.0
C363 C 0.166 0.03906 0.57459 0.0
C364 C 0.17125 0.04932 0.55828 0.0
C365 C 0.16672 0.06787 0.55997 0.0
C366 C 0.15678 0.07641 0.57796 0.0
C367 C 0.15045 0.066 0.59379 0.0
C368 C 0.1551 0.04746 0.59217 0.0
C369 C 0.18802 0.01951 0.64387 0.0
C370 C 0.23083 0.03754 0.61711 0.0
C371 C 0.25809 0.9801 0.64793 0.0
C372 C 0.25459 0.97197 0.6674 0.0
C373 C 0.23766 0.97765 0.68055 0.0
C374 C 0.23426 0.97015 0.69914 0.0
C375 C 0.24754 0.95655 0.70489 0.0
C376 C 0.26426 0.9506 0.69138 0.0
C377 C 0.26776 0.95828 0.6728 0.0
C378 C 0.23956 0.99646 0.58287 0.0
C379 C 0.19391 0.97226 0.62263 0.0
O380 O 0.19514 0.02045 0.57305 0.0
O381 O 0.1683 0.011 0.58901 0.0
O382 O 0.17687 0.02335 0.62942 0.0
O383 O 0.20419 0.01119 0.63655 0.0
O384 O 0.21864 0.03255 0.60305 0.0
O385 O 0.23659 0.02667 0.63063 0.0
O386 O 0.25508 0.99767 0.64881 0.0
O387 O 0.25048 0.97178 0.63221 0.0
O388 O 0.25246 1.00163 0.59562 0.0
O389 O 0.22435 0.99096 0.59253 0.0
O390 O 0.2087 0.9774 0.63355 0.0
O391 O 0.18882 0.98067 0.60683 0.0
H392 H 0.17981 0.04315 0.5447 0.0
H393 H 0.17134 0.0756 0.54735 0.0
H394 H 0.14268 0.07229 0.60776 0.0
H395 H 0.15102 0.03993 0.60511 0.0
H396 H 0.22717 0.98808 0.67655 0.0
H397 H 0.22144 0.97539 0.7092 0.0
H398 H 0.27464 0.93998 0.69512 0.0
H399 H 0.28076 0.95356 0.66268 0.0
Nd400 Nd 0.21045 0.91031 0.87292 0.0
Nd401 Nd 0.22155 0.94459 0.8944 0.0
C402 C 0.19972 0.88315 0.84832 0.0
C403 C 0.18223 0.87696 0.83797 0.0
C404 C 0.17023 0.88878 0.82785 0.0
C405 C 0.15492 0.88213 0.81646 0.0
C406 C 0.15137 0.86359 0.81506 0.0
C407 C 0.16265 0.85203 0.82624 0.0
C408 C 0.17798 0.85868 0.83756 0.0
C409 C 0.20056 0.91312 0.91424 0.0
C410 C 0.1791 0.94649 0.87526 0.0
C411 C 0.23461 0.97024 0.9193 0.0
C412 C 0.24326 0.97068 0.93915 0.0
C413 C 0.23743 0.95861 0.95354 0.0
C414 C 0.24517 0.95967 0.97272 0.0
C415 C 0.25899 0.97271 0.97772 0.0
C416 C 0.26539 0.98423 0.96289 0.0
C417 C 0.25752 0.98326 0.94379 0.0
C418 C 0.22995 0.9422 0.85292 0.0
C419 C 0.25055 0.90865 0.89567 0.0
O420 O 0.20842 0.89722 0.84178 0.0
O421 O 0.19853 0.8831 0.86818 0.0
O422 O 0.20805 0.89841 0.90411 0.0
O423 O 0.19802 0.92548 0.90264 0.0
O424 O 0.18506 0.93081 0.86506 0.0
O425 O 0.18952 0.95371 0.88977 0.0
O426 O 0.21575 0.96632 0.91927 0.0
O427 O 0.24578 0.96212 0.90385 0.0
O428 O 0.22234 0.95665 0.86345 0.0
O429 O 0.23348 0.92976 0.86424 0.0
O430 O 0.24182 0.92276 0.90678 0.0
O431 O 0.24321 0.90272 0.87844 0.0
H432 H 0.17303 0.90303 0.82827 0.0
H433 H 0.14624 0.8914 0.80827 0.0
H434 H 0.16037 0.83768 0.82536 0.0
H435 H 0.187 0.8494 0.84544 0.0
H436 H 0.22664 0.94858 0.95009 0.0
H437 H 0.23987 0.95065 0.9838 0.0
H438 H 0.27641 0.99411 0.96607 0.0
H439 H 0.26243 0.99244 0.93271 0.0
Nd440 Nd 0.36135 0.92615 0.19964 0.0
Nd441 Nd 0.3587 0.96302 0.18667 0.0
C442 C 0.36072 0.89961 0.22403 0.0
C443 C 0.37514 0.89026 0.23595 0.0
C444 C 0.37141 0.8909 0.25723 0.0
C445 C 0.38524 0.88301 0.26912 0.0
C446 C 0.40303 0.87421 0.25992 0.0
C447 C 0.40668 0.87338 0.23856 0.0
C448 C 0.39288 0.88141 0.22666 0.0
C449 C 0.37585 0.92185 0.15855 0.0
C450 C 0.39957 0.9519 0.20443 0.0
C451 C 0.3498 0.99135 0.16714 0.0
C452 C 0.33984 0.99082 0.14796 0.0
C453 C 0.34219 0.9751 0.13452 0.0
C454 C 0.33103 0.9732 0.11751 0.0
C455 C 0.31708 0.98693 0.11363 0.0
C456 C 0.31469 1.00271 0.12711 0.0
C457 C 0.32596 0.0046 0.14422 0.0
C458 C 0.34886 0.96179 0.22832 0.0
C459 C 0.32304 0.93622 0.17633 0.0
O460 O 0.35612 0.91645 0.23035 0.0
O461 O 0.36296 0.89689 0.20412 0.0
O462 O 0.37536 0.90933 0.17109 0.0
O463 O 0.36972 0.937 0.16804 0.0
O464 O 0.38974 0.93844 0.21139 0.0
O465 O 0.39205 0.96189 0.19099 0.0
O466 O 0.36793 0.98368 0.16592 0.0
O467 O 0.33855 0.98676 0.18272 0.0
O468 O 0.35974 0.97381 0.22044 0.0
O469 O 0.34318 0.95108 0.21405 0.0
O470 O 0.33267 0.9504 0.17161 0.0
O471 O 0.3299 0.92491 0.18877 0.0
H472 H 0.35784 0.89768 0.2647 0.0
H473 H 0.38191 0.88365 0.28552 0.0
H474 H 0.42037 0.86682 0.2311 0.0
H475 H 0.39623 0.88085 0.21027 0.0
H476 H 0.35239 0.96405 0.13742 0.0
H477 H 0.33347 0.96099 0.10734 0.0
H478 H 0.30385 0.01343 0.12465 0.0
H479 H 0.32352 0.0166 0.15474 0.0
Nd480 Nd 0.41866 0.2747 0.03864 0.0
Nd481 Nd 0.39903 0.24601 0.06007 0.0
C482 C 0.43065 0.2989 0.01417 0.0
C483 C 0.42211 0.30737 0.99715 0.0
C484 C 0.40357 0.3172 0.99976 0.0
C485 C 0.39555 0.32463 0.98316 0.0
C486 C 0.4058 0.32217 0.96361 0.0
C487 C 0.42402 0.3118 0.96098 0.0
C488 C 0.43216 0.3046 0.97763 0.0
C489 C 0.44444 0.24573 0.04155 0.0
C490 C 0.37827 0.25647 0.01999 0.0
C491 C 0.39132 0.21684 0.07871 0.0
C492 C 0.40299 0.20562 0.09113 0.0
C493 C 0.42289 0.20953 0.0944 0.0
C494 C 0.43374 0.19951 0.10726 0.0
C495 C 0.42482 0.18541 0.11688 0.0
C496 C 0.40503 0.18125 0.11308 0.0
C497 C 0.39417 0.19134 0.10029 0.0
C498 C 0.37713 0.27841 0.06403 0.0
C499 C 0.42959 0.27201 0.08505 0.0
O500 O 0.42224 0.30329 0.03263 0.0
O501 O 0.4353 0.28163 0.01051 0.0
O502 O 0.44905 0.26236 0.04374 0.0
O503 O 0.42626 0.2442 0.03707 0.0
O504 O 0.38985 0.27042 0.02094 0.0
O505 O 0.38139 0.24305 0.03145 0.0
O506 O 0.39791 0.21636 0.05947 0.0
O507 O 0.3864 0.23318 0.08692 0.0
O508 O 0.36874 0.26301 0.06267 0.0
O509 O 0.39571 0.27614 0.06478 0.0
O510 O 0.42181 0.25595 0.08298 0.0
O511 O 0.42797 0.28352 0.07082 0.0
H512 H 0.39534 0.31931 0.01461 0.0
H513 H 0.38168 0.33283 0.98584 0.0
H514 H 0.43216 0.30947 0.9461 0.0
H515 H 0.44634 0.29679 0.97525 0.0
H516 H 0.42988 0.2205 0.08726 0.0
H517 H 0.44898 0.20291 0.10987 0.0
H518 H 0.3977 0.17062 0.12057 0.0
H519 H 0.37879 0.18825 0.09787 0.0
Nd520 Nd 0.92439 0.94207 0.13813 0.0
Nd521 Nd 0.95066 0.97212 0.15385 0.0
C522 C 0.90984 0.91026 0.13134 0.0
C523 C 0.90326 0.89893 0.11399 0.0
C524 C 0.91596 0.88467 0.1045 0.0
C525 C 0.90832 0.87147 0.09138 0.0
C526 C 0.88777 0.87213 0.0881 0.0
C527 C 0.87588 0.88773 0.09537 0.0
C528 C 0.88354 0.90097 0.10829 0.0
C529 C 0.91736 0.96984 0.11452 0.0
C530 C 0.96917 0.94618 0.11573 0.0
C531 C 0.9702 0.99965 0.16897 0.0
C532 C 0.97084 0.01858 0.1773 0.0
C533 C 0.96079 0.03276 0.16875 0.0
C534 C 0.96433 0.05073 0.17497 0.0
C535 C 0.97809 0.05481 0.18975 0.0
C536 C 0.98732 0.04048 0.19892 0.0
C537 C 0.9837 0.02259 0.19276 0.0
C538 C 0.95672 0.93813 0.16764 0.0
C539 C 0.90466 0.97163 0.17329 0.0
O540 O 0.92913 0.91262 0.13143 0.0
O541 O 0.89855 0.92476 0.13786 0.0
O542 O 0.90986 0.9542 0.11203 0.0
O543 O 0.92931 0.97052 0.12866 0.0
O544 O 0.95516 0.9351 0.12082 0.0
O545 O 0.96884 0.9629 0.12403 0.0
O546 O 0.96782 0.99637 0.14946 0.0
O547 O 0.96186 0.98805 0.18042 0.0
O548 O 0.97125 0.94781 0.16156 0.0
O549 O 0.94039 0.94662 0.16618 0.0
O550 O 0.91944 0.98198 0.16824 0.0
O551 O 0.90452 0.95465 0.16581 0.0
H552 H 0.93138 0.88297 0.10833 0.0
H553 H 0.91797 0.85984 0.08552 0.0
H554 H 0.85999 0.88882 0.09315 0.0
H555 H 0.87348 0.91202 0.11505 0.0
H556 H 0.95073 0.02997 0.15683 0.0
H557 H 0.95662 0.0614 0.16788 0.0
H558 H 0.99815 0.04299 0.21015 0.0
H559 H 0.99169 0.01183 0.19947 0.0
Nd560 Nd 0.10599 0.63758 0.53025 0.0
Nd561 Nd 0.13426 0.66432 0.51428 0.0
C562 C 0.07731 0.62033 0.54997 0.0
C563 C 0.06961 0.61735 0.57144 0.0
C564 C 0.05743 0.6306 0.58366 0.0
C565 C 0.0491 0.62717 0.60315 0.0
C566 C 0.05253 0.61033 0.61113 0.0
C567 C 0.06504 0.59723 0.599 0.0
C568 C 0.07336 0.60066 0.5795 0.0
C569 C 0.14558 0.63133 0.53833 0.0
C570 C 0.10981 0.67717 0.55739 0.0
C571 C 0.16577 0.68167 0.50089 0.0
C572 C 0.1853 0.68014 0.48873 0.0
C573 C 0.19657 0.66365 0.48493 0.0
C574 C 0.21639 0.66321 0.47616 0.0
C575 C 0.22527 0.67927 0.47128 0.0
C576 C 0.21351 0.69556 0.47418 0.0
C577 C 0.19374 0.69597 0.48278 0.0
C578 C 0.09474 0.6726 0.50874 0.0
C579 C 0.12571 0.62865 0.48358 0.0
O580 O 0.07454 0.6364 0.5436 0.0
O581 O 0.09471 0.61268 0.54299 0.0
O582 O 0.134 0.61879 0.53233 0.0
O583 O 0.1362 0.64648 0.54002 0.0
O584 O 0.09948 0.66261 0.55394 0.0
O585 O 0.12566 0.68018 0.54525 0.0
O586 O 0.16477 0.6737 0.51789 0.0
O587 O 0.14932 0.68073 0.4913 0.0
O588 O 0.10758 0.68456 0.51341 0.0
O589 O 0.10302 0.65689 0.50587 0.0
O590 O 0.13944 0.6397 0.48988 0.0
O591 O 0.1091 0.62697 0.49559 0.0
H592 H 0.0541 0.64362 0.57811 0.0
H593 H 0.03991 0.63781 0.61196 0.0
H594 H 0.06797 0.58403 0.60427 0.0
H595 H 0.08247 0.59005 0.57053 0.0
H596 H 0.19034 0.65128 0.48949 0.0
H597 H 0.22509 0.65048 0.47424 0.0
H598 H 0.21981 0.70812 0.47037 0.0
H599 H 0.18532 0.70882 0.4856 0.0
Nd600 Nd 0.97399 0.56276 0.79002 0.0
Nd601 Nd 0.93945 0.58713 0.77535 0.0
C602 C 0.99631 0.53432 0.79921 0.0
C603 C 0.99686 0.5152 0.80463 0.0
C604 C 0.98422 0.50246 0.79614 0.0
C605 C 0.9872 0.48396 0.79881 0.0
C606 C 0.00293 0.47765 0.81004 0.0
C607 C 0.01507 0.4906 0.8191 0.0
C608 C 0.01209 0.50906 0.8164 0.0
C609 C 0.97874 0.59921 0.79635 0.0
C610 C 0.93033 0.57277 0.8189 0.0
C611 C 0.91561 0.61025 0.75925 0.0
C612 C 0.91905 0.62073 0.74149 0.0
C613 C 0.93578 0.63144 0.73967 0.0
C614 C 0.94093 0.63878 0.72132 0.0
C615 C 0.92967 0.63519 0.70446 0.0
C616 C 0.91254 0.62506 0.70646 0.0
C617 C 0.90718 0.61798 0.72492 0.0
C618 C 0.93727 0.55061 0.76886 0.0
C619 C 0.98221 0.5817 0.74659 0.0
O620 O 0.99156 0.53719 0.78078 0.0
O621 O 0.98963 0.54742 0.81289 0.0
O622 O 0.99377 0.58728 0.79365 0.0
O623 O 0.96242 0.59144 0.79822 0.0
O624 O 0.94549 0.56049 0.81358 0.0
O625 O 0.9275 0.58666 0.8081 0.0
O626 O 0.9255 0.61467 0.77522 0.0
O627 O 0.91557 0.5928 0.75486 0.0
O628 O 0.92171 0.56118 0.77509 0.0
O629 O 0.95259 0.55933 0.76609 0.0
O630 O 0.96542 0.59158 0.75181 0.0
O631 O 0.98817 0.56859 0.75776 0.0
H632 H 0.97235 0.50671 0.78695 0.0
H633 H 0.97724 0.47459 0.79187 0.0
H634 H 0.02749 0.48646 0.82763 0.0
H635 H 0.02225 0.5185 0.82289 0.0
H636 H 0.94543 0.63349 0.75204 0.0
H637 H 0.95423 0.64653 0.72001 0.0
H638 H 0.90355 0.62233 0.69361 0.0
H639 H 0.89432 0.60967 0.72596 0.0
Nd640 Nd 0.1271 0.26431 0.43474 0.0
Nd641 Nd 0.10718 0.23512 0.45442 0.0
C642 C 0.13595 0.29433 0.41821 0.0
C643 C 0.1249 0.3063 0.40612 0.0
C644 C 0.10502 0.3029 0.40246 0.0
C645 C 0.09488 0.31292 0.38914 0.0
C646 C 0.10464 0.3264 0.37917 0.0
C647 C 0.1243 0.33039 0.38368 0.0
C648 C 0.13441 0.32032 0.3971 0.0
C649 C 0.14879 0.23182 0.4288 0.0
C650 C 0.09627 0.23986 0.40836 0.0
C651 C 0.09409 0.21061 0.47796 0.0
C652 C 0.10194 0.2017 0.49502 0.0
C653 C 0.12032 0.19163 0.49272 0.0
C654 C 0.12783 0.184 0.50944 0.0
C655 C 0.11725 0.1865 0.52882 0.0
C656 C 0.09911 0.19701 0.53114 0.0
C657 C 0.09147 0.20442 0.51435 0.0
C658 C 0.0819 0.26468 0.45304 0.0
C659 C 0.14777 0.25196 0.47389 0.0
O660 O 0.1287 0.29399 0.43715 0.0
O661 O 0.14068 0.27824 0.40918 0.0
O662 O 0.15722 0.24715 0.43096 0.0
O663 O 0.13017 0.23415 0.42834 0.0
O664 O 0.10418 0.25581 0.41127 0.0
O665 O 0.09778 0.22774 0.42196 0.0
O666 O 0.10289 0.20644 0.45962 0.0
O667 O 0.08977 0.2279 0.48193 0.0
O668 O 0.07717 0.24822 0.44938 0.0
O669 O 0.09999 0.26569 0.45798 0.0
O670 O 0.13626 0.23801 0.47201 0.0
O671 O 0.1444 0.26604 0.46352 0.0
H672 H 0.09769 0.29201 0.40932 0.0
H673 H 0.07972 0.30965 0.38601 0.0
H674 H 0.13225 0.34054 0.37594 0.0
H675 H 0.14983 0.32301 0.3998 0.0
H676 H 0.12885 0.18954 0.47803 0.0
H677 H 0.14163 0.17567 0.50698 0.0
H678 H 0.09071 0.19936 0.54587 0.0
H679 H 0.0774 0.2124 0.5165 0.0
Nd680 Nd 0.52609 0.2975 0.2522 0.0
Nd681 Nd 0.53798 0.329 0.22626 0.0
C682 C 0.51859 0.26712 0.2691 0.0
C683 C 0.51388 0.24805 0.27151 0.0
C684 C 0.5227 0.23376 0.25812 0.0
C685 C 0.52064 0.21577 0.26263 0.0
C686 C 0.5099 0.21161 0.28077 0.0
C687 C 0.50041 0.22602 0.29366 0.0
C688 C 0.50236 0.24396 0.28906 0.0
C689 C 0.50976 0.33148 0.26608 0.0
C690 C 0.50368 0.30473 0.21025 0.0
C691 C 0.54879 0.35964 0.21203 0.0
C692 C 0.56795 0.368 0.20692 0.0
C693 C 0.57127 0.38523 0.21595 0.0
C694 C 0.58929 0.39342 0.21144 0.0
C695 C 0.60435 0.38458 0.19768 0.0
C696 C 0.60107 0.36724 0.18876 0.0
C697 C 0.5831 0.35899 0.19341 0.0
C698 C 0.55705 0.29649 0.2132 0.0
C699 C 0.56054 0.3231 0.26852 0.0
O700 O 0.53613 0.27059 0.26058 0.0
O701 O 0.50454 0.27976 0.26784 0.0
O702 O 0.51477 0.31921 0.27798 0.0
O703 O 0.51174 0.32485 0.24778 0.0
O704 O 0.51091 0.29227 0.22154 0.0
O705 O 0.50858 0.3217 0.21304 0.0
O706 O 0.54428 0.35798 0.23141 0.0
O707 O 0.54441 0.34555 0.20029 0.0
O708 O 0.55273 0.30881 0.20123 0.0
O709 O 0.55342 0.30218 0.23166 0.0
O710 O 0.5561 0.33372 0.25421 0.0
O711 O 0.55274 0.30717 0.26982 0.0
H712 H 0.53168 0.23649 0.24446 0.0
H713 H 0.52781 0.20513 0.25202 0.0
H714 H 0.4922 0.22356 0.30786 0.0
H715 H 0.49559 0.25473 0.29978 0.0
H716 H 0.55985 0.39242 0.22645 0.0
H717 H 0.59124 0.40686 0.21838 0.0
H718 H 0.61246 0.36002 0.17827 0.0
H719 H 0.58109 0.34558 0.1864 0.0
Nd720 Nd 0.39033 0.84178 0.97689 0.0
Nd721 Nd 0.42162 0.86994 0.95847 0.0
C722 C 0.35742 0.82625 0.98985 0.0
C723 C 0.33709 0.82977 1.00044 0.0
C724 C 0.32311 0.8421 0.99357 0.0
C725 C 0.30335 0.84388 1.00231 0.0
C726 C 0.29697 0.83338 0.0182 0.0
C727 C 0.31116 0.82132 0.02539 0.0
C728 C 0.33097 0.81953 0.01658 0.0
C729 C 0.43002 0.83396 0.98185 0.0
C730 C 0.40024 0.87861 1.00629 0.0
C731 C 0.4529 0.88542 0.94132 0.0
C732 C 0.46063 0.88957 0.92021 0.0
C733 C 0.47518 0.87789 0.90874 0.0
C734 C 0.4832 0.88185 0.88936 0.0
C735 C 0.47719 0.89779 0.88069 0.0
C736 C 0.46238 0.90938 0.89206 0.0
C737 C 0.45428 0.90537 0.91149 0.0
C738 C 0.38341 0.87407 0.94429 0.0
C739 C 0.41629 0.82937 0.93359 0.0
O740 O 0.3604 0.83179 0.9715 0.0
O741 O 0.373 0.82796 1.00073 0.0
O742 O 0.41654 0.82189 0.98039 0.0
O743 O 0.42197 0.8498 0.98265 0.0
O744 O 0.38788 0.86555 1.002 0.0
O745 O 0.41506 0.88259 0.99274 0.0
O746 O 0.45315 0.86837 0.94509 0.0
O747 O 0.43696 0.89468 0.95018 0.0
O748 O 0.39825 0.8835 0.9386 0.0
O749 O 0.38968 0.86366 0.95661 0.0
O750 O 0.42741 0.84351 0.93692 0.0
O751 O 0.39981 0.82694 0.94532 0.0
H752 H 0.32721 0.85002 0.98101 0.0
H753 H 0.29291 0.85305 0.99598 0.0
H754 H 0.30695 0.81314 0.03772 0.0
H755 H 0.34141 0.80982 0.02208 0.0
H756 H 0.48054 0.86561 0.9148 0.0
H757 H 0.49417 0.87226 0.88117 0.0
H758 H 0.45736 0.92186 0.88623 0.0
H759 H 0.44321 0.9148 0.91978 0.0
Nd760 Nd 0.02671 0.30781 0.82227 0.0
Nd761 Nd 0.01037 0.33405 0.85636 0.0
C762 C 0.03867 0.27784 0.7987 0.0
C763 C 0.04148 0.2579 0.79868 0.0
C764 C 0.04925 0.24942 0.81497 0.0
C765 C 0.051 0.23044 0.81439 0.0
C766 C 0.04478 0.21957 0.79765 0.0
C767 C 0.03708 0.22821 0.78143 0.0
C768 C 0.03551 0.24707 0.78193 0.0
C769 C 0.03496 0.34336 0.81641 0.0
C770 C 0.05259 0.31538 0.86299 0.0
C771 C 0.99198 0.3606 0.88019 0.0
C772 C 0.97057 0.36625 0.88204 0.0
C773 C 0.96487 0.38385 0.87802 0.0
C774 C 0.94473 0.38879 0.87668 0.0
C775 C 0.92988 0.37624 0.87948 0.0
C776 C 0.93548 0.35871 0.88394 0.0
C777 C 0.95573 0.35366 0.88498 0.0
C778 C 0.99885 0.29918 0.86039 0.0
C779 C 0.98648 0.33132 0.81401 0.0
O780 O 0.02018 0.28442 0.80117 0.0
O781 O 0.05109 0.28825 0.80795 0.0
O782 O 0.03228 0.33123 0.80165 0.0
O783 O 0.03574 0.33588 0.83288 0.0
O784 O 0.04697 0.30273 0.8494 0.0
O785 O 0.04228 0.33099 0.86605 0.0
O786 O 0.00126 0.36302 0.86256 0.0
O787 O 0.99684 0.34501 0.8868 0.0
O788 O 0.0049 0.30973 0.87507 0.0
O789 O 0.99934 0.30704 0.84414 0.0
O790 O 0.98905 0.34052 0.83153 0.0
O791 O 0.99796 0.31675 0.80765 0.0
H792 H 0.0538 0.25742 0.82817 0.0
H793 H 0.05686 0.22426 0.82723 0.0
H794 H 0.03242 0.22036 0.76816 0.0
H795 H 0.02947 0.25325 0.76917 0.0
H796 H 0.97607 0.39366 0.87545 0.0
H797 H 0.94073 0.40257 0.87379 0.0
H798 H 0.92425 0.34891 0.88638 0.0
H799 H 0.95976 0.33985 0.8877 0.0
Nd800 Nd 0.33157 0.22374 0.51578 0.0
Nd801 Nd 0.30225 0.21726 0.55582 0.0
C802 C 0.36266 0.22873 0.49052 0.0
C803 C 0.38207 0.23635 0.49369 0.0
C804 C 0.38858 0.23874 0.51348 0.0
C805 C 0.40596 0.24785 0.51691 0.0
C806 C 0.41702 0.25478 0.5006 0.0
C807 C 0.41049 0.25217 0.48077 0.0
C808 C 0.39311 0.24304 0.47736 0.0
C809 C 0.2911 0.23309 0.5107 0.0
C810 C 0.32701 0.25418 0.5549 0.0
C811 C 0.2699 0.21495 0.5806 0.0
C812 C 0.26252 0.20052 0.59271 0.0
C813 C 0.24468 0.19257 0.58781 0.0
C814 C 0.23993 0.17613 0.59513 0.0
C815 C 0.25287 0.1675 0.60761 0.0
C816 C 0.26963 0.17633 0.6142 0.0
C817 C 0.27451 0.19272 0.60671 0.0
C818 C 0.34152 0.20881 0.56368 0.0
C819 C 0.31354 0.18353 0.51912 0.0
O820 O 0.35961 0.21317 0.49802 0.0
O821 O 0.34733 0.24041 0.49421 0.0
O822 O 0.30552 0.23435 0.49673 0.0
O823 O 0.29907 0.22742 0.52577 0.0
O824 O 0.33877 0.24604 0.53962 0.0
O825 O 0.30983 0.24743 0.5613 0.0
O826 O 0.27033 0.21127 0.56078 0.0
O827 O 0.28592 0.22285 0.58635 0.0
O828 O 0.32594 0.20654 0.57601 0.0
O829 O 0.33561 0.21401 0.54707 0.0
O830 O 0.30256 0.1895 0.53629 0.0
O831 O 0.32612 0.19372 0.50932 0.0
H832 H 0.37999 0.23389 0.52632 0.0
H833 H 0.4107 0.24949 0.53231 0.0
H834 H 0.41852 0.25761 0.46796 0.0
H835 H 0.38801 0.24159 0.46208 0.0
H836 H 0.23519 0.19839 0.57712 0.0
H837 H 0.22682 0.16958 0.59 0.0
H838 H 0.27984 0.16987 0.62376 0.0
H839 H 0.28836 0.19857 0.61079 0.0
Nd840 Nd 0.57666 0.53726 0.33406 0.0
Nd841 Nd 0.60529 0.55645 0.36193 0.0
C842 C 0.55079 0.51659 0.31582 0.0
C843 C 0.54838 0.49754 0.30899 0.0
C844 C 0.5626 0.48396 0.31263 0.0
C845 C 0.55932 0.4658 0.30709 0.0
C846 C 0.54176 0.46093 0.29782 0.0
C847 C 0.52781 0.47472 0.29388 0.0
C848 C 0.5311 0.49282 0.29942 0.0
C849 C 0.58232 0.57324 0.32789 0.0
C850 C 0.62283 0.53418 0.31985 0.0
C851 C 0.62814 0.58051 0.37831 0.0
C852 C 0.62916 0.59992 0.38327 0.0
C853 C 0.62759 0.61204 0.36815 0.0
C854 C 0.63328 0.62968 0.3718 0.0
C855 C 0.64085 0.63529 0.39051 0.0
C856 C 0.64015 0.62376 0.40639 0.0
C857 C 0.63439 0.60612 0.40274 0.0
C858 C 0.60787 0.52121 0.37012 0.0
C859 C 0.55816 0.55801 0.37784 0.0
O860 O 0.55009 0.52058 0.33557 0.0
O861 O 0.56468 0.52493 0.30584 0.0
O862 O 0.58023 0.56107 0.31303 0.0
O863 O 0.58036 0.5663 0.3445 0.0
O864 O 0.60706 0.52437 0.32188 0.0
O865 O 0.62369 0.5496 0.33106 0.0
O866 O 0.63006 0.57467 0.35888 0.0
O867 O 0.61492 0.57215 0.38921 0.0
O868 O 0.61702 0.53392 0.37943 0.0
O869 O 0.59668 0.52706 0.35719 0.0
O870 O 0.57571 0.56502 0.37992 0.0
O871 O 0.55517 0.54609 0.36246 0.0
H872 H 0.57607 0.48738 0.31999 0.0
H873 H 0.57051 0.45558 0.31011 0.0
H874 H 0.514 0.47153 0.28707 0.0
H875 H 0.51993 0.50314 0.29657 0.0
H876 H 0.62351 0.60756 0.35301 0.0
H877 H 0.63369 0.63825 0.35926 0.0
H878 H 0.64562 0.62792 0.42106 0.0
H879 H 0.63547 0.59695 0.41464 0.0
Nd880 Nd 0.10795 0.8465 0.04069 0.0
Nd881 Nd 0.13229 0.8575 0.07971 0.0
C882 C 0.08221 0.83561 0.01444 0.0
C883 C 0.06091 0.83143 0.01523 0.0
C884 C 0.04654 0.84189 0.02822 0.0
C885 C 0.02639 0.83773 0.02892 0.0
C886 C 0.02021 0.82297 0.01664 0.0
C887 C 0.03473 0.81236 1.00382 0.0
C888 C 0.0549 0.81658 1.00313 0.0
C889 C 0.1476 0.83427 0.03916 0.0
C890 C 0.09737 0.82971 0.08472 0.0
C891 C 0.1614 0.86236 0.10365 0.0
C892 C 0.1738 0.87789 0.10702 0.0
C893 C 0.18312 0.88582 0.09036 0.0
C894 C 0.19623 0.89956 0.09369 0.0
C895 C 0.19996 0.90569 0.11368 0.0
C896 C 0.18931 0.89885 0.13029 0.0
C897 C 0.17637 0.88494 0.12696 0.0
C898 C 0.09779 0.8793 0.08004 0.0
C899 C 0.13475 0.88102 0.03929 0.0
O900 O 0.08616 0.85263 0.01824 0.0
O901 O 0.09412 0.82442 0.02293 0.0
O902 O 0.13864 0.83904 0.02347 0.0
O903 O 0.13517 0.835 0.05463 0.0
O904 O 0.09067 0.83522 0.06775 0.0
O905 O 0.11489 0.83412 0.09122 0.0
O906 O 0.1641 0.85358 0.08551 0.0
O907 O 0.14249 0.86479 0.11047 0.0
O908 O 0.11061 0.88134 0.09383 0.0
O909 O 0.10401 0.86653 0.06728 0.0
O910 O 0.14424 0.87507 0.05466 0.0
O911 O 0.11808 0.87411 0.03317 0.0
H912 H 0.05082 0.85341 0.03766 0.0
H913 H 0.01561 0.84632 0.03877 0.0
H914 H 0.03054 0.80072 0.99441 0.0
H915 H 0.06582 0.80824 0.99314 0.0
H916 H 0.18096 0.88094 0.07476 0.0
H917 H 0.20432 0.90468 0.0807 0.0
H918 H 0.19217 0.90325 0.14586 0.0
H919 H 0.16898 0.87922 0.13996 0.0
Nd920 Nd 0.74884 0.94724 0.54169 0.0
Nd921 Nd 0.71043 0.96291 0.5236 0.0
C922 C 0.78586 0.93301 0.54222 0.0
C923 C 0.79668 0.91509 0.53779 0.0
C924 C 0.8121 0.91278 0.52203 0.0
C925 C 0.82239 0.89601 0.51719 0.0
C926 C 0.81764 0.88107 0.5281 0.0
C927 C 0.80224 0.88345 0.54401 0.0
C928 C 0.79186 0.90024 0.54878 0.0
C929 C 0.71454 0.94122 0.56682 0.0
C930 C 0.72117 0.92146 0.5131 0.0
C931 C 0.68001 0.98379 0.51533 0.0
C932 C 0.67443 1.00219 0.52462 0.0
C933 C 0.66502 0.00491 0.54446 0.0
C934 C 0.66418 0.02195 0.55506 0.0
C935 C 0.67294 0.03655 0.54616 0.0
C936 C 0.68138 0.03402 0.52593 0.0
C937 C 0.68188 0.01707 0.51519 0.0
C938 C 0.74483 0.96109 0.49804 0.0
C939 C 0.7323 0.98567 0.56148 0.0
O940 O 0.77921 0.94043 0.5265 0.0
O941 O 0.77332 0.93559 0.55854 0.0
O942 O 0.73258 0.93581 0.57054 0.0
O943 O 0.71591 0.94851 0.55033 0.0
O944 O 0.73909 0.92501 0.5191 0.0
O945 O 0.70557 0.93314 0.516 0.0
O946 O 0.67776 0.97047 0.52707 0.0
O947 O 0.69716 0.98239 0.50434 0.0
O948 O 0.72775 0.95527 0.49303 0.0
O949 O 0.74382 0.96677 0.51692 0.0
O950 O 0.71636 0.98305 0.55093 0.0
O951 O 0.74877 0.9751 0.5583 0.0
H952 H 0.81612 0.92397 0.51328 0.0
H953 H 0.83388 0.89472 0.50464 0.0
H954 H 0.79832 0.87238 0.55298 0.0
H955 H 0.78006 0.90155 0.56105 0.0
H956 H 0.65905 0.99377 0.55215 0.0
H957 H 0.65686 0.02357 0.57036 0.0
H958 H 0.68818 0.04496 0.51855 0.0
H959 H 0.68919 0.01541 0.49988 0.0
Nd960 Nd 0.78832 0.00972 0.32363 0.0
Nd961 Nd 0.82355 0.00368 0.34956 0.0
C962 C 0.76427 0.01814 0.29498 0.0
C963 C 0.76443 0.02573 0.27489 0.0
C964 C 0.78228 0.03055 0.26459 0.0
C965 C 0.78218 0.03601 0.24463 0.0
C966 C 0.76427 0.03652 0.23455 0.0
C967 C 0.74642 0.03205 0.2452 0.0
C968 C 0.74651 0.02676 0.26511 0.0
C969 C 0.7781 0.00957 0.36517 0.0
C970 C 0.81855 0.04216 0.33529 0.0
C971 C 0.84798 0.99205 0.37579 0.0
C972 C 0.85638 0.97364 0.37775 0.0
C973 C 0.85177 0.96522 0.39568 0.0
C974 C 0.85778 0.94716 0.39696 0.0
C975 C 0.86863 0.93718 0.38036 0.0
C976 C 0.87349 0.94567 0.36251 0.0
C977 C 0.86735 0.96369 0.36116 0.0
C978 C 0.83356 1.00152 0.30822 0.0
C979 C 0.79591 0.96948 0.33667 0.0
O980 O 0.77371 1.00241 0.29523 0.0
O981 O 0.76684 0.02903 0.31112 0.0
O982 O 0.7669 0.0037 0.35101 0.0
O983 O 0.793 0.01693 0.35714 0.0
O984 O 0.80862 0.03412 0.32069 0.0
O985 O 0.82165 0.03414 0.35196 0.0
O986 O 0.82859 0.99449 0.38008 0.0
O987 O 0.85427 0.99983 0.35956 0.0
O988 O 0.84473 0.0086 0.32173 0.0
O989 O 0.81835 0.99501 0.31664 0.0
O990 O 0.80898 0.97657 0.34861 0.0
O991 O 0.78703 0.97891 0.32341 0.0
H992 H 0.79633 0.02967 0.27178 0.0
H993 H 0.79621 0.03923 0.23684 0.0
H994 H 0.73233 0.03252 0.23804 0.0
H995 H 0.73259 0.02303 0.27274 0.0
H996 H 0.84318 0.97254 0.40857 0.0
H997 H 0.85408 0.94104 0.41104 0.0
H998 H 0.88171 0.93828 0.34943 0.0
H999 H 0.87086 0.96969 0.34697 0.0
Nd1000 Nd 0.77669 0.06968 0.04697 0.0
Nd1001 Nd 0.79765 0.09297 0.08078 0.0
C1002 C 0.75937 0.05801 0.01318 0.0
C1003 C 0.74826 0.06261 0.99507 0.0
C1004 C 0.74713 0.08004 0.98814 0.0
C1005 C 0.73709 0.0834 0.97045 0.0
C1006 C 0.72807 0.06939 0.95908 0.0
C1007 C 0.72899 0.05211 0.96646 0.0
C1008 C 0.73884 0.04882 0.98408 0.0
C1009 C 0.7641 0.06512 0.08711 0.0
C1010 C 0.76308 0.11202 0.06053 0.0
C1011 C 0.81399 0.10738 0.11338 0.0
C1012 C 0.83258 0.11507 0.1203 0.0
C1013 C 0.84131 0.10806 0.1369 0.0
C1014 C 0.85731 0.11643 0.14559 0.0
C1015 C 0.86484 0.13212 0.13796 0.0
C1016 C 0.85679 0.13859 0.12063 0.0
C1017 C 0.84076 0.13016 0.11189 0.0
C1018 C 0.81206 0.09565 0.04122 0.0
C1019 C 0.81222 0.0504 0.06934 0.0
O1020 O 0.77841 0.0614 0.01347 0.0
O1021 O 0.74993 0.06025 0.0314 0.0
O1022 O 0.76479 0.05229 0.07234 0.0
O1023 O 0.76819 0.07993 0.08007 0.0
O1024 O 0.76694 0.09961 0.04505 0.0
O1025 O 0.76918 0.10965 0.07869 0.0
O1026 O 0.81431 0.08998 0.10848 0.0
O1027 O 0.80337 0.1167 0.1016 0.0
O1028 O 0.81174 0.10894 0.05521 0.0
O1029 O 0.80677 0.08155 0.04867 0.0
O1030 O 0.80924 0.06408 0.08346 0.0
O1031 O 0.80338 0.04995 0.05184 0.0
H1032 H 0.75419 0.091 0.99624 0.0
H1033 H 0.73686 0.09688 0.96538 0.0
H1034 H 0.72202 0.04098 0.95859 0.0
H1035 H 0.73929 0.03529 0.98904 0.0
H1036 H 0.83532 0.09643 0.14362 0.0
H1037 H 0.86344 0.11087 0.15866 0.0
H1038 H 0.86222 0.15065 0.11442 0.0
H1039 H 0.83436 0.13583 0.09901 0.0
Nd1040 Nd 0.66121 0.09672 0.78365 0.0
Nd1041 Nd 0.62183 0.1071 0.81659 0.0
C1042 C 0.68402 0.09245 0.74901 0.0
C1043 C 0.691 0.0779 0.73319 0.0
C1044 C 0.67779 0.06516 0.72586 0.0
C1045 C 0.68369 0.05323 0.70876 0.0
C1046 C 0.70295 0.05373 0.69877 0.0
C1047 C 0.71658 0.06564 0.70703 0.0
C1048 C 0.71061 0.07768 0.72405 0.0
C1049 C 0.66909 0.08744 0.82281 0.0
C1050 C 0.62573 0.06784 0.79015 0.0
C1051 C 0.59771 0.11599 0.84912 0.0
C1052 C 0.60035 0.1305 0.86502 0.0
C1053 C 0.61563 0.12877 0.87832 0.0
C1054 C 0.62058 0.14356 0.8908 0.0
C1055 C 0.61027 0.16043 0.8904 0.0
C1056 C 0.59486 0.16216 0.87721 0.0
C1057 C 0.58988 0.14729 0.86468 0.0
C1058 C 0.61684 0.12086 0.77912 0.0
C1059 C 0.66112 0.13141 0.81424 0.0
O1060 O 0.66482 0.09715 0.75019 0.0
O1061 O 0.6914 0.09222 0.7669 0.0
O1062 O 0.68178 0.08458 0.8068 0.0
O1063 O 0.65295 0.09432 0.81703 0.0
O1064 O 0.64255 0.07209 0.78023 0.0
O1065 O 0.61516 0.07846 0.80457 0.0
O1066 O 0.61038 0.10185 0.84788 0.0
O1067 O 0.59463 0.12175 0.83132 0.0
O1068 O 0.60405 0.12372 0.79483 0.0
O1069 O 0.63138 0.11129 0.78423 0.0
O1070 O 0.64638 0.12588 0.82632 0.0
O1071 O 0.66271 0.12637 0.79449 0.0
H1072 H 0.66264 0.06487 0.73284 0.0
H1073 H 0.67298 0.04397 0.70298 0.0
H1074 H 0.73149 0.06639 0.69965 0.0
H1075 H 0.72105 0.08733 0.72954 0.0
H1076 H 0.62397 0.11605 0.87899 0.0
H1077 H 0.63201 0.14152 0.90137 0.0
H1078 H 0.58648 0.17492 0.87685 0.0
H1079 H 0.57814 0.14902 0.85438 0.0
Nd1080 Nd 0.60689 0.77989 0.99136 0.0
Nd1081 Nd 0.58501 0.75232 0.01099 0.0
C1082 C 0.62027 0.81006 0.97855 0.0
C1083 C 0.61709 0.81914 0.95985 0.0
C1084 C 0.60286 0.8337 0.96036 0.0
C1085 C 0.59768 0.84064 0.94224 0.0
C1086 C 0.60665 0.83308 0.92337 0.0
C1087 C 0.62155 0.81913 0.92294 0.0
C1088 C 0.62678 0.81227 0.94098 0.0
C1089 C 0.62655 0.74646 0.98456 0.0
C1090 C 0.58104 0.75569 0.96212 0.0
C1091 C 0.5693 0.72363 0.02546 0.0
C1092 C 0.57747 0.70977 0.03754 0.0
C1093 C 0.59699 0.71085 0.04393 0.0
C1094 C 0.60548 0.69694 0.05402 0.0
C1095 C 0.59454 0.68173 0.05779 0.0
C1096 C 0.57463 0.68114 0.0522 0.0
C1097 C 0.56617 0.69507 0.0421 0.0
C1098 C 0.56373 0.7854 0.01352 0.0
C1099 C 0.61707 0.77221 0.03724 0.0
O1100 O 0.6045 0.80968 0.99146 0.0
O1101 O 0.63082 0.7947 0.97616 0.0
O1102 O 0.62574 0.75806 0.97091 0.0
O1103 O 0.61797 0.75289 1.0015 0.0
O1104 O 0.58824 0.77182 0.96477 0.0
O1105 O 0.58007 0.74491 0.9771 0.0
O1106 O 0.57754 0.72363 0.00684 0.0
O1107 O 0.56677 0.73979 0.03486 0.0
O1108 O 0.56518 0.77545 0.02863 0.0
O1109 O 0.57369 0.77786 0.99801 0.0
O1110 O 0.60903 0.75666 0.0333 0.0
O1111 O 0.61476 0.78507 0.02487 0.0
H1112 H 0.59522 0.83932 0.9747 0.0
H1113 H 0.5862 0.85146 0.94293 0.0
H1114 H 0.62902 0.81338 0.90857 0.0
H1115 H 0.63798 0.80118 0.94002 0.0
H1116 H 0.60587 0.72219 0.04059 0.0
H1117 H 0.62089 0.69769 0.05797 0.0
H1118 H 0.56579 0.66967 0.05517 0.0
H1119 H 0.55102 0.69416 0.03742 0.0
Nd1120 Nd 0.06076 0.04782 0.79619 0.0
Nd1121 Nd 0.08919 0.07827 0.81671 0.0
C1122 C 0.04355 0.01789 0.78291 0.0
C1123 C 0.0446 0.99864 0.77392 0.0
C1124 C 0.05405 0.98455 0.78333 0.0
C1125 C 0.05267 0.96637 0.77584 0.0
C1126 C 0.04169 0.96164 0.75878 0.0
C1127 C 0.03262 0.97587 0.74921 0.0
C1128 C 0.03405 0.99401 0.75667 0.0
C1129 C 0.05639 0.08301 0.78539 0.0
C1130 C 0.1066 0.05218 0.7756 0.0
C1131 C 0.10735 0.10861 0.82535 0.0
C1132 C 0.11687 0.12105 0.84021 0.0
C1133 C 0.1065 0.13724 0.84814 0.0
C1134 C 0.11608 0.15038 0.85982 0.0
C1135 C 0.13638 0.14777 0.86376 0.0
C1136 C 0.14665 0.13138 0.85619 0.0
C1137 C 0.13702 0.11819 0.84454 0.0
C1138 C 0.09307 0.046 0.8348 0.0
C1139 C 0.04085 0.07689 0.83328 0.0
O1140 O 0.04798 0.02147 0.80191 0.0
O1141 O 0.04807 0.03078 0.77115 0.0
O1142 O 0.0417 0.07208 0.78587 0.0
O1143 O 0.07239 0.07458 0.78871 0.0
O1144 O 0.09171 0.04124 0.77849 0.0
O1145 O 0.10732 0.06798 0.78641 0.0
O1146 O 0.0878 0.10742 0.82732 0.0
O1147 O 0.11698 0.0934 0.8182 0.0
O1148 O 0.10199 0.06048 0.84063 0.0
O1149 O 0.08198 0.04965 0.82089 0.0
O1150 O 0.05732 0.08621 0.83196 0.0
O1151 O 0.03968 0.06065 0.82344 0.0
H1152 H 0.06223 0.98753 0.79671 0.0
H1153 H 0.06021 0.95601 0.78355 0.0
H1154 H 0.02376 0.97305 0.7363 0.0
H1155 H 0.02632 0.00446 0.74923 0.0
H1156 H 0.09111 0.14007 0.84474 0.0
H1157 H 0.10774 0.1629 0.86509 0.0
H1158 H 0.1622 0.1288 0.85911 0.0
H1159 H 0.14556 0.10597 0.83849 0.0
Nd1160 Nd 0.90086 0.3029 0.43079 0.0
Nd1161 Nd 0.93436 0.32726 0.4102 0.0
C1162 C 0.8656 0.29055 0.44428 0.0
C1163 C 0.84722 0.29453 0.45888 0.0
C1164 C 0.8401 0.31225 0.46579 0.0
C1165 C 0.82148 0.31559 0.47749 0.0
C1166 C 0.80932 0.30131 0.48269 0.0
C1167 C 0.81694 0.28358 0.47621 0.0
C1168 C 0.83546 0.28029 0.46452 0.0
C1169 C 0.94078 0.29425 0.43728 0.0
C1170 C 0.92071 0.33374 0.45736 0.0
C1171 C 0.96451 0.34142 0.38979 0.0
C1172 C 0.9669 0.35266 0.37231 0.0
C1173 C 0.9816 0.34754 0.35637 0.0
C1174 C 0.98395 0.35784 0.33958 0.0
C1175 C 0.97171 0.37356 0.33844 0.0
C1176 C 0.95711 0.37878 0.35451 0.0
C1177 C 0.95463 0.36838 0.37123 0.0
C1178 C 0.89575 0.341 0.41361 0.0
C1179 C 0.9141 0.29509 0.38199 0.0
O1180 O 0.86798 0.30069 0.42911 0.0
O1181 O 0.88277 0.2858 0.45124 0.0
O1182 O 0.92581 0.29171 0.45035 0.0
O1183 O 0.93414 0.29957 0.4213 0.0
O1184 O 0.90315 0.32821 0.45219 0.0
O1185 O 0.93694 0.33157 0.44453 0.0
O1186 O 0.95933 0.32486 0.38571 0.0
O1187 O 0.95536 0.34913 0.40671 0.0
O1188 O 0.91078 0.35132 0.41506 0.0
O1189 O 0.90172 0.32493 0.40958 0.0
O1190 O 0.92428 0.30998 0.38292 0.0
O1191 O 0.90527 0.28847 0.39834 0.0
H1192 H 0.84875 0.32356 0.4618 0.0
H1193 H 0.81638 0.32946 0.4819 0.0
H1194 H 0.80857 0.27208 0.4801 0.0
H1195 H 0.8404 0.26648 0.45947 0.0
H1196 H 0.99125 0.33551 0.35688 0.0
H1197 H 0.99547 0.35355 0.32753 0.0
H1198 H 0.94732 0.39071 0.35396 0.0
H1199 H 0.94304 0.3726 0.38323 0.0
Nd1200 Nd 0.58479 0.91564 0.71134 0.0
Nd1201 Nd 0.5535 0.94476 0.70027 0.0
C1202 C 0.60489 0.88783 0.72369 0.0
C1203 C 0.60308 0.87934 0.74311 0.0
C1204 C 0.585 0.872 0.74989 0.0
C1205 C 0.5824 0.8666 0.76965 0.0
C1206 C 0.59771 0.86866 0.78301 0.0
C1207 C 0.61603 0.87534 0.77601 0.0
C1208 C 0.61874 0.88053 0.75617 0.0
C1209 C 0.59276 0.95074 0.72189 0.0
C1210 C 0.54466 0.92553 0.74347 0.0
C1211 C 0.53334 0.9748 0.69226 0.0
C1212 C 0.53358 0.99416 0.68772 0.0
C1213 C 0.53969 0.00753 0.702 0.0
C1214 C 0.53671 0.02594 0.6992 0.0
C1215 C 0.5276 0.03166 0.68196 0.0
C1216 C 0.5222 0.01818 0.6673 0.0
C1217 C 0.52506 0.99974 0.6702 0.0
C1218 C 0.54387 0.90945 0.69172 0.0
C1219 C 0.59565 0.93312 0.67011 0.0
O1220 O 0.58996 0.88614 0.71202 0.0
O1221 O 0.61137 0.90417 0.72493 0.0
O1222 O 0.60655 0.93849 0.71502 0.0
O1223 O 0.57586 0.94418 0.72368 0.0
O1224 O 0.5601 0.91424 0.73722 0.0
O1225 O 0.53969 0.93934 0.73284 0.0
O1226 O 0.53749 0.97088 0.71055 0.0
O1227 O 0.53944 0.96196 0.67806 0.0
O1228 O 0.53058 0.92267 0.69653 0.0
O1229 O 0.56096 0.91573 0.68921 0.0
O1230 O 0.5825 0.94659 0.67744 0.0
O1231 O 0.59596 0.91767 0.67851 0.0
H1232 H 0.57256 0.87107 0.74027 0.0
H1233 H 0.56814 0.86151 0.77476 0.0
H1234 H 0.62816 0.87677 0.78599 0.0
H1235 H 0.63278 0.88615 0.75129 0.0
H1236 H 0.54614 0.00383 0.71581 0.0
H1237 H 0.54087 0.03567 0.71108 0.0
H1238 H 0.51553 0.0218 0.6536 0.0
H1239 H 0.52 0.98982 0.65899 0.0
Nd1240 Nd 0.9865 0.18323 0.26392 0.0
Nd1241 Nd 0.00108 0.21536 0.24022 0.0
C1242 C 0.97768 0.15456 0.28311 0.0
C1243 C 0.95959 0.14424 0.28658 0.0
C1244 C 0.96096 0.12543 0.28251 0.0
C1245 C 0.9442 0.11529 0.28618 0.0
C1246 C 0.92569 0.12377 0.29398 0.0
C1247 C 0.92413 0.14269 0.29737 0.0
C1248 C 0.94094 0.15285 0.29371 0.0
C1249 C 0.96062 0.21325 0.26777 0.0
C1250 C 0.96751 0.18951 0.22157 0.0
C1251 C 0.00823 0.24677 0.22605 0.0
C1252 C 0.01143 0.26496 0.21903 0.0
C1253 C 1.00045 0.28008 0.22894 0.0
C1254 C 0.00191 0.2971 0.22148 0.0
C1255 C 0.0141 0.29947 0.20362 0.0
C1256 C 0.02562 0.28433 0.19409 0.0
C1257 C 0.02437 0.26729 0.20178 0.0
C1258 C 0.01684 0.18136 0.22532 0.0
C1259 C 0.02037 0.20825 0.284 0.0
O1260 O 0.98572 0.15352 0.26429 0.0
O1261 O 0.9775 0.17084 0.29237 0.0
O1262 O 0.955 0.19682 0.26629 0.0
O1263 O 0.97948 0.21339 0.26776 0.0
O1264 O 0.97379 0.17716 0.23321 0.0
O1265 O 0.97349 0.20627 0.22327 0.0
O1266 O 0.99049 0.24262 0.2335 0.0
O1267 O 0.02254 0.2341 0.22617 0.0
O1268 O 0.01276 0.19421 0.21379 0.0
O1269 O 0.01389 0.18735 0.24378 0.0
O1270 O 0.01859 0.21938 0.26939 0.0
O1271 O 0.01086 0.19308 0.28411 0.0
H1272 H 0.97509 0.11854 0.2767 0.0
H1273 H 0.94576 0.10075 0.28311 0.0
H1274 H 0.91011 0.14958 0.30349 0.0
H1275 H 0.93937 0.16739 0.29672 0.0
H1276 H 0.99054 0.27872 0.24242 0.0
H1277 H 0.99328 0.3084 0.22972 0.0
H1278 H 0.03511 0.28546 0.18027 0.0
H1279 H 0.03295 0.25583 0.1938 0.0
Nd1280 Nd 0.51566 0.1709 0.63207 0.0
Nd1281 Nd 0.5006 0.20056 0.66868 0.0
C1282 C 0.52821 0.14059 0.61142 0.0
C1283 C 0.54934 0.13479 0.60654 0.0
C1284 C 0.55588 0.11705 0.60906 0.0
C1285 C 0.57639 0.11239 0.60836 0.0
C1286 C 0.59064 0.12549 0.60533 0.0
C1287 C 0.584 0.14321 0.60268 0.0
C1288 C 0.56356 0.14781 0.60328 0.0
C1289 C 0.53363 0.20327 0.62662 0.0
C1290 C 0.54147 0.17578 0.67349 0.0
C1291 C 0.49146 0.2314 0.69124 0.0
C1292 C 0.48687 0.25095 0.68976 0.0
C1293 C 0.49726 0.2605 0.67511 0.0
C1294 C 0.49482 0.27937 0.67574 0.0
C1295 C 0.4819 0.28917 0.691 0.0
C1296 C 0.47098 0.27945 0.70517 0.0
C1297 C 0.47349 0.26059 0.70457 0.0
C1298 C 0.49306 0.16501 0.67454 0.0
C1299 C 0.47374 0.19363 0.6275 0.0
O1300 O 0.52284 0.14159 0.63101 0.0
O1301 O 0.52159 0.15457 0.6024 0.0
O1302 O 0.53621 0.18915 0.61373 0.0
O1303 O 0.52153 0.19979 0.64106 0.0
O1304 O 0.53749 0.16578 0.65686 0.0
O1305 O 0.53103 0.19104 0.67979 0.0
O1306 O 0.50981 0.22537 0.68524 0.0
O1307 O 0.4779 0.21988 0.68645 0.0
O1308 O 0.49592 0.17708 0.6894 0.0
O1309 O 0.49209 0.1726 0.65815 0.0
O1310 O 0.47775 0.20445 0.64374 0.0
O1311 O 0.48501 0.17888 0.62114 0.0
H1312 H 0.54515 0.10694 0.6121 0.0
H1313 H 0.58108 0.09849 0.60998 0.0
H1314 H 0.59461 0.15357 0.60037 0.0
H1315 H 0.55893 0.1617 0.60177 0.0
H1316 H 0.50769 0.25344 0.66348 0.0
H1317 H 0.50323 0.28631 0.66437 0.0
H1318 H 0.46104 0.28646 0.71725 0.0
H1319 H 0.46545 0.25357 0.71615 0.0
Nd1320 Nd 0.22183 0.29104 0.93595 0.0
Nd1321 Nd 0.19511 0.28312 0.97707 0.0
C1322 C 0.2525 0.29377 0.90917 0.0
C1323 C 0.25888 0.30817 0.89667 0.0
C1324 C 0.27921 0.31195 0.89488 0.0
C1325 C 0.28505 0.32798 0.8872 0.0
C1326 C 0.27059 0.34043 0.88127 0.0
C1327 C 0.25043 0.33589 0.88149 0.0
C1328 C 0.24458 0.31989 0.88927 0.0
C1329 C 0.18187 0.29996 0.93136 0.0
C1330 C 0.21367 0.3233 0.9745 0.0
C1331 C 0.16476 0.27793 1.00308 0.0
C1332 C 0.14518 0.27031 1.00029 0.0
C1333 C 0.13426 0.27428 0.98362 0.0
C1334 C 0.11706 0.26508 0.97956 0.0
C1335 C 0.11063 0.25155 0.9919 0.0
C1336 C 0.12156 0.24778 0.00869 0.0
C1337 C 0.13861 0.25714 0.01288 0.0
C1338 C 0.23579 0.27337 0.97987 0.0
C1339 C 0.19788 0.25371 0.93717 0.0
O1340 O 0.25335 0.2975 0.92887 0.0
O1341 O 0.23609 0.28595 0.90449 0.0
O1342 O 0.19649 0.30303 0.9182 0.0
O1343 O 0.18913 0.29384 0.94686 0.0
O1344 O 0.2224 0.31839 0.9559 0.0
O1345 O 0.20243 0.31252 0.98502 0.0
O1346 O 0.16775 0.29369 0.99602 0.0
O1347 O 0.18008 0.26628 0.99897 0.0
O1348 O 0.2218 0.27149 0.9941 0.0
O1349 O 0.22742 0.27978 0.9653 0.0
O1350 O 0.18693 0.26127 0.95332 0.0
O1351 O 0.21442 0.26094 0.92985 0.0
H1352 H 0.29039 0.30308 0.90062 0.0
H1353 H 0.30071 0.33114 0.88702 0.0
H1354 H 0.23898 0.34532 0.87719 0.0
H1355 H 0.22876 0.31729 0.8907 0.0
H1356 H 0.13926 0.28418 0.97345 0.0
H1357 H 0.10889 0.26853 0.96668 0.0
H1358 H 0.11734 0.23723 0.01829 0.0
H1359 H 0.14709 0.25363 0.02554 0.0
Nd1360 Nd 0.40028 0.64831 0.41128 0.0
Nd1361 Nd 0.41515 0.66178 0.45089 0.0
C1362 C 0.38169 0.63333 0.38084 0.0
C1363 C 0.36383 0.62303 0.37903 0.0
C1364 C 0.34902 0.62353 0.39532 0.0
C1365 C 0.33129 0.61475 0.39277 0.0
C1366 C 0.32843 0.60516 0.37404 0.0
C1367 C 0.34391 0.60373 0.35829 0.0
C1368 C 0.36149 0.61269 0.36078 0.0
C1369 C 0.43978 0.6383 0.41566 0.0
C1370 C 0.39084 0.62663 0.45171 0.0
C1371 C 0.43846 0.67425 0.47883 0.0
C1372 C 0.45971 0.67866 0.47699 0.0
C1373 C 0.47364 0.66784 0.46375 0.0
C1374 C 0.49354 0.6726 0.46106 0.0
C1375 C 0.49983 0.6884 0.47132 0.0
C1376 C 0.48584 0.69929 0.48443 0.0
C1377 C 0.46594 0.69442 0.48728 0.0
C1378 C 0.37502 0.67008 0.44952 0.0
C1379 C 0.42526 0.68304 0.41001 0.0
O1380 O 0.37864 0.65033 0.38763 0.0
O1381 O 0.39645 0.62517 0.38894 0.0
O1382 O 0.43339 0.64375 0.399 0.0
O1383 O 0.42545 0.63815 0.42899 0.0
O1384 O 0.38351 0.63211 0.43503 0.0
O1385 O 0.4064 0.63415 0.45934 0.0
O1386 O 0.43485 0.65716 0.47576 0.0
O1387 O 0.42624 0.68473 0.46987 0.0
O1388 O 0.3835 0.66692 0.46605 0.0
O1389 O 0.38791 0.67075 0.43453 0.0
O1390 O 0.43156 0.67788 0.4272 0.0
O1391 O 0.41074 0.67508 0.40097 0.0
H1392 H 0.35094 0.63109 0.40974 0.0
H1393 H 0.31959 0.61591 0.40514 0.0
H1394 H 0.34197 0.59658 0.34362 0.0
H1395 H 0.37299 0.61199 0.34823 0.0
H1396 H 0.4691 0.65581 0.45526 0.0
H1397 H 0.50392 0.6641 0.45064 0.0
H1398 H 0.49033 0.7115 0.49261 0.0
H1399 H 0.45535 0.70305 0.49733 0.0
Nd1400 Nd 0.8182 0.5438 0.96634 0.0
Nd1401 Nd 0.77923 0.56208 0.95083 0.0
C1402 C 0.84993 0.52272 0.97004 0.0
C1403 C 0.85721 0.50701 0.95623 0.0
C1404 C 0.85478 0.50713 0.93524 0.0
C1405 C 0.85577 0.49105 0.92279 0.0
C1406 C 0.85914 0.47447 0.93108 0.0
C1407 C 0.86304 0.47454 0.95185 0.0
C1408 C 0.86195 0.49068 0.96434 0.0
C1409 C 0.78486 0.54541 0.99323 0.0
C1410 C 0.7934 0.52357 0.92914 0.0
C1411 C 0.74258 0.57733 0.95098 0.0
C1412 C 0.73207 0.59547 0.95453 0.0
C1413 C 0.73145 0.60553 0.97364 0.0
C1414 C 0.72039 0.62207 0.97712 0.0
C1415 C 0.70971 0.62904 0.96158 0.0
C1416 C 0.71065 0.61909 0.94237 0.0
C1417 C 0.72163 0.6025 0.93892 0.0
C1418 C 0.81334 0.56822 0.92533 0.0
C1419 C 0.80788 0.58499 0.98124 0.0
O1420 O 0.85124 0.53858 0.96277 0.0
O1421 O 0.83246 0.5206 0.97957 0.0
O1422 O 0.80277 0.54896 0.99813 0.0
O1423 O 0.78466 0.5412 0.97407 0.0
O1424 O 0.81016 0.52519 0.93855 0.0
O1425 O 0.77754 0.53473 0.93351 0.0
O1426 O 0.74962 0.57034 0.96682 0.0
O1427 O 0.75453 0.57396 0.93433 0.0
O1428 O 0.79537 0.57454 0.92259 0.0
O1429 O 0.81199 0.56004 0.94122 0.0
O1430 O 0.78988 0.58257 0.97479 0.0
O1431 O 0.82318 0.57307 0.97707 0.0
H1432 H 0.85072 0.5195 0.92863 0.0
H1433 H 0.85271 0.49164 0.90693 0.0
H1434 H 0.86648 0.4621 0.95863 0.0
H1435 H 0.86364 0.49029 0.98055 0.0
H1436 H 0.73935 0.60057 0.98603 0.0
H1437 H 0.72028 0.62945 0.992 0.0
H1438 H 0.70247 0.62391 0.9301 0.0
H1439 H 0.72171 0.595 0.9241 0.0
Nd1440 Nd 0.70438 0.50602 0.14266 0.0
Nd1441 Nd 0.73959 0.50088 0.16866 0.0
C1442 C 0.68051 0.51686 0.11552 0.0
C1443 C 0.67403 0.53513 0.11062 0.0
C1444 C 0.6803 0.54112 0.09165 0.0
C1445 C 0.67481 0.55853 0.08698 0.0
C1446 C 0.66279 0.57029 0.10115 0.0
C1447 C 0.65693 0.56447 0.12035 0.0
C1448 C 0.66249 0.54707 0.12506 0.0
C1449 C 0.69402 0.5081 0.18384 0.0
C1450 C 0.73098 0.54101 0.15583 0.0
C1451 C 0.76365 0.49219 0.19712 0.0
C1452 C 0.76274 0.4839 0.21686 0.0
C1453 C 0.74541 0.48597 0.2304 0.0
C1454 C 0.74547 0.4795 0.24983 0.0
C1455 C 0.76282 0.47075 0.25616 0.0
C1456 C 0.77992 0.46823 0.24223 0.0
C1457 C 0.77987 0.47476 0.22284 0.0
C1458 C 0.74974 0.50097 0.12713 0.0
C1459 C 0.70965 0.46777 0.15801 0.0
O1460 O 0.69949 0.51216 0.11095 0.0
O1461 O 0.67381 0.51186 0.13324 0.0
O1462 O 0.68323 0.50063 0.17021 0.0
O1463 O 0.70918 0.51494 0.17566 0.0
O1464 O 0.71828 0.53355 0.14368 0.0
O1465 O 0.74009 0.53174 0.16908 0.0
O1466 O 0.75422 0.50797 0.19707 0.0
O1467 O 0.76168 0.48169 0.18052 0.0
O1468 O 0.76067 0.50742 0.14124 0.0
O1469 O 0.73517 0.49326 0.13526 0.0
O1470 O 0.71977 0.47626 0.17215 0.0
O1471 O 0.70561 0.47549 0.14137 0.0
H1472 H 0.68948 0.5323 0.08041 0.0
H1473 H 0.67978 0.56274 0.07216 0.0
H1474 H 0.6475 0.57316 0.13149 0.0
H1475 H 0.65763 0.54297 0.13996 0.0
H1476 H 0.73197 0.49297 0.22616 0.0
H1477 H 0.73206 0.48189 0.2601 0.0
H1478 H 0.79344 0.46127 0.24631 0.0
H1479 H 0.79339 0.47296 0.21263 0.0
Nd1480 Nd 0.73307 0.41114 0.41285 0.0
Nd1481 Nd 0.75106 0.43958 0.44408 0.0
C1482 C 0.71931 0.39137 0.382 0.0
C1483 C 0.70055 0.38538 0.37347 0.0
C1484 C 0.69516 0.39132 0.35481 0.0
C1485 C 0.67849 0.38465 0.34559 0.0
C1486 C 0.66687 0.37177 0.35475 0.0
C1487 C 0.67213 0.36597 0.37354 0.0
C1488 C 0.68878 0.3727 0.38281 0.0
C1489 C 0.72029 0.40999 0.45308 0.0
C1490 C 0.71165 0.45223 0.42217 0.0
C1491 C 0.76767 0.45469 0.47668 0.0
C1492 C 0.7779 0.45056 0.49545 0.0
C1493 C 0.78282 0.43282 0.50007 0.0
C1494 C 0.79291 0.42954 0.5177 0.0
C1495 C 0.79802 0.44393 0.53141 0.0
C1496 C 0.79298 0.46164 0.52664 0.0
C1497 C 0.78319 0.46487 0.50895 0.0
C1498 C 0.76268 0.44216 0.40333 0.0
C1499 C 0.76916 0.39815 0.43563 0.0
O1500 O 0.72355 0.40829 0.38107 0.0
O1501 O 0.72424 0.38491 0.39894 0.0
O1502 O 0.72254 0.39574 0.4403 0.0
O1503 O 0.72316 0.42402 0.44425 0.0
O1504 O 0.71365 0.43674 0.41074 0.0
O1505 O 0.72274 0.45641 0.43768 0.0
O1506 O 0.74844 0.45205 0.47628 0.0
O1507 O 0.77749 0.45037 0.45889 0.0
O1508 O 0.76055 0.45595 0.41693 0.0
O1509 O 0.76042 0.42759 0.41172 0.0
O1510 O 0.7637 0.41139 0.44969 0.0
O1511 O 0.76319 0.39806 0.41705 0.0
H1512 H 0.70412 0.40087 0.34711 0.0
H1513 H 0.67507 0.38922 0.33097 0.0
H1514 H 0.66339 0.35621 0.3811 0.0
H1515 H 0.69256 0.36773 0.39714 0.0
H1516 H 0.77874 0.42152 0.49012 0.0
H1517 H 0.79629 0.41572 0.52083 0.0
H1518 H 0.79678 0.47312 0.53653 0.0
H1519 H 0.77973 0.47869 0.50582 0.0
Nd1520 Nd 0.89768 0.40085 0.68035 0.0
Nd1521 Nd 0.86321 0.41391 0.70558 0.0
C1522 C 0.92876 0.39174 0.65409 0.0
C1523 C 0.93251 0.37595 0.63963 0.0
C1524 C 0.91801 0.36292 0.63848 0.0
C1525 C 0.91847 0.35054 0.62143 0.0
C1526 C 0.93348 0.3511 0.60553 0.0
C1527 C 0.94927 0.36276 0.60797 0.0
C1528 C 0.94869 0.37526 0.62494 0.0
C1529 C 0.89535 0.38356 0.71591 0.0
C1530 C 0.85896 0.37791 0.67923 0.0
C1531 C 0.83454 0.42783 0.73281 0.0
C1532 C 0.8316 0.43761 0.75315 0.0
C1533 C 0.8463 0.43697 0.76729 0.0
C1534 C 0.84287 0.44636 0.78664 0.0
C1535 C 0.82475 0.45659 0.79206 0.0
C1536 C 0.81031 0.4574 0.77758 0.0
C1537 C 0.81374 0.44802 0.75833 0.0
C1538 C 0.85801 0.41955 0.66491 0.0
C1539 C 0.9037 0.43523 0.71139 0.0
O1540 O 0.91376 0.40243 0.65011 0.0
O1541 O 0.92846 0.38864 0.67329 0.0
O1542 O 0.89776 0.3754 0.69768 0.0
O1543 O 0.89206 0.40038 0.71492 0.0
O1544 O 0.87347 0.38371 0.66731 0.0
O1545 O 0.85654 0.3845 0.69844 0.0
O1546 O 0.84119 0.41091 0.73174 0.0
O1547 O 0.84257 0.43678 0.71829 0.0
O1548 O 0.84449 0.41439 0.6778 0.0
O1549 O 0.87414 0.42228 0.67368 0.0
O1550 O 0.88538 0.4329 0.71872 0.0
O1551 O 0.91176 0.42561 0.69506 0.0
H1552 H 0.90549 0.36328 0.64991 0.0
H1553 H 0.90621 0.34161 0.61988 0.0
H1554 H 0.96092 0.36356 0.59581 0.0
H1555 H 0.95995 0.38526 0.62576 0.0
H1556 H 0.86034 0.42919 0.7634 0.0
H1557 H 0.85443 0.44567 0.79731 0.0
H1558 H 0.7961 0.46493 0.78125 0.0
H1559 H 0.80231 0.44877 0.74751 0.0
Nd1560 Nd 0.50207 0.04829 0.31219 0.0
Nd1561 Nd 0.46746 0.07488 0.30544 0.0
C1562 C 0.52423 0.01904 0.31903 0.0
C1563 C 0.52353 1.00042 0.3258 0.0
C1564 C 0.50916 0.9884 0.31933 0.0
C1565 C 0.51031 0.97028 0.324 0.0
C1566 C 0.52588 0.96365 0.33522 0.0
C1567 C 0.53978 0.97595 0.34227 0.0
C1568 C 0.53861 0.99404 0.33759 0.0
C1569 C 0.50862 0.08406 0.32326 0.0
C1570 C 0.46199 0.05542 0.34475 0.0
C1571 C 0.44307 0.10122 0.29601 0.0
C1572 C 0.44414 0.11223 0.27847 0.0
C1573 C 0.46143 0.12159 0.27357 0.0
C1574 C 0.46369 0.12947 0.25509 0.0
C1575 C 0.44882 0.12789 0.24118 0.0
C1576 C 0.43122 0.11917 0.24642 0.0
C1577 C 0.42887 0.11147 0.26498 0.0
C1578 C 0.46288 0.03941 0.29191 0.0
C1579 C 0.50777 0.07226 0.27351 0.0
O1580 O 0.51733 0.02184 0.30137 0.0
O1581 O 0.52028 0.03277 0.33272 0.0
O1582 O 0.5228 0.07213 0.31634 0.0
O1583 O 0.49241 0.07627 0.32624 0.0
O1584 O 0.47439 0.04286 0.3345 0.0
O1585 O 0.4607 0.07172 0.33872 0.0
O1586 O 0.4567 0.1036 0.30908 0.0
O1587 O 0.43999 0.08418 0.29159 0.0
O1588 O 0.44869 0.04969 0.30195 0.0
O1589 O 0.47864 0.04782 0.2895 0.0
O1590 O 0.49153 0.08164 0.28153 0.0
O1591 O 0.51415 0.05709 0.28082 0.0
H1592 H 0.49728 0.99289 0.31028 0.0
H1593 H 0.49907 0.96142 0.3186 0.0
H1594 H 0.55211 0.97148 0.35073 0.0
H1595 H 0.54996 0.00296 0.34268 0.0
H1596 H 0.47357 0.12224 0.28359 0.0
H1597 H 0.47737 0.13614 0.25132 0.0
H1598 H 0.41942 0.11806 0.236 0.0
H1599 H 0.41547 0.10428 0.26843 0.0
Nd1600 Nd 0.02565 0.79318 0.69803 0.0
Nd1601 Nd 0.0466 0.81381 0.66816 0.0
C1602 C 0.00959 0.77007 0.72208 0.0
C1603 C 1.0001 0.7533 0.727 0.0
C1604 C 0.00347 0.73723 0.71421 0.0
C1605 C 0.99809 0.72072 0.72134 0.0
C1606 C 0.98936 0.72012 0.74132 0.0
C1607 C 0.98502 0.73628 0.75364 0.0
C1608 C 0.99029 0.75275 0.74649 0.0
C1609 C 0.0236 0.83014 0.71007 0.0
C1610 C 0.00463 0.79789 0.65537 0.0
C1611 C 0.06104 0.8371 0.64373 0.0
C1612 C 0.0759 0.85065 0.6472 0.0
C1613 C 0.07491 0.86173 0.66564 0.0
C1614 C 0.08951 0.87414 0.66912 0.0
C1615 C 0.10551 0.87531 0.65444 0.0
C1616 C 0.10684 0.86386 0.6363 0.0
C1617 C 0.09205 0.85165 0.63266 0.0
C1618 C 0.06007 0.77787 0.66403 0.0
C1619 C 0.06763 0.80935 0.70886 0.0
O1620 O 0.02833 0.76879 0.71463 0.0
O1621 O 0.99901 0.78359 0.71593 0.0
O1622 O 0.02523 0.81756 0.72234 0.0
O1623 O 0.02185 0.82305 0.69221 0.0
O1624 O 0.00316 0.79059 0.67302 0.0
O1625 O 0.01997 0.80732 0.65004 0.0
O1626 O 0.04389 0.8399 0.65456 0.0
O1627 O 0.06797 0.82037 0.64284 0.0
O1628 O 0.07155 0.79144 0.66506 0.0
O1629 O 0.04181 0.78349 0.66705 0.0
O1630 O 0.06379 0.82108 0.69567 0.0
O1631 O 0.05733 0.79468 0.70969 0.0
H1632 H 0.0112 0.73733 0.69918 0.0
H1633 H 0.00171 0.70834 0.71169 0.0
H1634 H 0.97852 0.73607 0.76917 0.0
H1635 H 0.9878 0.76495 0.75669 0.0
H1636 H 0.06288 0.86085 0.67736 0.0
H1637 H 0.08826 0.88289 0.68319 0.0
H1638 H 0.11896 0.86478 0.62466 0.0
H1639 H 0.0932 0.843 0.61853 0.0
Nd1640 Nd 0.54214 0.79349 0.34949 0.0
Nd1641 Nd 0.52679 0.81771 0.38676 0.0
C1642 C 0.55621 0.76558 0.32403 0.0
C1643 C 0.56164 0.74624 0.3251 0.0
C1644 C 0.55442 0.73699 0.34167 0.0
C1645 C 0.55842 0.71834 0.34173 0.0
C1646 C 0.56976 0.70853 0.32525 0.0
C1647 C 0.57737 0.71802 0.30895 0.0
C1648 C 0.57332 0.73665 0.30889 0.0
C1649 C 0.54999 0.82936 0.34668 0.0
C1650 C 0.56589 0.79451 0.39102 0.0
C1651 C 0.51014 0.84323 0.41337 0.0
C1652 C 0.48907 0.85032 0.41552 0.0
C1653 C 0.48252 0.86304 0.40249 0.0
C1654 C 0.46212 0.86699 0.40139 0.0
C1655 C 0.44781 0.8584 0.41335 0.0
C1656 C 0.45433 0.8465 0.42728 0.0
C1657 C 0.4748 0.84251 0.42839 0.0
C1658 C 0.51485 0.78267 0.38688 0.0
C1659 C 0.50134 0.81655 0.34557 0.0
O1660 O 0.53713 0.77033 0.32756 0.0
O1661 O 0.5678 0.77724 0.33256 0.0
O1662 O 0.54702 0.8181 0.33123 0.0
O1663 O 0.55134 0.82096 0.36256 0.0
O1664 O 0.55886 0.78397 0.37639 0.0
O1665 O 0.55811 0.81096 0.39576 0.0
O1666 O 0.52062 0.84666 0.39671 0.0
O1667 O 0.51311 0.82657 0.4178 0.0
O1668 O 0.52007 0.7921 0.40288 0.0
O1669 O 0.51549 0.79196 0.37177 0.0
O1670 O 0.50495 0.82534 0.36305 0.0
O1671 O 0.51218 0.80198 0.33797 0.0
H1672 H 0.54534 0.74413 0.35435 0.0
H1673 H 0.55211 0.71155 0.35445 0.0
H1674 H 0.58644 0.71104 0.29618 0.0
H1675 H 0.57907 0.74354 0.29599 0.0
H1676 H 0.49309 0.86946 0.39253 0.0
H1677 H 0.45756 0.87675 0.39105 0.0
H1678 H 0.44362 0.83986 0.43687 0.0
H1679 H 0.47941 0.83272 0.43868 0.0
Nd1680 Nd 0.79777 0.75057 0.0466 0.0
Nd1681 Nd 0.77908 0.7367 0.0894 0.0
C1682 C 0.81902 0.76705 0.01908 0.0
C1683 C 0.83773 0.77664 0.01923 0.0
C1684 C 0.84652 0.78088 0.03763 0.0
C1685 C 0.86534 0.78826 0.03753 0.0
C1686 C 0.87562 0.79182 0.019 0.0
C1687 C 0.86619 0.78842 1.00069 0.0
C1688 C 0.84749 0.78076 1.00081 0.0
C1689 C 0.75698 0.7514 0.05329 0.0
C1690 C 0.79872 0.77465 0.09062 0.0
C1691 C 0.75369 0.7252 0.11711 0.0
C1692 C 0.75164 0.70758 0.12548 0.0
C1693 C 0.73253 0.70099 0.12893 0.0
C1694 C 0.73044 0.68341 0.13449 0.0
C1695 C 0.74748 0.67213 0.13671 0.0
C1696 C 0.76661 0.679 0.13398 0.0
C1697 C 0.76869 0.69655 0.12828 0.0
C1698 C 0.81975 0.72884 0.08309 0.0
C1699 C 0.79147 0.70824 0.04861 0.0
O1700 O 0.82096 0.74963 0.02074 0.0
O1701 O 0.8036 0.7749 0.03032 0.0
O1702 O 0.76624 0.7474 0.03533 0.0
O1703 O 0.769 0.75548 0.06649 0.0
O1704 O 0.80773 0.76923 0.07255 0.0
O1705 O 0.78443 0.76593 0.09983 0.0
O1706 O 0.74977 0.72564 0.09787 0.0
O1707 O 0.76957 0.73399 0.12179 0.0
O1708 O 0.80935 0.72418 0.09912 0.0
O1709 O 0.80825 0.73678 0.07227 0.0
O1710 O 0.77926 0.71221 0.06537 0.0
O1711 O 0.80182 0.72037 0.03943 0.0
H1712 H 0.83911 0.77806 0.05206 0.0
H1713 H 0.87208 0.79053 0.05193 0.0
H1714 H 0.87337 0.79143 0.98617 0.0
H1715 H 0.84083 0.77774 0.98647 0.0
H1716 H 0.71922 0.70925 0.12672 0.0
H1717 H 0.7155 0.67852 0.13668 0.0
H1718 H 0.78 0.67057 0.13535 0.0
H1719 H 0.78364 0.70126 0.12542 0.0
Nd1720 Nd 0.62623 0.33708 0.55645 0.0
Nd1721 Nd 0.64746 0.33797 0.59889 0.0
C1722 C 0.60039 0.34006 0.52843 0.0
C1723 C 0.57953 0.3355 0.52675 0.0
C1724 C 0.56839 0.32948 0.54352 0.0
C1725 C 0.54961 0.3225 0.54105 0.0
C1726 C 0.54185 0.32132 0.52172 0.0
C1727 C 0.55278 0.32803 0.50517 0.0
C1728 C 0.57152 0.33504 0.50768 0.0
C1729 C 0.66646 0.32433 0.54864 0.0
C1730 C 0.61617 0.30656 0.58957 0.0
C1731 C 0.67389 0.33616 0.62617 0.0
C1732 C 0.69338 0.34398 0.62666 0.0
C1733 C 0.70307 0.34898 0.60852 0.0
C1734 C 0.72064 0.35828 0.60905 0.0
C1735 C 0.72852 0.36286 0.62783 0.0
C1736 C 0.71847 0.35814 0.64602 0.0
C1737 C 0.70097 0.34878 0.64542 0.0
C1738 C 0.61002 0.35627 0.60505 0.0
C1739 C 0.65413 0.3702 0.56846 0.0
O1740 O 0.60362 0.3534 0.54189 0.0
O1741 O 0.61292 0.32607 0.52874 0.0
O1742 O 0.65356 0.32509 0.53495 0.0
O1743 O 0.65734 0.32955 0.56585 0.0
O1744 O 0.61139 0.31453 0.57317 0.0
O1745 O 0.63091 0.31179 0.60069 0.0
O1746 O 0.67221 0.32303 0.6119 0.0
O1747 O 0.65899 0.3483 0.62779 0.0
O1748 O 0.62235 0.35455 0.61915 0.0
O1749 O 0.61801 0.34815 0.58864 0.0
O1750 O 0.66169 0.36078 0.58254 0.0
O1751 O 0.63857 0.36518 0.55847 0.0
H1752 H 0.57459 0.32949 0.55828 0.0
H1753 H 0.54164 0.31724 0.55401 0.0
H1754 H 0.54704 0.32747 0.49017 0.0
H1755 H 0.58007 0.33949 0.49457 0.0
H1756 H 0.69688 0.34581 0.59403 0.0
H1757 H 0.72812 0.36177 0.59486 0.0
H1758 H 0.72446 0.36119 0.6607 0.0
H1759 H 0.6933 0.34541 0.65956 0.0
Nd1760 Nd 0.25171 0.46546 0.09218 0.0
Nd1761 Nd 0.22103 0.48621 0.06794 0.0
C1762 C 0.28592 0.45186 0.10309 0.0
C1763 C 0.29943 0.43642 0.09506 0.0
C1764 C 0.30458 0.43283 0.07398 0.0
C1765 C 0.31385 0.41616 0.06639 0.0
C1766 C 0.31758 0.40287 0.07977 0.0
C1767 C 0.31324 0.40678 0.10086 0.0
C1768 C 0.30439 0.4235 0.10845 0.0
C1769 C 0.21311 0.46118 0.10804 0.0
C1770 C 0.23238 0.44281 0.05391 0.0
C1771 C 0.19355 0.50389 0.04999 0.0
C1772 C 0.18586 0.52212 0.05749 0.0
C1773 C 0.18535 0.52719 0.07852 0.0
C1774 C 0.18295 0.54522 0.08588 0.0
C1775 C 0.17974 0.55865 0.07249 0.0
C1776 C 0.17971 0.55343 0.05136 0.0
C1777 C 0.1831 0.53535 0.04391 0.0
C1778 C 0.26045 0.49127 0.05606 0.0
C1779 C 0.22884 0.50194 0.11535 0.0
O1780 O 0.28492 0.46596 0.09234 0.0
O1781 O 0.26836 0.44726 0.11039 0.0
O1782 O 0.2286 0.45357 0.11536 0.0
O1783 O 0.21906 0.46958 0.09333 0.0
O1784 O 0.24562 0.44274 0.06799 0.0
O1785 O 0.22108 0.45746 0.05109 0.0
O1786 O 0.1891 0.49108 0.06179 0.0
O1787 O 0.21249 0.50309 0.04344 0.0
O1788 O 0.24746 0.50432 0.06265 0.0
O1789 O 0.25326 0.47646 0.06044 0.0
O1790 O 0.21631 0.50102 0.1006 0.0
O1791 O 0.24621 0.49231 0.11317 0.0
H1792 H 0.30063 0.44251 0.06331 0.0
H1793 H 0.31716 0.41331 0.05007 0.0
H1794 H 0.31619 0.3967 0.1114 0.0
H1795 H 0.30036 0.42595 0.12472 0.0
H1796 H 0.18731 0.51725 0.08935 0.0
H1797 H 0.18347 0.54849 0.10214 0.0
H1798 H 0.17671 0.56318 0.04049 0.0
H1799 H 0.18386 0.53173 0.02759 0.0
Nd1800 Nd 0.29383 0.51156 0.86611 0.0
Nd1801 Nd 0.33132 0.50011 0.88844 0.0
C1802 C 0.26828 0.52649 0.84283 0.0
C1803 C 0.27082 0.53638 0.82442 0.0
C1804 C 0.28906 0.5442 0.81952 0.0
C1805 C 0.29249 0.55161 0.80088 0.0
C1806 C 0.27777 0.55124 0.78667 0.0
C1807 C 0.25914 0.54415 0.792 0.0
C1808 C 0.25572 0.53672 0.81073 0.0
C1809 C 0.28823 0.51091 0.90811 0.0
C1810 C 0.33186 0.53783 0.87009 0.0
C1811 C 0.35374 0.48863 0.91614 0.0
C1812 C 0.36283 0.47033 0.91631 0.0
C1813 C 0.35861 0.4606 0.9333 0.0
C1814 C 0.36236 0.44194 0.93183 0.0
C1815 C 0.3704 0.43274 0.91334 0.0
C1816 C 0.37572 0.44262 0.89671 0.0
C1817 C 0.3719 0.46126 0.89815 0.0
C1818 C 0.34002 0.49076 0.8471 0.0
C1819 C 0.29915 0.47025 0.87438 0.0
O1820 O 0.27424 0.50939 0.84035 0.0
O1821 O 0.27376 0.53463 0.85979 0.0
O1822 O 0.27517 0.50572 0.89551 0.0
O1823 O 0.30315 0.51691 0.89844 0.0
O1824 O 0.31723 0.5322 0.8592 0.0
O1825 O 0.33793 0.52928 0.88542 0.0
O1826 O 0.33409 0.48943 0.91849 0.0
O1827 O 0.3608 0.49831 0.90171 0.0
O1828 O 0.35209 0.4875 0.861 0.0
O1829 O 0.32378 0.49828 0.8553 0.0
O1830 O 0.31187 0.47565 0.88777 0.0
O1831 O 0.2918 0.48104 0.8615 0.0
H1832 H 0.30094 0.54408 0.82977 0.0
H1833 H 0.3069 0.55716 0.79734 0.0
H1834 H 0.24758 0.5435 0.78128 0.0
H1835 H 0.24159 0.53066 0.81421 0.0
H1836 H 0.35138 0.46729 0.94734 0.0
H1837 H 0.35857 0.43465 0.94505 0.0
H1838 H 0.382 0.43585 0.88231 0.0
H1839 H 0.37509 0.46838 0.88468 0.0
Nd1840 Nd 0.30906 0.56183 0.59619 0.0
Nd1841 Nd 0.31619 0.59729 0.61862 0.0
C1842 C 0.29881 0.53557 0.57032 0.0
C1843 C 0.2887 0.53545 0.55134 0.0
C1844 C 0.28792 0.55093 0.54051 0.0
C1845 C 0.27874 0.55063 0.52212 0.0
C1846 C 0.27024 0.53482 0.51431 0.0
C1847 C 0.27053 0.51955 0.52558 0.0
C1848 C 0.2797 0.51988 0.54398 0.0
C1849 C 0.30078 0.56298 0.63753 0.0
C1850 C 0.27607 0.59537 0.59516 0.0
C1851 C 0.32467 0.62497 0.64386 0.0
C1852 C 0.34114 0.63167 0.65557 0.0
C1853 C 0.35299 0.62017 0.66624 0.0
C1854 C 0.36773 0.62722 0.67819 0.0
C1855 C 0.37091 0.64584 0.67958 0.0
C1856 C 0.35958 0.65713 0.66812 0.0
C1857 C 0.34481 0.65009 0.65627 0.0
C1858 C 0.32549 0.59572 0.57734 0.0
C1859 C 0.35099 0.56337 0.61568 0.0
O1860 O 0.31668 0.54206 0.56959 0.0
O1861 O 0.28771 0.54133 0.58692 0.0
O1862 O 0.30949 0.54916 0.62661 0.0
O1863 O 0.29595 0.5754 0.6266 0.0
O1864 O 0.28597 0.58149 0.58473 0.0
O1865 O 0.28312 0.603 0.61186 0.0
O1866 O 0.31561 0.61089 0.64993 0.0
O1867 O 0.3275 0.62466 0.62402 0.0
O1868 O 0.31661 0.6097 0.58779 0.0
O1869 O 0.32978 0.58352 0.58867 0.0
O1870 O 0.34324 0.57833 0.62633 0.0
O1871 O 0.3417 0.55559 0.60064 0.0
H1872 H 0.2947 0.56314 0.5461 0.0
H1873 H 0.27884 0.56255 0.51372 0.0
H1874 H 0.26377 0.5073 0.52009 0.0
H1875 H 0.27995 0.50793 0.55235 0.0
H1876 H 0.35063 0.60583 0.66564 0.0
H1877 H 0.37645 0.61814 0.68661 0.0
H1878 H 0.36152 0.67153 0.66897 0.0
H1879 H 0.33591 0.65914 0.64799 0.0
Nd1880 Nd 0.17076 0.54822 0.30237 0.0
Nd1881 Nd 0.16067 0.58219 0.29237 0.0
C1882 C 0.18209 0.52108 0.3229 0.0
C1883 C 0.19335 0.52236 0.34118 0.0
C1884 C 0.19883 0.53939 0.349 0.0
C1885 C 0.20854 0.54128 0.36698 0.0
C1886 C 0.21271 0.52617 0.3777 0.0
C1887 C 0.20744 0.50903 0.36967 0.0
C1888 C 0.19782 0.50714 0.35148 0.0
C1889 C 0.17418 0.54761 0.25993 0.0
C1890 C 0.20492 0.57642 0.30722 0.0
C1891 C 0.15664 0.61413 0.27757 0.0
C1892 C 0.14532 0.62189 0.26193 0.0
C1893 C 0.13804 0.6108 0.24615 0.0
C1894 C 0.12601 0.61828 0.23221 0.0
C1895 C 0.12097 0.63692 0.23399 0.0
C1896 C 0.12857 0.64797 0.24969 0.0
C1897 C 0.14065 0.64049 0.26356 0.0
C1898 C 0.14882 0.57898 0.33347 0.0
C1899 C 0.12767 0.55371 0.28702 0.0
O1900 O 0.1641 0.52889 0.32548 0.0
O1901 O 0.19193 0.52511 0.30616 0.0
O1902 O 0.16575 0.53541 0.27014 0.0
O1903 O 0.17986 0.56014 0.27221 0.0
O1904 O 0.20155 0.55929 0.3044 0.0
O1905 O 0.19067 0.58873 0.3053 0.0
O1906 O 0.17098 0.60211 0.27114 0.0
O1907 O 0.14583 0.60949 0.29335 0.0
O1908 O 0.13701 0.58469 0.32028 0.0
O1909 O 0.1656 0.57366 0.32427 0.0
O1910 O 0.1362 0.56638 0.27724 0.0
O1911 O 0.13673 0.54723 0.30207 0.0
H1912 H 0.19523 0.55135 0.34141 0.0
H1913 H 0.21265 0.55461 0.37253 0.0
H1914 H 0.21023 0.49715 0.37772 0.0
H1915 H 0.19353 0.49393 0.34572 0.0
H1916 H 0.14135 0.59634 0.24487 0.0
H1917 H 0.12018 0.60941 0.22041 0.0
H1918 H 0.12516 0.6624 0.25128 0.0
H1919 H 0.14608 0.64918 0.27577 0.0
H1920 H 0.99851 0.56318 0.12046 0.0
H1921 H 0.99271 0.66407 0.17477 0.0
H1922 H 0.00815 0.5764 0.18397 0.0
H1923 H 0.97644 0.65198 0.11315 0.0
H1924 H 1.00021 0.63202 0.17739 0.0
H1925 H 0.99239 0.59536 0.11649 0.0
C1926 C 0.99934 0.57276 0.13362 0.0
C1927 C 0.00379 0.56682 0.15267 0.0
C1928 C 0.995 0.63628 0.16325 0.0
C1929 C 0.99693 0.60396 0.14806 0.0
C1930 C 0.99061 0.65465 0.16176 0.0
C1931 C 0.98391 0.6608 0.14369 0.0
C1932 C 0.99268 0.62374 0.14655 0.0
C1933 C 0.98173 0.64788 0.1273 0.0
C1934 C 0.99591 0.5912 0.13127 0.0
C1935 C 0.00504 0.58012 0.16892 0.0
N1936 N 0.98609 0.62998 0.12911 0.0
N1937 N 0.00158 0.59793 0.16626 0.0
H1938 H 0.88421 0.70582 0.45425 0.0
H1939 H 0.7958 0.75777 0.40481 0.0
H1940 H 0.8926 0.75701 0.42906 0.0
H1941 H 0.78841 0.7307 0.46008 0.0
H1942 H 0.83208 0.75001 0.40295 0.0
H1943 H 0.84989 0.70659 0.444 0.0
C1944 C 0.87913 0.71694 0.44596 0.0
C1945 C 0.89113 0.73166 0.44304 0.0
C1946 C 0.82238 0.74556 0.41525 0.0
C1947 C 0.85196 0.73246 0.43128 0.0
C1948 C 0.80181 0.75006 0.41639 0.0
C1949 C 0.78936 0.74522 0.43288 0.0
C1950 C 0.8302 0.73555 0.43027 0.0
C1951 C 0.79768 0.73496 0.44736 0.0
C1952 C 0.85948 0.71738 0.44025 0.0
C1953 C 0.88372 0.74556 0.43198 0.0
N1954 N 0.81764 0.73041 0.4457 0.0
N1955 N 0.86441 0.7458 0.42679 0.0
H1956 H 0.51316 0.55981 0.75872 0.0
H1957 H 0.48139 0.66417 0.74949 0.0
H1958 H 0.46617 0.57789 0.72237 0.0
H1959 H 0.5224 0.64763 0.79284 0.0
H1960 H 0.47657 0.63253 0.73907 0.0
H1961 H 0.51741 0.59126 0.77109 0.0
C1962 C 0.50357 0.57026 0.7534 0.0
C1963 C 0.48922 0.56584 0.73931 0.0
C1964 C 0.48662 0.6357 0.75089 0.0
C1965 C 0.49438 0.60234 0.75339 0.0
C1966 C 0.48945 0.65386 0.75684 0.0
C1967 C 0.50232 0.6587 0.77213 0.0
C1968 C 0.49691 0.62196 0.76002 0.0
C1969 C 0.51223 0.6446 0.7811 0.0
C1970 C 0.50614 0.58833 0.76045 0.0
C1971 C 0.47766 0.58034 0.73287 0.0
N1972 N 0.5094 0.62692 0.77487 0.0
N1973 N 0.48052 0.59776 0.73987 0.0
H1974 H 0.82467 0.16765 0.92489 0.0
H1975 H 0.7482 0.22565 0.00849 0.0
H1976 H 0.84209 0.20962 0.96773 0.0
H1977 H 0.73102 0.17706 0.9754 0.0
H1978 H 0.78149 0.22166 0.99054 0.0
H1979 H 0.78957 0.17265 0.93943 0.0
C1980 C 0.82105 0.17828 0.93683 0.0
C1981 C 0.83643 0.18845 0.94465 0.0
C1982 C 0.77049 0.21183 0.9871 0.0
C1983 C 0.79621 0.19404 0.96205 0.0
C1984 C 0.75126 0.21417 0.99734 0.0
C1985 C 0.73638 0.20175 0.99359 0.0
C1986 C 0.7753 0.19697 0.97269 0.0
C1987 C 0.74184 0.18697 0.97907 0.0
C1988 C 0.80102 0.18097 0.94545 0.0
C1989 C 0.83082 0.20156 0.96095 0.0
N1990 N 0.7607 0.18504 0.96918 0.0
N1991 N 0.81139 0.20396 0.96898 0.0
H1992 H 0.26537 0.043 0.46767 0.0
H1993 H 0.2206 0.97987 0.5509 0.0
H1994 H 0.25435 0.98735 0.45058 0.0
H1995 H 0.26228 0.02088 0.56445 0.0
H1996 H 0.22513 0.98536 0.51435 0.0
H1997 H 0.25592 0.03825 0.50336 0.0
C1998 C 0.26047 0.02987 0.47127 0.0
C1999 C 0.26067 0.01555 0.45591 0.0
C2000 C 0.23321 0.99316 0.52539 0.0
C2001 C 0.24976 0.01005 0.49711 0.0
C2002 C 0.2306 0.99006 0.54622 0.0
C2003 C 0.24124 0.99979 0.56075 0.0
C2004 C 0.24608 0.00644 0.51912 0.0
C2005 C 0.25394 0.01291 0.5538 0.0
C2006 C 0.25526 0.02714 0.49176 0.0
C2007 C 0.25437 0.9988 0.46182 0.0
N2008 N 0.25589 0.01592 0.53361 0.0
N2009 N 0.24919 0.99651 0.4819 0.0
H2010 H 0.21174 0.95049 0.72592 0.0
H2011 H 0.25806 0.92184 0.82749 0.0
H2012 H 0.27589 0.94614 0.73064 0.0
H2013 H 0.20572 0.9579 0.82764 0.0
H2014 H 0.26198 0.92125 0.78985 0.0
H2015 H 0.20669 0.94342 0.76144 0.0
C2016 C 0.22479 0.94797 0.73431 0.0
C2017 C 0.2443 0.9494 0.72531 0.0
C2018 C 0.24955 0.9291 0.79821 0.0
C2019 C 0.23849 0.94069 0.76577 0.0
C2020 C 0.2473 0.92941 0.81954 0.0
C2021 C 0.23176 0.94017 0.83049 0.0
C2022 C 0.23577 0.93916 0.78798 0.0
C2023 C 0.2181 0.9497 0.81967 0.0
C2024 C 0.22185 0.9438 0.75452 0.0
C2025 C 0.26058 0.94523 0.73683 0.0
N2026 N 0.22039 0.94894 0.79898 0.0
N2027 N 0.25731 0.9412 0.75654 0.0
H2028 H 0.30013 0.95656 0.09729 0.0
H2029 H 0.26483 0.00414 1.00043 0.0
H2030 H 0.30816 0.01259 0.08775 0.0
H2031 H 0.26898 0.94626 1.00272 0.0
H2032 H 0.27691 0.00771 0.03443 0.0
H2033 H 0.28457 0.95288 0.06479 0.0
C2034 C 0.29859 0.9681 0.08839 0.0
C2035 C 0.30568 0.98489 0.09514 0.0
C2036 C 0.27518 0.99422 0.02752 0.0
C2037 C 0.28771 0.98078 0.05813 0.0
C2038 C 0.26843 0.99215 0.00801 0.0
C2039 C 0.26611 0.97486 0.99856 0.0
C2040 C 0.27959 0.97891 0.0378 0.0
C2041 C 0.27045 0.95985 0.00944 0.0
C2042 C 0.28967 0.96598 0.06989 0.0
C2043 C 0.30283 0.99945 0.08324 0.0
N2044 N 0.27705 0.96222 0.02849 0.0
N2045 N 0.29417 0.99703 0.06528 0.0
H2046 H 0.35594 0.94482 0.26313 0.0
H2047 H 0.2789 0.0117 0.33757 0.0
H2048 H 0.31917 0.98743 0.24211 0.0
H2049 H 0.32535 0.97851 0.3604 0.0
H2050 H 0.29005 0.99955 0.3027 0.0
H2051 H 0.34182 0.95355 0.29845 0.0
C2052 C 0.3446 0.95577 0.26587 0.0
C2053 C 0.33853 0.96519 0.24947 0.0
C2054 C 0.29771 0.99474 0.31531 0.0
C2055 C 0.32238 0.97553 0.29014 0.0
C2056 C 0.29121 1.0016 0.3354 0.0
C2057 C 0.30103 0.99618 0.35231 0.0
C2058 C 0.31419 0.98214 0.31172 0.0
C2059 C 0.31713 0.98313 0.34807 0.0
C2060 C 0.33665 0.96088 0.2861 0.0
C2061 C 0.32413 0.9796 0.25415 0.0
N2062 N 0.32317 0.97665 0.32836 0.0
N2063 N 0.31659 0.98425 0.27386 0.0
H2064 H 0.45957 0.23997 0.07724 0.0
H2065 H 0.56073 0.18687 0.03142 0.0
H2066 H 0.46606 0.22179 0.01325 0.0
H2067 H 0.55936 0.23478 0.073 0.0
H2068 H 0.52432 0.19159 0.02875 0.0
H2069 H 0.49385 0.2286 0.08078 0.0
C2070 C 0.46781 0.23268 0.06413 0.0
C2071 C 0.45968 0.23149 0.04501 0.0
C2072 C 0.53202 0.201 0.03848 0.0
C2073 C 0.49942 0.21903 0.04882 0.0
C2074 C 0.55275 0.19835 0.04003 0.0
C2075 C 0.56311 0.21056 0.05234 0.0
C2076 C 0.52144 0.21559 0.04991 0.0
C2077 C 0.55203 0.22516 0.06319 0.0
C2078 C 0.48757 0.22656 0.0661 0.0
C2079 C 0.47149 0.22254 0.02838 0.0
N2080 N 0.53179 0.22716 0.06189 0.0
N2081 N 0.49088 0.21678 0.0306 0.0
H2082 H 0.00741 0.18623 0.99932 0.0
H2083 H 0.09801 0.24035 0.95419 0.0
H2084 H 0.00681 0.20825 0.9406 0.0
H2085 H 0.08238 0.23911 0.0189 0.0
H2086 H 0.06814 0.2238 0.94714 0.0
H2087 H 0.03892 0.20047 1.00477 0.0
C2088 C 0.01384 0.19406 0.98757 0.0
C2089 C 0.0042 0.19624 0.96959 0.0
C2090 C 0.07136 0.22717 0.96285 0.0
C2091 C 0.04057 0.2122 0.97559 0.0
C2092 C 0.08831 0.23672 0.96693 0.0
C2093 C 0.09274 0.24127 0.98722 0.0
C2094 C 0.05894 0.22189 0.97915 0.0
C2095 C 0.07983 0.23572 1.00304 0.0
C2096 C 0.03189 0.2021 0.99067 0.0
C2097 C 0.01369 0.20608 0.95463 0.0
N2098 N 0.06356 0.2263 0.99866 0.0
N2099 N 0.03135 0.21374 0.958 0.0
H2100 H 0.99125 0.82419 0.14417 0.0
H2101 H 0.92785 0.91647 0.18133 0.0
H2102 H 0.93411 0.82627 0.17936 0.0
H2103 H 0.98887 0.91461 0.15493 0.0
H2104 H 0.92925 0.88345 0.17944 0.0
H2105 H 0.98978 0.8572 0.14607 0.0
C2106 C 0.97829 0.83158 0.15214 0.0
C2107 C 0.96278 0.8224 0.16164 0.0
C2108 C 0.94241 0.89023 0.17422 0.0
C2109 C 0.96111 0.8603 0.16406 0.0
C2110 C 0.94165 0.90909 0.17538 0.0
C2111 C 0.95832 0.91828 0.16839 0.0
C2112 C 0.95997 0.88043 0.16594 0.0
C2113 C 0.97574 0.90806 0.16064 0.0
C2114 C 0.97755 0.85045 0.15336 0.0
C2115 C 0.94651 0.83275 0.172 0.0
N2116 N 0.97608 0.88968 0.15952 0.0
N2117 N 0.94609 0.85111 0.1729 0.0
H2118 H 0.62887 0.69079 0.47056 0.0
H2119 H 0.51368 0.72157 0.46433 0.0
H2120 H 0.60965 0.74238 0.45107 0.0
H2121 H 0.53394 0.66672 0.4714 0.0
H2122 H 0.5487 0.72972 0.46014 0.0
H2123 H 0.59411 0.68185 0.47153 0.0
C2124 C 0.61732 0.70022 0.46647 0.0
C2125 C 0.62212 0.71739 0.46087 0.0
C2126 C 0.54548 0.71589 0.46252 0.0
C2127 C 0.58233 0.70727 0.46193 0.0
C2128 C 0.52552 0.71127 0.46506 0.0
C2129 C 0.52094 0.69348 0.46833 0.0
C2130 C 0.56097 0.70266 0.4635 0.0
C2131 C 0.53683 0.68058 0.46881 0.0
C2132 C 0.5975 0.69509 0.46692 0.0
C2133 C 0.60662 0.72898 0.45539 0.0
N2134 N 0.55614 0.68545 0.46657 0.0
N2135 N 0.58738 0.72377 0.45623 0.0
H2136 H 0.98706 0.70372 0.45395 0.0
H2137 H 0.07167 0.69987 0.52927 0.0
H2138 H 0.97465 0.7197 0.51824 0.0
H2139 H 0.06972 0.65641 0.48211 0.0
H2140 H 0.03718 0.70952 0.52353 0.0
H2141 H 0.01832 0.68777 0.46172 0.0
C2142 C 0.99074 0.7036 0.46969 0.0
C2143 C 0.9783 0.71309 0.48545 0.0
C2144 C 0.04421 0.69777 0.51456 0.0
C2145 C 0.01409 0.69537 0.49431 0.0
C2146 C 0.06389 0.69232 0.51775 0.0
C2147 C 0.07347 0.67738 0.5061 0.0
C2148 C 0.03423 0.68854 0.49918 0.0
C2149 C 0.06275 0.66799 0.49143 0.0
C2150 C 0.00852 0.69451 0.4741 0.0
C2151 C 0.98378 0.71256 0.50561 0.0
N2152 N 0.04375 0.67392 0.48809 0.0
N2153 N 0.00144 0.70418 0.50941 0.0
H2154 H 0.04541 0.31554 0.18308 0.0
H2155 H 0.98424 0.40987 0.17988 0.0
H2156 H 0.9827 0.32473 0.20356 0.0
H2157 H 0.04225 0.39795 0.14756 0.0
H2158 H 0.98306 0.37829 0.1874 0.0
H2159 H 0.04463 0.34513 0.16922 0.0
C2160 C 0.03143 0.32363 0.1846 0.0
C2161 C 0.01413 0.31748 0.19478 0.0
C2162 C 0.99596 0.38246 0.17841 0.0
C2163 C 0.01327 0.35168 0.17911 0.0
C2164 C 0.99657 0.40052 0.17398 0.0
C2165 C 0.01357 0.40664 0.16347 0.0
C2166 C 0.01247 0.37037 0.17226 0.0
C2167 C 0.02898 0.39383 0.156 0.0
C2168 C 0.03104 0.3406 0.17671 0.0
C2169 C 0.9966 0.32889 0.19639 0.0
N2170 N 0.02825 0.37637 0.16084 0.0
N2171 N 0.99668 0.34536 0.18881 0.0
H2172 H 0.5669 0.87851 0.68009 0.0
H2173 H 0.5058 0.81941 0.75712 0.0
H2174 H 0.51432 0.89882 0.7182 0.0
H2175 H 0.56569 0.80371 0.7308 0.0
H2176 H 0.50762 0.8477 0.74115 0.0
H2177 H 0.56496 0.84959 0.69552 0.0
C2178 C 0.5548 0.87677 0.69151 0.0
C2179 C 0.54092 0.89109 0.69808 0.0
C2180 C 0.52041 0.83811 0.73893 0.0
C2181 C 0.53856 0.85822 0.71575 0.0
C2182 C 0.5195 0.82197 0.74827 0.0
C2183 C 0.53563 0.80901 0.74539 0.0
C2184 C 0.53749 0.84138 0.72638 0.0
C2185 C 0.55274 0.81309 0.73324 0.0
C2186 C 0.55377 0.86034 0.70038 0.0
C2187 C 0.52539 0.88814 0.71272 0.0
N2188 N 0.55318 0.82885 0.72411 0.0
N2189 N 0.52472 0.87209 0.72117 0.0
H2190 H 0.02135 0.36059 0.78441 0.0
H2191 H 0.01659 0.46035 0.84258 0.0
H2192 H 0.03966 0.37145 0.84546 0.0
H2193 H 0.99932 0.44905 0.7811 0.0
H2194 H 0.02489 0.42812 0.8441 0.0
H2195 H 0.01323 0.39288 0.78306 0.0
C2196 C 0.02385 0.36979 0.7975 0.0
C2197 C 0.03129 0.36321 0.81506 0.0
C2198 C 0.01925 0.43268 0.83028 0.0
C2199 C 0.02179 0.40049 0.81369 0.0
C2200 C 0.01456 0.45118 0.82933 0.0
C2201 C 0.00721 0.45771 0.81164 0.0
C2202 C 0.01667 0.42038 0.81341 0.0
C2203 C 0.00465 0.44486 0.7952 0.0
C2204 C 0.0191 0.38828 0.79675 0.0
C2205 C 0.03398 0.37586 0.83159 0.0
N2206 N 0.00939 0.42696 0.79648 0.0
N2207 N 0.02923 0.3938 0.83052 0.0
H2208 H 0.163 0.22371 0.49427 0.0
H2209 H 0.27455 0.2586 0.4888 0.0
H2210 H 0.1778 0.27596 0.47536 0.0
H2211 H 0.25798 0.21568 0.52566 0.0
H2212 H 0.2392 0.26406 0.48257 0.0
H2213 H 0.1972 0.21961 0.50531 0.0
C2214 C 0.17323 0.23447 0.49275 0.0
C2215 C 0.16725 0.25027 0.48387 0.0
C2216 C 0.24317 0.25356 0.49224 0.0
C2217 C 0.20681 0.2454 0.49606 0.0
C2218 C 0.26342 0.25042 0.49579 0.0
C2219 C 0.26928 0.2369 0.50815 0.0
C2220 C 0.22847 0.24281 0.50066 0.0
C2221 C 0.25413 0.2266 0.51658 0.0
C2222 C 0.19285 0.23206 0.49898 0.0
C2223 C 0.18147 0.26357 0.48213 0.0
N2224 N 0.2345 0.22963 0.51254 0.0
N2225 N 0.20048 0.26075 0.48791 0.0
H2226 H 0.49991 0.35996 0.24434 0.0
H2227 H 0.54908 0.43219 0.32043 0.0
H2228 H 0.52427 0.34717 0.30063 0.0
H2229 H 0.52452 0.44549 0.26432 0.0
H2230 H 0.54024 0.40096 0.31326 0.0
H2231 H 0.50779 0.39157 0.2518 0.0
C2232 C 0.5066 0.36388 0.25843 0.0
C2233 C 0.51146 0.35095 0.27186 0.0
C2234 C 0.53677 0.41071 0.3025 0.0
C2235 C 0.52079 0.38697 0.2804 0.0
C2236 C 0.542 0.42855 0.3065 0.0
C2237 C 0.53749 0.4416 0.29302 0.0
C2238 C 0.52691 0.40578 0.2849 0.0
C2239 C 0.52801 0.43602 0.27535 0.0
C2240 C 0.51123 0.38189 0.26262 0.0
C2241 C 0.5202 0.35671 0.28987 0.0
N2242 N 0.52301 0.41858 0.27183 0.0
N2243 N 0.52473 0.37424 0.29353 0.0
H2244 H 0.27071 0.86326 0.02395 0.0
H2245 H 0.1726 0.8146 0.06174 0.0
H2246 H 0.27368 0.80605 0.03118 0.0
H2247 H 0.17273 0.85455 0.01786 0.0
H2248 H 0.20969 0.81486 0.06048 0.0
H2249 H 0.23449 0.86399 0.03231 0.0
C2250 C 0.26385 0.85084 0.02734 0.0
C2251 C 0.27538 0.83447 0.0263 0.0
C2252 C 0.20146 0.82364 0.05131 0.0
C2253 C 0.23382 0.83543 0.03651 0.0
C2254 C 0.18041 0.82351 0.05203 0.0
C2255 C 0.16967 0.83451 0.0398 0.0
C2256 C 0.2116 0.83523 0.03874 0.0
C2257 C 0.18043 0.84582 0.02747 0.0
C2258 C 0.24317 0.85133 0.03225 0.0
C2259 C 0.26554 0.819 0.03172 0.0
N2260 N 0.20073 0.84598 0.02736 0.0
N2261 N 0.2453 0.81982 0.03643 0.0
H2262 H 0.79264 0.02439 0.40084 0.0
H2263 H 0.75846 0.94154 0.46336 0.0
H2264 H 0.76155 0.97892 0.3765 0.0
H2265 H 0.76036 0.99469 0.49413 0.0
H2266 H 0.77029 0.95329 0.43132 0.0
H2267 H 0.7898 0.01231 0.43484 0.0
C2268 C 0.78528 0.01189 0.40263 0.0
C2269 C 0.77705 0.00279 0.38588 0.0
C2270 C 0.76858 0.96236 0.44513 0.0
C2271 C 0.77434 0.98869 0.42436 0.0
C2272 C 0.7621 0.9556 0.4635 0.0
C2273 C 0.75853 0.96711 0.48147 0.0
C2274 C 0.77145 0.98088 0.44452 0.0
C2275 C 0.76319 0.9853 0.48068 0.0
C2276 C 0.78369 0.00503 0.42198 0.0
C2277 C 0.76783 0.98657 0.389 0.0
N2278 N 0.76915 0.99171 0.46241 0.0
N2279 N 0.76683 0.98004 0.40773 0.0
H2280 H 0.74526 0.01928 0.20362 0.0
H2281 H 0.7726 0.08821 0.11981 0.0
H2282 H 0.78304 0.06376 0.21571 0.0
H2283 H 0.75389 0.03442 0.10457 0.0
H2284 H 0.77306 0.08153 0.15576 0.0
H2285 H 0.7447 0.02666 0.16814 0.0
C2286 C 0.75336 0.03068 0.19885 0.0
C2287 C 0.76416 0.04094 0.21277 0.0
C2288 C 0.76882 0.07121 0.14454 0.0
C2289 C 0.76357 0.0495 0.17193 0.0
C2290 C 0.76848 0.07504 0.12404 0.0
C2291 C 0.76324 0.06183 0.10914 0.0
C2292 C 0.7635 0.05417 0.15028 0.0
C2293 C 0.75803 0.045 0.11551 0.0
C2294 C 0.75313 0.03482 0.17852 0.0
C2295 C 0.77462 0.05541 0.20552 0.0
N2296 N 0.7582 0.04169 0.13555 0.0
N2297 N 0.77396 0.05933 0.18567 0.0
H2298 H 0.65572 0.10593 0.86042 0.0
H2299 H 0.72974 0.04675 0.92366 0.0
H2300 H 0.69644 0.06263 0.83358 0.0
H2301 H 0.70415 0.09871 0.94887 0.0
H2302 H 0.71391 0.05093 0.89201 0.0
H2303 H 0.66931 0.10221 0.89398 0.0
C2304 C 0.66717 0.09541 0.86163 0.0
C2305 C 0.67473 0.08445 0.84407 0.0
C2306 C 0.71167 0.06147 0.90442 0.0
C2307 C 0.69051 0.08011 0.88248 0.0
C2308 C 0.72068 0.05903 0.9227 0.0
C2309 C 0.71837 0.07232 0.93932 0.0
C2310 C 0.69991 0.07729 0.90236 0.0
C2311 C 0.70658 0.08808 0.93659 0.0
C2312 C 0.67511 0.09341 0.88077 0.0
C2313 C 0.69 0.07135 0.84659 0.0
N2314 N 0.69776 0.09008 0.91863 0.0
N2315 N 0.69722 0.06952 0.86523 0.0
H2316 H 0.70007 0.00872 0.57427 0.0
H2317 H 0.73822 0.03456 0.68499 0.0
H2318 H 0.75864 0.99154 0.59135 0.0
H2319 H 0.67946 0.0495 0.66671 0.0
H2320 H 0.74674 0.01941 0.65073 0.0
H2321 H 0.69332 0.02497 0.6078 0.0
C2322 C 0.71172 0.00868 0.58486 0.0
C2323 C 0.72995 0.99866 0.5799 0.0
C2324 C 0.73198 0.02599 0.65426 0.0
C2325 C 0.72223 0.01739 0.61853 0.0
C2326 C 0.72711 0.03461 0.67379 0.0
C2327 C 0.70807 0.04326 0.67875 0.0
C2328 C 0.71776 0.02616 0.63955 0.0
C2329 C 0.6942 0.0428 0.66371 0.0
C2330 C 0.7078 0.01794 0.60409 0.0
C2331 C 0.74439 0.9991 0.59443 0.0
N2332 N 0.69935 0.03448 0.64483 0.0
N2333 N 0.74017 0.00821 0.61315 0.0
H2334 H 0.44156 0.80455 1.00045 0.0
H2335 H 0.55696 0.80797 0.9836 0.0
H2336 H 0.46448 0.85295 0.97779 0.0
H2337 H 0.52949 0.78961 0.03898 0.0
H2338 H 0.5246 0.823 0.9775 0.0
H2339 H 0.47487 0.79623 0.01058 0.0
C2340 C 0.45364 0.81344 0.99756 0.0
C2341 C 0.45028 0.82945 0.98819 0.0
C2342 C 0.52587 0.81599 0.99118 0.0
C2343 C 0.48856 0.8198 0.9995 0.0
C2344 C 0.54425 0.80742 0.99467 0.0
C2345 C 0.54583 0.79743 0.01175 0.0
C2346 C 0.50897 0.81408 1.00458 0.0
C2347 C 0.52894 0.7971 0.0256 0.0
C2348 C 0.4726 0.80872 1.00348 0.0
C2349 C 0.4665 0.84048 0.98492 0.0
N2350 N 0.5111 0.80495 0.02147 0.0
N2351 N 0.48513 0.83531 0.99028 0.0
H2352 H 0.89263 0.81471 0.04738 0.0
H2353 H 0.99909 0.81191 0.98416 0.0
H2354 H 0.90662 0.78268 0.98992 0.0
H2355 H 0.99208 0.82508 0.04949 0.0
H2356 H 0.9637 0.80529 0.98466 0.0
H2357 H 0.92772 0.82278 0.04709 0.0
C2358 C 0.90299 0.80936 0.03471 0.0
C2359 C 0.89652 0.79795 0.01863 0.0
C2360 C 0.96993 0.8096 0.99889 0.0
C2361 C 0.93657 0.80747 0.01809 0.0
C2362 C 0.99018 0.81327 0.99865 0.0
C2363 C 0.99866 0.81893 0.01683 0.0
C2364 C 0.95797 0.81174 0.01741 0.0
C2365 C 0.98615 0.82093 0.03506 0.0
C2366 C 0.92299 0.81404 0.03455 0.0
C2367 C 0.91066 0.79177 1.00246 0.0
N2368 N 0.96641 0.81735 0.03489 0.0
N2369 N 0.92995 0.79663 1.0026 0.0
H2370 H 0.02155 0.10453 0.78727 0.0
H2371 H 0.07589 0.19733 0.8081 0.0
H2372 H 0.08589 0.10726 0.78549 0.0
H2373 H 0.01703 0.19552 0.78537 0.0
H2374 H 0.07847 0.16418 0.80502 0.0
H2375 H 0.01836 0.13773 0.79081 0.0
C2376 C 0.035 0.1121 0.78754 0.0
C2377 C 0.05402 0.10308 0.78621 0.0
C2378 C 0.065 0.17106 0.80069 0.0
C2379 C 0.05047 0.14108 0.79068 0.0
C2380 C 0.06344 0.19 0.8026 0.0
C2381 C 0.04626 0.19934 0.79687 0.0
C2382 C 0.04915 0.16127 0.79329 0.0
C2383 C 0.03068 0.18898 0.78972 0.0
C2384 C 0.03318 0.13104 0.78963 0.0
C2385 C 0.07092 0.11362 0.7867 0.0
N2386 N 0.03246 0.17059 0.7882 0.0
N2387 N 0.06876 0.13199 0.78908 0.0
H2388 H 0.42275 0.27994 0.53223 0.0
H2389 H 0.53498 0.2968 0.4903 0.0
H2390 H 0.45266 0.25255 0.47727 0.0
H2391 H 0.50646 0.32415 0.54594 0.0
H2392 H 0.50453 0.28082 0.48526 0.0
H2393 H 0.45302 0.29638 0.53774 0.0
C2394 C 0.43572 0.2773 0.52139 0.0
C2395 C 0.4352 0.26484 0.50426 0.0
C2396 C 0.50485 0.29035 0.49855 0.0
C2397 C 0.46973 0.28373 0.51034 0.0
C2398 C 0.52219 0.29959 0.50135 0.0
C2399 C 0.52316 0.31194 0.51846 0.0
C2400 C 0.4883 0.29346 0.51296 0.0
C2401 C 0.50633 0.31468 0.53257 0.0
C2402 C 0.45294 0.28677 0.52449 0.0
C2403 C 0.45231 0.26218 0.49054 0.0
N2404 N 0.48954 0.30552 0.52949 0.0
N2405 N 0.46886 0.27154 0.49389 0.0
H2406 H 0.97248 0.30036 0.41092 0.0
H2407 H 0.0567 0.27617 0.4863 0.0
H2408 H 0.95845 0.28741 0.47279 0.0
H2409 H 0.06822 0.28215 0.4222 0.0
H2410 H 0.02164 0.28678 0.48409 0.0
H2411 H 0.00807 0.29949 0.41695 0.0
C2412 C 0.97689 0.29737 0.42583 0.0
C2413 C 0.96243 0.29376 0.44129 0.0
C2414 C 0.03205 0.28648 0.47068 0.0
C2415 C 0.00347 0.29273 0.4484 0.0
C2416 C 0.05221 0.28084 0.47205 0.0
C2417 C 0.06575 0.27902 0.45458 0.0
C2418 C 0.02533 0.29018 0.45161 0.0
C2419 C 0.05874 0.28424 0.43625 0.0
C2420 C 0.99728 0.29691 0.42929 0.0
C2421 C 0.9691 0.29005 0.46035 0.0
N2422 N 0.03906 0.28935 0.43519 0.0
N2423 N 0.98914 0.28951 0.46334 0.0
H2424 H 0.94929 0.62635 0.80059 0.0
H2425 H 0.01703 0.70308 0.76184 0.0
H2426 H 0.01185 0.61534 0.78114 0.0
H2427 H 0.95751 0.69801 0.7417 0.0
H2428 H 0.01436 0.67424 0.77732 0.0
H2429 H 0.95108 0.65628 0.78731 0.0
C2430 C 0.96335 0.63022 0.79347 0.0
C2431 C 0.98027 0.61817 0.79138 0.0
C2432 C 0.00192 0.67944 0.76947 0.0
C2433 C 0.98262 0.65244 0.77701 0.0
C2434 C 0.00344 0.6958 0.76066 0.0
C2435 C 0.98754 0.7027 0.75038 0.0
C2436 C 0.98425 0.67008 0.76827 0.0
C2437 C 0.97009 0.69299 0.74946 0.0
C2438 C 0.96438 0.64727 0.78604 0.0
C2439 C 0.99839 0.62413 0.78289 0.0
N2440 N 0.96884 0.67713 0.75838 0.0
N2441 N 0.9991 0.64085 0.77601 0.0
H2442 H 0.53984 0.1846 0.27405 0.0
H2443 H 0.48152 0.11215 0.33679 0.0
H2444 H 0.47947 0.19486 0.30176 0.0
H2445 H 0.538 0.10034 0.30145 0.0
H2446 H 0.48128 0.14313 0.3263 0.0
H2447 H 0.53982 0.15419 0.28525 0.0
C2448 C 0.52645 0.18048 0.28228 0.0
C2449 C 0.50961 0.19255 0.28684 0.0
C2450 C 0.49377 0.13378 0.32091 0.0
C2451 C 0.50976 0.15749 0.30033 0.0
C2452 C 0.49389 0.1161 0.32688 0.0
C2453 C 0.50959 0.10352 0.31968 0.0
C2454 C 0.50962 0.13902 0.3078 0.0
C2455 C 0.52553 0.10952 0.30733 0.0
C2456 C 0.52655 0.16307 0.28888 0.0
C2457 C 0.49295 0.18628 0.29806 0.0
N2458 N 0.52507 0.12673 0.30171 0.0
N2459 N 0.49347 0.16928 0.30443 0.0
H2460 H 0.47994 0.13688 0.6501 0.0
H2461 H 0.5488 0.06107 0.69511 0.0
H2462 H 0.51599 0.14813 0.70087 0.0
H2463 H 0.49605 0.04801 0.66379 0.0
H2464 H 0.54003 0.09309 0.69338 0.0
H2465 H 0.4885 0.10441 0.65106 0.0
C2466 C 0.48954 0.1325 0.66152 0.0
C2467 C 0.49713 0.14524 0.67551 0.0
C2468 C 0.53039 0.08319 0.68688 0.0
C2469 C 0.50734 0.10815 0.67645 0.0
C2470 C 0.53532 0.06479 0.68794 0.0
C2471 C 0.52311 0.05147 0.67979 0.0
C2472 C 0.51323 0.08857 0.67734 0.0
C2473 C 0.50617 0.05752 0.67013 0.0
C2474 C 0.49444 0.11399 0.66205 0.0
C2475 C 0.50963 0.13881 0.68991 0.0
N2476 N 0.50178 0.07552 0.66917 0.0
N2477 N 0.51447 0.1208 0.68989 0.0
H2478 H 0.25226 0.24844 1.00234 0.0
H2479 H 0.36366 0.2835 0.99741 0.0
H2480 H 0.26927 0.28978 0.96334 0.0
H2481 H 0.34814 0.23247 0.01926 0.0
H2482 H 0.32989 0.28689 0.98508 0.0
H2483 H 0.2874 0.24334 0.00922 0.0
C2484 C 0.26345 0.25634 0.99501 0.0
C2485 C 0.2577 0.26941 0.98201 0.0
C2486 C 0.33399 0.27485 0.99232 0.0
C2487 C 0.29841 0.26392 0.99031 0.0
C2488 C 0.35336 0.27284 0.99932 0.0
C2489 C 0.35903 0.2576 0.00941 0.0
C2490 C 0.31993 0.26167 0.99564 0.0
C2491 C 0.34473 0.24442 0.01157 0.0
C2492 C 0.2836 0.25342 0.99897 0.0
C2493 C 0.27299 0.27933 0.97313 0.0
N2494 N 0.32596 0.24686 1.005 0.0
N2495 N 0.29256 0.27653 0.97761 0.0
H2496 H 0.02446 0.15217 0.24669 0.0
H2497 H 0.98291 0.08151 0.1636 0.0
H2498 H 0.00573 0.16667 0.1886 0.0
H2499 H 0.98708 0.0713 0.22685 0.0
H2500 H 0.99454 0.11174 0.17124 0.0
H2501 H 0.01544 0.12106 0.23794 0.0
C2502 C 0.01877 0.14871 0.23195 0.0
C2503 C 0.01556 0.16204 0.21848 0.0
C2504 C 0.99288 0.10288 0.18345 0.0
C2505 C 0.00521 0.12657 0.20835 0.0
C2506 C 0.98602 0.08564 0.17916 0.0
C2507 C 0.98393 0.07372 0.19459 0.0
C2508 C 0.99789 0.1083 0.20329 0.0
C2509 C 0.98871 0.07984 0.21436 0.0
C2510 C 0.0135 0.13101 0.22702 0.0
C2511 C 0.00837 0.15683 0.19948 0.0
N2512 N 0.99551 0.09666 0.21812 0.0
N2513 N 0.00327 0.13955 0.19506 0.0
H2514 H 0.35012 0.66348 0.41827 0.0
H2515 H 0.25188 0.70257 0.48635 0.0
H2516 H 0.35012 0.68482 0.4811 0.0
H2517 H 0.2487 0.65635 0.4429 0.0
H2518 H 0.28811 0.70206 0.47842 0.0
H2519 H 0.31298 0.66619 0.42133 0.0
C2520 C 0.34233 0.66897 0.43254 0.0
C2521 C 0.35312 0.67386 0.44949 0.0
C2522 C 0.27947 0.69211 0.47048 0.0
C2523 C 0.31109 0.67736 0.45296 0.0
C2524 C 0.25876 0.69246 0.47489 0.0
C2525 C 0.24719 0.67948 0.46528 0.0
C2526 C 0.28885 0.67883 0.45616 0.0
C2527 C 0.25708 0.66652 0.45077 0.0
C2528 C 0.32123 0.67042 0.43432 0.0
C2529 C 0.34237 0.68086 0.46768 0.0
N2530 N 0.27738 0.66652 0.44661 0.0
N2531 N 0.32203 0.68249 0.4689 0.0
H2532 H 0.77086 0.56633 0.02682 0.0
H2533 H 0.73607 0.48494 0.09161 0.0
H2534 H 0.76796 0.51264 0.99782 0.0
H2535 H 0.76503 0.53195 0.11526 0.0
H2536 H 0.73883 0.49633 0.05727 0.0
H2537 H 0.75806 0.55575 0.05918 0.0
C2538 C 0.76674 0.55243 0.02711 0.0
C2539 C 0.77028 0.54041 0.00956 0.0
C2540 C 0.74447 0.50413 0.07005 0.0
C2541 C 0.75643 0.52792 0.04691 0.0
C2542 C 0.74293 0.49764 0.08959 0.0
C2543 C 0.75062 0.50738 0.10625 0.0
C2544 C 0.75326 0.52067 0.06736 0.0
C2545 C 0.75919 0.52383 0.10284 0.0
C2546 C 0.75973 0.54632 0.04568 0.0
C2547 C 0.7651 0.52242 0.01092 0.0
N2548 N 0.76021 0.52994 0.08391 0.0
N2549 N 0.75872 0.51662 0.02939 0.0
H2550 H 0.73259 0.45641 0.27957 0.0
H2551 H 0.79535 0.4499 0.37875 0.0
H2552 H 0.79407 0.47146 0.28142 0.0
H2553 H 0.73255 0.44016 0.37752 0.0
H2554 H 0.79623 0.45558 0.34236 0.0
H2555 H 0.73319 0.44816 0.31468 0.0
C2556 C 0.74623 0.45804 0.28731 0.0
C2557 C 0.76327 0.46478 0.27736 0.0
C2558 C 0.7823 0.45193 0.34999 0.0
C2559 C 0.76413 0.45507 0.3178 0.0
C2560 C 0.78183 0.44862 0.37072 0.0
C2561 C 0.76396 0.44398 0.38101 0.0
C2562 C 0.76467 0.45078 0.33957 0.0
C2563 C 0.74678 0.44294 0.37006 0.0
C2564 C 0.74659 0.45321 0.3074 0.0
C2565 C 0.78061 0.46616 0.28824 0.0
N2566 N 0.74753 0.4463 0.35002 0.0
N2567 N 0.78056 0.46143 0.30782 0.0
H2568 H 0.87747 0.41184 0.62609 0.0
H2569 H 0.78976 0.46136 0.5698 0.0
H2570 H 0.82476 0.43946 0.65749 0.0
H2571 H 0.82915 0.41923 0.53785 0.0
H2572 H 0.80593 0.45666 0.60121 0.0
H2573 H 0.86381 0.41761 0.59307 0.0
C2574 C 0.86333 0.41953 0.62607 0.0
C2575 C 0.85246 0.42548 0.64469 0.0
C2576 C 0.81113 0.44843 0.58736 0.0
C2577 C 0.83655 0.43193 0.60693 0.0
C2578 C 0.80191 0.45117 0.56928 0.0
C2579 C 0.80798 0.44074 0.55089 0.0
C2580 C 0.8269 0.43525 0.58738 0.0
C2581 C 0.82375 0.42755 0.55157 0.0
C2582 C 0.85539 0.42261 0.60721 0.0
C2583 C 0.83385 0.43483 0.64361 0.0
N2584 N 0.83269 0.42526 0.56938 0.0
N2585 N 0.82662 0.43781 0.62525 0.0
H2586 H 0.77509 0.5287 0.89436 0.0
H2587 H 0.83375 0.44467 0.82898 0.0
H2588 H 0.8141 0.49091 0.92099 0.0
H2589 H 0.80589 0.4899 0.80263 0.0
H2590 H 0.82446 0.45957 0.86309 0.0
H2591 H 0.78245 0.51188 0.86107 0.0
C2592 C 0.78486 0.51659 0.89328 0.0
C2593 C 0.79418 0.51123 0.91038 0.0
C2594 C 0.82039 0.4662 0.84981 0.0
C2595 C 0.80304 0.49214 0.87224 0.0
C2596 C 0.82584 0.45779 0.83032 0.0
C2597 C 0.82047 0.46597 0.81285 0.0
C2598 C 0.80937 0.48284 0.85187 0.0
C2599 C 0.80999 0.48288 0.81561 0.0
C2600 C 0.7893 0.50714 0.87421 0.0
C2601 C 0.80694 0.49561 0.90804 0.0
N2602 N 0.80472 0.4907 0.83472 0.0
N2603 N 0.81111 0.48663 0.88927 0.0
H2604 H 0.4401 0.40231 0.71047 0.0
H2605 H 0.51205 0.31269 0.68515 0.0
H2606 H 0.50411 0.40329 0.6974 0.0
H2607 H 0.44832 0.31203 0.70079 0.0
H2608 H 0.50943 0.3457 0.68885 0.0
H2609 H 0.44286 0.36927 0.70675 0.0
C2610 C 0.45478 0.39554 0.70697 0.0
C2611 C 0.4719 0.40557 0.70427 0.0
C2612 C 0.49601 0.33834 0.69146 0.0
C2613 C 0.47522 0.36762 0.69993 0.0
C2614 C 0.49745 0.31944 0.68919 0.0
C2615 C 0.48037 0.30941 0.69263 0.0
C2616 C 0.47733 0.34745 0.69719 0.0
C2617 C 0.46196 0.31907 0.69821 0.0
C2618 C 0.45635 0.37666 0.70481 0.0
C2619 C 0.49053 0.39609 0.69973 0.0
N2620 N 0.46094 0.33747 0.70028 0.0
N2621 N 0.49169 0.37768 0.69764 0.0
H2622 H 0.53585 0.84682 0.31566 0.0
H2623 H 0.53901 0.94758 0.36891 0.0
H2624 H 0.5557 0.8574 0.37616 0.0
H2625 H 0.51859 0.93423 0.30907 0.0
H2626 H 0.54468 0.91523 0.37273 0.0
H2627 H 0.52903 0.87899 0.31394 0.0
C2628 C 0.53891 0.85594 0.32862 0.0
C2629 C 0.5465 0.84928 0.34606 0.0
C2630 C 0.53887 0.91941 0.35882 0.0
C2631 C 0.53856 0.88666 0.34417 0.0
C2632 C 0.5357 0.93793 0.35655 0.0
C2633 C 0.5283 0.94388 0.33857 0.0
C2634 C 0.53473 0.90659 0.34299 0.0
C2635 C 0.52403 0.93054 0.32333 0.0
C2636 C 0.5349 0.87441 0.32764 0.0
C2637 C 0.54988 0.86189 0.3624 0.0
N2638 N 0.52737 0.91269 0.32586 0.0
N2639 N 0.54595 0.87997 0.36105 0.0
H2640 H 0.72844 0.73143 0.03671 0.0
H2641 H 0.64302 0.79933 0.04429 0.0
H2642 H 0.73652 0.7782 0.07786 0.0
H2643 H 0.63003 0.74559 0.05998 0.0
H2644 H 0.67709 0.79451 0.05498 0.0
H2645 H 0.69196 0.73779 0.04133 0.0
C2646 C 0.72244 0.74294 0.0468 0.0
C2647 C 0.73522 0.75433 0.05693 0.0
C2648 C 0.66646 0.78408 0.05668 0.0
C2649 C 0.69406 0.76183 0.06192 0.0
C2650 C 0.64702 0.7868 0.05067 0.0
C2651 C 0.63385 0.77263 0.05064 0.0
C2652 C 0.67264 0.76703 0.06225 0.0
C2653 C 0.63984 0.75673 0.05921 0.0
C2654 C 0.70177 0.74647 0.04956 0.0
C2655 C 0.72693 0.76911 0.0699 0.0
N2656 N 0.65908 0.75408 0.06395 0.0
N2657 N 0.70675 0.77275 0.07169 0.0
H2658 H 0.03894 0.93184 0.78133 0.0
H2659 H 0.0221 0.8596 0.68669 0.0
H2660 H 0.03839 0.94629 0.71918 0.0
H2661 H 0.0296 0.84561 0.74802 0.0
H2662 H 0.0267 0.89145 0.69803 0.0
H2663 H 0.0345 0.90049 0.76927 0.0
C2664 C 0.03809 0.92852 0.76512 0.0
C2665 C 0.03919 0.94208 0.75138 0.0
C2666 C 0.02729 0.88141 0.70902 0.0
C2667 C 0.03361 0.90566 0.73733 0.0
C2668 C 0.02464 0.86319 0.70253 0.0
C2669 C 0.02546 0.8498 0.71637 0.0
C2670 C 0.03064 0.88638 0.72958 0.0
C2671 C 0.02878 0.85538 0.73675 0.0
C2672 C 0.03537 0.91049 0.75822 0.0
C2673 C 0.03742 0.93659 0.73055 0.0
N2674 N 0.03121 0.8731 0.74268 0.0
N2675 N 0.03473 0.91895 0.72423 0.0
H2676 H 0.68209 0.29606 0.52294 0.0
H2677 H 0.7957 0.3286 0.513 0.0
H2678 H 0.70065 0.34205 0.55929 0.0
H2679 H 0.77506 0.28193 0.47894 0.0
H2680 H 0.76209 0.33356 0.53093 0.0
H2681 H 0.71665 0.29024 0.50822 0.0
C2682 C 0.69358 0.30469 0.5283 0.0
C2683 C 0.68837 0.3192 0.54307 0.0
C2684 C 0.76495 0.32219 0.51959 0.0
C2685 C 0.72851 0.31299 0.52544 0.0
C2686 C 0.78423 0.31937 0.50916 0.0
C2687 C 0.78868 0.30471 0.49424 0.0
C2688 C 0.74967 0.31036 0.51517 0.0
C2689 C 0.77287 0.29323 0.49042 0.0
C2690 C 0.7134 0.30144 0.51971 0.0
C2691 C 0.70398 0.33022 0.54879 0.0
N2692 N 0.75433 0.29632 0.50065 0.0
N2693 N 0.7232 0.32698 0.53994 0.0
H2694 H 0.27825 0.52059 0.04105 0.0
H2695 H 0.26658 0.48561 0.92611 0.0
H2696 H 0.26502 0.46559 0.02338 0.0
H2697 H 0.30729 0.52735 0.94006 0.0
H2698 H 0.26378 0.47959 0.96218 0.0
H2699 H 0.28786 0.52473 1.00498 0.0
C2700 C 0.27785 0.50925 0.0297 0.0
C2701 C 0.2709 0.49269 0.03542 0.0
C2702 C 0.27342 0.49002 0.95739 0.0
C2703 C 0.28112 0.49758 0.99394 0.0
C2704 C 0.27492 0.49355 0.93679 0.0
C2705 C 0.28709 0.50709 0.93005 0.0
C2706 C 0.28377 0.50036 0.97163 0.0
C2707 C 0.2977 0.51682 0.94461 0.0
C2708 C 0.28322 0.51167 0.00909 0.0
C2709 C 0.27042 0.47857 0.01988 0.0
N2710 N 0.29559 0.51345 0.96476 0.0
N2711 N 0.27505 0.48144 0.99993 0.0
H2712 H 0.31237 0.54304 0.76263 0.0
H2713 H 0.27593 0.58639 0.6635 0.0
H2714 H 0.25428 0.57085 0.76271 0.0
H2715 H 0.32031 0.54234 0.66242 0.0
H2716 H 0.27137 0.58641 0.70102 0.0
H2717 H 0.31934 0.54887 0.72704 0.0
C2718 C 0.30119 0.55066 0.75527 0.0
C2719 C 0.28267 0.55641 0.76566 0.0
C2720 C 0.28214 0.57683 0.69248 0.0
C2721 C 0.29047 0.56286 0.7247 0.0
C2722 C 0.28475 0.57683 0.67119 0.0
C2723 C 0.29828 0.56416 0.65997 0.0
C2724 C 0.29346 0.56431 0.70243 0.0
C2725 C 0.3095 0.55213 0.67052 0.0
C2726 C 0.30513 0.55384 0.73488 0.0
C2727 C 0.26865 0.56598 0.75516 0.0
N2728 N 0.30684 0.55251 0.69114 0.0
N2729 N 0.2728 0.56885 0.73517 0.0
H2730 H 0.27595 0.50747 0.48409 0.0
H2731 H 0.20499 0.55335 0.40838 0.0
H2732 H 0.24625 0.56018 0.49821 0.0
H2733 H 0.2414 0.50415 0.39217 0.0
H2734 H 0.21969 0.5563 0.4413 0.0
H2735 H 0.26266 0.50594 0.45056 0.0
C2736 C 0.26649 0.51868 0.48016 0.0
C2737 C 0.26205 0.53391 0.494 0.0
C2738 C 0.2245 0.5449 0.43051 0.0
C2739 C 0.24698 0.53236 0.45548 0.0
C2740 C 0.21621 0.54324 0.41165 0.0
C2741 C 0.22192 0.52841 0.3975 0.0
C2742 C 0.23851 0.53159 0.4353 0.0
C2743 C 0.23628 0.51562 0.40273 0.0
C2744 C 0.25904 0.51787 0.46094 0.0
C2745 C 0.25009 0.54822 0.48794 0.0
N2746 N 0.24402 0.51747 0.42124 0.0
N2747 N 0.24288 0.54707 0.46911 0.0
H2748 H 0.21006 0.55716 0.24057 0.0
H2749 H 0.18994 0.51144 0.12968 0.0
H2750 H 0.15736 0.52788 0.22919 0.0
H2751 H 0.25022 0.51345 0.14869 0.0
H2752 H 0.177 0.52355 0.164 0.0
H2753 H 0.22406 0.54732 0.20542 0.0
C2754 C 0.20128 0.5489 0.23063 0.0
C2755 C 0.18239 0.54343 0.23799 0.0
C2756 C 0.19308 0.52153 0.16066 0.0
C2757 C 0.19834 0.53222 0.19745 0.0
C2758 C 0.20058 0.5147 0.1409 0.0
C2759 C 0.22136 0.5114 0.13593 0.0
C2760 C 0.2063 0.5256 0.17586 0.0
C2761 C 0.23414 0.51577 0.15159 0.0
C2762 C 0.20938 0.54316 0.21059 0.0
C2763 C 0.17192 0.53249 0.22432 0.0
N2764 N 0.22646 0.5227 0.17069 0.0
N2765 N 0.1799 0.52743 0.20485 0.0
H2766 H 0.57023 0.68312 0.29229 0.0
H2767 H 0.58307 0.59892 0.35943 0.0
H2768 H 0.57707 0.68798 0.35719 0.0
H2769 H 0.5813 0.59277 0.29389 0.0
H2770 H 0.58144 0.63156 0.35845 0.0
H2771 H 0.57491 0.65032 0.29213 0.0
C2772 C 0.5729 0.67736 0.30649 0.0
C2773 C 0.57319 0.68848 0.32481 0.0
C2774 C 0.58145 0.62316 0.34423 0.0
C2775 C 0.57829 0.65072 0.32472 0.0
C2776 C 0.58239 0.60445 0.34476 0.0
C2777 C 0.58231 0.59306 0.32669 0.0
C2778 C 0.58023 0.63072 0.32548 0.0
C2779 C 0.58142 0.60105 0.30817 0.0
C2780 C 0.57546 0.65857 0.30638 0.0
C2781 C 0.57638 0.68006 0.34274 0.0
N2782 N 0.58032 0.61941 0.30804 0.0
N2783 N 0.57875 0.66176 0.34224 0.0
H2784 H 0.08137 0.33575 0.25611 0.0
H2785 H 0.10336 0.36182 0.37054 0.0
H2786 H 0.08022 0.39117 0.28167 0.0
H2787 H 0.08585 0.30899 0.34868 0.0
H2788 H 0.09359 0.37342 0.33874 0.0
H2789 H 0.0819 0.3259 0.29044 0.0
C2790 C 0.08108 0.34586 0.26894 0.0
C2791 C 0.08104 0.3643 0.26598 0.0
C2792 C 0.09153 0.35937 0.34111 0.0
C2793 C 0.0819 0.35311 0.30527 0.0
C2794 C 0.09715 0.35277 0.35918 0.0
C2795 C 0.09555 0.33444 0.36209 0.0
C2796 C 0.08463 0.34743 0.32583 0.0
C2797 C 0.08724 0.32325 0.34707 0.0
C2798 C 0.08138 0.34023 0.28855 0.0
C2799 C 0.08084 0.37679 0.28319 0.0
N2800 N 0.08237 0.32988 0.32942 0.0
N2801 N 0.08149 0.37095 0.30212 0.0
H2802 H 0.97959 0.76964 0.65148 0.0
H2803 H 0.95909 0.79034 0.53733 0.0
H2804 H 0.99724 0.81758 0.62358 0.0
H2805 H 0.93844 0.74329 0.56525 0.0
H2806 H 0.97058 0.80172 0.57005 0.0
H2807 H 0.96107 0.7612 0.62156 0.0
C2808 C 0.97921 0.77856 0.63929 0.0
C2809 C 0.99016 0.79419 0.63986 0.0
C2810 C 0.96341 0.78895 0.56906 0.0
C2811 C 0.9694 0.78455 0.60561 0.0
C2812 C 0.95691 0.78242 0.55033 0.0
C2813 C 0.94793 0.76577 0.54846 0.0
C2814 C 0.96102 0.77873 0.58605 0.0
C2815 C 0.94538 0.75616 0.56591 0.0
C2816 C 0.96878 0.77369 0.62216 0.0
C2817 C 0.98925 0.80525 0.62362 0.0
N2818 N 0.95202 0.76272 0.58394 0.0
N2819 N 0.97927 0.80012 0.60709 0.0
H2820 H 0.43318 0.72767 0.8592 0.0
H2821 H 0.45008 0.8282 0.90643 0.0
H2822 H 0.48341 0.7573 0.83822 0.0
H2823 H 0.39878 0.79763 0.92228 0.0
H2824 H 0.4621 0.80372 0.88051 0.0
H2825 H 0.41993 0.75422 0.88077 0.0
C2826 C 0.44132 0.73992 0.85891 0.0
C2827 C 0.45942 0.7402 0.84674 0.0
C2828 C 0.44815 0.80244 0.88956 0.0
C2829 C 0.44439 0.77098 0.87214 0.0
C2830 C 0.44122 0.81645 0.90443 0.0
C2831 C 0.4233 0.81511 0.91676 0.0
C2832 C 0.43717 0.78686 0.88693 0.0
C2833 C 0.41263 0.79943 0.9133 0.0
C2834 C 0.43374 0.75514 0.87137 0.0
C2835 C 0.46929 0.75651 0.84714 0.0
N2836 N 0.41974 0.78602 0.89889 0.0
N2837 N 0.46177 0.77119 0.85981 0.0
H2838 H 0.56399 0.09337 0.15517 0.0
H2839 H 0.50776 0.1075 0.26676 0.0
H2840 H 0.53942 0.14442 0.18436 0.0
H2841 H 0.53277 0.05535 0.24127 0.0
H2842 H 0.52212 0.1211 0.23742 0.0
H2843 H 0.55545 0.0792 0.18684 0.0
C2844 C 0.55698 0.10163 0.16828 0.0
C2845 C 0.55221 0.1201 0.16703 0.0
C2846 C 0.52469 0.1067 0.23814 0.0
C2847 C 0.54238 0.10395 0.20321 0.0
C2848 C 0.51645 0.09885 0.25499 0.0
C2849 C 0.51889 0.08017 0.25644 0.0
C2850 C 0.53538 0.09584 0.22223 0.0
C2851 C 0.53052 0.06979 0.24074 0.0
C2852 C 0.55207 0.09351 0.18632 0.0
C2853 C 0.54303 0.1301 0.18445 0.0
N2854 N 0.53816 0.07775 0.22409 0.0
N2855 N 0.53837 0.12189 0.20171 0.0
H2856 H 0.06113 0.72756 0.11571 0.0
H2857 H 0.0568 0.82824 0.08637 0.0
H2858 H 0.00626 0.75681 0.10516 0.0
H2859 H 0.10968 0.80267 0.10761 0.0
H2860 H 0.03705 0.80383 0.09801 0.0
H2861 H 0.07836 0.7559 0.11707 0.0
C2862 C 0.05268 0.74003 0.11392 0.0
C2863 C 0.03232 0.73994 0.11019 0.0
C2864 C 0.05289 0.80365 0.10048 0.0
C2865 C 0.05185 0.77231 0.1116 0.0
C2866 C 0.06418 0.81759 0.09382 0.0
C2867 C 0.08495 0.81724 0.0957 0.0
C2868 C 0.06252 0.78905 0.10869 0.0
C2869 C 0.09371 0.80333 0.10574 0.0
C2870 C 0.06247 0.7562 0.11481 0.0
C2871 C 0.02195 0.75639 0.1082 0.0
N2872 N 0.08251 0.78954 0.11148 0.0
N2873 N 0.0319 0.77191 0.10863 0.0
H2874 H 0.68274 0.79094 0.43939 0.0
H2875 H 0.58602 0.76162 0.38401 0.0
H2876 H 0.68278 0.76569 0.37803 0.0
H2877 H 0.58651 0.81271 0.42017 0.0
H2878 H 0.61971 0.75402 0.39366 0.0
H2879 H 0.64573 0.79074 0.44249 0.0
C2880 C 0.67495 0.78519 0.42672 0.0
C2881 C 0.68561 0.77852 0.40832 0.0
C2882 C 0.61218 0.7667 0.39984 0.0
C2883 C 0.64402 0.77758 0.41209 0.0
C2884 C 0.59301 0.7711 0.39432 0.0
C2885 C 0.5838 0.78814 0.40068 0.0
C2886 C 0.62212 0.77939 0.41177 0.0
C2887 C 0.59335 0.79965 0.41446 0.0
C2888 C 0.65401 0.78498 0.42856 0.0
C2889 C 0.67505 0.77105 0.3924 0.0
N2890 N 0.61228 0.79522 0.41925 0.0
N2891 N 0.6548 0.77077 0.39465 0.0
H2892 H 0.40662 0.33516 0.59747 0.0
H2893 H 0.30857 0.27742 0.58681 0.0
H2894 H 0.3505 0.35031 0.63246 0.0
H2895 H 0.36327 0.26877 0.5475 0.0
H2896 H 0.32308 0.30375 0.60436 0.0
H2897 H 0.3906 0.31027 0.57981 0.0
C2898 C 0.39091 0.33326 0.60151 0.0
C2899 C 0.37999 0.34492 0.61662 0.0
C2900 C 0.3318 0.29608 0.59181 0.0
C2901 C 0.36131 0.31622 0.59617 0.0
C2902 C 0.32351 0.28104 0.58178 0.0
C2903 C 0.33459 0.27077 0.56556 0.0
C2904 C 0.35137 0.30078 0.58569 0.0
C2905 C 0.35397 0.27617 0.55982 0.0
C2906 C 0.3817 0.31904 0.59129 0.0
C2907 C 0.35953 0.34182 0.62083 0.0
N2908 N 0.36167 0.29064 0.56987 0.0
N2909 N 0.3509 0.32775 0.61077 0.0
H2910 H 0.00176 0.06697 0.83214 0.0
H2911 H 0.95105 0.15365 0.90145 0.0
H2912 H 0.0373 0.10802 0.85955 0.0
H2913 H 0.92085 0.12139 0.85711 0.0
H2914 H 0.9821 0.13448 0.89199 0.0
H2915 H 0.97134 0.08396 0.84701 0.0
C2916 C 0.00326 0.0794 0.84155 0.0
C2917 C 0.0223 0.08599 0.84449 0.0
C2918 C 0.96858 0.13153 0.88452 0.0
C2919 C 0.98716 0.10573 0.86165 0.0
C2920 C 0.95085 0.14238 0.89009 0.0
C2921 C 0.93331 0.13913 0.88017 0.0
C2922 C 0.9686 0.11716 0.86915 0.0
C2923 C 0.93399 0.12448 0.86518 0.0
C2924 C 0.98579 0.08919 0.84996 0.0
C2925 C 0.02303 0.10236 0.85677 0.0
N2926 N 0.95119 0.11412 0.8602 0.0
N2927 N 0.00579 0.11166 0.86483 0.0
H2928 H 0.34301 0.07864 0.39408 0.0
H2929 H 0.44188 0.02418 0.34344 0.0
H2930 H 0.34495 0.02218 0.37271 0.0
H2931 H 0.44241 0.0769 0.37577 0.0
H2932 H 0.40703 0.02201 0.35675 0.0
H2933 H 0.37982 0.07805 0.38851 0.0
C2934 C 0.35118 0.06621 0.3881 0.0
C2935 C 0.34102 0.0505 0.38371 0.0
C2936 C 0.41492 0.03388 0.36136 0.0
C2937 C 0.38286 0.04957 0.37761 0.0
C2938 C 0.43495 0.03496 0.35404 0.0
C2939 C 0.44496 0.05078 0.35844 0.0
C2940 C 0.40493 0.0488 0.37296 0.0
C2941 C 0.43511 0.06451 0.37193 0.0
C2942 C 0.37215 0.06578 0.38514 0.0
C2943 C 0.35225 0.03462 0.37625 0.0
N2944 N 0.41551 0.06338 0.37837 0.0
N2945 N 0.37252 0.03458 0.37336 0.0
H2946 H 0.18322 0.10207 0.56929 0.0
H2947 H 0.09406 0.17043 0.55742 0.0
H2948 H 0.12196 0.09559 0.59162 0.0
H2949 H 0.15584 0.17957 0.53909 0.0
H2950 H 0.1054 0.14794 0.57924 0.0
H2951 H 0.17518 0.13412 0.56692 0.0
C2952 C 0.16812 0.1075 0.57391 0.0
C2953 C 0.15303 0.09616 0.57999 0.0
C2954 C 0.11654 0.15511 0.5708 0.0
C2955 C 0.14371 0.13266 0.57731 0.0
C2956 C 0.11005 0.16811 0.55838 0.0
C2957 C 0.12402 0.17647 0.54581 0.0
C2958 C 0.13708 0.15016 0.57027 0.0
C2959 C 0.14453 0.17287 0.54785 0.0
C2960 C 0.16357 0.1258 0.57273 0.0
C2961 C 0.13392 0.10386 0.5865 0.0
N2962 N 0.15046 0.15962 0.55942 0.0
N2963 N 0.12967 0.1216 0.58456 0.0
H2964 H 0.14792 0.87242 0.77616 0.0
H2965 H 0.06869 0.79872 0.74783 0.0
H2966 H 0.1243 0.83709 0.81986 0.0
H2967 H 0.09792 0.83195 0.70512 0.0
H2968 H 0.08863 0.81192 0.77472 0.0
H2969 H 0.12823 0.85802 0.7505 0.0
C2970 C 0.13831 0.8618 0.78046 0.0
C2971 C 0.13772 0.85599 0.8002 0.0
C2972 C 0.0908 0.81612 0.75939 0.0
C2973 C 0.11542 0.83901 0.77061 0.0
C2974 C 0.07961 0.80847 0.74403 0.0
C2975 C 0.08171 0.81428 0.72429 0.0
C2976 C 0.10409 0.8296 0.7548 0.0
C2977 C 0.09577 0.82715 0.72018 0.0
C2978 C 0.12724 0.8534 0.7657 0.0
C2979 C 0.12531 0.84187 0.80474 0.0
N2980 N 0.10632 0.83442 0.73531 0.0
N2981 N 0.11464 0.83381 0.79001 0.0
H2982 H 0.40807 0.91373 0.02311 0.0
H2983 H 0.38155 0.88849 0.13854 0.0
H2984 H 0.38715 0.86275 0.04022 0.0
H2985 H 0.38129 0.94438 0.12582 0.0
H2986 H 0.38811 0.87955 0.10232 0.0
H2987 H 0.40252 0.92581 0.05956 0.0
C2988 C 0.40244 0.90503 0.03439 0.0
C2989 C 0.39801 0.8871 0.02823 0.0
C2990 C 0.38663 0.89382 0.10724 0.0
C2991 C 0.39187 0.90084 0.07024 0.0
C2992 C 0.3829 0.89902 0.12817 0.0
C2993 C 0.38063 0.91733 0.13569 0.0
C2994 C 0.38844 0.90686 0.093 0.0
C2995 C 0.38267 0.93012 0.12098 0.0
C2996 C 0.39916 0.91199 0.05524 0.0
C2997 C 0.39065 0.87666 0.04382 0.0
N2998 N 0.38649 0.92467 0.10045 0.0
N2999 N 0.388 0.88356 0.06373 0.0
H3000 H 0.48849 0.80222 0.30944 0.0
H3001 H 0.41606 0.88825 0.29603 0.0
H3002 H 0.47848 0.84799 0.35437 0.0
H3003 H 0.42312 0.84119 0.25279 0.0
H3004 H 0.43916 0.87376 0.31752 0.0
H3005 H 0.46441 0.81615 0.28856 0.0
C3006 C 0.48113 0.81513 0.31499 0.0
C3007 C 0.48555 0.82397 0.33365 0.0
C3008 C 0.43565 0.86658 0.30335 0.0
C3009 C 0.45813 0.84005 0.30975 0.0
C3010 C 0.42243 0.87482 0.29111 0.0
C3011 C 0.41761 0.86585 0.27266 0.0
C3012 C 0.44411 0.84923 0.2971 0.0
C3013 C 0.42657 0.84863 0.26682 0.0
C3014 C 0.46742 0.8231 0.30304 0.0
C3015 C 0.47555 0.84067 0.34008 0.0
N3016 N 0.43936 0.84085 0.27904 0.0
N3017 N 0.46237 0.84821 0.3281 0.0
H3018 H 0.28155 0.16136 0.52297 0.0
H3019 H 0.33426 0.07832 0.44941 0.0
H3020 H 0.34109 0.16273 0.49348 0.0
H3021 H 0.26999 0.08733 0.45871 0.0
H3022 H 0.33816 0.10651 0.47071 0.0
H3023 H 0.27819 0.13153 0.50476 0.0
C3024 C 0.294 0.15534 0.5129 0.0
C3025 C 0.3116 0.16471 0.50976 0.0
C3026 C 0.32321 0.10224 0.46819 0.0
C3027 C 0.30792 0.13042 0.48894 0.0
C3028 C 0.32098 0.08608 0.45611 0.0
C3029 C 0.30178 0.0804 0.45217 0.0
C3030 C 0.30612 0.11269 0.47676 0.0
C3031 C 0.28511 0.09118 0.4612 0.0
C3032 C 0.29203 0.13834 0.5024 0.0
C3033 C 0.32718 0.15616 0.49634 0.0
N3034 N 0.28765 0.10669 0.47307 0.0
N3035 N 0.325 0.13958 0.48653 0.0
H3036 H 0.18696 0.99784 0.67588 0.0
H3037 H 0.13135 0.07449 0.75563 0.0
H3038 H 0.1733 0.05211 0.66095 0.0
H3039 H 0.11737 0.0185 0.75629 0.0
H3040 H 0.15471 0.06653 0.72553 0.0
H3041 H 0.16944 0.00543 0.71008 0.0
C3042 C 0.18083 0.01147 0.68004 0.0
C3043 C 0.18171 0.02445 0.66572 0.0
C3044 C 0.14667 0.05597 0.7324 0.0
C3045 C 0.16174 0.03317 0.70451 0.0
C3046 C 0.13336 0.06048 0.74964 0.0
C3047 C 0.12219 0.04718 0.75847 0.0
C3048 C 0.14921 0.03796 0.72404 0.0
C3049 C 0.12549 0.02924 0.7499 0.0
C3050 C 0.17066 0.01573 0.6994 0.0
C3051 C 0.17307 0.04178 0.67164 0.0
N3052 N 0.13868 0.02515 0.73319 0.0
N3053 N 0.16351 0.04565 0.69054 0.0
H3054 H 0.11767 0.90247 0.01285 0.0
H3055 H 0.17319 0.93784 0.93447 0.0
H3056 H 0.17458 0.88789 0.03573 0.0
H3057 H 0.21146 0.89124 0.94301 0.0
H3058 H 0.15795 0.93688 0.96943 0.0
H3059 H 0.13546 0.91669 0.98525 0.0
C3060 C 0.13388 0.90272 0.01239 0.0
C3061 C 0.1447 0.89368 0.02631 0.0
C3062 C 0.16983 0.92702 0.96366 0.0
C3063 C 0.16509 0.90978 0.9948 0.0
C3064 C 0.17854 0.92757 0.94383 0.0
C3065 C 0.19318 0.91429 0.93585 0.0
C3066 C 0.17609 0.91324 0.97548 0.0
C3067 C 0.19985 0.90144 0.94855 0.0
C3068 C 0.14402 0.91095 0.99672 0.0
C3069 C 0.16567 0.89453 0.02515 0.0
N3070 N 0.19115 0.90116 0.96777 0.0
N3071 N 0.17525 0.90191 0.00921 0.0
H3072 H 0.35345 0.39249 0.05888 0.0
H3073 H 0.33699 0.28679 0.06168 0.0
H3074 H 0.29845 0.37185 0.08347 0.0
H3075 H 0.39461 0.31045 0.06376 0.0
H3076 H 0.32114 0.31721 0.06072 0.0
H3077 H 0.36723 0.36133 0.0508 0.0
C3078 C 0.34421 0.38135 0.06218 0.0
C3079 C 0.32499 0.38453 0.07201 0.0
C3080 C 0.33728 0.31562 0.0612 0.0
C3081 C 0.3404 0.34922 0.06292 0.0
C3082 C 0.34626 0.29836 0.06184 0.0
C3083 C 0.36706 0.29622 0.06299 0.0
C3084 C 0.3493 0.33063 0.06141 0.0
C3085 C 0.37851 0.31154 0.06289 0.0
C3086 C 0.35204 0.36366 0.05769 0.0
C3087 C 0.31347 0.36978 0.07608 0.0
N3088 N 0.36948 0.32811 0.06215 0.0
N3089 N 0.3214 0.35269 0.07162 0.0
H3090 H 0.66658 0.14022 0.85484 0.0
H3091 H 0.78335 0.11487 0.83362 0.0
H3092 H 0.69881 0.1296 0.79542 0.0
H3093 H 0.76145 0.15237 0.88461 0.0
H3094 H 0.74871 0.11029 0.82561 0.0
H3095 H 0.69871 0.1377 0.87065 0.0
C3096 C 0.68036 0.13776 0.84511 0.0
C3097 C 0.67995 0.13515 0.82375 0.0
C3098 C 0.75151 0.11923 0.83882 0.0
C3099 C 0.7162 0.1314 0.84172 0.0
C3100 C 0.77118 0.12175 0.84342 0.0
C3101 C 0.77509 0.13444 0.85933 0.0
C3102 C 0.73585 0.12961 0.85011 0.0
C3103 C 0.75892 0.1427 0.87197 0.0
C3104 C 0.69854 0.13603 0.85416 0.0
C3105 C 0.69824 0.13179 0.81191 0.0
N3106 N 0.73984 0.1405 0.86678 0.0
N3107 N 0.71555 0.12979 0.82108 0.0
H3108 H 0.08069 0.60477 0.08258 0.0
H3109 H 0.18519 0.59074 0.05457 0.0
H3110 H 0.1078 0.65543 0.0733 0.0
H3111 H 0.1599 0.5701 0.10983 0.0
H3112 H 0.16215 0.61731 0.06147 0.0
H3113 H 0.11257 0.5924 0.09131 0.0
C3114 C 0.09325 0.61345 0.0827 0.0
C3115 C 0.0914 0.63129 0.07752 0.0
C3116 C 0.16246 0.60729 0.07253 0.0
C3117 C 0.1283 0.61689 0.08699 0.0
C3118 C 0.1753 0.59193 0.06842 0.0
C3119 C 0.17337 0.57739 0.08068 0.0
C3120 C 0.14785 0.60785 0.08891 0.0
C3121 C 0.16143 0.58037 0.09923 0.0
C3122 C 0.11147 0.60637 0.08779 0.0
C3123 C 0.10861 0.64154 0.07704 0.0
N3124 N 0.14861 0.59505 0.10244 0.0
N3125 N 0.1266 0.63405 0.08137 0.0
H3126 H 0.76056 0.85776 0.32526 0.0
H3127 H 0.80647 0.94956 0.3672 0.0
H3128 H 0.79926 0.86325 0.37487 0.0
H3129 H 0.77541 0.94597 0.31177 0.0
H3130 H 0.80127 0.91815 0.37095 0.0
H3131 H 0.7635 0.89004 0.32057 0.0
C3132 C 0.76967 0.86575 0.33512 0.0
C3133 C 0.77985 0.85783 0.35035 0.0
C3134 C 0.79557 0.9241 0.3579 0.0
C3135 C 0.78312 0.89451 0.34521 0.0
C3136 C 0.79855 0.94215 0.3557 0.0
C3137 C 0.79157 0.95043 0.33895 0.0
C3138 C 0.7855 0.91401 0.34328 0.0
C3139 C 0.78111 0.94008 0.32484 0.0
C3140 C 0.77136 0.8841 0.33241 0.0
C3141 C 0.79146 0.86871 0.3627 0.0
N3142 N 0.77845 0.92229 0.32727 0.0
N3143 N 0.79272 0.88645 0.35987 0.0
H3144 H 0.90584 0.00346 0.13215 0.0
H3145 H 0.83805 0.02863 0.04205 0.0
H3146 H 0.90804 0.97011 0.0753 0.0
H3147 H 0.82201 0.04157 0.10644 0.0
H3148 H 0.86802 0.01116 0.05094 0.0
H3149 H 0.88078 0.02379 0.1191 0.0
C3150 C 0.9017 1.00089 0.1166 0.0
C3151 C 0.90891 0.98519 0.10473 0.0
C3152 C 0.85779 0.01781 0.06302 0.0
C3153 C 0.88 0.00787 0.08999 0.0
C3154 C 0.84058 0.02749 0.05797 0.0
C3155 C 0.82758 0.03658 0.07352 0.0
C3156 C 0.86197 0.01755 0.08365 0.0
C3157 C 0.83174 0.03493 0.09393 0.0
C3158 C 0.88715 0.01225 0.10929 0.0
C3159 C 0.90273 0.98216 0.08485 0.0
N3160 N 0.84863 0.02582 0.09838 0.0
N3161 N 0.88842 0.99329 0.07813 0.0
H3162 H 0.25618 0.57855 0.56522 0.0
H3163 H 0.16858 0.65458 0.56048 0.0
H3164 H 0.25246 0.62706 0.60632 0.0
H3165 H 0.16766 0.59957 0.53447 0.0
H3166 H 0.20071 0.647 0.57482 0.0
H3167 H 0.22554 0.58837 0.55121 0.0
C3168 C 0.24895 0.59136 0.57137 0.0
C3169 C 0.25703 0.60194 0.58713 0.0
C3170 C 0.19343 0.63664 0.56597 0.0
C3171 C 0.22133 0.61337 0.57086 0.0
C3172 C 0.17518 0.64096 0.55771 0.0
C3173 C 0.16542 0.62764 0.54631 0.0
C3174 C 0.20202 0.61896 0.56255 0.0
C3175 C 0.17459 0.61024 0.54319 0.0
C3176 C 0.23128 0.59694 0.56332 0.0
C3177 C 0.24673 0.6184 0.59431 0.0
N3178 N 0.1923 0.60645 0.55121 0.0
N3179 N 0.22938 0.62365 0.58608 0.0
H3180 H 0.05541 0.49268 0.20437 0.0
H3181 H 0.10548 0.52905 0.30549 0.0
H3182 H 0.07456 0.45972 0.25101 0.0
H3183 H 0.11196 0.55561 0.24966 0.0
H3184 H 0.08379 0.50776 0.28909 0.0
H3185 H 0.06678 0.51949 0.22405 0.0
C3186 C 0.06162 0.49118 0.21892 0.0
C3187 C 0.06423 0.47406 0.22611 0.0
C3188 C 0.08968 0.51844 0.28053 0.0
C3189 C 0.07683 0.50436 0.24862 0.0
C3190 C 0.10201 0.53065 0.2899 0.0
C3191 C 0.11084 0.54393 0.27881 0.0
C3192 C 0.08612 0.51945 0.2599 0.0
C3193 C 0.10558 0.54548 0.25871 0.0
C3194 C 0.06815 0.5064 0.23005 0.0
C3195 C 0.07246 0.47271 0.24492 0.0
N3196 N 0.09377 0.53316 0.24974 0.0
N3197 N 0.07847 0.48764 0.25551 0.0
H3198 H 0.4316 0.58958 0.81883 0.0
H3199 H 0.31943 0.56708 0.85085 0.0
H3200 H 0.38579 0.63242 0.83287 0.0
H3201 H 0.37204 0.53982 0.87067 0.0
H3202 H 0.34122 0.58834 0.83436 0.0
H3203 H 0.40657 0.56757 0.82581 0.0
C3204 C 0.41613 0.59431 0.82272 0.0
C3205 C 0.41071 0.61278 0.82566 0.0
C3206 C 0.34784 0.57767 0.84236 0.0
C3207 C 0.38234 0.58785 0.8339 0.0
C3208 C 0.33552 0.5657 0.85183 0.0
C3209 C 0.34404 0.55196 0.86234 0.0
C3210 C 0.36869 0.57538 0.84298 0.0
C3211 C 0.36491 0.55049 0.86307 0.0
C3212 C 0.40196 0.58179 0.8269 0.0
C3213 C 0.39051 0.61824 0.83084 0.0
N3214 N 0.37657 0.56201 0.85336 0.0
N3215 N 0.37698 0.60577 0.83511 0.0
H3216 H 0.93113 0.69815 0.60332 0.0
H3217 H 0.93685 0.61474 0.66846 0.0
H3218 H 0.94865 0.64445 0.5768 0.0
H3219 H 0.93733 0.66945 0.6955 0.0
H3220 H 0.94436 0.62542 0.63477 0.0
H3221 H 0.93668 0.68851 0.63724 0.0
C3222 C 0.93666 0.68443 0.60473 0.0
C3223 C 0.93945 0.67197 0.58757 0.0
C3224 C 0.94312 0.63509 0.64806 0.0
C3225 C 0.94537 0.66075 0.62596 0.0
C3226 C 0.93868 0.62901 0.66721 0.0
C3227 C 0.93612 0.64134 0.68452 0.0
C3228 C 0.94459 0.65366 0.64627 0.0
C3229 C 0.93903 0.65961 0.68235 0.0
C3230 C 0.93982 0.67892 0.624 0.0
C3231 C 0.94639 0.65433 0.58987 0.0
N3232 N 0.94276 0.66531 0.66345 0.0
N3233 N 0.94884 0.64912 0.60885 0.0
H3234 H 0.09002 0.2613 0.37696 0.0
H3235 H 0.02813 0.18776 0.31545 0.0
H3236 H 0.07785 0.20878 0.39688 0.0
H3237 H 0.04062 0.23934 0.29303 0.0
H3238 H 0.04659 0.19558 0.34509 0.0
H3239 H 0.0723 0.25392 0.34626 0.0
C3240 C 0.08366 0.24821 0.37491 0.0
C3241 C 0.08552 0.23563 0.38961 0.0
C3242 C 0.04541 0.20522 0.3337 0.0
C3243 C 0.06514 0.22711 0.35437 0.0
C3244 C 0.03483 0.20075 0.31664 0.0
C3245 C 0.03274 0.21288 0.30153 0.0
C3246 C 0.05409 0.22202 0.33595 0.0
C3247 C 0.04184 0.2295 0.30418 0.0
C3248 C 0.07354 0.24401 0.35733 0.0
C3249 C 0.07688 0.21892 0.38605 0.0
N3250 N 0.05207 0.23359 0.32107 0.0
N3251 N 0.06711 0.21519 0.36887 0.0
H3252 H 0.59452 0.29667 0.19542 0.0
H3253 H 0.57738 0.20386 0.13474 0.0
H3254 H 0.54834 0.26127 0.21302 0.0
H3255 H 0.62595 0.23786 0.11929 0.0
H3256 H 0.57063 0.22176 0.16719 0.0
H3257 H 0.6111 0.27211 0.1726 0.0
C3258 C 0.58834 0.28344 0.19497 0.0
C3259 C 0.57014 0.28081 0.20587 0.0
C3260 C 0.58293 0.22519 0.15685 0.0
C3261 C 0.58829 0.25305 0.17925 0.0
C3262 C 0.58673 0.21505 0.13818 0.0
C3263 C 0.60206 0.21957 0.12406 0.0
C3264 C 0.59439 0.24011 0.16142 0.0
C3265 C 0.61379 0.23406 0.12957 0.0
C3266 C 0.59766 0.26949 0.18183 0.0
C3267 C 0.56245 0.26365 0.20479 0.0
N3268 N 0.60955 0.24396 0.14774 0.0
N3269 N 0.57136 0.25044 0.19125 0.0
H3270 H 0.51614 0.89006 0.86417 0.0
H3271 H 0.50737 0.94004 0.76084 0.0
H3272 H 0.46052 0.91632 0.85013 0.0
H3273 H 0.55661 0.90365 0.77223 0.0
H3274 H 0.49032 0.93367 0.79387 0.0
H3275 H 0.53141 0.89694 0.83124 0.0
C3276 C 0.50695 0.89713 0.85418 0.0
C3277 C 0.48675 0.90237 0.86025 0.0
C3278 C 0.50486 0.92711 0.78907 0.0
C3279 C 0.5047 0.91081 0.82197 0.0
C3280 C 0.51465 0.93079 0.7702 0.0
C3281 C 0.53354 0.92241 0.76351 0.0
C3282 C 0.51412 0.91513 0.80152 0.0
C3283 C 0.54208 0.91045 0.77644 0.0
C3284 C 0.51583 0.9012 0.83527 0.0
C3285 C 0.47613 0.91206 0.84647 0.0
N3286 N 0.53243 0.90729 0.79464 0.0
N3287 N 0.48517 0.91594 0.82809 0.0
H3288 H 0.92642 0.22487 0.92231 0.0
H3289 H 0.97701 0.2793 0.83343 0.0
H3290 H 0.91348 0.2145 0.85928 0.0
H3291 H 0.99062 0.28493 0.89662 0.0
H3292 H 0.95315 0.25624 0.84176 0.0
H3293 H 0.94851 0.24822 0.91261 0.0
C3294 C 0.92815 0.22757 0.90637 0.0
C3295 C 0.91815 0.21758 0.89159 0.0
C3296 C 0.96142 0.2625 0.85375 0.0
C3297 C 0.94389 0.2444 0.88019 0.0
C3298 C 0.9751 0.27559 0.849 0.0
C3299 C 0.98581 0.28407 0.86438 0.0
C3300 C 0.95844 0.25795 0.87403 0.0
C3301 C 0.98272 0.27879 0.88427 0.0
C3302 C 0.94087 0.24093 0.90081 0.0
C3303 C 0.92086 0.2219 0.8712 0.0
N3304 N 0.96933 0.26618 0.8885 0.0
N3305 N 0.93362 0.23491 0.86605 0.0
H3306 H 0.46547 0.18095 0.58857 0.0
H3307 H 0.35085 0.21544 0.60249 0.0
H3308 H 0.44021 0.21563 0.64063 0.0
H3309 H 0.37932 0.20151 0.54209 0.0
H3310 H 0.38338 0.21349 0.61661 0.0
H3311 H 0.4346 0.18631 0.5713 0.0
C3312 C 0.4535 0.18976 0.59639 0.0
C3313 C 0.45554 0.19777 0.61625 0.0
C3314 C 0.38269 0.21096 0.60025 0.0
C3315 C 0.41992 0.20378 0.59647 0.0
C3316 C 0.36402 0.212 0.5921 0.0
C3317 C 0.36221 0.20858 0.571 0.0
C3318 C 0.40003 0.20606 0.5874 0.0
C3319 C 0.37996 0.2043 0.55841 0.0
C3320 C 0.4359 0.19286 0.58642 0.0
C3321 C 0.43947 0.20914 0.6254 0.0
N3322 N 0.39813 0.20292 0.56684 0.0
N3323 N 0.42237 0.21159 0.61559 0.0
H3324 H 0.69596 0.7352 0.372 0.0
H3325 H 0.67768 0.63685 0.40508 0.0
H3326 H 0.74095 0.70141 0.39603 0.0
H3327 H 0.63341 0.66876 0.37709 0.0
H3328 H 0.70147 0.6601 0.4005 0.0
H3329 H 0.67428 0.70976 0.36936 0.0
C3330 C 0.70163 0.72211 0.37571 0.0
C3331 C 0.72015 0.72021 0.38413 0.0
C3332 C 0.68655 0.66209 0.3954 0.0
C3333 C 0.6953 0.69145 0.38221 0.0
C3334 C 0.6728 0.64898 0.3984 0.0
C3335 C 0.6535 0.65096 0.39154 0.0
C3336 C 0.68099 0.67731 0.38548 0.0
C3337 C 0.64819 0.66673 0.3825 0.0
C3338 C 0.68914 0.7077 0.37459 0.0
C3339 C 0.72681 0.70321 0.38918 0.0
N3340 N 0.66193 0.67934 0.37968 0.0
N3341 N 0.71416 0.68949 0.38857 0.0
H3342 H 0.06325 0.86999 0.06365 0.0
H3343 H 0.00479 0.96223 0.1089 0.0
H3344 H 0.09049 0.91389 0.09602 0.0
H3345 H 0.97524 0.91282 0.09481 0.0
H3346 H 0.03661 0.94726 0.09492 0.0
H3347 H 0.03127 0.88806 0.06629 0.0
C3348 C 0.06251 0.8836 0.07082 0.0
C3349 C 0.07929 0.89054 0.07957 0.0
C3350 C 0.02309 0.9398 0.0946 0.0
C3351 C 0.0432 0.91118 0.08282 0.0
C3352 C 0.00488 0.94836 0.10247 0.0
C3353 C 0.98737 0.93867 0.10336 0.0
C3354 C 0.02377 0.92147 0.0875 0.0
C3355 C 0.98842 0.92074 0.0947 0.0
C3356 C 0.04435 0.89384 0.07249 0.0
C3357 C 0.07774 0.90807 0.08921 0.0
N3358 N 0.00639 0.91263 0.08735 0.0
N3359 N 0.05996 0.9178 0.09064 0.0
H3360 H 0.67811 0.96054 0.56698 0.0
H3361 H 0.62772 0.90978 0.65864 0.0
H3362 H 0.70905 0.92109 0.59939 0.0
H3363 H 0.60185 0.96092 0.64401 0.0
H3364 H 0.65538 0.91238 0.63359 0.0
H3365 H 0.64848 0.95973 0.59153 0.0
C3366 C 0.67863 0.9516 0.57913 0.0
C3367 C 0.69609 0.94072 0.58099 0.0
C3368 C 0.64373 0.92309 0.63572 0.0
C3369 C 0.66222 0.93973 0.60912 0.0
C3370 C 0.62766 0.92161 0.65009 0.0
C3371 C 0.61208 0.93515 0.65368 0.0
C3372 C 0.64457 0.93816 0.6243 0.0
C3373 C 0.61338 0.95012 0.64189 0.0
C3374 C 0.66176 0.95126 0.59322 0.0
C3375 C 0.69597 0.92964 0.59724 0.0
N3376 N 0.62928 0.95119 0.62768 0.0
N3377 N 0.67938 0.92935 0.61048 0.0
H3378 H 0.94377 0.84378 0.39609 0.0
H3379 H 0.84704 0.91046 0.39615 0.0
H3380 H 0.88657 0.83561 0.42778 0.0
H3381 H 0.90534 0.9205 0.36811 0.0
H3382 H 0.85959 0.88018 0.40233 0.0
H3383 H 0.9282 0.86872 0.37992 0.0
C3384 C 0.92786 0.84703 0.39937 0.0
C3385 C 0.91653 0.83785 0.41361 0.0
C3386 C 0.86959 0.88893 0.39464 0.0
C3387 C 0.89869 0.86653 0.39541 0.0
C3388 C 0.86247 0.90624 0.39122 0.0
C3389 C 0.8753 0.91812 0.38199 0.0
C3390 C 0.88974 0.88351 0.38893 0.0
C3391 C 0.89497 0.9118 0.37537 0.0
C3392 C 0.919 0.86134 0.39023 0.0
C3393 C 0.89597 0.84266 0.4173 0.0
N3394 N 0.90167 0.89501 0.37922 0.0
N3395 N 0.88776 0.85681 0.40846 0.0
H3396 H 0.89813 0.14884 0.1225 0.0
H3397 H 0.93375 0.17445 0.23401 0.0
H3398 H 0.86533 0.13919 0.17911 0.0
H3399 H 0.96458 0.19249 0.18023 0.0
H3400 H 0.90825 0.16218 0.21324 0.0
H3401 H 0.92246 0.16535 0.14221 0.0
C3402 C 0.89601 0.15023 0.13902 0.0
C3403 C 0.87982 0.14236 0.14918 0.0
C3404 C 0.92041 0.16893 0.20583 0.0
C3405 C 0.90745 0.1612 0.1717 0.0
C3406 C 0.93496 0.17598 0.21774 0.0
C3407 C 0.95116 0.1845 0.20877 0.0
C3408 C 0.92215 0.17008 0.1846 0.0
C3409 C 0.95212 0.18613 0.18765 0.0
C3410 C 0.90988 0.15964 0.15024 0.0
C3411 C 0.87781 0.14459 0.1706 0.0
N3412 N 0.93787 0.17876 0.17615 0.0
N3413 N 0.89144 0.15371 0.18106 0.0
H3414 H 0.64906 0.16857 1.0044 0.0
H3415 H 0.58105 0.18101 0.91362 0.0
H3416 H 0.58445 0.16663 1.00626 0.0
H3417 H 0.6454 0.17194 0.90513 0.0
H3418 H 0.58391 0.189 0.94963 0.0
H3419 H 0.64914 0.17838 0.96988 0.0
C3420 C 0.63493 0.16992 0.99742 0.0
C3421 C 0.6167 0.16678 0.00818 0.0
C3422 C 0.5975 0.18577 0.9398 0.0
C3423 C 0.61668 0.17861 0.96924 0.0
C3424 C 0.59593 0.18151 0.91909 0.0
C3425 C 0.61294 0.17461 0.90677 0.0
C3426 C 0.6161 0.18278 0.94789 0.0
C3427 C 0.63182 0.17619 0.91458 0.0
C3428 C 0.63498 0.17587 0.97794 0.0
C3429 C 0.59885 0.16882 0.99853 0.0
N3430 N 0.6329 0.17929 0.93501 0.0
N3431 N 0.5993 0.17468 0.97961 0.0
H3432 H 0.56225 0.14272 0.66851 0.0
H3433 H 0.61186 0.15651 0.77558 0.0
H3434 H 0.55618 0.19204 0.70821 0.0
H3435 H 0.61366 0.1052 0.74011 0.0
H3436 H 0.59683 0.17083 0.7478 0.0
H3437 H 0.58525 0.12993 0.69146 0.0
C3438 C 0.56591 0.151 0.6819 0.0
C3439 C 0.55709 0.16858 0.68635 0.0
C3440 C 0.60086 0.15651 0.7458 0.0
C3441 C 0.58363 0.15381 0.71287 0.0
C3442 C 0.60972 0.14836 0.76157 0.0
C3443 C 0.61436 0.1297 0.76001 0.0
C3444 C 0.59612 0.14589 0.72833 0.0
C3445 C 0.61075 0.1197 0.74174 0.0
C3446 C 0.57907 0.14361 0.69505 0.0
C3447 C 0.56247 0.17848 0.70406 0.0
N3448 N 0.60159 0.12787 0.72672 0.0
N3449 N 0.57526 0.17095 0.71663 0.0
H3450 H 0.69682 0.89368 0.51959 0.0
H3451 H 0.75869 0.82824 0.43239 0.0
H3452 H 0.74415 0.91104 0.47892 0.0
H3453 H 0.72184 0.80933 0.48215 0.0
H3454 H 0.75114 0.85919 0.44705 0.0
H3455 H 0.70194 0.863 0.5025 0.0
C3456 C 0.70784 0.89106 0.50668 0.0
C3457 C 0.72008 0.90462 0.50047 0.0
C3458 C 0.74482 0.84822 0.45479 0.0
C3459 C 0.7264 0.87 0.48143 0.0
C3460 C 0.74928 0.83055 0.44654 0.0
C3461 C 0.74083 0.81618 0.456 0.0
C3462 C 0.73175 0.85148 0.47251 0.0
C3463 C 0.72864 0.81999 0.47427 0.0
C3464 C 0.71098 0.87361 0.49715 0.0
C3465 C 0.73446 0.90075 0.484 0.0
N3466 N 0.72434 0.8373 0.48185 0.0
N3467 N 0.73734 0.88372 0.47509 0.0
H3468 H 0.81919 0.97841 0.27876 0.0
H3469 H 0.90064 0.0055 0.19316 0.0
H3470 H 0.86099 0.02029 0.28766 0.0
H3471 H 0.87341 0.95391 0.19056 0.0
H3472 H 0.87894 0.01519 0.2238 0.0
H3473 H 0.83222 0.97333 0.24275 0.0
C3474 C 0.83092 0.98667 0.27304 0.0
C3475 C 0.83936 0.99953 0.28616 0.0
C3476 C 0.87755 1.00183 0.21637 0.0
C3477 C 0.85404 0.99401 0.24526 0.0
C3478 C 0.88991 0.99628 0.19883 0.0
C3479 C 0.88918 0.9787 0.18951 0.0
C3480 C 0.86435 0.98974 0.22468 0.0
C3481 C 0.87472 0.96748 0.19743 0.0
C3482 C 0.83833 0.98376 0.25257 0.0
C3483 C 0.85437 0.01 0.27807 0.0
N3484 N 0.86305 0.9731 0.21474 0.0
N3485 N 0.86132 0.00694 0.25817 0.0
H3486 H 0.83096 0.13519 0.92386 0.0
H3487 H 0.8312 0.07028 0.01372 0.0
H3488 H 0.88567 0.10963 0.94119 0.0
H3489 H 0.80331 0.12402 0.01961 0.0
H3490 H 0.84236 0.07439 0.97796 0.0
H3491 H 0.81192 0.11949 0.94947 0.0
C3492 C 0.8389 0.12572 0.93243 0.0
C3493 C 0.85994 0.12406 0.93091 0.0
C3494 C 0.83335 0.08502 0.98703 0.0
C3495 C 0.8383 0.10591 0.9596 0.0
C3496 C 0.82713 0.08277 0.00729 0.0
C3497 C 0.81685 0.09705 0.01947 0.0
C3498 C 0.82853 0.10139 0.97898 0.0
C3499 C 0.81166 0.11291 0.01067 0.0
C3500 C 0.82801 0.11682 0.94701 0.0
C3501 C 0.86947 0.11151 0.94226 0.0
N3502 N 0.81765 0.11472 0.99087 0.0
N3503 N 0.85856 0.10308 0.95646 0.0
H3504 H 0.64828 0.73261 0.94977 0.0
H3505 H 0.6859 0.64168 0.99612 0.0
H3506 H 0.6326 0.72099 0.01185 0.0
H3507 H 0.70536 0.65619 0.93596 0.0
H3508 H 0.66579 0.67016 1.00208 0.0
H3509 H 0.66852 0.70424 0.94431 0.0
C3510 C 0.64909 0.72406 0.96228 0.0
C3511 C 0.63874 0.72918 0.98131 0.0
C3512 C 0.67449 0.66713 0.98759 0.0
C3513 C 0.66191 0.69653 0.97514 0.0
C3514 C 0.68609 0.65089 0.9842 0.0
C3515 C 0.69744 0.64645 0.96549 0.0
C3516 C 0.67416 0.67912 0.97218 0.0
C3517 C 0.69671 0.65885 0.95052 0.0
C3518 C 0.66067 0.70785 0.95915 0.0
C3519 C 0.64032 0.71755 0.99693 0.0
N3520 N 0.68532 0.67456 0.95419 0.0
N3521 N 0.65167 0.70176 0.99351 0.0
H3522 H 0.31077 0.90433 0.15975 0.0
H3523 H 0.2031 0.93609 0.13946 0.0
H3524 H 0.29411 0.96121 0.17002 0.0
H3525 H 0.23759 0.89712 0.09725 0.0
H3526 H 0.23449 0.94593 0.15302 0.0
H3527 H 0.2813 0.90025 0.13998 0.0
C3528 C 0.3007 0.91585 0.15806 0.0
C3529 C 0.30454 0.93305 0.16652 0.0
C3530 C 0.23511 0.93558 0.1404 0.0
C3531 C 0.27134 0.92861 0.14412 0.0
C3532 C 0.21732 0.93006 0.13266 0.0
C3533 C 0.21791 0.91572 0.11742 0.0
C3534 C 0.25325 0.92626 0.13317 0.0
C3535 C 0.23658 0.90823 0.10902 0.0
C3536 C 0.28418 0.91361 0.14659 0.0
C3537 C 0.29141 0.94772 0.16369 0.0
N3538 N 0.25356 0.91326 0.11741 0.0
N3539 N 0.27513 0.94515 0.15287 0.0
H3540 H 0.87054 0.46764 0.89004 0.0
H3541 H 0.89993 0.37215 0.90882 0.0
H3542 H 0.84609 0.44182 0.94214 0.0
H3543 H 0.91159 0.39466 0.85112 0.0
H3544 H 0.8703 0.39256 0.91597 0.0
H3545 H 0.87516 0.4385 0.87086 0.0
C3546 C 0.86576 0.45593 0.89743 0.0
C3547 C 0.85881 0.4572 0.91815 0.0
C3548 C 0.87886 0.39265 0.90138 0.0
C3549 C 0.86488 0.42347 0.89631 0.0
C3550 C 0.89575 0.38089 0.89727 0.0
C3551 C 0.90861 0.38243 0.87982 0.0
C3552 C 0.87535 0.40618 0.88815 0.0
C3553 C 0.9024 0.3937 0.86518 0.0
C3554 C 0.86843 0.43916 0.88638 0.0
C3555 C 0.85267 0.44142 0.92659 0.0
N3556 N 0.88651 0.40561 0.86996 0.0
N3557 N 0.85642 0.42513 0.91584 0.0
H3558 H 0.25341 0.15058 0.6433 0.0
H3559 H 0.24112 0.05428 0.58359 0.0
H3560 H 0.24878 0.1407 0.57837 0.0
H3561 H 0.23758 0.0617 0.64944 0.0
H3562 H 0.24901 0.08565 0.582 0.0
H3563 H 0.2514 0.11794 0.64661 0.0
C3564 C 0.2519 0.14153 0.62982 0.0
C3565 C 0.25085 0.14825 0.61061 0.0
C3566 C 0.24662 0.08051 0.59687 0.0
C3567 C 0.24904 0.11128 0.61413 0.0
C3568 C 0.24217 0.06259 0.59775 0.0
C3569 C 0.2385 0.05561 0.61666 0.0
C3570 C 0.24707 0.09168 0.61505 0.0
C3571 C 0.24034 0.06675 0.63457 0.0
C3572 C 0.25082 0.12299 0.63169 0.0
C3573 C 0.24912 0.13609 0.59353 0.0
N3574 N 0.24423 0.08444 0.63337 0.0
N3575 N 0.24829 0.11824 0.59572 0.0
H3576 H 0.09699 0.01288 0.81225 0.0
H3577 H 0.15555 0.97049 0.90062 0.0
H3578 H 0.10286 0.03872 0.87234 0.0
H3579 H 0.16171 0.94696 0.83829 0.0
H3580 H 0.12971 0.99178 0.89158 0.0
H3581 H 0.11419 0.98531 0.82251 0.0
C3582 C 0.10132 0.01254 0.82776 0.0
C3583 C 0.09854 0.02805 0.84152 0.0
C3584 C 0.13649 0.98189 0.87983 0.0
C3585 C 0.11825 0.99685 0.85324 0.0
C3586 C 0.15128 0.96966 0.88501 0.0
C3587 C 0.16102 0.95705 0.87014 0.0
C3588 C 0.1314 0.98181 0.85949 0.0
C3589 C 0.1546 0.9565 0.85022 0.0
C3590 C 0.11131 0.99691 0.83354 0.0
C3591 C 0.10474 0.02706 0.86128 0.0
N3592 N 0.14039 0.96892 0.84537 0.0
N3593 N 0.11435 0.01184 0.86648 0.0
H3594 H 0.79319 0.39808 0.46736 0.0
H3595 H 0.86297 0.32537 0.40114 0.0
H3596 H 0.77575 0.36493 0.41536 0.0
H3597 H 0.88258 0.36665 0.44397 0.0
H3598 H 0.8285 0.33156 0.41555 0.0
H3599 H 0.82203 0.37732 0.46938 0.0
C3600 C 0.79515 0.38619 0.45671 0.0
C3601 C 0.78289 0.38366 0.44046 0.0
C3602 C 0.84034 0.33917 0.42193 0.0
C3603 C 0.81567 0.36027 0.44247 0.0
C3604 C 0.85987 0.33582 0.41358 0.0
C3605 C 0.87524 0.34588 0.42119 0.0
C3606 C 0.83625 0.353 0.43762 0.0
C3607 C 0.87084 0.35905 0.43739 0.0
C3608 C 0.81157 0.37435 0.45788 0.0
C3609 C 0.7856 0.3678 0.42745 0.0
N3610 N 0.85157 0.36242 0.44499 0.0
N3611 N 0.8021 0.35685 0.42839 0.0
H3612 H 0.91068 0.5282 0.78503 0.0
H3613 H 0.93596 0.4536 0.6975 0.0
H3614 H 0.96449 0.52882 0.74489 0.0
H3615 H 0.89844 0.44539 0.75176 0.0
H3616 H 0.95062 0.47887 0.71646 0.0
H3617 H 0.90914 0.49594 0.77562 0.0
C3618 C 0.92222 0.52143 0.77434 0.0
C3619 C 0.93737 0.53104 0.76524 0.0
C3620 C 0.93951 0.47124 0.72432 0.0
C3621 C 0.93568 0.49446 0.75418 0.0
C3622 C 0.93111 0.45693 0.71347 0.0
C3623 C 0.91541 0.44808 0.7229 0.0
C3624 C 0.93193 0.47656 0.7445 0.0
C3625 C 0.90992 0.45249 0.74371 0.0
C3626 C 0.92151 0.50302 0.7691 0.0
C3627 C 0.95233 0.52176 0.75187 0.0
N3628 N 0.9179 0.46667 0.75373 0.0
N3629 N 0.95086 0.50396 0.7463 0.0
H3630 H 0.69053 0.44477 0.13209 0.0
H3631 H 0.62774 0.40403 0.2231 0.0
H3632 H 0.70332 0.45426 0.19531 0.0
H3633 H 0.62346 0.38613 0.15964 0.0
H3634 H 0.65663 0.42131 0.21327 0.0
H3635 H 0.66752 0.42178 0.14168 0.0
C3636 C 0.68879 0.4418 0.14794 0.0
C3637 C 0.69882 0.45155 0.16292 0.0
C3638 C 0.64952 0.41345 0.2015 0.0
C3639 C 0.67216 0.42544 0.17408 0.0
C3640 C 0.63294 0.40367 0.2071 0.0
C3641 C 0.62304 0.39376 0.19216 0.0
C3642 C 0.65613 0.41351 0.18076 0.0
C3643 C 0.63065 0.39354 0.17169 0.0
C3644 C 0.6756 0.42868 0.15342 0.0
C3645 C 0.69595 0.44708 0.18322 0.0
N3646 N 0.64658 0.40344 0.16657 0.0
N3647 N 0.68267 0.43455 0.18824 0.0
H3648 H 0.60162 0.8679 0.9134 0.0
H3649 H 0.58292 0.83804 0.79713 0.0
H3650 H 0.59741 0.81258 0.88951 0.0
H3651 H 0.605 0.88956 0.8173 0.0
H3652 H 0.5802 0.83028 0.83266 0.0
H3653 H 0.59472 0.87772 0.87983 0.0
C3654 C 0.59898 0.85787 0.90115 0.0
C3655 C 0.60043 0.83942 0.90401 0.0
C3656 C 0.58548 0.84333 0.8293 0.0
C3657 C 0.5926 0.85047 0.86583 0.0
C3658 C 0.58698 0.84776 0.8091 0.0
C3659 C 0.59452 0.8643 0.80438 0.0
C3660 C 0.5914 0.85562 0.84479 0.0
C3661 C 0.59953 0.8765 0.82036 0.0
C3662 C 0.59514 0.86345 0.88203 0.0
C3663 C 0.59685 0.82693 0.88772 0.0
N3664 N 0.59799 0.87187 0.83989 0.0
N3665 N 0.59324 0.83267 0.86925 0.0
H3666 H 0.44439 0.30471 0.09724 0.0
H3667 H 0.4909 0.27107 0.1977 0.0
H3668 H 0.43917 0.2506 0.11545 0.0
H3669 H 0.4885 0.32652 0.18284 0.0
H3670 H 0.47262 0.26295 0.16751 0.0
H3671 H 0.46158 0.31253 0.12808 0.0
C3672 C 0.44685 0.29446 0.10769 0.0
C3673 C 0.44023 0.27698 0.10368 0.0
C3674 C 0.47602 0.2769 0.17094 0.0
C3675 C 0.46001 0.28587 0.1392 0.0
C3676 C 0.48642 0.28157 0.18824 0.0
C3677 C 0.49128 0.29954 0.19295 0.0
C3678 C 0.47052 0.29027 0.15814 0.0
C3679 C 0.48512 0.3125 0.17995 0.0
C3680 C 0.45665 0.29895 0.12537 0.0
C3681 C 0.4439 0.26428 0.11789 0.0
N3682 N 0.4752 0.30761 0.16319 0.0
N3683 N 0.45355 0.26896 0.13494 0.0
H3684 H 0.92549 0.30741 0.34529 0.0
H3685 H 0.92246 0.21109 0.28459 0.0
H3686 H 0.9014 0.26101 0.37193 0.0
H3687 H 0.96864 0.24874 0.27437 0.0
H3688 H 0.9044 0.23361 0.30919 0.0
H3689 H 0.93057 0.28986 0.31238 0.0
C3690 C 0.92099 0.29359 0.34421 0.0
C3691 C 0.91356 0.28547 0.36157 0.0
C3692 C 0.91822 0.23704 0.30114 0.0
C3693 C 0.91915 0.2655 0.3238 0.0
C3694 C 0.92851 0.22429 0.28708 0.0
C3695 C 0.9473 0.228 0.2779 0.0
C3696 C 0.92669 0.25363 0.30568 0.0
C3697 C 0.95436 0.2453 0.28145 0.0
C3698 C 0.92383 0.28365 0.32536 0.0
C3699 C 0.9075 0.26769 0.35903 0.0
N3700 N 0.94415 0.25745 0.29533 0.0
N3701 N 0.91074 0.25815 0.34049 0.0
H3702 H 0.01504 0.62219 0.62904 0.0
H3703 H 0.01942 0.56707 0.72933 0.0
H3704 H 0.06706 0.58905 0.64035 0.0
H3705 H 0.97164 0.60543 0.719 0.0
H3706 H 0.03708 0.57401 0.6969 0.0
H3707 H 0.99906 0.61545 0.6618 0.0
C3708 C 0.02329 0.61363 0.63841 0.0
C3709 C 0.04264 0.60632 0.63161 0.0
C3710 C 0.02274 0.5809 0.70181 0.0
C3711 C 0.02394 0.59815 0.66963 0.0
C3712 C 0.01262 0.57693 0.72036 0.0
C3713 C 0.99391 0.58561 0.72715 0.0
C3714 C 0.01407 0.59358 0.68978 0.0
C3715 C 0.98598 0.59832 0.71468 0.0
C3716 C 0.01401 0.60965 0.65721 0.0
C3717 C 0.05209 0.59491 0.64459 0.0
N3718 N 0.99599 0.60181 0.69678 0.0
N3719 N 0.0427 0.59119 0.66284 0.0
H3720 H 0.53835 0.21768 0.59063 0.0
H3721 H 0.61585 0.28997 0.62568 0.0
H3722 H 0.54987 0.22768 0.654 0.0
H3723 H 0.58733 0.28967 0.56885 0.0
H3724 H 0.5937 0.26645 0.63642 0.0
H3725 H 0.55743 0.24361 0.58255 0.0
C3726 C 0.54473 0.22556 0.60291 0.0
C3727 C 0.54247 0.22065 0.62299 0.0
C3728 C 0.59231 0.27162 0.62165 0.0
C3729 C 0.565 0.25014 0.61378 0.0
C3730 C 0.60505 0.28494 0.61541 0.0
C3731 C 0.60362 0.29177 0.59621 0.0
C3732 C 0.57818 0.26496 0.60852 0.0
C3733 C 0.58915 0.28483 0.58371 0.0
C3734 C 0.55568 0.24035 0.59829 0.0
C3735 C 0.55111 0.23122 0.63834 0.0
N3736 N 0.57715 0.27181 0.59003 0.0
N3737 N 0.56231 0.24538 0.63338 0.0
H3738 H 0.07322 0.34116 0.88327 0.0
H3739 H 0.15185 0.27553 0.93218 0.0
H3740 H 0.07347 0.28342 0.8702 0.0
H3741 H 0.16379 0.32972 0.91828 0.0
H3742 H 0.11942 0.27845 0.91648 0.0
H3743 H 0.10268 0.33736 0.9026 0.0
C3744 C 0.07938 0.32761 0.8845 0.0
C3745 C 0.07072 0.3126 0.87488 0.0
C3746 C 0.12902 0.28979 0.91721 0.0
C3747 C 0.10476 0.30814 0.89757 0.0
C3748 C 0.14736 0.28823 0.92648 0.0
C3749 C 0.16039 0.30257 0.92695 0.0
C3750 C 0.12355 0.30588 0.90863 0.0
C3751 C 0.1541 0.31846 0.9186 0.0
C3752 C 0.09631 0.32547 0.89559 0.0
C3753 C 0.07963 0.29542 0.87717 0.0
N3754 N 0.13623 0.31971 0.90993 0.0
N3755 N 0.09608 0.29365 0.88833 0.0
H3756 H 0.89696 0.83867 0.10001 0.0
H3757 H 0.78598 0.80858 0.08581 0.0
H3758 H 0.85477 0.86721 0.06581 0.0
H3759 H 0.83038 0.77678 0.11333 0.0
H3760 H 0.81002 0.83199 0.08175 0.0
H3761 H 0.87331 0.81538 0.10412 0.0
C3762 C 0.883 0.83981 0.09272 0.0
C3763 C 0.87759 0.8553 0.08308 0.0
C3764 C 0.81437 0.82011 0.08919 0.0
C3765 C 0.85003 0.829 0.08874 0.0
C3766 C 0.80044 0.80707 0.09214 0.0
C3767 C 0.80629 0.79094 0.10006 0.0
C3768 C 0.83414 0.81686 0.09432 0.0
C3769 C 0.82532 0.78925 0.10744 0.0
C3770 C 0.86928 0.82663 0.09552 0.0
C3771 C 0.85926 0.85581 0.07398 0.0
N3772 N 0.83881 0.8019 0.10398 0.0
N3773 N 0.84587 0.84306 0.07746 0.0
H3774 H 0.55779 0.58711 0.40591 0.0
H3775 H 0.43883 0.6022 0.4165 0.0
H3776 H 0.51873 0.54907 0.37817 0.0
H3777 H 0.47932 0.64547 0.41317 0.0
H3778 H 0.46774 0.58029 0.41268 0.0
H3779 H 0.52841 0.60585 0.41981 0.0
C3780 C 0.54305 0.58243 0.40312 0.0
C3781 C 0.54071 0.56666 0.39044 0.0
C3782 C 0.47025 0.59458 0.41307 0.0
C3783 C 0.50718 0.58809 0.40639 0.0
C3784 C 0.45389 0.60701 0.41525 0.0
C3785 C 0.45697 0.62548 0.415 0.0
C3786 C 0.48969 0.60081 0.41105 0.0
C3787 C 0.47655 0.63125 0.41328 0.0
C3788 C 0.52633 0.59323 0.41098 0.0
C3789 C 0.52121 0.56125 0.38759 0.0
N3790 N 0.49229 0.6189 0.41136 0.0
N3791 N 0.50512 0.5721 0.39532 0.0
H3792 H 0.81681 0.58633 0.89105 0.0
H3793 H 0.92731 0.54714 0.84818 0.0
H3794 H 0.85105 0.55118 0.92587 0.0
H3795 H 0.89673 0.59456 0.82906 0.0
H3796 H 0.89955 0.54549 0.87498 0.0
H3797 H 0.84564 0.58655 0.86617 0.0
C3798 C 0.83044 0.57865 0.89351 0.0
C3799 C 0.83143 0.56873 0.91066 0.0
C3800 C 0.89911 0.55625 0.86488 0.0
C3801 C 0.86486 0.56871 0.88183 0.0
C3802 C 0.91497 0.5572 0.84957 0.0
C3803 C 0.91463 0.57102 0.83615 0.0
C3804 C 0.88269 0.56905 0.86656 0.0
C3805 C 0.89802 0.58361 0.83881 0.0
C3806 C 0.84699 0.57876 0.87924 0.0
C3807 C 0.8496 0.55897 0.91287 0.0
N3808 N 0.88292 0.58223 0.85343 0.0
N3809 N 0.86556 0.55911 0.89862 0.0
H3810 H 0.65915 0.60335 0.12376 0.0
H3811 H 0.59278 0.64683 0.04302 0.0
H3812 H 0.64794 0.57707 0.06506 0.0
H3813 H 0.61941 0.68028 0.08938 0.0
H3814 H 0.61041 0.62048 0.05394 0.0
H3815 H 0.64293 0.63137 0.11393 0.0
C3816 C 0.6534 0.60351 0.1088 0.0
C3817 C 0.65486 0.58785 0.09519 0.0
C3818 C 0.61244 0.63356 0.06178 0.0
C3819 C 0.6363 0.61959 0.08404 0.0
C3820 C 0.60217 0.64859 0.0557 0.0
C3821 C 0.60451 0.66573 0.06542 0.0
C3822 C 0.62514 0.63556 0.07779 0.0
C3823 C 0.61726 0.66726 0.08148 0.0
C3824 C 0.64426 0.61947 0.10321 0.0
C3825 C 0.64736 0.58882 0.07595 0.0
N3826 N 0.62709 0.6523 0.08727 0.0
N3827 N 0.63829 0.60434 0.07105 0.0
H3828 H 0.65567 0.33653 0.35124 0.0
H3829 H 0.56999 0.35787 0.2767 0.0
H3830 H 0.63871 0.38972 0.33462 0.0
H3831 H 0.58284 0.30423 0.29448 0.0
H3832 H 0.59423 0.36951 0.29937 0.0
H3833 H 0.62832 0.32431 0.33232 0.0
C3834 C 0.64608 0.34568 0.34381 0.0
C3835 C 0.64962 0.3642 0.34441 0.0
C3836 C 0.59181 0.35519 0.29844 0.0
C3837 C 0.61844 0.35024 0.32258 0.0
C3838 C 0.57795 0.34847 0.28538 0.0
C3839 C 0.57454 0.32996 0.28344 0.0
C3840 C 0.60259 0.34336 0.30969 0.0
C3841 C 0.58508 0.31857 0.29544 0.0
C3842 C 0.63054 0.33866 0.33293 0.0
C3843 C 0.63683 0.37533 0.3343 0.0
N3844 N 0.5988 0.32544 0.30795 0.0
N3845 N 0.62192 0.36818 0.32378 0.0
H3846 H 0.89128 0.34645 0.48615 0.0
H3847 H 0.96065 0.33221 0.57782 0.0
H3848 H 0.95446 0.33058 0.47778 0.0
H3849 H 0.89919 0.35345 0.58615 0.0
H3850 H 0.95737 0.3278 0.54101 0.0
H3851 H 0.89326 0.34757 0.52306 0.0
C3852 C 0.90563 0.3435 0.49215 0.0
C3853 C 0.92273 0.33838 0.47905 0.0
C3854 C 0.94453 0.33319 0.55096 0.0
C3855 C 0.925 0.33913 0.52099 0.0
C3856 C 0.94635 0.3355 0.5719 0.0
C3857 C 0.93024 0.3433 0.58489 0.0
C3858 C 0.92654 0.33888 0.54311 0.0
C3859 C 0.91195 0.34728 0.57664 0.0
C3860 C 0.90672 0.34395 0.51316 0.0
C3861 C 0.94097 0.33471 0.48744 0.0
N3862 N 0.91069 0.34528 0.55617 0.0
N3863 N 0.94159 0.33499 0.50797 0.0
H3864 H 0.97309 0.31475 0.77891 0.0
H3865 H 0.90613 0.40071 0.75208 0.0
H3866 H 0.96453 0.36379 0.81893 0.0
H3867 H 0.9072 0.34835 0.71865 0.0
H3868 H 0.92676 0.38765 0.77722 0.0
H3869 H 0.94878 0.32699 0.75688 0.0
C3870 C 0.96605 0.32805 0.78315 0.0
C3871 C 0.97095 0.33818 0.80088 0.0
C3872 C 0.92228 0.37898 0.76451 0.0
C3873 C 0.94303 0.35245 0.77549 0.0
C3874 C 0.9104 0.38642 0.7502 0.0
C3875 C 0.90496 0.37564 0.73314 0.0
C3876 C 0.92889 0.36063 0.76169 0.0
C3877 C 0.91108 0.35722 0.73147 0.0
C3878 C 0.95211 0.33505 0.77055 0.0
C3879 C 0.96125 0.35539 0.80549 0.0
N3880 N 0.92281 0.35038 0.74538 0.0
N3881 N 0.94791 0.362 0.79284 0.0
H3882 H 0.83821 0.60865 0.98208 0.0
H3883 H 0.77113 0.67908 0.05991 0.0
H3884 H 0.78098 0.59765 0.01174 0.0
H3885 H 0.82068 0.69402 0.01998 0.0
H3886 H 0.77844 0.64754 0.04732 0.0
H3887 H 0.83634 0.63842 1.0016 0.0
C3888 C 0.82555 0.61238 0.99304 0.0
C3889 C 0.80959 0.60102 0.9952 0.0
C3890 C 0.78773 0.65775 0.04137 0.0
C3891 C 0.80723 0.63459 0.01719 0.0
C3892 C 0.78349 0.67575 0.04846 0.0
C3893 C 0.79509 0.68922 0.04073 0.0
C3894 C 0.80371 0.65323 0.02653 0.0
C3895 C 0.8111 0.68411 0.02611 0.0
C3896 C 0.82437 0.62933 1.00401 0.0
C3897 C 0.79342 0.60628 0.00948 0.0
N3898 N 0.8149 0.6665 0.01941 0.0
N3899 N 0.79256 0.62278 0.01981 0.0
H3900 H 0.65292 0.55411 0.30386 0.0
H3901 H 0.66935 0.48671 0.20406 0.0
H3902 H 0.62824 0.50151 0.29782 0.0
H3903 H 0.70529 0.53287 0.21353 0.0
H3904 H 0.65644 0.49096 0.23978 0.0
H3905 H 0.67468 0.54588 0.27259 0.0
C3906 C 0.65232 0.54074 0.29618 0.0
C3907 C 0.63845 0.52861 0.30321 0.0
C3908 C 0.66729 0.5001 0.2342 0.0
C3909 C 0.66313 0.51918 0.26748 0.0
C3910 C 0.67458 0.49771 0.21378 0.0
C3911 C 0.68808 0.50965 0.20587 0.0
C3912 C 0.67322 0.5148 0.24674 0.0
C3913 C 0.69471 0.52349 0.21911 0.0
C3914 C 0.66473 0.53605 0.27833 0.0
C3915 C 0.63839 0.51144 0.29273 0.0
N3916 N 0.68692 0.52591 0.23889 0.0
N3917 N 0.65032 0.50734 0.27528 0.0
H3918 H 0.73125 0.3841 0.4772 0.0
H3919 H 0.6406 0.39827 0.54804 0.0
H3920 H 0.69834 0.43539 0.47837 0.0
H3921 H 0.69422 0.37484 0.57024 0.0
H3922 H 0.66151 0.41492 0.52496 0.0
H3923 H 0.71912 0.38181 0.51278 0.0
C3924 C 0.72164 0.39496 0.48513 0.0
C3925 C 0.71532 0.40973 0.47498 0.0
C3926 C 0.66869 0.40665 0.53542 0.0
C3927 C 0.70131 0.40718 0.51525 0.0
C3928 C 0.65677 0.3971 0.54853 0.0
C3929 C 0.66574 0.38474 0.5605 0.0
C3930 C 0.68957 0.40328 0.53395 0.0
C3931 C 0.68672 0.38391 0.56085 0.0
C3932 C 0.71496 0.3938 0.50544 0.0
C3933 C 0.70323 0.42368 0.48581 0.0
N3934 N 0.69801 0.39254 0.54712 0.0
N3935 N 0.69604 0.42182 0.50531 0.0
H3936 H 0.8525 0.76659 0.51267 0.0
H3937 H 0.85771 0.874 0.5157 0.0
H3938 H 0.90482 0.7929 0.49053 0.0
H3939 H 0.80291 0.84706 0.52838 0.0
H3940 H 0.8753 0.84464 0.50675 0.0
H3941 H 0.83418 0.79597 0.51868 0.0
C3942 C 0.86007 0.77858 0.50889 0.0
C3943 C 0.8802 0.77736 0.50107 0.0
C3944 C 0.85942 0.84515 0.51144 0.0
C3945 C 0.8594 0.81112 0.50818 0.0
C3946 C 0.84929 0.86196 0.51649 0.0
C3947 C 0.82868 0.86315 0.52283 0.0
C3948 C 0.84898 0.82929 0.51284 0.0
C3949 C 0.81881 0.84693 0.5239 0.0
C3950 C 0.84962 0.79537 0.51236 0.0
C3951 C 0.88929 0.7933 0.49648 0.0
N3952 N 0.82903 0.83074 0.51902 0.0
N3953 N 0.87889 0.80955 0.50024 0.0
H3954 H 0.23956 0.55584 0.30529 0.0
H3955 H 0.29242 0.62382 0.38173 0.0
H3956 H 0.21224 0.60733 0.33027 0.0
H3957 H 0.31951 0.57266 0.3555 0.0
H3958 H 0.2613 0.61655 0.36639 0.0
H3959 H 0.26826 0.56119 0.3252 0.0
C3960 C 0.23977 0.56841 0.31478 0.0
C3961 C 0.22361 0.58122 0.31611 0.0
C3962 C 0.27395 0.6068 0.36424 0.0
C3963 C 0.25619 0.58727 0.33927 0.0
C3964 C 0.29161 0.61083 0.37321 0.0
C3965 C 0.30855 0.5989 0.36957 0.0
C3966 C 0.27339 0.59077 0.35155 0.0
C3967 C 0.30682 0.58233 0.35832 0.0
C3968 C 0.25606 0.57139 0.3263 0.0
C3969 C 0.22456 0.59724 0.32865 0.0
N3970 N 0.28959 0.57884 0.34945 0.0
N3971 N 0.2406 0.5998 0.33988 0.0
H3972 H 0.61897 0.13593 0.57728 0.0
H3973 H 0.67714 0.04444 0.58705 0.0
H3974 H 0.61174 0.10307 0.62814 0.0
H3975 H 0.66773 0.06985 0.53161 0.0
H3976 H 0.66779 0.07314 0.60681 0.0
H3977 H 0.65126 0.12017 0.56711 0.0
C3978 C 0.62445 0.12581 0.58673 0.0
C3979 C 0.61227 0.12015 0.60301 0.0
C3980 C 0.66842 0.07251 0.59027 0.0
C3981 C 0.64886 0.10188 0.59113 0.0
C3982 C 0.6735 0.0561 0.579 0.0
C3983 C 0.67232 0.05452 0.55772 0.0
C3984 C 0.66204 0.08736 0.58014 0.0
C3985 C 0.66844 0.07026 0.548 0.0
C3986 C 0.6429 0.1168 0.58088 0.0
C3987 C 0.6203 0.10719 0.61487 0.0
N3988 N 0.66298 0.08594 0.55934 0.0
N3989 N 0.6379 0.09807 0.60835 0.0
H3990 H 0.29282 0.36155 0.9052 0.0
H3991 H 0.28165 0.44962 0.84443 0.0
H3992 H 0.2596 0.36198 0.85138 0.0
H3993 H 0.30317 0.44819 0.90465 0.0
H3994 H 0.27464 0.41745 0.84482 0.0
H3995 H 0.29905 0.39315 0.90284 0.0
C3996 C 0.28716 0.36825 0.89262 0.0
C3997 C 0.2759 0.35911 0.87831 0.0
C3998 C 0.2808 0.4243 0.85793 0.0
C3999 C 0.28251 0.39557 0.87578 0.0
C4000 C 0.28473 0.4426 0.85775 0.0
C4001 C 0.29318 0.45149 0.87444 0.0
C4002 C 0.28543 0.41504 0.87491 0.0
C4003 C 0.29693 0.44184 0.8913 0.0
C4004 C 0.29049 0.38639 0.89141 0.0
C4005 C 0.26839 0.36862 0.86268 0.0
N4006 N 0.2931 0.42417 0.89104 0.0
N4007 N 0.27185 0.38642 0.86178 0.0
H4008 H 0.37788 0.54262 0.59023 0.0
H4009 H 0.43108 0.49533 0.67879 0.0
H4010 H 0.36561 0.56134 0.65381 0.0
H4011 H 0.42336 0.47045 0.61864 0.0
H4012 H 0.41528 0.52371 0.66898 0.0
H4013 H 0.40321 0.52091 0.5996 0.0
C4014 C 0.38082 0.54241 0.60619 0.0
C4015 C 0.36943 0.55368 0.62128 0.0
C4016 C 0.41746 0.51212 0.65785 0.0
C4017 C 0.39835 0.52847 0.63221 0.0
C4018 C 0.42663 0.49602 0.66335 0.0
C4019 C 0.42849 0.48058 0.64944 0.0
C4020 C 0.41054 0.51275 0.63821 0.0
C4021 C 0.42218 0.48204 0.62979 0.0
C4022 C 0.39525 0.52992 0.61154 0.0
C4023 C 0.37406 0.5529 0.64169 0.0
N4024 N 0.41347 0.49776 0.62481 0.0
N4025 N 0.38796 0.54024 0.64664 0.0
H4026 H 0.75316 0.14082 0.08837 0.0
H4027 H 0.65251 0.14022 0.05151 0.0
H4028 H 0.74472 0.12031 0.02646 0.0
H4029 H 0.66641 0.18584 0.0918 0.0
H4030 H 0.68761 0.13622 0.03924 0.0
H4031 H 0.72493 0.16239 0.08719 0.0
C4032 C 0.74566 0.14114 0.07435 0.0
C4033 C 0.75037 0.12808 0.05792 0.0
C4034 C 0.68305 0.14732 0.05053 0.0
C4035 C 0.7183 0.15257 0.05653 0.0
C4036 C 0.66309 0.14932 0.05784 0.0
C4037 C 0.65692 0.16294 0.07315 0.0
C4038 C 0.69703 0.15852 0.05925 0.0
C4039 C 0.67093 0.17486 0.08034 0.0
C4040 C 0.72971 0.15363 0.07359 0.0
C4041 C 0.74085 0.12959 0.03983 0.0
N4042 N 0.69061 0.17206 0.07374 0.0
N4043 N 0.72475 0.14129 0.03981 0.0
H4044 H 0.62911 0.96498 0.72507 0.0
H4045 H 0.58736 0.05832 0.78399 0.0
H4046 H 0.56571 0.97668 0.74009 0.0
H4047 H 0.64868 0.03724 0.78226 0.0
H4048 H 0.57815 0.02941 0.76717 0.0
H4049 H 0.63604 0.9933 0.74379 0.0
C4050 C 0.61666 0.9736 0.73223 0.0
C4051 C 0.59689 0.96853 0.73126 0.0
C4052 C 0.59354 0.03109 0.7708 0.0
C4053 C 0.6046 1.00076 0.75285 0.0
C4054 C 0.59871 0.04744 0.7805 0.0
C4055 C 0.61879 0.05002 0.78421 0.0
C4056 C 0.60864 0.01752 0.76492 0.0
C4057 C 0.63308 0.03575 0.77932 0.0
C4058 C 0.62059 0.98969 0.74304 0.0
C4059 C 0.58121 0.98018 0.74065 0.0
N4060 N 0.62776 0.02014 0.76977 0.0
N4061 N 0.5854 0.99583 0.75117 0.0
H4062 H 0.81712 0.06348 0.30295 0.0
H4063 H 0.92674 0.09403 0.31533 0.0
H4064 H 0.84841 0.05584 0.35703 0.0
H4065 H 0.88579 0.12855 0.28641 0.0
H4066 H 0.89872 0.07627 0.32609 0.0
H4067 H 0.8421 0.08507 0.29291 0.0
C4068 C 0.82895 0.06657 0.31289 0.0
C4069 C 0.83069 0.05775 0.33083 0.0
C4070 C 0.89585 0.08776 0.31744 0.0
C4071 C 0.85943 0.08184 0.31912 0.0
C4072 C 0.91185 0.0978 0.31111 0.0
C4073 C 0.9086 0.11276 0.29993 0.0
C4074 C 0.87641 0.09253 0.31236 0.0
C4075 C 0.88889 0.11715 0.29512 0.0
C4076 C 0.84318 0.07882 0.30712 0.0
C4077 C 0.84639 0.06223 0.34307 0.0
N4078 N 0.87348 0.10696 0.30124 0.0
N4079 N 0.86032 0.07368 0.33681 0.0
H4080 H 0.44595 0.20016 0.14748 0.0
H4081 H 0.44431 0.1101 0.20425 0.0
H4082 H 0.42743 0.14919 0.121 0.0
H4083 H 0.46007 0.16139 0.23234 0.0
H4084 H 0.44508 0.12282 0.17121 0.0
H4085 H 0.45835 0.18487 0.1759 0.0
C4086 C 0.44491 0.18567 0.14743 0.0
C4087 C 0.43538 0.17592 0.1321 0.0
C4088 C 0.44859 0.13128 0.18453 0.0
C4089 C 0.44919 0.15845 0.16461 0.0
C4090 C 0.44805 0.12404 0.20336 0.0
C4091 C 0.45168 0.13489 0.22097 0.0
C4092 C 0.45252 0.14955 0.1834 0.0
C4093 C 0.45699 0.15269 0.21905 0.0
C4094 C 0.45188 0.17698 0.1637 0.0
C4095 C 0.4343 0.15723 0.13279 0.0
N4096 N 0.45692 0.1596 0.20059 0.0
N4097 N 0.44088 0.14913 0.14895 0.0
H4098 H 0.57728 0.77495 0.92861 0.0
H4099 H 0.53895 0.69077 0.8615 0.0
H4100 H 0.5696 0.72207 0.94973 0.0
H4101 H 0.53589 0.74506 0.84282 0.0
H4102 H 0.55517 0.70158 0.8917 0.0
H4103 H 0.56621 0.7639 0.89538 0.0
C4104 C 0.57328 0.76103 0.92628 0.0
C4105 C 0.57424 0.74943 0.94202 0.0
C4106 C 0.55113 0.71114 0.88094 0.0
C4107 C 0.56182 0.73673 0.90405 0.0
C4108 C 0.54193 0.70496 0.8636 0.0
C4109 C 0.53584 0.71707 0.8497 0.0
C4110 C 0.55426 0.7296 0.88453 0.0
C4111 C 0.54029 0.73527 0.85317 0.0
C4112 C 0.567 0.75475 0.9073 0.0
C4113 C 0.56896 0.73153 0.93811 0.0
N4114 N 0.54907 0.74104 0.87039 0.0
N4115 N 0.56298 0.72575 0.91954 0.0
H4116 H 0.12976 0.70607 0.57301 0.0
H4117 H 0.03769 0.75021 0.64834 0.0
H4118 H 0.07379 0.67997 0.5811 0.0
H4119 H 0.09843 0.76716 0.64966 0.0
H4120 H 0.04974 0.7248 0.62345 0.0
H4121 H 0.11773 0.72914 0.60023 0.0
C4122 C 0.11496 0.70511 0.58054 0.0
C4123 C 0.10287 0.69091 0.57468 0.0
C4124 C 0.06043 0.734 0.62936 0.0
C4125 C 0.08878 0.71763 0.60603 0.0
C4126 C 0.05357 0.74847 0.64365 0.0
C4127 C 0.06703 0.76093 0.65116 0.0
C4128 C 0.08089 0.73203 0.62234 0.0
C4129 C 0.08744 0.75799 0.64434 0.0
C4130 C 0.10808 0.71833 0.59617 0.0
C4131 C 0.08375 0.69055 0.58511 0.0
N4132 N 0.09365 0.74405 0.63028 0.0
N4133 N 0.07727 0.70373 0.60013 0.0
H4134 H 0.97576 0.36081 0.29825 0.0
H4135 H 0.00219 0.45434 0.25461 0.0
H4136 H 0.97264 0.41046 0.33725 0.0
H4137 H 0.99209 0.40563 0.21761 0.0
H4138 H 0.98923 0.44005 0.2851 0.0
H4139 H 0.98069 0.37799 0.26852 0.0
C4140 C 0.97614 0.37537 0.30055 0.0
C4141 C 0.97395 0.38418 0.32028 0.0
C4142 C 0.9894 0.43269 0.2702 0.0
C4143 C 0.9795 0.40413 0.28614 0.0
C4144 C 0.99654 0.44093 0.25281 0.0
C4145 C 0.99811 0.43114 0.23359 0.0
C4146 C 0.98398 0.41459 0.26817 0.0
C4147 C 0.99109 0.41365 0.23212 0.0
C4148 C 0.97879 0.38523 0.28354 0.0
C4149 C 0.97422 0.40314 0.32228 0.0
N4150 N 0.98459 0.4059 0.24913 0.0
N4151 N 0.97717 0.41249 0.30544 0.0
H4152 H 0.50459 0.75903 0.35564 0.0
H4153 H 0.42248 0.71658 0.42805 0.0
H4154 H 0.49658 0.77077 0.42106 0.0
H4155 H 0.45004 0.68456 0.37511 0.0
H4156 H 0.44421 0.74104 0.42048 0.0
H4157 H 0.48082 0.73476 0.35831 0.0
C4158 C 0.49793 0.75641 0.37052 0.0
C4159 C 0.50245 0.76689 0.38817 0.0
C4160 C 0.44534 0.72878 0.41032 0.0
C4161 C 0.47508 0.73984 0.39118 0.0
C4162 C 0.4328 0.71497 0.41449 0.0
C4163 C 0.43447 0.69876 0.40206 0.0
C4164 C 0.45983 0.72629 0.39372 0.0
C4165 C 0.44822 0.69707 0.38481 0.0
C4166 C 0.48441 0.74265 0.372 0.0
C4167 C 0.49353 0.763 0.40709 0.0
N4168 N 0.46062 0.7107 0.38118 0.0
N4169 N 0.4801 0.74995 0.40805 0.0
H4170 H 0.94333 0.68979 0.07272 0.0
H4171 H 0.84453 0.74777 0.05938 0.0
H4172 H 0.9388 0.74547 0.09746 0.0
H4173 H 0.84386 0.70292 0.09684 0.0
H4174 H 0.8815 0.7448 0.05583 0.0
H4175 H 0.90872 0.69291 0.06302 0.0
C4176 C 0.93531 0.70284 0.07543 0.0
C4177 C 0.94369 0.71737 0.08614 0.0
C4178 C 0.87311 0.73545 0.06444 0.0
C4179 C 0.9047 0.72098 0.07472 0.0
C4180 C 0.8522 0.73716 0.06653 0.0
C4181 C 0.84141 0.72579 0.07872 0.0
C4182 C 0.88294 0.72181 0.07397 0.0
C4183 C 0.85179 0.71207 0.08756 0.0
C4184 C 0.91565 0.70455 0.06994 0.0
C4185 C 0.93267 0.73394 0.08944 0.0
N4186 N 0.87211 0.71044 0.08501 0.0
N4187 N 0.91352 0.73529 0.0839 0.0
H4188 H 0.16293 0.23786 0.94704 0.0
H4189 H 0.17483 0.15888 0.85612 0.0
H4190 H 0.21466 0.2318 0.90337 0.0
H4191 H 0.1218 0.17017 0.89731 0.0
H4192 H 0.1909 0.18389 0.87409 0.0
H4193 H 0.14905 0.21183 0.92983 0.0
C4194 C 0.17154 0.23101 0.93386 0.0
C4195 C 0.19015 0.23716 0.92674 0.0
C4196 C 0.17576 0.18085 0.87919 0.0
C4197 C 0.17397 0.20692 0.90668 0.0
C4198 C 0.1666 0.16648 0.86904 0.0
C4199 C 0.14683 0.16237 0.87512 0.0
C4200 C 0.16515 0.19118 0.89565 0.0
C4201 C 0.1369 0.17291 0.89182 0.0
C4202 C 0.16348 0.21607 0.92397 0.0
C4203 C 0.20032 0.22759 0.90946 0.0
N4204 N 0.14613 0.18676 0.90143 0.0
N4205 N 0.1921 0.21295 0.90001 0.0
H4206 H 0.48677 0.39983 0.63016 0.0
H4207 H 0.6053 0.38625 0.63095 0.0
H4208 H 0.52413 0.44004 0.65627 0.0
H4209 H 0.57313 0.35477 0.58745 0.0
H4210 H 0.57515 0.40542 0.64055 0.0
H4211 H 0.51709 0.38274 0.61456 0.0
C4212 C 0.50128 0.40523 0.63244 0.0
C4213 C 0.50274 0.42152 0.64465 0.0
C4214 C 0.57458 0.39449 0.62873 0.0
C4215 C 0.53767 0.40171 0.62696 0.0
C4216 C 0.59187 0.38346 0.62321 0.0
C4217 C 0.59184 0.36885 0.6083 0.0
C4218 C 0.55668 0.39082 0.61967 0.0
C4219 C 0.5739 0.36596 0.59888 0.0
C4220 C 0.51861 0.39542 0.62347 0.0
C4221 C 0.52208 0.42767 0.64699 0.0
N4222 N 0.55694 0.37669 0.60493 0.0
N4223 N 0.53865 0.41771 0.63848 0.0
H4224 H 0.08384 0.47788 0.13093 0.0
H4225 H 0.19816 0.44349 0.13994 0.0
H4226 H 0.10324 0.43981 0.17241 0.0
H4227 H 0.18091 0.48046 0.09646 0.0
H4228 H 0.16332 0.44442 0.1541 0.0
H4229 H 0.11941 0.48182 0.12006 0.0
C4230 C 0.09558 0.47057 0.13786 0.0
C4231 C 0.09078 0.45826 0.15221 0.0
C4232 C 0.1671 0.45235 0.14142 0.0
C4233 C 0.13098 0.46261 0.14013 0.0
C4234 C 0.18698 0.45176 0.13334 0.0
C4235 C 0.19224 0.46164 0.11678 0.0
C4236 C 0.15241 0.4629 0.13283 0.0
C4237 C 0.1773 0.47235 0.10894 0.0
C4238 C 0.11579 0.47272 0.13166 0.0
C4239 C 0.10639 0.44912 0.16091 0.0
N4240 N 0.15799 0.47264 0.11694 0.0
N4241 N 0.12573 0.4514 0.15466 0.0
H4242 H 0.40301 0.41197 0.89617 0.0
H4243 H 0.36696 0.32896 0.9539 0.0
H4244 H 0.34393 0.40838 0.92606 0.0
H4245 H 0.42848 0.33852 0.93493 0.0
H4246 H 0.35582 0.35218 0.93242 0.0
H4247 H 0.40941 0.37969 0.89873 0.0
C4248 C 0.39125 0.4043 0.90291 0.0
C4249 C 0.3732 0.41289 0.91158 0.0
C4250 C 0.37174 0.34883 0.93259 0.0
C4251 C 0.38044 0.37615 0.91472 0.0
C4252 C 0.37811 0.33567 0.94493 0.0
C4253 C 0.39869 0.33224 0.94679 0.0
C4254 C 0.38608 0.35861 0.92216 0.0
C4255 C 0.41246 0.34083 0.93423 0.0
C4256 C 0.3949 0.3859 0.90438 0.0
C4257 C 0.35835 0.40233 0.91991 0.0
N4258 N 0.40591 0.3539 0.92278 0.0
N4259 N 0.36244 0.38453 0.92163 0.0
H4260 H 0.42821 0.67517 0.78959 0.0
H4261 H 0.39746 0.67262 0.67414 0.0
H4262 H 0.45287 0.71026 0.74619 0.0
H4263 H 0.37524 0.63739 0.71861 0.0
H4264 H 0.41742 0.68721 0.7 0.0
H4265 H 0.40736 0.66252 0.76382 0.0
C4266 C 0.42898 0.68044 0.7747 0.0
C4267 C 0.44227 0.69381 0.77004 0.0
C4268 C 0.40821 0.67626 0.70405 0.0
C4269 C 0.41867 0.67906 0.74019 0.0
C4270 C 0.39683 0.66792 0.68931 0.0
C4271 C 0.38463 0.65376 0.69423 0.0
C4272 C 0.40727 0.67045 0.72385 0.0
C4273 C 0.38458 0.64808 0.71403 0.0
C4274 C 0.41716 0.6731 0.75991 0.0
C4275 C 0.44267 0.70009 0.75048 0.0
N4276 N 0.39562 0.65649 0.72809 0.0
N4277 N 0.43116 0.69253 0.73616 0.0
H4278 H 0.09763 0.61366 0.45881 0.0
H4279 H 0.17678 0.58133 0.36263 0.0
H4280 H 0.16085 0.62255 0.45873 0.0
H4281 H 0.11339 0.58949 0.35649 0.0
H4282 H 0.17124 0.59227 0.39901 0.0
H4283 H 0.10302 0.60082 0.42299 0.0
C4284 C 0.11269 0.61273 0.45144 0.0
C4285 C 0.12877 0.61925 0.46214 0.0
C4286 C 0.15849 0.5916 0.38977 0.0
C4287 C 0.13513 0.60434 0.42067 0.0
C4288 C 0.16164 0.58523 0.36891 0.0
C4289 C 0.14554 0.5844 0.35621 0.0
C4290 C 0.13901 0.597 0.3984 0.0
C4291 C 0.12631 0.58984 0.3655 0.0
C4292 C 0.11575 0.60548 0.43084 0.0
C4293 C 0.1479 0.61777 0.45136 0.0
N4294 N 0.1236 0.59578 0.38585 0.0
N4295 N 0.15052 0.61048 0.43148 0.0
H4296 H 0.03318 0.7037 0.18111 0.0
H4297 H 0.12078 0.62942 0.19252 0.0
H4298 H 0.05313 0.66236 0.13317 0.0
H4299 H 0.09017 0.66225 0.24347 0.0
H4300 H 0.09817 0.64289 0.16966 0.0
H4301 H 0.05653 0.69053 0.20331 0.0
C4302 C 0.04262 0.69197 0.17519 0.0
C4303 C 0.04125 0.68412 0.1553 0.0
C4304 C 0.09643 0.64712 0.18585 0.0
C4305 C 0.0679 0.66895 0.18059 0.0
C4306 C 0.10925 0.63939 0.1989 0.0
C4307 C 0.10741 0.64481 0.2199 0.0
C4308 C 0.08172 0.66037 0.19388 0.0
C4309 C 0.09236 0.65793 0.22733 0.0
C4310 C 0.05585 0.68438 0.18791 0.0
C4311 C 0.05369 0.6688 0.14846 0.0
N4312 N 0.08012 0.66529 0.21432 0.0
N4313 N 0.06654 0.66171 0.16111 0.0
H4314 H 0.22192 0.35535 0.95736 0.0
H4315 H 0.24128 0.40857 0.06367 0.0
H4316 H 0.21298 0.33272 0.01541 0.0
H4317 H 0.21825 0.43741 0.01535 0.0
H4318 H 0.23716 0.38009 0.04361 0.0
H4319 H 0.22642 0.38502 0.97581 0.0
C4320 C 0.22099 0.35656 0.97391 0.0
C4321 C 0.21698 0.34146 0.98481 0.0
C4322 C 0.23302 0.39264 0.03735 0.0
C4323 C 0.22244 0.37521 1.00592 0.0
C4324 C 0.23544 0.40896 0.04878 0.0
C4325 C 0.23003 0.42551 0.04129 0.0
C4326 C 0.22551 0.39267 0.01797 0.0
C4327 C 0.22248 0.425 0.02183 0.0
C4328 C 0.22345 0.3735 0.98441 0.0
C4329 C 0.21588 0.34392 1.00629 0.0
N4330 N 0.22056 0.40886 0.01077 0.0
N4331 N 0.21875 0.36032 0.01604 0.0
H4332 H 0.3474 0.45724 0.82818 0.0
H4333 H 0.41233 0.49117 0.73482 0.0
H4334 H 0.34687 0.5134 0.81682 0.0
H4335 H 0.39343 0.43651 0.73488 0.0
H4336 H 0.38888 0.49975 0.76476 0.0
H4337 H 0.36406 0.44933 0.79403 0.0
C4338 C 0.35031 0.46786 0.81819 0.0
C4339 C 0.3454 0.48594 0.82509 0.0
C4340 C 0.38971 0.48593 0.75808 0.0
C4341 C 0.36538 0.47711 0.78633 0.0
C4342 C 0.40317 0.48098 0.74102 0.0
C4343 C 0.405 0.46303 0.7323 0.0
C4344 C 0.37819 0.47279 0.76682 0.0
C4345 C 0.3926 0.45049 0.74101 0.0
C4346 C 0.35994 0.46336 0.79875 0.0
C4347 C 0.35001 0.49926 0.81183 0.0
N4348 N 0.37997 0.45554 0.75789 0.0
N4349 N 0.36003 0.49461 0.7932 0.0
H4350 H 0.35082 0.62063 0.45223 0.0
H4351 H 0.31025 0.61655 0.54967 0.0
H4352 H 0.40495 0.60572 0.48015 0.0
H4353 H 0.35433 0.5735 0.55545 0.0
H4354 H 0.32312 0.61813 0.51427 0.0
H4355 H 0.33108 0.60752 0.4796 0.0
C4356 C 0.35857 0.61416 0.4638 0.0
C4357 C 0.37947 0.61463 0.46432 0.0
C4358 C 0.32959 0.60794 0.52302 0.0
C4359 C 0.35711 0.60008 0.49565 0.0
C4360 C 0.32243 0.60722 0.5433 0.0
C4361 C 0.33148 0.59506 0.55542 0.0
C4362 C 0.34613 0.59661 0.515 0.0
C4363 C 0.3471 0.58315 0.54653 0.0
C4364 C 0.3473 0.60689 0.47951 0.0
C4365 C 0.3888 0.60598 0.47954 0.0
N4366 N 0.35431 0.58453 0.52692 0.0
N4367 N 0.37751 0.59926 0.49482 0.0
H4368 H 0.22827 0.13966 0.39185 0.0
H4369 H 0.1317 0.19967 0.43082 0.0
H4370 H 0.18079 0.11895 0.42966 0.0
H4371 H 0.18925 0.22324 0.42351 0.0
H4372 H 0.14853 0.16971 0.4279 0.0
H4373 H 0.21352 0.17031 0.40052 0.0
C4374 C 0.21474 0.14165 0.40202 0.0
C4375 C 0.20554 0.1269 0.40995 0.0
C4376 C 0.15749 0.18144 0.42713 0.0
C4377 C 0.18865 0.16165 0.41976 0.0
C4378 C 0.14791 0.19852 0.42874 0.0
C4379 C 0.15915 0.21389 0.42739 0.0
C4380 C 0.17841 0.17969 0.42357 0.0
C4381 C 0.18009 0.21167 0.42454 0.0
C4382 C 0.20645 0.15907 0.40706 0.0
C4383 C 0.18821 0.13006 0.42324 0.0
N4384 N 0.1891 0.1948 0.42243 0.0
N4385 N 0.18011 0.14714 0.42753 0.0
H4386 H 0.76255 0.3519 0.60393 0.0
H4387 H 0.82198 0.37408 0.69792 0.0
H4388 H 0.73989 0.39024 0.65391 0.0
H4389 H 0.85507 0.36827 0.63866 0.0
H4390 H 0.79087 0.37496 0.68114 0.0
H4391 H 0.79664 0.35598 0.61405 0.0
C4392 C 0.76482 0.36169 0.61655 0.0
C4393 C 0.74845 0.37026 0.62865 0.0
C4394 C 0.80498 0.37339 0.67184 0.0
C4395 C 0.78689 0.37438 0.6405 0.0
C4396 C 0.82275 0.37247 0.68138 0.0
C4397 C 0.84118 0.37144 0.66966 0.0
C4398 C 0.80562 0.37276 0.65049 0.0
C4399 C 0.84115 0.36925 0.64825 0.0
C4400 C 0.78422 0.36386 0.62239 0.0
C4401 C 0.75215 0.38289 0.64471 0.0
N4402 N 0.82353 0.3701 0.63925 0.0
N4403 N 0.77102 0.38418 0.65061 0.0
H4404 H 0.42822 0.86206 0.37871 0.0
H4405 H 0.34321 0.92038 0.44574 0.0
H4406 H 0.41822 0.8644 0.44441 0.0
H4407 H 0.36607 0.93043 0.385 0.0
H4408 H 0.3593 0.89002 0.4407 0.0
H4409 H 0.39501 0.87676 0.37713 0.0
C4410 C 0.41886 0.86534 0.39277 0.0
C4411 C 0.42623 0.86272 0.4118 0.0
C4412 C 0.36025 0.89868 0.42825 0.0
C4413 C 0.38835 0.87923 0.41004 0.0
C4414 C 0.35106 0.91596 0.43109 0.0
C4415 C 0.35401 0.92801 0.416 0.0
C4416 C 0.37249 0.89364 0.41028 0.0
C4417 C 0.3641 0.92165 0.39724 0.0
C4418 C 0.39988 0.87356 0.39182 0.0
C4419 C 0.41326 0.86651 0.42945 0.0
N4420 N 0.3734 0.90497 0.39505 0.0
N4421 N 0.39507 0.875 0.42819 0.0
H4422 H 0.75488 0.56354 0.17809 0.0
H4423 H 0.72323 0.64864 0.11801 0.0
H4424 H 0.71523 0.56258 0.12901 0.0
H4425 H 0.76706 0.65168 0.16303 0.0
H4426 H 0.71985 0.61694 0.12315 0.0
H4427 H 0.75958 0.59572 0.17397 0.0
C4428 C 0.7472 0.57003 0.1665 0.0
C4429 C 0.73457 0.56032 0.15398 0.0
C4430 C 0.7302 0.62447 0.13201 0.0
C4431 C 0.73985 0.59691 0.14921 0.0
C4432 C 0.732 0.64265 0.12917 0.0
C4433 C 0.74528 0.65287 0.14027 0.0
C4434 C 0.74172 0.6163 0.1461 0.0
C4435 C 0.75666 0.64425 0.15415 0.0
C4436 C 0.74989 0.58836 0.16415 0.0
C4437 C 0.72504 0.56941 0.13915 0.0
N4438 N 0.75458 0.62643 0.15675 0.0
N4439 N 0.72786 0.5871 0.13725 0.0
H4440 H 0.59815 0.5037 0.40335 0.0
H4441 H 0.71184 0.4694 0.388 0.0
H4442 H 0.63214 0.49798 0.34499 0.0
H4443 H 0.67504 0.46059 0.44231 0.0
H4444 H 0.6821 0.48036 0.37245 0.0
H4445 H 0.62397 0.48517 0.41741 0.0
C4446 C 0.61047 0.49755 0.39315 0.0
C4447 C 0.61323 0.50249 0.37309 0.0
C4448 C 0.68047 0.47624 0.38786 0.0
C4449 C 0.64329 0.48234 0.38926 0.0
C4450 C 0.6975 0.47042 0.39689 0.0
C4451 C 0.69582 0.4646 0.4166 0.0
C4452 C 0.66158 0.4762 0.39863 0.0
C4453 C 0.67691 0.46555 0.42731 0.0
C4454 C 0.62548 0.48738 0.40133 0.0
C4455 C 0.62953 0.49447 0.36058 0.0
N4456 N 0.66042 0.47123 0.41816 0.0
N4457 N 0.64439 0.4853 0.36905 0.0
H4458 H 0.37438 0.87987 0.90578 0.0
H4459 H 0.26069 0.9077 0.93499 0.0
H4460 H 0.34694 0.87135 0.96515 0.0
H4461 H 0.28173 0.88945 0.87297 0.0
H4462 H 0.29217 0.89568 0.94671 0.0
H4463 H 0.34095 0.88466 0.89347 0.0
C4464 C 0.36123 0.8788 0.91615 0.0
C4465 C 0.36328 0.87509 0.93645 0.0
C4466 C 0.2898 0.89411 0.93057 0.0
C4467 C 0.32507 0.88101 0.92267 0.0
C4468 C 0.27189 0.90104 0.92384 0.0
C4469 C 0.26867 0.89971 0.90293 0.0
C4470 C 0.30486 0.88619 0.91625 0.0
C4471 C 0.28362 0.8908 0.88921 0.0
C4472 C 0.34219 0.88146 0.90911 0.0
C4473 C 0.34585 0.87389 0.94931 0.0
N4474 N 0.30122 0.88466 0.89606 0.0
N4475 N 0.32743 0.87716 0.94232 0.0
H4476 H 0.40984 0.94408 0.24224 0.0
H4477 H 0.48192 0.02592 0.25547 0.0
H4478 H 0.42709 0.97595 0.1925 0.0
H4479 H 0.43526 0.01488 0.30077 0.0
H4480 H 0.47213 1.00014 0.23326 0.0
H4481 H 0.43042 0.96221 0.26436 0.0
C4482 C 0.41848 0.95447 0.23573 0.0
C4483 C 0.41646 0.95874 0.21556 0.0
C4484 C 0.46436 0.0032 0.24824 0.0
C4485 C 0.43998 0.97938 0.24082 0.0
C4486 C 0.46991 0.01782 0.2609 0.0
C4487 C 0.45917 0.02255 0.27982 0.0
C4488 C 0.44836 0.99305 0.25485 0.0
C4489 C 0.44373 0.01172 0.28617 0.0
C4490 C 0.43007 0.96487 0.24845 0.0
C4491 C 0.42802 0.97238 0.20803 0.0
N4492 N 0.43873 0.99745 0.27367 0.0
N4493 N 0.43913 0.9824 0.22076 0.0
H4494 H 0.15419 0.96903 0.61837 0.0
H4495 H 0.14647 0.87215 0.65129 0.0
H4496 H 0.20504 0.94399 0.64401 0.0
H4497 H 0.0963 0.9111 0.66216 0.0
H4498 H 0.16908 0.89699 0.64766 0.0
H4499 H 0.13293 0.94634 0.63202 0.0
C4500 C 0.16088 0.95863 0.62671 0.0
C4501 C 0.18137 0.95812 0.62985 0.0
C4502 C 0.15317 0.90005 0.65134 0.0
C4503 C 0.15726 0.93237 0.64554 0.0
C4504 C 0.14035 0.88597 0.65335 0.0
C4505 C 0.11961 0.88973 0.65677 0.0
C4506 C 0.14498 0.9178 0.65219 0.0
C4507 C 0.11225 0.90774 0.65946 0.0
C4508 C 0.14873 0.94589 0.63474 0.0
C4509 C 0.18928 0.94465 0.64115 0.0
N4510 N 0.12491 0.92116 0.65663 0.0
N4511 N 0.17722 0.93205 0.64838 0.0
loop_
_geom_bond_atom_site_label_1
_geom_bond_atom_site_label_2
_geom_bond_distance
_geom_bond_site_symmetry_2
_ccdc_geom_bond_type
Nd0 C2 2.836 . S
Nd0 O20 2.500 . S
Nd0 O21 2.492 . S
Nd0 O22 2.487 . S
Nd0 O23 2.682 . S
Nd0 O24 2.410 . S
Nd0 O29 2.414 . S
Nd0 O31 2.424 . S
Nd1 C11 2.836 . S
Nd1 O23 2.414 . S
Nd1 O25 2.424 . S
Nd1 O26 2.500 . S
Nd1 O27 2.492 . S
Nd1 O28 2.487 . S
Nd1 O29 2.682 . S
Nd1 O30 2.410 . S
C2 Nd0 2.836 . S
C2 C3 1.498 . S
C2 O20 1.258 . S
C2 O21 1.239 . S
C3 C2 1.498 . S
C3 C4 1.366 . S
C3 C8 1.407 . S
C4 C3 1.366 . S
C4 C5 1.392 . S
C4 H32 0.930 . S
C5 C4 1.392 . S
C5 C6 1.398 . S
C5 H33 0.929 . S
C6 C5 1.398 . S
C6 C7 1.352 . S
C7 C6 1.352 . S
C7 C8 1.384 . S
C7 H34 0.930 . S
C8 C3 1.407 . S
C8 C7 1.384 . S
C8 H35 0.929 . S
C9 O22 1.241 . S
C9 O23 1.273 . S
C10 O24 1.251 . S
C10 O25 1.268 . S
C11 Nd1 2.836 . S
C11 C12 1.498 . S
C11 O26 1.258 . S
C11 O27 1.239 . S
C12 C11 1.498 . S
C12 C13 1.366 . S
C12 C17 1.407 . S
C13 C12 1.366 . S
C13 C14 1.392 . S
C13 H36 0.930 . S
C14 C13 1.392 . S
C14 C15 1.398 . S
C14 H37 0.929 . S
C15 C14 1.398 . S
C15 C16 1.352 . S
C16 C15 1.352 . S
C16 C17 1.384 . S
C16 H38 0.930 1_455 S
C17 C12 1.407 . S
C17 C16 1.384 . S
C17 H39 0.929 1_455 S
C18 O28 1.241 . S
C18 O29 1.273 . S
C19 O30 1.251 . S
C19 O31 1.268 . S
O20 Nd0 2.500 . S
O20 C2 1.258 . S
O21 Nd0 2.492 . S
O21 C2 1.239 . S
O22 Nd0 2.487 . S
O22 C9 1.241 . S
O23 Nd0 2.682 . S
O23 Nd1 2.414 . S
O23 C9 1.273 . S
O24 Nd0 2.410 . S
O24 C10 1.251 . S
O25 Nd1 2.424 . S
O25 C10 1.268 . S
O26 Nd1 2.500 . S
O26 C11 1.258 . S
O27 Nd1 2.492 . S
O27 C11 1.239 . S
O28 Nd1 2.487 . S
O28 C18 1.241 . S
O29 Nd0 2.414 . S
O29 Nd1 2.682 . S
O29 C18 1.273 . S
O30 Nd1 2.410 . S
O30 C19 1.251 . S
O31 Nd0 2.424 . S
O31 C19 1.268 . S
H32 C4 0.930 . S
H33 C5 0.929 . S
H34 C7 0.930 . S
H35 C8 0.929 . S
H36 C13 0.930 . S
H37 C14 0.929 . S
H38 C16 0.930 1_655 S
H39 C17 0.929 1_655 S
Nd40 C42 2.836 . S
Nd40 O60 2.500 . S
Nd40 O61 2.492 . S
Nd40 O62 2.487 . S
Nd40 O63 2.682 . S
Nd40 O64 2.410 . S
Nd40 O69 2.414 . S
Nd40 O71 2.424 . S
Nd41 C51 2.836 . S
Nd41 O63 2.414 . S
Nd41 O65 2.424 . S
Nd41 O66 2.500 . S
Nd41 O67 2.492 . S
Nd41 O68 2.487 . S
Nd41 O69 2.682 . S
Nd41 O70 2.410 . S
C42 Nd40 2.836 . S
C42 C43 1.498 . S
C42 O60 1.258 . S
C42 O61 1.239 . S
C43 C42 1.498 . S
C43 C44 1.366 . S
C43 C48 1.407 . S
C44 C43 1.366 . S
C44 C45 1.392 . S
C44 H72 0.930 . S
C45 C44 1.392 . S
C45 C46 1.398 . S
C45 H73 0.929 . S
C46 C45 1.398 . S
C46 C47 1.352 . S
C47 C46 1.352 . S
C47 C48 1.384 . S
C47 H74 0.930 . S
C48 C43 1.407 . S
C48 C47 1.384 . S
C48 H75 0.929 . S
C49 O62 1.241 . S
C49 O63 1.273 . S
C50 O64 1.251 . S
C50 O65 1.268 . S
C51 Nd41 2.836 . S
C51 C52 1.498 . S
C51 O66 1.258 . S
C51 O67 1.239 . S
C52 C51 1.498 . S
C52 C53 1.366 . S
C52 C57 1.407 . S
C53 C52 1.366 . S
C53 C54 1.392 . S
C53 H76 0.930 . S
C54 C53 1.392 . S
C54 C55 1.398 . S
C54 H77 0.929 . S
C55 C54 1.398 . S
C55 C56 1.352 . S
C56 C55 1.352 . S
C56 C57 1.384 . S
C56 H78 0.930 . S
C57 C52 1.407 . S
C57 C56 1.384 . S
C57 H79 0.929 . S
C58 O68 1.241 . S
C58 O69 1.273 . S
C59 O70 1.251 . S
C59 O71 1.268 . S
O60 Nd40 2.500 . S
O60 C42 1.258 . S
O61 Nd40 2.492 . S
O61 C42 1.239 . S
O62 Nd40 2.487 . S
O62 C49 1.241 . S
O63 Nd40 2.682 . S
O63 Nd41 2.414 . S
O63 C49 1.273 . S
O64 Nd40 2.410 . S
O64 C50 1.251 . S
O65 Nd41 2.424 . S
O65 C50 1.268 . S
O66 Nd41 2.500 . S
O66 C51 1.258 . S
O67 Nd41 2.492 . S
O67 C51 1.239 . S
O68 Nd41 2.487 . S
O68 C58 1.241 . S
O69 Nd40 2.414 . S
O69 Nd41 2.682 . S
O69 C58 1.273 . S
O70 Nd41 2.410 . S
O70 C59 1.251 . S
O71 Nd40 2.424 . S
O71 C59 1.268 . S
H72 C44 0.930 . S
H73 C45 0.929 . S
H74 C47 0.930 . S
H75 C48 0.929 . S
H76 C53 0.930 . S
H77 C54 0.929 . S
H78 C56 0.930 . S
H79 C57 0.929 . S
Nd80 C82 2.836 . S
Nd80 O100 2.500 . S
Nd80 O101 2.492 . S
Nd80 O102 2.487 . S
Nd80 O103 2.682 . S
Nd80 O104 2.410 . S
Nd80 O109 2.414 . S
Nd80 O111 2.424 . S
Nd81 C91 2.836 . S
Nd81 O103 2.414 . S
Nd81 O105 2.424 . S
Nd81 O106 2.500 . S
Nd81 O107 2.492 . S
Nd81 O108 2.487 . S
Nd81 O109 2.682 . S
Nd81 O110 2.410 . S
C82 Nd80 2.836 . S
C82 C83 1.498 . S
C82 O100 1.258 . S
C82 O101 1.239 . S
C83 C82 1.498 . S
C83 C84 1.366 . S
C83 C88 1.407 . S
C84 C83 1.366 . S
C84 C85 1.392 . S
C84 H112 0.930 . S
C85 C84 1.392 . S
C85 C86 1.398 . S
C85 H113 0.929 . S
C86 C85 1.398 . S
C86 C87 1.352 . S
C87 C86 1.352 . S
C87 C88 1.384 . S
C87 H114 0.930 . S
C88 C83 1.407 . S
C88 C87 1.384 . S
C88 H115 0.929 . S
C89 O102 1.241 . S
C89 O103 1.273 . S
C90 O104 1.251 . S
C90 O105 1.268 . S
C91 Nd81 2.836 . S
C91 C92 1.498 . S
C91 O106 1.258 . S
C91 O107 1.239 . S
C92 C91 1.498 . S
C92 C93 1.366 . S
C92 C97 1.407 . S
C93 C92 1.366 . S
C93 C94 1.392 . S
C93 H116 0.930 . S
C94 C93 1.392 . S
C94 C95 1.398 . S
C94 H117 0.929 . S
C95 C94 1.398 . S
C95 C96 1.352 . S
C96 C95 1.352 . S
C96 C97 1.384 . S
C96 H118 0.930 . S
C97 C92 1.407 . S
C97 C96 1.384 . S
C97 H119 0.929 . S
C98 O108 1.241 . S
C98 O109 1.273 . S
C99 O110 1.251 . S
C99 O111 1.268 . S
O100 Nd80 2.500 . S
O100 C82 1.258 . S
O101 Nd80 2.492 . S
O101 C82 1.239 . S
O102 Nd80 2.487 . S
O102 C89 1.241 . S
O103 Nd80 2.682 . S
O103 Nd81 2.414 . S
O103 C89 1.273 . S
O104 Nd80 2.410 . S
O104 C90 1.251 . S
O105 Nd81 2.424 . S
O105 C90 1.268 . S
O106 Nd81 2.500 . S
O106 C91 1.258 . S
O107 Nd81 2.492 . S
O107 C91 1.239 . S
O108 Nd81 2.487 . S
O108 C98 1.241 . S
O109 Nd80 2.414 . S
O109 Nd81 2.682 . S
O109 C98 1.273 . S
O110 Nd81 2.410 . S
O110 C99 1.251 . S
O111 Nd80 2.424 . S
O111 C99 1.268 . S
H112 C84 0.930 . S
H113 C85 0.929 . S
H114 C87 0.930 . S
H115 C88 0.929 . S
H116 C93 0.930 . S
H117 C94 0.929 . S
H118 C96 0.930 . S
H119 C97 0.929 . S
Nd120 C122 2.836 . S
Nd120 O140 2.500 . S
Nd120 O141 2.492 . S
Nd120 O142 2.487 . S
Nd120 O143 2.682 . S
Nd120 O144 2.410 . S
Nd120 O149 2.414 . S
Nd120 O151 2.424 . S
Nd121 C131 2.836 . S
Nd121 O143 2.414 . S
Nd121 O145 2.424 . S
Nd121 O146 2.500 . S
Nd121 O147 2.492 . S
Nd121 O148 2.487 . S
Nd121 O149 2.682 . S
Nd121 O150 2.410 . S
C122 Nd120 2.836 . S
C122 C123 1.498 . S
C122 O140 1.258 . S
C122 O141 1.239 . S
C123 C122 1.498 . S
C123 C124 1.366 . S
C123 C128 1.407 . S
C124 C123 1.366 . S
C124 C125 1.392 . S
C124 H152 0.930 . S
C125 C124 1.392 . S
C125 C126 1.398 . S
C125 H153 0.929 . S
C126 C125 1.398 . S
C126 C127 1.352 . S
C127 C126 1.352 . S
C127 C128 1.384 . S
C127 H154 0.930 . S
C128 C123 1.407 . S
C128 C127 1.384 . S
C128 H155 0.929 . S
C129 O142 1.241 . S
C129 O143 1.273 . S
C130 O144 1.251 . S
C130 O145 1.268 . S
C131 Nd121 2.836 . S
C131 C132 1.498 1_554 S
C131 O146 1.258 . S
C131 O147 1.239 . S
C132 C131 1.498 1_556 S
C132 C133 1.366 . S
C132 C137 1.407 . S
C133 C132 1.366 . S
C133 C134 1.392 . S
C133 H156 0.930 . S
C134 C133 1.392 . S
C134 C135 1.398 . S
C134 H157 0.929 . S
C135 C134 1.398 . S
C135 C136 1.352 . S
C136 C135 1.352 . S
C136 C137 1.384 . S
C136 H158 0.930 . S
C137 C132 1.407 . S
C137 C136 1.384 . S
C137 H159 0.929 . S
C138 O148 1.241 . S
C138 O149 1.273 . S
C139 O150 1.251 . S
C139 O151 1.268 . S
O140 Nd120 2.500 . S
O140 C122 1.258 . S
O141 Nd120 2.492 . S
O141 C122 1.239 . S
O142 Nd120 2.487 . S
O142 C129 1.241 . S
O143 Nd120 2.682 . S
O143 Nd121 2.414 . S
O143 C129 1.273 . S
O144 Nd120 2.410 . S
O144 C130 1.251 . S
O145 Nd121 2.424 . S
O145 C130 1.268 . S
O146 Nd121 2.500 . S
O146 C131 1.258 . S
O147 Nd121 2.492 . S
O147 C131 1.239 . S
O148 Nd121 2.487 . S
O148 C138 1.241 . S
O149 Nd120 2.414 . S
O149 Nd121 2.682 . S
O149 C138 1.273 . S
O150 Nd121 2.410 . S
O150 C139 1.251 . S
O151 Nd120 2.424 . S
O151 C139 1.268 . S
H152 C124 0.930 . S
H153 C125 0.929 . S
H154 C127 0.930 . S
H155 C128 0.929 . S
H156 C133 0.930 . S
H157 C134 0.929 . S
H158 C136 0.930 . S
H159 C137 0.929 . S
Nd160 C162 2.836 . S
Nd160 O180 2.500 . S
Nd160 O181 2.492 . S
Nd160 O182 2.487 . S
Nd160 O183 2.682 . S
Nd160 O184 2.410 . S
Nd160 O189 2.414 1_455 S
Nd160 O191 2.424 1_455 S
Nd161 C171 2.836 . S
Nd161 O183 2.414 1_655 S
Nd161 O185 2.424 1_655 S
Nd161 O186 2.500 . S
Nd161 O187 2.492 . S
Nd161 O188 2.487 . S
Nd161 O189 2.682 . S
Nd161 O190 2.410 . S
C162 Nd160 2.836 . S
C162 C163 1.498 . S
C162 O180 1.258 . S
C162 O181 1.239 . S
C163 C162 1.498 . S
C163 C164 1.366 . S
C163 C168 1.407 . S
C164 C163 1.366 . S
C164 C165 1.392 . S
C164 H192 0.930 . S
C165 C164 1.392 . S
C165 C166 1.398 . S
C165 H193 0.929 . S
C166 C165 1.398 . S
C166 C167 1.352 . S
C167 C166 1.352 . S
C167 C168 1.384 . S
C167 H194 0.930 . S
C168 C163 1.407 . S
C168 C167 1.384 . S
C168 H195 0.929 . S
C169 O182 1.241 . S
C169 O183 1.273 . S
C170 O184 1.251 . S
C170 O185 1.268 . S
C171 Nd161 2.836 . S
C171 C172 1.498 . S
C171 O186 1.258 . S
C171 O187 1.239 . S
C172 C171 1.498 . S
C172 C173 1.366 . S
C172 C177 1.407 . S
C173 C172 1.366 . S
C173 C174 1.392 . S
C173 H196 0.930 . S
C174 C173 1.392 . S
C174 C175 1.398 . S
C174 H197 0.929 . S
C175 C174 1.398 . S
C175 C176 1.352 . S
C176 C175 1.352 . S
C176 C177 1.384 . S
C176 H198 0.930 . S
C177 C172 1.407 . S
C177 C176 1.384 . S
C177 H199 0.929 . S
C178 O188 1.241 . S
C178 O189 1.273 . S
C179 O190 1.251 . S
C179 O191 1.268 . S
O180 Nd160 2.500 . S
O180 C162 1.258 . S
O181 Nd160 2.492 . S
O181 C162 1.239 . S
O182 Nd160 2.487 . S
O182 C169 1.241 . S
O183 Nd160 2.682 . S
O183 Nd161 2.414 1_455 S
O183 C169 1.273 . S
O184 Nd160 2.410 . S
O184 C170 1.251 . S
O185 Nd161 2.424 1_455 S
O185 C170 1.268 . S
O186 Nd161 2.500 . S
O186 C171 1.258 . S
O187 Nd161 2.492 . S
O187 C171 1.239 . S
O188 Nd161 2.487 . S
O188 C178 1.241 . S
O189 Nd160 2.414 1_655 S
O189 Nd161 2.682 . S
O189 C178 1.273 . S
O190 Nd161 2.410 . S
O190 C179 1.251 . S
O191 Nd160 2.424 1_655 S
O191 C179 1.268 . S
H192 C164 0.930 . S
H193 C165 0.929 . S
H194 C167 0.930 . S
H195 C168 0.929 . S
H196 C173 0.930 . S
H197 C174 0.929 . S
H198 C176 0.930 . S
H199 C177 0.929 . S
Nd200 C202 2.836 . S
Nd200 O220 2.500 . S
Nd200 O221 2.492 . S
Nd200 O222 2.487 . S
Nd200 O223 2.682 . S
Nd200 O224 2.410 . S
Nd200 O229 2.414 . S
Nd200 O231 2.424 . S
Nd201 C211 2.836 . S
Nd201 O223 2.414 . S
Nd201 O225 2.424 . S
Nd201 O226 2.500 . S
Nd201 O227 2.492 . S
Nd201 O228 2.487 . S
Nd201 O229 2.682 . S
Nd201 O230 2.410 . S
C202 Nd200 2.836 . S
C202 C203 1.498 . S
C202 O220 1.258 . S
C202 O221 1.239 . S
C203 C202 1.498 . S
C203 C204 1.366 . S
C203 C208 1.407 . S
C204 C203 1.366 . S
C204 C205 1.392 . S
C204 H232 0.930 . S
C205 C204 1.392 . S
C205 C206 1.398 . S
C205 H233 0.929 . S
C206 C205 1.398 . S
C206 C207 1.352 . S
C207 C206 1.352 . S
C207 C208 1.384 . S
C207 H234 0.930 . S
C208 C203 1.407 . S
C208 C207 1.384 . S
C208 H235 0.929 . S
C209 O222 1.241 . S
C209 O223 1.273 . S
C210 O224 1.251 . S
C210 O225 1.268 . S
C211 Nd201 2.836 . S
C211 C212 1.498 . S
C211 O226 1.258 . S
C211 O227 1.239 . S
C212 C211 1.498 . S
C212 C213 1.366 . S
C212 C217 1.407 . S
C213 C212 1.366 . S
C213 C214 1.392 . S
C213 H236 0.930 . S
C214 C213 1.392 . S
C214 C215 1.398 . S
C214 H237 0.929 . S
C215 C214 1.398 . S
C215 C216 1.352 . S
C216 C215 1.352 . S
C216 C217 1.384 . S
C216 H238 0.930 . S
C217 C212 1.407 . S
C217 C216 1.384 . S
C217 H239 0.929 . S
C218 O228 1.241 . S
C218 O229 1.273 . S
C219 O230 1.251 . S
C219 O231 1.268 . S
O220 Nd200 2.500 . S
O220 C202 1.258 . S
O221 Nd200 2.492 . S
O221 C202 1.239 . S
O222 Nd200 2.487 . S
O222 C209 1.241 . S
O223 Nd200 2.682 . S
O223 Nd201 2.414 . S
O223 C209 1.273 . S
O224 Nd200 2.410 . S
O224 C210 1.251 . S
O225 Nd201 2.424 . S
O225 C210 1.268 . S
O226 Nd201 2.500 . S
O226 C211 1.258 . S
O227 Nd201 2.492 . S
O227 C211 1.239 . S
O228 Nd201 2.487 . S
O228 C218 1.241 . S
O229 Nd200 2.414 . S
O229 Nd201 2.682 . S
O229 C218 1.273 . S
O230 Nd201 2.410 . S
O230 C219 1.251 . S
O231 Nd200 2.424 . S
O231 C219 1.268 . S
H232 C204 0.930 . S
H233 C205 0.929 . S
H234 C207 0.930 . S
H235 C208 0.929 . S
H236 C213 0.930 . S
H237 C214 0.929 . S
H238 C216 0.930 . S
H239 C217 0.929 . S
Nd240 C242 2.836 . S
Nd240 O260 2.500 . S
Nd240 O261 2.492 . S
Nd240 O262 2.487 . S
Nd240 O263 2.682 . S
Nd240 O264 2.410 . S
Nd240 O269 2.414 . S
Nd240 O271 2.424 . S
Nd241 C251 2.836 . S
Nd241 O263 2.414 . S
Nd241 O265 2.424 . S
Nd241 O266 2.500 . S
Nd241 O267 2.492 . S
Nd241 O268 2.487 . S
Nd241 O269 2.682 . S
Nd241 O270 2.410 . S
C242 Nd240 2.836 . S
C242 C243 1.498 . S
C242 O260 1.258 . S
C242 O261 1.239 . S
C243 C242 1.498 . S
C243 C244 1.366 . S
C243 C248 1.407 . S
C244 C243 1.366 . S
C244 C245 1.392 . S
C244 H272 0.930 . S
C245 C244 1.392 . S
C245 C246 1.398 . S
C245 H273 0.929 . S
C246 C245 1.398 . S
C246 C247 1.352 . S
C247 C246 1.352 . S
C247 C248 1.384 . S
C247 H274 0.930 . S
C248 C243 1.407 . S
C248 C247 1.384 . S
C248 H275 0.929 . S
C249 O262 1.241 . S
C249 O263 1.273 . S
C250 O264 1.251 . S
C250 O265 1.268 . S
C251 Nd241 2.836 . S
C251 C252 1.498 . S
C251 O266 1.258 . S
C251 O267 1.239 . S
C252 C251 1.498 . S
C252 C253 1.366 . S
C252 C257 1.407 . S
C253 C252 1.366 . S
C253 C254 1.392 . S
C253 H276 0.930 . S
C254 C253 1.392 . S
C254 C255 1.398 . S
C254 H277 0.929 . S
C255 C254 1.398 . S
C255 C256 1.352 . S
C256 C255 1.352 . S
C256 C257 1.384 . S
C256 H278 0.930 . S
C257 C252 1.407 . S
C257 C256 1.384 . S
C257 H279 0.929 . S
C258 O268 1.241 . S
C258 O269 1.273 . S
C259 O270 1.251 . S
C259 O271 1.268 . S
O260 Nd240 2.500 . S
O260 C242 1.258 . S
O261 Nd240 2.492 . S
O261 C242 1.239 . S
O262 Nd240 2.487 . S
O262 C249 1.241 . S
O263 Nd240 2.682 . S
O263 Nd241 2.414 . S
O263 C249 1.273 . S
O264 Nd240 2.410 . S
O264 C250 1.251 . S
O265 Nd241 2.424 . S
O265 C250 1.268 . S
O266 Nd241 2.500 . S
O266 C251 1.258 . S
O267 Nd241 2.492 . S
O267 C251 1.239 . S
O268 Nd241 2.487 . S
O268 C258 1.241 . S
O269 Nd240 2.414 . S
O269 Nd241 2.682 . S
O269 C258 1.273 . S
O270 Nd241 2.410 . S
O270 C259 1.251 . S
O271 Nd240 2.424 . S
O271 C259 1.268 . S
H272 C244 0.930 . S
H273 C245 0.929 . S
H274 C247 0.930 . S
H275 C248 0.929 . S
H276 C253 0.930 . S
H277 C254 0.929 . S
H278 C256 0.930 . S
H279 C257 0.929 . S
Nd280 C282 2.836 . S
Nd280 O300 2.500 . S
Nd280 O301 2.492 . S
Nd280 O302 2.487 . S
Nd280 O303 2.682 . S
Nd280 O304 2.410 . S
Nd280 O309 2.414 . S
Nd280 O311 2.424 . S
Nd281 C291 2.836 . S
Nd281 O303 2.414 . S
Nd281 O305 2.424 . S
Nd281 O306 2.500 . S
Nd281 O307 2.492 . S
Nd281 O308 2.487 . S
Nd281 O309 2.682 . S
Nd281 O310 2.410 . S
C282 Nd280 2.836 . S
C282 C283 1.498 . S
C282 O300 1.258 . S
C282 O301 1.239 . S
C283 C282 1.498 . S
C283 C284 1.366 . S
C283 C288 1.407 . S
C284 C283 1.366 . S
C284 C285 1.392 . S
C284 H312 0.930 . S
C285 C284 1.392 . S
C285 C286 1.398 . S
C285 H313 0.929 . S
C286 C285 1.398 . S
C286 C287 1.352 . S
C287 C286 1.352 . S
C287 C288 1.384 . S
C287 H314 0.930 . S
C288 C283 1.407 . S
C288 C287 1.384 . S
C288 H315 0.929 . S
C289 O302 1.241 . S
C289 O303 1.273 . S
C290 O304 1.251 . S
C290 O305 1.268 . S
C291 Nd281 2.836 . S
C291 C292 1.498 . S
C291 O306 1.258 . S
C291 O307 1.239 . S
C292 C291 1.498 . S
C292 C293 1.366 . S
C292 C297 1.407 . S
C293 C292 1.366 . S
C293 C294 1.392 . S
C293 H316 0.930 . S
C294 C293 1.392 . S
C294 C295 1.398 . S
C294 H317 0.929 . S
C295 C294 1.398 . S
C295 C296 1.352 . S
C296 C295 1.352 . S
C296 C297 1.384 . S
C296 H318 0.930 . S
C297 C292 1.407 . S
C297 C296 1.384 . S
C297 H319 0.929 . S
C298 O308 1.241 . S
C298 O309 1.273 . S
C299 O310 1.251 . S
C299 O311 1.268 . S
O300 Nd280 2.500 . S
O300 C282 1.258 . S
O301 Nd280 2.492 . S
O301 C282 1.239 . S
O302 Nd280 2.487 . S
O302 C289 1.241 . S
O303 Nd280 2.682 . S
O303 Nd281 2.414 . S
O303 C289 1.273 . S
O304 Nd280 2.410 . S
O304 C290 1.251 . S
O305 Nd281 2.424 . S
O305 C290 1.268 . S
O306 Nd281 2.500 . S
O306 C291 1.258 . S
O307 Nd281 2.492 . S
O307 C291 1.239 . S
O308 Nd281 2.487 . S
O308 C298 1.241 . S
O309 Nd280 2.414 . S
O309 Nd281 2.682 . S
O309 C298 1.273 . S
O310 Nd281 2.410 . S
O310 C299 1.251 . S
O311 Nd280 2.424 . S
O311 C299 1.268 . S
H312 C284 0.930 . S
H313 C285 0.929 . S
H314 C287 0.930 . S
H315 C288 0.929 . S
H316 C293 0.930 . S
H317 C294 0.929 . S
H318 C296 0.930 . S
H319 C297 0.929 . S
Nd320 C322 2.836 1_545 S
Nd320 O340 2.500 1_545 S
Nd320 O341 2.492 1_545 S
Nd320 O342 2.487 . S
Nd320 O343 2.682 . S
Nd320 O344 2.410 1_545 S
Nd320 O349 2.414 . S
Nd320 O351 2.424 . S
Nd321 C331 2.836 . S
Nd321 O343 2.414 . S
Nd321 O345 2.424 . S
Nd321 O346 2.500 . S
Nd321 O347 2.492 . S
Nd321 O348 2.487 . S
Nd321 O349 2.682 . S
Nd321 O350 2.410 . S
C322 Nd320 2.836 1_565 S
C322 C323 1.498 . S
C322 O340 1.258 . S
C322 O341 1.239 . S
C323 C322 1.498 . S
C323 C324 1.366 . S
C323 C328 1.407 . S
C324 C323 1.366 . S
C324 C325 1.392 . S
C324 H352 0.930 . S
C325 C324 1.392 . S
C325 C326 1.398 . S
C325 H353 0.929 . S
C326 C325 1.398 . S
C326 C327 1.352 . S
C327 C326 1.352 . S
C327 C328 1.384 . S
C327 H354 0.930 . S
C328 C323 1.407 . S
C328 C327 1.384 . S
C328 H355 0.929 . S
C329 O342 1.241 . S
C329 O343 1.273 . S
C330 O344 1.247 1_545 S
C330 O345 1.284 . S
C331 Nd321 2.836 . S
C331 C332 1.498 . S
C331 O346 1.258 . S
C331 O347 1.239 . S
C332 C331 1.498 . S
C332 C333 1.366 . S
C332 C337 1.407 . S
C333 C332 1.366 . S
C333 C334 1.392 . S
C333 H356 0.930 . S
C334 C333 1.392 . S
C334 C335 1.398 . S
C334 H357 0.929 . S
C335 C334 1.398 . S
C335 C336 1.352 . S
C336 C335 1.352 . S
C336 C337 1.384 . S
C336 H358 0.930 . S
C337 C332 1.407 . S
C337 C336 1.384 . S
C337 H359 0.929 . S
C338 O348 1.241 . S
C338 O349 1.273 . S
C339 O350 1.251 . S
C339 O351 1.268 . S
O340 Nd320 2.500 1_565 S
O340 C322 1.258 . S
O341 Nd320 2.492 1_565 S
O341 C322 1.239 . S
O342 Nd320 2.487 . S
O342 C329 1.241 . S
O343 Nd320 2.682 . S
O343 Nd321 2.414 . S
O343 C329 1.273 . S
O344 Nd320 2.410 1_565 S
O344 C330 1.247 1_565 S
O345 Nd321 2.424 . S
O345 C330 1.284 . S
O346 Nd321 2.500 . S
O346 C331 1.258 . S
O347 Nd321 2.492 . S
O347 C331 1.239 . S
O348 Nd321 2.487 . S
O348 C338 1.241 . S
O349 Nd320 2.414 . S
O349 Nd321 2.682 . S
O349 C338 1.273 . S
O350 Nd321 2.410 . S
O350 C339 1.251 . S
O351 Nd320 2.424 . S
O351 C339 1.268 . S
H352 C324 0.930 . S
H353 C325 0.929 . S
H354 C327 0.930 . S
H355 C328 0.929 . S
H356 C333 0.930 . S
H357 C334 0.929 . S
H358 C336 0.930 . S
H359 C337 0.929 . S
Nd360 C362 2.836 . S
Nd360 O380 2.500 . S
Nd360 O381 2.492 . S
Nd360 O382 2.487 . S
Nd360 O383 2.682 . S
Nd360 O384 2.410 . S
Nd360 O389 2.414 1_545 S
Nd360 O391 2.424 1_545 S
Nd361 C371 2.836 . S
Nd361 O383 2.414 1_565 S
Nd361 O385 2.424 1_565 S
Nd361 O386 2.500 . S
Nd361 O387 2.492 . S
Nd361 O388 2.487 . S
Nd361 O389 2.682 . S
Nd361 O390 2.410 . S
C362 Nd360 2.836 . S
C362 C363 1.498 . S
C362 O380 1.258 . S
C362 O381 1.239 . S
C363 C362 1.498 . S
C363 C364 1.366 . S
C363 C368 1.407 . S
C364 C363 1.366 . S
C364 C365 1.392 . S
C364 H392 0.930 . S
C365 C364 1.392 . S
C365 C366 1.398 . S
C365 H393 0.929 . S
C366 C365 1.398 . S
C366 C367 1.352 . S
C367 C366 1.352 . S
C367 C368 1.384 . S
C367 H394 0.930 . S
C368 C363 1.407 . S
C368 C367 1.384 . S
C368 H395 0.929 . S
C369 O382 1.241 . S
C369 O383 1.273 . S
C370 O384 1.251 . S
C370 O385 1.268 . S
C371 Nd361 2.836 . S
C371 C372 1.498 . S
C371 O386 1.258 . S
C371 O387 1.239 . S
C372 C371 1.498 . S
C372 C373 1.366 . S
C372 C377 1.407 . S
C373 C372 1.366 . S
C373 C374 1.392 . S
C373 H396 0.930 . S
C374 C373 1.392 . S
C374 C375 1.398 . S
C374 H397 0.929 . S
C375 C374 1.398 . S
C375 C376 1.352 . S
C376 C375 1.352 . S
C376 C377 1.384 . S
C376 H398 0.930 . S
C377 C372 1.407 . S
C377 C376 1.384 . S
C377 H399 0.929 . S
C378 O388 1.241 . S
C378 O389 1.273 . S
C379 O390 1.251 . S
C379 O391 1.268 . S
O380 Nd360 2.500 . S
O380 C362 1.258 . S
O381 Nd360 2.492 . S
O381 C362 1.239 . S
O382 Nd360 2.487 . S
O382 C369 1.241 . S
O383 Nd360 2.682 . S
O383 Nd361 2.414 1_545 S
O383 C369 1.273 . S
O384 Nd360 2.410 . S
O384 C370 1.251 . S
O385 Nd361 2.424 1_545 S
O385 C370 1.268 . S
O386 Nd361 2.500 . S
O386 C371 1.258 . S
O387 Nd361 2.492 . S
O387 C371 1.239 . S
O388 Nd361 2.487 . S
O388 C378 1.241 . S
O389 Nd360 2.414 1_565 S
O389 Nd361 2.682 . S
O389 C378 1.273 . S
O390 Nd361 2.410 . S
O390 C379 1.251 . S
O391 Nd360 2.424 1_565 S
O391 C379 1.268 . S
H392 C364 0.930 . S
H393 C365 0.929 . S
H394 C367 0.930 . S
H395 C368 0.929 . S
H396 C373 0.930 . S
H397 C374 0.929 . S
H398 C376 0.930 . S
H399 C377 0.929 . S
Nd400 C402 2.836 . S
Nd400 O420 2.500 . S
Nd400 O421 2.492 . S
Nd400 O422 2.487 . S
Nd400 O423 2.682 . S
Nd400 O424 2.410 . S
Nd400 O429 2.414 . S
Nd400 O431 2.424 . S
Nd401 C411 2.836 . S
Nd401 O423 2.414 . S
Nd401 O425 2.424 . S
Nd401 O426 2.500 . S
Nd401 O427 2.492 . S
Nd401 O428 2.487 . S
Nd401 O429 2.682 . S
Nd401 O430 2.410 . S
C402 Nd400 2.836 . S
C402 C403 1.498 . S
C402 O420 1.258 . S
C402 O421 1.239 . S
C403 C402 1.498 . S
C403 C404 1.366 . S
C403 C408 1.407 . S
C404 C403 1.366 . S
C404 C405 1.392 . S
C404 H432 0.930 . S
C405 C404 1.392 . S
C405 C406 1.398 . S
C405 H433 0.929 . S
C406 C405 1.398 . S
C406 C407 1.352 . S
C407 C406 1.352 . S
C407 C408 1.384 . S
C407 H434 0.930 . S
C408 C403 1.407 . S
C408 C407 1.384 . S
C408 H435 0.929 . S
C409 O422 1.241 . S
C409 O423 1.273 . S
C410 O424 1.251 . S
C410 O425 1.268 . S
C411 Nd401 2.836 . S
C411 C412 1.498 . S
C411 O426 1.258 . S
C411 O427 1.239 . S
C412 C411 1.498 . S
C412 C413 1.366 . S
C412 C417 1.407 . S
C413 C412 1.366 . S
C413 C414 1.392 . S
C413 H436 0.930 . S
C414 C413 1.392 . S
C414 C415 1.398 . S
C414 H437 0.929 . S
C415 C414 1.398 . S
C415 C416 1.352 . S
C416 C415 1.352 . S
C416 C417 1.384 . S
C416 H438 0.930 . S
C417 C412 1.407 . S
C417 C416 1.384 . S
C417 H439 0.929 . S
C418 O428 1.241 . S
C418 O429 1.273 . S
C419 O430 1.251 . S
C419 O431 1.268 . S
O420 Nd400 2.500 . S
O420 C402 1.258 . S
O421 Nd400 2.492 . S
O421 C402 1.239 . S
O422 Nd400 2.487 . S
O422 C409 1.241 . S
O423 Nd400 2.682 . S
O423 Nd401 2.414 . S
O423 C409 1.273 . S
O424 Nd400 2.410 . S
O424 C410 1.251 . S
O425 Nd401 2.424 . S
O425 C410 1.268 . S
O426 Nd401 2.500 . S
O426 C411 1.258 . S
O427 Nd401 2.492 . S
O427 C411 1.239 . S
O428 Nd401 2.487 . S
O428 C418 1.241 . S
O429 Nd400 2.414 . S
O429 Nd401 2.682 . S
O429 C418 1.273 . S
O430 Nd401 2.410 . S
O430 C419 1.251 . S
O431 Nd400 2.424 . S
O431 C419 1.268 . S
H432 C404 0.930 . S
H433 C405 0.929 . S
H434 C407 0.930 . S
H435 C408 0.929 . S
H436 C413 0.930 . S
H437 C414 0.929 . S
H438 C416 0.930 . S
H439 C417 0.929 . S
Nd440 C442 2.836 . S
Nd440 O460 2.500 . S
Nd440 O461 2.492 . S
Nd440 O462 2.487 . S
Nd440 O463 2.682 . S
Nd440 O464 2.410 . S
Nd440 O469 2.414 . S
Nd440 O471 2.424 . S
Nd441 C451 2.836 . S
Nd441 O463 2.414 . S
Nd441 O465 2.424 . S
Nd441 O466 2.500 . S
Nd441 O467 2.492 . S
Nd441 O468 2.487 . S
Nd441 O469 2.682 . S
Nd441 O470 2.410 . S
C442 Nd440 2.836 . S
C442 C443 1.498 . S
C442 O460 1.258 . S
C442 O461 1.239 . S
C443 C442 1.498 . S
C443 C444 1.366 . S
C443 C448 1.407 . S
C444 C443 1.366 . S
C444 C445 1.392 . S
C444 H472 0.930 . S
C445 C444 1.392 . S
C445 C446 1.398 . S
C445 H473 0.929 . S
C446 C445 1.398 . S
C446 C447 1.352 . S
C447 C446 1.352 . S
C447 C448 1.384 . S
C447 H474 0.930 . S
C448 C443 1.407 . S
C448 C447 1.384 . S
C448 H475 0.929 . S
C449 O462 1.241 . S
C449 O463 1.273 . S
C450 O464 1.251 . S
C450 O465 1.268 . S
C451 Nd441 2.836 . S
C451 C452 1.498 . S
C451 O466 1.258 . S
C451 O467 1.239 . S
C452 C451 1.498 . S
C452 C453 1.366 . S
C452 C457 1.407 . S
C453 C452 1.366 . S
C453 C454 1.392 . S
C453 H476 0.930 . S
C454 C453 1.392 . S
C454 C455 1.398 . S
C454 H477 0.929 . S
C455 C454 1.398 . S
C455 C456 1.352 . S
C456 C455 1.352 . S
C456 C457 1.384 . S
C456 H478 0.930 . S
C457 C452 1.407 . S
C457 C456 1.384 . S
C457 H479 0.929 . S
C458 O468 1.241 . S
C458 O469 1.273 . S
C459 O470 1.251 . S
C459 O471 1.268 . S
O460 Nd440 2.500 . S
O460 C442 1.258 . S
O461 Nd440 2.492 . S
O461 C442 1.239 . S
O462 Nd440 2.487 . S
O462 C449 1.241 . S
O463 Nd440 2.682 . S
O463 Nd441 2.414 . S
O463 C449 1.273 . S
O464 Nd440 2.410 . S
O464 C450 1.251 . S
O465 Nd441 2.424 . S
O465 C450 1.268 . S
O466 Nd441 2.500 . S
O466 C451 1.258 . S
O467 Nd441 2.492 . S
O467 C451 1.239 . S
O468 Nd441 2.487 . S
O468 C458 1.241 . S
O469 Nd440 2.414 . S
O469 Nd441 2.682 . S
O469 C458 1.273 . S
O470 Nd441 2.410 . S
O470 C459 1.251 . S
O471 Nd440 2.424 . S
O471 C459 1.268 . S
H472 C444 0.930 . S
H473 C445 0.929 . S
H474 C447 0.930 . S
H475 C448 0.929 . S
H476 C453 0.930 . S
H477 C454 0.929 . S
H478 C456 0.930 . S
H479 C457 0.929 . S
Nd480 C482 2.836 1_554 S
Nd480 O500 2.468 1_554 S
Nd480 O501 2.492 1_554 S
Nd480 O502 2.487 . S
Nd480 O503 2.682 . S
Nd480 O504 2.410 1_554 S
Nd480 O509 2.414 . S
Nd480 O511 2.424 . S
Nd481 C491 2.836 . S
Nd481 O503 2.414 . S
Nd481 O505 2.424 . S
Nd481 O506 2.500 . S
Nd481 O507 2.492 . S
Nd481 O508 2.487 . S
Nd481 O509 2.682 . S
Nd481 O510 2.410 . S
C482 Nd480 2.836 1_556 S
C482 C483 1.498 . S
C482 O500 1.301 . S
C482 O501 1.239 . S
C483 C482 1.498 . S
C483 C484 1.366 . S
C483 C488 1.407 . S
C484 C483 1.366 . S
C484 C485 1.392 . S
C484 H512 0.930 . S
C485 C484 1.392 . S
C485 C486 1.398 . S
C485 H513 0.929 . S
C486 C485 1.398 . S
C486 C487 1.352 . S
C487 C486 1.352 . S
C487 C488 1.384 . S
C487 H514 0.930 . S
C488 C483 1.407 . S
C488 C487 1.384 . S
C488 H515 0.929 . S
C489 O502 1.241 . S
C489 O503 1.273 . S
C490 O504 1.248 1_554 S
C490 O505 1.286 . S
C491 Nd481 2.836 . S
C491 C492 1.498 . S
C491 O506 1.258 . S
C491 O507 1.239 . S
C492 C491 1.498 . S
C492 C493 1.366 . S
C492 C497 1.407 . S
C493 C492 1.366 . S
C493 C494 1.392 . S
C493 H516 0.930 . S
C494 C493 1.392 . S
C494 C495 1.398 . S
C494 H517 0.929 . S
C495 C494 1.398 . S
C495 C496 1.352 . S
C496 C495 1.352 . S
C496 C497 1.384 . S
C496 H518 0.930 . S
C497 C492 1.407 . S
C497 C496 1.384 . S
C497 H519 0.929 . S
C498 O508 1.241 . S
C498 O509 1.273 . S
C499 O510 1.251 . S
C499 O511 1.268 . S
O500 Nd480 2.468 1_556 S
O500 C482 1.301 . S
O501 Nd480 2.492 1_556 S
O501 C482 1.239 . S
O502 Nd480 2.487 . S
O502 C489 1.241 . S
O503 Nd480 2.682 . S
O503 Nd481 2.414 . S
O503 C489 1.273 . S
O504 Nd480 2.410 1_556 S
O504 C490 1.248 1_556 S
O505 Nd481 2.424 . S
O505 C490 1.286 . S
O506 Nd481 2.500 . S
O506 C491 1.258 . S
O507 Nd481 2.492 . S
O507 C491 1.239 . S
O508 Nd481 2.487 . S
O508 C498 1.241 . S
O509 Nd480 2.414 . S
O509 Nd481 2.682 . S
O509 C498 1.273 . S
O510 Nd481 2.410 . S
O510 C499 1.251 . S
O511 Nd480 2.424 . S
O511 C499 1.268 . S
H512 C484 0.930 . S
H513 C485 0.929 . S
H514 C487 0.930 . S
H515 C488 0.929 . S
H516 C493 0.930 . S
H517 C494 0.929 . S
H518 C496 0.930 . S
H519 C497 0.929 . S
Nd520 C522 2.836 . S
Nd520 O540 2.500 . S
Nd520 O541 2.492 . S
Nd520 O542 2.487 . S
Nd520 O543 2.682 . S
Nd520 O544 2.410 . S
Nd520 O549 2.414 . S
Nd520 O551 2.424 . S
Nd521 C531 2.836 1_565 S
Nd521 O543 2.414 . S
Nd521 O545 2.424 . S
Nd521 O546 2.500 1_565 S
Nd521 O547 2.492 . S
Nd521 O548 2.487 . S
Nd521 O549 2.682 . S
Nd521 O550 2.410 . S
C522 Nd520 2.836 . S
C522 C523 1.498 . S
C522 O540 1.258 . S
C522 O541 1.239 . S
C523 C522 1.498 . S
C523 C524 1.366 . S
C523 C528 1.407 . S
C524 C523 1.366 . S
C524 C525 1.392 . S
C524 H552 0.930 . S
C525 C524 1.392 . S
C525 C526 1.398 . S
C525 H553 0.929 . S
C526 C525 1.398 . S
C526 C527 1.352 . S
C527 C526 1.352 . S
C527 C528 1.384 . S
C527 H554 0.930 . S
C528 C523 1.407 . S
C528 C527 1.384 . S
C528 H555 0.929 . S
C529 O542 1.241 . S
C529 O543 1.273 . S
C530 O544 1.251 . S
C530 O545 1.268 . S
C531 Nd521 2.836 1_545 S
C531 C532 1.498 . S
C531 O546 1.258 . S
C531 O547 1.239 1_545 S
C532 C531 1.498 . S
C532 C533 1.366 . S
C532 C537 1.407 . S
C533 C532 1.366 . S
C533 C534 1.392 . S
C533 H556 0.930 . S
C534 C533 1.392 . S
C534 C535 1.398 . S
C534 H557 0.929 . S
C535 C534 1.398 . S
C535 C536 1.352 . S
C536 C535 1.352 . S
C536 C537 1.384 . S
C536 H558 0.930 . S
C537 C532 1.407 . S
C537 C536 1.384 . S
C537 H559 0.929 . S
C538 O548 1.241 . S
C538 O549 1.273 . S
C539 O550 1.251 . S
C539 O551 1.268 . S
O540 Nd520 2.500 . S
O540 C522 1.258 . S
O541 Nd520 2.492 . S
O541 C522 1.239 . S
O542 Nd520 2.487 . S
O542 C529 1.241 . S
O543 Nd520 2.682 . S
O543 Nd521 2.414 . S
O543 C529 1.273 . S
O544 Nd520 2.410 . S
O544 C530 1.251 . S
O545 Nd521 2.424 . S
O545 C530 1.268 . S
O546 Nd521 2.500 1_545 S
O546 C531 1.258 . S
O547 Nd521 2.492 . S
O547 C531 1.239 1_565 S
O548 Nd521 2.487 . S
O548 C538 1.241 . S
O549 Nd520 2.414 . S
O549 Nd521 2.682 . S
O549 C538 1.273 . S
O550 Nd521 2.410 . S
O550 C539 1.251 . S
O551 Nd520 2.424 . S
O551 C539 1.268 . S
H552 C524 0.930 . S
H553 C525 0.929 . S
H554 C527 0.930 . S
H555 C528 0.929 . S
H556 C533 0.930 . S
H557 C534 0.929 . S
H558 C536 0.930 . S
H559 C537 0.929 . S
Nd560 C562 2.836 . S
Nd560 O580 2.500 . S
Nd560 O581 2.492 . S
Nd560 O582 2.487 . S
Nd560 O583 2.682 . S
Nd560 O584 2.410 . S
Nd560 O589 2.414 . S
Nd560 O591 2.424 . S
Nd561 C571 2.836 . S
Nd561 O583 2.414 . S
Nd561 O585 2.424 . S
Nd561 O586 2.500 . S
Nd561 O587 2.492 . S
Nd561 O588 2.487 . S
Nd561 O589 2.682 . S
Nd561 O590 2.410 . S
C562 Nd560 2.836 . S
C562 C563 1.498 . S
C562 O580 1.258 . S
C562 O581 1.239 . S
C563 C562 1.498 . S
C563 C564 1.366 . S
C563 C568 1.407 . S
C564 C563 1.366 . S
C564 C565 1.392 . S
C564 H592 0.930 . S
C565 C564 1.392 . S
C565 C566 1.398 . S
C565 H593 0.929 . S
C566 C565 1.398 . S
C566 C567 1.352 . S
C567 C566 1.352 . S
C567 C568 1.384 . S
C567 H594 0.930 . S
C568 C563 1.407 . S
C568 C567 1.384 . S
C568 H595 0.929 . S
C569 O582 1.241 . S
C569 O583 1.273 . S
C570 O584 1.251 . S
C570 O585 1.268 . S
C571 Nd561 2.836 . S
C571 C572 1.498 . S
C571 O586 1.258 . S
C571 O587 1.239 . S
C572 C571 1.498 . S
C572 C573 1.366 . S
C572 C577 1.407 . S
C573 C572 1.366 . S
C573 C574 1.392 . S
C573 H596 0.930 . S
C574 C573 1.392 . S
C574 C575 1.398 . S
C574 H597 0.929 . S
C575 C574 1.398 . S
C575 C576 1.352 . S
C576 C575 1.352 . S
C576 C577 1.384 . S
C576 H598 0.930 . S
C577 C572 1.407 . S
C577 C576 1.384 . S
C577 H599 0.929 . S
C578 O588 1.241 . S
C578 O589 1.273 . S
C579 O590 1.251 . S
C579 O591 1.268 . S
O580 Nd560 2.500 . S
O580 C562 1.258 . S
O581 Nd560 2.492 . S
O581 C562 1.239 . S
O582 Nd560 2.487 . S
O582 C569 1.241 . S
O583 Nd560 2.682 . S
O583 Nd561 2.414 . S
O583 C569 1.273 . S
O584 Nd560 2.410 . S
O584 C570 1.251 . S
O585 Nd561 2.424 . S
O585 C570 1.268 . S
O586 Nd561 2.500 . S
O586 C571 1.258 . S
O587 Nd561 2.492 . S
O587 C571 1.239 . S
O588 Nd561 2.487 . S
O588 C578 1.241 . S
O589 Nd560 2.414 . S
O589 Nd561 2.682 . S
O589 C578 1.273 . S
O590 Nd561 2.410 . S
O590 C579 1.251 . S
O591 Nd560 2.424 . S
O591 C579 1.268 . S
H592 C564 0.930 . S
H593 C565 0.929 . S
H594 C567 0.930 . S
H595 C568 0.929 . S
H596 C573 0.930 . S
H597 C574 0.929 . S
H598 C576 0.930 . S
H599 C577 0.929 . S
Nd600 C602 2.836 . S
Nd600 O620 2.500 . S
Nd600 O621 2.492 . S
Nd600 O622 2.487 . S
Nd600 O623 2.682 . S
Nd600 O624 2.410 . S
Nd600 O629 2.414 . S
Nd600 O631 2.424 . S
Nd601 C611 2.836 . S
Nd601 O623 2.414 . S
Nd601 O625 2.424 . S
Nd601 O626 2.500 . S
Nd601 O627 2.492 . S
Nd601 O628 2.487 . S
Nd601 O629 2.682 . S
Nd601 O630 2.410 . S
C602 Nd600 2.836 . S
C602 C603 1.498 . S
C602 O620 1.258 . S
C602 O621 1.239 . S
C603 C602 1.498 . S
C603 C604 1.366 . S
C603 C608 1.407 1_655 S
C604 C603 1.366 . S
C604 C605 1.392 . S
C604 H632 0.930 . S
C605 C604 1.392 . S
C605 C606 1.398 . S
C605 H633 0.929 . S
C606 C605 1.398 . S
C606 C607 1.352 1_655 S
C607 C606 1.352 1_455 S
C607 C608 1.384 . S
C607 H634 0.930 . S
C608 C603 1.407 1_455 S
C608 C607 1.384 . S
C608 H635 0.929 . S
C609 O622 1.241 . S
C609 O623 1.273 . S
C610 O624 1.251 . S
C610 O625 1.268 . S
C611 Nd601 2.836 . S
C611 C612 1.498 . S
C611 O626 1.258 . S
C611 O627 1.239 . S
C612 C611 1.498 . S
C612 C613 1.366 . S
C612 C617 1.407 . S
C613 C612 1.366 . S
C613 C614 1.392 . S
C613 H636 0.930 . S
C614 C613 1.392 . S
C614 C615 1.398 . S
C614 H637 0.929 . S
C615 C614 1.398 . S
C615 C616 1.352 . S
C616 C615 1.352 . S
C616 C617 1.384 . S
C616 H638 0.930 . S
C617 C612 1.407 . S
C617 C616 1.384 . S
C617 H639 0.929 . S
C618 O628 1.241 . S
C618 O629 1.273 . S
C619 O630 1.251 . S
C619 O631 1.268 . S
O620 Nd600 2.500 . S
O620 C602 1.258 . S
O621 Nd600 2.492 . S
O621 C602 1.239 . S
O622 Nd600 2.487 . S
O622 C609 1.241 . S
O623 Nd600 2.682 . S
O623 Nd601 2.414 . S
O623 C609 1.273 . S
O624 Nd600 2.410 . S
O624 C610 1.251 . S
O625 Nd601 2.424 . S
O625 C610 1.268 . S
O626 Nd601 2.500 . S
O626 C611 1.258 . S
O627 Nd601 2.492 . S
O627 C611 1.239 . S
O628 Nd601 2.487 . S
O628 C618 1.241 . S
O629 Nd600 2.414 . S
O629 Nd601 2.682 . S
O629 C618 1.273 . S
O630 Nd601 2.410 . S
O630 C619 1.251 . S
O631 Nd600 2.424 . S
O631 C619 1.268 . S
H632 C604 0.930 . S
H633 C605 0.929 . S
H634 C607 0.930 . S
H635 C608 0.929 . S
H636 C613 0.930 . S
H637 C614 0.929 . S
H638 C616 0.930 . S
H639 C617 0.929 . S
Nd640 C642 2.836 . S
Nd640 O660 2.500 . S
Nd640 O661 2.492 . S
Nd640 O662 2.487 . S
Nd640 O663 2.682 . S
Nd640 O664 2.410 . S
Nd640 O669 2.414 . S
Nd640 O671 2.424 . S
Nd641 C651 2.836 . S
Nd641 O663 2.414 . S
Nd641 O665 2.424 . S
Nd641 O666 2.500 . S
Nd641 O667 2.492 . S
Nd641 O668 2.487 . S
Nd641 O669 2.682 . S
Nd641 O670 2.410 . S
C642 Nd640 2.836 . S
C642 C643 1.498 . S
C642 O660 1.258 . S
C642 O661 1.239 . S
C643 C642 1.498 . S
C643 C644 1.366 . S
C643 C648 1.407 . S
C644 C643 1.366 . S
C644 C645 1.392 . S
C644 H672 0.930 . S
C645 C644 1.392 . S
C645 C646 1.398 . S
C645 H673 0.929 . S
C646 C645 1.398 . S
C646 C647 1.352 . S
C647 C646 1.352 . S
C647 C648 1.384 . S
C647 H674 0.930 . S
C648 C643 1.407 . S
C648 C647 1.384 . S
C648 H675 0.929 . S
C649 O662 1.241 . S
C649 O663 1.273 . S
C650 O664 1.251 . S
C650 O665 1.268 . S
C651 Nd641 2.836 . S
C651 C652 1.498 . S
C651 O666 1.258 . S
C651 O667 1.239 . S
C652 C651 1.498 . S
C652 C653 1.366 . S
C652 C657 1.407 . S
C653 C652 1.366 . S
C653 C654 1.392 . S
C653 H676 0.930 . S
C654 C653 1.392 . S
C654 C655 1.398 . S
C654 H677 0.929 . S
C655 C654 1.398 . S
C655 C656 1.352 . S
C656 C655 1.352 . S
C656 C657 1.384 . S
C656 H678 0.930 . S
C657 C652 1.407 . S
C657 C656 1.384 . S
C657 H679 0.929 . S
C658 O668 1.241 . S
C658 O669 1.273 . S
C659 O670 1.251 . S
C659 O671 1.268 . S
O660 Nd640 2.500 . S
O660 C642 1.258 . S
O661 Nd640 2.492 . S
O661 C642 1.239 . S
O662 Nd640 2.487 . S
O662 C649 1.241 . S
O663 Nd640 2.682 . S
O663 Nd641 2.414 . S
O663 C649 1.273 . S
O664 Nd640 2.410 . S
O664 C650 1.251 . S
O665 Nd641 2.424 . S
O665 C650 1.268 . S
O666 Nd641 2.500 . S
O666 C651 1.258 . S
O667 Nd641 2.492 . S
O667 C651 1.239 . S
O668 Nd641 2.487 . S
O668 C658 1.241 . S
O669 Nd640 2.414 . S
O669 Nd641 2.682 . S
O669 C658 1.273 . S
O670 Nd641 2.410 . S
O670 C659 1.251 . S
O671 Nd640 2.424 . S
O671 C659 1.268 . S
H672 C644 0.930 . S
H673 C645 0.929 . S
H674 C647 0.930 . S
H675 C648 0.929 . S
H676 C653 0.930 . S
H677 C654 0.929 . S
H678 C656 0.930 . S
H679 C657 0.929 . S
Nd680 C682 2.836 . S
Nd680 O700 2.500 . S
Nd680 O701 2.492 . S
Nd680 O702 2.487 . S
Nd680 O703 2.682 . S
Nd680 O704 2.410 . S
Nd680 O709 2.414 . S
Nd680 O711 2.424 . S
Nd681 C691 2.836 . S
Nd681 O703 2.414 . S
Nd681 O705 2.424 . S
Nd681 O706 2.500 . S
Nd681 O707 2.492 . S
Nd681 O708 2.487 . S
Nd681 O709 2.682 . S
Nd681 O710 2.410 . S
C682 Nd680 2.836 . S
C682 C683 1.498 . S
C682 O700 1.258 . S
C682 O701 1.239 . S
C683 C682 1.498 . S
C683 C684 1.366 . S
C683 C688 1.407 . S
C684 C683 1.366 . S
C684 C685 1.392 . S
C684 H712 0.930 . S
C685 C684 1.392 . S
C685 C686 1.398 . S
C685 H713 0.929 . S
C686 C685 1.398 . S
C686 C687 1.352 . S
C687 C686 1.352 . S
C687 C688 1.384 . S
C687 H714 0.930 . S
C688 C683 1.407 . S
C688 C687 1.384 . S
C688 H715 0.929 . S
C689 O702 1.241 . S
C689 O703 1.273 . S
C690 O704 1.251 . S
C690 O705 1.268 . S
C691 Nd681 2.836 . S
C691 C692 1.498 . S
C691 O706 1.258 . S
C691 O707 1.239 . S
C692 C691 1.498 . S
C692 C693 1.366 . S
C692 C697 1.407 . S
C693 C692 1.366 . S
C693 C694 1.392 . S
C693 H716 0.930 . S
C694 C693 1.392 . S
C694 C695 1.398 . S
C694 H717 0.929 . S
C695 C694 1.398 . S
C695 C696 1.352 . S
C696 C695 1.352 . S
C696 C697 1.384 . S
C696 H718 0.930 . S
C697 C692 1.407 . S
C697 C696 1.384 . S
C697 H719 0.929 . S
C698 O708 1.241 . S
C698 O709 1.273 . S
C699 O710 1.251 . S
C699 O711 1.268 . S
O700 Nd680 2.500 . S
O700 C682 1.258 . S
O701 Nd680 2.492 . S
O701 C682 1.239 . S
O702 Nd680 2.487 . S
O702 C689 1.241 . S
O703 Nd680 2.682 . S
O703 Nd681 2.414 . S
O703 C689 1.273 . S
O704 Nd680 2.410 . S
O704 C690 1.251 . S
O705 Nd681 2.424 . S
O705 C690 1.268 . S
O706 Nd681 2.500 . S
O706 C691 1.258 . S
O707 Nd681 2.492 . S
O707 C691 1.239 . S
O708 Nd681 2.487 . S
O708 C698 1.241 . S
O709 Nd680 2.414 . S
O709 Nd681 2.682 . S
O709 C698 1.273 . S
O710 Nd681 2.410 . S
O710 C699 1.251 . S
O711 Nd680 2.424 . S
O711 C699 1.268 . S
H712 C684 0.930 . S
H713 C685 0.929 . S
H714 C687 0.930 . S
H715 C688 0.929 . S
H716 C693 0.930 . S
H717 C694 0.929 . S
H718 C696 0.930 . S
H719 C697 0.929 . S
Nd720 C722 2.836 1_556 S
Nd720 O740 2.500 . S
Nd720 O741 2.492 1_556 S
Nd720 O742 2.487 . S
Nd720 O743 2.682 . S
Nd720 O744 2.410 . S
Nd720 O749 2.414 . S
Nd720 O751 2.424 . S
Nd721 C731 2.836 . S
Nd721 O743 2.414 . S
Nd721 O745 2.424 . S
Nd721 O746 2.500 . S
Nd721 O747 2.492 . S
Nd721 O748 2.487 . S
Nd721 O749 2.682 . S
Nd721 O750 2.410 . S
C722 Nd720 2.836 1_554 S
C722 C723 1.498 . S
C722 O740 1.258 1_554 S
C722 O741 1.239 . S
C723 C722 1.498 . S
C723 C724 1.366 . S
C723 C728 1.407 . S
C724 C723 1.366 . S
C724 C725 1.392 . S
C724 H752 0.930 . S
C725 C724 1.392 . S
C725 C726 1.398 . S
C725 H753 0.929 . S
C726 C725 1.398 . S
C726 C727 1.352 . S
C727 C726 1.352 . S
C727 C728 1.384 . S
C727 H754 0.930 . S
C728 C723 1.407 . S
C728 C727 1.384 . S
C728 H755 0.929 . S
C729 O742 1.241 . S
C729 O743 1.273 . S
C730 O744 1.251 . S
C730 O745 1.268 . S
C731 Nd721 2.836 . S
C731 C732 1.498 . S
C731 O746 1.258 . S
C731 O747 1.239 . S
C732 C731 1.498 . S
C732 C733 1.366 . S
C732 C737 1.407 . S
C733 C732 1.366 . S
C733 C734 1.392 . S
C733 H756 0.930 . S
C734 C733 1.392 . S
C734 C735 1.398 . S
C734 H757 0.929 . S
C735 C734 1.398 . S
C735 C736 1.352 . S
C736 C735 1.352 . S
C736 C737 1.384 . S
C736 H758 0.930 . S
C737 C732 1.407 . S
C737 C736 1.384 . S
C737 H759 0.929 . S
C738 O748 1.241 . S
C738 O749 1.273 . S
C739 O750 1.251 . S
C739 O751 1.268 . S
O740 Nd720 2.500 . S
O740 C722 1.258 1_556 S
O741 Nd720 2.492 1_554 S
O741 C722 1.239 . S
O742 Nd720 2.487 . S
O742 C729 1.241 . S
O743 Nd720 2.682 . S
O743 Nd721 2.414 . S
O743 C729 1.273 . S
O744 Nd720 2.410 . S
O744 C730 1.251 . S
O745 Nd721 2.424 . S
O745 C730 1.268 . S
O746 Nd721 2.500 . S
O746 C731 1.258 . S
O747 Nd721 2.492 . S
O747 C731 1.239 . S
O748 Nd721 2.487 . S
O748 C738 1.241 . S
O749 Nd720 2.414 . S
O749 Nd721 2.682 . S
O749 C738 1.273 . S
O750 Nd721 2.410 . S
O750 C739 1.251 . S
O751 Nd720 2.424 . S
O751 C739 1.268 . S
H752 C724 0.930 . S
H753 C725 0.929 . S
H754 C727 0.930 . S
H755 C728 0.929 . S
H756 C733 0.930 . S
H757 C734 0.929 . S
H758 C736 0.930 . S
H759 C737 0.929 . S
Nd760 C762 2.836 . S
Nd760 O780 2.500 . S
Nd760 O781 2.492 . S
Nd760 O782 2.487 . S
Nd760 O783 2.682 . S
Nd760 O784 2.410 . S
Nd760 O789 2.414 1_455 S
Nd760 O791 2.424 1_455 S
Nd761 C771 2.836 . S
Nd761 O783 2.414 1_655 S
Nd761 O785 2.424 1_655 S
Nd761 O786 2.500 . S
Nd761 O787 2.492 . S
Nd761 O788 2.487 . S
Nd761 O789 2.682 . S
Nd761 O790 2.410 . S
C762 Nd760 2.836 . S
C762 C763 1.498 . S
C762 O780 1.258 . S
C762 O781 1.239 . S
C763 C762 1.498 . S
C763 C764 1.366 . S
C763 C768 1.407 . S
C764 C763 1.366 . S
C764 C765 1.392 . S
C764 H792 0.930 . S
C765 C764 1.392 . S
C765 C766 1.398 . S
C765 H793 0.929 . S
C766 C765 1.398 . S
C766 C767 1.352 . S
C767 C766 1.352 . S
C767 C768 1.384 . S
C767 H794 0.930 . S
C768 C763 1.407 . S
C768 C767 1.384 . S
C768 H795 0.929 . S
C769 O782 1.241 . S
C769 O783 1.273 . S
C770 O784 1.251 . S
C770 O785 1.268 . S
C771 Nd761 2.836 . S
C771 C772 1.498 . S
C771 O786 1.258 . S
C771 O787 1.239 . S
C772 C771 1.498 . S
C772 C773 1.366 . S
C772 C777 1.407 . S
C773 C772 1.366 . S
C773 C774 1.392 . S
C773 H796 0.930 . S
C774 C773 1.392 . S
C774 C775 1.398 . S
C774 H797 0.929 . S
C775 C774 1.398 . S
C775 C776 1.352 . S
C776 C775 1.352 . S
C776 C777 1.384 . S
C776 H798 0.930 . S
C777 C772 1.407 . S
C777 C776 1.384 . S
C777 H799 0.929 . S
C778 O788 1.241 . S
C778 O789 1.273 . S
C779 O790 1.251 . S
C779 O791 1.268 . S
O780 Nd760 2.500 . S
O780 C762 1.258 . S
O781 Nd760 2.492 . S
O781 C762 1.239 . S
O782 Nd760 2.487 . S
O782 C769 1.241 . S
O783 Nd760 2.682 . S
O783 Nd761 2.414 1_455 S
O783 C769 1.273 . S
O784 Nd760 2.410 . S
O784 C770 1.251 . S
O785 Nd761 2.424 1_455 S
O785 C770 1.268 . S
O786 Nd761 2.500 . S
O786 C771 1.258 . S
O787 Nd761 2.492 . S
O787 C771 1.239 . S
O788 Nd761 2.487 . S
O788 C778 1.241 . S
O789 Nd760 2.414 1_655 S
O789 Nd761 2.682 . S
O789 C778 1.273 . S
O790 Nd761 2.410 . S
O790 C779 1.251 . S
O791 Nd760 2.424 1_655 S
O791 C779 1.268 . S
H792 C764 0.930 . S
H793 C765 0.929 . S
H794 C767 0.930 . S
H795 C768 0.929 . S
H796 C773 0.930 . S
H797 C774 0.929 . S
H798 C776 0.930 . S
H799 C777 0.929 . S
Nd800 C802 2.836 . S
Nd800 O820 2.500 . S
Nd800 O821 2.492 . S
Nd800 O822 2.487 . S
Nd800 O823 2.682 . S
Nd800 O824 2.410 . S
Nd800 O829 2.414 . S
Nd800 O831 2.424 . S
Nd801 C811 2.836 . S
Nd801 O823 2.414 . S
Nd801 O825 2.424 . S
Nd801 O826 2.500 . S
Nd801 O827 2.492 . S
Nd801 O828 2.487 . S
Nd801 O829 2.682 . S
Nd801 O830 2.410 . S
C802 Nd800 2.836 . S
C802 C803 1.498 . S
C802 O820 1.258 . S
C802 O821 1.239 . S
C803 C802 1.498 . S
C803 C804 1.366 . S
C803 C808 1.407 . S
C804 C803 1.366 . S
C804 C805 1.392 . S
C804 H832 0.930 . S
C805 C804 1.392 . S
C805 C806 1.398 . S
C805 H833 0.929 . S
C806 C805 1.398 . S
C806 C807 1.352 . S
C807 C806 1.352 . S
C807 C808 1.384 . S
C807 H834 0.930 . S
C808 C803 1.407 . S
C808 C807 1.384 . S
C808 H835 0.929 . S
C809 O822 1.241 . S
C809 O823 1.273 . S
C810 O824 1.251 . S
C810 O825 1.268 . S
C811 Nd801 2.836 . S
C811 C812 1.498 . S
C811 O826 1.258 . S
C811 O827 1.239 . S
C812 C811 1.498 . S
C812 C813 1.366 . S
C812 C817 1.407 . S
C813 C812 1.366 . S
C813 C814 1.392 . S
C813 H836 0.930 . S
C814 C813 1.392 . S
C814 C815 1.398 . S
C814 H837 0.929 . S
C815 C814 1.398 . S
C815 C816 1.352 . S
C816 C815 1.352 . S
C816 C817 1.384 . S
C816 H838 0.930 . S
C817 C812 1.407 . S
C817 C816 1.384 . S
C817 H839 0.929 . S
C818 O828 1.241 . S
C818 O829 1.273 . S
C819 O830 1.251 . S
C819 O831 1.268 . S
O820 Nd800 2.500 . S
O820 C802 1.258 . S
O821 Nd800 2.492 . S
O821 C802 1.239 . S
O822 Nd800 2.487 . S
O822 C809 1.241 . S
O823 Nd800 2.682 . S
O823 Nd801 2.414 . S
O823 C809 1.273 . S
O824 Nd800 2.410 . S
O824 C810 1.251 . S
O825 Nd801 2.424 . S
O825 C810 1.268 . S
O826 Nd801 2.500 . S
O826 C811 1.258 . S
O827 Nd801 2.492 . S
O827 C811 1.239 . S
O828 Nd801 2.487 . S
O828 C818 1.241 . S
O829 Nd800 2.414 . S
O829 Nd801 2.682 . S
O829 C818 1.273 . S
O830 Nd801 2.410 . S
O830 C819 1.251 . S
O831 Nd800 2.424 . S
O831 C819 1.268 . S
H832 C804 0.930 . S
H833 C805 0.929 . S
H834 C807 0.930 . S
H835 C808 0.929 . S
H836 C813 0.930 . S
H837 C814 0.929 . S
H838 C816 0.930 . S
H839 C817 0.929 . S
Nd840 C842 2.836 . S
Nd840 O860 2.500 . S
Nd840 O861 2.492 . S
Nd840 O862 2.487 . S
Nd840 O863 2.682 . S
Nd840 O864 2.410 . S
Nd840 O869 2.414 . S
Nd840 O871 2.424 . S
Nd841 C851 2.836 . S
Nd841 O863 2.414 . S
Nd841 O865 2.424 . S
Nd841 O866 2.500 . S
Nd841 O867 2.492 . S
Nd841 O868 2.487 . S
Nd841 O869 2.682 . S
Nd841 O870 2.410 . S
C842 Nd840 2.836 . S
C842 C843 1.498 . S
C842 O860 1.258 . S
C842 O861 1.239 . S
C843 C842 1.498 . S
C843 C844 1.366 . S
C843 C848 1.407 . S
C844 C843 1.366 . S
C844 C845 1.392 . S
C844 H872 0.930 . S
C845 C844 1.392 . S
C845 C846 1.398 . S
C845 H873 0.929 . S
C846 C845 1.398 . S
C846 C847 1.352 . S
C847 C846 1.352 . S
C847 C848 1.384 . S
C847 H874 0.930 . S
C848 C843 1.407 . S
C848 C847 1.384 . S
C848 H875 0.929 . S
C849 O862 1.241 . S
C849 O863 1.273 . S
C850 O864 1.251 . S
C850 O865 1.268 . S
C851 Nd841 2.836 . S
C851 C852 1.498 . S
C851 O866 1.258 . S
C851 O867 1.239 . S
C852 C851 1.498 . S
C852 C853 1.366 . S
C852 C857 1.407 . S
C853 C852 1.366 . S
C853 C854 1.392 . S
C853 H876 0.930 . S
C854 C853 1.392 . S
C854 C855 1.398 . S
C854 H877 0.929 . S
C855 C854 1.398 . S
C855 C856 1.352 . S
C856 C855 1.352 . S
C856 C857 1.384 . S
C856 H878 0.930 . S
C857 C852 1.407 . S
C857 C856 1.384 . S
C857 H879 0.929 . S
C858 O868 1.241 . S
C858 O869 1.273 . S
C859 O870 1.251 . S
C859 O871 1.268 . S
O860 Nd840 2.500 . S
O860 C842 1.258 . S
O861 Nd840 2.492 . S
O861 C842 1.239 . S
O862 Nd840 2.487 . S
O862 C849 1.241 . S
O863 Nd840 2.682 . S
O863 Nd841 2.414 . S
O863 C849 1.273 . S
O864 Nd840 2.410 . S
O864 C850 1.251 . S
O865 Nd841 2.424 . S
O865 C850 1.268 . S
O866 Nd841 2.500 . S
O866 C851 1.258 . S
O867 Nd841 2.492 . S
O867 C851 1.239 . S
O868 Nd841 2.487 . S
O868 C858 1.241 . S
O869 Nd840 2.414 . S
O869 Nd841 2.682 . S
O869 C858 1.273 . S
O870 Nd841 2.410 . S
O870 C859 1.251 . S
O871 Nd840 2.424 . S
O871 C859 1.268 . S
H872 C844 0.930 . S
H873 C845 0.929 . S
H874 C847 0.930 . S
H875 C848 0.929 . S
H876 C853 0.930 . S
H877 C854 0.929 . S
H878 C856 0.930 . S
H879 C857 0.929 . S
Nd880 C882 2.836 . S
Nd880 O900 2.500 . S
Nd880 O901 2.492 . S
Nd880 O902 2.487 . S
Nd880 O903 2.682 . S
Nd880 O904 2.410 . S
Nd880 O909 2.414 . S
Nd880 O911 2.424 . S
Nd881 C891 2.836 . S
Nd881 O903 2.414 . S
Nd881 O905 2.424 . S
Nd881 O906 2.500 . S
Nd881 O907 2.492 . S
Nd881 O908 2.487 . S
Nd881 O909 2.682 . S
Nd881 O910 2.410 . S
C882 Nd880 2.836 . S
C882 C883 1.498 . S
C882 O900 1.258 . S
C882 O901 1.239 . S
C883 C882 1.498 . S
C883 C884 1.366 . S
C883 C888 1.407 . S
C884 C883 1.366 . S
C884 C885 1.392 . S
C884 H912 0.930 . S
C885 C884 1.392 . S
C885 C886 1.398 . S
C885 H913 0.929 . S
C886 C885 1.398 . S
C886 C887 1.352 . S
C887 C886 1.352 . S
C887 C888 1.384 . S
C887 H914 0.915 1_554 S
C888 C883 1.407 . S
C888 C887 1.384 . S
C888 H915 0.929 . S
C889 O902 1.241 . S
C889 O903 1.273 . S
C890 O904 1.251 . S
C890 O905 1.268 . S
C891 Nd881 2.836 . S
C891 C892 1.498 . S
C891 O906 1.258 . S
C891 O907 1.239 . S
C892 C891 1.498 . S
C892 C893 1.366 . S
C892 C897 1.407 . S
C893 C892 1.366 . S
C893 C894 1.392 . S
C893 H916 0.930 . S
C894 C893 1.392 . S
C894 C895 1.398 . S
C894 H917 0.929 . S
C895 C894 1.398 . S
C895 C896 1.352 . S
C896 C895 1.352 . S
C896 C897 1.384 . S
C896 H918 0.930 . S
C897 C892 1.407 . S
C897 C896 1.384 . S
C897 H919 0.929 . S
C898 O908 1.241 . S
C898 O909 1.273 . S
C899 O910 1.251 . S
C899 O911 1.268 . S
O900 Nd880 2.500 . S
O900 C882 1.258 . S
O901 Nd880 2.492 . S
O901 C882 1.239 . S
O902 Nd880 2.487 . S
O902 C889 1.241 . S
O903 Nd880 2.682 . S
O903 Nd881 2.414 . S
O903 C889 1.273 . S
O904 Nd880 2.410 . S
O904 C890 1.251 . S
O905 Nd881 2.424 . S
O905 C890 1.268 . S
O906 Nd881 2.500 . S
O906 C891 1.258 . S
O907 Nd881 2.492 . S
O907 C891 1.239 . S
O908 Nd881 2.487 . S
O908 C898 1.241 . S
O909 Nd880 2.414 . S
O909 Nd881 2.682 . S
O909 C898 1.273 . S
O910 Nd881 2.410 . S
O910 C899 1.251 . S
O911 Nd880 2.424 . S
O911 C899 1.268 . S
H912 C884 0.930 . S
H913 C885 0.929 . S
H914 C887 0.915 1_556 S
H915 C888 0.929 . S
H916 C893 0.930 . S
H917 C894 0.929 . S
H918 C896 0.930 . S
H919 C897 0.929 . S
Nd920 C922 2.836 . S
Nd920 O940 2.500 . S
Nd920 O941 2.492 . S
Nd920 O942 2.487 . S
Nd920 O943 2.682 . S
Nd920 O944 2.410 . S
Nd920 O949 2.414 . S
Nd920 O951 2.424 . S
Nd921 C931 2.836 . S
Nd921 O943 2.414 . S
Nd921 O945 2.424 . S
Nd921 O946 2.500 . S
Nd921 O947 2.492 . S
Nd921 O948 2.487 . S
Nd921 O949 2.682 . S
Nd921 O950 2.410 . S
C922 Nd920 2.836 . S
C922 C923 1.498 . S
C922 O940 1.258 . S
C922 O941 1.239 . S
C923 C922 1.498 . S
C923 C924 1.366 . S
C923 C928 1.407 . S
C924 C923 1.366 . S
C924 C925 1.392 . S
C924 H952 0.930 . S
C925 C924 1.392 . S
C925 C926 1.398 . S
C925 H953 0.929 . S
C926 C925 1.398 . S
C926 C927 1.352 . S
C927 C926 1.352 . S
C927 C928 1.384 . S
C927 H954 0.930 . S
C928 C923 1.407 . S
C928 C927 1.384 . S
C928 H955 0.929 . S
C929 O942 1.241 . S
C929 O943 1.273 . S
C930 O944 1.251 . S
C930 O945 1.268 . S
C931 Nd921 2.836 . S
C931 C932 1.498 1_565 S
C931 O946 1.258 . S
C931 O947 1.239 . S
C932 C931 1.498 1_545 S
C932 C933 1.366 . S
C932 C937 1.407 . S
C933 C932 1.366 . S
C933 C934 1.392 . S
C933 H956 0.930 . S
C934 C933 1.392 . S
C934 C935 1.398 . S
C934 H957 0.929 . S
C935 C934 1.398 . S
C935 C936 1.352 . S
C936 C935 1.352 . S
C936 C937 1.384 . S
C936 H958 0.930 . S
C937 C932 1.407 . S
C937 C936 1.384 . S
C937 H959 0.929 . S
C938 O948 1.241 . S
C938 O949 1.273 . S
C939 O950 1.251 . S
C939 O951 1.268 . S
O940 Nd920 2.500 . S
O940 C922 1.258 . S
O941 Nd920 2.492 . S
O941 C922 1.239 . S
O942 Nd920 2.487 . S
O942 C929 1.241 . S
O943 Nd920 2.682 . S
O943 Nd921 2.414 . S
O943 C929 1.273 . S
O944 Nd920 2.410 . S
O944 C930 1.251 . S
O945 Nd921 2.424 . S
O945 C930 1.268 . S
O946 Nd921 2.500 . S
O946 C931 1.258 . S
O947 Nd921 2.492 . S
O947 C931 1.239 . S
O948 Nd921 2.487 . S
O948 C938 1.241 . S
O949 Nd920 2.414 . S
O949 Nd921 2.682 . S
O949 C938 1.273 . S
O950 Nd921 2.410 . S
O950 C939 1.251 . S
O951 Nd920 2.424 . S
O951 C939 1.268 . S
H952 C924 0.930 . S
H953 C925 0.929 . S
H954 C927 0.930 . S
H955 C928 0.929 . S
H956 C933 0.930 . S
H957 C934 0.929 . S
H958 C936 0.930 . S
H959 C937 0.929 . S
Nd960 C962 2.836 . S
Nd960 O980 2.500 . S
Nd960 O981 2.492 . S
Nd960 O982 2.487 . S
Nd960 O983 2.682 . S
Nd960 O984 2.410 . S
Nd960 O989 2.414 1_545 S
Nd960 O991 2.424 1_545 S
Nd961 C971 2.836 . S
Nd961 O983 2.414 1_565 S
Nd961 O985 2.424 1_565 S
Nd961 O986 2.500 . S
Nd961 O987 2.492 . S
Nd961 O988 2.487 . S
Nd961 O989 2.682 . S
Nd961 O990 2.410 . S
C962 Nd960 2.836 . S
C962 C963 1.498 . S
C962 O980 1.258 . S
C962 O981 1.239 . S
C963 C962 1.498 . S
C963 C964 1.366 . S
C963 C968 1.407 . S
C964 C963 1.366 . S
C964 C965 1.392 . S
C964 H992 0.930 . S
C965 C964 1.392 . S
C965 C966 1.398 . S
C965 H993 0.929 . S
C966 C965 1.398 . S
C966 C967 1.352 . S
C967 C966 1.352 . S
C967 C968 1.384 . S
C967 H994 0.930 . S
C968 C963 1.407 . S
C968 C967 1.384 . S
C968 H995 0.929 . S
C969 O982 1.241 . S
C969 O983 1.273 . S
C970 O984 1.251 . S
C970 O985 1.268 . S
C971 Nd961 2.836 . S
C971 C972 1.498 . S
C971 O986 1.258 . S
C971 O987 1.239 . S
C972 C971 1.498 . S
C972 C973 1.366 . S
C972 C977 1.407 . S
C973 C972 1.366 . S
C973 C974 1.392 . S
C973 H996 0.930 . S
C974 C973 1.392 . S
C974 C975 1.398 . S
C974 H997 0.929 . S
C975 C974 1.398 . S
C975 C976 1.352 . S
C976 C975 1.352 . S
C976 C977 1.384 . S
C976 H998 0.930 . S
C977 C972 1.407 . S
C977 C976 1.384 . S
C977 H999 0.929 . S
C978 O988 1.241 . S
C978 O989 1.273 . S
C979 O990 1.251 . S
C979 O991 1.268 . S
O980 Nd960 2.500 . S
O980 C962 1.258 . S
O981 Nd960 2.492 . S
O981 C962 1.239 . S
O982 Nd960 2.487 . S
O982 C969 1.241 . S
O983 Nd960 2.682 . S
O983 Nd961 2.414 1_545 S
O983 C969 1.273 . S
O984 Nd960 2.410 . S
O984 C970 1.251 . S
O985 Nd961 2.424 1_545 S
O985 C970 1.268 . S
O986 Nd961 2.500 . S
O986 C971 1.258 . S
O987 Nd961 2.492 . S
O987 C971 1.239 . S
O988 Nd961 2.487 . S
O988 C978 1.241 . S
O989 Nd960 2.414 1_565 S
O989 Nd961 2.682 . S
O989 C978 1.273 . S
O990 Nd961 2.410 . S
O990 C979 1.251 . S
O991 Nd960 2.424 1_565 S
O991 C979 1.268 . S
H992 C964 0.930 . S
H993 C965 0.929 . S
H994 C967 0.930 . S
H995 C968 0.929 . S
H996 C973 0.930 . S
H997 C974 0.929 . S
H998 C976 0.930 . S
H999 C977 0.929 . S
Nd1000 C1002 2.836 . S
Nd1000 O1020 2.500 . S
Nd1000 O1021 2.492 . S
Nd1000 O1022 2.487 . S
Nd1000 O1023 2.682 . S
Nd1000 O1024 2.410 . S
Nd1000 O1029 2.414 . S
Nd1000 O1031 2.424 . S
Nd1001 C1011 2.836 . S
Nd1001 O1023 2.414 . S
Nd1001 O1025 2.424 . S
Nd1001 O1026 2.500 . S
Nd1001 O1027 2.492 . S
Nd1001 O1028 2.487 . S
Nd1001 O1029 2.682 . S
Nd1001 O1030 2.410 . S
C1002 Nd1000 2.836 . S
C1002 C1003 1.498 1_554 S
C1002 O1020 1.258 . S
C1002 O1021 1.239 . S
C1003 C1002 1.498 1_556 S
C1003 C1004 1.366 . S
C1003 C1008 1.407 . S
C1004 C1003 1.366 . S
C1004 C1005 1.392 . S
C1004 H1032 0.930 . S
C1005 C1004 1.392 . S
C1005 C1006 1.398 . S
C1005 H1033 0.929 . S
C1006 C1005 1.398 . S
C1006 C1007 1.352 . S
C1007 C1006 1.352 . S
C1007 C1008 1.384 . S
C1007 H1034 0.930 . S
C1008 C1003 1.407 . S
C1008 C1007 1.384 . S
C1008 H1035 0.929 1_556 S
C1009 O1022 1.241 . S
C1009 O1023 1.273 . S
C1010 O1024 1.251 . S
C1010 O1025 1.268 . S
C1011 Nd1001 2.836 . S
C1011 C1012 1.498 . S
C1011 O1026 1.258 . S
C1011 O1027 1.239 . S
C1012 C1011 1.498 . S
C1012 C1013 1.366 . S
C1012 C1017 1.407 . S
C1013 C1012 1.366 . S
C1013 C1014 1.392 . S
C1013 H1036 0.930 . S
C1014 C1013 1.392 . S
C1014 C1015 1.398 . S
C1014 H1037 0.929 . S
C1015 C1014 1.398 . S
C1015 C1016 1.352 . S
C1016 C1015 1.352 . S
C1016 C1017 1.384 . S
C1016 H1038 0.930 . S
C1017 C1012 1.407 . S
C1017 C1016 1.384 . S
C1017 H1039 0.929 . S
C1018 O1028 1.241 . S
C1018 O1029 1.273 . S
C1019 O1030 1.251 . S
C1019 O1031 1.268 . S
O1020 Nd1000 2.500 . S
O1020 C1002 1.258 . S
O1021 Nd1000 2.492 . S
O1021 C1002 1.239 . S
O1022 Nd1000 2.487 . S
O1022 C1009 1.241 . S
O1023 Nd1000 2.682 . S
O1023 Nd1001 2.414 . S
O1023 C1009 1.273 . S
O1024 Nd1000 2.410 . S
O1024 C1010 1.251 . S
O1025 Nd1001 2.424 . S
O1025 C1010 1.268 . S
O1026 Nd1001 2.500 . S
O1026 C1011 1.258 . S
O1027 Nd1001 2.492 . S
O1027 C1011 1.239 . S
O1028 Nd1001 2.487 . S
O1028 C1018 1.241 . S
O1029 Nd1000 2.414 . S
O1029 Nd1001 2.682 . S
O1029 C1018 1.273 . S
O1030 Nd1001 2.410 . S
O1030 C1019 1.251 . S
O1031 Nd1000 2.424 . S
O1031 C1019 1.268 . S
H1032 C1004 0.930 . S
H1033 C1005 0.929 . S
H1034 C1007 0.930 . S
H1035 C1008 0.929 1_554 S
H1036 C1013 0.930 . S
H1037 C1014 0.929 . S
H1038 C1016 0.930 . S
H1039 C1017 0.929 . S
Nd1040 C1042 2.836 . S
Nd1040 O1060 2.500 . S
Nd1040 O1061 2.492 . S
Nd1040 O1062 2.487 . S
Nd1040 O1063 2.682 . S
Nd1040 O1064 2.410 . S
Nd1040 O1069 2.414 . S
Nd1040 O1071 2.424 . S
Nd1041 C1051 2.836 . S
Nd1041 O1063 2.414 . S
Nd1041 O1065 2.424 . S
Nd1041 O1066 2.500 . S
Nd1041 O1067 2.492 . S
Nd1041 O1068 2.487 . S
Nd1041 O1069 2.682 . S
Nd1041 O1070 2.410 . S
C1042 Nd1040 2.836 . S
C1042 C1043 1.498 . S
C1042 O1060 1.258 . S
C1042 O1061 1.239 . S
C1043 C1042 1.498 . S
C1043 C1044 1.366 . S
C1043 C1048 1.407 . S
C1044 C1043 1.366 . S
C1044 C1045 1.392 . S
C1044 H1072 0.930 . S
C1045 C1044 1.392 . S
C1045 C1046 1.398 . S
C1045 H1073 0.929 . S
C1046 C1045 1.398 . S
C1046 C1047 1.352 . S
C1047 C1046 1.352 . S
C1047 C1048 1.384 . S
C1047 H1074 0.930 . S
C1048 C1043 1.407 . S
C1048 C1047 1.384 . S
C1048 H1075 0.929 . S
C1049 O1062 1.241 . S
C1049 O1063 1.273 . S
C1050 O1064 1.251 . S
C1050 O1065 1.268 . S
C1051 Nd1041 2.836 . S
C1051 C1052 1.498 . S
C1051 O1066 1.258 . S
C1051 O1067 1.239 . S
C1052 C1051 1.498 . S
C1052 C1053 1.366 . S
C1052 C1057 1.407 . S
C1053 C1052 1.366 . S
C1053 C1054 1.392 . S
C1053 H1076 0.930 . S
C1054 C1053 1.392 . S
C1054 C1055 1.398 . S
C1054 H1077 0.929 . S
C1055 C1054 1.398 . S
C1055 C1056 1.352 . S
C1056 C1055 1.352 . S
C1056 C1057 1.384 . S
C1056 H1078 0.930 . S
C1057 C1052 1.407 . S
C1057 C1056 1.384 . S
C1057 H1079 0.929 . S
C1058 O1068 1.241 . S
C1058 O1069 1.273 . S
C1059 O1070 1.251 . S
C1059 O1071 1.268 . S
O1060 Nd1040 2.500 . S
O1060 C1042 1.258 . S
O1061 Nd1040 2.492 . S
O1061 C1042 1.239 . S
O1062 Nd1040 2.487 . S
O1062 C1049 1.241 . S
O1063 Nd1040 2.682 . S
O1063 Nd1041 2.414 . S
O1063 C1049 1.273 . S
O1064 Nd1040 2.410 . S
O1064 C1050 1.251 . S
O1065 Nd1041 2.424 . S
O1065 C1050 1.268 . S
O1066 Nd1041 2.500 . S
O1066 C1051 1.258 . S
O1067 Nd1041 2.492 . S
O1067 C1051 1.239 . S
O1068 Nd1041 2.487 . S
O1068 C1058 1.241 . S
O1069 Nd1040 2.414 . S
O1069 Nd1041 2.682 . S
O1069 C1058 1.273 . S
O1070 Nd1041 2.410 . S
O1070 C1059 1.251 . S
O1071 Nd1040 2.424 . S
O1071 C1059 1.268 . S
H1072 C1044 0.930 . S
H1073 C1045 0.929 . S
H1074 C1047 0.930 . S
H1075 C1048 0.929 . S
H1076 C1053 0.930 . S
H1077 C1054 0.929 . S
H1078 C1056 0.930 . S
H1079 C1057 0.929 . S
Nd1080 C1082 2.836 . S
Nd1080 O1100 2.500 . S
Nd1080 O1101 2.492 . S
Nd1080 O1102 2.487 . S
Nd1080 O1103 2.682 . S
Nd1080 O1104 2.410 . S
Nd1080 O1109 2.414 . S
Nd1080 O1111 2.424 1_556 S
Nd1081 C1091 2.836 . S
Nd1081 O1103 2.414 1_554 S
Nd1081 O1105 2.424 1_554 S
Nd1081 O1106 2.500 . S
Nd1081 O1107 2.492 . S
Nd1081 O1108 2.487 . S
Nd1081 O1109 2.682 1_554 S
Nd1081 O1110 2.410 . S
C1082 Nd1080 2.836 . S
C1082 C1083 1.498 . S
C1082 O1100 1.258 . S
C1082 O1101 1.239 . S
C1083 C1082 1.498 . S
C1083 C1084 1.366 . S
C1083 C1088 1.407 . S
C1084 C1083 1.366 . S
C1084 C1085 1.392 . S
C1084 H1112 0.930 . S
C1085 C1084 1.392 . S
C1085 C1086 1.398 . S
C1085 H1113 0.929 . S
C1086 C1085 1.398 . S
C1086 C1087 1.352 . S
C1087 C1086 1.352 . S
C1087 C1088 1.384 . S
C1087 H1114 0.930 . S
C1088 C1083 1.407 . S
C1088 C1087 1.384 . S
C1088 H1115 0.929 . S
C1089 O1102 1.241 . S
C1089 O1103 1.273 . S
C1090 O1104 1.251 . S
C1090 O1105 1.268 . S
C1091 Nd1081 2.836 . S
C1091 C1092 1.498 . S
C1091 O1106 1.258 . S
C1091 O1107 1.239 . S
C1092 C1091 1.498 . S
C1092 C1093 1.366 . S
C1092 C1097 1.407 . S
C1093 C1092 1.366 . S
C1093 C1094 1.392 . S
C1093 H1116 0.930 . S
C1094 C1093 1.392 . S
C1094 C1095 1.398 . S
C1094 H1117 0.929 . S
C1095 C1094 1.398 . S
C1095 C1096 1.352 . S
C1096 C1095 1.352 . S
C1096 C1097 1.384 . S
C1096 H1118 0.930 . S
C1097 C1092 1.407 . S
C1097 C1096 1.384 . S
C1097 H1119 0.929 . S
C1098 O1108 1.241 . S
C1098 O1109 1.273 1_554 S
C1099 O1110 1.251 . S
C1099 O1111 1.268 . S
O1100 Nd1080 2.500 . S
O1100 C1082 1.258 . S
O1101 Nd1080 2.492 . S
O1101 C1082 1.239 . S
O1102 Nd1080 2.487 . S
O1102 C1089 1.241 . S
O1103 Nd1080 2.682 . S
O1103 Nd1081 2.414 1_556 S
O1103 C1089 1.273 . S
O1104 Nd1080 2.410 . S
O1104 C1090 1.251 . S
O1105 Nd1081 2.424 1_556 S
O1105 C1090 1.268 . S
O1106 Nd1081 2.500 . S
O1106 C1091 1.258 . S
O1107 Nd1081 2.492 . S
O1107 C1091 1.239 . S
O1108 Nd1081 2.487 . S
O1108 C1098 1.241 . S
O1109 Nd1080 2.414 . S
O1109 Nd1081 2.682 1_556 S
O1109 C1098 1.273 1_556 S
O1110 Nd1081 2.410 . S
O1110 C1099 1.251 . S
O1111 Nd1080 2.424 1_554 S
O1111 C1099 1.268 . S
H1112 C1084 0.930 . S
H1113 C1085 0.929 . S
H1114 C1087 0.930 . S
H1115 C1088 0.929 . S
H1116 C1093 0.930 . S
H1117 C1094 0.929 . S
H1118 C1096 0.930 . S
H1119 C1097 0.929 . S
Nd1120 C1122 2.836 . S
Nd1120 O1140 2.500 . S
Nd1120 O1141 2.492 . S
Nd1120 O1142 2.487 . S
Nd1120 O1143 2.682 . S
Nd1120 O1144 2.410 . S
Nd1120 O1149 2.414 . S
Nd1120 O1151 2.424 . S
Nd1121 C1131 2.836 . S
Nd1121 O1143 2.414 . S
Nd1121 O1145 2.424 . S
Nd1121 O1146 2.500 . S
Nd1121 O1147 2.492 . S
Nd1121 O1148 2.487 . S
Nd1121 O1149 2.682 . S
Nd1121 O1150 2.410 . S
C1122 Nd1120 2.836 . S
C1122 C1123 1.498 1_545 S
C1122 O1140 1.258 . S
C1122 O1141 1.239 . S
C1123 C1122 1.498 1_565 S
C1123 C1124 1.366 . S
C1123 C1128 1.407 . S
C1124 C1123 1.366 . S
C1124 C1125 1.392 . S
C1124 H1152 0.930 . S
C1125 C1124 1.392 . S
C1125 C1126 1.398 . S
C1125 H1153 0.929 . S
C1126 C1125 1.398 . S
C1126 C1127 1.352 . S
C1127 C1126 1.352 . S
C1127 C1128 1.384 . S
C1127 H1154 0.930 . S
C1128 C1123 1.407 . S
C1128 C1127 1.384 . S
C1128 H1155 0.929 1_565 S
C1129 O1142 1.241 . S
C1129 O1143 1.273 . S
C1130 O1144 1.251 . S
C1130 O1145 1.268 . S
C1131 Nd1121 2.836 . S
C1131 C1132 1.498 . S
C1131 O1146 1.258 . S
C1131 O1147 1.239 . S
C1132 C1131 1.498 . S
C1132 C1133 1.366 . S
C1132 C1137 1.407 . S
C1133 C1132 1.366 . S
C1133 C1134 1.392 . S
C1133 H1156 0.930 . S
C1134 C1133 1.392 . S
C1134 C1135 1.398 . S
C1134 H1157 0.929 . S
C1135 C1134 1.398 . S
C1135 C1136 1.352 . S
C1136 C1135 1.352 . S
C1136 C1137 1.384 . S
C1136 H1158 0.930 . S
C1137 C1132 1.407 . S
C1137 C1136 1.384 . S
C1137 H1159 0.929 . S
C1138 O1148 1.241 . S
C1138 O1149 1.273 . S
C1139 O1150 1.251 . S
C1139 O1151 1.268 . S
O1140 Nd1120 2.500 . S
O1140 C1122 1.258 . S
O1141 Nd1120 2.492 . S
O1141 C1122 1.239 . S
O1142 Nd1120 2.487 . S
O1142 C1129 1.241 . S
O1143 Nd1120 2.682 . S
O1143 Nd1121 2.414 . S
O1143 C1129 1.273 . S
O1144 Nd1120 2.410 . S
O1144 C1130 1.251 . S
O1145 Nd1121 2.424 . S
O1145 C1130 1.268 . S
O1146 Nd1121 2.500 . S
O1146 C1131 1.258 . S
O1147 Nd1121 2.492 . S
O1147 C1131 1.239 . S
O1148 Nd1121 2.487 . S
O1148 C1138 1.241 . S
O1149 Nd1120 2.414 . S
O1149 Nd1121 2.682 . S
O1149 C1138 1.273 . S
O1150 Nd1121 2.410 . S
O1150 C1139 1.251 . S
O1151 Nd1120 2.424 . S
O1151 C1139 1.268 . S
H1152 C1124 0.930 . S
H1153 C1125 0.929 . S
H1154 C1127 0.930 . S
H1155 C1128 0.929 1_545 S
H1156 C1133 0.930 . S
H1157 C1134 0.929 . S
H1158 C1136 0.930 . S
H1159 C1137 0.929 . S
Nd1160 C1162 2.836 . S
Nd1160 O1180 2.500 . S
Nd1160 O1181 2.492 . S
Nd1160 O1182 2.487 . S
Nd1160 O1183 2.682 . S
Nd1160 O1184 2.410 . S
Nd1160 O1189 2.414 . S
Nd1160 O1191 2.424 . S
Nd1161 C1171 2.836 . S
Nd1161 O1183 2.414 . S
Nd1161 O1185 2.424 . S
Nd1161 O1186 2.500 . S
Nd1161 O1187 2.492 . S
Nd1161 O1188 2.487 . S
Nd1161 O1189 2.682 . S
Nd1161 O1190 2.410 . S
C1162 Nd1160 2.836 . S
C1162 C1163 1.498 . S
C1162 O1180 1.258 . S
C1162 O1181 1.239 . S
C1163 C1162 1.498 . S
C1163 C1164 1.366 . S
C1163 C1168 1.407 . S
C1164 C1163 1.366 . S
C1164 C1165 1.392 . S
C1164 H1192 0.930 . S
C1165 C1164 1.392 . S
C1165 C1166 1.398 . S
C1165 H1193 0.929 . S
C1166 C1165 1.398 . S
C1166 C1167 1.352 . S
C1167 C1166 1.352 . S
C1167 C1168 1.384 . S
C1167 H1194 0.930 . S
C1168 C1163 1.407 . S
C1168 C1167 1.384 . S
C1168 H1195 0.929 . S
C1169 O1182 1.241 . S
C1169 O1183 1.273 . S
C1170 O1184 1.251 . S
C1170 O1185 1.268 . S
C1171 Nd1161 2.836 . S
C1171 C1172 1.498 . S
C1171 O1186 1.258 . S
C1171 O1187 1.239 . S
C1172 C1171 1.498 . S
C1172 C1173 1.366 . S
C1172 C1177 1.407 . S
C1173 C1172 1.366 . S
C1173 C1174 1.392 . S
C1173 H1196 0.930 . S
C1174 C1173 1.392 . S
C1174 C1175 1.398 . S
C1174 H1197 0.929 . S
C1175 C1174 1.398 . S
C1175 C1176 1.352 . S
C1176 C1175 1.352 . S
C1176 C1177 1.384 . S
C1176 H1198 0.930 . S
C1177 C1172 1.407 . S
C1177 C1176 1.384 . S
C1177 H1199 0.929 . S
C1178 O1188 1.241 . S
C1178 O1189 1.273 . S
C1179 O1190 1.251 . S
C1179 O1191 1.268 . S
O1180 Nd1160 2.500 . S
O1180 C1162 1.258 . S
O1181 Nd1160 2.492 . S
O1181 C1162 1.239 . S
O1182 Nd1160 2.487 . S
O1182 C1169 1.241 . S
O1183 Nd1160 2.682 . S
O1183 Nd1161 2.414 . S
O1183 C1169 1.273 . S
O1184 Nd1160 2.410 . S
O1184 C1170 1.251 . S
O1185 Nd1161 2.424 . S
O1185 C1170 1.268 . S
O1186 Nd1161 2.500 . S
O1186 C1171 1.258 . S
O1187 Nd1161 2.492 . S
O1187 C1171 1.239 . S
O1188 Nd1161 2.487 . S
O1188 C1178 1.241 . S
O1189 Nd1160 2.414 . S
O1189 Nd1161 2.682 . S
O1189 C1178 1.273 . S
O1190 Nd1161 2.410 . S
O1190 C1179 1.251 . S
O1191 Nd1160 2.424 . S
O1191 C1179 1.268 . S
H1192 C1164 0.930 . S
H1193 C1165 0.929 . S
H1194 C1167 0.930 . S
H1195 C1168 0.929 . S
H1196 C1173 0.930 . S
H1197 C1174 0.929 . S
H1198 C1176 0.930 . S
H1199 C1177 0.929 . S
Nd1200 C1202 2.836 . S
Nd1200 O1220 2.500 . S
Nd1200 O1221 2.492 . S
Nd1200 O1222 2.487 . S
Nd1200 O1223 2.682 . S
Nd1200 O1224 2.410 . S
Nd1200 O1229 2.414 . S
Nd1200 O1231 2.424 . S
Nd1201 C1211 2.836 . S
Nd1201 O1223 2.414 . S
Nd1201 O1225 2.424 . S
Nd1201 O1226 2.500 . S
Nd1201 O1227 2.492 . S
Nd1201 O1228 2.487 . S
Nd1201 O1229 2.682 . S
Nd1201 O1230 2.410 . S
C1202 Nd1200 2.836 . S
C1202 C1203 1.498 . S
C1202 O1220 1.258 . S
C1202 O1221 1.239 . S
C1203 C1202 1.498 . S
C1203 C1204 1.366 . S
C1203 C1208 1.407 . S
C1204 C1203 1.366 . S
C1204 C1205 1.392 . S
C1204 H1232 0.930 . S
C1205 C1204 1.392 . S
C1205 C1206 1.398 . S
C1205 H1233 0.929 . S
C1206 C1205 1.398 . S
C1206 C1207 1.352 . S
C1207 C1206 1.352 . S
C1207 C1208 1.384 . S
C1207 H1234 0.930 . S
C1208 C1203 1.407 . S
C1208 C1207 1.384 . S
C1208 H1235 0.929 . S
C1209 O1222 1.241 . S
C1209 O1223 1.273 . S
C1210 O1224 1.251 . S
C1210 O1225 1.268 . S
C1211 Nd1201 2.836 . S
C1211 C1212 1.498 . S
C1211 O1226 1.258 . S
C1211 O1227 1.239 . S
C1212 C1211 1.498 . S
C1212 C1213 1.366 . S
C1212 C1217 1.407 . S
C1213 C1212 1.366 . S
C1213 C1214 1.392 1_565 S
C1213 H1236 0.930 . S
C1214 C1213 1.392 1_545 S
C1214 C1215 1.399 . S
C1214 H1237 0.929 . S
C1215 C1214 1.399 . S
C1215 C1216 1.350 1_545 S
C1216 C1215 1.350 1_565 S
C1216 C1217 1.384 . S
C1216 H1238 0.930 . S
C1217 C1212 1.407 . S
C1217 C1216 1.384 . S
C1217 H1239 0.929 . S
C1218 O1228 1.241 . S
C1218 O1229 1.273 . S
C1219 O1230 1.251 . S
C1219 O1231 1.268 . S
O1220 Nd1200 2.500 . S
O1220 C1202 1.258 . S
O1221 Nd1200 2.492 . S
O1221 C1202 1.239 . S
O1222 Nd1200 2.487 . S
O1222 C1209 1.241 . S
O1223 Nd1200 2.682 . S
O1223 Nd1201 2.414 . S
O1223 C1209 1.273 . S
O1224 Nd1200 2.410 . S
O1224 C1210 1.251 . S
O1225 Nd1201 2.424 . S
O1225 C1210 1.268 . S
O1226 Nd1201 2.500 . S
O1226 C1211 1.258 . S
O1227 Nd1201 2.492 . S
O1227 C1211 1.239 . S
O1228 Nd1201 2.487 . S
O1228 C1218 1.241 . S
O1229 Nd1200 2.414 . S
O1229 Nd1201 2.682 . S
O1229 C1218 1.273 . S
O1230 Nd1201 2.410 . S
O1230 C1219 1.251 . S
O1231 Nd1200 2.424 . S
O1231 C1219 1.268 . S
H1232 C1204 0.930 . S
H1233 C1205 0.929 . S
H1234 C1207 0.930 . S
H1235 C1208 0.929 . S
H1236 C1213 0.930 . S
H1237 C1214 0.929 . S
H1238 C1216 0.930 . S
H1239 C1217 0.929 . S
Nd1240 C1242 2.836 . S
Nd1240 O1260 2.500 . S
Nd1240 O1261 2.492 . S
Nd1240 O1262 2.487 . S
Nd1240 O1263 2.682 . S
Nd1240 O1264 2.410 . S
Nd1240 O1269 2.414 . S
Nd1240 O1271 2.444 . S
Nd1241 C1251 2.836 1_655 S
Nd1241 O1263 2.414 . S
Nd1241 O1265 2.424 . S
Nd1241 O1266 2.500 . S
Nd1241 O1267 2.492 1_655 S
Nd1241 O1268 2.487 1_655 S
Nd1241 O1269 2.682 . S
Nd1241 O1270 2.410 1_655 S
C1242 Nd1240 2.836 . S
C1242 C1243 1.498 . S
C1242 O1260 1.258 . S
C1242 O1261 1.239 . S
C1243 C1242 1.498 . S
C1243 C1244 1.366 . S
C1243 C1248 1.407 . S
C1244 C1243 1.366 . S
C1244 C1245 1.392 . S
C1244 H1272 0.930 . S
C1245 C1244 1.392 . S
C1245 C1246 1.398 . S
C1245 H1273 0.929 . S
C1246 C1245 1.398 . S
C1246 C1247 1.352 . S
C1247 C1246 1.352 . S
C1247 C1248 1.384 . S
C1247 H1274 0.930 . S
C1248 C1243 1.407 . S
C1248 C1247 1.384 . S
C1248 H1275 0.929 . S
C1249 O1262 1.241 . S
C1249 O1263 1.273 . S
C1250 O1264 1.251 . S
C1250 O1265 1.268 . S
C1251 Nd1241 2.836 1_455 S
C1251 C1252 1.498 . S
C1251 O1266 1.258 1_455 S
C1251 O1267 1.239 . S
C1252 C1251 1.498 . S
C1252 C1253 1.366 . S
C1252 C1257 1.407 . S
C1253 C1252 1.366 . S
C1253 C1254 1.392 . S
C1253 H1276 0.930 . S
C1254 C1253 1.392 . S
C1254 C1255 1.398 . S
C1254 H1277 0.929 . S
C1255 C1254 1.398 . S
C1255 C1256 1.352 . S
C1256 C1255 1.352 . S
C1256 C1257 1.384 . S
C1256 H1278 0.930 . S
C1257 C1252 1.407 . S
C1257 C1256 1.384 . S
C1257 H1279 0.929 . S
C1258 O1268 1.241 1_655 S
C1258 O1269 1.273 . S
C1259 O1270 1.251 . S
C1259 O1271 1.255 1_455 S
O1260 Nd1240 2.500 . S
O1260 C1242 1.258 . S
O1261 Nd1240 2.492 . S
O1261 C1242 1.239 . S
O1262 Nd1240 2.487 . S
O1262 C1249 1.241 . S
O1263 Nd1240 2.682 . S
O1263 Nd1241 2.414 . S
O1263 C1249 1.273 . S
O1264 Nd1240 2.410 . S
O1264 C1250 1.251 . S
O1265 Nd1241 2.424 . S
O1265 C1250 1.268 . S
O1266 Nd1241 2.500 . S
O1266 C1251 1.258 1_655 S
O1267 Nd1241 2.492 1_455 S
O1267 C1251 1.239 . S
O1268 Nd1241 2.487 1_455 S
O1268 C1258 1.241 1_455 S
O1269 Nd1240 2.414 . S
O1269 Nd1241 2.682 . S
O1269 C1258 1.273 . S
O1270 Nd1241 2.410 1_455 S
O1270 C1259 1.251 . S
O1271 Nd1240 2.444 . S
O1271 C1259 1.255 1_655 S
H1272 C1244 0.930 . S
H1273 C1245 0.929 . S
H1274 C1247 0.930 . S
H1275 C1248 0.929 . S
H1276 C1253 0.930 . S
H1277 C1254 0.929 . S
H1278 C1256 0.930 . S
H1279 C1257 0.929 . S
Nd1280 C1282 2.836 . S
Nd1280 O1300 2.500 . S
Nd1280 O1301 2.492 . S
Nd1280 O1302 2.487 . S
Nd1280 O1303 2.682 . S
Nd1280 O1304 2.410 . S
Nd1280 O1309 2.414 . S
Nd1280 O1311 2.424 . S
Nd1281 C1291 2.836 . S
Nd1281 O1303 2.414 . S
Nd1281 O1305 2.424 . S
Nd1281 O1306 2.500 . S
Nd1281 O1307 2.492 . S
Nd1281 O1308 2.487 . S
Nd1281 O1309 2.682 . S
Nd1281 O1310 2.410 . S
C1282 Nd1280 2.836 . S
C1282 C1283 1.498 . S
C1282 O1300 1.258 . S
C1282 O1301 1.239 . S
C1283 C1282 1.498 . S
C1283 C1284 1.366 . S
C1283 C1288 1.407 . S
C1284 C1283 1.366 . S
C1284 C1285 1.392 . S
C1284 H1312 0.930 . S
C1285 C1284 1.392 . S
C1285 C1286 1.398 . S
C1285 H1313 0.929 . S
C1286 C1285 1.398 . S
C1286 C1287 1.352 . S
C1287 C1286 1.352 . S
C1287 C1288 1.384 . S
C1287 H1314 0.930 . S
C1288 C1283 1.407 . S
C1288 C1287 1.384 . S
C1288 H1315 0.929 . S
C1289 O1302 1.241 . S
C1289 O1303 1.273 . S
C1290 O1304 1.251 . S
C1290 O1305 1.268 . S
C1291 Nd1281 2.836 . S
C1291 C1292 1.498 . S
C1291 O1306 1.258 . S
C1291 O1307 1.239 . S
C1292 C1291 1.498 . S
C1292 C1293 1.366 . S
C1292 C1297 1.407 . S
C1293 C1292 1.366 . S
C1293 C1294 1.392 . S
C1293 H1316 0.930 . S
C1294 C1293 1.392 . S
C1294 C1295 1.398 . S
C1294 H1317 0.929 . S
C1295 C1294 1.398 . S
C1295 C1296 1.352 . S
C1296 C1295 1.352 . S
C1296 C1297 1.384 . S
C1296 H1318 0.930 . S
C1297 C1292 1.407 . S
C1297 C1296 1.384 . S
C1297 H1319 0.929 . S
C1298 O1308 1.241 . S
C1298 O1309 1.273 . S
C1299 O1310 1.251 . S
C1299 O1311 1.268 . S
O1300 Nd1280 2.500 . S
O1300 C1282 1.258 . S
O1301 Nd1280 2.492 . S
O1301 C1282 1.239 . S
O1302 Nd1280 2.487 . S
O1302 C1289 1.241 . S
O1303 Nd1280 2.682 . S
O1303 Nd1281 2.414 . S
O1303 C1289 1.273 . S
O1304 Nd1280 2.410 . S
O1304 C1290 1.251 . S
O1305 Nd1281 2.424 . S
O1305 C1290 1.268 . S
O1306 Nd1281 2.500 . S
O1306 C1291 1.258 . S
O1307 Nd1281 2.492 . S
O1307 C1291 1.239 . S
O1308 Nd1281 2.487 . S
O1308 C1298 1.241 . S
O1309 Nd1280 2.414 . S
O1309 Nd1281 2.682 . S
O1309 C1298 1.273 . S
O1310 Nd1281 2.410 . S
O1310 C1299 1.251 . S
O1311 Nd1280 2.424 . S
O1311 C1299 1.268 . S
H1312 C1284 0.930 . S
H1313 C1285 0.929 . S
H1314 C1287 0.930 . S
H1315 C1288 0.929 . S
H1316 C1293 0.930 . S
H1317 C1294 0.929 . S
H1318 C1296 0.930 . S
H1319 C1297 0.929 . S
Nd1320 C1322 2.836 . S
Nd1320 O1340 2.500 . S
Nd1320 O1341 2.492 . S
Nd1320 O1342 2.487 . S
Nd1320 O1343 2.682 . S
Nd1320 O1344 2.410 . S
Nd1320 O1349 2.414 . S
Nd1320 O1351 2.424 . S
Nd1321 C1331 2.836 . S
Nd1321 O1343 2.414 . S
Nd1321 O1345 2.424 . S
Nd1321 O1346 2.500 . S
Nd1321 O1347 2.492 . S
Nd1321 O1348 2.487 . S
Nd1321 O1349 2.682 . S
Nd1321 O1350 2.410 . S
C1322 Nd1320 2.836 . S
C1322 C1323 1.498 . S
C1322 O1340 1.258 . S
C1322 O1341 1.239 . S
C1323 C1322 1.498 . S
C1323 C1324 1.366 . S
C1323 C1328 1.407 . S
C1324 C1323 1.366 . S
C1324 C1325 1.392 . S
C1324 H1352 0.930 . S
C1325 C1324 1.392 . S
C1325 C1326 1.398 . S
C1325 H1353 0.929 . S
C1326 C1325 1.398 . S
C1326 C1327 1.352 . S
C1327 C1326 1.352 . S
C1327 C1328 1.384 . S
C1327 H1354 0.930 . S
C1328 C1323 1.407 . S
C1328 C1327 1.384 . S
C1328 H1355 0.929 . S
C1329 O1342 1.241 . S
C1329 O1343 1.273 . S
C1330 O1344 1.251 . S
C1330 O1345 1.268 . S
C1331 Nd1321 2.836 . S
C1331 C1332 1.498 . S
C1331 O1346 1.258 . S
C1331 O1347 1.239 . S
C1332 C1331 1.498 . S
C1332 C1333 1.366 . S
C1332 C1337 1.407 . S
C1333 C1332 1.366 . S
C1333 C1334 1.392 . S
C1333 H1356 0.930 . S
C1334 C1333 1.392 . S
C1334 C1335 1.398 . S
C1334 H1357 0.929 . S
C1335 C1334 1.398 . S
C1335 C1336 1.352 . S
C1336 C1335 1.352 . S
C1336 C1337 1.384 . S
C1336 H1358 0.902 1_556 S
C1337 C1332 1.407 . S
C1337 C1336 1.384 . S
C1337 H1359 0.929 . S
C1338 O1348 1.241 . S
C1338 O1349 1.273 . S
C1339 O1350 1.251 . S
C1339 O1351 1.268 . S
O1340 Nd1320 2.500 . S
O1340 C1322 1.258 . S
O1341 Nd1320 2.492 . S
O1341 C1322 1.239 . S
O1342 Nd1320 2.487 . S
O1342 C1329 1.241 . S
O1343 Nd1320 2.682 . S
O1343 Nd1321 2.414 . S
O1343 C1329 1.273 . S
O1344 Nd1320 2.410 . S
O1344 C1330 1.251 . S
O1345 Nd1321 2.424 . S
O1345 C1330 1.268 . S
O1346 Nd1321 2.500 . S
O1346 C1331 1.258 . S
O1347 Nd1321 2.492 . S
O1347 C1331 1.239 . S
O1348 Nd1321 2.487 . S
O1348 C1338 1.241 . S
O1349 Nd1320 2.414 . S
O1349 Nd1321 2.682 . S
O1349 C1338 1.273 . S
O1350 Nd1321 2.410 . S
O1350 C1339 1.251 . S
O1351 Nd1320 2.424 . S
O1351 C1339 1.268 . S
H1352 C1324 0.930 . S
H1353 C1325 0.929 . S
H1354 C1327 0.930 . S
H1355 C1328 0.929 . S
H1356 C1333 0.930 . S
H1357 C1334 0.929 . S
H1358 C1336 0.902 1_554 S
H1359 C1337 0.929 . S
Nd1360 C1362 2.836 . S
Nd1360 O1380 2.500 . S
Nd1360 O1381 2.492 . S
Nd1360 O1382 2.487 . S
Nd1360 O1383 2.682 . S
Nd1360 O1384 2.410 . S
Nd1360 O1389 2.414 . S
Nd1360 O1391 2.424 . S
Nd1361 C1371 2.836 . S
Nd1361 O1383 2.414 . S
Nd1361 O1385 2.424 . S
Nd1361 O1386 2.500 . S
Nd1361 O1387 2.492 . S
Nd1361 O1388 2.487 . S
Nd1361 O1389 2.682 . S
Nd1361 O1390 2.410 . S
C1362 Nd1360 2.836 . S
C1362 C1363 1.498 . S
C1362 O1380 1.258 . S
C1362 O1381 1.239 . S
C1363 C1362 1.498 . S
C1363 C1364 1.366 . S
C1363 C1368 1.407 . S
C1364 C1363 1.366 . S
C1364 C1365 1.392 . S
C1364 H1392 0.930 . S
C1365 C1364 1.392 . S
C1365 C1366 1.398 . S
C1365 H1393 0.929 . S
C1366 C1365 1.398 . S
C1366 C1367 1.352 . S
C1367 C1366 1.352 . S
C1367 C1368 1.384 . S
C1367 H1394 0.930 . S
C1368 C1363 1.407 . S
C1368 C1367 1.384 . S
C1368 H1395 0.929 . S
C1369 O1382 1.241 . S
C1369 O1383 1.273 . S
C1370 O1384 1.251 . S
C1370 O1385 1.268 . S
C1371 Nd1361 2.836 . S
C1371 C1372 1.498 . S
C1371 O1386 1.258 . S
C1371 O1387 1.239 . S
C1372 C1371 1.498 . S
C1372 C1373 1.366 . S
C1372 C1377 1.407 . S
C1373 C1372 1.366 . S
C1373 C1374 1.392 . S
C1373 H1396 0.930 . S
C1374 C1373 1.392 . S
C1374 C1375 1.398 . S
C1374 H1397 0.929 . S
C1375 C1374 1.398 . S
C1375 C1376 1.352 . S
C1376 C1375 1.352 . S
C1376 C1377 1.384 . S
C1376 H1398 0.930 . S
C1377 C1372 1.407 . S
C1377 C1376 1.384 . S
C1377 H1399 0.929 . S
C1378 O1388 1.241 . S
C1378 O1389 1.273 . S
C1379 O1390 1.251 . S
C1379 O1391 1.268 . S
O1380 Nd1360 2.500 . S
O1380 C1362 1.258 . S
O1381 Nd1360 2.492 . S
O1381 C1362 1.239 . S
O1382 Nd1360 2.487 . S
O1382 C1369 1.241 . S
O1383 Nd1360 2.682 . S
O1383 Nd1361 2.414 . S
O1383 C1369 1.273 . S
O1384 Nd1360 2.410 . S
O1384 C1370 1.251 . S
O1385 Nd1361 2.424 . S
O1385 C1370 1.268 . S
O1386 Nd1361 2.500 . S
O1386 C1371 1.258 . S
O1387 Nd1361 2.492 . S
O1387 C1371 1.239 . S
O1388 Nd1361 2.487 . S
O1388 C1378 1.241 . S
O1389 Nd1360 2.414 . S
O1389 Nd1361 2.682 . S
O1389 C1378 1.273 . S
O1390 Nd1361 2.410 . S
O1390 C1379 1.251 . S
O1391 Nd1360 2.424 . S
O1391 C1379 1.268 . S
H1392 C1364 0.930 . S
H1393 C1365 0.929 . S
H1394 C1367 0.930 . S
H1395 C1368 0.929 . S
H1396 C1373 0.930 . S
H1397 C1374 0.929 . S
H1398 C1376 0.930 . S
H1399 C1377 0.929 . S
Nd1400 C1402 2.836 . S
Nd1400 O1420 2.500 . S
Nd1400 O1421 2.492 . S
Nd1400 O1422 2.487 . S
Nd1400 O1423 2.682 . S
Nd1400 O1424 2.410 . S
Nd1400 O1429 2.414 . S
Nd1400 O1431 2.424 . S
Nd1401 C1411 2.836 . S
Nd1401 O1423 2.414 . S
Nd1401 O1425 2.424 . S
Nd1401 O1426 2.500 . S
Nd1401 O1427 2.492 . S
Nd1401 O1428 2.487 . S
Nd1401 O1429 2.682 . S
Nd1401 O1430 2.410 . S
C1402 Nd1400 2.836 . S
C1402 C1403 1.498 . S
C1402 O1420 1.258 . S
C1402 O1421 1.239 . S
C1403 C1402 1.498 . S
C1403 C1404 1.366 . S
C1403 C1408 1.407 . S
C1404 C1403 1.366 . S
C1404 C1405 1.392 . S
C1404 H1432 0.930 . S
C1405 C1404 1.392 . S
C1405 C1406 1.398 . S
C1405 H1433 0.929 . S
C1406 C1405 1.398 . S
C1406 C1407 1.352 . S
C1407 C1406 1.352 . S
C1407 C1408 1.384 . S
C1407 H1434 0.930 . S
C1408 C1403 1.407 . S
C1408 C1407 1.384 . S
C1408 H1435 0.929 . S
C1409 O1422 1.241 . S
C1409 O1423 1.273 . S
C1410 O1424 1.251 . S
C1410 O1425 1.268 . S
C1411 Nd1401 2.836 . S
C1411 C1412 1.498 . S
C1411 O1426 1.258 . S
C1411 O1427 1.239 . S
C1412 C1411 1.498 . S
C1412 C1413 1.366 . S
C1412 C1417 1.407 . S
C1413 C1412 1.366 . S
C1413 C1414 1.392 . S
C1413 H1436 0.930 . S
C1414 C1413 1.392 . S
C1414 C1415 1.398 . S
C1414 H1437 0.929 . S
C1415 C1414 1.398 . S
C1415 C1416 1.352 . S
C1416 C1415 1.352 . S
C1416 C1417 1.384 . S
C1416 H1438 0.930 . S
C1417 C1412 1.407 . S
C1417 C1416 1.384 . S
C1417 H1439 0.929 . S
C1418 O1428 1.241 . S
C1418 O1429 1.273 . S
C1419 O1430 1.251 . S
C1419 O1431 1.268 . S
O1420 Nd1400 2.500 . S
O1420 C1402 1.258 . S
O1421 Nd1400 2.492 . S
O1421 C1402 1.239 . S
O1422 Nd1400 2.487 . S
O1422 C1409 1.241 . S
O1423 Nd1400 2.682 . S
O1423 Nd1401 2.414 . S
O1423 C1409 1.273 . S
O1424 Nd1400 2.410 . S
O1424 C1410 1.251 . S
O1425 Nd1401 2.424 . S
O1425 C1410 1.268 . S
O1426 Nd1401 2.500 . S
O1426 C1411 1.258 . S
O1427 Nd1401 2.492 . S
O1427 C1411 1.239 . S
O1428 Nd1401 2.487 . S
O1428 C1418 1.241 . S
O1429 Nd1400 2.414 . S
O1429 Nd1401 2.682 . S
O1429 C1418 1.273 . S
O1430 Nd1401 2.410 . S
O1430 C1419 1.251 . S
O1431 Nd1400 2.424 . S
O1431 C1419 1.268 . S
H1432 C1404 0.930 . S
H1433 C1405 0.929 . S
H1434 C1407 0.930 . S
H1435 C1408 0.929 . S
H1436 C1413 0.930 . S
H1437 C1414 0.929 . S
H1438 C1416 0.930 . S
H1439 C1417 0.929 . S
Nd1440 C1442 2.836 . S
Nd1440 O1460 2.500 . S
Nd1440 O1461 2.492 . S
Nd1440 O1462 2.487 . S
Nd1440 O1463 2.682 . S
Nd1440 O1464 2.410 . S
Nd1440 O1469 2.414 . S
Nd1440 O1471 2.424 . S
Nd1441 C1451 2.836 . S
Nd1441 O1463 2.414 . S
Nd1441 O1465 2.424 . S
Nd1441 O1466 2.500 . S
Nd1441 O1467 2.492 . S
Nd1441 O1468 2.487 . S
Nd1441 O1469 2.682 . S
Nd1441 O1470 2.410 . S
C1442 Nd1440 2.836 . S
C1442 C1443 1.498 . S
C1442 O1460 1.258 . S
C1442 O1461 1.239 . S
C1443 C1442 1.498 . S
C1443 C1444 1.366 . S
C1443 C1448 1.407 . S
C1444 C1443 1.366 . S
C1444 C1445 1.392 . S
C1444 H1472 0.930 . S
C1445 C1444 1.392 . S
C1445 C1446 1.398 . S
C1445 H1473 0.929 . S
C1446 C1445 1.398 . S
C1446 C1447 1.352 . S
C1447 C1446 1.352 . S
C1447 C1448 1.384 . S
C1447 H1474 0.930 . S
C1448 C1443 1.407 . S
C1448 C1447 1.384 . S
C1448 H1475 0.929 . S
C1449 O1462 1.241 . S
C1449 O1463 1.273 . S
C1450 O1464 1.251 . S
C1450 O1465 1.268 . S
C1451 Nd1441 2.836 . S
C1451 C1452 1.498 . S
C1451 O1466 1.258 . S
C1451 O1467 1.239 . S
C1452 C1451 1.498 . S
C1452 C1453 1.366 . S
C1452 C1457 1.407 . S
C1453 C1452 1.366 . S
C1453 C1454 1.392 . S
C1453 H1476 0.930 . S
C1454 C1453 1.392 . S
C1454 C1455 1.398 . S
C1454 H1477 0.929 . S
C1455 C1454 1.398 . S
C1455 C1456 1.352 . S
C1456 C1455 1.352 . S
C1456 C1457 1.384 . S
C1456 H1478 0.930 . S
C1457 C1452 1.407 . S
C1457 C1456 1.384 . S
C1457 H1479 0.929 . S
C1458 O1468 1.241 . S
C1458 O1469 1.273 . S
C1459 O1470 1.251 . S
C1459 O1471 1.268 . S
O1460 Nd1440 2.500 . S
O1460 C1442 1.258 . S
O1461 Nd1440 2.492 . S
O1461 C1442 1.239 . S
O1462 Nd1440 2.487 . S
O1462 C1449 1.241 . S
O1463 Nd1440 2.682 . S
O1463 Nd1441 2.414 . S
O1463 C1449 1.273 . S
O1464 Nd1440 2.410 . S
O1464 C1450 1.251 . S
O1465 Nd1441 2.424 . S
O1465 C1450 1.268 . S
O1466 Nd1441 2.500 . S
O1466 C1451 1.258 . S
O1467 Nd1441 2.492 . S
O1467 C1451 1.239 . S
O1468 Nd1441 2.487 . S
O1468 C1458 1.241 . S
O1469 Nd1440 2.414 . S
O1469 Nd1441 2.682 . S
O1469 C1458 1.273 . S
O1470 Nd1441 2.410 . S
O1470 C1459 1.251 . S
O1471 Nd1440 2.424 . S
O1471 C1459 1.268 . S
H1472 C1444 0.930 . S
H1473 C1445 0.929 . S
H1474 C1447 0.930 . S
H1475 C1448 0.929 . S
H1476 C1453 0.930 . S
H1477 C1454 0.929 . S
H1478 C1456 0.930 . S
H1479 C1457 0.929 . S
Nd1480 C1482 2.836 . S
Nd1480 O1500 2.500 . S
Nd1480 O1501 2.492 . S
Nd1480 O1502 2.487 . S
Nd1480 O1503 2.682 . S
Nd1480 O1504 2.410 . S
Nd1480 O1509 2.414 . S
Nd1480 O1511 2.424 . S
Nd1481 C1491 2.836 . S
Nd1481 O1503 2.414 . S
Nd1481 O1505 2.424 . S
Nd1481 O1506 2.500 . S
Nd1481 O1507 2.492 . S
Nd1481 O1508 2.487 . S
Nd1481 O1509 2.682 . S
Nd1481 O1510 2.410 . S
C1482 Nd1480 2.836 . S
C1482 C1483 1.498 . S
C1482 O1500 1.258 . S
C1482 O1501 1.239 . S
C1483 C1482 1.498 . S
C1483 C1484 1.366 . S
C1483 C1488 1.407 . S
C1484 C1483 1.366 . S
C1484 C1485 1.392 . S
C1484 H1512 0.930 . S
C1485 C1484 1.392 . S
C1485 C1486 1.398 . S
C1485 H1513 0.929 . S
C1486 C1485 1.398 . S
C1486 C1487 1.352 . S
C1487 C1486 1.352 . S
C1487 C1488 1.384 . S
C1487 H1514 0.930 . S
C1488 C1483 1.407 . S
C1488 C1487 1.384 . S
C1488 H1515 0.929 . S
C1489 O1502 1.241 . S
C1489 O1503 1.273 . S
C1490 O1504 1.251 . S
C1490 O1505 1.268 . S
C1491 Nd1481 2.836 . S
C1491 C1492 1.498 . S
C1491 O1506 1.258 . S
C1491 O1507 1.239 . S
C1492 C1491 1.498 . S
C1492 C1493 1.366 . S
C1492 C1497 1.407 . S
C1493 C1492 1.366 . S
C1493 C1494 1.392 . S
C1493 H1516 0.930 . S
C1494 C1493 1.392 . S
C1494 C1495 1.398 . S
C1494 H1517 0.929 . S
C1495 C1494 1.398 . S
C1495 C1496 1.352 . S
C1496 C1495 1.352 . S
C1496 C1497 1.384 . S
C1496 H1518 0.930 . S
C1497 C1492 1.407 . S
C1497 C1496 1.384 . S
C1497 H1519 0.929 . S
C1498 O1508 1.241 . S
C1498 O1509 1.273 . S
C1499 O1510 1.251 . S
C1499 O1511 1.268 . S
O1500 Nd1480 2.500 . S
O1500 C1482 1.258 . S
O1501 Nd1480 2.492 . S
O1501 C1482 1.239 . S
O1502 Nd1480 2.487 . S
O1502 C1489 1.241 . S
O1503 Nd1480 2.682 . S
O1503 Nd1481 2.414 . S
O1503 C1489 1.273 . S
O1504 Nd1480 2.410 . S
O1504 C1490 1.251 . S
O1505 Nd1481 2.424 . S
O1505 C1490 1.268 . S
O1506 Nd1481 2.500 . S
O1506 C1491 1.258 . S
O1507 Nd1481 2.492 . S
O1507 C1491 1.239 . S
O1508 Nd1481 2.487 . S
O1508 C1498 1.241 . S
O1509 Nd1480 2.414 . S
O1509 Nd1481 2.682 . S
O1509 C1498 1.273 . S
O1510 Nd1481 2.410 . S
O1510 C1499 1.251 . S
O1511 Nd1480 2.424 . S
O1511 C1499 1.268 . S
H1512 C1484 0.930 . S
H1513 C1485 0.929 . S
H1514 C1487 0.930 . S
H1515 C1488 0.929 . S
H1516 C1493 0.930 . S
H1517 C1494 0.929 . S
H1518 C1496 0.930 . S
H1519 C1497 0.929 . S
Nd1520 C1522 2.836 . S
Nd1520 O1540 2.500 . S
Nd1520 O1541 2.492 . S
Nd1520 O1542 2.487 . S
Nd1520 O1543 2.682 . S
Nd1520 O1544 2.410 . S
Nd1520 O1549 2.414 . S
Nd1520 O1551 2.424 . S
Nd1521 C1531 2.836 . S
Nd1521 O1543 2.414 . S
Nd1521 O1545 2.424 . S
Nd1521 O1546 2.500 . S
Nd1521 O1547 2.492 . S
Nd1521 O1548 2.487 . S
Nd1521 O1549 2.682 . S
Nd1521 O1550 2.410 . S
C1522 Nd1520 2.836 . S
C1522 C1523 1.498 . S
C1522 O1540 1.258 . S
C1522 O1541 1.239 . S
C1523 C1522 1.498 . S
C1523 C1524 1.366 . S
C1523 C1528 1.407 . S
C1524 C1523 1.366 . S
C1524 C1525 1.392 . S
C1524 H1552 0.930 . S
C1525 C1524 1.392 . S
C1525 C1526 1.398 . S
C1525 H1553 0.929 . S
C1526 C1525 1.398 . S
C1526 C1527 1.352 . S
C1527 C1526 1.352 . S
C1527 C1528 1.384 . S
C1527 H1554 0.930 . S
C1528 C1523 1.407 . S
C1528 C1527 1.384 . S
C1528 H1555 0.929 . S
C1529 O1542 1.241 . S
C1529 O1543 1.273 . S
C1530 O1544 1.251 . S
C1530 O1545 1.268 . S
C1531 Nd1521 2.836 . S
C1531 C1532 1.498 . S
C1531 O1546 1.258 . S
C1531 O1547 1.239 . S
C1532 C1531 1.498 . S
C1532 C1533 1.366 . S
C1532 C1537 1.407 . S
C1533 C1532 1.366 . S
C1533 C1534 1.392 . S
C1533 H1556 0.930 . S
C1534 C1533 1.392 . S
C1534 C1535 1.398 . S
C1534 H1557 0.929 . S
C1535 C1534 1.398 . S
C1535 C1536 1.352 . S
C1536 C1535 1.352 . S
C1536 C1537 1.384 . S
C1536 H1558 0.930 . S
C1537 C1532 1.407 . S
C1537 C1536 1.384 . S
C1537 H1559 0.929 . S
C1538 O1548 1.241 . S
C1538 O1549 1.273 . S
C1539 O1550 1.251 . S
C1539 O1551 1.268 . S
O1540 Nd1520 2.500 . S
O1540 C1522 1.258 . S
O1541 Nd1520 2.492 . S
O1541 C1522 1.239 . S
O1542 Nd1520 2.487 . S
O1542 C1529 1.241 . S
O1543 Nd1520 2.682 . S
O1543 Nd1521 2.414 . S
O1543 C1529 1.273 . S
O1544 Nd1520 2.410 . S
O1544 C1530 1.251 . S
O1545 Nd1521 2.424 . S
O1545 C1530 1.268 . S
O1546 Nd1521 2.500 . S
O1546 C1531 1.258 . S
O1547 Nd1521 2.492 . S
O1547 C1531 1.239 . S
O1548 Nd1521 2.487 . S
O1548 C1538 1.241 . S
O1549 Nd1520 2.414 . S
O1549 Nd1521 2.682 . S
O1549 C1538 1.273 . S
O1550 Nd1521 2.410 . S
O1550 C1539 1.251 . S
O1551 Nd1520 2.424 . S
O1551 C1539 1.268 . S
H1552 C1524 0.930 . S
H1553 C1525 0.929 . S
H1554 C1527 0.930 . S
H1555 C1528 0.929 . S
H1556 C1533 0.930 . S
H1557 C1534 0.929 . S
H1558 C1536 0.930 . S
H1559 C1537 0.929 . S
Nd1560 C1562 2.836 . S
Nd1560 O1580 2.500 . S
Nd1560 O1581 2.492 . S
Nd1560 O1582 2.487 . S
Nd1560 O1583 2.682 . S
Nd1560 O1584 2.410 . S
Nd1560 O1589 2.414 . S
Nd1560 O1591 2.424 . S
Nd1561 C1571 2.836 . S
Nd1561 O1583 2.414 . S
Nd1561 O1585 2.424 . S
Nd1561 O1586 2.500 . S
Nd1561 O1587 2.492 . S
Nd1561 O1588 2.487 . S
Nd1561 O1589 2.682 . S
Nd1561 O1590 2.410 . S
C1562 Nd1560 2.836 . S
C1562 C1563 1.498 . S
C1562 O1580 1.258 . S
C1562 O1581 1.239 . S
C1563 C1562 1.498 . S
C1563 C1564 1.366 1_545 S
C1563 C1568 1.407 . S
C1564 C1563 1.366 1_565 S
C1564 C1565 1.392 . S
C1564 H1592 0.930 . S
C1565 C1564 1.392 . S
C1565 C1566 1.398 . S
C1565 H1593 0.929 . S
C1566 C1565 1.398 . S
C1566 C1567 1.352 . S
C1567 C1566 1.352 . S
C1567 C1568 1.384 1_565 S
C1567 H1594 0.929 1_565 S
C1568 C1563 1.407 . S
C1568 C1567 1.384 1_545 S
C1568 H1595 0.929 . S
C1569 O1582 1.241 . S
C1569 O1583 1.273 . S
C1570 O1584 1.251 . S
C1570 O1585 1.268 . S
C1571 Nd1561 2.836 . S
C1571 C1572 1.498 . S
C1571 O1586 1.258 . S
C1571 O1587 1.239 . S
C1572 C1571 1.498 . S
C1572 C1573 1.366 . S
C1572 C1577 1.407 . S
C1573 C1572 1.366 . S
C1573 C1574 1.392 . S
C1573 H1596 0.930 . S
C1574 C1573 1.392 . S
C1574 C1575 1.398 . S
C1574 H1597 0.929 . S
C1575 C1574 1.398 . S
C1575 C1576 1.352 . S
C1576 C1575 1.352 . S
C1576 C1577 1.384 . S
C1576 H1598 0.930 . S
C1577 C1572 1.407 . S
C1577 C1576 1.384 . S
C1577 H1599 0.929 . S
C1578 O1588 1.241 . S
C1578 O1589 1.273 . S
C1579 O1590 1.251 . S
C1579 O1591 1.268 . S
O1580 Nd1560 2.500 . S
O1580 C1562 1.258 . S
O1581 Nd1560 2.492 . S
O1581 C1562 1.239 . S
O1582 Nd1560 2.487 . S
O1582 C1569 1.241 . S
O1583 Nd1560 2.682 . S
O1583 Nd1561 2.414 . S
O1583 C1569 1.273 . S
O1584 Nd1560 2.410 . S
O1584 C1570 1.251 . S
O1585 Nd1561 2.424 . S
O1585 C1570 1.268 . S
O1586 Nd1561 2.500 . S
O1586 C1571 1.258 . S
O1587 Nd1561 2.492 . S
O1587 C1571 1.239 . S
O1588 Nd1561 2.487 . S
O1588 C1578 1.241 . S
O1589 Nd1560 2.414 . S
O1589 Nd1561 2.682 . S
O1589 C1578 1.273 . S
O1590 Nd1561 2.410 . S
O1590 C1579 1.251 . S
O1591 Nd1560 2.424 . S
O1591 C1579 1.268 . S
H1592 C1564 0.930 . S
H1593 C1565 0.929 . S
H1594 C1567 0.929 1_545 S
H1595 C1568 0.929 . S
H1596 C1573 0.930 . S
H1597 C1574 0.929 . S
H1598 C1576 0.930 . S
H1599 C1577 0.929 . S
Nd1600 C1602 2.836 1_455 S
Nd1600 O1620 2.500 . S
Nd1600 O1621 2.492 1_455 S
Nd1600 O1622 2.487 . S
Nd1600 O1623 2.682 . S
Nd1600 O1624 2.410 . S
Nd1600 O1629 2.414 . S
Nd1600 O1631 2.424 . S
Nd1601 C1611 2.836 . S
Nd1601 O1623 2.414 . S
Nd1601 O1625 2.424 . S
Nd1601 O1626 2.500 . S
Nd1601 O1627 2.492 . S
Nd1601 O1628 2.487 . S
Nd1601 O1629 2.682 . S
Nd1601 O1630 2.410 . S
C1602 Nd1600 2.836 1_655 S
C1602 C1603 1.498 . S
C1602 O1620 1.258 1_655 S
C1602 O1621 1.239 . S
C1603 C1602 1.498 . S
C1603 C1604 1.366 . S
C1603 C1608 1.407 . S
C1604 C1603 1.366 . S
C1604 C1605 1.392 . S
C1604 H1632 0.930 . S
C1605 C1604 1.392 . S
C1605 C1606 1.398 . S
C1605 H1633 0.929 . S
C1606 C1605 1.398 . S
C1606 C1607 1.352 . S
C1607 C1606 1.352 . S
C1607 C1608 1.384 . S
C1607 H1634 0.930 . S
C1608 C1603 1.407 . S
C1608 C1607 1.384 . S
C1608 H1635 0.929 . S
C1609 O1622 1.241 . S
C1609 O1623 1.273 . S
C1610 O1624 1.251 . S
C1610 O1625 1.268 . S
C1611 Nd1601 2.836 . S
C1611 C1612 1.498 . S
C1611 O1626 1.258 . S
C1611 O1627 1.239 . S
C1612 C1611 1.498 . S
C1612 C1613 1.366 . S
C1612 C1617 1.407 . S
C1613 C1612 1.366 . S
C1613 C1614 1.392 . S
C1613 H1636 0.930 . S
C1614 C1613 1.392 . S
C1614 C1615 1.398 . S
C1614 H1637 0.929 . S
C1615 C1614 1.398 . S
C1615 C1616 1.352 . S
C1616 C1615 1.352 . S
C1616 C1617 1.384 . S
C1616 H1638 0.930 . S
C1617 C1612 1.407 . S
C1617 C1616 1.384 . S
C1617 H1639 0.929 . S
C1618 O1628 1.241 . S
C1618 O1629 1.273 . S
C1619 O1630 1.251 . S
C1619 O1631 1.268 . S
O1620 Nd1600 2.500 . S
O1620 C1602 1.258 1_455 S
O1621 Nd1600 2.492 1_655 S
O1621 C1602 1.239 . S
O1622 Nd1600 2.487 . S
O1622 C1609 1.241 . S
O1623 Nd1600 2.682 . S
O1623 Nd1601 2.414 . S
O1623 C1609 1.273 . S
O1624 Nd1600 2.410 . S
O1624 C1610 1.251 . S
O1625 Nd1601 2.424 . S
O1625 C1610 1.268 . S
O1626 Nd1601 2.500 . S
O1626 C1611 1.258 . S
O1627 Nd1601 2.492 . S
O1627 C1611 1.239 . S
O1628 Nd1601 2.487 . S
O1628 C1618 1.241 . S
O1629 Nd1600 2.414 . S
O1629 Nd1601 2.682 . S
O1629 C1618 1.273 . S
O1630 Nd1601 2.410 . S
O1630 C1619 1.251 . S
O1631 Nd1600 2.424 . S
O1631 C1619 1.268 . S
H1632 C1604 0.930 . S
H1633 C1605 0.929 . S
H1634 C1607 0.930 . S
H1635 C1608 0.929 . S
H1636 C1613 0.930 . S
H1637 C1614 0.929 . S
H1638 C1616 0.930 . S
H1639 C1617 0.929 . S
Nd1640 C1642 2.836 . S
Nd1640 O1660 2.500 . S
Nd1640 O1661 2.492 . S
Nd1640 O1662 2.487 . S
Nd1640 O1663 2.682 . S
Nd1640 O1664 2.410 . S
Nd1640 O1669 2.414 . S
Nd1640 O1671 2.424 . S
Nd1641 C1651 2.836 . S
Nd1641 O1663 2.414 . S
Nd1641 O1665 2.424 . S
Nd1641 O1666 2.500 . S
Nd1641 O1667 2.492 . S
Nd1641 O1668 2.487 . S
Nd1641 O1669 2.682 . S
Nd1641 O1670 2.410 . S
C1642 Nd1640 2.836 . S
C1642 C1643 1.498 . S
C1642 O1660 1.258 . S
C1642 O1661 1.239 . S
C1643 C1642 1.498 . S
C1643 C1644 1.366 . S
C1643 C1648 1.407 . S
C1644 C1643 1.366 . S
C1644 C1645 1.392 . S
C1644 H1672 0.930 . S
C1645 C1644 1.392 . S
C1645 C1646 1.398 . S
C1645 H1673 0.929 . S
C1646 C1645 1.398 . S
C1646 C1647 1.352 . S
C1647 C1646 1.352 . S
C1647 C1648 1.384 . S
C1647 H1674 0.930 . S
C1648 C1643 1.407 . S
C1648 C1647 1.384 . S
C1648 H1675 0.929 . S
C1649 O1662 1.241 . S
C1649 O1663 1.273 . S
C1650 O1664 1.251 . S
C1650 O1665 1.268 . S
C1651 Nd1641 2.836 . S
C1651 C1652 1.498 . S
C1651 O1666 1.258 . S
C1651 O1667 1.239 . S
C1652 C1651 1.498 . S
C1652 C1653 1.366 . S
C1652 C1657 1.407 . S
C1653 C1652 1.366 . S
C1653 C1654 1.392 . S
C1653 H1676 0.930 . S
C1654 C1653 1.392 . S
C1654 C1655 1.398 . S
C1654 H1677 0.929 . S
C1655 C1654 1.398 . S
C1655 C1656 1.352 . S
C1656 C1655 1.352 . S
C1656 C1657 1.384 . S
C1656 H1678 0.930 . S
C1657 C1652 1.407 . S
C1657 C1656 1.384 . S
C1657 H1679 0.929 . S
C1658 O1668 1.241 . S
C1658 O1669 1.273 . S
C1659 O1670 1.251 . S
C1659 O1671 1.268 . S
O1660 Nd1640 2.500 . S
O1660 C1642 1.258 . S
O1661 Nd1640 2.492 . S
O1661 C1642 1.239 . S
O1662 Nd1640 2.487 . S
O1662 C1649 1.241 . S
O1663 Nd1640 2.682 . S
O1663 Nd1641 2.414 . S
O1663 C1649 1.273 . S
O1664 Nd1640 2.410 . S
O1664 C1650 1.251 . S
O1665 Nd1641 2.424 . S
O1665 C1650 1.268 . S
O1666 Nd1641 2.500 . S
O1666 C1651 1.258 . S
O1667 Nd1641 2.492 . S
O1667 C1651 1.239 . S
O1668 Nd1641 2.487 . S
O1668 C1658 1.241 . S
O1669 Nd1640 2.414 . S
O1669 Nd1641 2.682 . S
O1669 C1658 1.273 . S
O1670 Nd1641 2.410 . S
O1670 C1659 1.251 . S
O1671 Nd1640 2.424 . S
O1671 C1659 1.268 . S
H1672 C1644 0.930 . S
H1673 C1645 0.929 . S
H1674 C1647 0.930 . S
H1675 C1648 0.929 . S
H1676 C1653 0.930 . S
H1677 C1654 0.929 . S
H1678 C1656 0.930 . S
H1679 C1657 0.929 . S
Nd1680 C1682 2.836 . S
Nd1680 O1700 2.500 . S
Nd1680 O1701 2.492 . S
Nd1680 O1702 2.487 . S
Nd1680 O1703 2.682 . S
Nd1680 O1704 2.410 . S
Nd1680 O1709 2.414 . S
Nd1680 O1711 2.424 . S
Nd1681 C1691 2.836 . S
Nd1681 O1703 2.414 . S
Nd1681 O1705 2.424 . S
Nd1681 O1706 2.500 . S
Nd1681 O1707 2.492 . S
Nd1681 O1708 2.487 . S
Nd1681 O1709 2.682 . S
Nd1681 O1710 2.410 . S
C1682 Nd1680 2.836 . S
C1682 C1683 1.498 . S
C1682 O1700 1.258 . S
C1682 O1701 1.239 . S
C1683 C1682 1.498 . S
C1683 C1684 1.366 . S
C1683 C1688 1.407 . S
C1684 C1683 1.366 . S
C1684 C1685 1.392 . S
C1684 H1712 0.930 . S
C1685 C1684 1.392 . S
C1685 C1686 1.398 . S
C1685 H1713 0.929 . S
C1686 C1685 1.398 . S
C1686 C1687 1.352 . S
C1687 C1686 1.352 . S
C1687 C1688 1.384 . S
C1687 H1714 0.930 1_554 S
C1688 C1683 1.407 . S
C1688 C1687 1.384 . S
C1688 H1715 0.929 . S
C1689 O1702 1.241 . S
C1689 O1703 1.273 . S
C1690 O1704 1.251 . S
C1690 O1705 1.268 . S
C1691 Nd1681 2.836 . S
C1691 C1692 1.498 . S
C1691 O1706 1.258 . S
C1691 O1707 1.239 . S
C1692 C1691 1.498 . S
C1692 C1693 1.366 . S
C1692 C1697 1.407 . S
C1693 C1692 1.366 . S
C1693 C1694 1.392 . S
C1693 H1716 0.930 . S
C1694 C1693 1.392 . S
C1694 C1695 1.398 . S
C1694 H1717 0.929 . S
C1695 C1694 1.398 . S
C1695 C1696 1.352 . S
C1696 C1695 1.352 . S
C1696 C1697 1.384 . S
C1696 H1718 0.930 . S
C1697 C1692 1.407 . S
C1697 C1696 1.384 . S
C1697 H1719 0.929 . S
C1698 O1708 1.241 . S
C1698 O1709 1.273 . S
C1699 O1710 1.251 . S
C1699 O1711 1.268 . S
O1700 Nd1680 2.500 . S
O1700 C1682 1.258 . S
O1701 Nd1680 2.492 . S
O1701 C1682 1.239 . S
O1702 Nd1680 2.487 . S
O1702 C1689 1.241 . S
O1703 Nd1680 2.682 . S
O1703 Nd1681 2.414 . S
O1703 C1689 1.273 . S
O1704 Nd1680 2.410 . S
O1704 C1690 1.251 . S
O1705 Nd1681 2.424 . S
O1705 C1690 1.268 . S
O1706 Nd1681 2.500 . S
O1706 C1691 1.258 . S
O1707 Nd1681 2.492 . S
O1707 C1691 1.239 . S
O1708 Nd1681 2.487 . S
O1708 C1698 1.241 . S
O1709 Nd1680 2.414 . S
O1709 Nd1681 2.682 . S
O1709 C1698 1.273 . S
O1710 Nd1681 2.410 . S
O1710 C1699 1.251 . S
O1711 Nd1680 2.424 . S
O1711 C1699 1.268 . S
H1712 C1684 0.930 . S
H1713 C1685 0.929 . S
H1714 C1687 0.930 1_556 S
H1715 C1688 0.929 . S
H1716 C1693 0.930 . S
H1717 C1694 0.929 . S
H1718 C1696 0.930 . S
H1719 C1697 0.929 . S
Nd1720 C1722 2.836 . S
Nd1720 O1740 2.500 . S
Nd1720 O1741 2.492 . S
Nd1720 O1742 2.487 . S
Nd1720 O1743 2.682 . S
Nd1720 O1744 2.410 . S
Nd1720 O1749 2.414 . S
Nd1720 O1751 2.424 . S
Nd1721 C1731 2.836 . S
Nd1721 O1743 2.414 . S
Nd1721 O1745 2.424 . S
Nd1721 O1746 2.500 . S
Nd1721 O1747 2.492 . S
Nd1721 O1748 2.487 . S
Nd1721 O1749 2.682 . S
Nd1721 O1750 2.410 . S
C1722 Nd1720 2.836 . S
C1722 C1723 1.498 . S
C1722 O1740 1.258 . S
C1722 O1741 1.239 . S
C1723 C1722 1.498 . S
C1723 C1724 1.366 . S
C1723 C1728 1.407 . S
C1724 C1723 1.366 . S
C1724 C1725 1.392 . S
C1724 H1752 0.930 . S
C1725 C1724 1.392 . S
C1725 C1726 1.398 . S
C1725 H1753 0.929 . S
C1726 C1725 1.398 . S
C1726 C1727 1.352 . S
C1727 C1726 1.352 . S
C1727 C1728 1.384 . S
C1727 H1754 0.930 . S
C1728 C1723 1.407 . S
C1728 C1727 1.384 . S
C1728 H1755 0.929 . S
C1729 O1742 1.241 . S
C1729 O1743 1.273 . S
C1730 O1744 1.251 . S
C1730 O1745 1.268 . S
C1731 Nd1721 2.836 . S
C1731 C1732 1.498 . S
C1731 O1746 1.258 . S
C1731 O1747 1.239 . S
C1732 C1731 1.498 . S
C1732 C1733 1.366 . S
C1732 C1737 1.407 . S
C1733 C1732 1.366 . S
C1733 C1734 1.392 . S
C1733 H1756 0.930 . S
C1734 C1733 1.392 . S
C1734 C1735 1.398 . S
C1734 H1757 0.929 . S
C1735 C1734 1.398 . S
C1735 C1736 1.352 . S
C1736 C1735 1.352 . S
C1736 C1737 1.384 . S
C1736 H1758 0.930 . S
C1737 C1732 1.407 . S
C1737 C1736 1.384 . S
C1737 H1759 0.929 . S
C1738 O1748 1.241 . S
C1738 O1749 1.273 . S
C1739 O1750 1.251 . S
C1739 O1751 1.268 . S
O1740 Nd1720 2.500 . S
O1740 C1722 1.258 . S
O1741 Nd1720 2.492 . S
O1741 C1722 1.239 . S
O1742 Nd1720 2.487 . S
O1742 C1729 1.241 . S
O1743 Nd1720 2.682 . S
O1743 Nd1721 2.414 . S
O1743 C1729 1.273 . S
O1744 Nd1720 2.410 . S
O1744 C1730 1.251 . S
O1745 Nd1721 2.424 . S
O1745 C1730 1.268 . S
O1746 Nd1721 2.500 . S
O1746 C1731 1.258 . S
O1747 Nd1721 2.492 . S
O1747 C1731 1.239 . S
O1748 Nd1721 2.487 . S
O1748 C1738 1.241 . S
O1749 Nd1720 2.414 . S
O1749 Nd1721 2.682 . S
O1749 C1738 1.273 . S
O1750 Nd1721 2.410 . S
O1750 C1739 1.251 . S
O1751 Nd1720 2.424 . S
O1751 C1739 1.268 . S
H1752 C1724 0.930 . S
H1753 C1725 0.929 . S
H1754 C1727 0.930 . S
H1755 C1728 0.929 . S
H1756 C1733 0.930 . S
H1757 C1734 0.929 . S
H1758 C1736 0.930 . S
H1759 C1737 0.929 . S
Nd1760 C1762 2.836 . S
Nd1760 O1780 2.500 . S
Nd1760 O1781 2.492 . S
Nd1760 O1782 2.487 . S
Nd1760 O1783 2.682 . S
Nd1760 O1784 2.410 . S
Nd1760 O1789 2.414 . S
Nd1760 O1791 2.424 . S
Nd1761 C1771 2.836 . S
Nd1761 O1783 2.414 . S
Nd1761 O1785 2.424 . S
Nd1761 O1786 2.500 . S
Nd1761 O1787 2.492 . S
Nd1761 O1788 2.487 . S
Nd1761 O1789 2.682 . S
Nd1761 O1790 2.410 . S
C1762 Nd1760 2.836 . S
C1762 C1763 1.498 . S
C1762 O1780 1.258 . S
C1762 O1781 1.239 . S
C1763 C1762 1.498 . S
C1763 C1764 1.366 . S
C1763 C1768 1.407 . S
C1764 C1763 1.366 . S
C1764 C1765 1.392 . S
C1764 H1792 0.930 . S
C1765 C1764 1.392 . S
C1765 C1766 1.398 . S
C1765 H1793 0.929 . S
C1766 C1765 1.398 . S
C1766 C1767 1.352 . S
C1767 C1766 1.352 . S
C1767 C1768 1.384 . S
C1767 H1794 0.930 . S
C1768 C1763 1.407 . S
C1768 C1767 1.384 . S
C1768 H1795 0.929 . S
C1769 O1782 1.241 . S
C1769 O1783 1.273 . S
C1770 O1784 1.251 . S
C1770 O1785 1.268 . S
C1771 Nd1761 2.836 . S
C1771 C1772 1.498 . S
C1771 O1786 1.258 . S
C1771 O1787 1.239 . S
C1772 C1771 1.498 . S
C1772 C1773 1.366 . S
C1772 C1777 1.407 . S
C1773 C1772 1.366 . S
C1773 C1774 1.392 . S
C1773 H1796 0.930 . S
C1774 C1773 1.392 . S
C1774 C1775 1.398 . S
C1774 H1797 0.929 . S
C1775 C1774 1.398 . S
C1775 C1776 1.352 . S
C1776 C1775 1.352 . S
C1776 C1777 1.384 . S
C1776 H1798 0.930 . S
C1777 C1772 1.407 . S
C1777 C1776 1.384 . S
C1777 H1799 0.929 . S
C1778 O1788 1.241 . S
C1778 O1789 1.273 . S
C1779 O1790 1.251 . S
C1779 O1791 1.268 . S
O1780 Nd1760 2.500 . S
O1780 C1762 1.258 . S
O1781 Nd1760 2.492 . S
O1781 C1762 1.239 . S
O1782 Nd1760 2.487 . S
O1782 C1769 1.241 . S
O1783 Nd1760 2.682 . S
O1783 Nd1761 2.414 . S
O1783 C1769 1.273 . S
O1784 Nd1760 2.410 . S
O1784 C1770 1.251 . S
O1785 Nd1761 2.424 . S
O1785 C1770 1.268 . S
O1786 Nd1761 2.500 . S
O1786 C1771 1.258 . S
O1787 Nd1761 2.492 . S
O1787 C1771 1.239 . S
O1788 Nd1761 2.487 . S
O1788 C1778 1.241 . S
O1789 Nd1760 2.414 . S
O1789 Nd1761 2.682 . S
O1789 C1778 1.273 . S
O1790 Nd1761 2.410 . S
O1790 C1779 1.251 . S
O1791 Nd1760 2.424 . S
O1791 C1779 1.268 . S
H1792 C1764 0.930 . S
H1793 C1765 0.929 . S
H1794 C1767 0.930 . S
H1795 C1768 0.929 . S
H1796 C1773 0.930 . S
H1797 C1774 0.929 . S
H1798 C1776 0.930 . S
H1799 C1777 0.929 . S
Nd1800 C1802 2.836 . S
Nd1800 O1820 2.500 . S
Nd1800 O1821 2.492 . S
Nd1800 O1822 2.487 . S
Nd1800 O1823 2.682 . S
Nd1800 O1824 2.410 . S
Nd1800 O1829 2.414 . S
Nd1800 O1831 2.424 . S
Nd1801 C1811 2.836 . S
Nd1801 O1823 2.414 . S
Nd1801 O1825 2.424 . S
Nd1801 O1826 2.500 . S
Nd1801 O1827 2.492 . S
Nd1801 O1828 2.487 . S
Nd1801 O1829 2.682 . S
Nd1801 O1830 2.410 . S
C1802 Nd1800 2.836 . S
C1802 C1803 1.498 . S
C1802 O1820 1.258 . S
C1802 O1821 1.239 . S
C1803 C1802 1.498 . S
C1803 C1804 1.366 . S
C1803 C1808 1.407 . S
C1804 C1803 1.366 . S
C1804 C1805 1.392 . S
C1804 H1832 0.930 . S
C1805 C1804 1.392 . S
C1805 C1806 1.398 . S
C1805 H1833 0.929 . S
C1806 C1805 1.398 . S
C1806 C1807 1.352 . S
C1807 C1806 1.352 . S
C1807 C1808 1.384 . S
C1807 H1834 0.930 . S
C1808 C1803 1.407 . S
C1808 C1807 1.384 . S
C1808 H1835 0.929 . S
C1809 O1822 1.241 . S
C1809 O1823 1.273 . S
C1810 O1824 1.251 . S
C1810 O1825 1.268 . S
C1811 Nd1801 2.836 . S
C1811 C1812 1.498 . S
C1811 O1826 1.258 . S
C1811 O1827 1.239 . S
C1812 C1811 1.498 . S
C1812 C1813 1.366 . S
C1812 C1817 1.407 . S
C1813 C1812 1.366 . S
C1813 C1814 1.392 . S
C1813 H1836 0.930 . S
C1814 C1813 1.392 . S
C1814 C1815 1.398 . S
C1814 H1837 0.929 . S
C1815 C1814 1.398 . S
C1815 C1816 1.352 . S
C1816 C1815 1.352 . S
C1816 C1817 1.384 . S
C1816 H1838 0.930 . S
C1817 C1812 1.407 . S
C1817 C1816 1.384 . S
C1817 H1839 0.929 . S
C1818 O1828 1.241 . S
C1818 O1829 1.273 . S
C1819 O1830 1.251 . S
C1819 O1831 1.268 . S
O1820 Nd1800 2.500 . S
O1820 C1802 1.258 . S
O1821 Nd1800 2.492 . S
O1821 C1802 1.239 . S
O1822 Nd1800 2.487 . S
O1822 C1809 1.241 . S
O1823 Nd1800 2.682 . S
O1823 Nd1801 2.414 . S
O1823 C1809 1.273 . S
O1824 Nd1800 2.410 . S
O1824 C1810 1.251 . S
O1825 Nd1801 2.424 . S
O1825 C1810 1.268 . S
O1826 Nd1801 2.500 . S
O1826 C1811 1.258 . S
O1827 Nd1801 2.492 . S
O1827 C1811 1.239 . S
O1828 Nd1801 2.487 . S
O1828 C1818 1.241 . S
O1829 Nd1800 2.414 . S
O1829 Nd1801 2.682 . S
O1829 C1818 1.273 . S
O1830 Nd1801 2.410 . S
O1830 C1819 1.251 . S
O1831 Nd1800 2.424 . S
O1831 C1819 1.268 . S
H1832 C1804 0.930 . S
H1833 C1805 0.929 . S
H1834 C1807 0.930 . S
H1835 C1808 0.929 . S
H1836 C1813 0.930 . S
H1837 C1814 0.929 . S
H1838 C1816 0.930 . S
H1839 C1817 0.929 . S
Nd1840 C1842 2.836 . S
Nd1840 O1860 2.500 . S
Nd1840 O1861 2.492 . S
Nd1840 O1862 2.487 . S
Nd1840 O1863 2.682 . S
Nd1840 O1864 2.410 . S
Nd1840 O1869 2.414 . S
Nd1840 O1871 2.424 . S
Nd1841 C1851 2.836 . S
Nd1841 O1863 2.414 . S
Nd1841 O1865 2.424 . S
Nd1841 O1866 2.500 . S
Nd1841 O1867 2.492 . S
Nd1841 O1868 2.487 . S
Nd1841 O1869 2.682 . S
Nd1841 O1870 2.410 . S
C1842 Nd1840 2.836 . S
C1842 C1843 1.498 . S
C1842 O1860 1.258 . S
C1842 O1861 1.239 . S
C1843 C1842 1.498 . S
C1843 C1844 1.366 . S
C1843 C1848 1.407 . S
C1844 C1843 1.366 . S
C1844 C1845 1.392 . S
C1844 H1872 0.930 . S
C1845 C1844 1.392 . S
C1845 C1846 1.398 . S
C1845 H1873 0.929 . S
C1846 C1845 1.398 . S
C1846 C1847 1.352 . S
C1847 C1846 1.352 . S
C1847 C1848 1.384 . S
C1847 H1874 0.930 . S
C1848 C1843 1.407 . S
C1848 C1847 1.384 . S
C1848 H1875 0.929 . S
C1849 O1862 1.241 . S
C1849 O1863 1.273 . S
C1850 O1864 1.251 . S
C1850 O1865 1.268 . S
C1851 Nd1841 2.836 . S
C1851 C1852 1.498 . S
C1851 O1866 1.258 . S
C1851 O1867 1.239 . S
C1852 C1851 1.498 . S
C1852 C1853 1.366 . S
C1852 C1857 1.407 . S
C1853 C1852 1.366 . S
C1853 C1854 1.392 . S
C1853 H1876 0.930 . S
C1854 C1853 1.392 . S
C1854 C1855 1.398 . S
C1854 H1877 0.929 . S
C1855 C1854 1.398 . S
C1855 C1856 1.352 . S
C1856 C1855 1.352 . S
C1856 C1857 1.384 . S
C1856 H1878 0.930 . S
C1857 C1852 1.407 . S
C1857 C1856 1.384 . S
C1857 H1879 0.929 . S
C1858 O1868 1.241 . S
C1858 O1869 1.273 . S
C1859 O1870 1.251 . S
C1859 O1871 1.268 . S
O1860 Nd1840 2.500 . S
O1860 C1842 1.258 . S
O1861 Nd1840 2.492 . S
O1861 C1842 1.239 . S
O1862 Nd1840 2.487 . S
O1862 C1849 1.241 . S
O1863 Nd1840 2.682 . S
O1863 Nd1841 2.414 . S
O1863 C1849 1.273 . S
O1864 Nd1840 2.410 . S
O1864 C1850 1.251 . S
O1865 Nd1841 2.424 . S
O1865 C1850 1.268 . S
O1866 Nd1841 2.500 . S
O1866 C1851 1.258 . S
O1867 Nd1841 2.492 . S
O1867 C1851 1.239 . S
O1868 Nd1841 2.487 . S
O1868 C1858 1.241 . S
O1869 Nd1840 2.414 . S
O1869 Nd1841 2.682 . S
O1869 C1858 1.273 . S
O1870 Nd1841 2.410 . S
O1870 C1859 1.251 . S
O1871 Nd1840 2.424 . S
O1871 C1859 1.268 . S
H1872 C1844 0.930 . S
H1873 C1845 0.929 . S
H1874 C1847 0.930 . S
H1875 C1848 0.929 . S
H1876 C1853 0.930 . S
H1877 C1854 0.929 . S
H1878 C1856 0.930 . S
H1879 C1857 0.929 . S
Nd1880 C1882 2.836 . S
Nd1880 O1900 2.500 . S
Nd1880 O1901 2.492 . S
Nd1880 O1902 2.487 . S
Nd1880 O1903 2.682 . S
Nd1880 O1904 2.410 . S
Nd1880 O1909 2.414 . S
Nd1880 O1911 2.424 . S
Nd1881 C1891 2.836 . S
Nd1881 O1903 2.414 . S
Nd1881 O1905 2.424 . S
Nd1881 O1906 2.500 . S
Nd1881 O1907 2.492 . S
Nd1881 O1908 2.487 . S
Nd1881 O1909 2.682 . S
Nd1881 O1910 2.410 . S
C1882 Nd1880 2.836 . S
C1882 C1883 1.498 . S
C1882 O1900 1.258 . S
C1882 O1901 1.239 . S
C1883 C1882 1.498 . S
C1883 C1884 1.366 . S
C1883 C1888 1.407 . S
C1884 C1883 1.366 . S
C1884 C1885 1.392 . S
C1884 H1912 0.930 . S
C1885 C1884 1.392 . S
C1885 C1886 1.398 . S
C1885 H1913 0.929 . S
C1886 C1885 1.398 . S
C1886 C1887 1.352 . S
C1887 C1886 1.352 . S
C1887 C1888 1.384 . S
C1887 H1914 0.930 . S
C1888 C1883 1.407 . S
C1888 C1887 1.384 . S
C1888 H1915 0.929 . S
C1889 O1902 1.241 . S
C1889 O1903 1.273 . S
C1890 O1904 1.251 . S
C1890 O1905 1.268 . S
C1891 Nd1881 2.836 . S
C1891 C1892 1.498 . S
C1891 O1906 1.258 . S
C1891 O1907 1.239 . S
C1892 C1891 1.498 . S
C1892 C1893 1.366 . S
C1892 C1897 1.407 . S
C1893 C1892 1.366 . S
C1893 C1894 1.392 . S
C1893 H1916 0.930 . S
C1894 C1893 1.392 . S
C1894 C1895 1.398 . S
C1894 H1917 0.929 . S
C1895 C1894 1.398 . S
C1895 C1896 1.352 . S
C1896 C1895 1.352 . S
C1896 C1897 1.384 . S
C1896 H1918 0.930 . S
C1897 C1892 1.407 . S
C1897 C1896 1.384 . S
C1897 H1919 0.929 . S
C1898 O1908 1.241 . S
C1898 O1909 1.273 . S
C1899 O1910 1.251 . S
C1899 O1911 1.268 . S
O1900 Nd1880 2.500 . S
O1900 C1882 1.258 . S
O1901 Nd1880 2.492 . S
O1901 C1882 1.239 . S
O1902 Nd1880 2.487 . S
O1902 C1889 1.241 . S
O1903 Nd1880 2.682 . S
O1903 Nd1881 2.414 . S
O1903 C1889 1.273 . S
O1904 Nd1880 2.410 . S
O1904 C1890 1.251 . S
O1905 Nd1881 2.424 . S
O1905 C1890 1.268 . S
O1906 Nd1881 2.500 . S
O1906 C1891 1.258 . S
O1907 Nd1881 2.492 . S
O1907 C1891 1.239 . S
O1908 Nd1881 2.487 . S
O1908 C1898 1.241 . S
O1909 Nd1880 2.414 . S
O1909 Nd1881 2.682 . S
O1909 C1898 1.273 . S
O1910 Nd1881 2.410 . S
O1910 C1899 1.251 . S
O1911 Nd1880 2.424 . S
O1911 C1899 1.268 . S
H1912 C1884 0.930 . S
H1913 C1885 0.929 . S
H1914 C1887 0.930 . S
H1915 C1888 0.929 . S
H1916 C1893 0.930 . S
H1917 C1894 0.929 . S
H1918 C1896 0.930 . S
H1919 C1897 0.929 . S
H1920 C1926 0.930 . S
H1921 C1930 0.930 . S
H1922 C1935 0.929 . S
H1923 C1933 0.929 . S
H1924 C1928 0.929 1_455 S
H1925 C1934 0.929 . S
C1926 H1920 0.930 . S
C1926 C1927 1.367 1_655 S
C1926 C1934 1.378 . S
C1927 C1926 1.367 1_455 S
C1927 C1935 1.433 . S
C1928 H1924 0.929 1_655 S
C1928 C1930 1.378 . S
C1928 C1932 1.350 . S
C1929 C1932 1.463 . S
C1929 C1934 1.350 . S
C1929 N1937 1.427 1_655 S
C1930 H1921 0.930 . S
C1930 C1928 1.378 . S
C1930 C1931 1.367 . S
C1931 C1930 1.367 . S
C1931 C1933 1.433 . S
C1932 C1928 1.350 . S
C1932 C1929 1.463 . S
C1932 N1936 1.427 . S
C1933 H1923 0.929 . S
C1933 C1931 1.433 . S
C1933 N1936 1.384 . S
C1934 H1925 0.929 . S
C1934 C1926 1.378 . S
C1934 C1929 1.350 . S
C1935 H1922 0.929 . S
C1935 C1927 1.433 . S
C1935 N1937 1.384 . S
N1936 C1932 1.427 . S
N1936 C1933 1.384 . S
N1937 C1929 1.427 1_455 S
N1937 C1935 1.384 . S
H1938 C1944 0.930 . S
H1939 C1948 0.930 . S
H1940 C1953 0.929 . S
H1941 C1951 0.929 . S
H1942 C1946 0.929 . S
H1943 C1952 0.929 . S
C1944 H1938 0.930 . S
C1944 C1945 1.367 . S
C1944 C1952 1.378 . S
C1945 C1944 1.367 . S
C1945 C1953 1.433 . S
C1946 H1942 0.929 . S
C1946 C1948 1.378 . S
C1946 C1950 1.350 . S
C1947 C1950 1.463 . S
C1947 C1952 1.350 . S
C1947 N1955 1.427 . S
C1948 H1939 0.930 . S
C1948 C1946 1.378 . S
C1948 C1949 1.367 . S
C1949 C1948 1.367 . S
C1949 C1951 1.433 . S
C1950 C1946 1.350 . S
C1950 C1947 1.463 . S
C1950 N1954 1.427 . S
C1951 H1941 0.929 . S
C1951 C1949 1.433 . S
C1951 N1954 1.384 . S
C1952 H1943 0.929 . S
C1952 C1944 1.378 . S
C1952 C1947 1.350 . S
C1953 H1940 0.929 . S
C1953 C1945 1.433 . S
C1953 N1955 1.384 . S
N1954 C1950 1.427 . S
N1954 C1951 1.384 . S
N1955 C1947 1.427 . S
N1955 C1953 1.384 . S
H1956 C1962 0.930 . S
H1957 C1966 0.930 . S
H1958 C1971 0.929 . S
H1959 C1969 0.929 . S
H1960 C1964 0.929 . S
H1961 C1970 0.929 . S
C1962 H1956 0.930 . S
C1962 C1963 1.367 . S
C1962 C1970 1.378 . S
C1963 C1962 1.367 . S
C1963 C1971 1.433 . S
C1964 H1960 0.929 . S
C1964 C1966 1.378 . S
C1964 C1968 1.350 . S
C1965 C1968 1.463 . S
C1965 C1970 1.350 . S
C1965 N1973 1.427 . S
C1966 H1957 0.930 . S
C1966 C1964 1.378 . S
C1966 C1967 1.367 . S
C1967 C1966 1.367 . S
C1967 C1969 1.433 . S
C1968 C1964 1.350 . S
C1968 C1965 1.463 . S
C1968 N1972 1.427 . S
C1969 H1959 0.929 . S
C1969 C1967 1.433 . S
C1969 N1972 1.384 . S
C1970 H1961 0.929 . S
C1970 C1962 1.378 . S
C1970 C1965 1.350 . S
C1971 H1958 0.929 . S
C1971 C1963 1.433 . S
C1971 N1973 1.384 . S
N1972 C1968 1.427 . S
N1972 C1969 1.384 . S
N1973 C1965 1.427 . S
N1973 C1971 1.384 . S
H1974 C1980 0.930 . S
H1975 C1984 0.930 . S
H1976 C1989 0.929 . S
H1977 C1987 0.929 . S
H1978 C1982 0.929 . S
H1979 C1988 0.929 . S
C1980 H1974 0.930 . S
C1980 C1981 1.367 . S
C1980 C1988 1.378 . S
C1981 C1980 1.367 . S
C1981 C1989 1.433 . S
C1982 H1978 0.929 . S
C1982 C1984 1.378 . S
C1982 C1986 1.350 . S
C1983 C1986 1.463 . S
C1983 C1988 1.350 . S
C1983 N1991 1.427 . S
C1984 H1975 0.930 . S
C1984 C1982 1.378 . S
C1984 C1985 1.367 . S
C1985 C1984 1.367 . S
C1985 C1987 1.433 . S
C1986 C1982 1.350 . S
C1986 C1983 1.463 . S
C1986 N1990 1.427 . S
C1987 H1977 0.929 . S
C1987 C1985 1.433 . S
C1987 N1990 1.384 . S
C1988 H1979 0.929 . S
C1988 C1980 1.378 . S
C1988 C1983 1.350 . S
C1989 H1976 0.929 . S
C1989 C1981 1.433 . S
C1989 N1991 1.384 . S
N1990 C1986 1.427 . S
N1990 C1987 1.384 . S
N1991 C1983 1.427 . S
N1991 C1989 1.384 . S
H1992 C1998 0.930 . S
H1993 C2002 0.930 . S
H1994 C2007 0.929 . S
H1995 C2005 0.929 . S
H1996 C2000 0.925 1_545 S
H1997 C2006 0.919 1_565 S
C1998 H1992 0.930 . S
C1998 C1999 1.367 . S
C1998 C2006 1.387 . S
C1999 C1998 1.367 . S
C1999 C2007 1.433 . S
C2000 H1996 0.925 1_565 S
C2000 C2002 1.381 . S
C2000 C2004 1.350 . S
C2001 C2004 1.463 1_545 S
C2001 C2006 1.351 . S
C2001 N2009 1.427 . S
C2002 H1993 0.930 . S
C2002 C2000 1.381 . S
C2002 C2003 1.367 . S
C2003 C2002 1.367 . S
C2003 C2005 1.433 . S
C2004 C2000 1.350 . S
C2004 C2001 1.463 1_565 S
C2004 N2008 1.427 . S
C2005 H1995 0.929 . S
C2005 C2003 1.433 . S
C2005 N2008 1.384 . S
C2006 H1997 0.919 1_545 S
C2006 C1998 1.387 . S
C2006 C2001 1.351 . S
C2007 H1994 0.929 . S
C2007 C1999 1.433 . S
C2007 N2009 1.384 . S
N2008 C2004 1.427 . S
N2008 C2005 1.384 . S
N2009 C2001 1.427 . S
N2009 C2007 1.384 . S
H2010 C2016 0.930 . S
H2011 C2020 0.930 . S
H2012 C2025 0.929 . S
H2013 C2023 0.929 . S
H2014 C2018 0.929 . S
H2015 C2024 0.929 . S
C2016 H2010 0.930 . S
C2016 C2017 1.367 . S
C2016 C2024 1.378 . S
C2017 C2016 1.367 . S
C2017 C2025 1.433 . S
C2018 H2014 0.929 . S
C2018 C2020 1.378 . S
C2018 C2022 1.350 . S
C2019 C2022 1.463 . S
C2019 C2024 1.350 . S
C2019 N2027 1.427 . S
C2020 H2011 0.930 . S
C2020 C2018 1.378 . S
C2020 C2021 1.367 . S
C2021 C2020 1.367 . S
C2021 C2023 1.433 . S
C2022 C2018 1.350 . S
C2022 C2019 1.463 . S
C2022 N2026 1.427 . S
C2023 H2013 0.929 . S
C2023 C2021 1.433 . S
C2023 N2026 1.384 . S
C2024 H2015 0.929 . S
C2024 C2016 1.378 . S
C2024 C2019 1.350 . S
C2025 H2012 0.929 . S
C2025 C2017 1.433 . S
C2025 N2027 1.384 . S
N2026 C2022 1.427 . S
N2026 C2023 1.384 . S
N2027 C2019 1.427 . S
N2027 C2025 1.384 . S
H2028 C2034 0.930 . S
H2029 C2038 0.930 . S
H2030 C2043 0.929 1_545 S
H2031 C2041 0.929 . S
H2032 C2036 0.929 . S
H2033 C2042 0.929 . S
C2034 H2028 0.930 . S
C2034 C2035 1.367 . S
C2034 C2042 1.378 . S
C2035 C2034 1.367 . S
C2035 C2043 1.433 . S
C2036 H2032 0.929 . S
C2036 C2038 1.378 1_554 S
C2036 C2040 1.350 . S
C2037 C2040 1.463 . S
C2037 C2042 1.350 . S
C2037 N2045 1.427 . S
C2038 H2029 0.930 . S
C2038 C2036 1.378 1_556 S
C2038 C2039 1.367 . S
C2039 C2038 1.367 . S
C2039 C2041 1.433 . S
C2040 C2036 1.350 . S
C2040 C2037 1.463 . S
C2040 N2044 1.427 . S
C2041 H2031 0.929 . S
C2041 C2039 1.433 . S
C2041 N2044 1.384 1_556 S
C2042 H2033 0.929 . S
C2042 C2034 1.378 . S
C2042 C2037 1.350 . S
C2043 H2030 0.929 1_565 S
C2043 C2035 1.433 . S
C2043 N2045 1.384 . S
N2044 C2040 1.427 . S
N2044 C2041 1.384 1_554 S
N2045 C2037 1.427 . S
N2045 C2043 1.384 . S
H2046 C2052 0.930 . S
H2047 C2056 0.930 . S
H2048 C2061 0.929 . S
H2049 C2059 0.929 . S
H2050 C2054 0.929 . S
H2051 C2060 0.929 . S
C2052 H2046 0.930 . S
C2052 C2053 1.367 . S
C2052 C2060 1.378 . S
C2053 C2052 1.367 . S
C2053 C2061 1.433 . S
C2054 H2050 0.929 . S
C2054 C2056 1.378 . S
C2054 C2058 1.350 . S
C2055 C2058 1.463 . S
C2055 C2060 1.350 . S
C2055 N2063 1.427 . S
C2056 H2047 0.930 . S
C2056 C2054 1.378 . S
C2056 C2057 1.367 . S
C2057 C2056 1.367 . S
C2057 C2059 1.433 . S
C2058 C2054 1.350 . S
C2058 C2055 1.463 . S
C2058 N2062 1.427 . S
C2059 H2049 0.929 . S
C2059 C2057 1.433 . S
C2059 N2062 1.384 . S
C2060 H2051 0.929 . S
C2060 C2052 1.378 . S
C2060 C2055 1.350 . S
C2061 H2048 0.929 . S
C2061 C2053 1.433 . S
C2061 N2063 1.384 . S
N2062 C2058 1.427 . S
N2062 C2059 1.384 . S
N2063 C2055 1.427 . S
N2063 C2061 1.384 . S
H2064 C2070 0.930 . S
H2065 C2074 0.930 . S
H2066 C2079 0.929 1_556 S
H2067 C2077 0.929 . S
H2068 C2072 0.929 . S
H2069 C2078 0.929 . S
C2070 H2064 0.930 . S
C2070 C2071 1.367 . S
C2070 C2078 1.378 . S
C2071 C2070 1.367 . S
C2071 C2079 1.433 . S
C2072 H2068 0.929 . S
C2072 C2074 1.378 . S
C2072 C2076 1.350 . S
C2073 C2076 1.463 . S
C2073 C2078 1.350 . S
C2073 N2081 1.427 . S
C2074 H2065 0.930 . S
C2074 C2072 1.378 . S
C2074 C2075 1.367 . S
C2075 C2074 1.367 . S
C2075 C2077 1.433 . S
C2076 C2072 1.350 . S
C2076 C2073 1.463 . S
C2076 N2080 1.427 . S
C2077 H2067 0.929 . S
C2077 C2075 1.433 . S
C2077 N2080 1.384 . S
C2078 H2069 0.929 . S
C2078 C2070 1.378 . S
C2078 C2073 1.350 . S
C2079 H2066 0.929 1_554 S
C2079 C2071 1.433 . S
C2079 N2081 1.384 . S
N2080 C2076 1.427 . S
N2080 C2077 1.384 . S
N2081 C2073 1.427 . S
N2081 C2079 1.384 . S
H2082 C2088 0.930 1_655 S
H2083 C2092 0.930 . S
H2084 C2097 0.929 . S
H2085 C2095 0.929 1_554 S
H2086 C2090 0.929 . S
H2087 C2096 0.929 . S
C2088 H2082 0.930 1_455 S
C2088 C2089 1.367 . S
C2088 C2096 1.378 . S
C2089 C2088 1.367 . S
C2089 C2097 1.433 . S
C2090 H2086 0.929 . S
C2090 C2092 1.378 . S
C2090 C2094 1.350 . S
C2091 C2094 1.463 . S
C2091 C2096 1.350 . S
C2091 N2099 1.427 . S
C2092 H2083 0.930 . S
C2092 C2090 1.378 . S
C2092 C2093 1.367 . S
C2093 C2092 1.367 . S
C2093 C2095 1.433 . S
C2094 C2090 1.350 . S
C2094 C2091 1.463 . S
C2094 N2098 1.427 . S
C2095 H2085 0.929 1_556 S
C2095 C2093 1.433 . S
C2095 N2098 1.384 . S
C2096 H2087 0.929 . S
C2096 C2088 1.378 . S
C2096 C2091 1.350 . S
C2097 H2084 0.929 . S
C2097 C2089 1.433 . S
C2097 N2099 1.384 . S
N2098 C2094 1.427 . S
N2098 C2095 1.384 . S
N2099 C2091 1.427 . S
N2099 C2097 1.384 . S
H2100 C2106 0.930 . S
H2101 C2110 0.930 . S
H2102 C2115 0.929 . S
H2103 C2113 0.929 . S
H2104 C2108 0.929 . S
H2105 C2114 0.929 . S
C2106 H2100 0.930 . S
C2106 C2107 1.367 . S
C2106 C2114 1.378 . S
C2107 C2106 1.367 . S
C2107 C2115 1.433 . S
C2108 H2104 0.929 . S
C2108 C2110 1.378 . S
C2108 C2112 1.350 . S
C2109 C2112 1.463 . S
C2109 C2114 1.350 . S
C2109 N2117 1.427 . S
C2110 H2101 0.930 . S
C2110 C2108 1.378 . S
C2110 C2111 1.367 . S
C2111 C2110 1.367 . S
C2111 C2113 1.433 . S
C2112 C2108 1.350 . S
C2112 C2109 1.463 . S
C2112 N2116 1.427 . S
C2113 H2103 0.929 . S
C2113 C2111 1.433 . S
C2113 N2116 1.384 . S
C2114 H2105 0.929 . S
C2114 C2106 1.378 . S
C2114 C2109 1.350 . S
C2115 H2102 0.929 . S
C2115 C2107 1.433 . S
C2115 N2117 1.384 . S
N2116 C2112 1.427 . S
N2116 C2113 1.384 . S
N2117 C2109 1.427 . S
N2117 C2115 1.384 . S
H2118 C2124 0.930 . S
H2119 C2128 0.930 . S
H2120 C2133 0.929 . S
H2121 C2131 0.929 . S
H2122 C2126 0.929 . S
H2123 C2132 0.929 . S
C2124 H2118 0.930 . S
C2124 C2125 1.367 . S
C2124 C2132 1.378 . S
C2125 C2124 1.367 . S
C2125 C2133 1.433 . S
C2126 H2122 0.929 . S
C2126 C2128 1.378 . S
C2126 C2130 1.350 . S
C2127 C2130 1.463 . S
C2127 C2132 1.350 . S
C2127 N2135 1.427 . S
C2128 H2119 0.930 . S
C2128 C2126 1.378 . S
C2128 C2129 1.367 . S
C2129 C2128 1.367 . S
C2129 C2131 1.433 . S
C2130 C2126 1.350 . S
C2130 C2127 1.463 . S
C2130 N2134 1.427 . S
C2131 H2121 0.929 . S
C2131 C2129 1.433 . S
C2131 N2134 1.384 . S
C2132 H2123 0.929 . S
C2132 C2124 1.378 . S
C2132 C2127 1.350 . S
C2133 H2120 0.929 . S
C2133 C2125 1.433 . S
C2133 N2135 1.384 . S
N2134 C2130 1.427 . S
N2134 C2131 1.384 . S
N2135 C2127 1.427 . S
N2135 C2133 1.384 . S
H2136 C2142 0.930 . S
H2137 C2146 0.930 . S
H2138 C2151 0.929 . S
H2139 C2149 0.929 . S
H2140 C2144 0.929 . S
H2141 C2150 0.929 . S
C2142 H2136 0.930 . S
C2142 C2143 1.367 . S
C2142 C2150 1.378 1_655 S
C2143 C2142 1.367 . S
C2143 C2151 1.433 . S
C2144 H2140 0.929 . S
C2144 C2146 1.378 . S
C2144 C2148 1.350 . S
C2145 C2148 1.463 . S
C2145 C2150 1.350 . S
C2145 N2153 1.427 . S
C2146 H2137 0.930 . S
C2146 C2144 1.378 . S
C2146 C2147 1.367 . S
C2147 C2146 1.367 . S
C2147 C2149 1.433 . S
C2148 C2144 1.350 . S
C2148 C2145 1.463 . S
C2148 N2152 1.427 . S
C2149 H2139 0.929 . S
C2149 C2147 1.433 . S
C2149 N2152 1.384 . S
C2150 H2141 0.929 . S
C2150 C2142 1.378 1_455 S
C2150 C2145 1.350 . S
C2151 H2138 0.929 . S
C2151 C2143 1.433 . S
C2151 N2153 1.384 1_655 S
N2152 C2148 1.427 . S
N2152 C2149 1.384 . S
N2153 C2145 1.427 . S
N2153 C2151 1.384 1_455 S
H2154 C2160 0.930 . S
H2155 C2164 0.930 . S
H2156 C2169 0.929 . S
H2157 C2167 0.929 . S
H2158 C2162 0.929 . S
H2159 C2168 0.929 . S
C2160 H2154 0.930 . S
C2160 C2161 1.367 . S
C2160 C2168 1.378 . S
C2161 C2160 1.367 . S
C2161 C2169 1.433 . S
C2162 H2158 0.929 . S
C2162 C2164 1.378 . S
C2162 C2166 1.350 . S
C2163 C2166 1.463 . S
C2163 C2168 1.350 . S
C2163 N2171 1.427 . S
C2164 H2155 0.930 . S
C2164 C2162 1.378 . S
C2164 C2165 1.367 . S
C2165 C2164 1.367 . S
C2165 C2167 1.433 . S
C2166 C2162 1.350 . S
C2166 C2163 1.463 . S
C2166 N2170 1.427 . S
C2167 H2157 0.929 . S
C2167 C2165 1.433 . S
C2167 N2170 1.384 . S
C2168 H2159 0.929 . S
C2168 C2160 1.378 . S
C2168 C2163 1.350 . S
C2169 H2156 0.929 . S
C2169 C2161 1.433 . S
C2169 N2171 1.384 . S
N2170 C2166 1.427 . S
N2170 C2167 1.384 . S
N2171 C2163 1.427 . S
N2171 C2169 1.384 . S
H2172 C2178 0.930 . S
H2173 C2182 0.930 . S
H2174 C2187 0.929 . S
H2175 C2185 0.929 . S
H2176 C2180 0.929 . S
H2177 C2186 0.929 . S
C2178 H2172 0.930 . S
C2178 C2179 1.367 . S
C2178 C2186 1.378 . S
C2179 C2178 1.367 . S
C2179 C2187 1.433 . S
C2180 H2176 0.929 . S
C2180 C2182 1.378 . S
C2180 C2184 1.350 . S
C2181 C2184 1.463 . S
C2181 C2186 1.350 . S
C2181 N2189 1.427 . S
C2182 H2173 0.930 . S
C2182 C2180 1.378 . S
C2182 C2183 1.367 . S
C2183 C2182 1.367 . S
C2183 C2185 1.433 . S
C2184 C2180 1.350 . S
C2184 C2181 1.463 . S
C2184 N2188 1.427 . S
C2185 H2175 0.929 . S
C2185 C2183 1.433 . S
C2185 N2188 1.384 . S
C2186 H2177 0.929 . S
C2186 C2178 1.378 . S
C2186 C2181 1.350 . S
C2187 H2174 0.929 . S
C2187 C2179 1.433 . S
C2187 N2189 1.384 . S
N2188 C2184 1.427 . S
N2188 C2185 1.384 . S
N2189 C2181 1.427 . S
N2189 C2187 1.384 . S
H2190 C2196 0.930 . S
H2191 C2200 0.930 . S
H2192 C2205 0.929 . S
H2193 C2203 0.929 1_655 S
H2194 C2198 0.929 . S
H2195 C2204 0.929 . S
C2196 H2190 0.930 . S
C2196 C2197 1.367 . S
C2196 C2204 1.378 . S
C2197 C2196 1.367 . S
C2197 C2205 1.433 . S
C2198 H2194 0.929 . S
C2198 C2200 1.378 . S
C2198 C2202 1.350 . S
C2199 C2202 1.463 . S
C2199 C2204 1.350 . S
C2199 N2207 1.427 . S
C2200 H2191 0.930 . S
C2200 C2198 1.378 . S
C2200 C2201 1.367 . S
C2201 C2200 1.367 . S
C2201 C2203 1.433 . S
C2202 C2198 1.350 . S
C2202 C2199 1.463 . S
C2202 N2206 1.427 . S
C2203 H2193 0.929 1_455 S
C2203 C2201 1.433 . S
C2203 N2206 1.384 . S
C2204 H2195 0.929 . S
C2204 C2196 1.378 . S
C2204 C2199 1.350 . S
C2205 H2192 0.929 . S
C2205 C2197 1.433 . S
C2205 N2207 1.384 . S
N2206 C2202 1.427 . S
N2206 C2203 1.384 . S
N2207 C2199 1.427 . S
N2207 C2205 1.384 . S
H2208 C2214 0.930 . S
H2209 C2218 0.930 . S
H2210 C2223 0.929 . S
H2211 C2221 0.929 . S
H2212 C2216 0.929 . S
H2213 C2222 0.929 . S
C2214 H2208 0.930 . S
C2214 C2215 1.367 . S
C2214 C2222 1.378 . S
C2215 C2214 1.367 . S
C2215 C2223 1.433 . S
C2216 H2212 0.929 . S
C2216 C2218 1.378 . S
C2216 C2220 1.350 . S
C2217 C2220 1.463 . S
C2217 C2222 1.350 . S
C2217 N2225 1.427 . S
C2218 H2209 0.930 . S
C2218 C2216 1.378 . S
C2218 C2219 1.367 . S
C2219 C2218 1.367 . S
C2219 C2221 1.433 . S
C2220 C2216 1.350 . S
C2220 C2217 1.463 . S
C2220 N2224 1.427 . S
C2221 H2211 0.929 . S
C2221 C2219 1.433 . S
C2221 N2224 1.384 . S
C2222 H2213 0.929 . S
C2222 C2214 1.378 . S
C2222 C2217 1.350 . S
C2223 H2210 0.929 . S
C2223 C2215 1.433 . S
C2223 N2225 1.384 . S
N2224 C2220 1.427 . S
N2224 C2221 1.384 . S
N2225 C2217 1.427 . S
N2225 C2223 1.384 . S
H2226 C2232 0.930 . S
H2227 C2236 0.930 . S
H2228 C2241 0.929 . S
H2229 C2239 0.929 . S
H2230 C2234 0.929 . S
H2231 C2240 0.929 . S
C2232 H2226 0.930 . S
C2232 C2233 1.367 . S
C2232 C2240 1.378 . S
C2233 C2232 1.367 . S
C2233 C2241 1.433 . S
C2234 H2230 0.929 . S
C2234 C2236 1.378 . S
C2234 C2238 1.350 . S
C2235 C2238 1.463 . S
C2235 C2240 1.350 . S
C2235 N2243 1.427 . S
C2236 H2227 0.930 . S
C2236 C2234 1.378 . S
C2236 C2237 1.367 . S
C2237 C2236 1.367 . S
C2237 C2239 1.433 . S
C2238 C2234 1.350 . S
C2238 C2235 1.463 . S
C2238 N2242 1.427 . S
C2239 H2229 0.929 . S
C2239 C2237 1.433 . S
C2239 N2242 1.384 . S
C2240 H2231 0.929 . S
C2240 C2232 1.378 . S
C2240 C2235 1.350 . S
C2241 H2228 0.929 . S
C2241 C2233 1.433 . S
C2241 N2243 1.384 . S
N2242 C2238 1.427 . S
N2242 C2239 1.384 . S
N2243 C2235 1.427 . S
N2243 C2241 1.384 . S
H2244 C2250 0.930 . S
H2245 C2254 0.930 . S
H2246 C2259 0.929 . S
H2247 C2257 0.929 . S
H2248 C2252 0.929 . S
H2249 C2258 0.929 . S
C2250 H2244 0.930 . S
C2250 C2251 1.367 . S
C2250 C2258 1.378 . S
C2251 C2250 1.367 . S
C2251 C2259 1.433 . S
C2252 H2248 0.929 . S
C2252 C2254 1.378 . S
C2252 C2256 1.350 . S
C2253 C2256 1.463 . S
C2253 C2258 1.350 . S
C2253 N2261 1.427 . S
C2254 H2245 0.930 . S
C2254 C2252 1.378 . S
C2254 C2255 1.367 . S
C2255 C2254 1.367 . S
C2255 C2257 1.433 . S
C2256 C2252 1.350 . S
C2256 C2253 1.463 . S
C2256 N2260 1.427 . S
C2257 H2247 0.929 . S
C2257 C2255 1.433 . S
C2257 N2260 1.384 . S
C2258 H2249 0.929 . S
C2258 C2250 1.378 . S
C2258 C2253 1.350 . S
C2259 H2246 0.929 . S
C2259 C2251 1.433 . S
C2259 N2261 1.384 . S
N2260 C2256 1.427 . S
N2260 C2257 1.384 . S
N2261 C2253 1.427 . S
N2261 C2259 1.384 . S
H2262 C2268 0.930 . S
H2263 C2272 0.930 . S
H2264 C2277 0.929 . S
H2265 C2275 0.929 . S
H2266 C2270 0.929 . S
H2267 C2276 0.929 . S
C2268 H2262 0.930 . S
C2268 C2269 1.367 . S
C2268 C2276 1.378 . S
C2269 C2268 1.367 . S
C2269 C2277 1.433 1_545 S
C2270 H2266 0.929 . S
C2270 C2272 1.378 . S
C2270 C2274 1.350 . S
C2271 C2274 1.463 . S
C2271 C2276 1.350 1_565 S
C2271 N2279 1.427 . S
C2272 H2263 0.930 . S
C2272 C2270 1.378 . S
C2272 C2273 1.367 . S
C2273 C2272 1.367 . S
C2273 C2275 1.433 . S
C2274 C2270 1.350 . S
C2274 C2271 1.463 . S
C2274 N2278 1.427 . S
C2275 H2265 0.929 . S
C2275 C2273 1.433 . S
C2275 N2278 1.384 . S
C2276 H2267 0.929 . S
C2276 C2268 1.378 . S
C2276 C2271 1.350 1_545 S
C2277 H2264 0.929 . S
C2277 C2269 1.433 1_565 S
C2277 N2279 1.384 . S
N2278 C2274 1.427 . S
N2278 C2275 1.384 . S
N2279 C2271 1.427 . S
N2279 C2277 1.384 . S
H2280 C2286 0.930 . S
H2281 C2290 0.930 . S
H2282 C2295 0.929 . S
H2283 C2293 0.929 . S
H2284 C2288 0.929 . S
H2285 C2294 0.929 . S
C2286 H2280 0.930 . S
C2286 C2287 1.367 . S
C2286 C2294 1.378 . S
C2287 C2286 1.367 . S
C2287 C2295 1.433 . S
C2288 H2284 0.929 . S
C2288 C2290 1.378 . S
C2288 C2292 1.350 . S
C2289 C2292 1.463 . S
C2289 C2294 1.350 . S
C2289 N2297 1.427 . S
C2290 H2281 0.930 . S
C2290 C2288 1.378 . S
C2290 C2291 1.367 . S
C2291 C2290 1.367 . S
C2291 C2293 1.433 . S
C2292 C2288 1.350 . S
C2292 C2289 1.463 . S
C2292 N2296 1.427 . S
C2293 H2283 0.929 . S
C2293 C2291 1.433 . S
C2293 N2296 1.384 . S
C2294 H2285 0.929 . S
C2294 C2286 1.378 . S
C2294 C2289 1.350 . S
C2295 H2282 0.929 . S
C2295 C2287 1.433 . S
C2295 N2297 1.384 . S
N2296 C2292 1.427 . S
N2296 C2293 1.384 . S
N2297 C2289 1.427 . S
N2297 C2295 1.384 . S
H2298 C2304 0.930 . S
H2299 C2308 0.930 . S
H2300 C2313 0.929 . S
H2301 C2311 0.929 . S
H2302 C2306 0.929 . S
H2303 C2312 0.929 . S
C2304 H2298 0.930 . S
C2304 C2305 1.367 . S
C2304 C2312 1.378 . S
C2305 C2304 1.367 . S
C2305 C2313 1.433 . S
C2306 H2302 0.929 . S
C2306 C2308 1.378 . S
C2306 C2310 1.350 . S
C2307 C2310 1.463 . S
C2307 C2312 1.350 . S
C2307 N2315 1.427 . S
C2308 H2299 0.930 . S
C2308 C2306 1.378 . S
C2308 C2309 1.367 . S
C2309 C2308 1.367 . S
C2309 C2311 1.433 . S
C2310 C2306 1.350 . S
C2310 C2307 1.463 . S
C2310 N2314 1.427 . S
C2311 H2301 0.929 . S
C2311 C2309 1.433 . S
C2311 N2314 1.384 . S
C2312 H2303 0.929 . S
C2312 C2304 1.378 . S
C2312 C2307 1.350 . S
C2313 H2300 0.929 . S
C2313 C2305 1.433 . S
C2313 N2315 1.384 . S
N2314 C2310 1.427 . S
N2314 C2311 1.384 . S
N2315 C2307 1.427 . S
N2315 C2313 1.384 . S
H2316 C2322 0.930 1_545 S
H2317 C2326 0.930 . S
H2318 C2331 0.929 . S
H2319 C2329 0.929 . S
H2320 C2324 0.929 . S
H2321 C2330 0.929 . S
C2322 H2316 0.930 1_565 S
C2322 C2323 1.367 . S
C2322 C2330 1.378 1_565 S
C2323 C2322 1.367 . S
C2323 C2331 1.433 . S
C2324 H2320 0.929 . S
C2324 C2326 1.378 . S
C2324 C2328 1.350 . S
C2325 C2328 1.463 . S
C2325 C2330 1.350 1_565 S
C2325 N2333 1.427 . S
C2326 H2317 0.930 . S
C2326 C2324 1.378 . S
C2326 C2327 1.367 1_565 S
C2327 C2326 1.367 1_545 S
C2327 C2329 1.433 . S
C2328 C2324 1.350 . S
C2328 C2325 1.463 . S
C2328 N2332 1.427 1_565 S
C2329 H2319 0.929 . S
C2329 C2327 1.433 . S
C2329 N2332 1.384 . S
C2330 H2321 0.929 . S
C2330 C2322 1.378 1_545 S
C2330 C2325 1.350 1_545 S
C2331 H2318 0.929 . S
C2331 C2323 1.433 . S
C2331 N2333 1.384 . S
N2332 C2328 1.427 1_545 S
N2332 C2329 1.384 . S
N2333 C2325 1.427 . S
N2333 C2331 1.384 . S
H2334 C2340 0.930 . S
H2335 C2344 0.930 1_556 S
H2336 C2349 0.929 . S
H2337 C2347 0.929 . S
H2338 C2342 0.929 . S
H2339 C2348 0.929 . S
C2340 H2334 0.930 . S
C2340 C2341 1.367 . S
C2340 C2348 1.378 . S
C2341 C2340 1.367 . S
C2341 C2349 1.433 . S
C2342 H2338 0.929 . S
C2342 C2344 1.377 1_556 S
C2342 C2346 1.350 . S
C2343 C2346 1.463 . S
C2343 C2348 1.350 . S
C2343 N2351 1.427 . S
C2344 H2335 0.930 1_554 S
C2344 C2342 1.377 1_554 S
C2344 C2345 1.368 . S
C2345 C2344 1.368 . S
C2345 C2347 1.433 . S
C2346 C2342 1.350 . S
C2346 C2343 1.463 . S
C2346 N2350 1.411 1_556 S
C2347 H2337 0.929 . S
C2347 C2345 1.433 . S
C2347 N2350 1.400 . S
C2348 H2339 0.929 . S
C2348 C2340 1.378 . S
C2348 C2343 1.350 . S
C2349 H2336 0.929 . S
C2349 C2341 1.433 . S
C2349 N2351 1.384 . S
N2350 C2346 1.411 1_554 S
N2350 C2347 1.400 . S
N2351 C2343 1.427 . S
N2351 C2349 1.384 . S
H2352 C2358 0.930 . S
H2353 C2362 0.930 . S
H2354 C2367 0.929 . S
H2355 C2365 0.929 . S
H2356 C2360 0.929 . S
H2357 C2366 0.929 . S
C2358 H2352 0.930 . S
C2358 C2359 1.367 . S
C2358 C2366 1.378 . S
C2359 C2358 1.367 . S
C2359 C2367 1.433 1_554 S
C2360 H2356 0.929 . S
C2360 C2362 1.378 . S
C2360 C2364 1.350 1_556 S
C2361 C2364 1.463 . S
C2361 C2366 1.350 . S
C2361 N2369 1.427 1_554 S
C2362 H2353 0.930 . S
C2362 C2360 1.378 . S
C2362 C2363 1.367 1_556 S
C2363 C2362 1.367 1_554 S
C2363 C2365 1.433 . S
C2364 C2360 1.350 1_554 S
C2364 C2361 1.463 . S
C2364 N2368 1.427 . S
C2365 H2355 0.929 . S
C2365 C2363 1.433 . S
C2365 N2368 1.384 . S
C2366 H2357 0.929 . S
C2366 C2358 1.378 . S
C2366 C2361 1.350 . S
C2367 H2354 0.929 . S
C2367 C2359 1.433 1_556 S
C2367 N2369 1.384 . S
N2368 C2364 1.427 . S
N2368 C2365 1.384 . S
N2369 C2361 1.427 1_556 S
N2369 C2367 1.384 . S
H2370 C2376 0.930 . S
H2371 C2380 0.930 . S
H2372 C2385 0.929 . S
H2373 C2383 0.929 . S
H2374 C2378 0.929 . S
H2375 C2384 0.929 . S
C2376 H2370 0.930 . S
C2376 C2377 1.367 . S
C2376 C2384 1.378 . S
C2377 C2376 1.367 . S
C2377 C2385 1.433 . S
C2378 H2374 0.929 . S
C2378 C2380 1.378 . S
C2378 C2382 1.350 . S
C2379 C2382 1.463 . S
C2379 C2384 1.350 . S
C2379 N2387 1.427 . S
C2380 H2371 0.930 . S
C2380 C2378 1.378 . S
C2380 C2381 1.367 . S
C2381 C2380 1.367 . S
C2381 C2383 1.433 . S
C2382 C2378 1.350 . S
C2382 C2379 1.463 . S
C2382 N2386 1.427 . S
C2383 H2373 0.929 . S
C2383 C2381 1.433 . S
C2383 N2386 1.384 . S
C2384 H2375 0.929 . S
C2384 C2376 1.378 . S
C2384 C2379 1.350 . S
C2385 H2372 0.929 . S
C2385 C2377 1.433 . S
C2385 N2387 1.384 . S
N2386 C2382 1.427 . S
N2386 C2383 1.384 . S
N2387 C2379 1.427 . S
N2387 C2385 1.384 . S
H2388 C2394 0.930 . S
H2389 C2398 0.930 . S
H2390 C2403 0.929 . S
H2391 C2401 0.929 . S
H2392 C2396 0.929 . S
H2393 C2402 0.929 . S
C2394 H2388 0.930 . S
C2394 C2395 1.367 . S
C2394 C2402 1.378 . S
C2395 C2394 1.367 . S
C2395 C2403 1.433 . S
C2396 H2392 0.929 . S
C2396 C2398 1.378 . S
C2396 C2400 1.350 . S
C2397 C2400 1.463 . S
C2397 C2402 1.350 . S
C2397 N2405 1.427 . S
C2398 H2389 0.930 . S
C2398 C2396 1.378 . S
C2398 C2399 1.367 . S
C2399 C2398 1.367 . S
C2399 C2401 1.433 . S
C2400 C2396 1.350 . S
C2400 C2397 1.463 . S
C2400 N2404 1.427 . S
C2401 H2391 0.929 . S
C2401 C2399 1.433 . S
C2401 N2404 1.384 . S
C2402 H2393 0.929 . S
C2402 C2394 1.378 . S
C2402 C2397 1.350 . S
C2403 H2390 0.929 . S
C2403 C2395 1.433 . S
C2403 N2405 1.384 . S
N2404 C2400 1.427 . S
N2404 C2401 1.384 . S
N2405 C2397 1.427 . S
N2405 C2403 1.384 . S
H2406 C2412 0.930 . S
H2407 C2416 0.930 . S
H2408 C2421 0.929 . S
H2409 C2419 0.929 . S
H2410 C2414 0.929 . S
H2411 C2420 0.929 1_455 S
C2412 H2406 0.930 . S
C2412 C2413 1.367 . S
C2412 C2420 1.378 . S
C2413 C2412 1.367 . S
C2413 C2421 1.433 . S
C2414 H2410 0.929 . S
C2414 C2416 1.378 . S
C2414 C2418 1.350 . S
C2415 C2418 1.463 . S
C2415 C2420 1.350 1_455 S
C2415 N2423 1.427 1_455 S
C2416 H2407 0.930 . S
C2416 C2414 1.378 . S
C2416 C2417 1.367 . S
C2417 C2416 1.367 . S
C2417 C2419 1.433 . S
C2418 C2414 1.350 . S
C2418 C2415 1.463 . S
C2418 N2422 1.427 . S
C2419 H2409 0.929 . S
C2419 C2417 1.433 . S
C2419 N2422 1.384 . S
C2420 H2411 0.929 1_655 S
C2420 C2412 1.378 . S
C2420 C2415 1.350 1_655 S
C2421 H2408 0.929 . S
C2421 C2413 1.433 . S
C2421 N2423 1.384 . S
N2422 C2418 1.427 . S
N2422 C2419 1.384 . S
N2423 C2415 1.427 1_655 S
N2423 C2421 1.384 . S
H2424 C2430 0.930 . S
H2425 C2434 0.930 . S
H2426 C2439 0.929 . S
H2427 C2437 0.929 . S
H2428 C2432 0.929 . S
H2429 C2438 0.929 . S
C2430 H2424 0.930 . S
C2430 C2431 1.367 . S
C2430 C2438 1.378 . S
C2431 C2430 1.367 . S
C2431 C2439 1.433 . S
C2432 H2428 0.929 . S
C2432 C2434 1.378 . S
C2432 C2436 1.350 . S
C2433 C2436 1.463 . S
C2433 C2438 1.350 . S
C2433 N2441 1.427 . S
C2434 H2425 0.930 . S
C2434 C2432 1.378 . S
C2434 C2435 1.367 . S
C2435 C2434 1.367 . S
C2435 C2437 1.433 . S
C2436 C2432 1.350 . S
C2436 C2433 1.463 . S
C2436 N2440 1.427 . S
C2437 H2427 0.929 . S
C2437 C2435 1.433 . S
C2437 N2440 1.384 . S
C2438 H2429 0.929 . S
C2438 C2430 1.378 . S
C2438 C2433 1.350 . S
C2439 H2426 0.929 . S
C2439 C2431 1.433 . S
C2439 N2441 1.384 . S
N2440 C2436 1.427 . S
N2440 C2437 1.384 . S
N2441 C2433 1.427 . S
N2441 C2439 1.384 . S
H2442 C2448 0.930 . S
H2443 C2452 0.930 . S
H2444 C2457 0.929 . S
H2445 C2455 0.929 . S
H2446 C2450 0.929 . S
H2447 C2456 0.929 . S
C2448 H2442 0.930 . S
C2448 C2449 1.367 . S
C2448 C2456 1.378 . S
C2449 C2448 1.367 . S
C2449 C2457 1.433 . S
C2450 H2446 0.929 . S
C2450 C2452 1.378 . S
C2450 C2454 1.350 . S
C2451 C2454 1.463 . S
C2451 C2456 1.350 . S
C2451 N2459 1.427 . S
C2452 H2443 0.930 . S
C2452 C2450 1.378 . S
C2452 C2453 1.367 . S
C2453 C2452 1.367 . S
C2453 C2455 1.433 . S
C2454 C2450 1.350 . S
C2454 C2451 1.463 . S
C2454 N2458 1.427 . S
C2455 H2445 0.929 . S
C2455 C2453 1.433 . S
C2455 N2458 1.384 . S
C2456 H2447 0.929 . S
C2456 C2448 1.378 . S
C2456 C2451 1.350 . S
C2457 H2444 0.929 . S
C2457 C2449 1.433 . S
C2457 N2459 1.384 . S
N2458 C2454 1.427 . S
N2458 C2455 1.384 . S
N2459 C2451 1.427 . S
N2459 C2457 1.384 . S
H2460 C2466 0.930 . S
H2461 C2470 0.930 . S
H2462 C2475 0.929 . S
H2463 C2473 0.929 . S
H2464 C2468 0.929 . S
H2465 C2474 0.929 . S
C2466 H2460 0.930 . S
C2466 C2467 1.367 . S
C2466 C2474 1.378 . S
C2467 C2466 1.367 . S
C2467 C2475 1.433 . S
C2468 H2464 0.929 . S
C2468 C2470 1.378 . S
C2468 C2472 1.350 . S
C2469 C2472 1.463 . S
C2469 C2474 1.350 . S
C2469 N2477 1.427 . S
C2470 H2461 0.930 . S
C2470 C2468 1.378 . S
C2470 C2471 1.367 . S
C2471 C2470 1.367 . S
C2471 C2473 1.433 . S
C2472 C2468 1.350 . S
C2472 C2469 1.463 . S
C2472 N2476 1.427 . S
C2473 H2463 0.929 . S
C2473 C2471 1.433 . S
C2473 N2476 1.384 . S
C2474 H2465 0.929 . S
C2474 C2466 1.378 . S
C2474 C2469 1.350 . S
C2475 H2462 0.929 . S
C2475 C2467 1.433 . S
C2475 N2477 1.384 . S
N2476 C2472 1.427 . S
N2476 C2473 1.384 . S
N2477 C2469 1.427 . S
N2477 C2475 1.384 . S
H2478 C2484 0.930 . S
H2479 C2488 0.910 1_554 S
H2480 C2493 0.929 . S
H2481 C2491 0.929 . S
H2482 C2486 0.929 . S
H2483 C2492 0.929 . S
C2484 H2478 0.930 . S
C2484 C2485 1.367 . S
C2484 C2492 1.378 . S
C2485 C2484 1.367 . S
C2485 C2493 1.433 . S
C2486 H2482 0.929 . S
C2486 C2488 1.378 . S
C2486 C2490 1.350 . S
C2487 C2490 1.463 . S
C2487 C2492 1.350 . S
C2487 N2495 1.427 . S
C2488 H2479 0.910 1_556 S
C2488 C2486 1.378 . S
C2488 C2489 1.367 . S
C2489 C2488 1.367 . S
C2489 C2491 1.433 . S
C2490 C2486 1.350 . S
C2490 C2487 1.463 . S
C2490 N2494 1.427 . S
C2491 H2481 0.929 . S
C2491 C2489 1.433 . S
C2491 N2494 1.384 . S
C2492 H2483 0.929 . S
C2492 C2484 1.378 . S
C2492 C2487 1.350 . S
C2493 H2480 0.929 . S
C2493 C2485 1.433 . S
C2493 N2495 1.384 . S
N2494 C2490 1.427 . S
N2494 C2491 1.384 . S
N2495 C2487 1.427 . S
N2495 C2493 1.384 . S
H2496 C2502 0.930 . S
H2497 C2506 0.930 . S
H2498 C2511 0.929 . S
H2499 C2509 0.929 . S
H2500 C2504 0.961 . S
H2501 C2510 0.929 . S
C2502 H2496 0.930 . S
C2502 C2503 1.367 . S
C2502 C2510 1.378 . S
C2503 C2502 1.367 . S
C2503 C2511 1.433 1_655 S
C2504 H2500 0.961 . S
C2504 C2506 1.378 . S
C2504 C2508 1.350 . S
C2505 C2508 1.463 . S
C2505 C2510 1.350 . S
C2505 N2513 1.440 . S
C2506 H2497 0.930 . S
C2506 C2504 1.378 . S
C2506 C2507 1.367 . S
C2507 C2506 1.367 . S
C2507 C2509 1.433 . S
C2508 C2504 1.350 . S
C2508 C2505 1.463 . S
C2508 N2512 1.427 . S
C2509 H2499 0.929 . S
C2509 C2507 1.433 . S
C2509 N2512 1.384 . S
C2510 H2501 0.929 . S
C2510 C2502 1.378 . S
C2510 C2505 1.350 . S
C2511 H2498 0.929 . S
C2511 C2503 1.433 1_455 S
C2511 N2513 1.378 1_455 S
N2512 C2508 1.427 . S
N2512 C2509 1.384 . S
N2513 C2505 1.440 . S
N2513 C2511 1.378 1_655 S
H2514 C2520 0.930 . S
H2515 C2524 0.930 . S
H2516 C2529 0.929 . S
H2517 C2527 0.929 . S
H2518 C2522 0.929 . S
H2519 C2528 0.929 . S
C2520 H2514 0.930 . S
C2520 C2521 1.367 . S
C2520 C2528 1.378 . S
C2521 C2520 1.367 . S
C2521 C2529 1.433 . S
C2522 H2518 0.929 . S
C2522 C2524 1.378 . S
C2522 C2526 1.350 . S
C2523 C2526 1.463 . S
C2523 C2528 1.350 . S
C2523 N2531 1.427 . S
C2524 H2515 0.930 . S
C2524 C2522 1.378 . S
C2524 C2525 1.367 . S
C2525 C2524 1.367 . S
C2525 C2527 1.433 . S
C2526 C2522 1.350 . S
C2526 C2523 1.463 . S
C2526 N2530 1.427 . S
C2527 H2517 0.929 . S
C2527 C2525 1.433 . S
C2527 N2530 1.384 . S
C2528 H2519 0.929 . S
C2528 C2520 1.378 . S
C2528 C2523 1.350 . S
C2529 H2516 0.929 . S
C2529 C2521 1.433 . S
C2529 N2531 1.384 . S
N2530 C2526 1.427 . S
N2530 C2527 1.384 . S
N2531 C2523 1.427 . S
N2531 C2529 1.384 . S
H2532 C2538 0.930 . S
H2533 C2542 0.930 . S
H2534 C2547 0.929 1_556 S
H2535 C2545 0.929 . S
H2536 C2540 0.929 . S
H2537 C2546 0.929 . S
C2538 H2532 0.930 . S
C2538 C2539 1.367 . S
C2538 C2546 1.378 . S
C2539 C2538 1.367 . S
C2539 C2547 1.433 . S
C2540 H2536 0.929 . S
C2540 C2542 1.378 . S
C2540 C2544 1.350 . S
C2541 C2544 1.463 . S
C2541 C2546 1.350 . S
C2541 N2549 1.427 . S
C2542 H2533 0.930 . S
C2542 C2540 1.378 . S
C2542 C2543 1.367 . S
C2543 C2542 1.367 . S
C2543 C2545 1.433 . S
C2544 C2540 1.350 . S
C2544 C2541 1.463 . S
C2544 N2548 1.427 . S
C2545 H2535 0.929 . S
C2545 C2543 1.433 . S
C2545 N2548 1.384 . S
C2546 H2537 0.929 . S
C2546 C2538 1.378 . S
C2546 C2541 1.350 . S
C2547 H2534 0.929 1_554 S
C2547 C2539 1.433 . S
C2547 N2549 1.384 . S
N2548 C2544 1.427 . S
N2548 C2545 1.384 . S
N2549 C2541 1.427 . S
N2549 C2547 1.384 . S
H2550 C2556 0.930 . S
H2551 C2560 0.930 . S
H2552 C2565 0.929 . S
H2553 C2563 0.929 . S
H2554 C2558 0.929 . S
H2555 C2564 0.929 . S
C2556 H2550 0.930 . S
C2556 C2557 1.367 . S
C2556 C2564 1.378 . S
C2557 C2556 1.367 . S
C2557 C2565 1.433 . S
C2558 H2554 0.929 . S
C2558 C2560 1.378 . S
C2558 C2562 1.350 . S
C2559 C2562 1.463 . S
C2559 C2564 1.350 . S
C2559 N2567 1.427 . S
C2560 H2551 0.930 . S
C2560 C2558 1.378 . S
C2560 C2561 1.367 . S
C2561 C2560 1.367 . S
C2561 C2563 1.433 . S
C2562 C2558 1.350 . S
C2562 C2559 1.463 . S
C2562 N2566 1.427 . S
C2563 H2553 0.929 . S
C2563 C2561 1.433 . S
C2563 N2566 1.384 . S
C2564 H2555 0.929 . S
C2564 C2556 1.378 . S
C2564 C2559 1.350 . S
C2565 H2552 0.929 . S
C2565 C2557 1.433 . S
C2565 N2567 1.384 . S
N2566 C2562 1.427 . S
N2566 C2563 1.384 . S
N2567 C2559 1.427 . S
N2567 C2565 1.384 . S
H2568 C2574 0.930 . S
H2569 C2578 0.930 . S
H2570 C2583 0.929 . S
H2571 C2581 0.929 . S
H2572 C2576 0.929 . S
H2573 C2582 0.929 . S
C2574 H2568 0.930 . S
C2574 C2575 1.367 . S
C2574 C2582 1.378 . S
C2575 C2574 1.367 . S
C2575 C2583 1.433 . S
C2576 H2572 0.929 . S
C2576 C2578 1.378 . S
C2576 C2580 1.350 . S
C2577 C2580 1.463 . S
C2577 C2582 1.350 . S
C2577 N2585 1.427 . S
C2578 H2569 0.930 . S
C2578 C2576 1.378 . S
C2578 C2579 1.367 . S
C2579 C2578 1.367 . S
C2579 C2581 1.433 . S
C2580 C2576 1.350 . S
C2580 C2577 1.463 . S
C2580 N2584 1.427 . S
C2581 H2571 0.929 . S
C2581 C2579 1.433 . S
C2581 N2584 1.384 . S
C2582 H2573 0.929 . S
C2582 C2574 1.378 . S
C2582 C2577 1.350 . S
C2583 H2570 0.929 . S
C2583 C2575 1.433 . S
C2583 N2585 1.384 . S
N2584 C2580 1.427 . S
N2584 C2581 1.384 . S
N2585 C2577 1.427 . S
N2585 C2583 1.384 . S
H2586 C2592 0.930 . S
H2587 C2596 0.930 . S
H2588 C2601 0.929 . S
H2589 C2599 0.929 . S
H2590 C2594 0.929 . S
H2591 C2600 0.929 . S
C2592 H2586 0.930 . S
C2592 C2593 1.367 . S
C2592 C2600 1.378 . S
C2593 C2592 1.367 . S
C2593 C2601 1.433 . S
C2594 H2590 0.929 . S
C2594 C2596 1.378 . S
C2594 C2598 1.350 . S
C2595 C2598 1.463 . S
C2595 C2600 1.350 . S
C2595 N2603 1.427 . S
C2596 H2587 0.930 . S
C2596 C2594 1.378 . S
C2596 C2597 1.367 . S
C2597 C2596 1.367 . S
C2597 C2599 1.433 . S
C2598 C2594 1.350 . S
C2598 C2595 1.463 . S
C2598 N2602 1.427 . S
C2599 H2589 0.929 . S
C2599 C2597 1.433 . S
C2599 N2602 1.384 . S
C2600 H2591 0.929 . S
C2600 C2592 1.378 . S
C2600 C2595 1.350 . S
C2601 H2588 0.929 . S
C2601 C2593 1.433 . S
C2601 N2603 1.384 . S
N2602 C2598 1.427 . S
N2602 C2599 1.384 . S
N2603 C2595 1.427 . S
N2603 C2601 1.384 . S
H2604 C2610 0.930 . S
H2605 C2614 0.930 . S
H2606 C2619 0.929 . S
H2607 C2617 0.929 . S
H2608 C2612 0.929 . S
H2609 C2618 0.929 . S
C2610 H2604 0.930 . S
C2610 C2611 1.367 . S
C2610 C2618 1.378 . S
C2611 C2610 1.367 . S
C2611 C2619 1.433 . S
C2612 H2608 0.929 . S
C2612 C2614 1.378 . S
C2612 C2616 1.350 . S
C2613 C2616 1.463 . S
C2613 C2618 1.350 . S
C2613 N2621 1.427 . S
C2614 H2605 0.930 . S
C2614 C2612 1.378 . S
C2614 C2615 1.367 . S
C2615 C2614 1.367 . S
C2615 C2617 1.433 . S
C2616 C2612 1.350 . S
C2616 C2613 1.463 . S
C2616 N2620 1.427 . S
C2617 H2607 0.929 . S
C2617 C2615 1.433 . S
C2617 N2620 1.384 . S
C2618 H2609 0.929 . S
C2618 C2610 1.378 . S
C2618 C2613 1.350 . S
C2619 H2606 0.929 . S
C2619 C2611 1.433 . S
C2619 N2621 1.384 . S
N2620 C2616 1.427 . S
N2620 C2617 1.384 . S
N2621 C2613 1.427 . S
N2621 C2619 1.384 . S
H2622 C2628 0.930 . S
H2623 C2632 0.930 . S
H2624 C2637 0.929 . S
H2625 C2635 0.929 . S
H2626 C2630 0.929 . S
H2627 C2636 0.929 . S
C2628 H2622 0.930 . S
C2628 C2629 1.367 . S
C2628 C2636 1.378 . S
C2629 C2628 1.367 . S
C2629 C2637 1.433 . S
C2630 H2626 0.929 . S
C2630 C2632 1.378 . S
C2630 C2634 1.350 . S
C2631 C2634 1.463 . S
C2631 C2636 1.350 . S
C2631 N2639 1.427 . S
C2632 H2623 0.930 . S
C2632 C2630 1.378 . S
C2632 C2633 1.367 . S
C2633 C2632 1.367 . S
C2633 C2635 1.433 . S
C2634 C2630 1.350 . S
C2634 C2631 1.463 . S
C2634 N2638 1.427 . S
C2635 H2625 0.929 . S
C2635 C2633 1.433 . S
C2635 N2638 1.384 . S
C2636 H2627 0.929 . S
C2636 C2628 1.378 . S
C2636 C2631 1.350 . S
C2637 H2624 0.929 . S
C2637 C2629 1.433 . S
C2637 N2639 1.384 . S
N2638 C2634 1.427 . S
N2638 C2635 1.384 . S
N2639 C2631 1.427 . S
N2639 C2637 1.384 . S
H2640 C2646 0.930 . S
H2641 C2650 0.930 . S
H2642 C2655 0.929 . S
H2643 C2653 0.929 . S
H2644 C2648 0.929 . S
H2645 C2654 0.929 . S
C2646 H2640 0.930 . S
C2646 C2647 1.367 . S
C2646 C2654 1.378 . S
C2647 C2646 1.367 . S
C2647 C2655 1.433 . S
C2648 H2644 0.929 . S
C2648 C2650 1.378 . S
C2648 C2652 1.350 . S
C2649 C2652 1.463 . S
C2649 C2654 1.350 . S
C2649 N2657 1.427 . S
C2650 H2641 0.930 . S
C2650 C2648 1.378 . S
C2650 C2651 1.367 . S
C2651 C2650 1.367 . S
C2651 C2653 1.433 . S
C2652 C2648 1.350 . S
C2652 C2649 1.463 . S
C2652 N2656 1.427 . S
C2653 H2643 0.929 . S
C2653 C2651 1.433 . S
C2653 N2656 1.384 . S
C2654 H2645 0.929 . S
C2654 C2646 1.378 . S
C2654 C2649 1.350 . S
C2655 H2642 0.929 . S
C2655 C2647 1.433 . S
C2655 N2657 1.384 . S
N2656 C2652 1.427 . S
N2656 C2653 1.384 . S
N2657 C2649 1.427 . S
N2657 C2655 1.384 . S
H2658 C2664 0.930 . S
H2659 C2668 0.930 . S
H2660 C2673 0.929 . S
H2661 C2671 0.929 1_655 S
H2662 C2666 0.929 . S
H2663 C2672 0.929 . S
C2664 H2658 0.930 . S
C2664 C2665 1.367 . S
C2664 C2672 1.378 . S
C2665 C2664 1.367 . S
C2665 C2673 1.433 . S
C2666 H2662 0.929 . S
C2666 C2668 1.378 . S
C2666 C2670 1.350 . S
C2667 C2670 1.463 . S
C2667 C2672 1.350 . S
C2667 N2675 1.427 . S
C2668 H2659 0.930 . S
C2668 C2666 1.378 . S
C2668 C2669 1.367 . S
C2669 C2668 1.367 . S
C2669 C2671 1.433 . S
C2670 C2666 1.350 . S
C2670 C2667 1.463 . S
C2670 N2674 1.427 . S
C2671 H2661 0.929 1_455 S
C2671 C2669 1.433 . S
C2671 N2674 1.384 . S
C2672 H2663 0.929 . S
C2672 C2664 1.378 . S
C2672 C2667 1.350 . S
C2673 H2660 0.929 . S
C2673 C2665 1.433 . S
C2673 N2675 1.384 . S
N2674 C2670 1.427 . S
N2674 C2671 1.384 . S
N2675 C2667 1.427 . S
N2675 C2673 1.384 . S
H2676 C2682 0.930 . S
H2677 C2686 0.930 . S
H2678 C2691 0.929 . S
H2679 C2689 0.929 . S
H2680 C2684 0.929 . S
H2681 C2690 0.929 . S
C2682 H2676 0.930 . S
C2682 C2683 1.367 . S
C2682 C2690 1.378 . S
C2683 C2682 1.367 . S
C2683 C2691 1.433 . S
C2684 H2680 0.929 . S
C2684 C2686 1.378 . S
C2684 C2688 1.350 . S
C2685 C2688 1.463 . S
C2685 C2690 1.350 . S
C2685 N2693 1.427 . S
C2686 H2677 0.930 . S
C2686 C2684 1.378 . S
C2686 C2687 1.367 . S
C2687 C2686 1.367 . S
C2687 C2689 1.433 . S
C2688 C2684 1.350 . S
C2688 C2685 1.463 . S
C2688 N2692 1.427 . S
C2689 H2679 0.929 . S
C2689 C2687 1.433 . S
C2689 N2692 1.384 . S
C2690 H2681 0.929 . S
C2690 C2682 1.378 . S
C2690 C2685 1.350 . S
C2691 H2678 0.929 . S
C2691 C2683 1.433 . S
C2691 N2693 1.384 . S
N2692 C2688 1.427 . S
N2692 C2689 1.384 . S
N2693 C2685 1.427 . S
N2693 C2691 1.384 . S
H2694 C2700 0.930 . S
H2695 C2704 0.930 . S
H2696 C2709 0.929 . S
H2697 C2707 0.929 . S
H2698 C2702 0.929 . S
H2699 C2708 0.929 . S
C2700 H2694 0.930 . S
C2700 C2701 1.367 . S
C2700 C2708 1.378 1_554 S
C2701 C2700 1.367 . S
C2701 C2709 1.433 1_554 S
C2702 H2698 0.929 . S
C2702 C2704 1.378 . S
C2702 C2706 1.350 . S
C2703 C2706 1.463 . S
C2703 C2708 1.350 . S
C2703 N2711 1.427 . S
C2704 H2695 0.930 . S
C2704 C2702 1.378 . S
C2704 C2705 1.367 . S
C2705 C2704 1.367 . S
C2705 C2707 1.433 . S
C2706 C2702 1.350 . S
C2706 C2703 1.463 . S
C2706 N2710 1.427 . S
C2707 H2697 0.929 . S
C2707 C2705 1.433 . S
C2707 N2710 1.384 . S
C2708 H2699 0.929 . S
C2708 C2700 1.378 1_556 S
C2708 C2703 1.350 . S
C2709 H2696 0.929 . S
C2709 C2701 1.433 1_556 S
C2709 N2711 1.384 . S
N2710 C2706 1.427 . S
N2710 C2707 1.384 . S
N2711 C2703 1.427 . S
N2711 C2709 1.384 . S
H2712 C2718 0.930 . S
H2713 C2722 0.930 . S
H2714 C2727 0.929 . S
H2715 C2725 0.929 . S
H2716 C2720 0.929 . S
H2717 C2726 0.929 . S
C2718 H2712 0.930 . S
C2718 C2719 1.367 . S
C2718 C2726 1.378 . S
C2719 C2718 1.367 . S
C2719 C2727 1.433 . S
C2720 H2716 0.929 . S
C2720 C2722 1.378 . S
C2720 C2724 1.350 . S
C2721 C2724 1.463 . S
C2721 C2726 1.350 . S
C2721 N2729 1.427 . S
C2722 H2713 0.930 . S
C2722 C2720 1.378 . S
C2722 C2723 1.367 . S
C2723 C2722 1.367 . S
C2723 C2725 1.433 . S
C2724 C2720 1.350 . S
C2724 C2721 1.463 . S
C2724 N2728 1.427 . S
C2725 H2715 0.929 . S
C2725 C2723 1.433 . S
C2725 N2728 1.384 . S
C2726 H2717 0.929 . S
C2726 C2718 1.378 . S
C2726 C2721 1.350 . S
C2727 H2714 0.929 . S
C2727 C2719 1.433 . S
C2727 N2729 1.384 . S
N2728 C2724 1.427 . S
N2728 C2725 1.384 . S
N2729 C2721 1.427 . S
N2729 C2727 1.384 . S
H2730 C2736 0.930 . S
H2731 C2740 0.930 . S
H2732 C2745 0.929 . S
H2733 C2743 0.929 . S
H2734 C2738 0.929 . S
H2735 C2744 0.929 . S
C2736 H2730 0.930 . S
C2736 C2737 1.367 . S
C2736 C2744 1.378 . S
C2737 C2736 1.367 . S
C2737 C2745 1.433 . S
C2738 H2734 0.929 . S
C2738 C2740 1.378 . S
C2738 C2742 1.350 . S
C2739 C2742 1.463 . S
C2739 C2744 1.350 . S
C2739 N2747 1.427 . S
C2740 H2731 0.930 . S
C2740 C2738 1.378 . S
C2740 C2741 1.367 . S
C2741 C2740 1.367 . S
C2741 C2743 1.433 . S
C2742 C2738 1.350 . S
C2742 C2739 1.463 . S
C2742 N2746 1.427 . S
C2743 H2733 0.929 . S
C2743 C2741 1.433 . S
C2743 N2746 1.384 . S
C2744 H2735 0.929 . S
C2744 C2736 1.378 . S
C2744 C2739 1.350 . S
C2745 H2732 0.929 . S
C2745 C2737 1.433 . S
C2745 N2747 1.384 . S
N2746 C2742 1.427 . S
N2746 C2743 1.384 . S
N2747 C2739 1.427 . S
N2747 C2745 1.384 . S
H2748 C2754 0.930 . S
H2749 C2758 0.930 . S
H2750 C2763 0.929 . S
H2751 C2761 0.929 . S
H2752 C2756 0.929 . S
H2753 C2762 0.929 . S
C2754 H2748 0.930 . S
C2754 C2755 1.367 . S
C2754 C2762 1.378 . S
C2755 C2754 1.367 . S
C2755 C2763 1.433 . S
C2756 H2752 0.929 . S
C2756 C2758 1.378 . S
C2756 C2760 1.350 . S
C2757 C2760 1.463 . S
C2757 C2762 1.350 . S
C2757 N2765 1.427 . S
C2758 H2749 0.930 . S
C2758 C2756 1.378 . S
C2758 C2759 1.367 . S
C2759 C2758 1.367 . S
C2759 C2761 1.433 . S
C2760 C2756 1.350 . S
C2760 C2757 1.463 . S
C2760 N2764 1.427 . S
C2761 H2751 0.929 . S
C2761 C2759 1.433 . S
C2761 N2764 1.384 . S
C2762 H2753 0.929 . S
C2762 C2754 1.378 . S
C2762 C2757 1.350 . S
C2763 H2750 0.929 . S
C2763 C2755 1.433 . S
C2763 N2765 1.384 . S
N2764 C2760 1.427 . S
N2764 C2761 1.384 . S
N2765 C2757 1.427 . S
N2765 C2763 1.384 . S
H2766 C2772 0.930 . S
H2767 C2776 0.930 . S
H2768 C2781 0.929 . S
H2769 C2779 0.929 . S
H2770 C2774 0.929 . S
H2771 C2780 0.929 . S
C2772 H2766 0.930 . S
C2772 C2773 1.367 . S
C2772 C2780 1.378 . S
C2773 C2772 1.367 . S
C2773 C2781 1.433 . S
C2774 H2770 0.929 . S
C2774 C2776 1.378 . S
C2774 C2778 1.350 . S
C2775 C2778 1.463 . S
C2775 C2780 1.350 . S
C2775 N2783 1.427 . S
C2776 H2767 0.930 . S
C2776 C2774 1.378 . S
C2776 C2777 1.367 . S
C2777 C2776 1.367 . S
C2777 C2779 1.433 . S
C2778 C2774 1.350 . S
C2778 C2775 1.463 . S
C2778 N2782 1.427 . S
C2779 H2769 0.929 . S
C2779 C2777 1.433 . S
C2779 N2782 1.384 . S
C2780 H2771 0.929 . S
C2780 C2772 1.378 . S
C2780 C2775 1.350 . S
C2781 H2768 0.929 . S
C2781 C2773 1.433 . S
C2781 N2783 1.384 . S
N2782 C2778 1.427 . S
N2782 C2779 1.384 . S
N2783 C2775 1.427 . S
N2783 C2781 1.384 . S
H2784 C2790 0.930 . S
H2785 C2794 0.930 . S
H2786 C2799 0.929 . S
H2787 C2797 0.929 . S
H2788 C2792 0.929 . S
H2789 C2798 0.929 . S
C2790 H2784 0.930 . S
C2790 C2791 1.367 . S
C2790 C2798 1.378 . S
C2791 C2790 1.367 . S
C2791 C2799 1.433 . S
C2792 H2788 0.929 . S
C2792 C2794 1.378 . S
C2792 C2796 1.350 . S
C2793 C2796 1.463 . S
C2793 C2798 1.350 . S
C2793 N2801 1.427 . S
C2794 H2785 0.930 . S
C2794 C2792 1.378 . S
C2794 C2795 1.367 . S
C2795 C2794 1.367 . S
C2795 C2797 1.433 . S
C2796 C2792 1.350 . S
C2796 C2793 1.463 . S
C2796 N2800 1.427 . S
C2797 H2787 0.929 . S
C2797 C2795 1.433 . S
C2797 N2800 1.384 . S
C2798 H2789 0.929 . S
C2798 C2790 1.378 . S
C2798 C2793 1.350 . S
C2799 H2786 0.929 . S
C2799 C2791 1.433 . S
C2799 N2801 1.384 . S
N2800 C2796 1.427 . S
N2800 C2797 1.384 . S
N2801 C2793 1.427 . S
N2801 C2799 1.384 . S
H2802 C2808 0.930 . S
H2803 C2812 0.930 . S
H2804 C2817 0.955 . S
H2805 C2815 0.929 . S
H2806 C2810 0.929 . S
H2807 C2816 0.929 . S
C2808 H2802 0.930 . S
C2808 C2809 1.367 . S
C2808 C2816 1.378 . S
C2809 C2808 1.367 . S
C2809 C2817 1.433 . S
C2810 H2806 0.929 . S
C2810 C2812 1.378 . S
C2810 C2814 1.350 . S
C2811 C2814 1.463 . S
C2811 C2816 1.350 . S
C2811 N2819 1.427 . S
C2812 H2803 0.930 . S
C2812 C2810 1.378 . S
C2812 C2813 1.367 . S
C2813 C2812 1.367 . S
C2813 C2815 1.433 . S
C2814 C2810 1.350 . S
C2814 C2811 1.463 . S
C2814 N2818 1.427 . S
C2815 H2805 0.929 . S
C2815 C2813 1.433 . S
C2815 N2818 1.384 . S
C2816 H2807 0.929 . S
C2816 C2808 1.378 . S
C2816 C2811 1.350 . S
C2817 H2804 0.955 . S
C2817 C2809 1.433 . S
C2817 N2819 1.384 . S
N2818 C2814 1.427 . S
N2818 C2815 1.384 . S
N2819 C2811 1.427 . S
N2819 C2817 1.384 . S
H2820 C2826 0.930 . S
H2821 C2830 0.930 . S
H2822 C2835 0.929 . S
H2823 C2833 0.929 . S
H2824 C2828 0.929 . S
H2825 C2834 0.929 . S
C2826 H2820 0.930 . S
C2826 C2827 1.367 . S
C2826 C2834 1.378 . S
C2827 C2826 1.367 . S
C2827 C2835 1.433 . S
C2828 H2824 0.929 . S
C2828 C2830 1.378 . S
C2828 C2832 1.350 . S
C2829 C2832 1.463 . S
C2829 C2834 1.350 . S
C2829 N2837 1.427 . S
C2830 H2821 0.930 . S
C2830 C2828 1.378 . S
C2830 C2831 1.367 . S
C2831 C2830 1.367 . S
C2831 C2833 1.433 . S
C2832 C2828 1.350 . S
C2832 C2829 1.463 . S
C2832 N2836 1.427 . S
C2833 H2823 0.929 . S
C2833 C2831 1.433 . S
C2833 N2836 1.384 . S
C2834 H2825 0.929 . S
C2834 C2826 1.378 . S
C2834 C2829 1.350 . S
C2835 H2822 0.929 . S
C2835 C2827 1.433 . S
C2835 N2837 1.384 . S
N2836 C2832 1.427 . S
N2836 C2833 1.384 . S
N2837 C2829 1.427 . S
N2837 C2835 1.384 . S
H2838 C2844 0.930 . S
H2839 C2848 0.930 . S
H2840 C2853 0.929 . S
H2841 C2851 0.929 . S
H2842 C2846 0.929 . S
H2843 C2852 0.929 . S
C2844 H2838 0.930 . S
C2844 C2845 1.367 . S
C2844 C2852 1.378 . S
C2845 C2844 1.367 . S
C2845 C2853 1.433 . S
C2846 H2842 0.929 . S
C2846 C2848 1.378 . S
C2846 C2850 1.350 . S
C2847 C2850 1.463 . S
C2847 C2852 1.350 . S
C2847 N2855 1.427 . S
C2848 H2839 0.930 . S
C2848 C2846 1.378 . S
C2848 C2849 1.367 . S
C2849 C2848 1.367 . S
C2849 C2851 1.433 . S
C2850 C2846 1.350 . S
C2850 C2847 1.463 . S
C2850 N2854 1.427 . S
C2851 H2841 0.929 . S
C2851 C2849 1.433 . S
C2851 N2854 1.384 . S
C2852 H2843 0.929 . S
C2852 C2844 1.378 . S
C2852 C2847 1.350 . S
C2853 H2840 0.929 . S
C2853 C2845 1.433 . S
C2853 N2855 1.384 . S
N2854 C2850 1.427 . S
N2854 C2851 1.384 . S
N2855 C2847 1.427 . S
N2855 C2853 1.384 . S
H2856 C2862 0.930 . S
H2857 C2866 0.930 . S
H2858 C2871 0.929 . S
H2859 C2869 0.929 . S
H2860 C2864 0.929 . S
H2861 C2870 0.929 . S
C2862 H2856 0.930 . S
C2862 C2863 1.367 . S
C2862 C2870 1.378 . S
C2863 C2862 1.367 . S
C2863 C2871 1.433 . S
C2864 H2860 0.929 . S
C2864 C2866 1.378 . S
C2864 C2868 1.350 . S
C2865 C2868 1.463 . S
C2865 C2870 1.350 . S
C2865 N2873 1.427 . S
C2866 H2857 0.930 . S
C2866 C2864 1.378 . S
C2866 C2867 1.367 . S
C2867 C2866 1.367 . S
C2867 C2869 1.433 . S
C2868 C2864 1.350 . S
C2868 C2865 1.463 . S
C2868 N2872 1.427 . S
C2869 H2859 0.929 . S
C2869 C2867 1.433 . S
C2869 N2872 1.384 . S
C2870 H2861 0.929 . S
C2870 C2862 1.378 . S
C2870 C2865 1.350 . S
C2871 H2858 0.929 . S
C2871 C2863 1.433 . S
C2871 N2873 1.384 . S
N2872 C2868 1.427 . S
N2872 C2869 1.384 . S
N2873 C2865 1.427 . S
N2873 C2871 1.384 . S
H2874 C2880 0.930 . S
H2875 C2884 0.930 . S
H2876 C2889 0.929 . S
H2877 C2887 0.929 . S
H2878 C2882 0.929 . S
H2879 C2888 0.929 . S
C2880 H2874 0.930 . S
C2880 C2881 1.367 . S
C2880 C2888 1.378 . S
C2881 C2880 1.367 . S
C2881 C2889 1.433 . S
C2882 H2878 0.929 . S
C2882 C2884 1.378 . S
C2882 C2886 1.350 . S
C2883 C2886 1.463 . S
C2883 C2888 1.350 . S
C2883 N2891 1.427 . S
C2884 H2875 0.930 . S
C2884 C2882 1.378 . S
C2884 C2885 1.367 . S
C2885 C2884 1.367 . S
C2885 C2887 1.433 . S
C2886 C2882 1.350 . S
C2886 C2883 1.463 . S
C2886 N2890 1.427 . S
C2887 H2877 0.929 . S
C2887 C2885 1.433 . S
C2887 N2890 1.384 . S
C2888 H2879 0.929 . S
C2888 C2880 1.378 . S
C2888 C2883 1.350 . S
C2889 H2876 0.929 . S
C2889 C2881 1.433 . S
C2889 N2891 1.384 . S
N2890 C2886 1.427 . S
N2890 C2887 1.384 . S
N2891 C2883 1.427 . S
N2891 C2889 1.384 . S
H2892 C2898 0.930 . S
H2893 C2902 0.930 . S
H2894 C2907 0.929 . S
H2895 C2905 0.929 . S
H2896 C2900 0.929 . S
H2897 C2906 0.929 . S
C2898 H2892 0.930 . S
C2898 C2899 1.367 . S
C2898 C2906 1.378 . S
C2899 C2898 1.367 . S
C2899 C2907 1.433 . S
C2900 H2896 0.929 . S
C2900 C2902 1.378 . S
C2900 C2904 1.350 . S
C2901 C2904 1.463 . S
C2901 C2906 1.350 . S
C2901 N2909 1.427 . S
C2902 H2893 0.930 . S
C2902 C2900 1.378 . S
C2902 C2903 1.367 . S
C2903 C2902 1.367 . S
C2903 C2905 1.433 . S
C2904 C2900 1.350 . S
C2904 C2901 1.463 . S
C2904 N2908 1.427 . S
C2905 H2895 0.929 . S
C2905 C2903 1.433 . S
C2905 N2908 1.384 . S
C2906 H2897 0.929 . S
C2906 C2898 1.378 . S
C2906 C2901 1.350 . S
C2907 H2894 0.929 . S
C2907 C2899 1.433 . S
C2907 N2909 1.384 . S
N2908 C2904 1.427 . S
N2908 C2905 1.384 . S
N2909 C2901 1.427 . S
N2909 C2907 1.384 . S
H2910 C2916 0.930 . S
H2911 C2920 0.930 . S
H2912 C2925 0.929 . S
H2913 C2923 0.929 . S
H2914 C2918 0.929 . S
H2915 C2924 0.929 . S
C2916 H2910 0.930 . S
C2916 C2917 1.367 . S
C2916 C2924 1.378 1_455 S
C2917 C2916 1.367 . S
C2917 C2925 1.433 . S
C2918 H2914 0.929 . S
C2918 C2920 1.378 . S
C2918 C2922 1.350 . S
C2919 C2922 1.463 . S
C2919 C2924 1.350 . S
C2919 N2927 1.415 1_655 S
C2920 H2911 0.930 . S
C2920 C2918 1.378 . S
C2920 C2921 1.367 . S
C2921 C2920 1.367 . S
C2921 C2923 1.433 . S
C2922 C2918 1.350 . S
C2922 C2919 1.463 . S
C2922 N2926 1.427 . S
C2923 H2913 0.929 . S
C2923 C2921 1.433 . S
C2923 N2926 1.384 . S
C2924 H2915 0.929 . S
C2924 C2916 1.378 1_655 S
C2924 C2919 1.350 . S
C2925 H2912 0.929 . S
C2925 C2917 1.433 . S
C2925 N2927 1.400 . S
N2926 C2922 1.427 . S
N2926 C2923 1.384 . S
N2927 C2919 1.415 1_455 S
N2927 C2925 1.400 . S
H2928 C2934 0.930 . S
H2929 C2938 0.930 . S
H2930 C2943 0.929 . S
H2931 C2941 0.929 . S
H2932 C2936 0.929 . S
H2933 C2942 0.929 . S
C2934 H2928 0.930 . S
C2934 C2935 1.367 . S
C2934 C2942 1.378 . S
C2935 C2934 1.367 . S
C2935 C2943 1.433 . S
C2936 H2932 0.929 . S
C2936 C2938 1.378 . S
C2936 C2940 1.350 . S
C2937 C2940 1.463 . S
C2937 C2942 1.350 . S
C2937 N2945 1.427 . S
C2938 H2929 0.930 . S
C2938 C2936 1.378 . S
C2938 C2939 1.367 . S
C2939 C2938 1.367 . S
C2939 C2941 1.433 . S
C2940 C2936 1.350 . S
C2940 C2937 1.463 . S
C2940 N2944 1.427 . S
C2941 H2931 0.929 . S
C2941 C2939 1.433 . S
C2941 N2944 1.384 . S
C2942 H2933 0.929 . S
C2942 C2934 1.378 . S
C2942 C2937 1.350 . S
C2943 H2930 0.929 . S
C2943 C2935 1.433 . S
C2943 N2945 1.384 . S
N2944 C2940 1.427 . S
N2944 C2941 1.384 . S
N2945 C2937 1.427 . S
N2945 C2943 1.384 . S
H2946 C2952 0.930 . S
H2947 C2956 0.930 . S
H2948 C2961 0.929 . S
H2949 C2959 0.929 . S
H2950 C2954 0.929 . S
H2951 C2960 0.929 . S
C2952 H2946 0.930 . S
C2952 C2953 1.367 . S
C2952 C2960 1.378 . S
C2953 C2952 1.367 . S
C2953 C2961 1.433 . S
C2954 H2950 0.929 . S
C2954 C2956 1.378 . S
C2954 C2958 1.350 . S
C2955 C2958 1.463 . S
C2955 C2960 1.350 . S
C2955 N2963 1.427 . S
C2956 H2947 0.930 . S
C2956 C2954 1.378 . S
C2956 C2957 1.367 . S
C2957 C2956 1.367 . S
C2957 C2959 1.433 . S
C2958 C2954 1.350 . S
C2958 C2955 1.463 . S
C2958 N2962 1.427 . S
C2959 H2949 0.929 . S
C2959 C2957 1.433 . S
C2959 N2962 1.384 . S
C2960 H2951 0.929 . S
C2960 C2952 1.378 . S
C2960 C2955 1.350 . S
C2961 H2948 0.929 . S
C2961 C2953 1.433 . S
C2961 N2963 1.384 . S
N2962 C2958 1.427 . S
N2962 C2959 1.384 . S
N2963 C2955 1.427 . S
N2963 C2961 1.384 . S
H2964 C2970 0.930 . S
H2965 C2974 0.930 . S
H2966 C2979 0.929 . S
H2967 C2977 0.929 . S
H2968 C2972 0.929 . S
H2969 C2978 0.929 . S
C2970 H2964 0.930 . S
C2970 C2971 1.367 . S
C2970 C2978 1.378 . S
C2971 C2970 1.367 . S
C2971 C2979 1.433 . S
C2972 H2968 0.929 . S
C2972 C2974 1.378 . S
C2972 C2976 1.350 . S
C2973 C2976 1.463 . S
C2973 C2978 1.350 . S
C2973 N2981 1.427 . S
C2974 H2965 0.930 . S
C2974 C2972 1.378 . S
C2974 C2975 1.367 . S
C2975 C2974 1.367 . S
C2975 C2977 1.433 . S
C2976 C2972 1.350 . S
C2976 C2973 1.463 . S
C2976 N2980 1.427 . S
C2977 H2967 0.929 . S
C2977 C2975 1.433 . S
C2977 N2980 1.384 . S
C2978 H2969 0.929 . S
C2978 C2970 1.378 . S
C2978 C2973 1.350 . S
C2979 H2966 0.929 . S
C2979 C2971 1.433 . S
C2979 N2981 1.384 . S
N2980 C2976 1.427 . S
N2980 C2977 1.384 . S
N2981 C2973 1.427 . S
N2981 C2979 1.384 . S
H2982 C2988 0.930 . S
H2983 C2992 0.930 . S
H2984 C2997 0.929 . S
H2985 C2995 0.929 . S
H2986 C2990 0.929 . S
H2987 C2996 0.929 . S
C2988 H2982 0.930 . S
C2988 C2989 1.367 . S
C2988 C2996 1.378 . S
C2989 C2988 1.367 . S
C2989 C2997 1.433 . S
C2990 H2986 0.929 . S
C2990 C2992 1.378 . S
C2990 C2994 1.350 . S
C2991 C2994 1.463 . S
C2991 C2996 1.350 . S
C2991 N2999 1.427 . S
C2992 H2983 0.930 . S
C2992 C2990 1.378 . S
C2992 C2993 1.367 . S
C2993 C2992 1.367 . S
C2993 C2995 1.433 . S
C2994 C2990 1.350 . S
C2994 C2991 1.463 . S
C2994 N2998 1.427 . S
C2995 H2985 0.929 . S
C2995 C2993 1.433 . S
C2995 N2998 1.384 . S
C2996 H2987 0.929 . S
C2996 C2988 1.378 . S
C2996 C2991 1.350 . S
C2997 H2984 0.929 . S
C2997 C2989 1.433 . S
C2997 N2999 1.384 . S
N2998 C2994 1.427 . S
N2998 C2995 1.384 . S
N2999 C2991 1.427 . S
N2999 C2997 1.384 . S
H3000 C3006 0.930 . S
H3001 C3010 0.930 . S
H3002 C3015 0.929 . S
H3003 C3013 0.929 . S
H3004 C3008 0.929 . S
H3005 C3014 0.929 . S
C3006 H3000 0.930 . S
C3006 C3007 1.367 . S
C3006 C3014 1.378 . S
C3007 C3006 1.367 . S
C3007 C3015 1.433 . S
C3008 H3004 0.929 . S
C3008 C3010 1.378 . S
C3008 C3012 1.350 . S
C3009 C3012 1.463 . S
C3009 C3014 1.350 . S
C3009 N3017 1.427 . S
C3010 H3001 0.930 . S
C3010 C3008 1.378 . S
C3010 C3011 1.367 . S
C3011 C3010 1.367 . S
C3011 C3013 1.433 . S
C3012 C3008 1.350 . S
C3012 C3009 1.463 . S
C3012 N3016 1.427 . S
C3013 H3003 0.929 . S
C3013 C3011 1.433 . S
C3013 N3016 1.384 . S
C3014 H3005 0.929 . S
C3014 C3006 1.378 . S
C3014 C3009 1.350 . S
C3015 H3002 0.929 . S
C3015 C3007 1.433 . S
C3015 N3017 1.384 . S
N3016 C3012 1.427 . S
N3016 C3013 1.384 . S
N3017 C3009 1.427 . S
N3017 C3015 1.384 . S
H3018 C3024 0.930 . S
H3019 C3028 0.930 . S
H3020 C3033 0.929 . S
H3021 C3031 0.929 . S
H3022 C3026 0.929 . S
H3023 C3032 0.929 . S
C3024 H3018 0.930 . S
C3024 C3025 1.367 . S
C3024 C3032 1.378 . S
C3025 C3024 1.367 . S
C3025 C3033 1.433 . S
C3026 H3022 0.929 . S
C3026 C3028 1.378 . S
C3026 C3030 1.350 . S
C3027 C3030 1.463 . S
C3027 C3032 1.350 . S
C3027 N3035 1.427 . S
C3028 H3019 0.930 . S
C3028 C3026 1.378 . S
C3028 C3029 1.367 . S
C3029 C3028 1.367 . S
C3029 C3031 1.433 . S
C3030 C3026 1.350 . S
C3030 C3027 1.463 . S
C3030 N3034 1.427 . S
C3031 H3021 0.929 . S
C3031 C3029 1.433 . S
C3031 N3034 1.384 . S
C3032 H3023 0.929 . S
C3032 C3024 1.378 . S
C3032 C3027 1.350 . S
C3033 H3020 0.929 . S
C3033 C3025 1.433 . S
C3033 N3035 1.384 . S
N3034 C3030 1.427 . S
N3034 C3031 1.384 . S
N3035 C3027 1.427 . S
N3035 C3033 1.384 . S
H3036 C3042 0.930 1_565 S
H3037 C3046 0.930 . S
H3038 C3051 0.929 . S
H3039 C3049 0.929 . S
H3040 C3044 0.929 . S
H3041 C3050 0.929 1_565 S
C3042 H3036 0.930 1_545 S
C3042 C3043 1.367 . S
C3042 C3050 1.378 . S
C3043 C3042 1.367 . S
C3043 C3051 1.433 . S
C3044 H3040 0.929 . S
C3044 C3046 1.378 . S
C3044 C3048 1.350 . S
C3045 C3048 1.463 . S
C3045 C3050 1.350 . S
C3045 N3053 1.427 . S
C3046 H3037 0.930 . S
C3046 C3044 1.378 . S
C3046 C3047 1.367 . S
C3047 C3046 1.367 . S
C3047 C3049 1.433 . S
C3048 C3044 1.350 . S
C3048 C3045 1.463 . S
C3048 N3052 1.427 . S
C3049 H3039 0.929 . S
C3049 C3047 1.433 . S
C3049 N3052 1.384 . S
C3050 H3041 0.929 1_545 S
C3050 C3042 1.378 . S
C3050 C3045 1.350 . S
C3051 H3038 0.929 . S
C3051 C3043 1.433 . S
C3051 N3053 1.384 . S
N3052 C3048 1.427 . S
N3052 C3049 1.384 . S
N3053 C3045 1.427 . S
N3053 C3051 1.384 . S
H3054 C3060 0.930 . S
H3055 C3064 0.930 . S
H3056 C3069 0.929 . S
H3057 C3067 0.929 . S
H3058 C3062 0.929 . S
H3059 C3068 0.929 . S
C3060 H3054 0.930 . S
C3060 C3061 1.367 . S
C3060 C3068 1.378 1_554 S
C3061 C3060 1.367 . S
C3061 C3069 1.433 . S
C3062 H3058 0.929 . S
C3062 C3064 1.378 . S
C3062 C3066 1.350 . S
C3063 C3066 1.463 . S
C3063 C3068 1.350 . S
C3063 N3071 1.427 1_556 S
C3064 H3055 0.930 . S
C3064 C3062 1.378 . S
C3064 C3065 1.367 . S
C3065 C3064 1.367 . S
C3065 C3067 1.433 . S
C3066 C3062 1.350 . S
C3066 C3063 1.463 . S
C3066 N3070 1.427 . S
C3067 H3057 0.929 . S
C3067 C3065 1.433 . S
C3067 N3070 1.384 . S
C3068 H3059 0.929 . S
C3068 C3060 1.378 1_556 S
C3068 C3063 1.350 . S
C3069 H3056 0.929 . S
C3069 C3061 1.433 . S
C3069 N3071 1.384 . S
N3070 C3066 1.427 . S
N3070 C3067 1.384 . S
N3071 C3063 1.427 1_554 S
N3071 C3069 1.384 . S
H3072 C3078 0.930 . S
H3073 C3082 0.930 . S
H3074 C3087 0.929 . S
H3075 C3085 0.929 . S
H3076 C3080 0.929 . S
H3077 C3086 0.929 . S
C3078 H3072 0.930 . S
C3078 C3079 1.367 . S
C3078 C3086 1.378 . S
C3079 C3078 1.367 . S
C3079 C3087 1.433 . S
C3080 H3076 0.929 . S
C3080 C3082 1.378 . S
C3080 C3084 1.350 . S
C3081 C3084 1.463 . S
C3081 C3086 1.350 . S
C3081 N3089 1.427 . S
C3082 H3073 0.930 . S
C3082 C3080 1.378 . S
C3082 C3083 1.367 . S
C3083 C3082 1.367 . S
C3083 C3085 1.433 . S
C3084 C3080 1.350 . S
C3084 C3081 1.463 . S
C3084 N3088 1.427 . S
C3085 H3075 0.929 . S
C3085 C3083 1.433 . S
C3085 N3088 1.384 . S
C3086 H3077 0.929 . S
C3086 C3078 1.378 . S
C3086 C3081 1.350 . S
C3087 H3074 0.929 . S
C3087 C3079 1.433 . S
C3087 N3089 1.384 . S
N3088 C3084 1.427 . S
N3088 C3085 1.384 . S
N3089 C3081 1.427 . S
N3089 C3087 1.384 . S
H3090 C3096 0.930 . S
H3091 C3100 0.930 . S
H3092 C3105 0.929 . S
H3093 C3103 0.929 . S
H3094 C3098 0.929 . S
H3095 C3104 0.929 . S
C3096 H3090 0.930 . S
C3096 C3097 1.367 . S
C3096 C3104 1.378 . S
C3097 C3096 1.367 . S
C3097 C3105 1.433 . S
C3098 H3094 0.929 . S
C3098 C3100 1.378 . S
C3098 C3102 1.350 . S
C3099 C3102 1.463 . S
C3099 C3104 1.350 . S
C3099 N3107 1.427 . S
C3100 H3091 0.930 . S
C3100 C3098 1.378 . S
C3100 C3101 1.367 . S
C3101 C3100 1.367 . S
C3101 C3103 1.433 . S
C3102 C3098 1.350 . S
C3102 C3099 1.463 . S
C3102 N3106 1.427 . S
C3103 H3093 0.929 . S
C3103 C3101 1.433 . S
C3103 N3106 1.384 . S
C3104 H3095 0.929 . S
C3104 C3096 1.378 . S
C3104 C3099 1.350 . S
C3105 H3092 0.929 . S
C3105 C3097 1.433 . S
C3105 N3107 1.384 . S
N3106 C3102 1.427 . S
N3106 C3103 1.384 . S
N3107 C3099 1.427 . S
N3107 C3105 1.384 . S
H3108 C3114 0.930 . S
H3109 C3118 0.930 . S
H3110 C3123 0.929 . S
H3111 C3121 0.929 . S
H3112 C3116 0.929 . S
H3113 C3122 0.929 . S
C3114 H3108 0.930 . S
C3114 C3115 1.367 . S
C3114 C3122 1.378 . S
C3115 C3114 1.367 . S
C3115 C3123 1.433 . S
C3116 H3112 0.929 . S
C3116 C3118 1.378 . S
C3116 C3120 1.350 . S
C3117 C3120 1.463 . S
C3117 C3122 1.350 . S
C3117 N3125 1.427 . S
C3118 H3109 0.930 . S
C3118 C3116 1.378 . S
C3118 C3119 1.367 . S
C3119 C3118 1.367 . S
C3119 C3121 1.433 . S
C3120 C3116 1.350 . S
C3120 C3117 1.463 . S
C3120 N3124 1.427 . S
C3121 H3111 0.929 . S
C3121 C3119 1.433 . S
C3121 N3124 1.384 . S
C3122 H3113 0.929 . S
C3122 C3114 1.378 . S
C3122 C3117 1.350 . S
C3123 H3110 0.929 . S
C3123 C3115 1.433 . S
C3123 N3125 1.384 . S
N3124 C3120 1.427 . S
N3124 C3121 1.384 . S
N3125 C3117 1.427 . S
N3125 C3123 1.384 . S
H3126 C3132 0.930 . S
H3127 C3136 0.930 . S
H3128 C3141 0.929 . S
H3129 C3139 0.929 . S
H3130 C3134 0.929 . S
H3131 C3140 0.929 . S
C3132 H3126 0.930 . S
C3132 C3133 1.367 . S
C3132 C3140 1.378 . S
C3133 C3132 1.367 . S
C3133 C3141 1.433 . S
C3134 H3130 0.929 . S
C3134 C3136 1.378 . S
C3134 C3138 1.350 . S
C3135 C3138 1.463 . S
C3135 C3140 1.350 . S
C3135 N3143 1.427 . S
C3136 H3127 0.930 . S
C3136 C3134 1.378 . S
C3136 C3137 1.367 . S
C3137 C3136 1.367 . S
C3137 C3139 1.433 . S
C3138 C3134 1.350 . S
C3138 C3135 1.463 . S
C3138 N3142 1.427 . S
C3139 H3129 0.929 . S
C3139 C3137 1.433 . S
C3139 N3142 1.384 . S
C3140 H3131 0.929 . S
C3140 C3132 1.378 . S
C3140 C3135 1.350 . S
C3141 H3128 0.929 . S
C3141 C3133 1.433 . S
C3141 N3143 1.384 . S
N3142 C3138 1.427 . S
N3142 C3139 1.384 . S
N3143 C3135 1.427 . S
N3143 C3141 1.384 . S
H3144 C3150 0.930 . S
H3145 C3154 0.930 . S
H3146 C3159 0.929 . S
H3147 C3157 0.929 . S
H3148 C3152 0.929 . S
H3149 C3158 0.929 . S
C3150 H3144 0.930 . S
C3150 C3151 1.367 . S
C3150 C3158 1.378 1_565 S
C3151 C3150 1.367 . S
C3151 C3159 1.433 1_565 S
C3152 H3148 0.929 . S
C3152 C3154 1.378 . S
C3152 C3156 1.350 . S
C3153 C3156 1.463 . S
C3153 C3158 1.350 . S
C3153 N3161 1.427 . S
C3154 H3145 0.930 . S
C3154 C3152 1.378 . S
C3154 C3155 1.367 . S
C3155 C3154 1.367 . S
C3155 C3157 1.433 . S
C3156 C3152 1.350 . S
C3156 C3153 1.463 . S
C3156 N3160 1.427 . S
C3157 H3147 0.929 . S
C3157 C3155 1.433 . S
C3157 N3160 1.384 . S
C3158 H3149 0.929 . S
C3158 C3150 1.378 1_545 S
C3158 C3153 1.350 . S
C3159 H3146 0.929 . S
C3159 C3151 1.433 1_545 S
C3159 N3161 1.384 . S
N3160 C3156 1.427 . S
N3160 C3157 1.384 . S
N3161 C3153 1.427 . S
N3161 C3159 1.384 . S
H3162 C3168 0.930 . S
H3163 C3172 0.930 . S
H3164 C3177 0.929 . S
H3165 C3175 0.929 . S
H3166 C3170 0.929 . S
H3167 C3176 0.929 . S
C3168 H3162 0.930 . S
C3168 C3169 1.367 . S
C3168 C3176 1.378 . S
C3169 C3168 1.367 . S
C3169 C3177 1.433 . S
C3170 H3166 0.929 . S
C3170 C3172 1.378 . S
C3170 C3174 1.350 . S
C3171 C3174 1.463 . S
C3171 C3176 1.350 . S
C3171 N3179 1.427 . S
C3172 H3163 0.930 . S
C3172 C3170 1.378 . S
C3172 C3173 1.367 . S
C3173 C3172 1.367 . S
C3173 C3175 1.433 . S
C3174 C3170 1.350 . S
C3174 C3171 1.463 . S
C3174 N3178 1.427 . S
C3175 H3165 0.929 . S
C3175 C3173 1.433 . S
C3175 N3178 1.384 . S
C3176 H3167 0.929 . S
C3176 C3168 1.378 . S
C3176 C3171 1.350 . S
C3177 H3164 0.929 . S
C3177 C3169 1.433 . S
C3177 N3179 1.384 . S
N3178 C3174 1.427 . S
N3178 C3175 1.384 . S
N3179 C3171 1.427 . S
N3179 C3177 1.384 . S
H3180 C3186 0.930 . S
H3181 C3190 0.930 . S
H3182 C3195 0.929 . S
H3183 C3193 0.929 . S
H3184 C3188 0.929 . S
H3185 C3194 0.929 . S
C3186 H3180 0.930 . S
C3186 C3187 1.367 . S
C3186 C3194 1.378 . S
C3187 C3186 1.367 . S
C3187 C3195 1.433 . S
C3188 H3184 0.929 . S
C3188 C3190 1.378 . S
C3188 C3192 1.350 . S
C3189 C3192 1.463 . S
C3189 C3194 1.350 . S
C3189 N3197 1.427 . S
C3190 H3181 0.930 . S
C3190 C3188 1.378 . S
C3190 C3191 1.367 . S
C3191 C3190 1.367 . S
C3191 C3193 1.433 . S
C3192 C3188 1.350 . S
C3192 C3189 1.463 . S
C3192 N3196 1.427 . S
C3193 H3183 0.929 . S
C3193 C3191 1.433 . S
C3193 N3196 1.384 . S
C3194 H3185 0.929 . S
C3194 C3186 1.378 . S
C3194 C3189 1.350 . S
C3195 H3182 0.929 . S
C3195 C3187 1.433 . S
C3195 N3197 1.384 . S
N3196 C3192 1.427 . S
N3196 C3193 1.384 . S
N3197 C3189 1.427 . S
N3197 C3195 1.384 . S
H3198 C3204 0.930 . S
H3199 C3208 0.930 . S
H3200 C3213 0.929 . S
H3201 C3211 0.929 . S
H3202 C3206 0.929 . S
H3203 C3212 0.929 . S
C3204 H3198 0.930 . S
C3204 C3205 1.367 . S
C3204 C3212 1.378 . S
C3205 C3204 1.367 . S
C3205 C3213 1.433 . S
C3206 H3202 0.929 . S
C3206 C3208 1.378 . S
C3206 C3210 1.350 . S
C3207 C3210 1.463 . S
C3207 C3212 1.350 . S
C3207 N3215 1.427 . S
C3208 H3199 0.930 . S
C3208 C3206 1.378 . S
C3208 C3209 1.367 . S
C3209 C3208 1.367 . S
C3209 C3211 1.433 . S
C3210 C3206 1.350 . S
C3210 C3207 1.463 . S
C3210 N3214 1.427 . S
C3211 H3201 0.929 . S
C3211 C3209 1.433 . S
C3211 N3214 1.384 . S
C3212 H3203 0.929 . S
C3212 C3204 1.378 . S
C3212 C3207 1.350 . S
C3213 H3200 0.929 . S
C3213 C3205 1.433 . S
C3213 N3215 1.384 . S
N3214 C3210 1.427 . S
N3214 C3211 1.384 . S
N3215 C3207 1.427 . S
N3215 C3213 1.384 . S
H3216 C3222 0.930 . S
H3217 C3226 0.930 . S
H3218 C3231 0.929 . S
H3219 C3229 0.929 . S
H3220 C3224 0.929 . S
H3221 C3230 0.929 . S
C3222 H3216 0.930 . S
C3222 C3223 1.367 . S
C3222 C3230 1.378 . S
C3223 C3222 1.367 . S
C3223 C3231 1.433 . S
C3224 H3220 0.929 . S
C3224 C3226 1.378 . S
C3224 C3228 1.350 . S
C3225 C3228 1.463 . S
C3225 C3230 1.350 . S
C3225 N3233 1.427 . S
C3226 H3217 0.930 . S
C3226 C3224 1.378 . S
C3226 C3227 1.367 . S
C3227 C3226 1.367 . S
C3227 C3229 1.433 . S
C3228 C3224 1.350 . S
C3228 C3225 1.463 . S
C3228 N3232 1.427 . S
C3229 H3219 0.929 . S
C3229 C3227 1.433 . S
C3229 N3232 1.384 . S
C3230 H3221 0.929 . S
C3230 C3222 1.378 . S
C3230 C3225 1.350 . S
C3231 H3218 0.929 . S
C3231 C3223 1.433 . S
C3231 N3233 1.384 . S
N3232 C3228 1.427 . S
N3232 C3229 1.384 . S
N3233 C3225 1.427 . S
N3233 C3231 1.384 . S
H3234 C3240 0.930 . S
H3235 C3244 0.930 . S
H3236 C3249 0.929 . S
H3237 C3247 0.929 . S
H3238 C3242 0.929 . S
H3239 C3248 0.929 . S
C3240 H3234 0.930 . S
C3240 C3241 1.367 . S
C3240 C3248 1.378 . S
C3241 C3240 1.367 . S
C3241 C3249 1.433 . S
C3242 H3238 0.929 . S
C3242 C3244 1.378 . S
C3242 C3246 1.350 . S
C3243 C3246 1.463 . S
C3243 C3248 1.350 . S
C3243 N3251 1.427 . S
C3244 H3235 0.930 . S
C3244 C3242 1.378 . S
C3244 C3245 1.367 . S
C3245 C3244 1.367 . S
C3245 C3247 1.433 . S
C3246 C3242 1.350 . S
C3246 C3243 1.463 . S
C3246 N3250 1.427 . S
C3247 H3237 0.929 . S
C3247 C3245 1.433 . S
C3247 N3250 1.384 . S
C3248 H3239 0.929 . S
C3248 C3240 1.378 . S
C3248 C3243 1.350 . S
C3249 H3236 0.929 . S
C3249 C3241 1.433 . S
C3249 N3251 1.384 . S
N3250 C3246 1.427 . S
N3250 C3247 1.384 . S
N3251 C3243 1.427 . S
N3251 C3249 1.384 . S
H3252 C3258 0.930 . S
H3253 C3262 0.930 . S
H3254 C3267 0.929 . S
H3255 C3265 0.929 . S
H3256 C3260 0.929 . S
H3257 C3266 0.929 . S
C3258 H3252 0.930 . S
C3258 C3259 1.367 . S
C3258 C3266 1.378 . S
C3259 C3258 1.367 . S
C3259 C3267 1.433 . S
C3260 H3256 0.929 . S
C3260 C3262 1.378 . S
C3260 C3264 1.350 . S
C3261 C3264 1.463 . S
C3261 C3266 1.350 . S
C3261 N3269 1.427 . S
C3262 H3253 0.930 . S
C3262 C3260 1.378 . S
C3262 C3263 1.367 . S
C3263 C3262 1.367 . S
C3263 C3265 1.433 . S
C3264 C3260 1.350 . S
C3264 C3261 1.463 . S
C3264 N3268 1.427 . S
C3265 H3255 0.929 . S
C3265 C3263 1.433 . S
C3265 N3268 1.384 . S
C3266 H3257 0.929 . S
C3266 C3258 1.378 . S
C3266 C3261 1.350 . S
C3267 H3254 0.929 . S
C3267 C3259 1.433 . S
C3267 N3269 1.384 . S
N3268 C3264 1.427 . S
N3268 C3265 1.384 . S
N3269 C3261 1.427 . S
N3269 C3267 1.384 . S
H3270 C3276 0.930 . S
H3271 C3280 0.930 . S
H3272 C3285 0.929 . S
H3273 C3283 0.929 . S
H3274 C3278 0.929 . S
H3275 C3284 0.929 . S
C3276 H3270 0.930 . S
C3276 C3277 1.367 . S
C3276 C3284 1.378 . S
C3277 C3276 1.367 . S
C3277 C3285 1.433 . S
C3278 H3274 0.929 . S
C3278 C3280 1.378 . S
C3278 C3282 1.350 . S
C3279 C3282 1.463 . S
C3279 C3284 1.350 . S
C3279 N3287 1.427 . S
C3280 H3271 0.930 . S
C3280 C3278 1.378 . S
C3280 C3281 1.367 . S
C3281 C3280 1.367 . S
C3281 C3283 1.433 . S
C3282 C3278 1.350 . S
C3282 C3279 1.463 . S
C3282 N3286 1.427 . S
C3283 H3273 0.929 . S
C3283 C3281 1.433 . S
C3283 N3286 1.384 . S
C3284 H3275 0.929 . S
C3284 C3276 1.378 . S
C3284 C3279 1.350 . S
C3285 H3272 0.929 . S
C3285 C3277 1.433 . S
C3285 N3287 1.384 . S
N3286 C3282 1.427 . S
N3286 C3283 1.384 . S
N3287 C3279 1.427 . S
N3287 C3285 1.384 . S
H3288 C3294 0.930 . S
H3289 C3298 0.930 . S
H3290 C3303 0.929 . S
H3291 C3301 0.929 . S
H3292 C3296 0.929 . S
H3293 C3302 0.929 . S
C3294 H3288 0.930 . S
C3294 C3295 1.367 . S
C3294 C3302 1.378 . S
C3295 C3294 1.367 . S
C3295 C3303 1.433 . S
C3296 H3292 0.929 . S
C3296 C3298 1.378 . S
C3296 C3300 1.350 . S
C3297 C3300 1.463 . S
C3297 C3302 1.350 . S
C3297 N3305 1.427 . S
C3298 H3289 0.930 . S
C3298 C3296 1.378 . S
C3298 C3299 1.367 . S
C3299 C3298 1.367 . S
C3299 C3301 1.433 . S
C3300 C3296 1.350 . S
C3300 C3297 1.463 . S
C3300 N3304 1.427 . S
C3301 H3291 0.929 . S
C3301 C3299 1.433 . S
C3301 N3304 1.384 . S
C3302 H3293 0.929 . S
C3302 C3294 1.378 . S
C3302 C3297 1.350 . S
C3303 H3290 0.929 . S
C3303 C3295 1.433 . S
C3303 N3305 1.384 . S
N3304 C3300 1.427 . S
N3304 C3301 1.384 . S
N3305 C3297 1.427 . S
N3305 C3303 1.384 . S
H3306 C3312 0.930 . S
H3307 C3316 0.930 . S
H3308 C3321 0.929 . S
H3309 C3319 0.929 . S
H3310 C3314 0.929 . S
H3311 C3320 0.929 . S
C3312 H3306 0.930 . S
C3312 C3313 1.367 . S
C3312 C3320 1.378 . S
C3313 C3312 1.367 . S
C3313 C3321 1.433 . S
C3314 H3310 0.929 . S
C3314 C3316 1.378 . S
C3314 C3318 1.350 . S
C3315 C3318 1.463 . S
C3315 C3320 1.350 . S
C3315 N3323 1.427 . S
C3316 H3307 0.930 . S
C3316 C3314 1.378 . S
C3316 C3317 1.367 . S
C3317 C3316 1.367 . S
C3317 C3319 1.433 . S
C3318 C3314 1.350 . S
C3318 C3315 1.463 . S
C3318 N3322 1.427 . S
C3319 H3309 0.929 . S
C3319 C3317 1.433 . S
C3319 N3322 1.384 . S
C3320 H3311 0.929 . S
C3320 C3312 1.378 . S
C3320 C3315 1.350 . S
C3321 H3308 0.929 . S
C3321 C3313 1.433 . S
C3321 N3323 1.384 . S
N3322 C3318 1.427 . S
N3322 C3319 1.384 . S
N3323 C3315 1.427 . S
N3323 C3321 1.384 . S
H3324 C3330 0.930 . S
H3325 C3334 0.930 . S
H3326 C3339 0.929 . S
H3327 C3337 0.929 . S
H3328 C3332 0.929 . S
H3329 C3338 0.929 . S
C3330 H3324 0.930 . S
C3330 C3331 1.367 . S
C3330 C3338 1.378 . S
C3331 C3330 1.367 . S
C3331 C3339 1.433 . S
C3332 H3328 0.929 . S
C3332 C3334 1.378 . S
C3332 C3336 1.350 . S
C3333 C3336 1.463 . S
C3333 C3338 1.350 . S
C3333 N3341 1.427 . S
C3334 H3325 0.930 . S
C3334 C3332 1.378 . S
C3334 C3335 1.367 . S
C3335 C3334 1.367 . S
C3335 C3337 1.433 . S
C3336 C3332 1.350 . S
C3336 C3333 1.463 . S
C3336 N3340 1.427 . S
C3337 H3327 0.929 . S
C3337 C3335 1.433 . S
C3337 N3340 1.384 . S
C3338 H3329 0.929 . S
C3338 C3330 1.378 . S
C3338 C3333 1.350 . S
C3339 H3326 0.929 . S
C3339 C3331 1.433 . S
C3339 N3341 1.384 . S
N3340 C3336 1.427 . S
N3340 C3337 1.384 . S
N3341 C3333 1.427 . S
N3341 C3339 1.384 . S
H3342 C3348 0.930 . S
H3343 C3352 0.930 . S
H3344 C3357 0.929 . S
H3345 C3355 0.929 . S
H3346 C3350 0.929 . S
H3347 C3356 0.929 . S
C3348 H3342 0.930 . S
C3348 C3349 1.367 . S
C3348 C3356 1.378 . S
C3349 C3348 1.367 . S
C3349 C3357 1.433 . S
C3350 H3346 0.929 . S
C3350 C3352 1.378 1_455 S
C3350 C3354 1.350 . S
C3351 C3354 1.463 . S
C3351 C3356 1.350 . S
C3351 N3359 1.427 . S
C3352 H3343 0.930 . S
C3352 C3350 1.378 1_655 S
C3352 C3353 1.367 . S
C3353 C3352 1.367 . S
C3353 C3355 1.433 . S
C3354 C3350 1.350 . S
C3354 C3351 1.463 . S
C3354 N3358 1.427 1_455 S
C3355 H3345 0.929 . S
C3355 C3353 1.433 . S
C3355 N3358 1.384 . S
C3356 H3347 0.929 . S
C3356 C3348 1.378 . S
C3356 C3351 1.350 . S
C3357 H3344 0.929 . S
C3357 C3349 1.433 . S
C3357 N3359 1.384 . S
N3358 C3354 1.427 1_655 S
N3358 C3355 1.384 . S
N3359 C3351 1.427 . S
N3359 C3357 1.384 . S
H3360 C3366 0.930 . S
H3361 C3370 0.930 . S
H3362 C3375 0.929 . S
H3363 C3373 0.929 . S
H3364 C3368 0.929 . S
H3365 C3374 0.929 . S
C3366 H3360 0.930 . S
C3366 C3367 1.367 . S
C3366 C3374 1.378 . S
C3367 C3366 1.367 . S
C3367 C3375 1.433 . S
C3368 H3364 0.929 . S
C3368 C3370 1.378 . S
C3368 C3372 1.350 . S
C3369 C3372 1.463 . S
C3369 C3374 1.350 . S
C3369 N3377 1.427 . S
C3370 H3361 0.930 . S
C3370 C3368 1.378 . S
C3370 C3371 1.367 . S
C3371 C3370 1.367 . S
C3371 C3373 1.433 . S
C3372 C3368 1.350 . S
C3372 C3369 1.463 . S
C3372 N3376 1.427 . S
C3373 H3363 0.929 . S
C3373 C3371 1.433 . S
C3373 N3376 1.384 . S
C3374 H3365 0.929 . S
C3374 C3366 1.378 . S
C3374 C3369 1.350 . S
C3375 H3362 0.929 . S
C3375 C3367 1.433 . S
C3375 N3377 1.384 . S
N3376 C3372 1.427 . S
N3376 C3373 1.384 . S
N3377 C3369 1.427 . S
N3377 C3375 1.384 . S
H3378 C3384 0.930 . S
H3379 C3388 0.930 . S
H3380 C3393 0.929 . S
H3381 C3391 0.929 . S
H3382 C3386 0.929 . S
H3383 C3392 0.929 . S
C3384 H3378 0.930 . S
C3384 C3385 1.367 . S
C3384 C3392 1.378 . S
C3385 C3384 1.367 . S
C3385 C3393 1.433 . S
C3386 H3382 0.929 . S
C3386 C3388 1.378 . S
C3386 C3390 1.350 . S
C3387 C3390 1.463 . S
C3387 C3392 1.350 . S
C3387 N3395 1.427 . S
C3388 H3379 0.930 . S
C3388 C3386 1.378 . S
C3388 C3389 1.367 . S
C3389 C3388 1.367 . S
C3389 C3391 1.433 . S
C3390 C3386 1.350 . S
C3390 C3387 1.463 . S
C3390 N3394 1.427 . S
C3391 H3381 0.929 . S
C3391 C3389 1.433 . S
C3391 N3394 1.384 . S
C3392 H3383 0.929 . S
C3392 C3384 1.378 . S
C3392 C3387 1.350 . S
C3393 H3380 0.929 . S
C3393 C3385 1.433 . S
C3393 N3395 1.384 . S
N3394 C3390 1.427 . S
N3394 C3391 1.384 . S
N3395 C3387 1.427 . S
N3395 C3393 1.384 . S
H3396 C3402 0.930 . S
H3397 C3406 0.930 . S
H3398 C3411 0.929 . S
H3399 C3409 0.929 . S
H3400 C3404 0.929 . S
H3401 C3410 0.929 . S
C3402 H3396 0.930 . S
C3402 C3403 1.367 . S
C3402 C3410 1.378 . S
C3403 C3402 1.367 . S
C3403 C3411 1.433 . S
C3404 H3400 0.929 . S
C3404 C3406 1.378 . S
C3404 C3408 1.350 . S
C3405 C3408 1.463 . S
C3405 C3410 1.350 . S
C3405 N3413 1.427 . S
C3406 H3397 0.930 . S
C3406 C3404 1.378 . S
C3406 C3407 1.367 . S
C3407 C3406 1.367 . S
C3407 C3409 1.433 . S
C3408 C3404 1.350 . S
C3408 C3405 1.463 . S
C3408 N3412 1.427 . S
C3409 H3399 0.929 . S
C3409 C3407 1.433 . S
C3409 N3412 1.384 . S
C3410 H3401 0.929 . S
C3410 C3402 1.378 . S
C3410 C3405 1.350 . S
C3411 H3398 0.929 . S
C3411 C3403 1.433 . S
C3411 N3413 1.384 . S
N3412 C3408 1.427 . S
N3412 C3409 1.384 . S
N3413 C3405 1.427 . S
N3413 C3411 1.384 . S
H3414 C3420 0.952 . S
H3415 C3424 0.930 . S
H3416 C3429 0.929 1_554 S
H3417 C3427 0.929 . S
H3418 C3422 0.929 . S
H3419 C3428 0.929 . S
C3420 H3414 0.952 . S
C3420 C3421 1.367 1_556 S
C3420 C3428 1.378 . S
C3421 C3420 1.367 1_554 S
C3421 C3429 1.433 1_554 S
C3422 H3418 0.929 . S
C3422 C3424 1.378 . S
C3422 C3426 1.350 . S
C3423 C3426 1.463 . S
C3423 C3428 1.350 . S
C3423 N3431 1.427 . S
C3424 H3415 0.930 . S
C3424 C3422 1.378 . S
C3424 C3425 1.367 . S
C3425 C3424 1.367 . S
C3425 C3427 1.433 . S
C3426 C3422 1.350 . S
C3426 C3423 1.463 . S
C3426 N3430 1.427 . S
C3427 H3417 0.929 . S
C3427 C3425 1.433 . S
C3427 N3430 1.384 . S
C3428 H3419 0.929 . S
C3428 C3420 1.378 . S
C3428 C3423 1.350 . S
C3429 H3416 0.929 1_556 S
C3429 C3421 1.433 1_556 S
C3429 N3431 1.384 . S
N3430 C3426 1.427 . S
N3430 C3427 1.384 . S
N3431 C3423 1.427 . S
N3431 C3429 1.384 . S
H3432 C3438 0.930 . S
H3433 C3442 0.930 . S
H3434 C3447 0.929 . S
H3435 C3445 0.929 . S
H3436 C3440 0.929 . S
H3437 C3446 0.929 . S
C3438 H3432 0.930 . S
C3438 C3439 1.367 . S
C3438 C3446 1.378 . S
C3439 C3438 1.367 . S
C3439 C3447 1.433 . S
C3440 H3436 0.929 . S
C3440 C3442 1.378 . S
C3440 C3444 1.350 . S
C3441 C3444 1.463 . S
C3441 C3446 1.350 . S
C3441 N3449 1.427 . S
C3442 H3433 0.930 . S
C3442 C3440 1.378 . S
C3442 C3443 1.367 . S
C3443 C3442 1.367 . S
C3443 C3445 1.433 . S
C3444 C3440 1.350 . S
C3444 C3441 1.463 . S
C3444 N3448 1.427 . S
C3445 H3435 0.929 . S
C3445 C3443 1.433 . S
C3445 N3448 1.384 . S
C3446 H3437 0.929 . S
C3446 C3438 1.378 . S
C3446 C3441 1.350 . S
C3447 H3434 0.929 . S
C3447 C3439 1.433 . S
C3447 N3449 1.384 . S
N3448 C3444 1.427 . S
N3448 C3445 1.384 . S
N3449 C3441 1.427 . S
N3449 C3447 1.384 . S
H3450 C3456 0.930 . S
H3451 C3460 0.930 . S
H3452 C3465 0.929 . S
H3453 C3463 0.929 . S
H3454 C3458 0.929 . S
H3455 C3464 0.929 . S
C3456 H3450 0.930 . S
C3456 C3457 1.367 . S
C3456 C3464 1.378 . S
C3457 C3456 1.367 . S
C3457 C3465 1.433 . S
C3458 H3454 0.929 . S
C3458 C3460 1.378 . S
C3458 C3462 1.350 . S
C3459 C3462 1.463 . S
C3459 C3464 1.350 . S
C3459 N3467 1.427 . S
C3460 H3451 0.930 . S
C3460 C3458 1.378 . S
C3460 C3461 1.367 . S
C3461 C3460 1.367 . S
C3461 C3463 1.433 . S
C3462 C3458 1.350 . S
C3462 C3459 1.463 . S
C3462 N3466 1.427 . S
C3463 H3453 0.929 . S
C3463 C3461 1.433 . S
C3463 N3466 1.384 . S
C3464 H3455 0.929 . S
C3464 C3456 1.378 . S
C3464 C3459 1.350 . S
C3465 H3452 0.929 . S
C3465 C3457 1.433 . S
C3465 N3467 1.384 . S
N3466 C3462 1.427 . S
N3466 C3463 1.384 . S
N3467 C3459 1.427 . S
N3467 C3465 1.384 . S
H3468 C3474 0.930 . S
H3469 C3478 0.930 1_545 S
H3470 C3483 0.929 . S
H3471 C3481 0.929 . S
H3472 C3476 0.929 1_545 S
H3473 C3482 0.929 . S
C3474 H3468 0.930 . S
C3474 C3475 1.367 . S
C3474 C3482 1.378 . S
C3475 C3474 1.367 . S
C3475 C3483 1.433 1_565 S
C3476 H3472 0.929 1_565 S
C3476 C3478 1.378 . S
C3476 C3480 1.350 . S
C3477 C3480 1.463 . S
C3477 C3482 1.350 . S
C3477 N3485 1.427 1_565 S
C3478 H3469 0.930 1_565 S
C3478 C3476 1.378 . S
C3478 C3479 1.367 . S
C3479 C3478 1.367 . S
C3479 C3481 1.433 . S
C3480 C3476 1.350 . S
C3480 C3477 1.463 . S
C3480 N3484 1.427 . S
C3481 H3471 0.929 . S
C3481 C3479 1.433 . S
C3481 N3484 1.384 . S
C3482 H3473 0.929 . S
C3482 C3474 1.378 . S
C3482 C3477 1.350 . S
C3483 H3470 0.929 . S
C3483 C3475 1.433 1_545 S
C3483 N3485 1.384 . S
N3484 C3480 1.427 . S
N3484 C3481 1.384 . S
N3485 C3477 1.427 1_545 S
N3485 C3483 1.384 . S
H3486 C3492 0.930 . S
H3487 C3496 0.930 . S
H3488 C3501 0.929 . S
H3489 C3499 0.929 . S
H3490 C3494 0.929 . S
H3491 C3500 0.929 . S
C3492 H3486 0.930 . S
C3492 C3493 1.367 . S
C3492 C3500 1.378 . S
C3493 C3492 1.367 . S
C3493 C3501 1.433 . S
C3494 H3490 0.929 . S
C3494 C3496 1.378 1_556 S
C3494 C3498 1.350 . S
C3495 C3498 1.463 . S
C3495 C3500 1.350 . S
C3495 N3503 1.427 . S
C3496 H3487 0.930 . S
C3496 C3494 1.378 1_554 S
C3496 C3497 1.367 . S
C3497 C3496 1.367 . S
C3497 C3499 1.433 . S
C3498 C3494 1.350 . S
C3498 C3495 1.463 . S
C3498 N3502 1.427 . S
C3499 H3489 0.929 . S
C3499 C3497 1.433 . S
C3499 N3502 1.384 1_554 S
C3500 H3491 0.929 . S
C3500 C3492 1.378 . S
C3500 C3495 1.350 . S
C3501 H3488 0.929 . S
C3501 C3493 1.433 . S
C3501 N3503 1.384 . S
N3502 C3498 1.427 . S
N3502 C3499 1.384 1_556 S
N3503 C3495 1.427 . S
N3503 C3501 1.384 . S
H3504 C3510 0.930 . S
H3505 C3514 0.930 . S
H3506 C3519 0.929 . S
H3507 C3517 0.929 . S
H3508 C3512 0.929 . S
H3509 C3518 0.929 . S
C3510 H3504 0.930 . S
C3510 C3511 1.367 . S
C3510 C3518 1.378 . S
C3511 C3510 1.367 . S
C3511 C3519 1.433 . S
C3512 H3508 0.929 . S
C3512 C3514 1.378 . S
C3512 C3516 1.350 . S
C3513 C3516 1.463 . S
C3513 C3518 1.350 . S
C3513 N3521 1.427 . S
C3514 H3505 0.930 . S
C3514 C3512 1.378 . S
C3514 C3515 1.367 . S
C3515 C3514 1.367 . S
C3515 C3517 1.433 . S
C3516 C3512 1.350 . S
C3516 C3513 1.463 . S
C3516 N3520 1.427 . S
C3517 H3507 0.929 . S
C3517 C3515 1.433 . S
C3517 N3520 1.384 . S
C3518 H3509 0.929 . S
C3518 C3510 1.378 . S
C3518 C3513 1.350 . S
C3519 H3506 0.929 . S
C3519 C3511 1.433 . S
C3519 N3521 1.384 . S
N3520 C3516 1.427 . S
N3520 C3517 1.384 . S
N3521 C3513 1.427 . S
N3521 C3519 1.384 . S
H3522 C3528 0.930 . S
H3523 C3532 0.930 . S
H3524 C3537 0.929 . S
H3525 C3535 0.929 . S
H3526 C3530 0.929 . S
H3527 C3536 0.929 . S
C3528 H3522 0.930 . S
C3528 C3529 1.367 . S
C3528 C3536 1.378 . S
C3529 C3528 1.367 . S
C3529 C3537 1.433 . S
C3530 H3526 0.929 . S
C3530 C3532 1.378 . S
C3530 C3534 1.350 . S
C3531 C3534 1.463 . S
C3531 C3536 1.350 . S
C3531 N3539 1.427 . S
C3532 H3523 0.930 . S
C3532 C3530 1.378 . S
C3532 C3533 1.367 . S
C3533 C3532 1.367 . S
C3533 C3535 1.433 . S
C3534 C3530 1.350 . S
C3534 C3531 1.463 . S
C3534 N3538 1.427 . S
C3535 H3525 0.929 . S
C3535 C3533 1.433 . S
C3535 N3538 1.384 . S
C3536 H3527 0.929 . S
C3536 C3528 1.378 . S
C3536 C3531 1.350 . S
C3537 H3524 0.929 . S
C3537 C3529 1.433 . S
C3537 N3539 1.384 . S
N3538 C3534 1.427 . S
N3538 C3535 1.384 . S
N3539 C3531 1.427 . S
N3539 C3537 1.384 . S
H3540 C3546 0.930 . S
H3541 C3550 0.930 . S
H3542 C3555 0.929 . S
H3543 C3553 0.929 . S
H3544 C3548 0.929 . S
H3545 C3554 0.929 . S
C3546 H3540 0.930 . S
C3546 C3547 1.367 . S
C3546 C3554 1.378 . S
C3547 C3546 1.367 . S
C3547 C3555 1.433 . S
C3548 H3544 0.929 . S
C3548 C3550 1.378 . S
C3548 C3552 1.350 . S
C3549 C3552 1.463 . S
C3549 C3554 1.350 . S
C3549 N3557 1.427 . S
C3550 H3541 0.930 . S
C3550 C3548 1.378 . S
C3550 C3551 1.367 . S
C3551 C3550 1.367 . S
C3551 C3553 1.433 . S
C3552 C3548 1.350 . S
C3552 C3549 1.463 . S
C3552 N3556 1.427 . S
C3553 H3543 0.929 . S
C3553 C3551 1.433 . S
C3553 N3556 1.384 . S
C3554 H3545 0.929 . S
C3554 C3546 1.378 . S
C3554 C3549 1.350 . S
C3555 H3542 0.929 . S
C3555 C3547 1.433 . S
C3555 N3557 1.384 . S
N3556 C3552 1.427 . S
N3556 C3553 1.384 . S
N3557 C3549 1.427 . S
N3557 C3555 1.384 . S
H3558 C3564 0.930 . S
H3559 C3568 0.930 . S
H3560 C3573 0.929 . S
H3561 C3571 0.929 . S
H3562 C3566 0.929 . S
H3563 C3572 0.929 . S
C3564 H3558 0.930 . S
C3564 C3565 1.367 . S
C3564 C3572 1.378 . S
C3565 C3564 1.367 . S
C3565 C3573 1.433 . S
C3566 H3562 0.929 . S
C3566 C3568 1.378 . S
C3566 C3570 1.350 . S
C3567 C3570 1.463 . S
C3567 C3572 1.350 . S
C3567 N3575 1.427 . S
C3568 H3559 0.930 . S
C3568 C3566 1.378 . S
C3568 C3569 1.367 . S
C3569 C3568 1.367 . S
C3569 C3571 1.433 . S
C3570 C3566 1.350 . S
C3570 C3567 1.463 . S
C3570 N3574 1.427 . S
C3571 H3561 0.929 . S
C3571 C3569 1.433 . S
C3571 N3574 1.384 . S
C3572 H3563 0.929 . S
C3572 C3564 1.378 . S
C3572 C3567 1.350 . S
C3573 H3560 0.929 . S
C3573 C3565 1.433 . S
C3573 N3575 1.384 . S
N3574 C3570 1.427 . S
N3574 C3571 1.384 . S
N3575 C3567 1.427 . S
N3575 C3573 1.384 . S
H3576 C3582 0.932 . S
H3577 C3586 0.930 . S
H3578 C3591 0.929 . S
H3579 C3589 0.929 . S
H3580 C3584 0.929 . S
H3581 C3590 0.929 . S
C3582 H3576 0.932 . S
C3582 C3583 1.366 1_565 S
C3582 C3590 1.379 . S
C3583 C3582 1.366 1_545 S
C3583 C3591 1.433 . S
C3584 H3580 0.929 . S
C3584 C3586 1.378 . S
C3584 C3588 1.350 . S
C3585 C3588 1.463 . S
C3585 C3590 1.350 . S
C3585 N3593 1.427 1_565 S
C3586 H3577 0.930 . S
C3586 C3584 1.378 . S
C3586 C3587 1.367 . S
C3587 C3586 1.367 . S
C3587 C3589 1.433 . S
C3588 C3584 1.350 . S
C3588 C3585 1.463 . S
C3588 N3592 1.427 . S
C3589 H3579 0.929 . S
C3589 C3587 1.433 . S
C3589 N3592 1.384 . S
C3590 H3581 0.929 . S
C3590 C3582 1.379 . S
C3590 C3585 1.350 . S
C3591 H3578 0.929 . S
C3591 C3583 1.433 . S
C3591 N3593 1.384 . S
N3592 C3588 1.427 . S
N3592 C3589 1.384 . S
N3593 C3585 1.427 1_545 S
N3593 C3591 1.384 . S
H3594 C3600 0.930 . S
H3595 C3604 0.930 . S
H3596 C3609 0.929 . S
H3597 C3607 0.929 . S
H3598 C3602 0.929 . S
H3599 C3608 0.929 . S
C3600 H3594 0.930 . S
C3600 C3601 1.367 . S
C3600 C3608 1.378 . S
C3601 C3600 1.367 . S
C3601 C3609 1.433 . S
C3602 H3598 0.929 . S
C3602 C3604 1.378 . S
C3602 C3606 1.350 . S
C3603 C3606 1.463 . S
C3603 C3608 1.350 . S
C3603 N3611 1.427 . S
C3604 H3595 0.930 . S
C3604 C3602 1.378 . S
C3604 C3605 1.367 . S
C3605 C3604 1.367 . S
C3605 C3607 1.433 . S
C3606 C3602 1.350 . S
C3606 C3603 1.463 . S
C3606 N3610 1.427 . S
C3607 H3597 0.929 . S
C3607 C3605 1.433 . S
C3607 N3610 1.384 . S
C3608 H3599 0.929 . S
C3608 C3600 1.378 . S
C3608 C3603 1.350 . S
C3609 H3596 0.929 . S
C3609 C3601 1.433 . S
C3609 N3611 1.384 . S
N3610 C3606 1.427 . S
N3610 C3607 1.384 . S
N3611 C3603 1.427 . S
N3611 C3609 1.384 . S
H3612 C3618 0.930 . S
H3613 C3622 0.930 . S
H3614 C3627 0.929 . S
H3615 C3625 0.929 . S
H3616 C3620 0.929 . S
H3617 C3626 0.929 . S
C3618 H3612 0.930 . S
C3618 C3619 1.367 . S
C3618 C3626 1.378 . S
C3619 C3618 1.367 . S
C3619 C3627 1.433 . S
C3620 H3616 0.929 . S
C3620 C3622 1.378 . S
C3620 C3624 1.350 . S
C3621 C3624 1.463 . S
C3621 C3626 1.350 . S
C3621 N3629 1.427 . S
C3622 H3613 0.930 . S
C3622 C3620 1.378 . S
C3622 C3623 1.367 . S
C3623 C3622 1.367 . S
C3623 C3625 1.433 . S
C3624 C3620 1.350 . S
C3624 C3621 1.463 . S
C3624 N3628 1.427 . S
C3625 H3615 0.929 . S
C3625 C3623 1.433 . S
C3625 N3628 1.384 . S
C3626 H3617 0.929 . S
C3626 C3618 1.378 . S
C3626 C3621 1.350 . S
C3627 H3614 0.929 . S
C3627 C3619 1.433 . S
C3627 N3629 1.384 . S
N3628 C3624 1.427 . S
N3628 C3625 1.384 . S
N3629 C3621 1.427 . S
N3629 C3627 1.384 . S
H3630 C3636 0.930 . S
H3631 C3640 0.930 . S
H3632 C3645 0.929 . S
H3633 C3643 0.929 . S
H3634 C3638 0.929 . S
H3635 C3644 0.929 . S
C3636 H3630 0.930 . S
C3636 C3637 1.367 . S
C3636 C3644 1.378 . S
C3637 C3636 1.367 . S
C3637 C3645 1.433 . S
C3638 H3634 0.929 . S
C3638 C3640 1.378 . S
C3638 C3642 1.350 . S
C3639 C3642 1.463 . S
C3639 C3644 1.350 . S
C3639 N3647 1.427 . S
C3640 H3631 0.930 . S
C3640 C3638 1.378 . S
C3640 C3641 1.367 . S
C3641 C3640 1.367 . S
C3641 C3643 1.433 . S
C3642 C3638 1.350 . S
C3642 C3639 1.463 . S
C3642 N3646 1.427 . S
C3643 H3633 0.929 . S
C3643 C3641 1.433 . S
C3643 N3646 1.384 . S
C3644 H3635 0.929 . S
C3644 C3636 1.378 . S
C3644 C3639 1.350 . S
C3645 H3632 0.929 . S
C3645 C3637 1.433 . S
C3645 N3647 1.384 . S
N3646 C3642 1.427 . S
N3646 C3643 1.384 . S
N3647 C3639 1.427 . S
N3647 C3645 1.384 . S
H3648 C3654 0.930 . S
H3649 C3658 0.930 . S
H3650 C3663 0.929 . S
H3651 C3661 0.929 . S
H3652 C3656 0.929 . S
H3653 C3662 0.929 . S
C3654 H3648 0.930 . S
C3654 C3655 1.367 . S
C3654 C3662 1.378 . S
C3655 C3654 1.367 . S
C3655 C3663 1.433 . S
C3656 H3652 0.929 . S
C3656 C3658 1.378 . S
C3656 C3660 1.350 . S
C3657 C3660 1.463 . S
C3657 C3662 1.350 . S
C3657 N3665 1.427 . S
C3658 H3649 0.930 . S
C3658 C3656 1.378 . S
C3658 C3659 1.367 . S
C3659 C3658 1.367 . S
C3659 C3661 1.433 . S
C3660 C3656 1.350 . S
C3660 C3657 1.463 . S
C3660 N3664 1.427 . S
C3661 H3651 0.929 . S
C3661 C3659 1.433 . S
C3661 N3664 1.384 . S
C3662 H3653 0.929 . S
C3662 C3654 1.378 . S
C3662 C3657 1.350 . S
C3663 H3650 0.929 . S
C3663 C3655 1.433 . S
C3663 N3665 1.384 . S
N3664 C3660 1.427 . S
N3664 C3661 1.384 . S
N3665 C3657 1.427 . S
N3665 C3663 1.384 . S
H3666 C3672 0.930 . S
H3667 C3676 0.930 . S
H3668 C3681 0.929 . S
H3669 C3679 0.929 . S
H3670 C3674 0.929 . S
H3671 C3680 0.929 . S
C3672 H3666 0.930 . S
C3672 C3673 1.367 . S
C3672 C3680 1.378 . S
C3673 C3672 1.367 . S
C3673 C3681 1.433 . S
C3674 H3670 0.929 . S
C3674 C3676 1.378 . S
C3674 C3678 1.350 . S
C3675 C3678 1.463 . S
C3675 C3680 1.350 . S
C3675 N3683 1.427 . S
C3676 H3667 0.930 . S
C3676 C3674 1.378 . S
C3676 C3677 1.367 . S
C3677 C3676 1.367 . S
C3677 C3679 1.433 . S
C3678 C3674 1.350 . S
C3678 C3675 1.463 . S
C3678 N3682 1.427 . S
C3679 H3669 0.929 . S
C3679 C3677 1.433 . S
C3679 N3682 1.384 . S
C3680 H3671 0.929 . S
C3680 C3672 1.378 . S
C3680 C3675 1.350 . S
C3681 H3668 0.929 . S
C3681 C3673 1.433 . S
C3681 N3683 1.384 . S
N3682 C3678 1.427 . S
N3682 C3679 1.384 . S
N3683 C3675 1.427 . S
N3683 C3681 1.384 . S
H3684 C3690 0.930 . S
H3685 C3694 0.930 . S
H3686 C3699 0.929 . S
H3687 C3697 0.929 . S
H3688 C3692 0.929 . S
H3689 C3698 0.929 . S
C3690 H3684 0.930 . S
C3690 C3691 1.367 . S
C3690 C3698 1.378 . S
C3691 C3690 1.367 . S
C3691 C3699 1.433 . S
C3692 H3688 0.929 . S
C3692 C3694 1.378 . S
C3692 C3696 1.350 . S
C3693 C3696 1.463 . S
C3693 C3698 1.350 . S
C3693 N3701 1.427 . S
C3694 H3685 0.930 . S
C3694 C3692 1.378 . S
C3694 C3695 1.367 . S
C3695 C3694 1.367 . S
C3695 C3697 1.433 . S
C3696 C3692 1.350 . S
C3696 C3693 1.463 . S
C3696 N3700 1.427 . S
C3697 H3687 0.929 . S
C3697 C3695 1.433 . S
C3697 N3700 1.384 . S
C3698 H3689 0.929 . S
C3698 C3690 1.378 . S
C3698 C3693 1.350 . S
C3699 H3686 0.929 . S
C3699 C3691 1.433 . S
C3699 N3701 1.384 . S
N3700 C3696 1.427 . S
N3700 C3697 1.384 . S
N3701 C3693 1.427 . S
N3701 C3699 1.384 . S
H3702 C3708 0.934 1_655 S
H3703 C3712 0.930 . S
H3704 C3717 0.929 . S
H3705 C3715 0.929 . S
H3706 C3710 0.929 . S
H3707 C3716 0.929 1_655 S
C3708 H3702 0.934 1_455 S
C3708 C3709 1.367 . S
C3708 C3716 1.378 . S
C3709 C3708 1.367 . S
C3709 C3717 1.433 . S
C3710 H3706 0.929 . S
C3710 C3712 1.378 . S
C3710 C3714 1.350 . S
C3711 C3714 1.463 . S
C3711 C3716 1.350 . S
C3711 N3719 1.427 . S
C3712 H3703 0.930 . S
C3712 C3710 1.378 . S
C3712 C3713 1.367 1_455 S
C3713 C3712 1.367 1_655 S
C3713 C3715 1.433 . S
C3714 C3710 1.350 . S
C3714 C3711 1.463 . S
C3714 N3718 1.427 1_455 S
C3715 H3705 0.929 . S
C3715 C3713 1.433 . S
C3715 N3718 1.384 . S
C3716 H3707 0.929 1_455 S
C3716 C3708 1.378 . S
C3716 C3711 1.350 . S
C3717 H3704 0.929 . S
C3717 C3709 1.433 . S
C3717 N3719 1.384 . S
N3718 C3714 1.427 1_655 S
N3718 C3715 1.384 . S
N3719 C3711 1.427 . S
N3719 C3717 1.384 . S
H3720 C3726 0.930 . S
H3721 C3730 0.930 . S
H3722 C3735 0.929 . S
H3723 C3733 0.929 . S
H3724 C3728 0.929 . S
H3725 C3734 0.929 . S
C3726 H3720 0.930 . S
C3726 C3727 1.367 . S
C3726 C3734 1.378 . S
C3727 C3726 1.367 . S
C3727 C3735 1.433 . S
C3728 H3724 0.929 . S
C3728 C3730 1.378 . S
C3728 C3732 1.350 . S
C3729 C3732 1.463 . S
C3729 C3734 1.350 . S
C3729 N3737 1.427 . S
C3730 H3721 0.930 . S
C3730 C3728 1.378 . S
C3730 C3731 1.367 . S
C3731 C3730 1.367 . S
C3731 C3733 1.433 . S
C3732 C3728 1.350 . S
C3732 C3729 1.463 . S
C3732 N3736 1.427 . S
C3733 H3723 0.929 . S
C3733 C3731 1.433 . S
C3733 N3736 1.384 . S
C3734 H3725 0.929 . S
C3734 C3726 1.378 . S
C3734 C3729 1.350 . S
C3735 H3722 0.929 . S
C3735 C3727 1.433 . S
C3735 N3737 1.384 . S
N3736 C3732 1.427 . S
N3736 C3733 1.384 . S
N3737 C3729 1.427 . S
N3737 C3735 1.384 . S
H3738 C3744 0.930 . S
H3739 C3748 0.930 . S
H3740 C3753 0.929 . S
H3741 C3751 0.929 . S
H3742 C3746 0.929 . S
H3743 C3752 0.929 . S
C3744 H3738 0.930 . S
C3744 C3745 1.367 . S
C3744 C3752 1.378 . S
C3745 C3744 1.367 . S
C3745 C3753 1.433 . S
C3746 H3742 0.929 . S
C3746 C3748 1.378 . S
C3746 C3750 1.350 . S
C3747 C3750 1.463 . S
C3747 C3752 1.350 . S
C3747 N3755 1.427 . S
C3748 H3739 0.930 . S
C3748 C3746 1.378 . S
C3748 C3749 1.367 . S
C3749 C3748 1.367 . S
C3749 C3751 1.433 . S
C3750 C3746 1.350 . S
C3750 C3747 1.463 . S
C3750 N3754 1.427 . S
C3751 H3741 0.929 . S
C3751 C3749 1.433 . S
C3751 N3754 1.384 . S
C3752 H3743 0.929 . S
C3752 C3744 1.378 . S
C3752 C3747 1.350 . S
C3753 H3740 0.929 . S
C3753 C3745 1.433 . S
C3753 N3755 1.384 . S
N3754 C3750 1.427 . S
N3754 C3751 1.384 . S
N3755 C3747 1.427 . S
N3755 C3753 1.384 . S
H3756 C3762 0.930 . S
H3757 C3766 0.930 . S
H3758 C3771 0.929 . S
H3759 C3769 0.929 . S
H3760 C3764 0.929 . S
H3761 C3770 0.929 . S
C3762 H3756 0.930 . S
C3762 C3763 1.367 . S
C3762 C3770 1.378 . S
C3763 C3762 1.367 . S
C3763 C3771 1.433 . S
C3764 H3760 0.929 . S
C3764 C3766 1.378 . S
C3764 C3768 1.350 . S
C3765 C3768 1.463 . S
C3765 C3770 1.350 . S
C3765 N3773 1.427 . S
C3766 H3757 0.930 . S
C3766 C3764 1.378 . S
C3766 C3767 1.367 . S
C3767 C3766 1.367 . S
C3767 C3769 1.433 . S
C3768 C3764 1.350 . S
C3768 C3765 1.463 . S
C3768 N3772 1.427 . S
C3769 H3759 0.929 . S
C3769 C3767 1.433 . S
C3769 N3772 1.384 . S
C3770 H3761 0.929 . S
C3770 C3762 1.378 . S
C3770 C3765 1.350 . S
C3771 H3758 0.929 . S
C3771 C3763 1.433 . S
C3771 N3773 1.384 . S
N3772 C3768 1.427 . S
N3772 C3769 1.384 . S
N3773 C3765 1.427 . S
N3773 C3771 1.384 . S
H3774 C3780 0.930 . S
H3775 C3784 0.930 . S
H3776 C3789 0.929 . S
H3777 C3787 0.929 . S
H3778 C3782 0.929 . S
H3779 C3788 0.929 . S
C3780 H3774 0.930 . S
C3780 C3781 1.367 . S
C3780 C3788 1.378 . S
C3781 C3780 1.367 . S
C3781 C3789 1.433 . S
C3782 H3778 0.929 . S
C3782 C3784 1.378 . S
C3782 C3786 1.350 . S
C3783 C3786 1.463 . S
C3783 C3788 1.350 . S
C3783 N3791 1.427 . S
C3784 H3775 0.930 . S
C3784 C3782 1.378 . S
C3784 C3785 1.367 . S
C3785 C3784 1.367 . S
C3785 C3787 1.433 . S
C3786 C3782 1.350 . S
C3786 C3783 1.463 . S
C3786 N3790 1.427 . S
C3787 H3777 0.929 . S
C3787 C3785 1.433 . S
C3787 N3790 1.384 . S
C3788 H3779 0.929 . S
C3788 C3780 1.378 . S
C3788 C3783 1.350 . S
C3789 H3776 0.929 . S
C3789 C3781 1.433 . S
C3789 N3791 1.384 . S
N3790 C3786 1.427 . S
N3790 C3787 1.384 . S
N3791 C3783 1.427 . S
N3791 C3789 1.384 . S
H3792 C3798 0.930 . S
H3793 C3802 0.930 . S
H3794 C3807 0.929 . S
H3795 C3805 0.929 . S
H3796 C3800 0.929 . S
H3797 C3806 0.929 . S
C3798 H3792 0.930 . S
C3798 C3799 1.367 . S
C3798 C3806 1.378 . S
C3799 C3798 1.367 . S
C3799 C3807 1.433 . S
C3800 H3796 0.929 . S
C3800 C3802 1.378 . S
C3800 C3804 1.350 . S
C3801 C3804 1.463 . S
C3801 C3806 1.350 . S
C3801 N3809 1.427 . S
C3802 H3793 0.930 . S
C3802 C3800 1.378 . S
C3802 C3803 1.367 . S
C3803 C3802 1.367 . S
C3803 C3805 1.433 . S
C3804 C3800 1.350 . S
C3804 C3801 1.463 . S
C3804 N3808 1.427 . S
C3805 H3795 0.929 . S
C3805 C3803 1.433 . S
C3805 N3808 1.384 . S
C3806 H3797 0.929 . S
C3806 C3798 1.378 . S
C3806 C3801 1.350 . S
C3807 H3794 0.929 . S
C3807 C3799 1.433 . S
C3807 N3809 1.384 . S
N3808 C3804 1.427 . S
N3808 C3805 1.384 . S
N3809 C3801 1.427 . S
N3809 C3807 1.384 . S
H3810 C3816 0.930 . S
H3811 C3820 0.930 . S
H3812 C3825 0.929 . S
H3813 C3823 0.929 . S
H3814 C3818 0.929 . S
H3815 C3824 0.929 . S
C3816 H3810 0.930 . S
C3816 C3817 1.367 . S
C3816 C3824 1.378 . S
C3817 C3816 1.367 . S
C3817 C3825 1.433 . S
C3818 H3814 0.929 . S
C3818 C3820 1.378 . S
C3818 C3822 1.350 . S
C3819 C3822 1.463 . S
C3819 C3824 1.350 . S
C3819 N3827 1.427 . S
C3820 H3811 0.930 . S
C3820 C3818 1.378 . S
C3820 C3821 1.367 . S
C3821 C3820 1.367 . S
C3821 C3823 1.433 . S
C3822 C3818 1.350 . S
C3822 C3819 1.463 . S
C3822 N3826 1.427 . S
C3823 H3813 0.929 . S
C3823 C3821 1.433 . S
C3823 N3826 1.384 . S
C3824 H3815 0.929 . S
C3824 C3816 1.378 . S
C3824 C3819 1.350 . S
C3825 H3812 0.929 . S
C3825 C3817 1.433 . S
C3825 N3827 1.384 . S
N3826 C3822 1.427 . S
N3826 C3823 1.384 . S
N3827 C3819 1.427 . S
N3827 C3825 1.384 . S
H3828 C3834 0.930 . S
H3829 C3838 0.930 . S
H3830 C3843 0.929 . S
H3831 C3841 0.929 . S
H3832 C3836 0.929 . S
H3833 C3842 0.929 . S
C3834 H3828 0.930 . S
C3834 C3835 1.367 . S
C3834 C3842 1.378 . S
C3835 C3834 1.367 . S
C3835 C3843 1.433 . S
C3836 H3832 0.929 . S
C3836 C3838 1.378 . S
C3836 C3840 1.350 . S
C3837 C3840 1.463 . S
C3837 C3842 1.350 . S
C3837 N3845 1.427 . S
C3838 H3829 0.930 . S
C3838 C3836 1.378 . S
C3838 C3839 1.367 . S
C3839 C3838 1.367 . S
C3839 C3841 1.433 . S
C3840 C3836 1.350 . S
C3840 C3837 1.463 . S
C3840 N3844 1.427 . S
C3841 H3831 0.929 . S
C3841 C3839 1.433 . S
C3841 N3844 1.384 . S
C3842 H3833 0.929 . S
C3842 C3834 1.378 . S
C3842 C3837 1.350 . S
C3843 H3830 0.929 . S
C3843 C3835 1.433 . S
C3843 N3845 1.384 . S
N3844 C3840 1.427 . S
N3844 C3841 1.384 . S
N3845 C3837 1.427 . S
N3845 C3843 1.384 . S
H3846 C3852 0.930 . S
H3847 C3856 0.930 . S
H3848 C3861 0.929 . S
H3849 C3859 0.929 . S
H3850 C3854 0.929 . S
H3851 C3860 0.929 . S
C3852 H3846 0.930 . S
C3852 C3853 1.367 . S
C3852 C3860 1.378 . S
C3853 C3852 1.367 . S
C3853 C3861 1.433 . S
C3854 H3850 0.929 . S
C3854 C3856 1.378 . S
C3854 C3858 1.350 . S
C3855 C3858 1.463 . S
C3855 C3860 1.350 . S
C3855 N3863 1.427 . S
C3856 H3847 0.930 . S
C3856 C3854 1.378 . S
C3856 C3857 1.367 . S
C3857 C3856 1.367 . S
C3857 C3859 1.433 . S
C3858 C3854 1.350 . S
C3858 C3855 1.463 . S
C3858 N3862 1.427 . S
C3859 H3849 0.929 . S
C3859 C3857 1.433 . S
C3859 N3862 1.384 . S
C3860 H3851 0.929 . S
C3860 C3852 1.378 . S
C3860 C3855 1.350 . S
C3861 H3848 0.929 . S
C3861 C3853 1.433 . S
C3861 N3863 1.384 . S
N3862 C3858 1.427 . S
N3862 C3859 1.384 . S
N3863 C3855 1.427 . S
N3863 C3861 1.384 . S
H3864 C3870 0.930 . S
H3865 C3874 0.930 . S
H3866 C3879 0.929 . S
H3867 C3877 0.929 . S
H3868 C3872 0.929 . S
H3869 C3878 0.929 . S
C3870 H3864 0.930 . S
C3870 C3871 1.367 . S
C3870 C3878 1.378 . S
C3871 C3870 1.367 . S
C3871 C3879 1.433 . S
C3872 H3868 0.929 . S
C3872 C3874 1.378 . S
C3872 C3876 1.350 . S
C3873 C3876 1.463 . S
C3873 C3878 1.350 . S
C3873 N3881 1.427 . S
C3874 H3865 0.930 . S
C3874 C3872 1.378 . S
C3874 C3875 1.367 . S
C3875 C3874 1.367 . S
C3875 C3877 1.433 . S
C3876 C3872 1.350 . S
C3876 C3873 1.463 . S
C3876 N3880 1.427 . S
C3877 H3867 0.929 . S
C3877 C3875 1.433 . S
C3877 N3880 1.384 . S
C3878 H3869 0.929 . S
C3878 C3870 1.378 . S
C3878 C3873 1.350 . S
C3879 H3866 0.929 . S
C3879 C3871 1.433 . S
C3879 N3881 1.384 . S
N3880 C3876 1.427 . S
N3880 C3877 1.384 . S
N3881 C3873 1.427 . S
N3881 C3879 1.384 . S
H3882 C3888 0.930 . S
H3883 C3892 0.930 . S
H3884 C3897 0.929 . S
H3885 C3895 0.929 . S
H3886 C3890 0.929 . S
H3887 C3896 0.929 1_554 S
C3888 H3882 0.930 . S
C3888 C3889 1.367 . S
C3888 C3896 1.378 . S
C3889 C3888 1.367 . S
C3889 C3897 1.433 . S
C3890 H3886 0.929 . S
C3890 C3892 1.378 . S
C3890 C3894 1.350 . S
C3891 C3894 1.463 . S
C3891 C3896 1.350 1_554 S
C3891 N3899 1.426 . S
C3892 H3883 0.930 . S
C3892 C3890 1.378 . S
C3892 C3893 1.367 . S
C3893 C3892 1.367 . S
C3893 C3895 1.433 . S
C3894 C3890 1.350 . S
C3894 C3891 1.463 . S
C3894 N3898 1.427 . S
C3895 H3885 0.929 . S
C3895 C3893 1.433 . S
C3895 N3898 1.384 . S
C3896 H3887 0.929 1_556 S
C3896 C3888 1.378 . S
C3896 C3891 1.350 1_556 S
C3897 H3884 0.929 . S
C3897 C3889 1.433 . S
C3897 N3899 1.386 1_556 S
N3898 C3894 1.427 . S
N3898 C3895 1.384 . S
N3899 C3891 1.426 . S
N3899 C3897 1.386 1_554 S
H3900 C3906 0.930 . S
H3901 C3910 0.930 . S
H3902 C3915 0.929 . S
H3903 C3913 0.929 . S
H3904 C3908 0.929 . S
H3905 C3914 0.929 . S
C3906 H3900 0.930 . S
C3906 C3907 1.367 . S
C3906 C3914 1.378 . S
C3907 C3906 1.367 . S
C3907 C3915 1.433 . S
C3908 H3904 0.929 . S
C3908 C3910 1.378 . S
C3908 C3912 1.350 . S
C3909 C3912 1.463 . S
C3909 C3914 1.350 . S
C3909 N3917 1.427 . S
C3910 H3901 0.930 . S
C3910 C3908 1.378 . S
C3910 C3911 1.367 . S
C3911 C3910 1.367 . S
C3911 C3913 1.433 . S
C3912 C3908 1.350 . S
C3912 C3909 1.463 . S
C3912 N3916 1.427 . S
C3913 H3903 0.929 . S
C3913 C3911 1.433 . S
C3913 N3916 1.384 . S
C3914 H3905 0.929 . S
C3914 C3906 1.378 . S
C3914 C3909 1.350 . S
C3915 H3902 0.929 . S
C3915 C3907 1.433 . S
C3915 N3917 1.384 . S
N3916 C3912 1.427 . S
N3916 C3913 1.384 . S
N3917 C3909 1.427 . S
N3917 C3915 1.384 . S
H3918 C3924 0.930 . S
H3919 C3928 0.930 . S
H3920 C3933 0.929 . S
H3921 C3931 0.929 . S
H3922 C3926 0.929 . S
H3923 C3932 0.929 . S
C3924 H3918 0.930 . S
C3924 C3925 1.367 . S
C3924 C3932 1.378 . S
C3925 C3924 1.367 . S
C3925 C3933 1.433 . S
C3926 H3922 0.929 . S
C3926 C3928 1.378 . S
C3926 C3930 1.350 . S
C3927 C3930 1.463 . S
C3927 C3932 1.350 . S
C3927 N3935 1.427 . S
C3928 H3919 0.930 . S
C3928 C3926 1.378 . S
C3928 C3929 1.367 . S
C3929 C3928 1.367 . S
C3929 C3931 1.433 . S
C3930 C3926 1.350 . S
C3930 C3927 1.463 . S
C3930 N3934 1.427 . S
C3931 H3921 0.929 . S
C3931 C3929 1.433 . S
C3931 N3934 1.384 . S
C3932 H3923 0.929 . S
C3932 C3924 1.378 . S
C3932 C3927 1.350 . S
C3933 H3920 0.929 . S
C3933 C3925 1.433 . S
C3933 N3935 1.384 . S
N3934 C3930 1.427 . S
N3934 C3931 1.384 . S
N3935 C3927 1.427 . S
N3935 C3933 1.384 . S
H3936 C3942 0.930 . S
H3937 C3946 0.930 . S
H3938 C3951 0.929 . S
H3939 C3949 0.929 . S
H3940 C3944 0.929 . S
H3941 C3950 0.929 . S
C3942 H3936 0.930 . S
C3942 C3943 1.367 . S
C3942 C3950 1.378 . S
C3943 C3942 1.367 . S
C3943 C3951 1.433 . S
C3944 H3940 0.929 . S
C3944 C3946 1.378 . S
C3944 C3948 1.350 . S
C3945 C3948 1.463 . S
C3945 C3950 1.350 . S
C3945 N3953 1.427 . S
C3946 H3937 0.930 . S
C3946 C3944 1.378 . S
C3946 C3947 1.367 . S
C3947 C3946 1.367 . S
C3947 C3949 1.433 . S
C3948 C3944 1.350 . S
C3948 C3945 1.463 . S
C3948 N3952 1.427 . S
C3949 H3939 0.929 . S
C3949 C3947 1.433 . S
C3949 N3952 1.384 . S
C3950 H3941 0.929 . S
C3950 C3942 1.378 . S
C3950 C3945 1.350 . S
C3951 H3938 0.929 . S
C3951 C3943 1.433 . S
C3951 N3953 1.384 . S
N3952 C3948 1.427 . S
N3952 C3949 1.384 . S
N3953 C3945 1.427 . S
N3953 C3951 1.384 . S
H3954 C3960 0.930 . S
H3955 C3964 0.930 . S
H3956 C3969 0.929 . S
H3957 C3967 0.929 . S
H3958 C3962 0.929 . S
H3959 C3968 0.929 . S
C3960 H3954 0.930 . S
C3960 C3961 1.367 . S
C3960 C3968 1.378 . S
C3961 C3960 1.367 . S
C3961 C3969 1.433 . S
C3962 H3958 0.929 . S
C3962 C3964 1.378 . S
C3962 C3966 1.350 . S
C3963 C3966 1.463 . S
C3963 C3968 1.350 . S
C3963 N3971 1.427 . S
C3964 H3955 0.930 . S
C3964 C3962 1.378 . S
C3964 C3965 1.367 . S
C3965 C3964 1.367 . S
C3965 C3967 1.433 . S
C3966 C3962 1.350 . S
C3966 C3963 1.463 . S
C3966 N3970 1.427 . S
C3967 H3957 0.929 . S
C3967 C3965 1.433 . S
C3967 N3970 1.384 . S
C3968 H3959 0.929 . S
C3968 C3960 1.378 . S
C3968 C3963 1.350 . S
C3969 H3956 0.929 . S
C3969 C3961 1.433 . S
C3969 N3971 1.384 . S
N3970 C3966 1.427 . S
N3970 C3967 1.384 . S
N3971 C3963 1.427 . S
N3971 C3969 1.384 . S
H3972 C3978 0.930 . S
H3973 C3982 0.930 . S
H3974 C3987 0.929 . S
H3975 C3985 0.929 . S
H3976 C3980 0.929 . S
H3977 C3986 0.929 . S
C3978 H3972 0.930 . S
C3978 C3979 1.367 . S
C3978 C3986 1.378 . S
C3979 C3978 1.367 . S
C3979 C3987 1.433 . S
C3980 H3976 0.929 . S
C3980 C3982 1.378 . S
C3980 C3984 1.350 . S
C3981 C3984 1.463 . S
C3981 C3986 1.350 . S
C3981 N3989 1.427 . S
C3982 H3973 0.930 . S
C3982 C3980 1.378 . S
C3982 C3983 1.367 . S
C3983 C3982 1.367 . S
C3983 C3985 1.433 . S
C3984 C3980 1.350 . S
C3984 C3981 1.463 . S
C3984 N3988 1.427 . S
C3985 H3975 0.929 . S
C3985 C3983 1.433 . S
C3985 N3988 1.384 . S
C3986 H3977 0.929 . S
C3986 C3978 1.378 . S
C3986 C3981 1.350 . S
C3987 H3974 0.929 . S
C3987 C3979 1.433 . S
C3987 N3989 1.384 . S
N3988 C3984 1.427 . S
N3988 C3985 1.384 . S
N3989 C3981 1.427 . S
N3989 C3987 1.384 . S
H3990 C3996 0.930 . S
H3991 C4000 0.930 . S
H3992 C4005 0.929 . S
H3993 C4003 0.929 . S
H3994 C3998 0.929 . S
H3995 C4004 0.929 . S
C3996 H3990 0.930 . S
C3996 C3997 1.367 . S
C3996 C4004 1.378 . S
C3997 C3996 1.367 . S
C3997 C4005 1.433 . S
C3998 H3994 0.929 . S
C3998 C4000 1.378 . S
C3998 C4002 1.350 . S
C3999 C4002 1.463 . S
C3999 C4004 1.350 . S
C3999 N4007 1.427 . S
C4000 H3991 0.930 . S
C4000 C3998 1.378 . S
C4000 C4001 1.367 . S
C4001 C4000 1.367 . S
C4001 C4003 1.433 . S
C4002 C3998 1.350 . S
C4002 C3999 1.463 . S
C4002 N4006 1.427 . S
C4003 H3993 0.929 . S
C4003 C4001 1.433 . S
C4003 N4006 1.384 . S
C4004 H3995 0.929 . S
C4004 C3996 1.378 . S
C4004 C3999 1.350 . S
C4005 H3992 0.929 . S
C4005 C3997 1.433 . S
C4005 N4007 1.384 . S
N4006 C4002 1.427 . S
N4006 C4003 1.384 . S
N4007 C3999 1.427 . S
N4007 C4005 1.384 . S
H4008 C4014 0.930 . S
H4009 C4018 0.930 . S
H4010 C4023 0.929 . S
H4011 C4021 0.929 . S
H4012 C4016 0.929 . S
H4013 C4022 0.929 . S
C4014 H4008 0.930 . S
C4014 C4015 1.367 . S
C4014 C4022 1.378 . S
C4015 C4014 1.367 . S
C4015 C4023 1.433 . S
C4016 H4012 0.929 . S
C4016 C4018 1.378 . S
C4016 C4020 1.350 . S
C4017 C4020 1.463 . S
C4017 C4022 1.350 . S
C4017 N4025 1.427 . S
C4018 H4009 0.930 . S
C4018 C4016 1.378 . S
C4018 C4019 1.367 . S
C4019 C4018 1.367 . S
C4019 C4021 1.433 . S
C4020 C4016 1.350 . S
C4020 C4017 1.463 . S
C4020 N4024 1.427 . S
C4021 H4011 0.929 . S
C4021 C4019 1.433 . S
C4021 N4024 1.384 . S
C4022 H4013 0.929 . S
C4022 C4014 1.378 . S
C4022 C4017 1.350 . S
C4023 H4010 0.929 . S
C4023 C4015 1.433 . S
C4023 N4025 1.384 . S
N4024 C4020 1.427 . S
N4024 C4021 1.384 . S
N4025 C4017 1.427 . S
N4025 C4023 1.384 . S
H4026 C4032 0.930 . S
H4027 C4036 0.930 . S
H4028 C4041 0.929 . S
H4029 C4039 0.929 . S
H4030 C4034 0.929 . S
H4031 C4040 0.929 . S
C4032 H4026 0.930 . S
C4032 C4033 1.367 . S
C4032 C4040 1.378 . S
C4033 C4032 1.367 . S
C4033 C4041 1.433 . S
C4034 H4030 0.929 . S
C4034 C4036 1.378 . S
C4034 C4038 1.350 . S
C4035 C4038 1.463 . S
C4035 C4040 1.350 . S
C4035 N4043 1.427 . S
C4036 H4027 0.930 . S
C4036 C4034 1.378 . S
C4036 C4037 1.367 . S
C4037 C4036 1.367 . S
C4037 C4039 1.433 . S
C4038 C4034 1.350 . S
C4038 C4035 1.463 . S
C4038 N4042 1.427 . S
C4039 H4029 0.929 . S
C4039 C4037 1.433 . S
C4039 N4042 1.384 . S
C4040 H4031 0.929 . S
C4040 C4032 1.378 . S
C4040 C4035 1.350 . S
C4041 H4028 0.929 . S
C4041 C4033 1.433 . S
C4041 N4043 1.384 . S
N4042 C4038 1.427 . S
N4042 C4039 1.384 . S
N4043 C4035 1.427 . S
N4043 C4041 1.384 . S
H4044 C4050 0.930 . S
H4045 C4054 0.930 . S
H4046 C4059 0.929 . S
H4047 C4057 0.929 . S
H4048 C4052 0.929 . S
H4049 C4058 0.929 . S
C4050 H4044 0.930 . S
C4050 C4051 1.367 . S
C4050 C4058 1.378 . S
C4051 C4050 1.367 . S
C4051 C4059 1.433 . S
C4052 H4048 0.929 . S
C4052 C4054 1.378 . S
C4052 C4056 1.350 . S
C4053 C4056 1.463 . S
C4053 C4058 1.350 1_545 S
C4053 N4061 1.427 . S
C4054 H4045 0.930 . S
C4054 C4052 1.378 . S
C4054 C4055 1.367 . S
C4055 C4054 1.367 . S
C4055 C4057 1.433 . S
C4056 C4052 1.350 . S
C4056 C4053 1.463 . S
C4056 N4060 1.427 . S
C4057 H4047 0.929 . S
C4057 C4055 1.433 . S
C4057 N4060 1.384 . S
C4058 H4049 0.929 . S
C4058 C4050 1.378 . S
C4058 C4053 1.350 1_565 S
C4059 H4046 0.929 . S
C4059 C4051 1.433 . S
C4059 N4061 1.384 1_565 S
N4060 C4056 1.427 . S
N4060 C4057 1.384 . S
N4061 C4053 1.427 . S
N4061 C4059 1.384 1_545 S
H4062 C4068 0.930 . S
H4063 C4072 0.930 . S
H4064 C4077 0.929 . S
H4065 C4075 0.929 . S
H4066 C4070 0.929 . S
H4067 C4076 0.929 . S
C4068 H4062 0.930 . S
C4068 C4069 1.367 . S
C4068 C4076 1.378 . S
C4069 C4068 1.367 . S
C4069 C4077 1.433 . S
C4070 H4066 0.929 . S
C4070 C4072 1.378 . S
C4070 C4074 1.350 . S
C4071 C4074 1.463 . S
C4071 C4076 1.350 . S
C4071 N4079 1.427 . S
C4072 H4063 0.930 . S
C4072 C4070 1.378 . S
C4072 C4073 1.367 . S
C4073 C4072 1.367 . S
C4073 C4075 1.433 . S
C4074 C4070 1.350 . S
C4074 C4071 1.463 . S
C4074 N4078 1.427 . S
C4075 H4065 0.929 . S
C4075 C4073 1.433 . S
C4075 N4078 1.384 . S
C4076 H4067 0.929 . S
C4076 C4068 1.378 . S
C4076 C4071 1.350 . S
C4077 H4064 0.929 . S
C4077 C4069 1.433 . S
C4077 N4079 1.384 . S
N4078 C4074 1.427 . S
N4078 C4075 1.384 . S
N4079 C4071 1.427 . S
N4079 C4077 1.384 . S
H4080 C4086 0.930 . S
H4081 C4090 0.930 . S
H4082 C4095 0.929 . S
H4083 C4093 0.929 . S
H4084 C4088 0.929 . S
H4085 C4094 0.929 . S
C4086 H4080 0.930 . S
C4086 C4087 1.367 . S
C4086 C4094 1.378 . S
C4087 C4086 1.367 . S
C4087 C4095 1.433 . S
C4088 H4084 0.929 . S
C4088 C4090 1.378 . S
C4088 C4092 1.350 . S
C4089 C4092 1.463 . S
C4089 C4094 1.350 . S
C4089 N4097 1.427 . S
C4090 H4081 0.930 . S
C4090 C4088 1.378 . S
C4090 C4091 1.367 . S
C4091 C4090 1.367 . S
C4091 C4093 1.433 . S
C4092 C4088 1.350 . S
C4092 C4089 1.463 . S
C4092 N4096 1.427 . S
C4093 H4083 0.929 . S
C4093 C4091 1.433 . S
C4093 N4096 1.384 . S
C4094 H4085 0.929 . S
C4094 C4086 1.378 . S
C4094 C4089 1.350 . S
C4095 H4082 0.929 . S
C4095 C4087 1.433 . S
C4095 N4097 1.384 . S
N4096 C4092 1.427 . S
N4096 C4093 1.384 . S
N4097 C4089 1.427 . S
N4097 C4095 1.384 . S
H4098 C4104 0.930 . S
H4099 C4108 0.930 . S
H4100 C4113 0.929 . S
H4101 C4111 0.929 . S
H4102 C4106 0.929 . S
H4103 C4112 0.929 . S
C4104 H4098 0.930 . S
C4104 C4105 1.367 . S
C4104 C4112 1.378 . S
C4105 C4104 1.367 . S
C4105 C4113 1.433 . S
C4106 H4102 0.929 . S
C4106 C4108 1.378 . S
C4106 C4110 1.350 . S
C4107 C4110 1.463 . S
C4107 C4112 1.350 . S
C4107 N4115 1.427 . S
C4108 H4099 0.930 . S
C4108 C4106 1.378 . S
C4108 C4109 1.367 . S
C4109 C4108 1.367 . S
C4109 C4111 1.433 . S
C4110 C4106 1.350 . S
C4110 C4107 1.463 . S
C4110 N4114 1.427 . S
C4111 H4101 0.929 . S
C4111 C4109 1.433 . S
C4111 N4114 1.384 . S
C4112 H4103 0.929 . S
C4112 C4104 1.378 . S
C4112 C4107 1.350 . S
C4113 H4100 0.929 . S
C4113 C4105 1.433 . S
C4113 N4115 1.384 . S
N4114 C4110 1.427 . S
N4114 C4111 1.384 . S
N4115 C4107 1.427 . S
N4115 C4113 1.384 . S
H4116 C4122 0.930 . S
H4117 C4126 0.930 . S
H4118 C4131 0.929 . S
H4119 C4129 0.929 . S
H4120 C4124 0.929 . S
H4121 C4130 0.929 . S
C4122 H4116 0.930 . S
C4122 C4123 1.367 . S
C4122 C4130 1.378 . S
C4123 C4122 1.367 . S
C4123 C4131 1.433 . S
C4124 H4120 0.929 . S
C4124 C4126 1.378 . S
C4124 C4128 1.350 . S
C4125 C4128 1.463 . S
C4125 C4130 1.350 . S
C4125 N4133 1.427 . S
C4126 H4117 0.930 . S
C4126 C4124 1.378 . S
C4126 C4127 1.367 . S
C4127 C4126 1.367 . S
C4127 C4129 1.433 . S
C4128 C4124 1.350 . S
C4128 C4125 1.463 . S
C4128 N4132 1.427 . S
C4129 H4119 0.929 . S
C4129 C4127 1.433 . S
C4129 N4132 1.384 . S
C4130 H4121 0.929 . S
C4130 C4122 1.378 . S
C4130 C4125 1.350 . S
C4131 H4118 0.929 . S
C4131 C4123 1.433 . S
C4131 N4133 1.384 . S
N4132 C4128 1.427 . S
N4132 C4129 1.384 . S
N4133 C4125 1.427 . S
N4133 C4131 1.384 . S
H4134 C4140 0.941 . S
H4135 C4144 0.930 1_655 S
H4136 C4149 0.929 . S
H4137 C4147 0.929 . S
H4138 C4142 0.929 . S
H4139 C4148 0.929 . S
C4140 H4134 0.941 . S
C4140 C4141 1.349 1_455 S
C4140 C4148 1.387 . S
C4141 C4140 1.349 1_655 S
C4141 C4149 1.433 . S
C4142 H4138 0.929 . S
C4142 C4144 1.378 1_655 S
C4142 C4146 1.350 1_655 S
C4143 C4146 1.457 1_655 S
C4143 C4148 1.343 1_655 S
C4143 N4151 1.442 . S
C4144 H4135 0.930 1_455 S
C4144 C4142 1.378 1_455 S
C4144 C4145 1.367 . S
C4145 C4144 1.367 . S
C4145 C4147 1.433 . S
C4146 C4142 1.350 1_455 S
C4146 C4143 1.457 1_455 S
C4146 N4150 1.427 . S
C4147 H4137 0.929 . S
C4147 C4145 1.433 . S
C4147 N4150 1.384 . S
C4148 H4139 0.929 . S
C4148 C4140 1.387 . S
C4148 C4143 1.343 1_455 S
C4149 H4136 0.929 . S
C4149 C4141 1.433 . S
C4149 N4151 1.384 . S
N4150 C4146 1.427 . S
N4150 C4147 1.384 . S
N4151 C4143 1.442 . S
N4151 C4149 1.384 . S
H4152 C4158 0.930 . S
H4153 C4162 0.930 . S
H4154 C4167 0.929 . S
H4155 C4165 0.929 . S
H4156 C4160 0.929 . S
H4157 C4166 0.929 . S
C4158 H4152 0.930 . S
C4158 C4159 1.367 . S
C4158 C4166 1.378 . S
C4159 C4158 1.367 . S
C4159 C4167 1.433 . S
C4160 H4156 0.929 . S
C4160 C4162 1.378 . S
C4160 C4164 1.350 . S
C4161 C4164 1.463 . S
C4161 C4166 1.350 . S
C4161 N4169 1.427 . S
C4162 H4153 0.930 . S
C4162 C4160 1.378 . S
C4162 C4163 1.367 . S
C4163 C4162 1.367 . S
C4163 C4165 1.433 . S
C4164 C4160 1.350 . S
C4164 C4161 1.463 . S
C4164 N4168 1.427 . S
C4165 H4155 0.929 . S
C4165 C4163 1.433 . S
C4165 N4168 1.384 . S
C4166 H4157 0.929 . S
C4166 C4158 1.378 . S
C4166 C4161 1.350 . S
C4167 H4154 0.929 . S
C4167 C4159 1.433 . S
C4167 N4169 1.384 . S
N4168 C4164 1.427 . S
N4168 C4165 1.384 . S
N4169 C4161 1.427 . S
N4169 C4167 1.384 . S
H4170 C4176 0.930 . S
H4171 C4180 0.930 . S
H4172 C4185 0.929 . S
H4173 C4183 0.929 . S
H4174 C4178 0.929 . S
H4175 C4184 0.929 . S
C4176 H4170 0.930 . S
C4176 C4177 1.367 . S
C4176 C4184 1.378 . S
C4177 C4176 1.367 . S
C4177 C4185 1.433 . S
C4178 H4174 0.929 . S
C4178 C4180 1.378 . S
C4178 C4182 1.350 . S
C4179 C4182 1.463 . S
C4179 C4184 1.350 . S
C4179 N4187 1.427 . S
C4180 H4171 0.930 . S
C4180 C4178 1.378 . S
C4180 C4181 1.367 . S
C4181 C4180 1.367 . S
C4181 C4183 1.433 . S
C4182 C4178 1.350 . S
C4182 C4179 1.463 . S
C4182 N4186 1.427 . S
C4183 H4173 0.929 . S
C4183 C4181 1.433 . S
C4183 N4186 1.384 . S
C4184 H4175 0.929 . S
C4184 C4176 1.378 . S
C4184 C4179 1.350 . S
C4185 H4172 0.929 . S
C4185 C4177 1.433 . S
C4185 N4187 1.384 . S
N4186 C4182 1.427 . S
N4186 C4183 1.384 . S
N4187 C4179 1.427 . S
N4187 C4185 1.384 . S
H4188 C4194 0.930 . S
H4189 C4198 0.930 . S
H4190 C4203 0.929 . S
H4191 C4201 0.929 . S
H4192 C4196 0.929 . S
H4193 C4202 0.929 . S
C4194 H4188 0.930 . S
C4194 C4195 1.367 . S
C4194 C4202 1.378 . S
C4195 C4194 1.367 . S
C4195 C4203 1.433 . S
C4196 H4192 0.929 . S
C4196 C4198 1.378 . S
C4196 C4200 1.350 . S
C4197 C4200 1.463 . S
C4197 C4202 1.350 . S
C4197 N4205 1.427 . S
C4198 H4189 0.930 . S
C4198 C4196 1.378 . S
C4198 C4199 1.367 . S
C4199 C4198 1.367 . S
C4199 C4201 1.433 . S
C4200 C4196 1.350 . S
C4200 C4197 1.463 . S
C4200 N4204 1.427 . S
C4201 H4191 0.929 . S
C4201 C4199 1.433 . S
C4201 N4204 1.384 . S
C4202 H4193 0.929 . S
C4202 C4194 1.378 . S
C4202 C4197 1.350 . S
C4203 H4190 0.929 . S
C4203 C4195 1.433 . S
C4203 N4205 1.384 . S
N4204 C4200 1.427 . S
N4204 C4201 1.384 . S
N4205 C4197 1.427 . S
N4205 C4203 1.384 . S
H4206 C4212 0.930 . S
H4207 C4216 0.930 . S
H4208 C4221 0.929 . S
H4209 C4219 0.929 . S
H4210 C4214 0.929 . S
H4211 C4220 0.929 . S
C4212 H4206 0.930 . S
C4212 C4213 1.367 . S
C4212 C4220 1.378 . S
C4213 C4212 1.367 . S
C4213 C4221 1.433 . S
C4214 H4210 0.929 . S
C4214 C4216 1.378 . S
C4214 C4218 1.350 . S
C4215 C4218 1.463 . S
C4215 C4220 1.350 . S
C4215 N4223 1.427 . S
C4216 H4207 0.930 . S
C4216 C4214 1.378 . S
C4216 C4217 1.367 . S
C4217 C4216 1.367 . S
C4217 C4219 1.433 . S
C4218 C4214 1.350 . S
C4218 C4215 1.463 . S
C4218 N4222 1.427 . S
C4219 H4209 0.929 . S
C4219 C4217 1.433 . S
C4219 N4222 1.384 . S
C4220 H4211 0.929 . S
C4220 C4212 1.378 . S
C4220 C4215 1.350 . S
C4221 H4208 0.929 . S
C4221 C4213 1.433 . S
C4221 N4223 1.384 . S
N4222 C4218 1.427 . S
N4222 C4219 1.384 . S
N4223 C4215 1.427 . S
N4223 C4221 1.384 . S
H4224 C4230 0.930 . S
H4225 C4234 0.930 . S
H4226 C4239 0.929 . S
H4227 C4237 0.929 . S
H4228 C4232 0.929 . S
H4229 C4238 0.929 . S
C4230 H4224 0.930 . S
C4230 C4231 1.367 . S
C4230 C4238 1.378 . S
C4231 C4230 1.367 . S
C4231 C4239 1.433 . S
C4232 H4228 0.929 . S
C4232 C4234 1.378 . S
C4232 C4236 1.350 . S
C4233 C4236 1.463 . S
C4233 C4238 1.350 . S
C4233 N4241 1.427 . S
C4234 H4225 0.930 . S
C4234 C4232 1.378 . S
C4234 C4235 1.367 . S
C4235 C4234 1.367 . S
C4235 C4237 1.433 . S
C4236 C4232 1.350 . S
C4236 C4233 1.463 . S
C4236 N4240 1.427 . S
C4237 H4227 0.929 . S
C4237 C4235 1.433 . S
C4237 N4240 1.384 . S
C4238 H4229 0.929 . S
C4238 C4230 1.378 . S
C4238 C4233 1.350 . S
C4239 H4226 0.929 . S
C4239 C4231 1.433 . S
C4239 N4241 1.384 . S
N4240 C4236 1.427 . S
N4240 C4237 1.384 . S
N4241 C4233 1.427 . S
N4241 C4239 1.384 . S
H4242 C4248 0.930 . S
H4243 C4252 0.930 . S
H4244 C4257 0.929 . S
H4245 C4255 0.929 . S
H4246 C4250 0.929 . S
H4247 C4256 0.929 . S
C4248 H4242 0.930 . S
C4248 C4249 1.367 . S
C4248 C4256 1.378 . S
C4249 C4248 1.367 . S
C4249 C4257 1.433 . S
C4250 H4246 0.929 . S
C4250 C4252 1.378 . S
C4250 C4254 1.350 . S
C4251 C4254 1.463 . S
C4251 C4256 1.350 . S
C4251 N4259 1.427 . S
C4252 H4243 0.930 . S
C4252 C4250 1.378 . S
C4252 C4253 1.367 . S
C4253 C4252 1.367 . S
C4253 C4255 1.433 . S
C4254 C4250 1.350 . S
C4254 C4251 1.463 . S
C4254 N4258 1.427 . S
C4255 H4245 0.929 . S
C4255 C4253 1.433 . S
C4255 N4258 1.384 . S
C4256 H4247 0.929 . S
C4256 C4248 1.378 . S
C4256 C4251 1.350 . S
C4257 H4244 0.929 . S
C4257 C4249 1.433 . S
C4257 N4259 1.384 . S
N4258 C4254 1.427 . S
N4258 C4255 1.384 . S
N4259 C4251 1.427 . S
N4259 C4257 1.384 . S
H4260 C4266 0.930 . S
H4261 C4270 0.930 . S
H4262 C4275 0.929 . S
H4263 C4273 0.929 . S
H4264 C4268 0.929 . S
H4265 C4274 0.929 . S
C4266 H4260 0.930 . S
C4266 C4267 1.367 . S
C4266 C4274 1.378 . S
C4267 C4266 1.367 . S
C4267 C4275 1.433 . S
C4268 H4264 0.929 . S
C4268 C4270 1.378 . S
C4268 C4272 1.350 . S
C4269 C4272 1.463 . S
C4269 C4274 1.350 . S
C4269 N4277 1.427 . S
C4270 H4261 0.930 . S
C4270 C4268 1.378 . S
C4270 C4271 1.367 . S
C4271 C4270 1.367 . S
C4271 C4273 1.433 . S
C4272 C4268 1.350 . S
C4272 C4269 1.463 . S
C4272 N4276 1.427 . S
C4273 H4263 0.929 . S
C4273 C4271 1.433 . S
C4273 N4276 1.384 . S
C4274 H4265 0.929 . S
C4274 C4266 1.378 . S
C4274 C4269 1.350 . S
C4275 H4262 0.929 . S
C4275 C4267 1.433 . S
C4275 N4277 1.384 . S
N4276 C4272 1.427 . S
N4276 C4273 1.384 . S
N4277 C4269 1.427 . S
N4277 C4275 1.384 . S
H4278 C4284 0.930 . S
H4279 C4288 0.930 . S
H4280 C4293 0.929 . S
H4281 C4291 0.929 . S
H4282 C4286 0.929 . S
H4283 C4292 0.929 . S
C4284 H4278 0.930 . S
C4284 C4285 1.367 . S
C4284 C4292 1.378 . S
C4285 C4284 1.367 . S
C4285 C4293 1.433 . S
C4286 H4282 0.929 . S
C4286 C4288 1.378 . S
C4286 C4290 1.350 . S
C4287 C4290 1.463 . S
C4287 C4292 1.350 . S
C4287 N4295 1.427 . S
C4288 H4279 0.930 . S
C4288 C4286 1.378 . S
C4288 C4289 1.367 . S
C4289 C4288 1.367 . S
C4289 C4291 1.433 . S
C4290 C4286 1.350 . S
C4290 C4287 1.463 . S
C4290 N4294 1.427 . S
C4291 H4281 0.929 . S
C4291 C4289 1.433 . S
C4291 N4294 1.384 . S
C4292 H4283 0.929 . S
C4292 C4284 1.378 . S
C4292 C4287 1.350 . S
C4293 H4280 0.929 . S
C4293 C4285 1.433 . S
C4293 N4295 1.384 . S
N4294 C4290 1.427 . S
N4294 C4291 1.384 . S
N4295 C4287 1.427 . S
N4295 C4293 1.384 . S
H4296 C4302 0.930 . S
H4297 C4306 0.930 . S
H4298 C4311 0.929 . S
H4299 C4309 0.929 . S
H4300 C4304 0.929 . S
H4301 C4310 0.929 . S
C4302 H4296 0.930 . S
C4302 C4303 1.367 . S
C4302 C4310 1.378 . S
C4303 C4302 1.367 . S
C4303 C4311 1.433 . S
C4304 H4300 0.929 . S
C4304 C4306 1.378 . S
C4304 C4308 1.350 . S
C4305 C4308 1.463 . S
C4305 C4310 1.350 . S
C4305 N4313 1.427 . S
C4306 H4297 0.930 . S
C4306 C4304 1.378 . S
C4306 C4307 1.367 . S
C4307 C4306 1.367 . S
C4307 C4309 1.433 . S
C4308 C4304 1.350 . S
C4308 C4305 1.463 . S
C4308 N4312 1.427 . S
C4309 H4299 0.929 . S
C4309 C4307 1.433 . S
C4309 N4312 1.384 . S
C4310 H4301 0.929 . S
C4310 C4302 1.378 . S
C4310 C4305 1.350 . S
C4311 H4298 0.929 . S
C4311 C4303 1.433 . S
C4311 N4313 1.384 . S
N4312 C4308 1.427 . S
N4312 C4309 1.384 . S
N4313 C4305 1.427 . S
N4313 C4311 1.384 . S
H4314 C4320 0.930 . S
H4315 C4324 0.930 . S
H4316 C4329 0.929 1_554 S
H4317 C4327 0.929 1_556 S
H4318 C4322 0.929 . S
H4319 C4328 0.929 . S
C4320 H4314 0.930 . S
C4320 C4321 1.367 . S
C4320 C4328 1.378 . S
C4321 C4320 1.367 . S
C4321 C4329 1.433 . S
C4322 H4318 0.929 . S
C4322 C4324 1.378 . S
C4322 C4326 1.350 . S
C4323 C4326 1.463 1_556 S
C4323 C4328 1.350 . S
C4323 N4331 1.427 1_556 S
C4324 H4315 0.930 . S
C4324 C4322 1.378 . S
C4324 C4325 1.367 . S
C4325 C4324 1.367 . S
C4325 C4327 1.433 . S
C4326 C4322 1.350 . S
C4326 C4323 1.463 1_554 S
C4326 N4330 1.427 1_554 S
C4327 H4317 0.929 1_554 S
C4327 C4325 1.433 . S
C4327 N4330 1.384 1_554 S
C4328 H4319 0.929 . S
C4328 C4320 1.378 . S
C4328 C4323 1.350 . S
C4329 H4316 0.929 1_556 S
C4329 C4321 1.433 . S
C4329 N4331 1.384 1_556 S
N4330 C4326 1.427 1_556 S
N4330 C4327 1.384 1_556 S
N4331 C4323 1.427 1_554 S
N4331 C4329 1.384 1_554 S
H4332 C4338 0.930 . S
H4333 C4342 0.930 . S
H4334 C4347 0.929 . S
H4335 C4345 0.929 . S
H4336 C4340 0.929 . S
H4337 C4346 0.929 . S
C4338 H4332 0.930 . S
C4338 C4339 1.367 . S
C4338 C4346 1.378 . S
C4339 C4338 1.367 . S
C4339 C4347 1.433 . S
C4340 H4336 0.929 . S
C4340 C4342 1.378 . S
C4340 C4344 1.350 . S
C4341 C4344 1.463 . S
C4341 C4346 1.350 . S
C4341 N4349 1.427 . S
C4342 H4333 0.930 . S
C4342 C4340 1.378 . S
C4342 C4343 1.367 . S
C4343 C4342 1.367 . S
C4343 C4345 1.433 . S
C4344 C4340 1.350 . S
C4344 C4341 1.463 . S
C4344 N4348 1.427 . S
C4345 H4335 0.929 . S
C4345 C4343 1.433 . S
C4345 N4348 1.384 . S
C4346 H4337 0.929 . S
C4346 C4338 1.378 . S
C4346 C4341 1.350 . S
C4347 H4334 0.929 . S
C4347 C4339 1.433 . S
C4347 N4349 1.384 . S
N4348 C4344 1.427 . S
N4348 C4345 1.384 . S
N4349 C4341 1.427 . S
N4349 C4347 1.384 . S
H4350 C4356 0.930 . S
H4351 C4360 0.930 . S
H4352 C4365 0.929 . S
H4353 C4363 0.929 . S
H4354 C4358 0.929 . S
H4355 C4364 0.929 . S
C4356 H4350 0.930 . S
C4356 C4357 1.367 . S
C4356 C4364 1.378 . S
C4357 C4356 1.367 . S
C4357 C4365 1.433 . S
C4358 H4354 0.929 . S
C4358 C4360 1.378 . S
C4358 C4362 1.350 . S
C4359 C4362 1.463 . S
C4359 C4364 1.350 . S
C4359 N4367 1.427 . S
C4360 H4351 0.930 . S
C4360 C4358 1.378 . S
C4360 C4361 1.367 . S
C4361 C4360 1.367 . S
C4361 C4363 1.433 . S
C4362 C4358 1.350 . S
C4362 C4359 1.463 . S
C4362 N4366 1.427 . S
C4363 H4353 0.929 . S
C4363 C4361 1.433 . S
C4363 N4366 1.384 . S
C4364 H4355 0.929 . S
C4364 C4356 1.378 . S
C4364 C4359 1.350 . S
C4365 H4352 0.929 . S
C4365 C4357 1.433 . S
C4365 N4367 1.384 . S
N4366 C4362 1.427 . S
N4366 C4363 1.384 . S
N4367 C4359 1.427 . S
N4367 C4365 1.384 . S
H4368 C4374 0.930 . S
H4369 C4378 0.930 . S
H4370 C4383 0.929 . S
H4371 C4381 0.929 . S
H4372 C4376 0.929 . S
H4373 C4382 0.929 . S
C4374 H4368 0.930 . S
C4374 C4375 1.367 . S
C4374 C4382 1.378 . S
C4375 C4374 1.367 . S
C4375 C4383 1.433 . S
C4376 H4372 0.929 . S
C4376 C4378 1.378 . S
C4376 C4380 1.350 . S
C4377 C4380 1.463 . S
C4377 C4382 1.350 . S
C4377 N4385 1.427 . S
C4378 H4369 0.930 . S
C4378 C4376 1.378 . S
C4378 C4379 1.367 . S
C4379 C4378 1.367 . S
C4379 C4381 1.433 . S
C4380 C4376 1.350 . S
C4380 C4377 1.463 . S
C4380 N4384 1.427 . S
C4381 H4371 0.929 . S
C4381 C4379 1.433 . S
C4381 N4384 1.384 . S
C4382 H4373 0.929 . S
C4382 C4374 1.378 . S
C4382 C4377 1.350 . S
C4383 H4370 0.929 . S
C4383 C4375 1.433 . S
C4383 N4385 1.384 . S
N4384 C4380 1.427 . S
N4384 C4381 1.384 . S
N4385 C4377 1.427 . S
N4385 C4383 1.384 . S
H4386 C4392 0.930 . S
H4387 C4396 0.930 . S
H4388 C4401 0.929 . S
H4389 C4399 0.929 . S
H4390 C4394 0.929 . S
H4391 C4400 0.929 . S
C4392 H4386 0.930 . S
C4392 C4393 1.367 . S
C4392 C4400 1.378 . S
C4393 C4392 1.367 . S
C4393 C4401 1.433 . S
C4394 H4390 0.929 . S
C4394 C4396 1.378 . S
C4394 C4398 1.350 . S
C4395 C4398 1.463 . S
C4395 C4400 1.350 . S
C4395 N4403 1.427 . S
C4396 H4387 0.930 . S
C4396 C4394 1.378 . S
C4396 C4397 1.367 . S
C4397 C4396 1.367 . S
C4397 C4399 1.433 . S
C4398 C4394 1.350 . S
C4398 C4395 1.463 . S
C4398 N4402 1.427 . S
C4399 H4389 0.929 . S
C4399 C4397 1.433 . S
C4399 N4402 1.384 . S
C4400 H4391 0.929 . S
C4400 C4392 1.378 . S
C4400 C4395 1.350 . S
C4401 H4388 0.929 . S
C4401 C4393 1.433 . S
C4401 N4403 1.384 . S
N4402 C4398 1.427 . S
N4402 C4399 1.384 . S
N4403 C4395 1.427 . S
N4403 C4401 1.384 . S
H4404 C4410 0.930 . S
H4405 C4414 0.930 . S
H4406 C4419 0.929 . S
H4407 C4417 0.929 . S
H4408 C4412 0.929 . S
H4409 C4418 0.929 . S
C4410 H4404 0.930 . S
C4410 C4411 1.367 . S
C4410 C4418 1.378 . S
C4411 C4410 1.367 . S
C4411 C4419 1.433 . S
C4412 H4408 0.929 . S
C4412 C4414 1.378 . S
C4412 C4416 1.350 . S
C4413 C4416 1.463 . S
C4413 C4418 1.350 . S
C4413 N4421 1.427 . S
C4414 H4405 0.930 . S
C4414 C4412 1.378 . S
C4414 C4415 1.367 . S
C4415 C4414 1.367 . S
C4415 C4417 1.433 . S
C4416 C4412 1.350 . S
C4416 C4413 1.463 . S
C4416 N4420 1.427 . S
C4417 H4407 0.929 . S
C4417 C4415 1.433 . S
C4417 N4420 1.384 . S
C4418 H4409 0.929 . S
C4418 C4410 1.378 . S
C4418 C4413 1.350 . S
C4419 H4406 0.929 . S
C4419 C4411 1.433 . S
C4419 N4421 1.384 . S
N4420 C4416 1.427 . S
N4420 C4417 1.384 . S
N4421 C4413 1.427 . S
N4421 C4419 1.384 . S
H4422 C4428 0.930 . S
H4423 C4432 0.930 . S
H4424 C4437 0.929 . S
H4425 C4435 0.929 . S
H4426 C4430 0.929 . S
H4427 C4436 0.929 . S
C4428 H4422 0.930 . S
C4428 C4429 1.367 . S
C4428 C4436 1.378 . S
C4429 C4428 1.367 . S
C4429 C4437 1.433 . S
C4430 H4426 0.929 . S
C4430 C4432 1.378 . S
C4430 C4434 1.350 . S
C4431 C4434 1.463 . S
C4431 C4436 1.350 . S
C4431 N4439 1.427 . S
C4432 H4423 0.930 . S
C4432 C4430 1.378 . S
C4432 C4433 1.367 . S
C4433 C4432 1.367 . S
C4433 C4435 1.433 . S
C4434 C4430 1.350 . S
C4434 C4431 1.463 . S
C4434 N4438 1.427 . S
C4435 H4425 0.929 . S
C4435 C4433 1.433 . S
C4435 N4438 1.384 . S
C4436 H4427 0.929 . S
C4436 C4428 1.378 . S
C4436 C4431 1.350 . S
C4437 H4424 0.929 . S
C4437 C4429 1.433 . S
C4437 N4439 1.384 . S
N4438 C4434 1.427 . S
N4438 C4435 1.384 . S
N4439 C4431 1.427 . S
N4439 C4437 1.384 . S
H4440 C4446 0.930 . S
H4441 C4450 0.930 . S
H4442 C4455 0.929 . S
H4443 C4453 0.929 . S
H4444 C4448 0.929 . S
H4445 C4454 0.929 . S
C4446 H4440 0.930 . S
C4446 C4447 1.367 . S
C4446 C4454 1.378 . S
C4447 C4446 1.367 . S
C4447 C4455 1.433 . S
C4448 H4444 0.929 . S
C4448 C4450 1.378 . S
C4448 C4452 1.350 . S
C4449 C4452 1.463 . S
C4449 C4454 1.350 . S
C4449 N4457 1.427 . S
C4450 H4441 0.930 . S
C4450 C4448 1.378 . S
C4450 C4451 1.367 . S
C4451 C4450 1.367 . S
C4451 C4453 1.433 . S
C4452 C4448 1.350 . S
C4452 C4449 1.463 . S
C4452 N4456 1.427 . S
C4453 H4443 0.929 . S
C4453 C4451 1.433 . S
C4453 N4456 1.384 . S
C4454 H4445 0.929 . S
C4454 C4446 1.378 . S
C4454 C4449 1.350 . S
C4455 H4442 0.929 . S
C4455 C4447 1.433 . S
C4455 N4457 1.384 . S
N4456 C4452 1.427 . S
N4456 C4453 1.384 . S
N4457 C4449 1.427 . S
N4457 C4455 1.384 . S
H4458 C4464 0.930 . S
H4459 C4468 0.930 . S
H4460 C4473 0.929 . S
H4461 C4471 0.929 . S
H4462 C4466 0.929 . S
H4463 C4472 0.929 . S
C4464 H4458 0.930 . S
C4464 C4465 1.367 . S
C4464 C4472 1.378 . S
C4465 C4464 1.367 . S
C4465 C4473 1.433 . S
C4466 H4462 0.929 . S
C4466 C4468 1.378 . S
C4466 C4470 1.350 . S
C4467 C4470 1.463 . S
C4467 C4472 1.350 . S
C4467 N4475 1.427 . S
C4468 H4459 0.930 . S
C4468 C4466 1.378 . S
C4468 C4469 1.367 . S
C4469 C4468 1.367 . S
C4469 C4471 1.433 . S
C4470 C4466 1.350 . S
C4470 C4467 1.463 . S
C4470 N4474 1.427 . S
C4471 H4461 0.929 . S
C4471 C4469 1.433 . S
C4471 N4474 1.384 . S
C4472 H4463 0.929 . S
C4472 C4464 1.378 . S
C4472 C4467 1.350 . S
C4473 H4460 0.929 . S
C4473 C4465 1.433 . S
C4473 N4475 1.384 . S
N4474 C4470 1.427 . S
N4474 C4471 1.384 . S
N4475 C4467 1.427 . S
N4475 C4473 1.384 . S
H4476 C4482 0.930 . S
H4477 C4486 0.930 . S
H4478 C4491 0.929 . S
H4479 C4489 0.929 . S
H4480 C4484 0.929 . S
H4481 C4490 0.929 . S
C4482 H4476 0.930 . S
C4482 C4483 1.367 . S
C4482 C4490 1.378 . S
C4483 C4482 1.367 . S
C4483 C4491 1.433 . S
C4484 H4480 0.929 . S
C4484 C4486 1.378 . S
C4484 C4488 1.350 1_545 S
C4485 C4488 1.463 . S
C4485 C4490 1.350 . S
C4485 N4493 1.427 . S
C4486 H4477 0.930 . S
C4486 C4484 1.378 . S
C4486 C4487 1.367 . S
C4487 C4486 1.367 . S
C4487 C4489 1.433 . S
C4488 C4484 1.350 1_565 S
C4488 C4485 1.463 . S
C4488 N4492 1.427 . S
C4489 H4479 0.929 . S
C4489 C4487 1.433 . S
C4489 N4492 1.384 1_545 S
C4490 H4481 0.929 . S
C4490 C4482 1.378 . S
C4490 C4485 1.350 . S
C4491 H4478 0.929 . S
C4491 C4483 1.433 . S
C4491 N4493 1.384 . S
N4492 C4488 1.427 . S
N4492 C4489 1.384 1_565 S
N4493 C4485 1.427 . S
N4493 C4491 1.384 . S
H4494 C4500 0.930 . S
H4495 C4504 0.930 . S
H4496 C4509 0.929 . S
H4497 C4507 0.929 . S
H4498 C4502 0.929 . S
H4499 C4508 0.929 . S
C4500 H4494 0.930 . S
C4500 C4501 1.367 . S
C4500 C4508 1.378 . S
C4501 C4500 1.367 . S
C4501 C4509 1.433 . S
C4502 H4498 0.929 . S
C4502 C4504 1.378 . S
C4502 C4506 1.350 . S
C4503 C4506 1.463 . S
C4503 C4508 1.350 . S
C4503 N4511 1.427 . S
C4504 H4495 0.930 . S
C4504 C4502 1.378 . S
C4504 C4505 1.367 . S
C4505 C4504 1.367 . S
C4505 C4507 1.433 . S
C4506 C4502 1.350 . S
C4506 C4503 1.463 . S
C4506 N4510 1.427 . S
C4507 H4497 0.929 . S
C4507 C4505 1.433 . S
C4507 N4510 1.384 . S
C4508 H4499 0.929 . S
C4508 C4500 1.378 . S
C4508 C4503 1.350 . S
C4509 H4496 0.929 . S
C4509 C4501 1.433 . S
C4509 N4511 1.384 . S
N4510 C4506 1.427 . S
N4510 C4507 1.384 . S
N4511 C4503 1.427 . S
N4511 C4509 1.384 . S
C1927 C15 2.556 . S
C1931 C178 2.776 . S
C1945 C50 1.547 . S
C1949 C218 1.622 . S
C1963 C255 2.180 . S
C1967 C98 2.270 . S
C1981 C298 2.506 . S
C1985 C135 2.223 . S
C1999 C329 2.249 . S
C2003 C378 2.554 . S
C2017 C375 1.472 . S
C2021 C418 1.719 . S
C2035 C455 1.253 . S
C2039 C415 1.275 . S
C2053 C458 2.467 . S
C2057 C330 2.386 1_565 S
C2071 C489 1.723 . S
C2075 C138 2.009 . S
C2089 C295 1.520 1_455 S
C2093 C1335 1.372 . S
C2107 C175 2.561 . S
C2111 C538 2.860 . S
C2125 C215 1.405 . S
C2129 C1375 1.521 . S
C2143 C49 1.757 . S
C2147 C578 1.948 . S
C2161 C1255 1.728 . S
C2165 C18 1.857 . S
C2179 C1218 1.839 . S
C2183 C95 1.694 . S
C2197 C769 3.250 . S
C2201 C606 2.902 1_455 S
C2215 C659 1.990 . S
C2219 C809 2.051 . S
C2233 C689 1.784 . S
C2237 C846 1.719 . S
C2251 C726 2.496 . S
C2255 C889 2.832 . S
C2269 C969 2.440 . S
C2273 C938 2.219 . S
C2287 C966 1.900 . S
C2291 C1009 2.178 . S
C2305 C1049 2.242 . S
C2309 C1006 2.073 . S
C2323 C939 1.185 . S
C2327 C1046 1.201 . S
C2341 C729 1.948 . S
C2345 C1098 1.755 . S
C2359 C1686 1.400 . S
C2363 C886 1.530 1_655 S
C2377 C1129 2.601 . S
C2381 C766 2.318 . S
C2395 C806 1.378 . S
C2399 C1726 1.521 . S
C2413 C1169 2.014 . S
C2417 C658 1.730 . S
C2431 C609 1.831 . S
C2435 C1606 1.691 . S
C2449 C686 1.711 . S
C2453 C1569 1.856 . S
C2467 C1298 3.253 . S
C2471 C1215 2.905 . S
C2485 C1338 2.066 . S
C2489 C490 1.991 1_556 S
C2503 C1258 1.766 . S
C2507 C535 1.709 . S
C2521 C1378 2.841 . S
C2525 C575 2.507 . S
C2539 C1409 2.220 1_554 S
C2543 C1458 2.440 . S
C2557 C1455 1.912 . S
C2561 C1498 2.196 . S
C2575 C1538 2.232 . S
C2579 C1495 2.063 . S
C2593 C1410 1.174 . S
C2597 C1535 1.193 . S
C2611 C258 2.629 . S
C2615 C1295 2.334 . S
C2629 C1649 2.784 . S
C2633 C1566 2.564 . S
C2647 C1689 1.635 . S
C2651 C1099 1.566 . S
C2665 C1126 2.166 . S
C2669 C1609 2.260 . S
C2683 C1729 2.516 . S
C2687 C1166 2.241 . S
C2701 C1778 2.255 . S
C2705 C1809 2.552 . S
C2719 C1806 1.471 . S
C2723 C1849 1.728 . S
C2737 C1846 1.261 . S
C2741 C1886 1.241 . S
C2755 C1889 2.466 . S
C2759 C1779 2.393 . S
C2773 C1646 2.598 . S
C2777 C849 2.899 . S
C2791 C6 0.207 . S
C2795 C646 0.199 . S
C2809 C1610 2.426 1_655 S
C2813 C59 2.436 . S
C2827 C89 1.685 . S
C2831 C739 1.827 . S
C2845 C126 1.963 . S
C2849 C1579 2.011 . S
C2863 C169 1.803 . S
C2867 C890 1.765 . S
C2881 C209 1.084 . S
C2885 C1650 1.015 . S
C2899 C246 1.932 . S
C2903 C810 2.010 . S
C2917 C1139 1.798 . S
C2921 C289 1.885 . S
C2935 C338 2.337 . S
C2939 C1570 2.192 . S
C2953 C366 1.008 . S
C2957 C655 0.954 . S
C2971 C406 0.687 . S
C2975 C1619 0.682 . S
C2989 C730 2.255 1_554 S
C2993 C449 2.292 . S
C3007 C1659 0.975 . S
C3011 C446 0.964 . S
C3025 C819 2.162 . S
C3029 C339 2.094 . S
C3043 C369 1.243 . S
C3047 C1130 1.259 . S
C3061 C899 1.080 . S
C3065 C409 1.193 . S
C3079 C1766 0.980 . S
C3083 C498 0.984 . S
C3097 C1059 0.913 . S
C3101 C286 0.914 . S
C3115 C166 0.314 . S
C3119 C1775 0.384 . S
C3133 C206 1.220 . S
C3137 C979 1.254 . S
C3151 C529 1.454 . S
C3155 C1019 1.547 . S
C3169 C1850 1.736 . S
C3173 C569 1.734 . S
C3187 C9 1.058 . S
C3191 C1899 1.083 . S
C3205 C86 0.964 . S
C3209 C1810 0.970 . S
C3223 C55 0.106 . S
C3227 C615 0.133 . S
C3241 C650 2.918 . S
C3245 C1259 2.876 . S
C3259 C698 1.166 . S
C3263 C130 1.304 . S
C3277 C735 2.038 . S
C3281 C1210 2.081 . S
C3295 C299 1.347 . S
C3299 C778 1.321 . S
C3313 C1299 1.925 . S
C3317 C818 1.974 . S
C3331 C219 1.856 . S
C3335 C855 1.746 . S
C3349 C898 1.320 . S
C3353 C530 1.214 . S
C3367 C929 2.509 . S
C3371 C1219 2.434 . S
C3385 C46 1.324 . S
C3389 C975 1.428 . S
C3403 C1015 1.233 . S
C3407 C1250 1.275 . S
C3421 C139 0.845 . S
C3425 C1055 0.836 . S
C3439 C1290 1.895 . S
C3443 C1058 1.824 . S
C3457 C930 1.296 . S
C3461 C210 1.321 . S
C3475 C978 0.980 . S
C3479 C539 0.985 . S
C3493 C290 0.689 . S
C3497 C1018 0.698 . S
C3511 C1089 0.692 . S
C3515 C1415 0.701 . S
C3529 C459 1.622 . S
C3533 C895 1.538 . S
C3547 C1406 0.276 . S
C3551 C775 0.324 . S
C3565 C815 1.212 . S
C3569 C370 1.250 . S
C3583 C1138 1.440 . S
C3587 C410 1.471 . S
C3601 C1499 0.919 . S
C3605 C1178 0.914 . S
C3619 C618 0.933 . S
C3623 C1539 0.956 . S
C3637 C1459 1.059 . S
C3641 C695 1.059 . S
C3655 C1086 0.118 . S
C3659 C1206 0.161 . S
C3673 C499 2.920 . S
C3677 C690 2.885 . S
C3691 C1179 1.311 . S
C3695 C1249 1.167 . S
C3709 C566 2.052 . S
C3713 C619 2.093 . S
C3727 C1289 1.358 . S
C3731 C1730 1.402 . S
C3745 C770 1.968 . S
C3749 C1329 2.039 . S
C3763 C526 1.744 . S
C3767 C1690 1.851 . S
C3781 C859 1.214 . S
C3785 C1369 1.310 . S
C3799 C1418 2.516 . S
C3803 C610 2.446 . S
C3817 C1446 1.431 . S
C3821 C1095 1.314 . S
C3835 C1486 1.219 . S
C3839 C699 1.261 . S
C3853 C1170 0.854 . S
C3857 C1526 0.854 . S
C3871 C779 1.874 . S
C3875 C1529 1.812 . S
C3889 C1419 1.300 . S
C3893 C1699 1.326 . S
C3907 C850 0.965 . S
C3911 C1449 0.960 . S
C3925 C1489 0.704 . S
C3929 C1739 0.707 . S
C3943 C58 0.713 . S
C3947 C926 0.718 . S
C3961 C1890 1.603 . S
C3965 C1366 1.515 . S
C3979 C1286 0.306 . S
C3983 C935 0.264 . S
C3997 C1326 1.220 . S
C4001 C1819 1.257 . S
C4015 C1859 1.457 . S
C4019 C249 1.430 . S
C4033 C1010 0.901 . S
C4037 C129 0.904 . S
C4051 C1209 0.921 . S
C4055 C1050 0.951 . S
C4069 C970 1.064 . S
C4073 C1246 1.059 . S
C4087 C495 0.222 . S
C4091 C1575 0.205 . S
C4105 C1090 2.444 . S
C4109 C99 2.426 . S
C4123 C570 1.833 . S
C4127 C1618 1.699 . S
C4141 C1175 1.984 . S
C4145 C10 2.027 . S
C4159 C1658 1.849 . S
C4163 C1379 1.809 . S
C4177 C179 1.043 . S
C4181 C1698 1.146 . S
C4195 C1339 1.995 . S
C4199 C1135 1.912 . S
C4213 C250 1.801 . S
C4217 C1738 1.872 . S
C4231 C19 2.201 . S
C4235 C1769 2.341 . S
C4249 C1815 1.009 . S
C4253 C486 0.959 . S
C4267 C90 0.688 . S
C4271 C1855 0.689 . S
C4285 C579 2.248 . S
C4289 C1898 2.293 . S
C4303 C170 0.957 . S
C4307 C1895 0.939 . S
C4321 C1330 2.167 . S
C4325 C1770 2.101 . S
C4339 C1818 1.235 . S
C4343 C259 1.272 . S
C4357 C1370 1.112 . S
C4361 C1858 1.193 . S
C4375 C335 0.988 . S
C4379 C649 0.997 . S
C4393 C1735 0.884 . S
C4397 C1530 0.875 . S
C4411 C1655 0.278 . S
C4415 C326 0.339 . S
C4429 C1450 1.266 . S
C4433 C1695 1.232 . S
C4447 C858 1.442 . S
C4451 C1490 1.527 . S
C4465 C738 1.733 . S
C4469 C419 1.746 . S
C4483 C450 1.081 . S
C4487 C1578 1.030 . S
C4501 C379 0.967 . S
C4505 C1615 0.976 . S
