# Generated by pormake.
# Topology sin, (3)-cn, num edge types: 1
# Building blocks:
#     Node 0, Type 0, BuildingBlock: WUSLED_clean_sbu_0, # of connection points: 3
#     Node 1, Type 0, BuildingBlock: WUSLED_clean_sbu_0, # of connection points: 3
#     Node 2, Type 0, BuildingBlock: WUSLED_clean_sbu_0, # of connection points: 3
#     Node 3, Type 0, BuildingBlock: WUSLED_clean_sbu_0, # of connection points: 3
#     Node 4, Type 0, BuildingBlock: WUSLED_clean_sbu_0, # of connection points: 3
#     Node 5, Type 0, BuildingBlock: WUSLED_clean_sbu_0, # of connection points: 3
#     Node 6, Type 0, BuildingBlock: WUSLED_clean_sbu_0, # of connection points: 3
#     Node 7, Type 0, BuildingBlock: WUSLED_clean_sbu_0, # of connection points: 3
#     Node 8, Type 0, BuildingBlock: WUSLED_clean_sbu_0, # of connection points: 3
#     Node 9, Type 0, BuildingBlock: WUSLED_clean_sbu_0, # of connection points: 3
#     Node 10, Type 0, BuildingBlock: WUSLED_clean_sbu_0, # of connection points: 3
#     Node 11, Type 0, BuildingBlock: WUSLED_clean_sbu_0, # of connection points: 3
#     Node 12, Type 0, BuildingBlock: WUSLED_clean_sbu_0, # of connection points: 3
#     Node 13, Type 0, BuildingBlock: WUSLED_clean_sbu_0, # of connection points: 3
#     Node 14, Type 0, BuildingBlock: WUSLED_clean_sbu_0, # of connection points: 3
#     Node 15, Type 0, BuildingBlock: WUSLED_clean_sbu_0, # of connection points: 3
#     Node 16, Type 0, BuildingBlock: WUSLED_clean_sbu_0, # of connection points: 3
#     Node 17, Type 0, BuildingBlock: WUSLED_clean_sbu_0, # of connection points: 3
#     Node 18, Type 0, BuildingBlock: WUSLED_clean_sbu_0, # of connection points: 3
#     Node 19, Type 0, BuildingBlock: WUSLED_clean_sbu_0, # of connection points: 3
#     Node 20, Type 0, BuildingBlock: WUSLED_clean_sbu_0, # of connection points: 3
#     Node 21, Type 0, BuildingBlock: WUSLED_clean_sbu_0, # of connection points: 3
#     Node 22, Type 0, BuildingBlock: WUSLED_clean_sbu_0, # of connection points: 3
#     Node 23, Type 0, BuildingBlock: WUSLED_clean_sbu_0, # of connection points: 3
#     Node 24, Type 0, BuildingBlock: WUSLED_clean_sbu_0, # of connection points: 3
#     Node 25, Type 0, BuildingBlock: WUSLED_clean_sbu_0, # of connection points: 3
#     Node 26, Type 0, BuildingBlock: WUSLED_clean_sbu_0, # of connection points: 3
#     Node 27, Type 0, BuildingBlock: WUSLED_clean_sbu_0, # of connection points: 3
#     Node 28, Type 0, BuildingBlock: WUSLED_clean_sbu_0, # of connection points: 3
#     Node 29, Type 0, BuildingBlock: WUSLED_clean_sbu_0, # of connection points: 3
#     Node 30, Type 0, BuildingBlock: WUSLED_clean_sbu_0, # of connection points: 3
#     Node 31, Type 0, BuildingBlock: WUSLED_clean_sbu_0, # of connection points: 3
#     Node 32, Type 0, BuildingBlock: WUSLED_clean_sbu_0, # of connection points: 3
#     Node 33, Type 0, BuildingBlock: WUSLED_clean_sbu_0, # of connection points: 3
#     Node 34, Type 0, BuildingBlock: WUSLED_clean_sbu_0, # of connection points: 3
#     Node 35, Type 0, BuildingBlock: WUSLED_clean_sbu_0, # of connection points: 3
#     Node 36, Type 0, BuildingBlock: WUSLED_clean_sbu_0, # of connection points: 3
#     Node 37, Type 0, BuildingBlock: WUSLED_clean_sbu_0, # of connection points: 3
#     Node 38, Type 0, BuildingBlock: WUSLED_clean_sbu_0, # of connection points: 3
#     Node 39, Type 0, BuildingBlock: WUSLED_clean_sbu_0, # of connection points: 3
#     Node 40, Type 0, BuildingBlock: WUSLED_clean_sbu_0, # of connection points: 3
#     Node 41, Type 0, BuildingBlock: WUSLED_clean_sbu_0, # of connection points: 3
#     Node 42, Type 0, BuildingBlock: WUSLED_clean_sbu_0, # of connection points: 3
#     Node 43, Type 0, BuildingBlock: WUSLED_clean_sbu_0, # of connection points: 3
#     Node 44, Type 0, BuildingBlock: WUSLED_clean_sbu_0, # of connection points: 3
#     Node 45, Type 0, BuildingBlock: WUSLED_clean_sbu_0, # of connection points: 3
#     Node 46, Type 0, BuildingBlock: WUSLED_clean_sbu_0, # of connection points: 3
#     Node 47, Type 0, BuildingBlock: WUSLED_clean_sbu_0, # of connection points: 3
#     Edge 48, Type (0, 0), BuildingBlock: ZUJKAS_clean_linker_0, # of connection points: 2
#     Edge 49, Type (0, 0), BuildingBlock: ZUJKAS_clean_linker_0, # of connection points: 2
#     Edge 50, Type (0, 0), BuildingBlock: ZUJKAS_clean_linker_0, # of connection points: 2
#     Edge 51, Type (0, 0), BuildingBlock: ZUJKAS_clean_linker_0, # of connection points: 2
#     Edge 52, Type (0, 0), BuildingBlock: ZUJKAS_clean_linker_0, # of connection points: 2
#     Edge 53, Type (0, 0), BuildingBlock: ZUJKAS_clean_linker_0, # of connection points: 2
#     Edge 54, Type (0, 0), BuildingBlock: ZUJKAS_clean_linker_0, # of connection points: 2
#     Edge 55, Type (0, 0), BuildingBlock: ZUJKAS_clean_linker_0, # of connection points: 2
#     Edge 56, Type (0, 0), BuildingBlock: ZUJKAS_clean_linker_0, # of connection points: 2
#     Edge 57, Type (0, 0), BuildingBlock: ZUJKAS_clean_linker_0, # of connection points: 2
#     Edge 58, Type (0, 0), BuildingBlock: ZUJKAS_clean_linker_0, # of connection points: 2
#     Edge 59, Type (0, 0), BuildingBlock: ZUJKAS_clean_linker_0, # of connection points: 2
#     Edge 60, Type (0, 0), BuildingBlock: ZUJKAS_clean_linker_0, # of connection points: 2
#     Edge 61, Type (0, 0), BuildingBlock: ZUJKAS_clean_linker_0, # of connection points: 2
#     Edge 62, Type (0, 0), BuildingBlock: ZUJKAS_clean_linker_0, # of connection points: 2
#     Edge 63, Type (0, 0), BuildingBlock: ZUJKAS_clean_linker_0, # of connection points: 2
#     Edge 64, Type (0, 0), BuildingBlock: ZUJKAS_clean_linker_0, # of connection points: 2
#     Edge 65, Type (0, 0), BuildingBlock: ZUJKAS_clean_linker_0, # of connection points: 2
#     Edge 66, Type (0, 0), BuildingBlock: ZUJKAS_clean_linker_0, # of connection points: 2
#     Edge 67, Type (0, 0), BuildingBlock: ZUJKAS_clean_linker_0, # of connection points: 2
#     Edge 68, Type (0, 0), BuildingBlock: ZUJKAS_clean_linker_0, # of connection points: 2
#     Edge 69, Type (0, 0), BuildingBlock: ZUJKAS_clean_linker_0, # of connection points: 2
#     Edge 70, Type (0, 0), BuildingBlock: ZUJKAS_clean_linker_0, # of connection points: 2
#     Edge 71, Type (0, 0), BuildingBlock: ZUJKAS_clean_linker_0, # of connection points: 2
#     Edge 72, Type (0, 0), BuildingBlock: ZUJKAS_clean_linker_0, # of connection points: 2
#     Edge 73, Type (0, 0), BuildingBlock: ZUJKAS_clean_linker_0, # of connection points: 2
#     Edge 74, Type (0, 0), BuildingBlock: ZUJKAS_clean_linker_0, # of connection points: 2
#     Edge 75, Type (0, 0), BuildingBlock: ZUJKAS_clean_linker_0, # of connection points: 2
#     Edge 76, Type (0, 0), BuildingBlock: ZUJKAS_clean_linker_0, # of connection points: 2
#     Edge 77, Type (0, 0), BuildingBlock: ZUJKAS_clean_linker_0, # of connection points: 2
#     Edge 78, Type (0, 0), BuildingBlock: ZUJKAS_clean_linker_0, # of connection points: 2
#     Edge 79, Type (0, 0), BuildingBlock: ZUJKAS_clean_linker_0, # of connection points: 2
#     Edge 80, Type (0, 0), BuildingBlock: ZUJKAS_clean_linker_0, # of connection points: 2
#     Edge 81, Type (0, 0), BuildingBlock: ZUJKAS_clean_linker_0, # of connection points: 2
#     Edge 82, Type (0, 0), BuildingBlock: ZUJKAS_clean_linker_0, # of connection points: 2
#     Edge 83, Type (0, 0), BuildingBlock: ZUJKAS_clean_linker_0, # of connection points: 2
#     Edge 84, Type (0, 0), BuildingBlock: ZUJKAS_clean_linker_0, # of connection points: 2
#     Edge 85, Type (0, 0), BuildingBlock: ZUJKAS_clean_linker_0, # of connection points: 2
#     Edge 86, Type (0, 0), BuildingBlock: ZUJKAS_clean_linker_0, # of connection points: 2
#     Edge 87, Type (0, 0), BuildingBlock: ZUJKAS_clean_linker_0, # of connection points: 2
#     Edge 88, Type (0, 0), BuildingBlock: ZUJKAS_clean_linker_0, # of connection points: 2
#     Edge 89, Type (0, 0), BuildingBlock: ZUJKAS_clean_linker_0, # of connection points: 2
#     Edge 90, Type (0, 0), BuildingBlock: ZUJKAS_clean_linker_0, # of connection points: 2
#     Edge 91, Type (0, 0), BuildingBlock: ZUJKAS_clean_linker_0, # of connection points: 2
#     Edge 92, Type (0, 0), BuildingBlock: ZUJKAS_clean_linker_0, # of connection points: 2
#     Edge 93, Type (0, 0), BuildingBlock: ZUJKAS_clean_linker_0, # of connection points: 2
#     Edge 94, Type (0, 0), BuildingBlock: ZUJKAS_clean_linker_0, # of connection points: 2
#     Edge 95, Type (0, 0), BuildingBlock: ZUJKAS_clean_linker_0, # of connection points: 2
#     Edge 96, Type (0, 0), BuildingBlock: ZUJKAS_clean_linker_0, # of connection points: 2
#     Edge 97, Type (0, 0), BuildingBlock: ZUJKAS_clean_linker_0, # of connection points: 2
#     Edge 98, Type (0, 0), BuildingBlock: ZUJKAS_clean_linker_0, # of connection points: 2
#     Edge 99, Type (0, 0), BuildingBlock: ZUJKAS_clean_linker_0, # of connection points: 2
#     Edge 100, Type (0, 0), BuildingBlock: ZUJKAS_clean_linker_0, # of connection points: 2
#     Edge 101, Type (0, 0), BuildingBlock: ZUJKAS_clean_linker_0, # of connection points: 2
#     Edge 102, Type (0, 0), BuildingBlock: ZUJKAS_clean_linker_0, # of connection points: 2
#     Edge 103, Type (0, 0), BuildingBlock: ZUJKAS_clean_linker_0, # of connection points: 2
#     Edge 104, Type (0, 0), BuildingBlock: ZUJKAS_clean_linker_0, # of connection points: 2
#     Edge 105, Type (0, 0), BuildingBlock: ZUJKAS_clean_linker_0, # of connection points: 2
#     Edge 106, Type (0, 0), BuildingBlock: ZUJKAS_clean_linker_0, # of connection points: 2
#     Edge 107, Type (0, 0), BuildingBlock: ZUJKAS_clean_linker_0, # of connection points: 2
#     Edge 108, Type (0, 0), BuildingBlock: ZUJKAS_clean_linker_0, # of connection points: 2
#     Edge 109, Type (0, 0), BuildingBlock: ZUJKAS_clean_linker_0, # of connection points: 2
#     Edge 110, Type (0, 0), BuildingBlock: ZUJKAS_clean_linker_0, # of connection points: 2
#     Edge 111, Type (0, 0), BuildingBlock: ZUJKAS_clean_linker_0, # of connection points: 2
#     Edge 112, Type (0, 0), BuildingBlock: ZUJKAS_clean_linker_0, # of connection points: 2
#     Edge 113, Type (0, 0), BuildingBlock: ZUJKAS_clean_linker_0, # of connection points: 2
#     Edge 114, Type (0, 0), BuildingBlock: ZUJKAS_clean_linker_0, # of connection points: 2
#     Edge 115, Type (0, 0), BuildingBlock: ZUJKAS_clean_linker_0, # of connection points: 2
#     Edge 116, Type (0, 0), BuildingBlock: ZUJKAS_clean_linker_0, # of connection points: 2
#     Edge 117, Type (0, 0), BuildingBlock: ZUJKAS_clean_linker_0, # of connection points: 2
#     Edge 118, Type (0, 0), BuildingBlock: ZUJKAS_clean_linker_0, # of connection points: 2
#     Edge 119, Type (0, 0), BuildingBlock: ZUJKAS_clean_linker_0, # of connection points: 2
# Relax obj value: 0.180
# Max RMSD: 0.137
# Mean RMSD: 0.113
data_MOF--net-sin--node1-WUSLED_clean_sbu_0--edge1-ZUJKAS_clean_linker_0
_symmetry_space_group_name_H-M    P1
_symmetry_Int_Tables_number       1
_symmetry_cell_setting            triclinic
loop_
_symmetry_equiv_pos_as_xyz
'x, y, z'
_cell_length_a     113.32469
_cell_length_b     113.37012
_cell_length_c     113.42028
_cell_angle_alpha  91.094065
_cell_angle_beta   91.059414
_cell_angle_gamma 91.030482
loop_
_atom_site_label
_atom_site_type_symbol
_atom_site_fract_x
_atom_site_fract_y
_atom_site_fract_z
_atom_type_partial_charge
C0 C 0.03571 0.49927 0.53915 0.0
C1 C 0.04497 0.49123 0.53989 0.0
C2 C 0.05877 0.50672 0.53391 0.0
C3 C 0.05652 0.495 0.53741 0.0
C4 C 0.04937 0.5146 0.53345 0.0
C5 C 0.03807 0.51095 0.5362 0.0
U6 U 1.00052 0.48029 0.53939 0.0
O7 O 0.98477 0.48587 0.52933 0.0
O8 O 0.98449 0.48556 0.5489 0.0
C9 C 0.97877 0.48765 0.53898 0.0
C10 C 0.02322 0.4961 0.54 0.0
C11 C 0.96762 0.49425 0.53876 0.0
C12 C 0.95582 0.5121 0.53813 0.0
C13 C 0.96695 0.50665 0.5383 0.0
C14 C 0.9462 0.49289 0.53884 0.0
C15 C 0.94536 0.5052 0.53852 0.0
C16 C 0.95717 0.48752 0.53892 0.0
C17 C 1.00373 0.44502 0.53699 0.0
C18 C 0.99133 0.42734 0.53781 0.0
C19 C 0.01747 0.42569 0.53274 0.0
C20 C 0.01888 0.43791 0.5341 0.0
C21 C 1.00083 0.42006 0.53446 0.0
C22 C 0.99273 0.43966 0.53892 0.0
C23 C 0.01158 0.45787 0.53803 0.0
O24 O 0.01797 0.49229 0.53021 0.0
O25 O 0.01932 0.49111 0.54959 0.0
O26 O 1.00394 0.46339 0.54807 0.0
O27 O 1.00434 0.46438 0.52869 0.0
H28 H 0.04324 0.48212 0.54211 0.0
H29 H 0.06358 0.48873 0.53804 0.0
H30 H 0.05053 0.52354 0.53047 0.0
H31 H 0.03098 0.51721 0.53547 0.0
H32 H 0.95537 0.52163 0.53789 0.0
H33 H 0.97493 0.51204 0.53813 0.0
H34 H 0.9383 0.48738 0.53906 0.0
H35 H 0.95747 0.47798 0.53917 0.0
H36 H 0.98273 0.42369 0.53972 0.0
H37 H 0.02511 0.42087 0.53003 0.0
H38 H 0.0275 0.44188 0.5327 0.0
H39 H 0.98526 0.44497 0.54132 0.0
C40 C 0.04797 0.97003 0.19807 0.0
C41 C 0.05296 0.96109 0.19106 0.0
C42 C 0.07156 0.9726 0.18955 0.0
C43 C 0.06464 0.96235 0.1869 0.0
C44 C 0.06635 0.98165 0.19618 0.0
C45 C 0.05478 0.98035 0.20039 0.0
U46 U 0.01545 0.95858 0.20783 0.0
O47 O 1.00373 0.95928 0.22621 0.0
O48 O 0.99524 0.97043 0.21291 0.0
C49 C 0.99525 0.96665 0.2238 0.0
C50 C 0.0362 0.96889 0.20393 0.0
C51 C 0.98988 0.97356 0.23354 0.0
C52 C 0.99128 0.98777 0.24991 0.0
C53 C 0.99584 0.98293 0.23946 0.0
C54 C 0.97435 0.97451 0.24824 0.0
C55 C 0.98074 0.98328 0.25471 0.0
C56 C 0.97891 0.9697 0.2378 0.0
C57 C 0.99798 0.92829 0.19109 0.0
C58 C 0.9848 0.91105 0.19162 0.0
C59 C 0.99957 0.91241 0.17654 0.0
C60 C 1.00325 0.92341 0.18111 0.0
C61 C 0.99049 0.90593 0.18186 0.0
C62 C 0.98853 0.92217 0.19622 0.0
C63 C 1.00334 0.93925 0.19625 0.0
O64 O 0.02646 0.97142 0.19809 0.0
O65 O 0.0346 0.96059 0.21171 0.0
O66 O 0.01481 0.93914 0.20635 0.0
O67 O 1.00079 0.94978 0.19239 0.0
H68 H 0.04798 0.95303 0.18905 0.0
H69 H 0.06836 0.95521 0.18179 0.0
H70 H 0.07139 0.98959 0.1985 0.0
H71 H 0.05125 0.98737 0.20581 0.0
H72 H 0.99632 0.99466 0.25458 0.0
H73 H 1.00426 0.98613 0.23633 0.0
H74 H 0.96625 0.97082 0.25164 0.0
H75 H 0.97413 0.96248 0.23337 0.0
H76 H 0.97771 0.90632 0.19587 0.0
H77 H 1.0043 0.9087 0.16918 0.0
H78 H 0.0162 0.92795 0.17706 0.0
H79 H 0.98428 0.9258 0.20393 0.0
C80 C 0.68597 0.73434 0.016 0.0
C81 C 0.67679 0.7424 0.01636 0.0
C82 C 0.66208 0.72609 0.01484 0.0
C83 C 0.66498 0.73834 0.01587 0.0
C84 C 0.67162 0.71822 0.01473 0.0
C85 C 0.68328 0.72229 0.01534 0.0
U86 U 0.71689 0.75201 0.0145 0.0
O87 O 0.73258 0.74596 0.02446 0.0
O88 O 0.7313 0.74369 0.99954 0.0
C89 C 0.73749 0.74217 0.01472 0.0
C90 C 0.69853 0.73776 0.01594 0.0
C91 C 0.74938 0.73726 0.01464 0.0
C92 C 0.76233 0.72061 0.01722 0.0
C93 C 0.75103 0.7254 0.01743 0.0
C94 C 0.77037 0.7395 0.0113 0.0
C95 C 0.77211 0.72762 0.01414 0.0
C96 C 0.75909 0.74428 0.01155 0.0
C97 C 0.71438 0.7875 0.01038 0.0
C98 C 0.72358 0.80598 1.00122 0.0
C99 C 0.70231 0.80446 1.002 0.0
C100 C 0.7031 0.79244 1.0043 0.0
C101 C 0.7125 0.81156 1.00011 0.0
C102 C 0.72432 0.79393 1.00368 0.0
C103 C 0.71484 0.77467 0.01189 0.0
O104 O 0.7029 0.74025 1.00054 0.0
O105 O 0.70339 0.74317 0.02522 0.0
O106 O 0.71587 0.76996 0.02236 0.0
O107 O 0.71462 0.76687 0.99751 0.0
H108 H 0.67872 0.75179 0.01694 0.0
H109 H 0.65834 0.745 0.01627 0.0
H110 H 0.67046 0.7088 0.01397 0.0
H111 H 0.69029 0.71592 0.01509 0.0
H112 H 0.7634 0.71141 0.01933 0.0
H113 H 0.74358 0.71983 0.01971 0.0
H114 H 0.77745 0.74473 1.00368 0.0
H115 H 0.75762 0.75305 1.00403 0.0
H116 H 0.73182 0.81063 0.99998 0.0
H117 H 0.69352 0.80788 1.00174 0.0
H118 H 0.69539 0.78768 0.01071 0.0
H119 H 0.7329 0.7899 1.00426 0.0
C120 C 0.61541 0.19114 0.75717 0.0
C121 C 0.61512 0.19917 0.74789 0.0
C122 C 0.5939 0.19551 0.74516 0.0
C123 C 0.60441 0.20128 0.74186 0.0
C124 C 0.59431 0.18734 0.75427 0.0
C125 C 0.60497 0.18513 0.76014 0.0
U126 U 0.64857 0.19211 0.77019 0.0
O127 O 0.65242 0.19183 0.78936 0.0
O128 O 0.65713 0.17656 0.77804 0.0
C129 C 0.65741 0.18149 0.78863 0.0
C130 C 0.62608 0.18899 0.76447 0.0
C131 C 0.66021 0.17473 0.79937 0.0
C132 C 0.65459 0.16293 0.81622 0.0
C133 C 0.65172 0.16811 0.80535 0.0
C134 C 0.67447 0.17081 0.81513 0.0
C135 C 0.66594 0.16452 0.82158 0.0
C136 C 0.67165 0.17573 0.80421 0.0
C137 C 0.66989 0.21405 0.75138 0.0
C138 C 0.68767 0.22612 0.74883 0.0
C139 C 0.67188 0.22639 0.7342 0.0
C140 C 0.66537 0.21822 0.74071 0.0
C141 C 0.68303 0.23072 0.73829 0.0
C142 C 0.68117 0.21789 0.75528 0.0
C143 C 0.66287 0.20602 0.75875 0.0
O144 O 0.63447 0.18248 0.76005 0.0
O145 O 0.63002 0.19747 0.77164 0.0
O146 O 0.6565 0.20989 0.76752 0.0
O147 O 0.66104 0.19488 0.75569 0.0
H148 H 0.62306 0.20393 0.74547 0.0
H149 H 0.60424 0.20772 0.73493 0.0
H150 H 0.58633 0.18284 0.75699 0.0
H151 H 0.605 0.1789 0.76727 0.0
H152 H 0.64776 0.15784 0.82041 0.0
H153 H 0.64284 0.16711 0.80174 0.0
H154 H 0.68327 0.17253 0.81863 0.0
H155 H 0.67837 0.18078 0.79974 0.0
H156 H 0.69611 0.2292 0.75241 0.0
H157 H 0.66806 0.22939 0.726 0.0
H158 H 0.65672 0.2153 0.73749 0.0
H159 H 0.68485 0.21472 0.76349 0.0
C160 C 0.03872 0.70664 0.14685 0.0
C161 C 0.04747 0.71554 0.14606 0.0
C162 C 0.0627 0.70111 0.15014 0.0
C163 C 0.05945 0.71274 0.14765 0.0
C164 C 0.05396 0.69228 0.15066 0.0
C165 C 0.04211 0.69503 0.14897 0.0
U166 U 1.00155 0.72216 0.14601 0.0
O167 O 0.98598 0.71408 0.13657 0.0
O168 O 0.98673 0.71462 0.15613 0.0
C169 C 0.98099 0.7111 0.14649 0.0
C170 C 0.02592 0.70882 0.14619 0.0
C171 C 0.96914 0.70524 0.14678 0.0
C172 C 0.95663 0.6874 0.14746 0.0
C173 C 0.96789 0.69285 0.14677 0.0
C174 C 0.94774 0.70663 0.14807 0.0
C175 C 0.94642 0.69427 0.14812 0.0
C176 C 0.95895 0.71204 0.14746 0.0
C177 C 1.00264 0.75818 0.14731 0.0
C178 C 0.99045 0.77572 0.14753 0.0
C179 C 0.01713 0.77771 0.15106 0.0
C180 C 0.01821 0.76549 0.14957 0.0
C181 C 1.00042 0.78295 0.15017 0.0
C182 C 0.99152 0.7634 0.14618 0.0
C183 C 1.00436 0.74524 0.14672 0.0
O184 O 0.02079 0.71256 0.1558 0.0
O185 O 0.02114 0.71276 0.13642 0.0
O186 O 1.00273 0.7392 0.13678 0.0
O187 O 1.00364 0.7389 0.15627 0.0
H188 H 0.04505 0.72457 0.14447 0.0
H189 H 0.06613 0.71968 0.14727 0.0
H190 H 0.05629 0.68328 0.15259 0.0
H191 H 0.0355 0.68805 0.14962 0.0
H192 H 0.95589 0.67786 0.14746 0.0
H193 H 0.97562 0.68738 0.1463 0.0
H194 H 0.94004 0.71212 0.14859 0.0
H195 H 0.95967 0.72158 0.14756 0.0
H196 H 0.98179 0.77956 0.14685 0.0
H197 H 0.02495 0.78307 0.15304 0.0
H198 H 0.02688 0.76168 0.15042 0.0
H199 H 0.9837 0.75796 0.14445 0.0
C200 C 0.63096 0.98567 0.94942 0.0
C201 C 0.62882 0.97808 0.9588 0.0
C202 C 0.60886 0.98594 0.96081 0.0
C203 C 0.6179 0.97828 0.9645 0.0
C204 C 0.61131 0.99364 0.95154 0.0
C205 C 0.6222 0.99352 0.946 0.0
U206 U 0.66297 0.97725 0.9385 0.0
O207 O 0.66806 0.97761 0.91986 0.0
O208 O 0.67621 0.99045 0.93279 0.0
C209 C 0.6757 0.9863 0.92189 0.0
C210 C 0.64199 0.98578 0.94271 0.0
C211 C 0.68088 0.99274 0.91209 0.0
C212 C 0.67959 0.0106 0.89493 0.0
C213 C 0.6745 1.00069 0.9052 0.0
C214 C 0.69733 0.99441 0.89885 0.0
C215 C 0.6908 1.00174 0.89142 0.0
C216 C 0.6924 0.98995 0.90903 0.0
C217 C 0.67802 0.95032 0.95613 0.0
C218 C 0.69371 0.93589 0.95641 0.0
C219 C 0.67873 0.93564 0.97137 0.0
C220 C 0.67347 0.94537 0.96632 0.0
C221 C 0.68872 0.93057 0.96634 0.0
C222 C 0.68833 0.94569 0.95125 0.0
C223 C 0.67126 0.95989 0.9508 0.0
O224 O 0.6517 0.98971 0.94807 0.0
O225 O 0.64373 0.977 0.93523 0.0
O226 O 0.66526 0.95814 0.94087 0.0
O227 O 0.67312 0.97099 0.95396 0.0
H228 H 0.63552 0.97201 0.96166 0.0
H229 H 0.61658 0.9724 0.97178 0.0
H230 H 0.60469 0.99954 0.94821 0.0
H231 H 0.62371 0.99948 0.93879 0.0
H232 H 0.67434 0.01625 0.8894 0.0
H233 H 0.66559 1.00298 0.90749 0.0
H234 H 0.70613 0.99173 0.89655 0.0
H235 H 0.69746 0.98387 0.91428 0.0
H236 H 0.7014 0.93214 0.95233 0.0
H237 H 0.67478 0.93187 0.9791 0.0
H238 H 0.66557 0.94885 0.97023 0.0
H239 H 0.692 0.94945 0.94339 0.0
C240 C 0.71462 0.42241 0.68712 0.0
C241 C 0.70328 0.4173 0.68785 0.0
C242 C 0.69525 0.43656 0.69291 0.0
C243 C 0.69361 0.42438 0.69063 0.0
C244 C 0.70654 0.44163 0.69175 0.0
C245 C 0.7161 0.43463 0.68883 0.0
U246 U 0.74146 0.39928 0.6839 0.0
O247 O 0.75631 0.40399 0.67239 0.0
O248 O 0.75857 0.40515 0.69191 0.0
C249 C 0.76323 0.40661 0.68152 0.0
C250 C 0.72531 0.41537 0.68563 0.0
C251 C 0.77559 0.41046 0.68018 0.0
C252 C 0.79028 0.42626 0.67903 0.0
C253 C 0.77849 0.42252 0.67983 0.0
C254 C 0.79638 0.40588 0.67873 0.0
C255 C 0.79933 0.41797 0.67844 0.0
C256 C 0.78459 0.40215 0.67968 0.0
C257 C 0.73343 0.36433 0.68767 0.0
C258 C 0.73866 0.3437 0.68959 0.0
C259 C 0.71871 0.34977 0.69344 0.0
C260 C 0.72184 0.36145 0.69076 0.0
C261 C 0.72712 0.34071 0.69308 0.0
C262 C 0.74176 0.35537 0.68697 0.0
C263 C 0.73732 0.37667 0.68608 0.0
O264 O 0.73104 0.41138 0.69485 0.0
O265 O 0.72767 0.41011 0.67553 0.0
O266 O 0.73675 0.38182 0.67579 0.0
O267 O 0.73942 0.38377 0.69519 0.0
H268 H 0.70199 0.40787 0.6866 0.0
H269 H 0.68497 0.42027 0.6915 0.0
H270 H 0.70802 0.451 0.69334 0.0
H271 H 0.72478 0.43873 0.68829 0.0
H272 H 0.79233 0.43562 0.67875 0.0
H273 H 0.77163 0.42905 0.68026 0.0
H274 H 0.80321 0.39932 0.6784 0.0
H275 H 0.7825 0.39281 0.68006 0.0
H276 H 0.74537 0.33707 0.68891 0.0
H277 H 0.70979 0.348 0.69621 0.0
H278 H 0.71529 0.36826 0.69141 0.0
H279 H 0.75078 0.35743 0.68462 0.0
C280 C 0.04462 0.23535 0.49467 0.0
C281 C 0.04812 0.24458 0.50252 0.0
C282 C 0.06727 0.23532 0.50587 0.0
C283 C 0.05935 0.24451 0.50814 0.0
C284 C 0.06358 0.22602 0.49826 0.0
C285 C 0.0524 0.22601 0.49281 0.0
U286 U 0.01255 0.24336 0.4815 0.0
O287 O 1.00171 0.24078 0.46279 0.0
O288 O 0.9932 0.22997 0.47625 0.0
C289 C 0.9935 0.23287 0.46509 0.0
C290 C 0.03333 0.23505 0.48774 0.0
C291 C 0.98962 0.22434 0.45567 0.0
C292 C 0.99329 0.20842 0.44156 0.0
C293 C 0.99671 0.21514 0.45167 0.0
C294 C 0.9754 0.21959 0.43973 0.0
C295 C 0.9828 0.21084 0.43518 0.0
C296 C 0.9788 0.22626 0.44982 0.0
C297 C 0.99456 0.27356 0.49647 0.0
C298 C 0.98293 0.29145 0.49645 0.0
C299 C 0.9977 0.28852 0.51179 0.0
C300 C 1.00031 0.27751 0.50686 0.0
C301 C 0.9893 0.29578 0.5064 0.0
C302 C 0.98562 0.28042 0.49147 0.0
C303 C 0.99822 0.26268 0.49041 0.0
O304 O 0.02347 0.23221 0.49302 0.0
O305 O 0.03187 0.24269 0.47928 0.0
O306 O 1.00517 0.26282 0.48127 0.0
O307 O 0.9968 0.25235 0.49532 0.0
H308 H 0.04231 0.2519 0.50411 0.0
H309 H 0.06203 0.25184 0.51391 0.0
H310 H 0.06948 0.21884 0.49634 0.0
H311 H 0.04991 0.21877 0.48684 0.0
H312 H 0.9991 0.20159 0.43849 0.0
H313 H 1.00504 0.21342 0.45607 0.0
H314 H 0.9673 0.22178 0.43511 0.0
H315 H 0.97317 0.23332 0.45276 0.0
H316 H 0.97647 0.29688 0.4921 0.0
H317 H 1.00267 0.29164 0.51952 0.0
H318 H 0.01278 0.2723 0.51088 0.0
H319 H 0.98101 0.27744 0.48347 0.0
C320 C 0.53995 0.036 0.49834 0.0
C321 C 0.53934 0.04476 0.48979 0.0
C322 C 0.53545 0.05925 0.50526 0.0
C323 C 0.5371 0.05641 0.49327 0.0
C324 C 0.53651 0.0505 0.51372 0.0
C325 C 0.53875 0.03897 0.51027 0.0
U326 U 0.5397 1.00062 0.48007 0.0
O327 O 0.52942 0.98531 0.48642 0.0
O328 O 0.54905 0.98488 0.48631 0.0
C329 C 0.53908 0.9797 0.48926 0.0
C330 C 0.54043 0.02345 0.49544 0.0
C331 C 0.53873 0.96787 0.49442 0.0
C332 C 0.53818 0.95487 0.51135 0.0
C333 C 0.5384 0.9663 0.5067 0.0
C334 C 0.53841 0.94665 0.4915 0.0
C335 C 0.53838 0.94489 0.50375 0.0
C336 C 0.53861 0.95798 0.48691 0.0
C337 C 0.53785 1.00334 0.44456 0.0
C338 C 0.53682 0.99086 0.42688 0.0
C339 C 0.53511 0.01737 0.42521 0.0
C340 C 0.53649 0.01861 0.43747 0.0
C341 C 0.535 1.00078 0.41975 0.0
C342 C 0.53822 0.99213 0.43919 0.0
C343 C 0.53881 0.01067 0.45747 0.0
O344 O 0.5306 0.01845 0.49143 0.0
O345 O 0.55002 0.01925 0.49071 0.0
O346 O 0.54868 1.00333 0.46315 0.0
O347 O 0.52924 1.00383 0.46386 0.0
H348 H 0.5402 0.04254 0.48052 0.0
H349 H 0.53636 0.06312 0.48664 0.0
H350 H 0.5351 0.05245 0.52297 0.0
H351 H 0.53906 0.03224 0.51692 0.0
H352 H 0.53815 0.95383 0.52082 0.0
H353 H 0.53842 0.97388 0.51266 0.0
H354 H 0.53832 0.93919 0.48538 0.0
H355 H 0.53871 0.95902 0.47743 0.0
H356 H 0.5371 0.98209 0.42296 0.0
H357 H 0.53366 0.02519 0.42008 0.0
H358 H 0.53622 0.02736 0.44145 0.0
H359 H 0.53944 0.98438 0.44448 0.0
C360 C 0.19125 0.75695 0.61457 0.0
C361 C 0.19973 0.74809 0.61385 0.0
C362 C 0.19536 0.74542 0.59277 0.0
C363 C 0.20177 0.74237 0.60298 0.0
C364 C 0.1867 0.75402 0.5936 0.0
C365 C 0.18467 0.75971 0.60441 0.0
U366 U 0.19237 0.7702 0.64777 0.0
O367 O 0.19208 0.7895 0.65108 0.0
O368 O 0.17673 0.77833 0.65592 0.0
C369 C 0.1816 0.78893 0.65582 0.0
C370 C 0.18936 0.76413 0.62537 0.0
C371 C 0.17503 0.79972 0.65895 0.0
C372 C 0.16359 0.81695 0.65357 0.0
C373 C 0.16847 0.80596 0.65056 0.0
C374 C 0.17134 0.81531 0.67345 0.0
C375 C 0.16529 0.82199 0.66498 0.0
C376 C 0.17615 0.80437 0.67046 0.0
C377 C 0.21419 0.75161 0.66942 0.0
C378 C 0.2258 0.74856 0.68743 0.0
C379 C 0.22735 0.73495 0.67088 0.0
C380 C 0.21903 0.74141 0.66447 0.0
C381 C 0.23105 0.73857 0.68236 0.0
C382 C 0.2175 0.75502 0.68101 0.0
C383 C 0.20607 0.75913 0.66264 0.0
O384 O 0.18282 0.75981 0.63378 0.0
O385 O 0.19792 0.77123 0.62927 0.0
O386 O 0.21003 0.76764 0.65597 0.0
O387 O 0.19496 0.75602 0.66068 0.0
H388 H 0.20494 0.74584 0.62156 0.0
H389 H 0.20861 0.73583 0.60246 0.0
H390 H 0.1818 0.75664 0.58582 0.0
H391 H 0.17814 0.76658 0.60475 0.0
H392 H 0.159 0.82175 0.64677 0.0
H393 H 0.16745 0.80253 0.64162 0.0
H394 H 0.1726 0.81865 0.6824 0.0
H395 H 0.1811 0.79969 0.6771 0.0
H396 H 0.22845 0.7517 0.69618 0.0
H397 H 0.23105 0.72719 0.66674 0.0
H398 H 0.21655 0.73857 0.65558 0.0
H399 H 0.21385 0.76287 0.68502 0.0
C400 C 0.16413 0.221 0.9573 0.0
C401 C 0.16313 0.21231 0.9483 0.0
C402 C 0.16532 0.19633 0.9627 0.0
C403 C 0.16374 0.20016 0.95096 0.0
C404 C 0.16592 0.2051 0.97167 0.0
C405 C 0.16538 0.21719 0.969 0.0
U406 U 0.16528 0.25415 0.94342 0.0
O407 O 0.15802 0.2697 0.95292 0.0
O408 O 0.17716 0.26772 0.95177 0.0
C409 C 0.16852 0.27399 0.95602 0.0
C410 C 0.16462 0.23406 0.9551 0.0
C411 C 0.1704 0.28703 0.95796 0.0
C412 C 0.17301 0.30362 0.97211 0.0
C413 C 0.17071 0.29156 0.9696 0.0
C414 C 0.17492 0.30702 0.95131 0.0
C415 C 0.17523 0.31171 0.96303 0.0
C416 C 0.17249 0.29493 0.94882 0.0
C417 C 0.16346 0.25473 0.90726 0.0
C418 C 0.16484 0.26595 0.88921 0.0
C419 C 0.16374 0.24462 0.8881 0.0
C420 C 0.16303 0.24428 0.90042 0.0
C421 C 0.16491 0.25546 0.8823 0.0
C422 C 0.16417 0.26558 0.90155 0.0
C423 C 0.16408 0.25415 0.9203 0.0
O424 O 0.17436 0.23891 0.95119 0.0
O425 O 0.15509 0.23983 0.9521 0.0
O426 O 0.15466 0.2551 0.92684 0.0
O427 O 0.17414 0.25341 0.92615 0.0
H428 H 0.1621 0.21489 0.9392 0.0
H429 H 0.16305 0.19375 0.94378 0.0
H430 H 0.16721 0.20266 0.98078 0.0
H431 H 0.16622 0.22363 0.97616 0.0
H432 H 0.1729 0.30648 0.98124 0.0
H433 H 0.16922 0.2857 0.97687 0.0
H434 H 0.17683 0.31254 0.9439 0.0
H435 H 0.17244 0.29174 0.93976 0.0
H436 H 0.16542 0.27448 0.88512 0.0
H437 H 0.16385 0.23635 0.88318 0.0
H438 H 0.1625 0.2358 0.90465 0.0
H439 H 0.16447 0.27376 0.90664 0.0
C440 C 0.52711 0.47952 0.19163 0.0
C441 C 0.51866 0.48779 0.1884 0.0
C442 C 0.53141 0.49454 0.1726 0.0
C443 C 0.52072 0.49513 0.17884 0.0
C444 C 0.53995 0.48651 0.17641 0.0
C445 C 0.53769 0.47894 0.1856 0.0
U446 U 0.51321 0.46906 0.22058 0.0
O447 O 0.51146 0.451 0.22706 0.0
O448 O 0.5231 0.464 0.23648 0.0
C449 C 0.51896 0.45311 0.23588 0.0
C450 C 0.52576 0.47178 0.20167 0.0
C451 C 0.52706 0.4437 0.239 0.0
C452 C 0.54058 0.42796 0.23421 0.0
C453 C 0.53485 0.43838 0.23106 0.0
C454 C 0.53157 0.42897 0.25342 0.0
C455 C 0.5384 0.42287 0.24522 0.0
C456 C 0.52592 0.43923 0.2503 0.0
C457 C 0.48588 0.48829 0.23078 0.0
C458 C 0.47157 0.48896 0.24651 0.0
C459 C 0.47097 0.50325 0.23092 0.0
C460 C 0.4807 0.49814 0.22584 0.0
C461 C 0.46618 0.49882 0.24133 0.0
C462 C 0.48137 0.48367 0.24122 0.0
C463 C 0.49572 0.48331 0.22424 0.0
O464 O 0.52861 0.47664 0.21195 0.0
O465 O 0.51629 0.46492 0.20183 0.0
O466 O 0.49428 0.47298 0.21888 0.0
O467 O 0.50657 0.48571 0.22795 0.0
H468 H 0.51048 0.48845 0.19314 0.0
H469 H 0.51372 0.50095 0.17625 0.0
H470 H 0.54851 0.48594 0.17244 0.0
H471 H 0.54438 0.47272 0.18817 0.0
H472 H 0.54588 0.42343 0.22777 0.0
H473 H 0.53595 0.44186 0.22231 0.0
H474 H 0.52991 0.42535 0.26202 0.0
H475 H 0.52004 0.4433 0.25656 0.0
H476 H 0.46822 0.48529 0.25455 0.0
H477 H 0.46697 0.51047 0.2263 0.0
H478 H 0.48404 0.50176 0.21774 0.0
H479 H 0.48531 0.47602 0.24518 0.0
C480 C 0.54224 0.21196 0.26819 0.0
C481 C 0.54255 0.20264 0.27617 0.0
C482 C 0.5392 0.18842 0.2599 0.0
C483 C 0.54111 0.19091 0.27201 0.0
C484 C 0.53906 0.19777 0.252 0.0
C485 C 0.54064 0.2094 0.25611 0.0
U486 U 0.54326 0.24321 0.28584 0.0
O487 O 0.55403 0.25807 0.27918 0.0
O488 O 0.53451 0.25827 0.27764 0.0
C489 C 0.54462 0.26329 0.27499 0.0
C490 C 0.54311 0.22451 0.2718 0.0
C491 C 0.54505 0.27572 0.27161 0.0
C492 C 0.54737 0.29003 0.25607 0.0
C493 C 0.54724 0.27835 0.25979 0.0
C494 C 0.54293 0.29659 0.27594 0.0
C495 C 0.54517 0.29923 0.26411 0.0
C496 C 0.5429 0.28489 0.27969 0.0
C497 C 0.53975 0.24274 0.32145 0.0
C498 C 0.53868 0.2548 0.33939 0.0
C499 C 0.5348 0.23375 0.34004 0.0
C500 C 0.53694 0.23276 0.32799 0.0
C501 C 0.53547 0.24478 0.34586 0.0
C502 C 0.54074 0.25381 0.32721 0.0
C503 C 0.54102 0.24108 0.30862 0.0
O504 O 0.53347 0.22993 0.27491 0.0
O505 O 0.5528 0.22877 0.27697 0.0
O506 O 0.55139 0.24195 0.30365 0.0
O507 O 0.53189 0.24205 0.3014 0.0
H508 H 0.54375 0.20443 0.28553 0.0
H509 H 0.5412 0.1838 0.27826 0.0
H510 H 0.53763 0.19608 0.24264 0.0
H511 H 0.5404 0.21647 0.24981 0.0
H512 H 0.54905 0.29188 0.2469 0.0
H513 H 0.54879 0.27133 0.25341 0.0
H514 H 0.54128 0.3036 0.28229 0.0
H515 H 0.54115 0.283 0.28882 0.0
H516 H 0.53922 0.26343 0.34367 0.0
H517 H 0.53251 0.22586 0.3448 0.0
H518 H 0.53619 0.22414 0.32371 0.0
H519 H 0.54289 0.26163 0.3223 0.0
C520 C 0.50371 0.75429 0.57645 0.0
C521 C 0.49498 0.74532 0.57632 0.0
C522 C 0.49879 0.74194 0.59729 0.0
C523 C 0.49255 0.73919 0.58671 0.0
C524 C 0.50776 0.75059 0.59725 0.0
C525 C 0.51019 0.75668 0.58693 0.0
U526 U 0.50251 0.76831 0.54427 0.0
O527 O 0.50294 0.78753 0.54158 0.0
O528 O 0.51797 0.7767 0.53581 0.0
C529 C 0.51312 0.78714 0.53624 0.0
C530 C 0.50592 0.76204 0.56632 0.0
C531 C 0.51976 0.7981 0.53371 0.0
C532 C 0.53012 0.81611 0.54021 0.0
C533 C 0.52546 0.80488 0.54266 0.0
C534 C 0.52405 0.8136 0.51972 0.0
C535 C 0.52914 0.82074 0.52878 0.0
C536 C 0.51937 0.8024 0.52219 0.0
C537 C 0.48038 0.75008 0.52147 0.0
C538 C 0.46909 0.74857 0.50301 0.0
C539 C 0.46677 0.73363 0.51783 0.0
C540 C 0.47518 0.73949 0.52506 0.0
C541 C 0.46342 0.73824 0.50686 0.0
C542 C 0.47748 0.75449 0.51031 0.0
C543 C 0.48837 0.75672 0.52961 0.0
O544 O 0.51227 0.75806 0.55756 0.0
O545 O 0.49749 0.76912 0.56296 0.0
O546 O 0.48464 0.7653 0.53647 0.0
O547 O 0.49953 0.75402 0.53095 0.0
H548 H 0.48985 0.74333 0.56836 0.0
H549 H 0.4855 0.7326 0.5866 0.0
H550 H 0.51257 0.75298 0.60532 0.0
H551 H 0.51692 0.7636 0.58724 0.0
H552 H 0.53408 0.8214 0.54734 0.0
H553 H 0.52589 0.80171 0.5516 0.0
H554 H 0.52306 0.81693 0.51088 0.0
H555 H 0.51496 0.79731 0.51517 0.0
H556 H 0.46662 0.75237 0.49465 0.0
H557 H 0.46262 0.72563 0.52097 0.0
H558 H 0.47736 0.73595 0.53361 0.0
H559 H 0.48146 0.76267 0.5074 0.0
C560 C 0.1475 0.03798 0.70646 0.0
C561 C 0.14724 0.04667 0.71544 0.0
C562 C 0.15078 0.06202 0.70094 0.0
C563 C 0.14883 0.05864 0.71268 0.0
C564 C 0.15065 0.05324 0.69204 0.0
C565 C 0.14906 0.0414 0.69479 0.0
U566 U 0.1464 1.00109 0.72188 0.0
O567 O 0.13662 0.98574 0.7137 0.0
O568 O 0.15619 0.98616 0.71421 0.0
C569 C 0.14645 0.98068 0.71052 0.0
C570 C 0.14679 0.0252 0.70858 0.0
C571 C 0.14666 0.96863 0.70512 0.0
C572 C 0.14603 0.95553 0.68766 0.0
C573 C 0.14537 0.96691 0.69282 0.0
C574 C 0.14932 0.94747 0.707 0.0
C575 C 0.14814 0.94564 0.6947 0.0
C576 C 0.14858 0.9588 0.71213 0.0
C577 C 0.14784 1.0022 0.75788 0.0
C578 C 0.14792 0.99006 0.77543 0.0
C579 C 0.15185 0.01644 0.77738 0.0
C580 C 0.15035 0.01752 0.76516 0.0
C581 C 0.15071 1.00002 0.78265 0.0
C582 C 0.14657 0.99112 0.76311 0.0
C583 C 0.14723 1.00387 0.74494 0.0
O584 O 0.15638 0.01999 0.71227 0.0
O585 O 0.13699 0.02051 0.71256 0.0
O586 O 0.13724 1.00237 0.73895 0.0
O587 O 0.15675 1.00302 0.73856 0.0
H588 H 0.14605 0.0442 0.72453 0.0
H589 H 0.14894 0.06518 0.71977 0.0
H590 H 0.15186 0.05549 0.6829 0.0
H591 H 0.14925 0.03483 0.68773 0.0
H592 H 0.14517 0.95449 0.67816 0.0
H593 H 0.14398 0.9744 0.68719 0.0
H594 H 0.15081 0.94008 0.71271 0.0
H595 H 0.1496 0.95987 0.72161 0.0
H596 H 0.14712 0.98142 0.77928 0.0
H597 H 0.15392 0.02426 0.78272 0.0
H598 H 0.1513 0.02616 0.76134 0.0
H599 H 0.14474 0.98332 0.75769 0.0
C600 C 0.23548 0.49392 0.0437 0.0
C601 C 0.24516 0.50106 0.04735 0.0
C602 C 0.23578 0.50542 0.06644 0.0
C603 C 0.24534 0.50668 0.05858 0.0
C604 C 0.22594 0.49861 0.06226 0.0
C605 C 0.22589 0.4929 0.05122 0.0
U606 U 0.24404 0.48164 0.01181 0.0
O607 O 0.24192 0.46271 1.00031 0.0
O608 O 0.23097 0.47619 0.99208 0.0
C609 C 0.23404 0.46505 0.99209 0.0
C610 C 0.2349 0.48693 0.03246 0.0
C611 C 0.22534 0.45563 0.98847 0.0
C612 C 0.20897 0.44202 0.99219 0.0
C613 C 0.21591 0.45203 0.99549 0.0
C614 C 0.22044 0.43942 0.97461 0.0
C615 C 0.21141 0.43526 0.98191 0.0
C616 C 0.22726 0.44945 0.97786 0.0
C617 C 0.27417 0.49667 0.99518 0.0
C618 C 0.29112 0.49528 0.98235 0.0
C619 C 0.29051 0.51076 0.99733 0.0
C620 C 0.27943 0.50661 1.00075 0.0
C621 C 0.29659 0.50499 0.9883 0.0
C622 C 0.27994 0.49114 0.98576 0.0
C623 C 0.26318 0.49184 1.00008 0.0
O624 O 0.2321 0.49235 0.02268 0.0
O625 O 0.24265 0.47857 0.0309 0.0
O626 O 0.26347 0.4823 0.01119 0.0
O627 O 0.25273 0.49604 0.99751 0.0
H628 H 0.25269 0.50207 0.04168 0.0
H629 H 0.25323 0.51168 0.06107 0.0
H630 H 0.21809 0.49753 0.06739 0.0
H631 H 0.21826 0.48752 0.04858 0.0
H632 H 0.20189 0.43938 0.9979 0.0
H633 H 0.21414 0.45672 1.00366 0.0
H634 H 0.22273 0.43458 0.96668 0.0
H635 H 0.23445 0.45208 0.97226 0.0
H636 H 0.29565 0.49068 0.97536 0.0
H637 H 0.29459 0.51812 1.00219 0.0
H638 H 0.27548 0.51133 0.01342 0.0
H639 H 0.276 0.48346 0.98132 0.0
C640 C 0.49864 0.53983 0.036 0.0
C641 C 0.49033 0.53803 0.04479 0.0
C642 C 0.50637 0.53504 0.05904 0.0
C643 C 0.49418 0.53562 0.05629 0.0
C644 C 0.51451 0.53767 0.05022 0.0
C645 C 0.51067 0.53986 0.03882 0.0
U646 U 0.48052 0.53927 1.0002 0.0
O647 O 0.48771 0.52926 0.98511 0.0
O648 O 0.48724 0.54887 0.98487 0.0
C649 C 0.49074 0.53903 0.9798 0.0
C650 C 0.49557 0.54031 0.0235 0.0
C651 C 0.49554 0.5389 0.96786 0.0
C652 C 0.51218 0.53751 0.95458 0.0
C653 C 0.50775 0.53813 0.96607 0.0
C654 C 0.49224 0.5388 0.94673 0.0
C655 C 0.50443 0.53766 0.9447 0.0
C656 C 0.48787 0.53929 0.95814 0.0
C657 C 0.44484 0.5368 1.00242 0.0
C658 C 0.42658 0.53729 0.99084 0.0
C659 C 0.42631 0.53294 0.01688 0.0
C660 C 0.43859 0.53433 0.01769 0.0
C661 C 0.42001 0.53412 1.00077 0.0
C662 C 0.43893 0.53857 0.99164 0.0
C663 C 0.45779 0.53778 1.00385 0.0
O664 O 0.49176 0.53046 0.01837 0.0
O665 O 0.49085 0.54989 0.01929 0.0
O666 O 0.46333 0.5479 1.00223 0.0
O667 O 0.46436 0.52841 1.00257 0.0
H668 H 0.48097 0.53798 0.04267 0.0
H669 H 0.48759 0.53364 0.06277 0.0
H670 H 0.52393 0.53787 0.05198 0.0
H671 H 0.51718 0.54123 0.03207 0.0
H672 H 0.52159 0.53663 0.95348 0.0
H673 H 0.51383 0.53786 0.97354 0.0
H674 H 0.48595 0.53942 0.9395 0.0
H675 H 0.47844 0.53995 0.95937 0.0
H676 H 0.42218 0.53849 0.9824 0.0
H677 H 0.42149 0.53062 0.02469 0.0
H678 H 0.44299 0.53303 0.02612 0.0
H679 H 0.44384 0.54082 0.98387 0.0
C680 C 0.95814 0.16409 0.22104 0.0
C681 C 0.94973 0.16087 0.21218 0.0
C682 C 0.96407 0.16479 0.19646 0.0
C683 C 0.95269 0.16114 0.20006 0.0
C684 C 0.97244 0.16776 0.20541 0.0
C685 C 0.96954 0.16734 0.21743 0.0
U686 U 0.94395 0.16508 0.25415 0.0
O687 O 0.95347 0.15791 0.26973 0.0
O688 O 0.95204 0.17703 0.26785 0.0
C689 C 0.9564 0.16843 0.27408 0.0
C690 C 0.95566 0.16456 0.23406 0.0
C691 C 0.95849 0.17029 0.28712 0.0
C692 C 0.97282 0.17298 0.30355 0.0
C693 C 0.9702 0.17074 0.29151 0.0
C694 C 0.95201 0.17444 0.30726 0.0
C695 C 0.96379 0.17489 0.31175 0.0
C696 C 0.9494 0.17216 0.29517 0.0
C697 C 0.90784 0.16283 0.25499 0.0
C698 C 0.89013 0.16418 0.26676 0.0
C699 C 0.88834 0.16195 0.24558 0.0
C700 C 0.90066 0.16179 0.24484 0.0
C701 C 0.88271 0.16345 0.25654 0.0
C702 C 0.90249 0.1638 0.26598 0.0
C703 C 0.92083 0.16349 0.25372 0.0
O704 O 0.95174 0.17428 0.23896 0.0
O705 O 0.95275 0.15501 0.23982 0.0
O706 O 0.92751 0.1542 0.25491 0.0
O707 O 0.92655 0.17365 0.25325 0.0
H708 H 0.94086 0.15831 0.21459 0.0
H709 H 0.94596 0.15882 0.19347 0.0
H710 H 0.9813 0.17048 0.20312 0.0
H711 H 0.97627 0.16977 0.22398 0.0
H712 H 0.98198 0.17305 0.30639 0.0
H713 H 0.97743 0.16941 0.28554 0.0
H714 H 0.9447 0.1761 0.31302 0.0
H715 H 0.94029 0.17201 0.29211 0.0
H716 H 0.8866 0.16543 0.27546 0.0
H717 H 0.8834 0.16085 0.2374 0.0
H718 H 0.9046 0.16097 0.23624 0.0
H719 H 0.90787 0.16458 0.27396 0.0
C720 C 0.75856 0.615 0.19012 0.0
C721 C 0.74849 0.61547 0.19712 0.0
C722 C 0.74538 0.59401 0.19475 0.0
C723 C 0.74192 0.60511 0.19932 0.0
C724 C 0.75534 0.59375 0.18751 0.0
C725 C 0.76177 0.60409 0.18522 0.0
U726 U 0.77126 0.64806 0.19147 0.0
O727 O 0.79026 0.65279 0.1914 0.0
O728 O 0.77885 0.6575 0.17627 0.0
C729 C 0.78942 0.65813 0.18125 0.0
C730 C 0.76615 0.62545 0.18769 0.0
C731 C 0.80021 0.66064 0.17434 0.0
C732 C 0.81761 0.65463 0.16343 0.0
C733 C 0.80657 0.65186 0.1684 0.0
C734 C 0.81583 0.67494 0.16992 0.0
C735 C 0.82248 0.66616 0.16442 0.0
C736 C 0.80483 0.67222 0.17474 0.0
C737 C 0.75222 0.66879 0.21396 0.0
C738 C 0.75094 0.68675 0.22607 0.0
C739 C 0.73541 0.6719 0.22662 0.0
C740 C 0.74138 0.665 0.21836 0.0
C741 C 0.74021 0.68277 0.23094 0.0
C742 C 0.75687 0.67984 0.21768 0.0
C743 C 0.75868 0.66087 0.20587 0.0
O744 O 0.76166 0.63393 0.18137 0.0
O745 O 0.77336 0.62938 0.19615 0.0
O746 O 0.76805 0.65516 0.20941 0.0
O747 O 0.75602 0.65973 0.19457 0.0
H748 H 0.74576 0.6238 0.20092 0.0
H749 H 0.73416 0.60586 0.20468 0.0
H750 H 0.7585 0.58551 0.18391 0.0
H751 H 0.76948 0.60351 0.17974 0.0
H752 H 0.8226 0.64766 0.15932 0.0
H753 H 0.80324 0.64285 0.16797 0.0
H754 H 0.81938 0.68385 0.17091 0.0
H755 H 0.80013 0.67914 0.17929 0.0
H756 H 0.75508 0.69498 0.22902 0.0
H757 H 0.727 0.66857 0.22961 0.0
H758 H 0.73756 0.65656 0.21553 0.0
H759 H 0.7652 0.683 0.21431 0.0
C760 C 0.73431 0.01584 0.68504 0.0
C761 C 0.74219 0.01526 0.67571 0.0
C762 C 0.72557 0.01435 0.66135 0.0
C763 C 0.73788 0.01444 0.66401 0.0
C764 C 0.71788 0.01538 0.67097 0.0
C765 C 0.72219 0.01596 0.68256 0.0
U766 U 0.75199 0.01451 0.71611 0.0
O767 O 0.74562 0.02464 0.73157 0.0
O768 O 0.74357 0.99974 0.7307 0.0
C769 C 0.7415 0.01499 0.73639 0.0
C770 C 0.73802 0.01583 0.69753 0.0
C771 C 0.73732 0.01488 0.74857 0.0
C772 C 0.72121 0.01765 0.76216 0.0
C773 C 0.72555 0.01774 0.7507 0.0
C774 C 0.74034 0.01159 0.7695 0.0
C775 C 0.72857 0.0146 0.77167 0.0
C776 C 0.74471 0.01176 0.75802 0.0
C777 C 0.78741 1.00489 0.71376 0.0
C778 C 0.80677 1.00249 0.7229 0.0
C779 C 0.80422 1.00006 0.70175 0.0
C780 C 0.79224 1.00263 0.70272 0.0
C781 C 0.81174 0.99985 0.71184 0.0
C782 C 0.79474 1.00488 0.72384 0.0
C783 C 0.77474 0.01182 0.71491 0.0
O784 O 0.7408 1.00042 0.70227 0.0
O785 O 0.74342 0.02514 0.70234 0.0
O786 O 0.77002 0.02233 0.71557 0.0
O787 O 0.76718 0.99745 0.71457 0.0
H788 H 0.75161 0.01517 0.67747 0.0
H789 H 0.74437 0.01358 0.65723 0.0
H790 H 0.70844 0.01581 0.66982 0.0
H791 H 0.71595 0.01645 0.68968 0.0
H792 H 0.71209 0.01989 0.76358 0.0
H793 H 0.71969 0.02003 0.74347 0.0
H794 H 0.7461 1.00393 0.77671 0.0
H795 H 0.75371 1.00415 0.75651 0.0
H796 H 0.8121 1.00279 0.73091 0.0
H797 H 0.80738 0.99787 0.69307 0.0
H798 H 0.78668 1.00255 0.69484 0.0
H799 H 0.79123 0.01194 0.73247 0.0
C800 C 0.49622 0.04437 0.23639 0.0
C801 C 0.5043 0.04829 0.24521 0.0
C802 C 0.50667 0.06722 0.23536 0.0
C803 C 0.50956 0.05961 0.24464 0.0
C804 C 0.49878 0.0631 0.22646 0.0
C805 C 0.49368 0.0518 0.22695 0.0
U806 U 0.48198 0.01216 0.24344 0.0
O807 O 0.46292 1.00373 0.23913 0.0
O808 O 0.47655 0.99475 0.22857 0.0
C809 C 0.46528 0.99657 0.23028 0.0
C810 C 0.48977 0.03293 0.23683 0.0
C811 C 0.45586 0.99031 0.22333 0.0
C812 C 0.44088 0.99093 0.20767 0.0
C813 C 0.45114 0.99558 0.21323 0.0
C814 C 0.4402 0.97528 0.22187 0.0
C815 C 0.43509 0.98096 0.21215 0.0
C816 C 0.45054 0.9799 0.2274 0.0
C817 C 0.49532 0.9939 0.27365 0.0
C818 C 0.4979 0.98171 0.29093 0.0
C819 C 0.5099 0.99935 0.28885 0.0
C820 C 0.50433 1.00148 0.27794 0.0
C821 C 0.50672 0.98947 0.29573 0.0
C822 C 0.49223 0.984 0.28018 0.0
C823 C 0.48873 0.99587 0.26254 0.0
O824 O 0.49494 0.02305 0.23384 0.0
O825 O 0.481 0.0316 0.24414 0.0
O826 O 0.48017 1.00355 0.26247 0.0
O827 O 0.49414 0.99481 0.25243 0.0
H828 H 0.50636 0.04272 0.25259 0.0
H829 H 0.51556 0.06258 0.25167 0.0
H830 H 0.49645 0.0687 0.21917 0.0
H831 H 0.48749 0.04894 0.22003 0.0
H832 H 0.43704 0.99556 0.20031 0.0
H833 H 0.45505 1.00366 0.21 0.0
H834 H 0.43587 0.96762 0.22553 0.0
H835 H 0.45403 0.9757 0.23518 0.0
H836 H 0.49515 0.97381 0.29532 0.0
H837 H 0.51653 0.01118 0.29185 0.0
H838 H 0.50701 0.01452 0.273 0.0
H839 H 0.48533 0.97796 0.27695 0.0
C840 C 0.26785 0.69526 0.47175 0.0
C841 C 0.27308 0.69753 0.48287 0.0
C842 C 0.25362 0.70088 0.49106 0.0
C843 C 0.26599 0.70032 0.49249 0.0
C844 C 0.24848 0.69822 0.47996 0.0
C845 C 0.25554 0.69546 0.47041 0.0
U846 U 0.29172 0.69229 0.44593 0.0
O847 O 0.28697 0.68105 0.43035 0.0
O848 O 0.28698 0.70061 0.4292 0.0
C849 C 0.2846 0.69036 0.42405 0.0
C850 C 0.27475 0.69377 0.46107 0.0
C851 C 0.28301 0.68952 0.41126 0.0
C852 C 0.26958 0.68682 0.39454 0.0
C853 C 0.27164 0.68737 0.40668 0.0
C854 C 0.29031 0.69108 0.39144 0.0
C855 C 0.27886 0.68873 0.38662 0.0
C856 C 0.29237 0.69134 0.40364 0.0
C857 C 0.32655 0.69498 0.45506 0.0
C858 C 0.34713 0.69526 0.44947 0.0
C859 C 0.34184 0.70022 0.4695 0.0
C860 C 0.32996 0.69819 0.46656 0.0
C861 C 0.35077 0.69888 0.46102 0.0
C862 C 0.33516 0.69347 0.44652 0.0
C863 C 0.31397 0.69404 0.4519 0.0
O864 O 0.27961 0.70308 0.45629 0.0
O865 O 0.27974 0.68369 0.45849 0.0
O866 O 0.30838 0.68378 0.45104 0.0
O867 O 0.30765 0.70337 0.44965 0.0
H868 H 0.28259 0.69744 0.48402 0.0
H869 H 0.27016 0.70222 0.501 0.0
H870 H 0.23903 0.69872 0.47855 0.0
H871 H 0.25139 0.69384 0.46182 0.0
H872 H 0.26069 0.6847 0.39155 0.0
H873 H 0.2643 0.68605 0.41254 0.0
H874 H 0.29775 0.69298 0.38595 0.0
H875 H 0.3012 0.69315 0.40711 0.0
H876 H 0.35336 0.69376 0.44255 0.0
H877 H 0.34372 0.70321 0.47842 0.0
H878 H 0.32337 0.69946 0.47325 0.0
H879 H 0.33263 0.69102 0.43753 0.0
C880 C 0.75517 0.57657 0.50309 0.0
C881 C 0.74488 0.57537 0.49608 0.0
C882 C 0.74169 0.59673 0.49768 0.0
C883 C 0.73815 0.58533 0.49351 0.0
C884 C 0.75182 0.59768 0.50506 0.0
C885 C 0.75839 0.58773 0.50773 0.0
U886 U 0.76917 0.54455 0.50219 0.0
O887 O 0.78835 0.54164 0.50273 0.0
O888 O 0.77738 0.53599 0.51766 0.0
C889 C 0.78786 0.53629 0.51288 0.0
C890 C 0.76306 0.56665 0.50566 0.0
C891 C 0.79875 0.53399 0.51973 0.0
C892 C 0.81629 0.54066 0.53086 0.0
C893 C 0.80507 0.54293 0.52599 0.0
C894 C 0.8147 0.52042 0.52373 0.0
C895 C 0.8213 0.52945 0.5295 0.0
C896 C 0.80352 0.52267 0.51892 0.0
C897 C 0.75097 0.52201 0.47968 0.0
C898 C 0.74982 0.50402 0.46764 0.0
C899 C 0.73382 0.51788 0.46704 0.0
C900 C 0.73986 0.52515 0.47533 0.0
C901 C 0.73884 0.50734 0.46281 0.0
C902 C 0.75581 0.51129 0.47598 0.0
C903 C 0.75763 0.53005 0.4878 0.0
O904 O 0.75894 0.55787 0.51188 0.0
O905 O 0.77029 0.56329 0.49738 0.0
O906 O 0.76634 0.53684 0.48424 0.0
O907 O 0.75478 0.5314 0.49891 0.0
H908 H 0.74214 0.5668 0.49251 0.0
H909 H 0.73023 0.58406 0.48813 0.0
H910 H 0.75503 0.60616 0.50841 0.0
H911 H 0.76628 0.58884 0.51323 0.0
H912 H 0.82131 0.54779 0.53517 0.0
H913 H 0.80157 0.55174 0.52669 0.0
H914 H 0.81844 0.51178 0.5224 0.0
H915 H 0.79882 0.51568 0.51405 0.0
H916 H 0.75407 0.49607 0.46462 0.0
H917 H 0.72526 0.52063 0.46386 0.0
H918 H 0.73594 0.53336 0.47817 0.0
H919 H 0.76436 0.50868 0.47935 0.0
C920 C 0.94995 0.63049 0.98606 0.0
C921 C 0.95878 0.62788 0.97794 0.0
C922 C 0.96111 0.60829 0.98647 0.0
C923 C 0.96435 0.61688 0.97818 0.0
C924 C 0.95249 0.61119 0.99474 0.0
C925 C 0.94701 0.62213 0.99452 0.0
U926 U 0.93926 0.66241 0.9771 0.0
O927 O 0.92069 0.6678 0.97705 0.0
O928 O 0.93349 0.67599 0.98993 0.0
C929 C 0.92267 0.67565 0.98557 0.0
C930 C 0.9432 0.64153 0.98603 0.0
C931 C 0.91275 0.68027 0.99232 0.0
C932 C 0.89552 0.67799 1.00464 0.0
C933 C 0.90599 0.67345 1.00002 0.0
C934 C 0.89904 0.69628 0.99446 0.0
C935 C 0.89169 0.68929 1.00144 0.0
C936 C 0.90939 0.69178 0.98992 0.0
C937 C 0.95694 0.67731 0.95024 0.0
C938 C 0.95673 0.69347 0.93632 0.0
C939 C 0.9716 0.67844 0.93496 0.0
C940 C 0.96693 0.67291 0.94473 0.0
C941 C 0.96644 0.68861 0.93049 0.0
C942 C 0.95192 0.68779 0.94615 0.0
C943 C 0.95199 0.67007 0.9597 0.0
O944 O 0.94854 0.65127 0.9899 0.0
O945 O 0.93581 0.6432 0.97717 0.0
O946 O 0.94198 0.6642 0.95799 0.0
O947 O 0.95491 0.67221 0.97081 0.0
H948 H 0.96125 0.63424 0.97138 0.0
H949 H 0.9711 0.61508 0.9718 0.0
H950 H 0.94962 0.60485 1.00115 0.0
H951 H 0.94022 0.62397 1.00086 0.0
H952 H 0.8904 0.67282 0.01539 0.0
H953 H 0.90851 0.66453 1.00203 0.0
H954 H 0.89654 0.70511 0.99207 0.0
H955 H 0.91454 0.69719 0.98406 0.0
H956 H 0.95255 0.70126 0.93293 0.0
H957 H 0.97904 0.67451 0.9306 0.0
H958 H 0.97093 0.66487 0.94774 0.0
H959 H 0.94418 0.69134 0.9503 0.0
C960 C 0.46797 0.95399 0.01074 0.0
C961 C 0.47749 0.94652 0.01273 0.0
C962 C 0.49116 0.96165 1.00128 0.0
C963 C 0.48911 0.95055 0.01084 0.0
C964 C 0.48139 0.96903 0.99956 0.0
C965 C 0.46991 0.96508 1.00172 0.0
U966 U 0.43667 0.9366 0.0136 0.0
O967 O 0.42176 0.94545 0.02233 0.0
O968 O 0.42131 0.94252 0.99767 0.0
C969 C 0.41645 0.94758 0.0122 0.0
C970 C 0.4555 0.95025 0.01178 0.0
C971 C 0.40365 0.95002 0.01159 0.0
C972 C 0.3882 0.96473 0.01055 0.0
C973 C 0.40015 0.96182 0.01157 0.0
C974 C 0.38267 0.94357 1.00398 0.0
C975 C 0.379 0.95547 1.00405 0.0
C976 C 0.39498 0.94109 0.01048 0.0
C977 C 0.4393 0.90084 0.01643 0.0
C978 C 0.43053 0.8812 0.01829 0.0
C979 C 0.45151 0.88343 0.015 0.0
C980 C 0.45039 0.89574 0.01496 0.0
C981 C 0.44156 0.87608 0.01656 0.0
C982 C 0.42941 0.89349 0.0182 0.0
C983 C 0.43772 0.91369 0.01551 0.0
O984 O 0.44974 0.94477 0.99731 0.0
O985 O 0.45124 0.94722 0.02202 0.0
O986 O 0.43766 0.9208 0.02481 0.0
O987 O 0.43719 0.91847 0.99991 0.0
H988 H 0.47594 0.9376 0.01565 0.0
H989 H 0.49614 0.94453 0.01272 0.0
H990 H 0.48234 0.9778 0.99614 0.0
H991 H 0.46266 0.97101 1.00013 0.0
H992 H 0.38602 0.97397 0.01085 0.0
H993 H 0.40671 0.96888 0.01232 0.0
H994 H 0.37637 0.93636 1.00277 0.0
H995 H 0.39748 0.93191 0.01033 0.0
H996 H 0.42275 0.87568 0.01943 0.0
H997 H 0.4601 0.87964 0.01368 0.0
H998 H 0.45813 0.90127 0.0136 0.0
H999 H 0.42077 0.89725 0.01927 0.0
C1000 C 0.57746 0.5026 0.75429 0.0
C1001 C 0.57737 0.49421 0.74503 0.0
C1002 C 0.59824 0.49866 0.74142 0.0
C1003 C 0.58769 0.49229 0.73862 0.0
C1004 C 0.5981 0.50719 0.75056 0.0
C1005 C 0.58784 0.50912 0.75689 0.0
U1006 U 0.5452 0.50163 0.76816 0.0
O1007 O 0.5428 0.50212 0.78743 0.0
O1008 O 0.53718 0.51726 0.77661 0.0
C1009 C 0.53789 0.51251 0.78707 0.0
C1010 C 0.56725 0.50469 0.7619 0.0
C1011 C 0.53477 0.51896 0.79791 0.0
C1012 C 0.54049 0.52972 0.8159 0.0
C1013 C 0.54334 0.52501 0.80481 0.0
C1014 C 0.52025 0.5231 0.81284 0.0
C1015 C 0.52893 0.52854 0.82039 0.0
C1016 C 0.52319 0.51826 0.80187 0.0
C1017 C 0.52211 0.47992 0.74988 0.0
C1018 C 0.50393 0.46822 0.74837 0.0
C1019 C 0.5185 0.46682 0.73304 0.0
C1020 C 0.52563 0.47521 0.73905 0.0
C1021 C 0.50773 0.46299 0.73778 0.0
C1022 C 0.51112 0.47659 0.75441 0.0
C1023 C 0.53014 0.48779 0.75677 0.0
O1024 O 0.5586 0.51119 0.75794 0.0
O1025 O 0.56377 0.4962 0.76884 0.0
O1026 O 0.537 0.48392 0.76527 0.0
O1027 O 0.53176 0.4989 0.75399 0.0
H1028 H 0.56945 0.48905 0.74291 0.0
H1029 H 0.5875 0.48553 0.73174 0.0
H1030 H 0.60596 0.51236 0.75288 0.0
H1031 H 0.58807 0.51564 0.764 0.0
H1032 H 0.54764 0.53377 0.821 0.0
H1033 H 0.55235 0.52571 0.80183 0.0
H1034 H 0.51113 0.5223 0.81527 0.0
H1035 H 0.51642 0.51369 0.79658 0.0
H1036 H 0.49573 0.46539 0.75228 0.0
H1037 H 0.52159 0.46306 0.72483 0.0
H1038 H 0.53407 0.47774 0.73543 0.0
H1039 H 0.50828 0.4802 0.76278 0.0
C1040 C 0.21219 0.26803 0.54172 0.0
C1041 C 0.20301 0.27617 0.54113 0.0
C1042 C 0.18859 0.25996 0.53857 0.0
C1043 C 0.19125 0.27213 0.53955 0.0
C1044 C 0.19778 0.2519 0.53939 0.0
C1045 C 0.20945 0.25591 0.54095 0.0
U1046 U 0.24358 0.28539 0.54246 0.0
O1047 O 0.25861 0.27851 0.55281 0.0
O1048 O 0.25839 0.2771 0.53329 0.0
C1049 C 0.26359 0.2743 0.54326 0.0
C1050 C 0.22479 0.27149 0.54245 0.0
C1051 C 0.27603 0.27096 0.54345 0.0
C1052 C 0.29041 0.25532 0.54457 0.0
C1053 C 0.2787 0.25897 0.54443 0.0
C1054 C 0.29693 0.27568 0.54269 0.0
C1055 C 0.29965 0.26366 0.54383 0.0
C1056 C 0.28519 0.27931 0.54247 0.0
C1057 C 0.24326 0.32103 0.5392 0.0
C1058 C 0.25528 0.33895 0.53808 0.0
C1059 C 0.23429 0.33953 0.53397 0.0
C1060 C 0.23331 0.32754 0.53633 0.0
C1061 C 0.2453 0.34556 0.53471 0.0
C1062 C 0.25429 0.32678 0.54015 0.0
C1063 C 0.24161 0.3082 0.54043 0.0
O1064 O 0.23006 0.27469 0.53278 0.0
O1065 O 0.22925 0.27651 0.55213 0.0
O1066 O 0.24262 0.30317 0.55075 0.0
O1067 O 0.24234 0.30103 0.53123 0.0
H1068 H 0.20494 0.28555 0.54166 0.0
H1069 H 0.18426 0.27848 0.53891 0.0
H1070 H 0.19595 0.2425 0.5386 0.0
H1071 H 0.21642 0.24949 0.54134 0.0
H1072 H 0.29225 0.24604 0.5455 0.0
H1073 H 0.27168 0.25241 0.54513 0.0
H1074 H 0.3039 0.28227 0.54193 0.0
H1075 H 0.28327 0.28858 0.54158 0.0
H1076 H 0.26393 0.34303 0.53916 0.0
H1077 H 0.22631 0.34379 0.53118 0.0
H1078 H 0.2247 0.32323 0.53553 0.0
H1079 H 0.26211 0.32187 0.5424 0.0
C1080 C 0.20296 0.69411 0.20138 0.0
C1081 C 0.19987 0.70197 0.19244 0.0
C1082 C 0.18224 0.69003 0.18787 0.0
C1083 C 0.18953 0.69989 0.18565 0.0
C1084 C 0.18567 0.68203 0.19648 0.0
C1085 C 0.19594 0.68406 0.20315 0.0
U1086 U 0.23188 0.70936 0.21385 0.0
O1087 O 0.23756 0.71113 0.23242 0.0
O1088 O 0.24767 0.70011 0.22006 0.0
C1089 C 0.24671 0.70434 0.23085 0.0
C1090 C 0.21325 0.6959 0.20928 0.0
C1091 C 0.2504 0.697 0.24067 0.0
C1092 C 0.24698 0.68265 0.25591 0.0
C1093 C 0.24345 0.68788 0.2453 0.0
C1094 C 0.26447 0.69529 0.25678 0.0
C1095 C 0.25733 0.68666 0.26199 0.0
C1096 C 0.26106 0.70031 0.24623 0.0
C1097 C 0.24243 0.73813 0.1969 0.0
C1098 C 0.25816 0.75307 0.19795 0.0
C1099 C 0.24276 0.75395 0.18293 0.0
C1100 C 0.23763 0.74372 0.18715 0.0
C1101 C 0.25311 0.75888 0.18817 0.0
C1102 C 0.2528 0.74277 0.20235 0.0
C1103 C 0.23585 0.72769 0.20078 0.0
O1104 O 0.22362 0.694 0.20471 0.0
O1105 O 0.21314 0.70499 0.21665 0.0
O1106 O 0.22989 0.72833 0.2106 0.0
O1107 O 0.2399 0.71718 0.19824 0.0
H1108 H 0.20526 0.70977 0.19093 0.0
H1109 H 0.18693 0.70623 0.17909 0.0
H1110 H 0.18017 0.67439 0.19832 0.0
H1111 H 0.19825 0.67788 0.20995 0.0
H1112 H 0.24138 0.67585 0.25957 0.0
H1113 H 0.2352 0.68516 0.24103 0.0
H1114 H 0.27234 0.69884 0.2612 0.0
H1115 H 0.2665 0.70735 0.24275 0.0
H1116 H 0.26616 0.75645 0.20224 0.0
H1117 H 0.23815 0.75818 0.17578 0.0
H1118 H 0.22961 0.7403 0.18287 0.0
H1119 H 0.25666 0.73851 0.20993 0.0
C1120 C 0.47249 0.26746 0.69506 0.0
C1121 C 0.48354 0.27298 0.69695 0.0
C1122 C 0.49227 0.25383 0.70038 0.0
C1123 C 0.49341 0.26617 0.69965 0.0
C1124 C 0.48126 0.24836 0.69815 0.0
C1125 C 0.47144 0.25514 0.69555 0.0
U1126 U 0.44645 0.29106 0.69213 0.0
O1127 O 0.43094 0.28632 0.68078 0.0
O1128 O 0.42966 0.2863 0.70034 0.0
C1129 C 0.42456 0.28401 0.69004 0.0
C1130 C 0.46161 0.27407 0.69355 0.0
C1131 C 0.41183 0.28212 0.68912 0.0
C1132 C 0.39542 0.26839 0.68602 0.0
C1133 C 0.40752 0.27067 0.68678 0.0
C1134 C 0.39183 0.28902 0.69037 0.0
C1135 C 0.38734 0.27752 0.68781 0.0
C1136 C 0.40398 0.29131 0.69092 0.0
C1137 C 0.4557 0.3258 0.69523 0.0
C1138 C 0.45072 0.34653 0.696 0.0
C1139 C 0.47046 0.34049 0.70136 0.0
C1140 C 0.46723 0.32873 0.69888 0.0
C1141 C 0.46223 0.34962 0.7001 0.0
C1142 C 0.44749 0.33474 0.6937 0.0
C1143 C 0.45187 0.31342 0.69397 0.0
O1144 O 0.45676 0.27887 0.70286 0.0
O1145 O 0.4591 0.27918 0.68352 0.0
O1146 O 0.45139 0.30784 0.68368 0.0
O1147 O 0.44993 0.30694 0.70324 0.0
H1148 H 0.48446 0.2825 0.69665 0.0
H1149 H 0.50188 0.27051 0.70136 0.0
H1150 H 0.48019 0.23887 0.69879 0.0
H1151 H 0.46292 0.25076 0.69422 0.0
H1152 H 0.3925 0.25947 0.6838 0.0
H1153 H 0.41356 0.26347 0.68547 0.0
H1154 H 0.38604 0.29628 0.69217 0.0
H1155 H 0.40724 0.30019 0.69286 0.0
H1156 H 0.44413 0.35315 0.69455 0.0
H1157 H 0.47933 0.34223 0.7047 0.0
H1158 H 0.47366 0.32189 0.70016 0.0
H1159 H 0.43849 0.33259 0.69091 0.0
C1160 C 0.19302 0.52788 0.47993 0.0
C1161 C 0.19152 0.52091 0.4899 0.0
C1162 C 0.1732 0.5309 0.49385 0.0
C1163 C 0.18161 0.52244 0.49686 0.0
C1164 C 0.17504 0.53815 0.48418 0.0
C1165 C 0.18489 0.5366 0.47724 0.0
U1166 U 0.22161 0.51341 0.46965 0.0
O1167 O 0.22781 0.51083 0.45159 0.0
O1168 O 0.23757 0.52283 0.46403 0.0
C1169 C 0.23673 0.51829 0.4533 0.0
C1170 C 0.20305 0.52653 0.47221 0.0
C1171 C 0.23963 0.526 0.44356 0.0
C1172 C 0.23537 0.54099 0.42914 0.0
C1173 C 0.23238 0.53502 0.43946 0.0
C1174 C 0.25276 0.52903 0.4274 0.0
C1175 C 0.24541 0.53773 0.42262 0.0
C1176 C 0.24996 0.52343 0.43773 0.0
C1177 C 0.23227 0.48644 0.48873 0.0
C1178 C 0.24626 0.47047 0.48693 0.0
C1179 C 0.23377 0.47195 0.50401 0.0
C1180 C 0.2289 0.48214 0.49963 0.0
C1181 C 0.2421 0.46572 0.4975 0.0
C1182 C 0.24129 0.48083 0.48249 0.0
C1183 C 0.22522 0.49616 0.48419 0.0
O1184 O 0.21339 0.52913 0.47708 0.0
O1185 O 0.203 0.51699 0.46541 0.0
O1186 O 0.21957 0.49465 0.47403 0.0
O1187 O 0.22901 0.50701 0.48636 0.0
H1188 H 0.19785 0.51422 0.49213 0.0
H1189 H 0.18029 0.51676 0.50432 0.0
H1190 H 0.16857 0.54458 0.48161 0.0
H1191 H 0.18604 0.54207 0.4696 0.0
H1192 H 0.22958 0.54786 0.42624 0.0
H1193 H 0.22437 0.53722 0.44402 0.0
H1194 H 0.26042 0.52579 0.42298 0.0
H1195 H 0.25567 0.51652 0.44085 0.0
H1196 H 0.25271 0.46579 0.48179 0.0
H1197 H 0.23052 0.46855 0.51222 0.0
H1198 H 0.22201 0.48639 0.50459 0.0
H1199 H 0.24406 0.48411 0.47406 0.0
C1200 C 0.22213 0.95743 0.16385 0.0
C1201 C 0.21351 0.94833 0.16301 0.0
C1202 C 0.19739 0.96261 0.16525 0.0
C1203 C 0.20132 0.95089 0.16376 0.0
C1204 C 0.20606 0.97167 0.16565 0.0
C1205 C 0.21818 0.96911 0.16504 0.0
U1206 U 0.2551 0.94318 0.16481 0.0
O1207 O 0.27094 0.95226 0.15761 0.0
O1208 O 0.26898 0.95101 0.17677 0.0
C1209 C 0.27525 0.95522 0.16813 0.0
C1210 C 0.23526 0.9554 0.16431 0.0
C1211 C 0.28818 0.95803 0.17004 0.0
C1212 C 0.30363 0.97309 0.17441 0.0
C1213 C 0.29173 0.96989 0.17203 0.0
C1214 C 0.30895 0.95263 0.1725 0.0
C1215 C 0.31245 0.96451 0.17468 0.0
C1216 C 0.29696 0.94941 0.17031 0.0
C1217 C 0.25533 0.90704 0.16274 0.0
C1218 C 0.26707 0.88935 0.16491 0.0
C1219 C 0.24592 0.88749 0.16185 0.0
C1220 C 0.24518 0.8998 0.16137 0.0
C1221 C 0.25684 0.88212 0.16383 0.0
C1222 C 0.26633 0.90171 0.16432 0.0
C1223 C 0.25393 0.92003 0.16324 0.0
O1224 O 0.2401 0.95133 0.17398 0.0
O1225 O 0.24099 0.95238 0.15477 0.0
O1226 O 0.25538 0.92665 0.15396 0.0
O1227 O 0.25375 0.92584 0.17337 0.0
H1228 H 0.21617 0.93925 0.16203 0.0
H1229 H 0.19494 0.94366 0.16328 0.0
H1230 H 0.20349 0.98076 0.16685 0.0
H1231 H 0.22455 0.97634 0.16576 0.0
H1232 H 0.30595 0.9823 0.17597 0.0
H1233 H 0.28521 0.97676 0.17187 0.0
H1234 H 0.31548 0.94578 0.17273 0.0
H1235 H 0.29457 0.94019 0.1689 0.0
H1236 H 0.27561 0.88544 0.16634 0.0
H1237 H 0.23789 0.88218 0.16108 0.0
H1238 H 0.23659 0.90371 0.16021 0.0
H1239 H 0.27428 0.9071 0.16537 0.0
C1240 C 0.51659 0.69536 0.97654 0.0
C1241 C 0.51933 0.70354 0.98569 0.0
C1242 C 0.53947 0.69601 0.98709 0.0
C1243 C 0.53067 0.7038 0.99098 0.0
C1244 C 0.5364 0.68765 0.97817 0.0
C1245 C 0.52513 0.68733 0.97304 0.0
U1246 U 0.48453 0.70491 0.96756 0.0
O1247 O 0.47698 0.70531 0.94957 0.0
O1248 O 0.46956 0.69299 0.96246 0.0
C1249 C 0.46888 0.69724 0.95177 0.0
C1250 C 0.50519 0.69496 0.97001 0.0
C1251 C 0.46439 0.68967 0.94193 0.0
C1252 C 0.46688 0.67656 0.92497 0.0
C1253 C 0.4714 0.68187 0.93547 0.0
C1254 C 0.44827 0.68631 0.92782 0.0
C1255 C 0.45538 0.6791 0.92083 0.0
C1256 C 0.45274 0.6915 0.93822 0.0
C1257 C 0.47172 0.73235 0.98537 0.0
C1258 C 0.4549 0.74529 0.98352 0.0
C1259 C 0.46952 0.74879 0.9991 0.0
C1260 C 0.47566 0.73898 0.99523 0.0
C1261 C 0.45921 0.75226 0.99317 0.0
C1262 C 0.46113 0.73536 0.97961 0.0
C1263 C 0.47958 0.72298 0.98127 0.0
O1264 O 0.4958 0.69159 0.97577 0.0
O1265 O 0.50317 0.70354 0.96265 0.0
O1266 O 0.48455 0.7241 0.97096 0.0
O1267 O 0.4771 0.71202 0.98401 0.0
H1268 H 0.51282 0.70978 0.98859 0.0
H1269 H 0.53255 0.7102 0.99799 0.0
H1270 H 0.54284 0.68163 0.97471 0.0
H1271 H 0.52317 0.68094 0.96601 0.0
H1272 H 0.47252 0.6709 0.91984 0.0
H1273 H 0.48042 0.68029 0.93823 0.0
H1274 H 0.43948 0.68862 0.92487 0.0
H1275 H 0.44722 0.69754 0.94308 0.0
H1276 H 0.44692 0.74771 0.97882 0.0
H1277 H 0.47357 0.75443 0.01172 0.0
H1278 H 0.48383 0.73682 0.99974 0.0
H1279 H 0.4579 0.73029 0.97199 0.0
C1280 C 0.01073 0.46703 0.95415 0.0
C1281 C 0.01207 0.47666 0.94669 0.0
C1282 C 1.00003 0.4902 0.96246 0.0
C1283 C 1.00407 0.48815 0.95084 0.0
C1284 C 0.99903 0.48039 0.96985 0.0
C1285 C 1.00163 0.46905 0.96578 0.0
U1286 U 0.01434 0.436 0.93639 0.0
O1287 O 0.02321 0.42102 0.94501 0.0
O1288 O 0.99824 0.42076 0.94242 0.0
C1289 C 0.0131 0.41562 0.94703 0.0
C1290 C 0.01206 0.45462 0.95026 0.0
C1291 C 0.0125 0.40288 0.94969 0.0
C1292 C 1.0046 0.3877 0.96454 0.0
C1293 C 0.01168 0.39958 0.96153 0.0
C1294 C 1.00496 0.38215 0.94385 0.0
C1295 C 1.00388 0.37879 0.95573 0.0
C1296 C 0.01201 0.39407 0.94086 0.0
C1297 C 0.01735 0.43858 0.90066 0.0
C1298 C 0.01782 0.42904 0.88127 0.0
C1299 C 0.01768 0.45034 0.88295 0.0
C1300 C 0.01742 0.44958 0.89526 0.0
C1301 C 0.01766 0.44007 0.87569 0.0
C1302 C 0.01773 0.42832 0.8936 0.0
C1303 C 0.01627 0.43784 0.91357 0.0
O1304 O 0.99746 0.44908 0.94505 0.0
O1305 O 0.02242 0.45057 0.9473 0.0
O1306 O 0.02555 0.4376 0.92069 0.0
O1307 O 1.00036 0.43695 0.91865 0.0
H1308 H 0.01481 0.4753 0.93768 0.0
H1309 H 0.01095 0.49536 0.94487 0.0
H1310 H 0.9958 0.48128 0.97873 0.0
H1311 H 1.00052 0.46172 0.97168 0.0
H1312 H 1.00371 0.38555 0.97374 0.0
H1313 H 0.01194 0.40626 0.96851 0.0
H1314 H 1.00467 0.37556 0.93682 0.0
H1315 H 0.01261 0.3964 0.93167 0.0
H1316 H 0.01763 0.42087 0.87618 0.0
H1317 H 0.01791 0.45904 0.8792 0.0
H1318 H 0.01716 0.45762 0.90056 0.0
H1319 H 0.01766 0.41973 0.89762 0.0
C1320 C 0.69459 0.20199 0.20179 0.0
C1321 C 0.70248 0.19324 0.19825 0.0
C1322 C 0.68974 0.1885 0.18116 0.0
C1323 C 0.70004 0.18649 0.18794 0.0
C1324 C 0.68173 0.1969 0.18515 0.0
C1325 C 0.68418 0.2036 0.1953 0.0
U1326 U 0.70974 0.21382 0.23105 0.0
O1327 O 0.71177 0.23227 0.23705 0.0
O1328 O 0.70022 0.21999 0.24667 0.0
C1329 C 0.70471 0.23071 0.24599 0.0
C1330 C 0.69659 0.20977 0.21214 0.0
C1331 C 0.69749 0.24063 0.2496 0.0
C1332 C 0.6831 0.25583 0.24617 0.0
C1333 C 0.68823 0.24514 0.24276 0.0
C1334 C 0.6962 0.25706 0.26331 0.0
C1335 C 0.68742 0.26217 0.25626 0.0
C1336 C 0.70106 0.24639 0.26006 0.0
C1337 C 0.73765 0.19634 0.2426 0.0
C1338 C 0.75406 0.19918 0.2566 0.0
C1339 C 0.75254 0.18146 0.24433 0.0
C1340 C 0.74209 0.18536 0.23938 0.0
C1341 C 0.75889 0.18849 0.25261 0.0
C1342 C 0.74343 0.20317 0.25154 0.0
C1343 C 0.72763 0.20026 0.23542 0.0
O1344 O 0.69431 0.2052 0.22241 0.0
O1345 O 0.70593 0.21682 0.21224 0.0
O1346 O 0.72867 0.21016 0.22963 0.0
O1347 O 0.71691 0.19785 0.23899 0.0
H1348 H 0.71054 0.19182 0.20327 0.0
H1349 H 0.70641 0.1801 0.18503 0.0
H1350 H 0.67364 0.19851 0.18025 0.0
H1351 H 0.67795 0.21023 0.198 0.0
H1352 H 0.67614 0.25934 0.24067 0.0
H1353 H 0.68531 0.24068 0.23466 0.0
H1354 H 0.70003 0.26161 0.27097 0.0
H1355 H 0.7082 0.24299 0.26542 0.0
H1356 H 0.75887 0.20476 0.26297 0.0
H1357 H 0.75608 0.1732 0.24112 0.0
H1358 H 0.73774 0.17999 0.23252 0.0
H1359 H 0.74006 0.21168 0.25418 0.0
C1360 C 0.68759 0.71481 0.42191 0.0
C1361 C 0.69023 0.70388 0.41673 0.0
C1362 C 0.69377 0.69555 0.43632 0.0
C1363 C 0.69333 0.69435 0.42385 0.0
C1364 C 0.69035 0.70644 0.44131 0.0
C1365 C 0.68748 0.71593 0.43421 0.0
U1366 U 0.68447 0.74144 0.39865 0.0
O1367 O 0.67302 0.75642 0.40319 0.0
O1368 O 0.69257 0.75856 0.40429 0.0
C1369 C 0.6822 0.76326 0.40587 0.0
C1370 C 0.68603 0.72557 0.41503 0.0
C1371 C 0.68099 0.77577 0.40923 0.0
C1372 C 0.67937 0.79093 0.42454 0.0
C1373 C 0.6801 0.77903 0.42116 0.0
C1374 C 0.68043 0.79643 0.40405 0.0
C1375 C 0.67953 0.79981 0.41602 0.0
C1376 C 0.68117 0.78452 0.4007 0.0
C1377 C 0.68806 0.73331 0.36366 0.0
C1378 C 0.69026 0.73926 0.34328 0.0
C1379 C 0.69326 0.71893 0.34854 0.0
C1380 C 0.69069 0.72172 0.3603 0.0
C1381 C 0.69328 0.72769 0.33986 0.0
C1382 C 0.68771 0.74203 0.35506 0.0
C1383 C 0.6867 0.73657 0.3762 0.0
O1384 O 0.69528 0.73112 0.41088 0.0
O1385 O 0.67594 0.72792 0.40973 0.0
O1386 O 0.67637 0.73644 0.3813 0.0
O1387 O 0.69584 0.73896 0.38319 0.0
H1388 H 0.69034 0.70284 0.40722 0.0
H1389 H 0.69585 0.68627 0.41946 0.0
H1390 H 0.68993 0.70783 0.45074 0.0
H1391 H 0.68541 0.7243 0.43838 0.0
H1392 H 0.67854 0.79315 0.43381 0.0
H1393 H 0.68001 0.77236 0.42788 0.0
H1394 H 0.68076 0.80301 0.39726 0.0
H1395 H 0.68197 0.78215 0.39145 0.0
H1396 H 0.68994 0.74622 0.33689 0.0
H1397 H 0.69568 0.70996 0.34638 0.0
H1398 H 0.69109 0.71488 0.36683 0.0
H1399 H 0.68572 0.75105 0.3575 0.0
C1400 C 0.98588 0.95039 0.63053 0.0
C1401 C 0.97763 0.959 0.62772 0.0
C1402 C 0.98636 0.96114 0.60825 0.0
C1403 C 0.97789 0.96435 0.61666 0.0
C1404 C 0.99483 0.9528 0.61135 0.0
C1405 C 0.99456 0.94748 0.62236 0.0
U1406 U 0.97762 0.93872 0.66248 0.0
O1407 O 0.97867 0.91974 0.66636 0.0
O1408 O 0.99132 0.93268 0.67493 0.0
C1409 C 0.98782 0.92163 0.67346 0.0
C1410 C 0.98567 0.94379 0.64157 0.0
C1411 C 0.9934 0.91209 0.67988 0.0
C1412 C 0.01096 0.89455 0.67971 0.0
C1413 C 1.00125 0.90462 0.67413 0.0
C1414 C 0.99433 0.89981 0.69709 0.0
C1415 C 1.00162 0.8918 0.69113 0.0
C1416 C 0.9902 0.90983 0.69147 0.0
C1417 C 0.95049 0.95554 0.6783 0.0
C1418 C 0.9356 0.95595 0.69349 0.0
C1419 C 0.93641 0.97135 0.679 0.0
C1420 C 0.94609 0.96602 0.67385 0.0
C1421 C 0.93082 0.96625 0.6887 0.0
C1422 C 0.94536 0.9506 0.68829 0.0
C1423 C 0.96028 0.94985 0.67221 0.0
O1424 O 0.9896 0.94903 0.65134 0.0
O1425 O 0.97688 0.93629 0.64315 0.0
O1426 O 0.95854 0.94032 0.66557 0.0
O1427 O 0.9713 0.95351 0.67357 0.0
H1428 H 0.9709 0.96141 0.63394 0.0
H1429 H 0.97134 0.97089 0.61462 0.0
H1430 H 1.00139 0.95002 0.60511 0.0
H1431 H 1.001 0.94084 0.62439 0.0
H1432 H 0.01649 0.88862 0.67478 0.0
H1433 H 1.00382 0.90631 0.66516 0.0
H1434 H 0.99151 0.89817 0.70599 0.0
H1435 H 0.98417 0.91558 0.69603 0.0
H1436 H 0.93153 0.95173 0.70091 0.0
H1437 H 0.93319 0.97941 0.67523 0.0
H1438 H 0.95002 0.96999 0.66621 0.0
H1439 H 0.94874 0.94253 0.69191 0.0
C1440 C 0.01643 0.68545 0.73396 0.0
C1441 C 0.01628 0.67626 0.742 0.0
C1442 C 0.015 0.66161 0.72564 0.0
C1443 C 0.01556 0.66448 0.73791 0.0
C1444 C 0.01556 0.67114 0.71779 0.0
C1445 C 0.01617 0.68278 0.72191 0.0
U1446 U 0.01507 0.71631 0.75178 0.0
O1447 O 0.02501 0.73199 0.7457 0.0
O1448 O 0.99981 0.73103 0.74391 0.0
C1449 C 0.01526 0.73687 0.74187 0.0
C1450 C 0.01641 0.69801 0.73742 0.0
C1451 C 0.01514 0.7488 0.73706 0.0
C1452 C 0.01727 0.76184 0.72042 0.0
C1453 C 0.01767 0.75053 0.72515 0.0
C1454 C 0.01177 0.76976 0.7395 0.0
C1455 C 0.01429 0.77159 0.72755 0.0
C1456 C 0.01217 0.75846 0.7442 0.0
C1457 C 0.01103 0.7138 0.78731 0.0
C1458 C 1.00118 0.72353 0.80605 0.0
C1459 C 1.00261 0.70227 0.80488 0.0
C1460 C 1.00498 0.70291 0.79287 0.0
C1461 C 1.00037 0.71252 0.81166 0.0
C1462 C 1.00371 0.72415 0.79399 0.0
C1463 C 0.01256 0.71401 0.77445 0.0
O1464 O 1.00075 0.70268 0.74042 0.0
O1465 O 0.02573 0.70281 0.74281 0.0
O1466 O 0.02301 0.71515 0.76969 0.0
O1467 O 0.99787 0.71431 0.76709 0.0
H1468 H 0.01652 0.67818 0.7514 0.0
H1469 H 0.01526 0.65785 0.74457 0.0
H1470 H 0.0155 0.66997 0.70836 0.0
H1471 H 0.01634 0.68981 0.71555 0.0
H1472 H 0.01914 0.76293 0.71117 0.0
H1473 H 0.01987 0.74311 0.71949 0.0
H1474 H 1.004 0.7771 0.74526 0.0
H1475 H 1.00457 0.75726 0.75341 0.0
H1476 H 0.99949 0.73166 0.81081 0.0
H1477 H 1.00254 0.69364 0.80879 0.0
H1478 H 0.01194 0.69483 0.78785 0.0
H1479 H 1.00403 0.73267 0.78982 0.0
C1480 C 0.96919 0.1977 0.04745 0.0
C1481 C 0.96133 0.18933 0.05213 0.0
C1482 C 0.97285 0.18901 0.07084 0.0
C1483 C 0.96318 0.18499 0.06365 0.0
C1484 C 0.98079 0.19716 0.0659 0.0
C1485 C 0.97899 0.20139 0.05444 0.0
U1486 U 0.95838 0.20848 0.01482 0.0
O1487 O 0.96027 0.22731 0.01016 0.0
O1488 O 0.9709 0.21349 0.99598 0.0
C1489 C 0.96779 0.22459 0.99678 0.0
C1490 C 0.96753 0.20327 0.03567 0.0
C1491 C 0.97403 0.23409 0.99044 0.0
C1492 C 0.98897 0.24976 0.99012 0.0
C1493 C 0.98412 0.23968 0.99531 0.0
C1494 C 0.97404 0.24845 0.97469 0.0
C1495 C 0.98377 0.25478 0.97993 0.0
C1496 C 0.96926 0.23834 0.9799 0.0
C1497 C 0.9277 0.19222 0.99654 0.0
C1498 C 0.91078 0.19063 0.98297 0.0
C1499 C 0.91201 0.17787 0.99979 0.0
C1500 C 0.92291 0.18305 1.00309 0.0
C1501 C 0.90564 0.18165 0.98975 0.0
C1502 C 0.92165 0.19589 0.98638 0.0
C1503 C 0.93867 0.19841 1.00054 0.0
O1504 O 0.97018 0.19759 0.02587 0.0
O1505 O 0.95946 0.21132 0.03419 0.0
O1506 O 0.93887 0.20811 0.01296 0.0
O1507 O 0.9491 0.1938 0.99895 0.0
H1508 H 0.95368 0.1863 0.04699 0.0
H1509 H 0.95679 0.17878 0.06707 0.0
H1510 H 0.98845 0.20037 0.07092 0.0
H1511 H 0.98526 0.20777 0.05109 0.0
H1512 H 0.99659 0.25365 0.99459 0.0
H1513 H 0.98806 0.23647 1.00339 0.0
H1514 H 0.96969 0.25131 0.96674 0.0
H1515 H 0.9615 0.23407 0.97589 0.0
H1516 H 0.90638 0.19371 0.97509 0.0
H1517 H 0.90871 0.17162 0.01081 0.0
H1518 H 0.92775 0.18053 0.01631 0.0
H1519 H 0.92525 0.20296 0.98117 0.0
C1520 C 0.69564 0.47178 0.26743 0.0
C1521 C 0.69764 0.48289 0.27274 0.0
C1522 C 0.70114 0.49145 0.25329 0.0
C1523 C 0.70042 0.49262 0.26575 0.0
C1524 C 0.69846 0.48022 0.24821 0.0
C1525 C 0.69594 0.47057 0.25518 0.0
U1526 U 0.69266 0.44633 0.29154 0.0
O1527 O 0.68134 0.43067 0.28744 0.0
O1528 O 0.70096 0.42937 0.28743 0.0
C1529 C 0.69063 0.4242 0.28545 0.0
C1530 C 0.69408 0.46094 0.27409 0.0
C1531 C 0.6896 0.41159 0.28292 0.0
C1532 C 0.6877 0.39544 0.26871 0.0
C1533 C 0.68831 0.40752 0.27127 0.0
C1534 C 0.68967 0.3915 0.28954 0.0
C1535 C 0.68835 0.38706 0.2778 0.0
C1536 C 0.69031 0.40358 0.29202 0.0
C1537 C 0.69565 0.45567 0.32622 0.0
C1538 C 0.69639 0.4491 0.3465 0.0
C1539 C 0.70047 0.46959 0.34212 0.0
C1540 C 0.69849 0.46712 0.33017 0.0
C1541 C 0.69948 0.46064 0.35052 0.0
C1542 C 0.69455 0.44662 0.33441 0.0
C1543 C 0.69464 0.45355 0.31344 0.0
O1544 O 0.70337 0.45616 0.27898 0.0
O1545 O 0.68403 0.45853 0.27922 0.0
O1546 O 0.6843 0.45217 0.30805 0.0
O1547 O 0.70384 0.45063 0.30722 0.0
H1548 H 0.69742 0.48396 0.28224 0.0
H1549 H 0.70237 0.50087 0.27034 0.0
H1550 H 0.69825 0.4786 0.23881 0.0
H1551 H 0.69437 0.46202 0.25094 0.0
H1552 H 0.68671 0.39299 0.25952 0.0
H1553 H 0.68786 0.41371 0.26411 0.0
H1554 H 0.69026 0.38594 0.29709 0.0
H1555 H 0.69139 0.40666 0.30109 0.0
H1556 H 0.6954 0.44199 0.35265 0.0
H1557 H 0.70313 0.4785 0.34468 0.0
H1558 H 0.69948 0.47419 0.32393 0.0
H1559 H 0.69239 0.43768 0.33147 0.0
C1560 C 0.69625 0.97747 0.51652 0.0
C1561 C 0.70407 0.98689 0.51932 0.0
C1562 C 0.69594 0.98844 0.53923 0.0
C1563 C 0.70385 0.9924 0.53055 0.0
C1564 C 0.68805 0.97911 0.53611 0.0
C1565 C 0.68817 0.97381 0.52493 0.0
U1566 U 0.70539 0.9679 0.48425 0.0
O1567 O 0.70519 0.94966 0.47722 0.0
O1568 O 0.69286 0.96262 0.46982 0.0
C1569 C 0.69697 0.95186 0.46927 0.0
C1570 C 0.69604 0.97095 0.50512 0.0
C1571 C 0.68959 0.94204 0.46441 0.0
C1572 C 0.67652 0.92496 0.46632 0.0
C1573 C 0.6816 0.93546 0.47109 0.0
C1574 C 0.68673 0.92811 0.44802 0.0
C1575 C 0.67939 0.92104 0.45487 0.0
C1576 C 0.69178 0.93848 0.45278 0.0
C1577 C 0.73268 0.98527 0.47029 0.0
C1578 C 0.74553 0.98305 0.45344 0.0
C1579 C 0.74901 0.99909 0.46756 0.0
C1580 C 0.73929 0.99529 0.47392 0.0
C1581 C 0.75241 0.99287 0.45743 0.0
C1582 C 0.73565 0.97927 0.45981 0.0
C1583 C 0.72343 0.98125 0.47835 0.0
O1584 O 0.69251 0.97657 0.4957 0.0
O1585 O 0.70463 0.96358 0.5031 0.0
O1586 O 0.72461 0.97101 0.48346 0.0
O1587 O 0.71242 0.98405 0.47614 0.0
H1588 H 0.71034 0.98993 0.5129 0.0
H1589 H 0.70993 0.99969 0.53239 0.0
H1590 H 0.682 0.97549 0.54241 0.0
H1591 H 0.68204 0.96656 0.52293 0.0
H1592 H 0.67086 0.91961 0.47174 0.0
H1593 H 0.67976 0.93809 0.48009 0.0
H1594 H 0.68923 0.9252 0.43928 0.0
H1595 H 0.69798 0.94342 0.44752 0.0
H1596 H 0.74805 0.97809 0.44565 0.0
H1597 H 0.75437 0.01188 0.47096 0.0
H1598 H 0.73718 0.99998 0.48201 0.0
H1599 H 0.73064 0.97152 0.45683 0.0
C1600 C 0.95416 0.01101 0.4673 0.0
C1601 C 0.94633 0.01228 0.47665 0.0
C1602 C 0.96177 1.00134 0.4908 0.0
C1603 C 0.95007 1.00487 0.48831 0.0
C1604 C 0.96955 1.00039 0.48131 0.0
C1605 C 0.96575 1.00256 0.46978 0.0
U1606 U 0.93676 0.01384 0.43606 0.0
O1607 O 0.94534 0.0226 0.42101 0.0
O1608 O 0.94278 0.99788 0.4209 0.0
C1609 C 0.94744 0.01247 0.41568 0.0
C1610 C 0.95065 0.01205 0.45475 0.0
C1611 C 0.95002 0.01183 0.40291 0.0
C1612 C 0.96486 0.01063 0.38757 0.0
C1613 C 0.96187 0.01164 0.3995 0.0
C1614 C 0.94401 1.00441 0.3822 0.0
C1615 C 0.95594 1.00431 0.37863 0.0
C1616 C 0.94116 0.01088 0.39417 0.0
C1617 C 0.90094 0.01662 0.4386 0.0
C1618 C 0.88164 0.01872 0.42911 0.0
C1619 C 0.88304 0.01479 0.45 0.0
C1620 C 0.89538 0.01483 0.44938 0.0
C1621 C 0.87603 0.01657 0.43984 0.0
C1622 C 0.894 0.01869 0.42849 0.0
C1623 C 0.91388 0.01559 0.43781 0.0
O1624 O 0.94548 0.99756 0.44931 0.0
O1625 O 0.94754 0.02228 0.45051 0.0
O1626 O 0.92092 0.02492 0.43733 0.0
O1627 O 0.91897 0.99997 0.43727 0.0
H1628 H 0.93726 0.01469 0.47494 0.0
H1629 H 0.94393 0.01134 0.49533 0.0
H1630 H 0.97852 0.99753 0.48264 0.0
H1631 H 0.97194 1.0015 0.46268 0.0
H1632 H 0.97412 0.01077 0.38543 0.0
H1633 H 0.96888 0.01226 0.40612 0.0
H1634 H 0.93686 1.00337 0.37581 0.0
H1635 H 0.93195 0.01086 0.39658 0.0
H1636 H 0.87646 0.02003 0.42114 0.0
H1637 H 0.87897 0.01325 0.45841 0.0
H1638 H 0.90058 0.01325 0.45729 0.0
H1639 H 0.89813 0.02002 0.42007 0.0
C1640 C 0.42279 0.68709 0.71407 0.0
C1641 C 0.41721 0.68952 0.70326 0.0
C1642 C 0.43645 0.69279 0.69426 0.0
C1643 C 0.42401 0.69236 0.69342 0.0
C1644 C 0.44192 0.68992 0.70502 0.0
C1645 C 0.43516 0.68715 0.7148 0.0
U1646 U 0.39983 0.68404 0.74098 0.0
O1647 O 0.40453 0.67256 0.75589 0.0
O1648 O 0.40554 0.69208 0.75807 0.0
C1649 C 0.40725 0.68174 0.76273 0.0
C1650 C 0.41624 0.68553 0.72506 0.0
C1651 C 0.41029 0.6806 0.77532 0.0
C1652 C 0.4253 0.6782 0.79063 0.0
C1653 C 0.42208 0.6789 0.7787 0.0
C1654 C 0.40495 0.68101 0.79597 0.0
C1655 C 0.4168 0.67929 0.79949 0.0
C1656 C 0.40173 0.68163 0.784 0.0
C1657 C 0.36487 0.68774 0.73277 0.0
C1658 C 0.34417 0.68934 0.7379 0.0
C1659 C 0.35038 0.69398 0.71822 0.0
C1660 C 0.36203 0.69118 0.72131 0.0
C1661 C 0.34118 0.69329 0.72649 0.0
C1662 C 0.35585 0.68672 0.74099 0.0
C1663 C 0.37724 0.68617 0.73663 0.0
O1664 O 0.41207 0.6948 0.7306 0.0
O1665 O 0.41085 0.6755 0.7274 0.0
O1666 O 0.38239 0.67586 0.73622 0.0
O1667 O 0.38432 0.69531 0.73869 0.0
H1668 H 0.40767 0.68953 0.70252 0.0
H1669 H 0.41954 0.69441 0.68521 0.0
H1670 H 0.45145 0.6903 0.70602 0.0
H1671 H 0.43963 0.6854 0.7231 0.0
H1672 H 0.43447 0.67664 0.79283 0.0
H1673 H 0.42882 0.67815 0.7721 0.0
H1674 H 0.39813 0.68212 0.80243 0.0
H1675 H 0.39259 0.68303 0.78154 0.0
H1676 H 0.33758 0.68826 0.74457 0.0
H1677 H 0.34884 0.69713 0.7094 0.0
H1678 H 0.36888 0.69207 0.71484 0.0
H1679 H 0.35788 0.68409 0.74993 0.0
C1680 C 0.20295 0.20227 0.69396 0.0
C1681 C 0.19488 0.1986 0.70246 0.0
C1682 C 0.18911 0.18166 0.68985 0.0
C1683 C 0.18801 0.18831 0.70042 0.0
C1684 C 0.19671 0.1859 0.68118 0.0
C1685 C 0.20362 0.196 0.68329 0.0
U1686 U 0.21504 0.23117 0.70922 0.0
O1687 O 0.23341 0.23746 0.71115 0.0
O1688 O 0.22078 0.24717 0.7001 0.0
C1689 C 0.2316 0.24653 0.70433 0.0
C1690 C 0.21096 0.2125 0.69569 0.0
C1691 C 0.24126 0.25012 0.69677 0.0
C1692 C 0.25657 0.24613 0.68267 0.0
C1693 C 0.24593 0.24284 0.68793 0.0
C1694 C 0.2573 0.26415 0.69456 0.0
C1695 C 0.26262 0.25658 0.68638 0.0
C1696 C 0.24672 0.26095 0.69964 0.0
C1697 C 0.19736 0.24194 0.7373 0.0
C1698 C 0.19986 0.25519 0.75434 0.0
C1699 C 0.18135 0.24461 0.7508 0.0
C1700 C 0.18585 0.23947 0.74071 0.0
C1701 C 0.18845 0.25199 0.75824 0.0
C1702 C 0.20429 0.25022 0.74387 0.0
C1703 C 0.2015 0.23493 0.72725 0.0
O1704 O 0.20641 0.22284 0.69363 0.0
O1705 O 0.21821 0.21248 0.70489 0.0
O1706 O 0.21157 0.22939 0.72817 0.0
O1707 O 0.19892 0.23854 0.71659 0.0
H1708 H 0.19414 0.20347 0.71071 0.0
H1709 H 0.18228 0.18533 0.70733 0.0
H1710 H 0.19754 0.18129 0.6728 0.0
H1711 H 0.20968 0.19884 0.67657 0.0
H1712 H 0.26036 0.24023 0.67621 0.0
H1713 H 0.24172 0.23445 0.68556 0.0
H1714 H 0.26171 0.27215 0.6978 0.0
H1715 H 0.24318 0.26665 0.70644 0.0
H1716 H 0.20563 0.26097 0.75962 0.0
H1717 H 0.17231 0.24243 0.75286 0.0
H1718 H 0.18032 0.23325 0.73564 0.0
H1719 H 0.21318 0.25241 0.74121 0.0
C1720 C 0.26919 0.54205 0.21161 0.0
C1721 C 0.27732 0.54094 0.20254 0.0
C1722 C 0.26107 0.53891 0.18795 0.0
C1723 C 0.2733 0.53933 0.19081 0.0
C1724 C 0.25308 0.5404 0.1972 0.0
C1725 C 0.2571 0.54185 0.20885 0.0
U1726 U 0.28643 0.54293 0.24296 0.0
O1727 O 0.27954 0.55371 0.25763 0.0
O1728 O 0.27774 0.53423 0.25778 0.0
C1729 C 0.27501 0.54438 0.26271 0.0
C1730 C 0.27264 0.54285 0.22416 0.0
C1731 C 0.27194 0.54489 0.27518 0.0
C1732 C 0.25653 0.54527 0.28978 0.0
C1733 C 0.25996 0.54514 0.27802 0.0
C1734 C 0.27711 0.54527 0.29596 0.0
C1735 C 0.26505 0.54529 0.29895 0.0
C1736 C 0.28052 0.54495 0.28418 0.0
C1737 C 0.3221 0.53939 0.24271 0.0
C1738 C 0.33979 0.53649 0.25472 0.0
C1739 C 0.34097 0.53612 0.2334 0.0
C1740 C 0.32887 0.53818 0.23254 0.0
C1741 C 0.3465 0.53511 0.24448 0.0
C1742 C 0.32764 0.53868 0.25384 0.0
C1743 C 0.30925 0.5407 0.24118 0.0
O1744 O 0.27575 0.53319 0.2295 0.0
O1745 O 0.27774 0.55253 0.2285 0.0
O1746 O 0.30429 0.55109 0.24187 0.0
O1747 O 0.30203 0.53158 0.24218 0.0
H1748 H 0.28671 0.54105 0.20453 0.0
H1749 H 0.27983 0.53806 0.1841 0.0
H1750 H 0.24365 0.54051 0.19554 0.0
H1751 H 0.25069 0.54272 0.21577 0.0
H1752 H 0.24719 0.5451 0.2916 0.0
H1753 H 0.25323 0.54507 0.27111 0.0
H1754 H 0.284 0.54561 0.3027 0.0
H1755 H 0.28981 0.54479 0.2821 0.0
H1756 H 0.34393 0.53578 0.26335 0.0
H1757 H 0.34595 0.53499 0.22541 0.0
H1758 H 0.32473 0.53862 0.22387 0.0
H1759 H 0.32256 0.5396 0.26179 0.0
C1760 C 0.97737 0.51626 0.69586 0.0
C1761 C 0.98674 0.51909 0.70373 0.0
C1762 C 0.98759 0.53922 0.69618 0.0
C1763 C 0.99189 0.53047 0.70381 0.0
C1764 C 0.97842 0.53605 0.68814 0.0
C1765 C 0.97347 0.52472 0.68796 0.0
U1766 U 0.96777 0.48387 0.70453 0.0
O1767 O 0.94946 0.47711 0.70397 0.0
O1768 O 0.96254 0.46979 0.69163 0.0
C1769 C 0.95174 0.46931 0.69564 0.0
C1770 C 0.971 0.50483 0.69556 0.0
C1771 C 0.94202 0.46423 0.68841 0.0
C1772 C 0.92488 0.46582 0.67542 0.0
C1773 C 0.9354 0.47071 0.68027 0.0
C1774 C 0.92807 0.44786 0.68622 0.0
C1775 C 0.921 0.45451 0.67871 0.0
C1776 C 0.9385 0.45269 0.691 0.0
C1777 C 0.98538 0.46997 0.73194 0.0
C1778 C 0.98439 0.45374 0.74569 0.0
C1779 C 0.99966 0.46888 0.74802 0.0
C1780 C 0.99538 0.47441 0.73803 0.0
C1781 C 0.99406 0.45871 0.75214 0.0
C1782 C 0.97999 0.4594 0.7356 0.0
C1783 C 0.98076 0.47741 0.7225 0.0
O1784 O 0.97672 0.49547 0.69202 0.0
O1785 O 0.96357 0.50274 0.70407 0.0
O1786 O 0.97054 0.48256 0.72375 0.0
O1787 O 0.98373 0.47536 0.71152 0.0
H1788 H 0.98995 0.51261 0.70984 0.0
H1789 H 0.99911 0.53241 0.70995 0.0
H1790 H 0.97462 0.54242 0.68227 0.0
H1791 H 0.96626 0.52267 0.68181 0.0
H1792 H 0.91939 0.47111 0.66975 0.0
H1793 H 0.938 0.47966 0.67819 0.0
H1794 H 0.92508 0.43926 0.68907 0.0
H1795 H 0.94347 0.44764 0.69734 0.0
H1796 H 0.97986 0.44595 0.74884 0.0
H1797 H 0.01264 0.47293 0.75292 0.0
H1798 H 0.99964 0.48255 0.73535 0.0
H1799 H 0.97223 0.45582 0.73099 0.0
C1800 C 0.70706 0.14709 0.03859 0.0
C1801 C 0.71564 0.14602 0.04758 0.0
C1802 C 0.70073 0.15004 0.06233 0.0
C1803 C 0.71245 0.14741 0.05944 0.0
C1804 C 0.69222 0.15085 0.05329 0.0
C1805 C 0.69536 0.14934 0.04156 0.0
U1806 U 0.72212 0.14592 1.00158 0.0
O1807 O 0.71327 0.13651 0.9864 0.0
O1808 O 0.71387 0.15599 0.98724 0.0
C1809 C 0.70967 0.14642 0.98181 0.0
C1810 C 0.70966 0.14656 0.02595 0.0
C1811 C 0.70546 0.14693 0.96937 0.0
C1812 C 0.68901 0.14675 0.95507 0.0
C1813 C 0.69331 0.14604 0.96675 0.0
C1814 C 0.70897 0.14971 0.94852 0.0
C1815 C 0.69675 0.14855 0.94559 0.0
C1816 C 0.71323 0.14879 0.96016 0.0
C1817 C 0.75811 0.14686 1.00166 0.0
C1818 C 0.77503 0.14881 0.98886 0.0
C1819 C 0.77839 0.14935 0.01537 0.0
C1820 C 0.76618 0.14796 0.01681 0.0
C1821 C 0.78276 0.1498 0.99872 0.0
C1822 C 0.76279 0.14729 0.99031 0.0
C1823 C 0.74524 0.14637 1.00377 0.0
O1824 O 0.71346 0.15619 0.02091 0.0
O1825 O 0.71343 0.13674 0.02109 0.0
O1826 O 0.73909 0.13648 1.00229 0.0
O1827 O 0.73898 0.15599 1.00307 0.0
H1828 H 0.72474 0.14433 0.04544 0.0
H1829 H 0.71917 0.14683 0.06632 0.0
H1830 H 0.68314 0.1528 0.05529 0.0
H1831 H 0.68863 0.15017 0.03473 0.0
H1832 H 0.6796 0.14572 0.95361 0.0
H1833 H 0.68709 0.14475 0.97377 0.0
H1834 H 0.71546 0.15159 0.94194 0.0
H1835 H 0.72263 0.1497 0.96198 0.0
H1836 H 0.77845 0.14937 0.98003 0.0
H1837 H 0.78411 0.15017 0.02312 0.0
H1838 H 0.76275 0.14769 0.02566 0.0
H1839 H 0.757 0.14674 0.98261 0.0
C1840 C 0.19742 0.04722 0.96919 0.0
C1841 C 0.19043 0.05204 0.96016 0.0
C1842 C 0.18828 0.07054 0.97168 0.0
C1843 C 0.18596 0.06358 0.96139 0.0
C1844 C 0.19493 0.06549 0.98081 0.0
C1845 C 0.19947 0.05406 0.97954 0.0
U1846 U 0.20818 0.01479 0.95835 0.0
O1847 O 0.22673 1.00422 0.95979 0.0
O1848 O 0.21335 0.99537 0.9707 0.0
C1849 C 0.22437 0.99584 0.96727 0.0
C1850 C 0.20344 0.03558 0.96811 0.0
C1851 C 0.234 0.98988 0.97372 0.0
C1852 C 0.25018 0.99039 0.98814 0.0
C1853 C 0.23979 0.99522 0.98351 0.0
C1854 C 0.24873 0.97436 0.97377 0.0
C1855 C 0.25507 0.98019 0.983 0.0
C1856 C 0.23832 0.9792 0.96916 0.0
C1857 C 0.19196 0.99689 0.92793 0.0
C1858 C 0.19193 0.98404 0.91046 0.0
C1859 C 0.17718 0.99912 0.91236 0.0
C1860 C 0.182 1.00252 0.9234 0.0
C1861 C 0.18227 0.99005 0.90562 0.0
C1862 C 0.19673 0.98743 0.92154 0.0
C1863 C 0.19777 1.00141 0.93891 0.0
O1864 O 0.19775 0.02576 0.97067 0.0
O1865 O 0.21136 0.03408 0.95992 0.0
O1866 O 0.20751 0.0134 0.93884 0.0
O1867 O 0.19335 0.99954 0.94935 0.0
H1868 H 0.18865 0.04702 0.95208 0.0
H1869 H 0.18082 0.06714 0.95419 0.0
H1870 H 0.19702 0.07056 0.9888 0.0
H1871 H 0.20489 0.05065 0.98662 0.0
H1872 H 0.25475 0.99498 0.99539 0.0
H1873 H 0.2366 1.0034 0.98724 0.0
H1874 H 0.25223 0.96653 0.96958 0.0
H1875 H 0.23398 0.97491 0.96159 0.0
H1876 H 0.19598 0.97697 0.90552 0.0
H1877 H 0.16984 1.00402 0.90883 0.0
H1878 H 0.17833 0.01521 0.92819 0.0
H1879 H 0.20437 0.98291 0.92495 0.0
C1880 C 0.48097 0.19303 0.52782 0.0
C1881 C 0.49008 0.19022 0.52009 0.0
C1882 C 0.49406 0.17277 0.53146 0.0
C1883 C 0.49659 0.18004 0.5219 0.0
C1884 C 0.48538 0.17594 0.53945 0.0
C1885 C 0.47885 0.18602 0.5376 0.0
U1886 U 0.47068 0.22156 0.51278 0.0
O1887 O 0.45257 0.2278 0.51043 0.0
O1888 O 0.46516 0.23767 0.5221 0.0
C1889 C 0.45433 0.2368 0.51779 0.0
C1890 C 0.47339 0.20316 0.52611 0.0
C1891 C 0.44471 0.23957 0.5258 0.0
C1892 C 0.42925 0.23389 0.53922 0.0
C1893 C 0.43987 0.23138 0.5336 0.0
C1894 C 0.42897 0.25308 0.53013 0.0
C1895 C 0.42352 0.24458 0.53709 0.0
C1896 C 0.43946 0.25056 0.52452 0.0
C1897 C 0.48942 0.23188 0.48547 0.0
C1898 C 0.48764 0.24691 0.47053 0.0
C1899 C 0.50432 0.23381 0.47053 0.0
C1900 C 0.49998 0.2283 0.48044 0.0
C1901 C 0.49811 0.243 0.46534 0.0
C1902 C 0.48332 0.24141 0.48065 0.0
C1903 C 0.48512 0.22483 0.49531 0.0
O1904 O 0.47833 0.2135 0.52851 0.0
O1905 O 0.46655 0.20298 0.5166 0.0
O1906 O 0.4749 0.21922 0.494 0.0
O1907 O 0.48734 0.2288 0.50609 0.0
H1908 H 0.49185 0.19563 0.51254 0.0
H1909 H 0.50316 0.1775 0.51555 0.0
H1910 H 0.48317 0.17024 0.54668 0.0
H1911 H 0.47186 0.18815 0.54364 0.0
H1912 H 0.42513 0.22723 0.54459 0.0
H1913 H 0.44388 0.22287 0.53477 0.0
H1914 H 0.42463 0.26128 0.52823 0.0
H1915 H 0.44311 0.25696 0.51854 0.0
H1916 H 0.48269 0.25396 0.46659 0.0
H1917 H 0.51225 0.23048 0.46656 0.0
H1918 H 0.50475 0.22093 0.48401 0.0
H1919 H 0.47515 0.24433 0.48446 0.0
H1920 H 0.93031 0.50501 0.55683 0.0
H1921 H 0.90937 0.51014 0.55664 0.0
H1922 H 0.91228 0.52171 0.5208 0.0
H1923 H 0.93327 0.51647 0.52098 0.0
H1924 H 0.89649 0.53036 0.55266 0.0
H1925 H 0.8863 0.49647 0.51777 0.0
H1926 H 0.89984 0.49662 0.52642 0.0
H1927 H 0.89807 0.50661 0.51443 0.0
C1928 C 0.92651 0.50887 0.549 0.0
C1929 C 0.93341 0.51042 0.53895 0.0
C1930 C 0.91454 0.51176 0.54888 0.0
C1931 C 0.90912 0.51608 0.53863 0.0
C1932 C 0.91616 0.51816 0.52874 0.0
H1933 H 0.83934 0.53403 0.51516 0.0
H1934 H 0.86041 0.53076 0.51856 0.0
C1935 C 0.92819 0.51532 0.52888 0.0
C1936 C 0.89605 0.51781 0.53816 0.0
H1937 H 0.87082 0.50886 0.52327 0.0
C1938 C 0.89087 0.52563 0.54627 0.0
C1939 C 0.88863 0.51148 0.52999 0.0
C1940 C 0.89342 0.50223 0.52172 0.0
C1941 C 0.8786 0.52759 0.54607 0.0
C1942 C 0.87127 0.52156 0.5376 0.0
C1943 C 0.87642 0.51356 0.52971 0.0
C1944 C 0.85841 0.52396 0.53611 0.0
C1945 C 0.87358 0.53641 0.55465 0.0
C1946 C 0.85016 0.52113 0.54481 0.0
C1947 C 0.83803 0.52298 0.54284 0.0
C1948 C 0.83402 0.52773 0.53215 0.0
C1949 C 0.84225 0.5305 0.52351 0.0
C1950 C 0.85428 0.52861 0.52545 0.0
H1951 H 0.8806 0.54133 0.55977 0.0
H1952 H 0.86806 0.54282 0.54986 0.0
H1953 H 0.86785 0.53175 0.56094 0.0
H1954 H 0.85307 0.51728 0.55301 0.0
H1955 H 0.8318 0.52064 0.54957 0.0
H1956 H 0.97609 0.99492 0.36844 0.0
H1957 H 0.98058 0.99282 0.34753 0.0
H1958 H 0.9473 0.01346 0.33838 0.0
H1959 H 0.94317 0.01658 0.35906 0.0
H1960 H 0.96884 0.97974 0.33053 0.0
H1961 H 0.96783 0.03182 0.31684 0.0
H1962 H 0.97087 0.02759 0.33186 0.0
H1963 H 0.95596 0.02748 0.32614 0.0
C1964 C 0.96978 0.99816 0.36207 0.0
C1965 C 0.95908 1.00321 0.36574 0.0
C1966 C 0.97236 0.99683 0.35001 0.0
C1967 C 0.96433 1.00047 0.34125 0.0
C1968 C 0.95384 0.01087 0.34486 0.0
H1969 H 0.95889 0.98944 0.26364 0.0
H1970 H 0.95416 0.99375 0.28446 0.0
C1971 C 0.95135 0.01238 0.35685 0.0
C1972 C 0.96658 0.99839 0.32836 0.0
H1973 H 0.96734 0.01734 0.30159 0.0
C1974 C 0.96857 0.98683 0.32425 0.0
C1975 C 0.96632 0.01294 0.32004 0.0
C1976 C 0.96525 0.02567 0.3239 0.0
C1977 C 0.96993 0.98421 0.31215 0.0
C1978 C 0.96936 0.99336 0.30384 0.0
C1979 C 0.96742 1.00492 0.3079 0.0
C1980 C 0.97194 0.99117 0.29109 0.0
C1981 C 0.97172 0.97159 0.30823 0.0
C1982 C 0.98348 0.9885 0.28785 0.0
C1983 C 0.9862 0.98619 0.27606 0.0
C1984 C 0.97747 0.98646 0.2671 0.0
C1985 C 0.96584 0.98918 0.2703 0.0
C1986 C 0.96313 0.99166 0.28219 0.0
H1987 H 0.97055 0.96532 0.31554 0.0
H1988 H 0.9654 0.96915 0.30095 0.0
H1989 H 0.98077 0.97063 0.30482 0.0
H1990 H 0.99044 0.98813 0.2945 0.0
H1991 H 0.99518 0.98392 0.27399 0.0
H1992 H 0.78296 0.71456 0.0311 0.0
H1993 H 0.8034 0.70778 0.03145 0.0
H1994 H 0.80825 0.72182 0.99165 0.0
H1995 H 0.78801 0.72897 0.99146 0.0
H1996 H 0.81595 0.69306 0.01734 0.0
H1997 H 0.83521 0.73835 0.0151 0.0
H1998 H 0.82014 0.73551 0.01927 0.0
H1999 H 0.82382 0.73456 0.99867 0.0
C2000 C 0.78847 0.71625 0.0236 0.0
C2001 C 0.78414 0.72267 0.014 0.0
C2002 C 0.80014 0.71239 0.02381 0.0
C2003 C 0.80764 0.71482 0.01441 0.0
C2004 C 0.80279 0.72025 0.99921 0.0
H2005 H 0.87666 0.70037 0.98654 0.0
H2006 H 0.85659 0.70651 0.99 0.0
C2007 C 0.7912 0.72427 0.99907 0.0
C2008 C 0.82025 0.71143 0.01494 0.0
H2009 H 0.84829 0.72255 0.01246 0.0
C2010 C 0.82304 0.69952 0.01642 0.0
C2011 C 0.82949 0.71988 0.01383 0.0
C2012 C 0.82714 0.7329 0.01308 0.0
C2013 C 0.83481 0.69578 0.0163 0.0
C2014 C 0.844 0.70419 0.01478 0.0
C2015 C 0.84122 0.71612 0.01362 0.0
C2016 C 0.85643 0.70071 0.01322 0.0
C2017 C 0.83731 0.68281 0.01721 0.0
C2018 C 0.86297 0.69536 0.02225 0.0
C2019 C 0.8746 0.69185 0.02032 0.0
C2020 C 0.87957 0.69335 1.00404 0.0
C2021 C 0.873 0.69894 0.99516 0.0
C2022 C 0.86146 0.7024 0.99708 0.0
H2023 H 0.8291 0.67729 0.01691 0.0
H2024 H 0.84275 0.67952 1.00459 0.0
H2025 H 0.84204 0.68118 0.02566 0.0
H2026 H 0.85908 0.6939 0.03076 0.0
H2027 H 0.87946 0.68769 0.02738 0.0
H2028 H 0.68785 0.16048 0.83261 0.0
H2029 H 0.692 0.15665 0.85325 0.0
H2030 H 0.65478 0.15471 0.85996 0.0
H2031 H 0.65038 0.15921 0.8396 0.0
H2032 H 0.6855 0.17063 0.87251 0.0
H2033 H 0.66596 0.12567 0.87725 0.0
H2034 H 0.67155 0.13092 0.86344 0.0
H2035 H 0.65754 0.13576 0.8686 0.0
C2036 C 0.68042 0.15938 0.83834 0.0
C2037 C 0.66867 0.16044 0.83404 0.0
C2038 C 0.68288 0.157 0.85025 0.0
C2039 C 0.67373 0.15522 0.85826 0.0
C2040 C 0.66205 0.15575 0.85398 0.0
H2041 H 0.67369 0.15201 0.93643 0.0
H2042 H 0.66728 0.15327 0.91584 0.0
C2043 C 0.65955 0.15834 0.84214 0.0
C2044 C 0.67634 0.15386 0.87121 0.0
H2045 H 0.67206 0.13575 0.89474 0.0
C2046 C 0.68258 0.16297 0.87732 0.0
C2047 C 0.67253 0.1439 0.87762 0.0
C2048 C 0.6666 0.13343 0.87144 0.0
C2049 C 0.68496 0.16247 0.88955 0.0
C2050 C 0.68112 0.15256 0.89597 0.0
C2051 C 0.67483 0.14345 0.88991 0.0
C2052 C 0.68466 0.15111 0.90867 0.0
C2053 C 0.69145 0.17267 0.89563 0.0
C2054 C 0.69649 0.14909 0.91162 0.0
C2055 C 0.70022 0.14801 0.92338 0.0
C2056 C 0.69232 0.1492 0.93282 0.0
C2057 C 0.68028 0.15099 0.92975 0.0
C2058 C 0.67651 0.15181 0.91785 0.0
H2059 H 0.69257 0.18032 0.88975 0.0
H2060 H 0.68661 0.17554 0.90358 0.0
H2061 H 0.70033 0.16983 0.89857 0.0
H2062 H 0.70293 0.14827 0.90472 0.0
H2063 H 0.70941 0.14608 0.92483 0.0
H2064 H 0.84131 0.6667 0.17939 0.0
H2065 H 0.86209 0.67082 0.17519 0.0
H2066 H 0.853 0.67566 0.13854 0.0
H2067 H 0.83205 0.67159 0.14283 0.0
H2068 H 0.87675 0.65858 0.16061 0.0
H2069 H 0.87398 0.70475 0.14521 0.0
H2070 H 0.86268 0.6981 0.15409 0.0
H2071 H 0.8636 0.69424 0.13872 0.0
C2072 C 0.84375 0.66867 0.17044 0.0
C2073 C 0.83507 0.66871 0.16144 0.0
C2074 C 0.85565 0.67105 0.16803 0.0
C2075 C 0.85926 0.6737 0.15656 0.0
C2076 C 0.85053 0.67388 0.14752 0.0
H2077 H 0.93021 0.69068 0.13024 0.0
H2078 H 0.90943 0.68434 0.1317 0.0
C2079 C 0.83856 0.67142 0.14993 0.0
C2080 C 0.8722 0.67568 0.15422 0.0
H2081 H 0.8926 0.6961 0.14506 0.0
C2082 C 0.88019 0.6668 0.15721 0.0
C2083 C 0.87682 0.68636 0.14971 0.0
C2084 C 0.86889 0.69648 0.1468 0.0
C2085 C 0.8925 0.66829 0.15588 0.0
C2086 C 0.89713 0.67904 0.15157 0.0
C2087 C 0.88914 0.68784 0.14836 0.0
C2088 C 0.91019 0.6815 0.15051 0.0
C2089 C 0.90044 0.65819 0.15879 0.0
C2090 C 0.91776 0.68187 0.16052 0.0
C2091 C 0.92969 0.68543 0.15966 0.0
C2092 C 0.93434 0.68879 0.14878 0.0
C2093 C 0.9269 0.68809 0.13873 0.0
C2094 C 0.91499 0.6845 0.13957 0.0
H2095 H 0.89538 0.64988 0.16026 0.0
H2096 H 0.90673 0.65667 0.15154 0.0
H2097 H 0.90566 0.66038 0.16694 0.0
H2098 H 0.91433 0.67988 0.16912 0.0
H2099 H 0.93517 0.68602 0.16759 0.0
H2100 H 0.69034 0.02808 0.87935 0.0
H2101 H 0.69658 0.03135 0.85894 0.0
H2102 H 0.70779 0.98995 0.85638 0.0
H2103 H 0.70136 0.98654 0.87636 0.0
H2104 H 0.71954 0.02726 0.84718 0.0
H2105 H 0.68314 0.99269 0.82935 0.0
H2106 H 0.68246 1.00018 0.84352 0.0
H2107 H 0.69117 0.9872 0.84183 0.0
C2108 C 0.69416 0.02089 0.87441 0.0
C2109 C 0.69527 1.00437 0.87948 0.0
C2110 C 0.69779 0.02278 0.8628 0.0
C2111 C 0.70251 0.0135 0.85611 0.0
C2112 C 0.70401 0.99718 0.86133 0.0
H2113 H 0.72919 0.99157 0.78764 0.0
H2114 H 0.72235 0.99211 0.80806 0.0
C2115 C 0.70043 0.99528 0.87282 0.0
C2116 C 0.7053 0.01486 0.84348 0.0
H2117 H 0.69814 0.998 0.81613 0.0
C2118 C 0.71478 0.0222 0.84035 0.0
C2119 C 0.69898 1.00285 0.83461 0.0
C2120 C 0.6883 0.99535 0.83742 0.0
C2121 C 0.71849 0.0227 0.82859 0.0
C2122 C 0.7125 0.01574 0.8198 0.0
C2123 C 0.70275 1.00326 0.82291 0.0
C2124 C 0.71635 0.01542 0.80737 0.0
C2125 C 0.72907 0.03026 0.82567 0.0
C2126 C 0.71489 0.02522 0.80015 0.0
C2127 C 0.71865 0.02487 0.78847 0.0
C2128 C 0.72405 0.01475 0.78386 0.0
C2129 C 0.7252 0.99952 0.79104 0.0
C2130 C 0.72128 0.99982 0.80267 0.0
H2131 H 0.73342 0.03428 0.83367 0.0
H2132 H 0.73561 0.0249 0.82086 0.0
H2133 H 0.7263 0.03747 0.8198 0.0
H2134 H 0.71085 0.03314 0.80357 0.0
H2135 H 0.71757 0.03259 0.7831 0.0
H2136 H 0.90287 0.4611 0.69178 0.0
H2137 H 0.88237 0.45413 0.69029 0.0
H2138 H 0.89084 0.4324 0.66003 0.0
H2139 H 0.91163 0.43913 0.66187 0.0
H2140 H 0.86676 0.45666 0.67233 0.0
H2141 H 0.87346 0.40893 0.68036 0.0
H2142 H 0.88451 0.42008 0.68424 0.0
H2143 H 0.8823 0.41544 0.66913 0.0
C2144 C 0.90029 0.45489 0.68478 0.0
C2145 C 0.90864 0.45077 0.67681 0.0
C2146 C 0.88863 0.45087 0.68395 0.0
C2147 C 0.88509 0.44267 0.67512 0.0
C2148 C 0.89344 0.43856 0.66705 0.0
H2149 H 0.81521 0.41113 0.66202 0.0
H2150 H 0.83589 0.41759 0.6605 0.0
C2151 C 0.90522 0.4425 0.66798 0.0
C2152 C 0.87253 0.43882 0.67438 0.0
H2153 H 0.85399 0.41497 0.67698 0.0
C2154 C 0.86396 0.44754 0.67331 0.0
C2155 C 0.86892 0.42692 0.67569 0.0
C2156 C 0.87774 0.41728 0.67751 0.0
C2157 C 0.85187 0.44472 0.6736 0.0
C2158 C 0.84824 0.43284 0.67503 0.0
C2159 C 0.85681 0.42407 0.67586 0.0
C2160 C 0.83562 0.4293 0.67578 0.0
C2161 C 0.84309 0.45446 0.67221 0.0
C2162 C 0.82863 0.43367 0.68493 0.0
C2163 C 0.81679 0.43011 0.68571 0.0
C2164 C 0.81181 0.42191 0.67751 0.0
C2165 C 0.81886 0.41742 0.66847 0.0
C2166 C 0.83064 0.42112 0.66759 0.0
H2167 H 0.8473 0.46273 0.6691 0.0
H2168 H 0.83594 0.4517 0.66587 0.0
H2169 H 0.83903 0.45642 0.68083 0.0
H2170 H 0.83237 0.4397 0.69157 0.0
H2171 H 0.81157 0.43357 0.69285 0.0
H2172 H 0.95019 0.1698 0.33118 0.0
H2173 H 0.95375 0.17503 0.35182 0.0
H2174 H 0.98782 0.18969 0.34343 0.0
H2175 H 0.98396 0.18537 0.32254 0.0
H2176 H 0.96815 0.16935 0.36841 0.0
H2177 H 0.97671 0.2171 0.36167 0.0
H2178 H 0.97078 0.20753 0.35005 0.0
H2179 H 0.98633 0.20764 0.35366 0.0
C2180 C 0.95836 0.17441 0.33354 0.0
C2181 C 0.96655 0.1774 0.3248 0.0
C2182 C 0.96047 0.17727 0.34554 0.0
C2183 C 0.97091 0.18317 0.3494 0.0
C2184 C 0.97945 0.18561 0.34083 0.0
H2185 H 0.99859 0.20691 0.41781 0.0
H2186 H 0.99506 0.19943 0.39776 0.0
C2187 C 0.97728 0.1829 0.32876 0.0
C2188 C 0.9726 0.18673 0.36229 0.0
H2189 H 0.97902 0.21028 0.38097 0.0
C2190 C 0.97046 0.17834 0.37109 0.0
C2191 C 0.9756 0.19847 0.36605 0.0
C2192 C 0.97738 0.20824 0.35739 0.0
C2193 C 0.97132 0.1813 0.38327 0.0
C2194 C 0.97442 0.19297 0.38692 0.0
C2195 C 0.9766 0.20133 0.37821 0.0
C2196 C 0.9763 0.19659 0.39965 0.0
C2197 C 0.96917 0.17187 0.39221 0.0
C2198 C 0.96691 0.19753 0.40759 0.0
C2199 C 0.96891 0.20191 0.41921 0.0
C2200 C 0.98039 0.20532 0.42319 0.0
C2201 C 0.9897 0.20415 0.41524 0.0
C2202 C 0.98768 0.19993 0.40368 0.0
H2203 H 0.96797 0.16298 0.38803 0.0
H2204 H 0.97668 0.17167 0.39863 0.0
H2205 H 0.96112 0.17394 0.39721 0.0
H2206 H 0.958 0.19516 0.40471 0.0
H2207 H 0.9615 0.2027 0.42504 0.0
H2208 H 0.54282 0.83068 0.51148 0.0
H2209 H 0.54631 0.85187 0.50807 0.0
H2210 H 0.52407 0.86042 0.53735 0.0
H2211 H 0.5211 0.83951 0.54109 0.0
H2212 H 0.53102 0.86892 0.50249 0.0
H2213 H 0.55125 0.88184 0.54585 0.0
H2214 H 0.55164 0.86698 0.53984 0.0
H2215 H 0.53858 0.87226 0.54683 0.0
C2216 C 0.53889 0.83714 0.5173 0.0
C2217 C 0.5319 0.83344 0.52674 0.0
C2218 C 0.54086 0.84924 0.51534 0.0
C2219 C 0.53578 0.85785 0.52269 0.0
C2220 C 0.52858 0.85407 0.53189 0.0
H2221 H 0.52536 0.93436 0.52131 0.0
H2222 H 0.52506 0.91329 0.52642 0.0
C2223 C 0.52681 0.84206 0.53398 0.0
C2224 C 0.53729 0.87076 0.52047 0.0
H2225 H 0.54419 0.89732 0.5341 0.0
C2226 C 0.53404 0.87509 0.50937 0.0
C2227 C 0.54124 0.87891 0.52941 0.0
C2228 C 0.546 0.8748 0.54111 0.0
C2229 C 0.53422 0.88727 0.50713 0.0
C2230 C 0.53779 0.89542 0.5162 0.0
C2231 C 0.54122 0.89112 0.52723 0.0
C2232 C 0.53857 0.90838 0.51408 0.0
C2233 C 0.53022 0.8914 0.49516 0.0
C2234 C 0.5466 0.91272 0.5059 0.0
C2235 C 0.54677 0.92464 0.503 0.0
C2236 C 0.53898 0.93261 0.50825 0.0
C2237 C 0.53143 0.92844 0.51705 0.0
C2238 C 0.53122 0.9164 0.51993 0.0
H2239 H 0.52606 0.88415 0.48971 0.0
H2240 H 0.52382 0.89863 0.49613 0.0
H2241 H 0.53792 0.89488 0.49033 0.0
H2242 H 0.55261 0.90681 0.50154 0.0
H2243 H 0.55292 0.92759 0.49643 0.0
H2244 H 0.13382 0.93359 0.67819 0.0
H2245 H 0.13502 0.91269 0.67191 0.0
H2246 H 0.167 0.90951 0.69266 0.0
H2247 H 0.1656 0.93005 0.69922 0.0
H2248 H 0.15123 0.8982 0.66072 0.0
H2249 H 0.14718 0.88397 0.70695 0.0
H2250 H 0.1429 0.8984 0.70216 0.0
H2251 H 0.15818 0.8953 0.70509 0.0
C2252 C 0.14113 0.92843 0.68135 0.0
C2253 C 0.14945 0.93345 0.68948 0.0
C2254 C 0.14181 0.91645 0.67776 0.0
C2255 C 0.15086 0.90927 0.68215 0.0
C2256 C 0.15962 0.9146 0.68952 0.0
H2257 H 0.17715 0.83859 0.67886 0.0
H2258 H 0.17224 0.8591 0.68271 0.0
C2259 C 0.15886 0.92642 0.69323 0.0
C2260 C 0.15109 0.89618 0.67954 0.0
H2261 H 0.15331 0.86954 0.69316 0.0
C2262 C 0.15153 0.89193 0.66781 0.0
C2263 C 0.15134 0.88784 0.68872 0.0
C2264 C 0.14975 0.89155 0.70143 0.0
C2265 C 0.15282 0.87976 0.66511 0.0
C2266 C 0.15365 0.87153 0.67436 0.0
C2267 C 0.15282 0.87576 0.68604 0.0
C2268 C 0.15611 0.85865 0.67222 0.0
C2269 C 0.15384 0.87588 0.6524 0.0
C2270 C 0.14853 0.85123 0.66529 0.0
C2271 C 0.15131 0.83933 0.66307 0.0
C2272 C 0.1617 0.83446 0.66783 0.0
C2273 C 0.16901 0.84184 0.6751 0.0
C2274 C 0.16625 0.85369 0.67727 0.0
H2275 H 0.15491 0.88347 0.64644 0.0
H2276 H 0.16148 0.86997 0.65132 0.0
H2277 H 0.14574 0.87087 0.64958 0.0
H2278 H 0.14043 0.85463 0.6616 0.0
H2279 H 0.14531 0.83393 0.65764 0.0
H2280 H 0.17338 0.33097 0.94815 0.0
H2281 H 0.17882 0.35141 0.95182 0.0
H2282 H 0.18714 0.3439 0.98807 0.0
H2283 H 0.18294 0.32308 0.98426 0.0
H2284 H 0.17084 0.36827 0.96425 0.0
H2285 H 0.21628 0.36189 0.9819 0.0
H2286 H 0.20791 0.35008 0.97464 0.0
H2287 H 0.20502 0.3542 0.98972 0.0
C2288 C 0.17671 0.33336 0.95687 0.0
C2289 C 0.17792 0.3248 0.9657 0.0
C2290 C 0.17967 0.34532 0.95902 0.0
C2291 C 0.18378 0.34942 0.97015 0.0
C2292 C 0.18449 0.34111 0.97922 0.0
H2293 H 0.20409 0.41901 0.99798 0.0
H2294 H 0.19645 0.39906 0.99451 0.0
C2295 C 0.18178 0.32903 0.97702 0.0
C2296 C 0.18713 0.36234 0.97203 0.0
H2297 H 0.20939 0.38126 0.98179 0.0
C2298 C 0.17932 0.37104 0.96803 0.0
C2299 C 0.19819 0.36621 0.97699 0.0
C2300 C 0.20739 0.35763 0.98097 0.0
C2301 C 0.18221 0.38323 0.96883 0.0
C2302 C 0.19321 0.38701 0.97382 0.0
C2303 C 0.20096 0.3784 0.97793 0.0
C2304 C 0.19668 0.3998 0.97551 0.0
C2305 C 0.17338 0.39205 0.96456 0.0
C2306 C 0.19925 0.40712 0.96596 0.0
C2307 C 0.20361 0.41875 0.96792 0.0
C2308 C 0.20551 0.42337 0.97949 0.0
C2309 C 0.20258 0.41604 0.98894 0.0
C2310 C 0.19828 0.40449 0.98698 0.0
H2311 H 0.16476 0.38781 0.96204 0.0
H2312 H 0.17194 0.39885 0.97153 0.0
H2313 H 0.1769 0.3966 0.95676 0.0
H2314 H 0.19822 0.40374 0.957 0.0
H2315 H 0.20563 0.42405 0.96035 0.0
H2316 H 0.55947 0.41123 0.24259 0.0
H2317 H 0.56269 0.38995 0.24533 0.0
H2318 H 0.52653 0.38549 0.25582 0.0
H2319 H 0.52318 0.40631 0.25282 0.0
H2320 H 0.55811 0.37434 0.26582 0.0
H2321 H 0.52935 0.36354 0.22668 0.0
H2322 H 0.53667 0.37773 0.22884 0.0
H2323 H 0.52366 0.37416 0.23694 0.0
C2324 C 0.55227 0.40565 0.24549 0.0
C2325 C 0.54109 0.41038 0.24747 0.0
C2326 C 0.55412 0.39358 0.24713 0.0
C2327 C 0.54476 0.38619 0.25057 0.0
C2328 C 0.53379 0.39104 0.25299 0.0
H2329 H 0.52714 0.31462 0.2651 0.0
H2330 H 0.52781 0.33573 0.26067 0.0
C2331 C 0.53194 0.40296 0.25136 0.0
C2332 C 0.546 0.37328 0.251 0.0
H2333 H 0.53441 0.34768 0.23898 0.0
C2334 C 0.55313 0.36847 0.25984 0.0
C2335 C 0.53935 0.36573 0.24323 0.0
C2336 C 0.53188 0.3705 0.23332 0.0
C2337 C 0.55348 0.35622 0.26134 0.0
C2338 C 0.54663 0.34868 0.25373 0.0
C2339 C 0.53967 0.35351 0.24476 0.0
C2340 C 0.54605 0.33579 0.25537 0.0
C2341 C 0.56072 0.3514 0.27139 0.0
C2342 C 0.55595 0.32882 0.25338 0.0
C2343 C 0.55553 0.31676 0.25577 0.0
C2344 C 0.54525 0.3116 0.26029 0.0
C2345 C 0.5352 0.31849 0.26177 0.0
C2346 C 0.53558 0.33049 0.25924 0.0
H2347 H 0.56442 0.35851 0.27732 0.0
H2348 H 0.55523 0.34532 0.27665 0.0
H2349 H 0.56815 0.34629 0.26781 0.0
H2350 H 0.56404 0.33274 0.25019 0.0
H2351 H 0.56335 0.31156 0.25451 0.0
H2352 H 0.50905 0.52285 0.83374 0.0
H2353 H 0.50585 0.52654 0.85431 0.0
H2354 H 0.53934 0.5449 0.85761 0.0
H2355 H 0.54232 0.54246 0.83673 0.0
H2356 H 0.51975 0.51741 0.87128 0.0
H2357 H 0.51974 0.56616 0.87794 0.0
H2358 H 0.51557 0.55907 0.86404 0.0
H2359 H 0.53084 0.56041 0.86844 0.0
C2360 C 0.51571 0.52806 0.83844 0.0
C2361 C 0.52617 0.53207 0.83302 0.0
C2362 C 0.51382 0.53007 0.85046 0.0
C2363 C 0.52231 0.53602 0.8576 0.0
C2364 C 0.5325 0.54046 0.85231 0.0
H2365 H 0.52576 0.5453 0.93528 0.0
H2366 H 0.53153 0.54441 0.9145 0.0
C2367 C 0.53431 0.53873 0.84021 0.0
C2368 C 0.52103 0.53635 0.87067 0.0
H2369 H 0.5196 0.55463 0.89496 0.0
C2370 C 0.51971 0.52556 0.87643 0.0
C2371 C 0.52109 0.54697 0.87746 0.0
C2372 C 0.5218 0.55884 0.87171 0.0
C2373 C 0.51843 0.52508 0.8887 0.0
C2374 C 0.5183 0.53569 0.89549 0.0
C2375 C 0.51985 0.54649 0.88979 0.0
C2376 C 0.51538 0.53572 0.90826 0.0
C2377 C 0.51744 0.51316 0.89434 0.0
C2378 C 0.5045 0.53102 0.91171 0.0
C2379 C 0.50134 0.53116 0.92352 0.0
C2380 C 0.50872 0.53651 0.93229 0.0
C2381 C 0.51979 0.54109 0.92887 0.0
C2382 C 0.52307 0.5407 0.91695 0.0
H2383 H 0.52033 0.50595 0.88835 0.0
H2384 H 0.52282 0.51301 0.90262 0.0
H2385 H 0.50811 0.51129 0.89656 0.0
H2386 H 0.49829 0.52734 0.9052 0.0
H2387 H 0.49296 0.52712 0.9257 0.0
H2388 H 0.32179 0.97691 0.19396 0.0
H2389 H 0.34271 0.98053 0.19931 0.0
H2390 H 0.35293 0.96348 0.1669 0.0
H2391 H 0.33208 0.95971 0.16164 0.0
H2392 H 0.35929 0.9623 0.20242 0.0
H2393 H 0.37544 0.9923 0.16771 0.0
H2394 H 0.36041 0.99252 0.17276 0.0
H2395 H 0.36509 0.9808 0.16319 0.0
C2396 C 0.32849 0.97408 0.18789 0.0
C2397 C 0.3252 0.96786 0.17742 0.0
C2398 C 0.34049 0.97616 0.19096 0.0
C2399 C 0.34956 0.97239 0.1835 0.0
C2400 C 0.34624 0.96667 0.17278 0.0
H2401 H 0.42755 0.96998 0.19131 0.0
H2402 H 0.40695 0.96691 0.18422 0.0
C2403 C 0.33426 0.9644 0.16982 0.0
C2404 C 0.36235 0.97324 0.18746 0.0
H2405 H 0.38966 0.98442 0.18045 0.0
C2406 C 0.36588 0.96722 0.19763 0.0
C2407 C 0.37113 0.97951 0.1812 0.0
C2408 C 0.36791 0.98673 0.17064 0.0
C2409 C 0.37778 0.96715 0.20158 0.0
C2410 C 0.38652 0.97348 0.19538 0.0
C2411 C 0.38305 0.97947 0.18518 0.0
C2412 C 0.39911 0.97458 0.1998 0.0
C2413 C 0.38099 0.9599 0.21214 0.0
C2414 C 0.40167 0.97985 0.2109 0.0
C2415 C 0.41335 0.98138 0.215 0.0
C2416 C 0.42283 0.97791 0.20803 0.0
C2417 C 0.42039 0.97263 0.1969 0.0
C2418 C 0.40862 0.97094 0.19284 0.0
H2419 H 0.37365 0.9539 0.21469 0.0
H2420 H 0.38888 0.95455 0.21027 0.0
H2421 H 0.38317 0.96581 0.21981 0.0
H2422 H 0.39462 0.9831 0.21631 0.0
H2423 H 0.415 0.98569 0.22349 0.0
H2424 H 0.27906 0.68396 0.27281 0.0
H2425 H 0.28314 0.68326 0.29399 0.0
H2426 H 0.2458 0.68132 0.30048 0.0
H2427 H 0.24156 0.68242 0.27945 0.0
H2428 H 0.27521 0.70026 0.31029 0.0
H2429 H 0.25855 0.65546 0.32135 0.0
H2430 H 0.26359 0.65918 0.30684 0.0
H2431 H 0.24925 0.66357 0.31154 0.0
C2432 C 0.27169 0.68325 0.27871 0.0
C2433 C 0.25995 0.68335 0.27437 0.0
C2434 C 0.27407 0.68281 0.2908 0.0
C2435 C 0.26477 0.68214 0.29874 0.0
C2436 C 0.2531 0.68158 0.29445 0.0
H2437 H 0.25758 0.69098 0.37404 0.0
H2438 H 0.2542 0.68925 0.35295 0.0
C2439 C 0.2507 0.68214 0.28238 0.0
C2440 C 0.26715 0.68298 0.31155 0.0
H2441 H 0.26247 0.66876 0.33733 0.0
C2442 C 0.27255 0.69334 0.31621 0.0
C2443 C 0.2636 0.67394 0.31919 0.0
C2444 C 0.25851 0.66236 0.31452 0.0
C2445 C 0.27426 0.69498 0.3284 0.0
C2446 C 0.27051 0.68602 0.33603 0.0
C2447 C 0.26518 0.67565 0.33139 0.0
C2448 C 0.27256 0.68701 0.34885 0.0
C2449 C 0.2798 0.70635 0.33311 0.0
C2450 C 0.28399 0.686 0.3535 0.0
C2451 C 0.286 0.68643 0.36566 0.0
C2452 C 0.27663 0.68819 0.37351 0.0
C2453 C 0.26513 0.68931 0.36863 0.0
C2454 C 0.26312 0.68852 0.35645 0.0
H2455 H 0.28101 0.71295 0.3261 0.0
H2456 H 0.27423 0.71019 0.34011 0.0
H2457 H 0.28857 0.70455 0.33714 0.0
H2458 H 0.29135 0.68462 0.3477 0.0
H2459 H 0.29493 0.68509 0.36873 0.0
H2460 H 0.36876 0.97606 0.99564 0.0
H2461 H 0.34786 0.98054 0.9936 0.0
H2462 H 0.33901 0.94661 0.01194 0.0
H2463 H 0.35964 0.94244 0.01515 0.0
H2464 H 0.33107 0.96964 0.9797 0.0
H2465 H 0.31721 0.96582 0.03135 0.0
H2466 H 0.33227 0.9692 0.02747 0.0
H2467 H 0.32663 0.95429 0.02638 0.0
C2468 C 0.3624 0.96952 0.99843 0.0
C2469 C 0.36607 0.95856 1.00288 0.0
C2470 C 0.35034 0.9721 0.99711 0.0
C2471 C 0.34158 0.96381 1.00014 0.0
C2472 C 0.34518 0.95294 1.00453 0.0
H2473 H 0.26419 0.95809 0.98783 0.0
H2474 H 0.28504 0.9534 0.99218 0.0
C2475 C 0.35748 0.95084 0.01141 0.0
C2476 C 0.3287 0.96611 0.99809 0.0
H2477 H 0.30208 0.96597 0.01673 0.0
C2478 C 0.32471 0.96882 0.98667 0.0
C2479 C 0.3206 0.96548 0.01248 0.0
C2480 C 0.32435 0.96366 0.02514 0.0
C2481 C 0.31261 0.9702 0.98403 0.0
C2482 C 0.3042 0.9689 0.99301 0.0
C2483 C 0.30816 0.96629 1.00445 0.0
C2484 C 0.29145 0.97143 0.99086 0.0
C2485 C 0.30881 0.97281 0.97155 0.0
C2486 C 0.28809 0.98307 0.98888 0.0
C2487 C 0.27631 0.98575 0.98652 0.0
C2488 C 0.26747 0.97688 0.98608 0.0
C2489 C 0.27078 0.96514 0.98812 0.0
C2490 C 0.28267 0.96246 0.99062 0.0
H2491 H 0.3162 0.9721 0.96529 0.0
H2492 H 0.30157 0.96663 0.96863 0.0
H2493 H 0.30537 0.9819 0.97117 0.0
H2494 H 0.29465 0.99014 0.98907 0.0
H2495 H 0.27415 0.99483 0.98479 0.0
H2496 H 0.31021 0.24549 0.53187 0.0
H2497 H 0.33135 0.24087 0.53199 0.0
H2498 H 0.33818 0.26918 0.55729 0.0
H2499 H 0.31722 0.27361 0.55741 0.0
H2500 H 0.34917 0.25702 0.52553 0.0
H2501 H 0.35711 0.24292 0.57167 0.0
H2502 H 0.34293 0.24122 0.56422 0.0
H2503 H 0.34774 0.2554 0.57001 0.0
C2504 C 0.31623 0.25055 0.53762 0.0
C2505 C 0.31213 0.26001 0.54454 0.0
C2506 C 0.32826 0.24793 0.53766 0.0
C2507 C 0.33629 0.2546 0.54476 0.0
C2508 C 0.33212 0.26376 0.55194 0.0
H2509 H 0.41314 0.26232 0.54979 0.0
H2510 H 0.39176 0.26555 0.55156 0.0
C2511 C 0.32016 0.26639 0.55187 0.0
C2512 C 0.34915 0.25283 0.54398 0.0
H2513 H 0.37389 0.24754 0.56055 0.0
C2514 C 0.35457 0.25482 0.53315 0.0
C2515 C 0.35616 0.25011 0.55397 0.0
C2516 C 0.35073 0.24719 0.56562 0.0
C2517 C 0.36686 0.25432 0.53211 0.0
C2518 C 0.37384 0.2517 0.54214 0.0
C2519 C 0.36846 0.24972 0.55295 0.0
C2520 C 0.38665 0.24991 0.54133 0.0
C2521 C 0.37237 0.25686 0.5204 0.0
C2522 C 0.39069 0.23991 0.53532 0.0
C2523 C 0.40274 0.23793 0.53458 0.0
C2524 C 0.41094 0.24594 0.53978 0.0
C2525 C 0.40692 0.25594 0.5459 0.0
C2526 C 0.39479 0.25783 0.54681 0.0
H2527 H 0.36587 0.26027 0.51391 0.0
H2528 H 0.37972 0.2634 0.52162 0.0
H2529 H 0.37611 0.24864 0.51667 0.0
H2530 H 0.38451 0.23367 0.53115 0.0
H2531 H 0.40566 0.23034 0.52955 0.0
H2532 H 0.3751 0.25669 0.69211 0.0
H2533 H 0.35399 0.25287 0.69004 0.0
H2534 H 0.3487 0.28916 0.68094 0.0
H2535 H 0.36978 0.2928 0.68147 0.0
H2536 H 0.33646 0.26276 0.70239 0.0
H2537 H 0.32994 0.2731 0.65501 0.0
H2538 H 0.34411 0.26925 0.66124 0.0
H2539 H 0.33855 0.28389 0.66329 0.0
C2540 C 0.36958 0.26382 0.68927 0.0
C2541 C 0.37437 0.27509 0.6869 0.0
C2542 C 0.35745 0.26162 0.68825 0.0
C2543 C 0.34983 0.27067 0.68508 0.0
C2544 C 0.35447 0.28194 0.68302 0.0
H2545 H 0.27386 0.2778 0.68239 0.0
H2546 H 0.2952 0.28148 0.68248 0.0
C2547 C 0.36659 0.28407 0.68365 0.0
C2548 C 0.33697 0.26852 0.68441 0.0
H2549 H 0.3128 0.27106 0.66632 0.0
C2550 C 0.33129 0.26446 0.69448 0.0
C2551 C 0.33029 0.27083 0.67408 0.0
C2552 C 0.33602 0.2744 0.66275 0.0
C2553 C 0.31903 0.26281 0.69453 0.0
C2554 C 0.31239 0.26523 0.68423 0.0
C2555 C 0.31802 0.26933 0.6742 0.0
C2556 C 0.2996 0.26305 0.68353 0.0
C2557 C 0.31319 0.25877 0.70564 0.0
C2558 C 0.29516 0.25145 0.68358 0.0
C2559 C 0.28304 0.2493 0.68363 0.0
C2560 C 0.27516 0.25874 0.68352 0.0
C2561 C 0.27969 0.27035 0.68266 0.0
C2562 C 0.29185 0.27248 0.68272 0.0
H2563 H 0.31946 0.2587 0.71328 0.0
H2564 H 0.30575 0.26462 0.70781 0.0
H2565 H 0.30952 0.2497 0.70425 0.0
H2566 H 0.3011 0.24408 0.68396 0.0
H2567 H 0.2799 0.24029 0.68446 0.0
H2568 H 0.23012 0.54933 0.40726 0.0
H2569 H 0.2326 0.55234 0.38639 0.0
H2570 H 0.26774 0.53869 0.38856 0.0
H2571 H 0.26613 0.53687 0.40955 0.0
H2572 H 0.25063 0.56418 0.37247 0.0
H2573 H 0.24909 0.51542 0.36556 0.0
H2574 H 0.24363 0.5225 0.37873 0.0
H2575 H 0.25923 0.52109 0.37675 0.0
C2576 C 0.23855 0.54719 0.40359 0.0
C2577 C 0.24762 0.54209 0.4104 0.0
C2578 C 0.23987 0.54885 0.39151 0.0
C2579 C 0.25013 0.54522 0.38594 0.0
C2580 C 0.25957 0.54112 0.3927 0.0
H2581 H 0.27646 0.53497 0.31749 0.0
H2582 H 0.27168 0.53594 0.33818 0.0
C2583 C 0.25846 0.53987 0.4048 0.0
C2584 C 0.25082 0.54524 0.37299 0.0
H2585 H 0.25298 0.52694 0.34899 0.0
C2586 C 0.25105 0.55607 0.36727 0.0
C2587 C 0.25132 0.5346 0.36635 0.0
C2588 C 0.25073 0.52271 0.3721 0.0
C2589 C 0.25224 0.55657 0.355 0.0
C2590 C 0.253 0.54592 0.34836 0.0
C2591 C 0.2524 0.53508 0.35411 0.0
C2592 C 0.25565 0.54571 0.33564 0.0
C2593 C 0.25325 0.56846 0.34934 0.0
C2594 C 0.24812 0.55077 0.32727 0.0
C2595 C 0.25107 0.55064 0.31534 0.0
C2596 C 0.26149 0.54519 0.31155 0.0
C2597 C 0.26864 0.53967 0.32 0.0
C2598 C 0.26583 0.54006 0.33188 0.0
H2599 H 0.25424 0.57577 0.35598 0.0
H2600 H 0.26094 0.56874 0.34341 0.0
H2601 H 0.24519 0.57004 0.34396 0.0
H2602 H 0.24 0.55485 0.32995 0.0
H2603 H 0.24529 0.555 0.30917 0.0
H2604 H 0.43327 0.67139 0.91328 0.0
H2605 H 0.4259 0.66957 0.89285 0.0
H2606 H 0.46063 0.67848 0.88046 0.0
H2607 H 0.46804 0.68012 0.9007 0.0
H2608 H 0.42547 0.68711 0.8767 0.0
H2609 H 0.45264 0.65077 0.85912 0.0
H2610 H 0.4496 0.65263 0.87462 0.0
H2611 H 0.46079 0.66155 0.8679 0.0
C2612 C 0.43938 0.67269 0.90618 0.0
C2613 C 0.45129 0.67579 0.90864 0.0
C2614 C 0.43515 0.67168 0.89452 0.0
C2615 C 0.44275 0.67368 0.88509 0.0
C2616 C 0.45467 0.67649 0.88754 0.0
H2617 H 0.43791 0.68624 0.81041 0.0
H2618 H 0.44364 0.68457 0.83113 0.0
C2619 C 0.45892 0.67742 0.89916 0.0
C2620 C 0.43815 0.67376 0.87273 0.0
H2621 H 0.44312 0.66273 0.84504 0.0
C2622 C 0.4292 0.68166 0.8698 0.0
C2623 C 0.44303 0.66665 0.86373 0.0
C2624 C 0.45196 0.65733 0.86647 0.0
C2625 C 0.42532 0.68293 0.85806 0.0
C2626 C 0.4305 0.67611 0.84903 0.0
C2627 C 0.43928 0.66805 0.85198 0.0
C2628 C 0.4269 0.67716 0.83645 0.0
C2629 C 0.41604 0.69189 0.85529 0.0
C2630 C 0.41565 0.67335 0.83251 0.0
C2631 C 0.41239 0.67402 0.82058 0.0
C2632 C 0.42029 0.67861 0.81229 0.0
C2633 C 0.43159 0.68245 0.81636 0.0
C2634 C 0.43488 0.68162 0.82827 0.0
H2635 H 0.41388 0.69742 0.86312 0.0
H2636 H 0.4191 0.69773 0.84817 0.0
H2637 H 0.40783 0.68729 0.8521 0.0
H2638 H 0.40944 0.66965 0.83864 0.0
H2639 H 0.40373 0.67069 0.81787 0.0
H2640 H 0.97501 0.26805 0.96083 0.0
H2641 H 0.97952 0.28823 0.95609 0.0
H2642 H 0.01157 0.29015 0.98377 0.0
H2643 H 1.00209 0.27004 0.98849 0.0
H2644 H 0.97635 0.30704 0.97089 0.0
H2645 H 0.02922 0.30712 0.95877 0.0
H2646 H 0.01976 0.29416 0.95719 0.0
H2647 H 0.0257 0.29859 0.97142 0.0
C2648 C 0.98192 0.27243 0.96599 0.0
C2649 C 0.98777 0.26685 0.9755 0.0
C2650 C 0.98451 0.28419 0.96313 0.0
C2651 C 0.99313 0.29083 0.96952 0.0
C2652 C 0.99943 0.28525 0.9785 0.0
H2653 H 0.01844 0.36634 0.97462 0.0
H2654 H 0.0154 0.34532 0.97882 0.0
C2655 C 0.99693 0.2735 0.98134 0.0
C2656 C 0.99468 0.30382 0.96768 0.0
H2657 H 0.02079 0.32564 0.96257 0.0
C2658 C 0.98483 0.31107 0.96895 0.0
C2659 C 0.01137 0.30918 0.96528 0.0
C2660 C 0.02212 0.3019 0.96297 0.0
C2661 C 0.98577 0.32343 0.96808 0.0
C2662 C 0.99685 0.32879 0.96575 0.0
C2663 C 0.01233 0.32158 0.9645 0.0
C2664 C 0.99818 0.34176 0.96377 0.0
C2665 C 0.97497 0.33074 0.97004 0.0
C2666 C 0.99265 0.34683 0.95397 0.0
C2667 C 0.99435 0.3588 0.95155 0.0
C2668 C 1.00172 0.3661 0.95881 0.0
C2669 C 0.01268 0.36106 0.96882 0.0
C2670 C 0.011 0.34901 0.97121 0.0
H2671 H 0.9675 0.32542 0.97346 0.0
H2672 H 0.97707 0.3381 0.97637 0.0
H2673 H 0.97207 0.33463 0.9616 0.0
H2674 H 0.98717 0.34144 0.948 0.0
H2675 H 0.98987 0.36234 0.94392 0.0
H2676 H 0.68591 0.37494 0.25585 0.0
H2677 H 0.68436 0.35408 0.2521 0.0
H2678 H 0.68802 0.34754 0.28919 0.0
H2679 H 0.68931 0.36811 0.29346 0.0
H2680 H 0.7007 0.33652 0.25794 0.0
H2681 H 0.65809 0.32885 0.28045 0.0
H2682 H 0.66245 0.34306 0.27486 0.0
H2683 H 0.66877 0.33792 0.28843 0.0
C2684 C 0.68631 0.3694 0.26343 0.0
C2685 C 0.68761 0.37394 0.27514 0.0
C2686 C 0.68542 0.35727 0.26113 0.0
C2687 C 0.68577 0.34934 0.27039 0.0
C2688 C 0.68736 0.35359 0.28194 0.0
H2689 H 0.68632 0.2739 0.27776 0.0
H2690 H 0.68625 0.2952 0.281 0.0
C2691 C 0.68819 0.36565 0.2843 0.0
C2692 C 0.68483 0.33655 0.26808 0.0
H2693 H 0.66861 0.31201 0.2747 0.0
C2694 C 0.69362 0.33116 0.26147 0.0
C2695 C 0.67563 0.32964 0.27283 0.0
C2696 C 0.66563 0.33513 0.27947 0.0
C2697 C 0.69358 0.31891 0.25966 0.0
C2698 C 0.6844 0.31201 0.26446 0.0
C2699 C 0.67562 0.3174 0.27107 0.0
C2700 C 0.68369 0.29917 0.26257 0.0
C2701 C 0.70355 0.31336 0.25302 0.0
C2702 C 0.68176 0.29443 0.25121 0.0
C2703 C 0.68216 0.28228 0.24922 0.0
C2704 C 0.68426 0.27465 0.25865 0.0
C2705 C 0.68512 0.27947 0.2702 0.0
C2706 C 0.685 0.29164 0.27212 0.0
H2707 H 0.7108 0.3198 0.25133 0.0
H2708 H 0.70718 0.3059 0.25805 0.0
H2709 H 0.70019 0.30981 0.24439 0.0
H2710 H 0.68039 0.30017 0.2438 0.0
H2711 H 0.6815 0.27901 0.24021 0.0
H2712 H 0.66805 0.91338 0.43439 0.0
H2713 H 0.66597 0.89283 0.42702 0.0
H2714 H 0.68418 0.88097 0.45824 0.0
H2715 H 0.68567 0.90121 0.4658 0.0
H2716 H 0.68332 0.87735 0.42186 0.0
H2717 H 0.65678 0.85836 0.45773 0.0
H2718 H 0.65686 0.87388 0.45438 0.0
H2719 H 0.66874 0.86776 0.46289 0.0
C2720 C 0.67126 0.90629 0.43978 0.0
C2721 C 0.67668 0.90878 0.45083 0.0
C2722 C 0.67015 0.8946 0.43555 0.0
C2723 C 0.67461 0.8853 0.44224 0.0
C2724 C 0.68019 0.88789 0.45316 0.0
H2725 H 0.68964 0.81127 0.43541 0.0
H2726 H 0.68809 0.83209 0.44116 0.0
C2727 C 0.68106 0.89947 0.45747 0.0
C2728 C 0.67415 0.87292 0.43767 0.0
H2729 H 0.66687 0.8448 0.44554 0.0
C2730 C 0.67955 0.87025 0.42693 0.0
C2731 C 0.66925 0.86364 0.44431 0.0
C2732 C 0.66247 0.86603 0.4554 0.0
C2733 C 0.68062 0.85851 0.42291 0.0
C2734 C 0.67611 0.84923 0.42978 0.0
C2735 C 0.67046 0.85192 0.44037 0.0
C2736 C 0.67715 0.83664 0.42616 0.0
C2737 C 0.68704 0.85607 0.41161 0.0
C2738 C 0.67133 0.83223 0.41593 0.0
C2739 C 0.67213 0.82032 0.41265 0.0
C2740 C 0.6787 0.81252 0.41957 0.0
C2741 C 0.68441 0.81696 0.42991 0.0
C2742 C 0.6836 0.82889 0.43318 0.0
H2743 H 0.69141 0.86413 0.40819 0.0
H2744 H 0.6938 0.84925 0.41303 0.0
H2745 H 0.68069 0.85264 0.40476 0.0
H2746 H 0.66603 0.83798 0.41056 0.0
H2747 H 0.66739 0.8172 0.40479 0.0
H2748 H 0.99203 0.78833 0.73123 0.0
H2749 H 0.99214 0.80868 0.72453 0.0
H2750 H 0.0303 0.80268 0.70643 0.0
H2751 H 0.03012 0.78221 0.71293 0.0
H2752 H 0.0143 0.82542 0.73003 0.0
H2753 H 0.01192 0.81948 0.68122 0.0
H2754 H 1.00147 0.80817 0.69114 0.0
H2755 H 0.02255 0.81065 0.68876 0.0
C2756 C 0.99917 0.79131 0.72574 0.0
C2757 C 0.0139 0.78367 0.72266 0.0
C2758 C 0.99919 0.80294 0.72188 0.0
C2759 C 0.01395 0.8072 0.71485 0.0
C2760 C 0.02298 0.79953 0.71157 0.0
H2761 H 0.02742 0.87863 0.68907 0.0
H2762 H 0.03032 0.85835 0.69551 0.0
C2763 C 0.0229 0.78784 0.71535 0.0
C2764 C 0.01442 0.81988 0.71176 0.0
H2765 H 0.0148 0.83881 0.68866 0.0
C2766 C 0.0144 0.82834 0.72098 0.0
C2767 C 0.01463 0.8237 0.69995 0.0
C2768 C 0.01395 0.81507 0.68966 0.0
C2769 C 0.01451 0.84046 0.71872 0.0
C2770 C 0.01459 0.84425 0.70693 0.0
C2771 C 0.01486 0.83585 0.6977 0.0
C2772 C 0.01341 0.85684 0.70393 0.0
C2773 C 0.01466 0.84916 0.72895 0.0
C2774 C 0.99735 0.86268 0.70654 0.0
C2775 C 0.99559 0.87416 0.70277 0.0
C2776 C 1.00425 0.8801 0.69627 0.0
C2777 C 0.02049 0.87431 0.69393 0.0
C2778 C 0.02221 0.86275 0.69766 0.0
H2779 H 0.01662 0.84486 0.73747 0.0
H2780 H 0.02134 0.85626 0.72757 0.0
H2781 H 1.0003 0.85333 0.7296 0.0
H2782 H 0.99031 0.85818 0.7111 0.0
H2783 H 0.98716 0.87812 0.7045 0.0
H2784 H 0.0235 0.40233 0.53314 0.0
H2785 H 0.02052 0.38152 0.52857 0.0
H2786 H 0.97729 0.38605 0.52798 0.0
H2787 H 0.97994 0.40694 0.5311 0.0
H2788 H 1.00303 0.36416 0.54071 0.0
H2789 H 0.98115 0.36924 0.49688 0.0
H2790 H 0.99071 0.38049 0.50358 0.0
H2791 H 0.97576 0.37869 0.50835 0.0
C2792 C 0.01453 0.39919 0.53173 0.0
C2793 C 0.9992 0.40687 0.53244 0.0
C2794 C 0.01288 0.38709 0.52926 0.0
C2795 C 0.99588 0.38223 0.52764 0.0
C2796 C 0.9862 0.38963 0.52881 0.0
H2797 H 0.96989 0.30919 0.51217 0.0
H2798 H 0.97019 0.33024 0.51843 0.0
C2799 C 0.9878 0.40173 0.53092 0.0
C2800 C 0.99395 0.36944 0.52489 0.0
H2801 H 0.98077 0.35024 0.50483 0.0
C2802 C 0.9982 0.36112 0.53285 0.0
C2803 C 0.98758 0.36546 0.51465 0.0
C2804 C 0.98362 0.3739 0.5053 0.0
C2805 C 0.99616 0.34897 0.53089 0.0
C2806 C 0.98979 0.34503 0.52067 0.0
C2807 C 0.98542 0.35332 0.51278 0.0
C2808 C 0.98916 0.33236 0.51717 0.0
C2809 C 1.00069 0.34036 0.53982 0.0
C2810 C 0.9996 0.32678 0.51409 0.0
C2811 C 0.99945 0.31495 0.51063 0.0
C2812 C 0.98883 0.30839 0.51003 0.0
C2813 C 0.97821 0.31404 0.5127 0.0
C2814 C 0.97838 0.32599 0.51629 0.0
H2815 H 1.00399 0.34488 0.54805 0.0
H2816 H 0.99358 0.33397 0.54204 0.0
H2817 H 0.01366 0.3353 0.53605 0.0
H2818 H 0.01354 0.33162 0.51431 0.0
H2819 H 0.01332 0.31092 0.5083 0.0
H2820 H 1.00369 0.79464 0.17119 0.0
H2821 H 1.00089 0.81568 0.17562 0.0
H2822 H 0.99257 0.82145 0.13894 0.0
H2823 H 0.99482 0.80028 0.13465 0.0
H2824 H 0.01718 0.83556 0.16801 0.0
H2825 H 0.96437 0.83628 0.15374 0.0
H2826 H 0.97181 0.82278 0.15715 0.0
H2827 H 0.97421 0.82985 0.14332 0.0
C2828 C 1.00119 0.80042 0.16411 0.0
C2829 C 0.99924 0.79582 0.15263 0.0
C2830 C 0.99961 0.81245 0.16663 0.0
C2831 C 0.99616 0.82017 0.15769 0.0
C2832 C 0.99475 0.81565 0.1461 0.0
H2833 H 0.98834 0.89699 0.15918 0.0
H2834 H 0.98873 0.87616 0.15291 0.0
C2835 C 0.99613 0.80357 0.14362 0.0
C2836 C 0.99408 0.83291 0.16056 0.0
H2837 H 0.97327 0.85448 0.15946 0.0
C2838 C 1.00317 0.83965 0.16616 0.0
C2839 C 0.98313 0.83835 0.15816 0.0
C2840 C 0.97277 0.83146 0.15286 0.0
C2841 C 1.00164 0.85159 0.16932 0.0
C2842 C 0.9907 0.85697 0.16696 0.0
C2843 C 0.98165 0.85034 0.16125 0.0
C2844 C 0.98859 0.86943 0.17061 0.0
C2845 C 0.01741 0.85851 0.17499 0.0
C2846 C 0.98779 0.87254 0.18261 0.0
C2847 C 0.98752 0.88442 0.18623 0.0
C2848 C 0.98809 0.89345 0.17791 0.0
C2849 C 0.98805 0.89026 0.16583 0.0
C2850 C 0.98825 0.87836 0.16222 0.0
H2851 H 0.02572 0.85346 0.17503 0.0
H2852 H 0.01888 0.86687 0.17024 0.0
H2853 H 0.01527 0.86083 0.18424 0.0
H2854 H 0.98791 0.86578 0.18923 0.0
H2855 H 0.98762 0.88653 0.19559 0.0
H2856 H 0.69222 0.82459 0.99475 0.0
H2857 H 0.69072 0.84497 0.99012 0.0
H2858 H 0.72845 0.84934 0.99254 0.0
H2859 H 0.73041 0.82895 0.99767 0.0
H2860 H 0.69837 0.86448 1.00403 0.0
H2861 H 0.72027 0.86394 0.96046 0.0
H2862 H 0.71368 0.85086 0.96663 0.0
H2863 H 0.72757 0.85652 0.97234 0.0
C2864 C 0.70039 0.82955 0.99455 0.0
C2865 C 0.71151 0.82446 0.99688 0.0
C2866 C 0.69941 0.84142 0.99171 0.0
C2867 C 0.70945 0.84866 0.99083 0.0
C2868 C 0.72056 0.84384 0.99295 0.0
H2869 H 0.71154 0.92387 0.97159 0.0
H2870 H 0.71783 0.90461 0.97901 0.0
C2871 C 0.7216 0.83196 0.99596 0.0
C2872 C 0.70812 0.86135 0.9882 0.0
H2873 H 0.71346 0.88214 0.96743 0.0
C2874 C 0.70174 0.86837 0.99606 0.0
C2875 C 0.71253 0.8664 0.97781 0.0
C2876 C 0.71884 0.85908 0.96874 0.0
C2877 C 0.69951 0.88025 0.99375 0.0
C2878 C 0.70371 0.88524 0.98325 0.0
C2879 C 0.71039 0.87833 0.97555 0.0
C2880 C 0.70014 0.89713 0.97946 0.0
C2881 C 0.69267 0.88739 1.00257 0.0
C2882 C 0.68819 0.89921 0.9771 0.0
C2883 C 0.68462 0.91008 0.97292 0.0
C2884 C 0.69293 0.91913 0.97085 0.0
C2885 C 0.70496 0.91705 0.97308 0.0
C2886 C 0.70854 0.9061 0.97737 0.0
H2887 H 0.69239 0.88336 0.01652 0.0
H2888 H 0.69687 0.89624 1.00398 0.0
H2889 H 0.68356 0.88864 0.99915 0.0
H2890 H 0.68159 0.89231 0.97825 0.0
H2891 H 0.67532 0.91132 0.97106 0.0
H2892 H 0.67319 0.24894 0.72616 0.0
H2893 H 0.68293 0.26567 0.71728 0.0
H2894 H 0.71684 0.25261 0.72808 0.0
H2895 H 0.70717 0.23526 0.73646 0.0
H2896 H 0.69616 0.28181 0.7304 0.0
H2897 H 0.72337 0.26341 0.69426 0.0
H2898 H 0.71037 0.2558 0.69942 0.0
H2899 H 0.72369 0.25611 0.70821 0.0
C2900 C 0.68273 0.24929 0.72636 0.0
C2901 C 0.6893 0.24056 0.73207 0.0
C2902 C 0.68831 0.259 0.72133 0.0
C2903 C 0.70063 0.26042 0.72188 0.0
C2904 C 0.70733 0.25165 0.72732 0.0
H2905 H 0.74141 0.32423 0.70372 0.0
H2906 H 0.73592 0.30456 0.71041 0.0
C2907 C 0.70173 0.2418 0.7323 0.0
C2908 C 0.70607 0.27172 0.71787 0.0
H2909 H 0.72416 0.284 0.69738 0.0
C2910 C 0.70231 0.28226 0.72319 0.0
C2911 C 0.71417 0.27234 0.70852 0.0
C2912 C 0.71814 0.26135 0.70217 0.0
C2913 C 0.70617 0.29333 0.7193 0.0
C2914 C 0.71403 0.29399 0.70979 0.0
C2915 C 0.71813 0.28348 0.70468 0.0
C2916 C 0.71764 0.30557 0.70484 0.0
C2917 C 0.70183 0.3043 0.72544 0.0
C2918 C 0.70928 0.31258 0.69916 0.0
C2919 C 0.7124 0.32379 0.69511 0.0
C2920 C 0.72398 0.32836 0.69671 0.0
C2921 C 0.73243 0.3211 0.70214 0.0
C2922 C 0.7293 0.30982 0.70607 0.0
H2923 H 0.69721 0.30227 0.73374 0.0
H2924 H 0.70934 0.31047 0.72752 0.0
H2925 H 0.69557 0.30887 0.71953 0.0
H2926 H 0.70026 0.3094 0.69791 0.0
H2927 H 0.70567 0.32884 0.69071 0.0
H2928 H 0.54302 0.01995 0.40153 0.0
H2929 H 0.53894 0.01708 0.3803 0.0
H2930 H 0.51771 0.98078 0.38745 0.0
H2931 H 0.52138 0.98376 0.40853 0.0
H2932 H 0.54399 0.99115 0.36605 0.0
H2933 H 0.49565 0.99898 0.36598 0.0
H2934 H 0.50576 0.01085 0.37696 0.0
H2935 H 0.50136 0.99021 0.37772 0.0
C2936 C 0.53739 0.01261 0.39859 0.0
C2937 C 0.53257 0.99932 0.40679 0.0
C2938 C 0.53511 0.01096 0.38644 0.0
C2939 C 0.52785 0.9961 0.38227 0.0
C2940 C 0.52309 0.98828 0.39044 0.0
H2941 H 0.49941 0.97406 0.31356 0.0
H2942 H 0.50612 0.9736 0.33378 0.0
C2943 C 0.52535 0.98991 0.40251 0.0
C2944 C 0.52563 0.99399 0.36942 0.0
H2945 H 0.50358 0.9915 0.34852 0.0
C2946 C 0.53517 0.9913 0.36218 0.0
C2947 C 0.5141 0.99399 0.36441 0.0
C2948 C 0.50358 0.9974 0.3716 0.0
C2949 C 0.53348 0.98848 0.35011 0.0
C2950 C 0.52195 0.98866 0.34506 0.0
C2951 C 0.51241 0.99124 0.35236 0.0
C2952 C 0.51956 0.9872 0.33212 0.0
C2953 C 0.54399 0.98494 0.34299 0.0
C2954 C 0.52518 0.99461 0.32414 0.0
C2955 C 0.52166 0.99467 0.31226 0.0
C2956 C 0.51194 0.98773 0.308 0.0
C2957 C 0.50679 0.97977 0.31601 0.0
C2958 C 0.51059 0.97948 0.32783 0.0
H2959 H 0.55138 0.98198 0.34873 0.0
H2960 H 0.54157 0.97773 0.33658 0.0
H2961 H 0.54727 0.99262 0.33802 0.0
H2962 H 0.53197 1.00085 0.32717 0.0
H2963 H 0.52648 1.00055 0.30667 0.0
H2964 H 0.25137 0.73069 0.67272 0.0
H2965 H 0.2683 0.72199 0.6825 0.0
H2966 H 0.25095 0.72465 0.71591 0.0
H2967 H 0.23366 0.7332 0.70605 0.0
H2968 H 0.28175 0.73362 0.7001 0.0
H2969 H 0.26434 0.6907 0.71622 0.0
H2970 H 0.25756 0.6981 0.70393 0.0
H2971 H 0.25569 0.70367 0.71866 0.0
C2972 C 0.25096 0.72918 0.6821 0.0
C2973 C 0.24104 0.73258 0.68853 0.0
C2974 C 0.26072 0.72425 0.68772 0.0
C2975 C 0.26091 0.72251 0.69993 0.0
C2976 C 0.25097 0.7257 0.70645 0.0
H2977 H 0.323 0.70017 0.74142 0.0
H2978 H 0.30338 0.70679 0.73609 0.0
C2979 C 0.24113 0.73071 0.7008 0.0
C2980 C 0.27199 0.71834 0.70571 0.0
H2981 H 0.28448 0.69505 0.7198 0.0
C2982 C 0.28231 0.72522 0.70447 0.0
C2983 C 0.27274 0.70739 0.71147 0.0
C2984 C 0.26204 0.69944 0.71265 0.0
C2985 C 0.29334 0.72135 0.70852 0.0
C2986 C 0.29418 0.71027 0.71397 0.0
C2987 C 0.28382 0.70355 0.71563 0.0
C2988 C 0.30585 0.70534 0.7173 0.0
C2989 C 0.3041 0.72912 0.70688 0.0
C2990 C 0.3137 0.70193 0.70852 0.0
C2991 C 0.32489 0.69772 0.71148 0.0
C2992 C 0.32875 0.69702 0.72336 0.0
C2993 C 0.32063 0.70029 0.73215 0.0
C2994 C 0.30931 0.70424 0.72915 0.0
H2995 H 0.30175 0.73813 0.70407 0.0
H2996 H 0.30939 0.72982 0.71521 0.0
H2997 H 0.30974 0.72514 0.70003 0.0
H2998 H 0.31115 0.70251 0.6993 0.0
H2999 H 0.3304 0.69497 0.70429 0.0
H3000 H 0.17274 0.23943 0.77161 0.0
H3001 H 0.16729 0.24279 0.79165 0.0
H3002 H 0.19009 0.27358 0.79399 0.0
H3003 H 0.19489 0.27107 0.77313 0.0
H3004 H 0.18488 0.24161 0.80881 0.0
H3005 H 0.16049 0.28369 0.81258 0.0
H3006 H 0.16036 0.27484 0.79915 0.0
H3007 H 0.17327 0.28339 0.80337 0.0
C3008 C 0.17626 0.24733 0.77595 0.0
C3009 C 0.18431 0.25501 0.7704 0.0
C3010 C 0.17319 0.24911 0.78763 0.0
C3011 C 0.17827 0.25839 0.79433 0.0
C3012 C 0.18595 0.26641 0.78891 0.0
H3013 H 0.17877 0.27095 0.87001 0.0
H3014 H 0.18192 0.27149 0.84881 0.0
C3015 C 0.18885 0.26481 0.777 0.0
C3016 C 0.17662 0.25848 0.80726 0.0
H3017 H 0.16454 0.27368 0.83018 0.0
C3018 C 0.18044 0.24863 0.8135 0.0
C3019 C 0.17076 0.2676 0.81329 0.0
C3020 C 0.16589 0.27798 0.80681 0.0
C3021 C 0.17859 0.24765 0.82563 0.0
C3022 C 0.17277 0.25679 0.83172 0.0
C3023 C 0.16903 0.2667 0.8255 0.0
C3024 C 0.1707 0.25633 0.84461 0.0
C3025 C 0.18309 0.23695 0.83187 0.0
C3026 C 0.1632 0.24769 0.84931 0.0
C3027 C 0.16124 0.24742 0.86147 0.0
C3028 C 0.16671 0.25582 0.86922 0.0
C3029 C 0.17418 0.26447 0.86439 0.0
C3030 C 0.17609 0.26475 0.85224 0.0
H3031 H 0.18877 0.23147 0.82615 0.0
H3032 H 0.18823 0.23969 0.83992 0.0
H3033 H 0.17552 0.23138 0.83461 0.0
H3034 H 0.15875 0.24123 0.84355 0.0
H3035 H 0.1553 0.24072 0.86476 0.0
H3036 H 0.36539 0.54813 0.23719 0.0
H3037 H 0.38633 0.54276 0.23801 0.0
H3038 H 0.37682 0.50978 0.25398 0.0
H3039 H 0.35595 0.51518 0.25324 0.0
H3040 H 0.40032 0.53706 0.2583 0.0
H3041 H 0.39725 0.49945 0.22611 0.0
H3042 H 0.38685 0.51135 0.22616 0.0
H3043 H 0.38587 0.49997 0.23692 0.0
C3044 C 0.36783 0.53975 0.24088 0.0
C3045 C 0.35914 0.53208 0.24524 0.0
C3046 C 0.37975 0.53669 0.24134 0.0
C3047 C 0.38311 0.52581 0.24592 0.0
C3048 C 0.37441 0.51814 0.25025 0.0
H3049 H 0.44795 0.48772 0.25289 0.0
H3050 H 0.42827 0.49535 0.25617 0.0
C3051 C 0.36252 0.52127 0.24994 0.0
C3052 C 0.39573 0.52256 0.24648 0.0
H3053 H 0.41508 0.50196 0.2368 0.0
C3054 C 0.40359 0.52942 0.25358 0.0
C3055 C 0.39995 0.51263 0.24024 0.0
C3056 C 0.39211 0.50545 0.23184 0.0
C3057 C 0.41552 0.5264 0.25487 0.0
C3058 C 0.41966 0.51629 0.24885 0.0
C3059 C 0.41182 0.50956 0.24161 0.0
C3060 C 0.43216 0.51268 0.24943 0.0
C3061 C 0.4235 0.53383 0.26292 0.0
C3062 C 0.44104 0.52008 0.24513 0.0
C3063 C 0.45243 0.5159 0.24366 0.0
C3064 C 0.45508 0.50402 0.24589 0.0
C3065 C 0.44635 0.49688 0.25101 0.0
C3066 C 0.43501 0.5012 0.25279 0.0
H3067 H 0.41845 0.53996 0.26858 0.0
H3068 H 0.42893 0.52812 0.26864 0.0
H3069 H 0.42958 0.5392 0.25756 0.0
H3070 H 0.43905 0.5289 0.24227 0.0
H3071 H 0.45899 0.52188 0.24017 0.0
H3072 H 0.54762 0.2563 0.36397 0.0
H3073 H 0.54244 0.25716 0.38492 0.0
H3074 H 0.51074 0.23666 0.37701 0.0
H3075 H 0.51607 0.23544 0.35628 0.0
H3076 H 0.52363 0.26633 0.39576 0.0
H3077 H 0.52368 0.21818 0.40383 0.0
H3078 H 0.53098 0.22466 0.39143 0.0
H3079 H 0.51525 0.22211 0.39102 0.0
C3080 C 0.53957 0.25196 0.36675 0.0
C3081 C 0.53231 0.24572 0.35851 0.0
C3082 C 0.53663 0.25242 0.3787 0.0
C3083 C 0.52635 0.24672 0.38261 0.0
C3084 C 0.51894 0.24076 0.37433 0.0
H3085 H 0.48555 0.24161 0.44487 0.0
H3086 H 0.49313 0.24388 0.42494 0.0
C3087 C 0.52195 0.24015 0.36245 0.0
C3088 C 0.52311 0.24732 0.39526 0.0
H3089 H 0.51503 0.23027 0.4184 0.0
C3090 C 0.52189 0.25844 0.40075 0.0
C3091 C 0.5209 0.23702 0.40182 0.0
C3092 C 0.52287 0.22482 0.39679 0.0
C3093 C 0.51811 0.25953 0.41245 0.0
C3094 C 0.51545 0.24925 0.41877 0.0
C3095 C 0.51696 0.23814 0.41344 0.0
C3096 C 0.51058 0.24971 0.43078 0.0
C3097 C 0.51659 0.27161 0.41791 0.0
C3098 C 0.51786 0.25247 0.44063 0.0
C3099 C 0.51356 0.2511 0.45203 0.0
C3100 C 0.50189 0.24711 0.45369 0.0
C3101 C 0.49448 0.24496 0.44381 0.0
C3102 C 0.49882 0.24616 0.43245 0.0
H3103 H 0.5182 0.27876 0.41153 0.0
H3104 H 0.50751 0.27242 0.42134 0.0
H3105 H 0.52285 0.27286 0.42549 0.0
H3106 H 0.527 0.25509 0.4395 0.0
H3107 H 0.51947 0.25263 0.45954 0.0
H3108 H 0.46118 0.73268 0.48308 0.0
H3109 H 0.44333 0.72495 0.47253 0.0
H3110 H 0.42474 0.72444 0.50535 0.0
H3111 H 0.44225 0.73222 0.51578 0.0
H3112 H 0.42791 0.7034 0.47733 0.0
H3113 H 0.40506 0.746 0.48361 0.0
H3114 H 0.42095 0.74498 0.48325 0.0
H3115 H 0.41314 0.74088 0.49623 0.0
C3116 C 0.45327 0.73088 0.48799 0.0
C3117 C 0.4531 0.73303 0.50026 0.0
C3118 C 0.44314 0.72642 0.48199 0.0
C3119 C 0.43271 0.72427 0.48817 0.0
C3120 C 0.43267 0.72614 0.50041 0.0
H3121 H 0.36159 0.70183 0.48334 0.0
H3122 H 0.38152 0.70788 0.48816 0.0
C3123 C 0.44272 0.73051 0.50637 0.0
C3124 C 0.42156 0.72061 0.48202 0.0
H3125 H 0.39313 0.72939 0.4781 0.0
C3126 C 0.42035 0.70913 0.47725 0.0
C3127 C 0.41174 0.72812 0.48198 0.0
C3128 C 0.41274 0.74072 0.48644 0.0
C3129 C 0.40933 0.70479 0.47296 0.0
C3130 C 0.39942 0.71216 0.47344 0.0
C3131 C 0.40076 0.72375 0.47781 0.0
C3132 C 0.38737 0.70787 0.47017 0.0
C3133 C 0.40817 0.69221 0.4685 0.0
C3134 C 0.38395 0.70597 0.45837 0.0
C3135 C 0.37222 0.70296 0.45537 0.0
C3136 C 0.3636 0.70156 0.46416 0.0
C3137 C 0.3674 0.70313 0.47605 0.0
C3138 C 0.37902 0.70644 0.47896 0.0
H3139 H 0.41658 0.68738 0.4694 0.0
H3140 H 0.40122 0.68748 0.47344 0.0
H3141 H 0.40541 0.69208 0.45906 0.0
H3142 H 0.39028 0.70718 0.45143 0.0
H3143 H 0.37006 0.70212 0.44609 0.0
H3144 H 0.1714 0.01026 0.79472 0.0
H3145 H 0.17569 1.00206 0.81574 0.0
H3146 H 0.1397 0.99052 0.82082 0.0
H3147 H 0.13549 0.99278 0.79966 0.0
H3148 H 0.16722 0.01692 0.83565 0.0
H3149 H 0.15649 0.96348 0.83543 0.0
H3150 H 0.15942 0.9714 0.82211 0.0
H3151 H 0.14535 0.97255 0.82906 0.0
C3152 C 0.16435 1.00169 0.80034 0.0
C3153 C 0.15311 0.99883 0.79553 0.0
C3154 C 0.16686 1.00008 0.81236 0.0
C3155 C 0.15814 0.99571 0.81989 0.0
C3156 C 0.14674 0.99341 0.81517 0.0
H3157 H 0.15964 0.98714 0.89671 0.0
H3158 H 0.15332 0.98738 0.87585 0.0
C3159 C 0.14429 0.9948 0.80309 0.0
C3160 C 0.16102 0.99364 0.83262 0.0
H3161 H 0.16121 0.97248 0.85384 0.0
C3162 C 0.16584 1.003 0.83958 0.0
C3163 C 0.15937 0.98247 0.83786 0.0
C3164 C 0.15497 0.97185 0.83075 0.0
C3165 C 0.16895 1.00151 0.85153 0.0
C3166 C 0.16732 0.99036 0.8567 0.0
C3167 C 0.1624 0.98102 0.84986 0.0
C3168 C 0.17105 0.98831 0.86915 0.0
C3169 C 0.1739 0.01728 0.85867 0.0
C3170 C 0.18309 0.98819 0.87225 0.0
C3171 C 0.18671 0.98795 0.88411 0.0
C3172 C 0.17835 0.98793 0.89313 0.0
C3173 C 0.16628 0.9873 0.88996 0.0
C3174 C 0.16266 0.98741 0.87806 0.0
H3175 H 0.17344 0.02565 0.85374 0.0
H3176 H 0.16893 0.01829 0.86697 0.0
H3177 H 0.18327 0.01576 0.86111 0.0
H3178 H 0.18971 0.98877 0.86551 0.0
H3179 H 0.19607 0.98849 0.88624 0.0
H3180 H 0.40755 0.51543 0.01344 0.0
H3181 H 0.38637 0.51137 0.01041 0.0
H3182 H 0.3822 0.54484 0.98893 0.0
H3183 H 0.40345 0.5487 0.99147 0.0
H3184 H 0.3666 0.52209 0.01757 0.0
H3185 H 0.36788 0.52398 0.96336 0.0
H3186 H 0.38092 0.5221 0.97247 0.0
H3187 H 0.37443 0.53639 0.97121 0.0
C3188 C 0.40184 0.5216 1.00391 0.0
C3189 C 0.40702 0.53208 0.99979 0.0
C3190 C 0.38975 0.51927 1.00218 0.0
C3191 C 0.38256 0.52742 0.9964 0.0
C3192 C 0.38761 0.53819 0.99293 0.0
H3193 H 0.30606 0.52675 0.98337 0.0
H3194 H 0.3271 0.53257 0.98421 0.0
C3195 C 0.39974 0.54043 0.99446 0.0
C3196 C 0.36984 0.52459 0.99393 0.0
H3197 H 0.34911 0.52157 0.97165 0.0
C3198 C 0.36256 0.52164 1.00336 0.0
C3199 C 0.36493 0.52451 0.98233 0.0
C3200 C 0.37243 0.52681 0.97173 0.0
C3201 C 0.35055 0.51872 1.00151 0.0
C3202 C 0.34569 0.51865 0.98994 0.0
C3203 C 0.35288 0.5217 0.98051 0.0
C3204 C 0.33323 0.51497 0.98756 0.0
C3205 C 0.34335 0.51628 0.01729 0.0
C3206 C 0.3298 0.50309 0.98861 0.0
C3207 C 0.31787 0.49974 0.98797 0.0
C3208 C 0.30914 0.50823 0.98636 0.0
C3209 C 0.31263 0.52004 0.98464 0.0
C3210 C 0.32461 0.52337 0.98513 0.0
H3211 H 0.34814 0.51792 0.02582 0.0
H3212 H 0.33526 0.52166 0.01712 0.0
H3213 H 0.34054 0.50685 0.01679 0.0
H3214 H 0.33634 0.49648 0.99043 0.0
H3215 H 0.31542 0.49061 0.98945 0.0
H3216 H 0.77013 0.18447 0.27401 0.0
H3217 H 0.79099 0.1789 0.27695 0.0
H3218 H 0.79589 0.1797 0.23934 0.0
H3219 H 0.7755 0.18546 0.23645 0.0
H3220 H 0.80464 0.159 0.26577 0.0
H3221 H 0.8207 0.20348 0.25297 0.0
H3222 H 0.80625 0.2009 0.25899 0.0
H3223 H 0.80902 0.19716 0.24385 0.0
C3224 C 0.77577 0.18355 0.26645 0.0
C3225 C 0.77132 0.1855 0.25502 0.0
C3226 C 0.78758 0.18027 0.26811 0.0
C3227 C 0.79498 0.17906 0.25835 0.0
C3228 C 0.79038 0.18074 0.24698 0.0
H3229 H 0.86621 0.16787 0.23845 0.0
H3230 H 0.84521 0.17023 0.23972 0.0
C3231 C 0.77874 0.18402 0.24535 0.0
C3232 C 0.80771 0.17664 0.25973 0.0
H3233 H 0.83473 0.18826 0.25315 0.0
C3234 C 0.81128 0.16544 0.26326 0.0
C3235 C 0.81629 0.18503 0.25627 0.0
C3236 C 0.81293 0.19735 0.25289 0.0
C3237 C 0.82324 0.1623 0.26304 0.0
C3238 C 0.83178 0.17061 0.25927 0.0
C3239 C 0.82818 0.18187 0.25597 0.0
C3240 C 0.84453 0.16788 0.25853 0.0
C3241 C 0.8266 0.14995 0.26625 0.0
C3242 C 0.85125 0.16566 0.2687 0.0
C3243 C 0.86344 0.16388 0.26805 0.0
C3244 C 0.86939 0.16461 0.25721 0.0
C3245 C 0.86241 0.16687 0.24703 0.0
C3246 C 0.85021 0.16839 0.24769 0.0
H3247 H 0.81875 0.14414 0.26754 0.0
H3248 H 0.83211 0.14602 0.25925 0.0
H3249 H 0.83192 0.15022 0.27457 0.0
H3250 H 0.84711 0.16548 0.27723 0.0
H3251 H 0.86803 0.16197 0.27619 0.0
H3252 H 0.70574 0.74167 0.32457 0.0
H3253 H 0.71248 0.73656 0.30479 0.0
H3254 H 0.69659 0.70192 0.30747 0.0
H3255 H 0.68926 0.70712 0.32692 0.0
H3256 H 0.72767 0.71869 0.29848 0.0
H3257 H 0.6846 0.7112 0.27516 0.0
H3258 H 0.68627 0.72045 0.28826 0.0
H3259 H 0.68575 0.70467 0.28941 0.0
C3260 C 0.70339 0.73306 0.32088 0.0
C3261 C 0.69689 0.72484 0.32747 0.0
C3262 C 0.70737 0.73011 0.30957 0.0
C3263 C 0.70491 0.71891 0.30451 0.0
C3264 C 0.69838 0.71072 0.31101 0.0
H3265 H 0.72595 0.67393 0.24837 0.0
H3266 H 0.71714 0.68426 0.26475 0.0
C3267 C 0.69435 0.71367 0.32227 0.0
C3268 C 0.70967 0.71551 0.29274 0.0
H3269 H 0.70155 0.70413 0.26556 0.0
C3270 C 0.72195 0.71568 0.29122 0.0
C3271 C 0.70223 0.71163 0.28322 0.0
C3272 C 0.68897 0.71205 0.28399 0.0
C3273 C 0.72698 0.71154 0.28068 0.0
C3274 C 0.71955 0.7072 0.27134 0.0
C3275 C 0.70726 0.70741 0.27272 0.0
C3276 C 0.72437 0.70138 0.26057 0.0
C3277 C 0.74023 0.71124 0.27983 0.0
C3278 C 0.73116 0.70761 0.25242 0.0
C3279 C 0.73605 0.70174 0.24267 0.0
C3280 C 0.73438 0.68944 0.24087 0.0
C3281 C 0.72735 0.68338 0.24903 0.0
C3282 C 0.72234 0.68928 0.25861 0.0
H3283 H 0.74475 0.71369 0.28833 0.0
H3284 H 0.74303 0.70229 0.27705 0.0
H3285 H 0.74319 0.71753 0.27306 0.0
H3286 H 0.73269 0.71702 0.25361 0.0
H3287 H 0.74112 0.70691 0.23657 0.0
H3288 H 0.91298 0.97534 0.67547 0.0
H3289 H 0.89396 0.9822 0.68186 0.0
H3290 H 0.90322 0.9744 0.71788 0.0
H3291 H 0.92276 0.96795 0.71159 0.0
H3292 H 0.87815 0.96704 0.69265 0.0
H3293 H 0.88749 0.01241 0.72086 0.0
H3294 H 0.89725 1.00241 0.70939 0.0
H3295 H 0.89659 0.99444 0.72287 0.0
C3296 C 0.91122 0.9754 0.68482 0.0
C3297 C 0.91951 0.97113 0.693 0.0
C3298 C 0.90025 0.97927 0.68844 0.0
C3299 C 0.89719 0.97891 0.70034 0.0
C3300 C 0.90547 0.97493 0.70866 0.0
H3301 H 0.82675 0.99037 0.72877 0.0
H3302 H 0.8474 0.98527 0.72686 0.0
C3303 C 0.91657 0.9711 0.70503 0.0
C3304 C 0.88486 0.98148 0.70357 0.0
H3305 H 0.86752 1.00099 0.71831 0.0
C3306 C 0.87583 0.97443 0.69832 0.0
C3307 C 0.88187 0.99112 0.71096 0.0
C3308 C 0.89123 0.99928 0.71634 0.0
C3309 C 0.86391 0.97688 0.70005 0.0
C3310 C 0.8609 0.98662 0.70727 0.0
C3311 C 0.86989 0.99349 0.71283 0.0
C3312 C 0.84846 0.99014 0.70859 0.0
C3313 C 0.85458 0.96906 0.69413 0.0
C3314 C 0.84228 0.99485 0.69903 0.0
C3315 C 0.83055 0.9982 0.70014 0.0
C3316 C 0.82454 0.99669 0.71082 0.0
C3317 C 0.8309 0.99197 0.72043 0.0
C3318 C 0.84275 0.98888 0.71935 0.0
H3319 H 0.85836 0.96098 0.6901 0.0
H3320 H 0.84783 0.96642 0.70059 0.0
H3321 H 0.85006 0.97399 0.68705 0.0
H3322 H 0.84661 0.99606 0.69068 0.0
H3323 H 0.82633 1.00212 0.69258 0.0
H3324 H 0.73904 0.48316 0.45812 0.0
H3325 H 0.73166 0.47273 0.44023 0.0
H3326 H 0.71784 0.50523 0.42718 0.0
H3327 H 0.72576 0.51583 0.44436 0.0
H3328 H 0.70814 0.47093 0.42822 0.0
H3329 H 0.7414 0.49505 0.40198 0.0
H3330 H 0.74308 0.49302 0.41768 0.0
H3331 H 0.73335 0.50404 0.41211 0.0
C3332 C 0.73449 0.48813 0.45143 0.0
C3333 C 0.73315 0.50045 0.45275 0.0
C3334 C 0.73015 0.48209 0.44126 0.0
C3335 C 0.72439 0.48826 0.43229 0.0
C3336 C 0.72242 0.50033 0.43392 0.0
H3337 H 0.69535 0.48131 0.36276 0.0
H3338 H 0.70147 0.48667 0.38285 0.0
C3339 C 0.72686 0.50637 0.4439 0.0
C3340 C 0.72117 0.48251 0.42078 0.0
H3341 H 0.72613 0.4849 0.39131 0.0
C3342 C 0.71218 0.47382 0.42015 0.0
C3343 C 0.72649 0.48628 0.41028 0.0
C3344 C 0.73669 0.49503 0.41048 0.0
C3345 C 0.70802 0.46922 0.40918 0.0
C3346 C 0.71303 0.4734 0.39869 0.0
C3347 C 0.72225 0.48179 0.39938 0.0
C3348 C 0.70858 0.46961 0.38682 0.0
C3349 C 0.69794 0.46035 0.40879 0.0
C3350 C 0.71059 0.45822 0.38236 0.0
C3351 C 0.70737 0.45516 0.37069 0.0
C3352 C 0.70203 0.46344 0.36327 0.0
C3353 C 0.69971 0.47474 0.368 0.0
C3354 C 0.70307 0.47781 0.37957 0.0
H3355 H 0.69436 0.45873 0.41767 0.0
H3356 H 0.69073 0.46349 0.40295 0.0
H3357 H 0.70101 0.45186 0.40503 0.0
H3358 H 0.71501 0.45181 0.38777 0.0
H3359 H 0.70949 0.44644 0.36739 0.0
H3360 H 0.98847 0.69427 0.82235 0.0
H3361 H 0.98389 0.6922 0.84303 0.0
H3362 H 0.99898 0.72667 0.85078 0.0
H3363 H 1.00427 0.72868 0.83013 0.0
H3364 H 1.00043 0.69318 0.86235 0.0
H3365 H 0.96626 0.72763 0.86666 0.0
H3366 H 0.96944 0.72054 0.85271 0.0
H3367 H 0.9795 0.73144 0.85896 0.0
C3368 C 0.99107 0.7014 0.82837 0.0
C3369 C 0.99697 0.7116 0.82437 0.0
C3370 C 0.98826 0.70023 0.84024 0.0
C3371 C 0.99098 0.70931 0.84844 0.0
C3372 C 0.99661 0.71962 0.84456 0.0
H3373 H 0.97723 0.70983 0.92512 0.0
H3374 H 0.98467 0.71566 0.90567 0.0
C3375 C 0.99961 0.72075 0.83268 0.0
C3376 C 0.98843 0.70762 0.86112 0.0
H3377 H 0.97118 0.7172 0.88368 0.0
C3378 C 0.99408 0.69848 0.86704 0.0
C3379 C 0.98017 0.71455 0.86723 0.0
C3380 C 0.9734 0.72406 0.86111 0.0
C3381 C 0.99161 0.69599 0.87883 0.0
C3382 C 0.98316 0.70275 0.88487 0.0
C3383 C 0.97774 0.71211 0.87907 0.0
C3384 C 0.97896 0.69944 0.89672 0.0
C3385 C 0.99811 0.68618 0.88479 0.0
C3386 C 0.97311 0.68856 0.89806 0.0
C3387 C 0.96895 0.68527 0.90902 0.0
C3388 C 0.97032 0.69286 0.91889 0.0
C3389 C 0.97596 0.70389 0.91759 0.0
C3390 C 0.98026 0.70717 0.90654 0.0
H3391 H 0.01141 0.68324 0.87965 0.0
H3392 H 1.00122 0.68909 0.89374 0.0
H3393 H 0.99207 0.67846 0.88577 0.0
H3394 H 0.9717 0.6826 0.89056 0.0
H3395 H 0.96461 0.67673 0.90982 0.0
H3396 H 0.45592 0.76222 0.0206 0.0
H3397 H 0.45106 0.7827 0.02549 0.0
H3398 H 0.44717 0.78961 0.98311 0.0
H3399 H 0.45187 0.76924 0.97818 0.0
H3400 H 0.46383 0.80241 0.01913 0.0
H3401 H 0.41798 0.80495 0.99537 0.0
H3402 H 0.4243 0.79122 0.99998 0.0
H3403 H 0.428 0.79731 0.98598 0.0
C3404 C 0.45384 0.76814 0.01351 0.0
C3405 C 0.45405 0.76386 0.99631 0.0
C3406 C 0.45109 0.77984 0.01633 0.0
C3407 C 0.44841 0.78746 1.00201 0.0
C3408 C 0.44859 0.78351 0.99021 0.0
H3409 H 0.44419 0.8621 0.99158 0.0
H3410 H 0.44582 0.84052 0.99023 0.0
C3411 C 0.45127 0.77183 0.98739 0.0
C3412 C 0.44666 0.80016 1.00481 0.0
H3413 H 0.42832 0.82306 0.99916 0.0
C3414 C 0.45605 0.80698 0.01612 0.0
C3415 C 0.4365 0.80613 1.00088 0.0
C3416 C 0.42607 0.79956 0.9953 0.0
C3417 C 0.45545 0.81929 0.01778 0.0
C3418 C 0.44551 0.8253 0.0134 0.0
C3419 C 0.43599 0.81844 1.00239 0.0
C3420 C 0.44462 0.83833 0.01433 0.0
C3421 C 0.46568 0.82587 0.02371 0.0
C3422 C 0.44304 0.84399 0.0253 0.0
C3423 C 0.44198 0.85628 0.02605 0.0
C3424 C 0.4426 0.86309 0.01585 0.0
C3425 C 0.4438 0.85701 0.99955 0.0
C3426 C 0.44472 0.84473 0.99879 0.0
H3427 H 0.47319 0.82002 0.02569 0.0
H3428 H 0.46878 0.8331 0.018 0.0
H3429 H 0.46275 0.82993 0.03212 0.0
H3430 H 0.44251 0.83889 0.03325 0.0
H3431 H 0.44074 0.86049 0.03458 0.0
H3432 H 0.51724 0.44261 0.72998 0.0
H3433 H 0.50711 0.42484 0.72254 0.0
H3434 H 0.47352 0.44159 0.7266 0.0
H3435 H 0.48373 0.45972 0.73391 0.0
H3436 H 0.49088 0.4125 0.73639 0.0
H3437 H 0.471 0.42515 0.69323 0.0
H3438 H 0.4838 0.43277 0.69961 0.0
H3439 H 0.46951 0.43508 0.70568 0.0
C3440 C 0.50771 0.44268 0.72901 0.0
C3441 C 0.5013 0.45262 0.73244 0.0
C3442 C 0.50193 0.43247 0.72481 0.0
C3443 C 0.48959 0.43193 0.72391 0.0
C3444 C 0.48307 0.4419 0.72706 0.0
H3445 H 0.44771 0.36778 0.70741 0.0
H3446 H 0.45336 0.38793 0.71305 0.0
C3447 C 0.4889 0.45219 0.73133 0.0
C3448 C 0.48378 0.42047 0.72078 0.0
H3449 H 0.46825 0.40547 0.69899 0.0
C3450 C 0.48584 0.41098 0.72826 0.0
C3451 C 0.47725 0.41855 0.71016 0.0
C3452 C 0.47526 0.42837 0.70162 0.0
C3453 C 0.48182 0.39955 0.72527 0.0
C3454 C 0.47551 0.39756 0.71455 0.0
C3455 C 0.47306 0.40709 0.70723 0.0
C3456 C 0.472 0.3855 0.71053 0.0
C3457 C 0.48445 0.38962 0.73353 0.0
C3458 C 0.4806 0.37757 0.70694 0.0
C3459 C 0.47742 0.3661 0.70329 0.0
C3460 C 0.46554 0.36217 0.70338 0.0
C3461 C 0.45693 0.37031 0.70693 0.0
C3462 C 0.46012 0.38188 0.71032 0.0
H3463 H 0.48806 0.3929 0.74219 0.0
H3464 H 0.47631 0.38429 0.73501 0.0
H3465 H 0.49103 0.38372 0.72951 0.0
H3466 H 0.48982 0.38028 0.70689 0.0
H3467 H 0.48437 0.36043 0.7003 0.0
H3468 H 0.26526 0.35874 0.52857 0.0
H3469 H 0.26659 0.37937 0.52354 0.0
H3470 H 0.22899 0.3824 0.52695 0.0
H3471 H 0.22758 0.36241 0.53352 0.0
H3472 H 0.25701 0.39061 0.50513 0.0
H3473 H 0.23943 0.41043 0.54628 0.0
H3474 H 0.24496 0.39559 0.54561 0.0
H3475 H 0.23045 0.39873 0.5399 0.0
C3476 C 0.25724 0.36372 0.52872 0.0
C3477 C 0.24629 0.35845 0.53162 0.0
C3478 C 0.25804 0.3756 0.52561 0.0
C3479 C 0.24794 0.38253 0.52509 0.0
C3480 C 0.237 0.37736 0.52765 0.0
H3481 H 0.22607 0.44867 0.50163 0.0
H3482 H 0.22929 0.42889 0.50875 0.0
C3483 C 0.23621 0.36563 0.53115 0.0
C3484 C 0.2488 0.39506 0.52157 0.0
H3485 H 0.2415 0.42302 0.53005 0.0
C3486 C 0.25379 0.39772 0.51066 0.0
C3487 C 0.24458 0.40434 0.52879 0.0
C3488 C 0.23965 0.40219 0.54084 0.0
C3489 C 0.25426 0.40934 0.50659 0.0
C3490 C 0.24975 0.41852 0.51368 0.0
C3491 C 0.24504 0.41593 0.5247 0.0
C3492 C 0.24833 0.43058 0.50919 0.0
C3493 C 0.25897 0.41168 0.4945 0.0
C3494 C 0.25803 0.43809 0.50699 0.0
C3495 C 0.2562 0.44953 0.50285 0.0
C3496 C 0.24465 0.45352 0.50101 0.0
C3497 C 0.23506 0.44586 0.5031 0.0
C3498 C 0.23688 0.43457 0.50717 0.0
H3499 H 0.26117 0.40342 0.48966 0.0
H3500 H 0.25239 0.41654 0.4892 0.0
H3501 H 0.26708 0.4173 0.49533 0.0
H3502 H 0.26695 0.43517 0.50862 0.0
H3503 H 0.26372 0.45532 0.50137 0.0
H3504 H 0.24797 0.86443 0.14914 0.0
H3505 H 0.24864 0.843 0.15212 0.0
H3506 H 0.26745 0.84909 0.18512 0.0
H3507 H 0.26687 0.87044 0.18214 0.0
H3508 H 0.26908 0.82845 0.15561 0.0
H3509 H 0.23957 0.82739 0.19423 0.0
H3510 H 0.23903 0.83888 0.18343 0.0
H3511 H 0.25061 0.83898 0.19445 0.0
C3512 C 0.25224 0.86117 0.15702 0.0
C3513 C 0.25743 0.8691 0.16538 0.0
C3514 C 0.25263 0.84894 0.15871 0.0
C3515 C 0.25797 0.84444 0.16891 0.0
C3516 C 0.26314 0.85236 0.17726 0.0
H3517 H 0.26563 0.77647 0.20062 0.0
H3518 H 0.26894 0.79676 0.19467 0.0
C3519 C 0.26291 0.86454 0.1755 0.0
C3520 C 0.25837 0.83149 0.17081 0.0
H3521 H 0.24967 0.81007 0.18971 0.0
C3522 C 0.2648 0.8244 0.16303 0.0
C3523 C 0.25272 0.8262 0.18044 0.0
C3524 C 0.245 0.83319 0.18859 0.0
C3525 C 0.26604 0.81222 0.16487 0.0
C3526 C 0.26065 0.80703 0.17471 0.0
C3527 C 0.25403 0.8141 0.18232 0.0
C3528 C 0.26126 0.79423 0.17718 0.0
C3529 C 0.27342 0.8051 0.15651 0.0
C3530 C 0.25648 0.78587 0.16911 0.0
C3531 C 0.25505 0.77411 0.17229 0.0
C3532 C 0.2577 0.77051 0.18389 0.0
C3533 C 0.26334 0.77875 0.19167 0.0
C3534 C 0.26515 0.79046 0.18831 0.0
H3535 H 0.27883 0.81082 0.15078 0.0
H3536 H 0.27937 0.79922 0.16148 0.0
H3537 H 0.26757 0.7995 0.1507 0.0
H3538 H 0.25323 0.78852 0.16054 0.0
H3539 H 0.25129 0.76801 0.16575 0.0
H3540 H 1.00434 0.43805 0.75931 0.0
H3541 H 0.01491 0.43269 0.77985 0.0
H3542 H 0.99585 0.46596 0.79223 0.0
H3543 H 0.99086 0.4712 0.77201 0.0
H3544 H 0.02919 0.44626 0.79881 0.0
H3545 H 0.97615 0.44055 0.80942 0.0
H3546 H 0.98165 0.43866 0.79465 0.0
H3547 H 0.97981 0.4532 0.80083 0.0
C3548 C 1.00239 0.4441 0.76649 0.0
C3549 C 0.99702 0.45492 0.7642 0.0
C3550 C 0.01092 0.44111 0.77814 0.0
C3551 C 1.00275 0.44887 0.78754 0.0
C3552 C 0.99773 0.45978 0.78513 0.0
H3553 H 1.00208 0.45745 0.86213 0.0
H3554 H 1.00116 0.45874 0.84079 0.0
C3555 C 0.99487 0.46276 0.7736 0.0
C3556 C 1.00466 0.44561 0.80001 0.0
H3557 H 0.98963 0.44222 0.82555 0.0
C3558 C 0.02181 0.44513 0.80466 0.0
C3559 C 0.99499 0.44422 0.80758 0.0
C3560 C 0.98244 0.44408 0.8029 0.0
C3561 C 0.02389 0.44382 0.81684 0.0
C3562 C 0.01418 0.44291 0.82448 0.0
C3563 C 0.99706 0.44301 0.81971 0.0
C3564 C 0.01564 0.44232 0.8375 0.0
C3565 C 0.03642 0.44408 0.82156 0.0
C3566 C 0.02094 0.43263 0.84281 0.0
C3567 C 0.0218 0.43197 0.85513 0.0
C3568 C 0.01714 0.44089 0.86246 0.0
C3569 C 0.01172 0.45053 0.85699 0.0
C3570 C 0.01104 0.45125 0.8447 0.0
H3571 H 0.04289 0.4462 0.81464 0.0
H3572 H 0.0374 0.45071 0.82886 0.0
H3573 H 0.03859 0.43533 0.82516 0.0
H3574 H 0.0243 0.42549 0.83744 0.0
H3575 H 0.02618 0.42446 0.85883 0.0
H3576 H 0.88666 0.19279 0.97919 0.0
H3577 H 0.86606 0.18611 0.97844 0.0
H3578 H 0.8759 0.1531 0.9936 0.0
H3579 H 0.89656 0.15936 0.99391 0.0
H3580 H 0.85256 0.16507 0.96967 0.0
H3581 H 0.85485 0.16933 0.02396 0.0
H3582 H 0.86542 0.17659 0.0147 0.0
H3583 H 0.86636 0.16104 0.01719 0.0
C3584 C 0.88459 0.18397 0.98209 0.0
C3585 C 0.8934 0.17684 0.98707 0.0
C3586 C 0.87272 0.1802 0.9817 0.0
C3587 C 0.86939 0.16928 0.98637 0.0
C3588 C 0.87823 0.16171 0.99029 0.0
H3589 H 0.80219 0.13768 0.01183 0.0
H3590 H 0.82292 0.14171 1.00328 0.0
C3591 C 0.89008 0.1654 0.99056 0.0
C3592 C 0.85671 0.16625 0.98823 0.0
H3593 H 0.83706 0.16202 0.01535 0.0
C3594 C 0.84908 0.16434 0.97848 0.0
C3595 C 0.85217 0.16532 0.99973 0.0
C3596 C 0.86014 0.16836 0.01587 0.0
C3597 C 0.83708 0.16132 0.97994 0.0
C3598 C 0.83253 0.16035 0.99146 0.0
C3599 C 0.8402 0.16226 1.0012 0.0
C3600 C 0.8198 0.15766 0.99358 0.0
C3601 C 0.82941 0.1588 0.96914 0.0
C3602 C 0.81103 0.16527 0.9895 0.0
C3603 C 0.79906 0.16264 0.99116 0.0
C3604 C 0.79556 0.15248 0.99718 0.0
C3605 C 0.80433 0.1451 1.00173 0.0
C3606 C 0.81634 0.14764 0.99989 0.0
H3607 H 0.83469 0.15784 0.96104 0.0
H3608 H 0.82408 0.1506 0.97029 0.0
H3609 H 0.82324 0.16616 0.96783 0.0
H3610 H 0.81345 0.17328 0.98502 0.0
H3611 H 0.79251 0.16863 0.98783 0.0
H3612 H 0.85961 0.03204 0.43153 0.0
H3613 H 0.83803 0.03059 0.43315 0.0
H3614 H 0.84132 0.99182 0.45034 0.0
H3615 H 0.86279 0.99349 0.44919 0.0
H3616 H 0.8216 0.01461 0.42484 0.0
H3617 H 0.82158 0.01411 0.47377 0.0
H3618 H 0.83417 0.01915 0.4656 0.0
H3619 H 0.83118 0.99825 0.46731 0.0
C3620 C 0.85571 0.02442 0.43569 0.0
C3621 C 0.86294 0.01565 0.44041 0.0
C3622 C 0.84339 0.02359 0.43661 0.0
C3623 C 0.83808 0.01393 0.44217 0.0
C3624 C 0.84519 0.99959 0.44644 0.0
H3625 H 0.77075 0.97819 0.45531 0.0
H3626 H 0.79111 0.98329 0.45039 0.0
C3627 C 0.85747 1.00051 0.44571 0.0
C3628 C 0.82503 0.01316 0.4435 0.0
H3629 H 0.80354 1.00337 0.4639 0.0
C3630 C 0.81766 0.01348 0.4334 0.0
C3631 C 0.81984 0.01181 0.45468 0.0
C3632 C 0.8271 0.01226 0.46598 0.0
C3633 C 0.80534 0.01192 0.43415 0.0
C3634 C 0.80019 1.00464 0.44526 0.0
C3635 C 0.80748 1.00475 0.45538 0.0
C3636 C 0.78754 1.00151 0.44661 0.0
C3637 C 0.79779 0.01187 0.42307 0.0
C3638 C 0.77887 0.01544 0.446 0.0
C3639 C 0.7672 0.01255 0.44894 0.0
C3640 C 0.76406 0.99565 0.45232 0.0
C3641 C 0.7728 0.98705 0.45245 0.0
C3642 C 0.78443 0.98997 0.44972 0.0
H3643 H 0.80313 0.01279 0.41501 0.0
H3644 H 0.7924 0.99817 0.42235 0.0
H3645 H 0.79151 0.01926 0.42353 0.0
H3646 H 0.78113 0.02444 0.44376 0.0
H3647 H 0.76063 0.01938 0.44893 0.0
H3648 H 0.16104 0.5498 0.50248 0.0
H3649 H 0.14085 0.54928 0.51024 0.0
H3650 H 0.13925 0.51155 0.50446 0.0
H3651 H 0.1592 0.51196 0.49698 0.0
H3652 H 0.11928 0.53809 0.49762 0.0
H3653 H 0.13157 0.51676 0.5398 0.0
H3654 H 0.14153 0.5265 0.53215 0.0
H3655 H 0.13908 0.51157 0.52696 0.0
C3656 C 0.15636 0.54142 0.50307 0.0
C3657 C 0.16168 0.53086 0.49948 0.0
C3658 C 0.14491 0.54116 0.5074 0.0
C3659 C 0.13881 0.53035 0.50805 0.0
C3660 C 0.14403 0.51991 0.50423 0.0
H3661 H 0.07577 0.49389 0.52262 0.0
H3662 H 0.09481 0.50114 0.5157 0.0
C3663 C 0.15542 0.52014 0.50008 0.0
C3664 C 0.12692 0.52957 0.51269 0.0
H3665 H 0.11155 0.51486 0.53344 0.0
C3666 C 0.1175 0.53331 0.50561 0.0
C3667 C 0.12482 0.5232 0.52301 0.0
C3668 C 0.13477 0.51933 0.53099 0.0
C3669 C 0.10588 0.53015 0.50832 0.0
C3670 C 0.10389 0.52324 0.51832 0.0
C3671 C 0.11327 0.52004 0.52568 0.0
C3672 C 0.09211 0.51916 0.52148 0.0
C3673 C 0.09588 0.53361 0.50023 0.0
C3674 C 0.08466 0.52691 0.52728 0.0
C3675 C 0.07408 0.52274 0.53171 0.0
C3676 C 0.0706 0.51079 0.53011 0.0
C3677 C 0.07818 0.50307 0.5242 0.0
C3678 C 0.08894 0.50723 0.52002 0.0
H3679 H 0.09905 0.53828 0.49233 0.0
H3680 H 0.09072 0.52563 0.4973 0.0
H3681 H 0.08983 0.53947 0.50509 0.0
H3682 H 0.08722 0.53609 0.52871 0.0
H3683 H 0.06871 0.52891 0.53653 0.0
H3684 H 0.18205 0.95274 0.18093 0.0
H3685 H 0.16123 0.95709 0.18422 0.0
H3686 H 0.16232 0.98318 0.15714 0.0
H3687 H 0.18329 0.97895 0.15395 0.0
H3688 H 0.14987 0.9784 0.19083 0.0
H3689 H 0.13319 0.96312 0.14659 0.0
H3690 H 0.14715 0.95835 0.1526 0.0
H3691 H 0.14577 0.97303 0.14718 0.0
C3692 C 0.17786 0.95934 0.17558 0.0
C3693 C 0.18444 0.96531 0.16703 0.0
C3694 C 0.16589 0.96189 0.17752 0.0
C3695 C 0.15989 0.97033 0.17081 0.0
C3696 C 0.16648 0.97645 0.16233 0.0
H3697 H 0.08286 0.98806 0.1745 0.0
H3698 H 0.10404 0.98903 0.16964 0.0
C3699 C 0.17856 0.97405 0.16054 0.0
C3700 C 0.14687 0.9726 0.17284 0.0
H3701 H 0.11914 0.96953 0.16008 0.0
C3702 C 0.1432 0.97648 0.18405 0.0
C3703 C 0.13796 0.97034 0.16405 0.0
C3704 C 0.14111 0.96592 0.15192 0.0
C3705 C 0.1311 0.97789 0.18672 0.0
C3706 C 0.12219 0.97509 0.17811 0.0
C3707 C 0.12584 0.97165 0.16677 0.0
C3708 C 0.10916 0.97481 0.18102 0.0
C3709 C 0.12789 0.98259 0.19873 0.0
C3710 C 0.10473 0.96646 0.18894 0.0
C3711 C 0.09261 0.96574 0.19151 0.0
C3712 C 0.08446 0.97342 0.18638 0.0
C3713 C 0.08885 0.98194 0.17858 0.0
C3714 C 0.101 0.98251 0.1758 0.0
H3715 H 0.13574 0.98593 0.20387 0.0
H3716 H 0.1215 0.98985 0.19783 0.0
H3717 H 0.12358 0.97549 0.2038 0.0
H3718 H 0.11067 0.96033 0.19306 0.0
H3719 H 0.08961 0.95918 0.19765 0.0
H3720 H 0.5517 0.7161 0.99434 0.0
H3721 H 0.57256 0.71824 0.99944 0.0
H3722 H 0.57696 0.6808 0.99456 0.0
H3723 H 0.55593 0.67841 0.9898 0.0
H3724 H 0.58647 0.70879 0.02236 0.0
H3725 H 0.60193 0.69445 0.97273 0.0
H3726 H 0.5869 0.69883 0.97509 0.0
H3727 H 0.59176 0.68468 0.97984 0.0
C3728 C 0.55696 0.70822 0.99457 0.0
C3729 C 0.552 0.69709 0.9915 0.0
C3730 C 0.56897 0.7095 0.99738 0.0
C3731 C 0.57638 0.69974 0.99709 0.0
C3732 C 0.57147 0.68852 0.9945 0.0
H3733 H 0.6532 0.70257 0.01389 0.0
H3734 H 0.63325 0.69563 0.01129 0.0
C3735 C 0.55941 0.6872 0.99177 0.0
C3736 C 0.58921 0.70152 0.99955 0.0
H3737 H 0.61626 0.70099 0.98668 0.0
C3738 C 0.59306 0.70709 0.01575 0.0
C3739 C 0.59781 0.69923 0.99093 0.0
C3740 C 0.59448 0.69406 0.97895 0.0
C3741 C 0.60487 0.7104 0.0181 0.0
C3742 C 0.61305 0.70811 1.00402 0.0
C3743 C 0.60967 0.70245 0.99334 0.0
C3744 C 0.6257 0.71293 0.01092 0.0
C3745 C 0.60819 0.71593 0.02992 0.0
C3746 C 0.62819 0.72506 0.01143 0.0
C3747 C 0.63981 0.72931 0.01275 0.0
C3748 C 0.6494 0.72152 0.01366 0.0
C3749 C 0.64662 0.70924 0.01316 0.0
C3750 C 0.635 0.70506 0.0117 0.0
H3751 H 0.60096 0.71511 0.03635 0.0
H3752 H 0.61621 0.71174 0.0336 0.0
H3753 H 0.61024 0.72545 0.02883 0.0
H3754 H 0.6211 0.73131 0.01065 0.0
H3755 H 0.641 0.73875 0.01289 0.0
H3756 H 0.50467 0.23818 0.68722 0.0
H3757 H 0.52098 0.22578 0.69398 0.0
H3758 H 0.51834 0.24082 0.72904 0.0
H3759 H 0.50211 0.25321 0.72227 0.0
H3760 H 0.54274 0.23341 0.70433 0.0
H3761 H 0.5178 0.20528 0.7352 0.0
H3762 H 0.51084 0.21252 0.72291 0.0
H3763 H 0.51491 0.2208 0.73606 0.0
C3764 C 0.50763 0.23879 0.69635 0.0
C3765 C 0.5023 0.24665 0.70424 0.0
C3766 C 0.51687 0.23171 0.70021 0.0
C3767 C 0.52072 0.23222 0.71206 0.0
C3768 C 0.51535 0.2401 0.71993 0.0
H3769 H 0.57647 0.2072 0.75607 0.0
H3770 H 0.55817 0.21458 0.7473 0.0
C3771 C 0.50621 0.24726 0.71605 0.0
C3772 C 0.53073 0.22496 0.7161 0.0
H3773 H 0.53864 0.2043 0.73618 0.0
C3774 C 0.54184 0.22692 0.71118 0.0
C3775 C 0.5295 0.2165 0.72502 0.0
C3776 C 0.51762 0.21353 0.73008 0.0
C3777 C 0.55186 0.22104 0.71529 0.0
C3778 C 0.55072 0.21281 0.72447 0.0
C3779 C 0.53953 0.21061 0.72917 0.0
C3780 C 0.56119 0.20716 0.72992 0.0
C3781 C 0.5637 0.22414 0.71019 0.0
C3782 C 0.56881 0.20017 0.72318 0.0
C3783 C 0.5794 0.19617 0.72814 0.0
C3784 C 0.58237 0.19885 0.73998 0.0
C3785 C 0.57439 0.20514 0.7469 0.0
C3786 C 0.56393 0.20931 0.7419 0.0
H3787 H 0.56331 0.23207 0.7046 0.0
H3788 H 0.57038 0.22578 0.71735 0.0
H3789 H 0.5667 0.21668 0.70461 0.0
H3790 H 0.56669 0.19805 0.71403 0.0
H3791 H 0.58533 0.19112 0.72272 0.0
H3792 H 0.08087 0.69831 0.13495 0.0
H3793 H 0.10138 0.69335 0.13995 0.0
H3794 H 0.09267 0.69266 0.17681 0.0
H3795 H 0.07212 0.69714 0.17175 0.0
H3796 H 0.11641 0.70682 0.15387 0.0
H3797 H 0.11122 0.66273 0.17404 0.0
H3798 H 0.10042 0.66848 0.16383 0.0
H3799 H 0.10108 0.67369 0.1789 0.0
C3800 C 0.08338 0.697 0.14408 0.0
C3801 C 0.07506 0.69819 0.153 0.0
C3802 C 0.09503 0.69412 0.14693 0.0
C3803 C 0.09851 0.69241 0.15873 0.0
C3804 C 0.09013 0.69356 0.16762 0.0
H3805 H 0.16182 0.68915 0.19951 0.0
H3806 H 0.14178 0.68844 0.19125 0.0
C3807 C 0.07846 0.69629 0.16476 0.0
C3808 C 0.11109 0.69052 0.16181 0.0
H3809 H 0.1298 0.67232 0.17643 0.0
C3810 C 0.11937 0.69918 0.15863 0.0
C3811 C 0.1149 0.6806 0.16814 0.0
C3812 C 0.10648 0.67078 0.17137 0.0
C3813 C 0.13131 0.6984 0.16192 0.0
C3814 C 0.13508 0.68857 0.16837 0.0
C3815 C 0.12685 0.67979 0.17139 0.0
C3816 C 0.14727 0.68788 0.17308 0.0
C3817 C 0.13966 0.70842 0.15905 0.0
C3818 C 0.157 0.68753 0.16557 0.0
C3819 C 0.1685 0.68815 0.17029 0.0
C3820 C 0.17032 0.68885 0.18255 0.0
C3821 C 0.16058 0.68862 0.19001 0.0
C3822 C 0.14916 0.68818 0.18532 0.0
H3823 H 0.13496 0.71614 0.15551 0.0
H3824 H 0.14482 0.7113 0.16705 0.0
H3825 H 0.14597 0.7054 0.15232 0.0
H3826 H 0.15568 0.687 0.15609 0.0
H3827 H 0.17593 0.68813 0.16441 0.0
H3828 H 0.59723 0.96683 0.97013 0.0
H3829 H 0.57741 0.96575 0.97782 0.0
H3830 H 0.57263 1.00258 0.97075 0.0
H3831 H 0.59273 1.00397 0.96343 0.0
H3832 H 0.56742 0.97813 0.99643 0.0
H3833 H 0.54362 0.98697 0.95418 0.0
H3834 H 0.5588 0.98238 0.95462 0.0
H3835 H 0.55518 0.9972 0.95882 0.0
C3836 C 0.59216 0.97482 0.97037 0.0
C3837 C 0.59679 0.98549 0.96607 0.0
C3838 C 0.5807 0.97414 0.97468 0.0
C3839 C 0.57342 0.98401 0.97468 0.0
C3840 C 0.57796 0.99475 0.97059 0.0
H3841 H 0.49993 0.98473 0.99835 0.0
H3842 H 0.51926 0.99101 0.99199 0.0
C3843 C 0.58952 0.9955 0.96637 0.0
C3844 C 0.56118 0.98285 0.97915 0.0
H3845 H 0.53207 0.98241 0.97053 0.0
C3846 C 0.55969 0.97915 0.99078 0.0
C3847 C 0.55108 0.98426 0.97181 0.0
C3848 C 0.55215 0.98785 0.95913 0.0
C3849 C 0.54845 0.97647 0.99515 0.0
C3850 C 0.5384 0.97744 0.98769 0.0
C3851 C 0.5398 0.98164 0.97622 0.0
C3852 C 0.52647 0.97353 0.99148 0.0
C3853 C 0.54769 0.97298 0.01305 0.0
C3854 C 0.52397 0.96154 0.99316 0.0
C3855 C 0.51267 0.95772 0.99639 0.0
C3856 C 0.50352 0.96582 0.99826 0.0
C3857 C 0.50629 0.97794 0.99675 0.0
C3858 C 0.51752 0.98169 0.99322 0.0
H3859 H 0.55607 0.9743 0.01817 0.0
H3860 H 0.5406 0.97792 0.0175 0.0
H3861 H 0.54524 0.96346 0.01313 0.0
H3862 H 0.53072 0.95505 0.99172 0.0
H3863 H 0.51121 0.94833 0.99709 0.0
H3864 H 0.69507 0.4498 0.71309 0.0
H3865 H 0.67927 0.46224 0.72047 0.0
H3866 H 0.65801 0.45313 0.68956 0.0
H3867 H 0.67364 0.4402 0.68246 0.0
H3868 H 0.66895 0.48146 0.71199 0.0
H3869 H 0.63492 0.44576 0.71468 0.0
H3870 H 0.65045 0.44279 0.71354 0.0
H3871 H 0.64191 0.44657 0.70067 0.0
C3872 C 0.68697 0.4504 0.70793 0.0
C3873 C 0.6855 0.44396 0.69727 0.0
C3874 C 0.67796 0.45754 0.71213 0.0
C3875 C 0.66732 0.45849 0.70571 0.0
C3876 C 0.66596 0.45226 0.69489 0.0
H3877 H 0.60147 0.49367 0.71792 0.0
H3878 H 0.61926 0.48621 0.70868 0.0
C3879 C 0.6749 0.44493 0.69079 0.0
C3880 C 0.6577 0.46595 0.71039 0.0
H3881 H 0.6287 0.46511 0.71808 0.0
C3882 C 0.66015 0.47788 0.71335 0.0
C3883 C 0.64623 0.46129 0.71228 0.0
C3884 C 0.6432 0.44839 0.71025 0.0
C3885 C 0.65139 0.48526 0.71792 0.0
C3886 C 0.63989 0.4806 0.71954 0.0
C3887 C 0.63748 0.46871 0.71664 0.0
C3888 C 0.63014 0.48761 0.72452 0.0
C3889 C 0.65437 0.49803 0.72071 0.0
C3890 C 0.63042 0.49118 0.73644 0.0
C3891 C 0.62022 0.49535 0.74179 0.0
C3892 C 0.60949 0.49593 0.73534 0.0
C3893 C 0.60948 0.49307 0.72322 0.0
C3894 C 0.61968 0.48893 0.71789 0.0
H3895 H 0.66332 0.50059 0.71772 0.0
H3896 H 0.64777 0.50379 0.71646 0.0
H3897 H 0.65402 0.49964 0.73038 0.0
H3898 H 0.63831 0.49003 0.74181 0.0
H3899 H 0.62058 0.49742 0.75115 0.0
H3900 H 0.17215 0.2527 0.55431 0.0
H3901 H 0.15177 0.24576 0.55003 0.0
H3902 H 0.1573 0.25051 0.51287 0.0
H3903 H 0.17765 0.25727 0.51718 0.0
H3904 H 0.13402 0.25817 0.53946 0.0
H3905 H 0.14189 0.21795 0.51228 0.0
H3906 H 0.15262 0.22395 0.52286 0.0
H3907 H 0.15079 0.23059 0.50871 0.0
C3908 C 0.16898 0.25217 0.54524 0.0
C3909 C 0.17636 0.25561 0.53606 0.0
C3910 C 0.15737 0.24818 0.54279 0.0
C3911 C 0.15299 0.2474 0.5311 0.0
C3912 C 0.16049 0.25072 0.52193 0.0
H3913 H 0.08705 0.23839 0.49314 0.0
H3914 H 0.10758 0.24012 0.50021 0.0
C3915 C 0.17207 0.25473 0.52439 0.0
C3916 C 0.14036 0.24402 0.52854 0.0
H3917 H 0.12245 0.22529 0.51193 0.0
C3918 C 0.13149 0.25088 0.53357 0.0
C3919 C 0.137 0.23447 0.52089 0.0
C3920 C 0.14603 0.22622 0.51593 0.0
C3921 C 0.11945 0.24882 0.53076 0.0
C3922 C 0.11609 0.23954 0.52276 0.0
C3923 C 0.12496 0.23245 0.51799 0.0
C3924 C 0.10355 0.23765 0.51858 0.0
C3925 C 0.11048 0.257 0.53593 0.0
C3926 C 0.09435 0.23539 0.52647 0.0
C3927 C 0.08253 0.23465 0.52243 0.0
C3928 C 0.07972 0.23588 0.5104 0.0
C3929 C 0.08896 0.23754 0.50247 0.0
C3930 C 0.10071 0.23847 0.50651 0.0
H3931 H 0.11468 0.2649 0.54031 0.0
H3932 H 0.10425 0.25996 0.52897 0.0
H3933 H 0.10532 0.25226 0.54264 0.0
H3934 H 0.09628 0.23431 0.53576 0.0
H3935 H 0.07559 0.23308 0.52869 0.0
H3936 H 0.51737 0.07178 0.49621 0.0
H3937 H 0.51034 0.09089 0.50339 0.0
H3938 H 0.53769 0.09186 0.53039 0.0
H3939 H 0.54487 0.07287 0.52314 0.0
H3940 H 0.50283 0.09664 0.52679 0.0
H3941 H 0.54172 0.12343 0.51301 0.0
H3942 H 0.53782 0.10926 0.50636 0.0
H3943 H 0.54486 0.11007 0.52067 0.0
C3944 C 0.522 0.07621 0.50352 0.0
C3945 C 0.53177 0.07106 0.50901 0.0
C3946 C 0.51792 0.087 0.50767 0.0
C3947 C 0.52365 0.09273 0.51727 0.0
C3948 C 0.53333 0.08757 0.52283 0.0
H3949 H 0.51107 0.1634 0.54577 0.0
H3950 H 0.5179 0.14284 0.54497 0.0
C3951 C 0.53739 0.07678 0.51872 0.0
C3952 C 0.51946 0.10415 0.52149 0.0
H3953 H 0.52718 0.13324 0.52366 0.0
C3954 C 0.50815 0.10466 0.52622 0.0
C3955 C 0.52648 0.11448 0.5206 0.0
C3956 C 0.53836 0.11438 0.5148 0.0
C3957 C 0.50359 0.11541 0.53004 0.0
C3958 C 0.5106 0.12575 0.52909 0.0
C3959 C 0.52201 0.12518 0.52461 0.0
C3960 C 0.50569 0.13746 0.53088 0.0
C3961 C 0.49129 0.11569 0.53489 0.0
C3962 C 0.49674 0.14104 0.52315 0.0
C3963 C 0.49303 0.15261 0.5235 0.0
C3964 C 0.49829 0.16073 0.53149 0.0
C3965 C 0.50705 0.15717 0.53948 0.0
C3966 C 0.51084 0.14552 0.53909 0.0
H3967 H 0.48821 0.1068 0.53762 0.0
H3968 H 0.49093 0.12189 0.54256 0.0
H3969 H 0.48507 0.11877 0.52799 0.0
H3970 H 0.49293 0.13501 0.51654 0.0
H3971 H 0.48615 0.15528 0.5174 0.0
H3972 H 0.18533 0.72704 0.57966 0.0
H3973 H 0.19262 0.71865 0.56094 0.0
H3974 H 0.22001 0.74555 0.56076 0.0
H3975 H 0.21295 0.75368 0.57945 0.0
H3976 H 0.19828 0.72899 0.53735 0.0
H3977 H 0.23786 0.71398 0.56216 0.0
H3978 H 0.2239 0.71658 0.5691 0.0
H3979 H 0.23339 0.72878 0.56544 0.0
C3980 C 0.19287 0.73114 0.57553 0.0
C3981 C 0.1988 0.74081 0.58105 0.0
C3982 C 0.19697 0.72641 0.56485 0.0
C3983 C 0.20701 0.73135 0.5596 0.0
C3984 C 0.21239 0.74147 0.56477 0.0
H3985 H 0.25753 0.71969 0.50601 0.0
H3986 H 0.24497 0.72663 0.52193 0.0
C3987 C 0.20839 0.7461 0.57543 0.0
C3988 C 0.21266 0.72551 0.54938 0.0
H3989 H 0.23871 0.71326 0.54146 0.0
C3990 C 0.20705 0.72539 0.53823 0.0
C3991 C 0.22406 0.72075 0.55058 0.0
C3992 C 0.23016 0.7199 0.56246 0.0
C3993 C 0.21285 0.72113 0.52815 0.0
C3994 C 0.22448 0.71689 0.52934 0.0
C3995 C 0.22986 0.71666 0.54055 0.0
C3996 C 0.23152 0.71302 0.51911 0.0
C3997 C 0.20677 0.72172 0.51624 0.0
C3998 C 0.22819 0.70299 0.51232 0.0
C3999 C 0.23537 0.699 0.50321 0.0
C4000 C 0.2461 0.70487 0.50089 0.0
C4001 C 0.24942 0.71488 0.50773 0.0
C4002 C 0.2422 0.71891 0.51674 0.0
H4003 H 0.19832 0.72653 0.51665 0.0
H4004 H 0.21264 0.72615 0.50988 0.0
H4005 H 0.20483 0.71266 0.5128 0.0
H4006 H 0.22016 0.69811 0.5142 0.0
H4007 H 0.23263 0.69121 0.49812 0.0
H4008 H 0.15628 0.18325 0.98121 0.0
H4009 H 0.15918 0.16225 0.98548 0.0
H4010 H 0.18099 0.15894 0.95496 0.0
H4011 H 0.17816 0.17976 0.95068 0.0
H4012 H 0.15398 0.14108 0.9712 0.0
H4013 H 0.20208 0.14485 0.98077 0.0
H4014 H 0.19213 0.15693 0.98306 0.0
H4015 H 0.19695 0.15324 0.96847 0.0
C4016 C 0.16174 0.17808 0.97541 0.0
C4017 C 0.16691 0.18336 0.96549 0.0
C4018 C 0.16337 0.16599 0.97786 0.0
C4019 C 0.17044 0.15884 0.97065 0.0
C4020 C 0.17562 0.16414 0.96082 0.0
H4021 H 0.19249 0.08807 0.95603 0.0
H4022 H 0.18748 0.10898 0.95739 0.0
C4023 C 0.17388 0.17612 0.95828 0.0
C4024 C 0.17238 0.14587 0.97309 0.0
H4025 H 0.19433 0.12568 0.9769 0.0
C4026 C 0.16279 0.13776 0.97262 0.0
C4027 C 0.18382 0.14134 0.97516 0.0
C4028 C 0.19436 0.14949 0.97703 0.0
C4029 C 0.16444 0.12538 0.97343 0.0
C4030 C 0.17599 0.12085 0.97469 0.0
C4031 C 0.18548 0.129 0.97572 0.0
C4032 C 0.17858 0.10779 0.97402 0.0
C4033 C 0.15387 0.11716 0.97241 0.0
C4034 C 0.17543 0.09992 0.98299 0.0
C4035 C 0.1785 0.08787 0.98231 0.0
C4036 C 0.1846 0.08329 0.97252 0.0
C4037 C 0.18764 0.09117 0.96358 0.0
C4038 C 0.1848 0.1032 0.96439 0.0
H4039 H 0.14556 0.12193 0.97063 0.0
H4040 H 0.15516 0.11055 0.96523 0.0
H4041 H 0.15291 0.1123 0.98075 0.0
H4042 H 0.17078 0.10314 0.99063 0.0
H4043 H 0.17606 0.08211 0.9894 0.0
H4044 H 0.52678 0.52315 0.06415 0.0
H4045 H 0.5341 0.5171 0.08325 0.0
H4046 H 0.50298 0.53059 0.09963 0.0
H4047 H 0.49587 0.53769 0.08069 0.0
H4048 H 0.53702 0.53288 0.10502 0.0
H4049 H 0.50605 0.49443 0.1088 0.0
H4050 H 0.51057 0.50005 0.09474 0.0
H4051 H 0.50004 0.50791 0.10333 0.0
C4052 C 0.52155 0.52521 0.07177 0.0
C4053 C 0.51072 0.53112 0.07076 0.0
C4054 C 0.52573 0.52155 0.08266 0.0
C4055 C 0.519 0.52335 0.09268 0.0
C4056 C 0.50819 0.52907 0.09185 0.0
H4057 H 0.52069 0.51521 0.16559 0.0
H4058 H 0.52017 0.52294 0.14578 0.0
C4059 C 0.50411 0.53303 0.08098 0.0
C4060 C 0.52337 0.5194 0.10411 0.0
H4061 H 0.51743 0.49993 0.12573 0.0
C4062 C 0.53284 0.52563 0.10956 0.0
C4063 C 0.51795 0.50981 0.10975 0.0
C4064 C 0.50813 0.50256 0.10387 0.0
C4065 C 0.53663 0.52286 0.12096 0.0
C4066 C 0.53078 0.51371 0.12681 0.0
C4067 C 0.52173 0.50708 0.12113 0.0
C4068 C 0.53334 0.51115 0.13912 0.0
C4069 C 0.54658 0.52984 0.12687 0.0
C4070 C 0.5412 0.50226 0.14182 0.0
C4071 C 0.54114 0.49736 0.15296 0.0
C4072 C 0.53328 0.50141 0.16164 0.0
C4073 C 0.52641 0.51133 0.15912 0.0
C4074 C 0.52627 0.51599 0.14786 0.0
H4075 H 0.55034 0.53665 0.12102 0.0
H4076 H 0.54335 0.53424 0.13499 0.0
H4077 H 0.55369 0.52378 0.12957 0.0
H4078 H 0.54669 0.49847 0.13506 0.0
H4079 H 0.54664 0.4898 0.1542 0.0
H4080 H 0.55456 0.17017 0.25874 0.0
H4081 H 0.5504 0.14984 0.25169 0.0
H4082 H 0.51417 0.15884 0.24455 0.0
H4083 H 0.5185 0.17923 0.25105 0.0
H4084 H 0.53568 0.13424 0.26096 0.0
H4085 H 0.52042 0.14066 0.21478 0.0
H4086 H 0.52959 0.15139 0.22281 0.0
H4087 H 0.51401 0.15041 0.22541 0.0
C4088 C 0.54576 0.16778 0.25553 0.0
C4089 C 0.53682 0.17619 0.25547 0.0
C4090 C 0.54338 0.15619 0.25147 0.0
C4091 C 0.53201 0.15277 0.24735 0.0
C4092 C 0.5231 0.16126 0.24727 0.0
H4093 H 0.49395 0.08725 0.23285 0.0
H4094 H 0.50096 0.10778 0.23464 0.0
C4095 C 0.52553 0.17288 0.25114 0.0
C4096 C 0.52925 0.14014 0.24416 0.0
H4097 H 0.51682 0.12182 0.22281 0.0
C4098 C 0.5317 0.13152 0.25255 0.0
C4099 C 0.52402 0.13653 0.23319 0.0
C4100 C 0.52194 0.14519 0.22347 0.0
C4101 C 0.52875 0.11955 0.25048 0.0
C4102 C 0.52328 0.11596 0.23963 0.0
C4103 C 0.52097 0.12454 0.23114 0.0
C4104 C 0.51933 0.10346 0.23729 0.0
C4105 C 0.53105 0.11092 0.26019 0.0
C4106 C 0.52733 0.09412 0.23778 0.0
C4107 C 0.5233 0.08234 0.23699 0.0
C4108 C 0.51121 0.07966 0.23537 0.0
C4109 C 0.50331 0.08902 0.23413 0.0
C4110 C 0.50732 0.10077 0.23514 0.0
H4111 H 0.53325 0.11544 0.26875 0.0
H4112 H 0.52323 0.10505 0.26137 0.0
H4113 H 0.53862 0.10534 0.25783 0.0
H4114 H 0.53669 0.09592 0.23901 0.0
H4115 H 0.52961 0.07532 0.23771 0.0
H4116 H 0.43295 0.71208 0.68064 0.0
H4117 H 0.44556 0.7197 0.66509 0.0
H4118 H 0.4693 0.69085 0.67005 0.0
H4119 H 0.45666 0.68313 0.68557 0.0
H4120 H 0.47007 0.72645 0.66742 0.0
H4121 H 0.46313 0.69022 0.63402 0.0
H4122 H 0.45247 0.69337 0.64525 0.0
H4123 H 0.46591 0.68609 0.64904 0.0
C4124 C 0.44074 0.70724 0.67827 0.0
C4125 C 0.44373 0.69693 0.68426 0.0
C4126 C 0.448 0.71165 0.66945 0.0
C4127 C 0.45831 0.70578 0.66628 0.0
C4128 C 0.46129 0.69543 0.67219 0.0
H4129 H 0.50767 0.72313 0.6094 0.0
H4130 H 0.49973 0.71445 0.62749 0.0
C4131 C 0.4541 0.69107 0.68111 0.0
C4132 C 0.46609 0.71073 0.65707 0.0
H4133 H 0.47617 0.70559 0.62923 0.0
C4134 C 0.47144 0.72188 0.65908 0.0
C4135 C 0.46797 0.70471 0.64623 0.0
C4136 C 0.46205 0.69296 0.64339 0.0
C4137 C 0.47848 0.72721 0.65051 0.0
C4138 C 0.48008 0.72135 0.63954 0.0
C4139 C 0.47502 0.71006 0.63766 0.0
C4140 C 0.48589 0.72722 0.62946 0.0
C4141 C 0.48429 0.73903 0.65329 0.0
C4142 C 0.48082 0.73728 0.62459 0.0
C4143 C 0.48527 0.74214 0.61431 0.0
C4144 C 0.49484 0.73701 0.60861 0.0
C4145 C 0.50022 0.72717 0.61362 0.0
C4146 C 0.49571 0.72225 0.62394 0.0
H4147 H 0.48405 0.74132 0.66286 0.0
H4148 H 0.49362 0.73907 0.65046 0.0
H4149 H 0.47964 0.74602 0.64843 0.0
H4150 H 0.4731 0.74113 0.62848 0.0
H4151 H 0.48104 0.74976 0.61061 0.0
H4152 H 0.14084 0.08216 0.70989 0.0
H4153 H 0.14601 0.10264 0.70545 0.0
H4154 H 0.17193 0.09067 0.68081 0.0
H4155 H 0.16692 0.07023 0.6852 0.0
H4156 H 0.1686 0.11252 0.7091 0.0
H4157 H 0.15501 0.11588 0.66182 0.0
H4158 H 0.14842 0.10519 0.67145 0.0
H4159 H 0.163 0.10301 0.66598 0.0
C4160 C 0.14762 0.08387 0.7035 0.0
C4161 C 0.15345 0.07452 0.69792 0.0
C4162 C 0.15049 0.09557 0.7009 0.0
C4163 C 0.1592 0.09815 0.69265 0.0
C4164 C 0.16495 0.08888 0.68695 0.0
H4165 H 0.19795 0.16215 0.67876 0.0
H4166 H 0.18971 0.14223 0.678 0.0
C4167 C 0.16208 0.07718 0.68952 0.0
C4168 C 0.16302 0.11054 0.69091 0.0
H4169 H 0.16506 0.1323 0.67056 0.0
C4170 C 0.16772 0.11687 0.7007 0.0
C4171 C 0.16206 0.1161 0.67987 0.0
C4172 C 0.15679 0.10977 0.66916 0.0
C4173 C 0.17142 0.12865 0.69978 0.0
C4174 C 0.17024 0.13427 0.68884 0.0
C4175 C 0.16578 0.12793 0.67896 0.0
C4176 C 0.17403 0.14665 0.68755 0.0
C4177 C 0.17682 0.13499 0.71045 0.0
C4178 C 0.16766 0.15578 0.69279 0.0
C4179 C 0.17224 0.16731 0.69311 0.0
C4180 C 0.18332 0.16984 0.68824 0.0
C4181 C 0.18932 0.16067 0.68246 0.0
C4182 C 0.18468 0.14921 0.68205 0.0
H4183 H 0.17819 0.129 0.71797 0.0
H4184 H 0.18544 0.13907 0.70817 0.0
H4185 H 0.17094 0.14218 0.71333 0.0
H4186 H 0.15934 0.1539 0.697 0.0
H4187 H 0.16724 0.17417 0.6974 0.0
H4188 H 0.272 0.54422 0.16702 0.0
H4189 H 0.26538 0.53929 0.14699 0.0
H4190 H 0.23321 0.52407 0.16008 0.0
H4191 H 0.23994 0.52829 0.18023 0.0
H4192 H 0.2599 0.51612 0.1384 0.0
H4193 H 0.22124 0.54535 0.13322 0.0
H4194 H 0.23314 0.54868 0.14366 0.0
H4195 H 0.22259 0.53719 0.14663 0.0
C4196 C 0.26356 0.53971 0.16579 0.0
C4197 C 0.25664 0.53664 0.1755 0.0
C4198 C 0.25971 0.53704 0.15423 0.0
C4199 C 0.24872 0.53146 0.15199 0.0
C4200 C 0.24161 0.52861 0.16155 0.0
H4201 H 0.22125 0.50033 0.08568 0.0
H4202 H 0.22302 0.50738 0.10581 0.0
C4203 C 0.24553 0.53111 0.17315 0.0
C4204 C 0.24526 0.52785 0.13968 0.0
H4205 H 0.22563 0.53284 0.11707 0.0
C4206 C 0.25241 0.51979 0.13375 0.0
C4207 C 0.23539 0.53253 0.13366 0.0
C4208 C 0.22763 0.54147 0.13953 0.0
C4209 C 0.25011 0.51643 0.12194 0.0
C4210 C 0.24048 0.52134 0.11577 0.0
C4211 C 0.23307 0.52914 0.12178 0.0
C4212 C 0.2383 0.51852 0.10301 0.0
C4213 C 0.25797 0.50756 0.11609 0.0
C4214 C 0.24602 0.52279 0.09451 0.0
C4215 C 0.24493 0.519 0.08267 0.0
C4216 C 0.23619 0.51058 0.07896 0.0
C4217 C 0.22813 0.50679 0.08763 0.0
C4218 C 0.22912 0.51079 0.0994 0.0
H4219 H 0.26416 0.5035 0.12247 0.0
H4220 H 0.25253 0.50047 0.11167 0.0
H4221 H 0.26322 0.51197 0.10923 0.0
H4222 H 0.25312 0.52889 0.09708 0.0
H4223 H 0.25114 0.52267 0.07658 0.0
H4224 H 0.96903 0.167 0.0808 0.0
H4225 H 0.97018 0.16175 0.10175 0.0
H4226 H 0.98163 0.19723 0.11084 0.0
H4227 H 0.98031 0.20258 0.09011 0.0
H4228 H 0.9886 0.16348 0.12093 0.0
H4229 H 0.95108 0.19309 0.12961 0.0
H4230 H 0.95403 0.1872 0.11508 0.0
H4231 H 0.96289 0.1992 0.12117 0.0
C4232 C 0.97178 0.17372 0.08724 0.0
C4233 C 0.97437 0.18531 0.08359 0.0
C4234 C 0.97255 0.17065 0.09927 0.0
C4235 C 0.97579 0.17911 0.10808 0.0
C4236 C 0.97892 0.19052 0.10437 0.0
H4237 H 0.97463 0.18371 0.1857 0.0
H4238 H 0.97868 0.18645 0.16473 0.0
C4239 C 0.97822 0.19356 0.09239 0.0
C4240 C 0.97496 0.17644 0.12111 0.0
H4241 H 0.96004 0.18446 0.14604 0.0
C4242 C 0.9823 0.16802 0.12638 0.0
C4243 C 0.9668 0.18231 0.12843 0.0
C4244 C 0.95816 0.19089 0.12334 0.0
C4245 C 0.98175 0.16552 0.13862 0.0
C4246 C 0.9736 0.17147 0.14591 0.0
C4247 C 0.96634 0.17988 0.14061 0.0
C4248 C 0.97226 0.16917 0.15897 0.0
C4249 C 0.99017 0.1568 0.14381 0.0
C4250 C 0.96723 0.15854 0.16301 0.0
C4251 C 0.96463 0.15705 0.17507 0.0
C4252 C 0.96714 0.16608 0.18355 0.0
C4253 C 0.97255 0.17653 0.17953 0.0
C4254 C 0.97491 0.17811 0.16747 0.0
H4255 H 0.99659 0.15357 0.13727 0.0
H4256 H 0.99509 0.16096 0.15142 0.0
H4257 H 0.98513 0.14912 0.14716 0.0
H4258 H 0.96495 0.1515 0.15675 0.0
H4259 H 0.9606 0.14882 0.17776 0.0
H4260 H 0.70853 0.49095 0.22978 0.0
H4261 H 0.71484 0.50704 0.21783 0.0
H4262 H 0.71016 0.53143 0.24681 0.0
H4263 H 0.70289 0.51564 0.25886 0.0
H4264 H 0.70367 0.52873 0.21147 0.0
H4265 H 0.74508 0.53631 0.23776 0.0
H4266 H 0.73688 0.5225 0.23777 0.0
H4267 H 0.73184 0.53498 0.24614 0.0
C4268 C 0.7084 0.49963 0.23381 0.0
C4269 C 0.70499 0.50158 0.24565 0.0
C4270 C 0.71223 0.50891 0.22681 0.0
C4271 C 0.71314 0.52039 0.23146 0.0
C4272 C 0.7097 0.52255 0.2431 0.0
H4273 H 0.73417 0.58928 0.21547 0.0
H4274 H 0.72563 0.57083 0.22189 0.0
C4275 C 0.7056 0.51333 0.25006 0.0
C4276 C 0.71795 0.53008 0.22423 0.0
H4277 H 0.74035 0.55055 0.22364 0.0
C4278 C 0.71174 0.53346 0.21404 0.0
C4279 C 0.72861 0.53604 0.22746 0.0
C4280 C 0.73609 0.53225 0.23781 0.0
C4281 C 0.71556 0.54317 0.20743 0.0
C4282 C 0.72586 0.54956 0.21111 0.0
C4283 C 0.73237 0.54573 0.22092 0.0
C4284 C 0.72946 0.56101 0.20595 0.0
C4285 C 0.70831 0.54688 0.19692 0.0
C4286 C 0.73427 0.56174 0.19466 0.0
C4287 C 0.73903 0.57251 0.19077 0.0
C4288 C 0.73921 0.58273 0.19817 0.0
C4289 C 0.73405 0.58186 0.20933 0.0
C4290 C 0.72921 0.57121 0.21311 0.0
H4291 H 0.70019 0.54133 0.19558 0.0
H4292 H 0.70574 0.55624 0.19806 0.0
H4293 H 0.71367 0.54622 0.18886 0.0
H4294 H 0.73469 0.55395 0.18903 0.0
H4295 H 0.7427 0.57274 0.18204 0.0
H4296 H 0.70223 1.00379 0.65334 0.0
H4297 H 0.69482 1.00154 0.6334 0.0
H4298 H 0.72975 0.01322 0.62019 0.0
H4299 H 0.73741 0.01636 0.63997 0.0
H4300 H 0.69578 0.02237 0.61353 0.0
H4301 H 0.7199 0.97555 0.60543 0.0
H4302 H 0.71647 0.98088 0.62006 0.0
H4303 H 0.72855 0.98733 0.61224 0.0
C4304 C 0.70862 0.0104 0.64643 0.0
C4305 C 0.72074 0.01299 0.64882 0.0
C4306 C 0.70412 1.00358 0.63487 0.0
C4307 C 0.7117 1.00432 0.62532 0.0
C4308 C 0.72377 0.01237 0.62748 0.0
H4309 H 0.71508 0.99813 0.55157 0.0
H4310 H 0.71661 1.00323 0.57239 0.0
C4311 C 0.72816 0.01408 0.639 0.0
C4312 C 0.70722 1.00213 0.61308 0.0
H4313 H 0.71157 0.98466 0.58879 0.0
C4314 C 0.69913 0.01522 0.60813 0.0
C4315 C 0.71142 0.99267 0.60613 0.0
C4316 C 0.71948 0.98354 0.61122 0.0
C4317 C 0.69564 0.01416 0.59616 0.0
C4318 C 0.70037 0.99978 0.58907 0.0
C4319 C 0.70804 0.9917 0.59421 0.0
C4320 C 0.69843 0.9989 0.57611 0.0
C4321 C 0.68726 0.02296 0.59103 0.0
C4322 C 0.68754 0.99517 0.57116 0.0
C4323 C 0.68651 0.99252 0.55906 0.0
C4324 C 0.69643 0.99322 0.55169 0.0
C4325 C 0.70716 0.99754 0.55671 0.0
C4326 C 0.70811 1.00039 0.56873 0.0
H4327 H 0.68485 0.02988 0.59758 0.0
H4328 H 0.69132 0.02725 0.58334 0.0
H4329 H 0.67907 0.01833 0.58785 0.0
H4330 H 0.67997 0.99385 0.57671 0.0
H4331 H 0.67796 0.98962 0.5556 0.0
H4332 H 0.73946 0.61847 0.50935 0.0
H4333 H 0.73078 0.63646 0.50164 0.0
H4334 H 0.72101 0.61782 0.46939 0.0
H4335 H 0.73003 0.6001 0.4766 0.0
H4336 H 0.73691 0.64827 0.4798 0.0
H4337 H 0.68997 0.63333 0.47878 0.0
H4338 H 0.70067 0.6282 0.48944 0.0
H4339 H 0.7004 0.62232 0.47463 0.0
C4340 C 0.73552 0.61814 0.50059 0.0
C4341 C 0.73547 0.60761 0.49368 0.0
C4342 C 0.73047 0.62847 0.49624 0.0
C4343 C 0.72504 0.62843 0.48501 0.0
C4344 C 0.72487 0.61799 0.4782 0.0
H4345 H 0.69461 0.67131 0.43159 0.0
H4346 H 0.70268 0.65604 0.444 0.0
C4347 C 0.73001 0.60776 0.48243 0.0
C4348 C 0.72003 0.63929 0.47991 0.0
H4349 H 0.69493 0.64942 0.46669 0.0
C4350 C 0.72769 0.64866 0.47713 0.0
C4351 C 0.708 0.63979 0.47644 0.0
C4352 C 0.69922 0.63045 0.48004 0.0
C4353 C 0.72376 0.65816 0.47036 0.0
C4354 C 0.71185 0.65832 0.46634 0.0
C4355 C 0.7041 0.64919 0.46957 0.0
C4356 C 0.70725 0.66778 0.45868 0.0
C4357 C 0.73253 0.66762 0.46698 0.0
C4358 C 0.70704 0.67949 0.46279 0.0
C4359 C 0.7028 0.6884 0.45556 0.0
C4360 C 0.69822 0.68583 0.44409 0.0
C4361 C 0.69821 0.67393 0.44015 0.0
C4362 C 0.70273 0.66506 0.44732 0.0
H4363 H 0.74173 0.66536 0.46947 0.0
H4364 H 0.73201 0.66905 0.45733 0.0
H4365 H 0.73041 0.67605 0.47151 0.0
H4366 H 0.71022 0.68179 0.47161 0.0
H4367 H 0.70339 0.69732 0.45907 0.0
H4368 H 0.96695 0.59402 0.01034 0.0
H4369 H 0.97384 0.57334 1.00386 0.0
H4370 H 0.97369 0.575 0.96594 0.0
H4371 H 0.96643 0.59505 0.96694 0.0
H4372 H 0.96384 0.55273 0.99191 0.0
H4373 H 0.01288 0.56466 0.97324 0.0
H4374 H 0.99899 0.57469 0.98233 0.0
H4375 H 0.995 0.57238 0.96704 0.0
C4376 C 0.96813 0.58968 0.99641 0.0
C4377 C 0.96608 0.59612 0.98605 0.0
C4378 C 0.97228 0.57808 0.99579 0.0
C4379 C 0.97455 0.57272 0.98481 0.0
C4380 C 0.97234 0.57905 0.97452 0.0
H4381 H 0.99193 0.50892 0.94938 0.0
H4382 H 0.98605 0.52832 0.95633 0.0
C4383 C 0.96822 0.59059 0.97512 0.0
C4384 C 0.97909 0.56048 0.98384 0.0
H4385 H 1.001 0.5447 0.971 0.0
C4386 C 0.97206 0.55095 0.98754 0.0
C4387 C 0.98989 0.55815 0.97825 0.0
C4388 C 0.99831 0.56798 0.97508 0.0
C4389 C 0.97522 0.53918 0.98509 0.0
C4390 C 0.98564 0.53692 0.97878 0.0
C4391 C 0.99291 0.54644 0.97563 0.0
C4392 C 0.98894 0.52484 0.97481 0.0
C4393 C 0.96712 0.52925 0.9887 0.0
C4394 C 0.99279 0.51645 0.98287 0.0
C4395 C 0.99659 0.50537 0.9789 0.0
C4396 C 0.99645 0.50229 0.96674 0.0
C4397 C 0.9925 0.51082 0.95875 0.0
C4398 C 0.98893 0.52195 0.96273 0.0
H4399 H 0.95892 0.53252 0.99276 0.0
H4400 H 0.96469 0.52359 0.9809 0.0
H4401 H 0.97175 0.52367 0.99516 0.0
H4402 H 0.99313 0.51856 0.99223 0.0
H4403 H 0.99981 0.49936 0.98546 0.0
H4404 H 0.69288 0.16532 0.17438 0.0
H4405 H 0.6919 0.15715 0.15412 0.0
H4406 H 0.68096 0.1909 0.14132 0.0
H4407 H 0.68235 0.19919 0.16122 0.0
H4408 H 0.67379 0.15655 0.13499 0.0
H4409 H 0.71289 0.18504 0.12554 0.0
H4410 H 0.7089 0.18115 0.14033 0.0
H4411 H 0.7009 0.19229 0.13265 0.0
C4412 C 0.69023 0.17095 0.16722 0.0
C4413 C 0.68786 0.18292 0.16936 0.0
C4414 C 0.68956 0.16626 0.15572 0.0
C4415 C 0.68658 0.17352 0.14628 0.0
C4416 C 0.68343 0.18522 0.14851 0.0
H4417 H 0.69005 0.16967 0.07056 0.0
H4418 H 0.68511 0.17458 0.09099 0.0
C4419 C 0.68416 0.18991 0.15991 0.0
C4420 C 0.68794 0.1694 0.13401 0.0
H4421 H 0.70396 0.17472 0.10946 0.0
C4422 C 0.68042 0.16043 0.12939 0.0
C4423 C 0.69662 0.17452 0.12681 0.0
C4424 C 0.70537 0.18372 0.13156 0.0
C4425 C 0.68126 0.15659 0.1176 0.0
C4426 C 0.68983 0.16186 0.11039 0.0
C4427 C 0.69735 0.17079 0.11504 0.0
C4428 C 0.69142 0.15819 0.098 0.0
C4429 C 0.67284 0.14718 0.11279 0.0
C4430 C 0.69666 0.14739 0.09526 0.0
C4431 C 0.69968 0.14465 0.08363 0.0
C4432 C 0.69739 0.15266 0.07462 0.0
C4433 C 0.69185 0.16334 0.07737 0.0
C4434 C 0.68899 0.16613 0.08899 0.0
H4435 H 0.66596 0.14479 0.11922 0.0
H4436 H 0.66848 0.15023 0.10457 0.0
H4437 H 0.67782 0.13913 0.11052 0.0
H4438 H 0.69877 0.14126 0.10217 0.0
H4439 H 0.70385 0.13633 0.08168 0.0
H4440 H 0.96675 0.96411 0.59452 0.0
H4441 H 0.96544 0.97145 0.57453 0.0
H4442 H 1.0033 0.97593 0.57403 0.0
H4443 H 1.0047 0.96839 0.59418 0.0
H4444 H 0.97212 0.99315 0.56711 0.0
H4445 H 0.99687 0.95884 0.54253 0.0
H4446 H 0.99099 0.95627 0.55698 0.0
H4447 H 1.00394 0.96542 0.55543 0.0
C4448 C 0.97482 0.96672 0.59023 0.0
C4449 C 0.98581 0.96579 0.59604 0.0
C4450 C 0.97407 0.97084 0.57873 0.0
C4451 C 0.98426 0.97414 0.57268 0.0
C4452 C 0.99532 0.97319 0.57839 0.0
H4453 H 0.98413 1.00362 0.50115 0.0
H4454 H 0.99062 0.99736 0.52067 0.0
C4455 C 0.99609 0.96896 0.58994 0.0
C4456 C 0.98295 0.97912 0.56065 0.0
H4457 H 0.98828 0.97387 0.53142 0.0
C4458 C 0.97573 0.98896 0.55932 0.0
C4459 C 0.98773 0.97373 0.55048 0.0
C4460 C 0.99527 0.96294 0.55132 0.0
C4461 C 0.97283 0.9933 0.54815 0.0
C4462 C 0.97721 0.98767 0.53795 0.0
C4463 C 0.98488 0.97815 0.53925 0.0
C4464 C 0.97337 0.99121 0.5259 0.0
C4465 C 0.96505 1.00392 0.54733 0.0
C4466 C 0.96154 0.98969 0.52223 0.0
C4467 C 0.95778 0.99309 0.51098 0.0
C4468 C 0.96575 0.99815 0.50305 0.0
C4469 C 0.97767 0.99963 0.50681 0.0
C4470 C 0.98143 0.99611 0.51805 0.0
H4471 H 0.9641 0.01376 0.55603 0.0
H4472 H 0.96888 0.0157 0.54107 0.0
H4473 H 0.95616 1.00112 0.54397 0.0
H4474 H 0.95519 0.98572 0.52806 0.0
H4475 H 0.94863 0.99146 0.50845 0.0
H4476 H 0.01483 0.64037 0.73812 0.0
H4477 H 0.01176 0.62058 0.73068 0.0
H4478 H 1.00318 0.63315 0.69523 0.0
H4479 H 0.01163 0.65302 0.7022 0.0
H4480 H 0.98642 0.61182 0.71827 0.0
H4481 H 0.03225 0.60656 0.69126 0.0
H4482 H 0.03147 0.61743 0.70306 0.0
H4483 H 0.02393 0.61974 0.68927 0.0
C4484 C 0.01357 0.6393 0.72872 0.0
C4485 C 0.0136 0.64898 0.72102 0.0
C4486 C 0.01186 0.62773 0.72447 0.0
C4487 C 1.00466 0.62535 0.71238 0.0
C4488 C 1.00471 0.63474 0.70459 0.0
H4489 H 0.98883 0.55602 0.67873 0.0
H4490 H 0.99251 0.57722 0.6814 0.0
C4491 C 0.01196 0.64633 0.70879 0.0
C4492 C 1.00224 0.61309 0.70812 0.0
H4493 H 0.01893 0.59043 0.69163 0.0
C4494 C 0.99229 0.60716 0.71242 0.0
C4495 C 0.01542 0.6071 0.70033 0.0
C4496 C 0.02642 0.61296 0.69573 0.0
C4497 C 0.98989 0.59531 0.70944 0.0
C4498 C 0.99772 0.58917 0.70206 0.0
C4499 C 0.01299 0.5952 0.69731 0.0
C4500 C 0.99642 0.57628 0.70007 0.0
C4501 C 0.97902 0.58937 0.71424 0.0
C4502 C 0.99777 0.56872 0.70961 0.0
C4503 C 0.99535 0.55666 0.70824 0.0
C4504 C 0.99176 0.55181 0.69721 0.0
C4505 C 0.99121 0.55938 0.68746 0.0
C4506 C 0.99344 0.57152 0.68891 0.0
H4507 H 0.9728 0.59585 0.71798 0.0
H4508 H 0.97437 0.58406 0.7072 0.0
H4509 H 0.98163 0.58332 0.72136 0.0
H4510 H 1.00029 0.57223 0.71826 0.0
H4511 H 0.9958 0.5513 0.71602 0.0
loop_
_geom_bond_atom_site_label_1
_geom_bond_atom_site_label_2
_geom_bond_distance
_geom_bond_site_symmetry_2
_ccdc_geom_bond_type
C0 C1 1.264 . S
C0 C5 1.479 . S
C0 C10 1.465 . S
C1 C0 1.264 . S
C1 C3 1.339 . S
C1 H28 0.931 . S
C2 C3 1.395 . S
C2 C4 1.320 . S
C3 C1 1.339 . S
C3 C2 1.395 . S
C3 H29 0.929 . S
C4 C2 1.320 . S
C4 C5 1.405 . S
C4 H30 0.930 . S
C5 C0 1.479 . S
C5 C4 1.405 . S
C5 H31 0.931 . S
U6 O7 2.434 1_455 S
U6 O8 2.422 1_455 S
U6 C9 2.953 1_455 S
U6 C10 2.878 . S
U6 C23 2.882 1_455 S
U6 O24 2.461 . S
U6 O25 2.456 . S
U6 O26 2.439 1_455 S
U6 O27 2.465 . S
O7 U6 2.434 1_655 S
O7 C9 1.353 . S
O8 U6 2.422 1_655 S
O8 C9 1.286 . S
C9 U6 2.953 1_655 S
C9 O7 1.353 . S
C9 O8 1.286 . S
C9 C11 1.363 . S
C10 C0 1.465 . S
C10 U6 2.878 . S
C10 O24 1.249 . S
C10 O25 1.202 . S
C11 C9 1.363 . S
C11 C13 1.408 . S
C11 C16 1.342 . S
C12 C13 1.310 . S
C12 C15 1.461 . S
C12 H32 0.932 . S
C13 C11 1.408 . S
C13 C12 1.310 . S
C13 H33 0.930 . S
C14 C15 1.474 . S
C14 C16 1.285 . S
C14 H34 0.929 . S
C15 C12 1.461 . S
C15 C14 1.474 . S
C16 C11 1.342 . S
C16 C14 1.285 . S
C16 H35 0.930 . S
C17 C20 1.369 1_655 S
C17 C22 1.299 . S
C17 C23 1.428 . S
C18 C21 1.269 . S
C18 C22 1.477 . S
C18 H36 0.932 . S
C19 C20 1.384 . S
C19 C21 1.469 1_455 S
C19 H37 0.929 . S
C20 C17 1.369 1_455 S
C20 C19 1.384 . S
C20 H38 0.928 . S
C21 C18 1.269 . S
C21 C19 1.469 1_655 S
C22 C17 1.299 . S
C22 C18 1.477 . S
C22 H39 0.932 . S
C23 U6 2.882 1_655 S
C23 C17 1.428 . S
C23 O26 1.297 . S
C23 O27 1.286 1_655 S
O24 U6 2.461 . S
O24 C10 1.249 . S
O25 U6 2.456 . S
O25 C10 1.202 . S
O26 U6 2.439 1_655 S
O26 C23 1.297 . S
O27 U6 2.465 . S
O27 C23 1.286 1_455 S
H28 C1 0.931 . S
H29 C3 0.929 . S
H30 C4 0.930 . S
H31 C5 0.931 . S
H32 C12 0.932 . S
H33 C13 0.930 . S
H34 C14 0.929 . S
H35 C16 0.930 . S
H36 C18 0.932 . S
H37 C19 0.929 . S
H38 C20 0.928 . S
H39 C22 0.932 . S
C40 C41 1.264 . S
C40 C45 1.479 . S
C40 C50 1.465 . S
C41 C40 1.264 . S
C41 C43 1.339 . S
C41 H68 0.931 . S
C42 C43 1.395 . S
C42 C44 1.320 . S
C43 C41 1.339 . S
C43 C42 1.395 . S
C43 H69 0.929 . S
C44 C42 1.320 . S
C44 C45 1.405 . S
C44 H70 0.930 . S
C45 C40 1.479 . S
C45 C44 1.405 . S
C45 H71 0.931 . S
U46 O47 2.438 1_455 S
U46 O48 2.458 1_455 S
U46 C49 2.984 1_455 S
U46 C50 2.847 . S
U46 C63 2.882 1_455 S
U46 O64 2.441 . S
U46 O65 2.420 . S
U46 O66 2.455 1_455 S
U46 O67 2.449 . S
O47 U46 2.438 1_655 S
O47 C49 1.421 . S
O48 U46 2.458 1_655 S
O48 C49 1.286 . S
C49 U46 2.984 1_655 S
C49 O47 1.421 . S
C49 O48 1.286 . S
C49 C51 1.363 . S
C50 C40 1.465 . S
C50 U46 2.847 . S
C50 O64 1.249 . S
C50 O65 1.202 . S
C51 C49 1.363 . S
C51 C53 1.408 . S
C51 C56 1.342 . S
C52 C53 1.310 . S
C52 C55 1.461 . S
C52 H72 0.932 . S
C53 C51 1.408 . S
C53 C52 1.310 . S
C53 H73 0.930 . S
C54 C55 1.474 . S
C54 C56 1.285 . S
C54 H74 0.929 . S
C55 C52 1.461 . S
C55 C54 1.474 . S
C56 C51 1.342 . S
C56 C54 1.285 . S
C56 H75 0.930 . S
C57 C60 1.424 . S
C57 C62 1.245 . S
C57 C63 1.428 . S
C58 C61 1.260 . S
C58 C62 1.477 . S
C58 H76 0.932 . S
C59 C60 1.384 . S
C59 C61 1.479 . S
C59 H77 0.929 . S
C60 C57 1.424 . S
C60 C59 1.384 . S
C60 H78 0.886 1_655 S
C61 C58 1.260 . S
C61 C59 1.479 . S
C62 C57 1.245 . S
C62 C58 1.477 . S
C62 H79 0.932 . S
C63 U46 2.882 1_655 S
C63 C57 1.428 . S
C63 O66 1.301 . S
C63 O67 1.282 1_655 S
O64 U46 2.441 . S
O64 C50 1.249 . S
O65 U46 2.420 . S
O65 C50 1.202 . S
O66 U46 2.455 1_655 S
O66 C63 1.301 . S
O67 U46 2.449 . S
O67 C63 1.282 1_455 S
H68 C41 0.931 . S
H69 C43 0.929 . S
H70 C44 0.930 . S
H71 C45 0.931 . S
H72 C52 0.932 . S
H73 C53 0.930 . S
H74 C54 0.929 . S
H75 C56 0.930 . S
H76 C58 0.932 . S
H77 C59 0.929 . S
H78 C60 0.886 1_455 S
H79 C62 0.932 . S
C80 C81 1.264 . S
C80 C85 1.479 . S
C80 C90 1.465 . S
C81 C80 1.264 . S
C81 C83 1.339 . S
C81 H108 0.931 . S
C82 C83 1.395 . S
C82 C84 1.320 . S
C83 C81 1.339 . S
C83 C82 1.395 . S
C83 H109 0.929 . S
C84 C82 1.320 . S
C84 C85 1.405 . S
C84 H110 0.930 . S
C85 C80 1.479 . S
C85 C84 1.405 . S
C85 H111 0.931 . S
U86 O87 2.454 . S
U86 O88 2.458 . S
U86 C89 2.984 . S
U86 C90 2.847 . S
U86 C103 2.882 . S
U86 O104 2.441 . S
U86 O105 2.420 . S
U86 O106 2.455 . S
U86 O107 2.449 . S
O87 U86 2.454 . S
O87 C89 1.353 . S
O88 U86 2.458 . S
O88 C89 1.286 . S
C89 U86 2.984 . S
C89 O87 1.353 . S
C89 O88 1.286 . S
C89 C91 1.363 . S
C90 C80 1.465 . S
C90 U86 2.847 . S
C90 O104 1.249 . S
C90 O105 1.202 . S
C91 C89 1.363 . S
C91 C93 1.408 . S
C91 C96 1.342 . S
C92 C93 1.310 . S
C92 C95 1.461 . S
C92 H112 0.932 . S
C93 C91 1.408 . S
C93 C92 1.310 . S
C93 H113 0.930 . S
C94 C95 1.474 . S
C94 C96 1.285 . S
C94 H114 0.941 . S
C95 C92 1.461 . S
C95 C94 1.474 . S
C96 C91 1.342 . S
C96 C94 1.285 . S
C96 H115 0.951 . S
C97 C100 1.417 1_554 S
C97 C102 1.253 . S
C97 C103 1.428 . S
C98 C101 1.260 . S
C98 C102 1.470 1_556 S
C98 H116 0.932 . S
C99 C100 1.391 . S
C99 C101 1.479 . S
C99 H117 0.929 . S
C100 C97 1.417 1_556 S
C100 C99 1.391 . S
C100 H118 0.928 . S
C101 C98 1.260 . S
C101 C99 1.479 . S
C102 C97 1.253 . S
C102 C98 1.470 1_554 S
C102 H119 0.932 . S
C103 U86 2.882 . S
C103 C97 1.428 . S
C103 O106 1.301 . S
C103 O107 1.282 . S
O104 U86 2.441 . S
O104 C90 1.249 . S
O105 U86 2.420 . S
O105 C90 1.202 . S
O106 U86 2.455 . S
O106 C103 1.301 . S
O107 U86 2.449 . S
O107 C103 1.282 . S
H108 C81 0.931 . S
H109 C83 0.929 . S
H110 C84 0.930 . S
H111 C85 0.931 . S
H112 C92 0.932 . S
H113 C93 0.930 . S
H114 C94 0.941 . S
H115 C96 0.951 . S
H116 C98 0.932 . S
H117 C99 0.929 . S
H118 C100 0.928 . S
H119 C102 0.932 . S
C120 C121 1.264 . S
C120 C125 1.479 . S
C120 C130 1.465 . S
C121 C120 1.264 . S
C121 C123 1.339 . S
C121 H148 0.931 . S
C122 C123 1.395 . S
C122 C124 1.320 . S
C123 C121 1.339 . S
C123 C122 1.395 . S
C123 H149 0.929 . S
C124 C122 1.320 . S
C124 C125 1.405 . S
C124 H150 0.930 . S
C125 C120 1.479 . S
C125 C124 1.405 . S
C125 H151 0.931 . S
U126 O127 2.454 . S
U126 O128 2.458 . S
U126 C129 2.984 . S
U126 C130 2.847 . S
U126 C143 2.882 . S
U126 O144 2.441 . S
U126 O145 2.420 . S
U126 O146 2.455 . S
U126 O147 2.449 . S
O127 U126 2.454 . S
O127 C129 1.353 . S
O128 U126 2.458 . S
O128 C129 1.286 . S
C129 U126 2.984 . S
C129 O127 1.353 . S
C129 O128 1.286 . S
C129 C131 1.363 . S
C130 C120 1.465 . S
C130 U126 2.847 . S
C130 O144 1.249 . S
C130 O145 1.202 . S
C131 C129 1.363 . S
C131 C133 1.408 . S
C131 C136 1.342 . S
C132 C133 1.310 . S
C132 C135 1.461 . S
C132 H152 0.932 . S
C133 C131 1.408 . S
C133 C132 1.310 . S
C133 H153 0.930 . S
C134 C135 1.474 . S
C134 C136 1.285 . S
C134 H154 0.929 . S
C135 C132 1.461 . S
C135 C134 1.474 . S
C136 C131 1.342 . S
C136 C134 1.285 . S
C136 H155 0.930 . S
C137 C140 1.424 . S
C137 C142 1.245 . S
C137 C143 1.428 . S
C138 C141 1.260 . S
C138 C142 1.477 . S
C138 H156 0.932 . S
C139 C140 1.384 . S
C139 C141 1.479 . S
C139 H157 0.929 . S
C140 C137 1.424 . S
C140 C139 1.384 . S
C140 H158 0.928 . S
C141 C138 1.260 . S
C141 C139 1.479 . S
C142 C137 1.245 . S
C142 C138 1.477 . S
C142 H159 0.932 . S
C143 U126 2.882 . S
C143 C137 1.428 . S
C143 O146 1.301 . S
C143 O147 1.282 . S
O144 U126 2.441 . S
O144 C130 1.249 . S
O145 U126 2.420 . S
O145 C130 1.202 . S
O146 U126 2.455 . S
O146 C143 1.301 . S
O147 U126 2.449 . S
O147 C143 1.282 . S
H148 C121 0.931 . S
H149 C123 0.929 . S
H150 C124 0.930 . S
H151 C125 0.931 . S
H152 C132 0.932 . S
H153 C133 0.930 . S
H154 C134 0.929 . S
H155 C136 0.930 . S
H156 C138 0.932 . S
H157 C139 0.929 . S
H158 C140 0.928 . S
H159 C142 0.932 . S
C160 C161 1.264 . S
C160 C165 1.479 . S
C160 C170 1.465 . S
C161 C160 1.264 . S
C161 C163 1.339 . S
C161 H188 0.931 . S
C162 C163 1.395 . S
C162 C164 1.320 . S
C163 C161 1.339 . S
C163 C162 1.395 . S
C163 H189 0.929 . S
C164 C162 1.320 . S
C164 C165 1.405 . S
C164 H190 0.930 . S
C165 C160 1.479 . S
C165 C164 1.405 . S
C165 H191 0.931 . S
U166 O167 2.456 1_455 S
U166 O168 2.461 1_455 S
U166 C169 2.987 1_455 S
U166 C170 2.844 . S
U166 C183 2.883 1_455 S
U166 O184 2.439 . S
U166 O185 2.417 . S
U166 O186 2.457 1_455 S
U166 O187 2.448 . S
O167 U166 2.456 1_655 S
O167 C169 1.353 . S
O168 U166 2.461 1_655 S
O168 C169 1.286 . S
C169 U166 2.987 1_655 S
C169 O167 1.353 . S
C169 O168 1.286 . S
C169 C171 1.363 . S
C170 C160 1.465 . S
C170 U166 2.844 . S
C170 O184 1.249 . S
C170 O185 1.202 . S
C171 C169 1.363 . S
C171 C173 1.408 . S
C171 C176 1.342 . S
C172 C173 1.310 . S
C172 C175 1.461 . S
C172 H192 0.932 . S
C173 C171 1.408 . S
C173 C172 1.310 . S
C173 H193 0.930 . S
C174 C175 1.474 . S
C174 C176 1.285 . S
C174 H194 0.929 . S
C175 C172 1.461 . S
C175 C174 1.474 . S
C176 C171 1.342 . S
C176 C174 1.285 . S
C176 H195 0.930 . S
C177 C180 1.424 1_655 S
C177 C182 1.245 . S
C177 C183 1.428 . S
C178 C181 1.260 . S
C178 C182 1.477 . S
C178 H196 0.932 . S
C179 C180 1.384 . S
C179 C181 1.479 1_455 S
C179 H197 0.929 . S
C180 C177 1.424 1_455 S
C180 C179 1.384 . S
C180 H198 0.928 . S
C181 C178 1.260 . S
C181 C179 1.479 1_655 S
C182 C177 1.245 . S
C182 C178 1.477 . S
C182 H199 0.932 . S
C183 U166 2.883 1_655 S
C183 C177 1.428 . S
C183 O186 1.301 . S
C183 O187 1.282 1_655 S
O184 U166 2.439 . S
O184 C170 1.249 . S
O185 U166 2.417 . S
O185 C170 1.202 . S
O186 U166 2.457 1_655 S
O186 C183 1.301 . S
O187 U166 2.448 . S
O187 C183 1.282 1_455 S
H188 C161 0.931 . S
H189 C163 0.929 . S
H190 C164 0.930 . S
H191 C165 0.931 . S
H192 C172 0.932 . S
H193 C173 0.930 . S
H194 C174 0.929 . S
H195 C176 0.930 . S
H196 C178 0.932 . S
H197 C179 0.929 . S
H198 C180 0.928 . S
H199 C182 0.932 . S
C200 C201 1.264 . S
C200 C205 1.479 . S
C200 C210 1.465 . S
C201 C200 1.264 . S
C201 C203 1.339 . S
C201 H228 0.931 . S
C202 C203 1.395 . S
C202 C204 1.320 . S
C203 C201 1.339 . S
C203 C202 1.395 . S
C203 H229 0.929 . S
C204 C202 1.320 . S
C204 C205 1.405 . S
C204 H230 0.896 1_565 S
C205 C200 1.479 . S
C205 C204 1.405 . S
C205 H231 0.931 . S
U206 O207 2.454 . S
U206 O208 2.458 . S
U206 C209 2.984 . S
U206 C210 2.847 . S
U206 C223 2.882 . S
U206 O224 2.441 . S
U206 O225 2.420 . S
U206 O226 2.455 . S
U206 O227 2.449 . S
O207 U206 2.454 . S
O207 C209 1.353 . S
O208 U206 2.458 . S
O208 C209 1.286 . S
C209 U206 2.984 . S
C209 O207 1.353 . S
C209 O208 1.286 . S
C209 C211 1.363 . S
C210 C200 1.465 . S
C210 U206 2.847 . S
C210 O224 1.249 . S
C210 O225 1.202 . S
C211 C209 1.363 . S
C211 C213 1.408 . S
C211 C216 1.342 . S
C212 C213 1.310 1_545 S
C212 C215 1.489 . S
C212 H232 0.932 . S
C213 C211 1.408 . S
C213 C212 1.310 1_565 S
C213 H233 0.926 1_565 S
C214 C215 1.401 1_565 S
C214 C216 1.285 . S
C214 H234 0.929 . S
C215 C212 1.489 . S
C215 C214 1.401 1_545 S
C216 C211 1.342 . S
C216 C214 1.285 . S
C216 H235 0.930 . S
C217 C220 1.424 . S
C217 C222 1.245 . S
C217 C223 1.428 . S
C218 C221 1.260 . S
C218 C222 1.477 . S
C218 H236 0.932 . S
C219 C220 1.384 . S
C219 C221 1.479 . S
C219 H237 0.929 . S
C220 C217 1.424 . S
C220 C219 1.384 . S
C220 H238 0.928 . S
C221 C218 1.260 . S
C221 C219 1.479 . S
C222 C217 1.245 . S
C222 C218 1.477 . S
C222 H239 0.932 . S
C223 U206 2.882 . S
C223 C217 1.428 . S
C223 O226 1.301 . S
C223 O227 1.282 . S
O224 U206 2.441 . S
O224 C210 1.249 . S
O225 U206 2.420 . S
O225 C210 1.202 . S
O226 U206 2.455 . S
O226 C223 1.301 . S
O227 U206 2.449 . S
O227 C223 1.282 . S
H228 C201 0.931 . S
H229 C203 0.929 . S
H230 C204 0.896 1_545 S
H231 C205 0.931 . S
H232 C212 0.932 . S
H233 C213 0.926 1_545 S
H234 C214 0.929 . S
H235 C216 0.930 . S
H236 C218 0.932 . S
H237 C219 0.929 . S
H238 C220 0.928 . S
H239 C222 0.932 . S
C240 C241 1.264 . S
C240 C245 1.479 . S
C240 C250 1.465 . S
C241 C240 1.264 . S
C241 C243 1.339 . S
C241 H268 0.931 . S
C242 C243 1.395 . S
C242 C244 1.320 . S
C243 C241 1.339 . S
C243 C242 1.395 . S
C243 H269 0.929 . S
C244 C242 1.320 . S
C244 C245 1.405 . S
C244 H270 0.930 . S
C245 C240 1.479 . S
C245 C244 1.405 . S
C245 H271 0.931 . S
U246 O247 2.454 . S
U246 O248 2.458 . S
U246 C249 2.984 . S
U246 C250 2.847 . S
U246 C263 2.882 . S
U246 O264 2.441 . S
U246 O265 2.420 . S
U246 O266 2.455 . S
U246 O267 2.449 . S
O247 U246 2.454 . S
O247 C249 1.353 . S
O248 U246 2.458 . S
O248 C249 1.286 . S
C249 U246 2.984 . S
C249 O247 1.353 . S
C249 O248 1.286 . S
C249 C251 1.363 . S
C250 C240 1.465 . S
C250 U246 2.847 . S
C250 O264 1.249 . S
C250 O265 1.202 . S
C251 C249 1.363 . S
C251 C253 1.408 . S
C251 C256 1.342 . S
C252 C253 1.310 . S
C252 C255 1.461 . S
C252 H272 0.932 . S
C253 C251 1.408 . S
C253 C252 1.310 . S
C253 H273 0.930 . S
C254 C255 1.474 . S
C254 C256 1.285 . S
C254 H274 0.929 . S
C255 C252 1.461 . S
C255 C254 1.474 . S
C256 C251 1.342 . S
C256 C254 1.285 . S
C256 H275 0.930 . S
C257 C260 1.424 . S
C257 C262 1.245 . S
C257 C263 1.428 . S
C258 C261 1.260 . S
C258 C262 1.477 . S
C258 H276 0.932 . S
C259 C260 1.384 . S
C259 C261 1.479 . S
C259 H277 0.929 . S
C260 C257 1.424 . S
C260 C259 1.384 . S
C260 H278 0.928 . S
C261 C258 1.260 . S
C261 C259 1.479 . S
C262 C257 1.245 . S
C262 C258 1.477 . S
C262 H279 0.932 . S
C263 U246 2.882 . S
C263 C257 1.428 . S
C263 O266 1.301 . S
C263 O267 1.282 . S
O264 U246 2.441 . S
O264 C250 1.249 . S
O265 U246 2.420 . S
O265 C250 1.202 . S
O266 U246 2.455 . S
O266 C263 1.301 . S
O267 U246 2.449 . S
O267 C263 1.282 . S
H268 C241 0.931 . S
H269 C243 0.929 . S
H270 C244 0.930 . S
H271 C245 0.931 . S
H272 C252 0.932 . S
H273 C253 0.930 . S
H274 C254 0.929 . S
H275 C256 0.930 . S
H276 C258 0.932 . S
H277 C259 0.929 . S
H278 C260 0.928 . S
H279 C262 0.932 . S
C280 C281 1.264 . S
C280 C285 1.479 . S
C280 C290 1.465 . S
C281 C280 1.264 . S
C281 C283 1.339 . S
C281 H308 0.931 . S
C282 C283 1.395 . S
C282 C284 1.320 . S
C283 C281 1.339 . S
C283 C282 1.395 . S
C283 H309 0.929 . S
C284 C282 1.320 . S
C284 C285 1.405 . S
C284 H310 0.930 . S
C285 C280 1.479 . S
C285 C284 1.405 . S
C285 H311 0.931 . S
U286 O287 2.455 1_455 S
U286 O288 2.458 1_455 S
U286 C289 2.984 1_455 S
U286 C290 2.847 . S
U286 C303 2.882 1_455 S
U286 O304 2.441 . S
U286 O305 2.420 . S
U286 O306 2.455 1_455 S
U286 O307 2.449 . S
O287 U286 2.455 1_655 S
O287 C289 1.343 . S
O288 U286 2.458 1_655 S
O288 C289 1.286 . S
C289 U286 2.984 1_655 S
C289 O287 1.343 . S
C289 O288 1.286 . S
C289 C291 1.363 . S
C290 C280 1.465 . S
C290 U286 2.847 . S
C290 O304 1.249 . S
C290 O305 1.202 . S
C291 C289 1.363 . S
C291 C293 1.408 . S
C291 C296 1.342 . S
C292 C293 1.310 . S
C292 C295 1.461 . S
C292 H312 0.932 . S
C293 C291 1.408 . S
C293 C292 1.310 . S
C293 H313 0.930 . S
C294 C295 1.474 . S
C294 C296 1.285 . S
C294 H314 0.929 . S
C295 C292 1.461 . S
C295 C294 1.474 . S
C296 C291 1.342 . S
C296 C294 1.285 . S
C296 H315 0.930 . S
C297 C300 1.424 . S
C297 C302 1.245 . S
C297 C303 1.428 . S
C298 C301 1.260 . S
C298 C302 1.477 . S
C298 H316 0.932 . S
C299 C300 1.384 . S
C299 C301 1.479 . S
C299 H317 0.929 . S
C300 C297 1.424 . S
C300 C299 1.384 . S
C300 H318 1.003 . S
C301 C298 1.260 . S
C301 C299 1.479 . S
C302 C297 1.245 . S
C302 C298 1.477 . S
C302 H319 0.932 . S
C303 U286 2.882 1_655 S
C303 C297 1.428 . S
C303 O306 1.301 . S
C303 O307 1.282 1_655 S
O304 U286 2.441 . S
O304 C290 1.249 . S
O305 U286 2.420 . S
O305 C290 1.202 . S
O306 U286 2.455 1_655 S
O306 C303 1.301 . S
O307 U286 2.449 . S
O307 C303 1.282 1_455 S
H308 C281 0.931 . S
H309 C283 0.929 . S
H310 C284 0.930 . S
H311 C285 0.931 . S
H312 C292 0.932 . S
H313 C293 0.930 . S
H314 C294 0.929 . S
H315 C296 0.930 . S
H316 C298 0.932 . S
H317 C299 0.929 . S
H318 C300 1.003 . S
H319 C302 0.932 . S
C320 C321 1.264 . S
C320 C325 1.479 . S
C320 C330 1.465 . S
C321 C320 1.264 . S
C321 C323 1.339 . S
C321 H348 0.931 . S
C322 C323 1.395 . S
C322 C324 1.320 . S
C323 C321 1.339 . S
C323 C322 1.395 . S
C323 H349 0.929 . S
C324 C322 1.320 . S
C324 C325 1.405 . S
C324 H350 0.930 . S
C325 C320 1.479 . S
C325 C324 1.405 . S
C325 H351 0.931 . S
U326 O327 2.434 1_545 S
U326 O328 2.422 1_545 S
U326 C329 2.953 1_545 S
U326 C330 2.878 . S
U326 C343 2.882 1_545 S
U326 O344 2.461 . S
U326 O345 2.456 . S
U326 O346 2.439 1_545 S
U326 O347 2.465 . S
O327 U326 2.434 1_565 S
O327 C329 1.353 . S
O328 U326 2.422 1_565 S
O328 C329 1.286 . S
C329 U326 2.953 1_565 S
C329 O327 1.353 . S
C329 O328 1.286 . S
C329 C331 1.363 . S
C330 C320 1.465 . S
C330 U326 2.878 . S
C330 O344 1.249 . S
C330 O345 1.202 . S
C331 C329 1.363 . S
C331 C333 1.408 . S
C331 C336 1.342 . S
C332 C333 1.310 . S
C332 C335 1.461 . S
C332 H352 0.932 . S
C333 C331 1.408 . S
C333 C332 1.310 . S
C333 H353 0.930 . S
C334 C335 1.474 . S
C334 C336 1.285 . S
C334 H354 0.929 . S
C335 C332 1.461 . S
C335 C334 1.474 . S
C336 C331 1.342 . S
C336 C334 1.285 . S
C336 H355 0.930 . S
C337 C340 1.369 1_565 S
C337 C342 1.299 . S
C337 C343 1.428 . S
C338 C341 1.269 . S
C338 C342 1.477 . S
C338 H356 0.932 . S
C339 C340 1.384 . S
C339 C341 1.469 1_545 S
C339 H357 0.929 . S
C340 C337 1.369 1_545 S
C340 C339 1.384 . S
C340 H358 0.928 . S
C341 C338 1.269 . S
C341 C339 1.469 1_565 S
C342 C337 1.299 . S
C342 C338 1.477 . S
C342 H359 0.932 . S
C343 U326 2.882 1_565 S
C343 C337 1.428 . S
C343 O346 1.297 . S
C343 O347 1.286 1_565 S
O344 U326 2.461 . S
O344 C330 1.249 . S
O345 U326 2.456 . S
O345 C330 1.202 . S
O346 U326 2.439 1_565 S
O346 C343 1.297 . S
O347 U326 2.465 . S
O347 C343 1.286 1_545 S
H348 C321 0.931 . S
H349 C323 0.929 . S
H350 C324 0.930 . S
H351 C325 0.931 . S
H352 C332 0.932 . S
H353 C333 0.930 . S
H354 C334 0.929 . S
H355 C336 0.930 . S
H356 C338 0.932 . S
H357 C339 0.929 . S
H358 C340 0.928 . S
H359 C342 0.932 . S
C360 C361 1.264 . S
C360 C365 1.479 . S
C360 C370 1.465 . S
C361 C360 1.264 . S
C361 C363 1.339 . S
C361 H388 0.931 . S
C362 C363 1.395 . S
C362 C364 1.320 . S
C363 C361 1.339 . S
C363 C362 1.395 . S
C363 H389 0.929 . S
C364 C362 1.320 . S
C364 C365 1.405 . S
C364 H390 0.930 . S
C365 C360 1.479 . S
C365 C364 1.405 . S
C365 H391 0.931 . S
U366 O367 2.454 . S
U366 O368 2.458 . S
U366 C369 2.984 . S
U366 C370 2.847 . S
U366 C383 2.882 . S
U366 O384 2.441 . S
U366 O385 2.420 . S
U366 O386 2.455 . S
U366 O387 2.449 . S
O367 U366 2.454 . S
O367 C369 1.353 . S
O368 U366 2.458 . S
O368 C369 1.286 . S
C369 U366 2.984 . S
C369 O367 1.353 . S
C369 O368 1.286 . S
C369 C371 1.363 . S
C370 C360 1.465 . S
C370 U366 2.847 . S
C370 O384 1.249 . S
C370 O385 1.202 . S
C371 C369 1.363 . S
C371 C373 1.408 . S
C371 C376 1.342 . S
C372 C373 1.310 . S
C372 C375 1.461 . S
C372 H392 0.932 . S
C373 C371 1.408 . S
C373 C372 1.310 . S
C373 H393 0.930 . S
C374 C375 1.474 . S
C374 C376 1.285 . S
C374 H394 0.929 . S
C375 C372 1.461 . S
C375 C374 1.474 . S
C376 C371 1.342 . S
C376 C374 1.285 . S
C376 H395 0.930 . S
C377 C380 1.424 . S
C377 C382 1.245 . S
C377 C383 1.428 . S
C378 C381 1.260 . S
C378 C382 1.477 . S
C378 H396 0.932 . S
C379 C380 1.384 . S
C379 C381 1.479 . S
C379 H397 0.929 . S
C380 C377 1.424 . S
C380 C379 1.384 . S
C380 H398 0.928 . S
C381 C378 1.260 . S
C381 C379 1.479 . S
C382 C377 1.245 . S
C382 C378 1.477 . S
C382 H399 0.932 . S
C383 U366 2.882 . S
C383 C377 1.428 . S
C383 O386 1.301 . S
C383 O387 1.282 . S
O384 U366 2.441 . S
O384 C370 1.249 . S
O385 U366 2.420 . S
O385 C370 1.202 . S
O386 U366 2.455 . S
O386 C383 1.301 . S
O387 U366 2.449 . S
O387 C383 1.282 . S
H388 C361 0.931 . S
H389 C363 0.929 . S
H390 C364 0.930 . S
H391 C365 0.931 . S
H392 C372 0.932 . S
H393 C373 0.930 . S
H394 C374 0.929 . S
H395 C376 0.930 . S
H396 C378 0.932 . S
H397 C379 0.929 . S
H398 C380 0.928 . S
H399 C382 0.932 . S
C400 C401 1.264 . S
C400 C405 1.479 . S
C400 C410 1.465 . S
C401 C400 1.264 . S
C401 C403 1.339 . S
C401 H428 0.931 . S
C402 C403 1.395 . S
C402 C404 1.320 . S
C403 C401 1.339 . S
C403 C402 1.395 . S
C403 H429 0.929 . S
C404 C402 1.320 . S
C404 C405 1.405 . S
C404 H430 0.930 . S
C405 C400 1.479 . S
C405 C404 1.405 . S
C405 H431 0.931 . S
U406 O407 2.454 . S
U406 O408 2.458 . S
U406 C409 2.984 . S
U406 C410 2.847 . S
U406 C423 2.882 . S
U406 O424 2.441 . S
U406 O425 2.420 . S
U406 O426 2.455 . S
U406 O427 2.449 . S
O407 U406 2.454 . S
O407 C409 1.353 . S
O408 U406 2.458 . S
O408 C409 1.286 . S
C409 U406 2.984 . S
C409 O407 1.353 . S
C409 O408 1.286 . S
C409 C411 1.363 . S
C410 C400 1.465 . S
C410 U406 2.847 . S
C410 O424 1.249 . S
C410 O425 1.202 . S
C411 C409 1.363 . S
C411 C413 1.408 . S
C411 C416 1.342 . S
C412 C413 1.310 . S
C412 C415 1.461 . S
C412 H432 0.932 . S
C413 C411 1.408 . S
C413 C412 1.310 . S
C413 H433 0.930 . S
C414 C415 1.474 . S
C414 C416 1.285 . S
C414 H434 0.929 . S
C415 C412 1.461 . S
C415 C414 1.474 . S
C416 C411 1.342 . S
C416 C414 1.285 . S
C416 H435 0.930 . S
C417 C420 1.424 . S
C417 C422 1.245 . S
C417 C423 1.428 . S
C418 C421 1.260 . S
C418 C422 1.477 . S
C418 H436 0.932 . S
C419 C420 1.384 . S
C419 C421 1.479 . S
C419 H437 0.929 . S
C420 C417 1.424 . S
C420 C419 1.384 . S
C420 H438 0.928 . S
C421 C418 1.260 . S
C421 C419 1.479 . S
C422 C417 1.245 . S
C422 C418 1.477 . S
C422 H439 0.932 . S
C423 U406 2.882 . S
C423 C417 1.428 . S
C423 O426 1.301 . S
C423 O427 1.282 . S
O424 U406 2.441 . S
O424 C410 1.249 . S
O425 U406 2.420 . S
O425 C410 1.202 . S
O426 U406 2.455 . S
O426 C423 1.301 . S
O427 U406 2.449 . S
O427 C423 1.282 . S
H428 C401 0.931 . S
H429 C403 0.929 . S
H430 C404 0.930 . S
H431 C405 0.931 . S
H432 C412 0.932 . S
H433 C413 0.930 . S
H434 C414 0.929 . S
H435 C416 0.930 . S
H436 C418 0.932 . S
H437 C419 0.929 . S
H438 C420 0.928 . S
H439 C422 0.932 . S
C440 C441 1.264 . S
C440 C445 1.479 . S
C440 C450 1.465 . S
C441 C440 1.264 . S
C441 C443 1.339 . S
C441 H468 0.931 . S
C442 C443 1.395 . S
C442 C444 1.320 . S
C443 C441 1.339 . S
C443 C442 1.395 . S
C443 H469 0.929 . S
C444 C442 1.320 . S
C444 C445 1.405 . S
C444 H470 0.930 . S
C445 C440 1.479 . S
C445 C444 1.405 . S
C445 H471 0.931 . S
U446 O447 2.454 . S
U446 O448 2.458 . S
U446 C449 2.984 . S
U446 C450 2.847 . S
U446 C463 2.882 . S
U446 O464 2.441 . S
U446 O465 2.420 . S
U446 O466 2.455 . S
U446 O467 2.449 . S
O447 U446 2.454 . S
O447 C449 1.353 . S
O448 U446 2.458 . S
O448 C449 1.286 . S
C449 U446 2.984 . S
C449 O447 1.353 . S
C449 O448 1.286 . S
C449 C451 1.363 . S
C450 C440 1.465 . S
C450 U446 2.847 . S
C450 O464 1.249 . S
C450 O465 1.202 . S
C451 C449 1.363 . S
C451 C453 1.408 . S
C451 C456 1.342 . S
C452 C453 1.310 . S
C452 C455 1.461 . S
C452 H472 0.932 . S
C453 C451 1.408 . S
C453 C452 1.310 . S
C453 H473 0.930 . S
C454 C455 1.474 . S
C454 C456 1.285 . S
C454 H474 0.929 . S
C455 C452 1.461 . S
C455 C454 1.474 . S
C456 C451 1.342 . S
C456 C454 1.285 . S
C456 H475 0.930 . S
C457 C460 1.424 . S
C457 C462 1.245 . S
C457 C463 1.428 . S
C458 C461 1.260 . S
C458 C462 1.477 . S
C458 H476 0.932 . S
C459 C460 1.384 . S
C459 C461 1.479 . S
C459 H477 0.929 . S
C460 C457 1.424 . S
C460 C459 1.384 . S
C460 H478 0.928 . S
C461 C458 1.260 . S
C461 C459 1.479 . S
C462 C457 1.245 . S
C462 C458 1.477 . S
C462 H479 0.932 . S
C463 U446 2.882 . S
C463 C457 1.428 . S
C463 O466 1.301 . S
C463 O467 1.282 . S
O464 U446 2.441 . S
O464 C450 1.249 . S
O465 U446 2.420 . S
O465 C450 1.202 . S
O466 U446 2.455 . S
O466 C463 1.301 . S
O467 U446 2.449 . S
O467 C463 1.282 . S
H468 C441 0.931 . S
H469 C443 0.929 . S
H470 C444 0.930 . S
H471 C445 0.931 . S
H472 C452 0.932 . S
H473 C453 0.930 . S
H474 C454 0.929 . S
H475 C456 0.930 . S
H476 C458 0.932 . S
H477 C459 0.929 . S
H478 C460 0.928 . S
H479 C462 0.932 . S
C480 C481 1.264 . S
C480 C485 1.479 . S
C480 C490 1.465 . S
C481 C480 1.264 . S
C481 C483 1.339 . S
C481 H508 0.931 . S
C482 C483 1.395 . S
C482 C484 1.320 . S
C483 C481 1.339 . S
C483 C482 1.395 . S
C483 H509 0.929 . S
C484 C482 1.320 . S
C484 C485 1.405 . S
C484 H510 0.930 . S
C485 C480 1.479 . S
C485 C484 1.405 . S
C485 H511 0.931 . S
U486 O487 2.454 . S
U486 O488 2.458 . S
U486 C489 2.984 . S
U486 C490 2.847 . S
U486 C503 2.882 . S
U486 O504 2.441 . S
U486 O505 2.420 . S
U486 O506 2.455 . S
U486 O507 2.449 . S
O487 U486 2.454 . S
O487 C489 1.353 . S
O488 U486 2.458 . S
O488 C489 1.286 . S
C489 U486 2.984 . S
C489 O487 1.353 . S
C489 O488 1.286 . S
C489 C491 1.363 . S
C490 C480 1.465 . S
C490 U486 2.847 . S
C490 O504 1.249 . S
C490 O505 1.202 . S
C491 C489 1.363 . S
C491 C493 1.408 . S
C491 C496 1.342 . S
C492 C493 1.310 . S
C492 C495 1.461 . S
C492 H512 0.932 . S
C493 C491 1.408 . S
C493 C492 1.310 . S
C493 H513 0.930 . S
C494 C495 1.474 . S
C494 C496 1.285 . S
C494 H514 0.929 . S
C495 C492 1.461 . S
C495 C494 1.474 . S
C496 C491 1.342 . S
C496 C494 1.285 . S
C496 H515 0.930 . S
C497 C500 1.424 . S
C497 C502 1.245 . S
C497 C503 1.428 . S
C498 C501 1.260 . S
C498 C502 1.477 . S
C498 H516 0.932 . S
C499 C500 1.384 . S
C499 C501 1.479 . S
C499 H517 0.929 . S
C500 C497 1.424 . S
C500 C499 1.384 . S
C500 H518 0.928 . S
C501 C498 1.260 . S
C501 C499 1.479 . S
C502 C497 1.245 . S
C502 C498 1.477 . S
C502 H519 0.932 . S
C503 U486 2.882 . S
C503 C497 1.428 . S
C503 O506 1.301 . S
C503 O507 1.282 . S
O504 U486 2.441 . S
O504 C490 1.249 . S
O505 U486 2.420 . S
O505 C490 1.202 . S
O506 U486 2.455 . S
O506 C503 1.301 . S
O507 U486 2.449 . S
O507 C503 1.282 . S
H508 C481 0.931 . S
H509 C483 0.929 . S
H510 C484 0.930 . S
H511 C485 0.931 . S
H512 C492 0.932 . S
H513 C493 0.930 . S
H514 C494 0.929 . S
H515 C496 0.930 . S
H516 C498 0.932 . S
H517 C499 0.929 . S
H518 C500 0.928 . S
H519 C502 0.932 . S
C520 C521 1.264 . S
C520 C525 1.479 . S
C520 C530 1.465 . S
C521 C520 1.264 . S
C521 C523 1.339 . S
C521 H548 0.931 . S
C522 C523 1.395 . S
C522 C524 1.320 . S
C523 C521 1.339 . S
C523 C522 1.395 . S
C523 H549 0.929 . S
C524 C522 1.320 . S
C524 C525 1.405 . S
C524 H550 0.930 . S
C525 C520 1.479 . S
C525 C524 1.405 . S
C525 H551 0.931 . S
U526 O527 2.454 . S
U526 O528 2.458 . S
U526 C529 2.984 . S
U526 C530 2.847 . S
U526 C543 2.882 . S
U526 O544 2.441 . S
U526 O545 2.420 . S
U526 O546 2.455 . S
U526 O547 2.449 . S
O527 U526 2.454 . S
O527 C529 1.353 . S
O528 U526 2.458 . S
O528 C529 1.286 . S
C529 U526 2.984 . S
C529 O527 1.353 . S
C529 O528 1.286 . S
C529 C531 1.363 . S
C530 C520 1.465 . S
C530 U526 2.847 . S
C530 O544 1.249 . S
C530 O545 1.202 . S
C531 C529 1.363 . S
C531 C533 1.408 . S
C531 C536 1.342 . S
C532 C533 1.310 . S
C532 C535 1.461 . S
C532 H552 0.932 . S
C533 C531 1.408 . S
C533 C532 1.310 . S
C533 H553 0.930 . S
C534 C535 1.474 . S
C534 C536 1.285 . S
C534 H554 0.929 . S
C535 C532 1.461 . S
C535 C534 1.474 . S
C536 C531 1.342 . S
C536 C534 1.285 . S
C536 H555 0.930 . S
C537 C540 1.424 . S
C537 C542 1.245 . S
C537 C543 1.428 . S
C538 C541 1.260 . S
C538 C542 1.477 . S
C538 H556 0.932 . S
C539 C540 1.384 . S
C539 C541 1.479 . S
C539 H557 0.929 . S
C540 C537 1.424 . S
C540 C539 1.384 . S
C540 H558 0.928 . S
C541 C538 1.260 . S
C541 C539 1.479 . S
C542 C537 1.245 . S
C542 C538 1.477 . S
C542 H559 0.932 . S
C543 U526 2.882 . S
C543 C537 1.428 . S
C543 O546 1.301 . S
C543 O547 1.282 . S
O544 U526 2.441 . S
O544 C530 1.249 . S
O545 U526 2.420 . S
O545 C530 1.202 . S
O546 U526 2.455 . S
O546 C543 1.301 . S
O547 U526 2.449 . S
O547 C543 1.282 . S
H548 C521 0.931 . S
H549 C523 0.929 . S
H550 C524 0.930 . S
H551 C525 0.931 . S
H552 C532 0.932 . S
H553 C533 0.930 . S
H554 C534 0.929 . S
H555 C536 0.930 . S
H556 C538 0.932 . S
H557 C539 0.929 . S
H558 C540 0.928 . S
H559 C542 0.932 . S
C560 C561 1.264 . S
C560 C565 1.479 . S
C560 C570 1.465 . S
C561 C560 1.264 . S
C561 C563 1.339 . S
C561 H588 0.931 . S
C562 C563 1.395 . S
C562 C564 1.320 . S
C563 C561 1.339 . S
C563 C562 1.395 . S
C563 H589 0.929 . S
C564 C562 1.320 . S
C564 C565 1.405 . S
C564 H590 0.930 . S
C565 C560 1.479 . S
C565 C564 1.405 . S
C565 H591 0.931 . S
U566 O567 2.456 1_545 S
U566 O568 2.461 1_545 S
U566 C569 2.987 1_545 S
U566 C570 2.844 . S
U566 C583 2.883 1_545 S
U566 O584 2.439 . S
U566 O585 2.417 . S
U566 O586 2.457 1_545 S
U566 O587 2.448 . S
O567 U566 2.456 1_565 S
O567 C569 1.353 . S
O568 U566 2.461 1_565 S
O568 C569 1.286 . S
C569 U566 2.987 1_565 S
C569 O567 1.353 . S
C569 O568 1.286 . S
C569 C571 1.363 . S
C570 C560 1.465 . S
C570 U566 2.844 . S
C570 O584 1.249 . S
C570 O585 1.202 . S
C571 C569 1.363 . S
C571 C573 1.408 . S
C571 C576 1.342 . S
C572 C573 1.310 . S
C572 C575 1.461 . S
C572 H592 0.932 . S
C573 C571 1.408 . S
C573 C572 1.310 . S
C573 H593 0.930 . S
C574 C575 1.474 . S
C574 C576 1.285 . S
C574 H594 0.929 . S
C575 C572 1.461 . S
C575 C574 1.474 . S
C576 C571 1.342 . S
C576 C574 1.285 . S
C576 H595 0.930 . S
C577 C580 1.424 1_565 S
C577 C582 1.245 . S
C577 C583 1.428 . S
C578 C581 1.260 . S
C578 C582 1.477 . S
C578 H596 0.932 . S
C579 C580 1.384 . S
C579 C581 1.479 1_545 S
C579 H597 0.929 . S
C580 C577 1.424 1_545 S
C580 C579 1.384 . S
C580 H598 0.928 . S
C581 C578 1.260 . S
C581 C579 1.479 1_565 S
C582 C577 1.245 . S
C582 C578 1.477 . S
C582 H599 0.932 . S
C583 U566 2.883 1_565 S
C583 C577 1.428 . S
C583 O586 1.301 . S
C583 O587 1.282 1_565 S
O584 U566 2.439 . S
O584 C570 1.249 . S
O585 U566 2.417 . S
O585 C570 1.202 . S
O586 U566 2.457 1_565 S
O586 C583 1.301 . S
O587 U566 2.448 . S
O587 C583 1.282 1_545 S
H588 C561 0.931 . S
H589 C563 0.929 . S
H590 C564 0.930 . S
H591 C565 0.931 . S
H592 C572 0.932 . S
H593 C573 0.930 . S
H594 C574 0.929 . S
H595 C576 0.930 . S
H596 C578 0.932 . S
H597 C579 0.929 . S
H598 C580 0.928 . S
H599 C582 0.932 . S
C600 C601 1.264 . S
C600 C605 1.479 . S
C600 C610 1.465 . S
C601 C600 1.264 . S
C601 C603 1.339 . S
C601 H628 0.931 . S
C602 C603 1.395 . S
C602 C604 1.320 . S
C603 C601 1.339 . S
C603 C602 1.395 . S
C603 H629 0.929 . S
C604 C602 1.320 . S
C604 C605 1.405 . S
C604 H630 0.930 . S
C605 C600 1.479 . S
C605 C604 1.405 . S
C605 H631 0.931 . S
U606 O607 2.455 1_554 S
U606 O608 2.458 1_554 S
U606 C609 2.984 1_554 S
U606 C610 2.847 . S
U606 C623 2.882 1_554 S
U606 O624 2.441 . S
U606 O625 2.420 . S
U606 O626 2.455 1_554 S
U606 O627 2.449 . S
O607 U606 2.455 1_556 S
O607 C609 1.343 . S
O608 U606 2.458 1_556 S
O608 C609 1.286 . S
C609 U606 2.984 1_556 S
C609 O607 1.343 . S
C609 O608 1.286 . S
C609 C611 1.363 . S
C610 C600 1.465 . S
C610 U606 2.847 . S
C610 O624 1.249 . S
C610 O625 1.202 . S
C611 C609 1.363 . S
C611 C613 1.408 . S
C611 C616 1.342 . S
C612 C613 1.310 . S
C612 C615 1.461 . S
C612 H632 0.932 . S
C613 C611 1.408 . S
C613 C612 1.310 . S
C613 H633 0.930 . S
C614 C615 1.474 . S
C614 C616 1.285 . S
C614 H634 0.929 . S
C615 C612 1.461 . S
C615 C614 1.474 . S
C616 C611 1.342 . S
C616 C614 1.285 . S
C616 H635 0.930 . S
C617 C620 1.424 . S
C617 C622 1.245 . S
C617 C623 1.428 . S
C618 C621 1.260 . S
C618 C622 1.477 . S
C618 H636 0.932 . S
C619 C620 1.384 . S
C619 C621 1.479 . S
C619 H637 0.929 . S
C620 C617 1.424 . S
C620 C619 1.384 . S
C620 H638 1.003 . S
C621 C618 1.260 . S
C621 C619 1.479 . S
C622 C617 1.245 . S
C622 C618 1.477 . S
C622 H639 0.932 . S
C623 U606 2.882 1_556 S
C623 C617 1.428 . S
C623 O626 1.301 . S
C623 O627 1.282 1_556 S
O624 U606 2.441 . S
O624 C610 1.249 . S
O625 U606 2.420 . S
O625 C610 1.202 . S
O626 U606 2.455 1_556 S
O626 C623 1.301 . S
O627 U606 2.449 . S
O627 C623 1.282 1_554 S
H628 C601 0.931 . S
H629 C603 0.929 . S
H630 C604 0.930 . S
H631 C605 0.931 . S
H632 C612 0.932 . S
H633 C613 0.930 . S
H634 C614 0.929 . S
H635 C616 0.930 . S
H636 C618 0.932 . S
H637 C619 0.929 . S
H638 C620 1.003 . S
H639 C622 0.932 . S
C640 C641 1.264 . S
C640 C645 1.479 . S
C640 C650 1.465 . S
C641 C640 1.264 . S
C641 C643 1.339 . S
C641 H668 0.931 . S
C642 C643 1.395 . S
C642 C644 1.320 . S
C643 C641 1.339 . S
C643 C642 1.395 . S
C643 H669 0.929 . S
C644 C642 1.320 . S
C644 C645 1.405 . S
C644 H670 0.930 . S
C645 C640 1.479 . S
C645 C644 1.405 . S
C645 H671 0.931 . S
U646 O647 2.434 1_554 S
U646 O648 2.422 1_554 S
U646 C649 2.953 1_554 S
U646 C650 2.878 . S
U646 C663 2.882 1_554 S
U646 O664 2.461 . S
U646 O665 2.456 . S
U646 O666 2.439 1_554 S
U646 O667 2.465 . S
O647 U646 2.434 1_556 S
O647 C649 1.353 . S
O648 U646 2.422 1_556 S
O648 C649 1.286 . S
C649 U646 2.953 1_556 S
C649 O647 1.353 . S
C649 O648 1.286 . S
C649 C651 1.363 . S
C650 C640 1.465 . S
C650 U646 2.878 . S
C650 O664 1.249 . S
C650 O665 1.202 . S
C651 C649 1.363 . S
C651 C653 1.408 . S
C651 C656 1.342 . S
C652 C653 1.310 . S
C652 C655 1.461 . S
C652 H672 0.932 . S
C653 C651 1.408 . S
C653 C652 1.310 . S
C653 H673 0.930 . S
C654 C655 1.474 . S
C654 C656 1.285 . S
C654 H674 0.929 . S
C655 C652 1.461 . S
C655 C654 1.474 . S
C656 C651 1.342 . S
C656 C654 1.285 . S
C656 H675 0.930 . S
C657 C660 1.369 1_556 S
C657 C662 1.299 . S
C657 C663 1.428 . S
C658 C661 1.269 . S
C658 C662 1.477 . S
C658 H676 0.932 . S
C659 C660 1.384 . S
C659 C661 1.469 1_554 S
C659 H677 0.929 . S
C660 C657 1.369 1_554 S
C660 C659 1.384 . S
C660 H678 0.928 . S
C661 C658 1.269 . S
C661 C659 1.469 1_556 S
C662 C657 1.299 . S
C662 C658 1.477 . S
C662 H679 0.932 . S
C663 U646 2.882 1_556 S
C663 C657 1.428 . S
C663 O666 1.297 . S
C663 O667 1.286 1_556 S
O664 U646 2.461 . S
O664 C650 1.249 . S
O665 U646 2.456 . S
O665 C650 1.202 . S
O666 U646 2.439 1_556 S
O666 C663 1.297 . S
O667 U646 2.465 . S
O667 C663 1.286 1_554 S
H668 C641 0.931 . S
H669 C643 0.929 . S
H670 C644 0.930 . S
H671 C645 0.931 . S
H672 C652 0.932 . S
H673 C653 0.930 . S
H674 C654 0.929 . S
H675 C656 0.930 . S
H676 C658 0.932 . S
H677 C659 0.929 . S
H678 C660 0.928 . S
H679 C662 0.932 . S
C680 C681 1.264 . S
C680 C685 1.479 . S
C680 C690 1.465 . S
C681 C680 1.264 . S
C681 C683 1.339 . S
C681 H708 0.931 . S
C682 C683 1.395 . S
C682 C684 1.320 . S
C683 C681 1.339 . S
C683 C682 1.395 . S
C683 H709 0.929 . S
C684 C682 1.320 . S
C684 C685 1.405 . S
C684 H710 0.930 . S
C685 C680 1.479 . S
C685 C684 1.405 . S
C685 H711 0.931 . S
U686 O687 2.454 . S
U686 O688 2.458 . S
U686 C689 2.984 . S
U686 C690 2.847 . S
U686 C703 2.882 . S
U686 O704 2.441 . S
U686 O705 2.420 . S
U686 O706 2.455 . S
U686 O707 2.449 . S
O687 U686 2.454 . S
O687 C689 1.353 . S
O688 U686 2.458 . S
O688 C689 1.286 . S
C689 U686 2.984 . S
C689 O687 1.353 . S
C689 O688 1.286 . S
C689 C691 1.363 . S
C690 C680 1.465 . S
C690 U686 2.847 . S
C690 O704 1.249 . S
C690 O705 1.202 . S
C691 C689 1.363 . S
C691 C693 1.408 . S
C691 C696 1.342 . S
C692 C693 1.310 . S
C692 C695 1.461 . S
C692 H712 0.932 . S
C693 C691 1.408 . S
C693 C692 1.310 . S
C693 H713 0.930 . S
C694 C695 1.474 . S
C694 C696 1.285 . S
C694 H714 0.929 . S
C695 C692 1.461 . S
C695 C694 1.474 . S
C696 C691 1.342 . S
C696 C694 1.285 . S
C696 H715 0.930 . S
C697 C700 1.424 . S
C697 C702 1.245 . S
C697 C703 1.428 . S
C698 C701 1.260 . S
C698 C702 1.477 . S
C698 H716 0.932 . S
C699 C700 1.384 . S
C699 C701 1.479 . S
C699 H717 0.929 . S
C700 C697 1.424 . S
C700 C699 1.384 . S
C700 H718 0.928 . S
C701 C698 1.260 . S
C701 C699 1.479 . S
C702 C697 1.245 . S
C702 C698 1.477 . S
C702 H719 0.932 . S
C703 U686 2.882 . S
C703 C697 1.428 . S
C703 O706 1.301 . S
C703 O707 1.282 . S
O704 U686 2.441 . S
O704 C690 1.249 . S
O705 U686 2.420 . S
O705 C690 1.202 . S
O706 U686 2.455 . S
O706 C703 1.301 . S
O707 U686 2.449 . S
O707 C703 1.282 . S
H708 C681 0.931 . S
H709 C683 0.929 . S
H710 C684 0.930 . S
H711 C685 0.931 . S
H712 C692 0.932 . S
H713 C693 0.930 . S
H714 C694 0.929 . S
H715 C696 0.930 . S
H716 C698 0.932 . S
H717 C699 0.929 . S
H718 C700 0.928 . S
H719 C702 0.932 . S
C720 C721 1.264 . S
C720 C725 1.479 . S
C720 C730 1.465 . S
C721 C720 1.264 . S
C721 C723 1.339 . S
C721 H748 0.931 . S
C722 C723 1.395 . S
C722 C724 1.320 . S
C723 C721 1.339 . S
C723 C722 1.395 . S
C723 H749 0.929 . S
C724 C722 1.320 . S
C724 C725 1.405 . S
C724 H750 0.930 . S
C725 C720 1.479 . S
C725 C724 1.405 . S
C725 H751 0.931 . S
U726 O727 2.454 . S
U726 O728 2.458 . S
U726 C729 2.984 . S
U726 C730 2.847 . S
U726 C743 2.882 . S
U726 O744 2.441 . S
U726 O745 2.420 . S
U726 O746 2.455 . S
U726 O747 2.449 . S
O727 U726 2.454 . S
O727 C729 1.353 . S
O728 U726 2.458 . S
O728 C729 1.286 . S
C729 U726 2.984 . S
C729 O727 1.353 . S
C729 O728 1.286 . S
C729 C731 1.363 . S
C730 C720 1.465 . S
C730 U726 2.847 . S
C730 O744 1.249 . S
C730 O745 1.202 . S
C731 C729 1.363 . S
C731 C733 1.408 . S
C731 C736 1.342 . S
C732 C733 1.310 . S
C732 C735 1.461 . S
C732 H752 0.932 . S
C733 C731 1.408 . S
C733 C732 1.310 . S
C733 H753 0.930 . S
C734 C735 1.474 . S
C734 C736 1.285 . S
C734 H754 0.929 . S
C735 C732 1.461 . S
C735 C734 1.474 . S
C736 C731 1.342 . S
C736 C734 1.285 . S
C736 H755 0.930 . S
C737 C740 1.424 . S
C737 C742 1.245 . S
C737 C743 1.428 . S
C738 C741 1.260 . S
C738 C742 1.477 . S
C738 H756 0.932 . S
C739 C740 1.384 . S
C739 C741 1.479 . S
C739 H757 0.929 . S
C740 C737 1.424 . S
C740 C739 1.384 . S
C740 H758 0.928 . S
C741 C738 1.260 . S
C741 C739 1.479 . S
C742 C737 1.245 . S
C742 C738 1.477 . S
C742 H759 0.932 . S
C743 U726 2.882 . S
C743 C737 1.428 . S
C743 O746 1.301 . S
C743 O747 1.282 . S
O744 U726 2.441 . S
O744 C730 1.249 . S
O745 U726 2.420 . S
O745 C730 1.202 . S
O746 U726 2.455 . S
O746 C743 1.301 . S
O747 U726 2.449 . S
O747 C743 1.282 . S
H748 C721 0.931 . S
H749 C723 0.929 . S
H750 C724 0.930 . S
H751 C725 0.931 . S
H752 C732 0.932 . S
H753 C733 0.930 . S
H754 C734 0.929 . S
H755 C736 0.930 . S
H756 C738 0.932 . S
H757 C739 0.929 . S
H758 C740 0.928 . S
H759 C742 0.932 . S
C760 C761 1.264 . S
C760 C765 1.479 . S
C760 C770 1.465 . S
C761 C760 1.264 . S
C761 C763 1.339 . S
C761 H788 0.931 . S
C762 C763 1.395 . S
C762 C764 1.320 . S
C763 C761 1.339 . S
C763 C762 1.395 . S
C763 H789 0.929 . S
C764 C762 1.320 . S
C764 C765 1.405 . S
C764 H790 0.930 . S
C765 C760 1.479 . S
C765 C764 1.405 . S
C765 H791 0.931 . S
U766 O767 2.454 . S
U766 O768 2.458 . S
U766 C769 2.984 . S
U766 C770 2.847 . S
U766 C783 2.882 . S
U766 O784 2.441 . S
U766 O785 2.420 . S
U766 O786 2.455 . S
U766 O787 2.449 . S
O767 U766 2.454 . S
O767 C769 1.353 . S
O768 U766 2.458 . S
O768 C769 1.286 . S
C769 U766 2.984 . S
C769 O767 1.353 . S
C769 O768 1.286 . S
C769 C771 1.363 . S
C770 C760 1.465 . S
C770 U766 2.847 . S
C770 O784 1.249 . S
C770 O785 1.202 . S
C771 C769 1.363 . S
C771 C773 1.408 . S
C771 C776 1.342 . S
C772 C773 1.310 . S
C772 C775 1.461 . S
C772 H792 0.932 . S
C773 C771 1.408 . S
C773 C772 1.310 . S
C773 H793 0.930 . S
C774 C775 1.474 . S
C774 C776 1.285 . S
C774 H794 0.941 . S
C775 C772 1.461 . S
C775 C774 1.474 . S
C776 C771 1.342 . S
C776 C774 1.285 . S
C776 H795 0.951 . S
C777 C780 1.417 1_545 S
C777 C782 1.253 . S
C777 C783 1.428 . S
C778 C781 1.260 . S
C778 C782 1.470 1_565 S
C778 H796 0.932 . S
C779 C780 1.391 . S
C779 C781 1.479 . S
C779 H797 0.929 . S
C780 C777 1.417 1_565 S
C780 C779 1.391 . S
C780 H798 0.928 . S
C781 C778 1.260 . S
C781 C779 1.479 . S
C782 C777 1.253 . S
C782 C778 1.470 1_545 S
C782 H799 0.932 . S
C783 U766 2.882 . S
C783 C777 1.428 . S
C783 O786 1.301 . S
C783 O787 1.282 . S
O784 U766 2.441 . S
O784 C770 1.249 . S
O785 U766 2.420 . S
O785 C770 1.202 . S
O786 U766 2.455 . S
O786 C783 1.301 . S
O787 U766 2.449 . S
O787 C783 1.282 . S
H788 C761 0.931 . S
H789 C763 0.929 . S
H790 C764 0.930 . S
H791 C765 0.931 . S
H792 C772 0.932 . S
H793 C773 0.930 . S
H794 C774 0.941 . S
H795 C776 0.951 . S
H796 C778 0.932 . S
H797 C779 0.929 . S
H798 C780 0.928 . S
H799 C782 0.932 . S
C800 C801 1.264 . S
C800 C805 1.479 . S
C800 C810 1.465 . S
C801 C800 1.264 . S
C801 C803 1.339 . S
C801 H828 0.931 . S
C802 C803 1.395 . S
C802 C804 1.320 . S
C803 C801 1.339 . S
C803 C802 1.395 . S
C803 H829 0.929 . S
C804 C802 1.320 . S
C804 C805 1.405 . S
C804 H830 0.930 . S
C805 C800 1.479 . S
C805 C804 1.405 . S
C805 H831 0.931 . S
U806 O807 2.455 1_545 S
U806 O808 2.458 1_545 S
U806 C809 2.984 1_545 S
U806 C810 2.847 . S
U806 C823 2.882 1_545 S
U806 O824 2.441 . S
U806 O825 2.420 . S
U806 O826 2.455 1_545 S
U806 O827 2.449 . S
O807 U806 2.455 1_565 S
O807 C809 1.343 . S
O808 U806 2.458 1_565 S
O808 C809 1.286 . S
C809 U806 2.984 1_565 S
C809 O807 1.343 . S
C809 O808 1.286 . S
C809 C811 1.363 . S
C810 C800 1.465 . S
C810 U806 2.847 . S
C810 O824 1.249 . S
C810 O825 1.202 . S
C811 C809 1.363 . S
C811 C813 1.408 . S
C811 C816 1.342 . S
C812 C813 1.310 . S
C812 C815 1.461 . S
C812 H832 0.932 . S
C813 C811 1.408 . S
C813 C812 1.310 . S
C813 H833 0.930 . S
C814 C815 1.474 . S
C814 C816 1.285 . S
C814 H834 0.929 . S
C815 C812 1.461 . S
C815 C814 1.474 . S
C816 C811 1.342 . S
C816 C814 1.285 . S
C816 H835 0.930 . S
C817 C820 1.424 . S
C817 C822 1.245 . S
C817 C823 1.428 . S
C818 C821 1.260 . S
C818 C822 1.477 . S
C818 H836 0.932 . S
C819 C820 1.384 . S
C819 C821 1.479 . S
C819 H837 0.929 . S
C820 C817 1.424 . S
C820 C819 1.384 . S
C820 H838 1.003 . S
C821 C818 1.260 . S
C821 C819 1.479 . S
C822 C817 1.245 . S
C822 C818 1.477 . S
C822 H839 0.932 . S
C823 U806 2.882 1_565 S
C823 C817 1.428 . S
C823 O826 1.301 . S
C823 O827 1.282 1_565 S
O824 U806 2.441 . S
O824 C810 1.249 . S
O825 U806 2.420 . S
O825 C810 1.202 . S
O826 U806 2.455 1_565 S
O826 C823 1.301 . S
O827 U806 2.449 . S
O827 C823 1.282 1_545 S
H828 C801 0.931 . S
H829 C803 0.929 . S
H830 C804 0.930 . S
H831 C805 0.931 . S
H832 C812 0.932 . S
H833 C813 0.930 . S
H834 C814 0.929 . S
H835 C816 0.930 . S
H836 C818 0.932 . S
H837 C819 0.929 . S
H838 C820 1.003 . S
H839 C822 0.932 . S
C840 C841 1.264 . S
C840 C845 1.479 . S
C840 C850 1.465 . S
C841 C840 1.264 . S
C841 C843 1.339 . S
C841 H868 0.931 . S
C842 C843 1.395 . S
C842 C844 1.320 . S
C843 C841 1.339 . S
C843 C842 1.395 . S
C843 H869 0.929 . S
C844 C842 1.320 . S
C844 C845 1.405 . S
C844 H870 0.930 . S
C845 C840 1.479 . S
C845 C844 1.405 . S
C845 H871 0.931 . S
U846 O847 2.454 . S
U846 O848 2.458 . S
U846 C849 2.984 . S
U846 C850 2.847 . S
U846 C863 2.882 . S
U846 O864 2.441 . S
U846 O865 2.420 . S
U846 O866 2.455 . S
U846 O867 2.449 . S
O847 U846 2.454 . S
O847 C849 1.353 . S
O848 U846 2.458 . S
O848 C849 1.286 . S
C849 U846 2.984 . S
C849 O847 1.353 . S
C849 O848 1.286 . S
C849 C851 1.363 . S
C850 C840 1.465 . S
C850 U846 2.847 . S
C850 O864 1.249 . S
C850 O865 1.202 . S
C851 C849 1.363 . S
C851 C853 1.408 . S
C851 C856 1.342 . S
C852 C853 1.310 . S
C852 C855 1.461 . S
C852 H872 0.932 . S
C853 C851 1.408 . S
C853 C852 1.310 . S
C853 H873 0.930 . S
C854 C855 1.474 . S
C854 C856 1.285 . S
C854 H874 0.929 . S
C855 C852 1.461 . S
C855 C854 1.474 . S
C856 C851 1.342 . S
C856 C854 1.285 . S
C856 H875 0.930 . S
C857 C860 1.424 . S
C857 C862 1.245 . S
C857 C863 1.428 . S
C858 C861 1.260 . S
C858 C862 1.477 . S
C858 H876 0.932 . S
C859 C860 1.384 . S
C859 C861 1.479 . S
C859 H877 0.929 . S
C860 C857 1.424 . S
C860 C859 1.384 . S
C860 H878 0.928 . S
C861 C858 1.260 . S
C861 C859 1.479 . S
C862 C857 1.245 . S
C862 C858 1.477 . S
C862 H879 0.932 . S
C863 U846 2.882 . S
C863 C857 1.428 . S
C863 O866 1.301 . S
C863 O867 1.282 . S
O864 U846 2.441 . S
O864 C850 1.249 . S
O865 U846 2.420 . S
O865 C850 1.202 . S
O866 U846 2.455 . S
O866 C863 1.301 . S
O867 U846 2.449 . S
O867 C863 1.282 . S
H868 C841 0.931 . S
H869 C843 0.929 . S
H870 C844 0.930 . S
H871 C845 0.931 . S
H872 C852 0.932 . S
H873 C853 0.930 . S
H874 C854 0.929 . S
H875 C856 0.930 . S
H876 C858 0.932 . S
H877 C859 0.929 . S
H878 C860 0.928 . S
H879 C862 0.932 . S
C880 C881 1.264 . S
C880 C885 1.479 . S
C880 C890 1.465 . S
C881 C880 1.264 . S
C881 C883 1.339 . S
C881 H908 0.931 . S
C882 C883 1.395 . S
C882 C884 1.320 . S
C883 C881 1.339 . S
C883 C882 1.395 . S
C883 H909 0.929 . S
C884 C882 1.320 . S
C884 C885 1.405 . S
C884 H910 0.930 . S
C885 C880 1.479 . S
C885 C884 1.405 . S
C885 H911 0.931 . S
U886 O887 2.454 . S
U886 O888 2.458 . S
U886 C889 2.984 . S
U886 C890 2.847 . S
U886 C903 2.882 . S
U886 O904 2.441 . S
U886 O905 2.420 . S
U886 O906 2.455 . S
U886 O907 2.449 . S
O887 U886 2.454 . S
O887 C889 1.353 . S
O888 U886 2.458 . S
O888 C889 1.286 . S
C889 U886 2.984 . S
C889 O887 1.353 . S
C889 O888 1.286 . S
C889 C891 1.363 . S
C890 C880 1.465 . S
C890 U886 2.847 . S
C890 O904 1.249 . S
C890 O905 1.202 . S
C891 C889 1.363 . S
C891 C893 1.408 . S
C891 C896 1.342 . S
C892 C893 1.310 . S
C892 C895 1.461 . S
C892 H912 0.932 . S
C893 C891 1.408 . S
C893 C892 1.310 . S
C893 H913 0.930 . S
C894 C895 1.474 . S
C894 C896 1.285 . S
C894 H914 0.929 . S
C895 C892 1.461 . S
C895 C894 1.474 . S
C896 C891 1.342 . S
C896 C894 1.285 . S
C896 H915 0.930 . S
C897 C900 1.424 . S
C897 C902 1.245 . S
C897 C903 1.428 . S
C898 C901 1.260 . S
C898 C902 1.477 . S
C898 H916 0.932 . S
C899 C900 1.384 . S
C899 C901 1.479 . S
C899 H917 0.929 . S
C900 C897 1.424 . S
C900 C899 1.384 . S
C900 H918 0.928 . S
C901 C898 1.260 . S
C901 C899 1.479 . S
C902 C897 1.245 . S
C902 C898 1.477 . S
C902 H919 0.932 . S
C903 U886 2.882 . S
C903 C897 1.428 . S
C903 O906 1.301 . S
C903 O907 1.282 . S
O904 U886 2.441 . S
O904 C890 1.249 . S
O905 U886 2.420 . S
O905 C890 1.202 . S
O906 U886 2.455 . S
O906 C903 1.301 . S
O907 U886 2.449 . S
O907 C903 1.282 . S
H908 C881 0.931 . S
H909 C883 0.929 . S
H910 C884 0.930 . S
H911 C885 0.931 . S
H912 C892 0.932 . S
H913 C893 0.930 . S
H914 C894 0.929 . S
H915 C896 0.930 . S
H916 C898 0.932 . S
H917 C899 0.929 . S
H918 C900 0.928 . S
H919 C902 0.932 . S
C920 C921 1.264 . S
C920 C925 1.479 . S
C920 C930 1.465 . S
C921 C920 1.264 . S
C921 C923 1.339 . S
C921 H948 0.931 . S
C922 C923 1.395 . S
C922 C924 1.320 . S
C923 C921 1.339 . S
C923 C922 1.395 . S
C923 H949 0.929 . S
C924 C922 1.320 . S
C924 C925 1.405 . S
C924 H950 0.896 1_556 S
C925 C920 1.479 . S
C925 C924 1.405 . S
C925 H951 0.931 . S
U926 O927 2.454 . S
U926 O928 2.458 . S
U926 C929 2.984 . S
U926 C930 2.847 . S
U926 C943 2.882 . S
U926 O944 2.441 . S
U926 O945 2.420 . S
U926 O946 2.455 . S
U926 O947 2.449 . S
O927 U926 2.454 . S
O927 C929 1.353 . S
O928 U926 2.458 . S
O928 C929 1.286 . S
C929 U926 2.984 . S
C929 O927 1.353 . S
C929 O928 1.286 . S
C929 C931 1.363 . S
C930 C920 1.465 . S
C930 U926 2.847 . S
C930 O944 1.249 . S
C930 O945 1.202 . S
C931 C929 1.363 . S
C931 C933 1.408 . S
C931 C936 1.342 . S
C932 C933 1.310 1_554 S
C932 C935 1.489 . S
C932 H952 0.932 . S
C933 C931 1.408 . S
C933 C932 1.310 1_556 S
C933 H953 0.926 1_556 S
C934 C935 1.401 1_556 S
C934 C936 1.285 . S
C934 H954 0.929 . S
C935 C932 1.489 . S
C935 C934 1.401 1_554 S
C936 C931 1.342 . S
C936 C934 1.285 . S
C936 H955 0.930 . S
C937 C940 1.424 . S
C937 C942 1.245 . S
C937 C943 1.428 . S
C938 C941 1.260 . S
C938 C942 1.477 . S
C938 H956 0.932 . S
C939 C940 1.384 . S
C939 C941 1.479 . S
C939 H957 0.929 . S
C940 C937 1.424 . S
C940 C939 1.384 . S
C940 H958 0.928 . S
C941 C938 1.260 . S
C941 C939 1.479 . S
C942 C937 1.245 . S
C942 C938 1.477 . S
C942 H959 0.932 . S
C943 U926 2.882 . S
C943 C937 1.428 . S
C943 O946 1.301 . S
C943 O947 1.282 . S
O944 U926 2.441 . S
O944 C930 1.249 . S
O945 U926 2.420 . S
O945 C930 1.202 . S
O946 U926 2.455 . S
O946 C943 1.301 . S
O947 U926 2.449 . S
O947 C943 1.282 . S
H948 C921 0.931 . S
H949 C923 0.929 . S
H950 C924 0.896 1_554 S
H951 C925 0.931 . S
H952 C932 0.932 . S
H953 C933 0.926 1_554 S
H954 C934 0.929 . S
H955 C936 0.930 . S
H956 C938 0.932 . S
H957 C939 0.929 . S
H958 C940 0.928 . S
H959 C942 0.932 . S
C960 C961 1.264 . S
C960 C965 1.480 1_554 S
C960 C970 1.465 . S
C961 C960 1.264 . S
C961 C963 1.347 . S
C961 H988 0.931 . S
C962 C963 1.385 1_556 S
C962 C964 1.320 . S
C963 C961 1.347 . S
C963 C962 1.385 1_554 S
C963 H989 0.932 . S
C964 C962 1.320 . S
C964 C965 1.403 . S
C964 H990 0.930 . S
C965 C960 1.480 1_556 S
C965 C964 1.403 . S
C965 H991 0.928 1_556 S
U966 O967 2.454 . S
U966 O968 2.458 . S
U966 C969 2.984 . S
U966 C970 2.847 . S
U966 C983 2.882 . S
U966 O984 2.441 . S
U966 O985 2.420 . S
U966 O986 2.455 . S
U966 O987 2.449 . S
O967 U966 2.454 . S
O967 C969 1.353 . S
O968 U966 2.458 . S
O968 C969 1.286 . S
C969 U966 2.984 . S
C969 O967 1.353 . S
C969 O968 1.286 . S
C969 C971 1.363 . S
C970 C960 1.465 . S
C970 U966 2.847 . S
C970 O984 1.249 . S
C970 O985 1.202 . S
C971 C969 1.363 . S
C971 C973 1.418 . S
C971 C976 1.342 . S
C972 C973 1.306 1_556 S
C972 C975 1.460 . S
C972 H992 0.934 . S
C973 C971 1.418 . S
C973 C972 1.306 1_554 S
C973 H993 0.930 . S
C974 C975 1.471 1_554 S
C974 C976 1.291 . S
C974 H994 0.930 . S
C975 C972 1.460 . S
C975 C974 1.471 1_556 S
C976 C971 1.342 . S
C976 C974 1.291 . S
C976 H995 0.930 . S
C977 C980 1.424 . S
C977 C982 1.245 . S
C977 C983 1.428 . S
C978 C981 1.260 . S
C978 C982 1.477 . S
C978 H996 0.932 . S
C979 C980 1.384 . S
C979 C981 1.479 . S
C979 H997 0.929 . S
C980 C977 1.424 . S
C980 C979 1.384 . S
C980 H998 0.928 . S
C981 C978 1.260 . S
C981 C979 1.479 . S
C982 C977 1.245 . S
C982 C978 1.477 . S
C982 H999 0.932 . S
C983 U966 2.882 . S
C983 C977 1.428 . S
C983 O986 1.301 . S
C983 O987 1.282 . S
O984 U966 2.441 . S
O984 C970 1.249 . S
O985 U966 2.420 . S
O985 C970 1.202 . S
O986 U966 2.455 . S
O986 C983 1.301 . S
O987 U966 2.449 . S
O987 C983 1.282 . S
H988 C961 0.931 . S
H989 C963 0.932 . S
H990 C964 0.930 . S
H991 C965 0.928 1_554 S
H992 C972 0.934 . S
H993 C973 0.930 . S
H994 C974 0.930 . S
H995 C976 0.930 . S
H996 C978 0.932 . S
H997 C979 0.929 . S
H998 C980 0.928 . S
H999 C982 0.932 . S
C1000 C1001 1.264 . S
C1000 C1005 1.479 . S
C1000 C1010 1.465 . S
C1001 C1000 1.264 . S
C1001 C1003 1.339 . S
C1001 H1028 0.931 . S
C1002 C1003 1.395 . S
C1002 C1004 1.320 . S
C1003 C1001 1.339 . S
C1003 C1002 1.395 . S
C1003 H1029 0.929 . S
C1004 C1002 1.320 . S
C1004 C1005 1.405 . S
C1004 H1030 0.930 . S
C1005 C1000 1.479 . S
C1005 C1004 1.405 . S
C1005 H1031 0.931 . S
U1006 O1007 2.454 . S
U1006 O1008 2.458 . S
U1006 C1009 2.984 . S
U1006 C1010 2.847 . S
U1006 C1023 2.882 . S
U1006 O1024 2.441 . S
U1006 O1025 2.420 . S
U1006 O1026 2.455 . S
U1006 O1027 2.449 . S
O1007 U1006 2.454 . S
O1007 C1009 1.353 . S
O1008 U1006 2.458 . S
O1008 C1009 1.286 . S
C1009 U1006 2.984 . S
C1009 O1007 1.353 . S
C1009 O1008 1.286 . S
C1009 C1011 1.363 . S
C1010 C1000 1.465 . S
C1010 U1006 2.847 . S
C1010 O1024 1.249 . S
C1010 O1025 1.202 . S
C1011 C1009 1.363 . S
C1011 C1013 1.408 . S
C1011 C1016 1.342 . S
C1012 C1013 1.310 . S
C1012 C1015 1.461 . S
C1012 H1032 0.932 . S
C1013 C1011 1.408 . S
C1013 C1012 1.310 . S
C1013 H1033 0.930 . S
C1014 C1015 1.474 . S
C1014 C1016 1.285 . S
C1014 H1034 0.929 . S
C1015 C1012 1.461 . S
C1015 C1014 1.474 . S
C1016 C1011 1.342 . S
C1016 C1014 1.285 . S
C1016 H1035 0.930 . S
C1017 C1020 1.424 . S
C1017 C1022 1.245 . S
C1017 C1023 1.428 . S
C1018 C1021 1.260 . S
C1018 C1022 1.477 . S
C1018 H1036 0.932 . S
C1019 C1020 1.384 . S
C1019 C1021 1.479 . S
C1019 H1037 0.929 . S
C1020 C1017 1.424 . S
C1020 C1019 1.384 . S
C1020 H1038 0.928 . S
C1021 C1018 1.260 . S
C1021 C1019 1.479 . S
C1022 C1017 1.245 . S
C1022 C1018 1.477 . S
C1022 H1039 0.932 . S
C1023 U1006 2.882 . S
C1023 C1017 1.428 . S
C1023 O1026 1.301 . S
C1023 O1027 1.282 . S
O1024 U1006 2.441 . S
O1024 C1010 1.249 . S
O1025 U1006 2.420 . S
O1025 C1010 1.202 . S
O1026 U1006 2.455 . S
O1026 C1023 1.301 . S
O1027 U1006 2.449 . S
O1027 C1023 1.282 . S
H1028 C1001 0.931 . S
H1029 C1003 0.929 . S
H1030 C1004 0.930 . S
H1031 C1005 0.931 . S
H1032 C1012 0.932 . S
H1033 C1013 0.930 . S
H1034 C1014 0.929 . S
H1035 C1016 0.930 . S
H1036 C1018 0.932 . S
H1037 C1019 0.929 . S
H1038 C1020 0.928 . S
H1039 C1022 0.932 . S
C1040 C1041 1.264 . S
C1040 C1045 1.479 . S
C1040 C1050 1.465 . S
C1041 C1040 1.264 . S
C1041 C1043 1.339 . S
C1041 H1068 0.931 . S
C1042 C1043 1.395 . S
C1042 C1044 1.320 . S
C1043 C1041 1.339 . S
C1043 C1042 1.395 . S
C1043 H1069 0.929 . S
C1044 C1042 1.320 . S
C1044 C1045 1.405 . S
C1044 H1070 0.930 . S
C1045 C1040 1.479 . S
C1045 C1044 1.405 . S
C1045 H1071 0.931 . S
U1046 O1047 2.454 . S
U1046 O1048 2.458 . S
U1046 C1049 2.984 . S
U1046 C1050 2.847 . S
U1046 C1063 2.882 . S
U1046 O1064 2.441 . S
U1046 O1065 2.420 . S
U1046 O1066 2.455 . S
U1046 O1067 2.449 . S
O1047 U1046 2.454 . S
O1047 C1049 1.353 . S
O1048 U1046 2.458 . S
O1048 C1049 1.286 . S
C1049 U1046 2.984 . S
C1049 O1047 1.353 . S
C1049 O1048 1.286 . S
C1049 C1051 1.363 . S
C1050 C1040 1.465 . S
C1050 U1046 2.847 . S
C1050 O1064 1.249 . S
C1050 O1065 1.202 . S
C1051 C1049 1.363 . S
C1051 C1053 1.408 . S
C1051 C1056 1.342 . S
C1052 C1053 1.310 . S
C1052 C1055 1.461 . S
C1052 H1072 0.932 . S
C1053 C1051 1.408 . S
C1053 C1052 1.310 . S
C1053 H1073 0.930 . S
C1054 C1055 1.474 . S
C1054 C1056 1.285 . S
C1054 H1074 0.929 . S
C1055 C1052 1.461 . S
C1055 C1054 1.474 . S
C1056 C1051 1.342 . S
C1056 C1054 1.285 . S
C1056 H1075 0.930 . S
C1057 C1060 1.424 . S
C1057 C1062 1.245 . S
C1057 C1063 1.428 . S
C1058 C1061 1.260 . S
C1058 C1062 1.477 . S
C1058 H1076 0.932 . S
C1059 C1060 1.384 . S
C1059 C1061 1.479 . S
C1059 H1077 0.929 . S
C1060 C1057 1.424 . S
C1060 C1059 1.384 . S
C1060 H1078 0.928 . S
C1061 C1058 1.260 . S
C1061 C1059 1.479 . S
C1062 C1057 1.245 . S
C1062 C1058 1.477 . S
C1062 H1079 0.932 . S
C1063 U1046 2.882 . S
C1063 C1057 1.428 . S
C1063 O1066 1.301 . S
C1063 O1067 1.282 . S
O1064 U1046 2.441 . S
O1064 C1050 1.249 . S
O1065 U1046 2.420 . S
O1065 C1050 1.202 . S
O1066 U1046 2.455 . S
O1066 C1063 1.301 . S
O1067 U1046 2.449 . S
O1067 C1063 1.282 . S
H1068 C1041 0.931 . S
H1069 C1043 0.929 . S
H1070 C1044 0.930 . S
H1071 C1045 0.931 . S
H1072 C1052 0.932 . S
H1073 C1053 0.930 . S
H1074 C1054 0.929 . S
H1075 C1056 0.930 . S
H1076 C1058 0.932 . S
H1077 C1059 0.929 . S
H1078 C1060 0.928 . S
H1079 C1062 0.932 . S
C1080 C1081 1.264 . S
C1080 C1085 1.479 . S
C1080 C1090 1.465 . S
C1081 C1080 1.264 . S
C1081 C1083 1.339 . S
C1081 H1108 0.931 . S
C1082 C1083 1.395 . S
C1082 C1084 1.320 . S
C1083 C1081 1.339 . S
C1083 C1082 1.395 . S
C1083 H1109 0.929 . S
C1084 C1082 1.320 . S
C1084 C1085 1.405 . S
C1084 H1110 0.930 . S
C1085 C1080 1.479 . S
C1085 C1084 1.405 . S
C1085 H1111 0.931 . S
U1086 O1087 2.454 . S
U1086 O1088 2.458 . S
U1086 C1089 2.984 . S
U1086 C1090 2.847 . S
U1086 C1103 2.882 . S
U1086 O1104 2.441 . S
U1086 O1105 2.420 . S
U1086 O1106 2.455 . S
U1086 O1107 2.449 . S
O1087 U1086 2.454 . S
O1087 C1089 1.353 . S
O1088 U1086 2.458 . S
O1088 C1089 1.286 . S
C1089 U1086 2.984 . S
C1089 O1087 1.353 . S
C1089 O1088 1.286 . S
C1089 C1091 1.363 . S
C1090 C1080 1.465 . S
C1090 U1086 2.847 . S
C1090 O1104 1.249 . S
C1090 O1105 1.202 . S
C1091 C1089 1.363 . S
C1091 C1093 1.408 . S
C1091 C1096 1.342 . S
C1092 C1093 1.310 . S
C1092 C1095 1.461 . S
C1092 H1112 0.932 . S
C1093 C1091 1.408 . S
C1093 C1092 1.310 . S
C1093 H1113 0.930 . S
C1094 C1095 1.474 . S
C1094 C1096 1.285 . S
C1094 H1114 0.929 . S
C1095 C1092 1.461 . S
C1095 C1094 1.474 . S
C1096 C1091 1.342 . S
C1096 C1094 1.285 . S
C1096 H1115 0.930 . S
C1097 C1100 1.424 . S
C1097 C1102 1.245 . S
C1097 C1103 1.428 . S
C1098 C1101 1.260 . S
C1098 C1102 1.477 . S
C1098 H1116 0.932 . S
C1099 C1100 1.384 . S
C1099 C1101 1.479 . S
C1099 H1117 0.929 . S
C1100 C1097 1.424 . S
C1100 C1099 1.384 . S
C1100 H1118 0.928 . S
C1101 C1098 1.260 . S
C1101 C1099 1.479 . S
C1102 C1097 1.245 . S
C1102 C1098 1.477 . S
C1102 H1119 0.932 . S
C1103 U1086 2.882 . S
C1103 C1097 1.428 . S
C1103 O1106 1.301 . S
C1103 O1107 1.282 . S
O1104 U1086 2.441 . S
O1104 C1090 1.249 . S
O1105 U1086 2.420 . S
O1105 C1090 1.202 . S
O1106 U1086 2.455 . S
O1106 C1103 1.301 . S
O1107 U1086 2.449 . S
O1107 C1103 1.282 . S
H1108 C1081 0.931 . S
H1109 C1083 0.929 . S
H1110 C1084 0.930 . S
H1111 C1085 0.931 . S
H1112 C1092 0.932 . S
H1113 C1093 0.930 . S
H1114 C1094 0.929 . S
H1115 C1096 0.930 . S
H1116 C1098 0.932 . S
H1117 C1099 0.929 . S
H1118 C1100 0.928 . S
H1119 C1102 0.932 . S
C1120 C1121 1.264 . S
C1120 C1125 1.479 . S
C1120 C1130 1.465 . S
C1121 C1120 1.264 . S
C1121 C1123 1.339 . S
C1121 H1148 0.931 . S
C1122 C1123 1.395 . S
C1122 C1124 1.320 . S
C1123 C1121 1.339 . S
C1123 C1122 1.395 . S
C1123 H1149 0.929 . S
C1124 C1122 1.320 . S
C1124 C1125 1.405 . S
C1124 H1150 0.930 . S
C1125 C1120 1.479 . S
C1125 C1124 1.405 . S
C1125 H1151 0.931 . S
U1126 O1127 2.454 . S
U1126 O1128 2.458 . S
U1126 C1129 2.984 . S
U1126 C1130 2.847 . S
U1126 C1143 2.882 . S
U1126 O1144 2.441 . S
U1126 O1145 2.420 . S
U1126 O1146 2.455 . S
U1126 O1147 2.449 . S
O1127 U1126 2.454 . S
O1127 C1129 1.353 . S
O1128 U1126 2.458 . S
O1128 C1129 1.286 . S
C1129 U1126 2.984 . S
C1129 O1127 1.353 . S
C1129 O1128 1.286 . S
C1129 C1131 1.363 . S
C1130 C1120 1.465 . S
C1130 U1126 2.847 . S
C1130 O1144 1.249 . S
C1130 O1145 1.202 . S
C1131 C1129 1.363 . S
C1131 C1133 1.408 . S
C1131 C1136 1.342 . S
C1132 C1133 1.310 . S
C1132 C1135 1.461 . S
C1132 H1152 0.932 . S
C1133 C1131 1.408 . S
C1133 C1132 1.310 . S
C1133 H1153 0.930 . S
C1134 C1135 1.474 . S
C1134 C1136 1.285 . S
C1134 H1154 0.929 . S
C1135 C1132 1.461 . S
C1135 C1134 1.474 . S
C1136 C1131 1.342 . S
C1136 C1134 1.285 . S
C1136 H1155 0.930 . S
C1137 C1140 1.424 . S
C1137 C1142 1.245 . S
C1137 C1143 1.428 . S
C1138 C1141 1.260 . S
C1138 C1142 1.477 . S
C1138 H1156 0.932 . S
C1139 C1140 1.384 . S
C1139 C1141 1.479 . S
C1139 H1157 0.929 . S
C1140 C1137 1.424 . S
C1140 C1139 1.384 . S
C1140 H1158 0.928 . S
C1141 C1138 1.260 . S
C1141 C1139 1.479 . S
C1142 C1137 1.245 . S
C1142 C1138 1.477 . S
C1142 H1159 0.932 . S
C1143 U1126 2.882 . S
C1143 C1137 1.428 . S
C1143 O1146 1.301 . S
C1143 O1147 1.282 . S
O1144 U1126 2.441 . S
O1144 C1130 1.249 . S
O1145 U1126 2.420 . S
O1145 C1130 1.202 . S
O1146 U1126 2.455 . S
O1146 C1143 1.301 . S
O1147 U1126 2.449 . S
O1147 C1143 1.282 . S
H1148 C1121 0.931 . S
H1149 C1123 0.929 . S
H1150 C1124 0.930 . S
H1151 C1125 0.931 . S
H1152 C1132 0.932 . S
H1153 C1133 0.930 . S
H1154 C1134 0.929 . S
H1155 C1136 0.930 . S
H1156 C1138 0.932 . S
H1157 C1139 0.929 . S
H1158 C1140 0.928 . S
H1159 C1142 0.932 . S
C1160 C1161 1.264 . S
C1160 C1165 1.479 . S
C1160 C1170 1.465 . S
C1161 C1160 1.264 . S
C1161 C1163 1.339 . S
C1161 H1188 0.931 . S
C1162 C1163 1.395 . S
C1162 C1164 1.320 . S
C1163 C1161 1.339 . S
C1163 C1162 1.395 . S
C1163 H1189 0.929 . S
C1164 C1162 1.320 . S
C1164 C1165 1.405 . S
C1164 H1190 0.930 . S
C1165 C1160 1.479 . S
C1165 C1164 1.405 . S
C1165 H1191 0.931 . S
U1166 O1167 2.454 . S
U1166 O1168 2.458 . S
U1166 C1169 2.984 . S
U1166 C1170 2.847 . S
U1166 C1183 2.882 . S
U1166 O1184 2.441 . S
U1166 O1185 2.420 . S
U1166 O1186 2.455 . S
U1166 O1187 2.449 . S
O1167 U1166 2.454 . S
O1167 C1169 1.353 . S
O1168 U1166 2.458 . S
O1168 C1169 1.286 . S
C1169 U1166 2.984 . S
C1169 O1167 1.353 . S
C1169 O1168 1.286 . S
C1169 C1171 1.363 . S
C1170 C1160 1.465 . S
C1170 U1166 2.847 . S
C1170 O1184 1.249 . S
C1170 O1185 1.202 . S
C1171 C1169 1.363 . S
C1171 C1173 1.408 . S
C1171 C1176 1.342 . S
C1172 C1173 1.310 . S
C1172 C1175 1.461 . S
C1172 H1192 0.932 . S
C1173 C1171 1.408 . S
C1173 C1172 1.310 . S
C1173 H1193 0.930 . S
C1174 C1175 1.474 . S
C1174 C1176 1.285 . S
C1174 H1194 0.929 . S
C1175 C1172 1.461 . S
C1175 C1174 1.474 . S
C1176 C1171 1.342 . S
C1176 C1174 1.285 . S
C1176 H1195 0.930 . S
C1177 C1180 1.424 . S
C1177 C1182 1.245 . S
C1177 C1183 1.428 . S
C1178 C1181 1.260 . S
C1178 C1182 1.477 . S
C1178 H1196 0.932 . S
C1179 C1180 1.384 . S
C1179 C1181 1.479 . S
C1179 H1197 0.929 . S
C1180 C1177 1.424 . S
C1180 C1179 1.384 . S
C1180 H1198 0.928 . S
C1181 C1178 1.260 . S
C1181 C1179 1.479 . S
C1182 C1177 1.245 . S
C1182 C1178 1.477 . S
C1182 H1199 0.932 . S
C1183 U1166 2.882 . S
C1183 C1177 1.428 . S
C1183 O1186 1.301 . S
C1183 O1187 1.282 . S
O1184 U1166 2.441 . S
O1184 C1170 1.249 . S
O1185 U1166 2.420 . S
O1185 C1170 1.202 . S
O1186 U1166 2.455 . S
O1186 C1183 1.301 . S
O1187 U1166 2.449 . S
O1187 C1183 1.282 . S
H1188 C1161 0.931 . S
H1189 C1163 0.929 . S
H1190 C1164 0.930 . S
H1191 C1165 0.931 . S
H1192 C1172 0.932 . S
H1193 C1173 0.930 . S
H1194 C1174 0.929 . S
H1195 C1176 0.930 . S
H1196 C1178 0.932 . S
H1197 C1179 0.929 . S
H1198 C1180 0.928 . S
H1199 C1182 0.932 . S
C1200 C1201 1.264 . S
C1200 C1205 1.479 . S
C1200 C1210 1.465 . S
C1201 C1200 1.264 . S
C1201 C1203 1.339 . S
C1201 H1228 0.931 . S
C1202 C1203 1.395 . S
C1202 C1204 1.320 . S
C1203 C1201 1.339 . S
C1203 C1202 1.395 . S
C1203 H1229 0.929 . S
C1204 C1202 1.320 . S
C1204 C1205 1.405 . S
C1204 H1230 0.930 . S
C1205 C1200 1.479 . S
C1205 C1204 1.405 . S
C1205 H1231 0.931 . S
U1206 O1207 2.454 . S
U1206 O1208 2.458 . S
U1206 C1209 2.984 . S
U1206 C1210 2.847 . S
U1206 C1223 2.882 . S
U1206 O1224 2.441 . S
U1206 O1225 2.420 . S
U1206 O1226 2.455 . S
U1206 O1227 2.449 . S
O1207 U1206 2.454 . S
O1207 C1209 1.353 . S
O1208 U1206 2.458 . S
O1208 C1209 1.286 . S
C1209 U1206 2.984 . S
C1209 O1207 1.353 . S
C1209 O1208 1.286 . S
C1209 C1211 1.363 . S
C1210 C1200 1.465 . S
C1210 U1206 2.847 . S
C1210 O1224 1.249 . S
C1210 O1225 1.202 . S
C1211 C1209 1.363 . S
C1211 C1213 1.408 . S
C1211 C1216 1.342 . S
C1212 C1213 1.310 . S
C1212 C1215 1.461 . S
C1212 H1232 0.932 . S
C1213 C1211 1.408 . S
C1213 C1212 1.310 . S
C1213 H1233 0.930 . S
C1214 C1215 1.474 . S
C1214 C1216 1.285 . S
C1214 H1234 0.929 . S
C1215 C1212 1.461 . S
C1215 C1214 1.474 . S
C1216 C1211 1.342 . S
C1216 C1214 1.285 . S
C1216 H1235 0.930 . S
C1217 C1220 1.424 . S
C1217 C1222 1.245 . S
C1217 C1223 1.428 . S
C1218 C1221 1.260 . S
C1218 C1222 1.477 . S
C1218 H1236 0.932 . S
C1219 C1220 1.384 . S
C1219 C1221 1.479 . S
C1219 H1237 0.929 . S
C1220 C1217 1.424 . S
C1220 C1219 1.384 . S
C1220 H1238 0.928 . S
C1221 C1218 1.260 . S
C1221 C1219 1.479 . S
C1222 C1217 1.245 . S
C1222 C1218 1.477 . S
C1222 H1239 0.932 . S
C1223 U1206 2.882 . S
C1223 C1217 1.428 . S
C1223 O1226 1.301 . S
C1223 O1227 1.282 . S
O1224 U1206 2.441 . S
O1224 C1210 1.249 . S
O1225 U1206 2.420 . S
O1225 C1210 1.202 . S
O1226 U1206 2.455 . S
O1226 C1223 1.301 . S
O1227 U1206 2.449 . S
O1227 C1223 1.282 . S
H1228 C1201 0.931 . S
H1229 C1203 0.929 . S
H1230 C1204 0.930 . S
H1231 C1205 0.931 . S
H1232 C1212 0.932 . S
H1233 C1213 0.930 . S
H1234 C1214 0.929 . S
H1235 C1216 0.930 . S
H1236 C1218 0.932 . S
H1237 C1219 0.929 . S
H1238 C1220 0.928 . S
H1239 C1222 0.932 . S
C1240 C1241 1.264 . S
C1240 C1245 1.479 . S
C1240 C1250 1.465 . S
C1241 C1240 1.264 . S
C1241 C1243 1.339 . S
C1241 H1268 0.931 . S
C1242 C1243 1.395 . S
C1242 C1244 1.320 . S
C1243 C1241 1.339 . S
C1243 C1242 1.395 . S
C1243 H1269 0.929 . S
C1244 C1242 1.320 . S
C1244 C1245 1.405 . S
C1244 H1270 0.930 . S
C1245 C1240 1.479 . S
C1245 C1244 1.405 . S
C1245 H1271 0.931 . S
U1246 O1247 2.454 . S
U1246 O1248 2.458 . S
U1246 C1249 2.984 . S
U1246 C1250 2.847 . S
U1246 C1263 2.882 . S
U1246 O1264 2.441 . S
U1246 O1265 2.420 . S
U1246 O1266 2.455 . S
U1246 O1267 2.449 . S
O1247 U1246 2.454 . S
O1247 C1249 1.353 . S
O1248 U1246 2.458 . S
O1248 C1249 1.286 . S
C1249 U1246 2.984 . S
C1249 O1247 1.353 . S
C1249 O1248 1.286 . S
C1249 C1251 1.363 . S
C1250 C1240 1.465 . S
C1250 U1246 2.847 . S
C1250 O1264 1.249 . S
C1250 O1265 1.202 . S
C1251 C1249 1.363 . S
C1251 C1253 1.408 . S
C1251 C1256 1.342 . S
C1252 C1253 1.310 . S
C1252 C1255 1.461 . S
C1252 H1272 0.932 . S
C1253 C1251 1.408 . S
C1253 C1252 1.310 . S
C1253 H1273 0.930 . S
C1254 C1255 1.474 . S
C1254 C1256 1.285 . S
C1254 H1274 0.929 . S
C1255 C1252 1.461 . S
C1255 C1254 1.474 . S
C1256 C1251 1.342 . S
C1256 C1254 1.285 . S
C1256 H1275 0.930 . S
C1257 C1260 1.424 . S
C1257 C1262 1.245 . S
C1257 C1263 1.428 . S
C1258 C1261 1.260 . S
C1258 C1262 1.477 . S
C1258 H1276 0.932 . S
C1259 C1260 1.384 . S
C1259 C1261 1.479 . S
C1259 H1277 0.899 1_556 S
C1260 C1257 1.424 . S
C1260 C1259 1.384 . S
C1260 H1278 0.928 . S
C1261 C1258 1.260 . S
C1261 C1259 1.479 . S
C1262 C1257 1.245 . S
C1262 C1258 1.477 . S
C1262 H1279 0.932 . S
C1263 U1246 2.882 . S
C1263 C1257 1.428 . S
C1263 O1266 1.301 . S
C1263 O1267 1.282 . S
O1264 U1246 2.441 . S
O1264 C1250 1.249 . S
O1265 U1246 2.420 . S
O1265 C1250 1.202 . S
O1266 U1246 2.455 . S
O1266 C1263 1.301 . S
O1267 U1246 2.449 . S
O1267 C1263 1.282 . S
H1268 C1241 0.931 . S
H1269 C1243 0.929 . S
H1270 C1244 0.930 . S
H1271 C1245 0.931 . S
H1272 C1252 0.932 . S
H1273 C1253 0.930 . S
H1274 C1254 0.929 . S
H1275 C1256 0.930 . S
H1276 C1258 0.932 . S
H1277 C1259 0.899 1_554 S
H1278 C1260 0.928 . S
H1279 C1262 0.932 . S
C1280 C1281 1.264 . S
C1280 C1285 1.480 1_455 S
C1280 C1290 1.465 . S
C1281 C1280 1.264 . S
C1281 C1283 1.347 . S
C1281 H1308 0.931 . S
C1282 C1283 1.385 1_655 S
C1282 C1284 1.320 . S
C1283 C1281 1.347 . S
C1283 C1282 1.385 1_455 S
C1283 H1309 0.932 . S
C1284 C1282 1.320 . S
C1284 C1285 1.403 . S
C1284 H1310 0.930 . S
C1285 C1280 1.480 1_655 S
C1285 C1284 1.403 . S
C1285 H1311 0.928 1_655 S
U1286 O1287 2.454 . S
U1286 O1288 2.458 . S
U1286 C1289 2.984 . S
U1286 C1290 2.847 . S
U1286 C1303 2.882 . S
U1286 O1304 2.441 . S
U1286 O1305 2.420 . S
U1286 O1306 2.455 . S
U1286 O1307 2.449 . S
O1287 U1286 2.454 . S
O1287 C1289 1.353 . S
O1288 U1286 2.458 . S
O1288 C1289 1.286 . S
C1289 U1286 2.984 . S
C1289 O1287 1.353 . S
C1289 O1288 1.286 . S
C1289 C1291 1.363 . S
C1290 C1280 1.465 . S
C1290 U1286 2.847 . S
C1290 O1304 1.249 . S
C1290 O1305 1.202 . S
C1291 C1289 1.363 . S
C1291 C1293 1.418 . S
C1291 C1296 1.342 . S
C1292 C1293 1.306 1_655 S
C1292 C1295 1.460 . S
C1292 H1312 0.934 . S
C1293 C1291 1.418 . S
C1293 C1292 1.306 1_455 S
C1293 H1313 0.930 . S
C1294 C1295 1.471 1_455 S
C1294 C1296 1.291 . S
C1294 H1314 0.930 . S
C1295 C1292 1.460 . S
C1295 C1294 1.471 1_655 S
C1296 C1291 1.342 . S
C1296 C1294 1.291 . S
C1296 H1315 0.930 . S
C1297 C1300 1.424 . S
C1297 C1302 1.245 . S
C1297 C1303 1.428 . S
C1298 C1301 1.260 . S
C1298 C1302 1.477 . S
C1298 H1316 0.932 . S
C1299 C1300 1.384 . S
C1299 C1301 1.479 . S
C1299 H1317 0.929 . S
C1300 C1297 1.424 . S
C1300 C1299 1.384 . S
C1300 H1318 0.928 . S
C1301 C1298 1.260 . S
C1301 C1299 1.479 . S
C1302 C1297 1.245 . S
C1302 C1298 1.477 . S
C1302 H1319 0.932 . S
C1303 U1286 2.882 . S
C1303 C1297 1.428 . S
C1303 O1306 1.301 . S
C1303 O1307 1.282 . S
O1304 U1286 2.441 . S
O1304 C1290 1.249 . S
O1305 U1286 2.420 . S
O1305 C1290 1.202 . S
O1306 U1286 2.455 . S
O1306 C1303 1.301 . S
O1307 U1286 2.449 . S
O1307 C1303 1.282 . S
H1308 C1281 0.931 . S
H1309 C1283 0.932 . S
H1310 C1284 0.930 . S
H1311 C1285 0.928 1_455 S
H1312 C1292 0.934 . S
H1313 C1293 0.930 . S
H1314 C1294 0.930 . S
H1315 C1296 0.930 . S
H1316 C1298 0.932 . S
H1317 C1299 0.929 . S
H1318 C1300 0.928 . S
H1319 C1302 0.932 . S
C1320 C1321 1.264 . S
C1320 C1325 1.479 . S
C1320 C1330 1.465 . S
C1321 C1320 1.264 . S
C1321 C1323 1.339 . S
C1321 H1348 0.931 . S
C1322 C1323 1.395 . S
C1322 C1324 1.320 . S
C1323 C1321 1.339 . S
C1323 C1322 1.395 . S
C1323 H1349 0.929 . S
C1324 C1322 1.320 . S
C1324 C1325 1.405 . S
C1324 H1350 0.930 . S
C1325 C1320 1.479 . S
C1325 C1324 1.405 . S
C1325 H1351 0.931 . S
U1326 O1327 2.454 . S
U1326 O1328 2.458 . S
U1326 C1329 2.984 . S
U1326 C1330 2.847 . S
U1326 C1343 2.882 . S
U1326 O1344 2.441 . S
U1326 O1345 2.420 . S
U1326 O1346 2.455 . S
U1326 O1347 2.449 . S
O1327 U1326 2.454 . S
O1327 C1329 1.353 . S
O1328 U1326 2.458 . S
O1328 C1329 1.286 . S
C1329 U1326 2.984 . S
C1329 O1327 1.353 . S
C1329 O1328 1.286 . S
C1329 C1331 1.363 . S
C1330 C1320 1.465 . S
C1330 U1326 2.847 . S
C1330 O1344 1.249 . S
C1330 O1345 1.202 . S
C1331 C1329 1.363 . S
C1331 C1333 1.408 . S
C1331 C1336 1.342 . S
C1332 C1333 1.310 . S
C1332 C1335 1.461 . S
C1332 H1352 0.932 . S
C1333 C1331 1.408 . S
C1333 C1332 1.310 . S
C1333 H1353 0.930 . S
C1334 C1335 1.474 . S
C1334 C1336 1.285 . S
C1334 H1354 0.929 . S
C1335 C1332 1.461 . S
C1335 C1334 1.474 . S
C1336 C1331 1.342 . S
C1336 C1334 1.285 . S
C1336 H1355 0.930 . S
C1337 C1340 1.424 . S
C1337 C1342 1.245 . S
C1337 C1343 1.428 . S
C1338 C1341 1.260 . S
C1338 C1342 1.477 . S
C1338 H1356 0.932 . S
C1339 C1340 1.384 . S
C1339 C1341 1.479 . S
C1339 H1357 0.929 . S
C1340 C1337 1.424 . S
C1340 C1339 1.384 . S
C1340 H1358 0.928 . S
C1341 C1338 1.260 . S
C1341 C1339 1.479 . S
C1342 C1337 1.245 . S
C1342 C1338 1.477 . S
C1342 H1359 0.932 . S
C1343 U1326 2.882 . S
C1343 C1337 1.428 . S
C1343 O1346 1.301 . S
C1343 O1347 1.282 . S
O1344 U1326 2.441 . S
O1344 C1330 1.249 . S
O1345 U1326 2.420 . S
O1345 C1330 1.202 . S
O1346 U1326 2.455 . S
O1346 C1343 1.301 . S
O1347 U1326 2.449 . S
O1347 C1343 1.282 . S
H1348 C1321 0.931 . S
H1349 C1323 0.929 . S
H1350 C1324 0.930 . S
H1351 C1325 0.931 . S
H1352 C1332 0.932 . S
H1353 C1333 0.930 . S
H1354 C1334 0.929 . S
H1355 C1336 0.930 . S
H1356 C1338 0.932 . S
H1357 C1339 0.929 . S
H1358 C1340 0.928 . S
H1359 C1342 0.932 . S
C1360 C1361 1.264 . S
C1360 C1365 1.479 . S
C1360 C1370 1.465 . S
C1361 C1360 1.264 . S
C1361 C1363 1.339 . S
C1361 H1388 0.931 . S
C1362 C1363 1.395 . S
C1362 C1364 1.320 . S
C1363 C1361 1.339 . S
C1363 C1362 1.395 . S
C1363 H1389 0.929 . S
C1364 C1362 1.320 . S
C1364 C1365 1.405 . S
C1364 H1390 0.930 . S
C1365 C1360 1.479 . S
C1365 C1364 1.405 . S
C1365 H1391 0.931 . S
U1366 O1367 2.454 . S
U1366 O1368 2.458 . S
U1366 C1369 2.984 . S
U1366 C1370 2.847 . S
U1366 C1383 2.882 . S
U1366 O1384 2.441 . S
U1366 O1385 2.420 . S
U1366 O1386 2.455 . S
U1366 O1387 2.449 . S
O1367 U1366 2.454 . S
O1367 C1369 1.353 . S
O1368 U1366 2.458 . S
O1368 C1369 1.286 . S
C1369 U1366 2.984 . S
C1369 O1367 1.353 . S
C1369 O1368 1.286 . S
C1369 C1371 1.363 . S
C1370 C1360 1.465 . S
C1370 U1366 2.847 . S
C1370 O1384 1.249 . S
C1370 O1385 1.202 . S
C1371 C1369 1.363 . S
C1371 C1373 1.408 . S
C1371 C1376 1.342 . S
C1372 C1373 1.310 . S
C1372 C1375 1.461 . S
C1372 H1392 0.932 . S
C1373 C1371 1.408 . S
C1373 C1372 1.310 . S
C1373 H1393 0.930 . S
C1374 C1375 1.474 . S
C1374 C1376 1.285 . S
C1374 H1394 0.929 . S
C1375 C1372 1.461 . S
C1375 C1374 1.474 . S
C1376 C1371 1.342 . S
C1376 C1374 1.285 . S
C1376 H1395 0.930 . S
C1377 C1380 1.424 . S
C1377 C1382 1.245 . S
C1377 C1383 1.428 . S
C1378 C1381 1.260 . S
C1378 C1382 1.477 . S
C1378 H1396 0.932 . S
C1379 C1380 1.384 . S
C1379 C1381 1.479 . S
C1379 H1397 0.929 . S
C1380 C1377 1.424 . S
C1380 C1379 1.384 . S
C1380 H1398 0.928 . S
C1381 C1378 1.260 . S
C1381 C1379 1.479 . S
C1382 C1377 1.245 . S
C1382 C1378 1.477 . S
C1382 H1399 0.932 . S
C1383 U1366 2.882 . S
C1383 C1377 1.428 . S
C1383 O1386 1.301 . S
C1383 O1387 1.282 . S
O1384 U1366 2.441 . S
O1384 C1370 1.249 . S
O1385 U1366 2.420 . S
O1385 C1370 1.202 . S
O1386 U1366 2.455 . S
O1386 C1383 1.301 . S
O1387 U1366 2.449 . S
O1387 C1383 1.282 . S
H1388 C1361 0.931 . S
H1389 C1363 0.929 . S
H1390 C1364 0.930 . S
H1391 C1365 0.931 . S
H1392 C1372 0.932 . S
H1393 C1373 0.930 . S
H1394 C1374 0.929 . S
H1395 C1376 0.930 . S
H1396 C1378 0.932 . S
H1397 C1379 0.929 . S
H1398 C1380 0.928 . S
H1399 C1382 0.932 . S
C1400 C1401 1.264 . S
C1400 C1405 1.479 . S
C1400 C1410 1.465 . S
C1401 C1400 1.264 . S
C1401 C1403 1.339 . S
C1401 H1428 0.931 . S
C1402 C1403 1.395 . S
C1402 C1404 1.320 . S
C1403 C1401 1.339 . S
C1403 C1402 1.395 . S
C1403 H1429 0.929 . S
C1404 C1402 1.320 . S
C1404 C1405 1.405 . S
C1404 H1430 0.896 1_655 S
C1405 C1400 1.479 . S
C1405 C1404 1.405 . S
C1405 H1431 0.931 . S
U1406 O1407 2.454 . S
U1406 O1408 2.458 . S
U1406 C1409 2.984 . S
U1406 C1410 2.847 . S
U1406 C1423 2.882 . S
U1406 O1424 2.441 . S
U1406 O1425 2.420 . S
U1406 O1426 2.455 . S
U1406 O1427 2.449 . S
O1407 U1406 2.454 . S
O1407 C1409 1.353 . S
O1408 U1406 2.458 . S
O1408 C1409 1.286 . S
C1409 U1406 2.984 . S
C1409 O1407 1.353 . S
C1409 O1408 1.286 . S
C1409 C1411 1.363 . S
C1410 C1400 1.465 . S
C1410 U1406 2.847 . S
C1410 O1424 1.249 . S
C1410 O1425 1.202 . S
C1411 C1409 1.363 . S
C1411 C1413 1.408 . S
C1411 C1416 1.342 . S
C1412 C1413 1.310 1_455 S
C1412 C1415 1.489 . S
C1412 H1432 0.932 . S
C1413 C1411 1.408 . S
C1413 C1412 1.310 1_655 S
C1413 H1433 0.926 1_655 S
C1414 C1415 1.401 1_655 S
C1414 C1416 1.285 . S
C1414 H1434 0.929 . S
C1415 C1412 1.489 . S
C1415 C1414 1.401 1_455 S
C1416 C1411 1.342 . S
C1416 C1414 1.285 . S
C1416 H1435 0.930 . S
C1417 C1420 1.424 . S
C1417 C1422 1.245 . S
C1417 C1423 1.428 . S
C1418 C1421 1.260 . S
C1418 C1422 1.477 . S
C1418 H1436 0.932 . S
C1419 C1420 1.384 . S
C1419 C1421 1.479 . S
C1419 H1437 0.929 . S
C1420 C1417 1.424 . S
C1420 C1419 1.384 . S
C1420 H1438 0.928 . S
C1421 C1418 1.260 . S
C1421 C1419 1.479 . S
C1422 C1417 1.245 . S
C1422 C1418 1.477 . S
C1422 H1439 0.932 . S
C1423 U1406 2.882 . S
C1423 C1417 1.428 . S
C1423 O1426 1.301 . S
C1423 O1427 1.282 . S
O1424 U1406 2.441 . S
O1424 C1410 1.249 . S
O1425 U1406 2.420 . S
O1425 C1410 1.202 . S
O1426 U1406 2.455 . S
O1426 C1423 1.301 . S
O1427 U1406 2.449 . S
O1427 C1423 1.282 . S
H1428 C1401 0.931 . S
H1429 C1403 0.929 . S
H1430 C1404 0.896 1_455 S
H1431 C1405 0.931 . S
H1432 C1412 0.932 . S
H1433 C1413 0.926 1_455 S
H1434 C1414 0.929 . S
H1435 C1416 0.930 . S
H1436 C1418 0.932 . S
H1437 C1419 0.929 . S
H1438 C1420 0.928 . S
H1439 C1422 0.932 . S
C1440 C1441 1.264 . S
C1440 C1445 1.479 . S
C1440 C1450 1.465 . S
C1441 C1440 1.264 . S
C1441 C1443 1.339 . S
C1441 H1468 0.931 . S
C1442 C1443 1.395 . S
C1442 C1444 1.320 . S
C1443 C1441 1.339 . S
C1443 C1442 1.395 . S
C1443 H1469 0.929 . S
C1444 C1442 1.320 . S
C1444 C1445 1.405 . S
C1444 H1470 0.930 . S
C1445 C1440 1.479 . S
C1445 C1444 1.405 . S
C1445 H1471 0.931 . S
U1446 O1447 2.454 . S
U1446 O1448 2.458 . S
U1446 C1449 2.984 . S
U1446 C1450 2.847 . S
U1446 C1463 2.882 . S
U1446 O1464 2.441 . S
U1446 O1465 2.420 . S
U1446 O1466 2.455 . S
U1446 O1467 2.449 . S
O1447 U1446 2.454 . S
O1447 C1449 1.353 . S
O1448 U1446 2.458 . S
O1448 C1449 1.286 . S
C1449 U1446 2.984 . S
C1449 O1447 1.353 . S
C1449 O1448 1.286 . S
C1449 C1451 1.363 . S
C1450 C1440 1.465 . S
C1450 U1446 2.847 . S
C1450 O1464 1.249 . S
C1450 O1465 1.202 . S
C1451 C1449 1.363 . S
C1451 C1453 1.408 . S
C1451 C1456 1.342 . S
C1452 C1453 1.310 . S
C1452 C1455 1.461 . S
C1452 H1472 0.932 . S
C1453 C1451 1.408 . S
C1453 C1452 1.310 . S
C1453 H1473 0.930 . S
C1454 C1455 1.474 . S
C1454 C1456 1.285 . S
C1454 H1474 0.941 . S
C1455 C1452 1.461 . S
C1455 C1454 1.474 . S
C1456 C1451 1.342 . S
C1456 C1454 1.285 . S
C1456 H1475 0.951 . S
C1457 C1460 1.417 1_455 S
C1457 C1462 1.253 . S
C1457 C1463 1.428 . S
C1458 C1461 1.260 . S
C1458 C1462 1.470 1_655 S
C1458 H1476 0.932 . S
C1459 C1460 1.391 . S
C1459 C1461 1.479 . S
C1459 H1477 0.929 . S
C1460 C1457 1.417 1_655 S
C1460 C1459 1.391 . S
C1460 H1478 0.928 . S
C1461 C1458 1.260 . S
C1461 C1459 1.479 . S
C1462 C1457 1.253 . S
C1462 C1458 1.470 1_455 S
C1462 H1479 0.932 . S
C1463 U1446 2.882 . S
C1463 C1457 1.428 . S
C1463 O1466 1.301 . S
C1463 O1467 1.282 . S
O1464 U1446 2.441 . S
O1464 C1450 1.249 . S
O1465 U1446 2.420 . S
O1465 C1450 1.202 . S
O1466 U1446 2.455 . S
O1466 C1463 1.301 . S
O1467 U1446 2.449 . S
O1467 C1463 1.282 . S
H1468 C1441 0.931 . S
H1469 C1443 0.929 . S
H1470 C1444 0.930 . S
H1471 C1445 0.931 . S
H1472 C1452 0.932 . S
H1473 C1453 0.930 . S
H1474 C1454 0.941 . S
H1475 C1456 0.951 . S
H1476 C1458 0.932 . S
H1477 C1459 0.929 . S
H1478 C1460 0.928 . S
H1479 C1462 0.932 . S
C1480 C1481 1.264 . S
C1480 C1485 1.479 . S
C1480 C1490 1.465 . S
C1481 C1480 1.264 . S
C1481 C1483 1.339 . S
C1481 H1508 0.931 . S
C1482 C1483 1.395 . S
C1482 C1484 1.320 . S
C1483 C1481 1.339 . S
C1483 C1482 1.395 . S
C1483 H1509 0.929 . S
C1484 C1482 1.320 . S
C1484 C1485 1.405 . S
C1484 H1510 0.930 . S
C1485 C1480 1.479 . S
C1485 C1484 1.405 . S
C1485 H1511 0.931 . S
U1486 O1487 2.438 1_554 S
U1486 O1488 2.458 1_554 S
U1486 C1489 2.984 1_554 S
U1486 C1490 2.847 . S
U1486 C1503 2.882 1_554 S
U1486 O1504 2.441 . S
U1486 O1505 2.420 . S
U1486 O1506 2.455 1_554 S
U1486 O1507 2.449 . S
O1487 U1486 2.438 1_556 S
O1487 C1489 1.421 . S
O1488 U1486 2.458 1_556 S
O1488 C1489 1.286 . S
C1489 U1486 2.984 1_556 S
C1489 O1487 1.421 . S
C1489 O1488 1.286 . S
C1489 C1491 1.363 . S
C1490 C1480 1.465 . S
C1490 U1486 2.847 . S
C1490 O1504 1.249 . S
C1490 O1505 1.202 . S
C1491 C1489 1.363 . S
C1491 C1493 1.408 . S
C1491 C1496 1.342 . S
C1492 C1493 1.310 . S
C1492 C1495 1.461 . S
C1492 H1512 0.932 . S
C1493 C1491 1.408 . S
C1493 C1492 1.310 . S
C1493 H1513 0.930 . S
C1494 C1495 1.474 . S
C1494 C1496 1.285 . S
C1494 H1514 0.929 . S
C1495 C1492 1.461 . S
C1495 C1494 1.474 . S
C1496 C1491 1.342 . S
C1496 C1494 1.285 . S
C1496 H1515 0.930 . S
C1497 C1500 1.424 . S
C1497 C1502 1.245 . S
C1497 C1503 1.428 . S
C1498 C1501 1.260 . S
C1498 C1502 1.477 . S
C1498 H1516 0.932 . S
C1499 C1500 1.384 . S
C1499 C1501 1.479 . S
C1499 H1517 0.929 . S
C1500 C1497 1.424 . S
C1500 C1499 1.384 . S
C1500 H1518 0.886 1_556 S
C1501 C1498 1.260 . S
C1501 C1499 1.479 . S
C1502 C1497 1.245 . S
C1502 C1498 1.477 . S
C1502 H1519 0.932 . S
C1503 U1486 2.882 1_556 S
C1503 C1497 1.428 . S
C1503 O1506 1.301 . S
C1503 O1507 1.282 1_556 S
O1504 U1486 2.441 . S
O1504 C1490 1.249 . S
O1505 U1486 2.420 . S
O1505 C1490 1.202 . S
O1506 U1486 2.455 1_556 S
O1506 C1503 1.301 . S
O1507 U1486 2.449 . S
O1507 C1503 1.282 1_554 S
H1508 C1481 0.931 . S
H1509 C1483 0.929 . S
H1510 C1484 0.930 . S
H1511 C1485 0.931 . S
H1512 C1492 0.932 . S
H1513 C1493 0.930 . S
H1514 C1494 0.929 . S
H1515 C1496 0.930 . S
H1516 C1498 0.932 . S
H1517 C1499 0.929 . S
H1518 C1500 0.886 1_554 S
H1519 C1502 0.932 . S
C1520 C1521 1.264 . S
C1520 C1525 1.479 . S
C1520 C1530 1.465 . S
C1521 C1520 1.264 . S
C1521 C1523 1.339 . S
C1521 H1548 0.931 . S
C1522 C1523 1.395 . S
C1522 C1524 1.320 . S
C1523 C1521 1.339 . S
C1523 C1522 1.395 . S
C1523 H1549 0.929 . S
C1524 C1522 1.320 . S
C1524 C1525 1.405 . S
C1524 H1550 0.930 . S
C1525 C1520 1.479 . S
C1525 C1524 1.405 . S
C1525 H1551 0.931 . S
U1526 O1527 2.454 . S
U1526 O1528 2.458 . S
U1526 C1529 2.984 . S
U1526 C1530 2.847 . S
U1526 C1543 2.882 . S
U1526 O1544 2.441 . S
U1526 O1545 2.420 . S
U1526 O1546 2.455 . S
U1526 O1547 2.449 . S
O1527 U1526 2.454 . S
O1527 C1529 1.353 . S
O1528 U1526 2.458 . S
O1528 C1529 1.286 . S
C1529 U1526 2.984 . S
C1529 O1527 1.353 . S
C1529 O1528 1.286 . S
C1529 C1531 1.363 . S
C1530 C1520 1.465 . S
C1530 U1526 2.847 . S
C1530 O1544 1.249 . S
C1530 O1545 1.202 . S
C1531 C1529 1.363 . S
C1531 C1533 1.408 . S
C1531 C1536 1.342 . S
C1532 C1533 1.310 . S
C1532 C1535 1.461 . S
C1532 H1552 0.932 . S
C1533 C1531 1.408 . S
C1533 C1532 1.310 . S
C1533 H1553 0.930 . S
C1534 C1535 1.474 . S
C1534 C1536 1.285 . S
C1534 H1554 0.929 . S
C1535 C1532 1.461 . S
C1535 C1534 1.474 . S
C1536 C1531 1.342 . S
C1536 C1534 1.285 . S
C1536 H1555 0.930 . S
C1537 C1540 1.424 . S
C1537 C1542 1.245 . S
C1537 C1543 1.428 . S
C1538 C1541 1.260 . S
C1538 C1542 1.477 . S
C1538 H1556 0.932 . S
C1539 C1540 1.384 . S
C1539 C1541 1.479 . S
C1539 H1557 0.929 . S
C1540 C1537 1.424 . S
C1540 C1539 1.384 . S
C1540 H1558 0.928 . S
C1541 C1538 1.260 . S
C1541 C1539 1.479 . S
C1542 C1537 1.245 . S
C1542 C1538 1.477 . S
C1542 H1559 0.932 . S
C1543 U1526 2.882 . S
C1543 C1537 1.428 . S
C1543 O1546 1.301 . S
C1543 O1547 1.282 . S
O1544 U1526 2.441 . S
O1544 C1530 1.249 . S
O1545 U1526 2.420 . S
O1545 C1530 1.202 . S
O1546 U1526 2.455 . S
O1546 C1543 1.301 . S
O1547 U1526 2.449 . S
O1547 C1543 1.282 . S
H1548 C1521 0.931 . S
H1549 C1523 0.929 . S
H1550 C1524 0.930 . S
H1551 C1525 0.931 . S
H1552 C1532 0.932 . S
H1553 C1533 0.930 . S
H1554 C1534 0.929 . S
H1555 C1536 0.930 . S
H1556 C1538 0.932 . S
H1557 C1539 0.929 . S
H1558 C1540 0.928 . S
H1559 C1542 0.932 . S
C1560 C1561 1.264 . S
C1560 C1565 1.479 . S
C1560 C1570 1.465 . S
C1561 C1560 1.264 . S
C1561 C1563 1.339 . S
C1561 H1588 0.931 . S
C1562 C1563 1.395 . S
C1562 C1564 1.320 . S
C1563 C1561 1.339 . S
C1563 C1562 1.395 . S
C1563 H1589 0.929 . S
C1564 C1562 1.320 . S
C1564 C1565 1.405 . S
C1564 H1590 0.930 . S
C1565 C1560 1.479 . S
C1565 C1564 1.405 . S
C1565 H1591 0.931 . S
U1566 O1567 2.454 . S
U1566 O1568 2.458 . S
U1566 C1569 2.984 . S
U1566 C1570 2.847 . S
U1566 C1583 2.882 . S
U1566 O1584 2.441 . S
U1566 O1585 2.420 . S
U1566 O1586 2.455 . S
U1566 O1587 2.449 . S
O1567 U1566 2.454 . S
O1567 C1569 1.353 . S
O1568 U1566 2.458 . S
O1568 C1569 1.286 . S
C1569 U1566 2.984 . S
C1569 O1567 1.353 . S
C1569 O1568 1.286 . S
C1569 C1571 1.363 . S
C1570 C1560 1.465 . S
C1570 U1566 2.847 . S
C1570 O1584 1.249 . S
C1570 O1585 1.202 . S
C1571 C1569 1.363 . S
C1571 C1573 1.408 . S
C1571 C1576 1.342 . S
C1572 C1573 1.310 . S
C1572 C1575 1.461 . S
C1572 H1592 0.932 . S
C1573 C1571 1.408 . S
C1573 C1572 1.310 . S
C1573 H1593 0.930 . S
C1574 C1575 1.474 . S
C1574 C1576 1.285 . S
C1574 H1594 0.929 . S
C1575 C1572 1.461 . S
C1575 C1574 1.474 . S
C1576 C1571 1.342 . S
C1576 C1574 1.285 . S
C1576 H1595 0.930 . S
C1577 C1580 1.424 . S
C1577 C1582 1.245 . S
C1577 C1583 1.428 . S
C1578 C1581 1.260 . S
C1578 C1582 1.477 . S
C1578 H1596 0.932 . S
C1579 C1580 1.384 . S
C1579 C1581 1.479 . S
C1579 H1597 0.899 1_565 S
C1580 C1577 1.424 . S
C1580 C1579 1.384 . S
C1580 H1598 0.928 . S
C1581 C1578 1.260 . S
C1581 C1579 1.479 . S
C1582 C1577 1.245 . S
C1582 C1578 1.477 . S
C1582 H1599 0.932 . S
C1583 U1566 2.882 . S
C1583 C1577 1.428 . S
C1583 O1586 1.301 . S
C1583 O1587 1.282 . S
O1584 U1566 2.441 . S
O1584 C1570 1.249 . S
O1585 U1566 2.420 . S
O1585 C1570 1.202 . S
O1586 U1566 2.455 . S
O1586 C1583 1.301 . S
O1587 U1566 2.449 . S
O1587 C1583 1.282 . S
H1588 C1561 0.931 . S
H1589 C1563 0.929 . S
H1590 C1564 0.930 . S
H1591 C1565 0.931 . S
H1592 C1572 0.932 . S
H1593 C1573 0.930 . S
H1594 C1574 0.929 . S
H1595 C1576 0.930 . S
H1596 C1578 0.932 . S
H1597 C1579 0.899 1_545 S
H1598 C1580 0.928 . S
H1599 C1582 0.932 . S
C1600 C1601 1.264 . S
C1600 C1605 1.480 1_545 S
C1600 C1610 1.465 . S
C1601 C1600 1.264 . S
C1601 C1603 1.347 . S
C1601 H1628 0.931 . S
C1602 C1603 1.385 1_565 S
C1602 C1604 1.320 . S
C1603 C1601 1.347 . S
C1603 C1602 1.385 1_545 S
C1603 H1629 0.932 . S
C1604 C1602 1.320 . S
C1604 C1605 1.403 . S
C1604 H1630 0.930 . S
C1605 C1600 1.480 1_565 S
C1605 C1604 1.403 . S
C1605 H1631 0.928 1_565 S
U1606 O1607 2.454 . S
U1606 O1608 2.458 . S
U1606 C1609 2.984 . S
U1606 C1610 2.847 . S
U1606 C1623 2.882 . S
U1606 O1624 2.441 . S
U1606 O1625 2.420 . S
U1606 O1626 2.455 . S
U1606 O1627 2.449 . S
O1607 U1606 2.454 . S
O1607 C1609 1.353 . S
O1608 U1606 2.458 . S
O1608 C1609 1.286 . S
C1609 U1606 2.984 . S
C1609 O1607 1.353 . S
C1609 O1608 1.286 . S
C1609 C1611 1.363 . S
C1610 C1600 1.465 . S
C1610 U1606 2.847 . S
C1610 O1624 1.249 . S
C1610 O1625 1.202 . S
C1611 C1609 1.363 . S
C1611 C1613 1.418 . S
C1611 C1616 1.342 . S
C1612 C1613 1.306 1_565 S
C1612 C1615 1.460 . S
C1612 H1632 0.934 . S
C1613 C1611 1.418 . S
C1613 C1612 1.306 1_545 S
C1613 H1633 0.930 . S
C1614 C1615 1.471 1_545 S
C1614 C1616 1.291 . S
C1614 H1634 0.930 . S
C1615 C1612 1.460 . S
C1615 C1614 1.471 1_565 S
C1616 C1611 1.342 . S
C1616 C1614 1.291 . S
C1616 H1635 0.930 . S
C1617 C1620 1.424 . S
C1617 C1622 1.245 . S
C1617 C1623 1.428 . S
C1618 C1621 1.260 . S
C1618 C1622 1.477 . S
C1618 H1636 0.932 . S
C1619 C1620 1.384 . S
C1619 C1621 1.479 . S
C1619 H1637 0.929 . S
C1620 C1617 1.424 . S
C1620 C1619 1.384 . S
C1620 H1638 0.928 . S
C1621 C1618 1.260 . S
C1621 C1619 1.479 . S
C1622 C1617 1.245 . S
C1622 C1618 1.477 . S
C1622 H1639 0.932 . S
C1623 U1606 2.882 . S
C1623 C1617 1.428 . S
C1623 O1626 1.301 . S
C1623 O1627 1.282 . S
O1624 U1606 2.441 . S
O1624 C1610 1.249 . S
O1625 U1606 2.420 . S
O1625 C1610 1.202 . S
O1626 U1606 2.455 . S
O1626 C1623 1.301 . S
O1627 U1606 2.449 . S
O1627 C1623 1.282 . S
H1628 C1601 0.931 . S
H1629 C1603 0.932 . S
H1630 C1604 0.930 . S
H1631 C1605 0.928 1_545 S
H1632 C1612 0.934 . S
H1633 C1613 0.930 . S
H1634 C1614 0.930 . S
H1635 C1616 0.930 . S
H1636 C1618 0.932 . S
H1637 C1619 0.929 . S
H1638 C1620 0.928 . S
H1639 C1622 0.932 . S
C1640 C1641 1.264 . S
C1640 C1645 1.479 . S
C1640 C1650 1.465 . S
C1641 C1640 1.264 . S
C1641 C1643 1.339 . S
C1641 H1668 0.931 . S
C1642 C1643 1.395 . S
C1642 C1644 1.320 . S
C1643 C1641 1.339 . S
C1643 C1642 1.395 . S
C1643 H1669 0.929 . S
C1644 C1642 1.320 . S
C1644 C1645 1.405 . S
C1644 H1670 0.930 . S
C1645 C1640 1.479 . S
C1645 C1644 1.405 . S
C1645 H1671 0.931 . S
U1646 O1647 2.454 . S
U1646 O1648 2.458 . S
U1646 C1649 2.984 . S
U1646 C1650 2.847 . S
U1646 C1663 2.882 . S
U1646 O1664 2.441 . S
U1646 O1665 2.420 . S
U1646 O1666 2.455 . S
U1646 O1667 2.449 . S
O1647 U1646 2.454 . S
O1647 C1649 1.353 . S
O1648 U1646 2.458 . S
O1648 C1649 1.286 . S
C1649 U1646 2.984 . S
C1649 O1647 1.353 . S
C1649 O1648 1.286 . S
C1649 C1651 1.363 . S
C1650 C1640 1.465 . S
C1650 U1646 2.847 . S
C1650 O1664 1.249 . S
C1650 O1665 1.202 . S
C1651 C1649 1.363 . S
C1651 C1653 1.408 . S
C1651 C1656 1.342 . S
C1652 C1653 1.310 . S
C1652 C1655 1.461 . S
C1652 H1672 0.932 . S
C1653 C1651 1.408 . S
C1653 C1652 1.310 . S
C1653 H1673 0.930 . S
C1654 C1655 1.474 . S
C1654 C1656 1.285 . S
C1654 H1674 0.929 . S
C1655 C1652 1.461 . S
C1655 C1654 1.474 . S
C1656 C1651 1.342 . S
C1656 C1654 1.285 . S
C1656 H1675 0.930 . S
C1657 C1660 1.424 . S
C1657 C1662 1.245 . S
C1657 C1663 1.428 . S
C1658 C1661 1.260 . S
C1658 C1662 1.477 . S
C1658 H1676 0.932 . S
C1659 C1660 1.384 . S
C1659 C1661 1.479 . S
C1659 H1677 0.929 . S
C1660 C1657 1.424 . S
C1660 C1659 1.384 . S
C1660 H1678 0.928 . S
C1661 C1658 1.260 . S
C1661 C1659 1.479 . S
C1662 C1657 1.245 . S
C1662 C1658 1.477 . S
C1662 H1679 0.932 . S
C1663 U1646 2.882 . S
C1663 C1657 1.428 . S
C1663 O1666 1.301 . S
C1663 O1667 1.282 . S
O1664 U1646 2.441 . S
O1664 C1650 1.249 . S
O1665 U1646 2.420 . S
O1665 C1650 1.202 . S
O1666 U1646 2.455 . S
O1666 C1663 1.301 . S
O1667 U1646 2.449 . S
O1667 C1663 1.282 . S
H1668 C1641 0.931 . S
H1669 C1643 0.929 . S
H1670 C1644 0.930 . S
H1671 C1645 0.931 . S
H1672 C1652 0.932 . S
H1673 C1653 0.930 . S
H1674 C1654 0.929 . S
H1675 C1656 0.930 . S
H1676 C1658 0.932 . S
H1677 C1659 0.929 . S
H1678 C1660 0.928 . S
H1679 C1662 0.932 . S
C1680 C1681 1.264 . S
C1680 C1685 1.479 . S
C1680 C1690 1.465 . S
C1681 C1680 1.264 . S
C1681 C1683 1.339 . S
C1681 H1708 0.931 . S
C1682 C1683 1.395 . S
C1682 C1684 1.320 . S
C1683 C1681 1.339 . S
C1683 C1682 1.395 . S
C1683 H1709 0.929 . S
C1684 C1682 1.320 . S
C1684 C1685 1.405 . S
C1684 H1710 0.930 . S
C1685 C1680 1.479 . S
C1685 C1684 1.405 . S
C1685 H1711 0.931 . S
U1686 O1687 2.454 . S
U1686 O1688 2.458 . S
U1686 C1689 2.984 . S
U1686 C1690 2.847 . S
U1686 C1703 2.882 . S
U1686 O1704 2.441 . S
U1686 O1705 2.420 . S
U1686 O1706 2.455 . S
U1686 O1707 2.449 . S
O1687 U1686 2.454 . S
O1687 C1689 1.353 . S
O1688 U1686 2.458 . S
O1688 C1689 1.286 . S
C1689 U1686 2.984 . S
C1689 O1687 1.353 . S
C1689 O1688 1.286 . S
C1689 C1691 1.363 . S
C1690 C1680 1.465 . S
C1690 U1686 2.847 . S
C1690 O1704 1.249 . S
C1690 O1705 1.202 . S
C1691 C1689 1.363 . S
C1691 C1693 1.408 . S
C1691 C1696 1.342 . S
C1692 C1693 1.310 . S
C1692 C1695 1.461 . S
C1692 H1712 0.932 . S
C1693 C1691 1.408 . S
C1693 C1692 1.310 . S
C1693 H1713 0.930 . S
C1694 C1695 1.474 . S
C1694 C1696 1.285 . S
C1694 H1714 0.929 . S
C1695 C1692 1.461 . S
C1695 C1694 1.474 . S
C1696 C1691 1.342 . S
C1696 C1694 1.285 . S
C1696 H1715 0.930 . S
C1697 C1700 1.424 . S
C1697 C1702 1.245 . S
C1697 C1703 1.428 . S
C1698 C1701 1.260 . S
C1698 C1702 1.477 . S
C1698 H1716 0.932 . S
C1699 C1700 1.384 . S
C1699 C1701 1.479 . S
C1699 H1717 0.929 . S
C1700 C1697 1.424 . S
C1700 C1699 1.384 . S
C1700 H1718 0.928 . S
C1701 C1698 1.260 . S
C1701 C1699 1.479 . S
C1702 C1697 1.245 . S
C1702 C1698 1.477 . S
C1702 H1719 0.932 . S
C1703 U1686 2.882 . S
C1703 C1697 1.428 . S
C1703 O1706 1.301 . S
C1703 O1707 1.282 . S
O1704 U1686 2.441 . S
O1704 C1690 1.249 . S
O1705 U1686 2.420 . S
O1705 C1690 1.202 . S
O1706 U1686 2.455 . S
O1706 C1703 1.301 . S
O1707 U1686 2.449 . S
O1707 C1703 1.282 . S
H1708 C1681 0.931 . S
H1709 C1683 0.929 . S
H1710 C1684 0.930 . S
H1711 C1685 0.931 . S
H1712 C1692 0.932 . S
H1713 C1693 0.930 . S
H1714 C1694 0.929 . S
H1715 C1696 0.930 . S
H1716 C1698 0.932 . S
H1717 C1699 0.929 . S
H1718 C1700 0.928 . S
H1719 C1702 0.932 . S
C1720 C1721 1.264 . S
C1720 C1725 1.479 . S
C1720 C1730 1.465 . S
C1721 C1720 1.264 . S
C1721 C1723 1.339 . S
C1721 H1748 0.931 . S
C1722 C1723 1.395 . S
C1722 C1724 1.320 . S
C1723 C1721 1.339 . S
C1723 C1722 1.395 . S
C1723 H1749 0.929 . S
C1724 C1722 1.320 . S
C1724 C1725 1.405 . S
C1724 H1750 0.930 . S
C1725 C1720 1.479 . S
C1725 C1724 1.405 . S
C1725 H1751 0.931 . S
U1726 O1727 2.454 . S
U1726 O1728 2.458 . S
U1726 C1729 2.984 . S
U1726 C1730 2.847 . S
U1726 C1743 2.882 . S
U1726 O1744 2.441 . S
U1726 O1745 2.420 . S
U1726 O1746 2.455 . S
U1726 O1747 2.449 . S
O1727 U1726 2.454 . S
O1727 C1729 1.353 . S
O1728 U1726 2.458 . S
O1728 C1729 1.286 . S
C1729 U1726 2.984 . S
C1729 O1727 1.353 . S
C1729 O1728 1.286 . S
C1729 C1731 1.363 . S
C1730 C1720 1.465 . S
C1730 U1726 2.847 . S
C1730 O1744 1.249 . S
C1730 O1745 1.202 . S
C1731 C1729 1.363 . S
C1731 C1733 1.408 . S
C1731 C1736 1.342 . S
C1732 C1733 1.310 . S
C1732 C1735 1.461 . S
C1732 H1752 0.932 . S
C1733 C1731 1.408 . S
C1733 C1732 1.310 . S
C1733 H1753 0.930 . S
C1734 C1735 1.474 . S
C1734 C1736 1.285 . S
C1734 H1754 0.929 . S
C1735 C1732 1.461 . S
C1735 C1734 1.474 . S
C1736 C1731 1.342 . S
C1736 C1734 1.285 . S
C1736 H1755 0.930 . S
C1737 C1740 1.424 . S
C1737 C1742 1.245 . S
C1737 C1743 1.428 . S
C1738 C1741 1.260 . S
C1738 C1742 1.477 . S
C1738 H1756 0.932 . S
C1739 C1740 1.384 . S
C1739 C1741 1.479 . S
C1739 H1757 0.929 . S
C1740 C1737 1.424 . S
C1740 C1739 1.384 . S
C1740 H1758 0.928 . S
C1741 C1738 1.260 . S
C1741 C1739 1.479 . S
C1742 C1737 1.245 . S
C1742 C1738 1.477 . S
C1742 H1759 0.932 . S
C1743 U1726 2.882 . S
C1743 C1737 1.428 . S
C1743 O1746 1.301 . S
C1743 O1747 1.282 . S
O1744 U1726 2.441 . S
O1744 C1730 1.249 . S
O1745 U1726 2.420 . S
O1745 C1730 1.202 . S
O1746 U1726 2.455 . S
O1746 C1743 1.301 . S
O1747 U1726 2.449 . S
O1747 C1743 1.282 . S
H1748 C1721 0.931 . S
H1749 C1723 0.929 . S
H1750 C1724 0.930 . S
H1751 C1725 0.931 . S
H1752 C1732 0.932 . S
H1753 C1733 0.930 . S
H1754 C1734 0.929 . S
H1755 C1736 0.930 . S
H1756 C1738 0.932 . S
H1757 C1739 0.929 . S
H1758 C1740 0.928 . S
H1759 C1742 0.932 . S
C1760 C1761 1.264 . S
C1760 C1765 1.479 . S
C1760 C1770 1.465 . S
C1761 C1760 1.264 . S
C1761 C1763 1.339 . S
C1761 H1788 0.931 . S
C1762 C1763 1.395 . S
C1762 C1764 1.320 . S
C1763 C1761 1.339 . S
C1763 C1762 1.395 . S
C1763 H1789 0.929 . S
C1764 C1762 1.320 . S
C1764 C1765 1.405 . S
C1764 H1790 0.930 . S
C1765 C1760 1.479 . S
C1765 C1764 1.405 . S
C1765 H1791 0.931 . S
U1766 O1767 2.454 . S
U1766 O1768 2.458 . S
U1766 C1769 2.984 . S
U1766 C1770 2.847 . S
U1766 C1783 2.882 . S
U1766 O1784 2.441 . S
U1766 O1785 2.420 . S
U1766 O1786 2.455 . S
U1766 O1787 2.449 . S
O1767 U1766 2.454 . S
O1767 C1769 1.353 . S
O1768 U1766 2.458 . S
O1768 C1769 1.286 . S
C1769 U1766 2.984 . S
C1769 O1767 1.353 . S
C1769 O1768 1.286 . S
C1769 C1771 1.363 . S
C1770 C1760 1.465 . S
C1770 U1766 2.847 . S
C1770 O1784 1.249 . S
C1770 O1785 1.202 . S
C1771 C1769 1.363 . S
C1771 C1773 1.408 . S
C1771 C1776 1.342 . S
C1772 C1773 1.310 . S
C1772 C1775 1.461 . S
C1772 H1792 0.932 . S
C1773 C1771 1.408 . S
C1773 C1772 1.310 . S
C1773 H1793 0.930 . S
C1774 C1775 1.474 . S
C1774 C1776 1.285 . S
C1774 H1794 0.929 . S
C1775 C1772 1.461 . S
C1775 C1774 1.474 . S
C1776 C1771 1.342 . S
C1776 C1774 1.285 . S
C1776 H1795 0.930 . S
C1777 C1780 1.424 . S
C1777 C1782 1.245 . S
C1777 C1783 1.428 . S
C1778 C1781 1.260 . S
C1778 C1782 1.477 . S
C1778 H1796 0.932 . S
C1779 C1780 1.384 . S
C1779 C1781 1.479 . S
C1779 H1797 0.899 1_655 S
C1780 C1777 1.424 . S
C1780 C1779 1.384 . S
C1780 H1798 0.928 . S
C1781 C1778 1.260 . S
C1781 C1779 1.479 . S
C1782 C1777 1.245 . S
C1782 C1778 1.477 . S
C1782 H1799 0.932 . S
C1783 U1766 2.882 . S
C1783 C1777 1.428 . S
C1783 O1786 1.301 . S
C1783 O1787 1.282 . S
O1784 U1766 2.441 . S
O1784 C1770 1.249 . S
O1785 U1766 2.420 . S
O1785 C1770 1.202 . S
O1786 U1766 2.455 . S
O1786 C1783 1.301 . S
O1787 U1766 2.449 . S
O1787 C1783 1.282 . S
H1788 C1761 0.931 . S
H1789 C1763 0.929 . S
H1790 C1764 0.930 . S
H1791 C1765 0.931 . S
H1792 C1772 0.932 . S
H1793 C1773 0.930 . S
H1794 C1774 0.929 . S
H1795 C1776 0.930 . S
H1796 C1778 0.932 . S
H1797 C1779 0.899 1_455 S
H1798 C1780 0.928 . S
H1799 C1782 0.932 . S
C1800 C1801 1.264 . S
C1800 C1805 1.479 . S
C1800 C1810 1.465 . S
C1801 C1800 1.264 . S
C1801 C1803 1.339 . S
C1801 H1828 0.931 . S
C1802 C1803 1.395 . S
C1802 C1804 1.320 . S
C1803 C1801 1.339 . S
C1803 C1802 1.395 . S
C1803 H1829 0.929 . S
C1804 C1802 1.320 . S
C1804 C1805 1.405 . S
C1804 H1830 0.930 . S
C1805 C1800 1.479 . S
C1805 C1804 1.405 . S
C1805 H1831 0.931 . S
U1806 O1807 2.456 1_554 S
U1806 O1808 2.461 1_554 S
U1806 C1809 2.987 1_554 S
U1806 C1810 2.844 . S
U1806 C1823 2.883 1_554 S
U1806 O1824 2.439 . S
U1806 O1825 2.417 . S
U1806 O1826 2.457 1_554 S
U1806 O1827 2.448 . S
O1807 U1806 2.456 1_556 S
O1807 C1809 1.353 . S
O1808 U1806 2.461 1_556 S
O1808 C1809 1.286 . S
C1809 U1806 2.987 1_556 S
C1809 O1807 1.353 . S
C1809 O1808 1.286 . S
C1809 C1811 1.363 . S
C1810 C1800 1.465 . S
C1810 U1806 2.844 . S
C1810 O1824 1.249 . S
C1810 O1825 1.202 . S
C1811 C1809 1.363 . S
C1811 C1813 1.408 . S
C1811 C1816 1.342 . S
C1812 C1813 1.310 . S
C1812 C1815 1.461 . S
C1812 H1832 0.932 . S
C1813 C1811 1.408 . S
C1813 C1812 1.310 . S
C1813 H1833 0.930 . S
C1814 C1815 1.474 . S
C1814 C1816 1.285 . S
C1814 H1834 0.929 . S
C1815 C1812 1.461 . S
C1815 C1814 1.474 . S
C1816 C1811 1.342 . S
C1816 C1814 1.285 . S
C1816 H1835 0.930 . S
C1817 C1820 1.424 1_556 S
C1817 C1822 1.245 . S
C1817 C1823 1.428 . S
C1818 C1821 1.260 . S
C1818 C1822 1.477 . S
C1818 H1836 0.932 . S
C1819 C1820 1.384 . S
C1819 C1821 1.479 1_554 S
C1819 H1837 0.929 . S
C1820 C1817 1.424 1_554 S
C1820 C1819 1.384 . S
C1820 H1838 0.928 . S
C1821 C1818 1.260 . S
C1821 C1819 1.479 1_556 S
C1822 C1817 1.245 . S
C1822 C1818 1.477 . S
C1822 H1839 0.932 . S
C1823 U1806 2.883 1_556 S
C1823 C1817 1.428 . S
C1823 O1826 1.301 . S
C1823 O1827 1.282 1_556 S
O1824 U1806 2.439 . S
O1824 C1810 1.249 . S
O1825 U1806 2.417 . S
O1825 C1810 1.202 . S
O1826 U1806 2.457 1_556 S
O1826 C1823 1.301 . S
O1827 U1806 2.448 . S
O1827 C1823 1.282 1_554 S
H1828 C1801 0.931 . S
H1829 C1803 0.929 . S
H1830 C1804 0.930 . S
H1831 C1805 0.931 . S
H1832 C1812 0.932 . S
H1833 C1813 0.930 . S
H1834 C1814 0.929 . S
H1835 C1816 0.930 . S
H1836 C1818 0.932 . S
H1837 C1819 0.929 . S
H1838 C1820 0.928 . S
H1839 C1822 0.932 . S
C1840 C1841 1.264 . S
C1840 C1845 1.479 . S
C1840 C1850 1.465 . S
C1841 C1840 1.264 . S
C1841 C1843 1.339 . S
C1841 H1868 0.931 . S
C1842 C1843 1.395 . S
C1842 C1844 1.320 . S
C1843 C1841 1.339 . S
C1843 C1842 1.395 . S
C1843 H1869 0.929 . S
C1844 C1842 1.320 . S
C1844 C1845 1.405 . S
C1844 H1870 0.930 . S
C1845 C1840 1.479 . S
C1845 C1844 1.405 . S
C1845 H1871 0.931 . S
U1846 O1847 2.438 1_545 S
U1846 O1848 2.458 1_545 S
U1846 C1849 2.984 1_545 S
U1846 C1850 2.847 . S
U1846 C1863 2.882 1_545 S
U1846 O1864 2.441 . S
U1846 O1865 2.420 . S
U1846 O1866 2.455 1_545 S
U1846 O1867 2.449 . S
O1847 U1846 2.438 1_565 S
O1847 C1849 1.421 . S
O1848 U1846 2.458 1_565 S
O1848 C1849 1.286 . S
C1849 U1846 2.984 1_565 S
C1849 O1847 1.421 . S
C1849 O1848 1.286 . S
C1849 C1851 1.363 . S
C1850 C1840 1.465 . S
C1850 U1846 2.847 . S
C1850 O1864 1.249 . S
C1850 O1865 1.202 . S
C1851 C1849 1.363 . S
C1851 C1853 1.408 . S
C1851 C1856 1.342 . S
C1852 C1853 1.310 . S
C1852 C1855 1.461 . S
C1852 H1872 0.932 . S
C1853 C1851 1.408 . S
C1853 C1852 1.310 . S
C1853 H1873 0.930 . S
C1854 C1855 1.474 . S
C1854 C1856 1.285 . S
C1854 H1874 0.929 . S
C1855 C1852 1.461 . S
C1855 C1854 1.474 . S
C1856 C1851 1.342 . S
C1856 C1854 1.285 . S
C1856 H1875 0.930 . S
C1857 C1860 1.424 . S
C1857 C1862 1.245 . S
C1857 C1863 1.428 . S
C1858 C1861 1.260 . S
C1858 C1862 1.477 . S
C1858 H1876 0.932 . S
C1859 C1860 1.384 . S
C1859 C1861 1.479 . S
C1859 H1877 0.929 . S
C1860 C1857 1.424 . S
C1860 C1859 1.384 . S
C1860 H1878 0.886 1_565 S
C1861 C1858 1.260 . S
C1861 C1859 1.479 . S
C1862 C1857 1.245 . S
C1862 C1858 1.477 . S
C1862 H1879 0.932 . S
C1863 U1846 2.882 1_565 S
C1863 C1857 1.428 . S
C1863 O1866 1.301 . S
C1863 O1867 1.282 1_565 S
O1864 U1846 2.441 . S
O1864 C1850 1.249 . S
O1865 U1846 2.420 . S
O1865 C1850 1.202 . S
O1866 U1846 2.455 1_565 S
O1866 C1863 1.301 . S
O1867 U1846 2.449 . S
O1867 C1863 1.282 1_545 S
H1868 C1841 0.931 . S
H1869 C1843 0.929 . S
H1870 C1844 0.930 . S
H1871 C1845 0.931 . S
H1872 C1852 0.932 . S
H1873 C1853 0.930 . S
H1874 C1854 0.929 . S
H1875 C1856 0.930 . S
H1876 C1858 0.932 . S
H1877 C1859 0.929 . S
H1878 C1860 0.886 1_545 S
H1879 C1862 0.932 . S
C1880 C1881 1.264 . S
C1880 C1885 1.479 . S
C1880 C1890 1.465 . S
C1881 C1880 1.264 . S
C1881 C1883 1.339 . S
C1881 H1908 0.931 . S
C1882 C1883 1.395 . S
C1882 C1884 1.320 . S
C1883 C1881 1.339 . S
C1883 C1882 1.395 . S
C1883 H1909 0.929 . S
C1884 C1882 1.320 . S
C1884 C1885 1.405 . S
C1884 H1910 0.930 . S
C1885 C1880 1.479 . S
C1885 C1884 1.405 . S
C1885 H1911 0.931 . S
U1886 O1887 2.454 . S
U1886 O1888 2.458 . S
U1886 C1889 2.984 . S
U1886 C1890 2.847 . S
U1886 C1903 2.882 . S
U1886 O1904 2.441 . S
U1886 O1905 2.420 . S
U1886 O1906 2.455 . S
U1886 O1907 2.449 . S
O1887 U1886 2.454 . S
O1887 C1889 1.353 . S
O1888 U1886 2.458 . S
O1888 C1889 1.286 . S
C1889 U1886 2.984 . S
C1889 O1887 1.353 . S
C1889 O1888 1.286 . S
C1889 C1891 1.363 . S
C1890 C1880 1.465 . S
C1890 U1886 2.847 . S
C1890 O1904 1.249 . S
C1890 O1905 1.202 . S
C1891 C1889 1.363 . S
C1891 C1893 1.408 . S
C1891 C1896 1.342 . S
C1892 C1893 1.310 . S
C1892 C1895 1.461 . S
C1892 H1912 0.932 . S
C1893 C1891 1.408 . S
C1893 C1892 1.310 . S
C1893 H1913 0.930 . S
C1894 C1895 1.474 . S
C1894 C1896 1.285 . S
C1894 H1914 0.929 . S
C1895 C1892 1.461 . S
C1895 C1894 1.474 . S
C1896 C1891 1.342 . S
C1896 C1894 1.285 . S
C1896 H1915 0.930 . S
C1897 C1900 1.424 . S
C1897 C1902 1.245 . S
C1897 C1903 1.428 . S
C1898 C1901 1.260 . S
C1898 C1902 1.477 . S
C1898 H1916 0.932 . S
C1899 C1900 1.384 . S
C1899 C1901 1.479 . S
C1899 H1917 0.929 . S
C1900 C1897 1.424 . S
C1900 C1899 1.384 . S
C1900 H1918 0.928 . S
C1901 C1898 1.260 . S
C1901 C1899 1.479 . S
C1902 C1897 1.245 . S
C1902 C1898 1.477 . S
C1902 H1919 0.932 . S
C1903 U1886 2.882 . S
C1903 C1897 1.428 . S
C1903 O1906 1.301 . S
C1903 O1907 1.282 . S
O1904 U1886 2.441 . S
O1904 C1890 1.249 . S
O1905 U1886 2.420 . S
O1905 C1890 1.202 . S
O1906 U1886 2.455 . S
O1906 C1903 1.301 . S
O1907 U1886 2.449 . S
O1907 C1903 1.282 . S
H1908 C1881 0.931 . S
H1909 C1883 0.929 . S
H1910 C1884 0.930 . S
H1911 C1885 0.931 . S
H1912 C1892 0.932 . S
H1913 C1893 0.930 . S
H1914 C1894 0.929 . S
H1915 C1896 0.930 . S
H1916 C1898 0.932 . S
H1917 C1899 0.929 . S
H1918 C1900 0.928 . S
H1919 C1902 0.932 . S
H1920 C1928 0.929 . S
H1921 C1930 0.930 . S
H1922 C1932 0.930 . S
H1923 C1935 0.929 . S
H1924 C1938 0.930 . S
H1925 C1940 0.960 . S
H1926 C1940 0.960 . S
H1927 C1940 0.960 . S
C1928 H1920 0.929 . S
C1928 C1929 1.377 . S
C1928 C1930 1.384 . S
C1929 C1928 1.377 . S
C1929 C1935 1.390 . S
C1930 H1921 0.930 . S
C1930 C1928 1.384 . S
C1930 C1931 1.372 . S
C1931 C1930 1.372 . S
C1931 C1932 1.400 . S
C1931 C1936 1.490 . S
C1932 H1922 0.930 . S
C1932 C1931 1.400 . S
C1932 C1935 1.386 . S
H1933 C1949 0.930 . S
H1934 C1950 0.931 . S
C1935 H1923 0.929 . S
C1935 C1929 1.390 . S
C1935 C1932 1.386 . S
C1936 C1931 1.490 . S
C1936 C1938 1.395 . S
C1936 C1939 1.403 . S
H1937 C1943 0.930 . S
C1938 H1924 0.930 . S
C1938 C1936 1.395 . S
C1938 C1941 1.403 . S
C1939 C1936 1.403 . S
C1939 C1940 1.524 . S
C1939 C1943 1.400 . S
C1940 H1925 0.960 . S
C1940 H1926 0.960 . S
C1940 H1927 0.960 . S
C1940 C1939 1.524 . S
C1941 C1938 1.403 . S
C1941 C1942 1.392 . S
C1941 C1945 1.495 . S
C1942 C1941 1.392 . S
C1942 C1943 1.385 . S
C1942 C1944 1.478 . S
C1943 H1937 0.930 . S
C1943 C1939 1.400 . S
C1943 C1942 1.385 . S
C1944 C1942 1.478 . S
C1944 C1946 1.381 . S
C1944 C1950 1.383 . S
C1945 C1941 1.495 . S
C1945 H1951 0.959 . S
C1945 H1952 0.961 . S
C1945 H1953 0.960 . S
C1946 C1944 1.381 . S
C1946 C1947 1.394 . S
C1946 H1954 0.930 . S
C1947 C1946 1.394 . S
C1947 C1948 1.383 . S
C1947 H1955 0.929 . S
C1948 C1947 1.383 . S
C1948 C1949 1.377 . S
C1949 H1933 0.930 . S
C1949 C1948 1.377 . S
C1949 C1950 1.379 . S
C1950 H1934 0.931 . S
C1950 C1944 1.383 . S
C1950 C1949 1.379 . S
H1951 C1945 0.959 . S
H1952 C1945 0.961 . S
H1953 C1945 0.960 . S
H1954 C1946 0.930 . S
H1955 C1947 0.929 . S
H1956 C1964 0.929 . S
H1957 C1966 0.930 . S
H1958 C1968 0.920 1_545 S
H1959 C1971 0.929 . S
H1960 C1974 0.930 . S
H1961 C1976 0.960 . S
H1962 C1976 0.960 . S
H1963 C1976 0.960 . S
C1964 H1956 0.929 . S
C1964 C1965 1.377 . S
C1964 C1966 1.384 . S
C1965 C1964 1.377 . S
C1965 C1971 1.390 1_565 S
C1966 H1957 0.930 . S
C1966 C1964 1.384 . S
C1966 C1967 1.372 . S
C1967 C1966 1.372 . S
C1967 C1968 1.414 . S
C1967 C1972 1.490 . S
C1968 H1958 0.920 1_565 S
C1968 C1967 1.414 . S
C1968 C1971 1.382 1_565 S
H1969 C1985 0.930 . S
H1970 C1986 0.931 . S
C1971 H1959 0.929 . S
C1971 C1965 1.390 1_545 S
C1971 C1968 1.382 1_545 S
C1972 C1967 1.490 . S
C1972 C1974 1.395 . S
C1972 C1975 1.403 1_565 S
H1973 C1979 0.883 1_545 S
C1974 H1960 0.930 . S
C1974 C1972 1.395 . S
C1974 C1977 1.403 . S
C1975 C1972 1.403 1_545 S
C1975 C1976 1.524 . S
C1975 C1979 1.388 1_545 S
C1976 H1961 0.960 . S
C1976 H1962 0.960 . S
C1976 H1963 0.960 . S
C1976 C1975 1.524 . S
C1977 C1974 1.403 . S
C1977 C1978 1.392 . S
C1977 C1981 1.495 . S
C1978 C1977 1.392 . S
C1978 C1979 1.444 . S
C1978 C1980 1.478 . S
C1979 H1973 0.883 1_565 S
C1979 C1975 1.388 1_565 S
C1979 C1978 1.444 . S
C1980 C1978 1.478 . S
C1980 C1982 1.381 . S
C1980 C1986 1.383 . S
C1981 C1977 1.495 . S
C1981 H1987 0.959 . S
C1981 H1988 0.961 . S
C1981 H1989 0.960 . S
C1982 C1980 1.381 . S
C1982 C1983 1.394 . S
C1982 H1990 0.930 . S
C1983 C1982 1.394 . S
C1983 C1984 1.383 . S
C1983 H1991 0.929 . S
C1984 C1983 1.383 . S
C1984 C1985 1.377 . S
C1985 H1969 0.930 . S
C1985 C1984 1.377 . S
C1985 C1986 1.379 . S
C1986 H1970 0.931 . S
C1986 C1980 1.383 . S
C1986 C1985 1.379 . S
H1987 C1981 0.959 . S
H1988 C1981 0.961 . S
H1989 C1981 0.960 . S
H1990 C1982 0.930 . S
H1991 C1983 0.929 . S
H1992 C2000 0.929 . S
H1993 C2002 0.930 . S
H1994 C2004 0.930 . S
H1995 C2007 0.929 . S
H1996 C2010 0.930 . S
H1997 C2012 0.960 . S
H1998 C2012 0.960 . S
H1999 C2012 0.960 1_556 S
C2000 H1992 0.929 . S
C2000 C2001 1.377 . S
C2000 C2002 1.384 . S
C2001 C2000 1.377 . S
C2001 C2007 1.390 1_554 S
C2002 H1993 0.930 . S
C2002 C2000 1.384 . S
C2002 C2003 1.372 . S
C2003 C2002 1.372 . S
C2003 C2004 1.400 1_554 S
C2003 C2008 1.490 . S
C2004 H1994 0.930 . S
C2004 C2003 1.400 1_556 S
C2004 C2007 1.386 . S
H2005 C2021 0.930 . S
H2006 C2022 0.931 . S
C2007 H1995 0.929 . S
C2007 C2001 1.390 1_556 S
C2007 C2004 1.386 . S
C2008 C2003 1.490 . S
C2008 C2010 1.395 . S
C2008 C2011 1.403 . S
H2009 C2015 0.930 . S
C2010 H1996 0.930 . S
C2010 C2008 1.395 . S
C2010 C2013 1.403 . S
C2011 C2008 1.403 . S
C2011 C2012 1.524 . S
C2011 C2015 1.400 . S
C2012 H1997 0.960 . S
C2012 H1998 0.960 . S
C2012 H1999 0.960 1_554 S
C2012 C2011 1.524 . S
C2013 C2010 1.403 . S
C2013 C2014 1.392 . S
C2013 C2017 1.495 . S
C2014 C2013 1.392 . S
C2014 C2015 1.385 . S
C2014 C2016 1.478 . S
C2015 H2009 0.930 . S
C2015 C2011 1.400 . S
C2015 C2014 1.385 . S
C2016 C2014 1.478 . S
C2016 C2018 1.381 . S
C2016 C2022 1.383 1_554 S
C2017 C2013 1.495 . S
C2017 H2023 0.959 . S
C2017 H2024 0.958 . S
C2017 H2025 0.960 . S
C2018 C2016 1.381 . S
C2018 C2019 1.394 . S
C2018 H2026 0.930 . S
C2019 C2018 1.394 . S
C2019 C2020 1.383 . S
C2019 H2027 0.929 . S
C2020 C2019 1.383 . S
C2020 C2021 1.377 1_554 S
C2021 H2005 0.930 . S
C2021 C2020 1.377 1_556 S
C2021 C2022 1.379 . S
C2022 H2006 0.931 . S
C2022 C2016 1.383 1_556 S
C2022 C2021 1.379 . S
H2023 C2017 0.959 . S
H2024 C2017 0.958 . S
H2025 C2017 0.960 . S
H2026 C2018 0.930 . S
H2027 C2019 0.929 . S
H2028 C2036 0.929 . S
H2029 C2038 0.930 . S
H2030 C2040 0.930 . S
H2031 C2043 0.929 . S
H2032 C2046 0.930 . S
H2033 C2048 0.960 . S
H2034 C2048 0.960 . S
H2035 C2048 0.960 . S
C2036 H2028 0.929 . S
C2036 C2037 1.377 . S
C2036 C2038 1.384 . S
C2037 C2036 1.377 . S
C2037 C2043 1.390 . S
C2038 H2029 0.930 . S
C2038 C2036 1.384 . S
C2038 C2039 1.372 . S
C2039 C2038 1.372 . S
C2039 C2040 1.400 . S
C2039 C2044 1.490 . S
C2040 H2030 0.930 . S
C2040 C2039 1.400 . S
C2040 C2043 1.386 . S
H2041 C2057 0.930 . S
H2042 C2058 0.931 . S
C2043 H2031 0.929 . S
C2043 C2037 1.390 . S
C2043 C2040 1.386 . S
C2044 C2039 1.490 . S
C2044 C2046 1.395 . S
C2044 C2047 1.403 . S
H2045 C2051 0.930 . S
C2046 H2032 0.930 . S
C2046 C2044 1.395 . S
C2046 C2049 1.403 . S
C2047 C2044 1.403 . S
C2047 C2048 1.524 . S
C2047 C2051 1.400 . S
C2048 H2033 0.960 . S
C2048 H2034 0.960 . S
C2048 H2035 0.960 . S
C2048 C2047 1.524 . S
C2049 C2046 1.403 . S
C2049 C2050 1.392 . S
C2049 C2053 1.495 . S
C2050 C2049 1.392 . S
C2050 C2051 1.385 . S
C2050 C2052 1.478 . S
C2051 H2045 0.930 . S
C2051 C2047 1.400 . S
C2051 C2050 1.385 . S
C2052 C2050 1.478 . S
C2052 C2054 1.381 . S
C2052 C2058 1.383 . S
C2053 C2049 1.495 . S
C2053 H2059 0.959 . S
C2053 H2060 0.961 . S
C2053 H2061 0.960 . S
C2054 C2052 1.381 . S
C2054 C2055 1.394 . S
C2054 H2062 0.930 . S
C2055 C2054 1.394 . S
C2055 C2056 1.383 . S
C2055 H2063 0.929 . S
C2056 C2055 1.383 . S
C2056 C2057 1.377 . S
C2057 H2041 0.930 . S
C2057 C2056 1.377 . S
C2057 C2058 1.379 . S
C2058 H2042 0.931 . S
C2058 C2052 1.383 . S
C2058 C2057 1.379 . S
H2059 C2053 0.959 . S
H2060 C2053 0.961 . S
H2061 C2053 0.960 . S
H2062 C2054 0.930 . S
H2063 C2055 0.929 . S
H2064 C2072 0.929 . S
H2065 C2074 0.930 . S
H2066 C2076 0.930 . S
H2067 C2079 0.929 . S
H2068 C2082 0.930 . S
H2069 C2084 0.960 . S
H2070 C2084 0.960 . S
H2071 C2084 0.960 . S
C2072 H2064 0.929 . S
C2072 C2073 1.377 . S
C2072 C2074 1.384 . S
C2073 C2072 1.377 . S
C2073 C2079 1.390 . S
C2074 H2065 0.930 . S
C2074 C2072 1.384 . S
C2074 C2075 1.372 . S
C2075 C2074 1.372 . S
C2075 C2076 1.400 . S
C2075 C2080 1.490 . S
C2076 H2066 0.930 . S
C2076 C2075 1.400 . S
C2076 C2079 1.386 . S
H2077 C2093 0.930 . S
H2078 C2094 0.931 . S
C2079 H2067 0.929 . S
C2079 C2073 1.390 . S
C2079 C2076 1.386 . S
C2080 C2075 1.490 . S
C2080 C2082 1.395 . S
C2080 C2083 1.403 . S
H2081 C2087 0.930 . S
C2082 H2068 0.930 . S
C2082 C2080 1.395 . S
C2082 C2085 1.403 . S
C2083 C2080 1.403 . S
C2083 C2084 1.524 . S
C2083 C2087 1.400 . S
C2084 H2069 0.960 . S
C2084 H2070 0.960 . S
C2084 H2071 0.960 . S
C2084 C2083 1.524 . S
C2085 C2082 1.403 . S
C2085 C2086 1.392 . S
C2085 C2089 1.495 . S
C2086 C2085 1.392 . S
C2086 C2087 1.385 . S
C2086 C2088 1.478 . S
C2087 H2081 0.930 . S
C2087 C2083 1.400 . S
C2087 C2086 1.385 . S
C2088 C2086 1.478 . S
C2088 C2090 1.381 . S
C2088 C2094 1.383 . S
C2089 C2085 1.495 . S
C2089 H2095 0.959 . S
C2089 H2096 0.961 . S
C2089 H2097 0.960 . S
C2090 C2088 1.381 . S
C2090 C2091 1.394 . S
C2090 H2098 0.930 . S
C2091 C2090 1.394 . S
C2091 C2092 1.383 . S
C2091 H2099 0.929 . S
C2092 C2091 1.383 . S
C2092 C2093 1.377 . S
C2093 H2077 0.930 . S
C2093 C2092 1.377 . S
C2093 C2094 1.379 . S
C2094 H2078 0.931 . S
C2094 C2088 1.383 . S
C2094 C2093 1.379 . S
H2095 C2089 0.959 . S
H2096 C2089 0.961 . S
H2097 C2089 0.960 . S
H2098 C2090 0.930 . S
H2099 C2091 0.929 . S
H2100 C2108 0.929 . S
H2101 C2110 0.930 . S
H2102 C2112 0.930 . S
H2103 C2115 0.929 . S
H2104 C2118 0.930 . S
H2105 C2120 0.960 . S
H2106 C2120 0.960 . S
H2107 C2120 0.960 . S
C2108 H2100 0.929 . S
C2108 C2109 1.377 . S
C2108 C2110 1.384 . S
C2109 C2108 1.377 . S
C2109 C2115 1.390 1_545 S
C2110 H2101 0.930 . S
C2110 C2108 1.384 . S
C2110 C2111 1.372 . S
C2111 C2110 1.372 . S
C2111 C2112 1.400 1_545 S
C2111 C2116 1.490 . S
C2112 H2102 0.930 . S
C2112 C2111 1.400 1_565 S
C2112 C2115 1.386 . S
H2113 C2129 0.930 . S
H2114 C2130 0.931 . S
C2115 H2103 0.929 . S
C2115 C2109 1.390 1_565 S
C2115 C2112 1.386 . S
C2116 C2111 1.490 . S
C2116 C2118 1.395 . S
C2116 C2119 1.403 1_545 S
H2117 C2123 0.930 . S
C2118 H2104 0.930 . S
C2118 C2116 1.395 . S
C2118 C2121 1.403 . S
C2119 C2116 1.403 1_565 S
C2119 C2120 1.524 . S
C2119 C2123 1.400 . S
C2120 H2105 0.960 . S
C2120 H2106 0.960 . S
C2120 H2107 0.960 . S
C2120 C2119 1.524 . S
C2121 C2118 1.403 . S
C2121 C2122 1.392 . S
C2121 C2125 1.495 . S
C2122 C2121 1.392 . S
C2122 C2123 1.385 1_545 S
C2122 C2124 1.478 . S
C2123 H2117 0.930 . S
C2123 C2119 1.400 . S
C2123 C2122 1.385 1_565 S
C2124 C2122 1.478 . S
C2124 C2126 1.381 . S
C2124 C2130 1.383 1_545 S
C2125 C2121 1.495 . S
C2125 H2131 0.959 . S
C2125 H2132 0.961 . S
C2125 H2133 0.960 . S
C2126 C2124 1.381 . S
C2126 C2127 1.394 . S
C2126 H2134 0.930 . S
C2127 C2126 1.394 . S
C2127 C2128 1.383 . S
C2127 H2135 0.929 . S
C2128 C2127 1.383 . S
C2128 C2129 1.377 1_545 S
C2129 H2113 0.930 . S
C2129 C2128 1.377 1_565 S
C2129 C2130 1.379 . S
C2130 H2114 0.931 . S
C2130 C2124 1.383 1_565 S
C2130 C2129 1.379 . S
H2131 C2125 0.959 . S
H2132 C2125 0.961 . S
H2133 C2125 0.960 . S
H2134 C2126 0.930 . S
H2135 C2127 0.929 . S
H2136 C2144 0.929 . S
H2137 C2146 0.930 . S
H2138 C2148 0.930 . S
H2139 C2151 0.929 . S
H2140 C2154 0.930 . S
H2141 C2156 0.960 . S
H2142 C2156 0.960 . S
H2143 C2156 0.960 . S
C2144 H2136 0.929 . S
C2144 C2145 1.377 . S
C2144 C2146 1.384 . S
C2145 C2144 1.377 . S
C2145 C2151 1.390 . S
C2146 H2137 0.930 . S
C2146 C2144 1.384 . S
C2146 C2147 1.372 . S
C2147 C2146 1.372 . S
C2147 C2148 1.400 . S
C2147 C2152 1.490 . S
C2148 H2138 0.930 . S
C2148 C2147 1.400 . S
C2148 C2151 1.386 . S
H2149 C2165 0.930 . S
H2150 C2166 0.931 . S
C2151 H2139 0.929 . S
C2151 C2145 1.390 . S
C2151 C2148 1.386 . S
C2152 C2147 1.490 . S
C2152 C2154 1.395 . S
C2152 C2155 1.403 . S
H2153 C2159 0.930 . S
C2154 H2140 0.930 . S
C2154 C2152 1.395 . S
C2154 C2157 1.403 . S
C2155 C2152 1.403 . S
C2155 C2156 1.524 . S
C2155 C2159 1.400 . S
C2156 H2141 0.960 . S
C2156 H2142 0.960 . S
C2156 H2143 0.960 . S
C2156 C2155 1.524 . S
C2157 C2154 1.403 . S
C2157 C2158 1.392 . S
C2157 C2161 1.495 . S
C2158 C2157 1.392 . S
C2158 C2159 1.385 . S
C2158 C2160 1.478 . S
C2159 H2153 0.930 . S
C2159 C2155 1.400 . S
C2159 C2158 1.385 . S
C2160 C2158 1.478 . S
C2160 C2162 1.381 . S
C2160 C2166 1.383 . S
C2161 C2157 1.495 . S
C2161 H2167 0.959 . S
C2161 H2168 0.961 . S
C2161 H2169 0.960 . S
C2162 C2160 1.381 . S
C2162 C2163 1.394 . S
C2162 H2170 0.930 . S
C2163 C2162 1.394 . S
C2163 C2164 1.383 . S
C2163 H2171 0.929 . S
C2164 C2163 1.383 . S
C2164 C2165 1.377 . S
C2165 H2149 0.930 . S
C2165 C2164 1.377 . S
C2165 C2166 1.379 . S
C2166 H2150 0.931 . S
C2166 C2160 1.383 . S
C2166 C2165 1.379 . S
H2167 C2161 0.959 . S
H2168 C2161 0.961 . S
H2169 C2161 0.960 . S
H2170 C2162 0.930 . S
H2171 C2163 0.929 . S
H2172 C2180 0.929 . S
H2173 C2182 0.930 . S
H2174 C2184 0.930 . S
H2175 C2187 0.929 . S
H2176 C2190 0.930 . S
H2177 C2192 0.960 . S
H2178 C2192 0.960 . S
H2179 C2192 0.960 . S
C2180 H2172 0.929 . S
C2180 C2181 1.377 . S
C2180 C2182 1.384 . S
C2181 C2180 1.377 . S
C2181 C2187 1.390 . S
C2182 H2173 0.930 . S
C2182 C2180 1.384 . S
C2182 C2183 1.372 . S
C2183 C2182 1.372 . S
C2183 C2184 1.400 . S
C2183 C2188 1.490 . S
C2184 H2174 0.930 . S
C2184 C2183 1.400 . S
C2184 C2187 1.386 . S
H2185 C2201 0.930 . S
H2186 C2202 0.931 . S
C2187 H2175 0.929 . S
C2187 C2181 1.390 . S
C2187 C2184 1.386 . S
C2188 C2183 1.490 . S
C2188 C2190 1.395 . S
C2188 C2191 1.403 . S
H2189 C2195 0.930 . S
C2190 H2176 0.930 . S
C2190 C2188 1.395 . S
C2190 C2193 1.403 . S
C2191 C2188 1.403 . S
C2191 C2192 1.524 . S
C2191 C2195 1.400 . S
C2192 H2177 0.960 . S
C2192 H2178 0.960 . S
C2192 H2179 0.960 . S
C2192 C2191 1.524 . S
C2193 C2190 1.403 . S
C2193 C2194 1.392 . S
C2193 C2197 1.495 . S
C2194 C2193 1.392 . S
C2194 C2195 1.385 . S
C2194 C2196 1.478 . S
C2195 H2189 0.930 . S
C2195 C2191 1.400 . S
C2195 C2194 1.385 . S
C2196 C2194 1.478 . S
C2196 C2198 1.381 . S
C2196 C2202 1.383 . S
C2197 C2193 1.495 . S
C2197 H2203 0.959 . S
C2197 H2204 0.961 . S
C2197 H2205 0.960 . S
C2198 C2196 1.381 . S
C2198 C2199 1.394 . S
C2198 H2206 0.930 . S
C2199 C2198 1.394 . S
C2199 C2200 1.383 . S
C2199 H2207 0.929 . S
C2200 C2199 1.383 . S
C2200 C2201 1.377 . S
C2201 H2185 0.930 . S
C2201 C2200 1.377 . S
C2201 C2202 1.379 . S
C2202 H2186 0.931 . S
C2202 C2196 1.383 . S
C2202 C2201 1.379 . S
H2203 C2197 0.959 . S
H2204 C2197 0.961 . S
H2205 C2197 0.960 . S
H2206 C2198 0.930 . S
H2207 C2199 0.929 . S
H2208 C2216 0.929 . S
H2209 C2218 0.930 . S
H2210 C2220 0.930 . S
H2211 C2223 0.929 . S
H2212 C2226 0.930 . S
H2213 C2228 0.960 . S
H2214 C2228 0.960 . S
H2215 C2228 0.960 . S
C2216 H2208 0.929 . S
C2216 C2217 1.377 . S
C2216 C2218 1.384 . S
C2217 C2216 1.377 . S
C2217 C2223 1.390 . S
C2218 H2209 0.930 . S
C2218 C2216 1.384 . S
C2218 C2219 1.372 . S
C2219 C2218 1.372 . S
C2219 C2220 1.400 . S
C2219 C2224 1.490 . S
C2220 H2210 0.930 . S
C2220 C2219 1.400 . S
C2220 C2223 1.386 . S
H2221 C2237 0.930 . S
H2222 C2238 0.931 . S
C2223 H2211 0.929 . S
C2223 C2217 1.390 . S
C2223 C2220 1.386 . S
C2224 C2219 1.490 . S
C2224 C2226 1.395 . S
C2224 C2227 1.403 . S
H2225 C2231 0.930 . S
C2226 H2212 0.930 . S
C2226 C2224 1.395 . S
C2226 C2229 1.403 . S
C2227 C2224 1.403 . S
C2227 C2228 1.524 . S
C2227 C2231 1.400 . S
C2228 H2213 0.960 . S
C2228 H2214 0.960 . S
C2228 H2215 0.960 . S
C2228 C2227 1.524 . S
C2229 C2226 1.403 . S
C2229 C2230 1.392 . S
C2229 C2233 1.495 . S
C2230 C2229 1.392 . S
C2230 C2231 1.385 . S
C2230 C2232 1.478 . S
C2231 H2225 0.930 . S
C2231 C2227 1.400 . S
C2231 C2230 1.385 . S
C2232 C2230 1.478 . S
C2232 C2234 1.381 . S
C2232 C2238 1.383 . S
C2233 C2229 1.495 . S
C2233 H2239 0.959 . S
C2233 H2240 0.961 . S
C2233 H2241 0.960 . S
C2234 C2232 1.381 . S
C2234 C2235 1.394 . S
C2234 H2242 0.930 . S
C2235 C2234 1.394 . S
C2235 C2236 1.383 . S
C2235 H2243 0.929 . S
C2236 C2235 1.383 . S
C2236 C2237 1.377 . S
C2237 H2221 0.930 . S
C2237 C2236 1.377 . S
C2237 C2238 1.379 . S
C2238 H2222 0.931 . S
C2238 C2232 1.383 . S
C2238 C2237 1.379 . S
H2239 C2233 0.959 . S
H2240 C2233 0.961 . S
H2241 C2233 0.960 . S
H2242 C2234 0.930 . S
H2243 C2235 0.929 . S
H2244 C2252 0.929 . S
H2245 C2254 0.930 . S
H2246 C2256 0.930 . S
H2247 C2259 0.929 . S
H2248 C2262 0.930 . S
H2249 C2264 0.960 . S
H2250 C2264 0.960 . S
H2251 C2264 0.960 . S
C2252 H2244 0.929 . S
C2252 C2253 1.377 . S
C2252 C2254 1.384 . S
C2253 C2252 1.377 . S
C2253 C2259 1.390 . S
C2254 H2245 0.930 . S
C2254 C2252 1.384 . S
C2254 C2255 1.372 . S
C2255 C2254 1.372 . S
C2255 C2256 1.400 . S
C2255 C2260 1.490 . S
C2256 H2246 0.930 . S
C2256 C2255 1.400 . S
C2256 C2259 1.386 . S
H2257 C2273 0.930 . S
H2258 C2274 0.931 . S
C2259 H2247 0.929 . S
C2259 C2253 1.390 . S
C2259 C2256 1.386 . S
C2260 C2255 1.490 . S
C2260 C2262 1.395 . S
C2260 C2263 1.403 . S
H2261 C2267 0.930 . S
C2262 H2248 0.930 . S
C2262 C2260 1.395 . S
C2262 C2265 1.403 . S
C2263 C2260 1.403 . S
C2263 C2264 1.524 . S
C2263 C2267 1.400 . S
C2264 H2249 0.960 . S
C2264 H2250 0.960 . S
C2264 H2251 0.960 . S
C2264 C2263 1.524 . S
C2265 C2262 1.403 . S
C2265 C2266 1.392 . S
C2265 C2269 1.495 . S
C2266 C2265 1.392 . S
C2266 C2267 1.385 . S
C2266 C2268 1.478 . S
C2267 H2261 0.930 . S
C2267 C2263 1.400 . S
C2267 C2266 1.385 . S
C2268 C2266 1.478 . S
C2268 C2270 1.381 . S
C2268 C2274 1.383 . S
C2269 C2265 1.495 . S
C2269 H2275 0.959 . S
C2269 H2276 0.961 . S
C2269 H2277 0.960 . S
C2270 C2268 1.381 . S
C2270 C2271 1.394 . S
C2270 H2278 0.930 . S
C2271 C2270 1.394 . S
C2271 C2272 1.383 . S
C2271 H2279 0.929 . S
C2272 C2271 1.383 . S
C2272 C2273 1.377 . S
C2273 H2257 0.930 . S
C2273 C2272 1.377 . S
C2273 C2274 1.379 . S
C2274 H2258 0.931 . S
C2274 C2268 1.383 . S
C2274 C2273 1.379 . S
H2275 C2269 0.959 . S
H2276 C2269 0.961 . S
H2277 C2269 0.960 . S
H2278 C2270 0.930 . S
H2279 C2271 0.929 . S
H2280 C2288 0.929 . S
H2281 C2290 0.930 . S
H2282 C2292 0.930 . S
H2283 C2295 0.929 . S
H2284 C2298 0.930 . S
H2285 C2300 0.960 . S
H2286 C2300 0.960 . S
H2287 C2300 0.960 . S
C2288 H2280 0.929 . S
C2288 C2289 1.377 . S
C2288 C2290 1.384 . S
C2289 C2288 1.377 . S
C2289 C2295 1.390 . S
C2290 H2281 0.930 . S
C2290 C2288 1.384 . S
C2290 C2291 1.372 . S
C2291 C2290 1.372 . S
C2291 C2292 1.400 . S
C2291 C2296 1.490 . S
C2292 H2282 0.930 . S
C2292 C2291 1.400 . S
C2292 C2295 1.386 . S
H2293 C2309 0.930 . S
H2294 C2310 0.931 . S
C2295 H2283 0.929 . S
C2295 C2289 1.390 . S
C2295 C2292 1.386 . S
C2296 C2291 1.490 . S
C2296 C2298 1.395 . S
C2296 C2299 1.403 . S
H2297 C2303 0.930 . S
C2298 H2284 0.930 . S
C2298 C2296 1.395 . S
C2298 C2301 1.403 . S
C2299 C2296 1.403 . S
C2299 C2300 1.524 . S
C2299 C2303 1.400 . S
C2300 H2285 0.960 . S
C2300 H2286 0.960 . S
C2300 H2287 0.960 . S
C2300 C2299 1.524 . S
C2301 C2298 1.403 . S
C2301 C2302 1.392 . S
C2301 C2305 1.495 . S
C2302 C2301 1.392 . S
C2302 C2303 1.385 . S
C2302 C2304 1.478 . S
C2303 H2297 0.930 . S
C2303 C2299 1.400 . S
C2303 C2302 1.385 . S
C2304 C2302 1.478 . S
C2304 C2306 1.381 . S
C2304 C2310 1.383 . S
C2305 C2301 1.495 . S
C2305 H2311 0.959 . S
C2305 H2312 0.961 . S
C2305 H2313 0.960 . S
C2306 C2304 1.381 . S
C2306 C2307 1.394 . S
C2306 H2314 0.930 . S
C2307 C2306 1.394 . S
C2307 C2308 1.383 . S
C2307 H2315 0.929 . S
C2308 C2307 1.383 . S
C2308 C2309 1.377 . S
C2309 H2293 0.930 . S
C2309 C2308 1.377 . S
C2309 C2310 1.379 . S
C2310 H2294 0.931 . S
C2310 C2304 1.383 . S
C2310 C2309 1.379 . S
H2311 C2305 0.959 . S
H2312 C2305 0.961 . S
H2313 C2305 0.960 . S
H2314 C2306 0.930 . S
H2315 C2307 0.929 . S
H2316 C2324 0.929 . S
H2317 C2326 0.930 . S
H2318 C2328 0.930 . S
H2319 C2331 0.929 . S
H2320 C2334 0.930 . S
H2321 C2336 0.960 . S
H2322 C2336 0.960 . S
H2323 C2336 0.960 . S
C2324 H2316 0.929 . S
C2324 C2325 1.377 . S
C2324 C2326 1.384 . S
C2325 C2324 1.377 . S
C2325 C2331 1.390 . S
C2326 H2317 0.930 . S
C2326 C2324 1.384 . S
C2326 C2327 1.372 . S
C2327 C2326 1.372 . S
C2327 C2328 1.400 . S
C2327 C2332 1.490 . S
C2328 H2318 0.930 . S
C2328 C2327 1.400 . S
C2328 C2331 1.386 . S
H2329 C2345 0.930 . S
H2330 C2346 0.931 . S
C2331 H2319 0.929 . S
C2331 C2325 1.390 . S
C2331 C2328 1.386 . S
C2332 C2327 1.490 . S
C2332 C2334 1.395 . S
C2332 C2335 1.403 . S
H2333 C2339 0.930 . S
C2334 H2320 0.930 . S
C2334 C2332 1.395 . S
C2334 C2337 1.403 . S
C2335 C2332 1.403 . S
C2335 C2336 1.524 . S
C2335 C2339 1.400 . S
C2336 H2321 0.960 . S
C2336 H2322 0.960 . S
C2336 H2323 0.960 . S
C2336 C2335 1.524 . S
C2337 C2334 1.403 . S
C2337 C2338 1.392 . S
C2337 C2341 1.495 . S
C2338 C2337 1.392 . S
C2338 C2339 1.385 . S
C2338 C2340 1.478 . S
C2339 H2333 0.930 . S
C2339 C2335 1.400 . S
C2339 C2338 1.385 . S
C2340 C2338 1.478 . S
C2340 C2342 1.381 . S
C2340 C2346 1.383 . S
C2341 C2337 1.495 . S
C2341 H2347 0.959 . S
C2341 H2348 0.961 . S
C2341 H2349 0.960 . S
C2342 C2340 1.381 . S
C2342 C2343 1.394 . S
C2342 H2350 0.930 . S
C2343 C2342 1.394 . S
C2343 C2344 1.383 . S
C2343 H2351 0.929 . S
C2344 C2343 1.383 . S
C2344 C2345 1.377 . S
C2345 H2329 0.930 . S
C2345 C2344 1.377 . S
C2345 C2346 1.379 . S
C2346 H2330 0.931 . S
C2346 C2340 1.383 . S
C2346 C2345 1.379 . S
H2347 C2341 0.959 . S
H2348 C2341 0.961 . S
H2349 C2341 0.960 . S
H2350 C2342 0.930 . S
H2351 C2343 0.929 . S
H2352 C2360 0.929 . S
H2353 C2362 0.930 . S
H2354 C2364 0.930 . S
H2355 C2367 0.929 . S
H2356 C2370 0.930 . S
H2357 C2372 0.960 . S
H2358 C2372 0.960 . S
H2359 C2372 0.960 . S
C2360 H2352 0.929 . S
C2360 C2361 1.377 . S
C2360 C2362 1.384 . S
C2361 C2360 1.377 . S
C2361 C2367 1.390 . S
C2362 H2353 0.930 . S
C2362 C2360 1.384 . S
C2362 C2363 1.372 . S
C2363 C2362 1.372 . S
C2363 C2364 1.400 . S
C2363 C2368 1.490 . S
C2364 H2354 0.930 . S
C2364 C2363 1.400 . S
C2364 C2367 1.386 . S
H2365 C2381 0.930 . S
H2366 C2382 0.931 . S
C2367 H2355 0.929 . S
C2367 C2361 1.390 . S
C2367 C2364 1.386 . S
C2368 C2363 1.490 . S
C2368 C2370 1.395 . S
C2368 C2371 1.403 . S
H2369 C2375 0.930 . S
C2370 H2356 0.930 . S
C2370 C2368 1.395 . S
C2370 C2373 1.403 . S
C2371 C2368 1.403 . S
C2371 C2372 1.524 . S
C2371 C2375 1.400 . S
C2372 H2357 0.960 . S
C2372 H2358 0.960 . S
C2372 H2359 0.960 . S
C2372 C2371 1.524 . S
C2373 C2370 1.403 . S
C2373 C2374 1.392 . S
C2373 C2377 1.495 . S
C2374 C2373 1.392 . S
C2374 C2375 1.385 . S
C2374 C2376 1.478 . S
C2375 H2369 0.930 . S
C2375 C2371 1.400 . S
C2375 C2374 1.385 . S
C2376 C2374 1.478 . S
C2376 C2378 1.381 . S
C2376 C2382 1.383 . S
C2377 C2373 1.495 . S
C2377 H2383 0.959 . S
C2377 H2384 0.961 . S
C2377 H2385 0.960 . S
C2378 C2376 1.381 . S
C2378 C2379 1.394 . S
C2378 H2386 0.930 . S
C2379 C2378 1.394 . S
C2379 C2380 1.383 . S
C2379 H2387 0.929 . S
C2380 C2379 1.383 . S
C2380 C2381 1.377 . S
C2381 H2365 0.930 . S
C2381 C2380 1.377 . S
C2381 C2382 1.379 . S
C2382 H2366 0.931 . S
C2382 C2376 1.383 . S
C2382 C2381 1.379 . S
H2383 C2377 0.959 . S
H2384 C2377 0.961 . S
H2385 C2377 0.960 . S
H2386 C2378 0.930 . S
H2387 C2379 0.929 . S
H2388 C2396 0.929 . S
H2389 C2398 0.930 . S
H2390 C2400 0.930 . S
H2391 C2403 0.929 . S
H2392 C2406 0.930 . S
H2393 C2408 0.960 . S
H2394 C2408 0.960 . S
H2395 C2408 0.960 . S
C2396 H2388 0.929 . S
C2396 C2397 1.377 . S
C2396 C2398 1.384 . S
C2397 C2396 1.377 . S
C2397 C2403 1.390 . S
C2398 H2389 0.930 . S
C2398 C2396 1.384 . S
C2398 C2399 1.372 . S
C2399 C2398 1.372 . S
C2399 C2400 1.400 . S
C2399 C2404 1.490 . S
C2400 H2390 0.930 . S
C2400 C2399 1.400 . S
C2400 C2403 1.386 . S
H2401 C2417 0.930 . S
H2402 C2418 0.931 . S
C2403 H2391 0.929 . S
C2403 C2397 1.390 . S
C2403 C2400 1.386 . S
C2404 C2399 1.490 . S
C2404 C2406 1.395 . S
C2404 C2407 1.403 . S
H2405 C2411 0.930 . S
C2406 H2392 0.930 . S
C2406 C2404 1.395 . S
C2406 C2409 1.403 . S
C2407 C2404 1.403 . S
C2407 C2408 1.524 . S
C2407 C2411 1.400 . S
C2408 H2393 0.960 . S
C2408 H2394 0.960 . S
C2408 H2395 0.960 . S
C2408 C2407 1.524 . S
C2409 C2406 1.403 . S
C2409 C2410 1.392 . S
C2409 C2413 1.495 . S
C2410 C2409 1.392 . S
C2410 C2411 1.385 . S
C2410 C2412 1.478 . S
C2411 H2405 0.930 . S
C2411 C2407 1.400 . S
C2411 C2410 1.385 . S
C2412 C2410 1.478 . S
C2412 C2414 1.381 . S
C2412 C2418 1.383 . S
C2413 C2409 1.495 . S
C2413 H2419 0.959 . S
C2413 H2420 0.961 . S
C2413 H2421 0.960 . S
C2414 C2412 1.381 . S
C2414 C2415 1.394 . S
C2414 H2422 0.930 . S
C2415 C2414 1.394 . S
C2415 C2416 1.383 . S
C2415 H2423 0.929 . S
C2416 C2415 1.383 . S
C2416 C2417 1.377 . S
C2417 H2401 0.930 . S
C2417 C2416 1.377 . S
C2417 C2418 1.379 . S
C2418 H2402 0.931 . S
C2418 C2412 1.383 . S
C2418 C2417 1.379 . S
H2419 C2413 0.959 . S
H2420 C2413 0.961 . S
H2421 C2413 0.960 . S
H2422 C2414 0.930 . S
H2423 C2415 0.929 . S
H2424 C2432 0.929 . S
H2425 C2434 0.930 . S
H2426 C2436 0.930 . S
H2427 C2439 0.929 . S
H2428 C2442 0.930 . S
H2429 C2444 0.960 . S
H2430 C2444 0.960 . S
H2431 C2444 0.960 . S
C2432 H2424 0.929 . S
C2432 C2433 1.377 . S
C2432 C2434 1.384 . S
C2433 C2432 1.377 . S
C2433 C2439 1.390 . S
C2434 H2425 0.930 . S
C2434 C2432 1.384 . S
C2434 C2435 1.372 . S
C2435 C2434 1.372 . S
C2435 C2436 1.400 . S
C2435 C2440 1.490 . S
C2436 H2426 0.930 . S
C2436 C2435 1.400 . S
C2436 C2439 1.386 . S
H2437 C2453 0.930 . S
H2438 C2454 0.931 . S
C2439 H2427 0.929 . S
C2439 C2433 1.390 . S
C2439 C2436 1.386 . S
C2440 C2435 1.490 . S
C2440 C2442 1.395 . S
C2440 C2443 1.403 . S
H2441 C2447 0.930 . S
C2442 H2428 0.930 . S
C2442 C2440 1.395 . S
C2442 C2445 1.403 . S
C2443 C2440 1.403 . S
C2443 C2444 1.524 . S
C2443 C2447 1.400 . S
C2444 H2429 0.960 . S
C2444 H2430 0.960 . S
C2444 H2431 0.960 . S
C2444 C2443 1.524 . S
C2445 C2442 1.403 . S
C2445 C2446 1.392 . S
C2445 C2449 1.495 . S
C2446 C2445 1.392 . S
C2446 C2447 1.385 . S
C2446 C2448 1.478 . S
C2447 H2441 0.930 . S
C2447 C2443 1.400 . S
C2447 C2446 1.385 . S
C2448 C2446 1.478 . S
C2448 C2450 1.381 . S
C2448 C2454 1.383 . S
C2449 C2445 1.495 . S
C2449 H2455 0.959 . S
C2449 H2456 0.961 . S
C2449 H2457 0.960 . S
C2450 C2448 1.381 . S
C2450 C2451 1.394 . S
C2450 H2458 0.930 . S
C2451 C2450 1.394 . S
C2451 C2452 1.383 . S
C2451 H2459 0.929 . S
C2452 C2451 1.383 . S
C2452 C2453 1.377 . S
C2453 H2437 0.930 . S
C2453 C2452 1.377 . S
C2453 C2454 1.379 . S
C2454 H2438 0.931 . S
C2454 C2448 1.383 . S
C2454 C2453 1.379 . S
H2455 C2449 0.959 . S
H2456 C2449 0.961 . S
H2457 C2449 0.960 . S
H2458 C2450 0.930 . S
H2459 C2451 0.929 . S
H2460 C2468 0.929 . S
H2461 C2470 0.930 . S
H2462 C2472 0.919 1_554 S
H2463 C2475 0.944 . S
H2464 C2478 0.930 . S
H2465 C2480 0.960 . S
H2466 C2480 0.960 . S
H2467 C2480 0.960 . S
C2468 H2460 0.929 . S
C2468 C2469 1.377 . S
C2468 C2470 1.384 . S
C2469 C2468 1.377 . S
C2469 C2475 1.381 1_556 S
C2470 H2461 0.930 . S
C2470 C2468 1.384 . S
C2470 C2471 1.372 . S
C2471 C2470 1.372 . S
C2471 C2472 1.400 . S
C2471 C2476 1.490 . S
C2472 H2462 0.919 1_556 S
C2472 C2471 1.400 . S
C2472 C2475 1.381 1_556 S
H2473 C2489 0.930 . S
H2474 C2490 0.931 . S
C2475 H2463 0.944 . S
C2475 C2469 1.381 1_554 S
C2475 C2472 1.381 1_554 S
C2476 C2471 1.490 . S
C2476 C2478 1.395 . S
C2476 C2479 1.403 1_556 S
H2477 C2483 0.878 1_554 S
C2478 H2464 0.930 . S
C2478 C2476 1.395 . S
C2478 C2481 1.403 . S
C2479 C2476 1.403 1_554 S
C2479 C2480 1.524 . S
C2479 C2483 1.386 1_554 S
C2480 H2465 0.960 . S
C2480 H2466 0.960 . S
C2480 H2467 0.960 . S
C2480 C2479 1.524 . S
C2481 C2478 1.403 . S
C2481 C2482 1.392 . S
C2481 C2485 1.495 . S
C2482 C2481 1.392 . S
C2482 C2483 1.452 . S
C2482 C2484 1.478 . S
C2483 H2477 0.878 1_556 S
C2483 C2479 1.386 1_556 S
C2483 C2482 1.452 . S
C2484 C2482 1.478 . S
C2484 C2486 1.381 . S
C2484 C2490 1.383 . S
C2485 C2481 1.495 . S
C2485 H2491 0.959 . S
C2485 H2492 0.961 . S
C2485 H2493 0.960 . S
C2486 C2484 1.381 . S
C2486 C2487 1.394 . S
C2486 H2494 0.930 . S
C2487 C2486 1.394 . S
C2487 C2488 1.383 . S
C2487 H2495 0.929 . S
C2488 C2487 1.383 . S
C2488 C2489 1.377 . S
C2489 H2473 0.930 . S
C2489 C2488 1.377 . S
C2489 C2490 1.379 . S
C2490 H2474 0.931 . S
C2490 C2484 1.383 . S
C2490 C2489 1.379 . S
H2491 C2485 0.959 . S
H2492 C2485 0.961 . S
H2493 C2485 0.960 . S
H2494 C2486 0.930 . S
H2495 C2487 0.929 . S
H2496 C2504 0.929 . S
H2497 C2506 0.930 . S
H2498 C2508 0.930 . S
H2499 C2511 0.929 . S
H2500 C2514 0.930 . S
H2501 C2516 0.960 . S
H2502 C2516 0.960 . S
H2503 C2516 0.960 . S
C2504 H2496 0.929 . S
C2504 C2505 1.377 . S
C2504 C2506 1.384 . S
C2505 C2504 1.377 . S
C2505 C2511 1.390 . S
C2506 H2497 0.930 . S
C2506 C2504 1.384 . S
C2506 C2507 1.372 . S
C2507 C2506 1.372 . S
C2507 C2508 1.400 . S
C2507 C2512 1.490 . S
C2508 H2498 0.930 . S
C2508 C2507 1.400 . S
C2508 C2511 1.386 . S
H2509 C2525 0.930 . S
H2510 C2526 0.931 . S
C2511 H2499 0.929 . S
C2511 C2505 1.390 . S
C2511 C2508 1.386 . S
C2512 C2507 1.490 . S
C2512 C2514 1.395 . S
C2512 C2515 1.403 . S
H2513 C2519 0.930 . S
C2514 H2500 0.930 . S
C2514 C2512 1.395 . S
C2514 C2517 1.403 . S
C2515 C2512 1.403 . S
C2515 C2516 1.524 . S
C2515 C2519 1.400 . S
C2516 H2501 0.960 . S
C2516 H2502 0.960 . S
C2516 H2503 0.960 . S
C2516 C2515 1.524 . S
C2517 C2514 1.403 . S
C2517 C2518 1.392 . S
C2517 C2521 1.495 . S
C2518 C2517 1.392 . S
C2518 C2519 1.385 . S
C2518 C2520 1.478 . S
C2519 H2513 0.930 . S
C2519 C2515 1.400 . S
C2519 C2518 1.385 . S
C2520 C2518 1.478 . S
C2520 C2522 1.381 . S
C2520 C2526 1.383 . S
C2521 C2517 1.495 . S
C2521 H2527 0.959 . S
C2521 H2528 0.961 . S
C2521 H2529 0.960 . S
C2522 C2520 1.381 . S
C2522 C2523 1.394 . S
C2522 H2530 0.930 . S
C2523 C2522 1.394 . S
C2523 C2524 1.383 . S
C2523 H2531 0.929 . S
C2524 C2523 1.383 . S
C2524 C2525 1.377 . S
C2525 H2509 0.930 . S
C2525 C2524 1.377 . S
C2525 C2526 1.379 . S
C2526 H2510 0.931 . S
C2526 C2520 1.383 . S
C2526 C2525 1.379 . S
H2527 C2521 0.959 . S
H2528 C2521 0.961 . S
H2529 C2521 0.960 . S
H2530 C2522 0.930 . S
H2531 C2523 0.929 . S
H2532 C2540 0.929 . S
H2533 C2542 0.930 . S
H2534 C2544 0.930 . S
H2535 C2547 0.929 . S
H2536 C2550 0.930 . S
H2537 C2552 0.960 . S
H2538 C2552 0.960 . S
H2539 C2552 0.960 . S
C2540 H2532 0.929 . S
C2540 C2541 1.377 . S
C2540 C2542 1.384 . S
C2541 C2540 1.377 . S
C2541 C2547 1.390 . S
C2542 H2533 0.930 . S
C2542 C2540 1.384 . S
C2542 C2543 1.372 . S
C2543 C2542 1.372 . S
C2543 C2544 1.400 . S
C2543 C2548 1.490 . S
C2544 H2534 0.930 . S
C2544 C2543 1.400 . S
C2544 C2547 1.386 . S
H2545 C2561 0.930 . S
H2546 C2562 0.931 . S
C2547 H2535 0.929 . S
C2547 C2541 1.390 . S
C2547 C2544 1.386 . S
C2548 C2543 1.490 . S
C2548 C2550 1.395 . S
C2548 C2551 1.403 . S
H2549 C2555 0.930 . S
C2550 H2536 0.930 . S
C2550 C2548 1.395 . S
C2550 C2553 1.403 . S
C2551 C2548 1.403 . S
C2551 C2552 1.524 . S
C2551 C2555 1.400 . S
C2552 H2537 0.960 . S
C2552 H2538 0.960 . S
C2552 H2539 0.960 . S
C2552 C2551 1.524 . S
C2553 C2550 1.403 . S
C2553 C2554 1.392 . S
C2553 C2557 1.495 . S
C2554 C2553 1.392 . S
C2554 C2555 1.385 . S
C2554 C2556 1.478 . S
C2555 H2549 0.930 . S
C2555 C2551 1.400 . S
C2555 C2554 1.385 . S
C2556 C2554 1.478 . S
C2556 C2558 1.381 . S
C2556 C2562 1.383 . S
C2557 C2553 1.495 . S
C2557 H2563 0.959 . S
C2557 H2564 0.961 . S
C2557 H2565 0.960 . S
C2558 C2556 1.381 . S
C2558 C2559 1.394 . S
C2558 H2566 0.930 . S
C2559 C2558 1.394 . S
C2559 C2560 1.383 . S
C2559 H2567 0.929 . S
C2560 C2559 1.383 . S
C2560 C2561 1.377 . S
C2561 H2545 0.930 . S
C2561 C2560 1.377 . S
C2561 C2562 1.379 . S
C2562 H2546 0.931 . S
C2562 C2556 1.383 . S
C2562 C2561 1.379 . S
H2563 C2557 0.959 . S
H2564 C2557 0.961 . S
H2565 C2557 0.960 . S
H2566 C2558 0.930 . S
H2567 C2559 0.929 . S
H2568 C2576 0.929 . S
H2569 C2578 0.930 . S
H2570 C2580 0.930 . S
H2571 C2583 0.929 . S
H2572 C2586 0.930 . S
H2573 C2588 0.960 . S
H2574 C2588 0.960 . S
H2575 C2588 0.960 . S
C2576 H2568 0.929 . S
C2576 C2577 1.377 . S
C2576 C2578 1.384 . S
C2577 C2576 1.377 . S
C2577 C2583 1.390 . S
C2578 H2569 0.930 . S
C2578 C2576 1.384 . S
C2578 C2579 1.372 . S
C2579 C2578 1.372 . S
C2579 C2580 1.400 . S
C2579 C2584 1.490 . S
C2580 H2570 0.930 . S
C2580 C2579 1.400 . S
C2580 C2583 1.386 . S
H2581 C2597 0.930 . S
H2582 C2598 0.931 . S
C2583 H2571 0.929 . S
C2583 C2577 1.390 . S
C2583 C2580 1.386 . S
C2584 C2579 1.490 . S
C2584 C2586 1.395 . S
C2584 C2587 1.403 . S
H2585 C2591 0.930 . S
C2586 H2572 0.930 . S
C2586 C2584 1.395 . S
C2586 C2589 1.403 . S
C2587 C2584 1.403 . S
C2587 C2588 1.524 . S
C2587 C2591 1.400 . S
C2588 H2573 0.960 . S
C2588 H2574 0.960 . S
C2588 H2575 0.960 . S
C2588 C2587 1.524 . S
C2589 C2586 1.403 . S
C2589 C2590 1.392 . S
C2589 C2593 1.495 . S
C2590 C2589 1.392 . S
C2590 C2591 1.385 . S
C2590 C2592 1.478 . S
C2591 H2585 0.930 . S
C2591 C2587 1.400 . S
C2591 C2590 1.385 . S
C2592 C2590 1.478 . S
C2592 C2594 1.381 . S
C2592 C2598 1.383 . S
C2593 C2589 1.495 . S
C2593 H2599 0.959 . S
C2593 H2600 0.961 . S
C2593 H2601 0.960 . S
C2594 C2592 1.381 . S
C2594 C2595 1.394 . S
C2594 H2602 0.930 . S
C2595 C2594 1.394 . S
C2595 C2596 1.383 . S
C2595 H2603 0.929 . S
C2596 C2595 1.383 . S
C2596 C2597 1.377 . S
C2597 H2581 0.930 . S
C2597 C2596 1.377 . S
C2597 C2598 1.379 . S
C2598 H2582 0.931 . S
C2598 C2592 1.383 . S
C2598 C2597 1.379 . S
H2599 C2593 0.959 . S
H2600 C2593 0.961 . S
H2601 C2593 0.960 . S
H2602 C2594 0.930 . S
H2603 C2595 0.929 . S
H2604 C2612 0.929 . S
H2605 C2614 0.930 . S
H2606 C2616 0.930 . S
H2607 C2619 0.929 . S
H2608 C2622 0.930 . S
H2609 C2624 0.960 . S
H2610 C2624 0.960 . S
H2611 C2624 0.960 . S
C2612 H2604 0.929 . S
C2612 C2613 1.377 . S
C2612 C2614 1.384 . S
C2613 C2612 1.377 . S
C2613 C2619 1.390 . S
C2614 H2605 0.930 . S
C2614 C2612 1.384 . S
C2614 C2615 1.372 . S
C2615 C2614 1.372 . S
C2615 C2616 1.400 . S
C2615 C2620 1.490 . S
C2616 H2606 0.930 . S
C2616 C2615 1.400 . S
C2616 C2619 1.386 . S
H2617 C2633 0.930 . S
H2618 C2634 0.931 . S
C2619 H2607 0.929 . S
C2619 C2613 1.390 . S
C2619 C2616 1.386 . S
C2620 C2615 1.490 . S
C2620 C2622 1.395 . S
C2620 C2623 1.403 . S
H2621 C2627 0.930 . S
C2622 H2608 0.930 . S
C2622 C2620 1.395 . S
C2622 C2625 1.403 . S
C2623 C2620 1.403 . S
C2623 C2624 1.524 . S
C2623 C2627 1.400 . S
C2624 H2609 0.960 . S
C2624 H2610 0.960 . S
C2624 H2611 0.960 . S
C2624 C2623 1.524 . S
C2625 C2622 1.403 . S
C2625 C2626 1.392 . S
C2625 C2629 1.495 . S
C2626 C2625 1.392 . S
C2626 C2627 1.385 . S
C2626 C2628 1.478 . S
C2627 H2621 0.930 . S
C2627 C2623 1.400 . S
C2627 C2626 1.385 . S
C2628 C2626 1.478 . S
C2628 C2630 1.381 . S
C2628 C2634 1.383 . S
C2629 C2625 1.495 . S
C2629 H2635 0.959 . S
C2629 H2636 0.961 . S
C2629 H2637 0.960 . S
C2630 C2628 1.381 . S
C2630 C2631 1.394 . S
C2630 H2638 0.930 . S
C2631 C2630 1.394 . S
C2631 C2632 1.383 . S
C2631 H2639 0.929 . S
C2632 C2631 1.383 . S
C2632 C2633 1.377 . S
C2633 H2617 0.930 . S
C2633 C2632 1.377 . S
C2633 C2634 1.379 . S
C2634 H2618 0.931 . S
C2634 C2628 1.383 . S
C2634 C2633 1.379 . S
H2635 C2629 0.959 . S
H2636 C2629 0.961 . S
H2637 C2629 0.960 . S
H2638 C2630 0.930 . S
H2639 C2631 0.929 . S
H2640 C2648 0.929 . S
H2641 C2650 0.930 . S
H2642 C2652 0.926 . S
H2643 C2655 0.929 . S
H2644 C2658 0.930 . S
H2645 C2660 0.960 . S
H2646 C2660 0.960 . S
H2647 C2660 0.960 . S
C2648 H2640 0.929 . S
C2648 C2649 1.377 . S
C2648 C2650 1.384 . S
C2649 C2648 1.377 . S
C2649 C2655 1.390 . S
C2650 H2641 0.930 . S
C2650 C2648 1.384 . S
C2650 C2651 1.372 . S
C2651 C2650 1.372 . S
C2651 C2652 1.400 . S
C2651 C2656 1.490 . S
C2652 H2642 0.926 . S
C2652 C2651 1.400 . S
C2652 C2655 1.386 . S
H2653 C2669 0.930 . S
H2654 C2670 0.926 1_455 S
C2655 H2643 0.929 . S
C2655 C2649 1.390 . S
C2655 C2652 1.386 . S
C2656 C2651 1.490 . S
C2656 C2658 1.395 . S
C2656 C2659 1.357 1_655 S
H2657 C2663 1.016 . S
C2658 H2644 0.930 . S
C2658 C2656 1.395 . S
C2658 C2661 1.403 . S
C2659 C2656 1.357 1_455 S
C2659 C2660 1.568 . S
C2659 C2663 1.400 . S
C2660 H2645 0.960 . S
C2660 H2646 0.960 . S
C2660 H2647 0.960 . S
C2660 C2659 1.568 . S
C2661 C2658 1.403 . S
C2661 C2662 1.392 . S
C2661 C2665 1.495 . S
C2662 C2661 1.392 . S
C2662 C2663 1.307 1_655 S
C2662 C2664 1.478 . S
C2663 H2657 1.016 . S
C2663 C2659 1.400 . S
C2663 C2662 1.307 1_455 S
C2664 C2662 1.478 . S
C2664 C2666 1.381 . S
C2664 C2670 1.390 . S
C2665 C2661 1.495 . S
C2665 H2671 0.959 . S
C2665 H2672 0.961 . S
C2665 H2673 0.960 . S
C2666 C2664 1.381 . S
C2666 C2667 1.394 . S
C2666 H2674 0.930 . S
C2667 C2666 1.394 . S
C2667 C2668 1.383 . S
C2667 H2675 0.929 . S
C2668 C2667 1.383 . S
C2668 C2669 1.377 1_655 S
C2669 H2653 0.930 . S
C2669 C2668 1.377 1_455 S
C2669 C2670 1.377 1_455 S
C2670 H2654 0.926 1_655 S
C2670 C2664 1.390 . S
C2670 C2669 1.377 1_655 S
H2671 C2665 0.959 . S
H2672 C2665 0.961 . S
H2673 C2665 0.960 . S
H2674 C2666 0.930 . S
H2675 C2667 0.929 . S
H2676 C2684 0.929 . S
H2677 C2686 0.930 . S
H2678 C2688 0.930 . S
H2679 C2691 0.929 . S
H2680 C2694 0.930 . S
H2681 C2696 0.960 . S
H2682 C2696 0.960 . S
H2683 C2696 0.960 . S
C2684 H2676 0.929 . S
C2684 C2685 1.377 . S
C2684 C2686 1.384 . S
C2685 C2684 1.377 . S
C2685 C2691 1.390 . S
C2686 H2677 0.930 . S
C2686 C2684 1.384 . S
C2686 C2687 1.372 . S
C2687 C2686 1.372 . S
C2687 C2688 1.400 . S
C2687 C2692 1.490 . S
C2688 H2678 0.930 . S
C2688 C2687 1.400 . S
C2688 C2691 1.386 . S
H2689 C2705 0.930 . S
H2690 C2706 0.931 . S
C2691 H2679 0.929 . S
C2691 C2685 1.390 . S
C2691 C2688 1.386 . S
C2692 C2687 1.490 . S
C2692 C2694 1.395 . S
C2692 C2695 1.403 . S
H2693 C2699 0.930 . S
C2694 H2680 0.930 . S
C2694 C2692 1.395 . S
C2694 C2697 1.403 . S
C2695 C2692 1.403 . S
C2695 C2696 1.524 . S
C2695 C2699 1.400 . S
C2696 H2681 0.960 . S
C2696 H2682 0.960 . S
C2696 H2683 0.960 . S
C2696 C2695 1.524 . S
C2697 C2694 1.403 . S
C2697 C2698 1.392 . S
C2697 C2701 1.495 . S
C2698 C2697 1.392 . S
C2698 C2699 1.385 . S
C2698 C2700 1.478 . S
C2699 H2693 0.930 . S
C2699 C2695 1.400 . S
C2699 C2698 1.385 . S
C2700 C2698 1.478 . S
C2700 C2702 1.381 . S
C2700 C2706 1.383 . S
C2701 C2697 1.495 . S
C2701 H2707 0.959 . S
C2701 H2708 0.961 . S
C2701 H2709 0.960 . S
C2702 C2700 1.381 . S
C2702 C2703 1.394 . S
C2702 H2710 0.930 . S
C2703 C2702 1.394 . S
C2703 C2704 1.383 . S
C2703 H2711 0.929 . S
C2704 C2703 1.383 . S
C2704 C2705 1.377 . S
C2705 H2689 0.930 . S
C2705 C2704 1.377 . S
C2705 C2706 1.379 . S
C2706 H2690 0.931 . S
C2706 C2700 1.383 . S
C2706 C2705 1.379 . S
H2707 C2701 0.959 . S
H2708 C2701 0.961 . S
H2709 C2701 0.960 . S
H2710 C2702 0.930 . S
H2711 C2703 0.929 . S
H2712 C2720 0.929 . S
H2713 C2722 0.930 . S
H2714 C2724 0.930 . S
H2715 C2727 0.929 . S
H2716 C2730 0.930 . S
H2717 C2732 0.960 . S
H2718 C2732 0.960 . S
H2719 C2732 0.960 . S
C2720 H2712 0.929 . S
C2720 C2721 1.377 . S
C2720 C2722 1.384 . S
C2721 C2720 1.377 . S
C2721 C2727 1.390 . S
C2722 H2713 0.930 . S
C2722 C2720 1.384 . S
C2722 C2723 1.372 . S
C2723 C2722 1.372 . S
C2723 C2724 1.400 . S
C2723 C2728 1.490 . S
C2724 H2714 0.930 . S
C2724 C2723 1.400 . S
C2724 C2727 1.386 . S
H2725 C2741 0.930 . S
H2726 C2742 0.931 . S
C2727 H2715 0.929 . S
C2727 C2721 1.390 . S
C2727 C2724 1.386 . S
C2728 C2723 1.490 . S
C2728 C2730 1.395 . S
C2728 C2731 1.403 . S
H2729 C2735 0.930 . S
C2730 H2716 0.930 . S
C2730 C2728 1.395 . S
C2730 C2733 1.403 . S
C2731 C2728 1.403 . S
C2731 C2732 1.524 . S
C2731 C2735 1.400 . S
C2732 H2717 0.960 . S
C2732 H2718 0.960 . S
C2732 H2719 0.960 . S
C2732 C2731 1.524 . S
C2733 C2730 1.403 . S
C2733 C2734 1.392 . S
C2733 C2737 1.495 . S
C2734 C2733 1.392 . S
C2734 C2735 1.385 . S
C2734 C2736 1.478 . S
C2735 H2729 0.930 . S
C2735 C2731 1.400 . S
C2735 C2734 1.385 . S
C2736 C2734 1.478 . S
C2736 C2738 1.381 . S
C2736 C2742 1.383 . S
C2737 C2733 1.495 . S
C2737 H2743 0.959 . S
C2737 H2744 0.961 . S
C2737 H2745 0.960 . S
C2738 C2736 1.381 . S
C2738 C2739 1.394 . S
C2738 H2746 0.930 . S
C2739 C2738 1.394 . S
C2739 C2740 1.383 . S
C2739 H2747 0.929 . S
C2740 C2739 1.383 . S
C2740 C2741 1.377 . S
C2741 H2725 0.930 . S
C2741 C2740 1.377 . S
C2741 C2742 1.379 . S
C2742 H2726 0.931 . S
C2742 C2736 1.383 . S
C2742 C2741 1.379 . S
H2743 C2737 0.959 . S
H2744 C2737 0.961 . S
H2745 C2737 0.960 . S
H2746 C2738 0.930 . S
H2747 C2739 0.929 . S
H2748 C2756 0.929 . S
H2749 C2758 0.930 . S
H2750 C2760 0.930 . S
H2751 C2763 0.929 . S
H2752 C2766 0.930 . S
H2753 C2768 0.960 . S
H2754 C2768 0.960 1_655 S
H2755 C2768 0.960 . S
C2756 H2748 0.929 . S
C2756 C2757 1.377 1_655 S
C2756 C2758 1.384 . S
C2757 C2756 1.377 1_455 S
C2757 C2763 1.390 . S
C2758 H2749 0.930 . S
C2758 C2756 1.384 . S
C2758 C2759 1.372 1_655 S
C2759 C2758 1.372 1_455 S
C2759 C2760 1.400 . S
C2759 C2764 1.490 . S
C2760 H2750 0.930 . S
C2760 C2759 1.400 . S
C2760 C2763 1.386 . S
H2761 C2777 0.930 . S
H2762 C2778 0.931 . S
C2763 H2751 0.929 . S
C2763 C2757 1.390 . S
C2763 C2760 1.386 . S
C2764 C2759 1.490 . S
C2764 C2766 1.395 . S
C2764 C2767 1.403 . S
H2765 C2771 0.930 . S
C2766 H2752 0.930 . S
C2766 C2764 1.395 . S
C2766 C2769 1.403 . S
C2767 C2764 1.403 . S
C2767 C2768 1.524 . S
C2767 C2771 1.400 . S
C2768 H2753 0.960 . S
C2768 H2754 0.960 1_455 S
C2768 H2755 0.960 . S
C2768 C2767 1.524 . S
C2769 C2766 1.403 . S
C2769 C2770 1.392 . S
C2769 C2773 1.495 . S
C2770 C2769 1.392 . S
C2770 C2771 1.385 . S
C2770 C2772 1.478 . S
C2771 H2765 0.930 . S
C2771 C2767 1.400 . S
C2771 C2770 1.385 . S
C2772 C2770 1.478 . S
C2772 C2774 1.381 1_455 S
C2772 C2778 1.383 . S
C2773 C2769 1.495 . S
C2773 H2779 0.959 . S
C2773 H2780 0.961 . S
C2773 H2781 0.960 1_455 S
C2774 C2772 1.381 1_655 S
C2774 C2775 1.394 . S
C2774 H2782 0.930 . S
C2775 C2774 1.394 . S
C2775 C2776 1.383 1_655 S
C2775 H2783 0.929 . S
C2776 C2775 1.383 1_455 S
C2776 C2777 1.377 . S
C2777 H2761 0.930 . S
C2777 C2776 1.377 . S
C2777 C2778 1.379 . S
C2778 H2762 0.931 . S
C2778 C2772 1.383 . S
C2778 C2777 1.379 . S
H2779 C2773 0.959 . S
H2780 C2773 0.961 . S
H2781 C2773 0.960 1_655 S
H2782 C2774 0.930 . S
H2783 C2775 0.929 . S
H2784 C2792 0.929 . S
H2785 C2794 0.930 . S
H2786 C2796 0.930 . S
H2787 C2799 0.929 . S
H2788 C2802 0.930 . S
H2789 C2804 0.960 . S
H2790 C2804 0.960 . S
H2791 C2804 0.960 . S
C2792 H2784 0.929 . S
C2792 C2793 1.377 1_455 S
C2792 C2794 1.384 . S
C2793 C2792 1.377 1_655 S
C2793 C2799 1.390 . S
C2794 H2785 0.930 . S
C2794 C2792 1.384 . S
C2794 C2795 1.372 1_455 S
C2795 C2794 1.372 1_655 S
C2795 C2796 1.400 . S
C2795 C2800 1.490 . S
C2796 H2786 0.930 . S
C2796 C2795 1.400 . S
C2796 C2799 1.386 . S
H2797 C2813 0.930 . S
H2798 C2814 0.931 . S
C2799 H2787 0.929 . S
C2799 C2793 1.390 . S
C2799 C2796 1.386 . S
C2800 C2795 1.490 . S
C2800 C2802 1.395 . S
C2800 C2803 1.403 . S
H2801 C2807 0.930 . S
C2802 H2788 0.930 . S
C2802 C2800 1.395 . S
C2802 C2805 1.403 . S
C2803 C2800 1.403 . S
C2803 C2804 1.524 . S
C2803 C2807 1.400 . S
C2804 H2789 0.960 . S
C2804 H2790 0.960 . S
C2804 H2791 0.960 . S
C2804 C2803 1.524 . S
C2805 C2802 1.403 . S
C2805 C2806 1.392 . S
C2805 C2809 1.495 . S
C2806 C2805 1.392 . S
C2806 C2807 1.385 . S
C2806 C2808 1.478 . S
C2807 H2801 0.930 . S
C2807 C2803 1.400 . S
C2807 C2806 1.385 . S
C2808 C2806 1.478 . S
C2808 C2810 1.381 . S
C2808 C2814 1.383 . S
C2809 C2805 1.495 . S
C2809 H2815 0.956 . S
C2809 H2816 0.961 . S
C2809 H2817 0.928 1_655 S
C2810 C2808 1.381 . S
C2810 C2811 1.394 . S
C2810 H2818 0.930 . S
C2811 C2810 1.394 . S
C2811 C2812 1.383 . S
C2811 H2819 0.929 . S
C2812 C2811 1.383 . S
C2812 C2813 1.377 . S
C2813 H2797 0.930 . S
C2813 C2812 1.377 . S
C2813 C2814 1.379 . S
C2814 H2798 0.931 . S
C2814 C2808 1.383 . S
C2814 C2813 1.379 . S
H2815 C2809 0.956 . S
H2816 C2809 0.961 . S
H2817 C2809 0.928 1_455 S
H2818 C2810 0.930 . S
H2819 C2811 0.929 . S
H2820 C2828 0.929 . S
H2821 C2830 0.930 . S
H2822 C2832 0.930 . S
H2823 C2835 0.929 . S
H2824 C2838 0.930 1_455 S
H2825 C2840 0.960 . S
H2826 C2840 0.960 . S
H2827 C2840 0.960 . S
C2828 H2820 0.929 . S
C2828 C2829 1.377 . S
C2828 C2830 1.384 . S
C2829 C2828 1.377 . S
C2829 C2835 1.390 . S
C2830 H2821 0.930 . S
C2830 C2828 1.384 . S
C2830 C2831 1.372 . S
C2831 C2830 1.372 . S
C2831 C2832 1.400 . S
C2831 C2836 1.490 . S
C2832 H2822 0.930 . S
C2832 C2831 1.400 . S
C2832 C2835 1.386 . S
H2833 C2849 0.930 . S
H2834 C2850 0.931 . S
C2835 H2823 0.929 . S
C2835 C2829 1.390 . S
C2835 C2832 1.386 . S
C2836 C2831 1.490 . S
C2836 C2838 1.395 . S
C2836 C2839 1.403 . S
H2837 C2843 0.930 . S
C2838 H2824 0.930 1_655 S
C2838 C2836 1.395 . S
C2838 C2841 1.403 . S
C2839 C2836 1.403 . S
C2839 C2840 1.524 . S
C2839 C2843 1.400 . S
C2840 H2825 0.960 . S
C2840 H2826 0.960 . S
C2840 H2827 0.960 . S
C2840 C2839 1.524 . S
C2841 C2838 1.403 . S
C2841 C2842 1.392 . S
C2841 C2845 1.495 1_655 S
C2842 C2841 1.392 . S
C2842 C2843 1.385 . S
C2842 C2844 1.478 . S
C2843 H2837 0.930 . S
C2843 C2839 1.400 . S
C2843 C2842 1.385 . S
C2844 C2842 1.478 . S
C2844 C2846 1.381 . S
C2844 C2850 1.383 . S
C2845 C2841 1.495 1_455 S
C2845 H2851 0.959 . S
C2845 H2852 0.961 . S
C2845 H2853 0.960 . S
C2846 C2844 1.381 . S
C2846 C2847 1.394 . S
C2846 H2854 0.930 . S
C2847 C2846 1.394 . S
C2847 C2848 1.383 . S
C2847 H2855 0.929 . S
C2848 C2847 1.383 . S
C2848 C2849 1.377 . S
C2849 H2833 0.930 . S
C2849 C2848 1.377 . S
C2849 C2850 1.379 . S
C2850 H2834 0.931 . S
C2850 C2844 1.383 . S
C2850 C2849 1.379 . S
H2851 C2845 0.959 . S
H2852 C2845 0.961 . S
H2853 C2845 0.960 . S
H2854 C2846 0.930 . S
H2855 C2847 0.929 . S
H2856 C2864 0.929 . S
H2857 C2866 0.930 . S
H2858 C2868 0.930 . S
H2859 C2871 0.929 . S
H2860 C2874 0.930 . S
H2861 C2876 0.960 . S
H2862 C2876 0.960 . S
H2863 C2876 0.960 . S
C2864 H2856 0.929 . S
C2864 C2865 1.377 . S
C2864 C2866 1.384 . S
C2865 C2864 1.377 . S
C2865 C2871 1.390 . S
C2866 H2857 0.930 . S
C2866 C2864 1.384 . S
C2866 C2867 1.372 . S
C2867 C2866 1.372 . S
C2867 C2868 1.400 . S
C2867 C2872 1.490 . S
C2868 H2858 0.930 . S
C2868 C2867 1.400 . S
C2868 C2871 1.386 . S
H2869 C2885 0.930 . S
H2870 C2886 0.931 . S
C2871 H2859 0.929 . S
C2871 C2865 1.390 . S
C2871 C2868 1.386 . S
C2872 C2867 1.490 . S
C2872 C2874 1.395 . S
C2872 C2875 1.403 . S
H2873 C2879 0.930 . S
C2874 H2860 0.930 . S
C2874 C2872 1.395 . S
C2874 C2877 1.403 . S
C2875 C2872 1.403 . S
C2875 C2876 1.524 . S
C2875 C2879 1.400 . S
C2876 H2861 0.960 . S
C2876 H2862 0.960 . S
C2876 H2863 0.960 . S
C2876 C2875 1.524 . S
C2877 C2874 1.403 . S
C2877 C2878 1.392 . S
C2877 C2881 1.495 . S
C2878 C2877 1.392 . S
C2878 C2879 1.385 . S
C2878 C2880 1.478 . S
C2879 H2873 0.930 . S
C2879 C2875 1.400 . S
C2879 C2878 1.385 . S
C2880 C2878 1.478 . S
C2880 C2882 1.381 . S
C2880 C2886 1.383 . S
C2881 C2877 1.495 . S
C2881 H2887 0.959 1_556 S
C2881 H2888 0.939 1_556 S
C2881 H2889 0.960 . S
C2882 C2880 1.381 . S
C2882 C2883 1.394 . S
C2882 H2890 0.930 . S
C2883 C2882 1.394 . S
C2883 C2884 1.383 . S
C2883 H2891 0.929 . S
C2884 C2883 1.383 . S
C2884 C2885 1.377 . S
C2885 H2869 0.930 . S
C2885 C2884 1.377 . S
C2885 C2886 1.379 . S
C2886 H2870 0.931 . S
C2886 C2880 1.383 . S
C2886 C2885 1.379 . S
H2887 C2881 0.959 1_554 S
H2888 C2881 0.939 1_554 S
H2889 C2881 0.960 . S
H2890 C2882 0.930 . S
H2891 C2883 0.929 . S
H2892 C2900 0.929 . S
H2893 C2902 0.930 . S
H2894 C2904 0.930 . S
H2895 C2907 0.929 . S
H2896 C2910 0.930 . S
H2897 C2912 0.960 . S
H2898 C2912 0.960 . S
H2899 C2912 0.960 . S
C2900 H2892 0.929 . S
C2900 C2901 1.377 . S
C2900 C2902 1.384 . S
C2901 C2900 1.377 . S
C2901 C2907 1.390 . S
C2902 H2893 0.930 . S
C2902 C2900 1.384 . S
C2902 C2903 1.372 . S
C2903 C2902 1.372 . S
C2903 C2904 1.400 . S
C2903 C2908 1.490 . S
C2904 H2894 0.930 . S
C2904 C2903 1.400 . S
C2904 C2907 1.386 . S
H2905 C2921 0.930 . S
H2906 C2922 0.931 . S
C2907 H2895 0.929 . S
C2907 C2901 1.390 . S
C2907 C2904 1.386 . S
C2908 C2903 1.490 . S
C2908 C2910 1.395 . S
C2908 C2911 1.403 . S
H2909 C2915 0.930 . S
C2910 H2896 0.930 . S
C2910 C2908 1.395 . S
C2910 C2913 1.403 . S
C2911 C2908 1.403 . S
C2911 C2912 1.524 . S
C2911 C2915 1.400 . S
C2912 H2897 0.960 . S
C2912 H2898 0.960 . S
C2912 H2899 0.960 . S
C2912 C2911 1.524 . S
C2913 C2910 1.403 . S
C2913 C2914 1.392 . S
C2913 C2917 1.495 . S
C2914 C2913 1.392 . S
C2914 C2915 1.385 . S
C2914 C2916 1.478 . S
C2915 H2909 0.930 . S
C2915 C2911 1.400 . S
C2915 C2914 1.385 . S
C2916 C2914 1.478 . S
C2916 C2918 1.381 . S
C2916 C2922 1.383 . S
C2917 C2913 1.495 . S
C2917 H2923 0.959 . S
C2917 H2924 0.961 . S
C2917 H2925 0.960 . S
C2918 C2916 1.381 . S
C2918 C2919 1.394 . S
C2918 H2926 0.930 . S
C2919 C2918 1.394 . S
C2919 C2920 1.383 . S
C2919 H2927 0.929 . S
C2920 C2919 1.383 . S
C2920 C2921 1.377 . S
C2921 H2905 0.930 . S
C2921 C2920 1.377 . S
C2921 C2922 1.379 . S
C2922 H2906 0.931 . S
C2922 C2916 1.383 . S
C2922 C2921 1.379 . S
H2923 C2917 0.959 . S
H2924 C2917 0.961 . S
H2925 C2917 0.960 . S
H2926 C2918 0.930 . S
H2927 C2919 0.929 . S
H2928 C2936 0.929 . S
H2929 C2938 0.930 . S
H2930 C2940 0.930 . S
H2931 C2943 0.929 . S
H2932 C2946 0.930 . S
H2933 C2948 0.960 . S
H2934 C2948 0.952 1_545 S
H2935 C2948 0.960 . S
C2936 H2928 0.929 . S
C2936 C2937 1.377 1_545 S
C2936 C2938 1.384 . S
C2937 C2936 1.377 1_565 S
C2937 C2943 1.390 . S
C2938 H2929 0.930 . S
C2938 C2936 1.384 . S
C2938 C2939 1.372 1_545 S
C2939 C2938 1.372 1_565 S
C2939 C2940 1.400 . S
C2939 C2944 1.490 . S
C2940 H2930 0.930 . S
C2940 C2939 1.400 . S
C2940 C2943 1.386 . S
H2941 C2957 0.930 . S
H2942 C2958 0.931 . S
C2943 H2931 0.929 . S
C2943 C2937 1.390 . S
C2943 C2940 1.386 . S
C2944 C2939 1.490 . S
C2944 C2946 1.395 . S
C2944 C2947 1.403 . S
H2945 C2951 0.930 . S
C2946 H2932 0.930 . S
C2946 C2944 1.395 . S
C2946 C2949 1.403 . S
C2947 C2944 1.403 . S
C2947 C2948 1.524 . S
C2947 C2951 1.400 . S
C2948 H2933 0.960 . S
C2948 H2934 0.952 1_565 S
C2948 H2935 0.960 . S
C2948 C2947 1.524 . S
C2949 C2946 1.403 . S
C2949 C2950 1.392 . S
C2949 C2953 1.495 . S
C2950 C2949 1.392 . S
C2950 C2951 1.385 . S
C2950 C2952 1.478 . S
C2951 H2945 0.930 . S
C2951 C2947 1.400 . S
C2951 C2950 1.385 . S
C2952 C2950 1.478 . S
C2952 C2954 1.381 . S
C2952 C2958 1.383 . S
C2953 C2949 1.495 . S
C2953 H2959 0.959 . S
C2953 H2960 0.961 . S
C2953 H2961 0.960 . S
C2954 C2952 1.381 . S
C2954 C2955 1.394 . S
C2954 H2962 0.930 . S
C2955 C2954 1.394 . S
C2955 C2956 1.383 . S
C2955 H2963 0.929 . S
C2956 C2955 1.383 . S
C2956 C2957 1.377 . S
C2957 H2941 0.930 . S
C2957 C2956 1.377 . S
C2957 C2958 1.379 . S
C2958 H2942 0.931 . S
C2958 C2952 1.383 . S
C2958 C2957 1.379 . S
H2959 C2953 0.959 . S
H2960 C2953 0.961 . S
H2961 C2953 0.960 . S
H2962 C2954 0.930 . S
H2963 C2955 0.929 . S
H2964 C2972 0.929 . S
H2965 C2974 0.930 . S
H2966 C2976 0.930 . S
H2967 C2979 0.929 . S
H2968 C2982 0.930 . S
H2969 C2984 0.960 . S
H2970 C2984 0.960 . S
H2971 C2984 0.960 . S
C2972 H2964 0.929 . S
C2972 C2973 1.377 . S
C2972 C2974 1.384 . S
C2973 C2972 1.377 . S
C2973 C2979 1.390 . S
C2974 H2965 0.930 . S
C2974 C2972 1.384 . S
C2974 C2975 1.372 . S
C2975 C2974 1.372 . S
C2975 C2976 1.400 . S
C2975 C2980 1.490 . S
C2976 H2966 0.930 . S
C2976 C2975 1.400 . S
C2976 C2979 1.386 . S
H2977 C2993 0.930 . S
H2978 C2994 0.931 . S
C2979 H2967 0.929 . S
C2979 C2973 1.390 . S
C2979 C2976 1.386 . S
C2980 C2975 1.490 . S
C2980 C2982 1.395 . S
C2980 C2983 1.403 . S
H2981 C2987 0.930 . S
C2982 H2968 0.930 . S
C2982 C2980 1.395 . S
C2982 C2985 1.403 . S
C2983 C2980 1.403 . S
C2983 C2984 1.524 . S
C2983 C2987 1.400 . S
C2984 H2969 0.960 . S
C2984 H2970 0.960 . S
C2984 H2971 0.960 . S
C2984 C2983 1.524 . S
C2985 C2982 1.403 . S
C2985 C2986 1.392 . S
C2985 C2989 1.495 . S
C2986 C2985 1.392 . S
C2986 C2987 1.385 . S
C2986 C2988 1.478 . S
C2987 H2981 0.930 . S
C2987 C2983 1.400 . S
C2987 C2986 1.385 . S
C2988 C2986 1.478 . S
C2988 C2990 1.381 . S
C2988 C2994 1.383 . S
C2989 C2985 1.495 . S
C2989 H2995 0.959 . S
C2989 H2996 0.961 . S
C2989 H2997 0.960 . S
C2990 C2988 1.381 . S
C2990 C2991 1.394 . S
C2990 H2998 0.930 . S
C2991 C2990 1.394 . S
C2991 C2992 1.383 . S
C2991 H2999 0.929 . S
C2992 C2991 1.383 . S
C2992 C2993 1.377 . S
C2993 H2977 0.930 . S
C2993 C2992 1.377 . S
C2993 C2994 1.379 . S
C2994 H2978 0.931 . S
C2994 C2988 1.383 . S
C2994 C2993 1.379 . S
H2995 C2989 0.959 . S
H2996 C2989 0.961 . S
H2997 C2989 0.960 . S
H2998 C2990 0.930 . S
H2999 C2991 0.929 . S
H3000 C3008 0.929 . S
H3001 C3010 0.930 . S
H3002 C3012 0.930 . S
H3003 C3015 0.929 . S
H3004 C3018 0.930 . S
H3005 C3020 0.960 . S
H3006 C3020 0.960 . S
H3007 C3020 0.960 . S
C3008 H3000 0.929 . S
C3008 C3009 1.377 . S
C3008 C3010 1.384 . S
C3009 C3008 1.377 . S
C3009 C3015 1.390 . S
C3010 H3001 0.930 . S
C3010 C3008 1.384 . S
C3010 C3011 1.372 . S
C3011 C3010 1.372 . S
C3011 C3012 1.400 . S
C3011 C3016 1.490 . S
C3012 H3002 0.930 . S
C3012 C3011 1.400 . S
C3012 C3015 1.386 . S
H3013 C3029 0.930 . S
H3014 C3030 0.931 . S
C3015 H3003 0.929 . S
C3015 C3009 1.390 . S
C3015 C3012 1.386 . S
C3016 C3011 1.490 . S
C3016 C3018 1.395 . S
C3016 C3019 1.403 . S
H3017 C3023 0.930 . S
C3018 H3004 0.930 . S
C3018 C3016 1.395 . S
C3018 C3021 1.403 . S
C3019 C3016 1.403 . S
C3019 C3020 1.524 . S
C3019 C3023 1.400 . S
C3020 H3005 0.960 . S
C3020 H3006 0.960 . S
C3020 H3007 0.960 . S
C3020 C3019 1.524 . S
C3021 C3018 1.403 . S
C3021 C3022 1.392 . S
C3021 C3025 1.495 . S
C3022 C3021 1.392 . S
C3022 C3023 1.385 . S
C3022 C3024 1.478 . S
C3023 H3017 0.930 . S
C3023 C3019 1.400 . S
C3023 C3022 1.385 . S
C3024 C3022 1.478 . S
C3024 C3026 1.381 . S
C3024 C3030 1.383 . S
C3025 C3021 1.495 . S
C3025 H3031 0.959 . S
C3025 H3032 0.961 . S
C3025 H3033 0.960 . S
C3026 C3024 1.381 . S
C3026 C3027 1.394 . S
C3026 H3034 0.930 . S
C3027 C3026 1.394 . S
C3027 C3028 1.383 . S
C3027 H3035 0.929 . S
C3028 C3027 1.383 . S
C3028 C3029 1.377 . S
C3029 H3013 0.930 . S
C3029 C3028 1.377 . S
C3029 C3030 1.379 . S
C3030 H3014 0.931 . S
C3030 C3024 1.383 . S
C3030 C3029 1.379 . S
H3031 C3025 0.959 . S
H3032 C3025 0.961 . S
H3033 C3025 0.960 . S
H3034 C3026 0.930 . S
H3035 C3027 0.929 . S
H3036 C3044 0.929 . S
H3037 C3046 0.930 . S
H3038 C3048 0.930 . S
H3039 C3051 0.929 . S
H3040 C3054 0.930 . S
H3041 C3056 0.960 . S
H3042 C3056 0.960 . S
H3043 C3056 0.960 . S
C3044 H3036 0.929 . S
C3044 C3045 1.377 . S
C3044 C3046 1.384 . S
C3045 C3044 1.377 . S
C3045 C3051 1.390 . S
C3046 H3037 0.930 . S
C3046 C3044 1.384 . S
C3046 C3047 1.372 . S
C3047 C3046 1.372 . S
C3047 C3048 1.400 . S
C3047 C3052 1.490 . S
C3048 H3038 0.930 . S
C3048 C3047 1.400 . S
C3048 C3051 1.386 . S
H3049 C3065 0.930 . S
H3050 C3066 0.931 . S
C3051 H3039 0.929 . S
C3051 C3045 1.390 . S
C3051 C3048 1.386 . S
C3052 C3047 1.490 . S
C3052 C3054 1.395 . S
C3052 C3055 1.403 . S
H3053 C3059 0.930 . S
C3054 H3040 0.930 . S
C3054 C3052 1.395 . S
C3054 C3057 1.403 . S
C3055 C3052 1.403 . S
C3055 C3056 1.524 . S
C3055 C3059 1.400 . S
C3056 H3041 0.960 . S
C3056 H3042 0.960 . S
C3056 H3043 0.960 . S
C3056 C3055 1.524 . S
C3057 C3054 1.403 . S
C3057 C3058 1.392 . S
C3057 C3061 1.495 . S
C3058 C3057 1.392 . S
C3058 C3059 1.385 . S
C3058 C3060 1.478 . S
C3059 H3053 0.930 . S
C3059 C3055 1.400 . S
C3059 C3058 1.385 . S
C3060 C3058 1.478 . S
C3060 C3062 1.381 . S
C3060 C3066 1.383 . S
C3061 C3057 1.495 . S
C3061 H3067 0.959 . S
C3061 H3068 0.961 . S
C3061 H3069 0.960 . S
C3062 C3060 1.381 . S
C3062 C3063 1.394 . S
C3062 H3070 0.930 . S
C3063 C3062 1.394 . S
C3063 C3064 1.383 . S
C3063 H3071 0.929 . S
C3064 C3063 1.383 . S
C3064 C3065 1.377 . S
C3065 H3049 0.930 . S
C3065 C3064 1.377 . S
C3065 C3066 1.379 . S
C3066 H3050 0.931 . S
C3066 C3060 1.383 . S
C3066 C3065 1.379 . S
H3067 C3061 0.959 . S
H3068 C3061 0.961 . S
H3069 C3061 0.960 . S
H3070 C3062 0.930 . S
H3071 C3063 0.929 . S
H3072 C3080 0.929 . S
H3073 C3082 0.930 . S
H3074 C3084 0.930 . S
H3075 C3087 0.929 . S
H3076 C3090 0.930 . S
H3077 C3092 0.960 . S
H3078 C3092 0.960 . S
H3079 C3092 0.960 . S
C3080 H3072 0.929 . S
C3080 C3081 1.377 . S
C3080 C3082 1.384 . S
C3081 C3080 1.377 . S
C3081 C3087 1.390 . S
C3082 H3073 0.930 . S
C3082 C3080 1.384 . S
C3082 C3083 1.372 . S
C3083 C3082 1.372 . S
C3083 C3084 1.400 . S
C3083 C3088 1.490 . S
C3084 H3074 0.930 . S
C3084 C3083 1.400 . S
C3084 C3087 1.386 . S
H3085 C3101 0.930 . S
H3086 C3102 0.931 . S
C3087 H3075 0.929 . S
C3087 C3081 1.390 . S
C3087 C3084 1.386 . S
C3088 C3083 1.490 . S
C3088 C3090 1.395 . S
C3088 C3091 1.403 . S
H3089 C3095 0.930 . S
C3090 H3076 0.930 . S
C3090 C3088 1.395 . S
C3090 C3093 1.403 . S
C3091 C3088 1.403 . S
C3091 C3092 1.524 . S
C3091 C3095 1.400 . S
C3092 H3077 0.960 . S
C3092 H3078 0.960 . S
C3092 H3079 0.960 . S
C3092 C3091 1.524 . S
C3093 C3090 1.403 . S
C3093 C3094 1.392 . S
C3093 C3097 1.495 . S
C3094 C3093 1.392 . S
C3094 C3095 1.385 . S
C3094 C3096 1.478 . S
C3095 H3089 0.930 . S
C3095 C3091 1.400 . S
C3095 C3094 1.385 . S
C3096 C3094 1.478 . S
C3096 C3098 1.381 . S
C3096 C3102 1.383 . S
C3097 C3093 1.495 . S
C3097 H3103 0.959 . S
C3097 H3104 0.961 . S
C3097 H3105 0.960 . S
C3098 C3096 1.381 . S
C3098 C3099 1.394 . S
C3098 H3106 0.930 . S
C3099 C3098 1.394 . S
C3099 C3100 1.383 . S
C3099 H3107 0.929 . S
C3100 C3099 1.383 . S
C3100 C3101 1.377 . S
C3101 H3085 0.930 . S
C3101 C3100 1.377 . S
C3101 C3102 1.379 . S
C3102 H3086 0.931 . S
C3102 C3096 1.383 . S
C3102 C3101 1.379 . S
H3103 C3097 0.959 . S
H3104 C3097 0.961 . S
H3105 C3097 0.960 . S
H3106 C3098 0.930 . S
H3107 C3099 0.929 . S
H3108 C3116 0.929 . S
H3109 C3118 0.930 . S
H3110 C3120 0.930 . S
H3111 C3123 0.929 . S
H3112 C3126 0.930 . S
H3113 C3128 0.960 . S
H3114 C3128 0.960 . S
H3115 C3128 0.960 . S
C3116 H3108 0.929 . S
C3116 C3117 1.377 . S
C3116 C3118 1.384 . S
C3117 C3116 1.377 . S
C3117 C3123 1.390 . S
C3118 H3109 0.930 . S
C3118 C3116 1.384 . S
C3118 C3119 1.372 . S
C3119 C3118 1.372 . S
C3119 C3120 1.400 . S
C3119 C3124 1.490 . S
C3120 H3110 0.930 . S
C3120 C3119 1.400 . S
C3120 C3123 1.386 . S
H3121 C3137 0.930 . S
H3122 C3138 0.931 . S
C3123 H3111 0.929 . S
C3123 C3117 1.390 . S
C3123 C3120 1.386 . S
C3124 C3119 1.490 . S
C3124 C3126 1.395 . S
C3124 C3127 1.403 . S
H3125 C3131 0.930 . S
C3126 H3112 0.930 . S
C3126 C3124 1.395 . S
C3126 C3129 1.403 . S
C3127 C3124 1.403 . S
C3127 C3128 1.524 . S
C3127 C3131 1.400 . S
C3128 H3113 0.960 . S
C3128 H3114 0.960 . S
C3128 H3115 0.960 . S
C3128 C3127 1.524 . S
C3129 C3126 1.403 . S
C3129 C3130 1.392 . S
C3129 C3133 1.495 . S
C3130 C3129 1.392 . S
C3130 C3131 1.385 . S
C3130 C3132 1.478 . S
C3131 H3125 0.930 . S
C3131 C3127 1.400 . S
C3131 C3130 1.385 . S
C3132 C3130 1.478 . S
C3132 C3134 1.381 . S
C3132 C3138 1.383 . S
C3133 C3129 1.495 . S
C3133 H3139 0.959 . S
C3133 H3140 0.961 . S
C3133 H3141 0.960 . S
C3134 C3132 1.381 . S
C3134 C3135 1.394 . S
C3134 H3142 0.930 . S
C3135 C3134 1.394 . S
C3135 C3136 1.383 . S
C3135 H3143 0.929 . S
C3136 C3135 1.383 . S
C3136 C3137 1.377 . S
C3137 H3121 0.930 . S
C3137 C3136 1.377 . S
C3137 C3138 1.379 . S
C3138 H3122 0.931 . S
C3138 C3132 1.383 . S
C3138 C3137 1.379 . S
H3139 C3133 0.959 . S
H3140 C3133 0.961 . S
H3141 C3133 0.960 . S
H3142 C3134 0.930 . S
H3143 C3135 0.929 . S
H3144 C3152 0.929 . S
H3145 C3154 0.930 . S
H3146 C3156 0.930 . S
H3147 C3159 0.929 . S
H3148 C3162 0.930 1_545 S
H3149 C3164 0.960 . S
H3150 C3164 0.960 . S
H3151 C3164 0.960 . S
C3152 H3144 0.929 . S
C3152 C3153 1.377 . S
C3152 C3154 1.384 . S
C3153 C3152 1.377 . S
C3153 C3159 1.390 . S
C3154 H3145 0.930 . S
C3154 C3152 1.384 . S
C3154 C3155 1.372 . S
C3155 C3154 1.372 . S
C3155 C3156 1.400 . S
C3155 C3160 1.490 . S
C3156 H3146 0.930 . S
C3156 C3155 1.400 . S
C3156 C3159 1.386 . S
H3157 C3173 0.930 . S
H3158 C3174 0.931 . S
C3159 H3147 0.929 . S
C3159 C3153 1.390 . S
C3159 C3156 1.386 . S
C3160 C3155 1.490 . S
C3160 C3162 1.395 . S
C3160 C3163 1.403 . S
H3161 C3167 0.930 . S
C3162 H3148 0.930 1_565 S
C3162 C3160 1.395 . S
C3162 C3165 1.403 . S
C3163 C3160 1.403 . S
C3163 C3164 1.524 . S
C3163 C3167 1.400 . S
C3164 H3149 0.960 . S
C3164 H3150 0.960 . S
C3164 H3151 0.960 . S
C3164 C3163 1.524 . S
C3165 C3162 1.403 . S
C3165 C3166 1.392 . S
C3165 C3169 1.495 1_565 S
C3166 C3165 1.392 . S
C3166 C3167 1.385 . S
C3166 C3168 1.478 . S
C3167 H3161 0.930 . S
C3167 C3163 1.400 . S
C3167 C3166 1.385 . S
C3168 C3166 1.478 . S
C3168 C3170 1.381 . S
C3168 C3174 1.383 . S
C3169 C3165 1.495 1_545 S
C3169 H3175 0.959 . S
C3169 H3176 0.961 . S
C3169 H3177 0.960 . S
C3170 C3168 1.381 . S
C3170 C3171 1.394 . S
C3170 H3178 0.930 . S
C3171 C3170 1.394 . S
C3171 C3172 1.383 . S
C3171 H3179 0.929 . S
C3172 C3171 1.383 . S
C3172 C3173 1.377 . S
C3173 H3157 0.930 . S
C3173 C3172 1.377 . S
C3173 C3174 1.379 . S
C3174 H3158 0.931 . S
C3174 C3168 1.383 . S
C3174 C3173 1.379 . S
H3175 C3169 0.959 . S
H3176 C3169 0.961 . S
H3177 C3169 0.960 . S
H3178 C3170 0.930 . S
H3179 C3171 0.929 . S
H3180 C3188 0.899 1_554 S
H3181 C3190 0.930 . S
H3182 C3192 0.930 . S
H3183 C3195 0.929 . S
H3184 C3198 0.930 1_554 S
H3185 C3200 0.960 . S
H3186 C3200 0.960 . S
H3187 C3200 0.960 . S
C3188 H3180 0.899 1_556 S
C3188 C3189 1.397 . S
C3188 C3190 1.401 . S
C3189 C3188 1.397 . S
C3189 C3195 1.390 . S
C3190 H3181 0.930 . S
C3190 C3188 1.401 . S
C3190 C3191 1.372 . S
C3191 C3190 1.372 . S
C3191 C3192 1.400 . S
C3191 C3196 1.490 . S
C3192 H3182 0.930 . S
C3192 C3191 1.400 . S
C3192 C3195 1.386 . S
H3193 C3209 0.930 . S
H3194 C3210 0.931 . S
C3195 H3183 0.929 . S
C3195 C3189 1.390 . S
C3195 C3192 1.386 . S
C3196 C3191 1.490 . S
C3196 C3198 1.395 . S
C3196 C3199 1.403 . S
H3197 C3203 0.930 . S
C3198 H3184 0.930 1_556 S
C3198 C3196 1.395 . S
C3198 C3201 1.403 . S
C3199 C3196 1.403 . S
C3199 C3200 1.524 . S
C3199 C3203 1.400 . S
C3200 H3185 0.960 . S
C3200 H3186 0.960 . S
C3200 H3187 0.960 . S
C3200 C3199 1.524 . S
C3201 C3198 1.403 . S
C3201 C3202 1.392 . S
C3201 C3205 1.495 1_556 S
C3202 C3201 1.392 . S
C3202 C3203 1.385 . S
C3202 C3204 1.478 . S
C3203 H3197 0.930 . S
C3203 C3199 1.400 . S
C3203 C3202 1.385 . S
C3204 C3202 1.478 . S
C3204 C3206 1.381 . S
C3204 C3210 1.383 . S
C3205 C3201 1.495 1_554 S
C3205 H3211 0.959 . S
C3205 H3212 0.961 . S
C3205 H3213 0.960 . S
C3206 C3204 1.381 . S
C3206 C3207 1.394 . S
C3206 H3214 0.930 . S
C3207 C3206 1.394 . S
C3207 C3208 1.383 . S
C3207 H3215 0.929 . S
C3208 C3207 1.383 . S
C3208 C3209 1.377 . S
C3209 H3193 0.930 . S
C3209 C3208 1.377 . S
C3209 C3210 1.379 . S
C3210 H3194 0.931 . S
C3210 C3204 1.383 . S
C3210 C3209 1.379 . S
H3211 C3205 0.959 . S
H3212 C3205 0.961 . S
H3213 C3205 0.960 . S
H3214 C3206 0.930 . S
H3215 C3207 0.929 . S
H3216 C3224 0.929 . S
H3217 C3226 0.930 . S
H3218 C3228 0.930 . S
H3219 C3231 0.929 . S
H3220 C3234 0.930 . S
H3221 C3236 0.960 . S
H3222 C3236 0.960 . S
H3223 C3236 0.960 . S
C3224 H3216 0.929 . S
C3224 C3225 1.377 . S
C3224 C3226 1.384 . S
C3225 C3224 1.377 . S
C3225 C3231 1.390 . S
C3226 H3217 0.930 . S
C3226 C3224 1.384 . S
C3226 C3227 1.372 . S
C3227 C3226 1.372 . S
C3227 C3228 1.400 . S
C3227 C3232 1.490 . S
C3228 H3218 0.930 . S
C3228 C3227 1.400 . S
C3228 C3231 1.386 . S
H3229 C3245 0.930 . S
H3230 C3246 0.931 . S
C3231 H3219 0.929 . S
C3231 C3225 1.390 . S
C3231 C3228 1.386 . S
C3232 C3227 1.490 . S
C3232 C3234 1.395 . S
C3232 C3235 1.403 . S
H3233 C3239 0.930 . S
C3234 H3220 0.930 . S
C3234 C3232 1.395 . S
C3234 C3237 1.403 . S
C3235 C3232 1.403 . S
C3235 C3236 1.524 . S
C3235 C3239 1.400 . S
C3236 H3221 0.960 . S
C3236 H3222 0.960 . S
C3236 H3223 0.960 . S
C3236 C3235 1.524 . S
C3237 C3234 1.403 . S
C3237 C3238 1.392 . S
C3237 C3241 1.495 . S
C3238 C3237 1.392 . S
C3238 C3239 1.385 . S
C3238 C3240 1.478 . S
C3239 H3233 0.930 . S
C3239 C3235 1.400 . S
C3239 C3238 1.385 . S
C3240 C3238 1.478 . S
C3240 C3242 1.381 . S
C3240 C3246 1.383 . S
C3241 C3237 1.495 . S
C3241 H3247 0.959 . S
C3241 H3248 0.961 . S
C3241 H3249 0.960 . S
C3242 C3240 1.381 . S
C3242 C3243 1.394 . S
C3242 H3250 0.930 . S
C3243 C3242 1.394 . S
C3243 C3244 1.383 . S
C3243 H3251 0.929 . S
C3244 C3243 1.383 . S
C3244 C3245 1.377 . S
C3245 H3229 0.930 . S
C3245 C3244 1.377 . S
C3245 C3246 1.379 . S
C3246 H3230 0.931 . S
C3246 C3240 1.383 . S
C3246 C3245 1.379 . S
H3247 C3241 0.959 . S
H3248 C3241 0.961 . S
H3249 C3241 0.960 . S
H3250 C3242 0.930 . S
H3251 C3243 0.929 . S
H3252 C3260 0.929 . S
H3253 C3262 0.930 . S
H3254 C3264 0.930 . S
H3255 C3267 0.929 . S
H3256 C3270 0.930 . S
H3257 C3272 0.960 . S
H3258 C3272 0.960 . S
H3259 C3272 0.960 . S
C3260 H3252 0.929 . S
C3260 C3261 1.377 . S
C3260 C3262 1.384 . S
C3261 C3260 1.377 . S
C3261 C3267 1.390 . S
C3262 H3253 0.930 . S
C3262 C3260 1.384 . S
C3262 C3263 1.372 . S
C3263 C3262 1.372 . S
C3263 C3264 1.400 . S
C3263 C3268 1.490 . S
C3264 H3254 0.930 . S
C3264 C3263 1.400 . S
C3264 C3267 1.386 . S
H3265 C3281 0.930 . S
H3266 C3282 0.931 . S
C3267 H3255 0.929 . S
C3267 C3261 1.390 . S
C3267 C3264 1.386 . S
C3268 C3263 1.490 . S
C3268 C3270 1.395 . S
C3268 C3271 1.403 . S
H3269 C3275 0.930 . S
C3270 H3256 0.930 . S
C3270 C3268 1.395 . S
C3270 C3273 1.403 . S
C3271 C3268 1.403 . S
C3271 C3272 1.524 . S
C3271 C3275 1.400 . S
C3272 H3257 0.960 . S
C3272 H3258 0.960 . S
C3272 H3259 0.960 . S
C3272 C3271 1.524 . S
C3273 C3270 1.403 . S
C3273 C3274 1.392 . S
C3273 C3277 1.495 . S
C3274 C3273 1.392 . S
C3274 C3275 1.385 . S
C3274 C3276 1.478 . S
C3275 H3269 0.930 . S
C3275 C3271 1.400 . S
C3275 C3274 1.385 . S
C3276 C3274 1.478 . S
C3276 C3278 1.381 . S
C3276 C3282 1.383 . S
C3277 C3273 1.495 . S
C3277 H3283 0.959 . S
C3277 H3284 0.961 . S
C3277 H3285 0.960 . S
C3278 C3276 1.381 . S
C3278 C3279 1.394 . S
C3278 H3286 0.930 . S
C3279 C3278 1.394 . S
C3279 C3280 1.383 . S
C3279 H3287 0.929 . S
C3280 C3279 1.383 . S
C3280 C3281 1.377 . S
C3281 H3265 0.930 . S
C3281 C3280 1.377 . S
C3281 C3282 1.379 . S
C3282 H3266 0.931 . S
C3282 C3276 1.383 . S
C3282 C3281 1.379 . S
H3283 C3277 0.959 . S
H3284 C3277 0.961 . S
H3285 C3277 0.960 . S
H3286 C3278 0.930 . S
H3287 C3279 0.929 . S
H3288 C3296 0.929 . S
H3289 C3298 0.930 . S
H3290 C3300 0.930 . S
H3291 C3303 0.929 . S
H3292 C3306 0.930 . S
H3293 C3308 0.904 1_545 S
H3294 C3308 0.960 . S
H3295 C3308 0.960 . S
C3296 H3288 0.929 . S
C3296 C3297 1.377 . S
C3296 C3298 1.384 . S
C3297 C3296 1.377 . S
C3297 C3303 1.390 . S
C3298 H3289 0.930 . S
C3298 C3296 1.384 . S
C3298 C3299 1.372 . S
C3299 C3298 1.372 . S
C3299 C3300 1.400 . S
C3299 C3304 1.490 . S
C3300 H3290 0.930 . S
C3300 C3299 1.400 . S
C3300 C3303 1.386 . S
H3301 C3317 0.930 . S
H3302 C3318 0.931 . S
C3303 H3291 0.929 . S
C3303 C3297 1.390 . S
C3303 C3300 1.386 . S
C3304 C3299 1.490 . S
C3304 C3306 1.395 . S
C3304 C3307 1.403 . S
H3305 C3311 0.930 . S
C3306 H3292 0.930 . S
C3306 C3304 1.395 . S
C3306 C3309 1.403 . S
C3307 C3304 1.403 . S
C3307 C3308 1.524 . S
C3307 C3311 1.400 . S
C3308 H3293 0.904 1_565 S
C3308 H3294 0.960 . S
C3308 H3295 0.960 . S
C3308 C3307 1.524 . S
C3309 C3306 1.403 . S
C3309 C3310 1.392 . S
C3309 C3313 1.495 . S
C3310 C3309 1.392 . S
C3310 C3311 1.385 . S
C3310 C3312 1.478 . S
C3311 H3305 0.930 . S
C3311 C3307 1.400 . S
C3311 C3310 1.385 . S
C3312 C3310 1.478 . S
C3312 C3314 1.381 . S
C3312 C3318 1.383 . S
C3313 C3309 1.495 . S
C3313 H3319 0.959 . S
C3313 H3320 0.961 . S
C3313 H3321 0.960 . S
C3314 C3312 1.381 . S
C3314 C3315 1.394 . S
C3314 H3322 0.930 . S
C3315 C3314 1.394 . S
C3315 C3316 1.383 . S
C3315 H3323 0.929 . S
C3316 C3315 1.383 . S
C3316 C3317 1.377 . S
C3317 H3301 0.930 . S
C3317 C3316 1.377 . S
C3317 C3318 1.379 . S
C3318 H3302 0.931 . S
C3318 C3312 1.383 . S
C3318 C3317 1.379 . S
H3319 C3313 0.959 . S
H3320 C3313 0.961 . S
H3321 C3313 0.960 . S
H3322 C3314 0.930 . S
H3323 C3315 0.929 . S
H3324 C3332 0.929 . S
H3325 C3334 0.930 . S
H3326 C3336 0.930 . S
H3327 C3339 0.929 . S
H3328 C3342 0.930 . S
H3329 C3344 0.960 . S
H3330 C3344 0.960 . S
H3331 C3344 0.960 . S
C3332 H3324 0.929 . S
C3332 C3333 1.377 . S
C3332 C3334 1.384 . S
C3333 C3332 1.377 . S
C3333 C3339 1.390 . S
C3334 H3325 0.930 . S
C3334 C3332 1.384 . S
C3334 C3335 1.372 . S
C3335 C3334 1.372 . S
C3335 C3336 1.400 . S
C3335 C3340 1.490 . S
C3336 H3326 0.930 . S
C3336 C3335 1.400 . S
C3336 C3339 1.386 . S
H3337 C3353 0.930 . S
H3338 C3354 0.931 . S
C3339 H3327 0.929 . S
C3339 C3333 1.390 . S
C3339 C3336 1.386 . S
C3340 C3335 1.490 . S
C3340 C3342 1.395 . S
C3340 C3343 1.403 . S
H3341 C3347 0.930 . S
C3342 H3328 0.930 . S
C3342 C3340 1.395 . S
C3342 C3345 1.403 . S
C3343 C3340 1.403 . S
C3343 C3344 1.524 . S
C3343 C3347 1.400 . S
C3344 H3329 0.960 . S
C3344 H3330 0.960 . S
C3344 H3331 0.960 . S
C3344 C3343 1.524 . S
C3345 C3342 1.403 . S
C3345 C3346 1.392 . S
C3345 C3349 1.495 . S
C3346 C3345 1.392 . S
C3346 C3347 1.385 . S
C3346 C3348 1.478 . S
C3347 H3341 0.930 . S
C3347 C3343 1.400 . S
C3347 C3346 1.385 . S
C3348 C3346 1.478 . S
C3348 C3350 1.381 . S
C3348 C3354 1.383 . S
C3349 C3345 1.495 . S
C3349 H3355 0.959 . S
C3349 H3356 0.961 . S
C3349 H3357 0.960 . S
C3350 C3348 1.381 . S
C3350 C3351 1.394 . S
C3350 H3358 0.930 . S
C3351 C3350 1.394 . S
C3351 C3352 1.383 . S
C3351 H3359 0.929 . S
C3352 C3351 1.383 . S
C3352 C3353 1.377 . S
C3353 H3337 0.930 . S
C3353 C3352 1.377 . S
C3353 C3354 1.379 . S
C3354 H3338 0.931 . S
C3354 C3348 1.383 . S
C3354 C3353 1.379 . S
H3355 C3349 0.959 . S
H3356 C3349 0.961 . S
H3357 C3349 0.960 . S
H3358 C3350 0.930 . S
H3359 C3351 0.929 . S
H3360 C3368 0.929 . S
H3361 C3370 0.930 . S
H3362 C3372 0.930 . S
H3363 C3375 0.929 . S
H3364 C3378 0.930 . S
H3365 C3380 0.960 . S
H3366 C3380 0.960 . S
H3367 C3380 0.960 . S
C3368 H3360 0.929 . S
C3368 C3369 1.377 . S
C3368 C3370 1.384 . S
C3369 C3368 1.377 . S
C3369 C3375 1.390 . S
C3370 H3361 0.930 . S
C3370 C3368 1.384 . S
C3370 C3371 1.372 . S
C3371 C3370 1.372 . S
C3371 C3372 1.400 . S
C3371 C3376 1.490 . S
C3372 H3362 0.930 . S
C3372 C3371 1.400 . S
C3372 C3375 1.386 . S
H3373 C3389 0.930 . S
H3374 C3390 0.931 . S
C3375 H3363 0.929 . S
C3375 C3369 1.390 . S
C3375 C3372 1.386 . S
C3376 C3371 1.490 . S
C3376 C3378 1.395 . S
C3376 C3379 1.403 . S
H3377 C3383 0.930 . S
C3378 H3364 0.930 . S
C3378 C3376 1.395 . S
C3378 C3381 1.403 . S
C3379 C3376 1.403 . S
C3379 C3380 1.524 . S
C3379 C3383 1.400 . S
C3380 H3365 0.960 . S
C3380 H3366 0.960 . S
C3380 H3367 0.960 . S
C3380 C3379 1.524 . S
C3381 C3378 1.403 . S
C3381 C3382 1.392 . S
C3381 C3385 1.495 . S
C3382 C3381 1.392 . S
C3382 C3383 1.385 . S
C3382 C3384 1.478 . S
C3383 H3377 0.930 . S
C3383 C3379 1.400 . S
C3383 C3382 1.385 . S
C3384 C3382 1.478 . S
C3384 C3386 1.381 . S
C3384 C3390 1.383 . S
C3385 C3381 1.495 . S
C3385 H3391 0.959 . S
C3385 H3392 0.961 . S
C3385 H3393 0.960 . S
C3386 C3384 1.381 . S
C3386 C3387 1.394 . S
C3386 H3394 0.930 . S
C3387 C3386 1.394 . S
C3387 C3388 1.383 . S
C3387 H3395 0.929 . S
C3388 C3387 1.383 . S
C3388 C3389 1.377 . S
C3389 H3373 0.930 . S
C3389 C3388 1.377 . S
C3389 C3390 1.379 . S
C3390 H3374 0.931 . S
C3390 C3384 1.383 . S
C3390 C3389 1.379 . S
H3391 C3385 0.959 . S
H3392 C3385 0.961 . S
H3393 C3385 0.960 . S
H3394 C3386 0.930 . S
H3395 C3387 0.929 . S
H3396 C3404 0.929 . S
H3397 C3406 0.930 . S
H3398 C3408 0.930 . S
H3399 C3411 0.929 . S
H3400 C3414 0.930 . S
H3401 C3416 0.960 . S
H3402 C3416 0.960 . S
H3403 C3416 0.960 . S
C3404 H3396 0.929 . S
C3404 C3405 1.377 1_554 S
C3404 C3406 1.384 . S
C3405 C3404 1.377 1_556 S
C3405 C3411 1.390 . S
C3406 H3397 0.930 . S
C3406 C3404 1.384 . S
C3406 C3407 1.292 1_554 S
C3407 C3406 1.292 1_556 S
C3407 C3408 1.490 . S
C3407 C3412 1.485 1_556 S
C3408 H3398 0.930 . S
C3408 C3407 1.490 . S
C3408 C3411 1.386 . S
H3409 C3425 0.930 . S
H3410 C3426 0.931 . S
C3411 H3399 0.929 . S
C3411 C3405 1.390 . S
C3411 C3408 1.386 . S
C3412 C3407 1.485 1_554 S
C3412 C3414 1.405 . S
C3412 C3415 1.395 1_554 S
H3413 C3419 0.930 . S
C3414 H3400 0.930 . S
C3414 C3412 1.405 . S
C3414 C3417 1.403 . S
C3415 C3412 1.395 1_556 S
C3415 C3416 1.524 . S
C3415 C3419 1.400 . S
C3416 H3401 0.960 . S
C3416 H3402 0.960 . S
C3416 H3403 0.960 . S
C3416 C3415 1.524 . S
C3417 C3414 1.403 . S
C3417 C3418 1.392 . S
C3417 C3421 1.495 . S
C3418 C3417 1.392 . S
C3418 C3419 1.385 1_554 S
C3418 C3420 1.478 . S
C3419 H3413 0.930 . S
C3419 C3415 1.400 . S
C3419 C3418 1.385 1_556 S
C3420 C3418 1.478 . S
C3420 C3422 1.381 . S
C3420 C3426 1.383 1_554 S
C3421 C3417 1.495 . S
C3421 H3427 0.959 . S
C3421 H3428 0.961 . S
C3421 H3429 0.960 . S
C3422 C3420 1.381 . S
C3422 C3423 1.394 . S
C3422 H3430 0.930 . S
C3423 C3422 1.394 . S
C3423 C3424 1.383 . S
C3423 H3431 0.929 . S
C3424 C3423 1.383 . S
C3424 C3425 1.377 1_554 S
C3425 H3409 0.930 . S
C3425 C3424 1.377 1_556 S
C3425 C3426 1.379 . S
C3426 H3410 0.931 . S
C3426 C3420 1.383 1_556 S
C3426 C3425 1.379 . S
H3427 C3421 0.959 . S
H3428 C3421 0.961 . S
H3429 C3421 0.960 . S
H3430 C3422 0.930 . S
H3431 C3423 0.929 . S
H3432 C3440 0.929 . S
H3433 C3442 0.930 . S
H3434 C3444 0.930 . S
H3435 C3447 0.929 . S
H3436 C3450 0.930 . S
H3437 C3452 0.960 . S
H3438 C3452 0.960 . S
H3439 C3452 0.960 . S
C3440 H3432 0.929 . S
C3440 C3441 1.377 . S
C3440 C3442 1.384 . S
C3441 C3440 1.377 . S
C3441 C3447 1.390 . S
C3442 H3433 0.930 . S
C3442 C3440 1.384 . S
C3442 C3443 1.372 . S
C3443 C3442 1.372 . S
C3443 C3444 1.400 . S
C3443 C3448 1.490 . S
C3444 H3434 0.930 . S
C3444 C3443 1.400 . S
C3444 C3447 1.386 . S
H3445 C3461 0.930 . S
H3446 C3462 0.931 . S
C3447 H3435 0.929 . S
C3447 C3441 1.390 . S
C3447 C3444 1.386 . S
C3448 C3443 1.490 . S
C3448 C3450 1.395 . S
C3448 C3451 1.403 . S
H3449 C3455 0.930 . S
C3450 H3436 0.930 . S
C3450 C3448 1.395 . S
C3450 C3453 1.403 . S
C3451 C3448 1.403 . S
C3451 C3452 1.524 . S
C3451 C3455 1.400 . S
C3452 H3437 0.960 . S
C3452 H3438 0.960 . S
C3452 H3439 0.960 . S
C3452 C3451 1.524 . S
C3453 C3450 1.403 . S
C3453 C3454 1.392 . S
C3453 C3457 1.495 . S
C3454 C3453 1.392 . S
C3454 C3455 1.385 . S
C3454 C3456 1.478 . S
C3455 H3449 0.930 . S
C3455 C3451 1.400 . S
C3455 C3454 1.385 . S
C3456 C3454 1.478 . S
C3456 C3458 1.381 . S
C3456 C3462 1.383 . S
C3457 C3453 1.495 . S
C3457 H3463 0.959 . S
C3457 H3464 0.961 . S
C3457 H3465 0.960 . S
C3458 C3456 1.381 . S
C3458 C3459 1.394 . S
C3458 H3466 0.930 . S
C3459 C3458 1.394 . S
C3459 C3460 1.383 . S
C3459 H3467 0.929 . S
C3460 C3459 1.383 . S
C3460 C3461 1.377 . S
C3461 H3445 0.930 . S
C3461 C3460 1.377 . S
C3461 C3462 1.379 . S
C3462 H3446 0.931 . S
C3462 C3456 1.383 . S
C3462 C3461 1.379 . S
H3463 C3457 0.959 . S
H3464 C3457 0.961 . S
H3465 C3457 0.960 . S
H3466 C3458 0.930 . S
H3467 C3459 0.929 . S
H3468 C3476 0.929 . S
H3469 C3478 0.930 . S
H3470 C3480 0.930 . S
H3471 C3483 0.929 . S
H3472 C3486 0.930 . S
H3473 C3488 0.960 . S
H3474 C3488 0.960 . S
H3475 C3488 0.960 . S
C3476 H3468 0.929 . S
C3476 C3477 1.377 . S
C3476 C3478 1.384 . S
C3477 C3476 1.377 . S
C3477 C3483 1.390 . S
C3478 H3469 0.930 . S
C3478 C3476 1.384 . S
C3478 C3479 1.372 . S
C3479 C3478 1.372 . S
C3479 C3480 1.400 . S
C3479 C3484 1.490 . S
C3480 H3470 0.930 . S
C3480 C3479 1.400 . S
C3480 C3483 1.386 . S
H3481 C3497 0.930 . S
H3482 C3498 0.931 . S
C3483 H3471 0.929 . S
C3483 C3477 1.390 . S
C3483 C3480 1.386 . S
C3484 C3479 1.490 . S
C3484 C3486 1.395 . S
C3484 C3487 1.403 . S
H3485 C3491 0.930 . S
C3486 H3472 0.930 . S
C3486 C3484 1.395 . S
C3486 C3489 1.403 . S
C3487 C3484 1.403 . S
C3487 C3488 1.524 . S
C3487 C3491 1.400 . S
C3488 H3473 0.960 . S
C3488 H3474 0.960 . S
C3488 H3475 0.960 . S
C3488 C3487 1.524 . S
C3489 C3486 1.403 . S
C3489 C3490 1.392 . S
C3489 C3493 1.495 . S
C3490 C3489 1.392 . S
C3490 C3491 1.385 . S
C3490 C3492 1.478 . S
C3491 H3485 0.930 . S
C3491 C3487 1.400 . S
C3491 C3490 1.385 . S
C3492 C3490 1.478 . S
C3492 C3494 1.381 . S
C3492 C3498 1.383 . S
C3493 C3489 1.495 . S
C3493 H3499 0.959 . S
C3493 H3500 0.961 . S
C3493 H3501 0.960 . S
C3494 C3492 1.381 . S
C3494 C3495 1.394 . S
C3494 H3502 0.930 . S
C3495 C3494 1.394 . S
C3495 C3496 1.383 . S
C3495 H3503 0.929 . S
C3496 C3495 1.383 . S
C3496 C3497 1.377 . S
C3497 H3481 0.930 . S
C3497 C3496 1.377 . S
C3497 C3498 1.379 . S
C3498 H3482 0.931 . S
C3498 C3492 1.383 . S
C3498 C3497 1.379 . S
H3499 C3493 0.959 . S
H3500 C3493 0.961 . S
H3501 C3493 0.960 . S
H3502 C3494 0.930 . S
H3503 C3495 0.929 . S
H3504 C3512 0.929 . S
H3505 C3514 0.930 . S
H3506 C3516 0.930 . S
H3507 C3519 0.929 . S
H3508 C3522 0.930 . S
H3509 C3524 0.960 . S
H3510 C3524 0.960 . S
H3511 C3524 0.960 . S
C3512 H3504 0.929 . S
C3512 C3513 1.377 . S
C3512 C3514 1.384 . S
C3513 C3512 1.377 . S
C3513 C3519 1.390 . S
C3514 H3505 0.930 . S
C3514 C3512 1.384 . S
C3514 C3515 1.372 . S
C3515 C3514 1.372 . S
C3515 C3516 1.400 . S
C3515 C3520 1.490 . S
C3516 H3506 0.930 . S
C3516 C3515 1.400 . S
C3516 C3519 1.386 . S
H3517 C3533 0.930 . S
H3518 C3534 0.931 . S
C3519 H3507 0.929 . S
C3519 C3513 1.390 . S
C3519 C3516 1.386 . S
C3520 C3515 1.490 . S
C3520 C3522 1.395 . S
C3520 C3523 1.403 . S
H3521 C3527 0.930 . S
C3522 H3508 0.930 . S
C3522 C3520 1.395 . S
C3522 C3525 1.403 . S
C3523 C3520 1.403 . S
C3523 C3524 1.524 . S
C3523 C3527 1.400 . S
C3524 H3509 0.960 . S
C3524 H3510 0.960 . S
C3524 H3511 0.960 . S
C3524 C3523 1.524 . S
C3525 C3522 1.403 . S
C3525 C3526 1.392 . S
C3525 C3529 1.495 . S
C3526 C3525 1.392 . S
C3526 C3527 1.385 . S
C3526 C3528 1.478 . S
C3527 H3521 0.930 . S
C3527 C3523 1.400 . S
C3527 C3526 1.385 . S
C3528 C3526 1.478 . S
C3528 C3530 1.381 . S
C3528 C3534 1.383 . S
C3529 C3525 1.495 . S
C3529 H3535 0.959 . S
C3529 H3536 0.961 . S
C3529 H3537 0.960 . S
C3530 C3528 1.381 . S
C3530 C3531 1.394 . S
C3530 H3538 0.930 . S
C3531 C3530 1.394 . S
C3531 C3532 1.383 . S
C3531 H3539 0.929 . S
C3532 C3531 1.383 . S
C3532 C3533 1.377 . S
C3533 H3517 0.930 . S
C3533 C3532 1.377 . S
C3533 C3534 1.379 . S
C3534 H3518 0.931 . S
C3534 C3528 1.383 . S
C3534 C3533 1.379 . S
H3535 C3529 0.959 . S
H3536 C3529 0.961 . S
H3537 C3529 0.960 . S
H3538 C3530 0.930 . S
H3539 C3531 0.929 . S
H3540 C3548 0.929 . S
H3541 C3550 0.930 . S
H3542 C3552 0.930 . S
H3543 C3555 0.929 . S
H3544 C3558 0.930 . S
H3545 C3560 0.960 . S
H3546 C3560 0.960 . S
H3547 C3560 0.960 . S
C3548 H3540 0.929 . S
C3548 C3549 1.377 1_455 S
C3548 C3550 1.384 . S
C3549 C3548 1.377 1_655 S
C3549 C3555 1.390 . S
C3550 H3541 0.930 . S
C3550 C3548 1.384 . S
C3550 C3551 1.372 1_455 S
C3551 C3550 1.372 1_655 S
C3551 C3552 1.400 . S
C3551 C3556 1.490 1_655 S
C3552 H3542 0.930 . S
C3552 C3551 1.400 . S
C3552 C3555 1.386 . S
H3553 C3569 0.930 1_655 S
H3554 C3570 0.931 1_655 S
C3555 H3543 0.929 . S
C3555 C3549 1.390 . S
C3555 C3552 1.386 . S
C3556 C3551 1.490 1_455 S
C3556 C3558 1.393 . S
C3556 C3559 1.404 1_455 S
H3557 C3563 0.930 . S
C3558 H3544 0.930 . S
C3558 C3556 1.393 . S
C3558 C3561 1.403 . S
C3559 C3556 1.404 1_655 S
C3559 C3560 1.524 . S
C3559 C3563 1.400 . S
C3560 H3545 0.960 . S
C3560 H3546 0.960 . S
C3560 H3547 0.960 . S
C3560 C3559 1.524 . S
C3561 C3558 1.403 . S
C3561 C3562 1.392 . S
C3561 C3565 1.495 . S
C3562 C3561 1.392 . S
C3562 C3563 1.385 1_455 S
C3562 C3564 1.478 . S
C3563 H3557 0.930 . S
C3563 C3559 1.400 . S
C3563 C3562 1.385 1_655 S
C3564 C3562 1.478 . S
C3564 C3566 1.381 . S
C3564 C3570 1.383 . S
C3565 C3561 1.495 . S
C3565 H3571 0.959 . S
C3565 H3572 0.961 . S
C3565 H3573 0.960 . S
C3566 C3564 1.381 . S
C3566 C3567 1.394 . S
C3566 H3574 0.930 . S
C3567 C3566 1.394 . S
C3567 C3568 1.383 . S
C3567 H3575 0.929 . S
C3568 C3567 1.383 . S
C3568 C3569 1.377 . S
C3569 H3553 0.930 1_455 S
C3569 C3568 1.377 . S
C3569 C3570 1.379 . S
C3570 H3554 0.931 1_455 S
C3570 C3564 1.383 . S
C3570 C3569 1.379 . S
H3571 C3565 0.959 . S
H3572 C3565 0.961 . S
H3573 C3565 0.960 . S
H3574 C3566 0.930 . S
H3575 C3567 0.929 . S
H3576 C3584 0.929 . S
H3577 C3586 0.930 . S
H3578 C3588 0.930 . S
H3579 C3591 0.929 . S
H3580 C3594 0.930 . S
H3581 C3596 0.960 . S
H3582 C3596 0.960 . S
H3583 C3596 0.960 . S
C3584 H3576 0.929 . S
C3584 C3585 1.377 . S
C3584 C3586 1.384 . S
C3585 C3584 1.377 . S
C3585 C3591 1.390 . S
C3586 H3577 0.930 . S
C3586 C3584 1.384 . S
C3586 C3587 1.372 . S
C3587 C3586 1.372 . S
C3587 C3588 1.400 . S
C3587 C3592 1.490 . S
C3588 H3578 0.930 . S
C3588 C3587 1.400 . S
C3588 C3591 1.386 . S
H3589 C3605 0.890 1_554 S
H3590 C3606 0.931 . S
C3591 H3579 0.929 . S
C3591 C3585 1.390 . S
C3591 C3588 1.386 . S
C3592 C3587 1.490 . S
C3592 C3594 1.395 . S
C3592 C3595 1.403 . S
H3593 C3599 0.930 1_554 S
C3594 H3580 0.930 . S
C3594 C3592 1.395 . S
C3594 C3597 1.403 . S
C3595 C3592 1.403 . S
C3595 C3596 1.524 1_556 S
C3595 C3599 1.400 . S
C3596 H3581 0.960 . S
C3596 H3582 0.960 . S
C3596 H3583 0.960 . S
C3596 C3595 1.524 1_554 S
C3597 C3594 1.403 . S
C3597 C3598 1.392 . S
C3597 C3601 1.495 . S
C3598 C3597 1.392 . S
C3598 C3599 1.385 . S
C3598 C3600 1.478 . S
C3599 H3593 0.930 1_556 S
C3599 C3595 1.400 . S
C3599 C3598 1.385 . S
C3600 C3598 1.478 . S
C3600 C3602 1.381 . S
C3600 C3606 1.383 . S
C3601 C3597 1.495 . S
C3601 H3607 0.959 . S
C3601 H3608 0.961 . S
C3601 H3609 0.960 . S
C3602 C3600 1.381 . S
C3602 C3603 1.394 . S
C3602 H3610 0.930 . S
C3603 C3602 1.394 . S
C3603 C3604 1.383 . S
C3603 H3611 0.929 . S
C3604 C3603 1.383 . S
C3604 C3605 1.377 . S
C3605 H3589 0.890 1_556 S
C3605 C3604 1.377 . S
C3605 C3606 1.379 . S
C3606 H3590 0.931 . S
C3606 C3600 1.383 . S
C3606 C3605 1.379 . S
H3607 C3601 0.959 . S
H3608 C3601 0.961 . S
H3609 C3601 0.960 . S
H3610 C3602 0.930 . S
H3611 C3603 0.929 . S
H3612 C3620 0.929 . S
H3613 C3622 0.930 . S
H3614 C3624 0.930 . S
H3615 C3627 0.929 . S
H3616 C3630 0.930 . S
H3617 C3632 0.960 . S
H3618 C3632 0.960 . S
H3619 C3632 0.960 1_565 S
C3620 H3612 0.929 . S
C3620 C3621 1.377 . S
C3620 C3622 1.384 . S
C3621 C3620 1.377 . S
C3621 C3627 1.390 1_545 S
C3622 H3613 0.930 . S
C3622 C3620 1.384 . S
C3622 C3623 1.372 . S
C3623 C3622 1.372 . S
C3623 C3624 1.400 1_545 S
C3623 C3628 1.490 . S
C3624 H3614 0.930 . S
C3624 C3623 1.400 1_565 S
C3624 C3627 1.386 . S
H3625 C3641 0.930 . S
H3626 C3642 0.931 . S
C3627 H3615 0.929 . S
C3627 C3621 1.390 1_565 S
C3627 C3624 1.386 . S
C3628 C3623 1.490 . S
C3628 C3630 1.395 . S
C3628 C3631 1.414 . S
H3629 C3635 0.934 . S
C3630 H3616 0.930 . S
C3630 C3628 1.395 . S
C3630 C3633 1.403 . S
C3631 C3628 1.414 . S
C3631 C3632 1.526 . S
C3631 C3635 1.395 1_545 S
C3632 H3617 0.960 . S
C3632 H3618 0.960 . S
C3632 H3619 0.960 1_545 S
C3632 C3631 1.526 . S
C3633 C3630 1.403 . S
C3633 C3634 1.391 1_545 S
C3633 C3637 1.495 . S
C3634 C3633 1.391 1_565 S
C3634 C3635 1.385 . S
C3634 C3636 1.478 . S
C3635 H3629 0.934 . S
C3635 C3631 1.395 1_565 S
C3635 C3634 1.385 . S
C3636 C3634 1.478 . S
C3636 C3638 1.381 1_565 S
C3636 C3642 1.383 . S
C3637 C3633 1.495 . S
C3637 H3643 0.959 . S
C3637 H3644 0.961 1_545 S
C3637 H3645 0.960 . S
C3638 C3636 1.381 1_545 S
C3638 C3639 1.394 . S
C3638 H3646 0.930 . S
C3639 C3638 1.394 . S
C3639 C3640 1.383 1_545 S
C3639 H3647 0.929 . S
C3640 C3639 1.383 1_565 S
C3640 C3641 1.377 . S
C3641 H3625 0.930 . S
C3641 C3640 1.377 . S
C3641 C3642 1.379 . S
C3642 H3626 0.931 . S
C3642 C3636 1.383 . S
C3642 C3641 1.379 . S
H3643 C3637 0.959 . S
H3644 C3637 0.961 1_565 S
H3645 C3637 0.960 . S
H3646 C3638 0.930 . S
H3647 C3639 0.929 . S
H3648 C3656 0.929 . S
H3649 C3658 0.930 . S
H3650 C3660 0.930 . S
H3651 C3663 0.929 . S
H3652 C3666 0.930 . S
H3653 C3668 0.960 . S
H3654 C3668 0.960 . S
H3655 C3668 0.960 . S
C3656 H3648 0.929 . S
C3656 C3657 1.377 . S
C3656 C3658 1.384 . S
C3657 C3656 1.377 . S
C3657 C3663 1.390 . S
C3658 H3649 0.930 . S
C3658 C3656 1.384 . S
C3658 C3659 1.372 . S
C3659 C3658 1.372 . S
C3659 C3660 1.400 . S
C3659 C3664 1.490 . S
C3660 H3650 0.930 . S
C3660 C3659 1.400 . S
C3660 C3663 1.386 . S
H3661 C3677 0.930 . S
H3662 C3678 0.931 . S
C3663 H3651 0.929 . S
C3663 C3657 1.390 . S
C3663 C3660 1.386 . S
C3664 C3659 1.490 . S
C3664 C3666 1.395 . S
C3664 C3667 1.403 . S
H3665 C3671 0.930 . S
C3666 H3652 0.930 . S
C3666 C3664 1.395 . S
C3666 C3669 1.403 . S
C3667 C3664 1.403 . S
C3667 C3668 1.524 . S
C3667 C3671 1.400 . S
C3668 H3653 0.960 . S
C3668 H3654 0.960 . S
C3668 H3655 0.960 . S
C3668 C3667 1.524 . S
C3669 C3666 1.403 . S
C3669 C3670 1.392 . S
C3669 C3673 1.495 . S
C3670 C3669 1.392 . S
C3670 C3671 1.385 . S
C3670 C3672 1.478 . S
C3671 H3665 0.930 . S
C3671 C3667 1.400 . S
C3671 C3670 1.385 . S
C3672 C3670 1.478 . S
C3672 C3674 1.381 . S
C3672 C3678 1.383 . S
C3673 C3669 1.495 . S
C3673 H3679 0.959 . S
C3673 H3680 0.961 . S
C3673 H3681 0.960 . S
C3674 C3672 1.381 . S
C3674 C3675 1.394 . S
C3674 H3682 0.930 . S
C3675 C3674 1.394 . S
C3675 C3676 1.383 . S
C3675 H3683 0.929 . S
C3676 C3675 1.383 . S
C3676 C3677 1.377 . S
C3677 H3661 0.930 . S
C3677 C3676 1.377 . S
C3677 C3678 1.379 . S
C3678 H3662 0.931 . S
C3678 C3672 1.383 . S
C3678 C3677 1.379 . S
H3679 C3673 0.959 . S
H3680 C3673 0.961 . S
H3681 C3673 0.960 . S
H3682 C3674 0.930 . S
H3683 C3675 0.929 . S
H3684 C3692 0.929 . S
H3685 C3694 0.930 . S
H3686 C3696 0.930 . S
H3687 C3699 0.929 . S
H3688 C3702 0.930 . S
H3689 C3704 0.960 . S
H3690 C3704 0.960 . S
H3691 C3704 0.960 . S
C3692 H3684 0.929 . S
C3692 C3693 1.377 . S
C3692 C3694 1.384 . S
C3693 C3692 1.377 . S
C3693 C3699 1.390 . S
C3694 H3685 0.930 . S
C3694 C3692 1.384 . S
C3694 C3695 1.372 . S
C3695 C3694 1.372 . S
C3695 C3696 1.400 . S
C3695 C3700 1.490 . S
C3696 H3686 0.930 . S
C3696 C3695 1.400 . S
C3696 C3699 1.386 . S
H3697 C3713 0.930 . S
H3698 C3714 0.931 . S
C3699 H3687 0.929 . S
C3699 C3693 1.390 . S
C3699 C3696 1.386 . S
C3700 C3695 1.490 . S
C3700 C3702 1.395 . S
C3700 C3703 1.403 . S
H3701 C3707 0.930 . S
C3702 H3688 0.930 . S
C3702 C3700 1.395 . S
C3702 C3705 1.403 . S
C3703 C3700 1.403 . S
C3703 C3704 1.524 . S
C3703 C3707 1.400 . S
C3704 H3689 0.960 . S
C3704 H3690 0.960 . S
C3704 H3691 0.960 . S
C3704 C3703 1.524 . S
C3705 C3702 1.403 . S
C3705 C3706 1.392 . S
C3705 C3709 1.495 . S
C3706 C3705 1.392 . S
C3706 C3707 1.385 . S
C3706 C3708 1.478 . S
C3707 H3701 0.930 . S
C3707 C3703 1.400 . S
C3707 C3706 1.385 . S
C3708 C3706 1.478 . S
C3708 C3710 1.381 . S
C3708 C3714 1.383 . S
C3709 C3705 1.495 . S
C3709 H3715 0.959 . S
C3709 H3716 0.961 . S
C3709 H3717 0.960 . S
C3710 C3708 1.381 . S
C3710 C3711 1.394 . S
C3710 H3718 0.930 . S
C3711 C3710 1.394 . S
C3711 C3712 1.383 . S
C3711 H3719 0.929 . S
C3712 C3711 1.383 . S
C3712 C3713 1.377 . S
C3713 H3697 0.930 . S
C3713 C3712 1.377 . S
C3713 C3714 1.379 . S
C3714 H3698 0.931 . S
C3714 C3708 1.383 . S
C3714 C3713 1.379 . S
H3715 C3709 0.959 . S
H3716 C3709 0.961 . S
H3717 C3709 0.960 . S
H3718 C3710 0.930 . S
H3719 C3711 0.929 . S
H3720 C3728 0.929 . S
H3721 C3730 0.930 . S
H3722 C3732 0.930 . S
H3723 C3735 0.929 . S
H3724 C3738 0.930 . S
H3725 C3740 0.960 . S
H3726 C3740 0.960 . S
H3727 C3740 0.960 . S
C3728 H3720 0.929 . S
C3728 C3729 1.377 . S
C3728 C3730 1.384 . S
C3729 C3728 1.377 . S
C3729 C3735 1.390 . S
C3730 H3721 0.930 . S
C3730 C3728 1.384 . S
C3730 C3731 1.372 . S
C3731 C3730 1.372 . S
C3731 C3732 1.400 . S
C3731 C3736 1.490 . S
C3732 H3722 0.930 . S
C3732 C3731 1.400 . S
C3732 C3735 1.386 . S
H3733 C3749 0.930 . S
H3734 C3750 0.931 . S
C3735 H3723 0.929 . S
C3735 C3729 1.390 . S
C3735 C3732 1.386 . S
C3736 C3731 1.490 . S
C3736 C3738 1.395 1_556 S
C3736 C3739 1.403 . S
H3737 C3743 0.930 . S
C3738 H3724 0.930 . S
C3738 C3736 1.395 1_554 S
C3738 C3741 1.403 . S
C3739 C3736 1.403 . S
C3739 C3740 1.524 . S
C3739 C3743 1.400 . S
C3740 H3725 0.960 . S
C3740 H3726 0.960 . S
C3740 H3727 0.960 . S
C3740 C3739 1.524 . S
C3741 C3738 1.403 . S
C3741 C3742 1.342 1_554 S
C3741 C3745 1.495 . S
C3742 C3741 1.342 1_556 S
C3742 C3743 1.449 . S
C3742 C3744 1.471 1_556 S
C3743 H3737 0.930 . S
C3743 C3739 1.400 . S
C3743 C3742 1.449 . S
C3744 C3742 1.471 1_554 S
C3744 C3746 1.381 . S
C3744 C3750 1.383 . S
C3745 C3741 1.495 . S
C3745 H3751 0.959 . S
C3745 H3752 0.961 . S
C3745 H3753 0.960 . S
C3746 C3744 1.381 . S
C3746 C3747 1.394 . S
C3746 H3754 0.930 . S
C3747 C3746 1.394 . S
C3747 C3748 1.383 . S
C3747 H3755 0.929 . S
C3748 C3747 1.383 . S
C3748 C3749 1.377 . S
C3749 H3733 0.930 . S
C3749 C3748 1.377 . S
C3749 C3750 1.379 . S
C3750 H3734 0.931 . S
C3750 C3744 1.383 . S
C3750 C3749 1.379 . S
H3751 C3745 0.959 . S
H3752 C3745 0.961 . S
H3753 C3745 0.960 . S
H3754 C3746 0.930 . S
H3755 C3747 0.929 . S
H3756 C3764 0.929 . S
H3757 C3766 0.930 . S
H3758 C3768 0.930 . S
H3759 C3771 0.929 . S
H3760 C3774 0.930 . S
H3761 C3776 0.960 . S
H3762 C3776 0.960 . S
H3763 C3776 0.960 . S
C3764 H3756 0.929 . S
C3764 C3765 1.377 . S
C3764 C3766 1.384 . S
C3765 C3764 1.377 . S
C3765 C3771 1.390 . S
C3766 H3757 0.930 . S
C3766 C3764 1.384 . S
C3766 C3767 1.372 . S
C3767 C3766 1.372 . S
C3767 C3768 1.400 . S
C3767 C3772 1.490 . S
C3768 H3758 0.930 . S
C3768 C3767 1.400 . S
C3768 C3771 1.386 . S
H3769 C3785 0.930 . S
H3770 C3786 0.931 . S
C3771 H3759 0.929 . S
C3771 C3765 1.390 . S
C3771 C3768 1.386 . S
C3772 C3767 1.490 . S
C3772 C3774 1.395 . S
C3772 C3775 1.403 . S
H3773 C3779 0.930 . S
C3774 H3760 0.930 . S
C3774 C3772 1.395 . S
C3774 C3777 1.403 . S
C3775 C3772 1.403 . S
C3775 C3776 1.524 . S
C3775 C3779 1.400 . S
C3776 H3761 0.960 . S
C3776 H3762 0.960 . S
C3776 H3763 0.960 . S
C3776 C3775 1.524 . S
C3777 C3774 1.403 . S
C3777 C3778 1.392 . S
C3777 C3781 1.495 . S
C3778 C3777 1.392 . S
C3778 C3779 1.385 . S
C3778 C3780 1.478 . S
C3779 H3773 0.930 . S
C3779 C3775 1.400 . S
C3779 C3778 1.385 . S
C3780 C3778 1.478 . S
C3780 C3782 1.381 . S
C3780 C3786 1.383 . S
C3781 C3777 1.495 . S
C3781 H3787 0.959 . S
C3781 H3788 0.961 . S
C3781 H3789 0.960 . S
C3782 C3780 1.381 . S
C3782 C3783 1.394 . S
C3782 H3790 0.930 . S
C3783 C3782 1.394 . S
C3783 C3784 1.383 . S
C3783 H3791 0.929 . S
C3784 C3783 1.383 . S
C3784 C3785 1.377 . S
C3785 H3769 0.930 . S
C3785 C3784 1.377 . S
C3785 C3786 1.379 . S
C3786 H3770 0.931 . S
C3786 C3780 1.383 . S
C3786 C3785 1.379 . S
H3787 C3781 0.959 . S
H3788 C3781 0.961 . S
H3789 C3781 0.960 . S
H3790 C3782 0.930 . S
H3791 C3783 0.929 . S
H3792 C3800 0.929 . S
H3793 C3802 0.930 . S
H3794 C3804 0.930 . S
H3795 C3807 0.929 . S
H3796 C3810 0.930 . S
H3797 C3812 0.960 . S
H3798 C3812 0.960 . S
H3799 C3812 0.960 . S
C3800 H3792 0.929 . S
C3800 C3801 1.377 . S
C3800 C3802 1.384 . S
C3801 C3800 1.377 . S
C3801 C3807 1.390 . S
C3802 H3793 0.930 . S
C3802 C3800 1.384 . S
C3802 C3803 1.372 . S
C3803 C3802 1.372 . S
C3803 C3804 1.400 . S
C3803 C3808 1.490 . S
C3804 H3794 0.930 . S
C3804 C3803 1.400 . S
C3804 C3807 1.386 . S
H3805 C3821 0.930 . S
H3806 C3822 0.931 . S
C3807 H3795 0.929 . S
C3807 C3801 1.390 . S
C3807 C3804 1.386 . S
C3808 C3803 1.490 . S
C3808 C3810 1.395 . S
C3808 C3811 1.403 . S
H3809 C3815 0.930 . S
C3810 H3796 0.930 . S
C3810 C3808 1.395 . S
C3810 C3813 1.403 . S
C3811 C3808 1.403 . S
C3811 C3812 1.524 . S
C3811 C3815 1.400 . S
C3812 H3797 0.960 . S
C3812 H3798 0.960 . S
C3812 H3799 0.960 . S
C3812 C3811 1.524 . S
C3813 C3810 1.403 . S
C3813 C3814 1.392 . S
C3813 C3817 1.495 . S
C3814 C3813 1.392 . S
C3814 C3815 1.385 . S
C3814 C3816 1.478 . S
C3815 H3809 0.930 . S
C3815 C3811 1.400 . S
C3815 C3814 1.385 . S
C3816 C3814 1.478 . S
C3816 C3818 1.381 . S
C3816 C3822 1.383 . S
C3817 C3813 1.495 . S
C3817 H3823 0.959 . S
C3817 H3824 0.961 . S
C3817 H3825 0.960 . S
C3818 C3816 1.381 . S
C3818 C3819 1.394 . S
C3818 H3826 0.930 . S
C3819 C3818 1.394 . S
C3819 C3820 1.383 . S
C3819 H3827 0.929 . S
C3820 C3819 1.383 . S
C3820 C3821 1.377 . S
C3821 H3805 0.930 . S
C3821 C3820 1.377 . S
C3821 C3822 1.379 . S
C3822 H3806 0.931 . S
C3822 C3816 1.383 . S
C3822 C3821 1.379 . S
H3823 C3817 0.959 . S
H3824 C3817 0.961 . S
H3825 C3817 0.960 . S
H3826 C3818 0.930 . S
H3827 C3819 0.929 . S
H3828 C3836 0.929 . S
H3829 C3838 0.930 . S
H3830 C3840 0.930 . S
H3831 C3843 0.929 1_545 S
H3832 C3846 0.930 . S
H3833 C3848 0.960 . S
H3834 C3848 0.960 . S
H3835 C3848 0.960 . S
C3836 H3828 0.929 . S
C3836 C3837 1.377 . S
C3836 C3838 1.384 . S
C3837 C3836 1.377 . S
C3837 C3843 1.390 . S
C3838 H3829 0.930 . S
C3838 C3836 1.384 . S
C3838 C3839 1.372 . S
C3839 C3838 1.372 . S
C3839 C3840 1.400 . S
C3839 C3844 1.490 . S
C3840 H3830 0.930 . S
C3840 C3839 1.400 . S
C3840 C3843 1.386 . S
H3841 C3857 0.930 . S
H3842 C3858 0.931 . S
C3843 H3831 0.929 1_565 S
C3843 C3837 1.390 . S
C3843 C3840 1.386 . S
C3844 C3839 1.490 . S
C3844 C3846 1.395 . S
C3844 C3847 1.403 . S
H3845 C3851 0.930 . S
C3846 H3832 0.930 . S
C3846 C3844 1.395 . S
C3846 C3849 1.403 . S
C3847 C3844 1.403 . S
C3847 C3848 1.524 . S
C3847 C3851 1.400 . S
C3848 H3833 0.960 . S
C3848 H3834 0.960 . S
C3848 H3835 0.960 . S
C3848 C3847 1.524 . S
C3849 C3846 1.403 . S
C3849 C3850 1.392 . S
C3849 C3853 1.495 1_556 S
C3850 C3849 1.392 . S
C3850 C3851 1.385 . S
C3850 C3852 1.478 . S
C3851 H3845 0.930 . S
C3851 C3847 1.400 . S
C3851 C3850 1.385 . S
C3852 C3850 1.478 . S
C3852 C3854 1.381 . S
C3852 C3858 1.383 . S
C3853 C3849 1.495 1_554 S
C3853 H3859 0.959 . S
C3853 H3860 0.961 . S
C3853 H3861 0.960 . S
C3854 C3852 1.381 . S
C3854 C3855 1.394 . S
C3854 H3862 0.930 . S
C3855 C3854 1.394 . S
C3855 C3856 1.383 . S
C3855 H3863 0.929 . S
C3856 C3855 1.383 . S
C3856 C3857 1.377 . S
C3857 H3841 0.930 . S
C3857 C3856 1.377 . S
C3857 C3858 1.379 . S
C3858 H3842 0.931 . S
C3858 C3852 1.383 . S
C3858 C3857 1.379 . S
H3859 C3853 0.959 . S
H3860 C3853 0.961 . S
H3861 C3853 0.960 . S
H3862 C3854 0.930 . S
H3863 C3855 0.929 . S
H3864 C3872 0.929 . S
H3865 C3874 0.930 . S
H3866 C3876 0.930 . S
H3867 C3879 0.929 . S
H3868 C3882 0.930 . S
H3869 C3884 0.960 . S
H3870 C3884 0.960 . S
H3871 C3884 0.960 . S
C3872 H3864 0.929 . S
C3872 C3873 1.377 . S
C3872 C3874 1.384 . S
C3873 C3872 1.377 . S
C3873 C3879 1.390 . S
C3874 H3865 0.930 . S
C3874 C3872 1.384 . S
C3874 C3875 1.372 . S
C3875 C3874 1.372 . S
C3875 C3876 1.400 . S
C3875 C3880 1.490 . S
C3876 H3866 0.930 . S
C3876 C3875 1.400 . S
C3876 C3879 1.386 . S
H3877 C3893 0.930 . S
H3878 C3894 0.931 . S
C3879 H3867 0.929 . S
C3879 C3873 1.390 . S
C3879 C3876 1.386 . S
C3880 C3875 1.490 . S
C3880 C3882 1.395 . S
C3880 C3883 1.403 . S
H3881 C3887 0.930 . S
C3882 H3868 0.930 . S
C3882 C3880 1.395 . S
C3882 C3885 1.403 . S
C3883 C3880 1.403 . S
C3883 C3884 1.524 . S
C3883 C3887 1.400 . S
C3884 H3869 0.960 . S
C3884 H3870 0.960 . S
C3884 H3871 0.960 . S
C3884 C3883 1.524 . S
C3885 C3882 1.403 . S
C3885 C3886 1.392 . S
C3885 C3889 1.495 . S
C3886 C3885 1.392 . S
C3886 C3887 1.385 . S
C3886 C3888 1.478 . S
C3887 H3881 0.930 . S
C3887 C3883 1.400 . S
C3887 C3886 1.385 . S
C3888 C3886 1.478 . S
C3888 C3890 1.381 . S
C3888 C3894 1.383 . S
C3889 C3885 1.495 . S
C3889 H3895 0.959 . S
C3889 H3896 0.961 . S
C3889 H3897 0.960 . S
C3890 C3888 1.381 . S
C3890 C3891 1.394 . S
C3890 H3898 0.930 . S
C3891 C3890 1.394 . S
C3891 C3892 1.383 . S
C3891 H3899 0.929 . S
C3892 C3891 1.383 . S
C3892 C3893 1.377 . S
C3893 H3877 0.930 . S
C3893 C3892 1.377 . S
C3893 C3894 1.379 . S
C3894 H3878 0.931 . S
C3894 C3888 1.383 . S
C3894 C3893 1.379 . S
H3895 C3889 0.959 . S
H3896 C3889 0.961 . S
H3897 C3889 0.960 . S
H3898 C3890 0.930 . S
H3899 C3891 0.929 . S
H3900 C3908 0.929 . S
H3901 C3910 0.930 . S
H3902 C3912 0.930 . S
H3903 C3915 0.929 . S
H3904 C3918 0.930 . S
H3905 C3920 0.960 . S
H3906 C3920 0.960 . S
H3907 C3920 0.960 . S
C3908 H3900 0.929 . S
C3908 C3909 1.377 . S
C3908 C3910 1.384 . S
C3909 C3908 1.377 . S
C3909 C3915 1.390 . S
C3910 H3901 0.930 . S
C3910 C3908 1.384 . S
C3910 C3911 1.372 . S
C3911 C3910 1.372 . S
C3911 C3912 1.400 . S
C3911 C3916 1.490 . S
C3912 H3902 0.930 . S
C3912 C3911 1.400 . S
C3912 C3915 1.386 . S
H3913 C3929 0.930 . S
H3914 C3930 0.931 . S
C3915 H3903 0.929 . S
C3915 C3909 1.390 . S
C3915 C3912 1.386 . S
C3916 C3911 1.490 . S
C3916 C3918 1.395 . S
C3916 C3919 1.403 . S
H3917 C3923 0.930 . S
C3918 H3904 0.930 . S
C3918 C3916 1.395 . S
C3918 C3921 1.403 . S
C3919 C3916 1.403 . S
C3919 C3920 1.524 . S
C3919 C3923 1.400 . S
C3920 H3905 0.960 . S
C3920 H3906 0.960 . S
C3920 H3907 0.960 . S
C3920 C3919 1.524 . S
C3921 C3918 1.403 . S
C3921 C3922 1.392 . S
C3921 C3925 1.495 . S
C3922 C3921 1.392 . S
C3922 C3923 1.385 . S
C3922 C3924 1.478 . S
C3923 H3917 0.930 . S
C3923 C3919 1.400 . S
C3923 C3922 1.385 . S
C3924 C3922 1.478 . S
C3924 C3926 1.381 . S
C3924 C3930 1.383 . S
C3925 C3921 1.495 . S
C3925 H3931 0.959 . S
C3925 H3932 0.961 . S
C3925 H3933 0.960 . S
C3926 C3924 1.381 . S
C3926 C3927 1.394 . S
C3926 H3934 0.930 . S
C3927 C3926 1.394 . S
C3927 C3928 1.383 . S
C3927 H3935 0.929 . S
C3928 C3927 1.383 . S
C3928 C3929 1.377 . S
C3929 H3913 0.930 . S
C3929 C3928 1.377 . S
C3929 C3930 1.379 . S
C3930 H3914 0.931 . S
C3930 C3924 1.383 . S
C3930 C3929 1.379 . S
H3931 C3925 0.959 . S
H3932 C3925 0.961 . S
H3933 C3925 0.960 . S
H3934 C3926 0.930 . S
H3935 C3927 0.929 . S
H3936 C3944 0.929 . S
H3937 C3946 0.930 . S
H3938 C3948 0.930 . S
H3939 C3951 0.929 . S
H3940 C3954 0.930 . S
H3941 C3956 0.960 . S
H3942 C3956 0.960 . S
H3943 C3956 0.960 . S
C3944 H3936 0.929 . S
C3944 C3945 1.377 . S
C3944 C3946 1.384 . S
C3945 C3944 1.377 . S
C3945 C3951 1.390 . S
C3946 H3937 0.930 . S
C3946 C3944 1.384 . S
C3946 C3947 1.372 . S
C3947 C3946 1.372 . S
C3947 C3948 1.400 . S
C3947 C3952 1.490 . S
C3948 H3938 0.930 . S
C3948 C3947 1.400 . S
C3948 C3951 1.386 . S
H3949 C3965 0.930 . S
H3950 C3966 0.931 . S
C3951 H3939 0.929 . S
C3951 C3945 1.390 . S
C3951 C3948 1.386 . S
C3952 C3947 1.490 . S
C3952 C3954 1.395 . S
C3952 C3955 1.403 . S
H3953 C3959 0.930 . S
C3954 H3940 0.930 . S
C3954 C3952 1.395 . S
C3954 C3957 1.403 . S
C3955 C3952 1.403 . S
C3955 C3956 1.524 . S
C3955 C3959 1.400 . S
C3956 H3941 0.960 . S
C3956 H3942 0.960 . S
C3956 H3943 0.960 . S
C3956 C3955 1.524 . S
C3957 C3954 1.403 . S
C3957 C3958 1.392 . S
C3957 C3961 1.495 . S
C3958 C3957 1.392 . S
C3958 C3959 1.385 . S
C3958 C3960 1.478 . S
C3959 H3953 0.930 . S
C3959 C3955 1.400 . S
C3959 C3958 1.385 . S
C3960 C3958 1.478 . S
C3960 C3962 1.381 . S
C3960 C3966 1.383 . S
C3961 C3957 1.495 . S
C3961 H3967 0.959 . S
C3961 H3968 0.961 . S
C3961 H3969 0.960 . S
C3962 C3960 1.381 . S
C3962 C3963 1.394 . S
C3962 H3970 0.930 . S
C3963 C3962 1.394 . S
C3963 C3964 1.383 . S
C3963 H3971 0.929 . S
C3964 C3963 1.383 . S
C3964 C3965 1.377 . S
C3965 H3949 0.930 . S
C3965 C3964 1.377 . S
C3965 C3966 1.379 . S
C3966 H3950 0.931 . S
C3966 C3960 1.383 . S
C3966 C3965 1.379 . S
H3967 C3961 0.959 . S
H3968 C3961 0.961 . S
H3969 C3961 0.960 . S
H3970 C3962 0.930 . S
H3971 C3963 0.929 . S
H3972 C3980 0.929 . S
H3973 C3982 0.930 . S
H3974 C3984 0.930 . S
H3975 C3987 0.929 . S
H3976 C3990 0.930 . S
H3977 C3992 0.960 . S
H3978 C3992 0.960 . S
H3979 C3992 0.960 . S
C3980 H3972 0.929 . S
C3980 C3981 1.377 . S
C3980 C3982 1.384 . S
C3981 C3980 1.377 . S
C3981 C3987 1.390 . S
C3982 H3973 0.930 . S
C3982 C3980 1.384 . S
C3982 C3983 1.372 . S
C3983 C3982 1.372 . S
C3983 C3984 1.400 . S
C3983 C3988 1.490 . S
C3984 H3974 0.930 . S
C3984 C3983 1.400 . S
C3984 C3987 1.386 . S
H3985 C4001 0.930 . S
H3986 C4002 0.931 . S
C3987 H3975 0.929 . S
C3987 C3981 1.390 . S
C3987 C3984 1.386 . S
C3988 C3983 1.490 . S
C3988 C3990 1.395 . S
C3988 C3991 1.403 . S
H3989 C3995 0.930 . S
C3990 H3976 0.930 . S
C3990 C3988 1.395 . S
C3990 C3993 1.403 . S
C3991 C3988 1.403 . S
C3991 C3992 1.524 . S
C3991 C3995 1.400 . S
C3992 H3977 0.960 . S
C3992 H3978 0.960 . S
C3992 H3979 0.960 . S
C3992 C3991 1.524 . S
C3993 C3990 1.403 . S
C3993 C3994 1.392 . S
C3993 C3997 1.495 . S
C3994 C3993 1.392 . S
C3994 C3995 1.385 . S
C3994 C3996 1.478 . S
C3995 H3989 0.930 . S
C3995 C3991 1.400 . S
C3995 C3994 1.385 . S
C3996 C3994 1.478 . S
C3996 C3998 1.381 . S
C3996 C4002 1.383 . S
C3997 C3993 1.495 . S
C3997 H4003 0.959 . S
C3997 H4004 0.961 . S
C3997 H4005 0.960 . S
C3998 C3996 1.381 . S
C3998 C3999 1.394 . S
C3998 H4006 0.930 . S
C3999 C3998 1.394 . S
C3999 C4000 1.383 . S
C3999 H4007 0.929 . S
C4000 C3999 1.383 . S
C4000 C4001 1.377 . S
C4001 H3985 0.930 . S
C4001 C4000 1.377 . S
C4001 C4002 1.379 . S
C4002 H3986 0.931 . S
C4002 C3996 1.383 . S
C4002 C4001 1.379 . S
H4003 C3997 0.959 . S
H4004 C3997 0.961 . S
H4005 C3997 0.960 . S
H4006 C3998 0.930 . S
H4007 C3999 0.929 . S
H4008 C4016 0.929 . S
H4009 C4018 0.930 . S
H4010 C4020 0.930 . S
H4011 C4023 0.929 . S
H4012 C4026 0.930 . S
H4013 C4028 0.960 . S
H4014 C4028 0.960 . S
H4015 C4028 0.960 . S
C4016 H4008 0.929 . S
C4016 C4017 1.377 . S
C4016 C4018 1.384 . S
C4017 C4016 1.377 . S
C4017 C4023 1.390 . S
C4018 H4009 0.930 . S
C4018 C4016 1.384 . S
C4018 C4019 1.372 . S
C4019 C4018 1.372 . S
C4019 C4020 1.400 . S
C4019 C4024 1.490 . S
C4020 H4010 0.930 . S
C4020 C4019 1.400 . S
C4020 C4023 1.386 . S
H4021 C4037 0.930 . S
H4022 C4038 0.931 . S
C4023 H4011 0.929 . S
C4023 C4017 1.390 . S
C4023 C4020 1.386 . S
C4024 C4019 1.490 . S
C4024 C4026 1.395 . S
C4024 C4027 1.403 . S
H4025 C4031 0.930 . S
C4026 H4012 0.930 . S
C4026 C4024 1.395 . S
C4026 C4029 1.403 . S
C4027 C4024 1.403 . S
C4027 C4028 1.524 . S
C4027 C4031 1.400 . S
C4028 H4013 0.960 . S
C4028 H4014 0.960 . S
C4028 H4015 0.960 . S
C4028 C4027 1.524 . S
C4029 C4026 1.403 . S
C4029 C4030 1.392 . S
C4029 C4033 1.495 . S
C4030 C4029 1.392 . S
C4030 C4031 1.385 . S
C4030 C4032 1.478 . S
C4031 H4025 0.930 . S
C4031 C4027 1.400 . S
C4031 C4030 1.385 . S
C4032 C4030 1.478 . S
C4032 C4034 1.381 . S
C4032 C4038 1.383 . S
C4033 C4029 1.495 . S
C4033 H4039 0.959 . S
C4033 H4040 0.961 . S
C4033 H4041 0.960 . S
C4034 C4032 1.381 . S
C4034 C4035 1.394 . S
C4034 H4042 0.930 . S
C4035 C4034 1.394 . S
C4035 C4036 1.383 . S
C4035 H4043 0.929 . S
C4036 C4035 1.383 . S
C4036 C4037 1.377 . S
C4037 H4021 0.930 . S
C4037 C4036 1.377 . S
C4037 C4038 1.379 . S
C4038 H4022 0.931 . S
C4038 C4032 1.383 . S
C4038 C4037 1.379 . S
H4039 C4033 0.959 . S
H4040 C4033 0.961 . S
H4041 C4033 0.960 . S
H4042 C4034 0.930 . S
H4043 C4035 0.929 . S
H4044 C4052 0.929 . S
H4045 C4054 0.930 . S
H4046 C4056 0.930 . S
H4047 C4059 0.929 . S
H4048 C4062 0.930 . S
H4049 C4064 0.960 . S
H4050 C4064 0.960 . S
H4051 C4064 0.960 . S
C4052 H4044 0.929 . S
C4052 C4053 1.377 . S
C4052 C4054 1.384 . S
C4053 C4052 1.377 . S
C4053 C4059 1.390 . S
C4054 H4045 0.930 . S
C4054 C4052 1.384 . S
C4054 C4055 1.372 . S
C4055 C4054 1.372 . S
C4055 C4056 1.400 . S
C4055 C4060 1.490 . S
C4056 H4046 0.930 . S
C4056 C4055 1.400 . S
C4056 C4059 1.386 . S
H4057 C4073 0.930 . S
H4058 C4074 0.931 . S
C4059 H4047 0.929 . S
C4059 C4053 1.390 . S
C4059 C4056 1.386 . S
C4060 C4055 1.490 . S
C4060 C4062 1.395 . S
C4060 C4063 1.403 . S
H4061 C4067 0.930 . S
C4062 H4048 0.930 . S
C4062 C4060 1.395 . S
C4062 C4065 1.403 . S
C4063 C4060 1.403 . S
C4063 C4064 1.524 . S
C4063 C4067 1.400 . S
C4064 H4049 0.960 . S
C4064 H4050 0.960 . S
C4064 H4051 0.960 . S
C4064 C4063 1.524 . S
C4065 C4062 1.403 . S
C4065 C4066 1.392 . S
C4065 C4069 1.495 . S
C4066 C4065 1.392 . S
C4066 C4067 1.385 . S
C4066 C4068 1.478 . S
C4067 H4061 0.930 . S
C4067 C4063 1.400 . S
C4067 C4066 1.385 . S
C4068 C4066 1.478 . S
C4068 C4070 1.381 . S
C4068 C4074 1.383 . S
C4069 C4065 1.495 . S
C4069 H4075 0.959 . S
C4069 H4076 0.961 . S
C4069 H4077 0.960 . S
C4070 C4068 1.381 . S
C4070 C4071 1.394 . S
C4070 H4078 0.930 . S
C4071 C4070 1.394 . S
C4071 C4072 1.383 . S
C4071 H4079 0.929 . S
C4072 C4071 1.383 . S
C4072 C4073 1.377 . S
C4073 H4057 0.930 . S
C4073 C4072 1.377 . S
C4073 C4074 1.379 . S
C4074 H4058 0.931 . S
C4074 C4068 1.383 . S
C4074 C4073 1.379 . S
H4075 C4069 0.959 . S
H4076 C4069 0.961 . S
H4077 C4069 0.960 . S
H4078 C4070 0.930 . S
H4079 C4071 0.929 . S
H4080 C4088 0.929 . S
H4081 C4090 0.930 . S
H4082 C4092 0.930 . S
H4083 C4095 0.929 . S
H4084 C4098 0.930 . S
H4085 C4100 0.960 . S
H4086 C4100 0.960 . S
H4087 C4100 0.960 . S
C4088 H4080 0.929 . S
C4088 C4089 1.377 . S
C4088 C4090 1.384 . S
C4089 C4088 1.377 . S
C4089 C4095 1.390 . S
C4090 H4081 0.930 . S
C4090 C4088 1.384 . S
C4090 C4091 1.372 . S
C4091 C4090 1.372 . S
C4091 C4092 1.400 . S
C4091 C4096 1.490 . S
C4092 H4082 0.930 . S
C4092 C4091 1.400 . S
C4092 C4095 1.386 . S
H4093 C4109 0.930 . S
H4094 C4110 0.931 . S
C4095 H4083 0.929 . S
C4095 C4089 1.390 . S
C4095 C4092 1.386 . S
C4096 C4091 1.490 . S
C4096 C4098 1.395 . S
C4096 C4099 1.403 . S
H4097 C4103 0.930 . S
C4098 H4084 0.930 . S
C4098 C4096 1.395 . S
C4098 C4101 1.403 . S
C4099 C4096 1.403 . S
C4099 C4100 1.524 . S
C4099 C4103 1.400 . S
C4100 H4085 0.960 . S
C4100 H4086 0.960 . S
C4100 H4087 0.960 . S
C4100 C4099 1.524 . S
C4101 C4098 1.403 . S
C4101 C4102 1.392 . S
C4101 C4105 1.495 . S
C4102 C4101 1.392 . S
C4102 C4103 1.385 . S
C4102 C4104 1.478 . S
C4103 H4097 0.930 . S
C4103 C4099 1.400 . S
C4103 C4102 1.385 . S
C4104 C4102 1.478 . S
C4104 C4106 1.381 . S
C4104 C4110 1.383 . S
C4105 C4101 1.495 . S
C4105 H4111 0.959 . S
C4105 H4112 0.961 . S
C4105 H4113 0.960 . S
C4106 C4104 1.381 . S
C4106 C4107 1.394 . S
C4106 H4114 0.930 . S
C4107 C4106 1.394 . S
C4107 C4108 1.383 . S
C4107 H4115 0.929 . S
C4108 C4107 1.383 . S
C4108 C4109 1.377 . S
C4109 H4093 0.930 . S
C4109 C4108 1.377 . S
C4109 C4110 1.379 . S
C4110 H4094 0.931 . S
C4110 C4104 1.383 . S
C4110 C4109 1.379 . S
H4111 C4105 0.959 . S
H4112 C4105 0.961 . S
H4113 C4105 0.960 . S
H4114 C4106 0.930 . S
H4115 C4107 0.929 . S
H4116 C4124 0.929 . S
H4117 C4126 0.930 . S
H4118 C4128 0.930 . S
H4119 C4131 0.929 . S
H4120 C4134 0.930 . S
H4121 C4136 0.960 . S
H4122 C4136 0.960 . S
H4123 C4136 0.960 . S
C4124 H4116 0.929 . S
C4124 C4125 1.377 . S
C4124 C4126 1.384 . S
C4125 C4124 1.377 . S
C4125 C4131 1.390 . S
C4126 H4117 0.930 . S
C4126 C4124 1.384 . S
C4126 C4127 1.372 . S
C4127 C4126 1.372 . S
C4127 C4128 1.400 . S
C4127 C4132 1.490 . S
C4128 H4118 0.930 . S
C4128 C4127 1.400 . S
C4128 C4131 1.386 . S
H4129 C4145 0.930 . S
H4130 C4146 0.931 . S
C4131 H4119 0.929 . S
C4131 C4125 1.390 . S
C4131 C4128 1.386 . S
C4132 C4127 1.490 . S
C4132 C4134 1.395 . S
C4132 C4135 1.403 . S
H4133 C4139 0.930 . S
C4134 H4120 0.930 . S
C4134 C4132 1.395 . S
C4134 C4137 1.403 . S
C4135 C4132 1.403 . S
C4135 C4136 1.524 . S
C4135 C4139 1.400 . S
C4136 H4121 0.960 . S
C4136 H4122 0.960 . S
C4136 H4123 0.960 . S
C4136 C4135 1.524 . S
C4137 C4134 1.403 . S
C4137 C4138 1.392 . S
C4137 C4141 1.495 . S
C4138 C4137 1.392 . S
C4138 C4139 1.385 . S
C4138 C4140 1.478 . S
C4139 H4133 0.930 . S
C4139 C4135 1.400 . S
C4139 C4138 1.385 . S
C4140 C4138 1.478 . S
C4140 C4142 1.381 . S
C4140 C4146 1.383 . S
C4141 C4137 1.495 . S
C4141 H4147 0.959 . S
C4141 H4148 0.961 . S
C4141 H4149 0.960 . S
C4142 C4140 1.381 . S
C4142 C4143 1.394 . S
C4142 H4150 0.930 . S
C4143 C4142 1.394 . S
C4143 C4144 1.383 . S
C4143 H4151 0.929 . S
C4144 C4143 1.383 . S
C4144 C4145 1.377 . S
C4145 H4129 0.930 . S
C4145 C4144 1.377 . S
C4145 C4146 1.379 . S
C4146 H4130 0.931 . S
C4146 C4140 1.383 . S
C4146 C4145 1.379 . S
H4147 C4141 0.959 . S
H4148 C4141 0.961 . S
H4149 C4141 0.960 . S
H4150 C4142 0.930 . S
H4151 C4143 0.929 . S
H4152 C4160 0.929 . S
H4153 C4162 0.930 . S
H4154 C4164 0.930 . S
H4155 C4167 0.929 . S
H4156 C4170 0.930 . S
H4157 C4172 0.960 . S
H4158 C4172 0.960 . S
H4159 C4172 0.960 . S
C4160 H4152 0.929 . S
C4160 C4161 1.377 . S
C4160 C4162 1.384 . S
C4161 C4160 1.377 . S
C4161 C4167 1.390 . S
C4162 H4153 0.930 . S
C4162 C4160 1.384 . S
C4162 C4163 1.372 . S
C4163 C4162 1.372 . S
C4163 C4164 1.400 . S
C4163 C4168 1.490 . S
C4164 H4154 0.930 . S
C4164 C4163 1.400 . S
C4164 C4167 1.386 . S
H4165 C4181 0.930 . S
H4166 C4182 0.931 . S
C4167 H4155 0.929 . S
C4167 C4161 1.390 . S
C4167 C4164 1.386 . S
C4168 C4163 1.490 . S
C4168 C4170 1.395 . S
C4168 C4171 1.403 . S
H4169 C4175 0.930 . S
C4170 H4156 0.930 . S
C4170 C4168 1.395 . S
C4170 C4173 1.403 . S
C4171 C4168 1.403 . S
C4171 C4172 1.524 . S
C4171 C4175 1.400 . S
C4172 H4157 0.960 . S
C4172 H4158 0.960 . S
C4172 H4159 0.960 . S
C4172 C4171 1.524 . S
C4173 C4170 1.403 . S
C4173 C4174 1.392 . S
C4173 C4177 1.495 . S
C4174 C4173 1.392 . S
C4174 C4175 1.385 . S
C4174 C4176 1.478 . S
C4175 H4169 0.930 . S
C4175 C4171 1.400 . S
C4175 C4174 1.385 . S
C4176 C4174 1.478 . S
C4176 C4178 1.381 . S
C4176 C4182 1.383 . S
C4177 C4173 1.495 . S
C4177 H4183 0.959 . S
C4177 H4184 0.961 . S
C4177 H4185 0.960 . S
C4178 C4176 1.381 . S
C4178 C4179 1.394 . S
C4178 H4186 0.930 . S
C4179 C4178 1.394 . S
C4179 C4180 1.383 . S
C4179 H4187 0.929 . S
C4180 C4179 1.383 . S
C4180 C4181 1.377 . S
C4181 H4165 0.930 . S
C4181 C4180 1.377 . S
C4181 C4182 1.379 . S
C4182 H4166 0.931 . S
C4182 C4176 1.383 . S
C4182 C4181 1.379 . S
H4183 C4177 0.959 . S
H4184 C4177 0.961 . S
H4185 C4177 0.960 . S
H4186 C4178 0.930 . S
H4187 C4179 0.929 . S
H4188 C4196 0.929 . S
H4189 C4198 0.930 . S
H4190 C4200 0.930 . S
H4191 C4203 0.929 . S
H4192 C4206 0.930 . S
H4193 C4208 0.960 . S
H4194 C4208 0.960 . S
H4195 C4208 0.960 . S
C4196 H4188 0.929 . S
C4196 C4197 1.377 . S
C4196 C4198 1.384 . S
C4197 C4196 1.377 . S
C4197 C4203 1.390 . S
C4198 H4189 0.930 . S
C4198 C4196 1.384 . S
C4198 C4199 1.372 . S
C4199 C4198 1.372 . S
C4199 C4200 1.400 . S
C4199 C4204 1.490 . S
C4200 H4190 0.930 . S
C4200 C4199 1.400 . S
C4200 C4203 1.386 . S
H4201 C4217 0.930 . S
H4202 C4218 0.931 . S
C4203 H4191 0.929 . S
C4203 C4197 1.390 . S
C4203 C4200 1.386 . S
C4204 C4199 1.490 . S
C4204 C4206 1.395 . S
C4204 C4207 1.403 . S
H4205 C4211 0.930 . S
C4206 H4192 0.930 . S
C4206 C4204 1.395 . S
C4206 C4209 1.403 . S
C4207 C4204 1.403 . S
C4207 C4208 1.524 . S
C4207 C4211 1.400 . S
C4208 H4193 0.960 . S
C4208 H4194 0.960 . S
C4208 H4195 0.960 . S
C4208 C4207 1.524 . S
C4209 C4206 1.403 . S
C4209 C4210 1.392 . S
C4209 C4213 1.495 . S
C4210 C4209 1.392 . S
C4210 C4211 1.385 . S
C4210 C4212 1.478 . S
C4211 H4205 0.930 . S
C4211 C4207 1.400 . S
C4211 C4210 1.385 . S
C4212 C4210 1.478 . S
C4212 C4214 1.381 . S
C4212 C4218 1.383 . S
C4213 C4209 1.495 . S
C4213 H4219 0.959 . S
C4213 H4220 0.961 . S
C4213 H4221 0.960 . S
C4214 C4212 1.381 . S
C4214 C4215 1.394 . S
C4214 H4222 0.930 . S
C4215 C4214 1.394 . S
C4215 C4216 1.383 . S
C4215 H4223 0.929 . S
C4216 C4215 1.383 . S
C4216 C4217 1.377 . S
C4217 H4201 0.930 . S
C4217 C4216 1.377 . S
C4217 C4218 1.379 . S
C4218 H4202 0.931 . S
C4218 C4212 1.383 . S
C4218 C4217 1.379 . S
H4219 C4213 0.959 . S
H4220 C4213 0.961 . S
H4221 C4213 0.960 . S
H4222 C4214 0.930 . S
H4223 C4215 0.929 . S
H4224 C4232 0.929 . S
H4225 C4234 0.930 . S
H4226 C4236 0.930 . S
H4227 C4239 0.929 . S
H4228 C4242 0.930 . S
H4229 C4244 0.960 . S
H4230 C4244 0.960 . S
H4231 C4244 0.960 . S
C4232 H4224 0.929 . S
C4232 C4233 1.377 . S
C4232 C4234 1.384 . S
C4233 C4232 1.377 . S
C4233 C4239 1.390 . S
C4234 H4225 0.930 . S
C4234 C4232 1.384 . S
C4234 C4235 1.372 . S
C4235 C4234 1.372 . S
C4235 C4236 1.400 . S
C4235 C4240 1.490 . S
C4236 H4226 0.930 . S
C4236 C4235 1.400 . S
C4236 C4239 1.386 . S
H4237 C4253 0.930 . S
H4238 C4254 0.931 . S
C4239 H4227 0.929 . S
C4239 C4233 1.390 . S
C4239 C4236 1.386 . S
C4240 C4235 1.490 . S
C4240 C4242 1.395 . S
C4240 C4243 1.403 . S
H4241 C4247 0.930 . S
C4242 H4228 0.930 . S
C4242 C4240 1.395 . S
C4242 C4245 1.403 . S
C4243 C4240 1.403 . S
C4243 C4244 1.524 . S
C4243 C4247 1.400 . S
C4244 H4229 0.960 . S
C4244 H4230 0.960 . S
C4244 H4231 0.960 . S
C4244 C4243 1.524 . S
C4245 C4242 1.403 . S
C4245 C4246 1.392 . S
C4245 C4249 1.495 . S
C4246 C4245 1.392 . S
C4246 C4247 1.385 . S
C4246 C4248 1.478 . S
C4247 H4241 0.930 . S
C4247 C4243 1.400 . S
C4247 C4246 1.385 . S
C4248 C4246 1.478 . S
C4248 C4250 1.381 . S
C4248 C4254 1.383 . S
C4249 C4245 1.495 . S
C4249 H4255 0.959 . S
C4249 H4256 0.961 . S
C4249 H4257 0.960 . S
C4250 C4248 1.381 . S
C4250 C4251 1.394 . S
C4250 H4258 0.930 . S
C4251 C4250 1.394 . S
C4251 C4252 1.383 . S
C4251 H4259 0.929 . S
C4252 C4251 1.383 . S
C4252 C4253 1.377 . S
C4253 H4237 0.930 . S
C4253 C4252 1.377 . S
C4253 C4254 1.379 . S
C4254 H4238 0.931 . S
C4254 C4248 1.383 . S
C4254 C4253 1.379 . S
H4255 C4249 0.959 . S
H4256 C4249 0.961 . S
H4257 C4249 0.960 . S
H4258 C4250 0.930 . S
H4259 C4251 0.929 . S
H4260 C4268 0.929 . S
H4261 C4270 0.930 . S
H4262 C4272 0.930 . S
H4263 C4275 0.929 . S
H4264 C4278 0.930 . S
H4265 C4280 0.960 . S
H4266 C4280 0.960 . S
H4267 C4280 0.960 . S
C4268 H4260 0.929 . S
C4268 C4269 1.377 . S
C4268 C4270 1.384 . S
C4269 C4268 1.377 . S
C4269 C4275 1.390 . S
C4270 H4261 0.930 . S
C4270 C4268 1.384 . S
C4270 C4271 1.372 . S
C4271 C4270 1.372 . S
C4271 C4272 1.400 . S
C4271 C4276 1.490 . S
C4272 H4262 0.930 . S
C4272 C4271 1.400 . S
C4272 C4275 1.386 . S
H4273 C4289 0.930 . S
H4274 C4290 0.931 . S
C4275 H4263 0.929 . S
C4275 C4269 1.390 . S
C4275 C4272 1.386 . S
C4276 C4271 1.490 . S
C4276 C4278 1.395 . S
C4276 C4279 1.403 . S
H4277 C4283 0.930 . S
C4278 H4264 0.930 . S
C4278 C4276 1.395 . S
C4278 C4281 1.403 . S
C4279 C4276 1.403 . S
C4279 C4280 1.524 . S
C4279 C4283 1.400 . S
C4280 H4265 0.960 . S
C4280 H4266 0.960 . S
C4280 H4267 0.960 . S
C4280 C4279 1.524 . S
C4281 C4278 1.403 . S
C4281 C4282 1.392 . S
C4281 C4285 1.495 . S
C4282 C4281 1.392 . S
C4282 C4283 1.385 . S
C4282 C4284 1.478 . S
C4283 H4277 0.930 . S
C4283 C4279 1.400 . S
C4283 C4282 1.385 . S
C4284 C4282 1.478 . S
C4284 C4286 1.381 . S
C4284 C4290 1.383 . S
C4285 C4281 1.495 . S
C4285 H4291 0.959 . S
C4285 H4292 0.961 . S
C4285 H4293 0.960 . S
C4286 C4284 1.381 . S
C4286 C4287 1.394 . S
C4286 H4294 0.930 . S
C4287 C4286 1.394 . S
C4287 C4288 1.383 . S
C4287 H4295 0.929 . S
C4288 C4287 1.383 . S
C4288 C4289 1.377 . S
C4289 H4273 0.930 . S
C4289 C4288 1.377 . S
C4289 C4290 1.379 . S
C4290 H4274 0.931 . S
C4290 C4284 1.383 . S
C4290 C4289 1.379 . S
H4291 C4285 0.959 . S
H4292 C4285 0.961 . S
H4293 C4285 0.960 . S
H4294 C4286 0.930 . S
H4295 C4287 0.929 . S
H4296 C4304 0.928 . S
H4297 C4306 0.930 . S
H4298 C4308 0.930 . S
H4299 C4311 0.929 . S
H4300 C4314 0.930 . S
H4301 C4316 0.960 . S
H4302 C4316 0.960 . S
H4303 C4316 0.960 . S
C4304 H4296 0.928 . S
C4304 C4305 1.373 1_565 S
C4304 C4306 1.387 . S
C4305 C4304 1.373 1_545 S
C4305 C4311 1.390 . S
C4306 H4297 0.930 . S
C4306 C4304 1.387 . S
C4306 C4307 1.372 . S
C4307 C4306 1.372 . S
C4307 C4308 1.394 1_565 S
C4307 C4312 1.490 . S
C4308 H4298 0.930 . S
C4308 C4307 1.394 1_545 S
C4308 C4311 1.392 . S
H4309 C4325 0.930 . S
H4310 C4326 0.931 . S
C4311 H4299 0.929 . S
C4311 C4305 1.390 . S
C4311 C4308 1.392 . S
C4312 C4307 1.490 . S
C4312 C4314 1.395 1_565 S
C4312 C4315 1.403 . S
H4313 C4319 0.930 . S
C4314 H4300 0.930 . S
C4314 C4312 1.395 1_545 S
C4314 C4317 1.403 . S
C4315 C4312 1.403 . S
C4315 C4316 1.524 . S
C4315 C4319 1.400 . S
C4316 H4301 0.960 . S
C4316 H4302 0.960 . S
C4316 H4303 0.960 . S
C4316 C4315 1.524 . S
C4317 C4314 1.403 . S
C4317 C4318 1.392 1_545 S
C4317 C4321 1.495 . S
C4318 C4317 1.392 1_565 S
C4318 C4319 1.385 . S
C4318 C4320 1.478 . S
C4319 H4313 0.930 . S
C4319 C4315 1.400 . S
C4319 C4318 1.385 . S
C4320 C4318 1.478 . S
C4320 C4322 1.381 . S
C4320 C4326 1.383 . S
C4321 C4317 1.495 . S
C4321 H4327 0.959 . S
C4321 H4328 0.961 . S
C4321 H4329 0.960 . S
C4322 C4320 1.381 . S
C4322 C4323 1.394 . S
C4322 H4330 0.930 . S
C4323 C4322 1.394 . S
C4323 C4324 1.383 . S
C4323 H4331 0.929 . S
C4324 C4323 1.383 . S
C4324 C4325 1.377 . S
C4325 H4309 0.930 . S
C4325 C4324 1.377 . S
C4325 C4326 1.379 . S
C4326 H4310 0.931 . S
C4326 C4320 1.383 . S
C4326 C4325 1.379 . S
H4327 C4321 0.959 . S
H4328 C4321 0.961 . S
H4329 C4321 0.960 . S
H4330 C4322 0.930 . S
H4331 C4323 0.929 . S
H4332 C4340 0.929 . S
H4333 C4342 0.930 . S
H4334 C4344 0.930 . S
H4335 C4347 0.929 . S
H4336 C4350 0.930 . S
H4337 C4352 0.960 . S
H4338 C4352 0.960 . S
H4339 C4352 0.960 . S
C4340 H4332 0.929 . S
C4340 C4341 1.377 . S
C4340 C4342 1.384 . S
C4341 C4340 1.377 . S
C4341 C4347 1.390 . S
C4342 H4333 0.930 . S
C4342 C4340 1.384 . S
C4342 C4343 1.372 . S
C4343 C4342 1.372 . S
C4343 C4344 1.400 . S
C4343 C4348 1.490 . S
C4344 H4334 0.930 . S
C4344 C4343 1.400 . S
C4344 C4347 1.386 . S
H4345 C4361 0.930 . S
H4346 C4362 0.931 . S
C4347 H4335 0.929 . S
C4347 C4341 1.390 . S
C4347 C4344 1.386 . S
C4348 C4343 1.490 . S
C4348 C4350 1.395 . S
C4348 C4351 1.403 . S
H4349 C4355 0.930 . S
C4350 H4336 0.930 . S
C4350 C4348 1.395 . S
C4350 C4353 1.403 . S
C4351 C4348 1.403 . S
C4351 C4352 1.524 . S
C4351 C4355 1.400 . S
C4352 H4337 0.960 . S
C4352 H4338 0.960 . S
C4352 H4339 0.960 . S
C4352 C4351 1.524 . S
C4353 C4350 1.403 . S
C4353 C4354 1.392 . S
C4353 C4357 1.495 . S
C4354 C4353 1.392 . S
C4354 C4355 1.385 . S
C4354 C4356 1.478 . S
C4355 H4349 0.930 . S
C4355 C4351 1.400 . S
C4355 C4354 1.385 . S
C4356 C4354 1.478 . S
C4356 C4358 1.381 . S
C4356 C4362 1.383 . S
C4357 C4353 1.495 . S
C4357 H4363 0.959 . S
C4357 H4364 0.961 . S
C4357 H4365 0.960 . S
C4358 C4356 1.381 . S
C4358 C4359 1.394 . S
C4358 H4366 0.930 . S
C4359 C4358 1.394 . S
C4359 C4360 1.383 . S
C4359 H4367 0.929 . S
C4360 C4359 1.383 . S
C4360 C4361 1.377 . S
C4361 H4345 0.930 . S
C4361 C4360 1.377 . S
C4361 C4362 1.379 . S
C4362 H4346 0.931 . S
C4362 C4356 1.383 . S
C4362 C4361 1.379 . S
H4363 C4357 0.959 . S
H4364 C4357 0.961 . S
H4365 C4357 0.960 . S
H4366 C4358 0.930 . S
H4367 C4359 0.929 . S
H4368 C4376 0.929 1_554 S
H4369 C4378 0.968 . S
H4370 C4380 0.930 . S
H4371 C4383 0.929 . S
H4372 C4386 0.930 . S
H4373 C4388 0.960 . S
H4374 C4388 0.960 . S
H4375 C4388 0.960 . S
C4376 H4368 0.929 1_556 S
C4376 C4377 1.377 . S
C4376 C4378 1.384 . S
C4377 C4376 1.377 . S
C4377 C4383 1.390 . S
C4378 H4369 0.968 . S
C4378 C4376 1.384 . S
C4378 C4379 1.372 . S
C4379 C4378 1.372 . S
C4379 C4380 1.400 . S
C4379 C4384 1.490 . S
C4380 H4370 0.930 . S
C4380 C4379 1.400 . S
C4380 C4383 1.386 . S
H4381 C4397 0.930 . S
H4382 C4398 0.931 . S
C4383 H4371 0.929 . S
C4383 C4377 1.390 . S
C4383 C4380 1.386 . S
C4384 C4379 1.490 . S
C4384 C4386 1.395 . S
C4384 C4387 1.403 . S
H4385 C4391 0.930 . S
C4386 H4372 0.930 . S
C4386 C4384 1.395 . S
C4386 C4389 1.403 . S
C4387 C4384 1.403 . S
C4387 C4388 1.524 . S
C4387 C4391 1.400 . S
C4388 H4373 0.960 . S
C4388 H4374 0.960 . S
C4388 H4375 0.960 . S
C4388 C4387 1.524 . S
C4389 C4386 1.403 . S
C4389 C4390 1.392 . S
C4389 C4393 1.495 . S
C4390 C4389 1.392 . S
C4390 C4391 1.385 . S
C4390 C4392 1.478 . S
C4391 H4385 0.930 . S
C4391 C4387 1.400 . S
C4391 C4390 1.385 . S
C4392 C4390 1.478 . S
C4392 C4394 1.381 . S
C4392 C4398 1.383 . S
C4393 C4389 1.495 . S
C4393 H4399 0.959 . S
C4393 H4400 0.961 . S
C4393 H4401 0.960 . S
C4394 C4392 1.381 . S
C4394 C4395 1.394 . S
C4394 H4402 0.930 . S
C4395 C4394 1.394 . S
C4395 C4396 1.383 . S
C4395 H4403 0.929 . S
C4396 C4395 1.383 . S
C4396 C4397 1.377 . S
C4397 H4381 0.930 . S
C4397 C4396 1.377 . S
C4397 C4398 1.379 . S
C4398 H4382 0.931 . S
C4398 C4392 1.383 . S
C4398 C4397 1.379 . S
H4399 C4393 0.959 . S
H4400 C4393 0.961 . S
H4401 C4393 0.960 . S
H4402 C4394 0.930 . S
H4403 C4395 0.929 . S
H4404 C4412 0.929 . S
H4405 C4414 0.930 . S
H4406 C4416 0.930 . S
H4407 C4419 0.929 . S
H4408 C4422 0.930 . S
H4409 C4424 0.960 . S
H4410 C4424 0.960 . S
H4411 C4424 0.960 . S
C4412 H4404 0.929 . S
C4412 C4413 1.377 . S
C4412 C4414 1.384 . S
C4413 C4412 1.377 . S
C4413 C4419 1.390 . S
C4414 H4405 0.930 . S
C4414 C4412 1.384 . S
C4414 C4415 1.372 . S
C4415 C4414 1.372 . S
C4415 C4416 1.400 . S
C4415 C4420 1.490 . S
C4416 H4406 0.930 . S
C4416 C4415 1.400 . S
C4416 C4419 1.386 . S
H4417 C4433 0.930 . S
H4418 C4434 0.931 . S
C4419 H4407 0.929 . S
C4419 C4413 1.390 . S
C4419 C4416 1.386 . S
C4420 C4415 1.490 . S
C4420 C4422 1.395 . S
C4420 C4423 1.403 . S
H4421 C4427 0.930 . S
C4422 H4408 0.930 . S
C4422 C4420 1.395 . S
C4422 C4425 1.403 . S
C4423 C4420 1.403 . S
C4423 C4424 1.524 . S
C4423 C4427 1.400 . S
C4424 H4409 0.960 . S
C4424 H4410 0.960 . S
C4424 H4411 0.960 . S
C4424 C4423 1.524 . S
C4425 C4422 1.403 . S
C4425 C4426 1.392 . S
C4425 C4429 1.495 . S
C4426 C4425 1.392 . S
C4426 C4427 1.385 . S
C4426 C4428 1.478 . S
C4427 H4421 0.930 . S
C4427 C4423 1.400 . S
C4427 C4426 1.385 . S
C4428 C4426 1.478 . S
C4428 C4430 1.381 . S
C4428 C4434 1.383 . S
C4429 C4425 1.495 . S
C4429 H4435 0.959 . S
C4429 H4436 0.961 . S
C4429 H4437 0.960 . S
C4430 C4428 1.381 . S
C4430 C4431 1.394 . S
C4430 H4438 0.930 . S
C4431 C4430 1.394 . S
C4431 C4432 1.383 . S
C4431 H4439 0.929 . S
C4432 C4431 1.383 . S
C4432 C4433 1.377 . S
C4433 H4417 0.930 . S
C4433 C4432 1.377 . S
C4433 C4434 1.379 . S
C4434 H4418 0.931 . S
C4434 C4428 1.383 . S
C4434 C4433 1.379 . S
H4435 C4429 0.959 . S
H4436 C4429 0.961 . S
H4437 C4429 0.960 . S
H4438 C4430 0.930 . S
H4439 C4431 0.929 . S
H4440 C4448 0.929 . S
H4441 C4450 0.930 . S
H4442 C4452 0.930 . S
H4443 C4455 0.929 1_455 S
H4444 C4458 0.930 . S
H4445 C4460 0.960 . S
H4446 C4460 0.960 . S
H4447 C4460 0.960 . S
C4448 H4440 0.929 . S
C4448 C4449 1.377 . S
C4448 C4450 1.384 . S
C4449 C4448 1.377 . S
C4449 C4455 1.390 . S
C4450 H4441 0.930 . S
C4450 C4448 1.384 . S
C4450 C4451 1.372 . S
C4451 C4450 1.372 . S
C4451 C4452 1.400 . S
C4451 C4456 1.490 . S
C4452 H4442 0.930 . S
C4452 C4451 1.400 . S
C4452 C4455 1.386 . S
H4453 C4469 0.930 . S
H4454 C4470 0.931 . S
C4455 H4443 0.929 1_655 S
C4455 C4449 1.390 . S
C4455 C4452 1.386 . S
C4456 C4451 1.490 . S
C4456 C4458 1.395 . S
C4456 C4459 1.403 . S
H4457 C4463 0.930 . S
C4458 H4444 0.930 . S
C4458 C4456 1.395 . S
C4458 C4461 1.403 . S
C4459 C4456 1.403 . S
C4459 C4460 1.524 . S
C4459 C4463 1.400 . S
C4460 H4445 0.960 . S
C4460 H4446 0.960 . S
C4460 H4447 0.960 . S
C4460 C4459 1.524 . S
C4461 C4458 1.403 . S
C4461 C4462 1.392 . S
C4461 C4465 1.495 . S
C4462 C4461 1.392 . S
C4462 C4463 1.385 . S
C4462 C4464 1.478 . S
C4463 H4457 0.930 . S
C4463 C4459 1.400 . S
C4463 C4462 1.385 . S
C4464 C4462 1.478 . S
C4464 C4466 1.381 . S
C4464 C4470 1.383 . S
C4465 C4461 1.495 . S
C4465 H4471 0.948 1_565 S
C4465 H4472 0.961 1_565 S
C4465 H4473 0.960 . S
C4466 C4464 1.381 . S
C4466 C4467 1.394 . S
C4466 H4474 0.930 . S
C4467 C4466 1.394 . S
C4467 C4468 1.383 . S
C4467 H4475 0.929 . S
C4468 C4467 1.383 . S
C4468 C4469 1.377 . S
C4469 H4453 0.930 . S
C4469 C4468 1.377 . S
C4469 C4470 1.379 . S
C4470 H4454 0.931 . S
C4470 C4464 1.383 . S
C4470 C4469 1.379 . S
H4471 C4465 0.948 1_545 S
H4472 C4465 0.961 1_545 S
H4473 C4465 0.960 . S
H4474 C4466 0.930 . S
H4475 C4467 0.929 . S
H4476 C4484 0.929 . S
H4477 C4486 0.930 . S
H4478 C4488 0.942 . S
H4479 C4491 0.929 . S
H4480 C4494 0.930 . S
H4481 C4496 0.960 . S
H4482 C4496 0.960 . S
H4483 C4496 0.960 . S
C4484 H4476 0.929 . S
C4484 C4485 1.377 . S
C4484 C4486 1.390 . S
C4485 C4484 1.377 . S
C4485 C4491 1.396 . S
C4486 H4477 0.930 . S
C4486 C4484 1.390 . S
C4486 C4487 1.368 1_455 S
C4487 C4486 1.368 1_655 S
C4487 C4488 1.404 . S
C4487 C4492 1.490 . S
C4488 H4478 0.942 . S
C4488 C4487 1.404 . S
C4488 C4491 1.379 1_655 S
H4489 C4505 0.930 . S
H4490 C4506 0.931 . S
C4491 H4479 0.929 . S
C4491 C4485 1.396 . S
C4491 C4488 1.379 1_455 S
C4492 C4487 1.490 . S
C4492 C4494 1.395 . S
C4492 C4495 1.403 1_655 S
H4493 C4499 0.930 . S
C4494 H4480 0.930 . S
C4494 C4492 1.395 . S
C4494 C4497 1.403 . S
C4495 C4492 1.403 1_455 S
C4495 C4496 1.524 . S
C4495 C4499 1.400 . S
C4496 H4481 0.960 . S
C4496 H4482 0.960 . S
C4496 H4483 0.960 . S
C4496 C4495 1.524 . S
C4497 C4494 1.403 . S
C4497 C4498 1.392 . S
C4497 C4501 1.495 . S
C4498 C4497 1.392 . S
C4498 C4499 1.385 1_655 S
C4498 C4500 1.478 . S
C4499 H4493 0.930 . S
C4499 C4495 1.400 . S
C4499 C4498 1.385 1_455 S
C4500 C4498 1.478 . S
C4500 C4502 1.381 . S
C4500 C4506 1.383 . S
C4501 C4497 1.495 . S
C4501 H4507 0.959 . S
C4501 H4508 0.961 . S
C4501 H4509 0.960 . S
C4502 C4500 1.381 . S
C4502 C4503 1.394 . S
C4502 H4510 0.930 . S
C4503 C4502 1.394 . S
C4503 C4504 1.383 . S
C4503 H4511 0.929 . S
C4504 C4503 1.383 . S
C4504 C4505 1.377 . S
C4505 H4489 0.930 . S
C4505 C4504 1.377 . S
C4505 C4506 1.379 . S
C4506 H4490 0.931 . S
C4506 C4500 1.383 . S
C4506 C4505 1.379 . S
H4507 C4501 0.959 . S
H4508 C4501 0.961 . S
H4509 C4501 0.960 . S
H4510 C4502 0.930 . S
H4511 C4503 0.929 . S
C1929 C15 2.423 . S
C1948 C895 2.393 . S
C1965 C1615 2.162 . S
C1984 C55 2.075 . S
C2001 C95 1.865 . S
C2020 C935 1.818 . S
C2037 C135 2.472 . S
C2056 C1815 2.491 . S
C2073 C735 2.468 . S
C2092 C175 2.510 . S
C2109 C215 1.834 . S
C2128 C775 1.855 . S
C2145 C1775 1.737 . S
C2164 C255 1.830 . S
C2181 C695 2.348 . S
C2200 C295 2.334 . S
C2217 C535 2.383 . S
C2236 C335 2.420 . S
C2253 C575 2.491 . S
C2272 C375 2.468 . S
C2289 C415 2.348 . S
C2308 C615 2.337 . S
C2325 C455 1.755 . S
C2344 C495 1.778 . S
C2361 C1015 2.382 . S
C2380 C655 2.431 . S
C2397 C1215 2.354 . S
C2416 C815 2.323 . S
C2433 C1095 1.662 . S
C2452 C855 1.722 . S
C2469 C975 2.162 . S
C2488 C1855 2.074 . S
C2505 C1055 1.799 . S
C2524 C1895 1.741 . S
C2541 C1135 1.733 . S
C2560 C1695 1.628 . S
C2577 C1175 1.752 . S
C2596 C1735 1.794 . S
C2613 C1255 1.747 . S
C2632 C1655 1.823 . S
C2649 C1495 2.103 . S
C2668 C1295 2.152 . S
C2685 C1535 1.733 . S
C2704 C1335 1.626 . S
C2721 C1575 1.746 . S
C2740 C1375 1.823 . S
C2757 C1455 1.867 . S
C2776 C1415 1.838 . S
C2793 C21 2.018 . S
C2812 C301 1.827 . S
C2829 C181 1.949 . S
C2848 C61 1.743 . S
C2865 C101 1.720 . S
C2884 C221 1.627 . S
C2901 C141 1.777 . S
C2920 C261 1.871 . S
C2937 C341 2.018 . S
C2956 C821 1.846 . S
C2973 C381 1.775 . S
C2992 C1661 1.873 . S
C3009 C1701 1.544 . S
C3028 C421 1.668 . S
C3045 C1741 1.725 . S
C3064 C461 1.627 . S
C3081 C501 1.724 . S
C3100 C1901 1.622 . S
C3117 C541 1.573 . S
C3136 C861 1.684 . S
C3153 C581 1.949 . S
C3172 C1861 1.744 . S
C3189 C661 2.017 . S
C3208 C621 1.797 . S
C3225 C1341 1.542 . S
C3244 C701 1.665 . S
C3261 C1381 1.883 . S
C3280 C741 1.755 . S
C3297 C1421 1.629 . S
C3316 C781 1.714 . S
C3333 C901 1.570 . S
C3352 C1541 1.687 . S
C3369 C1461 1.721 . S
C3388 C941 1.617 . S
C3405 C1261 1.523 . S
C3424 C981 1.636 . S
C3441 C1021 1.571 . S
C3460 C1141 1.683 . S
C3477 C1061 1.724 . S
C3496 C1181 1.588 . S
C3513 C1221 1.671 . S
C3532 C1101 1.571 . S
C3549 C1781 1.518 . S
C3568 C1301 1.638 . S
C3585 C1501 1.773 . S
C3604 C1821 1.946 . S
C3621 C1621 1.645 . S
C3640 C1581 1.533 . S
C3657 C1162 0.933 . S
C3676 C2 0.953 . S
C3693 C1202 2.485 . S
C3712 C42 2.390 . S
C3729 C1242 1.807 . S
C3748 C82 1.924 . S
C3765 C1122 1.823 . S
C3784 C122 1.696 . S
C3801 C162 1.439 . S
C3820 C1082 1.327 . S
C3837 C202 1.894 . S
C3856 C962 1.975 . S
C3873 C242 1.916 . S
C3892 C1002 1.811 . S
C3909 C1042 2.037 . S
C3928 C282 1.936 . S
C3945 C322 0.961 . S
C3964 C1882 0.905 . S
C3981 C362 1.714 . S
C4000 C842 1.819 . S
C4017 C402 2.487 . S
C4036 C1842 2.407 . S
C4053 C642 0.963 . S
C4072 C442 0.963 . S
C4089 C482 2.036 . S
C4108 C802 1.930 . S
C4125 C1642 1.917 . S
C4144 C522 1.787 . S
C4161 C562 1.438 . S
C4180 C1682 1.308 . S
C4197 C1722 2.035 . S
C4216 C602 1.919 . S
C4233 C1482 2.389 . S
C4252 C682 2.498 . S
C4269 C1522 1.823 . S
C4288 C722 1.733 . S
C4305 C762 1.934 . S
C4324 C1562 1.833 . S
C4341 C882 1.795 . S
C4360 C1362 1.910 . S
C4377 C922 1.903 . S
C4396 C1282 1.977 . S
C4413 C1322 1.352 . S
C4432 C1802 1.431 . S
C4449 C1402 1.895 . S
C4468 C1602 1.973 . S
C4485 C1442 1.932 . S
C4504 C1762 1.780 . S
