# Generated by pormake.
# Topology uog, (4)-cn, num edge types: 1
# Building blocks:
#     Node 0, Type 0, BuildingBlock: NAWXER_clean_sbu_0, # of connection points: 4
#     Node 1, Type 0, BuildingBlock: NAWXER_clean_sbu_0, # of connection points: 4
#     Node 2, Type 0, BuildingBlock: NAWXER_clean_sbu_0, # of connection points: 4
#     Node 3, Type 0, BuildingBlock: NAWXER_clean_sbu_0, # of connection points: 4
#     Node 4, Type 0, BuildingBlock: NAWXER_clean_sbu_0, # of connection points: 4
#     Node 5, Type 0, BuildingBlock: NAWXER_clean_sbu_0, # of connection points: 4
#     Edge 6, Type (0, 0), BuildingBlock: KIFKEQ_clean_linker_1, # of connection points: 2
#     Edge 7, Type (0, 0), BuildingBlock: KIFKEQ_clean_linker_1, # of connection points: 2
#     Edge 8, Type (0, 0), BuildingBlock: KIFKEQ_clean_linker_1, # of connection points: 2
#     Edge 9, Type (0, 0), BuildingBlock: KIFKEQ_clean_linker_1, # of connection points: 2
#     Edge 10, Type (0, 0), BuildingBlock: KIFKEQ_clean_linker_1, # of connection points: 2
#     Edge 11, Type (0, 0), BuildingBlock: KIFKEQ_clean_linker_1, # of connection points: 2
#     Edge 12, Type (0, 0), BuildingBlock: KIFKEQ_clean_linker_1, # of connection points: 2
#     Edge 13, Type (0, 0), BuildingBlock: KIFKEQ_clean_linker_1, # of connection points: 2
#     Edge 14, Type (0, 0), BuildingBlock: KIFKEQ_clean_linker_1, # of connection points: 2
#     Edge 15, Type (0, 0), BuildingBlock: KIFKEQ_clean_linker_1, # of connection points: 2
#     Edge 16, Type (0, 0), BuildingBlock: KIFKEQ_clean_linker_1, # of connection points: 2
#     Edge 17, Type (0, 0), BuildingBlock: KIFKEQ_clean_linker_1, # of connection points: 2
# Relax obj value: 0.013
# Max RMSD: 0.240
# Mean RMSD: 0.240
data_MOF--net-uog--node1-NAWXER_clean_sbu_0--edge1-KIFKEQ_clean_linker_1
_symmetry_space_group_name_H-M    P1
_symmetry_Int_Tables_number       1
_symmetry_cell_setting            triclinic
loop_
_symmetry_equiv_pos_as_xyz
'x, y, z'
_cell_length_a     29.623737
_cell_length_b     29.613604
_cell_length_c     44.178759
_cell_angle_alpha  89.998455
_cell_angle_beta   89.989336
_cell_angle_gamma 120.02971
loop_
_atom_site_label
_atom_site_type_symbol
_atom_site_fract_x
_atom_site_fract_y
_atom_site_fract_z
_atom_type_partial_charge
C0 C 0.54188 0.35391 0.16972 0.0
C1 C 0.54444 0.19177 0.1782 0.0
O2 O 0.50416 0.30753 0.17194 0.0
Zn3 Zn 0.54464 0.27363 0.17427 0.0
O4 O 0.58885 0.36232 0.16975 0.0
Zn5 Zn 0.62587 0.31514 0.17337 0.0
O6 O 0.66485 0.33042 0.13677 0.0
O7 O 0.57978 0.28595 0.12947 0.0
O8 O 0.59092 0.23101 0.17659 0.0
O9 O 0.5059 0.19932 0.17794 0.0
O10 O 0.58161 0.29803 0.21814 0.0
O11 O 0.66626 0.34043 0.20967 0.0
C12 C 0.62642 0.3083 0.1188 0.0
C13 C 0.62853 0.3235 0.22818 0.0
C14 C 0.31155 0.62422 0.56109 0.0
C15 C 0.32435 0.62338 0.45159 0.0
O16 O 0.3318 0.66221 0.54272 0.0
Zn17 Zn 0.31694 0.62235 0.50628 0.0
O18 O 0.29042 0.5774 0.55085 0.0
Zn19 Zn 0.27749 0.54103 0.5066 0.0
O20 O 0.31274 0.50213 0.5093 0.0
O21 O 0.36622 0.58728 0.50977 0.0
O22 O 0.30108 0.5767 0.46216 0.0
O23 O 0.3396 0.66169 0.46956 0.0
O24 O 0.23299 0.58537 0.50292 0.0
O25 O 0.20294 0.50064 0.50412 0.0
C26 C 0.35883 0.54065 0.5105 0.0
C27 C 0.19439 0.53846 0.50249 0.0
C28 C 0.69385 0.30851 0.8948 0.0
C29 C 0.70806 0.323 0.78544 0.0
O30 O 0.67776 0.33053 0.87663 0.0
Zn31 Zn 0.7019 0.31507 0.84013 0.0
O32 O 0.71847 0.28638 0.8844 0.0
Zn33 Zn 0.74248 0.27441 0.84005 0.0
O34 O 0.81683 0.30919 0.84351 0.0
O35 O 0.78613 0.36335 0.8431 0.0
O36 O 0.73026 0.29839 0.79576 0.0
O37 O 0.68625 0.3392 0.8037 0.0
O38 O 0.65362 0.23083 0.8371 0.0
O39 O 0.70772 0.20004 0.83651 0.0
C40 C 0.825 0.3555 0.84425 0.0
C41 C 0.66143 0.19193 0.83586 0.0
C42 C 0.39265 0.69137 0.2284 0.0
C43 C 0.39406 0.7054 0.11894 0.0
O44 O 0.35483 0.67687 0.21016 0.0
Zn45 Zn 0.39494 0.69959 0.17361 0.0
O46 O 0.4395 0.71452 0.21818 0.0
Zn47 Zn 0.47617 0.73915 0.1742 0.0
O48 O 0.5163 0.81366 0.1778 0.0
O49 O 0.43164 0.78364 0.17623 0.0
O50 O 0.44075 0.72689 0.12947 0.0
O51 O 0.35574 0.68447 0.13707 0.0
O52 O 0.43023 0.65047 0.17033 0.0
O53 O 0.51529 0.70409 0.17163 0.0
C54 C 0.47844 0.82225 0.17781 0.0
C55 C 0.4769 0.65797 0.16998 0.0
C56 C 0.66351 0.47678 0.51085 0.0
C57 C 0.82623 0.47549 0.50291 0.0
O58 O 0.70984 0.51471 0.50915 0.0
Zn59 Zn 0.74411 0.47461 0.50685 0.0
O60 O 0.65532 0.42988 0.51048 0.0
Zn61 Zn 0.70299 0.39337 0.50686 0.0
O62 O 0.68762 0.35359 0.54327 0.0
O63 O 0.73076 0.43846 0.55125 0.0
O64 O 0.78709 0.42884 0.50329 0.0
O65 O 0.81849 0.51385 0.50456 0.0
O66 O 0.72116 0.43859 0.46245 0.0
O67 O 0.67831 0.35373 0.47043 0.0
C68 C 0.70878 0.39163 0.56156 0.0
C69 C 0.69585 0.3918 0.45213 0.0
C70 C 0.35877 0.82173 0.83611 0.0
C71 C 0.19528 0.65805 0.84427 0.0
O72 O 0.31247 0.81358 0.83686 0.0
Zn73 Zn 0.27778 0.7392 0.8402 0.0
O74 O 0.36662 0.78285 0.83722 0.0
Zn75 Zn 0.31839 0.69856 0.84009 0.0
O76 O 0.33409 0.67477 0.8035 0.0
O77 O 0.29012 0.71566 0.79579 0.0
O78 O 0.23416 0.65023 0.84303 0.0
O79 O 0.20342 0.70437 0.84366 0.0
O80 O 0.30175 0.72695 0.88449 0.0
O81 O 0.34248 0.68287 0.87658 0.0
C82 C 0.31235 0.69118 0.78533 0.0
C83 C 0.32635 0.70476 0.89483 0.0
H84 H 0.61324 0.15875 0.16454 0.0
H85 H 0.45565 0.10334 0.19521 0.0
H86 H 0.59731 0.06969 0.16476 0.0
H87 H 0.44029 0.01462 0.19682 0.0
H88 H 0.41039 0.85627 0.16469 0.0
H89 H 0.42702 0.94546 0.16517 0.0
H90 H 0.58471 0.99957 0.19559 0.0
H91 H 0.56857 0.9105 0.19372 0.0
C92 C 0.57538 0.12758 0.17171 0.0
C93 C 0.53565 0.13804 0.17974 0.0
C94 C 0.56628 0.07646 0.17201 0.0
C95 C 0.51741 0.03467 0.18075 0.0
C96 C 0.47805 0.0455 0.18934 0.0
C97 C 0.48694 0.09648 0.18863 0.0
C98 C 0.44857 0.88723 0.17153 0.0
C99 C 0.48818 0.87633 0.17912 0.0
C100 C 0.45808 0.93845 0.172 0.0
C101 C 0.50725 0.98 0.18048 0.0
C102 C 0.54666 0.96885 0.18841 0.0
C103 C 0.53733 0.91768 0.18755 0.0
H104 H 0.45958 0.61004 0.52644 0.0
H105 H 0.35914 0.45071 0.49794 0.0
H106 H 0.53305 0.5947 0.52874 0.0
H107 H 0.43272 0.43592 0.49878 0.0
H108 H 0.56317 0.40887 0.52798 0.0
H109 H 0.49018 0.42487 0.53007 0.0
H110 H 0.59065 0.58235 0.4981 0.0
H111 H 0.66393 0.56694 0.49747 0.0
C112 C 0.4533 0.57184 0.52048 0.0
C113 C 0.40356 0.53159 0.51207 0.0
C114 C 0.49549 0.56306 0.5216 0.0
C115 C 0.48907 0.51402 0.51391 0.0
C116 C 0.43915 0.47387 0.50546 0.0
C117 C 0.3969 0.48244 0.50477 0.0
C118 C 0.56962 0.44696 0.52154 0.0
C119 C 0.61928 0.48661 0.51255 0.0
C120 C 0.52769 0.4561 0.52254 0.0
C121 C 0.53424 0.5049 0.51412 0.0
C122 C 0.58414 0.54459 0.50527 0.0
C123 C 0.62619 0.53566 0.5047 0.0
H124 H 0.91303 0.35374 0.86047 0.0
H125 H 0.85901 0.45782 0.83139 0.0
H126 H 1.00208 0.42658 0.8623 0.0
H127 H 0.9483 0.53038 0.83178 0.0
H128 H 0.1073 0.65965 0.86085 0.0
H129 H 0.01827 0.58679 0.86268 0.0
H130 H 0.07193 0.48329 0.83139 0.0
H131 H 0.16122 0.55587 0.83101 0.0
C132 C 0.92026 0.3922 0.85428 0.0
C133 C 0.87898 0.40003 0.84581 0.0
C134 C 0.97144 0.434 0.85512 0.0
C135 C 0.98274 0.48459 0.84706 0.0
C136 C 0.94122 0.49229 0.83866 0.0
C137 C 0.88994 0.45059 0.83825 0.0
C138 C 0.10005 0.62126 0.85449 0.0
C139 C 0.1413 0.61351 0.84581 0.0
C140 C 0.04887 0.57945 0.85533 0.0
C141 C 0.03755 0.52893 0.84706 0.0
C142 C 0.07904 0.52131 0.83844 0.0
C143 C 0.13032 0.56302 0.83804 0.0
H144 H 0.16225 0.60655 0.48553 0.0
H145 H 0.10442 0.44819 0.51562 0.0
H146 H 0.07341 0.59087 0.48348 0.0
H147 H 0.01577 0.43305 0.515 0.0
H148 H 0.85742 0.40629 0.48645 0.0
H149 H 0.94613 0.42137 0.48418 0.0
H150 H 1.00493 0.57977 0.51493 0.0
H151 H 0.91662 0.56526 0.51577 0.0
C152 C 0.13053 0.56845 0.49188 0.0
C153 C 0.14034 0.52863 0.50075 0.0
C154 C 0.07953 0.5595 0.49091 0.0
C155 C 0.03715 0.51071 0.49922 0.0
C156 C 0.04715 0.47083 0.50793 0.0
C157 C 0.09809 0.47958 0.50848 0.0
C158 C 0.88939 0.44437 0.49259 0.0
C159 C 0.88002 0.48459 0.50124 0.0
C160 C 0.94029 0.45298 0.49148 0.0
C161 C 0.98297 0.50182 0.49942 0.0
C162 C 0.97334 0.54198 0.50808 0.0
C163 C 0.92257 0.53357 0.50876 0.0
H164 H 0.35707 0.90982 0.81986 0.0
H165 H 0.46101 0.85567 0.84897 0.0
H166 H 0.42995 0.99885 0.81795 0.0
H167 H 0.53362 0.94496 0.8485 0.0
H168 H 0.66292 0.10387 0.81927 0.0
H169 H 0.59 0.01484 0.81749 0.0
H170 H 0.48672 0.06873 0.84882 0.0
H171 H 0.55934 0.158 0.84915 0.0
C172 C 0.3955 0.91703 0.82605 0.0
C173 C 0.40329 0.87571 0.83455 0.0
C174 C 0.43732 0.9682 0.82516 0.0
C175 C 0.48789 0.97945 0.83319 0.0
C176 C 0.49554 0.9379 0.84164 0.0
C177 C 0.45382 0.88663 0.84209 0.0
C178 C 0.62455 0.09666 0.82564 0.0
C179 C 0.61687 0.13797 0.83433 0.0
C180 C 0.58272 0.0455 0.82484 0.0
C181 C 0.53225 0.03424 0.83314 0.0
C182 C 0.5247 0.07579 0.84175 0.0
C183 C 0.56644 0.12705 0.84212 0.0
H184 H 0.40772 0.55715 0.15395 0.0
H185 H 0.56695 0.65786 0.18248 0.0
H186 H 0.42327 0.48378 0.15162 0.0
H187 H 0.58194 0.58439 0.18155 0.0
H188 H 0.60932 0.45419 0.15223 0.0
H189 H 0.59302 0.52699 0.15007 0.0
H190 H 0.43587 0.42632 0.18239 0.0
H191 H 0.45159 0.3532 0.18314 0.0
C192 C 0.44595 0.56353 0.1599 0.0
C193 C 0.4861 0.61331 0.16834 0.0
C194 C 0.45484 0.52139 0.15875 0.0
C195 C 0.50391 0.52792 0.16643 0.0
C196 C 0.54397 0.57788 0.17489 0.0
C197 C 0.53528 0.62007 0.17563 0.0
C198 C 0.57124 0.44763 0.15873 0.0
C199 C 0.53178 0.39796 0.16787 0.0
C200 C 0.56193 0.48947 0.15769 0.0
C201 C 0.51314 0.48282 0.1662 0.0
C202 C 0.47362 0.4329 0.17517 0.0
C203 C 0.48273 0.39094 0.17579 0.0
H204 H 0.63211 0.33981 0.92311 0.0
H205 H 0.73226 0.27556 0.94081 0.0
H206 H 0.61514 0.33881 0.97719 0.0
H207 H 0.71499 0.27442 0.99494 0.0
H208 H 0.71928 0.34042 0.09016 0.0
H209 H 0.73491 0.33959 0.03608 0.0
H210 H 0.57034 0.27395 0.01875 0.0
H211 H 0.55452 0.27493 0.07298 0.0
C212 C 0.6505 0.32545 0.93852 0.0
C213 C 0.68365 0.30787 0.92765 0.0
C214 C 0.64047 0.32457 0.96948 0.0
C215 C 0.6637 0.30651 0.99028 0.0
C216 C 0.6969 0.28899 0.97945 0.0
C217 C 0.70661 0.28945 0.94844 0.0
C218 C 0.68636 0.32582 0.07486 0.0
C219 C 0.63563 0.3078 0.0859 0.0
C220 C 0.69533 0.32505 0.04389 0.0
C221 C 0.65386 0.30662 0.0232 0.0
C222 C 0.60313 0.28877 0.03417 0.0
C223 C 0.59406 0.28913 0.06522 0.0
H224 H 0.3087 0.67973 0.26028 0.0
H225 H 0.45403 0.68025 0.27033 0.0
H226 H 0.2922 0.66325 0.31464 0.0
H227 H 0.43648 0.66215 0.32457 0.0
H228 H 0.3345 0.56107 0.40984 0.0
H229 H 0.35202 0.57787 0.35549 0.0
H230 H 0.35126 0.72245 0.3649 0.0
H231 H 0.33537 0.70671 0.41933 0.0
C232 C 0.33692 0.67605 0.27408 0.0
C233 C 0.38269 0.68135 0.26115 0.0
C234 C 0.32752 0.66678 0.30509 0.0
C235 C 0.36306 0.66137 0.32353 0.0
C236 C 0.4085 0.66602 0.31064 0.0
C237 C 0.41857 0.67658 0.27975 0.0
C238 C 0.33806 0.5964 0.40027 0.0
C239 C 0.33364 0.63263 0.41875 0.0
C240 C 0.34828 0.60604 0.36932 0.0
C241 C 0.35291 0.65137 0.35626 0.0
C242 C 0.34771 0.68719 0.37458 0.0
C243 C 0.3388 0.67823 0.40564 0.0
H244 H 0.67556 0.38385 0.75722 0.0
H245 H 0.74131 0.28503 0.73933 0.0
H246 H 0.67612 0.40068 0.70317 0.0
H247 H 0.74205 0.30221 0.68521 0.0
H248 H 0.677 0.2984 0.58978 0.0
H249 H 0.67727 0.28213 0.64385 0.0
H250 H 0.7409 0.44628 0.66187 0.0
H251 H 0.74046 0.46272 0.60772 0.0
C252 C 0.69015 0.36572 0.74178 0.0
C253 C 0.70834 0.33302 0.75259 0.0
C254 C 0.69076 0.37566 0.71082 0.0
C255 C 0.70917 0.35282 0.68997 0.0
C256 C 0.72719 0.31999 0.70074 0.0
C257 C 0.72699 0.31036 0.73174 0.0
C258 C 0.69101 0.33107 0.60525 0.0
C259 C 0.70867 0.38188 0.59443 0.0
C260 C 0.69146 0.32174 0.63621 0.0
C261 C 0.70918 0.36293 0.65708 0.0
C262 C 0.7266 0.41371 0.64632 0.0
C263 C 0.72656 0.42313 0.61531 0.0
H264 H 0.38712 0.67222 0.92316 0.0
H265 H 0.28869 0.73845 0.94089 0.0
H266 H 0.40401 0.67301 0.97724 0.0
H267 H 0.30593 0.73943 0.995 0.0
H268 H 0.3013 0.67444 0.09044 0.0
H269 H 0.28548 0.67486 0.03635 0.0
H270 H 0.44954 0.73741 0.01869 0.0
H271 H 0.46553 0.7368 0.07292 0.0
C272 C 0.36909 0.68697 0.93857 0.0
C273 C 0.33645 0.70518 0.9277 0.0
C274 C 0.37908 0.68773 0.96954 0.0
C275 C 0.35634 0.70631 0.99035 0.0
C276 C 0.32362 0.72443 0.97951 0.0
C277 C 0.31395 0.72407 0.94851 0.0
C278 C 0.33407 0.68826 0.07507 0.0
C279 C 0.38471 0.70555 0.08602 0.0
C280 C 0.32499 0.68879 0.04408 0.0
C281 C 0.36626 0.70626 0.02329 0.0
C282 C 0.41689 0.72332 0.03417 0.0
C283 C 0.42606 0.72319 0.06523 0.0
H284 H 0.73522 0.4631 0.40603 0.0
H285 H 0.63541 0.2985 0.42376 0.0
H286 H 0.71888 0.44674 0.35184 0.0
H287 H 0.61948 0.28231 0.36966 0.0
H288 H 0.5578 0.2845 0.27445 0.0
H289 H 0.57441 0.30163 0.32851 0.0
H290 H 0.73848 0.4021 0.31028 0.0
H291 H 0.72199 0.38534 0.2562 0.0
C292 C 0.7099 0.42346 0.39839 0.0
C293 C 0.68661 0.38212 0.41923 0.0
C294 C 0.70076 0.41408 0.36735 0.0
C295 C 0.66783 0.36325 0.35653 0.0
C296 C 0.64455 0.32197 0.37735 0.0
C297 C 0.65396 0.33126 0.40834 0.0
C298 C 0.59742 0.31024 0.28195 0.0
C299 C 0.63857 0.33351 0.26101 0.0
C300 C 0.60695 0.31984 0.31293 0.0
C301 C 0.65775 0.3532 0.32362 0.0
C302 C 0.69885 0.37664 0.30268 0.0
C303 C 0.68941 0.36675 0.27172 0.0
H304 H 0.27888 0.72937 0.73943 0.0
H305 H 0.34544 0.6311 0.75673 0.0
H306 H 0.27829 0.71281 0.68523 0.0
H307 H 0.34507 0.61492 0.70261 0.0
H308 H 0.28094 0.55318 0.60723 0.0
H309 H 0.28065 0.56937 0.6614 0.0
H310 H 0.34243 0.73332 0.64357 0.0
H311 H 0.34249 0.71726 0.58944 0.0
C312 C 0.29343 0.70431 0.7317 0.0
C313 C 0.31223 0.68159 0.75242 0.0
C314 C 0.29332 0.69504 0.70065 0.0
C315 C 0.3116 0.66253 0.68968 0.0
C316 C 0.33022 0.63969 0.7104 0.0
C317 C 0.33071 0.64926 0.7414 0.0
C318 C 0.29447 0.59268 0.61485 0.0
C319 C 0.31176 0.63392 0.594 0.0
C320 C 0.29453 0.60197 0.64589 0.0
C321 C 0.31149 0.65262 0.65673 0.0
C322 C 0.32861 0.6938 0.63588 0.0
C323 C 0.32894 0.6846 0.60488 0.0
loop_
_geom_bond_atom_site_label_1
_geom_bond_atom_site_label_2
_geom_bond_distance
_geom_bond_site_symmetry_2
_ccdc_geom_bond_type
C0 O2 1.247 . S
C0 O4 1.258 . S
C1 O8 1.247 . S
C1 O9 1.258 . S
O2 C0 1.247 . S
O2 Zn3 2.028 . S
Zn3 O2 2.028 . S
Zn3 O7 2.035 . S
Zn3 O9 2.035 . S
Zn3 O10 2.028 . S
O4 C0 1.258 . S
O4 Zn5 2.035 . S
Zn5 O4 2.035 . S
Zn5 O6 2.028 . S
Zn5 O8 2.028 . S
Zn5 O11 2.035 . S
O6 Zn5 2.028 . S
O6 C12 1.247 . S
O7 Zn3 2.035 . S
O7 C12 1.258 . S
O8 C1 1.247 . S
O8 Zn5 2.028 . S
O9 C1 1.258 . S
O9 Zn3 2.035 . S
O10 Zn3 2.028 . S
O10 C13 1.247 . S
O11 Zn5 2.035 . S
O11 C13 1.258 . S
C12 O6 1.247 . S
C12 O7 1.258 . S
C13 O10 1.247 . S
C13 O11 1.258 . S
C14 O16 1.247 . S
C14 O18 1.258 . S
C15 O22 1.247 . S
C15 O23 1.258 . S
O16 C14 1.247 . S
O16 Zn17 2.028 . S
Zn17 O16 2.028 . S
Zn17 O21 2.035 . S
Zn17 O23 2.035 . S
Zn17 O24 2.028 . S
O18 C14 1.258 . S
O18 Zn19 2.035 . S
Zn19 O18 2.035 . S
Zn19 O20 2.028 . S
Zn19 O22 2.028 . S
Zn19 O25 2.035 . S
O20 Zn19 2.028 . S
O20 C26 1.247 . S
O21 Zn17 2.035 . S
O21 C26 1.258 . S
O22 C15 1.247 . S
O22 Zn19 2.028 . S
O23 C15 1.258 . S
O23 Zn17 2.035 . S
O24 Zn17 2.028 . S
O24 C27 1.247 . S
O25 Zn19 2.035 . S
O25 C27 1.258 . S
C26 O20 1.247 . S
C26 O21 1.258 . S
C27 O24 1.247 . S
C27 O25 1.258 . S
C28 O30 1.247 . S
C28 O32 1.258 . S
C29 O36 1.247 . S
C29 O37 1.258 . S
O30 C28 1.247 . S
O30 Zn31 2.028 . S
Zn31 O30 2.028 . S
Zn31 O35 2.035 . S
Zn31 O37 2.035 . S
Zn31 O38 2.028 . S
O32 C28 1.258 . S
O32 Zn33 2.035 . S
Zn33 O32 2.035 . S
Zn33 O34 2.028 . S
Zn33 O36 2.028 . S
Zn33 O39 2.035 . S
O34 Zn33 2.028 . S
O34 C40 1.247 . S
O35 Zn31 2.035 . S
O35 C40 1.258 . S
O36 C29 1.247 . S
O36 Zn33 2.028 . S
O37 C29 1.258 . S
O37 Zn31 2.035 . S
O38 Zn31 2.028 . S
O38 C41 1.247 . S
O39 Zn33 2.035 . S
O39 C41 1.258 . S
C40 O34 1.247 . S
C40 O35 1.258 . S
C41 O38 1.247 . S
C41 O39 1.258 . S
C42 O44 1.247 . S
C42 O46 1.258 . S
C43 O50 1.247 . S
C43 O51 1.258 . S
O44 C42 1.247 . S
O44 Zn45 2.028 . S
Zn45 O44 2.028 . S
Zn45 O49 2.035 . S
Zn45 O51 2.035 . S
Zn45 O52 2.028 . S
O46 C42 1.258 . S
O46 Zn47 2.035 . S
Zn47 O46 2.035 . S
Zn47 O48 2.028 . S
Zn47 O50 2.028 . S
Zn47 O53 2.035 . S
O48 Zn47 2.028 . S
O48 C54 1.247 . S
O49 Zn45 2.035 . S
O49 C54 1.258 . S
O50 C43 1.247 . S
O50 Zn47 2.028 . S
O51 C43 1.258 . S
O51 Zn45 2.035 . S
O52 Zn45 2.028 . S
O52 C55 1.247 . S
O53 Zn47 2.035 . S
O53 C55 1.258 . S
C54 O48 1.247 . S
C54 O49 1.258 . S
C55 O52 1.247 . S
C55 O53 1.258 . S
C56 O58 1.247 . S
C56 O60 1.258 . S
C57 O64 1.247 . S
C57 O65 1.258 . S
O58 C56 1.247 . S
O58 Zn59 2.028 . S
Zn59 O58 2.028 . S
Zn59 O63 2.035 . S
Zn59 O65 2.035 . S
Zn59 O66 2.028 . S
O60 C56 1.258 . S
O60 Zn61 2.035 . S
Zn61 O60 2.035 . S
Zn61 O62 2.028 . S
Zn61 O64 2.028 . S
Zn61 O67 2.035 . S
O62 Zn61 2.028 . S
O62 C68 1.247 . S
O63 Zn59 2.035 . S
O63 C68 1.258 . S
O64 C57 1.247 . S
O64 Zn61 2.028 . S
O65 C57 1.258 . S
O65 Zn59 2.035 . S
O66 Zn59 2.028 . S
O66 C69 1.247 . S
O67 Zn61 2.035 . S
O67 C69 1.258 . S
C68 O62 1.247 . S
C68 O63 1.258 . S
C69 O66 1.247 . S
C69 O67 1.258 . S
C70 O72 1.247 . S
C70 O74 1.258 . S
C71 O78 1.247 . S
C71 O79 1.258 . S
O72 C70 1.247 . S
O72 Zn73 2.028 . S
Zn73 O72 2.028 . S
Zn73 O77 2.035 . S
Zn73 O79 2.035 . S
Zn73 O80 2.028 . S
O74 C70 1.258 . S
O74 Zn75 2.035 . S
Zn75 O74 2.035 . S
Zn75 O76 2.028 . S
Zn75 O78 2.028 . S
Zn75 O81 2.035 . S
O76 Zn75 2.028 . S
O76 C82 1.247 . S
O77 Zn73 2.035 . S
O77 C82 1.258 . S
O78 C71 1.247 . S
O78 Zn75 2.028 . S
O79 C71 1.258 . S
O79 Zn73 2.035 . S
O80 Zn73 2.028 . S
O80 C83 1.247 . S
O81 Zn75 2.035 . S
O81 C83 1.258 . S
C82 O76 1.247 . S
C82 O77 1.258 . S
C83 O80 1.247 . S
C83 O81 1.258 . S
H84 C92 0.950 . S
H85 C97 0.950 . S
H86 C94 0.950 . S
H87 C96 0.950 . S
H88 C98 0.950 . S
H89 C100 0.950 . S
H90 C102 0.950 . S
H91 C103 0.950 . S
C92 H84 0.950 . S
C92 C93 1.386 . S
C92 C94 1.391 . S
C93 C92 1.386 . S
C93 C97 1.393 . S
C94 H86 0.950 . S
C94 C92 1.391 . S
C94 C95 1.400 . S
C95 C94 1.400 . S
C95 C96 1.398 . S
C95 C101 1.491 1_545 S
C96 H87 0.950 . S
C96 C95 1.398 . S
C96 C97 1.391 . S
C97 H85 0.950 . S
C97 C93 1.393 . S
C97 C96 1.391 . S
C98 H88 0.950 . S
C98 C99 1.386 . S
C98 C100 1.391 . S
C99 C98 1.386 . S
C99 C103 1.393 . S
C100 H89 0.950 . S
C100 C98 1.391 . S
C100 C101 1.400 . S
C101 C95 1.491 1_565 S
C101 C100 1.400 . S
C101 C102 1.398 . S
C102 H90 0.950 . S
C102 C101 1.398 . S
C102 C103 1.391 . S
C103 H91 0.950 . S
C103 C99 1.393 . S
C103 C102 1.391 . S
H104 C112 0.950 . S
H105 C117 0.950 . S
H106 C114 0.950 . S
H107 C116 0.950 . S
H108 C118 0.950 . S
H109 C120 0.950 . S
H110 C122 0.950 . S
H111 C123 0.950 . S
C112 H104 0.950 . S
C112 C113 1.386 . S
C112 C114 1.391 . S
C113 C112 1.386 . S
C113 C117 1.393 . S
C114 H106 0.950 . S
C114 C112 1.391 . S
C114 C115 1.400 . S
C115 C114 1.400 . S
C115 C116 1.398 . S
C115 C121 1.491 . S
C116 H107 0.950 . S
C116 C115 1.398 . S
C116 C117 1.391 . S
C117 H105 0.950 . S
C117 C113 1.393 . S
C117 C116 1.391 . S
C118 H108 0.950 . S
C118 C119 1.386 . S
C118 C120 1.391 . S
C119 C118 1.386 . S
C119 C123 1.393 . S
C120 H109 0.950 . S
C120 C118 1.391 . S
C120 C121 1.400 . S
C121 C115 1.491 . S
C121 C120 1.400 . S
C121 C122 1.398 . S
C122 H110 0.950 . S
C122 C121 1.398 . S
C122 C123 1.391 . S
C123 H111 0.950 . S
C123 C119 1.393 . S
C123 C122 1.391 . S
H124 C132 0.950 . S
H125 C137 0.950 . S
H126 C134 0.950 . S
H127 C136 0.950 . S
H128 C138 0.950 . S
H129 C140 0.950 . S
H130 C142 0.950 . S
H131 C143 0.950 . S
C132 H124 0.950 . S
C132 C133 1.386 . S
C132 C134 1.391 . S
C133 C132 1.386 . S
C133 C137 1.393 . S
C134 H126 0.950 . S
C134 C132 1.391 . S
C134 C135 1.400 . S
C135 C134 1.400 . S
C135 C136 1.398 . S
C135 C141 1.491 1_655 S
C136 H127 0.950 . S
C136 C135 1.398 . S
C136 C137 1.391 . S
C137 H125 0.950 . S
C137 C133 1.393 . S
C137 C136 1.391 . S
C138 H128 0.950 . S
C138 C139 1.386 . S
C138 C140 1.391 . S
C139 C138 1.386 . S
C139 C143 1.393 . S
C140 H129 0.950 . S
C140 C138 1.391 . S
C140 C141 1.400 . S
C141 C135 1.491 1_455 S
C141 C140 1.400 . S
C141 C142 1.398 . S
C142 H130 0.950 . S
C142 C141 1.398 . S
C142 C143 1.391 . S
C143 H131 0.950 . S
C143 C139 1.393 . S
C143 C142 1.391 . S
H144 C152 0.950 . S
H145 C157 0.950 . S
H146 C154 0.950 . S
H147 C156 0.950 . S
H148 C158 0.950 . S
H149 C160 0.950 . S
H150 C162 0.950 . S
H151 C163 0.950 . S
C152 H144 0.950 . S
C152 C153 1.386 . S
C152 C154 1.391 . S
C153 C152 1.386 . S
C153 C157 1.393 . S
C154 H146 0.950 . S
C154 C152 1.391 . S
C154 C155 1.400 . S
C155 C154 1.400 . S
C155 C156 1.398 . S
C155 C161 1.491 1_455 S
C156 H147 0.950 . S
C156 C155 1.398 . S
C156 C157 1.391 . S
C157 H145 0.950 . S
C157 C153 1.393 . S
C157 C156 1.391 . S
C158 H148 0.950 . S
C158 C159 1.386 . S
C158 C160 1.391 . S
C159 C158 1.386 . S
C159 C163 1.393 . S
C160 H149 0.950 . S
C160 C158 1.391 . S
C160 C161 1.400 . S
C161 C155 1.491 1_655 S
C161 C160 1.400 . S
C161 C162 1.398 . S
C162 H150 0.950 . S
C162 C161 1.398 . S
C162 C163 1.391 . S
C163 H151 0.950 . S
C163 C159 1.393 . S
C163 C162 1.391 . S
H164 C172 0.950 . S
H165 C177 0.950 . S
H166 C174 0.950 . S
H167 C176 0.950 . S
H168 C178 0.950 . S
H169 C180 0.950 . S
H170 C182 0.950 . S
H171 C183 0.950 . S
C172 H164 0.950 . S
C172 C173 1.386 . S
C172 C174 1.391 . S
C173 C172 1.386 . S
C173 C177 1.393 . S
C174 H166 0.950 . S
C174 C172 1.391 . S
C174 C175 1.400 . S
C175 C174 1.400 . S
C175 C176 1.398 . S
C175 C181 1.491 1_565 S
C176 H167 0.950 . S
C176 C175 1.398 . S
C176 C177 1.391 . S
C177 H165 0.950 . S
C177 C173 1.393 . S
C177 C176 1.391 . S
C178 H168 0.950 . S
C178 C179 1.386 . S
C178 C180 1.391 . S
C179 C178 1.386 . S
C179 C183 1.393 . S
C180 H169 0.950 . S
C180 C178 1.391 . S
C180 C181 1.400 . S
C181 C175 1.491 1_545 S
C181 C180 1.400 . S
C181 C182 1.398 . S
C182 H170 0.950 . S
C182 C181 1.398 . S
C182 C183 1.391 . S
C183 H171 0.950 . S
C183 C179 1.393 . S
C183 C182 1.391 . S
H184 C192 0.950 . S
H185 C197 0.950 . S
H186 C194 0.950 . S
H187 C196 0.950 . S
H188 C198 0.950 . S
H189 C200 0.950 . S
H190 C202 0.950 . S
H191 C203 0.950 . S
C192 H184 0.950 . S
C192 C193 1.386 . S
C192 C194 1.391 . S
C193 C192 1.386 . S
C193 C197 1.393 . S
C194 H186 0.950 . S
C194 C192 1.391 . S
C194 C195 1.400 . S
C195 C194 1.400 . S
C195 C196 1.398 . S
C195 C201 1.491 . S
C196 H187 0.950 . S
C196 C195 1.398 . S
C196 C197 1.391 . S
C197 H185 0.950 . S
C197 C193 1.393 . S
C197 C196 1.391 . S
C198 H188 0.950 . S
C198 C199 1.386 . S
C198 C200 1.391 . S
C199 C198 1.386 . S
C199 C203 1.393 . S
C200 H189 0.950 . S
C200 C198 1.391 . S
C200 C201 1.400 . S
C201 C195 1.491 . S
C201 C200 1.400 . S
C201 C202 1.398 . S
C202 H190 0.950 . S
C202 C201 1.398 . S
C202 C203 1.391 . S
C203 H191 0.950 . S
C203 C199 1.393 . S
C203 C202 1.391 . S
H204 C212 0.950 . S
H205 C217 0.950 . S
H206 C214 0.950 . S
H207 C216 0.950 . S
H208 C218 0.950 . S
H209 C220 0.950 . S
H210 C222 0.950 . S
H211 C223 0.950 . S
C212 H204 0.950 . S
C212 C213 1.386 . S
C212 C214 1.391 . S
C213 C212 1.386 . S
C213 C217 1.393 . S
C214 H206 0.950 . S
C214 C212 1.391 . S
C214 C215 1.400 . S
C215 C214 1.400 . S
C215 C216 1.398 . S
C215 C221 1.491 1_556 S
C216 H207 0.950 . S
C216 C215 1.398 . S
C216 C217 1.391 . S
C217 H205 0.950 . S
C217 C213 1.393 . S
C217 C216 1.391 . S
C218 H208 0.950 . S
C218 C219 1.386 . S
C218 C220 1.391 . S
C219 C218 1.386 . S
C219 C223 1.393 . S
C220 H209 0.950 . S
C220 C218 1.391 . S
C220 C221 1.400 . S
C221 C215 1.491 1_554 S
C221 C220 1.400 . S
C221 C222 1.398 . S
C222 H210 0.950 . S
C222 C221 1.398 . S
C222 C223 1.391 . S
C223 H211 0.950 . S
C223 C219 1.393 . S
C223 C222 1.391 . S
H224 C232 0.950 . S
H225 C237 0.950 . S
H226 C234 0.950 . S
H227 C236 0.950 . S
H228 C238 0.950 . S
H229 C240 0.950 . S
H230 C242 0.950 . S
H231 C243 0.950 . S
C232 H224 0.950 . S
C232 C233 1.386 . S
C232 C234 1.391 . S
C233 C232 1.386 . S
C233 C237 1.393 . S
C234 H226 0.950 . S
C234 C232 1.391 . S
C234 C235 1.400 . S
C235 C234 1.400 . S
C235 C236 1.398 . S
C235 C241 1.491 . S
C236 H227 0.950 . S
C236 C235 1.398 . S
C236 C237 1.391 . S
C237 H225 0.950 . S
C237 C233 1.393 . S
C237 C236 1.391 . S
C238 H228 0.950 . S
C238 C239 1.386 . S
C238 C240 1.391 . S
C239 C238 1.386 . S
C239 C243 1.393 . S
C240 H229 0.950 . S
C240 C238 1.391 . S
C240 C241 1.400 . S
C241 C235 1.491 . S
C241 C240 1.400 . S
C241 C242 1.398 . S
C242 H230 0.950 . S
C242 C241 1.398 . S
C242 C243 1.391 . S
C243 H231 0.950 . S
C243 C239 1.393 . S
C243 C242 1.391 . S
H244 C252 0.950 . S
H245 C257 0.950 . S
H246 C254 0.950 . S
H247 C256 0.950 . S
H248 C258 0.950 . S
H249 C260 0.950 . S
H250 C262 0.950 . S
H251 C263 0.950 . S
C252 H244 0.950 . S
C252 C253 1.386 . S
C252 C254 1.391 . S
C253 C252 1.386 . S
C253 C257 1.393 . S
C254 H246 0.950 . S
C254 C252 1.391 . S
C254 C255 1.400 . S
C255 C254 1.400 . S
C255 C256 1.398 . S
C255 C261 1.491 . S
C256 H247 0.950 . S
C256 C255 1.398 . S
C256 C257 1.391 . S
C257 H245 0.950 . S
C257 C253 1.393 . S
C257 C256 1.391 . S
C258 H248 0.950 . S
C258 C259 1.386 . S
C258 C260 1.391 . S
C259 C258 1.386 . S
C259 C263 1.393 . S
C260 H249 0.950 . S
C260 C258 1.391 . S
C260 C261 1.400 . S
C261 C255 1.491 . S
C261 C260 1.400 . S
C261 C262 1.398 . S
C262 H250 0.950 . S
C262 C261 1.398 . S
C262 C263 1.391 . S
C263 H251 0.950 . S
C263 C259 1.393 . S
C263 C262 1.391 . S
H264 C272 0.950 . S
H265 C277 0.950 . S
H266 C274 0.950 . S
H267 C276 0.950 . S
H268 C278 0.950 . S
H269 C280 0.950 . S
H270 C282 0.950 . S
H271 C283 0.950 . S
C272 H264 0.950 . S
C272 C273 1.386 . S
C272 C274 1.391 . S
C273 C272 1.386 . S
C273 C277 1.393 . S
C274 H266 0.950 . S
C274 C272 1.391 . S
C274 C275 1.400 . S
C275 C274 1.400 . S
C275 C276 1.398 . S
C275 C281 1.491 1_556 S
C276 H267 0.950 . S
C276 C275 1.398 . S
C276 C277 1.391 . S
C277 H265 0.950 . S
C277 C273 1.393 . S
C277 C276 1.391 . S
C278 H268 0.950 . S
C278 C279 1.386 . S
C278 C280 1.391 . S
C279 C278 1.386 . S
C279 C283 1.393 . S
C280 H269 0.950 . S
C280 C278 1.391 . S
C280 C281 1.400 . S
C281 C275 1.491 1_554 S
C281 C280 1.400 . S
C281 C282 1.398 . S
C282 H270 0.950 . S
C282 C281 1.398 . S
C282 C283 1.391 . S
C283 H271 0.950 . S
C283 C279 1.393 . S
C283 C282 1.391 . S
H284 C292 0.950 . S
H285 C297 0.950 . S
H286 C294 0.950 . S
H287 C296 0.950 . S
H288 C298 0.950 . S
H289 C300 0.950 . S
H290 C302 0.950 . S
H291 C303 0.950 . S
C292 H284 0.950 . S
C292 C293 1.386 . S
C292 C294 1.391 . S
C293 C292 1.386 . S
C293 C297 1.393 . S
C294 H286 0.950 . S
C294 C292 1.391 . S
C294 C295 1.400 . S
C295 C294 1.400 . S
C295 C296 1.398 . S
C295 C301 1.491 . S
C296 H287 0.950 . S
C296 C295 1.398 . S
C296 C297 1.391 . S
C297 H285 0.950 . S
C297 C293 1.393 . S
C297 C296 1.391 . S
C298 H288 0.950 . S
C298 C299 1.386 . S
C298 C300 1.391 . S
C299 C298 1.386 . S
C299 C303 1.393 . S
C300 H289 0.950 . S
C300 C298 1.391 . S
C300 C301 1.400 . S
C301 C295 1.491 . S
C301 C300 1.400 . S
C301 C302 1.398 . S
C302 H290 0.950 . S
C302 C301 1.398 . S
C302 C303 1.391 . S
C303 H291 0.950 . S
C303 C299 1.393 . S
C303 C302 1.391 . S
H304 C312 0.950 . S
H305 C317 0.950 . S
H306 C314 0.950 . S
H307 C316 0.950 . S
H308 C318 0.950 . S
H309 C320 0.950 . S
H310 C322 0.950 . S
H311 C323 0.950 . S
C312 H304 0.950 . S
C312 C313 1.386 . S
C312 C314 1.391 . S
C313 C312 1.386 . S
C313 C317 1.393 . S
C314 H306 0.950 . S
C314 C312 1.391 . S
C314 C315 1.400 . S
C315 C314 1.400 . S
C315 C316 1.398 . S
C315 C321 1.491 . S
C316 H307 0.950 . S
C316 C315 1.398 . S
C316 C317 1.391 . S
C317 H305 0.950 . S
C317 C313 1.393 . S
C317 C316 1.391 . S
C318 H308 0.950 . S
C318 C319 1.386 . S
C318 C320 1.391 . S
C319 C318 1.386 . S
C319 C323 1.393 . S
C320 H309 0.950 . S
C320 C318 1.391 . S
C320 C321 1.400 . S
C321 C315 1.491 . S
C321 C320 1.400 . S
C321 C322 1.398 . S
C322 H310 0.950 . S
C322 C321 1.398 . S
C322 C323 1.391 . S
C323 H311 0.950 . S
C323 C319 1.393 . S
C323 C322 1.391 . S
C93 C1 1.714 . S
C99 C54 1.714 . S
C113 C26 1.703 . S
C119 C56 1.706 . S
C133 C40 1.713 . S
C139 C71 1.713 . S
C153 C27 1.702 . S
C159 C57 1.705 . S
C173 C70 1.713 . S
C179 C41 1.713 . S
C193 C55 1.705 . S
C199 C0 1.706 . S
C213 C28 1.789 . S
C219 C12 1.783 . S
C233 C42 1.777 . S
C239 C15 1.777 . S
C253 C29 1.784 . S
C259 C68 1.775 . S
C273 C83 1.787 . S
C279 C43 1.779 . S
C293 C69 1.787 . S
C299 C13 1.791 . S
C313 C82 1.775 . S
C319 C14 1.782 . S
