# Generated by pormake.
# Topology bcg, (8)-cn, num edge types: 1
# Building blocks:
#     Node 0, Type 0, BuildingBlock: LIZSOE_clean_sbu_0, # of connection points: 8
#     Node 1, Type 0, BuildingBlock: LIZSOE_clean_sbu_0, # of connection points: 8
#     Node 2, Type 0, BuildingBlock: LIZSOE_clean_sbu_0, # of connection points: 8
#     Node 3, Type 0, BuildingBlock: LIZSOE_clean_sbu_0, # of connection points: 8
#     Edge 4, Type (0, 0), BuildingBlock: FUNLAD_clean_linker_0, # of connection points: 2
#     Edge 5, Type (0, 0), BuildingBlock: FUNLAD_clean_linker_0, # of connection points: 2
#     Edge 6, Type (0, 0), BuildingBlock: FUNLAD_clean_linker_0, # of connection points: 2
#     Edge 7, Type (0, 0), BuildingBlock: FUNLAD_clean_linker_0, # of connection points: 2
#     Edge 8, Type (0, 0), BuildingBlock: FUNLAD_clean_linker_0, # of connection points: 2
#     Edge 9, Type (0, 0), BuildingBlock: FUNLAD_clean_linker_0, # of connection points: 2
#     Edge 10, Type (0, 0), BuildingBlock: FUNLAD_clean_linker_0, # of connection points: 2
#     Edge 11, Type (0, 0), BuildingBlock: FUNLAD_clean_linker_0, # of connection points: 2
#     Edge 12, Type (0, 0), BuildingBlock: FUNLAD_clean_linker_0, # of connection points: 2
#     Edge 13, Type (0, 0), BuildingBlock: FUNLAD_clean_linker_0, # of connection points: 2
#     Edge 14, Type (0, 0), BuildingBlock: FUNLAD_clean_linker_0, # of connection points: 2
#     Edge 15, Type (0, 0), BuildingBlock: FUNLAD_clean_linker_0, # of connection points: 2
#     Edge 16, Type (0, 0), BuildingBlock: FUNLAD_clean_linker_0, # of connection points: 2
#     Edge 17, Type (0, 0), BuildingBlock: FUNLAD_clean_linker_0, # of connection points: 2
#     Edge 18, Type (0, 0), BuildingBlock: FUNLAD_clean_linker_0, # of connection points: 2
#     Edge 19, Type (0, 0), BuildingBlock: FUNLAD_clean_linker_0, # of connection points: 2
# Relax obj value: 0.214
# Max RMSD: 0.299
# Mean RMSD: 0.299
data_MOF--net-bcg--node1-LIZSOE_clean_sbu_0--edge1-FUNLAD_clean_linker_0
_symmetry_space_group_name_H-M    P1
_symmetry_Int_Tables_number       1
_symmetry_cell_setting            triclinic
loop_
_symmetry_equiv_pos_as_xyz
'x, y, z'
_cell_length_a     24.587383
_cell_length_b     26.858153
_cell_length_c     26.342238
_cell_angle_alpha  89.900884
_cell_angle_beta   89.655502
_cell_angle_gamma 90.145633
loop_
_atom_site_label
_atom_site_type_symbol
_atom_site_fract_x
_atom_site_fract_y
_atom_site_fract_z
_atom_type_partial_charge
Co0 Co 0.12094 0.28073 0.96185 0.0
N1 N 0.04531 0.27392 0.96865 0.0
C2 C 0.01304 0.30387 0.99678 0.0
N3 N 0.96097 0.24267 0.97089 0.0
C4 C 0.01151 0.23749 0.95191 0.0
C5 C 0.96144 0.28425 0.99901 0.0
Co6 Co 0.36577 0.25623 0.04353 0.0
N7 N 0.44093 0.26561 0.03694 0.0
N8 N 0.53048 0.25528 0.0271 0.0
C9 C 0.52264 0.29307 0.05954 0.0
C10 C 0.46769 0.29956 0.06527 0.0
C11 C 0.48064 0.23911 0.01376 0.0
Co12 Co 0.24375 0.26698 0.00364 0.0
C13 C 0.34284 0.21844 0.06638 0.0
H14 H 0.44854 0.32511 0.09149 0.0
O15 O 0.18983 0.28985 0.94982 0.0
O16 O 0.2851 0.23926 0.94383 0.0
O17 O 0.2024 0.20015 0.01069 0.0
O18 O 0.20293 0.29417 0.06392 0.0
O19 O 0.12158 0.28049 0.03359 0.0
O20 O 0.36435 0.26411 0.97149 0.0
O21 O 0.29769 0.24433 0.05653 0.0
O22 O 0.35603 0.3248 0.05012 0.0
O23 O 0.12854 0.21185 0.96229 0.0
O24 O 0.12184 0.34748 0.96725 0.0
O25 O 0.28505 0.33414 0.99733 0.0
O26 O 0.36641 0.18984 0.03319 0.0
C27 C 0.15919 0.18378 0.98827 0.0
C28 C 0.47132 0.19312 0.98267 0.0
H29 H 0.43301 0.19539 0.96126 0.0
H30 H 0.50521 0.18723 0.95539 0.0
H31 H 0.46931 0.1604 0.00839 0.0
C32 C 0.33448 0.25035 0.93548 0.0
C33 C 0.15203 0.2901 0.07051 0.0
H34 H 0.0263 0.33758 0.01505 0.0
H35 H 0.99351 0.18727 0.89041 0.0
H36 H 0.03452 0.16169 0.93966 0.0
H37 H 0.06374 0.20471 0.89425 0.0
C38 C 0.02716 0.19574 0.91689 0.0
C39 C 0.14713 0.31764 0.93637 0.0
C40 C 0.32584 0.352 0.02256 0.0
H41 H 0.92702 0.29901 0.01987 0.0
H42 H 0.55435 0.31204 0.08037 0.0
Co43 Co 0.62449 0.76019 0.96965 0.0
N44 N 0.55317 0.73912 0.98297 0.0
C45 C 0.52937 0.74169 0.02933 0.0
N46 N 0.47121 0.70226 0.98102 0.0
C47 C 0.51638 0.71429 0.95418 0.0
C48 C 0.47941 0.71941 0.02817 0.0
Co49 Co 0.86517 0.76637 0.05195 0.0
N50 N 0.93815 0.78676 0.04926 0.0
N51 N 0.02792 0.79375 0.03759 0.0
C52 C 0.01191 0.83137 0.06749 0.0
C53 C 0.95682 0.82714 0.07444 0.0
C54 C 0.98293 0.76674 0.02737 0.0
Co55 Co 0.74701 0.76157 0.00454 0.0
C56 C 0.8478 0.72467 0.07184 0.0
H57 H 0.93236 0.85108 0.09829 0.0
O58 O 0.69101 0.77869 0.95094 0.0
O59 O 0.79665 0.73936 0.94772 0.0
O60 O 0.72086 0.68934 0.00758 0.0
O61 O 0.69428 0.7866 0.06107 0.0
O62 O 0.6199 0.81054 0.01811 0.0
O63 O 0.86737 0.77635 0.98004 0.0
O64 O 0.79971 0.74505 0.06079 0.0
O65 O 0.84304 0.83239 0.06035 0.0
O66 O 0.64056 0.71585 0.0231 0.0
O67 O 0.63917 0.713 0.92478 0.0
O68 O 0.7785 0.8334 1.00027 0.0
O69 O 0.87732 0.70127 0.0387 0.0
C70 C 0.67259 0.68012 0.02145 0.0
C71 C 0.98391 0.71694 1.00127 0.0
H72 H 0.94961 0.71337 0.9746 0.0
H73 H 0.02202 0.71053 0.97979 0.0
H74 H 0.98027 0.68716 0.03036 0.0
C75 C 0.84425 0.75693 0.94238 0.0
C76 C 0.64819 0.81014 0.05874 0.0
H77 H 0.54762 0.75733 0.06275 0.0
H78 H 0.54179 0.72885 0.87777 0.0
H79 H 0.48989 0.68167 0.88264 0.0
H80 H 0.55748 0.66734 0.90079 0.0
C81 C 0.52664 0.69735 0.90073 0.0
C82 C 0.66765 0.75257 0.91426 0.0
C83 C 0.81372 0.85594 0.02882 0.0
H84 H 0.45048 0.71721 0.05927 0.0
H85 H 0.03859 0.85854 0.08478 0.0
Co86 Co 0.38348 0.78245 0.53352 0.0
N87 N 0.45413 0.76762 0.51882 0.0
C88 C 0.4866 0.78213 0.48011 0.0
N89 N 0.5311 0.72381 0.52183 0.0
C90 C 0.48247 0.73265 0.54404 0.0
C91 C 0.5339 0.75499 0.48176 0.0
Co92 Co 0.11773 0.75884 0.48488 0.0
N93 N 0.04655 0.75923 0.50908 0.0
N94 N 0.96493 0.74269 0.54324 0.0
C95 C 0.97015 0.79227 0.53982 0.0
C96 C 0.01968 0.80228 0.51812 0.0
C97 C 0.01114 0.72319 0.52375 0.0
Co98 Co 0.24731 0.77409 0.50198 0.0
C99 C 0.15791 0.72101 0.43125 0.0
H100 H 0.03476 0.83908 0.50908 0.0
O101 O 0.31095 0.79609 0.54897 0.0
O102 O 0.20759 0.75766 0.56845 0.0
O103 O 0.27819 0.70232 0.49746 0.0
O104 O 0.28926 0.79241 0.43704 0.0
O105 O 0.37301 0.80384 0.4675 0.0
O106 O 0.13611 0.71859 0.54011 0.0
O107 O 0.18241 0.7572 0.45627 0.0
O108 O 0.1304 0.81868 0.52138 0.0
O109 O 0.36503 0.71914 0.51425 0.0
O110 O 0.312 0.79634 0.55024 0.0
O111 O 0.21491 0.84418 0.50442 0.0
O112 O 0.11253 0.70369 0.4498 0.0
C113 C 0.32842 0.68876 0.5017 0.0
C114 C 0.02026 0.66835 0.51679 0.0
H115 H 0.0637 0.65835 0.51903 0.0
H116 H -0.00276 0.64666 0.5457 0.0
H117 H 0.0054 0.65747 0.47869 0.0
C118 C 0.16551 0.73112 0.57669 0.0
C119 C 0.33925 0.80573 0.43142 0.0
H120 H 0.47626 0.80965 0.45186 0.0
H121 H 0.4794 0.7194 0.62429 0.0
H122 H 0.46931 0.66472 0.58608 0.0
H123 H 0.41583 0.71077 0.59379 0.0
C124 C 0.46019 0.70506 0.5893 0.0
C125 C 0.30527 0.80823 0.59613 0.0
C126 C 0.1651 0.85343 0.51667 0.0
H127 H 0.56794 0.75806 0.45566 0.0
H128 H 0.93943 0.81916 0.55059 0.0
Co129 Co 0.61713 0.25933 0.49176 0.0
N130 N 0.54844 0.27085 0.51617 0.0
C131 C 0.5246 0.31559 0.50965 0.0
N132 N 0.46478 0.26884 0.54936 0.0
C133 C 0.51031 0.24257 0.53954 0.0
C134 C 0.47321 0.31451 0.53008 0.0
Co135 Co 0.87533 0.2764 0.52334 0.0
N136 N 0.94678 0.26107 0.50485 0.0
N137 N 0.02978 0.22679 0.49991 0.0
C138 C 0.03046 0.26923 0.47292 0.0
C139 C 0.97966 0.29028 0.47621 0.0
C140 C 0.97893 0.22226 0.51867 0.0
Co141 Co 0.74617 0.26832 0.50517 0.0
C142 C 0.83381 0.26804 0.587 0.0
H143 H 0.9685 0.32608 0.46082 0.0
O144 O 0.68225 0.24522 0.46203 0.0
O145 O 0.77363 0.1966 0.5069 0.0
O146 O 0.70573 0.25451 0.57249 0.0
O147 O 0.71713 0.33974 0.50176 0.0
O148 O 0.63906 0.31442 0.53183 0.0
O149 O 0.85675 0.21854 0.48624 0.0
O150 O 0.80976 0.29107 0.54864 0.0
O151 O 0.86642 0.31483 0.46578 0.0
O152 O 0.63218 0.21526 0.54544 0.0
O153 O 0.59704 0.21151 0.4539 0.0
O154 O 0.78825 0.28212 0.43843 0.0
O155 O 0.87585 0.24077 0.5778 0.0
C156 C 0.66387 0.22692 0.5812 0.0
C157 C 0.96215 0.17981 0.55279 0.0
H158 H 0.92014 0.16813 0.5457 0.0
H159 H 0.9887 0.14692 0.54705 0.0
H160 H 0.96519 0.19163 0.59301 0.0
C161 C 0.8211 0.18507 0.49099 0.0
C162 C 0.66926 0.34981 0.51792 0.0
H163 H 0.54275 0.34639 0.48917 0.0
H164 H 0.54762 0.17023 0.52628 0.0
H165 H 0.47663 0.16812 0.54228 0.0
H166 H 0.52483 0.1822 0.5904 0.0
C167 C 0.51551 0.1877 0.54971 0.0
C168 C 0.64076 0.23024 0.43372 0.0
C169 C 0.83334 0.30571 0.43012 0.0
H170 H 0.443 0.34369 0.52778 0.0
H171 H 0.06618 0.28561 0.45533 0.0
C172 C 0.60882 0.23087 0.97554 0.0
C173 C 0.57995 0.22845 0.02126 0.0
C174 C 0.6571 0.20436 0.96995 0.0
C175 C 0.67673 0.17479 0.01017 0.0
C176 C 0.64687 0.17207 0.05563 0.0
C177 C 0.59862 0.19863 0.06107 0.0
C178 C 0.7324 0.15436 0.00917 0.0
C179 C 0.75954 0.14547 0.96568 0.0
C180 C 0.81825 0.15671 0.96212 0.0
C181 C 0.83647 0.18355 0.91949 0.0
C182 C 0.88522 0.21001 0.92138 0.0
C183 C 0.91632 0.20921 0.9656 0.0
H184 H 0.84097 0.1292 0.03675 0.0
C185 C 0.90157 0.17798 0.00598 0.0
C186 C 0.85297 0.15123 0.00408 0.0
H187 H 0.92638 0.17632 0.03977 0.0
H188 H 0.5944 0.25402 0.94475 0.0
H189 H 0.68006 0.20923 0.93512 0.0
H190 H 0.66168 0.15044 0.08742 0.0
H191 H 0.57595 0.19644 0.09641 0.0
H192 H 0.75402 0.15585 0.04496 0.0
H193 H 0.73709 0.14323 0.93034 0.0
H194 H 0.81069 0.18795 0.88657 0.0
H195 H 0.89706 0.23355 0.88975 0.0
C196 C 0.10224 0.77608 0.97854 0.0
C197 C 0.08266 0.77917 0.02838 0.0
C198 C 0.15199 0.75333 0.96873 0.0
C199 C 0.18255 0.7335 0.00897 0.0
C200 C 0.16421 0.73979 0.0591 0.0
C201 C 0.11437 0.76235 0.06875 0.0
C202 C 0.23491 0.70825 1.00064 0.0
C203 C 0.2505 0.68801 0.95625 0.0
C204 C 0.30803 0.67545 0.94947 0.0
C205 C 0.33866 0.70454 0.91568 0.0
C206 C 0.39439 0.70978 0.92294 0.0
C207 C 0.41992 0.68469 0.96301 0.0
H208 H 0.31106 0.62299 0.01193 0.0
C209 C 0.39026 0.65033 0.99226 0.0
C210 C 0.33438 0.64565 0.98554 0.0
H211 H 0.40945 0.63092 0.02342 0.0
H212 H 0.07783 0.78948 0.94727 0.0
H213 H 0.16599 0.75137 0.9298 0.0
H214 H 0.18773 0.72591 0.09076 0.0
H215 H 0.0993 0.7647 0.1074 0.0
H216 H 0.26307 0.70809 0.03239 0.0
H217 H 0.2244 0.68843 0.92321 0.0
H218 H 0.31873 0.7281 0.88803 0.0
H219 H 0.41628 0.7374 0.90082 0.0
C220 C 0.59023 0.68915 0.58801 0.0
C221 C 0.57296 0.69012 0.53738 0.0
C222 C 0.63762 0.66415 0.60114 0.0
C223 C 0.66963 0.64158 0.56332 0.0
C224 C 0.64923 0.63783 0.51383 0.0
C225 C 0.60125 0.66221 0.50088 0.0
C226 C 0.7282 0.63226 0.571 0.0
C227 C 0.75816 0.66464 0.59812 0.0
C228 C 0.81574 0.67625 0.58656 0.0
C229 C 0.84507 0.7052 0.62139 0.0
C230 C 0.89522 0.72573 0.60774 0.0
C231 C 0.91679 0.71726 0.55924 0.0
H232 H 0.81633 0.64711 0.50926 0.0
C233 C 0.88859 0.6874 0.52484 0.0
C234 C 0.83838 0.66709 0.5382 0.0
H235 H 0.90421 0.68201 0.48673 0.0
H236 H 0.56998 0.71109 0.61674 0.0
H237 H 0.65145 0.66624 0.64003 0.0
H238 H 0.67294 0.6202 0.4841 0.0
H239 H 0.58801 0.66196 0.46174 0.0
H240 H 0.74802 0.60654 0.54514 0.0
H241 H 0.73822 0.69007 0.62424 0.0
H242 H 0.82806 0.71374 0.65841 0.0
H243 H 0.91662 0.74929 0.63438 0.0
C244 C 0.08844 0.19716 0.56834 0.0
C245 C 0.07675 0.20014 0.51636 0.0
C246 C 0.13689 0.17615 0.5846 0.0
C247 C 0.175 0.15914 0.54884 0.0
C248 C 0.1614 0.15853 0.49711 0.0
C249 C 0.1126 0.17942 0.48088 0.0
C250 C 0.23244 0.15242 0.56248 0.0
C251 C 0.25683 0.18616 0.59248 0.0
C252 C 0.3128 0.20338 0.5825 0.0
C253 C 0.34221 0.22689 0.62127 0.0
C254 C 0.39251 0.24894 0.61056 0.0
C255 C 0.41287 0.24833 0.5609 0.0
H256 H 0.31109 0.1882 0.50117 0.0
C257 C 0.38338 0.22584 0.52207 0.0
C258 C 0.33374 0.2035 0.53263 0.0
H259 H 0.39909 0.22575 0.48355 0.0
H260 H 0.06137 0.21352 0.5962 0.0
H261 H 0.14604 0.1763 0.62476 0.0
H262 H 0.19037 0.14566 0.46891 0.0
H263 H 0.10369 0.18123 0.44071 0.0
H264 H 0.25706 0.12946 0.5374 0.0
H265 H 0.23294 0.209 0.61825 0.0
H266 H 0.32601 0.22858 0.65957 0.0
H267 H 0.41543 0.26652 0.64063 0.0
C268 C 0.60481 0.62257 0.05965 0.0
C269 C 0.64676 0.63001 0.02376 0.0
C270 C 0.56573 0.58508 0.05335 0.0
C271 C 0.56703 0.55383 0.01054 0.0
C272 C 0.61132 0.55884 0.97652 0.0
C273 C 0.65057 0.59671 0.98281 0.0
C274 C 0.52336 0.51567 1.00067 0.0
C275 C 0.47177 0.51879 0.0193 0.0
C276 C 0.42824 0.47981 0.01301 0.0
C277 C 0.38423 0.47882 0.04759 0.0
C278 C 0.34603 0.43977 0.04723 0.0
C279 C 0.34976 0.4015 0.01119 0.0
H280 H 0.46208 0.44267 0.94677 0.0
C281 C 0.39132 0.40434 0.97431 0.0
C282 C 0.43001 0.44296 0.97503 0.0
H283 H 0.39659 0.37437 0.94729 0.0
H284 H 0.60016 0.64808 0.09122 0.0
H285 H 0.53398 0.5816 0.08173 0.0
H286 H 0.61408 0.53497 0.9435 0.0
H287 H 0.68123 0.60227 0.95364 0.0
H288 H 0.5345 0.48431 0.97695 0.0
H289 H 0.46092 0.55069 0.0424 0.0
H290 H 0.38119 0.50677 0.07707 0.0
H291 H 0.31583 0.4377 0.07728 0.0
C292 C 0.60393 0.4122 0.5539 0.0
C293 C 0.64303 0.40027 0.51637 0.0
C294 C 0.56573 0.45048 0.54665 0.0
C295 C 0.56507 0.47845 0.50136 0.0
C296 C 0.60672 0.46893 0.46538 0.0
C297 C 0.64492 0.43025 0.47256 0.0
C298 C 0.52226 0.51765 0.49043 0.0
C299 C 0.47226 0.52004 0.51324 0.0
C300 C 0.4289 0.5591 0.5035 0.0
C301 C 0.38438 0.56323 0.53748 0.0
C302 C 0.34574 0.60186 0.533 0.0
C303 C 0.34965 0.6372 0.49372 0.0
H304 H 0.46312 0.59101 0.43448 0.0
C305 C 0.39195 0.631 0.45775 0.0
C306 C 0.43079 0.59274 0.46238 0.0
H307 H 0.39768 0.65852 0.42804 0.0
H308 H 0.60077 0.38973 0.58801 0.0
H309 H 0.53621 0.4572 0.57642 0.0
H310 H 0.60826 0.49006 0.43034 0.0
H311 H 0.67338 0.42167 0.4423 0.0
H312 H 0.53256 0.54485 0.46146 0.0
H313 H 0.46214 0.49215 0.54162 0.0
H314 H 0.38103 0.53803 0.5695 0.0
H315 H 0.31557 0.60647 0.56275 0.0
C316 C 0.09627 0.1306 0.03892 0.0
C317 C 0.13501 0.13418 0.99949 0.0
C318 C 0.05651 0.09277 0.03916 0.0
C319 C 0.05432 0.05737 0.99972 0.0
C320 C 0.09552 0.05904 0.9623 0.0
C321 C 0.13472 0.09733 0.9617 0.0
C322 C 0.00995 0.01864 0.99575 0.0
C323 C 0.95985 0.02252 0.01748 0.0
C324 C 0.91572 0.98355 0.01417 0.0
C325 C 0.87567 0.98142 0.05258 0.0
C326 C 0.83702 0.94276 0.05409 0.0
C327 C 0.83592 0.90599 0.01621 0.0
H328 H 0.9416 0.9491 0.94349 0.0
C329 C 0.87321 0.91021 0.97561 0.0
C330 C 0.9127 0.94832 0.9746 0.0
H331 H 0.87487 0.88151 0.94678 0.0
H332 H 0.09408 0.15943 0.0676 0.0
H333 H 0.02683 0.09237 0.06962 0.0
H334 H 0.09558 0.03223 0.93162 0.0
H335 H 0.16251 0.10007 0.92974 0.0
H336 H 0.01896 0.98613 0.97281 0.0
H337 H 0.95077 0.05503 0.04038 0.0
H338 H 0.87626 0.0081 0.08337 0.0
H339 H 0.81039 0.93962 0.08686 0.0
C340 C 0.83844 0.09958 0.52744 0.0
C341 C 0.84234 0.13302 0.48643 0.0
C342 C 0.87699 0.06106 0.53334 0.0
C343 C 0.92052 0.05485 0.49856 0.0
C344 C 0.92086 0.08536 0.45498 0.0
C345 C 0.88251 0.12366 0.44915 0.0
C346 C 0.96504 0.01754 0.51008 0.0
C347 C 0.01412 0.0149 0.48579 0.0
C348 C 0.05877 0.97813 0.49795 0.0
C349 C 0.09822 0.96677 0.46058 0.0
C350 C 0.13829 0.93021 0.46896 0.0
C351 C 0.14054 0.90421 0.51526 0.0
H352 H 0.03536 0.96282 0.57605 0.0
C353 C 0.10343 0.91788 0.55381 0.0
C354 C 0.06339 0.95438 0.54548 0.0
H355 H 0.10303 0.89776 0.5895 0.0
H356 H 0.80918 0.10615 0.55757 0.0
H357 H 0.87463 0.03791 0.56699 0.0
H358 H 0.95179 0.08143 0.42598 0.0
H359 H 0.88719 0.14889 0.41726 0.0
H360 H 0.957 0.99177 0.541 0.0
H361 H 0.02235 0.04 0.45442 0.0
H362 H 0.09638 0.98444 0.42363 0.0
H363 H 0.16452 0.91942 0.43769 0.0
C364 C 0.61451 0.27322 0.35524 0.0
C365 C 0.63955 0.23144 0.37747 0.0
C366 C 0.58194 0.26843 0.31168 0.0
C367 C 0.57428 0.22169 0.28859 0.0
C368 C 0.60459 0.18122 0.30727 0.0
C369 C 0.63616 0.18585 0.35143 0.0
C370 C 0.53431 0.21314 0.24624 0.0
C371 C 0.48713 0.23897 0.24029 0.0
C372 C 0.4448 0.22897 0.19998 0.0
C373 C 0.40242 0.26357 0.19217 0.0
C374 C 0.36456 0.25761 0.15248 0.0
C375 C 0.36801 0.21676 0.11927 0.0
H376 H 0.47537 0.15732 0.17426 0.0
C377 C 0.40766 0.1802 0.12983 0.0
C378 C 0.44532 0.18614 0.16922 0.0
H379 H 0.41195 0.14797 0.1055 0.0
H380 H 0.6148 0.30861 0.37496 0.0
H381 H 0.56095 0.30097 0.29758 0.0
H382 H 0.60049 0.14482 0.29003 0.0
H383 H 0.65314 0.15251 0.36821 0.0
H384 H 0.54324 0.18229 0.22112 0.0
H385 H 0.47858 0.26917 0.26647 0.0
H386 H 0.39991 0.29663 0.21553 0.0
H387 H 0.33532 0.28688 0.14555 0.0
C388 C 0.62372 0.79801 0.15157 0.0
C389 C 0.61745 0.82437 0.10568 0.0
C390 C 0.58306 0.7999 0.18958 0.0
C391 C 0.53511 0.82763 0.18203 0.0
C392 C 0.53082 0.85642 0.13783 0.0
C393 C 0.57174 0.85558 0.10072 0.0
C394 C 0.48705 0.82425 0.21702 0.0
C395 C 0.49119 0.82538 0.26791 0.0
C396 C 0.44307 0.82634 0.30286 0.0
C397 C 0.44308 0.86023 0.34319 0.0
C398 C 0.40355 0.85749 0.38144 0.0
C399 C 0.3638 0.81965 0.38157 0.0
H400 H 0.39962 0.76431 0.26948 0.0
C401 C 0.36125 0.78761 0.3394 0.0
C402 C 0.40037 0.79123 0.30003 0.0
H403 H 0.33215 0.75727 0.33894 0.0
H404 H 0.65774 0.77296 0.15649 0.0
H405 H 0.58747 0.77707 0.22321 0.0
H406 H 0.49469 0.87842 0.13111 0.0
H407 H 0.56533 0.87643 0.06603 0.0
H408 H 0.44676 0.82472 0.20024 0.0
H409 H 0.53118 0.83009 0.28464 0.0
H410 H 0.47523 0.8877 0.34632 0.0
H411 H 0.4071 0.8824 0.41359 0.0
C412 C 0.35126 0.79557 0.68078 0.0
C413 C 0.3538 0.81292 0.63033 0.0
C414 C 0.39823 0.79446 0.71145 0.0
C415 C 0.44902 0.81054 0.69222 0.0
C416 C 0.45087 0.82983 0.64261 0.0
C417 C 0.40386 0.83216 0.61264 0.0
C418 C 0.50123 0.80417 0.72108 0.0
C419 C 0.50641 0.81277 0.77148 0.0
C420 C 0.55808 0.80527 0.80113 0.0
C421 C 0.56613 0.83239 0.84621 0.0
C422 C 0.60828 0.82023 0.87995 0.0
C423 C 0.64286 0.77957 0.87034 0.0
H424 H 0.59108 0.74546 0.75517 0.0
C425 C 0.63749 0.75486 0.82339 0.0
C426 C 0.59604 0.76777 0.78901 0.0
H427 H 0.66222 0.72246 0.81533 0.0
H428 H 0.31337 0.78098 0.69591 0.0
H429 H 0.39522 0.77899 0.74935 0.0
H430 H 0.48906 0.8429 0.62671 0.0
H431 H 0.40706 0.84832 0.57507 0.0
H432 H 0.53722 0.79429 0.69923 0.0
H433 H 0.47131 0.82694 0.79211 0.0
H434 H 0.53777 0.86141 0.85685 0.0
H435 H 0.60993 0.83933 0.91608 0.0
C436 C 0.38101 0.20266 0.86586 0.0
C437 C 0.3601 0.24782 0.88441 0.0
C438 C 0.41926 0.20222 0.8258 0.0
C439 C 0.43746 0.24716 0.80341 0.0
C440 C 0.41376 0.29187 0.82025 0.0
C441 C 0.37615 0.29225 0.86048 0.0
C442 C 0.48112 0.24984 0.76315 0.0
C443 C 0.51777 0.21349 0.75302 0.0
C444 C 0.56169 0.21776 0.71324 0.0
C445 C 0.58154 0.17423 0.69005 0.0
C446 C 0.61927 0.17679 0.64987 0.0
C447 C 0.63947 0.22289 0.63277 0.0
H448 H 0.5715 0.29817 0.71568 0.0
C449 C 0.62271 0.26626 0.65823 0.0
C450 C 0.5842 0.26381 0.69788 0.0
H451 H 0.63649 0.30245 0.64514 0.0
H452 H 0.37029 0.16791 0.88436 0.0
H453 H 0.43508 0.16672 0.81341 0.0
H454 H 0.42619 0.3271 0.80371 0.0
H455 H 0.36145 0.32766 0.8745 0.0
H456 H 0.48382 0.28437 0.74178 0.0
H457 H 0.51508 0.17847 0.77345 0.0
H458 H 0.56564 0.13816 0.70122 0.0
H459 H 0.63026 0.14287 0.63016 0.0
C460 C 0.12365 0.76836 0.35705 0.0
C461 C 0.15033 0.72546 0.37536 0.0
C462 C 0.08835 0.7658 0.31513 0.0
C463 C 0.0797 0.72043 0.28961 0.0
C464 C 0.11135 0.67922 0.30421 0.0
C465 C 0.14558 0.68148 0.34677 0.0
C466 C 0.0377 0.71391 0.24862 0.0
C467 C 0.99018 0.73972 0.24565 0.0
C468 C 0.94654 0.73089 0.20631 0.0
C469 C 0.90596 0.76717 0.19817 0.0
C470 C 0.86777 0.76229 0.15859 0.0
C471 C 0.86936 0.72105 0.12575 0.0
H472 H 0.97231 0.65705 0.1827 0.0
C473 C 0.90636 0.68258 0.13735 0.0
C474 C 0.94418 0.68732 0.17676 0.0
H475 H 0.90878 0.64987 0.11344 0.0
H476 H 0.12502 0.80262 0.3787 0.0
H477 H 0.0663 0.7989 0.30416 0.0
H478 H 0.10653 0.64388 0.28495 0.0
H479 H 0.16396 0.64739 0.36038 0.0
H480 H 0.04558 0.68445 0.22151 0.0
H481 H 0.98265 0.769 0.27316 0.0
H482 H 0.90544 0.80074 0.22089 0.0
H483 H 0.84029 0.7928 0.15116 0.0
C484 C 0.90051 0.34568 0.37142 0.0
C485 C 0.85661 0.31231 0.37809 0.0
C486 C 0.93464 0.3428 0.32893 0.0
C487 C 0.92494 0.30752 0.29088 0.0
C488 C 0.87823 0.2772 0.2949 0.0
C489 C 0.84472 0.27905 0.33846 0.0
C490 C 0.96248 0.30331 0.24635 0.0
C491 C 0.01735 0.3044 0.25083 0.0
C492 C 0.05493 0.30347 0.20609 0.0
C493 C 0.10371 0.27597 0.20733 0.0
C494 C 0.13809 0.27368 0.16434 0.0
C495 C 0.12478 0.29995 0.11997 0.0
H496 H 0.00755 0.35485 0.16108 0.0
C497 C 0.07828 0.33031 0.1205 0.0
C498 C 0.04346 0.33163 0.16259 0.0
H499 H 0.06829 0.35258 0.08773 0.0
H500 H 0.91046 0.37242 0.4007 0.0
H501 H 0.96909 0.36791 0.32614 0.0
H502 H 0.86921 0.25034 0.26549 0.0
H503 H 0.81169 0.25253 0.34238 0.0
H504 H 0.94452 0.29777 0.20919 0.0
H505 H 0.03532 0.3048 0.28843 0.0
H506 H 0.11408 0.25466 0.24084 0.0
H507 H 0.17344 0.24971 0.16501 0.0
C508 C 0.08974 0.35731 0.86851 0.0
C509 C 0.12524 0.3184 0.88255 0.0
C510 C 0.05205 0.3516 0.82921 0.0
C511 C 0.04886 0.30687 0.80169 0.0
C512 C 0.08823 0.26997 0.81204 0.0
C513 C 0.12626 0.2758 0.85166 0.0
C514 C 0.00281 0.2958 0.76552 0.0
C515 C 0.96714 0.33002 0.74715 0.0
C516 C 0.92062 0.31775 0.71234 0.0
C517 C 0.90429 0.35252 0.67533 0.0
C518 C 0.86578 0.33976 0.63809 0.0
C519 C 0.84212 0.29199 0.63726 0.0
H520 H 0.90192 0.24524 0.74421 0.0
C521 C 0.85292 0.25998 0.67861 0.0
C522 C 0.89223 0.27228 0.71513 0.0
H523 H 0.83622 0.22259 0.67892 0.0
H524 H 0.08783 0.39115 0.89076 0.0
H525 H 0.02338 0.3814 0.82313 0.0
H526 H 0.0876 0.23516 0.79135 0.0
H527 H 0.1526 0.24493 0.86113 0.0
H528 H -0.00184 0.25733 0.75359 0.0
H529 H 0.9736 0.36915 0.75515 0.0
H530 H 0.92439 0.38838 0.67279 0.0
H531 H 0.85978 0.36504 0.60653 0.0
C532 C 0.09624 0.69341 0.63589 0.0
C533 C 0.14087 0.72582 0.62848 0.0
C534 C 0.06333 0.69642 0.6794 0.0
C535 C 0.07459 0.73155 0.71744 0.0
C536 C 0.12181 0.7611 0.71206 0.0
C537 C 0.15435 0.75858 0.66801 0.0
C538 C 0.03855 0.73847 0.76311 0.0
C539 C 0.98466 0.72702 0.76483 0.0
C540 C 0.94789 0.73661 0.8097 0.0
C541 C 0.89644 0.71319 0.81251 0.0
C542 C 0.86141 0.72066 0.8544 0.0
C543 C 0.87684 0.75215 0.89441 0.0
H544 H -1e-05 0.78999 0.84823 0.0
C545 C 0.92724 0.77713 0.89038 0.0
C546 C 0.96213 0.7695 0.84899 0.0
H547 H 0.94057 0.80227 0.91995 0.0
H548 H 0.08537 0.66668 0.60703 0.0
H549 H 0.02895 0.67139 0.68272 0.0
H550 H 0.13231 0.78788 0.74112 0.0
H551 H 0.18823 0.78415 0.66384 0.0
H552 H 0.05752 0.75543 0.79585 0.0
H553 H 0.96598 0.71016 0.7318 0.0
H554 H 0.88363 0.68826 0.78257 0.0
H555 H 0.82298 0.7009 0.85599 0.0
loop_
_geom_bond_atom_site_label_1
_geom_bond_atom_site_label_2
_geom_bond_distance
_geom_bond_site_symmetry_2
_ccdc_geom_bond_type
Co0 N1 2.034 . S
Co0 O15 2.262 1_554 S
Co0 O19 1.958 . S
Co0 O23 1.950 1_554 S
Co0 O24 2.057 1_554 S
N1 Co0 2.034 . S
N1 C2 1.366 1_455 S
N1 C4 1.332 1_454 S
C2 N1 1.366 1_655 S
C2 C5 1.377 . S
C2 H34 0.927 1_655 S
N3 C4 1.346 1_554 S
N3 C5 1.337 . S
C4 N1 1.332 1_656 S
C4 N3 1.346 1_556 S
C4 C38 1.361 1_655 S
C5 C2 1.377 . S
C5 N3 1.337 . S
C5 H41 0.930 . S
Co6 N7 2.034 1_554 S
Co6 O20 1.950 1_554 S
Co6 O21 2.262 . S
Co6 O22 1.958 . S
Co6 O26 2.057 . S
N7 Co6 2.034 1_556 S
N7 C10 1.366 . S
N7 C11 1.332 . S
N8 C9 1.337 . S
N8 C11 1.346 . S
C9 N8 1.337 . S
C9 C10 1.377 . S
C9 H42 0.930 . S
C10 N7 1.366 . S
C10 C9 1.377 . S
C10 H14 0.931 . S
C11 N7 1.332 . S
C11 N8 1.346 . S
C11 C28 1.361 . S
Co12 O15 2.097 1_554 S
Co12 O16 2.065 1_554 S
Co12 O17 2.065 . S
Co12 O18 2.042 . S
Co12 O21 2.097 . S
Co12 O25 2.042 1_554 S
C13 O21 1.253 . S
C13 O26 1.263 . S
H14 C10 0.931 . S
O15 Co0 2.262 1_556 S
O15 Co12 2.097 1_556 S
O15 C39 1.253 . S
O16 Co12 2.065 1_556 S
O16 C32 1.221 . S
O17 Co12 2.065 . S
O17 C27 1.221 . S
O18 Co12 2.042 . S
O18 C33 1.237 . S
O19 Co0 1.958 . S
O19 C33 1.278 . S
O20 Co6 1.950 1_556 S
O20 C32 1.277 . S
O21 Co6 2.262 . S
O21 Co12 2.097 . S
O21 C13 1.253 . S
O22 Co6 1.958 . S
O22 C40 1.278 . S
O23 Co0 1.950 1_556 S
O23 C27 1.277 1_556 S
O24 Co0 2.057 1_556 S
O24 C39 1.263 . S
O25 Co12 2.042 1_556 S
O25 C40 1.237 1_556 S
O26 Co6 2.057 . S
O26 C13 1.263 . S
C27 O17 1.221 . S
C27 O23 1.277 1_554 S
C28 C11 1.361 . S
C28 H29 0.960 . S
C28 H30 0.961 . S
C28 H31 0.961 1_556 S
H29 C28 0.960 . S
H30 C28 0.961 . S
H31 C28 0.961 1_554 S
C32 O16 1.221 . S
C32 O20 1.277 . S
C33 O18 1.237 . S
C33 O19 1.278 . S
H34 C2 0.927 1_455 S
H35 C38 0.961 1_655 S
H36 C38 0.961 1_655 S
H37 C38 0.960 . S
C38 C4 1.361 1_455 S
C38 H35 0.961 1_455 S
C38 H36 0.961 1_455 S
C38 H37 0.960 . S
C39 O15 1.253 . S
C39 O24 1.263 . S
C40 O22 1.278 . S
C40 O25 1.237 1_554 S
H41 C5 0.930 . S
H42 C9 0.930 . S
Co43 N44 2.034 . S
Co43 O58 2.262 1_554 S
Co43 O62 1.958 . S
Co43 O66 1.950 1_554 S
Co43 O67 2.057 1_554 S
N44 Co43 2.034 . S
N44 C45 1.366 . S
N44 C47 1.332 1_554 S
C45 N44 1.366 . S
C45 C48 1.377 . S
C45 H77 0.931 . S
N46 C47 1.346 1_554 S
N46 C48 1.337 . S
C47 N44 1.332 1_556 S
C47 N46 1.346 1_556 S
C47 C81 1.361 . S
C48 C45 1.377 . S
C48 N46 1.337 . S
C48 H84 0.930 . S
Co49 N50 2.034 1_554 S
Co49 O63 1.950 1_554 S
Co49 O64 2.262 . S
Co49 O65 1.958 . S
Co49 O69 2.057 . S
N50 Co49 2.034 1_556 S
N50 C53 1.366 . S
N50 C54 1.332 1_655 S
N51 C52 1.337 . S
N51 C54 1.346 . S
C52 N51 1.337 . S
C52 C53 1.377 1_455 S
C52 H85 0.930 . S
C53 N50 1.366 . S
C53 C52 1.377 1_655 S
C53 H57 0.931 . S
C54 N50 1.332 1_455 S
C54 N51 1.346 . S
C54 C71 1.361 . S
Co55 O58 2.097 1_554 S
Co55 O59 2.065 1_554 S
Co55 O60 2.065 . S
Co55 O61 2.042 . S
Co55 O64 2.097 . S
Co55 O68 2.042 1_554 S
C56 O64 1.253 . S
C56 O69 1.263 . S
H57 C53 0.931 . S
O58 Co43 2.262 1_556 S
O58 Co55 2.097 1_556 S
O58 C82 1.253 . S
O59 Co55 2.065 1_556 S
O59 C75 1.221 . S
O60 Co55 2.065 . S
O60 C70 1.221 . S
O61 Co55 2.042 . S
O61 C76 1.237 . S
O62 Co43 1.958 . S
O62 C76 1.278 . S
O63 Co49 1.950 1_556 S
O63 C75 1.277 . S
O64 Co49 2.262 . S
O64 Co55 2.097 . S
O64 C56 1.253 . S
O65 Co49 1.958 . S
O65 C83 1.278 . S
O66 Co43 1.950 1_556 S
O66 C70 1.277 1_556 S
O67 Co43 2.057 1_556 S
O67 C82 1.263 . S
O68 Co55 2.042 1_556 S
O68 C83 1.237 1_556 S
O69 Co49 2.057 . S
O69 C56 1.263 . S
C70 O60 1.221 . S
C70 O66 1.277 1_554 S
C71 C54 1.361 . S
C71 H72 0.960 1_455 S
C71 H73 0.961 . S
C71 H74 0.961 1_556 S
H72 C71 0.960 1_655 S
H73 C71 0.961 . S
H74 C71 0.961 1_554 S
C75 O59 1.221 . S
C75 O63 1.277 . S
C76 O61 1.237 . S
C76 O62 1.278 . S
H77 C45 0.931 . S
H78 C81 0.961 . S
H79 C81 0.961 . S
H80 C81 0.960 . S
C81 C47 1.361 . S
C81 H78 0.961 . S
C81 H79 0.961 . S
C81 H80 0.960 . S
C82 O58 1.253 . S
C82 O67 1.263 . S
C83 O65 1.278 . S
C83 O68 1.237 1_554 S
H84 C48 0.930 . S
H85 C52 0.930 . S
Co86 N87 2.034 . S
Co86 O101 2.262 . S
Co86 O105 1.958 . S
Co86 O109 1.950 . S
Co86 O110 2.057 . S
N87 Co86 2.034 . S
N87 C88 1.366 . S
N87 C90 1.332 . S
C88 N87 1.366 . S
C88 C91 1.377 . S
C88 H120 0.931 . S
N89 C90 1.346 . S
N89 C91 1.337 . S
C90 N87 1.332 . S
C90 N89 1.346 . S
C90 C124 1.361 . S
C91 C88 1.377 . S
C91 N89 1.337 . S
C91 H127 0.930 . S
Co92 N93 2.034 . S
Co92 O106 1.950 . S
Co92 O107 2.262 . S
Co92 O108 1.958 . S
Co92 O112 2.057 . S
N93 Co92 2.034 . S
N93 C96 1.366 . S
N93 C97 1.332 1_455 S
N94 C95 1.337 . S
N94 C97 1.346 . S
C95 N94 1.337 . S
C95 C96 1.377 1_655 S
C95 H128 0.930 . S
C96 N93 1.366 . S
C96 C95 1.377 1_455 S
C96 H100 0.931 . S
C97 N93 1.332 1_655 S
C97 N94 1.346 . S
C97 C114 1.361 . S
Co98 O101 2.097 . S
Co98 O102 2.065 . S
Co98 O103 2.065 . S
Co98 O104 2.042 . S
Co98 O107 2.097 . S
Co98 O111 2.042 . S
C99 O107 1.253 . S
C99 O112 1.263 . S
H100 C96 0.931 . S
O101 Co86 2.262 . S
O101 Co98 2.097 . S
O101 C125 1.253 . S
O102 Co98 2.065 . S
O102 C118 1.221 . S
O103 Co98 2.065 . S
O103 C113 1.221 . S
O104 Co98 2.042 . S
O104 C119 1.237 . S
O105 Co86 1.958 . S
O105 C119 1.278 . S
O106 Co92 1.950 . S
O106 C118 1.277 . S
O107 Co92 2.262 . S
O107 Co98 2.097 . S
O107 C99 1.253 . S
O108 Co92 1.958 . S
O108 C126 1.278 . S
O109 Co86 1.950 . S
O109 C113 1.277 . S
O110 Co86 2.057 . S
O110 C125 1.263 . S
O111 Co98 2.042 . S
O111 C126 1.237 . S
O112 Co92 2.057 . S
O112 C99 1.263 . S
C113 O103 1.221 . S
C113 O109 1.277 . S
C114 C97 1.361 . S
C114 H115 0.960 1_655 S
C114 H116 0.961 . S
C114 H117 0.961 . S
H115 C114 0.960 1_455 S
H116 C114 0.961 . S
H117 C114 0.961 . S
C118 O102 1.221 . S
C118 O106 1.277 . S
C119 O104 1.237 . S
C119 O105 1.278 . S
H120 C88 0.931 . S
H121 C124 0.961 . S
H122 C124 0.961 . S
H123 C124 0.960 . S
C124 C90 1.361 . S
C124 H121 0.961 . S
C124 H122 0.961 . S
C124 H123 0.960 . S
C125 O101 1.253 . S
C125 O110 1.263 . S
C126 O108 1.278 . S
C126 O111 1.237 . S
H127 C91 0.930 . S
H128 C95 0.930 . S
Co129 N130 2.034 . S
Co129 O144 2.262 . S
Co129 O148 1.958 . S
Co129 O152 1.950 . S
Co129 O153 2.057 . S
N130 Co129 2.034 . S
N130 C131 1.366 . S
N130 C133 1.332 . S
C131 N130 1.366 . S
C131 C134 1.377 . S
C131 H163 0.931 . S
N132 C133 1.346 . S
N132 C134 1.337 . S
C133 N130 1.332 . S
C133 N132 1.346 . S
C133 C167 1.361 . S
C134 C131 1.377 . S
C134 N132 1.337 . S
C134 H170 0.930 . S
Co135 N136 2.034 . S
Co135 O149 1.950 . S
Co135 O150 2.262 . S
Co135 O151 1.958 . S
Co135 O155 2.057 . S
N136 Co135 2.034 . S
N136 C139 1.366 1_655 S
N136 C140 1.332 1_655 S
N137 C138 1.337 . S
N137 C140 1.346 . S
C138 N137 1.337 . S
C138 C139 1.377 . S
C138 H171 0.930 . S
C139 N136 1.366 1_455 S
C139 C138 1.377 . S
C139 H143 0.927 1_455 S
C140 N136 1.332 1_455 S
C140 N137 1.346 . S
C140 C157 1.361 1_455 S
Co141 O144 2.097 . S
Co141 O145 2.065 . S
Co141 O146 2.065 . S
Co141 O147 2.042 . S
Co141 O150 2.097 . S
Co141 O154 2.042 . S
C142 O150 1.253 . S
C142 O155 1.263 . S
H143 C139 0.927 1_655 S
O144 Co129 2.262 . S
O144 Co141 2.097 . S
O144 C168 1.253 . S
O145 Co141 2.065 . S
O145 C161 1.221 . S
O146 Co141 2.065 . S
O146 C156 1.221 . S
O147 Co141 2.042 . S
O147 C162 1.237 . S
O148 Co129 1.958 . S
O148 C162 1.278 . S
O149 Co135 1.950 . S
O149 C161 1.277 . S
O150 Co135 2.262 . S
O150 Co141 2.097 . S
O150 C142 1.253 . S
O151 Co135 1.958 . S
O151 C169 1.278 . S
O152 Co129 1.950 . S
O152 C156 1.277 . S
O153 Co129 2.057 . S
O153 C168 1.263 . S
O154 Co141 2.042 . S
O154 C169 1.237 . S
O155 Co135 2.057 . S
O155 C142 1.263 . S
C156 O146 1.221 . S
C156 O152 1.277 . S
C157 C140 1.361 1_655 S
C157 H158 0.960 . S
C157 H159 0.961 1_655 S
C157 H160 0.961 1_655 S
H158 C157 0.960 . S
H159 C157 0.961 1_455 S
H160 C157 0.961 1_455 S
C161 O145 1.221 . S
C161 O149 1.277 . S
C162 O147 1.237 . S
C162 O148 1.278 . S
H163 C131 0.931 . S
H164 C167 0.961 . S
H165 C167 0.961 . S
H166 C167 0.960 . S
C167 C133 1.361 . S
C167 H164 0.961 . S
C167 H165 0.961 . S
C167 H166 0.960 . S
C168 O144 1.253 . S
C168 O153 1.263 . S
C169 O151 1.278 . S
C169 O154 1.237 . S
H170 C134 0.930 . S
H171 C138 0.930 . S
C172 C173 1.386 . S
C172 C174 1.383 . S
C172 H188 0.951 . S
C173 C172 1.386 . S
C173 C177 1.383 . S
C174 C172 1.383 . S
C174 C175 1.402 . S
C174 H189 0.951 . S
C175 C174 1.402 . S
C175 C176 1.375 . S
C175 C178 1.481 . S
C176 C175 1.375 . S
C176 C177 1.367 . S
C176 H190 0.950 1_554 S
C177 C173 1.383 . S
C177 C176 1.367 . S
C177 H191 0.950 1_554 S
C178 C175 1.481 . S
C178 C179 1.297 . S
C178 H192 0.950 . S
C179 C178 1.297 . S
C179 C180 1.479 . S
C179 H193 0.950 . S
C180 C179 1.479 . S
C180 C181 1.375 . S
C180 C186 1.404 . S
C181 C180 1.375 . S
C181 C182 1.369 . S
C181 H194 0.950 . S
C182 C181 1.369 . S
C182 C183 1.392 1_554 S
C182 H195 0.950 1_554 S
C183 C182 1.392 1_556 S
C183 C185 1.385 . S
H184 C186 0.949 . S
C185 C183 1.385 . S
C185 C186 1.383 1_556 S
C185 H187 0.952 . S
C186 C180 1.404 . S
C186 H184 0.949 . S
C186 C185 1.383 1_554 S
H187 C185 0.952 . S
H188 C172 0.951 . S
H189 C174 0.951 . S
H190 C176 0.950 1_556 S
H191 C177 0.950 1_556 S
H192 C178 0.950 . S
H193 C179 0.950 . S
H194 C181 0.950 . S
H195 C182 0.950 1_556 S
C196 C197 1.386 1_556 S
C196 C198 1.383 . S
C196 H212 0.951 . S
C197 C196 1.386 1_554 S
C197 C201 1.383 . S
C198 C196 1.383 . S
C198 C199 1.402 1_556 S
C198 H213 0.951 . S
C199 C198 1.402 1_554 S
C199 C200 1.375 . S
C199 C202 1.481 . S
C200 C199 1.375 . S
C200 C201 1.367 . S
C200 H214 0.951 . S
C201 C197 1.383 . S
C201 C200 1.367 . S
C201 H215 0.950 . S
C202 C199 1.481 . S
C202 C203 1.297 1_554 S
C202 H216 0.950 . S
C203 C202 1.297 1_556 S
C203 C204 1.479 . S
C203 H217 0.950 . S
C204 C203 1.479 . S
C204 C205 1.375 . S
C204 C210 1.404 1_556 S
C205 C204 1.375 . S
C205 C206 1.369 . S
C205 H218 0.950 . S
C206 C205 1.369 . S
C206 C207 1.392 . S
C206 H219 0.951 . S
C207 C206 1.392 . S
C207 C209 1.384 1_556 S
H208 C210 0.949 . S
C209 C207 1.384 1_554 S
C209 C210 1.385 . S
C209 H211 0.950 . S
C210 C204 1.404 1_554 S
C210 H208 0.949 . S
C210 C209 1.385 . S
H211 C209 0.950 . S
H212 C196 0.951 . S
H213 C198 0.951 . S
H214 C200 0.951 . S
H215 C201 0.950 . S
H216 C202 0.950 . S
H217 C203 0.950 . S
H218 C205 0.950 . S
H219 C206 0.951 . S
C220 C221 1.386 . S
C220 C222 1.383 . S
C220 H236 0.951 . S
C221 C220 1.386 . S
C221 C225 1.383 . S
C222 C220 1.383 . S
C222 C223 1.402 . S
C222 H237 0.951 . S
C223 C222 1.402 . S
C223 C224 1.375 . S
C223 C226 1.481 . S
C224 C223 1.375 . S
C224 C225 1.367 . S
C224 H238 0.951 . S
C225 C221 1.383 . S
C225 C224 1.367 . S
C225 H239 0.950 . S
C226 C223 1.481 . S
C226 C227 1.297 . S
C226 H240 0.950 . S
C227 C226 1.297 . S
C227 C228 1.479 . S
C227 H241 0.950 . S
C228 C227 1.479 . S
C228 C229 1.375 . S
C228 C234 1.404 . S
C229 C228 1.375 . S
C229 C230 1.369 . S
C229 H242 0.950 . S
C230 C229 1.369 . S
C230 C231 1.392 . S
C230 H243 0.951 . S
C231 C230 1.392 . S
C231 C233 1.384 . S
H232 C234 0.949 . S
C233 C231 1.384 . S
C233 C234 1.385 . S
C233 H235 0.950 . S
C234 C228 1.404 . S
C234 H232 0.949 . S
C234 C233 1.385 . S
H235 C233 0.950 . S
H236 C220 0.951 . S
H237 C222 0.951 . S
H238 C224 0.951 . S
H239 C225 0.950 . S
H240 C226 0.950 . S
H241 C227 0.950 . S
H242 C229 0.950 . S
H243 C230 0.951 . S
C244 C245 1.386 . S
C244 C246 1.383 . S
C244 H260 0.951 . S
C245 C244 1.386 . S
C245 C249 1.383 . S
C246 C244 1.383 . S
C246 C247 1.402 . S
C246 H261 0.951 . S
C247 C246 1.402 . S
C247 C248 1.375 . S
C247 C250 1.481 . S
C248 C247 1.375 . S
C248 C249 1.367 . S
C248 H262 0.951 . S
C249 C245 1.383 . S
C249 C248 1.367 . S
C249 H263 0.950 . S
C250 C247 1.481 . S
C250 C251 1.297 . S
C250 H264 0.950 . S
C251 C250 1.297 . S
C251 C252 1.479 . S
C251 H265 0.950 . S
C252 C251 1.479 . S
C252 C253 1.375 . S
C252 C258 1.404 . S
C253 C252 1.375 . S
C253 C254 1.369 . S
C253 H266 0.950 . S
C254 C253 1.369 . S
C254 C255 1.392 . S
C254 H267 0.951 . S
C255 C254 1.392 . S
C255 C257 1.384 . S
H256 C258 0.949 . S
C257 C255 1.384 . S
C257 C258 1.385 . S
C257 H259 0.950 . S
C258 C252 1.404 . S
C258 H256 0.949 . S
C258 C257 1.385 . S
H259 C257 0.950 . S
H260 C244 0.951 . S
H261 C246 0.951 . S
H262 C248 0.951 . S
H263 C249 0.950 . S
H264 C250 0.950 . S
H265 C251 0.950 . S
H266 C253 0.950 . S
H267 C254 0.951 . S
C268 C269 1.386 1_554 S
C268 C270 1.383 . S
C268 H284 0.951 . S
C269 C268 1.386 1_556 S
C269 C273 1.383 . S
C270 C268 1.383 . S
C270 C271 1.402 1_554 S
C270 H285 0.951 . S
C271 C270 1.402 1_556 S
C271 C272 1.375 . S
C271 C274 1.481 . S
C272 C271 1.375 . S
C272 C273 1.367 . S
C272 H286 0.951 . S
C273 C269 1.383 . S
C273 C272 1.367 . S
C273 H287 0.950 . S
C274 C271 1.481 . S
C274 C275 1.297 1_556 S
C274 H288 0.950 . S
C275 C274 1.297 1_554 S
C275 C276 1.479 . S
C275 H289 0.950 . S
C276 C275 1.479 . S
C276 C277 1.375 . S
C276 C282 1.404 1_554 S
C277 C276 1.375 . S
C277 C278 1.369 . S
C277 H290 0.950 . S
C278 C277 1.369 . S
C278 C279 1.392 . S
C278 H291 0.951 . S
C279 C278 1.392 . S
C279 C281 1.384 1_554 S
H280 C282 0.949 . S
C281 C279 1.384 1_556 S
C281 C282 1.385 . S
C281 H283 0.950 . S
C282 C276 1.404 1_556 S
C282 H280 0.949 . S
C282 C281 1.385 . S
H283 C281 0.950 . S
H284 C268 0.951 . S
H285 C270 0.951 . S
H286 C272 0.951 . S
H287 C273 0.950 . S
H288 C274 0.950 . S
H289 C275 0.950 . S
H290 C277 0.950 . S
H291 C278 0.951 . S
C292 C293 1.386 . S
C292 C294 1.383 . S
C292 H308 0.951 . S
C293 C292 1.386 . S
C293 C297 1.383 . S
C294 C292 1.383 . S
C294 C295 1.402 . S
C294 H309 0.951 . S
C295 C294 1.402 . S
C295 C296 1.375 . S
C295 C298 1.481 . S
C296 C295 1.375 . S
C296 C297 1.367 . S
C296 H310 0.951 . S
C297 C293 1.383 . S
C297 C296 1.367 . S
C297 H311 0.950 . S
C298 C295 1.481 . S
C298 C299 1.297 . S
C298 H312 0.950 . S
C299 C298 1.297 . S
C299 C300 1.479 . S
C299 H313 0.950 . S
C300 C299 1.479 . S
C300 C301 1.375 . S
C300 C306 1.404 . S
C301 C300 1.375 . S
C301 C302 1.369 . S
C301 H314 0.950 . S
C302 C301 1.369 . S
C302 C303 1.392 . S
C302 H315 0.951 . S
C303 C302 1.392 . S
C303 C305 1.384 . S
H304 C306 0.949 . S
C305 C303 1.384 . S
C305 C306 1.385 . S
C305 H307 0.950 . S
C306 C300 1.404 . S
C306 H304 0.949 . S
C306 C305 1.385 . S
H307 C305 0.950 . S
H308 C292 0.951 . S
H309 C294 0.951 . S
H310 C296 0.951 . S
H311 C297 0.950 . S
H312 C298 0.950 . S
H313 C299 0.950 . S
H314 C301 0.950 . S
H315 C302 0.951 . S
C316 C317 1.386 1_554 S
C316 C318 1.383 . S
C316 H332 0.951 . S
C317 C316 1.386 1_556 S
C317 C321 1.383 . S
C318 C316 1.383 . S
C318 C319 1.402 1_554 S
C318 H333 0.951 . S
C319 C318 1.402 1_556 S
C319 C320 1.375 . S
C319 C322 1.485 . S
C320 C319 1.375 . S
C320 C321 1.367 . S
C320 H334 0.951 . S
C321 C317 1.383 . S
C321 C320 1.367 . S
C321 H335 0.950 . S
C322 C319 1.485 . S
C322 C323 1.294 1_456 S
C322 H336 0.949 1_455 S
C323 C322 1.294 1_654 S
C323 C324 1.479 1_545 S
C323 H337 0.950 . S
C324 C323 1.479 1_565 S
C324 C325 1.375 . S
C324 C330 1.404 1_554 S
C325 C324 1.375 . S
C325 C326 1.369 . S
C325 H338 0.950 . S
C326 C325 1.369 . S
C326 C327 1.392 . S
C326 H339 0.951 . S
C327 C326 1.392 . S
C327 C329 1.384 1_554 S
H328 C330 0.949 . S
C329 C327 1.384 1_556 S
C329 C330 1.385 . S
C329 H331 0.950 . S
C330 C324 1.404 1_556 S
C330 H328 0.949 . S
C330 C329 1.385 . S
H331 C329 0.950 . S
H332 C316 0.951 . S
H333 C318 0.951 . S
H334 C320 0.951 . S
H335 C321 0.950 . S
H336 C322 0.949 1_655 S
H337 C323 0.950 . S
H338 C325 0.950 . S
H339 C326 0.951 . S
C340 C341 1.386 . S
C340 C342 1.383 . S
C340 H356 0.951 . S
C341 C340 1.386 . S
C341 C345 1.383 . S
C342 C340 1.383 . S
C342 C343 1.402 . S
C342 H357 0.953 . S
C343 C342 1.402 . S
C343 C344 1.375 . S
C343 C346 1.481 1_655 S
C344 C343 1.375 . S
C344 C345 1.367 . S
C344 H358 0.951 . S
C345 C341 1.383 . S
C345 C344 1.367 . S
C345 H359 0.950 . S
C346 C343 1.481 1_455 S
C346 C347 1.297 1_545 S
C346 H360 0.950 . S
C347 C346 1.297 1_565 S
C347 C348 1.479 . S
C347 H361 0.950 1_455 S
C348 C347 1.479 . S
C348 C349 1.375 . S
C348 C354 1.404 . S
C349 C348 1.375 . S
C349 C350 1.369 . S
C349 H362 0.950 . S
C350 C349 1.369 . S
C350 C351 1.392 . S
C350 H363 0.951 . S
C351 C350 1.392 . S
C351 C353 1.384 . S
H352 C354 0.949 1_545 S
C353 C351 1.384 . S
C353 C354 1.385 . S
C353 H355 0.950 . S
C354 C348 1.404 . S
C354 H352 0.949 1_565 S
C354 C353 1.385 . S
H355 C353 0.950 . S
H356 C340 0.951 . S
H357 C342 0.953 . S
H358 C344 0.951 . S
H359 C345 0.950 . S
H360 C346 0.950 . S
H361 C347 0.950 1_655 S
H362 C349 0.950 . S
H363 C350 0.951 . S
C364 C365 1.386 . S
C364 C366 1.383 . S
C364 H380 0.951 . S
C365 C364 1.386 . S
C365 C369 1.383 . S
C366 C364 1.383 . S
C366 C367 1.402 . S
C366 H381 0.951 . S
C367 C366 1.402 . S
C367 C368 1.375 . S
C367 C370 1.481 . S
C368 C367 1.375 . S
C368 C369 1.367 . S
C368 H382 0.951 . S
C369 C365 1.383 . S
C369 C368 1.367 . S
C369 H383 0.950 . S
C370 C367 1.481 . S
C370 C371 1.297 . S
C370 H384 0.950 . S
C371 C370 1.297 . S
C371 C372 1.479 . S
C371 H385 0.950 . S
C372 C371 1.479 . S
C372 C373 1.375 . S
C372 C378 1.404 . S
C373 C372 1.375 . S
C373 C374 1.369 . S
C373 H386 0.950 . S
C374 C373 1.369 . S
C374 C375 1.392 . S
C374 H387 0.951 . S
C375 C374 1.392 . S
C375 C377 1.384 . S
H376 C378 0.949 . S
C377 C375 1.384 . S
C377 C378 1.385 . S
C377 H379 0.950 . S
C378 C372 1.404 . S
C378 H376 0.949 . S
C378 C377 1.385 . S
H379 C377 0.950 . S
H380 C364 0.951 . S
H381 C366 0.951 . S
H382 C368 0.951 . S
H383 C369 0.950 . S
H384 C370 0.950 . S
H385 C371 0.950 . S
H386 C373 0.950 . S
H387 C374 0.951 . S
C388 C389 1.386 . S
C388 C390 1.383 . S
C388 H404 0.951 . S
C389 C388 1.386 . S
C389 C393 1.383 . S
C390 C388 1.383 . S
C390 C391 1.402 . S
C390 H405 0.951 . S
C391 C390 1.402 . S
C391 C392 1.375 . S
C391 C394 1.481 . S
C392 C391 1.375 . S
C392 C393 1.367 . S
C392 H406 0.951 . S
C393 C389 1.383 . S
C393 C392 1.367 . S
C393 H407 0.950 . S
C394 C391 1.481 . S
C394 C395 1.297 . S
C394 H408 0.950 . S
C395 C394 1.297 . S
C395 C396 1.479 . S
C395 H409 0.950 . S
C396 C395 1.479 . S
C396 C397 1.375 . S
C396 C402 1.404 . S
C397 C396 1.375 . S
C397 C398 1.369 . S
C397 H410 0.950 . S
C398 C397 1.369 . S
C398 C399 1.392 . S
C398 H411 0.951 . S
C399 C398 1.392 . S
C399 C401 1.384 . S
H400 C402 0.949 . S
C401 C399 1.384 . S
C401 C402 1.385 . S
C401 H403 0.950 . S
C402 C396 1.404 . S
C402 H400 0.949 . S
C402 C401 1.385 . S
H403 C401 0.950 . S
H404 C388 0.951 . S
H405 C390 0.951 . S
H406 C392 0.951 . S
H407 C393 0.950 . S
H408 C394 0.950 . S
H409 C395 0.950 . S
H410 C397 0.950 . S
H411 C398 0.951 . S
C412 C413 1.386 . S
C412 C414 1.383 . S
C412 H428 0.951 . S
C413 C412 1.386 . S
C413 C417 1.383 . S
C414 C412 1.383 . S
C414 C415 1.402 . S
C414 H429 0.951 . S
C415 C414 1.402 . S
C415 C416 1.375 . S
C415 C418 1.481 . S
C416 C415 1.375 . S
C416 C417 1.367 . S
C416 H430 0.951 . S
C417 C413 1.383 . S
C417 C416 1.367 . S
C417 H431 0.950 . S
C418 C415 1.481 . S
C418 C419 1.297 . S
C418 H432 0.950 . S
C419 C418 1.297 . S
C419 C420 1.479 . S
C419 H433 0.950 . S
C420 C419 1.479 . S
C420 C421 1.375 . S
C420 C426 1.404 . S
C421 C420 1.375 . S
C421 C422 1.369 . S
C421 H434 0.950 . S
C422 C421 1.369 . S
C422 C423 1.392 . S
C422 H435 0.951 . S
C423 C422 1.392 . S
C423 C425 1.384 . S
H424 C426 0.949 . S
C425 C423 1.384 . S
C425 C426 1.385 . S
C425 H427 0.950 . S
C426 C420 1.404 . S
C426 H424 0.949 . S
C426 C425 1.385 . S
H427 C425 0.950 . S
H428 C412 0.951 . S
H429 C414 0.951 . S
H430 C416 0.951 . S
H431 C417 0.950 . S
H432 C418 0.950 . S
H433 C419 0.950 . S
H434 C421 0.950 . S
H435 C422 0.951 . S
C436 C437 1.386 . S
C436 C438 1.383 . S
C436 H452 0.951 . S
C437 C436 1.386 . S
C437 C441 1.383 . S
C438 C436 1.383 . S
C438 C439 1.402 . S
C438 H453 0.951 . S
C439 C438 1.402 . S
C439 C440 1.375 . S
C439 C442 1.481 . S
C440 C439 1.375 . S
C440 C441 1.367 . S
C440 H454 0.951 . S
C441 C437 1.383 . S
C441 C440 1.367 . S
C441 H455 0.950 . S
C442 C439 1.481 . S
C442 C443 1.297 . S
C442 H456 0.950 . S
C443 C442 1.297 . S
C443 C444 1.479 . S
C443 H457 0.950 . S
C444 C443 1.479 . S
C444 C445 1.375 . S
C444 C450 1.404 . S
C445 C444 1.375 . S
C445 C446 1.369 . S
C445 H458 0.950 . S
C446 C445 1.369 . S
C446 C447 1.392 . S
C446 H459 0.951 . S
C447 C446 1.392 . S
C447 C449 1.384 . S
H448 C450 0.949 . S
C449 C447 1.384 . S
C449 C450 1.385 . S
C449 H451 0.950 . S
C450 C444 1.404 . S
C450 H448 0.949 . S
C450 C449 1.385 . S
H451 C449 0.950 . S
H452 C436 0.951 . S
H453 C438 0.951 . S
H454 C440 0.951 . S
H455 C441 0.950 . S
H456 C442 0.950 . S
H457 C443 0.950 . S
H458 C445 0.950 . S
H459 C446 0.951 . S
C460 C461 1.386 . S
C460 C462 1.383 . S
C460 H476 0.951 . S
C461 C460 1.386 . S
C461 C465 1.383 . S
C462 C460 1.383 . S
C462 C463 1.402 . S
C462 H477 0.951 . S
C463 C462 1.402 . S
C463 C464 1.375 . S
C463 C466 1.481 . S
C464 C463 1.375 . S
C464 C465 1.367 . S
C464 H478 0.951 . S
C465 C461 1.383 . S
C465 C464 1.367 . S
C465 H479 0.950 . S
C466 C463 1.481 . S
C466 C467 1.297 . S
C466 H480 0.950 1_455 S
C467 C466 1.297 . S
C467 C468 1.479 1_455 S
C467 H481 0.950 . S
C468 C467 1.479 1_655 S
C468 C469 1.375 . S
C468 C474 1.404 . S
C469 C468 1.375 . S
C469 C470 1.369 . S
C469 H482 0.950 . S
C470 C469 1.369 . S
C470 C471 1.392 . S
C470 H483 0.951 . S
C471 C470 1.392 . S
C471 C473 1.384 . S
H472 C474 0.949 . S
C473 C471 1.384 . S
C473 C474 1.385 . S
C473 H475 0.950 . S
C474 C468 1.404 . S
C474 H472 0.949 . S
C474 C473 1.385 . S
H475 C473 0.950 . S
H476 C460 0.951 . S
H477 C462 0.951 . S
H478 C464 0.951 . S
H479 C465 0.950 . S
H480 C466 0.950 1_655 S
H481 C467 0.950 . S
H482 C469 0.950 . S
H483 C470 0.951 . S
C484 C485 1.386 . S
C484 C486 1.383 . S
C484 H500 0.951 . S
C485 C484 1.386 . S
C485 C489 1.383 . S
C486 C484 1.383 . S
C486 C487 1.402 . S
C486 H501 0.951 . S
C487 C486 1.402 . S
C487 C488 1.375 . S
C487 C490 1.481 . S
C488 C487 1.375 . S
C488 C489 1.367 . S
C488 H502 0.951 . S
C489 C485 1.383 . S
C489 C488 1.367 . S
C489 H503 0.950 . S
C490 C487 1.481 . S
C490 C491 1.297 1_655 S
C490 H504 0.950 . S
C491 C490 1.297 1_455 S
C491 C492 1.479 . S
C491 H505 0.950 . S
C492 C491 1.479 . S
C492 C493 1.375 . S
C492 C498 1.404 . S
C493 C492 1.375 . S
C493 C494 1.369 . S
C493 H506 0.950 . S
C494 C493 1.369 . S
C494 C495 1.392 . S
C494 H507 0.951 . S
C495 C494 1.392 . S
C495 C497 1.384 . S
H496 C498 0.949 . S
C497 C495 1.384 . S
C497 C498 1.385 . S
C497 H499 0.950 . S
C498 C492 1.404 . S
C498 H496 0.949 . S
C498 C497 1.385 . S
H499 C497 0.950 . S
H500 C484 0.951 . S
H501 C486 0.951 . S
H502 C488 0.951 . S
H503 C489 0.950 . S
H504 C490 0.950 . S
H505 C491 0.950 . S
H506 C493 0.950 . S
H507 C494 0.951 . S
C508 C509 1.386 . S
C508 C510 1.383 . S
C508 H524 0.951 . S
C509 C508 1.386 . S
C509 C513 1.383 . S
C510 C508 1.383 . S
C510 C511 1.402 . S
C510 H525 0.951 . S
C511 C510 1.402 . S
C511 C512 1.375 . S
C511 C514 1.481 . S
C512 C511 1.375 . S
C512 C513 1.367 . S
C512 H526 0.951 . S
C513 C509 1.383 . S
C513 C512 1.367 . S
C513 H527 0.950 . S
C514 C511 1.481 . S
C514 C515 1.297 . S
C514 H528 0.950 1_455 S
C515 C514 1.297 . S
C515 C516 1.479 1_455 S
C515 H529 0.950 . S
C516 C515 1.479 1_655 S
C516 C517 1.375 . S
C516 C522 1.404 . S
C517 C516 1.375 . S
C517 C518 1.369 . S
C517 H530 0.950 . S
C518 C517 1.369 . S
C518 C519 1.392 . S
C518 H531 0.951 . S
C519 C518 1.392 . S
C519 C521 1.384 . S
H520 C522 0.949 . S
C521 C519 1.384 . S
C521 C522 1.385 . S
C521 H523 0.950 . S
C522 C516 1.404 . S
C522 H520 0.949 . S
C522 C521 1.385 . S
H523 C521 0.950 . S
H524 C508 0.951 . S
H525 C510 0.951 . S
H526 C512 0.951 . S
H527 C513 0.950 . S
H528 C514 0.950 1_655 S
H529 C515 0.950 . S
H530 C517 0.950 . S
H531 C518 0.951 . S
C532 C533 1.386 . S
C532 C534 1.383 . S
C532 H548 0.951 . S
C533 C532 1.386 . S
C533 C537 1.383 . S
C534 C532 1.383 . S
C534 C535 1.402 . S
C534 H549 0.951 . S
C535 C534 1.402 . S
C535 C536 1.375 . S
C535 C538 1.481 . S
C536 C535 1.375 . S
C536 C537 1.367 . S
C536 H550 0.951 . S
C537 C533 1.383 . S
C537 C536 1.367 . S
C537 H551 0.950 . S
C538 C535 1.481 . S
C538 C539 1.297 1_455 S
C538 H552 0.950 . S
C539 C538 1.297 1_655 S
C539 C540 1.479 . S
C539 H553 0.950 . S
C540 C539 1.479 . S
C540 C541 1.375 . S
C540 C546 1.404 . S
C541 C540 1.375 . S
C541 C542 1.369 . S
C541 H554 0.950 . S
C542 C541 1.369 . S
C542 C543 1.392 . S
C542 H555 0.951 . S
C543 C542 1.392 . S
C543 C545 1.384 . S
H544 C546 0.949 . S
C545 C543 1.384 . S
C545 C546 1.385 . S
C545 H547 0.950 . S
C546 C540 1.404 . S
C546 H544 0.949 . S
C546 C545 1.385 . S
H547 C545 0.950 . S
H548 C532 0.951 . S
H549 C534 0.951 . S
H550 C536 0.951 . S
H551 C537 0.950 . S
H552 C538 0.950 . S
H553 C539 0.950 . S
H554 C541 0.950 . S
H555 C542 0.951 . S
C173 N8 0.322 1_554 S
C183 N3 0.329 1_556 S
C197 N51 0.343 1_554 S
C207 N46 0.358 1_556 S
C221 N89 0.472 . S
C231 N94 0.271 . S
C245 N137 0.535 . S
C255 N132 0.175 . S
C269 C70 1.520 1_556 S
C279 C40 1.619 . S
C293 C162 1.575 . S
C303 C113 1.467 . S
C317 C27 1.526 1_556 S
C327 C83 1.623 . S
C341 C161 1.513 . S
C351 C126 1.544 . S
C365 C168 1.577 . S
C375 C13 1.523 . S
C389 C76 1.306 . S
C399 C119 1.337 . S
C413 C125 1.320 . S
C423 C82 1.284 . S
C437 C32 1.390 . S
C447 C156 1.342 . S
C461 C99 1.587 . S
C471 C56 1.501 . S
C485 C169 1.326 . S
C495 C33 1.258 . S
C509 C39 1.347 . S
C519 C142 1.266 . S
C533 C118 1.440 . S
C543 C75 1.447 . S
