# Generated by pormake.
# Topology srs-a, (3)-cn, num edge types: 1
# Building blocks:
#     Node 0, Type 0, BuildingBlock: WUSLED_clean_sbu_0, # of connection points: 3
#     Node 1, Type 0, BuildingBlock: WUSLED_clean_sbu_0, # of connection points: 3
#     Node 2, Type 0, BuildingBlock: WUSLED_clean_sbu_0, # of connection points: 3
#     Node 3, Type 0, BuildingBlock: WUSLED_clean_sbu_0, # of connection points: 3
#     Node 4, Type 0, BuildingBlock: WUSLED_clean_sbu_0, # of connection points: 3
#     Node 5, Type 0, BuildingBlock: WUSLED_clean_sbu_0, # of connection points: 3
#     Node 6, Type 0, BuildingBlock: WUSLED_clean_sbu_0, # of connection points: 3
#     Node 7, Type 0, BuildingBlock: WUSLED_clean_sbu_0, # of connection points: 3
#     Node 8, Type 0, BuildingBlock: WUSLED_clean_sbu_0, # of connection points: 3
#     Node 9, Type 0, BuildingBlock: WUSLED_clean_sbu_0, # of connection points: 3
#     Node 10, Type 0, BuildingBlock: WUSLED_clean_sbu_0, # of connection points: 3
#     Node 11, Type 0, BuildingBlock: WUSLED_clean_sbu_0, # of connection points: 3
#     Node 12, Type 0, BuildingBlock: WUSLED_clean_sbu_0, # of connection points: 3
#     Node 13, Type 0, BuildingBlock: WUSLED_clean_sbu_0, # of connection points: 3
#     Node 14, Type 0, BuildingBlock: WUSLED_clean_sbu_0, # of connection points: 3
#     Node 15, Type 0, BuildingBlock: WUSLED_clean_sbu_0, # of connection points: 3
#     Node 16, Type 0, BuildingBlock: WUSLED_clean_sbu_0, # of connection points: 3
#     Node 17, Type 0, BuildingBlock: WUSLED_clean_sbu_0, # of connection points: 3
#     Node 18, Type 0, BuildingBlock: WUSLED_clean_sbu_0, # of connection points: 3
#     Node 19, Type 0, BuildingBlock: WUSLED_clean_sbu_0, # of connection points: 3
#     Node 20, Type 0, BuildingBlock: WUSLED_clean_sbu_0, # of connection points: 3
#     Node 21, Type 0, BuildingBlock: WUSLED_clean_sbu_0, # of connection points: 3
#     Node 22, Type 0, BuildingBlock: WUSLED_clean_sbu_0, # of connection points: 3
#     Node 23, Type 0, BuildingBlock: WUSLED_clean_sbu_0, # of connection points: 3
#     Edge 24, Type (0, 0), BuildingBlock: CIFDUS_clean_linker_0, # of connection points: 2
#     Edge 25, Type (0, 0), BuildingBlock: CIFDUS_clean_linker_0, # of connection points: 2
#     Edge 26, Type (0, 0), BuildingBlock: CIFDUS_clean_linker_0, # of connection points: 2
#     Edge 27, Type (0, 0), BuildingBlock: CIFDUS_clean_linker_0, # of connection points: 2
#     Edge 28, Type (0, 0), BuildingBlock: CIFDUS_clean_linker_0, # of connection points: 2
#     Edge 29, Type (0, 0), BuildingBlock: CIFDUS_clean_linker_0, # of connection points: 2
#     Edge 30, Type (0, 0), BuildingBlock: CIFDUS_clean_linker_0, # of connection points: 2
#     Edge 31, Type (0, 0), BuildingBlock: CIFDUS_clean_linker_0, # of connection points: 2
#     Edge 32, Type (0, 0), BuildingBlock: CIFDUS_clean_linker_0, # of connection points: 2
#     Edge 33, Type (0, 0), BuildingBlock: CIFDUS_clean_linker_0, # of connection points: 2
#     Edge 34, Type (0, 0), BuildingBlock: CIFDUS_clean_linker_0, # of connection points: 2
#     Edge 35, Type (0, 0), BuildingBlock: CIFDUS_clean_linker_0, # of connection points: 2
#     Edge 36, Type (0, 0), BuildingBlock: CIFDUS_clean_linker_0, # of connection points: 2
#     Edge 37, Type (0, 0), BuildingBlock: CIFDUS_clean_linker_0, # of connection points: 2
#     Edge 38, Type (0, 0), BuildingBlock: CIFDUS_clean_linker_0, # of connection points: 2
#     Edge 39, Type (0, 0), BuildingBlock: CIFDUS_clean_linker_0, # of connection points: 2
#     Edge 40, Type (0, 0), BuildingBlock: CIFDUS_clean_linker_0, # of connection points: 2
#     Edge 41, Type (0, 0), BuildingBlock: CIFDUS_clean_linker_0, # of connection points: 2
#     Edge 42, Type (0, 0), BuildingBlock: CIFDUS_clean_linker_0, # of connection points: 2
#     Edge 43, Type (0, 0), BuildingBlock: CIFDUS_clean_linker_0, # of connection points: 2
#     Edge 44, Type (0, 0), BuildingBlock: CIFDUS_clean_linker_0, # of connection points: 2
#     Edge 45, Type (0, 0), BuildingBlock: CIFDUS_clean_linker_0, # of connection points: 2
#     Edge 46, Type (0, 0), BuildingBlock: CIFDUS_clean_linker_0, # of connection points: 2
#     Edge 47, Type (0, 0), BuildingBlock: CIFDUS_clean_linker_0, # of connection points: 2
#     Edge 48, Type (0, 0), BuildingBlock: CIFDUS_clean_linker_0, # of connection points: 2
#     Edge 49, Type (0, 0), BuildingBlock: CIFDUS_clean_linker_0, # of connection points: 2
#     Edge 50, Type (0, 0), BuildingBlock: CIFDUS_clean_linker_0, # of connection points: 2
#     Edge 51, Type (0, 0), BuildingBlock: CIFDUS_clean_linker_0, # of connection points: 2
#     Edge 52, Type (0, 0), BuildingBlock: CIFDUS_clean_linker_0, # of connection points: 2
#     Edge 53, Type (0, 0), BuildingBlock: CIFDUS_clean_linker_0, # of connection points: 2
#     Edge 54, Type (0, 0), BuildingBlock: CIFDUS_clean_linker_0, # of connection points: 2
#     Edge 55, Type (0, 0), BuildingBlock: CIFDUS_clean_linker_0, # of connection points: 2
#     Edge 56, Type (0, 0), BuildingBlock: CIFDUS_clean_linker_0, # of connection points: 2
#     Edge 57, Type (0, 0), BuildingBlock: CIFDUS_clean_linker_0, # of connection points: 2
#     Edge 58, Type (0, 0), BuildingBlock: CIFDUS_clean_linker_0, # of connection points: 2
#     Edge 59, Type (0, 0), BuildingBlock: CIFDUS_clean_linker_0, # of connection points: 2
# Relax obj value: 0.410
# Max RMSD: 0.289
# Mean RMSD: 0.284
data_MOF--net-srs-a--node1-WUSLED_clean_sbu_0--edge1-CIFDUS_clean_linker_0
_symmetry_space_group_name_H-M    P1
_symmetry_Int_Tables_number       1
_symmetry_cell_setting            triclinic
loop_
_symmetry_equiv_pos_as_xyz
'x, y, z'
_cell_length_a     113.40138
_cell_length_b     97.16208
_cell_length_c     115.02003
_cell_angle_alpha  92.850741
_cell_angle_beta   103.52447
_cell_angle_gamma 101.30559
loop_
_atom_site_label
_atom_site_type_symbol
_atom_site_fract_x
_atom_site_fract_y
_atom_site_fract_z
_atom_type_partial_charge
C0 C 0.01914 0.19457 0.07341 0.0
C1 C 0.02925 0.18982 0.07081 0.0
C2 C 0.02183 0.16668 0.07684 0.0
C3 C 0.03059 0.17602 0.07252 0.0
C4 C 0.01127 0.17118 0.07866 0.0
C5 C 0.00998 0.18507 0.07701 0.0
U6 U 0.03479 0.2308 0.06873 0.0
O7 O 0.02823 0.24987 0.06279 0.0
O8 O 0.0409 0.25058 0.0806 0.0
C9 C 0.03445 0.25754 0.07291 0.0
C10 C 0.01903 0.20972 0.0737 0.0
C11 C 0.02844 0.26757 0.07811 0.0
C12 C 0.01342 0.27333 0.08855 0.0
C13 C 0.01798 0.26328 0.08266 0.0
C14 C 0.02963 0.29187 0.08522 0.0
C15 C 0.01938 0.28769 0.09009 0.0
C16 C 0.03407 0.28191 0.07928 0.0
C17 C 0.0646 0.2312 0.05772 0.0
C18 C 0.08336 0.24966 0.06198 0.0
C19 C 0.08183 0.22828 0.04942 0.0
C20 C 0.06984 0.22324 0.05064 0.0
C21 C 0.08883 0.24134 0.05536 0.0
C22 C 0.07125 0.24466 0.06309 0.0
C23 C 0.05303 0.22439 0.06062 0.0
O24 O 0.02824 0.21766 0.08188 0.0
O25 O 0.01717 0.21492 0.06323 0.0
O26 O 0.04255 0.22586 0.05349 0.0
O27 O 0.05312 0.22555 0.07207 0.0
H28 H 0.03641 0.19698 0.06799 0.0
H29 H 0.03873 0.1728 0.07088 0.0
H30 H 1.0044 0.16425 0.08203 0.0
H31 H 1.00213 0.18856 0.07906 0.0
H32 H 1.00549 0.26984 0.09222 0.0
H33 H 0.01355 0.25222 0.08189 0.0
H34 H 0.03429 0.30286 0.08609 0.0
H35 H 0.04215 0.28541 0.07581 0.0
H36 H 0.0886 0.25977 0.06662 0.0
H37 H 0.08591 0.22159 0.04441 0.0
H38 H 0.06488 0.21278 0.04654 0.0
H39 H 0.06733 0.25096 0.0686 0.0
C40 C 0.06405 0.83155 0.3303 0.0
C41 C 0.07322 0.83516 0.32396 0.0
C42 C 0.06785 0.85816 0.32108 0.0
C43 C 0.07499 0.84824 0.31928 0.0
C44 C 0.05835 0.85419 0.32704 0.0
C45 C 0.05647 0.84103 0.33156 0.0
U46 U 0.07927 0.80403 0.34652 0.0
O47 O 0.07862 0.79608 0.36397 0.0
O48 O 0.07261 0.78128 0.34756 0.0
C49 C 0.07418 0.78294 0.35929 0.0
C50 C 0.06305 0.81864 0.33662 0.0
C51 C 0.0649 0.77448 0.36467 0.0
C52 C 0.04385 0.76571 0.36657 0.0
C53 C 0.05204 0.77345 0.36057 0.0
C54 C 0.06129 0.75992 0.38059 0.0
C55 C 0.04845 0.75908 0.37679 0.0
C56 C 0.06938 0.76749 0.37459 0.0
C57 C 0.11508 0.81086 0.34859 0.0
C58 C 0.13345 0.8115 0.3648 0.0
C59 C 0.13562 0.81633 0.34487 0.0
C60 C 0.12272 0.81382 0.34067 0.0
C61 C 0.14112 0.81587 0.35709 0.0
C62 C 0.12048 0.80907 0.36059 0.0
C63 C 0.10215 0.81264 0.34466 0.0
O64 O 0.06471 0.80725 0.33108 0.0
O65 O 0.06886 0.82062 0.34807 0.0
O66 O 0.09759 0.81805 0.35289 0.0
O67 O 0.094 0.80278 0.33704 0.0
H68 H 0.07924 0.82805 0.32292 0.0
H69 H 0.0822 0.85068 0.31452 0.0
H70 H 0.05275 0.86149 0.3288 0.0
H71 H 0.0494 0.83849 0.33648 0.0
H72 H 0.03398 0.76526 0.36346 0.0
H73 H 0.04838 0.77877 0.35291 0.0
H74 H 0.0651 0.75477 0.38831 0.0
H75 H 0.07926 0.76808 0.37784 0.0
H76 H 0.13746 0.81109 0.37426 0.0
H77 H 0.14133 0.81956 0.33872 0.0
H78 H 0.11877 0.81527 0.33139 0.0
H79 H 0.11477 0.80678 0.36689 0.0
C80 C 0.47586 0.89415 0.68694 0.0
C81 C 0.46892 0.90467 0.68492 0.0
C82 C 0.4593 0.89753 0.70115 0.0
C83 C 0.46073 0.90639 0.69202 0.0
C84 C 0.46678 0.88755 0.70351 0.0
C85 C 0.47499 0.88589 0.69646 0.0
U86 U 0.48758 0.89891 0.65838 0.0
O87 O 0.4856 0.882 0.64407 0.0
O88 O 0.50442 0.89388 0.65421 0.0
C89 C 0.49769 0.88364 0.646 0.0
C90 C 0.48269 0.89029 0.67835 0.0
C91 C 0.50339 0.87504 0.63901 0.0
C92 C 0.5128 0.85485 0.63732 0.0
C93 C 0.5095 0.86488 0.6444 0.0
C94 C 0.50446 0.86555 0.61948 0.0
C95 C 0.5101 0.85493 0.62474 0.0
C96 C 0.50106 0.87544 0.62655 0.0
C97 C 0.47717 0.9321 0.64279 0.0
C98 C 0.47067 0.93934 0.62275 0.0
C99 C 0.46949 0.95362 0.64014 0.0
C100 C 0.47443 0.94424 0.64762 0.0
C101 C 0.46726 0.95117 0.62759 0.0
C102 C 0.47555 0.9298 0.63031 0.0
C103 C 0.47979 0.92138 0.65104 0.0
O104 O 0.47569 0.88537 0.66761 0.0
O105 O 0.493 0.89914 0.67813 0.0
O106 O 0.49118 0.92201 0.65741 0.0
O107 O 0.47294 0.90855 0.64823 0.0
H108 H 0.46941 0.91107 0.67753 0.0
H109 H 0.45501 0.91409 0.68994 0.0
H110 H 0.46598 0.88069 0.71055 0.0
H111 H 0.48025 0.8777 0.6981 0.0
H112 H 0.51726 0.84691 0.64165 0.0
H113 H 0.5112 0.8643 0.65402 0.0
H114 H 0.50215 0.86584 0.60983 0.0
H115 H 0.49619 0.88311 0.62224 0.0
H116 H 0.46916 0.9372 0.61313 0.0
H117 H 0.46673 0.96235 0.64423 0.0
H118 H 0.47542 0.94606 0.65721 0.0
H119 H 0.47756 0.92041 0.62641 0.0
C120 C 0.44122 0.20342 0.95904 0.0
C121 C 0.4317 0.19742 0.96431 0.0
C122 C 0.41969 0.21452 0.95642 0.0
C123 C 0.42103 0.20293 0.96305 0.0
C124 C 0.42977 0.2214 0.9522 0.0
C125 C 0.44049 0.21588 0.95349 0.0
U126 U 0.4697 0.19384 0.949 0.0
O127 O 0.47188 0.20844 0.93529 0.0
O128 O 0.48538 0.21232 0.95286 0.0
C129 C 0.4823 0.21623 0.94196 0.0
C130 C 0.45003 0.19476 0.95717 0.0
C131 C 0.49226 0.22034 0.93571 0.0
C132 C 0.50083 0.23628 0.92269 0.0
C133 C 0.49226 0.23237 0.92951 0.0
C134 C 0.51001 0.21638 0.92844 0.0
C135 C 0.50984 0.22835 0.92197 0.0
C136 C 0.50126 0.21236 0.93521 0.0
C137 C 0.46894 0.15452 0.94786 0.0
C138 C 0.46757 0.12926 0.94505 0.0
C139 C 0.4516 0.13809 0.95197 0.0
C140 C 0.45785 0.15195 0.95162 0.0
C141 C 0.45631 0.12657 0.94852 0.0
C142 C 0.47382 0.14311 0.94473 0.0
C143 C 0.47495 0.16893 0.94626 0.0
O144 O 0.46136 0.19769 0.96417 0.0
O145 O 0.44959 0.19124 0.94589 0.0
O146 O 0.46854 0.17466 0.93751 0.0
O147 O 0.47984 0.17763 0.9561 0.0
H148 H 0.43204 0.18771 0.96851 0.0
H149 H 0.41338 0.1973 0.96627 0.0
H150 H 0.42897 0.2304 0.9471 0.0
H151 H 0.44773 0.22065 0.94933 0.0
H152 H 0.50006 0.24532 0.91767 0.0
H153 H 0.48536 0.23862 0.9297 0.0
H154 H 0.51686 0.21006 0.92827 0.0
H155 H 0.50142 0.20298 0.93991 0.0
H156 H 0.4715 0.12064 0.94244 0.0
H157 H 0.44286 0.13639 0.95454 0.0
H158 H 0.45386 0.16064 0.95396 0.0
H159 H 0.48234 0.1449 0.94177 0.0
C160 C 0.05661 0.08175 0.12051 0.0
C161 C 0.06334 0.08846 0.11282 0.0
C162 C 0.04758 0.10214 0.1064 0.0
C163 C 0.05887 0.09855 0.10583 0.0
C164 C 0.0404 0.09465 0.11342 0.0
C165 C 0.04494 0.08456 0.1205 0.0
U166 U 0.0852 0.06888 0.13435 0.0
O167 O 0.09552 0.06947 0.1531 0.0
O168 O 0.08865 0.04915 0.14189 0.0
C169 C 0.09439 0.05572 0.1526 0.0
C170 C 0.06256 0.07333 0.12951 0.0
C171 C 0.09151 0.04901 0.1631 0.0
C172 C 0.08161 0.0475 0.17977 0.0
C173 C 0.08279 0.05278 0.16886 0.0
C174 C 0.09752 0.03434 0.17897 0.0
C175 C 0.0891 0.03836 0.18502 0.0
C176 C 0.0987 0.0396 0.16815 0.0
C177 C 0.11171 0.08182 0.11837 0.0
C178 C 0.13422 0.08687 0.12561 0.0
C179 C 0.12469 0.08948 0.10491 0.0
C180 C 0.11298 0.085 0.10695 0.0
C181 C 0.13549 0.09082 0.11426 0.0
C182 C 0.12239 0.08243 0.12767 0.0
C183 C 0.09918 0.07963 0.1204 0.0
O184 O 0.06531 0.06189 0.12522 0.0
O185 O 0.07172 0.08089 0.138 0.0
O186 O 0.09799 0.08672 0.12993 0.0
O187 O 0.0924 0.06673 0.11826 0.0
H188 H 0.07238 0.08644 0.11269 0.0
H189 H 0.06453 0.10407 0.10041 0.0
H190 H 0.03169 0.09726 0.11406 0.0
H191 H 0.03963 0.0795 0.1264 0.0
H192 H 0.07494 0.05066 0.18414 0.0
H193 H 0.07717 0.06006 0.1651 0.0
H194 H 0.10355 0.02749 0.18283 0.0
H195 H 0.10556 0.03669 0.1639 0.0
H196 H 0.14232 0.08764 0.13299 0.0
H197 H 0.12519 0.0927 0.09613 0.0
H198 H 0.10484 0.08472 0.0997 0.0
H199 H 0.12158 0.08001 0.13658 0.0
C200 C 0.2305 0.88456 0.3958 0.0
C201 C 0.22579 0.88564 0.38353 0.0
C202 C 0.20859 0.86567 0.38252 0.0
C203 C 0.21506 0.87621 0.37695 0.0
C204 C 0.21372 0.86419 0.39467 0.0
C205 C 0.22456 0.87355 0.40123 0.0
U206 U 0.24561 0.92312 0.4017 0.0
O207 O 0.25029 0.93792 0.41795 0.0
O208 O 0.26487 0.93516 0.4089 0.0
C209 C 0.26205 0.94159 0.4179 0.0
C210 C 0.24046 0.89587 0.40328 0.0
C211 C 0.27098 0.94395 0.42973 0.0
C212 C 0.28271 0.93592 0.44766 0.0
C213 C 0.27497 0.93297 0.43595 0.0
C214 C 0.28253 0.96074 0.44685 0.0
C215 C 0.28643 0.94985 0.45335 0.0
C216 C 0.27498 0.95781 0.43519 0.0
C217 C 0.22864 0.94546 0.37883 0.0
C218 C 0.22146 0.96704 0.38206 0.0
C219 C 0.21661 0.95495 0.36205 0.0
C220 C 0.22339 0.94498 0.36649 0.0
C221 C 0.21504 0.96558 0.3699 0.0
C222 C 0.22826 0.95701 0.38653 0.0
C223 C 0.23167 0.93242 0.38354 0.0
O224 O 0.2491 0.90195 0.39815 0.0
O225 O 0.23642 0.90496 0.40936 0.0
O226 O 0.22831 0.92933 0.39344 0.0
O227 O 0.24247 0.92959 0.38321 0.0
H228 H 0.23011 0.8941 0.37913 0.0
H229 H 0.2116 0.87751 0.36755 0.0
H230 H 0.20901 0.85632 0.39933 0.0
H231 H 0.22797 0.8726 0.41071 0.0
H232 H 0.28567 0.92726 0.45226 0.0
H233 H 0.27196 0.92218 0.43186 0.0
H234 H 0.28487 0.97154 0.45087 0.0
H235 H 0.27194 0.96641 0.43054 0.0
H236 H 0.22028 0.97512 0.38827 0.0
H237 H 0.21168 0.95362 0.35265 0.0
H238 H 0.22354 0.93616 0.36042 0.0
H239 H 0.23226 0.95759 0.39611 0.0
C240 C 0.32808 0.92464 0.70592 0.0
C241 C 0.33543 0.92159 0.69824 0.0
C242 C 0.32424 0.93361 0.68267 0.0
C243 C 0.33352 0.92606 0.68669 0.0
C244 C 0.31667 0.9363 0.69019 0.0
C245 C 0.31858 0.93184 0.70175 0.0
U246 U 0.34768 0.90886 0.73078 0.0
O247 O 0.35783 0.91756 0.74915 0.0
O248 O 0.34361 0.89796 0.74628 0.0
C249 C 0.35163 0.90767 0.75415 0.0
C250 C 0.33095 0.92137 0.71852 0.0
C251 C 0.34767 0.91262 0.76465 0.0
C252 C 0.33916 0.9295 0.77468 0.0
C253 C 0.34093 0.92333 0.76412 0.0
C254 C 0.35024 0.9138 0.78631 0.0
C255 C 0.34416 0.92513 0.78596 0.0
C256 C 0.35199 0.90764 0.77575 0.0
C257 C 0.37298 0.89276 0.72079 0.0
C258 C 0.39454 0.89397 0.73104 0.0
C259 C 0.38585 0.88101 0.71134 0.0
C260 C 0.37437 0.88427 0.7112 0.0
C261 C 0.39614 0.88631 0.72104 0.0
C262 C 0.38298 0.8971 0.73095 0.0
C263 C 0.36188 0.89888 0.71898 0.0
O264 O 0.32854 0.90792 0.72024 0.0
O265 O 0.34185 0.92822 0.72502 0.0
O266 O 0.36383 0.91217 0.72316 0.0
O267 O 0.35166 0.89108 0.72065 0.0
H268 H 0.34286 0.9161 0.70131 0.0
H269 H 0.33947 0.92393 0.681 0.0
H270 H 0.30948 0.94214 0.68722 0.0
H271 H 0.31286 0.93432 0.70756 0.0
H272 H 0.33426 0.93805 0.77407 0.0
H273 H 0.3375 0.92732 0.75563 0.0
H274 H 0.35432 0.91024 0.79481 0.0
H275 H 0.35726 0.89942 0.77634 0.0
H276 H 0.40236 0.89811 0.73863 0.0
H277 H 0.38689 0.87522 0.70348 0.0
H278 H 0.36679 0.88094 0.70324 0.0
H279 H 0.38209 0.90364 0.73847 0.0
C280 C 0.28059 0.13135 0.92584 0.0
C281 C 0.29143 0.13229 0.92174 0.0
C282 C 0.28713 0.10667 0.91759 0.0
C283 C 0.29465 0.12007 0.91762 0.0
C284 C 0.276 0.1059 0.92121 0.0
C285 C 0.27278 0.11812 0.9253 0.0
U286 U 0.29105 0.16979 0.93797 0.0
O287 O 0.28096 0.18656 0.94046 0.0
O288 O 0.29316 0.17997 0.95599 0.0
C289 C 0.2853 0.18803 0.95221 0.0
C290 C 0.2782 0.1438 0.932 0.0
C291 C 0.27651 0.18909 0.95964 0.0
C292 C 0.2598 0.17852 0.96843 0.0
C293 C 0.26681 0.17779 0.95994 0.0
C294 C 0.27191 0.20198 0.9761 0.0
C295 C 0.26252 0.19047 0.97688 0.0
C296 C 0.27878 0.20129 0.96756 0.0
C297 C 0.32294 0.18749 0.93266 0.0
C298 C 0.33771 0.20772 0.94457 0.0
C299 C 0.34391 0.19342 0.93017 0.0
C300 C 0.33196 0.18501 0.92686 0.0
C301 C 0.3471 0.20462 0.93936 0.0
C302 C 0.32571 0.19916 0.9413 0.0
C303 C 0.31165 0.17641 0.93089 0.0
O304 O 0.28596 0.14813 0.94252 0.0
O305 O 0.27608 0.1542 0.92545 0.0
O306 O 0.30108 0.17907 0.92492 0.0
O307 O 0.31072 0.16964 0.94034 0.0
H308 H 0.29761 0.14243 0.92212 0.0
H309 H 0.30315 0.12113 0.91467 0.0
H310 H 0.27002 0.09581 0.92143 0.0
H311 H 0.26443 0.11719 0.9285 0.0
H312 H 0.25247 0.16956 0.96855 0.0
H313 H 0.26492 0.16827 0.9539 0.0
H314 H 0.27443 0.21128 0.98248 0.0
H315 H 0.28629 0.21008 0.96749 0.0
H316 H 0.33977 0.21638 0.95154 0.0
H317 H 0.35083 0.19043 0.92607 0.0
H318 H 0.33002 0.17596 0.92028 0.0
H319 H 0.31883 0.20119 0.94591 0.0
C320 C 0.14328 0.01452 0.32473 0.0
C321 C 0.14158 0.0061 0.33403 0.0
C322 C 0.16403 0.00849 0.34114 0.0
C323 C 0.15186 1.00322 0.34222 0.0
C324 C 0.16563 0.01747 0.33214 0.0
C325 C 0.15536 0.02045 0.32404 0.0
U326 U 0.10981 1.00114 0.30694 0.0
O327 O 0.10223 0.99535 0.28757 0.0
O328 O 0.09579 0.0118 0.29669 0.0
C329 C 0.09506 1.00454 0.28648 0.0
C330 C 0.13269 0.01574 0.31486 0.0
C331 C 0.094 0.01184 0.27549 0.0
C332 C 0.10069 0.03063 0.2637 0.0
C333 C 0.10179 0.02477 0.27475 0.0
C334 C 0.08401 0.01079 0.25426 0.0
C335 C 0.09192 0.02351 0.25331 0.0
C336 C 0.08504 1.00506 0.26522 0.0
C337 C 0.09191 0.96808 0.31774 0.0
C338 C 0.07703 0.94839 0.30509 0.0
C339 C 0.08423 0.94701 0.32647 0.0
C340 C 0.09138 0.96068 0.3278 0.0
C341 C 0.07744 0.94055 0.31505 0.0
C342 C 0.08427 0.96213 0.30642 0.0
C343 C 0.10222 0.98034 0.31897 0.0
O344 O 0.12937 1.00526 0.30631 0.0
O345 O 0.12317 0.01945 0.3179 0.0
O346 O 0.1 0.993 0.32055 0.0
O347 O 0.10927 0.9795 0.31151 0.0
H348 H 0.13232 1.00133 0.33468 0.0
H349 H 0.15022 0.99651 0.34917 0.0
H350 H 0.17478 0.0216 0.33087 0.0
H351 H 0.15686 0.02687 0.31687 0.0
H352 H 0.10692 0.04044 0.26318 0.0
H353 H 0.1088 0.03015 0.28258 0.0
H354 H 0.07707 1.00517 0.24647 0.0
H355 H 0.07893 0.9951 0.26563 0.0
H356 H 0.07191 0.94353 0.29619 0.0
H357 H 0.08469 0.94109 0.33425 0.0
H358 H 0.09725 0.96505 0.33658 0.0
H359 H 0.08461 0.96767 0.29852 0.0
C360 C 0.33148 0.97999 0.60109 0.0
C361 C 0.34226 0.98121 0.61039 0.0
C362 C 0.32976 0.97276 0.62421 0.0
C363 C 0.3414 0.97769 0.62185 0.0
C364 C 0.31897 0.97184 0.61494 0.0
C365 C 0.31983 0.97546 0.60347 0.0
U366 U 0.35145 0.9854 0.57906 0.0
O367 O 0.3492 0.97478 0.56116 0.0
O368 O 0.35129 0.99782 0.56345 0.0
C369 C 0.34962 0.98654 0.55595 0.0
C370 C 0.33242 0.9822 0.58872 0.0
C371 C 0.3411 0.98575 0.54399 0.0
C372 C 0.32148 0.97616 0.52939 0.0
C373 C 0.32864 0.97852 0.54133 0.0
C374 C 0.33908 0.98859 0.52281 0.0
C375 C 0.32672 0.9809 0.51994 0.0
C376 C 0.34614 0.99102 0.53469 0.0
C377 C 0.3862 0.98604 0.59305 0.0
C378 C 0.40105 0.97783 0.58371 0.0
C379 C 0.40733 0.98747 0.60459 0.0
C380 C 0.39549 0.99006 0.60373 0.0
C381 C 0.41013 0.98079 0.59473 0.0
C382 C 0.38915 0.98039 0.58288 0.0
C383 C 0.3733 0.98592 0.59339 0.0
O384 O 0.33865 0.99464 0.58723 0.0
O385 O 0.33538 0.97173 0.58318 0.0
O386 O 0.36519 0.97425 0.58863 0.0
O387 O 0.36913 0.99741 0.59092 0.0
H388 H 0.35135 0.98452 0.60869 0.0
H389 H 0.34988 0.97837 0.62876 0.0
H390 H 0.30988 0.96819 0.61652 0.0
H391 H 0.31142 0.9744 0.5964 0.0
H392 H 0.31194 0.97042 0.52755 0.0
H393 H 0.32457 0.97435 0.54841 0.0
H394 H 0.34354 0.99224 0.51584 0.0
H395 H 0.35578 0.9965 0.53656 0.0
H396 H 0.40295 0.97291 0.57588 0.0
H397 H 0.41395 0.98976 0.61326 0.0
H398 H 0.39337 0.99439 0.61167 0.0
H399 H 0.3821 0.97727 0.57451 0.0
C400 C 0.32915 0.01945 0.89932 0.0
C401 C 0.33493 0.02732 0.91047 0.0
C402 C 0.31948 0.04203 0.90714 0.0
C403 C 0.33008 0.03839 0.9144 0.0
C404 C 0.3135 0.03371 0.89618 0.0
C405 C 0.31827 0.02254 0.89235 0.0
U406 U 0.3584 0.00723 0.8978 0.0
O407 O 0.36237 0.98622 0.89444 0.0
O408 O 0.36577 1.00254 0.88235 0.0
C409 C 0.36572 0.98939 0.88452 0.0
C410 C 0.33512 0.00924 0.89422 0.0
C411 C 0.36107 0.97888 0.87387 0.0
C412 C 0.3448 0.96169 0.85975 0.0
C413 C 0.34877 0.971 0.87035 0.0
C414 C 0.36532 0.96807 0.85621 0.0
C415 C 0.35303 0.96035 0.85251 0.0
C416 C 0.3693 0.97717 0.86679 0.0
C417 C 0.387 0.03294 0.92041 0.0
C418 C 0.40893 0.04012 0.92096 0.0
C419 C 0.39997 0.05288 0.93405 0.0
C420 C 0.38855 0.04361 0.92959 0.0
C421 C 0.4103 0.05162 0.92956 0.0
C422 C 0.39732 0.03096 0.9163 0.0
C423 C 0.37418 0.02595 0.91426 0.0
O424 O 0.34238 0.01469 0.8875 0.0
O425 O 0.34002 1.00077 0.90159 0.0
O426 O 0.36967 0.01312 0.91655 0.0
O427 O 0.37029 0.02832 0.90302 0.0
H428 H 0.3434 0.0252 0.91598 0.0
H429 H 0.33481 0.04427 0.92301 0.0
H430 H 0.30546 0.03619 0.89022 0.0
H431 H 0.31375 0.01668 0.88366 0.0
H432 H 0.33525 0.95587 0.85702 0.0
H433 H 0.34224 0.9722 0.87566 0.0
H434 H 0.37184 0.96716 0.85082 0.0
H435 H 0.37881 0.9831 0.86935 0.0
H436 H 0.41667 0.0385 0.91746 0.0
H437 H 0.40035 0.06162 0.94043 0.0
H438 H 0.38065 0.04539 0.93279 0.0
H439 H 0.39629 0.02277 0.90916 0.0
C440 C 0.1817 0.23166 0.06629 0.0
C441 C 0.17485 0.22599 0.07428 0.0
C442 C 0.1602 0.24113 0.06816 0.0
C443 C 0.1642 0.23071 0.07523 0.0
C444 C 0.16738 0.24715 0.06052 0.0
C445 C 0.17805 0.24244 0.0596 0.0
U446 U 0.20129 0.20417 0.07211 0.0
O447 O 0.2067 0.19036 0.05957 0.0
O448 O 0.22111 0.20523 0.07303 0.0
C449 C 0.2186 0.19595 0.06359 0.0
C450 C 0.19196 0.22556 0.06411 0.0
C451 C 0.22524 0.19962 0.05424 0.0
C452 C 0.22669 0.21015 0.03573 0.0
C453 C 0.22132 0.20849 0.04552 0.0
C454 C 0.24032 0.19466 0.04362 0.0
C455 C 0.23601 0.2029 0.03449 0.0
C456 C 0.23496 0.19301 0.05337 0.0
C457 C 0.19183 0.17815 0.09489 0.0
C458 C 0.19186 0.15323 0.09619 0.0
C459 C 0.18493 0.16621 0.11089 0.0
C460 C 0.18752 0.17846 0.10532 0.0
C461 C 0.18667 0.1533 0.1062 0.0
C462 C 0.19437 0.16557 0.09053 0.0
C463 C 0.19174 0.19049 0.088 0.0
O464 O 0.2017 0.22698 0.07327 0.0
O465 O 0.18848 0.21279 0.05846 0.0
O466 O 0.18702 0.18789 0.07635 0.0
O467 O 0.2015 0.20099 0.09104 0.0
H468 H 0.17749 0.21757 0.07946 0.0
H469 H 0.15878 0.22574 0.08108 0.0
H470 H 0.16459 0.25526 0.05504 0.0
H471 H 0.18324 0.24691 0.05338 0.0
H472 H 0.22315 0.21656 0.02885 0.0
H473 H 0.21381 0.21368 0.04606 0.0
H474 H 0.24766 0.18919 0.0431 0.0
H475 H 0.23813 0.18617 0.06003 0.0
H476 H 0.19351 0.14356 0.09243 0.0
H477 H 0.18074 0.16675 0.1184 0.0
H478 H 0.18541 0.18804 0.10875 0.0
H479 H 0.19773 0.16512 0.08248 0.0
C480 C 0.73106 0.38447 0.89639 0.0
C481 C 0.72211 0.38725 0.88663 0.0
C482 C 0.71062 0.3629 0.88443 0.0
C483 C 0.712 0.37658 0.8807 0.0
C484 C 0.71992 0.35997 0.89383 0.0
C485 C 0.73004 0.37071 0.89981 0.0
U486 U 0.74464 0.42346 0.90201 0.0
O487 O 0.75043 0.43807 0.91846 0.0
O488 O 0.76385 0.43608 0.90777 0.0
C489 C 0.76189 0.44202 0.91748 0.0
C490 C 0.74076 0.39616 0.90357 0.0
C491 C 0.77175 0.4438 0.9287 0.0
C492 C 0.78044 0.43684 0.94838 0.0
C493 C 0.77195 0.43375 0.93707 0.0
C494 C 0.78884 0.45977 0.94288 0.0
C495 C 0.78876 0.45005 0.95152 0.0
C496 C 0.78043 0.45666 0.9316 0.0
C497 C 0.7265 0.44507 0.87928 0.0
C498 C 0.72242 0.4686 0.88157 0.0
C499 C 0.71628 0.45532 0.86194 0.0
C500 C 0.72117 0.44423 0.86692 0.0
C501 C 0.71657 0.46748 0.86924 0.0
C502 C 0.72742 0.45748 0.88656 0.0
C503 C 0.72956 0.43222 0.88435 0.0
O504 O 0.7487 0.40272 0.89792 0.0
O505 O 0.73661 0.40486 0.90993 0.0
O506 O 0.72706 0.42981 0.89475 0.0
O507 O 0.74008 0.4291 0.88336 0.0
H508 H 0.72272 0.39781 0.88384 0.0
H509 H 0.70506 0.37911 0.87339 0.0
H510 H 0.71907 0.34956 0.89694 0.0
H511 H 0.73685 0.36838 0.90735 0.0
H512 H 0.78009 0.42914 0.95486 0.0
H513 H 0.76529 0.42377 0.93502 0.0
H514 H 0.79524 0.46993 0.94491 0.0
H515 H 0.78041 0.46456 0.92527 0.0
H516 H 0.72282 0.47789 0.88738 0.0
H517 H 0.71168 0.45405 0.85245 0.0
H518 H 0.72028 0.4347 0.86118 0.0
H519 H 0.73153 0.45835 0.89614 0.0
C520 C 0.82838 0.42455 0.20669 0.0
C521 C 0.83527 0.42211 0.19839 0.0
C522 C 0.82407 0.43592 0.18436 0.0
C523 C 0.83307 0.42769 0.18725 0.0
C524 C 0.81683 0.43776 0.19244 0.0
C525 C 0.81892 0.43205 0.20348 0.0
U526 U 0.84902 0.40898 0.23154 0.0
O527 O 0.85827 0.41775 0.25011 0.0
O528 O 0.84483 0.39746 0.24671 0.0
C529 C 0.85225 0.40739 0.25481 0.0
C530 C 0.83177 0.42075 0.21911 0.0
C531 C 0.84776 0.41147 0.26527 0.0
C532 C 0.84067 0.42846 0.27681 0.0
C533 C 0.84283 0.42359 0.26596 0.0
C534 C 0.84759 0.40869 0.28616 0.0
C535 C 0.84327 0.42119 0.28707 0.0
C536 C 0.84987 0.40393 0.27538 0.0
C537 C 0.87529 0.39398 0.22173 0.0
C538 C 0.89734 0.39591 0.23064 0.0
C539 C 0.88741 0.38173 0.21169 0.0
C540 C 0.87603 0.3848 0.21228 0.0
C541 C 0.89828 0.3878 0.22056 0.0
C542 C 0.88591 0.39904 0.23121 0.0
C543 C 0.86408 0.39995 0.22021 0.0
O544 O 0.82991 0.40722 0.22054 0.0
O545 O 0.84253 0.42794 0.22564 0.0
O546 O 0.86571 0.41309 0.22469 0.0
O547 O 0.85381 0.39179 0.22142 0.0
H548 H 0.84268 0.41643 0.20073 0.0
H549 H 0.83887 0.42629 0.18121 0.0
H550 H 0.80986 0.44408 0.1904 0.0
H551 H 0.81352 0.43405 0.20976 0.0
H552 H 0.8373 0.43811 0.27729 0.0
H553 H 0.84113 0.4296 0.25827 0.0
H554 H 0.84981 0.40299 0.29396 0.0
H555 H 0.85379 0.39464 0.27509 0.0
H556 H 0.90558 0.40072 0.2376 0.0
H557 H 0.88785 0.37531 0.20389 0.0
H558 H 0.86797 0.38077 0.20489 0.0
H559 H 0.88555 0.40614 0.23863 0.0
C560 C 0.78168 0.63138 0.42609 0.0
C561 C 0.79391 0.63108 0.42576 0.0
C562 C 0.78764 0.60623 0.4178 0.0
C563 C 0.79689 0.61866 0.42182 0.0
C564 C 0.77522 0.60695 0.41733 0.0
C565 C 0.7723 0.61935 0.42156 0.0
U566 U 0.79197 0.66966 0.43832 0.0
O567 O 0.78213 0.68676 0.44054 0.0
O568 O 0.79393 0.67997 0.45628 0.0
C569 C 0.78654 0.68848 0.45229 0.0
C570 C 0.77903 0.64373 0.4322 0.0
C571 C 0.77824 0.69124 0.45983 0.0
C572 C 0.76114 0.68394 0.46915 0.0
C573 C 0.76794 0.68114 0.46087 0.0
C574 C 0.77477 0.70696 0.47521 0.0
C575 C 0.76461 0.69682 0.47659 0.0
C576 C 0.78145 0.70419 0.46692 0.0
C577 C 0.82358 0.68769 0.4327 0.0
C578 C 0.83953 0.70667 0.44505 0.0
C579 C 0.8425 0.69647 0.42657 0.0
C580 C 0.83083 0.68751 0.42441 0.0
C581 C 0.8472 0.70588 0.4371 0.0
C582 C 0.82781 0.69762 0.44288 0.0
C583 C 0.81257 0.67624 0.43123 0.0
O584 O 0.78656 0.64806 0.44286 0.0
O585 O 0.77698 0.65416 0.42567 0.0
O586 O 0.80191 0.67844 0.42506 0.0
O587 O 0.81173 0.66972 0.44083 0.0
H588 H 0.80131 0.64029 0.42914 0.0
H589 H 0.80658 0.61876 0.42255 0.0
H590 H 0.76771 0.59787 0.41396 0.0
H591 H 0.76277 0.6194 0.42161 0.0
H592 H 0.75327 0.67594 0.46982 0.0
H593 H 0.76534 0.67104 0.45549 0.0
H594 H 0.77792 0.71686 0.48087 0.0
H595 H 0.78944 0.71208 0.46631 0.0
H596 H 0.84278 0.7139 0.45316 0.0
H597 H 0.84814 0.69531 0.42033 0.0
H598 H 0.82775 0.67986 0.41655 0.0
H599 H 0.82231 0.69793 0.44939 0.0
C600 C 0.82928 0.51829 0.40061 0.0
C601 C 0.83681 0.52969 0.40866 0.0
C602 C 0.81932 0.54123 0.40684 0.0
C603 C 0.83188 0.54106 0.41174 0.0
C604 C 0.81161 0.52932 0.3995 0.0
C605 C 0.81658 0.51796 0.39635 0.0
U606 U 0.85841 0.50655 0.39851 0.0
O607 O 0.86279 0.48571 0.39515 0.0
O608 O 0.86552 0.50202 0.3829 0.0
C609 C 0.86594 0.48898 0.38516 0.0
C610 C 0.83502 0.50792 0.39542 0.0
C611 C 0.86148 0.47838 0.37459 0.0
C612 C 0.84599 0.46751 0.35629 0.0
C613 C 0.84918 0.47558 0.36751 0.0
C614 C 0.86718 0.46452 0.35945 0.0
C615 C 0.85511 0.46234 0.35202 0.0
C616 C 0.87031 0.4724 0.37063 0.0
C617 C 0.88692 0.5331 0.42053 0.0
C618 C 0.90889 0.54007 0.4212 0.0
C619 C 0.89981 0.55345 0.43374 0.0
C620 C 0.88838 0.54415 0.42936 0.0
C621 C 0.91021 0.55184 0.42951 0.0
C622 C 0.89729 0.53085 0.41663 0.0
C623 C 0.87413 0.52575 0.4146 0.0
O624 O 0.84192 0.51321 0.38833 0.0
O625 O 0.84033 0.49983 0.4029 0.0
O626 O 0.86999 0.51289 0.41708 0.0
O627 O 0.86992 0.5279 0.40335 0.0
H628 H 0.84664 0.53015 0.41206 0.0
H629 H 0.83801 0.55 0.41756 0.0
H630 H 0.80191 0.52916 0.39558 0.0
H631 H 0.81064 0.50927 0.3901 0.0
H632 H 0.83665 0.46606 0.35066 0.0
H633 H 0.84224 0.4802 0.37037 0.0
H634 H 0.87437 0.4607 0.35632 0.0
H635 H 0.87985 0.4745 0.3759 0.0
H636 H 0.91669 0.53824 0.41789 0.0
H637 H 0.90016 0.56241 0.43987 0.0
H638 H 0.88044 0.54613 0.43238 0.0
H639 H 0.89631 0.52237 0.40977 0.0
C640 C 0.64312 0.51327 0.82498 0.0
C641 C 0.64109 0.50345 0.83323 0.0
C642 C 0.66337 0.50728 0.842 0.0
C643 C 0.65111 0.50051 0.84169 0.0
C644 C 0.66531 0.51754 0.83403 0.0
C645 C 0.65526 0.52049 0.82559 0.0
U646 U 0.61016 0.49974 0.80692 0.0
O647 O 0.59581 0.51027 0.797 0.0
O648 O 0.60237 0.49418 0.78761 0.0
C649 C 0.59535 0.50354 0.78663 0.0
C650 C 0.63284 0.51478 0.81494 0.0
C651 C 0.59549 0.51185 0.77629 0.0
C652 C 0.60632 0.52196 0.76181 0.0
C653 C 0.60661 0.5171 0.7731 0.0
C654 C 0.58385 0.51755 0.75722 0.0
C655 C 0.59491 0.52174 0.75362 0.0
C656 C 0.58415 0.51257 0.76847 0.0
C657 C 0.59357 0.46613 0.81832 0.0
C658 C 0.57643 0.44782 0.80673 0.0
C659 C 0.58778 0.44407 0.82652 0.0
C660 C 0.59512 0.45758 0.82773 0.0
C661 C 0.57854 0.43879 0.81587 0.0
C662 C 0.58397 0.46139 0.80791 0.0
C663 C 0.6034 0.47868 0.81901 0.0
O664 O 0.62972 0.50447 0.80624 0.0
O665 O 0.62319 0.51824 0.81788 0.0
O666 O 0.60083 0.49114 0.82068 0.0
O667 O 0.61008 0.47805 0.81118 0.0
H668 H 0.63179 0.49763 0.83281 0.0
H669 H 0.64928 0.49241 0.84756 0.0
H670 H 0.67462 0.52304 0.83412 0.0
H671 H 0.65701 0.52805 0.81926 0.0
H672 H 0.61497 0.52525 0.75924 0.0
H673 H 0.61547 0.51665 0.77901 0.0
H674 H 0.57495 0.51721 0.75105 0.0
H675 H 0.57547 0.50848 0.77076 0.0
H676 H 0.5693 0.44425 0.79849 0.0
H677 H 0.58999 0.43749 0.83369 0.0
H678 H 0.60259 0.46102 0.83576 0.0
H679 H 0.5827 0.46787 0.80051 0.0
C680 C 0.51939 0.6932 0.57262 0.0
C681 C 0.527 0.68787 0.5663 0.0
C682 C 0.52525 0.66665 0.57675 0.0
C683 C 0.52985 0.6747 0.5683 0.0
C684 C 0.51697 0.67162 0.58246 0.0
C685 C 0.51411 0.68483 0.58044 0.0
U686 U 0.53424 0.72931 0.56736 0.0
O687 O 0.5276 0.74834 0.56148 0.0
O688 O 0.5405 0.74909 0.5792 0.0
C689 C 0.53402 0.75604 0.57154 0.0
C690 C 0.51881 0.70822 0.57267 0.0
C691 C 0.52828 0.76625 0.5768 0.0
C692 C 0.51339 0.7725 0.58716 0.0
C693 C 0.51765 0.76228 0.58114 0.0
C694 C 0.53032 0.79052 0.58443 0.0
C695 C 0.51981 0.78675 0.58905 0.0
C696 C 0.53442 0.78041 0.57833 0.0
C697 C 0.56441 0.73087 0.55736 0.0
C698 C 0.58272 0.74984 0.56384 0.0
C699 C 0.58331 0.72909 0.55157 0.0
C700 C 0.57087 0.72357 0.5511 0.0
C701 C 0.58951 0.74198 0.55841 0.0
C702 C 0.57021 0.74435 0.56327 0.0
C703 C 0.5527 0.72325 0.55947 0.0
O704 O 0.52791 0.71643 0.58077 0.0
O705 O 0.51674 0.71324 0.56212 0.0
O706 O 0.54232 0.7248 0.55221 0.0
O707 O 0.5524 0.72373 0.57082 0.0
H708 H 0.5313 0.69423 0.56031 0.0
H709 H 0.53612 0.67108 0.56363 0.0
H710 H 0.51335 0.66576 0.58909 0.0
H711 H 0.50835 0.68884 0.58552 0.0
H712 H 0.50517 0.76919 0.59043 0.0
H713 H 0.51282 0.75133 0.58007 0.0
H714 H 0.53575 0.80122 0.5859 0.0
H715 H 0.54271 0.78363 0.57514 0.0
H716 H 0.58726 0.75985 0.56907 0.0
H717 H 0.58833 0.72275 0.54737 0.0
H718 H 0.56655 0.71313 0.54656 0.0
H719 H 0.56533 0.75016 0.56814 0.0
C720 C 0.56374 0.32899 0.82811 0.0
C721 C 0.5752 0.33829 0.8292 0.0
C722 C 0.56456 0.35666 0.82164 0.0
C723 C 0.5756 0.35206 0.82603 0.0
C724 C 0.55314 0.34706 0.81967 0.0
C725 C 0.55273 0.33328 0.8229 0.0
U726 U 0.58012 0.30235 0.84434 0.0
O727 O 0.57997 0.2951 0.86205 0.0
O728 O 0.57407 0.27964 0.84612 0.0
C729 C 0.5755 0.28182 0.8578 0.0
C730 C 0.56317 0.31588 0.8341 0.0
C731 C 0.56565 0.2743 0.863 0.0
C732 C 0.54676 0.27345 0.86973 0.0
C733 C 0.55481 0.27928 0.86283 0.0
C734 C 0.55993 0.25714 0.87654 0.0
C735 C 0.54945 0.26263 0.87701 0.0
C736 C 0.56795 0.26295 0.86962 0.0
C737 C 0.61588 0.3104 0.84758 0.0
C738 C 0.63329 0.31346 0.86513 0.0
C739 C 0.63707 0.31662 0.84548 0.0
C740 C 0.62427 0.31303 0.8403 0.0
C741 C 0.6416 0.31767 0.858 0.0
C742 C 0.6205 0.30975 0.85995 0.0
C743 C 0.60296 0.31173 0.84266 0.0
O744 O 0.56562 0.30503 0.82852 0.0
O745 O 0.56871 0.31786 0.84561 0.0
O746 O 0.59785 0.31749 0.85024 0.0
O747 O 0.59526 0.30125 0.83533 0.0
H748 H 0.58381 0.33521 0.83324 0.0
H749 H 0.5845 0.35939 0.82776 0.0
H750 H 0.54453 0.3505 0.81645 0.0
H751 H 0.5438 0.32629 0.82205 0.0
H752 H 0.53863 0.27775 0.8697 0.0
H753 H 0.55286 0.28804 0.85778 0.0
H754 H 0.56236 0.24891 0.88205 0.0
H755 H 0.57631 0.25902 0.86992 0.0
H756 H 0.63659 0.31437 0.87483 0.0
H757 H 0.64331 0.32003 0.83984 0.0
H758 H 0.62092 0.31363 0.83075 0.0
H759 H 0.61423 0.3077 0.86576 0.0
C760 C 0.9779 0.38947 0.18418 0.0
C761 C 0.97358 0.40205 0.18419 0.0
C762 C 0.95932 0.39248 0.19611 0.0
C763 C 0.96442 0.40356 0.19014 0.0
C764 C 0.96443 0.38038 0.19696 0.0
C765 C 0.97362 0.37886 0.19097 0.0
U766 U 0.98802 0.3996 0.15661 0.0
O767 O 1.00436 0.39827 0.14961 0.0
O768 O 0.98567 0.38735 0.13937 0.0
C769 C 0.99763 0.38986 0.14005 0.0
C770 C 0.98492 0.38651 0.17541 0.0
C771 C 1.00239 0.37768 0.13644 0.0
C772 C 0.00823 0.3551 0.13968 0.0
C773 C 1.00455 0.36698 0.14394 0.0
C774 C 0.00757 0.36457 0.12049 0.0
C775 C 0.0096 0.35377 0.12786 0.0
C776 C 1.00405 0.37643 0.12477 0.0
C777 C 0.97552 0.43299 0.14601 0.0
C778 C 0.97283 0.44232 0.12657 0.0
C779 C 0.96295 0.45043 0.14134 0.0
C780 C 0.9683 0.44184 0.1494 0.0
C781 C 0.96482 0.45056 0.12966 0.0
C782 C 0.97804 0.43348 0.13465 0.0
C783 C 0.97868 0.42227 0.15403 0.0
O784 O 0.97786 0.38247 0.16452 0.0
O785 O 0.995 0.396 0.17556 0.0
O786 O 0.99044 0.42279 0.1591 0.0
O787 O 0.97214 0.40941 0.1505 0.0
H788 H 0.97669 0.41035 0.17895 0.0
H789 H 0.96078 0.41308 0.18946 0.0
H790 H 0.96067 0.37165 0.20145 0.0
H791 H 0.97678 0.36904 0.19098 0.0
H792 H 0.00979 0.34686 0.14549 0.0
H793 H 1.00323 0.36772 0.15296 0.0
H794 H 0.00866 0.36377 0.11139 0.0
H795 H 1.00239 0.38457 0.11885 0.0
H796 H 0.97474 0.44231 0.11778 0.0
H797 H 0.95669 0.45624 0.14411 0.0
H798 H 0.96617 0.4415 0.15811 0.0
H799 H 0.9836 0.42666 0.13189 0.0
C800 C 0.93903 0.70179 0.45747 0.0
C801 C 0.93047 0.69526 0.46355 0.0
C802 C 0.91849 0.7134 0.45918 0.0
C803 C 0.92033 0.70096 0.4644 0.0
C804 C 0.92745 0.72038 0.45357 0.0
C805 C 0.93769 0.7146 0.45272 0.0
U806 U 0.96826 0.69365 0.44762 0.0
O807 O 0.97129 0.70866 0.43444 0.0
O808 O 0.98353 0.71255 0.45268 0.0
C809 C 0.9813 0.71651 0.44175 0.0
C810 C 0.94804 0.69376 0.45498 0.0
C811 C 0.99206 0.72059 0.43656 0.0
C812 C 0.00752 0.73938 0.43221 0.0
C813 C 0.99831 0.73476 0.43821 0.0
C814 C 1.00468 0.71559 0.42304 0.0
C815 C 0.01064 0.72992 0.42437 0.0
C816 C 0.9955 0.71094 0.42915 0.0
C817 C 0.96847 0.65464 0.44696 0.0
C818 C 0.96755 0.62944 0.44452 0.0
C819 C 0.95141 0.63804 0.45134 0.0
C820 C 0.95742 0.65193 0.45077 0.0
C821 C 0.95632 0.62661 0.44806 0.0
C822 C 0.97357 0.64333 0.44399 0.0
C823 C 0.97429 0.6691 0.44531 0.0
O824 O 0.95915 0.69623 0.46238 0.0
O825 O 0.94805 0.69128 0.44365 0.0
O826 O 0.96796 0.67461 0.43634 0.0
O827 O 0.97871 0.6779 0.45513 0.0
H828 H 0.93126 0.68527 0.46712 0.0
H829 H 0.9135 0.69509 0.46851 0.0
H830 H 0.92629 0.73 0.44949 0.0
H831 H 0.94421 0.71976 0.44794 0.0
H832 H 0.01186 0.7505 0.43335 0.0
H833 H 0.99577 0.74238 0.44384 0.0
H834 H 0.007 0.70804 0.41718 0.0
H835 H 0.99082 0.69992 0.4278 0.0
H836 H 0.97163 0.62089 0.44205 0.0
H837 H 0.94269 0.63624 0.45394 0.0
H838 H 0.9533 0.66054 0.45302 0.0
H839 H 0.98208 0.64524 0.44102 0.0
C840 C 0.55605 0.58093 0.62145 0.0
C841 C 0.5609 0.58635 0.61205 0.0
C842 C 0.54402 0.59882 0.60643 0.0
C843 C 0.55491 0.59515 0.60457 0.0
C844 C 0.53905 0.59298 0.61568 0.0
C845 C 0.545 0.58412 0.62309 0.0
U846 U 0.58543 0.56808 0.63423 0.0
O847 O 0.59637 0.5693 0.65283 0.0
O848 O 0.58861 0.54861 0.64238 0.0
C849 C 0.59482 0.55554 0.65282 0.0
C850 C 0.56297 0.57301 0.63021 0.0
C851 C 0.59187 0.54985 0.66364 0.0
C852 C 0.57899 0.54651 0.67789 0.0
C853 C 0.58074 0.55054 0.66676 0.0
C854 C 0.59937 0.54092 0.68267 0.0
C855 C 0.5884 0.5419 0.68611 0.0
C856 C 0.60102 0.54476 0.67155 0.0
C857 C 0.61209 0.57943 0.61854 0.0
C858 C 0.63438 0.58611 0.62723 0.0
C859 C 0.62612 0.58619 0.60582 0.0
C860 C 0.61413 0.58139 0.60715 0.0
C861 C 0.63635 0.58916 0.6159 0.0
C862 C 0.62232 0.58127 0.62854 0.0
C863 C 0.5993 0.57774 0.61985 0.0
O864 O 0.56537 0.56139 0.62583 0.0
O865 O 0.57257 0.58086 0.63804 0.0
O866 O 0.59792 0.58544 0.62895 0.0
O867 O 0.5924 0.56489 0.61809 0.0
H868 H 0.56948 0.58405 0.61068 0.0
H869 H 0.55892 0.59924 0.59745 0.0
H870 H 0.53081 0.5957 0.61754 0.0
H871 H 0.54119 0.58012 0.63036 0.0
H872 H 0.57034 0.5472 0.68011 0.0
H873 H 0.57357 0.5545 0.66074 0.0
H874 H 0.60697 0.53774 0.68874 0.0
H875 H 0.60971 0.54427 0.66932 0.0
H876 H 0.64208 0.58812 0.63515 0.0
H877 H 0.62721 0.58859 0.59699 0.0
H878 H 0.60635 0.58011 0.59934 0.0
H879 H 0.62093 0.57975 0.63744 0.0
C880 C 0.84355 0.48021 0.10699 0.0
C881 C 0.84954 0.48302 0.11923 0.0
C882 C 0.83125 0.46993 0.12449 0.0
C883 C 0.84347 0.47796 0.1279 0.0
C884 C 0.82492 0.46796 0.11223 0.0
C885 C 0.83104 0.47309 0.10351 0.0
U886 U 0.85274 0.48495 0.07607 0.0
O887 O 0.8366 0.47265 0.06259 0.0
O888 O 0.83974 0.49578 0.0645 0.0
C889 C 0.83311 0.48391 0.0583 0.0
C890 C 0.85135 0.48269 0.09839 0.0
C891 C 0.82997 0.48369 0.04508 0.0
C892 C 0.81486 0.48574 0.02677 0.0
C893 C 0.81886 0.48733 0.0393 0.0
C894 C 0.83324 0.47717 0.02552 0.0
C895 C 0.82188 0.48041 0.01972 0.0
C896 C 0.83729 0.47886 0.03811 0.0
C897 C 0.88713 0.48663 0.07969 0.0
C898 C 0.9086 0.48505 0.08152 0.0
C899 C 0.90033 0.48437 0.09914 0.0
C900 C 0.88883 0.48571 0.09208 0.0
C901 C 0.91031 0.48386 0.09391 0.0
C902 C 0.8971 0.48644 0.07448 0.0
C903 C 0.87483 0.48691 0.07202 0.0
O904 O 0.85269 0.49487 0.09382 0.0
O905 O 0.85072 0.4719 0.09076 0.0
O906 O 0.86662 0.47497 0.07056 0.0
O907 O 0.8703 0.49798 0.07415 0.0
H908 H 0.85923 0.48834 0.12209 0.0
H909 H 0.84867 0.47949 0.13722 0.0
H910 H 0.81547 0.46189 0.10937 0.0
H911 H 0.82626 0.4708 0.09408 0.0
H912 H 0.80601 0.48818 0.02261 0.0
H913 H 0.81306 0.491 0.04451 0.0
H914 H 0.8389 0.47318 0.02033 0.0
H915 H 0.84594 0.47604 0.0424 0.0
H916 H 0.91612 0.4848 0.07724 0.0
H917 H 0.90129 0.48327 0.10862 0.0
H918 H 0.88119 0.48571 0.09625 0.0
H919 H 0.89594 0.4871 0.06491 0.0
C920 C 0.68266 0.73232 0.56568 0.0
C921 C 0.67404 0.72555 0.5717 0.0
C922 C 0.6604 0.74145 0.56461 0.0
C923 C 0.66299 0.73014 0.57121 0.0
C924 C 0.66942 0.74876 0.55931 0.0
C925 C 0.68049 0.74424 0.55988 0.0
U926 U 0.70182 0.70432 0.572 0.0
O927 O 0.70714 0.69039 0.55949 0.0
O928 O 0.72166 0.70505 0.57304 0.0
C929 C 0.71907 0.69572 0.56361 0.0
C930 C 0.693 0.72602 0.56402 0.0
C931 C 0.72603 0.69883 0.55436 0.0
C932 C 0.72717 0.70631 0.53464 0.0
C933 C 0.72177 0.7061 0.54448 0.0
C934 C 0.74158 0.69281 0.54485 0.0
C935 C 0.73679 0.69911 0.53454 0.0
C936 C 0.73625 0.69266 0.55463 0.0
C937 C 0.69032 0.67888 0.59476 0.0
C938 C 0.69135 0.65465 0.59851 0.0
C939 C 0.68041 0.66761 0.60938 0.0
C940 C 0.68356 0.67938 0.60344 0.0
C941 C 0.68406 0.65497 0.6069 0.0
C942 C 0.69442 0.66653 0.59244 0.0
C943 C 0.69144 0.6909 0.58752 0.0
O944 O 0.70244 0.7272 0.57343 0.0
O945 O 0.68955 0.71334 0.55821 0.0
O946 O 0.68717 0.68814 0.57583 0.0
O947 O 0.70151 0.70098 0.5908 0.0
H948 H 0.67555 0.71627 0.57619 0.0
H949 H 0.65611 0.72426 0.57527 0.0
H950 H 0.66762 0.75753 0.55421 0.0
H951 H 0.68705 0.7496 0.55522 0.0
H952 H 0.72332 0.71129 0.52684 0.0
H953 H 0.71389 0.71096 0.5441 0.0
H954 H 0.74913 0.68742 0.54514 0.0
H955 H 0.73969 0.68704 0.56217 0.0
H956 H 0.69441 0.64515 0.59643 0.0
H957 H 0.67453 0.66826 0.61548 0.0
H958 H 0.68017 0.68876 0.60523 0.0
H959 H 0.69961 0.66593 0.5857 0.0
H960 H 0.02534 0.10532 0.09203 0.0
H961 H 0.06262 0.12788 0.10927 0.0
H962 H 0.058 0.14951 0.10138 0.0
H963 H 0.04346 0.16224 0.09008 0.0
H964 H 1.00606 0.14048 0.0726 0.0
H965 H 0.0106 0.11834 0.08004 0.0
C966 C 0.03242 0.11498 0.094 0.0
C967 C 0.04436 0.11496 0.10111 0.0
C968 C 0.02969 0.12751 0.08938 0.0
C969 C 0.05345 0.12756 0.10363 0.0
C970 C 0.0508 0.13996 0.09918 0.0
C971 C 0.03634 0.15262 0.08773 0.0
C972 C 0.02448 0.15298 0.08072 0.0
C973 C 0.03899 0.14006 0.09206 0.0
C974 C 0.01526 0.14048 0.07802 0.0
C975 C 0.01786 0.12783 0.08226 0.0
H976 H 0.1979 0.83787 0.38398 0.0
H977 H 0.19056 0.87491 0.36672 0.0
H978 H 0.16968 0.86233 0.35678 0.0
H979 H 0.153 0.84151 0.35375 0.0
H980 H 0.15908 0.8048 0.37182 0.0
H981 H 0.18086 0.81657 0.38076 0.0
C982 C 0.19174 0.8432 0.37806 0.0
C983 C 0.196 0.85735 0.37605 0.0
C984 C 0.17947 0.83598 0.37254 0.0
C985 C 0.18781 0.86397 0.36825 0.0
C986 C 0.17575 0.85682 0.36262 0.0
C987 C 0.15915 0.83599 0.3595 0.0
C988 C 0.15451 0.82227 0.36203 0.0
C989 C 0.17146 0.84291 0.36477 0.0
C990 C 0.16248 0.81537 0.36974 0.0
C991 C 0.17491 0.82211 0.37484 0.0
H992 H 0.44289 0.87504 0.70505 0.0
H993 H 0.45296 0.92047 0.71087 0.0
H994 H 0.43501 0.92076 0.71919 0.0
H995 H 0.41541 0.90821 0.72292 0.0
H996 H 0.40463 0.86296 0.71572 0.0
H997 H 0.42409 0.86239 0.7101 0.0
C998 C 0.44131 0.88499 0.70838 0.0
C999 C 0.44923 0.89772 0.70735 0.0
C1000 C 0.43085 0.88507 0.71289 0.0
C1001 C 0.44693 0.91054 0.71148 0.0
C1002 C 0.43669 0.91071 0.71626 0.0
C1003 C 0.4175 0.89821 0.72041 0.0
C1004 C 0.4087 0.88563 0.71979 0.0
C1005 C 0.42845 0.89806 0.71676 0.0
C1006 C 0.41133 0.87275 0.71628 0.0
C1007 C 0.4224 0.87245 0.71302 0.0
H1008 H 0.40271 0.21872 0.96902 0.0
H1009 H 0.40822 0.21556 0.93322 0.0
H1010 H 0.38626 0.21457 0.92466 0.0
H1011 H 0.36517 0.21142 0.92724 0.0
H1012 H 0.35927 0.2133 0.96297 0.0
H1013 H 0.38163 0.21889 0.97159 0.0
C1014 C 0.39912 0.21819 0.95937 0.0
C1015 C 0.40708 0.21724 0.95176 0.0
C1016 C 0.38638 0.21746 0.95446 0.0
C1017 C 0.40234 0.21653 0.93927 0.0
C1018 C 0.38974 0.21583 0.93435 0.0
C1019 C 0.36874 0.21314 0.93692 0.0
C1020 C 0.36046 0.21151 0.9444 0.0
C1021 C 0.38162 0.2158 0.94185 0.0
C1022 C 0.36533 0.21438 0.95692 0.0
C1023 C 0.37817 0.21741 0.9619 0.0
H1024 H 0.05227 0.87636 0.31363 0.0
H1025 H 0.09094 0.87371 0.32164 0.0
H1026 H 0.09684 0.89844 0.31895 0.0
H1027 H 0.09156 0.9215 0.31676 0.0
H1028 H 0.05341 0.92522 0.30998 0.0
H1029 H 0.04679 0.89951 0.30999 0.0
C1030 C 0.062 0.88115 0.31482 0.0
C1031 C 0.0711 0.87298 0.31793 0.0
C1032 C 0.06546 0.89567 0.31366 0.0
C1033 C 0.08363 0.87946 0.31908 0.0
C1034 C 0.08708 0.89374 0.31769 0.0
C1035 C 0.08178 0.9166 0.31514 0.0
C1036 C 0.07296 0.92508 0.31346 0.0
C1037 C 0.07815 0.902 0.31533 0.0
C1038 C 0.06032 0.91878 0.3113 0.0
C1039 C 0.05658 0.90414 0.31136 0.0
H1040 H 0.43342 0.99306 0.60847 0.0
H1041 H 0.41279 0.95548 0.58535 0.0
H1042 H 0.42993 0.94378 0.59195 0.0
H1043 H 0.44882 0.94258 0.60708 0.0
H1044 H 0.46924 0.97979 0.63076 0.0
H1045 H 0.45404 0.99307 0.62133 0.0
C1046 C 0.43272 0.98236 0.60476 0.0
C1047 C 0.42167 0.97512 0.59659 0.0
C1048 C 0.44246 0.97545 0.60892 0.0
C1049 C 0.42113 0.9614 0.59163 0.0
C1050 C 0.4309 0.95459 0.59551 0.0
C1051 C 0.45021 0.95371 0.60993 0.0
C1052 C 0.46003 0.96005 0.61983 0.0
C1053 C 0.44135 0.96128 0.60456 0.0
C1054 C 0.4616 0.97451 0.62337 0.0
C1055 C 0.45291 0.98214 0.61797 0.0
H1056 H 0.45204 0.10538 0.93069 0.0
H1057 H 0.4443 0.11473 0.96486 0.0
H1058 H 0.4309 0.09128 0.96287 0.0
H1059 H 0.42018 0.06898 0.95073 0.0
H1060 H 0.42635 0.0609 0.91555 0.0
H1061 H 0.44223 0.08246 0.91909 0.0
C1062 C 0.44762 0.1022 0.93782 0.0
C1063 C 0.44912 0.11185 0.94787 0.0
C1064 C 0.43974 0.08881 0.93651 0.0
C1065 C 0.44317 0.10759 0.95694 0.0
C1066 C 0.43556 0.09416 0.95584 0.0
C1067 C 0.42488 0.0719 0.94374 0.0
C1068 C 0.4217 0.06327 0.93274 0.0
C1069 C 0.43353 0.08481 0.94551 0.0
C1070 C 0.42847 0.0671 0.92414 0.0
C1071 C 0.43749 0.07962 0.92607 0.0
H1072 H 0.14234 0.24375 0.04861 0.0
H1073 H 0.1506 0.24619 0.08731 0.0
H1074 H 0.12943 0.24869 0.08676 0.0
H1075 H 0.10796 0.24726 0.07514 0.0
H1076 H 0.09949 0.24325 0.03645 0.0
H1077 H 0.12144 0.24469 0.0371 0.0
C1078 C 0.13961 0.24518 0.05694 0.0
C1079 C 0.14801 0.2447 0.06798 0.0
C1080 C 0.12737 0.2463 0.05654 0.0
C1081 C 0.14425 0.24635 0.07869 0.0
C1082 C 0.13217 0.24781 0.07838 0.0
C1083 C 0.11102 0.24711 0.06688 0.0
C1084 C 0.1022 0.24518 0.05576 0.0
C1085 C 0.12355 0.24738 0.06734 0.0
C1086 C 0.10617 0.24473 0.04509 0.0
C1087 C 0.11868 0.24548 0.04547 0.0
H1088 H 0.15428 0.10962 0.12997 0.0
H1089 H 0.14427 0.08821 0.09413 0.0
H1090 H 0.16087 0.10477 0.08888 0.0
H1091 H 0.17521 0.12784 0.0933 0.0
H1092 H 0.18617 0.14849 0.12947 0.0
H1093 H 0.17233 0.12945 0.13578 0.0
C1094 C 0.15596 0.1082 0.12114 0.0
C1095 C 0.14769 0.09797 0.11233 0.0
C1096 C 0.16555 0.11778 0.11815 0.0
C1097 C 0.15017 0.09633 0.10097 0.0
C1098 C 0.1597 0.10577 0.09795 0.0
C1099 C 0.17498 0.128 0.10268 0.0
C1100 C 0.18141 0.13993 0.11077 0.0
C1101 C 0.167 0.11699 0.10628 0.0
C1102 C 0.18096 0.13975 0.1229 0.0
C1103 C 0.17306 0.12882 0.12654 0.0
H1104 H 0.16437 0.98237 0.34854 0.0
H1105 H 0.18827 0.02324 0.35006 0.0
H1106 H 0.20629 0.0139 0.35956 0.0
H1107 H 0.21547 0.99346 0.36636 0.0
H1108 H 0.19104 0.95301 0.36474 0.0
H1109 H 0.17301 0.96297 0.35675 0.0
C1110 C 0.17343 0.98942 0.35121 0.0
C1111 C 0.17486 1.0035 0.34846 0.0
C1112 C 0.18373 0.98401 0.35667 0.0
C1113 C 0.18683 0.01228 0.35183 0.0
C1114 C 0.19718 0.00696 0.35733 0.0
C1115 C 0.20617 0.98695 0.36433 0.0
C1116 C 0.2045 0.97252 0.36595 0.0
C1117 C 0.19578 0.99274 0.35958 0.0
C1118 C 0.19246 0.96412 0.36338 0.0
C1119 C 0.18217 0.9698 0.35883 0.0
H1120 H 0.33579 0.95902 0.6782 0.0
H1121 H 0.31 0.92089 0.66096 0.0
H1122 H 0.30872 0.93004 0.64127 0.0
H1123 H 0.31584 0.94849 0.62895 0.0
H1124 H 0.34213 0.98636 0.6463 0.0
H1125 H 0.3423 0.97783 0.66596 0.0
C1126 C 0.32984 0.95282 0.6701 0.0
C1127 C 0.32299 0.93936 0.6709 0.0
C1128 C 0.32929 0.9581 0.65887 0.0
C1129 C 0.31533 0.93129 0.66045 0.0
C1130 C 0.31461 0.93652 0.64924 0.0
C1131 C 0.32146 0.95494 0.63705 0.0
C1132 C 0.32899 0.96803 0.63616 0.0
C1133 C 0.32165 0.94986 0.64833 0.0
C1134 C 0.33635 0.9762 0.64674 0.0
C1135 C 0.33644 0.97134 0.65798 0.0
H1136 H 0.31063 0.10177 0.92309 0.0
H1137 H 0.27276 0.08179 0.90519 0.0
H1138 H 0.27925 0.05991 0.90113 0.0
H1139 H 0.29564 0.0464 0.90265 0.0
H1140 H 0.33373 0.06715 0.91914 0.0
H1141 H 0.32708 0.08859 0.9239 0.0
C1142 C 0.30379 0.09273 0.91812 0.0
C1143 C 0.2912 0.09352 0.91447 0.0
C1144 C 0.30759 0.08019 0.91568 0.0
C1145 C 0.28249 0.08151 0.90827 0.0
C1146 C 0.2862 0.06897 0.9059 0.0
C1147 C 0.30255 0.05562 0.90717 0.0
C1148 C 0.31521 0.05496 0.91054 0.0
C1149 C 0.29873 0.06818 0.90958 0.0
C1150 C 0.3239 0.06706 0.91663 0.0
C1151 C 0.32013 0.07947 0.91925 0.0
H1152 H 0.68728 0.36692 0.88094 0.0
H1153 H 0.70777 0.33486 0.87664 0.0
H1154 H 0.68822 0.31763 0.86811 0.0
H1155 H 0.66499 0.31193 0.86148 0.0
H1156 H 0.64522 0.34441 0.86679 0.0
H1157 H 0.66475 0.36126 0.87518 0.0
C1158 C 0.68749 0.35619 0.87802 0.0
C1159 C 0.69894 0.35223 0.87924 0.0
C1160 C 0.67631 0.34641 0.87331 0.0
C1161 C 0.69905 0.33818 0.87574 0.0
C1162 C 0.68788 0.32835 0.87085 0.0
C1163 C 0.66506 0.32268 0.86458 0.0
C1164 C 0.65376 0.327 0.86363 0.0
C1165 C 0.67642 0.33235 0.86955 0.0
C1166 C 0.65386 0.34091 0.86758 0.0
C1167 C 0.665 0.35054 0.87233 0.0
H1168 H 0.95299 0.38542 0.21713 0.0
H1169 H 0.93894 0.39954 0.18259 0.0
H1170 H 0.91899 0.39899 0.18711 0.0
H1171 H 0.9054 0.39447 0.20057 0.0
H1172 H 0.91881 0.38112 0.23547 0.0
H1173 H 0.93912 0.38138 0.23117 0.0
C1174 C 0.94555 0.3884 0.21065 0.0
C1175 C 0.94752 0.39266 0.19958 0.0
C1176 C 0.93398 0.38813 0.21333 0.0
C1177 C 0.93779 0.3965 0.19126 0.0
C1178 C 0.92632 0.39609 0.19379 0.0
C1179 C 0.91273 0.39145 0.20719 0.0
C1180 C 0.91057 0.38753 0.21822 0.0
C1181 C 0.9243 0.39188 0.20474 0.0
C1182 C 0.92025 0.38407 0.22687 0.0
C1183 C 0.93184 0.38423 0.2244 0.0
H1184 H 0.90379 0.7217 0.43966 0.0
H1185 H 0.90586 0.71425 0.47668 0.0
H1186 H 0.88372 0.71363 0.47352 0.0
H1187 H 0.86338 0.71021 0.45926 0.0
H1188 H 0.86122 0.71797 0.42227 0.0
H1189 H 0.88383 0.72367 0.42648 0.0
C1190 C 0.89952 0.72047 0.44716 0.0
C1191 C 0.90641 0.71762 0.4583 0.0
C1192 C 0.8867 0.71987 0.44523 0.0
C1193 C 0.90069 0.7161 0.46792 0.0
C1194 C 0.88801 0.71571 0.46612 0.0
C1195 C 0.86779 0.71364 0.45218 0.0
C1196 C 0.86055 0.71321 0.44036 0.0
C1197 C 0.88082 0.71679 0.45464 0.0
C1198 C 0.86654 0.71774 0.43137 0.0
C1199 C 0.87949 0.72104 0.43377 0.0
H1200 H 0.92004 0.56932 0.45058 0.0
H1201 H 0.92648 0.56066 0.41561 0.0
H1202 H 0.94252 0.58209 0.41911 0.0
H1203 H 0.95233 0.60512 0.43054 0.0
H1204 H 0.94443 0.61496 0.46454 0.0
H1205 H 0.93096 0.59159 0.46267 0.0
C1206 C 0.92486 0.57208 0.44364 0.0
C1207 C 0.9217 0.56336 0.4327 0.0
C1208 C 0.93363 0.5849 0.4454 0.0
C1209 C 0.92858 0.56696 0.42415 0.0
C1210 C 0.9377 0.5794 0.42606 0.0
C1211 C 0.94787 0.60206 0.43767 0.0
C1212 C 0.94931 0.61185 0.44761 0.0
C1213 C 0.93994 0.58871 0.43643 0.0
C1214 C 0.94333 0.60773 0.4567 0.0
C1215 C 0.93567 0.59434 0.45566 0.0
H1216 H 0.57188 0.422 0.83263 0.0
H1217 H 0.57122 0.42087 0.7949 0.0
H1218 H 0.56535 0.39518 0.79293 0.0
H1219 H 0.56352 0.37277 0.80265 0.0
H1220 H 0.56663 0.37454 0.84078 0.0
H1221 H 0.56901 0.40014 0.84198 0.0
C1222 C 0.57054 0.4162 0.82395 0.0
C1223 C 0.57236 0.42349 0.81403 0.0
C1224 C 0.56791 0.40142 0.82302 0.0
C1225 C 0.56993 0.41568 0.80276 0.0
C1226 C 0.56674 0.4009 0.80164 0.0
C1227 C 0.56458 0.37883 0.81115 0.0
C1228 C 0.56495 0.37193 0.82164 0.0
C1229 C 0.5662 0.39364 0.81181 0.0
C1230 C 0.56634 0.37975 0.83263 0.0
C1231 C 0.56769 0.39435 0.83331 0.0
H1232 H 0.55585 0.62239 0.59852 0.0
H1233 H 0.51923 0.59912 0.59842 0.0
H1234 H 0.51009 0.61771 0.5888 0.0
H1235 H 0.5126 0.64127 0.58136 0.0
H1236 H 0.5493 0.664 0.58121 0.0
H1237 H 0.55818 0.64469 0.58955 0.0
C1238 C 0.54584 0.62116 0.59617 0.0
C1239 C 0.5383 0.60936 0.59935 0.0
C1240 C 0.54061 0.63182 0.59053 0.0
C1241 C 0.52534 0.60819 0.59635 0.0
C1242 C 0.52007 0.6188 0.59077 0.0
C1243 C 0.52253 0.64194 0.5831 0.0
C1244 C 0.53025 0.6541 0.58065 0.0
C1245 C 0.52764 0.63079 0.58802 0.0
C1246 C 0.54309 0.65472 0.58283 0.0
C1247 C 0.54821 0.64372 0.58771 0.0
H1248 H 0.95646 0.47479 0.13313 0.0
H1249 H 0.95572 0.44273 0.10536 0.0
H1250 H 0.93999 0.45161 0.09143 0.0
H1251 H 0.92405 0.46582 0.08802 0.0
H1252 H 0.92322 0.49611 0.11638 0.0
H1253 H 0.94149 0.49007 0.12932 0.0
C1254 C 0.95285 0.46963 0.12406 0.0
C1255 C 0.95718 0.45782 0.12051 0.0
C1256 C 0.94322 0.47423 0.11625 0.0
C1257 C 0.95272 0.45183 0.10849 0.0
C1258 C 0.94353 0.45678 0.1005 0.0
C1259 C 0.92801 0.47131 0.09694 0.0
C1260 C 0.92221 0.48132 0.10126 0.0
C1261 C 0.93837 0.46758 0.10442 0.0
C1262 C 0.92739 0.48821 0.11291 0.0
C1263 C 0.93788 0.48481 0.12029 0.0
H1264 H 0.6044 0.74255 0.54295 0.0
H1265 H 0.60538 0.74971 0.58049 0.0
H1266 H 0.62778 0.75124 0.5859 0.0
H1267 H 0.64669 0.74756 0.58004 0.0
H1268 H 0.64564 0.74097 0.54244 0.0
H1269 H 0.62374 0.74213 0.53697 0.0
C1270 C 0.60958 0.7447 0.55229 0.0
C1271 C 0.60325 0.74589 0.5613 0.0
C1272 C 0.62243 0.74544 0.55534 0.0
C1273 C 0.61006 0.74883 0.57337 0.0
C1274 C 0.62286 0.74956 0.57649 0.0
C1275 C 0.64167 0.74661 0.57067 0.0
C1276 C 0.64769 0.74412 0.56164 0.0
C1277 C 0.62908 0.74741 0.56757 0.0
C1278 C 0.64117 0.74297 0.54952 0.0
C1279 C 0.62865 0.74356 0.54639 0.0
H1280 H 0.65167 0.61132 0.63091 0.0
H1281 H 0.64815 0.58581 0.59799 0.0
H1282 H 0.66438 0.60333 0.59305 0.0
H1283 H 0.67638 0.62778 0.59624 0.0
H1284 H 0.68038 0.65287 0.62956 0.0
H1285 H 0.66719 0.63352 0.63617 0.0
C1286 C 0.65474 0.6093 0.62286 0.0
C1287 C 0.64846 0.59742 0.61468 0.0
C1288 C 0.66395 0.61951 0.61999 0.0
C1289 C 0.6526 0.59505 0.60429 0.0
C1290 C 0.66187 0.60508 0.60144 0.0
C1291 C 0.67476 0.62891 0.60513 0.0
C1292 C 0.67905 0.64202 0.61218 0.0
C1293 C 0.66715 0.61769 0.60893 0.0
C1294 C 0.67683 0.64312 0.62371 0.0
C1295 C 0.66932 0.63202 0.62755 0.0
H1296 H 0.70002 0.47882 0.87812 0.0
H1297 H 0.71735 0.47961 0.84848 0.0
H1298 H 0.70315 0.49347 0.83796 0.0
H1299 H 0.68422 0.50264 0.8361 0.0
H1300 H 0.66638 0.50125 0.86542 0.0
H1301 H 0.68239 0.4904 0.87717 0.0
C1302 C 0.70089 0.48235 0.8695 0.0
C1303 C 0.70966 0.47813 0.86404 0.0
C1304 C 0.69248 0.49001 0.86337 0.0
C1305 C 0.71059 0.48263 0.8528 0.0
C1306 C 0.70246 0.49052 0.84678 0.0
C1307 C 0.68399 0.5003 0.84518 0.0
C1308 C 0.67404 0.50265 0.84982 0.0
C1309 C 0.69311 0.49387 0.8518 0.0
C1310 C 0.67382 0.49934 0.86155 0.0
C1311 C 0.68299 0.49317 0.86829 0.0
H1312 H 0.83093 0.47999 0.14693 0.0
H1313 H 0.82032 0.44204 0.12251 0.0
H1314 H 0.81631 0.42795 0.13874 0.0
H1315 H 0.81851 0.42616 0.16056 0.0
H1316 H 0.82844 0.46426 0.18471 0.0
H1317 H 0.83011 0.47851 0.16801 0.0
C1318 C 0.82752 0.46866 0.14513 0.0
C1319 C 0.82607 0.46206 0.13357 0.0
C1320 C 0.82534 0.46061 0.15454 0.0
C1321 C 0.82147 0.4474 0.13132 0.0
C1322 C 0.81931 0.4393 0.14064 0.0
C1323 C 0.82087 0.43758 0.16208 0.0
C1324 C 0.82349 0.44419 0.17383 0.0
C1325 C 0.82165 0.44574 0.15238 0.0
C1326 C 0.8264 0.45898 0.17572 0.0
C1327 C 0.82739 0.46712 0.16619 0.0
H1328 H 0.79773 0.54431 0.41257 0.0
H1329 H 0.83056 0.56774 0.40405 0.0
H1330 H 0.8232 0.58952 0.40563 0.0
H1331 H 0.80755 0.60193 0.40929 0.0
H1332 H 0.7757 0.57914 0.42005 0.0
H1333 H 0.78221 0.55715 0.41701 0.0
C1334 C 0.80325 0.5542 0.41106 0.0
C1335 C 0.81473 0.5544 0.40828 0.0
C1336 C 0.79902 0.56681 0.41213 0.0
C1337 C 0.82179 0.56731 0.40639 0.0
C1338 C 0.81754 0.57977 0.40719 0.0
C1339 C 0.80207 0.59228 0.41123 0.0
C1340 C 0.79112 0.5925 0.41501 0.0
C1341 C 0.8062 0.57966 0.4101 0.0
C1342 C 0.78404 0.57955 0.41693 0.0
C1343 C 0.78785 0.56687 0.41536 0.0
H1344 H 0.03371 0.30758 0.10781 0.0
H1345 H 0.99579 0.29182 0.08774 0.0
H1346 H 0.98927 0.31058 0.09808 0.0
H1347 H 0.99463 0.3323 0.11211 0.0
H1348 H 0.03244 0.34759 0.13249 0.0
H1349 H 0.03881 0.32823 0.12275 0.0
C1350 C 0.02401 0.30825 0.10572 0.0
C1351 C 0.01524 0.29841 0.09695 0.0
C1352 C 0.02035 0.31899 0.11175 0.0
C1353 C 1.00269 0.29924 0.09448 0.0
C1354 C 0.99898 0.31 0.10035 0.0
C1355 C 1.00421 0.33121 0.1145 0.0
C1356 C 0.01308 0.34121 0.12301 0.0
C1357 C 0.00775 0.32002 0.1089 0.0
C1358 C 0.02549 0.33987 0.12604 0.0
C1359 C 0.02912 0.32887 0.12043 0.0
H1360 H 0.05167 0.76242 0.40091 0.0
H1361 H 0.02659 0.73943 0.36867 0.0
H1362 H 0.01318 0.72741 0.38066 0.0
H1363 H 0.00821 0.72422 0.40033 0.0
H1364 H 0.03317 0.74798 0.43233 0.0
H1365 H 0.04706 0.75882 0.42044 0.0
C1366 C 0.04331 0.7547 0.39651 0.0
C1367 C 0.04012 0.75183 0.38392 0.0
C1368 C 0.03563 0.74798 0.40343 0.0
C1369 C 0.02917 0.74194 0.37834 0.0
C1370 C 0.02155 0.73502 0.3852 0.0
C1371 C 0.01679 0.73161 0.40471 0.0
C1372 C 0.01964 0.7353 0.41721 0.0
C1373 C 0.02464 0.73803 0.39776 0.0
C1374 C 0.03071 0.74504 0.42273 0.0
C1375 C 0.03866 0.75124 0.41593 0.0
H1376 H 0.52148 0.81473 0.58595 0.0
H1377 H 0.50992 0.78338 0.6087 0.0
H1378 H 0.50575 0.80158 0.62159 0.0
H1379 H 0.50625 0.82662 0.62695 0.0
H1380 H 0.51953 0.85797 0.60503 0.0
H1381 H 0.52256 0.83955 0.59154 0.0
C1382 C 0.51821 0.81181 0.59381 0.0
C1383 C 0.51615 0.79761 0.59633 0.0
C1384 C 0.51629 0.82239 0.60146 0.0
C1385 C 0.51147 0.79413 0.60636 0.0
C1386 C 0.50922 0.80459 0.61386 0.0
C1387 C 0.50996 0.82944 0.61931 0.0
C1388 C 0.51264 0.84368 0.61701 0.0
C1389 C 0.51178 0.81878 0.61161 0.0
C1390 C 0.51724 0.8471 0.60694 0.0
C1391 C 0.519 0.83657 0.59923 0.0
H1392 H 0.51987 0.25487 0.91726 0.0
H1393 H 0.51955 0.211 0.90867 0.0
H1394 H 0.53202 0.21762 0.89435 0.0
H1395 H 0.5419 0.23585 0.8832 0.0
H1396 H 0.54081 0.27941 0.89121 0.0
H1397 H 0.52947 0.27277 0.9063 0.0
C1398 C 0.52232 0.24665 0.91217 0.0
C1399 C 0.51851 0.23239 0.91403 0.0
C1400 C 0.52906 0.25046 0.90359 0.0
C1401 C 0.52234 0.22207 0.9076 0.0
C1402 C 0.52938 0.22584 0.89926 0.0
C1403 C 0.5392 0.24389 0.88826 0.0
C1404 C 0.5421 0.25812 0.8859 0.0
C1405 C 0.53261 0.24 0.89702 0.0
C1406 C 0.53848 0.26836 0.89257 0.0
C1407 C 0.53209 0.26459 0.90133 0.0
H1408 H 0.09167 0.0086 0.2328 0.0
H1409 H 0.09061 0.05013 0.24694 0.0
H1410 H 0.08878 0.05825 0.22685 0.0
H1411 H 0.08801 0.05353 0.2053 0.0
H1412 H 0.08928 0.01182 0.19157 0.0
H1413 H 0.09047 1.00378 0.21146 0.0
C1414 C 0.09098 0.01942 0.23147 0.0
C1415 C 0.09126 0.02876 0.24131 0.0
C1416 C 0.08998 0.02397 0.21997 0.0
C1417 C 0.09053 0.04279 0.23951 0.0
C1418 C 0.08941 0.04739 0.22802 0.0
C1419 C 0.08835 0.04263 0.20663 0.0
C1420 C 0.08859 0.03331 0.19694 0.0
C1421 C 0.08915 0.03807 0.21817 0.0
C1422 C 0.08922 0.01926 0.19887 0.0
C1423 C 0.08988 0.01464 0.21024 0.0
H1424 H 0.30384 0.97371 0.46378 0.0
H1425 H 0.28546 0.93342 0.47207 0.0
H1426 H 0.29624 0.93941 0.4932 0.0
H1427 H 0.31049 0.95629 0.50949 0.0
H1428 H 0.32718 0.99739 0.50131 0.0
H1429 H 0.31718 0.99093 0.48006 0.0
C1430 C 0.302 0.96625 0.47017 0.0
C1431 C 0.29373 0.95311 0.46618 0.0
C1432 C 0.30786 0.96995 0.48242 0.0
C1433 C 0.29188 0.94351 0.4747 0.0
C1434 C 0.29794 0.947 0.48687 0.0
C1435 C 0.31179 0.96395 0.50311 0.0
C1436 C 0.31968 0.9773 0.50709 0.0
C1437 C 0.30585 0.96025 0.49086 0.0
C1438 C 0.32137 0.98695 0.49857 0.0
C1439 C 0.31561 0.98329 0.48638 0.0
H1440 H 0.35288 0.96941 0.8308 0.0
H1441 H 0.34428 0.93173 0.84806 0.0
H1442 H 0.34017 0.91724 0.82881 0.0
H1443 H 0.34036 0.91543 0.80721 0.0
H1444 H 0.3489 0.95365 0.79039 0.0
H1445 H 0.35145 0.96775 0.80922 0.0
C1446 C 0.34995 0.95802 0.83028 0.0
C1447 C 0.34892 0.9516 0.84077 0.0
C1448 C 0.3476 0.94986 0.81925 0.0
C1449 C 0.34507 0.93687 0.84005 0.0
C1450 C 0.34279 0.92861 0.82907 0.0
C1451 C 0.3427 0.92684 0.80766 0.0
C1452 C 0.3444 0.93343 0.79732 0.0
C1453 C 0.34424 0.93499 0.81863 0.0
C1454 C 0.34733 0.94825 0.79808 0.0
C1455 C 0.34891 0.95636 0.8089 0.0
H1456 H 0.24031 0.18075 0.02207 0.0
H1457 H 0.24199 0.22547 0.02186 0.0
H1458 H 0.24961 0.22547 1.00361 0.0
H1459 H 0.25614 0.21274 0.98794 0.0
H1460 H 0.25542 0.1682 0.98918 0.0
H1461 H 0.24687 0.16818 0.00666 0.0
C1462 C 0.24248 0.19055 0.01814 0.0
C1463 C 0.24069 0.20311 0.02342 0.0
C1464 C 0.2469 0.19049 0.00773 0.0
C1465 C 0.24323 0.21563 0.01797 0.0
C1466 C 0.24762 0.21565 0.00755 0.0
C1467 C 0.25419 0.20303 0.99205 0.0
C1468 C 0.25643 0.19047 0.9871 0.0
C1469 C 0.24955 0.20313 1.00238 0.0
C1470 C 0.25359 0.17798 0.99252 0.0
C1471 C 0.24882 0.17797 1.00265 0.0
H1472 H 0.79303 0.47504 0.96514 0.0
H1473 H 0.80236 0.43408 0.96596 0.0
H1474 H 0.81437 0.44031 0.98684 0.0
H1475 H 0.82105 0.45688 1.0053 0.0
H1476 H 0.81128 0.49761 1.00436 0.0
H1477 H 0.80078 0.49206 0.98306 0.0
C1478 C 0.79785 0.46754 0.96981 0.0
C1479 C 0.79675 0.45408 0.96398 0.0
C1480 C 0.80464 0.47115 0.98183 0.0
C1481 C 0.80291 0.44444 0.97026 0.0
C1482 C 0.80983 0.44802 0.98219 0.0
C1483 C 0.81682 0.46463 1.00037 0.0
C1484 C 0.81689 0.47762 1.00645 0.0
C1485 C 0.8106 0.46127 0.98813 0.0
C1486 C 0.81123 0.48748 0.99995 0.0
C1487 C 0.80523 0.48432 0.98776 0.0
H1488 H 0.85501 0.44701 0.29811 0.0
H1489 H 0.83078 0.40881 0.30288 0.0
H1490 H 0.83144 0.41843 0.32325 0.0
H1491 H 0.83998 0.4375 0.3402 0.0
H1492 H 0.86546 0.47472 0.33543 0.0
H1493 H 0.86328 0.46579 0.31465 0.0
C1494 C 0.84973 0.44089 0.30356 0.0
C1495 C 0.84275 0.42731 0.29899 0.0
C1496 C 0.85048 0.44631 0.31533 0.0
C1497 C 0.83617 0.41934 0.30623 0.0
C1498 C 0.83658 0.42483 0.31786 0.0
C1499 C 0.84491 0.44365 0.33452 0.0
C1500 C 0.85284 0.45677 0.33927 0.0
C1501 C 0.84384 0.43826 0.32259 0.0
C1502 C 0.85932 0.4646 0.33192 0.0
C1503 C 0.85808 0.45951 0.32005 0.0
H1504 H 0.74349 0.71829 0.51912 0.0
H1505 H 0.73916 0.67421 0.52479 0.0
H1506 H 0.74664 0.6695 0.50714 0.0
H1507 H 0.75551 0.67791 0.49077 0.0
H1508 H 0.75961 0.72182 0.48447 0.0
H1509 H 0.75132 0.72655 0.50168 0.0
C1510 C 0.74413 0.70766 0.51642 0.0
C1511 C 0.74096 0.69666 0.5234 0.0
C1512 C 0.74851 0.70498 0.50619 0.0
C1513 C 0.7418 0.68293 0.51976 0.0
C1514 C 0.74602 0.68019 0.50961 0.0
C1515 C 0.75436 0.68848 0.49295 0.0
C1516 C 0.75828 0.69946 0.48628 0.0
C1517 C 0.74955 0.69114 0.50284 0.0
C1518 C 0.75689 0.71314 0.48951 0.0
C1519 C 0.75208 0.71587 0.49934 0.0
H1520 H 0.59751 0.52218 0.6996 0.0
H1521 H 0.5768 0.5549 0.70066 0.0
H1522 H 0.57647 0.55121 0.72141 0.0
H1523 H 0.58311 0.53952 0.73979 0.0
H1524 H 0.60553 0.50858 0.73892 0.0
H1525 H 0.60452 0.51113 0.71774 0.0
C1526 C 0.59304 0.52868 0.70436 0.0
C1527 C 0.58726 0.53887 0.69847 0.0
C1528 C 0.59336 0.52697 0.71645 0.0
C1529 C 0.58118 0.54681 0.7048 0.0
C1530 C 0.58112 0.54484 0.71676 0.0
C1531 C 0.58778 0.5334 0.73492 0.0
C1532 C 0.5945 0.52399 0.7409 0.0
C1533 C 0.58733 0.53508 0.72274 0.0
C1534 C 0.60049 0.51606 0.73454 0.0
C1535 C 0.59984 0.51744 0.72242 0.0
loop_
_geom_bond_atom_site_label_1
_geom_bond_atom_site_label_2
_geom_bond_distance
_geom_bond_site_symmetry_2
_ccdc_geom_bond_type
C0 C1 1.264 . S
C0 C5 1.479 . S
C0 C10 1.465 . S
C1 C0 1.264 . S
C1 C3 1.339 . S
C1 H28 0.931 . S
C2 C3 1.395 . S
C2 C4 1.320 . S
C3 C1 1.339 . S
C3 C2 1.395 . S
C3 H29 0.929 . S
C4 C2 1.320 . S
C4 C5 1.405 . S
C4 H30 0.930 1_455 S
C5 C0 1.479 . S
C5 C4 1.405 . S
C5 H31 0.931 1_455 S
U6 O7 2.454 . S
U6 O8 2.458 . S
U6 C9 2.984 . S
U6 C10 2.847 . S
U6 C23 2.882 . S
U6 O24 2.441 . S
U6 O25 2.420 . S
U6 O26 2.455 . S
U6 O27 2.449 . S
O7 U6 2.454 . S
O7 C9 1.353 . S
O8 U6 2.458 . S
O8 C9 1.286 . S
C9 U6 2.984 . S
C9 O7 1.353 . S
C9 O8 1.286 . S
C9 C11 1.363 . S
C10 C0 1.465 . S
C10 U6 2.847 . S
C10 O24 1.249 . S
C10 O25 1.202 . S
C11 C9 1.363 . S
C11 C13 1.408 1_455 S
C11 C16 1.342 . S
C12 C13 1.310 . S
C12 C15 1.461 . S
C12 H32 0.932 . S
C13 C11 1.408 1_655 S
C13 C12 1.310 . S
C13 H33 0.930 . S
C14 C15 1.474 1_455 S
C14 C16 1.285 . S
C14 H34 0.929 . S
C15 C12 1.461 . S
C15 C14 1.474 1_655 S
C16 C11 1.342 . S
C16 C14 1.285 . S
C16 H35 0.930 . S
C17 C20 1.424 . S
C17 C22 1.245 . S
C17 C23 1.428 . S
C18 C21 1.260 . S
C18 C22 1.477 . S
C18 H36 0.932 . S
C19 C20 1.384 . S
C19 C21 1.479 . S
C19 H37 0.929 . S
C20 C17 1.424 . S
C20 C19 1.384 . S
C20 H38 0.928 . S
C21 C18 1.260 . S
C21 C19 1.479 . S
C22 C17 1.245 . S
C22 C18 1.477 . S
C22 H39 0.932 . S
C23 U6 2.882 . S
C23 C17 1.428 . S
C23 O26 1.301 . S
C23 O27 1.282 . S
O24 U6 2.441 . S
O24 C10 1.249 . S
O25 U6 2.420 . S
O25 C10 1.202 . S
O26 U6 2.455 . S
O26 C23 1.301 . S
O27 U6 2.449 . S
O27 C23 1.282 . S
H28 C1 0.931 . S
H29 C3 0.929 . S
H30 C4 0.930 1_655 S
H31 C5 0.931 1_655 S
H32 C12 0.932 . S
H33 C13 0.930 . S
H34 C14 0.929 . S
H35 C16 0.930 . S
H36 C18 0.932 . S
H37 C19 0.929 . S
H38 C20 0.928 . S
H39 C22 0.932 . S
C40 C41 1.264 . S
C40 C45 1.479 . S
C40 C50 1.465 . S
C41 C40 1.264 . S
C41 C43 1.339 . S
C41 H68 0.931 . S
C42 C43 1.395 . S
C42 C44 1.320 . S
C43 C41 1.339 . S
C43 C42 1.395 . S
C43 H69 0.929 . S
C44 C42 1.320 . S
C44 C45 1.405 . S
C44 H70 0.930 . S
C45 C40 1.479 . S
C45 C44 1.405 . S
C45 H71 0.931 . S
U46 O47 2.454 . S
U46 O48 2.458 . S
U46 C49 2.984 . S
U46 C50 2.847 . S
U46 C63 2.882 . S
U46 O64 2.441 . S
U46 O65 2.420 . S
U46 O66 2.455 . S
U46 O67 2.449 . S
O47 U46 2.454 . S
O47 C49 1.353 . S
O48 U46 2.458 . S
O48 C49 1.286 . S
C49 U46 2.984 . S
C49 O47 1.353 . S
C49 O48 1.286 . S
C49 C51 1.363 . S
C50 C40 1.465 . S
C50 U46 2.847 . S
C50 O64 1.249 . S
C50 O65 1.202 . S
C51 C49 1.363 . S
C51 C53 1.408 . S
C51 C56 1.342 . S
C52 C53 1.310 . S
C52 C55 1.461 . S
C52 H72 0.932 . S
C53 C51 1.408 . S
C53 C52 1.310 . S
C53 H73 0.930 . S
C54 C55 1.474 . S
C54 C56 1.285 . S
C54 H74 0.929 . S
C55 C52 1.461 . S
C55 C54 1.474 . S
C56 C51 1.342 . S
C56 C54 1.285 . S
C56 H75 0.930 . S
C57 C60 1.424 . S
C57 C62 1.245 . S
C57 C63 1.428 . S
C58 C61 1.260 . S
C58 C62 1.477 . S
C58 H76 0.932 . S
C59 C60 1.384 . S
C59 C61 1.479 . S
C59 H77 0.929 . S
C60 C57 1.424 . S
C60 C59 1.384 . S
C60 H78 0.928 . S
C61 C58 1.260 . S
C61 C59 1.479 . S
C62 C57 1.245 . S
C62 C58 1.477 . S
C62 H79 0.932 . S
C63 U46 2.882 . S
C63 C57 1.428 . S
C63 O66 1.301 . S
C63 O67 1.282 . S
O64 U46 2.441 . S
O64 C50 1.249 . S
O65 U46 2.420 . S
O65 C50 1.202 . S
O66 U46 2.455 . S
O66 C63 1.301 . S
O67 U46 2.449 . S
O67 C63 1.282 . S
H68 C41 0.931 . S
H69 C43 0.929 . S
H70 C44 0.930 . S
H71 C45 0.931 . S
H72 C52 0.932 . S
H73 C53 0.930 . S
H74 C54 0.929 . S
H75 C56 0.930 . S
H76 C58 0.932 . S
H77 C59 0.929 . S
H78 C60 0.928 . S
H79 C62 0.932 . S
C80 C81 1.264 . S
C80 C85 1.479 . S
C80 C90 1.465 . S
C81 C80 1.264 . S
C81 C83 1.339 . S
C81 H108 0.931 . S
C82 C83 1.395 . S
C82 C84 1.320 . S
C83 C81 1.339 . S
C83 C82 1.395 . S
C83 H109 0.929 . S
C84 C82 1.320 . S
C84 C85 1.405 . S
C84 H110 0.930 . S
C85 C80 1.479 . S
C85 C84 1.405 . S
C85 H111 0.931 . S
U86 O87 2.454 . S
U86 O88 2.458 . S
U86 C89 2.984 . S
U86 C90 2.847 . S
U86 C103 2.882 . S
U86 O104 2.441 . S
U86 O105 2.420 . S
U86 O106 2.455 . S
U86 O107 2.449 . S
O87 U86 2.454 . S
O87 C89 1.353 . S
O88 U86 2.458 . S
O88 C89 1.286 . S
C89 U86 2.984 . S
C89 O87 1.353 . S
C89 O88 1.286 . S
C89 C91 1.363 . S
C90 C80 1.465 . S
C90 U86 2.847 . S
C90 O104 1.249 . S
C90 O105 1.202 . S
C91 C89 1.363 . S
C91 C93 1.408 . S
C91 C96 1.342 . S
C92 C93 1.310 . S
C92 C95 1.461 . S
C92 H112 0.932 . S
C93 C91 1.408 . S
C93 C92 1.310 . S
C93 H113 0.930 . S
C94 C95 1.474 . S
C94 C96 1.285 . S
C94 H114 0.929 . S
C95 C92 1.461 . S
C95 C94 1.474 . S
C96 C91 1.342 . S
C96 C94 1.285 . S
C96 H115 0.930 . S
C97 C100 1.424 . S
C97 C102 1.245 . S
C97 C103 1.428 . S
C98 C101 1.260 . S
C98 C102 1.477 . S
C98 H116 0.932 . S
C99 C100 1.384 . S
C99 C101 1.479 . S
C99 H117 0.929 . S
C100 C97 1.424 . S
C100 C99 1.384 . S
C100 H118 0.928 . S
C101 C98 1.260 . S
C101 C99 1.479 . S
C102 C97 1.245 . S
C102 C98 1.477 . S
C102 H119 0.932 . S
C103 U86 2.882 . S
C103 C97 1.428 . S
C103 O106 1.301 . S
C103 O107 1.282 . S
O104 U86 2.441 . S
O104 C90 1.249 . S
O105 U86 2.420 . S
O105 C90 1.202 . S
O106 U86 2.455 . S
O106 C103 1.301 . S
O107 U86 2.449 . S
O107 C103 1.282 . S
H108 C81 0.931 . S
H109 C83 0.929 . S
H110 C84 0.930 . S
H111 C85 0.931 . S
H112 C92 0.932 . S
H113 C93 0.930 . S
H114 C94 0.929 . S
H115 C96 0.930 . S
H116 C98 0.932 . S
H117 C99 0.929 . S
H118 C100 0.928 . S
H119 C102 0.932 . S
C120 C121 1.264 . S
C120 C125 1.479 . S
C120 C130 1.465 . S
C121 C120 1.264 . S
C121 C123 1.339 . S
C121 H148 0.931 . S
C122 C123 1.395 . S
C122 C124 1.320 . S
C123 C121 1.339 . S
C123 C122 1.395 . S
C123 H149 0.929 . S
C124 C122 1.320 . S
C124 C125 1.405 . S
C124 H150 0.930 . S
C125 C120 1.479 . S
C125 C124 1.405 . S
C125 H151 0.931 . S
U126 O127 2.454 . S
U126 O128 2.458 . S
U126 C129 2.984 . S
U126 C130 2.847 . S
U126 C143 2.882 . S
U126 O144 2.441 . S
U126 O145 2.420 . S
U126 O146 2.455 . S
U126 O147 2.449 . S
O127 U126 2.454 . S
O127 C129 1.353 . S
O128 U126 2.458 . S
O128 C129 1.286 . S
C129 U126 2.984 . S
C129 O127 1.353 . S
C129 O128 1.286 . S
C129 C131 1.363 . S
C130 C120 1.465 . S
C130 U126 2.847 . S
C130 O144 1.249 . S
C130 O145 1.202 . S
C131 C129 1.363 . S
C131 C133 1.408 . S
C131 C136 1.342 . S
C132 C133 1.310 . S
C132 C135 1.461 . S
C132 H152 0.932 . S
C133 C131 1.408 . S
C133 C132 1.310 . S
C133 H153 0.930 . S
C134 C135 1.474 . S
C134 C136 1.285 . S
C134 H154 0.929 . S
C135 C132 1.461 . S
C135 C134 1.474 . S
C136 C131 1.342 . S
C136 C134 1.285 . S
C136 H155 0.930 . S
C137 C140 1.424 . S
C137 C142 1.245 . S
C137 C143 1.428 . S
C138 C141 1.260 . S
C138 C142 1.477 . S
C138 H156 0.932 . S
C139 C140 1.384 . S
C139 C141 1.479 . S
C139 H157 0.929 . S
C140 C137 1.424 . S
C140 C139 1.384 . S
C140 H158 0.928 . S
C141 C138 1.260 . S
C141 C139 1.479 . S
C142 C137 1.245 . S
C142 C138 1.477 . S
C142 H159 0.932 . S
C143 U126 2.882 . S
C143 C137 1.428 . S
C143 O146 1.301 . S
C143 O147 1.282 . S
O144 U126 2.441 . S
O144 C130 1.249 . S
O145 U126 2.420 . S
O145 C130 1.202 . S
O146 U126 2.455 . S
O146 C143 1.301 . S
O147 U126 2.449 . S
O147 C143 1.282 . S
H148 C121 0.931 . S
H149 C123 0.929 . S
H150 C124 0.930 . S
H151 C125 0.931 . S
H152 C132 0.932 . S
H153 C133 0.930 . S
H154 C134 0.929 . S
H155 C136 0.930 . S
H156 C138 0.932 . S
H157 C139 0.929 . S
H158 C140 0.928 . S
H159 C142 0.932 . S
C160 C161 1.264 . S
C160 C165 1.479 . S
C160 C170 1.465 . S
C161 C160 1.264 . S
C161 C163 1.339 . S
C161 H188 0.931 . S
C162 C163 1.395 . S
C162 C164 1.320 . S
C163 C161 1.339 . S
C163 C162 1.395 . S
C163 H189 0.929 . S
C164 C162 1.320 . S
C164 C165 1.405 . S
C164 H190 0.930 . S
C165 C160 1.479 . S
C165 C164 1.405 . S
C165 H191 0.931 . S
U166 O167 2.454 . S
U166 O168 2.458 . S
U166 C169 2.984 . S
U166 C170 2.847 . S
U166 C183 2.882 . S
U166 O184 2.441 . S
U166 O185 2.420 . S
U166 O186 2.455 . S
U166 O187 2.449 . S
O167 U166 2.454 . S
O167 C169 1.353 . S
O168 U166 2.458 . S
O168 C169 1.286 . S
C169 U166 2.984 . S
C169 O167 1.353 . S
C169 O168 1.286 . S
C169 C171 1.363 . S
C170 C160 1.465 . S
C170 U166 2.847 . S
C170 O184 1.249 . S
C170 O185 1.202 . S
C171 C169 1.363 . S
C171 C173 1.408 . S
C171 C176 1.342 . S
C172 C173 1.310 . S
C172 C175 1.461 . S
C172 H192 0.932 . S
C173 C171 1.408 . S
C173 C172 1.310 . S
C173 H193 0.930 . S
C174 C175 1.474 . S
C174 C176 1.285 . S
C174 H194 0.929 . S
C175 C172 1.461 . S
C175 C174 1.474 . S
C176 C171 1.342 . S
C176 C174 1.285 . S
C176 H195 0.930 . S
C177 C180 1.424 . S
C177 C182 1.245 . S
C177 C183 1.428 . S
C178 C181 1.260 . S
C178 C182 1.477 . S
C178 H196 0.932 . S
C179 C180 1.384 . S
C179 C181 1.479 . S
C179 H197 0.929 . S
C180 C177 1.424 . S
C180 C179 1.384 . S
C180 H198 0.928 . S
C181 C178 1.260 . S
C181 C179 1.479 . S
C182 C177 1.245 . S
C182 C178 1.477 . S
C182 H199 0.932 . S
C183 U166 2.882 . S
C183 C177 1.428 . S
C183 O186 1.301 . S
C183 O187 1.282 . S
O184 U166 2.441 . S
O184 C170 1.249 . S
O185 U166 2.420 . S
O185 C170 1.202 . S
O186 U166 2.455 . S
O186 C183 1.301 . S
O187 U166 2.449 . S
O187 C183 1.282 . S
H188 C161 0.931 . S
H189 C163 0.929 . S
H190 C164 0.930 . S
H191 C165 0.931 . S
H192 C172 0.932 . S
H193 C173 0.930 . S
H194 C174 0.929 . S
H195 C176 0.930 . S
H196 C178 0.932 . S
H197 C179 0.929 . S
H198 C180 0.928 . S
H199 C182 0.932 . S
C200 C201 1.264 . S
C200 C205 1.479 . S
C200 C210 1.465 . S
C201 C200 1.264 . S
C201 C203 1.339 . S
C201 H228 0.931 . S
C202 C203 1.395 . S
C202 C204 1.320 . S
C203 C201 1.339 . S
C203 C202 1.395 . S
C203 H229 0.929 . S
C204 C202 1.320 . S
C204 C205 1.405 . S
C204 H230 0.930 . S
C205 C200 1.479 . S
C205 C204 1.405 . S
C205 H231 0.931 . S
U206 O207 2.454 . S
U206 O208 2.458 . S
U206 C209 2.984 . S
U206 C210 2.847 . S
U206 C223 2.882 . S
U206 O224 2.441 . S
U206 O225 2.420 . S
U206 O226 2.455 . S
U206 O227 2.449 . S
O207 U206 2.454 . S
O207 C209 1.353 . S
O208 U206 2.458 . S
O208 C209 1.286 . S
C209 U206 2.984 . S
C209 O207 1.353 . S
C209 O208 1.286 . S
C209 C211 1.363 . S
C210 C200 1.465 . S
C210 U206 2.847 . S
C210 O224 1.249 . S
C210 O225 1.202 . S
C211 C209 1.363 . S
C211 C213 1.408 . S
C211 C216 1.342 . S
C212 C213 1.310 . S
C212 C215 1.461 . S
C212 H232 0.932 . S
C213 C211 1.408 . S
C213 C212 1.310 . S
C213 H233 0.930 . S
C214 C215 1.474 . S
C214 C216 1.285 . S
C214 H234 0.929 . S
C215 C212 1.461 . S
C215 C214 1.474 . S
C216 C211 1.342 . S
C216 C214 1.285 . S
C216 H235 0.930 . S
C217 C220 1.424 . S
C217 C222 1.245 . S
C217 C223 1.428 . S
C218 C221 1.260 . S
C218 C222 1.477 . S
C218 H236 0.932 . S
C219 C220 1.384 . S
C219 C221 1.479 . S
C219 H237 0.929 . S
C220 C217 1.424 . S
C220 C219 1.384 . S
C220 H238 0.928 . S
C221 C218 1.260 . S
C221 C219 1.479 . S
C222 C217 1.245 . S
C222 C218 1.477 . S
C222 H239 0.932 . S
C223 U206 2.882 . S
C223 C217 1.428 . S
C223 O226 1.301 . S
C223 O227 1.282 . S
O224 U206 2.441 . S
O224 C210 1.249 . S
O225 U206 2.420 . S
O225 C210 1.202 . S
O226 U206 2.455 . S
O226 C223 1.301 . S
O227 U206 2.449 . S
O227 C223 1.282 . S
H228 C201 0.931 . S
H229 C203 0.929 . S
H230 C204 0.930 . S
H231 C205 0.931 . S
H232 C212 0.932 . S
H233 C213 0.930 . S
H234 C214 0.929 . S
H235 C216 0.930 . S
H236 C218 0.932 . S
H237 C219 0.929 . S
H238 C220 0.928 . S
H239 C222 0.932 . S
C240 C241 1.264 . S
C240 C245 1.479 . S
C240 C250 1.465 . S
C241 C240 1.264 . S
C241 C243 1.339 . S
C241 H268 0.931 . S
C242 C243 1.395 . S
C242 C244 1.320 . S
C243 C241 1.339 . S
C243 C242 1.395 . S
C243 H269 0.929 . S
C244 C242 1.320 . S
C244 C245 1.405 . S
C244 H270 0.930 . S
C245 C240 1.479 . S
C245 C244 1.405 . S
C245 H271 0.931 . S
U246 O247 2.454 . S
U246 O248 2.458 . S
U246 C249 2.984 . S
U246 C250 2.847 . S
U246 C263 2.882 . S
U246 O264 2.441 . S
U246 O265 2.420 . S
U246 O266 2.455 . S
U246 O267 2.449 . S
O247 U246 2.454 . S
O247 C249 1.353 . S
O248 U246 2.458 . S
O248 C249 1.286 . S
C249 U246 2.984 . S
C249 O247 1.353 . S
C249 O248 1.286 . S
C249 C251 1.363 . S
C250 C240 1.465 . S
C250 U246 2.847 . S
C250 O264 1.249 . S
C250 O265 1.202 . S
C251 C249 1.363 . S
C251 C253 1.408 . S
C251 C256 1.342 . S
C252 C253 1.310 . S
C252 C255 1.461 . S
C252 H272 0.932 . S
C253 C251 1.408 . S
C253 C252 1.310 . S
C253 H273 0.930 . S
C254 C255 1.474 . S
C254 C256 1.285 . S
C254 H274 0.929 . S
C255 C252 1.461 . S
C255 C254 1.474 . S
C256 C251 1.342 . S
C256 C254 1.285 . S
C256 H275 0.930 . S
C257 C260 1.424 . S
C257 C262 1.245 . S
C257 C263 1.428 . S
C258 C261 1.260 . S
C258 C262 1.477 . S
C258 H276 0.932 . S
C259 C260 1.384 . S
C259 C261 1.479 . S
C259 H277 0.929 . S
C260 C257 1.424 . S
C260 C259 1.384 . S
C260 H278 0.928 . S
C261 C258 1.260 . S
C261 C259 1.479 . S
C262 C257 1.245 . S
C262 C258 1.477 . S
C262 H279 0.932 . S
C263 U246 2.882 . S
C263 C257 1.428 . S
C263 O266 1.301 . S
C263 O267 1.282 . S
O264 U246 2.441 . S
O264 C250 1.249 . S
O265 U246 2.420 . S
O265 C250 1.202 . S
O266 U246 2.455 . S
O266 C263 1.301 . S
O267 U246 2.449 . S
O267 C263 1.282 . S
H268 C241 0.931 . S
H269 C243 0.929 . S
H270 C244 0.930 . S
H271 C245 0.931 . S
H272 C252 0.932 . S
H273 C253 0.930 . S
H274 C254 0.929 . S
H275 C256 0.930 . S
H276 C258 0.932 . S
H277 C259 0.929 . S
H278 C260 0.928 . S
H279 C262 0.932 . S
C280 C281 1.264 . S
C280 C285 1.479 . S
C280 C290 1.465 . S
C281 C280 1.264 . S
C281 C283 1.339 . S
C281 H308 0.931 . S
C282 C283 1.395 . S
C282 C284 1.320 . S
C283 C281 1.339 . S
C283 C282 1.395 . S
C283 H309 0.929 . S
C284 C282 1.320 . S
C284 C285 1.405 . S
C284 H310 0.930 . S
C285 C280 1.479 . S
C285 C284 1.405 . S
C285 H311 0.931 . S
U286 O287 2.454 . S
U286 O288 2.458 . S
U286 C289 2.984 . S
U286 C290 2.847 . S
U286 C303 2.882 . S
U286 O304 2.441 . S
U286 O305 2.420 . S
U286 O306 2.455 . S
U286 O307 2.449 . S
O287 U286 2.454 . S
O287 C289 1.353 . S
O288 U286 2.458 . S
O288 C289 1.286 . S
C289 U286 2.984 . S
C289 O287 1.353 . S
C289 O288 1.286 . S
C289 C291 1.363 . S
C290 C280 1.465 . S
C290 U286 2.847 . S
C290 O304 1.249 . S
C290 O305 1.202 . S
C291 C289 1.363 . S
C291 C293 1.408 . S
C291 C296 1.342 . S
C292 C293 1.310 . S
C292 C295 1.461 . S
C292 H312 0.932 . S
C293 C291 1.408 . S
C293 C292 1.310 . S
C293 H313 0.930 . S
C294 C295 1.474 . S
C294 C296 1.285 . S
C294 H314 0.929 . S
C295 C292 1.461 . S
C295 C294 1.474 . S
C296 C291 1.342 . S
C296 C294 1.285 . S
C296 H315 0.930 . S
C297 C300 1.424 . S
C297 C302 1.245 . S
C297 C303 1.428 . S
C298 C301 1.260 . S
C298 C302 1.477 . S
C298 H316 0.932 . S
C299 C300 1.384 . S
C299 C301 1.479 . S
C299 H317 0.929 . S
C300 C297 1.424 . S
C300 C299 1.384 . S
C300 H318 0.928 . S
C301 C298 1.260 . S
C301 C299 1.479 . S
C302 C297 1.245 . S
C302 C298 1.477 . S
C302 H319 0.932 . S
C303 U286 2.882 . S
C303 C297 1.428 . S
C303 O306 1.301 . S
C303 O307 1.282 . S
O304 U286 2.441 . S
O304 C290 1.249 . S
O305 U286 2.420 . S
O305 C290 1.202 . S
O306 U286 2.455 . S
O306 C303 1.301 . S
O307 U286 2.449 . S
O307 C303 1.282 . S
H308 C281 0.931 . S
H309 C283 0.929 . S
H310 C284 0.930 . S
H311 C285 0.931 . S
H312 C292 0.932 . S
H313 C293 0.930 . S
H314 C294 0.929 . S
H315 C296 0.930 . S
H316 C298 0.932 . S
H317 C299 0.929 . S
H318 C300 0.928 . S
H319 C302 0.932 . S
C320 C321 1.263 . S
C320 C325 1.479 . S
C320 C330 1.465 . S
C321 C320 1.263 . S
C321 C323 1.339 . S
C321 H348 0.932 1_545 S
C322 C323 1.395 . S
C322 C324 1.320 . S
C323 C321 1.339 . S
C323 C322 1.395 . S
C323 H349 0.929 1_545 S
C324 C322 1.320 . S
C324 C325 1.405 . S
C324 H350 0.930 . S
C325 C320 1.479 . S
C325 C324 1.405 . S
C325 H351 0.931 . S
U326 O327 2.454 1_565 S
U326 O328 2.458 1_565 S
U326 C329 2.984 1_565 S
U326 C330 2.847 1_565 S
U326 C343 2.882 . S
U326 O344 2.441 1_565 S
U326 O345 2.420 . S
U326 O346 2.455 . S
U326 O347 2.449 . S
O327 U326 2.454 1_545 S
O327 C329 1.353 . S
O328 U326 2.458 1_545 S
O328 C329 1.286 . S
C329 U326 2.984 1_545 S
C329 O327 1.353 . S
C329 O328 1.286 . S
C329 C331 1.363 . S
C330 C320 1.465 . S
C330 U326 2.847 1_545 S
C330 O344 1.249 . S
C330 O345 1.202 1_545 S
C331 C329 1.363 . S
C331 C333 1.408 . S
C331 C336 1.342 . S
C332 C333 1.310 . S
C332 C335 1.461 . S
C332 H352 0.932 . S
C333 C331 1.408 . S
C333 C332 1.310 . S
C333 H353 0.930 . S
C334 C335 1.474 . S
C334 C336 1.285 . S
C334 H354 0.929 . S
C335 C332 1.461 . S
C335 C334 1.474 . S
C336 C331 1.342 . S
C336 C334 1.285 . S
C336 H355 0.930 . S
C337 C340 1.424 . S
C337 C342 1.245 . S
C337 C343 1.428 . S
C338 C341 1.260 . S
C338 C342 1.477 . S
C338 H356 0.932 . S
C339 C340 1.384 . S
C339 C341 1.479 . S
C339 H357 0.929 . S
C340 C337 1.424 . S
C340 C339 1.384 . S
C340 H358 0.928 . S
C341 C338 1.260 . S
C341 C339 1.479 . S
C342 C337 1.245 . S
C342 C338 1.477 . S
C342 H359 0.932 . S
C343 U326 2.882 . S
C343 C337 1.428 . S
C343 O346 1.301 . S
C343 O347 1.282 . S
O344 U326 2.441 1_545 S
O344 C330 1.249 . S
O345 U326 2.420 . S
O345 C330 1.202 1_565 S
O346 U326 2.455 . S
O346 C343 1.301 . S
O347 U326 2.449 . S
O347 C343 1.282 . S
H348 C321 0.932 1_565 S
H349 C323 0.929 1_565 S
H350 C324 0.930 . S
H351 C325 0.931 . S
H352 C332 0.932 . S
H353 C333 0.930 . S
H354 C334 0.929 . S
H355 C336 0.930 . S
H356 C338 0.932 . S
H357 C339 0.929 . S
H358 C340 0.928 . S
H359 C342 0.932 . S
C360 C361 1.264 . S
C360 C365 1.479 . S
C360 C370 1.465 . S
C361 C360 1.264 . S
C361 C363 1.339 . S
C361 H388 0.931 . S
C362 C363 1.395 . S
C362 C364 1.320 . S
C363 C361 1.339 . S
C363 C362 1.395 . S
C363 H389 0.929 . S
C364 C362 1.320 . S
C364 C365 1.405 . S
C364 H390 0.930 . S
C365 C360 1.479 . S
C365 C364 1.405 . S
C365 H391 0.931 . S
U366 O367 2.454 . S
U366 O368 2.458 . S
U366 C369 2.984 . S
U366 C370 2.847 . S
U366 C383 2.882 . S
U366 O384 2.441 . S
U366 O385 2.420 . S
U366 O386 2.455 . S
U366 O387 2.449 . S
O367 U366 2.454 . S
O367 C369 1.353 . S
O368 U366 2.458 . S
O368 C369 1.286 . S
C369 U366 2.984 . S
C369 O367 1.353 . S
C369 O368 1.286 . S
C369 C371 1.363 . S
C370 C360 1.465 . S
C370 U366 2.847 . S
C370 O384 1.249 . S
C370 O385 1.202 . S
C371 C369 1.363 . S
C371 C373 1.408 . S
C371 C376 1.342 . S
C372 C373 1.310 . S
C372 C375 1.461 . S
C372 H392 0.932 . S
C373 C371 1.408 . S
C373 C372 1.310 . S
C373 H393 0.930 . S
C374 C375 1.474 . S
C374 C376 1.285 . S
C374 H394 0.929 . S
C375 C372 1.461 . S
C375 C374 1.474 . S
C376 C371 1.342 . S
C376 C374 1.285 . S
C376 H395 0.930 . S
C377 C380 1.424 . S
C377 C382 1.245 . S
C377 C383 1.428 . S
C378 C381 1.260 . S
C378 C382 1.477 . S
C378 H396 0.932 . S
C379 C380 1.384 . S
C379 C381 1.479 . S
C379 H397 0.929 . S
C380 C377 1.424 . S
C380 C379 1.384 . S
C380 H398 0.928 . S
C381 C378 1.260 . S
C381 C379 1.479 . S
C382 C377 1.245 . S
C382 C378 1.477 . S
C382 H399 0.932 . S
C383 U366 2.882 . S
C383 C377 1.428 . S
C383 O386 1.301 . S
C383 O387 1.282 . S
O384 U366 2.441 . S
O384 C370 1.249 . S
O385 U366 2.420 . S
O385 C370 1.202 . S
O386 U366 2.455 . S
O386 C383 1.301 . S
O387 U366 2.449 . S
O387 C383 1.282 . S
H388 C361 0.931 . S
H389 C363 0.929 . S
H390 C364 0.930 . S
H391 C365 0.931 . S
H392 C372 0.932 . S
H393 C373 0.930 . S
H394 C374 0.929 . S
H395 C376 0.930 . S
H396 C378 0.932 . S
H397 C379 0.929 . S
H398 C380 0.928 . S
H399 C382 0.932 . S
C400 C401 1.264 . S
C400 C405 1.479 . S
C400 C410 1.465 . S
C401 C400 1.264 . S
C401 C403 1.339 . S
C401 H428 0.931 . S
C402 C403 1.395 . S
C402 C404 1.320 . S
C403 C401 1.339 . S
C403 C402 1.395 . S
C403 H429 0.929 . S
C404 C402 1.320 . S
C404 C405 1.405 . S
C404 H430 0.930 . S
C405 C400 1.479 . S
C405 C404 1.405 . S
C405 H431 0.931 1_545 S
U406 O407 2.480 . S
U406 O408 2.488 . S
U406 C409 3.017 . S
U406 C410 2.826 1_565 S
U406 C423 2.869 1_565 S
U406 O424 2.434 . S
U406 O425 2.393 1_565 S
U406 O426 2.459 1_565 S
U406 O427 2.425 1_565 S
O407 U406 2.480 . S
O407 C409 1.353 . S
O408 U406 2.488 . S
O408 C409 1.286 . S
C409 U406 3.017 . S
C409 O407 1.353 . S
C409 O408 1.286 . S
C409 C411 1.363 . S
C410 C400 1.465 . S
C410 U406 2.826 1_545 S
C410 O424 1.249 1_545 S
C410 O425 1.202 . S
C411 C409 1.363 . S
C411 C413 1.408 . S
C411 C416 1.342 . S
C412 C413 1.310 . S
C412 C415 1.461 . S
C412 H432 0.932 . S
C413 C411 1.408 . S
C413 C412 1.310 . S
C413 H433 0.930 . S
C414 C415 1.474 . S
C414 C416 1.285 . S
C414 H434 0.929 . S
C415 C412 1.461 . S
C415 C414 1.474 . S
C416 C411 1.342 . S
C416 C414 1.285 . S
C416 H435 0.930 . S
C417 C420 1.424 . S
C417 C422 1.245 . S
C417 C423 1.428 . S
C418 C421 1.260 . S
C418 C422 1.477 . S
C418 H436 0.932 . S
C419 C420 1.384 . S
C419 C421 1.479 . S
C419 H437 0.929 . S
C420 C417 1.424 . S
C420 C419 1.384 . S
C420 H438 0.928 . S
C421 C418 1.260 . S
C421 C419 1.479 . S
C422 C417 1.245 . S
C422 C418 1.477 . S
C422 H439 0.932 . S
C423 U406 2.869 1_545 S
C423 C417 1.428 . S
C423 O426 1.301 . S
C423 O427 1.282 . S
O424 U406 2.434 . S
O424 C410 1.249 1_565 S
O425 U406 2.393 1_545 S
O425 C410 1.202 . S
O426 U406 2.459 1_545 S
O426 C423 1.301 . S
O427 U406 2.425 1_545 S
O427 C423 1.282 . S
H428 C401 0.931 . S
H429 C403 0.929 . S
H430 C404 0.930 . S
H431 C405 0.931 1_565 S
H432 C412 0.932 . S
H433 C413 0.930 . S
H434 C414 0.929 . S
H435 C416 0.930 . S
H436 C418 0.932 . S
H437 C419 0.929 . S
H438 C420 0.928 . S
H439 C422 0.932 . S
C440 C441 1.264 . S
C440 C445 1.479 . S
C440 C450 1.465 . S
C441 C440 1.264 . S
C441 C443 1.339 . S
C441 H468 0.931 . S
C442 C443 1.395 . S
C442 C444 1.320 . S
C443 C441 1.339 . S
C443 C442 1.395 . S
C443 H469 0.929 . S
C444 C442 1.320 . S
C444 C445 1.405 . S
C444 H470 0.930 . S
C445 C440 1.479 . S
C445 C444 1.405 . S
C445 H471 0.931 . S
U446 O447 2.454 . S
U446 O448 2.458 . S
U446 C449 2.984 . S
U446 C450 2.847 . S
U446 C463 2.882 . S
U446 O464 2.441 . S
U446 O465 2.420 . S
U446 O466 2.455 . S
U446 O467 2.449 . S
O447 U446 2.454 . S
O447 C449 1.353 . S
O448 U446 2.458 . S
O448 C449 1.286 . S
C449 U446 2.984 . S
C449 O447 1.353 . S
C449 O448 1.286 . S
C449 C451 1.363 . S
C450 C440 1.465 . S
C450 U446 2.847 . S
C450 O464 1.249 . S
C450 O465 1.202 . S
C451 C449 1.363 . S
C451 C453 1.408 . S
C451 C456 1.342 . S
C452 C453 1.310 . S
C452 C455 1.461 . S
C452 H472 0.932 . S
C453 C451 1.408 . S
C453 C452 1.310 . S
C453 H473 0.930 . S
C454 C455 1.474 . S
C454 C456 1.285 . S
C454 H474 0.929 . S
C455 C452 1.461 . S
C455 C454 1.474 . S
C456 C451 1.342 . S
C456 C454 1.285 . S
C456 H475 0.930 . S
C457 C460 1.424 . S
C457 C462 1.245 . S
C457 C463 1.428 . S
C458 C461 1.260 . S
C458 C462 1.477 . S
C458 H476 0.932 . S
C459 C460 1.384 . S
C459 C461 1.479 . S
C459 H477 0.929 . S
C460 C457 1.424 . S
C460 C459 1.384 . S
C460 H478 0.928 . S
C461 C458 1.260 . S
C461 C459 1.479 . S
C462 C457 1.245 . S
C462 C458 1.477 . S
C462 H479 0.932 . S
C463 U446 2.882 . S
C463 C457 1.428 . S
C463 O466 1.301 . S
C463 O467 1.282 . S
O464 U446 2.441 . S
O464 C450 1.249 . S
O465 U446 2.420 . S
O465 C450 1.202 . S
O466 U446 2.455 . S
O466 C463 1.301 . S
O467 U446 2.449 . S
O467 C463 1.282 . S
H468 C441 0.931 . S
H469 C443 0.929 . S
H470 C444 0.930 . S
H471 C445 0.931 . S
H472 C452 0.932 . S
H473 C453 0.930 . S
H474 C454 0.929 . S
H475 C456 0.930 . S
H476 C458 0.932 . S
H477 C459 0.929 . S
H478 C460 0.928 . S
H479 C462 0.932 . S
C480 C481 1.264 . S
C480 C485 1.479 . S
C480 C490 1.465 . S
C481 C480 1.264 . S
C481 C483 1.339 . S
C481 H508 0.931 . S
C482 C483 1.395 . S
C482 C484 1.320 . S
C483 C481 1.339 . S
C483 C482 1.395 . S
C483 H509 0.929 . S
C484 C482 1.320 . S
C484 C485 1.405 . S
C484 H510 0.930 . S
C485 C480 1.479 . S
C485 C484 1.405 . S
C485 H511 0.931 . S
U486 O487 2.454 . S
U486 O488 2.458 . S
U486 C489 2.984 . S
U486 C490 2.847 . S
U486 C503 2.882 . S
U486 O504 2.441 . S
U486 O505 2.420 . S
U486 O506 2.455 . S
U486 O507 2.449 . S
O487 U486 2.454 . S
O487 C489 1.353 . S
O488 U486 2.458 . S
O488 C489 1.286 . S
C489 U486 2.984 . S
C489 O487 1.353 . S
C489 O488 1.286 . S
C489 C491 1.363 . S
C490 C480 1.465 . S
C490 U486 2.847 . S
C490 O504 1.249 . S
C490 O505 1.202 . S
C491 C489 1.363 . S
C491 C493 1.408 . S
C491 C496 1.342 . S
C492 C493 1.310 . S
C492 C495 1.461 . S
C492 H512 0.932 . S
C493 C491 1.408 . S
C493 C492 1.310 . S
C493 H513 0.930 . S
C494 C495 1.474 . S
C494 C496 1.285 . S
C494 H514 0.929 . S
C495 C492 1.461 . S
C495 C494 1.474 . S
C496 C491 1.342 . S
C496 C494 1.285 . S
C496 H515 0.930 . S
C497 C500 1.424 . S
C497 C502 1.245 . S
C497 C503 1.428 . S
C498 C501 1.260 . S
C498 C502 1.477 . S
C498 H516 0.932 . S
C499 C500 1.384 . S
C499 C501 1.479 . S
C499 H517 0.929 . S
C500 C497 1.424 . S
C500 C499 1.384 . S
C500 H518 0.928 . S
C501 C498 1.260 . S
C501 C499 1.479 . S
C502 C497 1.245 . S
C502 C498 1.477 . S
C502 H519 0.932 . S
C503 U486 2.882 . S
C503 C497 1.428 . S
C503 O506 1.301 . S
C503 O507 1.282 . S
O504 U486 2.441 . S
O504 C490 1.249 . S
O505 U486 2.420 . S
O505 C490 1.202 . S
O506 U486 2.455 . S
O506 C503 1.301 . S
O507 U486 2.449 . S
O507 C503 1.282 . S
H508 C481 0.931 . S
H509 C483 0.929 . S
H510 C484 0.930 . S
H511 C485 0.931 . S
H512 C492 0.932 . S
H513 C493 0.930 . S
H514 C494 0.929 . S
H515 C496 0.930 . S
H516 C498 0.932 . S
H517 C499 0.929 . S
H518 C500 0.928 . S
H519 C502 0.932 . S
C520 C521 1.264 . S
C520 C525 1.479 . S
C520 C530 1.465 . S
C521 C520 1.264 . S
C521 C523 1.339 . S
C521 H548 0.931 . S
C522 C523 1.395 . S
C522 C524 1.320 . S
C523 C521 1.339 . S
C523 C522 1.395 . S
C523 H549 0.929 . S
C524 C522 1.320 . S
C524 C525 1.405 . S
C524 H550 0.930 . S
C525 C520 1.479 . S
C525 C524 1.405 . S
C525 H551 0.931 . S
U526 O527 2.454 . S
U526 O528 2.458 . S
U526 C529 2.984 . S
U526 C530 2.847 . S
U526 C543 2.882 . S
U526 O544 2.441 . S
U526 O545 2.420 . S
U526 O546 2.455 . S
U526 O547 2.449 . S
O527 U526 2.454 . S
O527 C529 1.353 . S
O528 U526 2.458 . S
O528 C529 1.286 . S
C529 U526 2.984 . S
C529 O527 1.353 . S
C529 O528 1.286 . S
C529 C531 1.363 . S
C530 C520 1.465 . S
C530 U526 2.847 . S
C530 O544 1.249 . S
C530 O545 1.202 . S
C531 C529 1.363 . S
C531 C533 1.408 . S
C531 C536 1.342 . S
C532 C533 1.310 . S
C532 C535 1.461 . S
C532 H552 0.932 . S
C533 C531 1.408 . S
C533 C532 1.310 . S
C533 H553 0.930 . S
C534 C535 1.474 . S
C534 C536 1.285 . S
C534 H554 0.929 . S
C535 C532 1.461 . S
C535 C534 1.474 . S
C536 C531 1.342 . S
C536 C534 1.285 . S
C536 H555 0.930 . S
C537 C540 1.424 . S
C537 C542 1.245 . S
C537 C543 1.428 . S
C538 C541 1.260 . S
C538 C542 1.477 . S
C538 H556 0.932 . S
C539 C540 1.384 . S
C539 C541 1.479 . S
C539 H557 0.929 . S
C540 C537 1.424 . S
C540 C539 1.384 . S
C540 H558 0.928 . S
C541 C538 1.260 . S
C541 C539 1.479 . S
C542 C537 1.245 . S
C542 C538 1.477 . S
C542 H559 0.932 . S
C543 U526 2.882 . S
C543 C537 1.428 . S
C543 O546 1.301 . S
C543 O547 1.282 . S
O544 U526 2.441 . S
O544 C530 1.249 . S
O545 U526 2.420 . S
O545 C530 1.202 . S
O546 U526 2.455 . S
O546 C543 1.301 . S
O547 U526 2.449 . S
O547 C543 1.282 . S
H548 C521 0.931 . S
H549 C523 0.929 . S
H550 C524 0.930 . S
H551 C525 0.931 . S
H552 C532 0.932 . S
H553 C533 0.930 . S
H554 C534 0.929 . S
H555 C536 0.930 . S
H556 C538 0.932 . S
H557 C539 0.929 . S
H558 C540 0.928 . S
H559 C542 0.932 . S
C560 C561 1.264 . S
C560 C565 1.479 . S
C560 C570 1.465 . S
C561 C560 1.264 . S
C561 C563 1.339 . S
C561 H588 0.931 . S
C562 C563 1.395 . S
C562 C564 1.320 . S
C563 C561 1.339 . S
C563 C562 1.395 . S
C563 H589 0.929 . S
C564 C562 1.320 . S
C564 C565 1.405 . S
C564 H590 0.930 . S
C565 C560 1.479 . S
C565 C564 1.405 . S
C565 H591 0.931 . S
U566 O567 2.454 . S
U566 O568 2.458 . S
U566 C569 2.984 . S
U566 C570 2.847 . S
U566 C583 2.882 . S
U566 O584 2.441 . S
U566 O585 2.420 . S
U566 O586 2.455 . S
U566 O587 2.449 . S
O567 U566 2.454 . S
O567 C569 1.353 . S
O568 U566 2.458 . S
O568 C569 1.286 . S
C569 U566 2.984 . S
C569 O567 1.353 . S
C569 O568 1.286 . S
C569 C571 1.363 . S
C570 C560 1.465 . S
C570 U566 2.847 . S
C570 O584 1.249 . S
C570 O585 1.202 . S
C571 C569 1.363 . S
C571 C573 1.408 . S
C571 C576 1.342 . S
C572 C573 1.310 . S
C572 C575 1.461 . S
C572 H592 0.932 . S
C573 C571 1.408 . S
C573 C572 1.310 . S
C573 H593 0.930 . S
C574 C575 1.474 . S
C574 C576 1.285 . S
C574 H594 0.929 . S
C575 C572 1.461 . S
C575 C574 1.474 . S
C576 C571 1.342 . S
C576 C574 1.285 . S
C576 H595 0.930 . S
C577 C580 1.424 . S
C577 C582 1.245 . S
C577 C583 1.428 . S
C578 C581 1.260 . S
C578 C582 1.477 . S
C578 H596 0.932 . S
C579 C580 1.384 . S
C579 C581 1.479 . S
C579 H597 0.929 . S
C580 C577 1.424 . S
C580 C579 1.384 . S
C580 H598 0.928 . S
C581 C578 1.260 . S
C581 C579 1.479 . S
C582 C577 1.245 . S
C582 C578 1.477 . S
C582 H599 0.932 . S
C583 U566 2.882 . S
C583 C577 1.428 . S
C583 O586 1.301 . S
C583 O587 1.282 . S
O584 U566 2.441 . S
O584 C570 1.249 . S
O585 U566 2.420 . S
O585 C570 1.202 . S
O586 U566 2.455 . S
O586 C583 1.301 . S
O587 U566 2.449 . S
O587 C583 1.282 . S
H588 C561 0.931 . S
H589 C563 0.929 . S
H590 C564 0.930 . S
H591 C565 0.931 . S
H592 C572 0.932 . S
H593 C573 0.930 . S
H594 C574 0.929 . S
H595 C576 0.930 . S
H596 C578 0.932 . S
H597 C579 0.929 . S
H598 C580 0.928 . S
H599 C582 0.932 . S
C600 C601 1.264 . S
C600 C605 1.479 . S
C600 C610 1.465 . S
C601 C600 1.264 . S
C601 C603 1.339 . S
C601 H628 0.931 . S
C602 C603 1.395 . S
C602 C604 1.320 . S
C603 C601 1.339 . S
C603 C602 1.395 . S
C603 H629 0.929 . S
C604 C602 1.320 . S
C604 C605 1.405 . S
C604 H630 0.930 . S
C605 C600 1.479 . S
C605 C604 1.405 . S
C605 H631 0.931 . S
U606 O607 2.454 . S
U606 O608 2.458 . S
U606 C609 2.984 . S
U606 C610 2.847 . S
U606 C623 2.882 . S
U606 O624 2.441 . S
U606 O625 2.420 . S
U606 O626 2.455 . S
U606 O627 2.449 . S
O607 U606 2.454 . S
O607 C609 1.353 . S
O608 U606 2.458 . S
O608 C609 1.286 . S
C609 U606 2.984 . S
C609 O607 1.353 . S
C609 O608 1.286 . S
C609 C611 1.363 . S
C610 C600 1.465 . S
C610 U606 2.847 . S
C610 O624 1.249 . S
C610 O625 1.202 . S
C611 C609 1.363 . S
C611 C613 1.408 . S
C611 C616 1.342 . S
C612 C613 1.310 . S
C612 C615 1.461 . S
C612 H632 0.932 . S
C613 C611 1.408 . S
C613 C612 1.310 . S
C613 H633 0.930 . S
C614 C615 1.474 . S
C614 C616 1.285 . S
C614 H634 0.929 . S
C615 C612 1.461 . S
C615 C614 1.474 . S
C616 C611 1.342 . S
C616 C614 1.285 . S
C616 H635 0.930 . S
C617 C620 1.424 . S
C617 C622 1.245 . S
C617 C623 1.428 . S
C618 C621 1.260 . S
C618 C622 1.477 . S
C618 H636 0.932 . S
C619 C620 1.384 . S
C619 C621 1.479 . S
C619 H637 0.929 . S
C620 C617 1.424 . S
C620 C619 1.384 . S
C620 H638 0.928 . S
C621 C618 1.260 . S
C621 C619 1.479 . S
C622 C617 1.245 . S
C622 C618 1.477 . S
C622 H639 0.932 . S
C623 U606 2.882 . S
C623 C617 1.428 . S
C623 O626 1.301 . S
C623 O627 1.282 . S
O624 U606 2.441 . S
O624 C610 1.249 . S
O625 U606 2.420 . S
O625 C610 1.202 . S
O626 U606 2.455 . S
O626 C623 1.301 . S
O627 U606 2.449 . S
O627 C623 1.282 . S
H628 C601 0.931 . S
H629 C603 0.929 . S
H630 C604 0.930 . S
H631 C605 0.931 . S
H632 C612 0.932 . S
H633 C613 0.930 . S
H634 C614 0.929 . S
H635 C616 0.930 . S
H636 C618 0.932 . S
H637 C619 0.929 . S
H638 C620 0.928 . S
H639 C622 0.932 . S
C640 C641 1.264 . S
C640 C645 1.479 . S
C640 C650 1.465 . S
C641 C640 1.264 . S
C641 C643 1.339 . S
C641 H668 0.931 . S
C642 C643 1.395 . S
C642 C644 1.320 . S
C643 C641 1.339 . S
C643 C642 1.395 . S
C643 H669 0.929 . S
C644 C642 1.320 . S
C644 C645 1.405 . S
C644 H670 0.930 . S
C645 C640 1.479 . S
C645 C644 1.405 . S
C645 H671 0.931 . S
U646 O647 2.454 . S
U646 O648 2.458 . S
U646 C649 2.984 . S
U646 C650 2.847 . S
U646 C663 2.882 . S
U646 O664 2.441 . S
U646 O665 2.420 . S
U646 O666 2.455 . S
U646 O667 2.449 . S
O647 U646 2.454 . S
O647 C649 1.353 . S
O648 U646 2.458 . S
O648 C649 1.286 . S
C649 U646 2.984 . S
C649 O647 1.353 . S
C649 O648 1.286 . S
C649 C651 1.363 . S
C650 C640 1.465 . S
C650 U646 2.847 . S
C650 O664 1.249 . S
C650 O665 1.202 . S
C651 C649 1.363 . S
C651 C653 1.408 . S
C651 C656 1.342 . S
C652 C653 1.310 . S
C652 C655 1.461 . S
C652 H672 0.932 . S
C653 C651 1.408 . S
C653 C652 1.310 . S
C653 H673 0.930 . S
C654 C655 1.474 . S
C654 C656 1.285 . S
C654 H674 0.929 . S
C655 C652 1.461 . S
C655 C654 1.474 . S
C656 C651 1.342 . S
C656 C654 1.285 . S
C656 H675 0.930 . S
C657 C660 1.424 . S
C657 C662 1.245 . S
C657 C663 1.428 . S
C658 C661 1.260 . S
C658 C662 1.477 . S
C658 H676 0.932 . S
C659 C660 1.384 . S
C659 C661 1.479 . S
C659 H677 0.929 . S
C660 C657 1.424 . S
C660 C659 1.384 . S
C660 H678 0.928 . S
C661 C658 1.260 . S
C661 C659 1.479 . S
C662 C657 1.245 . S
C662 C658 1.477 . S
C662 H679 0.932 . S
C663 U646 2.882 . S
C663 C657 1.428 . S
C663 O666 1.301 . S
C663 O667 1.282 . S
O664 U646 2.441 . S
O664 C650 1.249 . S
O665 U646 2.420 . S
O665 C650 1.202 . S
O666 U646 2.455 . S
O666 C663 1.301 . S
O667 U646 2.449 . S
O667 C663 1.282 . S
H668 C641 0.931 . S
H669 C643 0.929 . S
H670 C644 0.930 . S
H671 C645 0.931 . S
H672 C652 0.932 . S
H673 C653 0.930 . S
H674 C654 0.929 . S
H675 C656 0.930 . S
H676 C658 0.932 . S
H677 C659 0.929 . S
H678 C660 0.928 . S
H679 C662 0.932 . S
C680 C681 1.264 . S
C680 C685 1.479 . S
C680 C690 1.465 . S
C681 C680 1.264 . S
C681 C683 1.339 . S
C681 H708 0.931 . S
C682 C683 1.395 . S
C682 C684 1.320 . S
C683 C681 1.339 . S
C683 C682 1.395 . S
C683 H709 0.929 . S
C684 C682 1.320 . S
C684 C685 1.405 . S
C684 H710 0.930 . S
C685 C680 1.479 . S
C685 C684 1.405 . S
C685 H711 0.931 . S
U686 O687 2.454 . S
U686 O688 2.458 . S
U686 C689 2.984 . S
U686 C690 2.847 . S
U686 C703 2.882 . S
U686 O704 2.441 . S
U686 O705 2.420 . S
U686 O706 2.455 . S
U686 O707 2.449 . S
O687 U686 2.454 . S
O687 C689 1.353 . S
O688 U686 2.458 . S
O688 C689 1.286 . S
C689 U686 2.984 . S
C689 O687 1.353 . S
C689 O688 1.286 . S
C689 C691 1.363 . S
C690 C680 1.465 . S
C690 U686 2.847 . S
C690 O704 1.249 . S
C690 O705 1.202 . S
C691 C689 1.363 . S
C691 C693 1.408 . S
C691 C696 1.342 . S
C692 C693 1.310 . S
C692 C695 1.461 . S
C692 H712 0.932 . S
C693 C691 1.408 . S
C693 C692 1.310 . S
C693 H713 0.930 . S
C694 C695 1.474 . S
C694 C696 1.285 . S
C694 H714 0.929 . S
C695 C692 1.461 . S
C695 C694 1.474 . S
C696 C691 1.342 . S
C696 C694 1.285 . S
C696 H715 0.930 . S
C697 C700 1.424 . S
C697 C702 1.245 . S
C697 C703 1.428 . S
C698 C701 1.260 . S
C698 C702 1.477 . S
C698 H716 0.932 . S
C699 C700 1.384 . S
C699 C701 1.479 . S
C699 H717 0.929 . S
C700 C697 1.424 . S
C700 C699 1.384 . S
C700 H718 0.928 . S
C701 C698 1.260 . S
C701 C699 1.479 . S
C702 C697 1.245 . S
C702 C698 1.477 . S
C702 H719 0.932 . S
C703 U686 2.882 . S
C703 C697 1.428 . S
C703 O706 1.301 . S
C703 O707 1.282 . S
O704 U686 2.441 . S
O704 C690 1.249 . S
O705 U686 2.420 . S
O705 C690 1.202 . S
O706 U686 2.455 . S
O706 C703 1.301 . S
O707 U686 2.449 . S
O707 C703 1.282 . S
H708 C681 0.931 . S
H709 C683 0.929 . S
H710 C684 0.930 . S
H711 C685 0.931 . S
H712 C692 0.932 . S
H713 C693 0.930 . S
H714 C694 0.929 . S
H715 C696 0.930 . S
H716 C698 0.932 . S
H717 C699 0.929 . S
H718 C700 0.928 . S
H719 C702 0.932 . S
C720 C721 1.264 . S
C720 C725 1.479 . S
C720 C730 1.465 . S
C721 C720 1.264 . S
C721 C723 1.339 . S
C721 H748 0.931 . S
C722 C723 1.395 . S
C722 C724 1.320 . S
C723 C721 1.339 . S
C723 C722 1.395 . S
C723 H749 0.929 . S
C724 C722 1.320 . S
C724 C725 1.405 . S
C724 H750 0.930 . S
C725 C720 1.479 . S
C725 C724 1.405 . S
C725 H751 0.931 . S
U726 O727 2.454 . S
U726 O728 2.458 . S
U726 C729 2.984 . S
U726 C730 2.847 . S
U726 C743 2.882 . S
U726 O744 2.441 . S
U726 O745 2.420 . S
U726 O746 2.455 . S
U726 O747 2.449 . S
O727 U726 2.454 . S
O727 C729 1.353 . S
O728 U726 2.458 . S
O728 C729 1.286 . S
C729 U726 2.984 . S
C729 O727 1.353 . S
C729 O728 1.286 . S
C729 C731 1.363 . S
C730 C720 1.465 . S
C730 U726 2.847 . S
C730 O744 1.249 . S
C730 O745 1.202 . S
C731 C729 1.363 . S
C731 C733 1.408 . S
C731 C736 1.342 . S
C732 C733 1.310 . S
C732 C735 1.461 . S
C732 H752 0.932 . S
C733 C731 1.408 . S
C733 C732 1.310 . S
C733 H753 0.930 . S
C734 C735 1.474 . S
C734 C736 1.285 . S
C734 H754 0.929 . S
C735 C732 1.461 . S
C735 C734 1.474 . S
C736 C731 1.342 . S
C736 C734 1.285 . S
C736 H755 0.930 . S
C737 C740 1.424 . S
C737 C742 1.245 . S
C737 C743 1.428 . S
C738 C741 1.260 . S
C738 C742 1.477 . S
C738 H756 0.932 . S
C739 C740 1.384 . S
C739 C741 1.479 . S
C739 H757 0.929 . S
C740 C737 1.424 . S
C740 C739 1.384 . S
C740 H758 0.928 . S
C741 C738 1.260 . S
C741 C739 1.479 . S
C742 C737 1.245 . S
C742 C738 1.477 . S
C742 H759 0.932 . S
C743 U726 2.882 . S
C743 C737 1.428 . S
C743 O746 1.301 . S
C743 O747 1.282 . S
O744 U726 2.441 . S
O744 C730 1.249 . S
O745 U726 2.420 . S
O745 C730 1.202 . S
O746 U726 2.455 . S
O746 C743 1.301 . S
O747 U726 2.449 . S
O747 C743 1.282 . S
H748 C721 0.931 . S
H749 C723 0.929 . S
H750 C724 0.930 . S
H751 C725 0.931 . S
H752 C732 0.932 . S
H753 C733 0.930 . S
H754 C734 0.929 . S
H755 C736 0.930 . S
H756 C738 0.932 . S
H757 C739 0.929 . S
H758 C740 0.928 . S
H759 C742 0.932 . S
C760 C761 1.264 . S
C760 C765 1.479 . S
C760 C770 1.465 . S
C761 C760 1.264 . S
C761 C763 1.339 . S
C761 H788 0.931 . S
C762 C763 1.395 . S
C762 C764 1.320 . S
C763 C761 1.339 . S
C763 C762 1.395 . S
C763 H789 0.929 . S
C764 C762 1.320 . S
C764 C765 1.405 . S
C764 H790 0.930 . S
C765 C760 1.479 . S
C765 C764 1.405 . S
C765 H791 0.931 . S
U766 O767 2.454 . S
U766 O768 2.458 . S
U766 C769 3.052 . S
U766 C770 2.847 . S
U766 C783 2.882 . S
U766 O784 2.441 . S
U766 O785 2.420 . S
U766 O786 2.455 . S
U766 O787 2.449 . S
O767 U766 2.454 . S
O767 C769 1.408 . S
O768 U766 2.458 . S
O768 C769 1.323 . S
C769 U766 3.052 . S
C769 O767 1.408 . S
C769 O768 1.323 . S
C769 C771 1.296 1_655 S
C770 C760 1.465 . S
C770 U766 2.847 . S
C770 O784 1.249 . S
C770 O785 1.202 . S
C771 C769 1.296 1_455 S
C771 C773 1.408 . S
C771 C776 1.342 . S
C772 C773 1.310 . S
C772 C775 1.461 . S
C772 H792 0.932 . S
C773 C771 1.408 . S
C773 C772 1.310 . S
C773 H793 0.930 . S
C774 C775 1.474 . S
C774 C776 1.285 . S
C774 H794 0.929 . S
C775 C772 1.461 . S
C775 C774 1.474 . S
C776 C771 1.342 . S
C776 C774 1.285 . S
C776 H795 0.930 . S
C777 C780 1.424 . S
C777 C782 1.245 . S
C777 C783 1.428 . S
C778 C781 1.260 . S
C778 C782 1.477 . S
C778 H796 0.932 . S
C779 C780 1.384 . S
C779 C781 1.479 . S
C779 H797 0.929 . S
C780 C777 1.424 . S
C780 C779 1.384 . S
C780 H798 0.928 . S
C781 C778 1.260 . S
C781 C779 1.479 . S
C782 C777 1.245 . S
C782 C778 1.477 . S
C782 H799 0.932 . S
C783 U766 2.882 . S
C783 C777 1.428 . S
C783 O786 1.301 . S
C783 O787 1.282 . S
O784 U766 2.441 . S
O784 C770 1.249 . S
O785 U766 2.420 . S
O785 C770 1.202 . S
O786 U766 2.455 . S
O786 C783 1.301 . S
O787 U766 2.449 . S
O787 C783 1.282 . S
H788 C761 0.931 . S
H789 C763 0.929 . S
H790 C764 0.930 . S
H791 C765 0.931 . S
H792 C772 0.932 . S
H793 C773 0.930 . S
H794 C774 0.929 . S
H795 C776 0.930 . S
H796 C778 0.932 . S
H797 C779 0.929 . S
H798 C780 0.928 . S
H799 C782 0.932 . S
C800 C801 1.264 . S
C800 C805 1.479 . S
C800 C810 1.465 . S
C801 C800 1.264 . S
C801 C803 1.339 . S
C801 H828 0.931 . S
C802 C803 1.395 . S
C802 C804 1.320 . S
C803 C801 1.339 . S
C803 C802 1.395 . S
C803 H829 0.929 . S
C804 C802 1.320 . S
C804 C805 1.405 . S
C804 H830 0.930 . S
C805 C800 1.479 . S
C805 C804 1.405 . S
C805 H831 0.931 . S
U806 O807 2.454 . S
U806 O808 2.458 . S
U806 C809 2.984 . S
U806 C810 2.847 . S
U806 C823 2.882 . S
U806 O824 2.441 . S
U806 O825 2.420 . S
U806 O826 2.455 . S
U806 O827 2.449 . S
O807 U806 2.454 . S
O807 C809 1.353 . S
O808 U806 2.458 . S
O808 C809 1.286 . S
C809 U806 2.984 . S
C809 O807 1.353 . S
C809 O808 1.286 . S
C809 C811 1.363 . S
C810 C800 1.465 . S
C810 U806 2.847 . S
C810 O824 1.249 . S
C810 O825 1.202 . S
C811 C809 1.363 . S
C811 C813 1.408 . S
C811 C816 1.342 1_655 S
C812 C813 1.310 1_455 S
C812 C815 1.461 . S
C812 H832 0.932 . S
C813 C811 1.408 . S
C813 C812 1.310 1_655 S
C813 H833 0.930 . S
C814 C815 1.474 . S
C814 C816 1.285 . S
C814 H834 0.929 . S
C815 C812 1.461 . S
C815 C814 1.474 . S
C816 C811 1.342 1_455 S
C816 C814 1.285 . S
C816 H835 0.930 . S
C817 C820 1.424 . S
C817 C822 1.245 . S
C817 C823 1.428 . S
C818 C821 1.260 . S
C818 C822 1.477 . S
C818 H836 0.932 . S
C819 C820 1.384 . S
C819 C821 1.479 . S
C819 H837 0.929 . S
C820 C817 1.424 . S
C820 C819 1.384 . S
C820 H838 0.928 . S
C821 C818 1.260 . S
C821 C819 1.479 . S
C822 C817 1.245 . S
C822 C818 1.477 . S
C822 H839 0.932 . S
C823 U806 2.882 . S
C823 C817 1.428 . S
C823 O826 1.301 . S
C823 O827 1.282 . S
O824 U806 2.441 . S
O824 C810 1.249 . S
O825 U806 2.420 . S
O825 C810 1.202 . S
O826 U806 2.455 . S
O826 C823 1.301 . S
O827 U806 2.449 . S
O827 C823 1.282 . S
H828 C801 0.931 . S
H829 C803 0.929 . S
H830 C804 0.930 . S
H831 C805 0.931 . S
H832 C812 0.932 . S
H833 C813 0.930 . S
H834 C814 0.929 . S
H835 C816 0.930 . S
H836 C818 0.932 . S
H837 C819 0.929 . S
H838 C820 0.928 . S
H839 C822 0.932 . S
C840 C841 1.264 . S
C840 C845 1.479 . S
C840 C850 1.465 . S
C841 C840 1.264 . S
C841 C843 1.339 . S
C841 H868 0.931 . S
C842 C843 1.395 . S
C842 C844 1.320 . S
C843 C841 1.339 . S
C843 C842 1.395 . S
C843 H869 0.929 . S
C844 C842 1.320 . S
C844 C845 1.405 . S
C844 H870 0.930 . S
C845 C840 1.479 . S
C845 C844 1.405 . S
C845 H871 0.931 . S
U846 O847 2.454 . S
U846 O848 2.458 . S
U846 C849 2.984 . S
U846 C850 2.847 . S
U846 C863 2.882 . S
U846 O864 2.441 . S
U846 O865 2.420 . S
U846 O866 2.455 . S
U846 O867 2.449 . S
O847 U846 2.454 . S
O847 C849 1.353 . S
O848 U846 2.458 . S
O848 C849 1.286 . S
C849 U846 2.984 . S
C849 O847 1.353 . S
C849 O848 1.286 . S
C849 C851 1.363 . S
C850 C840 1.465 . S
C850 U846 2.847 . S
C850 O864 1.249 . S
C850 O865 1.202 . S
C851 C849 1.363 . S
C851 C853 1.408 . S
C851 C856 1.342 . S
C852 C853 1.310 . S
C852 C855 1.461 . S
C852 H872 0.932 . S
C853 C851 1.408 . S
C853 C852 1.310 . S
C853 H873 0.930 . S
C854 C855 1.474 . S
C854 C856 1.285 . S
C854 H874 0.929 . S
C855 C852 1.461 . S
C855 C854 1.474 . S
C856 C851 1.342 . S
C856 C854 1.285 . S
C856 H875 0.930 . S
C857 C860 1.424 . S
C857 C862 1.245 . S
C857 C863 1.428 . S
C858 C861 1.260 . S
C858 C862 1.477 . S
C858 H876 0.932 . S
C859 C860 1.384 . S
C859 C861 1.479 . S
C859 H877 0.929 . S
C860 C857 1.424 . S
C860 C859 1.384 . S
C860 H878 0.928 . S
C861 C858 1.260 . S
C861 C859 1.479 . S
C862 C857 1.245 . S
C862 C858 1.477 . S
C862 H879 0.932 . S
C863 U846 2.882 . S
C863 C857 1.428 . S
C863 O866 1.301 . S
C863 O867 1.282 . S
O864 U846 2.441 . S
O864 C850 1.249 . S
O865 U846 2.420 . S
O865 C850 1.202 . S
O866 U846 2.455 . S
O866 C863 1.301 . S
O867 U846 2.449 . S
O867 C863 1.282 . S
H868 C841 0.931 . S
H869 C843 0.929 . S
H870 C844 0.930 . S
H871 C845 0.931 . S
H872 C852 0.932 . S
H873 C853 0.930 . S
H874 C854 0.929 . S
H875 C856 0.930 . S
H876 C858 0.932 . S
H877 C859 0.929 . S
H878 C860 0.928 . S
H879 C862 0.932 . S
C880 C881 1.264 . S
C880 C885 1.479 . S
C880 C890 1.465 . S
C881 C880 1.264 . S
C881 C883 1.339 . S
C881 H908 0.931 . S
C882 C883 1.395 . S
C882 C884 1.320 . S
C883 C881 1.339 . S
C883 C882 1.395 . S
C883 H909 0.929 . S
C884 C882 1.320 . S
C884 C885 1.405 . S
C884 H910 0.930 . S
C885 C880 1.479 . S
C885 C884 1.405 . S
C885 H911 0.931 . S
U886 O887 2.454 . S
U886 O888 2.458 . S
U886 C889 2.984 . S
U886 C890 2.847 . S
U886 C903 2.882 . S
U886 O904 2.441 . S
U886 O905 2.420 . S
U886 O906 2.455 . S
U886 O907 2.449 . S
O887 U886 2.454 . S
O887 C889 1.353 . S
O888 U886 2.458 . S
O888 C889 1.286 . S
C889 U886 2.984 . S
C889 O887 1.353 . S
C889 O888 1.286 . S
C889 C891 1.363 . S
C890 C880 1.465 . S
C890 U886 2.847 . S
C890 O904 1.249 . S
C890 O905 1.202 . S
C891 C889 1.363 . S
C891 C893 1.408 . S
C891 C896 1.342 . S
C892 C893 1.310 . S
C892 C895 1.461 . S
C892 H912 0.932 . S
C893 C891 1.408 . S
C893 C892 1.310 . S
C893 H913 0.930 . S
C894 C895 1.474 . S
C894 C896 1.285 . S
C894 H914 0.929 . S
C895 C892 1.461 . S
C895 C894 1.474 . S
C896 C891 1.342 . S
C896 C894 1.285 . S
C896 H915 0.930 . S
C897 C900 1.424 . S
C897 C902 1.245 . S
C897 C903 1.428 . S
C898 C901 1.260 . S
C898 C902 1.477 . S
C898 H916 0.932 . S
C899 C900 1.384 . S
C899 C901 1.479 . S
C899 H917 0.929 . S
C900 C897 1.424 . S
C900 C899 1.384 . S
C900 H918 0.928 . S
C901 C898 1.260 . S
C901 C899 1.479 . S
C902 C897 1.245 . S
C902 C898 1.477 . S
C902 H919 0.932 . S
C903 U886 2.882 . S
C903 C897 1.428 . S
C903 O906 1.301 . S
C903 O907 1.282 . S
O904 U886 2.441 . S
O904 C890 1.249 . S
O905 U886 2.420 . S
O905 C890 1.202 . S
O906 U886 2.455 . S
O906 C903 1.301 . S
O907 U886 2.449 . S
O907 C903 1.282 . S
H908 C881 0.931 . S
H909 C883 0.929 . S
H910 C884 0.930 . S
H911 C885 0.931 . S
H912 C892 0.932 . S
H913 C893 0.930 . S
H914 C894 0.929 . S
H915 C896 0.930 . S
H916 C898 0.932 . S
H917 C899 0.929 . S
H918 C900 0.928 . S
H919 C902 0.932 . S
C920 C921 1.264 . S
C920 C925 1.479 . S
C920 C930 1.465 . S
C921 C920 1.264 . S
C921 C923 1.339 . S
C921 H948 0.931 . S
C922 C923 1.395 . S
C922 C924 1.320 . S
C923 C921 1.339 . S
C923 C922 1.395 . S
C923 H949 0.929 . S
C924 C922 1.320 . S
C924 C925 1.405 . S
C924 H950 0.930 . S
C925 C920 1.479 . S
C925 C924 1.405 . S
C925 H951 0.931 . S
U926 O927 2.454 . S
U926 O928 2.458 . S
U926 C929 2.984 . S
U926 C930 2.847 . S
U926 C943 2.882 . S
U926 O944 2.441 . S
U926 O945 2.420 . S
U926 O946 2.455 . S
U926 O947 2.449 . S
O927 U926 2.454 . S
O927 C929 1.353 . S
O928 U926 2.458 . S
O928 C929 1.286 . S
C929 U926 2.984 . S
C929 O927 1.353 . S
C929 O928 1.286 . S
C929 C931 1.363 . S
C930 C920 1.465 . S
C930 U926 2.847 . S
C930 O944 1.249 . S
C930 O945 1.202 . S
C931 C929 1.363 . S
C931 C933 1.408 . S
C931 C936 1.342 . S
C932 C933 1.310 . S
C932 C935 1.461 . S
C932 H952 0.932 . S
C933 C931 1.408 . S
C933 C932 1.310 . S
C933 H953 0.930 . S
C934 C935 1.474 . S
C934 C936 1.285 . S
C934 H954 0.929 . S
C935 C932 1.461 . S
C935 C934 1.474 . S
C936 C931 1.342 . S
C936 C934 1.285 . S
C936 H955 0.930 . S
C937 C940 1.424 . S
C937 C942 1.245 . S
C937 C943 1.428 . S
C938 C941 1.260 . S
C938 C942 1.477 . S
C938 H956 0.932 . S
C939 C940 1.384 . S
C939 C941 1.479 . S
C939 H957 0.929 . S
C940 C937 1.424 . S
C940 C939 1.384 . S
C940 H958 0.928 . S
C941 C938 1.260 . S
C941 C939 1.479 . S
C942 C937 1.245 . S
C942 C938 1.477 . S
C942 H959 0.932 . S
C943 U926 2.882 . S
C943 C937 1.428 . S
C943 O946 1.301 . S
C943 O947 1.282 . S
O944 U926 2.441 . S
O944 C930 1.249 . S
O945 U926 2.420 . S
O945 C930 1.202 . S
O946 U926 2.455 . S
O946 C943 1.301 . S
O947 U926 2.449 . S
O947 C943 1.282 . S
H948 C921 0.931 . S
H949 C923 0.929 . S
H950 C924 0.930 . S
H951 C925 0.931 . S
H952 C932 0.932 . S
H953 C933 0.930 . S
H954 C934 0.929 . S
H955 C936 0.930 . S
H956 C938 0.932 . S
H957 C939 0.929 . S
H958 C940 0.928 . S
H959 C942 0.932 . S
H960 C966 0.930 . S
H961 C969 0.930 . S
H962 C970 0.930 . S
H963 C971 0.930 . S
H964 C974 0.930 . S
H965 C975 0.949 . S
C966 H960 0.930 . S
C966 C967 1.355 . S
C966 C968 1.415 . S
C967 C966 1.355 . S
C967 C969 1.419 . S
C968 C966 1.415 . S
C968 C973 1.425 . S
C968 C975 1.383 1_455 S
C969 H961 0.930 . S
C969 C967 1.419 . S
C969 C970 1.362 . S
C970 H962 0.930 . S
C970 C969 1.362 . S
C970 C973 1.409 . S
C971 H963 0.930 . S
C971 C972 1.355 . S
C971 C973 1.415 . S
C972 C971 1.355 . S
C972 C974 1.419 1_455 S
C973 C968 1.425 . S
C973 C970 1.409 . S
C973 C971 1.415 . S
C974 H964 0.930 . S
C974 C972 1.419 1_655 S
C974 C975 1.371 . S
C975 H965 0.949 . S
C975 C968 1.383 1_655 S
C975 C974 1.371 . S
H976 C982 0.930 . S
H977 C985 0.930 . S
H978 C986 0.930 . S
H979 C987 0.930 . S
H980 C990 0.930 . S
H981 C991 0.930 . S
C982 H976 0.930 . S
C982 C983 1.355 . S
C982 C984 1.415 . S
C983 C982 1.355 . S
C983 C985 1.419 . S
C984 C982 1.415 . S
C984 C989 1.425 . S
C984 C991 1.409 . S
C985 H977 0.930 . S
C985 C983 1.419 . S
C985 C986 1.362 . S
C986 H978 0.930 . S
C986 C985 1.362 . S
C986 C989 1.409 . S
C987 H979 0.930 . S
C987 C988 1.355 . S
C987 C989 1.415 . S
C988 C987 1.355 . S
C988 C990 1.419 . S
C989 C984 1.425 . S
C989 C986 1.409 . S
C989 C987 1.415 . S
C990 H980 0.930 . S
C990 C988 1.419 . S
C990 C991 1.362 . S
C991 H981 0.930 . S
C991 C984 1.409 . S
C991 C990 1.362 . S
H992 C998 0.930 . S
H993 C1001 0.930 . S
H994 C1002 0.930 . S
H995 C1003 0.930 . S
H996 C1006 0.930 . S
H997 C1007 0.930 . S
C998 H992 0.930 . S
C998 C999 1.355 . S
C998 C1000 1.415 . S
C999 C998 1.355 . S
C999 C1001 1.419 . S
C1000 C998 1.415 . S
C1000 C1005 1.425 . S
C1000 C1007 1.409 . S
C1001 H993 0.930 . S
C1001 C999 1.419 . S
C1001 C1002 1.362 . S
C1002 H994 0.930 . S
C1002 C1001 1.362 . S
C1002 C1005 1.409 . S
C1003 H995 0.930 . S
C1003 C1004 1.355 . S
C1003 C1005 1.415 . S
C1004 C1003 1.355 . S
C1004 C1006 1.419 . S
C1005 C1000 1.425 . S
C1005 C1002 1.409 . S
C1005 C1003 1.415 . S
C1006 H996 0.930 . S
C1006 C1004 1.419 . S
C1006 C1007 1.362 . S
C1007 H997 0.930 . S
C1007 C1000 1.409 . S
C1007 C1006 1.362 . S
H1008 C1014 0.930 . S
H1009 C1017 0.930 . S
H1010 C1018 0.930 . S
H1011 C1019 0.930 . S
H1012 C1022 0.930 . S
H1013 C1023 0.930 . S
C1014 H1008 0.930 . S
C1014 C1015 1.355 . S
C1014 C1016 1.415 . S
C1015 C1014 1.355 . S
C1015 C1017 1.419 . S
C1016 C1014 1.415 . S
C1016 C1021 1.425 . S
C1016 C1023 1.409 . S
C1017 H1009 0.930 . S
C1017 C1015 1.419 . S
C1017 C1018 1.362 . S
C1018 H1010 0.930 . S
C1018 C1017 1.362 . S
C1018 C1021 1.409 . S
C1019 H1011 0.930 . S
C1019 C1020 1.355 . S
C1019 C1021 1.415 . S
C1020 C1019 1.355 . S
C1020 C1022 1.419 . S
C1021 C1016 1.425 . S
C1021 C1018 1.409 . S
C1021 C1019 1.415 . S
C1022 H1012 0.930 . S
C1022 C1020 1.419 . S
C1022 C1023 1.362 . S
C1023 H1013 0.930 . S
C1023 C1016 1.409 . S
C1023 C1022 1.362 . S
H1024 C1030 0.930 . S
H1025 C1033 0.930 . S
H1026 C1034 0.930 . S
H1027 C1035 0.930 . S
H1028 C1038 0.930 . S
H1029 C1039 0.930 . S
C1030 H1024 0.930 . S
C1030 C1031 1.355 . S
C1030 C1032 1.415 . S
C1031 C1030 1.355 . S
C1031 C1033 1.419 . S
C1032 C1030 1.415 . S
C1032 C1037 1.425 . S
C1032 C1039 1.409 . S
C1033 H1025 0.930 . S
C1033 C1031 1.419 . S
C1033 C1034 1.362 . S
C1034 H1026 0.930 . S
C1034 C1033 1.362 . S
C1034 C1037 1.409 . S
C1035 H1027 0.930 . S
C1035 C1036 1.355 . S
C1035 C1037 1.415 . S
C1036 C1035 1.355 . S
C1036 C1038 1.419 . S
C1037 C1032 1.425 . S
C1037 C1034 1.409 . S
C1037 C1035 1.415 . S
C1038 H1028 0.930 . S
C1038 C1036 1.419 . S
C1038 C1039 1.362 . S
C1039 H1029 0.930 . S
C1039 C1032 1.409 . S
C1039 C1038 1.362 . S
H1040 C1046 0.930 . S
H1041 C1049 0.930 . S
H1042 C1050 0.930 . S
H1043 C1051 0.930 . S
H1044 C1054 0.930 . S
H1045 C1055 0.930 . S
C1046 H1040 0.930 . S
C1046 C1047 1.355 . S
C1046 C1048 1.415 . S
C1047 C1046 1.355 . S
C1047 C1049 1.419 . S
C1048 C1046 1.415 . S
C1048 C1053 1.425 . S
C1048 C1055 1.409 . S
C1049 H1041 0.930 . S
C1049 C1047 1.419 . S
C1049 C1050 1.362 . S
C1050 H1042 0.930 . S
C1050 C1049 1.362 . S
C1050 C1053 1.409 . S
C1051 H1043 0.930 . S
C1051 C1052 1.355 . S
C1051 C1053 1.415 . S
C1052 C1051 1.355 . S
C1052 C1054 1.419 . S
C1053 C1048 1.425 . S
C1053 C1050 1.409 . S
C1053 C1051 1.415 . S
C1054 H1044 0.930 . S
C1054 C1052 1.419 . S
C1054 C1055 1.362 . S
C1055 H1045 0.930 . S
C1055 C1048 1.409 . S
C1055 C1054 1.362 . S
H1056 C1062 0.930 . S
H1057 C1065 0.930 . S
H1058 C1066 0.930 . S
H1059 C1067 0.930 . S
H1060 C1070 0.930 . S
H1061 C1071 0.930 . S
C1062 H1056 0.930 . S
C1062 C1063 1.355 . S
C1062 C1064 1.415 . S
C1063 C1062 1.355 . S
C1063 C1065 1.419 . S
C1064 C1062 1.415 . S
C1064 C1069 1.425 . S
C1064 C1071 1.409 . S
C1065 H1057 0.930 . S
C1065 C1063 1.419 . S
C1065 C1066 1.362 . S
C1066 H1058 0.930 . S
C1066 C1065 1.362 . S
C1066 C1069 1.409 . S
C1067 H1059 0.930 . S
C1067 C1068 1.355 . S
C1067 C1069 1.415 . S
C1068 C1067 1.355 . S
C1068 C1070 1.419 . S
C1069 C1064 1.425 . S
C1069 C1066 1.409 . S
C1069 C1067 1.415 . S
C1070 H1060 0.930 . S
C1070 C1068 1.419 . S
C1070 C1071 1.362 . S
C1071 H1061 0.930 . S
C1071 C1064 1.409 . S
C1071 C1070 1.362 . S
H1072 C1078 0.930 . S
H1073 C1081 0.930 . S
H1074 C1082 0.930 . S
H1075 C1083 0.930 . S
H1076 C1086 0.930 . S
H1077 C1087 0.930 . S
C1078 H1072 0.930 . S
C1078 C1079 1.355 . S
C1078 C1080 1.415 . S
C1079 C1078 1.355 . S
C1079 C1081 1.419 . S
C1080 C1078 1.415 . S
C1080 C1085 1.425 . S
C1080 C1087 1.409 . S
C1081 H1073 0.930 . S
C1081 C1079 1.419 . S
C1081 C1082 1.362 . S
C1082 H1074 0.930 . S
C1082 C1081 1.362 . S
C1082 C1085 1.409 . S
C1083 H1075 0.930 . S
C1083 C1084 1.355 . S
C1083 C1085 1.415 . S
C1084 C1083 1.355 . S
C1084 C1086 1.419 . S
C1085 C1080 1.425 . S
C1085 C1082 1.409 . S
C1085 C1083 1.415 . S
C1086 H1076 0.930 . S
C1086 C1084 1.419 . S
C1086 C1087 1.362 . S
C1087 H1077 0.930 . S
C1087 C1080 1.409 . S
C1087 C1086 1.362 . S
H1088 C1094 0.930 . S
H1089 C1097 0.930 . S
H1090 C1098 0.930 . S
H1091 C1099 0.930 . S
H1092 C1102 0.930 . S
H1093 C1103 0.930 . S
C1094 H1088 0.930 . S
C1094 C1095 1.355 . S
C1094 C1096 1.415 . S
C1095 C1094 1.355 . S
C1095 C1097 1.419 . S
C1096 C1094 1.415 . S
C1096 C1101 1.425 . S
C1096 C1103 1.409 . S
C1097 H1089 0.930 . S
C1097 C1095 1.419 . S
C1097 C1098 1.362 . S
C1098 H1090 0.930 . S
C1098 C1097 1.362 . S
C1098 C1101 1.409 . S
C1099 H1091 0.930 . S
C1099 C1100 1.355 . S
C1099 C1101 1.415 . S
C1100 C1099 1.355 . S
C1100 C1102 1.419 . S
C1101 C1096 1.425 . S
C1101 C1098 1.409 . S
C1101 C1099 1.415 . S
C1102 H1092 0.930 . S
C1102 C1100 1.419 . S
C1102 C1103 1.362 . S
C1103 H1093 0.930 . S
C1103 C1096 1.409 . S
C1103 C1102 1.362 . S
H1104 C1110 0.930 . S
H1105 C1113 0.930 . S
H1106 C1114 0.930 . S
H1107 C1115 0.930 . S
H1108 C1118 0.930 . S
H1109 C1119 0.930 . S
C1110 H1104 0.930 . S
C1110 C1111 1.355 1_565 S
C1110 C1112 1.415 . S
C1111 C1110 1.355 1_545 S
C1111 C1113 1.419 . S
C1112 C1110 1.415 . S
C1112 C1117 1.425 . S
C1112 C1119 1.409 . S
C1113 H1105 0.930 . S
C1113 C1111 1.419 . S
C1113 C1114 1.362 . S
C1114 H1106 0.930 . S
C1114 C1113 1.362 . S
C1114 C1117 1.409 1_545 S
C1115 H1107 0.930 . S
C1115 C1116 1.355 . S
C1115 C1117 1.415 . S
C1116 C1115 1.355 . S
C1116 C1118 1.419 . S
C1117 C1112 1.425 . S
C1117 C1114 1.409 1_565 S
C1117 C1115 1.415 . S
C1118 H1108 0.930 . S
C1118 C1116 1.419 . S
C1118 C1119 1.362 . S
C1119 H1109 0.930 . S
C1119 C1112 1.409 . S
C1119 C1118 1.362 . S
H1120 C1126 0.930 . S
H1121 C1129 0.930 . S
H1122 C1130 0.930 . S
H1123 C1131 0.930 . S
H1124 C1134 0.930 . S
H1125 C1135 0.930 . S
C1126 H1120 0.930 . S
C1126 C1127 1.355 . S
C1126 C1128 1.415 . S
C1127 C1126 1.355 . S
C1127 C1129 1.419 . S
C1128 C1126 1.415 . S
C1128 C1133 1.425 . S
C1128 C1135 1.409 . S
C1129 H1121 0.930 . S
C1129 C1127 1.419 . S
C1129 C1130 1.362 . S
C1130 H1122 0.930 . S
C1130 C1129 1.362 . S
C1130 C1133 1.409 . S
C1131 H1123 0.930 . S
C1131 C1132 1.355 . S
C1131 C1133 1.415 . S
C1132 C1131 1.355 . S
C1132 C1134 1.419 . S
C1133 C1128 1.425 . S
C1133 C1130 1.409 . S
C1133 C1131 1.415 . S
C1134 H1124 0.930 . S
C1134 C1132 1.419 . S
C1134 C1135 1.362 . S
C1135 H1125 0.930 . S
C1135 C1128 1.409 . S
C1135 C1134 1.362 . S
H1136 C1142 0.930 . S
H1137 C1145 0.930 . S
H1138 C1146 0.930 . S
H1139 C1147 0.930 . S
H1140 C1150 0.930 . S
H1141 C1151 0.930 . S
C1142 H1136 0.930 . S
C1142 C1143 1.355 . S
C1142 C1144 1.415 . S
C1143 C1142 1.355 . S
C1143 C1145 1.419 . S
C1144 C1142 1.415 . S
C1144 C1149 1.425 . S
C1144 C1151 1.409 . S
C1145 H1137 0.930 . S
C1145 C1143 1.419 . S
C1145 C1146 1.362 . S
C1146 H1138 0.930 . S
C1146 C1145 1.362 . S
C1146 C1149 1.409 . S
C1147 H1139 0.930 . S
C1147 C1148 1.355 . S
C1147 C1149 1.415 . S
C1148 C1147 1.355 . S
C1148 C1150 1.419 . S
C1149 C1144 1.425 . S
C1149 C1146 1.409 . S
C1149 C1147 1.415 . S
C1150 H1140 0.930 . S
C1150 C1148 1.419 . S
C1150 C1151 1.362 . S
C1151 H1141 0.930 . S
C1151 C1144 1.409 . S
C1151 C1150 1.362 . S
H1152 C1158 0.930 . S
H1153 C1161 0.930 . S
H1154 C1162 0.930 . S
H1155 C1163 0.930 . S
H1156 C1166 0.930 . S
H1157 C1167 0.930 . S
C1158 H1152 0.930 . S
C1158 C1159 1.355 . S
C1158 C1160 1.415 . S
C1159 C1158 1.355 . S
C1159 C1161 1.419 . S
C1160 C1158 1.415 . S
C1160 C1165 1.425 . S
C1160 C1167 1.409 . S
C1161 H1153 0.930 . S
C1161 C1159 1.419 . S
C1161 C1162 1.362 . S
C1162 H1154 0.930 . S
C1162 C1161 1.362 . S
C1162 C1165 1.409 . S
C1163 H1155 0.930 . S
C1163 C1164 1.355 . S
C1163 C1165 1.415 . S
C1164 C1163 1.355 . S
C1164 C1166 1.419 . S
C1165 C1160 1.425 . S
C1165 C1162 1.409 . S
C1165 C1163 1.415 . S
C1166 H1156 0.930 . S
C1166 C1164 1.419 . S
C1166 C1167 1.362 . S
C1167 H1157 0.930 . S
C1167 C1160 1.409 . S
C1167 C1166 1.362 . S
H1168 C1174 0.930 . S
H1169 C1177 0.930 . S
H1170 C1178 0.930 . S
H1171 C1179 0.930 . S
H1172 C1182 0.930 . S
H1173 C1183 0.930 . S
C1174 H1168 0.930 . S
C1174 C1175 1.355 . S
C1174 C1176 1.415 . S
C1175 C1174 1.355 . S
C1175 C1177 1.419 . S
C1176 C1174 1.415 . S
C1176 C1181 1.425 . S
C1176 C1183 1.409 . S
C1177 H1169 0.930 . S
C1177 C1175 1.419 . S
C1177 C1178 1.362 . S
C1178 H1170 0.930 . S
C1178 C1177 1.362 . S
C1178 C1181 1.409 . S
C1179 H1171 0.930 . S
C1179 C1180 1.355 . S
C1179 C1181 1.415 . S
C1180 C1179 1.355 . S
C1180 C1182 1.419 . S
C1181 C1176 1.425 . S
C1181 C1178 1.409 . S
C1181 C1179 1.415 . S
C1182 H1172 0.930 . S
C1182 C1180 1.419 . S
C1182 C1183 1.362 . S
C1183 H1173 0.930 . S
C1183 C1176 1.409 . S
C1183 C1182 1.362 . S
H1184 C1190 0.930 . S
H1185 C1193 0.930 . S
H1186 C1194 0.930 . S
H1187 C1195 0.930 . S
H1188 C1198 0.930 . S
H1189 C1199 0.930 . S
C1190 H1184 0.930 . S
C1190 C1191 1.355 . S
C1190 C1192 1.415 . S
C1191 C1190 1.355 . S
C1191 C1193 1.419 . S
C1192 C1190 1.415 . S
C1192 C1197 1.425 . S
C1192 C1199 1.409 . S
C1193 H1185 0.930 . S
C1193 C1191 1.419 . S
C1193 C1194 1.362 . S
C1194 H1186 0.930 . S
C1194 C1193 1.362 . S
C1194 C1197 1.409 . S
C1195 H1187 0.930 . S
C1195 C1196 1.355 . S
C1195 C1197 1.415 . S
C1196 C1195 1.355 . S
C1196 C1198 1.419 . S
C1197 C1192 1.425 . S
C1197 C1194 1.409 . S
C1197 C1195 1.415 . S
C1198 H1188 0.930 . S
C1198 C1196 1.419 . S
C1198 C1199 1.362 . S
C1199 H1189 0.930 . S
C1199 C1192 1.409 . S
C1199 C1198 1.362 . S
H1200 C1206 0.930 . S
H1201 C1209 0.930 . S
H1202 C1210 0.930 . S
H1203 C1211 0.930 . S
H1204 C1214 0.930 . S
H1205 C1215 0.930 . S
C1206 H1200 0.930 . S
C1206 C1207 1.355 . S
C1206 C1208 1.415 . S
C1207 C1206 1.355 . S
C1207 C1209 1.419 . S
C1208 C1206 1.415 . S
C1208 C1213 1.425 . S
C1208 C1215 1.409 . S
C1209 H1201 0.930 . S
C1209 C1207 1.419 . S
C1209 C1210 1.362 . S
C1210 H1202 0.930 . S
C1210 C1209 1.362 . S
C1210 C1213 1.409 . S
C1211 H1203 0.930 . S
C1211 C1212 1.355 . S
C1211 C1213 1.415 . S
C1212 C1211 1.355 . S
C1212 C1214 1.419 . S
C1213 C1208 1.425 . S
C1213 C1210 1.409 . S
C1213 C1211 1.415 . S
C1214 H1204 0.930 . S
C1214 C1212 1.419 . S
C1214 C1215 1.362 . S
C1215 H1205 0.930 . S
C1215 C1208 1.409 . S
C1215 C1214 1.362 . S
H1216 C1222 0.930 . S
H1217 C1225 0.930 . S
H1218 C1226 0.930 . S
H1219 C1227 0.930 . S
H1220 C1230 0.930 . S
H1221 C1231 0.930 . S
C1222 H1216 0.930 . S
C1222 C1223 1.355 . S
C1222 C1224 1.415 . S
C1223 C1222 1.355 . S
C1223 C1225 1.419 . S
C1224 C1222 1.415 . S
C1224 C1229 1.425 . S
C1224 C1231 1.409 . S
C1225 H1217 0.930 . S
C1225 C1223 1.419 . S
C1225 C1226 1.362 . S
C1226 H1218 0.930 . S
C1226 C1225 1.362 . S
C1226 C1229 1.409 . S
C1227 H1219 0.930 . S
C1227 C1228 1.355 . S
C1227 C1229 1.415 . S
C1228 C1227 1.355 . S
C1228 C1230 1.419 . S
C1229 C1224 1.425 . S
C1229 C1226 1.409 . S
C1229 C1227 1.415 . S
C1230 H1220 0.930 . S
C1230 C1228 1.419 . S
C1230 C1231 1.362 . S
C1231 H1221 0.930 . S
C1231 C1224 1.409 . S
C1231 C1230 1.362 . S
H1232 C1238 0.930 . S
H1233 C1241 0.930 . S
H1234 C1242 0.930 . S
H1235 C1243 0.930 . S
H1236 C1246 0.930 . S
H1237 C1247 0.930 . S
C1238 H1232 0.930 . S
C1238 C1239 1.355 . S
C1238 C1240 1.415 . S
C1239 C1238 1.355 . S
C1239 C1241 1.419 . S
C1240 C1238 1.415 . S
C1240 C1245 1.425 . S
C1240 C1247 1.409 . S
C1241 H1233 0.930 . S
C1241 C1239 1.419 . S
C1241 C1242 1.362 . S
C1242 H1234 0.930 . S
C1242 C1241 1.362 . S
C1242 C1245 1.409 . S
C1243 H1235 0.930 . S
C1243 C1244 1.355 . S
C1243 C1245 1.415 . S
C1244 C1243 1.355 . S
C1244 C1246 1.419 . S
C1245 C1240 1.425 . S
C1245 C1242 1.409 . S
C1245 C1243 1.415 . S
C1246 H1236 0.930 . S
C1246 C1244 1.419 . S
C1246 C1247 1.362 . S
C1247 H1237 0.930 . S
C1247 C1240 1.409 . S
C1247 C1246 1.362 . S
H1248 C1254 0.930 . S
H1249 C1257 0.930 . S
H1250 C1258 0.930 . S
H1251 C1259 0.930 . S
H1252 C1262 0.930 . S
H1253 C1263 0.930 . S
C1254 H1248 0.930 . S
C1254 C1255 1.355 . S
C1254 C1256 1.415 . S
C1255 C1254 1.355 . S
C1255 C1257 1.419 . S
C1256 C1254 1.415 . S
C1256 C1261 1.425 . S
C1256 C1263 1.409 . S
C1257 H1249 0.930 . S
C1257 C1255 1.419 . S
C1257 C1258 1.362 . S
C1258 H1250 0.930 . S
C1258 C1257 1.362 . S
C1258 C1261 1.409 . S
C1259 H1251 0.930 . S
C1259 C1260 1.355 . S
C1259 C1261 1.415 . S
C1260 C1259 1.355 . S
C1260 C1262 1.419 . S
C1261 C1256 1.425 . S
C1261 C1258 1.409 . S
C1261 C1259 1.415 . S
C1262 H1252 0.930 . S
C1262 C1260 1.419 . S
C1262 C1263 1.362 . S
C1263 H1253 0.930 . S
C1263 C1256 1.409 . S
C1263 C1262 1.362 . S
H1264 C1270 0.930 . S
H1265 C1273 0.930 . S
H1266 C1274 0.930 . S
H1267 C1275 0.930 . S
H1268 C1278 0.930 . S
H1269 C1279 0.930 . S
C1270 H1264 0.930 . S
C1270 C1271 1.355 . S
C1270 C1272 1.415 . S
C1271 C1270 1.355 . S
C1271 C1273 1.419 . S
C1272 C1270 1.415 . S
C1272 C1277 1.425 . S
C1272 C1279 1.409 . S
C1273 H1265 0.930 . S
C1273 C1271 1.419 . S
C1273 C1274 1.362 . S
C1274 H1266 0.930 . S
C1274 C1273 1.362 . S
C1274 C1277 1.409 . S
C1275 H1267 0.930 . S
C1275 C1276 1.355 . S
C1275 C1277 1.415 . S
C1276 C1275 1.355 . S
C1276 C1278 1.419 . S
C1277 C1272 1.425 . S
C1277 C1274 1.409 . S
C1277 C1275 1.415 . S
C1278 H1268 0.930 . S
C1278 C1276 1.419 . S
C1278 C1279 1.362 . S
C1279 H1269 0.930 . S
C1279 C1272 1.409 . S
C1279 C1278 1.362 . S
H1280 C1286 0.930 . S
H1281 C1289 0.930 . S
H1282 C1290 0.930 . S
H1283 C1291 0.930 . S
H1284 C1294 0.930 . S
H1285 C1295 0.930 . S
C1286 H1280 0.930 . S
C1286 C1287 1.355 . S
C1286 C1288 1.415 . S
C1287 C1286 1.355 . S
C1287 C1289 1.419 . S
C1288 C1286 1.415 . S
C1288 C1293 1.425 . S
C1288 C1295 1.409 . S
C1289 H1281 0.930 . S
C1289 C1287 1.419 . S
C1289 C1290 1.362 . S
C1290 H1282 0.930 . S
C1290 C1289 1.362 . S
C1290 C1293 1.409 . S
C1291 H1283 0.930 . S
C1291 C1292 1.355 . S
C1291 C1293 1.415 . S
C1292 C1291 1.355 . S
C1292 C1294 1.419 . S
C1293 C1288 1.425 . S
C1293 C1290 1.409 . S
C1293 C1291 1.415 . S
C1294 H1284 0.930 . S
C1294 C1292 1.419 . S
C1294 C1295 1.362 . S
C1295 H1285 0.930 . S
C1295 C1288 1.409 . S
C1295 C1294 1.362 . S
H1296 C1302 0.930 . S
H1297 C1305 0.930 . S
H1298 C1306 0.930 . S
H1299 C1307 0.930 . S
H1300 C1310 0.930 . S
H1301 C1311 0.930 . S
C1302 H1296 0.930 . S
C1302 C1303 1.355 . S
C1302 C1304 1.415 . S
C1303 C1302 1.355 . S
C1303 C1305 1.419 . S
C1304 C1302 1.415 . S
C1304 C1309 1.425 . S
C1304 C1311 1.409 . S
C1305 H1297 0.930 . S
C1305 C1303 1.419 . S
C1305 C1306 1.362 . S
C1306 H1298 0.930 . S
C1306 C1305 1.362 . S
C1306 C1309 1.409 . S
C1307 H1299 0.930 . S
C1307 C1308 1.355 . S
C1307 C1309 1.415 . S
C1308 C1307 1.355 . S
C1308 C1310 1.419 . S
C1309 C1304 1.425 . S
C1309 C1306 1.409 . S
C1309 C1307 1.415 . S
C1310 H1300 0.930 . S
C1310 C1308 1.419 . S
C1310 C1311 1.362 . S
C1311 H1301 0.930 . S
C1311 C1304 1.409 . S
C1311 C1310 1.362 . S
H1312 C1318 0.930 . S
H1313 C1321 0.930 . S
H1314 C1322 0.930 . S
H1315 C1323 0.930 . S
H1316 C1326 0.930 . S
H1317 C1327 0.930 . S
C1318 H1312 0.930 . S
C1318 C1319 1.355 . S
C1318 C1320 1.415 . S
C1319 C1318 1.355 . S
C1319 C1321 1.419 . S
C1320 C1318 1.415 . S
C1320 C1325 1.425 . S
C1320 C1327 1.409 . S
C1321 H1313 0.930 . S
C1321 C1319 1.419 . S
C1321 C1322 1.362 . S
C1322 H1314 0.930 . S
C1322 C1321 1.362 . S
C1322 C1325 1.409 . S
C1323 H1315 0.930 . S
C1323 C1324 1.355 . S
C1323 C1325 1.415 . S
C1324 C1323 1.355 . S
C1324 C1326 1.419 . S
C1325 C1320 1.425 . S
C1325 C1322 1.409 . S
C1325 C1323 1.415 . S
C1326 H1316 0.930 . S
C1326 C1324 1.419 . S
C1326 C1327 1.362 . S
C1327 H1317 0.930 . S
C1327 C1320 1.409 . S
C1327 C1326 1.362 . S
H1328 C1334 0.930 . S
H1329 C1337 0.930 . S
H1330 C1338 0.930 . S
H1331 C1339 0.930 . S
H1332 C1342 0.930 . S
H1333 C1343 0.930 . S
C1334 H1328 0.930 . S
C1334 C1335 1.355 . S
C1334 C1336 1.415 . S
C1335 C1334 1.355 . S
C1335 C1337 1.419 . S
C1336 C1334 1.415 . S
C1336 C1341 1.425 . S
C1336 C1343 1.409 . S
C1337 H1329 0.930 . S
C1337 C1335 1.419 . S
C1337 C1338 1.362 . S
C1338 H1330 0.930 . S
C1338 C1337 1.362 . S
C1338 C1341 1.409 . S
C1339 H1331 0.930 . S
C1339 C1340 1.355 . S
C1339 C1341 1.415 . S
C1340 C1339 1.355 . S
C1340 C1342 1.419 . S
C1341 C1336 1.425 . S
C1341 C1338 1.409 . S
C1341 C1339 1.415 . S
C1342 H1332 0.930 . S
C1342 C1340 1.419 . S
C1342 C1343 1.362 . S
C1343 H1333 0.930 . S
C1343 C1336 1.409 . S
C1343 C1342 1.362 . S
H1344 C1350 0.930 . S
H1345 C1353 0.930 . S
H1346 C1354 0.930 . S
H1347 C1355 0.930 1_655 S
H1348 C1358 0.930 . S
H1349 C1359 0.930 . S
C1350 H1344 0.930 . S
C1350 C1351 1.357 . S
C1350 C1352 1.415 . S
C1351 C1350 1.357 . S
C1351 C1353 1.416 1_455 S
C1352 C1350 1.415 . S
C1352 C1357 1.425 . S
C1352 C1359 1.409 . S
C1353 H1345 0.930 . S
C1353 C1351 1.416 1_655 S
C1353 C1354 1.362 . S
C1354 H1346 0.930 . S
C1354 C1353 1.362 . S
C1354 C1357 1.409 1_655 S
C1355 H1347 0.930 1_455 S
C1355 C1356 1.355 . S
C1355 C1357 1.415 . S
C1356 C1355 1.355 . S
C1356 C1358 1.419 . S
C1357 C1352 1.425 . S
C1357 C1354 1.409 1_455 S
C1357 C1355 1.415 . S
C1358 H1348 0.930 . S
C1358 C1356 1.419 . S
C1358 C1359 1.362 . S
C1359 H1349 0.930 . S
C1359 C1352 1.409 . S
C1359 C1358 1.362 . S
H1360 C1366 0.930 . S
H1361 C1369 0.930 . S
H1362 C1370 0.930 . S
H1363 C1371 0.930 . S
H1364 C1374 0.930 . S
H1365 C1375 0.930 . S
C1366 H1360 0.930 . S
C1366 C1367 1.355 . S
C1366 C1368 1.415 . S
C1367 C1366 1.355 . S
C1367 C1369 1.419 . S
C1368 C1366 1.415 . S
C1368 C1373 1.425 . S
C1368 C1375 1.409 . S
C1369 H1361 0.930 . S
C1369 C1367 1.419 . S
C1369 C1370 1.362 . S
C1370 H1362 0.930 . S
C1370 C1369 1.362 . S
C1370 C1373 1.409 . S
C1371 H1363 0.930 . S
C1371 C1372 1.355 . S
C1371 C1373 1.415 . S
C1372 C1371 1.355 . S
C1372 C1374 1.419 . S
C1373 C1368 1.425 . S
C1373 C1370 1.409 . S
C1373 C1371 1.415 . S
C1374 H1364 0.930 . S
C1374 C1372 1.419 . S
C1374 C1375 1.362 . S
C1375 H1365 0.930 . S
C1375 C1368 1.409 . S
C1375 C1374 1.362 . S
H1376 C1382 0.930 . S
H1377 C1385 0.930 . S
H1378 C1386 0.930 . S
H1379 C1387 0.930 . S
H1380 C1390 0.930 . S
H1381 C1391 0.930 . S
C1382 H1376 0.930 . S
C1382 C1383 1.355 . S
C1382 C1384 1.415 . S
C1383 C1382 1.355 . S
C1383 C1385 1.419 . S
C1384 C1382 1.415 . S
C1384 C1389 1.425 . S
C1384 C1391 1.409 . S
C1385 H1377 0.930 . S
C1385 C1383 1.419 . S
C1385 C1386 1.362 . S
C1386 H1378 0.930 . S
C1386 C1385 1.362 . S
C1386 C1389 1.409 . S
C1387 H1379 0.930 . S
C1387 C1388 1.355 . S
C1387 C1389 1.415 . S
C1388 C1387 1.355 . S
C1388 C1390 1.419 . S
C1389 C1384 1.425 . S
C1389 C1386 1.409 . S
C1389 C1387 1.415 . S
C1390 H1380 0.930 . S
C1390 C1388 1.419 . S
C1390 C1391 1.362 . S
C1391 H1381 0.930 . S
C1391 C1384 1.409 . S
C1391 C1390 1.362 . S
H1392 C1398 0.930 . S
H1393 C1401 0.930 . S
H1394 C1402 0.930 . S
H1395 C1403 0.930 . S
H1396 C1406 0.930 . S
H1397 C1407 0.930 . S
C1398 H1392 0.930 . S
C1398 C1399 1.355 . S
C1398 C1400 1.415 . S
C1399 C1398 1.355 . S
C1399 C1401 1.419 . S
C1400 C1398 1.415 . S
C1400 C1405 1.425 . S
C1400 C1407 1.409 . S
C1401 H1393 0.930 . S
C1401 C1399 1.419 . S
C1401 C1402 1.362 . S
C1402 H1394 0.930 . S
C1402 C1401 1.362 . S
C1402 C1405 1.409 . S
C1403 H1395 0.930 . S
C1403 C1404 1.355 . S
C1403 C1405 1.415 . S
C1404 C1403 1.355 . S
C1404 C1406 1.419 . S
C1405 C1400 1.425 . S
C1405 C1402 1.409 . S
C1405 C1403 1.415 . S
C1406 H1396 0.930 . S
C1406 C1404 1.419 . S
C1406 C1407 1.362 . S
C1407 H1397 0.930 . S
C1407 C1400 1.409 . S
C1407 C1406 1.362 . S
H1408 C1414 0.930 . S
H1409 C1417 0.930 . S
H1410 C1418 0.930 . S
H1411 C1419 0.930 . S
H1412 C1422 0.930 1_565 S
H1413 C1423 0.887 1_565 S
C1414 H1408 0.930 . S
C1414 C1415 1.355 . S
C1414 C1416 1.415 . S
C1415 C1414 1.355 . S
C1415 C1417 1.419 . S
C1416 C1414 1.415 . S
C1416 C1421 1.425 . S
C1416 C1423 1.409 . S
C1417 H1409 0.930 . S
C1417 C1415 1.419 . S
C1417 C1418 1.362 . S
C1418 H1410 0.930 . S
C1418 C1417 1.362 . S
C1418 C1421 1.409 . S
C1419 H1411 0.930 . S
C1419 C1420 1.355 . S
C1419 C1421 1.415 . S
C1420 C1419 1.355 . S
C1420 C1422 1.419 . S
C1421 C1416 1.425 . S
C1421 C1418 1.409 . S
C1421 C1419 1.415 . S
C1422 H1412 0.930 1_545 S
C1422 C1420 1.419 . S
C1422 C1423 1.362 . S
C1423 H1413 0.887 1_545 S
C1423 C1416 1.409 . S
C1423 C1422 1.362 . S
H1424 C1430 0.930 . S
H1425 C1433 0.930 . S
H1426 C1434 0.930 . S
H1427 C1435 0.930 . S
H1428 C1438 0.930 . S
H1429 C1439 0.930 . S
C1430 H1424 0.930 . S
C1430 C1431 1.355 . S
C1430 C1432 1.415 . S
C1431 C1430 1.355 . S
C1431 C1433 1.419 . S
C1432 C1430 1.415 . S
C1432 C1437 1.425 . S
C1432 C1439 1.409 . S
C1433 H1425 0.930 . S
C1433 C1431 1.419 . S
C1433 C1434 1.362 . S
C1434 H1426 0.930 . S
C1434 C1433 1.362 . S
C1434 C1437 1.409 . S
C1435 H1427 0.930 . S
C1435 C1436 1.355 . S
C1435 C1437 1.415 . S
C1436 C1435 1.355 . S
C1436 C1438 1.419 . S
C1437 C1432 1.425 . S
C1437 C1434 1.409 . S
C1437 C1435 1.415 . S
C1438 H1428 0.930 . S
C1438 C1436 1.419 . S
C1438 C1439 1.362 . S
C1439 H1429 0.930 . S
C1439 C1432 1.409 . S
C1439 C1438 1.362 . S
H1440 C1446 0.930 . S
H1441 C1449 0.930 . S
H1442 C1450 0.930 . S
H1443 C1451 0.930 . S
H1444 C1454 0.930 . S
H1445 C1455 0.930 . S
C1446 H1440 0.930 . S
C1446 C1447 1.355 . S
C1446 C1448 1.415 . S
C1447 C1446 1.355 . S
C1447 C1449 1.419 . S
C1448 C1446 1.415 . S
C1448 C1453 1.425 . S
C1448 C1455 1.409 . S
C1449 H1441 0.930 . S
C1449 C1447 1.419 . S
C1449 C1450 1.362 . S
C1450 H1442 0.930 . S
C1450 C1449 1.362 . S
C1450 C1453 1.409 . S
C1451 H1443 0.930 . S
C1451 C1452 1.355 . S
C1451 C1453 1.415 . S
C1452 C1451 1.355 . S
C1452 C1454 1.419 . S
C1453 C1448 1.425 . S
C1453 C1450 1.409 . S
C1453 C1451 1.415 . S
C1454 H1444 0.930 . S
C1454 C1452 1.419 . S
C1454 C1455 1.362 . S
C1455 H1445 0.930 . S
C1455 C1448 1.409 . S
C1455 C1454 1.362 . S
H1456 C1462 0.930 . S
H1457 C1465 0.930 . S
H1458 C1466 0.971 . S
H1459 C1467 0.930 . S
H1460 C1470 0.930 . S
H1461 C1471 0.946 . S
C1462 H1456 0.930 . S
C1462 C1463 1.355 . S
C1462 C1464 1.415 . S
C1463 C1462 1.355 . S
C1463 C1465 1.419 . S
C1464 C1462 1.415 . S
C1464 C1469 1.425 1_554 S
C1464 C1471 1.409 1_554 S
C1465 H1457 0.930 . S
C1465 C1463 1.419 . S
C1465 C1466 1.362 . S
C1466 H1458 0.971 . S
C1466 C1465 1.362 . S
C1466 C1469 1.409 1_554 S
C1467 H1459 0.930 . S
C1467 C1468 1.355 . S
C1467 C1469 1.415 . S
C1468 C1467 1.355 . S
C1468 C1470 1.419 . S
C1469 C1464 1.425 1_556 S
C1469 C1466 1.409 1_556 S
C1469 C1467 1.415 . S
C1470 H1460 0.930 . S
C1470 C1468 1.419 . S
C1470 C1471 1.362 . S
C1471 H1461 0.946 . S
C1471 C1464 1.409 1_556 S
C1471 C1470 1.362 . S
H1472 C1478 0.930 . S
H1473 C1481 0.930 . S
H1474 C1482 0.930 . S
H1475 C1483 0.918 1_554 S
H1476 C1486 0.930 . S
H1477 C1487 0.930 . S
C1478 H1472 0.930 . S
C1478 C1479 1.355 . S
C1478 C1480 1.415 . S
C1479 C1478 1.355 . S
C1479 C1481 1.419 . S
C1480 C1478 1.415 . S
C1480 C1485 1.425 . S
C1480 C1487 1.409 . S
C1481 H1473 0.930 . S
C1481 C1479 1.419 . S
C1481 C1482 1.362 . S
C1482 H1474 0.930 . S
C1482 C1481 1.362 . S
C1482 C1485 1.409 . S
C1483 H1475 0.918 1_556 S
C1483 C1484 1.355 . S
C1483 C1485 1.415 . S
C1484 C1483 1.355 . S
C1484 C1486 1.419 . S
C1485 C1480 1.425 . S
C1485 C1482 1.409 . S
C1485 C1483 1.415 . S
C1486 H1476 0.930 . S
C1486 C1484 1.419 . S
C1486 C1487 1.362 . S
C1487 H1477 0.930 . S
C1487 C1480 1.409 . S
C1487 C1486 1.362 . S
H1488 C1494 0.930 . S
H1489 C1497 0.930 . S
H1490 C1498 0.930 . S
H1491 C1499 0.930 . S
H1492 C1502 0.930 . S
H1493 C1503 0.930 . S
C1494 H1488 0.930 . S
C1494 C1495 1.355 . S
C1494 C1496 1.415 . S
C1495 C1494 1.355 . S
C1495 C1497 1.419 . S
C1496 C1494 1.415 . S
C1496 C1501 1.425 . S
C1496 C1503 1.409 . S
C1497 H1489 0.930 . S
C1497 C1495 1.419 . S
C1497 C1498 1.362 . S
C1498 H1490 0.930 . S
C1498 C1497 1.362 . S
C1498 C1501 1.409 . S
C1499 H1491 0.930 . S
C1499 C1500 1.355 . S
C1499 C1501 1.415 . S
C1500 C1499 1.355 . S
C1500 C1502 1.419 . S
C1501 C1496 1.425 . S
C1501 C1498 1.409 . S
C1501 C1499 1.415 . S
C1502 H1492 0.930 . S
C1502 C1500 1.419 . S
C1502 C1503 1.362 . S
C1503 H1493 0.930 . S
C1503 C1496 1.409 . S
C1503 C1502 1.362 . S
H1504 C1510 0.930 . S
H1505 C1513 0.930 . S
H1506 C1514 0.930 . S
H1507 C1515 0.930 . S
H1508 C1518 0.930 . S
H1509 C1519 0.930 . S
C1510 H1504 0.930 . S
C1510 C1511 1.355 . S
C1510 C1512 1.415 . S
C1511 C1510 1.355 . S
C1511 C1513 1.419 . S
C1512 C1510 1.415 . S
C1512 C1517 1.425 . S
C1512 C1519 1.409 . S
C1513 H1505 0.930 . S
C1513 C1511 1.419 . S
C1513 C1514 1.362 . S
C1514 H1506 0.930 . S
C1514 C1513 1.362 . S
C1514 C1517 1.409 . S
C1515 H1507 0.930 . S
C1515 C1516 1.355 . S
C1515 C1517 1.415 . S
C1516 C1515 1.355 . S
C1516 C1518 1.419 . S
C1517 C1512 1.425 . S
C1517 C1514 1.409 . S
C1517 C1515 1.415 . S
C1518 H1508 0.930 . S
C1518 C1516 1.419 . S
C1518 C1519 1.362 . S
C1519 H1509 0.930 . S
C1519 C1512 1.409 . S
C1519 C1518 1.362 . S
H1520 C1526 0.930 . S
H1521 C1529 0.930 . S
H1522 C1530 0.930 . S
H1523 C1531 0.930 . S
H1524 C1534 0.930 . S
H1525 C1535 0.930 . S
C1526 H1520 0.930 . S
C1526 C1527 1.355 . S
C1526 C1528 1.415 . S
C1527 C1526 1.355 . S
C1527 C1529 1.419 . S
C1528 C1526 1.415 . S
C1528 C1533 1.425 . S
C1528 C1535 1.409 . S
C1529 H1521 0.930 . S
C1529 C1527 1.419 . S
C1529 C1530 1.362 . S
C1530 H1522 0.930 . S
C1530 C1529 1.362 . S
C1530 C1533 1.409 . S
C1531 H1523 0.930 . S
C1531 C1532 1.355 . S
C1531 C1533 1.415 . S
C1532 C1531 1.355 . S
C1532 C1534 1.419 . S
C1533 C1528 1.425 . S
C1533 C1530 1.409 . S
C1533 C1531 1.415 . S
C1534 H1524 0.930 . S
C1534 C1532 1.419 . S
C1534 C1535 1.362 . S
C1535 H1525 0.930 . S
C1535 C1528 1.409 . S
C1535 C1534 1.362 . S
C967 C162 1.454 . S
C972 C2 1.587 . S
C983 C202 1.395 . S
C988 C61 1.433 . S
C999 C82 2.002 . S
C1004 C261 1.860 . S
C1015 C122 1.762 . S
C1020 C301 2.018 . S
C1031 C42 1.766 . S
C1036 C341 1.974 . S
C1047 C381 1.381 . S
C1052 C101 1.491 . S
C1063 C141 1.444 . S
C1068 C421 1.580 . S
C1079 C442 1.762 . S
C1084 C21 1.945 . S
C1095 C181 1.744 . S
C1100 C461 1.749 . S
C1111 C322 1.963 . S
C1116 C221 1.742 . S
C1127 C242 1.885 . S
C1132 C362 1.857 . S
C1143 C282 2.033 . S
C1148 C402 1.992 . S
C1159 C482 1.452 . S
C1164 C741 1.365 . S
C1175 C762 1.980 . S
C1180 C541 1.815 . S
C1191 C802 1.852 . S
C1196 C581 2.006 . S
C1207 C621 1.569 . S
C1212 C821 1.473 . S
C1223 C661 1.927 . S
C1228 C722 1.716 . S
C1239 C842 1.518 . S
C1244 C682 1.541 . S
C1255 C781 1.513 . S
C1260 C901 1.403 . S
C1271 C701 1.888 . S
C1276 C922 1.699 . S
C1287 C861 1.768 . S
C1292 C941 1.707 . S
C1303 C501 1.816 . S
C1308 C642 1.968 . S
C1319 C882 1.785 . S
C1324 C522 1.813 . S
C1335 C602 1.966 . S
C1340 C562 1.998 . S
C1351 C15 2.568 1_455 S
C1356 C775 2.565 . S
C1367 C55 2.550 . S
C1372 C815 2.533 . S
C1383 C695 2.523 . S
C1388 C95 2.523 . S
C1399 C135 2.476 . S
C1404 C735 2.486 . S
C1415 C335 2.563 . S
C1420 C175 2.558 . S
C1431 C215 2.347 . S
C1436 C375 2.351 . S
C1447 C415 2.136 . S
C1452 C255 2.093 . S
C1463 C455 2.470 . S
C1468 C295 2.473 . S
C1479 C495 2.362 . S
C1484 C895 2.356 1_556 S
C1495 C535 2.130 . S
C1500 C615 2.107 . S
C1511 C935 2.438 . S
C1516 C575 2.467 . S
C1527 C855 2.503 . S
C1532 C655 2.502 . S
