# Generated by pormake.
# Topology yfh, (5)-cn, num edge types: 1
# Building blocks:
#     Node 0, Type 0, BuildingBlock: XOMCOT_clean_sbu_1, # of connection points: 5
#     Node 1, Type 0, BuildingBlock: XOMCOT_clean_sbu_1, # of connection points: 5
#     Node 2, Type 0, BuildingBlock: XOMCOT_clean_sbu_1, # of connection points: 5
#     Node 3, Type 0, BuildingBlock: XOMCOT_clean_sbu_1, # of connection points: 5
#     Node 4, Type 0, BuildingBlock: XOMCOT_clean_sbu_1, # of connection points: 5
#     Node 5, Type 0, BuildingBlock: XOMCOT_clean_sbu_1, # of connection points: 5
#     Node 6, Type 0, BuildingBlock: XOMCOT_clean_sbu_1, # of connection points: 5
#     Node 7, Type 0, BuildingBlock: XOMCOT_clean_sbu_1, # of connection points: 5
#     Edge 8, Type (0, 0), BuildingBlock: EZIPEK_clean_linker_0, # of connection points: 2
#     Edge 9, Type (0, 0), BuildingBlock: EZIPEK_clean_linker_0, # of connection points: 2
#     Edge 10, Type (0, 0), BuildingBlock: EZIPEK_clean_linker_0, # of connection points: 2
#     Edge 11, Type (0, 0), BuildingBlock: EZIPEK_clean_linker_0, # of connection points: 2
#     Edge 12, Type (0, 0), BuildingBlock: EZIPEK_clean_linker_0, # of connection points: 2
#     Edge 13, Type (0, 0), BuildingBlock: EZIPEK_clean_linker_0, # of connection points: 2
#     Edge 14, Type (0, 0), BuildingBlock: EZIPEK_clean_linker_0, # of connection points: 2
#     Edge 15, Type (0, 0), BuildingBlock: EZIPEK_clean_linker_0, # of connection points: 2
#     Edge 16, Type (0, 0), BuildingBlock: EZIPEK_clean_linker_0, # of connection points: 2
#     Edge 17, Type (0, 0), BuildingBlock: EZIPEK_clean_linker_0, # of connection points: 2
#     Edge 18, Type (0, 0), BuildingBlock: EZIPEK_clean_linker_0, # of connection points: 2
#     Edge 19, Type (0, 0), BuildingBlock: EZIPEK_clean_linker_0, # of connection points: 2
#     Edge 20, Type (0, 0), BuildingBlock: EZIPEK_clean_linker_0, # of connection points: 2
#     Edge 21, Type (0, 0), BuildingBlock: EZIPEK_clean_linker_0, # of connection points: 2
#     Edge 22, Type (0, 0), BuildingBlock: EZIPEK_clean_linker_0, # of connection points: 2
#     Edge 23, Type (0, 0), BuildingBlock: EZIPEK_clean_linker_0, # of connection points: 2
#     Edge 24, Type (0, 0), BuildingBlock: EZIPEK_clean_linker_0, # of connection points: 2
#     Edge 25, Type (0, 0), BuildingBlock: EZIPEK_clean_linker_0, # of connection points: 2
#     Edge 26, Type (0, 0), BuildingBlock: EZIPEK_clean_linker_0, # of connection points: 2
#     Edge 27, Type (0, 0), BuildingBlock: EZIPEK_clean_linker_0, # of connection points: 2
# Relax obj value: 0.421
# Max RMSD: 0.276
# Mean RMSD: 0.276
data_MOF--net-yfh--node1-XOMCOT_clean_sbu_1--edge1-EZIPEK_clean_linker_0
_symmetry_space_group_name_H-M    P1
_symmetry_Int_Tables_number       1
_symmetry_cell_setting            triclinic
loop_
_symmetry_equiv_pos_as_xyz
'x, y, z'
_cell_length_a     20.233614
_cell_length_b     20.312622
_cell_length_c     48.008865
_cell_angle_alpha  89.262883
_cell_angle_beta   89.873794
_cell_angle_gamma 89.100968
loop_
_atom_site_label
_atom_site_type_symbol
_atom_site_fract_x
_atom_site_fract_y
_atom_site_fract_z
_atom_type_partial_charge
C0 C 0.32797 0.06958 0.03785 0.0
C1 C 0.28925 0.07788 0.01451 0.0
N2 N 0.28443 0.14267 0.00896 0.0
N3 N 0.34628 0.1289 0.04737 0.0
C4 C 0.31992 0.17223 0.02878 0.0
H5 H 0.33829 1.02325 0.04806 0.0
Co6 Co 0.38582 0.14491 0.08201 0.0
C7 C 0.35251 0.28476 0.09469 0.0
O8 O 0.41547 0.2907 0.10061 0.0
N9 N 0.42422 0.16063 0.1175 0.0
C10 C 0.49179 0.17752 0.15332 0.0
C11 C 0.4863 0.1777 0.12475 0.0
C12 C 0.39284 0.15249 0.14222 0.0
N13 N 0.43303 0.16079 0.16413 0.0
O14 O 0.31949 0.08803 0.09871 0.0
H15 H 0.5263 0.18772 0.1105 0.0
H16 H 0.34243 0.1363 0.14437 0.0
O17 O 0.3317 0.22846 0.08659 0.0
C18 C 0.34399 1.03145 0.10589 0.0
O19 O 0.40782 1.02667 0.1106 0.0
N20 N 0.45493 0.18694 0.06346 0.0
C21 C 0.54491 0.19511 0.02009 0.0
C22 C 0.49816 0.24574 0.02402 0.0
C23 C 0.45311 0.24077 0.04605 0.0
C24 C 0.50405 0.14065 0.0611 0.0
C25 C 0.5506 0.14451 0.03988 0.0
H26 H 0.41294 0.27614 0.04677 0.0
H27 H 0.5029 0.09678 0.0741 0.0
H28 H 0.32395 0.22477 0.03011 0.0
H29 H 0.26403 0.03983 0.00329 0.0
H30 H 0.53669 0.18369 0.16516 0.0
H31 H 0.49203 0.28471 0.00859 0.0
H32 H 0.58542 0.10409 0.03697 0.0
C33 C 0.49444 0.85053 0.28484 0.0
C34 C 0.48658 0.8151 0.26079 0.0
N35 N 0.42794 0.78514 0.26248 0.0
N36 N 0.44048 0.84313 0.30111 0.0
C37 C 0.40128 0.80236 0.287 0.0
H38 H 0.53562 0.88161 0.28972 0.0
Co39 Co 0.425 0.88249 0.33501 0.0
C40 C 0.28045 0.86435 0.3461 0.0
O41 O 0.2766 0.92601 0.35383 0.0
N42 N 0.41033 0.92143 0.37022 0.0
C43 C 0.39216 0.98806 0.40618 0.0
C44 C 0.39169 0.98324 0.37761 0.0
C45 C 0.42004 0.88973 0.39484 0.0
N46 N 0.41051 0.92909 0.41674 0.0
O47 O 0.47313 0.80925 0.35207 0.0
H48 H 0.37937 1.02322 0.36346 0.0
H49 H 0.43706 0.83929 0.39709 0.0
O50 O 0.33662 0.83943 0.33861 0.0
C51 C 0.534 0.82583 0.35319 0.0
O52 O 0.54898 0.88693 0.34689 0.0
N53 N 0.3896 0.95572 0.31588 0.0
C54 C 0.38553 0.04646 0.27208 0.0
C55 C 0.33735 0.99797 0.27439 0.0
C56 C 0.34099 0.95206 0.29627 0.0
C57 C 0.43384 1.00572 0.31483 0.0
C58 C 0.43199 0.05247 0.29333 0.0
H59 H 0.31065 0.9091 0.29507 0.0
H60 H 0.475 1.00541 0.32918 0.0
H61 H 0.35254 0.78777 0.29368 0.0
H62 H 0.51941 0.81402 0.24297 0.0
H63 H 0.3842 1.03227 0.41817 0.0
H64 H 0.30238 0.99084 0.25768 0.0
H65 H 0.47099 0.08824 0.29163 0.0
C66 C 0.71747 0.97853 0.53483 0.0
C67 C 0.75451 0.96822 0.51103 0.0
N68 N 0.78217 0.90778 0.51318 0.0
N69 N 0.72179 0.92444 0.55144 0.0
C70 C 0.76162 0.88256 0.53758 0.0
H71 H 0.68806 1.02196 0.5394 0.0
Co72 Co 0.68156 0.91085 0.58573 0.0
C73 C 0.70803 0.76821 0.59906 0.0
O74 O 0.64445 0.76317 0.60398 0.0
N75 N 0.64118 0.8982 0.62111 0.0
C76 C 0.57269 0.87825 0.65675 0.0
C77 C 0.58106 0.87455 0.62835 0.0
C78 C 0.66836 0.91463 0.6457 0.0
N79 N 0.62768 0.90403 0.66733 0.0
O80 O 0.7518 0.96104 0.60204 0.0
H81 H 0.5446 0.85629 0.61413 0.0
H82 H 0.71629 0.93647 0.64808 0.0
O83 O 0.73001 0.8245 0.59115 0.0
C84 C 0.73312 1.02168 0.60192 0.0
O85 O 0.67193 0.03624 0.59479 0.0
N86 N 0.61064 0.87301 0.56732 0.0
C87 C 0.52087 0.86831 0.52388 0.0
C88 C 0.56936 0.81874 0.527 0.0
C89 C 0.61478 0.82248 0.54882 0.0
C90 C 0.55986 0.91784 0.56581 0.0
C91 C 0.51363 0.91578 0.54447 0.0
H92 H 0.65731 0.78979 0.54854 0.0
H93 H 0.55937 0.95967 0.57953 0.0
H94 H 0.77266 0.83284 0.54417 0.0
H95 H 0.75918 1.00128 0.49331 0.0
H96 H 0.52852 0.86674 0.66848 0.0
H97 H 0.57706 0.78259 0.51087 0.0
H98 H 0.4776 0.9555 0.5422 0.0
C99 C 0.56987 0.23607 0.78515 0.0
C100 C 0.57412 0.27815 0.76253 0.0
N101 N 0.63756 0.29619 0.75989 0.0
N102 N 0.62994 0.22963 0.79715 0.0
C103 C 0.67019 0.26601 0.78097 0.0
H104 H 0.52513 0.21436 0.79315 0.0
Co105 Co 0.64764 0.19097 0.83163 0.0
C106 C 0.79313 0.20937 0.83988 0.0
O107 O 0.79831 0.14772 0.8482 0.0
N108 N 0.66444 0.15272 0.86733 0.0
C109 C 0.68149 0.08474 0.90366 0.0
C110 C 0.68415 0.09104 0.8751 0.0
C111 C 0.65255 0.18312 0.89178 0.0
N112 N 0.66109 0.14279 0.91387 0.0
O113 O 0.60126 0.26505 0.84811 0.0
H114 H 0.69787 0.05184 0.86117 0.0
H115 H 0.63392 0.23295 0.89374 0.0
O116 O 0.73609 0.23388 0.83325 0.0
C117 C 0.54107 0.24723 0.85099 0.0
O118 O 0.52785 0.18469 0.84762 0.0
N119 N 0.68076 0.11714 0.81343 0.0
C120 C 0.67978 1.02417 0.77173 0.0
C121 C 0.72974 0.07101 0.77245 0.0
C122 C 0.72843 0.11832 0.79327 0.0
C123 C 0.63495 0.06859 0.814 0.0
C124 C 0.63406 1.0209 0.79349 0.0
H125 H 0.75976 0.16027 0.79078 0.0
H126 H 0.59476 0.07086 0.82886 0.0
H127 H 0.72216 0.27285 0.78502 0.0
H128 H 0.53379 0.29519 0.74938 0.0
H129 H 0.68933 0.04005 0.91582 0.0
H130 H 0.76406 0.07601 0.75523 0.0
H131 H 0.59388 0.98629 0.79297 0.0
C132 C 0.85804 0.49707 0.65641 0.0
C133 C 0.81472 0.49854 0.67863 0.0
N134 N 0.78892 0.43817 0.68153 0.0
N135 N 0.85796 0.43654 0.64511 0.0
C136 C 0.81531 0.40222 0.66087 0.0
H137 H 0.88592 0.53819 0.64842 0.0
Co138 Co 0.89754 0.41137 0.61187 0.0
C139 C 0.87857 0.26464 0.61067 0.0
O140 O 0.94287 0.25785 0.60823 0.0
N141 N 0.93659 0.38696 0.57733 0.0
C142 C 1.00185 0.34859 0.54338 0.0
C143 C 0.99425 0.35475 0.5717 0.0
C144 C 0.91034 0.39931 0.55186 0.0
N145 N 0.94903 0.37715 0.53114 0.0
O146 O 0.82481 0.45617 0.59318 0.0
H147 H 1.02964 0.33714 0.58698 0.0
H148 H 0.86472 0.42618 0.54806 0.0
O149 O 0.85231 0.32273 0.61266 0.0
C150 C 0.84363 0.51582 0.58988 0.0
O151 O 0.9068 0.52748 0.59335 0.0
N152 N 0.97087 0.38072 0.63203 0.0
C153 C 0.0631 0.39078 0.67424 0.0
C154 C 1.01353 0.34375 0.67611 0.0
C155 C 0.96697 0.34029 0.6549 0.0
C156 C 1.02257 0.42256 0.62893 0.0
C157 C 0.07004 0.4278 0.64973 0.0
H158 H 0.92392 0.3113 0.65864 0.0
H159 H 1.02297 0.45726 0.61166 0.0
H160 H 0.80087 0.3527 0.65666 0.0
H161 H 0.80271 0.54052 0.69146 0.0
H162 H 0.04435 0.32828 0.53257 0.0
H163 H 1.00603 0.31599 0.69525 0.0
H164 H 0.1069 0.46577 0.64811 0.0
C165 C 0.06787 0.35565 0.90558 0.0
C166 C 0.0737 0.31356 0.92818 0.0
N167 N 0.13833 0.30045 0.93211 0.0
N168 N 0.12839 0.3678 0.89501 0.0
C169 C 0.17027 0.33401 0.91195 0.0
H170 H 1.02216 0.37363 0.89672 0.0
Co171 Co 0.14549 0.41022 0.86109 0.0
C172 C 0.28706 0.3816 0.84891 0.0
O173 O 0.29186 0.44506 0.84387 0.0
N174 N 0.16261 0.45174 0.82617 0.0
C175 C 0.17997 0.5213 0.79061 0.0
C176 C 0.17761 0.51467 0.81915 0.0
C177 C 0.15866 0.42107 0.80143 0.0
N178 N 0.16721 0.46237 0.77969 0.0
O179 O 0.091 0.34401 0.84375 0.0
H180 H 0.18473 0.5544 0.83346 0.0
H181 H 0.14537 0.3701 0.7991 0.0
O182 O 0.23059 0.359 0.85651 0.0
C183 C 0.03411 0.36626 0.83579 0.0
O184 O 1.02753 0.42954 0.83038 0.0
N185 N 0.18524 0.4778 0.88039 0.0
C186 C 0.1875 0.56157 0.92525 0.0
C187 C 0.23813 0.51458 0.92182 0.0
C188 C 0.23611 0.47261 0.89904 0.0
C189 C 0.13924 0.52724 0.88243 0.0
C190 C 0.14055 0.57109 0.90432 0.0
H191 H 0.27043 0.43153 0.89865 0.0
H192 H 0.09697 0.52808 0.86865 0.0
H193 H 0.22312 0.3317 0.90917 0.0
H194 H 0.03377 0.29272 0.94028 0.0
H195 H 0.18544 0.56667 0.77881 0.0
H196 H 0.27405 0.5054 0.93817 0.0
H197 H 0.1 0.606 0.90688 0.0
C198 C 0.18435 0.59623 0.16917 0.0
C199 C 0.22357 0.60556 0.19217 0.0
N200 N 0.26642 0.65343 0.18581 0.0
N201 N 0.2024 0.63873 0.14881 0.0
C202 C 0.25353 0.67181 0.15939 0.0
H203 H 0.14376 0.56247 0.1677 0.0
Co204 Co 0.16319 0.64983 0.1144 0.0
C205 C 0.19337 0.78883 0.09608 0.0
O206 O 0.13897 0.79232 0.08129 0.0
N207 N 0.1239 0.65971 0.07909 0.0
C208 C 0.05598 0.67234 0.04279 0.0
C209 C 0.06092 0.67455 0.07134 0.0
C210 C 0.15606 0.64988 0.0548 0.0
N211 N 0.11595 0.65636 0.03271 0.0
O212 O 0.2343 0.59657 0.09908 0.0
H213 H 1.02037 0.68549 0.08524 0.0
H214 H 0.20761 0.63575 0.05306 0.0
O215 O 0.20969 0.73481 0.10873 0.0
C216 C 0.2151 0.53684 0.10108 0.0
O217 O 0.1544 0.52598 0.1095 0.0
N218 N 0.09205 0.6915 0.13172 0.0
C219 C 1.0066 0.70679 0.17625 0.0
C220 C 0.05001 0.75739 0.16905 0.0
C221 C 0.09465 0.74741 0.14719 0.0
C222 C 0.04396 0.64647 0.13639 0.0
C223 C 1.00047 0.65321 0.1586 0.0
H224 H 0.13609 0.77985 0.14558 0.0
H225 H 0.04462 0.60103 0.12489 0.0
H226 H 0.27929 0.71087 0.14863 0.0
H227 H 0.21905 0.58155 0.21233 0.0
H228 H 1.01143 0.67826 0.03051 0.0
H229 H 0.05653 0.79863 0.18281 0.0
H230 H 0.96759 0.61324 0.16377 0.0
C231 C 0.98029 0.65968 0.42235 0.0
C232 C 0.97259 0.69561 0.44634 0.0
N233 N 0.93204 0.74695 0.44043 0.0
N234 N 0.94376 0.68789 0.40186 0.0
C235 C 0.91632 0.74183 0.4134 0.0
H236 H 1.00836 0.6146 0.42019 0.0
Co237 Co 0.92722 0.65759 0.36636 0.0
C238 C 0.78242 0.67991 0.35946 0.0
O239 O 0.7793 0.61723 0.35333 0.0
N240 N 0.90931 0.62945 0.32959 0.0
C241 C 0.88699 0.57679 0.29022 0.0
C242 C 0.88978 0.57149 0.31879 0.0
C243 C 0.91425 0.66957 0.30706 0.0
N244 N 0.90299 0.63856 0.28307 0.0
O245 O 0.97756 0.73254 0.35248 0.0
H246 H 0.87889 0.52723 0.33043 0.0
H247 H 0.92889 0.72025 0.30775 0.0
O248 O 0.83878 0.70486 0.36541 0.0
C249 C 0.03723 0.71166 0.34868 0.0
O250 O 0.04807 0.64767 0.34893 0.0
N251 N 0.89233 0.58047 0.38226 0.0
C252 C 0.90122 0.4813 0.42247 0.0
C253 C 0.85439 0.53238 0.42512 0.0
C254 C 0.85005 0.58135 0.40449 0.0
C255 C 0.93394 0.52772 0.37842 0.0
C256 C 0.93636 0.47555 0.39754 0.0
H257 H 0.81998 0.6243 0.4086 0.0
H258 H 0.97086 0.52933 0.36212 0.0
H259 H 0.88243 0.77514 0.40273 0.0
H260 H 0.99137 0.68277 0.46683 0.0
H261 H 0.87862 0.53732 0.27577 0.0
H262 H 0.82622 0.53792 0.44418 0.0
H263 H 0.97275 0.43642 0.39491 0.0
C264 C 0.18994 0.21732 -0.00072 0.0
C265 C 0.24087 0.17517 -0.01065 0.0
C266 C 0.20765 0.20179 0.94168 0.0
C267 C 0.16785 0.25447 0.95165 0.0
N268 N 0.12566 0.31664 -0.00952 0.0
N269 N 0.30179 0.12977 0.9508 0.0
C270 C 0.15958 0.26316 -0.01934 0.0
C271 C 0.25047 0.16753 0.9604 0.0
N272 N 0.16937 0.21188 0.02626 0.0
N273 N 0.20247 0.18312 0.9146 0.0
H274 H 0.33464 0.10495 0.96408 0.0
H275 H 0.31456 0.12732 0.92979 0.0
H276 H 0.1689 0.20558 0.90086 0.0
H277 H 0.22628 0.14143 0.90675 0.0
H278 H 0.12864 0.23777 0.03407 0.0
H279 H 0.18919 0.17651 0.03996 0.0
H280 H 0.123 0.32795 0.01156 0.0
H281 H 0.10515 0.35276 -0.02259 0.0
C282 C 0.29518 0.75334 0.21119 0.0
C283 C 0.30911 0.68677 0.20458 0.0
C284 C 0.40511 0.68598 0.23544 0.0
C285 C 0.39301 0.75339 0.24068 0.0
N286 N 0.33644 0.85508 0.22958 0.0
N287 N 0.38188 0.59219 0.20639 0.0
C288 C 0.3411 0.78828 0.22718 0.0
C289 C 0.36555 0.65366 0.21557 0.0
N290 N 0.23649 0.78204 0.20334 0.0
N291 N 0.45295 0.65282 0.2502 0.0
H292 H 0.35353 0.56783 0.19175 0.0
H293 H 0.42567 0.56751 0.21164 0.0
H294 H 0.48318 0.67621 0.26447 0.0
H295 H 0.46008 0.602 0.24954 0.0
H296 H 0.22064 0.82828 0.20997 0.0
H297 H 0.20061 0.75721 0.1923 0.0
H298 H 0.30351 0.88451 0.21813 0.0
H299 H 0.37008 0.88164 0.24117 0.0
C300 C 0.92187 0.84851 0.46766 0.0
C301 C 0.89647 0.78705 0.45986 0.0
C302 C 0.79149 0.81307 0.48241 0.0
C303 C 0.81878 0.87161 0.49267 0.0
N304 N 0.91227 0.94175 0.49861 0.0
N305 N 0.81299 0.70454 0.46408 0.0
C306 C 0.88466 0.88882 0.48615 0.0
C307 C 0.83292 0.7674 0.46858 0.0
N308 N 0.98109 0.86823 0.45706 0.0
N309 N 0.72539 0.80234 0.48541 0.0
H310 H 0.84304 0.6697 0.4543 0.0
H311 H 0.76948 0.68534 0.4722 0.0
H312 H 0.69354 0.83705 0.49429 0.0
H313 H 0.70122 0.76269 0.47672 0.0
H314 H 0.99966 0.91526 0.45969 0.0
H315 H 1.00976 0.83826 0.44412 0.0
H316 H 0.9621 0.95318 0.49684 0.0
H317 H 0.88608 0.97176 0.51235 0.0
C318 C 0.68821 0.37644 0.69228 0.0
C319 C 0.74179 0.41437 0.70165 0.0
C320 C 0.70803 0.39131 0.74951 0.0
C321 C 0.66589 0.3413 0.74 0.0
N322 N 0.62532 0.27875 0.70124 0.0
N323 N 0.80965 0.44791 0.74031 0.0
C324 C 0.65763 0.33215 0.71104 0.0
C325 C 0.75334 0.42009 0.73064 0.0
N326 N 0.66697 0.38253 0.66543 0.0
N327 N 0.70463 0.4112 0.77651 0.0
H328 H 0.84711 0.46492 0.72734 0.0
H329 H 0.82231 0.44731 0.76136 0.0
H330 H 0.6693 0.39315 0.79039 0.0
H331 H 0.73144 0.4507 0.78394 0.0
H332 H 0.62504 0.35912 0.65812 0.0
H333 H 0.68702 0.41682 0.65161 0.0
H334 H 0.62397 0.26727 0.68014 0.0
H335 H 0.60643 0.24212 0.71418 0.0
C336 C 0.66962 0.18973 0.96068 0.0
C337 C 0.63328 0.15428 0.94088 0.0
C338 C 0.53955 0.1465 0.97285 0.0
C339 C 0.57467 0.1847 -0.00767 0.0
N340 N 0.66954 0.24793 0.0047 0.0
N341 N 0.53117 0.10767 0.92556 0.0
C342 C 0.63886 0.20795 -0.01378 0.0
C343 C 0.56759 0.13488 0.94631 0.0
N344 N 0.73381 0.20482 0.95492 0.0
N345 N 0.48006 0.11977 -0.01999 0.0
H346 H 0.55027 0.09767 0.90587 0.0
H347 H 0.48052 0.09998 0.92695 0.0
H348 H 0.45533 0.12986 -0.00142 0.0
H349 H 0.45692 0.08397 0.96836 0.0
H350 H 0.76567 0.22624 0.96902 0.0
H351 H 0.7565 0.19224 0.93613 0.0
H352 H 0.71422 0.27096 0.0008 0.0
H353 H 0.6481 0.26126 0.02364 0.0
C354 C 0.43625 0.04277 0.2246 0.0
C355 C 0.39837 0.078 0.24463 0.0
C356 C 0.38765 0.17114 0.21179 0.0
C357 C 0.42206 0.1338 0.19152 0.0
N358 N 0.47579 1.03237 0.17775 0.0
N359 N 0.33295 0.1732 0.25703 0.0
C360 C 0.44505 0.06926 0.19771 0.0
C361 C 0.37263 0.14175 0.23818 0.0
N362 N 0.46517 0.98326 0.23051 0.0
N363 N 0.37127 0.23519 0.20585 0.0
H364 H 0.32244 0.15319 0.27665 0.0
H365 H 0.30755 0.21713 0.25285 0.0
H366 H 0.38264 0.25704 0.18671 0.0
H367 H 0.35084 0.2677 0.22018 0.0
H368 H 0.46337 0.95981 0.24993 0.0
H369 H 0.46337 0.95981 0.24993 0.0
H370 H 0.49315 0.98442 0.18156 0.0
H371 H 0.48237 0.04872 0.1573 0.0
C372 C 0.50088 0.93529 0.45034 0.0
C373 C 0.4361 0.91562 0.44406 0.0
C374 C 0.4269 0.86053 0.48972 0.0
C375 C 0.49141 0.88213 0.49618 0.0
N376 N 0.58932 0.94287 0.48222 0.0
N377 N 0.33527 0.8626 0.45665 0.0
C378 C 0.52792 0.92007 0.47657 0.0
C379 C 0.3984 0.87887 0.46349 0.0
N380 N 0.53775 0.96839 0.43098 0.0
N381 N 0.39391 0.82199 0.50853 0.0
H382 H 0.31433 0.87578 0.43748 0.0
H383 H 0.30272 0.83849 0.46992 0.0
H384 H 0.41394 0.80836 0.52781 0.0
H385 H 0.34804 0.80142 0.50496 0.0
H386 H 0.5859 0.98354 0.43486 0.0
H387 H 0.52122 0.97916 0.41088 0.0
H388 H 0.61408 0.93512 0.50101 0.0
H389 H 0.61408 0.93512 0.50101 0.0
C390 C 0.62746 1.02682 0.72479 0.0
C391 C 0.66465 0.99123 0.74528 0.0
C392 C 0.67376 0.89616 0.7146 0.0
C393 C 0.63597 0.93131 0.69444 0.0
N394 N 0.5722 1.02643 0.67995 0.0
N395 N 0.71724 0.89105 0.76179 0.0
C396 C 0.61127 0.9956 0.69951 0.0
C397 C 0.68603 0.9254 0.74083 0.0
N398 N 0.60899 0.09098 0.72935 0.0
N399 N 0.69902 0.8355 0.7081 0.0
H400 H 0.72837 0.91199 0.78092 0.0
H401 H 0.72925 0.84114 0.76097 0.0
H402 H 0.68856 0.81266 0.68929 0.0
H403 H 0.73223 0.8089 0.72053 0.0
H404 H 0.58843 0.1222 0.71429 0.0
H405 H 0.61648 0.1149 0.74813 0.0
H406 H 0.54636 0.07035 0.6831 0.0
H407 H 0.56276 1.0065 0.6605 0.0
C408 C 0.18552 0.41574 0.7332 0.0
C409 C 0.14434 0.45036 0.75202 0.0
C410 C 0.05543 0.45518 0.71778 0.0
C411 C 0.09373 0.41388 0.70015 0.0
N412 N 0.19341 0.35169 0.69084 0.0
N413 N 0.03733 0.4949 0.7644 0.0
C414 C 0.15863 0.39349 0.70769 0.0
C415 C 0.07863 0.46827 0.74484 0.0
N416 N 0.25036 0.40501 0.73987 0.0
N417 N 0.99733 0.48287 0.70847 0.0
H418 H 0.05256 0.50618 0.78446 0.0
H419 H 0.98658 0.50097 0.76152 0.0
H420 H 0.97796 0.47431 0.68878 0.0
H421 H 0.97116 0.51904 0.71926 0.0
H422 H 0.28511 0.3846 0.72636 0.0
H423 H 0.27033 0.42139 0.7585 0.0
H424 H 0.2385 0.32986 0.6963 0.0
H425 H 0.1752 0.33589 0.67177 0.0
C426 C 0.19482 0.64774 0.96206 0.0
C427 C 0.17149 0.58599 0.95329 0.0
C428 C 0.11212 0.57073 -0.00273 0.0
C429 C 0.13169 0.63424 0.00528 0.0
N430 N 0.18596 0.73612 -0.0043 0.0
N431 N 0.10143 0.49169 0.9605 0.0
C432 C 0.17163 0.67362 -0.01225 0.0
C433 C 0.12828 0.54829 0.97033 0.0
N434 N 0.23955 0.68075 0.94596 0.0
N435 N 0.08078 0.53065 0.01601 0.0
H436 H 0.11499 0.47046 0.94165 0.0
H437 H 0.06227 0.46782 0.97019 0.0
H438 H 0.06834 0.54524 0.0361 0.0
H439 H 0.07225 0.48096 0.01266 0.0
H440 H 0.26294 0.72344 0.95207 0.0
H441 H 0.25648 0.663 0.92689 0.0
H442 H 0.21046 0.77007 -0.01683 0.0
H443 H 0.16928 0.75553 0.01453 0.0
C444 C 0.91168 0.7073 0.21008 0.0
C445 C 0.9805 0.69995 0.20496 0.0
C446 C 0.99693 0.65111 0.25136 0.0
C447 C 0.92857 0.65945 0.25663 0.0
N448 N 0.82181 0.70228 0.24382 0.0
N449 N 0.09072 0.67518 0.2222 0.0
C450 C 0.88616 0.68982 0.23678 0.0
C451 C 1.02379 0.6755 0.22615 0.0
N452 N 0.87101 0.72957 0.18919 0.0
N453 N 0.03565 0.61684 0.27004 0.0
H454 H 0.11307 0.68722 0.20341 0.0
H455 H 0.12483 0.66727 0.23815 0.0
H456 H 1.01822 0.59902 0.28907 0.0
H457 H 0.08394 0.60136 0.26595 0.0
H458 H 0.81967 0.72983 0.19041 0.0
H459 H 0.88899 0.74589 0.16995 0.0
H460 H 0.78885 0.72941 0.23146 0.0
H461 H 0.80237 0.68817 0.26309 0.0
C462 C 0.87777 0.39527 0.45922 0.0
C463 C 0.92111 0.4426 0.44763 0.0
C464 C 0.98335 0.44489 0.49114 0.0
C465 C 0.94223 0.39569 0.50236 0.0
N466 N 0.85737 0.31598 0.49657 0.0
N467 N 1.02744 0.49601 0.44985 0.0
C468 C 0.89161 0.36815 0.48612 0.0
C469 C 0.97802 0.46189 0.46263 0.0
N470 N 0.82299 0.37748 0.44472 0.0
N471 N 1.02463 0.47858 0.50815 0.0
H472 H 1.02778 0.50753 0.42874 0.0
H473 H 0.07225 0.50577 0.45949 0.0
H474 H 1.02824 0.46939 0.5295 0.0
H475 H 0.04998 0.52034 0.50166 0.0
H476 H 0.78553 0.34881 0.45313 0.0
H477 H 0.81387 0.39382 0.42437 0.0
H478 H 0.82337 0.28964 0.48511 0.0
H479 H 0.86689 0.29606 0.51632 0.0
C480 C 0.20242 0.9079 0.11126 0.0
C481 C 0.23257 0.85007 0.09989 0.0
C482 C 0.3331 0.91286 0.09032 0.0
C483 C 0.30517 0.96913 0.10399 0.0
N484 N 0.21858 1.01364 0.133 0.0
N485 N 0.33083 0.79524 0.08269 0.0
C486 C 0.2412 0.96488 0.11591 0.0
C487 C 0.2994 0.85175 0.09106 0.0
N488 N 0.13655 0.90908 0.11765 0.0
N489 N 0.3896 0.91828 0.07475 0.0
H490 H 0.30705 0.75057 0.08025 0.0
H491 H 0.38186 0.79159 0.07998 0.0
H492 H 0.41521 0.96179 0.07178 0.0
H493 H 0.40731 0.88121 0.06181 0.0
H494 H 0.11058 0.95216 0.12246 0.0
H495 H 0.10631 0.86832 0.11635 0.0
H496 H 0.1756 1.00993 0.14486 0.0
H497 H 0.24612 0.05498 0.13769 0.0
C498 C 0.69568 0.75473 0.38228 0.0
C499 C 0.719 0.7194 0.35869 0.0
C500 C 0.61004 0.73598 0.33653 0.0
C501 C 0.59005 0.77847 0.35825 0.0
N502 N 0.61493 0.83184 0.40134 0.0
N503 N 0.70186 0.68861 0.31089 0.0
C504 C 0.63338 0.78885 0.38099 0.0
C505 C 0.67691 0.71324 0.33518 0.0
N506 N 0.73125 0.75333 0.40638 0.0
N507 N 0.56515 0.71701 0.31714 0.0
H508 H 0.7513 0.67442 0.30857 0.0
H509 H 0.67567 0.68915 0.29223 0.0
H510 H 0.51549 0.73104 0.318 0.0
H511 H 0.57541 0.68149 0.30222 0.0
H512 H 0.71367 0.7721 0.4251 0.0
H513 H 0.77635 0.72867 0.40832 0.0
H514 H 0.647 0.84857 0.41655 0.0
H515 H 0.56767 0.85298 0.40222 0.0
C516 C 0.82364 0.09659 0.58612 0.0
C517 C 0.77828 0.07747 0.60716 0.0
C518 C 0.80147 0.17953 0.63217 0.0
C519 C 0.83877 0.20314 0.60905 0.0
N520 N 0.87611 0.1871 0.56181 0.0
N521 N 0.71817 0.10426 0.64905 0.0
C522 C 0.84729 0.16231 0.58542 0.0
C523 C 0.7652 0.12025 0.62976 0.0
N524 N 0.84475 0.05195 0.5669 0.0
N525 N 0.80409 0.21083 0.65707 0.0
H526 H 0.69397 0.05931 0.64913 0.0
H527 H 0.7007 0.13706 0.66398 0.0
H528 H 0.83428 0.25077 0.66025 0.0
H529 H 0.78269 0.19263 0.67531 0.0
H530 H 0.88214 0.06142 0.55252 0.0
H531 H 0.83035 1.00297 0.56739 0.0
H532 H 0.87753 0.16214 0.543 0.0
H533 H 0.89261 0.2354 0.5602 0.0
C534 C 0.43384 0.27483 0.87368 0.0
C535 C 0.48324 0.29335 0.85429 0.0
C536 C 0.40047 0.36013 0.82873 0.0
C537 C 0.35049 0.34115 0.84811 0.0
N538 N 0.31757 0.26006 0.88242 0.0
N539 N 0.51725 0.36712 0.81752 0.0
C540 C 0.36645 0.29318 0.86896 0.0
C541 C 0.46771 0.34017 0.83306 0.0
N542 N 0.45223 0.2404 0.89711 0.0
N543 N 0.38236 0.39256 0.80474 0.0
H544 H 0.56695 0.35583 0.82084 0.0
H545 H 0.51006 0.40601 0.80347 0.0
H546 H 0.33305 0.40246 0.79974 0.0
H547 H 0.41458 0.40221 0.78831 0.0
H548 H 0.42032 0.23052 0.91365 0.0
H549 H 0.50167 0.22863 0.90127 0.0
H550 H 0.32665 0.22161 0.89648 0.0
H551 H 0.26854 0.26284 0.87614 0.0
C552 C 0.82115 0.62995 0.57225 0.0
C553 C 0.79819 0.575 0.58786 0.0
C554 C 0.72666 0.65005 0.61478 0.0
C555 C 0.74894 0.705 0.59878 0.0
N556 N 0.84056 0.74682 0.57194 0.0
N557 N 0.71497 0.53181 0.61884 0.0
C558 C 0.80234 0.69517 0.57994 0.0
C559 C 0.74671 0.58468 0.60761 0.0
N560 N 0.8606 0.61935 0.54957 0.0
N561 N 0.69124 0.66099 0.63861 0.0
H562 H 0.72453 0.48372 0.61272 0.0
H563 H 0.67318 0.53604 0.63143 0.0
H564 H 0.68203 0.70826 0.64612 0.0
H565 H 0.67914 0.624 0.65286 0.0
H566 H 0.87376 0.65663 0.5356 0.0
H567 H 0.87358 0.57198 0.54307 0.0
H568 H 0.88279 0.74162 0.55966 0.0
H569 H 0.8369 0.79268 0.58126 0.0
C570 C 0.91026 0.22809 0.82237 0.0
C571 C 0.85458 0.24972 0.83836 0.0
C572 C 0.91577 0.34796 0.85194 0.0
C573 C 0.97295 0.32499 0.83702 0.0
N574 N 1.02591 0.24037 0.80975 0.0
N575 N 0.81028 0.32219 0.87324 0.0
C576 C 0.97057 0.26402 0.8229 0.0
C577 C 0.85878 0.30776 0.85423 0.0
N578 N 0.90482 0.1745 0.80563 0.0
N579 N 0.91524 0.40825 0.86434 0.0
H580 H 0.76839 0.29365 0.87615 0.0
H581 H 0.81431 0.35867 0.88815 0.0
H582 H 0.95695 0.43636 0.86754 0.0
H583 H 0.87197 0.43204 0.87079 0.0
H584 H 0.93942 0.16139 0.79055 0.0
H585 H 0.86362 0.14467 0.80543 0.0
H586 H 1.03105 0.19235 0.80267 0.0
H587 H 0.06858 0.2677 0.80692 0.0
C588 C 0.30234 0.45697 0.11753 0.0
C589 C 0.25859 0.47814 0.09616 0.0
C590 C 0.2677 0.36844 0.07483 0.0
C591 C 0.30969 0.34622 0.09692 0.0
N592 N 0.35037 0.36471 0.1432 0.0
N593 N 0.19802 0.45532 0.05458 0.0
C594 C 0.32246 0.3895 0.11931 0.0
C595 C 0.24147 0.43423 0.07469 0.0
N596 N 0.32498 0.50152 0.13617 0.0
N597 N 0.25221 0.32662 0.05404 0.0
H598 H 0.18249 0.50439 0.05281 0.0
H599 H 0.17645 0.42484 0.04005 0.0
H600 H 0.25463 0.27609 0.05701 0.0
H601 H 0.23414 0.34165 0.03467 0.0
H602 H 0.36218 0.49075 0.15055 0.0
H603 H 0.31156 0.55122 0.1353 0.0
H604 H 0.35537 0.39161 0.16138 0.0
H605 H 0.36137 0.31472 0.14586 0.0
C606 C 0.16313 0.84536 0.32926 0.0
C607 C 0.21825 0.82507 0.34604 0.0
C608 C 0.14885 0.74073 0.36804 0.0
C609 C 0.09648 0.75556 0.34897 0.0
N610 N 0.05859 0.81607 0.30847 0.0
N611 N 0.26491 0.74882 0.37982 0.0
C612 C 0.10478 0.80656 0.32887 0.0
C613 C 0.21158 0.77102 0.36475 0.0
N614 N 0.16574 0.90225 0.31382 0.0
N615 N 0.1376 0.70015 0.39041 0.0
H616 H 0.31034 0.77229 0.37986 0.0
H617 H 0.26553 0.70441 0.39091 0.0
H618 H 0.09221 0.67859 0.39421 0.0
H619 H 0.17074 0.6933 0.40679 0.0
H620 H 0.1246 0.92356 0.30406 0.0
H621 H 0.20748 0.93127 0.31241 0.0
H622 H 0.06575 0.84643 0.29111 0.0
H623 H 1.01515 0.7895 0.30765 0.0
loop_
_geom_bond_atom_site_label_1
_geom_bond_atom_site_label_2
_geom_bond_distance
_geom_bond_site_symmetry_2
_ccdc_geom_bond_type
C0 C1 1.351 . S
C0 N3 1.368 . S
C0 H5 0.931 . S
C1 C0 1.351 . S
C1 N2 1.373 . S
C1 H29 0.930 . S
N2 C1 1.373 . S
N2 C4 1.340 . S
N3 C0 1.368 . S
N3 C4 1.321 . S
N3 Co6 2.135 . S
C4 N2 1.340 . S
C4 N3 1.321 . S
C4 H28 0.930 . S
H5 C0 0.931 . S
Co6 N3 2.135 . S
Co6 N9 2.121 . S
Co6 O14 2.055 . S
Co6 O17 2.039 . S
Co6 N20 2.140 . S
C7 O8 1.227 . S
C7 O17 1.265 . S
O8 C7 1.227 . S
N9 Co6 2.121 . S
N9 C11 1.375 . S
N9 C12 1.313 . S
C10 C11 1.338 . S
C10 N13 1.377 . S
C10 H30 0.930 . S
C11 N9 1.375 . S
C11 C10 1.338 . S
C11 H15 0.931 . S
C12 N9 1.313 . S
C12 N13 1.344 . S
C12 H16 0.930 . S
N13 C10 1.377 . S
N13 C12 1.344 . S
O14 Co6 2.055 . S
O14 C18 1.253 . S
H15 C11 0.931 . S
H16 C12 0.930 . S
O17 Co6 2.039 . S
O17 C7 1.265 . S
C18 O14 1.253 . S
C18 O19 1.227 . S
O19 C18 1.227 . S
N20 Co6 2.140 . S
N20 C23 1.346 . S
N20 C24 1.345 . S
C21 C22 1.387 . S
C21 C25 1.391 . S
C22 C21 1.387 . S
C22 C23 1.369 . S
C22 H31 0.929 . S
C23 N20 1.346 . S
C23 C22 1.369 . S
C23 H26 0.928 . S
C24 N20 1.345 . S
C24 C25 1.371 . S
C24 H27 0.931 . S
C25 C21 1.391 . S
C25 C24 1.371 . S
C25 H32 0.930 . S
H26 C23 0.928 . S
H27 C24 0.931 . S
H28 C4 0.930 . S
H29 C1 0.930 . S
H30 C10 0.930 . S
H31 C22 0.929 . S
H32 C25 0.930 . S
C33 C34 1.351 . S
C33 N36 1.368 . S
C33 H38 0.931 . S
C34 C33 1.351 . S
C34 N35 1.373 . S
C34 H62 0.930 . S
N35 C34 1.373 . S
N35 C37 1.340 . S
N36 C33 1.368 . S
N36 C37 1.321 . S
N36 Co39 2.135 . S
C37 N35 1.340 . S
C37 N36 1.321 . S
C37 H61 0.930 . S
H38 C33 0.931 . S
Co39 N36 2.135 . S
Co39 N42 2.121 . S
Co39 O47 2.055 . S
Co39 O50 2.039 . S
Co39 N53 2.140 . S
C40 O41 1.227 . S
C40 O50 1.265 . S
O41 C40 1.227 . S
N42 Co39 2.121 . S
N42 C44 1.375 . S
N42 C45 1.313 . S
C43 C44 1.338 . S
C43 N46 1.377 . S
C43 H63 0.930 . S
C44 N42 1.375 . S
C44 C43 1.338 . S
C44 H48 0.931 . S
C45 N42 1.313 . S
C45 N46 1.344 . S
C45 H49 0.930 . S
N46 C43 1.377 . S
N46 C45 1.344 . S
O47 Co39 2.055 . S
O47 C51 1.253 . S
H48 C44 0.931 . S
H49 C45 0.930 . S
O50 Co39 2.039 . S
O50 C40 1.265 . S
C51 O47 1.253 . S
C51 O52 1.227 . S
O52 C51 1.227 . S
N53 Co39 2.140 . S
N53 C56 1.346 . S
N53 C57 1.345 . S
C54 C55 1.387 . S
C54 C58 1.391 . S
C55 C54 1.387 . S
C55 C56 1.369 1_545 S
C55 H64 0.929 . S
C56 N53 1.346 . S
C56 C55 1.369 1_565 S
C56 H59 0.928 . S
C57 N53 1.345 . S
C57 C58 1.371 1_565 S
C57 H60 0.931 . S
C58 C54 1.391 . S
C58 C57 1.371 1_545 S
C58 H65 0.930 . S
H59 C56 0.928 . S
H60 C57 0.931 . S
H61 C37 0.930 . S
H62 C34 0.930 . S
H63 C43 0.930 . S
H64 C55 0.929 . S
H65 C58 0.930 . S
C66 C67 1.351 . S
C66 N69 1.368 . S
C66 H71 0.931 . S
C67 C66 1.351 . S
C67 N68 1.373 . S
C67 H95 0.930 . S
N68 C67 1.373 . S
N68 C70 1.340 . S
N69 C66 1.368 . S
N69 C70 1.321 . S
N69 Co72 2.135 . S
C70 N68 1.340 . S
C70 N69 1.321 . S
C70 H94 0.930 . S
H71 C66 0.931 . S
Co72 N69 2.135 . S
Co72 N75 2.121 . S
Co72 O80 2.055 . S
Co72 O83 2.039 . S
Co72 N86 2.140 . S
C73 O74 1.227 . S
C73 O83 1.265 . S
O74 C73 1.227 . S
N75 Co72 2.121 . S
N75 C77 1.375 . S
N75 C78 1.313 . S
C76 C77 1.338 . S
C76 N79 1.377 . S
C76 H96 0.930 . S
C77 N75 1.375 . S
C77 C76 1.338 . S
C77 H81 0.931 . S
C78 N75 1.313 . S
C78 N79 1.344 . S
C78 H82 0.930 . S
N79 C76 1.377 . S
N79 C78 1.344 . S
O80 Co72 2.055 . S
O80 C84 1.253 . S
H81 C77 0.931 . S
H82 C78 0.930 . S
O83 Co72 2.039 . S
O83 C73 1.265 . S
C84 O80 1.253 . S
C84 O85 1.227 . S
O85 C84 1.227 . S
N86 Co72 2.140 . S
N86 C89 1.346 . S
N86 C90 1.345 . S
C87 C88 1.387 . S
C87 C91 1.391 . S
C88 C87 1.387 . S
C88 C89 1.369 . S
C88 H97 0.929 . S
C89 N86 1.346 . S
C89 C88 1.369 . S
C89 H92 0.928 . S
C90 N86 1.345 . S
C90 C91 1.371 . S
C90 H93 0.931 . S
C91 C87 1.391 . S
C91 C90 1.371 . S
C91 H98 0.930 . S
H92 C89 0.928 . S
H93 C90 0.931 . S
H94 C70 0.930 . S
H95 C67 0.930 . S
H96 C76 0.930 . S
H97 C88 0.929 . S
H98 C91 0.930 . S
C99 C100 1.351 . S
C99 N102 1.368 . S
C99 H104 0.931 . S
C100 C99 1.351 . S
C100 N101 1.373 . S
C100 H128 0.930 . S
N101 C100 1.373 . S
N101 C103 1.340 . S
N102 C99 1.368 . S
N102 C103 1.321 . S
N102 Co105 2.135 . S
C103 N101 1.340 . S
C103 N102 1.321 . S
C103 H127 0.930 . S
H104 C99 0.931 . S
Co105 N102 2.135 . S
Co105 N108 2.121 . S
Co105 O113 2.055 . S
Co105 O116 2.039 . S
Co105 N119 2.140 . S
C106 O107 1.227 . S
C106 O116 1.265 . S
O107 C106 1.227 . S
N108 Co105 2.121 . S
N108 C110 1.375 . S
N108 C111 1.313 . S
C109 C110 1.338 . S
C109 N112 1.377 . S
C109 H129 0.930 . S
C110 N108 1.375 . S
C110 C109 1.338 . S
C110 H114 0.931 . S
C111 N108 1.313 . S
C111 N112 1.344 . S
C111 H115 0.930 . S
N112 C109 1.377 . S
N112 C111 1.344 . S
O113 Co105 2.055 . S
O113 C117 1.253 . S
H114 C110 0.931 . S
H115 C111 0.930 . S
O116 Co105 2.039 . S
O116 C106 1.265 . S
C117 O113 1.253 . S
C117 O118 1.227 . S
O118 C117 1.227 . S
N119 Co105 2.140 . S
N119 C122 1.346 . S
N119 C123 1.345 . S
C120 C121 1.387 . S
C120 C124 1.391 . S
C121 C120 1.387 . S
C121 C122 1.369 1_565 S
C121 H130 0.929 . S
C122 N119 1.346 . S
C122 C121 1.369 1_545 S
C122 H125 0.928 . S
C123 N119 1.345 . S
C123 C124 1.371 1_545 S
C123 H126 0.931 . S
C124 C120 1.391 . S
C124 C123 1.371 1_565 S
C124 H131 0.930 . S
H125 C122 0.928 . S
H126 C123 0.931 . S
H127 C103 0.930 . S
H128 C100 0.930 . S
H129 C109 0.930 . S
H130 C121 0.929 . S
H131 C124 0.930 . S
C132 C133 1.351 . S
C132 N135 1.368 . S
C132 H137 0.931 . S
C133 C132 1.351 . S
C133 N134 1.373 . S
C133 H161 0.930 . S
N134 C133 1.373 . S
N134 C136 1.340 . S
N135 C132 1.368 . S
N135 C136 1.321 . S
N135 Co138 2.135 . S
C136 N134 1.340 . S
C136 N135 1.321 . S
C136 H160 0.930 . S
H137 C132 0.931 . S
Co138 N135 2.135 . S
Co138 N141 2.121 . S
Co138 O146 2.055 . S
Co138 O149 2.039 . S
Co138 N152 2.140 . S
C139 O140 1.227 . S
C139 O149 1.265 . S
O140 C139 1.227 . S
N141 Co138 2.121 . S
N141 C143 1.375 . S
N141 C144 1.313 . S
C142 C143 1.338 . S
C142 N145 1.377 . S
C142 H162 0.930 . S
C143 N141 1.375 . S
C143 C142 1.338 . S
C143 H147 0.931 . S
C144 N141 1.313 . S
C144 N145 1.344 . S
C144 H148 0.930 . S
N145 C142 1.377 . S
N145 C144 1.344 . S
O146 Co138 2.055 . S
O146 C150 1.253 . S
H147 C143 0.931 . S
H148 C144 0.930 . S
O149 Co138 2.039 . S
O149 C139 1.265 . S
C150 O146 1.253 . S
C150 O151 1.227 . S
O151 C150 1.227 . S
N152 Co138 2.140 . S
N152 C155 1.346 . S
N152 C156 1.345 . S
C153 C154 1.387 . S
C153 C157 1.391 . S
C154 C153 1.387 . S
C154 C155 1.369 1_455 S
C154 H163 0.929 . S
C155 N152 1.346 . S
C155 C154 1.369 1_655 S
C155 H158 0.928 . S
C156 N152 1.345 . S
C156 C157 1.371 1_655 S
C156 H159 0.931 . S
C157 C153 1.391 . S
C157 C156 1.371 1_455 S
C157 H164 0.930 . S
H158 C155 0.928 . S
H159 C156 0.931 . S
H160 C136 0.930 . S
H161 C133 0.930 . S
H162 C142 0.930 . S
H163 C154 0.929 . S
H164 C157 0.930 . S
C165 C166 1.351 . S
C165 N168 1.368 . S
C165 H170 0.931 . S
C166 C165 1.351 . S
C166 N167 1.373 . S
C166 H194 0.930 . S
N167 C166 1.373 . S
N167 C169 1.340 . S
N168 C165 1.368 . S
N168 C169 1.321 . S
N168 Co171 2.135 . S
C169 N167 1.340 . S
C169 N168 1.321 . S
C169 H193 0.930 . S
H170 C165 0.931 . S
Co171 N168 2.135 . S
Co171 N174 2.121 . S
Co171 O179 2.055 . S
Co171 O182 2.039 . S
Co171 N185 2.140 . S
C172 O173 1.227 . S
C172 O182 1.265 . S
O173 C172 1.227 . S
N174 Co171 2.121 . S
N174 C176 1.375 . S
N174 C177 1.313 . S
C175 C176 1.338 . S
C175 N178 1.377 . S
C175 H195 0.930 . S
C176 N174 1.375 . S
C176 C175 1.338 . S
C176 H180 0.931 . S
C177 N174 1.313 . S
C177 N178 1.344 . S
C177 H181 0.930 . S
N178 C175 1.377 . S
N178 C177 1.344 . S
O179 Co171 2.055 . S
O179 C183 1.253 . S
H180 C176 0.931 . S
H181 C177 0.930 . S
O182 Co171 2.039 . S
O182 C172 1.265 . S
C183 O179 1.253 . S
C183 O184 1.227 . S
O184 C183 1.227 . S
N185 Co171 2.140 . S
N185 C188 1.346 . S
N185 C189 1.345 . S
C186 C187 1.387 . S
C186 C190 1.391 . S
C187 C186 1.387 . S
C187 C188 1.369 . S
C187 H196 0.929 . S
C188 N185 1.346 . S
C188 C187 1.369 . S
C188 H191 0.928 . S
C189 N185 1.345 . S
C189 C190 1.371 . S
C189 H192 0.931 . S
C190 C186 1.391 . S
C190 C189 1.371 . S
C190 H197 0.930 . S
H191 C188 0.928 . S
H192 C189 0.931 . S
H193 C169 0.930 . S
H194 C166 0.930 . S
H195 C175 0.930 . S
H196 C187 0.929 . S
H197 C190 0.930 . S
C198 C199 1.351 . S
C198 N201 1.368 . S
C198 H203 0.931 . S
C199 C198 1.351 . S
C199 N200 1.373 . S
C199 H227 0.930 . S
N200 C199 1.373 . S
N200 C202 1.340 . S
N201 C198 1.368 . S
N201 C202 1.321 . S
N201 Co204 2.135 . S
C202 N200 1.340 . S
C202 N201 1.321 . S
C202 H226 0.930 . S
H203 C198 0.931 . S
Co204 N201 2.135 . S
Co204 N207 2.121 . S
Co204 O212 2.055 . S
Co204 O215 2.039 . S
Co204 N218 2.140 . S
C205 O206 1.227 . S
C205 O215 1.265 . S
O206 C205 1.227 . S
N207 Co204 2.121 . S
N207 C209 1.375 . S
N207 C210 1.313 . S
C208 C209 1.338 . S
C208 N211 1.377 . S
C208 H228 0.930 . S
C209 N207 1.375 . S
C209 C208 1.338 . S
C209 H213 0.931 . S
C210 N207 1.313 . S
C210 N211 1.344 . S
C210 H214 0.930 . S
N211 C208 1.377 . S
N211 C210 1.344 . S
O212 Co204 2.055 . S
O212 C216 1.253 . S
H213 C209 0.931 . S
H214 C210 0.930 . S
O215 Co204 2.039 . S
O215 C205 1.265 . S
C216 O212 1.253 . S
C216 O217 1.227 . S
O217 C216 1.227 . S
N218 Co204 2.140 . S
N218 C221 1.346 . S
N218 C222 1.345 . S
C219 C220 1.387 . S
C219 C223 1.391 . S
C220 C219 1.387 . S
C220 C221 1.369 1_655 S
C220 H229 0.929 . S
C221 N218 1.346 . S
C221 C220 1.369 1_455 S
C221 H224 0.928 . S
C222 N218 1.345 . S
C222 C223 1.371 1_455 S
C222 H225 0.931 . S
C223 C219 1.391 . S
C223 C222 1.371 1_655 S
C223 H230 0.930 . S
H224 C221 0.928 . S
H225 C222 0.931 . S
H226 C202 0.930 . S
H227 C199 0.930 . S
H228 C208 0.930 . S
H229 C220 0.929 . S
H230 C223 0.930 . S
C231 C232 1.351 . S
C231 N234 1.368 . S
C231 H236 0.931 . S
C232 C231 1.351 . S
C232 N233 1.373 . S
C232 H260 0.930 . S
N233 C232 1.373 . S
N233 C235 1.340 . S
N234 C231 1.368 . S
N234 C235 1.321 . S
N234 Co237 2.135 . S
C235 N233 1.340 . S
C235 N234 1.321 . S
C235 H259 0.930 . S
H236 C231 0.931 . S
Co237 N234 2.135 . S
Co237 N240 2.121 . S
Co237 O245 2.055 . S
Co237 O248 2.039 . S
Co237 N251 2.140 . S
C238 O239 1.227 . S
C238 O248 1.265 . S
O239 C238 1.227 . S
N240 Co237 2.121 . S
N240 C242 1.375 . S
N240 C243 1.313 . S
C241 C242 1.338 . S
C241 N244 1.377 . S
C241 H261 0.930 . S
C242 N240 1.375 . S
C242 C241 1.338 . S
C242 H246 0.931 . S
C243 N240 1.313 . S
C243 N244 1.344 . S
C243 H247 0.930 . S
N244 C241 1.377 . S
N244 C243 1.344 . S
O245 Co237 2.055 . S
O245 C249 1.253 . S
H246 C242 0.931 . S
H247 C243 0.930 . S
O248 Co237 2.039 . S
O248 C238 1.265 . S
C249 O245 1.253 . S
C249 O250 1.227 . S
O250 C249 1.227 . S
N251 Co237 2.140 . S
N251 C254 1.346 . S
N251 C255 1.345 . S
C252 C253 1.387 . S
C252 C256 1.391 . S
C253 C252 1.387 . S
C253 C254 1.369 . S
C253 H262 0.929 . S
C254 N251 1.346 . S
C254 C253 1.369 . S
C254 H257 0.928 . S
C255 N251 1.345 . S
C255 C256 1.371 . S
C255 H258 0.931 . S
C256 C252 1.391 . S
C256 C255 1.371 . S
C256 H263 0.930 . S
H257 C254 0.928 . S
H258 C255 0.931 . S
H259 C235 0.930 . S
H260 C232 0.930 . S
H261 C241 0.930 . S
H262 C253 0.929 . S
H263 C256 0.930 . S
C264 C265 1.363 . S
C264 C270 1.379 1_554 S
C264 N272 1.356 . S
C265 C264 1.363 . S
C265 C271 1.363 . S
C266 C267 1.363 . S
C266 C271 1.379 1_556 S
C266 N273 1.356 . S
C267 C266 1.363 . S
C267 C270 1.363 . S
N268 C270 1.356 . S
N268 H280 0.984 . S
N268 H281 0.985 . S
N269 C271 1.356 . S
N269 H274 0.984 . S
N269 H275 0.985 . S
C270 C264 1.379 1_556 S
C270 C267 1.363 . S
C270 N268 1.356 . S
C271 C265 1.363 . S
C271 C266 1.379 1_554 S
C271 N269 1.356 . S
N272 C264 1.356 . S
N272 H278 0.984 . S
N272 H279 0.984 . S
N273 C266 1.356 . S
N273 H276 0.984 . S
N273 H277 0.985 . S
H274 N269 0.984 . S
H275 N269 0.985 . S
H276 N273 0.984 . S
H277 N273 0.985 . S
H278 N272 0.984 . S
H279 N272 0.984 . S
H280 N268 0.984 . S
H281 N268 0.985 . S
C282 C283 1.363 . S
C282 C288 1.379 . S
C282 N290 1.356 . S
C283 C282 1.363 . S
C283 C289 1.363 . S
C284 C285 1.363 . S
C284 C289 1.379 . S
C284 N291 1.356 . S
C285 C284 1.363 . S
C285 C288 1.363 . S
N286 C288 1.356 . S
N286 H298 0.984 . S
N286 H299 0.985 . S
N287 C289 1.356 . S
N287 H292 0.984 . S
N287 H293 0.985 . S
C288 C282 1.379 . S
C288 C285 1.363 . S
C288 N286 1.356 . S
C289 C283 1.363 . S
C289 C284 1.379 . S
C289 N287 1.356 . S
N290 C282 1.356 . S
N290 H296 0.984 . S
N290 H297 0.984 . S
N291 C284 1.356 . S
N291 H294 0.984 . S
N291 H295 0.985 . S
H292 N287 0.984 . S
H293 N287 0.985 . S
H294 N291 0.984 . S
H295 N291 0.985 . S
H296 N290 0.984 . S
H297 N290 0.984 . S
H298 N286 0.984 . S
H299 N286 0.985 . S
C300 C301 1.363 . S
C300 C306 1.379 . S
C300 N308 1.356 . S
C301 C300 1.363 . S
C301 C307 1.363 . S
C302 C303 1.363 . S
C302 C307 1.379 . S
C302 N309 1.356 . S
C303 C302 1.363 . S
C303 C306 1.363 . S
N304 C306 1.356 . S
N304 H316 0.984 . S
N304 H317 0.985 . S
N305 C307 1.356 . S
N305 H310 0.984 . S
N305 H311 0.985 . S
C306 C300 1.379 . S
C306 C303 1.363 . S
C306 N304 1.356 . S
C307 C301 1.363 . S
C307 C302 1.379 . S
C307 N305 1.356 . S
N308 C300 1.356 . S
N308 H314 0.984 . S
N308 H315 0.984 . S
N309 C302 1.356 . S
N309 H312 0.984 . S
N309 H313 0.985 . S
H310 N305 0.984 . S
H311 N305 0.985 . S
H312 N309 0.984 . S
H313 N309 0.985 . S
H314 N308 0.984 . S
H315 N308 0.984 . S
H316 N304 0.984 . S
H317 N304 0.985 . S
C318 C319 1.363 . S
C318 C324 1.379 . S
C318 N326 1.356 . S
C319 C318 1.363 . S
C319 C325 1.363 . S
C320 C321 1.363 . S
C320 C325 1.379 . S
C320 N327 1.356 . S
C321 C320 1.363 . S
C321 C324 1.363 . S
N322 C324 1.356 . S
N322 H334 0.984 . S
N322 H335 0.985 . S
N323 C325 1.356 . S
N323 H328 0.984 . S
N323 H329 0.985 . S
C324 C318 1.379 . S
C324 C321 1.363 . S
C324 N322 1.356 . S
C325 C319 1.363 . S
C325 C320 1.379 . S
C325 N323 1.356 . S
N326 C318 1.356 . S
N326 H332 0.984 . S
N326 H333 0.984 . S
N327 C320 1.356 . S
N327 H330 0.984 . S
N327 H331 0.985 . S
H328 N323 0.984 . S
H329 N323 0.985 . S
H330 N327 0.984 . S
H331 N327 0.985 . S
H332 N326 0.984 . S
H333 N326 0.984 . S
H334 N322 0.984 . S
H335 N322 0.985 . S
C336 C337 1.363 . S
C336 C342 1.379 1_556 S
C336 N344 1.356 . S
C337 C336 1.363 . S
C337 C343 1.363 . S
C338 C339 1.363 . S
C338 C343 1.379 1_554 S
C338 N345 1.356 . S
C339 C338 1.363 . S
C339 C342 1.363 . S
N340 C342 1.356 . S
N340 H352 0.984 . S
N340 H353 0.985 . S
N341 C343 1.356 . S
N341 H346 0.984 . S
N341 H347 0.985 . S
C342 C336 1.379 1_554 S
C342 C339 1.363 . S
C342 N340 1.356 . S
C343 C337 1.363 . S
C343 C338 1.379 1_556 S
C343 N341 1.356 . S
N344 C336 1.356 . S
N344 H350 0.984 . S
N344 H351 0.984 . S
N345 C338 1.356 . S
N345 H348 0.984 . S
N345 H349 0.985 . S
H346 N341 0.984 . S
H347 N341 0.985 . S
H348 N345 0.984 . S
H349 N345 0.985 . S
H350 N344 0.984 . S
H351 N344 0.984 . S
H352 N340 0.984 . S
H353 N340 0.985 . S
C354 C355 1.363 . S
C354 C360 1.379 . S
C354 N362 1.356 1_545 S
C355 C354 1.363 . S
C355 C361 1.363 . S
C356 C357 1.363 . S
C356 C361 1.379 . S
C356 N363 1.356 . S
C357 C356 1.363 . S
C357 C360 1.363 . S
N358 C360 1.356 1_565 S
N358 H370 0.984 . S
N358 H371 0.985 . S
N359 C361 1.356 . S
N359 H364 0.984 . S
N359 H365 0.985 . S
C360 C354 1.379 . S
C360 C357 1.363 . S
C360 N358 1.356 1_545 S
C361 C355 1.363 . S
C361 C356 1.379 . S
C361 N359 1.356 . S
N362 C354 1.356 1_565 S
N362 H368 0.984 . S
N362 H369 0.984 1_565 S
N363 C356 1.356 . S
N363 H366 0.984 . S
N363 H367 0.985 . S
H364 N359 0.984 . S
H365 N359 0.985 . S
H366 N363 0.984 . S
H367 N363 0.985 . S
H368 N362 0.984 . S
H369 N362 0.984 1_545 S
H370 N358 0.984 . S
H371 N358 0.985 . S
C372 C373 1.363 . S
C372 C378 1.379 . S
C372 N380 1.356 1_565 S
C373 C372 1.363 . S
C373 C379 1.363 . S
C374 C375 1.363 . S
C374 C379 1.379 . S
C374 N381 1.356 . S
C375 C374 1.363 . S
C375 C378 1.363 . S
N376 C378 1.356 . S
N376 H388 0.984 . S
N376 H389 0.985 . S
N377 C379 1.356 . S
N377 H382 0.984 . S
N377 H383 0.985 . S
C378 C372 1.379 . S
C378 C375 1.363 . S
C378 N376 1.356 . S
C379 C373 1.363 . S
C379 C374 1.379 . S
C379 N377 1.356 . S
N380 C372 1.356 1_545 S
N380 H386 0.984 . S
N380 H387 0.984 . S
N381 C374 1.356 . S
N381 H384 0.984 . S
N381 H385 0.985 . S
H382 N377 0.984 . S
H383 N377 0.985 . S
H384 N381 0.984 . S
H385 N381 0.985 . S
H386 N380 0.984 . S
H387 N380 0.984 . S
H388 N376 0.984 . S
H389 N376 0.985 . S
C390 C391 1.363 . S
C390 C396 1.379 . S
C390 N398 1.356 . S
C391 C390 1.363 . S
C391 C397 1.363 . S
C392 C393 1.363 . S
C392 C397 1.379 . S
C392 N399 1.356 . S
C393 C392 1.363 . S
C393 C396 1.363 . S
N394 C396 1.356 . S
N394 H406 0.989 . S
N394 H407 0.985 . S
N395 C397 1.356 . S
N395 H400 0.984 . S
N395 H401 0.985 . S
C396 C390 1.379 . S
C396 C393 1.363 . S
C396 N394 1.356 . S
C397 C391 1.363 . S
C397 C392 1.379 . S
C397 N395 1.356 . S
N398 C390 1.356 . S
N398 H404 0.984 . S
N398 H405 0.984 . S
N399 C392 1.356 . S
N399 H402 0.984 . S
N399 H403 0.985 . S
H400 N395 0.984 . S
H401 N395 0.985 . S
H402 N399 0.984 . S
H403 N399 0.985 . S
H404 N398 0.984 . S
H405 N398 0.984 . S
H406 N394 0.989 . S
H407 N394 0.985 . S
C408 C409 1.363 . S
C408 C414 1.379 . S
C408 N416 1.356 . S
C409 C408 1.363 . S
C409 C415 1.363 . S
C410 C411 1.363 . S
C410 C415 1.379 . S
C410 N417 1.356 . S
C411 C410 1.363 . S
C411 C414 1.363 . S
N412 C414 1.356 . S
N412 H424 0.984 . S
N412 H425 0.985 . S
N413 C415 1.356 . S
N413 H418 0.984 . S
N413 H419 0.985 . S
C414 C408 1.379 . S
C414 C411 1.363 . S
C414 N412 1.356 . S
C415 C409 1.363 . S
C415 C410 1.379 . S
C415 N413 1.356 . S
N416 C408 1.356 . S
N416 H422 0.984 . S
N416 H423 0.984 . S
N417 C410 1.356 . S
N417 H420 0.984 . S
N417 H421 0.985 . S
H418 N413 0.984 . S
H419 N413 0.985 . S
H420 N417 0.984 . S
H421 N417 0.985 . S
H422 N416 0.984 . S
H423 N416 0.984 . S
H424 N412 0.984 . S
H425 N412 0.985 . S
C426 C427 1.363 . S
C426 C432 1.379 1_556 S
C426 N434 1.356 . S
C427 C426 1.363 . S
C427 C433 1.363 . S
C428 C429 1.385 . S
C428 C433 1.351 1_554 S
C428 N435 1.371 . S
C429 C428 1.385 . S
C429 C432 1.363 . S
N430 C432 1.356 . S
N430 H442 0.984 . S
N430 H443 0.985 . S
N431 C433 1.356 . S
N431 H436 0.984 . S
N431 H437 0.985 . S
C432 C426 1.379 1_554 S
C432 C429 1.363 . S
C432 N430 1.356 . S
C433 C427 1.363 . S
C433 C428 1.351 1_556 S
C433 N431 1.356 . S
N434 C426 1.356 . S
N434 H440 0.984 . S
N434 H441 0.984 . S
N435 C428 1.371 . S
N435 H438 0.984 1_455 S
N435 H439 0.985 1_455 S
H436 N431 0.984 . S
H437 N431 0.985 . S
H438 N435 0.984 1_655 S
H439 N435 0.985 1_655 S
H440 N434 0.984 . S
H441 N434 0.984 . S
H442 N430 0.984 . S
H443 N430 0.985 . S
C444 C445 1.363 . S
C444 C450 1.379 . S
C444 N452 1.356 . S
C445 C444 1.363 . S
C445 C451 1.363 . S
C446 C447 1.363 . S
C446 C451 1.379 . S
C446 N453 1.356 . S
C447 C446 1.363 . S
C447 C450 1.363 . S
N448 C450 1.356 . S
N448 H460 0.984 . S
N448 H461 0.985 . S
N449 C451 1.356 . S
N449 H454 0.984 . S
N449 H455 0.985 1_655 S
C450 C444 1.379 . S
C450 C447 1.363 . S
C450 N448 1.356 . S
C451 C445 1.363 . S
C451 C446 1.379 . S
C451 N449 1.356 . S
N452 C444 1.356 . S
N452 H458 0.984 . S
N452 H459 0.984 . S
N453 C446 1.356 . S
N453 H456 0.984 . S
N453 H457 0.985 1_655 S
H454 N449 0.984 . S
H455 N449 0.985 1_455 S
H456 N453 0.984 . S
H457 N453 0.985 1_455 S
H458 N452 0.984 . S
H459 N452 0.984 . S
H460 N448 0.984 . S
H461 N448 0.985 . S
C462 C463 1.363 . S
C462 C468 1.379 . S
C462 N470 1.356 . S
C463 C462 1.363 . S
C463 C469 1.363 . S
C464 C465 1.363 . S
C464 C469 1.379 . S
C464 N471 1.356 . S
C465 C464 1.363 . S
C465 C468 1.363 . S
N466 C468 1.356 . S
N466 H478 0.984 . S
N466 H479 0.985 . S
N467 C469 1.356 . S
N467 H472 0.984 . S
N467 H473 0.985 . S
C468 C462 1.379 . S
C468 C465 1.363 . S
C468 N466 1.356 . S
C469 C463 1.363 . S
C469 C464 1.379 . S
C469 N467 1.356 . S
N470 C462 1.356 . S
N470 H476 0.984 . S
N470 H477 0.984 . S
N471 C464 1.356 . S
N471 H474 0.982 1_655 S
N471 H475 0.985 1_655 S
H472 N467 0.984 . S
H473 N467 0.985 . S
H474 N471 0.982 1_455 S
H475 N471 0.985 1_455 S
H476 N470 0.984 . S
H477 N470 0.984 . S
H478 N466 0.984 . S
H479 N466 0.985 . S
C480 C481 1.363 . S
C480 C486 1.379 . S
C480 N488 1.356 . S
C481 C480 1.363 . S
C481 C487 1.363 . S
C482 C483 1.363 . S
C482 C487 1.379 . S
C482 N489 1.356 . S
C483 C482 1.363 . S
C483 C486 1.363 . S
N484 C486 1.356 . S
N484 H496 0.984 . S
N484 H497 0.985 1_565 S
N485 C487 1.356 . S
N485 H490 0.984 . S
N485 H491 0.985 . S
C486 C480 1.379 . S
C486 C483 1.363 . S
C486 N484 1.356 . S
C487 C481 1.363 . S
C487 C482 1.379 . S
C487 N485 1.356 . S
N488 C480 1.356 . S
N488 H494 0.984 . S
N488 H495 0.984 . S
N489 C482 1.356 . S
N489 H492 0.984 . S
N489 H493 0.985 . S
H490 N485 0.984 . S
H491 N485 0.985 . S
H492 N489 0.984 . S
H493 N489 0.985 . S
H494 N488 0.984 . S
H495 N488 0.984 . S
H496 N484 0.984 . S
H497 N484 0.985 1_545 S
C498 C499 1.363 . S
C498 C504 1.379 . S
C498 N506 1.356 . S
C499 C498 1.363 . S
C499 C505 1.363 . S
C500 C501 1.363 . S
C500 C505 1.379 . S
C500 N507 1.356 . S
C501 C500 1.363 . S
C501 C504 1.363 . S
N502 C504 1.356 . S
N502 H514 0.984 . S
N502 H515 0.985 . S
N503 C505 1.356 . S
N503 H508 0.984 . S
N503 H509 0.985 . S
C504 C498 1.379 . S
C504 C501 1.363 . S
C504 N502 1.356 . S
C505 C499 1.363 . S
C505 C500 1.379 . S
C505 N503 1.356 . S
N506 C498 1.356 . S
N506 H512 0.984 . S
N506 H513 0.984 . S
N507 C500 1.356 . S
N507 H510 0.984 . S
N507 H511 0.985 . S
H508 N503 0.984 . S
H509 N503 0.985 . S
H510 N507 0.984 . S
H511 N507 0.985 . S
H512 N506 0.984 . S
H513 N506 0.984 . S
H514 N502 0.984 . S
H515 N502 0.985 . S
C516 C517 1.363 . S
C516 C522 1.379 . S
C516 N524 1.356 . S
C517 C516 1.363 . S
C517 C523 1.363 . S
C518 C519 1.363 . S
C518 C523 1.379 . S
C518 N525 1.356 . S
C519 C518 1.363 . S
C519 C522 1.363 . S
N520 C522 1.356 . S
N520 H532 0.984 . S
N520 H533 0.985 . S
N521 C523 1.356 . S
N521 H526 0.984 . S
N521 H527 0.985 . S
C522 C516 1.379 . S
C522 C519 1.363 . S
C522 N520 1.356 . S
C523 C517 1.363 . S
C523 C518 1.379 . S
C523 N521 1.356 . S
N524 C516 1.356 . S
N524 H530 0.984 . S
N524 H531 0.984 1_545 S
N525 C518 1.356 . S
N525 H528 0.984 . S
N525 H529 0.985 . S
H526 N521 0.984 . S
H527 N521 0.985 . S
H528 N525 0.984 . S
H529 N525 0.985 . S
H530 N524 0.984 . S
H531 N524 0.984 1_565 S
H532 N520 0.984 . S
H533 N520 0.985 . S
C534 C535 1.363 . S
C534 C540 1.379 . S
C534 N542 1.356 . S
C535 C534 1.363 . S
C535 C541 1.363 . S
C536 C537 1.363 . S
C536 C541 1.379 . S
C536 N543 1.356 . S
C537 C536 1.363 . S
C537 C540 1.363 . S
N538 C540 1.356 . S
N538 H550 0.984 . S
N538 H551 0.985 . S
N539 C541 1.356 . S
N539 H544 0.984 . S
N539 H545 0.985 . S
C540 C534 1.379 . S
C540 C537 1.363 . S
C540 N538 1.356 . S
C541 C535 1.363 . S
C541 C536 1.379 . S
C541 N539 1.356 . S
N542 C534 1.356 . S
N542 H548 0.984 . S
N542 H549 0.984 . S
N543 C536 1.356 . S
N543 H546 0.984 . S
N543 H547 0.985 . S
H544 N539 0.984 . S
H545 N539 0.985 . S
H546 N543 0.984 . S
H547 N543 0.985 . S
H548 N542 0.984 . S
H549 N542 0.984 . S
H550 N538 0.984 . S
H551 N538 0.985 . S
C552 C553 1.363 . S
C552 C558 1.379 . S
C552 N560 1.356 . S
C553 C552 1.363 . S
C553 C559 1.363 . S
C554 C555 1.363 . S
C554 C559 1.379 . S
C554 N561 1.356 . S
C555 C554 1.363 . S
C555 C558 1.363 . S
N556 C558 1.356 . S
N556 H568 0.984 . S
N556 H569 0.985 . S
N557 C559 1.356 . S
N557 H562 0.984 . S
N557 H563 0.985 . S
C558 C552 1.379 . S
C558 C555 1.363 . S
C558 N556 1.356 . S
C559 C553 1.363 . S
C559 C554 1.379 . S
C559 N557 1.356 . S
N560 C552 1.356 . S
N560 H566 0.984 . S
N560 H567 0.984 . S
N561 C554 1.356 . S
N561 H564 0.984 . S
N561 H565 0.985 . S
H562 N557 0.984 . S
H563 N557 0.985 . S
H564 N561 0.984 . S
H565 N561 0.985 . S
H566 N560 0.984 . S
H567 N560 0.984 . S
H568 N556 0.984 . S
H569 N556 0.985 . S
C570 C571 1.363 . S
C570 C576 1.379 . S
C570 N578 1.356 . S
C571 C570 1.363 . S
C571 C577 1.363 . S
C572 C573 1.363 . S
C572 C577 1.379 . S
C572 N579 1.356 . S
C573 C572 1.363 . S
C573 C576 1.363 . S
N574 C576 1.343 1_455 S
N574 H586 0.987 . S
N574 H587 0.996 . S
N575 C577 1.356 . S
N575 H580 0.984 . S
N575 H581 0.985 . S
C576 C570 1.379 . S
C576 C573 1.363 . S
C576 N574 1.343 1_655 S
C577 C571 1.363 . S
C577 C572 1.379 . S
C577 N575 1.356 . S
N578 C570 1.356 . S
N578 H584 0.984 . S
N578 H585 0.984 . S
N579 C572 1.356 . S
N579 H582 0.984 . S
N579 H583 0.985 . S
H580 N575 0.984 . S
H581 N575 0.985 . S
H582 N579 0.984 . S
H583 N579 0.985 . S
H584 N578 0.984 . S
H585 N578 0.984 . S
H586 N574 0.987 . S
H587 N574 0.996 . S
C588 C589 1.363 . S
C588 C594 1.379 . S
C588 N596 1.356 . S
C589 C588 1.363 . S
C589 C595 1.363 . S
C590 C591 1.363 . S
C590 C595 1.379 . S
C590 N597 1.356 . S
C591 C590 1.363 . S
C591 C594 1.363 . S
N592 C594 1.356 . S
N592 H604 0.984 . S
N592 H605 0.985 . S
N593 C595 1.356 . S
N593 H598 0.984 . S
N593 H599 0.985 . S
C594 C588 1.379 . S
C594 C591 1.363 . S
C594 N592 1.356 . S
C595 C589 1.363 . S
C595 C590 1.379 . S
C595 N593 1.356 . S
N596 C588 1.356 . S
N596 H602 0.984 . S
N596 H603 0.984 . S
N597 C590 1.356 . S
N597 H600 0.984 . S
N597 H601 0.985 . S
H598 N593 0.984 . S
H599 N593 0.985 . S
H600 N597 0.984 . S
H601 N597 0.985 . S
H602 N596 0.984 . S
H603 N596 0.984 . S
H604 N592 0.984 . S
H605 N592 0.985 . S
C606 C607 1.363 . S
C606 C612 1.379 . S
C606 N614 1.356 . S
C607 C606 1.363 . S
C607 C613 1.363 . S
C608 C609 1.363 . S
C608 C613 1.379 . S
C608 N615 1.356 . S
C609 C608 1.363 . S
C609 C612 1.363 . S
N610 C612 1.356 1_655 S
N610 H622 0.984 . S
N610 H623 0.985 . S
N611 C613 1.356 . S
N611 H616 0.984 . S
N611 H617 0.985 . S
C612 C606 1.379 . S
C612 C609 1.363 . S
C612 N610 1.356 1_455 S
C613 C607 1.363 . S
C613 C608 1.379 . S
C613 N611 1.356 . S
N614 C606 1.356 . S
N614 H620 0.984 . S
N614 H621 0.984 . S
N615 C608 1.356 . S
N615 H618 0.984 . S
N615 H619 0.985 . S
H616 N611 0.984 . S
H617 N611 0.985 . S
H618 N615 0.984 . S
H619 N615 0.985 . S
H620 N614 0.984 . S
H621 N614 0.984 . S
H622 N610 0.984 . S
H623 N610 0.985 . S
C265 N2 0.581 . S
C267 N167 0.581 . S
C283 N200 0.581 . S
C285 N35 0.581 . S
C301 N233 0.581 . S
C303 N68 0.581 . S
C319 N134 0.581 . S
C321 N101 0.581 . S
C337 N112 1.549 . S
C339 C21 1.518 . S
C355 C54 1.518 . S
C357 N13 1.549 . S
C373 N46 1.549 . S
C375 C87 1.518 . S
C391 C120 1.518 . S
C393 N79 1.549 . S
C409 N178 1.549 . S
C411 C153 1.518 . S
C427 C186 1.518 . S
C429 N211 1.549 . S
C445 C219 1.518 . S
C447 N244 1.549 . S
C463 C252 1.518 . S
C465 N145 1.549 . S
C481 C205 1.801 . S
C483 C18 1.884 1_565 S
C499 C238 1.801 . S
C501 C51 1.884 . S
C517 C84 1.884 1_545 S
C519 C139 1.801 . S
C535 C117 1.884 . S
C537 C172 1.801 . S
C553 C150 1.884 . S
C555 C73 1.801 . S
C571 C106 1.801 . S
C573 C183 1.884 1_655 S
C589 C216 1.884 . S
C591 C7 1.801 . S
C607 C40 1.801 . S
C609 C249 1.884 1_455 S
