# Generated by pormake.
# Topology sml, (6)-cn, num edge types: 1
# Building blocks:
#     Node 0, Type 0, BuildingBlock: BETFAJ_clean_sbu_0, # of connection points: 6
#     Node 1, Type 0, BuildingBlock: BETFAJ_clean_sbu_0, # of connection points: 6
#     Node 2, Type 0, BuildingBlock: BETFAJ_clean_sbu_0, # of connection points: 6
#     Node 3, Type 0, BuildingBlock: BETFAJ_clean_sbu_0, # of connection points: 6
#     Node 4, Type 0, BuildingBlock: BETFAJ_clean_sbu_0, # of connection points: 6
#     Node 5, Type 0, BuildingBlock: BETFAJ_clean_sbu_0, # of connection points: 6
#     Edge 6, Type (0, 0), BuildingBlock: AJUNOK_clean_linker_0, # of connection points: 2
#     Edge 7, Type (0, 0), BuildingBlock: AJUNOK_clean_linker_0, # of connection points: 2
#     Edge 8, Type (0, 0), BuildingBlock: AJUNOK_clean_linker_0, # of connection points: 2
#     Edge 9, Type (0, 0), BuildingBlock: AJUNOK_clean_linker_0, # of connection points: 2
#     Edge 10, Type (0, 0), BuildingBlock: AJUNOK_clean_linker_0, # of connection points: 2
#     Edge 11, Type (0, 0), BuildingBlock: AJUNOK_clean_linker_0, # of connection points: 2
#     Edge 12, Type (0, 0), BuildingBlock: AJUNOK_clean_linker_0, # of connection points: 2
#     Edge 13, Type (0, 0), BuildingBlock: AJUNOK_clean_linker_0, # of connection points: 2
#     Edge 14, Type (0, 0), BuildingBlock: AJUNOK_clean_linker_0, # of connection points: 2
#     Edge 15, Type (0, 0), BuildingBlock: AJUNOK_clean_linker_0, # of connection points: 2
#     Edge 16, Type (0, 0), BuildingBlock: AJUNOK_clean_linker_0, # of connection points: 2
#     Edge 17, Type (0, 0), BuildingBlock: AJUNOK_clean_linker_0, # of connection points: 2
#     Edge 18, Type (0, 0), BuildingBlock: AJUNOK_clean_linker_0, # of connection points: 2
#     Edge 19, Type (0, 0), BuildingBlock: AJUNOK_clean_linker_0, # of connection points: 2
#     Edge 20, Type (0, 0), BuildingBlock: AJUNOK_clean_linker_0, # of connection points: 2
#     Edge 21, Type (0, 0), BuildingBlock: AJUNOK_clean_linker_0, # of connection points: 2
#     Edge 22, Type (0, 0), BuildingBlock: AJUNOK_clean_linker_0, # of connection points: 2
#     Edge 23, Type (0, 0), BuildingBlock: AJUNOK_clean_linker_0, # of connection points: 2
# Relax obj value: 0.259
# Max RMSD: 0.268
# Mean RMSD: 0.268
data_MOF--net-sml--node1-BETFAJ_clean_sbu_0--edge1-AJUNOK_clean_linker_0
_symmetry_space_group_name_H-M    P1
_symmetry_Int_Tables_number       1
_symmetry_cell_setting            triclinic
loop_
_symmetry_equiv_pos_as_xyz
'x, y, z'
_cell_length_a     21.558015
_cell_length_b     21.573357
_cell_length_c     20.630569
_cell_angle_alpha  89.678329
_cell_angle_beta   90.317388
_cell_angle_gamma 119.95525
loop_
_atom_site_label
_atom_site_type_symbol
_atom_site_fract_x
_atom_site_fract_y
_atom_site_fract_z
_atom_type_partial_charge
Sm0 Sm 0.13621 0.44064 0.1423 0.0
Sm1 Sm 0.207 0.39331 0.25093 0.0
C2 C 0.10076 0.47191 0.02877 0.0
C3 C 0.10785 0.45708 0.95986 0.0
C4 C 0.15151 0.51371 0.91816 0.0
C5 C 0.1607 0.50052 0.85359 0.0
C6 C 0.12631 0.43043 0.82886 0.0
C7 C 0.08068 0.37398 0.87021 0.0
C8 C 0.07232 0.387 0.93507 0.0
C9 C 0.04623 0.35944 0.2401 0.0
C10 C 0.17963 0.31286 0.11693 0.0
C11 C 0.2343 0.35668 0.36544 0.0
C12 C 0.21928 0.36742 0.43339 0.0
C13 C 0.16581 0.30967 0.46864 0.0
C14 C 0.14919 0.3192 0.53191 0.0
C15 C 0.18633 0.38657 0.56181 0.0
C16 C 0.23967 0.44451 0.52659 0.0
C17 C 0.25616 0.43503 0.46315 0.0
C18 C 0.29728 0.47931 0.1547 0.0
C19 C 0.18143 0.53175 0.27399 0.0
O20 O 0.16005 0.51574 0.05945 0.0
O21 O 0.05626 0.41759 0.06463 0.0
O22 O 0.09445 0.35032 0.21498 0.0
O23 O 0.04006 0.40854 0.20874 0.0
O24 O 0.16536 0.36195 0.09424 0.0
O25 O 0.18713 0.30538 0.17947 0.0
O26 O 0.17859 0.31369 0.33015 0.0
O27 O 0.28146 0.41316 0.33327 0.0
O28 O 0.24773 0.48525 0.18066 0.0
O29 O 0.30536 0.42997 0.18371 0.0
O30 O 0.19016 0.47988 0.29841 0.0
O31 O 0.16587 0.53425 0.21218 0.0
H32 H 0.17947 0.56824 0.93581 0.0
H33 H 0.19586 0.54527 0.82337 0.0
H34 H 0.05132 0.31955 0.85259 0.0
H35 H 0.03856 0.34185 0.96574 0.0
H36 H 0.13637 0.25704 0.44707 0.0
H37 H 0.10685 0.27385 0.55733 0.0
H38 H 0.26934 0.497 0.54846 0.0
H39 H 0.29773 0.48073 0.43753 0.0
Sm40 Sm 0.85846 0.28387 0.60501 0.0
Sm41 Sm 0.78865 0.16968 0.49512 0.0
C42 C 0.88608 0.34893 0.71873 0.0
C43 C 0.86885 0.3242 0.7863 0.0
C44 C 0.8233 0.25144 0.79995 0.0
C45 C 0.80779 0.22741 0.86402 0.0
C46 C 0.83645 0.27593 0.91583 0.0
C47 C 0.88207 0.34901 0.90183 0.0
C48 C 0.89823 0.37289 0.83757 0.0
C49 C 0.95037 0.29972 0.50703 0.0
C50 C 0.82686 0.11539 0.6234 0.0
C51 C 0.75318 0.10232 0.3823 0.0
C52 C 0.76443 0.12651 0.31432 0.0
C53 C 0.80835 0.19924 0.29923 0.0
C54 C 0.8179 0.2226 0.23487 0.0
C55 C 0.78432 0.17357 0.18407 0.0
C56 C 0.74159 0.10038 0.19941 0.0
C57 C 0.73134 0.07717 0.26405 0.0
C58 C 0.69995 0.16393 0.59369 0.0
C59 C 0.8191 0.33469 0.47092 0.0
O60 O 0.83151 0.33762 0.68219 0.0
O61 O 0.93071 0.33386 0.68946 0.0
O62 O 0.90199 0.24049 0.52954 0.0
O63 O 0.95699 0.35229 0.5426 0.0
O64 O 0.83379 0.17438 0.65021 0.0
O65 O 0.82064 0.10577 0.56033 0.0
O66 O 0.81096 0.11587 0.41468 0.0
O67 O 0.70973 0.11566 0.41572 0.0
O68 O 0.74748 0.21916 0.56609 0.0
O69 O 0.69371 0.10663 0.56686 0.0
O70 O 0.80888 0.27383 0.44683 0.0
O71 O 0.83303 0.35088 0.53317 0.0
H72 H 0.80011 0.21312 0.76099 0.0
H73 H 0.77437 0.1706 0.87293 0.0
H74 H 0.90506 0.38778 0.94058 0.0
H75 H 0.93363 0.42929 0.82793 0.0
H76 H 0.83536 0.23812 0.33714 0.0
H77 H 0.85121 0.27925 0.22494 0.0
H78 H 0.71678 0.06085 0.16149 0.0
H79 H 0.69787 0.02069 0.27474 0.0
Sm80 Sm 0.56424 0.69847 0.80701 0.0
Sm81 Sm 0.6102 0.81239 0.91787 0.0
C82 C 0.52203 0.63194 0.69414 0.0
C83 C 0.52748 0.65593 0.62657 0.0
C84 C 0.56126 0.72916 0.61213 0.0
C85 C 0.56831 0.75247 0.54795 0.0
C86 C 0.54012 0.70293 0.49686 0.0
C87 C 0.50487 0.62934 0.5118 0.0
C88 C 0.49889 0.60607 0.57616 0.0
C89 C 0.64577 0.68638 0.90325 0.0
C90 C 0.7008 0.86701 0.78903 0.0
C91 C 0.64323 0.87777 0.0312 0.0
C92 C 0.62672 0.85378 0.09964 0.0
C93 C 0.67528 0.84268 0.13674 0.0
C94 C 0.65914 0.81771 0.20053 0.0
C95 C 0.59447 0.80411 0.22898 0.0
C96 C 0.54594 0.81543 0.19216 0.0
C97 C 0.56194 0.84018 0.12823 0.0
C98 C 0.52698 0.81962 0.81962 0.0
C99 C 0.47515 0.64744 0.94111 0.0
O100 O 0.48083 0.64486 0.73134 0.0
O101 O 0.58235 0.6464 0.72232 0.0
O102 O 0.65383 0.74427 0.88024 0.0
O103 O 0.59801 0.6323 0.86999 0.0
O104 O 0.64863 0.80816 0.76179 0.0
O105 O 0.70484 0.8767 0.85219 0.0
O106 O 0.68537 0.86035 1.00047 0.0
O107 O 0.59029 0.87165 0.99502 0.0
O108 O 0.51947 0.76388 0.8465 0.0
O109 O 0.57802 0.8764 0.8474 0.0
O110 O 0.52547 0.70822 0.96599 0.0
O111 O 0.47318 0.63131 0.87904 0.0
H112 H 0.58277 0.76842 0.65048 0.0
H113 H 0.59725 0.80943 0.53849 0.0
H114 H 0.482 0.58974 0.4737 0.0
H115 H 0.47215 0.54923 0.58652 0.0
H116 H 0.72576 0.85294 0.11636 0.0
H117 H 0.69761 0.80967 0.22789 0.0
H118 H 0.49515 0.80425 0.21253 0.0
H119 H 0.52319 0.84798 0.10113 0.0
Sm120 Sm 0.71001 0.56148 0.26865 0.0
Sm121 Sm 0.82107 0.59747 0.15858 0.0
C122 C 0.64545 0.53008 0.38264 0.0
C123 C 0.66893 0.53704 0.45067 0.0
C124 C 0.73296 0.53848 0.46701 0.0
C125 C 0.7558 0.54674 0.53155 0.0
C126 C 0.71553 0.5548 0.58074 0.0
C127 C 0.6513 0.55315 0.56423 0.0
C128 C 0.62816 0.54419 0.49967 0.0
C129 C 0.6996 0.64123 0.16986 0.0
C130 C 0.88107 0.69178 0.28426 0.0
C131 C 0.88728 0.62121 0.04587 0.0
C132 C 0.86207 0.61017 0.97821 0.0
C133 C 0.79572 0.60402 0.96271 0.0
C134 C 0.77202 0.5946 0.89848 0.0
C135 C 0.81391 0.59036 0.84868 0.0
C136 C 0.8794 0.59445 0.86447 0.0
C137 C 0.90349 0.60467 0.92884 0.0
C138 C 0.82471 0.51512 0.25953 0.0
C139 C 0.6528 0.47148 0.13598 0.0
O140 O 0.65291 0.48374 0.34758 0.0
O141 O 0.66418 0.59009 0.35184 0.0
O142 O 0.75745 0.64809 0.19221 0.0
O143 O 0.64573 0.59666 0.20517 0.0
O144 O 0.82176 0.64192 0.31273 0.0
O145 O 0.88859 0.69409 0.22095 0.0
O146 O 0.88164 0.67054 0.07769 0.0
O147 O 0.86744 0.56305 0.08006 0.0
O148 O 0.7696 0.50873 0.23224 0.0
O149 O 0.88229 0.5642 0.23132 0.0
O150 O 0.7139 0.52058 0.11079 0.0
O151 O 0.63825 0.46958 0.19851 0.0
H152 H 0.76549 0.53372 0.42979 0.0
H153 H 0.8056 0.54811 0.5429 0.0
H154 H 0.61879 0.55831 0.60132 0.0
H155 H 0.57861 0.54312 0.4879 0.0
H156 H 0.76233 0.60669 1.00029 0.0
H157 H 0.72077 0.5903 0.88769 0.0
H158 H 0.91248 0.5911 0.82688 0.0
H159 H 0.9545 0.60859 0.94002 0.0
Sm160 Sm 0.30077 0.86368 0.47472 0.0
Sm161 Sm 0.18651 0.79279 0.58417 0.0
C162 C 0.36488 0.89064 0.36104 0.0
C163 C 0.34096 0.87154 0.29294 0.0
C164 C 0.32164 0.8035 0.26825 0.0
C165 C 0.29722 0.78549 0.20441 0.0
C166 C 0.29197 0.8352 0.16377 0.0
C167 C 0.31169 0.90317 0.18845 0.0
C168 C 0.33617 0.92128 0.25212 0.0
C169 C 0.30908 0.95616 0.56918 0.0
C170 C 0.12968 0.82116 0.45201 0.0
C171 C 0.12025 0.75712 0.69717 0.0
C172 C 0.14358 0.76487 0.76594 0.0
C173 C 0.1626 0.82822 0.80003 0.0
C174 C 0.18668 0.83645 0.86411 0.0
C175 C 0.19167 0.78132 0.89593 0.0
C176 C 0.17221 0.71774 0.8622 0.0
C177 C 0.14821 0.7095 0.79795 0.0
C178 C 0.18478 0.70371 0.48837 0.0
C179 C 0.35363 0.82812 0.60871 0.0
O180 O 0.35732 0.83859 0.39925 0.0
O181 O 0.34887 0.93505 0.38949 0.0
O182 O 0.25174 0.90528 0.54638 0.0
O183 O 0.36402 0.96398 0.53655 0.0
O184 O 0.19064 0.83104 0.42729 0.0
O185 O 0.11839 0.81607 0.51504 0.0
O186 O 0.13485 0.81595 0.6659 0.0
O187 O 0.12986 0.71243 0.66171 0.0
O188 O 0.23917 0.7534 0.51529 0.0
O189 O 0.12655 0.69588 0.51467 0.0
O190 O 0.29225 0.81672 0.63303 0.0
O191 O 0.36973 0.84187 0.54658 0.0
H192 H 0.32516 0.76395 0.29817 0.0
H193 H 0.28308 0.73287 0.18688 0.0
H194 H 0.30706 0.94203 0.15863 0.0
H195 H 0.35072 0.97408 0.26958 0.0
H196 H 0.15923 0.87175 0.7772 0.0
H197 H 0.20095 0.88591 0.88903 0.0
H198 H 0.17662 0.67483 0.88513 0.0
H199 H 0.13395 0.65996 0.77318 0.0
Sm200 Sm 0.43476 0.1511 0.92951 0.0
Sm201 Sm 0.39598 0.2245 0.8178 0.0
C202 C 0.47018 0.12308 0.04412 0.0
C203 C 0.46234 0.13993 0.11204 0.0
C204 C 0.52087 0.19529 0.14517 0.0
C205 C 0.51316 0.21268 0.20874 0.0
C206 C 0.4471 0.17426 0.24058 0.0
C207 C 0.3889 0.11856 0.20787 0.0
C208 C 0.39624 0.10196 0.14409 0.0
C209 C 0.35292 0.05951 0.83338 0.0
C210 C 0.30685 0.19447 0.94653 0.0
C211 C 0.36696 0.26423 0.70547 0.0
C212 C 0.37866 0.25491 0.63626 0.0
C213 C 0.3265 0.19597 0.60121 0.0
C214 C 0.33854 0.18531 0.53683 0.0
C215 C 0.40263 0.23378 0.5057 0.0
C216 C 0.45436 0.29339 0.54025 0.0
C217 C 0.44242 0.30399 0.60477 0.0
C218 C 0.48309 0.31169 0.91578 0.0
C219 C 0.52179 0.18159 0.79473 0.0
O220 O 0.51463 0.17707 1.00791 0.0
O221 O 0.41163 0.07785 1.01318 0.0
O222 O 0.34659 0.11111 0.8545 0.0
O223 O 0.39727 0.05004 0.86933 0.0
O224 O 0.3563 0.18389 0.97461 0.0
O225 O 0.30225 0.19815 0.88318 0.0
O226 O 0.32067 0.20677 0.73699 0.0
O227 O 0.42379 0.30576 0.74016 0.0
O228 O 0.48648 0.26145 0.8889 0.0
O229 O 0.43368 0.32088 0.88861 0.0
O230 O 0.47305 0.1948 0.76975 0.0
O231 O 0.52441 0.1696 0.85757 0.0
H232 H 0.57252 0.22545 0.1218 0.0
H233 H 0.55891 0.2556 0.23327 0.0
H234 H 0.33736 0.08851 0.23144 0.0
H235 H 0.34985 0.0598 0.11975 0.0
H236 H 0.27647 0.15761 0.62366 0.0
H237 H 0.29751 0.13915 0.51123 0.0
H238 H 0.50472 0.33109 0.51782 0.0
H239 H 0.4836 0.3502 0.63017 0.0
C240 C 0.24339 0.19037 0.04955 0.0
C241 C 0.26552 0.21762 0.98665 0.0
C242 C 0.21158 0.21851 0.09042 0.0
C243 C 0.20156 0.27541 0.07001 0.0
H244 H 0.25214 0.14814 0.06777 0.0
H245 H 0.19698 0.19708 0.13907 0.0
S246 S 0.25755 0.3704 0.91162 0.0
N247 N 0.27877 0.30698 0.90704 0.0
N248 N 0.21957 0.35968 0.98299 0.0
C249 C 0.22295 0.30245 1.00669 0.0
C250 C 0.25493 0.27371 0.96529 0.0
C251 C 0.01188 0.38986 0.34431 0.0
C252 C 0.02119 0.34051 0.30758 0.0
C253 C 0.99095 0.37639 0.40904 0.0
C254 C 0.9761 0.31192 0.4394 0.0
H255 H 0.02196 0.44016 0.32328 0.0
H256 H 0.98511 0.41663 0.43506 0.0
S257 S 0.99077 0.16423 0.36424 0.0
N258 N 0.01418 0.22459 0.30586 0.0
N259 N 0.97211 0.19797 0.42805 0.0
C260 C 0.9844 0.26154 0.40329 0.0
C261 C 0.00759 0.27614 0.33724 0.0
C262 C 0.80869 0.05952 0.73335 0.0
C263 C 0.81138 0.05322 0.66573 0.0
C264 C 0.77751 -0.00103 0.77346 0.0
C265 C 0.74763 0.92948 0.74766 0.0
H266 H 0.82673 0.11121 0.75539 0.0
H267 H 0.77268 0.00687 0.82459 0.0
S268 S 0.75698 0.88436 0.57619 0.0
N269 N 0.79321 0.97223 0.57631 0.0
N270 N 0.73418 0.85866 0.65203 0.0
C271 C 0.75639 0.92272 0.68117 0.0
C272 C 0.78859 0.9845 0.64018 0.0
C273 C 0.61332 0.61833 1.00602 0.0
C274 C 0.6636 0.67778 0.97054 0.0
C275 C 0.62491 0.60935 0.071 0.0
C276 C 0.68909 0.6572 0.1024 0.0
H277 H 0.56374 0.57883 0.9838 0.0
H278 H 0.5835 0.56348 0.09643 0.0
S279 S 0.83963 0.82039 0.03038 0.0
N280 N 0.78002 0.7861 0.97117 0.0
N281 N 0.80442 0.76608 0.09321 0.0
C282 C 0.74082 0.71641 0.06739 0.0
C283 C 0.72753 0.72735 1.0014 0.0
C284 C -0.00171 0.77137 0.43297 0.0
C285 C 0.06816 0.80211 0.40769 0.0
C286 C 0.93798 0.73963 0.39236 0.0
C287 C 0.94496 0.73779 0.32475 0.0
H288 H 0.9896 0.76804 0.48483 0.0
H289 H 0.88549 0.71344 0.41456 0.0
S290 S 0.11639 0.81877 0.2333 0.0
N291 N 0.14085 0.83485 0.31005 0.0
N292 N 0.02808 0.77564 0.23384 0.0
C293 C 0.01467 0.77291 0.29845 0.0
C294 C 0.07606 0.80491 0.33987 0.0
C295 C 0.38716 0.01822 0.73558 0.0
C296 C 0.33793 0.03307 0.76612 0.0
C297 C 0.37776 0.99544 0.67144 0.0
C298 C 0.31717 0.98354 0.6358 0.0
H299 H 0.43439 0.02538 0.76101 0.0
H300 H 0.4179 0.98572 0.65012 0.0
S301 S 0.17089 0.01196 0.69369 0.0
N302 N 0.22645 0.03475 0.75607 0.0
N303 N 0.20635 0.98727 0.63547 0.0
C304 C 0.26658 0.99684 0.66573 0.0
C305 C 0.27757 0.02277 0.73092 0.0
C306 C 0.14278 0.4625 0.71002 0.0
C307 C 0.13938 0.41668 0.76063 0.0
C308 C 0.1579 0.45251 0.64601 0.0
C309 C 0.17004 0.39616 0.62987 0.0
H310 H 0.13329 0.50635 0.71982 0.0
H311 H 0.15953 0.48888 0.60874 0.0
S312 S 0.17198 0.26372 0.74411 0.0
N313 N 0.15199 0.31393 0.78966 0.0
N314 N 0.18097 0.29595 0.66988 0.0
C315 C 0.1672 0.35019 0.67977 0.0
C316 C 0.15165 0.36016 0.74488 0.0
C317 C 0.86443 0.2502 0.09418 0.0
C318 C 0.79548 0.19909 0.11547 0.0
C319 C 0.87669 0.2753 0.03009 0.0
C320 C 0.82086 0.25011 0.98425 0.0
H321 H 0.90971 0.27034 0.12705 0.0
H322 H 0.9307 0.31388 1.01605 0.0
S323 S 0.62948 0.12014 1.01609 0.0
N324 N 0.66965 0.12719 0.08623 0.0
N325 N 0.69308 0.17383 0.96558 0.0
C326 C 0.7514 0.19981 1.00502 0.0
C327 C 0.7387 0.17444 0.07051 0.0
C328 C 0.5714 0.69481 0.38138 0.0
C329 C 0.55025 0.72788 0.42814 0.0
C330 C 0.5851 0.71944 0.31711 0.0
C331 C 0.57794 0.77797 0.29695 0.0
H332 H 0.57906 0.65048 0.3948 0.0
H333 H 0.60154 0.6925 0.28293 0.0
S334 S 0.52444 0.88372 0.3998 0.0
N335 N 0.52131 0.82158 0.44893 0.0
N336 N 0.54955 0.86919 0.32874 0.0
C337 C 0.5564 0.81128 0.34286 0.0
C338 C 0.54213 0.78606 0.40826 0.0
C339 C 0.78381 0.52603 0.74221 0.0
C340 C 0.78948 0.58251 0.78031 0.0
C341 C 0.75978 0.51737 0.67772 0.0
C342 C 0.74074 0.56498 0.64908 0.0
H343 H 0.79718 0.48778 0.76267 0.0
H344 H 0.75532 0.47264 0.65025 0.0
S345 S 0.7542 0.72619 0.72621 0.0
N346 N 0.77902 0.68943 0.78365 0.0
N347 N 0.73442 0.67359 0.6624 0.0
C348 C 0.74766 0.6225 0.68635 0.0
C349 C 0.77191 0.63115 0.75195 0.0
C350 C 0.28072 0.85445 0.98152 0.0
C351 C 0.218 0.7912 0.96396 0.0
C352 C 0.30484 0.8673 0.04587 0.0
C353 C 0.26709 0.81758 0.09541 0.0
H354 H 0.31137 0.89456 0.94519 0.0
H355 H 0.3534 0.91688 0.05696 0.0
S356 S 0.09874 0.64421 0.07518 0.0
N357 N 0.11829 0.67832 1.00128 0.0
N358 N 0.16328 0.70277 0.12249 0.0
C359 C 0.20474 0.7536 0.07843 0.0
C360 C 0.18031 0.74036 1.01269 0.0
C361 C 0.40332 0.15253 0.4199 0.0
C362 C 0.41586 0.22073 0.43788 0.0
C363 C 0.4142 0.1382 0.3561 0.0
C364 C 0.43842 0.19161 0.30804 0.0
H365 H 0.38525 0.10994 0.45552 0.0
H366 H 0.40387 0.08501 0.34428 0.0
S367 S 0.47426 0.3772 0.32849 0.0
N368 N 0.45048 0.34117 0.40144 0.0
N369 N 0.4719 0.31422 0.28162 0.0
C370 C 0.45111 0.25991 0.32512 0.0
C371 C 0.43963 0.27448 0.39002 0.0
C372 C 0.13383 0.60294 0.32837 0.0
C373 C 0.18899 0.58694 0.32027 0.0
C374 C 0.13329 0.64213 0.38246 0.0
C375 C 0.18784 0.66646 0.42966 0.0
H376 H 0.08918 0.58202 0.29475 0.0
H377 H 0.08986 0.65317 0.38754 0.0
S378 S 0.34907 0.64686 0.42521 0.0
N379 N 0.30292 0.60439 0.36001 0.0
N380 N 0.30202 0.67815 0.46095 0.0
C381 C 0.24554 0.65485 0.41949 0.0
C382 C 0.24592 0.61482 0.36501 0.0
C383 C 0.62808 0.21291 0.64066 0.0
C384 C 0.65539 0.16624 0.64666 0.0
C385 C 0.58672 0.21845 0.68978 0.0
C386 C 0.57255 0.17907 0.74794 0.0
H387 H 0.63769 0.24458 0.597 0.0
H388 H 0.56537 0.25393 0.68179 0.0
S389 S 0.64052 0.05671 0.79108 0.0
N390 N 0.67017 0.08355 0.71662 0.0
N391 N 0.59451 0.09625 0.81072 0.0
C392 C 0.6025 0.13466 0.75593 0.0
C393 C 0.64318 0.12747 0.70475 0.0
C394 C 0.37059 0.49226 0.05598 0.0
C395 C 0.3368 0.51921 0.09609 0.0
C396 C 0.4105 0.53092 1.00148 0.0
C397 C 0.41926 0.59848 0.98656 0.0
H398 H 0.36679 0.44133 0.0671 0.0
H399 H 0.43734 0.5094 0.97294 0.0
S400 S 0.33819 0.69054 0.07297 0.0
N401 N 0.31116 0.61549 0.11405 0.0
N402 N 0.3878 0.68863 1.01325 0.0
C403 C 0.38362 0.62454 1.02475 0.0
C404 C 0.34205 0.58485 0.0792 0.0
C405 C 0.76921 0.35616 0.37011 0.0
C406 C 0.81608 0.38486 0.42347 0.0
C407 C 0.77165 0.39928 0.31817 0.0
C408 C 0.82262 0.47238 0.31645 0.0
H409 H 0.73097 0.29936 0.36782 0.0
H410 H 0.73484 0.37465 0.278 0.0
S411 S 0.95122 0.57567 0.44718 0.0
N412 N 0.90977 0.49246 0.4744 0.0
N413 N 0.91685 0.57338 0.37481 0.0
C414 C 0.86837 0.50253 0.37016 0.0
C415 C 0.86426 0.45881 0.42432 0.0
C416 C 0.47267 0.87853 0.66511 0.0
C417 C 0.40281 0.82166 0.65457 0.0
C418 C 0.51346 0.87725 0.71817 0.0
C419 C 0.48562 0.81918 0.7619 0.0
H420 H 0.49463 0.92536 0.63408 0.0
H421 H 0.56688 0.92193 0.72511 0.0
S422 S 0.30891 0.65375 0.74959 0.0
N423 N 0.31024 0.70337 0.68791 0.0
N424 N 0.38634 0.70095 0.78721 0.0
C425 C 0.41746 0.7605 0.74927 0.0
C426 C 0.37617 0.76189 0.69576 0.0
C427 C 0.53493 0.41169 0.07684 0.0
C428 C 0.60206 0.41809 0.08962 0.0
C429 C 0.49618 0.37718 1.02031 0.0
C430 C 0.52289 0.34695 0.97579 0.0
H431 H 0.51412 0.43671 0.10864 0.0
H432 H 0.44555 0.3749 1.01106 0.0
S433 S 0.69327 0.34445 0.99068 0.0
N434 N 0.69127 0.38782 0.05558 0.0
N435 N 0.61859 0.3224 0.95064 0.0
C436 C 0.5881 0.34992 0.99015 0.0
C437 C 0.62752 0.38545 0.04686 0.0
loop_
_geom_bond_atom_site_label_1
_geom_bond_atom_site_label_2
_geom_bond_distance
_geom_bond_site_symmetry_2
_ccdc_geom_bond_type
Sm0 C2 2.846 . S
Sm0 O20 2.543 . S
Sm0 O21 2.450 . S
Sm0 O22 2.681 . S
Sm0 O23 2.464 . S
Sm0 O24 2.396 . S
Sm0 O28 2.386 . S
Sm0 O31 2.408 . S
Sm1 C11 2.846 . S
Sm1 O22 2.386 . S
Sm1 O25 2.408 . S
Sm1 O26 2.543 . S
Sm1 O27 2.450 . S
Sm1 O28 2.681 . S
Sm1 O29 2.464 . S
Sm1 O30 2.396 . S
C2 Sm0 2.846 . S
C2 C3 1.506 1_554 S
C2 O20 1.261 . S
C2 O21 1.242 . S
C3 C2 1.506 1_556 S
C3 C4 1.358 . S
C3 C8 1.382 . S
C4 C3 1.358 . S
C4 C5 1.385 . S
C4 H32 0.930 . S
C5 C4 1.385 . S
C5 C6 1.395 . S
C5 H33 0.929 . S
C6 C5 1.395 . S
C6 C7 1.335 . S
C7 C6 1.335 . S
C7 C8 1.398 . S
C7 H34 0.930 . S
C8 C3 1.382 . S
C8 C7 1.398 . S
C8 H35 0.929 . S
C9 O22 1.271 . S
C9 O23 1.251 . S
C10 O24 1.252 . S
C10 O25 1.272 . S
C11 Sm1 2.846 . S
C11 C12 1.506 . S
C11 O26 1.261 . S
C11 O27 1.242 . S
C12 C11 1.506 . S
C12 C13 1.358 . S
C12 C17 1.382 . S
C13 C12 1.358 . S
C13 C14 1.385 . S
C13 H36 0.930 . S
C14 C13 1.385 . S
C14 C15 1.395 . S
C14 H37 0.929 . S
C15 C14 1.395 . S
C15 C16 1.335 . S
C16 C15 1.335 . S
C16 C17 1.398 . S
C16 H38 0.930 . S
C17 C12 1.382 . S
C17 C16 1.398 . S
C17 H39 0.929 . S
C18 O28 1.271 . S
C18 O29 1.251 . S
C19 O30 1.252 . S
C19 O31 1.272 . S
O20 Sm0 2.543 . S
O20 C2 1.261 . S
O21 Sm0 2.450 . S
O21 C2 1.242 . S
O22 Sm0 2.681 . S
O22 Sm1 2.386 . S
O22 C9 1.271 . S
O23 Sm0 2.464 . S
O23 C9 1.251 . S
O24 Sm0 2.396 . S
O24 C10 1.252 . S
O25 Sm1 2.408 . S
O25 C10 1.272 . S
O26 Sm1 2.543 . S
O26 C11 1.261 . S
O27 Sm1 2.450 . S
O27 C11 1.242 . S
O28 Sm0 2.386 . S
O28 Sm1 2.681 . S
O28 C18 1.271 . S
O29 Sm1 2.464 . S
O29 C18 1.251 . S
O30 Sm1 2.396 . S
O30 C19 1.252 . S
O31 Sm0 2.408 . S
O31 C19 1.272 . S
H32 C4 0.930 . S
H33 C5 0.929 . S
H34 C7 0.930 . S
H35 C8 0.929 . S
H36 C13 0.930 . S
H37 C14 0.929 . S
H38 C16 0.930 . S
H39 C17 0.929 . S
Sm40 C42 2.846 . S
Sm40 O60 2.543 . S
Sm40 O61 2.450 . S
Sm40 O62 2.681 . S
Sm40 O63 2.464 . S
Sm40 O64 2.396 . S
Sm40 O68 2.386 . S
Sm40 O71 2.408 . S
Sm41 C51 2.846 . S
Sm41 O62 2.386 . S
Sm41 O65 2.408 . S
Sm41 O66 2.543 . S
Sm41 O67 2.450 . S
Sm41 O68 2.681 . S
Sm41 O69 2.464 . S
Sm41 O70 2.396 . S
C42 Sm40 2.846 . S
C42 C43 1.506 . S
C42 O60 1.261 . S
C42 O61 1.242 . S
C43 C42 1.506 . S
C43 C44 1.358 . S
C43 C48 1.382 . S
C44 C43 1.358 . S
C44 C45 1.385 . S
C44 H72 0.930 . S
C45 C44 1.385 . S
C45 C46 1.395 . S
C45 H73 0.929 . S
C46 C45 1.395 . S
C46 C47 1.335 . S
C47 C46 1.335 . S
C47 C48 1.398 . S
C47 H74 0.930 . S
C48 C43 1.382 . S
C48 C47 1.398 . S
C48 H75 0.929 . S
C49 O62 1.271 . S
C49 O63 1.251 . S
C50 O64 1.252 . S
C50 O65 1.272 . S
C51 Sm41 2.846 . S
C51 C52 1.506 . S
C51 O66 1.261 . S
C51 O67 1.242 . S
C52 C51 1.506 . S
C52 C53 1.358 . S
C52 C57 1.382 . S
C53 C52 1.358 . S
C53 C54 1.385 . S
C53 H76 0.930 . S
C54 C53 1.385 . S
C54 C55 1.395 . S
C54 H77 0.929 . S
C55 C54 1.395 . S
C55 C56 1.335 . S
C56 C55 1.335 . S
C56 C57 1.398 . S
C56 H78 0.930 . S
C57 C52 1.382 . S
C57 C56 1.398 . S
C57 H79 0.929 . S
C58 O68 1.271 . S
C58 O69 1.251 . S
C59 O70 1.252 . S
C59 O71 1.272 . S
O60 Sm40 2.543 . S
O60 C42 1.261 . S
O61 Sm40 2.450 . S
O61 C42 1.242 . S
O62 Sm40 2.681 . S
O62 Sm41 2.386 . S
O62 C49 1.271 . S
O63 Sm40 2.464 . S
O63 C49 1.251 . S
O64 Sm40 2.396 . S
O64 C50 1.252 . S
O65 Sm41 2.408 . S
O65 C50 1.272 . S
O66 Sm41 2.543 . S
O66 C51 1.261 . S
O67 Sm41 2.450 . S
O67 C51 1.242 . S
O68 Sm40 2.386 . S
O68 Sm41 2.681 . S
O68 C58 1.271 . S
O69 Sm41 2.464 . S
O69 C58 1.251 . S
O70 Sm41 2.396 . S
O70 C59 1.252 . S
O71 Sm40 2.408 . S
O71 C59 1.272 . S
H72 C44 0.930 . S
H73 C45 0.929 . S
H74 C47 0.930 . S
H75 C48 0.929 . S
H76 C53 0.930 . S
H77 C54 0.929 . S
H78 C56 0.930 . S
H79 C57 0.929 . S
Sm80 C82 2.846 . S
Sm80 O100 2.543 . S
Sm80 O101 2.450 . S
Sm80 O102 2.681 . S
Sm80 O103 2.464 . S
Sm80 O104 2.396 . S
Sm80 O108 2.386 . S
Sm80 O111 2.408 . S
Sm81 C91 2.846 1_556 S
Sm81 O102 2.386 . S
Sm81 O105 2.408 . S
Sm81 O106 2.543 1_556 S
Sm81 O107 2.450 1_556 S
Sm81 O108 2.681 . S
Sm81 O109 2.464 . S
Sm81 O110 2.396 1_556 S
C82 Sm80 2.846 . S
C82 C83 1.506 . S
C82 O100 1.261 . S
C82 O101 1.242 . S
C83 C82 1.506 . S
C83 C84 1.358 . S
C83 C88 1.382 . S
C84 C83 1.358 . S
C84 C85 1.385 . S
C84 H112 0.930 . S
C85 C84 1.385 . S
C85 C86 1.395 . S
C85 H113 0.929 . S
C86 C85 1.395 . S
C86 C87 1.335 . S
C87 C86 1.335 . S
C87 C88 1.398 . S
C87 H114 0.930 . S
C88 C83 1.382 . S
C88 C87 1.398 . S
C88 H115 0.929 . S
C89 O102 1.271 . S
C89 O103 1.251 . S
C90 O104 1.252 . S
C90 O105 1.272 . S
C91 Sm81 2.846 1_554 S
C91 C92 1.506 . S
C91 O106 1.261 . S
C91 O107 1.242 . S
C92 C91 1.506 . S
C92 C93 1.358 . S
C92 C97 1.382 . S
C93 C92 1.358 . S
C93 C94 1.385 . S
C93 H116 0.930 . S
C94 C93 1.385 . S
C94 C95 1.395 . S
C94 H117 0.929 . S
C95 C94 1.395 . S
C95 C96 1.335 . S
C96 C95 1.335 . S
C96 C97 1.398 . S
C96 H118 0.930 . S
C97 C92 1.382 . S
C97 C96 1.398 . S
C97 H119 0.929 . S
C98 O108 1.271 . S
C98 O109 1.251 . S
C99 O110 1.252 1_556 S
C99 O111 1.272 . S
O100 Sm80 2.543 . S
O100 C82 1.261 . S
O101 Sm80 2.450 . S
O101 C82 1.242 . S
O102 Sm80 2.681 . S
O102 Sm81 2.386 . S
O102 C89 1.271 . S
O103 Sm80 2.464 . S
O103 C89 1.251 . S
O104 Sm80 2.396 . S
O104 C90 1.252 . S
O105 Sm81 2.408 . S
O105 C90 1.272 . S
O106 Sm81 2.543 1_554 S
O106 C91 1.261 . S
O107 Sm81 2.450 1_554 S
O107 C91 1.242 . S
O108 Sm80 2.386 . S
O108 Sm81 2.681 . S
O108 C98 1.271 . S
O109 Sm81 2.464 . S
O109 C98 1.251 . S
O110 Sm81 2.396 1_554 S
O110 C99 1.252 1_554 S
O111 Sm80 2.408 . S
O111 C99 1.272 . S
H112 C84 0.930 . S
H113 C85 0.929 . S
H114 C87 0.930 . S
H115 C88 0.929 . S
H116 C93 0.930 . S
H117 C94 0.929 . S
H118 C96 0.930 . S
H119 C97 0.929 . S
Sm120 C122 2.846 . S
Sm120 O140 2.543 . S
Sm120 O141 2.450 . S
Sm120 O142 2.681 . S
Sm120 O143 2.464 . S
Sm120 O144 2.396 . S
Sm120 O148 2.386 . S
Sm120 O151 2.408 . S
Sm121 C131 2.846 1_554 S
Sm121 O142 2.386 . S
Sm121 O145 2.408 . S
Sm121 O146 2.543 1_554 S
Sm121 O147 2.450 1_554 S
Sm121 O148 2.681 . S
Sm121 O149 2.464 . S
Sm121 O150 2.396 . S
C122 Sm120 2.846 . S
C122 C123 1.506 . S
C122 O140 1.261 . S
C122 O141 1.242 . S
C123 C122 1.506 . S
C123 C124 1.358 . S
C123 C128 1.382 . S
C124 C123 1.358 . S
C124 C125 1.385 . S
C124 H152 0.930 . S
C125 C124 1.385 . S
C125 C126 1.395 . S
C125 H153 0.929 . S
C126 C125 1.395 . S
C126 C127 1.335 . S
C127 C126 1.335 . S
C127 C128 1.398 . S
C127 H154 0.930 . S
C128 C123 1.382 . S
C128 C127 1.398 . S
C128 H155 0.929 . S
C129 O142 1.271 . S
C129 O143 1.251 . S
C130 O144 1.252 . S
C130 O145 1.272 . S
C131 Sm121 2.846 1_556 S
C131 C132 1.506 . S
C131 O146 1.261 . S
C131 O147 1.242 . S
C132 C131 1.506 . S
C132 C133 1.358 . S
C132 C137 1.382 . S
C133 C132 1.358 . S
C133 C134 1.385 . S
C133 H156 0.930 . S
C134 C133 1.385 . S
C134 C135 1.395 . S
C134 H157 0.929 . S
C135 C134 1.395 . S
C135 C136 1.335 . S
C136 C135 1.335 . S
C136 C137 1.398 . S
C136 H158 0.930 . S
C137 C132 1.382 . S
C137 C136 1.398 . S
C137 H159 0.929 . S
C138 O148 1.271 . S
C138 O149 1.251 . S
C139 O150 1.252 . S
C139 O151 1.272 . S
O140 Sm120 2.543 . S
O140 C122 1.261 . S
O141 Sm120 2.450 . S
O141 C122 1.242 . S
O142 Sm120 2.681 . S
O142 Sm121 2.386 . S
O142 C129 1.271 . S
O143 Sm120 2.464 . S
O143 C129 1.251 . S
O144 Sm120 2.396 . S
O144 C130 1.252 . S
O145 Sm121 2.408 . S
O145 C130 1.272 . S
O146 Sm121 2.543 1_556 S
O146 C131 1.261 . S
O147 Sm121 2.450 1_556 S
O147 C131 1.242 . S
O148 Sm120 2.386 . S
O148 Sm121 2.681 . S
O148 C138 1.271 . S
O149 Sm121 2.464 . S
O149 C138 1.251 . S
O150 Sm121 2.396 . S
O150 C139 1.252 . S
O151 Sm120 2.408 . S
O151 C139 1.272 . S
H152 C124 0.930 . S
H153 C125 0.929 . S
H154 C127 0.930 . S
H155 C128 0.929 . S
H156 C133 0.930 . S
H157 C134 0.929 . S
H158 C136 0.930 . S
H159 C137 0.929 . S
Sm160 C162 2.846 . S
Sm160 O180 2.543 . S
Sm160 O181 2.450 . S
Sm160 O182 2.681 . S
Sm160 O183 2.464 . S
Sm160 O184 2.396 . S
Sm160 O188 2.386 . S
Sm160 O191 2.408 . S
Sm161 C171 2.846 . S
Sm161 O182 2.386 . S
Sm161 O185 2.408 . S
Sm161 O186 2.543 . S
Sm161 O187 2.450 . S
Sm161 O188 2.681 . S
Sm161 O189 2.464 . S
Sm161 O190 2.396 . S
C162 Sm160 2.846 . S
C162 C163 1.506 . S
C162 O180 1.261 . S
C162 O181 1.242 . S
C163 C162 1.506 . S
C163 C164 1.358 . S
C163 C168 1.382 . S
C164 C163 1.358 . S
C164 C165 1.385 . S
C164 H192 0.930 . S
C165 C164 1.385 . S
C165 C166 1.395 . S
C165 H193 0.929 . S
C166 C165 1.395 . S
C166 C167 1.335 . S
C167 C166 1.335 . S
C167 C168 1.398 . S
C167 H194 0.930 . S
C168 C163 1.382 . S
C168 C167 1.398 . S
C168 H195 0.929 . S
C169 O182 1.271 . S
C169 O183 1.251 . S
C170 O184 1.252 . S
C170 O185 1.272 . S
C171 Sm161 2.846 . S
C171 C172 1.506 . S
C171 O186 1.261 . S
C171 O187 1.242 . S
C172 C171 1.506 . S
C172 C173 1.358 . S
C172 C177 1.382 . S
C173 C172 1.358 . S
C173 C174 1.385 . S
C173 H196 0.930 . S
C174 C173 1.385 . S
C174 C175 1.395 . S
C174 H197 0.929 . S
C175 C174 1.395 . S
C175 C176 1.335 . S
C176 C175 1.335 . S
C176 C177 1.398 . S
C176 H198 0.930 . S
C177 C172 1.382 . S
C177 C176 1.398 . S
C177 H199 0.929 . S
C178 O188 1.271 . S
C178 O189 1.251 . S
C179 O190 1.252 . S
C179 O191 1.272 . S
O180 Sm160 2.543 . S
O180 C162 1.261 . S
O181 Sm160 2.450 . S
O181 C162 1.242 . S
O182 Sm160 2.681 . S
O182 Sm161 2.386 . S
O182 C169 1.271 . S
O183 Sm160 2.464 . S
O183 C169 1.251 . S
O184 Sm160 2.396 . S
O184 C170 1.252 . S
O185 Sm161 2.408 . S
O185 C170 1.272 . S
O186 Sm161 2.543 . S
O186 C171 1.261 . S
O187 Sm161 2.450 . S
O187 C171 1.242 . S
O188 Sm160 2.386 . S
O188 Sm161 2.681 . S
O188 C178 1.271 . S
O189 Sm161 2.464 . S
O189 C178 1.251 . S
O190 Sm161 2.396 . S
O190 C179 1.252 . S
O191 Sm160 2.408 . S
O191 C179 1.272 . S
H192 C164 0.930 . S
H193 C165 0.929 . S
H194 C167 0.930 . S
H195 C168 0.929 . S
H196 C173 0.930 . S
H197 C174 0.929 . S
H198 C176 0.930 . S
H199 C177 0.929 . S
Sm200 C202 2.846 . S
Sm200 O220 2.543 . S
Sm200 O221 2.450 . S
Sm200 O222 2.681 . S
Sm200 O223 2.464 . S
Sm200 O224 2.396 . S
Sm200 O228 2.386 . S
Sm200 O231 2.408 . S
Sm201 C211 2.846 . S
Sm201 O222 2.386 . S
Sm201 O225 2.408 . S
Sm201 O226 2.543 . S
Sm201 O227 2.450 . S
Sm201 O228 2.681 . S
Sm201 O229 2.464 . S
Sm201 O230 2.396 . S
C202 Sm200 2.846 . S
C202 C203 1.506 1_556 S
C202 O220 1.261 . S
C202 O221 1.242 . S
C203 C202 1.506 1_554 S
C203 C204 1.358 . S
C203 C208 1.382 . S
C204 C203 1.358 . S
C204 C205 1.385 . S
C204 H232 0.930 . S
C205 C204 1.385 . S
C205 C206 1.395 . S
C205 H233 0.929 . S
C206 C205 1.395 . S
C206 C207 1.335 . S
C207 C206 1.335 . S
C207 C208 1.398 . S
C207 H234 0.930 . S
C208 C203 1.382 . S
C208 C207 1.398 . S
C208 H235 0.929 . S
C209 O222 1.271 . S
C209 O223 1.251 . S
C210 O224 1.252 . S
C210 O225 1.272 . S
C211 Sm201 2.846 . S
C211 C212 1.506 . S
C211 O226 1.261 . S
C211 O227 1.242 . S
C212 C211 1.506 . S
C212 C213 1.358 . S
C212 C217 1.382 . S
C213 C212 1.358 . S
C213 C214 1.385 . S
C213 H236 0.930 . S
C214 C213 1.385 . S
C214 C215 1.395 . S
C214 H237 0.929 . S
C215 C214 1.395 . S
C215 C216 1.335 . S
C216 C215 1.335 . S
C216 C217 1.398 . S
C216 H238 0.930 . S
C217 C212 1.382 . S
C217 C216 1.398 . S
C217 H239 0.929 . S
C218 O228 1.271 . S
C218 O229 1.251 . S
C219 O230 1.252 . S
C219 O231 1.272 . S
O220 Sm200 2.543 . S
O220 C202 1.261 . S
O221 Sm200 2.450 . S
O221 C202 1.242 . S
O222 Sm200 2.681 . S
O222 Sm201 2.386 . S
O222 C209 1.271 . S
O223 Sm200 2.464 . S
O223 C209 1.251 . S
O224 Sm200 2.396 . S
O224 C210 1.252 . S
O225 Sm201 2.408 . S
O225 C210 1.272 . S
O226 Sm201 2.543 . S
O226 C211 1.261 . S
O227 Sm201 2.450 . S
O227 C211 1.242 . S
O228 Sm200 2.386 . S
O228 Sm201 2.681 . S
O228 C218 1.271 . S
O229 Sm201 2.464 . S
O229 C218 1.251 . S
O230 Sm201 2.396 . S
O230 C219 1.252 . S
O231 Sm200 2.408 . S
O231 C219 1.272 . S
H232 C204 0.930 . S
H233 C205 0.929 . S
H234 C207 0.930 . S
H235 C208 0.929 . S
H236 C213 0.930 . S
H237 C214 0.929 . S
H238 C216 0.930 . S
H239 C217 0.929 . S
C240 C241 1.369 . S
C240 C242 1.419 1_556 S
C240 H244 0.930 . S
C241 C240 1.369 . S
C241 C250 1.429 . S
C242 C240 1.419 1_554 S
C242 C243 1.363 . S
C242 H245 0.929 . S
C243 C242 1.363 . S
C243 C249 1.428 . S
H244 C240 0.930 . S
H245 C242 0.929 . S
S246 N247 1.613 1_554 S
S246 N248 1.610 . S
N247 S246 1.613 1_556 S
N247 C250 1.350 . S
N248 S246 1.610 . S
N248 C249 1.351 . S
C249 C243 1.428 . S
C249 N248 1.351 . S
C249 C250 1.434 1_554 S
C250 C241 1.429 . S
C250 N247 1.350 . S
C250 C249 1.434 1_556 S
C251 C252 1.369 . S
C251 C253 1.419 1_455 S
C251 H255 0.930 . S
C252 C251 1.369 . S
C252 C261 1.429 . S
C253 C251 1.419 1_655 S
C253 C254 1.363 . S
C253 H256 0.929 . S
C254 C253 1.363 . S
C254 C260 1.428 . S
H255 C251 0.930 . S
H256 C253 0.929 . S
S257 N258 1.613 1_655 S
S257 N259 1.610 . S
N258 S257 1.613 1_455 S
N258 C261 1.350 . S
N259 S257 1.610 . S
N259 C260 1.351 . S
C260 C254 1.428 . S
C260 N259 1.351 . S
C260 C261 1.434 1_655 S
C261 C252 1.429 . S
C261 N258 1.350 . S
C261 C260 1.434 1_455 S
C262 C263 1.369 . S
C262 C264 1.419 . S
C262 H266 0.930 . S
C263 C262 1.369 . S
C263 C272 1.429 1_545 S
C264 C262 1.419 . S
C264 C265 1.363 1_545 S
C264 H267 0.929 . S
C265 C264 1.363 1_565 S
C265 C271 1.428 . S
H266 C262 0.930 . S
H267 C264 0.929 . S
S268 N269 1.613 . S
S268 N270 1.610 . S
N269 S268 1.613 . S
N269 C272 1.350 . S
N270 S268 1.610 . S
N270 C271 1.351 . S
C271 C265 1.428 . S
C271 N270 1.351 . S
C271 C272 1.434 . S
C272 C263 1.429 1_565 S
C272 N269 1.350 . S
C272 C271 1.434 . S
C273 C274 1.369 . S
C273 C275 1.419 1_556 S
C273 H277 0.930 . S
C274 C273 1.369 . S
C274 C283 1.429 1_556 S
C275 C273 1.419 1_554 S
C275 C276 1.363 . S
C275 H278 0.929 . S
C276 C275 1.363 . S
C276 C282 1.428 . S
H277 C273 0.930 . S
H278 C275 0.929 . S
S279 N280 1.613 . S
S279 N281 1.610 . S
N280 S279 1.613 . S
N280 C283 1.350 . S
N281 S279 1.610 . S
N281 C282 1.351 . S
C282 C276 1.428 . S
C282 N281 1.351 . S
C282 C283 1.434 . S
C283 C274 1.429 1_554 S
C283 N280 1.350 . S
C283 C282 1.434 . S
C284 C285 1.369 1_655 S
C284 C286 1.419 . S
C284 H288 0.930 . S
C285 C284 1.369 1_455 S
C285 C294 1.429 . S
C286 C284 1.419 . S
C286 C287 1.363 . S
C286 H289 0.929 . S
C287 C286 1.363 . S
C287 C293 1.428 1_655 S
H288 C284 0.930 . S
H289 C286 0.929 . S
S290 N291 1.613 . S
S290 N292 1.610 . S
N291 S290 1.613 . S
N291 C294 1.350 . S
N292 S290 1.610 . S
N292 C293 1.351 . S
C293 C287 1.428 1_455 S
C293 N292 1.351 . S
C293 C294 1.434 . S
C294 C285 1.429 . S
C294 N291 1.350 . S
C294 C293 1.434 . S
C295 C296 1.369 . S
C295 C297 1.419 1_545 S
C295 H299 0.930 1_545 S
C296 C295 1.369 . S
C296 C305 1.429 . S
C297 C295 1.419 1_565 S
C297 C298 1.363 . S
C297 H300 0.929 . S
C298 C297 1.363 . S
C298 C304 1.418 1_565 S
H299 C295 0.930 1_565 S
H300 C297 0.929 . S
S301 N302 1.613 . S
S301 N303 1.610 . S
N302 S301 1.613 . S
N302 C305 1.350 . S
N303 S301 1.610 . S
N303 C304 1.353 . S
C304 C298 1.418 1_545 S
C304 N303 1.353 . S
C304 C305 1.444 . S
C305 C296 1.429 . S
C305 N302 1.350 . S
C305 C304 1.444 . S
C306 C307 1.369 . S
C306 C308 1.419 . S
C306 H310 0.930 . S
C307 C306 1.369 . S
C307 C316 1.429 . S
C308 C306 1.419 . S
C308 C309 1.363 . S
C308 H311 0.929 . S
C309 C308 1.363 . S
C309 C315 1.428 . S
H310 C306 0.930 . S
H311 C308 0.929 . S
S312 N313 1.613 . S
S312 N314 1.610 . S
N313 S312 1.613 . S
N313 C316 1.350 . S
N314 S312 1.610 . S
N314 C315 1.351 . S
C315 C309 1.428 . S
C315 N314 1.351 . S
C315 C316 1.434 . S
C316 C307 1.429 . S
C316 N313 1.350 . S
C316 C315 1.434 . S
C317 C318 1.369 . S
C317 C319 1.419 . S
C317 H321 0.930 1_556 S
C318 C317 1.369 . S
C318 C327 1.429 . S
C319 C317 1.419 . S
C319 C320 1.363 . S
C319 H322 0.929 . S
C320 C319 1.363 . S
C320 C326 1.428 . S
H321 C317 0.930 1_554 S
H322 C319 0.929 . S
S323 N324 1.613 . S
S323 N325 1.610 . S
N324 S323 1.613 . S
N324 C327 1.350 . S
N325 S323 1.610 . S
N325 C326 1.351 . S
C326 C320 1.428 . S
C326 N325 1.351 . S
C326 C327 1.434 . S
C327 C318 1.429 . S
C327 N324 1.350 . S
C327 C326 1.434 . S
C328 C329 1.369 . S
C328 C330 1.419 . S
C328 H332 0.930 . S
C329 C328 1.369 . S
C329 C338 1.429 . S
C330 C328 1.419 . S
C330 C331 1.363 . S
C330 H333 0.929 . S
C331 C330 1.363 . S
C331 C337 1.428 . S
H332 C328 0.930 . S
H333 C330 0.929 . S
S334 N335 1.613 . S
S334 N336 1.610 . S
N335 S334 1.613 . S
N335 C338 1.350 . S
N336 S334 1.610 . S
N336 C337 1.351 . S
C337 C331 1.428 . S
C337 N336 1.351 . S
C337 C338 1.434 . S
C338 C329 1.429 . S
C338 N335 1.350 . S
C338 C337 1.434 . S
C339 C340 1.369 . S
C339 C341 1.419 . S
C339 H343 0.930 . S
C340 C339 1.369 . S
C340 C349 1.429 . S
C341 C339 1.419 . S
C341 C342 1.363 . S
C341 H344 0.929 . S
C342 C341 1.363 . S
C342 C348 1.428 . S
H343 C339 0.930 . S
H344 C341 0.929 . S
S345 N346 1.613 . S
S345 N347 1.610 . S
N346 S345 1.613 . S
N346 C349 1.350 . S
N347 S345 1.610 . S
N347 C348 1.351 . S
C348 C342 1.428 . S
C348 N347 1.351 . S
C348 C349 1.434 . S
C349 C340 1.429 . S
C349 N346 1.350 . S
C349 C348 1.434 . S
C350 C351 1.369 . S
C350 C352 1.419 . S
C350 H354 0.930 1_554 S
C351 C350 1.369 . S
C351 C360 1.429 . S
C352 C350 1.419 . S
C352 C353 1.363 . S
C352 H355 0.929 . S
C353 C352 1.363 . S
C353 C359 1.428 . S
H354 C350 0.930 1_556 S
H355 C352 0.929 . S
S356 N357 1.613 . S
S356 N358 1.610 . S
N357 S356 1.613 . S
N357 C360 1.350 . S
N358 S356 1.610 . S
N358 C359 1.351 . S
C359 C353 1.428 . S
C359 N358 1.351 . S
C359 C360 1.434 . S
C360 C351 1.429 . S
C360 N357 1.350 . S
C360 C359 1.434 . S
C361 C362 1.369 . S
C361 C363 1.419 . S
C361 H365 0.930 . S
C362 C361 1.369 . S
C362 C371 1.429 . S
C363 C361 1.419 . S
C363 C364 1.363 . S
C363 H366 0.929 . S
C364 C363 1.363 . S
C364 C370 1.428 . S
H365 C361 0.930 . S
H366 C363 0.929 . S
S367 N368 1.613 . S
S367 N369 1.610 . S
N368 S367 1.613 . S
N368 C371 1.350 . S
N369 S367 1.610 . S
N369 C370 1.351 . S
C370 C364 1.428 . S
C370 N369 1.351 . S
C370 C371 1.434 . S
C371 C362 1.429 . S
C371 N368 1.350 . S
C371 C370 1.434 . S
C372 C373 1.369 . S
C372 C374 1.419 . S
C372 H376 0.930 . S
C373 C372 1.369 . S
C373 C382 1.429 . S
C374 C372 1.419 . S
C374 C375 1.363 . S
C374 H377 0.929 . S
C375 C374 1.363 . S
C375 C381 1.428 . S
H376 C372 0.930 . S
H377 C374 0.929 . S
S378 N379 1.613 . S
S378 N380 1.610 . S
N379 S378 1.613 . S
N379 C382 1.350 . S
N380 S378 1.610 . S
N380 C381 1.351 . S
C381 C375 1.428 . S
C381 N380 1.351 . S
C381 C382 1.434 . S
C382 C373 1.429 . S
C382 N379 1.350 . S
C382 C381 1.434 . S
C383 C384 1.369 . S
C383 C385 1.419 . S
C383 H387 0.930 . S
C384 C383 1.369 . S
C384 C393 1.429 . S
C385 C383 1.419 . S
C385 C386 1.363 . S
C385 H388 0.929 . S
C386 C385 1.363 . S
C386 C392 1.428 . S
H387 C383 0.930 . S
H388 C385 0.929 . S
S389 N390 1.613 . S
S389 N391 1.610 . S
N390 S389 1.613 . S
N390 C393 1.350 . S
N391 S389 1.610 . S
N391 C392 1.351 . S
C392 C386 1.428 . S
C392 N391 1.351 . S
C392 C393 1.434 . S
C393 C384 1.429 . S
C393 N390 1.350 . S
C393 C392 1.434 . S
C394 C395 1.369 . S
C394 C396 1.419 . S
C394 H398 0.930 . S
C395 C394 1.369 . S
C395 C404 1.429 . S
C396 C394 1.419 . S
C396 C397 1.363 . S
C396 H399 0.929 . S
C397 C396 1.363 . S
C397 C403 1.428 . S
H398 C394 0.930 . S
H399 C396 0.929 . S
S400 N401 1.613 . S
S400 N402 1.610 . S
N401 S400 1.613 . S
N401 C404 1.350 . S
N402 S400 1.610 . S
N402 C403 1.351 . S
C403 C397 1.428 . S
C403 N402 1.351 . S
C403 C404 1.434 . S
C404 C395 1.429 . S
C404 N401 1.350 . S
C404 C403 1.434 . S
C405 C406 1.369 . S
C405 C407 1.419 . S
C405 H409 0.930 . S
C406 C405 1.369 . S
C406 C415 1.429 . S
C407 C405 1.419 . S
C407 C408 1.363 . S
C407 H410 0.929 . S
C408 C407 1.363 . S
C408 C414 1.428 . S
H409 C405 0.930 . S
H410 C407 0.929 . S
S411 N412 1.613 1_455 S
S411 N413 1.610 1_455 S
N412 S411 1.613 1_655 S
N412 C415 1.350 . S
N413 S411 1.610 1_655 S
N413 C414 1.351 . S
C414 C408 1.428 . S
C414 N413 1.351 . S
C414 C415 1.434 . S
C415 C406 1.429 . S
C415 N412 1.350 . S
C415 C414 1.434 . S
C416 C417 1.369 . S
C416 C418 1.419 . S
C416 H420 0.930 . S
C417 C416 1.369 . S
C417 C426 1.429 . S
C418 C416 1.419 . S
C418 C419 1.363 . S
C418 H421 0.929 . S
C419 C418 1.363 . S
C419 C425 1.428 . S
H420 C416 0.930 . S
H421 C418 0.929 . S
S422 N423 1.613 . S
S422 N424 1.610 . S
N423 S422 1.613 . S
N423 C426 1.350 . S
N424 S422 1.610 . S
N424 C425 1.351 . S
C425 C419 1.428 . S
C425 N424 1.351 . S
C425 C426 1.434 . S
C426 C417 1.429 . S
C426 N423 1.350 . S
C426 C425 1.434 . S
C427 C428 1.369 . S
C427 C429 1.419 . S
C427 H431 0.930 1_556 S
C428 C427 1.369 . S
C428 C437 1.429 . S
C429 C427 1.419 . S
C429 C430 1.363 . S
C429 H432 0.929 . S
C430 C429 1.363 . S
C430 C436 1.428 . S
H431 C427 0.930 1_554 S
H432 C429 0.929 . S
S433 N434 1.613 . S
S433 N435 1.610 . S
N434 S433 1.613 . S
N434 C437 1.350 . S
N435 S433 1.610 . S
N435 C436 1.351 . S
C436 C430 1.428 . S
C436 N435 1.351 . S
C436 C437 1.434 . S
C437 C428 1.429 . S
C437 N434 1.350 . S
C437 C436 1.434 . S
C241 C210 1.994 . S
C243 C10 1.992 . S
C252 C9 1.446 . S
C254 C49 1.447 . S
C263 C50 1.996 . S
C265 C90 1.991 . S
C274 C89 1.447 . S
C276 C129 1.446 . S
C285 C170 1.989 . S
C287 C130 1.996 . S
C296 C209 1.448 . S
C298 C169 1.443 . S
C307 C6 1.881 . S
C309 C15 1.886 . S
C318 C55 1.889 1_556 S
C320 C46 1.879 . S
C329 C86 1.881 . S
C331 C95 1.886 . S
C340 C135 1.880 . S
C342 C126 1.887 . S
C351 C175 1.890 1_554 S
C353 C166 1.879 . S
C362 C215 1.890 . S
C364 C206 1.879 . S
C373 C19 1.959 . S
C375 C178 1.947 . S
C384 C58 1.946 . S
C386 C219 1.959 . S
C395 C18 1.946 . S
C397 C99 1.959 1_554 S
C406 C59 1.959 . S
C408 C138 1.947 . S
C417 C179 1.959 . S
C419 C98 1.947 . S
C428 C139 1.959 1_556 S
C430 C218 1.948 . S
