# Generated by pormake.
# Topology tfs, (6)-cn, num edge types: 1
# Building blocks:
#     Node 0, Type 0, BuildingBlock: MIFKUJ_clean_sbu_0, # of connection points: 6
#     Node 1, Type 0, BuildingBlock: MIFKUJ_clean_sbu_0, # of connection points: 6
#     Node 2, Type 0, BuildingBlock: MIFKUJ_clean_sbu_0, # of connection points: 6
#     Node 3, Type 0, BuildingBlock: MIFKUJ_clean_sbu_0, # of connection points: 6
#     Node 4, Type 0, BuildingBlock: MIFKUJ_clean_sbu_0, # of connection points: 6
#     Node 5, Type 0, BuildingBlock: MIFKUJ_clean_sbu_0, # of connection points: 6
#     Edge 6, Type (0, 0), BuildingBlock: FUNLAD_clean_linker_1, # of connection points: 2
#     Edge 7, Type (0, 0), BuildingBlock: FUNLAD_clean_linker_1, # of connection points: 2
#     Edge 8, Type (0, 0), BuildingBlock: FUNLAD_clean_linker_1, # of connection points: 2
#     Edge 9, Type (0, 0), BuildingBlock: FUNLAD_clean_linker_1, # of connection points: 2
#     Edge 10, Type (0, 0), BuildingBlock: FUNLAD_clean_linker_1, # of connection points: 2
#     Edge 11, Type (0, 0), BuildingBlock: FUNLAD_clean_linker_1, # of connection points: 2
#     Edge 12, Type (0, 0), BuildingBlock: FUNLAD_clean_linker_1, # of connection points: 2
#     Edge 13, Type (0, 0), BuildingBlock: FUNLAD_clean_linker_1, # of connection points: 2
#     Edge 14, Type (0, 0), BuildingBlock: FUNLAD_clean_linker_1, # of connection points: 2
#     Edge 15, Type (0, 0), BuildingBlock: FUNLAD_clean_linker_1, # of connection points: 2
#     Edge 16, Type (0, 0), BuildingBlock: FUNLAD_clean_linker_1, # of connection points: 2
#     Edge 17, Type (0, 0), BuildingBlock: FUNLAD_clean_linker_1, # of connection points: 2
#     Edge 18, Type (0, 0), BuildingBlock: FUNLAD_clean_linker_1, # of connection points: 2
#     Edge 19, Type (0, 0), BuildingBlock: FUNLAD_clean_linker_1, # of connection points: 2
#     Edge 20, Type (0, 0), BuildingBlock: FUNLAD_clean_linker_1, # of connection points: 2
#     Edge 21, Type (0, 0), BuildingBlock: FUNLAD_clean_linker_1, # of connection points: 2
#     Edge 22, Type (0, 0), BuildingBlock: FUNLAD_clean_linker_1, # of connection points: 2
#     Edge 23, Type (0, 0), BuildingBlock: FUNLAD_clean_linker_1, # of connection points: 2
# Relax obj value: 0.414
# Max RMSD: 0.244
# Mean RMSD: 0.244
data_MOF--net-tfs--node1-MIFKUJ_clean_sbu_0--edge1-FUNLAD_clean_linker_1
_symmetry_space_group_name_H-M    P1
_symmetry_Int_Tables_number       1
_symmetry_cell_setting            triclinic
loop_
_symmetry_equiv_pos_as_xyz
'x, y, z'
_cell_length_a     49.039864
_cell_length_b     49.349927
_cell_length_c     14.717883
_cell_angle_alpha  90.021533
_cell_angle_beta   90.160596
_cell_angle_gamma 120.46763
loop_
_atom_site_label
_atom_site_type_symbol
_atom_site_fract_x
_atom_site_fract_y
_atom_site_fract_z
_atom_type_partial_charge
Zn0 Zn 0.21286 0.44843 0.98515 0.0
Zn1 Zn 0.20864 0.37917 0.98928 0.0
C2 C 0.2769 0.50006 0.02316 0.0
O3 O 0.26176 0.51009 0.07383 0.0
C4 C 0.14092 0.33341 0.98607 0.0
O5 O 0.15039 0.31362 0.00726 0.0
O6 O 0.19744 0.47918 0.9853 0.0
O7 O 0.19744 0.4232 0.87124 0.0
O8 O 0.23272 0.4088 0.88969 0.0
C9 C 0.20943 0.50339 0.93516 0.0
O10 O 0.23183 0.5082 0.8774 0.0
O11 O 0.26126 0.47384 0.98202 0.0
C12 C 0.22698 0.33281 0.03767 0.0
O13 O 0.23038 0.34403 0.12052 0.0
O14 O 0.21755 0.34364 0.97453 0.0
O15 O 0.22109 0.39763 0.11295 0.0
O16 O 0.19711 0.4254 0.10237 0.0
O17 O 0.16136 0.36226 0.97398 0.0
C18 C 0.21562 0.41451 0.83807 0.0
C19 C 0.20769 0.41117 0.14923 0.0
Zn20 Zn 0.76728 0.22118 0.00582 0.0
Zn21 Zn 0.8342 0.20031 0.00388 0.0
C22 C 0.77772 0.28034 0.06953 0.0
O23 O 0.75831 0.26208 0.13287 0.0
C24 C 0.80986 0.13354 0.00054 0.0
O25 O 0.83017 0.14176 0.93347 0.0
O26 O 0.72034 0.20385 0.012 0.0
O27 O 0.77865 0.20959 0.88607 0.0
O28 O 0.81976 0.2019 0.87788 0.0
C29 C 0.70533 0.20928 0.95124 0.0
O30 O 0.72021 0.22487 0.87785 0.0
O31 O 0.78657 0.26838 0.00804 0.0
C32 C 0.89427 0.20175 0.03822 0.0
O33 O 0.87692 0.17534 0.08223 0.0
O34 O 0.88118 0.21545 0.00038 0.0
O35 O 0.8288 0.22865 0.08901 0.0
O36 O 0.77834 0.20702 0.11986 0.0
O37 O 0.80777 0.15472 0.04385 0.0
C38 C 0.79729 0.20385 0.84111 0.0
C39 C 0.80616 0.21481 0.14428 0.0
Zn40 Zn 0.53828 0.76764 0.98704 0.0
Zn41 Zn 0.64022 0.82592 0.98276 0.0
C42 C 0.50242 0.79376 0.0721 0.0
O43 O 0.51081 0.78726 0.15014 0.0
C44 C 0.69162 0.81245 0.97661 0.0
O45 O 0.70484 0.8348 0.03793 0.0
O46 O 0.50653 0.72065 -0.00103 0.0
O47 O 0.55388 0.77574 0.85626 0.0
O48 O 0.59932 0.80422 0.9192 0.0
C49 C 0.48151 0.71153 0.95182 0.0
O50 O 0.47902 0.73208 0.90127 0.0
O51 O 0.5127 0.78884 -0.00142 0.0
C52 C 0.68314 0.88859 0.04237 0.0
O53 O 0.68428 0.87256 0.11186 0.0
O54 O 0.66519 0.87393 0.97512 0.0
O55 O 0.62605 0.81324 0.1118 0.0
O56 O 0.5741 0.78472 0.08571 0.0
O57 O 0.66515 0.80574 0.94233 0.0
C58 C 0.58339 0.79377 0.84704 0.0
C59 C 0.59772 0.79627 0.14061 0.0
Zn60 Zn 0.79737 0.55194 0.99147 0.0
Zn61 Zn 0.80109 0.62347 0.98332 0.0
C62 C 0.73874 0.50174 0.05476 0.0
O63 O 0.75856 0.50084 0.11313 0.0
C64 C 0.86878 0.67035 0.99309 0.0
O65 O 0.85981 0.68954 0.9617 0.0
O66 O 0.81525 0.52281 -0.00118 0.0
O67 O 0.81118 0.57325 0.87071 0.0
O68 O 0.79162 0.60513 0.85997 0.0
C69 C 0.80092 0.49695 0.95542 0.0
O70 O 0.77628 0.49075 0.90487 0.0
O71 O 0.74937 0.52318 -0.00552 0.0
C72 C 0.79548 0.67554 0.05325 0.0
O73 O 0.80932 0.67227 0.12548 0.0
O74 O 0.79025 0.65786 0.98467 0.0
O75 O 0.77568 0.59344 0.08053 0.0
O76 O 0.81084 0.57897 0.10279 0.0
O77 O 0.84817 0.64171 0.00762 0.0
C78 C 0.80301 0.58962 0.82419 0.0
C79 C 0.79274 0.58818 0.13369 0.0
Zn80 Zn 0.23918 0.77678 -0.00332 0.0
Zn81 Zn 0.17547 0.81161 0.00839 0.0
C82 C 0.24081 0.72221 0.02465 0.0
O83 O 0.26506 0.74279 0.07299 0.0
C84 C 0.19309 0.87651 -0.00065 0.0
O85 O 0.17522 0.86731 0.92611 0.0
O86 O 0.28636 0.7991 0.97765 0.0
O87 O 0.21739 0.79159 0.90395 0.0
O88 O 0.18531 0.81 0.87577 0.0
C89 C 0.2978 0.79497 0.90506 0.0
O90 O 0.27878 0.7795 0.83718 0.0
O91 O 0.22413 0.73098 0.98146 0.0
C92 C 0.11401 0.79681 0.07835 0.0
O93 O 0.13084 0.82242 0.12665 0.0
O94 O 0.12797 0.78704 0.02665 0.0
O95 O 0.1997 0.79515 0.06924 0.0
O96 O 0.23107 0.78193 0.12987 0.0
O97 O 0.19555 0.85649 0.04694 0.0
C98 C 0.20387 0.80075 0.84749 0.0
C99 C 0.2113 0.79092 0.14069 0.0
Zn100 Zn 0.46084 0.24494 -0.005 0.0
Zn101 Zn 0.38027 0.17776 -0.00476 0.0
C102 C 0.50199 0.21954 0.0326 0.0
O103 O 0.50415 0.23113 0.11445 0.0
C104 C 0.33871 0.20218 0.9917 0.0
O105 O 0.32945 0.18514 0.91713 0.0
O106 O 0.49347 0.29122 0.00917 0.0
O107 O 0.43728 0.24026 0.87849 0.0
O108 O 0.39497 0.19201 0.86834 0.0
C109 C 0.52034 0.30349 0.97092 0.0
O110 O 0.52717 0.28598 0.91949 0.0
O111 O 0.48432 0.22182 0.97374 0.0
C112 C 0.32083 0.11963 0.03224 0.0
O113 O 0.31334 0.13769 0.07821 0.0
O114 O 0.3472 0.13163 0.99115 0.0
O115 O 0.41295 0.18098 0.08241 0.0
O116 O 0.43751 0.23146 0.11314 0.0
O117 O 0.36066 0.20283 0.0395 0.0
C118 C 0.41498 0.21818 0.83304 0.0
C119 C 0.42268 0.20311 0.1396 0.0
H120 H 0.33479 0.23713 0.07588 0.0
C121 C 0.32442 0.22099 0.01892 0.0
H122 H 0.2883 0.20253 0.91893 0.0
H123 H 0.20637 0.24725 0.14118 0.0
H124 H 0.17844 0.1919 0.18134 0.0
H125 H 0.19977 0.15786 0.13901 0.0
H126 H 0.24916 0.17894 0.05602 0.0
C127 C 0.29959 0.21916 0.97431 0.0
C128 C 0.28664 0.23963 -0.00073 0.0
C129 C 0.25785 0.22698 0.04794 0.0
C130 C 0.24565 0.24665 0.07282 0.0
C131 C 0.21678 0.23339 0.12113 0.0
C132 C 0.2005 0.20166 0.14449 0.0
C133 C 0.21251 0.18249 0.1206 0.0
C134 C 0.24086 0.19487 0.07297 0.0
H135 H 0.23476 0.30245 0.94416 0.0
C136 C 0.2367 0.30984 0.01466 0.0
H137 H 0.25131 0.30609 0.14709 0.0
H138 H 0.34069 0.27049 0.8979 0.0
H139 H 0.36851 0.32568 0.85706 0.0
H140 H 0.34862 0.36035 0.90563 0.0
H141 H 0.30065 0.33999 -0.0056 0.0
C142 C 0.24962 0.29948 0.07598 0.0
C143 C 0.26218 0.27887 0.04852 0.0
C144 C 0.29084 0.29146 -0.00107 0.0
C145 C 0.30284 0.2717 0.97324 0.0
C146 C 0.33091 0.2846 0.92108 0.0
C147 C 0.34707 0.31623 0.89686 0.0
C148 C 0.33584 0.33573 0.92402 0.0
C149 C 0.30814 0.32366 0.97466 0.0
H150 H 0.09988 0.34025 0.97078 0.0
C151 C 0.1068 0.32274 0.98102 0.0
H152 H 0.09113 0.27484 0.00416 0.0
H153 H 0.96143 0.24238 0.18175 0.0
H154 H 0.99062 0.24097 0.31267 0.0
H155 H 0.04725 0.25807 0.30091 0.0
H156 H 0.07507 0.27711 0.15832 0.0
C157 C 0.08437 0.29234 0.99132 0.0
C158 C 0.05003 0.28187 -0.00337 0.0
C159 C 0.03382 0.26995 0.07994 0.0
C160 C 1.00089 0.25908 0.08599 0.0
C161 C 0.98594 0.2493 0.17173 0.0
C162 C 1.00254 0.24876 0.24796 0.0
C163 C 0.03443 0.25845 0.24139 0.0
C164 C 0.05007 0.26919 0.15885 0.0
H165 H 0.93827 0.20029 0.05263 0.0
C166 C 0.92884 0.21524 0.03366 0.0
H167 H 0.93951 0.26046 0.99191 0.0
H168 H 0.0735 0.30234 0.82566 0.0
H169 H 0.04433 0.30387 0.69464 0.0
H170 H 0.98719 0.28467 0.70464 0.0
H171 H 0.95888 0.26376 0.84561 0.0
C172 C 0.94882 0.24543 0.01112 0.0
C173 C 0.98382 0.25885 0.00753 0.0
C174 C 1.00018 0.27144 0.9247 0.0
C175 C 0.03326 0.28282 0.91909 0.0
C176 C 0.04865 0.29416 0.8346 0.0
C177 C 0.03212 0.29497 0.75852 0.0
C178 C 0.99995 0.28414 0.76413 0.0
C179 C 0.984 0.27229 0.84577 0.0
H180 H 0.76617 0.09374 0.05733 0.0
C181 C 0.7876 0.09996 0.0197 0.0
H182 H 0.81398 0.08371 0.9501 0.0
H183 H 0.69779 0.95758 0.16634 0.0
H184 H 0.71813 0.98685 0.30665 0.0
H185 H 0.76289 0.04147 0.30533 0.0
H186 H 0.78681 0.06743 0.16352 0.0
C187 C 0.79254 0.07721 0.98806 0.0
C188 C 0.76789 0.04306 0.99192 0.0
C189 C 0.75562 0.02757 0.07604 0.0
C190 C 0.73148 0.99522 0.07729 0.0
C191 C 0.71759 0.98134 0.16166 0.0
C192 C 0.72881 0.998 0.24277 0.0
C193 C 0.75389 0.0288 0.24199 0.0
C194 C 0.76721 0.04353 0.15987 0.0
H195 H 0.72566 0.93242 0.08435 0.0
C196 C 0.70459 0.92299 0.04196 0.0
H197 H 0.67756 0.93356 0.95328 0.0
H198 H 0.78481 0.06553 0.81815 0.0
H199 H 0.76757 0.0352 0.67917 0.0
H200 H 0.7299 0.97809 0.68257 0.0
H201 H 0.7088 0.95111 0.82492 0.0
C202 C 0.69864 0.94286 -0.00448 0.0
C203 C 0.72164 0.97758 -0.00497 0.0
C204 C 0.7344 0.99296 0.91119 0.0
C205 C 0.75704 0.02574 0.90951 0.0
C206 C 0.76835 0.04057 0.8242 0.0
C207 C 0.75853 0.02345 0.74354 0.0
C208 C 0.73727 0.99133 0.74544 0.0
C209 C 0.72526 0.97615 0.82791 0.0
H210 H 0.79167 0.71464 0.11201 0.0
C211 C 0.78543 0.69911 0.05354 0.0
H212 H 0.76206 0.68607 0.92647 0.0
H213 H 0.69938 0.7618 0.13701 0.0
H214 H 0.67864 0.71914 0.24591 0.0
H215 H 0.6926 0.67772 0.23638 0.0
H216 H 0.7276 0.67891 0.11863 0.0
C217 C 0.76796 0.70106 0.98604 0.0
C218 C 0.75729 0.72447 0.98832 0.0
C219 C 0.73612 0.7229 0.05662 0.0
C220 C 0.72734 0.74626 0.06064 0.0
C221 C 0.70667 0.74455 0.13042 0.0
C222 C 0.69452 0.72015 0.19332 0.0
C223 C 0.70243 0.69687 0.18804 0.0
C224 C 0.72284 0.69802 0.12048 0.0
H225 H 0.69239 0.77302 0.90818 0.0
C226 C 0.70496 0.79228 0.95605 0.0
H227 H 0.74215 0.81343 0.05208 0.0
H228 H 0.7966 0.73332 0.84519 0.0
H229 H 0.81453 0.77424 0.73103 0.0
H230 H 0.79801 0.81384 0.73611 0.0
H231 H 0.76352 0.81283 0.85586 0.0
C232 C 0.73007 0.79512 0.00131 0.0
C233 C 0.73882 0.77046 -0.00528 0.0
C234 C 0.75871 0.77123 0.92405 0.0
C235 C 0.76804 0.74824 0.92091 0.0
C236 C 0.78846 0.74994 0.85044 0.0
C237 C 0.799 0.77336 0.78455 0.0
C238 C 0.78972 0.79568 0.78742 0.0
C239 C 0.7699 0.79481 0.8564 0.0
H240 H 0.0685 0.79044 0.12579 0.0
C241 C 0.07914 0.78123 0.0797 0.0
H242 H 0.07088 0.74915 0.97345 0.0
H243 H 0.92967 0.69733 0.17051 0.0
H244 H 0.95262 0.68738 0.30314 0.0
H245 H 0.00882 0.70225 0.3054 0.0
H246 H 0.04257 0.72788 0.17578 0.0
C247 C 0.06047 0.7576 0.02286 0.0
C248 C 0.02567 0.74506 0.01804 0.0
C249 C 0.00584 0.72858 0.09251 0.0
C250 C 0.97297 0.71835 0.08912 0.0
C251 C 0.95434 0.70411 0.16726 0.0
C252 C 0.96729 0.69851 0.24431 0.0
C253 C 0.99896 0.707 0.24576 0.0
C254 C 0.01812 0.72188 0.17102 0.0
H255 H 0.90949 0.66393 0.02087 0.0
C256 C 0.90269 0.68137 0.00747 0.0
H257 H 0.91838 0.72941 0.98833 0.0
H258 H 0.05695 0.77617 0.86369 0.0
H259 H 0.03369 0.78425 0.72843 0.0
H260 H 0.97628 0.76383 0.71887 0.0
H261 H 0.94184 0.73548 0.84469 0.0
C262 C 0.92508 0.71199 0.00325 0.0
C263 C 0.95959 0.723 0.00907 0.0
C264 C 0.97938 0.73896 0.93394 0.0
C265 C 0.01242 0.75016 0.93867 0.0
C266 C 0.03165 0.76671 0.86339 0.0
C267 C 0.01862 0.77158 0.78527 0.0
C268 C 0.98631 0.76013 0.77995 0.0
C269 C 0.96681 0.74397 0.853 0.0
H270 H 0.23163 0.91643 0.07289 0.0
C271 C 0.21366 0.91004 0.02058 0.0
H272 H 0.19507 0.92643 0.91956 0.0
H273 H 0.29191 0.05176 0.17729 0.0
H274 H 0.2582 0.02367 0.30488 0.0
H275 H 0.21312 0.96967 0.28616 0.0
H276 H 0.2021 0.9432 0.14048 0.0
C277 C 0.21231 0.93264 0.9739 0.0
C278 C 0.23723 0.96624 0.9847 0.0
C279 C 0.24181 0.98204 0.06892 0.0
C280 C 0.26641 0.01391 0.07819 0.0
C281 C 0.27236 0.02824 0.16503 0.0
C282 C 0.25338 0.01227 0.23914 0.0
C283 C 0.22811 0.98182 0.2287 0.0
C284 C 0.22221 0.96681 0.14473 0.0
H285 H 0.27401 0.077 0.04737 0.0
C286 C 0.2985 0.08554 0.02889 0.0
H287 H 0.33223 0.07344 0.9888 0.0
H288 H 0.23744 0.94182 0.8173 0.0
H289 H 0.27108 0.97005 0.69003 0.0
H290 H 0.31065 0.02655 0.70228 0.0
H291 H 0.3172 0.05497 0.84242 0.0
C292 C 0.30775 0.06499 0.00703 0.0
C293 C 0.28471 0.03061 0.00142 0.0
C294 C 0.2806 0.01461 0.91791 0.0
C295 C 0.25713 0.98229 0.90995 0.0
C296 C 0.25432 0.96657 0.8267 0.0
C297 C 0.27357 0.98247 0.753 0.0
C298 C 0.29588 0.01425 0.75997 0.0
C299 C 0.29942 0.03027 0.8411 0.0
H300 H 0.25473 0.68658 0.03212 0.0
C301 C 0.23509 0.69015 0.01645 0.0
H302 H 0.18727 0.66899 0.97639 0.0
H303 H 0.19186 0.55899 0.76753 0.0
H304 H 0.17268 0.58035 0.6518 0.0
H305 H 0.16774 0.62675 0.6838 0.0
H306 H 0.18162 0.65187 0.83156 0.0
C307 C 0.20701 0.66559 0.99186 0.0
C308 C 0.20355 0.6341 0.97832 0.0
C309 C 0.19524 0.61975 0.89141 0.0
C310 C 0.19854 0.59331 0.87248 0.0
C311 C 0.19016 0.57938 0.78511 0.0
C312 C 0.17907 0.59135 0.71814 0.0
C313 C 0.17626 0.61746 0.73618 0.0
C314 C 0.18434 0.63168 0.82148 0.0
H315 H 0.18125 0.5219 -0.0028 0.0
C316 C 0.20058 0.52739 0.95075 0.0
H317 H 0.23658 0.56228 0.86898 0.0
H318 H 0.21158 0.64978 0.15874 0.0
H319 H 0.23033 0.62833 0.27563 0.0
H320 H 0.24175 0.58627 0.23918 0.0
H321 H 0.23362 0.56482 0.08695 0.0
C322 C 0.21739 0.55643 0.91623 0.0
C323 C 0.21035 0.5815 0.94018 0.0
C324 C 0.21664 0.59456 0.02904 0.0
C325 C 0.21204 0.62013 0.04884 0.0
C326 C 0.21642 0.63149 0.13924 0.0
C327 C 0.22688 0.61921 0.20704 0.0
C328 C 0.23317 0.59544 0.18659 0.0
C329 C 0.2282 0.58319 0.0988 0.0
H330 H 0.5225 0.2019 0.93208 0.0
C331 C 0.52375 0.20896 0.0027 0.0
H332 H 0.54994 0.22001 0.12509 0.0
H333 H 0.61744 0.14838 0.94078 0.0
H334 H 0.57255 0.10161 0.00369 0.0
H335 H 0.52806 0.10402 0.07294 0.0
H336 H 0.52808 0.15328 0.07884 0.0
C337 C 0.54747 0.21188 0.05532 0.0
C338 C 0.5742 0.2101 0.0146 0.0
C339 C 0.57409 0.18136 0.01322 0.0
C340 C 0.60015 0.18018 0.9755 0.0
C341 C 0.59884 0.15087 0.9717 0.0
C342 C 0.57308 0.12379 0.00684 0.0
C343 C 0.548 0.12513 0.04566 0.0
C344 C 0.54831 0.15351 0.04872 0.0
H345 H 0.66409 0.19466 0.0396 0.0
C346 C 0.67303 0.20244 0.97129 0.0
H347 H 0.66484 0.21664 0.84407 0.0
H348 H 0.581 0.26865 0.00298 0.0
H349 H 0.62552 0.31535 0.93942 0.0
H350 H 0.67137 0.31377 0.87725 0.0
H351 H 0.67283 0.26549 0.87772 0.0
C352 C 0.65574 0.20811 0.91173 0.0
C353 C 0.62666 0.208 0.94161 0.0
C354 C 0.62626 0.23656 0.94049 0.0
C355 C 0.59999 0.23758 0.97705 0.0
C356 C 0.6003 0.26647 0.97597 0.0
C357 C 0.62576 0.29353 0.93982 0.0
C358 C 0.65154 0.29262 0.90478 0.0
C359 C 0.652 0.26463 0.9053 0.0
H360 H 0.43167 0.67594 0.93133 0.0
C361 C 0.45397 0.67932 0.95727 0.0
H362 H 0.47688 0.65744 0.01771 0.0
H363 H 0.34946 0.54978 0.19398 0.0
H364 H 0.38511 0.57057 0.32339 0.0
H365 H 0.43922 0.61577 0.30583 0.0
H366 H 0.45815 0.64029 0.15901 0.0
C367 C 0.45484 0.65445 0.99103 0.0
C368 C 0.42496 0.62316 -0.00139 0.0
C369 C 0.41437 0.60905 0.08504 0.0
C370 C 0.38295 0.58329 0.09555 0.0
C371 C 0.37291 0.56972 0.18266 0.0
C372 C 0.39315 0.58134 0.25737 0.0
C373 C 0.42363 0.60676 0.24745 0.0
C374 C 0.4342 0.62064 0.16261 0.0
H375 H 0.32348 0.51072 0.96872 0.0
C376 C 0.31139 0.52017 0.00769 0.0
H377 H 0.31556 0.55954 0.07683 0.0
H378 H 0.44131 0.63732 0.82031 0.0
H379 H 0.4064 0.6154 0.68954 0.0
H380 H 0.35044 0.57431 0.709 0.0
H381 H 0.32928 0.55427 0.85844 0.0
C382 C 0.3275 0.55024 0.03642 0.0
C383 C 0.36203 0.57182 0.02008 0.0
C384 C 0.37359 0.58395 0.93211 0.0
C385 C 0.4054 0.60895 0.92123 0.0
C386 C 0.41691 0.6195 0.83245 0.0
C387 C 0.39722 0.60694 0.7569 0.0
C388 C 0.36575 0.58372 0.76785 0.0
C389 C 0.35391 0.57232 0.85423 0.0
H390 H 0.835 0.48098 0.98275 0.0
C391 C 0.81052 0.47324 0.96613 0.0
H392 H 0.76457 0.43512 0.94367 0.0
H393 H 0.78251 0.32504 0.8339 0.0
H394 H 0.76122 0.33399 0.69615 0.0
H395 H 0.75717 0.38152 0.67849 0.0
H396 H 0.77399 0.42015 0.79917 0.0
C397 C 0.78902 0.4424 0.95965 0.0
C398 C 0.79701 0.41702 0.96643 0.0
C399 C 0.78842 0.39529 0.89352 0.0
C400 C 0.79162 0.36833 0.90262 0.0
C401 C 0.78124 0.34625 0.83037 0.0
C402 C 0.7689 0.35106 0.7507 0.0
C403 C 0.76656 0.37777 0.74083 0.0
C404 C 0.77618 0.3997 0.811 0.0
H405 H 0.77351 0.32077 0.11197 0.0
C406 C 0.78517 0.31325 0.06391 0.0
H407 H 0.81424 0.32546 0.948 0.0
H408 H 0.81368 0.45211 0.12423 0.0
H409 H 0.83977 0.44578 0.25517 0.0
H410 H 0.85175 0.40292 0.26147 0.0
H411 H 0.8366 0.36549 0.13737 0.0
C412 C 0.80321 0.33305 -0.00205 0.0
C413 C 0.80429 0.36354 0.98372 0.0
C414 C 0.81538 0.3866 0.05344 0.0
C415 C 0.81057 0.41268 0.04667 0.0
C416 C 0.81868 0.43319 0.12222 0.0
C417 C 0.83338 0.4296 0.19864 0.0
C418 C 0.83997 0.40538 0.20242 0.0
C419 C 0.83098 0.38397 0.13107 0.0
H420 H 0.33973 0.79809 0.8395 0.0
C421 C 0.33083 0.80195 0.90281 0.0
H422 H 0.33883 0.81044 0.04376 0.0
H423 H 0.42336 0.74723 0.05535 0.0
H424 H 0.37404 0.70498 0.11432 0.0
H425 H 0.32584 0.7089 0.1141 0.0
H426 H 0.32677 0.75506 0.05392 0.0
C427 C 0.34829 0.80852 0.97894 0.0
C428 C 0.37779 0.80697 0.98056 0.0
C429 C 0.37715 0.78033 0.0192 0.0
C430 C 0.40511 0.77842 0.0214 0.0
C431 C 0.40325 0.75063 0.05526 0.0
C432 C 0.37495 0.72598 0.08861 0.0
C433 C 0.34782 0.72816 0.08835 0.0
C434 C 0.34873 0.75488 0.05385 0.0
H435 H 0.46761 0.80419 0.13305 0.0
C436 C 0.47717 0.80165 0.06916 0.0
H437 H 0.47273 0.79962 0.92585 0.0
H438 H 0.38686 0.86095 0.90066 0.0
H439 H 0.43593 0.90268 0.83711 0.0
H440 H 0.48462 0.89968 0.8422 0.0
H441 H 0.48459 0.85496 0.91101 0.0
C442 C 0.46331 0.80191 0.99031 0.0
C443 C 0.43394 0.80369 0.98765 0.0
C444 C 0.43436 0.82995 0.94702 0.0
C445 C 0.40626 0.83163 0.94367 0.0
C446 C 0.40745 0.85833 0.90398 0.0
C447 C 0.43547 0.88249 0.86753 0.0
C448 C 0.46289 0.8808 0.87042 0.0
C449 C 0.46253 0.85497 0.90995 0.0
H450 H 0.70186 0.45329 0.08395 0.0
C451 C 0.70611 0.47477 0.05081 0.0
H452 H 0.68641 0.49653 0.97366 0.0
H453 H 0.57796 0.37092 0.79628 0.0
H454 H 0.60178 0.4053 0.66671 0.0
H455 H 0.64865 0.45814 0.68599 0.0
H456 H 0.67169 0.47714 0.8346 0.0
C457 C 0.68218 0.47512 0.00701 0.0
C458 C 0.65066 0.44557 -0.00339 0.0
C459 C 0.63778 0.43475 0.90855 0.0
C460 C 0.6112 0.40394 0.89695 0.0
C461 C 0.59851 0.39385 0.80859 0.0
C462 C 0.61187 0.41337 0.73367 0.0
C463 C 0.63823 0.44314 0.74457 0.0
C464 C 0.65123 0.45377 0.83063 0.0
H465 H 0.53669 0.35115 0.02525 0.0
C466 C 0.54383 0.33701 0.98664 0.0
H467 H 0.58087 0.33615 0.91669 0.0
H468 H 0.66169 0.46283 0.17572 0.0
H469 H 0.63761 0.42871 0.30594 0.0
H470 H 0.59651 0.37304 0.28489 0.0
H471 H 0.57847 0.3515 0.13436 0.0
C472 C 0.57381 0.34997 0.95724 0.0
C473 C 0.59797 0.38371 0.97276 0.0
C474 C 0.6094 0.39528 0.06145 0.0
C475 C 0.6348 0.42671 0.07344 0.0
C476 C 0.64395 0.43854 0.16285 0.0
C477 C 0.63009 0.41932 0.23809 0.0
C478 C 0.60685 0.38803 0.22625 0.0
C479 C 0.59655 0.37601 0.13919 0.0
H480 H 0.23458 0.4052 0.71529 0.0
C481 C 0.21664 0.41002 0.74069 0.0
H482 H 0.17865 0.41695 0.70607 0.0
H483 H 0.2489 0.46537 0.32443 0.0
H484 H 0.25745 0.51416 0.39039 0.0
H485 H 0.23952 0.51537 0.5461 0.0
H486 H 0.21339 0.46787 0.63691 0.0
C487 C 0.1964 0.41154 0.68295 0.0
C488 C 0.20065 0.40918 0.58494 0.0
C489 C 0.21469 0.43692 0.53225 0.0
C490 C 0.22396 0.436 0.44189 0.0
C491 C 0.23999 0.46446 0.3922 0.0
C492 C 0.24537 0.4927 0.4296 0.0
C493 C 0.23537 0.4934 0.51731 0.0
C494 C 0.2204 0.46595 0.56865 0.0
H495 H 0.18811 0.41828 0.27394 0.0
C496 C 0.20419 0.4111 0.2474 0.0
H497 H 0.23752 0.39738 0.28029 0.0
H498 H 0.17213 0.35151 0.66755 0.0
H499 H 0.16343 0.30261 0.60156 0.0
H500 H 0.1794 0.30092 0.44374 0.0
H501 H 0.20409 0.34807 0.35108 0.0
C502 C 0.22138 0.40475 0.30475 0.0
C503 C 0.21745 0.40692 0.40335 0.0
C504 C 0.20359 0.37922 0.45632 0.0
C505 C 0.19484 0.38028 0.54732 0.0
C506 C 0.18002 0.35213 0.59858 0.0
C507 C 0.17467 0.32388 0.56133 0.0
C508 C 0.1836 0.32292 0.47243 0.0
C509 C 0.19774 0.35015 0.41999 0.0
H510 H 0.77297 0.20134 0.71312 0.0
C511 C 0.79345 0.20141 0.74202 0.0
H512 H 0.83576 0.20141 0.71353 0.0
H513 H 0.78969 0.14734 0.315 0.0
H514 H 0.79303 0.10465 0.3859 0.0
H515 H 0.80484 0.10616 0.54959 0.0
H516 H 0.81351 0.15038 0.64326 0.0
C517 C 0.81525 0.20168 0.68652 0.0
C518 C 0.81162 0.20231 0.58662 0.0
C519 C 0.807 0.17643 0.53312 0.0
C520 C 0.8001 0.17548 0.439 0.0
C521 C 0.79511 0.14922 0.38687 0.0
C522 C 0.79691 0.12456 0.42672 0.0
C523 C 0.80356 0.12542 0.51889 0.0
C524 C 0.80849 0.15094 0.57188 0.0
H525 H 0.8372 0.21958 0.25931 0.0
C526 C 0.8128 0.21104 0.23924 0.0
H527 H 0.76548 0.19131 0.28394 0.0
H528 H 0.82575 0.25842 0.66592 0.0
H529 H 0.82195 0.30073 0.59509 0.0
H530 H 0.80654 0.29743 0.43392 0.0
H531 H 0.79536 0.25199 0.34248 0.0
C532 C 0.7899 0.19926 0.30196 0.0
C533 C 0.79786 0.20039 0.39924 0.0
C534 C 0.80338 0.2267 0.45199 0.0
C535 C 0.81107 0.22805 0.54545 0.0
C536 C 0.8183 0.25545 0.5956 0.0
C537 C 0.81655 0.28009 0.55551 0.0
C538 C 0.80796 0.27827 0.46476 0.0
C539 C 0.80158 0.25203 0.4131 0.0
H540 H 0.6235 0.81713 0.75065 0.0
C541 C 0.59834 0.80031 0.75647 0.0
H542 H 0.556 0.76901 0.6874 0.0
H543 H 0.61886 0.85818 0.33539 0.0
H544 H 0.61415 0.89771 0.42077 0.0
H545 H 0.59983 0.88989 0.5831 0.0
H546 H 0.59042 0.84272 0.6613 0.0
C547 C 0.58097 0.78651 0.68152 0.0
C548 C 0.59431 0.79369 0.58812 0.0
C549 C 0.59974 0.82147 0.54357 0.0
C550 C 0.60758 0.8258 0.4496 0.0
C551 C 0.61274 0.85367 0.40657 0.0
C552 C 0.6101 0.87653 0.45473 0.0
C553 C 0.60205 0.87214 0.54615 0.0
C554 C 0.59677 0.84494 0.5903 0.0
H555 H 0.56809 0.77527 0.26276 0.0
C556 C 0.5921 0.79097 0.23942 0.0
H557 H 0.63952 0.82256 0.27873 0.0
H558 H 0.58869 0.73948 0.65522 0.0
H559 H 0.59545 0.70093 0.57096 0.0
H560 H 0.609 0.70848 0.40801 0.0
H561 H 0.6157 0.75451 0.32809 0.0
C562 C 0.6156 0.80589 0.30066 0.0
C563 C 0.60942 0.80213 0.40012 0.0
C564 C 0.60565 0.77517 0.4457 0.0
C565 C 0.59799 0.7709 0.53976 0.0
C566 C 0.59428 0.74372 0.58366 0.0
C567 C 0.59821 0.7215 0.53621 0.0
C568 C 0.60584 0.72575 0.44445 0.0
C569 C 0.60953 0.75221 0.39933 0.0
H570 H 0.82218 0.58229 0.69862 0.0
C571 C 0.80654 0.58988 0.72597 0.0
H572 H 0.77394 0.60473 0.69592 0.0
H573 H 0.83251 0.65305 0.30531 0.0
H574 H 0.8391 0.70057 0.3754 0.0
H575 H 0.82511 0.70082 0.53624 0.0
H576 H 0.8044 0.65359 0.62766 0.0
C577 C 0.78973 0.59717 0.66976 0.0
C578 C 0.79331 0.59584 0.57059 0.0
C579 C 0.80516 0.6237 0.51867 0.0
C580 C 0.81297 0.62352 0.42613 0.0
C581 C 0.82551 0.65175 0.37557 0.0
C582 C 0.82963 0.67924 0.41513 0.0
C583 C 0.8218 0.67938 0.5057 0.0
C584 C 0.8099 0.65207 0.5574 0.0
H585 H 0.77337 0.59769 0.25559 0.0
C586 C 0.79199 0.59384 0.23051 0.0
H587 H 0.83159 0.5896 0.26491 0.0
H588 H 0.76399 0.53671 0.64589 0.0
H589 H 0.75736 0.48927 0.57575 0.0
H590 H 0.77476 0.48996 0.41815 0.0
H591 H 0.79826 0.53795 0.32961 0.0
C592 C 0.81312 0.59393 0.28818 0.0
C593 C 0.80856 0.59541 0.38638 0.0
C594 C 0.79626 0.56747 0.43782 0.0
C595 C 0.78757 0.56739 0.52941 0.0
C596 C 0.77277 0.53854 0.57751 0.0
C597 C 0.76842 0.51101 0.53765 0.0
C598 C 0.77812 0.51138 0.4489 0.0
C599 C 0.79162 0.53913 0.39892 0.0
H600 H 0.1851 0.80332 0.23891 0.0
C601 C 0.20405 0.79814 0.23191 0.0
H602 H 0.23923 0.79289 0.29919 0.0
H603 H 0.24151 0.8649 0.65705 0.0
H604 H 0.28391 0.90897 0.57602 0.0
H605 H 0.29351 0.90431 0.41381 0.0
H606 H 0.26067 0.85557 0.33132 0.0
C607 C 0.21975 0.79729 0.30601 0.0
C608 C 0.21128 0.80153 0.39988 0.0
C609 C 0.23062 0.83011 0.44703 0.0
C610 C 0.22513 0.83279 0.54067 0.0
C611 C 0.24477 0.86162 0.58603 0.0
C612 C 0.26915 0.88707 0.54032 0.0
C613 C 0.27456 0.88444 0.44897 0.0
C614 C 0.25561 0.85634 0.40251 0.0
H615 H 0.22487 0.79149 0.7271 0.0
C616 C 0.20939 0.80002 0.74892 0.0
H617 H 0.18 0.81761 0.70619 0.0
H618 H 0.16929 0.74356 0.32952 0.0
H619 H 0.12599 0.70024 0.40939 0.0
H620 H 0.11591 0.70528 0.57088 0.0
H621 H 0.14932 0.75369 0.65376 0.0
C622 C 0.19558 0.80903 0.68608 0.0
C623 C 0.20046 0.8068 0.58713 0.0
C624 C 0.18032 0.77865 0.53911 0.0
C625 C 0.18586 0.77591 0.44556 0.0
C626 C 0.16596 0.74713 0.40019 0.0
C627 C 0.14102 0.72202 0.44528 0.0
C628 C 0.13536 0.72485 0.53623 0.0
C629 C 0.15473 0.75275 0.583 0.0
H630 H 0.43581 0.24229 0.70456 0.0
C631 C 0.41512 0.22223 0.73419 0.0
H632 H 0.37179 0.18053 0.70799 0.0
H633 H 0.42578 0.26472 0.32105 0.0
H634 H 0.41672 0.30329 0.39464 0.0
H635 H 0.39742 0.29569 0.55247 0.0
H636 H 0.38731 0.24941 0.63768 0.0
C637 C 0.39231 0.20101 0.67955 0.0
C638 C 0.39752 0.20259 0.57986 0.0
C639 C 0.40231 0.22922 0.53001 0.0
C640 C 0.41296 0.23331 0.43873 0.0
C641 C 0.41794 0.26039 0.3909 0.0
C642 C 0.41267 0.28271 0.43217 0.0
C643 C 0.40185 0.27846 0.52103 0.0
C644 C 0.39645 0.25195 0.56945 0.0
H645 H 0.39127 0.17376 0.24986 0.0
C646 C 0.41281 0.19574 0.23466 0.0
H647 H 0.45141 0.23741 0.28597 0.0
H648 H 0.38687 0.14697 0.65348 0.0
H649 H 0.39626 0.10843 0.58107 0.0
H650 H 0.41744 0.11674 0.42535 0.0
H651 H 0.42887 0.16338 0.34093 0.0
C652 C 0.42982 0.21555 0.30182 0.0
C653 C 0.41821 0.21043 0.39694 0.0
C654 C 0.41252 0.18328 0.4461 0.0
C655 C 0.4014 0.17903 0.53705 0.0
C656 C 0.39557 0.15161 0.5845 0.0
C657 C 0.40091 0.12925 0.5438 0.0
C658 C 0.41274 0.13389 0.45607 0.0
C659 C 0.41881 0.16065 0.40784 0.0
loop_
_geom_bond_atom_site_label_1
_geom_bond_atom_site_label_2
_geom_bond_distance
_geom_bond_site_symmetry_2
_ccdc_geom_bond_type
Zn0 O6 1.969 . S
Zn0 O7 1.965 1_554 S
Zn0 O11 2.024 1_554 S
Zn0 O16 1.969 . S
Zn1 O8 1.969 . S
Zn1 O14 1.969 . S
Zn1 O15 1.965 1_556 S
Zn1 O17 2.024 1_556 S
C2 O3 1.229 . S
C2 O11 1.058 1_554 S
O3 C2 1.229 . S
C4 O5 1.229 . S
C4 O17 1.058 1_556 S
O5 C4 1.229 . S
O6 Zn0 1.969 . S
O6 C9 1.267 1_554 S
O7 Zn0 1.965 1_556 S
O7 C18 1.260 . S
O8 Zn1 1.969 . S
O8 C18 1.258 . S
C9 O6 1.267 1_556 S
C9 O10 1.228 . S
O10 C9 1.228 . S
O11 Zn0 2.024 1_556 S
O11 C2 1.058 1_556 S
C12 O13 1.228 . S
C12 O14 1.267 1_554 S
O13 C12 1.228 . S
O14 Zn1 1.969 . S
O14 C12 1.267 1_556 S
O15 Zn1 1.965 1_554 S
O15 C19 1.260 . S
O16 Zn0 1.969 . S
O16 C19 1.258 . S
O17 Zn1 2.024 1_554 S
O17 C4 1.058 1_554 S
C18 O7 1.260 . S
C18 O8 1.258 . S
C19 O15 1.260 . S
C19 O16 1.258 . S
Zn20 O26 1.969 . S
Zn20 O27 1.965 1_554 S
Zn20 O31 2.024 1_554 S
Zn20 O36 1.969 . S
Zn21 O28 1.969 . S
Zn21 O34 1.969 . S
Zn21 O35 1.965 1_556 S
Zn21 O37 2.024 1_556 S
C22 O23 1.229 . S
C22 O31 1.058 1_554 S
O23 C22 1.229 . S
C24 O25 1.229 . S
C24 O37 1.058 1_556 S
O25 C24 1.229 . S
O26 Zn20 1.969 . S
O26 C29 1.267 1_554 S
O27 Zn20 1.965 1_556 S
O27 C38 1.260 . S
O28 Zn21 1.969 . S
O28 C38 1.258 . S
C29 O26 1.267 1_556 S
C29 O30 1.228 . S
O30 C29 1.228 . S
O31 Zn20 2.024 1_556 S
O31 C22 1.058 1_556 S
C32 O33 1.228 . S
C32 O34 1.267 1_554 S
O33 C32 1.228 . S
O34 Zn21 1.969 . S
O34 C32 1.267 1_556 S
O35 Zn21 1.965 1_554 S
O35 C39 1.260 . S
O36 Zn20 1.969 . S
O36 C39 1.258 . S
O37 Zn21 2.024 1_554 S
O37 C24 1.058 1_554 S
C38 O27 1.260 . S
C38 O28 1.258 . S
C39 O35 1.260 . S
C39 O36 1.258 . S
Zn40 O46 1.969 . S
Zn40 O47 1.965 1_554 S
Zn40 O51 2.024 1_554 S
Zn40 O56 1.969 . S
Zn41 O48 1.969 . S
Zn41 O54 1.969 . S
Zn41 O55 1.965 1_556 S
Zn41 O57 2.024 1_556 S
C42 O43 1.229 . S
C42 O51 1.058 1_554 S
O43 C42 1.229 . S
C44 O45 1.229 . S
C44 O57 1.058 1_556 S
O45 C44 1.229 . S
O46 Zn40 1.969 . S
O46 C49 1.267 1_554 S
O47 Zn40 1.965 1_556 S
O47 C58 1.260 . S
O48 Zn41 1.969 . S
O48 C58 1.258 . S
C49 O46 1.267 1_556 S
C49 O50 1.228 . S
O50 C49 1.228 . S
O51 Zn40 2.024 1_556 S
O51 C42 1.058 1_556 S
C52 O53 1.228 . S
C52 O54 1.267 1_554 S
O53 C52 1.228 . S
O54 Zn41 1.969 . S
O54 C52 1.267 1_556 S
O55 Zn41 1.965 1_554 S
O55 C59 1.260 . S
O56 Zn40 1.969 . S
O56 C59 1.258 . S
O57 Zn41 2.024 1_554 S
O57 C44 1.058 1_554 S
C58 O47 1.260 . S
C58 O48 1.258 . S
C59 O55 1.260 . S
C59 O56 1.258 . S
Zn60 O66 1.969 . S
Zn60 O67 1.965 1_554 S
Zn60 O71 2.024 1_554 S
Zn60 O76 1.969 . S
Zn61 O68 1.969 . S
Zn61 O74 1.969 . S
Zn61 O75 1.965 1_556 S
Zn61 O77 2.024 1_556 S
C62 O63 1.229 . S
C62 O71 1.058 1_554 S
O63 C62 1.229 . S
C64 O65 1.229 . S
C64 O77 1.058 1_556 S
O65 C64 1.229 . S
O66 Zn60 1.969 . S
O66 C69 1.267 1_554 S
O67 Zn60 1.965 1_556 S
O67 C78 1.260 . S
O68 Zn61 1.969 . S
O68 C78 1.258 . S
C69 O66 1.267 1_556 S
C69 O70 1.228 . S
O70 C69 1.228 . S
O71 Zn60 2.024 1_556 S
O71 C62 1.058 1_556 S
C72 O73 1.228 . S
C72 O74 1.267 1_554 S
O73 C72 1.228 . S
O74 Zn61 1.969 . S
O74 C72 1.267 1_556 S
O75 Zn61 1.965 1_554 S
O75 C79 1.260 . S
O76 Zn60 1.969 . S
O76 C79 1.258 . S
O77 Zn61 2.024 1_554 S
O77 C64 1.058 1_554 S
C78 O67 1.260 . S
C78 O68 1.258 . S
C79 O75 1.260 . S
C79 O76 1.258 . S
Zn80 O86 1.969 . S
Zn80 O87 1.965 1_554 S
Zn80 O91 2.024 1_554 S
Zn80 O96 1.969 . S
Zn81 O88 1.969 . S
Zn81 O94 1.969 . S
Zn81 O95 1.965 1_556 S
Zn81 O97 2.024 1_556 S
C82 O83 1.229 . S
C82 O91 1.058 1_554 S
O83 C82 1.229 . S
C84 O85 1.229 . S
C84 O97 1.058 1_556 S
O85 C84 1.229 . S
O86 Zn80 1.969 . S
O86 C89 1.267 1_554 S
O87 Zn80 1.965 1_556 S
O87 C98 1.260 . S
O88 Zn81 1.969 . S
O88 C98 1.258 . S
C89 O86 1.267 1_556 S
C89 O90 1.228 . S
O90 C89 1.228 . S
O91 Zn80 2.024 1_556 S
O91 C82 1.058 1_556 S
C92 O93 1.228 . S
C92 O94 1.267 1_554 S
O93 C92 1.228 . S
O94 Zn81 1.969 . S
O94 C92 1.267 1_556 S
O95 Zn81 1.965 1_554 S
O95 C99 1.260 . S
O96 Zn80 1.969 . S
O96 C99 1.258 . S
O97 Zn81 2.024 1_554 S
O97 C84 1.058 1_554 S
C98 O87 1.260 . S
C98 O88 1.258 . S
C99 O95 1.260 . S
C99 O96 1.258 . S
Zn100 O106 1.969 . S
Zn100 O107 1.965 1_554 S
Zn100 O111 2.024 1_554 S
Zn100 O116 1.969 . S
Zn101 O108 1.969 . S
Zn101 O114 1.969 . S
Zn101 O115 1.965 1_556 S
Zn101 O117 2.024 1_556 S
C102 O103 1.229 . S
C102 O111 1.058 1_554 S
O103 C102 1.229 . S
C104 O105 1.229 . S
C104 O117 1.058 1_556 S
O105 C104 1.229 . S
O106 Zn100 1.969 . S
O106 C109 1.267 1_554 S
O107 Zn100 1.965 1_556 S
O107 C118 1.260 . S
O108 Zn101 1.969 . S
O108 C118 1.258 . S
C109 O106 1.267 1_556 S
C109 O110 1.228 . S
O110 C109 1.228 . S
O111 Zn100 2.024 1_556 S
O111 C102 1.058 1_556 S
C112 O113 1.228 . S
C112 O114 1.267 1_554 S
O113 C112 1.228 . S
O114 Zn101 1.969 . S
O114 C112 1.267 1_556 S
O115 Zn101 1.965 1_554 S
O115 C119 1.260 . S
O116 Zn100 1.969 . S
O116 C119 1.258 . S
O117 Zn101 2.024 1_554 S
O117 C104 1.058 1_554 S
C118 O107 1.260 . S
C118 O108 1.258 . S
C119 O115 1.260 . S
C119 O116 1.258 . S
H120 C121 0.951 . S
C121 H120 0.951 . S
C121 C127 1.265 1_554 S
H122 C127 0.950 . S
H123 C131 0.949 . S
H124 C132 0.950 . S
H125 C133 0.951 . S
H126 C134 0.951 . S
C127 C121 1.265 1_556 S
C127 H122 0.950 . S
C127 C128 1.478 . S
C128 C127 1.478 . S
C128 C129 1.397 1_556 S
C128 C145 1.394 . S
C129 C128 1.397 1_554 S
C129 C130 1.438 . S
C129 C134 1.429 . S
C130 C129 1.438 . S
C130 C131 1.428 . S
C130 C143 1.394 . S
C131 H123 0.949 . S
C131 C130 1.428 . S
C131 C132 1.345 . S
C132 H124 0.950 . S
C132 C131 1.345 . S
C132 C133 1.424 . S
C133 H125 0.951 . S
C133 C132 1.424 . S
C133 C134 1.347 . S
C134 H126 0.951 . S
C134 C129 1.429 . S
C134 C133 1.347 . S
H135 C136 0.951 1_556 S
C136 H135 0.951 1_554 S
C136 C142 1.265 . S
H137 C142 0.950 . S
H138 C146 0.949 . S
H139 C147 0.950 . S
H140 C148 0.951 . S
H141 C149 0.951 . S
C142 C136 1.265 . S
C142 H137 0.950 . S
C142 C143 1.478 . S
C143 C130 1.394 . S
C143 C142 1.478 . S
C143 C144 1.397 1_554 S
C144 C143 1.397 1_556 S
C144 C145 1.438 . S
C144 C149 1.429 . S
C145 C128 1.394 . S
C145 C144 1.438 . S
C145 C146 1.428 . S
C146 H138 0.949 . S
C146 C145 1.428 . S
C146 C147 1.345 . S
C147 H139 0.950 . S
C147 C146 1.345 . S
C147 C148 1.424 . S
C148 H140 0.951 . S
C148 C147 1.424 . S
C148 C149 1.347 . S
C149 H141 0.951 . S
C149 C144 1.429 . S
C149 C148 1.347 . S
H150 C151 0.951 . S
C151 H150 0.951 . S
C151 C157 1.265 1_556 S
H152 C157 0.950 . S
H153 C161 0.949 . S
H154 C162 0.950 . S
H155 C163 0.951 . S
H156 C164 0.951 . S
C157 C151 1.265 1_554 S
C157 H152 0.950 . S
C157 C158 1.478 . S
C158 C157 1.478 . S
C158 C159 1.397 . S
C158 C175 1.394 1_554 S
C159 C158 1.397 . S
C159 C160 1.438 1_455 S
C159 C164 1.429 . S
C160 C159 1.438 1_655 S
C160 C161 1.428 . S
C160 C173 1.394 . S
C161 H153 0.949 . S
C161 C160 1.428 . S
C161 C162 1.345 . S
C162 H154 0.950 . S
C162 C161 1.345 . S
C162 C163 1.424 1_655 S
C163 H155 0.951 . S
C163 C162 1.424 1_455 S
C163 C164 1.347 . S
C164 H156 0.951 . S
C164 C159 1.429 . S
C164 C163 1.347 . S
H165 C166 0.951 . S
C166 H165 0.951 . S
C166 C172 1.265 . S
H167 C172 0.950 . S
H168 C176 0.949 . S
H169 C177 0.950 . S
H170 C178 0.951 . S
H171 C179 0.951 . S
C172 C166 1.265 . S
C172 H167 0.950 . S
C172 C173 1.478 . S
C173 C160 1.394 . S
C173 C172 1.478 . S
C173 C174 1.397 1_554 S
C174 C173 1.397 1_556 S
C174 C175 1.438 1_655 S
C174 C179 1.429 . S
C175 C158 1.394 1_556 S
C175 C174 1.438 1_455 S
C175 C176 1.428 . S
C176 H168 0.949 . S
C176 C175 1.428 . S
C176 C177 1.345 . S
C177 H169 0.950 . S
C177 C176 1.345 . S
C177 C178 1.424 1_455 S
C178 H170 0.951 . S
C178 C177 1.424 1_655 S
C178 C179 1.347 . S
C179 H171 0.951 . S
C179 C174 1.429 . S
C179 C178 1.347 . S
H180 C181 0.951 . S
C181 H180 0.951 . S
C181 C187 1.265 1_556 S
H182 C187 0.950 . S
H183 C191 0.949 . S
H184 C192 0.950 . S
H185 C193 0.951 . S
H186 C194 0.951 . S
C187 C181 1.265 1_554 S
C187 H182 0.950 . S
C187 C188 1.478 . S
C188 C187 1.478 . S
C188 C189 1.397 . S
C188 C205 1.394 1_554 S
C189 C188 1.397 . S
C189 C190 1.438 1_545 S
C189 C194 1.429 . S
C190 C189 1.438 1_565 S
C190 C191 1.428 . S
C190 C203 1.394 . S
C191 H183 0.949 . S
C191 C190 1.428 . S
C191 C192 1.345 . S
C192 H184 0.950 . S
C192 C191 1.345 . S
C192 C193 1.424 1_565 S
C193 H185 0.951 . S
C193 C192 1.424 1_545 S
C193 C194 1.347 . S
C194 H186 0.951 . S
C194 C189 1.429 . S
C194 C193 1.347 . S
H195 C196 0.951 . S
C196 H195 0.951 . S
C196 C202 1.265 . S
H197 C202 0.950 1_556 S
H198 C206 0.949 . S
H199 C207 0.950 . S
H200 C208 0.951 . S
H201 C209 0.951 . S
C202 C196 1.265 . S
C202 H197 0.950 1_554 S
C202 C203 1.478 . S
C203 C190 1.394 . S
C203 C202 1.478 . S
C203 C204 1.397 1_554 S
C204 C203 1.397 1_556 S
C204 C205 1.438 1_565 S
C204 C209 1.429 . S
C205 C188 1.394 1_556 S
C205 C204 1.438 1_545 S
C205 C206 1.428 . S
C206 H198 0.949 . S
C206 C205 1.428 . S
C206 C207 1.345 . S
C207 H199 0.950 . S
C207 C206 1.345 . S
C207 C208 1.424 1_545 S
C208 H200 0.951 . S
C208 C207 1.424 1_565 S
C208 C209 1.347 . S
C209 H201 0.951 . S
C209 C204 1.429 . S
C209 C208 1.347 . S
H210 C211 0.951 . S
C211 H210 0.951 . S
C211 C217 1.265 . S
H212 C217 0.950 . S
H213 C221 0.949 . S
H214 C222 0.950 . S
H215 C223 0.951 . S
H216 C224 0.951 . S
C217 C211 1.265 . S
C217 H212 0.950 . S
C217 C218 1.478 . S
C218 C217 1.478 . S
C218 C219 1.397 . S
C218 C235 1.394 1_554 S
C219 C218 1.397 . S
C219 C220 1.438 . S
C219 C224 1.429 . S
C220 C219 1.438 . S
C220 C221 1.428 . S
C220 C233 1.394 . S
C221 H213 0.949 . S
C221 C220 1.428 . S
C221 C222 1.345 . S
C222 H214 0.950 . S
C222 C221 1.345 . S
C222 C223 1.424 . S
C223 H215 0.951 . S
C223 C222 1.424 . S
C223 C224 1.347 . S
C224 H216 0.951 . S
C224 C219 1.429 . S
C224 C223 1.347 . S
H225 C226 0.951 . S
C226 H225 0.951 . S
C226 C232 1.265 1_556 S
H227 C232 0.950 . S
H228 C236 0.949 . S
H229 C237 0.950 . S
H230 C238 0.951 . S
H231 C239 0.951 . S
C232 C226 1.265 1_554 S
C232 H227 0.950 . S
C232 C233 1.478 . S
C233 C220 1.394 . S
C233 C232 1.478 . S
C233 C234 1.397 1_554 S
C234 C233 1.397 1_556 S
C234 C235 1.438 . S
C234 C239 1.429 . S
C235 C218 1.394 1_556 S
C235 C234 1.438 . S
C235 C236 1.428 . S
C236 H228 0.949 . S
C236 C235 1.428 . S
C236 C237 1.345 . S
C237 H229 0.950 . S
C237 C236 1.345 . S
C237 C238 1.424 . S
C238 H230 0.951 . S
C238 C237 1.424 . S
C238 C239 1.347 . S
C239 H231 0.951 . S
C239 C234 1.429 . S
C239 C238 1.347 . S
H240 C241 0.951 . S
C241 H240 0.951 . S
C241 C247 1.265 . S
H242 C247 0.950 . S
H243 C251 0.949 . S
H244 C252 0.950 . S
H245 C253 0.936 1_455 S
H246 C254 0.951 . S
C247 C241 1.265 . S
C247 H242 0.950 . S
C247 C248 1.478 . S
C248 C247 1.478 . S
C248 C249 1.397 . S
C248 C265 1.394 1_554 S
C249 C248 1.397 . S
C249 C250 1.438 1_455 S
C249 C254 1.429 . S
C250 C249 1.438 1_655 S
C250 C251 1.428 . S
C250 C263 1.394 . S
C251 H243 0.949 . S
C251 C250 1.428 . S
C251 C252 1.345 . S
C252 H244 0.950 . S
C252 C251 1.345 . S
C252 C253 1.449 . S
C253 H245 0.936 1_655 S
C253 C252 1.449 . S
C253 C254 1.337 1_655 S
C254 H246 0.951 . S
C254 C249 1.429 . S
C254 C253 1.337 1_455 S
H255 C256 0.951 1_554 S
C256 H255 0.951 1_556 S
C256 C262 1.265 . S
H257 C262 0.950 . S
H258 C266 0.949 . S
H259 C267 0.950 . S
H260 C268 0.951 . S
H261 C269 0.951 . S
C262 C256 1.265 . S
C262 H257 0.950 . S
C262 C263 1.478 1_556 S
C263 C250 1.394 . S
C263 C262 1.478 1_554 S
C263 C264 1.397 1_554 S
C264 C263 1.397 1_556 S
C264 C265 1.438 1_655 S
C264 C269 1.429 . S
C265 C248 1.394 1_556 S
C265 C264 1.438 1_455 S
C265 C266 1.428 . S
C266 H258 0.949 . S
C266 C265 1.428 . S
C266 C267 1.345 . S
C267 H259 0.950 . S
C267 C266 1.345 . S
C267 C268 1.424 1_455 S
C268 H260 0.951 . S
C268 C267 1.424 1_655 S
C268 C269 1.347 . S
C269 H261 0.951 . S
C269 C264 1.429 . S
C269 C268 1.347 . S
H270 C271 0.951 . S
C271 H270 0.951 . S
C271 C277 1.265 1_556 S
H272 C277 0.950 . S
H273 C281 0.949 . S
H274 C282 0.950 . S
H275 C283 0.951 . S
H276 C284 0.951 . S
C277 C271 1.265 1_554 S
C277 H272 0.950 . S
C277 C278 1.478 . S
C278 C277 1.478 . S
C278 C279 1.397 . S
C278 C295 1.394 1_554 S
C279 C278 1.397 . S
C279 C280 1.438 1_565 S
C279 C284 1.429 . S
C280 C279 1.438 1_545 S
C280 C281 1.428 . S
C280 C293 1.394 . S
C281 H273 0.949 . S
C281 C280 1.428 . S
C281 C282 1.345 . S
C282 H274 0.950 . S
C282 C281 1.345 . S
C282 C283 1.424 1_545 S
C283 H275 0.951 . S
C283 C282 1.424 1_565 S
C283 C284 1.347 . S
C284 H276 0.951 . S
C284 C279 1.429 . S
C284 C283 1.347 . S
H285 C286 0.951 . S
C286 H285 0.951 . S
C286 C292 1.265 . S
H287 C292 0.950 . S
H288 C296 0.949 . S
H289 C297 0.950 . S
H290 C298 0.951 . S
H291 C299 0.951 . S
C292 C286 1.265 . S
C292 H287 0.950 . S
C292 C293 1.478 . S
C293 C280 1.394 . S
C293 C292 1.478 . S
C293 C294 1.397 1_554 S
C294 C293 1.397 1_556 S
C294 C295 1.438 1_545 S
C294 C299 1.429 . S
C295 C278 1.394 1_556 S
C295 C294 1.438 1_565 S
C295 C296 1.428 . S
C296 H288 0.949 . S
C296 C295 1.428 . S
C296 C297 1.345 . S
C297 H289 0.950 . S
C297 C296 1.345 . S
C297 C298 1.424 1_565 S
C298 H290 0.951 . S
C298 C297 1.424 1_545 S
C298 C299 1.347 . S
C299 H291 0.951 . S
C299 C294 1.429 . S
C299 C298 1.347 . S
H300 C301 0.951 . S
C301 H300 0.951 . S
C301 C307 1.264 1_554 S
H302 C307 0.950 . S
H303 C311 0.949 . S
H304 C312 0.950 . S
H305 C313 0.951 . S
H306 C314 0.951 . S
C307 C301 1.264 1_556 S
C307 H302 0.950 . S
C307 C308 1.478 . S
C308 C307 1.478 . S
C308 C309 1.397 . S
C308 C325 1.394 1_556 S
C309 C308 1.397 . S
C309 C310 1.438 . S
C309 C314 1.429 . S
C310 C309 1.438 . S
C310 C311 1.428 . S
C310 C323 1.394 . S
C311 H303 0.949 . S
C311 C310 1.428 . S
C311 C312 1.345 . S
C312 H304 0.950 . S
C312 C311 1.345 . S
C312 C313 1.424 . S
C313 H305 0.951 . S
C313 C312 1.424 . S
C313 C314 1.347 . S
C314 H306 0.951 . S
C314 C309 1.429 . S
C314 C313 1.347 . S
H315 C316 0.951 . S
C316 H315 0.951 . S
C316 C322 1.265 . S
H317 C322 0.950 . S
H318 C326 0.949 . S
H319 C327 0.950 . S
H320 C328 0.951 . S
H321 C329 0.951 . S
C322 C316 1.265 . S
C322 H317 0.950 . S
C322 C323 1.478 . S
C323 C310 1.394 . S
C323 C322 1.478 . S
C323 C324 1.397 1_556 S
C324 C323 1.397 1_554 S
C324 C325 1.438 . S
C324 C329 1.429 . S
C325 C308 1.394 1_554 S
C325 C324 1.438 . S
C325 C326 1.428 . S
C326 H318 0.949 . S
C326 C325 1.428 . S
C326 C327 1.345 . S
C327 H319 0.950 . S
C327 C326 1.345 . S
C327 C328 1.424 . S
C328 H320 0.951 . S
C328 C327 1.424 . S
C328 C329 1.347 . S
C329 H321 0.951 . S
C329 C324 1.429 . S
C329 C328 1.347 . S
H330 C331 0.951 . S
C331 H330 0.951 . S
C331 C337 1.265 1_556 S
H332 C337 0.950 . S
H333 C341 0.949 . S
H334 C342 0.950 . S
H335 C343 0.951 . S
H336 C344 0.951 . S
C337 C331 1.265 1_554 S
C337 H332 0.950 . S
C337 C338 1.478 . S
C338 C337 1.478 . S
C338 C339 1.397 . S
C338 C355 1.394 1_554 S
C339 C338 1.397 . S
C339 C340 1.438 1_554 S
C339 C344 1.429 . S
C340 C339 1.438 1_556 S
C340 C341 1.428 . S
C340 C353 1.394 . S
C341 H333 0.949 . S
C341 C340 1.428 . S
C341 C342 1.345 1_556 S
C342 H334 0.950 . S
C342 C341 1.345 1_554 S
C342 C343 1.424 . S
C343 H335 0.951 . S
C343 C342 1.424 . S
C343 C344 1.347 . S
C344 H336 0.951 . S
C344 C339 1.429 . S
C344 C343 1.347 . S
H345 C346 0.951 1_554 S
C346 H345 0.951 1_556 S
C346 C352 1.265 . S
H347 C352 0.950 . S
H348 C356 0.949 . S
H349 C357 0.950 . S
H350 C358 0.951 . S
H351 C359 0.951 . S
C352 C346 1.265 . S
C352 H347 0.950 . S
C352 C353 1.478 . S
C353 C340 1.394 . S
C353 C352 1.478 . S
C353 C354 1.397 . S
C354 C353 1.397 . S
C354 C355 1.438 . S
C354 C359 1.429 . S
C355 C338 1.394 1_556 S
C355 C354 1.438 . S
C355 C356 1.428 . S
C356 H348 0.949 . S
C356 C355 1.428 . S
C356 C357 1.345 . S
C357 H349 0.950 . S
C357 C356 1.345 . S
C357 C358 1.424 . S
C358 H350 0.951 . S
C358 C357 1.424 . S
C358 C359 1.347 . S
C359 H351 0.951 . S
C359 C354 1.429 . S
C359 C358 1.347 . S
H360 C361 0.951 . S
C361 H360 0.951 . S
C361 C367 1.265 . S
H362 C367 0.950 1_554 S
H363 C371 0.949 . S
H364 C372 0.950 . S
H365 C373 0.951 . S
H366 C374 0.951 . S
C367 C361 1.265 . S
C367 H362 0.950 1_556 S
C367 C368 1.478 . S
C368 C367 1.478 . S
C368 C369 1.397 1_556 S
C368 C385 1.394 . S
C369 C368 1.397 1_554 S
C369 C370 1.438 . S
C369 C374 1.429 . S
C370 C369 1.438 . S
C370 C371 1.428 . S
C370 C383 1.394 1_554 S
C371 H363 0.949 . S
C371 C370 1.428 . S
C371 C372 1.345 . S
C372 H364 0.950 . S
C372 C371 1.345 . S
C372 C373 1.424 . S
C373 H365 0.951 . S
C373 C372 1.424 . S
C373 C374 1.347 . S
C374 H366 0.951 . S
C374 C369 1.429 . S
C374 C373 1.347 . S
H375 C376 0.951 . S
C376 H375 0.951 . S
C376 C382 1.265 1_554 S
H377 C382 0.950 . S
H378 C386 0.949 . S
H379 C387 0.950 . S
H380 C388 0.951 . S
H381 C389 0.951 . S
C382 C376 1.265 1_556 S
C382 H377 0.950 . S
C382 C383 1.478 . S
C383 C370 1.394 1_556 S
C383 C382 1.478 . S
C383 C384 1.397 . S
C384 C383 1.397 . S
C384 C385 1.438 . S
C384 C389 1.429 . S
C385 C368 1.394 . S
C385 C384 1.438 . S
C385 C386 1.428 . S
C386 H378 0.949 . S
C386 C385 1.428 . S
C386 C387 1.345 . S
C387 H379 0.950 . S
C387 C386 1.345 . S
C387 C388 1.424 . S
C388 H380 0.951 . S
C388 C387 1.424 . S
C388 C389 1.347 . S
C389 H381 0.951 . S
C389 C384 1.429 . S
C389 C388 1.347 . S
H390 C391 0.951 . S
C391 H390 0.951 . S
C391 C397 1.265 . S
H392 C397 0.950 . S
H393 C401 0.949 . S
H394 C402 0.950 . S
H395 C403 0.951 . S
H396 C404 0.951 . S
C397 C391 1.265 . S
C397 H392 0.950 . S
C397 C398 1.478 . S
C398 C397 1.478 . S
C398 C399 1.397 . S
C398 C415 1.394 1_556 S
C399 C398 1.397 . S
C399 C400 1.438 . S
C399 C404 1.429 . S
C400 C399 1.438 . S
C400 C401 1.428 . S
C400 C413 1.394 . S
C401 H393 0.949 . S
C401 C400 1.428 . S
C401 C402 1.345 . S
C402 H394 0.950 . S
C402 C401 1.345 . S
C402 C403 1.424 . S
C403 H395 0.951 . S
C403 C402 1.424 . S
C403 C404 1.347 . S
C404 H396 0.951 . S
C404 C399 1.429 . S
C404 C403 1.347 . S
H405 C406 0.951 . S
C406 H405 0.951 . S
C406 C412 1.265 1_554 S
H407 C412 0.950 . S
H408 C416 0.949 . S
H409 C417 0.950 . S
H410 C418 0.951 . S
H411 C419 0.951 . S
C412 C406 1.265 1_556 S
C412 H407 0.950 . S
C412 C413 1.478 . S
C413 C400 1.394 . S
C413 C412 1.478 . S
C413 C414 1.397 1_556 S
C414 C413 1.397 1_554 S
C414 C415 1.438 . S
C414 C419 1.429 . S
C415 C398 1.394 1_554 S
C415 C414 1.438 . S
C415 C416 1.428 . S
C416 H408 0.949 . S
C416 C415 1.428 . S
C416 C417 1.345 . S
C417 H409 0.950 . S
C417 C416 1.345 . S
C417 C418 1.424 . S
C418 H410 0.951 . S
C418 C417 1.424 . S
C418 C419 1.347 . S
C419 H411 0.951 . S
C419 C414 1.429 . S
C419 C418 1.347 . S
H420 C421 0.951 . S
C421 H420 0.951 . S
C421 C427 1.265 1_556 S
H422 C427 0.950 . S
H423 C431 0.949 . S
H424 C432 0.950 . S
H425 C433 0.951 . S
H426 C434 0.951 . S
C427 C421 1.265 1_554 S
C427 H422 0.950 . S
C427 C428 1.478 . S
C428 C427 1.478 . S
C428 C429 1.397 . S
C428 C445 1.394 1_554 S
C429 C428 1.397 . S
C429 C430 1.438 . S
C429 C434 1.429 . S
C430 C429 1.438 . S
C430 C431 1.428 . S
C430 C443 1.394 1_554 S
C431 H423 0.949 . S
C431 C430 1.428 . S
C431 C432 1.345 . S
C432 H424 0.950 . S
C432 C431 1.345 . S
C432 C433 1.424 . S
C433 H425 0.951 . S
C433 C432 1.424 . S
C433 C434 1.347 . S
C434 H426 0.951 . S
C434 C429 1.429 . S
C434 C433 1.347 . S
H435 C436 0.951 . S
C436 H435 0.951 . S
C436 C442 1.265 1_554 S
H437 C442 0.950 . S
H438 C446 0.949 . S
H439 C447 0.950 . S
H440 C448 0.951 . S
H441 C449 0.951 . S
C442 C436 1.265 1_556 S
C442 H437 0.950 . S
C442 C443 1.478 . S
C443 C430 1.394 1_556 S
C443 C442 1.478 . S
C443 C444 1.397 . S
C444 C443 1.397 . S
C444 C445 1.438 . S
C444 C449 1.429 . S
C445 C428 1.394 1_556 S
C445 C444 1.438 . S
C445 C446 1.428 . S
C446 H438 0.949 . S
C446 C445 1.428 . S
C446 C447 1.345 . S
C447 H439 0.950 . S
C447 C446 1.345 . S
C447 C448 1.424 . S
C448 H440 0.951 . S
C448 C447 1.424 . S
C448 C449 1.347 . S
C449 H441 0.951 . S
C449 C444 1.429 . S
C449 C448 1.347 . S
H450 C451 0.951 . S
C451 H450 0.951 . S
C451 C457 1.265 1_554 S
H452 C457 0.950 . S
H453 C461 0.949 . S
H454 C462 0.950 . S
H455 C463 0.951 . S
H456 C464 0.951 . S
C457 C451 1.265 1_556 S
C457 H452 0.950 . S
C457 C458 1.478 . S
C458 C457 1.478 . S
C458 C459 1.397 . S
C458 C475 1.394 1_556 S
C459 C458 1.397 . S
C459 C460 1.438 . S
C459 C464 1.429 . S
C460 C459 1.438 . S
C460 C461 1.428 . S
C460 C473 1.394 . S
C461 H453 0.949 . S
C461 C460 1.428 . S
C461 C462 1.345 . S
C462 H454 0.950 . S
C462 C461 1.345 . S
C462 C463 1.424 . S
C463 H455 0.951 . S
C463 C462 1.424 . S
C463 C464 1.347 . S
C464 H456 0.951 . S
C464 C459 1.429 . S
C464 C463 1.347 . S
H465 C466 0.951 . S
C466 H465 0.951 . S
C466 C472 1.265 . S
H467 C472 0.950 1_554 S
H468 C476 0.949 . S
H469 C477 0.950 . S
H470 C478 0.951 . S
H471 C479 0.951 . S
C472 C466 1.265 . S
C472 H467 0.950 1_556 S
C472 C473 1.478 . S
C473 C460 1.394 . S
C473 C472 1.478 . S
C473 C474 1.397 1_556 S
C474 C473 1.397 1_554 S
C474 C475 1.438 . S
C474 C479 1.429 . S
C475 C458 1.394 1_554 S
C475 C474 1.438 . S
C475 C476 1.428 . S
C476 H468 0.949 . S
C476 C475 1.428 . S
C476 C477 1.345 . S
C477 H469 0.950 . S
C477 C476 1.345 . S
C477 C478 1.424 . S
C478 H470 0.951 . S
C478 C477 1.424 . S
C478 C479 1.347 . S
C479 H471 0.951 . S
C479 C474 1.429 . S
C479 C478 1.347 . S
H480 C481 0.951 . S
C481 H480 0.951 . S
C481 C487 1.265 . S
H482 C487 0.950 . S
H483 C491 0.949 . S
H484 C492 0.950 . S
H485 C493 0.951 . S
H486 C494 0.951 . S
C487 C481 1.265 . S
C487 H482 0.950 . S
C487 C488 1.478 . S
C488 C487 1.478 . S
C488 C489 1.397 . S
C488 C505 1.394 . S
C489 C488 1.397 . S
C489 C490 1.438 . S
C489 C494 1.429 . S
C490 C489 1.438 . S
C490 C491 1.428 . S
C490 C503 1.394 . S
C491 H483 0.949 . S
C491 C490 1.428 . S
C491 C492 1.345 . S
C492 H484 0.950 . S
C492 C491 1.345 . S
C492 C493 1.424 . S
C493 H485 0.951 . S
C493 C492 1.424 . S
C493 C494 1.347 . S
C494 H486 0.951 . S
C494 C489 1.429 . S
C494 C493 1.347 . S
H495 C496 0.951 . S
C496 H495 0.951 . S
C496 C502 1.265 . S
H497 C502 0.950 . S
H498 C506 0.949 . S
H499 C507 0.950 . S
H500 C508 0.951 . S
H501 C509 0.951 . S
C502 C496 1.265 . S
C502 H497 0.950 . S
C502 C503 1.478 . S
C503 C490 1.394 . S
C503 C502 1.478 . S
C503 C504 1.397 . S
C504 C503 1.397 . S
C504 C505 1.438 . S
C504 C509 1.429 . S
C505 C488 1.394 . S
C505 C504 1.438 . S
C505 C506 1.428 . S
C506 H498 0.949 . S
C506 C505 1.428 . S
C506 C507 1.345 . S
C507 H499 0.950 . S
C507 C506 1.345 . S
C507 C508 1.424 . S
C508 H500 0.951 . S
C508 C507 1.424 . S
C508 C509 1.347 . S
C509 H501 0.951 . S
C509 C504 1.429 . S
C509 C508 1.347 . S
H510 C511 0.951 . S
C511 H510 0.951 . S
C511 C517 1.265 . S
H512 C517 0.950 . S
H513 C521 0.949 . S
H514 C522 0.950 . S
H515 C523 0.951 . S
H516 C524 0.951 . S
C517 C511 1.265 . S
C517 H512 0.950 . S
C517 C518 1.478 . S
C518 C517 1.478 . S
C518 C519 1.397 . S
C518 C535 1.394 . S
C519 C518 1.397 . S
C519 C520 1.438 . S
C519 C524 1.429 . S
C520 C519 1.438 . S
C520 C521 1.428 . S
C520 C533 1.394 . S
C521 H513 0.949 . S
C521 C520 1.428 . S
C521 C522 1.345 . S
C522 H514 0.950 . S
C522 C521 1.345 . S
C522 C523 1.424 . S
C523 H515 0.951 . S
C523 C522 1.424 . S
C523 C524 1.347 . S
C524 H516 0.951 . S
C524 C519 1.429 . S
C524 C523 1.347 . S
H525 C526 0.951 . S
C526 H525 0.951 . S
C526 C532 1.265 . S
H527 C532 0.950 . S
H528 C536 0.949 . S
H529 C537 0.950 . S
H530 C538 0.951 . S
H531 C539 0.951 . S
C532 C526 1.265 . S
C532 H527 0.950 . S
C532 C533 1.478 . S
C533 C520 1.394 . S
C533 C532 1.478 . S
C533 C534 1.397 . S
C534 C533 1.397 . S
C534 C535 1.438 . S
C534 C539 1.429 . S
C535 C518 1.394 . S
C535 C534 1.438 . S
C535 C536 1.428 . S
C536 H528 0.949 . S
C536 C535 1.428 . S
C536 C537 1.345 . S
C537 H529 0.950 . S
C537 C536 1.345 . S
C537 C538 1.424 . S
C538 H530 0.951 . S
C538 C537 1.424 . S
C538 C539 1.347 . S
C539 H531 0.951 . S
C539 C534 1.429 . S
C539 C538 1.347 . S
H540 C541 0.951 . S
C541 H540 0.951 . S
C541 C547 1.265 . S
H542 C547 0.950 . S
H543 C551 0.949 . S
H544 C552 0.950 . S
H545 C553 0.951 . S
H546 C554 0.951 . S
C547 C541 1.265 . S
C547 H542 0.950 . S
C547 C548 1.478 . S
C548 C547 1.478 . S
C548 C549 1.397 . S
C548 C565 1.394 . S
C549 C548 1.397 . S
C549 C550 1.438 . S
C549 C554 1.429 . S
C550 C549 1.438 . S
C550 C551 1.428 . S
C550 C563 1.394 . S
C551 H543 0.949 . S
C551 C550 1.428 . S
C551 C552 1.345 . S
C552 H544 0.950 . S
C552 C551 1.345 . S
C552 C553 1.424 . S
C553 H545 0.951 . S
C553 C552 1.424 . S
C553 C554 1.347 . S
C554 H546 0.951 . S
C554 C549 1.429 . S
C554 C553 1.347 . S
H555 C556 0.951 . S
C556 H555 0.951 . S
C556 C562 1.265 . S
H557 C562 0.950 . S
H558 C566 0.949 . S
H559 C567 0.950 . S
H560 C568 0.951 . S
H561 C569 0.951 . S
C562 C556 1.265 . S
C562 H557 0.950 . S
C562 C563 1.478 . S
C563 C550 1.394 . S
C563 C562 1.478 . S
C563 C564 1.397 . S
C564 C563 1.397 . S
C564 C565 1.438 . S
C564 C569 1.429 . S
C565 C548 1.394 . S
C565 C564 1.438 . S
C565 C566 1.428 . S
C566 H558 0.949 . S
C566 C565 1.428 . S
C566 C567 1.345 . S
C567 H559 0.950 . S
C567 C566 1.345 . S
C567 C568 1.424 . S
C568 H560 0.951 . S
C568 C567 1.424 . S
C568 C569 1.347 . S
C569 H561 0.951 . S
C569 C564 1.429 . S
C569 C568 1.347 . S
H570 C571 0.951 . S
C571 H570 0.951 . S
C571 C577 1.265 . S
H572 C577 0.950 . S
H573 C581 0.949 . S
H574 C582 0.950 . S
H575 C583 0.951 . S
H576 C584 0.951 . S
C577 C571 1.265 . S
C577 H572 0.950 . S
C577 C578 1.478 . S
C578 C577 1.478 . S
C578 C579 1.397 . S
C578 C595 1.394 . S
C579 C578 1.397 . S
C579 C580 1.438 . S
C579 C584 1.429 . S
C580 C579 1.438 . S
C580 C581 1.428 . S
C580 C593 1.394 . S
C581 H573 0.949 . S
C581 C580 1.428 . S
C581 C582 1.345 . S
C582 H574 0.950 . S
C582 C581 1.345 . S
C582 C583 1.424 . S
C583 H575 0.951 . S
C583 C582 1.424 . S
C583 C584 1.347 . S
C584 H576 0.951 . S
C584 C579 1.429 . S
C584 C583 1.347 . S
H585 C586 0.951 . S
C586 H585 0.951 . S
C586 C592 1.265 . S
H587 C592 0.950 . S
H588 C596 0.949 . S
H589 C597 0.950 . S
H590 C598 0.951 . S
H591 C599 0.951 . S
C592 C586 1.265 . S
C592 H587 0.950 . S
C592 C593 1.478 . S
C593 C580 1.394 . S
C593 C592 1.478 . S
C593 C594 1.397 . S
C594 C593 1.397 . S
C594 C595 1.438 . S
C594 C599 1.429 . S
C595 C578 1.394 . S
C595 C594 1.438 . S
C595 C596 1.428 . S
C596 H588 0.949 . S
C596 C595 1.428 . S
C596 C597 1.345 . S
C597 H589 0.950 . S
C597 C596 1.345 . S
C597 C598 1.424 . S
C598 H590 0.951 . S
C598 C597 1.424 . S
C598 C599 1.347 . S
C599 H591 0.951 . S
C599 C594 1.429 . S
C599 C598 1.347 . S
H600 C601 0.951 . S
C601 H600 0.951 . S
C601 C607 1.265 . S
H602 C607 0.950 . S
H603 C611 0.949 . S
H604 C612 0.950 . S
H605 C613 0.951 . S
H606 C614 0.951 . S
C607 C601 1.265 . S
C607 H602 0.950 . S
C607 C608 1.478 . S
C608 C607 1.478 . S
C608 C609 1.397 . S
C608 C625 1.394 . S
C609 C608 1.397 . S
C609 C610 1.438 . S
C609 C614 1.429 . S
C610 C609 1.438 . S
C610 C611 1.428 . S
C610 C623 1.394 . S
C611 H603 0.949 . S
C611 C610 1.428 . S
C611 C612 1.345 . S
C612 H604 0.950 . S
C612 C611 1.345 . S
C612 C613 1.424 . S
C613 H605 0.951 . S
C613 C612 1.424 . S
C613 C614 1.347 . S
C614 H606 0.951 . S
C614 C609 1.429 . S
C614 C613 1.347 . S
H615 C616 0.951 . S
C616 H615 0.951 . S
C616 C622 1.265 . S
H617 C622 0.950 . S
H618 C626 0.949 . S
H619 C627 0.950 . S
H620 C628 0.951 . S
H621 C629 0.951 . S
C622 C616 1.265 . S
C622 H617 0.950 . S
C622 C623 1.478 . S
C623 C610 1.394 . S
C623 C622 1.478 . S
C623 C624 1.397 . S
C624 C623 1.397 . S
C624 C625 1.438 . S
C624 C629 1.429 . S
C625 C608 1.394 . S
C625 C624 1.438 . S
C625 C626 1.428 . S
C626 H618 0.949 . S
C626 C625 1.428 . S
C626 C627 1.345 . S
C627 H619 0.950 . S
C627 C626 1.345 . S
C627 C628 1.424 . S
C628 H620 0.951 . S
C628 C627 1.424 . S
C628 C629 1.347 . S
C629 H621 0.951 . S
C629 C624 1.429 . S
C629 C628 1.347 . S
H630 C631 0.951 . S
C631 H630 0.951 . S
C631 C637 1.265 . S
H632 C637 0.950 . S
H633 C641 0.949 . S
H634 C642 0.950 . S
H635 C643 0.951 . S
H636 C644 0.951 . S
C637 C631 1.265 . S
C637 H632 0.950 . S
C637 C638 1.478 . S
C638 C637 1.478 . S
C638 C639 1.397 . S
C638 C655 1.394 . S
C639 C638 1.397 . S
C639 C640 1.438 . S
C639 C644 1.429 . S
C640 C639 1.438 . S
C640 C641 1.428 . S
C640 C653 1.394 . S
C641 H633 0.949 . S
C641 C640 1.428 . S
C641 C642 1.345 . S
C642 H634 0.950 . S
C642 C641 1.345 . S
C642 C643 1.424 . S
C643 H635 0.951 . S
C643 C642 1.424 . S
C643 C644 1.347 . S
C644 H636 0.951 . S
C644 C639 1.429 . S
C644 C643 1.347 . S
H645 C646 0.951 . S
C646 H645 0.951 . S
C646 C652 1.265 . S
H647 C652 0.950 . S
H648 C656 0.949 . S
H649 C657 0.950 . S
H650 C658 0.951 . S
H651 C659 0.951 . S
C652 C646 1.265 . S
C652 H647 0.950 . S
C652 C653 1.478 . S
C653 C640 1.394 . S
C653 C652 1.478 . S
C653 C654 1.397 . S
C654 C653 1.397 . S
C654 C655 1.438 . S
C654 C659 1.429 . S
C655 C638 1.394 . S
C655 C654 1.438 . S
C655 C656 1.428 . S
C656 H648 0.949 . S
C656 C655 1.428 . S
C656 C657 1.345 . S
C657 H649 0.950 . S
C657 C656 1.345 . S
C657 C658 1.424 . S
C658 H650 0.951 . S
C658 C657 1.424 . S
C658 C659 1.347 . S
C659 H651 0.951 . S
C659 C654 1.429 . S
C659 C658 1.347 . S
C121 C104 1.435 1_554 S
C136 C12 1.431 . S
C151 C4 1.436 . S
C166 C32 1.431 . S
C181 C24 1.433 . S
C196 C52 1.429 . S
C211 C72 1.430 . S
C226 C44 1.435 . S
C241 C92 1.431 . S
C256 C64 1.437 . S
C271 C84 1.436 . S
C286 C112 1.431 . S
C301 C82 1.557 . S
C316 C9 1.703 . S
C331 C102 1.607 1_556 S
C346 C29 1.676 . S
C361 C49 1.629 . S
C376 C2 1.661 . S
C391 C69 1.702 . S
C406 C22 1.557 . S
C421 C89 1.661 . S
C436 C42 1.609 . S
C451 C62 1.557 . S
C466 C109 1.702 . S
C481 C18 1.486 . S
C496 C19 1.486 . S
C511 C38 1.505 . S
C526 C39 1.505 . S
C541 C58 1.451 . S
C556 C59 1.451 . S
C571 C78 1.478 . S
C586 C79 1.478 . S
C601 C99 1.505 . S
C616 C98 1.505 . S
C631 C118 1.513 . S
C646 C119 1.513 . S
