# Generated by pormake.
# Topology snp, (6)-cn, num edge types: 1
# Building blocks:
#     Node 0, Type 0, BuildingBlock: KUMJIN_clean_sbu_0, # of connection points: 6
#     Node 1, Type 0, BuildingBlock: KUMJIN_clean_sbu_0, # of connection points: 6
#     Node 2, Type 0, BuildingBlock: KUMJIN_clean_sbu_0, # of connection points: 6
#     Node 3, Type 0, BuildingBlock: KUMJIN_clean_sbu_0, # of connection points: 6
#     Edge 4, Type (0, 0), BuildingBlock: FUNLAD_clean_linker_1, # of connection points: 2
#     Edge 5, Type (0, 0), BuildingBlock: FUNLAD_clean_linker_1, # of connection points: 2
#     Edge 6, Type (0, 0), BuildingBlock: FUNLAD_clean_linker_1, # of connection points: 2
#     Edge 7, Type (0, 0), BuildingBlock: FUNLAD_clean_linker_1, # of connection points: 2
#     Edge 8, Type (0, 0), BuildingBlock: FUNLAD_clean_linker_1, # of connection points: 2
#     Edge 9, Type (0, 0), BuildingBlock: FUNLAD_clean_linker_1, # of connection points: 2
#     Edge 10, Type (0, 0), BuildingBlock: FUNLAD_clean_linker_1, # of connection points: 2
#     Edge 11, Type (0, 0), BuildingBlock: FUNLAD_clean_linker_1, # of connection points: 2
#     Edge 12, Type (0, 0), BuildingBlock: FUNLAD_clean_linker_1, # of connection points: 2
#     Edge 13, Type (0, 0), BuildingBlock: FUNLAD_clean_linker_1, # of connection points: 2
#     Edge 14, Type (0, 0), BuildingBlock: FUNLAD_clean_linker_1, # of connection points: 2
#     Edge 15, Type (0, 0), BuildingBlock: FUNLAD_clean_linker_1, # of connection points: 2
# Relax obj value: 0.251
# Max RMSD: 0.221
# Mean RMSD: 0.205
data_MOF--net-snp--node1-KUMJIN_clean_sbu_0--edge1-FUNLAD_clean_linker_1
_symmetry_space_group_name_H-M    P1
_symmetry_Int_Tables_number       1
_symmetry_cell_setting            triclinic
loop_
_symmetry_equiv_pos_as_xyz
'x, y, z'
_cell_length_a     26.309218
_cell_length_b     27.152442
_cell_length_c     33.218066
_cell_angle_alpha  114.78316
_cell_angle_beta   106.04825
_cell_angle_gamma 74.467552
loop_
_atom_site_label
_atom_site_type_symbol
_atom_site_fract_x
_atom_site_fract_y
_atom_site_fract_z
_atom_type_partial_charge
Eu0 Eu 0.29167 0.20339 0.1267 0.0
C1 C 0.31718 0.94749 0.0523 0.0
C2 C 0.2648 0.90136 0.07095 0.0
C3 C 0.30811 0.85172 1.00596 0.0
C4 C 0.28557 0.94862 0.07988 0.0
C5 C 0.3287 0.89867 1.01491 0.0
C6 C 0.27627 0.85304 1.03391 0.0
C7 C 0.37961 0.94569 0.99692 0.0
N8 N 0.33659 0.99371 0.06185 0.0
C9 C 0.36688 0.99315 1.03388 0.0
C10 C 0.36081 0.89811 0.98755 0.0
Eu11 Eu 0.321 0.06815 0.13209 0.0
N12 N 0.27497 0.9958 0.11545 0.0
C13 C 0.24339 0.9986 0.14318 0.0
C14 C 0.23196 0.90437 0.09888 0.0
C15 C 0.22099 0.95335 0.13501 0.0
H16 H 0.38124 0.02896 0.03846 0.0
H17 H 0.19582 0.95609 0.15697 0.0
H18 H 0.26042 0.81656 1.02644 0.0
H19 H 0.40356 0.9461 0.97533 0.0
H20 H 0.23567 0.03559 0.17209 0.0
H21 H 0.46607 0.23456 0.26733 0.0
H22 H 0.21477 0.86922 0.09276 0.0
H23 H 0.16539 0.27523 0.1254 0.0
H24 H 0.41407 0.18136 0.19628 0.0
H25 H 0.12002 0.36649 0.1687 0.0
H26 H 0.31654 0.81414 0.97738 0.0
H27 H 0.42647 0.32853 0.31285 0.0
H28 H 0.34694 0.40429 0.324 0.0
H29 H 0.37055 0.86149 0.95867 0.0
H30 H 0.25281 0.43933 0.29796 0.0
N31 N 0.34544 0.24531 0.19841 0.0
C32 C 0.3962 0.22282 0.21425 0.0
C33 C 0.40335 0.30559 0.28094 0.0
C34 C 0.35059 0.32753 0.26596 0.0
C35 C 0.42588 0.25266 0.25532 0.0
C36 C 0.32194 0.29584 0.22425 0.0
H37 H 0.16855 0.42605 0.24004 0.0
N38 N 0.2396 0.28146 0.17243 0.0
C39 C 0.16108 0.35185 0.18146 0.0
C40 C 0.26778 0.31446 0.21074 0.0
C41 C 0.187 0.29971 0.1573 0.0
C42 C 0.18893 0.38561 0.22139 0.0
C43 C 0.2426 0.36684 0.23692 0.0
O44 O 0.24034 0.24232 0.08003 0.0
O45 O 0.28265 0.1145 0.08598 0.0
O46 O 0.39224 0.08163 0.11337 0.0
O47 O 0.37811 0.17276 0.11868 0.0
O48 O 0.30378 0.1529 0.05377 0.0
O49 O 0.3156 0.2696 0.11955 0.0
O50 O 0.39799 0.07584 0.17877 0.0
O51 O 0.31154 0.15895 0.17397 0.0
O52 O 0.21205 0.18451 0.12674 0.0
O53 O 0.2302 0.09264 0.12225 0.0
O54 O 0.28248 0.11099 0.19429 0.0
O55 O 0.35692 1.01065 0.16692 0.0
C56 C 0.29162 0.10748 0.04816 0.0
C57 C 0.28949 0.27021 0.04587 0.0
C58 C 0.34828 0.22994 0.99 0.0
C59 C 0.33619 0.23566 1.03059 0.0
C60 C 0.31309 0.26121 0.96541 0.0
C61 C 0.25531 0.30104 1.02103 0.0
C62 C 0.26735 0.2968 0.98119 0.0
C63 C 0.40764 0.12321 0.1115 0.0
C64 C 0.27535 0.27255 0.08668 0.0
C65 C 0.27169 0.39917 0.27744 0.0
C66 C 0.32537 0.37937 0.29212 0.0
C67 C 0.28783 0.16066 0.20369 0.0
C68 C 0.40515 0.05166 0.24143 0.0
C69 C 0.3826 0.02582 0.25976 0.0
C70 C 0.39369 0.0379 0.30657 0.0
C71 C 0.42631 0.07746 0.33513 0.0
C72 C 0.43811 0.09053 0.27077 0.0
C73 C 0.44819 0.10354 0.31725 0.0
C74 C 0.19742 0.13982 0.12399 0.0
C75 C 0.39578 0.03765 0.192 0.0
H76 H 0.3629 0.21209 0.05 0.0
H77 H 0.31862 0.25755 0.93335 0.0
H78 H 0.21906 0.32786 1.03217 0.0
H79 H 0.24038 0.32021 0.96179 0.0
H80 H 0.35723 0.99559 0.2377 0.0
H81 H 0.43427 0.08901 0.37139 0.0
H82 H 0.45615 0.11099 0.25781 0.0
H83 H 0.4732 0.13394 0.33954 0.0
Eu84 Eu 0.04392 0.31918 0.52603 0.0
C85 C 0.16282 0.48573 0.68527 0.0
C86 C 0.2247 0.52073 0.66595 0.0
C87 C 0.18022 0.57904 0.72956 0.0
C88 C 0.19805 0.47801 0.65812 0.0
C89 C 0.15304 0.5366 0.721 0.0
C90 C 0.21603 0.5711 0.70213 0.0
C91 C 0.08807 0.50081 0.73551 0.0
N92 N 0.13558 0.44453 0.6748 0.0
C93 C 0.09877 0.45126 0.69942 0.0
C94 C 0.11531 0.54368 0.74638 0.0
Eu95 Eu 0.15785 0.3611 0.61435 0.0
N96 N 0.20327 0.42983 0.62204 0.0
C97 C 0.23615 0.42084 0.59347 0.0
C98 C 0.2582 0.51192 0.63648 0.0
C99 C 0.26402 0.46168 0.60013 0.0
H100 H 0.07747 0.41866 0.69151 0.0
H101 H 0.29016 0.45428 0.57737 0.0
H102 H 0.23611 0.60446 0.7087 0.0
H103 H 0.05871 0.50593 0.75487 0.0
H104 H 0.24198 0.38152 0.56632 0.0
H105 H 0.85446 0.45595 0.49751 0.0
H106 H 0.27948 0.54367 0.64136 0.0
H107 H 0.06783 0.21091 0.56006 0.0
H108 H 0.9517 0.42195 0.50281 0.0
H109 H 0.01575 0.15499 0.56858 0.0
H110 H 0.17321 0.61844 0.75686 0.0
H111 H 0.79762 0.4075 0.51119 0.0
H112 H 0.78999 0.32718 0.5262 0.0
H113 H 0.10657 0.58216 0.77409 0.0
H114 H 0.83339 0.24324 0.54179 0.0
N115 N 0.95172 0.35934 0.52576 0.0
C116 C 0.92802 0.40251 0.51186 0.0
C117 C 0.84072 0.39372 0.51543 0.0
C118 C 0.86449 0.34731 0.52652 0.0
C119 C 0.87265 0.42125 0.5078 0.0
C120 C 0.92092 0.33113 0.53194 0.0
H121 H 0.91715 0.18034 0.55868 0.0
N122 N 0.99968 0.26947 0.54624 0.0
C123 C 0.99548 0.19107 0.5607 0.0
C124 C 0.94545 0.28437 0.54156 0.0
C125 C 0.02487 0.22331 0.55567 0.0
C126 C 0.93985 0.20528 0.55495 0.0
C127 C 0.91404 0.25213 0.54515 0.0
O128 O 0.04595 0.23963 0.47006 0.0
O129 O 0.12729 0.33483 0.53971 0.0
O130 O 0.11221 0.43507 0.59709 0.0
O131 O 0.02711 0.41277 0.56201 0.0
O132 O 0.07411 0.36072 0.49199 0.0
O133 O 1.00048 0.3133 0.45855 0.0
O134 O 0.19989 0.33579 0.67051 0.0
O135 O 0.07364 0.34392 0.60072 0.0
O136 O 0.10975 0.24457 0.52653 0.0
O137 O 0.18704 0.28267 0.55795 0.0
O138 O 0.12778 0.31857 0.64792 0.0
O139 O 0.24514 0.33364 0.62385 0.0
C140 C 0.12434 0.35471 0.51048 0.0
C141 C 0.04659 0.24686 0.40139 0.0
C142 C 0.05154 0.26571 0.33698 0.0
C143 C 0.02615 0.27625 0.37256 0.0
C144 C 0.09594 0.22288 0.32894 0.0
C145 C 0.09203 0.20519 0.39349 0.0
C146 C 0.11589 0.19278 0.35696 0.0
C147 C 0.06084 0.44828 0.58098 0.0
C148 C 0.02079 0.26143 0.44006 0.0
C149 C 0.85799 0.26767 0.53919 0.0
C150 C 0.83332 0.31556 0.53053 0.0
C151 C 0.0789 0.31902 0.62703 0.0
C152 C 0.28975 0.34942 0.70086 0.0
C153 C 0.29354 0.3399 0.74013 0.0
C154 C 0.33895 0.34833 0.77462 0.0
C155 C 0.37851 0.37215 0.77178 0.0
C156 C 0.32956 0.37315 0.69841 0.0
C157 C 0.37319 0.38536 0.73418 0.0
C158 C 0.16261 0.23956 0.53429 0.0
C159 C 0.24727 0.32837 0.66167 0.0
H160 H 0.99012 0.30687 0.378 0.0
H161 H 0.11521 0.21258 0.30082 0.0
H162 H 0.10911 0.18208 0.41534 0.0
H163 H 0.15038 0.16013 0.35062 0.0
H164 H 0.26296 0.32164 0.74233 0.0
H165 H 0.41352 0.38029 0.79835 0.0
H166 H 0.32758 0.38131 0.66872 0.0
H167 H 0.40385 0.40356 0.73213 0.0
Eu168 Eu 0.8383 0.14389 0.974 0.0
C169 C 0.95803 0.92466 1.00385 0.0
C170 C 0.89416 0.86201 0.97216 0.0
C171 C 0.98959 0.82574 0.9744 0.0
C172 C 0.90537 0.91605 0.99198 0.0
C173 C 1.00077 0.87957 0.99623 0.0
C174 C 0.93641 0.81698 0.96248 0.0
C175 C 0.06249 0.94384 0.03784 0.0
N176 N 0.96764 0.97709 1.02597 0.0
C177 C 0.01885 0.98727 0.04438 0.0
C178 C 0.0535 0.88984 1.01287 0.0
Eu179 Eu 0.89189 0.04748 0.04028 0.0
N180 N 0.86549 0.96035 1.00271 0.0
C181 C 0.81367 0.95361 0.99515 0.0
C182 C 0.84104 0.8548 0.9641 0.0
C183 C 0.80061 0.90081 0.97554 0.0
H184 H 0.02578 0.02904 0.06393 0.0
H185 H 0.75944 0.89563 0.96947 0.0
H186 H 0.92851 0.77518 0.9469 0.0
H187 H 0.10293 0.95185 0.05279 0.0
H188 H 0.78224 0.98884 1.00432 0.0
H189 H 0.92668 0.3302 0.06631 0.0
H190 H 0.83083 0.81393 0.94922 0.0
H191 H 0.70984 0.13108 0.92516 0.0
H192 H 0.92692 0.22986 1.02842 0.0
H193 H 0.62054 0.19032 0.92293 0.0
H194 H 0.02186 0.79056 0.96795 0.0
H195 H 0.84074 0.39529 0.07354 0.0
H196 H 0.73992 0.41087 0.05446 0.0
H197 H 0.08745 0.85629 1.00818 0.0
H198 H 0.65676 0.37299 1.01471 0.0
N199 N 0.84184 0.23852 1.01468 0.0
C200 C 0.88912 0.25812 1.03129 0.0
C201 C 0.84054 0.35144 0.05677 0.0
C202 C 0.7922 0.33123 0.03725 0.0
C203 C 0.88919 0.31476 0.05293 0.0
C204 C 0.79421 0.27381 1.01536 0.0
H205 H 0.61191 0.29098 0.96522 0.0
N206 N 0.75133 0.19747 0.96863 0.0
C207 C 0.65595 0.20838 0.94236 0.0
C208 C 0.74753 0.25267 0.99177 0.0
C209 C 0.70665 0.17496 0.94353 0.0
C210 C 0.65123 0.26518 0.96637 0.0
C211 C 0.69737 0.28809 0.99114 0.0
O212 O 0.82378 0.13791 0.90345 0.0
O213 O 0.84502 0.06271 0.97803 0.0
O214 O 0.93868 0.02177 0.98444 0.0
O215 O 0.92706 0.10752 0.98078 0.0
O216 O 0.79895 0.07222 0.92013 0.0
O217 O 0.89614 0.16373 0.94876 0.0
O218 O 0.93451 0.06176 0.11061 0.0
O219 O 0.87596 0.13229 0.0393 0.0
O220 O 0.78035 0.16166 1.0204 0.0
O221 O 0.80189 0.08279 0.03955 0.0
O222 O 0.94423 0.11338 0.0817 0.0
O223 O 0.86033 0.03172 0.08818 0.0
C224 C 0.81784 0.03791 0.94055 0.0
C225 C 0.86384 0.19838 0.88919 0.0
C226 C 0.89442 0.23493 0.84357 0.0
C227 C 0.89851 0.19276 0.86029 0.0
C228 C 0.85428 0.28182 0.85631 0.0
C229 C 0.82552 0.24642 0.90098 0.0
C230 C 0.82084 0.28744 0.8847 0.0
C231 C 0.94864 0.05463 0.96835 0.0
C232 C 0.86772 0.15564 0.90825 0.0
C233 C 0.69494 0.34512 1.01468 0.0
C234 C 0.74227 0.36667 0.03748 0.0
C235 C 0.91418 0.15211 0.06862 0.0
C236 C 0.92578 1.00259 0.14494 0.0
C237 C 0.93205 0.01662 0.19275 0.0
C238 C 0.95645 0.97611 0.21305 0.0
C239 C 0.97293 0.92192 0.18396 0.0
C240 C 0.94366 0.9479 0.11853 0.0
C241 C 0.96682 0.90832 0.13768 0.0
C242 C 0.7693 0.12853 0.03601 0.0
C243 C 0.90132 0.04329 0.12144 0.0
H244 H 0.9285 0.15588 0.85097 0.0
H245 H 0.84714 0.31433 0.84374 0.0
H246 H 0.79873 0.25219 0.92271 0.0
H247 H 0.79046 0.32397 0.89388 0.0
H248 H 0.9182 0.05858 0.21391 0.0
H249 H 0.98935 0.88884 0.19639 0.0
H250 H 0.93921 0.93536 0.08261 0.0
H251 H 0.97968 0.86623 0.1162 0.0
Eu252 Eu 0.05027 0.94173 0.61275 0.0
C253 C 0.29025 0.92402 0.68417 0.0
C254 C 0.33222 0.98821 0.6765 0.0
C255 C 0.36557 0.96101 0.74137 0.0
C256 C 0.29263 0.95467 0.66056 0.0
C257 C 0.32705 0.92656 0.72473 0.0
C258 C 0.36819 0.99172 0.71728 0.0
C259 C 0.28551 0.86026 0.72928 0.0
N260 N 0.25192 0.89182 0.66766 0.0
C261 C 0.24984 0.85915 0.68905 0.0
C262 C 0.32399 0.89443 0.74742 0.0
Eu263 Eu 0.1899 0.89633 0.60163 0.0
N264 N 0.25666 0.95114 0.62162 0.0
C265 C 0.26164 0.97585 0.59485 0.0
C266 C 0.33494 0.01665 0.65067 0.0
C267 C 0.30007 1.00966 0.60929 0.0
H268 H 0.22 0.83303 0.67601 0.0
H269 H 0.30288 0.03019 0.58846 0.0
H270 H 0.39848 0.01769 0.73028 0.0
H271 H 0.28298 0.83509 0.74649 0.0
H272 H 0.23603 0.96998 0.56238 0.0
H273 H 0.93524 0.85495 0.4428 0.0
H274 H 0.36459 0.04299 0.66182 0.0
H275 H 0.0316 0.07173 0.6911 0.0
H276 H 1.00614 0.85342 0.50835 0.0
H277 H 0.97325 0.16059 0.69699 0.0
H278 H 0.3938 0.96387 0.77266 0.0
H279 H 0.87765 0.94276 0.4417 0.0
H280 H 0.84949 0.04354 0.48251 0.0
H281 H 0.35133 0.89545 0.77876 0.0
H282 H 0.85805 0.12557 0.55193 0.0
N283 N 0.98941 0.94 0.54503 0.0
C284 C 0.98163 0.89232 0.5088 0.0
C285 C 0.90885 0.94255 0.47084 0.0
C286 C 0.91581 0.99102 0.50855 0.0
C287 C 0.94127 0.8929 0.47135 0.0
C288 C 0.95684 0.98855 0.54584 0.0
H289 H 0.90535 0.17038 0.63126 0.0
N290 N 1.00001 0.03118 0.6214 0.0
C291 C 0.96985 0.12591 0.66526 0.0
C292 C 0.96237 0.03536 0.58496 0.0
C293 C 1.00301 0.07517 0.66169 0.0
C294 C 0.93168 0.13119 0.62805 0.0
C295 C 0.92688 0.08545 0.58752 0.0
O296 O 0.96824 0.94106 0.61495 0.0
O297 O 0.13347 0.92219 0.6489 0.0
O298 O 0.15604 0.83347 0.60975 0.0
O299 O 0.0689 0.84929 0.57381 0.0
O300 O 0.0814 0.98262 0.68839 0.0
O301 O 0.03448 0.90298 0.65314 0.0
O302 O 0.25193 0.82213 0.58921 0.0
O303 O 0.10361 0.9035 0.56119 0.0
O304 O 0.08633 1.01384 0.61925 0.0
O305 O 0.17905 0.98698 0.64005 0.0
O306 O 0.15803 0.93286 0.54732 0.0
O307 O 0.20681 0.8464 0.53384 0.0
C308 C 0.1301 0.95607 0.68937 0.0
C309 C 0.95455 0.8665 0.62731 0.0
C310 C 0.90658 0.81979 0.64993 0.0
C311 C 0.93665 0.86094 0.66077 0.0
C312 C 0.89607 0.78315 0.60499 0.0
C313 C 0.94345 0.82995 0.58249 0.0
C314 C 0.91505 0.78784 0.57156 0.0
C315 C 0.11003 0.81674 0.58827 0.0
C316 C 0.98278 0.9123 0.64035 0.0
C317 C 0.88646 0.0879 0.55024 0.0
C318 C 0.88135 0.04105 0.51073 0.0
C319 C 0.10847 0.92686 0.53632 0.0
C320 C 0.29887 0.80787 0.53284 0.0
C321 C 0.3048 0.84109 0.51172 0.0
C322 C 0.35401 0.83459 0.49927 0.0
C323 C 0.39719 0.79513 0.50881 0.0
C324 C 0.34242 0.76813 0.54118 0.0
C325 C 0.39129 0.762 0.52936 0.0
C326 C 0.13629 0.02408 0.63545 0.0
C327 C 0.24824 0.81461 0.54728 0.0
H328 H 0.94392 0.89094 0.69488 0.0
H329 H 0.87235 0.75166 0.59567 0.0
H330 H 0.95637 0.83417 0.55606 0.0
H331 H 0.90666 0.75958 0.53692 0.0
H332 H 0.27163 0.87245 0.5059 0.0
H333 H 0.43558 0.78954 0.49996 0.0
H334 H 0.33875 0.74213 0.55725 0.0
H335 H 0.4248 0.73149 0.53622 0.0
H336 H 0.02651 1.00537 0.95901 0.0
C337 C 0.99696 0.03617 0.94835 0.0
H338 H 0.97961 0.09518 0.91957 0.0
H339 H 0.07819 0.2345 0.09288 0.0
H340 H 0.02805 0.30108 0.05813 0.0
H341 H 0.99511 0.27049 0.97558 0.0
H342 H 0.0128 0.17258 0.92721 0.0
C343 C 0.01161 0.06845 0.93314 0.0
C344 C 0.06344 0.0891 0.95596 0.0
C345 C 0.05762 0.14588 0.98225 0.0
C346 C 0.07631 0.16313 1.02952 0.0
C347 C 0.06484 0.21957 0.0566 0.0
C348 C 0.03625 0.2579 0.03705 0.0
C349 C 0.01778 0.24068 0.99052 0.0
C350 C 0.02792 0.18501 0.96323 0.0
H351 H 0.13733 0.15514 0.164 0.0
C352 C 0.14311 0.14494 0.1301 0.0
H353 H 0.0621 0.14113 0.10408 0.0
H354 H 0.10953 0.98847 0.90667 0.0
H355 H 0.16181 0.91807 0.9374 0.0
H356 H 0.18467 0.94109 1.01912 0.0
H357 H 0.15928 0.03433 0.07185 0.0
C358 C 0.10106 0.13578 0.09616 0.0
C359 C 0.103 0.12302 0.04859 0.0
C360 C 0.12111 0.06855 1.01976 0.0
C361 C 0.10549 0.05393 0.97237 0.0
C362 C 0.1221 1.00015 0.94291 0.0
C363 C 0.15144 0.96007 0.96008 0.0
C364 C 0.16466 0.97323 1.00645 0.0
C365 C 0.14982 0.0268 0.03625 0.0
H366 H 0.1885 0.08289 0.66203 0.0
C367 C 0.14963 0.07536 0.64062 0.0
H368 H 0.09494 0.08306 0.58372 0.0
H369 H 0.31883 0.18643 0.61862 0.0
H370 H 0.31713 0.22994 0.69924 0.0
H371 H 0.24 0.22925 0.72823 0.0
H372 H 0.1697 0.1773 0.67783 0.0
C373 C 0.13246 0.09329 0.60645 0.0
C374 C 0.17259 0.10542 0.58921 0.0
C375 C 0.20694 0.14407 0.61824 0.0
C376 C 0.247 0.15122 0.60112 0.0
C377 C 0.28632 0.18273 0.63074 0.0
C378 C 0.2852 0.20815 0.67662 0.0
C379 C 0.24228 0.20696 0.69289 0.0
C380 C 0.20269 0.17626 0.66384 0.0
H381 H 0.16844 0.15484 0.49076 0.0
C382 C 0.19358 0.18552 0.51261 0.0
H383 H 0.26729 0.20165 0.5538 0.0
H384 H 0.12706 0.01625 0.52663 0.0
H385 H 0.14642 0.96026 0.45139 0.0
H386 H 0.2092 0.98393 0.42201 0.0
H387 H 0.25459 0.06305 0.4692 0.0
C388 C 0.24244 0.17008 0.53445 0.0
C389 C 0.24517 0.12947 0.55437 0.0
C390 C 0.21962 0.08389 0.52768 0.0
C391 C 0.1823 0.07211 0.54456 0.0
C392 C 0.15584 0.02724 0.5159 0.0
C393 C 0.16639 0.9951 0.47252 0.0
C394 C 0.20186 1.00826 0.45594 0.0
C395 C 0.22772 0.05295 0.48301 0.0
H396 H 0.69096 0.18218 0.04884 0.0
C397 C 0.71584 0.14309 0.04878 0.0
H398 H 0.71955 0.06852 0.05618 0.0
H399 H 0.52771 0.2151 0.17208 0.0
H400 H 0.59771 0.26233 0.22835 0.0
H401 H 0.68814 0.24543 0.21198 0.0
H402 H 0.7091 0.18141 0.13914 0.0
C403 C 0.69625 0.10881 0.05815 0.0
C404 C 0.64067 0.12194 0.06747 0.0
C405 C 0.6289 0.15958 0.11019 0.0
C406 C 0.57667 0.16909 0.11971 0.0
C407 C 0.56642 0.20656 0.16286 0.0
C408 C 0.60631 0.23385 0.19556 0.0
C409 C 0.65722 0.22434 0.18634 0.0
C410 C 0.66867 0.18757 0.14431 0.0
H411 H 0.4859 0.07214 0.09557 0.0
C412 C 0.4617 0.11288 0.10091 0.0
H413 H 0.45831 0.19276 0.10344 0.0
H414 H 0.64896 0.04899 0.98176 0.0
H415 H 0.57841 1.0035 0.92463 0.0
H416 H 0.48782 0.02056 0.94073 0.0
H417 H 0.4673 0.08266 1.01401 0.0
C418 C 0.4814 0.15141 0.09702 0.0
C419 C 0.53625 0.14055 0.08672 0.0
C420 C 0.54776 0.10369 0.04363 0.0
C421 C 0.59999 0.09424 1.03416 0.0
C422 C 0.61015 0.05751 0.9908 0.0
C423 C 0.56998 0.03124 0.95765 0.0
C424 C 0.51899 0.04081 0.96672 0.0
C425 C 0.50779 0.07651 1.00908 0.0
H426 H 0.99935 0.51627 0.56721 0.0
C427 C 0.04177 0.50382 0.579 0.0
H428 H 0.11958 0.52362 0.59736 0.0
H429 H 0.05757 0.67297 0.48173 0.0
H430 H 0.06578 0.58531 0.41859 0.0
H431 H 0.07183 0.49839 0.42805 0.0
H432 H 0.06963 0.49849 0.50069 0.0
C433 C 0.07691 0.53639 0.58701 0.0
C434 C 0.06121 0.58868 0.57886 0.0
C435 C 0.06159 0.58798 0.53602 0.0
C436 C 0.05815 0.63814 0.53057 0.0
C437 C 0.0599 0.63611 0.48769 0.0
C438 C 0.06463 0.58609 0.45119 0.0
C439 C 0.06808 0.53712 0.45652 0.0
C440 C 0.06678 0.53777 0.49839 0.0
H441 H 0.13571 0.74386 0.60673 0.0
C442 C 0.10365 0.76362 0.58682 0.0
H443 H 0.02903 0.75685 0.54195 0.0
H444 H 0.05355 0.60434 0.66383 0.0
H445 H 0.04047 0.69227 0.72609 0.0
H446 H 0.03261 0.77948 0.71639 0.0
H447 H 0.03882 0.77924 0.64477 0.0
C448 C 0.06005 0.74002 0.5643 0.0
C449 C 0.05501 0.68873 0.56812 0.0
C450 C 0.05041 0.68966 0.61007 0.0
C451 C 0.05396 0.63951 0.61549 0.0
C452 C 0.05082 0.64139 0.65799 0.0
C453 C 0.04321 0.69152 0.69391 0.0
C454 C 0.03887 0.74061 0.68847 0.0
C455 C 0.0426 0.73991 0.64719 0.0
H456 H 0.20842 0.32938 0.49684 0.0
C457 C 0.16653 0.33724 0.4818 0.0
H458 H 0.11017 0.3342 0.42287 0.0
H459 H 0.30848 0.15003 0.32439 0.0
H460 H 0.32947 0.11278 0.38312 0.0
H461 H 0.28287 0.15647 0.4475 0.0
H462 H 0.21716 0.23909 0.45538 0.0
C463 C 0.15254 0.32478 0.43629 0.0
C464 C 0.1885 0.29934 0.4008 0.0
C465 C 0.22528 0.24867 0.39521 0.0
C466 C 0.24908 0.22026 0.35545 0.0
C467 C 0.28755 0.17171 0.35251 0.0
C468 C 0.30009 0.14985 0.38592 0.0
C469 C 0.27413 0.1748 0.42246 0.0
C470 C 0.23693 0.22323 0.42701 0.0
H471 H 0.28416 0.24661 0.25744 0.0
C472 C 0.2721 0.20734 0.24595 0.0
H473 H 0.23658 0.15826 0.26151 0.0
H474 H 0.12902 0.39871 0.40195 0.0
H475 H 0.09865 0.42964 0.33934 0.0
H476 H 0.12534 0.3719 0.26601 0.0
H477 H 0.18713 0.28562 0.2556 0.0
C478 C 0.2463 0.19897 0.27255 0.0
C479 C 0.23299 0.23875 0.31865 0.0
C480 C 0.19642 0.28929 0.3243 0.0
C481 C 0.17668 0.32047 0.36582 0.0
C482 C 0.14273 0.37203 0.37067 0.0
C483 C 0.12521 0.39045 0.33509 0.0
C484 C 0.14083 0.3582 0.2939 0.0
C485 C 0.17638 0.30857 0.28844 0.0
H486 H 1.00347 0.35294 0.6554 0.0
C487 C 0.03665 0.31856 0.65009 0.0
H488 H 0.07883 0.24837 0.66319 0.0
H489 H 0.85513 0.28 0.74045 0.0
H490 H 0.80082 0.3037 0.67721 0.0
H491 H 0.84257 0.31753 0.62608 0.0
H492 H 0.93904 0.30474 0.63591 0.0
C493 C 0.04419 0.28108 0.66986 0.0
C494 C 0.01424 0.28196 0.70423 0.0
C495 C 0.95721 0.28728 0.69717 0.0
C496 C 0.93239 0.28036 0.72775 0.0
C497 C 0.87579 0.28582 0.71919 0.0
C498 C 0.8441 0.29903 0.68283 0.0
C499 C 0.86776 0.30635 0.65376 0.0
C500 C 0.92344 0.29955 0.66018 0.0
H501 H 0.9502 0.18801 0.7938 0.0
C502 C 0.92955 0.22899 0.81128 0.0
H503 H 0.91626 0.31325 0.82011 0.0
H504 H 0.12279 0.27691 0.73485 0.0
H505 H 0.1748 0.26072 0.8017 0.0
H506 H 0.13139 0.2479 0.85276 0.0
H507 H 0.03553 0.24958 0.83643 0.0
C508 C 0.93532 0.27189 0.80212 0.0
C509 C 0.96345 0.26817 0.76603 0.0
C510 C 0.01996 0.26426 0.77387 0.0
C511 C 0.04508 0.27133 0.74362 0.0
C512 C 0.10142 0.26984 0.7549 0.0
C513 C 0.13191 0.26125 0.79368 0.0
C514 C 0.10751 0.25401 0.82243 0.0
C515 C 0.05236 0.25524 0.81273 0.0
H516 H 0.10015 0.88195 0.4625 0.0
C517 C 0.08091 0.9174 0.48759 0.0
H518 H 0.02936 0.99293 0.50008 0.0
H519 H 0.01077 0.05909 0.33589 0.0
H520 H 0.0295 0.13988 0.40121 0.0
H521 H 0.0482 0.13928 0.47768 0.0
H522 H 0.04522 0.05914 0.48972 0.0
C523 C 0.0448 0.95657 0.47353 0.0
C524 C 0.02925 0.957 0.42501 0.0
C525 C 0.0265 1.00656 0.41803 0.0
C526 C 0.01483 1.00766 0.3732 0.0
C527 C 0.01719 0.05629 0.36843 0.0
C528 C 0.02856 0.10313 0.40583 0.0
C529 C 0.03859 0.10285 0.44889 0.0
C530 C 0.03713 0.05575 0.45516 0.0
H531 H 0.93398 0.02248 0.28175 0.0
C532 C 0.96191 0.98837 0.26343 0.0
H533 H 0.0273 0.92435 0.26774 0.0
H534 H 0.01971 0.8571 0.42156 0.0
H535 H 0.99701 0.7782 0.35569 0.0
H536 H 0.97613 0.78118 0.27969 0.0
H537 H 0.97748 0.86376 0.26939 0.0
C538 C 0.99864 0.95732 0.28604 0.0
C539 C 1.00277 0.96049 0.33421 0.0
C540 C 1.00252 0.91206 0.3411 0.0
C541 C 0.01548 0.91015 0.3857 0.0
C542 C 0.01254 0.86106 0.38952 0.0
C543 C 0.99891 0.81521 0.35169 0.0
C544 C 0.9871 0.81689 0.30892 0.0
C545 C 0.9885 0.86458 0.30352 0.0
H546 H 0.21182 0.97153 0.73131 0.0
C547 C 0.172 0.96906 0.73223 0.0
H548 H 0.11906 0.98012 0.77386 0.0
H549 H 0.27564 0.96693 0.95101 0.0
H550 H 0.2613 0.87249 0.9143 0.0
H551 H 0.21486 0.83729 0.83513 0.0
H552 H 0.18435 0.89585 0.79144 0.0
C553 C 0.15916 0.98325 0.77329 0.0
C554 C 0.1962 1.00195 0.81934 0.0
C555 C 0.21168 0.96906 0.84612 0.0
C556 C 0.23755 0.99021 0.89284 0.0
C557 C 0.25524 0.95401 0.91639 0.0
C558 C 0.24739 0.89946 0.89554 0.0
C559 C 0.22109 0.87964 0.85096 0.0
C560 C 0.20335 0.91382 0.82641 0.0
H561 H 0.23414 0.05125 0.99964 0.0
C562 C 0.26572 0.07152 1.00184 0.0
H563 H 0.30933 0.09043 0.96782 0.0
H564 H 0.18007 0.0743 0.77817 0.0
H565 H 0.20142 0.16577 0.81208 0.0
H566 H 0.23753 0.20604 0.89319 0.0
H567 H 0.25682 0.15358 0.94086 0.0
C568 C 0.27719 0.06933 0.96321 0.0
C569 C 0.24672 0.04574 0.91435 0.0
C570 C 0.23276 0.07797 0.88675 0.0
C571 C 0.20886 0.0558 0.83963 0.0
C572 C 0.19747 0.08887 0.8137 0.0
C573 C 0.20912 0.14183 0.83287 0.0
C574 C 0.23014 0.16422 0.87854 0.0
C575 C 0.24149 0.1332 0.90538 0.0
H576 H 0.86639 0.95622 0.91712 0.0
C577 C 0.82525 0.97822 0.91487 0.0
H578 H 0.74748 0.98061 0.87661 0.0
H579 H 0.8521 0.92946 0.71148 0.0
H580 H 0.80074 0.02081 0.72337 0.0
H581 H 0.7497 0.06852 0.78532 0.0
H582 H 0.75002 0.025 0.83546 0.0
C583 C 0.78841 0.95799 0.87808 0.0
C584 C 0.80669 0.92321 0.83452 0.0
C585 C 0.80326 0.94827 0.80374 0.0
C586 C 0.83196 0.92044 0.76761 0.0
C587 C 0.8306 0.94789 0.73909 0.0
C588 C 0.80124 1.00066 0.74557 0.0
C589 C 0.7726 0.02751 0.78043 0.0
C590 C 0.77342 1.00191 0.80922 0.0
H591 H 0.83886 0.81126 0.67242 0.0
C592 C 0.87933 0.8206 0.68382 0.0
H593 H 0.9398 0.84968 0.7405 0.0
H594 H 0.81006 0.85981 0.88042 0.0
H595 H 0.86053 0.76659 0.86808 0.0
H596 H 0.91293 0.71906 0.8069 0.0
H597 H 0.9144 0.76372 0.75724 0.0
C598 C 0.89883 0.84193 0.72829 0.0
C599 C 0.86276 0.86703 0.76167 0.0
C600 C 0.8629 0.84053 0.79038 0.0
C601 C 0.83413 0.86845 0.8265 0.0
C602 C 0.83343 0.84077 0.85396 0.0
C603 C 0.86165 0.78736 0.84683 0.0
C604 C 0.891 0.7605 0.81225 0.0
C605 C 0.89164 0.78655 0.78411 0.0
H606 H 0.33009 0.99993 0.30889 0.0
C607 C 0.3699 1.01001 0.32527 0.0
H608 H 0.43654 1.00557 0.37705 0.0
H609 H 0.3424 0.98408 0.51857 0.0
H610 H 0.36898 0.07387 0.55877 0.0
H611 H 0.3952 0.11909 0.5187 0.0
H612 H 0.39675 0.07408 0.43865 0.0
C613 C 0.39645 0.99619 0.36108 0.0
C614 C 0.37231 0.97195 0.38288 0.0
C615 C 0.37068 0.99933 0.42969 0.0
C616 C 0.35423 0.97398 0.45266 0.0
C617 C 0.35473 1.00146 0.49959 0.0
C618 C 0.3696 0.05315 0.52302 0.0
C619 C 0.38432 0.07861 0.50045 0.0
C620 C 0.38513 0.05218 0.45444 0.0
H621 H 0.4041 0.87084 0.47911 0.0
C622 C 0.36277 0.86866 0.47728 0.0
H623 H 0.28188 0.88975 0.44735 0.0
H624 H 0.37521 0.90413 0.29408 0.0
H625 H 0.34218 0.81802 0.25358 0.0
H626 H 0.30485 0.77927 0.29207 0.0
H627 H 0.30157 0.82614 0.3718 0.0
C628 C 0.32345 0.89376 0.45293 0.0
C629 C 0.33709 0.92238 0.42855 0.0
C630 C 0.33569 0.89642 0.38139 0.0
C631 C 0.35497 0.92017 0.35874 0.0
C632 C 0.35813 0.89012 0.31259 0.0
C633 C 0.33987 0.84007 0.28894 0.0
C634 C 0.31901 0.81816 0.31063 0.0
C635 C 0.31728 0.84556 0.35639 0.0
H636 H 0.30907 0.32577 0.81967 0.0
C637 C 0.34525 0.32761 0.81092 0.0
H638 H 0.42953 0.30231 0.81853 0.0
H639 H 0.46708 0.26233 0.99904 0.0
H640 H 0.50389 0.34616 1.02699 0.0
H641 H 0.49137 0.39804 0.97822 0.0
H642 H 0.44225 0.36624 0.90106 0.0
C643 C 0.39282 0.30282 0.82773 0.0
C644 C 0.39707 0.27315 0.85782 0.0
C645 C 0.42484 0.29294 0.90312 0.0
C646 C 0.4316 0.26337 0.93144 0.0
C647 C 0.46051 0.2834 0.97621 0.0
C648 C 0.48184 0.33146 0.99268 0.0
C649 C 0.47482 0.36065 0.9652 0.0
C650 C 0.44661 0.34189 0.92096 0.0
H651 H 0.41156 0.15859 0.99142 0.0
C652 C 0.3956 0.1875 0.97433 0.0
H653 H 0.45516 0.14583 0.93549 0.0
H654 H 0.34701 0.21961 0.77125 0.0
H655 H 0.31041 0.13579 0.74364 0.0
H656 H 0.31756 0.08795 0.79426 0.0
H657 H 0.36261 0.12285 0.87247 0.0
C658 C 0.42192 0.18018 0.94218 0.0
C659 C 0.41021 0.2143 0.91449 0.0
C660 C 0.38226 0.1945 0.86932 0.0
C661 C 0.37625 0.22346 0.84072 0.0
C662 C 0.35073 0.2008 0.79503 0.0
C663 C 0.32988 0.15242 0.77863 0.0
C664 C 0.33418 0.12527 0.80705 0.0
C665 C 0.3602 0.14572 0.85183 0.0
H666 H 0.86845 0.23534 0.09743 0.0
C667 C 0.90771 0.20947 0.10001 0.0
H668 H 0.98424 0.2003 0.14005 0.0
H669 H 0.00847 0.42105 0.28881 0.0
H670 H 0.043 0.43778 0.23478 0.0
H671 H 0.02717 0.37868 0.15353 0.0
H672 H 0.97957 0.30161 0.12634 0.0
C673 C 0.94498 0.22601 0.13682 0.0
C674 C 0.93305 0.27546 0.17679 0.0
C675 C 0.96227 0.31855 0.19177 0.0
C676 C 0.971 0.35254 0.23808 0.0
C677 C 1.00131 0.39466 0.25344 0.0
C678 C 0.02087 0.40441 0.22292 0.0
C679 C 0.01237 0.37091 0.17724 0.0
C680 C 0.98459 0.32736 0.16185 0.0
H681 H 0.03999 0.27144 0.27115 0.0
C682 C 0.029 0.29361 0.30432 0.0
H683 H 0.97689 0.36207 0.34208 0.0
H684 H 0.8596 0.20789 0.15641 0.0
H685 H 0.81207 0.20638 0.20859 0.0
H686 H 0.82654 0.26854 0.28877 0.0
H687 H 0.88988 0.33257 0.31698 0.0
C688 C 0.9895 0.33816 0.30988 0.0
C689 C 0.95191 0.34161 0.26852 0.0
C690 C 0.91145 0.30911 0.25184 0.0
C691 C 0.9029 0.27411 0.20569 0.0
C692 C 0.86725 0.23639 0.19086 0.0
C693 C 0.83968 0.235 0.22061 0.0
C694 C 0.8478 0.27 0.26577 0.0
C695 C 0.88385 0.30635 0.28152 0.0
loop_
_geom_bond_atom_site_label_1
_geom_bond_atom_site_label_2
_geom_bond_distance
_geom_bond_site_symmetry_2
_ccdc_geom_bond_type
Eu0 N31 2.657 . S
Eu0 N38 2.609 . S
Eu0 O44 2.558 1_554 S
Eu0 O45 2.612 . S
Eu0 O47 2.339 . S
Eu0 O48 2.563 1_554 S
Eu0 O49 2.419 . S
Eu0 O51 2.380 . S
Eu0 O52 2.432 . S
Eu0 C64 2.848 1_554 S
C1 C4 1.429 1_554 S
C1 C5 1.411 1_554 S
C1 N8 1.377 . S
C2 C4 1.420 . S
C2 C6 1.423 . S
C2 C14 1.392 . S
C3 C5 1.420 . S
C3 C6 1.351 . S
C3 H26 0.931 . S
C4 C1 1.429 1_556 S
C4 C2 1.420 . S
C4 N12 1.362 1_556 S
C5 C1 1.411 1_556 S
C5 C3 1.420 . S
C5 C10 1.395 1_556 S
C6 C2 1.423 . S
C6 C3 1.351 . S
C6 H18 0.930 . S
C7 C9 1.400 . S
C7 C10 1.386 . S
C7 H19 0.930 . S
N8 C1 1.377 . S
N8 C9 1.321 . S
N8 Eu11 2.609 . S
C9 C7 1.400 . S
C9 N8 1.321 . S
C9 H16 0.930 . S
C10 C5 1.395 1_554 S
C10 C7 1.386 . S
C10 H29 0.930 1_554 S
Eu11 N8 2.609 . S
Eu11 N12 2.657 . S
Eu11 O45 2.380 1_565 S
Eu11 O46 2.432 1_565 S
Eu11 O50 2.558 . S
Eu11 O51 2.612 1_565 S
Eu11 O53 2.339 1_565 S
Eu11 O54 2.563 1_565 S
Eu11 O55 2.419 . S
Eu11 C75 2.848 . S
N12 C4 1.362 1_554 S
N12 Eu11 2.657 . S
N12 C13 1.334 1_554 S
C13 N12 1.334 1_556 S
C13 C15 1.413 . S
C13 H20 0.929 . S
C14 C2 1.392 . S
C14 C15 1.367 . S
C14 H22 0.930 . S
C15 C13 1.413 . S
C15 C14 1.367 . S
C15 H17 0.930 . S
H16 C9 0.930 . S
H17 C15 0.930 . S
H18 C6 0.930 . S
H19 C7 0.930 . S
H20 C13 0.929 . S
H21 C35 0.930 . S
H22 C14 0.930 . S
H23 C41 0.930 . S
H24 C32 0.929 . S
H25 C39 0.930 . S
H26 C3 0.931 . S
H27 C33 0.930 . S
H28 C66 0.930 . S
H29 C10 0.930 1_556 S
H30 C65 0.931 . S
N31 Eu0 2.657 . S
N31 C32 1.334 . S
N31 C36 1.362 . S
C32 H24 0.929 . S
C32 N31 1.334 . S
C32 C35 1.413 . S
C33 H27 0.930 . S
C33 C34 1.392 . S
C33 C35 1.367 . S
C34 C33 1.392 . S
C34 C36 1.420 . S
C34 C66 1.423 . S
C35 H21 0.930 . S
C35 C32 1.413 . S
C35 C33 1.367 . S
C36 N31 1.362 . S
C36 C34 1.420 . S
C36 C40 1.429 . S
H37 C42 0.930 . S
N38 Eu0 2.609 . S
N38 C40 1.377 . S
N38 C41 1.321 . S
C39 H25 0.930 . S
C39 C41 1.400 . S
C39 C42 1.386 . S
C40 C36 1.429 . S
C40 N38 1.377 . S
C40 C43 1.411 . S
C41 H23 0.930 . S
C41 N38 1.321 . S
C41 C39 1.400 . S
C42 H37 0.930 . S
C42 C39 1.386 . S
C42 C43 1.395 . S
C43 C40 1.411 . S
C43 C42 1.395 . S
C43 C65 1.420 . S
O44 Eu0 2.558 1_556 S
O44 C64 1.257 . S
O45 Eu0 2.612 . S
O45 Eu11 2.380 1_545 S
O45 C56 1.276 1_544 S
O46 Eu11 2.432 1_545 S
O46 C63 1.264 . S
O47 Eu0 2.339 . S
O47 C63 1.254 . S
O48 Eu0 2.563 1_556 S
O48 C56 1.235 1_545 S
O49 Eu0 2.419 . S
O49 C64 1.249 1_554 S
O50 Eu11 2.558 . S
O50 C75 1.257 . S
O51 Eu0 2.380 . S
O51 Eu11 2.612 1_545 S
O51 C67 1.276 . S
O52 Eu0 2.432 . S
O52 C74 1.264 . S
O53 Eu11 2.339 1_545 S
O53 C74 1.254 . S
O54 Eu11 2.563 1_545 S
O54 C67 1.235 . S
O55 Eu11 2.419 . S
O55 C75 1.249 . S
C56 O45 1.276 1_566 S
C56 O48 1.235 1_565 S
C57 C59 1.393 . S
C57 C61 1.395 . S
C57 C64 1.492 . S
C58 C59 1.392 . S
C58 C60 1.386 . S
C59 C57 1.393 . S
C59 C58 1.392 . S
C59 H76 0.930 . S
C60 C58 1.386 . S
C60 C62 1.395 . S
C60 H77 0.930 . S
C61 C57 1.395 . S
C61 C62 1.379 . S
C61 H78 0.930 . S
C62 C60 1.395 . S
C62 C61 1.379 . S
C62 H79 0.930 . S
C63 O46 1.264 . S
C63 O47 1.254 . S
C64 Eu0 2.848 1_556 S
C64 O44 1.257 . S
C64 O49 1.249 1_556 S
C64 C57 1.492 . S
C65 H30 0.931 . S
C65 C43 1.420 . S
C65 C66 1.351 . S
C66 H28 0.930 . S
C66 C34 1.423 . S
C66 C65 1.351 . S
C67 O51 1.276 . S
C67 O54 1.235 . S
C68 C69 1.393 . S
C68 C72 1.395 . S
C68 C75 1.492 . S
C69 C68 1.393 . S
C69 C70 1.392 . S
C69 H80 0.930 . S
C70 C69 1.392 . S
C70 C71 1.386 . S
C71 C70 1.386 . S
C71 C73 1.395 . S
C71 H81 0.930 . S
C72 C68 1.395 . S
C72 C73 1.379 . S
C72 H82 0.930 . S
C73 C71 1.395 . S
C73 C72 1.379 . S
C73 H83 0.930 . S
C74 O52 1.264 . S
C74 O53 1.254 . S
C75 Eu11 2.848 . S
C75 O50 1.257 . S
C75 O55 1.249 . S
C75 C68 1.492 . S
H76 C59 0.930 . S
H77 C60 0.930 . S
H78 C61 0.930 . S
H79 C62 0.930 . S
H80 C69 0.930 . S
H81 C71 0.930 . S
H82 C72 0.930 . S
H83 C73 0.930 . S
Eu84 N115 2.657 1_455 S
Eu84 N122 2.609 1_455 S
Eu84 O128 2.558 . S
Eu84 O129 2.612 . S
Eu84 O131 2.339 . S
Eu84 O132 2.563 . S
Eu84 O133 2.417 1_455 S
Eu84 O135 2.380 . S
Eu84 O136 2.432 . S
Eu84 C148 2.848 1_455 S
C85 C88 1.429 . S
C85 C89 1.411 . S
C85 N92 1.377 . S
C86 C88 1.420 . S
C86 C90 1.423 . S
C86 C98 1.392 . S
C87 C89 1.420 . S
C87 C90 1.351 . S
C87 H110 0.931 . S
C88 C85 1.429 . S
C88 C86 1.420 . S
C88 N96 1.362 . S
C89 C85 1.411 . S
C89 C87 1.420 . S
C89 C94 1.395 . S
C90 C86 1.423 . S
C90 C87 1.351 . S
C90 H102 0.930 . S
C91 C93 1.400 . S
C91 C94 1.386 . S
C91 H103 0.930 . S
N92 C85 1.377 . S
N92 C93 1.321 . S
N92 Eu95 2.609 . S
C93 C91 1.400 . S
C93 N92 1.321 . S
C93 H100 0.930 . S
C94 C89 1.395 . S
C94 C91 1.386 . S
C94 H113 0.930 . S
Eu95 N92 2.609 . S
Eu95 N96 2.657 . S
Eu95 O129 2.380 . S
Eu95 O130 2.432 . S
Eu95 O134 2.558 . S
Eu95 O135 2.612 . S
Eu95 O137 2.339 . S
Eu95 O138 2.563 . S
Eu95 O139 2.419 . S
Eu95 C159 2.848 . S
N96 C88 1.362 . S
N96 Eu95 2.657 . S
N96 C97 1.334 . S
C97 N96 1.334 . S
C97 C99 1.413 . S
C97 H104 0.929 . S
C98 C86 1.392 . S
C98 C99 1.367 . S
C98 H106 0.930 . S
C99 C97 1.413 . S
C99 C98 1.367 . S
C99 H101 0.930 . S
H100 C93 0.930 . S
H101 C99 0.930 . S
H102 C90 0.930 . S
H103 C91 0.930 . S
H104 C97 0.929 . S
H105 C119 0.930 . S
H106 C98 0.930 . S
H107 C125 0.945 . S
H108 C116 0.922 1_455 S
H109 C123 0.930 . S
H110 C87 0.931 . S
H111 C117 0.930 . S
H112 C150 0.930 . S
H113 C94 0.930 . S
H114 C149 0.931 . S
N115 Eu84 2.657 1_655 S
N115 C116 1.334 . S
N115 C120 1.362 . S
C116 H108 0.922 1_655 S
C116 N115 1.334 . S
C116 C119 1.413 . S
C117 H111 0.930 . S
C117 C118 1.392 . S
C117 C119 1.367 . S
C118 C117 1.392 . S
C118 C120 1.420 . S
C118 C150 1.423 . S
C119 H105 0.930 . S
C119 C116 1.413 . S
C119 C117 1.367 . S
C120 N115 1.362 . S
C120 C118 1.420 . S
C120 C124 1.429 . S
H121 C126 0.930 . S
N122 Eu84 2.609 1_655 S
N122 C124 1.377 . S
N122 C125 1.321 . S
C123 H109 0.930 . S
C123 C125 1.400 . S
C123 C126 1.386 . S
C124 C120 1.429 . S
C124 N122 1.377 . S
C124 C127 1.411 . S
C125 H107 0.945 . S
C125 N122 1.321 . S
C125 C123 1.400 . S
C126 H121 0.930 . S
C126 C123 1.386 . S
C126 C127 1.395 . S
C127 C124 1.411 . S
C127 C126 1.395 . S
C127 C149 1.420 . S
O128 Eu84 2.558 . S
O128 C148 1.257 1_455 S
O129 Eu84 2.612 . S
O129 Eu95 2.380 . S
O129 C140 1.276 . S
O130 Eu95 2.432 . S
O130 C147 1.264 . S
O131 Eu84 2.339 . S
O131 C147 1.254 . S
O132 Eu84 2.563 . S
O132 C140 1.235 . S
O133 Eu84 2.417 1_655 S
O133 C148 1.251 . S
O134 Eu95 2.558 . S
O134 C159 1.257 . S
O135 Eu84 2.380 . S
O135 Eu95 2.612 . S
O135 C151 1.276 . S
O136 Eu84 2.432 . S
O136 C158 1.264 . S
O137 Eu95 2.339 . S
O137 C158 1.254 . S
O138 Eu95 2.563 . S
O138 C151 1.235 . S
O139 Eu95 2.419 . S
O139 C159 1.249 . S
C140 O129 1.276 . S
C140 O132 1.235 . S
C141 C143 1.393 . S
C141 C145 1.395 . S
C141 C148 1.492 . S
C142 C143 1.392 . S
C142 C144 1.386 . S
C143 C141 1.393 . S
C143 C142 1.392 . S
C143 H160 0.930 . S
C144 C142 1.386 . S
C144 C146 1.395 . S
C144 H161 0.930 . S
C145 C141 1.395 . S
C145 C146 1.379 . S
C145 H162 0.930 . S
C146 C144 1.395 . S
C146 C145 1.379 . S
C146 H163 0.930 . S
C147 O130 1.264 . S
C147 O131 1.254 . S
C148 Eu84 2.848 1_655 S
C148 O128 1.257 1_655 S
C148 O133 1.251 . S
C148 C141 1.492 . S
C149 H114 0.931 . S
C149 C127 1.420 . S
C149 C150 1.351 . S
C150 H112 0.930 . S
C150 C118 1.423 . S
C150 C149 1.351 . S
C151 O135 1.276 . S
C151 O138 1.235 . S
C152 C153 1.393 . S
C152 C156 1.395 . S
C152 C159 1.492 . S
C153 C152 1.393 . S
C153 C154 1.392 . S
C153 H164 0.930 . S
C154 C153 1.392 . S
C154 C155 1.386 . S
C155 C154 1.386 . S
C155 C157 1.395 . S
C155 H165 0.930 . S
C156 C152 1.395 . S
C156 C157 1.379 . S
C156 H166 0.930 . S
C157 C155 1.395 . S
C157 C156 1.379 . S
C157 H167 0.930 . S
C158 O136 1.264 . S
C158 O137 1.254 . S
C159 Eu95 2.848 . S
C159 O134 1.257 . S
C159 O139 1.249 . S
C159 C152 1.492 . S
H160 C143 0.930 . S
H161 C144 0.930 . S
H162 C145 0.930 . S
H163 C146 0.930 . S
H164 C153 0.930 . S
H165 C155 0.930 . S
H166 C156 0.930 . S
H167 C157 0.930 . S
Eu168 N199 2.657 . S
Eu168 N206 2.609 . S
Eu168 O212 2.558 1_554 S
Eu168 O213 2.612 1_554 S
Eu168 O215 2.339 . S
Eu168 O216 2.563 1_554 S
Eu168 O217 2.419 1_554 S
Eu168 O219 2.380 . S
Eu168 O220 2.432 . S
Eu168 C232 2.848 1_554 S
C169 C172 1.429 . S
C169 C173 1.411 . S
C169 N176 1.377 1_566 S
C170 C172 1.420 . S
C170 C174 1.423 . S
C170 C182 1.392 . S
C171 C173 1.420 . S
C171 C174 1.351 . S
C171 H194 0.931 . S
C172 C169 1.429 . S
C172 C170 1.420 . S
C172 N180 1.362 1_565 S
C173 C169 1.411 . S
C173 C171 1.420 . S
C173 C178 1.395 1_655 S
C174 C170 1.423 . S
C174 C171 1.351 . S
C174 H186 0.930 . S
C175 C177 1.406 1_565 S
C175 C178 1.386 1_554 S
C175 H187 0.930 . S
N176 C169 1.377 1_544 S
N176 C177 1.311 1_655 S
N176 Eu179 2.609 . S
C177 C175 1.406 1_545 S
C177 N176 1.311 1_455 S
C177 H184 0.934 . S
C178 C173 1.395 1_455 S
C178 C175 1.386 1_556 S
C178 H197 0.930 . S
Eu179 N176 2.609 . S
Eu179 N180 2.657 1_554 S
Eu179 O213 2.380 1_554 S
Eu179 O214 2.432 . S
Eu179 O218 2.558 . S
Eu179 O219 2.612 . S
Eu179 O221 2.339 . S
Eu179 O222 2.563 . S
Eu179 O223 2.419 . S
Eu179 C243 2.848 . S
N180 C172 1.362 1_545 S
N180 Eu179 2.657 1_556 S
N180 C181 1.334 . S
C181 N180 1.334 . S
C181 C183 1.413 1_545 S
C181 H188 0.929 . S
C182 C170 1.392 . S
C182 C183 1.367 . S
C182 H190 0.930 . S
C183 C181 1.413 1_565 S
C183 C182 1.367 . S
C183 H185 0.930 . S
H184 C177 0.934 . S
H185 C183 0.930 . S
H186 C174 0.930 . S
H187 C175 0.930 . S
H188 C181 0.929 . S
H189 C203 0.930 . S
H190 C182 0.930 . S
H191 C209 0.930 . S
H192 C200 0.929 . S
H193 C207 0.930 . S
H194 C171 0.931 . S
H195 C201 0.930 . S
H196 C234 0.930 . S
H197 C178 0.930 . S
H198 C233 0.931 . S
N199 Eu168 2.657 . S
N199 C200 1.334 . S
N199 C204 1.362 . S
C200 H192 0.929 . S
C200 N199 1.334 . S
C200 C203 1.413 . S
C201 H195 0.930 . S
C201 C202 1.392 . S
C201 C203 1.367 . S
C202 C201 1.392 . S
C202 C204 1.420 . S
C202 C234 1.423 . S
C203 H189 0.930 . S
C203 C200 1.413 . S
C203 C201 1.367 . S
C204 N199 1.362 . S
C204 C202 1.420 . S
C204 C208 1.429 . S
H205 C210 0.930 . S
N206 Eu168 2.609 . S
N206 C208 1.377 . S
N206 C209 1.321 . S
C207 H193 0.930 . S
C207 C209 1.400 . S
C207 C210 1.386 . S
C208 C204 1.429 . S
C208 N206 1.377 . S
C208 C211 1.411 . S
C209 H191 0.930 . S
C209 N206 1.321 . S
C209 C207 1.400 . S
C210 H205 0.930 . S
C210 C207 1.386 . S
C210 C211 1.395 . S
C211 C208 1.411 . S
C211 C210 1.395 . S
C211 C233 1.420 . S
O212 Eu168 2.558 1_556 S
O212 C232 1.257 . S
O213 Eu168 2.612 1_556 S
O213 Eu179 2.380 1_556 S
O213 C224 1.276 . S
O214 Eu179 2.432 . S
O214 C231 1.264 . S
O215 Eu168 2.339 . S
O215 C231 1.254 . S
O216 Eu168 2.563 1_556 S
O216 C224 1.235 . S
O217 Eu168 2.419 1_556 S
O217 C232 1.249 . S
O218 Eu179 2.558 . S
O218 C243 1.257 . S
O219 Eu168 2.380 . S
O219 Eu179 2.612 . S
O219 C235 1.276 . S
O220 Eu168 2.432 . S
O220 C242 1.264 . S
O221 Eu179 2.339 . S
O221 C242 1.254 . S
O222 Eu179 2.563 . S
O222 C235 1.235 . S
O223 Eu179 2.419 . S
O223 C243 1.249 . S
C224 O213 1.276 . S
C224 O216 1.235 . S
C225 C227 1.393 . S
C225 C229 1.395 . S
C225 C232 1.492 . S
C226 C227 1.392 . S
C226 C228 1.386 . S
C227 C225 1.393 . S
C227 C226 1.392 . S
C227 H244 0.930 . S
C228 C226 1.386 . S
C228 C230 1.395 . S
C228 H245 0.930 . S
C229 C225 1.395 . S
C229 C230 1.379 . S
C229 H246 0.930 . S
C230 C228 1.395 . S
C230 C229 1.379 . S
C230 H247 0.930 . S
C231 O214 1.264 . S
C231 O215 1.254 . S
C232 Eu168 2.848 1_556 S
C232 O212 1.257 . S
C232 O217 1.249 . S
C232 C225 1.492 . S
C233 H198 0.931 . S
C233 C211 1.420 . S
C233 C234 1.351 . S
C234 H196 0.930 . S
C234 C202 1.423 . S
C234 C233 1.351 . S
C235 O219 1.276 . S
C235 O222 1.235 . S
C236 C237 1.393 . S
C236 C240 1.395 1_545 S
C236 C243 1.492 . S
C237 C236 1.393 . S
C237 C238 1.392 . S
C237 H248 0.930 . S
C238 C237 1.392 . S
C238 C239 1.386 1_545 S
C239 C238 1.386 1_565 S
C239 C241 1.395 . S
C239 H249 0.930 . S
C240 C236 1.395 1_565 S
C240 C241 1.379 . S
C240 H250 0.930 . S
C241 C239 1.395 . S
C241 C240 1.379 . S
C241 H251 0.930 . S
C242 O220 1.264 . S
C242 O221 1.254 . S
C243 Eu179 2.848 . S
C243 O218 1.257 . S
C243 O223 1.249 . S
C243 C236 1.492 . S
H244 C227 0.930 . S
H245 C228 0.930 . S
H246 C229 0.930 . S
H247 C230 0.930 . S
H248 C237 0.930 . S
H249 C239 0.930 . S
H250 C240 0.930 . S
H251 C241 0.930 . S
Eu252 N283 2.657 1_455 S
Eu252 N290 2.609 1_455 S
Eu252 O296 2.558 1_455 S
Eu252 O297 2.612 . S
Eu252 O299 2.339 . S
Eu252 O300 2.563 . S
Eu252 O301 2.419 1_455 S
Eu252 O303 2.380 . S
Eu252 O304 2.432 . S
Eu252 C316 2.848 1_455 S
C253 C256 1.429 . S
C253 C257 1.411 . S
C253 N260 1.377 . S
C254 C256 1.420 . S
C254 C258 1.423 . S
C254 C266 1.392 . S
C255 C257 1.420 . S
C255 C258 1.351 . S
C255 H278 0.931 . S
C256 C253 1.429 . S
C256 C254 1.420 . S
C256 N264 1.362 . S
C257 C253 1.411 . S
C257 C255 1.420 . S
C257 C262 1.395 . S
C258 C254 1.423 . S
C258 C255 1.351 . S
C258 H270 0.930 . S
C259 C261 1.400 . S
C259 C262 1.386 . S
C259 H271 0.930 . S
N260 C253 1.377 . S
N260 C261 1.321 . S
N260 Eu263 2.609 . S
C261 C259 1.400 . S
C261 N260 1.321 . S
C261 H268 0.930 . S
C262 C257 1.395 . S
C262 C259 1.386 . S
C262 H281 0.930 . S
Eu263 N260 2.609 . S
Eu263 N264 2.657 . S
Eu263 O297 2.380 . S
Eu263 O298 2.432 . S
Eu263 O302 2.558 . S
Eu263 O303 2.612 . S
Eu263 O305 2.339 . S
Eu263 O306 2.563 . S
Eu263 O307 2.419 . S
Eu263 C327 2.848 . S
N264 C256 1.362 . S
N264 Eu263 2.657 . S
N264 C265 1.334 . S
C265 N264 1.334 . S
C265 C267 1.413 . S
C265 H272 0.929 . S
C266 C254 1.392 . S
C266 C267 1.367 . S
C266 H274 0.930 . S
C267 C265 1.413 . S
C267 C266 1.367 . S
C267 H269 0.930 . S
H268 C261 0.930 . S
H269 C267 0.930 . S
H270 C258 0.930 . S
H271 C259 0.930 . S
H272 C265 0.929 . S
H273 C287 0.930 . S
H274 C266 0.930 . S
H275 C293 0.930 . S
H276 C284 0.929 . S
H277 C291 0.930 . S
H278 C255 0.931 . S
H279 C285 0.930 . S
H280 C318 0.930 . S
H281 C262 0.930 . S
H282 C317 0.931 . S
N283 Eu252 2.657 1_655 S
N283 C284 1.334 . S
N283 C288 1.362 . S
C284 H276 0.929 . S
C284 N283 1.334 . S
C284 C287 1.413 . S
C285 H279 0.930 . S
C285 C286 1.392 . S
C285 C287 1.367 . S
C286 C285 1.392 . S
C286 C288 1.420 . S
C286 C318 1.423 . S
C287 H273 0.930 . S
C287 C284 1.413 . S
C287 C285 1.367 . S
C288 N283 1.362 . S
C288 C286 1.420 . S
C288 C292 1.429 . S
H289 C294 0.930 . S
N290 Eu252 2.609 1_655 S
N290 C292 1.377 . S
N290 C293 1.321 1_565 S
C291 H277 0.930 . S
C291 C293 1.400 . S
C291 C294 1.386 . S
C292 C288 1.429 . S
C292 N290 1.377 . S
C292 C295 1.411 1_565 S
C293 H275 0.930 . S
C293 N290 1.321 1_545 S
C293 C291 1.400 . S
C294 H289 0.930 . S
C294 C291 1.386 . S
C294 C295 1.395 . S
C295 C292 1.411 1_545 S
C295 C294 1.395 . S
C295 C317 1.420 . S
O296 Eu252 2.558 1_655 S
O296 C316 1.257 . S
O297 Eu252 2.612 . S
O297 Eu263 2.380 . S
O297 C308 1.276 . S
O298 Eu263 2.432 . S
O298 C315 1.264 . S
O299 Eu252 2.339 . S
O299 C315 1.254 . S
O300 Eu252 2.563 . S
O300 C308 1.235 . S
O301 Eu252 2.419 1_655 S
O301 C316 1.249 . S
O302 Eu263 2.558 . S
O302 C327 1.257 . S
O303 Eu252 2.380 . S
O303 Eu263 2.612 . S
O303 C319 1.276 . S
O304 Eu252 2.432 . S
O304 C326 1.264 . S
O305 Eu263 2.339 . S
O305 C326 1.254 . S
O306 Eu263 2.563 . S
O306 C319 1.235 . S
O307 Eu263 2.419 . S
O307 C327 1.249 . S
C308 O297 1.276 . S
C308 O300 1.235 . S
C309 C311 1.393 . S
C309 C313 1.395 1_565 S
C309 C316 1.492 . S
C310 C311 1.392 . S
C310 C312 1.386 . S
C311 C309 1.393 . S
C311 C310 1.392 . S
C311 H328 0.930 . S
C312 C310 1.386 . S
C312 C314 1.395 1_565 S
C312 H329 0.930 . S
C313 C309 1.395 1_545 S
C313 C314 1.379 . S
C313 H330 0.930 . S
C314 C312 1.395 1_545 S
C314 C313 1.379 . S
C314 H331 0.930 . S
C315 O298 1.264 . S
C315 O299 1.254 . S
C316 Eu252 2.848 1_655 S
C316 O296 1.257 . S
C316 O301 1.249 . S
C316 C309 1.492 . S
C317 H282 0.931 . S
C317 C295 1.420 . S
C317 C318 1.351 1_545 S
C318 H280 0.930 . S
C318 C286 1.423 . S
C318 C317 1.351 1_565 S
C319 O303 1.276 . S
C319 O306 1.235 . S
C320 C321 1.393 . S
C320 C324 1.395 . S
C320 C327 1.492 . S
C321 C320 1.393 . S
C321 C322 1.392 . S
C321 H332 0.930 . S
C322 C321 1.392 . S
C322 C323 1.386 . S
C323 C322 1.386 . S
C323 C325 1.395 . S
C323 H333 0.930 . S
C324 C320 1.395 . S
C324 C325 1.379 . S
C324 H334 0.930 . S
C325 C323 1.395 . S
C325 C324 1.379 . S
C325 H335 0.930 . S
C326 O304 1.264 . S
C326 O305 1.254 . S
C327 Eu263 2.848 . S
C327 O302 1.257 . S
C327 O307 1.249 . S
C327 C320 1.492 . S
H328 C311 0.930 . S
H329 C312 0.930 . S
H330 C313 0.930 . S
H331 C314 0.930 . S
H332 C321 0.930 . S
H333 C323 0.930 . S
H334 C324 0.930 . S
H335 C325 0.930 . S
H336 C337 0.951 . S
C337 H336 0.951 . S
C337 C343 1.265 1_655 S
H338 C343 0.950 . S
H339 C347 0.949 . S
H340 C348 0.950 . S
H341 C349 0.951 . S
H342 C350 0.951 . S
C343 C337 1.265 1_455 S
C343 H338 0.950 . S
C343 C344 1.478 . S
C344 C343 1.478 . S
C344 C345 1.397 . S
C344 C361 1.394 . S
C345 C344 1.397 . S
C345 C346 1.438 . S
C345 C350 1.429 . S
C346 C345 1.438 . S
C346 C347 1.428 . S
C346 C359 1.394 . S
C347 H339 0.949 . S
C347 C346 1.428 . S
C347 C348 1.345 . S
C348 H340 0.950 . S
C348 C347 1.345 . S
C348 C349 1.424 . S
C349 H341 0.951 . S
C349 C348 1.424 . S
C349 C350 1.347 . S
C350 H342 0.951 . S
C350 C345 1.429 . S
C350 C349 1.347 . S
H351 C352 0.951 . S
C352 H351 0.951 . S
C352 C358 1.265 . S
H353 C358 0.950 1_565 S
H354 C362 0.949 . S
H355 C363 0.950 . S
H356 C364 0.951 . S
H357 C365 0.951 1_565 S
C358 C352 1.265 . S
C358 H353 0.950 1_545 S
C358 C359 1.478 . S
C359 C346 1.394 . S
C359 C358 1.478 . S
C359 C360 1.397 . S
C360 C359 1.397 . S
C360 C361 1.438 . S
C360 C365 1.429 1_554 S
C361 C344 1.394 . S
C361 C360 1.438 . S
C361 C362 1.428 1_554 S
C362 H354 0.949 . S
C362 C361 1.428 1_556 S
C362 C363 1.345 . S
C363 H355 0.950 . S
C363 C362 1.345 . S
C363 C364 1.424 1_545 S
C364 H356 0.951 . S
C364 C363 1.424 1_565 S
C364 C365 1.347 1_565 S
C365 H357 0.951 1_545 S
C365 C360 1.429 1_556 S
C365 C364 1.347 1_545 S
H366 C367 0.951 . S
C367 H366 0.951 . S
C367 C373 1.265 1_565 S
H368 C373 0.950 . S
H369 C377 0.949 . S
H370 C378 0.950 . S
H371 C379 0.951 . S
H372 C380 0.951 . S
C373 C367 1.265 1_545 S
C373 H368 0.950 . S
C373 C374 1.478 . S
C374 C373 1.478 . S
C374 C375 1.397 . S
C374 C391 1.394 . S
C375 C374 1.397 . S
C375 C376 1.438 . S
C375 C380 1.429 . S
C376 C375 1.438 . S
C376 C377 1.428 . S
C376 C389 1.394 . S
C377 H369 0.949 . S
C377 C376 1.428 . S
C377 C378 1.345 . S
C378 H370 0.950 . S
C378 C377 1.345 . S
C378 C379 1.424 . S
C379 H371 0.951 . S
C379 C378 1.424 . S
C379 C380 1.347 . S
C380 H372 0.951 . S
C380 C375 1.429 . S
C380 C379 1.347 . S
H381 C382 0.951 . S
C382 H381 0.951 . S
C382 C388 1.265 . S
H383 C388 0.950 . S
H384 C392 0.949 1_565 S
H385 C393 0.957 . S
H386 C394 0.951 . S
H387 C395 0.951 . S
C388 C382 1.265 . S
C388 H383 0.950 . S
C388 C389 1.478 . S
C389 C376 1.394 . S
C389 C388 1.478 . S
C389 C390 1.397 . S
C390 C389 1.397 . S
C390 C391 1.438 . S
C390 C395 1.429 . S
C391 C374 1.394 . S
C391 C390 1.438 . S
C391 C392 1.428 . S
C392 H384 0.949 1_545 S
C392 C391 1.428 . S
C392 C393 1.350 1_545 S
C393 H385 0.957 . S
C393 C392 1.350 1_565 S
C393 C394 1.411 1_565 S
C394 H386 0.951 . S
C394 C393 1.411 1_545 S
C394 C395 1.347 . S
C395 H387 0.951 . S
C395 C390 1.429 . S
C395 C394 1.347 . S
H396 C397 0.951 . S
C397 H396 0.951 . S
C397 C403 1.265 . S
H398 C403 0.950 . S
H399 C407 0.949 . S
H400 C408 0.950 . S
H401 C409 0.951 . S
H402 C410 0.951 . S
C403 C397 1.265 . S
C403 H398 0.950 . S
C403 C404 1.478 . S
C404 C403 1.478 . S
C404 C405 1.397 . S
C404 C421 1.394 . S
C405 C404 1.397 . S
C405 C406 1.438 . S
C405 C410 1.429 . S
C406 C405 1.438 . S
C406 C407 1.428 . S
C406 C419 1.394 . S
C407 H399 0.949 . S
C407 C406 1.428 . S
C407 C408 1.345 . S
C408 H400 0.950 . S
C408 C407 1.345 . S
C408 C409 1.424 . S
C409 H401 0.951 . S
C409 C408 1.424 . S
C409 C410 1.347 . S
C410 H402 0.951 . S
C410 C405 1.429 . S
C410 C409 1.347 . S
H411 C412 0.951 . S
C412 H411 0.951 . S
C412 C418 1.265 . S
H413 C418 0.950 . S
H414 C422 0.949 . S
H415 C423 0.950 . S
H416 C424 0.951 . S
H417 C425 0.951 . S
C418 C412 1.265 . S
C418 H413 0.950 . S
C418 C419 1.478 . S
C419 C406 1.394 . S
C419 C418 1.478 . S
C419 C420 1.397 . S
C420 C419 1.397 . S
C420 C421 1.438 . S
C420 C425 1.429 1_554 S
C421 C404 1.394 . S
C421 C420 1.438 . S
C421 C422 1.428 1_554 S
C422 H414 0.949 . S
C422 C421 1.428 1_556 S
C422 C423 1.345 . S
C423 H415 0.950 . S
C423 C422 1.345 . S
C423 C424 1.424 . S
C424 H416 0.951 . S
C424 C423 1.424 . S
C424 C425 1.347 . S
C425 H417 0.951 . S
C425 C420 1.429 1_556 S
C425 C424 1.347 . S
H426 C427 0.951 . S
C427 H426 0.951 . S
C427 C433 1.265 . S
H428 C433 0.950 . S
H429 C437 0.949 . S
H430 C438 0.950 . S
H431 C439 0.951 . S
H432 C440 0.951 . S
C433 C427 1.265 . S
C433 H428 0.950 . S
C433 C434 1.478 . S
C434 C433 1.478 . S
C434 C435 1.397 . S
C434 C451 1.394 . S
C435 C434 1.397 . S
C435 C436 1.438 . S
C435 C440 1.429 . S
C436 C435 1.438 . S
C436 C437 1.428 . S
C436 C449 1.394 . S
C437 H429 0.949 . S
C437 C436 1.428 . S
C437 C438 1.345 . S
C438 H430 0.950 . S
C438 C437 1.345 . S
C438 C439 1.424 . S
C439 H431 0.951 . S
C439 C438 1.424 . S
C439 C440 1.347 . S
C440 H432 0.951 . S
C440 C435 1.429 . S
C440 C439 1.347 . S
H441 C442 0.951 . S
C442 H441 0.951 . S
C442 C448 1.265 . S
H443 C448 0.950 . S
H444 C452 0.949 . S
H445 C453 0.950 . S
H446 C454 0.951 . S
H447 C455 0.951 . S
C448 C442 1.265 . S
C448 H443 0.950 . S
C448 C449 1.478 . S
C449 C436 1.394 . S
C449 C448 1.478 . S
C449 C450 1.397 . S
C450 C449 1.397 . S
C450 C451 1.438 . S
C450 C455 1.429 . S
C451 C434 1.394 . S
C451 C450 1.438 . S
C451 C452 1.428 . S
C452 H444 0.949 . S
C452 C451 1.428 . S
C452 C453 1.345 . S
C453 H445 0.950 . S
C453 C452 1.345 . S
C453 C454 1.424 . S
C454 H446 0.951 . S
C454 C453 1.424 . S
C454 C455 1.347 . S
C455 H447 0.951 . S
C455 C450 1.429 . S
C455 C454 1.347 . S
H456 C457 0.951 . S
C457 H456 0.951 . S
C457 C463 1.265 . S
H458 C463 0.950 . S
H459 C467 0.949 . S
H460 C468 0.950 . S
H461 C469 0.951 . S
H462 C470 0.951 . S
C463 C457 1.265 . S
C463 H458 0.950 . S
C463 C464 1.478 . S
C464 C463 1.478 . S
C464 C465 1.397 . S
C464 C481 1.394 . S
C465 C464 1.397 . S
C465 C466 1.438 . S
C465 C470 1.429 . S
C466 C465 1.438 . S
C466 C467 1.428 . S
C466 C479 1.394 . S
C467 H459 0.949 . S
C467 C466 1.428 . S
C467 C468 1.345 . S
C468 H460 0.950 . S
C468 C467 1.345 . S
C468 C469 1.424 . S
C469 H461 0.951 . S
C469 C468 1.424 . S
C469 C470 1.347 . S
C470 H462 0.951 . S
C470 C465 1.429 . S
C470 C469 1.347 . S
H471 C472 0.951 . S
C472 H471 0.951 . S
C472 C478 1.265 . S
H473 C478 0.950 . S
H474 C482 0.949 . S
H475 C483 0.950 . S
H476 C484 0.951 . S
H477 C485 0.951 . S
C478 C472 1.265 . S
C478 H473 0.950 . S
C478 C479 1.478 . S
C479 C466 1.394 . S
C479 C478 1.478 . S
C479 C480 1.397 . S
C480 C479 1.397 . S
C480 C481 1.438 . S
C480 C485 1.429 . S
C481 C464 1.394 . S
C481 C480 1.438 . S
C481 C482 1.428 . S
C482 H474 0.949 . S
C482 C481 1.428 . S
C482 C483 1.345 . S
C483 H475 0.950 . S
C483 C482 1.345 . S
C483 C484 1.424 . S
C484 H476 0.951 . S
C484 C483 1.424 . S
C484 C485 1.347 . S
C485 H477 0.951 . S
C485 C480 1.429 . S
C485 C484 1.347 . S
H486 C487 0.951 . S
C487 H486 0.951 . S
C487 C493 1.265 1_455 S
H488 C493 0.950 . S
H489 C497 0.949 . S
H490 C498 0.950 . S
H491 C499 0.951 . S
H492 C500 0.951 . S
C493 C487 1.265 1_655 S
C493 H488 0.950 . S
C493 C494 1.478 . S
C494 C493 1.478 . S
C494 C495 1.397 . S
C494 C511 1.394 . S
C495 C494 1.397 . S
C495 C496 1.438 . S
C495 C500 1.429 . S
C496 C495 1.438 . S
C496 C497 1.428 . S
C496 C509 1.394 . S
C497 H489 0.949 . S
C497 C496 1.428 . S
C497 C498 1.345 . S
C498 H490 0.950 . S
C498 C497 1.345 . S
C498 C499 1.424 . S
C499 H491 0.951 . S
C499 C498 1.424 . S
C499 C500 1.347 . S
C500 H492 0.951 . S
C500 C495 1.429 . S
C500 C499 1.347 . S
H501 C502 0.951 . S
C502 H501 0.951 . S
C502 C508 1.265 . S
H503 C508 0.950 . S
H504 C512 0.949 . S
H505 C513 0.950 . S
H506 C514 0.951 . S
H507 C515 0.951 . S
C508 C502 1.265 . S
C508 H503 0.950 . S
C508 C509 1.478 . S
C509 C496 1.394 . S
C509 C508 1.478 . S
C509 C510 1.397 . S
C510 C509 1.397 . S
C510 C511 1.438 . S
C510 C515 1.429 . S
C511 C494 1.394 . S
C511 C510 1.438 . S
C511 C512 1.428 1_655 S
C512 H504 0.949 . S
C512 C511 1.428 1_455 S
C512 C513 1.345 . S
C513 H505 0.950 . S
C513 C512 1.345 . S
C513 C514 1.424 . S
C514 H506 0.951 . S
C514 C513 1.424 . S
C514 C515 1.347 1_455 S
C515 H507 0.951 . S
C515 C510 1.429 . S
C515 C514 1.347 1_655 S
H516 C517 0.951 1_455 S
C517 H516 0.951 1_655 S
C517 C523 1.265 . S
H518 C523 0.950 . S
H519 C527 0.949 . S
H520 C528 0.950 . S
H521 C529 0.951 . S
H522 C530 0.951 . S
C523 C517 1.265 . S
C523 H518 0.950 . S
C523 C524 1.478 . S
C524 C523 1.478 . S
C524 C525 1.397 . S
C524 C541 1.394 . S
C525 C524 1.397 . S
C525 C526 1.430 1_565 S
C525 C530 1.429 1_565 S
C526 C525 1.430 1_545 S
C526 C527 1.440 . S
C526 C539 1.390 1_545 S
C527 H519 0.949 . S
C527 C526 1.440 . S
C527 C528 1.345 . S
C528 H520 0.950 . S
C528 C527 1.345 . S
C528 C529 1.424 . S
C529 H521 0.951 . S
C529 C528 1.424 . S
C529 C530 1.347 . S
C530 H522 0.951 . S
C530 C525 1.429 1_545 S
C530 C529 1.347 . S
H531 C532 0.951 . S
C532 H531 0.951 . S
C532 C538 1.265 . S
H533 C538 0.950 . S
H534 C542 0.949 . S
H535 C543 0.950 . S
H536 C544 0.951 . S
H537 C545 0.951 . S
C538 C532 1.265 . S
C538 H533 0.950 . S
C538 C539 1.478 . S
C539 C526 1.390 1_565 S
C539 C538 1.478 . S
C539 C540 1.397 . S
C540 C539 1.397 . S
C540 C541 1.438 . S
C540 C545 1.429 . S
C541 C524 1.394 . S
C541 C540 1.438 . S
C541 C542 1.428 . S
C542 H534 0.949 . S
C542 C541 1.428 . S
C542 C543 1.345 . S
C543 H535 0.950 . S
C543 C542 1.345 . S
C543 C544 1.424 . S
C544 H536 0.951 . S
C544 C543 1.424 . S
C544 C545 1.347 . S
C545 H537 0.951 . S
C545 C540 1.429 . S
C545 C544 1.347 . S
H546 C547 0.951 . S
C547 H546 0.951 . S
C547 C553 1.265 . S
H548 C553 0.950 . S
H549 C557 0.949 . S
H550 C558 0.950 . S
H551 C559 0.951 . S
H552 C560 0.951 . S
C553 C547 1.265 . S
C553 H548 0.950 . S
C553 C554 1.478 . S
C554 C553 1.478 . S
C554 C555 1.397 . S
C554 C571 1.394 . S
C555 C554 1.397 . S
C555 C556 1.438 . S
C555 C560 1.429 . S
C556 C555 1.438 . S
C556 C557 1.428 . S
C556 C569 1.394 . S
C557 H549 0.949 . S
C557 C556 1.428 . S
C557 C558 1.345 . S
C558 H550 0.950 . S
C558 C557 1.345 . S
C558 C559 1.424 . S
C559 H551 0.951 . S
C559 C558 1.424 . S
C559 C560 1.347 . S
C560 H552 0.951 . S
C560 C555 1.429 . S
C560 C559 1.347 . S
H561 C562 0.951 . S
C562 H561 0.951 . S
C562 C568 1.265 . S
H563 C568 0.950 . S
H564 C572 0.949 . S
H565 C573 0.950 . S
H566 C574 0.951 . S
H567 C575 0.951 . S
C568 C562 1.265 . S
C568 H563 0.950 . S
C568 C569 1.478 . S
C569 C556 1.394 . S
C569 C568 1.478 . S
C569 C570 1.397 . S
C570 C569 1.397 . S
C570 C571 1.438 . S
C570 C575 1.429 1_565 S
C571 C554 1.394 . S
C571 C570 1.438 . S
C571 C572 1.428 . S
C572 H564 0.949 . S
C572 C571 1.428 . S
C572 C573 1.345 1_565 S
C573 H565 0.950 . S
C573 C572 1.345 1_545 S
C573 C574 1.424 . S
C574 H566 0.951 . S
C574 C573 1.424 . S
C574 C575 1.347 . S
C575 H567 0.951 . S
C575 C570 1.429 1_545 S
C575 C574 1.347 . S
H576 C577 0.951 . S
C577 H576 0.951 . S
C577 C583 1.265 . S
H578 C583 0.950 . S
H579 C587 0.949 . S
H580 C588 0.950 . S
H581 C589 0.951 . S
H582 C590 0.951 . S
C583 C577 1.265 . S
C583 H578 0.950 . S
C583 C584 1.478 . S
C584 C583 1.478 . S
C584 C585 1.397 . S
C584 C601 1.394 1_545 S
C585 C584 1.397 . S
C585 C586 1.438 . S
C585 C590 1.429 . S
C586 C585 1.438 . S
C586 C587 1.428 . S
C586 C599 1.394 1_545 S
C587 H579 0.949 . S
C587 C586 1.428 . S
C587 C588 1.345 . S
C588 H580 0.950 . S
C588 C587 1.345 . S
C588 C589 1.424 . S
C589 H581 0.951 . S
C589 C588 1.424 . S
C589 C590 1.347 . S
C590 H582 0.951 . S
C590 C585 1.429 . S
C590 C589 1.347 . S
H591 C592 0.951 . S
C592 H591 0.951 . S
C592 C598 1.265 . S
H593 C598 0.950 . S
H594 C602 0.949 . S
H595 C603 0.950 . S
H596 C604 0.951 . S
H597 C605 0.951 . S
C598 C592 1.265 . S
C598 H593 0.950 . S
C598 C599 1.478 . S
C599 C586 1.394 1_565 S
C599 C598 1.478 . S
C599 C600 1.397 . S
C600 C599 1.397 . S
C600 C601 1.438 . S
C600 C605 1.429 . S
C601 C584 1.394 1_565 S
C601 C600 1.438 . S
C601 C602 1.428 . S
C602 H594 0.949 . S
C602 C601 1.428 . S
C602 C603 1.345 . S
C603 H595 0.950 . S
C603 C602 1.345 . S
C603 C604 1.424 . S
C604 H596 0.951 . S
C604 C603 1.424 . S
C604 C605 1.347 . S
C605 H597 0.951 . S
C605 C600 1.429 . S
C605 C604 1.347 . S
H606 C607 0.951 . S
C607 H606 0.951 . S
C607 C613 1.265 . S
H608 C613 0.950 . S
H609 C617 0.949 . S
H610 C618 0.950 1_545 S
H611 C619 0.961 . S
H612 C620 0.951 . S
C613 C607 1.265 . S
C613 H608 0.950 . S
C613 C614 1.478 . S
C614 C613 1.478 . S
C614 C615 1.397 . S
C614 C631 1.394 . S
C615 C614 1.397 . S
C615 C616 1.438 . S
C615 C620 1.429 . S
C616 C615 1.438 . S
C616 C617 1.428 . S
C616 C629 1.394 . S
C617 H609 0.949 . S
C617 C616 1.428 . S
C617 C618 1.345 . S
C618 H610 0.950 1_565 S
C618 C617 1.345 . S
C618 C619 1.417 1_565 S
C619 H611 0.961 . S
C619 C618 1.417 1_545 S
C619 C620 1.343 1_545 S
C620 H612 0.951 . S
C620 C615 1.429 . S
C620 C619 1.343 1_565 S
H621 C622 0.951 . S
C622 H621 0.951 . S
C622 C628 1.265 . S
H623 C628 0.950 . S
H624 C632 0.949 . S
H625 C633 0.950 . S
H626 C634 0.951 . S
H627 C635 0.951 . S
C628 C622 1.265 . S
C628 H623 0.950 . S
C628 C629 1.478 . S
C629 C616 1.394 . S
C629 C628 1.478 . S
C629 C630 1.397 . S
C630 C629 1.397 . S
C630 C631 1.438 . S
C630 C635 1.429 . S
C631 C614 1.394 . S
C631 C630 1.438 . S
C631 C632 1.428 . S
C632 H624 0.949 . S
C632 C631 1.428 . S
C632 C633 1.345 . S
C633 H625 0.950 . S
C633 C632 1.345 . S
C633 C634 1.424 . S
C634 H626 0.951 . S
C634 C633 1.424 . S
C634 C635 1.347 . S
C635 H627 0.951 . S
C635 C630 1.429 . S
C635 C634 1.347 . S
H636 C637 0.951 . S
C637 H636 0.951 . S
C637 C643 1.265 . S
H638 C643 0.950 . S
H639 C647 0.949 . S
H640 C648 0.950 . S
H641 C649 0.951 . S
H642 C650 0.951 . S
C643 C637 1.265 . S
C643 H638 0.950 . S
C643 C644 1.478 . S
C644 C643 1.478 . S
C644 C645 1.397 . S
C644 C661 1.394 . S
C645 C644 1.397 . S
C645 C646 1.438 . S
C645 C650 1.429 . S
C646 C645 1.438 . S
C646 C647 1.428 . S
C646 C659 1.394 . S
C647 H639 0.949 . S
C647 C646 1.428 . S
C647 C648 1.345 . S
C648 H640 0.950 . S
C648 C647 1.345 . S
C648 C649 1.424 . S
C649 H641 0.951 . S
C649 C648 1.424 . S
C649 C650 1.347 . S
C650 H642 0.951 . S
C650 C645 1.429 . S
C650 C649 1.347 . S
H651 C652 0.951 . S
C652 H651 0.951 . S
C652 C658 1.265 . S
H653 C658 0.950 . S
H654 C662 0.949 . S
H655 C663 0.950 . S
H656 C664 0.951 . S
H657 C665 0.951 . S
C658 C652 1.265 . S
C658 H653 0.950 . S
C658 C659 1.478 . S
C659 C646 1.394 . S
C659 C658 1.478 . S
C659 C660 1.397 . S
C660 C659 1.397 . S
C660 C661 1.438 . S
C660 C665 1.429 . S
C661 C644 1.394 . S
C661 C660 1.438 . S
C661 C662 1.428 . S
C662 H654 0.949 . S
C662 C661 1.428 . S
C662 C663 1.345 . S
C663 H655 0.950 . S
C663 C662 1.345 . S
C663 C664 1.424 . S
C664 H656 0.951 . S
C664 C663 1.424 . S
C664 C665 1.347 . S
C665 H657 0.951 . S
C665 C660 1.429 . S
C665 C664 1.347 . S
H666 C667 0.951 . S
C667 H666 0.951 . S
C667 C673 1.265 . S
H668 C673 0.950 . S
H669 C677 0.949 . S
H670 C678 0.950 . S
H671 C679 0.951 . S
H672 C680 0.951 . S
C673 C667 1.265 . S
C673 H668 0.950 . S
C673 C674 1.478 . S
C674 C673 1.478 . S
C674 C675 1.397 . S
C674 C691 1.394 . S
C675 C674 1.397 . S
C675 C676 1.438 . S
C675 C680 1.429 . S
C676 C675 1.438 . S
C676 C677 1.428 . S
C676 C689 1.394 . S
C677 H669 0.949 . S
C677 C676 1.428 . S
C677 C678 1.345 . S
C678 H670 0.950 . S
C678 C677 1.345 . S
C678 C679 1.424 . S
C679 H671 0.951 . S
C679 C678 1.424 . S
C679 C680 1.347 . S
C680 H672 0.951 . S
C680 C675 1.429 . S
C680 C679 1.347 . S
H681 C682 0.951 . S
C682 H681 0.951 . S
C682 C688 1.265 . S
H683 C688 0.950 . S
H684 C692 0.949 . S
H685 C693 0.950 . S
H686 C694 0.951 . S
H687 C695 0.951 . S
C688 C682 1.265 . S
C688 H683 0.950 . S
C688 C689 1.478 . S
C689 C676 1.394 . S
C689 C688 1.478 . S
C689 C690 1.397 . S
C690 C689 1.397 . S
C690 C691 1.438 . S
C690 C695 1.429 . S
C691 C674 1.394 . S
C691 C690 1.438 . S
C691 C692 1.428 . S
C692 H684 0.949 . S
C692 C691 1.428 . S
C692 C693 1.345 . S
C693 H685 0.950 . S
C693 C692 1.345 . S
C693 C694 1.424 . S
C694 H686 0.951 . S
C694 C693 1.424 . S
C694 C695 1.347 . S
C695 H687 0.951 . S
C695 C690 1.429 . S
C695 C694 1.347 . S
C337 C231 0.518 . S
C352 C74 0.519 . S
C367 C326 0.281 . S
C382 C158 0.328 . S
C397 C242 1.190 . S
C412 C63 1.190 . S
C427 C147 0.812 . S
C442 C315 0.852 . S
C457 C140 2.899 . S
C472 C67 2.992 . S
C487 C151 3.129 . S
C502 C226 3.174 . S
C517 C319 2.416 1_655 S
C532 C238 2.201 1_565 S
C547 C308 2.424 . S
C562 C56 2.219 . S
C577 C224 0.848 . S
C592 C310 0.732 . S
C607 C70 0.809 . S
C622 C322 0.679 . S
C637 C154 0.643 . S
C652 C58 1.029 . S
C667 C235 0.665 . S
C682 C142 0.982 . S
