# Generated by pormake.
# Topology son, (6)-cn, num edge types: 1
# Building blocks:
#     Node 0, Type 0, BuildingBlock: MIFKUJ_clean_sbu_0, # of connection points: 6
#     Node 1, Type 0, BuildingBlock: MIFKUJ_clean_sbu_0, # of connection points: 6
#     Node 2, Type 0, BuildingBlock: MIFKUJ_clean_sbu_0, # of connection points: 6
#     Node 3, Type 0, BuildingBlock: MIFKUJ_clean_sbu_0, # of connection points: 6
#     Node 4, Type 0, BuildingBlock: MIFKUJ_clean_sbu_0, # of connection points: 6
#     Node 5, Type 0, BuildingBlock: MIFKUJ_clean_sbu_0, # of connection points: 6
#     Node 6, Type 0, BuildingBlock: MIFKUJ_clean_sbu_0, # of connection points: 6
#     Node 7, Type 0, BuildingBlock: MIFKUJ_clean_sbu_0, # of connection points: 6
#     Node 8, Type 0, BuildingBlock: MIFKUJ_clean_sbu_0, # of connection points: 6
#     Node 9, Type 0, BuildingBlock: MIFKUJ_clean_sbu_0, # of connection points: 6
#     Node 10, Type 0, BuildingBlock: MIFKUJ_clean_sbu_0, # of connection points: 6
#     Node 11, Type 0, BuildingBlock: MIFKUJ_clean_sbu_0, # of connection points: 6
#     Node 12, Type 0, BuildingBlock: MIFKUJ_clean_sbu_0, # of connection points: 6
#     Node 13, Type 0, BuildingBlock: MIFKUJ_clean_sbu_0, # of connection points: 6
#     Node 14, Type 0, BuildingBlock: MIFKUJ_clean_sbu_0, # of connection points: 6
#     Node 15, Type 0, BuildingBlock: MIFKUJ_clean_sbu_0, # of connection points: 6
#     Node 16, Type 0, BuildingBlock: MIFKUJ_clean_sbu_0, # of connection points: 6
#     Node 17, Type 0, BuildingBlock: MIFKUJ_clean_sbu_0, # of connection points: 6
#     Node 18, Type 0, BuildingBlock: MIFKUJ_clean_sbu_0, # of connection points: 6
#     Node 19, Type 0, BuildingBlock: MIFKUJ_clean_sbu_0, # of connection points: 6
#     Node 20, Type 0, BuildingBlock: MIFKUJ_clean_sbu_0, # of connection points: 6
#     Node 21, Type 0, BuildingBlock: MIFKUJ_clean_sbu_0, # of connection points: 6
#     Node 22, Type 0, BuildingBlock: MIFKUJ_clean_sbu_0, # of connection points: 6
#     Node 23, Type 0, BuildingBlock: MIFKUJ_clean_sbu_0, # of connection points: 6
#     Node 24, Type 0, BuildingBlock: MIFKUJ_clean_sbu_0, # of connection points: 6
#     Node 25, Type 0, BuildingBlock: MIFKUJ_clean_sbu_0, # of connection points: 6
#     Node 26, Type 0, BuildingBlock: MIFKUJ_clean_sbu_0, # of connection points: 6
#     Node 27, Type 0, BuildingBlock: MIFKUJ_clean_sbu_0, # of connection points: 6
#     Node 28, Type 0, BuildingBlock: MIFKUJ_clean_sbu_0, # of connection points: 6
#     Node 29, Type 0, BuildingBlock: MIFKUJ_clean_sbu_0, # of connection points: 6
#     Node 30, Type 0, BuildingBlock: MIFKUJ_clean_sbu_0, # of connection points: 6
#     Node 31, Type 0, BuildingBlock: MIFKUJ_clean_sbu_0, # of connection points: 6
#     Edge 32, Type (0, 0), BuildingBlock: MIFKUJ_clean_linker_0, # of connection points: 2
#     Edge 33, Type (0, 0), BuildingBlock: MIFKUJ_clean_linker_0, # of connection points: 2
#     Edge 34, Type (0, 0), BuildingBlock: MIFKUJ_clean_linker_0, # of connection points: 2
#     Edge 35, Type (0, 0), BuildingBlock: MIFKUJ_clean_linker_0, # of connection points: 2
#     Edge 36, Type (0, 0), BuildingBlock: MIFKUJ_clean_linker_0, # of connection points: 2
#     Edge 37, Type (0, 0), BuildingBlock: MIFKUJ_clean_linker_0, # of connection points: 2
#     Edge 38, Type (0, 0), BuildingBlock: MIFKUJ_clean_linker_0, # of connection points: 2
#     Edge 39, Type (0, 0), BuildingBlock: MIFKUJ_clean_linker_0, # of connection points: 2
#     Edge 40, Type (0, 0), BuildingBlock: MIFKUJ_clean_linker_0, # of connection points: 2
#     Edge 41, Type (0, 0), BuildingBlock: MIFKUJ_clean_linker_0, # of connection points: 2
#     Edge 42, Type (0, 0), BuildingBlock: MIFKUJ_clean_linker_0, # of connection points: 2
#     Edge 43, Type (0, 0), BuildingBlock: MIFKUJ_clean_linker_0, # of connection points: 2
#     Edge 44, Type (0, 0), BuildingBlock: MIFKUJ_clean_linker_0, # of connection points: 2
#     Edge 45, Type (0, 0), BuildingBlock: MIFKUJ_clean_linker_0, # of connection points: 2
#     Edge 46, Type (0, 0), BuildingBlock: MIFKUJ_clean_linker_0, # of connection points: 2
#     Edge 47, Type (0, 0), BuildingBlock: MIFKUJ_clean_linker_0, # of connection points: 2
#     Edge 48, Type (0, 0), BuildingBlock: MIFKUJ_clean_linker_0, # of connection points: 2
#     Edge 49, Type (0, 0), BuildingBlock: MIFKUJ_clean_linker_0, # of connection points: 2
#     Edge 50, Type (0, 0), BuildingBlock: MIFKUJ_clean_linker_0, # of connection points: 2
#     Edge 51, Type (0, 0), BuildingBlock: MIFKUJ_clean_linker_0, # of connection points: 2
#     Edge 52, Type (0, 0), BuildingBlock: MIFKUJ_clean_linker_0, # of connection points: 2
#     Edge 53, Type (0, 0), BuildingBlock: MIFKUJ_clean_linker_0, # of connection points: 2
#     Edge 54, Type (0, 0), BuildingBlock: MIFKUJ_clean_linker_0, # of connection points: 2
#     Edge 55, Type (0, 0), BuildingBlock: MIFKUJ_clean_linker_0, # of connection points: 2
#     Edge 56, Type (0, 0), BuildingBlock: MIFKUJ_clean_linker_0, # of connection points: 2
#     Edge 57, Type (0, 0), BuildingBlock: MIFKUJ_clean_linker_0, # of connection points: 2
#     Edge 58, Type (0, 0), BuildingBlock: MIFKUJ_clean_linker_0, # of connection points: 2
#     Edge 59, Type (0, 0), BuildingBlock: MIFKUJ_clean_linker_0, # of connection points: 2
#     Edge 60, Type (0, 0), BuildingBlock: MIFKUJ_clean_linker_0, # of connection points: 2
#     Edge 61, Type (0, 0), BuildingBlock: MIFKUJ_clean_linker_0, # of connection points: 2
#     Edge 62, Type (0, 0), BuildingBlock: MIFKUJ_clean_linker_0, # of connection points: 2
#     Edge 63, Type (0, 0), BuildingBlock: MIFKUJ_clean_linker_0, # of connection points: 2
#     Edge 64, Type (0, 0), BuildingBlock: MIFKUJ_clean_linker_0, # of connection points: 2
#     Edge 65, Type (0, 0), BuildingBlock: MIFKUJ_clean_linker_0, # of connection points: 2
#     Edge 66, Type (0, 0), BuildingBlock: MIFKUJ_clean_linker_0, # of connection points: 2
#     Edge 67, Type (0, 0), BuildingBlock: MIFKUJ_clean_linker_0, # of connection points: 2
#     Edge 68, Type (0, 0), BuildingBlock: MIFKUJ_clean_linker_0, # of connection points: 2
#     Edge 69, Type (0, 0), BuildingBlock: MIFKUJ_clean_linker_0, # of connection points: 2
#     Edge 70, Type (0, 0), BuildingBlock: MIFKUJ_clean_linker_0, # of connection points: 2
#     Edge 71, Type (0, 0), BuildingBlock: MIFKUJ_clean_linker_0, # of connection points: 2
#     Edge 72, Type (0, 0), BuildingBlock: MIFKUJ_clean_linker_0, # of connection points: 2
#     Edge 73, Type (0, 0), BuildingBlock: MIFKUJ_clean_linker_0, # of connection points: 2
#     Edge 74, Type (0, 0), BuildingBlock: MIFKUJ_clean_linker_0, # of connection points: 2
#     Edge 75, Type (0, 0), BuildingBlock: MIFKUJ_clean_linker_0, # of connection points: 2
#     Edge 76, Type (0, 0), BuildingBlock: MIFKUJ_clean_linker_0, # of connection points: 2
#     Edge 77, Type (0, 0), BuildingBlock: MIFKUJ_clean_linker_0, # of connection points: 2
#     Edge 78, Type (0, 0), BuildingBlock: MIFKUJ_clean_linker_0, # of connection points: 2
#     Edge 79, Type (0, 0), BuildingBlock: MIFKUJ_clean_linker_0, # of connection points: 2
#     Edge 80, Type (0, 0), BuildingBlock: MIFKUJ_clean_linker_0, # of connection points: 2
#     Edge 81, Type (0, 0), BuildingBlock: MIFKUJ_clean_linker_0, # of connection points: 2
#     Edge 82, Type (0, 0), BuildingBlock: MIFKUJ_clean_linker_0, # of connection points: 2
#     Edge 83, Type (0, 0), BuildingBlock: MIFKUJ_clean_linker_0, # of connection points: 2
#     Edge 84, Type (0, 0), BuildingBlock: MIFKUJ_clean_linker_0, # of connection points: 2
#     Edge 85, Type (0, 0), BuildingBlock: MIFKUJ_clean_linker_0, # of connection points: 2
#     Edge 86, Type (0, 0), BuildingBlock: MIFKUJ_clean_linker_0, # of connection points: 2
#     Edge 87, Type (0, 0), BuildingBlock: MIFKUJ_clean_linker_0, # of connection points: 2
#     Edge 88, Type (0, 0), BuildingBlock: MIFKUJ_clean_linker_0, # of connection points: 2
#     Edge 89, Type (0, 0), BuildingBlock: MIFKUJ_clean_linker_0, # of connection points: 2
#     Edge 90, Type (0, 0), BuildingBlock: MIFKUJ_clean_linker_0, # of connection points: 2
#     Edge 91, Type (0, 0), BuildingBlock: MIFKUJ_clean_linker_0, # of connection points: 2
#     Edge 92, Type (0, 0), BuildingBlock: MIFKUJ_clean_linker_0, # of connection points: 2
#     Edge 93, Type (0, 0), BuildingBlock: MIFKUJ_clean_linker_0, # of connection points: 2
#     Edge 94, Type (0, 0), BuildingBlock: MIFKUJ_clean_linker_0, # of connection points: 2
#     Edge 95, Type (0, 0), BuildingBlock: MIFKUJ_clean_linker_0, # of connection points: 2
#     Edge 96, Type (0, 0), BuildingBlock: MIFKUJ_clean_linker_0, # of connection points: 2
#     Edge 97, Type (0, 0), BuildingBlock: MIFKUJ_clean_linker_0, # of connection points: 2
#     Edge 98, Type (0, 0), BuildingBlock: MIFKUJ_clean_linker_0, # of connection points: 2
#     Edge 99, Type (0, 0), BuildingBlock: MIFKUJ_clean_linker_0, # of connection points: 2
#     Edge 100, Type (0, 0), BuildingBlock: MIFKUJ_clean_linker_0, # of connection points: 2
#     Edge 101, Type (0, 0), BuildingBlock: MIFKUJ_clean_linker_0, # of connection points: 2
#     Edge 102, Type (0, 0), BuildingBlock: MIFKUJ_clean_linker_0, # of connection points: 2
#     Edge 103, Type (0, 0), BuildingBlock: MIFKUJ_clean_linker_0, # of connection points: 2
#     Edge 104, Type (0, 0), BuildingBlock: MIFKUJ_clean_linker_0, # of connection points: 2
#     Edge 105, Type (0, 0), BuildingBlock: MIFKUJ_clean_linker_0, # of connection points: 2
#     Edge 106, Type (0, 0), BuildingBlock: MIFKUJ_clean_linker_0, # of connection points: 2
#     Edge 107, Type (0, 0), BuildingBlock: MIFKUJ_clean_linker_0, # of connection points: 2
#     Edge 108, Type (0, 0), BuildingBlock: MIFKUJ_clean_linker_0, # of connection points: 2
#     Edge 109, Type (0, 0), BuildingBlock: MIFKUJ_clean_linker_0, # of connection points: 2
#     Edge 110, Type (0, 0), BuildingBlock: MIFKUJ_clean_linker_0, # of connection points: 2
#     Edge 111, Type (0, 0), BuildingBlock: MIFKUJ_clean_linker_0, # of connection points: 2
#     Edge 112, Type (0, 0), BuildingBlock: MIFKUJ_clean_linker_0, # of connection points: 2
#     Edge 113, Type (0, 0), BuildingBlock: MIFKUJ_clean_linker_0, # of connection points: 2
#     Edge 114, Type (0, 0), BuildingBlock: MIFKUJ_clean_linker_0, # of connection points: 2
#     Edge 115, Type (0, 0), BuildingBlock: MIFKUJ_clean_linker_0, # of connection points: 2
#     Edge 116, Type (0, 0), BuildingBlock: MIFKUJ_clean_linker_0, # of connection points: 2
#     Edge 117, Type (0, 0), BuildingBlock: MIFKUJ_clean_linker_0, # of connection points: 2
#     Edge 118, Type (0, 0), BuildingBlock: MIFKUJ_clean_linker_0, # of connection points: 2
#     Edge 119, Type (0, 0), BuildingBlock: MIFKUJ_clean_linker_0, # of connection points: 2
#     Edge 120, Type (0, 0), BuildingBlock: MIFKUJ_clean_linker_0, # of connection points: 2
#     Edge 121, Type (0, 0), BuildingBlock: MIFKUJ_clean_linker_0, # of connection points: 2
#     Edge 122, Type (0, 0), BuildingBlock: MIFKUJ_clean_linker_0, # of connection points: 2
#     Edge 123, Type (0, 0), BuildingBlock: MIFKUJ_clean_linker_0, # of connection points: 2
#     Edge 124, Type (0, 0), BuildingBlock: MIFKUJ_clean_linker_0, # of connection points: 2
#     Edge 125, Type (0, 0), BuildingBlock: MIFKUJ_clean_linker_0, # of connection points: 2
#     Edge 126, Type (0, 0), BuildingBlock: MIFKUJ_clean_linker_0, # of connection points: 2
#     Edge 127, Type (0, 0), BuildingBlock: MIFKUJ_clean_linker_0, # of connection points: 2
# Relax obj value: 0.040
# Max RMSD: 0.090
# Mean RMSD: 0.089
data_MOF--net-son--node1-MIFKUJ_clean_sbu_0--edge1-MIFKUJ_clean_linker_0
_symmetry_space_group_name_H-M    P1
_symmetry_Int_Tables_number       1
_symmetry_cell_setting            triclinic
loop_
_symmetry_equiv_pos_as_xyz
'x, y, z'
_cell_length_a     161.04981
_cell_length_b     70.796265
_cell_length_c     22.968139
_cell_angle_alpha  90.002019
_cell_angle_beta   90.026644
_cell_angle_gamma 90.010246
loop_
_atom_site_label
_atom_site_type_symbol
_atom_site_fract_x
_atom_site_fract_y
_atom_site_fract_z
_atom_type_partial_charge
Zn0 Zn 0.31958 0.2407 0.29581 0.0
Zn1 Zn 0.31158 0.24878 0.14795 0.0
C2 C 0.33715 0.23322 0.28723 0.0
O3 O 0.33434 0.2159 0.28154 0.0
C4 C 0.29445 0.25563 0.13071 0.0
O5 O 0.29781 0.27235 0.12277 0.0
O6 O 0.31834 0.2345 0.37952 0.0
O7 O 0.31178 0.26218 0.28057 0.0
O8 O 0.31403 0.27271 0.19118 0.0
C9 C 0.31706 0.24797 0.41461 0.0
O10 O 0.31662 0.26537 0.39519 0.0
O11 O 0.33197 0.24682 0.28925 0.0
C12 C 0.3135 0.23847 0.03318 0.0
O13 O 0.31227 0.22204 0.05814 0.0
O14 O 0.3136 0.25339 0.06377 0.0
O15 O 0.31925 0.22729 0.16756 0.0
O16 O 0.31613 0.21759 0.25572 0.0
O17 O 0.29914 0.24218 0.14772 0.0
C18 C 0.31279 0.27566 0.24499 0.0
C19 C 0.31708 0.21429 0.20212 0.0
Zn20 Zn 0.93929 0.99242 0.29423 0.0
Zn21 Zn 0.94904 0.9829 0.14337 0.0
C22 C 0.92216 -0.00069 0.29783 0.0
O23 O 0.92513 0.0165 0.3028 0.0
C24 C 0.96581 0.97241 0.12092 0.0
O25 O 0.96217 0.9567 0.10436 0.0
O26 O 0.94169 -0.00178 0.37692 0.0
O27 O 0.94719 0.97134 0.27478 0.0
O28 O 0.94516 0.96006 0.18678 0.0
C29 C 0.9383 0.98707 0.41291 0.0
O30 O 0.93331 0.97381 0.39373 0.0
O31 O 0.92713 0.9855 0.29108 0.0
C32 C 0.94887 0.99296 0.02823 0.0
O33 O 0.9534 0.00627 0.05231 0.0
O34 O 0.94602 0.97979 0.05994 0.0
O35 O 0.94502 0.00848 0.16431 0.0
O36 O 0.94058 0.01633 0.25205 0.0
O37 O 0.96145 0.98524 0.14425 0.0
C38 C 0.94543 0.95766 0.2414 0.0
C39 C 0.94231 0.02059 0.20007 0.0
Zn40 Zn 0.31976 0.99237 0.94682 0.0
Zn41 Zn 0.31249 0.98285 0.09339 0.0
C42 C 0.33651 -0.002 0.92792 0.0
O43 O 0.33293 0.01265 0.90348 0.0
C44 C 0.29588 0.97322 0.12079 0.0
O45 O 0.29993 0.95966 0.14753 0.0
O46 O 0.31821 -0.00229 0.8625 0.0
O47 O 0.31164 0.97189 0.96762 0.0
O48 O 0.31711 0.96109 0.04847 0.0
C49 C 0.3155 0.98519 0.82805 0.0
O50 O 0.31337 0.96852 0.8482 0.0
O51 O 0.33203 0.98583 0.95406 0.0
C52 C 0.31164 0.99002 0.21206 0.0
O53 O 0.30678 0.00333 0.19166 0.0
O54 O 0.3151 0.97851 0.17739 0.0
O55 O 0.31638 0.00899 0.07923 0.0
O56 O 0.31797 0.01654 0.98615 0.0
O57 O 0.2999 0.98437 0.08801 0.0
C58 C 0.31446 0.95835 -0.0026 0.0
C59 C 0.31757 0.02104 0.03935 0.0
Zn60 Zn 0.94177 0.2409 0.94778 0.0
Zn61 Zn 0.94651 0.24866 0.09311 0.0
C62 C 0.92511 0.23273 0.93269 0.0
O63 O 0.9291 0.218 0.91197 0.0
C64 C 0.96371 0.25604 0.10493 0.0
O65 O 0.96055 0.27303 0.11111 0.0
O66 O 0.94323 0.23606 0.86279 0.0
O67 O 0.94923 0.26216 0.9683 0.0
O68 O 0.94382 0.27248 0.05026 0.0
C69 C 0.94282 0.2499 0.82789 0.0
O70 O 0.94169 0.26703 0.84827 0.0
O71 O 0.92934 0.24582 0.95667 0.0
C72 C 0.94501 0.23808 0.20925 0.0
O73 O 0.94628 0.22163 0.18447 0.0
O74 O 0.9446 0.25286 0.17802 0.0
O75 O 0.9395 0.22639 0.07105 0.0
O76 O 0.94513 0.21781 0.98787 0.0
O77 O 0.95887 0.24253 0.0913 0.0
C78 C 0.94662 0.2756 -0.00045 0.0
C79 C 0.94257 0.21378 0.03837 0.0
Zn80 Zn 0.69674 0.73746 0.84316 0.0
Zn81 Zn 0.69123 0.74563 0.69596 0.0
C82 C 0.71467 0.73153 0.84932 0.0
O83 O 0.71247 0.71382 0.84194 0.0
C84 C 0.67387 0.75426 0.698 0.0
O85 O 0.67711 0.77127 0.69563 0.0
O86 O 0.69429 0.73337 0.92736 0.0
O87 O 0.68956 0.75957 0.82185 0.0
O88 O 0.69457 0.76861 0.73733 0.0
C89 C 0.69541 0.74822 0.95752 0.0
O90 O 0.69778 0.76382 0.93137 0.0
O91 O 0.70912 0.74433 0.84609 0.0
C92 C 0.69338 0.73764 0.57741 0.0
O93 O 0.69274 0.72037 0.59787 0.0
O94 O 0.6929 0.75149 0.61218 0.0
O95 O 0.69875 0.72397 0.71376 0.0
O96 O 0.6943 0.71356 0.79882 0.0
O97 O 0.67874 0.74013 0.70228 0.0
C98 C 0.69232 0.7724 0.78869 0.0
C99 C 0.69662 0.71052 0.74684 0.0
Zn100 Zn 0.06205 0.00275 0.84747 0.0
Zn101 Zn 0.06698 -0.00447 0.70328 0.0
C102 C 0.04477 0.01117 0.85949 0.0
O103 O 0.04806 0.02735 0.8754 0.0
C104 C 0.0841 0.98722 0.70019 0.0
O105 O 0.08075 0.97054 0.69166 0.0
O106 O 0.0638 0.00679 0.93308 0.0
O107 O 0.06824 0.97902 0.8316 0.0
O108 O 0.0644 0.97139 0.74196 0.0
C109 C 0.06003 -0.00484 0.96597 0.0
O110 O 0.0554 0.98193 0.94233 0.0
O111 O 0.04955 -0.00169 0.84008 0.0
C112 C 0.06984 0.00049 0.58236 0.0
O113 O 0.07496 0.01343 0.60221 0.0
O114 O 0.06541 0.99116 0.61796 0.0
O115 O 0.05942 0.01668 0.72532 0.0
O116 O 0.06582 0.02588 0.80495 0.0
O117 O 0.07937 0.00123 0.71093 0.0
C118 C 0.06676 0.9668 0.79261 0.0
C119 C 0.06242 0.02969 0.75664 0.0
Zn120 Zn 0.69757 0.0028 0.8923 0.0
Zn121 Zn 0.69031 -0.00547 0.0388 0.0
C122 C 0.71417 0.0117 0.86451 0.0
O123 O 0.71011 0.02642 0.84444 0.0
C124 C 0.67354 0.98631 0.06337 0.0
O125 O 0.67757 0.97285 0.09074 0.0
O126 O 0.69528 0.007 0.80795 0.0
O127 O 0.69207 0.97801 0.90694 0.0
O128 O 0.69368 0.97101 0.00043 0.0
C129 C 0.69796 -0.00627 0.7759 0.0
O130 O 0.70195 0.97955 0.79969 0.0
O131 O 0.71018 -0.00044 0.89434 0.0
C132 C 0.69138 0.00357 0.1571 0.0
O133 O 0.68944 0.02021 0.13569 0.0
O134 O 0.69226 0.98967 0.12293 0.0
O135 O 0.69719 0.01756 0.02303 0.0
O136 O 0.69363 0.02596 0.93372 0.0
O137 O 0.67766 -0.00191 0.0328 0.0
C138 C 0.69266 0.96612 0.94798 0.0
C139 C 0.69566 0.03012 0.98537 0.0
Zn140 Zn 0.06309 0.74038 0.89878 0.0
Zn141 Zn 0.06794 0.74598 0.04365 0.0
C142 C 0.04671 0.733 0.86764 0.0
O143 O 0.05096 0.7187 0.84659 0.0
C144 C 0.08513 0.75367 0.06507 0.0
O145 O 0.08151 0.76603 0.0993 0.0
O146 O 0.0656 0.73925 0.81388 0.0
O147 O 0.06981 0.76196 0.92688 0.0
O148 O 0.06366 0.76944 0.00858 0.0
C149 C 0.06208 0.75164 0.78233 0.0
O150 O 0.05738 0.76455 0.80689 0.0
O151 O 0.05048 0.74478 0.90026 0.0
C152 C 0.06997 0.73731 0.16306 0.0
O153 O 0.07489 0.72437 0.14098 0.0
O154 O 0.06614 0.7485 0.1292 0.0
O155 O 0.06138 0.72304 0.0225 0.0
O156 O 0.06605 0.7157 0.93471 0.0
O157 O 0.08062 0.74322 0.03266 0.0
C158 C 0.06624 0.77405 0.95862 0.0
C159 C 0.06315 0.71095 0.98384 0.0
Zn160 Zn 0.31614 0.74064 0.79189 0.0
Zn161 Zn 0.31258 0.74742 0.64696 0.0
C162 C 0.33296 0.73052 0.81594 0.0
O163 O 0.32889 0.71791 0.84673 0.0
C164 C 0.296 0.75396 0.61183 0.0
O165 O 0.30019 0.76714 0.58427 0.0
O166 O 0.31403 0.738 0.87793 0.0
O167 O 0.31058 0.76498 0.77071 0.0
O168 O 0.31574 0.77196 0.68385 0.0
C169 C 0.31794 0.74903 0.91203 0.0
O170 O 0.32304 0.76162 0.8899 0.0
O171 O 0.32884 0.74197 0.78423 0.0
C172 C 0.31212 0.73462 0.5324 0.0
O173 O 0.30779 0.72158 0.55946 0.0
O174 O 0.31527 0.74809 0.56172 0.0
O175 O 0.31913 0.72534 0.6752 0.0
O176 O 0.31173 0.7177 0.75193 0.0
O177 O 0.29986 0.74345 0.64795 0.0
C178 C 0.31291 0.77696 0.73305 0.0
C179 C 0.31527 0.71316 0.70481 0.0
Zn180 Zn 0.93803 0.49519 0.7979 0.0
Zn181 Zn 0.94802 0.4856 0.6466 0.0
C182 C 0.92171 0.5087 0.81996 0.0
O183 O 0.92595 0.52107 0.85057 0.0
C184 C 0.96448 0.48169 0.62161 0.0
O185 O 0.96102 0.46611 0.60227 0.0
O186 O 0.94101 0.49729 0.88105 0.0
O187 O 0.94174 0.47033 0.76862 0.0
O188 O 0.94714 0.46054 0.68561 0.0
C189 C 0.93822 0.48541 0.91728 0.0
O190 O 0.93333 0.47177 0.89934 0.0
O191 O 0.92562 0.49631 0.79094 0.0
C192 C 0.94734 0.49673 0.53198 0.0
O193 O 0.95065 0.51157 0.55729 0.0
O194 O 0.94543 0.48248 0.5627 0.0
O195 O 0.94011 0.50542 0.67521 0.0
O196 O 0.94323 0.51695 0.76029 0.0
O197 O 0.96002 0.49369 0.64827 0.0
C198 C 0.94457 0.45723 0.73674 0.0
C199 C 0.94301 0.51877 0.70569 0.0
Zn200 Zn 0.3203 0.49879 0.44144 0.0
Zn201 Zn 0.31159 0.48701 0.59257 0.0
C202 C 0.33691 0.51214 0.42476 0.0
O203 O 0.33301 0.52542 0.39563 0.0
C204 C 0.29555 0.48252 0.62579 0.0
O205 O 0.29946 0.46718 0.64273 0.0
O206 O 0.31784 0.50191 0.35743 0.0
O207 O 0.31683 0.47296 0.46504 0.0
O208 O 0.31232 0.46248 0.55012 0.0
C209 C 0.32093 0.48997 0.32259 0.0
O210 O 0.32574 0.47648 0.34258 0.0
O211 O 0.33268 0.49965 0.451 0.0
C212 C 0.31352 0.49838 0.70583 0.0
O213 O 0.31147 0.51416 0.67941 0.0
O214 O 0.31448 0.48345 0.67597 0.0
O215 O 0.3192 0.50717 0.5629 0.0
O216 O 0.31478 0.51979 0.48236 0.0
O217 O 0.29949 0.49468 0.59578 0.0
C218 C 0.3143 0.45963 0.49736 0.0
C219 C 0.31565 0.52066 0.53686 0.0
Zn220 Zn 0.93981 0.74125 0.44448 0.0
Zn221 Zn 0.94873 0.74939 0.59495 0.0
C222 C 0.92313 0.7371 0.42455 0.0
O223 O 0.92656 0.72243 0.39918 0.0
C224 C 0.9648 0.75923 0.62946 0.0
O225 O 0.96035 0.77265 0.65378 0.0
O226 O 0.94203 0.73744 0.36083 0.0
O227 O 0.94828 0.75958 0.4729 0.0
O228 O 0.94453 0.77264 0.55438 0.0
C229 C 0.93933 0.75008 0.3267 0.0
O230 O 0.93561 0.765 0.34846 0.0
O231 O 0.92773 0.74898 0.45096 0.0
C232 C 0.94896 0.73841 0.71008 0.0
O233 O 0.95354 0.7253 0.68542 0.0
O234 O 0.94578 0.75125 0.67862 0.0
O235 O 0.94478 0.72378 0.57056 0.0
O236 O 0.94057 0.71646 0.48166 0.0
O237 O 0.96126 0.74804 0.5942 0.0
C238 C 0.9456 0.77386 0.49997 0.0
C239 C 0.94214 0.71185 0.53371 0.0
Zn240 Zn 0.69613 0.23887 0.34253 0.0
Zn241 Zn 0.69203 0.24657 0.19997 0.0
C242 C 0.71346 0.23126 0.35853 0.0
O243 O 0.71033 0.21505 0.37554 0.0
C244 C 0.67526 0.25468 0.17597 0.0
O245 O 0.67928 0.26828 0.1491 0.0
O246 O 0.69432 0.23489 0.42786 0.0
O247 O 0.68994 0.2627 0.32515 0.0
O248 O 0.69546 0.27006 0.23996 0.0
C249 C 0.69663 0.24877 0.45903 0.0
O250 O 0.69973 0.26378 0.43341 0.0
O251 O 0.7086 0.24377 0.33798 0.0
C252 C 0.6917 0.23752 0.08109 0.0
O253 O 0.68852 0.22207 0.1036 0.0
O254 O 0.69399 0.25073 0.11489 0.0
O255 O 0.69872 0.22352 0.21894 0.0
O256 O 0.69256 0.21529 0.30064 0.0
O257 O 0.67941 0.24291 0.20635 0.0
C258 C 0.69258 0.27482 0.28905 0.0
C259 C 0.69588 0.21091 0.25249 0.0
Zn260 Zn 0.06119 0.50176 0.34389 0.0
Zn261 Zn 0.06932 0.49078 0.1981 0.0
C262 C 0.04445 0.50599 0.36442 0.0
O263 O 0.04765 0.52214 0.38137 0.0
C264 C 0.08568 0.47888 0.17008 0.0
O265 O 0.0815 0.46866 0.13241 0.0
O266 O 0.06319 0.50642 0.42864 0.0
O267 O 0.06887 0.48005 0.32551 0.0
O268 O 0.06321 0.47155 0.24287 0.0
C269 C 0.06192 0.49185 0.45966 0.0
O270 O 0.05946 0.47618 0.43439 0.0
O271 O 0.04917 0.49376 0.34126 0.0
C272 C 0.06835 0.49916 0.0785 0.0
O273 O 0.0713 0.51528 0.09786 0.0
O274 O 0.06677 0.48599 0.11419 0.0
O275 O 0.06672 0.51743 0.2137 0.0
O276 O 0.06247 0.52627 0.30144 0.0
O277 O 0.08175 0.4885 0.20765 0.0
C278 C 0.06625 0.46722 0.29175 0.0
C279 C 0.06448 0.53002 0.24938 0.0
Zn280 Zn 0.69924 0.50029 0.395 0.0
Zn281 Zn 0.69051 0.49075 0.55416 0.0
C282 C 0.7155 0.50673 0.36694 0.0
O283 O 0.7115 0.52211 0.35147 0.0
C284 C 0.673 0.47878 0.54186 0.0
O285 O 0.67556 0.46341 0.51533 0.0
O286 O 0.69559 0.5012 0.31309 0.0
O287 O 0.69182 0.48147 0.43523 0.0
O288 O 0.69466 0.4675 0.51706 0.0
C289 C 0.69779 0.48686 0.2839 0.0
O290 O 0.70175 0.47304 0.31016 0.0
O291 O 0.71145 0.4936 0.39202 0.0
C292 C 0.6906 0.50275 0.66812 0.0
O293 O 0.68486 0.51387 0.64628 0.0
O294 O 0.69452 0.49168 0.63468 0.0
O295 O 0.69382 0.51363 0.51097 0.0
O296 O 0.69837 0.52614 0.43006 0.0
O297 O 0.67821 0.49101 0.55889 0.0
C298 C 0.69473 0.4673 0.46205 0.0
C299 C 0.69598 0.52802 0.4822 0.0
Zn300 Zn 0.06004 0.23846 0.39292 0.0
Zn301 Zn 0.07107 0.24767 0.54274 0.0
C302 C 0.04304 0.23179 0.38042 0.0
O303 O 0.04619 0.21472 0.37639 0.0
C304 C 0.08731 0.25975 0.57316 0.0
O305 O 0.08298 0.27026 0.60919 0.0
O306 O 0.06257 0.23399 0.3093 0.0
O307 O 0.06761 0.26009 0.41478 0.0
O308 O 0.06554 0.26912 0.50492 0.0
C309 C 0.0605 0.24766 0.27667 0.0
O310 O 0.05676 0.26237 0.2996 0.0
O311 O 0.04787 0.24546 0.39262 0.0
C312 C 0.06897 0.23578 0.66055 0.0
O313 O 0.07126 0.21933 0.63951 0.0
O314 O 0.06829 0.24982 0.62666 0.0
O315 O 0.06775 0.22237 0.51661 0.0
O316 O 0.06156 0.21392 0.43456 0.0
O317 O 0.0835 0.24943 0.53663 0.0
C318 C 0.06551 0.27271 0.45103 0.0
C319 C 0.06474 0.20989 0.48345 0.0
Zn320 Zn 0.82074 0.23825 0.8013 0.0
Zn321 Zn 0.81021 0.24823 0.64115 0.0
C322 C 0.83821 0.22834 0.79243 0.0
O323 O 0.83552 0.21295 0.76657 0.0
C324 C 0.79238 0.24976 0.63993 0.0
O325 O 0.79368 0.266 0.66597 0.0
O326 O 0.81629 0.23633 0.88068 0.0
O327 O 0.81617 0.26102 0.75915 0.0
O328 O 0.81029 0.27341 0.6817 0.0
C329 C 0.81681 0.25046 0.91414 0.0
O330 O 0.81983 0.2664 0.89415 0.0
O331 O 0.83304 0.24076 0.80891 0.0
C332 C 0.81382 0.23662 0.53112 0.0
O333 O 0.81123 0.22095 0.55574 0.0
O334 O 0.81435 0.25154 0.56138 0.0
O335 O 0.81798 0.23083 0.68323 0.0
O336 O 0.81755 0.21432 0.76245 0.0
O337 O 0.79849 0.23886 0.6299 0.0
C338 C 0.8133 0.27533 0.73252 0.0
C339 C 0.81606 0.21557 0.70865 0.0
Zn340 Zn 0.44113 0.99235 0.7866 0.0
Zn341 Zn 0.44728 0.98463 0.64172 0.0
C342 C 0.42422 6e-05 0.80958 0.0
O343 O 0.42809 0.01368 0.8374 0.0
C344 C 0.46533 0.97798 0.63892 0.0
O345 O 0.46318 0.9601 0.64109 0.0
O346 O 0.44291 -0.00306 0.87139 0.0
O347 O 0.44812 0.96958 0.77027 0.0
O348 O 0.4439 0.96077 0.68292 0.0
C349 C 0.43984 0.98463 0.90531 0.0
O350 O 0.4361 0.96982 0.88285 0.0
O351 O 0.4285 0.98848 0.77931 0.0
C352 C 0.44857 -0.00648 0.52484 0.0
O353 O 0.45254 0.00754 0.54986 0.0
O354 O 0.44547 0.98059 0.55651 0.0
O355 O 0.44058 0.00785 0.65774 0.0
O356 O 0.44444 0.01579 0.74691 0.0
O357 O 0.45975 0.99058 0.64486 0.0
C358 C 0.44609 0.9568 0.73448 0.0
C359 C 0.44211 0.02025 0.69612 0.0
Zn360 Zn 0.81859 -0.00444 0.4496 0.0
Zn361 Zn 0.8119 0.98466 0.59373 0.0
C362 C 0.8354 0.0047 0.43279 0.0
O363 O 0.83149 0.01909 0.40918 0.0
C364 C 0.79536 0.97488 0.62197 0.0
O365 O 0.7995 0.96028 0.64213 0.0
O366 O 0.8167 0.0006 0.36502 0.0
O367 O 0.81183 0.97224 0.46244 0.0
O368 O 0.81579 0.96184 0.54842 0.0
C369 C 0.82093 0.99097 0.32909 0.0
O370 O 0.82623 0.97834 0.34844 0.0
O371 O 0.83114 0.99194 0.4581 0.0
C372 C 0.81076 0.99161 0.71145 0.0
O373 O 0.80595 0.00473 0.68919 0.0
O374 O 0.81447 0.98013 0.6778 0.0
O375 O 0.81679 0.01036 0.58286 0.0
O376 O 0.81532 0.01895 0.49048 0.0
O377 O 0.79927 0.98713 0.59215 0.0
C378 C 0.81386 0.95875 0.49569 0.0
C379 C 0.81638 0.02292 0.54369 0.0
Zn380 Zn 0.44101 0.24103 0.4492 0.0
Zn381 Zn 0.44618 0.24956 0.59373 0.0
C382 C 0.42411 0.23096 0.4353 0.0
O383 O 0.42811 0.21647 0.41315 0.0
C384 C 0.46436 0.25584 0.59324 0.0
O385 O 0.46251 0.27352 0.58182 0.0
O386 O 0.44295 0.23654 0.36467 0.0
O387 O 0.44787 0.26345 0.4665 0.0
O388 O 0.44347 0.27375 0.55146 0.0
C389 C 0.43842 0.24512 0.32811 0.0
O390 O 0.43268 0.25687 0.34648 0.0
O391 O 0.42835 0.24414 0.45888 0.0
C392 C 0.44716 0.24067 0.71056 0.0
O393 O 0.45147 0.22692 0.68699 0.0
O394 O 0.44375 0.253 0.67821 0.0
O395 O 0.43958 0.22659 0.57233 0.0
O396 O 0.44513 0.2185 0.48866 0.0
O397 O 0.45859 0.24356 0.59443 0.0
C398 C 0.44562 0.27686 0.49915 0.0
C399 C 0.44278 0.21422 0.53942 0.0
Zn400 Zn 0.19718 0.73941 0.34444 0.0
Zn401 Zn 0.18991 0.75132 0.19754 0.0
C402 C 0.21377 0.73359 0.37585 0.0
O403 O 0.2099 0.71896 0.39826 0.0
C404 C 0.17309 0.76169 0.17118 0.0
O405 O 0.17708 0.77322 0.13623 0.0
O406 O 0.1946 0.73572 0.42845 0.0
O407 O 0.19012 0.76177 0.32201 0.0
O408 O 0.19558 0.77203 0.24092 0.0
C409 C 0.19724 0.74924 0.45977 0.0
O410 O 0.20078 0.76381 0.43448 0.0
O411 O 0.20965 0.74522 0.3449 0.0
C412 C 0.18889 0.74298 0.07974 0.0
O413 O 0.18448 0.72925 0.10268 0.0
O414 O 0.19217 0.75518 0.11311 0.0
O415 O 0.19366 0.72507 0.21143 0.0
O416 O 0.19547 0.71497 0.30203 0.0
O417 O 0.17726 0.75162 0.20659 0.0
C418 C 0.1938 0.77463 0.29389 0.0
C419 C 0.19517 0.71201 0.24756 0.0
Zn420 Zn 0.56176 0.00054 0.34516 0.0
Zn421 Zn 0.5684 0.99154 0.1981 0.0
C422 C 0.54375 0.00478 0.34984 0.0
O423 O 0.54559 0.02244 0.33793 0.0
C424 C 0.58557 0.98497 0.17232 0.0
O425 O 0.582 0.97352 0.13499 0.0
O426 O 0.56424 0.00477 0.42848 0.0
O427 O 0.56938 0.97934 0.32093 0.0
O428 O 0.56367 0.96938 0.24012 0.0
C429 C 0.56442 0.98979 0.45878 0.0
O430 O 0.56348 0.97332 0.43329 0.0
O431 O 0.54955 0.99251 0.3499 0.0
C432 C 0.56645 0.00081 0.07884 0.0
O433 O 0.56717 0.01799 0.09974 0.0
O434 O 0.56667 0.98673 0.11303 0.0
O435 O 0.56298 0.0166 0.21113 0.0
O436 O 0.56313 0.02535 0.304 0.0
O437 O 0.58106 -0.00605 0.20854 0.0
C438 C 0.56595 0.96633 0.29192 0.0
C439 C 0.56226 0.02908 0.25031 0.0
Zn440 Zn 0.19913 0.00118 0.39255 0.0
Zn441 Zn 0.1873 0.99129 0.54488 0.0
C442 C 0.21534 0.00503 0.36521 0.0
O443 O 0.2117 0.02077 0.34892 0.0
C444 C 0.17073 0.9796 0.56394 0.0
O445 O 0.17467 0.96516 0.58696 0.0
O446 O 0.19612 0.00486 0.30965 0.0
O447 O 0.19087 0.98314 0.42614 0.0
O448 O 0.19147 0.96783 0.5075 0.0
C449 C 0.19598 0.98989 0.27936 0.0
O450 O 0.19734 0.97357 0.30484 0.0
O451 O 0.21105 0.9925 0.39116 0.0
C452 C 0.19062 0.00375 0.6608 0.0
O453 O 0.18925 0.02055 0.63855 0.0
O454 O 0.19027 0.98934 0.62825 0.0
O455 O 0.19206 0.015 0.51027 0.0
O456 O 0.19866 0.02604 0.43337 0.0
O457 O 0.17493 0.9927 0.54036 0.0
C458 C 0.19302 0.96847 0.45368 0.0
C459 C 0.19534 0.02865 0.48278 0.0
Zn460 Zn 0.56222 0.73878 0.39378 0.0
Zn461 Zn 0.57041 0.74725 0.54253 0.0
C462 C 0.54542 0.73523 0.37661 0.0
O463 O 0.54837 0.71854 0.36275 0.0
C464 C 0.58695 0.76025 0.55859 0.0
O465 O 0.58293 0.77384 0.58554 0.0
O466 O 0.56401 0.73505 0.30897 0.0
O467 O 0.57029 0.75885 0.4196 0.0
O468 O 0.56494 0.76871 0.50154 0.0
C469 C 0.56449 0.75009 0.27914 0.0
O470 O 0.56431 0.76656 0.30535 0.0
O471 O 0.55036 0.74773 0.39601 0.0
C472 C 0.56695 0.73744 0.66089 0.0
O473 O 0.56609 0.72039 0.63928 0.0
O474 O 0.56866 0.75119 0.62761 0.0
O475 O 0.56671 0.72124 0.5231 0.0
O476 O 0.56287 0.71365 0.43323 0.0
O477 O 0.58281 0.74758 0.53232 0.0
C478 C 0.56686 0.77178 0.44905 0.0
C479 C 0.56426 0.70931 0.48584 0.0
Zn480 Zn 0.81874 0.74056 0.29117 0.0
Zn481 Zn 0.81169 0.74901 0.13925 0.0
C482 C 0.83541 0.73144 0.31173 0.0
O483 O 0.83128 0.71837 0.34016 0.0
C484 C 0.79375 0.75586 0.13646 0.0
O485 O 0.79601 0.77354 0.1437 0.0
O486 O 0.81649 0.73905 0.37594 0.0
O487 O 0.8114 0.76118 0.26155 0.0
O488 O 0.81444 0.77383 0.17752 0.0
C489 C 0.8208 0.74907 0.41039 0.0
O490 O 0.82652 0.76041 0.38944 0.0
O491 O 0.83134 0.7435 0.28185 0.0
C492 C 0.81148 0.7368 0.02557 0.0
O493 O 0.80707 0.72368 0.05157 0.0
O494 O 0.81459 0.75017 0.05535 0.0
O495 O 0.81865 0.72782 0.17064 0.0
O496 O 0.81511 0.71664 0.25583 0.0
O497 O 0.79926 0.74299 0.13878 0.0
C498 C 0.81386 0.77527 0.23244 0.0
C499 C 0.81553 0.71474 0.20117 0.0
Zn500 Zn 0.44026 0.49459 0.29452 0.0
Zn501 Zn 0.44788 0.48509 0.14636 0.0
C502 C 0.42316 0.50144 0.2921 0.0
O503 O 0.42621 0.5186 0.29592 0.0
C504 C 0.46397 0.47222 0.12034 0.0
O505 O 0.4595 0.45858 0.09746 0.0
O506 O 0.44194 0.49915 0.379 0.0
O507 O 0.44804 0.47369 0.27317 0.0
O508 O 0.44315 0.4632 0.19018 0.0
C509 C 0.43875 0.48717 0.41343 0.0
O510 O 0.43458 0.47282 0.39204 0.0
O511 O 0.42813 0.48755 0.2874 0.0
C512 C 0.44861 0.49456 0.03058 0.0
O513 O 0.4531 0.50778 0.0554 0.0
O514 O 0.44534 0.48181 0.062 0.0
O515 O 0.44453 0.51163 0.16345 0.0
O516 O 0.44203 0.51911 0.25539 0.0
O517 O 0.46033 0.48483 0.15017 0.0
C518 C 0.44519 0.46028 0.24267 0.0
C519 C 0.44291 0.52371 0.20252 0.0
Zn520 Zn 0.81732 0.49502 0.9462 0.0
Zn521 Zn 0.81288 0.48564 0.08937 0.0
C522 C 0.83498 0.50352 0.9528 0.0
O523 O 0.8322 0.52091 0.9569 0.0
C524 C 0.79608 0.47747 0.11247 0.0
O525 O 0.79997 0.46201 0.12864 0.0
O526 O 0.81585 0.50013 0.86128 0.0
O527 O 0.81046 0.47213 0.96218 0.0
O528 O 0.81593 0.46209 0.04462 0.0
C529 C 0.81856 0.48723 0.82787 0.0
O530 O 0.82179 0.47192 0.85104 0.0
O531 O 0.82981 0.48991 0.95227 0.0
C532 C 0.8126 0.49591 0.20524 0.0
O533 O 0.80954 0.5108 0.17863 0.0
O534 O 0.81492 0.48184 0.17481 0.0
O535 O 0.81957 0.50883 0.07097 0.0
O536 O 0.81362 0.51785 0.98936 0.0
O537 O 0.8003 0.49042 0.08769 0.0
C538 C 0.81309 0.45879 0.99399 0.0
C539 C 0.81637 0.52162 0.03966 0.0
Zn540 Zn 0.43688 0.73968 0.94221 0.0
Zn541 Zn 0.44903 0.74813 0.09421 0.0
C542 C 0.42066 0.72904 0.91835 0.0
O543 O 0.42482 0.71809 0.88263 0.0
C544 C 0.46572 0.75109 0.11311 0.0
O545 O 0.46288 0.7681 0.12396 0.0
O546 O 0.43924 0.73852 0.85772 0.0
O547 O 0.4419 0.76276 0.97799 0.0
O548 O 0.4488 0.77327 0.05428 0.0
C549 C 0.44217 0.75178 0.82703 0.0
O550 O 0.44395 0.76808 0.85133 0.0
O551 O 0.42457 0.74001 0.95226 0.0
C552 C 0.44663 0.73691 0.20815 0.0
O553 O 0.44878 0.72087 0.1838 0.0
O554 O 0.44609 0.75167 0.17716 0.0
O555 O 0.44071 0.73067 0.05805 0.0
O556 O 0.44147 0.71624 0.97496 0.0
O557 O 0.46073 0.73842 0.09553 0.0
C558 C 0.44534 0.77618 0.0055 0.0
C559 C 0.44292 0.71633 0.02893 0.0
Zn560 Zn 0.19698 0.23882 0.84153 0.0
Zn561 Zn 0.19212 0.24756 0.69848 0.0
C562 C 0.21424 0.23119 0.85886 0.0
O563 O 0.21091 0.21443 0.86661 0.0
C564 C 0.17492 0.2562 0.68025 0.0
O565 O 0.17843 0.26928 0.64807 0.0
O566 O 0.19468 0.2348 0.92605 0.0
O567 O 0.18999 0.26129 0.81954 0.0
O568 O 0.19683 0.26936 0.74084 0.0
C569 C 0.1948 0.24963 0.9572 0.0
O570 O 0.19605 0.2661 0.93234 0.0
O571 O 0.20952 0.24467 0.84253 0.0
C572 C 0.19254 0.23949 0.57913 0.0
O573 O 0.19073 0.22273 0.60012 0.0
O574 O 0.19353 0.25326 0.61379 0.0
O575 O 0.19813 0.22314 0.71056 0.0
O576 O 0.19435 0.21458 0.79951 0.0
O577 O 0.1795 0.245 0.70956 0.0
C578 C 0.19351 0.27377 0.78878 0.0
C579 C 0.19659 0.21048 0.74804 0.0
Zn580 Zn 0.56036 0.49994 0.84429 0.0
Zn581 Zn 0.57081 0.48963 0.69423 0.0
C582 C 0.54424 0.50626 0.87202 0.0
O583 O 0.54829 0.52175 0.88573 0.0
C584 C 0.58698 0.47593 0.677 0.0
O585 O 0.58274 0.46403 0.64469 0.0
O586 O 0.56323 0.50371 0.92778 0.0
O587 O 0.56799 0.47995 0.81358 0.0
O588 O 0.56486 0.46787 0.7296 0.0
C589 C 0.56502 0.48923 0.95783 0.0
O590 O 0.5656 0.47268 0.93239 0.0
O591 O 0.54819 0.49295 0.8471 0.0
C592 C 0.56503 0.49884 0.5782 0.0
O593 O 0.56096 0.51261 0.60378 0.0
O594 O 0.56938 0.48764 0.60849 0.0
O595 O 0.56721 0.5153 0.71931 0.0
O596 O 0.56134 0.52449 0.80199 0.0
O597 O 0.58307 0.48792 0.70757 0.0
C598 C 0.56476 0.46671 0.78443 0.0
C599 C 0.56421 0.52807 0.75176 0.0
Zn600 Zn 0.1978 0.50084 0.89637 0.0
Zn601 Zn 0.18968 0.48881 0.0474 0.0
C602 C 0.21382 0.50507 0.86306 0.0
O603 O 0.21002 0.52063 0.84679 0.0
C604 C 0.17332 0.47737 0.0795 0.0
O605 O 0.1775 0.46796 0.11907 0.0
O606 O 0.19492 0.50455 0.81292 0.0
O607 O 0.19039 0.48032 0.92534 0.0
O608 O 0.19536 0.46833 0.00511 0.0
C609 C 0.19535 0.4895 0.78305 0.0
O610 O 0.19694 0.47342 0.80927 0.0
O611 O 0.20983 0.49304 0.89311 0.0
C612 C 0.19023 0.49846 0.16532 0.0
O613 O 0.1861 0.51302 0.14518 0.0
O614 O 0.1926 0.48562 0.13077 0.0
O615 O 0.19259 0.51522 0.02476 0.0
O616 O 0.19694 0.52532 0.93869 0.0
O617 O 0.17723 0.48651 0.04065 0.0
C618 C 0.19424 0.46717 0.95092 0.0
C619 C 0.1949 0.52845 0.99115 0.0
Zn620 Zn 0.56014 0.23913 0.89174 0.0
Zn621 Zn 0.57066 0.25049 0.0448 0.0
C622 C 0.54218 0.23627 0.89215 0.0
O623 O 0.54363 0.21991 0.91709 0.0
C624 C 0.58714 0.25977 0.08071 0.0
O625 O 0.583 0.26859 0.12174 0.0
O626 O 0.56355 0.23522 0.81002 0.0
O627 O 0.56786 0.25926 0.92186 0.0
O628 O 0.56572 0.27272 0.00543 0.0
C629 C 0.56252 0.2501 0.78006 0.0
O630 O 0.55995 0.26556 0.80611 0.0
O631 O 0.5482 0.2475 0.88282 0.0
C632 C 0.57017 0.23943 0.16264 0.0
O633 O 0.57505 0.22612 0.14231 0.0
O634 O 0.56732 0.25178 0.12803 0.0
O635 O 0.56683 0.22554 0.01412 0.0
O636 O 0.56091 0.21445 0.93449 0.0
O637 O 0.58319 0.25144 0.04025 0.0
C638 C 0.56513 0.27318 0.95061 0.0
C639 C 0.56395 0.21183 0.98488 0.0
H640 H 0.22242 0.26501 0.87811 0.0
H641 H 0.23622 0.26936 0.92196 0.0
H642 H 0.23966 0.20897 0.92532 0.0
H643 H 0.22597 0.20456 0.88229 0.0
H644 H 0.24293 0.22321 0.02869 0.0
H645 H 0.25058 0.23826 0.83262 0.0
H646 H 0.25051 0.25499 0.73849 0.0
H647 H 0.2563 0.30711 0.82506 0.0
H648 H 0.25626 0.29077 0.91987 0.0
H649 H 0.28631 0.22182 0.1106 0.0
H650 H 0.2726 0.21752 0.06547 0.0
H651 H 0.26918 0.27792 0.06185 0.0
H652 H 0.2828 0.28229 0.10613 0.0
H653 H 0.26593 0.26368 0.95845 0.0
H654 H 0.25823 0.24864 0.15453 0.0
H655 H 0.25845 0.23183 0.24852 0.0
H656 H 0.25279 0.17967 0.16175 0.0
H657 H 0.25269 0.19609 0.06706 0.0
C658 C 0.22619 0.25269 0.88719 0.0
C659 C 0.22303 0.23442 0.87696 0.0
C660 C 0.23409 0.25518 0.91231 0.0
C661 C 0.23901 0.23947 0.92738 0.0
C662 C 0.23599 0.22132 0.91473 0.0
C663 C 0.22814 0.21883 0.88986 0.0
C664 C 0.24703 0.24165 0.95989 0.0
C665 C 0.248 0.23187 0.01281 0.0
C666 C 0.2536 0.25334 0.94031 0.0
C667 C 0.25329 0.26332 0.88352 0.0
C668 C 0.25171 0.25334 0.83173 0.0
C669 C 0.25172 0.26275 0.7782 0.0
C670 C 0.25336 0.28211 0.77582 0.0
C671 C 0.255 0.29212 0.82698 0.0
C672 C 0.25498 0.2828 0.88062 0.0
C673 C 0.28257 0.23416 0.10119 0.0
C674 C 0.2857 0.25241 0.11181 0.0
C675 C 0.27472 0.23169 0.0753 0.0
C676 C 0.26982 0.24741 0.05986 0.0
C677 C 0.27283 0.26556 0.07272 0.0
C678 C 0.28063 0.26802 0.09835 0.0
C679 C 0.26182 0.24525 0.02721 0.0
C680 C 0.26085 0.25503 0.97431 0.0
C681 C 0.25525 0.23356 0.04679 0.0
C682 C 0.25557 0.22357 0.10354 0.0
C683 C 0.25715 0.23354 0.15535 0.0
C684 C 0.25722 0.22409 0.2088 0.0
C685 C 0.25566 0.20469 0.21109 0.0
C686 C 0.25402 0.19469 0.15991 0.0
C687 C 0.25396 0.20406 0.10634 0.0
H688 H 0.2557 0.19741 0.25253 0.0
H689 H 0.2534 0.28935 0.73431 0.0
H690 H 0.03273 0.03647 0.88874 0.0
H691 H 0.01896 0.02984 0.92797 0.0
H692 H 0.02305 0.97014 0.90528 0.0
H693 H 0.03689 0.97666 0.86504 0.0
H694 H 0.00593 0.98356 0.87955 0.0
H695 H 0.0257 0.98247 0.04207 0.0
H696 H 0.03851 -0.00342 0.08154 0.0
H697 H 0.02663 0.05075 0.09033 0.0
H698 H 0.01365 0.03683 0.0519 0.0
H699 H 0.97725 0.94755 0.07939 0.0
H700 H 0.99056 0.95491 0.03384 0.0
H701 H 0.98706 0.014 0.07214 0.0
H702 H 0.97372 0.00675 0.11842 0.0
H703 H 1.00364 0.00171 0.08807 0.0
H704 H 0.98281 0.00103 0.93828 0.0
H705 H 0.97072 0.98775 0.88637 0.0
H706 H 0.98466 0.93764 0.84696 0.0
H707 H 0.99682 0.95062 0.8989 0.0
C708 C 0.03067 0.02193 0.89095 0.0
C709 C 0.03595 0.0071 0.87401 0.0
C710 C 0.02278 0.01817 0.91346 0.0
C711 C 0.02001 -0.0005 0.92013 0.0
C712 C 0.02506 0.98466 0.90032 0.0
C713 C 0.03297 0.98842 0.87738 0.0
C714 C 0.01226 -0.00437 0.95326 0.0
C715 C 0.00545 0.98731 0.92521 0.0
C716 C 0.01156 0.00087 0.01251 0.0
C717 C 0.01877 0.00867 0.04406 0.0
C718 C 0.02579 -0.00268 0.05338 0.0
C719 C 0.03308 0.00529 0.07516 0.0
C720 C 0.03343 0.02458 0.08722 0.0
C721 C 0.02636 0.03582 0.0804 0.0
C722 C 0.01901 0.02787 0.05912 0.0
C723 C 0.97936 0.96208 0.07895 0.0
C724 C 0.9744 0.97655 0.1021 0.0
C725 C 0.98696 0.96627 0.05272 0.0
C726 C 0.98972 0.98503 0.0487 0.0
C727 C 0.98502 -0.00056 0.07465 0.0
C728 C 0.97741 -0.00476 0.10115 0.0
C729 C 0.99728 0.98951 0.01446 0.0
C730 C 1.00407 -0.00203 0.04237 0.0
C731 C 0.99792 0.98445 0.95493 0.0
C732 C 0.99071 0.97676 0.92252 0.0
C733 C 0.98328 0.98716 0.9186 0.0
C734 C 0.97642 0.9797 0.88916 0.0
C735 C 0.97692 0.96186 0.86338 0.0
C736 C 0.98429 0.95148 0.86685 0.0
C737 C 0.99117 0.9589 0.89611 0.0
H738 H 0.9716 0.95609 0.8407 0.0
H739 H 0.03921 0.0308 0.10128 0.0
H740 H 0.22948 -0.0055 0.42366 0.0
H741 H 0.24345 0.99067 0.38089 0.0
H742 H 0.23337 0.00232 0.21044 0.0
H743 H 0.21959 0.00634 0.2529 0.0
H744 H 0.24377 0.97234 0.20929 0.0
H745 H 0.24325 0.03568 0.28297 0.0
H746 H 0.24161 0.06033 0.35786 0.0
H747 H 0.26201 0.03696 0.45435 0.0
H748 H 0.26366 0.01191 0.38059 0.0
H749 H 0.28243 0.9863 0.05802 0.0
H750 H 0.26853 -0.00605 0.09698 0.0
H751 H 0.27711 0.98101 0.27042 0.0
H752 H 0.29069 0.97278 0.23174 0.0
H753 H 0.26737 0.0132 0.26759 0.0
H754 H 0.26737 0.94914 0.19573 0.0
H755 H 0.26856 0.92376 0.1228 0.0
H756 H 0.2487 0.94842 0.02383 0.0
H757 H 0.24754 0.97425 0.09545 0.0
C758 C 0.2303 -0.00402 0.37707 0.0
C759 C 0.22355 0.0007 0.34127 0.0
C760 C 0.23824 -0.00604 0.35279 0.0
C761 C 0.23944 -0.0036 0.29254 0.0
C762 C 0.2326 0.00045 0.25694 0.0
C763 C 0.22475 0.00276 0.28117 0.0
C764 C 0.24776 -0.00514 0.26569 0.0
C765 C 0.24891 0.98144 0.2215 0.0
C766 C 0.25446 0.00662 0.28223 0.0
C767 C 0.25351 0.02174 0.32656 0.0
C768 C 0.24733 0.03566 0.32045 0.0
C769 C 0.24641 0.04973 0.36267 0.0
C770 C 0.25168 0.05018 0.41094 0.0
C771 C 0.25791 0.03657 0.417 0.0
C772 C 0.25884 0.02243 0.375 0.0
C773 C 0.28129 0.98512 0.10436 0.0
C774 C 0.28755 0.97856 0.1419 0.0
C775 C 0.2734 0.98955 0.12657 0.0
C776 C 0.27179 0.98793 0.18664 0.0
C777 C 0.2782 0.98231 0.22404 0.0
C778 C 0.28594 0.97745 0.20181 0.0
C779 C 0.26336 0.99068 0.21105 0.0
C780 C 0.26221 0.00426 0.25497 0.0
C781 C 0.25662 0.97909 0.19424 0.0
C782 C 0.25748 0.96384 0.1504 0.0
C783 C 0.26335 0.94934 0.15793 0.0
C784 C 0.264 0.93484 0.1169 0.0
C785 C 0.25873 0.93452 0.06856 0.0
C786 C 0.2528 0.94873 0.06114 0.0
C787 C 0.25216 0.96333 0.10186 0.0
H788 H 0.25922 0.92323 0.03699 0.0
H789 H 0.25096 0.06109 0.44355 0.0
H790 H 0.03084 0.20563 0.36668 0.0
H791 H 0.01737 0.20992 0.31984 0.0
H792 H 0.0223 0.26948 0.30081 0.0
H793 H 0.0358 0.26534 0.34856 0.0
H794 H 0.00608 0.2625 0.33044 0.0
H795 H 0.02535 0.2409 0.18575 0.0
H796 H 0.03624 0.21976 0.14769 0.0
H797 H 0.01961 0.17252 0.16038 0.0
H798 H 0.00864 0.19338 0.19902 0.0
H799 H 0.97603 0.28198 0.11837 0.0
H800 H 0.9896 0.27742 0.16352 0.0
H801 H 0.98463 0.21784 0.18114 0.0
H802 H 0.97102 0.22226 0.13493 0.0
H803 H 1.00096 0.22465 0.15193 0.0
H804 H 0.9817 0.24665 0.29718 0.0
H805 H 0.9711 0.26783 0.33891 0.0
H806 H 0.988 0.3146 0.32682 0.0
H807 H 0.99868 0.2937 0.2845 0.0
C808 C 0.02902 0.21971 0.3533 0.0
C809 C 0.03441 0.23512 0.36088 0.0
C810 C 0.02133 0.22211 0.32624 0.0
C811 C 0.01891 0.23993 0.30562 0.0
C812 C 0.02407 0.25558 0.31606 0.0
C813 C 0.03177 0.2532 0.3435 0.0
C814 C 0.01115 0.24199 0.27121 0.0
C815 C 0.00501 0.25443 0.29097 0.0
C816 C 0.00969 0.23118 0.22031 0.0
C817 C 0.01618 0.21868 0.19551 0.0
C818 C 0.02402 0.22599 0.18054 0.0
C819 C 0.03021 0.21407 0.15887 0.0
C820 C 0.02862 0.19481 0.15168 0.0
C821 C 0.02083 0.18745 0.16593 0.0
C822 C 0.01461 0.19932 0.18758 0.0
C823 C 0.97786 0.26784 0.13102 0.0
C824 C 0.97241 0.25251 0.12344 0.0
C825 C 0.98561 0.26527 0.15711 0.0
C826 C 0.98807 0.24737 0.17695 0.0
C827 C 0.98285 0.23181 0.16648 0.0
C828 C 0.97508 0.23435 0.13992 0.0
C829 C 0.99587 0.24522 0.21113 0.0
C830 C 1.00203 0.23275 0.19133 0.0
C831 C 0.99737 0.25606 0.26199 0.0
C832 C 0.99095 0.26866 0.28722 0.0
C833 C 0.98313 0.26148 0.30304 0.0
C834 C 0.97712 0.27342 0.3269 0.0
C835 C 0.97887 0.29256 0.3354 0.0
C836 C 0.98665 0.29978 0.32017 0.0
C837 C 0.99269 0.28789 0.29633 0.0
H838 H 0.97421 0.30178 0.35388 0.0
H839 H 0.03343 0.18559 0.13502 0.0
H840 H 0.72888 0.7113 0.83203 0.0
H841 H 0.74237 0.71583 0.87873 0.0
H842 H 0.73302 0.76533 0.96648 0.0
H843 H 0.71962 0.76134 0.91746 0.0
H844 H 0.74851 0.77117 0.93945 0.0
H845 H 0.73431 0.71954 0.03434 0.0
H846 H 0.72693 0.68901 0.03706 0.0
H847 H 0.74818 0.66141 0.96277 0.0
H848 H 0.75565 0.69183 0.95919 0.0
H849 H 0.77954 0.77605 0.15449 0.0
H850 H 0.76602 0.77145 0.10811 0.0
H851 H 0.7754 0.72214 0.01952 0.0
H852 H 0.78881 0.72616 0.06823 0.0
H853 H 0.75993 0.71621 0.04705 0.0
H854 H 0.77414 0.76751 0.95177 0.0
H855 H 0.78172 0.7978 0.95042 0.0
H856 H 0.76063 0.82579 0.02551 0.0
H857 H 0.75296 0.79561 0.02774 0.0
C858 C 0.72974 0.72333 0.86056 0.0
C859 C 0.72315 0.7359 0.87117 0.0
C860 C 0.73745 0.72582 0.88778 0.0
C861 C 0.7387 0.7406 0.92779 0.0
C862 C 0.73224 0.75372 0.93625 0.0
C863 C 0.72457 0.75146 0.90804 0.0
C864 C 0.74659 0.74197 0.96215 0.0
C865 C 0.75093 0.75919 0.9635 0.0
C866 C 0.74993 0.7263 0.9929 0.0
C867 C 0.74551 0.70796 -0.00384 0.0
C868 C 0.73739 0.70696 0.01845 0.0
C869 C 0.7332 0.68968 0.02015 0.0
C870 C 0.73708 0.67328 0.0 0.0
C871 C 0.74518 0.67412 0.97835 0.0
C872 C 0.7494 0.69137 0.97659 0.0
C873 C 0.77868 0.76405 0.12588 0.0
C874 C 0.78526 0.75153 0.1149 0.0
C875 C 0.77095 0.76151 0.09888 0.0
C876 C 0.76971 0.74677 0.05873 0.0
C877 C 0.77618 0.73371 0.0499 0.0
C878 C 0.78385 0.736 0.07792 0.0
C879 C 0.76183 0.7454 0.02437 0.0
C880 C 0.7575 0.72818 0.02299 0.0
C881 C 0.75852 0.76104 0.9935 0.0
C882 C 0.763 0.77931 0.99015 0.0
C883 C 0.77113 0.78013 0.96799 0.0
C884 C 0.77544 0.79727 0.96712 0.0
C885 C 0.77166 0.8137 0.98794 0.0
C886 C 0.76355 0.81305 0.00937 0.0
C887 C 0.7592 0.79594 0.01032 0.0
H888 H 0.77502 0.82694 0.98741 0.0
H889 H 0.73382 0.65993 0.00124 0.0
H890 H 0.78704 0.95563 0.70601 0.0
H891 H 0.77352 0.96255 0.74758 0.0
H892 H 0.77062 0.00947 0.62953 0.0
H893 H 0.78445 0.003 0.58872 0.0
H894 H 0.76534 0.01882 0.73709 0.0
H895 H 0.75993 0.96729 0.60643 0.0
H896 H 0.76299 0.93607 0.56388 0.0
H897 H 0.75931 0.90996 0.73064 0.0
H898 H 0.75629 0.94107 0.77426 0.0
H899 H 0.72259 0.03092 0.781 0.0
H900 H 0.73614 0.024 0.74006 0.0
H901 H 0.73896 0.97716 0.85849 0.0
H902 H 0.72508 0.98361 0.89864 0.0
H903 H 0.74429 0.96775 0.75084 0.0
H904 H 0.74974 0.01946 0.88139 0.0
H905 H 0.74665 0.05074 0.92343 0.0
H906 H 0.7502 0.07656 0.7561 0.0
H907 H 0.75327 0.04539 0.71301 0.0
C908 C 0.78352 0.96733 0.68822 0.0
C909 C 0.7868 0.97857 0.64327 0.0
C910 C 0.77575 0.97127 0.71216 0.0
C911 C 0.77094 0.9863 0.69104 0.0
C912 C 0.77419 -0.00229 0.64639 0.0
C913 C 0.78206 -0.00609 0.62276 0.0
C914 C 0.76252 0.98988 0.71594 0.0
C915 C 0.7607 0.00773 0.73928 0.0
C916 C 0.7565 0.97532 0.72019 0.0
C917 C 0.7579 0.9565 0.6936 0.0
C918 C 0.75976 0.95488 0.63398 0.0
C919 C 0.7615 0.93721 0.6097 0.0
C920 C 0.76135 0.92104 0.64455 0.0
C921 C 0.75941 0.9225 0.70369 0.0
C922 C 0.75766 0.94013 0.72818 0.0
C923 C 0.72609 0.01923 0.79901 0.0
C924 C 0.72276 0.00798 0.84378 0.0
C925 C 0.73388 0.0153 0.77544 0.0
C926 C 0.73869 0.00029 0.79682 0.0
C927 C 0.73539 0.9889 0.84142 0.0
C928 C 0.72749 0.99268 0.86464 0.0
C929 C 0.74711 -0.00331 0.77207 0.0
C930 C 0.74893 0.97884 0.74871 0.0
C931 C 0.75313 0.01125 0.76773 0.0
C932 C 0.75172 0.03011 0.79401 0.0
C933 C 0.74988 0.03183 0.85362 0.0
C934 C 0.74812 0.04952 0.87761 0.0
C935 C 0.74822 0.06563 0.84244 0.0
C936 C 0.75014 0.06408 0.7833 0.0
C937 C 0.75192 0.04641 0.75911 0.0
H938 H 0.74681 0.07931 0.86103 0.0
H939 H 0.76274 0.90739 0.62573 0.0
H940 H 0.97733 0.73829 0.57906 0.0
H941 H 0.9911 0.73148 0.62079 0.0
H942 H 0.98426 0.76178 0.77672 0.0
H943 H 0.97084 0.76923 0.73466 0.0
H944 H 0.99791 0.77444 0.7406 0.0
H945 H 0.9871 0.7117 0.76854 0.0
H946 H 0.98186 0.67959 0.74888 0.0
H947 H 1.00286 0.6685 0.63911 0.0
H948 H 0.00818 0.70061 0.65734 0.0
H949 H 0.03392 0.7538 0.91651 0.0
H950 H 0.01987 0.75829 0.87648 0.0
H951 H 0.02678 0.72621 0.72417 0.0
H952 H 0.0405 0.72103 0.76482 0.0
H953 H 0.01304 0.71389 0.75794 0.0
H954 H 0.02288 0.77866 0.72525 0.0
H955 H 0.02756 0.81109 0.74683 0.0
H956 H 0.00788 0.81764 0.87095 0.0
H957 H 1.00292 0.78545 0.84894 0.0
C958 C 0.97883 0.74351 0.62214 0.0
C959 C 0.97311 0.75475 0.65295 0.0
C960 C 0.98664 0.7394 0.64627 0.0
C961 C 0.98874 0.74614 0.70201 0.0
C962 C 0.98285 0.75659 0.73344 0.0
C963 C 0.97518 0.761 0.70907 0.0
C964 C 0.9973 0.74443 0.72584 0.0
C965 C 1.00116 0.76108 0.74515 0.0
C966 C 1.00169 0.72717 0.73003 0.0
C967 C 0.99799 0.70868 0.71386 0.0
C968 C 0.99052 0.70258 0.73924 0.0
C969 C 0.98756 0.68431 0.72868 0.0
C970 C 0.99205 0.672 0.69303 0.0
C971 C 0.99941 0.67803 0.66685 0.0
C972 C 1.00238 0.69627 0.6772 0.0
C973 C 0.0324 0.74776 0.87451 0.0
C974 C 0.03827 0.73676 0.84441 0.0
C975 C 0.0244 0.75048 0.85131 0.0
C976 C 0.02222 0.74263 0.79698 0.0
C977 C 0.02822 0.73224 0.76635 0.0
C978 C 0.03608 0.72923 0.78986 0.0
C979 C 0.01361 0.74391 0.773 0.0
C980 C 0.00977 0.72721 0.75339 0.0
C981 C 0.00916 0.76108 0.76895 0.0
C982 C 0.01266 0.77953 0.78642 0.0
C983 C 0.01966 0.78688 0.75798 0.0
C984 C 0.02233 0.80526 0.77003 0.0
C985 C 0.01813 0.8163 0.81097 0.0
C986 C 0.01119 0.80903 0.83968 0.0
C987 C 0.00843 0.79076 0.82727 0.0
H988 H 0.02021 0.83054 0.82001 0.0
H989 H 0.98983 0.65776 0.68574 0.0
H990 H 0.21835 0.73684 0.48783 0.0
H991 H 0.23234 0.74107 0.52723 0.0
H992 H 0.24218 0.74396 0.35279 0.0
H993 H 0.22804 0.74003 0.31307 0.0
H994 H 0.25077 0.71857 0.42483 0.0
H995 H 0.24236 0.78321 0.43161 0.0
H996 H 0.23307 0.80996 0.45362 0.0
H997 H 0.23421 0.79659 0.63581 0.0
H998 H 0.24346 0.76965 0.6148 0.0
H999 H 0.2911 0.75052 0.50035 0.0
H1000 H 0.27708 0.74605 0.46239 0.0
H1001 H 0.26756 0.74327 0.63768 0.0
H1002 H 0.28178 0.74744 0.67612 0.0
H1003 H 0.25873 0.7685 0.56586 0.0
H1004 H 0.26719 0.70376 0.55844 0.0
H1005 H 0.2763 0.67678 0.5356 0.0
H1006 H 0.275 0.69033 0.35359 0.0
H1007 H 0.26591 0.71748 0.37541 0.0
C1008 C 0.2235 0.73864 0.45792 0.0
C1009 C 0.22215 0.73818 0.39754 0.0
C1010 C 0.23148 0.74111 0.48044 0.0
C1011 C 0.23832 0.7429 0.44306 0.0
C1012 C 0.23699 0.74266 0.38245 0.0
C1013 C 0.22893 0.74054 0.35979 0.0
C1014 C 0.24686 0.74404 0.46798 0.0
C1015 C 0.25256 0.72968 0.45486 0.0
C1016 C 0.24911 0.75817 0.50867 0.0
C1017 C 0.24355 0.77433 0.52158 0.0
C1018 C 0.24058 0.78589 0.47633 0.0
C1019 C 0.23534 0.80111 0.48863 0.0
C1020 C 0.23304 0.80495 0.54607 0.0
C1021 C 0.23599 0.7936 0.59134 0.0
C1022 C 0.24125 0.77837 0.57927 0.0
C1023 C 0.28603 0.74875 0.53088 0.0
C1024 C 0.28752 0.74938 0.59115 0.0
C1025 C 0.27802 0.74611 0.5091 0.0
C1026 C 0.27124 0.74427 0.54704 0.0
C1027 C 0.2727 0.74461 0.60754 0.0
C1028 C 0.2808 0.74689 0.62949 0.0
C1029 C 0.26266 0.74302 0.5227 0.0
C1030 C 0.25694 0.75738 0.53588 0.0
C1031 C 0.26039 0.7289 0.48195 0.0
C1032 C 0.26594 0.71275 0.46863 0.0
C1033 C 0.26891 0.70109 0.5136 0.0
C1034 C 0.27405 0.68573 0.50082 0.0
C1035 C 0.27625 0.68187 0.44319 0.0
C1036 C 0.27329 0.69334 0.39821 0.0
C1037 C 0.26813 0.70869 0.41074 0.0
H1038 H 0.28023 0.66997 0.43339 0.0
H1039 H 0.22898 0.81674 0.55551 0.0
H1040 H 0.96817 0.48778 0.50968 0.0
H1041 H 0.98192 0.49242 0.46684 0.0
H1042 H 0.99291 0.49105 0.63827 0.0
H1043 H 0.979 0.48699 0.68147 0.0
H1044 H 1.00035 0.51728 0.56767 0.0
H1045 H 0.99309 0.45167 0.55505 0.0
H1046 H 0.9839 0.42489 0.53119 0.0
H1047 H 0.98423 0.44081 0.3508 0.0
H1048 H 0.99335 0.46783 0.37372 0.0
H1049 H 0.04099 0.49918 0.47638 0.0
H1050 H 0.02733 0.4942 0.52034 0.0
H1051 H 0.01601 0.49634 0.35007 0.0
H1052 H 0.02982 0.50087 0.30576 0.0
H1053 H 0.00879 0.46945 0.42091 0.0
H1054 H 0.016 0.53519 0.43393 0.0
H1055 H 0.02512 0.56206 0.45808 0.0
H1056 H 0.02487 0.54587 0.63825 0.0
H1057 H 0.01582 0.51875 0.61502 0.0
C1058 C 0.97353 0.48878 0.53814 0.0
C1059 C 0.97263 0.48699 0.59855 0.0
C1060 C 0.98136 0.49132 0.51372 0.0
C1061 C 0.98844 0.49162 0.54927 0.0
C1062 C 0.98751 0.49074 0.61011 0.0
C1063 C 0.97961 0.48846 0.63472 0.0
C1064 C 0.9968 0.49194 0.52225 0.0
C1065 C 1.00225 0.50668 0.53626 0.0
C1066 C 0.99919 0.4783 0.48031 0.0
C1067 C 0.99386 0.46183 0.46616 0.0
C1068 C 0.99117 0.4495 0.51033 0.0
C1069 C 0.98598 0.43428 0.49697 0.0
C1070 C 0.98347 0.43116 0.43952 0.0
C1071 C 0.98618 0.44323 0.39528 0.0
C1072 C 0.99137 0.45848 0.4084 0.0
C1073 C 0.03558 0.49826 0.4484 0.0
C1074 C 0.03636 0.50043 0.38801 0.0
C1075 C 0.0278 0.49552 0.47346 0.0
C1076 C 0.02065 0.49531 0.43858 0.0
C1077 C 0.02146 0.49655 0.37772 0.0
C1078 C 0.02931 0.49912 0.35248 0.0
C1079 C 0.01234 0.49481 0.46629 0.0
C1080 C 0.0069 0.48003 0.4524 0.0
C1081 C 0.00996 0.5084 0.5084 0.0
C1082 C 0.01528 0.52487 0.52267 0.0
C1083 C 0.01792 0.53731 0.47865 0.0
C1084 C 0.02307 0.55258 0.49217 0.0
C1085 C 0.02558 0.55565 0.54965 0.0
C1086 C 0.02292 0.54347 0.59375 0.0
C1087 C 0.01777 0.52816 0.58045 0.0
H1088 H 0.02958 0.56747 0.56002 0.0
H1089 H 0.97944 0.41938 0.42928 0.0
H1090 H 0.28278 0.50237 0.57464 0.0
H1091 H 0.2686 0.50616 0.61291 0.0
H1092 H 0.27564 0.47577 0.76835 0.0
H1093 H 0.28952 0.47125 0.72931 0.0
H1094 H 0.26192 0.46237 0.73137 0.0
H1095 H 0.27262 0.52562 0.75827 0.0
H1096 H 0.27831 0.5565 0.72992 0.0
H1097 H 0.25722 0.56661 0.6201 0.0
H1098 H 0.25146 0.5355 0.64662 0.0
H1099 H 0.22658 0.4845 0.91144 0.0
H1100 H 0.24046 0.47952 0.86934 0.0
H1101 H 0.23294 0.50979 0.7148 0.0
H1102 H 0.21937 0.51549 0.75753 0.0
H1103 H 0.24676 0.52294 0.74954 0.0
H1104 H 0.23587 0.46022 0.72262 0.0
H1105 H 0.22994 0.42945 0.75096 0.0
H1106 H 0.2511 0.41851 0.85969 0.0
H1107 H 0.25708 0.44937 0.83294 0.0
C1108 C 0.28125 0.49661 0.617 0.0
C1109 C 0.28717 0.48629 0.64869 0.0
C1110 C 0.27319 0.49884 0.63899 0.0
C1111 C 0.27104 0.49124 0.69362 0.0
C1112 C 0.27709 0.48155 0.72586 0.0
C1113 C 0.28503 0.47897 0.70346 0.0
C1114 C 0.26246 0.49244 0.71693 0.0
C1115 C 0.25864 0.47567 0.73593 0.0
C1116 C 0.25806 0.50967 0.72126 0.0
C1117 C 0.26167 0.52808 0.70379 0.0
C1118 C 0.26925 0.53428 0.72741 0.0
C1119 C 0.27248 0.55188 0.71177 0.0
C1120 C 0.26815 0.56353 0.67313 0.0
C1121 C 0.26058 0.55757 0.64988 0.0
C1122 C 0.25734 0.53993 0.66509 0.0
C1123 C 0.22794 0.48997 0.86845 0.0
C1124 C 0.222 0.50066 0.83809 0.0
C1125 C 0.23582 0.48703 0.84424 0.0
C1126 C 0.23775 0.4943 0.7888 0.0
C1127 C 0.23165 0.50424 0.75782 0.0
C1128 C 0.2239 0.50753 0.78238 0.0
C1129 C 0.24623 0.49289 0.76399 0.0
C1130 C 0.25003 0.50962 0.74477 0.0
C1131 C 0.25058 0.47562 0.75921 0.0
C1132 C 0.24687 0.45724 0.77634 0.0
C1133 C 0.23921 0.45137 0.75316 0.0
C1134 C 0.23585 0.43388 0.76884 0.0
C1135 C 0.24013 0.42206 0.80725 0.0
C1136 C 0.24778 0.4277 0.83008 0.0
C1137 C 0.25115 0.44519 0.81471 0.0
H1138 H 0.23752 0.40851 0.8192 0.0
H1139 H 0.27066 0.57719 0.66137 0.0
H1140 H 0.78944 0.23308 0.5351 0.0
H1141 H 0.77614 0.23135 0.48315 0.0
H1142 H 0.7638 0.25682 0.63011 0.0
H1143 H 0.77714 0.25922 0.68141 0.0
H1144 H 0.75586 0.22325 0.57909 0.0
H1145 H 0.76693 0.2839 0.53029 0.0
H1146 H 0.77766 0.30591 0.49508 0.0
H1147 H 0.77723 0.27921 0.32727 0.0
H1148 H 0.76661 0.25672 0.36191 0.0
H1149 H 0.71699 0.24695 0.46229 0.0
H1150 H 0.73071 0.25134 0.50652 0.0
H1151 H 0.74229 0.23135 0.34881 0.0
H1152 H 0.72848 0.22683 0.30453 0.0
H1153 H 0.75096 0.26213 0.40245 0.0
H1154 H 0.73975 0.20142 0.45292 0.0
H1155 H 0.72944 0.17885 0.49101 0.0
H1156 H 0.73041 0.20581 0.65836 0.0
H1157 H 0.74063 0.22875 0.62098 0.0
C1158 C 0.78386 0.23802 0.55664 0.0
C1159 C 0.78427 0.24617 0.6124 0.0
C1160 C 0.7763 0.23718 0.52675 0.0
C1161 C 0.76903 0.2441 0.55272 0.0
C1162 C 0.76937 0.25148 0.60936 0.0
C1163 C 0.77696 0.25279 0.63862 0.0
C1164 C 0.76105 0.24381 0.52069 0.0
C1165 C 0.75474 0.2319 0.54087 0.0
C1166 C 0.75971 0.25485 0.47018 0.0
C1167 C 0.76605 0.26843 0.44897 0.0
C1168 C 0.76919 0.28255 0.48609 0.0
C1169 C 0.77524 0.29515 0.4662 0.0
C1170 C 0.77815 0.29392 0.40903 0.0
C1171 C 0.77499 0.28011 0.3716 0.0
C1172 C 0.76895 0.26743 0.39135 0.0
C1173 C 0.72248 0.24389 0.43672 0.0
C1174 C 0.72174 0.23666 0.38007 0.0
C1175 C 0.7303 0.24632 0.46203 0.0
C1176 C 0.73752 0.24149 0.43117 0.0
C1177 C 0.7368 0.23517 0.37333 0.0
C1178 C 0.72894 0.2326 0.34809 0.0
C1179 C 0.74571 0.2416 0.46114 0.0
C1180 C 0.75207 0.25345 0.44058 0.0
C1181 C 0.74712 0.23054 0.51162 0.0
C1182 C 0.74087 0.21696 0.53391 0.0
C1183 C 0.73769 0.20268 0.49764 0.0
C1184 C 0.73188 0.18979 0.51915 0.0
C1185 C 0.72925 0.19093 0.57703 0.0
C1186 C 0.73245 0.20495 0.61353 0.0
C1187 C 0.73825 0.2179 0.5922 0.0
H1188 H 0.72476 0.18091 0.59363 0.0
H1189 H 0.78283 0.30369 0.39369 0.0
H1190 H 0.72553 0.47541 0.37897 0.0
H1191 H 0.73949 0.471 0.33801 0.0
H1192 H 0.73907 0.52805 0.27225 0.0
H1193 H 0.72527 0.5326 0.3129 0.0
H1194 H 0.74303 0.50236 0.18834 0.0
H1195 H 0.75091 0.51727 0.38319 0.0
H1196 H 0.75115 0.51402 0.48996 0.0
H1197 H 0.76142 0.45831 0.4737 0.0
H1198 H 0.76105 0.46103 0.36668 0.0
H1199 H 0.7862 0.50918 0.09922 0.0
H1200 H 0.77234 0.51449 0.1411 0.0
H1201 H 0.77245 0.45801 0.2112 0.0
H1202 H 0.78612 0.45255 0.16954 0.0
H1203 H 0.76863 0.48398 0.29389 0.0
H1204 H 0.76044 0.46921 0.09823 0.0
H1205 H 0.75912 0.47186 0.99164 0.0
H1206 H 0.74892 0.52757 0.00984 0.0
H1207 H 0.75035 0.52545 0.1165 0.0
C1208 C 0.72847 0.48708 0.35654 0.0
C1209 C 0.72426 0.5043 0.34884 0.0
C1210 C 0.73644 0.48455 0.33319 0.0
C1211 C 0.74029 0.4992 0.30184 0.0
C1212 C 0.73619 0.51654 0.29592 0.0
C1213 C 0.72829 0.5191 0.31938 0.0
C1214 C 0.74837 0.49628 0.27207 0.0
C1215 C 0.74867 0.49863 0.21145 0.0
C1216 C 0.75566 0.49098 0.30228 0.0
C1217 C 0.75585 0.48926 0.36674 0.0
C1218 C 0.75312 0.50422 0.40228 0.0
C1219 C 0.75329 0.50249 0.4629 0.0
C1220 C 0.75627 0.48594 0.4886 0.0
C1221 C 0.75909 0.4711 0.45372 0.0
C1222 C 0.75889 0.47273 0.39306 0.0
C1223 C 0.78321 0.4978 0.12271 0.0
C1224 C 0.78731 0.48045 0.13105 0.0
C1225 C 0.77528 0.50086 0.14667 0.0
C1226 C 0.77136 0.48666 0.17955 0.0
C1227 C 0.77536 0.46921 0.18635 0.0
C1228 C 0.7832 0.46611 0.16221 0.0
C1229 C 0.76331 0.49009 0.20979 0.0
C1230 C 0.76301 0.48782 0.27066 0.0
C1231 C 0.75601 0.49556 0.1798 0.0
C1232 C 0.75566 0.49729 0.11544 0.0
C1233 C 0.75808 0.48218 0.07952 0.0
C1234 C 0.75727 0.48356 0.01905 0.0
C1235 C 0.75398 0.4999 0.99396 0.0
C1236 C 0.75151 0.51495 0.02929 0.0
C1237 C 0.75233 0.51368 0.08974 0.0
H1238 H 0.75331 0.50089 0.94717 0.0
H1239 H 0.75642 0.48464 0.53555 0.0
H1240 H 0.47992 0.95907 0.65613 0.0
H1241 H 0.49334 0.96501 0.60884 0.0
H1242 H 0.48299 0.01356 0.5219 0.0
H1243 H 0.46966 0.00811 0.57072 0.0
H1244 H 0.49109 0.98586 0.44644 0.0
H1245 H 0.49637 0.02359 0.61401 0.0
H1246 H 0.49725 0.03139 0.71842 0.0
H1247 H 0.51503 0.98695 0.74362 0.0
H1248 H 0.51418 0.97872 0.63935 0.0
H1249 H 0.52918 0.02343 0.3296 0.0
H1250 H 0.51579 0.01859 0.37799 0.0
H1251 H 0.52605 0.97168 0.4736 0.0
H1252 H 0.53943 0.97618 0.42434 0.0
H1253 H 0.51791 -0.00076 0.54449 0.0
H1254 H 0.51251 0.96171 0.37521 0.0
H1255 H 0.51161 0.95461 0.27033 0.0
H1256 H 0.494 -0.00045 0.24781 0.0
H1257 H 0.49488 0.00708 0.35255 0.0
C1258 C 0.48056 0.97124 0.62792 0.0
C1259 C 0.47374 0.98315 0.61742 0.0
C1260 C 0.48823 0.97461 0.60083 0.0
C1261 C 0.48917 0.98968 0.56158 0.0
C1262 C 0.48241 0.00185 0.55198 0.0
C1263 C 0.47481 -0.00122 0.58026 0.0
C1264 C 0.49704 0.99199 0.52824 0.0
C1265 C 0.49694 0.98907 0.46775 0.0
C1266 C 0.5047 -0.00424 0.55612 0.0
C1267 C 0.50512 0.00038 0.61903 0.0
C1268 C 0.50039 0.01532 0.64194 0.0
C1269 C 0.50091 0.01987 0.70105 0.0
C1270 C 0.50617 0.00963 0.73768 0.0
C1271 C 0.51094 -0.00516 0.71521 0.0
C1272 C 0.51045 0.99024 0.6561 0.0
C1273 C 0.52855 0.01186 0.36013 0.0
C1274 C 0.53537 0.00015 0.3729 0.0
C1275 C 0.52088 0.00912 0.38781 0.0
C1276 C 0.51991 -0.0052 0.4296 0.0
C1277 C 0.52666 0.98283 0.44156 0.0
C1278 C 0.53428 0.98532 0.41301 0.0
C1279 C 0.51198 0.99298 0.4627 0.0
C1280 C 0.51207 -0.00399 0.52316 0.0
C1281 C 0.5043 0.9894 0.43472 0.0
C1282 C 0.50384 0.9851 0.3716 0.0
C1283 C 0.50852 0.97022 0.34779 0.0
C1284 C 0.50799 0.96608 0.2884 0.0
C1285 C 0.50277 0.97666 0.25239 0.0
C1286 C 0.49805 0.99139 0.27574 0.0
C1287 C 0.49856 -0.00441 0.33513 0.0
H1288 H 0.50236 0.97342 0.20642 0.0
H1289 H 0.50657 0.01318 0.78342 0.0
H1290 H 0.46781 0.23338 0.68634 0.0
H1291 H 0.48117 0.22959 0.73594 0.0
H1292 H 0.49299 0.26389 0.60488 0.0
H1293 H 0.47951 0.26847 0.55642 0.0
H1294 H 0.50183 0.2277 0.64403 0.0
H1295 H 0.48932 0.28548 0.71176 0.0
H1296 H 0.47843 0.3056 0.7544 0.0
H1297 H 0.47893 0.27259 0.91117 0.0
H1298 H 0.48969 0.25194 0.86885 0.0
H1299 H 0.53911 0.25518 0.7911 0.0
H1300 H 0.5259 0.25714 0.73834 0.0
H1301 H 0.5137 0.227 0.87721 0.0
H1302 H 0.52697 0.22443 0.92938 0.0
H1303 H 0.50508 0.2604 0.83391 0.0
H1304 H 0.51761 0.20311 0.76964 0.0
H1305 H 0.52873 0.18296 0.73009 0.0
H1306 H 0.5283 0.21428 0.57003 0.0
H1307 H 0.51729 0.23493 0.60915 0.0
C1308 C 0.47327 0.23985 0.66747 0.0
C1309 C 0.47263 0.25119 0.61738 0.0
C1310 C 0.48089 0.23773 0.69603 0.0
C1311 C 0.48805 0.24652 0.67417 0.0
C1312 C 0.48752 0.25701 0.6224 0.0
C1313 C 0.47984 0.25962 0.59481 0.0
C1314 C 0.49596 0.24569 0.70735 0.0
C1315 C 0.50259 0.23502 0.68518 0.0
C1316 C 0.49685 0.25487 0.76178 0.0
C1317 C 0.4902 0.26692 0.78664 0.0
C1318 C 0.487 0.28227 0.75487 0.0
C1319 C 0.48087 0.29383 0.7791 0.0
C1320 C 0.47796 0.29032 0.83535 0.0
C1321 C 0.48116 0.27524 0.8675 0.0
C1322 C 0.48727 0.26358 0.84337 0.0
C1323 C 0.53359 0.24923 0.81082 0.0
C1324 C 0.53404 0.23974 0.86453 0.0
C1325 C 0.52607 0.25023 0.78041 0.0
C1326 C 0.51886 0.24209 0.80373 0.0
C1327 C 0.51922 0.23331 0.85847 0.0
C1328 C 0.52678 0.23189 0.88823 0.0
C1329 C 0.51096 0.24251 0.77053 0.0
C1330 C 0.50432 0.25306 0.79276 0.0
C1331 C 0.51006 0.23313 0.71642 0.0
C1332 C 0.5167 0.22078 0.69271 0.0
C1333 C 0.51996 0.20589 0.72631 0.0
C1334 C 0.52623 0.19434 0.70391 0.0
C1335 C 0.52924 0.19739 0.64767 0.0
C1336 C 0.52597 0.21197 0.61367 0.0
C1337 C 0.51972 0.22362 0.63596 0.0
H1338 H 0.53409 0.18841 0.63036 0.0
H1339 H 0.47324 0.29934 0.85413 0.0
H1340 H 0.46903 0.7411 0.22315 0.0
H1341 H 0.48275 0.73847 0.26868 0.0
H1342 H 0.49435 0.74829 0.10202 0.0
H1343 H 0.48055 0.75096 0.05644 0.0
H1344 H 0.5022 0.72015 0.1686 0.0
H1345 H 0.49279 0.784 0.19025 0.0
H1346 H 0.48288 0.80907 0.21707 0.0
H1347 H 0.48339 0.79048 0.39499 0.0
H1348 H 0.49323 0.76512 0.36904 0.0
H1349 H 0.54196 0.7453 0.26683 0.0
H1350 H 0.52819 0.74832 0.22237 0.0
H1351 H 0.51679 0.73884 0.38988 0.0
H1352 H 0.53064 0.73585 0.43449 0.0
H1353 H 0.50877 0.76683 0.32337 0.0
H1354 H 0.51813 0.7028 0.30117 0.0
H1355 H 0.52775 0.67726 0.27345 0.0
H1356 H 0.52722 0.69612 0.09578 0.0
H1357 H 0.51766 0.72192 0.12261 0.0
C1358 C 0.47453 0.74222 0.19622 0.0
C1359 C 0.47384 0.74598 0.13652 0.0
C1360 C 0.48233 0.74089 0.22219 0.0
C1361 C 0.48953 0.74345 0.18877 0.0
C1362 C 0.48884 0.7463 0.12842 0.0
C1363 C 0.48101 0.74774 0.10244 0.0
C1364 C 0.49774 0.744 0.21748 0.0
C1365 C 0.50369 0.7305 0.20185 0.0
C1366 C 0.49958 0.75728 0.26174 0.0
C1367 C 0.49369 0.77255 0.27759 0.0
C1368 C 0.49074 0.78516 0.235 0.0
C1369 C 0.48514 0.79944 0.25006 0.0
C1370 C 0.48249 0.80134 0.30767 0.0
C1371 C 0.48544 0.78898 0.35037 0.0
C1372 C 0.49104 0.77466 0.33552 0.0
C1373 C 0.53649 0.74432 0.29422 0.0
C1374 C 0.53726 0.74054 0.35387 0.0
C1375 C 0.52866 0.74589 0.26884 0.0
C1376 C 0.52149 0.74352 0.30275 0.0
C1377 C 0.52226 0.74068 0.36308 0.0
C1378 C 0.53013 0.73906 0.38851 0.0
C1379 C 0.51324 0.74298 0.27441 0.0
C1380 C 0.50728 0.75648 0.29011 0.0
C1381 C 0.5114 0.7297 0.23012 0.0
C1382 C 0.51725 0.7144 0.21402 0.0
C1383 C 0.52013 0.70162 0.25631 0.0
C1384 C 0.52556 0.68706 0.24073 0.0
C1385 C 0.52812 0.68509 0.18292 0.0
C1386 C 0.52525 0.69767 0.14056 0.0
C1387 C 0.51982 0.71225 0.15591 0.0
H1388 H 0.53231 0.6738 0.17093 0.0
H1389 H 0.47816 0.8124 0.31925 0.0
H1390 H 0.53273 0.47939 0.83957 0.0
H1391 H 0.5187 0.47511 0.88017 0.0
H1392 H 0.52246 0.52322 0.99228 0.0
H1393 H 0.53626 0.52777 0.95181 0.0
H1394 H 0.51716 0.49112 0.05085 0.0
H1395 H 0.51048 0.52784 0.88406 0.0
H1396 H 0.5099 0.53641 0.78025 0.0
H1397 H 0.49553 0.48669 0.74403 0.0
H1398 H 0.49623 0.47749 0.84743 0.0
H1399 H 0.47514 0.49882 0.15838 0.0
H1400 H 0.4888 0.50589 0.11642 0.0
H1401 H 0.4858 0.45994 -0.00513 0.0
H1402 H 0.47225 0.45274 0.03642 0.0
H1403 H 0.49061 0.49289 0.94158 0.0
H1404 H 0.49784 0.45611 0.11067 0.0
H1405 H 0.49871 0.44821 0.21493 0.0
H1406 H 0.5122 0.49944 0.24743 0.0
H1407 H 0.51118 0.50798 0.14359 0.0
C1408 C 0.53051 0.48913 0.87243 0.0
C1409 C 0.5356 0.5039 0.89247 0.0
C1410 C 0.52251 0.48671 0.89543 0.0
C1411 C 0.51958 0.49888 0.93919 0.0
C1412 C 0.52462 0.51371 0.95857 0.0
C1413 C 0.5325 0.5163 0.93513 0.0
C1414 C 0.51144 0.49572 0.96734 0.0
C1415 C 0.51133 0.49171 0.02717 0.0
C1416 C 0.50389 0.49638 0.93603 0.0
C1417 C 0.50355 0.50177 0.87353 0.0
C1418 C 0.50732 0.51854 0.8539 0.0
C1419 C 0.50695 0.52355 0.79508 0.0
C1420 C 0.50272 0.51205 0.7555 0.0
C1421 C 0.49884 0.49554 0.77469 0.0
C1422 C 0.49924 0.4904 0.8334 0.0
C1423 C 0.47746 0.49005 0.12331 0.0
C1424 C 0.47263 0.47515 0.1009 0.0
C1425 C 0.48524 0.49414 0.09931 0.0
C1426 C 0.48829 0.48344 0.0525 0.0
C1427 C 0.48354 0.4684 0.03086 0.0
C1428 C 0.47582 0.4642 0.05505 0.0
C1429 C 0.49636 0.48793 0.02493 0.0
C1430 C 0.49644 0.4923 0.96525 0.0
C1431 C 0.5039 0.48775 0.05649 0.0
C1432 C 0.5043 0.48284 0.11933 0.0
C1433 C 0.50086 0.46587 0.14012 0.0
C1434 C 0.5014 0.46125 0.19919 0.0
C1435 C 0.50548 0.47335 0.23783 0.0
C1436 C 0.50901 0.49012 0.2175 0.0
C1437 C 0.50843 0.49488 0.15856 0.0
H1438 H 0.50593 0.4697 0.28348 0.0
H1439 H 0.50243 0.51598 0.71001 0.0
H1440 H 0.41287 0.25547 0.48657 0.0
H1441 H 0.39792 0.25824 0.4655 0.0
H1442 H 0.39992 0.21341 0.3393 0.0
H1443 H 0.41467 0.21038 0.36045 0.0
H1444 H 0.39153 0.24392 0.29568 0.0
H1445 H 0.39125 0.20469 0.46486 0.0
H1446 H 0.39403 0.19539 0.56641 0.0
H1447 H 0.38 0.24297 0.62768 0.0
H1448 H 0.37726 0.25276 0.52635 0.0
H1449 H 0.35014 0.21157 0.25113 0.0
H1450 H 0.36477 0.21432 0.27914 0.0
H1451 H 0.35906 0.26353 0.38206 0.0
H1452 H 0.34439 0.26113 0.35291 0.0
H1453 H 0.3691 0.23421 0.44063 0.0
H1454 H 0.36882 0.27182 0.26693 0.0
H1455 H 0.36553 0.27847 0.16411 0.0
H1456 H 0.3804 0.2312 0.11075 0.0
H1457 H 0.38367 0.22408 0.2134 0.0
C1458 C 0.4101 0.24614 0.45466 0.0
C1459 C 0.41499 0.23265 0.42546 0.0
C1460 C 0.40155 0.24771 0.4427 0.0
C1461 C 0.39778 0.23602 0.40074 0.0
C1462 C 0.40267 0.22261 0.37172 0.0
C1463 C 0.41112 0.22084 0.38419 0.0
C1464 C 0.38879 0.23783 0.38555 0.0
C1465 C 0.38664 0.24173 0.32747 0.0
C1466 C 0.38237 0.23525 0.427 0.0
C1467 C 0.38417 0.22965 0.48797 0.0
C1468 C 0.38886 0.21334 0.49995 0.0
C1469 C 0.3904 0.20794 0.55748 0.0
C1470 C 0.38723 0.21863 0.60347 0.0
C1471 C 0.38248 0.23474 0.592 0.0
C1472 C 0.38094 0.24023 0.53452 0.0
C1473 C 0.35202 0.22314 0.27906 0.0
C1474 C 0.34612 0.23623 0.29933 0.0
C1475 C 0.36037 0.22466 0.2952 0.0
C1476 C 0.36301 0.2391 0.33282 0.0
C1477 C 0.35716 0.25227 0.35304 0.0
C1478 C 0.3488 0.25099 0.33587 0.0
C1479 C 0.37189 0.24022 0.3509 0.0
C1480 C 0.37401 0.23675 0.40928 0.0
C1481 C 0.3783 0.24299 0.3097 0.0
C1482 C 0.37643 0.24734 0.24789 0.0
C1483 C 0.37133 0.26276 0.2333 0.0
C1484 C 0.36948 0.26662 0.17505 0.0
C1485 C 0.37274 0.25524 0.13093 0.0
C1486 C 0.37787 0.24 0.14498 0.0
C1487 C 0.37974 0.23605 0.20319 0.0
H1488 H 0.3713 0.25826 0.08585 0.0
H1489 H 0.38841 0.2144 0.64799 0.0
H1490 H 0.84691 0.9853 0.49838 0.0
H1491 H 0.86186 0.98195 0.47824 0.0
H1492 H 0.859 0.01496 0.32174 0.0
H1493 H 0.84422 0.01866 0.34206 0.0
H1494 H 0.86822 0.98209 0.30448 0.0
H1495 H 0.8669 0.03501 0.43459 0.0
H1496 H 0.86355 0.05222 0.52485 0.0
H1497 H 0.87872 0.01387 0.62319 0.0
H1498 H 0.88202 -0.00382 0.53358 0.0
H1499 H 0.9092 0.01304 0.23591 0.0
H1500 H 0.8944 0.01082 0.26083 0.0
H1501 H 0.90057 0.97784 0.41281 0.0
H1502 H 0.91536 0.97965 0.38688 0.0
H1503 H 0.88984 0.00793 0.43619 0.0
H1504 H 0.89193 0.95631 0.3032 0.0
H1505 H 0.89568 0.94053 0.21127 0.0
H1506 H 0.8794 0.97755 0.11696 0.0
H1507 H 0.87565 -0.0062 0.20827 0.0
C1508 C 0.8495 0.99184 0.45983 0.0
C1509 C 0.84441 0.00237 0.42209 0.0
C1510 C 0.85802 0.98995 0.4484 0.0
C1511 C 0.86154 -0.00175 0.39851 0.0
C1512 C 0.85642 0.00846 0.36045 0.0
C1513 C 0.84798 0.01066 0.37239 0.0
C1514 C 0.87054 -0.00351 0.3855 0.0
C1515 C 0.87295 0.98781 0.33316 0.0
C1516 C 0.87671 0.00368 0.42339 0.0
C1517 C 0.87458 0.01405 0.47749 0.0
C1518 C 0.86942 0.03006 0.47557 0.0
C1519 C 0.86755 0.03995 0.52659 0.0
C1520 C 0.87089 0.03409 0.57977 0.0
C1521 C 0.87611 0.01834 0.582 0.0
C1522 C 0.87797 0.00837 0.53111 0.0
C1523 C 0.90734 0.005 0.27387 0.0
C1524 C 0.91331 -0.00386 0.30886 0.0
C1525 C 0.89892 0.00378 0.28818 0.0
C1526 C 0.89639 -0.00595 0.33846 0.0
C1527 C 0.90239 0.98527 0.37361 0.0
C1528 C 0.9108 0.98615 0.35855 0.0
C1529 C 0.8875 -0.00641 0.35518 0.0
C1530 C 0.88512 0.00194 0.408 0.0
C1531 C 0.88135 0.98617 0.31764 0.0
C1532 C 0.88356 0.97638 0.2626 0.0
C1533 C 0.8892 0.9612 0.26282 0.0
C1534 C 0.89132 0.95215 0.21082 0.0
C1535 C 0.88779 0.95805 0.15829 0.0
C1536 C 0.88213 0.973 0.15769 0.0
C1537 C 0.88 0.98213 0.20957 0.0
H1538 H 0.88944 0.95101 0.11808 0.0
H1539 H 0.86945 0.04179 0.6192 0.0
H1540 H 0.41588 0.00649 0.90974 0.0
H1541 H 0.40099 0.00369 0.92806 0.0
H1542 H 0.39714 0.98562 0.75084 0.0
H1543 H 0.41221 0.98789 0.7326 0.0
H1544 H 0.38628 0.01652 0.79414 0.0
H1545 H 0.3951 0.95361 0.84494 0.0
H1546 H 0.40361 0.92974 0.89551 0.0
H1547 H 0.39585 0.95183 0.06089 0.0
H1548 H 0.38738 0.976 0.01127 0.0
H1549 H 0.34394 -0.00486 0.82364 0.0
H1550 H 0.35879 -0.00644 0.80274 0.0
H1551 H 0.36407 -0.00566 0.9871 0.0
H1552 H 0.34908 -0.00525 0.00784 0.0
H1553 H 0.37439 0.97196 0.93855 0.0
H1554 H 0.36608 0.03508 0.89366 0.0
H1555 H 0.3577 0.06019 0.8479 0.0
H1556 H 0.3647 0.04023 0.67837 0.0
H1557 H 0.37306 0.01487 0.72311 0.0
C1558 C 0.41188 0.00181 0.87466 0.0
C1559 C 0.4152 -0.00259 0.81968 0.0
C1560 C 0.40337 0.00017 0.8853 0.0
C1561 C 0.39795 -0.00559 0.84092 0.0
C1562 C 0.40123 0.99004 0.78575 0.0
C1563 C 0.40982 0.99125 0.77542 0.0
C1564 C 0.38887 -0.00651 0.85244 0.0
C1565 C 0.38364 0.00656 0.82489 0.0
C1566 C 0.38549 0.98105 0.89443 0.0
C1567 C 0.39068 0.96673 0.92437 0.0
C1568 C 0.39528 0.95351 0.89209 0.0
C1569 C 0.40008 0.93989 0.92058 0.0
C1570 C 0.40029 0.9393 0.98137 0.0
C1571 C 0.39569 0.95232 0.01381 0.0
C1572 C 0.39089 0.96597 0.98552 0.0
C1573 C 0.34829 -0.00534 0.85962 0.0
C1574 C 0.34542 -0.00508 0.91724 0.0
C1575 C 0.35679 -0.00597 0.84771 0.0
C1576 C 0.36262 -0.00562 0.8932 0.0
C1577 C 0.35972 -0.00586 0.95111 0.0
C1578 C 0.35117 -0.0057 0.96306 0.0
C1579 C 0.3717 -0.00506 0.88002 0.0
C1580 C 0.37698 0.98191 0.90756 0.0
C1581 C 0.37514 0.0077 0.83881 0.0
C1582 C 0.37014 0.02298 0.81175 0.0
C1583 C 0.36579 0.03597 0.84662 0.0
C1584 C 0.36105 0.05026 0.82086 0.0
C1585 C 0.36066 0.05178 0.76027 0.0
C1586 C 0.36501 0.03903 0.7253 0.0
C1587 C 0.36976 0.02472 0.75083 0.0
H1588 H 0.35698 0.06284 0.74041 0.0
H1589 H 0.40399 0.92873 0.00335 0.0
H1590 H 0.85128 0.20743 0.75235 0.0
H1591 H 0.8659 0.21059 0.77947 0.0
H1592 H 0.85978 0.25734 0.89215 0.0
H1593 H 0.84522 0.25469 0.86373 0.0
H1594 H 0.87384 0.26427 0.83702 0.0
H1595 H 0.86293 0.21247 0.94807 0.0
H1596 H 0.85529 0.1825 0.95964 0.0
H1597 H 0.87286 0.15445 0.84888 0.0
H1598 H 0.88057 0.18431 0.83621 0.0
H1599 H 0.91401 0.25865 0.97847 0.0
H1600 H 0.89896 0.26029 0.96015 0.0
H1601 H 0.90085 0.2124 0.84469 0.0
H1602 H 0.91562 0.21034 0.86396 0.0
H1603 H 0.88831 0.20753 0.91269 0.0
H1604 H 0.89879 0.26029 0.79805 0.0
H1605 H 0.90562 0.291 0.7813 0.0
H1606 H 0.8884 0.31786 0.89756 0.0
H1607 H 0.88155 0.28726 0.91562 0.0
C1608 C 0.85306 0.21845 0.78261 0.0
C1609 C 0.8471 0.23072 0.80621 0.0
C1610 C 0.86141 0.2202 0.79828 0.0
C1611 C 0.8639 0.23397 0.83879 0.0
C1612 C 0.85799 0.24658 0.86102 0.0
C1613 C 0.84967 0.245 0.84481 0.0
C1614 C 0.87264 0.23486 0.85918 0.0
C1615 C 0.87699 0.25195 0.85438 0.0
C1616 C 0.87673 0.21877 0.88163 0.0
C1617 C 0.87231 0.20063 0.89108 0.0
C1618 C 0.86516 0.19991 0.92619 0.0
C1619 C 0.86081 0.18295 0.93289 0.0
C1620 C 0.86358 0.16659 0.90498 0.0
C1621 C 0.87073 0.16713 0.87053 0.0
C1622 C 0.8751 0.18406 0.86369 0.0
C1623 C 0.91118 0.24848 0.94935 0.0
C1624 C 0.91602 0.23428 0.92308 0.0
C1625 C 0.9026 0.24949 0.93861 0.0
C1626 C 0.89876 0.23651 0.90076 0.0
C1627 C 0.90363 0.2225 0.87437 0.0
C1628 C 0.91211 0.22135 0.8855 0.0
C1629 C 0.88967 0.23685 0.88888 0.0
C1630 C 0.88518 0.21995 0.89579 0.0
C1631 C 0.88546 0.25317 0.86861 0.0
C1632 C 0.88974 0.27143 0.85891 0.0
C1633 C 0.89653 0.2727 0.82061 0.0
C1634 C 0.90039 0.2901 0.81074 0.0
C1635 C 0.89747 0.30636 0.83854 0.0
C1636 C 0.89068 0.30525 0.87622 0.0
C1637 C 0.88681 0.28789 0.88631 0.0
H1638 H 0.90046 0.31982 0.83074 0.0
H1639 H 0.8602 0.15349 0.91006 0.0
H1640 H 0.59755 0.78524 0.60984 0.0
H1641 H 0.61233 0.78115 0.62905 0.0
H1642 H 0.6118 0.72686 0.54389 0.0
H1643 H 0.59691 0.73076 0.5249 0.0
H1644 H 0.62045 0.726 0.64854 0.0
H1645 H 0.62058 0.7627 0.47421 0.0
H1646 H 0.61586 0.78887 0.41159 0.0
H1647 H 0.62508 0.82911 0.5357 0.0
H1648 H 0.62977 0.80315 0.59943 0.0
H1649 H 0.66537 0.72282 0.6597 0.0
H1650 H 0.65068 0.72102 0.63167 0.0
H1651 H 0.64719 0.77867 0.68754 0.0
H1652 H 0.66183 0.78069 0.71359 0.0
H1653 H 0.64066 0.77481 0.58592 0.0
H1654 H 0.63948 0.73796 0.76371 0.0
H1655 H 0.64312 0.71174 0.82968 0.0
H1656 H 0.63534 0.67156 0.70065 0.0
H1657 H 0.63174 0.69755 0.63365 0.0
C1658 C 0.60057 0.77249 0.5947 0.0
C1659 C 0.59605 0.75838 0.56554 0.0
C1660 C 0.60903 0.77016 0.60574 0.0
C1661 C 0.61318 0.75375 0.58756 0.0
C1662 C 0.60871 0.73963 0.55828 0.0
C1663 C 0.60022 0.74197 0.54706 0.0
C1664 C 0.6222 0.75157 0.59944 0.0
C1665 C 0.62492 0.73645 0.63402 0.0
C1666 C 0.628 0.76532 0.58099 0.0
C1667 C 0.62552 0.78098 0.54164 0.0
C1668 C 0.6216 0.77713 0.48816 0.0
C1669 C 0.61892 0.79192 0.4525 0.0
C1670 C 0.62017 0.81064 0.46967 0.0
C1671 C 0.62413 0.8146 0.52242 0.0
C1672 C 0.62682 0.79985 0.55827 0.0
C1673 C 0.66143 0.73499 0.66686 0.0
C1674 C 0.66479 0.75191 0.68878 0.0
C1675 C 0.65302 0.73395 0.65083 0.0
C1676 C 0.64777 0.74972 0.65742 0.0
C1677 C 0.65108 0.76635 0.68143 0.0
C1678 C 0.65947 0.76746 0.69664 0.0
C1679 C 0.63896 0.7495 0.63696 0.0
C1680 C 0.63626 0.76418 0.60018 0.0
C1681 C 0.6332 0.73529 0.65341 0.0
C1682 C 0.63546 0.71969 0.69339 0.0
C1683 C 0.63863 0.72353 0.7492 0.0
C1684 C 0.64066 0.70871 0.78682 0.0
C1685 C 0.63949 0.68999 0.76928 0.0
C1686 C 0.63626 0.68606 0.71412 0.0
C1687 C 0.63422 0.70082 0.67632 0.0
H1688 H 0.64107 0.67854 0.79849 0.0
H1689 H 0.61807 0.82208 0.44209 0.0
H1690 H 0.09227 0.01795 0.65487 0.0
H1691 H 0.10701 0.01975 0.62708 0.0
H1692 H 0.11087 0.96348 0.69365 0.0
H1693 H 0.09619 0.96145 0.7201 0.0
H1694 H 0.12295 0.98993 0.72996 0.0
H1695 H 0.10906 0.96881 0.55413 0.0
H1696 H 0.09958 0.9704 0.46992 0.0
H1697 H 0.11122 0.02179 0.41349 0.0
H1698 H 0.12068 0.02067 0.4979 0.0
H1699 H 0.16012 0.95507 0.61735 0.0
H1700 H 0.1454 0.95976 0.63785 0.0
H1701 H 0.14606 0.01339 0.54882 0.0
H1702 H 0.16082 0.00874 0.52755 0.0
H1703 H 0.13193 0.99317 0.52356 0.0
H1704 H 0.14634 0.01387 0.69305 0.0
H1705 H 0.15671 0.01153 0.77175 0.0
H1706 H 0.14463 0.9618 0.83717 0.0
H1707 H 0.13423 0.96373 0.75844 0.0
C1708 C 0.09631 0.00611 0.66429 0.0
C1709 C 0.09311 0.98961 0.69006 0.0
C1710 C 0.10469 0.00708 0.64789 0.0
C1711 C 0.11001 0.99169 0.65802 0.0
C1712 C 0.10687 0.97549 0.68536 0.0
C1713 C 0.09849 0.97437 0.70059 0.0
C1714 C 0.11889 0.99225 0.64086 0.0
C1715 C 0.12491 0.99059 0.68481 0.0
C1716 C 0.12145 -0.00632 0.58201 0.0
C1717 C 0.11547 -0.00514 0.53305 0.0
C1718 C 0.1095 0.98064 0.52439 0.0
C1719 C 0.10416 0.98139 0.47641 0.0
C1720 C 0.10476 -0.00376 0.43655 0.0
C1721 C 0.11072 0.01035 0.44455 0.0
C1722 C 0.11607 0.00967 0.49248 0.0
C1723 C 0.15714 0.9678 0.60164 0.0
C1724 C 0.16166 0.98161 0.57128 0.0
C1725 C 0.14873 0.97049 0.61364 0.0
C1726 C 0.14469 0.98708 0.59578 0.0
C1727 C 0.14909 0.00054 0.56328 0.0
C1728 C 0.15751 -0.00214 0.55125 0.0
C1729 C 0.13593 0.99044 0.61254 0.0
C1730 C 0.12996 0.99286 0.56872 0.0
C1731 C 0.1334 0.98991 0.67146 0.0
C1732 C 0.13952 0.9889 0.71969 0.0
C1733 C 0.14591 0.0024 0.7241 0.0
C1734 C 0.15179 0.00115 0.76872 0.0
C1735 C 0.15133 0.98652 0.8094 0.0
C1736 C 0.14497 0.97314 0.80565 0.0
C1737 C 0.13907 0.97433 0.76111 0.0
H1738 H 0.1559 0.98555 0.84386 0.0
H1739 H 0.10064 -0.00322 0.39938 0.0
H1740 H 0.66535 0.97867 0.16314 0.0
H1741 H 0.65054 0.98094 0.18282 0.0
H1742 H 0.64629 8e-05 0.00688 0.0
H1743 H 0.66135 -0.00115 0.98811 0.0
H1744 H 0.63653 0.01863 0.07479 0.0
H1745 H 0.64197 0.95264 0.05544 0.0
H1746 H 0.64913 0.92243 0.07385 0.0
H1747 H 0.64245 0.92545 0.25458 0.0
H1748 H 0.63532 0.95578 0.23736 0.0
H1749 H 0.59371 0.99148 0.07198 0.0
H1750 H 0.60866 -0.00513 0.05679 0.0
H1751 H 0.61275 0.9899 0.24173 0.0
H1752 H 0.59763 0.98701 0.2573 0.0
H1753 H 0.62238 0.96452 0.16967 0.0
H1754 H 0.61645 0.03096 0.18399 0.0
H1755 H 0.60899 0.06039 0.16031 0.0
H1756 H 0.61608 0.05489 0.98091 0.0
H1757 H 0.62352 0.02531 0.00345 0.0
C1758 C 0.66127 0.98339 0.12856 0.0
C1759 C 0.6645 0.98845 0.07391 0.0
C1760 C 0.65277 0.98455 0.13975 0.0
C1761 C 0.6472 0.99015 0.09596 0.0
C1762 C 0.65043 -0.0044 0.04143 0.0
C1763 C 0.65902 -0.00511 0.03063 0.0
C1764 C 0.63805 0.99034 0.10778 0.0
C1765 C 0.63344 0.00667 0.09478 0.0
C1766 C 0.63395 0.97489 0.13478 0.0
C1767 C 0.63817 0.95656 0.14519 0.0
C1768 C 0.64207 0.94691 0.09917 0.0
C1769 C 0.64612 0.92976 0.10938 0.0
C1770 C 0.64626 0.92205 0.16537 0.0
C1771 C 0.64234 0.93144 0.21124 0.0
C1772 C 0.63828 0.9486 0.20126 0.0
C1773 C 0.59779 0.99137 0.10952 0.0
C1774 C 0.59454 0.98892 0.16577 0.0
C1775 C 0.60633 0.99338 0.10079 0.0
C1776 C 0.61183 0.99266 0.14805 0.0
C1777 C 0.6086 0.99055 0.20464 0.0
C1778 C 0.59999 0.98898 0.21356 0.0
C1779 C 0.62095 0.99282 0.13726 0.0
C1780 C 0.62552 0.97648 0.15 0.0
C1781 C 0.62496 0.00809 0.10908 0.0
C1782 C 0.62049 0.02584 0.09534 0.0
C1783 C 0.61636 0.03595 0.13941 0.0
C1784 C 0.61215 0.05268 0.12621 0.0
C1785 C 0.61204 0.05948 0.06911 0.0
C1786 C 0.61617 0.04959 0.02511 0.0
C1787 C 0.62039 0.03286 0.0381 0.0
H1788 H 0.60878 0.07244 0.05899 0.0
H1789 H 0.64941 0.90878 0.1732 0.0
H1790 H 0.09753 0.7543 0.98266 0.0
H1791 H 0.11257 0.75275 0.00063 0.0
H1792 H 0.10787 0.74298 0.1833 0.0
H1793 H 0.09297 0.74573 0.16566 0.0
H1794 H 0.11893 0.76744 0.17778 0.0
H1795 H 0.11571 0.70802 0.07792 0.0
H1796 H 0.11184 0.68658 -0.00233 0.0
H1797 H 0.12824 0.71628 0.88218 0.0
H1798 H 0.13211 0.73807 0.96146 0.0
H1799 H 0.16167 0.7469 0.24834 0.0
H1800 H 0.14669 0.74224 0.23164 0.0
H1801 H 0.14932 0.76418 0.05748 0.0
H1802 H 0.16411 0.76914 0.07405 0.0
H1803 H 0.13957 0.73178 0.06156 0.0
H1804 H 0.14232 0.79149 0.15936 0.0
H1805 H 0.14643 0.81292 0.23885 0.0
H1806 H 0.13089 0.78235 0.35795 0.0
H1807 H 0.12683 0.76043 0.27939 0.0
C1808 C 0.09975 0.75153 0.02635 0.0
C1809 C 0.09412 0.7501 0.07279 0.0
C1810 C 0.10835 0.75056 0.03671 0.0
C1811 C 0.11145 0.74757 0.09347 0.0
C1812 C 0.10573 0.74542 0.13923 0.0
C1813 C 0.0972 0.74689 0.12911 0.0
C1814 C 0.12058 0.74793 0.10651 0.0
C1815 C 0.12339 0.75928 0.1529 0.0
C1816 C 0.12653 0.73778 0.07338 0.0
C1817 C 0.12412 0.7248 0.02553 0.0
C1818 C 0.11843 0.71009 0.03528 0.0
C1819 C 0.11625 0.69785 0.98997 0.0
C1820 C 0.11978 0.7001 0.93483 0.0
C1821 C 0.1255 0.71458 0.92488 0.0
C1822 C 0.12769 0.72687 0.96998 0.0
C1823 C 0.15902 0.75075 0.20663 0.0
C1824 C 0.16405 0.75868 0.16285 0.0
C1825 C 0.15048 0.74806 0.19709 0.0
C1826 C 0.14688 0.75293 0.1433 0.0
C1827 C 0.15195 0.76033 0.09926 0.0
C1828 C 0.1604 0.76332 0.10907 0.0
C1829 C 0.13779 0.75106 0.1328 0.0
C1830 C 0.13503 0.7396 0.08679 0.0
C1831 C 0.13187 0.76105 0.16625 0.0
C1832 C 0.13437 0.77413 0.21365 0.0
C1833 C 0.13986 0.78917 0.20266 0.0
C1834 C 0.14217 0.80144 0.24753 0.0
C1835 C 0.13895 0.79896 0.30347 0.0
C1836 C 0.1334 0.78421 0.31464 0.0
C1837 C 0.13111 0.77184 0.26997 0.0
H1838 H 0.14072 0.80851 0.33812 0.0
H1839 H 0.11809 0.6906 0.89985 0.0
H1840 H 0.34213 0.71854 0.9081 0.0
H1841 H 0.35705 0.72176 0.92362 0.0
H1842 H 0.35948 0.74978 0.75787 0.0
H1843 H 0.34439 0.74695 0.74237 0.0
H1844 H 0.37117 0.71924 0.77914 0.0
H1845 H 0.36153 0.7763 0.87019 0.0
H1846 H 0.35316 0.79617 0.93601 0.0
H1847 H 0.36221 0.76505 0.08344 0.0
H1848 H 0.37056 0.74486 0.01844 0.0
H1849 H 0.41323 0.74041 0.82005 0.0
H1850 H 0.39837 0.74438 0.80245 0.0
H1851 H 0.39322 0.72662 0.9787 0.0
H1852 H 0.40823 0.72386 -0.00269 0.0
H1853 H 0.38295 0.7539 0.948 0.0
H1854 H 0.39161 0.69542 0.86124 0.0
H1855 H 0.40108 0.67645 0.80039 0.0
H1856 H 0.39432 0.70917 0.65026 0.0
H1857 H 0.38487 0.72848 0.71044 0.0
C1858 C 0.34581 0.72539 0.87478 0.0
C1859 C 0.34207 0.73245 0.82384 0.0
C1860 C 0.35434 0.72732 0.88397 0.0
C1861 C 0.35936 0.73612 0.84215 0.0
C1862 C 0.35569 0.74302 0.79082 0.0
C1863 C 0.34709 0.74141 0.78204 0.0
C1864 C 0.36845 0.73744 0.85188 0.0
C1865 C 0.37376 0.72708 0.81545 0.0
C1866 C 0.3718 0.74719 0.90033 0.0
C1867 C 0.36658 0.75892 0.93934 0.0
C1868 C 0.36165 0.77353 0.91656 0.0
C1869 C 0.35693 0.78491 0.95376 0.0
C1870 C 0.35713 0.78184 0.01385 0.0
C1871 C 0.36205 0.76739 0.03688 0.0
C1872 C 0.36677 0.75599 -0.00011 0.0
C1873 C 0.4089 0.73746 0.85496 0.0
C1874 C 0.41175 0.7316 0.90962 0.0
C1875 C 0.40043 0.73967 0.84493 0.0
C1876 C 0.39466 0.7353 0.88874 0.0
C1877 C 0.39755 0.72996 0.94417 0.0
C1878 C 0.40608 0.72829 0.95472 0.0
C1879 C 0.38564 0.73557 0.87572 0.0
C1880 C 0.38036 0.74613 0.91156 0.0
C1881 C 0.38229 0.72575 0.82737 0.0
C1882 C 0.38754 0.71339 0.79031 0.0
C1883 C 0.39212 0.69852 0.81519 0.0
C1884 C 0.3975 0.68774 0.78088 0.0
C1885 C 0.3983 0.69161 0.7215 0.0
C1886 C 0.39368 0.70618 0.69625 0.0
C1887 C 0.38829 0.71701 0.7304 0.0
H1888 H 0.4025 0.68332 0.69504 0.0
H1889 H 0.35349 0.79068 0.04257 0.0
H1890 H 0.9109 0.48643 0.75809 0.0
H1891 H 0.89594 0.48275 0.77433 0.0
H1892 H 0.89696 0.52475 0.91017 0.0
H1893 H 0.91184 0.52855 0.89427 0.0
H1894 H 0.88919 0.492 0.94466 0.0
H1895 H 0.88877 0.53503 0.7825 0.0
H1896 H 0.89234 0.54497 0.68277 0.0
H1897 H 0.87914 0.49732 0.61335 0.0
H1898 H 0.87564 0.48685 0.71286 0.0
H1899 H 0.8481 0.52386 0.99317 0.0
H1900 H 0.86273 0.52084 0.96544 0.0
H1901 H 0.85663 0.47387 0.85389 0.0
H1902 H 0.84197 0.47646 0.88299 0.0
H1903 H 0.86684 0.5041 0.80063 0.0
H1904 H 0.86647 0.46257 0.96422 0.0
H1905 H 0.8637 0.45198 0.06459 0.0
H1906 H 0.87888 0.49691 0.13134 0.0
H1907 H 0.88162 0.50799 0.0314 0.0
C1908 C 0.90791 0.49502 0.791 0.0
C1909 C 0.91256 0.50773 0.82511 0.0
C1910 C 0.89937 0.49291 0.80014 0.0
C1911 C 0.89535 0.50343 0.84361 0.0
C1912 C 0.89995 0.51643 0.8766 0.0
C1913 C 0.90845 0.51866 0.86724 0.0
C1914 C 0.88643 0.5005 0.85685 0.0
C1915 C 0.88429 0.49479 0.91331 0.0
C1916 C 0.88009 0.5035 0.81518 0.0
C1917 C 0.88201 0.51002 0.75523 0.0
C1918 C 0.88668 0.52658 0.74602 0.0
C1919 C 0.88869 0.53232 0.68952 0.0
C1920 C 0.88599 0.52176 0.64176 0.0
C1921 C 0.88124 0.50547 0.65041 0.0
C1922 C 0.87924 0.49962 0.70687 0.0
C1923 C 0.8499 0.5127 0.96345 0.0
C1924 C 0.84391 0.50029 0.94071 0.0
C1925 C 0.85825 0.51102 0.94752 0.0
C1926 C 0.86076 0.49716 0.90752 0.0
C1927 C 0.85481 0.48465 0.88482 0.0
C1928 C 0.84647 0.48604 0.9019 0.0
C1929 C 0.8696 0.49619 0.88921 0.0
C1930 C 0.87174 0.50111 0.83178 0.0
C1931 C 0.87598 0.49255 0.93002 0.0
C1932 C 0.87416 0.48625 0.99028 0.0
C1933 C 0.86912 0.47036 0.00031 0.0
C1934 C 0.86758 0.46423 0.05714 0.0
C1935 C 0.87109 0.4738 0.10432 0.0
C1936 C 0.87615 0.48953 0.09477 0.0
C1937 C 0.8777 0.49574 0.03804 0.0
H1938 H 0.86991 0.469 0.14828 0.0
H1939 H 0.88755 0.52622 0.59805 0.0
H1940 H 0.34674 0.48403 0.46951 0.0
H1941 H 0.36152 0.47881 0.45078 0.0
H1942 H 0.36245 0.53025 0.3503 0.0
H1943 H 0.3477 0.53546 0.36814 0.0
H1944 H 0.36894 0.50101 0.2916 0.0
H1945 H 0.37085 0.52669 0.48537 0.0
H1946 H 0.36796 0.52805 0.59064 0.0
H1947 H 0.37915 0.47352 0.61355 0.0
H1948 H 0.38195 0.47164 0.50812 0.0
H1949 H 0.41089 0.52624 0.26713 0.0
H1950 H 0.3962 0.52368 0.29197 0.0
H1951 H 0.40045 0.46826 0.36412 0.0
H1952 H 0.41525 0.47065 0.33853 0.0
H1953 H 0.39132 0.49374 0.43833 0.0
H1954 H 0.39055 0.46983 0.24461 0.0
H1955 H 0.39351 0.4692 0.13937 0.0
H1956 H 0.38021 0.52126 0.11695 0.0
H1957 H 0.37732 0.52242 0.22227 0.0
C1958 C 0.35012 0.49438 0.44409 0.0
C1959 C 0.34603 0.51013 0.42001 0.0
C1960 C 0.35857 0.49137 0.43352 0.0
C1961 C 0.36308 0.50412 0.39905 0.0
C1962 C 0.35907 0.52017 0.37675 0.0
C1963 C 0.35064 0.52318 0.3872 0.0
C1964 C 0.37184 0.50038 0.38312 0.0
C1965 C 0.37384 0.49957 0.32372 0.0
C1966 C 0.37817 0.49775 0.42514 0.0
C1967 C 0.3765 0.4989 0.48861 0.0
C1968 C 0.37261 0.51488 0.5127 0.0
C1969 C 0.371 0.51577 0.57244 0.0
C1970 C 0.37334 0.50085 0.60873 0.0
C1971 C 0.37731 0.48504 0.58536 0.0
C1972 C 0.37891 0.48405 0.52559 0.0
C1973 C 0.40868 0.51338 0.2875 0.0
C1974 C 0.41418 0.4986 0.3006 0.0
C1975 C 0.4003 0.51195 0.3017 0.0
C1976 C 0.39726 0.49578 0.32976 0.0
C1977 C 0.4027 0.48084 0.34237 0.0
C1978 C 0.4111 0.48214 0.32727 0.0
C1979 C 0.38841 0.49502 0.34689 0.0
C1980 C 0.38639 0.49491 0.40635 0.0
C1981 C 0.38203 0.49691 0.30501 0.0
C1982 C 0.38377 0.49628 0.24153 0.0
C1983 C 0.38833 0.48124 0.21737 0.0
C1984 C 0.38999 0.48078 0.15765 0.0
C1985 C 0.38707 0.4952 0.12151 0.0
C1986 C 0.38248 0.51011 0.145 0.0
C1987 C 0.38082 0.51067 0.20472 0.0
H1988 H 0.38835 0.4948 0.07527 0.0
H1989 H 0.37209 0.50157 0.65498 0.0
H1990 H 0.84741 0.74468 0.23661 0.0
H1991 H 0.86248 0.74663 0.25502 0.0
H1992 H 0.85873 0.72474 0.42821 0.0
H1993 H 0.84384 0.72231 0.40969 0.0
H1994 H 0.869 0.75717 0.42397 0.0
H1995 H 0.86594 0.69646 0.33354 0.0
H1996 H 0.86203 0.67362 0.25733 0.0
H1997 H 0.87811 0.70158 0.13573 0.0
H1998 H 0.882 0.72483 0.21095 0.0
H1999 H 0.91084 0.73593 0.50599 0.0
H2000 H 0.89582 0.73595 0.48721 0.0
H2001 H 0.90052 0.74519 0.30424 0.0
H2002 H 0.91547 0.74406 0.3229 0.0
H2003 H 0.8896 0.71955 0.3132 0.0
H2004 H 0.89286 0.7804 0.40434 0.0
H2005 H 0.89716 0.80224 0.48235 0.0
H2006 H 0.88099 0.77398 0.60275 0.0
H2007 H 0.87669 0.75176 0.5257 0.0
C2008 C 0.84983 0.74031 0.2785 0.0
C2009 C 0.84447 0.73326 0.32157 0.0
C2010 C 0.85842 0.74137 0.28893 0.0
C2011 C 0.86172 0.73578 0.34299 0.0
C2012 C 0.85633 0.72909 0.38623 0.0
C2013 C 0.84782 0.72764 0.37542 0.0
C2014 C 0.87077 0.73693 0.35514 0.0
C2015 C 0.87352 0.74889 0.39996 0.0
C2016 C 0.87665 0.72629 0.32336 0.0
C2017 C 0.87415 0.7126 0.27766 0.0
C2018 C 0.86854 0.69793 0.29032 0.0
C2019 C 0.86635 0.68486 0.24734 0.0
C2020 C 0.86979 0.6862 0.19164 0.0
C2021 C 0.87543 0.7006 0.17883 0.0
C2022 C 0.87762 0.71374 0.22161 0.0
C2023 C 0.90861 0.73837 0.46212 0.0
C2024 C 0.91422 0.74035 0.41593 0.0
C2025 C 0.90004 0.73837 0.45128 0.0
C2026 C 0.89699 0.74084 0.39427 0.0
C2027 C 0.90268 0.74326 0.34853 0.0
C2028 C 0.91121 0.74281 0.3592 0.0
C2029 C 0.88791 0.74012 0.38143 0.0
C2030 C 0.88513 0.72809 0.33676 0.0
C2031 C 0.882 0.75077 0.4132 0.0
C2032 C 0.88449 0.76432 0.45932 0.0
C2033 C 0.89025 0.77878 0.44753 0.0
C2034 C 0.89269 0.79122 0.49158 0.0
C2035 C 0.88936 0.78948 0.54749 0.0
C2036 C 0.88357 0.77531 0.55943 0.0
C2037 C 0.88112 0.76279 0.51558 0.0
H2038 H 0.89126 0.79913 0.58154 0.0
H2039 H 0.8681 0.67603 0.15848 0.0
H2040 H 0.66338 0.23848 0.24691 0.0
H2041 H 0.64833 0.237 0.22909 0.0
H2042 H 0.6519 0.26362 0.06183 0.0
H2043 H 0.66672 0.26596 0.08078 0.0
H2044 H 0.63986 0.27972 0.10921 0.0
H2045 H 0.64703 0.21403 0.08601 0.0
H2046 H 0.65238 0.18259 0.11303 0.0
H2047 H 0.63517 0.17993 0.25552 0.0
H2048 H 0.62981 0.21148 0.22998 0.0
H2049 H 0.59902 0.26187 -0.00415 0.0
H2050 H 0.61415 0.25862 0.00903 0.0
H2051 H 0.61045 0.24772 0.19199 0.0
H2052 H 0.59545 0.25159 0.17937 0.0
H2053 H 0.6222 0.22297 0.13504 0.0
H2054 H 0.61538 0.28878 0.15872 0.0
H2055 H 0.60923 0.31896 0.12719 0.0
H2056 H 0.62559 0.32037 0.97972 0.0
H2057 H 0.63171 0.28991 0.00964 0.0
C2058 C 0.66092 0.24391 0.20634 0.0
C2059 C 0.66622 0.25248 0.16551 0.0
C2060 C 0.65232 0.24296 0.19592 0.0
C2061 C 0.64892 0.25009 0.14377 0.0
C2062 C 0.6543 0.25816 0.10259 0.0
C2063 C 0.6628 0.25948 0.1135 0.0
C2064 C 0.63978 0.25016 0.13259 0.0
C2065 C 0.63607 0.26715 0.11406 0.0
C2066 C 0.63469 0.23397 0.14012 0.0
C2067 C 0.6381 0.21525 0.15654 0.0
C2068 C 0.64446 0.20685 0.12356 0.0
C2069 C 0.64748 0.18898 0.13852 0.0
C2070 C 0.64414 0.1793 0.18609 0.0
C2071 C 0.63777 0.18747 0.2188 0.0
C2072 C 0.63474 0.20535 0.20412 0.0
C2073 C 0.60148 0.25873 0.03869 0.0
C2074 C 0.59615 0.25721 0.08681 0.0
C2075 C 0.61008 0.25684 0.04617 0.0
C2076 C 0.61339 0.25296 0.10155 0.0
C2077 C 0.60801 0.25071 0.149 0.0
C2078 C 0.59947 0.25309 0.14185 0.0
C2079 C 0.62247 0.25231 0.11123 0.0
C2080 C 0.6261 0.23535 0.1298 0.0
C2081 C 0.6275 0.26844 0.10351 0.0
C2082 C 0.62393 0.28693 0.08602 0.0
C2083 C 0.61761 0.29541 0.11924 0.0
C2084 C 0.61413 0.31258 0.10169 0.0
C2085 C 0.617 0.32155 0.05138 0.0
C2086 C 0.62336 0.31338 0.0186 0.0
C2087 C 0.62683 0.29615 0.03582 0.0
H2088 H 0.6143 0.33485 0.03788 0.0
H2089 H 0.64647 0.16544 0.19748 0.0
H2090 H 0.09764 0.48681 0.2519 0.0
H2091 H 0.11258 0.49105 0.23453 0.0
H2092 H 0.10851 0.48391 0.04994 0.0
H2093 H 0.09381 0.47862 0.06754 0.0
H2094 H 0.12008 0.46253 0.07964 0.0
H2095 H 0.11407 0.52758 0.11973 0.0
H2096 H 0.10925 0.55546 0.17445 0.0
H2097 H 0.12657 0.54314 0.31141 0.0
H2098 H 0.13141 0.51501 0.25806 0.0
H2099 H 0.16181 0.48381 0.99391 0.0
H2100 H 0.14675 0.48793 0.00659 0.0
H2101 H 0.14959 0.48128 0.19224 0.0
H2102 H 0.16452 0.47674 0.17981 0.0
H2103 H 0.13888 0.51167 0.15866 0.0
H2104 H 0.14393 0.44552 0.11929 0.0
H2105 H 0.14887 0.41823 0.06244 0.0
H2106 H 0.13297 0.43402 0.92045 0.0
H2107 H 0.12807 0.46168 0.97599 0.0
C2108 C 0.09998 0.48614 0.20776 0.0
C2109 C 0.09463 0.48196 0.16118 0.0
C2110 C 0.10849 0.48881 0.19774 0.0
C2111 C 0.11169 0.48788 0.1408 0.0
C2112 C 0.10623 0.48452 0.09429 0.0
C2113 C 0.09783 0.48136 0.10441 0.0
C2114 C 0.12077 0.48834 0.12943 0.0
C2115 C 0.12413 0.47358 0.09601 0.0
C2116 C 0.12614 0.50241 0.1521 0.0
C2117 C 0.12303 0.51901 0.18512 0.0
C2118 C 0.11678 0.53065 0.16186 0.0
C2119 C 0.11406 0.54655 0.19258 0.0
C2120 C 0.11758 0.55103 0.24645 0.0
C2121 C 0.12383 0.53963 0.26975 0.0
C2122 C 0.12656 0.5237 0.23928 0.0
C2123 C 0.15919 0.48321 0.0373 0.0
C2124 C 0.16428 0.47967 0.08581 0.0
C2125 C 0.15063 0.48564 0.0445 0.0
C2126 C 0.1471 0.48491 0.10037 0.0
C2127 C 0.15221 0.48192 0.14885 0.0
C2128 C 0.16071 0.47911 0.14159 0.0
C2129 C 0.13802 0.48608 0.10853 0.0
C2130 C 0.13472 0.50095 0.14167 0.0
C2131 C 0.13265 0.47226 0.08524 0.0
C2132 C 0.13574 0.45586 0.05142 0.0
C2133 C 0.14158 0.44335 0.07561 0.0
C2134 C 0.14436 0.42778 0.04368 0.0
C2135 C 0.14126 0.42443 0.98777 0.0
C2136 C 0.13538 0.43666 0.96367 0.0
C2137 C 0.13262 0.45231 -0.00469 0.0
H2138 H 0.1434 0.41233 0.96321 0.0
H2139 H 0.11548 0.56337 0.27006 0.0
H2140 H 0.65954 0.46108 0.49364 0.0
H2141 H 0.64489 0.46602 0.51876 0.0
H2142 H 0.65197 0.50777 0.64621 0.0
H2143 H 0.66654 0.50323 0.6209 0.0
H2144 H 0.64136 0.47847 0.68797 0.0
H2145 H 0.64286 0.52451 0.53884 0.0
H2146 H 0.64614 0.53791 0.44252 0.0
H2147 H 0.6298 0.49793 0.3611 0.0
H2148 H 0.6265 0.48408 0.45689 0.0
H2149 H 0.59787 0.49726 0.74107 0.0
H2150 H 0.6127 0.50213 0.72172 0.0
H2151 H 0.61128 0.46366 0.57642 0.0
H2152 H 0.59656 0.45863 0.59543 0.0
H2153 H 0.61926 0.49762 0.54948 0.0
H2154 H 0.61936 0.44935 0.69938 0.0
H2155 H 0.61617 0.43631 0.79634 0.0
H2156 H 0.62979 0.48141 0.87709 0.0
H2157 H 0.63293 0.49492 0.7805 0.0
C2158 C 0.65795 0.47139 0.52666 0.0
C2159 C 0.66416 0.48175 0.55527 0.0
C2160 C 0.64961 0.47428 0.54069 0.0
C2161 C 0.64741 0.48735 0.58399 0.0
C2162 C 0.65358 0.49772 0.61248 0.0
C2163 C 0.66189 0.49508 0.59787 0.0
C2164 C 0.63868 0.48916 0.60219 0.0
C2165 C 0.63652 0.48303 0.65819 0.0
C2166 C 0.63244 0.49504 0.563 0.0
C2167 C 0.63449 0.50313 0.50509 0.0
C2168 C 0.64003 0.51842 0.50036 0.0
C2169 C 0.64188 0.52614 0.44586 0.0
C2170 C 0.6382 0.51875 0.39571 0.0
C2171 C 0.63265 0.50363 0.39998 0.0
C2172 C 0.63079 0.49585 0.45439 0.0
C2173 C 0.60075 0.48971 0.70538 0.0
C2174 C 0.59606 0.47752 0.66985 0.0
C2175 C 0.6092 0.49255 0.69432 0.0
C2176 C 0.61303 0.48333 0.64746 0.0
C2177 C 0.6084 0.471 0.61253 0.0
C2178 C 0.6 0.46801 0.62383 0.0
C2179 C 0.62191 0.48624 0.63449 0.0
C2180 C 0.6241 0.49336 0.57957 0.0
C2181 C 0.62819 0.48134 0.67476 0.0
C2182 C 0.62627 0.4733 0.73279 0.0
C2183 C 0.62159 0.45661 0.73784 0.0
C2184 C 0.61981 0.44911 0.79271 0.0
C2185 C 0.62274 0.45807 0.84287 0.0
C2186 C 0.62749 0.47453 0.83822 0.0
C2187 C 0.62927 0.48212 0.78342 0.0
H2188 H 0.62137 0.45222 0.88532 0.0
H2189 H 0.63963 0.52476 0.35355 0.0
H2190 H 0.16752 0.24271 0.58378 0.0
H2191 H 0.15263 0.23979 0.5642 0.0
H2192 H 0.14726 0.2599 0.73756 0.0
H2193 H 0.16225 0.26206 0.75784 0.0
H2194 H 0.13649 0.23311 0.70896 0.0
H2195 H 0.14646 0.28957 0.61357 0.0
H2196 H 0.15502 0.3089 0.54742 0.0
H2197 H 0.14714 0.27518 0.4021 0.0
H2198 H 0.13859 0.25555 0.46752 0.0
H2199 H 0.09661 0.27208 0.6645 0.0
H2200 H 0.11145 0.26741 0.68064 0.0
H2201 H 0.11346 0.23885 0.5154 0.0
H2202 H 0.09852 0.24327 0.49905 0.0
H2203 H 0.12569 0.26689 0.53539 0.0
H2204 H 0.11479 0.21223 0.62853 0.0
H2205 H 0.10523 0.19476 0.69273 0.0
H2206 H 0.11414 0.22601 0.84029 0.0
H2207 H 0.12371 0.24382 0.77681 0.0
C2208 C 0.16314 0.24618 0.61795 0.0
C2209 C 0.16598 0.25249 0.67234 0.0
C2210 C 0.15464 0.24468 0.60662 0.0
C2211 C 0.14878 0.25 0.64891 0.0
C2212 C 0.15164 0.25573 0.70415 0.0
C2213 C 0.16018 0.25695 0.71581 0.0
C2214 C 0.13974 0.25023 0.63468 0.0
C2215 C 0.13415 0.24065 0.67131 0.0
C2216 C 0.13662 0.25958 0.58454 0.0
C2217 C 0.14198 0.27095 0.54554 0.0
C2218 C 0.14663 0.28615 0.56762 0.0
C2219 C 0.15146 0.2972 0.53023 0.0
C2220 C 0.15165 0.29323 0.47063 0.0
C2221 C 0.14701 0.27821 0.44828 0.0
C2222 C 0.14217 0.26713 0.48548 0.0
C2223 C 0.1002 0.26489 0.63136 0.0
C2224 C 0.0964 0.25806 0.58045 0.0
C2225 C 0.10867 0.26208 0.64093 0.0
C2226 C 0.11351 0.25256 0.5996 0.0
C2227 C 0.1098 0.24611 0.548 0.0
C2228 C 0.10128 0.24869 0.5387 0.0
C2229 C 0.12252 0.25004 0.60991 0.0
C2230 C 0.12809 0.25917 0.57261 0.0
C2231 C 0.12558 0.24031 0.65923 0.0
C2232 C 0.11994 0.22943 0.69786 0.0
C2233 C 0.11469 0.21545 0.67463 0.0
C2234 C 0.10927 0.20547 0.71089 0.0
C2235 C 0.10907 0.20929 0.77054 0.0
C2236 C 0.11431 0.22306 0.79407 0.0
C2237 C 0.11975 0.23307 0.75799 0.0
H2238 H 0.10486 0.20157 0.79855 0.0
H2239 H 0.15538 0.30183 0.44174 0.0
H2240 H 0.30544 0.26264 0.48581 0.0
H2241 H 0.3042 0.25791 0.59091 0.0
H2242 H 0.32556 0.22104 0.58778 0.0
H2243 H 0.32641 0.2247 0.48167 0.0
H2244 H 0.31465 0.2091 0.66623 0.0
H2245 H 0.32756 0.26887 0.61996 0.0
H2246 H 0.32795 0.299 0.56605 0.0
H2247 H 0.30515 0.31617 0.6471 0.0
H2248 H 0.30457 0.28603 0.70106 0.0
H2249 H 0.32416 0.21894 0.9654 0.0
H2250 H 0.32496 0.21945 0.85894 0.0
H2251 H 0.30464 0.25928 0.85354 0.0
H2252 H 0.30432 0.25986 0.96017 0.0
H2253 H 0.3154 0.26901 0.77849 0.0
H2254 H 0.30272 0.20874 0.82699 0.0
H2255 H 0.3023 0.17794 0.87724 0.0
H2256 H 0.32482 0.16126 0.79145 0.0
H2257 H 0.32542 0.19203 0.7412 0.0
C2258 C 0.30978 0.25335 0.5077 0.0
C2259 C 0.31607 0.24419 0.47659 0.0
C2260 C 0.30909 0.25066 0.56748 0.0
C2261 C 0.31493 0.23955 0.5972 0.0
C2262 C 0.32101 0.22973 0.56562 0.0
C2263 C 0.32153 0.2319 0.50536 0.0
C2264 C 0.3151 0.23947 0.66142 0.0
C2265 C 0.31489 0.22215 0.69095 0.0
C2266 C 0.31536 0.25654 0.69338 0.0
C2267 C 0.31601 0.2752 0.66433 0.0
C2268 C 0.32265 0.27912 0.62645 0.0
C2269 C 0.32289 0.29616 0.59578 0.0
C2270 C 0.31656 0.30944 0.60306 0.0
C2271 C 0.31004 0.30584 0.64154 0.0
C2272 C 0.30976 0.28881 0.67229 0.0
C2273 C 0.31995 0.22793 0.9411 0.0
C2274 C 0.31422 0.23945 0.97005 0.0
C2275 C 0.32034 0.22806 0.88051 0.0
C2276 C 0.31472 0.23904 0.84821 0.0
C2277 C 0.30903 0.25069 0.87756 0.0
C2278 C 0.30885 0.25105 0.9382 0.0
C2279 C 0.31479 0.23861 0.78387 0.0
C2280 C 0.31512 0.2559 0.75411 0.0
C2281 C 0.31467 0.22148 0.7519 0.0
C2282 C 0.31415 0.20274 0.78066 0.0
C2283 C 0.30759 0.19851 0.81895 0.0
C2284 C 0.30732 0.18106 0.84745 0.0
C2285 C 0.31354 0.16767 0.83765 0.0
C2286 C 0.32001 0.17165 0.79904 0.0
C2287 C 0.32031 0.18908 0.77046 0.0
H2288 H 0.31334 0.15421 0.85995 0.0
H2289 H 0.31672 0.3225 0.57877 0.0
H2290 H 0.94499 0.01694 0.47209 0.0
H2291 H 0.94738 0.01901 0.57733 0.0
H2292 H 0.93852 0.96182 0.59773 0.0
H2293 H 0.93593 0.95984 0.49354 0.0
H2294 H 0.93083 0.98521 0.66891 0.0
H2295 H 0.95909 0.97356 0.60993 0.0
H2296 H 0.97232 0.97934 0.559 0.0
H2297 H 0.97459 0.03316 0.64368 0.0
H2298 H 0.9613 0.02787 0.69434 0.0
H2299 H 0.94254 0.96471 0.96031 0.0
H2300 H 0.94058 0.96529 0.85469 0.0
H2301 H 0.94945 0.0228 0.84928 0.0
H2302 H 0.95158 0.02224 0.95438 0.0
H2303 H 0.95705 0.00139 0.77041 0.0
H2304 H 0.92896 0.01277 0.83045 0.0
H2305 H 0.91566 0.0072 0.88069 0.0
H2306 H 0.91307 0.95391 0.79326 0.0
H2307 H 0.92642 0.95901 0.74318 0.0
C2308 C 0.94361 0.00481 0.49917 0.0
C2309 C 0.94017 0.98832 0.47514 0.0
C2310 C 0.94503 0.00596 0.559 0.0
C2311 C 0.94314 0.99054 0.59497 0.0
C2312 C 0.93997 0.97389 0.57055 0.0
C2313 C 0.93846 0.97282 0.51116 0.0
C2314 C 0.94379 0.99204 0.65865 0.0
C2315 C 0.93659 0.9885 0.69124 0.0
C2316 C 0.95124 -0.00297 0.68718 0.0
C2317 C 0.95913 0.00042 0.65535 0.0
C2318 C 0.96234 0.98674 0.61709 0.0
C2319 C 0.96987 0.98991 0.5884 0.0
C2320 C 0.97428 0.00663 0.59794 0.0
C2321 C 0.97116 0.02023 0.63619 0.0
C2322 C 0.96363 0.01716 0.66487 0.0
C2323 C 0.94401 0.97751 0.9366 0.0
C2324 C 0.94725 0.99339 0.96533 0.0
C2325 C 0.94285 0.97785 0.87644 0.0
C2326 C 0.94482 -0.00586 0.84452 0.0
C2327 C 0.94792 0.0101 0.87332 0.0
C2328 C 0.94913 0.00973 0.93326 0.0
C2329 C 0.94413 -0.00578 0.78064 0.0
C2330 C 0.95129 -0.00186 0.74803 0.0
C2331 C 0.93665 0.98955 0.75194 0.0
C2332 C 0.92875 0.98618 0.78361 0.0
C2333 C 0.92562 -0.00025 0.82253 0.0
C2334 C 0.91805 -0.0033 0.85083 0.0
C2335 C 0.91353 0.98019 0.84032 0.0
C2336 C 0.91658 0.96668 0.80149 0.0
C2337 C 0.92414 0.96964 0.77314 0.0
H2338 H 0.90766 0.97789 0.86214 0.0
H2339 H 0.98012 0.00902 0.57583 0.0
H2340 H 0.32412 0.00605 0.27285 0.0
H2341 H 0.32558 0.00705 0.37936 0.0
H2342 H 0.30357 0.9727 0.39692 0.0
H2343 H 0.30222 0.97149 0.29067 0.0
H2344 H 0.30324 0.00577 0.46321 0.0
H2345 H 0.3214 0.95334 0.42505 0.0
H2346 H 0.33315 0.93665 0.37932 0.0
H2347 H 0.35014 0.97727 0.45073 0.0
H2348 H 0.33847 -0.00564 0.49629 0.0
H2349 H 0.30422 0.97189 0.75108 0.0
H2350 H 0.30421 0.97629 0.64544 0.0
H2351 H 0.32593 0.01175 0.65893 0.0
H2352 H 0.32598 0.00727 0.76496 0.0
H2353 H 0.32725 0.98199 0.5771 0.0
H2354 H 0.30899 0.03288 0.62246 0.0
H2355 H 0.29714 0.04874 0.6697 0.0
H2356 H 0.28026 0.01042 0.58608 0.0
H2357 H 0.29201 -0.00581 0.53879 0.0
C2358 C 0.31971 -0.00152 0.29978 0.0
C2359 C 0.31306 0.98872 0.27452 0.0
C2360 C 0.32053 -0.00093 0.36021 0.0
C2361 C 0.31466 0.98998 0.39563 0.0
C2362 C 0.30812 0.97986 0.37009 0.0
C2363 C 0.30735 0.97917 0.30972 0.0
C2364 C 0.3151 0.99175 0.4594 0.0
C2365 C 0.30845 0.00044 0.48826 0.0
C2366 C 0.32204 0.98535 0.49142 0.0
C2367 C 0.32905 0.97527 0.4634 0.0
C2368 C 0.32763 0.95884 0.43043 0.0
C2369 C 0.33428 0.94928 0.40469 0.0
C2370 C 0.34238 0.95594 0.41193 0.0
C2371 C 0.34385 0.97216 0.44504 0.0
C2372 C 0.33723 0.98178 0.47085 0.0
C2373 C 0.30897 0.98063 0.73138 0.0
C2374 C 0.31515 0.98905 0.76552 0.0
C2375 C 0.30892 0.98328 0.67136 0.0
C2376 C 0.31505 -0.0056 0.64481 0.0
C2377 C 0.32114 0.00317 0.67897 0.0
C2378 C 0.32115 0.00066 0.73922 0.0
C2379 C 0.31532 -0.00431 0.58094 0.0
C2380 C 0.3221 0.98759 0.55198 0.0
C2381 C 0.30849 0.0026 0.5488 0.0
C2382 C 0.30139 0.01224 0.57739 0.0
C2383 C 0.30276 0.02773 0.61451 0.0
C2384 C 0.29606 0.03682 0.6412 0.0
C2385 C 0.28796 0.03057 0.63098 0.0
C2386 C 0.28654 0.01524 0.59396 0.0
C2387 C 0.29322 0.00612 0.56711 0.0
H2388 H 0.28278 0.03763 0.65168 0.0
H2389 H 0.34752 0.9485 0.39204 0.0
H2390 H 0.93705 0.21395 0.28153 0.0
H2391 H 0.93658 0.2152 0.38829 0.0
H2392 H 0.95182 0.2653 0.38628 0.0
H2393 H 0.95201 0.26457 0.27929 0.0
H2394 H 0.95686 0.23194 0.46381 0.0
H2395 H 0.93478 0.27528 0.41804 0.0
H2396 H 0.92185 0.28598 0.37101 0.0
H2397 H 0.90847 0.2404 0.4511 0.0
H2398 H 0.92137 0.22925 0.49796 0.0
H2399 H 0.95063 0.27202 0.74882 0.0
H2400 H 0.95147 0.26699 0.64326 0.0
H2401 H 0.93683 0.21628 0.65998 0.0
H2402 H 0.93627 0.22079 0.76603 0.0
H2403 H 0.93142 0.24786 0.57544 0.0
H2404 H 0.95339 0.20533 0.62506 0.0
H2405 H 0.96632 0.19476 0.67241 0.0
H2406 H 0.97988 0.23879 0.58595 0.0
H2407 H 0.967 0.24978 0.53859 0.0
C2408 C 0.94021 0.22532 0.30404 0.0
C2409 C 0.94448 0.2393 0.27277 0.0
C2410 C 0.93995 0.22601 0.36467 0.0
C2411 C 0.94414 0.24037 0.39462 0.0
C2412 C 0.94852 0.25421 0.36352 0.0
C2413 C 0.94858 0.25384 0.30276 0.0
C2414 C 0.94407 0.24067 0.45862 0.0
C2415 C 0.95134 0.23562 0.48838 0.0
C2416 C 0.93678 0.24494 0.49005 0.0
C2417 C 0.92906 0.25126 0.46071 0.0
C2418 C 0.92911 0.26736 0.42489 0.0
C2419 C 0.92178 0.27356 0.39848 0.0
C2420 C 0.91435 0.26383 0.40785 0.0
C2421 C 0.91424 0.24789 0.44373 0.0
C2422 C 0.92156 0.24162 0.47022 0.0
C2423 C 0.94767 0.25972 0.72988 0.0
C2424 C 0.94343 0.24673 0.76502 0.0
C2425 C 0.94819 0.25682 0.66995 0.0
C2426 C 0.94427 0.2412 0.64443 0.0
C2427 C 0.93996 0.22828 0.67936 0.0
C2428 C 0.93965 0.23086 0.73957 0.0
C2429 C 0.94422 0.23927 0.58072 0.0
C2430 C 0.93692 0.24404 0.55092 0.0
C2431 C 0.95149 0.23474 0.54933 0.0
C2432 C 0.9592 0.22855 0.57895 0.0
C2433 C 0.9591 0.21294 0.6168 0.0
C2434 C 0.96643 0.20681 0.64343 0.0
C2435 C 0.97391 0.21614 0.63237 0.0
C2436 C 0.97408 0.23161 0.59459 0.0
C2437 C 0.96677 0.23778 0.5678 0.0
H2438 H 0.97958 0.21135 0.65293 0.0
H2439 H 0.90868 0.26868 0.3875 0.0
H2440 H 0.69616 0.71771 0.02975 0.0
H2441 H 0.69569 0.71784 0.13608 0.0
H2442 H 0.692 0.77826 0.13488 0.0
H2443 H 0.69282 0.77828 0.02867 0.0
H2444 H 0.70302 0.76983 0.21214 0.0
H2445 H 0.6761 0.74579 0.16511 0.0
H2446 H 0.66574 0.72484 0.11949 0.0
H2447 H 0.67616 0.67714 0.20884 0.0
H2448 H 0.68668 0.69772 0.25416 0.0
H2449 H 0.69011 0.76988 0.51603 0.0
H2450 H 0.69087 0.77401 0.41007 0.0
H2451 H 0.69991 0.71699 0.39215 0.0
H2452 H 0.69917 0.71276 0.49777 0.0
H2453 H 0.68544 0.72581 0.32611 0.0
H2454 H 0.71256 0.75022 0.37096 0.0
H2455 H 0.72276 0.77144 0.41696 0.0
H2456 H 0.71155 0.81915 0.3325 0.0
H2457 H 0.70115 0.79826 0.28698 0.0
C2458 C 0.69517 0.73097 0.05223 0.0
C2459 C 0.69451 0.74797 0.02118 0.0
C2460 C 0.69487 0.73104 0.11292 0.0
C2461 C 0.69369 0.74804 0.14341 0.0
C2462 C 0.69291 0.76499 0.11227 0.0
C2463 C 0.69336 0.76497 0.05166 0.0
C2464 C 0.69359 0.74822 0.20782 0.0
C2465 C 0.69906 0.76044 0.2371 0.0
C2466 C 0.68853 0.73574 0.2403 0.0
C2467 C 0.68224 0.7233 0.2126 0.0
C2468 C 0.67624 0.73081 0.1746 0.0
C2469 C 0.67032 0.71899 0.14885 0.0
C2470 C 0.6703 0.69967 0.16114 0.0
C2471 C 0.67619 0.69211 0.19926 0.0
C2472 C 0.68213 0.70384 0.22499 0.0
C2473 C 0.69234 0.75831 0.48945 0.0
C2474 C 0.69443 0.74084 0.51466 0.0
C2475 C 0.69278 0.76071 0.42917 0.0
C2476 C 0.69537 0.74571 0.39373 0.0
C2477 C 0.69779 0.72858 0.41909 0.0
C2478 C 0.69732 0.72616 0.47914 0.0
C2479 C 0.69494 0.74716 0.3299 0.0
C2480 C 0.68933 0.73529 0.30092 0.0
C2481 C 0.69982 0.76005 0.29791 0.0
C2482 C 0.70598 0.77268 0.32627 0.0
C2483 C 0.71218 0.76526 0.3629 0.0
C2484 C 0.71802 0.77723 0.38874 0.0
C2485 C 0.71778 0.79664 0.37786 0.0
C2486 C 0.71171 0.80412 0.34107 0.0
C2487 C 0.70583 0.79222 0.31527 0.0
H2488 H 0.72233 0.80588 0.39776 0.0
H2489 H 0.66571 0.69055 0.14123 0.0
H2490 H 0.05033 0.97791 0.04684 0.0
H2491 H 0.05191 0.97861 0.15272 0.0
H2492 H 0.07353 0.01405 0.1352 0.0
H2493 H 0.0718 0.0141 0.02903 0.0
H2494 H 0.07515 0.97863 0.20587 0.0
H2495 H 0.05996 0.03681 0.19504 0.0
H2496 H 0.04897 0.06031 0.17616 0.0
H2497 H 0.03087 0.02352 0.25352 0.0
H2498 H 0.04179 -0.00012 0.27334 0.0
H2499 H 0.08058 0.01208 0.4979 0.0
H2500 H 0.07921 0.00761 0.39278 0.0
H2501 H 0.05654 0.97632 0.41941 0.0
H2502 H 0.0579 0.98054 0.52475 0.0
H2503 H 0.05535 0.00804 0.34415 0.0
H2504 H 0.07198 0.95272 0.37035 0.0
H2505 H 0.08402 0.93459 0.40593 0.0
H2506 H 0.1004 0.96932 0.30452 0.0
H2507 H 0.08846 0.98784 0.26889 0.0
C2508 C 0.05536 0.98608 0.06553 0.0
C2509 C 0.06091 -0.00393 0.02978 0.0
C2510 C 0.05623 0.98647 0.12592 0.0
C2511 C 0.06281 -0.00355 0.15139 0.0
C2512 C 0.06839 0.00638 0.11601 0.0
C2513 C 0.06739 0.0064 0.05557 0.0
C2514 C 0.06408 -0.0045 0.21481 0.0
C2515 C 0.07088 0.98521 0.23624 0.0
C2516 C 0.05839 0.0037 0.25403 0.0
C2517 C 0.05166 0.0165 0.2349 0.0
C2518 C 0.05361 0.03359 0.207 0.0
C2519 C 0.04742 0.04705 0.19694 0.0
C2520 C 0.03925 0.04349 0.21421 0.0
C2521 C 0.03722 0.02632 0.24061 0.0
C2522 C 0.0434 0.0129 0.25128 0.0
C2523 C 0.07534 0.0041 0.48143 0.0
C2524 C 0.06928 -0.00315 0.51938 0.0
C2525 C 0.07462 0.00141 0.4215 0.0
C2526 C 0.0678 0.99156 0.39872 0.0
C2527 C 0.06186 0.98388 0.4365 0.0
C2528 C 0.06263 0.98635 0.4965 0.0
C2529 C 0.0664 0.99121 0.33538 0.0
C2530 C 0.05956 0.00122 0.31385 0.0
C2531 C 0.07212 0.98297 0.29635 0.0
C2532 C 0.07932 0.97177 0.3173 0.0
C2533 C 0.07815 0.95659 0.35597 0.0
C2534 C 0.08496 0.94622 0.37606 0.0
C2535 C 0.09297 0.95082 0.35755 0.0
C2536 C 0.09419 0.96576 0.31876 0.0
C2537 C 0.0874 0.97619 0.29855 0.0
H2538 H 0.09824 0.9428 0.37325 0.0
H2539 H 0.03447 0.05393 0.20642 0.0
H2540 H 0.69496 0.96365 0.70669 0.0
H2541 H 0.69308 0.96361 0.60112 0.0
H2542 H 0.69655 0.02412 0.59797 0.0
H2543 H 0.69792 0.02427 0.70424 0.0
H2544 H 0.68472 0.01474 0.52654 0.0
H2545 H 0.71255 0.99132 0.563 0.0
H2546 H 0.72255 0.96974 0.60987 0.0
H2547 H 0.71066 0.92223 0.5288 0.0
H2548 H 0.70053 0.94353 0.48192 0.0
H2549 H 0.6951 0.03048 0.2369 0.0
H2550 H 0.69622 0.02662 0.34218 0.0
H2551 H 0.6907 0.96721 0.32501 0.0
H2552 H 0.68987 0.97087 0.21902 0.0
H2553 H 0.70278 0.97359 0.40573 0.0
H2554 H 0.67538 -0.00273 0.36565 0.0
H2555 H 0.66554 0.01901 0.31788 0.0
H2556 H 0.67679 0.06609 0.40556 0.0
H2557 H 0.68675 0.04463 0.45346 0.0
C2558 C 0.69527 0.97693 0.68329 0.0
C2559 C 0.69661 -0.00603 0.71297 0.0
C2560 C 0.69424 0.97689 0.62311 0.0
C2561 C 0.69486 -0.00619 0.59159 0.0
C2562 C 0.69606 0.0109 0.62151 0.0
C2563 C 0.69685 0.011 0.68197 0.0
C2564 C 0.6944 -0.00629 0.52736 0.0
C2565 C 0.68873 0.00588 0.50019 0.0
C2566 C 0.69947 0.98173 0.49302 0.0
C2567 C 0.70576 0.969 0.51925 0.0
C2568 C 0.71207 0.97627 0.55522 0.0
C2569 C 0.71775 0.96409 0.58183 0.0
C2570 C 0.71723 0.94462 0.5724 0.0
C2571 C 0.71105 0.93731 0.53606 0.0
C2572 C 0.70535 0.94943 0.50937 0.0
C2573 C 0.69416 0.01659 0.25556 0.0
C2574 C 0.69234 0.00101 0.22014 0.0
C2575 C 0.69479 0.0144 0.31559 0.0
C2576 C 0.69338 -0.0033 0.34126 0.0
C2577 C 0.69179 0.98098 0.30588 0.0
C2578 C 0.6913 0.9831 0.24555 0.0
C2579 C 0.69325 -0.00506 0.40525 0.0
C2580 C 0.69876 0.98236 0.43225 0.0
C2581 C 0.68804 0.00654 0.43956 0.0
C2582 C 0.68182 0.01936 0.413 0.0
C2583 C 0.67575 0.01226 0.37475 0.0
C2584 C 0.67016 0.02453 0.34761 0.0
C2585 C 0.67054 0.04392 0.35865 0.0
C2586 C 0.67649 0.05107 0.39712 0.0
C2587 C 0.6821 0.03885 0.42441 0.0
H2588 H 0.66623 0.05341 0.33742 0.0
H2589 H 0.72162 0.93521 0.59319 0.0
H2590 H 0.08061 0.72477 0.24653 0.0
H2591 H 0.07924 0.72838 0.35183 0.0
H2592 H 0.05597 0.75759 0.328 0.0
H2593 H 0.05747 0.75468 0.22232 0.0
H2594 H 0.06575 0.77473 0.40936 0.0
H2595 H 0.05389 0.70852 0.39598 0.0
H2596 H 0.0544 0.67579 0.35879 0.0
H2597 H 0.08019 0.67207 0.40451 0.0
H2598 H 0.0797 0.70441 0.44489 0.0
H2599 H 0.05184 0.76773 0.70196 0.0
H2600 H 0.05296 0.76572 0.59602 0.0
H2601 H 0.07527 0.73236 0.61358 0.0
H2602 H 0.07399 0.7337 0.71943 0.0
H2603 H 0.06565 0.71758 0.53457 0.0
H2604 H 0.07577 0.78004 0.57614 0.0
H2605 H 0.07499 0.81182 0.6197 0.0
H2606 H 0.0532 0.82396 0.51866 0.0
H2607 H 0.05379 0.79212 0.47496 0.0
C2608 C 0.07519 0.73188 0.26378 0.0
C2609 C 0.0691 0.7393 0.22647 0.0
C2610 C 0.07439 0.73383 0.32389 0.0
C2611 C 0.0674 0.74284 0.34765 0.0
C2612 C 0.06138 0.7505 0.31043 0.0
C2613 C 0.06224 0.7488 0.25022 0.0
C2614 C 0.06642 0.74432 0.41139 0.0
C2615 C 0.06564 0.76226 0.43682 0.0
C2616 C 0.06643 0.72811 0.44714 0.0
C2617 C 0.06678 0.70883 0.42269 0.0
C2618 C 0.05966 0.70069 0.39796 0.0
C2619 C 0.05994 0.6822 0.37659 0.0
C2620 C 0.06735 0.67196 0.37841 0.0
C2621 C 0.07446 0.68004 0.40285 0.0
C2622 C 0.07417 0.69834 0.42562 0.0
C2623 C 0.057 0.76005 0.68314 0.0
C2624 C 0.06287 0.75095 0.71869 0.0
C2625 C 0.05765 0.75896 0.62269 0.0
C2626 C 0.06427 0.74912 0.59701 0.0
C2627 C 0.07011 0.74002 0.63258 0.0
C2628 C 0.0694 0.74084 0.69294 0.0
C2629 C 0.06508 0.74803 0.53304 0.0
C2630 C 0.06577 0.73012 0.50741 0.0
C2631 C 0.06507 0.76435 0.49743 0.0
C2632 C 0.0648 0.78366 0.52249 0.0
C2633 C 0.0708 0.78946 0.56333 0.0
C2634 C 0.07039 0.80748 0.58804 0.0
C2635 C 0.06406 0.81991 0.57186 0.0
C2636 C 0.05811 0.81432 0.53101 0.0
C2637 C 0.05849 0.7963 0.50618 0.0
H2638 H 0.06377 0.83387 0.59092 0.0
H2639 H 0.06756 0.65774 0.36124 0.0
H2640 H 0.30573 0.73065 0.97198 0.0
H2641 H 0.3044 0.72735 0.07762 0.0
H2642 H 0.32671 0.76017 0.10155 0.0
H2643 H 0.32813 0.76336 -0.00399 0.0
H2644 H 0.32675 0.72743 0.1658 0.0
H2645 H 0.3078 0.78171 0.14435 0.0
H2646 H 0.2958 0.79918 0.10469 0.0
H2647 H 0.27993 0.75181 0.13965 0.0
H2648 H 0.29179 0.73431 0.18134 0.0
H2649 H 0.32373 0.7521 0.46482 0.0
H2650 H 0.32456 0.75204 0.35832 0.0
H2651 H 0.30279 0.71662 0.34964 0.0
H2652 H 0.30198 0.7164 0.45606 0.0
H2653 H 0.30204 0.74836 0.27744 0.0
H2654 H 0.31991 0.69682 0.3161 0.0
H2655 H 0.33133 0.67931 0.36285 0.0
H2656 H 0.34897 0.71903 0.29476 0.0
H2657 H 0.33764 0.73689 0.24778 0.0
C2658 C 0.31033 0.73722 -0.00023 0.0
C2659 C 0.31701 0.74734 0.97576 0.0
C2660 C 0.30953 0.73544 0.06008 0.0
C2661 C 0.31541 0.74369 0.09735 0.0
C2662 C 0.32209 0.75378 0.07349 0.0
C2663 C 0.32287 0.75563 0.01323 0.0
C2664 C 0.31481 0.74108 0.16112 0.0
C2665 C 0.3214 0.73223 0.19038 0.0
C2666 C 0.30769 0.74662 0.19275 0.0
C2667 C 0.30067 0.75667 0.16516 0.0
C2668 C 0.30176 0.77499 0.14305 0.0
C2669 C 0.29498 0.78492 0.1205 0.0
C2670 C 0.28713 0.77654 0.11897 0.0
C2671 C 0.28602 0.75826 0.1406 0.0
C2672 C 0.29275 0.74838 0.16406 0.0
C2673 C 0.31916 0.74421 0.44016 0.0
C2674 C 0.31282 0.73421 0.46853 0.0
C2675 C 0.31966 0.74411 0.3795 0.0
C2676 C 0.31377 0.73421 0.3464 0.0
C2677 C 0.30741 0.72425 0.37461 0.0
C2678 C 0.30699 0.7241 0.43528 0.0
C2679 C 0.31404 0.73506 0.28223 0.0
C2680 C 0.30738 0.74349 0.25288 0.0
C2681 C 0.32106 0.72891 0.25056 0.0
C2682 C 0.32791 0.71833 0.27895 0.0
C2683 C 0.32622 0.70195 0.31157 0.0
C2684 C 0.33267 0.69193 0.33803 0.0
C2685 C 0.34087 0.69812 0.33211 0.0
C2686 C 0.34262 0.71429 0.29944 0.0
C2687 C 0.33618 0.72434 0.27276 0.0
H2688 H 0.34586 0.69034 0.35266 0.0
H2689 H 0.28189 0.78425 0.10137 0.0
H2690 H 0.94779 0.52669 0.45805 0.0
H2691 H 0.9466 0.52603 0.35196 0.0
H2692 H 0.94328 0.46558 0.35691 0.0
H2693 H 0.94445 0.46608 0.4631 0.0
H2694 H 0.95536 0.47767 0.27789 0.0
H2695 H 0.92696 0.49182 0.3289 0.0
H2696 H 0.91574 0.50961 0.3772 0.0
H2697 H 0.92319 0.5601 0.28774 0.0
H2698 H 0.93451 0.54263 0.23929 0.0
H2699 H 0.93857 0.45774 -0.00076 0.0
H2700 H 0.94143 0.46148 0.10332 0.0
H2701 H 0.94518 0.5213 0.07838 0.0
H2702 H 0.94246 0.51762 0.97413 0.0
H2703 H 0.93368 0.51193 0.16634 0.0
H2704 H 0.96155 0.49835 0.11221 0.0
H2705 H 0.97317 0.48155 0.06523 0.0
H2706 H 0.96704 0.43113 0.1598 0.0
H2707 H 0.95535 0.44761 0.20714 0.0
C2708 C 0.94677 0.51327 0.43653 0.0
C2709 C 0.94622 0.49642 0.46859 0.0
C2710 C 0.94605 0.51294 0.37611 0.0
C2711 C 0.94483 0.49577 0.34706 0.0
C2712 C 0.94422 0.47894 0.37891 0.0
C2713 C 0.94486 0.47927 0.43939 0.0
C2714 C 0.94447 0.49526 0.28314 0.0
C2715 C 0.95057 0.48495 0.25341 0.0
C2716 C 0.93839 0.5054 0.25165 0.0
C2717 C 0.93163 0.51597 0.28101 0.0
C2718 C 0.92625 0.50676 0.31996 0.0
C2719 C 0.91986 0.51677 0.34723 0.0
C2720 C 0.91877 0.53599 0.33569 0.0
C2721 C 0.92405 0.54522 0.29671 0.0
C2722 C 0.93045 0.53527 0.26927 0.0
C2723 C 0.94005 0.47164 0.01602 0.0
C2724 C 0.94025 0.48741 0.97912 0.0
C2725 C 0.94174 0.47374 0.07514 0.0
C2726 C 0.94354 0.49165 0.09801 0.0
C2727 C 0.94384 0.50738 0.06114 0.0
C2728 C 0.94229 0.50525 0.00185 0.0
C2729 C 0.94448 0.49404 0.16117 0.0
C2730 C 0.93851 0.50475 0.1908 0.0
C2731 C 0.9507 0.48436 0.19255 0.0
C2732 C 0.95754 0.47418 0.1629 0.0
C2733 C 0.96263 0.48363 0.12256 0.0
C2734 C 0.96926 0.47419 0.09609 0.0
C2735 C 0.97086 0.45531 0.1097 0.0
C2736 C 0.96581 0.44578 0.14953 0.0
C2737 C 0.9592 0.45517 0.17625 0.0
H2738 H 0.97599 0.44802 0.08916 0.0
H2739 H 0.91382 0.54372 0.35685 0.0
H2740 H 0.31145 0.46777 0.77612 0.0
H2741 H 0.31157 0.46728 0.88278 0.0
H2742 H 0.3166 0.52714 0.8854 0.0
H2743 H 0.31638 0.5278 0.77886 0.0
H2744 H 0.32715 0.50511 0.95675 0.0
H2745 H 0.29834 0.51392 0.91476 0.0
H2746 H 0.28491 0.50662 0.86858 0.0
H2747 H 0.2841 0.45338 0.95787 0.0
H2748 H 0.29765 0.4601 0.00338 0.0
H2749 H 0.32 0.52173 0.25724 0.0
H2750 H 0.31765 0.52365 0.15181 0.0
H2751 H 0.31511 0.46303 0.14386 0.0
H2752 H 0.31776 0.46099 0.24897 0.0
H2753 H 0.30282 0.48621 0.07599 0.0
H2754 H 0.33197 0.47639 0.11163 0.0
H2755 H 0.34546 0.48336 0.15742 0.0
H2756 H 0.34557 0.53833 0.07852 0.0
H2757 H 0.33194 0.5319 0.0336 0.0
C2758 C 0.31264 0.48078 0.79952 0.0
C2759 C 0.31397 0.49781 0.76957 0.0
C2760 C 0.31263 0.4805 0.86021 0.0
C2761 C 0.31405 0.4972 0.89149 0.0
C2762 C 0.31548 0.51416 0.86168 0.0
C2763 C 0.31536 0.5145 0.80106 0.0
C2764 C 0.31427 0.49688 0.95547 0.0
C2765 C 0.3218 0.50125 0.98291 0.0
C2766 C 0.3073 0.49144 0.98898 0.0
C2767 C 0.2991 0.48741 0.96192 0.0
C2768 C 0.29536 0.50054 0.92403 0.0
C2769 C 0.28771 0.49652 0.89802 0.0
C2770 C 0.28366 0.47952 0.91012 0.0
C2771 C 0.28725 0.46652 0.94839 0.0
C2772 C 0.29493 0.47042 0.97427 0.0
C2773 C 0.31887 0.50887 0.23286 0.0
C2774 C 0.31912 0.49121 0.2604 0.0
C2775 C 0.31751 0.50998 0.17305 0.0
C2776 C 0.31621 0.49347 0.14064 0.0
C2777 C 0.31609 0.47588 0.16857 0.0
C2778 C 0.31768 0.47472 0.22812 0.0
C2779 C 0.31569 0.49443 0.07689 0.0
C2780 C 0.30813 0.49016 0.04963 0.0
C2781 C 0.32263 0.49991 0.04332 0.0
C2782 C 0.33085 0.50378 0.07007 0.0
C2783 C 0.3348 0.49008 0.10474 0.0
C2784 C 0.34249 0.49391 0.13045 0.0
C2785 C 0.34636 0.51131 0.12111 0.0
C2786 C 0.34255 0.52489 0.08592 0.0
C2787 C 0.33484 0.52117 0.06041 0.0
H2788 H 0.35232 0.51424 0.14095 0.0
H2789 H 0.27774 0.47644 0.88999 0.0
H2790 H 0.94174 0.76593 0.77594 0.0
H2791 H 0.94029 0.76652 0.88178 0.0
H2792 H 0.95247 0.71234 0.89335 0.0
H2793 H 0.95386 0.71152 0.78749 0.0
H2794 H 0.93874 0.71403 0.96102 0.0
H2795 H 0.96276 0.75167 0.92403 0.0
H2796 H 0.97103 0.77723 0.87995 0.0
H2797 H 0.95503 0.81863 0.95788 0.0
H2798 H 0.94653 0.79332 0.00122 0.0
H2799 H 0.94599 0.72007 0.26853 0.0
H2800 H 0.94743 0.71638 0.16327 0.0
H2801 H 0.93568 0.77052 0.13715 0.0
H2802 H 0.93433 0.77448 0.24223 0.0
H2803 H 0.94988 0.76734 0.07738 0.0
H2804 H 0.92568 0.72896 0.11316 0.0
H2805 H 0.91758 0.70298 0.15643 0.0
H2806 H 0.93427 0.66243 0.08146 0.0
H2807 H 0.94259 0.68818 0.03884 0.0
C2808 C 0.94407 0.75411 0.801 0.0
C2809 C 0.94791 0.73867 0.77358 0.0
C2810 C 0.94328 0.75452 0.86136 0.0
C2811 C 0.94635 0.73956 0.89509 0.0
C2812 C 0.95008 0.72402 0.86784 0.0
C2813 C 0.95089 0.72361 0.80749 0.0
C2814 C 0.94563 0.7401 0.95893 0.0
C2815 C 0.94127 0.72553 0.98677 0.0
C2816 C 0.94885 0.75529 0.99185 0.0
C2817 C 0.95394 0.77055 0.96533 0.0
C2818 C 0.96093 0.76621 0.93121 0.0
C2819 C 0.96568 0.78066 0.90641 0.0
C2820 C 0.96354 0.79954 0.91598 0.0
C2821 C 0.95667 0.804 0.95038 0.0
C2822 C 0.95188 0.78961 0.97501 0.0
C2823 C 0.9437 0.73118 0.24034 0.0
C2824 C 0.94009 0.74764 0.26346 0.0
C2825 C 0.94448 0.72897 0.18031 0.0
C2826 C 0.9416 0.74312 0.14273 0.0
C2827 C 0.93792 0.75945 0.1657 0.0
C2828 C 0.93716 0.76169 0.22564 0.0
C2829 C 0.94282 0.74151 0.07945 0.0
C2830 C 0.94735 0.75583 0.05173 0.0
C2831 C 0.93978 0.72604 0.04682 0.0
C2832 C 0.93484 0.71056 0.07344 0.0
C2833 C 0.9277 0.71453 0.10654 0.0
C2834 C 0.92305 0.69983 0.13086 0.0
C2835 C 0.92542 0.68107 0.12188 0.0
C2836 C 0.93245 0.67697 0.08855 0.0
C2837 C 0.93714 0.69162 0.06436 0.0
H2838 H 0.9218 0.66971 0.14059 0.0
H2839 H 0.96723 0.81071 0.89687 0.0
H2840 H 0.69872 0.27797 0.53466 0.0
H2841 H 0.69777 0.27715 0.64065 0.0
H2842 H 0.69224 0.21755 0.63425 0.0
H2843 H 0.69303 0.21831 0.5278 0.0
H2844 H 0.68211 0.2364 0.7096 0.0
H2845 H 0.71142 0.23255 0.66951 0.0
H2846 H 0.72433 0.24337 0.62256 0.0
H2847 H 0.7227 0.2962 0.71351 0.0
H2848 H 0.70964 0.28591 0.75989 0.0
H2849 H 0.68985 0.21015 -0.00111 0.0
H2850 H 0.69076 0.21363 0.8934 0.0
H2851 H 0.69585 0.2731 0.91344 0.0
H2852 H 0.69508 0.26969 0.01947 0.0
H2853 H 0.70603 0.25622 0.83169 0.0
H2854 H 0.67685 0.26032 0.87166 0.0
H2855 H 0.66376 0.25001 0.91742 0.0
H2856 H 0.66524 0.19702 0.82702 0.0
H2857 H 0.67838 0.20697 0.78112 0.0
C2858 C 0.69729 0.26468 0.55575 0.0
C2859 C 0.69595 0.24818 0.52298 0.0
C2860 C 0.69677 0.26424 0.6163 0.0
C2861 C 0.69501 0.24726 0.64518 0.0
C2862 C 0.69359 0.2308 0.61262 0.0
C2863 C 0.69405 0.23125 0.55193 0.0
C2864 C 0.69471 0.24664 0.70946 0.0
C2865 C 0.68737 0.24052 0.73629 0.0
C2866 C 0.70151 0.25254 0.74411 0.0
C2867 C 0.70951 0.25851 0.71787 0.0
C2868 C 0.71379 0.24651 0.67933 0.0
C2869 C 0.72114 0.25254 0.65283 0.0
C2870 C 0.72435 0.27043 0.66513 0.0
C2871 C 0.72021 0.28234 0.70405 0.0
C2872 C 0.71283 0.27642 0.73045 0.0
C2873 C 0.69117 0.22397 0.98094 0.0
C2874 C 0.69239 0.23965 0.01741 0.0
C2875 C 0.69168 0.22594 0.92067 0.0
C2876 C 0.69329 0.24366 0.89574 0.0
C2877 C 0.69462 0.25931 0.93197 0.0
C2878 C 0.69416 0.25734 0.99242 0.0
C2879 C 0.69347 0.24573 0.83171 0.0
C2880 C 0.70077 0.25217 0.80495 0.0
C2881 C 0.68663 0.24018 0.79701 0.0
C2882 C 0.67862 0.23435 0.82322 0.0
C2883 C 0.67439 0.24645 0.86169 0.0
C2884 C 0.66696 0.24068 0.88762 0.0
C2885 C 0.66367 0.22286 0.87519 0.0
C2886 C 0.66779 0.21082 0.83657 0.0
C2887 C 0.67522 0.21654 0.81047 0.0
H2888 H 0.65793 0.21839 0.89544 0.0
H2889 H 0.73003 0.27508 0.64449 0.0
H2890 H 0.06394 0.52563 0.00123 0.0
H2891 H 0.06251 0.52236 0.89558 0.0
H2892 H 0.06825 0.46298 0.90975 0.0
H2893 H 0.06973 0.46645 0.01584 0.0
H2894 H 0.07745 0.48172 0.82424 0.0
H2895 H 0.04902 0.47429 0.87768 0.0
H2896 H 0.0359 0.48194 0.92773 0.0
H2897 H 0.03504 0.53561 0.84087 0.0
H2898 H 0.0482 0.52836 0.79071 0.0
H2899 H 0.06522 0.46214 0.53044 0.0
H2900 H 0.06658 0.46238 0.6365 0.0
H2901 H 0.06244 0.52258 0.63813 0.0
H2902 H 0.06121 0.5225 0.5316 0.0
H2903 H 0.05221 0.50122 0.71573 0.0
H2904 H 0.0809 0.50903 0.66524 0.0
H2905 H 0.09408 0.50152 0.61582 0.0
H2906 H 0.09446 0.44698 0.69755 0.0
H2907 H 0.08122 0.45409 0.74695 0.0
C2908 C 0.06491 0.51199 0.98143 0.0
C2909 C 0.06701 0.49644 0.01592 0.0
C2910 C 0.06401 0.51003 0.92149 0.0
C2911 C 0.06523 0.4924 0.89509 0.0
C2912 C 0.06726 0.47668 0.92955 0.0
C2913 C 0.06807 0.47865 0.98987 0.0
C2914 C 0.06472 0.4908 0.83117 0.0
C2915 C 0.07189 0.4856 0.80042 0.0
C2916 C 0.05752 0.49634 0.80045 0.0
C2917 C 0.04963 0.50084 0.83079 0.0
C2918 C 0.04607 0.48779 0.86962 0.0
C2919 C 0.03861 0.49204 0.89791 0.0
C2920 C 0.03465 0.50927 0.88758 0.0
C2921 C 0.03812 0.52227 0.84885 0.0
C2922 C 0.04557 0.51809 0.8204 0.0
C2923 C 0.06465 0.47544 0.5534 0.0
C2924 C 0.0631 0.49231 0.52308 0.0
C2925 C 0.06547 0.47556 0.6138 0.0
C2926 C 0.06463 0.4925 0.64477 0.0
C2927 C 0.06312 0.5094 0.61466 0.0
C2928 C 0.06245 0.50934 0.55404 0.0
C2929 C 0.06496 0.49236 0.70888 0.0
C2930 C 0.05775 0.4972 0.73958 0.0
C2931 C 0.07212 0.48645 0.73948 0.0
C2932 C 0.08002 0.482 0.70921 0.0
C2933 C 0.08374 0.49535 0.67215 0.0
C2934 C 0.09124 0.49119 0.64429 0.0
C2935 C 0.09509 0.47375 0.65338 0.0
C2936 C 0.09146 0.46046 0.69046 0.0
C2937 C 0.08397 0.46456 0.71844 0.0
H2938 H 0.1009 0.47057 0.63183 0.0
H2939 H 0.02888 0.51252 0.90951 0.0
H2940 H 0.68705 0.50799 0.21964 0.0
H2941 H 0.68587 0.50875 0.11341 0.0
H2942 H 0.70505 0.46644 0.09962 0.0
H2943 H 0.70621 0.46541 0.20574 0.0
H2944 H 0.70738 0.49874 0.02833 0.0
H2945 H 0.68674 0.45316 0.07721 0.0
H2946 H 0.6745 0.44054 0.12845 0.0
H2947 H 0.65924 0.4837 0.05236 0.0
H2948 H 0.67143 0.49692 0.0018 0.0
H2949 H 0.70222 0.4821 0.72604 0.0
H2950 H 0.7034 0.47777 0.83108 0.0
H2951 H 0.68259 0.51522 0.85758 0.0
H2952 H 0.68125 0.51935 0.75247 0.0
H2953 H 0.68138 0.48344 0.92227 0.0
H2954 H 0.70221 0.53017 0.87871 0.0
H2955 H 0.71442 0.5427 0.82667 0.0
H2956 H 0.72932 0.49722 0.89282 0.0
H2957 H 0.71714 0.48418 0.94412 0.0
C2958 C 0.69096 0.49875 0.19391 0.0
C2959 C 0.69669 0.48658 0.22062 0.0
C2960 C 0.69027 0.49919 0.13351 0.0
C2961 C 0.69536 0.48759 0.09928 0.0
C2962 C 0.70108 0.47543 0.12574 0.0
C2963 C 0.70169 0.47478 0.18615 0.0
C2964 C 0.69482 0.48853 0.03561 0.0
C2965 C 0.70175 0.49515 0.00486 0.0
C2966 C 0.6874 0.48411 0.00585 0.0
C2967 C 0.68004 0.47619 0.03627 0.0
C2968 C 0.6808 0.46013 0.07196 0.0
C2969 C 0.67386 0.45284 0.10082 0.0
C2970 C 0.6661 0.46136 0.09383 0.0
C2971 C 0.66526 0.47716 0.05787 0.0
C2972 C 0.67219 0.48456 0.02914 0.0
C2973 C 0.69793 0.48952 0.75425 0.0
C2974 C 0.69169 0.50122 0.73127 0.0
C2975 C 0.69862 0.48703 0.81412 0.0
C2976 C 0.69313 0.49634 0.85173 0.0
C2977 C 0.68688 0.50794 0.82896 0.0
C2978 C 0.68616 0.5104 0.76906 0.0
C2979 C 0.69389 0.49395 0.91502 0.0
C2980 C 0.68702 0.487 0.9457 0.0
C2981 C 0.70136 0.49809 0.94475 0.0
C2982 C 0.70873 0.50607 0.9146 0.0
C2983 C 0.70807 0.52273 0.88159 0.0
C2984 C 0.71498 0.52993 0.85226 0.0
C2985 C 0.72263 0.52071 0.85619 0.0
C2986 C 0.72338 0.50431 0.88964 0.0
C2987 C 0.71647 0.49701 0.91883 0.0
H2988 H 0.72798 0.52631 0.83351 0.0
H2989 H 0.66074 0.45567 0.11613 0.0
H2990 H 0.06688 0.20834 0.74239 0.0
H2991 H 0.06512 0.21266 0.8473 0.0
H2992 H 0.06641 0.27311 0.82547 0.0
H2993 H 0.06811 0.26896 0.7204 0.0
H2994 H 0.07686 0.25899 0.91346 0.0
H2995 H 0.04841 0.25688 0.85824 0.0
H2996 H 0.03589 0.24489 0.80863 0.0
H2997 H 0.03802 0.19234 0.90077 0.0
H2998 H 0.0506 0.20397 0.9506 0.0
H2999 H 0.06219 0.27767 0.20425 0.0
H3000 H 0.06421 0.27702 0.09865 0.0
H3001 H 0.06443 0.21609 0.10219 0.0
H3002 H 0.06255 0.21662 0.20811 0.0
H3003 H 0.05284 0.23315 0.02284 0.0
H3004 H 0.08184 0.23586 0.07556 0.0
H3005 H 0.09421 0.24882 0.12464 0.0
H3006 H 0.09072 0.30183 0.03716 0.0
H3007 H 0.07827 0.28922 0.98789 0.0
C3008 C 0.06674 0.22254 0.75989 0.0
C3009 C 0.06762 0.2383 0.72336 0.0
C3010 C 0.06571 0.22499 0.81965 0.0
C3011 C 0.0656 0.2432 0.84368 0.0
C3012 C 0.06647 0.25897 0.80742 0.0
C3013 C 0.0674 0.25655 0.74755 0.0
C3014 C 0.06488 0.24558 0.90711 0.0
C3015 C 0.07155 0.25365 0.93745 0.0
C3016 C 0.05799 0.23839 0.93797 0.0
C3017 C 0.05049 0.23123 0.9077 0.0
C3018 C 0.04625 0.2427 0.86751 0.0
C3019 C 0.03913 0.236 0.83949 0.0
C3020 C 0.03617 0.21785 0.85143 0.0
C3021 C 0.04032 0.20639 0.89153 0.0
C3022 C 0.04744 0.21304 0.91976 0.0
C3023 C 0.06273 0.26415 0.18249 0.0
C3024 C 0.06217 0.24718 0.21394 0.0
C3025 C 0.06393 0.26381 0.12244 0.0
C3026 C 0.06447 0.24652 0.09312 0.0
C3027 C 0.06404 0.22955 0.12448 0.0
C3028 C 0.06298 0.22988 0.18472 0.0
C3029 C 0.0649 0.24612 0.02922 0.0
C3030 C 0.05813 0.23855 -0.00117 0.0
C3031 C 0.07167 0.25395 -0.00159 0.0
C3032 C 0.07907 0.26167 0.0286 0.0
C3033 C 0.08366 0.25035 0.06727 0.0
C3034 C 0.0907 0.2576 0.09496 0.0
C3035 C 0.09323 0.27615 0.08417 0.0
C3036 C 0.08874 0.28747 0.04555 0.0
C3037 C 0.08169 0.28027 0.01767 0.0
H3038 H 0.09869 0.28174 0.10562 0.0
H3039 H 0.03066 0.21268 0.8297 0.0
H3040 H 0.81628 0.21755 0.975 0.0
H3041 H 0.81535 0.21395 0.08034 0.0
H3042 H 0.81255 0.27433 0.09876 0.0
H3043 H 0.81382 0.27809 0.99337 0.0
H3044 H 0.82435 0.26167 0.16601 0.0
H3045 H 0.7965 0.24156 0.11946 0.0
H3046 H 0.78581 0.222 0.07185 0.0
H3047 H 0.79565 0.1724 0.15442 0.0
H3048 H 0.80652 0.19158 0.20149 0.0
H3049 H 0.8138 0.26789 0.46256 0.0
H3050 H 0.81429 0.26889 0.3566 0.0
H3051 H 0.81703 0.20823 0.3513 0.0
H3052 H 0.81622 0.20706 0.45757 0.0
H3053 H 0.80568 0.21927 0.27721 0.0
H3054 H 0.83331 0.23885 0.32434 0.0
H3055 H 0.84422 0.25788 0.37162 0.0
H3056 H 0.83503 0.3078 0.28731 0.0
H3057 H 0.82395 0.28917 0.2405 0.0
C3058 C 0.81532 0.23002 0.00147 0.0
C3059 C 0.81515 0.24813 0.97637 0.0
C3060 C 0.81476 0.22792 0.06157 0.0
C3061 C 0.81382 0.24386 0.09713 0.0
C3062 C 0.81329 0.26187 0.07184 0.0
C3063 C 0.814 0.26401 0.01185 0.0
C3064 C 0.81415 0.24204 0.16091 0.0
C3065 C 0.82018 0.25263 0.1905 0.0
C3066 C 0.80894 0.22955 0.19216 0.0
C3067 C 0.8024 0.21801 0.1635 0.0
C3068 C 0.79645 0.22646 0.12698 0.0
C3069 C 0.79035 0.21543 0.10013 0.0
C3070 C 0.79007 0.19596 0.10996 0.0
C3071 C 0.79588 0.18748 0.14671 0.0
C3072 C 0.80202 0.19842 0.17345 0.0
C3073 C 0.81463 0.25479 0.43885 0.0
C3074 C 0.81501 0.23739 0.468 0.0
C3075 C 0.81492 0.25539 0.37838 0.0
C3076 C 0.81581 0.23865 0.34634 0.0
C3077 C 0.81636 0.22129 0.37545 0.0
C3078 C 0.81593 0.22065 0.43595 0.0
C3079 C 0.81576 0.23924 0.2823 0.0
C3080 C 0.80984 0.22832 0.25266 0.0
C3081 C 0.82109 0.25136 0.25082 0.0
C3082 C 0.82774 0.26261 0.2793 0.0
C3083 C 0.83356 0.25391 0.31632 0.0
C3084 C 0.83978 0.26463 0.343 0.0
C3085 C 0.84031 0.28404 0.33258 0.0
C3086 C 0.83461 0.29277 0.29543 0.0
C3087 C 0.82836 0.28214 0.26883 0.0
H3088 H 0.84514 0.29231 0.3532 0.0
H3089 H 0.78532 0.18746 0.08922 0.0
H3090 H 0.44091 0.96666 0.45816 0.0
H3091 H 0.43941 0.9665 0.35221 0.0
H3092 H 0.45278 0.01922 0.34165 0.0
H3093 H 0.45421 0.01965 0.44738 0.0
H3094 H 0.43923 0.01967 0.27364 0.0
H3095 H 0.46211 0.97828 0.30857 0.0
H3096 H 0.46959 0.95139 0.35214 0.0
H3097 H 0.45215 0.91282 0.27547 0.0
H3098 H 0.44446 0.93951 0.23241 0.0
H3099 H 0.44692 0.01378 0.96584 0.0
H3100 H 0.44806 0.017 0.0716 0.0
H3101 H 0.43476 0.96456 0.09384 0.0
H3102 H 0.43371 0.96109 0.9885 0.0
H3103 H 0.4488 0.96517 0.15573 0.0
H3104 H 0.42592 0.00753 0.12027 0.0
H3105 H 0.41869 0.03493 0.07773 0.0
H3106 H 0.43655 0.07237 0.15492 0.0
H3107 H 0.444 0.04516 0.19691 0.0
C3108 C 0.44353 0.9782 0.43326 0.0
C3109 C 0.44769 0.99313 0.46102 0.0
C3110 C 0.44269 0.97807 0.3728 0.0
C3111 C 0.44605 0.99277 0.33923 0.0
C3112 C 0.45014 0.00775 0.36688 0.0
C3113 C 0.45098 0.00792 0.42726 0.0
C3114 C 0.44528 0.99254 0.27519 0.0
C3115 C 0.44141 0.00788 0.2476 0.0
C3116 C 0.44805 0.97702 0.2417 0.0
C3117 C 0.45265 0.96094 0.2678 0.0
C3118 C 0.45982 0.96409 0.30149 0.0
C3119 C 0.4641 0.94887 0.32604 0.0
C3120 C 0.46133 0.93041 0.31673 0.0
C3121 C 0.45428 0.92713 0.28277 0.0
C3122 C 0.44995 0.9423 0.2583 0.0
C3123 C 0.44422 0.00297 0.99331 0.0
C3124 C 0.44029 0.98708 0.96892 0.0
C3125 C 0.44482 0.00491 0.05366 0.0
C3126 C 0.44146 0.99106 0.0904 0.0
C3127 C 0.43741 0.97539 0.06611 0.0
C3128 C 0.43682 0.97342 0.00593 0.0
C3129 C 0.4426 0.99213 0.1541 0.0
C3130 C 0.4466 0.97697 0.18165 0.0
C3131 C 0.44001 0.0079 0.18734 0.0
C3132 C 0.4356 0.02424 0.1611 0.0
C3133 C 0.42838 0.02157 0.12755 0.0
C3134 C 0.42423 0.03708 0.10364 0.0
C3135 C 0.42717 0.05537 0.11344 0.0
C3136 C 0.43429 0.05819 0.1472 0.0
C3137 C 0.43848 0.04272 0.17102 0.0
H3138 H 0.42394 0.06736 0.09503 0.0
H3139 H 0.46466 0.91865 0.3357 0.0
H3140 H 0.82471 0.98315 0.77287 0.0
H3141 H 0.82633 0.98378 0.87886 0.0
H3142 H 0.80026 -0.00311 0.8975 0.0
H3143 H 0.79879 -0.00254 0.79162 0.0
H3144 H 0.80841 0.01833 0.96464 0.0
H3145 H 0.80935 0.95153 0.92687 0.0
H3146 H 0.8144 0.92206 0.88182 0.0
H3147 H 0.83868 0.93173 0.95309 0.0
H3148 H 0.83382 0.96141 -0.00223 0.0
H3149 H 0.80677 0.00039 0.27127 0.0
H3150 H 0.80481 0.00168 0.16565 0.0
H3151 H 0.83089 0.98988 0.14078 0.0
H3152 H 0.83273 0.98753 0.24609 0.0
H3153 H 0.82231 0.96767 0.07717 0.0
H3154 H 0.82106 0.0349 0.11548 0.0
H3155 H 0.81571 0.06414 0.16021 0.0
H3156 H 0.79155 0.05314 0.08874 0.0
H3157 H 0.79672 0.0237 0.04434 0.0
C3158 C 0.81934 0.98599 0.79988 0.0
C3159 C 0.81164 0.99026 0.77469 0.0
C3160 C 0.82024 0.98626 0.86031 0.0
C3161 C 0.81338 0.99013 0.89624 0.0
C3162 C 0.80564 -0.00606 0.87072 0.0
C3163 C 0.8048 -0.00579 0.8104 0.0
C3164 C 0.81432 0.99104 0.96029 0.0
C3165 C 0.81135 0.00712 0.98941 0.0
C3166 C 0.81831 0.97661 0.9924 0.0
C3167 C 0.82123 0.95879 0.96521 0.0
C3168 C 0.81578 0.94746 0.93252 0.0
C3169 C 0.81861 0.9307 0.90711 0.0
C3170 C 0.82686 0.92505 0.91447 0.0
C3171 C 0.8323 0.93613 0.94733 0.0
C3172 C 0.82951 0.95292 0.97272 0.0
C3173 C 0.81208 -0.00171 0.24304 0.0
C3174 C 0.81988 -0.0063 0.2663 0.0
C3175 C 0.81097 -0.00085 0.18281 0.0
C3176 C 0.81772 -0.00398 0.14527 0.0
C3177 C 0.82559 0.99224 0.16891 0.0
C3178 C 0.82664 0.99089 0.22892 0.0
C3179 C 0.81651 -0.00492 0.08148 0.0
C3180 C 0.81939 0.97891 0.05242 0.0
C3181 C 0.81239 0.00937 0.04959 0.0
C3182 C 0.80927 0.02697 0.07708 0.0
C3183 C 0.81459 0.03861 0.10979 0.0
C3184 C 0.81159 0.05525 0.13499 0.0
C3185 C 0.80329 0.06047 0.12745 0.0
C3186 C 0.79797 0.04907 0.09465 0.0
C3187 C 0.80094 0.03241 0.06945 0.0
H3188 H 0.80098 0.07336 0.14691 0.0
H3189 H 0.82903 0.91207 0.89482 0.0
H3190 H 0.43334 0.24745 0.77448 0.0
H3191 H 0.43219 0.24707 0.8807 0.0
H3192 H 0.45861 0.2372 0.89441 0.0
H3193 H 0.4596 0.23618 0.78815 0.0
H3194 H 0.45134 0.21559 0.96537 0.0
H3195 H 0.44856 0.28193 0.92425 0.0
H3196 H 0.44271 0.31059 0.87896 0.0
H3197 H 0.41882 0.29793 0.95215 0.0
H3198 H 0.4245 0.26908 -0.0028 0.0
H3199 H 0.45279 0.2373 0.27087 0.0
H3200 H 0.4547 0.23452 0.16544 0.0
H3201 H 0.42829 0.24161 0.1405 0.0
H3202 H 0.42646 0.24539 0.24541 0.0
H3203 H 0.43626 0.26491 0.07591 0.0
H3204 H 0.43939 0.19828 0.11833 0.0
H3205 H 0.44556 0.16995 0.16345 0.0
H3206 H 0.46925 0.18374 0.08903 0.0
H3207 H 0.46326 0.2123 0.04419 0.0
C3208 C 0.43888 0.24534 0.80048 0.0
C3209 C 0.44654 0.24188 0.77387 0.0
C3210 C 0.43825 0.24524 0.86102 0.0
C3211 C 0.44534 0.24246 0.89564 0.0
C3212 C 0.45305 0.23935 0.86867 0.0
C3213 C 0.45362 0.23882 0.80817 0.0
C3214 C 0.44468 0.24196 0.95988 0.0
C3215 C 0.44815 0.22653 0.98971 0.0
C3216 C 0.44038 0.25602 0.99148 0.0
C3217 C 0.43694 0.27326 0.96366 0.0
C3218 C 0.44205 0.28518 0.93026 0.0
C3219 C 0.43876 0.30147 0.90471 0.0
C3220 C 0.4304 0.30606 0.91257 0.0
C3221 C 0.4253 0.29436 0.94603 0.0
C3222 C 0.42854 0.27804 0.9716 0.0
C3223 C 0.44741 0.23806 0.24268 0.0
C3224 C 0.4395 0.24179 0.26567 0.0
C3225 C 0.44848 0.23631 0.18263 0.0
C3226 C 0.44162 0.23774 0.14514 0.0
C3227 C 0.43367 0.24057 0.16865 0.0
C3228 C 0.43263 0.24279 0.22839 0.0
C3229 C 0.44276 0.23837 0.08134 0.0
C3230 C 0.43944 0.25395 0.05161 0.0
C3231 C 0.44726 0.22452 0.05011 0.0
C3232 C 0.45089 0.20757 0.07843 0.0
C3233 C 0.44594 0.1954 0.11215 0.0
C3234 C 0.4494 0.17927 0.13755 0.0
C3235 C 0.4578 0.17508 0.12925 0.0
C3236 C 0.46275 0.18702 0.09554 0.0
C3237 C 0.45933 0.20318 0.07013 0.0
H3238 H 0.46046 0.16256 0.14882 0.0
H3239 H 0.42787 0.31869 0.89282 0.0
H3240 H 0.19849 0.76788 0.01854 0.0
H3241 H 0.20025 0.76946 0.91292 0.0
H3242 H 0.18307 0.72313 0.89207 0.0
H3243 H 0.18144 0.72115 -0.00259 0.0
H3244 H 0.19648 0.71777 0.82857 0.0
H3245 H 0.17779 0.76963 0.86463 0.0
H3246 H 0.17311 0.79968 0.90782 0.0
H3247 H 0.19401 0.82832 0.8325 0.0
H3248 H 0.19891 0.79837 0.78979 0.0
H3249 H 0.18835 0.7244 0.52594 0.0
H3250 H 0.1875 0.72337 0.63215 0.0
H3251 H 0.2045 0.77038 0.64349 0.0
H3252 H 0.20519 0.77185 0.53753 0.0
H3253 H 0.19182 0.7758 0.71225 0.0
H3254 H 0.21037 0.72438 0.67412 0.0
H3255 H 0.2151 0.69448 0.63022 0.0
H3256 H 0.19464 0.66516 0.70891 0.0
H3257 H 0.18969 0.69494 0.75241 0.0
C3258 C 0.19508 0.75806 0.9914 0.0
C3259 C 0.18985 0.74435 0.01617 0.0
C3260 C 0.19605 0.75905 0.93111 0.0
C3261 C 0.19173 0.74652 0.89476 0.0
C3262 C 0.18647 0.73291 0.91945 0.0
C3263 C 0.18554 0.73182 0.97962 0.0
C3264 C 0.19287 0.74705 0.83101 0.0
C3265 C 0.19537 0.73039 0.80295 0.0
C3266 C 0.19166 0.76372 0.79811 0.0
C3267 C 0.18878 0.78168 0.82464 0.0
C3268 C 0.18144 0.78228 0.85785 0.0
C3269 C 0.17874 0.79932 0.88215 0.0
C3270 C 0.18328 0.81589 0.87308 0.0
C3271 C 0.19052 0.81547 0.83964 0.0
C3272 C 0.19326 0.79846 0.81542 0.0
C3273 C 0.19191 0.73448 0.55115 0.0
C3274 C 0.19679 0.74828 0.5236 0.0
C3275 C 0.19147 0.7338 0.61175 0.0
C3276 C 0.19601 0.74667 0.64561 0.0
C3277 C 0.20094 0.76034 0.6181 0.0
C3278 C 0.20132 0.76116 0.55759 0.0
C3279 C 0.19535 0.74647 0.70972 0.0
C3280 C 0.19296 0.76319 0.73787 0.0
C3281 C 0.19668 0.72987 0.74273 0.0
C3282 C 0.19961 0.71196 0.71606 0.0
C3283 C 0.20683 0.7116 0.68159 0.0
C3284 C 0.20956 0.69466 0.65684 0.0
C3285 C 0.20516 0.67794 0.66665 0.0
C3286 C 0.19803 0.67813 0.70126 0.0
C3287 C 0.19526 0.69504 0.72597 0.0
H3288 H 0.20729 0.66484 0.64753 0.0
H3289 H 0.18116 0.82907 0.89181 0.0
H3290 H 0.57149 0.96425 0.53103 0.0
H3291 H 0.57192 0.96526 0.63743 0.0
H3292 H 0.55845 0.01803 0.63513 0.0
H3293 H 0.55842 0.01749 0.52864 0.0
H3294 H 0.57055 0.01977 0.70955 0.0
H3295 H 0.54889 0.97418 0.66982 0.0
H3296 H 0.54339 0.94559 0.62197 0.0
H3297 H 0.56199 0.91185 0.70647 0.0
H3298 H 0.56763 0.94028 0.7545 0.0
H3299 H 0.55802 0.02257 0.00265 0.0
H3300 H 0.55789 0.01982 0.89644 0.0
H3301 H 0.57335 0.97016 0.90756 0.0
H3302 H 0.57345 0.97285 0.01415 0.0
H3303 H 0.56059 0.96603 0.82938 0.0
H3304 H 0.58252 0.0106 0.86564 0.0
H3305 H 0.58966 0.03906 0.90242 0.0
H3306 H 0.57134 0.0743 0.8208 0.0
H3307 H 0.5641 0.04604 0.78354 0.0
C3308 C 0.56867 0.97606 0.55349 0.0
C3309 C 0.56495 0.99081 0.52222 0.0
C3310 C 0.56884 0.97656 0.61408 0.0
C3311 C 0.56506 0.99153 0.64412 0.0
C3312 C 0.56139 0.00635 0.61271 0.0
C3313 C 0.5614 0.00607 0.55208 0.0
C3314 C 0.56508 0.99201 0.70832 0.0
C3315 C 0.56823 0.00816 0.73577 0.0
C3316 C 0.56232 0.97656 0.74229 0.0
C3317 C 0.5587 0.95936 0.71551 0.0
C3318 C 0.5518 0.96066 0.67818 0.0
C3319 C 0.54866 0.94449 0.651 0.0
C3320 C 0.55235 0.92692 0.66109 0.0
C3321 C 0.55914 0.92547 0.69872 0.0
C3322 C 0.5623 0.94159 0.72606 0.0
C3323 C 0.56136 0.01107 0.98224 0.0
C3324 C 0.56581 -0.00197 0.01592 0.0
C3325 C 0.5613 0.00953 0.92183 0.0
C3326 C 0.56573 -0.00501 0.8944 0.0
C3327 C 0.56993 0.98152 0.92815 0.0
C3328 C 0.56996 0.98301 0.98874 0.0
C3329 C 0.56594 -0.00606 0.8304 0.0
C3330 C 0.56284 0.97768 0.80307 0.0
C3331 C 0.56876 0.00928 0.79637 0.0
C3332 C 0.57274 0.02622 0.82223 0.0
C3333 C 0.57997 0.02442 0.8561 0.0
C3334 C 0.58407 0.04051 0.87658 0.0
C3335 C 0.58098 0.05848 0.86363 0.0
C3336 C 0.57375 0.06039 0.8305 0.0
C3337 C 0.56965 0.04434 0.80967 0.0
H3338 H 0.58415 0.07092 0.87966 0.0
H3339 H 0.54994 0.91443 0.63981 0.0
H3340 H 0.19356 0.03125 0.74144 0.0
H3341 H 0.19513 0.02716 0.84663 0.0
H3342 H 0.19226 0.9669 0.82712 0.0
H3343 H 0.19073 0.9708 0.72201 0.0
H3344 H 0.18195 0.98294 0.9123 0.0
H3345 H 0.2107 0.98123 0.86059 0.0
H3346 H 0.22337 0.9923 0.81082 0.0
H3347 H 0.22198 0.04502 0.90274 0.0
H3348 H 0.20927 0.0343 0.9528 0.0
H3349 H 0.1928 0.96094 0.20495 0.0
H3350 H 0.19226 0.96223 0.09861 0.0
H3351 H 0.19638 0.02244 0.10435 0.0
H3352 H 0.19709 0.02119 0.21062 0.0
H3353 H 0.20647 0.00455 0.02514 0.0
H3354 H 0.17737 0.00647 0.074 0.0
H3355 H 0.16459 -0.00459 0.12237 0.0
H3356 H 0.16658 0.94205 0.03458 0.0
H3357 H 0.17942 0.95276 0.98603 0.0
C3358 C 0.19333 0.01713 0.75951 0.0
C3359 C 0.19201 0.00136 0.72363 0.0
C3360 C 0.19425 0.01481 0.81942 0.0
C3361 C 0.19384 -0.00327 0.84418 0.0
C3362 C 0.1926 0.98095 0.80851 0.0
C3363 C 0.19176 0.98322 0.74858 0.0
C3364 C 0.19432 -0.00554 0.90774 0.0
C3365 C 0.18735 0.98735 0.93704 0.0
C3366 C 0.20132 0.00056 0.93956 0.0
C3367 C 0.20901 0.00702 0.9101 0.0
C3368 C 0.21307 -0.00477 0.86993 0.0
C3369 C 0.22027 0.00142 0.84175 0.0
C3370 C 0.22347 0.01937 0.85352 0.0
C3371 C 0.2195 0.03112 0.89368 0.0
C3372 C 0.21231 0.02498 0.92207 0.0
C3373 C 0.1936 0.97442 0.18346 0.0
C3374 C 0.19503 0.99092 0.21582 0.0
C3375 C 0.19324 0.97516 0.12289 0.0
C3376 C 0.19426 0.99244 0.09392 0.0
C3377 C 0.1956 0.00898 0.12614 0.0
C3378 C 0.19594 0.00825 0.18672 0.0
C3379 C 0.19406 0.99324 0.02986 0.0
C3380 C 0.20108 4e-05 0.00044 0.0
C3381 C 0.18711 0.98681 -0.0021 0.0
C3382 C 0.17939 0.98035 0.02685 0.0
C3383 C 0.17511 0.99233 0.06535 0.0
C3384 C 0.16785 0.98614 0.0927 0.0
C3385 C 0.16479 0.96802 0.08167 0.0
C3386 C 0.16897 0.95608 0.04311 0.0
C3387 C 0.17623 0.96221 0.01559 0.0
H3388 H 0.15917 0.96325 0.10292 0.0
H3389 H 0.22903 0.02415 0.8316 0.0
H3390 H 0.57571 0.76205 0.72785 0.0
H3391 H 0.57497 0.76544 0.83412 0.0
H3392 H 0.55557 0.72347 0.84036 0.0
H3393 H 0.55647 0.71954 0.73451 0.0
H3394 H 0.55306 0.75822 0.91099 0.0
H3395 H 0.57232 0.70821 0.86926 0.0
H3396 H 0.58449 0.69387 0.82179 0.0
H3397 H 0.60046 0.73424 0.90505 0.0
H3398 H 0.58833 0.7492 0.95178 0.0
H3399 H 0.55552 0.72704 0.2088 0.0
H3400 H 0.55556 0.72666 0.10182 0.0
H3401 H 0.57415 0.77055 0.10058 0.0
H3402 H 0.57389 0.77151 0.20743 0.0
H3403 H 0.57706 0.73553 0.02745 0.0
H3404 H 0.55778 0.7859 0.06723 0.0
H3405 H 0.54558 0.80046 0.11369 0.0
H3406 H 0.52973 0.7587 0.03596 0.0
H3407 H 0.54187 0.7438 0.98915 0.0
C3408 C 0.57124 0.7537 0.75202 0.0
C3409 C 0.56616 0.74047 0.72363 0.0
C3410 C 0.57083 0.75564 0.81237 0.0
C3411 C 0.56522 0.74467 0.84449 0.0
C3412 C 0.55991 0.73203 0.8159 0.0
C3413 C 0.56047 0.72973 0.75582 0.0
C3414 C 0.56521 0.74553 0.90835 0.0
C3415 C 0.55826 0.75313 0.93659 0.0
C3416 C 0.57208 0.73907 0.94112 0.0
C3417 C 0.57939 0.73005 0.91323 0.0
C3418 C 0.5784 0.71423 0.87678 0.0
C3419 C 0.5853 0.70595 0.85009 0.0
C3420 C 0.59324 0.71319 0.86017 0.0
C3421 C 0.5943 0.7287 0.89708 0.0
C3422 C 0.58741 0.7371 0.92362 0.0
C3423 C 0.55964 0.7365 0.18547 0.0
C3424 C 0.56476 0.74921 0.21563 0.0
C3425 C 0.55962 0.73634 0.12476 0.0
C3426 C 0.56486 0.74858 0.09393 0.0
C3427 C 0.57008 0.76105 0.12405 0.0
C3428 C 0.56992 0.76159 0.18468 0.0
C3429 C 0.56493 0.7483 0.03003 0.0
C3430 C 0.57188 0.74071 0.0018 0.0
C3431 C 0.55806 0.75472 -0.00269 0.0
C3432 C 0.55075 0.76358 0.0254 0.0
C3433 C 0.5517 0.77968 0.06058 0.0
C3434 C 0.5448 0.78803 0.08687 0.0
C3435 C 0.53688 0.78044 0.07817 0.0
C3436 C 0.53586 0.76454 0.04282 0.0
C3437 C 0.54276 0.75615 0.01631 0.0
H3438 H 0.53154 0.78692 0.09861 0.0
H3439 H 0.59858 0.70674 0.83955 0.0
H3440 H 0.80685 0.73772 0.46686 0.0
H3441 H 0.80493 0.73448 0.57216 0.0
H3442 H 0.8302 0.75254 0.60047 0.0
H3443 H 0.83213 0.75612 0.49525 0.0
H3444 H 0.82512 0.71923 0.66373 0.0
H3445 H 0.8163 0.78253 0.61947 0.0
H3446 H 0.80809 0.80659 0.5676 0.0
H3447 H 0.78559 0.78269 0.63553 0.0
H3448 H 0.79366 0.75813 0.68655 0.0
H3449 H 0.8248 0.7478 0.96154 0.0
H3450 H 0.82594 0.74795 0.85495 0.0
H3451 H 0.80094 0.72646 0.84115 0.0
H3452 H 0.79987 0.72569 0.94765 0.0
H3453 H 0.80521 0.76015 0.77014 0.0
H3454 H 0.8136 0.69688 0.81236 0.0
H3455 H 0.82148 0.6717 0.86169 0.0
H3456 H 0.84433 0.6951 0.79788 0.0
H3457 H 0.83658 0.72057 0.74857 0.0
C3458 C 0.81198 0.741 0.49563 0.0
C3459 C 0.81962 0.74729 0.47335 0.0
C3460 C 0.81088 0.73915 0.55549 0.0
C3461 C 0.81742 0.74334 0.59353 0.0
C3462 C 0.8251 0.74928 0.57139 0.0
C3463 C 0.82616 0.75145 0.51158 0.0
C3464 C 0.81623 0.74185 0.65672 0.0
C3465 C 0.82084 0.72828 0.6872 0.0
C3466 C 0.81045 0.75338 0.68644 0.0
C3467 C 0.80559 0.76828 0.65618 0.0
C3468 C 0.8096 0.78223 0.62278 0.0
C3469 C 0.80497 0.79599 0.59357 0.0
C3470 C 0.79632 0.79613 0.59808 0.0
C3471 C 0.79229 0.78253 0.63191 0.0
C3472 C 0.79689 0.76867 0.66093 0.0
C3473 C 0.81958 0.74306 0.93558 0.0
C3474 C 0.81227 0.73669 0.96218 0.0
C3475 C 0.82024 0.74311 0.87508 0.0
C3476 C 0.81352 0.73719 0.84081 0.0
C3477 C 0.80617 0.73102 0.86729 0.0
C3478 C 0.8056 0.73051 0.92778 0.0
C3479 C 0.81417 0.73768 0.77711 0.0
C3480 C 0.80946 0.75105 0.74656 0.0
C3481 C 0.81981 0.72592 0.74721 0.0
C3482 C 0.82452 0.71077 0.77736 0.0
C3483 C 0.82031 0.6968 0.8094 0.0
C3484 C 0.82475 0.68243 0.83718 0.0
C3485 C 0.8334 0.68184 0.8331 0.0
C3486 C 0.83763 0.6956 0.8011 0.0
C3487 C 0.83322 0.70999 0.77314 0.0
H3488 H 0.83683 0.67068 0.85453 0.0
H3489 H 0.79274 0.80681 0.57552 0.0
H3490 H 0.44478 0.46473 0.96038 0.0
H3491 H 0.44343 0.46506 0.85405 0.0
H3492 H 0.44847 0.52492 0.8523 0.0
H3493 H 0.44992 0.52467 0.9583 0.0
H3494 H 0.43503 0.51433 0.78205 0.0
H3495 H 0.46322 0.49748 0.81728 0.0
H3496 H 0.47474 0.47942 0.86078 0.0
H3497 H 0.46604 0.42892 0.7771 0.0
H3498 H 0.45435 0.44658 0.73412 0.0
H3499 H 0.44268 0.51901 0.47437 0.0
H3500 H 0.44461 0.5218 0.57992 0.0
H3501 H 0.43947 0.46233 0.59959 0.0
H3502 H 0.43746 0.45945 0.49448 0.0
H3503 H 0.45365 0.47487 0.66025 0.0
H3504 H 0.42504 0.49241 0.62801 0.0
H3505 H 0.41373 0.51118 0.58467 0.0
H3506 H 0.4236 0.56151 0.66275 0.0
H3507 H 0.4351 0.54311 0.70546 0.0
C3508 C 0.44555 0.47795 0.93724 0.0
C3509 C 0.44747 0.49466 0.96722 0.0
C3510 C 0.44481 0.47811 0.87673 0.0
C3511 C 0.44591 0.495 0.84572 0.0
C3512 C 0.44763 0.51177 0.87572 0.0
C3513 C 0.44848 0.51157 0.93605 0.0
C3514 C 0.44539 0.49511 0.78176 0.0
C3515 C 0.43916 0.50592 0.75522 0.0
C3516 C 0.45078 0.48401 0.74734 0.0
C3517 C 0.45783 0.47333 0.77303 0.0
C3518 C 0.4637 0.48248 0.80866 0.0
C3519 C 0.47028 0.47232 0.83317 0.0
C3520 C 0.47111 0.45303 0.82188 0.0
C3521 C 0.46538 0.44386 0.78594 0.0
C3522 C 0.45877 0.45394 0.76151 0.0
C3523 C 0.44198 0.50655 0.50131 0.0
C3524 C 0.4399 0.48902 0.47656 0.0
C3525 C 0.44306 0.50818 0.56136 0.0
C3526 C 0.44215 0.49227 0.59714 0.0
C3527 C 0.44019 0.47473 0.57241 0.0
C3528 C 0.439 0.47314 0.51257 0.0
C3529 C 0.44318 0.49379 0.66062 0.0
C3530 C 0.44954 0.48334 0.68706 0.0
C3531 C 0.43794 0.50535 0.69487 0.0
C3532 C 0.43101 0.51641 0.66924 0.0
C3533 C 0.42487 0.50752 0.63537 0.0
C3534 C 0.41841 0.51809 0.61099 0.0
C3535 C 0.41797 0.53754 0.62076 0.0
C3536 C 0.42397 0.54645 0.65505 0.0
C3537 C 0.43046 0.53596 0.67931 0.0
H3538 H 0.41296 0.54569 0.60192 0.0
H3539 H 0.47621 0.44519 0.84084 0.0
H3540 H 0.81728 0.46653 0.27553 0.0
H3541 H 0.81788 0.46624 0.38197 0.0
H3542 H 0.80946 0.52408 0.38627 0.0
H3543 H 0.80893 0.52455 0.28007 0.0
H3544 H 0.82227 0.51889 0.45861 0.0
H3545 H 0.79644 0.48848 0.41991 0.0
H3546 H 0.7868 0.46538 0.3765 0.0
H3547 H 0.80012 0.42 0.45808 0.0
H3548 H 0.80994 0.44279 0.50115 0.0
H3549 H 0.81359 0.51815 0.76529 0.0
H3550 H 0.81256 0.52096 0.65929 0.0
H3551 H 0.82156 0.46388 0.64048 0.0
H3552 H 0.82254 0.46089 0.74608 0.0
H3553 H 0.80777 0.47023 0.57603 0.0
H3554 H 0.83383 0.50153 0.61305 0.0
H3555 H 0.84313 0.52526 0.65691 0.0
H3556 H 0.82887 0.56983 0.57902 0.0
H3557 H 0.81938 0.54637 0.53558 0.0
C3558 C 0.81557 0.47918 0.29915 0.0
C3559 C 0.81307 0.49557 0.26943 0.0
C3560 C 0.81587 0.47897 0.35993 0.0
C3561 C 0.81364 0.49509 0.39196 0.0
C3562 C 0.8112 0.51149 0.36237 0.0
C3563 C 0.81089 0.51171 0.30167 0.0
C3564 C 0.81402 0.49495 0.45635 0.0
C3565 C 0.81901 0.50842 0.48443 0.0
C3566 C 0.80983 0.48113 0.48978 0.0
C3567 C 0.80399 0.46736 0.46324 0.0
C3568 C 0.79738 0.47357 0.42807 0.0
C3569 C 0.79187 0.46052 0.40362 0.0
C3570 C 0.79286 0.44123 0.41438 0.0
C3571 C 0.79937 0.43494 0.44967 0.0
C3572 C 0.80491 0.44792 0.47412 0.0
C3573 C 0.81536 0.50621 0.73854 0.0
C3574 C 0.8181 0.48926 0.76401 0.0
C3575 C 0.81481 0.50788 0.67804 0.0
C3576 C 0.81702 0.49265 0.64215 0.0
C3577 C 0.81982 0.47578 0.66749 0.0
C3578 C 0.82039 0.47412 0.72784 0.0
C3579 C 0.81615 0.49392 0.57816 0.0
C3580 C 0.81102 0.48071 0.5502 0.0
C3581 C 0.82016 0.50806 0.54496 0.0
C3582 C 0.82582 0.52218 0.57168 0.0
C3583 C 0.83261 0.51639 0.60584 0.0
C3584 C 0.83793 0.5298 0.63052 0.0
C3585 C 0.83657 0.54904 0.62093 0.0
C3586 C 0.8299 0.55492 0.58656 0.0
C3587 C 0.82455 0.54157 0.56191 0.0
H3588 H 0.84071 0.55939 0.63999 0.0
H3589 H 0.78858 0.43116 0.3955 0.0
H3590 H 0.44953 0.77542 0.7485 0.0
H3591 H 0.45062 0.77084 0.64324 0.0
H3592 H 0.43824 0.71701 0.65834 0.0
H3593 H 0.43726 0.72124 0.76351 0.0
H3594 H 0.45116 0.71624 0.57836 0.0
H3595 H 0.42684 0.75356 0.61967 0.0
H3596 H 0.41964 0.77983 0.66887 0.0
H3597 H 0.43545 0.81975 0.58214 0.0
H3598 H 0.44279 0.79366 0.53278 0.0
H3599 H 0.44078 0.70945 0.27958 0.0
H3600 H 0.43955 0.71077 0.38573 0.0
H3601 H 0.44928 0.76764 0.3845 0.0
H3602 H 0.45007 0.7667 0.27828 0.0
H3603 H 0.43715 0.76527 0.45887 0.0
H3604 H 0.46162 0.72752 0.41763 0.0
H3605 H 0.46885 0.701 0.36994 0.0
H3606 H 0.45284 0.66153 0.45683 0.0
H3607 H 0.44546 0.68786 0.50461 0.0
C3608 C 0.4471 0.76255 0.72946 0.0
C3609 C 0.44325 0.7488 0.76409 0.0
C3610 C 0.44774 0.75993 0.66948 0.0
C3611 C 0.44443 0.74368 0.64329 0.0
C3612 C 0.44085 0.72961 0.67793 0.0
C3613 C 0.44026 0.73214 0.73792 0.0
C3614 C 0.4441 0.74209 0.57938 0.0
C3615 C 0.44804 0.72682 0.55209 0.0
C3616 C 0.44004 0.75595 0.54551 0.0
C3617 C 0.43537 0.77169 0.57272 0.0
C3618 C 0.42877 0.76795 0.61107 0.0
C3619 C 0.42467 0.7828 0.63903 0.0
C3620 C 0.42709 0.80145 0.62867 0.0
C3621 C 0.43358 0.8053 0.59005 0.0
C3622 C 0.4377 0.79049 0.56195 0.0
C3623 C 0.44259 0.72225 0.30218 0.0
C3624 C 0.44552 0.73797 0.27128 0.0
C3625 C 0.44193 0.72296 0.36264 0.0
C3626 C 0.44448 0.73917 0.39301 0.0
C3627 C 0.44727 0.755 0.36188 0.0
C3628 C 0.44773 0.75446 0.30136 0.0
C3629 C 0.44439 0.73964 0.45728 0.0
C3630 C 0.4403 0.75466 0.48486 0.0
C3631 C 0.44831 0.72551 0.49124 0.0
C3632 C 0.45296 0.70965 0.46442 0.0
C3633 C 0.45964 0.71318 0.42652 0.0
C3634 C 0.46376 0.69819 0.39944 0.0
C3635 C 0.4613 0.67959 0.41028 0.0
C3636 C 0.45474 0.67594 0.44849 0.0
C3637 C 0.4506 0.69089 0.47568 0.0
H3638 H 0.46448 0.668 0.38912 0.0
H3639 H 0.42394 0.81293 0.65055 0.0
H3640 H 0.19891 0.21993 0.02684 0.0
H3641 H 0.19873 0.21904 0.13323 0.0
H3642 H 0.18871 0.27561 0.13696 0.0
H3643 H 0.1893 0.27688 0.03072 0.0
H3644 H 0.20031 0.27313 0.2127 0.0
H3645 H 0.17688 0.23368 0.1643 0.0
H3646 H 0.16947 0.20698 0.11883 0.0
H3647 H 0.18536 0.16777 0.20786 0.0
H3648 H 0.19296 0.19422 0.25309 0.0
H3649 H 0.1888 0.27077 0.51477 0.0
H3650 H 0.18953 0.27387 0.40853 0.0
H3651 H 0.19957 0.21741 0.3968 0.0
H3652 H 0.1984 0.21397 0.50214 0.0
H3653 H 0.1877 0.22071 0.32499 0.0
H3654 H 0.21113 0.26014 0.3742 0.0
H3655 H 0.21855 0.28681 0.41957 0.0
H3656 H 0.20277 0.32606 0.32979 0.0
H3657 H 0.19515 0.29963 0.28468 0.0
C3658 C 0.1966 0.23208 0.05048 0.0
C3659 C 0.19408 0.24844 0.02084 0.0
C3660 C 0.19647 0.23155 0.11121 0.0
C3661 C 0.19358 0.24716 0.14311 0.0
C3662 C 0.19096 0.26341 0.11329 0.0
C3663 C 0.19127 0.2641 0.05268 0.0
C3664 C 0.19357 0.24688 0.20759 0.0
C3665 C 0.19745 0.2618 0.23738 0.0
C3666 C 0.19003 0.23185 0.23968 0.0
C3667 C 0.18554 0.21596 0.21161 0.0
C3668 C 0.17885 0.21937 0.17372 0.0
C3669 C 0.17461 0.20427 0.14806 0.0
C3670 C 0.17696 0.1857 0.16033 0.0
C3671 C 0.18356 0.18217 0.19829 0.0
C3672 C 0.18783 0.1972 0.22393 0.0
C3673 C 0.19123 0.25914 0.48927 0.0
C3674 C 0.19351 0.24209 0.51615 0.0
C3675 C 0.1917 0.26095 0.42875 0.0
C3676 C 0.19468 0.24592 0.39469 0.0
C3677 C 0.19722 0.22916 0.42212 0.0
C3678 C 0.19654 0.22718 0.4822 0.0
C3679 C 0.19454 0.24683 0.33029 0.0
C3680 C 0.19058 0.23205 0.30044 0.0
C3681 C 0.19801 0.26198 0.29833 0.0
C3682 C 0.20249 0.27786 0.3266 0.0
C3683 C 0.20917 0.27444 0.36467 0.0
C3684 C 0.21343 0.28953 0.39024 0.0
C3685 C 0.21112 0.30812 0.37772 0.0
C3686 C 0.20454 0.31166 0.33958 0.0
C3687 C 0.20025 0.29663 0.31403 0.0
H3688 H 0.21444 0.31977 0.39744 0.0
H3689 H 0.17365 0.17403 0.14053 0.0
H3690 H 0.55489 0.51689 0.50072 0.0
H3691 H 0.55474 0.51326 0.39471 0.0
H3692 H 0.57445 0.47219 0.4061 0.0
H3693 H 0.57462 0.47555 0.51193 0.0
H3694 H 0.57724 0.50197 0.32549 0.0
H3695 H 0.55675 0.45547 0.37273 0.0
H3696 H 0.54414 0.44273 0.4192 0.0
H3697 H 0.52926 0.48403 0.33046 0.0
H3698 H 0.54181 0.49714 0.28389 0.0
H3699 H 0.57387 0.46688 0.03138 0.0
H3700 H 0.57396 0.46814 0.13817 0.0
H3701 H 0.55683 0.51495 0.13386 0.0
H3702 H 0.55691 0.51418 0.0272 0.0
H3703 H 0.55281 0.48099 0.21057 0.0
H3704 H 0.57333 0.5285 0.16792 0.0
H3705 H 0.58592 0.54138 0.12151 0.0
H3706 H 0.60067 0.4982 0.20233 0.0
H3707 H 0.58813 0.4849 0.24864 0.0
C3708 C 0.55916 0.50701 0.48068 0.0
C3709 C 0.56476 0.4965 0.51455 0.0
C3710 C 0.55903 0.50489 0.4203 0.0
C3711 C 0.56455 0.49238 0.39307 0.0
C3712 C 0.57014 0.48186 0.42665 0.0
C3713 C 0.57021 0.4838 0.487 0.0
C3714 C 0.56476 0.49103 0.32918 0.0
C3715 C 0.57195 0.4971 0.30034 0.0
C3716 C 0.55778 0.48505 0.29679 0.0
C3717 C 0.55023 0.47742 0.32533 0.0
C3718 C 0.55081 0.46196 0.36361 0.0
C3719 C 0.54366 0.45464 0.38982 0.0
C3720 C 0.53591 0.46261 0.37794 0.0
C3721 C 0.53528 0.47789 0.33971 0.0
C3722 C 0.5424 0.48526 0.31333 0.0
C3723 C 0.57021 0.47755 0.05334 0.0
C3724 C 0.56546 0.49056 0.02144 0.0
C3725 C 0.57025 0.47823 0.11401 0.0
C3726 C 0.5654 0.49164 0.14327 0.0
C3727 C 0.56061 0.50456 0.1116 0.0
C3728 C 0.56072 0.50418 0.05095 0.0
C3729 C 0.56526 0.49203 0.20718 0.0
C3730 C 0.5581 0.48577 0.23589 0.0
C3731 C 0.57226 0.49785 0.23952 0.0
C3732 C 0.57978 0.50555 0.21102 0.0
C3733 C 0.57924 0.5216 0.17516 0.0
C3734 C 0.58637 0.52902 0.14906 0.0
C3735 C 0.59409 0.52057 0.15878 0.0
C3736 C 0.59469 0.5047 0.19472 0.0
C3737 C 0.58757 0.49722 0.22093 0.0
H3738 H 0.5996 0.52635 0.13862 0.0
H3739 H 0.53039 0.4569 0.39824 0.0
H3740 H 0.18856 0.46685 0.23067 0.0
H3741 H 0.1901 0.46438 0.33679 0.0
H3742 H 0.1969 0.52327 0.34512 0.0
H3743 H 0.19506 0.52597 0.23936 0.0
H3744 H 0.20712 0.49613 0.41439 0.0
H3745 H 0.17914 0.51607 0.37329 0.0
H3746 H 0.16548 0.51372 0.32561 0.0
H3747 H 0.16127 0.46011 0.40784 0.0
H3748 H 0.17504 0.46186 0.45469 0.0
H3749 H 0.19928 0.51899 0.71221 0.0
H3750 H 0.1992 0.51922 0.60546 0.0
H3751 H 0.19031 0.46172 0.60431 0.0
H3752 H 0.19051 0.46127 0.71092 0.0
H3753 H 0.18146 0.48701 0.53073 0.0
H3754 H 0.20921 0.46802 0.57677 0.0
H3755 H 0.22294 0.47045 0.62365 0.0
H3756 H 0.22763 0.52236 0.53284 0.0
H3757 H 0.21383 0.52053 0.48655 0.0
C3758 C 0.19047 0.47916 0.25532 0.0
C3759 C 0.19169 0.49661 0.22768 0.0
C3760 C 0.19134 0.47774 0.31552 0.0
C3761 C 0.19362 0.49366 0.34814 0.0
C3762 C 0.19517 0.51089 0.32021 0.0
C3763 C 0.19407 0.51244 0.26027 0.0
C3764 C 0.19385 0.49268 0.41191 0.0
C3765 C 0.20153 0.49431 0.44011 0.0
C3766 C 0.18652 0.48997 0.44458 0.0
C3767 C 0.1782 0.48894 0.41668 0.0
C3768 C 0.17537 0.50363 0.38052 0.0
C3769 C 0.16759 0.50243 0.35373 0.0
C3770 C 0.16252 0.48673 0.36344 0.0
C3771 C 0.16522 0.47222 0.40014 0.0
C3772 C 0.17302 0.4733 0.42674 0.0
C3773 C 0.19724 0.50648 0.68908 0.0
C3774 C 0.19484 0.49015 0.7194 0.0
C3775 C 0.19726 0.50658 0.62837 0.0
C3776 C 0.19479 0.49044 0.59753 0.0
C3777 C 0.19225 0.47426 0.62772 0.0
C3778 C 0.19237 0.47403 0.68834 0.0
C3779 C 0.19474 0.49052 0.53356 0.0
C3780 C 0.18707 0.48874 0.5052 0.0
C3781 C 0.20209 0.49313 0.50086 0.0
C3782 C 0.21041 0.49428 0.5288 0.0
C3783 C 0.21311 0.4801 0.56737 0.0
C3784 C 0.22092 0.48135 0.59377 0.0
C3785 C 0.22614 0.49659 0.58141 0.0
C3786 C 0.22356 0.5106 0.54253 0.0
C3787 C 0.21574 0.50947 0.51625 0.0
H3788 H 0.23218 0.49751 0.60181 0.0
H3789 H 0.1565 0.48584 0.34273 0.0
H3790 H 0.5741 0.21383 0.24673 0.0
H3791 H 0.57169 0.21667 0.35145 0.0
H3792 H 0.56041 0.27126 0.32536 0.0
H3793 H 0.56265 0.26845 0.22036 0.0
H3794 H 0.57323 0.26965 0.41275 0.0
H3795 H 0.54785 0.23997 0.3596 0.0
H3796 H 0.5383 0.21685 0.31539 0.0
H3797 H 0.5495 0.17234 0.41517 0.0
H3798 H 0.5592 0.19518 0.45946 0.0
H3799 H 0.55893 0.27835 0.70406 0.0
H3800 H 0.55967 0.27726 0.59807 0.0
H3801 H 0.56878 0.22 0.60632 0.0
H3802 H 0.56799 0.22088 0.71263 0.0
H3803 H 0.55612 0.2246 0.52692 0.0
H3804 H 0.58214 0.25506 0.57538 0.0
H3805 H 0.59046 0.2792 0.62636 0.0
H3806 H 0.57707 0.32314 0.53803 0.0
H3807 H 0.56863 0.29923 0.48679 0.0
C3808 C 0.57105 0.22638 0.2632 0.0
C3809 C 0.56851 0.24086 0.22543 0.0
C3810 C 0.56967 0.22795 0.32288 0.0
C3811 C 0.56582 0.24409 0.34559 0.0
C3812 C 0.56334 0.25865 0.30821 0.0
C3813 C 0.56461 0.25699 0.24841 0.0
C3814 C 0.56478 0.24604 0.40885 0.0
C3815 C 0.5694 0.25999 0.43772 0.0
C3816 C 0.55986 0.23323 0.44101 0.0
C3817 C 0.55432 0.21928 0.4124 0.0
C3818 C 0.54836 0.22522 0.37156 0.0
C3819 C 0.54287 0.21218 0.34676 0.0
C3820 C 0.54327 0.19315 0.3626 0.0
C3821 C 0.54918 0.1871 0.40309 0.0
C3822 C 0.55468 0.20009 0.42803 0.0
C3823 C 0.56117 0.26559 0.68337 0.0
C3824 C 0.56345 0.24973 0.71649 0.0
C3825 C 0.56158 0.26499 0.6229 0.0
C3826 C 0.56433 0.24859 0.59473 0.0
C3827 C 0.56664 0.23276 0.62758 0.0
C3828 C 0.56622 0.23332 0.68814 0.0
C3829 C 0.5647 0.24789 0.53079 0.0
C3830 C 0.55995 0.23423 0.50183 0.0
C3831 C 0.56945 0.261 0.49855 0.0
C3832 C 0.57473 0.27538 0.5275 0.0
C3833 C 0.58097 0.26988 0.5669 0.0
C3834 C 0.5857 0.28351 0.59583 0.0
C3835 C 0.58428 0.30269 0.5855 0.0
C3836 C 0.57816 0.30827 0.54594 0.0
C3837 C 0.57342 0.29469 0.51682 0.0
H3838 H 0.58794 0.31323 0.60811 0.0
H3839 H 0.53903 0.18307 0.3433 0.0
H3840 H 0.30741 0.42772 0.54516 0.0
H3841 H 0.30706 0.39607 0.50185 0.0
H3842 H 0.3204 0.41679 0.35199 0.0
H3843 H 0.3207 0.4481 0.39421 0.0
H3844 H 0.30747 0.39568 0.32005 0.0
H3845 H 0.33087 0.39006 0.45009 0.0
H3846 H 0.338 0.39303 0.54482 0.0
H3847 H 0.32015 0.35574 0.62283 0.0
H3848 H 0.3129 0.35266 0.52844 0.0
H3849 H 0.31959 0.30739 0.19748 0.0
H3850 H 0.31994 0.33898 0.24102 0.0
H3851 H 0.3055 0.31879 0.38659 0.0
H3852 H 0.30509 0.28737 0.34348 0.0
H3853 H 0.3191 0.33956 0.42068 0.0
H3854 H 0.29647 0.34381 0.28268 0.0
H3855 H 0.29024 0.34092 0.18498 0.0
H3856 H 0.30746 0.38191 0.11855 0.0
H3857 H 0.31389 0.38479 0.21571 0.0
C3858 C 0.31027 0.42548 0.50308 0.0
C3859 C 0.31406 0.44044 0.47293 0.0
C3860 C 0.31009 0.40744 0.47852 0.0
C3861 C 0.31374 0.40421 0.42394 0.0
C3862 C 0.31751 0.41908 0.39402 0.0
C3863 C 0.31767 0.437 0.41829 0.0
C3864 C 0.31361 0.38536 0.39724 0.0
C3865 C 0.31008 0.38342 0.34174 0.0
C3866 C 0.31697 0.36948 0.4259 0.0
C3867 C 0.32135 0.37115 0.48243 0.0
C3868 C 0.32846 0.38253 0.48752 0.0
C3869 C 0.33253 0.38423 0.54108 0.0
C3870 C 0.32953 0.37457 0.5898 0.0
C3871 C 0.32247 0.36317 0.58501 0.0
C3872 C 0.3184 0.3614 0.53149 0.0
C3873 C 0.31641 0.3098 0.23836 0.0
C3874 C 0.31236 0.295 0.26739 0.0
C3875 C 0.31665 0.32774 0.26325 0.0
C3876 C 0.31276 0.33105 0.31694 0.0
C3877 C 0.3086 0.31637 0.34537 0.0
C3878 C 0.30836 0.29849 0.32064 0.0
C3879 C 0.31292 0.34987 0.3436 0.0
C3880 C 0.31648 0.35181 0.39905 0.0
C3881 C 0.30968 0.36581 0.31449 0.0
C3882 C 0.3057 0.36439 0.25635 0.0
C3883 C 0.29896 0.35212 0.24716 0.0
C3884 C 0.29539 0.35049 0.19188 0.0
C3885 C 0.29847 0.3612 0.14556 0.0
C3886 C 0.30509 0.37361 0.15446 0.0
C3887 C 0.3087 0.37525 0.20963 0.0
H3888 H 0.2957 0.35991 0.10279 0.0
H3889 H 0.33267 0.37591 0.63126 0.0
H3890 H 0.93883 0.8066 0.54153 0.0
H3891 H 0.93852 0.83743 0.49319 0.0
H3892 H 0.9508 0.81353 0.34347 0.0
H3893 H 0.95113 0.78272 0.3912 0.0
H3894 H 0.958 0.84739 0.38394 0.0
H3895 H 0.93112 0.82245 0.33346 0.0
H3896 H 0.91745 0.80827 0.35398 0.0
H3897 H 0.91086 0.8563 0.45836 0.0
H3898 H 0.92456 0.87063 0.43929 0.0
H3899 H 0.95027 0.92495 0.18769 0.0
H3900 H 0.95029 0.89304 0.22963 0.0
H3901 H 0.94025 0.91509 0.38984 0.0
H3902 H 0.94058 0.94693 0.34916 0.0
H3903 H 0.93187 0.88179 0.34057 0.0
H3904 H 0.95834 0.90603 0.39817 0.0
H3905 H 0.97201 0.9209 0.38371 0.0
H3906 H 0.97941 0.87503 0.273 0.0
H3907 H 0.96569 0.86005 0.28587 0.0
C3908 C 0.94142 0.8079 0.49821 0.0
C3909 C 0.945 0.79226 0.47016 0.0
C3910 C 0.94123 0.82547 0.47067 0.0
C3911 C 0.94463 0.82765 0.41483 0.0
C3912 C 0.94816 0.81207 0.38663 0.0
C3913 C 0.9483 0.79448 0.41389 0.0
C3914 C 0.94463 0.8463 0.38622 0.0
C3915 C 0.95229 0.85479 0.37352 0.0
C3916 C 0.93717 0.85607 0.37425 0.0
C3917 C 0.9289 0.84753 0.3854 0.0
C3918 C 0.92679 0.82992 0.3612 0.0
C3919 C 0.91903 0.82186 0.37251 0.0
C3920 C 0.9133 0.83135 0.40757 0.0
C3921 C 0.91531 0.84895 0.43127 0.0
C3922 C 0.92307 0.85705 0.4202 0.0
C3923 C 0.94804 0.92294 0.23175 0.0
C3924 C 0.94533 0.93837 0.26522 0.0
C3925 C 0.94808 0.90478 0.25559 0.0
C3926 C 0.94523 0.90184 0.31258 0.0
C3927 C 0.94243 0.91715 0.34566 0.0
C3928 C 0.94261 0.93531 0.32245 0.0
C3929 C 0.94522 0.88278 0.3382 0.0
C3930 C 0.93757 0.87427 0.35046 0.0
C3931 C 0.95269 0.87308 0.35038 0.0
C3932 C 0.96093 0.88208 0.34218 0.0
C3933 C 0.96283 0.89924 0.37005 0.0
C3934 C 0.9706 0.90766 0.3623 0.0
C3935 C 0.97656 0.89896 0.32723 0.0
C3936 C 0.97477 0.88179 0.29998 0.0
C3937 C 0.967 0.87333 0.30747 0.0
H3938 H 0.98258 0.90549 0.32135 0.0
H3939 H 0.90729 0.8251 0.41625 0.0
H3940 H 0.32785 0.9404 0.95438 0.0
H3941 H 0.32809 0.90941 0.90614 0.0
H3942 H 0.30173 0.9036 0.93525 0.0
H3943 H 0.30149 0.93471 0.98277 0.0
H3944 H 0.31128 0.8712 0.96492 0.0
H3945 H 0.30748 0.9145 0.80183 0.0
H3946 H 0.31094 0.94136 0.7383 0.0
H3947 H 0.33527 0.91849 0.70926 0.0
H3948 H 0.33188 0.89122 0.77198 0.0
H3949 H 0.30063 0.79579 0.78747 0.0
H3950 H 0.30142 0.82737 0.82988 0.0
H3951 H 0.32643 0.83341 0.76443 0.0
H3952 H 0.32542 0.80215 0.71886 0.0
H3953 H 0.31871 0.86539 0.75587 0.0
H3954 H 0.32306 0.82196 0.91275 0.0
H3955 H 0.31993 0.79346 0.97017 0.0
H3956 H 0.2958 0.81553 0.01131 0.0
H3957 H 0.29885 0.84433 0.95481 0.0
C3958 C 0.32216 0.93234 0.95067 0.0
C3959 C 0.31467 0.93955 0.97211 0.0
C3960 C 0.32228 0.91482 0.92303 0.0
C3961 C 0.31492 0.9044 0.9171 0.0
C3962 C 0.30746 0.91153 0.93958 0.0
C3963 C 0.30732 0.92916 0.96653 0.0
C3964 C 0.31499 0.88605 0.88726 0.0
C3965 C 0.31283 0.8699 0.91912 0.0
C3966 C 0.31733 0.88438 0.82821 0.0
C3967 C 0.31947 0.901 0.79213 0.0
C3968 C 0.3136 0.91531 0.78239 0.0
C3969 C 0.31554 0.93059 0.74638 0.0
C3970 C 0.32335 0.9318 0.72026 0.0
C3971 C 0.32923 0.9176 0.72972 0.0
C3972 C 0.32729 0.90219 0.76527 0.0
C3973 C 0.30621 0.80409 0.78123 0.0
C3974 C 0.31296 0.79679 0.75007 0.0
C3975 C 0.30671 0.82196 0.80599 0.0
C3976 C 0.31408 0.83243 0.80181 0.0
C3977 C 0.32071 0.82546 0.76842 0.0
C3978 C 0.32012 0.80774 0.74224 0.0
C3979 C 0.31488 0.85051 0.83317 0.0
C3980 C 0.31724 0.8666 0.80182 0.0
C3981 C 0.3129 0.85207 0.89301 0.0
C3982 C 0.31117 0.83523 0.92941 0.0
C3983 C 0.3171 0.82075 0.93427 0.0
C3984 C 0.31535 0.80454 0.96674 0.0
C3985 C 0.30767 0.80262 -0.00561 0.0
C3986 C 0.30177 0.81704 0.9902 0.0
C3987 C 0.30352 0.83336 0.95822 0.0
H3988 H 0.30631 0.78994 0.0189 0.0
H3989 H 0.32483 0.94368 0.69243 0.0
H3990 H 0.93661 0.44457 0.83275 0.0
H3991 H 0.93728 0.4134 0.87602 0.0
H3992 H 0.95333 0.39467 0.73716 0.0
H3993 H 0.95277 0.42631 0.69338 0.0
H3994 H 0.94009 0.36992 0.76371 0.0
H3995 H 0.96184 0.40341 0.86443 0.0
H3996 H 0.96775 0.43015 0.91942 0.0
H3997 H 0.95011 0.42107 0.05671 0.0
H3998 H 0.94403 0.39437 0.00226 0.0
H3999 H 0.95438 0.28733 0.90144 0.0
H4000 H 0.95319 0.31796 0.85439 0.0
H4001 H 0.93729 0.33745 0.99317 0.0
H4002 H 0.93833 0.30652 0.04055 0.0
H4003 H 0.95036 0.36163 0.966 0.0
H4004 H 0.92859 0.3286 0.86955 0.0
H4005 H 0.92191 0.30258 0.81571 0.0
H4006 H 0.93868 0.31101 0.67279 0.0
H4007 H 0.94554 0.33695 0.72607 0.0
C4008 C 0.94036 0.43396 0.81161 0.0
C4009 C 0.94474 0.43796 0.76024 0.0
C4010 C 0.94071 0.41614 0.83633 0.0
C4011 C 0.94546 0.40199 0.81014 0.0
C4012 C 0.94968 0.40562 0.75795 0.0
C4013 C 0.94935 0.42359 0.73309 0.0
C4014 C 0.94585 0.38335 0.83761 0.0
C4015 C 0.94247 0.36794 0.80749 0.0
C4016 C 0.94867 0.3812 0.89554 0.0
C4017 C 0.95242 0.39702 0.9289 0.0
C4018 C 0.95918 0.40718 0.90616 0.0
C4019 C 0.96257 0.42231 0.93728 0.0
C4020 C 0.95927 0.42735 0.99135 0.0
C4021 C 0.95264 0.41716 0.01474 0.0
C4022 C 0.94923 0.40201 0.9838 0.0
C4023 C 0.9506 0.29808 0.92194 0.0
C4024 C 0.94639 0.29456 0.97442 0.0
C4025 C 0.9499 0.31549 0.89484 0.0
C4026 C 0.94505 0.32966 0.92005 0.0
C4027 C 0.941 0.32646 0.97315 0.0
C4028 C 0.94164 0.30892 0.00022 0.0
C4029 C 0.94463 0.34818 0.89206 0.0
C4030 C 0.94799 0.36356 0.92213 0.0
C4031 C 0.94173 0.35031 0.83435 0.0
C4032 C 0.93765 0.33461 0.80218 0.0
C4033 C 0.93092 0.32479 0.82691 0.0
C4034 C 0.92709 0.31008 0.79641 0.0
C4035 C 0.92989 0.3051 0.74096 0.0
C4036 C 0.93652 0.31486 0.7158 0.0
C4037 C 0.94038 0.32959 0.74611 0.0
H4038 H 0.92692 0.29371 0.71741 0.0
H4039 H 0.96186 0.43916 0.01504 0.0
H4040 H 0.70692 0.69638 0.66463 0.0
H4041 H 0.70622 0.66533 0.61884 0.0
H4042 H 0.68503 0.65122 0.72563 0.0
H4043 H 0.68598 0.68203 0.77354 0.0
H4044 H 0.69464 0.62325 0.72367 0.0
H4045 H 0.68345 0.66224 0.57422 0.0
H4046 H 0.68179 0.68671 0.49865 0.0
H4047 H 0.70399 0.66747 0.41394 0.0
H4048 H 0.70584 0.64303 0.48936 0.0
H4049 H 0.68459 0.54106 0.5593 0.0
H4050 H 0.68434 0.57208 0.60626 0.0
H4051 H 0.70681 0.58748 0.51523 0.0
H4052 H 0.70683 0.55678 0.46621 0.0
H4053 H 0.69588 0.61462 0.5097 0.0
H4054 H 0.70585 0.5735 0.66463 0.0
H4055 H 0.705 0.54694 0.73399 0.0
H4056 H 0.68262 0.57006 0.80618 0.0
H4057 H 0.68322 0.59651 0.73648 0.0
C4058 C 0.70216 0.68655 0.67853 0.0
C4059 C 0.69654 0.6914 0.72274 0.0
C4060 C 0.7017 0.66894 0.65187 0.0
C4061 C 0.69547 0.65611 0.66795 0.0
C4062 C 0.68988 0.66093 0.71252 0.0
C4063 C 0.69045 0.67842 0.74009 0.0
C4064 C 0.69507 0.6373 0.64044 0.0
C4065 C 0.69478 0.62139 0.67678 0.0
C4066 C 0.69539 0.63486 0.57933 0.0
C4067 C 0.6948 0.65084 0.53765 0.0
C4068 C 0.68806 0.66343 0.54008 0.0
C4069 C 0.68705 0.67721 0.49704 0.0
C4070 C 0.69273 0.67848 0.45123 0.0
C4071 C 0.69956 0.66635 0.44921 0.0
C4072 C 0.70059 0.65255 0.49212 0.0
C4073 C 0.68947 0.5511 0.54964 0.0
C4074 C 0.69575 0.54668 0.50951 0.0
C4075 C 0.68936 0.56872 0.57664 0.0
C4076 C 0.69565 0.5819 0.56511 0.0
C4077 C 0.70191 0.57746 0.52482 0.0
C4078 C 0.70191 0.56001 0.4968 0.0
C4079 C 0.69555 0.60068 0.5929 0.0
C4080 C 0.69576 0.61656 0.55657 0.0
C4081 C 0.69495 0.60308 0.65389 0.0
C4082 C 0.69456 0.58693 0.69503 0.0
C4083 C 0.70071 0.57283 0.6949 0.0
C4084 C 0.70027 0.55781 0.73434 0.0
C4085 C 0.69378 0.55689 0.77455 0.0
C4086 C 0.68765 0.57084 0.77508 0.0
C4087 C 0.68803 0.58582 0.7356 0.0
H4088 H 0.69351 0.54543 0.80551 0.0
H4089 H 0.69182 0.68884 0.41725 0.0
H4090 H 0.07517 0.05465 0.76113 0.0
H4091 H 0.07587 0.08532 0.71206 0.0
H4092 H 0.05062 0.07821 0.65218 0.0
H4093 H 0.05011 0.04711 0.69826 0.0
H4094 H 0.05982 0.08993 0.56738 0.0
H4095 H 0.05635 0.10784 0.76914 0.0
H4096 H 0.06013 0.10756 0.87321 0.0
H4097 H 0.08393 0.13149 0.83244 0.0
H4098 H 0.08035 0.13162 0.728 0.0
H4099 H 0.05219 0.18435 0.47766 0.0
H4100 H 0.05183 0.15334 0.52506 0.0
H4101 H 0.07717 0.16098 0.58221 0.0
H4102 H 0.07737 0.19231 0.53768 0.0
H4103 H 0.06813 0.14896 0.66811 0.0
H4104 H 0.07161 0.13135 0.46682 0.0
H4105 H 0.06785 0.13184 0.36272 0.0
H4106 H 0.04412 0.10742 0.40257 0.0
H4107 H 0.04767 0.10708 0.50706 0.0
C4108 C 0.06976 0.05985 0.73808 0.0
C4109 C 0.06256 0.04883 0.7335 0.0
C4110 C 0.07015 0.07729 0.71015 0.0
C4111 C 0.06325 0.0841 0.67917 0.0
C4112 C 0.05601 0.07316 0.67577 0.0
C4113 C 0.0557 0.05554 0.70228 0.0
C4114 C 0.0636 0.10241 0.6489 0.0
C4115 C 0.06154 0.10289 0.58953 0.0
C4116 C 0.06605 0.11916 0.67765 0.0
C4117 C 0.0681 0.1196 0.74068 0.0
C4118 C 0.0624 0.11297 0.78234 0.0
C4119 C 0.06451 0.11283 0.8414 0.0
C4120 C 0.07227 0.11947 0.85941 0.0
C4121 C 0.07792 0.12634 0.81842 0.0
C4122 C 0.07585 0.12646 0.7593 0.0
C4123 C 0.0577 0.17917 0.49956 0.0
C4124 C 0.06483 0.19042 0.504 0.0
C4125 C 0.0575 0.16155 0.52661 0.0
C4126 C 0.06451 0.15484 0.5566 0.0
C4127 C 0.0717 0.16595 0.55945 0.0
C4128 C 0.07183 0.18371 0.53375 0.0
C4129 C 0.06431 0.13649 0.58668 0.0
C4130 C 0.06641 0.13599 0.64597 0.0
C4131 C 0.06191 0.11972 0.55788 0.0
C4132 C 0.05989 0.11932 0.49482 0.0
C4133 C 0.06558 0.12615 0.45341 0.0
C4134 C 0.06348 0.12641 0.39434 0.0
C4135 C 0.05575 0.1197 0.37606 0.0
C4136 C 0.05011 0.11263 0.4168 0.0
C4137 C 0.05216 0.11238 0.47595 0.0
H4138 H 0.05413 0.11995 0.33032 0.0
H4139 H 0.0739 0.11932 0.90514 0.0
H4140 H 0.68222 0.05038 0.01482 0.0
H4141 H 0.6821 0.08164 0.06069 0.0
H4142 H 0.70881 0.08443 0.04606 0.0
H4143 H 0.70891 0.05285 0.00157 0.0
H4144 H 0.70351 0.09324 0.15432 0.0
H4145 H 0.69658 0.11071 0.95829 0.0
H4146 H 0.68862 0.10835 0.86688 0.0
H4147 H 0.66629 0.12358 0.95755 0.0
H4148 H 0.6741 0.12573 0.04977 0.0
H4149 H 0.70858 0.19219 0.20202 0.0
H4150 H 0.70813 0.16063 0.15814 0.0
H4151 H 0.68248 0.15489 0.20927 0.0
H4152 H 0.68299 0.18627 0.2551 0.0
H4153 H 0.68683 0.14765 0.08423 0.0
H4154 H 0.69379 0.13043 0.27974 0.0
H4155 H 0.70173 0.13277 0.37116 0.0
H4156 H 0.72402 0.11696 0.28095 0.0
H4157 H 0.71623 0.11491 0.18861 0.0
C4158 C 0.68802 0.05795 0.02042 0.0
C4159 C 0.69556 0.04967 0.00431 0.0
C4160 C 0.68796 0.07568 0.04659 0.0
C4161 C 0.69545 0.08534 0.0562 0.0
C4162 C 0.70299 0.07714 0.03889 0.0
C4163 C 0.70304 0.0593 0.01324 0.0
C4164 C 0.69542 0.10363 0.0867 0.0
C4165 C 0.69996 0.10523 0.13859 0.0
C4166 C 0.69058 0.11901 0.06678 0.0
C4167 C 0.68592 0.11824 0.01106 0.0
C4168 C 0.68997 0.11347 0.95882 0.0
C4169 C 0.68548 0.11216 0.90685 0.0
C4170 C 0.67695 0.11577 0.90643 0.0
C4171 C 0.6729 0.12077 0.95795 0.0
C4172 C 0.67735 0.12206 0.01008 0.0
C4173 C 0.7029 0.18401 0.20461 0.0
C4174 C 0.69584 0.19137 0.23212 0.0
C4175 C 0.70265 0.16612 0.17955 0.0
C4176 C 0.69527 0.15563 0.18062 0.0
C4177 C 0.68821 0.16291 0.20834 0.0
C4178 C 0.68853 0.18063 0.23479 0.0
C4179 C 0.69496 0.13721 0.1514 0.0
C4180 C 0.69036 0.13562 0.09982 0.0
C4181 C 0.69975 0.12184 0.17149 0.0
C4182 C 0.70444 0.12275 0.22708 0.0
C4183 C 0.7004 0.12764 0.27924 0.0
C4184 C 0.70487 0.12889 0.33126 0.0
C4185 C 0.71338 0.12508 0.33183 0.0
C4186 C 0.71743 0.11994 0.2804 0.0
C4187 C 0.71299 0.11874 0.2282 0.0
H4188 H 0.71683 0.12606 0.37216 0.0
H4189 H 0.67349 0.11473 0.86617 0.0
H4190 H 0.05016 0.69204 0.02884 0.0
H4191 H 0.05059 0.66085 0.07479 0.0
H4192 H 0.07653 0.65577 0.02931 0.0
H4193 H 0.07593 0.68648 0.98033 0.0
H4194 H 0.06879 0.62385 0.01385 0.0
H4195 H 0.07011 0.66955 0.17027 0.0
H4196 H 0.06492 0.69782 0.22138 0.0
H4197 H 0.04163 0.67013 0.25277 0.0
H4198 H 0.04668 0.64168 0.20181 0.0
H4199 H 0.0773 0.54747 0.1978 0.0
H4200 H 0.07734 0.57874 0.15315 0.0
H4201 H 0.05181 0.58673 0.20552 0.0
H4202 H 0.05198 0.55573 0.25362 0.0
H4203 H 0.05978 0.6179 0.21966 0.0
H4204 H 0.05641 0.57948 0.03853 0.0
H4205 H 0.05968 0.5553 0.96478 0.0
H4206 H 0.08554 0.56982 0.97458 0.0
H4207 H 0.08231 0.59489 0.04595 0.0
C4208 C 0.05586 0.68394 0.02758 0.0
C4209 C 0.06299 0.69127 0.00104 0.0
C4210 C 0.05615 0.66637 0.05445 0.0
C4211 C 0.06366 0.65638 0.0569 0.0
C4212 C 0.0707 0.6634 0.02814 0.0
C4213 C 0.07035 0.68076 -0.00012 0.0
C4214 C 0.06417 0.63853 0.08919 0.0
C4215 C 0.06697 0.62261 0.05921 0.0
C4216 C 0.06158 0.63693 0.14782 0.0
C4217 C 0.05875 0.65355 0.18182 0.0
C4218 C 0.06388 0.66949 0.18812 0.0
C4219 C 0.06096 0.68557 0.21688 0.0
C4220 C 0.05291 0.68587 0.23956 0.0
C4221 C 0.04784 0.66994 0.2347 0.0
C4222 C 0.05074 0.65379 0.20617 0.0
C4223 C 0.07176 0.5561 0.20037 0.0
C4224 C 0.06465 0.54949 0.22905 0.0
C4225 C 0.07173 0.57377 0.17414 0.0
C4226 C 0.0645 0.58479 0.17444 0.0
C4227 C 0.05745 0.57837 0.20458 0.0
C4228 C 0.05754 0.56081 0.2322 0.0
C4229 C 0.06436 0.6031 0.14401 0.0
C4230 C 0.06168 0.61917 0.17451 0.0
C4231 C 0.06702 0.60491 0.0856 0.0
C4232 C 0.06915 0.58861 0.04849 0.0
C4233 C 0.0628 0.57726 0.02559 0.0
C4234 C 0.06464 0.56359 0.98371 0.0
C4235 C 0.07284 0.56077 0.96573 0.0
C4236 C 0.07921 0.57188 0.98893 0.0
C4237 C 0.07736 0.58594 0.02964 0.0
H4238 H 0.07425 0.55009 0.93347 0.0
H4239 H 0.05065 0.69838 0.26156 0.0
H4240 H 0.82282 0.42896 0.02649 0.0
H4241 H 0.82333 0.39763 0.98076 0.0
H4242 H 0.80391 0.41413 0.86182 0.0
H4243 H 0.80346 0.44544 0.90624 0.0
H4244 H 0.80167 0.37831 0.92259 0.0
H4245 H 0.82127 0.4133 0.80766 0.0
H4246 H 0.83351 0.43358 0.79214 0.0
H4247 H 0.84919 0.39134 0.86905 0.0
H4248 H 0.83701 0.37093 0.88608 0.0
H4249 H 0.80256 0.30445 0.71516 0.0
H4250 H 0.8028 0.33557 0.7617 0.0
H4251 H 0.82473 0.31968 0.85789 0.0
H4252 H 0.82462 0.28869 0.81034 0.0
H4253 H 0.82601 0.35518 0.81094 0.0
H4254 H 0.80653 0.3203 0.9265 0.0
H4255 H 0.79424 0.30063 0.94735 0.0
H4256 H 0.77839 0.34294 0.87251 0.0
H4257 H 0.7906 0.36277 0.85056 0.0
C4258 C 0.81862 0.42582 0.99091 0.0
C4259 C 0.81307 0.43954 0.97004 0.0
C4260 C 0.81897 0.40804 0.96465 0.0
C4261 C 0.81368 0.40375 0.91794 0.0
C4262 C 0.80804 0.41729 0.89781 0.0
C4263 C 0.80779 0.43511 0.92327 0.0
C4264 C 0.81388 0.38497 0.89066 0.0
C4265 C 0.80694 0.37328 0.89758 0.0
C4266 C 0.82086 0.37846 0.85933 0.0
C4267 C 0.8282 0.39068 0.84887 0.0
C4268 C 0.82731 0.40841 0.82189 0.0
C4269 C 0.83425 0.41992 0.81268 0.0
C4270 C 0.84212 0.41378 0.82978 0.0
C4271 C 0.84308 0.39609 0.85595 0.0
C4272 C 0.83616 0.38455 0.86539 0.0
C4273 C 0.80743 0.30763 0.74618 0.0
C4274 C 0.81348 0.29409 0.76015 0.0
C4275 C 0.80754 0.32533 0.77291 0.0
C4276 C 0.81372 0.32978 0.81377 0.0
C4277 C 0.81988 0.31643 0.82679 0.0
C4278 C 0.81975 0.29869 0.80023 0.0
C4279 C 0.81376 0.34843 0.84267 0.0
C4280 C 0.82074 0.36014 0.83604 0.0
C4281 C 0.80681 0.355 0.87445 0.0
C4282 C 0.79948 0.3429 0.88625 0.0
C4283 C 0.80043 0.32531 0.91386 0.0
C4284 C 0.79348 0.31416 0.92605 0.0
C4285 C 0.78554 0.32051 0.91109 0.0
C4286 C 0.78454 0.33803 0.88396 0.0
C4287 C 0.79147 0.34922 0.87167 0.0
H4288 H 0.78017 0.31187 0.92067 0.0
H4289 H 0.84748 0.4227 0.82261 0.0
H4290 H 0.45862 0.93856 0.78831 0.0
H4291 H 0.45814 0.90699 0.83216 0.0
H4292 H 0.43281 0.90045 0.77427 0.0
H4293 H 0.43338 0.93185 0.72844 0.0
H4294 H 0.43659 0.8929 0.90041 0.0
H4295 H 0.44446 0.87642 0.70624 0.0
H4296 H 0.45271 0.87938 0.61641 0.0
H4297 H 0.47481 0.8646 0.71059 0.0
H4298 H 0.4667 0.86193 0.80137 0.0
H4299 H 0.43274 0.79296 0.94734 0.0
H4300 H 0.43277 0.82433 0.90213 0.0
H4301 H 0.45803 0.8329 0.95888 0.0
H4302 H 0.45793 0.80174 0.00616 0.0
H4303 H 0.45399 0.83936 0.83251 0.0
H4304 H 0.44592 0.85583 0.02718 0.0
H4305 H 0.43757 0.85354 0.11678 0.0
H4306 H 0.41563 0.86847 0.02102 0.0
H4307 H 0.42383 0.87048 0.9305 0.0
C4308 C 0.45302 0.93018 0.78421 0.0
C4309 C 0.44607 0.93728 0.75468 0.0
C4310 C 0.45274 0.9123 0.80932 0.0
C4311 C 0.44544 0.90157 0.8063 0.0
C4312 C 0.43848 0.90864 0.77674 0.0
C4313 C 0.43884 0.92636 0.75025 0.0
C4314 C 0.44511 0.88303 0.83488 0.0
C4315 C 0.44028 0.88106 0.88521 0.0
C4316 C 0.4501 0.86791 0.81535 0.0
C4317 C 0.45499 0.86919 0.76076 0.0
C4318 C 0.45109 0.87399 0.70795 0.0
C4319 C 0.45574 0.87559 0.65683 0.0
C4320 C 0.46429 0.87224 0.65782 0.0
C4321 C 0.46819 0.86723 0.70992 0.0
C4322 C 0.46357 0.86566 0.76123 0.0
C4323 C 0.43827 0.80163 0.95044 0.0
C4324 C 0.44532 0.79513 0.98011 0.0
C4325 C 0.43827 0.81946 0.92481 0.0
C4326 C 0.4454 0.83077 0.92749 0.0
C4327 C 0.45248 0.82427 0.95677 0.0
C4328 C 0.4524 0.80662 0.98379 0.0
C4329 C 0.44548 0.8492 0.89818 0.0
C4330 C 0.45028 0.85116 0.84767 0.0
C4331 C 0.44043 0.86428 0.91748 0.0
C4332 C 0.43548 0.86303 0.97183 0.0
C4333 C 0.4393 0.85838 0.02502 0.0
C4334 C 0.4346 0.85718 0.07604 0.0
C4335 C 0.42607 0.86078 0.07456 0.0
C4336 C 0.42224 0.86564 0.02207 0.0
C4337 C 0.42691 0.8668 0.97089 0.0
H4338 H 0.42244 0.85987 0.11411 0.0
H4339 H 0.46788 0.87349 0.6182 0.0
H4340 H 0.81566 0.81008 0.1816 0.0
H4341 H 0.81578 0.84076 0.23057 0.0
H4342 H 0.81324 0.81305 0.397 0.0
H4343 H 0.81289 0.78247 0.34849 0.0
H4344 H 0.80293 0.84242 0.38923 0.0
H4345 H 0.83188 0.83117 0.35372 0.0
H4346 H 0.84414 0.82334 0.29414 0.0
H4347 H 0.83973 0.87202 0.18698 0.0
H4348 H 0.82737 0.88 0.24547 0.0
H4349 H 0.81377 0.92524 0.55607 0.0
H4350 H 0.81371 0.89321 0.51486 0.0
H4351 H 0.81367 0.91663 0.34149 0.0
H4352 H 0.81368 0.94844 0.38184 0.0
H4353 H 0.82564 0.88872 0.35817 0.0
H4354 H 0.79651 0.89926 0.39051 0.0
H4355 H 0.78411 0.90716 0.44848 0.0
H4356 H 0.78878 0.85983 0.56069 0.0
H4357 H 0.80129 0.8518 0.50385 0.0
C4358 C 0.81516 0.81053 0.22861 0.0
C4359 C 0.81427 0.79387 0.26117 0.0
C4360 C 0.81525 0.82805 0.25654 0.0
C4361 C 0.81459 0.82914 0.31745 0.0
C4362 C 0.81375 0.81252 0.34998 0.0
C4363 C 0.81359 0.79505 0.32213 0.0
C4364 C 0.81469 0.84763 0.34729 0.0
C4365 C 0.80796 0.85243 0.38323 0.0
C4366 C 0.82119 0.86077 0.3386 0.0
C4367 C 0.82866 0.8561 0.30373 0.0
C4368 C 0.83349 0.84014 0.31724 0.0
C4369 C 0.84046 0.83568 0.28369 0.0
C4370 C 0.8427 0.84715 0.23675 0.0
C4371 C 0.83798 0.86314 0.22334 0.0
C4372 C 0.831 0.86765 0.25672 0.0
C4373 C 0.81375 0.92352 0.50921 0.0
C4374 C 0.81375 0.93934 0.47221 0.0
C4375 C 0.81368 0.90527 0.48581 0.0
C4376 C 0.81368 0.90265 0.42521 0.0
C4377 C 0.81369 0.9184 0.38836 0.0
C4378 C 0.81366 0.93656 0.41157 0.0
C4379 C 0.81386 0.88354 0.39962 0.0
C4380 C 0.82065 0.87862 0.36455 0.0
C4381 C 0.80742 0.87032 0.40915 0.0
C4382 C 0.79991 0.87511 0.44345 0.0
C4383 C 0.79495 0.89066 0.42794 0.0
C4384 C 0.78788 0.89513 0.4605 0.0
C4385 C 0.78568 0.88406 0.5084 0.0
C4386 C 0.79051 0.86843 0.52368 0.0
C4387 C 0.79759 0.86391 0.4913 0.0
H4388 H 0.78021 0.88755 0.53356 0.0
H4389 H 0.8481 0.84368 0.21081 0.0
H4390 H 0.44737 0.28625 0.38567 0.0
H4391 H 0.44715 0.31752 0.34281 0.0
H4392 H 0.44353 0.34222 0.5127 0.0
H4393 H 0.44361 0.31058 0.55659 0.0
H4394 H 0.43317 0.35709 0.43001 0.0
H4395 H 0.46221 0.34416 0.44956 0.0
H4396 H 0.47504 0.32548 0.4391 0.0
H4397 H 0.47259 0.32717 0.25302 0.0
H4398 H 0.45966 0.34561 0.26236 0.0
H4399 H 0.44618 0.45032 0.35672 0.0
H4400 H 0.44551 0.41861 0.39793 0.0
H4401 H 0.44355 0.39501 0.2254 0.0
H4402 H 0.44378 0.42689 0.1836 0.0
H4403 H 0.45656 0.37954 0.3074 0.0
H4404 H 0.42755 0.39295 0.28893 0.0
H4405 H 0.41479 0.41179 0.30049 0.0
H4406 H 0.41734 0.40925 0.48641 0.0
H4407 H 0.43023 0.39075 0.47596 0.0
C4408 C 0.44658 0.29829 0.41426 0.0
C4409 C 0.44558 0.29601 0.47469 0.0
C4410 C 0.44647 0.31615 0.38955 0.0
C4411 C 0.44546 0.3321 0.42477 0.0
C4412 C 0.44436 0.32997 0.48505 0.0
C4413 C 0.44442 0.31198 0.50998 0.0
C4414 C 0.44544 0.35093 0.39785 0.0
C4415 C 0.43834 0.36216 0.40399 0.0
C4416 C 0.4521 0.35714 0.36252 0.0
C4417 C 0.45992 0.34615 0.3567 0.0
C4418 C 0.46437 0.34043 0.40641 0.0
C4419 C 0.47167 0.3299 0.40068 0.0
C4420 C 0.47462 0.32511 0.34543 0.0
C4421 C 0.47029 0.33087 0.29579 0.0
C4422 C 0.46298 0.34138 0.30128 0.0
C4423 C 0.44545 0.43845 0.32754 0.0
C4424 C 0.44487 0.44109 0.26706 0.0
C4425 C 0.44511 0.42038 0.35114 0.0
C4426 C 0.44441 0.40467 0.31452 0.0
C4427 C 0.44402 0.40711 0.25407 0.0
C4428 C 0.44414 0.42527 0.23043 0.0
C4429 C 0.44433 0.38568 0.33999 0.0
C4430 C 0.45142 0.37443 0.33349 0.0
C4431 C 0.43767 0.3795 0.37517 0.0
C4432 C 0.42993 0.3907 0.38162 0.0
C4433 C 0.42546 0.39663 0.33228 0.0
C4434 C 0.41819 0.40721 0.33863 0.0
C4435 C 0.41527 0.41179 0.39414 0.0
C4436 C 0.41962 0.40575 0.44343 0.0
C4437 C 0.42691 0.39522 0.43731 0.0
H4438 H 0.40964 0.41996 0.39897 0.0
H4439 H 0.48027 0.31696 0.34109 0.0
H4440 H 0.20343 0.55908 0.94931 0.0
H4441 H 0.20372 0.59096 0.99125 0.0
H4442 H 0.18693 0.57294 0.12684 0.0
H4443 H 0.18625 0.54175 0.08348 0.0
H4444 H 0.18239 0.60569 0.08729 0.0
H4445 H 0.208 0.57771 0.15205 0.0
H4446 H 0.22159 0.56199 0.14163 0.0
H4447 H 0.23046 0.60824 0.0379 0.0
H4448 H 0.21689 0.62414 0.04722 0.0
H4449 H 0.18966 0.67913 0.29618 0.0
H4450 H 0.18954 0.64781 0.24987 0.0
H4451 H 0.20221 0.67079 0.1003 0.0
H4452 H 0.2022 0.70203 0.14556 0.0
H4453 H 0.20889 0.63624 0.14475 0.0
H4454 H 0.18286 0.66443 0.08581 0.0
H4455 H 0.16916 0.67933 0.09979 0.0
H4456 H 0.161 0.6314 0.19904 0.0
H4457 H 0.17469 0.61633 0.1863 0.0
C4458 C 0.19977 0.56203 0.9878 0.0
C4459 C 0.19496 0.54783 0.01402 0.0
C4460 C 0.19999 0.58013 0.01195 0.0
C4461 C 0.19546 0.58415 0.06269 0.0
C4462 C 0.19052 0.57009 0.08793 0.0
C4463 C 0.19024 0.55216 0.0636 0.0
C4464 C 0.19573 0.603 0.0898 0.0
C4465 C 0.18818 0.61228 0.10045 0.0
C4466 C 0.20329 0.61165 0.10606 0.0
C4467 C 0.21141 0.602 0.09977 0.0
C4468 C 0.21283 0.58444 0.12657 0.0
C4469 C 0.22053 0.57552 0.12098 0.0
C4470 C 0.22688 0.58408 0.08897 0.0
C4471 C 0.22554 0.6016 0.06258 0.0
C4472 C 0.21785 0.61058 0.06804 0.0
C4473 C 0.19251 0.67736 0.25384 0.0
C4474 C 0.19595 0.69284 0.2243 0.0
C4475 C 0.19238 0.6596 0.22734 0.0
C4476 C 0.19581 0.6572 0.17167 0.0
C4477 C 0.19952 0.6725 0.1432 0.0
C4478 C 0.19951 0.69025 0.16908 0.0
C4479 C 0.19557 0.63873 0.1427 0.0
C4480 C 0.20311 0.62958 0.13158 0.0
C4481 C 0.188 0.63007 0.12681 0.0
C4482 C 0.17984 0.63937 0.1358 0.0
C4483 C 0.17818 0.65718 0.11129 0.0
C4484 C 0.17041 0.66563 0.1188 0.0
C4485 C 0.16422 0.65635 0.15046 0.0
C4486 C 0.1658 0.6386 0.17465 0.0
C4487 C 0.17356 0.6301 0.16729 0.0
H4488 H 0.1582 0.66289 0.1561 0.0
H4489 H 0.23284 0.57716 0.08475 0.0
H4490 H 0.55259 0.04233 0.16317 0.0
H4491 H 0.55298 0.07385 0.1199 0.0
H4492 H 0.57142 0.09086 0.24609 0.0
H4493 H 0.57066 0.05957 0.29143 0.0
H4494 H 0.56135 0.11844 0.22908 0.0
H4495 H 0.57667 0.07809 0.10162 0.0
H4496 H 0.5792 0.05004 0.04037 0.0
H4497 H 0.55871 0.06526 0.9305 0.0
H4498 H 0.55599 0.09334 0.99134 0.0
H4499 H 0.57442 0.1986 0.06814 0.0
H4500 H 0.57417 0.16775 0.1155 0.0
H4501 H 0.55359 0.151 0.00674 0.0
H4502 H 0.55381 0.18199 0.95909 0.0
H4503 H 0.56541 0.12351 0.01545 0.0
H4504 H 0.55038 0.16434 0.14803 0.0
H4505 H 0.54861 0.19245 0.21036 0.0
H4506 H 0.56984 0.17617 0.31166 0.0
H4507 H 0.5718 0.14805 0.24955 0.0
C4508 C 0.55658 0.05298 0.18229 0.0
C4509 C 0.56155 0.04871 0.23071 0.0
C4510 C 0.55689 0.07086 0.15714 0.0
C4511 C 0.5624 0.08455 0.17877 0.0
C4512 C 0.56715 0.08049 0.22856 0.0
C4513 C 0.56668 0.0627 0.25465 0.0
C4514 C 0.5632 0.10304 0.1492 0.0
C4515 C 0.56237 0.11953 0.1825 0.0
C4516 C 0.56444 0.10449 0.08829 0.0
C4517 C 0.56609 0.08772 0.05133 0.0
C4518 C 0.57267 0.0754 0.0646 0.0
C4519 C 0.57414 0.05953 0.02997 0.0
C4520 C 0.5691 0.0559 0.98186 0.0
C4521 C 0.56259 0.06813 0.96795 0.0
C4522 C 0.5611 0.08404 0.00239 0.0
C4523 C 0.56978 0.18842 0.05477 0.0
C4524 C 0.56404 0.19278 0.0107 0.0
C4525 C 0.56967 0.17079 0.0817 0.0
C4526 C 0.56377 0.15725 0.0653 0.0
C4527 C 0.55817 0.16134 0.02013 0.0
C4528 C 0.55831 0.17899 0.99295 0.0
C4529 C 0.56344 0.1388 0.09527 0.0
C4530 C 0.56441 0.12235 0.06204 0.0
C4531 C 0.56247 0.13739 0.15634 0.0
C4532 C 0.56128 0.15423 0.19378 0.0
C4533 C 0.5547 0.16683 0.18331 0.0
C4534 C 0.55366 0.18273 0.21862 0.0
C4535 C 0.55913 0.18608 0.26466 0.0
C4536 C 0.56562 0.17353 0.27583 0.0
C4537 C 0.5667 0.15761 0.24065 0.0
H4538 H 0.55833 0.19841 0.29174 0.0
H4539 H 0.57025 0.04364 0.95517 0.0
H4540 H 0.1833 0.04414 0.55023 0.0
H4541 H 0.18337 0.07548 0.59558 0.0
H4542 H 0.2073 0.087 0.51912 0.0
H4543 H 0.20721 0.05575 0.47282 0.0
H4544 H 0.20579 0.09397 0.64391 0.0
H4545 H 0.19263 0.10794 0.46171 0.0
H4546 H 0.18236 0.10406 0.383 0.0
H4547 H 0.16259 0.11602 0.50281 0.0
H4548 H 0.17274 0.11964 0.58256 0.0
H4549 H 0.20809 0.19407 0.67904 0.0
H4550 H 0.20756 0.16229 0.63684 0.0
H4551 H 0.18458 0.15152 0.72743 0.0
H4552 H 0.18524 0.18315 0.77144 0.0
H4553 H 0.1853 0.14412 0.59711 0.0
H4554 H 0.19839 0.12993 0.77929 0.0
H4555 H 0.20867 0.13509 0.8572 0.0
H4556 H 0.22848 0.12399 0.73695 0.0
H4557 H 0.21831 0.11914 0.65792 0.0
C4558 C 0.18857 0.05339 0.54321 0.0
C4559 C 0.19528 0.04761 0.50854 0.0
C4560 C 0.18858 0.07124 0.56877 0.0
C4561 C 0.19533 0.08341 0.56049 0.0
C4562 C 0.20204 0.0777 0.52581 0.0
C4563 C 0.20197 0.05996 0.49934 0.0
C4564 C 0.19548 0.10195 0.58939 0.0
C4565 C 0.20137 0.10502 0.63329 0.0
C4566 C 0.18957 0.11608 0.57617 0.0
C4567 C 0.18344 0.1138 0.52834 0.0
C4568 C 0.18608 0.10951 0.47148 0.0
C4569 C 0.18029 0.10741 0.42662 0.0
C4570 C 0.17183 0.10972 0.43794 0.0
C4571 C 0.16915 0.11419 0.49413 0.0
C4572 C 0.17492 0.11627 0.53919 0.0
C4573 C 0.20302 0.18476 0.69063 0.0
C4574 C 0.19676 0.1908 0.72876 0.0
C4575 C 0.20269 0.16675 0.66642 0.0
C4576 C 0.19601 0.15476 0.67906 0.0
C4577 C 0.18977 0.1607 0.7174 0.0
C4578 C 0.1902 0.17858 0.74285 0.0
C4579 C 0.19559 0.13605 0.65156 0.0
C4580 C 0.18967 0.13299 0.60787 0.0
C4581 C 0.20145 0.1219 0.66497 0.0
C4582 C 0.20759 0.12438 0.71254 0.0
C4583 C 0.20494 0.12876 0.76931 0.0
C4584 C 0.21075 0.1316 0.8137 0.0
C4585 C 0.21923 0.12992 0.802 0.0
C4586 C 0.22191 0.12532 0.74591 0.0
C4587 C 0.21613 0.12251 0.7013 0.0
H4588 H 0.22371 0.13214 0.83642 0.0
H4589 H 0.16735 0.10811 0.40314 0.0
H4590 H 0.57645 0.54574 0.69291 0.0
H4591 H 0.57601 0.57736 0.64971 0.0
H4592 H 0.55109 0.58498 0.71431 0.0
H4593 H 0.55161 0.55349 0.75956 0.0
H4594 H 0.55449 0.5922 0.58622 0.0
H4595 H 0.56348 0.60786 0.7803 0.0
H4596 H 0.57235 0.60495 0.86726 0.0
H4597 H 0.59373 0.62036 0.76617 0.0
H4598 H 0.585 0.62298 0.67822 0.0
H4599 H 0.55058 0.6906 0.5224 0.0
H4600 H 0.55028 0.65931 0.56876 0.0
H4601 H 0.57667 0.65365 0.5405 0.0
H4602 H 0.57695 0.68497 0.49484 0.0
H4603 H 0.57216 0.6455 0.65256 0.0
H4604 H 0.56393 0.62913 0.45946 0.0
H4605 H 0.55559 0.63211 0.36992 0.0
H4606 H 0.53355 0.61751 0.46496 0.0
H4607 H 0.54174 0.61478 0.55542 0.0
C4608 C 0.57092 0.55429 0.69836 0.0
C4609 C 0.56408 0.54742 0.72961 0.0
C4610 C 0.57068 0.57224 0.67376 0.0
C4611 C 0.56352 0.58333 0.67906 0.0
C4612 C 0.55666 0.57651 0.71015 0.0
C4613 C 0.55698 0.5587 0.73613 0.0
C4614 C 0.5632 0.60191 0.6508 0.0
C4615 C 0.55823 0.60401 0.60116 0.0
C4616 C 0.56832 0.61692 0.6696 0.0
C4617 C 0.57359 0.61539 0.72246 0.0
C4618 C 0.57008 0.61041 0.77641 0.0
C4619 C 0.57509 0.60885 0.82593 0.0
C4620 C 0.5836 0.61241 0.82221 0.0
C4621 C 0.58713 0.61757 0.76896 0.0
C4622 C 0.58216 0.61909 0.71925 0.0
C4623 C 0.55624 0.68237 0.52499 0.0
C4624 C 0.56376 0.68971 0.50434 0.0
C4625 C 0.55608 0.66466 0.55163 0.0
C4626 C 0.56345 0.65423 0.55772 0.0
C4627 C 0.57093 0.66154 0.53615 0.0
C4628 C 0.57108 0.67922 0.50967 0.0
C4629 C 0.5634 0.63589 0.58797 0.0
C4630 C 0.56836 0.63378 0.63779 0.0
C4631 C 0.55835 0.62079 0.56891 0.0
C4632 C 0.55343 0.62195 0.51436 0.0
C4633 C 0.55729 0.62669 0.46138 0.0
C4634 C 0.5526 0.62832 0.41044 0.0
C4635 C 0.54404 0.62506 0.41178 0.0
C4636 C 0.54018 0.62007 0.46403 0.0
C4637 C 0.54484 0.61847 0.51515 0.0
H4638 H 0.54041 0.62636 0.37231 0.0
H4639 H 0.58746 0.61123 0.86062 0.0
H4640 H 0.30895 0.18548 0.25412 0.0
H4641 H 0.30847 0.15259 0.22265 0.0
H4642 H 0.32366 0.16628 0.07368 0.0
H4643 H 0.3242 0.19929 0.10491 0.0
H4644 H 0.31012 0.14271 0.04849 0.0
H4645 H 0.3326 0.14759 0.18733 0.0
H4646 H 0.33905 0.15553 0.2816 0.0
H4647 H 0.3222 0.11814 0.36932 0.0
H4648 H 0.31556 0.11021 0.27564 0.0
H4649 H 0.3236 0.0505 0.97608 0.0
H4650 H 0.32274 0.08402 0.00093 0.0
H4651 H 0.31011 0.06993 0.16098 0.0
H4652 H 0.31118 0.03653 0.13752 0.0
H4653 H 0.32203 0.09403 0.17974 0.0
H4654 H 0.29958 0.08829 0.04445 0.0
H4655 H 0.29274 0.0799 0.95196 0.0
H4656 H 0.30868 0.1182 0.85977 0.0
H4657 H 0.3157 0.12666 0.95163 0.0
C4658 C 0.31218 0.18147 0.21466 0.0
C4659 C 0.31663 0.19479 0.18193 0.0
C4660 C 0.31188 0.16277 0.19678 0.0
C4661 C 0.3161 0.15721 0.14637 0.0
C4662 C 0.32037 0.17051 0.11272 0.0
C4663 C 0.32067 0.18926 0.13054 0.0
C4664 C 0.31629 0.1373 0.13006 0.0
C4665 C 0.3128 0.13201 0.07663 0.0
C4666 C 0.31958 0.12354 0.16806 0.0
C4667 C 0.32353 0.12846 0.22451 0.0
C4668 C 0.33022 0.14121 0.22678 0.0
C4669 C 0.33392 0.14568 0.2801 0.0
C4670 C 0.33103 0.13738 0.33143 0.0
C4671 C 0.32443 0.12458 0.32954 0.0
C4672 C 0.32069 0.12009 0.27635 0.0
C4673 C 0.32067 0.05461 0.01659 0.0
C4674 C 0.31748 0.04102 0.05502 0.0
C4675 C 0.32012 0.07368 0.03042 0.0
C4676 C 0.31625 0.0793 0.08222 0.0
C4677 C 0.3131 0.06575 0.12073 0.0
C4678 C 0.31376 0.04672 0.1074 0.0
C4679 C 0.31585 0.09929 0.09802 0.0
C4680 C 0.31931 0.10465 0.15146 0.0
C4681 C 0.31244 0.11303 0.06028 0.0
C4682 C 0.30823 0.10795 0.00489 0.0
C4683 C 0.30168 0.0948 0.0044 0.0
C4684 C 0.29776 0.09006 0.95209 0.0
C4685 C 0.30029 0.09847 0.9 0.0
C4686 C 0.30674 0.11169 0.90014 0.0
C4687 C 0.31069 0.11647 0.95233 0.0
H4688 H 0.29725 0.09478 0.85955 0.0
H4689 H 0.33391 0.14083 0.37265 0.0
H4690 H 0.93465 0.19808 0.13131 0.0
H4691 H 0.93536 0.16514 0.1626 0.0
H4692 H 0.95242 0.1529 0.02264 0.0
H4693 H 0.95177 0.18572 0.99105 0.0
H4694 H 0.93896 0.12946 0.02547 0.0
H4695 H 0.95955 0.15362 0.15496 0.0
H4696 H 0.96523 0.17544 0.22852 0.0
H4697 H 0.94666 0.15756 0.35076 0.0
H4698 H 0.94077 0.13585 0.27756 0.0
H4699 H 0.94989 0.03696 0.1072 0.0
H4700 H 0.94992 0.07024 0.08135 0.0
H4701 H 0.93364 0.08231 0.22591 0.0
H4702 H 0.9337 0.04891 0.25292 0.0
H4703 H 0.94687 0.10605 0.22146 0.0
H4704 H 0.92631 0.08182 0.08753 0.0
H4705 H 0.9211 0.06012 0.01185 0.0
H4706 H 0.94036 0.07839 0.89555 0.0
H4707 H 0.94576 0.1 0.97083 0.0
C4708 C 0.93862 0.1884 0.10767 0.0
C4709 C 0.94311 0.19431 0.05861 0.0
C4710 C 0.93904 0.16969 0.12568 0.0
C4711 C 0.94397 0.15684 0.09483 0.0
C4712 C 0.94859 0.16278 0.04665 0.0
C4713 C 0.94817 0.18143 0.02863 0.0
C4714 C 0.94379 0.13684 0.10999 0.0
C4715 C 0.94079 0.12424 0.06802 0.0
C4716 C 0.94604 0.13041 0.16593 0.0
C4717 C 0.94966 0.14323 0.21049 0.0
C4718 C 0.95663 0.15444 0.19735 0.0
C4719 C 0.95989 0.16678 0.23902 0.0
C4720 C 0.95629 0.16793 0.29422 0.0
C4721 C 0.94944 0.15668 0.30794 0.0
C4722 C 0.94614 0.14433 0.26638 0.0
C4723 C 0.94622 0.04661 0.13304 0.0
C4724 C 0.9418 0.04038 0.18204 0.0
C4725 C 0.94625 0.0656 0.11824 0.0
C4726 C 0.94173 0.07855 0.1516 0.0
C4727 C 0.93717 0.07239 0.19991 0.0
C4728 C 0.93721 0.05338 0.21511 0.0
C4729 C 0.94199 0.09865 0.13694 0.0
C4730 C 0.94502 0.11128 0.17898 0.0
C4731 C 0.93984 0.10513 0.08079 0.0
C4732 C 0.93648 0.0924 0.03506 0.0
C4733 C 0.92947 0.08112 0.04595 0.0
C4734 C 0.92648 0.06885 0.0031 0.0
C4735 C 0.93042 0.06783 0.94899 0.0
C4736 C 0.93733 0.07916 0.9375 0.0
C4737 C 0.94035 0.09145 0.98023 0.0
H4738 H 0.9281 0.05828 0.91592 0.0
H4739 H 0.95882 0.17751 0.3264 0.0
H4740 H 0.68694 0.93747 0.01559 0.0
H4741 H 0.68691 0.90379 0.99141 0.0
H4742 H 0.69842 0.91629 0.82594 0.0
H4743 H 0.6981 0.94974 0.84882 0.0
H4744 H 0.68645 0.8928 0.81127 0.0
H4745 H 0.70947 0.8981 0.94189 0.0
H4746 H 0.71667 0.90673 0.03283 0.0
H4747 H 0.7008 0.8694 0.12941 0.0
H4748 H 0.69342 0.86076 0.03913 0.0
H4749 H 0.70001 0.80181 0.73582 0.0
H4750 H 0.70015 0.83466 0.76721 0.0
H4751 H 0.68521 0.82021 0.91669 0.0
H4752 H 0.68506 0.78715 0.88587 0.0
H4753 H 0.69868 0.84416 0.94116 0.0
H4754 H 0.67609 0.83884 0.80219 0.0
H4755 H 0.66988 0.83066 0.70731 0.0
H4756 H 0.68659 0.86879 0.62124 0.0
H4757 H 0.693 0.87696 0.71551 0.0
C4758 C 0.68944 0.93293 0.9741 0.0
C4759 C 0.6925 0.94607 0.93381 0.0
C4760 C 0.68946 0.91378 0.96053 0.0
C4761 C 0.69276 0.90766 0.90728 0.0
C4762 C 0.69583 0.92081 0.86718 0.0
C4763 C 0.69563 0.93991 0.8802 0.0
C4764 C 0.69285 0.88757 0.89224 0.0
C4765 C 0.68921 0.88219 0.83936 0.0
C4766 C 0.69636 0.87383 0.92948 0.0
C4767 C 0.70083 0.87893 0.98381 0.0
C4768 C 0.70747 0.89184 0.98258 0.0
C4769 C 0.71159 0.89672 0.034 0.0
C4770 C 0.70918 0.88866 0.08689 0.0
C4771 C 0.70266 0.87566 0.08842 0.0
C4772 C 0.6985 0.87075 0.03714 0.0
C4773 C 0.69674 0.80561 0.77533 0.0
C4774 C 0.69246 0.79203 0.80826 0.0
C4775 C 0.69685 0.82431 0.79313 0.0
C4776 C 0.69261 0.82967 0.84365 0.0
C4777 C 0.68849 0.81615 0.87745 0.0
C4778 C 0.6884 0.79737 0.85975 0.0
C4779 C 0.69232 0.84955 0.86031 0.0
C4780 C 0.69591 0.85485 0.91337 0.0
C4781 C 0.68894 0.8633 0.82263 0.0
C4782 C 0.68507 0.85839 0.76591 0.0
C4783 C 0.67849 0.84536 0.763 0.0
C4784 C 0.67493 0.84074 0.70932 0.0
C4785 C 0.67785 0.84917 0.65827 0.0
C4786 C 0.68434 0.86225 0.6608 0.0
C4787 C 0.68793 0.86689 0.71434 0.0
H4788 H 0.67508 0.8456 0.61677 0.0
H4789 H 0.71238 0.89246 0.12665 0.0
H4790 H 0.06431 0.95148 0.89881 0.0
H4791 H 0.06407 0.91808 0.92344 0.0
H4792 H 0.07048 0.9039 0.74608 0.0
H4793 H 0.07026 0.93747 0.72036 0.0
H4794 H 0.05841 0.88221 0.7838 0.0
H4795 H 0.0849 0.90186 0.85821 0.0
H4796 H 0.09447 0.92207 0.91435 0.0
H4797 H 0.08171 0.90769 0.07239 0.0
H4798 H 0.07199 0.88762 0.0171 0.0
H4799 H 0.07045 0.78779 0.85223 0.0
H4800 H 0.07002 0.82064 0.82059 0.0
H4801 H 0.06019 0.83711 0.98785 0.0
H4802 H 0.0606 0.80427 0.02019 0.0
H4803 H 0.0742 0.8571 0.95246 0.0
H4804 H 0.04818 0.83549 0.87549 0.0
H4805 H 0.03956 0.81363 0.8182 0.0
H4806 H 0.05178 0.83133 0.66143 0.0
H4807 H 0.06081 0.85263 0.71812 0.0
C4808 C 0.06573 0.94124 0.86522 0.0
C4809 C 0.06731 0.94688 0.80781 0.0
C4810 C 0.06562 0.92221 0.87934 0.0
C4811 C 0.06739 0.90865 0.83669 0.0
C4812 C 0.0691 0.91426 0.77943 0.0
C4813 C 0.06901 0.93333 0.76491 0.0
C4814 C 0.06721 0.88857 0.85189 0.0
C4815 C 0.06195 0.8766 0.82004 0.0
C4816 C 0.07173 0.88153 0.89995 0.0
C4817 C 0.07768 0.89334 0.93342 0.0
C4818 C 0.08411 0.90309 0.90489 0.0
C4819 C 0.08956 0.91451 0.93657 0.0
C4820 C 0.08869 0.91619 -0.00312 0.0
C4821 C 0.08238 0.90639 0.02567 0.0
C4822 C 0.0769 0.89497 -0.0058 0.0
C4823 C 0.06815 0.79838 0.88218 0.0
C4824 C 0.06562 0.79359 0.93882 0.0
C4825 C 0.06787 0.81705 0.86391 0.0
C4826 C 0.06505 0.83104 0.90204 0.0
C4827 C 0.06238 0.82631 0.95815 0.0
C4828 C 0.06262 0.80763 0.97642 0.0
C4829 C 0.06538 0.85084 0.88464 0.0
C4830 C 0.07068 0.86272 0.91607 0.0
C4831 C 0.06096 0.85769 0.83589 0.0
C4832 C 0.05529 0.84546 0.80135 0.0
C4833 C 0.04912 0.83458 0.8289 0.0
C4834 C 0.04417 0.82224 0.79647 0.0
C4835 C 0.04518 0.82097 0.73619 0.0
C4836 C 0.05108 0.8322 0.70818 0.0
C4837 C 0.05614 0.84436 0.74048 0.0
H4838 H 0.04141 0.81132 0.71104 0.0
H4839 H 0.09291 0.92507 0.02131 0.0
H4840 H 0.32859 0.69023 0.7032 0.0
H4841 H 0.32892 0.6571 0.67199 0.0
H4842 H 0.30282 0.66005 0.62936 0.0
H4843 H 0.30244 0.69296 0.66292 0.0
H4844 H 0.30625 0.6305 0.69599 0.0
H4845 H 0.31796 0.6588 0.52484 0.0
H4846 H 0.32781 0.67891 0.47114 0.0
H4847 H 0.34807 0.64404 0.5279 0.0
H4848 H 0.33836 0.62399 0.58328 0.0
H4849 H 0.30332 0.54618 0.52613 0.0
H4850 H 0.30353 0.57911 0.5594 0.0
H4851 H 0.32759 0.57013 0.63737 0.0
H4852 H 0.32728 0.537 0.6059 0.0
H4853 H 0.32572 0.60229 0.55309 0.0
H4854 H 0.31454 0.5752 0.72614 0.0
H4855 H 0.30515 0.5564 0.78793 0.0
H4856 H 0.28442 0.58978 0.73104 0.0
H4857 H 0.29364 0.60843 0.66756 0.0
C4858 C 0.32295 0.68365 0.68718 0.0
C4859 C 0.31546 0.69363 0.68618 0.0
C4860 C 0.32316 0.66492 0.66885 0.0
C4861 C 0.31591 0.65627 0.64803 0.0
C4862 C 0.30846 0.66654 0.64556 0.0
C4863 C 0.30823 0.68515 0.66491 0.0
C4864 C 0.31591 0.63606 0.6334 0.0
C4865 C 0.3104 0.62438 0.66393 0.0
C4866 C 0.32158 0.62814 0.59319 0.0
C4867 C 0.32742 0.63997 0.55874 0.0
C4868 C 0.32452 0.65548 0.52627 0.0
C4869 C 0.33008 0.66687 0.49545 0.0
C4870 C 0.33857 0.66276 0.49606 0.0
C4871 C 0.3415 0.64722 0.52746 0.0
C4872 C 0.33596 0.63584 0.55861 0.0
C4873 C 0.30856 0.55121 0.5514 0.0
C4874 C 0.31526 0.53928 0.56383 0.0
C4875 C 0.30869 0.5699 0.5701 0.0
C4876 C 0.3156 0.57687 0.60023 0.0
C4877 C 0.32223 0.56485 0.61394 0.0
C4878 C 0.32201 0.54602 0.59648 0.0
C4879 C 0.31599 0.59695 0.61527 0.0
C4880 C 0.32156 0.60854 0.58485 0.0
C4881 C 0.31041 0.60486 0.6557 0.0
C4882 C 0.30477 0.59306 0.69151 0.0
C4883 C 0.30795 0.5783 0.72591 0.0
C4884 C 0.30267 0.56771 0.76141 0.0
C4885 C 0.2942 0.57188 0.76339 0.0
C4886 C 0.29098 0.58653 0.7294 0.0
C4887 C 0.29623 0.59709 0.69355 0.0
H4888 H 0.29015 0.5638 0.79153 0.0
H4889 H 0.34286 0.67159 0.47216 0.0
H4890 H 0.94458 0.6966 0.64167 0.0
H4891 H 0.94475 0.66313 0.66708 0.0
H4892 H 0.93835 0.64863 0.49025 0.0
H4893 H 0.93821 0.68201 0.46405 0.0
H4894 H 0.92933 0.62896 0.57749 0.0
H4895 H 0.9574 0.64468 0.52409 0.0
H4896 H 0.97019 0.66372 0.52931 0.0
H4897 H 0.9729 0.64972 0.71021 0.0
H4898 H 0.96003 0.6308 0.7063 0.0
H4899 H 0.93794 0.53139 0.59864 0.0
H4900 H 0.93805 0.56401 0.56392 0.0
H4901 H 0.94911 0.582 0.72606 0.0
H4902 H 0.94951 0.54944 0.75939 0.0
H4903 H 0.95589 0.60004 0.64134 0.0
H4904 H 0.92774 0.58536 0.69783 0.0
H4905 H 0.91432 0.56857 0.69668 0.0
H4906 H 0.91129 0.58169 0.51537 0.0
H4907 H 0.92475 0.59836 0.51528 0.0
C4908 C 0.9432 0.68632 0.60817 0.0
C4909 C 0.94152 0.69191 0.55062 0.0
C4910 C 0.94329 0.66726 0.62281 0.0
C4911 C 0.94167 0.65362 0.58016 0.0
C4912 C 0.93964 0.65911 0.52344 0.0
C4913 C 0.93958 0.67815 0.50865 0.0
C4914 C 0.94231 0.63352 0.59431 0.0
C4915 C 0.93513 0.62247 0.59077 0.0
C4916 C 0.94988 0.62545 0.61265 0.0
C4917 C 0.9577 0.63652 0.61504 0.0
C4918 C 0.96068 0.64578 0.5651 0.0
C4919 C 0.96795 0.65653 0.5678 0.0
C4920 C 0.97232 0.65801 0.62009 0.0
C4921 C 0.96949 0.64861 0.66976 0.0
C4922 C 0.96221 0.63786 0.66733 0.0
C4923 C 0.94059 0.54224 0.62618 0.0
C4924 C 0.94374 0.5379 0.68164 0.0
C4925 C 0.94054 0.56087 0.60668 0.0
C4926 C 0.94344 0.57539 0.64299 0.0
C4927 C 0.94682 0.57098 0.6975 0.0
C4928 C 0.94701 0.55238 0.71653 0.0
C4929 C 0.94285 0.59528 0.62516 0.0
C4930 C 0.95006 0.60638 0.62791 0.0
C4931 C 0.93526 0.60344 0.60672 0.0
C4932 C 0.9273 0.59289 0.60638 0.0
C4933 C 0.92426 0.58447 0.65756 0.0
C4934 C 0.91663 0.57503 0.65717 0.0
C4935 C 0.91197 0.57401 0.60595 0.0
C4936 C 0.91492 0.58244 0.55499 0.0
C4937 C 0.92254 0.59188 0.55513 0.0
H4938 H 0.90605 0.56675 0.60579 0.0
H4939 H 0.9779 0.66646 0.62189 0.0
H4940 H 0.685 0.45378 0.37406 0.0
H4941 H 0.68429 0.42087 0.34052 0.0
H4942 H 0.70468 0.40646 0.45407 0.0
H4943 H 0.70531 0.43913 0.48841 0.0
H4944 H 0.70603 0.39158 0.34198 0.0
H4945 H 0.68641 0.39719 0.49787 0.0
H4946 H 0.67422 0.40852 0.55243 0.0
H4947 H 0.65819 0.39096 0.41315 0.0
H4948 H 0.67031 0.3799 0.35711 0.0
H4949 H 0.70332 0.29212 0.3613 0.0
H4950 H 0.70357 0.32574 0.38692 0.0
H4951 H 0.68222 0.3353 0.2768 0.0
H4952 H 0.68193 0.30154 0.25186 0.0
H4953 H 0.68102 0.35291 0.3832 0.0
H4954 H 0.70109 0.34637 0.2289 0.0
H4955 H 0.71343 0.33292 0.18069 0.0
H4956 H 0.72873 0.35082 0.32353 0.0
H4957 H 0.71647 0.3641 0.37306 0.0
C4958 C 0.68943 0.44364 0.39078 0.0
C4959 C 0.69524 0.44885 0.43353 0.0
C4960 C 0.68896 0.42489 0.37217 0.0
C4961 C 0.69437 0.41135 0.39553 0.0
C4962 C 0.70044 0.41678 0.4359 0.0
C4963 C 0.70082 0.43537 0.45521 0.0
C4964 C 0.69373 0.39138 0.37862 0.0
C4965 C 0.70058 0.38308 0.35117 0.0
C4966 C 0.68655 0.3805 0.39027 0.0
C4967 C 0.6793 0.38807 0.4227 0.0
C4968 C 0.68031 0.39609 0.47829 0.0
C4969 C 0.6734 0.40238 0.50965 0.0
C4970 C 0.66544 0.40056 0.48615 0.0
C4971 C 0.66436 0.39246 0.43119 0.0
C4972 C 0.67125 0.38622 0.39957 0.0
C4973 C 0.69864 0.30145 0.34335 0.0
C4974 C 0.69257 0.2946 0.30519 0.0
C4975 C 0.69882 0.32056 0.35749 0.0
C4976 C 0.69296 0.33291 0.33314 0.0
C4977 C 0.6868 0.32591 0.29573 0.0
C4978 C 0.68664 0.3068 0.28145 0.0
C4979 C 0.6933 0.35319 0.34634 0.0
C4980 C 0.68641 0.36152 0.37329 0.0
C4981 C 0.70046 0.36408 0.3347 0.0
C4982 C 0.70784 0.35609 0.3049 0.0
C4983 C 0.70708 0.3473 0.25026 0.0
C4984 C 0.71406 0.33972 0.22266 0.0
C4985 C 0.72186 0.34098 0.24908 0.0
C4986 C 0.72269 0.34984 0.30314 0.0
C4987 C 0.71572 0.3574 0.33097 0.0
H4988 H 0.72725 0.33513 0.22762 0.0
H4989 H 0.66009 0.40535 0.51063 0.0
H4990 H 0.06505 0.30355 0.52181 0.0
H4991 H 0.06552 0.33649 0.49332 0.0
H4992 H 0.06572 0.32022 0.31208 0.0
H4993 H 0.0661 0.28708 0.34057 0.0
H4994 H 0.07605 0.34671 0.32659 0.0
H4995 H 0.04782 0.33823 0.38571 0.0
H4996 H 0.03649 0.32833 0.45114 0.0
H4997 H 0.04492 0.36757 0.5809 0.0
H4998 H 0.05638 0.37751 0.51661 0.0
H4999 H 0.06319 0.43682 0.22288 0.0
H5000 H 0.06361 0.40362 0.2506 0.0
H5001 H 0.07109 0.41911 0.42452 0.0
H5002 H 0.07093 0.4525 0.39689 0.0
H5003 H 0.05672 0.39359 0.41272 0.0
H5004 H 0.08503 0.40168 0.34816 0.0
H5005 H 0.09579 0.41156 0.27817 0.0
H5006 H 0.08608 0.37283 0.1514 0.0
H5007 H 0.07517 0.36294 0.22034 0.0
C5008 C 0.06516 0.30691 0.47581 0.0
C5009 C 0.06535 0.29265 0.43326 0.0
C5010 C 0.06536 0.3258 0.45961 0.0
C5011 C 0.0654 0.3308 0.40059 0.0
C5012 C 0.06559 0.31663 0.35794 0.0
C5013 C 0.06568 0.29769 0.3742 0.0
C5014 C 0.06556 0.35086 0.38367 0.0
C5015 C 0.07173 0.35688 0.34474 0.0
C5016 C 0.06001 0.36417 0.40821 0.0
C5017 C 0.053 0.35852 0.44646 0.0
C5018 C 0.04728 0.34469 0.42829 0.0
C5019 C 0.04084 0.33907 0.46519 0.0
C5020 C 0.04 0.34729 0.52018 0.0
C5021 C 0.04558 0.36121 0.5383 0.0
C5022 C 0.05205 0.36686 0.50162 0.0
C5023 C 0.06497 0.43321 0.26699 0.0
C5024 C 0.0669 0.44725 0.30807 0.0
C5025 C 0.06522 0.41427 0.28257 0.0
C5026 C 0.06736 0.40914 0.33942 0.0
C5027 C 0.0694 0.42301 0.38046 0.0
C5028 C 0.06927 0.442 0.36466 0.0
C5029 C 0.06719 0.38921 0.35616 0.0
C5030 C 0.061 0.38329 0.39477 0.0
C5031 C 0.0726 0.37596 0.33048 0.0
C5032 C 0.07923 0.3817 0.28925 0.0
C5033 C 0.08515 0.39538 0.3052 0.0
C5034 C 0.09128 0.40097 0.26574 0.0
C5035 C 0.09161 0.39286 0.21032 0.0
C5036 C 0.08581 0.37911 0.19432 0.0
C5037 C 0.07966 0.3735 0.23359 0.0
H5038 H 0.09636 0.39721 0.17982 0.0
H5039 H 0.03501 0.34289 0.54872 0.0
H5040 H 0.8262 0.05047 0.49987 0.0
H5041 H 0.82619 0.084 0.52762 0.0
H5042 H 0.80682 0.07308 0.65296 0.0
H5043 H 0.80703 0.03946 0.62672 0.0
H5044 H 0.80386 0.10363 0.56943 0.0
H5045 H 0.82339 0.08141 0.70926 0.0
H5046 H 0.83566 0.06341 0.74124 0.0
H5047 H 0.85135 0.09839 0.63537 0.0
H5048 H 0.83913 0.11644 0.60194 0.0
H5049 H 0.8045 0.18917 0.73157 0.0
H5050 H 0.80446 0.15653 0.69651 0.0
H5051 H 0.82507 0.16914 0.58303 0.0
H5052 H 0.82507 0.20197 0.61788 0.0
H5053 H 0.8276 0.13762 0.6591 0.0
H5054 H 0.80736 0.16039 0.5219 0.0
H5055 H 0.79467 0.17735 0.4924 0.0
H5056 H 0.77993 0.14037 0.59864 0.0
H5057 H 0.79256 0.12336 0.62947 0.0
C5058 C 0.82201 0.05532 0.53357 0.0
C5059 C 0.81661 0.04268 0.56133 0.0
C5060 C 0.82202 0.07431 0.54944 0.0
C5061 C 0.8165 0.08083 0.59214 0.0
C5062 C 0.81112 0.06817 0.61998 0.0
C5063 C 0.81126 0.04909 0.60521 0.0
C5064 C 0.81612 0.10107 0.60587 0.0
C5065 C 0.809 0.11109 0.58962 0.0
C5066 C 0.82291 0.11059 0.63132 0.0
C5067 C 0.83033 0.10016 0.65256 0.0
C5068 C 0.82945 0.08519 0.69242 0.0
C5069 C 0.83639 0.07499 0.71088 0.0
C5070 C 0.84428 0.07971 0.6902 0.0
C5071 C 0.84523 0.09473 0.65128 0.0
C5072 C 0.8383 0.10498 0.6326 0.0
C5073 C 0.80882 0.18509 0.69764 0.0
C5074 C 0.81468 0.19801 0.67649 0.0
C5075 C 0.80883 0.16648 0.67798 0.0
C5076 C 0.81478 0.1605 0.63741 0.0
C5077 C 0.82044 0.17357 0.61439 0.0
C5078 C 0.82036 0.19231 0.6336 0.0
C5079 C 0.81534 0.14031 0.62217 0.0
C5080 C 0.82249 0.13024 0.63846 0.0
C5081 C 0.80852 0.13065 0.59733 0.0
C5082 C 0.80091 0.1407 0.57834 0.0
C5083 C 0.80142 0.15596 0.53929 0.0
C5084 C 0.79424 0.16557 0.52227 0.0
C5085 C 0.7865 0.15997 0.54372 0.0
C5086 C 0.78593 0.1447 0.58209 0.0
C5087 C 0.7931 0.13506 0.5993 0.0
H5088 H 0.78095 0.16743 0.53053 0.0
H5089 H 0.84965 0.07177 0.70443 0.0
H5090 H 0.43851 0.1997 0.64529 0.0
H5091 H 0.43899 0.16651 0.67456 0.0
H5092 H 0.44879 0.15142 0.50601 0.0
H5093 H 0.44832 0.18438 0.47614 0.0
H5094 H 0.43501 0.13087 0.53852 0.0
H5095 H 0.46122 0.15048 0.61647 0.0
H5096 H 0.47052 0.17076 0.67443 0.0
H5097 H 0.45757 0.15513 0.8305 0.0
H5098 H 0.44808 0.13501 0.77332 0.0
H5099 H 0.44429 0.03559 0.58922 0.0
H5100 H 0.44485 0.06897 0.56489 0.0
H5101 H 0.43868 0.08322 0.74262 0.0
H5102 H 0.43877 0.04967 0.76817 0.0
H5103 H 0.45066 0.10465 0.70617 0.0
H5104 H 0.4242 0.08521 0.62567 0.0
H5105 H 0.4151 0.06504 0.56568 0.0
H5106 H 0.42875 0.08054 0.41241 0.0
H5107 H 0.438 0.10062 0.47158 0.0
C5108 C 0.4408 0.18931 0.61461 0.0
C5109 C 0.4433 0.19453 0.5583 0.0
C5110 C 0.44111 0.17046 0.63149 0.0
C5111 C 0.44394 0.15676 0.59226 0.0
C5112 C 0.44659 0.16195 0.53656 0.0
C5113 C 0.4463 0.18074 0.51969 0.0
C5114 C 0.44364 0.13677 0.60784 0.0
C5115 C 0.43849 0.12502 0.57478 0.0
C5116 C 0.44808 0.12953 0.65584 0.0
C5117 C 0.45387 0.14139 0.69048 0.0
C5118 C 0.4603 0.15149 0.66308 0.0
C5119 C 0.46562 0.16294 0.69581 0.0
C5120 C 0.46462 0.16428 0.75608 0.0
C5121 C 0.45833 0.15411 0.78379 0.0
C5122 C 0.45298 0.14267 0.75124 0.0
C5123 C 0.44306 0.04583 0.62303 0.0
C5124 C 0.44157 0.04018 0.68055 0.0
C5125 C 0.44331 0.06488 0.60903 0.0
C5126 C 0.44167 0.07849 0.65182 0.0
C5127 C 0.43997 0.07286 0.7091 0.0
C5128 C 0.43999 0.05378 0.72354 0.0
C5129 C 0.44196 0.09865 0.63705 0.0
C5130 C 0.44713 0.11047 0.67015 0.0
C5131 C 0.43754 0.10601 0.58892 0.0
C5132 C 0.43183 0.09432 0.55314 0.0
C5133 C 0.42528 0.08427 0.57921 0.0
C5134 C 0.42009 0.07285 0.54534 0.0
C5135 C 0.42136 0.07148 0.4853 0.0
C5136 C 0.42778 0.0816 0.45893 0.0
C5137 C 0.43299 0.09303 0.49259 0.0
H5138 H 0.41735 0.0626 0.45919 0.0
H5139 H 0.46874 0.17317 0.78134 0.0
H5140 H 0.20664 0.94644 0.44065 0.0
H5141 H 0.2068 0.91338 0.40778 0.0
H5142 H 0.18055 0.91651 0.37126 0.0
H5143 H 0.18045 0.94966 0.4027 0.0
H5144 H 0.18582 0.88648 0.4501 0.0
H5145 H 0.19172 0.9117 0.25885 0.0
H5146 H 0.19929 0.93099 0.18687 0.0
H5147 H 0.22203 0.90285 0.23116 0.0
H5148 H 0.21459 0.88322 0.303 0.0
H5149 H 0.18046 0.79588 0.32249 0.0
H5150 H 0.18044 0.82942 0.34877 0.0
H5151 H 0.20726 0.82994 0.34246 0.0
H5152 H 0.2072 0.79664 0.31293 0.0
H5153 H 0.20159 0.85857 0.28581 0.0
H5154 H 0.1959 0.83208 0.47343 0.0
H5155 H 0.18847 0.81158 0.54287 0.0
H5156 H 0.16584 0.84186 0.51029 0.0
H5157 H 0.1731 0.86237 0.43995 0.0
C5158 C 0.20099 0.94015 0.42386 0.0
C5159 C 0.19356 0.9504 0.4233 0.0
C5160 C 0.20107 0.92135 0.40543 0.0
C5161 C 0.19368 0.9126 0.38748 0.0
C5162 C 0.1863 0.92309 0.38501 0.0
C5163 C 0.18626 0.94197 0.40241 0.0
C5164 C 0.19354 0.89215 0.37553 0.0
C5165 C 0.18917 0.88031 0.41379 0.0
C5166 C 0.19812 0.88423 0.32928 0.0
C5167 C 0.20262 0.89615 0.28669 0.0
C5168 C 0.19835 0.90975 0.25359 0.0
C5169 C 0.20261 0.92071 0.21275 0.0
C5170 C 0.21115 0.91828 0.20485 0.0
C5171 C 0.21543 0.90476 0.23745 0.0
C5172 C 0.21119 0.89366 0.27806 0.0
C5173 C 0.18633 0.8032 0.32756 0.0
C5174 C 0.19384 0.79395 0.31599 0.0
C5175 C 0.18633 0.82228 0.34275 0.0
C5176 C 0.19386 0.83216 0.34818 0.0
C5177 C 0.20138 0.82262 0.33831 0.0
C5178 C 0.20136 0.80367 0.32174 0.0
C5179 C 0.19389 0.85268 0.36052 0.0
C5180 C 0.19825 0.8646 0.32236 0.0
C5181 C 0.18937 0.86061 0.40736 0.0
C5182 C 0.18504 0.84868 0.45103 0.0
C5183 C 0.18933 0.83432 0.48088 0.0
C5184 C 0.18515 0.8227 0.5204 0.0
C5185 C 0.17669 0.82539 0.53089 0.0
C5186 C 0.1724 0.83978 0.50209 0.0
C5187 C 0.17654 0.85143 0.46244 0.0
H5188 H 0.17346 0.81635 0.56139 0.0
H5189 H 0.21443 0.92681 0.17325 0.0
H5190 H 0.55412 0.79638 0.46086 0.0
H5191 H 0.55384 0.82964 0.43069 0.0
H5192 H 0.57851 0.82397 0.35961 0.0
H5193 H 0.57869 0.7905 0.38784 0.0
H5194 H 0.57512 0.85521 0.44745 0.0
H5195 H 0.56535 0.82737 0.26739 0.0
H5196 H 0.55604 0.80697 0.20979 0.0
H5197 H 0.53502 0.8397 0.26489 0.0
H5198 H 0.54418 0.86006 0.3238 0.0
H5199 H 0.57934 0.94409 0.30945 0.0
H5200 H 0.57931 0.91075 0.33822 0.0
H5201 H 0.55259 0.91232 0.35386 0.0
H5202 H 0.55263 0.94546 0.32237 0.0
H5203 H 0.55694 0.88269 0.29494 0.0
H5204 H 0.56535 0.90918 0.47673 0.0
H5205 H 0.57356 0.92916 0.5432 0.0
H5206 H 0.59578 0.89969 0.49398 0.0
H5207 H 0.58769 0.8795 0.42722 0.0
C5208 C 0.55942 0.80224 0.43816 0.0
C5209 C 0.56643 0.79109 0.42662 0.0
C5210 C 0.55926 0.82112 0.421 0.0
C5211 C 0.56617 0.82911 0.39332 0.0
C5212 C 0.57313 0.81793 0.38099 0.0
C5213 C 0.57321 0.7989 0.3968 0.0
C5214 C 0.56624 0.8494 0.37969 0.0
C5215 C 0.57126 0.86128 0.41354 0.0
C5216 C 0.56093 0.85715 0.33705 0.0
C5217 C 0.55544 0.8451 0.30065 0.0
C5218 C 0.55873 0.83011 0.26771 0.0
C5219 C 0.55348 0.81857 0.23473 0.0
C5220 C 0.54494 0.82199 0.23392 0.0
C5221 C 0.54164 0.83704 0.26572 0.0
C5222 C 0.54685 0.84858 0.29889 0.0
C5223 C 0.57349 0.93725 0.31965 0.0
C5224 C 0.56598 0.94701 0.31377 0.0
C5225 C 0.57347 0.91831 0.33635 0.0
C5226 C 0.56595 0.9091 0.34867 0.0
C5227 C 0.55845 0.91914 0.34429 0.0
C5228 C 0.55847 0.93797 0.3265 0.0
C5229 C 0.56587 0.88871 0.36255 0.0
C5230 C 0.56083 0.87674 0.32886 0.0
C5231 C 0.57103 0.88092 0.40625 0.0
C5232 C 0.57592 0.89295 0.44656 0.0
C5233 C 0.57199 0.90704 0.47981 0.0
C5234 C 0.57663 0.91839 0.5176 0.0
C5235 C 0.5852 0.91578 0.52255 0.0
C5236 C 0.58914 0.90172 0.49002 0.0
C5237 C 0.58453 0.89027 0.45235 0.0
H5238 H 0.58878 0.92461 0.55172 0.0
H5239 H 0.54087 0.813 0.20865 0.0
H5240 H 0.8285 0.69092 0.20112 0.0
H5241 H 0.82844 0.65777 0.17026 0.0
H5242 H 0.80268 0.66295 0.12004 0.0
H5243 H 0.80276 0.69614 0.15168 0.0
H5244 H 0.80562 0.6324 0.18965 0.0
H5245 H 0.81736 0.66068 0.02022 0.0
H5246 H 0.82712 0.68098 0.96645 0.0
H5247 H 0.84748 0.64596 0.02031 0.0
H5248 H 0.83789 0.62586 0.07648 0.0
H5249 H 0.8041 0.54695 0.02207 0.0
H5250 H 0.80375 0.57989 0.05455 0.0
H5251 H 0.82767 0.57285 0.13643 0.0
H5252 H 0.82793 0.53962 0.10557 0.0
H5253 H 0.82551 0.60412 0.04959 0.0
H5254 H 0.81411 0.57813 0.22576 0.0
H5255 H 0.80457 0.55871 0.28462 0.0
H5256 H 0.78372 0.58924 0.21592 0.0
H5257 H 0.79315 0.60881 0.15642 0.0
C5258 C 0.82289 0.68491 0.18283 0.0
C5259 C 0.81563 0.69567 0.17842 0.0
C5260 C 0.82285 0.66613 0.16516 0.0
C5261 C 0.81557 0.65807 0.14269 0.0
C5262 C 0.80835 0.66902 0.13732 0.0
C5263 C 0.80839 0.68784 0.15508 0.0
C5264 C 0.81541 0.63791 0.12789 0.0
C5265 C 0.80987 0.62624 0.15831 0.0
C5266 C 0.82113 0.62998 0.0881 0.0
C5267 C 0.8269 0.64184 0.05319 0.0
C5268 C 0.82393 0.65739 0.02114 0.0
C5269 C 0.82944 0.66887 0.99016 0.0
C5270 C 0.83792 0.66475 0.98987 0.0
C5271 C 0.84091 0.64914 0.02061 0.0
C5272 C 0.83544 0.63773 0.05217 0.0
C5273 C 0.80925 0.55245 0.04728 0.0
C5274 C 0.81608 0.54102 0.06096 0.0
C5275 C 0.80902 0.57112 0.06603 0.0
C5276 C 0.81569 0.57858 0.09762 0.0
C5277 C 0.82248 0.56714 0.11211 0.0
C5278 C 0.82262 0.5483 0.09457 0.0
C5279 C 0.81578 0.59874 0.11167 0.0
C5280 C 0.82127 0.61038 0.08083 0.0
C5281 C 0.81003 0.60665 0.15095 0.0
C5282 C 0.80433 0.59476 0.18606 0.0
C5283 C 0.80749 0.58056 0.22269 0.0
C5284 C 0.80211 0.56956 0.25632 0.0
C5285 C 0.79355 0.57266 0.25375 0.0
C5286 C 0.79035 0.58682 0.21775 0.0
C5287 C 0.79572 0.5979 0.18416 0.0
H5288 H 0.78939 0.56413 0.27981 0.0
H5289 H 0.84217 0.67365 0.96581 0.0
H5290 H 0.44897 0.54004 0.1039 0.0
H5291 H 0.44921 0.57358 0.07994 0.0
H5292 H 0.43634 0.58627 0.23988 0.0
H5293 H 0.43611 0.55264 0.26462 0.0
H5294 H 0.43015 0.60466 0.13631 0.0
H5295 H 0.45592 0.59325 0.23937 0.0
H5296 H 0.46919 0.57682 0.25678 0.0
H5297 H 0.47762 0.59237 0.08607 0.0
H5298 H 0.46435 0.60866 0.06728 0.0
H5299 H 0.43589 0.70324 0.12882 0.0
H5300 H 0.43619 0.67063 0.16422 0.0
H5301 H 0.4528 0.65544 0.02434 0.0
H5302 H 0.45268 0.68811 0.98984 0.0
H5303 H 0.45713 0.63819 0.12152 0.0
H5304 H 0.4323 0.64777 0.01264 0.0
H5305 H 0.41884 0.66128 0.98299 0.0
H5306 H 0.40845 0.64694 0.14934 0.0
H5307 H 0.42189 0.63364 0.18041 0.0
C5308 C 0.44614 0.54991 0.13384 0.0
C5309 C 0.44258 0.54376 0.18639 0.0
C5310 C 0.44632 0.56904 0.12018 0.0
C5311 C 0.44289 0.58223 0.15865 0.0
C5312 C 0.43906 0.57616 0.21007 0.0
C5313 C 0.43896 0.55702 0.22413 0.0
C5314 C 0.4434 0.60245 0.14535 0.0
C5315 C 0.43601 0.61218 0.13411 0.0
C5316 C 0.45111 0.61179 0.14039 0.0
C5317 C 0.45911 0.60204 0.15176 0.0
C5318 C 0.46057 0.59303 0.20535 0.0
C5319 C 0.4681 0.58377 0.2155 0.0
C5320 C 0.47424 0.58352 0.17252 0.0
C5321 C 0.47286 0.59256 0.11931 0.0
C5322 C 0.46534 0.60182 0.10891 0.0
C5323 C 0.43983 0.69306 0.107 0.0
C5324 C 0.44436 0.69811 0.0572 0.0
C5325 C 0.43989 0.67443 0.12662 0.0
C5326 C 0.4444 0.66066 0.09622 0.0
C5327 C 0.44926 0.6659 0.04825 0.0
C5328 C 0.44921 0.68451 0.02871 0.0
C5329 C 0.44384 0.64062 0.11286 0.0
C5330 C 0.45123 0.63084 0.12442 0.0
C5331 C 0.43613 0.63111 0.11673 0.0
C5332 C 0.42815 0.63999 0.09923 0.0
C5333 C 0.42719 0.64779 0.04329 0.0
C5334 C 0.41955 0.65534 0.02612 0.0
C5335 C 0.4128 0.65505 0.06434 0.0
C5336 C 0.41369 0.64723 0.11986 0.0
C5337 C 0.42132 0.63971 0.13729 0.0
H5338 H 0.40688 0.66081 0.05086 0.0
H5339 H 0.48006 0.57635 0.18048 0.0
H5340 H 0.18178 0.29195 0.85275 0.0
H5341 H 0.18175 0.32551 0.87986 0.0
H5342 H 0.20553 0.3328 0.79635 0.0
H5343 H 0.2055 0.29951 0.7678 0.0
H5344 H 0.20348 0.34865 0.91477 0.0
H5345 H 0.19107 0.34624 0.72307 0.0
H5346 H 0.18095 0.33521 0.65009 0.0
H5347 H 0.16093 0.35647 0.75466 0.0
H5348 H 0.17094 0.3673 0.82892 0.0
H5349 H 0.20701 0.44766 0.90412 0.0
H5350 H 0.20678 0.41441 0.87354 0.0
H5351 H 0.18071 0.41123 0.91682 0.0
H5352 H 0.1809 0.44457 0.94526 0.0
H5353 H 0.18369 0.39273 0.81993 0.0
H5354 H 0.1957 0.39537 0.01139 0.0
H5355 H 0.20554 0.40537 0.08777 0.0
H5356 H 0.22586 0.38312 0.98817 0.0
H5357 H 0.21616 0.3732 0.91086 0.0
C5358 C 0.187 0.30076 0.84052 0.0
C5359 C 0.19361 0.2934 0.80786 0.0
C5360 C 0.18696 0.3198 0.85585 0.0
C5361 C 0.19361 0.3314 0.83957 0.0
C5362 C 0.20035 0.32391 0.80888 0.0
C5363 C 0.20031 0.30503 0.79245 0.0
C5364 C 0.19349 0.35157 0.85318 0.0
C5365 C 0.19922 0.3584 0.89381 0.0
C5366 C 0.18778 0.36392 0.82641 0.0
C5367 C 0.18175 0.35733 0.78195 0.0
C5368 C 0.18451 0.34834 0.7309 0.0
C5369 C 0.17879 0.34217 0.68921 0.0
C5370 C 0.1703 0.34507 0.69783 0.0
C5371 C 0.16751 0.35419 0.74812 0.0
C5372 C 0.1732 0.36034 0.79003 0.0
C5373 C 0.20124 0.43981 0.90599 0.0
C5374 C 0.19397 0.4483 0.92656 0.0
C5375 C 0.20111 0.42092 0.88906 0.0
C5376 C 0.19376 0.41037 0.89406 0.0
C5377 C 0.18643 0.41916 0.91278 0.0
C5378 C 0.18654 0.43809 0.92889 0.0
C5379 C 0.19372 0.39 0.88159 0.0
C5380 C 0.18795 0.38306 0.84117 0.0
C5381 C 0.19935 0.37749 0.90901 0.0
C5382 C 0.20521 0.38373 0.95507 0.0
C5383 C 0.20228 0.39278 0.00553 0.0
C5384 C 0.20783 0.39839 0.04905 0.0
C5385 C 0.21632 0.39493 0.04276 0.0
C5386 C 0.21928 0.38583 0.99295 0.0
C5387 C 0.21376 0.3802 0.94929 0.0
H5388 H 0.2206 0.39926 0.07655 0.0
H5389 H 0.16588 0.34032 0.66545 0.0
H5390 H 0.5522 0.2931 0.90648 0.0
H5391 H 0.55244 0.32634 0.87531 0.0
H5392 H 0.57883 0.32852 0.90745 0.0
H5393 H 0.57858 0.29532 0.93819 0.0
H5394 H 0.56986 0.35731 0.96266 0.0
H5395 H 0.57303 0.33036 0.77278 0.0
H5396 H 0.56969 0.30937 0.69027 0.0
H5397 H 0.54553 0.3346 0.67619 0.0
H5398 H 0.54871 0.35566 0.75888 0.0
H5399 H 0.57693 0.44855 0.84279 0.0
H5400 H 0.57707 0.41534 0.87179 0.0
H5401 H 0.55175 0.40934 0.81224 0.0
H5402 H 0.55183 0.44237 0.77987 0.0
H5403 H 0.56062 0.38213 0.77141 0.0
H5404 H 0.55797 0.41039 0.96181 0.0
H5405 H 0.56206 0.43212 0.04075 0.0
H5406 H 0.58573 0.40454 0.05408 0.0
H5407 H 0.58185 0.38289 0.97444 0.0
C5408 C 0.55805 0.30066 0.90559 0.0
C5409 C 0.56537 0.29191 0.92417 0.0
C5410 C 0.55819 0.31954 0.88797 0.0
C5411 C 0.56566 0.32979 0.88931 0.0
C5412 C 0.57302 0.32081 0.90635 0.0
C5413 C 0.57289 0.30193 0.92348 0.0
C5414 C 0.56568 0.35019 0.87629 0.0
C5415 C 0.56793 0.36281 0.9207 0.0
C5416 C 0.56303 0.3572 0.82187 0.0
C5417 C 0.56108 0.34446 0.77239 0.0
C5418 C 0.56698 0.33132 0.75241 0.0
C5419 C 0.56513 0.31946 0.70549 0.0
C5420 C 0.5574 0.32063 0.6781 0.0
C5421 C 0.55151 0.3337 0.69747 0.0
C5422 C 0.55334 0.34563 0.74428 0.0
C5423 C 0.57136 0.44015 0.83699 0.0
C5424 C 0.56434 0.4478 0.80963 0.0
C5425 C 0.57143 0.42124 0.8537 0.0
C5426 C 0.56439 0.40989 0.84486 0.0
C5427 C 0.55726 0.41783 0.81938 0.0
C5428 C 0.55727 0.43663 0.80124 0.0
C5429 C 0.56464 0.38945 0.85816 0.0
C5430 C 0.56249 0.37674 0.81365 0.0
C5431 C 0.56741 0.38241 0.91254 0.0
C5432 C 0.56964 0.39509 0.96175 0.0
C5433 C 0.56406 0.409 0.98137 0.0
C5434 C 0.56634 0.42132 0.02624 0.0
C5435 C 0.57415 0.41973 0.05234 0.0
C5436 C 0.57968 0.40577 0.03379 0.0
C5437 C 0.57745 0.39346 0.9888 0.0
H5438 H 0.57591 0.42931 0.08697 0.0
H5439 H 0.55597 0.31144 0.6418 0.0
loop_
_geom_bond_atom_site_label_1
_geom_bond_atom_site_label_2
_geom_bond_distance
_geom_bond_site_symmetry_2
_ccdc_geom_bond_type
Zn0 O6 1.969 . S
Zn0 O7 1.965 . S
Zn0 O11 2.024 . S
Zn0 O16 1.969 . S
Zn1 O8 1.969 . S
Zn1 O14 1.969 . S
Zn1 O15 1.965 . S
Zn1 O17 2.024 . S
C2 O3 1.229 . S
C2 O11 1.058 . S
O3 C2 1.229 . S
C4 O5 1.229 . S
C4 O17 1.058 . S
O5 C4 1.229 . S
O6 Zn0 1.969 . S
O6 C9 1.267 . S
O7 Zn0 1.965 . S
O7 C18 1.260 . S
O8 Zn1 1.969 . S
O8 C18 1.258 . S
C9 O6 1.267 . S
C9 O10 1.228 . S
O10 C9 1.228 . S
O11 Zn0 2.024 . S
O11 C2 1.058 . S
C12 O13 1.228 . S
C12 O14 1.267 . S
O13 C12 1.228 . S
O14 Zn1 1.969 . S
O14 C12 1.267 . S
O15 Zn1 1.965 . S
O15 C19 1.260 . S
O16 Zn0 1.969 . S
O16 C19 1.258 . S
O17 Zn1 2.024 . S
O17 C4 1.058 . S
C18 O7 1.260 . S
C18 O8 1.258 . S
C19 O15 1.260 . S
C19 O16 1.258 . S
Zn20 O26 1.969 . S
Zn20 O27 1.965 1_545 S
Zn20 O31 2.024 1_545 S
Zn20 O36 1.969 . S
Zn21 O28 1.969 . S
Zn21 O34 1.969 . S
Zn21 O35 1.965 1_565 S
Zn21 O37 2.024 1_565 S
C22 O23 1.229 . S
C22 O31 1.058 1_545 S
O23 C22 1.229 . S
C24 O25 1.229 . S
C24 O37 1.058 1_565 S
O25 C24 1.229 . S
O26 Zn20 1.969 . S
O26 C29 1.267 . S
O27 Zn20 1.965 1_565 S
O27 C38 1.260 . S
O28 Zn21 1.969 . S
O28 C38 1.258 . S
C29 O26 1.267 . S
C29 O30 1.228 1_545 S
O30 C29 1.228 1_565 S
O31 Zn20 2.024 1_565 S
O31 C22 1.058 1_565 S
C32 O33 1.228 1_565 S
C32 O34 1.267 . S
O33 C32 1.228 1_545 S
O34 Zn21 1.969 . S
O34 C32 1.267 . S
O35 Zn21 1.965 1_545 S
O35 C39 1.260 . S
O36 Zn20 1.969 . S
O36 C39 1.258 . S
O37 Zn21 2.024 1_545 S
O37 C24 1.058 1_545 S
C38 O27 1.260 . S
C38 O28 1.258 . S
C39 O35 1.260 . S
C39 O36 1.258 . S
Zn40 O46 1.969 . S
Zn40 O47 1.965 1_545 S
Zn40 O51 2.024 1_545 S
Zn40 O56 1.969 . S
Zn41 O48 1.969 . S
Zn41 O54 1.969 . S
Zn41 O55 1.965 1_565 S
Zn41 O57 2.024 1_565 S
C42 O43 1.229 . S
C42 O51 1.058 1_545 S
O43 C42 1.229 . S
C44 O45 1.229 . S
C44 O57 1.058 1_565 S
O45 C44 1.229 . S
O46 Zn40 1.969 . S
O46 C49 1.267 . S
O47 Zn40 1.965 1_565 S
O47 C58 1.260 1_556 S
O48 Zn41 1.969 . S
O48 C58 1.258 . S
C49 O46 1.267 . S
C49 O50 1.228 1_545 S
O50 C49 1.228 1_565 S
O51 Zn40 2.024 1_565 S
O51 C42 1.058 1_565 S
C52 O53 1.228 1_565 S
C52 O54 1.267 . S
O53 C52 1.228 1_545 S
O54 Zn41 1.969 . S
O54 C52 1.267 . S
O55 Zn41 1.965 1_545 S
O55 C59 1.260 . S
O56 Zn40 1.969 . S
O56 C59 1.258 1_556 S
O57 Zn41 2.024 1_545 S
O57 C44 1.058 1_545 S
C58 O47 1.260 1_554 S
C58 O48 1.258 . S
C59 O55 1.260 . S
C59 O56 1.258 1_554 S
Zn60 O66 1.969 . S
Zn60 O67 1.965 . S
Zn60 O71 2.024 . S
Zn60 O76 1.969 . S
Zn61 O68 1.969 . S
Zn61 O74 1.969 . S
Zn61 O75 1.965 . S
Zn61 O77 2.024 . S
C62 O63 1.229 . S
C62 O71 1.058 . S
O63 C62 1.229 . S
C64 O65 1.229 . S
C64 O77 1.058 . S
O65 C64 1.229 . S
O66 Zn60 1.969 . S
O66 C69 1.267 . S
O67 Zn60 1.965 . S
O67 C78 1.260 1_556 S
O68 Zn61 1.969 . S
O68 C78 1.258 . S
C69 O66 1.267 . S
C69 O70 1.228 . S
O70 C69 1.228 . S
O71 Zn60 2.024 . S
O71 C62 1.058 . S
C72 O73 1.228 . S
C72 O74 1.267 . S
O73 C72 1.228 . S
O74 Zn61 1.969 . S
O74 C72 1.267 . S
O75 Zn61 1.965 . S
O75 C79 1.260 . S
O76 Zn60 1.969 . S
O76 C79 1.258 1_556 S
O77 Zn61 2.024 . S
O77 C64 1.058 . S
C78 O67 1.260 1_554 S
C78 O68 1.258 . S
C79 O75 1.260 . S
C79 O76 1.258 1_554 S
Zn80 O86 1.969 . S
Zn80 O87 1.965 . S
Zn80 O91 2.024 . S
Zn80 O96 1.969 . S
Zn81 O88 1.969 . S
Zn81 O94 1.969 . S
Zn81 O95 1.965 . S
Zn81 O97 2.024 . S
C82 O83 1.229 . S
C82 O91 1.058 . S
O83 C82 1.229 . S
C84 O85 1.229 . S
C84 O97 1.058 . S
O85 C84 1.229 . S
O86 Zn80 1.969 . S
O86 C89 1.267 . S
O87 Zn80 1.965 . S
O87 C98 1.260 . S
O88 Zn81 1.969 . S
O88 C98 1.258 . S
C89 O86 1.267 . S
C89 O90 1.228 . S
O90 C89 1.228 . S
O91 Zn80 2.024 . S
O91 C82 1.058 . S
C92 O93 1.228 . S
C92 O94 1.267 . S
O93 C92 1.228 . S
O94 Zn81 1.969 . S
O94 C92 1.267 . S
O95 Zn81 1.965 . S
O95 C99 1.260 . S
O96 Zn80 1.969 . S
O96 C99 1.258 . S
O97 Zn81 2.024 . S
O97 C84 1.058 . S
C98 O87 1.260 . S
C98 O88 1.258 . S
C99 O95 1.260 . S
C99 O96 1.258 . S
Zn100 O106 1.969 . S
Zn100 O107 1.965 1_545 S
Zn100 O111 2.024 1_545 S
Zn100 O116 1.969 . S
Zn101 O108 1.969 . S
Zn101 O114 1.969 . S
Zn101 O115 1.965 1_565 S
Zn101 O117 2.024 1_565 S
C102 O103 1.229 . S
C102 O111 1.058 1_545 S
O103 C102 1.229 . S
C104 O105 1.229 . S
C104 O117 1.058 1_565 S
O105 C104 1.229 . S
O106 Zn100 1.969 . S
O106 C109 1.267 . S
O107 Zn100 1.965 1_565 S
O107 C118 1.260 . S
O108 Zn101 1.969 . S
O108 C118 1.258 . S
C109 O106 1.267 . S
C109 O110 1.228 1_545 S
O110 C109 1.228 1_565 S
O111 Zn100 2.024 1_565 S
O111 C102 1.058 1_565 S
C112 O113 1.228 1_565 S
C112 O114 1.267 . S
O113 C112 1.228 1_545 S
O114 Zn101 1.969 . S
O114 C112 1.267 . S
O115 Zn101 1.965 1_545 S
O115 C119 1.260 . S
O116 Zn100 1.969 . S
O116 C119 1.258 . S
O117 Zn101 2.024 1_545 S
O117 C104 1.058 1_545 S
C118 O107 1.260 . S
C118 O108 1.258 . S
C119 O115 1.260 . S
C119 O116 1.258 . S
Zn120 O126 1.969 . S
Zn120 O127 1.965 1_545 S
Zn120 O131 2.024 1_545 S
Zn120 O136 1.969 . S
Zn121 O128 1.969 . S
Zn121 O134 1.969 . S
Zn121 O135 1.965 1_565 S
Zn121 O137 2.024 1_565 S
C122 O123 1.229 . S
C122 O131 1.058 1_545 S
O123 C122 1.229 . S
C124 O125 1.229 . S
C124 O137 1.058 1_565 S
O125 C124 1.229 . S
O126 Zn120 1.969 . S
O126 C129 1.267 . S
O127 Zn120 1.965 1_565 S
O127 C138 1.260 . S
O128 Zn121 1.969 . S
O128 C138 1.258 1_554 S
C129 O126 1.267 . S
C129 O130 1.228 1_545 S
O130 C129 1.228 1_565 S
O131 Zn120 2.024 1_565 S
O131 C122 1.058 1_565 S
C132 O133 1.228 1_565 S
C132 O134 1.267 . S
O133 C132 1.228 1_545 S
O134 Zn121 1.969 . S
O134 C132 1.267 . S
O135 Zn121 1.965 1_545 S
O135 C139 1.260 1_554 S
O136 Zn120 1.969 . S
O136 C139 1.258 . S
O137 Zn121 2.024 1_545 S
O137 C124 1.058 1_545 S
C138 O127 1.260 . S
C138 O128 1.258 1_556 S
C139 O135 1.260 1_556 S
C139 O136 1.258 . S
Zn140 O146 1.969 . S
Zn140 O147 1.965 . S
Zn140 O151 2.024 . S
Zn140 O156 1.969 . S
Zn141 O148 1.969 . S
Zn141 O154 1.969 . S
Zn141 O155 1.965 . S
Zn141 O157 2.024 . S
C142 O143 1.229 . S
C142 O151 1.058 . S
O143 C142 1.229 . S
C144 O145 1.229 . S
C144 O157 1.058 . S
O145 C144 1.229 . S
O146 Zn140 1.969 . S
O146 C149 1.267 . S
O147 Zn140 1.965 . S
O147 C158 1.260 . S
O148 Zn141 1.969 . S
O148 C158 1.258 1_554 S
C149 O146 1.267 . S
C149 O150 1.228 . S
O150 C149 1.228 . S
O151 Zn140 2.024 . S
O151 C142 1.058 . S
C152 O153 1.228 . S
C152 O154 1.267 . S
O153 C152 1.228 . S
O154 Zn141 1.969 . S
O154 C152 1.267 . S
O155 Zn141 1.965 . S
O155 C159 1.260 1_554 S
O156 Zn140 1.969 . S
O156 C159 1.258 . S
O157 Zn141 2.024 . S
O157 C144 1.058 . S
C158 O147 1.260 . S
C158 O148 1.258 1_556 S
C159 O155 1.260 1_556 S
C159 O156 1.258 . S
Zn160 O166 1.969 . S
Zn160 O167 1.965 . S
Zn160 O171 2.024 . S
Zn160 O176 1.969 . S
Zn161 O168 1.969 . S
Zn161 O174 1.969 . S
Zn161 O175 1.965 . S
Zn161 O177 2.024 . S
C162 O163 1.229 . S
C162 O171 1.058 . S
O163 C162 1.229 . S
C164 O165 1.229 . S
C164 O177 1.058 . S
O165 C164 1.229 . S
O166 Zn160 1.969 . S
O166 C169 1.267 . S
O167 Zn160 1.965 . S
O167 C178 1.260 . S
O168 Zn161 1.969 . S
O168 C178 1.258 . S
C169 O166 1.267 . S
C169 O170 1.228 . S
O170 C169 1.228 . S
O171 Zn160 2.024 . S
O171 C162 1.058 . S
C172 O173 1.228 . S
C172 O174 1.267 . S
O173 C172 1.228 . S
O174 Zn161 1.969 . S
O174 C172 1.267 . S
O175 Zn161 1.965 . S
O175 C179 1.260 . S
O176 Zn160 1.969 . S
O176 C179 1.258 . S
O177 Zn161 2.024 . S
O177 C164 1.058 . S
C178 O167 1.260 . S
C178 O168 1.258 . S
C179 O175 1.260 . S
C179 O176 1.258 . S
Zn180 O186 1.969 . S
Zn180 O187 1.965 . S
Zn180 O191 2.024 . S
Zn180 O196 1.969 . S
Zn181 O188 1.969 . S
Zn181 O194 1.969 . S
Zn181 O195 1.965 . S
Zn181 O197 2.024 . S
C182 O183 1.229 . S
C182 O191 1.058 . S
O183 C182 1.229 . S
C184 O185 1.229 . S
C184 O197 1.058 . S
O185 C184 1.229 . S
O186 Zn180 1.969 . S
O186 C189 1.267 . S
O187 Zn180 1.965 . S
O187 C198 1.260 . S
O188 Zn181 1.969 . S
O188 C198 1.258 . S
C189 O186 1.267 . S
C189 O190 1.228 . S
O190 C189 1.228 . S
O191 Zn180 2.024 . S
O191 C182 1.058 . S
C192 O193 1.228 . S
C192 O194 1.267 . S
O193 C192 1.228 . S
O194 Zn181 1.969 . S
O194 C192 1.267 . S
O195 Zn181 1.965 . S
O195 C199 1.260 . S
O196 Zn180 1.969 . S
O196 C199 1.258 . S
O197 Zn181 2.024 . S
O197 C184 1.058 . S
C198 O187 1.260 . S
C198 O188 1.258 . S
C199 O195 1.260 . S
C199 O196 1.258 . S
Zn200 O206 1.969 . S
Zn200 O207 1.965 . S
Zn200 O211 2.024 . S
Zn200 O216 1.969 . S
Zn201 O208 1.969 . S
Zn201 O214 1.969 . S
Zn201 O215 1.965 . S
Zn201 O217 2.024 . S
C202 O203 1.229 . S
C202 O211 1.058 . S
O203 C202 1.229 . S
C204 O205 1.229 . S
C204 O217 1.058 . S
O205 C204 1.229 . S
O206 Zn200 1.969 . S
O206 C209 1.267 . S
O207 Zn200 1.965 . S
O207 C218 1.260 . S
O208 Zn201 1.969 . S
O208 C218 1.258 . S
C209 O206 1.267 . S
C209 O210 1.228 . S
O210 C209 1.228 . S
O211 Zn200 2.024 . S
O211 C202 1.058 . S
C212 O213 1.228 . S
C212 O214 1.267 . S
O213 C212 1.228 . S
O214 Zn201 1.969 . S
O214 C212 1.267 . S
O215 Zn201 1.965 . S
O215 C219 1.260 . S
O216 Zn200 1.969 . S
O216 C219 1.258 . S
O217 Zn201 2.024 . S
O217 C204 1.058 . S
C218 O207 1.260 . S
C218 O208 1.258 . S
C219 O215 1.260 . S
C219 O216 1.258 . S
Zn220 O226 1.969 . S
Zn220 O227 1.965 . S
Zn220 O231 2.024 . S
Zn220 O236 1.969 . S
Zn221 O228 1.969 . S
Zn221 O234 1.969 . S
Zn221 O235 1.965 . S
Zn221 O237 2.024 . S
C222 O223 1.229 . S
C222 O231 1.058 . S
O223 C222 1.229 . S
C224 O225 1.229 . S
C224 O237 1.058 . S
O225 C224 1.229 . S
O226 Zn220 1.969 . S
O226 C229 1.267 . S
O227 Zn220 1.965 . S
O227 C238 1.260 . S
O228 Zn221 1.969 . S
O228 C238 1.258 . S
C229 O226 1.267 . S
C229 O230 1.228 . S
O230 C229 1.228 . S
O231 Zn220 2.024 . S
O231 C222 1.058 . S
C232 O233 1.228 . S
C232 O234 1.267 . S
O233 C232 1.228 . S
O234 Zn221 1.969 . S
O234 C232 1.267 . S
O235 Zn221 1.965 . S
O235 C239 1.260 . S
O236 Zn220 1.969 . S
O236 C239 1.258 . S
O237 Zn221 2.024 . S
O237 C224 1.058 . S
C238 O227 1.260 . S
C238 O228 1.258 . S
C239 O235 1.260 . S
C239 O236 1.258 . S
Zn240 O246 1.969 . S
Zn240 O247 1.965 . S
Zn240 O251 2.024 . S
Zn240 O256 1.969 . S
Zn241 O248 1.969 . S
Zn241 O254 1.969 . S
Zn241 O255 1.965 . S
Zn241 O257 2.024 . S
C242 O243 1.229 . S
C242 O251 1.058 . S
O243 C242 1.229 . S
C244 O245 1.229 . S
C244 O257 1.058 . S
O245 C244 1.229 . S
O246 Zn240 1.969 . S
O246 C249 1.267 . S
O247 Zn240 1.965 . S
O247 C258 1.260 . S
O248 Zn241 1.969 . S
O248 C258 1.258 . S
C249 O246 1.267 . S
C249 O250 1.228 . S
O250 C249 1.228 . S
O251 Zn240 2.024 . S
O251 C242 1.058 . S
C252 O253 1.228 . S
C252 O254 1.267 . S
O253 C252 1.228 . S
O254 Zn241 1.969 . S
O254 C252 1.267 . S
O255 Zn241 1.965 . S
O255 C259 1.260 . S
O256 Zn240 1.969 . S
O256 C259 1.258 . S
O257 Zn241 2.024 . S
O257 C244 1.058 . S
C258 O247 1.260 . S
C258 O248 1.258 . S
C259 O255 1.260 . S
C259 O256 1.258 . S
Zn260 O266 1.969 . S
Zn260 O267 1.965 . S
Zn260 O271 2.024 . S
Zn260 O276 1.969 . S
Zn261 O268 1.969 . S
Zn261 O274 1.969 . S
Zn261 O275 1.965 . S
Zn261 O277 2.024 . S
C262 O263 1.229 . S
C262 O271 1.058 . S
O263 C262 1.229 . S
C264 O265 1.229 . S
C264 O277 1.058 . S
O265 C264 1.229 . S
O266 Zn260 1.969 . S
O266 C269 1.267 . S
O267 Zn260 1.965 . S
O267 C278 1.260 . S
O268 Zn261 1.969 . S
O268 C278 1.258 . S
C269 O266 1.267 . S
C269 O270 1.228 . S
O270 C269 1.228 . S
O271 Zn260 2.024 . S
O271 C262 1.058 . S
C272 O273 1.228 . S
C272 O274 1.267 . S
O273 C272 1.228 . S
O274 Zn261 1.969 . S
O274 C272 1.267 . S
O275 Zn261 1.965 . S
O275 C279 1.260 . S
O276 Zn260 1.969 . S
O276 C279 1.258 . S
O277 Zn261 2.024 . S
O277 C264 1.058 . S
C278 O267 1.260 . S
C278 O268 1.258 . S
C279 O275 1.260 . S
C279 O276 1.258 . S
Zn280 O286 1.969 . S
Zn280 O287 1.965 . S
Zn280 O291 2.024 . S
Zn280 O296 1.969 . S
Zn281 O288 1.969 . S
Zn281 O294 1.969 . S
Zn281 O295 1.965 . S
Zn281 O297 2.024 . S
C282 O283 1.229 . S
C282 O291 1.058 . S
O283 C282 1.229 . S
C284 O285 1.229 . S
C284 O297 1.058 . S
O285 C284 1.229 . S
O286 Zn280 1.969 . S
O286 C289 1.267 . S
O287 Zn280 1.965 . S
O287 C298 1.260 . S
O288 Zn281 1.969 . S
O288 C298 1.258 . S
C289 O286 1.267 . S
C289 O290 1.228 . S
O290 C289 1.228 . S
O291 Zn280 2.024 . S
O291 C282 1.058 . S
C292 O293 1.228 . S
C292 O294 1.267 . S
O293 C292 1.228 . S
O294 Zn281 1.969 . S
O294 C292 1.267 . S
O295 Zn281 1.965 . S
O295 C299 1.260 . S
O296 Zn280 1.969 . S
O296 C299 1.258 . S
O297 Zn281 2.024 . S
O297 C284 1.058 . S
C298 O287 1.260 . S
C298 O288 1.258 . S
C299 O295 1.260 . S
C299 O296 1.258 . S
Zn300 O306 1.969 . S
Zn300 O307 1.965 . S
Zn300 O311 2.024 . S
Zn300 O316 1.969 . S
Zn301 O308 1.969 . S
Zn301 O314 1.969 . S
Zn301 O315 1.965 . S
Zn301 O317 2.024 . S
C302 O303 1.229 . S
C302 O311 1.058 . S
O303 C302 1.229 . S
C304 O305 1.229 . S
C304 O317 1.058 . S
O305 C304 1.229 . S
O306 Zn300 1.969 . S
O306 C309 1.267 . S
O307 Zn300 1.965 . S
O307 C318 1.260 . S
O308 Zn301 1.969 . S
O308 C318 1.258 . S
C309 O306 1.267 . S
C309 O310 1.228 . S
O310 C309 1.228 . S
O311 Zn300 2.024 . S
O311 C302 1.058 . S
C312 O313 1.228 . S
C312 O314 1.267 . S
O313 C312 1.228 . S
O314 Zn301 1.969 . S
O314 C312 1.267 . S
O315 Zn301 1.965 . S
O315 C319 1.260 . S
O316 Zn300 1.969 . S
O316 C319 1.258 . S
O317 Zn301 2.024 . S
O317 C304 1.058 . S
C318 O307 1.260 . S
C318 O308 1.258 . S
C319 O315 1.260 . S
C319 O316 1.258 . S
Zn320 O326 1.969 . S
Zn320 O327 1.965 . S
Zn320 O331 2.024 . S
Zn320 O336 1.969 . S
Zn321 O328 1.969 . S
Zn321 O334 1.969 . S
Zn321 O335 1.965 . S
Zn321 O337 2.024 . S
C322 O323 1.229 . S
C322 O331 1.058 . S
O323 C322 1.229 . S
C324 O325 1.229 . S
C324 O337 1.058 . S
O325 C324 1.229 . S
O326 Zn320 1.969 . S
O326 C329 1.267 . S
O327 Zn320 1.965 . S
O327 C338 1.260 . S
O328 Zn321 1.969 . S
O328 C338 1.258 . S
C329 O326 1.267 . S
C329 O330 1.228 . S
O330 C329 1.228 . S
O331 Zn320 2.024 . S
O331 C322 1.058 . S
C332 O333 1.228 . S
C332 O334 1.267 . S
O333 C332 1.228 . S
O334 Zn321 1.969 . S
O334 C332 1.267 . S
O335 Zn321 1.965 . S
O335 C339 1.260 . S
O336 Zn320 1.969 . S
O336 C339 1.258 . S
O337 Zn321 2.024 . S
O337 C324 1.058 . S
C338 O327 1.260 . S
C338 O328 1.258 . S
C339 O335 1.260 . S
C339 O336 1.258 . S
Zn340 O346 1.969 . S
Zn340 O347 1.965 1_545 S
Zn340 O351 2.024 1_545 S
Zn340 O356 1.969 . S
Zn341 O348 1.969 . S
Zn341 O354 1.969 . S
Zn341 O355 1.965 1_565 S
Zn341 O357 2.024 1_565 S
C342 O343 1.229 . S
C342 O351 1.058 1_545 S
O343 C342 1.229 . S
C344 O345 1.229 . S
C344 O357 1.058 1_565 S
O345 C344 1.229 . S
O346 Zn340 1.969 . S
O346 C349 1.267 . S
O347 Zn340 1.965 1_565 S
O347 C358 1.260 . S
O348 Zn341 1.969 . S
O348 C358 1.258 . S
C349 O346 1.267 . S
C349 O350 1.228 1_545 S
O350 C349 1.228 1_565 S
O351 Zn340 2.024 1_565 S
O351 C342 1.058 1_565 S
C352 O353 1.228 1_565 S
C352 O354 1.267 . S
O353 C352 1.228 1_545 S
O354 Zn341 1.969 . S
O354 C352 1.267 . S
O355 Zn341 1.965 1_545 S
O355 C359 1.260 . S
O356 Zn340 1.969 . S
O356 C359 1.258 . S
O357 Zn341 2.024 1_545 S
O357 C344 1.058 1_545 S
C358 O347 1.260 . S
C358 O348 1.258 . S
C359 O355 1.260 . S
C359 O356 1.258 . S
Zn360 O366 1.969 . S
Zn360 O367 1.965 1_545 S
Zn360 O371 2.024 1_545 S
Zn360 O376 1.969 . S
Zn361 O368 1.969 . S
Zn361 O374 1.969 . S
Zn361 O375 1.965 1_565 S
Zn361 O377 2.024 1_565 S
C362 O363 1.229 . S
C362 O371 1.058 1_545 S
O363 C362 1.229 . S
C364 O365 1.229 . S
C364 O377 1.058 1_565 S
O365 C364 1.229 . S
O366 Zn360 1.969 . S
O366 C369 1.267 . S
O367 Zn360 1.965 1_565 S
O367 C378 1.260 . S
O368 Zn361 1.969 . S
O368 C378 1.258 . S
C369 O366 1.267 . S
C369 O370 1.228 1_545 S
O370 C369 1.228 1_565 S
O371 Zn360 2.024 1_565 S
O371 C362 1.058 1_565 S
C372 O373 1.228 1_565 S
C372 O374 1.267 . S
O373 C372 1.228 1_545 S
O374 Zn361 1.969 . S
O374 C372 1.267 . S
O375 Zn361 1.965 1_545 S
O375 C379 1.260 . S
O376 Zn360 1.969 . S
O376 C379 1.258 . S
O377 Zn361 2.024 1_545 S
O377 C364 1.058 1_545 S
C378 O367 1.260 . S
C378 O368 1.258 . S
C379 O375 1.260 . S
C379 O376 1.258 . S
Zn380 O386 1.969 . S
Zn380 O387 1.965 . S
Zn380 O391 2.024 . S
Zn380 O396 1.969 . S
Zn381 O388 1.969 . S
Zn381 O394 1.969 . S
Zn381 O395 1.965 . S
Zn381 O397 2.024 . S
C382 O383 1.229 . S
C382 O391 1.058 . S
O383 C382 1.229 . S
C384 O385 1.229 . S
C384 O397 1.058 . S
O385 C384 1.229 . S
O386 Zn380 1.969 . S
O386 C389 1.267 . S
O387 Zn380 1.965 . S
O387 C398 1.260 . S
O388 Zn381 1.969 . S
O388 C398 1.258 . S
C389 O386 1.267 . S
C389 O390 1.228 . S
O390 C389 1.228 . S
O391 Zn380 2.024 . S
O391 C382 1.058 . S
C392 O393 1.228 . S
C392 O394 1.267 . S
O393 C392 1.228 . S
O394 Zn381 1.969 . S
O394 C392 1.267 . S
O395 Zn381 1.965 . S
O395 C399 1.260 . S
O396 Zn380 1.969 . S
O396 C399 1.258 . S
O397 Zn381 2.024 . S
O397 C384 1.058 . S
C398 O387 1.260 . S
C398 O388 1.258 . S
C399 O395 1.260 . S
C399 O396 1.258 . S
Zn400 O406 1.969 . S
Zn400 O407 1.965 . S
Zn400 O411 2.024 . S
Zn400 O416 1.969 . S
Zn401 O408 1.969 . S
Zn401 O414 1.969 . S
Zn401 O415 1.965 . S
Zn401 O417 2.024 . S
C402 O403 1.229 . S
C402 O411 1.058 . S
O403 C402 1.229 . S
C404 O405 1.229 . S
C404 O417 1.058 . S
O405 C404 1.229 . S
O406 Zn400 1.969 . S
O406 C409 1.267 . S
O407 Zn400 1.965 . S
O407 C418 1.260 . S
O408 Zn401 1.969 . S
O408 C418 1.258 . S
C409 O406 1.267 . S
C409 O410 1.228 . S
O410 C409 1.228 . S
O411 Zn400 2.024 . S
O411 C402 1.058 . S
C412 O413 1.228 . S
C412 O414 1.267 . S
O413 C412 1.228 . S
O414 Zn401 1.969 . S
O414 C412 1.267 . S
O415 Zn401 1.965 . S
O415 C419 1.260 . S
O416 Zn400 1.969 . S
O416 C419 1.258 . S
O417 Zn401 2.024 . S
O417 C404 1.058 . S
C418 O407 1.260 . S
C418 O408 1.258 . S
C419 O415 1.260 . S
C419 O416 1.258 . S
Zn420 O426 1.969 . S
Zn420 O427 1.965 1_545 S
Zn420 O431 2.024 1_545 S
Zn420 O436 1.969 . S
Zn421 O428 1.969 . S
Zn421 O434 1.969 . S
Zn421 O435 1.965 1_565 S
Zn421 O437 2.024 1_565 S
C422 O423 1.229 . S
C422 O431 1.058 1_545 S
O423 C422 1.229 . S
C424 O425 1.229 . S
C424 O437 1.058 1_565 S
O425 C424 1.229 . S
O426 Zn420 1.969 . S
O426 C429 1.267 . S
O427 Zn420 1.965 1_565 S
O427 C438 1.260 . S
O428 Zn421 1.969 . S
O428 C438 1.258 . S
C429 O426 1.267 . S
C429 O430 1.228 1_545 S
O430 C429 1.228 1_565 S
O431 Zn420 2.024 1_565 S
O431 C422 1.058 1_565 S
C432 O433 1.228 1_565 S
C432 O434 1.267 . S
O433 C432 1.228 1_545 S
O434 Zn421 1.969 . S
O434 C432 1.267 . S
O435 Zn421 1.965 1_545 S
O435 C439 1.260 . S
O436 Zn420 1.969 . S
O436 C439 1.258 . S
O437 Zn421 2.024 1_545 S
O437 C424 1.058 1_545 S
C438 O427 1.260 . S
C438 O428 1.258 . S
C439 O435 1.260 . S
C439 O436 1.258 . S
Zn440 O446 1.969 . S
Zn440 O447 1.965 1_545 S
Zn440 O451 2.024 1_545 S
Zn440 O456 1.969 . S
Zn441 O448 1.969 . S
Zn441 O454 1.969 . S
Zn441 O455 1.965 1_565 S
Zn441 O457 2.024 1_565 S
C442 O443 1.229 . S
C442 O451 1.058 1_545 S
O443 C442 1.229 . S
C444 O445 1.229 . S
C444 O457 1.058 1_565 S
O445 C444 1.229 . S
O446 Zn440 1.969 . S
O446 C449 1.267 . S
O447 Zn440 1.965 1_565 S
O447 C458 1.260 . S
O448 Zn441 1.969 . S
O448 C458 1.258 . S
C449 O446 1.267 . S
C449 O450 1.228 1_545 S
O450 C449 1.228 1_565 S
O451 Zn440 2.024 1_565 S
O451 C442 1.058 1_565 S
C452 O453 1.228 1_565 S
C452 O454 1.267 . S
O453 C452 1.228 1_545 S
O454 Zn441 1.969 . S
O454 C452 1.267 . S
O455 Zn441 1.965 1_545 S
O455 C459 1.260 . S
O456 Zn440 1.969 . S
O456 C459 1.258 . S
O457 Zn441 2.024 1_545 S
O457 C444 1.058 1_545 S
C458 O447 1.260 . S
C458 O448 1.258 . S
C459 O455 1.260 . S
C459 O456 1.258 . S
Zn460 O466 1.969 . S
Zn460 O467 1.965 . S
Zn460 O471 2.024 . S
Zn460 O476 1.969 . S
Zn461 O468 1.969 . S
Zn461 O474 1.969 . S
Zn461 O475 1.965 . S
Zn461 O477 2.024 . S
C462 O463 1.229 . S
C462 O471 1.058 . S
O463 C462 1.229 . S
C464 O465 1.229 . S
C464 O477 1.058 . S
O465 C464 1.229 . S
O466 Zn460 1.969 . S
O466 C469 1.267 . S
O467 Zn460 1.965 . S
O467 C478 1.260 . S
O468 Zn461 1.969 . S
O468 C478 1.258 . S
C469 O466 1.267 . S
C469 O470 1.228 . S
O470 C469 1.228 . S
O471 Zn460 2.024 . S
O471 C462 1.058 . S
C472 O473 1.228 . S
C472 O474 1.267 . S
O473 C472 1.228 . S
O474 Zn461 1.969 . S
O474 C472 1.267 . S
O475 Zn461 1.965 . S
O475 C479 1.260 . S
O476 Zn460 1.969 . S
O476 C479 1.258 . S
O477 Zn461 2.024 . S
O477 C464 1.058 . S
C478 O467 1.260 . S
C478 O468 1.258 . S
C479 O475 1.260 . S
C479 O476 1.258 . S
Zn480 O486 1.969 . S
Zn480 O487 1.965 . S
Zn480 O491 2.024 . S
Zn480 O496 1.969 . S
Zn481 O488 1.969 . S
Zn481 O494 1.969 . S
Zn481 O495 1.965 . S
Zn481 O497 2.024 . S
C482 O483 1.229 . S
C482 O491 1.058 . S
O483 C482 1.229 . S
C484 O485 1.229 . S
C484 O497 1.058 . S
O485 C484 1.229 . S
O486 Zn480 1.969 . S
O486 C489 1.267 . S
O487 Zn480 1.965 . S
O487 C498 1.260 . S
O488 Zn481 1.969 . S
O488 C498 1.258 . S
C489 O486 1.267 . S
C489 O490 1.228 . S
O490 C489 1.228 . S
O491 Zn480 2.024 . S
O491 C482 1.058 . S
C492 O493 1.228 . S
C492 O494 1.267 . S
O493 C492 1.228 . S
O494 Zn481 1.969 . S
O494 C492 1.267 . S
O495 Zn481 1.965 . S
O495 C499 1.260 . S
O496 Zn480 1.969 . S
O496 C499 1.258 . S
O497 Zn481 2.024 . S
O497 C484 1.058 . S
C498 O487 1.260 . S
C498 O488 1.258 . S
C499 O495 1.260 . S
C499 O496 1.258 . S
Zn500 O506 1.969 . S
Zn500 O507 1.965 . S
Zn500 O511 2.024 . S
Zn500 O516 1.969 . S
Zn501 O508 1.969 . S
Zn501 O514 1.969 . S
Zn501 O515 1.965 . S
Zn501 O517 2.024 . S
C502 O503 1.229 . S
C502 O511 1.058 . S
O503 C502 1.229 . S
C504 O505 1.229 . S
C504 O517 1.058 . S
O505 C504 1.229 . S
O506 Zn500 1.969 . S
O506 C509 1.267 . S
O507 Zn500 1.965 . S
O507 C518 1.260 . S
O508 Zn501 1.969 . S
O508 C518 1.258 . S
C509 O506 1.267 . S
C509 O510 1.228 . S
O510 C509 1.228 . S
O511 Zn500 2.024 . S
O511 C502 1.058 . S
C512 O513 1.228 . S
C512 O514 1.267 . S
O513 C512 1.228 . S
O514 Zn501 1.969 . S
O514 C512 1.267 . S
O515 Zn501 1.965 . S
O515 C519 1.260 . S
O516 Zn500 1.969 . S
O516 C519 1.258 . S
O517 Zn501 2.024 . S
O517 C504 1.058 . S
C518 O507 1.260 . S
C518 O508 1.258 . S
C519 O515 1.260 . S
C519 O516 1.258 . S
Zn520 O526 1.969 . S
Zn520 O527 1.965 . S
Zn520 O531 2.024 . S
Zn520 O536 1.969 . S
Zn521 O528 1.969 . S
Zn521 O534 1.969 . S
Zn521 O535 1.965 . S
Zn521 O537 2.024 . S
C522 O523 1.229 . S
C522 O531 1.058 . S
O523 C522 1.229 . S
C524 O525 1.229 . S
C524 O537 1.058 . S
O525 C524 1.229 . S
O526 Zn520 1.969 . S
O526 C529 1.267 . S
O527 Zn520 1.965 . S
O527 C538 1.260 1_556 S
O528 Zn521 1.969 . S
O528 C538 1.258 . S
C529 O526 1.267 . S
C529 O530 1.228 . S
O530 C529 1.228 . S
O531 Zn520 2.024 . S
O531 C522 1.058 . S
C532 O533 1.228 . S
C532 O534 1.267 . S
O533 C532 1.228 . S
O534 Zn521 1.969 . S
O534 C532 1.267 . S
O535 Zn521 1.965 . S
O535 C539 1.260 . S
O536 Zn520 1.969 . S
O536 C539 1.258 1_556 S
O537 Zn521 2.024 . S
O537 C524 1.058 . S
C538 O527 1.260 1_554 S
C538 O528 1.258 . S
C539 O535 1.260 . S
C539 O536 1.258 1_554 S
Zn540 O546 1.969 . S
Zn540 O547 1.965 . S
Zn540 O551 2.024 . S
Zn540 O556 1.969 . S
Zn541 O548 1.969 . S
Zn541 O554 1.969 . S
Zn541 O555 1.965 . S
Zn541 O557 2.024 . S
C542 O543 1.229 . S
C542 O551 1.058 . S
O543 C542 1.229 . S
C544 O545 1.229 . S
C544 O557 1.058 . S
O545 C544 1.229 . S
O546 Zn540 1.969 . S
O546 C549 1.267 . S
O547 Zn540 1.965 . S
O547 C558 1.260 1_556 S
O548 Zn541 1.969 . S
O548 C558 1.258 . S
C549 O546 1.267 . S
C549 O550 1.228 . S
O550 C549 1.228 . S
O551 Zn540 2.024 . S
O551 C542 1.058 . S
C552 O553 1.228 . S
C552 O554 1.267 . S
O553 C552 1.228 . S
O554 Zn541 1.969 . S
O554 C552 1.267 . S
O555 Zn541 1.965 . S
O555 C559 1.260 . S
O556 Zn540 1.969 . S
O556 C559 1.258 1_556 S
O557 Zn541 2.024 . S
O557 C544 1.058 . S
C558 O547 1.260 1_554 S
C558 O548 1.258 . S
C559 O555 1.260 . S
C559 O556 1.258 1_554 S
Zn560 O566 1.969 . S
Zn560 O567 1.965 . S
Zn560 O571 2.024 . S
Zn560 O576 1.969 . S
Zn561 O568 1.969 . S
Zn561 O574 1.969 . S
Zn561 O575 1.965 . S
Zn561 O577 2.024 . S
C562 O563 1.229 . S
C562 O571 1.058 . S
O563 C562 1.229 . S
C564 O565 1.229 . S
C564 O577 1.058 . S
O565 C564 1.229 . S
O566 Zn560 1.969 . S
O566 C569 1.267 . S
O567 Zn560 1.965 . S
O567 C578 1.260 . S
O568 Zn561 1.969 . S
O568 C578 1.258 . S
C569 O566 1.267 . S
C569 O570 1.228 . S
O570 C569 1.228 . S
O571 Zn560 2.024 . S
O571 C562 1.058 . S
C572 O573 1.228 . S
C572 O574 1.267 . S
O573 C572 1.228 . S
O574 Zn561 1.969 . S
O574 C572 1.267 . S
O575 Zn561 1.965 . S
O575 C579 1.260 . S
O576 Zn560 1.969 . S
O576 C579 1.258 . S
O577 Zn561 2.024 . S
O577 C564 1.058 . S
C578 O567 1.260 . S
C578 O568 1.258 . S
C579 O575 1.260 . S
C579 O576 1.258 . S
Zn580 O586 1.969 . S
Zn580 O587 1.965 . S
Zn580 O591 2.024 . S
Zn580 O596 1.969 . S
Zn581 O588 1.969 . S
Zn581 O594 1.969 . S
Zn581 O595 1.965 . S
Zn581 O597 2.024 . S
C582 O583 1.229 . S
C582 O591 1.058 . S
O583 C582 1.229 . S
C584 O585 1.229 . S
C584 O597 1.058 . S
O585 C584 1.229 . S
O586 Zn580 1.969 . S
O586 C589 1.267 . S
O587 Zn580 1.965 . S
O587 C598 1.260 . S
O588 Zn581 1.969 . S
O588 C598 1.258 . S
C589 O586 1.267 . S
C589 O590 1.228 . S
O590 C589 1.228 . S
O591 Zn580 2.024 . S
O591 C582 1.058 . S
C592 O593 1.228 . S
C592 O594 1.267 . S
O593 C592 1.228 . S
O594 Zn581 1.969 . S
O594 C592 1.267 . S
O595 Zn581 1.965 . S
O595 C599 1.260 . S
O596 Zn580 1.969 . S
O596 C599 1.258 . S
O597 Zn581 2.024 . S
O597 C584 1.058 . S
C598 O587 1.260 . S
C598 O588 1.258 . S
C599 O595 1.260 . S
C599 O596 1.258 . S
Zn600 O606 1.969 . S
Zn600 O607 1.965 . S
Zn600 O611 2.024 . S
Zn600 O616 1.969 . S
Zn601 O608 1.969 . S
Zn601 O614 1.969 . S
Zn601 O615 1.965 . S
Zn601 O617 2.024 . S
C602 O603 1.229 . S
C602 O611 1.058 . S
O603 C602 1.229 . S
C604 O605 1.229 . S
C604 O617 1.058 . S
O605 C604 1.229 . S
O606 Zn600 1.969 . S
O606 C609 1.267 . S
O607 Zn600 1.965 . S
O607 C618 1.260 . S
O608 Zn601 1.969 . S
O608 C618 1.258 1_554 S
C609 O606 1.267 . S
C609 O610 1.228 . S
O610 C609 1.228 . S
O611 Zn600 2.024 . S
O611 C602 1.058 . S
C612 O613 1.228 . S
C612 O614 1.267 . S
O613 C612 1.228 . S
O614 Zn601 1.969 . S
O614 C612 1.267 . S
O615 Zn601 1.965 . S
O615 C619 1.260 1_554 S
O616 Zn600 1.969 . S
O616 C619 1.258 . S
O617 Zn601 2.024 . S
O617 C604 1.058 . S
C618 O607 1.260 . S
C618 O608 1.258 1_556 S
C619 O615 1.260 1_556 S
C619 O616 1.258 . S
Zn620 O626 1.969 . S
Zn620 O627 1.965 . S
Zn620 O631 2.024 . S
Zn620 O636 1.969 . S
Zn621 O628 1.969 . S
Zn621 O634 1.969 . S
Zn621 O635 1.965 . S
Zn621 O637 2.024 . S
C622 O623 1.229 . S
C622 O631 1.058 . S
O623 C622 1.229 . S
C624 O625 1.229 . S
C624 O637 1.058 . S
O625 C624 1.229 . S
O626 Zn620 1.969 . S
O626 C629 1.267 . S
O627 Zn620 1.965 . S
O627 C638 1.260 . S
O628 Zn621 1.969 . S
O628 C638 1.258 1_554 S
C629 O626 1.267 . S
C629 O630 1.228 . S
O630 C629 1.228 . S
O631 Zn620 2.024 . S
O631 C622 1.058 . S
C632 O633 1.228 . S
C632 O634 1.267 . S
O633 C632 1.228 . S
O634 Zn621 1.969 . S
O634 C632 1.267 . S
O635 Zn621 1.965 . S
O635 C639 1.260 1_554 S
O636 Zn620 1.969 . S
O636 C639 1.258 . S
O637 Zn621 2.024 . S
O637 C624 1.058 . S
C638 O627 1.260 . S
C638 O628 1.258 1_556 S
C639 O635 1.260 1_556 S
C639 O636 1.258 . S
H640 C658 0.951 . S
H641 C660 0.951 . S
H642 C662 0.950 . S
H643 C663 0.950 . S
H644 C665 0.950 . S
H645 C668 0.950 . S
H646 C669 0.950 . S
H647 C671 0.950 . S
H648 C672 0.950 . S
H649 C673 0.951 . S
H650 C675 0.951 . S
H651 C677 0.950 . S
H652 C678 0.950 . S
H653 C680 0.950 . S
H654 C683 0.950 . S
H655 C684 0.950 . S
H656 C686 0.950 . S
H657 C687 0.950 . S
C658 H640 0.951 . S
C658 C659 1.366 . S
C658 C660 1.388 . S
C659 C658 1.366 . S
C659 C663 1.385 . S
C660 H641 0.951 . S
C660 C658 1.388 . S
C660 C661 1.366 . S
C661 C660 1.366 . S
C661 C662 1.414 . S
C661 C664 1.499 . S
C662 H642 0.950 . S
C662 C661 1.414 . S
C662 C663 1.374 . S
C663 H643 0.950 . S
C663 C659 1.385 . S
C663 C662 1.374 . S
C664 C661 1.499 . S
C664 C665 1.373 1_556 S
C664 C666 1.389 . S
C665 H644 0.950 . S
C665 C664 1.373 1_554 S
C665 C681 1.377 . S
C666 C664 1.389 . S
C666 C667 1.524 . S
C666 C680 1.377 . S
C667 C666 1.524 . S
C667 C668 1.397 . S
C667 C672 1.363 . S
C668 H645 0.950 . S
C668 C667 1.397 . S
C668 C669 1.334 . S
C669 H646 0.950 . S
C669 C668 1.334 . S
C669 C670 1.287 . S
C670 C669 1.287 . S
C670 C671 1.524 . S
C670 H689 0.913 . S
C671 H647 0.950 . S
C671 C670 1.524 . S
C671 C672 1.415 . S
C672 H648 0.950 . S
C672 C667 1.363 . S
C672 C671 1.415 . S
C673 H649 0.951 . S
C673 C674 1.366 . S
C673 C675 1.388 . S
C674 C673 1.366 . S
C674 C678 1.385 . S
C675 H650 0.951 . S
C675 C673 1.388 . S
C675 C676 1.366 . S
C676 C675 1.366 . S
C676 C677 1.414 . S
C676 C679 1.499 . S
C677 H651 0.950 . S
C677 C676 1.414 . S
C677 C678 1.374 . S
C678 H652 0.950 . S
C678 C674 1.385 . S
C678 C677 1.374 . S
C679 C676 1.499 . S
C679 C680 1.373 1_554 S
C679 C681 1.389 . S
C680 H653 0.950 . S
C680 C666 1.377 . S
C680 C679 1.373 1_556 S
C681 C665 1.377 . S
C681 C679 1.389 . S
C681 C682 1.524 . S
C682 C681 1.524 . S
C682 C683 1.397 . S
C682 C687 1.363 . S
C683 H654 0.950 . S
C683 C682 1.397 . S
C683 C684 1.334 . S
C684 H655 0.950 . S
C684 C683 1.334 . S
C684 C685 1.287 . S
C685 C684 1.287 . S
C685 C686 1.524 . S
C685 H688 0.999 . S
C686 H656 0.950 . S
C686 C685 1.524 . S
C686 C687 1.415 . S
C687 H657 0.950 . S
C687 C682 1.363 . S
C687 C686 1.415 . S
H688 C685 0.999 . S
H689 C670 0.913 . S
H690 C708 0.951 . S
H691 C710 0.951 . S
H692 C712 0.950 . S
H693 C713 0.950 . S
H694 C715 0.950 . S
H695 C718 0.950 1_565 S
H696 C719 0.950 . S
H697 C721 0.950 . S
H698 C722 0.950 . S
H699 C723 0.951 . S
H700 C725 0.951 . S
H701 C727 0.950 . S
H702 C728 0.950 . S
H703 C730 0.950 . S
H704 C733 0.950 1_545 S
H705 C734 0.950 . S
H706 C736 0.950 . S
H707 C737 0.950 . S
C708 H690 0.951 . S
C708 C709 1.366 . S
C708 C710 1.388 . S
C709 C708 1.366 . S
C709 C713 1.385 1_545 S
C710 H691 0.951 . S
C710 C708 1.388 . S
C710 C711 1.366 . S
C711 C710 1.366 . S
C711 C712 1.414 1_545 S
C711 C714 1.498 . S
C712 H692 0.950 . S
C712 C711 1.414 1_565 S
C712 C713 1.374 . S
C713 H693 0.950 . S
C713 C709 1.385 1_565 S
C713 C712 1.374 . S
C714 C711 1.498 . S
C714 C715 1.376 1_545 S
C714 C716 1.386 1_556 S
C715 H694 0.950 . S
C715 C714 1.376 1_565 S
C715 C731 1.377 1_455 S
C716 C714 1.386 1_554 S
C716 C717 1.524 . S
C716 C730 1.377 1_455 S
C717 C716 1.524 . S
C717 C718 1.397 . S
C717 C722 1.363 . S
C718 H695 0.950 1_545 S
C718 C717 1.397 . S
C718 C719 1.334 . S
C719 H696 0.950 . S
C719 C718 1.334 . S
C719 C720 1.287 . S
C720 C719 1.287 . S
C720 C721 1.524 . S
C720 H739 0.913 . S
C721 H697 0.950 . S
C721 C720 1.524 . S
C721 C722 1.415 . S
C722 H698 0.950 . S
C722 C717 1.363 . S
C722 C721 1.415 . S
C723 H699 0.951 . S
C723 C724 1.366 . S
C723 C725 1.388 . S
C724 C723 1.366 . S
C724 C728 1.385 1_565 S
C725 H700 0.951 . S
C725 C723 1.388 . S
C725 C726 1.366 . S
C726 C725 1.366 . S
C726 C727 1.414 1_565 S
C726 C729 1.498 1_565 S
C727 H701 0.950 . S
C727 C726 1.414 1_545 S
C727 C728 1.374 . S
C728 H702 0.950 . S
C728 C724 1.385 1_545 S
C728 C727 1.374 . S
C729 C726 1.498 1_545 S
C729 C730 1.376 . S
C729 C731 1.386 1_544 S
C730 H703 0.950 . S
C730 C716 1.377 1_655 S
C730 C729 1.376 . S
C731 C715 1.377 1_655 S
C731 C729 1.386 1_566 S
C731 C732 1.524 . S
C732 C731 1.524 . S
C732 C733 1.397 . S
C732 C737 1.363 . S
C733 H704 0.950 1_565 S
C733 C732 1.397 . S
C733 C734 1.334 . S
C734 H705 0.950 . S
C734 C733 1.334 . S
C734 C735 1.287 . S
C735 C734 1.287 . S
C735 C736 1.524 . S
C735 H738 0.999 . S
C736 H706 0.950 . S
C736 C735 1.524 . S
C736 C737 1.415 . S
C737 H707 0.950 . S
C737 C732 1.363 . S
C737 C736 1.415 . S
H738 C735 0.999 . S
H739 C720 0.913 . S
H740 C758 0.953 . S
H741 C760 0.951 1_565 S
H742 C762 0.950 . S
H743 C763 0.950 . S
H744 C765 0.950 . S
H745 C768 0.950 . S
H746 C769 0.950 . S
H747 C771 0.950 . S
H748 C772 0.950 . S
H749 C773 0.952 . S
H750 C775 0.947 1_545 S
H751 C777 0.950 . S
H752 C778 0.950 . S
H753 C780 0.950 . S
H754 C783 0.950 . S
H755 C784 0.950 . S
H756 C786 0.950 . S
H757 C787 0.950 . S
C758 H740 0.953 . S
C758 C759 1.366 . S
C758 C760 1.388 . S
C759 C758 1.366 . S
C759 C763 1.385 . S
C760 H741 0.951 1_545 S
C760 C758 1.388 . S
C760 C761 1.366 . S
C761 C760 1.366 . S
C761 C762 1.414 . S
C761 C764 1.499 . S
C762 H742 0.950 . S
C762 C761 1.414 . S
C762 C763 1.374 . S
C763 H743 0.950 . S
C763 C759 1.385 . S
C763 C762 1.374 . S
C764 C761 1.499 . S
C764 C765 1.373 1_545 S
C764 C766 1.389 . S
C765 H744 0.950 . S
C765 C764 1.373 1_565 S
C765 C781 1.377 . S
C766 C764 1.389 . S
C766 C767 1.524 . S
C766 C780 1.377 . S
C767 C766 1.524 . S
C767 C768 1.397 . S
C767 C772 1.363 . S
C768 H745 0.950 . S
C768 C767 1.397 . S
C768 C769 1.334 . S
C769 H746 0.950 . S
C769 C768 1.334 . S
C769 C770 1.287 . S
C770 C769 1.287 . S
C770 C771 1.524 . S
C770 H789 0.913 . S
C771 H747 0.950 . S
C771 C770 1.524 . S
C771 C772 1.415 . S
C772 H748 0.950 . S
C772 C767 1.363 . S
C772 C771 1.415 . S
C773 H749 0.952 . S
C773 C774 1.366 . S
C773 C775 1.390 . S
C774 C773 1.366 . S
C774 C778 1.385 . S
C775 H750 0.947 1_565 S
C775 C773 1.390 . S
C775 C776 1.371 . S
C776 C775 1.371 . S
C776 C777 1.414 . S
C776 C779 1.499 . S
C777 H751 0.950 . S
C777 C776 1.414 . S
C777 C778 1.374 . S
C778 H752 0.950 . S
C778 C774 1.385 . S
C778 C777 1.374 . S
C779 C776 1.499 . S
C779 C780 1.373 1_565 S
C779 C781 1.389 . S
C780 H753 0.950 . S
C780 C766 1.377 . S
C780 C779 1.373 1_545 S
C781 C765 1.377 . S
C781 C779 1.389 . S
C781 C782 1.524 . S
C782 C781 1.524 . S
C782 C783 1.397 . S
C782 C787 1.363 . S
C783 H754 0.950 . S
C783 C782 1.397 . S
C783 C784 1.334 . S
C784 H755 0.950 . S
C784 C783 1.334 . S
C784 C785 1.287 . S
C785 C784 1.287 . S
C785 C786 1.524 . S
C785 H788 0.999 . S
C786 H756 0.950 . S
C786 C785 1.524 . S
C786 C787 1.415 . S
C787 H757 0.950 . S
C787 C782 1.363 . S
C787 C786 1.415 . S
H788 C785 0.999 . S
H789 C770 0.913 . S
H790 C808 0.951 . S
H791 C810 0.951 . S
H792 C812 0.950 . S
H793 C813 0.950 . S
H794 C815 0.950 . S
H795 C818 0.950 . S
H796 C819 0.950 . S
H797 C821 0.950 . S
H798 C822 0.950 . S
H799 C823 0.951 . S
H800 C825 0.951 . S
H801 C827 0.950 . S
H802 C828 0.950 . S
H803 C830 0.950 . S
H804 C833 0.950 . S
H805 C834 0.950 . S
H806 C836 0.950 . S
H807 C837 0.950 . S
C808 H790 0.951 . S
C808 C809 1.366 . S
C808 C810 1.388 . S
C809 C808 1.366 . S
C809 C813 1.385 . S
C810 H791 0.951 . S
C810 C808 1.388 . S
C810 C811 1.366 . S
C811 C810 1.366 . S
C811 C812 1.414 . S
C811 C814 1.499 . S
C812 H792 0.950 . S
C812 C811 1.414 . S
C812 C813 1.374 . S
C813 H793 0.950 . S
C813 C809 1.385 . S
C813 C812 1.374 . S
C814 C811 1.499 . S
C814 C815 1.373 . S
C814 C816 1.389 . S
C815 H794 0.950 . S
C815 C814 1.373 . S
C815 C831 1.377 1_455 S
C816 C814 1.389 . S
C816 C817 1.524 . S
C816 C830 1.377 1_455 S
C817 C816 1.524 . S
C817 C818 1.397 . S
C817 C822 1.363 . S
C818 H795 0.950 . S
C818 C817 1.397 . S
C818 C819 1.334 . S
C819 H796 0.950 . S
C819 C818 1.334 . S
C819 C820 1.287 . S
C820 C819 1.287 . S
C820 C821 1.524 . S
C820 H839 0.913 . S
C821 H797 0.950 . S
C821 C820 1.524 . S
C821 C822 1.415 . S
C822 H798 0.950 . S
C822 C817 1.363 . S
C822 C821 1.415 . S
C823 H799 0.951 . S
C823 C824 1.366 . S
C823 C825 1.388 . S
C824 C823 1.366 . S
C824 C828 1.385 . S
C825 H800 0.951 . S
C825 C823 1.388 . S
C825 C826 1.366 . S
C826 C825 1.366 . S
C826 C827 1.414 . S
C826 C829 1.499 . S
C827 H801 0.950 . S
C827 C826 1.414 . S
C827 C828 1.374 . S
C828 H802 0.950 . S
C828 C824 1.385 . S
C828 C827 1.374 . S
C829 C826 1.499 . S
C829 C830 1.373 . S
C829 C831 1.389 . S
C830 H803 0.950 . S
C830 C816 1.377 1_655 S
C830 C829 1.373 . S
C831 C815 1.377 1_655 S
C831 C829 1.389 . S
C831 C832 1.524 . S
C832 C831 1.524 . S
C832 C833 1.397 . S
C832 C837 1.363 . S
C833 H804 0.950 . S
C833 C832 1.397 . S
C833 C834 1.334 . S
C834 H805 0.950 . S
C834 C833 1.334 . S
C834 C835 1.287 . S
C835 C834 1.287 . S
C835 C836 1.524 . S
C835 H838 0.999 . S
C836 H806 0.950 . S
C836 C835 1.524 . S
C836 C837 1.415 . S
C837 H807 0.950 . S
C837 C832 1.363 . S
C837 C836 1.415 . S
H838 C835 0.999 . S
H839 C820 0.913 . S
H840 C858 0.951 . S
H841 C860 0.951 . S
H842 C862 0.950 . S
H843 C863 0.950 . S
H844 C865 0.950 . S
H845 C868 0.950 . S
H846 C869 0.950 . S
H847 C871 0.950 . S
H848 C872 0.950 . S
H849 C873 0.951 . S
H850 C875 0.951 . S
H851 C877 0.950 . S
H852 C878 0.950 . S
H853 C880 0.950 . S
H854 C883 0.950 . S
H855 C884 0.950 . S
H856 C886 0.950 . S
H857 C887 0.950 . S
C858 H840 0.951 . S
C858 C859 1.366 . S
C858 C860 1.388 . S
C859 C858 1.366 . S
C859 C863 1.385 . S
C860 H841 0.951 . S
C860 C858 1.388 . S
C860 C861 1.366 . S
C861 C860 1.366 . S
C861 C862 1.414 . S
C861 C864 1.499 . S
C862 H842 0.950 . S
C862 C861 1.414 . S
C862 C863 1.374 . S
C863 H843 0.950 . S
C863 C859 1.385 . S
C863 C862 1.374 . S
C864 C861 1.499 . S
C864 C865 1.373 . S
C864 C866 1.389 . S
C865 H844 0.950 . S
C865 C864 1.373 . S
C865 C881 1.377 1_556 S
C866 C864 1.389 . S
C866 C867 1.524 . S
C866 C880 1.377 1_556 S
C867 C866 1.524 . S
C867 C868 1.397 1_556 S
C867 C872 1.363 . S
C868 H845 0.950 . S
C868 C867 1.397 1_554 S
C868 C869 1.334 . S
C869 H846 0.950 . S
C869 C868 1.334 . S
C869 C870 1.287 . S
C870 C869 1.287 . S
C870 C871 1.524 1_554 S
C870 H889 0.913 . S
C871 H847 0.950 . S
C871 C870 1.524 1_556 S
C871 C872 1.415 . S
C872 H848 0.950 . S
C872 C867 1.363 . S
C872 C871 1.415 . S
C873 H849 0.951 . S
C873 C874 1.366 . S
C873 C875 1.388 . S
C874 C873 1.366 . S
C874 C878 1.385 . S
C875 H850 0.951 . S
C875 C873 1.388 . S
C875 C876 1.366 . S
C876 C875 1.366 . S
C876 C877 1.414 . S
C876 C879 1.499 . S
C877 H851 0.950 . S
C877 C876 1.414 . S
C877 C878 1.374 . S
C878 H852 0.950 . S
C878 C874 1.385 . S
C878 C877 1.374 . S
C879 C876 1.499 . S
C879 C880 1.373 . S
C879 C881 1.389 . S
C880 H853 0.950 . S
C880 C866 1.377 1_554 S
C880 C879 1.373 . S
C881 C865 1.377 1_554 S
C881 C879 1.389 . S
C881 C882 1.524 . S
C882 C881 1.524 . S
C882 C883 1.397 1_554 S
C882 C887 1.363 . S
C883 H854 0.950 . S
C883 C882 1.397 1_556 S
C883 C884 1.334 . S
C884 H855 0.950 . S
C884 C883 1.334 . S
C884 C885 1.287 . S
C885 C884 1.287 . S
C885 C886 1.524 1_556 S
C885 H888 0.999 . S
C886 H856 0.950 . S
C886 C885 1.524 1_554 S
C886 C887 1.415 . S
C887 H857 0.950 . S
C887 C882 1.363 . S
C887 C886 1.415 . S
H888 C885 0.999 . S
H889 C870 0.913 . S
H890 C908 0.951 . S
H891 C910 0.951 . S
H892 C912 0.950 . S
H893 C913 0.950 . S
H894 C915 0.950 . S
H895 C918 0.950 . S
H896 C919 0.950 . S
H897 C921 0.950 . S
H898 C922 0.950 . S
H899 C923 0.951 . S
H900 C925 0.951 . S
H901 C927 0.950 . S
H902 C928 0.950 . S
H903 C930 0.950 . S
H904 C933 0.950 . S
H905 C934 0.950 . S
H906 C936 0.950 . S
H907 C937 0.950 . S
C908 H890 0.951 . S
C908 C909 1.366 . S
C908 C910 1.388 . S
C909 C908 1.366 . S
C909 C913 1.385 1_565 S
C910 H891 0.951 . S
C910 C908 1.388 . S
C910 C911 1.366 . S
C911 C910 1.366 . S
C911 C912 1.414 1_565 S
C911 C914 1.499 . S
C912 H892 0.950 . S
C912 C911 1.414 1_545 S
C912 C913 1.374 . S
C913 H893 0.950 . S
C913 C909 1.385 1_545 S
C913 C912 1.374 . S
C914 C911 1.499 . S
C914 C915 1.373 1_565 S
C914 C916 1.389 . S
C915 H894 0.950 . S
C915 C914 1.373 1_545 S
C915 C931 1.377 . S
C916 C914 1.389 . S
C916 C917 1.524 . S
C916 C930 1.377 . S
C917 C916 1.524 . S
C917 C918 1.397 . S
C917 C922 1.363 . S
C918 H895 0.950 . S
C918 C917 1.397 . S
C918 C919 1.334 . S
C919 H896 0.950 . S
C919 C918 1.334 . S
C919 C920 1.287 . S
C920 C919 1.287 . S
C920 C921 1.524 . S
C920 H939 0.913 . S
C921 H897 0.950 . S
C921 C920 1.524 . S
C921 C922 1.415 . S
C922 H898 0.950 . S
C922 C917 1.363 . S
C922 C921 1.415 . S
C923 H899 0.951 . S
C923 C924 1.366 . S
C923 C925 1.388 . S
C924 C923 1.366 . S
C924 C928 1.385 1_545 S
C925 H900 0.951 . S
C925 C923 1.388 . S
C925 C926 1.366 . S
C926 C925 1.366 . S
C926 C927 1.414 1_545 S
C926 C929 1.502 . S
C927 H901 0.950 . S
C927 C926 1.414 1_565 S
C927 C928 1.374 . S
C928 H902 0.950 . S
C928 C924 1.385 1_565 S
C928 C927 1.374 . S
C929 C926 1.502 . S
C929 C930 1.326 1_545 S
C929 C931 1.434 . S
C930 H903 0.950 . S
C930 C916 1.377 . S
C930 C929 1.326 1_565 S
C931 C915 1.377 . S
C931 C929 1.434 . S
C931 C932 1.524 . S
C932 C931 1.524 . S
C932 C933 1.397 . S
C932 C937 1.363 . S
C933 H904 0.950 . S
C933 C932 1.397 . S
C933 C934 1.334 . S
C934 H905 0.950 . S
C934 C933 1.334 . S
C934 C935 1.287 . S
C935 C934 1.287 . S
C935 C936 1.524 . S
C935 H938 0.999 . S
C936 H906 0.950 . S
C936 C935 1.524 . S
C936 C937 1.415 . S
C937 H907 0.950 . S
C937 C932 1.363 . S
C937 C936 1.415 . S
H938 C935 0.999 . S
H939 C920 0.913 . S
H940 C958 0.951 . S
H941 C960 0.951 . S
H942 C962 0.950 . S
H943 C963 0.950 . S
H944 C965 0.950 . S
H945 C968 0.950 . S
H946 C969 0.950 . S
H947 C971 1.017 . S
H948 C972 0.950 1_455 S
H949 C973 0.951 . S
H950 C975 0.951 . S
H951 C977 0.950 . S
H952 C978 0.950 . S
H953 C980 0.950 . S
H954 C983 0.950 . S
H955 C984 0.950 . S
H956 C986 1.028 . S
H957 C987 0.950 1_655 S
C958 H940 0.951 . S
C958 C959 1.366 . S
C958 C960 1.388 . S
C959 C958 1.366 . S
C959 C963 1.385 . S
C960 H941 0.951 . S
C960 C958 1.388 . S
C960 C961 1.366 . S
C961 C960 1.366 . S
C961 C962 1.414 . S
C961 C964 1.499 . S
C962 H942 0.950 . S
C962 C961 1.414 . S
C962 C963 1.374 . S
C963 H943 0.950 . S
C963 C959 1.385 . S
C963 C962 1.374 . S
C964 C961 1.499 . S
C964 C965 1.373 . S
C964 C966 1.389 . S
C965 H944 0.950 . S
C965 C964 1.373 . S
C965 C981 1.377 1_655 S
C966 C964 1.389 . S
C966 C967 1.524 . S
C966 C980 1.377 1_655 S
C967 C966 1.524 . S
C967 C968 1.397 . S
C967 C972 1.363 . S
C968 H945 0.950 . S
C968 C967 1.397 . S
C968 C969 1.334 . S
C969 H946 0.950 . S
C969 C968 1.334 . S
C969 C970 1.287 . S
C970 C969 1.287 . S
C970 C971 1.524 . S
C970 H989 0.913 . S
C971 H947 1.017 . S
C971 C970 1.524 . S
C971 C972 1.415 . S
C972 H948 0.950 1_655 S
C972 C967 1.363 . S
C972 C971 1.415 . S
C973 H949 0.951 . S
C973 C974 1.366 . S
C973 C975 1.388 . S
C974 C973 1.366 . S
C974 C978 1.385 . S
C975 H950 0.951 . S
C975 C973 1.388 . S
C975 C976 1.366 . S
C976 C975 1.366 . S
C976 C977 1.414 . S
C976 C979 1.499 . S
C977 H951 0.950 . S
C977 C976 1.414 . S
C977 C978 1.374 . S
C978 H952 0.950 . S
C978 C974 1.385 . S
C978 C977 1.374 . S
C979 C976 1.499 . S
C979 C980 1.373 . S
C979 C981 1.389 . S
C980 H953 0.950 . S
C980 C966 1.377 1_455 S
C980 C979 1.373 . S
C981 C965 1.377 1_455 S
C981 C979 1.389 . S
C981 C982 1.524 . S
C982 C981 1.524 . S
C982 C983 1.397 . S
C982 C987 1.363 . S
C983 H954 0.950 . S
C983 C982 1.397 . S
C983 C984 1.334 . S
C984 H955 0.950 . S
C984 C983 1.334 . S
C984 C985 1.287 . S
C985 C984 1.287 . S
C985 C986 1.524 . S
C985 H988 0.999 . S
C986 H956 1.028 . S
C986 C985 1.524 . S
C986 C987 1.415 . S
C987 H957 0.950 1_455 S
C987 C982 1.363 . S
C987 C986 1.415 . S
H988 C985 0.999 . S
H989 C970 0.913 . S
H990 C1008 0.951 . S
H991 C1010 0.951 . S
H992 C1012 0.950 . S
H993 C1013 0.950 . S
H994 C1015 0.950 . S
H995 C1018 0.950 . S
H996 C1019 0.950 . S
H997 C1021 0.950 . S
H998 C1022 0.950 . S
H999 C1023 0.951 . S
H1000 C1025 0.951 . S
H1001 C1027 0.950 . S
H1002 C1028 0.950 . S
H1003 C1030 0.950 . S
H1004 C1033 0.950 . S
H1005 C1034 0.950 . S
H1006 C1036 0.950 . S
H1007 C1037 0.950 . S
C1008 H990 0.951 . S
C1008 C1009 1.366 . S
C1008 C1010 1.388 . S
C1009 C1008 1.366 . S
C1009 C1013 1.385 . S
C1010 H991 0.951 . S
C1010 C1008 1.388 . S
C1010 C1011 1.366 . S
C1011 C1010 1.366 . S
C1011 C1012 1.414 . S
C1011 C1014 1.499 . S
C1012 H992 0.950 . S
C1012 C1011 1.414 . S
C1012 C1013 1.374 . S
C1013 H993 0.950 . S
C1013 C1009 1.385 . S
C1013 C1012 1.374 . S
C1014 C1011 1.499 . S
C1014 C1015 1.373 . S
C1014 C1016 1.389 . S
C1015 H994 0.950 . S
C1015 C1014 1.373 . S
C1015 C1031 1.377 . S
C1016 C1014 1.389 . S
C1016 C1017 1.524 . S
C1016 C1030 1.377 . S
C1017 C1016 1.524 . S
C1017 C1018 1.397 . S
C1017 C1022 1.363 . S
C1018 H995 0.950 . S
C1018 C1017 1.397 . S
C1018 C1019 1.334 . S
C1019 H996 0.950 . S
C1019 C1018 1.334 . S
C1019 C1020 1.287 . S
C1020 C1019 1.287 . S
C1020 C1021 1.524 . S
C1020 H1039 0.913 . S
C1021 H997 0.950 . S
C1021 C1020 1.524 . S
C1021 C1022 1.415 . S
C1022 H998 0.950 . S
C1022 C1017 1.363 . S
C1022 C1021 1.415 . S
C1023 H999 0.951 . S
C1023 C1024 1.366 . S
C1023 C1025 1.388 . S
C1024 C1023 1.366 . S
C1024 C1028 1.385 . S
C1025 H1000 0.951 . S
C1025 C1023 1.388 . S
C1025 C1026 1.366 . S
C1026 C1025 1.366 . S
C1026 C1027 1.414 . S
C1026 C1029 1.499 . S
C1027 H1001 0.950 . S
C1027 C1026 1.414 . S
C1027 C1028 1.374 . S
C1028 H1002 0.950 . S
C1028 C1024 1.385 . S
C1028 C1027 1.374 . S
C1029 C1026 1.499 . S
C1029 C1030 1.373 . S
C1029 C1031 1.389 . S
C1030 H1003 0.950 . S
C1030 C1016 1.377 . S
C1030 C1029 1.373 . S
C1031 C1015 1.377 . S
C1031 C1029 1.389 . S
C1031 C1032 1.524 . S
C1032 C1031 1.524 . S
C1032 C1033 1.397 . S
C1032 C1037 1.363 . S
C1033 H1004 0.950 . S
C1033 C1032 1.397 . S
C1033 C1034 1.334 . S
C1034 H1005 0.950 . S
C1034 C1033 1.334 . S
C1034 C1035 1.287 . S
C1035 C1034 1.287 . S
C1035 C1036 1.524 . S
C1035 H1038 0.999 . S
C1036 H1006 0.950 . S
C1036 C1035 1.524 . S
C1036 C1037 1.415 . S
C1037 H1007 0.950 . S
C1037 C1032 1.363 . S
C1037 C1036 1.415 . S
H1038 C1035 0.999 . S
H1039 C1020 0.913 . S
H1040 C1058 0.951 . S
H1041 C1060 0.951 . S
H1042 C1062 0.950 . S
H1043 C1063 0.950 . S
H1044 C1065 0.950 . S
H1045 C1068 0.950 . S
H1046 C1069 0.950 . S
H1047 C1071 0.950 . S
H1048 C1072 0.950 . S
H1049 C1073 0.951 . S
H1050 C1075 0.951 . S
H1051 C1077 0.950 . S
H1052 C1078 0.950 . S
H1053 C1080 0.950 . S
H1054 C1083 0.950 . S
H1055 C1084 0.950 . S
H1056 C1086 0.950 . S
H1057 C1087 0.950 . S
C1058 H1040 0.951 . S
C1058 C1059 1.366 . S
C1058 C1060 1.388 . S
C1059 C1058 1.366 . S
C1059 C1063 1.385 . S
C1060 H1041 0.951 . S
C1060 C1058 1.388 . S
C1060 C1061 1.366 . S
C1061 C1060 1.366 . S
C1061 C1062 1.414 . S
C1061 C1064 1.499 . S
C1062 H1042 0.950 . S
C1062 C1061 1.414 . S
C1062 C1063 1.374 . S
C1063 H1043 0.950 . S
C1063 C1059 1.385 . S
C1063 C1062 1.374 . S
C1064 C1061 1.499 . S
C1064 C1065 1.373 . S
C1064 C1066 1.389 . S
C1065 H1044 0.950 . S
C1065 C1064 1.373 . S
C1065 C1081 1.377 1_655 S
C1066 C1064 1.389 . S
C1066 C1067 1.524 . S
C1066 C1080 1.377 1_655 S
C1067 C1066 1.524 . S
C1067 C1068 1.397 . S
C1067 C1072 1.363 . S
C1068 H1045 0.950 . S
C1068 C1067 1.397 . S
C1068 C1069 1.334 . S
C1069 H1046 0.950 . S
C1069 C1068 1.334 . S
C1069 C1070 1.287 . S
C1070 C1069 1.287 . S
C1070 C1071 1.524 . S
C1070 H1089 0.913 . S
C1071 H1047 0.950 . S
C1071 C1070 1.524 . S
C1071 C1072 1.415 . S
C1072 H1048 0.950 . S
C1072 C1067 1.363 . S
C1072 C1071 1.415 . S
C1073 H1049 0.951 . S
C1073 C1074 1.366 . S
C1073 C1075 1.388 . S
C1074 C1073 1.366 . S
C1074 C1078 1.385 . S
C1075 H1050 0.951 . S
C1075 C1073 1.388 . S
C1075 C1076 1.366 . S
C1076 C1075 1.366 . S
C1076 C1077 1.414 . S
C1076 C1079 1.499 . S
C1077 H1051 0.950 . S
C1077 C1076 1.414 . S
C1077 C1078 1.374 . S
C1078 H1052 0.950 . S
C1078 C1074 1.385 . S
C1078 C1077 1.374 . S
C1079 C1076 1.499 . S
C1079 C1080 1.373 . S
C1079 C1081 1.389 . S
C1080 H1053 0.950 . S
C1080 C1066 1.377 1_455 S
C1080 C1079 1.373 . S
C1081 C1065 1.377 1_455 S
C1081 C1079 1.389 . S
C1081 C1082 1.524 . S
C1082 C1081 1.524 . S
C1082 C1083 1.397 . S
C1082 C1087 1.363 . S
C1083 H1054 0.950 . S
C1083 C1082 1.397 . S
C1083 C1084 1.334 . S
C1084 H1055 0.950 . S
C1084 C1083 1.334 . S
C1084 C1085 1.287 . S
C1085 C1084 1.287 . S
C1085 C1086 1.524 . S
C1085 H1088 0.999 . S
C1086 H1056 0.950 . S
C1086 C1085 1.524 . S
C1086 C1087 1.415 . S
C1087 H1057 0.950 . S
C1087 C1082 1.363 . S
C1087 C1086 1.415 . S
H1088 C1085 0.999 . S
H1089 C1070 0.913 . S
H1090 C1108 0.951 . S
H1091 C1110 0.951 . S
H1092 C1112 0.950 . S
H1093 C1113 0.950 . S
H1094 C1115 0.950 . S
H1095 C1118 0.950 . S
H1096 C1119 0.950 . S
H1097 C1121 0.950 . S
H1098 C1122 0.950 . S
H1099 C1123 0.951 . S
H1100 C1125 0.951 . S
H1101 C1127 0.950 . S
H1102 C1128 0.950 . S
H1103 C1130 0.950 . S
H1104 C1133 0.950 . S
H1105 C1134 0.950 . S
H1106 C1136 0.950 . S
H1107 C1137 0.950 . S
C1108 H1090 0.951 . S
C1108 C1109 1.366 . S
C1108 C1110 1.388 . S
C1109 C1108 1.366 . S
C1109 C1113 1.385 . S
C1110 H1091 0.951 . S
C1110 C1108 1.388 . S
C1110 C1111 1.366 . S
C1111 C1110 1.366 . S
C1111 C1112 1.414 . S
C1111 C1114 1.499 . S
C1112 H1092 0.950 . S
C1112 C1111 1.414 . S
C1112 C1113 1.374 . S
C1113 H1093 0.950 . S
C1113 C1109 1.385 . S
C1113 C1112 1.374 . S
C1114 C1111 1.499 . S
C1114 C1115 1.373 . S
C1114 C1116 1.389 . S
C1115 H1094 0.950 . S
C1115 C1114 1.373 . S
C1115 C1131 1.377 . S
C1116 C1114 1.389 . S
C1116 C1117 1.524 . S
C1116 C1130 1.377 . S
C1117 C1116 1.524 . S
C1117 C1118 1.397 . S
C1117 C1122 1.363 . S
C1118 H1095 0.950 . S
C1118 C1117 1.397 . S
C1118 C1119 1.334 . S
C1119 H1096 0.950 . S
C1119 C1118 1.334 . S
C1119 C1120 1.287 . S
C1120 C1119 1.287 . S
C1120 C1121 1.524 . S
C1120 H1139 0.913 . S
C1121 H1097 0.950 . S
C1121 C1120 1.524 . S
C1121 C1122 1.415 . S
C1122 H1098 0.950 . S
C1122 C1117 1.363 . S
C1122 C1121 1.415 . S
C1123 H1099 0.951 . S
C1123 C1124 1.366 . S
C1123 C1125 1.388 . S
C1124 C1123 1.366 . S
C1124 C1128 1.385 . S
C1125 H1100 0.951 . S
C1125 C1123 1.388 . S
C1125 C1126 1.366 . S
C1126 C1125 1.366 . S
C1126 C1127 1.414 . S
C1126 C1129 1.499 . S
C1127 H1101 0.950 . S
C1127 C1126 1.414 . S
C1127 C1128 1.374 . S
C1128 H1102 0.950 . S
C1128 C1124 1.385 . S
C1128 C1127 1.374 . S
C1129 C1126 1.499 . S
C1129 C1130 1.373 . S
C1129 C1131 1.389 . S
C1130 H1103 0.950 . S
C1130 C1116 1.377 . S
C1130 C1129 1.373 . S
C1131 C1115 1.377 . S
C1131 C1129 1.389 . S
C1131 C1132 1.524 . S
C1132 C1131 1.524 . S
C1132 C1133 1.397 . S
C1132 C1137 1.363 . S
C1133 H1104 0.950 . S
C1133 C1132 1.397 . S
C1133 C1134 1.334 . S
C1134 H1105 0.950 . S
C1134 C1133 1.334 . S
C1134 C1135 1.287 . S
C1135 C1134 1.287 . S
C1135 C1136 1.524 . S
C1135 H1138 0.999 . S
C1136 H1106 0.950 . S
C1136 C1135 1.524 . S
C1136 C1137 1.415 . S
C1137 H1107 0.950 . S
C1137 C1132 1.363 . S
C1137 C1136 1.415 . S
H1138 C1135 0.999 . S
H1139 C1120 0.913 . S
H1140 C1158 0.951 . S
H1141 C1160 0.951 . S
H1142 C1162 0.950 . S
H1143 C1163 0.950 . S
H1144 C1165 0.950 . S
H1145 C1168 0.950 . S
H1146 C1169 0.950 . S
H1147 C1171 0.950 . S
H1148 C1172 0.950 . S
H1149 C1173 0.951 . S
H1150 C1175 0.951 . S
H1151 C1177 0.950 . S
H1152 C1178 0.950 . S
H1153 C1180 0.950 . S
H1154 C1183 0.950 . S
H1155 C1184 0.950 . S
H1156 C1186 0.950 . S
H1157 C1187 0.950 . S
C1158 H1140 0.951 . S
C1158 C1159 1.366 . S
C1158 C1160 1.388 . S
C1159 C1158 1.366 . S
C1159 C1163 1.385 . S
C1160 H1141 0.951 . S
C1160 C1158 1.388 . S
C1160 C1161 1.366 . S
C1161 C1160 1.366 . S
C1161 C1162 1.414 . S
C1161 C1164 1.499 . S
C1162 H1142 0.950 . S
C1162 C1161 1.414 . S
C1162 C1163 1.374 . S
C1163 H1143 0.950 . S
C1163 C1159 1.385 . S
C1163 C1162 1.374 . S
C1164 C1161 1.499 . S
C1164 C1165 1.373 . S
C1164 C1166 1.389 . S
C1165 H1144 0.950 . S
C1165 C1164 1.373 . S
C1165 C1181 1.377 . S
C1166 C1164 1.389 . S
C1166 C1167 1.524 . S
C1166 C1180 1.377 . S
C1167 C1166 1.524 . S
C1167 C1168 1.397 . S
C1167 C1172 1.363 . S
C1168 H1145 0.950 . S
C1168 C1167 1.397 . S
C1168 C1169 1.334 . S
C1169 H1146 0.950 . S
C1169 C1168 1.334 . S
C1169 C1170 1.287 . S
C1170 C1169 1.287 . S
C1170 C1171 1.524 . S
C1170 H1189 0.913 . S
C1171 H1147 0.950 . S
C1171 C1170 1.524 . S
C1171 C1172 1.415 . S
C1172 H1148 0.950 . S
C1172 C1167 1.363 . S
C1172 C1171 1.415 . S
C1173 H1149 0.951 . S
C1173 C1174 1.366 . S
C1173 C1175 1.388 . S
C1174 C1173 1.366 . S
C1174 C1178 1.385 . S
C1175 H1150 0.951 . S
C1175 C1173 1.388 . S
C1175 C1176 1.366 . S
C1176 C1175 1.366 . S
C1176 C1177 1.414 . S
C1176 C1179 1.499 . S
C1177 H1151 0.950 . S
C1177 C1176 1.414 . S
C1177 C1178 1.374 . S
C1178 H1152 0.950 . S
C1178 C1174 1.385 . S
C1178 C1177 1.374 . S
C1179 C1176 1.499 . S
C1179 C1180 1.373 . S
C1179 C1181 1.389 . S
C1180 H1153 0.950 . S
C1180 C1166 1.377 . S
C1180 C1179 1.373 . S
C1181 C1165 1.377 . S
C1181 C1179 1.389 . S
C1181 C1182 1.524 . S
C1182 C1181 1.524 . S
C1182 C1183 1.397 . S
C1182 C1187 1.363 . S
C1183 H1154 0.950 . S
C1183 C1182 1.397 . S
C1183 C1184 1.334 . S
C1184 H1155 0.950 . S
C1184 C1183 1.334 . S
C1184 C1185 1.287 . S
C1185 C1184 1.287 . S
C1185 C1186 1.524 . S
C1185 H1188 0.999 . S
C1186 H1156 0.950 . S
C1186 C1185 1.524 . S
C1186 C1187 1.415 . S
C1187 H1157 0.950 . S
C1187 C1182 1.363 . S
C1187 C1186 1.415 . S
H1188 C1185 0.999 . S
H1189 C1170 0.913 . S
H1190 C1208 0.951 . S
H1191 C1210 0.951 . S
H1192 C1212 0.950 . S
H1193 C1213 0.950 . S
H1194 C1215 0.950 . S
H1195 C1218 0.950 . S
H1196 C1219 0.950 . S
H1197 C1221 0.950 . S
H1198 C1222 0.950 . S
H1199 C1223 0.951 . S
H1200 C1225 0.951 . S
H1201 C1227 0.950 . S
H1202 C1228 0.950 . S
H1203 C1230 0.950 . S
H1204 C1233 0.950 . S
H1205 C1234 0.950 . S
H1206 C1236 0.950 . S
H1207 C1237 0.950 . S
C1208 H1190 0.951 . S
C1208 C1209 1.366 . S
C1208 C1210 1.388 . S
C1209 C1208 1.366 . S
C1209 C1213 1.385 . S
C1210 H1191 0.951 . S
C1210 C1208 1.388 . S
C1210 C1211 1.366 . S
C1211 C1210 1.366 . S
C1211 C1212 1.414 . S
C1211 C1214 1.499 . S
C1212 H1192 0.950 . S
C1212 C1211 1.414 . S
C1212 C1213 1.374 . S
C1213 H1193 0.950 . S
C1213 C1209 1.385 . S
C1213 C1212 1.374 . S
C1214 C1211 1.499 . S
C1214 C1215 1.373 . S
C1214 C1216 1.389 . S
C1215 H1194 0.950 . S
C1215 C1214 1.373 . S
C1215 C1231 1.377 . S
C1216 C1214 1.389 . S
C1216 C1217 1.524 . S
C1216 C1230 1.377 . S
C1217 C1216 1.524 . S
C1217 C1218 1.397 . S
C1217 C1222 1.363 . S
C1218 H1195 0.950 . S
C1218 C1217 1.397 . S
C1218 C1219 1.334 . S
C1219 H1196 0.950 . S
C1219 C1218 1.334 . S
C1219 C1220 1.287 . S
C1220 C1219 1.287 . S
C1220 C1221 1.524 . S
C1220 H1239 0.913 . S
C1221 H1197 0.950 . S
C1221 C1220 1.524 . S
C1221 C1222 1.415 . S
C1222 H1198 0.950 . S
C1222 C1217 1.363 . S
C1222 C1221 1.415 . S
C1223 H1199 0.951 . S
C1223 C1224 1.366 . S
C1223 C1225 1.388 . S
C1224 C1223 1.366 . S
C1224 C1228 1.385 . S
C1225 H1200 0.951 . S
C1225 C1223 1.388 . S
C1225 C1226 1.366 . S
C1226 C1225 1.366 . S
C1226 C1227 1.414 . S
C1226 C1229 1.499 . S
C1227 H1201 0.950 . S
C1227 C1226 1.414 . S
C1227 C1228 1.374 . S
C1228 H1202 0.950 . S
C1228 C1224 1.385 . S
C1228 C1227 1.374 . S
C1229 C1226 1.499 . S
C1229 C1230 1.373 . S
C1229 C1231 1.389 . S
C1230 H1203 0.950 . S
C1230 C1216 1.377 . S
C1230 C1229 1.373 . S
C1231 C1215 1.377 . S
C1231 C1229 1.389 . S
C1231 C1232 1.524 . S
C1232 C1231 1.524 . S
C1232 C1233 1.397 . S
C1232 C1237 1.363 . S
C1233 H1204 0.950 . S
C1233 C1232 1.397 . S
C1233 C1234 1.334 . S
C1234 H1205 0.950 . S
C1234 C1233 1.334 . S
C1234 C1235 1.287 . S
C1235 C1234 1.287 . S
C1235 C1236 1.524 . S
C1235 H1238 0.999 1_554 S
C1236 H1206 0.950 . S
C1236 C1235 1.524 . S
C1236 C1237 1.415 . S
C1237 H1207 0.950 . S
C1237 C1232 1.363 . S
C1237 C1236 1.415 . S
H1238 C1235 0.999 1_556 S
H1239 C1220 0.913 . S
H1240 C1258 0.951 . S
H1241 C1260 0.951 . S
H1242 C1262 0.950 . S
H1243 C1263 0.950 . S
H1244 C1265 0.950 . S
H1245 C1268 0.950 . S
H1246 C1269 0.950 . S
H1247 C1271 0.950 1_565 S
H1248 C1272 0.950 . S
H1249 C1273 0.951 . S
H1250 C1275 0.951 . S
H1251 C1277 0.950 . S
H1252 C1278 0.950 . S
H1253 C1280 0.950 . S
H1254 C1283 0.950 . S
H1255 C1284 0.950 . S
H1256 C1286 0.950 1_545 S
H1257 C1287 0.950 . S
C1258 H1240 0.951 . S
C1258 C1259 1.366 . S
C1258 C1260 1.388 . S
C1259 C1258 1.366 . S
C1259 C1263 1.385 1_565 S
C1260 H1241 0.951 . S
C1260 C1258 1.388 . S
C1260 C1261 1.395 . S
C1261 C1260 1.395 . S
C1261 C1262 1.390 1_565 S
C1261 C1264 1.496 1_565 S
C1262 H1242 0.950 . S
C1262 C1261 1.390 1_545 S
C1262 C1263 1.374 . S
C1263 H1243 0.950 . S
C1263 C1259 1.385 1_545 S
C1263 C1262 1.374 . S
C1264 C1261 1.496 1_545 S
C1264 C1265 1.370 1_545 S
C1264 C1266 1.392 . S
C1265 H1244 0.950 . S
C1265 C1264 1.370 1_565 S
C1265 C1281 1.377 . S
C1266 C1264 1.392 . S
C1266 C1267 1.524 . S
C1266 C1280 1.377 . S
C1267 C1266 1.524 . S
C1267 C1268 1.397 . S
C1267 C1272 1.363 1_545 S
C1268 H1245 0.950 . S
C1268 C1267 1.397 . S
C1268 C1269 1.334 . S
C1269 H1246 0.950 . S
C1269 C1268 1.334 . S
C1269 C1270 1.287 . S
C1270 C1269 1.287 . S
C1270 C1271 1.524 . S
C1270 H1289 0.913 . S
C1271 H1247 0.950 1_545 S
C1271 C1270 1.524 . S
C1271 C1272 1.415 1_545 S
C1272 H1248 0.950 . S
C1272 C1267 1.363 1_565 S
C1272 C1271 1.415 1_565 S
C1273 H1249 0.951 . S
C1273 C1274 1.366 . S
C1273 C1275 1.388 . S
C1274 C1273 1.366 . S
C1274 C1278 1.385 1_545 S
C1275 H1250 0.951 . S
C1275 C1273 1.388 . S
C1275 C1276 1.386 . S
C1276 C1275 1.386 . S
C1276 C1277 1.397 1_545 S
C1276 C1279 1.496 1_545 S
C1277 H1251 0.950 . S
C1277 C1276 1.397 1_565 S
C1277 C1278 1.374 . S
C1278 H1252 0.950 . S
C1278 C1274 1.385 1_565 S
C1278 C1277 1.374 . S
C1279 C1276 1.496 1_565 S
C1279 C1280 1.369 1_565 S
C1279 C1281 1.394 . S
C1280 H1253 0.950 . S
C1280 C1266 1.377 . S
C1280 C1279 1.369 1_545 S
C1281 C1265 1.377 . S
C1281 C1279 1.394 . S
C1281 C1282 1.524 . S
C1282 C1281 1.524 . S
C1282 C1283 1.397 . S
C1282 C1287 1.363 1_565 S
C1283 H1254 0.950 . S
C1283 C1282 1.397 . S
C1283 C1284 1.334 . S
C1284 H1255 0.950 . S
C1284 C1283 1.334 . S
C1284 C1285 1.287 . S
C1285 C1284 1.287 . S
C1285 C1286 1.524 . S
C1285 H1288 0.999 . S
C1286 H1256 0.950 1_565 S
C1286 C1285 1.524 . S
C1286 C1287 1.415 1_565 S
C1287 H1257 0.950 . S
C1287 C1282 1.363 1_545 S
C1287 C1286 1.415 1_545 S
H1288 C1285 0.999 . S
H1289 C1270 0.913 . S
H1290 C1308 0.951 . S
H1291 C1310 0.951 . S
H1292 C1312 0.950 . S
H1293 C1313 0.950 . S
H1294 C1315 0.950 . S
H1295 C1318 0.950 . S
H1296 C1319 0.950 . S
H1297 C1321 0.950 . S
H1298 C1322 0.950 . S
H1299 C1323 0.951 . S
H1300 C1325 0.951 . S
H1301 C1327 0.950 . S
H1302 C1328 0.950 . S
H1303 C1330 0.950 . S
H1304 C1333 0.950 . S
H1305 C1334 0.950 . S
H1306 C1336 0.950 . S
H1307 C1337 0.950 . S
C1308 H1290 0.951 . S
C1308 C1309 1.366 . S
C1308 C1310 1.388 . S
C1309 C1308 1.366 . S
C1309 C1313 1.385 . S
C1310 H1291 0.951 . S
C1310 C1308 1.388 . S
C1310 C1311 1.366 . S
C1311 C1310 1.366 . S
C1311 C1312 1.414 . S
C1311 C1314 1.499 . S
C1312 H1292 0.950 . S
C1312 C1311 1.414 . S
C1312 C1313 1.374 . S
C1313 H1293 0.950 . S
C1313 C1309 1.385 . S
C1313 C1312 1.374 . S
C1314 C1311 1.499 . S
C1314 C1315 1.373 . S
C1314 C1316 1.389 . S
C1315 H1294 0.950 . S
C1315 C1314 1.373 . S
C1315 C1331 1.377 . S
C1316 C1314 1.389 . S
C1316 C1317 1.524 . S
C1316 C1330 1.377 . S
C1317 C1316 1.524 . S
C1317 C1318 1.397 . S
C1317 C1322 1.363 . S
C1318 H1295 0.950 . S
C1318 C1317 1.397 . S
C1318 C1319 1.334 . S
C1319 H1296 0.950 . S
C1319 C1318 1.334 . S
C1319 C1320 1.287 . S
C1320 C1319 1.287 . S
C1320 C1321 1.524 . S
C1320 H1339 0.913 . S
C1321 H1297 0.950 . S
C1321 C1320 1.524 . S
C1321 C1322 1.415 . S
C1322 H1298 0.950 . S
C1322 C1317 1.363 . S
C1322 C1321 1.415 . S
C1323 H1299 0.951 . S
C1323 C1324 1.366 . S
C1323 C1325 1.388 . S
C1324 C1323 1.366 . S
C1324 C1328 1.385 . S
C1325 H1300 0.951 . S
C1325 C1323 1.388 . S
C1325 C1326 1.366 . S
C1326 C1325 1.366 . S
C1326 C1327 1.414 . S
C1326 C1329 1.499 . S
C1327 H1301 0.950 . S
C1327 C1326 1.414 . S
C1327 C1328 1.374 . S
C1328 H1302 0.950 . S
C1328 C1324 1.385 . S
C1328 C1327 1.374 . S
C1329 C1326 1.499 . S
C1329 C1330 1.373 . S
C1329 C1331 1.389 . S
C1330 H1303 0.950 . S
C1330 C1316 1.377 . S
C1330 C1329 1.373 . S
C1331 C1315 1.377 . S
C1331 C1329 1.389 . S
C1331 C1332 1.524 . S
C1332 C1331 1.524 . S
C1332 C1333 1.397 . S
C1332 C1337 1.363 . S
C1333 H1304 0.950 . S
C1333 C1332 1.397 . S
C1333 C1334 1.334 . S
C1334 H1305 0.950 . S
C1334 C1333 1.334 . S
C1334 C1335 1.287 . S
C1335 C1334 1.287 . S
C1335 C1336 1.524 . S
C1335 H1338 0.999 . S
C1336 H1306 0.950 . S
C1336 C1335 1.524 . S
C1336 C1337 1.415 . S
C1337 H1307 0.950 . S
C1337 C1332 1.363 . S
C1337 C1336 1.415 . S
H1338 C1335 0.999 . S
H1339 C1320 0.913 . S
H1340 C1358 0.951 . S
H1341 C1360 0.951 . S
H1342 C1362 0.950 . S
H1343 C1363 0.950 . S
H1344 C1365 0.950 . S
H1345 C1368 0.950 . S
H1346 C1369 0.950 . S
H1347 C1371 0.950 . S
H1348 C1372 0.950 . S
H1349 C1373 0.951 . S
H1350 C1375 0.951 . S
H1351 C1377 0.950 . S
H1352 C1378 0.950 . S
H1353 C1380 0.950 . S
H1354 C1383 0.950 . S
H1355 C1384 0.950 . S
H1356 C1386 0.950 . S
H1357 C1387 0.950 . S
C1358 H1340 0.951 . S
C1358 C1359 1.366 . S
C1358 C1360 1.388 . S
C1359 C1358 1.366 . S
C1359 C1363 1.385 . S
C1360 H1341 0.951 . S
C1360 C1358 1.388 . S
C1360 C1361 1.366 . S
C1361 C1360 1.366 . S
C1361 C1362 1.414 . S
C1361 C1364 1.499 . S
C1362 H1342 0.950 . S
C1362 C1361 1.414 . S
C1362 C1363 1.374 . S
C1363 H1343 0.950 . S
C1363 C1359 1.385 . S
C1363 C1362 1.374 . S
C1364 C1361 1.499 . S
C1364 C1365 1.373 . S
C1364 C1366 1.389 . S
C1365 H1344 0.950 . S
C1365 C1364 1.373 . S
C1365 C1381 1.377 . S
C1366 C1364 1.389 . S
C1366 C1367 1.524 . S
C1366 C1380 1.377 . S
C1367 C1366 1.524 . S
C1367 C1368 1.397 . S
C1367 C1372 1.363 . S
C1368 H1345 0.950 . S
C1368 C1367 1.397 . S
C1368 C1369 1.334 . S
C1369 H1346 0.950 . S
C1369 C1368 1.334 . S
C1369 C1370 1.287 . S
C1370 C1369 1.287 . S
C1370 C1371 1.524 . S
C1370 H1389 0.913 . S
C1371 H1347 0.950 . S
C1371 C1370 1.524 . S
C1371 C1372 1.415 . S
C1372 H1348 0.950 . S
C1372 C1367 1.363 . S
C1372 C1371 1.415 . S
C1373 H1349 0.951 . S
C1373 C1374 1.366 . S
C1373 C1375 1.388 . S
C1374 C1373 1.366 . S
C1374 C1378 1.385 . S
C1375 H1350 0.951 . S
C1375 C1373 1.388 . S
C1375 C1376 1.366 . S
C1376 C1375 1.366 . S
C1376 C1377 1.414 . S
C1376 C1379 1.499 . S
C1377 H1351 0.950 . S
C1377 C1376 1.414 . S
C1377 C1378 1.374 . S
C1378 H1352 0.950 . S
C1378 C1374 1.385 . S
C1378 C1377 1.374 . S
C1379 C1376 1.499 . S
C1379 C1380 1.373 . S
C1379 C1381 1.389 . S
C1380 H1353 0.950 . S
C1380 C1366 1.377 . S
C1380 C1379 1.373 . S
C1381 C1365 1.377 . S
C1381 C1379 1.389 . S
C1381 C1382 1.524 . S
C1382 C1381 1.524 . S
C1382 C1383 1.397 . S
C1382 C1387 1.363 . S
C1383 H1354 0.950 . S
C1383 C1382 1.397 . S
C1383 C1384 1.334 . S
C1384 H1355 0.950 . S
C1384 C1383 1.334 . S
C1384 C1385 1.287 . S
C1385 C1384 1.287 . S
C1385 C1386 1.524 . S
C1385 H1388 0.999 . S
C1386 H1356 0.950 . S
C1386 C1385 1.524 . S
C1386 C1387 1.415 . S
C1387 H1357 0.950 . S
C1387 C1382 1.363 . S
C1387 C1386 1.415 . S
H1388 C1385 0.999 . S
H1389 C1370 0.913 . S
H1390 C1408 0.951 . S
H1391 C1410 0.951 . S
H1392 C1412 0.950 . S
H1393 C1413 0.950 . S
H1394 C1415 0.950 . S
H1395 C1418 0.950 . S
H1396 C1419 0.950 . S
H1397 C1421 0.950 . S
H1398 C1422 0.950 . S
H1399 C1423 0.951 . S
H1400 C1425 0.951 . S
H1401 C1427 0.950 . S
H1402 C1428 0.950 . S
H1403 C1430 0.950 . S
H1404 C1433 0.950 . S
H1405 C1434 0.950 . S
H1406 C1436 0.950 . S
H1407 C1437 0.950 . S
C1408 H1390 0.951 . S
C1408 C1409 1.366 . S
C1408 C1410 1.388 . S
C1409 C1408 1.366 . S
C1409 C1413 1.385 . S
C1410 H1391 0.951 . S
C1410 C1408 1.388 . S
C1410 C1411 1.366 . S
C1411 C1410 1.366 . S
C1411 C1412 1.414 . S
C1411 C1414 1.499 . S
C1412 H1392 0.950 . S
C1412 C1411 1.414 . S
C1412 C1413 1.374 . S
C1413 H1393 0.950 . S
C1413 C1409 1.385 . S
C1413 C1412 1.374 . S
C1414 C1411 1.499 . S
C1414 C1415 1.373 1_556 S
C1414 C1416 1.389 . S
C1415 H1394 0.950 . S
C1415 C1414 1.373 1_554 S
C1415 C1431 1.377 . S
C1416 C1414 1.389 . S
C1416 C1417 1.524 . S
C1416 C1430 1.377 . S
C1417 C1416 1.524 . S
C1417 C1418 1.397 . S
C1417 C1422 1.363 . S
C1418 H1395 0.950 . S
C1418 C1417 1.397 . S
C1418 C1419 1.334 . S
C1419 H1396 0.950 . S
C1419 C1418 1.334 . S
C1419 C1420 1.287 . S
C1420 C1419 1.287 . S
C1420 C1421 1.524 . S
C1420 H1439 0.913 . S
C1421 H1397 0.950 . S
C1421 C1420 1.524 . S
C1421 C1422 1.415 . S
C1422 H1398 0.950 . S
C1422 C1417 1.363 . S
C1422 C1421 1.415 . S
C1423 H1399 0.951 . S
C1423 C1424 1.366 . S
C1423 C1425 1.388 . S
C1424 C1423 1.366 . S
C1424 C1428 1.385 . S
C1425 H1400 0.951 . S
C1425 C1423 1.388 . S
C1425 C1426 1.366 . S
C1426 C1425 1.366 . S
C1426 C1427 1.414 . S
C1426 C1429 1.499 . S
C1427 H1401 0.950 . S
C1427 C1426 1.414 . S
C1427 C1428 1.374 . S
C1428 H1402 0.950 . S
C1428 C1424 1.385 . S
C1428 C1427 1.374 . S
C1429 C1426 1.499 . S
C1429 C1430 1.373 1_554 S
C1429 C1431 1.389 . S
C1430 H1403 0.950 . S
C1430 C1416 1.377 . S
C1430 C1429 1.373 1_556 S
C1431 C1415 1.377 . S
C1431 C1429 1.389 . S
C1431 C1432 1.524 . S
C1432 C1431 1.524 . S
C1432 C1433 1.397 . S
C1432 C1437 1.363 . S
C1433 H1404 0.950 . S
C1433 C1432 1.397 . S
C1433 C1434 1.334 . S
C1434 H1405 0.950 . S
C1434 C1433 1.334 . S
C1434 C1435 1.287 . S
C1435 C1434 1.287 . S
C1435 C1436 1.524 . S
C1435 H1438 0.999 . S
C1436 H1406 0.950 . S
C1436 C1435 1.524 . S
C1436 C1437 1.415 . S
C1437 H1407 0.950 . S
C1437 C1432 1.363 . S
C1437 C1436 1.415 . S
H1438 C1435 0.999 . S
H1439 C1420 0.913 . S
H1440 C1458 0.951 . S
H1441 C1460 0.951 . S
H1442 C1462 0.950 . S
H1443 C1463 0.950 . S
H1444 C1465 0.950 . S
H1445 C1468 0.950 . S
H1446 C1469 0.950 . S
H1447 C1471 0.950 . S
H1448 C1472 0.950 . S
H1449 C1473 0.951 . S
H1450 C1475 0.951 . S
H1451 C1477 0.950 . S
H1452 C1478 0.950 . S
H1453 C1480 0.950 . S
H1454 C1483 0.950 . S
H1455 C1484 0.950 . S
H1456 C1486 0.950 . S
H1457 C1487 0.950 . S
C1458 H1440 0.951 . S
C1458 C1459 1.366 . S
C1458 C1460 1.388 . S
C1459 C1458 1.366 . S
C1459 C1463 1.385 . S
C1460 H1441 0.951 . S
C1460 C1458 1.388 . S
C1460 C1461 1.366 . S
C1461 C1460 1.366 . S
C1461 C1462 1.414 . S
C1461 C1464 1.499 . S
C1462 H1442 0.950 . S
C1462 C1461 1.414 . S
C1462 C1463 1.374 . S
C1463 H1443 0.950 . S
C1463 C1459 1.385 . S
C1463 C1462 1.374 . S
C1464 C1461 1.499 . S
C1464 C1465 1.373 . S
C1464 C1466 1.389 . S
C1465 H1444 0.950 . S
C1465 C1464 1.373 . S
C1465 C1481 1.377 . S
C1466 C1464 1.389 . S
C1466 C1467 1.524 . S
C1466 C1480 1.377 . S
C1467 C1466 1.524 . S
C1467 C1468 1.397 . S
C1467 C1472 1.363 . S
C1468 H1445 0.950 . S
C1468 C1467 1.397 . S
C1468 C1469 1.334 . S
C1469 H1446 0.950 . S
C1469 C1468 1.334 . S
C1469 C1470 1.287 . S
C1470 C1469 1.287 . S
C1470 C1471 1.524 . S
C1470 H1489 0.913 . S
C1471 H1447 0.950 . S
C1471 C1470 1.524 . S
C1471 C1472 1.415 . S
C1472 H1448 0.950 . S
C1472 C1467 1.363 . S
C1472 C1471 1.415 . S
C1473 H1449 0.951 . S
C1473 C1474 1.366 . S
C1473 C1475 1.388 . S
C1474 C1473 1.366 . S
C1474 C1478 1.385 . S
C1475 H1450 0.951 . S
C1475 C1473 1.388 . S
C1475 C1476 1.366 . S
C1476 C1475 1.366 . S
C1476 C1477 1.414 . S
C1476 C1479 1.499 . S
C1477 H1451 0.950 . S
C1477 C1476 1.414 . S
C1477 C1478 1.374 . S
C1478 H1452 0.950 . S
C1478 C1474 1.385 . S
C1478 C1477 1.374 . S
C1479 C1476 1.499 . S
C1479 C1480 1.373 . S
C1479 C1481 1.389 . S
C1480 H1453 0.950 . S
C1480 C1466 1.377 . S
C1480 C1479 1.373 . S
C1481 C1465 1.377 . S
C1481 C1479 1.389 . S
C1481 C1482 1.524 . S
C1482 C1481 1.524 . S
C1482 C1483 1.397 . S
C1482 C1487 1.363 . S
C1483 H1454 0.950 . S
C1483 C1482 1.397 . S
C1483 C1484 1.334 . S
C1484 H1455 0.950 . S
C1484 C1483 1.334 . S
C1484 C1485 1.287 . S
C1485 C1484 1.287 . S
C1485 C1486 1.524 . S
C1485 H1488 0.999 . S
C1486 H1456 0.950 . S
C1486 C1485 1.524 . S
C1486 C1487 1.415 . S
C1487 H1457 0.950 . S
C1487 C1482 1.363 . S
C1487 C1486 1.415 . S
H1488 C1485 0.999 . S
H1489 C1470 0.913 . S
H1490 C1508 0.951 . S
H1491 C1510 0.951 . S
H1492 C1512 0.950 . S
H1493 C1513 0.950 . S
H1494 C1515 0.950 . S
H1495 C1518 0.950 . S
H1496 C1519 0.950 . S
H1497 C1521 0.950 . S
H1498 C1522 0.950 . S
H1499 C1523 0.951 . S
H1500 C1525 0.951 . S
H1501 C1527 0.950 . S
H1502 C1528 0.950 . S
H1503 C1530 0.950 . S
H1504 C1533 0.950 . S
H1505 C1534 0.950 . S
H1506 C1536 0.950 . S
H1507 C1537 0.927 1_545 S
C1508 H1490 0.951 . S
C1508 C1509 1.366 1_565 S
C1508 C1510 1.388 . S
C1509 C1508 1.366 1_545 S
C1509 C1513 1.385 . S
C1510 H1491 0.951 . S
C1510 C1508 1.388 . S
C1510 C1511 1.366 1_565 S
C1511 C1510 1.366 1_545 S
C1511 C1512 1.414 . S
C1511 C1514 1.499 . S
C1512 H1492 0.950 . S
C1512 C1511 1.414 . S
C1512 C1513 1.374 . S
C1513 H1493 0.950 . S
C1513 C1509 1.385 . S
C1513 C1512 1.374 . S
C1514 C1511 1.499 . S
C1514 C1515 1.373 1_545 S
C1514 C1516 1.389 . S
C1515 H1494 0.950 . S
C1515 C1514 1.373 1_565 S
C1515 C1531 1.377 . S
C1516 C1514 1.389 . S
C1516 C1517 1.524 . S
C1516 C1530 1.377 . S
C1517 C1516 1.524 . S
C1517 C1518 1.397 . S
C1517 C1522 1.363 . S
C1518 H1495 0.950 . S
C1518 C1517 1.397 . S
C1518 C1519 1.334 . S
C1519 H1496 0.950 . S
C1519 C1518 1.334 . S
C1519 C1520 1.287 . S
C1520 C1519 1.287 . S
C1520 C1521 1.524 . S
C1520 H1539 0.913 . S
C1521 H1497 0.950 . S
C1521 C1520 1.524 . S
C1521 C1522 1.415 . S
C1522 H1498 0.950 . S
C1522 C1517 1.363 . S
C1522 C1521 1.415 . S
C1523 H1499 0.951 . S
C1523 C1524 1.366 . S
C1523 C1525 1.388 . S
C1524 C1523 1.366 . S
C1524 C1528 1.385 1_545 S
C1525 H1500 0.951 . S
C1525 C1523 1.388 . S
C1525 C1526 1.366 . S
C1526 C1525 1.366 . S
C1526 C1527 1.414 1_545 S
C1526 C1529 1.499 . S
C1527 H1501 0.950 . S
C1527 C1526 1.414 1_565 S
C1527 C1528 1.374 . S
C1528 H1502 0.950 . S
C1528 C1524 1.385 1_565 S
C1528 C1527 1.374 . S
C1529 C1526 1.499 . S
C1529 C1530 1.373 . S
C1529 C1531 1.389 1_545 S
C1530 H1503 0.950 . S
C1530 C1516 1.377 . S
C1530 C1529 1.373 . S
C1531 C1515 1.377 . S
C1531 C1529 1.389 1_565 S
C1531 C1532 1.524 . S
C1532 C1531 1.524 . S
C1532 C1533 1.397 . S
C1532 C1537 1.363 . S
C1533 H1504 0.950 . S
C1533 C1532 1.397 . S
C1533 C1534 1.334 . S
C1534 H1505 0.950 . S
C1534 C1533 1.334 . S
C1534 C1535 1.287 . S
C1535 C1534 1.287 . S
C1535 C1536 1.524 . S
C1535 H1538 0.999 . S
C1536 H1506 0.950 . S
C1536 C1535 1.524 . S
C1536 C1537 1.415 . S
C1537 H1507 0.927 1_565 S
C1537 C1532 1.363 . S
C1537 C1536 1.415 . S
H1538 C1535 0.999 . S
H1539 C1520 0.913 . S
H1540 C1558 0.951 . S
H1541 C1560 0.951 . S
H1542 C1562 0.948 1_565 S
H1543 C1563 0.950 . S
H1544 C1565 0.950 . S
H1545 C1568 0.950 . S
H1546 C1569 0.950 . S
H1547 C1571 0.950 . S
H1548 C1572 0.950 1_554 S
H1549 C1573 0.952 . S
H1550 C1575 0.957 . S
H1551 C1577 0.950 . S
H1552 C1578 0.950 1_554 S
H1553 C1580 0.950 . S
H1554 C1583 0.950 . S
H1555 C1584 0.950 . S
H1556 C1586 0.950 . S
H1557 C1587 0.950 . S
C1558 H1540 0.951 . S
C1558 C1559 1.366 . S
C1558 C1560 1.388 . S
C1559 C1558 1.366 . S
C1559 C1563 1.385 . S
C1560 H1541 0.951 . S
C1560 C1558 1.388 . S
C1560 C1561 1.366 . S
C1561 C1560 1.366 . S
C1561 C1562 1.419 . S
C1561 C1564 1.499 . S
C1562 H1542 0.948 1_545 S
C1562 C1561 1.419 . S
C1562 C1563 1.376 . S
C1563 H1543 0.950 . S
C1563 C1559 1.385 . S
C1563 C1562 1.376 . S
C1564 C1561 1.499 . S
C1564 C1565 1.373 . S
C1564 C1566 1.389 1_545 S
C1565 H1544 0.950 . S
C1565 C1564 1.373 . S
C1565 C1581 1.377 . S
C1566 C1564 1.389 1_565 S
C1566 C1567 1.524 . S
C1566 C1580 1.377 . S
C1567 C1566 1.524 . S
C1567 C1568 1.397 . S
C1567 C1572 1.363 . S
C1568 H1545 0.950 . S
C1568 C1567 1.397 . S
C1568 C1569 1.334 . S
C1569 H1546 0.950 . S
C1569 C1568 1.334 . S
C1569 C1570 1.287 . S
C1570 C1569 1.287 . S
C1570 C1571 1.524 1_556 S
C1570 H1589 0.913 . S
C1571 H1547 0.950 . S
C1571 C1570 1.524 1_554 S
C1571 C1572 1.415 1_554 S
C1572 H1548 0.950 1_556 S
C1572 C1567 1.363 . S
C1572 C1571 1.415 1_556 S
C1573 H1549 0.952 . S
C1573 C1574 1.366 . S
C1573 C1575 1.388 . S
C1574 C1573 1.366 . S
C1574 C1578 1.385 . S
C1575 H1550 0.957 . S
C1575 C1573 1.388 . S
C1575 C1576 1.366 . S
C1576 C1575 1.366 . S
C1576 C1577 1.414 . S
C1576 C1579 1.499 . S
C1577 H1551 0.950 . S
C1577 C1576 1.414 . S
C1577 C1578 1.374 . S
C1578 H1552 0.950 1_556 S
C1578 C1574 1.385 . S
C1578 C1577 1.374 . S
C1579 C1576 1.499 . S
C1579 C1580 1.373 1_545 S
C1579 C1581 1.389 . S
C1580 H1553 0.950 . S
C1580 C1566 1.377 . S
C1580 C1579 1.373 1_565 S
C1581 C1565 1.377 . S
C1581 C1579 1.389 . S
C1581 C1582 1.524 . S
C1582 C1581 1.524 . S
C1582 C1583 1.397 . S
C1582 C1587 1.363 . S
C1583 H1554 0.950 . S
C1583 C1582 1.397 . S
C1583 C1584 1.334 . S
C1584 H1555 0.950 . S
C1584 C1583 1.334 . S
C1584 C1585 1.287 . S
C1585 C1584 1.287 . S
C1585 C1586 1.524 . S
C1585 H1588 0.999 . S
C1586 H1556 0.950 . S
C1586 C1585 1.524 . S
C1586 C1587 1.415 . S
C1587 H1557 0.950 . S
C1587 C1582 1.363 . S
C1587 C1586 1.415 . S
H1588 C1585 0.999 . S
H1589 C1570 0.913 . S
H1590 C1608 0.951 . S
H1591 C1610 0.951 . S
H1592 C1612 0.950 . S
H1593 C1613 0.950 . S
H1594 C1615 0.950 . S
H1595 C1618 0.950 . S
H1596 C1619 0.950 . S
H1597 C1621 0.950 . S
H1598 C1622 0.950 . S
H1599 C1623 0.951 . S
H1600 C1625 0.951 . S
H1601 C1627 0.950 . S
H1602 C1628 0.950 . S
H1603 C1630 0.950 . S
H1604 C1633 0.950 . S
H1605 C1634 0.950 . S
H1606 C1636 0.950 . S
H1607 C1637 0.950 . S
C1608 H1590 0.951 . S
C1608 C1609 1.366 . S
C1608 C1610 1.388 . S
C1609 C1608 1.366 . S
C1609 C1613 1.385 . S
C1610 H1591 0.951 . S
C1610 C1608 1.388 . S
C1610 C1611 1.366 . S
C1611 C1610 1.366 . S
C1611 C1612 1.414 . S
C1611 C1614 1.499 . S
C1612 H1592 0.950 . S
C1612 C1611 1.414 . S
C1612 C1613 1.374 . S
C1613 H1593 0.950 . S
C1613 C1609 1.385 . S
C1613 C1612 1.374 . S
C1614 C1611 1.499 . S
C1614 C1615 1.373 . S
C1614 C1616 1.389 . S
C1615 H1594 0.950 . S
C1615 C1614 1.373 . S
C1615 C1631 1.377 . S
C1616 C1614 1.389 . S
C1616 C1617 1.524 . S
C1616 C1630 1.377 . S
C1617 C1616 1.524 . S
C1617 C1618 1.397 . S
C1617 C1622 1.363 . S
C1618 H1595 0.950 . S
C1618 C1617 1.397 . S
C1618 C1619 1.334 . S
C1619 H1596 0.950 . S
C1619 C1618 1.334 . S
C1619 C1620 1.287 . S
C1620 C1619 1.287 . S
C1620 C1621 1.524 . S
C1620 H1639 0.913 . S
C1621 H1597 0.950 . S
C1621 C1620 1.524 . S
C1621 C1622 1.415 . S
C1622 H1598 0.950 . S
C1622 C1617 1.363 . S
C1622 C1621 1.415 . S
C1623 H1599 0.951 . S
C1623 C1624 1.366 . S
C1623 C1625 1.388 . S
C1624 C1623 1.366 . S
C1624 C1628 1.385 . S
C1625 H1600 0.951 . S
C1625 C1623 1.388 . S
C1625 C1626 1.366 . S
C1626 C1625 1.366 . S
C1626 C1627 1.414 . S
C1626 C1629 1.499 . S
C1627 H1601 0.950 . S
C1627 C1626 1.414 . S
C1627 C1628 1.374 . S
C1628 H1602 0.950 . S
C1628 C1624 1.385 . S
C1628 C1627 1.374 . S
C1629 C1626 1.499 . S
C1629 C1630 1.373 . S
C1629 C1631 1.389 . S
C1630 H1603 0.950 . S
C1630 C1616 1.377 . S
C1630 C1629 1.373 . S
C1631 C1615 1.377 . S
C1631 C1629 1.389 . S
C1631 C1632 1.524 . S
C1632 C1631 1.524 . S
C1632 C1633 1.397 . S
C1632 C1637 1.363 . S
C1633 H1604 0.950 . S
C1633 C1632 1.397 . S
C1633 C1634 1.334 . S
C1634 H1605 0.950 . S
C1634 C1633 1.334 . S
C1634 C1635 1.287 . S
C1635 C1634 1.287 . S
C1635 C1636 1.524 . S
C1635 H1638 0.999 . S
C1636 H1606 0.950 . S
C1636 C1635 1.524 . S
C1636 C1637 1.415 . S
C1637 H1607 0.950 . S
C1637 C1632 1.363 . S
C1637 C1636 1.415 . S
H1638 C1635 0.999 . S
H1639 C1620 0.913 . S
H1640 C1658 0.951 . S
H1641 C1660 0.951 . S
H1642 C1662 0.950 . S
H1643 C1663 0.950 . S
H1644 C1665 0.950 . S
H1645 C1668 0.950 . S
H1646 C1669 0.950 . S
H1647 C1671 0.950 . S
H1648 C1672 0.950 . S
H1649 C1673 0.951 . S
H1650 C1675 0.951 . S
H1651 C1677 0.950 . S
H1652 C1678 0.950 . S
H1653 C1680 0.950 . S
H1654 C1683 0.950 . S
H1655 C1684 0.950 . S
H1656 C1686 0.950 . S
H1657 C1687 0.950 . S
C1658 H1640 0.951 . S
C1658 C1659 1.366 . S
C1658 C1660 1.388 . S
C1659 C1658 1.366 . S
C1659 C1663 1.385 . S
C1660 H1641 0.951 . S
C1660 C1658 1.388 . S
C1660 C1661 1.366 . S
C1661 C1660 1.366 . S
C1661 C1662 1.414 . S
C1661 C1664 1.499 . S
C1662 H1642 0.950 . S
C1662 C1661 1.414 . S
C1662 C1663 1.374 . S
C1663 H1643 0.950 . S
C1663 C1659 1.385 . S
C1663 C1662 1.374 . S
C1664 C1661 1.499 . S
C1664 C1665 1.373 . S
C1664 C1666 1.389 . S
C1665 H1644 0.950 . S
C1665 C1664 1.373 . S
C1665 C1681 1.377 . S
C1666 C1664 1.389 . S
C1666 C1667 1.524 . S
C1666 C1680 1.377 . S
C1667 C1666 1.524 . S
C1667 C1668 1.397 . S
C1667 C1672 1.363 . S
C1668 H1645 0.950 . S
C1668 C1667 1.397 . S
C1668 C1669 1.334 . S
C1669 H1646 0.950 . S
C1669 C1668 1.334 . S
C1669 C1670 1.287 . S
C1670 C1669 1.287 . S
C1670 C1671 1.524 . S
C1670 H1689 0.913 . S
C1671 H1647 0.950 . S
C1671 C1670 1.524 . S
C1671 C1672 1.415 . S
C1672 H1648 0.950 . S
C1672 C1667 1.363 . S
C1672 C1671 1.415 . S
C1673 H1649 0.951 . S
C1673 C1674 1.366 . S
C1673 C1675 1.388 . S
C1674 C1673 1.366 . S
C1674 C1678 1.385 . S
C1675 H1650 0.951 . S
C1675 C1673 1.388 . S
C1675 C1676 1.366 . S
C1676 C1675 1.366 . S
C1676 C1677 1.414 . S
C1676 C1679 1.499 . S
C1677 H1651 0.950 . S
C1677 C1676 1.414 . S
C1677 C1678 1.374 . S
C1678 H1652 0.950 . S
C1678 C1674 1.385 . S
C1678 C1677 1.374 . S
C1679 C1676 1.499 . S
C1679 C1680 1.373 . S
C1679 C1681 1.389 . S
C1680 H1653 0.950 . S
C1680 C1666 1.377 . S
C1680 C1679 1.373 . S
C1681 C1665 1.377 . S
C1681 C1679 1.389 . S
C1681 C1682 1.524 . S
C1682 C1681 1.524 . S
C1682 C1683 1.397 . S
C1682 C1687 1.363 . S
C1683 H1654 0.950 . S
C1683 C1682 1.397 . S
C1683 C1684 1.334 . S
C1684 H1655 0.950 . S
C1684 C1683 1.334 . S
C1684 C1685 1.287 . S
C1685 C1684 1.287 . S
C1685 C1686 1.524 . S
C1685 H1688 0.999 . S
C1686 H1656 0.950 . S
C1686 C1685 1.524 . S
C1686 C1687 1.415 . S
C1687 H1657 0.950 . S
C1687 C1682 1.363 . S
C1687 C1686 1.415 . S
H1688 C1685 0.999 . S
H1689 C1670 0.913 . S
H1690 C1708 0.951 . S
H1691 C1710 0.951 . S
H1692 C1712 0.950 . S
H1693 C1713 0.950 . S
H1694 C1715 0.950 . S
H1695 C1718 0.950 . S
H1696 C1719 0.950 . S
H1697 C1721 0.950 . S
H1698 C1722 0.950 . S
H1699 C1723 0.951 . S
H1700 C1725 0.951 . S
H1701 C1727 0.950 . S
H1702 C1728 0.950 . S
H1703 C1730 0.954 . S
H1704 C1733 0.950 . S
H1705 C1734 0.950 . S
H1706 C1736 0.950 . S
H1707 C1737 0.950 . S
C1708 H1690 0.951 . S
C1708 C1709 1.366 1_545 S
C1708 C1710 1.388 . S
C1709 C1708 1.366 1_565 S
C1709 C1713 1.385 . S
C1710 H1691 0.951 . S
C1710 C1708 1.388 . S
C1710 C1711 1.366 1_545 S
C1711 C1710 1.366 1_565 S
C1711 C1712 1.414 . S
C1711 C1714 1.499 . S
C1712 H1692 0.950 . S
C1712 C1711 1.414 . S
C1712 C1713 1.374 . S
C1713 H1693 0.950 . S
C1713 C1709 1.385 . S
C1713 C1712 1.374 . S
C1714 C1711 1.499 . S
C1714 C1715 1.373 . S
C1714 C1716 1.400 . S
C1715 H1694 0.950 . S
C1715 C1714 1.373 . S
C1715 C1731 1.377 . S
C1716 C1714 1.400 . S
C1716 C1717 1.522 1_565 S
C1716 C1730 1.374 1_565 S
C1717 C1716 1.522 1_545 S
C1717 C1718 1.378 1_545 S
C1717 C1722 1.381 . S
C1718 H1695 0.950 . S
C1718 C1717 1.378 1_565 S
C1718 C1719 1.334 . S
C1719 H1696 0.950 . S
C1719 C1718 1.334 . S
C1719 C1720 1.287 . S
C1720 C1719 1.287 . S
C1720 C1721 1.524 1_565 S
C1720 H1739 0.913 . S
C1721 H1697 0.950 . S
C1721 C1720 1.524 1_545 S
C1721 C1722 1.415 . S
C1722 H1698 0.950 . S
C1722 C1717 1.381 . S
C1722 C1721 1.415 . S
C1723 H1699 0.951 . S
C1723 C1724 1.366 . S
C1723 C1725 1.388 . S
C1724 C1723 1.366 . S
C1724 C1728 1.385 1_565 S
C1725 H1700 0.951 . S
C1725 C1723 1.388 . S
C1725 C1726 1.366 . S
C1726 C1725 1.366 . S
C1726 C1727 1.414 1_565 S
C1726 C1729 1.499 . S
C1727 H1701 0.950 . S
C1727 C1726 1.414 1_545 S
C1727 C1728 1.374 . S
C1728 H1702 0.950 . S
C1728 C1724 1.385 1_545 S
C1728 C1727 1.374 . S
C1729 C1726 1.499 . S
C1729 C1730 1.371 1_565 S
C1729 C1731 1.389 . S
C1730 H1703 0.954 . S
C1730 C1716 1.374 1_545 S
C1730 C1729 1.371 1_545 S
C1731 C1715 1.377 . S
C1731 C1729 1.389 . S
C1731 C1732 1.524 . S
C1732 C1731 1.524 . S
C1732 C1733 1.397 1_565 S
C1732 C1737 1.363 . S
C1733 H1704 0.950 . S
C1733 C1732 1.397 1_545 S
C1733 C1734 1.334 . S
C1734 H1705 0.950 . S
C1734 C1733 1.334 . S
C1734 C1735 1.287 1_545 S
C1735 C1734 1.287 1_565 S
C1735 C1736 1.524 . S
C1735 H1738 0.999 . S
C1736 H1706 0.950 . S
C1736 C1735 1.524 . S
C1736 C1737 1.415 . S
C1737 H1707 0.950 . S
C1737 C1732 1.363 . S
C1737 C1736 1.415 . S
H1738 C1735 0.999 . S
H1739 C1720 0.913 . S
H1740 C1758 0.951 . S
H1741 C1760 0.951 . S
H1742 C1762 0.954 . S
H1743 C1763 0.956 1_556 S
H1744 C1765 0.950 . S
H1745 C1768 0.950 . S
H1746 C1769 0.950 . S
H1747 C1771 0.950 . S
H1748 C1772 0.950 . S
H1749 C1773 0.960 . S
H1750 C1775 0.951 . S
H1751 C1777 0.950 . S
H1752 C1778 0.950 . S
H1753 C1780 0.950 . S
H1754 C1783 0.950 . S
H1755 C1784 0.950 . S
H1756 C1786 0.950 1_556 S
H1757 C1787 0.950 . S
C1758 H1740 0.951 . S
C1758 C1759 1.366 . S
C1758 C1760 1.388 . S
C1759 C1758 1.366 . S
C1759 C1763 1.379 1_565 S
C1760 H1741 0.951 . S
C1760 C1758 1.388 . S
C1760 C1761 1.366 . S
C1761 C1760 1.366 . S
C1761 C1762 1.411 1_565 S
C1761 C1764 1.499 . S
C1762 H1742 0.954 . S
C1762 C1761 1.411 1_545 S
C1762 C1763 1.374 . S
C1763 H1743 0.956 1_554 S
C1763 C1759 1.379 1_545 S
C1763 C1762 1.374 . S
C1764 C1761 1.499 . S
C1764 C1765 1.373 1_565 S
C1764 C1766 1.389 . S
C1765 H1744 0.950 . S
C1765 C1764 1.373 1_545 S
C1765 C1781 1.377 . S
C1766 C1764 1.389 . S
C1766 C1767 1.524 . S
C1766 C1780 1.377 . S
C1767 C1766 1.524 . S
C1767 C1768 1.397 . S
C1767 C1772 1.363 . S
C1768 H1745 0.950 . S
C1768 C1767 1.397 . S
C1768 C1769 1.334 . S
C1769 H1746 0.950 . S
C1769 C1768 1.334 . S
C1769 C1770 1.287 . S
C1770 C1769 1.287 . S
C1770 C1771 1.524 . S
C1770 H1789 0.913 . S
C1771 H1747 0.950 . S
C1771 C1770 1.524 . S
C1771 C1772 1.415 . S
C1772 H1748 0.950 . S
C1772 C1767 1.363 . S
C1772 C1771 1.415 . S
C1773 H1749 0.960 . S
C1773 C1774 1.357 1_545 S
C1773 C1775 1.390 . S
C1774 C1773 1.357 1_565 S
C1774 C1778 1.385 . S
C1775 H1750 0.951 . S
C1775 C1773 1.390 . S
C1775 C1776 1.366 1_545 S
C1776 C1775 1.366 1_565 S
C1776 C1777 1.414 . S
C1776 C1779 1.499 . S
C1777 H1751 0.950 . S
C1777 C1776 1.414 . S
C1777 C1778 1.374 . S
C1778 H1752 0.950 . S
C1778 C1774 1.385 . S
C1778 C1777 1.374 . S
C1779 C1776 1.499 . S
C1779 C1780 1.373 . S
C1779 C1781 1.389 1_565 S
C1780 H1753 0.950 . S
C1780 C1766 1.377 . S
C1780 C1779 1.373 . S
C1781 C1765 1.377 . S
C1781 C1779 1.389 1_545 S
C1781 C1782 1.524 . S
C1782 C1781 1.524 . S
C1782 C1783 1.397 . S
C1782 C1787 1.363 . S
C1783 H1754 0.950 . S
C1783 C1782 1.397 . S
C1783 C1784 1.334 . S
C1784 H1755 0.950 . S
C1784 C1783 1.334 . S
C1784 C1785 1.287 . S
C1785 C1784 1.287 . S
C1785 C1786 1.524 . S
C1785 H1788 0.999 . S
C1786 H1756 0.950 1_554 S
C1786 C1785 1.524 . S
C1786 C1787 1.415 . S
C1787 H1757 0.950 . S
C1787 C1782 1.363 . S
C1787 C1786 1.415 . S
H1788 C1785 0.999 . S
H1789 C1770 0.913 . S
H1790 C1808 0.951 1_556 S
H1791 C1810 0.951 . S
H1792 C1812 0.950 . S
H1793 C1813 0.950 . S
H1794 C1815 0.950 . S
H1795 C1818 0.950 . S
H1796 C1819 0.950 1_554 S
H1797 C1821 0.950 . S
H1798 C1822 0.950 . S
H1799 C1823 0.951 . S
H1800 C1825 0.951 . S
H1801 C1827 0.950 . S
H1802 C1828 0.950 . S
H1803 C1830 0.950 . S
H1804 C1833 0.950 . S
H1805 C1834 0.950 . S
H1806 C1836 0.950 . S
H1807 C1837 0.950 . S
C1808 H1790 0.951 1_554 S
C1808 C1809 1.366 . S
C1808 C1810 1.388 . S
C1809 C1808 1.366 . S
C1809 C1813 1.385 . S
C1810 H1791 0.951 . S
C1810 C1808 1.388 . S
C1810 C1811 1.366 . S
C1811 C1810 1.366 . S
C1811 C1812 1.414 . S
C1811 C1814 1.499 . S
C1812 H1792 0.950 . S
C1812 C1811 1.414 . S
C1812 C1813 1.374 . S
C1813 H1793 0.950 . S
C1813 C1809 1.385 . S
C1813 C1812 1.374 . S
C1814 C1811 1.499 . S
C1814 C1815 1.373 . S
C1814 C1816 1.389 . S
C1815 H1794 0.950 . S
C1815 C1814 1.373 . S
C1815 C1831 1.377 . S
C1816 C1814 1.389 . S
C1816 C1817 1.524 . S
C1816 C1830 1.377 . S
C1817 C1816 1.524 . S
C1817 C1818 1.397 . S
C1817 C1822 1.363 1_554 S
C1818 H1795 0.950 . S
C1818 C1817 1.397 . S
C1818 C1819 1.334 1_554 S
C1819 H1796 0.950 1_556 S
C1819 C1818 1.334 1_556 S
C1819 C1820 1.287 . S
C1820 C1819 1.287 . S
C1820 C1821 1.524 . S
C1820 H1839 0.913 . S
C1821 H1797 0.950 . S
C1821 C1820 1.524 . S
C1821 C1822 1.415 . S
C1822 H1798 0.950 . S
C1822 C1817 1.363 1_556 S
C1822 C1821 1.415 . S
C1823 H1799 0.951 . S
C1823 C1824 1.366 . S
C1823 C1825 1.388 . S
C1824 C1823 1.366 . S
C1824 C1828 1.385 . S
C1825 H1800 0.951 . S
C1825 C1823 1.388 . S
C1825 C1826 1.366 . S
C1826 C1825 1.366 . S
C1826 C1827 1.414 . S
C1826 C1829 1.499 . S
C1827 H1801 0.950 . S
C1827 C1826 1.414 . S
C1827 C1828 1.374 . S
C1828 H1802 0.950 . S
C1828 C1824 1.385 . S
C1828 C1827 1.374 . S
C1829 C1826 1.499 . S
C1829 C1830 1.373 . S
C1829 C1831 1.389 . S
C1830 H1803 0.950 . S
C1830 C1816 1.377 . S
C1830 C1829 1.373 . S
C1831 C1815 1.377 . S
C1831 C1829 1.389 . S
C1831 C1832 1.524 . S
C1832 C1831 1.524 . S
C1832 C1833 1.397 . S
C1832 C1837 1.363 . S
C1833 H1804 0.950 . S
C1833 C1832 1.397 . S
C1833 C1834 1.334 . S
C1834 H1805 0.950 . S
C1834 C1833 1.334 . S
C1834 C1835 1.287 . S
C1835 C1834 1.287 . S
C1835 C1836 1.524 . S
C1835 H1838 0.999 . S
C1836 H1806 0.950 . S
C1836 C1835 1.524 . S
C1836 C1837 1.415 . S
C1837 H1807 0.950 . S
C1837 C1832 1.363 . S
C1837 C1836 1.415 . S
H1838 C1835 0.999 . S
H1839 C1820 0.913 . S
H1840 C1858 0.951 . S
H1841 C1860 0.951 . S
H1842 C1862 0.950 . S
H1843 C1863 0.950 . S
H1844 C1865 0.950 . S
H1845 C1868 0.950 . S
H1846 C1869 0.950 . S
H1847 C1871 0.950 . S
H1848 C1872 0.950 . S
H1849 C1873 0.951 . S
H1850 C1875 0.951 . S
H1851 C1877 0.950 . S
H1852 C1878 0.950 1_554 S
H1853 C1880 0.950 . S
H1854 C1883 0.950 . S
H1855 C1884 0.950 . S
H1856 C1886 0.950 . S
H1857 C1887 0.950 . S
C1858 H1840 0.951 . S
C1858 C1859 1.366 . S
C1858 C1860 1.388 . S
C1859 C1858 1.366 . S
C1859 C1863 1.385 . S
C1860 H1841 0.951 . S
C1860 C1858 1.388 . S
C1860 C1861 1.366 . S
C1861 C1860 1.366 . S
C1861 C1862 1.414 . S
C1861 C1864 1.499 . S
C1862 H1842 0.950 . S
C1862 C1861 1.414 . S
C1862 C1863 1.374 . S
C1863 H1843 0.950 . S
C1863 C1859 1.385 . S
C1863 C1862 1.374 . S
C1864 C1861 1.499 . S
C1864 C1865 1.373 . S
C1864 C1866 1.389 . S
C1865 H1844 0.950 . S
C1865 C1864 1.373 . S
C1865 C1881 1.377 . S
C1866 C1864 1.389 . S
C1866 C1867 1.524 . S
C1866 C1880 1.377 . S
C1867 C1866 1.524 . S
C1867 C1868 1.397 . S
C1867 C1872 1.363 1_556 S
C1868 H1845 0.950 . S
C1868 C1867 1.397 . S
C1868 C1869 1.334 . S
C1869 H1846 0.950 . S
C1869 C1868 1.334 . S
C1869 C1870 1.287 1_556 S
C1870 C1869 1.287 1_554 S
C1870 C1871 1.524 . S
C1870 H1889 0.913 . S
C1871 H1847 0.950 . S
C1871 C1870 1.524 . S
C1871 C1872 1.415 . S
C1872 H1848 0.950 . S
C1872 C1867 1.363 1_554 S
C1872 C1871 1.415 . S
C1873 H1849 0.951 . S
C1873 C1874 1.366 . S
C1873 C1875 1.388 . S
C1874 C1873 1.366 . S
C1874 C1878 1.385 . S
C1875 H1850 0.951 . S
C1875 C1873 1.388 . S
C1875 C1876 1.366 . S
C1876 C1875 1.366 . S
C1876 C1877 1.414 . S
C1876 C1879 1.499 . S
C1877 H1851 0.950 . S
C1877 C1876 1.414 . S
C1877 C1878 1.374 . S
C1878 H1852 0.950 1_556 S
C1878 C1874 1.385 . S
C1878 C1877 1.374 . S
C1879 C1876 1.499 . S
C1879 C1880 1.373 . S
C1879 C1881 1.389 . S
C1880 H1853 0.950 . S
C1880 C1866 1.377 . S
C1880 C1879 1.373 . S
C1881 C1865 1.377 . S
C1881 C1879 1.389 . S
C1881 C1882 1.524 . S
C1882 C1881 1.524 . S
C1882 C1883 1.397 . S
C1882 C1887 1.363 . S
C1883 H1854 0.950 . S
C1883 C1882 1.397 . S
C1883 C1884 1.334 . S
C1884 H1855 0.950 . S
C1884 C1883 1.334 . S
C1884 C1885 1.287 . S
C1885 C1884 1.287 . S
C1885 C1886 1.524 . S
C1885 H1888 0.999 . S
C1886 H1856 0.950 . S
C1886 C1885 1.524 . S
C1886 C1887 1.415 . S
C1887 H1857 0.950 . S
C1887 C1882 1.363 . S
C1887 C1886 1.415 . S
H1888 C1885 0.999 . S
H1889 C1870 0.913 . S
H1890 C1908 0.951 . S
H1891 C1910 0.951 . S
H1892 C1912 0.950 . S
H1893 C1913 0.950 . S
H1894 C1915 0.950 . S
H1895 C1918 0.950 . S
H1896 C1919 0.950 . S
H1897 C1921 0.950 . S
H1898 C1922 0.950 . S
H1899 C1923 0.951 1_554 S
H1900 C1925 0.951 . S
H1901 C1927 0.950 . S
H1902 C1928 0.950 . S
H1903 C1930 0.950 . S
H1904 C1933 0.950 1_556 S
H1905 C1934 0.950 . S
H1906 C1936 0.950 . S
H1907 C1937 0.950 . S
C1908 H1890 0.951 . S
C1908 C1909 1.366 . S
C1908 C1910 1.388 . S
C1909 C1908 1.366 . S
C1909 C1913 1.385 . S
C1910 H1891 0.951 . S
C1910 C1908 1.388 . S
C1910 C1911 1.366 . S
C1911 C1910 1.366 . S
C1911 C1912 1.414 . S
C1911 C1914 1.499 . S
C1912 H1892 0.950 . S
C1912 C1911 1.414 . S
C1912 C1913 1.374 . S
C1913 H1893 0.950 . S
C1913 C1909 1.385 . S
C1913 C1912 1.374 . S
C1914 C1911 1.499 . S
C1914 C1915 1.373 . S
C1914 C1916 1.389 . S
C1915 H1894 0.950 . S
C1915 C1914 1.373 . S
C1915 C1931 1.377 . S
C1916 C1914 1.389 . S
C1916 C1917 1.524 . S
C1916 C1930 1.377 . S
C1917 C1916 1.524 . S
C1917 C1918 1.397 . S
C1917 C1922 1.363 . S
C1918 H1895 0.950 . S
C1918 C1917 1.397 . S
C1918 C1919 1.334 . S
C1919 H1896 0.950 . S
C1919 C1918 1.334 . S
C1919 C1920 1.287 . S
C1920 C1919 1.287 . S
C1920 C1921 1.524 . S
C1920 H1939 0.913 . S
C1921 H1897 0.950 . S
C1921 C1920 1.524 . S
C1921 C1922 1.415 . S
C1922 H1898 0.950 . S
C1922 C1917 1.363 . S
C1922 C1921 1.415 . S
C1923 H1899 0.951 1_556 S
C1923 C1924 1.366 . S
C1923 C1925 1.388 . S
C1924 C1923 1.366 . S
C1924 C1928 1.385 . S
C1925 H1900 0.951 . S
C1925 C1923 1.388 . S
C1925 C1926 1.366 . S
C1926 C1925 1.366 . S
C1926 C1927 1.414 . S
C1926 C1929 1.499 . S
C1927 H1901 0.950 . S
C1927 C1926 1.414 . S
C1927 C1928 1.374 . S
C1928 H1902 0.950 . S
C1928 C1924 1.385 . S
C1928 C1927 1.374 . S
C1929 C1926 1.499 . S
C1929 C1930 1.373 . S
C1929 C1931 1.389 . S
C1930 H1903 0.950 . S
C1930 C1916 1.377 . S
C1930 C1929 1.373 . S
C1931 C1915 1.377 . S
C1931 C1929 1.389 . S
C1931 C1932 1.524 . S
C1932 C1931 1.524 . S
C1932 C1933 1.397 1_556 S
C1932 C1937 1.363 1_556 S
C1933 H1904 0.950 1_554 S
C1933 C1932 1.397 1_554 S
C1933 C1934 1.334 . S
C1934 H1905 0.950 . S
C1934 C1933 1.334 . S
C1934 C1935 1.287 . S
C1935 C1934 1.287 . S
C1935 C1936 1.524 . S
C1935 H1938 0.999 . S
C1936 H1906 0.950 . S
C1936 C1935 1.524 . S
C1936 C1937 1.415 . S
C1937 H1907 0.950 . S
C1937 C1932 1.363 1_554 S
C1937 C1936 1.415 . S
H1938 C1935 0.999 . S
H1939 C1920 0.913 . S
H1940 C1958 0.951 . S
H1941 C1960 0.951 . S
H1942 C1962 0.950 . S
H1943 C1963 0.950 . S
H1944 C1965 0.950 . S
H1945 C1968 0.950 . S
H1946 C1969 0.950 . S
H1947 C1971 0.950 . S
H1948 C1972 0.950 . S
H1949 C1973 0.951 . S
H1950 C1975 0.951 . S
H1951 C1977 0.950 . S
H1952 C1978 0.950 . S
H1953 C1980 0.950 . S
H1954 C1983 0.950 . S
H1955 C1984 0.950 . S
H1956 C1986 0.950 . S
H1957 C1987 0.950 . S
C1958 H1940 0.951 . S
C1958 C1959 1.366 . S
C1958 C1960 1.388 . S
C1959 C1958 1.366 . S
C1959 C1963 1.385 . S
C1960 H1941 0.951 . S
C1960 C1958 1.388 . S
C1960 C1961 1.366 . S
C1961 C1960 1.366 . S
C1961 C1962 1.414 . S
C1961 C1964 1.499 . S
C1962 H1942 0.950 . S
C1962 C1961 1.414 . S
C1962 C1963 1.374 . S
C1963 H1943 0.950 . S
C1963 C1959 1.385 . S
C1963 C1962 1.374 . S
C1964 C1961 1.499 . S
C1964 C1965 1.373 . S
C1964 C1966 1.389 . S
C1965 H1944 0.950 . S
C1965 C1964 1.373 . S
C1965 C1981 1.377 . S
C1966 C1964 1.389 . S
C1966 C1967 1.524 . S
C1966 C1980 1.377 . S
C1967 C1966 1.524 . S
C1967 C1968 1.397 . S
C1967 C1972 1.363 . S
C1968 H1945 0.950 . S
C1968 C1967 1.397 . S
C1968 C1969 1.334 . S
C1969 H1946 0.950 . S
C1969 C1968 1.334 . S
C1969 C1970 1.287 . S
C1970 C1969 1.287 . S
C1970 C1971 1.524 . S
C1970 H1989 0.913 . S
C1971 H1947 0.950 . S
C1971 C1970 1.524 . S
C1971 C1972 1.415 . S
C1972 H1948 0.950 . S
C1972 C1967 1.363 . S
C1972 C1971 1.415 . S
C1973 H1949 0.951 . S
C1973 C1974 1.366 . S
C1973 C1975 1.388 . S
C1974 C1973 1.366 . S
C1974 C1978 1.385 . S
C1975 H1950 0.951 . S
C1975 C1973 1.388 . S
C1975 C1976 1.366 . S
C1976 C1975 1.366 . S
C1976 C1977 1.414 . S
C1976 C1979 1.499 . S
C1977 H1951 0.950 . S
C1977 C1976 1.414 . S
C1977 C1978 1.374 . S
C1978 H1952 0.950 . S
C1978 C1974 1.385 . S
C1978 C1977 1.374 . S
C1979 C1976 1.499 . S
C1979 C1980 1.373 . S
C1979 C1981 1.389 . S
C1980 H1953 0.950 . S
C1980 C1966 1.377 . S
C1980 C1979 1.373 . S
C1981 C1965 1.377 . S
C1981 C1979 1.389 . S
C1981 C1982 1.524 . S
C1982 C1981 1.524 . S
C1982 C1983 1.397 . S
C1982 C1987 1.363 . S
C1983 H1954 0.950 . S
C1983 C1982 1.397 . S
C1983 C1984 1.334 . S
C1984 H1955 0.950 . S
C1984 C1983 1.334 . S
C1984 C1985 1.287 . S
C1985 C1984 1.287 . S
C1985 C1986 1.524 . S
C1985 H1988 0.999 . S
C1986 H1956 0.950 . S
C1986 C1985 1.524 . S
C1986 C1987 1.415 . S
C1987 H1957 0.950 . S
C1987 C1982 1.363 . S
C1987 C1986 1.415 . S
H1988 C1985 0.999 . S
H1989 C1970 0.913 . S
H1990 C2008 0.951 . S
H1991 C2010 0.951 . S
H1992 C2012 0.950 . S
H1993 C2013 0.950 . S
H1994 C2015 0.950 . S
H1995 C2018 0.950 . S
H1996 C2019 0.950 . S
H1997 C2021 0.950 . S
H1998 C2022 0.950 . S
H1999 C2023 0.951 . S
H2000 C2025 0.951 . S
H2001 C2027 0.950 . S
H2002 C2028 0.950 . S
H2003 C2030 0.950 . S
H2004 C2033 0.950 . S
H2005 C2034 0.950 . S
H2006 C2036 0.950 . S
H2007 C2037 0.950 . S
C2008 H1990 0.951 . S
C2008 C2009 1.366 . S
C2008 C2010 1.388 . S
C2009 C2008 1.366 . S
C2009 C2013 1.385 . S
C2010 H1991 0.951 . S
C2010 C2008 1.388 . S
C2010 C2011 1.366 . S
C2011 C2010 1.366 . S
C2011 C2012 1.414 . S
C2011 C2014 1.499 . S
C2012 H1992 0.950 . S
C2012 C2011 1.414 . S
C2012 C2013 1.374 . S
C2013 H1993 0.950 . S
C2013 C2009 1.385 . S
C2013 C2012 1.374 . S
C2014 C2011 1.499 . S
C2014 C2015 1.373 . S
C2014 C2016 1.389 . S
C2015 H1994 0.950 . S
C2015 C2014 1.373 . S
C2015 C2031 1.377 . S
C2016 C2014 1.389 . S
C2016 C2017 1.524 . S
C2016 C2030 1.377 . S
C2017 C2016 1.524 . S
C2017 C2018 1.397 . S
C2017 C2022 1.363 . S
C2018 H1995 0.950 . S
C2018 C2017 1.397 . S
C2018 C2019 1.334 . S
C2019 H1996 0.950 . S
C2019 C2018 1.334 . S
C2019 C2020 1.287 . S
C2020 C2019 1.287 . S
C2020 C2021 1.524 . S
C2020 H2039 0.913 . S
C2021 H1997 0.950 . S
C2021 C2020 1.524 . S
C2021 C2022 1.415 . S
C2022 H1998 0.950 . S
C2022 C2017 1.363 . S
C2022 C2021 1.415 . S
C2023 H1999 0.951 . S
C2023 C2024 1.366 . S
C2023 C2025 1.388 . S
C2024 C2023 1.366 . S
C2024 C2028 1.385 . S
C2025 H2000 0.951 . S
C2025 C2023 1.388 . S
C2025 C2026 1.366 . S
C2026 C2025 1.366 . S
C2026 C2027 1.414 . S
C2026 C2029 1.499 . S
C2027 H2001 0.950 . S
C2027 C2026 1.414 . S
C2027 C2028 1.374 . S
C2028 H2002 0.950 . S
C2028 C2024 1.385 . S
C2028 C2027 1.374 . S
C2029 C2026 1.499 . S
C2029 C2030 1.373 . S
C2029 C2031 1.389 . S
C2030 H2003 0.950 . S
C2030 C2016 1.377 . S
C2030 C2029 1.373 . S
C2031 C2015 1.377 . S
C2031 C2029 1.389 . S
C2031 C2032 1.524 . S
C2032 C2031 1.524 . S
C2032 C2033 1.397 . S
C2032 C2037 1.363 . S
C2033 H2004 0.950 . S
C2033 C2032 1.397 . S
C2033 C2034 1.334 . S
C2034 H2005 0.950 . S
C2034 C2033 1.334 . S
C2034 C2035 1.287 . S
C2035 C2034 1.287 . S
C2035 C2036 1.524 . S
C2035 H2038 0.999 . S
C2036 H2006 0.950 . S
C2036 C2035 1.524 . S
C2036 C2037 1.415 . S
C2037 H2007 0.950 . S
C2037 C2032 1.363 . S
C2037 C2036 1.415 . S
H2038 C2035 0.999 . S
H2039 C2020 0.913 . S
H2040 C2058 0.951 . S
H2041 C2060 0.951 . S
H2042 C2062 0.950 . S
H2043 C2063 0.950 . S
H2044 C2065 0.950 . S
H2045 C2068 0.950 . S
H2046 C2069 0.950 . S
H2047 C2071 0.950 . S
H2048 C2072 0.950 . S
H2049 C2073 0.951 1_556 S
H2050 C2075 0.951 . S
H2051 C2077 0.950 . S
H2052 C2078 0.950 . S
H2053 C2080 0.950 . S
H2054 C2083 0.950 . S
H2055 C2084 0.950 . S
H2056 C2086 0.950 1_556 S
H2057 C2087 0.950 . S
C2058 H2040 0.951 . S
C2058 C2059 1.366 . S
C2058 C2060 1.388 . S
C2059 C2058 1.366 . S
C2059 C2063 1.385 . S
C2060 H2041 0.951 . S
C2060 C2058 1.388 . S
C2060 C2061 1.366 . S
C2061 C2060 1.366 . S
C2061 C2062 1.414 . S
C2061 C2064 1.499 . S
C2062 H2042 0.950 . S
C2062 C2061 1.414 . S
C2062 C2063 1.374 . S
C2063 H2043 0.950 . S
C2063 C2059 1.385 . S
C2063 C2062 1.374 . S
C2064 C2061 1.499 . S
C2064 C2065 1.373 . S
C2064 C2066 1.389 . S
C2065 H2044 0.950 . S
C2065 C2064 1.373 . S
C2065 C2081 1.377 . S
C2066 C2064 1.389 . S
C2066 C2067 1.524 . S
C2066 C2080 1.377 . S
C2067 C2066 1.524 . S
C2067 C2068 1.397 . S
C2067 C2072 1.363 . S
C2068 H2045 0.950 . S
C2068 C2067 1.397 . S
C2068 C2069 1.334 . S
C2069 H2046 0.950 . S
C2069 C2068 1.334 . S
C2069 C2070 1.287 . S
C2070 C2069 1.287 . S
C2070 C2071 1.524 . S
C2070 H2089 0.913 . S
C2071 H2047 0.950 . S
C2071 C2070 1.524 . S
C2071 C2072 1.415 . S
C2072 H2048 0.950 . S
C2072 C2067 1.363 . S
C2072 C2071 1.415 . S
C2073 H2049 0.951 1_554 S
C2073 C2074 1.366 . S
C2073 C2075 1.388 . S
C2074 C2073 1.366 . S
C2074 C2078 1.385 . S
C2075 H2050 0.951 . S
C2075 C2073 1.388 . S
C2075 C2076 1.366 . S
C2076 C2075 1.366 . S
C2076 C2077 1.414 . S
C2076 C2079 1.499 . S
C2077 H2051 0.950 . S
C2077 C2076 1.414 . S
C2077 C2078 1.374 . S
C2078 H2052 0.950 . S
C2078 C2074 1.385 . S
C2078 C2077 1.374 . S
C2079 C2076 1.499 . S
C2079 C2080 1.373 . S
C2079 C2081 1.389 . S
C2080 H2053 0.950 . S
C2080 C2066 1.377 . S
C2080 C2079 1.373 . S
C2081 C2065 1.377 . S
C2081 C2079 1.389 . S
C2081 C2082 1.524 . S
C2082 C2081 1.524 . S
C2082 C2083 1.397 . S
C2082 C2087 1.363 . S
C2083 H2054 0.950 . S
C2083 C2082 1.397 . S
C2083 C2084 1.334 . S
C2084 H2055 0.950 . S
C2084 C2083 1.334 . S
C2084 C2085 1.287 . S
C2085 C2084 1.287 . S
C2085 C2086 1.524 . S
C2085 H2088 0.999 . S
C2086 H2056 0.950 1_554 S
C2086 C2085 1.524 . S
C2086 C2087 1.415 . S
C2087 H2057 0.950 . S
C2087 C2082 1.363 . S
C2087 C2086 1.415 . S
H2088 C2085 0.999 . S
H2089 C2070 0.913 . S
H2090 C2108 0.951 . S
H2091 C2110 0.951 . S
H2092 C2112 0.950 . S
H2093 C2113 0.950 . S
H2094 C2115 0.950 . S
H2095 C2118 0.950 . S
H2096 C2119 0.950 . S
H2097 C2121 0.950 . S
H2098 C2122 0.950 . S
H2099 C2123 0.951 1_556 S
H2100 C2125 0.951 . S
H2101 C2127 0.950 . S
H2102 C2128 0.950 . S
H2103 C2130 0.950 . S
H2104 C2133 0.950 . S
H2105 C2134 0.950 . S
H2106 C2136 0.950 . S
H2107 C2137 0.950 1_556 S
C2108 H2090 0.951 . S
C2108 C2109 1.366 . S
C2108 C2110 1.388 . S
C2109 C2108 1.366 . S
C2109 C2113 1.385 . S
C2110 H2091 0.951 . S
C2110 C2108 1.388 . S
C2110 C2111 1.366 . S
C2111 C2110 1.366 . S
C2111 C2112 1.414 . S
C2111 C2114 1.499 . S
C2112 H2092 0.950 . S
C2112 C2111 1.414 . S
C2112 C2113 1.374 . S
C2113 H2093 0.950 . S
C2113 C2109 1.385 . S
C2113 C2112 1.374 . S
C2114 C2111 1.499 . S
C2114 C2115 1.373 . S
C2114 C2116 1.389 . S
C2115 H2094 0.950 . S
C2115 C2114 1.373 . S
C2115 C2131 1.377 . S
C2116 C2114 1.389 . S
C2116 C2117 1.524 . S
C2116 C2130 1.377 . S
C2117 C2116 1.524 . S
C2117 C2118 1.397 . S
C2117 C2122 1.363 . S
C2118 H2095 0.950 . S
C2118 C2117 1.397 . S
C2118 C2119 1.334 . S
C2119 H2096 0.950 . S
C2119 C2118 1.334 . S
C2119 C2120 1.287 . S
C2120 C2119 1.287 . S
C2120 C2121 1.524 . S
C2120 H2139 0.913 . S
C2121 H2097 0.950 . S
C2121 C2120 1.524 . S
C2121 C2122 1.415 . S
C2122 H2098 0.950 . S
C2122 C2117 1.363 . S
C2122 C2121 1.415 . S
C2123 H2099 0.951 1_554 S
C2123 C2124 1.366 . S
C2123 C2125 1.388 . S
C2124 C2123 1.366 . S
C2124 C2128 1.385 . S
C2125 H2100 0.951 . S
C2125 C2123 1.388 . S
C2125 C2126 1.366 . S
C2126 C2125 1.366 . S
C2126 C2127 1.414 . S
C2126 C2129 1.499 . S
C2127 H2101 0.950 . S
C2127 C2126 1.414 . S
C2127 C2128 1.374 . S
C2128 H2102 0.950 . S
C2128 C2124 1.385 . S
C2128 C2127 1.374 . S
C2129 C2126 1.499 . S
C2129 C2130 1.373 . S
C2129 C2131 1.389 . S
C2130 H2103 0.950 . S
C2130 C2116 1.377 . S
C2130 C2129 1.373 . S
C2131 C2115 1.377 . S
C2131 C2129 1.389 . S
C2131 C2132 1.524 . S
C2132 C2131 1.524 . S
C2132 C2133 1.397 . S
C2132 C2137 1.363 . S
C2133 H2104 0.950 . S
C2133 C2132 1.397 . S
C2133 C2134 1.334 . S
C2134 H2105 0.950 . S
C2134 C2133 1.334 . S
C2134 C2135 1.287 . S
C2135 C2134 1.287 . S
C2135 C2136 1.524 1_554 S
C2135 H2138 0.999 1_554 S
C2136 H2106 0.950 . S
C2136 C2135 1.524 1_556 S
C2136 C2137 1.415 1_556 S
C2137 H2107 0.950 1_554 S
C2137 C2132 1.363 . S
C2137 C2136 1.415 1_554 S
H2138 C2135 0.999 1_556 S
H2139 C2120 0.913 . S
H2140 C2158 0.951 . S
H2141 C2160 0.951 . S
H2142 C2162 0.950 . S
H2143 C2163 0.950 . S
H2144 C2165 0.950 . S
H2145 C2168 0.950 . S
H2146 C2169 0.950 . S
H2147 C2171 0.950 . S
H2148 C2172 0.950 . S
H2149 C2173 0.951 . S
H2150 C2175 0.951 . S
H2151 C2177 0.950 . S
H2152 C2178 0.950 . S
H2153 C2180 0.950 . S
H2154 C2183 0.950 . S
H2155 C2184 0.950 . S
H2156 C2186 0.950 . S
H2157 C2187 0.950 . S
C2158 H2140 0.951 . S
C2158 C2159 1.366 . S
C2158 C2160 1.388 . S
C2159 C2158 1.366 . S
C2159 C2163 1.385 . S
C2160 H2141 0.951 . S
C2160 C2158 1.388 . S
C2160 C2161 1.366 . S
C2161 C2160 1.366 . S
C2161 C2162 1.414 . S
C2161 C2164 1.499 . S
C2162 H2142 0.950 . S
C2162 C2161 1.414 . S
C2162 C2163 1.374 . S
C2163 H2143 0.950 . S
C2163 C2159 1.385 . S
C2163 C2162 1.374 . S
C2164 C2161 1.499 . S
C2164 C2165 1.373 . S
C2164 C2166 1.389 . S
C2165 H2144 0.950 . S
C2165 C2164 1.373 . S
C2165 C2181 1.377 . S
C2166 C2164 1.389 . S
C2166 C2167 1.524 . S
C2166 C2180 1.377 . S
C2167 C2166 1.524 . S
C2167 C2168 1.397 . S
C2167 C2172 1.363 . S
C2168 H2145 0.950 . S
C2168 C2167 1.397 . S
C2168 C2169 1.334 . S
C2169 H2146 0.950 . S
C2169 C2168 1.334 . S
C2169 C2170 1.287 . S
C2170 C2169 1.287 . S
C2170 C2171 1.524 . S
C2170 H2189 0.913 . S
C2171 H2147 0.950 . S
C2171 C2170 1.524 . S
C2171 C2172 1.415 . S
C2172 H2148 0.950 . S
C2172 C2167 1.363 . S
C2172 C2171 1.415 . S
C2173 H2149 0.951 . S
C2173 C2174 1.366 . S
C2173 C2175 1.388 . S
C2174 C2173 1.366 . S
C2174 C2178 1.385 . S
C2175 H2150 0.951 . S
C2175 C2173 1.388 . S
C2175 C2176 1.366 . S
C2176 C2175 1.366 . S
C2176 C2177 1.414 . S
C2176 C2179 1.499 . S
C2177 H2151 0.950 . S
C2177 C2176 1.414 . S
C2177 C2178 1.374 . S
C2178 H2152 0.950 . S
C2178 C2174 1.385 . S
C2178 C2177 1.374 . S
C2179 C2176 1.499 . S
C2179 C2180 1.373 . S
C2179 C2181 1.389 . S
C2180 H2153 0.950 . S
C2180 C2166 1.377 . S
C2180 C2179 1.373 . S
C2181 C2165 1.377 . S
C2181 C2179 1.389 . S
C2181 C2182 1.524 . S
C2182 C2181 1.524 . S
C2182 C2183 1.397 . S
C2182 C2187 1.363 . S
C2183 H2154 0.950 . S
C2183 C2182 1.397 . S
C2183 C2184 1.334 . S
C2184 H2155 0.950 . S
C2184 C2183 1.334 . S
C2184 C2185 1.287 . S
C2185 C2184 1.287 . S
C2185 C2186 1.524 . S
C2185 H2188 0.999 . S
C2186 H2156 0.950 . S
C2186 C2185 1.524 . S
C2186 C2187 1.415 . S
C2187 H2157 0.950 . S
C2187 C2182 1.363 . S
C2187 C2186 1.415 . S
H2188 C2185 0.999 . S
H2189 C2170 0.913 . S
H2190 C2208 0.951 . S
H2191 C2210 0.951 . S
H2192 C2212 0.950 . S
H2193 C2213 0.950 . S
H2194 C2215 0.950 . S
H2195 C2218 0.950 . S
H2196 C2219 0.950 . S
H2197 C2221 0.950 . S
H2198 C2222 0.950 . S
H2199 C2223 0.951 . S
H2200 C2225 0.951 . S
H2201 C2227 0.950 . S
H2202 C2228 0.950 . S
H2203 C2230 0.950 . S
H2204 C2233 0.950 . S
H2205 C2234 0.950 . S
H2206 C2236 0.950 . S
H2207 C2237 0.950 . S
C2208 H2190 0.951 . S
C2208 C2209 1.366 . S
C2208 C2210 1.388 . S
C2209 C2208 1.366 . S
C2209 C2213 1.385 . S
C2210 H2191 0.951 . S
C2210 C2208 1.388 . S
C2210 C2211 1.366 . S
C2211 C2210 1.366 . S
C2211 C2212 1.414 . S
C2211 C2214 1.499 . S
C2212 H2192 0.950 . S
C2212 C2211 1.414 . S
C2212 C2213 1.374 . S
C2213 H2193 0.950 . S
C2213 C2209 1.385 . S
C2213 C2212 1.374 . S
C2214 C2211 1.499 . S
C2214 C2215 1.373 . S
C2214 C2216 1.389 . S
C2215 H2194 0.950 . S
C2215 C2214 1.373 . S
C2215 C2231 1.377 . S
C2216 C2214 1.389 . S
C2216 C2217 1.524 . S
C2216 C2230 1.377 . S
C2217 C2216 1.524 . S
C2217 C2218 1.397 . S
C2217 C2222 1.363 . S
C2218 H2195 0.950 . S
C2218 C2217 1.397 . S
C2218 C2219 1.334 . S
C2219 H2196 0.950 . S
C2219 C2218 1.334 . S
C2219 C2220 1.287 . S
C2220 C2219 1.287 . S
C2220 C2221 1.524 . S
C2220 H2239 0.913 . S
C2221 H2197 0.950 . S
C2221 C2220 1.524 . S
C2221 C2222 1.415 . S
C2222 H2198 0.950 . S
C2222 C2217 1.363 . S
C2222 C2221 1.415 . S
C2223 H2199 0.951 . S
C2223 C2224 1.366 . S
C2223 C2225 1.388 . S
C2224 C2223 1.366 . S
C2224 C2228 1.385 . S
C2225 H2200 0.951 . S
C2225 C2223 1.388 . S
C2225 C2226 1.366 . S
C2226 C2225 1.366 . S
C2226 C2227 1.414 . S
C2226 C2229 1.499 . S
C2227 H2201 0.950 . S
C2227 C2226 1.414 . S
C2227 C2228 1.374 . S
C2228 H2202 0.950 . S
C2228 C2224 1.385 . S
C2228 C2227 1.374 . S
C2229 C2226 1.499 . S
C2229 C2230 1.373 . S
C2229 C2231 1.389 . S
C2230 H2203 0.950 . S
C2230 C2216 1.377 . S
C2230 C2229 1.373 . S
C2231 C2215 1.377 . S
C2231 C2229 1.389 . S
C2231 C2232 1.524 . S
C2232 C2231 1.524 . S
C2232 C2233 1.397 . S
C2232 C2237 1.363 . S
C2233 H2204 0.950 . S
C2233 C2232 1.397 . S
C2233 C2234 1.334 . S
C2234 H2205 0.950 . S
C2234 C2233 1.334 . S
C2234 C2235 1.287 . S
C2235 C2234 1.287 . S
C2235 C2236 1.524 . S
C2235 H2238 0.999 . S
C2236 H2206 0.950 . S
C2236 C2235 1.524 . S
C2236 C2237 1.415 . S
C2237 H2207 0.950 . S
C2237 C2232 1.363 . S
C2237 C2236 1.415 . S
H2238 C2235 0.999 . S
H2239 C2220 0.913 . S
H2240 C2258 0.951 . S
H2241 C2260 0.951 . S
H2242 C2262 0.950 . S
H2243 C2263 0.950 . S
H2244 C2265 0.950 . S
H2245 C2268 0.950 . S
H2246 C2269 0.950 . S
H2247 C2271 0.950 . S
H2248 C2272 0.950 . S
H2249 C2273 0.951 . S
H2250 C2275 0.951 . S
H2251 C2277 0.950 . S
H2252 C2278 0.950 . S
H2253 C2280 0.950 . S
H2254 C2283 0.950 . S
H2255 C2284 0.950 . S
H2256 C2286 0.950 . S
H2257 C2287 0.950 . S
C2258 H2240 0.951 . S
C2258 C2259 1.366 . S
C2258 C2260 1.388 . S
C2259 C2258 1.366 . S
C2259 C2263 1.385 . S
C2260 H2241 0.951 . S
C2260 C2258 1.388 . S
C2260 C2261 1.366 . S
C2261 C2260 1.366 . S
C2261 C2262 1.414 . S
C2261 C2264 1.499 . S
C2262 H2242 0.950 . S
C2262 C2261 1.414 . S
C2262 C2263 1.374 . S
C2263 H2243 0.950 . S
C2263 C2259 1.385 . S
C2263 C2262 1.374 . S
C2264 C2261 1.499 . S
C2264 C2265 1.373 . S
C2264 C2266 1.389 . S
C2265 H2244 0.950 . S
C2265 C2264 1.373 . S
C2265 C2281 1.377 . S
C2266 C2264 1.389 . S
C2266 C2267 1.524 . S
C2266 C2280 1.377 . S
C2267 C2266 1.524 . S
C2267 C2268 1.397 . S
C2267 C2272 1.363 . S
C2268 H2245 0.950 . S
C2268 C2267 1.397 . S
C2268 C2269 1.334 . S
C2269 H2246 0.950 . S
C2269 C2268 1.334 . S
C2269 C2270 1.287 . S
C2270 C2269 1.287 . S
C2270 C2271 1.524 . S
C2270 H2289 0.913 . S
C2271 H2247 0.950 . S
C2271 C2270 1.524 . S
C2271 C2272 1.415 . S
C2272 H2248 0.950 . S
C2272 C2267 1.363 . S
C2272 C2271 1.415 . S
C2273 H2249 0.951 . S
C2273 C2274 1.366 . S
C2273 C2275 1.388 . S
C2274 C2273 1.366 . S
C2274 C2278 1.385 . S
C2275 H2250 0.951 . S
C2275 C2273 1.388 . S
C2275 C2276 1.366 . S
C2276 C2275 1.366 . S
C2276 C2277 1.414 . S
C2276 C2279 1.499 . S
C2277 H2251 0.950 . S
C2277 C2276 1.414 . S
C2277 C2278 1.374 . S
C2278 H2252 0.950 . S
C2278 C2274 1.385 . S
C2278 C2277 1.374 . S
C2279 C2276 1.499 . S
C2279 C2280 1.373 . S
C2279 C2281 1.389 . S
C2280 H2253 0.950 . S
C2280 C2266 1.377 . S
C2280 C2279 1.373 . S
C2281 C2265 1.377 . S
C2281 C2279 1.389 . S
C2281 C2282 1.524 . S
C2282 C2281 1.524 . S
C2282 C2283 1.397 . S
C2282 C2287 1.363 . S
C2283 H2254 0.950 . S
C2283 C2282 1.397 . S
C2283 C2284 1.334 . S
C2284 H2255 0.950 . S
C2284 C2283 1.334 . S
C2284 C2285 1.287 . S
C2285 C2284 1.287 . S
C2285 C2286 1.524 . S
C2285 H2288 0.999 . S
C2286 H2256 0.950 . S
C2286 C2285 1.524 . S
C2286 C2287 1.415 . S
C2287 H2257 0.950 . S
C2287 C2282 1.363 . S
C2287 C2286 1.415 . S
H2288 C2285 0.999 . S
H2289 C2270 0.913 . S
H2290 C2308 0.951 . S
H2291 C2310 0.951 . S
H2292 C2312 0.950 . S
H2293 C2313 0.950 . S
H2294 C2315 0.950 . S
H2295 C2318 0.950 . S
H2296 C2319 0.950 . S
H2297 C2321 0.950 . S
H2298 C2322 0.950 . S
H2299 C2323 0.951 . S
H2300 C2325 0.951 . S
H2301 C2327 0.950 . S
H2302 C2328 0.950 . S
H2303 C2330 0.950 . S
H2304 C2333 0.950 . S
H2305 C2334 0.950 . S
H2306 C2336 0.950 . S
H2307 C2337 0.950 . S
C2308 H2290 0.951 . S
C2308 C2309 1.366 . S
C2308 C2310 1.388 . S
C2309 C2308 1.366 . S
C2309 C2313 1.385 1_545 S
C2310 H2291 0.951 . S
C2310 C2308 1.388 . S
C2310 C2311 1.366 . S
C2311 C2310 1.366 . S
C2311 C2312 1.414 1_545 S
C2311 C2314 1.498 1_545 S
C2312 H2292 0.950 . S
C2312 C2311 1.414 1_565 S
C2312 C2313 1.374 . S
C2313 H2293 0.950 . S
C2313 C2309 1.385 1_565 S
C2313 C2312 1.374 . S
C2314 C2311 1.498 1_565 S
C2314 C2315 1.375 . S
C2314 C2316 1.388 1_565 S
C2315 H2294 0.950 . S
C2315 C2314 1.375 . S
C2315 C2331 1.377 . S
C2316 C2314 1.388 1_545 S
C2316 C2317 1.524 . S
C2316 C2330 1.377 . S
C2317 C2316 1.524 . S
C2317 C2318 1.397 1_545 S
C2317 C2322 1.363 . S
C2318 H2295 0.950 . S
C2318 C2317 1.397 1_565 S
C2318 C2319 1.334 . S
C2319 H2296 0.950 . S
C2319 C2318 1.334 . S
C2319 C2320 1.287 1_565 S
C2320 C2319 1.287 1_545 S
C2320 C2321 1.524 . S
C2320 H2339 0.913 . S
C2321 H2297 0.950 . S
C2321 C2320 1.524 . S
C2321 C2322 1.415 . S
C2322 H2298 0.950 . S
C2322 C2317 1.363 . S
C2322 C2321 1.415 . S
C2323 H2299 0.951 . S
C2323 C2324 1.366 . S
C2323 C2325 1.388 . S
C2324 C2323 1.366 . S
C2324 C2328 1.385 1_565 S
C2325 H2300 0.951 . S
C2325 C2323 1.388 . S
C2325 C2326 1.366 . S
C2326 C2325 1.366 . S
C2326 C2327 1.414 1_565 S
C2326 C2329 1.498 . S
C2327 H2301 0.950 . S
C2327 C2326 1.414 1_545 S
C2327 C2328 1.374 . S
C2328 H2302 0.950 . S
C2328 C2324 1.385 1_545 S
C2328 C2327 1.374 . S
C2329 C2326 1.498 . S
C2329 C2330 1.375 1_565 S
C2329 C2331 1.388 . S
C2330 H2303 0.950 . S
C2330 C2316 1.377 . S
C2330 C2329 1.375 1_545 S
C2331 C2315 1.377 . S
C2331 C2329 1.388 . S
C2331 C2332 1.524 . S
C2332 C2331 1.524 . S
C2332 C2333 1.397 1_565 S
C2332 C2337 1.363 . S
C2333 H2304 0.950 . S
C2333 C2332 1.397 1_545 S
C2333 C2334 1.334 . S
C2334 H2305 0.950 . S
C2334 C2333 1.334 . S
C2334 C2335 1.287 1_545 S
C2335 C2334 1.287 1_565 S
C2335 C2336 1.524 . S
C2335 H2338 0.999 . S
C2336 H2306 0.950 . S
C2336 C2335 1.524 . S
C2336 C2337 1.415 . S
C2337 H2307 0.950 . S
C2337 C2332 1.363 . S
C2337 C2336 1.415 . S
H2338 C2335 0.999 . S
H2339 C2320 0.913 . S
H2340 C2358 0.951 . S
H2341 C2360 0.951 . S
H2342 C2362 0.950 . S
H2343 C2363 0.950 . S
H2344 C2365 0.950 . S
H2345 C2368 0.950 . S
H2346 C2369 0.950 . S
H2347 C2371 0.950 . S
H2348 C2372 0.961 . S
H2349 C2373 0.951 . S
H2350 C2375 0.951 . S
H2351 C2377 0.950 . S
H2352 C2378 0.950 . S
H2353 C2380 0.950 . S
H2354 C2383 0.950 . S
H2355 C2384 0.950 . S
H2356 C2386 0.950 . S
H2357 C2387 0.950 . S
C2358 H2340 0.951 . S
C2358 C2359 1.366 1_545 S
C2358 C2360 1.388 . S
C2359 C2358 1.366 1_565 S
C2359 C2363 1.385 . S
C2360 H2341 0.951 . S
C2360 C2358 1.388 . S
C2360 C2361 1.366 1_545 S
C2361 C2360 1.366 1_565 S
C2361 C2362 1.414 . S
C2361 C2364 1.499 . S
C2362 H2342 0.950 . S
C2362 C2361 1.414 . S
C2362 C2363 1.374 . S
C2363 H2343 0.950 . S
C2363 C2359 1.385 . S
C2363 C2362 1.374 . S
C2364 C2361 1.499 . S
C2364 C2365 1.373 1_565 S
C2364 C2366 1.389 . S
C2365 H2344 0.950 . S
C2365 C2364 1.373 1_545 S
C2365 C2381 1.377 . S
C2366 C2364 1.389 . S
C2366 C2367 1.524 . S
C2366 C2380 1.377 . S
C2367 C2366 1.524 . S
C2367 C2368 1.397 . S
C2367 C2372 1.363 . S
C2368 H2345 0.950 . S
C2368 C2367 1.397 . S
C2368 C2369 1.334 . S
C2369 H2346 0.950 . S
C2369 C2368 1.334 . S
C2369 C2370 1.287 . S
C2370 C2369 1.287 . S
C2370 C2371 1.524 . S
C2370 H2389 0.913 . S
C2371 H2347 0.950 . S
C2371 C2370 1.524 . S
C2371 C2372 1.415 . S
C2372 H2348 0.961 . S
C2372 C2367 1.363 . S
C2372 C2371 1.415 . S
C2373 H2349 0.951 . S
C2373 C2374 1.366 1_565 S
C2373 C2375 1.388 . S
C2374 C2373 1.366 1_545 S
C2374 C2378 1.385 . S
C2375 H2350 0.951 . S
C2375 C2373 1.388 . S
C2375 C2376 1.366 1_565 S
C2376 C2375 1.366 1_545 S
C2376 C2377 1.414 . S
C2376 C2379 1.499 . S
C2377 H2351 0.950 . S
C2377 C2376 1.414 . S
C2377 C2378 1.374 . S
C2378 H2352 0.950 . S
C2378 C2374 1.385 . S
C2378 C2377 1.374 . S
C2379 C2376 1.499 . S
C2379 C2380 1.373 1_545 S
C2379 C2381 1.389 . S
C2380 H2353 0.950 . S
C2380 C2366 1.377 . S
C2380 C2379 1.373 1_565 S
C2381 C2365 1.377 . S
C2381 C2379 1.389 . S
C2381 C2382 1.524 . S
C2382 C2381 1.524 . S
C2382 C2383 1.397 . S
C2382 C2387 1.363 . S
C2383 H2354 0.950 . S
C2383 C2382 1.397 . S
C2383 C2384 1.334 . S
C2384 H2355 0.950 . S
C2384 C2383 1.334 . S
C2384 C2385 1.287 . S
C2385 C2384 1.287 . S
C2385 C2386 1.524 . S
C2385 H2388 0.999 . S
C2386 H2356 0.950 . S
C2386 C2385 1.524 . S
C2386 C2387 1.415 . S
C2387 H2357 0.950 . S
C2387 C2382 1.363 . S
C2387 C2386 1.415 . S
H2388 C2385 0.999 . S
H2389 C2370 0.913 . S
H2390 C2408 0.951 . S
H2391 C2410 0.951 . S
H2392 C2412 0.950 . S
H2393 C2413 0.950 . S
H2394 C2415 0.950 . S
H2395 C2418 0.950 . S
H2396 C2419 0.950 . S
H2397 C2421 0.950 . S
H2398 C2422 0.950 . S
H2399 C2423 0.951 . S
H2400 C2425 0.951 . S
H2401 C2427 0.950 . S
H2402 C2428 0.950 . S
H2403 C2430 0.950 . S
H2404 C2433 0.950 . S
H2405 C2434 0.950 . S
H2406 C2436 0.950 . S
H2407 C2437 0.950 . S
C2408 H2390 0.951 . S
C2408 C2409 1.366 . S
C2408 C2410 1.388 . S
C2409 C2408 1.366 . S
C2409 C2413 1.385 . S
C2410 H2391 0.951 . S
C2410 C2408 1.388 . S
C2410 C2411 1.366 . S
C2411 C2410 1.366 . S
C2411 C2412 1.414 . S
C2411 C2414 1.499 . S
C2412 H2392 0.950 . S
C2412 C2411 1.414 . S
C2412 C2413 1.374 . S
C2413 H2393 0.950 . S
C2413 C2409 1.385 . S
C2413 C2412 1.374 . S
C2414 C2411 1.499 . S
C2414 C2415 1.373 . S
C2414 C2416 1.389 . S
C2415 H2394 0.950 . S
C2415 C2414 1.373 . S
C2415 C2431 1.377 . S
C2416 C2414 1.389 . S
C2416 C2417 1.524 . S
C2416 C2430 1.377 . S
C2417 C2416 1.524 . S
C2417 C2418 1.397 . S
C2417 C2422 1.363 . S
C2418 H2395 0.950 . S
C2418 C2417 1.397 . S
C2418 C2419 1.334 . S
C2419 H2396 0.950 . S
C2419 C2418 1.334 . S
C2419 C2420 1.287 . S
C2420 C2419 1.287 . S
C2420 C2421 1.524 . S
C2420 H2439 0.913 . S
C2421 H2397 0.950 . S
C2421 C2420 1.524 . S
C2421 C2422 1.415 . S
C2422 H2398 0.950 . S
C2422 C2417 1.363 . S
C2422 C2421 1.415 . S
C2423 H2399 0.951 . S
C2423 C2424 1.366 . S
C2423 C2425 1.388 . S
C2424 C2423 1.366 . S
C2424 C2428 1.385 . S
C2425 H2400 0.951 . S
C2425 C2423 1.388 . S
C2425 C2426 1.366 . S
C2426 C2425 1.366 . S
C2426 C2427 1.414 . S
C2426 C2429 1.499 . S
C2427 H2401 0.950 . S
C2427 C2426 1.414 . S
C2427 C2428 1.374 . S
C2428 H2402 0.950 . S
C2428 C2424 1.385 . S
C2428 C2427 1.374 . S
C2429 C2426 1.499 . S
C2429 C2430 1.373 . S
C2429 C2431 1.389 . S
C2430 H2403 0.950 . S
C2430 C2416 1.377 . S
C2430 C2429 1.373 . S
C2431 C2415 1.377 . S
C2431 C2429 1.389 . S
C2431 C2432 1.524 . S
C2432 C2431 1.524 . S
C2432 C2433 1.397 . S
C2432 C2437 1.363 . S
C2433 H2404 0.950 . S
C2433 C2432 1.397 . S
C2433 C2434 1.334 . S
C2434 H2405 0.950 . S
C2434 C2433 1.334 . S
C2434 C2435 1.287 . S
C2435 C2434 1.287 . S
C2435 C2436 1.524 . S
C2435 H2438 0.999 . S
C2436 H2406 0.950 . S
C2436 C2435 1.524 . S
C2436 C2437 1.415 . S
C2437 H2407 0.950 . S
C2437 C2432 1.363 . S
C2437 C2436 1.415 . S
H2438 C2435 0.999 . S
H2439 C2420 0.913 . S
H2440 C2458 0.951 . S
H2441 C2460 0.951 . S
H2442 C2462 0.950 . S
H2443 C2463 0.950 . S
H2444 C2465 0.950 . S
H2445 C2468 0.950 . S
H2446 C2469 0.950 . S
H2447 C2471 0.950 . S
H2448 C2472 0.950 . S
H2449 C2473 0.951 . S
H2450 C2475 0.951 . S
H2451 C2477 0.950 . S
H2452 C2478 0.950 . S
H2453 C2480 0.950 . S
H2454 C2483 0.950 . S
H2455 C2484 0.950 . S
H2456 C2486 0.950 . S
H2457 C2487 0.950 . S
C2458 H2440 0.951 . S
C2458 C2459 1.366 . S
C2458 C2460 1.388 . S
C2459 C2458 1.366 . S
C2459 C2463 1.385 . S
C2460 H2441 0.951 . S
C2460 C2458 1.388 . S
C2460 C2461 1.366 . S
C2461 C2460 1.366 . S
C2461 C2462 1.414 . S
C2461 C2464 1.499 . S
C2462 H2442 0.950 . S
C2462 C2461 1.414 . S
C2462 C2463 1.374 . S
C2463 H2443 0.950 . S
C2463 C2459 1.385 . S
C2463 C2462 1.374 . S
C2464 C2461 1.499 . S
C2464 C2465 1.373 . S
C2464 C2466 1.389 . S
C2465 H2444 0.950 . S
C2465 C2464 1.373 . S
C2465 C2481 1.377 . S
C2466 C2464 1.389 . S
C2466 C2467 1.524 . S
C2466 C2480 1.377 . S
C2467 C2466 1.524 . S
C2467 C2468 1.397 . S
C2467 C2472 1.363 . S
C2468 H2445 0.950 . S
C2468 C2467 1.397 . S
C2468 C2469 1.334 . S
C2469 H2446 0.950 . S
C2469 C2468 1.334 . S
C2469 C2470 1.287 . S
C2470 C2469 1.287 . S
C2470 C2471 1.524 . S
C2470 H2489 0.913 . S
C2471 H2447 0.950 . S
C2471 C2470 1.524 . S
C2471 C2472 1.415 . S
C2472 H2448 0.950 . S
C2472 C2467 1.363 . S
C2472 C2471 1.415 . S
C2473 H2449 0.951 . S
C2473 C2474 1.366 . S
C2473 C2475 1.388 . S
C2474 C2473 1.366 . S
C2474 C2478 1.385 . S
C2475 H2450 0.951 . S
C2475 C2473 1.388 . S
C2475 C2476 1.366 . S
C2476 C2475 1.366 . S
C2476 C2477 1.414 . S
C2476 C2479 1.499 . S
C2477 H2451 0.950 . S
C2477 C2476 1.414 . S
C2477 C2478 1.374 . S
C2478 H2452 0.950 . S
C2478 C2474 1.385 . S
C2478 C2477 1.374 . S
C2479 C2476 1.499 . S
C2479 C2480 1.373 . S
C2479 C2481 1.389 . S
C2480 H2453 0.950 . S
C2480 C2466 1.377 . S
C2480 C2479 1.373 . S
C2481 C2465 1.377 . S
C2481 C2479 1.389 . S
C2481 C2482 1.524 . S
C2482 C2481 1.524 . S
C2482 C2483 1.397 . S
C2482 C2487 1.363 . S
C2483 H2454 0.950 . S
C2483 C2482 1.397 . S
C2483 C2484 1.334 . S
C2484 H2455 0.950 . S
C2484 C2483 1.334 . S
C2484 C2485 1.287 . S
C2485 C2484 1.287 . S
C2485 C2486 1.524 . S
C2485 H2488 0.999 . S
C2486 H2456 0.950 . S
C2486 C2485 1.524 . S
C2486 C2487 1.415 . S
C2487 H2457 0.950 . S
C2487 C2482 1.363 . S
C2487 C2486 1.415 . S
H2488 C2485 0.999 . S
H2489 C2470 0.913 . S
H2490 C2508 0.951 . S
H2491 C2510 0.951 . S
H2492 C2512 0.950 . S
H2493 C2513 0.950 . S
H2494 C2515 0.950 . S
H2495 C2518 0.950 . S
H2496 C2519 0.950 . S
H2497 C2521 0.950 . S
H2498 C2522 0.950 . S
H2499 C2523 0.951 . S
H2500 C2525 0.951 . S
H2501 C2527 0.950 . S
H2502 C2528 0.950 . S
H2503 C2530 0.950 . S
H2504 C2533 0.950 . S
H2505 C2534 0.950 . S
H2506 C2536 0.950 . S
H2507 C2537 0.950 . S
C2508 H2490 0.951 . S
C2508 C2509 1.366 1_565 S
C2508 C2510 1.388 . S
C2509 C2508 1.366 1_545 S
C2509 C2513 1.385 . S
C2510 H2491 0.951 . S
C2510 C2508 1.388 . S
C2510 C2511 1.366 1_565 S
C2511 C2510 1.366 1_545 S
C2511 C2512 1.414 . S
C2511 C2514 1.499 . S
C2512 H2492 0.950 . S
C2512 C2511 1.414 . S
C2512 C2513 1.374 . S
C2513 H2493 0.950 . S
C2513 C2509 1.385 . S
C2513 C2512 1.374 . S
C2514 C2511 1.499 . S
C2514 C2515 1.373 1_545 S
C2514 C2516 1.389 . S
C2515 H2494 0.950 . S
C2515 C2514 1.373 1_565 S
C2515 C2531 1.377 . S
C2516 C2514 1.389 . S
C2516 C2517 1.524 . S
C2516 C2530 1.377 . S
C2517 C2516 1.524 . S
C2517 C2518 1.397 . S
C2517 C2522 1.363 . S
C2518 H2495 0.950 . S
C2518 C2517 1.397 . S
C2518 C2519 1.334 . S
C2519 H2496 0.950 . S
C2519 C2518 1.334 . S
C2519 C2520 1.287 . S
C2520 C2519 1.287 . S
C2520 C2521 1.524 . S
C2520 H2539 0.913 . S
C2521 H2497 0.950 . S
C2521 C2520 1.524 . S
C2521 C2522 1.415 . S
C2522 H2498 0.950 . S
C2522 C2517 1.363 . S
C2522 C2521 1.415 . S
C2523 H2499 0.951 . S
C2523 C2524 1.366 1_545 S
C2523 C2525 1.388 . S
C2524 C2523 1.366 1_565 S
C2524 C2528 1.385 . S
C2525 H2500 0.951 . S
C2525 C2523 1.388 . S
C2525 C2526 1.366 1_545 S
C2526 C2525 1.366 1_565 S
C2526 C2527 1.414 . S
C2526 C2529 1.499 . S
C2527 H2501 0.950 . S
C2527 C2526 1.414 . S
C2527 C2528 1.374 . S
C2528 H2502 0.950 . S
C2528 C2524 1.385 . S
C2528 C2527 1.374 . S
C2529 C2526 1.499 . S
C2529 C2530 1.373 1_565 S
C2529 C2531 1.389 . S
C2530 H2503 0.950 . S
C2530 C2516 1.377 . S
C2530 C2529 1.373 1_545 S
C2531 C2515 1.377 . S
C2531 C2529 1.389 . S
C2531 C2532 1.524 . S
C2532 C2531 1.524 . S
C2532 C2533 1.397 . S
C2532 C2537 1.363 . S
C2533 H2504 0.950 . S
C2533 C2532 1.397 . S
C2533 C2534 1.334 . S
C2534 H2505 0.950 . S
C2534 C2533 1.334 . S
C2534 C2535 1.287 . S
C2535 C2534 1.287 . S
C2535 C2536 1.524 . S
C2535 H2538 0.999 . S
C2536 H2506 0.950 . S
C2536 C2535 1.524 . S
C2536 C2537 1.415 . S
C2537 H2507 0.950 . S
C2537 C2532 1.363 . S
C2537 C2536 1.415 . S
H2538 C2535 0.999 . S
H2539 C2520 0.913 . S
H2540 C2558 0.951 . S
H2541 C2560 0.951 . S
H2542 C2562 0.950 . S
H2543 C2563 0.950 . S
H2544 C2565 0.950 . S
H2545 C2568 0.950 . S
H2546 C2569 0.950 . S
H2547 C2571 0.950 . S
H2548 C2572 0.950 . S
H2549 C2573 0.951 . S
H2550 C2575 0.951 . S
H2551 C2577 0.950 . S
H2552 C2578 0.950 . S
H2553 C2580 0.950 . S
H2554 C2583 0.950 . S
H2555 C2584 0.950 . S
H2556 C2586 0.950 . S
H2557 C2587 0.950 . S
C2558 H2540 0.951 . S
C2558 C2559 1.366 1_565 S
C2558 C2560 1.388 . S
C2559 C2558 1.366 1_545 S
C2559 C2563 1.385 . S
C2560 H2541 0.951 . S
C2560 C2558 1.388 . S
C2560 C2561 1.366 1_565 S
C2561 C2560 1.366 1_545 S
C2561 C2562 1.414 . S
C2561 C2564 1.499 . S
C2562 H2542 0.950 . S
C2562 C2561 1.414 . S
C2562 C2563 1.374 . S
C2563 H2543 0.950 . S
C2563 C2559 1.385 . S
C2563 C2562 1.374 . S
C2564 C2561 1.499 . S
C2564 C2565 1.373 . S
C2564 C2566 1.389 1_545 S
C2565 H2544 0.950 . S
C2565 C2564 1.373 . S
C2565 C2581 1.377 . S
C2566 C2564 1.389 1_565 S
C2566 C2567 1.524 . S
C2566 C2580 1.377 . S
C2567 C2566 1.524 . S
C2567 C2568 1.397 . S
C2567 C2572 1.363 . S
C2568 H2545 0.950 . S
C2568 C2567 1.397 . S
C2568 C2569 1.334 . S
C2569 H2546 0.950 . S
C2569 C2568 1.334 . S
C2569 C2570 1.287 . S
C2570 C2569 1.287 . S
C2570 C2571 1.524 . S
C2570 H2589 0.913 . S
C2571 H2547 0.950 . S
C2571 C2570 1.524 . S
C2571 C2572 1.415 . S
C2572 H2548 0.950 . S
C2572 C2567 1.363 . S
C2572 C2571 1.415 . S
C2573 H2549 0.951 . S
C2573 C2574 1.366 1_545 S
C2573 C2575 1.388 . S
C2574 C2573 1.366 1_565 S
C2574 C2578 1.385 . S
C2575 H2550 0.951 . S
C2575 C2573 1.388 . S
C2575 C2576 1.366 1_545 S
C2576 C2575 1.366 1_565 S
C2576 C2577 1.414 . S
C2576 C2579 1.499 . S
C2577 H2551 0.950 . S
C2577 C2576 1.414 . S
C2577 C2578 1.374 . S
C2578 H2552 0.950 . S
C2578 C2574 1.385 . S
C2578 C2577 1.374 . S
C2579 C2576 1.499 . S
C2579 C2580 1.373 . S
C2579 C2581 1.389 1_565 S
C2580 H2553 0.950 . S
C2580 C2566 1.377 . S
C2580 C2579 1.373 . S
C2581 C2565 1.377 . S
C2581 C2579 1.389 1_545 S
C2581 C2582 1.524 . S
C2582 C2581 1.524 . S
C2582 C2583 1.397 . S
C2582 C2587 1.363 . S
C2583 H2554 0.950 . S
C2583 C2582 1.397 . S
C2583 C2584 1.334 . S
C2584 H2555 0.950 . S
C2584 C2583 1.334 . S
C2584 C2585 1.287 . S
C2585 C2584 1.287 . S
C2585 C2586 1.524 . S
C2585 H2588 0.999 . S
C2586 H2556 0.950 . S
C2586 C2585 1.524 . S
C2586 C2587 1.415 . S
C2587 H2557 0.950 . S
C2587 C2582 1.363 . S
C2587 C2586 1.415 . S
H2588 C2585 0.999 . S
H2589 C2570 0.913 . S
H2590 C2608 0.951 . S
H2591 C2610 0.951 . S
H2592 C2612 0.950 . S
H2593 C2613 0.950 . S
H2594 C2615 0.950 . S
H2595 C2618 0.950 . S
H2596 C2619 0.950 . S
H2597 C2621 0.950 . S
H2598 C2622 0.950 . S
H2599 C2623 0.951 . S
H2600 C2625 0.951 . S
H2601 C2627 0.950 . S
H2602 C2628 0.950 . S
H2603 C2630 0.950 . S
H2604 C2633 0.950 . S
H2605 C2634 0.950 . S
H2606 C2636 0.950 . S
H2607 C2637 0.950 . S
C2608 H2590 0.951 . S
C2608 C2609 1.366 . S
C2608 C2610 1.388 . S
C2609 C2608 1.366 . S
C2609 C2613 1.385 . S
C2610 H2591 0.951 . S
C2610 C2608 1.388 . S
C2610 C2611 1.366 . S
C2611 C2610 1.366 . S
C2611 C2612 1.414 . S
C2611 C2614 1.499 . S
C2612 H2592 0.950 . S
C2612 C2611 1.414 . S
C2612 C2613 1.374 . S
C2613 H2593 0.950 . S
C2613 C2609 1.385 . S
C2613 C2612 1.374 . S
C2614 C2611 1.499 . S
C2614 C2615 1.373 . S
C2614 C2616 1.389 . S
C2615 H2594 0.950 . S
C2615 C2614 1.373 . S
C2615 C2631 1.377 . S
C2616 C2614 1.389 . S
C2616 C2617 1.524 . S
C2616 C2630 1.377 . S
C2617 C2616 1.524 . S
C2617 C2618 1.397 . S
C2617 C2622 1.363 . S
C2618 H2595 0.950 . S
C2618 C2617 1.397 . S
C2618 C2619 1.334 . S
C2619 H2596 0.950 . S
C2619 C2618 1.334 . S
C2619 C2620 1.287 . S
C2620 C2619 1.287 . S
C2620 C2621 1.524 . S
C2620 H2639 0.913 . S
C2621 H2597 0.950 . S
C2621 C2620 1.524 . S
C2621 C2622 1.415 . S
C2622 H2598 0.950 . S
C2622 C2617 1.363 . S
C2622 C2621 1.415 . S
C2623 H2599 0.951 . S
C2623 C2624 1.366 . S
C2623 C2625 1.388 . S
C2624 C2623 1.366 . S
C2624 C2628 1.385 . S
C2625 H2600 0.951 . S
C2625 C2623 1.388 . S
C2625 C2626 1.366 . S
C2626 C2625 1.366 . S
C2626 C2627 1.414 . S
C2626 C2629 1.499 . S
C2627 H2601 0.950 . S
C2627 C2626 1.414 . S
C2627 C2628 1.374 . S
C2628 H2602 0.950 . S
C2628 C2624 1.385 . S
C2628 C2627 1.374 . S
C2629 C2626 1.499 . S
C2629 C2630 1.373 . S
C2629 C2631 1.389 . S
C2630 H2603 0.950 . S
C2630 C2616 1.377 . S
C2630 C2629 1.373 . S
C2631 C2615 1.377 . S
C2631 C2629 1.389 . S
C2631 C2632 1.524 . S
C2632 C2631 1.524 . S
C2632 C2633 1.397 . S
C2632 C2637 1.363 . S
C2633 H2604 0.950 . S
C2633 C2632 1.397 . S
C2633 C2634 1.334 . S
C2634 H2605 0.950 . S
C2634 C2633 1.334 . S
C2634 C2635 1.287 . S
C2635 C2634 1.287 . S
C2635 C2636 1.524 . S
C2635 H2638 0.999 . S
C2636 H2606 0.950 . S
C2636 C2635 1.524 . S
C2636 C2637 1.415 . S
C2637 H2607 0.950 . S
C2637 C2632 1.363 . S
C2637 C2636 1.415 . S
H2638 C2635 0.999 . S
H2639 C2620 0.913 . S
H2640 C2658 0.951 1_556 S
H2641 C2660 0.951 . S
H2642 C2662 0.950 . S
H2643 C2663 0.950 1_556 S
H2644 C2665 0.950 . S
H2645 C2668 0.950 . S
H2646 C2669 0.950 . S
H2647 C2671 0.950 . S
H2648 C2672 0.950 . S
H2649 C2673 0.951 . S
H2650 C2675 0.951 . S
H2651 C2677 0.950 . S
H2652 C2678 0.950 . S
H2653 C2680 0.950 . S
H2654 C2683 0.950 . S
H2655 C2684 0.950 . S
H2656 C2686 0.950 . S
H2657 C2687 0.950 . S
C2658 H2640 0.951 1_554 S
C2658 C2659 1.366 1_554 S
C2658 C2660 1.388 . S
C2659 C2658 1.366 1_556 S
C2659 C2663 1.385 1_556 S
C2660 H2641 0.951 . S
C2660 C2658 1.388 . S
C2660 C2661 1.366 . S
C2661 C2660 1.366 . S
C2661 C2662 1.414 . S
C2661 C2664 1.499 . S
C2662 H2642 0.950 . S
C2662 C2661 1.414 . S
C2662 C2663 1.374 . S
C2663 H2643 0.950 1_554 S
C2663 C2659 1.385 1_554 S
C2663 C2662 1.374 . S
C2664 C2661 1.499 . S
C2664 C2665 1.373 . S
C2664 C2666 1.389 . S
C2665 H2644 0.950 . S
C2665 C2664 1.373 . S
C2665 C2681 1.377 . S
C2666 C2664 1.389 . S
C2666 C2667 1.524 . S
C2666 C2680 1.377 . S
C2667 C2666 1.524 . S
C2667 C2668 1.397 . S
C2667 C2672 1.363 . S
C2668 H2645 0.950 . S
C2668 C2667 1.397 . S
C2668 C2669 1.334 . S
C2669 H2646 0.950 . S
C2669 C2668 1.334 . S
C2669 C2670 1.287 . S
C2670 C2669 1.287 . S
C2670 C2671 1.524 . S
C2670 H2689 0.913 . S
C2671 H2647 0.950 . S
C2671 C2670 1.524 . S
C2671 C2672 1.415 . S
C2672 H2648 0.950 . S
C2672 C2667 1.363 . S
C2672 C2671 1.415 . S
C2673 H2649 0.951 . S
C2673 C2674 1.366 . S
C2673 C2675 1.388 . S
C2674 C2673 1.366 . S
C2674 C2678 1.385 . S
C2675 H2650 0.951 . S
C2675 C2673 1.388 . S
C2675 C2676 1.366 . S
C2676 C2675 1.366 . S
C2676 C2677 1.414 . S
C2676 C2679 1.499 . S
C2677 H2651 0.950 . S
C2677 C2676 1.414 . S
C2677 C2678 1.374 . S
C2678 H2652 0.950 . S
C2678 C2674 1.385 . S
C2678 C2677 1.374 . S
C2679 C2676 1.499 . S
C2679 C2680 1.373 . S
C2679 C2681 1.389 . S
C2680 H2653 0.950 . S
C2680 C2666 1.377 . S
C2680 C2679 1.373 . S
C2681 C2665 1.377 . S
C2681 C2679 1.389 . S
C2681 C2682 1.524 . S
C2682 C2681 1.524 . S
C2682 C2683 1.397 . S
C2682 C2687 1.363 . S
C2683 H2654 0.950 . S
C2683 C2682 1.397 . S
C2683 C2684 1.334 . S
C2684 H2655 0.950 . S
C2684 C2683 1.334 . S
C2684 C2685 1.287 . S
C2685 C2684 1.287 . S
C2685 C2686 1.524 . S
C2685 H2688 0.999 . S
C2686 H2656 0.950 . S
C2686 C2685 1.524 . S
C2686 C2687 1.415 . S
C2687 H2657 0.950 . S
C2687 C2682 1.363 . S
C2687 C2686 1.415 . S
H2688 C2685 0.999 . S
H2689 C2670 0.913 . S
H2690 C2708 0.951 . S
H2691 C2710 0.951 . S
H2692 C2712 0.950 . S
H2693 C2713 0.950 . S
H2694 C2715 0.950 . S
H2695 C2718 0.950 . S
H2696 C2719 0.950 . S
H2697 C2721 0.950 . S
H2698 C2722 0.950 . S
H2699 C2723 0.951 1_556 S
H2700 C2725 0.951 . S
H2701 C2727 0.950 . S
H2702 C2728 0.950 1_556 S
H2703 C2730 0.950 . S
H2704 C2733 0.950 . S
H2705 C2734 0.950 . S
H2706 C2736 0.950 . S
H2707 C2737 0.950 . S
C2708 H2690 0.951 . S
C2708 C2709 1.366 . S
C2708 C2710 1.388 . S
C2709 C2708 1.366 . S
C2709 C2713 1.385 . S
C2710 H2691 0.951 . S
C2710 C2708 1.388 . S
C2710 C2711 1.366 . S
C2711 C2710 1.366 . S
C2711 C2712 1.414 . S
C2711 C2714 1.499 . S
C2712 H2692 0.950 . S
C2712 C2711 1.414 . S
C2712 C2713 1.374 . S
C2713 H2693 0.950 . S
C2713 C2709 1.385 . S
C2713 C2712 1.374 . S
C2714 C2711 1.499 . S
C2714 C2715 1.373 . S
C2714 C2716 1.389 . S
C2715 H2694 0.950 . S
C2715 C2714 1.373 . S
C2715 C2731 1.377 . S
C2716 C2714 1.389 . S
C2716 C2717 1.524 . S
C2716 C2730 1.377 . S
C2717 C2716 1.524 . S
C2717 C2718 1.397 . S
C2717 C2722 1.363 . S
C2718 H2695 0.950 . S
C2718 C2717 1.397 . S
C2718 C2719 1.334 . S
C2719 H2696 0.950 . S
C2719 C2718 1.334 . S
C2719 C2720 1.287 . S
C2720 C2719 1.287 . S
C2720 C2721 1.524 . S
C2720 H2739 0.913 . S
C2721 H2697 0.950 . S
C2721 C2720 1.524 . S
C2721 C2722 1.415 . S
C2722 H2698 0.950 . S
C2722 C2717 1.363 . S
C2722 C2721 1.415 . S
C2723 H2699 0.951 1_554 S
C2723 C2724 1.366 1_554 S
C2723 C2725 1.388 . S
C2724 C2723 1.366 1_556 S
C2724 C2728 1.385 1_556 S
C2725 H2700 0.951 . S
C2725 C2723 1.388 . S
C2725 C2726 1.366 . S
C2726 C2725 1.366 . S
C2726 C2727 1.414 . S
C2726 C2729 1.499 . S
C2727 H2701 0.950 . S
C2727 C2726 1.414 . S
C2727 C2728 1.374 . S
C2728 H2702 0.950 1_554 S
C2728 C2724 1.385 1_554 S
C2728 C2727 1.374 . S
C2729 C2726 1.499 . S
C2729 C2730 1.373 . S
C2729 C2731 1.389 . S
C2730 H2703 0.950 . S
C2730 C2716 1.377 . S
C2730 C2729 1.373 . S
C2731 C2715 1.377 . S
C2731 C2729 1.389 . S
C2731 C2732 1.524 . S
C2732 C2731 1.524 . S
C2732 C2733 1.397 . S
C2732 C2737 1.363 . S
C2733 H2704 0.950 . S
C2733 C2732 1.397 . S
C2733 C2734 1.334 . S
C2734 H2705 0.950 . S
C2734 C2733 1.334 . S
C2734 C2735 1.287 . S
C2735 C2734 1.287 . S
C2735 C2736 1.524 . S
C2735 H2738 0.999 . S
C2736 H2706 0.950 . S
C2736 C2735 1.524 . S
C2736 C2737 1.415 . S
C2737 H2707 0.950 . S
C2737 C2732 1.363 . S
C2737 C2736 1.415 . S
H2738 C2735 0.999 . S
H2739 C2720 0.913 . S
H2740 C2758 0.951 . S
H2741 C2760 0.951 . S
H2742 C2762 0.950 . S
H2743 C2763 0.950 . S
H2744 C2765 0.950 . S
H2745 C2768 0.950 . S
H2746 C2769 0.950 . S
H2747 C2771 0.950 . S
H2748 C2772 0.950 1_554 S
H2749 C2773 0.951 . S
H2750 C2775 0.951 . S
H2751 C2777 0.950 . S
H2752 C2778 0.950 . S
H2753 C2780 0.950 . S
H2754 C2783 0.950 . S
H2755 C2784 0.950 . S
H2756 C2786 0.950 . S
H2757 C2787 0.950 . S
C2758 H2740 0.951 . S
C2758 C2759 1.366 . S
C2758 C2760 1.388 . S
C2759 C2758 1.366 . S
C2759 C2763 1.385 . S
C2760 H2741 0.951 . S
C2760 C2758 1.388 . S
C2760 C2761 1.366 . S
C2761 C2760 1.366 . S
C2761 C2762 1.414 . S
C2761 C2764 1.499 . S
C2762 H2742 0.950 . S
C2762 C2761 1.414 . S
C2762 C2763 1.374 . S
C2763 H2743 0.950 . S
C2763 C2759 1.385 . S
C2763 C2762 1.374 . S
C2764 C2761 1.499 . S
C2764 C2765 1.373 . S
C2764 C2766 1.387 1_556 S
C2765 H2744 0.950 . S
C2765 C2764 1.373 . S
C2765 C2781 1.377 1_556 S
C2766 C2764 1.387 1_554 S
C2766 C2767 1.523 1_554 S
C2766 C2780 1.381 . S
C2767 C2766 1.523 1_556 S
C2767 C2768 1.397 . S
C2767 C2772 1.363 . S
C2768 H2745 0.950 . S
C2768 C2767 1.397 . S
C2768 C2769 1.334 . S
C2769 H2746 0.950 . S
C2769 C2768 1.334 . S
C2769 C2770 1.287 . S
C2770 C2769 1.287 . S
C2770 C2771 1.524 . S
C2770 H2789 0.913 . S
C2771 H2747 0.950 . S
C2771 C2770 1.524 . S
C2771 C2772 1.415 . S
C2772 H2748 0.950 1_556 S
C2772 C2767 1.363 . S
C2772 C2771 1.415 . S
C2773 H2749 0.951 . S
C2773 C2774 1.366 . S
C2773 C2775 1.388 . S
C2774 C2773 1.366 . S
C2774 C2778 1.385 . S
C2775 H2750 0.951 . S
C2775 C2773 1.388 . S
C2775 C2776 1.366 . S
C2776 C2775 1.366 . S
C2776 C2777 1.414 . S
C2776 C2779 1.499 . S
C2777 H2751 0.950 . S
C2777 C2776 1.414 . S
C2777 C2778 1.374 . S
C2778 H2752 0.950 . S
C2778 C2774 1.385 . S
C2778 C2777 1.374 . S
C2779 C2776 1.499 . S
C2779 C2780 1.373 . S
C2779 C2781 1.389 . S
C2780 H2753 0.950 . S
C2780 C2766 1.381 . S
C2780 C2779 1.373 . S
C2781 C2765 1.377 1_554 S
C2781 C2779 1.389 . S
C2781 C2782 1.524 . S
C2782 C2781 1.524 . S
C2782 C2783 1.397 . S
C2782 C2787 1.363 . S
C2783 H2754 0.950 . S
C2783 C2782 1.397 . S
C2783 C2784 1.334 . S
C2784 H2755 0.950 . S
C2784 C2783 1.334 . S
C2784 C2785 1.287 . S
C2785 C2784 1.287 . S
C2785 C2786 1.524 . S
C2785 H2788 0.999 . S
C2786 H2756 0.950 . S
C2786 C2785 1.524 . S
C2786 C2787 1.415 . S
C2787 H2757 0.950 . S
C2787 C2782 1.363 . S
C2787 C2786 1.415 . S
H2788 C2785 0.999 . S
H2789 C2770 0.913 . S
H2790 C2808 0.951 . S
H2791 C2810 0.951 . S
H2792 C2812 0.950 . S
H2793 C2813 0.950 . S
H2794 C2815 0.950 . S
H2795 C2818 0.950 . S
H2796 C2819 0.950 . S
H2797 C2821 0.950 . S
H2798 C2822 0.950 1_554 S
H2799 C2823 0.951 . S
H2800 C2825 0.951 . S
H2801 C2827 0.950 . S
H2802 C2828 0.950 . S
H2803 C2830 0.950 . S
H2804 C2833 0.950 . S
H2805 C2834 0.950 . S
H2806 C2836 0.950 . S
H2807 C2837 0.950 . S
C2808 H2790 0.951 . S
C2808 C2809 1.366 . S
C2808 C2810 1.388 . S
C2809 C2808 1.366 . S
C2809 C2813 1.385 . S
C2810 H2791 0.951 . S
C2810 C2808 1.388 . S
C2810 C2811 1.366 . S
C2811 C2810 1.366 . S
C2811 C2812 1.414 . S
C2811 C2814 1.499 . S
C2812 H2792 0.950 . S
C2812 C2811 1.414 . S
C2812 C2813 1.374 . S
C2813 H2793 0.950 . S
C2813 C2809 1.385 . S
C2813 C2812 1.374 . S
C2814 C2811 1.499 . S
C2814 C2815 1.373 . S
C2814 C2816 1.378 1_556 S
C2815 H2794 0.950 . S
C2815 C2814 1.373 . S
C2815 C2831 1.377 1_556 S
C2816 C2814 1.378 1_554 S
C2816 C2817 1.517 1_554 S
C2816 C2830 1.396 . S
C2817 C2816 1.517 1_556 S
C2817 C2818 1.397 . S
C2817 C2822 1.363 . S
C2818 H2795 0.950 . S
C2818 C2817 1.397 . S
C2818 C2819 1.334 . S
C2819 H2796 0.950 . S
C2819 C2818 1.334 . S
C2819 C2820 1.287 . S
C2820 C2819 1.287 . S
C2820 C2821 1.524 . S
C2820 H2839 0.913 . S
C2821 H2797 0.950 . S
C2821 C2820 1.524 . S
C2821 C2822 1.415 . S
C2822 H2798 0.950 1_556 S
C2822 C2817 1.363 . S
C2822 C2821 1.415 . S
C2823 H2799 0.951 . S
C2823 C2824 1.366 . S
C2823 C2825 1.388 . S
C2824 C2823 1.366 . S
C2824 C2828 1.385 . S
C2825 H2800 0.951 . S
C2825 C2823 1.388 . S
C2825 C2826 1.366 . S
C2826 C2825 1.366 . S
C2826 C2827 1.414 . S
C2826 C2829 1.499 . S
C2827 H2801 0.950 . S
C2827 C2826 1.414 . S
C2827 C2828 1.374 . S
C2828 H2802 0.950 . S
C2828 C2824 1.385 . S
C2828 C2827 1.374 . S
C2829 C2826 1.499 . S
C2829 C2830 1.373 . S
C2829 C2831 1.389 . S
C2830 H2803 0.950 . S
C2830 C2816 1.396 . S
C2830 C2829 1.373 . S
C2831 C2815 1.377 1_554 S
C2831 C2829 1.389 . S
C2831 C2832 1.524 . S
C2832 C2831 1.524 . S
C2832 C2833 1.397 . S
C2832 C2837 1.363 . S
C2833 H2804 0.950 . S
C2833 C2832 1.397 . S
C2833 C2834 1.334 . S
C2834 H2805 0.950 . S
C2834 C2833 1.334 . S
C2834 C2835 1.287 . S
C2835 C2834 1.287 . S
C2835 C2836 1.524 . S
C2835 H2838 0.999 . S
C2836 H2806 0.950 . S
C2836 C2835 1.524 . S
C2836 C2837 1.415 . S
C2837 H2807 0.950 . S
C2837 C2832 1.363 . S
C2837 C2836 1.415 . S
H2838 C2835 0.999 . S
H2839 C2820 0.913 . S
H2840 C2858 0.951 . S
H2841 C2860 0.951 . S
H2842 C2862 0.950 . S
H2843 C2863 0.950 . S
H2844 C2865 0.950 . S
H2845 C2868 0.950 . S
H2846 C2869 0.950 . S
H2847 C2871 0.950 . S
H2848 C2872 0.950 . S
H2849 C2873 0.951 1_554 S
H2850 C2875 0.951 . S
H2851 C2877 0.950 . S
H2852 C2878 0.950 1_554 S
H2853 C2880 0.950 . S
H2854 C2883 0.950 . S
H2855 C2884 0.950 . S
H2856 C2886 0.950 . S
H2857 C2887 0.950 . S
C2858 H2840 0.951 . S
C2858 C2859 1.366 . S
C2858 C2860 1.388 . S
C2859 C2858 1.366 . S
C2859 C2863 1.385 . S
C2860 H2841 0.951 . S
C2860 C2858 1.388 . S
C2860 C2861 1.366 . S
C2861 C2860 1.366 . S
C2861 C2862 1.414 . S
C2861 C2864 1.499 . S
C2862 H2842 0.950 . S
C2862 C2861 1.414 . S
C2862 C2863 1.374 . S
C2863 H2843 0.950 . S
C2863 C2859 1.385 . S
C2863 C2862 1.374 . S
C2864 C2861 1.499 . S
C2864 C2865 1.373 . S
C2864 C2866 1.389 . S
C2865 H2844 0.950 . S
C2865 C2864 1.373 . S
C2865 C2881 1.377 . S
C2866 C2864 1.389 . S
C2866 C2867 1.524 . S
C2866 C2880 1.377 . S
C2867 C2866 1.524 . S
C2867 C2868 1.397 . S
C2867 C2872 1.363 . S
C2868 H2845 0.950 . S
C2868 C2867 1.397 . S
C2868 C2869 1.334 . S
C2869 H2846 0.950 . S
C2869 C2868 1.334 . S
C2869 C2870 1.287 . S
C2870 C2869 1.287 . S
C2870 C2871 1.524 . S
C2870 H2889 0.913 . S
C2871 H2847 0.950 . S
C2871 C2870 1.524 . S
C2871 C2872 1.415 . S
C2872 H2848 0.950 . S
C2872 C2867 1.363 . S
C2872 C2871 1.415 . S
C2873 H2849 0.951 1_556 S
C2873 C2874 1.366 1_556 S
C2873 C2875 1.388 . S
C2874 C2873 1.366 1_554 S
C2874 C2878 1.385 1_554 S
C2875 H2850 0.951 . S
C2875 C2873 1.388 . S
C2875 C2876 1.366 . S
C2876 C2875 1.366 . S
C2876 C2877 1.414 . S
C2876 C2879 1.499 . S
C2877 H2851 0.950 . S
C2877 C2876 1.414 . S
C2877 C2878 1.374 . S
C2878 H2852 0.950 1_556 S
C2878 C2874 1.385 1_556 S
C2878 C2877 1.374 . S
C2879 C2876 1.499 . S
C2879 C2880 1.373 . S
C2879 C2881 1.389 . S
C2880 H2853 0.950 . S
C2880 C2866 1.377 . S
C2880 C2879 1.373 . S
C2881 C2865 1.377 . S
C2881 C2879 1.389 . S
C2881 C2882 1.524 . S
C2882 C2881 1.524 . S
C2882 C2883 1.397 . S
C2882 C2887 1.363 . S
C2883 H2854 0.950 . S
C2883 C2882 1.397 . S
C2883 C2884 1.334 . S
C2884 H2855 0.950 . S
C2884 C2883 1.334 . S
C2884 C2885 1.287 . S
C2885 C2884 1.287 . S
C2885 C2886 1.524 . S
C2885 H2888 0.999 . S
C2886 H2856 0.950 . S
C2886 C2885 1.524 . S
C2886 C2887 1.415 . S
C2887 H2857 0.950 . S
C2887 C2882 1.363 . S
C2887 C2886 1.415 . S
H2888 C2885 0.999 . S
H2889 C2870 0.913 . S
H2890 C2908 0.951 1_554 S
H2891 C2910 0.951 . S
H2892 C2912 0.950 . S
H2893 C2913 0.950 1_554 S
H2894 C2915 0.950 . S
H2895 C2918 0.950 . S
H2896 C2919 0.950 . S
H2897 C2921 0.950 . S
H2898 C2922 0.950 . S
H2899 C2923 0.951 . S
H2900 C2925 0.951 . S
H2901 C2927 0.950 . S
H2902 C2928 0.950 . S
H2903 C2930 0.950 . S
H2904 C2933 0.950 . S
H2905 C2934 0.950 . S
H2906 C2936 0.950 . S
H2907 C2937 0.950 . S
C2908 H2890 0.951 1_556 S
C2908 C2909 1.366 1_556 S
C2908 C2910 1.388 . S
C2909 C2908 1.366 1_554 S
C2909 C2913 1.385 1_554 S
C2910 H2891 0.951 . S
C2910 C2908 1.388 . S
C2910 C2911 1.366 . S
C2911 C2910 1.366 . S
C2911 C2912 1.414 . S
C2911 C2914 1.499 . S
C2912 H2892 0.950 . S
C2912 C2911 1.414 . S
C2912 C2913 1.374 . S
C2913 H2893 0.950 1_556 S
C2913 C2909 1.385 1_556 S
C2913 C2912 1.374 . S
C2914 C2911 1.499 . S
C2914 C2915 1.373 . S
C2914 C2916 1.389 . S
C2915 H2894 0.950 . S
C2915 C2914 1.373 . S
C2915 C2931 1.377 . S
C2916 C2914 1.389 . S
C2916 C2917 1.524 . S
C2916 C2930 1.377 . S
C2917 C2916 1.524 . S
C2917 C2918 1.397 . S
C2917 C2922 1.363 . S
C2918 H2895 0.950 . S
C2918 C2917 1.397 . S
C2918 C2919 1.334 . S
C2919 H2896 0.950 . S
C2919 C2918 1.334 . S
C2919 C2920 1.287 . S
C2920 C2919 1.287 . S
C2920 C2921 1.524 . S
C2920 H2939 0.913 . S
C2921 H2897 0.950 . S
C2921 C2920 1.524 . S
C2921 C2922 1.415 . S
C2922 H2898 0.950 . S
C2922 C2917 1.363 . S
C2922 C2921 1.415 . S
C2923 H2899 0.951 . S
C2923 C2924 1.366 . S
C2923 C2925 1.388 . S
C2924 C2923 1.366 . S
C2924 C2928 1.385 . S
C2925 H2900 0.951 . S
C2925 C2923 1.388 . S
C2925 C2926 1.366 . S
C2926 C2925 1.366 . S
C2926 C2927 1.414 . S
C2926 C2929 1.499 . S
C2927 H2901 0.950 . S
C2927 C2926 1.414 . S
C2927 C2928 1.374 . S
C2928 H2902 0.950 . S
C2928 C2924 1.385 . S
C2928 C2927 1.374 . S
C2929 C2926 1.499 . S
C2929 C2930 1.373 . S
C2929 C2931 1.389 . S
C2930 H2903 0.950 . S
C2930 C2916 1.377 . S
C2930 C2929 1.373 . S
C2931 C2915 1.377 . S
C2931 C2929 1.389 . S
C2931 C2932 1.524 . S
C2932 C2931 1.524 . S
C2932 C2933 1.397 . S
C2932 C2937 1.363 . S
C2933 H2904 0.950 . S
C2933 C2932 1.397 . S
C2933 C2934 1.334 . S
C2934 H2905 0.950 . S
C2934 C2933 1.334 . S
C2934 C2935 1.287 . S
C2935 C2934 1.287 . S
C2935 C2936 1.524 . S
C2935 H2938 0.999 . S
C2936 H2906 0.950 . S
C2936 C2935 1.524 . S
C2936 C2937 1.415 . S
C2937 H2907 0.950 . S
C2937 C2932 1.363 . S
C2937 C2936 1.415 . S
H2938 C2935 0.999 . S
H2939 C2920 0.913 . S
H2940 C2958 0.951 . S
H2941 C2960 0.951 . S
H2942 C2962 0.950 . S
H2943 C2963 0.950 . S
H2944 C2965 0.950 . S
H2945 C2968 0.950 . S
H2946 C2969 0.950 . S
H2947 C2971 0.950 . S
H2948 C2972 0.950 1_556 S
H2949 C2973 0.951 . S
H2950 C2975 0.951 . S
H2951 C2977 0.950 . S
H2952 C2978 0.950 . S
H2953 C2980 0.950 . S
H2954 C2983 0.950 . S
H2955 C2984 0.950 . S
H2956 C2986 0.950 . S
H2957 C2987 0.950 . S
C2958 H2940 0.951 . S
C2958 C2959 1.366 . S
C2958 C2960 1.388 . S
C2959 C2958 1.366 . S
C2959 C2963 1.385 . S
C2960 H2941 0.951 . S
C2960 C2958 1.388 . S
C2960 C2961 1.366 . S
C2961 C2960 1.366 . S
C2961 C2962 1.414 . S
C2961 C2964 1.499 . S
C2962 H2942 0.950 . S
C2962 C2961 1.414 . S
C2962 C2963 1.374 . S
C2963 H2943 0.950 . S
C2963 C2959 1.385 . S
C2963 C2962 1.374 . S
C2964 C2961 1.499 . S
C2964 C2965 1.373 . S
C2964 C2966 1.389 . S
C2965 H2944 0.950 . S
C2965 C2964 1.373 . S
C2965 C2981 1.377 1_554 S
C2966 C2964 1.389 . S
C2966 C2967 1.524 . S
C2966 C2980 1.377 1_554 S
C2967 C2966 1.524 . S
C2967 C2968 1.397 . S
C2967 C2972 1.363 . S
C2968 H2945 0.950 . S
C2968 C2967 1.397 . S
C2968 C2969 1.334 . S
C2969 H2946 0.950 . S
C2969 C2968 1.334 . S
C2969 C2970 1.287 . S
C2970 C2969 1.287 . S
C2970 C2971 1.524 . S
C2970 H2989 0.913 . S
C2971 H2947 0.950 . S
C2971 C2970 1.524 . S
C2971 C2972 1.415 . S
C2972 H2948 0.950 1_554 S
C2972 C2967 1.363 . S
C2972 C2971 1.415 . S
C2973 H2949 0.951 . S
C2973 C2974 1.366 . S
C2973 C2975 1.388 . S
C2974 C2973 1.366 . S
C2974 C2978 1.385 . S
C2975 H2950 0.951 . S
C2975 C2973 1.388 . S
C2975 C2976 1.366 . S
C2976 C2975 1.366 . S
C2976 C2977 1.414 . S
C2976 C2979 1.499 . S
C2977 H2951 0.950 . S
C2977 C2976 1.414 . S
C2977 C2978 1.374 . S
C2978 H2952 0.950 . S
C2978 C2974 1.385 . S
C2978 C2977 1.374 . S
C2979 C2976 1.499 . S
C2979 C2980 1.373 . S
C2979 C2981 1.389 . S
C2980 H2953 0.950 . S
C2980 C2966 1.377 1_556 S
C2980 C2979 1.373 . S
C2981 C2965 1.377 1_556 S
C2981 C2979 1.389 . S
C2981 C2982 1.524 . S
C2982 C2981 1.524 . S
C2982 C2983 1.397 . S
C2982 C2987 1.363 . S
C2983 H2954 0.950 . S
C2983 C2982 1.397 . S
C2983 C2984 1.334 . S
C2984 H2955 0.950 . S
C2984 C2983 1.334 . S
C2984 C2985 1.287 . S
C2985 C2984 1.287 . S
C2985 C2986 1.524 . S
C2985 H2988 0.999 . S
C2986 H2956 0.950 . S
C2986 C2985 1.524 . S
C2986 C2987 1.415 . S
C2987 H2957 0.950 . S
C2987 C2982 1.363 . S
C2987 C2986 1.415 . S
H2988 C2985 0.999 . S
H2989 C2970 0.913 . S
H2990 C3008 0.951 . S
H2991 C3010 0.951 . S
H2992 C3012 0.950 . S
H2993 C3013 0.950 . S
H2994 C3015 0.950 . S
H2995 C3018 0.950 . S
H2996 C3019 0.950 . S
H2997 C3021 0.950 . S
H2998 C3022 0.950 . S
H2999 C3023 0.951 . S
H3000 C3025 0.951 . S
H3001 C3027 0.950 . S
H3002 C3028 0.950 . S
H3003 C3030 0.950 . S
H3004 C3033 0.950 . S
H3005 C3034 0.950 . S
H3006 C3036 0.950 . S
H3007 C3037 0.950 1_556 S
C3008 H2990 0.951 . S
C3008 C3009 1.366 . S
C3008 C3010 1.388 . S
C3009 C3008 1.366 . S
C3009 C3013 1.385 . S
C3010 H2991 0.951 . S
C3010 C3008 1.388 . S
C3010 C3011 1.366 . S
C3011 C3010 1.366 . S
C3011 C3012 1.414 . S
C3011 C3014 1.499 . S
C3012 H2992 0.950 . S
C3012 C3011 1.414 . S
C3012 C3013 1.374 . S
C3013 H2993 0.950 . S
C3013 C3009 1.385 . S
C3013 C3012 1.374 . S
C3014 C3011 1.499 . S
C3014 C3015 1.373 . S
C3014 C3016 1.389 . S
C3015 H2994 0.950 . S
C3015 C3014 1.373 . S
C3015 C3031 1.377 1_556 S
C3016 C3014 1.389 . S
C3016 C3017 1.524 . S
C3016 C3030 1.377 1_556 S
C3017 C3016 1.524 . S
C3017 C3018 1.397 . S
C3017 C3022 1.363 . S
C3018 H2995 0.950 . S
C3018 C3017 1.397 . S
C3018 C3019 1.334 . S
C3019 H2996 0.950 . S
C3019 C3018 1.334 . S
C3019 C3020 1.287 . S
C3020 C3019 1.287 . S
C3020 C3021 1.524 . S
C3020 H3039 0.913 . S
C3021 H2997 0.950 . S
C3021 C3020 1.524 . S
C3021 C3022 1.415 . S
C3022 H2998 0.950 . S
C3022 C3017 1.363 . S
C3022 C3021 1.415 . S
C3023 H2999 0.951 . S
C3023 C3024 1.366 . S
C3023 C3025 1.388 . S
C3024 C3023 1.366 . S
C3024 C3028 1.385 . S
C3025 H3000 0.951 . S
C3025 C3023 1.388 . S
C3025 C3026 1.366 . S
C3026 C3025 1.366 . S
C3026 C3027 1.414 . S
C3026 C3029 1.499 . S
C3027 H3001 0.950 . S
C3027 C3026 1.414 . S
C3027 C3028 1.374 . S
C3028 H3002 0.950 . S
C3028 C3024 1.385 . S
C3028 C3027 1.374 . S
C3029 C3026 1.499 . S
C3029 C3030 1.373 . S
C3029 C3031 1.389 . S
C3030 H3003 0.950 . S
C3030 C3016 1.377 1_554 S
C3030 C3029 1.373 . S
C3031 C3015 1.377 1_554 S
C3031 C3029 1.389 . S
C3031 C3032 1.524 . S
C3032 C3031 1.524 . S
C3032 C3033 1.397 . S
C3032 C3037 1.363 . S
C3033 H3004 0.950 . S
C3033 C3032 1.397 . S
C3033 C3034 1.334 . S
C3034 H3005 0.950 . S
C3034 C3033 1.334 . S
C3034 C3035 1.287 . S
C3035 C3034 1.287 . S
C3035 C3036 1.524 . S
C3035 H3038 0.999 . S
C3036 H3006 0.950 . S
C3036 C3035 1.524 . S
C3036 C3037 1.415 . S
C3037 H3007 0.950 1_554 S
C3037 C3032 1.363 . S
C3037 C3036 1.415 . S
H3038 C3035 0.999 . S
H3039 C3020 0.913 . S
H3040 C3058 0.951 1_556 S
H3041 C3060 0.951 . S
H3042 C3062 0.950 . S
H3043 C3063 0.941 1_556 S
H3044 C3065 0.950 . S
H3045 C3068 0.950 . S
H3046 C3069 0.950 . S
H3047 C3071 0.950 . S
H3048 C3072 0.950 . S
H3049 C3073 0.951 . S
H3050 C3075 0.951 . S
H3051 C3077 0.950 . S
H3052 C3078 0.950 . S
H3053 C3080 0.950 . S
H3054 C3083 0.950 . S
H3055 C3084 0.950 . S
H3056 C3086 0.950 . S
H3057 C3087 0.950 . S
C3058 H3040 0.951 1_554 S
C3058 C3059 1.366 1_554 S
C3058 C3060 1.388 . S
C3059 C3058 1.366 1_556 S
C3059 C3063 1.377 1_556 S
C3060 H3041 0.951 . S
C3060 C3058 1.388 . S
C3060 C3061 1.366 . S
C3061 C3060 1.366 . S
C3061 C3062 1.414 . S
C3061 C3064 1.499 . S
C3062 H3042 0.950 . S
C3062 C3061 1.414 . S
C3062 C3063 1.390 . S
C3063 H3043 0.941 1_554 S
C3063 C3059 1.377 1_554 S
C3063 C3062 1.390 . S
C3064 C3061 1.499 . S
C3064 C3065 1.373 . S
C3064 C3066 1.389 . S
C3065 H3044 0.950 . S
C3065 C3064 1.373 . S
C3065 C3081 1.377 . S
C3066 C3064 1.389 . S
C3066 C3067 1.524 . S
C3066 C3080 1.377 . S
C3067 C3066 1.524 . S
C3067 C3068 1.397 . S
C3067 C3072 1.363 . S
C3068 H3045 0.950 . S
C3068 C3067 1.397 . S
C3068 C3069 1.334 . S
C3069 H3046 0.950 . S
C3069 C3068 1.334 . S
C3069 C3070 1.287 . S
C3070 C3069 1.287 . S
C3070 C3071 1.524 . S
C3070 H3089 0.913 . S
C3071 H3047 0.950 . S
C3071 C3070 1.524 . S
C3071 C3072 1.415 . S
C3072 H3048 0.950 . S
C3072 C3067 1.363 . S
C3072 C3071 1.415 . S
C3073 H3049 0.951 . S
C3073 C3074 1.366 . S
C3073 C3075 1.388 . S
C3074 C3073 1.366 . S
C3074 C3078 1.385 . S
C3075 H3050 0.951 . S
C3075 C3073 1.388 . S
C3075 C3076 1.366 . S
C3076 C3075 1.366 . S
C3076 C3077 1.414 . S
C3076 C3079 1.499 . S
C3077 H3051 0.950 . S
C3077 C3076 1.414 . S
C3077 C3078 1.374 . S
C3078 H3052 0.950 . S
C3078 C3074 1.385 . S
C3078 C3077 1.374 . S
C3079 C3076 1.499 . S
C3079 C3080 1.373 . S
C3079 C3081 1.389 . S
C3080 H3053 0.950 . S
C3080 C3066 1.377 . S
C3080 C3079 1.373 . S
C3081 C3065 1.377 . S
C3081 C3079 1.389 . S
C3081 C3082 1.524 . S
C3082 C3081 1.524 . S
C3082 C3083 1.397 . S
C3082 C3087 1.363 . S
C3083 H3054 0.950 . S
C3083 C3082 1.397 . S
C3083 C3084 1.334 . S
C3084 H3055 0.950 . S
C3084 C3083 1.334 . S
C3084 C3085 1.287 . S
C3085 C3084 1.287 . S
C3085 C3086 1.524 . S
C3085 H3088 0.999 . S
C3086 H3056 0.950 . S
C3086 C3085 1.524 . S
C3086 C3087 1.415 . S
C3087 H3057 0.950 . S
C3087 C3082 1.363 . S
C3087 C3086 1.415 . S
H3088 C3085 0.999 . S
H3089 C3070 0.913 . S
H3090 C3108 0.951 . S
H3091 C3110 0.951 . S
H3092 C3112 0.950 . S
H3093 C3113 0.950 . S
H3094 C3115 0.950 . S
H3095 C3118 0.950 . S
H3096 C3119 0.950 . S
H3097 C3121 0.950 . S
H3098 C3122 0.950 . S
H3099 C3123 0.951 1_556 S
H3100 C3125 0.951 . S
H3101 C3127 0.950 . S
H3102 C3128 0.943 1_556 S
H3103 C3130 0.950 . S
H3104 C3133 0.950 . S
H3105 C3134 0.950 . S
H3106 C3136 0.950 . S
H3107 C3137 0.950 . S
C3108 H3090 0.951 . S
C3108 C3109 1.366 . S
C3108 C3110 1.388 . S
C3109 C3108 1.366 . S
C3109 C3113 1.385 1_565 S
C3110 H3091 0.951 . S
C3110 C3108 1.388 . S
C3110 C3111 1.366 . S
C3111 C3110 1.366 . S
C3111 C3112 1.414 1_565 S
C3111 C3114 1.504 . S
C3112 H3092 0.950 . S
C3112 C3111 1.414 1_545 S
C3112 C3113 1.374 . S
C3113 H3093 0.950 . S
C3113 C3109 1.385 1_545 S
C3113 C3112 1.374 . S
C3114 C3111 1.504 . S
C3114 C3115 1.327 1_565 S
C3114 C3116 1.434 . S
C3115 H3094 0.950 . S
C3115 C3114 1.327 1_545 S
C3115 C3131 1.377 . S
C3116 C3114 1.434 . S
C3116 C3117 1.524 . S
C3116 C3130 1.377 . S
C3117 C3116 1.524 . S
C3117 C3118 1.397 . S
C3117 C3122 1.363 . S
C3118 H3095 0.950 . S
C3118 C3117 1.397 . S
C3118 C3119 1.334 . S
C3119 H3096 0.950 . S
C3119 C3118 1.334 . S
C3119 C3120 1.287 . S
C3120 C3119 1.287 . S
C3120 C3121 1.524 . S
C3120 H3139 0.913 . S
C3121 H3097 0.950 . S
C3121 C3120 1.524 . S
C3121 C3122 1.415 . S
C3122 H3098 0.950 . S
C3122 C3117 1.363 . S
C3122 C3121 1.415 . S
C3123 H3099 0.951 1_554 S
C3123 C3124 1.366 1_554 S
C3123 C3125 1.388 . S
C3124 C3123 1.366 1_556 S
C3124 C3128 1.379 1_546 S
C3125 H3100 0.951 . S
C3125 C3123 1.388 . S
C3125 C3126 1.366 . S
C3126 C3125 1.366 . S
C3126 C3127 1.414 1_545 S
C3126 C3129 1.502 . S
C3127 H3101 0.950 . S
C3127 C3126 1.414 1_565 S
C3127 C3128 1.386 . S
C3128 H3102 0.943 1_554 S
C3128 C3124 1.379 1_564 S
C3128 C3127 1.386 . S
C3129 C3126 1.502 . S
C3129 C3130 1.338 1_545 S
C3129 C3131 1.423 . S
C3130 H3103 0.950 . S
C3130 C3116 1.377 . S
C3130 C3129 1.338 1_565 S
C3131 C3115 1.377 . S
C3131 C3129 1.423 . S
C3131 C3132 1.524 . S
C3132 C3131 1.524 . S
C3132 C3133 1.397 . S
C3132 C3137 1.363 . S
C3133 H3104 0.950 . S
C3133 C3132 1.397 . S
C3133 C3134 1.334 . S
C3134 H3105 0.950 . S
C3134 C3133 1.334 . S
C3134 C3135 1.287 . S
C3135 C3134 1.287 . S
C3135 C3136 1.524 . S
C3135 H3138 0.999 . S
C3136 H3106 0.950 . S
C3136 C3135 1.524 . S
C3136 C3137 1.415 . S
C3137 H3107 0.950 . S
C3137 C3132 1.363 . S
C3137 C3136 1.415 . S
H3138 C3135 0.999 . S
H3139 C3120 0.913 . S
H3140 C3158 0.951 . S
H3141 C3160 0.951 . S
H3142 C3162 0.948 1_545 S
H3143 C3163 0.947 1_545 S
H3144 C3165 0.950 . S
H3145 C3168 0.950 . S
H3146 C3169 0.950 . S
H3147 C3171 0.950 . S
H3148 C3172 0.950 1_554 S
H3149 C3173 0.951 . S
H3150 C3175 0.951 . S
H3151 C3177 0.950 1_565 S
H3152 C3178 0.944 1_565 S
H3153 C3180 0.950 . S
H3154 C3183 0.950 . S
H3155 C3184 0.950 . S
H3156 C3186 0.950 . S
H3157 C3187 0.950 . S
C3158 H3140 0.951 . S
C3158 C3159 1.366 . S
C3158 C3160 1.388 . S
C3159 C3158 1.366 . S
C3159 C3163 1.385 . S
C3160 H3141 0.951 . S
C3160 C3158 1.388 . S
C3160 C3161 1.366 . S
C3161 C3160 1.366 . S
C3161 C3162 1.416 . S
C3161 C3164 1.499 . S
C3162 H3142 0.948 1_565 S
C3162 C3161 1.416 . S
C3162 C3163 1.374 . S
C3163 H3143 0.947 1_565 S
C3163 C3159 1.385 . S
C3163 C3162 1.374 . S
C3164 C3161 1.499 . S
C3164 C3165 1.373 1_565 S
C3164 C3166 1.389 1_556 S
C3165 H3144 0.950 . S
C3165 C3164 1.373 1_545 S
C3165 C3181 1.377 1_556 S
C3166 C3164 1.389 1_554 S
C3166 C3167 1.524 1_554 S
C3166 C3180 1.377 . S
C3167 C3166 1.524 1_556 S
C3167 C3168 1.397 . S
C3167 C3172 1.363 . S
C3168 H3145 0.950 . S
C3168 C3167 1.397 . S
C3168 C3169 1.334 . S
C3169 H3146 0.950 . S
C3169 C3168 1.334 . S
C3169 C3170 1.287 . S
C3170 C3169 1.287 . S
C3170 C3171 1.524 . S
C3170 H3189 0.913 . S
C3171 H3147 0.950 . S
C3171 C3170 1.524 . S
C3171 C3172 1.415 . S
C3172 H3148 0.950 1_556 S
C3172 C3167 1.363 . S
C3172 C3171 1.415 . S
C3173 H3149 0.951 . S
C3173 C3174 1.366 . S
C3173 C3175 1.388 . S
C3174 C3173 1.366 . S
C3174 C3178 1.392 . S
C3175 H3150 0.951 . S
C3175 C3173 1.388 . S
C3175 C3176 1.366 . S
C3176 C3175 1.366 . S
C3176 C3177 1.414 . S
C3176 C3179 1.499 . S
C3177 H3151 0.950 1_545 S
C3177 C3176 1.414 . S
C3177 C3178 1.373 . S
C3178 H3152 0.944 1_545 S
C3178 C3174 1.392 . S
C3178 C3177 1.373 . S
C3179 C3176 1.499 . S
C3179 C3180 1.373 1_545 S
C3179 C3181 1.389 . S
C3180 H3153 0.950 . S
C3180 C3166 1.377 . S
C3180 C3179 1.373 1_565 S
C3181 C3165 1.377 1_554 S
C3181 C3179 1.389 . S
C3181 C3182 1.524 . S
C3182 C3181 1.524 . S
C3182 C3183 1.397 . S
C3182 C3187 1.363 . S
C3183 H3154 0.950 . S
C3183 C3182 1.397 . S
C3183 C3184 1.334 . S
C3184 H3155 0.950 . S
C3184 C3183 1.334 . S
C3184 C3185 1.287 . S
C3185 C3184 1.287 . S
C3185 C3186 1.524 . S
C3185 H3188 0.999 . S
C3186 H3156 0.950 . S
C3186 C3185 1.524 . S
C3186 C3187 1.415 . S
C3187 H3157 0.950 . S
C3187 C3182 1.363 . S
C3187 C3186 1.415 . S
H3188 C3185 0.999 . S
H3189 C3170 0.913 . S
H3190 C3208 0.951 . S
H3191 C3210 0.951 . S
H3192 C3212 0.950 . S
H3193 C3213 0.950 . S
H3194 C3215 0.950 . S
H3195 C3218 0.950 . S
H3196 C3219 0.950 . S
H3197 C3221 0.950 . S
H3198 C3222 0.950 1_554 S
H3199 C3223 0.951 . S
H3200 C3225 0.951 . S
H3201 C3227 0.950 . S
H3202 C3228 0.950 . S
H3203 C3230 0.950 . S
H3204 C3233 0.950 . S
H3205 C3234 0.950 . S
H3206 C3236 0.950 . S
H3207 C3237 0.950 . S
C3208 H3190 0.951 . S
C3208 C3209 1.366 . S
C3208 C3210 1.388 . S
C3209 C3208 1.366 . S
C3209 C3213 1.385 . S
C3210 H3191 0.951 . S
C3210 C3208 1.388 . S
C3210 C3211 1.366 . S
C3211 C3210 1.366 . S
C3211 C3212 1.414 . S
C3211 C3214 1.499 . S
C3212 H3192 0.950 . S
C3212 C3211 1.414 . S
C3212 C3213 1.374 . S
C3213 H3193 0.950 . S
C3213 C3209 1.385 . S
C3213 C3212 1.374 . S
C3214 C3211 1.499 . S
C3214 C3215 1.373 . S
C3214 C3216 1.389 1_556 S
C3215 H3194 0.950 . S
C3215 C3214 1.373 . S
C3215 C3231 1.377 1_556 S
C3216 C3214 1.389 1_554 S
C3216 C3217 1.524 1_554 S
C3216 C3230 1.377 . S
C3217 C3216 1.524 1_556 S
C3217 C3218 1.397 . S
C3217 C3222 1.363 . S
C3218 H3195 0.950 . S
C3218 C3217 1.397 . S
C3218 C3219 1.334 . S
C3219 H3196 0.950 . S
C3219 C3218 1.334 . S
C3219 C3220 1.287 . S
C3220 C3219 1.287 . S
C3220 C3221 1.524 . S
C3220 H3239 0.913 . S
C3221 H3197 0.950 . S
C3221 C3220 1.524 . S
C3221 C3222 1.415 . S
C3222 H3198 0.950 1_556 S
C3222 C3217 1.363 . S
C3222 C3221 1.415 . S
C3223 H3199 0.951 . S
C3223 C3224 1.366 . S
C3223 C3225 1.388 . S
C3224 C3223 1.366 . S
C3224 C3228 1.385 . S
C3225 H3200 0.951 . S
C3225 C3223 1.388 . S
C3225 C3226 1.366 . S
C3226 C3225 1.366 . S
C3226 C3227 1.414 . S
C3226 C3229 1.499 . S
C3227 H3201 0.950 . S
C3227 C3226 1.414 . S
C3227 C3228 1.374 . S
C3228 H3202 0.950 . S
C3228 C3224 1.385 . S
C3228 C3227 1.374 . S
C3229 C3226 1.499 . S
C3229 C3230 1.373 . S
C3229 C3231 1.389 . S
C3230 H3203 0.950 . S
C3230 C3216 1.377 . S
C3230 C3229 1.373 . S
C3231 C3215 1.377 1_554 S
C3231 C3229 1.389 . S
C3231 C3232 1.524 . S
C3232 C3231 1.524 . S
C3232 C3233 1.397 . S
C3232 C3237 1.363 . S
C3233 H3204 0.950 . S
C3233 C3232 1.397 . S
C3233 C3234 1.334 . S
C3234 H3205 0.950 . S
C3234 C3233 1.334 . S
C3234 C3235 1.287 . S
C3235 C3234 1.287 . S
C3235 C3236 1.524 . S
C3235 H3238 0.999 . S
C3236 H3206 0.950 . S
C3236 C3235 1.524 . S
C3236 C3237 1.415 . S
C3237 H3207 0.950 . S
C3237 C3232 1.363 . S
C3237 C3236 1.415 . S
H3238 C3235 0.999 . S
H3239 C3220 0.913 . S
H3240 C3258 0.951 1_554 S
H3241 C3260 0.951 . S
H3242 C3262 0.950 . S
H3243 C3263 0.950 1_554 S
H3244 C3265 0.950 . S
H3245 C3268 0.950 . S
H3246 C3269 0.950 . S
H3247 C3271 0.950 . S
H3248 C3272 0.950 . S
H3249 C3273 0.951 . S
H3250 C3275 0.951 . S
H3251 C3277 0.950 . S
H3252 C3278 0.950 . S
H3253 C3280 0.950 . S
H3254 C3283 0.950 . S
H3255 C3284 0.950 . S
H3256 C3286 0.950 . S
H3257 C3287 0.950 . S
C3258 H3240 0.951 1_556 S
C3258 C3259 1.366 1_556 S
C3258 C3260 1.388 . S
C3259 C3258 1.366 1_554 S
C3259 C3263 1.385 1_554 S
C3260 H3241 0.951 . S
C3260 C3258 1.388 . S
C3260 C3261 1.366 . S
C3261 C3260 1.366 . S
C3261 C3262 1.414 . S
C3261 C3264 1.499 . S
C3262 H3242 0.950 . S
C3262 C3261 1.414 . S
C3262 C3263 1.374 . S
C3263 H3243 0.950 1_556 S
C3263 C3259 1.385 1_556 S
C3263 C3262 1.374 . S
C3264 C3261 1.499 . S
C3264 C3265 1.373 . S
C3264 C3266 1.389 . S
C3265 H3244 0.950 . S
C3265 C3264 1.373 . S
C3265 C3281 1.377 . S
C3266 C3264 1.389 . S
C3266 C3267 1.524 . S
C3266 C3280 1.377 . S
C3267 C3266 1.524 . S
C3267 C3268 1.397 . S
C3267 C3272 1.363 . S
C3268 H3245 0.950 . S
C3268 C3267 1.397 . S
C3268 C3269 1.334 . S
C3269 H3246 0.950 . S
C3269 C3268 1.334 . S
C3269 C3270 1.287 . S
C3270 C3269 1.287 . S
C3270 C3271 1.524 . S
C3270 H3289 0.913 . S
C3271 H3247 0.950 . S
C3271 C3270 1.524 . S
C3271 C3272 1.415 . S
C3272 H3248 0.950 . S
C3272 C3267 1.363 . S
C3272 C3271 1.415 . S
C3273 H3249 0.951 . S
C3273 C3274 1.366 . S
C3273 C3275 1.388 . S
C3274 C3273 1.366 . S
C3274 C3278 1.385 . S
C3275 H3250 0.951 . S
C3275 C3273 1.388 . S
C3275 C3276 1.366 . S
C3276 C3275 1.366 . S
C3276 C3277 1.414 . S
C3276 C3279 1.499 . S
C3277 H3251 0.950 . S
C3277 C3276 1.414 . S
C3277 C3278 1.374 . S
C3278 H3252 0.950 . S
C3278 C3274 1.385 . S
C3278 C3277 1.374 . S
C3279 C3276 1.499 . S
C3279 C3280 1.373 . S
C3279 C3281 1.389 . S
C3280 H3253 0.950 . S
C3280 C3266 1.377 . S
C3280 C3279 1.373 . S
C3281 C3265 1.377 . S
C3281 C3279 1.389 . S
C3281 C3282 1.524 . S
C3282 C3281 1.524 . S
C3282 C3283 1.397 . S
C3282 C3287 1.363 . S
C3283 H3254 0.950 . S
C3283 C3282 1.397 . S
C3283 C3284 1.334 . S
C3284 H3255 0.950 . S
C3284 C3283 1.334 . S
C3284 C3285 1.287 . S
C3285 C3284 1.287 . S
C3285 C3286 1.524 . S
C3285 H3288 0.999 . S
C3286 H3256 0.950 . S
C3286 C3285 1.524 . S
C3286 C3287 1.415 . S
C3287 H3257 0.950 . S
C3287 C3282 1.363 . S
C3287 C3286 1.415 . S
H3288 C3285 0.999 . S
H3289 C3270 0.913 . S
H3290 C3308 0.951 . S
H3291 C3310 0.951 . S
H3292 C3312 0.950 . S
H3293 C3313 0.950 . S
H3294 C3315 0.950 . S
H3295 C3318 0.950 . S
H3296 C3319 0.950 . S
H3297 C3321 0.950 . S
H3298 C3322 0.950 . S
H3299 C3323 0.949 1_554 S
H3300 C3325 0.951 . S
H3301 C3327 0.950 . S
H3302 C3328 0.950 1_554 S
H3303 C3330 0.950 . S
H3304 C3333 0.950 . S
H3305 C3334 0.950 . S
H3306 C3336 0.950 . S
H3307 C3337 0.950 . S
C3308 H3290 0.951 . S
C3308 C3309 1.366 1_565 S
C3308 C3310 1.388 . S
C3309 C3308 1.366 1_545 S
C3309 C3313 1.385 . S
C3310 H3291 0.951 . S
C3310 C3308 1.388 . S
C3310 C3311 1.366 1_565 S
C3311 C3310 1.366 1_545 S
C3311 C3312 1.414 . S
C3311 C3314 1.501 . S
C3312 H3292 0.950 . S
C3312 C3311 1.414 . S
C3312 C3313 1.374 . S
C3313 H3293 0.950 . S
C3313 C3309 1.385 . S
C3313 C3312 1.374 . S
C3314 C3311 1.501 . S
C3314 C3315 1.421 . S
C3314 C3316 1.341 1_545 S
C3315 H3294 0.950 . S
C3315 C3314 1.421 . S
C3315 C3331 1.377 . S
C3316 C3314 1.341 1_565 S
C3316 C3317 1.524 . S
C3316 C3330 1.377 . S
C3317 C3316 1.524 . S
C3317 C3318 1.397 . S
C3317 C3322 1.363 . S
C3318 H3295 0.950 . S
C3318 C3317 1.397 . S
C3318 C3319 1.334 . S
C3319 H3296 0.950 . S
C3319 C3318 1.334 . S
C3319 C3320 1.287 . S
C3320 C3319 1.287 . S
C3320 C3321 1.524 . S
C3320 H3339 0.913 . S
C3321 H3297 0.950 . S
C3321 C3320 1.524 . S
C3321 C3322 1.415 . S
C3322 H3298 0.950 . S
C3322 C3317 1.363 . S
C3322 C3321 1.415 . S
C3323 H3299 0.949 1_556 S
C3323 C3324 1.364 1_546 S
C3323 C3325 1.392 . S
C3324 C3323 1.364 1_564 S
C3324 C3328 1.385 1_554 S
C3325 H3300 0.951 . S
C3325 C3323 1.392 . S
C3325 C3326 1.366 1_545 S
C3326 C3325 1.366 1_565 S
C3326 C3327 1.414 . S
C3326 C3329 1.500 . S
C3327 H3301 0.950 . S
C3327 C3326 1.414 . S
C3327 C3328 1.374 . S
C3328 H3302 0.950 1_556 S
C3328 C3324 1.385 1_556 S
C3328 C3327 1.374 . S
C3329 C3326 1.500 . S
C3329 C3330 1.409 . S
C3329 C3331 1.353 1_565 S
C3330 H3303 0.950 . S
C3330 C3316 1.377 . S
C3330 C3329 1.409 . S
C3331 C3315 1.377 . S
C3331 C3329 1.353 1_545 S
C3331 C3332 1.524 . S
C3332 C3331 1.524 . S
C3332 C3333 1.397 . S
C3332 C3337 1.363 . S
C3333 H3304 0.950 . S
C3333 C3332 1.397 . S
C3333 C3334 1.334 . S
C3334 H3305 0.950 . S
C3334 C3333 1.334 . S
C3334 C3335 1.287 . S
C3335 C3334 1.287 . S
C3335 C3336 1.524 . S
C3335 H3338 0.999 . S
C3336 H3306 0.950 . S
C3336 C3335 1.524 . S
C3336 C3337 1.415 . S
C3337 H3307 0.950 . S
C3337 C3332 1.363 . S
C3337 C3336 1.415 . S
H3338 C3335 0.999 . S
H3339 C3320 0.913 . S
H3340 C3358 0.951 . S
H3341 C3360 0.951 . S
H3342 C3362 0.950 . S
H3343 C3363 0.950 . S
H3344 C3365 0.950 . S
H3345 C3368 0.950 1_565 S
H3346 C3369 0.950 1_565 S
H3347 C3371 0.950 . S
H3348 C3372 0.950 . S
H3349 C3373 0.951 . S
H3350 C3375 0.951 . S
H3351 C3377 0.950 . S
H3352 C3378 0.950 . S
H3353 C3380 0.950 . S
H3354 C3383 0.950 1_545 S
H3355 C3384 0.950 1_545 S
H3356 C3386 0.950 . S
H3357 C3387 0.950 1_556 S
C3358 H3340 0.951 . S
C3358 C3359 1.366 1_545 S
C3358 C3360 1.388 . S
C3359 C3358 1.366 1_565 S
C3359 C3363 1.385 . S
C3360 H3341 0.951 . S
C3360 C3358 1.388 . S
C3360 C3361 1.366 1_545 S
C3361 C3360 1.366 1_565 S
C3361 C3362 1.414 . S
C3361 C3364 1.499 . S
C3362 H3342 0.950 . S
C3362 C3361 1.414 . S
C3362 C3363 1.374 . S
C3363 H3343 0.950 . S
C3363 C3359 1.385 . S
C3363 C3362 1.374 . S
C3364 C3361 1.499 . S
C3364 C3365 1.373 . S
C3364 C3366 1.389 1_565 S
C3365 H3344 0.950 . S
C3365 C3364 1.373 . S
C3365 C3381 1.377 1_556 S
C3366 C3364 1.389 1_545 S
C3366 C3367 1.524 . S
C3366 C3380 1.377 1_556 S
C3367 C3366 1.524 . S
C3367 C3368 1.397 . S
C3367 C3372 1.363 . S
C3368 H3345 0.950 1_545 S
C3368 C3367 1.397 . S
C3368 C3369 1.334 . S
C3369 H3346 0.950 1_545 S
C3369 C3368 1.334 . S
C3369 C3370 1.287 . S
C3370 C3369 1.287 . S
C3370 C3371 1.524 . S
C3370 H3389 0.913 . S
C3371 H3347 0.950 . S
C3371 C3370 1.524 . S
C3371 C3372 1.415 . S
C3372 H3348 0.950 . S
C3372 C3367 1.363 . S
C3372 C3371 1.415 . S
C3373 H3349 0.951 . S
C3373 C3374 1.366 1_565 S
C3373 C3375 1.388 . S
C3374 C3373 1.366 1_545 S
C3374 C3378 1.385 . S
C3375 H3350 0.951 . S
C3375 C3373 1.388 . S
C3375 C3376 1.366 1_565 S
C3376 C3375 1.366 1_545 S
C3376 C3377 1.414 . S
C3376 C3379 1.499 . S
C3377 H3351 0.950 . S
C3377 C3376 1.414 . S
C3377 C3378 1.374 . S
C3378 H3352 0.950 . S
C3378 C3374 1.385 . S
C3378 C3377 1.374 . S
C3379 C3376 1.499 . S
C3379 C3380 1.373 . S
C3379 C3381 1.389 1_545 S
C3380 H3353 0.950 . S
C3380 C3366 1.377 1_554 S
C3380 C3379 1.373 . S
C3381 C3365 1.377 1_554 S
C3381 C3379 1.389 1_565 S
C3381 C3382 1.524 . S
C3382 C3381 1.524 . S
C3382 C3383 1.397 . S
C3382 C3387 1.363 . S
C3383 H3354 0.950 1_565 S
C3383 C3382 1.397 . S
C3383 C3384 1.334 . S
C3384 H3355 0.950 1_565 S
C3384 C3383 1.334 . S
C3384 C3385 1.287 . S
C3385 C3384 1.287 . S
C3385 C3386 1.524 . S
C3385 H3388 0.999 . S
C3386 H3356 0.950 . S
C3386 C3385 1.524 . S
C3386 C3387 1.415 . S
C3387 H3357 0.950 1_554 S
C3387 C3382 1.363 . S
C3387 C3386 1.415 . S
H3388 C3385 0.999 . S
H3389 C3370 0.913 . S
H3390 C3408 0.951 . S
H3391 C3410 0.951 . S
H3392 C3412 0.950 . S
H3393 C3413 0.950 . S
H3394 C3415 0.950 . S
H3395 C3418 0.950 . S
H3396 C3419 0.950 . S
H3397 C3421 0.950 . S
H3398 C3422 0.950 . S
H3399 C3423 0.951 . S
H3400 C3425 0.951 . S
H3401 C3427 0.950 . S
H3402 C3428 0.950 . S
H3403 C3430 0.950 . S
H3404 C3433 0.950 . S
H3405 C3434 0.950 . S
H3406 C3436 0.950 . S
H3407 C3437 0.950 1_556 S
C3408 H3390 0.951 . S
C3408 C3409 1.366 . S
C3408 C3410 1.388 . S
C3409 C3408 1.366 . S
C3409 C3413 1.385 . S
C3410 H3391 0.951 . S
C3410 C3408 1.388 . S
C3410 C3411 1.366 . S
C3411 C3410 1.366 . S
C3411 C3412 1.414 . S
C3411 C3414 1.499 . S
C3412 H3392 0.950 . S
C3412 C3411 1.414 . S
C3412 C3413 1.374 . S
C3413 H3393 0.950 . S
C3413 C3409 1.385 . S
C3413 C3412 1.374 . S
C3414 C3411 1.499 . S
C3414 C3415 1.373 . S
C3414 C3416 1.389 . S
C3415 H3394 0.950 . S
C3415 C3414 1.373 . S
C3415 C3431 1.377 1_556 S
C3416 C3414 1.389 . S
C3416 C3417 1.524 . S
C3416 C3430 1.377 1_556 S
C3417 C3416 1.524 . S
C3417 C3418 1.397 . S
C3417 C3422 1.363 . S
C3418 H3395 0.950 . S
C3418 C3417 1.397 . S
C3418 C3419 1.334 . S
C3419 H3396 0.950 . S
C3419 C3418 1.334 . S
C3419 C3420 1.287 . S
C3420 C3419 1.287 . S
C3420 C3421 1.524 . S
C3420 H3439 0.913 . S
C3421 H3397 0.950 . S
C3421 C3420 1.524 . S
C3421 C3422 1.415 . S
C3422 H3398 0.950 . S
C3422 C3417 1.363 . S
C3422 C3421 1.415 . S
C3423 H3399 0.951 . S
C3423 C3424 1.366 . S
C3423 C3425 1.388 . S
C3424 C3423 1.366 . S
C3424 C3428 1.385 . S
C3425 H3400 0.951 . S
C3425 C3423 1.388 . S
C3425 C3426 1.366 . S
C3426 C3425 1.366 . S
C3426 C3427 1.414 . S
C3426 C3429 1.499 . S
C3427 H3401 0.950 . S
C3427 C3426 1.414 . S
C3427 C3428 1.374 . S
C3428 H3402 0.950 . S
C3428 C3424 1.385 . S
C3428 C3427 1.374 . S
C3429 C3426 1.499 . S
C3429 C3430 1.373 . S
C3429 C3431 1.389 . S
C3430 H3403 0.950 . S
C3430 C3416 1.377 1_554 S
C3430 C3429 1.373 . S
C3431 C3415 1.377 1_554 S
C3431 C3429 1.389 . S
C3431 C3432 1.524 . S
C3432 C3431 1.524 . S
C3432 C3433 1.397 . S
C3432 C3437 1.363 . S
C3433 H3404 0.950 . S
C3433 C3432 1.397 . S
C3433 C3434 1.334 . S
C3434 H3405 0.950 . S
C3434 C3433 1.334 . S
C3434 C3435 1.287 . S
C3435 C3434 1.287 . S
C3435 C3436 1.524 . S
C3435 H3438 0.999 . S
C3436 H3406 0.950 . S
C3436 C3435 1.524 . S
C3436 C3437 1.415 . S
C3437 H3407 0.950 1_554 S
C3437 C3432 1.363 . S
C3437 C3436 1.415 . S
H3438 C3435 0.999 . S
H3439 C3420 0.913 . S
H3440 C3458 0.951 . S
H3441 C3460 0.951 . S
H3442 C3462 0.950 . S
H3443 C3463 0.950 . S
H3444 C3465 0.950 . S
H3445 C3468 0.950 . S
H3446 C3469 0.950 . S
H3447 C3471 0.950 . S
H3448 C3472 0.950 . S
H3449 C3473 0.951 . S
H3450 C3475 0.951 . S
H3451 C3477 0.950 . S
H3452 C3478 0.950 . S
H3453 C3480 0.950 . S
H3454 C3483 0.950 . S
H3455 C3484 0.950 . S
H3456 C3486 0.950 . S
H3457 C3487 0.950 . S
C3458 H3440 0.951 . S
C3458 C3459 1.366 . S
C3458 C3460 1.388 . S
C3459 C3458 1.366 . S
C3459 C3463 1.385 . S
C3460 H3441 0.951 . S
C3460 C3458 1.388 . S
C3460 C3461 1.366 . S
C3461 C3460 1.366 . S
C3461 C3462 1.414 . S
C3461 C3464 1.499 . S
C3462 H3442 0.950 . S
C3462 C3461 1.414 . S
C3462 C3463 1.374 . S
C3463 H3443 0.950 . S
C3463 C3459 1.385 . S
C3463 C3462 1.374 . S
C3464 C3461 1.499 . S
C3464 C3465 1.373 . S
C3464 C3466 1.389 . S
C3465 H3444 0.950 . S
C3465 C3464 1.373 . S
C3465 C3481 1.377 . S
C3466 C3464 1.389 . S
C3466 C3467 1.524 . S
C3466 C3480 1.377 . S
C3467 C3466 1.524 . S
C3467 C3468 1.397 . S
C3467 C3472 1.363 . S
C3468 H3445 0.950 . S
C3468 C3467 1.397 . S
C3468 C3469 1.334 . S
C3469 H3446 0.950 . S
C3469 C3468 1.334 . S
C3469 C3470 1.287 . S
C3470 C3469 1.287 . S
C3470 C3471 1.524 . S
C3470 H3489 0.913 . S
C3471 H3447 0.950 . S
C3471 C3470 1.524 . S
C3471 C3472 1.415 . S
C3472 H3448 0.950 . S
C3472 C3467 1.363 . S
C3472 C3471 1.415 . S
C3473 H3449 0.951 . S
C3473 C3474 1.366 . S
C3473 C3475 1.388 . S
C3474 C3473 1.366 . S
C3474 C3478 1.385 . S
C3475 H3450 0.951 . S
C3475 C3473 1.388 . S
C3475 C3476 1.366 . S
C3476 C3475 1.366 . S
C3476 C3477 1.414 . S
C3476 C3479 1.499 . S
C3477 H3451 0.950 . S
C3477 C3476 1.414 . S
C3477 C3478 1.374 . S
C3478 H3452 0.950 . S
C3478 C3474 1.385 . S
C3478 C3477 1.374 . S
C3479 C3476 1.499 . S
C3479 C3480 1.373 . S
C3479 C3481 1.389 . S
C3480 H3453 0.950 . S
C3480 C3466 1.377 . S
C3480 C3479 1.373 . S
C3481 C3465 1.377 . S
C3481 C3479 1.389 . S
C3481 C3482 1.524 . S
C3482 C3481 1.524 . S
C3482 C3483 1.397 . S
C3482 C3487 1.363 . S
C3483 H3454 0.950 . S
C3483 C3482 1.397 . S
C3483 C3484 1.334 . S
C3484 H3455 0.950 . S
C3484 C3483 1.334 . S
C3484 C3485 1.287 . S
C3485 C3484 1.287 . S
C3485 C3486 1.524 . S
C3485 H3488 0.999 . S
C3486 H3456 0.950 . S
C3486 C3485 1.524 . S
C3486 C3487 1.415 . S
C3487 H3457 0.950 . S
C3487 C3482 1.363 . S
C3487 C3486 1.415 . S
H3488 C3485 0.999 . S
H3489 C3470 0.913 . S
H3490 C3508 0.951 . S
H3491 C3510 0.951 . S
H3492 C3512 0.950 . S
H3493 C3513 0.950 . S
H3494 C3515 0.950 . S
H3495 C3518 0.950 . S
H3496 C3519 0.950 . S
H3497 C3521 0.950 . S
H3498 C3522 0.950 . S
H3499 C3523 0.951 . S
H3500 C3525 0.951 . S
H3501 C3527 0.950 . S
H3502 C3528 0.950 . S
H3503 C3530 0.950 . S
H3504 C3533 0.950 . S
H3505 C3534 0.950 . S
H3506 C3536 0.950 . S
H3507 C3537 0.950 . S
C3508 H3490 0.951 . S
C3508 C3509 1.366 . S
C3508 C3510 1.388 . S
C3509 C3508 1.366 . S
C3509 C3513 1.385 . S
C3510 H3491 0.951 . S
C3510 C3508 1.388 . S
C3510 C3511 1.366 . S
C3511 C3510 1.366 . S
C3511 C3512 1.414 . S
C3511 C3514 1.499 . S
C3512 H3492 0.950 . S
C3512 C3511 1.414 . S
C3512 C3513 1.374 . S
C3513 H3493 0.950 . S
C3513 C3509 1.385 . S
C3513 C3512 1.374 . S
C3514 C3511 1.499 . S
C3514 C3515 1.373 . S
C3514 C3516 1.389 . S
C3515 H3494 0.950 . S
C3515 C3514 1.373 . S
C3515 C3531 1.377 . S
C3516 C3514 1.389 . S
C3516 C3517 1.524 . S
C3516 C3530 1.377 . S
C3517 C3516 1.524 . S
C3517 C3518 1.397 . S
C3517 C3522 1.363 . S
C3518 H3495 0.950 . S
C3518 C3517 1.397 . S
C3518 C3519 1.334 . S
C3519 H3496 0.950 . S
C3519 C3518 1.334 . S
C3519 C3520 1.287 . S
C3520 C3519 1.287 . S
C3520 C3521 1.524 . S
C3520 H3539 0.913 . S
C3521 H3497 0.950 . S
C3521 C3520 1.524 . S
C3521 C3522 1.415 . S
C3522 H3498 0.950 . S
C3522 C3517 1.363 . S
C3522 C3521 1.415 . S
C3523 H3499 0.951 . S
C3523 C3524 1.366 . S
C3523 C3525 1.388 . S
C3524 C3523 1.366 . S
C3524 C3528 1.385 . S
C3525 H3500 0.951 . S
C3525 C3523 1.388 . S
C3525 C3526 1.366 . S
C3526 C3525 1.366 . S
C3526 C3527 1.414 . S
C3526 C3529 1.499 . S
C3527 H3501 0.950 . S
C3527 C3526 1.414 . S
C3527 C3528 1.374 . S
C3528 H3502 0.950 . S
C3528 C3524 1.385 . S
C3528 C3527 1.374 . S
C3529 C3526 1.499 . S
C3529 C3530 1.373 . S
C3529 C3531 1.389 . S
C3530 H3503 0.950 . S
C3530 C3516 1.377 . S
C3530 C3529 1.373 . S
C3531 C3515 1.377 . S
C3531 C3529 1.389 . S
C3531 C3532 1.524 . S
C3532 C3531 1.524 . S
C3532 C3533 1.397 . S
C3532 C3537 1.363 . S
C3533 H3504 0.950 . S
C3533 C3532 1.397 . S
C3533 C3534 1.334 . S
C3534 H3505 0.950 . S
C3534 C3533 1.334 . S
C3534 C3535 1.287 . S
C3535 C3534 1.287 . S
C3535 C3536 1.524 . S
C3535 H3538 0.999 . S
C3536 H3506 0.950 . S
C3536 C3535 1.524 . S
C3536 C3537 1.415 . S
C3537 H3507 0.950 . S
C3537 C3532 1.363 . S
C3537 C3536 1.415 . S
H3538 C3535 0.999 . S
H3539 C3520 0.913 . S
H3540 C3558 0.951 . S
H3541 C3560 0.951 . S
H3542 C3562 0.950 . S
H3543 C3563 0.950 . S
H3544 C3565 0.950 . S
H3545 C3568 0.950 . S
H3546 C3569 0.950 . S
H3547 C3571 0.950 . S
H3548 C3572 0.950 . S
H3549 C3573 0.951 . S
H3550 C3575 0.951 . S
H3551 C3577 0.950 . S
H3552 C3578 0.950 . S
H3553 C3580 0.950 . S
H3554 C3583 0.950 . S
H3555 C3584 0.950 . S
H3556 C3586 0.950 . S
H3557 C3587 0.950 . S
C3558 H3540 0.951 . S
C3558 C3559 1.366 . S
C3558 C3560 1.388 . S
C3559 C3558 1.366 . S
C3559 C3563 1.385 . S
C3560 H3541 0.951 . S
C3560 C3558 1.388 . S
C3560 C3561 1.366 . S
C3561 C3560 1.366 . S
C3561 C3562 1.414 . S
C3561 C3564 1.499 . S
C3562 H3542 0.950 . S
C3562 C3561 1.414 . S
C3562 C3563 1.374 . S
C3563 H3543 0.950 . S
C3563 C3559 1.385 . S
C3563 C3562 1.374 . S
C3564 C3561 1.499 . S
C3564 C3565 1.373 . S
C3564 C3566 1.389 . S
C3565 H3544 0.950 . S
C3565 C3564 1.373 . S
C3565 C3581 1.377 . S
C3566 C3564 1.389 . S
C3566 C3567 1.524 . S
C3566 C3580 1.377 . S
C3567 C3566 1.524 . S
C3567 C3568 1.397 . S
C3567 C3572 1.363 . S
C3568 H3545 0.950 . S
C3568 C3567 1.397 . S
C3568 C3569 1.334 . S
C3569 H3546 0.950 . S
C3569 C3568 1.334 . S
C3569 C3570 1.287 . S
C3570 C3569 1.287 . S
C3570 C3571 1.524 . S
C3570 H3589 0.913 . S
C3571 H3547 0.950 . S
C3571 C3570 1.524 . S
C3571 C3572 1.415 . S
C3572 H3548 0.950 . S
C3572 C3567 1.363 . S
C3572 C3571 1.415 . S
C3573 H3549 0.951 . S
C3573 C3574 1.366 . S
C3573 C3575 1.388 . S
C3574 C3573 1.366 . S
C3574 C3578 1.385 . S
C3575 H3550 0.951 . S
C3575 C3573 1.388 . S
C3575 C3576 1.366 . S
C3576 C3575 1.366 . S
C3576 C3577 1.414 . S
C3576 C3579 1.499 . S
C3577 H3551 0.950 . S
C3577 C3576 1.414 . S
C3577 C3578 1.374 . S
C3578 H3552 0.950 . S
C3578 C3574 1.385 . S
C3578 C3577 1.374 . S
C3579 C3576 1.499 . S
C3579 C3580 1.373 . S
C3579 C3581 1.389 . S
C3580 H3553 0.950 . S
C3580 C3566 1.377 . S
C3580 C3579 1.373 . S
C3581 C3565 1.377 . S
C3581 C3579 1.389 . S
C3581 C3582 1.524 . S
C3582 C3581 1.524 . S
C3582 C3583 1.397 . S
C3582 C3587 1.363 . S
C3583 H3554 0.950 . S
C3583 C3582 1.397 . S
C3583 C3584 1.334 . S
C3584 H3555 0.950 . S
C3584 C3583 1.334 . S
C3584 C3585 1.287 . S
C3585 C3584 1.287 . S
C3585 C3586 1.524 . S
C3585 H3588 0.999 . S
C3586 H3556 0.950 . S
C3586 C3585 1.524 . S
C3586 C3587 1.415 . S
C3587 H3557 0.950 . S
C3587 C3582 1.363 . S
C3587 C3586 1.415 . S
H3588 C3585 0.999 . S
H3589 C3570 0.913 . S
H3590 C3608 0.951 . S
H3591 C3610 0.951 . S
H3592 C3612 0.950 . S
H3593 C3613 0.950 . S
H3594 C3615 0.950 . S
H3595 C3618 0.950 . S
H3596 C3619 0.950 . S
H3597 C3621 0.950 . S
H3598 C3622 0.950 . S
H3599 C3623 0.951 . S
H3600 C3625 0.951 . S
H3601 C3627 0.950 . S
H3602 C3628 0.950 . S
H3603 C3630 0.950 . S
H3604 C3633 0.950 . S
H3605 C3634 0.950 . S
H3606 C3636 0.950 . S
H3607 C3637 0.950 . S
C3608 H3590 0.951 . S
C3608 C3609 1.366 . S
C3608 C3610 1.388 . S
C3609 C3608 1.366 . S
C3609 C3613 1.385 . S
C3610 H3591 0.951 . S
C3610 C3608 1.388 . S
C3610 C3611 1.366 . S
C3611 C3610 1.366 . S
C3611 C3612 1.414 . S
C3611 C3614 1.499 . S
C3612 H3592 0.950 . S
C3612 C3611 1.414 . S
C3612 C3613 1.374 . S
C3613 H3593 0.950 . S
C3613 C3609 1.385 . S
C3613 C3612 1.374 . S
C3614 C3611 1.499 . S
C3614 C3615 1.373 . S
C3614 C3616 1.389 . S
C3615 H3594 0.950 . S
C3615 C3614 1.373 . S
C3615 C3631 1.377 . S
C3616 C3614 1.389 . S
C3616 C3617 1.524 . S
C3616 C3630 1.377 . S
C3617 C3616 1.524 . S
C3617 C3618 1.397 . S
C3617 C3622 1.363 . S
C3618 H3595 0.950 . S
C3618 C3617 1.397 . S
C3618 C3619 1.334 . S
C3619 H3596 0.950 . S
C3619 C3618 1.334 . S
C3619 C3620 1.287 . S
C3620 C3619 1.287 . S
C3620 C3621 1.524 . S
C3620 H3639 0.913 . S
C3621 H3597 0.950 . S
C3621 C3620 1.524 . S
C3621 C3622 1.415 . S
C3622 H3598 0.950 . S
C3622 C3617 1.363 . S
C3622 C3621 1.415 . S
C3623 H3599 0.951 . S
C3623 C3624 1.366 . S
C3623 C3625 1.388 . S
C3624 C3623 1.366 . S
C3624 C3628 1.385 . S
C3625 H3600 0.951 . S
C3625 C3623 1.388 . S
C3625 C3626 1.366 . S
C3626 C3625 1.366 . S
C3626 C3627 1.414 . S
C3626 C3629 1.499 . S
C3627 H3601 0.950 . S
C3627 C3626 1.414 . S
C3627 C3628 1.374 . S
C3628 H3602 0.950 . S
C3628 C3624 1.385 . S
C3628 C3627 1.374 . S
C3629 C3626 1.499 . S
C3629 C3630 1.373 . S
C3629 C3631 1.389 . S
C3630 H3603 0.950 . S
C3630 C3616 1.377 . S
C3630 C3629 1.373 . S
C3631 C3615 1.377 . S
C3631 C3629 1.389 . S
C3631 C3632 1.524 . S
C3632 C3631 1.524 . S
C3632 C3633 1.397 . S
C3632 C3637 1.363 . S
C3633 H3604 0.950 . S
C3633 C3632 1.397 . S
C3633 C3634 1.334 . S
C3634 H3605 0.950 . S
C3634 C3633 1.334 . S
C3634 C3635 1.287 . S
C3635 C3634 1.287 . S
C3635 C3636 1.524 . S
C3635 H3638 0.999 . S
C3636 H3606 0.950 . S
C3636 C3635 1.524 . S
C3636 C3637 1.415 . S
C3637 H3607 0.950 . S
C3637 C3632 1.363 . S
C3637 C3636 1.415 . S
H3638 C3635 0.999 . S
H3639 C3620 0.913 . S
H3640 C3658 0.951 . S
H3641 C3660 0.951 . S
H3642 C3662 0.950 . S
H3643 C3663 0.950 . S
H3644 C3665 0.950 . S
H3645 C3668 0.950 . S
H3646 C3669 0.950 . S
H3647 C3671 0.950 . S
H3648 C3672 0.950 . S
H3649 C3673 0.951 . S
H3650 C3675 0.951 . S
H3651 C3677 0.950 . S
H3652 C3678 0.950 . S
H3653 C3680 0.950 . S
H3654 C3683 0.950 . S
H3655 C3684 0.950 . S
H3656 C3686 0.950 . S
H3657 C3687 0.950 . S
C3658 H3640 0.951 . S
C3658 C3659 1.366 . S
C3658 C3660 1.388 . S
C3659 C3658 1.366 . S
C3659 C3663 1.385 . S
C3660 H3641 0.951 . S
C3660 C3658 1.388 . S
C3660 C3661 1.366 . S
C3661 C3660 1.366 . S
C3661 C3662 1.414 . S
C3661 C3664 1.499 . S
C3662 H3642 0.950 . S
C3662 C3661 1.414 . S
C3662 C3663 1.374 . S
C3663 H3643 0.950 . S
C3663 C3659 1.385 . S
C3663 C3662 1.374 . S
C3664 C3661 1.499 . S
C3664 C3665 1.373 . S
C3664 C3666 1.389 . S
C3665 H3644 0.950 . S
C3665 C3664 1.373 . S
C3665 C3681 1.377 . S
C3666 C3664 1.389 . S
C3666 C3667 1.524 . S
C3666 C3680 1.377 . S
C3667 C3666 1.524 . S
C3667 C3668 1.397 . S
C3667 C3672 1.363 . S
C3668 H3645 0.950 . S
C3668 C3667 1.397 . S
C3668 C3669 1.334 . S
C3669 H3646 0.950 . S
C3669 C3668 1.334 . S
C3669 C3670 1.287 . S
C3670 C3669 1.287 . S
C3670 C3671 1.524 . S
C3670 H3689 0.913 . S
C3671 H3647 0.950 . S
C3671 C3670 1.524 . S
C3671 C3672 1.415 . S
C3672 H3648 0.950 . S
C3672 C3667 1.363 . S
C3672 C3671 1.415 . S
C3673 H3649 0.951 . S
C3673 C3674 1.366 . S
C3673 C3675 1.388 . S
C3674 C3673 1.366 . S
C3674 C3678 1.385 . S
C3675 H3650 0.951 . S
C3675 C3673 1.388 . S
C3675 C3676 1.366 . S
C3676 C3675 1.366 . S
C3676 C3677 1.414 . S
C3676 C3679 1.499 . S
C3677 H3651 0.950 . S
C3677 C3676 1.414 . S
C3677 C3678 1.374 . S
C3678 H3652 0.950 . S
C3678 C3674 1.385 . S
C3678 C3677 1.374 . S
C3679 C3676 1.499 . S
C3679 C3680 1.373 . S
C3679 C3681 1.389 . S
C3680 H3653 0.950 . S
C3680 C3666 1.377 . S
C3680 C3679 1.373 . S
C3681 C3665 1.377 . S
C3681 C3679 1.389 . S
C3681 C3682 1.524 . S
C3682 C3681 1.524 . S
C3682 C3683 1.397 . S
C3682 C3687 1.363 . S
C3683 H3654 0.950 . S
C3683 C3682 1.397 . S
C3683 C3684 1.334 . S
C3684 H3655 0.950 . S
C3684 C3683 1.334 . S
C3684 C3685 1.287 . S
C3685 C3684 1.287 . S
C3685 C3686 1.524 . S
C3685 H3688 0.999 . S
C3686 H3656 0.950 . S
C3686 C3685 1.524 . S
C3686 C3687 1.415 . S
C3687 H3657 0.950 . S
C3687 C3682 1.363 . S
C3687 C3686 1.415 . S
H3688 C3685 0.999 . S
H3689 C3670 0.913 . S
H3690 C3708 0.951 . S
H3691 C3710 0.951 . S
H3692 C3712 0.950 . S
H3693 C3713 0.950 . S
H3694 C3715 0.950 . S
H3695 C3718 0.950 . S
H3696 C3719 0.950 . S
H3697 C3721 0.950 . S
H3698 C3722 0.950 . S
H3699 C3723 0.951 . S
H3700 C3725 0.951 . S
H3701 C3727 0.950 . S
H3702 C3728 0.950 . S
H3703 C3730 0.950 . S
H3704 C3733 0.950 . S
H3705 C3734 0.950 . S
H3706 C3736 0.950 . S
H3707 C3737 0.950 . S
C3708 H3690 0.951 . S
C3708 C3709 1.366 . S
C3708 C3710 1.388 . S
C3709 C3708 1.366 . S
C3709 C3713 1.385 . S
C3710 H3691 0.951 . S
C3710 C3708 1.388 . S
C3710 C3711 1.366 . S
C3711 C3710 1.366 . S
C3711 C3712 1.414 . S
C3711 C3714 1.499 . S
C3712 H3692 0.950 . S
C3712 C3711 1.414 . S
C3712 C3713 1.374 . S
C3713 H3693 0.950 . S
C3713 C3709 1.385 . S
C3713 C3712 1.374 . S
C3714 C3711 1.499 . S
C3714 C3715 1.373 . S
C3714 C3716 1.389 . S
C3715 H3694 0.950 . S
C3715 C3714 1.373 . S
C3715 C3731 1.377 . S
C3716 C3714 1.389 . S
C3716 C3717 1.524 . S
C3716 C3730 1.377 . S
C3717 C3716 1.524 . S
C3717 C3718 1.397 . S
C3717 C3722 1.363 . S
C3718 H3695 0.950 . S
C3718 C3717 1.397 . S
C3718 C3719 1.334 . S
C3719 H3696 0.950 . S
C3719 C3718 1.334 . S
C3719 C3720 1.287 . S
C3720 C3719 1.287 . S
C3720 C3721 1.524 . S
C3720 H3739 0.913 . S
C3721 H3697 0.950 . S
C3721 C3720 1.524 . S
C3721 C3722 1.415 . S
C3722 H3698 0.950 . S
C3722 C3717 1.363 . S
C3722 C3721 1.415 . S
C3723 H3699 0.951 . S
C3723 C3724 1.366 . S
C3723 C3725 1.388 . S
C3724 C3723 1.366 . S
C3724 C3728 1.385 . S
C3725 H3700 0.951 . S
C3725 C3723 1.388 . S
C3725 C3726 1.366 . S
C3726 C3725 1.366 . S
C3726 C3727 1.414 . S
C3726 C3729 1.499 . S
C3727 H3701 0.950 . S
C3727 C3726 1.414 . S
C3727 C3728 1.374 . S
C3728 H3702 0.950 . S
C3728 C3724 1.385 . S
C3728 C3727 1.374 . S
C3729 C3726 1.499 . S
C3729 C3730 1.373 . S
C3729 C3731 1.389 . S
C3730 H3703 0.950 . S
C3730 C3716 1.377 . S
C3730 C3729 1.373 . S
C3731 C3715 1.377 . S
C3731 C3729 1.389 . S
C3731 C3732 1.524 . S
C3732 C3731 1.524 . S
C3732 C3733 1.397 . S
C3732 C3737 1.363 . S
C3733 H3704 0.950 . S
C3733 C3732 1.397 . S
C3733 C3734 1.334 . S
C3734 H3705 0.950 . S
C3734 C3733 1.334 . S
C3734 C3735 1.287 . S
C3735 C3734 1.287 . S
C3735 C3736 1.524 . S
C3735 H3738 0.999 . S
C3736 H3706 0.950 . S
C3736 C3735 1.524 . S
C3736 C3737 1.415 . S
C3737 H3707 0.950 . S
C3737 C3732 1.363 . S
C3737 C3736 1.415 . S
H3738 C3735 0.999 . S
H3739 C3720 0.913 . S
H3740 C3758 0.951 . S
H3741 C3760 0.951 . S
H3742 C3762 0.950 . S
H3743 C3763 0.950 . S
H3744 C3765 0.950 . S
H3745 C3768 0.950 . S
H3746 C3769 0.950 . S
H3747 C3771 0.950 . S
H3748 C3772 0.950 . S
H3749 C3773 0.951 . S
H3750 C3775 0.951 . S
H3751 C3777 0.950 . S
H3752 C3778 0.950 . S
H3753 C3780 0.950 . S
H3754 C3783 0.950 . S
H3755 C3784 0.950 . S
H3756 C3786 0.950 . S
H3757 C3787 0.950 . S
C3758 H3740 0.951 . S
C3758 C3759 1.366 . S
C3758 C3760 1.388 . S
C3759 C3758 1.366 . S
C3759 C3763 1.385 . S
C3760 H3741 0.951 . S
C3760 C3758 1.388 . S
C3760 C3761 1.366 . S
C3761 C3760 1.366 . S
C3761 C3762 1.414 . S
C3761 C3764 1.499 . S
C3762 H3742 0.950 . S
C3762 C3761 1.414 . S
C3762 C3763 1.374 . S
C3763 H3743 0.950 . S
C3763 C3759 1.385 . S
C3763 C3762 1.374 . S
C3764 C3761 1.499 . S
C3764 C3765 1.373 . S
C3764 C3766 1.389 . S
C3765 H3744 0.950 . S
C3765 C3764 1.373 . S
C3765 C3781 1.377 . S
C3766 C3764 1.389 . S
C3766 C3767 1.524 . S
C3766 C3780 1.377 . S
C3767 C3766 1.524 . S
C3767 C3768 1.397 . S
C3767 C3772 1.363 . S
C3768 H3745 0.950 . S
C3768 C3767 1.397 . S
C3768 C3769 1.334 . S
C3769 H3746 0.950 . S
C3769 C3768 1.334 . S
C3769 C3770 1.287 . S
C3770 C3769 1.287 . S
C3770 C3771 1.524 . S
C3770 H3789 0.913 . S
C3771 H3747 0.950 . S
C3771 C3770 1.524 . S
C3771 C3772 1.415 . S
C3772 H3748 0.950 . S
C3772 C3767 1.363 . S
C3772 C3771 1.415 . S
C3773 H3749 0.951 . S
C3773 C3774 1.366 . S
C3773 C3775 1.388 . S
C3774 C3773 1.366 . S
C3774 C3778 1.385 . S
C3775 H3750 0.951 . S
C3775 C3773 1.388 . S
C3775 C3776 1.366 . S
C3776 C3775 1.366 . S
C3776 C3777 1.414 . S
C3776 C3779 1.499 . S
C3777 H3751 0.950 . S
C3777 C3776 1.414 . S
C3777 C3778 1.374 . S
C3778 H3752 0.950 . S
C3778 C3774 1.385 . S
C3778 C3777 1.374 . S
C3779 C3776 1.499 . S
C3779 C3780 1.373 . S
C3779 C3781 1.389 . S
C3780 H3753 0.950 . S
C3780 C3766 1.377 . S
C3780 C3779 1.373 . S
C3781 C3765 1.377 . S
C3781 C3779 1.389 . S
C3781 C3782 1.524 . S
C3782 C3781 1.524 . S
C3782 C3783 1.397 . S
C3782 C3787 1.363 . S
C3783 H3754 0.950 . S
C3783 C3782 1.397 . S
C3783 C3784 1.334 . S
C3784 H3755 0.950 . S
C3784 C3783 1.334 . S
C3784 C3785 1.287 . S
C3785 C3784 1.287 . S
C3785 C3786 1.524 . S
C3785 H3788 0.999 . S
C3786 H3756 0.950 . S
C3786 C3785 1.524 . S
C3786 C3787 1.415 . S
C3787 H3757 0.950 . S
C3787 C3782 1.363 . S
C3787 C3786 1.415 . S
H3788 C3785 0.999 . S
H3789 C3770 0.913 . S
H3790 C3808 0.951 . S
H3791 C3810 0.951 . S
H3792 C3812 0.950 . S
H3793 C3813 0.950 . S
H3794 C3815 0.950 . S
H3795 C3818 0.950 . S
H3796 C3819 0.950 . S
H3797 C3821 0.950 . S
H3798 C3822 0.950 . S
H3799 C3823 0.951 . S
H3800 C3825 0.951 . S
H3801 C3827 0.950 . S
H3802 C3828 0.950 . S
H3803 C3830 0.950 . S
H3804 C3833 0.950 . S
H3805 C3834 0.950 . S
H3806 C3836 0.950 . S
H3807 C3837 0.950 . S
C3808 H3790 0.951 . S
C3808 C3809 1.366 . S
C3808 C3810 1.388 . S
C3809 C3808 1.366 . S
C3809 C3813 1.385 . S
C3810 H3791 0.951 . S
C3810 C3808 1.388 . S
C3810 C3811 1.366 . S
C3811 C3810 1.366 . S
C3811 C3812 1.414 . S
C3811 C3814 1.499 . S
C3812 H3792 0.950 . S
C3812 C3811 1.414 . S
C3812 C3813 1.374 . S
C3813 H3793 0.950 . S
C3813 C3809 1.385 . S
C3813 C3812 1.374 . S
C3814 C3811 1.499 . S
C3814 C3815 1.373 . S
C3814 C3816 1.389 . S
C3815 H3794 0.950 . S
C3815 C3814 1.373 . S
C3815 C3831 1.377 . S
C3816 C3814 1.389 . S
C3816 C3817 1.524 . S
C3816 C3830 1.377 . S
C3817 C3816 1.524 . S
C3817 C3818 1.397 . S
C3817 C3822 1.363 . S
C3818 H3795 0.950 . S
C3818 C3817 1.397 . S
C3818 C3819 1.334 . S
C3819 H3796 0.950 . S
C3819 C3818 1.334 . S
C3819 C3820 1.287 . S
C3820 C3819 1.287 . S
C3820 C3821 1.524 . S
C3820 H3839 0.913 . S
C3821 H3797 0.950 . S
C3821 C3820 1.524 . S
C3821 C3822 1.415 . S
C3822 H3798 0.950 . S
C3822 C3817 1.363 . S
C3822 C3821 1.415 . S
C3823 H3799 0.951 . S
C3823 C3824 1.366 . S
C3823 C3825 1.388 . S
C3824 C3823 1.366 . S
C3824 C3828 1.385 . S
C3825 H3800 0.951 . S
C3825 C3823 1.388 . S
C3825 C3826 1.366 . S
C3826 C3825 1.366 . S
C3826 C3827 1.414 . S
C3826 C3829 1.499 . S
C3827 H3801 0.950 . S
C3827 C3826 1.414 . S
C3827 C3828 1.374 . S
C3828 H3802 0.950 . S
C3828 C3824 1.385 . S
C3828 C3827 1.374 . S
C3829 C3826 1.499 . S
C3829 C3830 1.373 . S
C3829 C3831 1.389 . S
C3830 H3803 0.950 . S
C3830 C3816 1.377 . S
C3830 C3829 1.373 . S
C3831 C3815 1.377 . S
C3831 C3829 1.389 . S
C3831 C3832 1.524 . S
C3832 C3831 1.524 . S
C3832 C3833 1.397 . S
C3832 C3837 1.363 . S
C3833 H3804 0.950 . S
C3833 C3832 1.397 . S
C3833 C3834 1.334 . S
C3834 H3805 0.950 . S
C3834 C3833 1.334 . S
C3834 C3835 1.287 . S
C3835 C3834 1.287 . S
C3835 C3836 1.524 . S
C3835 H3838 0.999 . S
C3836 H3806 0.950 . S
C3836 C3835 1.524 . S
C3836 C3837 1.415 . S
C3837 H3807 0.950 . S
C3837 C3832 1.363 . S
C3837 C3836 1.415 . S
H3838 C3835 0.999 . S
H3839 C3820 0.913 . S
H3840 C3858 0.951 . S
H3841 C3860 0.951 . S
H3842 C3862 0.950 . S
H3843 C3863 0.950 . S
H3844 C3865 0.950 . S
H3845 C3868 0.950 . S
H3846 C3869 0.950 . S
H3847 C3871 0.950 . S
H3848 C3872 0.950 . S
H3849 C3873 0.951 . S
H3850 C3875 0.951 . S
H3851 C3877 0.950 . S
H3852 C3878 0.950 . S
H3853 C3880 0.950 . S
H3854 C3883 0.950 . S
H3855 C3884 0.950 . S
H3856 C3886 0.950 . S
H3857 C3887 0.950 . S
C3858 H3840 0.951 . S
C3858 C3859 1.366 . S
C3858 C3860 1.388 . S
C3859 C3858 1.366 . S
C3859 C3863 1.385 . S
C3860 H3841 0.951 . S
C3860 C3858 1.388 . S
C3860 C3861 1.366 . S
C3861 C3860 1.366 . S
C3861 C3862 1.414 . S
C3861 C3864 1.499 . S
C3862 H3842 0.950 . S
C3862 C3861 1.414 . S
C3862 C3863 1.374 . S
C3863 H3843 0.950 . S
C3863 C3859 1.385 . S
C3863 C3862 1.374 . S
C3864 C3861 1.499 . S
C3864 C3865 1.373 . S
C3864 C3866 1.389 . S
C3865 H3844 0.950 . S
C3865 C3864 1.373 . S
C3865 C3881 1.377 . S
C3866 C3864 1.389 . S
C3866 C3867 1.524 . S
C3866 C3880 1.377 . S
C3867 C3866 1.524 . S
C3867 C3868 1.397 . S
C3867 C3872 1.363 . S
C3868 H3845 0.950 . S
C3868 C3867 1.397 . S
C3868 C3869 1.334 . S
C3869 H3846 0.950 . S
C3869 C3868 1.334 . S
C3869 C3870 1.287 . S
C3870 C3869 1.287 . S
C3870 C3871 1.524 . S
C3870 H3889 0.913 . S
C3871 H3847 0.950 . S
C3871 C3870 1.524 . S
C3871 C3872 1.415 . S
C3872 H3848 0.950 . S
C3872 C3867 1.363 . S
C3872 C3871 1.415 . S
C3873 H3849 0.951 . S
C3873 C3874 1.366 . S
C3873 C3875 1.388 . S
C3874 C3873 1.366 . S
C3874 C3878 1.385 . S
C3875 H3850 0.951 . S
C3875 C3873 1.388 . S
C3875 C3876 1.366 . S
C3876 C3875 1.366 . S
C3876 C3877 1.414 . S
C3876 C3879 1.499 . S
C3877 H3851 0.950 . S
C3877 C3876 1.414 . S
C3877 C3878 1.374 . S
C3878 H3852 0.950 . S
C3878 C3874 1.385 . S
C3878 C3877 1.374 . S
C3879 C3876 1.499 . S
C3879 C3880 1.373 . S
C3879 C3881 1.389 . S
C3880 H3853 0.950 . S
C3880 C3866 1.377 . S
C3880 C3879 1.373 . S
C3881 C3865 1.377 . S
C3881 C3879 1.389 . S
C3881 C3882 1.524 . S
C3882 C3881 1.524 . S
C3882 C3883 1.397 . S
C3882 C3887 1.363 . S
C3883 H3854 0.950 . S
C3883 C3882 1.397 . S
C3883 C3884 1.334 . S
C3884 H3855 0.950 . S
C3884 C3883 1.334 . S
C3884 C3885 1.287 . S
C3885 C3884 1.287 . S
C3885 C3886 1.524 . S
C3885 H3888 0.999 . S
C3886 H3856 0.950 . S
C3886 C3885 1.524 . S
C3886 C3887 1.415 . S
C3887 H3857 0.950 . S
C3887 C3882 1.363 . S
C3887 C3886 1.415 . S
H3888 C3885 0.999 . S
H3889 C3870 0.913 . S
H3890 C3908 0.951 . S
H3891 C3910 0.951 . S
H3892 C3912 0.950 . S
H3893 C3913 0.950 . S
H3894 C3915 0.950 . S
H3895 C3918 0.950 . S
H3896 C3919 0.950 . S
H3897 C3921 0.950 . S
H3898 C3922 0.950 . S
H3899 C3923 0.951 . S
H3900 C3925 0.951 . S
H3901 C3927 0.950 . S
H3902 C3928 0.950 . S
H3903 C3930 0.950 . S
H3904 C3933 0.950 . S
H3905 C3934 0.950 . S
H3906 C3936 0.950 . S
H3907 C3937 0.950 . S
C3908 H3890 0.951 . S
C3908 C3909 1.366 . S
C3908 C3910 1.388 . S
C3909 C3908 1.366 . S
C3909 C3913 1.385 . S
C3910 H3891 0.951 . S
C3910 C3908 1.388 . S
C3910 C3911 1.366 . S
C3911 C3910 1.366 . S
C3911 C3912 1.414 . S
C3911 C3914 1.499 . S
C3912 H3892 0.950 . S
C3912 C3911 1.414 . S
C3912 C3913 1.374 . S
C3913 H3893 0.950 . S
C3913 C3909 1.385 . S
C3913 C3912 1.374 . S
C3914 C3911 1.499 . S
C3914 C3915 1.373 . S
C3914 C3916 1.389 . S
C3915 H3894 0.950 . S
C3915 C3914 1.373 . S
C3915 C3931 1.377 . S
C3916 C3914 1.389 . S
C3916 C3917 1.524 . S
C3916 C3930 1.377 . S
C3917 C3916 1.524 . S
C3917 C3918 1.397 . S
C3917 C3922 1.363 . S
C3918 H3895 0.950 . S
C3918 C3917 1.397 . S
C3918 C3919 1.334 . S
C3919 H3896 0.950 . S
C3919 C3918 1.334 . S
C3919 C3920 1.287 . S
C3920 C3919 1.287 . S
C3920 C3921 1.524 . S
C3920 H3939 0.913 . S
C3921 H3897 0.950 . S
C3921 C3920 1.524 . S
C3921 C3922 1.415 . S
C3922 H3898 0.950 . S
C3922 C3917 1.363 . S
C3922 C3921 1.415 . S
C3923 H3899 0.951 . S
C3923 C3924 1.366 . S
C3923 C3925 1.388 . S
C3924 C3923 1.366 . S
C3924 C3928 1.385 . S
C3925 H3900 0.951 . S
C3925 C3923 1.388 . S
C3925 C3926 1.366 . S
C3926 C3925 1.366 . S
C3926 C3927 1.414 . S
C3926 C3929 1.499 . S
C3927 H3901 0.950 . S
C3927 C3926 1.414 . S
C3927 C3928 1.374 . S
C3928 H3902 0.950 . S
C3928 C3924 1.385 . S
C3928 C3927 1.374 . S
C3929 C3926 1.499 . S
C3929 C3930 1.373 . S
C3929 C3931 1.389 . S
C3930 H3903 0.950 . S
C3930 C3916 1.377 . S
C3930 C3929 1.373 . S
C3931 C3915 1.377 . S
C3931 C3929 1.389 . S
C3931 C3932 1.524 . S
C3932 C3931 1.524 . S
C3932 C3933 1.397 . S
C3932 C3937 1.363 . S
C3933 H3904 0.950 . S
C3933 C3932 1.397 . S
C3933 C3934 1.334 . S
C3934 H3905 0.950 . S
C3934 C3933 1.334 . S
C3934 C3935 1.287 . S
C3935 C3934 1.287 . S
C3935 C3936 1.524 . S
C3935 H3938 0.999 . S
C3936 H3906 0.950 . S
C3936 C3935 1.524 . S
C3936 C3937 1.415 . S
C3937 H3907 0.950 . S
C3937 C3932 1.363 . S
C3937 C3936 1.415 . S
H3938 C3935 0.999 . S
H3939 C3920 0.913 . S
H3940 C3958 0.951 . S
H3941 C3960 0.951 . S
H3942 C3962 0.950 . S
H3943 C3963 0.950 . S
H3944 C3965 0.950 . S
H3945 C3968 0.950 . S
H3946 C3969 0.950 . S
H3947 C3971 0.950 . S
H3948 C3972 0.950 . S
H3949 C3973 0.951 . S
H3950 C3975 0.951 . S
H3951 C3977 0.950 . S
H3952 C3978 0.950 . S
H3953 C3980 0.950 . S
H3954 C3983 0.950 . S
H3955 C3984 0.950 1_554 S
H3956 C3986 0.950 . S
H3957 C3987 0.950 . S
C3958 H3940 0.951 . S
C3958 C3959 1.366 . S
C3958 C3960 1.388 . S
C3959 C3958 1.366 . S
C3959 C3963 1.385 . S
C3960 H3941 0.951 . S
C3960 C3958 1.388 . S
C3960 C3961 1.366 . S
C3961 C3960 1.366 . S
C3961 C3962 1.414 . S
C3961 C3964 1.499 . S
C3962 H3942 0.950 . S
C3962 C3961 1.414 . S
C3962 C3963 1.374 . S
C3963 H3943 0.950 . S
C3963 C3959 1.385 . S
C3963 C3962 1.374 . S
C3964 C3961 1.499 . S
C3964 C3965 1.373 . S
C3964 C3966 1.389 . S
C3965 H3944 0.950 . S
C3965 C3964 1.373 . S
C3965 C3981 1.377 . S
C3966 C3964 1.389 . S
C3966 C3967 1.524 . S
C3966 C3980 1.377 . S
C3967 C3966 1.524 . S
C3967 C3968 1.397 . S
C3967 C3972 1.363 . S
C3968 H3945 0.950 . S
C3968 C3967 1.397 . S
C3968 C3969 1.334 . S
C3969 H3946 0.950 . S
C3969 C3968 1.334 . S
C3969 C3970 1.287 . S
C3970 C3969 1.287 . S
C3970 C3971 1.524 . S
C3970 H3989 0.913 . S
C3971 H3947 0.950 . S
C3971 C3970 1.524 . S
C3971 C3972 1.415 . S
C3972 H3948 0.950 . S
C3972 C3967 1.363 . S
C3972 C3971 1.415 . S
C3973 H3949 0.951 . S
C3973 C3974 1.366 . S
C3973 C3975 1.388 . S
C3974 C3973 1.366 . S
C3974 C3978 1.385 . S
C3975 H3950 0.951 . S
C3975 C3973 1.388 . S
C3975 C3976 1.366 . S
C3976 C3975 1.366 . S
C3976 C3977 1.414 . S
C3976 C3979 1.499 . S
C3977 H3951 0.950 . S
C3977 C3976 1.414 . S
C3977 C3978 1.374 . S
C3978 H3952 0.950 . S
C3978 C3974 1.385 . S
C3978 C3977 1.374 . S
C3979 C3976 1.499 . S
C3979 C3980 1.373 . S
C3979 C3981 1.389 . S
C3980 H3953 0.950 . S
C3980 C3966 1.377 . S
C3980 C3979 1.373 . S
C3981 C3965 1.377 . S
C3981 C3979 1.389 . S
C3981 C3982 1.524 . S
C3982 C3981 1.524 . S
C3982 C3983 1.397 . S
C3982 C3987 1.363 . S
C3983 H3954 0.950 . S
C3983 C3982 1.397 . S
C3983 C3984 1.334 . S
C3984 H3955 0.950 1_556 S
C3984 C3983 1.334 . S
C3984 C3985 1.287 1_556 S
C3985 C3984 1.287 1_554 S
C3985 C3986 1.524 . S
C3985 H3988 0.999 . S
C3986 H3956 0.950 . S
C3986 C3985 1.524 . S
C3986 C3987 1.415 1_554 S
C3987 H3957 0.950 . S
C3987 C3982 1.363 . S
C3987 C3986 1.415 1_556 S
H3988 C3985 0.999 . S
H3989 C3970 0.913 . S
H3990 C4008 0.951 . S
H3991 C4010 0.951 . S
H3992 C4012 0.950 . S
H3993 C4013 0.950 . S
H3994 C4015 0.950 . S
H3995 C4018 0.950 . S
H3996 C4019 0.950 . S
H3997 C4021 0.950 . S
H3998 C4022 0.950 . S
H3999 C4023 0.951 . S
H4000 C4025 0.951 . S
H4001 C4027 0.950 1_554 S
H4002 C4028 0.950 . S
H4003 C4030 0.950 . S
H4004 C4033 0.950 . S
H4005 C4034 0.950 . S
H4006 C4036 0.950 . S
H4007 C4037 0.950 . S
C4008 H3990 0.951 . S
C4008 C4009 1.366 . S
C4008 C4010 1.388 . S
C4009 C4008 1.366 . S
C4009 C4013 1.385 . S
C4010 H3991 0.951 . S
C4010 C4008 1.388 . S
C4010 C4011 1.366 . S
C4011 C4010 1.366 . S
C4011 C4012 1.414 . S
C4011 C4014 1.499 . S
C4012 H3992 0.950 . S
C4012 C4011 1.414 . S
C4012 C4013 1.374 . S
C4013 H3993 0.950 . S
C4013 C4009 1.385 . S
C4013 C4012 1.374 . S
C4014 C4011 1.499 . S
C4014 C4015 1.373 . S
C4014 C4016 1.389 . S
C4015 H3994 0.950 . S
C4015 C4014 1.373 . S
C4015 C4031 1.377 . S
C4016 C4014 1.389 . S
C4016 C4017 1.524 . S
C4016 C4030 1.377 . S
C4017 C4016 1.524 . S
C4017 C4018 1.397 . S
C4017 C4022 1.363 1_556 S
C4018 H3995 0.950 . S
C4018 C4017 1.397 . S
C4018 C4019 1.334 . S
C4019 H3996 0.950 . S
C4019 C4018 1.334 . S
C4019 C4020 1.287 1_556 S
C4020 C4019 1.287 1_554 S
C4020 C4021 1.524 . S
C4020 H4039 0.913 . S
C4021 H3997 0.950 . S
C4021 C4020 1.524 . S
C4021 C4022 1.415 . S
C4022 H3998 0.950 . S
C4022 C4017 1.363 1_554 S
C4022 C4021 1.415 . S
C4023 H3999 0.951 . S
C4023 C4024 1.366 . S
C4023 C4025 1.388 . S
C4024 C4023 1.366 . S
C4024 C4028 1.385 1_556 S
C4025 H4000 0.951 . S
C4025 C4023 1.388 . S
C4025 C4026 1.366 . S
C4026 C4025 1.366 . S
C4026 C4027 1.414 . S
C4026 C4029 1.499 . S
C4027 H4001 0.950 1_556 S
C4027 C4026 1.414 . S
C4027 C4028 1.374 1_556 S
C4028 H4002 0.950 . S
C4028 C4024 1.385 1_554 S
C4028 C4027 1.374 1_554 S
C4029 C4026 1.499 . S
C4029 C4030 1.373 . S
C4029 C4031 1.389 . S
C4030 H4003 0.950 . S
C4030 C4016 1.377 . S
C4030 C4029 1.373 . S
C4031 C4015 1.377 . S
C4031 C4029 1.389 . S
C4031 C4032 1.524 . S
C4032 C4031 1.524 . S
C4032 C4033 1.397 . S
C4032 C4037 1.363 . S
C4033 H4004 0.950 . S
C4033 C4032 1.397 . S
C4033 C4034 1.334 . S
C4034 H4005 0.950 . S
C4034 C4033 1.334 . S
C4034 C4035 1.287 . S
C4035 C4034 1.287 . S
C4035 C4036 1.524 . S
C4035 H4038 0.999 . S
C4036 H4006 0.950 . S
C4036 C4035 1.524 . S
C4036 C4037 1.415 . S
C4037 H4007 0.950 . S
C4037 C4032 1.363 . S
C4037 C4036 1.415 . S
H4038 C4035 0.999 . S
H4039 C4020 0.913 . S
H4040 C4058 0.951 . S
H4041 C4060 0.951 . S
H4042 C4062 0.950 . S
H4043 C4063 0.950 . S
H4044 C4065 0.950 . S
H4045 C4068 0.950 . S
H4046 C4069 0.950 . S
H4047 C4071 0.950 . S
H4048 C4072 0.950 . S
H4049 C4073 0.951 . S
H4050 C4075 0.951 . S
H4051 C4077 0.950 . S
H4052 C4078 0.950 . S
H4053 C4080 0.950 . S
H4054 C4083 0.950 . S
H4055 C4084 0.950 . S
H4056 C4086 0.950 . S
H4057 C4087 0.950 . S
C4058 H4040 0.951 . S
C4058 C4059 1.366 . S
C4058 C4060 1.388 . S
C4059 C4058 1.366 . S
C4059 C4063 1.385 . S
C4060 H4041 0.951 . S
C4060 C4058 1.388 . S
C4060 C4061 1.366 . S
C4061 C4060 1.366 . S
C4061 C4062 1.414 . S
C4061 C4064 1.499 . S
C4062 H4042 0.950 . S
C4062 C4061 1.414 . S
C4062 C4063 1.374 . S
C4063 H4043 0.950 . S
C4063 C4059 1.385 . S
C4063 C4062 1.374 . S
C4064 C4061 1.499 . S
C4064 C4065 1.373 . S
C4064 C4066 1.389 . S
C4065 H4044 0.950 . S
C4065 C4064 1.373 . S
C4065 C4081 1.377 . S
C4066 C4064 1.389 . S
C4066 C4067 1.524 . S
C4066 C4080 1.377 . S
C4067 C4066 1.524 . S
C4067 C4068 1.397 . S
C4067 C4072 1.363 . S
C4068 H4045 0.950 . S
C4068 C4067 1.397 . S
C4068 C4069 1.334 . S
C4069 H4046 0.950 . S
C4069 C4068 1.334 . S
C4069 C4070 1.287 . S
C4070 C4069 1.287 . S
C4070 C4071 1.524 . S
C4070 H4089 0.913 . S
C4071 H4047 0.950 . S
C4071 C4070 1.524 . S
C4071 C4072 1.415 . S
C4072 H4048 0.950 . S
C4072 C4067 1.363 . S
C4072 C4071 1.415 . S
C4073 H4049 0.951 . S
C4073 C4074 1.366 . S
C4073 C4075 1.388 . S
C4074 C4073 1.366 . S
C4074 C4078 1.385 . S
C4075 H4050 0.951 . S
C4075 C4073 1.388 . S
C4075 C4076 1.366 . S
C4076 C4075 1.366 . S
C4076 C4077 1.414 . S
C4076 C4079 1.499 . S
C4077 H4051 0.950 . S
C4077 C4076 1.414 . S
C4077 C4078 1.374 . S
C4078 H4052 0.950 . S
C4078 C4074 1.385 . S
C4078 C4077 1.374 . S
C4079 C4076 1.499 . S
C4079 C4080 1.373 . S
C4079 C4081 1.389 . S
C4080 H4053 0.950 . S
C4080 C4066 1.377 . S
C4080 C4079 1.373 . S
C4081 C4065 1.377 . S
C4081 C4079 1.389 . S
C4081 C4082 1.524 . S
C4082 C4081 1.524 . S
C4082 C4083 1.397 . S
C4082 C4087 1.363 . S
C4083 H4054 0.950 . S
C4083 C4082 1.397 . S
C4083 C4084 1.334 . S
C4084 H4055 0.950 . S
C4084 C4083 1.334 . S
C4084 C4085 1.287 . S
C4085 C4084 1.287 . S
C4085 C4086 1.524 . S
C4085 H4088 0.999 . S
C4086 H4056 0.950 . S
C4086 C4085 1.524 . S
C4086 C4087 1.415 . S
C4087 H4057 0.950 . S
C4087 C4082 1.363 . S
C4087 C4086 1.415 . S
H4088 C4085 0.999 . S
H4089 C4070 0.913 . S
H4090 C4108 0.951 . S
H4091 C4110 0.951 . S
H4092 C4112 0.950 . S
H4093 C4113 0.950 . S
H4094 C4115 0.950 . S
H4095 C4118 0.950 . S
H4096 C4119 0.950 . S
H4097 C4121 0.950 . S
H4098 C4122 0.950 . S
H4099 C4123 0.951 . S
H4100 C4125 0.951 . S
H4101 C4127 0.950 . S
H4102 C4128 0.950 . S
H4103 C4130 0.950 . S
H4104 C4133 0.950 . S
H4105 C4134 0.950 . S
H4106 C4136 0.950 . S
H4107 C4137 0.950 . S
C4108 H4090 0.951 . S
C4108 C4109 1.366 . S
C4108 C4110 1.388 . S
C4109 C4108 1.366 . S
C4109 C4113 1.385 . S
C4110 H4091 0.951 . S
C4110 C4108 1.388 . S
C4110 C4111 1.366 . S
C4111 C4110 1.366 . S
C4111 C4112 1.414 . S
C4111 C4114 1.499 . S
C4112 H4092 0.950 . S
C4112 C4111 1.414 . S
C4112 C4113 1.374 . S
C4113 H4093 0.950 . S
C4113 C4109 1.385 . S
C4113 C4112 1.374 . S
C4114 C4111 1.499 . S
C4114 C4115 1.373 . S
C4114 C4116 1.389 . S
C4115 H4094 0.950 . S
C4115 C4114 1.373 . S
C4115 C4131 1.377 . S
C4116 C4114 1.389 . S
C4116 C4117 1.524 . S
C4116 C4130 1.377 . S
C4117 C4116 1.524 . S
C4117 C4118 1.397 . S
C4117 C4122 1.363 . S
C4118 H4095 0.950 . S
C4118 C4117 1.397 . S
C4118 C4119 1.334 . S
C4119 H4096 0.950 . S
C4119 C4118 1.334 . S
C4119 C4120 1.287 . S
C4120 C4119 1.287 . S
C4120 C4121 1.524 . S
C4120 H4139 0.913 . S
C4121 H4097 0.950 . S
C4121 C4120 1.524 . S
C4121 C4122 1.415 . S
C4122 H4098 0.950 . S
C4122 C4117 1.363 . S
C4122 C4121 1.415 . S
C4123 H4099 0.951 . S
C4123 C4124 1.366 . S
C4123 C4125 1.388 . S
C4124 C4123 1.366 . S
C4124 C4128 1.385 . S
C4125 H4100 0.951 . S
C4125 C4123 1.388 . S
C4125 C4126 1.366 . S
C4126 C4125 1.366 . S
C4126 C4127 1.414 . S
C4126 C4129 1.499 . S
C4127 H4101 0.950 . S
C4127 C4126 1.414 . S
C4127 C4128 1.374 . S
C4128 H4102 0.950 . S
C4128 C4124 1.385 . S
C4128 C4127 1.374 . S
C4129 C4126 1.499 . S
C4129 C4130 1.373 . S
C4129 C4131 1.389 . S
C4130 H4103 0.950 . S
C4130 C4116 1.377 . S
C4130 C4129 1.373 . S
C4131 C4115 1.377 . S
C4131 C4129 1.389 . S
C4131 C4132 1.524 . S
C4132 C4131 1.524 . S
C4132 C4133 1.397 . S
C4132 C4137 1.363 . S
C4133 H4104 0.950 . S
C4133 C4132 1.397 . S
C4133 C4134 1.334 . S
C4134 H4105 0.950 . S
C4134 C4133 1.334 . S
C4134 C4135 1.287 . S
C4135 C4134 1.287 . S
C4135 C4136 1.524 . S
C4135 H4138 0.999 . S
C4136 H4106 0.950 . S
C4136 C4135 1.524 . S
C4136 C4137 1.415 . S
C4137 H4107 0.950 . S
C4137 C4132 1.363 . S
C4137 C4136 1.415 . S
H4138 C4135 0.999 . S
H4139 C4120 0.913 . S
H4140 C4158 0.951 . S
H4141 C4160 0.951 . S
H4142 C4162 0.950 . S
H4143 C4163 0.950 . S
H4144 C4165 0.950 . S
H4145 C4168 0.950 . S
H4146 C4169 0.950 . S
H4147 C4171 0.950 . S
H4148 C4172 0.950 . S
H4149 C4173 0.951 . S
H4150 C4175 0.951 . S
H4151 C4177 0.950 . S
H4152 C4178 0.950 . S
H4153 C4180 0.950 . S
H4154 C4183 0.950 . S
H4155 C4184 0.950 . S
H4156 C4186 0.950 . S
H4157 C4187 0.950 . S
C4158 H4140 0.951 . S
C4158 C4159 1.366 . S
C4158 C4160 1.388 . S
C4159 C4158 1.366 . S
C4159 C4163 1.385 . S
C4160 H4141 0.951 . S
C4160 C4158 1.388 . S
C4160 C4161 1.366 . S
C4161 C4160 1.366 . S
C4161 C4162 1.414 . S
C4161 C4164 1.499 . S
C4162 H4142 0.950 . S
C4162 C4161 1.414 . S
C4162 C4163 1.374 . S
C4163 H4143 0.950 . S
C4163 C4159 1.385 . S
C4163 C4162 1.374 . S
C4164 C4161 1.499 . S
C4164 C4165 1.373 . S
C4164 C4166 1.389 . S
C4165 H4144 0.950 . S
C4165 C4164 1.373 . S
C4165 C4181 1.377 . S
C4166 C4164 1.389 . S
C4166 C4167 1.524 . S
C4166 C4180 1.377 . S
C4167 C4166 1.524 . S
C4167 C4168 1.397 1_554 S
C4167 C4172 1.363 . S
C4168 H4145 0.950 . S
C4168 C4167 1.397 1_556 S
C4168 C4169 1.334 . S
C4169 H4146 0.950 . S
C4169 C4168 1.334 . S
C4169 C4170 1.287 . S
C4170 C4169 1.287 . S
C4170 C4171 1.524 . S
C4170 H4189 0.913 . S
C4171 H4147 0.950 . S
C4171 C4170 1.524 . S
C4171 C4172 1.415 1_556 S
C4172 H4148 0.950 . S
C4172 C4167 1.363 . S
C4172 C4171 1.415 1_554 S
C4173 H4149 0.951 . S
C4173 C4174 1.366 . S
C4173 C4175 1.388 . S
C4174 C4173 1.366 . S
C4174 C4178 1.385 . S
C4175 H4150 0.951 . S
C4175 C4173 1.388 . S
C4175 C4176 1.366 . S
C4176 C4175 1.366 . S
C4176 C4177 1.414 . S
C4176 C4179 1.499 . S
C4177 H4151 0.950 . S
C4177 C4176 1.414 . S
C4177 C4178 1.374 . S
C4178 H4152 0.950 . S
C4178 C4174 1.385 . S
C4178 C4177 1.374 . S
C4179 C4176 1.499 . S
C4179 C4180 1.373 . S
C4179 C4181 1.389 . S
C4180 H4153 0.950 . S
C4180 C4166 1.377 . S
C4180 C4179 1.373 . S
C4181 C4165 1.377 . S
C4181 C4179 1.389 . S
C4181 C4182 1.524 . S
C4182 C4181 1.524 . S
C4182 C4183 1.397 . S
C4182 C4187 1.363 . S
C4183 H4154 0.950 . S
C4183 C4182 1.397 . S
C4183 C4184 1.334 . S
C4184 H4155 0.950 . S
C4184 C4183 1.334 . S
C4184 C4185 1.287 . S
C4185 C4184 1.287 . S
C4185 C4186 1.524 . S
C4185 H4188 0.999 . S
C4186 H4156 0.950 . S
C4186 C4185 1.524 . S
C4186 C4187 1.415 . S
C4187 H4157 0.950 . S
C4187 C4182 1.363 . S
C4187 C4186 1.415 . S
H4188 C4185 0.999 . S
H4189 C4170 0.913 . S
H4190 C4208 0.951 . S
H4191 C4210 0.951 . S
H4192 C4212 0.950 . S
H4193 C4213 0.950 . S
H4194 C4215 0.950 . S
H4195 C4218 0.950 . S
H4196 C4219 0.950 . S
H4197 C4221 0.950 . S
H4198 C4222 0.950 . S
H4199 C4223 0.951 . S
H4200 C4225 0.951 . S
H4201 C4227 0.950 . S
H4202 C4228 0.950 . S
H4203 C4230 0.950 . S
H4204 C4233 0.950 . S
H4205 C4234 0.950 1_556 S
H4206 C4236 0.950 . S
H4207 C4237 0.950 . S
C4208 H4190 0.951 . S
C4208 C4209 1.366 . S
C4208 C4210 1.388 . S
C4209 C4208 1.366 . S
C4209 C4213 1.385 . S
C4210 H4191 0.951 . S
C4210 C4208 1.388 . S
C4210 C4211 1.366 . S
C4211 C4210 1.366 . S
C4211 C4212 1.414 . S
C4211 C4214 1.499 . S
C4212 H4192 0.950 . S
C4212 C4211 1.414 . S
C4212 C4213 1.374 . S
C4213 H4193 0.950 . S
C4213 C4209 1.385 . S
C4213 C4212 1.374 . S
C4214 C4211 1.499 . S
C4214 C4215 1.373 . S
C4214 C4216 1.389 . S
C4215 H4194 0.950 . S
C4215 C4214 1.373 . S
C4215 C4231 1.377 . S
C4216 C4214 1.389 . S
C4216 C4217 1.524 . S
C4216 C4230 1.377 . S
C4217 C4216 1.524 . S
C4217 C4218 1.397 . S
C4217 C4222 1.363 . S
C4218 H4195 0.950 . S
C4218 C4217 1.397 . S
C4218 C4219 1.334 . S
C4219 H4196 0.950 . S
C4219 C4218 1.334 . S
C4219 C4220 1.287 . S
C4220 C4219 1.287 . S
C4220 C4221 1.524 . S
C4220 H4239 0.913 . S
C4221 H4197 0.950 . S
C4221 C4220 1.524 . S
C4221 C4222 1.415 . S
C4222 H4198 0.950 . S
C4222 C4217 1.363 . S
C4222 C4221 1.415 . S
C4223 H4199 0.951 . S
C4223 C4224 1.366 . S
C4223 C4225 1.388 . S
C4224 C4223 1.366 . S
C4224 C4228 1.385 . S
C4225 H4200 0.951 . S
C4225 C4223 1.388 . S
C4225 C4226 1.366 . S
C4226 C4225 1.366 . S
C4226 C4227 1.414 . S
C4226 C4229 1.499 . S
C4227 H4201 0.950 . S
C4227 C4226 1.414 . S
C4227 C4228 1.374 . S
C4228 H4202 0.950 . S
C4228 C4224 1.385 . S
C4228 C4227 1.374 . S
C4229 C4226 1.499 . S
C4229 C4230 1.373 . S
C4229 C4231 1.389 . S
C4230 H4203 0.950 . S
C4230 C4216 1.377 . S
C4230 C4229 1.373 . S
C4231 C4215 1.377 . S
C4231 C4229 1.389 . S
C4231 C4232 1.524 . S
C4232 C4231 1.524 . S
C4232 C4233 1.397 . S
C4232 C4237 1.363 . S
C4233 H4204 0.950 . S
C4233 C4232 1.397 . S
C4233 C4234 1.334 . S
C4234 H4205 0.950 1_554 S
C4234 C4233 1.334 . S
C4234 C4235 1.287 1_554 S
C4235 C4234 1.287 1_556 S
C4235 C4236 1.524 . S
C4235 H4238 0.999 . S
C4236 H4206 0.950 . S
C4236 C4235 1.524 . S
C4236 C4237 1.415 1_556 S
C4237 H4207 0.950 . S
C4237 C4232 1.363 . S
C4237 C4236 1.415 1_554 S
H4238 C4235 0.999 . S
H4239 C4220 0.913 . S
H4240 C4258 0.951 1_554 S
H4241 C4260 0.951 . S
H4242 C4262 0.950 . S
H4243 C4263 0.950 . S
H4244 C4265 0.950 . S
H4245 C4268 0.950 . S
H4246 C4269 0.950 . S
H4247 C4271 0.950 . S
H4248 C4272 0.950 . S
H4249 C4273 0.951 . S
H4250 C4275 0.951 . S
H4251 C4277 0.950 . S
H4252 C4278 0.950 . S
H4253 C4280 0.950 . S
H4254 C4283 0.950 . S
H4255 C4284 0.950 . S
H4256 C4286 0.950 . S
H4257 C4287 0.950 . S
C4258 H4240 0.951 1_556 S
C4258 C4259 1.366 . S
C4258 C4260 1.388 . S
C4259 C4258 1.366 . S
C4259 C4263 1.385 . S
C4260 H4241 0.951 . S
C4260 C4258 1.388 . S
C4260 C4261 1.366 . S
C4261 C4260 1.366 . S
C4261 C4262 1.414 . S
C4261 C4264 1.499 . S
C4262 H4242 0.950 . S
C4262 C4261 1.414 . S
C4262 C4263 1.374 . S
C4263 H4243 0.950 . S
C4263 C4259 1.385 . S
C4263 C4262 1.374 . S
C4264 C4261 1.499 . S
C4264 C4265 1.373 . S
C4264 C4266 1.389 . S
C4265 H4244 0.950 . S
C4265 C4264 1.373 . S
C4265 C4281 1.377 . S
C4266 C4264 1.389 . S
C4266 C4267 1.524 . S
C4266 C4280 1.377 . S
C4267 C4266 1.524 . S
C4267 C4268 1.397 . S
C4267 C4272 1.363 . S
C4268 H4245 0.950 . S
C4268 C4267 1.397 . S
C4268 C4269 1.334 . S
C4269 H4246 0.950 . S
C4269 C4268 1.334 . S
C4269 C4270 1.287 . S
C4270 C4269 1.287 . S
C4270 C4271 1.524 . S
C4270 H4289 0.913 . S
C4271 H4247 0.950 . S
C4271 C4270 1.524 . S
C4271 C4272 1.415 . S
C4272 H4248 0.950 . S
C4272 C4267 1.363 . S
C4272 C4271 1.415 . S
C4273 H4249 0.951 . S
C4273 C4274 1.366 . S
C4273 C4275 1.388 . S
C4274 C4273 1.366 . S
C4274 C4278 1.385 . S
C4275 H4250 0.951 . S
C4275 C4273 1.388 . S
C4275 C4276 1.366 . S
C4276 C4275 1.366 . S
C4276 C4277 1.414 . S
C4276 C4279 1.499 . S
C4277 H4251 0.950 . S
C4277 C4276 1.414 . S
C4277 C4278 1.374 . S
C4278 H4252 0.950 . S
C4278 C4274 1.385 . S
C4278 C4277 1.374 . S
C4279 C4276 1.499 . S
C4279 C4280 1.373 . S
C4279 C4281 1.389 . S
C4280 H4253 0.950 . S
C4280 C4266 1.377 . S
C4280 C4279 1.373 . S
C4281 C4265 1.377 . S
C4281 C4279 1.389 . S
C4281 C4282 1.524 . S
C4282 C4281 1.524 . S
C4282 C4283 1.397 . S
C4282 C4287 1.363 . S
C4283 H4254 0.950 . S
C4283 C4282 1.397 . S
C4283 C4284 1.334 . S
C4284 H4255 0.950 . S
C4284 C4283 1.334 . S
C4284 C4285 1.287 . S
C4285 C4284 1.287 . S
C4285 C4286 1.524 . S
C4285 H4288 0.999 . S
C4286 H4256 0.950 . S
C4286 C4285 1.524 . S
C4286 C4287 1.415 . S
C4287 H4257 0.950 . S
C4287 C4282 1.363 . S
C4287 C4286 1.415 . S
H4288 C4285 0.999 . S
H4289 C4270 0.913 . S
H4290 C4308 0.951 . S
H4291 C4310 0.951 . S
H4292 C4312 0.950 . S
H4293 C4313 0.950 . S
H4294 C4315 0.950 . S
H4295 C4318 0.950 . S
H4296 C4319 0.950 . S
H4297 C4321 0.950 . S
H4298 C4322 0.950 . S
H4299 C4323 0.951 . S
H4300 C4325 0.951 . S
H4301 C4327 0.950 . S
H4302 C4328 0.950 . S
H4303 C4330 0.950 . S
H4304 C4333 0.950 . S
H4305 C4334 0.950 . S
H4306 C4336 0.950 . S
H4307 C4337 0.950 . S
C4308 H4290 0.951 . S
C4308 C4309 1.366 . S
C4308 C4310 1.388 . S
C4309 C4308 1.366 . S
C4309 C4313 1.385 . S
C4310 H4291 0.951 . S
C4310 C4308 1.388 . S
C4310 C4311 1.366 . S
C4311 C4310 1.366 . S
C4311 C4312 1.414 . S
C4311 C4314 1.499 . S
C4312 H4292 0.950 . S
C4312 C4311 1.414 . S
C4312 C4313 1.374 . S
C4313 H4293 0.950 . S
C4313 C4309 1.385 . S
C4313 C4312 1.374 . S
C4314 C4311 1.499 . S
C4314 C4315 1.373 . S
C4314 C4316 1.389 . S
C4315 H4294 0.950 . S
C4315 C4314 1.373 . S
C4315 C4331 1.377 . S
C4316 C4314 1.389 . S
C4316 C4317 1.524 . S
C4316 C4330 1.377 . S
C4317 C4316 1.524 . S
C4317 C4318 1.397 . S
C4317 C4322 1.363 . S
C4318 H4295 0.950 . S
C4318 C4317 1.397 . S
C4318 C4319 1.334 . S
C4319 H4296 0.950 . S
C4319 C4318 1.334 . S
C4319 C4320 1.287 . S
C4320 C4319 1.287 . S
C4320 C4321 1.524 . S
C4320 H4339 0.913 . S
C4321 H4297 0.950 . S
C4321 C4320 1.524 . S
C4321 C4322 1.415 . S
C4322 H4298 0.950 . S
C4322 C4317 1.363 . S
C4322 C4321 1.415 . S
C4323 H4299 0.951 . S
C4323 C4324 1.366 . S
C4323 C4325 1.388 . S
C4324 C4323 1.366 . S
C4324 C4328 1.385 . S
C4325 H4300 0.951 . S
C4325 C4323 1.388 . S
C4325 C4326 1.366 . S
C4326 C4325 1.366 . S
C4326 C4327 1.414 . S
C4326 C4329 1.499 . S
C4327 H4301 0.950 . S
C4327 C4326 1.414 . S
C4327 C4328 1.374 . S
C4328 H4302 0.950 . S
C4328 C4324 1.385 . S
C4328 C4327 1.374 . S
C4329 C4326 1.499 . S
C4329 C4330 1.373 . S
C4329 C4331 1.389 . S
C4330 H4303 0.950 . S
C4330 C4316 1.377 . S
C4330 C4329 1.373 . S
C4331 C4315 1.377 . S
C4331 C4329 1.389 . S
C4331 C4332 1.524 . S
C4332 C4331 1.524 . S
C4332 C4333 1.397 1_556 S
C4332 C4337 1.363 . S
C4333 H4304 0.950 . S
C4333 C4332 1.397 1_554 S
C4333 C4334 1.334 . S
C4334 H4305 0.950 . S
C4334 C4333 1.334 . S
C4334 C4335 1.287 . S
C4335 C4334 1.287 . S
C4335 C4336 1.524 . S
C4335 H4338 0.999 . S
C4336 H4306 0.950 . S
C4336 C4335 1.524 . S
C4336 C4337 1.415 1_554 S
C4337 H4307 0.950 . S
C4337 C4332 1.363 . S
C4337 C4336 1.415 1_556 S
H4338 C4335 0.999 . S
H4339 C4320 0.913 . S
H4340 C4358 0.951 . S
H4341 C4360 0.951 . S
H4342 C4362 0.950 . S
H4343 C4363 0.950 . S
H4344 C4365 0.950 . S
H4345 C4368 0.950 . S
H4346 C4369 0.950 . S
H4347 C4371 0.950 . S
H4348 C4372 0.950 . S
H4349 C4373 0.951 . S
H4350 C4375 0.951 . S
H4351 C4377 0.950 . S
H4352 C4378 0.950 . S
H4353 C4380 0.950 . S
H4354 C4383 0.950 . S
H4355 C4384 0.950 . S
H4356 C4386 0.950 . S
H4357 C4387 0.950 . S
C4358 H4340 0.951 . S
C4358 C4359 1.366 . S
C4358 C4360 1.388 . S
C4359 C4358 1.366 . S
C4359 C4363 1.385 . S
C4360 H4341 0.951 . S
C4360 C4358 1.388 . S
C4360 C4361 1.366 . S
C4361 C4360 1.366 . S
C4361 C4362 1.414 . S
C4361 C4364 1.499 . S
C4362 H4342 0.950 . S
C4362 C4361 1.414 . S
C4362 C4363 1.374 . S
C4363 H4343 0.950 . S
C4363 C4359 1.385 . S
C4363 C4362 1.374 . S
C4364 C4361 1.499 . S
C4364 C4365 1.373 . S
C4364 C4366 1.389 . S
C4365 H4344 0.950 . S
C4365 C4364 1.373 . S
C4365 C4381 1.377 . S
C4366 C4364 1.389 . S
C4366 C4367 1.524 . S
C4366 C4380 1.377 . S
C4367 C4366 1.524 . S
C4367 C4368 1.397 . S
C4367 C4372 1.363 . S
C4368 H4345 0.950 . S
C4368 C4367 1.397 . S
C4368 C4369 1.334 . S
C4369 H4346 0.950 . S
C4369 C4368 1.334 . S
C4369 C4370 1.287 . S
C4370 C4369 1.287 . S
C4370 C4371 1.524 . S
C4370 H4389 0.913 . S
C4371 H4347 0.950 . S
C4371 C4370 1.524 . S
C4371 C4372 1.415 . S
C4372 H4348 0.950 . S
C4372 C4367 1.363 . S
C4372 C4371 1.415 . S
C4373 H4349 0.951 . S
C4373 C4374 1.366 . S
C4373 C4375 1.388 . S
C4374 C4373 1.366 . S
C4374 C4378 1.385 . S
C4375 H4350 0.951 . S
C4375 C4373 1.388 . S
C4375 C4376 1.366 . S
C4376 C4375 1.366 . S
C4376 C4377 1.414 . S
C4376 C4379 1.499 . S
C4377 H4351 0.950 . S
C4377 C4376 1.414 . S
C4377 C4378 1.374 . S
C4378 H4352 0.950 . S
C4378 C4374 1.385 . S
C4378 C4377 1.374 . S
C4379 C4376 1.499 . S
C4379 C4380 1.373 . S
C4379 C4381 1.389 . S
C4380 H4353 0.950 . S
C4380 C4366 1.377 . S
C4380 C4379 1.373 . S
C4381 C4365 1.377 . S
C4381 C4379 1.389 . S
C4381 C4382 1.524 . S
C4382 C4381 1.524 . S
C4382 C4383 1.397 . S
C4382 C4387 1.363 . S
C4383 H4354 0.950 . S
C4383 C4382 1.397 . S
C4383 C4384 1.334 . S
C4384 H4355 0.950 . S
C4384 C4383 1.334 . S
C4384 C4385 1.287 . S
C4385 C4384 1.287 . S
C4385 C4386 1.524 . S
C4385 H4388 0.999 . S
C4386 H4356 0.950 . S
C4386 C4385 1.524 . S
C4386 C4387 1.415 . S
C4387 H4357 0.950 . S
C4387 C4382 1.363 . S
C4387 C4386 1.415 . S
H4388 C4385 0.999 . S
H4389 C4370 0.913 . S
H4390 C4408 0.951 . S
H4391 C4410 0.951 . S
H4392 C4412 0.950 . S
H4393 C4413 0.950 . S
H4394 C4415 0.950 . S
H4395 C4418 0.950 . S
H4396 C4419 0.950 . S
H4397 C4421 0.950 . S
H4398 C4422 0.950 . S
H4399 C4423 0.951 . S
H4400 C4425 0.951 . S
H4401 C4427 0.950 . S
H4402 C4428 0.950 . S
H4403 C4430 0.950 . S
H4404 C4433 0.950 . S
H4405 C4434 0.950 . S
H4406 C4436 0.950 . S
H4407 C4437 0.950 . S
C4408 H4390 0.951 . S
C4408 C4409 1.366 . S
C4408 C4410 1.388 . S
C4409 C4408 1.366 . S
C4409 C4413 1.385 . S
C4410 H4391 0.951 . S
C4410 C4408 1.388 . S
C4410 C4411 1.366 . S
C4411 C4410 1.366 . S
C4411 C4412 1.414 . S
C4411 C4414 1.499 . S
C4412 H4392 0.950 . S
C4412 C4411 1.414 . S
C4412 C4413 1.374 . S
C4413 H4393 0.950 . S
C4413 C4409 1.385 . S
C4413 C4412 1.374 . S
C4414 C4411 1.499 . S
C4414 C4415 1.373 . S
C4414 C4416 1.389 . S
C4415 H4394 0.950 . S
C4415 C4414 1.373 . S
C4415 C4431 1.377 . S
C4416 C4414 1.389 . S
C4416 C4417 1.524 . S
C4416 C4430 1.377 . S
C4417 C4416 1.524 . S
C4417 C4418 1.397 . S
C4417 C4422 1.363 . S
C4418 H4395 0.950 . S
C4418 C4417 1.397 . S
C4418 C4419 1.334 . S
C4419 H4396 0.950 . S
C4419 C4418 1.334 . S
C4419 C4420 1.287 . S
C4420 C4419 1.287 . S
C4420 C4421 1.524 . S
C4420 H4439 0.913 . S
C4421 H4397 0.950 . S
C4421 C4420 1.524 . S
C4421 C4422 1.415 . S
C4422 H4398 0.950 . S
C4422 C4417 1.363 . S
C4422 C4421 1.415 . S
C4423 H4399 0.951 . S
C4423 C4424 1.366 . S
C4423 C4425 1.388 . S
C4424 C4423 1.366 . S
C4424 C4428 1.385 . S
C4425 H4400 0.951 . S
C4425 C4423 1.388 . S
C4425 C4426 1.366 . S
C4426 C4425 1.366 . S
C4426 C4427 1.414 . S
C4426 C4429 1.499 . S
C4427 H4401 0.950 . S
C4427 C4426 1.414 . S
C4427 C4428 1.374 . S
C4428 H4402 0.950 . S
C4428 C4424 1.385 . S
C4428 C4427 1.374 . S
C4429 C4426 1.499 . S
C4429 C4430 1.373 . S
C4429 C4431 1.389 . S
C4430 H4403 0.950 . S
C4430 C4416 1.377 . S
C4430 C4429 1.373 . S
C4431 C4415 1.377 . S
C4431 C4429 1.389 . S
C4431 C4432 1.524 . S
C4432 C4431 1.524 . S
C4432 C4433 1.397 . S
C4432 C4437 1.363 . S
C4433 H4404 0.950 . S
C4433 C4432 1.397 . S
C4433 C4434 1.334 . S
C4434 H4405 0.950 . S
C4434 C4433 1.334 . S
C4434 C4435 1.287 . S
C4435 C4434 1.287 . S
C4435 C4436 1.524 . S
C4435 H4438 0.999 . S
C4436 H4406 0.950 . S
C4436 C4435 1.524 . S
C4436 C4437 1.415 . S
C4437 H4407 0.950 . S
C4437 C4432 1.363 . S
C4437 C4436 1.415 . S
H4438 C4435 0.999 . S
H4439 C4420 0.913 . S
H4440 C4458 0.951 . S
H4441 C4460 0.951 . S
H4442 C4462 0.950 . S
H4443 C4463 0.950 . S
H4444 C4465 0.950 . S
H4445 C4468 0.950 . S
H4446 C4469 0.950 . S
H4447 C4471 0.950 . S
H4448 C4472 0.950 . S
H4449 C4473 0.951 . S
H4450 C4475 0.951 . S
H4451 C4477 0.950 . S
H4452 C4478 0.950 . S
H4453 C4480 0.950 . S
H4454 C4483 0.950 . S
H4455 C4484 0.950 . S
H4456 C4486 0.950 . S
H4457 C4487 0.950 . S
C4458 H4440 0.951 . S
C4458 C4459 1.366 1_556 S
C4458 C4460 1.388 1_556 S
C4459 C4458 1.366 1_554 S
C4459 C4463 1.385 . S
C4460 H4441 0.951 . S
C4460 C4458 1.388 1_554 S
C4460 C4461 1.366 . S
C4461 C4460 1.366 . S
C4461 C4462 1.414 . S
C4461 C4464 1.499 . S
C4462 H4442 0.950 . S
C4462 C4461 1.414 . S
C4462 C4463 1.374 . S
C4463 H4443 0.950 . S
C4463 C4459 1.385 . S
C4463 C4462 1.374 . S
C4464 C4461 1.499 . S
C4464 C4465 1.373 . S
C4464 C4466 1.389 . S
C4465 H4444 0.950 . S
C4465 C4464 1.373 . S
C4465 C4481 1.377 . S
C4466 C4464 1.389 . S
C4466 C4467 1.524 . S
C4466 C4480 1.377 . S
C4467 C4466 1.524 . S
C4467 C4468 1.397 . S
C4467 C4472 1.363 . S
C4468 H4445 0.950 . S
C4468 C4467 1.397 . S
C4468 C4469 1.334 . S
C4469 H4446 0.950 . S
C4469 C4468 1.334 . S
C4469 C4470 1.287 . S
C4470 C4469 1.287 . S
C4470 C4471 1.524 . S
C4470 H4489 0.913 . S
C4471 H4447 0.950 . S
C4471 C4470 1.524 . S
C4471 C4472 1.415 . S
C4472 H4448 0.950 . S
C4472 C4467 1.363 . S
C4472 C4471 1.415 . S
C4473 H4449 0.951 . S
C4473 C4474 1.366 . S
C4473 C4475 1.388 . S
C4474 C4473 1.366 . S
C4474 C4478 1.385 . S
C4475 H4450 0.951 . S
C4475 C4473 1.388 . S
C4475 C4476 1.366 . S
C4476 C4475 1.366 . S
C4476 C4477 1.414 . S
C4476 C4479 1.499 . S
C4477 H4451 0.950 . S
C4477 C4476 1.414 . S
C4477 C4478 1.374 . S
C4478 H4452 0.950 . S
C4478 C4474 1.385 . S
C4478 C4477 1.374 . S
C4479 C4476 1.499 . S
C4479 C4480 1.373 . S
C4479 C4481 1.389 . S
C4480 H4453 0.950 . S
C4480 C4466 1.377 . S
C4480 C4479 1.373 . S
C4481 C4465 1.377 . S
C4481 C4479 1.389 . S
C4481 C4482 1.524 . S
C4482 C4481 1.524 . S
C4482 C4483 1.397 . S
C4482 C4487 1.363 . S
C4483 H4454 0.950 . S
C4483 C4482 1.397 . S
C4483 C4484 1.334 . S
C4484 H4455 0.950 . S
C4484 C4483 1.334 . S
C4484 C4485 1.287 . S
C4485 C4484 1.287 . S
C4485 C4486 1.524 . S
C4485 H4488 0.999 . S
C4486 H4456 0.950 . S
C4486 C4485 1.524 . S
C4486 C4487 1.415 . S
C4487 H4457 0.950 . S
C4487 C4482 1.363 . S
C4487 C4486 1.415 . S
H4488 C4485 0.999 . S
H4489 C4470 0.913 . S
H4490 C4508 0.951 . S
H4491 C4510 0.951 . S
H4492 C4512 0.950 . S
H4493 C4513 0.950 . S
H4494 C4515 0.950 . S
H4495 C4518 0.950 . S
H4496 C4519 0.950 . S
H4497 C4521 0.950 . S
H4498 C4522 0.950 . S
H4499 C4523 0.951 . S
H4500 C4525 0.951 . S
H4501 C4527 0.950 . S
H4502 C4528 0.950 1_556 S
H4503 C4530 0.950 . S
H4504 C4533 0.950 . S
H4505 C4534 0.950 . S
H4506 C4536 0.950 . S
H4507 C4537 0.950 . S
C4508 H4490 0.951 . S
C4508 C4509 1.366 . S
C4508 C4510 1.388 . S
C4509 C4508 1.366 . S
C4509 C4513 1.385 . S
C4510 H4491 0.951 . S
C4510 C4508 1.388 . S
C4510 C4511 1.366 . S
C4511 C4510 1.366 . S
C4511 C4512 1.414 . S
C4511 C4514 1.499 . S
C4512 H4492 0.950 . S
C4512 C4511 1.414 . S
C4512 C4513 1.374 . S
C4513 H4493 0.950 . S
C4513 C4509 1.385 . S
C4513 C4512 1.374 . S
C4514 C4511 1.499 . S
C4514 C4515 1.373 . S
C4514 C4516 1.389 . S
C4515 H4494 0.950 . S
C4515 C4514 1.373 . S
C4515 C4531 1.377 . S
C4516 C4514 1.389 . S
C4516 C4517 1.524 . S
C4516 C4530 1.377 . S
C4517 C4516 1.524 . S
C4517 C4518 1.397 . S
C4517 C4522 1.363 1_554 S
C4518 H4495 0.950 . S
C4518 C4517 1.397 . S
C4518 C4519 1.334 . S
C4519 H4496 0.950 . S
C4519 C4518 1.334 . S
C4519 C4520 1.287 1_554 S
C4520 C4519 1.287 1_556 S
C4520 C4521 1.524 . S
C4520 H4539 0.913 . S
C4521 H4497 0.950 . S
C4521 C4520 1.524 . S
C4521 C4522 1.415 . S
C4522 H4498 0.950 . S
C4522 C4517 1.363 1_556 S
C4522 C4521 1.415 . S
C4523 H4499 0.951 . S
C4523 C4524 1.366 . S
C4523 C4525 1.388 . S
C4524 C4523 1.366 . S
C4524 C4528 1.385 . S
C4525 H4500 0.951 . S
C4525 C4523 1.388 . S
C4525 C4526 1.366 . S
C4526 C4525 1.366 . S
C4526 C4527 1.414 . S
C4526 C4529 1.499 . S
C4527 H4501 0.950 . S
C4527 C4526 1.414 . S
C4527 C4528 1.374 . S
C4528 H4502 0.950 1_554 S
C4528 C4524 1.385 . S
C4528 C4527 1.374 . S
C4529 C4526 1.499 . S
C4529 C4530 1.373 . S
C4529 C4531 1.389 . S
C4530 H4503 0.950 . S
C4530 C4516 1.377 . S
C4530 C4529 1.373 . S
C4531 C4515 1.377 . S
C4531 C4529 1.389 . S
C4531 C4532 1.524 . S
C4532 C4531 1.524 . S
C4532 C4533 1.397 . S
C4532 C4537 1.363 . S
C4533 H4504 0.950 . S
C4533 C4532 1.397 . S
C4533 C4534 1.334 . S
C4534 H4505 0.950 . S
C4534 C4533 1.334 . S
C4534 C4535 1.287 . S
C4535 C4534 1.287 . S
C4535 C4536 1.524 . S
C4535 H4538 0.999 . S
C4536 H4506 0.950 . S
C4536 C4535 1.524 . S
C4536 C4537 1.415 . S
C4537 H4507 0.950 . S
C4537 C4532 1.363 . S
C4537 C4536 1.415 . S
H4538 C4535 0.999 . S
H4539 C4520 0.913 . S
H4540 C4558 0.951 . S
H4541 C4560 0.951 . S
H4542 C4562 0.950 . S
H4543 C4563 0.950 . S
H4544 C4565 0.950 . S
H4545 C4568 0.950 . S
H4546 C4569 0.950 . S
H4547 C4571 0.950 . S
H4548 C4572 0.950 . S
H4549 C4573 0.951 . S
H4550 C4575 0.951 . S
H4551 C4577 0.950 . S
H4552 C4578 0.950 . S
H4553 C4580 0.950 . S
H4554 C4583 0.950 . S
H4555 C4584 0.950 . S
H4556 C4586 0.950 . S
H4557 C4587 0.950 . S
C4558 H4540 0.951 . S
C4558 C4559 1.366 . S
C4558 C4560 1.388 . S
C4559 C4558 1.366 . S
C4559 C4563 1.385 . S
C4560 H4541 0.951 . S
C4560 C4558 1.388 . S
C4560 C4561 1.366 . S
C4561 C4560 1.366 . S
C4561 C4562 1.414 . S
C4561 C4564 1.499 . S
C4562 H4542 0.950 . S
C4562 C4561 1.414 . S
C4562 C4563 1.374 . S
C4563 H4543 0.950 . S
C4563 C4559 1.385 . S
C4563 C4562 1.374 . S
C4564 C4561 1.499 . S
C4564 C4565 1.373 . S
C4564 C4566 1.389 . S
C4565 H4544 0.950 . S
C4565 C4564 1.373 . S
C4565 C4581 1.377 . S
C4566 C4564 1.389 . S
C4566 C4567 1.524 . S
C4566 C4580 1.377 . S
C4567 C4566 1.524 . S
C4567 C4568 1.397 . S
C4567 C4572 1.363 . S
C4568 H4545 0.950 . S
C4568 C4567 1.397 . S
C4568 C4569 1.334 . S
C4569 H4546 0.950 . S
C4569 C4568 1.334 . S
C4569 C4570 1.287 . S
C4570 C4569 1.287 . S
C4570 C4571 1.524 . S
C4570 H4589 0.913 . S
C4571 H4547 0.950 . S
C4571 C4570 1.524 . S
C4571 C4572 1.415 . S
C4572 H4548 0.950 . S
C4572 C4567 1.363 . S
C4572 C4571 1.415 . S
C4573 H4549 0.951 . S
C4573 C4574 1.366 . S
C4573 C4575 1.388 . S
C4574 C4573 1.366 . S
C4574 C4578 1.385 . S
C4575 H4550 0.951 . S
C4575 C4573 1.388 . S
C4575 C4576 1.366 . S
C4576 C4575 1.366 . S
C4576 C4577 1.414 . S
C4576 C4579 1.499 . S
C4577 H4551 0.950 . S
C4577 C4576 1.414 . S
C4577 C4578 1.374 . S
C4578 H4552 0.950 . S
C4578 C4574 1.385 . S
C4578 C4577 1.374 . S
C4579 C4576 1.499 . S
C4579 C4580 1.373 . S
C4579 C4581 1.389 . S
C4580 H4553 0.950 . S
C4580 C4566 1.377 . S
C4580 C4579 1.373 . S
C4581 C4565 1.377 . S
C4581 C4579 1.389 . S
C4581 C4582 1.524 . S
C4582 C4581 1.524 . S
C4582 C4583 1.397 . S
C4582 C4587 1.363 . S
C4583 H4554 0.950 . S
C4583 C4582 1.397 . S
C4583 C4584 1.334 . S
C4584 H4555 0.950 . S
C4584 C4583 1.334 . S
C4584 C4585 1.287 . S
C4585 C4584 1.287 . S
C4585 C4586 1.524 . S
C4585 H4588 0.999 . S
C4586 H4556 0.950 . S
C4586 C4585 1.524 . S
C4586 C4587 1.415 . S
C4587 H4557 0.950 . S
C4587 C4582 1.363 . S
C4587 C4586 1.415 . S
H4588 C4585 0.999 . S
H4589 C4570 0.913 . S
H4590 C4608 0.951 . S
H4591 C4610 0.951 . S
H4592 C4612 0.950 . S
H4593 C4613 0.950 . S
H4594 C4615 0.950 . S
H4595 C4618 0.950 . S
H4596 C4619 0.950 . S
H4597 C4621 0.950 . S
H4598 C4622 0.950 . S
H4599 C4623 0.951 . S
H4600 C4625 0.951 . S
H4601 C4627 0.950 . S
H4602 C4628 0.950 . S
H4603 C4630 0.950 . S
H4604 C4633 0.950 . S
H4605 C4634 0.950 . S
H4606 C4636 0.950 . S
H4607 C4637 0.950 . S
C4608 H4590 0.951 . S
C4608 C4609 1.366 . S
C4608 C4610 1.388 . S
C4609 C4608 1.366 . S
C4609 C4613 1.385 . S
C4610 H4591 0.951 . S
C4610 C4608 1.388 . S
C4610 C4611 1.366 . S
C4611 C4610 1.366 . S
C4611 C4612 1.414 . S
C4611 C4614 1.499 . S
C4612 H4592 0.950 . S
C4612 C4611 1.414 . S
C4612 C4613 1.374 . S
C4613 H4593 0.950 . S
C4613 C4609 1.385 . S
C4613 C4612 1.374 . S
C4614 C4611 1.499 . S
C4614 C4615 1.373 . S
C4614 C4616 1.389 . S
C4615 H4594 0.950 . S
C4615 C4614 1.373 . S
C4615 C4631 1.377 . S
C4616 C4614 1.389 . S
C4616 C4617 1.524 . S
C4616 C4630 1.377 . S
C4617 C4616 1.524 . S
C4617 C4618 1.397 . S
C4617 C4622 1.363 . S
C4618 H4595 0.950 . S
C4618 C4617 1.397 . S
C4618 C4619 1.334 . S
C4619 H4596 0.950 . S
C4619 C4618 1.334 . S
C4619 C4620 1.287 . S
C4620 C4619 1.287 . S
C4620 C4621 1.524 . S
C4620 H4639 0.913 . S
C4621 H4597 0.950 . S
C4621 C4620 1.524 . S
C4621 C4622 1.415 . S
C4622 H4598 0.950 . S
C4622 C4617 1.363 . S
C4622 C4621 1.415 . S
C4623 H4599 0.951 . S
C4623 C4624 1.366 . S
C4623 C4625 1.388 . S
C4624 C4623 1.366 . S
C4624 C4628 1.385 . S
C4625 H4600 0.951 . S
C4625 C4623 1.388 . S
C4625 C4626 1.366 . S
C4626 C4625 1.366 . S
C4626 C4627 1.414 . S
C4626 C4629 1.499 . S
C4627 H4601 0.950 . S
C4627 C4626 1.414 . S
C4627 C4628 1.374 . S
C4628 H4602 0.950 . S
C4628 C4624 1.385 . S
C4628 C4627 1.374 . S
C4629 C4626 1.499 . S
C4629 C4630 1.373 . S
C4629 C4631 1.389 . S
C4630 H4603 0.950 . S
C4630 C4616 1.377 . S
C4630 C4629 1.373 . S
C4631 C4615 1.377 . S
C4631 C4629 1.389 . S
C4631 C4632 1.524 . S
C4632 C4631 1.524 . S
C4632 C4633 1.397 . S
C4632 C4637 1.363 . S
C4633 H4604 0.950 . S
C4633 C4632 1.397 . S
C4633 C4634 1.334 . S
C4634 H4605 0.950 . S
C4634 C4633 1.334 . S
C4634 C4635 1.287 . S
C4635 C4634 1.287 . S
C4635 C4636 1.524 . S
C4635 H4638 0.999 . S
C4636 H4606 0.950 . S
C4636 C4635 1.524 . S
C4636 C4637 1.415 . S
C4637 H4607 0.950 . S
C4637 C4632 1.363 . S
C4637 C4636 1.415 . S
H4638 C4635 0.999 . S
H4639 C4620 0.913 . S
H4640 C4658 0.951 . S
H4641 C4660 0.951 . S
H4642 C4662 0.950 . S
H4643 C4663 0.950 . S
H4644 C4665 0.950 . S
H4645 C4668 0.950 . S
H4646 C4669 0.950 . S
H4647 C4671 0.950 . S
H4648 C4672 0.950 . S
H4649 C4673 0.951 1_556 S
H4650 C4675 0.951 . S
H4651 C4677 0.950 . S
H4652 C4678 0.950 . S
H4653 C4680 0.950 . S
H4654 C4683 0.950 . S
H4655 C4684 0.950 . S
H4656 C4686 0.950 . S
H4657 C4687 0.950 . S
C4658 H4640 0.951 . S
C4658 C4659 1.366 . S
C4658 C4660 1.388 . S
C4659 C4658 1.366 . S
C4659 C4663 1.385 . S
C4660 H4641 0.951 . S
C4660 C4658 1.388 . S
C4660 C4661 1.366 . S
C4661 C4660 1.366 . S
C4661 C4662 1.414 . S
C4661 C4664 1.499 . S
C4662 H4642 0.950 . S
C4662 C4661 1.414 . S
C4662 C4663 1.374 . S
C4663 H4643 0.950 . S
C4663 C4659 1.385 . S
C4663 C4662 1.374 . S
C4664 C4661 1.499 . S
C4664 C4665 1.373 . S
C4664 C4666 1.389 . S
C4665 H4644 0.950 . S
C4665 C4664 1.373 . S
C4665 C4681 1.377 . S
C4666 C4664 1.389 . S
C4666 C4667 1.524 . S
C4666 C4680 1.377 . S
C4667 C4666 1.524 . S
C4667 C4668 1.397 . S
C4667 C4672 1.363 . S
C4668 H4645 0.950 . S
C4668 C4667 1.397 . S
C4668 C4669 1.334 . S
C4669 H4646 0.950 . S
C4669 C4668 1.334 . S
C4669 C4670 1.287 . S
C4670 C4669 1.287 . S
C4670 C4671 1.524 . S
C4670 H4689 0.913 . S
C4671 H4647 0.950 . S
C4671 C4670 1.524 . S
C4671 C4672 1.415 . S
C4672 H4648 0.950 . S
C4672 C4667 1.363 . S
C4672 C4671 1.415 . S
C4673 H4649 0.951 1_554 S
C4673 C4674 1.366 . S
C4673 C4675 1.388 . S
C4674 C4673 1.366 . S
C4674 C4678 1.385 . S
C4675 H4650 0.951 . S
C4675 C4673 1.388 . S
C4675 C4676 1.366 . S
C4676 C4675 1.366 . S
C4676 C4677 1.414 . S
C4676 C4679 1.499 . S
C4677 H4651 0.950 . S
C4677 C4676 1.414 . S
C4677 C4678 1.374 . S
C4678 H4652 0.950 . S
C4678 C4674 1.385 . S
C4678 C4677 1.374 . S
C4679 C4676 1.499 . S
C4679 C4680 1.373 . S
C4679 C4681 1.389 . S
C4680 H4653 0.950 . S
C4680 C4666 1.377 . S
C4680 C4679 1.373 . S
C4681 C4665 1.377 . S
C4681 C4679 1.389 . S
C4681 C4682 1.524 . S
C4682 C4681 1.524 . S
C4682 C4683 1.397 . S
C4682 C4687 1.363 1_554 S
C4683 H4654 0.950 . S
C4683 C4682 1.397 . S
C4683 C4684 1.334 1_554 S
C4684 H4655 0.950 . S
C4684 C4683 1.334 1_556 S
C4684 C4685 1.287 . S
C4685 C4684 1.287 . S
C4685 C4686 1.524 . S
C4685 H4688 0.999 . S
C4686 H4656 0.950 . S
C4686 C4685 1.524 . S
C4686 C4687 1.415 . S
C4687 H4657 0.950 . S
C4687 C4682 1.363 1_556 S
C4687 C4686 1.415 . S
H4688 C4685 0.999 . S
H4689 C4670 0.913 . S
H4690 C4708 0.951 . S
H4691 C4710 0.951 . S
H4692 C4712 0.950 . S
H4693 C4713 0.950 1_556 S
H4694 C4715 0.950 . S
H4695 C4718 0.950 . S
H4696 C4719 0.950 . S
H4697 C4721 0.950 . S
H4698 C4722 0.950 . S
H4699 C4723 0.951 . S
H4700 C4725 0.951 . S
H4701 C4727 0.950 . S
H4702 C4728 0.950 . S
H4703 C4730 0.950 . S
H4704 C4733 0.950 . S
H4705 C4734 0.950 . S
H4706 C4736 0.950 . S
H4707 C4737 0.950 . S
C4708 H4690 0.951 . S
C4708 C4709 1.366 . S
C4708 C4710 1.388 . S
C4709 C4708 1.366 . S
C4709 C4713 1.385 . S
C4710 H4691 0.951 . S
C4710 C4708 1.388 . S
C4710 C4711 1.366 . S
C4711 C4710 1.366 . S
C4711 C4712 1.414 . S
C4711 C4714 1.499 . S
C4712 H4692 0.950 . S
C4712 C4711 1.414 . S
C4712 C4713 1.374 . S
C4713 H4693 0.950 1_554 S
C4713 C4709 1.385 . S
C4713 C4712 1.374 . S
C4714 C4711 1.499 . S
C4714 C4715 1.373 . S
C4714 C4716 1.389 . S
C4715 H4694 0.950 . S
C4715 C4714 1.373 . S
C4715 C4731 1.377 . S
C4716 C4714 1.389 . S
C4716 C4717 1.524 . S
C4716 C4730 1.377 . S
C4717 C4716 1.524 . S
C4717 C4718 1.397 . S
C4717 C4722 1.363 . S
C4718 H4695 0.950 . S
C4718 C4717 1.397 . S
C4718 C4719 1.334 . S
C4719 H4696 0.950 . S
C4719 C4718 1.334 . S
C4719 C4720 1.287 . S
C4720 C4719 1.287 . S
C4720 C4721 1.524 . S
C4720 H4739 0.913 . S
C4721 H4697 0.950 . S
C4721 C4720 1.524 . S
C4721 C4722 1.415 . S
C4722 H4698 0.950 . S
C4722 C4717 1.363 . S
C4722 C4721 1.415 . S
C4723 H4699 0.951 . S
C4723 C4724 1.366 . S
C4723 C4725 1.388 . S
C4724 C4723 1.366 . S
C4724 C4728 1.385 . S
C4725 H4700 0.951 . S
C4725 C4723 1.388 . S
C4725 C4726 1.366 . S
C4726 C4725 1.366 . S
C4726 C4727 1.414 . S
C4726 C4729 1.499 . S
C4727 H4701 0.950 . S
C4727 C4726 1.414 . S
C4727 C4728 1.374 . S
C4728 H4702 0.950 . S
C4728 C4724 1.385 . S
C4728 C4727 1.374 . S
C4729 C4726 1.499 . S
C4729 C4730 1.373 . S
C4729 C4731 1.389 . S
C4730 H4703 0.950 . S
C4730 C4716 1.377 . S
C4730 C4729 1.373 . S
C4731 C4715 1.377 . S
C4731 C4729 1.389 . S
C4731 C4732 1.524 . S
C4732 C4731 1.524 . S
C4732 C4733 1.397 . S
C4732 C4737 1.363 1_554 S
C4733 H4704 0.950 . S
C4733 C4732 1.397 . S
C4733 C4734 1.334 . S
C4734 H4705 0.950 . S
C4734 C4733 1.334 . S
C4734 C4735 1.287 1_554 S
C4735 C4734 1.287 1_556 S
C4735 C4736 1.524 . S
C4735 H4738 0.999 . S
C4736 H4706 0.950 . S
C4736 C4735 1.524 . S
C4736 C4737 1.415 . S
C4737 H4707 0.950 . S
C4737 C4732 1.363 1_556 S
C4737 C4736 1.415 . S
H4738 C4735 0.999 . S
H4739 C4720 0.913 . S
H4740 C4758 0.951 1_554 S
H4741 C4760 0.951 . S
H4742 C4762 0.950 . S
H4743 C4763 0.950 . S
H4744 C4765 0.950 . S
H4745 C4768 0.950 . S
H4746 C4769 0.950 . S
H4747 C4771 0.950 . S
H4748 C4772 0.950 . S
H4749 C4773 0.951 . S
H4750 C4775 0.951 . S
H4751 C4777 0.950 . S
H4752 C4778 0.950 . S
H4753 C4780 0.950 . S
H4754 C4783 0.950 . S
H4755 C4784 0.950 . S
H4756 C4786 0.950 . S
H4757 C4787 0.950 . S
C4758 H4740 0.951 1_556 S
C4758 C4759 1.366 . S
C4758 C4760 1.388 . S
C4759 C4758 1.366 . S
C4759 C4763 1.385 . S
C4760 H4741 0.951 . S
C4760 C4758 1.388 . S
C4760 C4761 1.366 . S
C4761 C4760 1.366 . S
C4761 C4762 1.414 . S
C4761 C4764 1.499 . S
C4762 H4742 0.950 . S
C4762 C4761 1.414 . S
C4762 C4763 1.374 . S
C4763 H4743 0.950 . S
C4763 C4759 1.385 . S
C4763 C4762 1.374 . S
C4764 C4761 1.499 . S
C4764 C4765 1.373 . S
C4764 C4766 1.389 . S
C4765 H4744 0.950 . S
C4765 C4764 1.373 . S
C4765 C4781 1.377 . S
C4766 C4764 1.389 . S
C4766 C4767 1.524 . S
C4766 C4780 1.377 . S
C4767 C4766 1.524 . S
C4767 C4768 1.397 . S
C4767 C4772 1.363 1_556 S
C4768 H4745 0.950 . S
C4768 C4767 1.397 . S
C4768 C4769 1.334 1_556 S
C4769 H4746 0.950 . S
C4769 C4768 1.334 1_554 S
C4769 C4770 1.287 . S
C4770 C4769 1.287 . S
C4770 C4771 1.524 . S
C4770 H4789 0.913 . S
C4771 H4747 0.950 . S
C4771 C4770 1.524 . S
C4771 C4772 1.415 . S
C4772 H4748 0.950 . S
C4772 C4767 1.363 1_554 S
C4772 C4771 1.415 . S
C4773 H4749 0.951 . S
C4773 C4774 1.366 . S
C4773 C4775 1.388 . S
C4774 C4773 1.366 . S
C4774 C4778 1.385 . S
C4775 H4750 0.951 . S
C4775 C4773 1.388 . S
C4775 C4776 1.366 . S
C4776 C4775 1.366 . S
C4776 C4777 1.414 . S
C4776 C4779 1.499 . S
C4777 H4751 0.950 . S
C4777 C4776 1.414 . S
C4777 C4778 1.374 . S
C4778 H4752 0.950 . S
C4778 C4774 1.385 . S
C4778 C4777 1.374 . S
C4779 C4776 1.499 . S
C4779 C4780 1.373 . S
C4779 C4781 1.389 . S
C4780 H4753 0.950 . S
C4780 C4766 1.377 . S
C4780 C4779 1.373 . S
C4781 C4765 1.377 . S
C4781 C4779 1.389 . S
C4781 C4782 1.524 . S
C4782 C4781 1.524 . S
C4782 C4783 1.397 . S
C4782 C4787 1.363 . S
C4783 H4754 0.950 . S
C4783 C4782 1.397 . S
C4783 C4784 1.334 . S
C4784 H4755 0.950 . S
C4784 C4783 1.334 . S
C4784 C4785 1.287 . S
C4785 C4784 1.287 . S
C4785 C4786 1.524 . S
C4785 H4788 0.999 . S
C4786 H4756 0.950 . S
C4786 C4785 1.524 . S
C4786 C4787 1.415 . S
C4787 H4757 0.950 . S
C4787 C4782 1.363 . S
C4787 C4786 1.415 . S
H4788 C4785 0.999 . S
H4789 C4770 0.913 . S
H4790 C4808 0.951 . S
H4791 C4810 0.951 . S
H4792 C4812 0.950 . S
H4793 C4813 0.950 . S
H4794 C4815 0.950 . S
H4795 C4818 0.950 . S
H4796 C4819 0.950 . S
H4797 C4821 0.950 . S
H4798 C4822 0.950 . S
H4799 C4823 0.951 . S
H4800 C4825 0.951 . S
H4801 C4827 0.950 . S
H4802 C4828 0.950 1_554 S
H4803 C4830 0.950 . S
H4804 C4833 0.950 . S
H4805 C4834 0.950 . S
H4806 C4836 0.950 . S
H4807 C4837 0.950 . S
C4808 H4790 0.951 . S
C4808 C4809 1.366 . S
C4808 C4810 1.388 . S
C4809 C4808 1.366 . S
C4809 C4813 1.385 . S
C4810 H4791 0.951 . S
C4810 C4808 1.388 . S
C4810 C4811 1.366 . S
C4811 C4810 1.366 . S
C4811 C4812 1.414 . S
C4811 C4814 1.499 . S
C4812 H4792 0.950 . S
C4812 C4811 1.414 . S
C4812 C4813 1.374 . S
C4813 H4793 0.950 . S
C4813 C4809 1.385 . S
C4813 C4812 1.374 . S
C4814 C4811 1.499 . S
C4814 C4815 1.373 . S
C4814 C4816 1.389 . S
C4815 H4794 0.950 . S
C4815 C4814 1.373 . S
C4815 C4831 1.377 . S
C4816 C4814 1.389 . S
C4816 C4817 1.524 . S
C4816 C4830 1.377 . S
C4817 C4816 1.524 . S
C4817 C4818 1.397 . S
C4817 C4822 1.363 1_556 S
C4818 H4795 0.950 . S
C4818 C4817 1.397 . S
C4818 C4819 1.334 . S
C4819 H4796 0.950 . S
C4819 C4818 1.334 . S
C4819 C4820 1.287 . S
C4820 C4819 1.287 . S
C4820 C4821 1.524 1_556 S
C4820 H4839 0.913 1_556 S
C4821 H4797 0.950 . S
C4821 C4820 1.524 1_554 S
C4821 C4822 1.415 . S
C4822 H4798 0.950 . S
C4822 C4817 1.363 1_554 S
C4822 C4821 1.415 . S
C4823 H4799 0.951 . S
C4823 C4824 1.366 . S
C4823 C4825 1.388 . S
C4824 C4823 1.366 . S
C4824 C4828 1.385 . S
C4825 H4800 0.951 . S
C4825 C4823 1.388 . S
C4825 C4826 1.366 . S
C4826 C4825 1.366 . S
C4826 C4827 1.414 . S
C4826 C4829 1.499 . S
C4827 H4801 0.950 . S
C4827 C4826 1.414 . S
C4827 C4828 1.374 . S
C4828 H4802 0.950 1_556 S
C4828 C4824 1.385 . S
C4828 C4827 1.374 . S
C4829 C4826 1.499 . S
C4829 C4830 1.373 . S
C4829 C4831 1.389 . S
C4830 H4803 0.950 . S
C4830 C4816 1.377 . S
C4830 C4829 1.373 . S
C4831 C4815 1.377 . S
C4831 C4829 1.389 . S
C4831 C4832 1.524 . S
C4832 C4831 1.524 . S
C4832 C4833 1.397 . S
C4832 C4837 1.363 . S
C4833 H4804 0.950 . S
C4833 C4832 1.397 . S
C4833 C4834 1.334 . S
C4834 H4805 0.950 . S
C4834 C4833 1.334 . S
C4834 C4835 1.287 . S
C4835 C4834 1.287 . S
C4835 C4836 1.524 . S
C4835 H4838 0.999 . S
C4836 H4806 0.950 . S
C4836 C4835 1.524 . S
C4836 C4837 1.415 . S
C4837 H4807 0.950 . S
C4837 C4832 1.363 . S
C4837 C4836 1.415 . S
H4838 C4835 0.999 . S
H4839 C4820 0.913 1_554 S
H4840 C4858 0.951 . S
H4841 C4860 0.951 . S
H4842 C4862 0.950 . S
H4843 C4863 0.950 . S
H4844 C4865 0.950 . S
H4845 C4868 0.950 . S
H4846 C4869 0.950 . S
H4847 C4871 0.950 . S
H4848 C4872 0.950 . S
H4849 C4873 0.951 . S
H4850 C4875 0.951 . S
H4851 C4877 0.950 . S
H4852 C4878 0.950 . S
H4853 C4880 0.950 . S
H4854 C4883 0.950 . S
H4855 C4884 0.950 . S
H4856 C4886 0.950 . S
H4857 C4887 0.950 . S
C4858 H4840 0.951 . S
C4858 C4859 1.366 . S
C4858 C4860 1.388 . S
C4859 C4858 1.366 . S
C4859 C4863 1.385 . S
C4860 H4841 0.951 . S
C4860 C4858 1.388 . S
C4860 C4861 1.366 . S
C4861 C4860 1.366 . S
C4861 C4862 1.414 . S
C4861 C4864 1.499 . S
C4862 H4842 0.950 . S
C4862 C4861 1.414 . S
C4862 C4863 1.374 . S
C4863 H4843 0.950 . S
C4863 C4859 1.385 . S
C4863 C4862 1.374 . S
C4864 C4861 1.499 . S
C4864 C4865 1.373 . S
C4864 C4866 1.389 . S
C4865 H4844 0.950 . S
C4865 C4864 1.373 . S
C4865 C4881 1.377 . S
C4866 C4864 1.389 . S
C4866 C4867 1.524 . S
C4866 C4880 1.377 . S
C4867 C4866 1.524 . S
C4867 C4868 1.397 . S
C4867 C4872 1.363 . S
C4868 H4845 0.950 . S
C4868 C4867 1.397 . S
C4868 C4869 1.334 . S
C4869 H4846 0.950 . S
C4869 C4868 1.334 . S
C4869 C4870 1.287 . S
C4870 C4869 1.287 . S
C4870 C4871 1.524 . S
C4870 H4889 0.913 . S
C4871 H4847 0.950 . S
C4871 C4870 1.524 . S
C4871 C4872 1.415 . S
C4872 H4848 0.950 . S
C4872 C4867 1.363 . S
C4872 C4871 1.415 . S
C4873 H4849 0.951 . S
C4873 C4874 1.366 . S
C4873 C4875 1.388 . S
C4874 C4873 1.366 . S
C4874 C4878 1.385 . S
C4875 H4850 0.951 . S
C4875 C4873 1.388 . S
C4875 C4876 1.366 . S
C4876 C4875 1.366 . S
C4876 C4877 1.414 . S
C4876 C4879 1.499 . S
C4877 H4851 0.950 . S
C4877 C4876 1.414 . S
C4877 C4878 1.374 . S
C4878 H4852 0.950 . S
C4878 C4874 1.385 . S
C4878 C4877 1.374 . S
C4879 C4876 1.499 . S
C4879 C4880 1.373 . S
C4879 C4881 1.389 . S
C4880 H4853 0.950 . S
C4880 C4866 1.377 . S
C4880 C4879 1.373 . S
C4881 C4865 1.377 . S
C4881 C4879 1.389 . S
C4881 C4882 1.524 . S
C4882 C4881 1.524 . S
C4882 C4883 1.397 . S
C4882 C4887 1.363 . S
C4883 H4854 0.950 . S
C4883 C4882 1.397 . S
C4883 C4884 1.334 . S
C4884 H4855 0.950 . S
C4884 C4883 1.334 . S
C4884 C4885 1.287 . S
C4885 C4884 1.287 . S
C4885 C4886 1.524 . S
C4885 H4888 0.999 . S
C4886 H4856 0.950 . S
C4886 C4885 1.524 . S
C4886 C4887 1.415 . S
C4887 H4857 0.950 . S
C4887 C4882 1.363 . S
C4887 C4886 1.415 . S
H4888 C4885 0.999 . S
H4889 C4870 0.913 . S
H4890 C4908 0.951 . S
H4891 C4910 0.951 . S
H4892 C4912 0.950 . S
H4893 C4913 0.950 . S
H4894 C4915 0.950 . S
H4895 C4918 0.950 . S
H4896 C4919 0.950 . S
H4897 C4921 0.950 . S
H4898 C4922 0.950 . S
H4899 C4923 0.951 . S
H4900 C4925 0.951 . S
H4901 C4927 0.950 . S
H4902 C4928 0.950 . S
H4903 C4930 0.950 . S
H4904 C4933 0.950 . S
H4905 C4934 0.950 . S
H4906 C4936 0.950 . S
H4907 C4937 0.950 . S
C4908 H4890 0.951 . S
C4908 C4909 1.366 . S
C4908 C4910 1.388 . S
C4909 C4908 1.366 . S
C4909 C4913 1.385 . S
C4910 H4891 0.951 . S
C4910 C4908 1.388 . S
C4910 C4911 1.366 . S
C4911 C4910 1.366 . S
C4911 C4912 1.414 . S
C4911 C4914 1.499 . S
C4912 H4892 0.950 . S
C4912 C4911 1.414 . S
C4912 C4913 1.374 . S
C4913 H4893 0.950 . S
C4913 C4909 1.385 . S
C4913 C4912 1.374 . S
C4914 C4911 1.499 . S
C4914 C4915 1.373 . S
C4914 C4916 1.389 . S
C4915 H4894 0.950 . S
C4915 C4914 1.373 . S
C4915 C4931 1.377 . S
C4916 C4914 1.389 . S
C4916 C4917 1.524 . S
C4916 C4930 1.377 . S
C4917 C4916 1.524 . S
C4917 C4918 1.397 . S
C4917 C4922 1.363 . S
C4918 H4895 0.950 . S
C4918 C4917 1.397 . S
C4918 C4919 1.334 . S
C4919 H4896 0.950 . S
C4919 C4918 1.334 . S
C4919 C4920 1.287 . S
C4920 C4919 1.287 . S
C4920 C4921 1.524 . S
C4920 H4939 0.913 . S
C4921 H4897 0.950 . S
C4921 C4920 1.524 . S
C4921 C4922 1.415 . S
C4922 H4898 0.950 . S
C4922 C4917 1.363 . S
C4922 C4921 1.415 . S
C4923 H4899 0.951 . S
C4923 C4924 1.366 . S
C4923 C4925 1.388 . S
C4924 C4923 1.366 . S
C4924 C4928 1.385 . S
C4925 H4900 0.951 . S
C4925 C4923 1.388 . S
C4925 C4926 1.366 . S
C4926 C4925 1.366 . S
C4926 C4927 1.414 . S
C4926 C4929 1.499 . S
C4927 H4901 0.950 . S
C4927 C4926 1.414 . S
C4927 C4928 1.374 . S
C4928 H4902 0.950 . S
C4928 C4924 1.385 . S
C4928 C4927 1.374 . S
C4929 C4926 1.499 . S
C4929 C4930 1.373 . S
C4929 C4931 1.389 . S
C4930 H4903 0.950 . S
C4930 C4916 1.377 . S
C4930 C4929 1.373 . S
C4931 C4915 1.377 . S
C4931 C4929 1.389 . S
C4931 C4932 1.524 . S
C4932 C4931 1.524 . S
C4932 C4933 1.397 . S
C4932 C4937 1.363 . S
C4933 H4904 0.950 . S
C4933 C4932 1.397 . S
C4933 C4934 1.334 . S
C4934 H4905 0.950 . S
C4934 C4933 1.334 . S
C4934 C4935 1.287 . S
C4935 C4934 1.287 . S
C4935 C4936 1.524 . S
C4935 H4938 0.999 . S
C4936 H4906 0.950 . S
C4936 C4935 1.524 . S
C4936 C4937 1.415 . S
C4937 H4907 0.950 . S
C4937 C4932 1.363 . S
C4937 C4936 1.415 . S
H4938 C4935 0.999 . S
H4939 C4920 0.913 . S
H4940 C4958 0.951 . S
H4941 C4960 0.951 . S
H4942 C4962 0.950 . S
H4943 C4963 0.950 . S
H4944 C4965 0.950 . S
H4945 C4968 0.950 . S
H4946 C4969 0.950 . S
H4947 C4971 0.950 . S
H4948 C4972 0.950 . S
H4949 C4973 0.951 . S
H4950 C4975 0.951 . S
H4951 C4977 0.950 . S
H4952 C4978 0.950 . S
H4953 C4980 0.950 . S
H4954 C4983 0.950 . S
H4955 C4984 0.950 . S
H4956 C4986 0.950 . S
H4957 C4987 0.950 . S
C4958 H4940 0.951 . S
C4958 C4959 1.366 . S
C4958 C4960 1.388 . S
C4959 C4958 1.366 . S
C4959 C4963 1.385 . S
C4960 H4941 0.951 . S
C4960 C4958 1.388 . S
C4960 C4961 1.366 . S
C4961 C4960 1.366 . S
C4961 C4962 1.414 . S
C4961 C4964 1.499 . S
C4962 H4942 0.950 . S
C4962 C4961 1.414 . S
C4962 C4963 1.374 . S
C4963 H4943 0.950 . S
C4963 C4959 1.385 . S
C4963 C4962 1.374 . S
C4964 C4961 1.499 . S
C4964 C4965 1.373 . S
C4964 C4966 1.389 . S
C4965 H4944 0.950 . S
C4965 C4964 1.373 . S
C4965 C4981 1.377 . S
C4966 C4964 1.389 . S
C4966 C4967 1.524 . S
C4966 C4980 1.377 . S
C4967 C4966 1.524 . S
C4967 C4968 1.397 . S
C4967 C4972 1.363 . S
C4968 H4945 0.950 . S
C4968 C4967 1.397 . S
C4968 C4969 1.334 . S
C4969 H4946 0.950 . S
C4969 C4968 1.334 . S
C4969 C4970 1.287 . S
C4970 C4969 1.287 . S
C4970 C4971 1.524 . S
C4970 H4989 0.913 . S
C4971 H4947 0.950 . S
C4971 C4970 1.524 . S
C4971 C4972 1.415 . S
C4972 H4948 0.950 . S
C4972 C4967 1.363 . S
C4972 C4971 1.415 . S
C4973 H4949 0.951 . S
C4973 C4974 1.366 . S
C4973 C4975 1.388 . S
C4974 C4973 1.366 . S
C4974 C4978 1.385 . S
C4975 H4950 0.951 . S
C4975 C4973 1.388 . S
C4975 C4976 1.366 . S
C4976 C4975 1.366 . S
C4976 C4977 1.414 . S
C4976 C4979 1.499 . S
C4977 H4951 0.950 . S
C4977 C4976 1.414 . S
C4977 C4978 1.374 . S
C4978 H4952 0.950 . S
C4978 C4974 1.385 . S
C4978 C4977 1.374 . S
C4979 C4976 1.499 . S
C4979 C4980 1.373 . S
C4979 C4981 1.389 . S
C4980 H4953 0.950 . S
C4980 C4966 1.377 . S
C4980 C4979 1.373 . S
C4981 C4965 1.377 . S
C4981 C4979 1.389 . S
C4981 C4982 1.524 . S
C4982 C4981 1.524 . S
C4982 C4983 1.397 . S
C4982 C4987 1.363 . S
C4983 H4954 0.950 . S
C4983 C4982 1.397 . S
C4983 C4984 1.334 . S
C4984 H4955 0.950 . S
C4984 C4983 1.334 . S
C4984 C4985 1.287 . S
C4985 C4984 1.287 . S
C4985 C4986 1.524 . S
C4985 H4988 0.999 . S
C4986 H4956 0.950 . S
C4986 C4985 1.524 . S
C4986 C4987 1.415 . S
C4987 H4957 0.950 . S
C4987 C4982 1.363 . S
C4987 C4986 1.415 . S
H4988 C4985 0.999 . S
H4989 C4970 0.913 . S
H4990 C5008 0.951 . S
H4991 C5010 0.951 . S
H4992 C5012 0.950 . S
H4993 C5013 0.950 . S
H4994 C5015 0.950 . S
H4995 C5018 0.950 . S
H4996 C5019 0.950 . S
H4997 C5021 0.950 . S
H4998 C5022 0.950 . S
H4999 C5023 0.951 . S
H5000 C5025 0.951 . S
H5001 C5027 0.950 . S
H5002 C5028 0.950 . S
H5003 C5030 0.950 . S
H5004 C5033 0.950 . S
H5005 C5034 0.950 . S
H5006 C5036 0.950 . S
H5007 C5037 0.950 . S
C5008 H4990 0.951 . S
C5008 C5009 1.366 . S
C5008 C5010 1.388 . S
C5009 C5008 1.366 . S
C5009 C5013 1.385 . S
C5010 H4991 0.951 . S
C5010 C5008 1.388 . S
C5010 C5011 1.366 . S
C5011 C5010 1.366 . S
C5011 C5012 1.414 . S
C5011 C5014 1.499 . S
C5012 H4992 0.950 . S
C5012 C5011 1.414 . S
C5012 C5013 1.374 . S
C5013 H4993 0.950 . S
C5013 C5009 1.385 . S
C5013 C5012 1.374 . S
C5014 C5011 1.499 . S
C5014 C5015 1.373 . S
C5014 C5016 1.389 . S
C5015 H4994 0.950 . S
C5015 C5014 1.373 . S
C5015 C5031 1.377 . S
C5016 C5014 1.389 . S
C5016 C5017 1.524 . S
C5016 C5030 1.377 . S
C5017 C5016 1.524 . S
C5017 C5018 1.397 . S
C5017 C5022 1.363 . S
C5018 H4995 0.950 . S
C5018 C5017 1.397 . S
C5018 C5019 1.334 . S
C5019 H4996 0.950 . S
C5019 C5018 1.334 . S
C5019 C5020 1.287 . S
C5020 C5019 1.287 . S
C5020 C5021 1.524 . S
C5020 H5039 0.913 . S
C5021 H4997 0.950 . S
C5021 C5020 1.524 . S
C5021 C5022 1.415 . S
C5022 H4998 0.950 . S
C5022 C5017 1.363 . S
C5022 C5021 1.415 . S
C5023 H4999 0.951 . S
C5023 C5024 1.366 . S
C5023 C5025 1.388 . S
C5024 C5023 1.366 . S
C5024 C5028 1.385 . S
C5025 H5000 0.951 . S
C5025 C5023 1.388 . S
C5025 C5026 1.366 . S
C5026 C5025 1.366 . S
C5026 C5027 1.414 . S
C5026 C5029 1.499 . S
C5027 H5001 0.950 . S
C5027 C5026 1.414 . S
C5027 C5028 1.374 . S
C5028 H5002 0.950 . S
C5028 C5024 1.385 . S
C5028 C5027 1.374 . S
C5029 C5026 1.499 . S
C5029 C5030 1.373 . S
C5029 C5031 1.389 . S
C5030 H5003 0.950 . S
C5030 C5016 1.377 . S
C5030 C5029 1.373 . S
C5031 C5015 1.377 . S
C5031 C5029 1.389 . S
C5031 C5032 1.524 . S
C5032 C5031 1.524 . S
C5032 C5033 1.397 . S
C5032 C5037 1.363 . S
C5033 H5004 0.950 . S
C5033 C5032 1.397 . S
C5033 C5034 1.334 . S
C5034 H5005 0.950 . S
C5034 C5033 1.334 . S
C5034 C5035 1.287 . S
C5035 C5034 1.287 . S
C5035 C5036 1.524 . S
C5035 H5038 0.999 . S
C5036 H5006 0.950 . S
C5036 C5035 1.524 . S
C5036 C5037 1.415 . S
C5037 H5007 0.950 . S
C5037 C5032 1.363 . S
C5037 C5036 1.415 . S
H5038 C5035 0.999 . S
H5039 C5020 0.913 . S
H5040 C5058 0.951 . S
H5041 C5060 0.951 . S
H5042 C5062 0.950 . S
H5043 C5063 0.950 . S
H5044 C5065 0.950 . S
H5045 C5068 0.950 . S
H5046 C5069 0.950 . S
H5047 C5071 0.950 . S
H5048 C5072 0.950 . S
H5049 C5073 0.951 . S
H5050 C5075 0.951 . S
H5051 C5077 0.950 . S
H5052 C5078 0.950 . S
H5053 C5080 0.950 . S
H5054 C5083 0.950 . S
H5055 C5084 0.950 . S
H5056 C5086 0.950 . S
H5057 C5087 0.950 . S
C5058 H5040 0.951 . S
C5058 C5059 1.366 . S
C5058 C5060 1.388 . S
C5059 C5058 1.366 . S
C5059 C5063 1.385 . S
C5060 H5041 0.951 . S
C5060 C5058 1.388 . S
C5060 C5061 1.366 . S
C5061 C5060 1.366 . S
C5061 C5062 1.414 . S
C5061 C5064 1.499 . S
C5062 H5042 0.950 . S
C5062 C5061 1.414 . S
C5062 C5063 1.374 . S
C5063 H5043 0.950 . S
C5063 C5059 1.385 . S
C5063 C5062 1.374 . S
C5064 C5061 1.499 . S
C5064 C5065 1.373 . S
C5064 C5066 1.389 . S
C5065 H5044 0.950 . S
C5065 C5064 1.373 . S
C5065 C5081 1.377 . S
C5066 C5064 1.389 . S
C5066 C5067 1.524 . S
C5066 C5080 1.377 . S
C5067 C5066 1.524 . S
C5067 C5068 1.397 . S
C5067 C5072 1.363 . S
C5068 H5045 0.950 . S
C5068 C5067 1.397 . S
C5068 C5069 1.334 . S
C5069 H5046 0.950 . S
C5069 C5068 1.334 . S
C5069 C5070 1.287 . S
C5070 C5069 1.287 . S
C5070 C5071 1.524 . S
C5070 H5089 0.913 . S
C5071 H5047 0.950 . S
C5071 C5070 1.524 . S
C5071 C5072 1.415 . S
C5072 H5048 0.950 . S
C5072 C5067 1.363 . S
C5072 C5071 1.415 . S
C5073 H5049 0.951 . S
C5073 C5074 1.366 . S
C5073 C5075 1.388 . S
C5074 C5073 1.366 . S
C5074 C5078 1.385 . S
C5075 H5050 0.951 . S
C5075 C5073 1.388 . S
C5075 C5076 1.366 . S
C5076 C5075 1.366 . S
C5076 C5077 1.414 . S
C5076 C5079 1.499 . S
C5077 H5051 0.950 . S
C5077 C5076 1.414 . S
C5077 C5078 1.374 . S
C5078 H5052 0.950 . S
C5078 C5074 1.385 . S
C5078 C5077 1.374 . S
C5079 C5076 1.499 . S
C5079 C5080 1.373 . S
C5079 C5081 1.389 . S
C5080 H5053 0.950 . S
C5080 C5066 1.377 . S
C5080 C5079 1.373 . S
C5081 C5065 1.377 . S
C5081 C5079 1.389 . S
C5081 C5082 1.524 . S
C5082 C5081 1.524 . S
C5082 C5083 1.397 . S
C5082 C5087 1.363 . S
C5083 H5054 0.950 . S
C5083 C5082 1.397 . S
C5083 C5084 1.334 . S
C5084 H5055 0.950 . S
C5084 C5083 1.334 . S
C5084 C5085 1.287 . S
C5085 C5084 1.287 . S
C5085 C5086 1.524 . S
C5085 H5088 0.999 . S
C5086 H5056 0.950 . S
C5086 C5085 1.524 . S
C5086 C5087 1.415 . S
C5087 H5057 0.950 . S
C5087 C5082 1.363 . S
C5087 C5086 1.415 . S
H5088 C5085 0.999 . S
H5089 C5070 0.913 . S
H5090 C5108 0.951 . S
H5091 C5110 0.951 . S
H5092 C5112 0.950 . S
H5093 C5113 0.950 . S
H5094 C5115 0.950 . S
H5095 C5118 0.950 . S
H5096 C5119 0.950 . S
H5097 C5121 0.950 . S
H5098 C5122 0.950 . S
H5099 C5123 0.951 . S
H5100 C5125 0.951 . S
H5101 C5127 0.950 . S
H5102 C5128 0.950 . S
H5103 C5130 0.950 . S
H5104 C5133 0.950 . S
H5105 C5134 0.950 . S
H5106 C5136 0.950 . S
H5107 C5137 0.950 . S
C5108 H5090 0.951 . S
C5108 C5109 1.366 . S
C5108 C5110 1.388 . S
C5109 C5108 1.366 . S
C5109 C5113 1.385 . S
C5110 H5091 0.951 . S
C5110 C5108 1.388 . S
C5110 C5111 1.366 . S
C5111 C5110 1.366 . S
C5111 C5112 1.414 . S
C5111 C5114 1.499 . S
C5112 H5092 0.950 . S
C5112 C5111 1.414 . S
C5112 C5113 1.374 . S
C5113 H5093 0.950 . S
C5113 C5109 1.385 . S
C5113 C5112 1.374 . S
C5114 C5111 1.499 . S
C5114 C5115 1.373 . S
C5114 C5116 1.389 . S
C5115 H5094 0.950 . S
C5115 C5114 1.373 . S
C5115 C5131 1.377 . S
C5116 C5114 1.389 . S
C5116 C5117 1.524 . S
C5116 C5130 1.377 . S
C5117 C5116 1.524 . S
C5117 C5118 1.397 . S
C5117 C5122 1.363 . S
C5118 H5095 0.950 . S
C5118 C5117 1.397 . S
C5118 C5119 1.334 . S
C5119 H5096 0.950 . S
C5119 C5118 1.334 . S
C5119 C5120 1.287 . S
C5120 C5119 1.287 . S
C5120 C5121 1.524 . S
C5120 H5139 0.913 . S
C5121 H5097 0.950 . S
C5121 C5120 1.524 . S
C5121 C5122 1.415 . S
C5122 H5098 0.950 . S
C5122 C5117 1.363 . S
C5122 C5121 1.415 . S
C5123 H5099 0.951 . S
C5123 C5124 1.366 . S
C5123 C5125 1.388 . S
C5124 C5123 1.366 . S
C5124 C5128 1.385 . S
C5125 H5100 0.951 . S
C5125 C5123 1.388 . S
C5125 C5126 1.366 . S
C5126 C5125 1.366 . S
C5126 C5127 1.414 . S
C5126 C5129 1.499 . S
C5127 H5101 0.950 . S
C5127 C5126 1.414 . S
C5127 C5128 1.374 . S
C5128 H5102 0.950 . S
C5128 C5124 1.385 . S
C5128 C5127 1.374 . S
C5129 C5126 1.499 . S
C5129 C5130 1.373 . S
C5129 C5131 1.389 . S
C5130 H5103 0.950 . S
C5130 C5116 1.377 . S
C5130 C5129 1.373 . S
C5131 C5115 1.377 . S
C5131 C5129 1.389 . S
C5131 C5132 1.524 . S
C5132 C5131 1.524 . S
C5132 C5133 1.397 . S
C5132 C5137 1.363 . S
C5133 H5104 0.950 . S
C5133 C5132 1.397 . S
C5133 C5134 1.334 . S
C5134 H5105 0.950 . S
C5134 C5133 1.334 . S
C5134 C5135 1.287 . S
C5135 C5134 1.287 . S
C5135 C5136 1.524 . S
C5135 H5138 0.999 . S
C5136 H5106 0.950 . S
C5136 C5135 1.524 . S
C5136 C5137 1.415 . S
C5137 H5107 0.950 . S
C5137 C5132 1.363 . S
C5137 C5136 1.415 . S
H5138 C5135 0.999 . S
H5139 C5120 0.913 . S
H5140 C5158 0.951 . S
H5141 C5160 0.951 . S
H5142 C5162 0.950 . S
H5143 C5163 0.950 . S
H5144 C5165 0.950 . S
H5145 C5168 0.950 . S
H5146 C5169 0.950 . S
H5147 C5171 0.950 . S
H5148 C5172 0.950 . S
H5149 C5173 0.951 . S
H5150 C5175 0.951 . S
H5151 C5177 0.950 . S
H5152 C5178 0.950 . S
H5153 C5180 0.950 . S
H5154 C5183 0.950 . S
H5155 C5184 0.950 . S
H5156 C5186 0.950 . S
H5157 C5187 0.950 . S
C5158 H5140 0.951 . S
C5158 C5159 1.366 . S
C5158 C5160 1.388 . S
C5159 C5158 1.366 . S
C5159 C5163 1.385 . S
C5160 H5141 0.951 . S
C5160 C5158 1.388 . S
C5160 C5161 1.366 . S
C5161 C5160 1.366 . S
C5161 C5162 1.414 . S
C5161 C5164 1.499 . S
C5162 H5142 0.950 . S
C5162 C5161 1.414 . S
C5162 C5163 1.374 . S
C5163 H5143 0.950 . S
C5163 C5159 1.385 . S
C5163 C5162 1.374 . S
C5164 C5161 1.499 . S
C5164 C5165 1.373 . S
C5164 C5166 1.389 . S
C5165 H5144 0.950 . S
C5165 C5164 1.373 . S
C5165 C5181 1.377 . S
C5166 C5164 1.389 . S
C5166 C5167 1.524 . S
C5166 C5180 1.377 . S
C5167 C5166 1.524 . S
C5167 C5168 1.397 . S
C5167 C5172 1.363 . S
C5168 H5145 0.950 . S
C5168 C5167 1.397 . S
C5168 C5169 1.334 . S
C5169 H5146 0.950 . S
C5169 C5168 1.334 . S
C5169 C5170 1.287 . S
C5170 C5169 1.287 . S
C5170 C5171 1.524 . S
C5170 H5189 0.913 . S
C5171 H5147 0.950 . S
C5171 C5170 1.524 . S
C5171 C5172 1.415 . S
C5172 H5148 0.950 . S
C5172 C5167 1.363 . S
C5172 C5171 1.415 . S
C5173 H5149 0.951 . S
C5173 C5174 1.366 . S
C5173 C5175 1.388 . S
C5174 C5173 1.366 . S
C5174 C5178 1.385 . S
C5175 H5150 0.951 . S
C5175 C5173 1.388 . S
C5175 C5176 1.366 . S
C5176 C5175 1.366 . S
C5176 C5177 1.414 . S
C5176 C5179 1.499 . S
C5177 H5151 0.950 . S
C5177 C5176 1.414 . S
C5177 C5178 1.374 . S
C5178 H5152 0.950 . S
C5178 C5174 1.385 . S
C5178 C5177 1.374 . S
C5179 C5176 1.499 . S
C5179 C5180 1.373 . S
C5179 C5181 1.389 . S
C5180 H5153 0.950 . S
C5180 C5166 1.377 . S
C5180 C5179 1.373 . S
C5181 C5165 1.377 . S
C5181 C5179 1.389 . S
C5181 C5182 1.524 . S
C5182 C5181 1.524 . S
C5182 C5183 1.397 . S
C5182 C5187 1.363 . S
C5183 H5154 0.950 . S
C5183 C5182 1.397 . S
C5183 C5184 1.334 . S
C5184 H5155 0.950 . S
C5184 C5183 1.334 . S
C5184 C5185 1.287 . S
C5185 C5184 1.287 . S
C5185 C5186 1.524 . S
C5185 H5188 0.999 . S
C5186 H5156 0.950 . S
C5186 C5185 1.524 . S
C5186 C5187 1.415 . S
C5187 H5157 0.950 . S
C5187 C5182 1.363 . S
C5187 C5186 1.415 . S
H5188 C5185 0.999 . S
H5189 C5170 0.913 . S
H5190 C5208 0.951 . S
H5191 C5210 0.951 . S
H5192 C5212 0.950 . S
H5193 C5213 0.950 . S
H5194 C5215 0.950 . S
H5195 C5218 0.950 . S
H5196 C5219 0.950 . S
H5197 C5221 0.950 . S
H5198 C5222 0.950 . S
H5199 C5223 0.951 . S
H5200 C5225 0.951 . S
H5201 C5227 0.950 . S
H5202 C5228 0.950 . S
H5203 C5230 0.950 . S
H5204 C5233 0.950 . S
H5205 C5234 0.950 . S
H5206 C5236 0.950 . S
H5207 C5237 0.950 . S
C5208 H5190 0.951 . S
C5208 C5209 1.366 . S
C5208 C5210 1.388 . S
C5209 C5208 1.366 . S
C5209 C5213 1.385 . S
C5210 H5191 0.951 . S
C5210 C5208 1.388 . S
C5210 C5211 1.366 . S
C5211 C5210 1.366 . S
C5211 C5212 1.414 . S
C5211 C5214 1.499 . S
C5212 H5192 0.950 . S
C5212 C5211 1.414 . S
C5212 C5213 1.374 . S
C5213 H5193 0.950 . S
C5213 C5209 1.385 . S
C5213 C5212 1.374 . S
C5214 C5211 1.499 . S
C5214 C5215 1.373 . S
C5214 C5216 1.389 . S
C5215 H5194 0.950 . S
C5215 C5214 1.373 . S
C5215 C5231 1.377 . S
C5216 C5214 1.389 . S
C5216 C5217 1.524 . S
C5216 C5230 1.377 . S
C5217 C5216 1.524 . S
C5217 C5218 1.397 . S
C5217 C5222 1.363 . S
C5218 H5195 0.950 . S
C5218 C5217 1.397 . S
C5218 C5219 1.334 . S
C5219 H5196 0.950 . S
C5219 C5218 1.334 . S
C5219 C5220 1.287 . S
C5220 C5219 1.287 . S
C5220 C5221 1.524 . S
C5220 H5239 0.913 . S
C5221 H5197 0.950 . S
C5221 C5220 1.524 . S
C5221 C5222 1.415 . S
C5222 H5198 0.950 . S
C5222 C5217 1.363 . S
C5222 C5221 1.415 . S
C5223 H5199 0.951 . S
C5223 C5224 1.366 . S
C5223 C5225 1.388 . S
C5224 C5223 1.366 . S
C5224 C5228 1.385 . S
C5225 H5200 0.951 . S
C5225 C5223 1.388 . S
C5225 C5226 1.366 . S
C5226 C5225 1.366 . S
C5226 C5227 1.414 . S
C5226 C5229 1.499 . S
C5227 H5201 0.950 . S
C5227 C5226 1.414 . S
C5227 C5228 1.374 . S
C5228 H5202 0.950 . S
C5228 C5224 1.385 . S
C5228 C5227 1.374 . S
C5229 C5226 1.499 . S
C5229 C5230 1.373 . S
C5229 C5231 1.389 . S
C5230 H5203 0.950 . S
C5230 C5216 1.377 . S
C5230 C5229 1.373 . S
C5231 C5215 1.377 . S
C5231 C5229 1.389 . S
C5231 C5232 1.524 . S
C5232 C5231 1.524 . S
C5232 C5233 1.397 . S
C5232 C5237 1.363 . S
C5233 H5204 0.950 . S
C5233 C5232 1.397 . S
C5233 C5234 1.334 . S
C5234 H5205 0.950 . S
C5234 C5233 1.334 . S
C5234 C5235 1.287 . S
C5235 C5234 1.287 . S
C5235 C5236 1.524 . S
C5235 H5238 0.999 . S
C5236 H5206 0.950 . S
C5236 C5235 1.524 . S
C5236 C5237 1.415 . S
C5237 H5207 0.950 . S
C5237 C5232 1.363 . S
C5237 C5236 1.415 . S
H5238 C5235 0.999 . S
H5239 C5220 0.913 . S
H5240 C5258 0.951 . S
H5241 C5260 0.951 . S
H5242 C5262 0.950 . S
H5243 C5263 0.950 . S
H5244 C5265 0.950 . S
H5245 C5268 0.950 . S
H5246 C5269 0.950 . S
H5247 C5271 0.950 . S
H5248 C5272 0.950 . S
H5249 C5273 0.951 . S
H5250 C5275 0.951 . S
H5251 C5277 0.950 . S
H5252 C5278 0.950 . S
H5253 C5280 0.950 . S
H5254 C5283 0.950 . S
H5255 C5284 0.950 . S
H5256 C5286 0.950 . S
H5257 C5287 0.950 . S
C5258 H5240 0.951 . S
C5258 C5259 1.366 . S
C5258 C5260 1.388 . S
C5259 C5258 1.366 . S
C5259 C5263 1.385 . S
C5260 H5241 0.951 . S
C5260 C5258 1.388 . S
C5260 C5261 1.366 . S
C5261 C5260 1.366 . S
C5261 C5262 1.414 . S
C5261 C5264 1.499 . S
C5262 H5242 0.950 . S
C5262 C5261 1.414 . S
C5262 C5263 1.374 . S
C5263 H5243 0.950 . S
C5263 C5259 1.385 . S
C5263 C5262 1.374 . S
C5264 C5261 1.499 . S
C5264 C5265 1.373 . S
C5264 C5266 1.389 . S
C5265 H5244 0.950 . S
C5265 C5264 1.373 . S
C5265 C5281 1.377 . S
C5266 C5264 1.389 . S
C5266 C5267 1.524 . S
C5266 C5280 1.377 . S
C5267 C5266 1.524 . S
C5267 C5268 1.397 . S
C5267 C5272 1.363 . S
C5268 H5245 0.950 . S
C5268 C5267 1.397 . S
C5268 C5269 1.334 1_554 S
C5269 H5246 0.950 . S
C5269 C5268 1.334 1_556 S
C5269 C5270 1.287 . S
C5270 C5269 1.287 . S
C5270 C5271 1.524 1_556 S
C5270 H5289 0.913 . S
C5271 H5247 0.950 . S
C5271 C5270 1.524 1_554 S
C5271 C5272 1.415 . S
C5272 H5248 0.950 . S
C5272 C5267 1.363 . S
C5272 C5271 1.415 . S
C5273 H5249 0.951 . S
C5273 C5274 1.366 . S
C5273 C5275 1.388 . S
C5274 C5273 1.366 . S
C5274 C5278 1.385 . S
C5275 H5250 0.951 . S
C5275 C5273 1.388 . S
C5275 C5276 1.366 . S
C5276 C5275 1.366 . S
C5276 C5277 1.414 . S
C5276 C5279 1.499 . S
C5277 H5251 0.950 . S
C5277 C5276 1.414 . S
C5277 C5278 1.374 . S
C5278 H5252 0.950 . S
C5278 C5274 1.385 . S
C5278 C5277 1.374 . S
C5279 C5276 1.499 . S
C5279 C5280 1.373 . S
C5279 C5281 1.389 . S
C5280 H5253 0.950 . S
C5280 C5266 1.377 . S
C5280 C5279 1.373 . S
C5281 C5265 1.377 . S
C5281 C5279 1.389 . S
C5281 C5282 1.524 . S
C5282 C5281 1.524 . S
C5282 C5283 1.397 . S
C5282 C5287 1.363 . S
C5283 H5254 0.950 . S
C5283 C5282 1.397 . S
C5283 C5284 1.334 . S
C5284 H5255 0.950 . S
C5284 C5283 1.334 . S
C5284 C5285 1.287 . S
C5285 C5284 1.287 . S
C5285 C5286 1.524 . S
C5285 H5288 0.999 . S
C5286 H5256 0.950 . S
C5286 C5285 1.524 . S
C5286 C5287 1.415 . S
C5287 H5257 0.950 . S
C5287 C5282 1.363 . S
C5287 C5286 1.415 . S
H5288 C5285 0.999 . S
H5289 C5270 0.913 . S
H5290 C5308 0.951 . S
H5291 C5310 0.951 . S
H5292 C5312 0.950 . S
H5293 C5313 0.950 . S
H5294 C5315 0.950 . S
H5295 C5318 0.950 . S
H5296 C5319 0.950 . S
H5297 C5321 0.950 . S
H5298 C5322 0.950 . S
H5299 C5323 0.951 . S
H5300 C5325 0.951 . S
H5301 C5327 0.950 . S
H5302 C5328 0.950 1_556 S
H5303 C5330 0.950 . S
H5304 C5333 0.950 . S
H5305 C5334 0.950 1_556 S
H5306 C5336 0.950 . S
H5307 C5337 0.950 . S
C5308 H5290 0.951 . S
C5308 C5309 1.366 . S
C5308 C5310 1.388 . S
C5309 C5308 1.366 . S
C5309 C5313 1.385 . S
C5310 H5291 0.951 . S
C5310 C5308 1.388 . S
C5310 C5311 1.366 . S
C5311 C5310 1.366 . S
C5311 C5312 1.414 . S
C5311 C5314 1.499 . S
C5312 H5292 0.950 . S
C5312 C5311 1.414 . S
C5312 C5313 1.374 . S
C5313 H5293 0.950 . S
C5313 C5309 1.385 . S
C5313 C5312 1.374 . S
C5314 C5311 1.499 . S
C5314 C5315 1.373 . S
C5314 C5316 1.389 . S
C5315 H5294 0.950 . S
C5315 C5314 1.373 . S
C5315 C5331 1.377 . S
C5316 C5314 1.389 . S
C5316 C5317 1.524 . S
C5316 C5330 1.377 . S
C5317 C5316 1.524 . S
C5317 C5318 1.397 . S
C5317 C5322 1.363 . S
C5318 H5295 0.950 . S
C5318 C5317 1.397 . S
C5318 C5319 1.334 . S
C5319 H5296 0.950 . S
C5319 C5318 1.334 . S
C5319 C5320 1.287 . S
C5320 C5319 1.287 . S
C5320 C5321 1.524 . S
C5320 H5339 0.913 . S
C5321 H5297 0.950 . S
C5321 C5320 1.524 . S
C5321 C5322 1.415 . S
C5322 H5298 0.950 . S
C5322 C5317 1.363 . S
C5322 C5321 1.415 . S
C5323 H5299 0.951 . S
C5323 C5324 1.366 . S
C5323 C5325 1.388 . S
C5324 C5323 1.366 . S
C5324 C5328 1.385 . S
C5325 H5300 0.951 . S
C5325 C5323 1.388 . S
C5325 C5326 1.366 . S
C5326 C5325 1.366 . S
C5326 C5327 1.414 . S
C5326 C5329 1.499 . S
C5327 H5301 0.950 . S
C5327 C5326 1.414 . S
C5327 C5328 1.374 . S
C5328 H5302 0.950 1_554 S
C5328 C5324 1.385 . S
C5328 C5327 1.374 . S
C5329 C5326 1.499 . S
C5329 C5330 1.373 . S
C5329 C5331 1.389 . S
C5330 H5303 0.950 . S
C5330 C5316 1.377 . S
C5330 C5329 1.373 . S
C5331 C5315 1.377 . S
C5331 C5329 1.389 . S
C5331 C5332 1.524 . S
C5332 C5331 1.524 . S
C5332 C5333 1.397 . S
C5332 C5337 1.363 . S
C5333 H5304 0.950 . S
C5333 C5332 1.397 . S
C5333 C5334 1.334 . S
C5334 H5305 0.950 1_554 S
C5334 C5333 1.334 . S
C5334 C5335 1.287 . S
C5335 C5334 1.287 . S
C5335 C5336 1.524 . S
C5335 H5338 0.999 . S
C5336 H5306 0.950 . S
C5336 C5335 1.524 . S
C5336 C5337 1.415 . S
C5337 H5307 0.950 . S
C5337 C5332 1.363 . S
C5337 C5336 1.415 . S
H5338 C5335 0.999 . S
H5339 C5320 0.913 . S
H5340 C5358 0.951 . S
H5341 C5360 0.951 . S
H5342 C5362 0.950 . S
H5343 C5363 0.950 . S
H5344 C5365 0.950 . S
H5345 C5368 0.950 . S
H5346 C5369 0.950 . S
H5347 C5371 0.950 . S
H5348 C5372 0.950 . S
H5349 C5373 0.951 . S
H5350 C5375 0.951 . S
H5351 C5377 0.950 . S
H5352 C5378 0.950 . S
H5353 C5380 0.950 . S
H5354 C5383 0.950 . S
H5355 C5384 0.950 . S
H5356 C5386 0.950 . S
H5357 C5387 0.950 . S
C5358 H5340 0.951 . S
C5358 C5359 1.366 . S
C5358 C5360 1.388 . S
C5359 C5358 1.366 . S
C5359 C5363 1.385 . S
C5360 H5341 0.951 . S
C5360 C5358 1.388 . S
C5360 C5361 1.366 . S
C5361 C5360 1.366 . S
C5361 C5362 1.414 . S
C5361 C5364 1.499 . S
C5362 H5342 0.950 . S
C5362 C5361 1.414 . S
C5362 C5363 1.374 . S
C5363 H5343 0.950 . S
C5363 C5359 1.385 . S
C5363 C5362 1.374 . S
C5364 C5361 1.499 . S
C5364 C5365 1.373 . S
C5364 C5366 1.389 . S
C5365 H5344 0.950 . S
C5365 C5364 1.373 . S
C5365 C5381 1.377 . S
C5366 C5364 1.389 . S
C5366 C5367 1.524 . S
C5366 C5380 1.377 . S
C5367 C5366 1.524 . S
C5367 C5368 1.397 . S
C5367 C5372 1.363 . S
C5368 H5345 0.950 . S
C5368 C5367 1.397 . S
C5368 C5369 1.334 . S
C5369 H5346 0.950 . S
C5369 C5368 1.334 . S
C5369 C5370 1.287 . S
C5370 C5369 1.287 . S
C5370 C5371 1.524 . S
C5370 H5389 0.913 . S
C5371 H5347 0.950 . S
C5371 C5370 1.524 . S
C5371 C5372 1.415 . S
C5372 H5348 0.950 . S
C5372 C5367 1.363 . S
C5372 C5371 1.415 . S
C5373 H5349 0.951 . S
C5373 C5374 1.366 . S
C5373 C5375 1.388 . S
C5374 C5373 1.366 . S
C5374 C5378 1.385 . S
C5375 H5350 0.951 . S
C5375 C5373 1.388 . S
C5375 C5376 1.366 . S
C5376 C5375 1.366 . S
C5376 C5377 1.414 . S
C5376 C5379 1.499 . S
C5377 H5351 0.950 . S
C5377 C5376 1.414 . S
C5377 C5378 1.374 . S
C5378 H5352 0.950 . S
C5378 C5374 1.385 . S
C5378 C5377 1.374 . S
C5379 C5376 1.499 . S
C5379 C5380 1.373 . S
C5379 C5381 1.389 . S
C5380 H5353 0.950 . S
C5380 C5366 1.377 . S
C5380 C5379 1.373 . S
C5381 C5365 1.377 . S
C5381 C5379 1.389 . S
C5381 C5382 1.524 . S
C5382 C5381 1.524 . S
C5382 C5383 1.397 1_556 S
C5382 C5387 1.363 . S
C5383 H5354 0.950 . S
C5383 C5382 1.397 1_554 S
C5383 C5384 1.334 . S
C5384 H5355 0.950 . S
C5384 C5383 1.334 . S
C5384 C5385 1.287 . S
C5385 C5384 1.287 . S
C5385 C5386 1.524 1_554 S
C5385 H5388 0.999 . S
C5386 H5356 0.950 . S
C5386 C5385 1.524 1_556 S
C5386 C5387 1.415 . S
C5387 H5357 0.950 . S
C5387 C5382 1.363 . S
C5387 C5386 1.415 . S
H5388 C5385 0.999 . S
H5389 C5370 0.913 . S
H5390 C5408 0.951 . S
H5391 C5410 0.951 . S
H5392 C5412 0.950 . S
H5393 C5413 0.950 . S
H5394 C5415 0.950 . S
H5395 C5418 0.950 . S
H5396 C5419 0.950 . S
H5397 C5421 0.950 . S
H5398 C5422 0.950 . S
H5399 C5423 0.951 . S
H5400 C5425 0.951 . S
H5401 C5427 0.950 . S
H5402 C5428 0.950 . S
H5403 C5430 0.950 . S
H5404 C5433 0.950 . S
H5405 C5434 0.950 . S
H5406 C5436 0.950 . S
H5407 C5437 0.950 . S
C5408 H5390 0.951 . S
C5408 C5409 1.366 . S
C5408 C5410 1.388 . S
C5409 C5408 1.366 . S
C5409 C5413 1.385 . S
C5410 H5391 0.951 . S
C5410 C5408 1.388 . S
C5410 C5411 1.366 . S
C5411 C5410 1.366 . S
C5411 C5412 1.414 . S
C5411 C5414 1.499 . S
C5412 H5392 0.950 . S
C5412 C5411 1.414 . S
C5412 C5413 1.374 . S
C5413 H5393 0.950 . S
C5413 C5409 1.385 . S
C5413 C5412 1.374 . S
C5414 C5411 1.499 . S
C5414 C5415 1.373 . S
C5414 C5416 1.389 . S
C5415 H5394 0.950 . S
C5415 C5414 1.373 . S
C5415 C5431 1.377 . S
C5416 C5414 1.389 . S
C5416 C5417 1.524 . S
C5416 C5430 1.377 . S
C5417 C5416 1.524 . S
C5417 C5418 1.397 . S
C5417 C5422 1.363 . S
C5418 H5395 0.950 . S
C5418 C5417 1.397 . S
C5418 C5419 1.334 . S
C5419 H5396 0.950 . S
C5419 C5418 1.334 . S
C5419 C5420 1.287 . S
C5420 C5419 1.287 . S
C5420 C5421 1.524 . S
C5420 H5439 0.913 . S
C5421 H5397 0.950 . S
C5421 C5420 1.524 . S
C5421 C5422 1.415 . S
C5422 H5398 0.950 . S
C5422 C5417 1.363 . S
C5422 C5421 1.415 . S
C5423 H5399 0.951 . S
C5423 C5424 1.366 . S
C5423 C5425 1.388 . S
C5424 C5423 1.366 . S
C5424 C5428 1.385 . S
C5425 H5400 0.951 . S
C5425 C5423 1.388 . S
C5425 C5426 1.366 . S
C5426 C5425 1.366 . S
C5426 C5427 1.414 . S
C5426 C5429 1.499 . S
C5427 H5401 0.950 . S
C5427 C5426 1.414 . S
C5427 C5428 1.374 . S
C5428 H5402 0.950 . S
C5428 C5424 1.385 . S
C5428 C5427 1.374 . S
C5429 C5426 1.499 . S
C5429 C5430 1.373 . S
C5429 C5431 1.389 . S
C5430 H5403 0.950 . S
C5430 C5416 1.377 . S
C5430 C5429 1.373 . S
C5431 C5415 1.377 . S
C5431 C5429 1.389 . S
C5431 C5432 1.524 . S
C5432 C5431 1.524 . S
C5432 C5433 1.397 . S
C5432 C5437 1.363 . S
C5433 H5404 0.950 . S
C5433 C5432 1.397 . S
C5433 C5434 1.334 1_556 S
C5434 H5405 0.950 . S
C5434 C5433 1.334 1_554 S
C5434 C5435 1.287 . S
C5435 C5434 1.287 . S
C5435 C5436 1.524 . S
C5435 H5438 0.999 . S
C5436 H5406 0.950 . S
C5436 C5435 1.524 . S
C5436 C5437 1.415 1_554 S
C5437 H5407 0.950 . S
C5437 C5432 1.363 . S
C5437 C5436 1.415 1_556 S
H5438 C5435 0.999 . S
H5439 C5420 0.913 . S
C659 C562 1.436 . S
C674 C4 1.436 . S
C709 C102 1.434 . S
C724 C24 1.436 . S
C759 C442 1.433 . S
C774 C44 1.435 . S
C809 C302 1.438 . S
C824 C64 1.438 . S
C859 C82 1.437 . S
C874 C484 1.437 . S
C909 C364 1.433 . S
C924 C122 1.435 . S
C959 C224 1.437 . S
C974 C142 1.437 . S
C1009 C402 1.437 . S
C1024 C164 1.437 . S
C1059 C184 1.435 . S
C1074 C262 1.435 . S
C1109 C204 1.434 . S
C1124 C602 1.434 . S
C1159 C324 1.438 . S
C1174 C242 1.438 . S
C1209 C282 1.433 . S
C1224 C524 1.433 . S
C1259 C344 1.433 . S
C1274 C422 1.434 . S
C1309 C384 1.438 . S
C1324 C622 1.438 . S
C1359 C544 1.438 . S
C1374 C462 1.438 . S
C1409 C582 1.432 . S
C1424 C504 1.432 . S
C1459 C382 1.506 . S
C1474 C2 1.505 . S
C1509 C362 1.503 . S
C1524 C22 1.503 . S
C1559 C342 1.502 . S
C1574 C42 1.503 . S
C1609 C322 1.506 . S
C1624 C62 1.506 . S
C1659 C464 1.506 . S
C1674 C84 1.505 . S
C1709 C104 1.504 . S
C1724 C444 1.504 . S
C1759 C124 1.503 . S
C1774 C424 1.502 . S
C1809 C144 1.505 . S
C1824 C404 1.505 . S
C1859 C162 1.518 . S
C1874 C542 1.519 . S
C1909 C182 1.507 . S
C1924 C522 1.507 . S
C1959 C202 1.506 . S
C1974 C502 1.506 . S
C2009 C482 1.519 . S
C2024 C222 1.518 . S
C2059 C244 1.518 . S
C2074 C624 1.518 . S
C2109 C264 1.507 . S
C2124 C604 1.507 . S
C2159 C284 1.506 . S
C2174 C584 1.507 . S
C2209 C564 1.519 . S
C2224 C304 1.519 . S
C2259 C9 1.273 . S
C2274 C12 1.273 1_556 S
C2309 C29 1.273 . S
C2324 C32 1.273 1_556 S
C2359 C52 1.273 . S
C2374 C49 1.273 . S
C2409 C72 1.272 . S
C2424 C69 1.272 . S
C2459 C89 1.272 1_554 S
C2474 C92 1.272 . S
C2509 C109 1.273 1_554 S
C2524 C112 1.273 . S
C2559 C129 1.274 . S
C2574 C132 1.274 . S
C2609 C152 1.273 . S
C2624 C149 1.273 . S
C2659 C169 1.274 . S
C2674 C172 1.274 . S
C2709 C192 1.273 . S
C2724 C189 1.273 . S
C2759 C212 1.274 . S
C2774 C209 1.274 . S
C2809 C232 1.274 . S
C2824 C229 1.274 . S
C2859 C249 1.274 . S
C2874 C252 1.274 . S
C2909 C272 1.273 . S
C2924 C269 1.273 . S
C2959 C289 1.273 . S
C2974 C292 1.273 . S
C3009 C312 1.273 . S
C3024 C309 1.273 . S
C3059 C329 1.272 . S
C3074 C332 1.272 . S
C3109 C352 1.273 . S
C3124 C349 1.273 . S
C3159 C372 1.273 . S
C3174 C369 1.273 . S
C3209 C392 1.272 . S
C3224 C389 1.272 . S
C3259 C412 1.273 . S
C3274 C409 1.273 . S
C3309 C429 1.274 . S
C3324 C432 1.274 . S
C3359 C452 1.273 . S
C3374 C449 1.273 . S
C3409 C472 1.273 . S
C3424 C469 1.273 . S
C3459 C489 1.274 . S
C3474 C492 1.274 1_556 S
C3509 C512 1.274 1_556 S
C3524 C509 1.274 . S
C3559 C532 1.274 . S
C3574 C529 1.274 . S
C3609 C549 1.274 . S
C3624 C552 1.274 . S
C3659 C569 1.273 1_554 S
C3674 C572 1.273 . S
C3709 C592 1.273 . S
C3724 C589 1.273 1_554 S
C3759 C612 1.274 . S
C3774 C609 1.274 . S
C3809 C632 1.273 . S
C3824 C629 1.273 . S
C3859 C218 1.891 . S
C3874 C18 1.891 . S
C3909 C238 1.842 . S
C3924 C38 1.837 . S
C3959 C58 1.843 1_556 S
C3974 C178 1.836 . S
C4009 C198 1.892 . S
C4024 C78 1.891 1_556 S
C4059 C99 1.891 . S
C4074 C299 1.892 . S
C4109 C119 1.843 . S
C4124 C319 1.836 . S
C4159 C139 1.843 1_554 S
C4174 C259 1.836 . S
C4209 C159 1.892 1_554 S
C4224 C279 1.892 . S
C4259 C538 1.892 1_556 S
C4274 C338 1.892 . S
C4309 C358 1.843 . S
C4324 C558 1.836 1_556 S
C4359 C498 1.842 . S
C4374 C378 1.837 . S
C4409 C398 1.892 . S
C4424 C518 1.892 . S
C4459 C619 1.892 1_554 S
C4474 C419 1.891 . S
C4509 C439 1.843 . S
C4524 C639 1.836 1_554 S
C4559 C459 1.843 . S
C4574 C579 1.836 . S
C4609 C599 1.892 . S
C4624 C479 1.892 . S
C4659 C19 1.191 . S
C4674 C59 1.198 . S
C4709 C79 1.190 . S
C4724 C39 1.198 . S
C4759 C138 1.191 . S
C4774 C98 1.198 . S
C4809 C118 1.191 . S
C4824 C158 1.197 . S
C4859 C179 1.136 . S
C4874 C219 1.136 . S
C4909 C239 1.136 . S
C4924 C199 1.137 . S
C4959 C298 1.137 . S
C4974 C258 1.136 . S
C5009 C318 1.136 . S
C5024 C278 1.137 . S
C5059 C379 1.191 . S
C5074 C339 1.197 . S
C5109 C399 1.190 . S
C5124 C359 1.198 . S
C5159 C458 1.191 . S
C5174 C418 1.197 . S
C5209 C478 1.190 . S
C5224 C438 1.198 . S
C5259 C499 1.136 . S
C5274 C539 1.136 . S
C5309 C519 1.136 . S
C5324 C559 1.136 . S
C5359 C578 1.136 . S
C5374 C618 1.136 . S
C5409 C638 1.135 . S
C5424 C598 1.136 . S
