# Generated by pormake.
# Topology unb, (4)-cn, num edge types: 1
# Building blocks:
#     Node 0, Type 0, BuildingBlock: AZAVOO_clean_sbu_0, # of connection points: 4
#     Node 1, Type 0, BuildingBlock: AZAVOO_clean_sbu_0, # of connection points: 4
#     Node 2, Type 0, BuildingBlock: AZAVOO_clean_sbu_0, # of connection points: 4
#     Node 3, Type 0, BuildingBlock: AZAVOO_clean_sbu_0, # of connection points: 4
#     Node 4, Type 0, BuildingBlock: AZAVOO_clean_sbu_0, # of connection points: 4
#     Node 5, Type 0, BuildingBlock: AZAVOO_clean_sbu_0, # of connection points: 4
#     Node 6, Type 0, BuildingBlock: AZAVOO_clean_sbu_0, # of connection points: 4
#     Node 7, Type 0, BuildingBlock: AZAVOO_clean_sbu_0, # of connection points: 4
#     Node 8, Type 0, BuildingBlock: AZAVOO_clean_sbu_0, # of connection points: 4
#     Node 9, Type 0, BuildingBlock: AZAVOO_clean_sbu_0, # of connection points: 4
#     Node 10, Type 0, BuildingBlock: AZAVOO_clean_sbu_0, # of connection points: 4
#     Node 11, Type 0, BuildingBlock: AZAVOO_clean_sbu_0, # of connection points: 4
#     Node 12, Type 0, BuildingBlock: AZAVOO_clean_sbu_0, # of connection points: 4
#     Node 13, Type 0, BuildingBlock: AZAVOO_clean_sbu_0, # of connection points: 4
#     Node 14, Type 0, BuildingBlock: AZAVOO_clean_sbu_0, # of connection points: 4
#     Node 15, Type 0, BuildingBlock: AZAVOO_clean_sbu_0, # of connection points: 4
#     Node 16, Type 0, BuildingBlock: AZAVOO_clean_sbu_0, # of connection points: 4
#     Node 17, Type 0, BuildingBlock: AZAVOO_clean_sbu_0, # of connection points: 4
#     Edge 18, Type (0, 0), BuildingBlock: MIFKUJ_clean_linker_0, # of connection points: 2
#     Edge 19, Type (0, 0), BuildingBlock: MIFKUJ_clean_linker_0, # of connection points: 2
#     Edge 20, Type (0, 0), BuildingBlock: MIFKUJ_clean_linker_0, # of connection points: 2
#     Edge 21, Type (0, 0), BuildingBlock: MIFKUJ_clean_linker_0, # of connection points: 2
#     Edge 22, Type (0, 0), BuildingBlock: MIFKUJ_clean_linker_0, # of connection points: 2
#     Edge 23, Type (0, 0), BuildingBlock: MIFKUJ_clean_linker_0, # of connection points: 2
#     Edge 24, Type (0, 0), BuildingBlock: MIFKUJ_clean_linker_0, # of connection points: 2
#     Edge 25, Type (0, 0), BuildingBlock: MIFKUJ_clean_linker_0, # of connection points: 2
#     Edge 26, Type (0, 0), BuildingBlock: MIFKUJ_clean_linker_0, # of connection points: 2
#     Edge 27, Type (0, 0), BuildingBlock: MIFKUJ_clean_linker_0, # of connection points: 2
#     Edge 28, Type (0, 0), BuildingBlock: MIFKUJ_clean_linker_0, # of connection points: 2
#     Edge 29, Type (0, 0), BuildingBlock: MIFKUJ_clean_linker_0, # of connection points: 2
#     Edge 30, Type (0, 0), BuildingBlock: MIFKUJ_clean_linker_0, # of connection points: 2
#     Edge 31, Type (0, 0), BuildingBlock: MIFKUJ_clean_linker_0, # of connection points: 2
#     Edge 32, Type (0, 0), BuildingBlock: MIFKUJ_clean_linker_0, # of connection points: 2
#     Edge 33, Type (0, 0), BuildingBlock: MIFKUJ_clean_linker_0, # of connection points: 2
#     Edge 34, Type (0, 0), BuildingBlock: MIFKUJ_clean_linker_0, # of connection points: 2
#     Edge 35, Type (0, 0), BuildingBlock: MIFKUJ_clean_linker_0, # of connection points: 2
#     Edge 36, Type (0, 0), BuildingBlock: MIFKUJ_clean_linker_0, # of connection points: 2
#     Edge 37, Type (0, 0), BuildingBlock: MIFKUJ_clean_linker_0, # of connection points: 2
#     Edge 38, Type (0, 0), BuildingBlock: MIFKUJ_clean_linker_0, # of connection points: 2
#     Edge 39, Type (0, 0), BuildingBlock: MIFKUJ_clean_linker_0, # of connection points: 2
#     Edge 40, Type (0, 0), BuildingBlock: MIFKUJ_clean_linker_0, # of connection points: 2
#     Edge 41, Type (0, 0), BuildingBlock: MIFKUJ_clean_linker_0, # of connection points: 2
#     Edge 42, Type (0, 0), BuildingBlock: MIFKUJ_clean_linker_0, # of connection points: 2
#     Edge 43, Type (0, 0), BuildingBlock: MIFKUJ_clean_linker_0, # of connection points: 2
#     Edge 44, Type (0, 0), BuildingBlock: MIFKUJ_clean_linker_0, # of connection points: 2
#     Edge 45, Type (0, 0), BuildingBlock: MIFKUJ_clean_linker_0, # of connection points: 2
#     Edge 46, Type (0, 0), BuildingBlock: MIFKUJ_clean_linker_0, # of connection points: 2
#     Edge 47, Type (0, 0), BuildingBlock: MIFKUJ_clean_linker_0, # of connection points: 2
#     Edge 48, Type (0, 0), BuildingBlock: MIFKUJ_clean_linker_0, # of connection points: 2
#     Edge 49, Type (0, 0), BuildingBlock: MIFKUJ_clean_linker_0, # of connection points: 2
#     Edge 50, Type (0, 0), BuildingBlock: MIFKUJ_clean_linker_0, # of connection points: 2
#     Edge 51, Type (0, 0), BuildingBlock: MIFKUJ_clean_linker_0, # of connection points: 2
#     Edge 52, Type (0, 0), BuildingBlock: MIFKUJ_clean_linker_0, # of connection points: 2
#     Edge 53, Type (0, 0), BuildingBlock: MIFKUJ_clean_linker_0, # of connection points: 2
# Relax obj value: 0.018
# Max RMSD: 0.023
# Mean RMSD: 0.023
data_MOF--net-unb--node1-AZAVOO_clean_sbu_0--edge1-MIFKUJ_clean_linker_0
_symmetry_space_group_name_H-M    P1
_symmetry_Int_Tables_number       1
_symmetry_cell_setting            triclinic
loop_
_symmetry_equiv_pos_as_xyz
'x, y, z'
_cell_length_a     88.402501
_cell_length_b     88.410297
_cell_length_c     30.551208
_cell_angle_alpha  90.006215
_cell_angle_beta   89.979598
_cell_angle_gamma 120.01385
loop_
_atom_site_label
_atom_site_type_symbol
_atom_site_fract_x
_atom_site_fract_y
_atom_site_fract_z
_atom_type_partial_charge
Mg0 Mg 0.11973 0.24588 0.08911 0.0
O1 O 0.12505 0.26565 0.03364 0.0
O2 O 0.10853 0.2777 0.04745 0.0
Mg3 Mg 0.09291 0.26598 0.10988 0.0
C4 C 0.11969 0.27626 0.02396 0.0
C5 C 0.13967 0.22737 0.07044 0.0
O6 O 0.12403 0.21528 0.08323 0.0
O7 O 0.13635 0.26818 0.13575 0.0
O8 O 0.11873 0.27907 0.14822 0.0
O9 O 0.09753 0.22497 0.05159 0.0
O10 O 0.09484 0.2425 0.09839 0.0
C11 C 0.13302 0.27907 0.15461 0.0
C12 C 0.08772 0.23021 0.06974 0.0
O13 O 0.14302 0.24311 0.06878 0.0
Mg14 Mg 0.75415 0.87604 0.08481 0.0
O15 O 0.73466 0.86188 0.02879 0.0
O16 O 0.7229 0.83319 0.04014 0.0
Mg17 Mg 0.73456 0.82885 0.1022 0.0
C18 C 0.7243 0.84602 0.01774 0.0
C19 C 0.77106 0.91332 0.04988 0.0
O20 O 0.78357 0.90944 0.0478 0.0
O21 O 0.73166 0.86959 0.13211 0.0
O22 O 0.72142 0.84106 0.14227 0.0
O23 O 0.77511 0.87499 0.04641 0.0
O24 O 0.75787 0.85456 0.09299 0.0
C25 C 0.72105 0.85506 0.15027 0.0
C26 C 0.77008 0.85993 0.0641 0.0
O27 O 0.75624 0.90197 0.06485 0.0
Mg28 Mg 0.12693 0.87766 0.07124 0.0
O29 O 0.14135 0.87127 0.01794 0.0
O30 O 0.16992 0.88816 0.03163 0.0
Mg31 Mg 0.17384 0.90639 0.08886 0.0
C32 C 0.15734 0.87633 0.00934 0.0
C33 C 0.09026 0.84636 0.08675 0.0
O34 O 0.09501 0.85301 0.12619 0.0
O35 O 0.13385 0.86328 0.12265 0.0
O36 O 0.16193 0.88275 0.13492 0.0
O37 O 0.12709 0.89841 0.02908 0.0
O38 O 0.14793 0.90304 0.07598 0.0
C39 C 0.14809 0.86831 0.14358 0.0
C40 C 0.14214 0.9091 0.04614 0.0
O41 O 0.1011 0.85317 0.05549 0.0
Mg42 Mg 0.25011 0.12374 0.9157 0.0
O43 O 0.27149 0.13059 0.96749 0.0
O44 O 0.28343 0.11405 0.95269 0.0
Mg45 Mg 0.26885 0.09569 0.8957 0.0
C46 C 0.28268 0.1258 0.97533 0.0
C47 C 0.23207 0.14395 0.93152 0.0
O48 O 0.2202 0.12821 0.91884 0.0
O49 O 0.27081 0.13852 0.86336 0.0
O50 O 0.27952 0.11922 0.84921 0.0
O51 O 0.23016 0.10287 0.95865 0.0
O52 O 0.24608 0.09844 0.91036 0.0
C53 C 0.27979 0.13354 0.84115 0.0
C54 C 0.23447 0.09228 0.94086 0.0
O55 O 0.24789 0.14758 0.93338 0.0
Mg56 Mg 0.87572 0.12765 0.91816 0.0
O57 O 0.86914 0.14173 0.97178 0.0
O58 O 0.88662 0.17037 0.96072 0.0
Mg59 Mg 0.90419 0.17466 0.90168 0.0
C60 C 0.87459 0.15764 0.98223 0.0
C61 C 0.85269 0.08881 0.91932 0.0
O62 O 0.86664 0.0921 0.89663 0.0
O63 O 0.86109 0.13443 0.86753 0.0
O64 O 0.88033 0.16267 0.85611 0.0
O65 O 0.89657 0.12798 0.96017 0.0
O66 O 0.90106 0.14881 0.91335 0.0
C67 C 0.86598 0.14876 0.8472 0.0
C68 C 0.90714 0.1431 0.94335 0.0
O69 O 0.85154 0.10162 0.93415 0.0
Mg70 Mg 0.88003 0.75745 0.91783 0.0
O71 O 0.86498 0.73675 0.97089 0.0
O72 O 0.83646 0.72428 0.95553 0.0
Mg73 Mg 0.83319 0.73757 0.89522 0.0
C74 C 0.84901 0.72566 0.97909 0.0
C75 C 0.90997 0.76086 0.97876 0.0
O76 O 0.89901 0.7605 0.00836 0.0
O77 O 0.87463 0.73585 0.8687 0.0
O78 O 0.84626 0.72533 0.85515 0.0
O79 O 0.87846 0.77772 0.95768 0.0
O80 O 0.85852 0.76091 0.90939 0.0
C81 C 0.86056 0.72537 0.84863 0.0
C82 C 0.86348 0.7727 0.93936 0.0
O83 O 0.90572 0.75937 0.93858 0.0
Mg84 Mg 0.79194 0.58454 0.42422 0.0
O85 O 0.7987 0.60519 0.37058 0.0
O86 O 0.78309 0.6182 0.38469 0.0
Mg87 Mg 0.76605 0.60564 0.44501 0.0
C88 C 0.79419 0.6165 0.36155 0.0
C89 C 0.81059 0.56497 0.40574 0.0
O90 O 0.79462 0.5534 0.41762 0.0
O91 O 0.80839 0.60586 0.47356 0.0
O92 O 0.79071 0.61655 0.48764 0.0
O93 O 0.76985 0.56475 0.38391 0.0
O94 O 0.7673 0.58192 0.43212 0.0
C95 C 0.80473 0.61609 0.49465 0.0
C96 C 0.76021 0.57015 0.40226 0.0
O97 O 0.81481 0.58098 0.40479 0.0
Mg98 Mg 0.42429 0.21038 0.42049 0.0
O99 O 0.40508 0.19613 0.36382 0.0
O100 O 0.39286 0.16748 0.37729 0.0
Mg101 Mg 0.40496 0.16332 0.43881 0.0
C102 C 0.39439 0.18018 0.35407 0.0
C103 C 0.44239 0.24856 0.39678 0.0
O104 O 0.45493 0.24512 0.40528 0.0
O105 O 0.40137 0.20369 0.46642 0.0
O106 O 0.39149 0.17532 0.47827 0.0
O107 O 0.44603 0.21014 0.38395 0.0
O108 O 0.42814 0.18904 0.42833 0.0
C109 C 0.39088 0.18926 0.48517 0.0
C110 C 0.44092 0.19494 0.40093 0.0
O111 O 0.42663 0.23638 0.40085 0.0
Mg112 Mg 0.78281 0.20886 0.41957 0.0
O113 O 0.79925 0.20485 0.36755 0.0
O114 O 0.82734 0.22493 0.37745 0.0
Mg115 Mg 0.82902 0.2405 0.43879 0.0
C116 C 0.81531 0.21204 0.35645 0.0
C117 C 0.75421 0.18153 0.35914 0.0
O118 O 0.76398 0.19388 0.33113 0.0
O119 O 0.79088 0.19515 0.4697 0.0
O120 O 0.81889 0.21542 0.47973 0.0
O121 O 0.78185 0.22904 0.37755 0.0
O122 O 0.80225 0.2349 0.42706 0.0
C123 C 0.80564 0.20047 0.4882 0.0
C124 C 0.79635 0.24032 0.39597 0.0
O125 O 0.75882 0.18338 0.39909 0.0
Mg126 Mg 0.91068 0.45201 0.24271 0.0
O127 O 0.92978 0.45771 0.29983 0.0
O128 O 0.94011 0.4393 0.29438 0.0
Mg129 Mg 0.92916 0.42326 0.23208 0.0
C130 C 0.93925 0.45159 0.314 0.0
C131 C 0.89328 0.47305 0.25972 0.0
O132 O 0.88081 0.45735 0.24861 0.0
O133 O 0.93357 0.46697 0.19644 0.0
O134 O 0.94414 0.44868 0.19206 0.0
O135 O 0.88912 0.43104 0.28162 0.0
O136 O 0.9062 0.42654 0.23718 0.0
C137 C 0.94465 0.46297 0.18193 0.0
C138 C 0.89373 0.42041 0.26549 0.0
O139 O 0.90896 0.47619 0.25957 0.0
Mg140 Mg 0.54842 0.4634 0.25323 0.0
O141 O 0.54002 0.47625 0.30647 0.0
O142 O 0.55654 0.50514 0.29745 0.0
Mg143 Mg 0.57458 0.51081 0.2391 0.0
C144 C 0.54461 0.49191 0.31771 0.0
C145 C 0.52813 0.4243 0.26075 0.0
O146 O 0.54357 0.42823 0.24549 0.0
O147 O 0.53335 0.46917 0.20184 0.0
O148 O 0.55044 0.4981 0.19453 0.0
O149 O 0.56949 0.46487 0.29629 0.0
O150 O 0.57316 0.48561 0.25004 0.0
C151 C 0.53689 0.48367 0.18421 0.0
C152 C 0.57955 0.48028 0.28022 0.0
O153 O 0.52502 0.43664 0.26798 0.0
Mg154 Mg 0.54039 0.08246 0.25145 0.0
O155 O 0.52571 0.06252 0.30637 0.0
O156 O 0.49723 0.05289 0.29642 0.0
Mg157 Mg 0.49372 0.06704 0.23819 0.0
C158 C 0.5097 0.05278 0.3173 0.0
C159 C 0.57748 0.0889 0.23686 0.0
O160 O 0.57441 0.0949 0.20058 0.0
O161 O 0.5313 0.06025 0.20194 0.0
O162 O 0.50337 0.05291 0.19306 0.0
O163 O 0.54273 0.10432 0.29306 0.0
O164 O 0.52042 0.08847 0.24933 0.0
C165 C 0.51649 0.05117 0.18335 0.0
C166 C 0.52746 0.1005 0.27862 0.0
O167 O 0.56541 0.08192 0.2653 0.0
Mg168 Mg 0.45374 0.90722 0.75028 0.0
O169 O 0.45875 0.92836 0.69945 0.0
O170 O 0.43922 0.937 0.71015 0.0
Mg171 Mg 0.42159 0.92128 0.76725 0.0
C172 C 0.45222 0.93793 0.68947 0.0
C173 C 0.48301 0.90735 0.69389 0.0
O174 O 0.47176 0.90563 0.66345 0.0
O175 O 0.46615 0.92808 0.80348 0.0
O176 O 0.44504 0.93463 0.81385 0.0
O177 O 0.43446 0.88653 0.70545 0.0
O178 O 0.42756 0.90041 0.75447 0.0
C179 C 0.45991 0.93641 0.82366 0.0
C180 C 0.42273 0.88932 0.72292 0.0
O181 O 0.47973 0.90905 0.73352 0.0
Mg182 Mg 0.08649 0.54466 0.74347 0.0
O183 O 0.06544 0.52934 0.69123 0.0
O184 O 0.05636 0.50099 0.70086 0.0
Mg185 Mg 0.07012 0.49796 0.76032 0.0
C186 C 0.05592 0.51332 0.68022 0.0
C187 C 0.08949 0.58071 0.75683 0.0
O188 O 0.09129 0.57664 0.79711 0.0
O189 O 0.06534 0.53708 0.79525 0.0
O190 O 0.05616 0.50859 0.8032 0.0
O191 O 0.10692 0.54496 0.69981 0.0
O192 O 0.09192 0.5244 0.74867 0.0
C193 C 0.05538 0.52225 0.8129 0.0
C194 C 0.10318 0.53016 0.71738 0.0
O195 O 0.08645 0.56971 0.72649 0.0
Mg196 Mg 0.45574 0.5461 0.75786 0.0
O197 O 0.46823 0.54026 0.69877 0.0
O198 O 0.49705 0.55872 0.70195 0.0
Mg199 Mg 0.50311 0.57473 0.76452 0.0
C200 C 0.48362 0.54642 0.68317 0.0
C201 C 0.41669 0.52306 0.7574 0.0
O202 O 0.41976 0.53739 0.7779 0.0
O203 O 0.46431 0.53118 0.80215 0.0
O204 O 0.49326 0.54928 0.80408 0.0
O205 O 0.45461 0.56714 0.72043 0.0
O206 O 0.47682 0.57144 0.76218 0.0
C207 C 0.47956 0.53505 0.81494 0.0
C208 C 0.47015 0.57767 0.73518 0.0
O209 O 0.42962 0.52181 0.74394 0.0
Mg210 Mg 0.57947 0.79032 0.58572 0.0
O211 O 0.60076 0.79547 0.63615 0.0
O212 O 0.61091 0.77739 0.62091 0.0
Mg213 Mg 0.59483 0.75947 0.56452 0.0
C214 C 0.61117 0.78968 0.64347 0.0
C215 C 0.57576 0.82306 0.57604 0.0
O216 O 0.57186 0.81645 0.53639 0.0
O217 O 0.60032 0.80388 0.53265 0.0
O218 O 0.60727 0.78325 0.51907 0.0
O219 O 0.55914 0.77017 0.62982 0.0
O220 O 0.5735 0.76449 0.57947 0.0
C221 C 0.60871 0.79809 0.5109 0.0
C222 C 0.56238 0.75897 0.61102 0.0
O223 O 0.58033 0.81565 0.6045 0.0
Mg224 Mg 0.21055 0.78653 0.57056 0.0
O225 O 0.20679 0.8028 0.62359 0.0
O226 O 0.2256 0.83104 0.61085 0.0
Mg227 Mg 0.24183 0.83282 0.55063 0.0
C228 C 0.2133 0.81893 0.63323 0.0
C229 C 0.18257 0.75825 0.63158 0.0
O230 O 0.1939 0.7689 0.66047 0.0
O231 O 0.19642 0.79455 0.521 0.0
O232 O 0.217 0.8223 0.50906 0.0
O233 O 0.23116 0.78559 0.611 0.0
O234 O 0.23647 0.80612 0.56238 0.0
C235 C 0.20194 0.80913 0.50124 0.0
C236 C 0.24227 0.80009 0.59227 0.0
O237 O 0.18531 0.76215 0.59118 0.0
Mg238 Mg 0.20555 0.41902 0.5839 0.0
O239 O 0.19017 0.3981 0.63604 0.0
O240 O 0.16173 0.38653 0.62149 0.0
Mg241 Mg 0.15889 0.39958 0.55995 0.0
C242 C 0.17413 0.38743 0.64481 0.0
C243 C 0.24239 0.43632 0.61899 0.0
O244 O 0.23858 0.44886 0.61621 0.0
O245 O 0.20049 0.39771 0.53454 0.0
O246 O 0.17208 0.38708 0.52089 0.0
O247 O 0.20344 0.43895 0.6239 0.0
O248 O 0.18429 0.4228 0.57341 0.0
C249 C 0.18642 0.38715 0.51456 0.0
C250 C 0.18895 0.43444 0.60365 0.0
O251 O 0.23104 0.42102 0.60689 0.0
H252 H 0.21466 0.38893 0.47188 0.0
H253 H 0.21397 0.37026 0.41148 0.0
H254 H 0.1579 0.3393 0.42312 0.0
H255 H 0.15845 0.3577 0.483 0.0
H256 H 0.17257 0.31896 0.40623 0.0
H257 H 0.17608 0.37306 0.35255 0.0
H258 H 0.19069 0.40511 0.34514 0.0
H259 H 0.23593 0.40603 0.29066 0.0
H260 H 0.22163 0.37397 0.29825 0.0
H261 H 0.13465 0.30886 0.18414 0.0
H262 H 0.15255 0.32768 0.24338 0.0
H263 H 0.17781 0.29695 0.25689 0.0
H264 H 0.15976 0.27784 0.19723 0.0
H265 H 0.18742 0.34822 0.26128 0.0
H266 H 0.18142 0.29335 0.36974 0.0
H267 H 0.16378 0.26127 0.37724 0.0
H268 H 0.11946 0.26192 0.32181 0.0
H269 H 0.1368 0.29398 0.31449 0.0
C270 C 0.20223 0.37795 0.46201 0.0
C271 C 0.18658 0.37491 0.48181 0.0
C272 C 0.20187 0.36732 0.42754 0.0
C273 C 0.18588 0.35347 0.41274 0.0
C274 C 0.1704 0.34988 0.43413 0.0
C275 C 0.17072 0.36052 0.46815 0.0
C276 C 0.18465 0.34365 0.37239 0.0
C277 C 0.17622 0.32537 0.37456 0.0
C278 C 0.18936 0.35199 0.3311 0.0
C279 C 0.1979 0.3712 0.32649 0.0
C280 C 0.18919 0.38013 0.3393 0.0
C281 C 0.1974 0.39828 0.33502 0.0
C282 C 0.21425 0.40761 0.31758 0.0
C283 C 0.2229 0.3988 0.30427 0.0
C284 C 0.21476 0.38064 0.30855 0.0
C285 C 0.14417 0.30619 0.19922 0.0
C286 C 0.14561 0.2917 0.18642 0.0
C287 C 0.15451 0.31708 0.23286 0.0
C288 C 0.16643 0.31365 0.25468 0.0
C289 C 0.16863 0.29976 0.24051 0.0
C290 C 0.15832 0.28888 0.20646 0.0
C291 C 0.17482 0.32353 0.29511 0.0
C292 C 0.18457 0.34182 0.29296 0.0
C293 C 0.17106 0.31519 0.33643 0.0
C294 C 0.16046 0.29598 0.34104 0.0
C295 C 0.1679 0.28662 0.35922 0.0
C296 C 0.15796 0.26845 0.36345 0.0
C297 C 0.14053 0.25956 0.34984 0.0
C298 C 0.13298 0.26881 0.33217 0.0
C299 C 0.14286 0.28697 0.32794 0.0
H300 H 0.13286 0.2455 0.3531 0.0
H301 H 0.22059 0.42167 0.31428 0.0
H302 H 0.62043 0.83258 0.48943 0.0
H303 H 0.64097 0.84959 0.43061 0.0
H304 H 0.64373 0.80407 0.39214 0.0
H305 H 0.62376 0.78729 0.45038 0.0
H306 H 0.67549 0.83176 0.39881 0.0
H307 H 0.61918 0.81855 0.33584 0.0
H308 H 0.59219 0.82029 0.33398 0.0
H309 H 0.62263 0.8763 0.33036 0.0
H310 H 0.6498 0.87487 0.3327 0.0
H311 H 0.69362 0.82592 0.18496 0.0
H312 H 0.67586 0.82404 0.24773 0.0
H313 H 0.70207 0.88021 0.25533 0.0
H314 H 0.72023 0.88233 0.19196 0.0
H315 H 0.66072 0.85708 0.27209 0.0
H316 H 0.71743 0.86872 0.3218 0.0
H317 H 0.74328 0.86502 0.31945 0.0
H318 H 0.71093 0.81027 0.34641 0.0
H319 H 0.68484 0.8136 0.34822 0.0
C320 C 0.62542 0.82624 0.4683 0.0
C321 C 0.62055 0.80861 0.47488 0.0
C322 C 0.63711 0.83596 0.43471 0.0
C323 C 0.64394 0.8281 0.40712 0.0
C324 C 0.6388 0.81047 0.41331 0.0
C325 C 0.62731 0.80086 0.44672 0.0
C326 C 0.65665 0.83787 0.37183 0.0
C327 C 0.67231 0.83746 0.37136 0.0
C328 C 0.65281 0.8458 0.33657 0.0
C329 C 0.63649 0.84661 0.33502 0.0
C330 C 0.6201 0.83123 0.335 0.0
C331 C 0.60478 0.83216 0.33379 0.0
C332 C 0.60569 0.8484 0.33221 0.0
C333 C 0.62194 0.86374 0.33169 0.0
C334 C 0.6373 0.86287 0.33294 0.0
C335 C 0.69552 0.83794 0.19937 0.0
C336 C 0.70857 0.85429 0.18382 0.0
C337 C 0.68527 0.83682 0.23515 0.0
C338 C 0.68779 0.85198 0.2562 0.0
C339 C 0.69996 0.86838 0.23929 0.0
C340 C 0.71033 0.86955 0.20323 0.0
C341 C 0.679 0.85015 0.2986 0.0
C342 C 0.66417 0.85202 0.30038 0.0
C343 C 0.68348 0.84342 0.33516 0.0
C344 C 0.69919 0.84142 0.33497 0.0
C345 C 0.71582 0.85588 0.32697 0.0
C346 C 0.73052 0.85385 0.32576 0.0
C347 C 0.72875 0.83742 0.33274 0.0
C348 C 0.71228 0.82299 0.34104 0.0
C349 C 0.69754 0.82495 0.34223 0.0
H350 H 0.74014 0.83587 0.33176 0.0
H351 H 0.59382 0.84909 0.33128 0.0
H352 H 0.21016 0.83816 0.45332 0.0
H353 H 0.19283 0.842 0.39786 0.0
H354 H 0.15127 0.78893 0.41685 0.0
H355 H 0.16886 0.78477 0.47287 0.0
H356 H 0.15804 0.7979 0.32889 0.0
H357 H 0.14473 0.82063 0.45351 0.0
H358 H 0.15038 0.83719 0.5223 0.0
H359 H 0.18333 0.88503 0.45377 0.0
H360 H 0.17812 0.86876 0.38468 0.0
H361 H 0.12244 0.83574 0.17164 0.0
H362 H 0.12352 0.81962 0.23613 0.0
H363 H 0.17583 0.86115 0.26367 0.0
H364 H 0.17503 0.87712 0.19998 0.0
H365 H 0.15208 0.85075 0.33607 0.0
H366 H 0.17057 0.82565 0.21753 0.0
H367 H 0.16512 0.80888 0.1491 0.0
H368 H 0.12088 0.76489 0.20801 0.0
H369 H 0.12596 0.78151 0.27665 0.0
C370 C 0.19733 0.82723 0.44611 0.0
C371 C 0.1909 0.81116 0.46788 0.0
C372 C 0.18737 0.8295 0.4144 0.0
C373 C 0.17062 0.81586 0.40381 0.0
C374 C 0.16412 0.79966 0.42487 0.0
C375 C 0.17417 0.79734 0.45687 0.0
C376 C 0.16049 0.81889 0.36976 0.0
C377 C 0.15622 0.80914 0.33088 0.0
C378 C 0.15799 0.83348 0.37244 0.0
C379 C 0.16101 0.84344 0.41384 0.0
C380 C 0.15324 0.83467 0.45311 0.0
C381 C 0.15637 0.84402 0.49218 0.0
C382 C 0.1672 0.86215 0.4924 0.0
C383 C 0.17492 0.87099 0.45353 0.0
C384 C 0.17184 0.86171 0.41438 0.0
C385 C 0.1342 0.84136 0.19132 0.0
C386 C 0.14863 0.85776 0.18064 0.0
C387 C 0.13477 0.83214 0.22809 0.0
C388 C 0.1497 0.8393 0.25471 0.0
C389 C 0.16413 0.85549 0.24369 0.0
C390 C 0.16365 0.86457 0.20704 0.0
C391 C 0.15073 0.83042 0.29468 0.0
C392 C 0.15323 0.8391 0.33472 0.0
C393 C 0.15144 0.81482 0.29309 0.0
C394 C 0.14849 0.80489 0.25193 0.0
C395 C 0.15958 0.81246 0.21573 0.0
C396 C 0.15659 0.80297 0.17695 0.0
C397 C 0.14262 0.78585 0.17415 0.0
C398 C 0.13166 0.77817 0.21019 0.0
C399 C 0.13459 0.78761 0.24902 0.0
H400 H 0.14032 0.77853 0.14411 0.0
H401 H 0.16962 0.86936 0.52269 0.0
H402 H 0.36332 0.16002 0.51901 0.0
H403 H 0.3427 0.15803 0.57422 0.0
H404 H 0.36747 0.21423 0.5784 0.0
H405 H 0.38858 0.21641 0.52276 0.0
H406 H 0.36226 0.20007 0.66018 0.0
H407 H 0.32669 0.19162 0.53772 0.0
H408 H 0.31325 0.18045 0.46555 0.0
H409 H 0.28717 0.12803 0.5155 0.0
H410 H 0.30065 0.13883 0.58779 0.0
H411 H 0.29147 0.16823 0.82302 0.0
H412 H 0.30862 0.18493 0.75893 0.0
H413 H 0.30816 0.13897 0.70983 0.0
H414 H 0.29149 0.12244 0.77324 0.0
H415 H 0.29887 0.15758 0.64684 0.0
H416 H 0.34256 0.16722 0.76051 0.0
H417 H 0.35641 0.17853 0.83231 0.0
H418 H 0.36662 0.22983 0.7971 0.0
H419 H 0.35261 0.21873 0.72525 0.0
C420 C 0.36439 0.17202 0.53123 0.0
C421 C 0.37767 0.18839 0.51649 0.0
C422 C 0.35245 0.17084 0.56263 0.0
C423 C 0.35336 0.18597 0.57997 0.0
C424 C 0.36646 0.20239 0.56514 0.0
C425 C 0.37846 0.2036 0.53333 0.0
C426 C 0.34125 0.18416 0.61581 0.0
C427 C 0.3483 0.19124 0.65698 0.0
C428 C 0.32303 0.17272 0.61167 0.0
C429 C 0.31471 0.16607 0.56829 0.0
C430 C 0.31815 0.1777 0.5333 0.0
C431 C 0.31052 0.17143 0.49234 0.0
C432 C 0.29936 0.15354 0.48595 0.0
C433 C 0.2958 0.14189 0.52052 0.0
C434 C 0.3034 0.14809 0.56155 0.0
C435 C 0.29506 0.16174 0.79849 0.0
C436 C 0.2902 0.14403 0.8033 0.0
C437 C 0.3048 0.17127 0.762 0.0
C438 C 0.30952 0.16311 0.72968 0.0
C439 C 0.30453 0.14545 0.73432 0.0
C440 C 0.29511 0.13606 0.77081 0.0
C441 C 0.32008 0.17267 0.69112 0.0
C442 C 0.3127 0.16702 0.64953 0.0
C443 C 0.33792 0.18551 0.69482 0.0
C444 C 0.34634 0.19211 0.73787 0.0
C445 C 0.34761 0.18087 0.76827 0.0
C446 C 0.35552 0.18725 0.80892 0.0
C447 C 0.36233 0.20487 0.81933 0.0
C448 C 0.3613 0.21617 0.78904 0.0
C449 C 0.35338 0.20985 0.74837 0.0
H450 H 0.36845 0.20979 0.8508 0.0
H451 H 0.29348 0.14871 0.45421 0.0
H452 H 0.83596 0.20527 0.52364 0.0
H453 H 0.83966 0.18825 0.58053 0.0
H454 H 0.78393 0.15331 0.585 0.0
H455 H 0.78001 0.17053 0.52765 0.0
H456 H 0.79806 0.16382 0.6669 0.0
H457 H 0.80865 0.13781 0.54518 0.0
H458 H 0.82038 0.13617 0.47324 0.0
H459 H 0.87268 0.16543 0.52315 0.0
H460 H 0.8613 0.1675 0.59521 0.0
H461 H 0.8316 0.1254 0.82721 0.0
H462 H 0.81499 0.12637 0.76364 0.0
H463 H 0.86022 0.17383 0.71993 0.0
H464 H 0.87667 0.1732 0.78296 0.0
H465 H 0.84309 0.14621 0.65437 0.0
H466 H 0.83091 0.17799 0.76864 0.0
H467 H 0.81886 0.17962 0.84018 0.0
H468 H 0.76838 0.13762 0.80262 0.0
H469 H 0.78023 0.13561 0.73101 0.0
C470 C 0.82444 0.19392 0.53634 0.0
C471 C 0.80768 0.1893 0.52108 0.0
C472 C 0.8266 0.1841 0.56873 0.0
C473 C 0.81209 0.16936 0.58657 0.0
C474 C 0.7953 0.16457 0.57139 0.0
C475 C 0.79311 0.1744 0.5386 0.0
C476 C 0.81483 0.15986 0.62284 0.0
C477 C 0.8075 0.15944 0.66391 0.0
C478 C 0.8271 0.15409 0.61894 0.0
C479 C 0.83409 0.15283 0.57568 0.0
C480 C 0.82266 0.14399 0.54078 0.0
C481 C 0.82925 0.14297 0.49996 0.0
C482 C 0.84726 0.15069 0.49363 0.0
C483 C 0.85872 0.15943 0.52812 0.0
C484 C 0.85221 0.1605 0.56901 0.0
C485 C 0.83794 0.13606 0.80408 0.0
C486 C 0.85544 0.14925 0.8102 0.0
C487 C 0.82845 0.13657 0.76788 0.0
C488 C 0.83647 0.15012 0.73713 0.0
C489 C 0.85387 0.16322 0.74323 0.0
C490 C 0.86321 0.16289 0.77949 0.0
C491 C 0.82703 0.15112 0.69836 0.0
C492 C 0.83314 0.14992 0.6569 0.0
C493 C 0.81356 0.15523 0.70187 0.0
C494 C 0.8065 0.15648 0.74481 0.0
C495 C 0.81729 0.16899 0.77583 0.0
C496 C 0.81049 0.17001 0.81634 0.0
C497 C 0.79288 0.15868 0.82602 0.0
C498 C 0.78203 0.14635 0.79513 0.0
C499 C 0.78877 0.14527 0.75459 0.0
H500 H 0.78764 0.15949 0.85738 0.0
H501 H 0.85234 0.1499 0.46199 0.0
H502 H 0.8887 0.72535 0.80977 0.0
H503 H 0.88782 0.70552 0.75212 0.0
H504 H 0.83149 0.67759 0.75723 0.0
H505 H 0.83222 0.69701 0.81435 0.0
H506 H 0.84404 0.65536 0.74987 0.0
H507 H 0.85394 0.71018 0.68252 0.0
H508 H 0.87126 0.74198 0.66998 0.0
H509 H 0.91478 0.73683 0.62738 0.0
H510 H 0.89772 0.70499 0.64015 0.0
H511 H 0.79727 0.63288 0.55811 0.0
H512 H 0.8156 0.65 0.61883 0.0
H513 H 0.8572 0.64202 0.57302 0.0
H514 H 0.83866 0.62435 0.51173 0.0
H515 H 0.86283 0.68066 0.60138 0.0
H516 H 0.84727 0.62315 0.65015 0.0
H517 H 0.82729 0.59153 0.65967 0.0
H518 H 0.79267 0.60186 0.73603 0.0
H519 H 0.8123 0.63355 0.72636 0.0
C520 C 0.87616 0.71484 0.7989 0.0
C521 C 0.86052 0.71287 0.81634 0.0
C522 C 0.87569 0.70356 0.76598 0.0
C523 C 0.85959 0.69013 0.75033 0.0
C524 C 0.84407 0.6878 0.76894 0.0
C525 C 0.84451 0.69904 0.80143 0.0
C526 C 0.85836 0.67907 0.71255 0.0
C527 C 0.84843 0.66087 0.71749 0.0
C528 C 0.86448 0.68622 0.67045 0.0
C529 C 0.87467 0.7053 0.66286 0.0
C530 C 0.86725 0.71586 0.67081 0.0
C531 C 0.877 0.73388 0.6636 0.0
C532 C 0.89413 0.74143 0.64805 0.0
C533 C 0.90152 0.73097 0.63955 0.0
C534 C 0.89183 0.71295 0.64677 0.0
C535 C 0.81033 0.63479 0.56052 0.0
C536 C 0.81648 0.62721 0.53002 0.0
C537 C 0.82077 0.64456 0.59535 0.0
C538 C 0.83765 0.64715 0.60032 0.0
C539 C 0.84414 0.64007 0.56956 0.0
C540 C 0.83355 0.62999 0.53476 0.0
C541 C 0.8479 0.6571 0.63872 0.0
C542 C 0.85933 0.67509 0.63398 0.0
C543 C 0.84305 0.64978 0.68101 0.0
C544 C 0.83125 0.63073 0.68737 0.0
C545 C 0.83534 0.61868 0.6687 0.0
C546 C 0.82408 0.60074 0.67417 0.0
C547 C 0.80872 0.59469 0.69841 0.0
C548 C 0.80459 0.60657 0.71729 0.0
C549 C 0.81579 0.62452 0.71189 0.0
H550 H 0.80002 0.5808 0.7026 0.0
H551 H 0.90167 0.75538 0.64247 0.0
H552 H 0.97812 0.46985 0.1761 0.0
H553 H 0.99922 0.48599 0.11838 0.0
H554 H 0.9619 0.49721 0.05708 0.0
H555 H 0.94121 0.482 0.11648 0.0
H556 H 0.99679 0.47697 0.04113 0.0
H557 H 0.98091 0.5307 0.98553 0.0
H558 H 0.97309 0.55127 0.01887 0.0
H559 H 0.99687 0.54951 0.13982 0.0
H560 H 0.00505 0.52912 0.10707 0.0
H561 H 0.02284 0.49504 0.82723 0.0
H562 H 0.00458 0.48997 0.8917 0.0
H563 H 0.04262 0.54033 0.94314 0.0
H564 H 0.06056 0.54584 0.87723 0.0
H565 H 0.0108 0.53268 0.96857 0.0
H566 H 0.04402 0.50378 0.9723 0.0
H567 H 0.05546 0.48525 0.94454 0.0
H568 H 0.00342 0.44116 0.93999 0.0
H569 H 0.99164 0.45949 0.96714 0.0
C570 C 0.97462 0.47614 0.15081 0.0
C571 C 0.95806 0.47465 0.15049 0.0
C572 C 0.98665 0.48533 0.11778 0.0
C573 C 0.98221 0.49283 0.08314 0.0
C574 C 0.96585 0.49189 0.08375 0.0
C575 C 0.95397 0.4831 0.11756 0.0
C576 C 0.99382 0.49973 0.0442 0.0
C577 C -9e-05 0.48924 0.02566 0.0
C578 C 0.9982 0.51586 0.02403 0.0
C579 C 0.99345 0.52824 0.04391 0.0
C580 C 0.98454 0.53475 0.01918 0.0
C581 C 0.98003 0.54638 0.03799 0.0
C582 C 0.98443 0.55166 0.08147 0.0
C583 C 0.99341 0.54536 0.1062 0.0
C584 C 0.99796 0.53375 0.08754 0.0
C585 C 0.0271 0.50519 0.85184 0.0
C586 C 0.04317 0.52071 0.84771 0.0
C587 C 0.01671 0.50227 0.8887 0.0
C588 C 0.02251 0.51454 0.92284 0.0
C589 C 0.03796 0.53063 0.91734 0.0
C590 C 0.04819 0.53375 0.87977 0.0
C591 C 0.01333 0.50972 0.96562 0.0
C592 C 0.00772 0.52053 0.98461 0.0
C593 C 0.00991 0.49418 0.98737 0.0
C594 C 0.01694 0.48304 0.97144 0.0
C595 C 0.03501 0.49015 0.96515 0.0
C596 C 0.04155 0.47969 0.94954 0.0
C597 C 0.03017 0.46205 0.94043 0.0
C598 C 0.01222 0.45483 0.94703 0.0
C599 C 0.0056 0.46525 0.96257 0.0
H600 H 0.03526 0.45396 0.92833 0.0
H601 H 0.98092 0.56065 0.09598 0.0
H602 H 0.51783 0.45794 0.12456 0.0
H603 H 0.50433 0.46103 0.05745 0.0
H604 H 0.51713 0.51291 0.09736 0.0
H605 H 0.53111 0.51015 0.16328 0.0
H606 H 0.47919 0.46831 0.03131 0.0
H607 H 0.53513 0.54051 0.01549 0.0
H608 H 0.56598 0.55869 0.03743 0.0
H609 H 0.57155 0.51317 0.04157 0.0
H610 H 0.54082 0.49477 0.01903 0.0
H611 H 0.45864 0.51732 0.88382 0.0
H612 H 0.46503 0.50233 0.9419 0.0
H613 H 0.51101 0.51071 0.87159 0.0
H614 H 0.50525 0.52677 0.81519 0.0
H615 H 0.52028 0.52092 0.94664 0.0
H616 H 0.47324 0.46826 0.89233 0.0
H617 H 0.44355 0.44786 0.86551 0.0
H618 H 0.42209 0.45006 0.98986 0.0
H619 H 0.45163 0.47067 0.01727 0.0
C620 C 0.51742 0.46984 0.11932 0.0
C621 C 0.52578 0.48394 0.14859 0.0
C622 C 0.5097 0.47158 0.08107 0.0
C623 C 0.51012 0.48735 0.072 0.0
C624 C 0.51704 0.50078 0.10326 0.0
C625 C 0.52501 0.49919 0.14091 0.0
C626 C 0.50509 0.49068 0.02835 0.0
C627 C 0.48812 0.47975 0.01253 0.0
C628 C 0.51701 0.50521 0.0031 0.0
C629 C 0.53563 0.51625 0.0159 0.0
C630 C 0.54296 0.5344 0.02084 0.0
C631 C 0.56043 0.54474 0.03343 0.0
C632 C 0.5707 0.53708 0.041 0.0
C633 C 0.56356 0.51908 0.03583 0.0
C634 C 0.54612 0.50869 0.02318 0.0
C635 C 0.4699 0.51562 0.88048 0.0
C636 C 0.48157 0.5233 0.84544 0.0
C637 C 0.47349 0.50692 0.91352 0.0
C638 C 0.4885 0.50528 0.91124 0.0
C639 C 0.49945 0.51192 0.87443 0.0
C640 C 0.49615 0.52106 0.84217 0.0
C641 C 0.49406 0.49886 0.94956 0.0
C642 C 0.51126 0.50929 0.96466 0.0
C643 C 0.48249 0.48353 0.97304 0.0
C644 C 0.46467 0.47112 0.95676 0.0
C645 C 0.46219 0.4645 0.91387 0.0
C646 C 0.44538 0.45288 0.89857 0.0
C647 C 0.43094 0.44769 0.92594 0.0
C648 C 0.43329 0.45409 0.9687 0.0
C649 C 0.45007 0.46572 0.98415 0.0
H650 H 0.41794 0.4387 0.91403 0.0
H651 H 0.58421 0.54511 0.0508 0.0
H652 H 0.48704 0.03044 0.13657 0.0
H653 H 0.48285 0.00948 0.07996 0.0
H654 H 0.53617 0.02128 0.0952 0.0
H655 H 0.54067 0.04277 0.15219 0.0
H656 H 0.52675 0.01932 0.00847 0.0
H657 H 0.50447 0.98302 0.13312 0.0
H658 H 0.48793 0.97185 0.20186 0.0
H659 H 0.43998 0.95649 0.13341 0.0
H660 H 0.45623 0.9678 0.06436 0.0
H661 H 0.49298 0.94597 0.85344 0.0
H662 H 0.50786 0.96402 0.91785 0.0
H663 H 0.46348 0.97064 0.94239 0.0
H664 H 0.44868 0.95293 0.8788 0.0
H665 H 0.47475 0.9599 0.01609 0.0
H666 H 0.49886 0.00257 0.89639 0.0
H667 H 0.51562 0.01418 0.82805 0.0
H668 H 0.56071 0.01687 0.88877 0.0
H669 H 0.54412 0.00506 0.95734 0.0
C670 C 0.49793 0.02863 0.12824 0.0
C671 C 0.51418 0.03826 0.14924 0.0
C672 C 0.49547 0.01653 0.09589 0.0
C673 C 0.50909 0.01358 0.08394 0.0
C674 C 0.52545 0.02329 0.10424 0.0
C675 C 0.52797 0.03551 0.13682 0.0
C676 C 0.50594 0.00055 0.04941 0.0
C677 C 0.51568 0.00616 0.01051 0.0
C678 C 0.49153 0.98336 0.05213 0.0
C679 C 0.48161 0.9763 0.09351 0.0
C680 C 0.4904 0.97734 0.13274 0.0
C681 C 0.48107 0.97097 0.17178 0.0
C682 C 0.46291 0.96347 0.17201 0.0
C683 C 0.45404 0.96228 0.13318 0.0
C684 C 0.46331 0.96864 0.09405 0.0
C685 C 0.48645 0.95135 0.87248 0.0
C686 C 0.4696 0.94794 0.86095 0.0
C687 C 0.49497 0.96164 0.90919 0.0
C688 C 0.48669 0.96854 0.9349 0.0
C689 C 0.47002 0.96531 0.92312 0.0
C690 C 0.46161 0.95522 0.88653 0.0
C691 C 0.49495 0.97903 0.97462 0.0
C692 C 0.48618 0.97287 0.01457 0.0
C693 C 0.51028 0.9956 0.97288 0.0
C694 C 0.52019 0.00271 0.93173 0.0
C695 C 0.5123 0.00548 0.89501 0.0
C696 C 0.52178 0.01213 0.85628 0.0
C697 C 0.5392 0.0162 0.85402 0.0
C698 C 0.5472 0.01367 0.89054 0.0
C699 C 0.53777 0.00701 0.92933 0.0
H700 H 0.54652 0.02135 0.82401 0.0
H701 H 0.45572 0.95856 0.20227 0.0
H702 H 0.11508 0.30345 0.00039 0.0
H703 H 0.12607 0.32179 0.93549 0.0
H704 H 0.15114 0.29317 0.89315 0.0
H705 H 0.14013 0.27458 0.95834 0.0
H706 H 0.15929 0.34354 0.90706 0.0
H707 H 0.14753 0.29082 0.77931 0.0
H708 H 0.12838 0.25911 0.76805 0.0
H709 H 0.08862 0.2599 0.84717 0.0
H710 H 0.10743 0.29163 0.85837 0.0
H711 H 0.1965 0.38572 0.70439 0.0
H712 H 0.18891 0.36621 0.76749 0.0
H713 H 0.13429 0.34279 0.7348 0.0
H714 H 0.14169 0.36204 0.67154 0.0
H715 H 0.1423 0.31818 0.7581 0.0
H716 H 0.15173 0.37322 0.81444 0.0
H717 H 0.16851 0.40506 0.8265 0.0
H718 H 0.20873 0.39989 0.89163 0.0
H719 H 0.19227 0.36802 0.87946 0.0
C720 C 0.12293 0.30099 0.97739 0.0
C721 C 0.12665 0.28746 0.98456 0.0
C722 C 0.12928 0.31158 0.94039 0.0
C723 C 0.13937 0.30882 0.90949 0.0
C724 C 0.14328 0.29544 0.91653 0.0
C725 C 0.137 0.28486 0.95382 0.0
C726 C 0.14542 0.31981 0.86959 0.0
C727 C 0.15571 0.33799 0.87446 0.0
C728 C 0.14053 0.31257 0.82715 0.0
C729 C 0.12899 0.29355 0.82008 0.0
C730 C 0.13468 0.28422 0.79418 0.0
C731 C 0.12388 0.26626 0.78781 0.0
C732 C 0.10732 0.25749 0.80701 0.0
C733 C 0.10148 0.26669 0.83246 0.0
C734 C 0.11222 0.28466 0.83887 0.0
C735 C 0.18287 0.3764 0.71052 0.0
C736 C 0.16971 0.37555 0.68295 0.0
C737 C 0.17856 0.36526 0.74663 0.0
C738 C 0.16102 0.35312 0.75598 0.0
C739 C 0.1479 0.35202 0.72813 0.0
C740 C 0.15218 0.36314 0.69208 0.0
C741 C 0.15619 0.34192 0.79556 0.0
C742 C 0.14613 0.32372 0.79064 0.0
C743 C 0.161 0.34914 0.83806 0.0
C744 C 0.17086 0.36828 0.84562 0.0
C745 C 0.16421 0.37889 0.83105 0.0
C746 C 0.17365 0.39694 0.83795 0.0
C747 C 0.1897 0.4045 0.8597 0.0
C748 C 0.19631 0.39402 0.87472 0.0
C749 C 0.18693 0.37596 0.86786 0.0
H750 H 0.19699 0.41847 0.86502 0.0
H751 H 0.09899 0.24358 0.80209 0.0
H752 H 0.60703 0.80154 0.72238 0.0
H753 H 0.6281 0.81343 0.78236 0.0
H754 H 0.66595 0.80854 0.70325 0.0
H755 H 0.6444 0.79545 0.64462 0.0
H756 H 0.66848 0.79913 0.77666 0.0
H757 H 0.66773 0.84965 0.72861 0.0
H758 H 0.65522 0.86796 0.70679 0.0
H759 H 0.63373 0.86297 0.83556 0.0
H760 H 0.64591 0.84442 0.858 0.0
H761 H 0.72752 0.86871 0.95208 0.0
H762 H 0.71054 0.86176 0.88423 0.0
H763 H 0.67975 0.80803 0.92534 0.0
H764 H 0.69684 0.81471 0.99226 0.0
H765 H 0.67781 0.85027 0.86458 0.0
H766 H 0.66951 0.78077 0.8428 0.0
H767 H 0.68663 0.76615 0.85645 0.0
H768 H 0.73419 0.81565 0.85152 0.0
H769 H 0.71739 0.83051 0.83756 0.0
C770 C 0.61988 0.80307 0.7179 0.0
C771 C 0.62411 0.79756 0.67901 0.0
C772 C 0.632 0.81002 0.75204 0.0
C773 C 0.64883 0.81224 0.7473 0.0
C774 C 0.65309 0.80694 0.70801 0.0
C775 C 0.64079 0.79949 0.67444 0.0
C776 C 0.66169 0.81929 0.78392 0.0
C777 C 0.67053 0.81037 0.79559 0.0
C778 C 0.66494 0.83433 0.80813 0.0
C779 C 0.65762 0.84553 0.79487 0.0
C780 C 0.66024 0.85236 0.7522 0.0
C781 C 0.65322 0.8628 0.73973 0.0
C782 C 0.64366 0.8666 0.76974 0.0
C783 C 0.64113 0.86001 0.81233 0.0
C784 C 0.64811 0.84955 0.82496 0.0
C785 C 0.71712 0.85542 0.94665 0.0
C786 C 0.71366 0.84223 0.97745 0.0
C787 C 0.70741 0.85148 0.90789 0.0
C788 C 0.69406 0.83431 0.89931 0.0
C789 C 0.69025 0.82128 0.93068 0.0
C790 C 0.70002 0.82515 0.96909 0.0
C791 C 0.68408 0.82979 0.85763 0.0
C792 C 0.67581 0.83915 0.84517 0.0
C793 C 0.682 0.8157 0.83133 0.0
C794 C 0.69216 0.80676 0.83951 0.0
C795 C 0.68362 0.78852 0.84451 0.0
C796 C 0.69328 0.78019 0.85238 0.0
C797 C 0.71149 0.78997 0.85506 0.0
C798 C 0.72009 0.80808 0.84974 0.0
C799 C 0.7105 0.81647 0.84192 0.0
H800 H 0.71894 0.78351 0.86115 0.0
H801 H 0.63823 0.87468 0.76002 0.0
H802 H 0.13884 0.86285 0.93364 0.0
H803 H 0.14734 0.85184 0.87022 0.0
H804 H 0.19367 0.86038 0.9388 0.0
H805 H 0.18571 0.87225 0.00099 0.0
H806 H 0.20273 0.87127 0.86273 0.0
H807 H 0.15591 0.81809 0.91993 0.0
H808 H 0.12609 0.79795 0.9465 0.0
H809 H 0.1051 0.79986 0.82123 0.0
H810 H 0.13479 0.8202 0.79407 0.0
H811 H 0.19552 0.79855 0.70351 0.0
H812 H 0.18523 0.80706 0.76816 0.0
H813 H 0.20425 0.85842 0.71313 0.0
H814 H 0.21525 0.85023 0.64945 0.0
H815 H 0.16268 0.81647 0.78429 0.0
H816 H 0.21804 0.88907 0.7902 0.0
H817 H 0.24918 0.90695 0.77038 0.0
H818 H 0.25545 0.862 0.78229 0.0
H819 H 0.22442 0.84391 0.80273 0.0
C820 C 0.15077 0.86224 0.93518 0.0
C821 C 0.16164 0.86845 0.97216 0.0
C822 C 0.15559 0.85586 0.89901 0.0
C823 C 0.1711 0.85508 0.8997 0.0
C824 C 0.18172 0.86093 0.93717 0.0
C825 C 0.17713 0.86767 0.9728 0.0
C826 C 0.17673 0.84889 0.86095 0.0
C827 C 0.19394 0.85925 0.84573 0.0
C828 C 0.16543 0.83307 0.83894 0.0
C829 C 0.14756 0.8208 0.85511 0.0
C830 C 0.14492 0.81431 0.89815 0.0
C831 C 0.12805 0.80284 0.9133 0.0
C832 C 0.11371 0.79766 0.88561 0.0
C833 C 0.11622 0.8039 0.84266 0.0
C834 C 0.13307 0.81539 0.82736 0.0
C835 C 0.19752 0.81166 0.70523 0.0
C836 C 0.20639 0.82379 0.67161 0.0
C837 C 0.19158 0.8165 0.74215 0.0
C838 C 0.19421 0.83349 0.74599 0.0
C839 C 0.20247 0.84539 0.71159 0.0
C840 C 0.20871 0.84067 0.67509 0.0
C841 C 0.18862 0.83887 0.78621 0.0
C842 C 0.17144 0.82844 0.80149 0.0
C843 C 0.20013 0.85429 0.80937 0.0
C844 C 0.21886 0.86511 0.79756 0.0
C845 C 0.22609 0.88302 0.78875 0.0
C846 C 0.24371 0.89319 0.77737 0.0
C847 C 0.25427 0.8856 0.77494 0.0
C848 C 0.24724 0.86784 0.78403 0.0
C849 C 0.22963 0.85762 0.79547 0.0
H850 H 0.26791 0.89349 0.76609 0.0
H851 H 0.10065 0.78878 0.8974 0.0
H852 H 0.40056 0.19952 0.27915 0.0
H853 H 0.38187 0.19181 0.21422 0.0
H854 H 0.34346 0.14437 0.27784 0.0
H855 H 0.36243 0.15157 0.34147 0.0
H856 H 0.34623 0.13659 0.20098 0.0
H857 H 0.33904 0.18232 0.26291 0.0
H858 H 0.34854 0.21173 0.29224 0.0
H859 H 0.37229 0.23456 0.1689 0.0
H860 H 0.36311 0.20529 0.13898 0.0
H861 H 0.27968 0.14316 0.04624 0.0
H862 H 0.29886 0.15394 0.1103 0.0
H863 H 0.33289 0.13777 0.0515 0.0
H864 H 0.31351 0.12643 0.98835 0.0
H865 H 0.33127 0.17738 0.12717 0.0
H866 H 0.34916 0.12246 0.12661 0.0
H867 H 0.3362 0.09164 0.10404 0.0
H868 H 0.28474 0.0847 0.11728 0.0
H869 H 0.29738 0.11539 0.14049 0.0
C870 C 0.3881 0.18748 0.2792 0.0
C871 C 0.38299 0.17611 0.31527 0.0
C872 C 0.37736 0.18312 0.24218 0.0
C873 C 0.3611 0.16757 0.24113 0.0
C874 C 0.35595 0.15638 0.27756 0.0
C875 C 0.36681 0.16053 0.31401 0.0
C876 C 0.34963 0.16251 0.20178 0.0
C877 C 0.34299 0.14556 0.18497 0.0
C878 C 0.34508 0.17402 0.18106 0.0
C879 C 0.35053 0.19163 0.19885 0.0
C880 C 0.34639 0.19362 0.24214 0.0
C881 C 0.3517 0.21026 0.25885 0.0
C882 C 0.36105 0.225 0.23249 0.0
C883 C 0.36506 0.22313 0.1893 0.0
C884 C 0.35979 0.20652 0.17243 0.0
C885 C 0.29131 0.14199 0.04689 0.0
C886 C 0.29494 0.13372 0.01249 0.0
C887 C 0.30229 0.1482 0.08348 0.0
C888 C 0.31716 0.14637 0.08615 0.0
C889 C 0.32127 0.13893 0.05076 0.0
C890 C 0.31018 0.13249 0.01458 0.0
C891 C 0.328 0.15154 0.12655 0.0
C892 C 0.33455 0.16847 0.14335 0.0
C893 C 0.33197 0.13982 0.14834 0.0
C894 C 0.32424 0.12128 0.13483 0.0
C895 C 0.33508 0.11434 0.12484 0.0
C896 C 0.32779 0.09689 0.11192 0.0
C897 C 0.30966 0.08624 0.10908 0.0
C898 C 0.29878 0.09298 0.11933 0.0
C899 C 0.306 0.11041 0.13232 0.0
H900 H 0.30404 0.07274 0.09904 0.0
H901 H 0.36516 0.23788 0.24549 0.0
H902 H 0.88591 0.18942 0.02066 0.0
H903 H 0.87424 0.19603 0.08551 0.0
H904 H 0.8347 0.14175 0.09719 0.0
H905 H 0.84631 0.13491 0.03191 0.0
H906 H 0.82175 0.16478 0.10887 0.0
H907 H 0.868 0.15685 0.16368 0.0
H908 H 0.89785 0.16134 0.16677 0.0
H909 H 0.91844 0.21597 0.19185 0.0
H910 H 0.88874 0.21188 0.18816 0.0
H911 H 0.79706 0.17939 0.32048 0.0
H912 H 0.80574 0.16775 0.25887 0.0
H913 H 0.85292 0.21759 0.24357 0.0
H914 H 0.84469 0.22899 0.30635 0.0
H915 H 0.86058 0.1933 0.23618 0.0
H916 H 0.81505 0.20201 0.1744 0.0
H917 H 0.78536 0.19796 0.17105 0.0
H918 H 0.76363 0.14253 0.15858 0.0
H919 H 0.7932 0.14624 0.16231 0.0
C920 C 0.8747 0.17883 0.0368 0.0
C921 C 0.8671 0.1616 0.02108 0.0
C922 C 0.86808 0.18265 0.07402 0.0
C923 C 0.85373 0.16935 0.09638 0.0
C924 C 0.84583 0.15218 0.08041 0.0
C925 C 0.85252 0.1483 0.04321 0.0
C926 C 0.84719 0.17353 0.13663 0.0
C927 C 0.83012 0.17076 0.13706 0.0
C928 C 0.85823 0.18157 0.17302 0.0
C929 C 0.87613 0.18407 0.17532 0.0
C930 C 0.8789 0.16985 0.16948 0.0
C931 C 0.8958 0.17232 0.1714 0.0
C932 C 0.91003 0.18893 0.17946 0.0
C933 C 0.9074 0.20311 0.1856 0.0
C934 C 0.89054 0.20072 0.18363 0.0
C935 C 0.80926 0.18787 0.30386 0.0
C936 C 0.82019 0.20511 0.31824 0.0
C937 C 0.81418 0.18122 0.2685 0.0
C938 C 0.82989 0.19185 0.24605 0.0
C939 C 0.84076 0.2091 0.26034 0.0
C940 C 0.83602 0.21563 0.2962 0.0
C941 C 0.83526 0.18506 0.20811 0.0
C942 C 0.85213 0.18725 0.20817 0.0
C943 C 0.82406 0.17659 0.1721 0.0
C944 C 0.80632 0.17439 0.16906 0.0
C945 C 0.80393 0.18895 0.17115 0.0
C946 C 0.78713 0.18672 0.16916 0.0
C947 C 0.77262 0.16999 0.16473 0.0
C948 C 0.77488 0.15547 0.16206 0.0
C949 C 0.79166 0.15763 0.16406 0.0
H950 H 0.75962 0.16828 0.16328 0.0
H951 H 0.92309 0.19082 0.18109 0.0
H952 H 0.86616 0.73233 0.05733 0.0
H953 H 0.85797 0.71301 0.12101 0.0
H954 H 0.81471 0.67258 0.04833 0.0
H955 H 0.82222 0.69227 0.98589 0.0
H956 H 0.80352 0.67269 0.12216 0.0
H957 H 0.85455 0.67232 0.07392 0.0
H958 H 0.88525 0.68486 0.05084 0.0
H959 H 0.90253 0.70909 0.1767 0.0
H960 H 0.87191 0.69689 0.20035 0.0
H961 H 0.81358 0.61349 0.2954 0.0
H962 H 0.82412 0.63112 0.22868 0.0
H963 H 0.80267 0.66282 0.27315 0.0
H964 H 0.79179 0.64513 0.33915 0.0
H965 H 0.84602 0.66439 0.20999 0.0
H966 H 0.7852 0.67312 0.19032 0.0
H967 H 0.7536 0.65661 0.20628 0.0
H968 H 0.75449 0.6085 0.20264 0.0
H969 H 0.786 0.62469 0.18624 0.0
C970 C 0.85496 0.71929 0.05504 0.0
C971 C 0.84478 0.71379 0.01683 0.0
C972 C 0.85034 0.70819 0.09133 0.0
C973 C 0.83583 0.69117 0.08949 0.0
C974 C 0.8259 0.68563 0.05085 0.0
C975 C 0.83021 0.69688 0.0151 0.0
C976 C 0.83049 0.67937 0.12823 0.0
C977 C 0.81287 0.67089 0.14115 0.0
C978 C 0.8425 0.67657 0.1527 0.0
C979 C 0.86093 0.68381 0.13877 0.0
C980 C 0.8649 0.68041 0.09659 0.0
C981 C 0.88228 0.68745 0.08341 0.0
C982 C 0.89583 0.6978 0.11225 0.0
C983 C 0.89202 0.70109 0.15438 0.0
C984 C 0.87465 0.69409 0.16771 0.0
C985 C 0.81117 0.62427 0.29106 0.0
C986 C 0.80166 0.62776 0.32243 0.0
C987 C 0.81725 0.63436 0.25296 0.0
C988 C 0.81394 0.64811 0.2456 0.0
C989 C 0.80506 0.65204 0.27768 0.0
C990 C 0.79888 0.64192 0.3155 0.0
C991 C 0.81921 0.65808 0.20391 0.0
C992 C 0.83675 0.6662 0.19065 0.0
C993 C 0.80702 0.65997 0.17794 0.0
C994 C 0.788 0.65015 0.18748 0.0
C995 C 0.77863 0.65902 0.1928 0.0
C996 C 0.76074 0.64971 0.20197 0.0
C997 C 0.75205 0.63152 0.20565 0.0
C998 C 0.76123 0.62259 0.20002 0.0
C999 C 0.77911 0.63183 0.19086 0.0
H1000 H 0.73819 0.62434 0.21275 0.0
H1001 H 0.90928 0.70325 0.10198 0.0
H1002 H 0.95439 0.43744 0.36474 0.0
H1003 H 0.97276 0.45016 0.42917 0.0
H1004 H 0.96693 0.49561 0.41818 0.0
H1005 H 0.94833 0.48289 0.35352 0.0
H1006 H 0.00211 0.50314 0.4304 0.0
H1007 H 0.94592 0.46908 0.49641 0.0
H1008 H 0.91731 0.4427 0.50881 0.0
H1009 H 0.94279 0.4147 0.55085 0.0
H1010 H 0.97158 0.44084 0.53807 0.0
H1011 H 0.04618 0.53426 0.63636 0.0
H1012 H 0.02523 0.52588 0.57608 0.0
H1013 H 0.01752 0.47369 0.57864 0.0
H1014 H 0.03801 0.48177 0.63919 0.0
H1015 H 0.98725 0.47225 0.57315 0.0
H1016 H 0.04285 0.50436 0.4995 0.0
H1017 H 0.07184 0.52995 0.48494 0.0
H1018 H 0.048 0.5608 0.45562 0.0
H1019 H 0.01887 0.53544 0.47056 0.0
C1020 C 0.95693 0.45012 0.37602 0.0
C1021 C 0.94987 0.45914 0.35399 0.0
C1022 C 0.96739 0.45734 0.41294 0.0
C1023 C 0.97111 0.47377 0.42851 0.0
C1024 C 0.96417 0.48289 0.40664 0.0
C1025 C 0.95349 0.47556 0.36988 0.0
C1026 C 0.98252 0.48138 0.46724 0.0
C1027 C 0.99875 0.49662 0.46193 0.0
C1028 C 0.97821 0.47263 0.508 0.0
C1029 C 0.96092 0.4569 0.51597 0.0
C1030 C 0.94543 0.45726 0.50797 0.0
C1031 C 0.92918 0.44235 0.51513 0.0
C1032 C 0.92823 0.42702 0.53053 0.0
C1033 C 0.94355 0.42658 0.5389 0.0
C1034 C 0.95983 0.44144 0.53176 0.0
C1035 C 0.04006 0.52102 0.62395 0.0
C1036 C 0.04377 0.50869 0.64269 0.0
C1037 C 0.02812 0.51626 0.58943 0.0
C1038 C 0.01986 0.49917 0.57265 0.0
C1039 C 0.02365 0.48692 0.59116 0.0
C1040 C 0.03543 0.4916 0.62577 0.0
C1041 C 0.00711 0.4938 0.53613 0.0
C1042 C 0.99056 0.47895 0.54187 0.0
C1043 C 0.01122 0.50283 0.49568 0.0
C1044 C 0.02871 0.51807 0.48666 0.0
C1045 C 0.04381 0.51665 0.4903 0.0
C1046 C 0.06026 0.5311 0.48191 0.0
C1047 C 0.06177 0.54701 0.46951 0.0
C1048 C 0.04682 0.54848 0.46533 0.0
C1049 C 0.03033 0.53407 0.47373 0.0
H1050 H 0.07452 0.55818 0.46302 0.0
H1051 H 0.91564 0.4155 0.53605 0.0
H1052 H 0.51123 0.56168 0.62718 0.0
H1053 H 0.51653 0.54892 0.56228 0.0
H1054 H 0.46767 0.50126 0.5826 0.0
H1055 H 0.46209 0.51406 0.64773 0.0
H1056 H 0.49782 0.49699 0.56739 0.0
H1057 H 0.46811 0.52383 0.5022 0.0
H1058 H 0.46162 0.54749 0.48855 0.0
H1059 H 0.51344 0.57999 0.43818 0.0
H1060 H 0.52034 0.55662 0.45214 0.0
H1061 H 0.51518 0.46806 0.36233 0.0
H1062 H 0.50027 0.47399 0.42189 0.0
H1063 H 0.53926 0.52869 0.41685 0.0
H1064 H 0.55394 0.52301 0.35722 0.0
H1065 H 0.50782 0.525 0.42139 0.0
H1066 H 0.53905 0.50072 0.49706 0.0
H1067 H 0.54677 0.47804 0.51281 0.0
H1068 H 0.49329 0.44164 0.5448 0.0
H1069 H 0.48522 0.46407 0.52874 0.0
C1070 C 0.50154 0.54852 0.6178 0.0
C1071 C 0.48624 0.53887 0.64259 0.0
C1072 C 0.50457 0.54127 0.58063 0.0
C1073 C 0.49246 0.52419 0.56765 0.0
C1074 C 0.47714 0.51448 0.59216 0.0
C1075 C 0.47395 0.52184 0.62913 0.0
C1076 C 0.49627 0.51659 0.52894 0.0
C1077 C 0.49962 0.50281 0.53516 0.0
C1078 C 0.49888 0.52441 0.48723 0.0
C1079 C 0.49477 0.53849 0.47848 0.0
C1080 C 0.47817 0.53607 0.48852 0.0
C1081 C 0.47441 0.54942 0.48067 0.0
C1082 C 0.48712 0.56524 0.46258 0.0
C1083 C 0.50361 0.56773 0.4522 0.0
C1084 C 0.50744 0.55442 0.46002 0.0
C1085 C 0.52059 0.48133 0.37404 0.0
C1086 C 0.53575 0.49505 0.3549 0.0
C1087 C 0.51207 0.4847 0.40811 0.0
C1088 C 0.51868 0.50179 0.42392 0.0
C1089 C 0.53384 0.51542 0.40502 0.0
C1090 C 0.54227 0.51212 0.37095 0.0
C1091 C 0.50998 0.50577 0.46005 0.0
C1092 C 0.50568 0.5189 0.45334 0.0
C1093 C 0.50665 0.49743 0.50136 0.0
C1094 C 0.5115 0.48399 0.51118 0.0
C1095 C 0.52892 0.48783 0.50713 0.0
C1096 C 0.53336 0.47504 0.51618 0.0
C1097 C 0.52052 0.45839 0.52965 0.0
C1098 C 0.50321 0.45453 0.53427 0.0
C1099 C 0.4987 0.46728 0.52522 0.0
H1100 H 0.52398 0.4485 0.53663 0.0
H1101 H 0.48418 0.57557 0.45653 0.0
H1102 H 0.44421 0.96274 0.66358 0.0
H1103 H 0.45601 0.98259 0.60127 0.0
H1104 H 0.48926 0.96144 0.56928 0.0
H1105 H 0.47751 0.94143 0.63152 0.0
H1106 H 0.48925 0.00832 0.5798 0.0
H1107 H 0.49053 0.95977 0.45636 0.0
H1108 H 0.47572 0.92799 0.4432 0.0
H1109 H 0.42983 0.92144 0.50871 0.0
H1110 H 0.44428 0.95319 0.52172 0.0
H1111 H 0.5316 0.05309 0.38153 0.0
H1112 H 0.5237 0.03378 0.44539 0.0
H1113 H 0.47 0.00634 0.40279 0.0
H1114 H 0.47769 0.02549 0.33924 0.0
H1115 H 0.48153 0.98395 0.42981 0.0
H1116 H 0.48137 0.03558 0.48059 0.0
H1117 H 0.49431 0.06722 0.49319 0.0
H1118 H 0.53449 0.06736 0.57243 0.0
H1119 H 0.52191 0.03574 0.55976 0.0
C1120 C 0.45407 0.9623 0.64343 0.0
C1121 C 0.45982 0.95039 0.65248 0.0
C1122 C 0.46086 0.97375 0.60795 0.0
C1123 C 0.47343 0.97342 0.58055 0.0
C1124 C 0.47946 0.9618 0.58986 0.0
C1125 C 0.47273 0.95039 0.62549 0.0
C1126 C 0.47971 0.98485 0.54139 0.0
C1127 C 0.48768 0.003 0.54703 0.0
C1128 C 0.4775 0.9779 0.49862 0.0
C1129 C 0.46857 0.95882 0.49043 0.0
C1130 C 0.47726 0.95154 0.46782 0.0
C1131 C 0.46893 0.93354 0.4604 0.0
C1132 C 0.45187 0.92269 0.47525 0.0
C1133 C 0.44307 0.92984 0.49739 0.0
C1134 C 0.45133 0.94784 0.50483 0.0
C1135 C 0.51813 0.04289 0.38566 0.0
C1136 C 0.50527 0.0409 0.35537 0.0
C1137 C 0.51364 0.03191 0.42219 0.0
C1138 C 0.49626 0.01869 0.42883 0.0
C1139 C 0.48349 0.01644 0.3982 0.0
C1140 C 0.48792 0.02748 0.36201 0.0
C1141 C 0.49113 0.00741 0.46823 0.0
C1142 C 0.48335 0.98928 0.46263 0.0
C1143 C 0.49331 0.01437 0.51096 0.0
C1144 C 0.50082 0.03334 0.51882 0.0
C1145 C 0.49305 0.04239 0.5004 0.0
C1146 C 0.5003 0.06031 0.5076 0.0
C1147 C 0.51524 0.06931 0.53348 0.0
C1148 C 0.52293 0.06038 0.55232 0.0
C1149 C 0.51574 0.04246 0.54516 0.0
H1150 H 0.52084 0.08319 0.53902 0.0
H1151 H 0.44545 0.90876 0.46952 0.0
H1152 H 0.1743 0.24891 0.04921 0.0
H1153 H 0.1957 0.24006 0.02948 0.0
H1154 H 0.15588 0.18592 0.0433 0.0
H1155 H 0.13473 0.19458 0.06377 0.0
H1156 H 0.18485 0.19144 0.08138 0.0
H1157 H 0.16935 0.20683 0.94204 0.0
H1158 H 0.16704 0.22693 0.89006 0.0
H1159 H 0.22248 0.26164 0.89734 0.0
H1160 H 0.22508 0.24183 0.94981 0.0
H1161 H 0.19894 0.13732 0.94451 0.0
H1162 H 0.18948 0.15711 0.97177 0.0
H1163 H 0.24301 0.19885 0.97826 0.0
H1164 H 0.25279 0.17888 0.95131 0.0
H1165 H 0.21493 0.20605 0.93747 0.0
H1166 H 0.22987 0.18627 0.06786 0.0
H1167 H 0.2306 0.16424 0.11589 0.0
H1168 H 0.17457 0.13622 0.12255 0.0
H1169 H 0.17349 0.15794 0.07398 0.0
C1170 C 0.17016 0.23513 0.04805 0.0
C1171 C 0.15282 0.22244 0.05808 0.0
C1172 C 0.18238 0.2301 0.03669 0.0
C1173 C 0.17738 0.21232 0.03479 0.0
C1174 C 0.16008 0.19972 0.04484 0.0
C1175 C 0.14797 0.2047 0.0564 0.0
C1176 C 0.18984 0.20645 0.02214 0.0
C1177 C 0.19149 0.19472 0.04999 0.0
C1178 C 0.19895 0.21111 0.98176 0.0
C1179 C 0.19738 0.22298 0.95025 0.0
C1180 C 0.18102 0.21882 0.93282 0.0
C1181 C 0.17966 0.23015 0.90323 0.0
C1182 C 0.19459 0.24559 0.89053 0.0
C1183 C 0.21092 0.2497 0.9073 0.0
C1184 C 0.21234 0.23843 0.93695 0.0
C1185 C 0.20877 0.15071 0.95143 0.0
C1186 C 0.22664 0.15651 0.94592 0.0
C1187 C 0.20332 0.162 0.96704 0.0
C1188 C 0.21556 0.17936 0.97715 0.0
C1189 C 0.2334 0.18546 0.97057 0.0
C1190 C 0.23894 0.17404 0.95536 0.0
C1191 C 0.20929 0.19062 0.99605 0.0
C1192 C 0.20877 0.20327 0.96945 0.0
C1193 C 0.20103 0.1867 0.0374 0.0
C1194 C 0.20161 0.17371 0.0671 0.0
C1195 C 0.2177 0.17535 0.07932 0.0
C1196 C 0.21818 0.16292 0.10668 0.0
C1197 C 0.20264 0.14883 0.12223 0.0
C1198 C 0.1866 0.14715 0.11051 0.0
C1199 C 0.18605 0.15953 0.08311 0.0
H1200 H 0.20304 0.13921 0.14339 0.0
H1201 H 0.19351 0.25433 0.86761 0.0
H1202 H 0.82191 0.07677 0.965 0.0
H1203 H 0.801 0.04637 0.98457 0.0
H1204 H 0.83284 0.02945 0.91703 0.0
H1205 H 0.85335 0.05944 0.89657 0.0
H1206 H 0.79976 0.00763 0.90082 0.0
H1207 H 0.83453 0.03615 0.03104 0.0
H1208 H 0.84543 0.05821 0.08992 0.0
H1209 H 0.7928 0.04048 0.13174 0.0
H1210 H 0.78159 0.01844 0.07275 0.0
H1211 H 0.79831 0.93651 0.00038 0.0
H1212 H 0.8048 0.96535 0.97608 0.0
H1213 H 0.75835 0.95852 0.04038 0.0
H1214 H 0.75158 0.92925 0.0648 0.0
H1215 H 0.78996 0.99132 0.05794 0.0
H1216 H 0.75667 0.95765 0.93615 0.0
H1217 H 0.74742 0.93506 0.87895 0.0
H1218 H 0.79865 0.96216 0.82189 0.0
H1219 H 0.80831 0.98478 0.87912 0.0
C1220 C 0.82433 0.06652 0.95403 0.0
C1221 C 0.83935 0.07053 0.92944 0.0
C1222 C 0.8124 0.04917 0.96535 0.0
C1223 C 0.81543 0.03563 0.95263 0.0
C1224 C 0.83017 0.03964 0.92711 0.0
C1225 C 0.84196 0.05685 0.91559 0.0
C1226 C 0.8039 0.01729 0.96701 0.0
C1227 C 0.79756 0.00407 0.93517 0.0
C1228 C 0.80049 0.01262 0.01178 0.0
C1229 C 0.80723 0.02583 0.04719 0.0
C1230 C 0.82529 0.03705 0.05261 0.0
C1231 C 0.83152 0.04953 0.08602 0.0
C1232 C 0.81981 0.05079 0.11445 0.0
C1233 C 0.80185 0.03953 0.10962 0.0
C1234 C 0.79555 0.02704 0.07622 0.0
C1235 C 0.78939 0.94104 0.00931 0.0
C1236 C 0.77443 0.9306 0.03454 0.0
C1237 C 0.79309 0.95752 0.99519 0.0
C1238 C 0.78197 0.96398 0.00611 0.0
C1239 C 0.76703 0.95368 0.03148 0.0
C1240 C 0.76317 0.937 0.04526 0.0
C1241 C 0.78663 0.98178 0.99178 0.0
C1242 C 0.79165 0.99488 0.02355 0.0
C1243 C 0.78902 0.98637 0.94696 0.0
C1244 C 0.78323 0.9729 0.91206 0.0
C1245 C 0.766 0.95875 0.91155 0.0
C1246 C 0.76068 0.94594 0.8791 0.0
C1247 C 0.77244 0.94717 0.84682 0.0
C1248 C 0.78955 0.96123 0.84689 0.0
C1249 C 0.79495 0.97407 0.87929 0.0
H1250 H 0.7683 0.93723 0.82174 0.0
H1251 H 0.82466 0.06045 0.1403 0.0
H1252 H 0.92299 0.76424 0.06155 0.0
H1253 H 0.9532 0.77426 0.08262 0.0
H1254 H 0.96747 0.77689 0.94665 0.0
H1255 H 0.93721 0.7666 0.92526 0.0
H1256 H 0.98499 0.7653 0.99747 0.0
H1257 H 0.97345 0.81301 0.99804 0.0
H1258 H 0.95763 0.82833 0.01865 0.0
H1259 H 0.969 0.82578 0.15419 0.0
H1260 H 0.98469 0.81021 0.1344 0.0
H1261 H 0.07519 0.83169 0.00799 0.0
H1262 H 0.04409 0.81251 0.99298 0.0
H1263 H 0.03267 0.8114 0.13061 0.0
H1264 H 0.06367 0.83064 0.14588 0.0
H1265 H 0.01334 0.82066 0.08193 0.0
H1266 H 0.02751 0.77505 0.07927 0.0
H1267 H 0.0438 0.76044 0.05668 0.0
H1268 H 0.0283 0.75986 0.92323 0.0
H1269 H 0.0121 0.77469 0.94492 0.0
C1270 C 0.93249 0.76673 0.03611 0.0
C1271 C 0.92774 0.76486 0.99169 0.0
C1272 C 0.94976 0.77247 0.04822 0.0
C1273 C 0.96264 0.77661 0.01616 0.0
C1274 C 0.95775 0.77382 0.97191 0.0
C1275 C 0.94045 0.768 0.95975 0.0
C1276 C 0.98135 0.78513 0.02852 0.0
C1277 C 0.99125 0.77747 0.01567 0.0
C1278 C 0.98944 0.80087 0.05281 0.0
C1279 C 0.98007 0.81028 0.06478 0.0
C1280 C 0.97246 0.8156 0.03227 0.0
C1281 C 0.96353 0.82434 0.04379 0.0
C1282 C 0.96227 0.82798 0.08771 0.0
C1283 C 0.96996 0.82292 0.12019 0.0
C1284 C 0.97888 0.81414 0.10884 0.0
C1285 C 0.0661 0.82712 0.03516 0.0
C1286 C 0.0719 0.83283 0.07809 0.0
C1287 C 0.04832 0.81609 0.02654 0.0
C1288 C 0.03606 0.81051 0.0607 0.0
C1289 C 0.04191 0.81558 0.10377 0.0
C1290 C 0.05965 0.82657 0.11242 0.0
C1291 C 0.01706 0.80082 0.05113 0.0
C1292 C 0.00709 0.80836 0.06424 0.0
C1293 C 0.00901 0.78508 0.02685 0.0
C1294 C 0.01871 0.77613 0.01369 0.0
C1295 C 0.02769 0.77194 0.04505 0.0
C1296 C 0.03689 0.76359 0.03242 0.0
C1297 C 0.03712 0.75926 0.98854 0.0
C1298 C 0.02812 0.76323 0.95721 0.0
C1299 C 0.01891 0.77159 0.96966 0.0
H1300 H 0.04425 0.7528 0.97882 0.0
H1301 H 0.95536 0.83476 0.09657 0.0
H1302 H 0.87174 0.79955 0.99622 0.0
H1303 H 0.85368 0.81203 0.01759 0.0
H1304 H 0.8117 0.77431 0.93669 0.0
H1305 H 0.83001 0.76242 0.91341 0.0
H1306 H 0.81351 0.80349 0.92557 0.0
H1307 H 0.81128 0.77134 0.05191 0.0
H1308 H 0.82252 0.76126 0.11235 0.0
H1309 H 0.84982 0.81326 0.16486 0.0
H1310 H 0.83894 0.82371 0.10436 0.0
H1311 H 0.76266 0.82804 0.09635 0.0
H1312 H 0.77571 0.81049 0.07466 0.0
H1313 H 0.8084 0.85012 0.98136 0.0
H1314 H 0.79502 0.86747 0.00189 0.0
H1315 H 0.80739 0.8161 0.08075 0.0
H1316 H 0.81628 0.8324 0.8939 0.0
H1317 H 0.8007 0.83799 0.83475 0.0
H1318 H 0.75246 0.80959 0.90549 0.0
H1319 H 0.76768 0.80366 0.96469 0.0
C1320 C 0.85864 0.79386 0.98309 0.0
C1321 C 0.85227 0.77985 0.95344 0.0
C1322 C 0.84827 0.80095 0.99556 0.0
C1323 C 0.83117 0.79393 0.9794 0.0
C1324 C 0.82481 0.77994 0.94975 0.0
C1325 C 0.83528 0.77304 0.9367 0.0
C1326 C 0.82014 0.80149 0.99244 0.0
C1327 C 0.81216 0.80619 0.95953 0.0
C1328 C 0.81784 0.80455 0.03682 0.0
C1329 C 0.8244 0.79834 0.07338 0.0
C1330 C 0.81978 0.78065 0.07617 0.0
C1331 C 0.82608 0.77487 0.11046 0.0
C1332 C 0.83691 0.78662 0.14237 0.0
C1333 C 0.84144 0.80418 0.1401 0.0
C1334 C 0.8352 0.81004 0.10584 0.0
C1335 C 0.77244 0.83292 0.07078 0.0
C1336 C 0.77767 0.84907 0.05052 0.0
C1337 C 0.77998 0.82291 0.05864 0.0
C1338 C 0.7929 0.82889 0.02606 0.0
C1339 C 0.79821 0.84507 0.00599 0.0
C1340 C 0.79061 0.85502 0.01792 0.0
C1341 C 0.80122 0.81848 0.01381 0.0
C1342 C 0.80869 0.81328 0.04684 0.0
C1343 C 0.80243 0.81431 0.96971 0.0
C1344 C 0.79318 0.81773 0.93393 0.0
C1345 C 0.80234 0.82729 0.89674 0.0
C1346 C 0.79357 0.83054 0.86321 0.0
C1347 C 0.77561 0.8242 0.8664 0.0
C1348 C 0.76638 0.81456 0.90308 0.0
C1349 C 0.77508 0.81128 0.93666 0.0
H1350 H 0.76885 0.82673 0.84041 0.0
H1351 H 0.84177 0.78212 0.1689 0.0
H1352 H 0.17462 0.93408 0.07363 0.0
H1353 H 0.19041 0.96494 0.0544 0.0
H1354 H 0.14798 0.9573 0.9702 0.0
H1355 H 0.13234 0.92614 0.98802 0.0
H1356 H 0.17762 0.9788 0.9327 0.0
H1357 H 0.15298 0.97476 0.07405 0.0
H1358 H 0.14652 0.966 0.15149 0.0
H1359 H 0.20124 0.99517 0.18195 0.0
H1360 H 0.20805 0.00392 0.10453 0.0
H1361 H 0.20732 0.07508 0.99778 0.0
H1362 H 0.19157 0.04391 0.01476 0.0
H1363 H 0.22691 0.03642 0.93223 0.0
H1364 H 0.24227 0.06742 0.91377 0.0
H1365 H 0.19908 0.02243 0.05283 0.0
H1366 H 0.20589 0.9971 0.88277 0.0
H1367 H 0.20882 0.00587 0.80516 0.0
H1368 H 0.18347 0.03553 0.83179 0.0
H1369 H 0.18018 0.02676 0.90939 0.0
C1370 C 0.16871 0.93885 0.05053 0.0
C1371 C 0.1522 0.92761 0.03233 0.0
C1372 C 0.17771 0.95658 0.03987 0.0
C1373 C 0.17025 0.96352 0.01148 0.0
C1374 C 0.15398 0.95225 0.99228 0.0
C1375 C 0.14504 0.93445 0.00257 0.0
C1376 C 0.17928 0.98258 0.00256 0.0
C1377 C 0.18233 0.98834 0.95896 0.0
C1378 C 0.18507 0.99505 0.03679 0.0
C1379 C 0.18103 0.98986 0.08341 0.0
C1380 C 0.16364 0.9792 0.0972 0.0
C1381 C 0.15992 0.97426 0.1411 0.0
C1382 C 0.17346 0.97999 0.1716 0.0
C1383 C 0.19076 0.99072 0.15828 0.0
C1384 C 0.19456 0.99569 0.1144 0.0
C1385 C 0.21181 0.06682 0.98342 0.0
C1386 C 0.22603 0.07374 0.9543 0.0
C1387 C 0.2028 0.049 0.99321 0.0
C1388 C 0.20787 0.03775 0.97424 0.0
C1389 C 0.22251 0.04476 0.94652 0.0
C1390 C 0.23139 0.06255 0.9363 0.0
C1391 C 0.19768 0.01867 0.98296 0.0
C1392 C 0.19442 0.0129 0.02654 0.0
C1393 C 0.19121 0.00621 0.94869 0.0
C1394 C 0.19296 0.01141 0.90197 0.0
C1395 C 0.20089 0.00545 0.87202 0.0
C1396 C 0.20262 0.01043 0.82804 0.0
C1397 C 0.19639 0.0213 0.81359 0.0
C1398 C 0.18835 0.02717 0.84305 0.0
C1399 C 0.18657 0.02221 0.88705 0.0
H1400 H 0.19776 0.02515 0.77954 0.0
H1401 H 0.17055 0.97615 0.20558 0.0
H1402 H 0.92382 0.1343 0.00499 0.0
H1403 H 0.95444 0.15109 0.02714 0.0
H1404 H 0.96238 0.19244 0.93853 0.0
H1405 H 0.93206 0.17546 0.91495 0.0
H1406 H 0.98819 0.18708 0.93091 0.0
H1407 H 0.95976 0.1963 0.05058 0.0
H1408 H 0.93809 0.1883 0.10968 0.0
H1409 H 0.95899 0.15964 0.1745 0.0
H1410 H 0.9806 0.16721 0.1153 0.0
H1411 H 0.06424 0.23972 0.09828 0.0
H1412 H 0.03374 0.22728 0.07661 0.0
H1413 H 0.03838 0.19045 0.99303 0.0
H1414 H 0.0691 0.20335 0.01304 0.0
H1415 H 0.00639 0.19706 0.08674 0.0
H1416 H 0.01267 0.18045 0.90518 0.0
H1417 H 0.03438 0.19229 0.84553 0.0
H1418 H 0.05802 0.24327 0.90391 0.0
H1419 H 0.0363 0.2318 0.96352 0.0
C1420 C 0.93206 0.14701 0.99039 0.0
C1421 C 0.92543 0.1536 0.95848 0.0
C1422 C 0.94955 0.15664 0.00324 0.0
C1423 C 0.96068 0.17315 0.98491 0.0
C1424 C 0.95405 0.17976 0.95318 0.0
C1425 C 0.93663 0.17007 0.93999 0.0
C1426 C 0.97935 0.18329 0.99789 0.0
C1427 C 0.99216 0.18929 0.96499 0.0
C1428 C 0.98457 0.18667 0.04229 0.0
C1429 C 0.97171 0.1822 0.07827 0.0
C1430 C 0.95966 0.18819 0.07728 0.0
C1431 C 0.94739 0.18374 0.11082 0.0
C1432 C 0.94714 0.17344 0.1458 0.0
C1433 C 0.95919 0.1676 0.14735 0.0
C1434 C 0.97146 0.17198 0.11382 0.0
C1435 C 0.05887 0.22915 0.07482 0.0
C1436 C 0.0692 0.22272 0.05686 0.0
C1437 C 0.04136 0.22194 0.06273 0.0
C1438 C 0.0338 0.20808 0.03272 0.0
C1439 C 0.04401 0.20141 0.01546 0.0
C1440 C 0.06157 0.20875 0.0271 0.0
C1441 C 0.0152 0.20044 0.01978 0.0
C1442 C 0.00241 0.19491 0.05267 0.0
C1443 C 0.01002 0.19812 0.9753 0.0
C1444 C 0.02294 0.20521 0.93905 0.0
C1445 C 0.02244 0.1942 0.90516 0.0
C1446 C 0.03476 0.20085 0.87138 0.0
C1447 C 0.0476 0.21851 0.871 0.0
C1448 C 0.0481 0.22958 0.90431 0.0
C1449 C 0.0358 0.22301 0.93813 0.0
H1450 H 0.05715 0.22362 0.84487 0.0
H1451 H 0.93762 0.17 0.17174 0.0
H1452 H 0.80376 0.53157 0.39773 0.0
H1453 H 0.82376 0.52144 0.37769 0.0
H1454 H 0.86579 0.57473 0.36604 0.0
H1455 H 0.84553 0.58512 0.38542 0.0
H1456 H 0.86622 0.55496 0.29901 0.0
H1457 H 0.86513 0.55066 0.45309 0.0
H1458 H 0.85238 0.54368 0.52717 0.0
H1459 H 0.82413 0.48912 0.49476 0.0
H1460 H 0.83649 0.49578 0.42025 0.0
H1461 H 0.91524 0.50813 0.27509 0.0
H1462 H 0.90708 0.52912 0.30363 0.0
H1463 H 0.85313 0.48825 0.30865 0.0
H1464 H 0.86099 0.46744 0.27981 0.0
H1465 H 0.86709 0.50851 0.3883 0.0
H1466 H 0.86457 0.51525 0.22931 0.0
H1467 H 0.87795 0.52291 0.15591 0.0
H1468 H 0.91507 0.57435 0.20125 0.0
H1469 H 0.90202 0.56689 0.27512 0.0
C1470 C 0.81725 0.54121 0.39111 0.0
C1471 C 0.82307 0.55917 0.39348 0.0
C1472 C 0.82872 0.53537 0.37984 0.0
C1473 C 0.84637 0.54732 0.3713 0.0
C1474 C 0.85225 0.5653 0.37289 0.0
C1475 C 0.84068 0.5712 0.38401 0.0
C1476 C 0.85826 0.54063 0.35976 0.0
C1477 C 0.86681 0.54514 0.31907 0.0
C1478 C 0.85913 0.52789 0.386 0.0
C1479 C 0.85172 0.52375 0.43096 0.0
C1480 C 0.85613 0.53718 0.46166 0.0
C1481 C 0.84897 0.53328 0.50375 0.0
C1482 C 0.83745 0.51597 0.51566 0.0
C1483 C 0.83308 0.50253 0.4855 0.0
C1484 C 0.84018 0.50635 0.44335 0.0
C1485 C 0.90164 0.50369 0.2821 0.0
C1486 C 0.88876 0.48614 0.27523 0.0
C1487 C 0.89703 0.51567 0.29833 0.0
C1488 C 0.87953 0.51015 0.30835 0.0
C1489 C 0.86671 0.4927 0.30128 0.0
C1490 C 0.87124 0.48085 0.2846 0.0
C1491 C 0.87419 0.52222 0.32684 0.0
C1492 C 0.86693 0.51873 0.36895 0.0
C1493 C 0.87472 0.536 0.30219 0.0
C1494 C 0.88249 0.54044 0.25782 0.0
C1495 C 0.87569 0.52813 0.22372 0.0
C1496 C 0.88319 0.53245 0.18202 0.0
C1497 C 0.8974 0.54908 0.17396 0.0
C1498 C 0.9041 0.56145 0.20756 0.0
C1499 C 0.89665 0.55719 0.24934 0.0
H1500 H 0.90318 0.5524 0.14165 0.0
H1501 H 0.83192 0.51298 0.54826 0.0
H1502 H 0.49452 0.41099 0.29122 0.0
H1503 H 0.47366 0.38047 0.30982 0.0
H1504 H 0.51168 0.36584 0.27244 0.0
H1505 H 0.53227 0.39596 0.25303 0.0
H1506 H 0.48063 0.34265 0.24275 0.0
H1507 H 0.50429 0.37282 0.3812 0.0
H1508 H 0.50988 0.39512 0.43723 0.0
H1509 H 0.45473 0.37505 0.45091 0.0
H1510 H 0.44883 0.35274 0.39455 0.0
H1511 H 0.47385 0.27388 0.36685 0.0
H1512 H 0.48165 0.30276 0.33959 0.0
H1513 H 0.42924 0.2923 0.36382 0.0
H1514 H 0.42111 0.26294 0.39083 0.0
H1515 H 0.45917 0.32679 0.39532 0.0
H1516 H 0.43642 0.29227 0.26635 0.0
H1517 H 0.43236 0.26959 0.21307 0.0
H1518 H 0.48717 0.29774 0.18327 0.0
H1519 H 0.49163 0.32046 0.23688 0.0
C1520 C 0.49836 0.40122 0.28675 0.0
C1521 C 0.51508 0.40591 0.27079 0.0
C1522 C 0.48645 0.38381 0.2975 0.0
C1523 C 0.49115 0.37088 0.29282 0.0
C1524 C 0.50771 0.37555 0.27615 0.0
C1525 C 0.51952 0.39284 0.26523 0.0
C1526 C 0.47929 0.3525 0.30628 0.0
C1527 C 0.47588 0.3392 0.27607 0.0
C1528 C 0.47259 0.34794 0.34939 0.0
C1529 C 0.47614 0.36129 0.3833 0.0
C1530 C 0.49337 0.37326 0.39593 0.0
C1531 C 0.49659 0.38588 0.42778 0.0
C1532 C 0.48267 0.38654 0.4475 0.0
C1533 C 0.4655 0.37455 0.43553 0.0
C1534 C 0.46221 0.36191 0.40365 0.0
C1535 C 0.46392 0.27765 0.36651 0.0
C1536 C 0.44684 0.26611 0.38096 0.0
C1537 C 0.46841 0.29415 0.3508 0.0
C1538 C 0.45599 0.29957 0.3495 0.0
C1539 C 0.43897 0.28828 0.36454 0.0
C1540 C 0.43436 0.27155 0.37978 0.0
C1541 C 0.46124 0.31714 0.33223 0.0
C1542 C 0.46342 0.33025 0.36165 0.0
C1543 C 0.46698 0.32158 0.28851 0.0
C1544 C 0.46436 0.30804 0.25581 0.0
C1545 C 0.44764 0.29357 0.24866 0.0
C1546 C 0.44526 0.28071 0.21836 0.0
C1547 C 0.4595 0.28222 0.19483 0.0
C1548 C 0.47615 0.2966 0.2015 0.0
C1549 C 0.4786 0.30949 0.23179 0.0
H1550 H 0.45764 0.27224 0.1714 0.0
H1551 H 0.48519 0.39633 0.47214 0.0
H1552 H 0.58853 0.07853 0.30876 0.0
H1553 H 0.6187 0.0879 0.32941 0.0
H1554 H 0.63698 0.11699 0.20894 0.0
H1555 H 0.60692 0.10736 0.18759 0.0
H1556 H 0.65682 0.10305 0.23031 0.0
H1557 H 0.63446 0.13645 0.30384 0.0
H1558 H 0.61386 0.14016 0.35085 0.0
H1559 H 0.62544 0.11624 0.45817 0.0
H1560 H 0.64597 0.11219 0.41157 0.0
H1561 H 0.73894 0.17618 0.27872 0.0
H1562 H 0.70921 0.1544 0.25866 0.0
H1563 H 0.70086 0.13173 0.3877 0.0
H1564 H 0.73056 0.15387 0.40849 0.0
H1565 H 0.67562 0.13783 0.36727 0.0
H1566 H 0.7026 0.10968 0.29469 0.0
H1567 H 0.72419 0.10809 0.24671 0.0
H1568 H 0.70491 0.12356 0.13659 0.0
H1569 H 0.68336 0.1255 0.184 0.0
C1570 C 0.59895 0.08668 0.28632 0.0
C1571 C 0.59534 0.09242 0.24683 0.0
C1572 C 0.61619 0.09204 0.29821 0.0
C1573 C 0.63012 0.10342 0.2711 0.0
C1574 C 0.62646 0.10825 0.23044 0.0
C1575 C 0.60924 0.10279 0.21838 0.0
C1576 C 0.64847 0.11167 0.28655 0.0
C1577 C 0.66097 0.11067 0.26024 0.0
C1578 C 0.65384 0.12133 0.32604 0.0
C1579 C 0.64157 0.12382 0.3541 0.0
C1580 C 0.63251 0.13187 0.33738 0.0
C1581 C 0.62087 0.13405 0.36395 0.0
C1582 C 0.6183 0.12839 0.40743 0.0
C1583 C 0.62741 0.12058 0.42446 0.0
C1584 C 0.63905 0.11834 0.39799 0.0
C1585 C 0.7309 0.1664 0.30269 0.0
C1586 C 0.73708 0.16685 0.34534 0.0
C1587 C 0.7139 0.15385 0.29104 0.0
C1588 C 0.70281 0.1413 0.32154 0.0
C1589 C 0.70919 0.14127 0.36361 0.0
C1590 C 0.72617 0.15392 0.37542 0.0
C1591 C 0.68411 0.12945 0.31079 0.0
C1592 C 0.67151 0.12986 0.33791 0.0
C1593 C 0.67874 0.11938 0.27191 0.0
C1594 C 0.6914 0.11782 0.24301 0.0
C1595 C 0.70301 0.11282 0.26028 0.0
C1596 C 0.71524 0.11186 0.23317 0.0
C1597 C 0.71595 0.11576 0.18865 0.0
C1598 C 0.70435 0.12055 0.17109 0.0
C1599 C 0.6921 0.12154 0.19806 0.0
H1600 H 0.72546 0.11505 0.16774 0.0
H1601 H 0.60928 0.13009 0.42795 0.0
H1602 H 0.54219 0.13372 0.30963 0.0
H1603 H 0.52729 0.14935 0.33305 0.0
H1604 H 0.47739 0.1029 0.31117 0.0
H1605 H 0.49227 0.08755 0.28616 0.0
H1606 H 0.47583 0.12854 0.27944 0.0
H1607 H 0.49492 0.11881 0.41682 0.0
H1608 H 0.51559 0.119 0.47128 0.0
H1609 H 0.54543 0.17501 0.46537 0.0
H1610 H 0.52506 0.17514 0.4104 0.0
H1611 H 0.42714 0.15943 0.40312 0.0
H1612 H 0.44186 0.14309 0.38431 0.0
H1613 H 0.48893 0.19129 0.35418 0.0
H1614 H 0.47417 0.20773 0.37195 0.0
H1615 H 0.4912 0.1645 0.41433 0.0
H1616 H 0.47046 0.17224 0.27307 0.0
H1617 H 0.44761 0.17012 0.22298 0.0
H1618 H 0.41808 0.11464 0.24307 0.0
H1619 H 0.44066 0.11648 0.29386 0.0
C1620 C 0.52804 0.12684 0.31014 0.0
C1621 C 0.51839 0.10946 0.29568 0.0
C1622 C 0.51952 0.13575 0.32374 0.0
C1623 C 0.50117 0.12728 0.32434 0.0
C1624 C 0.49155 0.10978 0.31076 0.0
C1625 C 0.50007 0.101 0.29636 0.0
C1626 C 0.49199 0.13682 0.33734 0.0
C1627 C 0.47907 0.13617 0.30931 0.0
C1628 C 0.49626 0.14698 0.37608 0.0
C1629 C 0.50855 0.14697 0.40915 0.0
C1630 C 0.50597 0.13116 0.42687 0.0
C1631 C 0.51762 0.13121 0.45788 0.0
C1632 C 0.53184 0.147 0.47169 0.0
C1633 C 0.53442 0.16278 0.4546 0.0
C1634 C 0.52281 0.1628 0.42354 0.0
C1635 C 0.4406 0.16656 0.39259 0.0
C1636 C 0.4495 0.18486 0.38902 0.0
C1637 C 0.44898 0.15721 0.3818 0.0
C1638 C 0.46645 0.16604 0.36807 0.0
C1639 C 0.47544 0.1843 0.36489 0.0
C1640 C 0.46696 0.19362 0.37476 0.0
C1641 C 0.47528 0.15617 0.35636 0.0
C1642 C 0.48806 0.15678 0.38463 0.0
C1643 C 0.47063 0.14566 0.31844 0.0
C1644 C 0.45715 0.14453 0.28763 0.0
C1645 C 0.45902 0.15961 0.26714 0.0
C1646 C 0.44614 0.15846 0.23855 0.0
C1647 C 0.43138 0.14226 0.22995 0.0
C1648 C 0.42951 0.12718 0.24982 0.0
C1649 C 0.44235 0.12827 0.27848 0.0
H1650 H 0.42142 0.14139 0.20781 0.0
H1651 H 0.54084 0.14702 0.49571 0.0
H1652 H 0.7909 0.25424 0.32168 0.0
H1653 H 0.80804 0.2844 0.29556 0.0
H1654 H 0.84129 0.29769 0.40916 0.0
H1655 H 0.82446 0.26762 0.43498 0.0
H1656 H 0.81377 0.31434 0.32843 0.0
H1657 H 0.8826 0.32833 0.38351 0.0
H1658 H 0.89847 0.31222 0.39322 0.0
H1659 H 0.86507 0.27412 0.29881 0.0
H1660 H 0.84919 0.29015 0.28799 0.0
H1661 H 0.87093 0.40508 0.33327 0.0
H1662 H 0.85502 0.37414 0.35279 0.0
H1663 H 0.88034 0.36287 0.24727 0.0
H1664 H 0.89666 0.39388 0.22834 0.0
H1665 H 0.87835 0.34423 0.31566 0.0
H1666 H 0.83816 0.3552 0.23715 0.0
H1667 H 0.82178 0.37026 0.21973 0.0
H1668 H 0.79717 0.35657 0.34598 0.0
H1669 H 0.81358 0.34162 0.36439 0.0
C1670 C 0.80189 0.2636 0.341 0.0
C1671 C 0.80644 0.25852 0.38016 0.0
C1672 C 0.81165 0.28082 0.32608 0.0
C1673 C 0.8261 0.29324 0.35008 0.0
C1674 C 0.83044 0.28825 0.3896 0.0
C1675 C 0.82078 0.27105 0.40436 0.0
C1676 C 0.83651 0.31151 0.33432 0.0
C1677 C 0.82788 0.32086 0.32555 0.0
C1678 C 0.85489 0.31992 0.32962 0.0
C1679 C 0.86461 0.31037 0.33526 0.0
C1680 C 0.8787 0.31657 0.36465 0.0
C1681 C 0.8877 0.30744 0.37037 0.0
C1682 C 0.88275 0.29213 0.34674 0.0
C1683 C 0.86886 0.28595 0.31719 0.0
C1684 C 0.85985 0.29505 0.31128 0.0
C1685 C 0.8732 0.39603 0.31442 0.0
C1686 C 0.88498 0.4019 0.27914 0.0
C1687 C 0.86403 0.37833 0.32546 0.0
C1688 C 0.86623 0.36612 0.30097 0.0
C1689 C 0.87839 0.37204 0.26655 0.0
C1690 C 0.8877 0.38977 0.25576 0.0
C1691 C 0.85564 0.34718 0.3108 0.0
C1692 C 0.86423 0.3377 0.31844 0.0
C1693 C 0.83717 0.33851 0.31329 0.0
C1694 C 0.82721 0.34741 0.30227 0.0
C1695 C 0.82934 0.3555 0.26131 0.0
C1696 C 0.82004 0.364 0.25124 0.0
C1697 C 0.80847 0.36441 0.28176 0.0
C1698 C 0.80614 0.35626 0.32238 0.0
C1699 C 0.81543 0.34775 0.33263 0.0
H1700 H 0.80128 0.371 0.27391 0.0
H1701 H 0.88971 0.28507 0.35128 0.0
H1702 H 0.59791 0.47093 0.33491 0.0
H1703 H 0.62843 0.48857 0.357 0.0
H1704 H 0.63259 0.53235 0.28428 0.0
H1705 H 0.60245 0.51453 0.26025 0.0
H1706 H 0.65964 0.53047 0.26869 0.0
H1707 H 0.6307 0.53016 0.39986 0.0
H1708 H 0.60981 0.51761 0.46102 0.0
H1709 H 0.63477 0.48918 0.50372 0.0
H1710 H 0.65566 0.50137 0.44243 0.0
H1711 H 0.73638 0.5778 0.43753 0.0
H1712 H 0.7057 0.56546 0.41735 0.0
H1713 H 0.71153 0.53389 0.31847 0.0
H1714 H 0.74232 0.54649 0.33772 0.0
H1715 H 0.67949 0.5334 0.42191 0.0
H1716 H 0.68539 0.52802 0.23288 0.0
H1717 H 0.70615 0.54456 0.17369 0.0
H1718 H 0.7269 0.59149 0.2503 0.0
H1719 H 0.70617 0.57529 0.30962 0.0
C1720 C 0.60528 0.48436 0.32389 0.0
C1721 C 0.59766 0.49135 0.29606 0.0
C1722 C 0.62273 0.49448 0.33675 0.0
C1723 C 0.63279 0.51191 0.32286 0.0
C1724 C 0.62513 0.51896 0.29549 0.0
C1725 C 0.60779 0.50876 0.28201 0.0
C1726 C 0.6515 0.52257 0.33538 0.0
C1727 C 0.66394 0.53113 0.30224 0.0
C1728 C 0.65716 0.52391 0.3793 0.0
C1729 C 0.64466 0.51657 0.41632 0.0
C1730 C 0.63166 0.52113 0.42211 0.0
C1731 C 0.61983 0.5141 0.45683 0.0
C1732 C 0.62094 0.50258 0.48618 0.0
C1733 C 0.63391 0.4981 0.48093 0.0
C1734 C 0.64577 0.50508 0.44624 0.0
C1735 C 0.73121 0.56842 0.41107 0.0
C1736 C 0.74183 0.56323 0.38898 0.0
C1737 C 0.71363 0.56129 0.39979 0.0
C1738 C 0.70635 0.54886 0.36618 0.0
C1739 C 0.71694 0.54368 0.34403 0.0
C1740 C 0.73453 0.55085 0.35519 0.0
C1741 C 0.68756 0.54087 0.35508 0.0
C1742 C 0.67513 0.5328 0.38844 0.0
C1743 C 0.68187 0.54055 0.31165 0.0
C1744 C 0.69432 0.55038 0.27587 0.0
C1745 C 0.69434 0.54188 0.23701 0.0
C1746 C 0.70612 0.55119 0.20345 0.0
C1747 C 0.71788 0.56905 0.20827 0.0
C1748 C 0.71786 0.57764 0.24663 0.0
C1749 C 0.70611 0.56839 0.28027 0.0
H1750 H 0.72699 0.57624 0.18225 0.0
H1751 H 0.61176 0.49714 0.51304 0.0
H1752 H 0.56291 0.83944 0.52507 0.0
H1753 H 0.5536 0.85985 0.54867 0.0
H1754 H 0.57199 0.85963 0.67936 0.0
H1755 H 0.58104 0.83887 0.65615 0.0
H1756 H 0.53956 0.853 0.6814 0.0
H1757 H 0.59174 0.89673 0.6143 0.0
H1758 H 0.61399 0.91044 0.55643 0.0
H1759 H 0.57581 0.91092 0.47051 0.0
H1760 H 0.55325 0.89698 0.52764 0.0
H1761 H 0.50771 0.90809 0.74945 0.0
H1762 H 0.52976 0.89997 0.73252 0.0
H1763 H 0.51403 0.89269 0.59697 0.0
H1764 H 0.49218 0.90106 0.6134 0.0
H1765 H 0.54927 0.90664 0.60489 0.0
H1766 H 0.49671 0.85847 0.66711 0.0
H1767 H 0.47402 0.84409 0.72378 0.0
H1768 H 0.51326 0.85171 0.81801 0.0
H1769 H 0.53621 0.86634 0.76196 0.0
C1770 C 0.56527 0.84395 0.55867 0.0
C1771 C 0.57257 0.83739 0.58882 0.0
C1772 C 0.56004 0.85574 0.57207 0.0
C1773 C 0.56218 0.86138 0.61576 0.0
C1774 C 0.57021 0.85547 0.64548 0.0
C1775 C 0.57539 0.84361 0.63214 0.0
C1776 C 0.5543 0.87183 0.63123 0.0
C1777 C 0.54206 0.86499 0.66536 0.0
C1778 C 0.55722 0.88725 0.60971 0.0
C1779 C 0.57076 0.8957 0.57523 0.0
C1780 C 0.58805 0.89964 0.58297 0.0
C1781 C 0.60072 0.90747 0.5503 0.0
C1782 C 0.59631 0.91152 0.5098 0.0
C1783 C 0.57921 0.90778 0.5019 0.0
C1784 C 0.56648 0.89993 0.53445 0.0
C1785 C 0.50914 0.90505 0.71589 0.0
C1786 C 0.498 0.90496 0.68288 0.0
C1787 C 0.52174 0.90039 0.70629 0.0
C1788 C 0.52332 0.89544 0.66363 0.0
C1789 C 0.513 0.89643 0.63014 0.0
C1790 C 0.50044 0.90113 0.63966 0.0
C1791 C 0.53444 0.88763 0.65448 0.0
C1792 C 0.54716 0.89489 0.62148 0.0
C1793 C 0.53197 0.87254 0.67691 0.0
C1794 C 0.51818 0.86368 0.71053 0.0
C1795 C 0.5005 0.85719 0.7 0.0
C1796 C 0.4876 0.84898 0.73199 0.0
C1797 C 0.4922 0.84704 0.77451 0.0
C1798 C 0.50971 0.85326 0.78509 0.0
C1799 C 0.52268 0.86151 0.75323 0.0
H1800 H 0.48219 0.84067 0.79922 0.0
H1801 H 0.60614 0.91758 0.48455 0.0
H1802 H 0.17137 0.74719 0.7149 0.0
H1803 H 0.15066 0.71752 0.73886 0.0
H1804 H 0.14093 0.70039 0.60439 0.0
H1805 H 0.16134 0.73016 0.58006 0.0
H1806 H 0.11132 0.68338 0.65281 0.0
H1807 H 0.17098 0.69633 0.66399 0.0
H1808 H 0.2017 0.7132 0.68787 0.0
H1809 H 0.18538 0.70437 0.82234 0.0
H1810 H 0.15452 0.68764 0.79922 0.0
H1811 H 0.09022 0.59449 0.67601 0.0
H1812 H 0.10111 0.62516 0.65806 0.0
H1813 H 0.1088 0.6383 0.79532 0.0
H1814 H 0.09812 0.6077 0.81357 0.0
H1815 H 0.13786 0.65782 0.74933 0.0
H1816 H 0.07775 0.64167 0.73634 0.0
H1817 H 0.04736 0.62426 0.71043 0.0
H1818 H 0.06458 0.63818 0.57755 0.0
H1819 H 0.09512 0.65549 0.6026 0.0
C1820 C 0.16462 0.73718 0.69036 0.0
C1821 C 0.1682 0.74097 0.6456 0.0
C1822 C 0.1528 0.72022 0.70413 0.0
C1823 C 0.14453 0.70668 0.67345 0.0
C1824 C 0.14721 0.71063 0.62863 0.0
C1825 C 0.15894 0.72765 0.61479 0.0
C1826 C 0.1344 0.68823 0.68811 0.0
C1827 C 0.11711 0.67773 0.6737 0.0
C1828 C 0.1419 0.68094 0.71591 0.0
C1829 C 0.16044 0.69091 0.72988 0.0
C1830 C 0.17394 0.6981 0.69865 0.0
C1831 C 0.19137 0.70762 0.71204 0.0
C1832 C 0.19549 0.7099 0.7566 0.0
C1833 C 0.18217 0.70262 0.78785 0.0
C1834 C 0.16471 0.69312 0.77462 0.0
C1835 C 0.09392 0.60384 0.70246 0.0
C1836 C 0.09347 0.59867 0.74621 0.0
C1837 C 0.10006 0.62138 0.69213 0.0
C1838 C 0.10574 0.63403 0.72536 0.0
C1839 C 0.10451 0.62875 0.76917 0.0
C1840 C 0.09838 0.61124 0.77953 0.0
C1841 C 0.11469 0.65289 0.71422 0.0
C1842 C 0.13189 0.66347 0.72902 0.0
C1843 C 0.10712 0.66014 0.68655 0.0
C1844 C 0.08876 0.64977 0.67135 0.0
C1845 C 0.07508 0.64091 0.70156 0.0
C1846 C 0.05782 0.63108 0.68703 0.0
C1847 C 0.05405 0.63008 0.64237 0.0
C1848 C 0.06753 0.63896 0.61214 0.0
C1849 C 0.08481 0.6488 0.6265 0.0
H1850 H 0.04068 0.62247 0.63119 0.0
H1851 H 0.20899 0.71727 0.76691 0.0
H1852 H 0.40522 0.49109 0.71843 0.0
H1853 H 0.37502 0.4693 0.69984 0.0
H1854 H 0.35718 0.50249 0.75561 0.0
H1855 H 0.38702 0.52393 0.7752 0.0
H1856 H 0.33553 0.46988 0.77693 0.0
H1857 H 0.36459 0.50098 0.64278 0.0
H1858 H 0.38706 0.51047 0.58508 0.0
H1859 H 0.37035 0.45695 0.55471 0.0
H1860 H 0.3479 0.44715 0.61262 0.0
H1861 H 0.26518 0.46503 0.66474 0.0
H1862 H 0.29381 0.47231 0.6927 0.0
H1863 H 0.28743 0.42406 0.64101 0.0
H1864 H 0.25836 0.41649 0.61298 0.0
H1865 H 0.32033 0.45536 0.62033 0.0
H1866 H 0.28595 0.42546 0.74459 0.0
H1867 H 0.2629 0.41764 0.79995 0.0
H1868 H 0.28925 0.47038 0.84774 0.0
H1869 H 0.31232 0.4786 0.79223 0.0
C1870 C 0.39482 0.49364 0.72703 0.0
C1871 C 0.39852 0.50929 0.74804 0.0
C1872 C 0.37758 0.4812 0.7163 0.0
C1873 C 0.36384 0.48433 0.72593 0.0
C1874 C 0.36753 0.49973 0.74797 0.0
C1875 C 0.38465 0.51204 0.75898 0.0
C1876 C 0.34565 0.47221 0.71159 0.0
C1877 C 0.33221 0.46664 0.74271 0.0
C1878 C 0.3413 0.46746 0.66714 0.0
C1879 C 0.35475 0.47335 0.63235 0.0
C1880 C 0.3658 0.49125 0.62399 0.0
C1881 C 0.37851 0.49668 0.59123 0.0
C1882 C 0.38017 0.48432 0.56635 0.0
C1883 C 0.36908 0.4665 0.57409 0.0
C1884 C 0.35636 0.46101 0.60685 0.0
C1885 C 0.26977 0.45589 0.65938 0.0
C1886 C 0.25952 0.44019 0.63661 0.0
C1887 C 0.28611 0.46004 0.6756 0.0
C1888 C 0.29263 0.44864 0.66924 0.0
C1889 C 0.28253 0.43296 0.64639 0.0
C1890 C 0.26597 0.42865 0.63054 0.0
C1891 C 0.31033 0.45383 0.68542 0.0
C1892 C 0.32366 0.45808 0.65472 0.0
C1893 C 0.3146 0.45756 0.7302 0.0
C1894 C 0.30086 0.45265 0.7641 0.0
C1895 C 0.28679 0.43542 0.76673 0.0
C1896 C 0.27372 0.43091 0.79817 0.0
C1897 C 0.27461 0.44351 0.82733 0.0
C1898 C 0.28859 0.46063 0.82516 0.0
C1899 C 0.30169 0.46522 0.79376 0.0
H1900 H 0.26447 0.44 0.85162 0.0
H1901 H 0.39002 0.48855 0.541 0.0
H1902 H 0.16043 0.43103 0.55987 0.0
H1903 H 0.14468 0.44674 0.57389 0.0
H1904 H 0.17758 0.47177 0.68583 0.0
H1905 H 0.19359 0.4564 0.67153 0.0
H1906 H 0.12578 0.44816 0.63926 0.0
H1907 H 0.18642 0.51332 0.69341 0.0
H1908 H 0.21814 0.52996 0.67927 0.0
H1909 H 0.21022 0.50524 0.55376 0.0
H1910 H 0.17845 0.48864 0.56688 0.0
H1911 H 0.10112 0.50124 0.75486 0.0
H1912 H 0.1143 0.48434 0.72938 0.0
H1913 H 0.13593 0.51854 0.61785 0.0
H1914 H 0.12296 0.53577 0.64368 0.0
H1915 H 0.15966 0.51274 0.65314 0.0
H1916 H 0.10092 0.47712 0.60654 0.0
H1917 H 0.06883 0.46093 0.61363 0.0
H1918 H 0.07211 0.42722 0.70963 0.0
H1919 H 0.10425 0.44339 0.70364 0.0
C1920 C 0.1642 0.43976 0.58771 0.0
C1921 C 0.17832 0.44256 0.61444 0.0
C1922 C 0.15519 0.44873 0.59566 0.0
C1923 C 0.16015 0.46065 0.63043 0.0
C1924 C 0.17377 0.46291 0.65824 0.0
C1925 C 0.18285 0.45404 0.65016 0.0
C1926 C 0.15139 0.47105 0.63717 0.0
C1927 C 0.13317 0.46228 0.64223 0.0
C1928 C 0.16098 0.48951 0.63978 0.0
C1929 C 0.18007 0.49963 0.63133 0.0
C1930 C 0.19144 0.5115 0.66271 0.0
C1931 C 0.20944 0.52091 0.65489 0.0
C1932 C 0.2162 0.51862 0.6157 0.0
C1933 C 0.20498 0.50696 0.58417 0.0
C1934 C 0.18698 0.49753 0.59181 0.0
C1935 C 0.10853 0.5051 0.72467 0.0
C1936 C 0.11089 0.51977 0.70109 0.0
C1937 C 0.11603 0.49538 0.71008 0.0
C1938 C 0.12588 0.50001 0.67135 0.0
C1939 C 0.12832 0.5147 0.64776 0.0
C1940 C 0.12089 0.52451 0.6625 0.0
C1941 C 0.13411 0.48982 0.65654 0.0
C1942 C 0.15224 0.49863 0.64993 0.0
C1943 C 0.12437 0.47144 0.65142 0.0
C1944 C 0.10502 0.46156 0.65485 0.0
C1945 C 0.09481 0.46633 0.62938 0.0
C1946 C 0.07661 0.45715 0.63318 0.0
C1947 C 0.06844 0.44307 0.66211 0.0
C1948 C 0.07846 0.43813 0.68724 0.0
C1949 C 0.09667 0.44729 0.68362 0.0
H1950 H 0.05435 0.43598 0.66501 0.0
H1951 H 0.23013 0.52591 0.60972 0.0
H1952 H 0.46194 0.59331 0.66944 0.0
H1953 H 0.47817 0.62399 0.64708 0.0
H1954 H 0.51655 0.63441 0.74735 0.0
H1955 H 0.50065 0.60374 0.76912 0.0
H1956 H 0.48558 0.65285 0.68819 0.0
H1957 H 0.55633 0.66644 0.71488 0.0
H1958 H 0.57265 0.65057 0.71132 0.0
H1959 H 0.53532 0.6142 0.61978 0.0
H1960 H 0.51893 0.62999 0.62228 0.0
H1961 H 0.543 0.7444 0.6851 0.0
H1962 H 0.52796 0.71357 0.70643 0.0
H1963 H 0.54687 0.70107 0.58949 0.0
H1964 H 0.56231 0.73182 0.56877 0.0
H1965 H 0.54892 0.68327 0.65382 0.0
H1966 H 0.50438 0.69388 0.59824 0.0
H1967 H 0.48711 0.70873 0.59322 0.0
H1968 H 0.47046 0.69494 0.72652 0.0
H1969 H 0.48782 0.6802 0.7325 0.0
C1970 C 0.4739 0.60212 0.68651 0.0
C1971 C 0.48009 0.59608 0.7208 0.0
C1972 C 0.48313 0.61966 0.67382 0.0
C1973 C 0.49867 0.63148 0.69523 0.0
C1974 C 0.50478 0.62548 0.72976 0.0
C1975 C 0.49565 0.60793 0.74221 0.0
C1976 C 0.50838 0.65012 0.68192 0.0
C1977 C 0.49943 0.6595 0.68066 0.0
C1978 C 0.52639 0.65875 0.6714 0.0
C1979 C 0.53631 0.64931 0.66914 0.0
C1980 C 0.55165 0.6551 0.69385 0.0
C1981 C 0.56091 0.64611 0.69203 0.0
C1982 C 0.555 0.63135 0.66545 0.0
C1983 C 0.53985 0.62559 0.64048 0.0
C1984 C 0.53057 0.63455 0.64212 0.0
C1985 C 0.54402 0.73508 0.66411 0.0
C1986 C 0.55382 0.74053 0.62525 0.0
C1987 C 0.53535 0.71745 0.67621 0.0
C1988 C 0.53607 0.70494 0.64924 0.0
C1989 C 0.54614 0.71045 0.61087 0.0
C1990 C 0.55495 0.72806 0.59904 0.0
C1991 C 0.52616 0.68606 0.66044 0.0
C1992 C 0.53508 0.67664 0.66142 0.0
C1993 C 0.50801 0.67727 0.66946 0.0
C1994 C 0.49753 0.68609 0.66594 0.0
C1995 C 0.49713 0.69413 0.62657 0.0
C1996 C 0.48731 0.7025 0.62354 0.0
C1997 C 0.47773 0.70282 0.65956 0.0
C1998 C 0.47791 0.69471 0.69866 0.0
C1999 C 0.48773 0.68633 0.70189 0.0
H2000 H 0.47013 0.70931 0.65715 0.0
H2001 H 0.56217 0.6244 0.66414 0.0
H2002 H 0.26905 0.828 0.55109 0.0
H2003 H 0.29998 0.84314 0.5703 0.0
H2004 H 0.28862 0.80922 0.68196 0.0
H2005 H 0.25762 0.79373 0.66231 0.0
H2006 H 0.31759 0.86162 0.63758 0.0
H2007 H 0.32253 0.80243 0.70095 0.0
H2008 H 0.30851 0.77065 0.68852 0.0
H2009 H 0.29435 0.77712 0.5583 0.0
H2010 H 0.30848 0.80894 0.56976 0.0
H2011 H 0.39488 0.88997 0.75915 0.0
H2012 H 0.36474 0.8751 0.73354 0.0
H2013 H 0.37905 0.85377 0.62464 0.0
H2014 H 0.40935 0.86851 0.65047 0.0
H2015 H 0.34943 0.82933 0.66111 0.0
H2016 H 0.37152 0.88753 0.60952 0.0
H2017 H 0.3865 0.91965 0.6149 0.0
H2018 H 0.34815 0.91583 0.70737 0.0
H2019 H 0.33309 0.88367 0.70307 0.0
C2020 C 0.2731 0.8238 0.57988 0.0
C2021 C 0.26088 0.80965 0.60519 0.0
C2022 C 0.2908 0.83248 0.59081 0.0
C2023 C 0.29667 0.82721 0.62727 0.0
C2024 C 0.28445 0.81332 0.65318 0.0
C2025 C 0.26672 0.80453 0.64206 0.0
C2026 C 0.31559 0.8363 0.63804 0.0
C2027 C 0.32454 0.85455 0.64273 0.0
C2028 C 0.32478 0.82715 0.64382 0.0
C2029 C 0.31642 0.80804 0.63641 0.0
C2030 C 0.31648 0.79707 0.66962 0.0
C2031 C 0.30851 0.77905 0.66275 0.0
C2032 C 0.3005 0.77187 0.6227 0.0
C2033 C 0.3005 0.78269 0.58937 0.0
C2034 C 0.30847 0.80072 0.59605 0.0
C2035 C 0.39169 0.88226 0.72952 0.0
C2036 C 0.40455 0.88056 0.70659 0.0
C2037 C 0.37443 0.87376 0.71492 0.0
C2038 C 0.36967 0.8635 0.67687 0.0
C2039 C 0.38245 0.86165 0.65405 0.0
C2040 C 0.39975 0.87012 0.66875 0.0
C2041 C 0.35131 0.85458 0.66138 0.0
C2042 C 0.34247 0.83639 0.65588 0.0
C2043 C 0.34232 0.86383 0.65381 0.0
C2044 C 0.35126 0.88318 0.65624 0.0
C2045 C 0.36635 0.89354 0.63124 0.0
C2046 C 0.37485 0.91175 0.63407 0.0
C2047 C 0.3683 0.91977 0.66153 0.0
C2048 C 0.35322 0.90959 0.68614 0.0
C2049 C 0.34468 0.89137 0.6835 0.0
H2050 H 0.3749 0.93387 0.66367 0.0
H2051 H 0.29432 0.75791 0.61745 0.0
loop_
_geom_bond_atom_site_label_1
_geom_bond_atom_site_label_2
_geom_bond_distance
_geom_bond_site_symmetry_2
_ccdc_geom_bond_type
Mg0 O1 2.028 . S
Mg0 O7 1.986 . S
Mg0 O9 2.114 . S
Mg0 O10 2.251 . S
Mg0 O13 2.010 . S
O1 Mg0 2.028 . S
O1 C4 1.250 . S
O2 Mg3 2.028 . S
O2 C4 1.248 . S
Mg3 O2 2.028 . S
Mg3 O8 2.032 . S
Mg3 O10 2.079 . S
C4 O1 1.250 . S
C4 O2 1.248 . S
C5 O6 1.264 . S
C5 O13 1.249 . S
O6 C5 1.264 . S
O7 Mg0 1.986 . S
O7 C11 1.246 . S
O8 Mg3 2.032 . S
O8 C11 1.259 . S
O9 Mg0 2.114 . S
O9 C12 1.252 . S
O10 Mg0 2.251 . S
O10 Mg3 2.079 . S
O10 C12 1.273 . S
C11 O7 1.246 . S
C11 O8 1.259 . S
C12 O9 1.252 . S
C12 O10 1.273 . S
O13 Mg0 2.010 . S
O13 C5 1.249 . S
Mg14 O15 2.028 . S
Mg14 O21 1.986 . S
Mg14 O23 2.114 . S
Mg14 O24 2.251 . S
Mg14 O27 2.010 . S
O15 Mg14 2.028 . S
O15 C18 1.250 . S
O16 Mg17 2.028 . S
O16 C18 1.248 . S
Mg17 O16 2.028 . S
Mg17 O22 2.032 . S
Mg17 O24 2.079 . S
C18 O15 1.250 . S
C18 O16 1.248 . S
C19 O20 1.264 . S
C19 O27 1.249 . S
O20 C19 1.264 . S
O21 Mg14 1.986 . S
O21 C25 1.246 . S
O22 Mg17 2.032 . S
O22 C25 1.259 . S
O23 Mg14 2.114 . S
O23 C26 1.252 . S
O24 Mg14 2.251 . S
O24 Mg17 2.079 . S
O24 C26 1.273 . S
C25 O21 1.246 . S
C25 O22 1.259 . S
C26 O23 1.252 . S
C26 O24 1.273 . S
O27 Mg14 2.010 . S
O27 C19 1.249 . S
Mg28 O29 2.028 . S
Mg28 O35 1.986 . S
Mg28 O37 2.114 . S
Mg28 O38 2.251 . S
Mg28 O41 2.010 . S
O29 Mg28 2.028 . S
O29 C32 1.250 . S
O30 Mg31 2.028 . S
O30 C32 1.248 . S
Mg31 O30 2.028 . S
Mg31 O36 2.032 . S
Mg31 O38 2.079 . S
C32 O29 1.250 . S
C32 O30 1.248 . S
C33 O34 1.264 . S
C33 O41 1.249 . S
O34 C33 1.264 . S
O35 Mg28 1.986 . S
O35 C39 1.246 . S
O36 Mg31 2.032 . S
O36 C39 1.259 . S
O37 Mg28 2.114 . S
O37 C40 1.252 . S
O38 Mg28 2.251 . S
O38 Mg31 2.079 . S
O38 C40 1.273 . S
C39 O35 1.246 . S
C39 O36 1.259 . S
C40 O37 1.252 . S
C40 O38 1.273 . S
O41 Mg28 2.010 . S
O41 C33 1.249 . S
Mg42 O43 2.028 . S
Mg42 O49 1.986 . S
Mg42 O51 2.114 . S
Mg42 O52 2.251 . S
Mg42 O55 2.010 . S
O43 Mg42 2.028 . S
O43 C46 1.250 . S
O44 Mg45 2.028 . S
O44 C46 1.248 . S
Mg45 O44 2.028 . S
Mg45 O50 2.032 . S
Mg45 O52 2.079 . S
C46 O43 1.250 . S
C46 O44 1.248 . S
C47 O48 1.264 . S
C47 O55 1.249 . S
O48 C47 1.264 . S
O49 Mg42 1.986 . S
O49 C53 1.246 . S
O50 Mg45 2.032 . S
O50 C53 1.259 . S
O51 Mg42 2.114 . S
O51 C54 1.252 . S
O52 Mg42 2.251 . S
O52 Mg45 2.079 . S
O52 C54 1.273 . S
C53 O49 1.246 . S
C53 O50 1.259 . S
C54 O51 1.252 . S
C54 O52 1.273 . S
O55 Mg42 2.010 . S
O55 C47 1.249 . S
Mg56 O57 2.028 . S
Mg56 O63 1.986 . S
Mg56 O65 2.114 . S
Mg56 O66 2.251 . S
Mg56 O69 2.010 . S
O57 Mg56 2.028 . S
O57 C60 1.250 . S
O58 Mg59 2.028 . S
O58 C60 1.248 . S
Mg59 O58 2.028 . S
Mg59 O64 2.032 . S
Mg59 O66 2.079 . S
C60 O57 1.250 . S
C60 O58 1.248 . S
C61 O62 1.264 . S
C61 O69 1.249 . S
O62 C61 1.264 . S
O63 Mg56 1.986 . S
O63 C67 1.246 . S
O64 Mg59 2.032 . S
O64 C67 1.259 . S
O65 Mg56 2.114 . S
O65 C68 1.252 . S
O66 Mg56 2.251 . S
O66 Mg59 2.079 . S
O66 C68 1.273 . S
C67 O63 1.246 . S
C67 O64 1.259 . S
C68 O65 1.252 . S
C68 O66 1.273 . S
O69 Mg56 2.010 . S
O69 C61 1.249 . S
Mg70 O71 2.028 . S
Mg70 O77 1.986 . S
Mg70 O79 2.114 . S
Mg70 O80 2.251 . S
Mg70 O83 2.010 . S
O71 Mg70 2.028 . S
O71 C74 1.250 . S
O72 Mg73 2.028 . S
O72 C74 1.248 . S
Mg73 O72 2.028 . S
Mg73 O78 2.032 . S
Mg73 O80 2.079 . S
C74 O71 1.250 . S
C74 O72 1.248 . S
C75 O76 1.264 . S
C75 O83 1.249 . S
O76 C75 1.264 . S
O77 Mg70 1.986 . S
O77 C81 1.246 . S
O78 Mg73 2.032 . S
O78 C81 1.259 . S
O79 Mg70 2.114 . S
O79 C82 1.252 . S
O80 Mg70 2.251 . S
O80 Mg73 2.079 . S
O80 C82 1.273 . S
C81 O77 1.246 . S
C81 O78 1.259 . S
C82 O79 1.252 . S
C82 O80 1.273 . S
O83 Mg70 2.010 . S
O83 C75 1.249 . S
Mg84 O85 2.028 . S
Mg84 O91 1.986 . S
Mg84 O93 2.114 . S
Mg84 O94 2.251 . S
Mg84 O97 2.010 . S
O85 Mg84 2.028 . S
O85 C88 1.250 . S
O86 Mg87 2.028 . S
O86 C88 1.248 . S
Mg87 O86 2.028 . S
Mg87 O92 2.032 . S
Mg87 O94 2.079 . S
C88 O85 1.250 . S
C88 O86 1.248 . S
C89 O90 1.264 . S
C89 O97 1.249 . S
O90 C89 1.264 . S
O91 Mg84 1.986 . S
O91 C95 1.246 . S
O92 Mg87 2.032 . S
O92 C95 1.259 . S
O93 Mg84 2.114 . S
O93 C96 1.252 . S
O94 Mg84 2.251 . S
O94 Mg87 2.079 . S
O94 C96 1.273 . S
C95 O91 1.246 . S
C95 O92 1.259 . S
C96 O93 1.252 . S
C96 O94 1.273 . S
O97 Mg84 2.010 . S
O97 C89 1.249 . S
Mg98 O99 2.028 . S
Mg98 O105 1.986 . S
Mg98 O107 2.114 . S
Mg98 O108 2.251 . S
Mg98 O111 2.010 . S
O99 Mg98 2.028 . S
O99 C102 1.250 . S
O100 Mg101 2.028 . S
O100 C102 1.248 . S
Mg101 O100 2.028 . S
Mg101 O106 2.032 . S
Mg101 O108 2.079 . S
C102 O99 1.250 . S
C102 O100 1.248 . S
C103 O104 1.264 . S
C103 O111 1.249 . S
O104 C103 1.264 . S
O105 Mg98 1.986 . S
O105 C109 1.246 . S
O106 Mg101 2.032 . S
O106 C109 1.259 . S
O107 Mg98 2.114 . S
O107 C110 1.252 . S
O108 Mg98 2.251 . S
O108 Mg101 2.079 . S
O108 C110 1.273 . S
C109 O105 1.246 . S
C109 O106 1.259 . S
C110 O107 1.252 . S
C110 O108 1.273 . S
O111 Mg98 2.010 . S
O111 C103 1.249 . S
Mg112 O113 2.028 . S
Mg112 O119 1.986 . S
Mg112 O121 2.114 . S
Mg112 O122 2.251 . S
Mg112 O125 2.010 . S
O113 Mg112 2.028 . S
O113 C116 1.250 . S
O114 Mg115 2.028 . S
O114 C116 1.248 . S
Mg115 O114 2.028 . S
Mg115 O120 2.032 . S
Mg115 O122 2.079 . S
C116 O113 1.250 . S
C116 O114 1.248 . S
C117 O118 1.264 . S
C117 O125 1.249 . S
O118 C117 1.264 . S
O119 Mg112 1.986 . S
O119 C123 1.246 . S
O120 Mg115 2.032 . S
O120 C123 1.259 . S
O121 Mg112 2.114 . S
O121 C124 1.252 . S
O122 Mg112 2.251 . S
O122 Mg115 2.079 . S
O122 C124 1.273 . S
C123 O119 1.246 . S
C123 O120 1.259 . S
C124 O121 1.252 . S
C124 O122 1.273 . S
O125 Mg112 2.010 . S
O125 C117 1.249 . S
Mg126 O127 2.028 . S
Mg126 O133 1.986 . S
Mg126 O135 2.114 . S
Mg126 O136 2.251 . S
Mg126 O139 2.010 . S
O127 Mg126 2.028 . S
O127 C130 1.250 . S
O128 Mg129 2.028 . S
O128 C130 1.248 . S
Mg129 O128 2.028 . S
Mg129 O134 2.032 . S
Mg129 O136 2.079 . S
C130 O127 1.250 . S
C130 O128 1.248 . S
C131 O132 1.264 . S
C131 O139 1.249 . S
O132 C131 1.264 . S
O133 Mg126 1.986 . S
O133 C137 1.246 . S
O134 Mg129 2.032 . S
O134 C137 1.259 . S
O135 Mg126 2.114 . S
O135 C138 1.252 . S
O136 Mg126 2.251 . S
O136 Mg129 2.079 . S
O136 C138 1.273 . S
C137 O133 1.246 . S
C137 O134 1.259 . S
C138 O135 1.252 . S
C138 O136 1.273 . S
O139 Mg126 2.010 . S
O139 C131 1.249 . S
Mg140 O141 2.028 . S
Mg140 O147 1.986 . S
Mg140 O149 2.114 . S
Mg140 O150 2.251 . S
Mg140 O153 2.010 . S
O141 Mg140 2.028 . S
O141 C144 1.250 . S
O142 Mg143 2.028 . S
O142 C144 1.248 . S
Mg143 O142 2.028 . S
Mg143 O148 2.032 . S
Mg143 O150 2.079 . S
C144 O141 1.250 . S
C144 O142 1.248 . S
C145 O146 1.264 . S
C145 O153 1.249 . S
O146 C145 1.264 . S
O147 Mg140 1.986 . S
O147 C151 1.246 . S
O148 Mg143 2.032 . S
O148 C151 1.259 . S
O149 Mg140 2.114 . S
O149 C152 1.252 . S
O150 Mg140 2.251 . S
O150 Mg143 2.079 . S
O150 C152 1.273 . S
C151 O147 1.246 . S
C151 O148 1.259 . S
C152 O149 1.252 . S
C152 O150 1.273 . S
O153 Mg140 2.010 . S
O153 C145 1.249 . S
Mg154 O155 2.028 . S
Mg154 O161 1.986 . S
Mg154 O163 2.114 . S
Mg154 O164 2.251 . S
Mg154 O167 2.010 . S
O155 Mg154 2.028 . S
O155 C158 1.250 . S
O156 Mg157 2.028 . S
O156 C158 1.248 . S
Mg157 O156 2.028 . S
Mg157 O162 2.032 . S
Mg157 O164 2.079 . S
C158 O155 1.250 . S
C158 O156 1.248 . S
C159 O160 1.264 . S
C159 O167 1.249 . S
O160 C159 1.264 . S
O161 Mg154 1.986 . S
O161 C165 1.246 . S
O162 Mg157 2.032 . S
O162 C165 1.259 . S
O163 Mg154 2.114 . S
O163 C166 1.252 . S
O164 Mg154 2.251 . S
O164 Mg157 2.079 . S
O164 C166 1.273 . S
C165 O161 1.246 . S
C165 O162 1.259 . S
C166 O163 1.252 . S
C166 O164 1.273 . S
O167 Mg154 2.010 . S
O167 C159 1.249 . S
Mg168 O169 2.028 . S
Mg168 O175 1.986 . S
Mg168 O177 2.114 . S
Mg168 O178 2.251 . S
Mg168 O181 2.010 . S
O169 Mg168 2.028 . S
O169 C172 1.250 . S
O170 Mg171 2.028 . S
O170 C172 1.248 . S
Mg171 O170 2.028 . S
Mg171 O176 2.032 . S
Mg171 O178 2.079 . S
C172 O169 1.250 . S
C172 O170 1.248 . S
C173 O174 1.264 . S
C173 O181 1.249 . S
O174 C173 1.264 . S
O175 Mg168 1.986 . S
O175 C179 1.246 . S
O176 Mg171 2.032 . S
O176 C179 1.259 . S
O177 Mg168 2.114 . S
O177 C180 1.252 . S
O178 Mg168 2.251 . S
O178 Mg171 2.079 . S
O178 C180 1.273 . S
C179 O175 1.246 . S
C179 O176 1.259 . S
C180 O177 1.252 . S
C180 O178 1.273 . S
O181 Mg168 2.010 . S
O181 C173 1.249 . S
Mg182 O183 2.028 . S
Mg182 O189 1.986 . S
Mg182 O191 2.114 . S
Mg182 O192 2.251 . S
Mg182 O195 2.010 . S
O183 Mg182 2.028 . S
O183 C186 1.250 . S
O184 Mg185 2.028 . S
O184 C186 1.248 . S
Mg185 O184 2.028 . S
Mg185 O190 2.032 . S
Mg185 O192 2.079 . S
C186 O183 1.250 . S
C186 O184 1.248 . S
C187 O188 1.264 . S
C187 O195 1.249 . S
O188 C187 1.264 . S
O189 Mg182 1.986 . S
O189 C193 1.246 . S
O190 Mg185 2.032 . S
O190 C193 1.259 . S
O191 Mg182 2.114 . S
O191 C194 1.252 . S
O192 Mg182 2.251 . S
O192 Mg185 2.079 . S
O192 C194 1.273 . S
C193 O189 1.246 . S
C193 O190 1.259 . S
C194 O191 1.252 . S
C194 O192 1.273 . S
O195 Mg182 2.010 . S
O195 C187 1.249 . S
Mg196 O197 2.028 . S
Mg196 O203 1.986 . S
Mg196 O205 2.114 . S
Mg196 O206 2.251 . S
Mg196 O209 2.010 . S
O197 Mg196 2.028 . S
O197 C200 1.250 . S
O198 Mg199 2.028 . S
O198 C200 1.248 . S
Mg199 O198 2.028 . S
Mg199 O204 2.032 . S
Mg199 O206 2.079 . S
C200 O197 1.250 . S
C200 O198 1.248 . S
C201 O202 1.264 . S
C201 O209 1.249 . S
O202 C201 1.264 . S
O203 Mg196 1.986 . S
O203 C207 1.246 . S
O204 Mg199 2.032 . S
O204 C207 1.259 . S
O205 Mg196 2.114 . S
O205 C208 1.252 . S
O206 Mg196 2.251 . S
O206 Mg199 2.079 . S
O206 C208 1.273 . S
C207 O203 1.246 . S
C207 O204 1.259 . S
C208 O205 1.252 . S
C208 O206 1.273 . S
O209 Mg196 2.010 . S
O209 C201 1.249 . S
Mg210 O211 2.028 . S
Mg210 O217 1.986 . S
Mg210 O219 2.114 . S
Mg210 O220 2.251 . S
Mg210 O223 2.010 . S
O211 Mg210 2.028 . S
O211 C214 1.250 . S
O212 Mg213 2.028 . S
O212 C214 1.248 . S
Mg213 O212 2.028 . S
Mg213 O218 2.032 . S
Mg213 O220 2.079 . S
C214 O211 1.250 . S
C214 O212 1.248 . S
C215 O216 1.264 . S
C215 O223 1.249 . S
O216 C215 1.264 . S
O217 Mg210 1.986 . S
O217 C221 1.246 . S
O218 Mg213 2.032 . S
O218 C221 1.259 . S
O219 Mg210 2.114 . S
O219 C222 1.252 . S
O220 Mg210 2.251 . S
O220 Mg213 2.079 . S
O220 C222 1.273 . S
C221 O217 1.246 . S
C221 O218 1.259 . S
C222 O219 1.252 . S
C222 O220 1.273 . S
O223 Mg210 2.010 . S
O223 C215 1.249 . S
Mg224 O225 2.028 . S
Mg224 O231 1.986 . S
Mg224 O233 2.114 . S
Mg224 O234 2.251 . S
Mg224 O237 2.010 . S
O225 Mg224 2.028 . S
O225 C228 1.250 . S
O226 Mg227 2.028 . S
O226 C228 1.248 . S
Mg227 O226 2.028 . S
Mg227 O232 2.032 . S
Mg227 O234 2.079 . S
C228 O225 1.250 . S
C228 O226 1.248 . S
C229 O230 1.264 . S
C229 O237 1.249 . S
O230 C229 1.264 . S
O231 Mg224 1.986 . S
O231 C235 1.246 . S
O232 Mg227 2.032 . S
O232 C235 1.259 . S
O233 Mg224 2.114 . S
O233 C236 1.252 . S
O234 Mg224 2.251 . S
O234 Mg227 2.079 . S
O234 C236 1.273 . S
C235 O231 1.246 . S
C235 O232 1.259 . S
C236 O233 1.252 . S
C236 O234 1.273 . S
O237 Mg224 2.010 . S
O237 C229 1.249 . S
Mg238 O239 2.028 . S
Mg238 O245 1.986 . S
Mg238 O247 2.114 . S
Mg238 O248 2.251 . S
Mg238 O251 2.010 . S
O239 Mg238 2.028 . S
O239 C242 1.250 . S
O240 Mg241 2.028 . S
O240 C242 1.248 . S
Mg241 O240 2.028 . S
Mg241 O246 2.032 . S
Mg241 O248 2.079 . S
C242 O239 1.250 . S
C242 O240 1.248 . S
C243 O244 1.264 . S
C243 O251 1.249 . S
O244 C243 1.264 . S
O245 Mg238 1.986 . S
O245 C249 1.246 . S
O246 Mg241 2.032 . S
O246 C249 1.259 . S
O247 Mg238 2.114 . S
O247 C250 1.252 . S
O248 Mg238 2.251 . S
O248 Mg241 2.079 . S
O248 C250 1.273 . S
C249 O245 1.246 . S
C249 O246 1.259 . S
C250 O247 1.252 . S
C250 O248 1.273 . S
O251 Mg238 2.010 . S
O251 C243 1.249 . S
H252 C270 0.951 . S
H253 C272 0.951 . S
H254 C274 0.950 . S
H255 C275 0.950 . S
H256 C277 0.950 . S
H257 C280 0.950 . S
H258 C281 0.950 . S
H259 C283 0.950 . S
H260 C284 0.950 . S
H261 C285 0.951 . S
H262 C287 0.951 . S
H263 C289 0.950 . S
H264 C290 0.950 . S
H265 C292 0.950 . S
H266 C295 0.950 . S
H267 C296 0.950 . S
H268 C298 0.950 . S
H269 C299 0.950 . S
C270 H252 0.951 . S
C270 C271 1.366 . S
C270 C272 1.388 . S
C271 C270 1.366 . S
C271 C275 1.385 . S
C272 H253 0.951 . S
C272 C270 1.388 . S
C272 C273 1.366 . S
C273 C272 1.366 . S
C273 C274 1.414 . S
C273 C276 1.499 . S
C274 H254 0.950 . S
C274 C273 1.414 . S
C274 C275 1.374 . S
C275 H255 0.950 . S
C275 C271 1.385 . S
C275 C274 1.374 . S
C276 C273 1.499 . S
C276 C277 1.373 . S
C276 C278 1.389 . S
C277 H256 0.950 . S
C277 C276 1.373 . S
C277 C293 1.377 . S
C278 C276 1.389 . S
C278 C279 1.524 . S
C278 C292 1.377 . S
C279 C278 1.524 . S
C279 C280 1.397 . S
C279 C284 1.363 . S
C280 H257 0.950 . S
C280 C279 1.397 . S
C280 C281 1.334 . S
C281 H258 0.950 . S
C281 C280 1.334 . S
C281 C282 1.287 . S
C282 C281 1.287 . S
C282 C283 1.524 . S
C282 H301 0.913 . S
C283 H259 0.950 . S
C283 C282 1.524 . S
C283 C284 1.415 . S
C284 H260 0.950 . S
C284 C279 1.363 . S
C284 C283 1.415 . S
C285 H261 0.951 . S
C285 C286 1.366 . S
C285 C287 1.388 . S
C286 C285 1.366 . S
C286 C290 1.385 . S
C287 H262 0.951 . S
C287 C285 1.388 . S
C287 C288 1.366 . S
C288 C287 1.366 . S
C288 C289 1.414 . S
C288 C291 1.499 . S
C289 H263 0.950 . S
C289 C288 1.414 . S
C289 C290 1.374 . S
C290 H264 0.950 . S
C290 C286 1.385 . S
C290 C289 1.374 . S
C291 C288 1.499 . S
C291 C292 1.373 . S
C291 C293 1.389 . S
C292 H265 0.950 . S
C292 C278 1.377 . S
C292 C291 1.373 . S
C293 C277 1.377 . S
C293 C291 1.389 . S
C293 C294 1.524 . S
C294 C293 1.524 . S
C294 C295 1.397 . S
C294 C299 1.363 . S
C295 H266 0.950 . S
C295 C294 1.397 . S
C295 C296 1.334 . S
C296 H267 0.950 . S
C296 C295 1.334 . S
C296 C297 1.287 . S
C297 C296 1.287 . S
C297 C298 1.524 . S
C297 H300 0.999 . S
C298 H268 0.950 . S
C298 C297 1.524 . S
C298 C299 1.415 . S
C299 H269 0.950 . S
C299 C294 1.363 . S
C299 C298 1.415 . S
H300 C297 0.999 . S
H301 C282 0.913 . S
H302 C320 0.951 . S
H303 C322 0.951 . S
H304 C324 0.950 . S
H305 C325 0.950 . S
H306 C327 0.950 . S
H307 C330 0.950 . S
H308 C331 0.950 . S
H309 C333 0.950 . S
H310 C334 0.950 . S
H311 C335 0.951 . S
H312 C337 0.951 . S
H313 C339 0.950 . S
H314 C340 0.950 . S
H315 C342 0.950 . S
H316 C345 0.950 . S
H317 C346 0.950 . S
H318 C348 0.950 . S
H319 C349 0.950 . S
C320 H302 0.951 . S
C320 C321 1.366 . S
C320 C322 1.388 . S
C321 C320 1.366 . S
C321 C325 1.385 . S
C322 H303 0.951 . S
C322 C320 1.388 . S
C322 C323 1.366 . S
C323 C322 1.366 . S
C323 C324 1.414 . S
C323 C326 1.499 . S
C324 H304 0.950 . S
C324 C323 1.414 . S
C324 C325 1.374 . S
C325 H305 0.950 . S
C325 C321 1.385 . S
C325 C324 1.374 . S
C326 C323 1.499 . S
C326 C327 1.373 . S
C326 C328 1.389 . S
C327 H306 0.950 . S
C327 C326 1.373 . S
C327 C343 1.377 . S
C328 C326 1.389 . S
C328 C329 1.524 . S
C328 C342 1.377 . S
C329 C328 1.524 . S
C329 C330 1.397 . S
C329 C334 1.363 . S
C330 H307 0.950 . S
C330 C329 1.397 . S
C330 C331 1.334 . S
C331 H308 0.950 . S
C331 C330 1.334 . S
C331 C332 1.287 . S
C332 C331 1.287 . S
C332 C333 1.524 . S
C332 H351 0.913 . S
C333 H309 0.950 . S
C333 C332 1.524 . S
C333 C334 1.415 . S
C334 H310 0.950 . S
C334 C329 1.363 . S
C334 C333 1.415 . S
C335 H311 0.951 . S
C335 C336 1.366 . S
C335 C337 1.388 . S
C336 C335 1.366 . S
C336 C340 1.385 . S
C337 H312 0.951 . S
C337 C335 1.388 . S
C337 C338 1.366 . S
C338 C337 1.366 . S
C338 C339 1.414 . S
C338 C341 1.499 . S
C339 H313 0.950 . S
C339 C338 1.414 . S
C339 C340 1.374 . S
C340 H314 0.950 . S
C340 C336 1.385 . S
C340 C339 1.374 . S
C341 C338 1.499 . S
C341 C342 1.373 . S
C341 C343 1.389 . S
C342 H315 0.950 . S
C342 C328 1.377 . S
C342 C341 1.373 . S
C343 C327 1.377 . S
C343 C341 1.389 . S
C343 C344 1.524 . S
C344 C343 1.524 . S
C344 C345 1.397 . S
C344 C349 1.363 . S
C345 H316 0.950 . S
C345 C344 1.397 . S
C345 C346 1.334 . S
C346 H317 0.950 . S
C346 C345 1.334 . S
C346 C347 1.287 . S
C347 C346 1.287 . S
C347 C348 1.524 . S
C347 H350 0.999 . S
C348 H318 0.950 . S
C348 C347 1.524 . S
C348 C349 1.415 . S
C349 H319 0.950 . S
C349 C344 1.363 . S
C349 C348 1.415 . S
H350 C347 0.999 . S
H351 C332 0.913 . S
H352 C370 0.951 . S
H353 C372 0.951 . S
H354 C374 0.950 . S
H355 C375 0.950 . S
H356 C377 0.950 . S
H357 C380 0.950 . S
H358 C381 0.950 . S
H359 C383 0.950 . S
H360 C384 0.950 . S
H361 C385 0.951 . S
H362 C387 0.951 . S
H363 C389 0.950 . S
H364 C390 0.950 . S
H365 C392 0.950 . S
H366 C395 0.950 . S
H367 C396 0.950 . S
H368 C398 0.950 . S
H369 C399 0.950 . S
C370 H352 0.951 . S
C370 C371 1.366 . S
C370 C372 1.388 . S
C371 C370 1.366 . S
C371 C375 1.385 . S
C372 H353 0.951 . S
C372 C370 1.388 . S
C372 C373 1.366 . S
C373 C372 1.366 . S
C373 C374 1.414 . S
C373 C376 1.499 . S
C374 H354 0.950 . S
C374 C373 1.414 . S
C374 C375 1.374 . S
C375 H355 0.950 . S
C375 C371 1.385 . S
C375 C374 1.374 . S
C376 C373 1.499 . S
C376 C377 1.373 . S
C376 C378 1.389 . S
C377 H356 0.950 . S
C377 C376 1.373 . S
C377 C393 1.377 . S
C378 C376 1.389 . S
C378 C379 1.524 . S
C378 C392 1.377 . S
C379 C378 1.524 . S
C379 C380 1.397 . S
C379 C384 1.363 . S
C380 H357 0.950 . S
C380 C379 1.397 . S
C380 C381 1.334 . S
C381 H358 0.950 . S
C381 C380 1.334 . S
C381 C382 1.287 . S
C382 C381 1.287 . S
C382 C383 1.524 . S
C382 H401 0.913 . S
C383 H359 0.950 . S
C383 C382 1.524 . S
C383 C384 1.415 . S
C384 H360 0.950 . S
C384 C379 1.363 . S
C384 C383 1.415 . S
C385 H361 0.951 . S
C385 C386 1.366 . S
C385 C387 1.388 . S
C386 C385 1.366 . S
C386 C390 1.385 . S
C387 H362 0.951 . S
C387 C385 1.388 . S
C387 C388 1.366 . S
C388 C387 1.366 . S
C388 C389 1.414 . S
C388 C391 1.499 . S
C389 H363 0.950 . S
C389 C388 1.414 . S
C389 C390 1.374 . S
C390 H364 0.950 . S
C390 C386 1.385 . S
C390 C389 1.374 . S
C391 C388 1.499 . S
C391 C392 1.373 . S
C391 C393 1.389 . S
C392 H365 0.950 . S
C392 C378 1.377 . S
C392 C391 1.373 . S
C393 C377 1.377 . S
C393 C391 1.389 . S
C393 C394 1.524 . S
C394 C393 1.524 . S
C394 C395 1.397 . S
C394 C399 1.363 . S
C395 H366 0.950 . S
C395 C394 1.397 . S
C395 C396 1.334 . S
C396 H367 0.950 . S
C396 C395 1.334 . S
C396 C397 1.287 . S
C397 C396 1.287 . S
C397 C398 1.524 . S
C397 H400 0.999 . S
C398 H368 0.950 . S
C398 C397 1.524 . S
C398 C399 1.415 . S
C399 H369 0.950 . S
C399 C394 1.363 . S
C399 C398 1.415 . S
H400 C397 0.999 . S
H401 C382 0.913 . S
H402 C420 0.951 . S
H403 C422 0.951 . S
H404 C424 0.950 . S
H405 C425 0.950 . S
H406 C427 0.950 . S
H407 C430 0.950 . S
H408 C431 0.950 . S
H409 C433 0.950 . S
H410 C434 0.950 . S
H411 C435 0.951 . S
H412 C437 0.951 . S
H413 C439 0.950 . S
H414 C440 0.950 . S
H415 C442 0.950 . S
H416 C445 0.950 . S
H417 C446 0.950 . S
H418 C448 0.950 . S
H419 C449 0.950 . S
C420 H402 0.951 . S
C420 C421 1.366 . S
C420 C422 1.388 . S
C421 C420 1.366 . S
C421 C425 1.385 . S
C422 H403 0.951 . S
C422 C420 1.388 . S
C422 C423 1.366 . S
C423 C422 1.366 . S
C423 C424 1.414 . S
C423 C426 1.499 . S
C424 H404 0.950 . S
C424 C423 1.414 . S
C424 C425 1.374 . S
C425 H405 0.950 . S
C425 C421 1.385 . S
C425 C424 1.374 . S
C426 C423 1.499 . S
C426 C427 1.373 . S
C426 C428 1.389 . S
C427 H406 0.950 . S
C427 C426 1.373 . S
C427 C443 1.377 . S
C428 C426 1.389 . S
C428 C429 1.524 . S
C428 C442 1.377 . S
C429 C428 1.524 . S
C429 C430 1.397 . S
C429 C434 1.363 . S
C430 H407 0.950 . S
C430 C429 1.397 . S
C430 C431 1.334 . S
C431 H408 0.950 . S
C431 C430 1.334 . S
C431 C432 1.287 . S
C432 C431 1.287 . S
C432 C433 1.524 . S
C432 H451 0.913 . S
C433 H409 0.950 . S
C433 C432 1.524 . S
C433 C434 1.415 . S
C434 H410 0.950 . S
C434 C429 1.363 . S
C434 C433 1.415 . S
C435 H411 0.951 . S
C435 C436 1.366 . S
C435 C437 1.388 . S
C436 C435 1.366 . S
C436 C440 1.385 . S
C437 H412 0.951 . S
C437 C435 1.388 . S
C437 C438 1.366 . S
C438 C437 1.366 . S
C438 C439 1.414 . S
C438 C441 1.499 . S
C439 H413 0.950 . S
C439 C438 1.414 . S
C439 C440 1.374 . S
C440 H414 0.950 . S
C440 C436 1.385 . S
C440 C439 1.374 . S
C441 C438 1.499 . S
C441 C442 1.373 . S
C441 C443 1.389 . S
C442 H415 0.950 . S
C442 C428 1.377 . S
C442 C441 1.373 . S
C443 C427 1.377 . S
C443 C441 1.389 . S
C443 C444 1.524 . S
C444 C443 1.524 . S
C444 C445 1.397 . S
C444 C449 1.363 . S
C445 H416 0.950 . S
C445 C444 1.397 . S
C445 C446 1.334 . S
C446 H417 0.950 . S
C446 C445 1.334 . S
C446 C447 1.287 . S
C447 C446 1.287 . S
C447 C448 1.524 . S
C447 H450 0.999 . S
C448 H418 0.950 . S
C448 C447 1.524 . S
C448 C449 1.415 . S
C449 H419 0.950 . S
C449 C444 1.363 . S
C449 C448 1.415 . S
H450 C447 0.999 . S
H451 C432 0.913 . S
H452 C470 0.951 . S
H453 C472 0.951 . S
H454 C474 0.950 . S
H455 C475 0.950 . S
H456 C477 0.950 . S
H457 C480 0.950 . S
H458 C481 0.950 . S
H459 C483 0.950 . S
H460 C484 0.950 . S
H461 C485 0.951 . S
H462 C487 0.951 . S
H463 C489 0.950 . S
H464 C490 0.950 . S
H465 C492 0.950 . S
H466 C495 0.950 . S
H467 C496 0.950 . S
H468 C498 0.950 . S
H469 C499 0.950 . S
C470 H452 0.951 . S
C470 C471 1.366 . S
C470 C472 1.388 . S
C471 C470 1.366 . S
C471 C475 1.385 . S
C472 H453 0.951 . S
C472 C470 1.388 . S
C472 C473 1.366 . S
C473 C472 1.366 . S
C473 C474 1.414 . S
C473 C476 1.499 . S
C474 H454 0.950 . S
C474 C473 1.414 . S
C474 C475 1.374 . S
C475 H455 0.950 . S
C475 C471 1.385 . S
C475 C474 1.374 . S
C476 C473 1.499 . S
C476 C477 1.373 . S
C476 C478 1.389 . S
C477 H456 0.950 . S
C477 C476 1.373 . S
C477 C493 1.377 . S
C478 C476 1.389 . S
C478 C479 1.524 . S
C478 C492 1.377 . S
C479 C478 1.524 . S
C479 C480 1.397 . S
C479 C484 1.363 . S
C480 H457 0.950 . S
C480 C479 1.397 . S
C480 C481 1.334 . S
C481 H458 0.950 . S
C481 C480 1.334 . S
C481 C482 1.287 . S
C482 C481 1.287 . S
C482 C483 1.524 . S
C482 H501 0.913 . S
C483 H459 0.950 . S
C483 C482 1.524 . S
C483 C484 1.415 . S
C484 H460 0.950 . S
C484 C479 1.363 . S
C484 C483 1.415 . S
C485 H461 0.951 . S
C485 C486 1.366 . S
C485 C487 1.388 . S
C486 C485 1.366 . S
C486 C490 1.385 . S
C487 H462 0.951 . S
C487 C485 1.388 . S
C487 C488 1.366 . S
C488 C487 1.366 . S
C488 C489 1.414 . S
C488 C491 1.499 . S
C489 H463 0.950 . S
C489 C488 1.414 . S
C489 C490 1.374 . S
C490 H464 0.950 . S
C490 C486 1.385 . S
C490 C489 1.374 . S
C491 C488 1.499 . S
C491 C492 1.373 . S
C491 C493 1.389 . S
C492 H465 0.950 . S
C492 C478 1.377 . S
C492 C491 1.373 . S
C493 C477 1.377 . S
C493 C491 1.389 . S
C493 C494 1.524 . S
C494 C493 1.524 . S
C494 C495 1.397 . S
C494 C499 1.363 . S
C495 H466 0.950 . S
C495 C494 1.397 . S
C495 C496 1.334 . S
C496 H467 0.950 . S
C496 C495 1.334 . S
C496 C497 1.287 . S
C497 C496 1.287 . S
C497 C498 1.524 . S
C497 H500 0.999 . S
C498 H468 0.950 . S
C498 C497 1.524 . S
C498 C499 1.415 . S
C499 H469 0.950 . S
C499 C494 1.363 . S
C499 C498 1.415 . S
H500 C497 0.999 . S
H501 C482 0.913 . S
H502 C520 0.951 . S
H503 C522 0.951 . S
H504 C524 0.950 . S
H505 C525 0.950 . S
H506 C527 0.950 . S
H507 C530 0.950 . S
H508 C531 0.950 . S
H509 C533 0.950 . S
H510 C534 0.950 . S
H511 C535 0.951 . S
H512 C537 0.951 . S
H513 C539 0.950 . S
H514 C540 0.950 . S
H515 C542 0.950 . S
H516 C545 0.950 . S
H517 C546 0.950 . S
H518 C548 0.950 . S
H519 C549 0.950 . S
C520 H502 0.951 . S
C520 C521 1.366 . S
C520 C522 1.388 . S
C521 C520 1.366 . S
C521 C525 1.385 . S
C522 H503 0.951 . S
C522 C520 1.388 . S
C522 C523 1.366 . S
C523 C522 1.366 . S
C523 C524 1.414 . S
C523 C526 1.499 . S
C524 H504 0.950 . S
C524 C523 1.414 . S
C524 C525 1.374 . S
C525 H505 0.950 . S
C525 C521 1.385 . S
C525 C524 1.374 . S
C526 C523 1.499 . S
C526 C527 1.373 . S
C526 C528 1.389 . S
C527 H506 0.950 . S
C527 C526 1.373 . S
C527 C543 1.377 . S
C528 C526 1.389 . S
C528 C529 1.524 . S
C528 C542 1.377 . S
C529 C528 1.524 . S
C529 C530 1.397 . S
C529 C534 1.363 . S
C530 H507 0.950 . S
C530 C529 1.397 . S
C530 C531 1.334 . S
C531 H508 0.950 . S
C531 C530 1.334 . S
C531 C532 1.287 . S
C532 C531 1.287 . S
C532 C533 1.524 . S
C532 H551 0.913 . S
C533 H509 0.950 . S
C533 C532 1.524 . S
C533 C534 1.415 . S
C534 H510 0.950 . S
C534 C529 1.363 . S
C534 C533 1.415 . S
C535 H511 0.951 . S
C535 C536 1.366 . S
C535 C537 1.388 . S
C536 C535 1.366 . S
C536 C540 1.385 . S
C537 H512 0.951 . S
C537 C535 1.388 . S
C537 C538 1.366 . S
C538 C537 1.366 . S
C538 C539 1.414 . S
C538 C541 1.499 . S
C539 H513 0.950 . S
C539 C538 1.414 . S
C539 C540 1.374 . S
C540 H514 0.950 . S
C540 C536 1.385 . S
C540 C539 1.374 . S
C541 C538 1.499 . S
C541 C542 1.373 . S
C541 C543 1.389 . S
C542 H515 0.950 . S
C542 C528 1.377 . S
C542 C541 1.373 . S
C543 C527 1.377 . S
C543 C541 1.389 . S
C543 C544 1.524 . S
C544 C543 1.524 . S
C544 C545 1.397 . S
C544 C549 1.363 . S
C545 H516 0.950 . S
C545 C544 1.397 . S
C545 C546 1.334 . S
C546 H517 0.950 . S
C546 C545 1.334 . S
C546 C547 1.287 . S
C547 C546 1.287 . S
C547 C548 1.524 . S
C547 H550 0.999 . S
C548 H518 0.950 . S
C548 C547 1.524 . S
C548 C549 1.415 . S
C549 H519 0.950 . S
C549 C544 1.363 . S
C549 C548 1.415 . S
H550 C547 0.999 . S
H551 C532 0.913 . S
H552 C570 0.951 . S
H553 C572 0.951 . S
H554 C574 0.950 . S
H555 C575 0.950 . S
H556 C577 0.950 . S
H557 C580 0.950 . S
H558 C581 0.950 . S
H559 C583 0.950 . S
H560 C584 0.950 . S
H561 C585 0.951 . S
H562 C587 0.951 . S
H563 C589 0.950 . S
H564 C590 0.950 . S
H565 C592 0.950 . S
H566 C595 0.950 . S
H567 C596 0.950 . S
H568 C598 0.950 . S
H569 C599 0.950 . S
C570 H552 0.951 . S
C570 C571 1.366 . S
C570 C572 1.388 . S
C571 C570 1.366 . S
C571 C575 1.385 . S
C572 H553 0.951 . S
C572 C570 1.388 . S
C572 C573 1.366 . S
C573 C572 1.366 . S
C573 C574 1.414 . S
C573 C576 1.499 . S
C574 H554 0.950 . S
C574 C573 1.414 . S
C574 C575 1.374 . S
C575 H555 0.950 . S
C575 C571 1.385 . S
C575 C574 1.374 . S
C576 C573 1.499 . S
C576 C577 1.373 . S
C576 C578 1.389 1_655 S
C577 H556 0.950 . S
C577 C576 1.373 . S
C577 C593 1.377 1_554 S
C578 C576 1.389 1_455 S
C578 C579 1.524 . S
C578 C592 1.377 1_554 S
C579 C578 1.524 . S
C579 C580 1.397 1_455 S
C579 C584 1.363 . S
C580 H557 0.950 . S
C580 C579 1.397 1_655 S
C580 C581 1.334 . S
C581 H558 0.950 . S
C581 C580 1.334 . S
C581 C582 1.287 1_655 S
C582 C581 1.287 1_455 S
C582 C583 1.524 . S
C582 H601 0.913 . S
C583 H559 0.950 . S
C583 C582 1.524 . S
C583 C584 1.415 . S
C584 H560 0.950 . S
C584 C579 1.363 . S
C584 C583 1.415 . S
C585 H561 0.951 . S
C585 C586 1.366 . S
C585 C587 1.388 . S
C586 C585 1.366 . S
C586 C590 1.385 . S
C587 H562 0.951 . S
C587 C585 1.388 . S
C587 C588 1.366 . S
C588 C587 1.366 . S
C588 C589 1.414 . S
C588 C591 1.499 . S
C589 H563 0.950 . S
C589 C588 1.414 . S
C589 C590 1.374 . S
C590 H564 0.950 . S
C590 C586 1.385 . S
C590 C589 1.374 . S
C591 C588 1.499 . S
C591 C592 1.373 . S
C591 C593 1.389 1_455 S
C592 H565 0.950 . S
C592 C578 1.377 1_556 S
C592 C591 1.373 . S
C593 C577 1.377 1_556 S
C593 C591 1.389 1_655 S
C593 C594 1.524 . S
C594 C593 1.524 . S
C594 C595 1.397 1_655 S
C594 C599 1.363 . S
C595 H566 0.950 . S
C595 C594 1.397 1_455 S
C595 C596 1.334 . S
C596 H567 0.950 . S
C596 C595 1.334 . S
C596 C597 1.287 1_455 S
C597 C596 1.287 1_655 S
C597 C598 1.524 . S
C597 H600 0.999 . S
C598 H568 0.950 . S
C598 C597 1.524 . S
C598 C599 1.415 . S
C599 H569 0.950 . S
C599 C594 1.363 . S
C599 C598 1.415 . S
H600 C597 0.999 . S
H601 C582 0.913 . S
H602 C620 0.951 . S
H603 C622 0.951 . S
H604 C624 0.950 . S
H605 C625 0.950 . S
H606 C627 0.950 . S
H607 C630 0.950 . S
H608 C631 0.950 . S
H609 C633 0.950 . S
H610 C634 0.950 . S
H611 C635 0.951 . S
H612 C637 0.951 . S
H613 C639 0.950 . S
H614 C640 0.950 . S
H615 C642 0.950 . S
H616 C645 0.950 . S
H617 C646 0.950 . S
H618 C648 0.950 . S
H619 C649 0.950 . S
C620 H602 0.951 . S
C620 C621 1.366 . S
C620 C622 1.388 . S
C621 C620 1.366 . S
C621 C625 1.385 . S
C622 H603 0.951 . S
C622 C620 1.388 . S
C622 C623 1.366 . S
C623 C622 1.366 . S
C623 C624 1.414 . S
C623 C626 1.499 . S
C624 H604 0.950 . S
C624 C623 1.414 . S
C624 C625 1.374 . S
C625 H605 0.950 . S
C625 C621 1.385 . S
C625 C624 1.374 . S
C626 C623 1.499 . S
C626 C627 1.373 . S
C626 C628 1.389 . S
C627 H606 0.950 . S
C627 C626 1.373 . S
C627 C643 1.377 1_554 S
C628 C626 1.389 . S
C628 C629 1.524 . S
C628 C642 1.377 1_554 S
C629 C628 1.524 . S
C629 C630 1.397 . S
C629 C634 1.363 1_554 S
C630 H607 0.950 . S
C630 C629 1.397 . S
C630 C631 1.334 . S
C631 H608 0.950 . S
C631 C630 1.334 . S
C631 C632 1.287 . S
C632 C631 1.287 . S
C632 C633 1.524 1_554 S
C632 H651 0.913 . S
C633 H609 0.950 . S
C633 C632 1.524 1_556 S
C633 C634 1.415 . S
C634 H610 0.950 . S
C634 C629 1.363 1_556 S
C634 C633 1.415 . S
C635 H611 0.951 . S
C635 C636 1.366 . S
C635 C637 1.388 . S
C636 C635 1.366 . S
C636 C640 1.385 . S
C637 H612 0.951 . S
C637 C635 1.388 . S
C637 C638 1.366 . S
C638 C637 1.366 . S
C638 C639 1.414 . S
C638 C641 1.499 . S
C639 H613 0.950 . S
C639 C638 1.414 . S
C639 C640 1.374 . S
C640 H614 0.950 . S
C640 C636 1.385 . S
C640 C639 1.374 . S
C641 C638 1.499 . S
C641 C642 1.373 . S
C641 C643 1.389 . S
C642 H615 0.950 . S
C642 C628 1.377 1_556 S
C642 C641 1.373 . S
C643 C627 1.377 1_556 S
C643 C641 1.389 . S
C643 C644 1.524 . S
C644 C643 1.524 . S
C644 C645 1.397 . S
C644 C649 1.363 1_556 S
C645 H616 0.950 . S
C645 C644 1.397 . S
C645 C646 1.334 . S
C646 H617 0.950 . S
C646 C645 1.334 . S
C646 C647 1.287 . S
C647 C646 1.287 . S
C647 C648 1.524 1_556 S
C647 H650 0.999 . S
C648 H618 0.950 . S
C648 C647 1.524 1_554 S
C648 C649 1.415 . S
C649 H619 0.950 . S
C649 C644 1.363 1_554 S
C649 C648 1.415 . S
H650 C647 0.999 . S
H651 C632 0.913 . S
H652 C670 0.951 . S
H653 C672 0.951 . S
H654 C674 0.950 . S
H655 C675 0.950 . S
H656 C677 0.950 . S
H657 C680 0.975 . S
H658 C681 0.950 1_565 S
H659 C683 0.950 . S
H660 C684 0.950 1_556 S
H661 C685 0.951 . S
H662 C687 0.951 . S
H663 C689 0.950 . S
H664 C690 0.950 . S
H665 C692 0.950 . S
H666 C695 0.975 . S
H667 C696 0.951 1_545 S
H668 C698 0.950 . S
H669 C699 0.950 1_554 S
C670 H652 0.951 . S
C670 C671 1.366 . S
C670 C672 1.388 . S
C671 C670 1.366 . S
C671 C675 1.385 . S
C672 H653 0.951 . S
C672 C670 1.388 . S
C672 C673 1.366 . S
C673 C672 1.366 . S
C673 C674 1.414 . S
C673 C676 1.499 . S
C674 H654 0.950 . S
C674 C673 1.414 . S
C674 C675 1.374 . S
C675 H655 0.950 . S
C675 C671 1.385 . S
C675 C674 1.374 . S
C676 C673 1.499 . S
C676 C677 1.373 . S
C676 C678 1.389 . S
C677 H656 0.950 . S
C677 C676 1.373 . S
C677 C693 1.377 1_544 S
C678 C676 1.389 . S
C678 C679 1.524 . S
C678 C692 1.377 1_544 S
C679 C678 1.524 . S
C679 C680 1.389 1_545 S
C679 C684 1.363 . S
C680 H657 0.975 . S
C680 C679 1.389 1_565 S
C680 C681 1.319 1_565 S
C681 H658 0.950 1_545 S
C681 C680 1.319 1_545 S
C681 C682 1.286 . S
C682 C681 1.286 . S
C682 C683 1.524 . S
C682 H701 0.913 . S
C683 H659 0.950 . S
C683 C682 1.524 . S
C683 C684 1.415 . S
C684 H660 0.950 1_554 S
C684 C679 1.363 . S
C684 C683 1.415 . S
C685 H661 0.951 . S
C685 C686 1.366 . S
C685 C687 1.388 . S
C686 C685 1.366 . S
C686 C690 1.385 . S
C687 H662 0.951 . S
C687 C685 1.388 . S
C687 C688 1.366 . S
C688 C687 1.366 . S
C688 C689 1.414 . S
C688 C691 1.499 . S
C689 H663 0.950 . S
C689 C688 1.414 . S
C689 C690 1.374 . S
C690 H664 0.950 . S
C690 C686 1.385 . S
C690 C689 1.374 . S
C691 C688 1.499 . S
C691 C692 1.373 . S
C691 C693 1.389 . S
C692 H665 0.950 . S
C692 C678 1.377 1_566 S
C692 C691 1.373 . S
C693 C677 1.377 1_566 S
C693 C691 1.389 . S
C693 C694 1.524 . S
C694 C693 1.524 . S
C694 C695 1.389 1_565 S
C694 C699 1.363 . S
C695 H666 0.975 . S
C695 C694 1.389 1_545 S
C695 C696 1.319 1_545 S
C696 H667 0.951 1_565 S
C696 C695 1.319 1_565 S
C696 C697 1.286 . S
C697 C696 1.286 . S
C697 C698 1.524 . S
C697 H700 0.999 . S
C698 H668 0.950 . S
C698 C697 1.524 . S
C698 C699 1.415 . S
C699 H669 0.950 1_556 S
C699 C694 1.363 . S
C699 C698 1.415 . S
H700 C697 0.999 . S
H701 C682 0.913 . S
H702 C720 0.951 . S
H703 C722 0.951 . S
H704 C724 0.950 . S
H705 C725 0.950 1_554 S
H706 C727 0.950 . S
H707 C730 0.950 . S
H708 C731 0.950 . S
H709 C733 0.950 . S
H710 C734 0.950 . S
H711 C735 0.951 . S
H712 C737 0.951 . S
H713 C739 0.950 . S
H714 C740 0.950 . S
H715 C742 0.950 . S
H716 C745 0.950 . S
H717 C746 0.950 . S
H718 C748 0.950 . S
H719 C749 0.950 . S
C720 H702 0.951 . S
C720 C721 1.366 . S
C720 C722 1.388 . S
C721 C720 1.366 . S
C721 C725 1.385 . S
C722 H703 0.951 . S
C722 C720 1.388 . S
C722 C723 1.366 . S
C723 C722 1.366 . S
C723 C724 1.414 . S
C723 C726 1.499 . S
C724 H704 0.950 . S
C724 C723 1.414 . S
C724 C725 1.374 . S
C725 H705 0.950 1_556 S
C725 C721 1.385 . S
C725 C724 1.374 . S
C726 C723 1.499 . S
C726 C727 1.373 . S
C726 C728 1.389 . S
C727 H706 0.950 . S
C727 C726 1.373 . S
C727 C743 1.377 . S
C728 C726 1.389 . S
C728 C729 1.524 . S
C728 C742 1.377 . S
C729 C728 1.524 . S
C729 C730 1.397 . S
C729 C734 1.363 . S
C730 H707 0.950 . S
C730 C729 1.397 . S
C730 C731 1.334 . S
C731 H708 0.950 . S
C731 C730 1.334 . S
C731 C732 1.287 . S
C732 C731 1.287 . S
C732 C733 1.524 . S
C732 H751 0.913 . S
C733 H709 0.950 . S
C733 C732 1.524 . S
C733 C734 1.415 . S
C734 H710 0.950 . S
C734 C729 1.363 . S
C734 C733 1.415 . S
C735 H711 0.951 . S
C735 C736 1.366 . S
C735 C737 1.388 . S
C736 C735 1.366 . S
C736 C740 1.385 . S
C737 H712 0.951 . S
C737 C735 1.388 . S
C737 C738 1.366 . S
C738 C737 1.366 . S
C738 C739 1.414 . S
C738 C741 1.499 . S
C739 H713 0.950 . S
C739 C738 1.414 . S
C739 C740 1.374 . S
C740 H714 0.950 . S
C740 C736 1.385 . S
C740 C739 1.374 . S
C741 C738 1.499 . S
C741 C742 1.373 . S
C741 C743 1.389 . S
C742 H715 0.950 . S
C742 C728 1.377 . S
C742 C741 1.373 . S
C743 C727 1.377 . S
C743 C741 1.389 . S
C743 C744 1.524 . S
C744 C743 1.524 . S
C744 C745 1.397 . S
C744 C749 1.363 . S
C745 H716 0.950 . S
C745 C744 1.397 . S
C745 C746 1.334 . S
C746 H717 0.950 . S
C746 C745 1.334 . S
C746 C747 1.287 . S
C747 C746 1.287 . S
C747 C748 1.524 . S
C747 H750 0.999 . S
C748 H718 0.950 . S
C748 C747 1.524 . S
C748 C749 1.415 . S
C749 H719 0.950 . S
C749 C744 1.363 . S
C749 C748 1.415 . S
H750 C747 0.999 . S
H751 C732 0.913 . S
H752 C770 0.951 . S
H753 C772 0.951 . S
H754 C774 0.950 . S
H755 C775 0.950 . S
H756 C777 0.950 . S
H757 C780 0.950 . S
H758 C781 0.950 . S
H759 C783 0.950 . S
H760 C784 0.950 . S
H761 C785 0.951 . S
H762 C787 0.951 . S
H763 C789 0.950 . S
H764 C790 0.950 1_554 S
H765 C792 0.950 . S
H766 C795 0.950 . S
H767 C796 0.950 . S
H768 C798 0.950 . S
H769 C799 0.950 . S
C770 H752 0.951 . S
C770 C771 1.366 . S
C770 C772 1.388 . S
C771 C770 1.366 . S
C771 C775 1.385 . S
C772 H753 0.951 . S
C772 C770 1.388 . S
C772 C773 1.366 . S
C773 C772 1.366 . S
C773 C774 1.414 . S
C773 C776 1.499 . S
C774 H754 0.950 . S
C774 C773 1.414 . S
C774 C775 1.374 . S
C775 H755 0.950 . S
C775 C771 1.385 . S
C775 C774 1.374 . S
C776 C773 1.499 . S
C776 C777 1.373 . S
C776 C778 1.389 . S
C777 H756 0.950 . S
C777 C776 1.373 . S
C777 C793 1.377 . S
C778 C776 1.389 . S
C778 C779 1.524 . S
C778 C792 1.377 . S
C779 C778 1.524 . S
C779 C780 1.397 . S
C779 C784 1.363 . S
C780 H757 0.950 . S
C780 C779 1.397 . S
C780 C781 1.334 . S
C781 H758 0.950 . S
C781 C780 1.334 . S
C781 C782 1.287 . S
C782 C781 1.287 . S
C782 C783 1.524 . S
C782 H801 0.913 . S
C783 H759 0.950 . S
C783 C782 1.524 . S
C783 C784 1.415 . S
C784 H760 0.950 . S
C784 C779 1.363 . S
C784 C783 1.415 . S
C785 H761 0.951 . S
C785 C786 1.366 . S
C785 C787 1.388 . S
C786 C785 1.366 . S
C786 C790 1.385 . S
C787 H762 0.951 . S
C787 C785 1.388 . S
C787 C788 1.366 . S
C788 C787 1.366 . S
C788 C789 1.414 . S
C788 C791 1.499 . S
C789 H763 0.950 . S
C789 C788 1.414 . S
C789 C790 1.374 . S
C790 H764 0.950 1_556 S
C790 C786 1.385 . S
C790 C789 1.374 . S
C791 C788 1.499 . S
C791 C792 1.373 . S
C791 C793 1.389 . S
C792 H765 0.950 . S
C792 C778 1.377 . S
C792 C791 1.373 . S
C793 C777 1.377 . S
C793 C791 1.389 . S
C793 C794 1.524 . S
C794 C793 1.524 . S
C794 C795 1.397 . S
C794 C799 1.363 . S
C795 H766 0.950 . S
C795 C794 1.397 . S
C795 C796 1.334 . S
C796 H767 0.950 . S
C796 C795 1.334 . S
C796 C797 1.287 . S
C797 C796 1.287 . S
C797 C798 1.524 . S
C797 H800 0.999 . S
C798 H768 0.950 . S
C798 C797 1.524 . S
C798 C799 1.415 . S
C799 H769 0.950 . S
C799 C794 1.363 . S
C799 C798 1.415 . S
H800 C797 0.999 . S
H801 C782 0.913 . S
H802 C820 0.951 . S
H803 C822 0.951 . S
H804 C824 0.950 . S
H805 C825 0.950 1_554 S
H806 C827 0.950 . S
H807 C830 0.950 . S
H808 C831 0.950 . S
H809 C833 0.950 . S
H810 C834 0.950 . S
H811 C835 0.951 . S
H812 C837 0.951 . S
H813 C839 0.950 . S
H814 C840 0.950 . S
H815 C842 0.950 . S
H816 C845 0.950 . S
H817 C846 0.950 . S
H818 C848 0.950 . S
H819 C849 0.950 . S
C820 H802 0.951 . S
C820 C821 1.366 . S
C820 C822 1.388 . S
C821 C820 1.366 . S
C821 C825 1.385 . S
C822 H803 0.951 . S
C822 C820 1.388 . S
C822 C823 1.366 . S
C823 C822 1.366 . S
C823 C824 1.414 . S
C823 C826 1.499 . S
C824 H804 0.950 . S
C824 C823 1.414 . S
C824 C825 1.374 . S
C825 H805 0.950 1_556 S
C825 C821 1.385 . S
C825 C824 1.374 . S
C826 C823 1.499 . S
C826 C827 1.373 . S
C826 C828 1.389 . S
C827 H806 0.950 . S
C827 C826 1.373 . S
C827 C843 1.377 . S
C828 C826 1.389 . S
C828 C829 1.524 . S
C828 C842 1.377 . S
C829 C828 1.524 . S
C829 C830 1.397 . S
C829 C834 1.363 . S
C830 H807 0.950 . S
C830 C829 1.397 . S
C830 C831 1.334 . S
C831 H808 0.950 . S
C831 C830 1.334 . S
C831 C832 1.287 . S
C832 C831 1.287 . S
C832 C833 1.524 . S
C832 H851 0.913 . S
C833 H809 0.950 . S
C833 C832 1.524 . S
C833 C834 1.415 . S
C834 H810 0.950 . S
C834 C829 1.363 . S
C834 C833 1.415 . S
C835 H811 0.951 . S
C835 C836 1.366 . S
C835 C837 1.388 . S
C836 C835 1.366 . S
C836 C840 1.385 . S
C837 H812 0.951 . S
C837 C835 1.388 . S
C837 C838 1.366 . S
C838 C837 1.366 . S
C838 C839 1.414 . S
C838 C841 1.499 . S
C839 H813 0.950 . S
C839 C838 1.414 . S
C839 C840 1.374 . S
C840 H814 0.950 . S
C840 C836 1.385 . S
C840 C839 1.374 . S
C841 C838 1.499 . S
C841 C842 1.373 . S
C841 C843 1.389 . S
C842 H815 0.950 . S
C842 C828 1.377 . S
C842 C841 1.373 . S
C843 C827 1.377 . S
C843 C841 1.389 . S
C843 C844 1.524 . S
C844 C843 1.524 . S
C844 C845 1.397 . S
C844 C849 1.363 . S
C845 H816 0.950 . S
C845 C844 1.397 . S
C845 C846 1.334 . S
C846 H817 0.950 . S
C846 C845 1.334 . S
C846 C847 1.287 . S
C847 C846 1.287 . S
C847 C848 1.524 . S
C847 H850 0.999 . S
C848 H818 0.950 . S
C848 C847 1.524 . S
C848 C849 1.415 . S
C849 H819 0.950 . S
C849 C844 1.363 . S
C849 C848 1.415 . S
H850 C847 0.999 . S
H851 C832 0.913 . S
H852 C870 0.951 . S
H853 C872 0.951 . S
H854 C874 0.950 . S
H855 C875 0.950 . S
H856 C877 0.950 . S
H857 C880 0.950 . S
H858 C881 0.950 . S
H859 C883 0.950 . S
H860 C884 0.950 . S
H861 C885 0.951 . S
H862 C887 0.951 . S
H863 C889 0.950 . S
H864 C890 0.950 1_556 S
H865 C892 0.950 . S
H866 C895 0.950 . S
H867 C896 0.950 . S
H868 C898 0.950 . S
H869 C899 0.950 . S
C870 H852 0.951 . S
C870 C871 1.366 . S
C870 C872 1.388 . S
C871 C870 1.366 . S
C871 C875 1.385 . S
C872 H853 0.951 . S
C872 C870 1.388 . S
C872 C873 1.366 . S
C873 C872 1.366 . S
C873 C874 1.414 . S
C873 C876 1.499 . S
C874 H854 0.950 . S
C874 C873 1.414 . S
C874 C875 1.374 . S
C875 H855 0.950 . S
C875 C871 1.385 . S
C875 C874 1.374 . S
C876 C873 1.499 . S
C876 C877 1.373 . S
C876 C878 1.389 . S
C877 H856 0.950 . S
C877 C876 1.373 . S
C877 C893 1.377 . S
C878 C876 1.389 . S
C878 C879 1.524 . S
C878 C892 1.377 . S
C879 C878 1.524 . S
C879 C880 1.397 . S
C879 C884 1.363 . S
C880 H857 0.950 . S
C880 C879 1.397 . S
C880 C881 1.334 . S
C881 H858 0.950 . S
C881 C880 1.334 . S
C881 C882 1.287 . S
C882 C881 1.287 . S
C882 C883 1.524 . S
C882 H901 0.913 . S
C883 H859 0.950 . S
C883 C882 1.524 . S
C883 C884 1.415 . S
C884 H860 0.950 . S
C884 C879 1.363 . S
C884 C883 1.415 . S
C885 H861 0.951 . S
C885 C886 1.366 . S
C885 C887 1.388 . S
C886 C885 1.366 . S
C886 C890 1.385 . S
C887 H862 0.951 . S
C887 C885 1.388 . S
C887 C888 1.366 . S
C888 C887 1.366 . S
C888 C889 1.414 . S
C888 C891 1.499 . S
C889 H863 0.950 . S
C889 C888 1.414 . S
C889 C890 1.374 . S
C890 H864 0.950 1_554 S
C890 C886 1.385 . S
C890 C889 1.374 . S
C891 C888 1.499 . S
C891 C892 1.373 . S
C891 C893 1.389 . S
C892 H865 0.950 . S
C892 C878 1.377 . S
C892 C891 1.373 . S
C893 C877 1.377 . S
C893 C891 1.389 . S
C893 C894 1.524 . S
C894 C893 1.524 . S
C894 C895 1.397 . S
C894 C899 1.363 . S
C895 H866 0.950 . S
C895 C894 1.397 . S
C895 C896 1.334 . S
C896 H867 0.950 . S
C896 C895 1.334 . S
C896 C897 1.287 . S
C897 C896 1.287 . S
C897 C898 1.524 . S
C897 H900 0.999 . S
C898 H868 0.950 . S
C898 C897 1.524 . S
C898 C899 1.415 . S
C899 H869 0.950 . S
C899 C894 1.363 . S
C899 C898 1.415 . S
H900 C897 0.999 . S
H901 C882 0.913 . S
H902 C920 0.951 . S
H903 C922 0.951 . S
H904 C924 0.950 . S
H905 C925 0.950 . S
H906 C927 0.950 . S
H907 C930 0.950 . S
H908 C931 0.950 . S
H909 C933 0.950 . S
H910 C934 0.950 . S
H911 C935 0.951 . S
H912 C937 0.951 . S
H913 C939 0.950 . S
H914 C940 0.950 . S
H915 C942 0.950 . S
H916 C945 0.950 . S
H917 C946 0.950 . S
H918 C948 0.950 . S
H919 C949 0.950 . S
C920 H902 0.951 . S
C920 C921 1.366 . S
C920 C922 1.388 . S
C921 C920 1.366 . S
C921 C925 1.385 . S
C922 H903 0.951 . S
C922 C920 1.388 . S
C922 C923 1.366 . S
C923 C922 1.366 . S
C923 C924 1.414 . S
C923 C926 1.499 . S
C924 H904 0.950 . S
C924 C923 1.414 . S
C924 C925 1.374 . S
C925 H905 0.950 . S
C925 C921 1.385 . S
C925 C924 1.374 . S
C926 C923 1.499 . S
C926 C927 1.373 . S
C926 C928 1.389 . S
C927 H906 0.950 . S
C927 C926 1.373 . S
C927 C943 1.377 . S
C928 C926 1.389 . S
C928 C929 1.524 . S
C928 C942 1.377 . S
C929 C928 1.524 . S
C929 C930 1.397 . S
C929 C934 1.363 . S
C930 H907 0.950 . S
C930 C929 1.397 . S
C930 C931 1.334 . S
C931 H908 0.950 . S
C931 C930 1.334 . S
C931 C932 1.287 . S
C932 C931 1.287 . S
C932 C933 1.524 . S
C932 H951 0.913 . S
C933 H909 0.950 . S
C933 C932 1.524 . S
C933 C934 1.415 . S
C934 H910 0.950 . S
C934 C929 1.363 . S
C934 C933 1.415 . S
C935 H911 0.951 . S
C935 C936 1.366 . S
C935 C937 1.388 . S
C936 C935 1.366 . S
C936 C940 1.385 . S
C937 H912 0.951 . S
C937 C935 1.388 . S
C937 C938 1.366 . S
C938 C937 1.366 . S
C938 C939 1.414 . S
C938 C941 1.499 . S
C939 H913 0.950 . S
C939 C938 1.414 . S
C939 C940 1.374 . S
C940 H914 0.950 . S
C940 C936 1.385 . S
C940 C939 1.374 . S
C941 C938 1.499 . S
C941 C942 1.373 . S
C941 C943 1.389 . S
C942 H915 0.950 . S
C942 C928 1.377 . S
C942 C941 1.373 . S
C943 C927 1.377 . S
C943 C941 1.389 . S
C943 C944 1.524 . S
C944 C943 1.524 . S
C944 C945 1.397 . S
C944 C949 1.363 . S
C945 H916 0.950 . S
C945 C944 1.397 . S
C945 C946 1.334 . S
C946 H917 0.950 . S
C946 C945 1.334 . S
C946 C947 1.287 . S
C947 C946 1.287 . S
C947 C948 1.524 . S
C947 H950 0.999 . S
C948 H918 0.950 . S
C948 C947 1.524 . S
C948 C949 1.415 . S
C949 H919 0.950 . S
C949 C944 1.363 . S
C949 C948 1.415 . S
H950 C947 0.999 . S
H951 C932 0.913 . S
H952 C970 0.951 . S
H953 C972 0.951 . S
H954 C974 0.950 . S
H955 C975 0.950 1_556 S
H956 C977 0.950 . S
H957 C980 0.950 . S
H958 C981 0.950 . S
H959 C983 0.950 . S
H960 C984 0.950 . S
H961 C985 0.951 . S
H962 C987 0.951 . S
H963 C989 0.950 . S
H964 C990 0.950 . S
H965 C992 0.950 . S
H966 C995 0.950 . S
H967 C996 0.950 . S
H968 C998 0.950 . S
H969 C999 0.950 . S
C970 H952 0.951 . S
C970 C971 1.366 . S
C970 C972 1.388 . S
C971 C970 1.366 . S
C971 C975 1.385 . S
C972 H953 0.951 . S
C972 C970 1.388 . S
C972 C973 1.366 . S
C973 C972 1.366 . S
C973 C974 1.414 . S
C973 C976 1.499 . S
C974 H954 0.950 . S
C974 C973 1.414 . S
C974 C975 1.374 . S
C975 H955 0.950 1_554 S
C975 C971 1.385 . S
C975 C974 1.374 . S
C976 C973 1.499 . S
C976 C977 1.373 . S
C976 C978 1.389 . S
C977 H956 0.950 . S
C977 C976 1.373 . S
C977 C993 1.377 . S
C978 C976 1.389 . S
C978 C979 1.524 . S
C978 C992 1.377 . S
C979 C978 1.524 . S
C979 C980 1.397 . S
C979 C984 1.363 . S
C980 H957 0.950 . S
C980 C979 1.397 . S
C980 C981 1.334 . S
C981 H958 0.950 . S
C981 C980 1.334 . S
C981 C982 1.287 . S
C982 C981 1.287 . S
C982 C983 1.524 . S
C982 H1001 0.913 . S
C983 H959 0.950 . S
C983 C982 1.524 . S
C983 C984 1.415 . S
C984 H960 0.950 . S
C984 C979 1.363 . S
C984 C983 1.415 . S
C985 H961 0.951 . S
C985 C986 1.366 . S
C985 C987 1.388 . S
C986 C985 1.366 . S
C986 C990 1.385 . S
C987 H962 0.951 . S
C987 C985 1.388 . S
C987 C988 1.366 . S
C988 C987 1.366 . S
C988 C989 1.414 . S
C988 C991 1.499 . S
C989 H963 0.950 . S
C989 C988 1.414 . S
C989 C990 1.374 . S
C990 H964 0.950 . S
C990 C986 1.385 . S
C990 C989 1.374 . S
C991 C988 1.499 . S
C991 C992 1.373 . S
C991 C993 1.389 . S
C992 H965 0.950 . S
C992 C978 1.377 . S
C992 C991 1.373 . S
C993 C977 1.377 . S
C993 C991 1.389 . S
C993 C994 1.524 . S
C994 C993 1.524 . S
C994 C995 1.397 . S
C994 C999 1.363 . S
C995 H966 0.950 . S
C995 C994 1.397 . S
C995 C996 1.334 . S
C996 H967 0.950 . S
C996 C995 1.334 . S
C996 C997 1.287 . S
C997 C996 1.287 . S
C997 C998 1.524 . S
C997 H1000 0.999 . S
C998 H968 0.950 . S
C998 C997 1.524 . S
C998 C999 1.415 . S
C999 H969 0.950 . S
C999 C994 1.363 . S
C999 C998 1.415 . S
H1000 C997 0.999 . S
H1001 C982 0.913 . S
H1002 C1020 0.951 . S
H1003 C1022 0.951 . S
H1004 C1024 0.950 . S
H1005 C1025 0.950 . S
H1006 C1027 0.950 . S
H1007 C1030 0.950 . S
H1008 C1031 0.950 . S
H1009 C1033 0.950 . S
H1010 C1034 0.950 . S
H1011 C1035 0.951 . S
H1012 C1037 0.951 . S
H1013 C1039 0.950 . S
H1014 C1040 0.950 . S
H1015 C1042 0.950 . S
H1016 C1045 0.950 . S
H1017 C1046 0.950 . S
H1018 C1048 0.950 . S
H1019 C1049 0.950 . S
C1020 H1002 0.951 . S
C1020 C1021 1.366 . S
C1020 C1022 1.388 . S
C1021 C1020 1.366 . S
C1021 C1025 1.385 . S
C1022 H1003 0.951 . S
C1022 C1020 1.388 . S
C1022 C1023 1.366 . S
C1023 C1022 1.366 . S
C1023 C1024 1.414 . S
C1023 C1026 1.499 . S
C1024 H1004 0.950 . S
C1024 C1023 1.414 . S
C1024 C1025 1.374 . S
C1025 H1005 0.950 . S
C1025 C1021 1.385 . S
C1025 C1024 1.374 . S
C1026 C1023 1.499 . S
C1026 C1027 1.373 1_655 S
C1026 C1028 1.389 . S
C1027 H1006 0.950 . S
C1027 C1026 1.373 1_455 S
C1027 C1043 1.377 . S
C1028 C1026 1.389 . S
C1028 C1029 1.524 . S
C1028 C1042 1.377 . S
C1029 C1028 1.524 . S
C1029 C1030 1.397 . S
C1029 C1034 1.363 . S
C1030 H1007 0.950 . S
C1030 C1029 1.397 . S
C1030 C1031 1.334 . S
C1031 H1008 0.950 . S
C1031 C1030 1.334 . S
C1031 C1032 1.287 . S
C1032 C1031 1.287 . S
C1032 C1033 1.524 . S
C1032 H1051 0.913 . S
C1033 H1009 0.950 . S
C1033 C1032 1.524 . S
C1033 C1034 1.415 . S
C1034 H1010 0.950 . S
C1034 C1029 1.363 . S
C1034 C1033 1.415 . S
C1035 H1011 0.951 . S
C1035 C1036 1.366 . S
C1035 C1037 1.388 . S
C1036 C1035 1.366 . S
C1036 C1040 1.385 . S
C1037 H1012 0.951 . S
C1037 C1035 1.388 . S
C1037 C1038 1.366 . S
C1038 C1037 1.366 . S
C1038 C1039 1.414 . S
C1038 C1041 1.499 . S
C1039 H1013 0.950 . S
C1039 C1038 1.414 . S
C1039 C1040 1.374 . S
C1040 H1014 0.950 . S
C1040 C1036 1.385 . S
C1040 C1039 1.374 . S
C1041 C1038 1.499 . S
C1041 C1042 1.373 1_455 S
C1041 C1043 1.389 . S
C1042 H1015 0.950 . S
C1042 C1028 1.377 . S
C1042 C1041 1.373 1_655 S
C1043 C1027 1.377 . S
C1043 C1041 1.389 . S
C1043 C1044 1.524 . S
C1044 C1043 1.524 . S
C1044 C1045 1.397 . S
C1044 C1049 1.363 . S
C1045 H1016 0.950 . S
C1045 C1044 1.397 . S
C1045 C1046 1.334 . S
C1046 H1017 0.950 . S
C1046 C1045 1.334 . S
C1046 C1047 1.287 . S
C1047 C1046 1.287 . S
C1047 C1048 1.524 . S
C1047 H1050 0.999 . S
C1048 H1018 0.950 . S
C1048 C1047 1.524 . S
C1048 C1049 1.415 . S
C1049 H1019 0.950 . S
C1049 C1044 1.363 . S
C1049 C1048 1.415 . S
H1050 C1047 0.999 . S
H1051 C1032 0.913 . S
H1052 C1070 0.951 . S
H1053 C1072 0.951 . S
H1054 C1074 0.950 . S
H1055 C1075 0.950 . S
H1056 C1077 0.950 . S
H1057 C1080 0.950 . S
H1058 C1081 0.950 . S
H1059 C1083 0.950 . S
H1060 C1084 0.950 . S
H1061 C1085 0.951 . S
H1062 C1087 0.951 . S
H1063 C1089 0.950 . S
H1064 C1090 0.950 . S
H1065 C1092 0.950 . S
H1066 C1095 0.950 . S
H1067 C1096 0.950 . S
H1068 C1098 0.950 . S
H1069 C1099 0.950 . S
C1070 H1052 0.951 . S
C1070 C1071 1.366 . S
C1070 C1072 1.388 . S
C1071 C1070 1.366 . S
C1071 C1075 1.385 . S
C1072 H1053 0.951 . S
C1072 C1070 1.388 . S
C1072 C1073 1.366 . S
C1073 C1072 1.366 . S
C1073 C1074 1.414 . S
C1073 C1076 1.499 . S
C1074 H1054 0.950 . S
C1074 C1073 1.414 . S
C1074 C1075 1.374 . S
C1075 H1055 0.950 . S
C1075 C1071 1.385 . S
C1075 C1074 1.374 . S
C1076 C1073 1.499 . S
C1076 C1077 1.373 . S
C1076 C1078 1.389 . S
C1077 H1056 0.950 . S
C1077 C1076 1.373 . S
C1077 C1093 1.377 . S
C1078 C1076 1.389 . S
C1078 C1079 1.524 . S
C1078 C1092 1.377 . S
C1079 C1078 1.524 . S
C1079 C1080 1.397 . S
C1079 C1084 1.363 . S
C1080 H1057 0.950 . S
C1080 C1079 1.397 . S
C1080 C1081 1.334 . S
C1081 H1058 0.950 . S
C1081 C1080 1.334 . S
C1081 C1082 1.287 . S
C1082 C1081 1.287 . S
C1082 C1083 1.524 . S
C1082 H1101 0.913 . S
C1083 H1059 0.950 . S
C1083 C1082 1.524 . S
C1083 C1084 1.415 . S
C1084 H1060 0.950 . S
C1084 C1079 1.363 . S
C1084 C1083 1.415 . S
C1085 H1061 0.951 . S
C1085 C1086 1.366 . S
C1085 C1087 1.388 . S
C1086 C1085 1.366 . S
C1086 C1090 1.385 . S
C1087 H1062 0.951 . S
C1087 C1085 1.388 . S
C1087 C1088 1.366 . S
C1088 C1087 1.366 . S
C1088 C1089 1.414 . S
C1088 C1091 1.499 . S
C1089 H1063 0.950 . S
C1089 C1088 1.414 . S
C1089 C1090 1.374 . S
C1090 H1064 0.950 . S
C1090 C1086 1.385 . S
C1090 C1089 1.374 . S
C1091 C1088 1.499 . S
C1091 C1092 1.373 . S
C1091 C1093 1.389 . S
C1092 H1065 0.950 . S
C1092 C1078 1.377 . S
C1092 C1091 1.373 . S
C1093 C1077 1.377 . S
C1093 C1091 1.389 . S
C1093 C1094 1.524 . S
C1094 C1093 1.524 . S
C1094 C1095 1.397 . S
C1094 C1099 1.363 . S
C1095 H1066 0.950 . S
C1095 C1094 1.397 . S
C1095 C1096 1.334 . S
C1096 H1067 0.950 . S
C1096 C1095 1.334 . S
C1096 C1097 1.287 . S
C1097 C1096 1.287 . S
C1097 C1098 1.524 . S
C1097 H1100 0.999 . S
C1098 H1068 0.950 . S
C1098 C1097 1.524 . S
C1098 C1099 1.415 . S
C1099 H1069 0.950 . S
C1099 C1094 1.363 . S
C1099 C1098 1.415 . S
H1100 C1097 0.999 . S
H1101 C1082 0.913 . S
H1102 C1120 0.951 . S
H1103 C1122 0.951 . S
H1104 C1124 0.950 . S
H1105 C1125 0.950 . S
H1106 C1127 0.950 . S
H1107 C1130 0.950 . S
H1108 C1131 0.950 . S
H1109 C1133 0.950 . S
H1110 C1134 0.950 . S
H1111 C1135 0.951 . S
H1112 C1137 0.951 . S
H1113 C1139 0.950 . S
H1114 C1140 0.950 . S
H1115 C1142 0.950 . S
H1116 C1145 0.950 . S
H1117 C1146 0.950 . S
H1118 C1148 0.950 . S
H1119 C1149 0.950 . S
C1120 H1102 0.951 . S
C1120 C1121 1.366 . S
C1120 C1122 1.388 . S
C1121 C1120 1.366 . S
C1121 C1125 1.385 . S
C1122 H1103 0.951 . S
C1122 C1120 1.388 . S
C1122 C1123 1.366 . S
C1123 C1122 1.366 . S
C1123 C1124 1.414 . S
C1123 C1126 1.499 . S
C1124 H1104 0.950 . S
C1124 C1123 1.414 . S
C1124 C1125 1.374 . S
C1125 H1105 0.950 . S
C1125 C1121 1.385 . S
C1125 C1124 1.374 . S
C1126 C1123 1.499 . S
C1126 C1127 1.373 1_565 S
C1126 C1128 1.389 . S
C1127 H1106 0.950 . S
C1127 C1126 1.373 1_545 S
C1127 C1143 1.377 . S
C1128 C1126 1.389 . S
C1128 C1129 1.524 . S
C1128 C1142 1.377 . S
C1129 C1128 1.524 . S
C1129 C1130 1.397 . S
C1129 C1134 1.363 . S
C1130 H1107 0.950 . S
C1130 C1129 1.397 . S
C1130 C1131 1.334 . S
C1131 H1108 0.950 . S
C1131 C1130 1.334 . S
C1131 C1132 1.287 . S
C1132 C1131 1.287 . S
C1132 C1133 1.524 . S
C1132 H1151 0.913 . S
C1133 H1109 0.950 . S
C1133 C1132 1.524 . S
C1133 C1134 1.415 . S
C1134 H1110 0.950 . S
C1134 C1129 1.363 . S
C1134 C1133 1.415 . S
C1135 H1111 0.951 . S
C1135 C1136 1.366 . S
C1135 C1137 1.388 . S
C1136 C1135 1.366 . S
C1136 C1140 1.385 . S
C1137 H1112 0.951 . S
C1137 C1135 1.388 . S
C1137 C1138 1.366 . S
C1138 C1137 1.366 . S
C1138 C1139 1.414 . S
C1138 C1141 1.499 . S
C1139 H1113 0.950 . S
C1139 C1138 1.414 . S
C1139 C1140 1.374 . S
C1140 H1114 0.950 . S
C1140 C1136 1.385 . S
C1140 C1139 1.374 . S
C1141 C1138 1.499 . S
C1141 C1142 1.373 1_545 S
C1141 C1143 1.389 . S
C1142 H1115 0.950 . S
C1142 C1128 1.377 . S
C1142 C1141 1.373 1_565 S
C1143 C1127 1.377 . S
C1143 C1141 1.389 . S
C1143 C1144 1.524 . S
C1144 C1143 1.524 . S
C1144 C1145 1.397 . S
C1144 C1149 1.363 . S
C1145 H1116 0.950 . S
C1145 C1144 1.397 . S
C1145 C1146 1.334 . S
C1146 H1117 0.950 . S
C1146 C1145 1.334 . S
C1146 C1147 1.287 . S
C1147 C1146 1.287 . S
C1147 C1148 1.524 . S
C1147 H1150 0.999 . S
C1148 H1118 0.950 . S
C1148 C1147 1.524 . S
C1148 C1149 1.415 . S
C1149 H1119 0.950 . S
C1149 C1144 1.363 . S
C1149 C1148 1.415 . S
H1150 C1147 0.999 . S
H1151 C1132 0.913 . S
H1152 C1170 0.951 . S
H1153 C1172 0.951 . S
H1154 C1174 0.950 . S
H1155 C1175 0.950 . S
H1156 C1177 0.950 . S
H1157 C1180 0.950 . S
H1158 C1181 0.950 . S
H1159 C1183 0.950 . S
H1160 C1184 0.950 . S
H1161 C1185 0.951 . S
H1162 C1187 0.951 . S
H1163 C1189 0.950 . S
H1164 C1190 0.950 . S
H1165 C1192 0.950 . S
H1166 C1195 0.950 . S
H1167 C1196 0.950 . S
H1168 C1198 0.950 . S
H1169 C1199 0.950 . S
C1170 H1152 0.951 . S
C1170 C1171 1.366 . S
C1170 C1172 1.388 . S
C1171 C1170 1.366 . S
C1171 C1175 1.385 . S
C1172 H1153 0.951 . S
C1172 C1170 1.388 . S
C1172 C1173 1.366 . S
C1173 C1172 1.366 . S
C1173 C1174 1.414 . S
C1173 C1176 1.499 . S
C1174 H1154 0.950 . S
C1174 C1173 1.414 . S
C1174 C1175 1.374 . S
C1175 H1155 0.950 . S
C1175 C1171 1.385 . S
C1175 C1174 1.374 . S
C1176 C1173 1.499 . S
C1176 C1177 1.373 . S
C1176 C1178 1.389 1_554 S
C1177 H1156 0.950 . S
C1177 C1176 1.373 . S
C1177 C1193 1.377 . S
C1178 C1176 1.389 1_556 S
C1178 C1179 1.524 . S
C1178 C1192 1.377 . S
C1179 C1178 1.524 . S
C1179 C1180 1.397 . S
C1179 C1184 1.363 . S
C1180 H1157 0.950 . S
C1180 C1179 1.397 . S
C1180 C1181 1.334 . S
C1181 H1158 0.950 . S
C1181 C1180 1.334 . S
C1181 C1182 1.287 . S
C1182 C1181 1.287 . S
C1182 C1183 1.524 . S
C1182 H1201 0.913 . S
C1183 H1159 0.950 . S
C1183 C1182 1.524 . S
C1183 C1184 1.415 . S
C1184 H1160 0.950 . S
C1184 C1179 1.363 . S
C1184 C1183 1.415 . S
C1185 H1161 0.951 . S
C1185 C1186 1.366 . S
C1185 C1187 1.388 . S
C1186 C1185 1.366 . S
C1186 C1190 1.385 . S
C1187 H1162 0.951 . S
C1187 C1185 1.388 . S
C1187 C1188 1.366 . S
C1188 C1187 1.366 . S
C1188 C1189 1.414 . S
C1188 C1191 1.499 . S
C1189 H1163 0.950 . S
C1189 C1188 1.414 . S
C1189 C1190 1.374 . S
C1190 H1164 0.950 . S
C1190 C1186 1.385 . S
C1190 C1189 1.374 . S
C1191 C1188 1.499 . S
C1191 C1192 1.373 . S
C1191 C1193 1.389 1_556 S
C1192 H1165 0.950 . S
C1192 C1178 1.377 . S
C1192 C1191 1.373 . S
C1193 C1177 1.377 . S
C1193 C1191 1.389 1_554 S
C1193 C1194 1.524 . S
C1194 C1193 1.524 . S
C1194 C1195 1.397 . S
C1194 C1199 1.363 . S
C1195 H1166 0.950 . S
C1195 C1194 1.397 . S
C1195 C1196 1.334 . S
C1196 H1167 0.950 . S
C1196 C1195 1.334 . S
C1196 C1197 1.287 . S
C1197 C1196 1.287 . S
C1197 C1198 1.524 . S
C1197 H1200 0.999 . S
C1198 H1168 0.950 . S
C1198 C1197 1.524 . S
C1198 C1199 1.415 . S
C1199 H1169 0.950 . S
C1199 C1194 1.363 . S
C1199 C1198 1.415 . S
H1200 C1197 0.999 . S
H1201 C1182 0.913 . S
H1202 C1220 0.951 . S
H1203 C1222 0.951 . S
H1204 C1224 0.950 . S
H1205 C1225 0.950 . S
H1206 C1227 0.950 . S
H1207 C1230 0.950 . S
H1208 C1231 0.950 . S
H1209 C1233 0.950 . S
H1210 C1234 0.950 . S
H1211 C1235 0.951 . S
H1212 C1237 0.951 . S
H1213 C1239 0.950 . S
H1214 C1240 0.950 . S
H1215 C1242 0.950 . S
H1216 C1245 0.950 . S
H1217 C1246 0.950 . S
H1218 C1248 0.950 . S
H1219 C1249 0.950 . S
C1220 H1202 0.951 . S
C1220 C1221 1.366 . S
C1220 C1222 1.388 . S
C1221 C1220 1.366 . S
C1221 C1225 1.385 . S
C1222 H1203 0.951 . S
C1222 C1220 1.388 . S
C1222 C1223 1.366 . S
C1223 C1222 1.366 . S
C1223 C1224 1.414 . S
C1223 C1226 1.499 . S
C1224 H1204 0.950 . S
C1224 C1223 1.414 . S
C1224 C1225 1.374 . S
C1225 H1205 0.950 . S
C1225 C1221 1.385 . S
C1225 C1224 1.374 . S
C1226 C1223 1.499 . S
C1226 C1227 1.373 . S
C1226 C1228 1.389 1_556 S
C1227 H1206 0.950 . S
C1227 C1226 1.373 . S
C1227 C1243 1.377 1_545 S
C1228 C1226 1.389 1_554 S
C1228 C1229 1.524 . S
C1228 C1242 1.377 1_545 S
C1229 C1228 1.524 . S
C1229 C1230 1.397 . S
C1229 C1234 1.363 . S
C1230 H1207 0.950 . S
C1230 C1229 1.397 . S
C1230 C1231 1.334 . S
C1231 H1208 0.950 . S
C1231 C1230 1.334 . S
C1231 C1232 1.287 . S
C1232 C1231 1.287 . S
C1232 C1233 1.524 . S
C1232 H1251 0.913 . S
C1233 H1209 0.950 . S
C1233 C1232 1.524 . S
C1233 C1234 1.415 . S
C1234 H1210 0.950 . S
C1234 C1229 1.363 . S
C1234 C1233 1.415 . S
C1235 H1211 0.951 . S
C1235 C1236 1.366 . S
C1235 C1237 1.388 . S
C1236 C1235 1.366 . S
C1236 C1240 1.385 . S
C1237 H1212 0.951 . S
C1237 C1235 1.388 . S
C1237 C1238 1.366 . S
C1238 C1237 1.366 . S
C1238 C1239 1.414 . S
C1238 C1241 1.499 . S
C1239 H1213 0.950 . S
C1239 C1238 1.414 . S
C1239 C1240 1.374 . S
C1240 H1214 0.950 . S
C1240 C1236 1.385 . S
C1240 C1239 1.374 . S
C1241 C1238 1.499 . S
C1241 C1242 1.373 . S
C1241 C1243 1.389 1_554 S
C1242 H1215 0.950 . S
C1242 C1228 1.377 1_565 S
C1242 C1241 1.373 . S
C1243 C1227 1.377 1_565 S
C1243 C1241 1.389 1_556 S
C1243 C1244 1.524 . S
C1244 C1243 1.524 . S
C1244 C1245 1.397 . S
C1244 C1249 1.363 . S
C1245 H1216 0.950 . S
C1245 C1244 1.397 . S
C1245 C1246 1.334 . S
C1246 H1217 0.950 . S
C1246 C1245 1.334 . S
C1246 C1247 1.287 . S
C1247 C1246 1.287 . S
C1247 C1248 1.524 . S
C1247 H1250 0.999 . S
C1248 H1218 0.950 . S
C1248 C1247 1.524 . S
C1248 C1249 1.415 . S
C1249 H1219 0.950 . S
C1249 C1244 1.363 . S
C1249 C1248 1.415 . S
H1250 C1247 0.999 . S
H1251 C1232 0.913 . S
H1252 C1270 0.951 1_554 S
H1253 C1272 0.951 . S
H1254 C1274 0.950 . S
H1255 C1275 0.950 . S
H1256 C1277 0.950 . S
H1257 C1280 0.950 . S
H1258 C1281 0.950 . S
H1259 C1283 0.950 . S
H1260 C1284 0.950 . S
H1261 C1285 0.951 1_556 S
H1262 C1287 0.951 . S
H1263 C1289 0.950 . S
H1264 C1290 0.950 . S
H1265 C1292 0.950 . S
H1266 C1295 0.950 . S
H1267 C1296 0.950 . S
H1268 C1298 0.950 . S
H1269 C1299 0.950 . S
C1270 H1252 0.951 1_556 S
C1270 C1271 1.366 . S
C1270 C1272 1.388 1_556 S
C1271 C1270 1.366 . S
C1271 C1275 1.385 . S
C1272 H1253 0.951 . S
C1272 C1270 1.388 1_554 S
C1272 C1273 1.366 1_554 S
C1273 C1272 1.366 1_556 S
C1273 C1274 1.414 . S
C1273 C1276 1.499 . S
C1274 H1254 0.950 . S
C1274 C1273 1.414 . S
C1274 C1275 1.374 . S
C1275 H1255 0.950 . S
C1275 C1271 1.385 . S
C1275 C1274 1.374 . S
C1276 C1273 1.499 . S
C1276 C1277 1.373 . S
C1276 C1278 1.389 . S
C1277 H1256 0.950 . S
C1277 C1276 1.373 . S
C1277 C1293 1.377 1_656 S
C1278 C1276 1.389 . S
C1278 C1279 1.524 . S
C1278 C1292 1.377 1_656 S
C1279 C1278 1.524 . S
C1279 C1280 1.397 . S
C1279 C1284 1.363 1_556 S
C1280 H1257 0.950 . S
C1280 C1279 1.397 . S
C1280 C1281 1.334 . S
C1281 H1258 0.950 . S
C1281 C1280 1.334 . S
C1281 C1282 1.287 . S
C1282 C1281 1.287 . S
C1282 C1283 1.524 1_556 S
C1282 H1301 0.913 . S
C1283 H1259 0.950 . S
C1283 C1282 1.524 1_554 S
C1283 C1284 1.415 . S
C1284 H1260 0.950 . S
C1284 C1279 1.363 1_554 S
C1284 C1283 1.415 . S
C1285 H1261 0.951 1_554 S
C1285 C1286 1.366 . S
C1285 C1287 1.388 1_554 S
C1286 C1285 1.366 . S
C1286 C1290 1.385 . S
C1287 H1262 0.951 . S
C1287 C1285 1.388 1_556 S
C1287 C1288 1.366 1_556 S
C1288 C1287 1.366 1_554 S
C1288 C1289 1.414 . S
C1288 C1291 1.499 . S
C1289 H1263 0.950 . S
C1289 C1288 1.414 . S
C1289 C1290 1.374 . S
C1290 H1264 0.950 . S
C1290 C1286 1.385 . S
C1290 C1289 1.374 . S
C1291 C1288 1.499 . S
C1291 C1292 1.373 . S
C1291 C1293 1.389 . S
C1292 H1265 0.950 . S
C1292 C1278 1.377 1_454 S
C1292 C1291 1.373 . S
C1293 C1277 1.377 1_454 S
C1293 C1291 1.389 . S
C1293 C1294 1.524 . S
C1294 C1293 1.524 . S
C1294 C1295 1.397 . S
C1294 C1299 1.363 1_554 S
C1295 H1266 0.950 . S
C1295 C1294 1.397 . S
C1295 C1296 1.334 . S
C1296 H1267 0.950 . S
C1296 C1295 1.334 . S
C1296 C1297 1.287 . S
C1297 C1296 1.287 . S
C1297 C1298 1.524 1_554 S
C1297 H1300 0.999 . S
C1298 H1268 0.950 . S
C1298 C1297 1.524 1_556 S
C1298 C1299 1.415 . S
C1299 H1269 0.950 . S
C1299 C1294 1.363 1_556 S
C1299 C1298 1.415 . S
H1300 C1297 0.999 . S
H1301 C1282 0.913 . S
H1302 C1320 0.951 . S
H1303 C1322 0.951 1_554 S
H1304 C1324 0.950 . S
H1305 C1325 0.950 . S
H1306 C1327 0.950 . S
H1307 C1330 0.950 . S
H1308 C1331 0.950 . S
H1309 C1333 0.950 . S
H1310 C1334 0.950 . S
H1311 C1335 0.951 . S
H1312 C1337 0.951 1_556 S
H1313 C1339 0.950 . S
H1314 C1340 0.950 . S
H1315 C1342 0.950 . S
H1316 C1345 0.950 . S
H1317 C1346 0.950 . S
H1318 C1348 0.950 . S
H1319 C1349 0.950 . S
C1320 H1302 0.951 . S
C1320 C1321 1.366 . S
C1320 C1322 1.388 . S
C1321 C1320 1.366 . S
C1321 C1325 1.385 . S
C1322 H1303 0.951 1_556 S
C1322 C1320 1.388 . S
C1322 C1323 1.366 . S
C1323 C1322 1.366 . S
C1323 C1324 1.414 . S
C1323 C1326 1.499 . S
C1324 H1304 0.950 . S
C1324 C1323 1.414 . S
C1324 C1325 1.374 . S
C1325 H1305 0.950 . S
C1325 C1321 1.385 . S
C1325 C1324 1.374 . S
C1326 C1323 1.499 . S
C1326 C1327 1.373 . S
C1326 C1328 1.389 1_556 S
C1327 H1306 0.950 . S
C1327 C1326 1.373 . S
C1327 C1343 1.377 . S
C1328 C1326 1.389 1_554 S
C1328 C1329 1.524 . S
C1328 C1342 1.377 . S
C1329 C1328 1.524 . S
C1329 C1330 1.397 . S
C1329 C1334 1.363 . S
C1330 H1307 0.950 . S
C1330 C1329 1.397 . S
C1330 C1331 1.334 . S
C1331 H1308 0.950 . S
C1331 C1330 1.334 . S
C1331 C1332 1.287 . S
C1332 C1331 1.287 . S
C1332 C1333 1.524 . S
C1332 H1351 0.913 . S
C1333 H1309 0.950 . S
C1333 C1332 1.524 . S
C1333 C1334 1.415 . S
C1334 H1310 0.950 . S
C1334 C1329 1.363 . S
C1334 C1333 1.415 . S
C1335 H1311 0.951 . S
C1335 C1336 1.366 . S
C1335 C1337 1.388 . S
C1336 C1335 1.366 . S
C1336 C1340 1.385 . S
C1337 H1312 0.951 1_554 S
C1337 C1335 1.388 . S
C1337 C1338 1.366 . S
C1338 C1337 1.366 . S
C1338 C1339 1.414 . S
C1338 C1341 1.499 . S
C1339 H1313 0.950 . S
C1339 C1338 1.414 . S
C1339 C1340 1.374 . S
C1340 H1314 0.950 . S
C1340 C1336 1.385 . S
C1340 C1339 1.374 . S
C1341 C1338 1.499 . S
C1341 C1342 1.373 . S
C1341 C1343 1.389 1_554 S
C1342 H1315 0.950 . S
C1342 C1328 1.377 . S
C1342 C1341 1.373 . S
C1343 C1327 1.377 . S
C1343 C1341 1.389 1_556 S
C1343 C1344 1.524 . S
C1344 C1343 1.524 . S
C1344 C1345 1.397 . S
C1344 C1349 1.363 . S
C1345 H1316 0.950 . S
C1345 C1344 1.397 . S
C1345 C1346 1.334 . S
C1346 H1317 0.950 . S
C1346 C1345 1.334 . S
C1346 C1347 1.287 . S
C1347 C1346 1.287 . S
C1347 C1348 1.524 . S
C1347 H1350 0.999 . S
C1348 H1318 0.950 . S
C1348 C1347 1.524 . S
C1348 C1349 1.415 . S
C1349 H1319 0.950 . S
C1349 C1344 1.363 . S
C1349 C1348 1.415 . S
H1350 C1347 0.999 . S
H1351 C1332 0.913 . S
H1352 C1370 0.951 . S
H1353 C1372 0.951 . S
H1354 C1374 0.950 . S
H1355 C1375 0.950 1_556 S
H1356 C1377 0.950 . S
H1357 C1380 0.950 . S
H1358 C1381 0.950 . S
H1359 C1383 0.958 . S
H1360 C1384 0.950 1_545 S
H1361 C1385 0.951 . S
H1362 C1387 0.951 . S
H1363 C1389 0.950 . S
H1364 C1390 0.950 1_554 S
H1365 C1392 0.950 . S
H1366 C1395 0.950 . S
H1367 C1396 0.950 . S
H1368 C1398 0.958 . S
H1369 C1399 0.950 1_565 S
C1370 H1352 0.951 . S
C1370 C1371 1.366 . S
C1370 C1372 1.388 . S
C1371 C1370 1.366 . S
C1371 C1375 1.385 . S
C1372 H1353 0.951 . S
C1372 C1370 1.388 . S
C1372 C1373 1.366 . S
C1373 C1372 1.366 . S
C1373 C1374 1.414 1_554 S
C1373 C1376 1.499 . S
C1374 H1354 0.950 . S
C1374 C1373 1.414 1_556 S
C1374 C1375 1.374 1_556 S
C1375 H1355 0.950 1_554 S
C1375 C1371 1.385 . S
C1375 C1374 1.374 1_554 S
C1376 C1373 1.499 . S
C1376 C1377 1.373 1_554 S
C1376 C1378 1.389 . S
C1377 H1356 0.950 . S
C1377 C1376 1.373 1_556 S
C1377 C1393 1.377 1_565 S
C1378 C1376 1.389 . S
C1378 C1379 1.524 . S
C1378 C1392 1.377 1_565 S
C1379 C1378 1.524 . S
C1379 C1380 1.397 . S
C1379 C1384 1.363 . S
C1380 H1357 0.950 . S
C1380 C1379 1.397 . S
C1380 C1381 1.334 . S
C1381 H1358 0.950 . S
C1381 C1380 1.334 . S
C1381 C1382 1.287 . S
C1382 C1381 1.287 . S
C1382 C1383 1.524 . S
C1382 H1401 0.913 . S
C1383 H1359 0.958 . S
C1383 C1382 1.524 . S
C1383 C1384 1.415 . S
C1384 H1360 0.950 1_565 S
C1384 C1379 1.363 . S
C1384 C1383 1.415 . S
C1385 H1361 0.951 . S
C1385 C1386 1.366 . S
C1385 C1387 1.388 . S
C1386 C1385 1.366 . S
C1386 C1390 1.385 . S
C1387 H1362 0.951 . S
C1387 C1385 1.388 . S
C1387 C1388 1.366 . S
C1388 C1387 1.366 . S
C1388 C1389 1.414 1_556 S
C1388 C1391 1.499 . S
C1389 H1363 0.950 . S
C1389 C1388 1.414 1_554 S
C1389 C1390 1.374 1_554 S
C1390 H1364 0.950 1_556 S
C1390 C1386 1.385 . S
C1390 C1389 1.374 1_556 S
C1391 C1388 1.499 . S
C1391 C1392 1.373 1_556 S
C1391 C1393 1.389 . S
C1392 H1365 0.950 . S
C1392 C1378 1.377 1_545 S
C1392 C1391 1.373 1_554 S
C1393 C1377 1.377 1_545 S
C1393 C1391 1.389 . S
C1393 C1394 1.524 . S
C1394 C1393 1.524 . S
C1394 C1395 1.397 . S
C1394 C1399 1.363 . S
C1395 H1366 0.950 . S
C1395 C1394 1.397 . S
C1395 C1396 1.334 . S
C1396 H1367 0.950 . S
C1396 C1395 1.334 . S
C1396 C1397 1.287 . S
C1397 C1396 1.287 . S
C1397 C1398 1.524 . S
C1397 H1400 0.999 . S
C1398 H1368 0.958 . S
C1398 C1397 1.524 . S
C1398 C1399 1.415 . S
C1399 H1369 0.950 1_545 S
C1399 C1394 1.363 . S
C1399 C1398 1.415 . S
H1400 C1397 0.999 . S
H1401 C1382 0.913 . S
H1402 C1420 0.951 1_554 S
H1403 C1422 0.951 . S
H1404 C1424 0.950 . S
H1405 C1425 0.950 . S
H1406 C1427 0.950 . S
H1407 C1430 0.950 . S
H1408 C1431 0.950 . S
H1409 C1433 0.950 . S
H1410 C1434 0.950 . S
H1411 C1435 0.951 1_556 S
H1412 C1437 0.951 . S
H1413 C1439 0.950 . S
H1414 C1440 0.950 . S
H1415 C1442 0.950 . S
H1416 C1445 0.950 . S
H1417 C1446 0.950 . S
H1418 C1448 0.950 . S
H1419 C1449 0.950 . S
C1420 H1402 0.951 1_556 S
C1420 C1421 1.366 . S
C1420 C1422 1.388 1_556 S
C1421 C1420 1.366 . S
C1421 C1425 1.385 . S
C1422 H1403 0.951 . S
C1422 C1420 1.388 1_554 S
C1422 C1423 1.366 1_554 S
C1423 C1422 1.366 1_556 S
C1423 C1424 1.414 . S
C1423 C1426 1.499 . S
C1424 H1404 0.950 . S
C1424 C1423 1.414 . S
C1424 C1425 1.374 . S
C1425 H1405 0.950 . S
C1425 C1421 1.385 . S
C1425 C1424 1.374 . S
C1426 C1423 1.499 . S
C1426 C1427 1.373 . S
C1426 C1428 1.389 1_556 S
C1427 H1406 0.950 . S
C1427 C1426 1.373 . S
C1427 C1443 1.377 1_655 S
C1428 C1426 1.389 1_554 S
C1428 C1429 1.524 . S
C1428 C1442 1.377 1_655 S
C1429 C1428 1.524 . S
C1429 C1430 1.397 . S
C1429 C1434 1.363 . S
C1430 H1407 0.950 . S
C1430 C1429 1.397 . S
C1430 C1431 1.334 . S
C1431 H1408 0.950 . S
C1431 C1430 1.334 . S
C1431 C1432 1.287 . S
C1432 C1431 1.287 . S
C1432 C1433 1.524 . S
C1432 H1451 0.913 . S
C1433 H1409 0.950 . S
C1433 C1432 1.524 . S
C1433 C1434 1.415 . S
C1434 H1410 0.950 . S
C1434 C1429 1.363 . S
C1434 C1433 1.415 . S
C1435 H1411 0.951 1_554 S
C1435 C1436 1.366 . S
C1435 C1437 1.388 1_554 S
C1436 C1435 1.366 . S
C1436 C1440 1.385 . S
C1437 H1412 0.951 . S
C1437 C1435 1.388 1_556 S
C1437 C1438 1.366 1_556 S
C1438 C1437 1.366 1_554 S
C1438 C1439 1.414 . S
C1438 C1441 1.499 . S
C1439 H1413 0.950 . S
C1439 C1438 1.414 . S
C1439 C1440 1.374 . S
C1440 H1414 0.950 . S
C1440 C1436 1.385 . S
C1440 C1439 1.374 . S
C1441 C1438 1.499 . S
C1441 C1442 1.373 . S
C1441 C1443 1.389 1_554 S
C1442 H1415 0.950 . S
C1442 C1428 1.377 1_455 S
C1442 C1441 1.373 . S
C1443 C1427 1.377 1_455 S
C1443 C1441 1.389 1_556 S
C1443 C1444 1.524 . S
C1444 C1443 1.524 . S
C1444 C1445 1.397 . S
C1444 C1449 1.363 . S
C1445 H1416 0.950 . S
C1445 C1444 1.397 . S
C1445 C1446 1.334 . S
C1446 H1417 0.950 . S
C1446 C1445 1.334 . S
C1446 C1447 1.287 . S
C1447 C1446 1.287 . S
C1447 C1448 1.524 . S
C1447 H1450 0.999 . S
C1448 H1418 0.950 . S
C1448 C1447 1.524 . S
C1448 C1449 1.415 . S
C1449 H1419 0.950 . S
C1449 C1444 1.363 . S
C1449 C1448 1.415 . S
H1450 C1447 0.999 . S
H1451 C1432 0.913 . S
H1452 C1470 0.951 . S
H1453 C1472 0.951 . S
H1454 C1474 0.950 . S
H1455 C1475 0.950 . S
H1456 C1477 0.950 . S
H1457 C1480 0.950 . S
H1458 C1481 0.950 . S
H1459 C1483 0.950 . S
H1460 C1484 0.950 . S
H1461 C1485 0.951 . S
H1462 C1487 0.951 . S
H1463 C1489 0.950 . S
H1464 C1490 0.950 . S
H1465 C1492 0.950 . S
H1466 C1495 0.950 . S
H1467 C1496 0.950 . S
H1468 C1498 0.950 . S
H1469 C1499 0.950 . S
C1470 H1452 0.951 . S
C1470 C1471 1.366 . S
C1470 C1472 1.388 . S
C1471 C1470 1.366 . S
C1471 C1475 1.385 . S
C1472 H1453 0.951 . S
C1472 C1470 1.388 . S
C1472 C1473 1.366 . S
C1473 C1472 1.366 . S
C1473 C1474 1.414 . S
C1473 C1476 1.499 . S
C1474 H1454 0.950 . S
C1474 C1473 1.414 . S
C1474 C1475 1.374 . S
C1475 H1455 0.950 . S
C1475 C1471 1.385 . S
C1475 C1474 1.374 . S
C1476 C1473 1.499 . S
C1476 C1477 1.373 . S
C1476 C1478 1.389 . S
C1477 H1456 0.950 . S
C1477 C1476 1.373 . S
C1477 C1493 1.377 . S
C1478 C1476 1.389 . S
C1478 C1479 1.524 . S
C1478 C1492 1.377 . S
C1479 C1478 1.524 . S
C1479 C1480 1.397 . S
C1479 C1484 1.363 . S
C1480 H1457 0.950 . S
C1480 C1479 1.397 . S
C1480 C1481 1.334 . S
C1481 H1458 0.950 . S
C1481 C1480 1.334 . S
C1481 C1482 1.287 . S
C1482 C1481 1.287 . S
C1482 C1483 1.524 . S
C1482 H1501 0.913 . S
C1483 H1459 0.950 . S
C1483 C1482 1.524 . S
C1483 C1484 1.415 . S
C1484 H1460 0.950 . S
C1484 C1479 1.363 . S
C1484 C1483 1.415 . S
C1485 H1461 0.951 . S
C1485 C1486 1.366 . S
C1485 C1487 1.388 . S
C1486 C1485 1.366 . S
C1486 C1490 1.385 . S
C1487 H1462 0.951 . S
C1487 C1485 1.388 . S
C1487 C1488 1.366 . S
C1488 C1487 1.366 . S
C1488 C1489 1.414 . S
C1488 C1491 1.499 . S
C1489 H1463 0.950 . S
C1489 C1488 1.414 . S
C1489 C1490 1.374 . S
C1490 H1464 0.950 . S
C1490 C1486 1.385 . S
C1490 C1489 1.374 . S
C1491 C1488 1.499 . S
C1491 C1492 1.373 . S
C1491 C1493 1.389 . S
C1492 H1465 0.950 . S
C1492 C1478 1.377 . S
C1492 C1491 1.373 . S
C1493 C1477 1.377 . S
C1493 C1491 1.389 . S
C1493 C1494 1.524 . S
C1494 C1493 1.524 . S
C1494 C1495 1.397 . S
C1494 C1499 1.363 . S
C1495 H1466 0.950 . S
C1495 C1494 1.397 . S
C1495 C1496 1.334 . S
C1496 H1467 0.950 . S
C1496 C1495 1.334 . S
C1496 C1497 1.287 . S
C1497 C1496 1.287 . S
C1497 C1498 1.524 . S
C1497 H1500 0.999 . S
C1498 H1468 0.950 . S
C1498 C1497 1.524 . S
C1498 C1499 1.415 . S
C1499 H1469 0.950 . S
C1499 C1494 1.363 . S
C1499 C1498 1.415 . S
H1500 C1497 0.999 . S
H1501 C1482 0.913 . S
H1502 C1520 0.951 . S
H1503 C1522 0.951 . S
H1504 C1524 0.950 . S
H1505 C1525 0.950 . S
H1506 C1527 0.950 . S
H1507 C1530 0.950 . S
H1508 C1531 0.950 . S
H1509 C1533 0.950 . S
H1510 C1534 0.950 . S
H1511 C1535 0.951 . S
H1512 C1537 0.951 . S
H1513 C1539 0.950 . S
H1514 C1540 0.950 . S
H1515 C1542 0.950 . S
H1516 C1545 0.950 . S
H1517 C1546 0.950 . S
H1518 C1548 0.950 . S
H1519 C1549 0.950 . S
C1520 H1502 0.951 . S
C1520 C1521 1.366 . S
C1520 C1522 1.388 . S
C1521 C1520 1.366 . S
C1521 C1525 1.385 . S
C1522 H1503 0.951 . S
C1522 C1520 1.388 . S
C1522 C1523 1.366 . S
C1523 C1522 1.366 . S
C1523 C1524 1.414 . S
C1523 C1526 1.499 . S
C1524 H1504 0.950 . S
C1524 C1523 1.414 . S
C1524 C1525 1.374 . S
C1525 H1505 0.950 . S
C1525 C1521 1.385 . S
C1525 C1524 1.374 . S
C1526 C1523 1.499 . S
C1526 C1527 1.373 . S
C1526 C1528 1.389 . S
C1527 H1506 0.950 . S
C1527 C1526 1.373 . S
C1527 C1543 1.377 . S
C1528 C1526 1.389 . S
C1528 C1529 1.524 . S
C1528 C1542 1.377 . S
C1529 C1528 1.524 . S
C1529 C1530 1.397 . S
C1529 C1534 1.363 . S
C1530 H1507 0.950 . S
C1530 C1529 1.397 . S
C1530 C1531 1.334 . S
C1531 H1508 0.950 . S
C1531 C1530 1.334 . S
C1531 C1532 1.287 . S
C1532 C1531 1.287 . S
C1532 C1533 1.524 . S
C1532 H1551 0.913 . S
C1533 H1509 0.950 . S
C1533 C1532 1.524 . S
C1533 C1534 1.415 . S
C1534 H1510 0.950 . S
C1534 C1529 1.363 . S
C1534 C1533 1.415 . S
C1535 H1511 0.951 . S
C1535 C1536 1.366 . S
C1535 C1537 1.388 . S
C1536 C1535 1.366 . S
C1536 C1540 1.385 . S
C1537 H1512 0.951 . S
C1537 C1535 1.388 . S
C1537 C1538 1.366 . S
C1538 C1537 1.366 . S
C1538 C1539 1.414 . S
C1538 C1541 1.499 . S
C1539 H1513 0.950 . S
C1539 C1538 1.414 . S
C1539 C1540 1.374 . S
C1540 H1514 0.950 . S
C1540 C1536 1.385 . S
C1540 C1539 1.374 . S
C1541 C1538 1.499 . S
C1541 C1542 1.373 . S
C1541 C1543 1.389 . S
C1542 H1515 0.950 . S
C1542 C1528 1.377 . S
C1542 C1541 1.373 . S
C1543 C1527 1.377 . S
C1543 C1541 1.389 . S
C1543 C1544 1.524 . S
C1544 C1543 1.524 . S
C1544 C1545 1.397 . S
C1544 C1549 1.363 . S
C1545 H1516 0.950 . S
C1545 C1544 1.397 . S
C1545 C1546 1.334 . S
C1546 H1517 0.950 . S
C1546 C1545 1.334 . S
C1546 C1547 1.287 . S
C1547 C1546 1.287 . S
C1547 C1548 1.524 . S
C1547 H1550 0.999 . S
C1548 H1518 0.950 . S
C1548 C1547 1.524 . S
C1548 C1549 1.415 . S
C1549 H1519 0.950 . S
C1549 C1544 1.363 . S
C1549 C1548 1.415 . S
H1550 C1547 0.999 . S
H1551 C1532 0.913 . S
H1552 C1570 0.951 . S
H1553 C1572 0.951 . S
H1554 C1574 0.950 . S
H1555 C1575 0.950 . S
H1556 C1577 0.950 . S
H1557 C1580 0.950 . S
H1558 C1581 0.950 . S
H1559 C1583 0.950 . S
H1560 C1584 0.950 . S
H1561 C1585 0.951 . S
H1562 C1587 0.951 . S
H1563 C1589 0.950 . S
H1564 C1590 0.950 . S
H1565 C1592 0.950 . S
H1566 C1595 0.950 . S
H1567 C1596 0.950 . S
H1568 C1598 0.950 . S
H1569 C1599 0.950 . S
C1570 H1552 0.951 . S
C1570 C1571 1.366 . S
C1570 C1572 1.388 . S
C1571 C1570 1.366 . S
C1571 C1575 1.385 . S
C1572 H1553 0.951 . S
C1572 C1570 1.388 . S
C1572 C1573 1.366 . S
C1573 C1572 1.366 . S
C1573 C1574 1.414 . S
C1573 C1576 1.499 . S
C1574 H1554 0.950 . S
C1574 C1573 1.414 . S
C1574 C1575 1.374 . S
C1575 H1555 0.950 . S
C1575 C1571 1.385 . S
C1575 C1574 1.374 . S
C1576 C1573 1.499 . S
C1576 C1577 1.373 . S
C1576 C1578 1.389 . S
C1577 H1556 0.950 . S
C1577 C1576 1.373 . S
C1577 C1593 1.377 . S
C1578 C1576 1.389 . S
C1578 C1579 1.524 . S
C1578 C1592 1.377 . S
C1579 C1578 1.524 . S
C1579 C1580 1.397 . S
C1579 C1584 1.363 . S
C1580 H1557 0.950 . S
C1580 C1579 1.397 . S
C1580 C1581 1.334 . S
C1581 H1558 0.950 . S
C1581 C1580 1.334 . S
C1581 C1582 1.287 . S
C1582 C1581 1.287 . S
C1582 C1583 1.524 . S
C1582 H1601 0.913 . S
C1583 H1559 0.950 . S
C1583 C1582 1.524 . S
C1583 C1584 1.415 . S
C1584 H1560 0.950 . S
C1584 C1579 1.363 . S
C1584 C1583 1.415 . S
C1585 H1561 0.951 . S
C1585 C1586 1.366 . S
C1585 C1587 1.388 . S
C1586 C1585 1.366 . S
C1586 C1590 1.385 . S
C1587 H1562 0.951 . S
C1587 C1585 1.388 . S
C1587 C1588 1.366 . S
C1588 C1587 1.366 . S
C1588 C1589 1.414 . S
C1588 C1591 1.499 . S
C1589 H1563 0.950 . S
C1589 C1588 1.414 . S
C1589 C1590 1.374 . S
C1590 H1564 0.950 . S
C1590 C1586 1.385 . S
C1590 C1589 1.374 . S
C1591 C1588 1.499 . S
C1591 C1592 1.373 . S
C1591 C1593 1.389 . S
C1592 H1565 0.950 . S
C1592 C1578 1.377 . S
C1592 C1591 1.373 . S
C1593 C1577 1.377 . S
C1593 C1591 1.389 . S
C1593 C1594 1.524 . S
C1594 C1593 1.524 . S
C1594 C1595 1.397 . S
C1594 C1599 1.363 . S
C1595 H1566 0.950 . S
C1595 C1594 1.397 . S
C1595 C1596 1.334 . S
C1596 H1567 0.950 . S
C1596 C1595 1.334 . S
C1596 C1597 1.287 . S
C1597 C1596 1.287 . S
C1597 C1598 1.524 . S
C1597 H1600 0.999 . S
C1598 H1568 0.950 . S
C1598 C1597 1.524 . S
C1598 C1599 1.415 . S
C1599 H1569 0.950 . S
C1599 C1594 1.363 . S
C1599 C1598 1.415 . S
H1600 C1597 0.999 . S
H1601 C1582 0.913 . S
H1602 C1620 0.951 . S
H1603 C1622 0.951 . S
H1604 C1624 0.950 . S
H1605 C1625 0.950 . S
H1606 C1627 0.950 . S
H1607 C1630 0.950 . S
H1608 C1631 0.950 . S
H1609 C1633 0.950 . S
H1610 C1634 0.950 . S
H1611 C1635 0.951 . S
H1612 C1637 0.951 . S
H1613 C1639 0.950 . S
H1614 C1640 0.950 . S
H1615 C1642 0.950 . S
H1616 C1645 0.950 . S
H1617 C1646 0.950 . S
H1618 C1648 0.950 . S
H1619 C1649 0.950 . S
C1620 H1602 0.951 . S
C1620 C1621 1.366 . S
C1620 C1622 1.388 . S
C1621 C1620 1.366 . S
C1621 C1625 1.385 . S
C1622 H1603 0.951 . S
C1622 C1620 1.388 . S
C1622 C1623 1.366 . S
C1623 C1622 1.366 . S
C1623 C1624 1.414 . S
C1623 C1626 1.499 . S
C1624 H1604 0.950 . S
C1624 C1623 1.414 . S
C1624 C1625 1.374 . S
C1625 H1605 0.950 . S
C1625 C1621 1.385 . S
C1625 C1624 1.374 . S
C1626 C1623 1.499 . S
C1626 C1627 1.373 . S
C1626 C1628 1.389 . S
C1627 H1606 0.950 . S
C1627 C1626 1.373 . S
C1627 C1643 1.377 . S
C1628 C1626 1.389 . S
C1628 C1629 1.524 . S
C1628 C1642 1.377 . S
C1629 C1628 1.524 . S
C1629 C1630 1.397 . S
C1629 C1634 1.363 . S
C1630 H1607 0.950 . S
C1630 C1629 1.397 . S
C1630 C1631 1.334 . S
C1631 H1608 0.950 . S
C1631 C1630 1.334 . S
C1631 C1632 1.287 . S
C1632 C1631 1.287 . S
C1632 C1633 1.524 . S
C1632 H1651 0.913 . S
C1633 H1609 0.950 . S
C1633 C1632 1.524 . S
C1633 C1634 1.415 . S
C1634 H1610 0.950 . S
C1634 C1629 1.363 . S
C1634 C1633 1.415 . S
C1635 H1611 0.951 . S
C1635 C1636 1.366 . S
C1635 C1637 1.388 . S
C1636 C1635 1.366 . S
C1636 C1640 1.385 . S
C1637 H1612 0.951 . S
C1637 C1635 1.388 . S
C1637 C1638 1.366 . S
C1638 C1637 1.366 . S
C1638 C1639 1.414 . S
C1638 C1641 1.499 . S
C1639 H1613 0.950 . S
C1639 C1638 1.414 . S
C1639 C1640 1.374 . S
C1640 H1614 0.950 . S
C1640 C1636 1.385 . S
C1640 C1639 1.374 . S
C1641 C1638 1.499 . S
C1641 C1642 1.373 . S
C1641 C1643 1.389 . S
C1642 H1615 0.950 . S
C1642 C1628 1.377 . S
C1642 C1641 1.373 . S
C1643 C1627 1.377 . S
C1643 C1641 1.389 . S
C1643 C1644 1.524 . S
C1644 C1643 1.524 . S
C1644 C1645 1.397 . S
C1644 C1649 1.363 . S
C1645 H1616 0.950 . S
C1645 C1644 1.397 . S
C1645 C1646 1.334 . S
C1646 H1617 0.950 . S
C1646 C1645 1.334 . S
C1646 C1647 1.287 . S
C1647 C1646 1.287 . S
C1647 C1648 1.524 . S
C1647 H1650 0.999 . S
C1648 H1618 0.950 . S
C1648 C1647 1.524 . S
C1648 C1649 1.415 . S
C1649 H1619 0.950 . S
C1649 C1644 1.363 . S
C1649 C1648 1.415 . S
H1650 C1647 0.999 . S
H1651 C1632 0.913 . S
H1652 C1670 0.951 . S
H1653 C1672 0.951 . S
H1654 C1674 0.950 . S
H1655 C1675 0.950 . S
H1656 C1677 0.950 . S
H1657 C1680 0.950 . S
H1658 C1681 0.950 . S
H1659 C1683 0.950 . S
H1660 C1684 0.950 . S
H1661 C1685 0.951 . S
H1662 C1687 0.951 . S
H1663 C1689 0.950 . S
H1664 C1690 0.950 . S
H1665 C1692 0.950 . S
H1666 C1695 0.950 . S
H1667 C1696 0.950 . S
H1668 C1698 0.950 . S
H1669 C1699 0.950 . S
C1670 H1652 0.951 . S
C1670 C1671 1.366 . S
C1670 C1672 1.388 . S
C1671 C1670 1.366 . S
C1671 C1675 1.385 . S
C1672 H1653 0.951 . S
C1672 C1670 1.388 . S
C1672 C1673 1.366 . S
C1673 C1672 1.366 . S
C1673 C1674 1.414 . S
C1673 C1676 1.499 . S
C1674 H1654 0.950 . S
C1674 C1673 1.414 . S
C1674 C1675 1.374 . S
C1675 H1655 0.950 . S
C1675 C1671 1.385 . S
C1675 C1674 1.374 . S
C1676 C1673 1.499 . S
C1676 C1677 1.373 . S
C1676 C1678 1.389 . S
C1677 H1656 0.950 . S
C1677 C1676 1.373 . S
C1677 C1693 1.377 . S
C1678 C1676 1.389 . S
C1678 C1679 1.524 . S
C1678 C1692 1.377 . S
C1679 C1678 1.524 . S
C1679 C1680 1.397 . S
C1679 C1684 1.363 . S
C1680 H1657 0.950 . S
C1680 C1679 1.397 . S
C1680 C1681 1.334 . S
C1681 H1658 0.950 . S
C1681 C1680 1.334 . S
C1681 C1682 1.287 . S
C1682 C1681 1.287 . S
C1682 C1683 1.524 . S
C1682 H1701 0.913 . S
C1683 H1659 0.950 . S
C1683 C1682 1.524 . S
C1683 C1684 1.415 . S
C1684 H1660 0.950 . S
C1684 C1679 1.363 . S
C1684 C1683 1.415 . S
C1685 H1661 0.951 . S
C1685 C1686 1.366 . S
C1685 C1687 1.388 . S
C1686 C1685 1.366 . S
C1686 C1690 1.385 . S
C1687 H1662 0.951 . S
C1687 C1685 1.388 . S
C1687 C1688 1.366 . S
C1688 C1687 1.366 . S
C1688 C1689 1.414 . S
C1688 C1691 1.499 . S
C1689 H1663 0.950 . S
C1689 C1688 1.414 . S
C1689 C1690 1.374 . S
C1690 H1664 0.950 . S
C1690 C1686 1.385 . S
C1690 C1689 1.374 . S
C1691 C1688 1.499 . S
C1691 C1692 1.373 . S
C1691 C1693 1.389 . S
C1692 H1665 0.950 . S
C1692 C1678 1.377 . S
C1692 C1691 1.373 . S
C1693 C1677 1.377 . S
C1693 C1691 1.389 . S
C1693 C1694 1.524 . S
C1694 C1693 1.524 . S
C1694 C1695 1.397 . S
C1694 C1699 1.363 . S
C1695 H1666 0.950 . S
C1695 C1694 1.397 . S
C1695 C1696 1.334 . S
C1696 H1667 0.950 . S
C1696 C1695 1.334 . S
C1696 C1697 1.287 . S
C1697 C1696 1.287 . S
C1697 C1698 1.524 . S
C1697 H1700 0.999 . S
C1698 H1668 0.950 . S
C1698 C1697 1.524 . S
C1698 C1699 1.415 . S
C1699 H1669 0.950 . S
C1699 C1694 1.363 . S
C1699 C1698 1.415 . S
H1700 C1697 0.999 . S
H1701 C1682 0.913 . S
H1702 C1720 0.951 . S
H1703 C1722 0.951 . S
H1704 C1724 0.950 . S
H1705 C1725 0.950 . S
H1706 C1727 0.950 . S
H1707 C1730 0.950 . S
H1708 C1731 0.950 . S
H1709 C1733 0.950 . S
H1710 C1734 0.950 . S
H1711 C1735 0.951 . S
H1712 C1737 0.951 . S
H1713 C1739 0.950 . S
H1714 C1740 0.950 . S
H1715 C1742 0.950 . S
H1716 C1745 0.950 . S
H1717 C1746 0.950 . S
H1718 C1748 0.950 . S
H1719 C1749 0.950 . S
C1720 H1702 0.951 . S
C1720 C1721 1.366 . S
C1720 C1722 1.388 . S
C1721 C1720 1.366 . S
C1721 C1725 1.385 . S
C1722 H1703 0.951 . S
C1722 C1720 1.388 . S
C1722 C1723 1.366 . S
C1723 C1722 1.366 . S
C1723 C1724 1.414 . S
C1723 C1726 1.499 . S
C1724 H1704 0.950 . S
C1724 C1723 1.414 . S
C1724 C1725 1.374 . S
C1725 H1705 0.950 . S
C1725 C1721 1.385 . S
C1725 C1724 1.374 . S
C1726 C1723 1.499 . S
C1726 C1727 1.373 . S
C1726 C1728 1.389 . S
C1727 H1706 0.950 . S
C1727 C1726 1.373 . S
C1727 C1743 1.377 . S
C1728 C1726 1.389 . S
C1728 C1729 1.524 . S
C1728 C1742 1.377 . S
C1729 C1728 1.524 . S
C1729 C1730 1.397 . S
C1729 C1734 1.363 . S
C1730 H1707 0.950 . S
C1730 C1729 1.397 . S
C1730 C1731 1.334 . S
C1731 H1708 0.950 . S
C1731 C1730 1.334 . S
C1731 C1732 1.287 . S
C1732 C1731 1.287 . S
C1732 C1733 1.524 . S
C1732 H1751 0.913 . S
C1733 H1709 0.950 . S
C1733 C1732 1.524 . S
C1733 C1734 1.415 . S
C1734 H1710 0.950 . S
C1734 C1729 1.363 . S
C1734 C1733 1.415 . S
C1735 H1711 0.951 . S
C1735 C1736 1.366 . S
C1735 C1737 1.388 . S
C1736 C1735 1.366 . S
C1736 C1740 1.385 . S
C1737 H1712 0.951 . S
C1737 C1735 1.388 . S
C1737 C1738 1.366 . S
C1738 C1737 1.366 . S
C1738 C1739 1.414 . S
C1738 C1741 1.499 . S
C1739 H1713 0.950 . S
C1739 C1738 1.414 . S
C1739 C1740 1.374 . S
C1740 H1714 0.950 . S
C1740 C1736 1.385 . S
C1740 C1739 1.374 . S
C1741 C1738 1.499 . S
C1741 C1742 1.373 . S
C1741 C1743 1.389 . S
C1742 H1715 0.950 . S
C1742 C1728 1.377 . S
C1742 C1741 1.373 . S
C1743 C1727 1.377 . S
C1743 C1741 1.389 . S
C1743 C1744 1.524 . S
C1744 C1743 1.524 . S
C1744 C1745 1.397 . S
C1744 C1749 1.363 . S
C1745 H1716 0.950 . S
C1745 C1744 1.397 . S
C1745 C1746 1.334 . S
C1746 H1717 0.950 . S
C1746 C1745 1.334 . S
C1746 C1747 1.287 . S
C1747 C1746 1.287 . S
C1747 C1748 1.524 . S
C1747 H1750 0.999 . S
C1748 H1718 0.950 . S
C1748 C1747 1.524 . S
C1748 C1749 1.415 . S
C1749 H1719 0.950 . S
C1749 C1744 1.363 . S
C1749 C1748 1.415 . S
H1750 C1747 0.999 . S
H1751 C1732 0.913 . S
H1752 C1770 0.951 . S
H1753 C1772 0.951 . S
H1754 C1774 0.950 . S
H1755 C1775 0.950 . S
H1756 C1777 0.950 . S
H1757 C1780 0.950 . S
H1758 C1781 0.950 . S
H1759 C1783 0.950 . S
H1760 C1784 0.950 . S
H1761 C1785 0.951 . S
H1762 C1787 0.951 . S
H1763 C1789 0.950 . S
H1764 C1790 0.950 . S
H1765 C1792 0.950 . S
H1766 C1795 0.950 . S
H1767 C1796 0.950 . S
H1768 C1798 0.950 . S
H1769 C1799 0.950 . S
C1770 H1752 0.951 . S
C1770 C1771 1.366 . S
C1770 C1772 1.388 . S
C1771 C1770 1.366 . S
C1771 C1775 1.385 . S
C1772 H1753 0.951 . S
C1772 C1770 1.388 . S
C1772 C1773 1.366 . S
C1773 C1772 1.366 . S
C1773 C1774 1.414 . S
C1773 C1776 1.499 . S
C1774 H1754 0.950 . S
C1774 C1773 1.414 . S
C1774 C1775 1.374 . S
C1775 H1755 0.950 . S
C1775 C1771 1.385 . S
C1775 C1774 1.374 . S
C1776 C1773 1.499 . S
C1776 C1777 1.373 . S
C1776 C1778 1.389 . S
C1777 H1756 0.950 . S
C1777 C1776 1.373 . S
C1777 C1793 1.377 . S
C1778 C1776 1.389 . S
C1778 C1779 1.524 . S
C1778 C1792 1.377 . S
C1779 C1778 1.524 . S
C1779 C1780 1.397 . S
C1779 C1784 1.363 . S
C1780 H1757 0.950 . S
C1780 C1779 1.397 . S
C1780 C1781 1.334 . S
C1781 H1758 0.950 . S
C1781 C1780 1.334 . S
C1781 C1782 1.287 . S
C1782 C1781 1.287 . S
C1782 C1783 1.524 . S
C1782 H1801 0.913 . S
C1783 H1759 0.950 . S
C1783 C1782 1.524 . S
C1783 C1784 1.415 . S
C1784 H1760 0.950 . S
C1784 C1779 1.363 . S
C1784 C1783 1.415 . S
C1785 H1761 0.951 . S
C1785 C1786 1.366 . S
C1785 C1787 1.388 . S
C1786 C1785 1.366 . S
C1786 C1790 1.385 . S
C1787 H1762 0.951 . S
C1787 C1785 1.388 . S
C1787 C1788 1.366 . S
C1788 C1787 1.366 . S
C1788 C1789 1.414 . S
C1788 C1791 1.499 . S
C1789 H1763 0.950 . S
C1789 C1788 1.414 . S
C1789 C1790 1.374 . S
C1790 H1764 0.950 . S
C1790 C1786 1.385 . S
C1790 C1789 1.374 . S
C1791 C1788 1.499 . S
C1791 C1792 1.373 . S
C1791 C1793 1.389 . S
C1792 H1765 0.950 . S
C1792 C1778 1.377 . S
C1792 C1791 1.373 . S
C1793 C1777 1.377 . S
C1793 C1791 1.389 . S
C1793 C1794 1.524 . S
C1794 C1793 1.524 . S
C1794 C1795 1.397 . S
C1794 C1799 1.363 . S
C1795 H1766 0.950 . S
C1795 C1794 1.397 . S
C1795 C1796 1.334 . S
C1796 H1767 0.950 . S
C1796 C1795 1.334 . S
C1796 C1797 1.287 . S
C1797 C1796 1.287 . S
C1797 C1798 1.524 . S
C1797 H1800 0.999 . S
C1798 H1768 0.950 . S
C1798 C1797 1.524 . S
C1798 C1799 1.415 . S
C1799 H1769 0.950 . S
C1799 C1794 1.363 . S
C1799 C1798 1.415 . S
H1800 C1797 0.999 . S
H1801 C1782 0.913 . S
H1802 C1820 0.951 . S
H1803 C1822 0.951 . S
H1804 C1824 0.950 . S
H1805 C1825 0.950 . S
H1806 C1827 0.950 . S
H1807 C1830 0.950 . S
H1808 C1831 0.950 . S
H1809 C1833 0.950 . S
H1810 C1834 0.950 . S
H1811 C1835 0.951 . S
H1812 C1837 0.951 . S
H1813 C1839 0.950 . S
H1814 C1840 0.950 . S
H1815 C1842 0.950 . S
H1816 C1845 0.950 . S
H1817 C1846 0.950 . S
H1818 C1848 0.950 . S
H1819 C1849 0.950 . S
C1820 H1802 0.951 . S
C1820 C1821 1.366 . S
C1820 C1822 1.388 . S
C1821 C1820 1.366 . S
C1821 C1825 1.385 . S
C1822 H1803 0.951 . S
C1822 C1820 1.388 . S
C1822 C1823 1.366 . S
C1823 C1822 1.366 . S
C1823 C1824 1.414 . S
C1823 C1826 1.499 . S
C1824 H1804 0.950 . S
C1824 C1823 1.414 . S
C1824 C1825 1.374 . S
C1825 H1805 0.950 . S
C1825 C1821 1.385 . S
C1825 C1824 1.374 . S
C1826 C1823 1.499 . S
C1826 C1827 1.373 . S
C1826 C1828 1.389 . S
C1827 H1806 0.950 . S
C1827 C1826 1.373 . S
C1827 C1843 1.377 . S
C1828 C1826 1.389 . S
C1828 C1829 1.524 . S
C1828 C1842 1.377 . S
C1829 C1828 1.524 . S
C1829 C1830 1.397 . S
C1829 C1834 1.363 . S
C1830 H1807 0.950 . S
C1830 C1829 1.397 . S
C1830 C1831 1.334 . S
C1831 H1808 0.950 . S
C1831 C1830 1.334 . S
C1831 C1832 1.287 . S
C1832 C1831 1.287 . S
C1832 C1833 1.524 . S
C1832 H1851 0.913 . S
C1833 H1809 0.950 . S
C1833 C1832 1.524 . S
C1833 C1834 1.415 . S
C1834 H1810 0.950 . S
C1834 C1829 1.363 . S
C1834 C1833 1.415 . S
C1835 H1811 0.951 . S
C1835 C1836 1.366 . S
C1835 C1837 1.388 . S
C1836 C1835 1.366 . S
C1836 C1840 1.385 . S
C1837 H1812 0.951 . S
C1837 C1835 1.388 . S
C1837 C1838 1.366 . S
C1838 C1837 1.366 . S
C1838 C1839 1.414 . S
C1838 C1841 1.499 . S
C1839 H1813 0.950 . S
C1839 C1838 1.414 . S
C1839 C1840 1.374 . S
C1840 H1814 0.950 . S
C1840 C1836 1.385 . S
C1840 C1839 1.374 . S
C1841 C1838 1.499 . S
C1841 C1842 1.373 . S
C1841 C1843 1.389 . S
C1842 H1815 0.950 . S
C1842 C1828 1.377 . S
C1842 C1841 1.373 . S
C1843 C1827 1.377 . S
C1843 C1841 1.389 . S
C1843 C1844 1.524 . S
C1844 C1843 1.524 . S
C1844 C1845 1.397 . S
C1844 C1849 1.363 . S
C1845 H1816 0.950 . S
C1845 C1844 1.397 . S
C1845 C1846 1.334 . S
C1846 H1817 0.950 . S
C1846 C1845 1.334 . S
C1846 C1847 1.287 . S
C1847 C1846 1.287 . S
C1847 C1848 1.524 . S
C1847 H1850 0.999 . S
C1848 H1818 0.950 . S
C1848 C1847 1.524 . S
C1848 C1849 1.415 . S
C1849 H1819 0.950 . S
C1849 C1844 1.363 . S
C1849 C1848 1.415 . S
H1850 C1847 0.999 . S
H1851 C1832 0.913 . S
H1852 C1870 0.951 . S
H1853 C1872 0.951 . S
H1854 C1874 0.950 . S
H1855 C1875 0.950 . S
H1856 C1877 0.950 . S
H1857 C1880 0.950 . S
H1858 C1881 0.950 . S
H1859 C1883 0.950 . S
H1860 C1884 0.950 . S
H1861 C1885 0.951 . S
H1862 C1887 0.951 . S
H1863 C1889 0.950 . S
H1864 C1890 0.950 . S
H1865 C1892 0.950 . S
H1866 C1895 0.950 . S
H1867 C1896 0.950 . S
H1868 C1898 0.950 . S
H1869 C1899 0.950 . S
C1870 H1852 0.951 . S
C1870 C1871 1.366 . S
C1870 C1872 1.388 . S
C1871 C1870 1.366 . S
C1871 C1875 1.385 . S
C1872 H1853 0.951 . S
C1872 C1870 1.388 . S
C1872 C1873 1.366 . S
C1873 C1872 1.366 . S
C1873 C1874 1.414 . S
C1873 C1876 1.499 . S
C1874 H1854 0.950 . S
C1874 C1873 1.414 . S
C1874 C1875 1.374 . S
C1875 H1855 0.950 . S
C1875 C1871 1.385 . S
C1875 C1874 1.374 . S
C1876 C1873 1.499 . S
C1876 C1877 1.373 . S
C1876 C1878 1.389 . S
C1877 H1856 0.950 . S
C1877 C1876 1.373 . S
C1877 C1893 1.377 . S
C1878 C1876 1.389 . S
C1878 C1879 1.524 . S
C1878 C1892 1.377 . S
C1879 C1878 1.524 . S
C1879 C1880 1.397 . S
C1879 C1884 1.363 . S
C1880 H1857 0.950 . S
C1880 C1879 1.397 . S
C1880 C1881 1.334 . S
C1881 H1858 0.950 . S
C1881 C1880 1.334 . S
C1881 C1882 1.287 . S
C1882 C1881 1.287 . S
C1882 C1883 1.524 . S
C1882 H1901 0.913 . S
C1883 H1859 0.950 . S
C1883 C1882 1.524 . S
C1883 C1884 1.415 . S
C1884 H1860 0.950 . S
C1884 C1879 1.363 . S
C1884 C1883 1.415 . S
C1885 H1861 0.951 . S
C1885 C1886 1.366 . S
C1885 C1887 1.388 . S
C1886 C1885 1.366 . S
C1886 C1890 1.385 . S
C1887 H1862 0.951 . S
C1887 C1885 1.388 . S
C1887 C1888 1.366 . S
C1888 C1887 1.366 . S
C1888 C1889 1.414 . S
C1888 C1891 1.499 . S
C1889 H1863 0.950 . S
C1889 C1888 1.414 . S
C1889 C1890 1.374 . S
C1890 H1864 0.950 . S
C1890 C1886 1.385 . S
C1890 C1889 1.374 . S
C1891 C1888 1.499 . S
C1891 C1892 1.373 . S
C1891 C1893 1.389 . S
C1892 H1865 0.950 . S
C1892 C1878 1.377 . S
C1892 C1891 1.373 . S
C1893 C1877 1.377 . S
C1893 C1891 1.389 . S
C1893 C1894 1.524 . S
C1894 C1893 1.524 . S
C1894 C1895 1.397 . S
C1894 C1899 1.363 . S
C1895 H1866 0.950 . S
C1895 C1894 1.397 . S
C1895 C1896 1.334 . S
C1896 H1867 0.950 . S
C1896 C1895 1.334 . S
C1896 C1897 1.287 . S
C1897 C1896 1.287 . S
C1897 C1898 1.524 . S
C1897 H1900 0.999 . S
C1898 H1868 0.950 . S
C1898 C1897 1.524 . S
C1898 C1899 1.415 . S
C1899 H1869 0.950 . S
C1899 C1894 1.363 . S
C1899 C1898 1.415 . S
H1900 C1897 0.999 . S
H1901 C1882 0.913 . S
H1902 C1920 0.951 . S
H1903 C1922 0.951 . S
H1904 C1924 0.950 . S
H1905 C1925 0.950 . S
H1906 C1927 0.950 . S
H1907 C1930 0.950 . S
H1908 C1931 0.950 . S
H1909 C1933 0.950 . S
H1910 C1934 0.950 . S
H1911 C1935 0.951 . S
H1912 C1937 0.951 . S
H1913 C1939 0.950 . S
H1914 C1940 0.950 . S
H1915 C1942 0.950 . S
H1916 C1945 0.950 . S
H1917 C1946 0.950 . S
H1918 C1948 0.950 . S
H1919 C1949 0.950 . S
C1920 H1902 0.951 . S
C1920 C1921 1.366 . S
C1920 C1922 1.388 . S
C1921 C1920 1.366 . S
C1921 C1925 1.385 . S
C1922 H1903 0.951 . S
C1922 C1920 1.388 . S
C1922 C1923 1.366 . S
C1923 C1922 1.366 . S
C1923 C1924 1.414 . S
C1923 C1926 1.499 . S
C1924 H1904 0.950 . S
C1924 C1923 1.414 . S
C1924 C1925 1.374 . S
C1925 H1905 0.950 . S
C1925 C1921 1.385 . S
C1925 C1924 1.374 . S
C1926 C1923 1.499 . S
C1926 C1927 1.373 . S
C1926 C1928 1.389 . S
C1927 H1906 0.950 . S
C1927 C1926 1.373 . S
C1927 C1943 1.377 . S
C1928 C1926 1.389 . S
C1928 C1929 1.524 . S
C1928 C1942 1.377 . S
C1929 C1928 1.524 . S
C1929 C1930 1.397 . S
C1929 C1934 1.363 . S
C1930 H1907 0.950 . S
C1930 C1929 1.397 . S
C1930 C1931 1.334 . S
C1931 H1908 0.950 . S
C1931 C1930 1.334 . S
C1931 C1932 1.287 . S
C1932 C1931 1.287 . S
C1932 C1933 1.524 . S
C1932 H1951 0.913 . S
C1933 H1909 0.950 . S
C1933 C1932 1.524 . S
C1933 C1934 1.415 . S
C1934 H1910 0.950 . S
C1934 C1929 1.363 . S
C1934 C1933 1.415 . S
C1935 H1911 0.951 . S
C1935 C1936 1.366 . S
C1935 C1937 1.388 . S
C1936 C1935 1.366 . S
C1936 C1940 1.385 . S
C1937 H1912 0.951 . S
C1937 C1935 1.388 . S
C1937 C1938 1.366 . S
C1938 C1937 1.366 . S
C1938 C1939 1.414 . S
C1938 C1941 1.499 . S
C1939 H1913 0.950 . S
C1939 C1938 1.414 . S
C1939 C1940 1.374 . S
C1940 H1914 0.950 . S
C1940 C1936 1.385 . S
C1940 C1939 1.374 . S
C1941 C1938 1.499 . S
C1941 C1942 1.373 . S
C1941 C1943 1.389 . S
C1942 H1915 0.950 . S
C1942 C1928 1.377 . S
C1942 C1941 1.373 . S
C1943 C1927 1.377 . S
C1943 C1941 1.389 . S
C1943 C1944 1.524 . S
C1944 C1943 1.524 . S
C1944 C1945 1.397 . S
C1944 C1949 1.363 . S
C1945 H1916 0.950 . S
C1945 C1944 1.397 . S
C1945 C1946 1.334 . S
C1946 H1917 0.950 . S
C1946 C1945 1.334 . S
C1946 C1947 1.287 . S
C1947 C1946 1.287 . S
C1947 C1948 1.524 . S
C1947 H1950 0.999 . S
C1948 H1918 0.950 . S
C1948 C1947 1.524 . S
C1948 C1949 1.415 . S
C1949 H1919 0.950 . S
C1949 C1944 1.363 . S
C1949 C1948 1.415 . S
H1950 C1947 0.999 . S
H1951 C1932 0.913 . S
H1952 C1970 0.951 . S
H1953 C1972 0.951 . S
H1954 C1974 0.950 . S
H1955 C1975 0.950 . S
H1956 C1977 0.950 . S
H1957 C1980 0.950 . S
H1958 C1981 0.950 . S
H1959 C1983 0.950 . S
H1960 C1984 0.950 . S
H1961 C1985 0.951 . S
H1962 C1987 0.951 . S
H1963 C1989 0.950 . S
H1964 C1990 0.950 . S
H1965 C1992 0.950 . S
H1966 C1995 0.950 . S
H1967 C1996 0.950 . S
H1968 C1998 0.950 . S
H1969 C1999 0.950 . S
C1970 H1952 0.951 . S
C1970 C1971 1.366 . S
C1970 C1972 1.388 . S
C1971 C1970 1.366 . S
C1971 C1975 1.385 . S
C1972 H1953 0.951 . S
C1972 C1970 1.388 . S
C1972 C1973 1.366 . S
C1973 C1972 1.366 . S
C1973 C1974 1.414 . S
C1973 C1976 1.499 . S
C1974 H1954 0.950 . S
C1974 C1973 1.414 . S
C1974 C1975 1.374 . S
C1975 H1955 0.950 . S
C1975 C1971 1.385 . S
C1975 C1974 1.374 . S
C1976 C1973 1.499 . S
C1976 C1977 1.373 . S
C1976 C1978 1.389 . S
C1977 H1956 0.950 . S
C1977 C1976 1.373 . S
C1977 C1993 1.377 . S
C1978 C1976 1.389 . S
C1978 C1979 1.524 . S
C1978 C1992 1.377 . S
C1979 C1978 1.524 . S
C1979 C1980 1.397 . S
C1979 C1984 1.363 . S
C1980 H1957 0.950 . S
C1980 C1979 1.397 . S
C1980 C1981 1.334 . S
C1981 H1958 0.950 . S
C1981 C1980 1.334 . S
C1981 C1982 1.287 . S
C1982 C1981 1.287 . S
C1982 C1983 1.524 . S
C1982 H2001 0.913 . S
C1983 H1959 0.950 . S
C1983 C1982 1.524 . S
C1983 C1984 1.415 . S
C1984 H1960 0.950 . S
C1984 C1979 1.363 . S
C1984 C1983 1.415 . S
C1985 H1961 0.951 . S
C1985 C1986 1.366 . S
C1985 C1987 1.388 . S
C1986 C1985 1.366 . S
C1986 C1990 1.385 . S
C1987 H1962 0.951 . S
C1987 C1985 1.388 . S
C1987 C1988 1.366 . S
C1988 C1987 1.366 . S
C1988 C1989 1.414 . S
C1988 C1991 1.499 . S
C1989 H1963 0.950 . S
C1989 C1988 1.414 . S
C1989 C1990 1.374 . S
C1990 H1964 0.950 . S
C1990 C1986 1.385 . S
C1990 C1989 1.374 . S
C1991 C1988 1.499 . S
C1991 C1992 1.373 . S
C1991 C1993 1.389 . S
C1992 H1965 0.950 . S
C1992 C1978 1.377 . S
C1992 C1991 1.373 . S
C1993 C1977 1.377 . S
C1993 C1991 1.389 . S
C1993 C1994 1.524 . S
C1994 C1993 1.524 . S
C1994 C1995 1.397 . S
C1994 C1999 1.363 . S
C1995 H1966 0.950 . S
C1995 C1994 1.397 . S
C1995 C1996 1.334 . S
C1996 H1967 0.950 . S
C1996 C1995 1.334 . S
C1996 C1997 1.287 . S
C1997 C1996 1.287 . S
C1997 C1998 1.524 . S
C1997 H2000 0.999 . S
C1998 H1968 0.950 . S
C1998 C1997 1.524 . S
C1998 C1999 1.415 . S
C1999 H1969 0.950 . S
C1999 C1994 1.363 . S
C1999 C1998 1.415 . S
H2000 C1997 0.999 . S
H2001 C1982 0.913 . S
H2002 C2020 0.951 . S
H2003 C2022 0.951 . S
H2004 C2024 0.950 . S
H2005 C2025 0.950 . S
H2006 C2027 0.950 . S
H2007 C2030 0.950 . S
H2008 C2031 0.950 . S
H2009 C2033 0.950 . S
H2010 C2034 0.950 . S
H2011 C2035 0.951 . S
H2012 C2037 0.951 . S
H2013 C2039 0.950 . S
H2014 C2040 0.950 . S
H2015 C2042 0.950 . S
H2016 C2045 0.950 . S
H2017 C2046 0.950 . S
H2018 C2048 0.950 . S
H2019 C2049 0.950 . S
C2020 H2002 0.951 . S
C2020 C2021 1.366 . S
C2020 C2022 1.388 . S
C2021 C2020 1.366 . S
C2021 C2025 1.385 . S
C2022 H2003 0.951 . S
C2022 C2020 1.388 . S
C2022 C2023 1.366 . S
C2023 C2022 1.366 . S
C2023 C2024 1.414 . S
C2023 C2026 1.499 . S
C2024 H2004 0.950 . S
C2024 C2023 1.414 . S
C2024 C2025 1.374 . S
C2025 H2005 0.950 . S
C2025 C2021 1.385 . S
C2025 C2024 1.374 . S
C2026 C2023 1.499 . S
C2026 C2027 1.373 . S
C2026 C2028 1.389 . S
C2027 H2006 0.950 . S
C2027 C2026 1.373 . S
C2027 C2043 1.377 . S
C2028 C2026 1.389 . S
C2028 C2029 1.524 . S
C2028 C2042 1.377 . S
C2029 C2028 1.524 . S
C2029 C2030 1.397 . S
C2029 C2034 1.363 . S
C2030 H2007 0.950 . S
C2030 C2029 1.397 . S
C2030 C2031 1.334 . S
C2031 H2008 0.950 . S
C2031 C2030 1.334 . S
C2031 C2032 1.287 . S
C2032 C2031 1.287 . S
C2032 C2033 1.524 . S
C2032 H2051 0.913 . S
C2033 H2009 0.950 . S
C2033 C2032 1.524 . S
C2033 C2034 1.415 . S
C2034 H2010 0.950 . S
C2034 C2029 1.363 . S
C2034 C2033 1.415 . S
C2035 H2011 0.951 . S
C2035 C2036 1.366 . S
C2035 C2037 1.388 . S
C2036 C2035 1.366 . S
C2036 C2040 1.385 . S
C2037 H2012 0.951 . S
C2037 C2035 1.388 . S
C2037 C2038 1.366 . S
C2038 C2037 1.366 . S
C2038 C2039 1.414 . S
C2038 C2041 1.499 . S
C2039 H2013 0.950 . S
C2039 C2038 1.414 . S
C2039 C2040 1.374 . S
C2040 H2014 0.950 . S
C2040 C2036 1.385 . S
C2040 C2039 1.374 . S
C2041 C2038 1.499 . S
C2041 C2042 1.373 . S
C2041 C2043 1.389 . S
C2042 H2015 0.950 . S
C2042 C2028 1.377 . S
C2042 C2041 1.373 . S
C2043 C2027 1.377 . S
C2043 C2041 1.389 . S
C2043 C2044 1.524 . S
C2044 C2043 1.524 . S
C2044 C2045 1.397 . S
C2044 C2049 1.363 . S
C2045 H2016 0.950 . S
C2045 C2044 1.397 . S
C2045 C2046 1.334 . S
C2046 H2017 0.950 . S
C2046 C2045 1.334 . S
C2046 C2047 1.287 . S
C2047 C2046 1.287 . S
C2047 C2048 1.524 . S
C2047 H2050 0.999 . S
C2048 H2018 0.950 . S
C2048 C2047 1.524 . S
C2048 C2049 1.415 . S
C2049 H2019 0.950 . S
C2049 C2044 1.363 . S
C2049 C2048 1.415 . S
H2050 C2047 0.999 . S
H2051 C2032 0.913 . S
C271 C249 1.696 . S
C286 C11 1.696 . S
C321 C221 1.696 . S
C336 C25 1.696 . S
C371 C235 1.697 . S
C386 C39 1.696 . S
C421 C109 1.697 . S
C436 C53 1.696 . S
C471 C123 1.696 . S
C486 C67 1.697 . S
C521 C81 1.696 . S
C536 C95 1.696 . S
C571 C137 1.696 . S
C586 C193 1.697 . S
C621 C151 1.697 . S
C636 C207 1.696 . S
C671 C165 1.697 . S
C686 C179 1.696 . S
C721 C4 1.055 1_556 S
C736 C242 1.056 . S
C771 C214 1.055 . S
C786 C18 1.056 1_556 S
C821 C32 1.055 1_556 S
C836 C228 1.056 . S
C871 C102 1.055 . S
C886 C46 1.056 1_554 S
C921 C60 1.056 1_554 S
C936 C116 1.056 . S
C971 C74 1.055 1_554 S
C986 C88 1.056 . S
C1021 C130 1.055 . S
C1036 C186 1.055 . S
C1071 C200 1.055 . S
C1086 C144 1.056 . S
C1121 C172 1.055 . S
C1136 C158 1.056 . S
C1171 C5 1.316 . S
C1186 C47 1.316 . S
C1221 C61 1.316 . S
C1236 C19 1.316 . S
C1271 C75 1.317 . S
C1286 C33 1.316 . S
C1321 C82 1.437 . S
C1336 C26 1.437 . S
C1371 C40 1.436 . S
C1386 C54 1.436 . S
C1421 C68 1.436 . S
C1436 C12 1.436 . S
C1471 C89 1.318 . S
C1486 C131 1.317 . S
C1521 C145 1.315 . S
C1536 C103 1.316 . S
C1571 C159 1.316 . S
C1586 C117 1.315 . S
C1621 C166 1.437 . S
C1636 C110 1.437 . S
C1671 C124 1.436 . S
C1686 C138 1.436 . S
C1721 C152 1.436 . S
C1736 C96 1.436 . S
C1771 C215 1.316 . S
C1786 C173 1.318 . S
C1821 C229 1.317 . S
C1836 C187 1.316 . S
C1871 C201 1.316 . S
C1886 C243 1.316 . S
C1921 C250 1.437 . S
C1936 C194 1.437 . S
C1971 C208 1.436 . S
C1986 C222 1.436 . S
C2021 C236 1.436 . S
C2036 C180 1.436 . S
