# Generated by pormake.
# Topology kag, (6)-cn, num edge types: 1
# Building blocks:
#     Node 0, Type 0, BuildingBlock: BETGAK_clean_sbu_0, # of connection points: 6
#     Node 1, Type 0, BuildingBlock: BETGAK_clean_sbu_0, # of connection points: 6
#     Node 2, Type 0, BuildingBlock: BETGAK_clean_sbu_0, # of connection points: 6
#     Edge 3, Type (0, 0), BuildingBlock: EZIPEK_clean_linker_0, # of connection points: 2
#     Edge 4, Type (0, 0), BuildingBlock: EZIPEK_clean_linker_0, # of connection points: 2
#     Edge 5, Type (0, 0), BuildingBlock: EZIPEK_clean_linker_0, # of connection points: 2
#     Edge 6, Type (0, 0), BuildingBlock: EZIPEK_clean_linker_0, # of connection points: 2
#     Edge 7, Type (0, 0), BuildingBlock: EZIPEK_clean_linker_0, # of connection points: 2
#     Edge 8, Type (0, 0), BuildingBlock: EZIPEK_clean_linker_0, # of connection points: 2
#     Edge 9, Type (0, 0), BuildingBlock: EZIPEK_clean_linker_0, # of connection points: 2
#     Edge 10, Type (0, 0), BuildingBlock: EZIPEK_clean_linker_0, # of connection points: 2
#     Edge 11, Type (0, 0), BuildingBlock: EZIPEK_clean_linker_0, # of connection points: 2
# Relax obj value: 0.123
# Max RMSD: 0.236
# Mean RMSD: 0.125
data_MOF--net-kag--node1-BETGAK_clean_sbu_0--edge1-EZIPEK_clean_linker_0
_symmetry_space_group_name_H-M    P1
_symmetry_Int_Tables_number       1
_symmetry_cell_setting            triclinic
loop_
_symmetry_equiv_pos_as_xyz
'x, y, z'
_cell_length_a     23.619333
_cell_length_b     34.288593
_cell_length_c     10.825745
_cell_angle_alpha  94.536581
_cell_angle_beta   90.734
_cell_angle_gamma 92.723963
loop_
_atom_site_label
_atom_site_type_symbol
_atom_site_fract_x
_atom_site_fract_y
_atom_site_fract_z
_atom_type_partial_charge
La0 La 0.07422 0.47874 0.98657 0.0
La1 La 0.08403 0.56158 0.01406 0.0
C2 C 0.07376 0.40565 0.00611 0.0
C3 C 1.0299 0.37307 1.00116 0.0
C4 C 1.02766 0.34481 0.9004 0.0
C5 C 0.98549 0.31464 0.89158 0.0
C6 C 0.94216 0.31237 0.98054 0.0
C7 C 0.94928 0.33849 0.08856 0.0
C8 C 0.9913 0.36889 0.09711 0.0
C9 C 1.06551 0.51054 0.76853 0.0
C10 C 0.95706 0.51905 0.99865 0.0
C11 C 0.08295 0.63439 0.99012 0.0
C12 C 0.1242 0.66824 0.99772 0.0
C13 C 0.16882 0.67204 0.08586 0.0
C14 C 0.20598 0.70527 0.09377 0.0
C15 C 0.19927 0.73488 0.01303 0.0
C16 C 0.1556 0.73063 0.92327 0.0
C17 C 0.11831 0.69758 0.91584 0.0
C18 C 0.0921 0.53002 0.23229 0.0
C19 C 0.20147 0.52114 0.00574 0.0
O20 O 0.08265 0.42192 0.90269 0.0
O21 O 1.07355 0.43182 0.10074 0.0
O22 O 1.03531 0.48077 0.80187 0.0
O23 O 0.10019 0.52115 0.85722 0.0
O24 O 0.98236 0.48593 0.01204 0.0
O25 O 0.98923 0.55157 0.98631 0.0
O26 O 1.07158 0.61843 0.09307 0.0
O27 O 0.08883 0.60805 0.89799 0.0
O28 O 0.12126 0.56041 0.20033 0.0
O29 O 1.05785 0.51914 0.1431 0.0
O30 O 0.17644 0.55463 0.9969 0.0
O31 O 0.16907 0.48838 0.01253 0.0
H32 H 1.05887 0.34588 0.82808 0.0
H33 H 0.98825 0.29277 0.81474 0.0
H34 H 0.92419 0.33571 0.16985 0.0
H35 H 0.99375 0.38885 0.17991 0.0
H36 H 0.17453 0.64959 0.14933 0.0
H37 H 0.2395 0.70815 0.16359 0.0
H38 H 0.14983 0.75324 0.86042 0.0
H39 H 0.08438 0.69511 0.84691 0.0
La40 La 0.64056 0.02429 0.01424 0.0
La41 La 0.52038 1.0176 0.00598 0.0
C42 C 0.74215 0.04741 0.98056 0.0
C43 C 0.76959 0.08676 0.97115 0.0
C44 C 0.82308 0.09624 0.02672 0.0
C45 C 0.84789 0.13417 0.02496 0.0
C46 C 0.81924 0.1632 0.96853 0.0
C47 C 0.7659 0.15375 0.91285 0.0
C48 C 0.74148 0.11585 0.91342 0.0
C49 C 0.59709 1.01496 0.23787 0.0
C50 C 0.56973 0.10306 0.02368 0.0
C51 C 0.41894 0.99518 0.04299 0.0
C52 C 0.38916 0.95623 0.04286 0.0
C53 C 0.33499 0.95013 0.98798 0.0
C54 C 0.30656 0.91329 0.98477 0.0
C55 C 0.33198 0.88195 0.03611 0.0
C56 C 0.38621 0.88788 0.09065 0.0
C57 C 0.41459 0.92472 0.09405 0.0
C58 C 0.56364 0.02688 0.78212 0.0
C59 C 0.59088 0.93862 0.99593 0.0
O60 O 0.72168 0.04102 0.08877 0.0
O61 O 0.70696 0.03422 0.89096 0.0
O62 O 0.64262 0.99978 0.19482 0.0
O63 O 0.57836 0.03639 0.1568 0.0
O64 O 0.61766 0.0858 0.99841 0.0
O65 O 0.52372 0.08142 0.04585 0.0
O66 O 0.43733 1.00494 0.93603 0.0
O67 O 0.45647 1.0044 0.13154 0.0
O68 O 0.51831 0.0423 0.82561 0.0
O69 O 0.58245 1.00542 0.86307 0.0
O70 O 0.54217 0.95564 0.01269 0.0
O71 O 0.63803 0.96008 0.98171 0.0
H72 H 0.84537 0.0744 0.07251 0.0
H73 H 0.8891 0.141 0.06848 0.0
H74 H 0.74315 0.17579 0.86894 0.0
H75 H 0.70045 0.10951 0.86945 0.0
H76 H 0.31469 0.97389 0.9475 0.0
H77 H 0.26465 0.9092 0.94257 0.0
H78 H 0.40639 0.86404 0.13096 0.0
H79 H 0.45628 0.92845 0.13695 0.0
La80 La 0.58526 0.56321 0.01988 0.0
La81 La 0.57504 0.47732 0.99094 0.0
C82 C 0.58313 0.63698 0.00476 0.0
C83 C 0.58282 0.68092 1.00046 0.0
C84 C 0.60444 0.70617 0.10035 0.0
C85 C 0.60328 0.74722 0.09889 0.0
C86 C 0.577 0.76548 1.00106 0.0
C87 C 0.56195 0.73963 0.89487 0.0
C88 C 0.56319 0.69842 0.89597 0.0
C89 C 0.59306 0.52994 0.23703 0.0
C90 C 0.45799 0.51996 0.00646 0.0
C91 C 0.57646 0.4035 0.00525 0.0
C92 C 0.57752 0.35967 0.0112 0.0
C93 C 0.58667 0.33476 0.9039 0.0
C94 C 0.58509 0.29366 0.90752 0.0
C95 C 0.57432 0.27601 0.01854 0.0
C96 C 0.56565 0.3008 0.12616 0.0
C97 C 0.56714 0.34196 0.12254 0.0
C98 C 0.56672 0.51081 0.77466 0.0
C99 C 0.70112 0.52056 1.0026 0.0
O100 O 0.5985 0.62071 0.10401 0.0
O101 O 0.56809 0.61135 0.91265 0.0
O102 O 0.62161 0.56074 0.20663 0.0
O103 O 0.55945 0.5192 0.14619 0.0
O104 O 0.49014 0.55312 1.00405 0.0
O105 O 0.48285 0.48603 0.00981 0.0
O106 O 0.58778 0.4208 0.90462 0.0
O107 O 0.56582 0.42816 0.09967 0.0
O108 O 0.53827 0.4799 0.80489 0.0
O109 O 0.6007 0.52142 0.86491 0.0
O110 O 0.66923 0.48851 0.02338 0.0
O111 O 0.67565 0.55314 0.98057 0.0
H112 H 0.62326 0.69421 0.18005 0.0
H113 H 0.62459 0.76423 0.17531 0.0
H114 H 0.55048 0.75045 0.8077 0.0
H115 H 0.54931 0.68025 0.81375 0.0
H116 H 0.59458 0.34704 0.81624 0.0
H117 H 0.5921 0.27553 0.82308 0.0
H118 H 0.55734 0.28825 0.21321 0.0
H119 H 0.55968 0.35992 0.20706 0.0
C120 C 1.04455 0.54531 0.57343 0.0
C121 C 0.07485 0.51672 0.63208 0.0
C122 C 0.1168 0.4969 0.42827 0.0
C123 C 0.083 0.5233 0.36815 0.0
N124 N 1.0091 0.56933 0.38244 0.0
N125 N 0.13475 0.46174 0.61065 0.0
C126 C 1.04526 0.5465 0.44074 0.0
C127 C 0.10955 0.49155 0.55787 0.0
N128 N 1.01623 0.57225 0.64529 0.0
N129 N 0.15714 0.4775 0.36193 0.0
H130 H 0.13234 0.45775 0.70491 0.0
H131 H 0.15493 0.43948 0.56019 0.0
H132 H 0.16226 0.47951 0.26705 0.0
H133 H 0.18794 0.46153 0.40191 0.0
H134 H 0.99819 0.59649 0.61155 0.0
H135 H 1.01484 0.57218 0.74144 0.0
H136 H 0.97611 0.58355 0.42669 0.0
H137 H 1.00907 0.57158 0.28694 0.0
C138 C 0.55535 0.98865 0.43374 0.0
C139 C 0.58603 1.01907 0.37671 0.0
C140 C 0.60396 0.0534 0.58566 0.0
C141 C 0.57425 0.0227 0.64314 0.0
N142 N 0.51217 0.96483 0.61884 0.0
N143 N 0.64974 0.0761 0.40253 0.0
C144 C 0.54771 0.99118 0.56608 0.0
C145 C 0.61284 0.05035 0.45405 0.0
N146 N 0.53518 0.9564 0.36127 0.0
N147 N 0.62176 0.08657 0.65656 0.0
H148 H 0.65802 0.0745 0.30804 0.0
H149 H 0.67595 0.0968 0.4539 0.0
H150 H 0.61646 0.08984 0.75213 0.0
H151 H 0.63748 0.11205 0.62019 0.0
H152 H 0.51875 0.93084 0.39585 0.0
H153 H 0.5382 0.95417 0.26504 0.0
H154 H 0.48621 0.94371 0.56873 0.0
H155 H 0.50541 0.96572 0.714 0.0
C156 C 0.61241 0.49355 0.56486 0.0
C157 C 0.57606 0.51764 0.63853 0.0
C158 C 0.54966 0.54943 0.44851 0.0
C159 C 0.58289 0.52344 0.37333 0.0
N160 N 0.63956 0.46696 0.35948 0.0
N161 N 0.50323 0.56441 0.64536 0.0
C162 C 0.61241 0.49444 0.43181 0.0
C163 C 0.54283 0.54441 0.57856 0.0
N164 N 0.648 0.47019 0.62252 0.0
N165 N 0.52545 0.57972 0.39624 0.0
H166 H 0.49821 0.56246 0.74031 0.0
H167 H 0.4728 0.58074 0.60562 0.0
H168 H 0.52738 0.58355 0.30179 0.0
H169 H 0.50661 0.60247 0.4473 0.0
H170 H 0.67999 0.45511 0.57747 0.0
H171 H 0.64872 0.46837 0.71824 0.0
H172 H 0.65706 0.44251 0.39305 0.0
H173 H 0.64042 0.46686 0.26319 0.0
C174 C 0.29675 0.49784 0.91358 0.0
C175 C 0.26743 0.5205 0.00688 0.0
C176 C 0.3627 0.54301 0.10045 0.0
C177 C 0.39201 0.52058 0.00638 0.0
N178 N 0.38526 0.48203 0.81087 0.0
N179 N 0.2738 0.56069 0.19926 0.0
C180 C 0.35829 0.49911 0.91064 0.0
C181 C 0.30107 0.5424 0.10196 0.0
N182 N 0.26557 0.47463 0.82676 0.0
N183 N 0.39409 0.5652 0.18938 0.0
H184 H 0.22985 0.56014 0.20543 0.0
H185 H 0.29383 0.5741 0.2786 0.0
H186 H 0.43784 0.5637 0.19846 0.0
H187 H 0.37777 0.58628 0.25157 0.0
H188 H 0.28246 0.45315 0.76679 0.0
H189 H 0.22166 0.47528 0.81862 0.0
H190 H 0.36471 0.46971 0.73058 0.0
H191 H 0.42917 0.48313 0.80308 0.0
C192 C 0.83991 0.23092 0.07161 0.0
C193 C 0.84458 0.20371 0.96682 0.0
C194 C 0.88715 0.25627 0.85247 0.0
C195 C 0.89501 0.28008 0.9653 0.0
N196 N 0.83403 0.29956 0.13313 0.0
N197 N 0.87186 0.19079 0.75369 0.0
C198 C 0.85909 0.27051 0.06366 0.0
C199 C 0.86735 0.21658 0.85546 0.0
N200 N 0.81689 0.21931 0.17856 0.0
N201 N 0.89103 0.27302 0.74252 0.0
H202 H 0.8579 0.16142 0.75195 0.0
H203 H 0.89354 0.19797 0.6747 0.0
H204 H 0.89752 0.30327 0.73944 0.0
H205 H 0.88051 0.258 0.65723 0.0
H206 H 0.81769 0.23752 0.26051 0.0
H207 H 0.80019 0.19095 0.18711 0.0
H208 H 0.80351 0.29413 0.19918 0.0
H209 H 0.83678 0.32847 0.10896 0.0
C210 C 0.56536 0.87072 0.89286 0.0
C211 C 0.59037 0.89434 0.99478 0.0
C212 C 0.58602 0.83584 0.1146 0.0
C213 C 0.57143 0.81079 0.00597 0.0
N214 N 0.50532 0.81323 0.83549 0.0
N215 N 0.62897 0.8975 0.20258 0.0
C216 C 0.54972 0.83029 0.90487 0.0
C217 C 0.6023 0.87624 0.10517 0.0
N218 N 0.55658 0.88676 0.78331 0.0
N219 N 0.57353 0.82345 0.22824 0.0
H220 H 0.64168 0.92687 0.19938 0.0
H221 H 0.64309 0.88482 0.28109 0.0
H222 H 0.5497 0.79746 0.23763 0.0
H223 H 0.57814 0.8415 0.3102 0.0
H224 H 0.54292 0.87011 0.70273 0.0
H225 H 0.56862 0.91582 0.77071 0.0
H226 H 0.48465 0.82724 0.7671 0.0
H227 H 0.48283 0.78844 0.86235 0.0
C228 C 0.86032 0.51168 0.10863 0.0
C229 C 0.89123 0.51956 0.99967 0.0
C230 C 0.79792 0.52743 0.89258 0.0
C231 C 0.76696 0.52 1.00181 0.0
N232 N 0.76958 0.50325 0.21312 0.0
N233 N 0.88854 0.53728 0.78956 0.0
C234 C 0.7987 0.51147 0.10925 0.0
C235 C 0.85949 0.52823 0.8926 0.0
N236 N 0.89038 0.50651 0.21449 0.0
N237 N 0.76806 0.5313 0.78548 0.0
H238 H 0.93206 0.53441 0.78196 0.0
H239 H 0.8705 0.54901 0.71349 0.0
H240 H 0.7239 0.53029 0.78084 0.0
H241 H 0.78616 0.53274 0.69885 0.0
H242 H 0.87267 0.50383 0.30092 0.0
H243 H 0.93454 0.50698 0.21818 0.0
H244 H 0.78742 0.49239 0.29083 0.0
H245 H 0.72609 0.50637 0.22086 0.0
C246 C 0.28454 0.77498 0.95004 0.0
C247 C 0.23618 0.77142 0.02554 0.0
C248 C 0.25638 0.83806 0.12086 0.0
C249 C 0.3008 0.84318 0.03572 0.0
N250 N 0.35494 0.81823 0.86203 0.0
N251 N 0.17224 0.80018 0.17477 0.0
C252 C 0.31458 0.81199 0.94873 0.0
C253 C 0.22117 0.8031 0.10919 0.0
N254 N 0.30214 0.74278 0.88115 0.0
N255 N 0.24891 0.86626 0.21506 0.0
H256 H 0.14618 0.77469 0.1717 0.0
H257 H 0.1553 0.82376 0.2257 0.0
H258 H 0.2738 0.89229 0.22636 0.0
H259 H 0.22143 0.86256 0.28808 0.0
H260 H 0.34035 0.74222 0.83433 0.0
H261 H 0.28052 0.71547 0.87854 0.0
H262 H 0.36283 0.79819 0.78769 0.0
H263 H 0.37824 0.84475 0.85923 0.0
C264 C 0.61686 0.21297 0.07939 0.0
C265 C 0.57227 0.2317 0.02188 0.0
C266 C 0.52731 0.16625 0.95819 0.0
C267 C 0.56898 0.14758 0.0263 0.0
N268 N 0.64761 0.15531 0.17236 0.0
N269 N 0.47971 0.22598 0.92454 0.0
C270 C 0.61223 0.17162 0.09227 0.0
C271 C 0.52596 0.20821 0.96666 0.0
N272 N 0.66481 0.2345 0.11868 0.0
N273 N 0.49073 0.14417 0.87933 0.0
H274 H 0.47717 0.25634 0.92836 0.0
H275 H 0.44199 0.21072 0.89619 0.0
H276 H 0.49085 0.11379 0.86726 0.0
H277 H 0.464 0.15615 0.81671 0.0
H278 H 0.7014 0.222 0.14817 0.0
H279 H 0.66991 0.26461 0.11133 0.0
H280 H 0.67603 0.17165 0.23259 0.0
H281 H 0.6445 0.12578 0.18829 0.0
loop_
_geom_bond_atom_site_label_1
_geom_bond_atom_site_label_2
_geom_bond_distance
_geom_bond_site_symmetry_2
_ccdc_geom_bond_type
La0 C2 2.928 . S
La0 O20 2.521 . S
La0 O21 2.628 1_556 S
La0 O22 2.554 . S
La0 O23 2.757 1_655 S
La0 O24 2.470 . S
La0 O29 2.482 1_556 S
La0 O31 2.503 1_655 S
La1 C11 2.928 . S
La1 O23 2.482 1_554 S
La1 O25 2.503 1_455 S
La1 O26 2.521 . S
La1 O27 2.628 1_554 S
La1 O28 2.554 . S
La1 O29 2.757 1_455 S
La1 O30 2.470 . S
C2 La0 2.928 . S
C2 C3 1.503 . S
C2 O20 1.261 . S
C2 O21 1.243 1_556 S
C3 C2 1.503 . S
C3 C4 1.394 . S
C3 C8 1.373 1_556 S
C4 C3 1.394 . S
C4 C5 1.380 . S
C4 H32 0.930 . S
C5 C4 1.380 . S
C5 C6 1.376 . S
C5 H33 0.930 . S
C6 C5 1.376 . S
C6 C7 1.370 1_556 S
C7 C6 1.370 1_554 S
C7 C8 1.396 . S
C7 H34 0.929 . S
C8 C3 1.373 1_554 S
C8 C7 1.396 . S
C8 H35 0.929 . S
C9 O22 1.240 1_455 S
C9 O23 1.289 . S
C10 O24 1.258 . S
C10 O25 1.256 1_556 S
C11 La1 2.928 . S
C11 C12 1.503 . S
C11 O26 1.261 . S
C11 O27 1.243 1_554 S
C12 C11 1.503 . S
C12 C13 1.394 . S
C12 C17 1.373 1_554 S
C13 C12 1.394 . S
C13 C14 1.380 . S
C13 H36 0.930 . S
C14 C13 1.380 . S
C14 C15 1.376 . S
C14 H37 0.930 . S
C15 C14 1.376 . S
C15 C16 1.370 1_554 S
C16 C15 1.370 1_556 S
C16 C17 1.396 . S
C16 H38 0.929 . S
C17 C12 1.373 1_556 S
C17 C16 1.396 . S
C17 H39 0.929 . S
C18 O28 1.244 . S
C18 O29 1.286 1_455 S
C19 O30 1.258 . S
C19 O31 1.256 1_554 S
O20 La0 2.521 . S
O20 C2 1.261 . S
O21 La0 2.628 1_554 S
O21 C2 1.243 1_554 S
O22 La0 2.554 . S
O22 C9 1.240 1_655 S
O23 La0 2.757 1_455 S
O23 La1 2.482 1_556 S
O23 C9 1.289 . S
O24 La0 2.470 . S
O24 C10 1.258 . S
O25 La1 2.503 1_655 S
O25 C10 1.256 1_554 S
O26 La1 2.521 . S
O26 C11 1.261 . S
O27 La1 2.628 1_556 S
O27 C11 1.243 1_556 S
O28 La1 2.554 . S
O28 C18 1.244 . S
O29 La0 2.482 1_554 S
O29 La1 2.757 1_655 S
O29 C18 1.286 1_655 S
O30 La1 2.470 . S
O30 C19 1.258 . S
O31 La0 2.503 1_455 S
O31 C19 1.256 1_556 S
H32 C4 0.930 . S
H33 C5 0.930 . S
H34 C7 0.929 . S
H35 C8 0.929 . S
H36 C13 0.930 . S
H37 C14 0.930 . S
H38 C16 0.929 . S
H39 C17 0.929 . S
La40 C42 2.928 1_554 S
La40 O60 2.521 . S
La40 O61 2.628 1_554 S
La40 O62 2.554 . S
La40 O63 2.757 1_545 S
La40 O64 2.470 . S
La40 O69 2.482 1_554 S
La40 O71 2.503 1_544 S
La41 C51 2.928 1_556 S
La41 O63 2.482 1_556 S
La41 O65 2.503 1_566 S
La41 O66 2.521 . S
La41 O67 2.628 1_556 S
La41 O68 2.554 . S
La41 O69 2.757 1_565 S
La41 O70 2.470 . S
C42 La40 2.928 1_556 S
C42 C43 1.503 . S
C42 O60 1.261 1_556 S
C42 O61 1.243 . S
C43 C42 1.503 . S
C43 C44 1.394 1_556 S
C43 C48 1.373 . S
C44 C43 1.394 1_554 S
C44 C45 1.380 . S
C44 H72 0.930 . S
C45 C44 1.380 . S
C45 C46 1.376 1_554 S
C45 H73 0.930 . S
C46 C45 1.376 1_556 S
C46 C47 1.370 . S
C47 C46 1.370 . S
C47 C48 1.396 . S
C47 H74 0.929 . S
C48 C43 1.373 . S
C48 C47 1.396 . S
C48 H75 0.929 . S
C49 O62 1.240 . S
C49 O63 1.289 1_545 S
C50 O64 1.258 . S
C50 O65 1.256 . S
C51 La41 2.928 1_554 S
C51 C52 1.503 . S
C51 O66 1.261 1_554 S
C51 O67 1.243 . S
C52 C51 1.503 . S
C52 C53 1.394 1_554 S
C52 C57 1.373 . S
C53 C52 1.394 1_556 S
C53 C54 1.380 . S
C53 H76 0.930 . S
C54 C53 1.380 . S
C54 C55 1.376 1_556 S
C54 H77 0.930 . S
C55 C54 1.376 1_554 S
C55 C56 1.370 . S
C56 C55 1.370 . S
C56 C57 1.396 . S
C56 H78 0.929 . S
C57 C52 1.373 . S
C57 C56 1.396 . S
C57 H79 0.929 . S
C58 O68 1.240 . S
C58 O69 1.289 1_565 S
C59 O70 1.258 . S
C59 O71 1.256 . S
O60 La40 2.521 . S
O60 C42 1.261 1_554 S
O61 La40 2.628 1_556 S
O61 C42 1.243 . S
O62 La40 2.554 . S
O62 C49 1.240 . S
O63 La40 2.757 1_565 S
O63 La41 2.482 1_554 S
O63 C49 1.289 1_565 S
O64 La40 2.470 . S
O64 C50 1.258 . S
O65 La41 2.503 1_544 S
O65 C50 1.256 . S
O66 La41 2.521 . S
O66 C51 1.261 1_556 S
O67 La41 2.628 1_554 S
O67 C51 1.243 . S
O68 La41 2.554 . S
O68 C58 1.240 . S
O69 La40 2.482 1_556 S
O69 La41 2.757 1_545 S
O69 C58 1.289 1_545 S
O70 La41 2.470 . S
O70 C59 1.258 . S
O71 La40 2.503 1_566 S
O71 C59 1.256 . S
H72 C44 0.930 . S
H73 C45 0.930 . S
H74 C47 0.929 . S
H75 C48 0.929 . S
H76 C53 0.930 . S
H77 C54 0.930 . S
H78 C56 0.929 . S
H79 C57 0.929 . S
La80 C82 2.928 . S
La80 O100 2.521 . S
La80 O101 2.628 1_554 S
La80 O102 2.554 . S
La80 O103 2.757 . S
La80 O104 2.470 . S
La80 O109 2.482 1_554 S
La80 O111 2.503 . S
La81 C91 2.928 . S
La81 O103 2.482 1_556 S
La81 O105 2.503 . S
La81 O106 2.521 . S
La81 O107 2.628 1_556 S
La81 O108 2.554 . S
La81 O109 2.757 . S
La81 O110 2.470 . S
C82 La80 2.928 . S
C82 C83 1.503 . S
C82 O100 1.261 . S
C82 O101 1.243 1_554 S
C83 C82 1.503 . S
C83 C84 1.394 . S
C83 C88 1.373 1_554 S
C84 C83 1.394 . S
C84 C85 1.380 . S
C84 H112 0.930 . S
C85 C84 1.380 . S
C85 C86 1.376 . S
C85 H113 0.930 . S
C86 C85 1.376 . S
C86 C87 1.370 1_554 S
C87 C86 1.370 1_556 S
C87 C88 1.396 . S
C87 H114 0.929 . S
C88 C83 1.373 1_556 S
C88 C87 1.396 . S
C88 H115 0.929 . S
C89 O102 1.240 . S
C89 O103 1.289 . S
C90 O104 1.258 . S
C90 O105 1.256 1_554 S
C91 La81 2.928 . S
C91 C92 1.503 . S
C91 O106 1.261 . S
C91 O107 1.243 1_556 S
C92 C91 1.503 . S
C92 C93 1.394 . S
C92 C97 1.373 1_556 S
C93 C92 1.394 . S
C93 C94 1.380 . S
C93 H116 0.930 . S
C94 C93 1.380 . S
C94 C95 1.374 1_556 S
C94 H117 0.930 . S
C95 C94 1.374 1_554 S
C95 C96 1.372 . S
C96 C95 1.372 . S
C96 C97 1.396 . S
C96 H118 0.929 . S
C97 C92 1.373 1_554 S
C97 C96 1.396 . S
C97 H119 0.929 . S
C98 O108 1.240 . S
C98 O109 1.289 . S
C99 O110 1.258 . S
C99 O111 1.256 1_556 S
O100 La80 2.521 . S
O100 C82 1.261 . S
O101 La80 2.628 1_556 S
O101 C82 1.243 1_556 S
O102 La80 2.554 . S
O102 C89 1.240 . S
O103 La80 2.757 . S
O103 La81 2.482 1_554 S
O103 C89 1.289 . S
O104 La80 2.470 . S
O104 C90 1.258 . S
O105 La81 2.503 . S
O105 C90 1.256 1_556 S
O106 La81 2.521 . S
O106 C91 1.261 . S
O107 La81 2.628 1_554 S
O107 C91 1.243 1_554 S
O108 La81 2.554 . S
O108 C98 1.240 . S
O109 La80 2.482 1_556 S
O109 La81 2.757 . S
O109 C98 1.289 . S
O110 La81 2.470 . S
O110 C99 1.258 . S
O111 La80 2.503 . S
O111 C99 1.256 1_554 S
H112 C84 0.930 . S
H113 C85 0.930 . S
H114 C87 0.929 . S
H115 C88 0.929 . S
H116 C93 0.930 . S
H117 C94 0.930 . S
H118 C96 0.929 . S
H119 C97 0.929 . S
C120 C121 1.363 1_655 S
C120 C126 1.379 . S
C120 N128 1.356 . S
C121 C120 1.363 1_455 S
C121 C127 1.363 . S
C122 C123 1.368 . S
C122 C127 1.379 . S
C122 N129 1.356 . S
C123 C122 1.368 . S
C123 C126 1.358 1_455 S
N124 C126 1.356 . S
N124 H136 0.984 . S
N124 H137 0.985 . S
N125 C127 1.356 . S
N125 H130 0.984 . S
N125 H131 0.985 . S
C126 C120 1.379 . S
C126 C123 1.358 1_655 S
C126 N124 1.356 . S
C127 C121 1.363 . S
C127 C122 1.379 . S
C127 N125 1.356 . S
N128 C120 1.356 . S
N128 H134 0.984 . S
N128 H135 0.984 . S
N129 C122 1.356 . S
N129 H132 0.984 . S
N129 H133 0.985 . S
H130 N125 0.984 . S
H131 N125 0.985 . S
H132 N129 0.984 . S
H133 N129 0.985 . S
H134 N128 0.984 . S
H135 N128 0.984 . S
H136 N124 0.984 . S
H137 N124 0.985 . S
C138 C139 1.354 1_565 S
C138 C144 1.379 . S
C138 N146 1.356 . S
C139 C138 1.354 1_545 S
C139 C145 1.370 . S
C140 C141 1.359 1_545 S
C140 C145 1.379 . S
C140 N147 1.356 . S
C141 C140 1.359 1_565 S
C141 C144 1.367 . S
N142 C144 1.356 . S
N142 H154 0.984 . S
N142 H155 0.985 . S
N143 C145 1.356 . S
N143 H148 0.984 . S
N143 H149 0.985 . S
C144 C138 1.379 . S
C144 C141 1.367 . S
C144 N142 1.356 . S
C145 C139 1.370 . S
C145 C140 1.379 . S
C145 N143 1.356 . S
N146 C138 1.356 . S
N146 H152 0.984 . S
N146 H153 0.984 . S
N147 C140 1.356 . S
N147 H150 0.984 . S
N147 H151 0.985 . S
H148 N143 0.984 . S
H149 N143 0.985 . S
H150 N147 0.984 . S
H151 N147 0.985 . S
H152 N146 0.984 . S
H153 N146 0.984 . S
H154 N142 0.984 . S
H155 N142 0.985 . S
C156 C157 1.363 . S
C156 C162 1.379 . S
C156 N164 1.356 . S
C157 C156 1.363 . S
C157 C163 1.363 . S
C158 C159 1.363 . S
C158 C163 1.379 . S
C158 N165 1.356 . S
C159 C158 1.363 . S
C159 C162 1.363 . S
N160 C162 1.356 . S
N160 H172 0.984 . S
N160 H173 0.985 . S
N161 C163 1.356 . S
N161 H166 0.984 . S
N161 H167 0.985 . S
C162 C156 1.379 . S
C162 C159 1.363 . S
C162 N160 1.356 . S
C163 C157 1.363 . S
C163 C158 1.379 . S
C163 N161 1.356 . S
N164 C156 1.356 . S
N164 H170 0.984 . S
N164 H171 0.984 . S
N165 C158 1.356 . S
N165 H168 0.984 . S
N165 H169 0.985 . S
H166 N161 0.984 . S
H167 N161 0.985 . S
H168 N165 0.984 . S
H169 N165 0.985 . S
H170 N164 0.984 . S
H171 N164 0.984 . S
H172 N160 0.984 . S
H173 N160 0.985 . S
C174 C175 1.363 . S
C174 C180 1.379 . S
C174 N182 1.356 . S
C175 C174 1.363 . S
C175 C181 1.363 1_556 S
C176 C177 1.363 1_554 S
C176 C181 1.379 . S
C176 N183 1.356 . S
C177 C176 1.363 1_556 S
C177 C180 1.363 . S
N178 C180 1.356 . S
N178 H190 0.984 . S
N178 H191 0.985 . S
N179 C181 1.356 . S
N179 H184 0.984 . S
N179 H185 0.985 . S
C180 C174 1.379 . S
C180 C177 1.363 . S
C180 N178 1.356 . S
C181 C175 1.363 1_554 S
C181 C176 1.379 . S
C181 N179 1.356 . S
N182 C174 1.356 . S
N182 H188 0.984 . S
N182 H189 0.984 . S
N183 C176 1.356 . S
N183 H186 0.984 . S
N183 H187 0.985 . S
H184 N179 0.984 . S
H185 N179 0.985 . S
H186 N183 0.984 . S
H187 N183 0.985 . S
H188 N182 0.984 . S
H189 N182 0.984 . S
H190 N178 0.984 . S
H191 N178 0.985 . S
C192 C193 1.363 1_554 S
C192 C198 1.379 . S
C192 N200 1.356 . S
C193 C192 1.363 1_556 S
C193 C199 1.363 . S
C194 C195 1.363 . S
C194 C199 1.379 . S
C194 N201 1.356 . S
C195 C194 1.363 . S
C195 C198 1.363 1_556 S
N196 C198 1.356 . S
N196 H208 0.984 . S
N196 H209 0.985 . S
N197 C199 1.356 . S
N197 H202 0.984 . S
N197 H203 0.985 . S
C198 C192 1.379 . S
C198 C195 1.363 1_554 S
C198 N196 1.356 . S
C199 C193 1.363 . S
C199 C194 1.379 . S
C199 N197 1.356 . S
N200 C192 1.356 . S
N200 H206 0.984 . S
N200 H207 0.984 . S
N201 C194 1.356 . S
N201 H204 0.984 . S
N201 H205 0.985 . S
H202 N197 0.984 . S
H203 N197 0.985 . S
H204 N201 0.984 . S
H205 N201 0.985 . S
H206 N200 0.984 . S
H207 N200 0.984 . S
H208 N196 0.984 . S
H209 N196 0.985 . S
C210 C211 1.363 . S
C210 C216 1.379 . S
C210 N218 1.356 . S
C211 C210 1.363 . S
C211 C217 1.363 1_556 S
C212 C213 1.363 1_554 S
C212 C217 1.379 . S
C212 N219 1.356 . S
C213 C212 1.363 1_556 S
C213 C216 1.363 . S
N214 C216 1.356 . S
N214 H226 0.984 . S
N214 H227 0.985 . S
N215 C217 1.356 . S
N215 H220 0.984 . S
N215 H221 0.985 . S
C216 C210 1.379 . S
C216 C213 1.363 . S
C216 N214 1.356 . S
C217 C211 1.363 1_554 S
C217 C212 1.379 . S
C217 N215 1.356 . S
N218 C210 1.356 . S
N218 H224 0.984 . S
N218 H225 0.984 . S
N219 C212 1.356 . S
N219 H222 0.984 . S
N219 H223 0.985 . S
H220 N215 0.984 . S
H221 N215 0.985 . S
H222 N219 0.984 . S
H223 N219 0.985 . S
H224 N218 0.984 . S
H225 N218 0.984 . S
H226 N214 0.984 . S
H227 N214 0.985 . S
C228 C229 1.363 . S
C228 C234 1.379 . S
C228 N236 1.356 . S
C229 C228 1.363 . S
C229 C235 1.363 1_554 S
C230 C231 1.363 1_556 S
C230 C235 1.379 . S
C230 N237 1.356 . S
C231 C230 1.363 1_554 S
C231 C234 1.363 . S
N232 C234 1.356 . S
N232 H244 0.984 . S
N232 H245 0.985 . S
N233 C235 1.356 . S
N233 H238 0.984 . S
N233 H239 0.985 . S
C234 C228 1.379 . S
C234 C231 1.363 . S
C234 N232 1.356 . S
C235 C229 1.363 1_556 S
C235 C230 1.379 . S
C235 N233 1.356 . S
N236 C228 1.356 . S
N236 H242 0.984 . S
N236 H243 0.984 . S
N237 C230 1.356 . S
N237 H240 0.984 . S
N237 H241 0.985 . S
H238 N233 0.984 . S
H239 N233 0.985 . S
H240 N237 0.984 . S
H241 N237 0.985 . S
H242 N236 0.984 . S
H243 N236 0.984 . S
H244 N232 0.984 . S
H245 N232 0.985 . S
C246 C247 1.363 1_556 S
C246 C252 1.379 . S
C246 N254 1.356 . S
C247 C246 1.363 1_554 S
C247 C253 1.363 . S
C248 C249 1.363 . S
C248 C253 1.379 . S
C248 N255 1.356 . S
C249 C248 1.363 . S
C249 C252 1.363 1_554 S
N250 C252 1.356 . S
N250 H262 0.984 . S
N250 H263 0.985 . S
N251 C253 1.356 . S
N251 H256 0.984 . S
N251 H257 0.985 . S
C252 C246 1.379 . S
C252 C249 1.363 1_556 S
C252 N250 1.356 . S
C253 C247 1.363 . S
C253 C248 1.379 . S
C253 N251 1.356 . S
N254 C246 1.356 . S
N254 H260 0.984 . S
N254 H261 0.984 . S
N255 C248 1.356 . S
N255 H258 0.984 . S
N255 H259 0.985 . S
H256 N251 0.984 . S
H257 N251 0.985 . S
H258 N255 0.984 . S
H259 N255 0.985 . S
H260 N254 0.984 . S
H261 N254 0.984 . S
H262 N250 0.984 . S
H263 N250 0.985 . S
C264 C265 1.363 . S
C264 C270 1.379 . S
C264 N272 1.356 . S
C265 C264 1.363 . S
C265 C271 1.363 1_554 S
C266 C267 1.363 1_556 S
C266 C271 1.379 . S
C266 N273 1.356 . S
C267 C266 1.363 1_554 S
C267 C270 1.363 . S
N268 C270 1.356 . S
N268 H280 0.984 . S
N268 H281 0.985 . S
N269 C271 1.356 . S
N269 H274 0.984 . S
N269 H275 0.985 . S
C270 C264 1.379 . S
C270 C267 1.363 . S
C270 N268 1.356 . S
C271 C265 1.363 1_556 S
C271 C266 1.379 . S
C271 N269 1.356 . S
N272 C264 1.356 . S
N272 H278 0.984 . S
N272 H279 0.984 . S
N273 C266 1.356 . S
N273 H276 0.984 . S
N273 H277 0.985 . S
H274 N269 0.984 . S
H275 N269 0.985 . S
H276 N273 0.984 . S
H277 N273 0.985 . S
H278 N272 0.984 . S
H279 N272 0.984 . S
H280 N268 0.984 . S
H281 N268 0.985 . S
C121 C9 1.452 . S
C123 C18 1.452 . S
C139 C49 1.449 . S
C141 C58 1.448 . S
C157 C98 1.455 . S
C159 C89 1.455 . S
C175 C19 2.664 1_556 S
C177 C90 2.574 1_556 S
C193 C46 0.948 . S
C195 C6 0.950 . S
C211 C59 2.312 . S
C213 C86 2.210 1_556 S
C229 C10 2.665 1_554 S
C231 C99 2.574 1_554 S
C247 C15 0.952 . S
C249 C55 0.951 . S
C265 C95 2.208 . S
C267 C50 2.310 . S
