# Generated by pormake.
# Topology bcs, (6)-cn, num edge types: 1
# Building blocks:
#     Node 0, Type 0, BuildingBlock: INOVEN_clean_sbu_0, # of connection points: 6
#     Node 1, Type 0, BuildingBlock: INOVEN_clean_sbu_0, # of connection points: 6
#     Node 2, Type 0, BuildingBlock: INOVEN_clean_sbu_0, # of connection points: 6
#     Node 3, Type 0, BuildingBlock: INOVEN_clean_sbu_0, # of connection points: 6
#     Node 4, Type 0, BuildingBlock: INOVEN_clean_sbu_0, # of connection points: 6
#     Node 5, Type 0, BuildingBlock: INOVEN_clean_sbu_0, # of connection points: 6
#     Node 6, Type 0, BuildingBlock: INOVEN_clean_sbu_0, # of connection points: 6
#     Node 7, Type 0, BuildingBlock: INOVEN_clean_sbu_0, # of connection points: 6
#     Node 8, Type 0, BuildingBlock: INOVEN_clean_sbu_0, # of connection points: 6
#     Node 9, Type 0, BuildingBlock: INOVEN_clean_sbu_0, # of connection points: 6
#     Node 10, Type 0, BuildingBlock: INOVEN_clean_sbu_0, # of connection points: 6
#     Node 11, Type 0, BuildingBlock: INOVEN_clean_sbu_0, # of connection points: 6
#     Node 12, Type 0, BuildingBlock: INOVEN_clean_sbu_0, # of connection points: 6
#     Node 13, Type 0, BuildingBlock: INOVEN_clean_sbu_0, # of connection points: 6
#     Node 14, Type 0, BuildingBlock: INOVEN_clean_sbu_0, # of connection points: 6
#     Node 15, Type 0, BuildingBlock: INOVEN_clean_sbu_0, # of connection points: 6
#     Edge 16, Type (0, 0), BuildingBlock: UVAHIK_clean_linker_0, # of connection points: 2
#     Edge 17, Type (0, 0), BuildingBlock: UVAHIK_clean_linker_0, # of connection points: 2
#     Edge 18, Type (0, 0), BuildingBlock: UVAHIK_clean_linker_0, # of connection points: 2
#     Edge 19, Type (0, 0), BuildingBlock: UVAHIK_clean_linker_0, # of connection points: 2
#     Edge 20, Type (0, 0), BuildingBlock: UVAHIK_clean_linker_0, # of connection points: 2
#     Edge 21, Type (0, 0), BuildingBlock: UVAHIK_clean_linker_0, # of connection points: 2
#     Edge 22, Type (0, 0), BuildingBlock: UVAHIK_clean_linker_0, # of connection points: 2
#     Edge 23, Type (0, 0), BuildingBlock: UVAHIK_clean_linker_0, # of connection points: 2
#     Edge 24, Type (0, 0), BuildingBlock: UVAHIK_clean_linker_0, # of connection points: 2
#     Edge 25, Type (0, 0), BuildingBlock: UVAHIK_clean_linker_0, # of connection points: 2
#     Edge 26, Type (0, 0), BuildingBlock: UVAHIK_clean_linker_0, # of connection points: 2
#     Edge 27, Type (0, 0), BuildingBlock: UVAHIK_clean_linker_0, # of connection points: 2
#     Edge 28, Type (0, 0), BuildingBlock: UVAHIK_clean_linker_0, # of connection points: 2
#     Edge 29, Type (0, 0), BuildingBlock: UVAHIK_clean_linker_0, # of connection points: 2
#     Edge 30, Type (0, 0), BuildingBlock: UVAHIK_clean_linker_0, # of connection points: 2
#     Edge 31, Type (0, 0), BuildingBlock: UVAHIK_clean_linker_0, # of connection points: 2
#     Edge 32, Type (0, 0), BuildingBlock: UVAHIK_clean_linker_0, # of connection points: 2
#     Edge 33, Type (0, 0), BuildingBlock: UVAHIK_clean_linker_0, # of connection points: 2
#     Edge 34, Type (0, 0), BuildingBlock: UVAHIK_clean_linker_0, # of connection points: 2
#     Edge 35, Type (0, 0), BuildingBlock: UVAHIK_clean_linker_0, # of connection points: 2
#     Edge 36, Type (0, 0), BuildingBlock: UVAHIK_clean_linker_0, # of connection points: 2
#     Edge 37, Type (0, 0), BuildingBlock: UVAHIK_clean_linker_0, # of connection points: 2
#     Edge 38, Type (0, 0), BuildingBlock: UVAHIK_clean_linker_0, # of connection points: 2
#     Edge 39, Type (0, 0), BuildingBlock: UVAHIK_clean_linker_0, # of connection points: 2
#     Edge 40, Type (0, 0), BuildingBlock: UVAHIK_clean_linker_0, # of connection points: 2
#     Edge 41, Type (0, 0), BuildingBlock: UVAHIK_clean_linker_0, # of connection points: 2
#     Edge 42, Type (0, 0), BuildingBlock: UVAHIK_clean_linker_0, # of connection points: 2
#     Edge 43, Type (0, 0), BuildingBlock: UVAHIK_clean_linker_0, # of connection points: 2
#     Edge 44, Type (0, 0), BuildingBlock: UVAHIK_clean_linker_0, # of connection points: 2
#     Edge 45, Type (0, 0), BuildingBlock: UVAHIK_clean_linker_0, # of connection points: 2
#     Edge 46, Type (0, 0), BuildingBlock: UVAHIK_clean_linker_0, # of connection points: 2
#     Edge 47, Type (0, 0), BuildingBlock: UVAHIK_clean_linker_0, # of connection points: 2
#     Edge 48, Type (0, 0), BuildingBlock: UVAHIK_clean_linker_0, # of connection points: 2
#     Edge 49, Type (0, 0), BuildingBlock: UVAHIK_clean_linker_0, # of connection points: 2
#     Edge 50, Type (0, 0), BuildingBlock: UVAHIK_clean_linker_0, # of connection points: 2
#     Edge 51, Type (0, 0), BuildingBlock: UVAHIK_clean_linker_0, # of connection points: 2
#     Edge 52, Type (0, 0), BuildingBlock: UVAHIK_clean_linker_0, # of connection points: 2
#     Edge 53, Type (0, 0), BuildingBlock: UVAHIK_clean_linker_0, # of connection points: 2
#     Edge 54, Type (0, 0), BuildingBlock: UVAHIK_clean_linker_0, # of connection points: 2
#     Edge 55, Type (0, 0), BuildingBlock: UVAHIK_clean_linker_0, # of connection points: 2
#     Edge 56, Type (0, 0), BuildingBlock: UVAHIK_clean_linker_0, # of connection points: 2
#     Edge 57, Type (0, 0), BuildingBlock: UVAHIK_clean_linker_0, # of connection points: 2
#     Edge 58, Type (0, 0), BuildingBlock: UVAHIK_clean_linker_0, # of connection points: 2
#     Edge 59, Type (0, 0), BuildingBlock: UVAHIK_clean_linker_0, # of connection points: 2
#     Edge 60, Type (0, 0), BuildingBlock: UVAHIK_clean_linker_0, # of connection points: 2
#     Edge 61, Type (0, 0), BuildingBlock: UVAHIK_clean_linker_0, # of connection points: 2
#     Edge 62, Type (0, 0), BuildingBlock: UVAHIK_clean_linker_0, # of connection points: 2
#     Edge 63, Type (0, 0), BuildingBlock: UVAHIK_clean_linker_0, # of connection points: 2
# Relax obj value: 0.199
# Max RMSD: 0.243
# Mean RMSD: 0.187
data_MOF--net-bcs--node1-INOVEN_clean_sbu_0--edge1-UVAHIK_clean_linker_0
_symmetry_space_group_name_H-M    P1
_symmetry_Int_Tables_number       1
_symmetry_cell_setting            triclinic
loop_
_symmetry_equiv_pos_as_xyz
'x, y, z'
_cell_length_a     50.855512
_cell_length_b     53.485686
_cell_length_c     49.121
_cell_angle_alpha  87.375218
_cell_angle_beta   98.139268
_cell_angle_gamma 114.20118
loop_
_atom_site_label
_atom_site_type_symbol
_atom_site_fract_x
_atom_site_fract_y
_atom_site_fract_z
_atom_type_partial_charge
Gd0 Gd 0.07669 0.03561 0.05967 0.0
Gd1 Gd 1.02871 0.01924 0.00934 0.0
C2 C 0.08144 1.00103 1.00776 0.0
C3 C 0.109 0.03356 0.10409 0.0
C4 C 0.13936 0.03666 0.10834 0.0
C5 C 0.15883 0.05277 0.09042 0.0
C6 C 0.14776 0.02035 0.12763 0.0
C7 C 0.19312 0.03321 0.10842 0.0
C8 C 0.17446 0.01867 0.12773 0.0
C9 C 0.18553 0.05112 0.09052 0.0
C10 C 0.09669 0.07084 0.01828 0.0
C11 C 1.02497 0.05681 0.05995 0.0
C12 C 0.9897 0.01643 0.96834 0.0
C13 C 0.96078 0.01688 0.96667 0.0
C14 C 0.93717 0.99856 0.94903 0.0
C15 C 0.95614 0.03434 0.98401 0.0
C16 C 0.90465 0.01511 0.96644 0.0
C17 C 0.92836 0.03335 0.98406 0.0
C18 C 0.90928 0.99785 0.94872 0.0
C19 C 1.01964 0.98313 0.05128 0.0
O20 O 0.08761 0.00635 0.03475 0.0
O21 O 0.06178 0.00794 0.99254 0.0
O22 O 0.10488 0.05569 0.09655 0.0
O23 O 0.09076 0.0115 0.09001 0.0
O24 O 0.11107 0.0727 0.04255 0.0
O25 O 0.07227 0.05109 0.01789 0.0
O26 O 1.01411 0.04524 0.03502 0.0
O27 O 0.04852 0.05501 0.07384 0.0
O28 O 0.99188 0.99478 0.98001 0.0
O29 O 1.01212 0.03927 0.9763 0.0
O30 O 1.01321 0.97597 0.0255 0.0
O31 O 1.02999 0.00883 0.05324 0.0
H32 H 0.1528 0.06548 0.07528 0.0
H33 H 0.13293 0.00761 0.14143 0.0
H34 H 0.17939 0.00433 0.14155 0.0
H35 H 0.19952 0.06273 0.07559 0.0
H36 H 0.9403 0.98479 0.9356 0.0
H37 H 0.97403 0.04889 0.99746 0.0
H38 H 0.92558 0.04744 0.99737 0.0
H39 H 0.89137 0.98383 0.93474 0.0
Gd40 Gd 0.33074 0.77363 0.27783 0.0
Gd41 Gd 0.27166 0.77705 0.27191 0.0
C42 C 0.27709 0.72962 0.3085 0.0
C43 C 0.37457 0.76311 0.29732 0.0
C44 C 0.37324 0.73899 0.3141 0.0
C45 C 0.36565 0.71357 0.30121 0.0
C46 C 0.37419 0.73992 0.34282 0.0
C47 C 0.35592 0.69019 0.34468 0.0
C48 C 0.36555 0.71576 0.35793 0.0
C49 C 0.35693 0.68946 0.31629 0.0
C50 C 0.29441 0.75083 0.2317 0.0
C51 C 0.32631 0.8225 0.24389 0.0
C52 C 0.22553 0.78206 0.24877 0.0
C53 C 0.22131 0.79375 0.22165 0.0
C54 C 0.20748 0.81176 0.2183 0.0
C55 C 0.23494 0.79014 0.20009 0.0
C56 C 0.22363 0.82449 0.17328 0.0
C57 C 0.23597 0.80523 0.17609 0.0
C58 C 0.20859 0.82701 0.19427 0.0
C59 C 0.3069 0.79939 0.31862 0.0
O60 O 0.30538 0.74233 0.30753 0.0
O61 O 0.25801 0.73725 0.29368 0.0
O62 O 0.36257 0.75793 0.27165 0.0
O63 O 0.36792 0.7809 0.30896 0.0
O64 O 0.32227 0.7643 0.23203 0.0
O65 O 0.28768 0.74946 0.25554 0.0
O66 O 0.29785 0.80776 0.242 0.0
O67 O 0.34495 0.8154 0.26027 0.0
O68 O 0.24432 0.79964 0.26722 0.0
O69 O 0.22875 0.75901 0.24848 0.0
O70 O 0.27869 0.78743 0.31718 0.0
O71 O 0.31456 0.80084 0.29508 0.0
H72 H 0.36473 0.71204 0.27915 0.0
H73 H 0.38011 0.75916 0.35345 0.0
H74 H 0.36575 0.71709 0.3799 0.0
H75 H 0.3496 0.67013 0.3054 0.0
H76 H 0.19721 0.81512 0.23482 0.0
H77 H 0.24618 0.77673 0.20232 0.0
H78 H 0.24748 0.80265 0.16023 0.0
H79 H 0.1992 0.84198 0.1929 0.0
Gd80 Gd 0.54641 0.97709 0.58816 0.0
Gd81 Gd 0.56808 0.97023 0.53725 0.0
C82 C 0.52754 0.00608 0.53344 0.0
C83 C 0.54229 0.99281 0.63556 0.0
C84 C 0.53649 0.01606 0.64388 0.0
C85 C 0.50773 0.01336 0.64296 0.0
C86 C 0.55947 0.0418 0.6504 0.0
C87 C 0.52491 0.06223 0.65176 0.0
C88 C 0.55373 0.06472 0.65416 0.0
C89 C 0.50201 0.0362 0.64672 0.0
C90 C 0.50722 0.93568 0.55579 0.0
C91 C 0.58774 0.94157 0.59215 0.0
C92 C 0.58135 0.95899 0.49222 0.0
C93 C 0.60293 0.94765 0.49083 0.0
C94 C 0.62418 0.95105 0.5137 0.0
C95 C 0.59995 0.9301 0.46921 0.0
C96 C 0.63758 0.91788 0.49457 0.0
C97 C 0.61747 0.91546 0.47094 0.0
C98 C 0.6412 0.93613 0.51566 0.0
C99 C 0.60512 0.01231 0.57016 0.0
O100 O 0.53216 0.00676 0.56087 0.0
O101 O 0.53676 0.99073 0.51991 0.0
O102 O 0.52072 0.97338 0.62084 0.0
O103 O 0.56724 0.99919 0.6265 0.0
O104 O 0.50053 0.95096 0.57078 0.0
O105 O 0.53425 0.94152 0.56025 0.0
O106 O 0.58659 0.94368 0.56496 0.0
O107 O 0.57441 0.9533 0.60528 0.0
O108 O 0.5918 0.98396 0.50223 0.0
O109 O 0.55835 0.94244 0.50288 0.0
O110 O 0.61317 0.99617 0.55807 0.0
O111 O 0.57831 0.00573 0.56397 0.0
H112 H 0.48952 0.99379 0.63825 0.0
H113 H 0.58191 0.04446 0.65171 0.0
H114 H 0.57183 0.08443 0.65851 0.0
H115 H 0.47954 0.0336 0.64449 0.0
H116 H 0.62683 0.96439 0.53069 0.0
H117 H 0.58341 0.92693 0.45162 0.0
H118 H 0.61444 0.90136 0.45446 0.0
H119 H 0.6568 0.93843 0.53388 0.0
Gd120 Gd 0.30747 0.24598 0.77032 0.0
Gd121 Gd 0.2817 0.28874 0.77103 0.0
C122 C 0.33083 0.30162 0.73267 0.0
C123 C 0.3245 0.21133 0.75276 0.0
C124 C 0.34709 0.21406 0.73591 0.0
C125 C 0.37365 0.2373 0.7383 0.0
C126 C 0.34135 0.1939 0.71606 0.0
C127 C 0.38912 0.21934 0.702 0.0
C128 C 0.36217 0.19652 0.69919 0.0
C129 C 0.39464 0.23981 0.72159 0.0
C130 C 0.33352 0.28453 0.80959 0.0
C131 C 0.25934 0.23384 0.80962 0.0
C132 C 0.2644 0.32389 0.78713 0.0
C133 C 0.24354 0.32333 0.80527 0.0
C134 C 0.21487 0.30317 0.80228 0.0
C135 C 0.25272 0.3431 0.82632 0.0
C136 C 0.20446 0.32356 0.84032 0.0
C137 C 0.23339 0.34315 0.84378 0.0
C138 C 0.1954 0.30342 0.81956 0.0
C139 C 0.2555 0.24883 0.73268 0.0
O140 O 0.32926 0.27654 0.73802 0.0
O141 O 0.31618 0.31223 0.74491 0.0
O142 O 0.33343 0.22228 0.77753 0.0
O143 O 0.30273 0.21608 0.7398 0.0
O144 O 0.33102 0.25943 0.81292 0.0
O145 O 0.32431 0.28831 0.78528 0.0
O146 O 0.26184 0.25933 0.80497 0.0
O147 O 0.27251 0.22262 0.79602 0.0
O148 O 0.25367 0.31039 0.7637 0.0
O149 O 0.28749 0.32089 0.7994 0.0
O150 O 0.25821 0.27385 0.72807 0.0
O151 O 0.26502 0.24639 0.75711 0.0
H152 H 0.37822 0.25343 0.75312 0.0
H153 H 0.32081 0.17604 0.71371 0.0
H154 H 0.35756 0.18021 0.68457 0.0
H155 H 0.41523 0.25759 0.7241 0.0
H156 H 0.20739 0.28739 0.78647 0.0
H157 H 0.27481 0.35869 0.82907 0.0
H158 H 0.24079 0.35913 0.85939 0.0
H159 H 0.17322 0.28806 0.81658 0.0
Gd160 Gd 0.04527 0.9962 0.51379 0.0
Gd161 Gd 1.02644 0.03559 0.53362 0.0
C162 C 1.00137 0.97723 0.55978 0.0
C163 C 0.06435 0.95934 0.50626 0.0
C164 C 0.08341 0.94865 0.52319 0.0
C165 C 0.08248 0.923 0.517 0.0
C166 C 0.10269 0.96406 0.54559 0.0
C167 C 0.12026 0.92821 0.55548 0.0
C168 C 0.12108 0.954 0.5615 0.0
C169 C 0.10074 0.9128 0.53305 0.0
C170 C 1.00364 0.00395 0.47805 0.0
C171 C 0.07346 0.05553 0.49103 0.0
C172 C 1.00816 0.07256 0.54291 0.0
C173 C 1.00221 0.09493 0.52914 0.0
C174 C 1.00568 0.11757 0.54479 0.0
C175 C 0.99165 0.09334 0.50104 0.0
C176 C 0.98601 0.13605 0.50484 0.0
C177 C 0.9835 0.11369 0.489 0.0
C178 C 0.99772 0.13803 0.53275 0.0
C179 C 0.06965 0.02912 0.56881 0.0
O180 O 1.02341 0.97453 0.5508 0.0
O181 O 0.99517 0.99833 0.55226 0.0
O182 O 1.03919 0.95356 0.51441 0.0
O183 O 0.0769 0.98482 0.49897 0.0
O184 O 1.02476 0.99944 0.47093 0.0
O185 O 1.00399 1.00183 0.50363 0.0
O186 O 0.05041 0.05799 0.49799 0.0
O187 O 0.07951 0.03464 0.49996 0.0
O188 O 1.03542 0.07633 0.54828 0.0
O189 O 0.99095 0.04772 0.53413 0.0
O190 O 0.04688 0.03068 0.57607 0.0
O191 O 0.06814 0.03064 0.54307 0.0
H192 H 0.06757 0.91084 0.49983 0.0
H193 H 0.10361 0.98394 0.55067 0.0
H194 H 0.13611 0.96655 0.57837 0.0
H195 H 0.09925 0.89268 0.52815 0.0
H196 H 1.01397 0.11913 0.56651 0.0
H197 H 0.98891 0.076 0.4886 0.0
H198 H 0.97423 0.11134 0.46754 0.0
H199 H 1.00037 0.15519 0.54538 0.0
Gd200 Gd 0.28645 0.79012 0.80073 0.0
Gd201 Gd 0.31995 0.77499 0.75628 0.0
C202 C 0.28601 0.81322 0.73748 0.0
C203 C 0.26913 0.81485 0.83496 0.0
C204 C 0.25199 0.82996 0.84376 0.0
C205 C 0.22527 0.81566 0.85405 0.0
C206 C 0.26398 0.85885 0.84586 0.0
C207 C 0.22348 0.8585 0.86879 0.0
C208 C 0.25001 0.87279 0.85798 0.0
C209 C 0.21131 0.82957 0.86618 0.0
C210 C 0.25657 0.74359 0.77041 0.0
C211 C 0.32123 0.75271 0.81977 0.0
C212 C 0.33752 0.74985 0.72263 0.0
C213 C 0.35494 0.73446 0.71502 0.0
C214 C 0.38124 0.74835 0.7039 0.0
C215 C 0.34366 0.70553 0.71489 0.0
C216 C 0.38405 0.70502 0.6923 0.0
C217 C 0.35793 0.69116 0.70391 0.0
C218 C 0.39548 0.73402 0.69289 0.0
C219 C 0.34974 0.82148 0.78674 0.0
O220 O 0.28371 0.8161 0.76368 0.0
O221 O 0.29533 0.79538 0.72908 0.0
O222 O 0.25626 0.78855 0.82908 0.0
O223 O 0.29168 0.82752 0.82182 0.0
O224 O 0.25152 0.74671 0.79497 0.0
O225 O 0.27483 0.76571 0.76245 0.0
O226 O 0.32303 0.74938 0.79354 0.0
O227 O 0.31175 0.77047 0.82798 0.0
O228 O 0.35042 0.77619 0.72836 0.0
O229 O 0.31463 0.73746 0.7354 0.0
O230 O 0.35499 0.81848 0.76221 0.0
O231 O 0.33144 0.79929 0.79445 0.0
H232 H 0.21546 0.79346 0.85356 0.0
H233 H 0.28468 0.87081 0.83872 0.0
H234 H 0.26026 0.89496 0.85892 0.0
H235 H 0.19133 0.81736 0.87441 0.0
H236 H 0.39049 0.77051 0.70286 0.0
H237 H 0.32329 0.69381 0.72273 0.0
H238 H 0.34822 0.669 0.70451 0.0
H239 H 0.41509 0.74593 0.68395 0.0
Gd240 Gd 0.5163 0.03064 0.02148 0.0
Gd241 Gd 0.50034 0.07908 0.02431 0.0
C242 C 0.55029 0.08692 0.98886 0.0
C243 C 0.52702 0.99093 1.00518 0.0
C244 C 0.55091 0.98822 0.99386 0.0
C245 C 0.57865 0.00985 0.99598 0.0
C246 C 0.54583 0.96379 0.98051 0.0
C247 C 0.59623 0.9823 0.97178 0.0
C248 C 0.56828 0.96083 0.96954 0.0
C249 C 0.60119 0.00686 0.9851 0.0
C250 C 0.54542 0.06494 0.06444 0.0
C251 C 0.46685 0.02324 0.05726 0.0
C252 C 0.48833 0.11887 0.03837 0.0
C253 C 0.46559 0.12239 0.05103 0.0
C254 C 0.44075 0.09972 0.05699 0.0
C255 C 0.46863 0.14887 0.05686 0.0
C256 C 0.42198 0.13022 0.07446 0.0
C257 C 0.44707 0.15278 0.06849 0.0
C258 C 0.4191 0.1036 0.06864 0.0
C259 C 0.47174 0.04357 0.98187 0.0
O260 O 0.54296 0.06022 0.99121 0.0
O261 O 0.53943 0.09997 1.00295 0.0
O262 O 0.53248 0.99919 0.03085 0.0
O263 O 0.51268 0.0027 0.98921 0.0
O264 O 0.53707 0.03856 0.06552 0.0
O265 O 0.53951 0.07212 0.04035 0.0
O266 O 0.47573 0.05022 0.05636 0.0
O267 O 0.47619 0.01015 0.04152 0.0
O268 O 0.48033 0.10757 0.01384 0.0
O269 O 0.50523 0.1097 0.05432 0.0
O270 O 0.48041 0.06988 0.97945 0.0
O271 O 0.4776 0.03775 1.00631 0.0
H272 H 0.58283 0.02897 1.00604 0.0
H273 H 0.52451 0.94695 0.97867 0.0
H274 H 0.56387 0.94155 0.9597 0.0
H275 H 0.62241 0.02384 0.98689 0.0
H276 H 0.43805 0.0791 0.05252 0.0
H277 H 0.48774 0.16657 0.05243 0.0
H278 H 0.45028 0.17351 0.07318 0.0
H279 H 0.39998 0.08581 0.0728 0.0
Gd280 Gd 0.31589 0.25791 0.3042 0.0
Gd281 Gd 0.27518 0.28312 0.26513 0.0
C282 C 0.28646 0.2342 0.24127 0.0
C283 C 0.33919 0.22697 0.33292 0.0
C284 C 0.35342 0.20946 0.34971 0.0
C285 C 0.38355 0.22027 0.35962 0.0
C286 C 0.33755 0.18147 0.35544 0.0
C287 C 0.38132 0.17596 0.3801 0.0
C288 C 0.35108 0.1652 0.37014 0.0
C289 C 0.39706 0.20408 0.3744 0.0
C290 C 0.34318 0.30132 0.27202 0.0
C291 C 0.30546 0.30739 0.32755 0.0
C292 C 0.25104 0.31356 0.23659 0.0
C293 C 0.23615 0.33069 0.22003 0.0
C294 C 0.20547 0.32106 0.21449 0.0
C295 C 0.25202 0.35713 0.21 0.0
C296 C 0.2072 0.36349 0.18983 0.0
C297 C 0.238 0.37302 0.19531 0.0
C298 C 0.19144 0.33692 0.19988 0.0
C299 C 0.24826 0.23978 0.29773 0.0
O300 O 0.29623 0.22962 0.26678 0.0
O301 O 0.28079 0.25605 0.23465 0.0
O302 O 0.35402 0.25242 0.32623 0.0
O303 O 0.3112 0.21854 0.32442 0.0
O304 O 0.35483 0.29629 0.29574 0.0
O305 O 0.31853 0.28212 0.26552 0.0
O306 O 0.29598 0.31206 0.30198 0.0
O307 O 0.31011 0.28505 0.33442 0.0
O308 O 0.23639 0.28897 0.24555 0.0
O309 O 0.2793 0.32144 0.24279 0.0
O310 O 0.23649 0.24444 0.27388 0.0
O311 O 0.2728 0.25916 0.3039 0.0
H312 H 0.39701 0.24149 0.35579 0.0
H313 H 0.31442 0.17192 0.34839 0.0
H314 H 0.33745 0.14404 0.37392 0.0
H315 H 0.42026 0.21376 0.3809 0.0
H316 H 0.19199 0.301 0.22157 0.0
H317 H 0.27557 0.36579 0.21365 0.0
H318 H 0.25164 0.3932 0.18869 0.0
H319 H 0.16793 0.3279 0.19623 0.0
Gd320 Gd 0.57414 0.51263 0.04578 0.0
Gd321 Gd 0.52202 0.52796 0.03124 0.0
C322 C 0.51729 0.48398 0.07829 0.0
C323 C 0.61905 0.50484 0.06838 0.0
C324 C 0.62801 0.48224 0.07445 0.0
C325 C 0.61812 0.45953 0.05656 0.0
C326 C 0.64824 0.48432 0.09762 0.0
C327 C 0.65054 0.44222 0.08399 0.0
C328 C 0.65934 0.46442 0.10244 0.0
C329 C 0.62938 0.43965 0.06127 0.0
C330 C 0.5341 0.48253 1.00484 0.0
C331 C 0.57936 0.55868 1.00026 0.0
C332 C 0.47766 0.53611 1.00791 0.0
C333 C 0.47217 0.55938 0.99611 0.0
C334 C 0.48799 0.58592 1.00728 0.0
C335 C 0.4505 0.55491 0.97362 0.0
C336 C 0.45971 0.60317 0.974 0.0
C337 C 0.44434 0.57668 0.96256 0.0
C338 C 0.48162 0.60767 0.99641 0.0
C339 C 0.56278 0.5579 0.07211 0.0
O340 O 0.54572 0.49131 0.07921 0.0
O341 O 0.50244 0.49207 0.05825 0.0
O342 O 0.61476 0.51034 0.04234 0.0
O343 O 0.59968 0.50613 0.08256 0.0
O344 O 0.56144 0.48751 1.00656 0.0
O345 O 0.52908 0.49082 0.02614 0.0
O346 O 0.55073 0.55036 0.99836 0.0
O347 O 0.59377 0.55049 0.02072 0.0
O348 O 0.48513 0.5371 0.03459 0.0
O349 O 0.49277 0.5274 0.99438 0.0
O350 O 0.53556 0.55328 0.07097 0.0
O351 O 0.56686 0.54929 0.05064 0.0
H352 H 0.60233 0.45754 0.03858 0.0
H353 H 0.65592 0.50166 0.11168 0.0
H354 H 0.67504 0.46658 0.12053 0.0
H355 H 0.62221 0.4228 0.04671 0.0
H356 H 0.50504 0.58977 0.02453 0.0
H357 H 0.43815 0.53454 0.96479 0.0
H358 H 0.42715 0.5727 0.94542 0.0
H359 H 0.49388 0.62798 1.00537 0.0
Gd360 Gd 0.78987 0.29006 0.30611 0.0
Gd361 Gd 0.81328 0.25782 0.26715 0.0
C362 C 0.78185 0.29693 0.24115 0.0
C363 C 0.78017 0.31984 0.34147 0.0
C364 C 0.76154 0.33314 0.35078 0.0
C365 C 0.73804 0.31851 0.36558 0.0
C366 C 0.76953 0.36164 0.3483 0.0
C367 C 0.73165 0.36052 0.37548 0.0
C368 C 0.7549 0.375 0.36025 0.0
C369 C 0.72338 0.33186 0.37755 0.0
C370 C 0.74875 0.24498 0.27892 0.0
C371 C 0.82198 0.25067 0.33173 0.0
C372 C 0.82342 0.22875 0.23147 0.0
C373 C 0.84318 0.21696 0.22189 0.0
C374 C 0.86222 0.23083 0.20259 0.0
C375 C 0.84048 0.1902 0.22888 0.0
C376 C 0.8747 0.19143 0.1972 0.0
C377 C 0.85596 0.17776 0.21689 0.0
C378 C 0.8777 0.21841 0.19061 0.0
C379 C 0.85417 0.30329 0.29392 0.0
O380 O 0.78682 0.30966 0.26512 0.0
O381 O 0.78612 0.27444 0.23823 0.0
O382 O 0.77173 0.29317 0.34297 0.0
O383 O 0.79503 0.33013 0.32088 0.0
O384 O 0.74388 0.2652 0.28715 0.0
O385 O 0.77443 0.24819 0.28812 0.0
O386 O 0.81671 0.23818 0.30764 0.0
O387 O 0.81664 0.27258 0.33515 0.0
O388 O 0.83022 0.25516 0.22941 0.0
O389 O 0.80975 0.21823 0.25274 0.0
O390 O 0.8593 0.28312 0.28602 0.0
O391 O 0.82844 0.29976 0.28472 0.0
H392 H 0.73126 0.29667 0.36849 0.0
H393 H 0.78784 0.37393 0.33772 0.0
H394 H 0.76263 0.39701 0.35824 0.0
H395 H 0.70548 0.31951 0.38856 0.0
H396 H 0.86459 0.25116 0.19603 0.0
H397 H 0.82579 0.17848 0.24323 0.0
H398 H 0.85305 0.15722 0.22313 0.0
H399 H 0.89132 0.22982 0.17537 0.0
Gd400 Gd 0.1052 0.48092 0.53806 0.0
Gd401 Gd 0.08998 0.52984 0.5379 0.0
C402 C 0.14032 0.53545 0.50451 0.0
C403 C 0.11843 0.44106 0.52693 0.0
C404 C 0.14142 0.43715 0.5148 0.0
C405 C 0.15688 0.42346 0.52997 0.0
C406 C 0.14803 0.44653 0.48838 0.0
C407 C 0.18462 0.42762 0.49219 0.0
C408 C 0.16936 0.44172 0.47716 0.0
C409 C 0.17834 0.41886 0.51888 0.0
C410 C 0.13264 0.51713 0.58016 0.0
C411 C 0.0538 0.4744 0.57083 0.0
C412 C 0.07848 0.56973 0.55207 0.0
C413 C 0.05371 0.57211 0.56222 0.0
C414 C 1.025 0.55758 0.54963 0.0
C415 C 0.05882 0.58846 0.58553 0.0
C416 C 1.0069 0.57599 0.5835 0.0
C417 C 1.03562 0.59031 0.59615 0.0
C418 C 1.0018 0.55968 0.56008 0.0
C419 C 0.06214 0.49483 0.49517 0.0
O420 O 0.1303 0.5084 0.50544 0.0
O421 O 0.13143 0.54931 0.51978 0.0
O422 O 0.12639 0.45369 0.55079 0.0
O423 O 0.10022 0.44835 0.5105 0.0
O424 O 0.12302 0.49083 0.58328 0.0
O425 O 0.128 0.5226 0.55537 0.0
O426 O 0.06154 0.50109 0.56762 0.0
O427 O 0.06517 0.46079 0.5582 0.0
O428 O 0.0746 0.56155 0.52651 0.0
O429 O 0.09264 0.55848 0.56901 0.0
O430 O 0.07121 0.52125 0.49333 0.0
O431 O 0.06676 0.48811 0.51973 0.0
H432 H 0.15225 0.41618 0.55044 0.0
H433 H 0.13654 0.45727 0.47623 0.0
H434 H 0.17333 0.44846 0.45643 0.0
H435 H 0.18997 0.40837 0.53124 0.0
H436 H 1.02044 0.5445 0.53183 0.0
H437 H 0.08078 0.59971 0.5956 0.0
H438 H 0.04017 0.60325 0.61407 0.0
H439 H 0.97984 0.54827 0.5501 0.0
Gd440 Gd 0.8303 0.76947 0.2916 0.0
Gd441 Gd 0.78568 0.79329 0.28303 0.0
C442 C 0.83567 0.81163 0.24304 0.0
C443 C 0.86382 0.74431 0.29282 0.0
C444 C 0.88494 0.74944 0.27346 0.0
C445 C 0.89724 0.77572 0.26218 0.0
C446 C 0.88762 0.72744 0.26156 0.0
C447 C 0.91039 0.75708 0.22491 0.0
C448 C 0.90052 0.73129 0.23749 0.0
C449 C 0.90967 0.77947 0.238 0.0
C450 C 0.84497 0.81811 0.31664 0.0
C451 C 0.78002 0.7507 0.33109 0.0
C452 C 0.75401 0.81967 0.28437 0.0
C453 C 0.73813 0.81754 0.30796 0.0
C454 C 0.71471 0.79272 0.31272 0.0
C455 C 0.75124 0.837 0.32943 0.0
C456 C 0.72232 0.80459 0.36103 0.0
C457 C 0.74368 0.83042 0.35582 0.0
C458 C 0.70683 0.78634 0.33909 0.0
C459 C 0.76911 0.74395 0.25974 0.0
O460 O 0.84031 0.78984 0.25133 0.0
O461 O 0.81751 0.81882 0.25415 0.0
O462 O 0.86925 0.76449 0.30984 0.0
O463 O 0.83666 0.73355 0.2813 0.0
O464 O 0.86286 0.81257 0.30427 0.0
O465 O 0.82104 0.79788 0.31548 0.0
O466 O 0.77679 0.77343 0.3238 0.0
O467 O 0.79737 0.74298 0.31921 0.0
O468 O 0.74521 0.79741 0.26927 0.0
O469 O 0.78242 0.83152 0.2901 0.0
O470 O 0.75207 0.75115 0.27152 0.0
O471 O 0.7936 0.76347 0.25929 0.0
H472 H 0.89525 0.79304 0.27081 0.0
H473 H 0.87787 0.70697 0.26968 0.0
H474 H 0.90068 0.71368 0.22757 0.0
H475 H 0.91725 0.79953 0.22869 0.0
H476 H 0.70396 0.77726 0.29664 0.0
H477 H 0.76914 0.85636 0.3264 0.0
H478 H 0.75526 0.84517 0.3724 0.0
H479 H 0.6899 0.7665 0.34265 0.0
Gd480 Gd 0.82186 0.27224 0.79224 0.0
Gd481 Gd 0.77331 0.28376 0.75647 0.0
C482 C 0.75524 0.24742 0.80887 0.0
C483 C 0.85411 0.26556 0.83461 0.0
C484 C 0.84642 0.2436 0.85489 0.0
C485 C 0.82429 0.2178 0.84718 0.0
C486 C 0.85932 0.2487 0.88235 0.0
C487 C 0.82885 0.20182 0.89399 0.0
C488 C 0.85062 0.22795 0.90179 0.0
C489 C 0.81571 0.19709 0.86647 0.0
C490 C 0.7922 0.23613 0.75103 0.0
C491 C 0.84007 0.3095 0.74061 0.0
C492 C 0.73879 0.28809 0.71458 0.0
C493 C 0.74314 0.3038 0.68902 0.0
C494 C 0.72463 0.3167 0.67965 0.0
C495 C 0.76662 0.30755 0.67484 0.0
C496 C 0.75374 0.33811 0.64291 0.0
C497 C 0.77188 0.32458 0.65197 0.0
C498 C 0.72987 0.33372 0.65687 0.0
C499 C 0.80195 0.31863 0.79875 0.0
O500 O 0.78327 0.25326 0.81599 0.0
O501 O 0.74507 0.25473 0.78502 0.0
O502 O 0.85471 0.25806 0.80973 0.0
O503 O 0.8407 0.28183 0.83484 0.0
O504 O 0.81953 0.24255 0.75969 0.0
O505 O 0.78184 0.24723 0.76596 0.0
O506 O 0.81189 0.3022 0.73254 0.0
O507 O 0.85004 0.3032 0.76508 0.0
O508 O 0.74509 0.30265 0.73719 0.0
O509 O 0.74792 0.26838 0.71702 0.0
O510 O 0.77448 0.31173 0.79019 0.0
O511 O 0.81292 0.30856 0.78334 0.0
H512 H 0.81359 0.21361 0.82615 0.0
H513 H 0.87598 0.2687 0.88875 0.0
H514 H 0.86096 0.23236 0.92289 0.0
H515 H 0.79927 0.17716 0.85956 0.0
H516 H 0.70656 0.31423 0.69044 0.0
H517 H 0.78126 0.29778 0.6817 0.0
H518 H 0.79032 0.32739 0.64162 0.0
H519 H 0.71581 0.34428 0.65088 0.0
Gd520 Gd 0.78948 0.75139 0.7593 0.0
Gd521 Gd 0.79893 0.78675 0.80641 0.0
C522 C 0.83069 0.74258 0.81235 0.0
C523 C 0.78691 0.72946 0.71261 0.0
C524 C 0.79732 0.70966 0.70379 0.0
C525 C 0.78335 0.69373 0.67995 0.0
C526 C 0.82128 0.7066 0.71905 0.0
C527 C 0.818 0.67253 0.68602 0.0
C528 C 0.83159 0.68831 0.71019 0.0
C529 C 0.79357 0.67527 0.67112 0.0
C530 C 0.75565 0.72573 0.79841 0.0
C531 C 0.75732 0.79533 0.75365 0.0
C532 C 0.8024 0.80963 0.85284 0.0
C533 C 0.79499 0.83173 0.86099 0.0
C534 C 0.78668 0.84762 0.84099 0.0
C535 C 0.79475 0.83611 0.88881 0.0
C536 C 0.77657 0.87135 0.87661 0.0
C537 C 0.78566 0.8558 0.8966 0.0
C538 C 0.77758 0.8673 0.84873 0.0
C539 C 0.83233 0.81203 0.76678 0.0
O540 O 0.82294 0.73834 0.78536 0.0
O541 O 0.82219 0.75904 0.82493 0.0
O542 O 0.76604 0.71979 0.72799 0.0
O543 O 0.8071 0.75325 0.72135 0.0
O544 O 0.76783 0.71448 0.78447 0.0
O545 O 0.76089 0.74994 0.79032 0.0
O546 O 0.76591 0.80028 0.78044 0.0
O547 O 0.76502 0.77823 0.74113 0.0
O548 O 0.82409 0.81693 0.83848 0.0
O549 O 0.78025 0.7874 0.84318 0.0
O550 O 0.82002 0.82335 0.78047 0.0
O551 O 0.82746 0.78809 0.77543 0.0
H552 H 0.76466 0.69569 0.66808 0.0
H553 H 0.83231 0.71867 0.73759 0.0
H554 H 0.85072 0.6871 0.72194 0.0
H555 H 0.78237 0.66319 0.65263 0.0
H556 H 0.78676 0.84448 0.81937 0.0
H557 H 0.80096 0.82388 0.90447 0.0
H558 H 0.78478 0.85814 0.91819 0.0
H559 H 0.77104 0.87914 0.83287 0.0
Gd560 Gd 0.57971 0.53962 0.55802 0.0
Gd561 Gd 0.53356 0.52011 0.51418 0.0
C562 C 0.58499 0.50187 0.50932 0.0
C563 C 0.62243 0.54566 0.59597 0.0
C564 C 0.65114 0.54628 0.59355 0.0
C565 C 0.66436 0.55675 0.56984 0.0
C566 C 0.66364 0.53319 0.61319 0.0
C567 C 0.701 0.53892 0.58438 0.0
C568 C 0.6883 0.52948 0.60866 0.0
C569 C 0.68919 0.55329 0.5654 0.0
C570 C 0.58831 0.57463 0.51505 0.0
C571 C 0.52892 0.55855 0.56267 0.0
C572 C 0.49075 0.51216 0.47545 0.0
C573 C 0.46102 0.50971 0.47573 0.0
C574 C 0.44169 0.50433 0.45129 0.0
C575 C 0.45198 0.51328 0.50043 0.0
C576 C 0.40543 0.50899 0.47568 0.0
C577 C 0.42444 0.5131 0.50038 0.0
C578 C 0.41401 0.50386 0.45126 0.0
C579 C 0.52566 0.48443 0.55635 0.0
O580 O 0.59288 0.51033 0.5354 0.0
O581 O 0.56382 0.50688 0.49465 0.0
O582 O 0.61729 0.56628 0.58521 0.0
O583 O 0.60062 0.52198 0.58997 0.0
O584 O 0.59283 0.5821 0.54057 0.0
O585 O 0.57902 0.54896 0.51341 0.0
O586 O 0.52114 0.55013 0.53656 0.0
O587 O 0.54991 0.55341 0.57747 0.0
O588 O 0.49642 0.49232 0.48741 0.0
O589 O 0.51144 0.53637 0.48197 0.0
O590 O 0.5215 0.4777 0.53069 0.0
O591 O 0.53431 0.51005 0.55876 0.0
H592 H 0.65483 0.56665 0.55417 0.0
H593 H 0.65349 0.52463 0.63139 0.0
H594 H 0.69633 0.5178 0.62351 0.0
H595 H 0.69853 0.56108 0.54666 0.0
H596 H 0.4483 0.50132 0.43211 0.0
H597 H 0.46649 0.51695 0.5196 0.0
H598 H 0.41837 0.51709 0.51947 0.0
H599 H 0.39999 0.50109 0.43184 0.0
Gd600 Gd 1.016 0.5648 0.03201 0.0
Gd601 Gd 0.04256 0.56407 0.98165 0.0
C602 C 1.00056 0.59683 0.97474 0.0
C603 C 0.99822 0.58291 0.06978 0.0
C604 C 0.98131 0.5999 0.06631 0.0
C605 C 0.9521 0.58918 0.05385 0.0
C606 C 0.99574 0.62815 0.07191 0.0
C607 C 0.95295 0.63493 0.05108 0.0
C608 C 0.9818 0.64548 0.06418 0.0
C609 C 0.93796 0.60657 0.04651 0.0
C610 C 0.98625 0.5205 1.00001 0.0
C611 C 0.05632 0.53078 0.0383 0.0
C612 C 0.05674 0.54643 0.94043 0.0
C613 C 0.06218 0.52202 0.93677 0.0
C614 C 0.07763 0.52087 0.91578 0.0
C615 C 0.05204 0.4997 0.95445 0.0
C616 C 0.07328 0.47546 0.93055 0.0
C617 C 0.05777 0.47669 0.95152 0.0
C618 C 0.08302 0.49764 0.91257 0.0
C619 C 0.07369 0.60779 0.01508 0.0
O620 O 0.99872 0.59133 1.00144 0.0
O621 O 1.0163 0.58781 0.96179 0.0
O622 O 0.98485 0.55757 0.06055 0.0
O623 O 1.02469 0.59512 0.06344 0.0
O624 O 0.98863 0.51956 0.0267 0.0
O625 O 0.99824 0.54476 0.99189 0.0
O626 O 0.05515 0.53375 0.01097 0.0
O627 O 0.04454 0.54339 0.05227 0.0
O628 O 0.07582 0.56485 0.95796 0.0
O629 O 1.02988 0.54148 0.94326 0.0
O630 O 0.07186 0.60918 0.98839 0.0
O631 O 0.06049 0.58341 0.02223 0.0
H632 H 0.94037 0.56751 0.04908 0.0
H633 H 1.01819 0.63699 0.08149 0.0
H634 H 0.99353 0.66721 0.06876 0.0
H635 H 0.91555 0.59797 0.03684 0.0
H636 H 0.08555 0.53792 0.90197 0.0
H637 H 1.03958 0.49998 0.97047 0.0
H638 H 0.04981 0.45974 0.96544 0.0
H639 H 0.09523 0.4972 0.89637 0.0
C640 C 0.23927 0.19076 0.83649 0.0
C641 C 0.2401 0.21684 0.82954 0.0
C642 C 0.2213 0.17456 0.85522 0.0
C643 C 0.15668 0.16356 0.88819 0.0
H644 H 0.19177 0.12959 0.94492 0.0
C645 C 0.09441 0.0837 0.96817 0.0
C646 C 0.10882 0.08858 0.99526 0.0
C647 C 0.10815 0.09956 0.94656 0.0
C648 C 0.18163 0.13894 0.92921 0.0
H649 H 0.22217 0.24612 0.83654 0.0
H650 H 0.19075 0.2177 0.86944 0.0
H651 H 0.22022 0.15692 0.90996 0.0
H652 H 0.14817 0.1144 0.02117 0.0
H653 H 0.17185 0.14174 0.98382 0.0
H654 H 0.11807 0.14558 0.90793 0.0
C655 C 0.20399 0.20983 0.86019 0.0
C656 C 0.19787 0.15443 0.90906 0.0
C657 C 0.22217 0.22619 0.84153 0.0
C658 C 0.13658 0.11001 1.00048 0.0
C659 C 0.15024 0.12563 0.97907 0.0
C660 C 0.14025 0.14775 0.90832 0.0
C661 C 0.20357 0.18393 0.86741 0.0
C662 C 0.1857 0.16708 0.88841 0.0
C663 C 0.13651 0.12026 0.95182 0.0
C664 C 0.15274 0.13558 0.92923 0.0
H665 H 0.25267 0.18282 0.8276 0.0
H666 H 0.22124 0.15458 0.86013 0.0
H667 H 0.14666 0.1729 0.87239 0.0
H668 H 0.07301 0.06723 0.96363 0.0
H669 H 0.0971 0.09499 0.9257 0.0
C670 C 0.2338 0.01952 0.12652 0.0
C671 C 0.21737 0.02587 0.10406 0.0
C672 C 0.24954 0.0042 0.12258 0.0
C673 C 0.23471 0.94828 0.0766 0.0
H674 H 0.29001 0.93655 0.13276 0.0
C675 C 0.20766 0.85254 0.13807 0.0
C676 C 0.2293 0.84416 0.15031 0.0
C677 C 0.2146 0.87492 0.12055 0.0
C678 C 0.27502 0.93956 0.11631 0.0
H679 H 0.20813 0.0248 0.05948 0.0
H680 H 0.23614 0.99868 0.05262 0.0
H681 H 0.29324 0.98283 0.12406 0.0
H682 H 0.27461 0.851 0.15175 0.0
H683 H 0.28672 0.89037 0.12125 0.0
H684 H 0.21531 0.90483 0.07019 0.0
C685 C 0.23629 0.00489 0.07334 0.0
C686 C 0.27676 0.9661 0.11148 0.0
C687 C 0.22039 0.02008 0.0773 0.0
C688 C 0.25747 0.85711 0.14279 0.0
C689 C 0.26449 0.87968 0.12541 0.0
C690 C 0.23304 0.92181 0.08137 0.0
C691 C 0.24916 0.99502 0.09605 0.0
C692 C 0.25519 0.97041 0.09314 0.0
C693 C 0.24337 0.88945 0.115 0.0
C694 C 0.25177 0.91701 0.10274 0.0
H695 H 0.23245 0.02431 0.14734 0.0
H696 H 0.25926 0.99713 0.14063 0.0
H697 H 0.21777 0.9507 0.06215 0.0
H698 H 0.18566 0.84265 0.14311 0.0
H699 H 0.19783 0.88205 0.11306 0.0
C700 C 0.45686 0.91308 0.53143 0.0
C701 C 0.48595 0.91637 0.53455 0.0
C702 C 0.43691 0.89743 0.50974 0.0
C703 C 0.42651 0.84888 0.45222 0.0
H704 H 0.36772 0.87501 0.4222 0.0
C705 C 0.35727 0.82383 0.34332 0.0
C706 C 0.32712 0.81085 0.34404 0.0
C707 C 0.37645 0.83435 0.36744 0.0
C708 C 0.38394 0.86744 0.43051 0.0
H709 H 0.51629 0.90367 0.51896 0.0
H710 H 0.48228 0.87819 0.47955 0.0
H711 H 0.40185 0.89782 0.46233 0.0
H712 H 0.29331 0.79916 0.37039 0.0
H713 H 0.32692 0.81882 0.41245 0.0
H714 H 0.40915 0.81948 0.41886 0.0
C715 C 0.47454 0.88734 0.49405 0.0
C716 C 0.40342 0.8803 0.45373 0.0
C717 C 0.49433 0.90243 0.51635 0.0
C718 C 0.31645 0.80899 0.36925 0.0
C719 C 0.3356 0.82013 0.39327 0.0
C720 C 0.40739 0.83644 0.42852 0.0
C721 C 0.44564 0.88514 0.49006 0.0
C722 C 0.4249 0.87112 0.46515 0.0
C723 C 0.36574 0.83277 0.39253 0.0
C724 C 0.38587 0.84554 0.41764 0.0
H725 H 0.44951 0.92307 0.54552 0.0
H726 H 0.41467 0.89536 0.50828 0.0
H727 H 0.44233 0.84085 0.46046 0.0
H728 H 0.36605 0.82608 0.32409 0.0
H729 H 0.39961 0.84437 0.36639 0.0
C730 C 0.40578 0.21249 0.65855 0.0
C731 C 0.41223 0.2199 0.68654 0.0
C732 C 0.42496 0.20581 0.64584 0.0
C733 C 0.44829 0.1637 0.63983 0.0
H734 H 0.53078 0.18493 0.66306 0.0
C735 C 0.49491 0.08513 0.66604 0.0
C736 C 0.51838 0.08667 0.65303 0.0
C737 C 0.48624 0.10673 0.66434 0.0
C738 C 0.50786 0.17903 0.65598 0.0
H739 H 0.44501 0.2292 0.72236 0.0
H740 H 0.47808 0.21689 0.70057 0.0
H741 H 0.50933 0.21793 0.66714 0.0
H742 H 0.55205 0.11265 0.62908 0.0
H743 H 0.53721 0.151 0.62689 0.0
H744 H 0.44648 0.12445 0.6301 0.0
C745 C 0.45856 0.21657 0.68815 0.0
C746 C 0.49556 0.1978 0.65838 0.0
C747 C 0.43952 0.22352 0.70075 0.0
C748 C 0.534 0.11095 0.6395 0.0
C749 C 0.52547 0.13279 0.63806 0.0
C750 C 0.46051 0.14504 0.63758 0.0
C751 C 0.45064 0.20602 0.66108 0.0
C752 C 0.46539 0.18987 0.65148 0.0
C753 C 0.50103 0.13046 0.64984 0.0
C754 C 0.49006 0.15214 0.64681 0.0
H755 H 0.38506 0.21009 0.64703 0.0
H756 H 0.41859 0.19837 0.62475 0.0
H757 H 0.42495 0.15668 0.63455 0.0
H758 H 0.48286 0.06699 0.67715 0.0
H759 H 0.4677 0.10479 0.67412 0.0
C760 C 0.14426 0.9212 0.60154 0.0
C761 C 0.13934 0.91727 0.57288 0.0
C762 C 0.16197 0.91081 0.61805 0.0
C763 C 0.21884 0.88483 0.61659 0.0
H764 H 0.1942 0.85327 0.68614 0.0
C765 C 0.27052 0.82246 0.6886 0.0
C766 C 0.27452 0.82847 0.71686 0.0
C767 C 0.2563 0.83466 0.66965 0.0
C768 C 0.20148 0.86224 0.66688 0.0
H769 H 0.14958 0.89969 0.53903 0.0
H770 H 0.17981 0.8807 0.56805 0.0
H771 H 0.1641 0.871 0.65559 0.0
H772 H 0.26854 0.85341 0.74713 0.0
H773 H 0.24382 0.87446 0.71413 0.0
H774 H 0.2561 0.87547 0.62801 0.0
C775 C 0.17027 0.8922 0.57766 0.0
C776 C 0.18428 0.87245 0.6494 0.0
C777 C 0.15265 0.90277 0.56109 0.0
C778 C 0.26544 0.84796 0.72558 0.0
C779 C 0.25121 0.86001 0.70672 0.0
C780 C 0.23599 0.87437 0.63408 0.0
C781 C 0.17498 0.89599 0.60635 0.0
C782 C 0.19292 0.8842 0.62423 0.0
C783 C 0.24581 0.85293 0.67871 0.0
C784 C 0.2276 0.86333 0.65952 0.0
H785 H 0.13408 0.93199 0.61133 0.0
H786 H 0.16551 0.91446 0.64004 0.0
H787 H 0.22618 0.89394 0.59741 0.0
H788 H 0.27736 0.8076 0.68122 0.0
H789 H 0.25236 0.82889 0.64811 0.0
C790 C 0.38028 0.87192 0.793 0.0
C791 C 0.36415 0.84641 0.80409 0.0
C792 C 0.39374 0.89536 0.80996 0.0
C793 C 0.42309 0.91597 0.88149 0.0
H794 H 0.40912 0.98153 0.86561 0.0
C795 C 0.44722 0.99521 0.96561 0.0
C796 C 0.45941 0.02315 0.9593 0.0
C797 C 0.43711 0.97536 0.94481 0.0
C798 C 0.41365 0.96356 0.87011 0.0
H799 H 0.34943 0.82524 0.84139 0.0
H800 H 0.3732 0.86587 0.87091 0.0
H801 H 0.38936 0.94364 0.83199 0.0
H802 H 0.47014 0.05244 0.92635 0.0
H803 H 0.4527 0.01751 0.88964 0.0
H804 H 0.44733 0.93551 0.91942 0.0
C805 C 0.37544 0.86786 0.84921 0.0
C806 C 0.40231 0.94191 0.8509 0.0
C807 C 0.36173 0.84465 0.83229 0.0
C808 C 0.46073 0.03097 0.93168 0.0
C809 C 0.45072 0.011 0.91074 0.0
C810 C 0.43462 0.9376 0.9005 0.0
C811 C 0.39165 0.89341 0.83827 0.0
C812 C 0.40634 0.91768 0.85678 0.0
C813 C 0.43917 0.98294 0.91715 0.0
C814 C 0.42937 0.96136 0.89542 0.0
H815 H 0.38234 0.87375 0.77127 0.0
H816 H 0.40618 0.91486 0.8011 0.0
H817 H 0.42692 0.89766 0.8863 0.0
H818 H 0.44568 0.98862 0.98674 0.0
H819 H 0.42765 0.954 0.95048 0.0
C820 C 0.38637 0.11775 0.1087 0.0
C821 C 0.3994 0.13462 0.08732 0.0
C822 C 0.36704 0.12338 0.12235 0.0
C823 C 0.32259 0.16442 0.1191 0.0
H824 H 0.33805 0.16292 0.19857 0.0
C825 C 0.2926 0.22693 0.19296 0.0
C826 C 0.28688 0.21648 0.21927 0.0
C827 C 0.29957 0.21237 0.17425 0.0
C828 C 0.3329 0.16293 0.17641 0.0
H829 H 0.40095 0.16966 0.06246 0.0
H830 H 0.36788 0.1799 0.08672 0.0
H831 H 0.36296 0.14573 0.17078 0.0
H832 H 0.28112 0.1815 0.24563 0.0
H833 H 0.2924 0.15582 0.21279 0.0
H834 H 0.29308 0.18246 0.12494 0.0
C835 C 0.3724 0.16219 0.09283 0.0
C836 C 0.34726 0.15306 0.16043 0.0
C837 C 0.3917 0.15654 0.07917 0.0
C838 C 0.28583 0.19024 0.22563 0.0
C839 C 0.29248 0.17561 0.20687 0.0
C840 C 0.30815 0.17432 0.13514 0.0
C841 C 0.3603 0.14601 0.11496 0.0
C842 C 0.34265 0.15404 0.13159 0.0
C843 C 0.3007 0.18701 0.18144 0.0
C844 C 0.31345 0.17403 0.16402 0.0
H845 H 0.39189 0.10076 0.11559 0.0
H846 H 0.35779 0.11029 0.13907 0.0
H847 H 0.31828 0.16516 0.09691 0.0
H848 H 0.29373 0.24717 0.18752 0.0
H849 H 0.3059 0.22185 0.1549 0.0
C850 C 0.11268 0.06937 0.46055 0.0
C851 C 0.09206 0.07535 0.47207 0.0
C852 C 0.12965 0.08722 0.44195 0.0
C853 C 0.15888 0.15888 0.4192 0.0
H854 H 0.16763 0.12811 0.35278 0.0
C855 C 0.24234 0.22225 0.34587 0.0
C856 C 0.23179 0.21972 0.31762 0.0
C857 C 0.22555 0.20467 0.36485 0.0
C858 C 0.16537 0.13705 0.37119 0.0
H859 H 0.07355 0.10522 0.47324 0.0
H860 H 0.10366 0.13673 0.44098 0.0
H861 H 0.13748 0.09796 0.38554 0.0
H862 H 0.19572 0.19635 0.2871 0.0
H863 H 0.1667 0.1653 0.32011 0.0
H864 H 0.18696 0.19799 0.40485 0.0
C865 C 0.10653 0.11806 0.44637 0.0
C866 C 0.14824 0.11975 0.39006 0.0
C867 C 0.08919 0.09995 0.46477 0.0
C868 C 0.20446 0.19878 0.30872 0.0
C869 C 0.18786 0.18096 0.32764 0.0
C870 C 0.17638 0.17617 0.40048 0.0
C871 C 0.12678 0.11176 0.43453 0.0
C872 C 0.14473 0.13042 0.41431 0.0
C873 C 0.19802 0.18388 0.35599 0.0
C874 C 0.17979 0.16547 0.37619 0.0
H875 H 0.11553 0.05064 0.46561 0.0
H876 H 0.14524 0.08187 0.43349 0.0
H877 H 0.1568 0.16775 0.43773 0.0
H878 H 0.2633 0.23822 0.3534 0.0
H879 H 0.23417 0.2073 0.38649 0.0
C880 C 0.9179 0.19271 0.17457 0.0
C881 C 0.89042 0.17756 0.18326 0.0
C882 C 0.93222 0.17993 0.16132 0.0
C883 C 0.91962 0.11406 0.12459 0.0
H884 H 1.00379 0.14378 0.13439 0.0
C885 C 0.98261 0.0709 0.06146 0.0
C886 C 1.00957 0.07104 0.07352 0.0
C887 C 0.96824 0.08382 0.07447 0.0
C888 C 0.98025 0.13485 0.13144 0.0
H889 H 0.85688 0.13627 0.18388 0.0
H890 H 0.88183 0.1142 0.1617 0.0
H891 H 0.97918 0.16532 0.15775 0.0
H892 H 0.042 0.0852 0.10955 0.0
H893 H 1.01715 0.10713 0.13216 0.0
H894 H 0.92069 0.08318 0.09881 0.0
C895 C 0.89235 0.1362 0.1648 0.0
C896 C 0.96594 0.14762 0.14471 0.0
C897 C 0.87803 0.14897 0.17807 0.0
C898 C 1.02147 0.08459 0.09924 0.0
C899 C 1.00713 0.09749 0.11226 0.0
C900 C 0.93393 0.10129 0.1113 0.0
C901 C 0.9198 0.15135 0.15606 0.0
C902 C 0.93526 0.13754 0.14165 0.0
C903 C 0.98014 0.09744 0.10022 0.0
C904 C 0.96462 0.11134 0.11442 0.0
H905 H 0.92871 0.21462 0.17821 0.0
H906 H 0.95303 0.19275 0.15485 0.0
H907 H 0.89609 0.10554 0.12111 0.0
H908 H 0.97232 0.06062 0.04195 0.0
H909 H 0.94781 0.08331 0.06401 0.0
C910 C 0.18413 0.5761 0.49513 0.0
C911 C 0.16175 0.55089 0.48618 0.0
C912 C 0.20179 0.59317 0.47672 0.0
C913 C 0.21863 0.59845 0.40427 0.0
H914 H 0.23342 0.67462 0.41573 0.0
C915 C 0.24197 0.68341 0.32104 0.0
C916 C 0.26705 0.70739 0.32821 0.0
C917 C 0.23247 0.6626 0.34027 0.0
C918 C 0.22967 0.65346 0.41243 0.0
H919 H 0.14095 0.52284 0.45159 0.0
H920 H 0.17076 0.55331 0.4188 0.0
H921 H 0.21167 0.64102 0.44983 0.0
H922 H 0.30176 0.72884 0.36074 0.0
H923 H 0.28384 0.6933 0.39496 0.0
H924 H 0.2354 0.61131 0.36583 0.0
C925 C 0.17542 0.55969 0.44018 0.0
C926 C 0.21744 0.63415 0.43208 0.0
C927 C 0.15823 0.54224 0.45888 0.0
C928 C 0.28243 0.7104 0.35478 0.0
C929 C 0.27228 0.69014 0.37425 0.0
C930 C 0.23045 0.61782 0.3843 0.0
C931 C 0.19677 0.5858 0.44871 0.0
C932 C 0.21165 0.60634 0.4283 0.0
C933 C 0.24739 0.66601 0.36711 0.0
C934 C 0.23591 0.64543 0.38826 0.0
H935 H 0.18746 0.58295 0.51626 0.0
H936 H 0.21868 0.61264 0.4843 0.0
H937 H 0.21486 0.57734 0.4008 0.0
H938 H 0.22988 0.68075 0.30059 0.0
H939 H 0.21297 0.64428 0.3345 0.0
C940 C 0.60392 0.92086 0.63694 0.0
C941 C 0.60461 0.92595 0.60844 0.0
C942 C 0.61973 0.90681 0.65209 0.0
C943 C 0.66673 0.86601 0.64392 0.0
H944 H 0.67981 0.87101 0.72331 0.0
C945 C 0.7271 0.80304 0.70929 0.0
C946 C 0.73937 0.80983 0.73711 0.0
C947 C 0.71089 0.81666 0.69396 0.0
C948 C 0.67697 0.86926 0.70116 0.0
H949 H 0.62382 0.91948 0.57429 0.0
H950 H 0.65155 0.89617 0.60013 0.0
H951 H 0.65362 0.89511 0.69737 0.0
H952 H 0.74357 0.83757 0.76977 0.0
H953 H 0.71666 0.86141 0.74358 0.0
H954 H 0.69109 0.84102 0.6477 0.0
C955 C 0.63825 0.90237 0.61119 0.0
C956 C 0.66108 0.88315 0.68583 0.0
C957 C 0.62217 0.91619 0.596 0.0
C958 C 0.7346 0.83116 0.74865 0.0
C959 C 0.71865 0.84498 0.73327 0.0
C960 C 0.68286 0.85231 0.65925 0.0
C961 C 0.63763 0.89714 0.63985 0.0
C962 C 0.65525 0.882 0.65662 0.0
C963 C 0.70613 0.83823 0.70533 0.0
C964 C 0.68854 0.85335 0.68847 0.0
H965 H 0.59086 0.92766 0.64777 0.0
H966 H 0.61742 0.90338 0.67363 0.0
H967 H 0.66316 0.86362 0.6218 0.0
H968 H 0.72985 0.78689 0.69916 0.0
H969 H 0.70184 0.80976 0.67302 0.0
C970 C 0.51884 0.45573 0.96105 0.0
C971 C 0.51143 0.46588 0.98324 0.0
C972 C 0.49711 0.43884 0.94121 0.0
C973 C 0.42087 0.39066 0.93292 0.0
H974 H 0.42965 0.39546 0.85546 0.0
C975 C 0.3595 0.30085 0.85644 0.0
C976 C 0.34961 0.30672 0.82984 0.0
C977 C 0.37632 0.32209 0.87515 0.0
C978 C 0.42669 0.39408 0.87697 0.0
H979 H 0.47586 0.46731 1.00188 0.0
H980 H 0.43782 0.4378 0.96711 0.0
H981 H 0.46511 0.4306 0.8875 0.0
H982 H 0.3487 0.33908 0.80196 0.0
H983 H 0.378 0.37626 0.83478 0.0
H984 H 0.38262 0.35399 0.92243 0.0
C985 C 0.46034 0.44262 0.9652 0.0
C986 C 0.44712 0.41402 0.89531 0.0
C987 C 0.48207 0.45953 0.985 0.0
C988 C 0.35611 0.33406 0.8224 0.0
C989 C 0.37297 0.3553 0.84108 0.0
C990 C 0.40048 0.37069 0.91459 0.0
C991 C 0.46765 0.43186 0.94331 0.0
C992 C 0.44465 0.41224 0.92351 0.0
C993 C 0.38355 0.34952 0.8675 0.0
C994 C 0.40347 0.37198 0.88653 0.0
H995 H 0.54137 0.46043 0.95927 0.0
H996 H 0.50333 0.43056 0.92471 0.0
H997 H 0.41857 0.38867 0.9546 0.0
H998 H 0.3547 0.27989 0.86261 0.0
H999 H 0.38448 0.31707 0.89529 0.0
C1000 C 0.82963 0.84767 0.34232 0.0
C1001 C 0.85002 0.84508 0.32741 0.0
C1002 C 0.83462 0.87295 0.35354 0.0
C1003 C 0.88356 0.94724 0.35565 0.0
H1004 H 0.88396 0.93811 0.43436 0.0
C1005 C 0.98015 0.00268 0.43022 0.0
C1006 C 0.97831 0.00216 0.45843 0.0
C1007 C 0.95502 0.99429 0.41124 0.0
C1008 C 0.88321 0.94155 0.41242 0.0
H1009 H 0.89083 0.86681 0.31134 0.0
H1010 H 0.90011 0.91097 0.33161 0.0
H1011 H 0.8555 0.89948 0.40405 0.0
H1012 H 0.94965 0.99679 0.48897 0.0
H1013 H 0.90537 0.9821 0.45566 0.0
H1014 H 0.91293 0.98901 0.36432 0.0
C1015 C 0.87995 0.89364 0.33418 0.0
C1016 C 0.86686 0.91916 0.39494 0.0
C1017 C 0.87494 0.86831 0.32296 0.0
C1018 C 0.95144 0.99668 0.46726 0.0
C1019 C 0.92616 0.98831 0.44819 0.0
C1020 C 0.8997 0.96978 0.37316 0.0
C1021 C 0.86015 0.89607 0.35011 0.0
C1022 C 0.86869 0.92132 0.36662 0.0
C1023 C 0.92752 0.98518 0.42017 0.0
C1024 C 0.90165 0.96652 0.40187 0.0
H1025 H 0.8101 0.83002 0.34589 0.0
H1026 H 0.81899 0.87423 0.36567 0.0
H1027 H 0.88465 0.94958 0.33376 0.0
H1028 H 1.00079 0.0075 0.42289 0.0
H1029 H 0.95718 0.99225 0.38994 0.0
C1030 C 0.52103 0.58131 0.60369 0.0
C1031 C 0.51362 0.57331 0.57567 0.0
C1032 C 0.50702 0.59507 0.61597 0.0
C1033 C 0.44093 0.6131 0.60501 0.0
H1034 H 0.48307 0.66269 0.66649 0.0
C1035 C 0.38285 0.66339 0.66662 0.0
C1036 C 0.39888 0.68953 0.67921 0.0
C1037 C 0.39648 0.64933 0.65415 0.0
C1038 C 0.47077 0.64919 0.64919 0.0
H1039 H 0.48487 0.57397 0.5389 0.0
H1040 H 0.46099 0.59818 0.55987 0.0
H1041 H 0.50688 0.63946 0.64454 0.0
H1042 H 0.44296 0.72055 0.68827 0.0
H1043 H 0.46623 0.6968 0.66623 0.0
H1044 H 0.40508 0.6235 0.60917 0.0
C1045 C 0.47744 0.5935 0.57275 0.0
C1046 C 0.48451 0.6353 0.63666 0.0
C1047 C 0.49143 0.57963 0.56047 0.0
C1048 C 0.42931 0.70079 0.67872 0.0
C1049 C 0.44293 0.68676 0.66622 0.0
C1050 C 0.42719 0.62705 0.61752 0.0
C1051 C 0.48491 0.60165 0.60084 0.0
C1052 C 0.46997 0.61683 0.61425 0.0
C1053 C 0.42691 0.66065 0.65356 0.0
C1054 C 0.44173 0.64547 0.63997 0.0
H1055 H 0.53776 0.57683 0.61638 0.0
H1056 H 0.51343 0.60017 0.63765 0.0
H1057 H 0.4284 0.59903 0.58818 0.0
H1058 H 0.35944 0.65372 0.66592 0.0
H1059 H 0.38294 0.62928 0.64519 0.0
C1060 C 0.59238 0.09361 0.9641 0.0
C1061 C 0.57182 0.10282 0.97063 0.0
C1062 C 0.6131 0.10918 0.94723 0.0
C1063 C 0.64592 0.17947 0.91839 0.0
H1064 H 0.67244 0.14346 0.86847 0.0
C1065 C 0.70772 0.23231 0.82711 0.0
C1066 C 0.7347 0.23079 0.82766 0.0
C1067 C 0.68847 0.2167 0.84519 0.0
C1068 C 0.66524 0.15369 0.88244 0.0
H1069 H 0.55612 0.13494 0.96407 0.0
H1070 H 0.5911 0.16134 0.93366 0.0
H1071 H 0.6371 0.11586 0.8985 0.0
H1072 H 0.76254 0.21147 0.84706 0.0
H1073 H 0.7284 0.18355 0.87809 0.0
H1074 H 0.67325 0.21723 0.90122 0.0
C1075 C 0.59225 0.14279 0.94236 0.0
C1076 C 0.64517 0.13796 0.89979 0.0
C1077 C 0.57199 0.12755 0.95965 0.0
C1078 C 0.74195 0.21315 0.84632 0.0
C1079 C 0.72244 0.1971 0.86394 0.0
C1080 C 0.66547 0.1951 0.90062 0.0
C1081 C 0.61329 0.13399 0.9361 0.0
C1082 C 0.63517 0.15065 0.91798 0.0
C1083 C 0.69565 0.1989 0.8636 0.0
C1084 C 0.67523 0.18232 0.88253 0.0
H1085 H 0.59283 0.07467 0.97245 0.0
H1086 H 0.6292 0.1019 0.9433 0.0
H1087 H 0.6394 0.19009 0.93254 0.0
H1088 H 0.70166 0.24581 0.813 0.0
H1089 H 0.66783 0.21827 0.84459 0.0
C1090 C 0.07398 0.5104 0.08253 0.0
C1091 C 0.07156 0.51328 0.05357 0.0
C1092 C 0.08829 0.49458 0.09674 0.0
C1093 C 0.13894 0.45845 0.08803 0.0
H1094 H 0.11816 0.42754 0.15865 0.0
C1095 C 0.20504 0.40136 0.15493 0.0
C1096 C 0.19173 0.38086 0.17405 0.0
C1097 C 0.19076 0.41712 0.14044 0.0
C1098 C 0.12443 0.43563 0.13887 0.0
H1099 H 0.0832 0.50059 0.01748 0.0
H1100 H 0.10745 0.47321 0.0417 0.0
H1101 H 0.09326 0.45377 0.13389 0.0
H1102 H 0.15159 0.36236 0.19214 0.0
H1103 H 0.1271 0.38879 0.1671 0.0
H1104 H 0.16974 0.43983 0.0928 0.0
C1105 C 0.09864 0.48352 0.05386 0.0
C1106 C 0.11009 0.45136 0.1245 0.0
C1107 C 0.08429 0.49934 0.03965 0.0
C1108 C 0.16319 0.3773 0.1777 0.0
C1109 C 0.14896 0.39309 0.16328 0.0
C1110 C 0.15335 0.44277 0.10244 0.0
C1111 C 0.10114 0.48059 0.08293 0.0
C1112 C 0.11683 0.46333 0.09857 0.0
C1113 C 0.16222 0.41355 0.14413 0.0
C1114 C 0.14658 0.43078 0.12836 0.0
H1115 H 0.06488 0.5206 0.0945 0.0
H1116 H 0.08959 0.4938 0.11891 0.0
H1117 H 0.14565 0.46707 0.06853 0.0
H1118 H 0.22666 0.40522 0.1507 0.0
H1119 H 0.20258 0.43249 0.12646 0.0
C1120 C 0.58239 0.58476 0.95563 0.0
C1121 C 0.59619 0.57858 0.98028 0.0
C1122 C 0.59886 0.60243 0.93639 0.0
C1123 C 0.6737 0.63016 0.91669 0.0
H1124 H 0.64865 0.67983 0.87159 0.0
C1125 C 0.73145 0.68317 0.82442 0.0
C1126 C 0.73613 0.71058 0.81896 0.0
C1127 C 0.7137 0.6683 0.84392 0.0
C1128 C 0.65611 0.66626 0.88419 0.0
H1129 H 0.63821 0.58722 1.00442 0.0
H1130 H 0.66656 0.61815 0.97157 0.0
H1131 H 0.61914 0.65231 0.90623 0.0
H1132 H 0.72536 0.74379 0.82951 0.0
H1133 H 0.69455 0.71788 0.86423 0.0
H1134 H 0.71085 0.64433 0.89533 0.0
C1135 C 0.64311 0.60885 0.96652 0.0
C1136 C 0.63898 0.6502 0.90386 0.0
C1137 C 0.62675 0.59114 0.98554 0.0
C1138 C 0.72228 0.72274 0.83335 0.0
C1139 C 0.70446 0.70779 0.85309 0.0
C1140 C 0.69076 0.64618 0.8972 0.0
C1141 C 0.62953 0.61443 0.94142 0.0
C1142 C 0.64753 0.63186 0.9204 0.0
C1143 C 0.70016 0.68039 0.85883 0.0
C1144 C 0.68217 0.66432 0.88045 0.0
H1145 H 0.55891 0.57547 0.95088 0.0
H1146 H 0.58756 0.60602 0.91726 0.0
H1147 H 0.68093 0.61608 0.92863 0.0
H1148 H 0.7416 0.67306 0.8136 0.0
H1149 H 0.71048 0.64713 0.84718 0.0
C1150 C 0.77684 0.33541 0.21378 0.0
C1151 C 0.76948 0.30725 0.21673 0.0
C1152 C 0.76454 0.34502 0.19078 0.0
C1153 C 0.69902 0.32895 0.1469 0.0
H1154 H 0.74442 0.38755 0.10139 0.0
C1155 C 0.64715 0.394 0.08462 0.0
C1156 C 0.66401 0.42228 0.08837 0.0
C1157 C 0.65974 0.37531 0.0914 0.0
C1158 C 0.7314 0.37116 0.11387 0.0
H1159 H 0.74355 0.26692 0.1984 0.0
H1160 H 0.72102 0.28386 0.15858 0.0
H1161 H 0.76823 0.36342 0.13189 0.0
H1162 H 0.70763 0.45326 0.09991 0.0
H1163 H 0.72916 0.42098 0.11301 0.0
H1164 H 0.66278 0.33818 0.13118 0.0
C1165 C 0.73687 0.29838 0.17369 0.0
C1166 C 0.74501 0.3573 0.13111 0.0
C1167 C 0.74972 0.2888 0.19637 0.0
C1168 C 0.69392 0.43155 0.09746 0.0
C1169 C 0.7064 0.41297 0.10445 0.0
C1170 C 0.68549 0.34318 0.13009 0.0
C1171 C 0.74424 0.32655 0.17079 0.0
C1172 C 0.72908 0.33684 0.14844 0.0
C1173 C 0.68935 0.38459 0.10218 0.0
C1174 C 0.70183 0.36528 0.11432 0.0
H1175 H 0.79208 0.34995 0.22921 0.0
H1176 H 0.77013 0.36683 0.18903 0.0
H1177 H 0.68644 0.31325 0.16027 0.0
H1178 H 0.62403 0.38626 0.07755 0.0
H1179 H 0.64608 0.3536 0.08905 0.0
C1180 C 0.03966 0.48475 0.44626 0.0
C1181 C 0.04198 0.47572 0.47342 0.0
C1182 C 1.01932 0.46726 0.42581 0.0
C1183 C 0.94947 0.40832 0.41543 0.0
H1184 H 0.97276 0.39765 0.34653 0.0
C1185 C 0.9026 0.32529 0.32194 0.0
C1186 C 0.87521 0.32538 0.31268 0.0
C1187 C 0.9227 0.34539 0.34031 0.0
C1188 C 0.96597 0.40059 0.36563 0.0
H1189 H 1.02524 0.44136 0.50059 0.0
H1190 H 0.98926 0.41085 0.46484 0.0
H1191 H 1.00887 0.42909 0.38152 0.0
H1192 H 0.84774 0.34701 0.31462 0.0
H1193 H 0.88265 0.38183 0.34789 0.0
H1194 H 0.90654 0.37975 0.39948 0.0
C1195 C 1.0032 0.43145 0.45942 0.0
C1196 C 0.98656 0.41858 0.38556 0.0
C1197 C 1.02388 0.4488 0.47978 0.0
C1198 C 0.8684 0.34616 0.32192 0.0
C1199 C 0.88839 0.36609 0.34078 0.0
C1200 C 0.92876 0.39066 0.39529 0.0
C1201 C 1.00066 0.44058 0.43229 0.0
C1202 C 0.97858 0.42231 0.41078 0.0
C1203 C 0.91573 0.36583 0.35009 0.0
C1204 C 0.93694 0.38636 0.37038 0.0
H1205 H 0.05342 0.50543 0.44086 0.0
H1206 H 1.01774 0.47479 0.40506 0.0
H1207 H 0.94275 0.41106 0.43464 0.0
H1208 H 0.90849 0.30952 0.31515 0.0
H1209 H 0.94353 0.34461 0.34735 0.0
C1210 C 0.61522 0.62167 0.49748 0.0
C1211 C 0.60424 0.59312 0.49405 0.0
C1212 C 0.63318 0.63917 0.47931 0.0
C1213 C 0.65951 0.64037 0.41152 0.0
H1214 H 0.72325 0.70666 0.4423 0.0
C1215 C 0.7562 0.70512 0.35314 0.0
C1216 C 0.76267 0.7333 0.35195 0.0
C1217 C 0.73707 0.68825 0.3708 0.0
C1218 C 0.70547 0.68826 0.43342 0.0
H1219 H 0.6029 0.56045 0.46862 0.0
H1220 H 0.63488 0.59072 0.43759 0.0
H1221 H 0.68847 0.6769 0.47163 0.0
H1222 H 0.755 0.76604 0.36897 0.0
H1223 H 0.72212 0.73668 0.40015 0.0
H1224 H 0.6773 0.65152 0.3735 0.0
C1225 C 0.62917 0.59985 0.45377 0.0
C1226 C 0.68534 0.67126 0.45015 0.0
C1227 C 0.61087 0.5824 0.47167 0.0
C1228 C 0.75042 0.7444 0.36942 0.0
C1229 C 0.73166 0.72763 0.38734 0.0
C1230 C 0.67993 0.65717 0.39493 0.0
C1231 C 0.64096 0.62851 0.45754 0.0
C1232 C 0.66202 0.64704 0.43946 0.0
C1233 C 0.72442 0.6993 0.38789 0.0
C1234 C 0.7031 0.68128 0.4057 0.0
H1235 H 0.61033 0.63047 0.5145 0.0
H1236 H 0.64117 0.66108 0.48256 0.0
H1237 H 0.64162 0.62227 0.4023 0.0
H1238 H 0.76512 0.69595 0.33978 0.0
H1239 H 0.73202 0.66651 0.37099 0.0
C1240 C 0.80479 0.34658 0.83927 0.0
C1241 C 0.81855 0.33645 0.8226 0.0
C1242 C 0.82097 0.36394 0.86159 0.0
C1243 C 0.86534 0.41563 0.89214 0.0
H1244 H 0.92637 0.40326 0.93996 0.0
C1245 C 0.95994 0.50224 0.95382 0.0
C1246 C 0.96703 0.49744 0.98164 0.0
C1247 C 0.9404 0.4808 0.93656 0.0
C1248 C 0.90921 0.40681 0.92694 0.0
H1249 H 0.85972 0.33613 0.8161 0.0
H1250 H 0.8879 0.36632 0.85503 0.0
H1251 H 0.8935 0.36782 0.90655 0.0
H1252 H 0.96012 0.46659 0.01321 0.0
H1253 H 0.92593 0.42877 0.98272 0.0
H1254 H 0.88138 0.45481 0.91209 0.0
C1255 C 0.86465 0.36068 0.85113 0.0
C1256 C 0.89057 0.38667 0.90775 0.0
C1257 C 0.84856 0.34356 0.82876 0.0
C1258 C 0.95485 0.47074 0.99181 0.0
C1259 C 0.93543 0.44918 0.97442 0.0
C1260 C 0.8841 0.43582 0.91114 0.0
C1261 C 0.85108 0.37123 0.86761 0.0
C1262 C 0.86878 0.39111 0.8899 0.0
C1263 C 0.92775 0.45415 0.94675 0.0
C1264 C 0.9065 0.43178 0.92835 0.0
H1265 H 0.78164 0.34127 0.83495 0.0
H1266 H 0.81 0.37173 0.87408 0.0
H1267 H 0.84887 0.41967 0.87849 0.0
H1268 H 0.96906 0.52266 0.94548 0.0
H1269 H 0.93517 0.48506 0.91518 0.0
C1270 C 0.86276 0.81707 0.20302 0.0
C1271 C 0.85239 0.82875 0.22171 0.0
C1272 C 0.88089 0.83345 0.18444 0.0
C1273 C 0.90856 0.90381 0.15474 0.0
H1274 H 0.96861 0.88324 0.13582 0.0
C1275 C 1.00198 0.97611 0.09714 0.0
C1276 C 1.00508 0.96489 0.0731 0.0
C1277 C 0.98459 0.95926 0.11599 0.0
C1278 C 0.95188 0.88915 0.14087 0.0
H1279 H 0.85279 0.86673 0.23564 0.0
H1280 H 0.88532 0.89558 0.20402 0.0
H1281 H 0.9352 0.85468 0.16692 0.0
H1282 H 0.99377 0.92716 0.05064 0.0
H1283 H 0.96395 0.89752 0.08413 0.0
H1284 H 0.92607 0.93879 0.12926 0.0
C1285 C 0.8788 0.87364 0.20297 0.0
C1286 C 0.93252 0.8727 0.15855 0.0
C1287 C 0.86015 0.85713 0.22119 0.0
C1288 C 0.99173 0.93633 0.069 0.0
C1289 C 0.97471 0.9194 0.08814 0.0
C1290 C 0.92824 0.92048 0.13747 0.0
C1291 C 0.88968 0.86207 0.18447 0.0
C1292 C 0.91045 0.87971 0.16566 0.0
C1293 C 0.97039 0.9308 0.11145 0.0
C1294 C 0.95003 0.91328 0.13029 0.0
H1295 H 0.85692 0.79519 0.20286 0.0
H1296 H 0.88803 0.8236 0.17007 0.0
H1297 H 0.89162 0.90971 0.15917 0.0
H1298 H 1.01202 0.99806 0.10086 0.0
H1299 H 0.98188 0.96853 0.13396 0.0
C1300 C 0.79302 0.15834 0.91236 0.0
C1301 C 0.82156 0.17875 0.91363 0.0
C1302 C 0.78743 0.13399 0.92692 0.0
C1303 C 0.79247 0.07927 0.93538 0.0
H1304 H 0.8426 0.07582 1.00122 0.0
C1305 C 0.86232 0.0212 0.93971 0.0
C1306 C 0.87606 0.01653 0.96501 0.0
C1307 C 0.84044 0.0307 0.93895 0.0
C1308 C 0.82761 0.07579 0.98322 0.0
H1309 H 0.86611 0.19041 0.93291 0.0
H1310 H 0.85645 0.14848 0.95827 0.0
H1311 H 0.83274 0.11626 0.99278 0.0
H1312 H 0.87497 0.014 0.00899 0.0
H1313 H 0.83616 0.02992 1.00769 0.0
H1314 H 0.78838 0.03924 0.92521 0.0
C1315 C 0.83823 0.15116 0.94626 0.0
C1316 C 0.82225 0.09927 0.97826 0.0
C1317 C 0.84384 0.17532 0.93161 0.0
C1318 C 0.86504 0.01805 0.98925 0.0
C1319 C 0.84288 0.02722 0.98848 0.0
C1320 C 0.79757 0.05561 0.94048 0.0
C1321 C 0.81023 0.12976 0.94323 0.0
C1322 C 0.80655 0.10208 0.95328 0.0
C1323 C 0.83179 0.03551 0.96352 0.0
C1324 C 0.8171 0.05454 0.96337 0.0
H1325 H 0.77521 0.16065 0.89919 0.0
H1326 H 0.76558 0.11801 0.92444 0.0
H1327 H 0.77997 0.08063 0.91603 0.0
H1328 H 0.8704 0.02016 0.92072 0.0
H1329 H 0.8326 0.03689 0.91928 0.0
C1330 C 0.7865 0.20095 0.71628 0.0
C1331 C 0.77415 0.21458 0.73058 0.0
C1332 C 0.76877 0.17955 0.69792 0.0
C1333 C 0.69246 0.12953 0.68251 0.0
H1334 H 0.71562 0.11994 0.61319 0.0
C1335 C 0.65465 0.04196 0.59281 0.0
C1336 C 0.62481 0.03591 0.58764 0.0
C1337 C 0.67337 0.0643 0.60957 0.0
C1338 C 0.70902 0.1223 0.6326 0.0
H1339 H 0.73387 0.21699 0.73681 0.0
H1340 H 0.70315 0.18044 0.70425 0.0
H1341 H 0.74778 0.15843 0.64358 0.0
H1342 H 0.591 0.04839 0.59545 0.0
H1343 H 0.62369 0.08733 0.62501 0.0
H1344 H 0.65358 0.09361 0.67139 0.0
C1345 C 0.72634 0.18574 0.70751 0.0
C1346 C 0.72742 0.14426 0.65 0.0
C1347 C 0.74398 0.20689 0.72593 0.0
C1348 C 0.61393 0.05256 0.59931 0.0
C1349 C 0.63259 0.07476 0.61624 0.0
C1350 C 0.67402 0.10774 0.66506 0.0
C1351 C 0.73845 0.17156 0.69357 0.0
C1352 C 0.71927 0.14814 0.67511 0.0
C1353 C 0.66246 0.08078 0.62156 0.0
C1354 C 0.6821 0.10395 0.63994 0.0
H1355 H 0.80974 0.20651 0.71961 0.0
H1356 H 0.77871 0.16885 0.68766 0.0
H1357 H 0.68581 0.13161 0.70198 0.0
H1358 H 0.66352 0.02938 0.58401 0.0
H1359 H 0.69627 0.06838 0.61357 0.0
C1360 C 0.65105 0.88244 0.51996 0.0
C1361 C 0.65396 0.90057 0.49781 0.0
C1362 C 0.66491 0.8645 0.52183 0.0
C1363 C 0.7219 0.8513 0.49487 0.0
H1364 H 0.66318 0.77825 0.47613 0.0
C1365 C 0.68858 0.78943 0.39637 0.0
C1366 C 0.71658 0.79704 0.38947 0.0
C1367 C 0.68452 0.78908 0.42389 0.0
C1368 C 0.68012 0.79828 0.48196 0.0
H1369 H 0.67447 0.9155 0.46122 0.0
H1370 H 0.69915 0.8846 0.46461 0.0
H1371 H 0.65132 0.80988 0.50092 0.0
H1372 H 0.7614 0.80557 0.40533 0.0
H1373 H 0.75428 0.80438 0.45359 0.0
H1374 H 0.74957 0.84144 0.47303 0.0
C1375 C 0.68624 0.88415 0.48054 0.0
C1376 C 0.67338 0.81632 0.49638 0.0
C1377 C 0.67191 0.90156 0.47834 0.0
C1378 C 0.73973 0.80048 0.41035 0.0
C1379 C 0.7356 0.79964 0.43791 0.0
C1380 C 0.7286 0.8334 0.48038 0.0
C1381 C 0.68244 0.86512 0.50198 0.0
C1382 C 0.6934 0.84371 0.50045 0.0
C1383 C 0.70846 0.79622 0.4449 0.0
C1384 C 0.70671 0.80776 0.47121 0.0
H1385 H 0.63719 0.88148 0.53519 0.0
H1386 H 0.66141 0.84975 0.53828 0.0
H1387 H 0.73784 0.87224 0.49836 0.0
H1388 H 0.67037 0.78633 0.38052 0.0
H1389 H 0.66322 0.78628 0.42825 0.0
C1390 C 0.84091 0.251 0.38188 0.0
C1391 C 0.83817 0.24196 0.35475 0.0
C1392 C 0.85882 0.24478 0.40293 0.0
C1393 C 0.92392 0.23271 0.41472 0.0
H1394 H 0.89229 0.18245 0.47285 0.0
C1395 C 0.97815 0.16471 0.46536 0.0
C1396 C 0.97479 0.15623 0.4926 0.0
C1397 C 0.96475 0.18117 0.45281 0.0
C1398 C 0.90174 0.19709 0.45725 0.0
H1399 H 0.85188 0.21916 0.32852 0.0
H1400 H 0.8833 0.20889 0.36509 0.0
H1401 H 0.86128 0.20019 0.44314 0.0
H1402 H 0.95572 0.15942 0.52844 0.0
H1403 H 0.93315 0.18894 0.50678 0.0
H1404 H 0.96419 0.22945 0.42824 0.0
C1405 C 0.87149 0.22059 0.37002 0.0
C1406 C 0.88391 0.20713 0.44025 0.0
C1407 C 0.85328 0.22629 0.34919 0.0
C1408 C 0.95893 0.16574 0.50746 0.0
C1409 C 0.94568 0.1824 0.49496 0.0
C1410 C 0.94186 0.22303 0.43192 0.0
C1411 C 0.87465 0.23003 0.39692 0.0
C1412 C 0.89464 0.22415 0.41827 0.0
C1413 C 0.94786 0.18977 0.46728 0.0
C1414 C 0.93066 0.20421 0.45266 0.0
H1415 H 0.82955 0.26314 0.38674 0.0
H1416 H 0.86094 0.25207 0.42369 0.0
H1417 H 0.93259 0.24603 0.39792 0.0
H1418 H 0.9906 0.1581 0.45349 0.0
H1419 H 0.96663 0.18613 0.43136 0.0
C1420 C 0.73577 0.20534 0.24646 0.0
C1421 C 0.72862 0.22499 0.25772 0.0
C1422 C 0.71696 0.18798 0.22499 0.0
C1423 C 0.65466 0.18211 0.1717 0.0
H1424 H 0.64343 0.10617 0.16755 0.0
C1425 C 0.57012 0.07401 0.11275 0.0
C1426 C 0.56582 0.08384 0.08626 0.0
C1427 C 0.5906 0.09139 0.13317 0.0
C1428 C 0.64606 0.12726 0.16854 0.0
H1429 H 0.69574 0.24122 0.25621 0.0
H1430 H 0.66268 0.21055 0.21983 0.0
H1431 H 0.67767 0.13563 0.20449 0.0
H1432 H 0.57931 0.11948 0.06024 0.0
H1433 H 0.6157 0.14973 0.09559 0.0
H1434 H 0.62213 0.17353 0.13662 0.0
C1435 C 0.68315 0.20899 0.22665 0.0
C1436 C 0.66608 0.14429 0.18952 0.0
C1437 C 0.70201 0.22642 0.24778 0.0
C1438 C 0.5821 0.11144 0.08058 0.0
C1439 C 0.60288 0.12877 0.10091 0.0
C1440 C 0.63444 0.16504 0.15094 0.0
C1441 C 0.69051 0.1898 0.21464 0.0
C1442 C 0.67042 0.17188 0.19153 0.0
C1443 C 0.6075 0.11894 0.12747 0.0
C1444 C 0.62969 0.13732 0.14917 0.0
H1445 H 0.75592 0.20358 0.25404 0.0
H1446 H 0.72341 0.1735 0.2162 0.0
H1447 H 0.65782 0.20338 0.17222 0.0
H1448 H 0.55767 0.05283 0.11769 0.0
H1449 H 0.59301 0.08321 0.15349 0.0
C1450 C 0.7768 0.907 0.90847 0.0
C1451 C 0.76437 0.89041 0.88469 0.0
C1452 C 0.76376 0.92321 0.91714 0.0
C1453 C 0.70831 0.95117 0.89447 0.0
H1454 H 0.69823 0.94589 0.97161 0.0
C1455 C 0.61496 0.96597 0.93483 0.0
C1456 C 0.62011 0.9787 0.9606 0.0
C1457 C 0.63673 0.96074 0.92509 0.0
C1458 C 0.7013 0.94806 0.95012 0.0
H1459 H 0.72871 0.87816 0.85118 0.0
H1460 H 0.706 0.90622 0.86628 0.0
H1461 H 0.72937 0.92693 0.9553 0.0
H1462 H 0.65239 0.99658 0.99608 0.0
H1463 H 0.69057 0.98756 0.97895 0.0
H1464 H 0.67938 0.97147 0.88918 0.0
C1465 C 0.72611 0.90716 0.87801 0.0
C1466 C 0.71918 0.93719 0.94075 0.0
C1467 C 0.73913 0.89101 0.86935 0.0
C1468 C 0.64782 0.98686 0.97607 0.0
C1469 C 0.66959 0.9815 0.96638 0.0
C1470 C 0.69038 0.96199 0.90383 0.0
C1471 C 0.738 0.92314 0.90222 0.0
C1472 C 0.7223 0.938 0.9127 0.0
C1473 C 0.66414 0.96805 0.94094 0.0
C1474 C 0.68611 0.95993 0.93163 0.0
H1475 H 0.79649 0.90729 0.92052 0.0
H1476 H 0.77369 0.93558 0.93568 0.0
H1477 H 0.71071 0.9526 0.87282 0.0
H1478 H 0.59394 0.95974 0.9223 0.0
H1479 H 0.63171 0.95009 0.90555 0.0
C1480 C 0.964 0.96321 0.59228 0.0
C1481 C 0.98459 0.95776 0.58014 0.0
C1482 C 0.94892 0.94595 0.61228 0.0
C1483 C 0.92522 0.87616 0.64061 0.0
H1484 H 0.91757 0.91165 0.70427 0.0
C1485 C 0.86709 0.81538 0.73312 0.0
C1486 C 0.85052 0.82641 0.74501 0.0
C1487 C 0.88463 0.83005 0.71307 0.0
C1488 C 0.91911 0.90128 0.68652 0.0
H1489 H 1.00485 0.92921 0.57929 0.0
H1490 H 0.97814 0.89876 0.61423 0.0
H1491 H 0.94543 0.93928 0.66919 0.0
H1492 H 0.83863 0.86099 0.74451 0.0
H1493 H 0.86835 0.88604 0.70962 0.0
H1494 H 0.89829 0.83811 0.65782 0.0
C1495 C 0.97382 0.91659 0.60816 0.0
C1496 C 0.93524 0.91721 0.66638 0.0
C1497 C 0.98921 0.93411 0.58821 0.0
C1498 C 0.85141 0.85203 0.73606 0.0
C1499 C 0.86869 0.86654 0.71609 0.0
C1500 C 0.90881 0.86013 0.66077 0.0
C1501 C 0.95375 0.92253 0.62072 0.0
C1502 C 0.93815 0.90497 0.64292 0.0
C1503 C 0.88592 0.85604 0.70449 0.0
C1504 C 0.90509 0.87253 0.6838 0.0
H1505 H 0.95968 0.98112 0.58661 0.0
H1506 H 0.93331 0.95095 0.62113 0.0
H1507 H 0.92696 0.86606 0.62277 0.0
H1508 H 0.8668 0.79564 0.73955 0.0
H1509 H 0.89762 0.82128 0.70473 0.0
C1510 C 0.22547 0.89844 0.89773 0.0
C1511 C 0.209 0.87346 0.8831 0.0
C1512 C 0.21213 0.91205 0.91128 0.0
C1513 C 0.13884 0.91426 0.91567 0.0
H1514 H 0.17994 0.95829 0.98108 0.0
C1515 C 0.091 0.98167 0.96536 0.0
C1516 C 0.09672 0.98675 0.99402 0.0
C1517 C 0.10478 0.9682 0.95234 0.0
C1518 C 0.16779 0.94595 0.96299 0.0
H1519 H 0.16457 0.84398 0.87163 0.0
H1520 H 0.14173 0.86697 0.89544 0.0
H1521 H 0.20274 0.93435 0.95844 0.0
H1522 H 0.12225 0.9812 0.03114 0.0
H1523 H 0.14579 0.95753 0.00877 0.0
H1524 H 0.1036 0.92519 0.92059 0.0
C1525 C 0.16515 0.87644 0.89625 0.0
C1526 C 0.18123 0.93234 0.94958 0.0
C1527 C 0.17848 0.86285 0.88271 0.0
C1528 C 0.11704 0.97786 0.00909 0.0
C1529 C 0.13083 0.96429 0.99605 0.0
C1530 C 0.12541 0.92784 0.92907 0.0
C1531 C 0.18161 0.90141 0.91091 0.0
C1532 C 0.16711 0.91614 0.92553 0.0
C1533 C 0.12496 0.95902 0.96732 0.0
C1534 C 0.13954 0.94411 0.95305 0.0
H1535 H 0.24895 0.9075 0.89917 0.0
H1536 H 0.22599 0.93124 0.92182 0.0
H1537 H 0.12695 0.9025 0.89719 0.0
H1538 H 0.07577 0.9882 0.95273 0.0
H1539 H 0.09974 0.96537 0.93025 0.0
C1540 C 1.01032 0.46878 0.59301 0.0
C1541 C 1.03129 0.4592 0.58842 0.0
C1542 C 0.98877 0.45387 0.60937 0.0
C1543 C 0.97447 0.40878 0.66681 0.0
H1544 H 0.89315 0.37673 0.63551 0.0
C1545 C 0.88918 0.32762 0.72534 0.0
C1546 C 0.86102 0.32682 0.72246 0.0
C1547 C 0.90935 0.3446 0.70874 0.0
C1548 C 0.91566 0.38593 0.6448 0.0
H1549 H 0.04659 0.427 0.59764 0.0
H1550 H 1.00948 0.40152 0.62695 0.0
H1551 H 0.9297 0.40632 0.60747 0.0
H1552 H 0.8318 0.34322 0.7001 0.0
H1553 H 0.86728 0.37372 0.6719 0.0
H1554 H 0.96087 0.38937 0.70431 0.0
C1555 C 1.00951 0.42026 0.61754 0.0
C1556 C 0.93653 0.40275 0.62866 0.0
C1557 C 1.0306 0.43476 0.60072 0.0
C1558 C 0.85332 0.34325 0.7026 0.0
C1559 C 0.87368 0.36067 0.68634 0.0
C1560 C 0.95363 0.39248 0.68313 0.0
C1561 C 0.98839 0.42962 0.62186 0.0
C1562 C 0.96608 0.41389 0.63945 0.0
C1563 C 0.90203 0.36166 0.68926 0.0
C1564 C 0.92398 0.38036 0.67222 0.0
H1565 H 1.01033 0.48753 0.58366 0.0
H1566 H 0.97263 0.4614 0.61255 0.0
H1567 H 0.99721 0.41742 0.67554 0.0
H1568 H 0.89559 0.31493 0.74029 0.0
H1569 H 0.93064 0.34415 0.71112 0.0
C1570 C 0.50351 0.04075 0.53133 0.0
C1571 C 0.51228 0.02328 0.51762 0.0
C1572 C 0.48965 0.0568 0.51683 0.0
C1573 C 0.45165 0.06615 0.4455 0.0
H1574 H 0.45897 0.13363 0.478 0.0
C1575 C 0.38537 0.12942 0.39221 0.0
C1576 C 0.39622 0.15825 0.39604 0.0
C1577 C 0.39918 0.11328 0.40665 0.0
C1578 C 0.4566 0.115 0.46815 0.0
H1579 H 0.51246 0.0099 0.47674 0.0
H1580 H 0.48884 0.03747 0.45179 0.0
H1581 H 0.48302 0.10646 0.50246 0.0
H1582 H 0.43125 0.19159 0.41977 0.0
H1583 H 0.45501 0.16413 0.4441 0.0
H1584 H 0.42561 0.07494 0.41098 0.0
C1585 C 0.49231 0.03873 0.47401 0.0
C1586 C 0.47038 0.09889 0.48265 0.0
C1587 C 0.50627 0.02275 0.48854 0.0
C1588 C 0.42175 0.1698 0.41539 0.0
C1589 C 0.43547 0.15364 0.42992 0.0
C1590 C 0.43775 0.0822 0.43105 0.0
C1591 C 0.48356 0.05635 0.48766 0.0
C1592 C 0.46842 0.07392 0.47182 0.0
C1593 C 0.42469 0.12483 0.42602 0.0
C1594 C 0.43978 0.10721 0.44185 0.0
H1595 H 0.50736 0.04211 0.55357 0.0
H1596 H 0.48331 0.06936 0.52882 0.0
H1597 H 0.44879 0.04724 0.4359 0.0
H1598 H 0.36617 0.11904 0.3776 0.0
H1599 H 0.38936 0.0914 0.40269 0.0
C1600 C 0.61313 0.56995 0.09477 0.0
C1601 C 0.586 0.57095 0.09481 0.0
C1602 C 0.63569 0.58231 0.11587 0.0
C1603 C 0.65257 0.61644 0.18468 0.0
H1604 H 0.72991 0.65138 0.16329 0.0
C1605 C 0.76181 0.71767 0.21713 0.0
C1606 C 0.75885 0.71798 0.24495 0.0
C1607 C 0.7453 0.69403 0.20125 0.0
C1608 C 0.70847 0.64189 0.16964 0.0
H1609 H 0.56101 0.5858 0.11654 0.0
H1610 H 0.60111 0.60939 0.15254 0.0
H1611 H 0.68992 0.62252 0.1305 0.0
H1612 H 0.73981 0.69378 0.27918 0.0
H1613 H 0.7128 0.65173 0.2521 0.0
H1614 H 0.67038 0.63807 0.22272 0.0
C1615 C 0.60468 0.59785 0.13699 0.0
C1616 C 0.68547 0.62485 0.15091 0.0
C1617 C 0.58174 0.58465 0.11624 0.0
C1618 C 0.74194 0.69382 0.25752 0.0
C1619 C 0.72625 0.66992 0.24192 0.0
C1620 C 0.67539 0.63408 0.20312 0.0
C1621 C 0.63203 0.59693 0.137 0.0
C1622 C 0.65704 0.61247 0.15795 0.0
C1623 C 0.72623 0.67021 0.21325 0.0
C1624 C 0.70352 0.64767 0.19558 0.0
H1625 H 0.61704 0.55968 0.07831 0.0
H1626 H 0.65607 0.58054 0.11538 0.0
H1627 H 0.63122 0.60665 0.19118 0.0
H1628 H 0.77477 0.73631 0.20717 0.0
H1629 H 0.74588 0.69532 0.17928 0.0
C1630 C 0.23503 0.2296 0.685 0.0
C1631 C 0.24243 0.22575 0.71298 0.0
C1632 C 0.22263 0.20709 0.66683 0.0
C1633 C 0.17699 0.15381 0.64044 0.0
H1634 H 0.1991 0.09212 0.64894 0.0
C1635 C 0.09784 0.04521 0.6148 0.0
C1636 C 0.09765 0.0412 0.58672 0.0
C1637 C 0.12229 0.0649 0.6299 0.0
C1638 C 0.19303 0.10936 0.64626 0.0
H1639 H 0.24266 0.19565 0.74408 0.0
H1640 H 0.22099 0.15667 0.71267 0.0
H1641 H 0.22981 0.13536 0.67383 0.0
H1642 H 0.12403 0.05143 0.55342 0.0
H1643 H 0.16675 0.08617 0.57999 0.0
H1644 H 0.13984 0.12751 0.61351 0.0
C1645 C 0.22525 0.17691 0.70448 0.0
C1646 C 0.21038 0.13396 0.66046 0.0
C1647 C 0.23742 0.19925 0.72252 0.0
C1648 C 0.12355 0.05433 0.575 0.0
C1649 C 0.14798 0.07415 0.59011 0.0
C1650 C 0.15976 0.1293 0.62629 0.0
C1651 C 0.21757 0.18052 0.67648 0.0
C1652 C 0.20209 0.15617 0.6582 0.0
C1653 C 0.14679 0.0805 0.61713 0.0
C1654 C 0.16736 0.10684 0.6296 0.0
H1655 H 0.23877 0.24989 0.67721 0.0
H1656 H 0.21689 0.21043 0.64531 0.0
H1657 H 0.16981 0.17036 0.63856 0.0
H1658 H 0.07823 0.03514 0.62435 0.0
H1659 H 0.1211 0.0697 0.65077 0.0
C1660 C 0.70489 0.36575 0.41426 0.0
C1661 C 0.71664 0.3752 0.38943 0.0
C1662 C 0.69136 0.3795 0.42732 0.0
C1663 C 0.65891 0.4325 0.41493 0.0
H1664 H 0.66186 0.43107 0.49417 0.0
C1665 C 0.59063 0.47639 0.46927 0.0
C1666 C 0.60063 0.48763 0.49612 0.0
C1667 C 0.60494 0.4631 0.45677 0.0
C1668 C 0.66086 0.43205 0.47202 0.0
H1669 H 0.72233 0.40727 0.35922 0.0
H1670 H 0.69966 0.43122 0.38194 0.0
H1671 H 0.68622 0.40826 0.47212 0.0
H1672 H 0.63448 0.49356 0.5305 0.0
H1673 H 0.65963 0.47106 0.50879 0.0
H1674 H 0.63423 0.45684 0.41481 0.0
C1675 C 0.70054 0.41284 0.39136 0.0
C1676 C 0.67468 0.41844 0.45915 0.0
C1677 C 0.71409 0.39911 0.37833 0.0
C1678 C 0.62574 0.48511 0.50993 0.0
C1679 C 0.64019 0.47191 0.49736 0.0
C1680 C 0.6451 0.44609 0.42778 0.0
C1681 C 0.68881 0.40342 0.41621 0.0
C1682 C 0.67402 0.41826 0.43025 0.0
C1683 C 0.63014 0.46053 0.47043 0.0
C1684 C 0.64559 0.44615 0.45666 0.0
H1685 H 0.70646 0.34778 0.42405 0.0
H1686 H 0.68254 0.37101 0.44611 0.0
H1687 H 0.65727 0.43292 0.39273 0.0
H1688 H 0.5714 0.47764 0.45779 0.0
H1689 H 0.59577 0.45444 0.43636 0.0
C1690 C 0.44161 0.01936 0.09862 0.0
C1691 C 0.44581 0.00706 0.07589 0.0
C1692 C 0.42386 0.0032 0.11766 0.0
C1693 C 0.4064 0.96041 0.16304 0.0
H1694 H 0.33574 0.89617 0.1406 0.0
C1695 C 0.36724 0.86222 0.22668 0.0
C1696 C 0.33723 0.84739 0.22709 0.0
C1697 C 0.37747 0.88536 0.21028 0.0
C1698 C 0.35507 0.9143 0.14732 0.0
H1699 H 0.43344 0.96852 0.05436 0.0
H1700 H 0.40261 0.94057 0.0873 0.0
H1701 H 0.35701 0.93077 0.10676 0.0
H1702 H 0.29444 0.84587 0.21139 0.0
H1703 H 0.31249 0.88651 0.18307 0.0
H1704 H 0.40485 0.94349 0.20347 0.0
C1705 C 0.41293 0.96258 0.09055 0.0
C1706 C 0.3674 0.93397 0.1279 0.0
C1707 C 0.43085 0.9786 0.07179 0.0
C1708 C 0.3177 0.85661 0.2113 0.0
C1709 C 0.32797 0.87983 0.19502 0.0
C1710 C 0.39406 0.94069 0.18248 0.0
C1711 C 0.40969 0.9746 0.11396 0.0
C1712 C 0.39369 0.95676 0.13538 0.0
C1713 C 0.35792 0.8942 0.19403 0.0
C1714 C 0.36873 0.91706 0.17462 0.0
H1715 H 0.45283 0.04128 0.10225 0.0
H1716 H 0.42161 0.01298 0.13549 0.0
H1717 H 0.42676 0.97768 0.16937 0.0
H1718 H 0.38286 0.85573 0.23864 0.0
H1719 H 0.40067 0.8958 0.20968 0.0
C1720 C 0.98632 0.61984 0.93077 0.0
C1721 C 0.98374 0.61266 0.95869 0.0
C1722 C 0.97046 0.63385 0.91561 0.0
C1723 C 0.91977 0.67097 0.92295 0.0
H1724 H 0.91128 0.66976 0.84351 0.0
C1725 C 0.85943 0.73392 0.8573 0.0
C1726 C 0.84861 0.72811 0.82904 0.0
C1727 C 0.87564 0.72038 0.8728 0.0
C1728 C 0.91281 0.67043 0.86565 0.0
H1729 H 0.96122 0.61552 0.99184 0.0
H1730 H 0.93354 0.63896 0.96596 0.0
H1731 H 0.93761 0.64586 0.86964 0.0
H1732 H 0.84712 0.7022 0.79578 0.0
H1733 H 0.87409 0.67851 0.82221 0.0
H1734 H 0.894 0.69469 0.91889 0.0
C1735 C 0.94828 0.6343 0.95539 0.0
C1736 C 0.92878 0.65666 0.88112 0.0
C1737 C 0.96434 0.62043 0.97059 0.0
C1738 C 0.85489 0.70783 0.81725 0.0
C1739 C 0.87088 0.6941 0.83278 0.0
C1740 C 0.90359 0.68457 0.90747 0.0
C1741 C 0.95067 0.64146 0.92726 0.0
C1742 C 0.93296 0.65647 0.91037 0.0
C1743 C 0.88191 0.69988 0.86116 0.0
C1744 C 0.89955 0.68487 0.87821 0.0
H1745 H 1.00084 0.61465 0.92035 0.0
H1746 H 0.97422 0.63889 0.89456 0.0
H1747 H 0.92201 0.67224 0.94512 0.0
H1748 H 0.85551 0.74925 0.86766 0.0
H1749 H 0.8835 0.72651 0.8941 0.0
C1750 C 0.47513 0.4669 0.10517 0.0
C1751 C 0.50111 0.46593 0.09967 0.0
C1752 C 0.45915 0.4498 0.12479 0.0
C1753 C 0.44159 0.38364 0.15725 0.0
H1754 H 0.41714 0.41394 0.21424 0.0
C1755 C 0.3519 0.31763 0.22394 0.0
C1756 C 0.36004 0.32158 0.25252 0.0
C1757 C 0.36951 0.33546 0.20563 0.0
C1758 C 0.42381 0.4052 0.19845 0.0
H1759 H 0.53061 0.44606 0.1105 0.0
H1760 H 0.50198 0.41534 0.14435 0.0
H1761 H 0.44807 0.44464 0.18209 0.0
H1762 H 0.39245 0.3477 0.28429 0.0
H1763 H 0.42262 0.37945 0.2523 0.0
H1764 H 0.41663 0.34413 0.17315 0.0
C1765 C 0.49431 0.42971 0.13357 0.0
C1766 C 0.44145 0.42274 0.18003 0.0
C1767 C 0.51074 0.44735 0.11432 0.0
C1768 C 0.38562 0.34419 0.26238 0.0
C1769 C 0.40287 0.36235 0.24408 0.0
C1770 C 0.4234 0.36604 0.1753 0.0
C1771 C 0.46837 0.43084 0.13905 0.0
C1772 C 0.45058 0.41218 0.15925 0.0
C1773 C 0.39526 0.35796 0.21551 0.0
C1774 C 0.41434 0.37663 0.19613 0.0
H1775 H 0.46715 0.48106 0.09438 0.0
H1776 H 0.4392 0.45104 0.12845 0.0
H1777 H 0.4481 0.37492 0.14133 0.0
H1778 H 0.33238 0.3003 0.21573 0.0
H1779 H 0.36298 0.33169 0.18372 0.0
C1780 C 0.44892 0.62953 0.93424 0.0
C1781 C 0.4523 0.62582 0.96274 0.0
C1782 C 0.43928 0.64919 0.92323 0.0
C1783 C 0.39364 0.68286 0.93699 0.0
H1784 H 0.42108 0.72318 0.87173 0.0
C1785 C 0.33893 0.74577 0.86867 0.0
C1786 C 0.3345 0.73903 0.84054 0.0
C1787 C 0.35525 0.73558 0.8876 0.0
C1788 C 0.41334 0.71217 0.89006 0.0
H1789 H 0.44925 0.64013 1.00227 0.0
H1790 H 0.43213 0.67471 0.98286 0.0
H1791 H 0.44934 0.70083 0.89843 0.0
H1792 H 0.34209 0.71493 0.81052 0.0
H1793 H 0.37043 0.69741 0.84344 0.0
H1794 H 0.35702 0.69351 0.92786 0.0
C1795 C 0.43698 0.66236 0.96913 0.0
C1796 C 0.42947 0.69944 0.9053 0.0
C1797 C 0.4469 0.64277 0.98019 0.0
C1798 C 0.34539 0.72087 0.83195 0.0
C1799 C 0.36179 0.71094 0.85074 0.0
C1800 C 0.37752 0.69576 0.92174 0.0
C1801 C 0.43271 0.66545 0.94052 0.0
C1802 C 0.41915 0.68373 0.92822 0.0
C1803 C 0.36749 0.71877 0.87854 0.0
C1804 C 0.3867 0.70952 0.89755 0.0
H1805 H 0.45319 0.61683 0.92042 0.0
H1806 H 0.43581 0.65086 0.90107 0.0
H1807 H 0.38515 0.67075 0.95452 0.0
H1808 H 0.33074 0.75966 0.87593 0.0
H1809 H 0.35924 0.74165 0.90905 0.0
C1810 C 0.14275 0.53099 0.62999 0.0
C1811 C 0.14484 0.53806 0.60226 0.0
C1812 C 0.15287 0.55152 0.6504 0.0
C1813 C 0.171 0.62565 0.65838 0.0
H1814 H 0.21493 0.62016 0.72796 0.0
C1815 C 0.24453 0.71964 0.72522 0.0
C1816 C 0.24206 0.71843 0.75338 0.0
C1817 C 0.23061 0.69615 0.70867 0.0
C1818 C 0.20237 0.62177 0.70874 0.0
H1819 H 0.15997 0.57181 0.57411 0.0
H1820 H 0.17812 0.60735 0.60943 0.0
H1821 H 0.1945 0.58141 0.69536 0.0
H1822 H 0.22354 0.69177 0.78654 0.0
H1823 H 0.19933 0.65025 0.75742 0.0
H1824 H 0.17969 0.66626 0.67128 0.0
C1825 C 0.16801 0.58617 0.61558 0.0
C1826 C 0.19064 0.59961 0.69011 0.0
C1827 C 0.15782 0.56579 0.59532 0.0
C1828 C 0.22567 0.6932 0.76483 0.0
C1829 C 0.21198 0.6695 0.74826 0.0
C1830 C 0.18291 0.64777 0.67681 0.0
C1831 C 0.16528 0.57938 0.64332 0.0
C1832 C 0.17538 0.60157 0.66444 0.0
C1833 C 0.21413 0.67088 0.71997 0.0
C1834 C 0.19919 0.64627 0.70191 0.0
H1835 H 0.13273 0.5097 0.63582 0.0
H1836 H 0.15037 0.54561 0.67158 0.0
H1837 H 0.15868 0.62758 0.63913 0.0
H1838 H 0.25704 0.73883 0.71586 0.0
H1839 H 0.23292 0.69771 0.68699 0.0
C1840 C 0.34784 0.34198 0.70169 0.0
C1841 C 0.35136 0.31915 0.71408 0.0
C1842 C 0.36786 0.35928 0.68506 0.0
C1843 C 0.44338 0.38499 0.67368 0.0
H1844 H 0.41622 0.4016 0.60013 0.0
C1845 C 0.51126 0.47299 0.60377 0.0
C1846 C 0.5103 0.46463 0.5768 0.0
C1847 C 0.49379 0.45464 0.62183 0.0
C1848 C 0.42408 0.39713 0.62064 0.0
H1849 H 0.37876 0.29661 0.71887 0.0
H1850 H 0.41417 0.32733 0.69023 0.0
H1851 H 0.38119 0.37051 0.62881 0.0
H1852 H 0.49124 0.43028 0.54796 0.0
H1853 H 0.46042 0.39867 0.5792 0.0
H1854 H 0.48627 0.41217 0.6656 0.0
C1855 C 0.39573 0.33161 0.69328 0.0
C1856 C 0.40407 0.37946 0.63703 0.0
C1857 C 0.37535 0.31395 0.70948 0.0
C1858 C 0.4924 0.4374 0.56857 0.0
C1859 C 0.47466 0.4193 0.58639 0.0
C1860 C 0.46338 0.40316 0.65744 0.0
C1861 C 0.39214 0.35442 0.68093 0.0
C1862 C 0.41353 0.37311 0.66364 0.0
C1863 C 0.4748 0.42785 0.61299 0.0
C1864 C 0.45389 0.40921 0.63071 0.0
H1865 H 0.32956 0.3465 0.70482 0.0
H1866 H 0.36467 0.37678 0.67581 0.0
H1867 H 0.45115 0.38052 0.69421 0.0
H1868 H 0.52488 0.49386 0.61063 0.0
H1869 H 0.49423 0.46169 0.64228 0.0
C1870 C 0.28012 0.7494 0.18061 0.0
C1871 C 0.27298 0.74023 0.20692 0.0
C1872 C 0.25891 0.74038 0.15746 0.0
C1873 C 0.17848 0.70689 0.13792 0.0
H1874 H 0.19714 0.68522 0.07144 0.0
C1875 C 0.09565 0.62454 0.06283 0.0
C1876 C 0.09508 0.62919 0.03443 0.0
C1877 C 0.11696 0.64336 0.08155 0.0
C1878 C 0.19173 0.69168 0.08967 0.0
H1879 H 0.23855 0.71395 0.22972 0.0
H1880 H 0.2019 0.69766 0.18958 0.0
H1881 H 0.23601 0.7079 0.10894 0.0
H1882 H 0.11642 0.65727 1.00329 0.0
H1883 H 0.15462 0.69005 0.03632 0.0
H1884 H 0.13402 0.68926 0.11922 0.0
C1885 C 0.22348 0.71242 0.18666 0.0
C1886 C 0.21398 0.70467 0.11117 0.0
C1887 C 0.24456 0.72153 0.20968 0.0
C1888 C 0.11623 0.65328 0.02509 0.0
C1889 C 0.13808 0.67194 0.04392 0.0
C1890 C 0.15629 0.69368 0.1166 0.0
C1891 C 0.23025 0.72188 0.16026 0.0
C1892 C 0.20747 0.71165 0.13591 0.0
C1893 C 0.13865 0.66703 0.07232 0.0
C1894 C 0.16259 0.68526 0.0926 0.0
H1895 H 0.30189 0.764 0.178 0.0
H1896 H 0.26483 0.7482 0.13748 0.0
H1897 H 0.17277 0.71269 0.15635 0.0
H1898 H 0.08004 0.60595 0.07067 0.0
H1899 H 0.11715 0.63882 0.10328 0.0
C1900 C 0.78934 0.37735 0.61898 0.0
C1901 C 0.76059 0.35839 0.62044 0.0
C1902 C 0.79496 0.39993 0.60163 0.0
C1903 C 0.75645 0.43396 0.55183 0.0
H1904 H 0.80741 0.49808 0.59598 0.0
C1905 C 0.72364 0.52232 0.55093 0.0
C1906 C 0.72416 0.53091 0.57773 0.0
C1907 C 0.74104 0.50892 0.54595 0.0
C1908 C 0.79296 0.48042 0.58336 0.0
H1909 H 0.71569 0.34632 0.60229 0.0
H1910 H 0.72495 0.38599 0.57362 0.0
H1911 H 0.8119 0.45518 0.605 0.0
H1912 H 0.74629 0.53551 0.61947 0.0
H1913 H 0.77472 0.51062 0.61152 0.0
H1914 H 0.73483 0.45807 0.53278 0.0
C1915 C 0.7435 0.38369 0.58531 0.0
C1916 C 0.79592 0.45571 0.58818 0.0
C1917 C 0.73799 0.361 0.60226 0.0
C1918 C 0.74462 0.52833 0.59877 0.0
C1919 C 0.76147 0.5144 0.59396 0.0
C1920 C 0.7528 0.45839 0.54768 0.0
C1921 C 0.77191 0.40423 0.58573 0.0
C1922 C 0.77614 0.43162 0.57392 0.0
C1923 C 0.75874 0.50311 0.56778 0.0
C1924 C 0.76953 0.48136 0.56493 0.0
H1925 H 0.80735 0.37585 0.63257 0.0
H1926 H 0.81721 0.41482 0.60198 0.0
H1927 H 0.74185 0.41622 0.53938 0.0
H1928 H 0.7083 0.52407 0.53408 0.0
H1929 H 0.73904 0.50151 0.52529 0.0
C1930 C 0.93706 0.74971 0.18928 0.0
C1931 C 0.91747 0.75969 0.19655 0.0
C1932 C 0.94049 0.74874 0.16173 0.0
C1933 C 0.94917 0.75463 0.10193 0.0
H1934 H 0.8749 0.7055 0.06344 0.0
C1935 C 0.95259 0.67909 0.03277 0.0
C1936 C 0.93824 0.65366 0.0449 0.0
C1937 C 0.94425 0.70053 0.03576 0.0
C1938 C 0.89578 0.71976 0.07345 0.0
H1939 H 0.88665 0.77709 0.18115 0.0
H1940 H 0.89237 0.77505 0.13278 0.0
H1941 H 0.8762 0.73134 0.1036 0.0
H1942 H 0.90122 0.62914 0.06549 0.0
H1943 H 0.88702 0.66636 0.07134 0.0
H1944 H 0.96897 0.74107 0.0739 0.0
C1945 C 0.90539 0.76846 0.14839 0.0
C1946 C 0.89653 0.73467 0.09639 0.0
C1947 C 0.90227 0.76975 0.176 0.0
C1948 C 0.91279 0.64867 0.05621 0.0
C1949 C 0.90457 0.67012 0.05939 0.0
C1950 C 0.94844 0.73979 0.07904 0.0
C1951 C 0.92406 0.75736 0.14098 0.0
C1952 C 0.92328 0.75055 0.11198 0.0
C1953 C 0.92178 0.69683 0.05131 0.0
C1954 C 0.92176 0.72048 0.06599 0.0
H1955 H 0.94892 0.74179 0.2048 0.0
H1956 H 0.95466 0.7396 0.15656 0.0
H1957 H 0.97005 0.76717 0.11335 0.0
H1958 H 0.97189 0.68312 0.02328 0.0
H1959 H 0.9574 0.72069 0.02862 0.0
C1960 C 0.96133 0.58414 0.57696 0.0
C1961 C 0.98247 0.57852 0.59454 0.0
C1962 C 0.93955 0.58861 0.58764 0.0
C1963 C 0.92535 0.61024 0.65229 0.0
H1964 H 0.84813 0.59161 0.61239 0.0
C1965 C 0.84219 0.63975 0.69439 0.0
C1966 C 0.83028 0.6544 0.67583 0.0
C1967 C 0.8568 0.62533 0.68517 0.0
C1968 C 0.86962 0.59689 0.62374 0.0
H1969 H 0.99655 0.57161 0.63684 0.0
H1970 H 0.95817 0.57877 0.65552 0.0
H1971 H 0.88128 0.57539 0.59518 0.0
H1972 H 0.82331 0.66427 0.6328 0.0
H1973 H 0.84844 0.63874 0.61672 0.0
H1974 H 0.9138 0.63191 0.68067 0.0
C1975 C 0.95883 0.58054 0.63356 0.0
C1976 C 0.88865 0.58772 0.61386 0.0
C1977 C 0.98077 0.57637 0.62289 0.0
C1978 C 0.83194 0.65301 0.64764 0.0
C1979 C 0.84637 0.6384 0.63839 0.0
C1980 C 0.90626 0.61916 0.66226 0.0
C1981 C 0.9383 0.58729 0.61614 0.0
C1982 C 0.91695 0.5947 0.62778 0.0
C1983 C 0.85959 0.62502 0.65716 0.0
C1984 C 0.8784 0.61297 0.64787 0.0
H1985 H 0.96228 0.58611 0.55503 0.0
H1986 H 0.92441 0.59415 0.57364 0.0
H1987 H 0.9471 0.61649 0.6633 0.0
H1988 H 0.84073 0.63986 0.71617 0.0
H1989 H 0.86644 0.61485 0.70003 0.0
C1990 C 0.3816 0.53929 0.48534 0.0
C1991 C 0.37908 0.51459 0.47428 0.0
C1992 C 0.36025 0.54914 0.47737 0.0
C1993 C 0.31213 0.54459 0.41342 0.0
H1994 H 0.31906 0.61235 0.44513 0.0
C1995 C 0.32604 0.66156 0.38037 0.0
C1996 C 0.344 0.66431 0.36012 0.0
C1997 C 0.31466 0.63709 0.39473 0.0
C1998 C 0.31604 0.59322 0.43586 0.0
H1999 H 0.35032 0.47864 0.44983 0.0
H2000 H 0.31219 0.49523 0.43674 0.0
H2001 H 0.32291 0.57637 0.47513 0.0
H2002 H 0.36432 0.64351 0.3393 0.0
H2003 H 0.34564 0.60149 0.36477 0.0
H2004 H 0.30532 0.56148 0.37419 0.0
C2005 C 0.3313 0.50773 0.45053 0.0
C2006 C 0.31866 0.57263 0.45313 0.0
C2007 C 0.35304 0.49811 0.4581 0.0
C2008 C 0.35017 0.64197 0.35441 0.0
C2009 C 0.33912 0.61769 0.36891 0.0
C2010 C 0.30874 0.56483 0.39623 0.0
C2011 C 0.33572 0.53436 0.45829 0.0
C2012 C 0.31972 0.5493 0.44201 0.0
C2013 C 0.32139 0.61494 0.38941 0.0
C2014 C 0.31347 0.59036 0.40717 0.0
H2015 H 0.40143 0.55244 0.4979 0.0
H2016 H 0.36483 0.5697 0.48399 0.0
H2017 H 0.31206 0.52678 0.40377 0.0
H2018 H 0.32087 0.67838 0.38519 0.0
H2019 H 0.301 0.6357 0.41027 0.0
C2020 C 0.15737 0.32653 0.84336 0.0
C2021 C 0.18336 0.32591 0.85671 0.0
C2022 C 0.13987 0.33385 0.85785 0.0
C2023 C 0.1489 0.37625 0.91782 0.0
H2024 H 0.06714 0.35818 0.89372 0.0
C2025 C 0.09192 0.44107 0.95055 0.0
C2026 C 0.07964 0.45123 0.92765 0.0
C2027 C 0.09978 0.41933 0.94742 0.0
C2028 C 0.0899 0.36319 0.90086 0.0
H2029 H 0.21019 0.32987 0.89602 0.0
H2030 H 0.17912 0.34189 0.92168 0.0
H2031 H 0.08942 0.32914 0.87929 0.0
H2032 H 0.06455 0.44598 0.88394 0.0
H2033 H 0.07819 0.40788 0.87844 0.0
H2034 H 0.14949 0.41068 0.93878 0.0
C2035 C 0.17268 0.33758 0.89984 0.0
C2036 C 0.10271 0.34669 0.89254 0.0
C2037 C 0.19041 0.33061 0.88523 0.0
C2038 C 0.07424 0.43863 0.90182 0.0
C2039 C 0.08171 0.41667 0.89877 0.0
C2040 C 0.136 0.39249 0.92643 0.0
C2041 C 0.14784 0.34041 0.8861 0.0
C2042 C 0.13267 0.35374 0.89992 0.0
C2043 C 0.09504 0.40717 0.92143 0.0
C2044 C 0.10671 0.38674 0.9171 0.0
H2045 H 0.15159 0.32321 0.82133 0.0
H2046 H 0.12119 0.33616 0.84642 0.0
H2047 H 0.17208 0.3826 0.92367 0.0
H2048 H 0.09635 0.45055 0.97068 0.0
H2049 H 0.11007 0.41236 0.96517 0.0
C2050 C 0.31107 0.35321 0.34314 0.0
C2051 C 0.30646 0.32597 0.34933 0.0
C2052 C 0.30673 0.3695 0.36192 0.0
C2053 C 0.29009 0.37164 0.43351 0.0
H2054 H 0.24653 0.41197 0.39828 0.0
C2055 C 0.2075 0.39541 0.48429 0.0
C2056 C 0.20605 0.421 0.47969 0.0
C2057 C 0.22626 0.38835 0.47131 0.0
C2058 C 0.25913 0.40126 0.40849 0.0
H2059 H 0.29525 0.2948 0.38056 0.0
H2060 H 0.28662 0.32278 0.41301 0.0
H2061 H 0.2684 0.39148 0.37038 0.0
H2062 H 0.22427 0.4597 0.45867 0.0
H2063 H 0.25658 0.44702 0.43546 0.0
H2064 H 0.27912 0.38028 0.47154 0.0
C2065 C 0.29429 0.33195 0.39397 0.0
C2066 C 0.27182 0.38954 0.3925 0.0
C2067 C 0.29915 0.31581 0.37533 0.0
C2068 C 0.22442 0.43963 0.46229 0.0
C2069 C 0.24304 0.43246 0.44912 0.0
C2070 C 0.27708 0.38314 0.44949 0.0
C2071 C 0.29706 0.35871 0.38711 0.0
C2072 C 0.28698 0.37408 0.4047 0.0
C2073 C 0.24386 0.4066 0.45324 0.0
C2074 C 0.26098 0.39759 0.43705 0.0
H2075 H 0.31707 0.36165 0.32333 0.0
H2076 H 0.3099 0.39024 0.35623 0.0
H2077 H 0.30204 0.36034 0.44369 0.0
H2078 H 0.19337 0.38034 0.49715 0.0
H2079 H 0.22606 0.3681 0.47452 0.0
loop_
_geom_bond_atom_site_label_1
_geom_bond_atom_site_label_2
_geom_bond_distance
_geom_bond_site_symmetry_2
_ccdc_geom_bond_type
Gd0 C3 2.818 . S
Gd0 O20 2.377 . S
Gd0 O22 2.448 . S
Gd0 O23 2.506 1_545 S
Gd0 O24 2.435 . S
Gd0 O25 2.717 . S
Gd0 O27 2.395 . S
Gd0 O31 2.327 1_445 S
Gd1 C12 2.818 . S
Gd1 O21 2.395 1_545 S
Gd1 O25 2.327 1_656 S
Gd1 O26 2.377 1_556 S
Gd1 O28 2.448 . S
Gd1 O29 2.506 . S
Gd1 O30 2.435 1_546 S
Gd1 O31 2.717 1_546 S
C2 O20 1.221 1_566 S
C2 O21 1.252 1_455 S
C3 Gd0 2.818 . S
C3 C4 1.510 1_545 S
C3 O22 1.249 . S
C3 O23 1.252 1_545 S
C4 C3 1.510 1_565 S
C4 C5 1.404 1_565 S
C4 C6 1.352 . S
C5 C4 1.404 1_545 S
C5 C9 1.392 1_545 S
C5 H32 0.930 . S
C6 C4 1.352 . S
C6 C8 1.374 . S
C6 H33 0.931 . S
C7 C8 1.359 . S
C7 C9 1.361 . S
C8 C6 1.374 . S
C8 C7 1.359 . S
C8 H34 0.931 . S
C9 C5 1.392 1_565 S
C9 C7 1.361 . S
C9 H35 0.931 1_565 S
C10 O24 1.256 . S
C10 O25 1.257 . S
C11 O26 1.240 . S
C11 O27 1.240 1_655 S
C12 Gd1 2.818 . S
C12 C13 1.510 . S
C12 O28 1.249 . S
C12 O29 1.252 . S
C13 C12 1.510 . S
C13 C14 1.404 . S
C13 C15 1.352 . S
C14 C13 1.404 . S
C14 C18 1.389 . S
C14 H36 0.930 . S
C15 C13 1.352 . S
C15 C17 1.374 . S
C15 H37 0.931 . S
C16 C17 1.359 . S
C16 C18 1.364 . S
C17 C15 1.374 . S
C17 C16 1.359 . S
C17 H38 0.931 . S
C18 C14 1.389 . S
C18 C16 1.364 . S
C18 H39 0.931 . S
C19 O30 1.256 . S
C19 O31 1.257 . S
O20 Gd0 2.377 . S
O20 C2 1.221 1_544 S
O21 Gd1 2.395 1_565 S
O21 C2 1.252 1_655 S
O22 Gd0 2.448 . S
O22 C3 1.249 . S
O23 Gd0 2.506 1_565 S
O23 C3 1.252 1_565 S
O24 Gd0 2.435 . S
O24 C10 1.256 . S
O25 Gd0 2.717 . S
O25 Gd1 2.327 1_454 S
O25 C10 1.257 . S
O26 Gd1 2.377 1_554 S
O26 C11 1.240 . S
O27 Gd0 2.395 . S
O27 C11 1.240 1_455 S
O28 Gd1 2.448 . S
O28 C12 1.249 . S
O29 Gd1 2.506 . S
O29 C12 1.252 . S
O30 Gd1 2.435 1_564 S
O30 C19 1.256 . S
O31 Gd0 2.327 1_665 S
O31 Gd1 2.717 1_564 S
O31 C19 1.257 . S
H32 C5 0.930 . S
H33 C6 0.931 . S
H34 C8 0.931 . S
H35 C9 0.931 1_545 S
H36 C14 0.930 . S
H37 C15 0.931 . S
H38 C17 0.931 . S
H39 C18 0.931 . S
Gd40 C43 2.818 . S
Gd40 O60 2.377 . S
Gd40 O62 2.448 . S
Gd40 O63 2.506 . S
Gd40 O64 2.435 . S
Gd40 O65 2.717 . S
Gd40 O67 2.395 . S
Gd40 O71 2.327 . S
Gd41 C52 2.818 . S
Gd41 O61 2.395 . S
Gd41 O65 2.327 . S
Gd41 O66 2.377 . S
Gd41 O68 2.448 . S
Gd41 O69 2.506 . S
Gd41 O70 2.435 . S
Gd41 O71 2.717 . S
C42 O60 1.240 . S
C42 O61 1.240 . S
C43 Gd40 2.818 . S
C43 C44 1.510 . S
C43 O62 1.249 . S
C43 O63 1.252 . S
C44 C43 1.510 . S
C44 C45 1.404 . S
C44 C46 1.352 . S
C45 C44 1.404 . S
C45 C49 1.389 . S
C45 H72 0.930 . S
C46 C44 1.352 . S
C46 C48 1.374 . S
C46 H73 0.931 . S
C47 C48 1.359 . S
C47 C49 1.364 . S
C48 C46 1.374 . S
C48 C47 1.359 . S
C48 H74 0.931 . S
C49 C45 1.389 . S
C49 C47 1.364 . S
C49 H75 0.931 . S
C50 O64 1.256 . S
C50 O65 1.257 . S
C51 O66 1.240 . S
C51 O67 1.240 . S
C52 Gd41 2.818 . S
C52 C53 1.510 . S
C52 O68 1.249 . S
C52 O69 1.252 . S
C53 C52 1.510 . S
C53 C54 1.404 . S
C53 C55 1.352 . S
C54 C53 1.404 . S
C54 C58 1.389 . S
C54 H76 0.930 . S
C55 C53 1.352 . S
C55 C57 1.374 . S
C55 H77 0.931 . S
C56 C57 1.359 . S
C56 C58 1.364 . S
C57 C55 1.374 . S
C57 C56 1.359 . S
C57 H78 0.931 . S
C58 C54 1.389 . S
C58 C56 1.364 . S
C58 H79 0.931 . S
C59 O70 1.256 . S
C59 O71 1.257 . S
O60 Gd40 2.377 . S
O60 C42 1.240 . S
O61 Gd41 2.395 . S
O61 C42 1.240 . S
O62 Gd40 2.448 . S
O62 C43 1.249 . S
O63 Gd40 2.506 . S
O63 C43 1.252 . S
O64 Gd40 2.435 . S
O64 C50 1.256 . S
O65 Gd40 2.717 . S
O65 Gd41 2.327 . S
O65 C50 1.257 . S
O66 Gd41 2.377 . S
O66 C51 1.240 . S
O67 Gd40 2.395 . S
O67 C51 1.240 . S
O68 Gd41 2.448 . S
O68 C52 1.249 . S
O69 Gd41 2.506 . S
O69 C52 1.252 . S
O70 Gd41 2.435 . S
O70 C59 1.256 . S
O71 Gd40 2.327 . S
O71 Gd41 2.717 . S
O71 C59 1.257 . S
H72 C45 0.930 . S
H73 C46 0.931 . S
H74 C48 0.931 . S
H75 C49 0.931 . S
H76 C54 0.930 . S
H77 C55 0.931 . S
H78 C57 0.931 . S
H79 C58 0.931 . S
Gd80 C83 2.818 1_565 S
Gd80 O100 2.377 1_565 S
Gd80 O102 2.448 . S
Gd80 O103 2.506 1_565 S
Gd80 O104 2.435 . S
Gd80 O105 2.717 . S
Gd80 O107 2.395 . S
Gd80 O111 2.327 1_565 S
Gd81 C92 2.818 1_545 S
Gd81 O101 2.395 . S
Gd81 O105 2.327 1_545 S
Gd81 O106 2.377 1_545 S
Gd81 O108 2.448 . S
Gd81 O109 2.506 1_545 S
Gd81 O110 2.435 . S
Gd81 O111 2.717 . S
C82 O100 1.240 . S
C82 O101 1.240 . S
C83 Gd80 2.818 1_545 S
C83 C84 1.510 . S
C83 O102 1.249 1_545 S
C83 O103 1.252 . S
C84 C83 1.510 . S
C84 C85 1.404 . S
C84 C86 1.352 . S
C85 C84 1.404 . S
C85 C89 1.389 . S
C85 H112 0.930 1_545 S
C86 C84 1.352 . S
C86 C88 1.374 . S
C86 H113 0.931 . S
C87 C88 1.359 . S
C87 C89 1.364 . S
C88 C86 1.374 . S
C88 C87 1.359 . S
C88 H114 0.931 . S
C89 C85 1.389 . S
C89 C87 1.364 . S
C89 H115 0.931 . S
C90 O104 1.256 . S
C90 O105 1.257 . S
C91 O106 1.240 . S
C91 O107 1.240 . S
C92 Gd81 2.818 1_565 S
C92 C93 1.510 . S
C92 O108 1.249 1_565 S
C92 O109 1.252 . S
C93 C92 1.510 . S
C93 C94 1.404 . S
C93 C95 1.352 . S
C94 C93 1.404 . S
C94 C98 1.389 . S
C94 H116 0.930 1_565 S
C95 C93 1.352 . S
C95 C97 1.374 . S
C95 H117 0.931 . S
C96 C97 1.359 . S
C96 C98 1.364 . S
C97 C95 1.374 . S
C97 C96 1.359 . S
C97 H118 0.931 . S
C98 C94 1.389 . S
C98 C96 1.364 . S
C98 H119 0.931 . S
C99 O110 1.256 . S
C99 O111 1.257 . S
O100 Gd80 2.377 1_545 S
O100 C82 1.240 . S
O101 Gd81 2.395 . S
O101 C82 1.240 . S
O102 Gd80 2.448 . S
O102 C83 1.249 1_565 S
O103 Gd80 2.506 1_545 S
O103 C83 1.252 . S
O104 Gd80 2.435 . S
O104 C90 1.256 . S
O105 Gd80 2.717 . S
O105 Gd81 2.327 1_565 S
O105 C90 1.257 . S
O106 Gd81 2.377 1_565 S
O106 C91 1.240 . S
O107 Gd80 2.395 . S
O107 C91 1.240 . S
O108 Gd81 2.448 . S
O108 C92 1.249 1_545 S
O109 Gd81 2.506 1_565 S
O109 C92 1.252 . S
O110 Gd81 2.435 . S
O110 C99 1.256 . S
O111 Gd80 2.327 1_545 S
O111 Gd81 2.717 . S
O111 C99 1.257 . S
H112 C85 0.930 1_565 S
H113 C86 0.931 . S
H114 C88 0.931 . S
H115 C89 0.931 . S
H116 C94 0.930 1_545 S
H117 C95 0.931 . S
H118 C97 0.931 . S
H119 C98 0.931 . S
Gd120 C123 2.818 . S
Gd120 O140 2.377 . S
Gd120 O142 2.448 . S
Gd120 O143 2.506 . S
Gd120 O144 2.435 . S
Gd120 O145 2.717 . S
Gd120 O147 2.395 . S
Gd120 O151 2.327 . S
Gd121 C132 2.818 . S
Gd121 O141 2.395 . S
Gd121 O145 2.327 . S
Gd121 O146 2.377 . S
Gd121 O148 2.448 . S
Gd121 O149 2.506 . S
Gd121 O150 2.435 . S
Gd121 O151 2.717 . S
C122 O140 1.240 . S
C122 O141 1.240 . S
C123 Gd120 2.818 . S
C123 C124 1.510 . S
C123 O142 1.249 . S
C123 O143 1.252 . S
C124 C123 1.510 . S
C124 C125 1.404 . S
C124 C126 1.352 . S
C125 C124 1.404 . S
C125 C129 1.389 . S
C125 H152 0.930 . S
C126 C124 1.352 . S
C126 C128 1.374 . S
C126 H153 0.931 . S
C127 C128 1.359 . S
C127 C129 1.364 . S
C128 C126 1.374 . S
C128 C127 1.359 . S
C128 H154 0.931 . S
C129 C125 1.389 . S
C129 C127 1.364 . S
C129 H155 0.931 . S
C130 O144 1.256 . S
C130 O145 1.257 . S
C131 O146 1.240 . S
C131 O147 1.240 . S
C132 Gd121 2.818 . S
C132 C133 1.510 . S
C132 O148 1.249 . S
C132 O149 1.252 . S
C133 C132 1.510 . S
C133 C134 1.404 . S
C133 C135 1.352 . S
C134 C133 1.404 . S
C134 C138 1.389 . S
C134 H156 0.930 . S
C135 C133 1.352 . S
C135 C137 1.374 . S
C135 H157 0.931 . S
C136 C137 1.359 . S
C136 C138 1.364 . S
C137 C135 1.374 . S
C137 C136 1.359 . S
C137 H158 0.931 . S
C138 C134 1.389 . S
C138 C136 1.364 . S
C138 H159 0.931 . S
C139 O150 1.256 . S
C139 O151 1.257 . S
O140 Gd120 2.377 . S
O140 C122 1.240 . S
O141 Gd121 2.395 . S
O141 C122 1.240 . S
O142 Gd120 2.448 . S
O142 C123 1.249 . S
O143 Gd120 2.506 . S
O143 C123 1.252 . S
O144 Gd120 2.435 . S
O144 C130 1.256 . S
O145 Gd120 2.717 . S
O145 Gd121 2.327 . S
O145 C130 1.257 . S
O146 Gd121 2.377 . S
O146 C131 1.240 . S
O147 Gd120 2.395 . S
O147 C131 1.240 . S
O148 Gd121 2.448 . S
O148 C132 1.249 . S
O149 Gd121 2.506 . S
O149 C132 1.252 . S
O150 Gd121 2.435 . S
O150 C139 1.256 . S
O151 Gd120 2.327 . S
O151 Gd121 2.717 . S
O151 C139 1.257 . S
H152 C125 0.930 . S
H153 C126 0.931 . S
H154 C128 0.931 . S
H155 C129 0.931 . S
H156 C134 0.930 . S
H157 C135 0.931 . S
H158 C137 0.931 . S
H159 C138 0.931 . S
Gd160 C163 2.818 1_545 S
Gd160 O180 2.377 1_445 S
Gd160 O182 2.448 1_545 S
Gd160 O183 2.506 1_545 S
Gd160 O184 2.435 1_445 S
Gd160 O185 2.717 1_455 S
Gd160 O187 2.395 . S
Gd160 O191 2.327 . S
Gd161 C172 2.818 . S
Gd161 O181 2.395 . S
Gd161 O185 2.327 . S
Gd161 O186 2.377 1_655 S
Gd161 O188 2.448 . S
Gd161 O189 2.506 . S
Gd161 O190 2.435 1_655 S
Gd161 O191 2.717 1_655 S
C162 O180 1.240 . S
C162 O181 1.240 1_565 S
C163 Gd160 2.818 1_565 S
C163 C164 1.510 . S
C163 O182 1.249 . S
C163 O183 1.252 . S
C164 C163 1.510 . S
C164 C165 1.404 . S
C164 C166 1.352 . S
C165 C164 1.404 . S
C165 C169 1.389 . S
C165 H192 0.930 . S
C166 C164 1.352 . S
C166 C168 1.374 . S
C166 H193 0.931 . S
C167 C168 1.359 . S
C167 C169 1.364 . S
C168 C166 1.374 . S
C168 C167 1.359 . S
C168 H194 0.931 . S
C169 C165 1.389 . S
C169 C167 1.364 . S
C169 H195 0.931 . S
C170 O184 1.256 . S
C170 O185 1.257 1_565 S
C171 O186 1.240 . S
C171 O187 1.240 . S
C172 Gd161 2.818 . S
C172 C173 1.510 . S
C172 O188 1.249 . S
C172 O189 1.252 . S
C173 C172 1.510 . S
C173 C174 1.404 . S
C173 C175 1.352 . S
C174 C173 1.404 . S
C174 C178 1.389 . S
C174 H196 0.930 . S
C175 C173 1.352 . S
C175 C177 1.374 . S
C175 H197 0.931 . S
C176 C177 1.359 . S
C176 C178 1.364 . S
C177 C175 1.374 . S
C177 C176 1.359 . S
C177 H198 0.931 . S
C178 C174 1.389 . S
C178 C176 1.364 . S
C178 H199 0.931 . S
C179 O190 1.256 . S
C179 O191 1.257 . S
O180 Gd160 2.377 1_665 S
O180 C162 1.240 . S
O181 Gd161 2.395 . S
O181 C162 1.240 1_545 S
O182 Gd160 2.448 1_565 S
O182 C163 1.249 . S
O183 Gd160 2.506 1_565 S
O183 C163 1.252 . S
O184 Gd160 2.435 1_665 S
O184 C170 1.256 . S
O185 Gd160 2.717 1_655 S
O185 Gd161 2.327 . S
O185 C170 1.257 1_545 S
O186 Gd161 2.377 1_455 S
O186 C171 1.240 . S
O187 Gd160 2.395 . S
O187 C171 1.240 . S
O188 Gd161 2.448 . S
O188 C172 1.249 . S
O189 Gd161 2.506 . S
O189 C172 1.252 . S
O190 Gd161 2.435 1_455 S
O190 C179 1.256 . S
O191 Gd160 2.327 . S
O191 Gd161 2.717 1_455 S
O191 C179 1.257 . S
H192 C165 0.930 . S
H193 C166 0.931 . S
H194 C168 0.931 . S
H195 C169 0.931 . S
H196 C174 0.930 . S
H197 C175 0.931 . S
H198 C177 0.931 . S
H199 C178 0.931 . S
Gd200 C203 2.818 . S
Gd200 O220 2.377 . S
Gd200 O222 2.448 . S
Gd200 O223 2.506 . S
Gd200 O224 2.435 . S
Gd200 O225 2.717 . S
Gd200 O227 2.395 . S
Gd200 O231 2.327 . S
Gd201 C212 2.818 . S
Gd201 O221 2.395 . S
Gd201 O225 2.327 . S
Gd201 O226 2.377 . S
Gd201 O228 2.448 . S
Gd201 O229 2.506 . S
Gd201 O230 2.435 . S
Gd201 O231 2.717 . S
C202 O220 1.240 . S
C202 O221 1.240 . S
C203 Gd200 2.818 . S
C203 C204 1.510 . S
C203 O222 1.249 . S
C203 O223 1.252 . S
C204 C203 1.510 . S
C204 C205 1.404 . S
C204 C206 1.352 . S
C205 C204 1.404 . S
C205 C209 1.389 . S
C205 H232 0.930 . S
C206 C204 1.352 . S
C206 C208 1.374 . S
C206 H233 0.931 . S
C207 C208 1.359 . S
C207 C209 1.364 . S
C208 C206 1.374 . S
C208 C207 1.359 . S
C208 H234 0.931 . S
C209 C205 1.389 . S
C209 C207 1.364 . S
C209 H235 0.931 . S
C210 O224 1.256 . S
C210 O225 1.257 . S
C211 O226 1.240 . S
C211 O227 1.240 . S
C212 Gd201 2.818 . S
C212 C213 1.510 . S
C212 O228 1.249 . S
C212 O229 1.252 . S
C213 C212 1.510 . S
C213 C214 1.404 . S
C213 C215 1.352 . S
C214 C213 1.404 . S
C214 C218 1.389 . S
C214 H236 0.930 . S
C215 C213 1.352 . S
C215 C217 1.374 . S
C215 H237 0.931 . S
C216 C217 1.359 . S
C216 C218 1.364 . S
C217 C215 1.374 . S
C217 C216 1.359 . S
C217 H238 0.931 . S
C218 C214 1.389 . S
C218 C216 1.364 . S
C218 H239 0.931 . S
C219 O230 1.256 . S
C219 O231 1.257 . S
O220 Gd200 2.377 . S
O220 C202 1.240 . S
O221 Gd201 2.395 . S
O221 C202 1.240 . S
O222 Gd200 2.448 . S
O222 C203 1.249 . S
O223 Gd200 2.506 . S
O223 C203 1.252 . S
O224 Gd200 2.435 . S
O224 C210 1.256 . S
O225 Gd200 2.717 . S
O225 Gd201 2.327 . S
O225 C210 1.257 . S
O226 Gd201 2.377 . S
O226 C211 1.240 . S
O227 Gd200 2.395 . S
O227 C211 1.240 . S
O228 Gd201 2.448 . S
O228 C212 1.249 . S
O229 Gd201 2.506 . S
O229 C212 1.252 . S
O230 Gd201 2.435 . S
O230 C219 1.256 . S
O231 Gd200 2.327 . S
O231 Gd201 2.717 . S
O231 C219 1.257 . S
H232 C205 0.930 . S
H233 C206 0.931 . S
H234 C208 0.931 . S
H235 C209 0.931 . S
H236 C214 0.930 . S
H237 C215 0.931 . S
H238 C217 0.931 . S
H239 C218 0.931 . S
Gd240 C243 2.838 . S
Gd240 O260 2.377 . S
Gd240 O262 2.448 . S
Gd240 O263 2.506 1_545 S
Gd240 O264 2.435 . S
Gd240 O265 2.717 . S
Gd240 O267 2.396 1_545 S
Gd240 O271 2.327 . S
Gd241 C252 2.818 . S
Gd241 O261 2.395 . S
Gd241 O265 2.327 . S
Gd241 O266 2.377 . S
Gd241 O268 2.448 . S
Gd241 O269 2.506 . S
Gd241 O270 2.435 . S
Gd241 O271 2.717 . S
C242 O260 1.240 . S
C242 O261 1.240 . S
C243 Gd240 2.838 . S
C243 C244 1.492 1_544 S
C243 O262 1.258 . S
C243 O263 1.261 1_545 S
C244 C243 1.492 1_566 S
C244 C245 1.418 1_566 S
C244 C246 1.352 . S
C245 C244 1.418 1_544 S
C245 C249 1.371 1_544 S
C245 H272 0.935 . S
C246 C244 1.352 . S
C246 C248 1.374 . S
C246 H273 0.931 . S
C247 C248 1.359 . S
C247 C249 1.364 . S
C248 C246 1.374 . S
C248 C247 1.359 . S
C248 H274 0.931 . S
C249 C245 1.371 1_566 S
C249 C247 1.364 . S
C249 H275 0.916 1_556 S
C250 O264 1.256 . S
C250 O265 1.257 . S
C251 O266 1.240 . S
C251 O267 1.235 1_545 S
C252 Gd241 2.818 . S
C252 C253 1.510 . S
C252 O268 1.249 . S
C252 O269 1.252 . S
C253 C252 1.510 . S
C253 C254 1.404 . S
C253 C255 1.352 . S
C254 C253 1.404 . S
C254 C258 1.389 . S
C254 H276 0.930 . S
C255 C253 1.352 . S
C255 C257 1.374 . S
C255 H277 0.931 . S
C256 C257 1.359 . S
C256 C258 1.364 . S
C257 C255 1.374 . S
C257 C256 1.359 . S
C257 H278 0.931 . S
C258 C254 1.389 . S
C258 C256 1.364 . S
C258 H279 0.931 . S
C259 O270 1.256 . S
C259 O271 1.257 . S
O260 Gd240 2.377 . S
O260 C242 1.240 . S
O261 Gd241 2.395 . S
O261 C242 1.240 . S
O262 Gd240 2.448 . S
O262 C243 1.258 . S
O263 Gd240 2.506 1_565 S
O263 C243 1.261 1_565 S
O264 Gd240 2.435 . S
O264 C250 1.256 . S
O265 Gd240 2.717 . S
O265 Gd241 2.327 . S
O265 C250 1.257 . S
O266 Gd241 2.377 . S
O266 C251 1.240 . S
O267 Gd240 2.396 1_565 S
O267 C251 1.235 1_565 S
O268 Gd241 2.448 . S
O268 C252 1.249 . S
O269 Gd241 2.506 . S
O269 C252 1.252 . S
O270 Gd241 2.435 . S
O270 C259 1.256 . S
O271 Gd240 2.327 . S
O271 Gd241 2.717 . S
O271 C259 1.257 . S
H272 C245 0.935 . S
H273 C246 0.931 . S
H274 C248 0.931 . S
H275 C249 0.916 1_554 S
H276 C254 0.930 . S
H277 C255 0.931 . S
H278 C257 0.931 . S
H279 C258 0.931 . S
Gd280 C283 2.818 . S
Gd280 O300 2.377 . S
Gd280 O302 2.448 . S
Gd280 O303 2.506 . S
Gd280 O304 2.435 . S
Gd280 O305 2.717 . S
Gd280 O307 2.395 . S
Gd280 O311 2.327 . S
Gd281 C292 2.818 . S
Gd281 O301 2.395 . S
Gd281 O305 2.327 . S
Gd281 O306 2.377 . S
Gd281 O308 2.448 . S
Gd281 O309 2.506 . S
Gd281 O310 2.435 . S
Gd281 O311 2.717 . S
C282 O300 1.240 . S
C282 O301 1.240 . S
C283 Gd280 2.818 . S
C283 C284 1.510 . S
C283 O302 1.249 . S
C283 O303 1.252 . S
C284 C283 1.510 . S
C284 C285 1.404 . S
C284 C286 1.352 . S
C285 C284 1.404 . S
C285 C289 1.389 . S
C285 H312 0.930 . S
C286 C284 1.352 . S
C286 C288 1.374 . S
C286 H313 0.931 . S
C287 C288 1.359 . S
C287 C289 1.364 . S
C288 C286 1.374 . S
C288 C287 1.359 . S
C288 H314 0.931 . S
C289 C285 1.389 . S
C289 C287 1.364 . S
C289 H315 0.931 . S
C290 O304 1.256 . S
C290 O305 1.257 . S
C291 O306 1.240 . S
C291 O307 1.240 . S
C292 Gd281 2.818 . S
C292 C293 1.510 . S
C292 O308 1.249 . S
C292 O309 1.252 . S
C293 C292 1.510 . S
C293 C294 1.404 . S
C293 C295 1.352 . S
C294 C293 1.404 . S
C294 C298 1.389 . S
C294 H316 0.930 . S
C295 C293 1.352 . S
C295 C297 1.374 . S
C295 H317 0.931 . S
C296 C297 1.359 . S
C296 C298 1.364 . S
C297 C295 1.374 . S
C297 C296 1.359 . S
C297 H318 0.931 . S
C298 C294 1.389 . S
C298 C296 1.364 . S
C298 H319 0.931 . S
C299 O310 1.256 . S
C299 O311 1.257 . S
O300 Gd280 2.377 . S
O300 C282 1.240 . S
O301 Gd281 2.395 . S
O301 C282 1.240 . S
O302 Gd280 2.448 . S
O302 C283 1.249 . S
O303 Gd280 2.506 . S
O303 C283 1.252 . S
O304 Gd280 2.435 . S
O304 C290 1.256 . S
O305 Gd280 2.717 . S
O305 Gd281 2.327 . S
O305 C290 1.257 . S
O306 Gd281 2.377 . S
O306 C291 1.240 . S
O307 Gd280 2.395 . S
O307 C291 1.240 . S
O308 Gd281 2.448 . S
O308 C292 1.249 . S
O309 Gd281 2.506 . S
O309 C292 1.252 . S
O310 Gd281 2.435 . S
O310 C299 1.256 . S
O311 Gd280 2.327 . S
O311 Gd281 2.717 . S
O311 C299 1.257 . S
H312 C285 0.930 . S
H313 C286 0.931 . S
H314 C288 0.931 . S
H315 C289 0.931 . S
H316 C294 0.930 . S
H317 C295 0.931 . S
H318 C297 0.931 . S
H319 C298 0.931 . S
Gd320 C323 2.818 . S
Gd320 O340 2.377 . S
Gd320 O342 2.448 . S
Gd320 O343 2.506 . S
Gd320 O344 2.435 1_554 S
Gd320 O345 2.717 . S
Gd320 O347 2.395 1_554 S
Gd320 O351 2.327 . S
Gd321 C332 2.818 1_554 S
Gd321 O341 2.395 . S
Gd321 O345 2.327 . S
Gd321 O346 2.377 . S
Gd321 O348 2.448 . S
Gd321 O349 2.506 1_554 S
Gd321 O350 2.435 . S
Gd321 O351 2.717 . S
C322 O340 1.240 . S
C322 O341 1.240 . S
C323 Gd320 2.818 . S
C323 C324 1.510 . S
C323 O342 1.249 . S
C323 O343 1.252 . S
C324 C323 1.510 . S
C324 C325 1.404 . S
C324 C326 1.352 . S
C325 C324 1.404 . S
C325 C329 1.389 . S
C325 H352 0.930 . S
C326 C324 1.352 . S
C326 C328 1.374 . S
C326 H353 0.931 . S
C327 C328 1.359 . S
C327 C329 1.364 . S
C328 C326 1.374 . S
C328 C327 1.359 . S
C328 H354 0.931 . S
C329 C325 1.389 . S
C329 C327 1.364 . S
C329 H355 0.931 . S
C330 O344 1.256 . S
C330 O345 1.257 1_556 S
C331 O346 1.240 1_556 S
C331 O347 1.240 . S
C332 Gd321 2.818 1_556 S
C332 C333 1.510 . S
C332 O348 1.249 1_556 S
C332 O349 1.252 . S
C333 C332 1.510 . S
C333 C334 1.404 . S
C333 C335 1.352 . S
C334 C333 1.404 . S
C334 C338 1.389 . S
C334 H356 0.930 1_556 S
C335 C333 1.352 . S
C335 C337 1.374 . S
C335 H357 0.931 . S
C336 C337 1.359 . S
C336 C338 1.364 . S
C337 C335 1.374 . S
C337 C336 1.359 . S
C337 H358 0.931 . S
C338 C334 1.389 . S
C338 C336 1.364 . S
C338 H359 0.931 . S
C339 O350 1.256 . S
C339 O351 1.257 . S
O340 Gd320 2.377 . S
O340 C322 1.240 . S
O341 Gd321 2.395 . S
O341 C322 1.240 . S
O342 Gd320 2.448 . S
O342 C323 1.249 . S
O343 Gd320 2.506 . S
O343 C323 1.252 . S
O344 Gd320 2.435 1_556 S
O344 C330 1.256 . S
O345 Gd320 2.717 . S
O345 Gd321 2.327 . S
O345 C330 1.257 1_554 S
O346 Gd321 2.377 . S
O346 C331 1.240 1_554 S
O347 Gd320 2.395 1_556 S
O347 C331 1.240 . S
O348 Gd321 2.448 . S
O348 C332 1.249 1_554 S
O349 Gd321 2.506 1_556 S
O349 C332 1.252 . S
O350 Gd321 2.435 . S
O350 C339 1.256 . S
O351 Gd320 2.327 . S
O351 Gd321 2.717 . S
O351 C339 1.257 . S
H352 C325 0.930 . S
H353 C326 0.931 . S
H354 C328 0.931 . S
H355 C329 0.931 . S
H356 C334 0.930 1_554 S
H357 C335 0.931 . S
H358 C337 0.931 . S
H359 C338 0.931 . S
Gd360 C363 2.818 . S
Gd360 O380 2.377 . S
Gd360 O382 2.448 . S
Gd360 O383 2.506 . S
Gd360 O384 2.435 . S
Gd360 O385 2.717 . S
Gd360 O387 2.395 . S
Gd360 O391 2.327 . S
Gd361 C372 2.818 . S
Gd361 O381 2.395 . S
Gd361 O385 2.327 . S
Gd361 O386 2.377 . S
Gd361 O388 2.448 . S
Gd361 O389 2.506 . S
Gd361 O390 2.435 . S
Gd361 O391 2.717 . S
C362 O380 1.240 . S
C362 O381 1.240 . S
C363 Gd360 2.818 . S
C363 C364 1.510 . S
C363 O382 1.249 . S
C363 O383 1.252 . S
C364 C363 1.510 . S
C364 C365 1.404 . S
C364 C366 1.352 . S
C365 C364 1.404 . S
C365 C369 1.389 . S
C365 H392 0.930 . S
C366 C364 1.352 . S
C366 C368 1.374 . S
C366 H393 0.931 . S
C367 C368 1.359 . S
C367 C369 1.364 . S
C368 C366 1.374 . S
C368 C367 1.359 . S
C368 H394 0.931 . S
C369 C365 1.389 . S
C369 C367 1.364 . S
C369 H395 0.931 . S
C370 O384 1.256 . S
C370 O385 1.257 . S
C371 O386 1.240 . S
C371 O387 1.240 . S
C372 Gd361 2.818 . S
C372 C373 1.510 . S
C372 O388 1.249 . S
C372 O389 1.252 . S
C373 C372 1.510 . S
C373 C374 1.404 . S
C373 C375 1.352 . S
C374 C373 1.404 . S
C374 C378 1.389 . S
C374 H396 0.930 . S
C375 C373 1.352 . S
C375 C377 1.374 . S
C375 H397 0.931 . S
C376 C377 1.359 . S
C376 C378 1.364 . S
C377 C375 1.374 . S
C377 C376 1.359 . S
C377 H398 0.931 . S
C378 C374 1.389 . S
C378 C376 1.364 . S
C378 H399 0.931 . S
C379 O390 1.256 . S
C379 O391 1.257 . S
O380 Gd360 2.377 . S
O380 C362 1.240 . S
O381 Gd361 2.395 . S
O381 C362 1.240 . S
O382 Gd360 2.448 . S
O382 C363 1.249 . S
O383 Gd360 2.506 . S
O383 C363 1.252 . S
O384 Gd360 2.435 . S
O384 C370 1.256 . S
O385 Gd360 2.717 . S
O385 Gd361 2.327 . S
O385 C370 1.257 . S
O386 Gd361 2.377 . S
O386 C371 1.240 . S
O387 Gd360 2.395 . S
O387 C371 1.240 . S
O388 Gd361 2.448 . S
O388 C372 1.249 . S
O389 Gd361 2.506 . S
O389 C372 1.252 . S
O390 Gd361 2.435 . S
O390 C379 1.256 . S
O391 Gd360 2.327 . S
O391 Gd361 2.717 . S
O391 C379 1.257 . S
H392 C365 0.930 . S
H393 C366 0.931 . S
H394 C368 0.931 . S
H395 C369 0.931 . S
H396 C374 0.930 . S
H397 C375 0.931 . S
H398 C377 0.931 . S
H399 C378 0.931 . S
Gd400 C403 2.818 . S
Gd400 O420 2.377 . S
Gd400 O422 2.448 . S
Gd400 O423 2.506 . S
Gd400 O424 2.435 . S
Gd400 O425 2.717 . S
Gd400 O427 2.395 . S
Gd400 O431 2.327 . S
Gd401 C412 2.818 1_455 S
Gd401 O421 2.395 . S
Gd401 O425 2.327 . S
Gd401 O426 2.377 1_455 S
Gd401 O428 2.448 1_455 S
Gd401 O429 2.502 1_455 S
Gd401 O430 2.435 1_455 S
Gd401 O431 2.717 . S
C402 O420 1.240 . S
C402 O421 1.240 . S
C403 Gd400 2.818 . S
C403 C404 1.510 . S
C403 O422 1.249 . S
C403 O423 1.252 . S
C404 C403 1.510 . S
C404 C405 1.404 . S
C404 C406 1.352 . S
C405 C404 1.404 . S
C405 C409 1.389 . S
C405 H432 0.930 . S
C406 C404 1.352 . S
C406 C408 1.374 . S
C406 H433 0.931 . S
C407 C408 1.359 . S
C407 C409 1.364 . S
C408 C406 1.374 . S
C408 C407 1.359 . S
C408 H434 0.931 . S
C409 C405 1.389 . S
C409 C407 1.364 . S
C409 H435 0.931 . S
C410 O424 1.256 . S
C410 O425 1.257 . S
C411 O426 1.240 . S
C411 O427 1.240 1_655 S
C412 Gd401 2.818 1_655 S
C412 C413 1.510 . S
C412 O428 1.249 . S
C412 O429 1.257 . S
C413 C412 1.510 . S
C413 C414 1.404 . S
C413 C415 1.352 . S
C414 C413 1.404 . S
C414 C418 1.389 . S
C414 H436 0.930 . S
C415 C413 1.352 . S
C415 C417 1.374 . S
C415 H437 0.931 . S
C416 C417 1.359 . S
C416 C418 1.364 . S
C417 C415 1.374 . S
C417 C416 1.359 . S
C417 H438 0.931 . S
C418 C414 1.389 . S
C418 C416 1.364 . S
C418 H439 0.931 . S
C419 O430 1.256 . S
C419 O431 1.257 1_655 S
O420 Gd400 2.377 . S
O420 C402 1.240 . S
O421 Gd401 2.395 . S
O421 C402 1.240 . S
O422 Gd400 2.448 . S
O422 C403 1.249 . S
O423 Gd400 2.506 . S
O423 C403 1.252 . S
O424 Gd400 2.435 . S
O424 C410 1.256 . S
O425 Gd400 2.717 . S
O425 Gd401 2.327 . S
O425 C410 1.257 . S
O426 Gd401 2.377 1_655 S
O426 C411 1.240 . S
O427 Gd400 2.395 . S
O427 C411 1.240 1_455 S
O428 Gd401 2.448 1_655 S
O428 C412 1.249 . S
O429 Gd401 2.502 1_655 S
O429 C412 1.257 . S
O430 Gd401 2.435 1_655 S
O430 C419 1.256 . S
O431 Gd400 2.327 . S
O431 Gd401 2.717 . S
O431 C419 1.257 1_455 S
H432 C405 0.930 . S
H433 C406 0.931 . S
H434 C408 0.931 . S
H435 C409 0.931 . S
H436 C414 0.930 . S
H437 C415 0.931 . S
H438 C417 0.931 . S
H439 C418 0.931 . S
Gd440 C443 2.818 . S
Gd440 O460 2.377 . S
Gd440 O462 2.448 . S
Gd440 O463 2.506 . S
Gd440 O464 2.435 . S
Gd440 O465 2.717 . S
Gd440 O467 2.395 . S
Gd440 O471 2.327 . S
Gd441 C452 2.818 . S
Gd441 O461 2.395 . S
Gd441 O465 2.327 . S
Gd441 O466 2.377 . S
Gd441 O468 2.448 . S
Gd441 O469 2.506 . S
Gd441 O470 2.435 . S
Gd441 O471 2.717 . S
C442 O460 1.240 . S
C442 O461 1.240 . S
C443 Gd440 2.818 . S
C443 C444 1.510 . S
C443 O462 1.249 . S
C443 O463 1.252 . S
C444 C443 1.510 . S
C444 C445 1.404 . S
C444 C446 1.352 . S
C445 C444 1.404 . S
C445 C449 1.389 . S
C445 H472 0.930 . S
C446 C444 1.352 . S
C446 C448 1.374 . S
C446 H473 0.931 . S
C447 C448 1.359 . S
C447 C449 1.364 . S
C448 C446 1.374 . S
C448 C447 1.359 . S
C448 H474 0.931 . S
C449 C445 1.389 . S
C449 C447 1.364 . S
C449 H475 0.931 . S
C450 O464 1.256 . S
C450 O465 1.257 . S
C451 O466 1.240 . S
C451 O467 1.240 . S
C452 Gd441 2.818 . S
C452 C453 1.510 . S
C452 O468 1.249 . S
C452 O469 1.252 . S
C453 C452 1.510 . S
C453 C454 1.404 . S
C453 C455 1.352 . S
C454 C453 1.404 . S
C454 C458 1.389 . S
C454 H476 0.930 . S
C455 C453 1.352 . S
C455 C457 1.374 . S
C455 H477 0.931 . S
C456 C457 1.359 . S
C456 C458 1.364 . S
C457 C455 1.374 . S
C457 C456 1.359 . S
C457 H478 0.931 . S
C458 C454 1.389 . S
C458 C456 1.364 . S
C458 H479 0.931 . S
C459 O470 1.256 . S
C459 O471 1.257 . S
O460 Gd440 2.377 . S
O460 C442 1.240 . S
O461 Gd441 2.395 . S
O461 C442 1.240 . S
O462 Gd440 2.448 . S
O462 C443 1.249 . S
O463 Gd440 2.506 . S
O463 C443 1.252 . S
O464 Gd440 2.435 . S
O464 C450 1.256 . S
O465 Gd440 2.717 . S
O465 Gd441 2.327 . S
O465 C450 1.257 . S
O466 Gd441 2.377 . S
O466 C451 1.240 . S
O467 Gd440 2.395 . S
O467 C451 1.240 . S
O468 Gd441 2.448 . S
O468 C452 1.249 . S
O469 Gd441 2.506 . S
O469 C452 1.252 . S
O470 Gd441 2.435 . S
O470 C459 1.256 . S
O471 Gd440 2.327 . S
O471 Gd441 2.717 . S
O471 C459 1.257 . S
H472 C445 0.930 . S
H473 C446 0.931 . S
H474 C448 0.931 . S
H475 C449 0.931 . S
H476 C454 0.930 . S
H477 C455 0.931 . S
H478 C457 0.931 . S
H479 C458 0.931 . S
Gd480 C483 2.818 . S
Gd480 O500 2.377 . S
Gd480 O502 2.448 . S
Gd480 O503 2.506 . S
Gd480 O504 2.435 . S
Gd480 O505 2.717 . S
Gd480 O507 2.395 . S
Gd480 O511 2.327 . S
Gd481 C492 2.818 . S
Gd481 O501 2.395 . S
Gd481 O505 2.327 . S
Gd481 O506 2.377 . S
Gd481 O508 2.448 . S
Gd481 O509 2.506 . S
Gd481 O510 2.435 . S
Gd481 O511 2.717 . S
C482 O500 1.240 . S
C482 O501 1.240 . S
C483 Gd480 2.818 . S
C483 C484 1.510 . S
C483 O502 1.249 . S
C483 O503 1.252 . S
C484 C483 1.510 . S
C484 C485 1.404 . S
C484 C486 1.352 . S
C485 C484 1.404 . S
C485 C489 1.389 . S
C485 H512 0.930 . S
C486 C484 1.352 . S
C486 C488 1.374 . S
C486 H513 0.931 . S
C487 C488 1.359 . S
C487 C489 1.364 . S
C488 C486 1.374 . S
C488 C487 1.359 . S
C488 H514 0.931 . S
C489 C485 1.389 . S
C489 C487 1.364 . S
C489 H515 0.931 . S
C490 O504 1.256 . S
C490 O505 1.257 . S
C491 O506 1.240 . S
C491 O507 1.240 . S
C492 Gd481 2.818 . S
C492 C493 1.510 . S
C492 O508 1.249 . S
C492 O509 1.252 . S
C493 C492 1.510 . S
C493 C494 1.404 . S
C493 C495 1.352 . S
C494 C493 1.404 . S
C494 C498 1.389 . S
C494 H516 0.930 . S
C495 C493 1.352 . S
C495 C497 1.374 . S
C495 H517 0.931 . S
C496 C497 1.359 . S
C496 C498 1.364 . S
C497 C495 1.374 . S
C497 C496 1.359 . S
C497 H518 0.931 . S
C498 C494 1.389 . S
C498 C496 1.364 . S
C498 H519 0.931 . S
C499 O510 1.256 . S
C499 O511 1.257 . S
O500 Gd480 2.377 . S
O500 C482 1.240 . S
O501 Gd481 2.395 . S
O501 C482 1.240 . S
O502 Gd480 2.448 . S
O502 C483 1.249 . S
O503 Gd480 2.506 . S
O503 C483 1.252 . S
O504 Gd480 2.435 . S
O504 C490 1.256 . S
O505 Gd480 2.717 . S
O505 Gd481 2.327 . S
O505 C490 1.257 . S
O506 Gd481 2.377 . S
O506 C491 1.240 . S
O507 Gd480 2.395 . S
O507 C491 1.240 . S
O508 Gd481 2.448 . S
O508 C492 1.249 . S
O509 Gd481 2.506 . S
O509 C492 1.252 . S
O510 Gd481 2.435 . S
O510 C499 1.256 . S
O511 Gd480 2.327 . S
O511 Gd481 2.717 . S
O511 C499 1.257 . S
H512 C485 0.930 . S
H513 C486 0.931 . S
H514 C488 0.931 . S
H515 C489 0.931 . S
H516 C494 0.930 . S
H517 C495 0.931 . S
H518 C497 0.931 . S
H519 C498 0.931 . S
Gd520 C523 2.818 . S
Gd520 O540 2.377 . S
Gd520 O542 2.448 . S
Gd520 O543 2.506 . S
Gd520 O544 2.435 . S
Gd520 O545 2.717 . S
Gd520 O547 2.395 . S
Gd520 O551 2.327 . S
Gd521 C532 2.818 . S
Gd521 O541 2.395 . S
Gd521 O545 2.327 . S
Gd521 O546 2.377 . S
Gd521 O548 2.448 . S
Gd521 O549 2.506 . S
Gd521 O550 2.435 . S
Gd521 O551 2.717 . S
C522 O540 1.240 . S
C522 O541 1.240 . S
C523 Gd520 2.818 . S
C523 C524 1.510 . S
C523 O542 1.249 . S
C523 O543 1.252 . S
C524 C523 1.510 . S
C524 C525 1.404 . S
C524 C526 1.352 . S
C525 C524 1.404 . S
C525 C529 1.389 . S
C525 H552 0.930 . S
C526 C524 1.352 . S
C526 C528 1.374 . S
C526 H553 0.931 . S
C527 C528 1.359 . S
C527 C529 1.364 . S
C528 C526 1.374 . S
C528 C527 1.359 . S
C528 H554 0.931 . S
C529 C525 1.389 . S
C529 C527 1.364 . S
C529 H555 0.931 . S
C530 O544 1.256 . S
C530 O545 1.257 . S
C531 O546 1.240 . S
C531 O547 1.240 . S
C532 Gd521 2.818 . S
C532 C533 1.510 . S
C532 O548 1.249 . S
C532 O549 1.252 . S
C533 C532 1.510 . S
C533 C534 1.404 . S
C533 C535 1.352 . S
C534 C533 1.404 . S
C534 C538 1.389 . S
C534 H556 0.930 . S
C535 C533 1.352 . S
C535 C537 1.374 . S
C535 H557 0.931 . S
C536 C537 1.359 . S
C536 C538 1.364 . S
C537 C535 1.374 . S
C537 C536 1.359 . S
C537 H558 0.931 . S
C538 C534 1.389 . S
C538 C536 1.364 . S
C538 H559 0.931 . S
C539 O550 1.256 . S
C539 O551 1.257 . S
O540 Gd520 2.377 . S
O540 C522 1.240 . S
O541 Gd521 2.395 . S
O541 C522 1.240 . S
O542 Gd520 2.448 . S
O542 C523 1.249 . S
O543 Gd520 2.506 . S
O543 C523 1.252 . S
O544 Gd520 2.435 . S
O544 C530 1.256 . S
O545 Gd520 2.717 . S
O545 Gd521 2.327 . S
O545 C530 1.257 . S
O546 Gd521 2.377 . S
O546 C531 1.240 . S
O547 Gd520 2.395 . S
O547 C531 1.240 . S
O548 Gd521 2.448 . S
O548 C532 1.249 . S
O549 Gd521 2.506 . S
O549 C532 1.252 . S
O550 Gd521 2.435 . S
O550 C539 1.256 . S
O551 Gd520 2.327 . S
O551 Gd521 2.717 . S
O551 C539 1.257 . S
H552 C525 0.930 . S
H553 C526 0.931 . S
H554 C528 0.931 . S
H555 C529 0.931 . S
H556 C534 0.930 . S
H557 C535 0.931 . S
H558 C537 0.931 . S
H559 C538 0.931 . S
Gd560 C563 2.818 . S
Gd560 O580 2.377 . S
Gd560 O582 2.448 . S
Gd560 O583 2.506 . S
Gd560 O584 2.435 . S
Gd560 O585 2.717 . S
Gd560 O587 2.395 . S
Gd560 O591 2.327 . S
Gd561 C572 2.818 . S
Gd561 O581 2.395 . S
Gd561 O585 2.327 . S
Gd561 O586 2.377 . S
Gd561 O588 2.448 . S
Gd561 O589 2.506 . S
Gd561 O590 2.435 . S
Gd561 O591 2.717 . S
C562 O580 1.240 . S
C562 O581 1.240 . S
C563 Gd560 2.818 . S
C563 C564 1.510 . S
C563 O582 1.249 . S
C563 O583 1.252 . S
C564 C563 1.510 . S
C564 C565 1.404 . S
C564 C566 1.352 . S
C565 C564 1.404 . S
C565 C569 1.389 . S
C565 H592 0.930 . S
C566 C564 1.352 . S
C566 C568 1.374 . S
C566 H593 0.931 . S
C567 C568 1.359 . S
C567 C569 1.364 . S
C568 C566 1.374 . S
C568 C567 1.359 . S
C568 H594 0.931 . S
C569 C565 1.389 . S
C569 C567 1.364 . S
C569 H595 0.931 . S
C570 O584 1.256 . S
C570 O585 1.257 . S
C571 O586 1.240 . S
C571 O587 1.240 . S
C572 Gd561 2.818 . S
C572 C573 1.510 . S
C572 O588 1.249 . S
C572 O589 1.252 . S
C573 C572 1.510 . S
C573 C574 1.404 . S
C573 C575 1.352 . S
C574 C573 1.404 . S
C574 C578 1.389 . S
C574 H596 0.930 . S
C575 C573 1.352 . S
C575 C577 1.374 . S
C575 H597 0.931 . S
C576 C577 1.359 . S
C576 C578 1.364 . S
C577 C575 1.374 . S
C577 C576 1.359 . S
C577 H598 0.931 . S
C578 C574 1.389 . S
C578 C576 1.364 . S
C578 H599 0.931 . S
C579 O590 1.256 . S
C579 O591 1.257 . S
O580 Gd560 2.377 . S
O580 C562 1.240 . S
O581 Gd561 2.395 . S
O581 C562 1.240 . S
O582 Gd560 2.448 . S
O582 C563 1.249 . S
O583 Gd560 2.506 . S
O583 C563 1.252 . S
O584 Gd560 2.435 . S
O584 C570 1.256 . S
O585 Gd560 2.717 . S
O585 Gd561 2.327 . S
O585 C570 1.257 . S
O586 Gd561 2.377 . S
O586 C571 1.240 . S
O587 Gd560 2.395 . S
O587 C571 1.240 . S
O588 Gd561 2.448 . S
O588 C572 1.249 . S
O589 Gd561 2.506 . S
O589 C572 1.252 . S
O590 Gd561 2.435 . S
O590 C579 1.256 . S
O591 Gd560 2.327 . S
O591 Gd561 2.717 . S
O591 C579 1.257 . S
H592 C565 0.930 . S
H593 C566 0.931 . S
H594 C568 0.931 . S
H595 C569 0.931 . S
H596 C574 0.930 . S
H597 C575 0.931 . S
H598 C577 0.931 . S
H599 C578 0.931 . S
Gd600 C603 2.818 . S
Gd600 O620 2.377 1_554 S
Gd600 O622 2.448 . S
Gd600 O623 2.506 . S
Gd600 O624 2.435 1_554 S
Gd600 O625 2.717 1_554 S
Gd600 O627 2.395 1_655 S
Gd600 O631 2.327 1_655 S
Gd601 C612 2.818 . S
Gd601 O621 2.395 . S
Gd601 O625 2.327 1_455 S
Gd601 O626 2.377 1_556 S
Gd601 O628 2.448 . S
Gd601 O629 2.506 . S
Gd601 O630 2.435 1_556 S
Gd601 O631 2.717 1_556 S
C602 O620 1.240 . S
C602 O621 1.240 1_655 S
C603 Gd600 2.818 . S
C603 C604 1.510 . S
C603 O622 1.249 . S
C603 O623 1.252 . S
C604 C603 1.510 . S
C604 C605 1.404 . S
C604 C606 1.352 . S
C605 C604 1.404 . S
C605 C609 1.389 . S
C605 H632 0.930 . S
C606 C604 1.352 . S
C606 C608 1.374 . S
C606 H633 0.931 . S
C607 C608 1.359 . S
C607 C609 1.364 . S
C608 C606 1.374 . S
C608 C607 1.359 . S
C608 H634 0.931 . S
C609 C605 1.389 . S
C609 C607 1.364 . S
C609 H635 0.931 . S
C610 O624 1.256 . S
C610 O625 1.257 . S
C611 O626 1.240 . S
C611 O627 1.240 . S
C612 Gd601 2.818 . S
C612 C613 1.510 . S
C612 O628 1.249 . S
C612 O629 1.252 . S
C613 C612 1.510 . S
C613 C614 1.404 . S
C613 C615 1.352 . S
C614 C613 1.404 . S
C614 C618 1.389 . S
C614 H636 0.930 . S
C615 C613 1.352 . S
C615 C617 1.374 . S
C615 H637 0.931 . S
C616 C617 1.359 . S
C616 C618 1.364 . S
C617 C615 1.374 . S
C617 C616 1.359 . S
C617 H638 0.931 . S
C618 C614 1.389 . S
C618 C616 1.364 . S
C618 H639 0.931 . S
C619 O630 1.256 . S
C619 O631 1.257 . S
O620 Gd600 2.377 1_556 S
O620 C602 1.240 . S
O621 Gd601 2.395 . S
O621 C602 1.240 1_455 S
O622 Gd600 2.448 . S
O622 C603 1.249 . S
O623 Gd600 2.506 . S
O623 C603 1.252 . S
O624 Gd600 2.435 1_556 S
O624 C610 1.256 . S
O625 Gd600 2.717 1_556 S
O625 Gd601 2.327 1_655 S
O625 C610 1.257 . S
O626 Gd601 2.377 1_554 S
O626 C611 1.240 . S
O627 Gd600 2.395 1_455 S
O627 C611 1.240 . S
O628 Gd601 2.448 . S
O628 C612 1.249 . S
O629 Gd601 2.506 . S
O629 C612 1.252 . S
O630 Gd601 2.435 1_554 S
O630 C619 1.256 . S
O631 Gd600 2.327 1_455 S
O631 Gd601 2.717 1_554 S
O631 C619 1.257 . S
H632 C605 0.930 . S
H633 C606 0.931 . S
H634 C608 0.931 . S
H635 C609 0.931 . S
H636 C614 0.930 . S
H637 C615 0.931 . S
H638 C617 0.931 . S
H639 C618 0.931 . S
C640 C641 1.349 . S
C640 C642 1.327 . S
C640 H665 0.950 . S
C641 C640 1.349 . S
C641 C657 1.349 . S
C642 C640 1.327 . S
C642 C661 1.429 . S
C642 H666 0.950 . S
C643 C660 1.574 . S
C643 C662 1.368 . S
C643 H667 0.949 . S
H644 C648 0.949 . S
C645 C646 1.349 . S
C645 C647 1.327 . S
C645 H668 0.950 . S
C646 C645 1.349 . S
C646 C658 1.349 . S
C647 C645 1.327 . S
C647 C663 1.429 . S
C647 H669 0.950 . S
C648 H644 0.949 . S
C648 C656 1.574 . S
C648 C664 1.368 . S
H649 C657 0.950 . S
H650 C655 0.950 . S
H651 C656 0.949 . S
H652 C658 0.950 . S
H653 C659 0.950 . S
H654 C660 0.949 . S
C655 H650 0.950 . S
C655 C657 1.327 . S
C655 C661 1.429 . S
C656 C648 1.574 . S
C656 H651 0.949 . S
C656 C662 1.368 . S
C657 C641 1.349 . S
C657 H649 0.950 . S
C657 C655 1.327 . S
C658 C646 1.349 . S
C658 H652 0.950 . S
C658 C659 1.327 . S
C659 H653 0.950 . S
C659 C658 1.327 . S
C659 C663 1.429 . S
C660 C643 1.574 . S
C660 H654 0.949 . S
C660 C664 1.368 . S
C661 C642 1.429 . S
C661 C655 1.429 . S
C661 C662 1.523 . S
C662 C643 1.368 . S
C662 C656 1.368 . S
C662 C661 1.523 . S
C663 C647 1.429 . S
C663 C659 1.429 . S
C663 C664 1.523 . S
C664 C648 1.368 . S
C664 C660 1.368 . S
C664 C663 1.523 . S
H665 C640 0.950 . S
H666 C642 0.950 . S
H667 C643 0.949 . S
H668 C645 0.950 . S
H669 C647 0.950 . S
C670 C671 1.349 . S
C670 C672 1.327 . S
C670 H695 0.950 1_565 S
C671 C670 1.349 . S
C671 C687 1.349 . S
C672 C670 1.327 . S
C672 C691 1.429 . S
C672 H696 0.950 . S
C673 C690 1.574 . S
C673 C692 1.368 . S
C673 H697 0.949 . S
H674 C678 0.949 . S
C675 C676 1.349 . S
C675 C677 1.327 . S
C675 H698 0.950 . S
C676 C675 1.349 . S
C676 C688 1.349 . S
C677 C675 1.327 . S
C677 C693 1.429 . S
C677 H699 0.950 . S
C678 H674 0.949 . S
C678 C686 1.574 . S
C678 C694 1.368 . S
H679 C687 0.950 . S
H680 C685 0.950 . S
H681 C686 0.949 . S
H682 C688 0.950 . S
H683 C689 0.950 . S
H684 C690 0.949 . S
C685 H680 0.950 . S
C685 C687 1.327 . S
C685 C691 1.429 . S
C686 C678 1.574 . S
C686 H681 0.949 . S
C686 C692 1.368 . S
C687 C671 1.349 . S
C687 H679 0.950 . S
C687 C685 1.327 . S
C688 C676 1.349 . S
C688 H682 0.950 . S
C688 C689 1.327 . S
C689 H683 0.950 . S
C689 C688 1.327 . S
C689 C693 1.429 . S
C690 C673 1.574 . S
C690 H684 0.949 . S
C690 C694 1.368 . S
C691 C672 1.429 . S
C691 C685 1.429 . S
C691 C692 1.523 . S
C692 C673 1.368 . S
C692 C686 1.368 . S
C692 C691 1.523 . S
C693 C677 1.429 . S
C693 C689 1.429 . S
C693 C694 1.523 . S
C694 C678 1.368 . S
C694 C690 1.368 . S
C694 C693 1.523 . S
H695 C670 0.950 1_545 S
H696 C672 0.950 . S
H697 C673 0.949 . S
H698 C675 0.950 . S
H699 C677 0.950 . S
C700 C701 1.349 . S
C700 C702 1.327 . S
C700 H725 0.950 . S
C701 C700 1.349 . S
C701 C717 1.349 . S
C702 C700 1.327 . S
C702 C721 1.429 . S
C702 H726 0.950 . S
C703 C720 1.574 . S
C703 C722 1.368 . S
C703 H727 0.949 . S
H704 C708 0.949 . S
C705 C706 1.349 . S
C705 C707 1.327 . S
C705 H728 0.950 . S
C706 C705 1.349 . S
C706 C718 1.349 . S
C707 C705 1.327 . S
C707 C723 1.429 . S
C707 H729 0.950 . S
C708 H704 0.949 . S
C708 C716 1.574 . S
C708 C724 1.368 . S
H709 C717 0.950 . S
H710 C715 0.950 . S
H711 C716 0.949 . S
H712 C718 0.950 . S
H713 C719 0.950 . S
H714 C720 0.949 . S
C715 H710 0.950 . S
C715 C717 1.327 . S
C715 C721 1.429 . S
C716 C708 1.574 . S
C716 H711 0.949 . S
C716 C722 1.368 . S
C717 C701 1.349 . S
C717 H709 0.950 . S
C717 C715 1.327 . S
C718 C706 1.349 . S
C718 H712 0.950 . S
C718 C719 1.327 . S
C719 H713 0.950 . S
C719 C718 1.327 . S
C719 C723 1.429 . S
C720 C703 1.574 . S
C720 H714 0.949 . S
C720 C724 1.368 . S
C721 C702 1.429 . S
C721 C715 1.429 . S
C721 C722 1.523 . S
C722 C703 1.368 . S
C722 C716 1.368 . S
C722 C721 1.523 . S
C723 C707 1.429 . S
C723 C719 1.429 . S
C723 C724 1.523 . S
C724 C708 1.368 . S
C724 C720 1.368 . S
C724 C723 1.523 . S
H725 C700 0.950 . S
H726 C702 0.950 . S
H727 C703 0.949 . S
H728 C705 0.950 . S
H729 C707 0.950 . S
C730 C731 1.349 . S
C730 C732 1.327 . S
C730 H755 0.950 . S
C731 C730 1.349 . S
C731 C747 1.349 . S
C732 C730 1.327 . S
C732 C751 1.429 . S
C732 H756 0.950 . S
C733 C750 1.574 . S
C733 C752 1.368 . S
C733 H757 0.949 . S
H734 C738 0.949 . S
C735 C736 1.349 . S
C735 C737 1.327 . S
C735 H758 0.950 . S
C736 C735 1.349 . S
C736 C748 1.349 . S
C737 C735 1.327 . S
C737 C753 1.429 . S
C737 H759 0.950 . S
C738 H734 0.949 . S
C738 C746 1.574 . S
C738 C754 1.368 . S
H739 C747 0.950 . S
H740 C745 0.950 . S
H741 C746 0.949 . S
H742 C748 0.950 . S
H743 C749 0.950 . S
H744 C750 0.949 . S
C745 H740 0.950 . S
C745 C747 1.327 . S
C745 C751 1.429 . S
C746 C738 1.574 . S
C746 H741 0.949 . S
C746 C752 1.368 . S
C747 C731 1.349 . S
C747 H739 0.950 . S
C747 C745 1.327 . S
C748 C736 1.349 . S
C748 H742 0.950 . S
C748 C749 1.327 . S
C749 H743 0.950 . S
C749 C748 1.327 . S
C749 C753 1.429 . S
C750 C733 1.574 . S
C750 H744 0.949 . S
C750 C754 1.368 . S
C751 C732 1.429 . S
C751 C745 1.429 . S
C751 C752 1.523 . S
C752 C733 1.368 . S
C752 C746 1.368 . S
C752 C751 1.523 . S
C753 C737 1.429 . S
C753 C749 1.429 . S
C753 C754 1.523 . S
C754 C738 1.368 . S
C754 C750 1.368 . S
C754 C753 1.523 . S
H755 C730 0.950 . S
H756 C732 0.950 . S
H757 C733 0.949 . S
H758 C735 0.950 . S
H759 C737 0.950 . S
C760 C761 1.349 . S
C760 C762 1.327 . S
C760 H785 0.950 . S
C761 C760 1.349 . S
C761 C777 1.349 . S
C762 C760 1.327 . S
C762 C781 1.429 . S
C762 H786 0.950 . S
C763 C780 1.574 . S
C763 C782 1.368 . S
C763 H787 0.949 . S
H764 C768 0.949 . S
C765 C766 1.349 . S
C765 C767 1.327 . S
C765 H788 0.950 . S
C766 C765 1.349 . S
C766 C778 1.349 . S
C767 C765 1.327 . S
C767 C783 1.429 . S
C767 H789 0.950 . S
C768 H764 0.949 . S
C768 C776 1.574 . S
C768 C784 1.368 . S
H769 C777 0.950 . S
H770 C775 0.950 . S
H771 C776 0.949 . S
H772 C778 0.950 . S
H773 C779 0.950 . S
H774 C780 0.949 . S
C775 H770 0.950 . S
C775 C777 1.327 . S
C775 C781 1.429 . S
C776 C768 1.574 . S
C776 H771 0.949 . S
C776 C782 1.368 . S
C777 C761 1.349 . S
C777 H769 0.950 . S
C777 C775 1.327 . S
C778 C766 1.349 . S
C778 H772 0.950 . S
C778 C779 1.327 . S
C779 H773 0.950 . S
C779 C778 1.327 . S
C779 C783 1.429 . S
C780 C763 1.574 . S
C780 H774 0.949 . S
C780 C784 1.368 . S
C781 C762 1.429 . S
C781 C775 1.429 . S
C781 C782 1.523 . S
C782 C763 1.368 . S
C782 C776 1.368 . S
C782 C781 1.523 . S
C783 C767 1.429 . S
C783 C779 1.429 . S
C783 C784 1.523 . S
C784 C768 1.368 . S
C784 C780 1.368 . S
C784 C783 1.523 . S
H785 C760 0.950 . S
H786 C762 0.950 . S
H787 C763 0.949 . S
H788 C765 0.950 . S
H789 C767 0.950 . S
C790 C791 1.349 . S
C790 C792 1.327 . S
C790 H815 0.950 . S
C791 C790 1.349 . S
C791 C807 1.349 . S
C792 C790 1.327 . S
C792 C811 1.429 . S
C792 H816 0.950 . S
C793 C810 1.574 . S
C793 C812 1.368 . S
C793 H817 0.949 . S
H794 C798 0.949 . S
C795 C796 1.349 . S
C795 C797 1.327 . S
C795 H818 0.968 . S
C796 C795 1.349 . S
C796 C808 1.349 . S
C797 C795 1.327 . S
C797 C813 1.429 . S
C797 H819 0.950 . S
C798 H794 0.949 . S
C798 C806 1.574 . S
C798 C814 1.368 . S
H799 C807 0.950 . S
H800 C805 0.950 . S
H801 C806 0.949 . S
H802 C808 0.950 1_545 S
H803 C809 0.950 . S
H804 C810 0.949 . S
C805 H800 0.950 . S
C805 C807 1.327 . S
C805 C811 1.429 . S
C806 C798 1.574 . S
C806 H801 0.949 . S
C806 C812 1.368 . S
C807 C791 1.349 . S
C807 H799 0.950 . S
C807 C805 1.327 . S
C808 C796 1.349 . S
C808 H802 0.950 1_565 S
C808 C809 1.327 . S
C809 H803 0.950 . S
C809 C808 1.327 . S
C809 C813 1.429 . S
C810 C793 1.574 . S
C810 H804 0.949 . S
C810 C814 1.368 . S
C811 C792 1.429 . S
C811 C805 1.429 . S
C811 C812 1.523 . S
C812 C793 1.368 . S
C812 C806 1.368 . S
C812 C811 1.523 . S
C813 C797 1.429 . S
C813 C809 1.429 . S
C813 C814 1.523 . S
C814 C798 1.368 . S
C814 C810 1.368 . S
C814 C813 1.523 . S
H815 C790 0.950 . S
H816 C792 0.950 . S
H817 C793 0.949 . S
H818 C795 0.968 . S
H819 C797 0.950 . S
C820 C821 1.349 . S
C820 C822 1.327 . S
C820 H845 0.950 . S
C821 C820 1.349 . S
C821 C837 1.349 . S
C822 C820 1.327 . S
C822 C841 1.429 . S
C822 H846 0.950 . S
C823 C840 1.574 . S
C823 C842 1.368 . S
C823 H847 0.949 . S
H824 C828 0.949 . S
C825 C826 1.349 . S
C825 C827 1.327 . S
C825 H848 0.950 . S
C826 C825 1.349 . S
C826 C838 1.349 . S
C827 C825 1.327 . S
C827 C843 1.429 . S
C827 H849 0.950 . S
C828 H824 0.949 . S
C828 C836 1.574 . S
C828 C844 1.368 . S
H829 C837 0.950 . S
H830 C835 0.950 . S
H831 C836 0.949 . S
H832 C838 0.950 . S
H833 C839 0.950 . S
H834 C840 0.949 . S
C835 H830 0.950 . S
C835 C837 1.327 . S
C835 C841 1.429 . S
C836 C828 1.574 . S
C836 H831 0.949 . S
C836 C842 1.368 . S
C837 C821 1.349 . S
C837 H829 0.950 . S
C837 C835 1.327 . S
C838 C826 1.349 . S
C838 H832 0.950 . S
C838 C839 1.327 . S
C839 H833 0.950 . S
C839 C838 1.327 . S
C839 C843 1.429 . S
C840 C823 1.574 . S
C840 H834 0.949 . S
C840 C844 1.368 . S
C841 C822 1.429 . S
C841 C835 1.429 . S
C841 C842 1.523 . S
C842 C823 1.368 . S
C842 C836 1.368 . S
C842 C841 1.523 . S
C843 C827 1.429 . S
C843 C839 1.429 . S
C843 C844 1.523 . S
C844 C828 1.368 . S
C844 C840 1.368 . S
C844 C843 1.523 . S
H845 C820 0.950 . S
H846 C822 0.950 . S
H847 C823 0.949 . S
H848 C825 0.950 . S
H849 C827 0.950 . S
C850 C851 1.349 . S
C850 C852 1.327 . S
C850 H875 0.950 . S
C851 C850 1.349 . S
C851 C867 1.349 . S
C852 C850 1.327 . S
C852 C871 1.429 . S
C852 H876 0.950 . S
C853 C870 1.574 . S
C853 C872 1.368 . S
C853 H877 0.949 . S
H854 C858 0.949 . S
C855 C856 1.349 . S
C855 C857 1.327 . S
C855 H878 0.950 . S
C856 C855 1.349 . S
C856 C868 1.349 . S
C857 C855 1.327 . S
C857 C873 1.429 . S
C857 H879 0.950 . S
C858 H854 0.949 . S
C858 C866 1.574 . S
C858 C874 1.368 . S
H859 C867 0.950 . S
H860 C865 0.950 . S
H861 C866 0.949 . S
H862 C868 0.950 . S
H863 C869 0.950 . S
H864 C870 0.949 . S
C865 H860 0.950 . S
C865 C867 1.327 . S
C865 C871 1.429 . S
C866 C858 1.574 . S
C866 H861 0.949 . S
C866 C872 1.368 . S
C867 C851 1.349 . S
C867 H859 0.950 . S
C867 C865 1.327 . S
C868 C856 1.349 . S
C868 H862 0.950 . S
C868 C869 1.327 . S
C869 H863 0.950 . S
C869 C868 1.327 . S
C869 C873 1.429 . S
C870 C853 1.574 . S
C870 H864 0.949 . S
C870 C874 1.368 . S
C871 C852 1.429 . S
C871 C865 1.429 . S
C871 C872 1.523 . S
C872 C853 1.368 . S
C872 C866 1.368 . S
C872 C871 1.523 . S
C873 C857 1.429 . S
C873 C869 1.429 . S
C873 C874 1.523 . S
C874 C858 1.368 . S
C874 C870 1.368 . S
C874 C873 1.523 . S
H875 C850 0.950 . S
H876 C852 0.950 . S
H877 C853 0.949 . S
H878 C855 0.950 . S
H879 C857 0.950 . S
C880 C881 1.349 . S
C880 C882 1.327 . S
C880 H905 0.950 . S
C881 C880 1.349 . S
C881 C897 1.349 . S
C882 C880 1.327 . S
C882 C901 1.429 . S
C882 H906 0.950 . S
C883 C900 1.574 . S
C883 C902 1.368 . S
C883 H907 0.949 . S
H884 C888 0.949 . S
C885 C886 1.349 . S
C885 C887 1.327 . S
C885 H908 0.950 . S
C886 C885 1.349 . S
C886 C898 1.349 . S
C887 C885 1.327 . S
C887 C903 1.429 . S
C887 H909 0.950 . S
C888 H884 0.949 . S
C888 C896 1.574 . S
C888 C904 1.368 . S
H889 C897 0.950 . S
H890 C895 0.950 . S
H891 C896 0.949 . S
H892 C898 0.950 1_455 S
H893 C899 0.950 . S
H894 C900 0.949 . S
C895 H890 0.950 . S
C895 C897 1.327 . S
C895 C901 1.429 . S
C896 C888 1.574 . S
C896 H891 0.949 . S
C896 C902 1.368 . S
C897 C881 1.349 . S
C897 H889 0.950 . S
C897 C895 1.327 . S
C898 C886 1.349 . S
C898 H892 0.950 1_655 S
C898 C899 1.327 . S
C899 H893 0.950 . S
C899 C898 1.327 . S
C899 C903 1.429 . S
C900 C883 1.574 . S
C900 H894 0.949 . S
C900 C904 1.368 . S
C901 C882 1.429 . S
C901 C895 1.429 . S
C901 C902 1.523 . S
C902 C883 1.368 . S
C902 C896 1.368 . S
C902 C901 1.523 . S
C903 C887 1.429 . S
C903 C899 1.429 . S
C903 C904 1.523 . S
C904 C888 1.368 . S
C904 C900 1.368 . S
C904 C903 1.523 . S
H905 C880 0.950 . S
H906 C882 0.950 . S
H907 C883 0.949 . S
H908 C885 0.950 . S
H909 C887 0.950 . S
C910 C911 1.349 . S
C910 C912 1.327 . S
C910 H935 0.950 . S
C911 C910 1.349 . S
C911 C927 1.349 . S
C912 C910 1.327 . S
C912 C931 1.429 . S
C912 H936 0.950 . S
C913 C930 1.574 . S
C913 C932 1.368 . S
C913 H937 0.949 . S
H914 C918 0.949 . S
C915 C916 1.349 . S
C915 C917 1.327 . S
C915 H938 0.950 . S
C916 C915 1.349 . S
C916 C928 1.349 . S
C917 C915 1.327 . S
C917 C933 1.429 . S
C917 H939 0.950 . S
C918 H914 0.949 . S
C918 C926 1.574 . S
C918 C934 1.368 . S
H919 C927 0.950 . S
H920 C925 0.950 . S
H921 C926 0.949 . S
H922 C928 0.950 . S
H923 C929 0.950 . S
H924 C930 0.949 . S
C925 H920 0.950 . S
C925 C927 1.327 . S
C925 C931 1.429 . S
C926 C918 1.574 . S
C926 H921 0.949 . S
C926 C932 1.368 . S
C927 C911 1.349 . S
C927 H919 0.950 . S
C927 C925 1.327 . S
C928 C916 1.349 . S
C928 H922 0.950 . S
C928 C929 1.327 . S
C929 H923 0.950 . S
C929 C928 1.327 . S
C929 C933 1.429 . S
C930 C913 1.574 . S
C930 H924 0.949 . S
C930 C934 1.368 . S
C931 C912 1.429 . S
C931 C925 1.429 . S
C931 C932 1.523 . S
C932 C913 1.368 . S
C932 C926 1.368 . S
C932 C931 1.523 . S
C933 C917 1.429 . S
C933 C929 1.429 . S
C933 C934 1.523 . S
C934 C918 1.368 . S
C934 C930 1.368 . S
C934 C933 1.523 . S
H935 C910 0.950 . S
H936 C912 0.950 . S
H937 C913 0.949 . S
H938 C915 0.950 . S
H939 C917 0.950 . S
C940 C941 1.349 . S
C940 C942 1.327 . S
C940 H965 0.950 . S
C941 C940 1.349 . S
C941 C957 1.349 . S
C942 C940 1.327 . S
C942 C961 1.429 . S
C942 H966 0.950 . S
C943 C960 1.574 . S
C943 C962 1.368 . S
C943 H967 0.949 . S
H944 C948 0.949 . S
C945 C946 1.349 . S
C945 C947 1.327 . S
C945 H968 0.950 . S
C946 C945 1.349 . S
C946 C958 1.349 . S
C947 C945 1.327 . S
C947 C963 1.429 . S
C947 H969 0.950 . S
C948 H944 0.949 . S
C948 C956 1.574 . S
C948 C964 1.368 . S
H949 C957 0.950 . S
H950 C955 0.950 . S
H951 C956 0.949 . S
H952 C958 0.950 . S
H953 C959 0.950 . S
H954 C960 0.949 . S
C955 H950 0.950 . S
C955 C957 1.327 . S
C955 C961 1.429 . S
C956 C948 1.574 . S
C956 H951 0.949 . S
C956 C962 1.368 . S
C957 C941 1.349 . S
C957 H949 0.950 . S
C957 C955 1.327 . S
C958 C946 1.349 . S
C958 H952 0.950 . S
C958 C959 1.327 . S
C959 H953 0.950 . S
C959 C958 1.327 . S
C959 C963 1.429 . S
C960 C943 1.574 . S
C960 H954 0.949 . S
C960 C964 1.368 . S
C961 C942 1.429 . S
C961 C955 1.429 . S
C961 C962 1.523 . S
C962 C943 1.368 . S
C962 C956 1.368 . S
C962 C961 1.523 . S
C963 C947 1.429 . S
C963 C959 1.429 . S
C963 C964 1.523 . S
C964 C948 1.368 . S
C964 C960 1.368 . S
C964 C963 1.523 . S
H965 C940 0.950 . S
H966 C942 0.950 . S
H967 C943 0.949 . S
H968 C945 0.950 . S
H969 C947 0.950 . S
C970 C971 1.349 . S
C970 C972 1.327 . S
C970 H995 0.950 . S
C971 C970 1.349 . S
C971 C987 1.349 . S
C972 C970 1.327 . S
C972 C991 1.429 . S
C972 H996 0.950 . S
C973 C990 1.574 . S
C973 C992 1.368 . S
C973 H997 0.949 . S
H974 C978 0.949 . S
C975 C976 1.349 . S
C975 C977 1.327 . S
C975 H998 0.950 . S
C976 C975 1.349 . S
C976 C988 1.349 . S
C977 C975 1.327 . S
C977 C993 1.429 . S
C977 H999 0.950 . S
C978 H974 0.949 . S
C978 C986 1.574 . S
C978 C994 1.368 . S
H979 C987 0.950 1_554 S
H980 C985 0.950 . S
H981 C986 0.949 . S
H982 C988 0.950 . S
H983 C989 0.950 . S
H984 C990 0.949 . S
C985 H980 0.950 . S
C985 C987 1.327 . S
C985 C991 1.429 . S
C986 C978 1.574 . S
C986 H981 0.949 . S
C986 C992 1.368 . S
C987 C971 1.349 . S
C987 H979 0.950 1_556 S
C987 C985 1.327 . S
C988 C976 1.349 . S
C988 H982 0.950 . S
C988 C989 1.327 . S
C989 H983 0.950 . S
C989 C988 1.327 . S
C989 C993 1.429 . S
C990 C973 1.574 . S
C990 H984 0.949 . S
C990 C994 1.368 . S
C991 C972 1.429 . S
C991 C985 1.429 . S
C991 C992 1.523 . S
C992 C973 1.368 . S
C992 C986 1.368 . S
C992 C991 1.523 . S
C993 C977 1.429 . S
C993 C989 1.429 . S
C993 C994 1.523 . S
C994 C978 1.368 . S
C994 C990 1.368 . S
C994 C993 1.523 . S
H995 C970 0.950 . S
H996 C972 0.950 . S
H997 C973 0.949 . S
H998 C975 0.950 . S
H999 C977 0.950 . S
C1000 C1001 1.349 . S
C1000 C1002 1.327 . S
C1000 H1025 0.950 . S
C1001 C1000 1.349 . S
C1001 C1017 1.349 . S
C1002 C1000 1.327 . S
C1002 C1021 1.429 . S
C1002 H1026 0.950 . S
C1003 C1020 1.574 . S
C1003 C1022 1.368 . S
C1003 H1027 0.949 . S
H1004 C1008 0.949 . S
C1005 C1006 1.349 . S
C1005 C1007 1.327 . S
C1005 H1028 0.950 1_565 S
C1006 C1005 1.349 . S
C1006 C1018 1.349 . S
C1007 C1005 1.327 . S
C1007 C1023 1.429 . S
C1007 H1029 0.950 . S
C1008 H1004 0.949 . S
C1008 C1016 1.574 . S
C1008 C1024 1.368 . S
H1009 C1017 0.950 . S
H1010 C1015 0.950 . S
H1011 C1016 0.949 . S
H1012 C1018 0.950 . S
H1013 C1019 0.950 . S
H1014 C1020 0.949 . S
C1015 H1010 0.950 . S
C1015 C1017 1.327 . S
C1015 C1021 1.429 . S
C1016 C1008 1.574 . S
C1016 H1011 0.949 . S
C1016 C1022 1.368 . S
C1017 C1001 1.349 . S
C1017 H1009 0.950 . S
C1017 C1015 1.327 . S
C1018 C1006 1.349 . S
C1018 H1012 0.950 . S
C1018 C1019 1.327 . S
C1019 H1013 0.950 . S
C1019 C1018 1.327 . S
C1019 C1023 1.429 . S
C1020 C1003 1.574 . S
C1020 H1014 0.949 . S
C1020 C1024 1.368 . S
C1021 C1002 1.429 . S
C1021 C1015 1.429 . S
C1021 C1022 1.523 . S
C1022 C1003 1.368 . S
C1022 C1016 1.368 . S
C1022 C1021 1.523 . S
C1023 C1007 1.429 . S
C1023 C1019 1.429 . S
C1023 C1024 1.523 . S
C1024 C1008 1.368 . S
C1024 C1020 1.368 . S
C1024 C1023 1.523 . S
H1025 C1000 0.950 . S
H1026 C1002 0.950 . S
H1027 C1003 0.949 . S
H1028 C1005 0.950 1_545 S
H1029 C1007 0.950 . S
C1030 C1031 1.349 . S
C1030 C1032 1.327 . S
C1030 H1055 0.950 . S
C1031 C1030 1.349 . S
C1031 C1047 1.349 . S
C1032 C1030 1.327 . S
C1032 C1051 1.429 . S
C1032 H1056 0.950 . S
C1033 C1050 1.574 . S
C1033 C1052 1.368 . S
C1033 H1057 0.949 . S
H1034 C1038 0.949 . S
C1035 C1036 1.349 . S
C1035 C1037 1.327 . S
C1035 H1058 0.950 . S
C1036 C1035 1.349 . S
C1036 C1048 1.349 . S
C1037 C1035 1.327 . S
C1037 C1053 1.429 . S
C1037 H1059 0.950 . S
C1038 H1034 0.949 . S
C1038 C1046 1.574 . S
C1038 C1054 1.368 . S
H1039 C1047 0.950 . S
H1040 C1045 0.950 . S
H1041 C1046 0.949 . S
H1042 C1048 0.950 . S
H1043 C1049 0.950 . S
H1044 C1050 0.949 . S
C1045 H1040 0.950 . S
C1045 C1047 1.327 . S
C1045 C1051 1.429 . S
C1046 C1038 1.574 . S
C1046 H1041 0.949 . S
C1046 C1052 1.368 . S
C1047 C1031 1.349 . S
C1047 H1039 0.950 . S
C1047 C1045 1.327 . S
C1048 C1036 1.349 . S
C1048 H1042 0.950 . S
C1048 C1049 1.327 . S
C1049 H1043 0.950 . S
C1049 C1048 1.327 . S
C1049 C1053 1.429 . S
C1050 C1033 1.574 . S
C1050 H1044 0.949 . S
C1050 C1054 1.368 . S
C1051 C1032 1.429 . S
C1051 C1045 1.429 . S
C1051 C1052 1.523 . S
C1052 C1033 1.368 . S
C1052 C1046 1.368 . S
C1052 C1051 1.523 . S
C1053 C1037 1.429 . S
C1053 C1049 1.429 . S
C1053 C1054 1.523 . S
C1054 C1038 1.368 . S
C1054 C1050 1.368 . S
C1054 C1053 1.523 . S
H1055 C1030 0.950 . S
H1056 C1032 0.950 . S
H1057 C1033 0.949 . S
H1058 C1035 0.950 . S
H1059 C1037 0.950 . S
C1060 C1061 1.349 . S
C1060 C1062 1.327 . S
C1060 H1085 0.950 . S
C1061 C1060 1.349 . S
C1061 C1077 1.349 . S
C1062 C1060 1.327 . S
C1062 C1081 1.429 . S
C1062 H1086 0.950 . S
C1063 C1080 1.574 . S
C1063 C1082 1.368 . S
C1063 H1087 0.949 . S
H1064 C1068 0.949 . S
C1065 C1066 1.349 . S
C1065 C1067 1.327 . S
C1065 H1088 0.950 . S
C1066 C1065 1.349 . S
C1066 C1078 1.349 . S
C1067 C1065 1.327 . S
C1067 C1083 1.429 . S
C1067 H1089 0.950 . S
C1068 H1064 0.949 . S
C1068 C1076 1.574 . S
C1068 C1084 1.368 . S
H1069 C1077 0.950 . S
H1070 C1075 0.950 . S
H1071 C1076 0.949 . S
H1072 C1078 0.950 . S
H1073 C1079 0.950 . S
H1074 C1080 0.949 . S
C1075 H1070 0.950 . S
C1075 C1077 1.327 . S
C1075 C1081 1.429 . S
C1076 C1068 1.574 . S
C1076 H1071 0.949 . S
C1076 C1082 1.368 . S
C1077 C1061 1.349 . S
C1077 H1069 0.950 . S
C1077 C1075 1.327 . S
C1078 C1066 1.349 . S
C1078 H1072 0.950 . S
C1078 C1079 1.327 . S
C1079 H1073 0.950 . S
C1079 C1078 1.327 . S
C1079 C1083 1.429 . S
C1080 C1063 1.574 . S
C1080 H1074 0.949 . S
C1080 C1084 1.368 . S
C1081 C1062 1.429 . S
C1081 C1075 1.429 . S
C1081 C1082 1.523 . S
C1082 C1063 1.368 . S
C1082 C1076 1.368 . S
C1082 C1081 1.523 . S
C1083 C1067 1.429 . S
C1083 C1079 1.429 . S
C1083 C1084 1.523 . S
C1084 C1068 1.368 . S
C1084 C1080 1.368 . S
C1084 C1083 1.523 . S
H1085 C1060 0.950 . S
H1086 C1062 0.950 . S
H1087 C1063 0.949 . S
H1088 C1065 0.950 . S
H1089 C1067 0.950 . S
C1090 C1091 1.349 . S
C1090 C1092 1.327 . S
C1090 H1115 0.950 . S
C1091 C1090 1.349 . S
C1091 C1107 1.349 . S
C1092 C1090 1.327 . S
C1092 C1111 1.429 . S
C1092 H1116 0.950 . S
C1093 C1110 1.574 . S
C1093 C1112 1.368 . S
C1093 H1117 0.949 . S
H1094 C1098 0.949 . S
C1095 C1096 1.349 . S
C1095 C1097 1.327 . S
C1095 H1118 0.950 . S
C1096 C1095 1.349 . S
C1096 C1108 1.349 . S
C1097 C1095 1.327 . S
C1097 C1113 1.429 . S
C1097 H1119 0.950 . S
C1098 H1094 0.949 . S
C1098 C1106 1.574 . S
C1098 C1114 1.368 . S
H1099 C1107 0.950 . S
H1100 C1105 0.950 . S
H1101 C1106 0.949 . S
H1102 C1108 0.950 . S
H1103 C1109 0.950 . S
H1104 C1110 0.949 . S
C1105 H1100 0.950 . S
C1105 C1107 1.327 . S
C1105 C1111 1.429 . S
C1106 C1098 1.574 . S
C1106 H1101 0.949 . S
C1106 C1112 1.368 . S
C1107 C1091 1.349 . S
C1107 H1099 0.950 . S
C1107 C1105 1.327 . S
C1108 C1096 1.349 . S
C1108 H1102 0.950 . S
C1108 C1109 1.327 . S
C1109 H1103 0.950 . S
C1109 C1108 1.327 . S
C1109 C1113 1.429 . S
C1110 C1093 1.574 . S
C1110 H1104 0.949 . S
C1110 C1114 1.368 . S
C1111 C1092 1.429 . S
C1111 C1105 1.429 . S
C1111 C1112 1.523 . S
C1112 C1093 1.368 . S
C1112 C1106 1.368 . S
C1112 C1111 1.523 . S
C1113 C1097 1.429 . S
C1113 C1109 1.429 . S
C1113 C1114 1.523 . S
C1114 C1098 1.368 . S
C1114 C1110 1.368 . S
C1114 C1113 1.523 . S
H1115 C1090 0.950 . S
H1116 C1092 0.950 . S
H1117 C1093 0.949 . S
H1118 C1095 0.950 . S
H1119 C1097 0.950 . S
C1120 C1121 1.349 . S
C1120 C1122 1.327 . S
C1120 H1145 0.950 . S
C1121 C1120 1.349 . S
C1121 C1137 1.349 . S
C1122 C1120 1.327 . S
C1122 C1141 1.429 . S
C1122 H1146 0.950 . S
C1123 C1140 1.574 . S
C1123 C1142 1.368 . S
C1123 H1147 0.949 . S
H1124 C1128 0.949 . S
C1125 C1126 1.349 . S
C1125 C1127 1.327 . S
C1125 H1148 0.950 . S
C1126 C1125 1.349 . S
C1126 C1138 1.349 . S
C1127 C1125 1.327 . S
C1127 C1143 1.429 . S
C1127 H1149 0.950 . S
C1128 H1124 0.949 . S
C1128 C1136 1.574 . S
C1128 C1144 1.368 . S
H1129 C1137 0.950 . S
H1130 C1135 0.950 . S
H1131 C1136 0.949 . S
H1132 C1138 0.950 . S
H1133 C1139 0.950 . S
H1134 C1140 0.949 . S
C1135 H1130 0.950 . S
C1135 C1137 1.327 . S
C1135 C1141 1.429 . S
C1136 C1128 1.574 . S
C1136 H1131 0.949 . S
C1136 C1142 1.368 . S
C1137 C1121 1.349 . S
C1137 H1129 0.950 . S
C1137 C1135 1.327 . S
C1138 C1126 1.349 . S
C1138 H1132 0.950 . S
C1138 C1139 1.327 . S
C1139 H1133 0.950 . S
C1139 C1138 1.327 . S
C1139 C1143 1.429 . S
C1140 C1123 1.574 . S
C1140 H1134 0.949 . S
C1140 C1144 1.368 . S
C1141 C1122 1.429 . S
C1141 C1135 1.429 . S
C1141 C1142 1.523 . S
C1142 C1123 1.368 . S
C1142 C1136 1.368 . S
C1142 C1141 1.523 . S
C1143 C1127 1.429 . S
C1143 C1139 1.429 . S
C1143 C1144 1.523 . S
C1144 C1128 1.368 . S
C1144 C1140 1.368 . S
C1144 C1143 1.523 . S
H1145 C1120 0.950 . S
H1146 C1122 0.950 . S
H1147 C1123 0.949 . S
H1148 C1125 0.950 . S
H1149 C1127 0.950 . S
C1150 C1151 1.349 . S
C1150 C1152 1.327 . S
C1150 H1175 0.950 . S
C1151 C1150 1.349 . S
C1151 C1167 1.349 . S
C1152 C1150 1.327 . S
C1152 C1171 1.429 . S
C1152 H1176 0.950 . S
C1153 C1170 1.574 . S
C1153 C1172 1.368 . S
C1153 H1177 0.949 . S
H1154 C1158 0.949 . S
C1155 C1156 1.349 . S
C1155 C1157 1.327 . S
C1155 H1178 0.950 . S
C1156 C1155 1.349 . S
C1156 C1168 1.349 . S
C1157 C1155 1.327 . S
C1157 C1173 1.429 . S
C1157 H1179 0.950 . S
C1158 H1154 0.949 . S
C1158 C1166 1.574 . S
C1158 C1174 1.368 . S
H1159 C1167 0.950 . S
H1160 C1165 0.950 . S
H1161 C1166 0.949 . S
H1162 C1168 0.950 . S
H1163 C1169 0.950 . S
H1164 C1170 0.949 . S
C1165 H1160 0.950 . S
C1165 C1167 1.327 . S
C1165 C1171 1.429 . S
C1166 C1158 1.574 . S
C1166 H1161 0.949 . S
C1166 C1172 1.368 . S
C1167 C1151 1.349 . S
C1167 H1159 0.950 . S
C1167 C1165 1.327 . S
C1168 C1156 1.349 . S
C1168 H1162 0.950 . S
C1168 C1169 1.327 . S
C1169 H1163 0.950 . S
C1169 C1168 1.327 . S
C1169 C1173 1.429 . S
C1170 C1153 1.574 . S
C1170 H1164 0.949 . S
C1170 C1174 1.368 . S
C1171 C1152 1.429 . S
C1171 C1165 1.429 . S
C1171 C1172 1.523 . S
C1172 C1153 1.368 . S
C1172 C1166 1.368 . S
C1172 C1171 1.523 . S
C1173 C1157 1.429 . S
C1173 C1169 1.429 . S
C1173 C1174 1.523 . S
C1174 C1158 1.368 . S
C1174 C1170 1.368 . S
C1174 C1173 1.523 . S
H1175 C1150 0.950 . S
H1176 C1152 0.950 . S
H1177 C1153 0.949 . S
H1178 C1155 0.950 . S
H1179 C1157 0.950 . S
C1180 C1181 1.349 . S
C1180 C1182 1.327 . S
C1180 H1205 0.950 . S
C1181 C1180 1.349 . S
C1181 C1197 1.349 . S
C1182 C1180 1.327 . S
C1182 C1201 1.429 . S
C1182 H1206 0.950 . S
C1183 C1200 1.574 . S
C1183 C1202 1.368 . S
C1183 H1207 0.949 . S
H1184 C1188 0.949 . S
C1185 C1186 1.349 . S
C1185 C1187 1.327 . S
C1185 H1208 0.950 . S
C1186 C1185 1.349 . S
C1186 C1198 1.349 . S
C1187 C1185 1.327 . S
C1187 C1203 1.429 . S
C1187 H1209 0.950 . S
C1188 H1184 0.949 . S
C1188 C1196 1.574 . S
C1188 C1204 1.368 . S
H1189 C1197 0.950 . S
H1190 C1195 0.950 . S
H1191 C1196 0.949 . S
H1192 C1198 0.950 . S
H1193 C1199 0.950 . S
H1194 C1200 0.949 . S
C1195 H1190 0.950 . S
C1195 C1197 1.327 . S
C1195 C1201 1.429 . S
C1196 C1188 1.574 . S
C1196 H1191 0.949 . S
C1196 C1202 1.368 . S
C1197 C1181 1.349 . S
C1197 H1189 0.950 . S
C1197 C1195 1.327 . S
C1198 C1186 1.349 . S
C1198 H1192 0.950 . S
C1198 C1199 1.327 . S
C1199 H1193 0.950 . S
C1199 C1198 1.327 . S
C1199 C1203 1.429 . S
C1200 C1183 1.574 . S
C1200 H1194 0.949 . S
C1200 C1204 1.368 . S
C1201 C1182 1.429 . S
C1201 C1195 1.429 . S
C1201 C1202 1.523 . S
C1202 C1183 1.368 . S
C1202 C1196 1.368 . S
C1202 C1201 1.523 . S
C1203 C1187 1.429 . S
C1203 C1199 1.429 . S
C1203 C1204 1.523 . S
C1204 C1188 1.368 . S
C1204 C1200 1.368 . S
C1204 C1203 1.523 . S
H1205 C1180 0.950 . S
H1206 C1182 0.950 . S
H1207 C1183 0.949 . S
H1208 C1185 0.950 . S
H1209 C1187 0.950 . S
C1210 C1211 1.349 . S
C1210 C1212 1.327 . S
C1210 H1235 0.950 . S
C1211 C1210 1.349 . S
C1211 C1227 1.349 . S
C1212 C1210 1.327 . S
C1212 C1231 1.429 . S
C1212 H1236 0.950 . S
C1213 C1230 1.574 . S
C1213 C1232 1.368 . S
C1213 H1237 0.949 . S
H1214 C1218 0.949 . S
C1215 C1216 1.349 . S
C1215 C1217 1.327 . S
C1215 H1238 0.950 . S
C1216 C1215 1.349 . S
C1216 C1228 1.349 . S
C1217 C1215 1.327 . S
C1217 C1233 1.429 . S
C1217 H1239 0.950 . S
C1218 H1214 0.949 . S
C1218 C1226 1.574 . S
C1218 C1234 1.368 . S
H1219 C1227 0.950 . S
H1220 C1225 0.950 . S
H1221 C1226 0.949 . S
H1222 C1228 0.950 . S
H1223 C1229 0.950 . S
H1224 C1230 0.949 . S
C1225 H1220 0.950 . S
C1225 C1227 1.327 . S
C1225 C1231 1.429 . S
C1226 C1218 1.574 . S
C1226 H1221 0.949 . S
C1226 C1232 1.368 . S
C1227 C1211 1.349 . S
C1227 H1219 0.950 . S
C1227 C1225 1.327 . S
C1228 C1216 1.349 . S
C1228 H1222 0.950 . S
C1228 C1229 1.327 . S
C1229 H1223 0.950 . S
C1229 C1228 1.327 . S
C1229 C1233 1.429 . S
C1230 C1213 1.574 . S
C1230 H1224 0.949 . S
C1230 C1234 1.368 . S
C1231 C1212 1.429 . S
C1231 C1225 1.429 . S
C1231 C1232 1.523 . S
C1232 C1213 1.368 . S
C1232 C1226 1.368 . S
C1232 C1231 1.523 . S
C1233 C1217 1.429 . S
C1233 C1229 1.429 . S
C1233 C1234 1.523 . S
C1234 C1218 1.368 . S
C1234 C1230 1.368 . S
C1234 C1233 1.523 . S
H1235 C1210 0.950 . S
H1236 C1212 0.950 . S
H1237 C1213 0.949 . S
H1238 C1215 0.950 . S
H1239 C1217 0.950 . S
C1240 C1241 1.349 . S
C1240 C1242 1.327 . S
C1240 H1265 0.950 . S
C1241 C1240 1.349 . S
C1241 C1257 1.349 . S
C1242 C1240 1.327 . S
C1242 C1261 1.429 . S
C1242 H1266 0.950 . S
C1243 C1260 1.574 . S
C1243 C1262 1.368 . S
C1243 H1267 0.949 . S
H1244 C1248 0.949 . S
C1245 C1246 1.349 . S
C1245 C1247 1.327 . S
C1245 H1268 0.950 . S
C1246 C1245 1.349 . S
C1246 C1258 1.349 . S
C1247 C1245 1.327 . S
C1247 C1263 1.429 . S
C1247 H1269 0.950 . S
C1248 H1244 0.949 . S
C1248 C1256 1.574 . S
C1248 C1264 1.368 . S
H1249 C1257 0.950 . S
H1250 C1255 0.950 . S
H1251 C1256 0.949 . S
H1252 C1258 0.950 . S
H1253 C1259 0.950 . S
H1254 C1260 0.949 . S
C1255 H1250 0.950 . S
C1255 C1257 1.327 . S
C1255 C1261 1.429 . S
C1256 C1248 1.574 . S
C1256 H1251 0.949 . S
C1256 C1262 1.368 . S
C1257 C1241 1.349 . S
C1257 H1249 0.950 . S
C1257 C1255 1.327 . S
C1258 C1246 1.349 . S
C1258 H1252 0.950 . S
C1258 C1259 1.327 . S
C1259 H1253 0.950 . S
C1259 C1258 1.327 . S
C1259 C1263 1.429 . S
C1260 C1243 1.574 . S
C1260 H1254 0.949 . S
C1260 C1264 1.368 . S
C1261 C1242 1.429 . S
C1261 C1255 1.429 . S
C1261 C1262 1.523 . S
C1262 C1243 1.368 . S
C1262 C1256 1.368 . S
C1262 C1261 1.523 . S
C1263 C1247 1.429 . S
C1263 C1259 1.429 . S
C1263 C1264 1.523 . S
C1264 C1248 1.368 . S
C1264 C1260 1.368 . S
C1264 C1263 1.523 . S
H1265 C1240 0.950 . S
H1266 C1242 0.950 . S
H1267 C1243 0.949 . S
H1268 C1245 0.950 . S
H1269 C1247 0.950 . S
C1270 C1271 1.349 . S
C1270 C1272 1.327 . S
C1270 H1295 0.950 . S
C1271 C1270 1.349 . S
C1271 C1287 1.349 . S
C1272 C1270 1.327 . S
C1272 C1291 1.429 . S
C1272 H1296 0.950 . S
C1273 C1290 1.574 . S
C1273 C1292 1.368 . S
C1273 H1297 0.949 . S
H1274 C1278 0.949 . S
C1275 C1276 1.349 . S
C1275 C1277 1.327 . S
C1275 H1298 0.950 . S
C1276 C1275 1.349 . S
C1276 C1288 1.349 . S
C1277 C1275 1.327 . S
C1277 C1293 1.429 . S
C1277 H1299 0.950 . S
C1278 H1274 0.949 . S
C1278 C1286 1.574 . S
C1278 C1294 1.368 . S
H1279 C1287 0.950 . S
H1280 C1285 0.950 . S
H1281 C1286 0.949 . S
H1282 C1288 0.950 . S
H1283 C1289 0.950 . S
H1284 C1290 0.949 . S
C1285 H1280 0.950 . S
C1285 C1287 1.327 . S
C1285 C1291 1.429 . S
C1286 C1278 1.574 . S
C1286 H1281 0.949 . S
C1286 C1292 1.368 . S
C1287 C1271 1.349 . S
C1287 H1279 0.950 . S
C1287 C1285 1.327 . S
C1288 C1276 1.349 . S
C1288 H1282 0.950 . S
C1288 C1289 1.327 . S
C1289 H1283 0.950 . S
C1289 C1288 1.327 . S
C1289 C1293 1.429 . S
C1290 C1273 1.574 . S
C1290 H1284 0.949 . S
C1290 C1294 1.368 . S
C1291 C1272 1.429 . S
C1291 C1285 1.429 . S
C1291 C1292 1.523 . S
C1292 C1273 1.368 . S
C1292 C1286 1.368 . S
C1292 C1291 1.523 . S
C1293 C1277 1.429 . S
C1293 C1289 1.429 . S
C1293 C1294 1.523 . S
C1294 C1278 1.368 . S
C1294 C1290 1.368 . S
C1294 C1293 1.523 . S
H1295 C1270 0.950 . S
H1296 C1272 0.950 . S
H1297 C1273 0.949 . S
H1298 C1275 0.950 . S
H1299 C1277 0.950 . S
C1300 C1301 1.349 . S
C1300 C1302 1.327 . S
C1300 H1325 0.950 . S
C1301 C1300 1.349 . S
C1301 C1317 1.349 . S
C1302 C1300 1.327 . S
C1302 C1321 1.429 . S
C1302 H1326 0.950 . S
C1303 C1320 1.574 . S
C1303 C1322 1.368 . S
C1303 H1327 0.949 . S
H1304 C1308 0.949 . S
C1305 C1306 1.349 . S
C1305 C1307 1.327 . S
C1305 H1328 0.950 . S
C1306 C1305 1.349 . S
C1306 C1318 1.349 . S
C1307 C1305 1.327 . S
C1307 C1323 1.429 . S
C1307 H1329 0.950 . S
C1308 H1304 0.949 . S
C1308 C1316 1.574 . S
C1308 C1324 1.368 . S
H1309 C1317 0.950 . S
H1310 C1315 0.950 . S
H1311 C1316 0.949 . S
H1312 C1318 0.950 . S
H1313 C1319 0.950 . S
H1314 C1320 0.949 . S
C1315 H1310 0.950 . S
C1315 C1317 1.327 . S
C1315 C1321 1.429 . S
C1316 C1308 1.574 . S
C1316 H1311 0.949 . S
C1316 C1322 1.368 . S
C1317 C1301 1.349 . S
C1317 H1309 0.950 . S
C1317 C1315 1.327 . S
C1318 C1306 1.349 . S
C1318 H1312 0.950 . S
C1318 C1319 1.327 . S
C1319 H1313 0.950 . S
C1319 C1318 1.327 . S
C1319 C1323 1.429 . S
C1320 C1303 1.574 . S
C1320 H1314 0.949 . S
C1320 C1324 1.368 . S
C1321 C1302 1.429 . S
C1321 C1315 1.429 . S
C1321 C1322 1.523 . S
C1322 C1303 1.368 . S
C1322 C1316 1.368 . S
C1322 C1321 1.523 . S
C1323 C1307 1.429 . S
C1323 C1319 1.429 . S
C1323 C1324 1.523 . S
C1324 C1308 1.368 . S
C1324 C1320 1.368 . S
C1324 C1323 1.523 . S
H1325 C1300 0.950 . S
H1326 C1302 0.950 . S
H1327 C1303 0.949 . S
H1328 C1305 0.950 . S
H1329 C1307 0.950 . S
C1330 C1331 1.349 . S
C1330 C1332 1.327 . S
C1330 H1355 0.950 . S
C1331 C1330 1.349 . S
C1331 C1347 1.349 . S
C1332 C1330 1.327 . S
C1332 C1351 1.429 . S
C1332 H1356 0.950 . S
C1333 C1350 1.574 . S
C1333 C1352 1.368 . S
C1333 H1357 0.949 . S
H1334 C1338 0.949 . S
C1335 C1336 1.349 . S
C1335 C1337 1.327 . S
C1335 H1358 0.950 . S
C1336 C1335 1.349 . S
C1336 C1348 1.349 . S
C1337 C1335 1.327 . S
C1337 C1353 1.429 . S
C1337 H1359 0.950 . S
C1338 H1334 0.949 . S
C1338 C1346 1.574 . S
C1338 C1354 1.368 . S
H1339 C1347 0.950 . S
H1340 C1345 0.950 . S
H1341 C1346 0.949 . S
H1342 C1348 0.950 . S
H1343 C1349 0.950 . S
H1344 C1350 0.949 . S
C1345 H1340 0.950 . S
C1345 C1347 1.327 . S
C1345 C1351 1.429 . S
C1346 C1338 1.574 . S
C1346 H1341 0.949 . S
C1346 C1352 1.368 . S
C1347 C1331 1.349 . S
C1347 H1339 0.950 . S
C1347 C1345 1.327 . S
C1348 C1336 1.349 . S
C1348 H1342 0.950 . S
C1348 C1349 1.327 . S
C1349 H1343 0.950 . S
C1349 C1348 1.327 . S
C1349 C1353 1.429 . S
C1350 C1333 1.574 . S
C1350 H1344 0.949 . S
C1350 C1354 1.368 . S
C1351 C1332 1.429 . S
C1351 C1345 1.429 . S
C1351 C1352 1.523 . S
C1352 C1333 1.368 . S
C1352 C1346 1.368 . S
C1352 C1351 1.523 . S
C1353 C1337 1.429 . S
C1353 C1349 1.429 . S
C1353 C1354 1.523 . S
C1354 C1338 1.368 . S
C1354 C1350 1.368 . S
C1354 C1353 1.523 . S
H1355 C1330 0.950 . S
H1356 C1332 0.950 . S
H1357 C1333 0.949 . S
H1358 C1335 0.950 . S
H1359 C1337 0.950 . S
C1360 C1361 1.349 . S
C1360 C1362 1.327 . S
C1360 H1385 0.950 . S
C1361 C1360 1.349 . S
C1361 C1377 1.349 . S
C1362 C1360 1.327 . S
C1362 C1381 1.429 . S
C1362 H1386 0.950 . S
C1363 C1380 1.574 . S
C1363 C1382 1.368 . S
C1363 H1387 0.949 . S
H1364 C1368 0.949 . S
C1365 C1366 1.349 . S
C1365 C1367 1.327 . S
C1365 H1388 0.950 . S
C1366 C1365 1.349 . S
C1366 C1378 1.349 . S
C1367 C1365 1.327 . S
C1367 C1383 1.429 . S
C1367 H1389 0.950 . S
C1368 H1364 0.949 . S
C1368 C1376 1.574 . S
C1368 C1384 1.368 . S
H1369 C1377 0.950 . S
H1370 C1375 0.950 . S
H1371 C1376 0.949 . S
H1372 C1378 0.950 . S
H1373 C1379 0.950 . S
H1374 C1380 0.949 . S
C1375 H1370 0.950 . S
C1375 C1377 1.327 . S
C1375 C1381 1.429 . S
C1376 C1368 1.574 . S
C1376 H1371 0.949 . S
C1376 C1382 1.368 . S
C1377 C1361 1.349 . S
C1377 H1369 0.950 . S
C1377 C1375 1.327 . S
C1378 C1366 1.349 . S
C1378 H1372 0.950 . S
C1378 C1379 1.327 . S
C1379 H1373 0.950 . S
C1379 C1378 1.327 . S
C1379 C1383 1.429 . S
C1380 C1363 1.574 . S
C1380 H1374 0.949 . S
C1380 C1384 1.368 . S
C1381 C1362 1.429 . S
C1381 C1375 1.429 . S
C1381 C1382 1.523 . S
C1382 C1363 1.368 . S
C1382 C1376 1.368 . S
C1382 C1381 1.523 . S
C1383 C1367 1.429 . S
C1383 C1379 1.429 . S
C1383 C1384 1.523 . S
C1384 C1368 1.368 . S
C1384 C1380 1.368 . S
C1384 C1383 1.523 . S
H1385 C1360 0.950 . S
H1386 C1362 0.950 . S
H1387 C1363 0.949 . S
H1388 C1365 0.950 . S
H1389 C1367 0.950 . S
C1390 C1391 1.349 . S
C1390 C1392 1.327 . S
C1390 H1415 0.950 . S
C1391 C1390 1.349 . S
C1391 C1407 1.349 . S
C1392 C1390 1.327 . S
C1392 C1411 1.429 . S
C1392 H1416 0.950 . S
C1393 C1410 1.574 . S
C1393 C1412 1.368 . S
C1393 H1417 0.949 . S
H1394 C1398 0.949 . S
C1395 C1396 1.349 . S
C1395 C1397 1.327 . S
C1395 H1418 0.950 . S
C1396 C1395 1.349 . S
C1396 C1408 1.349 . S
C1397 C1395 1.327 . S
C1397 C1413 1.429 . S
C1397 H1419 0.950 . S
C1398 H1394 0.949 . S
C1398 C1406 1.574 . S
C1398 C1414 1.368 . S
H1399 C1407 0.950 . S
H1400 C1405 0.950 . S
H1401 C1406 0.949 . S
H1402 C1408 0.950 . S
H1403 C1409 0.950 . S
H1404 C1410 0.949 . S
C1405 H1400 0.950 . S
C1405 C1407 1.327 . S
C1405 C1411 1.429 . S
C1406 C1398 1.574 . S
C1406 H1401 0.949 . S
C1406 C1412 1.368 . S
C1407 C1391 1.349 . S
C1407 H1399 0.950 . S
C1407 C1405 1.327 . S
C1408 C1396 1.349 . S
C1408 H1402 0.950 . S
C1408 C1409 1.327 . S
C1409 H1403 0.950 . S
C1409 C1408 1.327 . S
C1409 C1413 1.429 . S
C1410 C1393 1.574 . S
C1410 H1404 0.949 . S
C1410 C1414 1.368 . S
C1411 C1392 1.429 . S
C1411 C1405 1.429 . S
C1411 C1412 1.523 . S
C1412 C1393 1.368 . S
C1412 C1406 1.368 . S
C1412 C1411 1.523 . S
C1413 C1397 1.429 . S
C1413 C1409 1.429 . S
C1413 C1414 1.523 . S
C1414 C1398 1.368 . S
C1414 C1410 1.368 . S
C1414 C1413 1.523 . S
H1415 C1390 0.950 . S
H1416 C1392 0.950 . S
H1417 C1393 0.949 . S
H1418 C1395 0.950 . S
H1419 C1397 0.950 . S
C1420 C1421 1.349 . S
C1420 C1422 1.327 . S
C1420 H1445 0.950 . S
C1421 C1420 1.349 . S
C1421 C1437 1.349 . S
C1422 C1420 1.327 . S
C1422 C1441 1.429 . S
C1422 H1446 0.950 . S
C1423 C1440 1.574 . S
C1423 C1442 1.368 . S
C1423 H1447 0.949 . S
H1424 C1428 0.949 . S
C1425 C1426 1.349 . S
C1425 C1427 1.327 . S
C1425 H1448 0.950 . S
C1426 C1425 1.349 . S
C1426 C1438 1.349 . S
C1427 C1425 1.327 . S
C1427 C1443 1.429 . S
C1427 H1449 0.950 . S
C1428 H1424 0.949 . S
C1428 C1436 1.574 . S
C1428 C1444 1.368 . S
H1429 C1437 0.950 . S
H1430 C1435 0.950 . S
H1431 C1436 0.949 . S
H1432 C1438 0.950 . S
H1433 C1439 0.950 . S
H1434 C1440 0.949 . S
C1435 H1430 0.950 . S
C1435 C1437 1.327 . S
C1435 C1441 1.429 . S
C1436 C1428 1.574 . S
C1436 H1431 0.949 . S
C1436 C1442 1.368 . S
C1437 C1421 1.349 . S
C1437 H1429 0.950 . S
C1437 C1435 1.327 . S
C1438 C1426 1.349 . S
C1438 H1432 0.950 . S
C1438 C1439 1.327 . S
C1439 H1433 0.950 . S
C1439 C1438 1.327 . S
C1439 C1443 1.429 . S
C1440 C1423 1.574 . S
C1440 H1434 0.949 . S
C1440 C1444 1.368 . S
C1441 C1422 1.429 . S
C1441 C1435 1.429 . S
C1441 C1442 1.523 . S
C1442 C1423 1.368 . S
C1442 C1436 1.368 . S
C1442 C1441 1.523 . S
C1443 C1427 1.429 . S
C1443 C1439 1.429 . S
C1443 C1444 1.523 . S
C1444 C1428 1.368 . S
C1444 C1440 1.368 . S
C1444 C1443 1.523 . S
H1445 C1420 0.950 . S
H1446 C1422 0.950 . S
H1447 C1423 0.949 . S
H1448 C1425 0.950 . S
H1449 C1427 0.950 . S
C1450 C1451 1.349 . S
C1450 C1452 1.327 . S
C1450 H1475 0.950 . S
C1451 C1450 1.349 . S
C1451 C1467 1.349 . S
C1452 C1450 1.327 . S
C1452 C1471 1.429 . S
C1452 H1476 0.950 . S
C1453 C1470 1.574 . S
C1453 C1472 1.368 . S
C1453 H1477 0.949 . S
H1454 C1458 0.949 . S
C1455 C1456 1.349 . S
C1455 C1457 1.327 . S
C1455 H1478 0.950 1_565 S
C1456 C1455 1.349 . S
C1456 C1468 1.349 . S
C1457 C1455 1.327 . S
C1457 C1473 1.429 . S
C1457 H1479 0.964 . S
C1458 H1454 0.949 . S
C1458 C1466 1.574 . S
C1458 C1474 1.368 . S
H1459 C1467 0.950 . S
H1460 C1465 0.950 . S
H1461 C1466 0.949 . S
H1462 C1468 0.950 . S
H1463 C1469 0.950 . S
H1464 C1470 0.949 . S
C1465 H1460 0.950 . S
C1465 C1467 1.327 . S
C1465 C1471 1.429 . S
C1466 C1458 1.574 . S
C1466 H1461 0.949 . S
C1466 C1472 1.368 . S
C1467 C1451 1.349 . S
C1467 H1459 0.950 . S
C1467 C1465 1.327 . S
C1468 C1456 1.349 . S
C1468 H1462 0.950 . S
C1468 C1469 1.327 . S
C1469 H1463 0.950 . S
C1469 C1468 1.327 . S
C1469 C1473 1.429 . S
C1470 C1453 1.574 . S
C1470 H1464 0.949 . S
C1470 C1474 1.368 . S
C1471 C1452 1.429 . S
C1471 C1465 1.429 . S
C1471 C1472 1.523 . S
C1472 C1453 1.368 . S
C1472 C1466 1.368 . S
C1472 C1471 1.523 . S
C1473 C1457 1.429 . S
C1473 C1469 1.429 . S
C1473 C1474 1.523 . S
C1474 C1458 1.368 . S
C1474 C1470 1.368 . S
C1474 C1473 1.523 . S
H1475 C1450 0.950 . S
H1476 C1452 0.950 . S
H1477 C1453 0.949 . S
H1478 C1455 0.950 1_545 S
H1479 C1457 0.964 . S
C1480 C1481 1.349 . S
C1480 C1482 1.327 . S
C1480 H1505 0.950 . S
C1481 C1480 1.349 . S
C1481 C1497 1.349 . S
C1482 C1480 1.327 . S
C1482 C1501 1.429 . S
C1482 H1506 0.950 . S
C1483 C1500 1.574 . S
C1483 C1502 1.368 . S
C1483 H1507 0.949 . S
H1484 C1488 0.949 . S
C1485 C1486 1.349 . S
C1485 C1487 1.327 . S
C1485 H1508 0.950 . S
C1486 C1485 1.349 . S
C1486 C1498 1.349 . S
C1487 C1485 1.327 . S
C1487 C1503 1.429 . S
C1487 H1509 0.950 . S
C1488 H1484 0.949 . S
C1488 C1496 1.574 . S
C1488 C1504 1.368 . S
H1489 C1497 0.950 . S
H1490 C1495 0.950 . S
H1491 C1496 0.949 . S
H1492 C1498 0.950 . S
H1493 C1499 0.950 . S
H1494 C1500 0.949 . S
C1495 H1490 0.950 . S
C1495 C1497 1.327 . S
C1495 C1501 1.429 . S
C1496 C1488 1.574 . S
C1496 H1491 0.949 . S
C1496 C1502 1.368 . S
C1497 C1481 1.349 . S
C1497 H1489 0.950 . S
C1497 C1495 1.327 . S
C1498 C1486 1.349 . S
C1498 H1492 0.950 . S
C1498 C1499 1.327 . S
C1499 H1493 0.950 . S
C1499 C1498 1.327 . S
C1499 C1503 1.429 . S
C1500 C1483 1.574 . S
C1500 H1494 0.949 . S
C1500 C1504 1.368 . S
C1501 C1482 1.429 . S
C1501 C1495 1.429 . S
C1501 C1502 1.523 . S
C1502 C1483 1.368 . S
C1502 C1496 1.368 . S
C1502 C1501 1.523 . S
C1503 C1487 1.429 . S
C1503 C1499 1.429 . S
C1503 C1504 1.523 . S
C1504 C1488 1.368 . S
C1504 C1500 1.368 . S
C1504 C1503 1.523 . S
H1505 C1480 0.950 . S
H1506 C1482 0.950 . S
H1507 C1483 0.949 . S
H1508 C1485 0.950 . S
H1509 C1487 0.950 . S
C1510 C1511 1.349 . S
C1510 C1512 1.327 . S
C1510 H1535 0.950 . S
C1511 C1510 1.349 . S
C1511 C1527 1.349 . S
C1512 C1510 1.327 . S
C1512 C1531 1.429 . S
C1512 H1536 0.950 . S
C1513 C1530 1.574 . S
C1513 C1532 1.368 . S
C1513 H1537 0.949 . S
H1514 C1518 0.949 . S
C1515 C1516 1.349 . S
C1515 C1517 1.327 . S
C1515 H1538 0.950 . S
C1516 C1515 1.349 . S
C1516 C1528 1.349 . S
C1517 C1515 1.327 . S
C1517 C1533 1.429 . S
C1517 H1539 0.950 . S
C1518 H1514 0.949 . S
C1518 C1526 1.574 . S
C1518 C1534 1.368 . S
H1519 C1527 0.950 . S
H1520 C1525 0.950 . S
H1521 C1526 0.949 . S
H1522 C1528 0.950 1_554 S
H1523 C1529 0.950 . S
H1524 C1530 0.949 . S
C1525 H1520 0.950 . S
C1525 C1527 1.327 . S
C1525 C1531 1.429 . S
C1526 C1518 1.574 . S
C1526 H1521 0.949 . S
C1526 C1532 1.368 . S
C1527 C1511 1.349 . S
C1527 H1519 0.950 . S
C1527 C1525 1.327 . S
C1528 C1516 1.349 . S
C1528 H1522 0.950 1_556 S
C1528 C1529 1.327 . S
C1529 H1523 0.950 . S
C1529 C1528 1.327 . S
C1529 C1533 1.429 . S
C1530 C1513 1.574 . S
C1530 H1524 0.949 . S
C1530 C1534 1.368 . S
C1531 C1512 1.429 . S
C1531 C1525 1.429 . S
C1531 C1532 1.523 . S
C1532 C1513 1.368 . S
C1532 C1526 1.368 . S
C1532 C1531 1.523 . S
C1533 C1517 1.429 . S
C1533 C1529 1.429 . S
C1533 C1534 1.523 . S
C1534 C1518 1.368 . S
C1534 C1530 1.368 . S
C1534 C1533 1.523 . S
H1535 C1510 0.950 . S
H1536 C1512 0.950 . S
H1537 C1513 0.949 . S
H1538 C1515 0.950 . S
H1539 C1517 0.950 . S
C1540 C1541 1.349 . S
C1540 C1542 1.327 . S
C1540 H1565 0.950 . S
C1541 C1540 1.349 . S
C1541 C1557 1.349 . S
C1542 C1540 1.327 . S
C1542 C1561 1.429 . S
C1542 H1566 0.950 . S
C1543 C1560 1.574 . S
C1543 C1562 1.368 . S
C1543 H1567 0.949 . S
H1544 C1548 0.949 . S
C1545 C1546 1.349 . S
C1545 C1547 1.327 . S
C1545 H1568 0.950 . S
C1546 C1545 1.349 . S
C1546 C1558 1.349 . S
C1547 C1545 1.327 . S
C1547 C1563 1.429 . S
C1547 H1569 0.950 . S
C1548 H1544 0.949 . S
C1548 C1556 1.574 . S
C1548 C1564 1.368 . S
H1549 C1557 0.950 . S
H1550 C1555 0.950 . S
H1551 C1556 0.949 . S
H1552 C1558 0.950 . S
H1553 C1559 0.950 . S
H1554 C1560 0.949 . S
C1555 H1550 0.950 . S
C1555 C1557 1.327 . S
C1555 C1561 1.429 . S
C1556 C1548 1.574 . S
C1556 H1551 0.949 . S
C1556 C1562 1.368 . S
C1557 C1541 1.349 . S
C1557 H1549 0.950 . S
C1557 C1555 1.327 . S
C1558 C1546 1.349 . S
C1558 H1552 0.950 . S
C1558 C1559 1.327 . S
C1559 H1553 0.950 . S
C1559 C1558 1.327 . S
C1559 C1563 1.429 . S
C1560 C1543 1.574 . S
C1560 H1554 0.949 . S
C1560 C1564 1.368 . S
C1561 C1542 1.429 . S
C1561 C1555 1.429 . S
C1561 C1562 1.523 . S
C1562 C1543 1.368 . S
C1562 C1556 1.368 . S
C1562 C1561 1.523 . S
C1563 C1547 1.429 . S
C1563 C1559 1.429 . S
C1563 C1564 1.523 . S
C1564 C1548 1.368 . S
C1564 C1560 1.368 . S
C1564 C1563 1.523 . S
H1565 C1540 0.950 . S
H1566 C1542 0.950 . S
H1567 C1543 0.949 . S
H1568 C1545 0.950 . S
H1569 C1547 0.950 . S
C1570 C1571 1.349 . S
C1570 C1572 1.327 . S
C1570 H1595 0.950 . S
C1571 C1570 1.349 . S
C1571 C1587 1.349 . S
C1572 C1570 1.327 . S
C1572 C1591 1.429 . S
C1572 H1596 0.950 . S
C1573 C1590 1.574 . S
C1573 C1592 1.368 . S
C1573 H1597 0.949 . S
H1574 C1578 0.949 . S
C1575 C1576 1.349 . S
C1575 C1577 1.327 . S
C1575 H1598 0.950 . S
C1576 C1575 1.349 . S
C1576 C1588 1.349 . S
C1577 C1575 1.327 . S
C1577 C1593 1.429 . S
C1577 H1599 0.950 . S
C1578 H1574 0.949 . S
C1578 C1586 1.574 . S
C1578 C1594 1.368 . S
H1579 C1587 0.950 . S
H1580 C1585 0.950 . S
H1581 C1586 0.949 . S
H1582 C1588 0.950 . S
H1583 C1589 0.950 . S
H1584 C1590 0.949 . S
C1585 H1580 0.950 . S
C1585 C1587 1.327 . S
C1585 C1591 1.429 . S
C1586 C1578 1.574 . S
C1586 H1581 0.949 . S
C1586 C1592 1.368 . S
C1587 C1571 1.349 . S
C1587 H1579 0.950 . S
C1587 C1585 1.327 . S
C1588 C1576 1.349 . S
C1588 H1582 0.950 . S
C1588 C1589 1.327 . S
C1589 H1583 0.950 . S
C1589 C1588 1.327 . S
C1589 C1593 1.429 . S
C1590 C1573 1.574 . S
C1590 H1584 0.949 . S
C1590 C1594 1.368 . S
C1591 C1572 1.429 . S
C1591 C1585 1.429 . S
C1591 C1592 1.523 . S
C1592 C1573 1.368 . S
C1592 C1586 1.368 . S
C1592 C1591 1.523 . S
C1593 C1577 1.429 . S
C1593 C1589 1.429 . S
C1593 C1594 1.523 . S
C1594 C1578 1.368 . S
C1594 C1590 1.368 . S
C1594 C1593 1.523 . S
H1595 C1570 0.950 . S
H1596 C1572 0.950 . S
H1597 C1573 0.949 . S
H1598 C1575 0.950 . S
H1599 C1577 0.950 . S
C1600 C1601 1.349 . S
C1600 C1602 1.327 . S
C1600 H1625 0.950 . S
C1601 C1600 1.349 . S
C1601 C1617 1.349 . S
C1602 C1600 1.327 . S
C1602 C1621 1.429 . S
C1602 H1626 0.950 . S
C1603 C1620 1.574 . S
C1603 C1622 1.368 . S
C1603 H1627 0.949 . S
H1604 C1608 0.949 . S
C1605 C1606 1.349 . S
C1605 C1607 1.327 . S
C1605 H1628 0.950 . S
C1606 C1605 1.349 . S
C1606 C1618 1.349 . S
C1607 C1605 1.327 . S
C1607 C1623 1.429 . S
C1607 H1629 0.950 . S
C1608 H1604 0.949 . S
C1608 C1616 1.574 . S
C1608 C1624 1.368 . S
H1609 C1617 0.950 . S
H1610 C1615 0.950 . S
H1611 C1616 0.949 . S
H1612 C1618 0.950 . S
H1613 C1619 0.950 . S
H1614 C1620 0.949 . S
C1615 H1610 0.950 . S
C1615 C1617 1.327 . S
C1615 C1621 1.429 . S
C1616 C1608 1.574 . S
C1616 H1611 0.949 . S
C1616 C1622 1.368 . S
C1617 C1601 1.349 . S
C1617 H1609 0.950 . S
C1617 C1615 1.327 . S
C1618 C1606 1.349 . S
C1618 H1612 0.950 . S
C1618 C1619 1.327 . S
C1619 H1613 0.950 . S
C1619 C1618 1.327 . S
C1619 C1623 1.429 . S
C1620 C1603 1.574 . S
C1620 H1614 0.949 . S
C1620 C1624 1.368 . S
C1621 C1602 1.429 . S
C1621 C1615 1.429 . S
C1621 C1622 1.523 . S
C1622 C1603 1.368 . S
C1622 C1616 1.368 . S
C1622 C1621 1.523 . S
C1623 C1607 1.429 . S
C1623 C1619 1.429 . S
C1623 C1624 1.523 . S
C1624 C1608 1.368 . S
C1624 C1620 1.368 . S
C1624 C1623 1.523 . S
H1625 C1600 0.950 . S
H1626 C1602 0.950 . S
H1627 C1603 0.949 . S
H1628 C1605 0.950 . S
H1629 C1607 0.950 . S
C1630 C1631 1.349 . S
C1630 C1632 1.327 . S
C1630 H1655 0.950 . S
C1631 C1630 1.349 . S
C1631 C1647 1.349 . S
C1632 C1630 1.327 . S
C1632 C1651 1.429 . S
C1632 H1656 0.950 . S
C1633 C1650 1.574 . S
C1633 C1652 1.368 . S
C1633 H1657 0.949 . S
H1634 C1638 0.949 . S
C1635 C1636 1.349 . S
C1635 C1637 1.327 . S
C1635 H1658 0.950 . S
C1636 C1635 1.349 . S
C1636 C1648 1.349 . S
C1637 C1635 1.327 . S
C1637 C1653 1.429 . S
C1637 H1659 0.950 . S
C1638 H1634 0.949 . S
C1638 C1646 1.574 . S
C1638 C1654 1.368 . S
H1639 C1647 0.950 . S
H1640 C1645 0.950 . S
H1641 C1646 0.949 . S
H1642 C1648 0.950 . S
H1643 C1649 0.950 . S
H1644 C1650 0.949 . S
C1645 H1640 0.950 . S
C1645 C1647 1.327 . S
C1645 C1651 1.429 . S
C1646 C1638 1.574 . S
C1646 H1641 0.949 . S
C1646 C1652 1.368 . S
C1647 C1631 1.349 . S
C1647 H1639 0.950 . S
C1647 C1645 1.327 . S
C1648 C1636 1.349 . S
C1648 H1642 0.950 . S
C1648 C1649 1.327 . S
C1649 H1643 0.950 . S
C1649 C1648 1.327 . S
C1649 C1653 1.429 . S
C1650 C1633 1.574 . S
C1650 H1644 0.949 . S
C1650 C1654 1.368 . S
C1651 C1632 1.429 . S
C1651 C1645 1.429 . S
C1651 C1652 1.523 . S
C1652 C1633 1.368 . S
C1652 C1646 1.368 . S
C1652 C1651 1.523 . S
C1653 C1637 1.429 . S
C1653 C1649 1.429 . S
C1653 C1654 1.523 . S
C1654 C1638 1.368 . S
C1654 C1650 1.368 . S
C1654 C1653 1.523 . S
H1655 C1630 0.950 . S
H1656 C1632 0.950 . S
H1657 C1633 0.949 . S
H1658 C1635 0.950 . S
H1659 C1637 0.950 . S
C1660 C1661 1.349 . S
C1660 C1662 1.327 . S
C1660 H1685 0.950 . S
C1661 C1660 1.349 . S
C1661 C1677 1.349 . S
C1662 C1660 1.327 . S
C1662 C1681 1.429 . S
C1662 H1686 0.950 . S
C1663 C1680 1.574 . S
C1663 C1682 1.368 . S
C1663 H1687 0.949 . S
H1664 C1668 0.949 . S
C1665 C1666 1.349 . S
C1665 C1667 1.327 . S
C1665 H1688 0.950 . S
C1666 C1665 1.349 . S
C1666 C1678 1.349 . S
C1667 C1665 1.327 . S
C1667 C1683 1.429 . S
C1667 H1689 0.950 . S
C1668 H1664 0.949 . S
C1668 C1676 1.574 . S
C1668 C1684 1.368 . S
H1669 C1677 0.950 . S
H1670 C1675 0.950 . S
H1671 C1676 0.949 . S
H1672 C1678 0.950 . S
H1673 C1679 0.950 . S
H1674 C1680 0.949 . S
C1675 H1670 0.950 . S
C1675 C1677 1.327 . S
C1675 C1681 1.429 . S
C1676 C1668 1.574 . S
C1676 H1671 0.949 . S
C1676 C1682 1.368 . S
C1677 C1661 1.349 . S
C1677 H1669 0.950 . S
C1677 C1675 1.327 . S
C1678 C1666 1.349 . S
C1678 H1672 0.950 . S
C1678 C1679 1.327 . S
C1679 H1673 0.950 . S
C1679 C1678 1.327 . S
C1679 C1683 1.429 . S
C1680 C1663 1.574 . S
C1680 H1674 0.949 . S
C1680 C1684 1.368 . S
C1681 C1662 1.429 . S
C1681 C1675 1.429 . S
C1681 C1682 1.523 . S
C1682 C1663 1.368 . S
C1682 C1676 1.368 . S
C1682 C1681 1.523 . S
C1683 C1667 1.429 . S
C1683 C1679 1.429 . S
C1683 C1684 1.523 . S
C1684 C1668 1.368 . S
C1684 C1680 1.368 . S
C1684 C1683 1.523 . S
H1685 C1660 0.950 . S
H1686 C1662 0.950 . S
H1687 C1663 0.949 . S
H1688 C1665 0.950 . S
H1689 C1667 0.950 . S
C1690 C1691 1.349 . S
C1690 C1692 1.327 . S
C1690 H1715 0.950 1_565 S
C1691 C1690 1.349 . S
C1691 C1707 1.349 . S
C1692 C1690 1.327 . S
C1692 C1711 1.429 . S
C1692 H1716 0.950 . S
C1693 C1710 1.574 . S
C1693 C1712 1.368 . S
C1693 H1717 0.949 . S
H1694 C1698 0.949 . S
C1695 C1696 1.349 . S
C1695 C1697 1.327 . S
C1695 H1718 0.950 . S
C1696 C1695 1.349 . S
C1696 C1708 1.349 . S
C1697 C1695 1.327 . S
C1697 C1713 1.429 . S
C1697 H1719 0.950 . S
C1698 H1694 0.949 . S
C1698 C1706 1.574 . S
C1698 C1714 1.368 . S
H1699 C1707 0.950 . S
H1700 C1705 0.950 . S
H1701 C1706 0.949 . S
H1702 C1708 0.950 . S
H1703 C1709 0.950 . S
H1704 C1710 0.949 . S
C1705 H1700 0.950 . S
C1705 C1707 1.327 . S
C1705 C1711 1.429 . S
C1706 C1698 1.574 . S
C1706 H1701 0.949 . S
C1706 C1712 1.368 . S
C1707 C1691 1.349 . S
C1707 H1699 0.950 . S
C1707 C1705 1.327 . S
C1708 C1696 1.349 . S
C1708 H1702 0.950 . S
C1708 C1709 1.327 . S
C1709 H1703 0.950 . S
C1709 C1708 1.327 . S
C1709 C1713 1.429 . S
C1710 C1693 1.574 . S
C1710 H1704 0.949 . S
C1710 C1714 1.368 . S
C1711 C1692 1.429 . S
C1711 C1705 1.429 . S
C1711 C1712 1.523 . S
C1712 C1693 1.368 . S
C1712 C1706 1.368 . S
C1712 C1711 1.523 . S
C1713 C1697 1.429 . S
C1713 C1709 1.429 . S
C1713 C1714 1.523 . S
C1714 C1698 1.368 . S
C1714 C1710 1.368 . S
C1714 C1713 1.523 . S
H1715 C1690 0.950 1_545 S
H1716 C1692 0.950 . S
H1717 C1693 0.949 . S
H1718 C1695 0.950 . S
H1719 C1697 0.950 . S
C1720 C1721 1.349 . S
C1720 C1722 1.327 . S
C1720 H1745 0.950 . S
C1721 C1720 1.349 . S
C1721 C1737 1.349 . S
C1722 C1720 1.327 . S
C1722 C1741 1.429 . S
C1722 H1746 0.950 . S
C1723 C1740 1.574 . S
C1723 C1742 1.368 . S
C1723 H1747 0.949 . S
H1724 C1728 0.949 . S
C1725 C1726 1.349 . S
C1725 C1727 1.327 . S
C1725 H1748 0.950 . S
C1726 C1725 1.349 . S
C1726 C1738 1.349 . S
C1727 C1725 1.327 . S
C1727 C1743 1.429 . S
C1727 H1749 0.950 . S
C1728 H1724 0.949 . S
C1728 C1736 1.574 . S
C1728 C1744 1.368 . S
H1729 C1737 0.950 . S
H1730 C1735 0.950 . S
H1731 C1736 0.949 . S
H1732 C1738 0.950 . S
H1733 C1739 0.950 . S
H1734 C1740 0.949 . S
C1735 H1730 0.950 . S
C1735 C1737 1.327 . S
C1735 C1741 1.429 . S
C1736 C1728 1.574 . S
C1736 H1731 0.949 . S
C1736 C1742 1.368 . S
C1737 C1721 1.349 . S
C1737 H1729 0.950 . S
C1737 C1735 1.327 . S
C1738 C1726 1.349 . S
C1738 H1732 0.950 . S
C1738 C1739 1.327 . S
C1739 H1733 0.950 . S
C1739 C1738 1.327 . S
C1739 C1743 1.429 . S
C1740 C1723 1.574 . S
C1740 H1734 0.949 . S
C1740 C1744 1.368 . S
C1741 C1722 1.429 . S
C1741 C1735 1.429 . S
C1741 C1742 1.523 . S
C1742 C1723 1.368 . S
C1742 C1736 1.368 . S
C1742 C1741 1.523 . S
C1743 C1727 1.429 . S
C1743 C1739 1.429 . S
C1743 C1744 1.523 . S
C1744 C1728 1.368 . S
C1744 C1740 1.368 . S
C1744 C1743 1.523 . S
H1745 C1720 0.950 . S
H1746 C1722 0.950 . S
H1747 C1723 0.949 . S
H1748 C1725 0.950 . S
H1749 C1727 0.950 . S
C1750 C1751 1.349 . S
C1750 C1752 1.327 . S
C1750 H1775 0.950 . S
C1751 C1750 1.349 . S
C1751 C1767 1.349 . S
C1752 C1750 1.327 . S
C1752 C1771 1.429 . S
C1752 H1776 0.950 . S
C1753 C1770 1.574 . S
C1753 C1772 1.368 . S
C1753 H1777 0.949 . S
H1754 C1758 0.949 . S
C1755 C1756 1.349 . S
C1755 C1757 1.327 . S
C1755 H1778 0.950 . S
C1756 C1755 1.349 . S
C1756 C1768 1.349 . S
C1757 C1755 1.327 . S
C1757 C1773 1.429 . S
C1757 H1779 0.950 . S
C1758 H1754 0.949 . S
C1758 C1766 1.574 . S
C1758 C1774 1.368 . S
H1759 C1767 0.950 . S
H1760 C1765 0.950 . S
H1761 C1766 0.949 . S
H1762 C1768 0.950 . S
H1763 C1769 0.950 . S
H1764 C1770 0.949 . S
C1765 H1760 0.950 . S
C1765 C1767 1.327 . S
C1765 C1771 1.429 . S
C1766 C1758 1.574 . S
C1766 H1761 0.949 . S
C1766 C1772 1.368 . S
C1767 C1751 1.349 . S
C1767 H1759 0.950 . S
C1767 C1765 1.327 . S
C1768 C1756 1.349 . S
C1768 H1762 0.950 . S
C1768 C1769 1.327 . S
C1769 H1763 0.950 . S
C1769 C1768 1.327 . S
C1769 C1773 1.429 . S
C1770 C1753 1.574 . S
C1770 H1764 0.949 . S
C1770 C1774 1.368 . S
C1771 C1752 1.429 . S
C1771 C1765 1.429 . S
C1771 C1772 1.523 . S
C1772 C1753 1.368 . S
C1772 C1766 1.368 . S
C1772 C1771 1.523 . S
C1773 C1757 1.429 . S
C1773 C1769 1.429 . S
C1773 C1774 1.523 . S
C1774 C1758 1.368 . S
C1774 C1770 1.368 . S
C1774 C1773 1.523 . S
H1775 C1750 0.950 . S
H1776 C1752 0.950 . S
H1777 C1753 0.949 . S
H1778 C1755 0.950 . S
H1779 C1757 0.950 . S
C1780 C1781 1.349 . S
C1780 C1782 1.327 . S
C1780 H1805 0.950 . S
C1781 C1780 1.349 . S
C1781 C1797 1.349 . S
C1782 C1780 1.327 . S
C1782 C1801 1.429 . S
C1782 H1806 0.950 . S
C1783 C1800 1.574 . S
C1783 C1802 1.368 . S
C1783 H1807 0.949 . S
H1784 C1788 0.949 . S
C1785 C1786 1.349 . S
C1785 C1787 1.327 . S
C1785 H1808 0.950 . S
C1786 C1785 1.349 . S
C1786 C1798 1.349 . S
C1787 C1785 1.327 . S
C1787 C1803 1.429 . S
C1787 H1809 0.950 . S
C1788 H1784 0.949 . S
C1788 C1796 1.574 . S
C1788 C1804 1.368 . S
H1789 C1797 0.950 . S
H1790 C1795 0.950 . S
H1791 C1796 0.949 . S
H1792 C1798 0.950 . S
H1793 C1799 0.950 . S
H1794 C1800 0.949 . S
C1795 H1790 0.950 . S
C1795 C1797 1.327 . S
C1795 C1801 1.429 . S
C1796 C1788 1.574 . S
C1796 H1791 0.949 . S
C1796 C1802 1.368 . S
C1797 C1781 1.349 . S
C1797 H1789 0.950 . S
C1797 C1795 1.327 . S
C1798 C1786 1.349 . S
C1798 H1792 0.950 . S
C1798 C1799 1.327 . S
C1799 H1793 0.950 . S
C1799 C1798 1.327 . S
C1799 C1803 1.429 . S
C1800 C1783 1.574 . S
C1800 H1794 0.949 . S
C1800 C1804 1.368 . S
C1801 C1782 1.429 . S
C1801 C1795 1.429 . S
C1801 C1802 1.523 . S
C1802 C1783 1.368 . S
C1802 C1796 1.368 . S
C1802 C1801 1.523 . S
C1803 C1787 1.429 . S
C1803 C1799 1.429 . S
C1803 C1804 1.523 . S
C1804 C1788 1.368 . S
C1804 C1800 1.368 . S
C1804 C1803 1.523 . S
H1805 C1780 0.950 . S
H1806 C1782 0.950 . S
H1807 C1783 0.949 . S
H1808 C1785 0.950 . S
H1809 C1787 0.950 . S
C1810 C1811 1.349 . S
C1810 C1812 1.327 . S
C1810 H1835 0.950 . S
C1811 C1810 1.349 . S
C1811 C1827 1.349 . S
C1812 C1810 1.327 . S
C1812 C1831 1.429 . S
C1812 H1836 0.950 . S
C1813 C1830 1.574 . S
C1813 C1832 1.368 . S
C1813 H1837 0.949 . S
H1814 C1818 0.949 . S
C1815 C1816 1.349 . S
C1815 C1817 1.327 . S
C1815 H1838 0.950 . S
C1816 C1815 1.349 . S
C1816 C1828 1.349 . S
C1817 C1815 1.327 . S
C1817 C1833 1.429 . S
C1817 H1839 0.950 . S
C1818 H1814 0.949 . S
C1818 C1826 1.574 . S
C1818 C1834 1.368 . S
H1819 C1827 0.950 . S
H1820 C1825 0.950 . S
H1821 C1826 0.949 . S
H1822 C1828 0.950 . S
H1823 C1829 0.950 . S
H1824 C1830 0.949 . S
C1825 H1820 0.950 . S
C1825 C1827 1.327 . S
C1825 C1831 1.429 . S
C1826 C1818 1.574 . S
C1826 H1821 0.949 . S
C1826 C1832 1.368 . S
C1827 C1811 1.349 . S
C1827 H1819 0.950 . S
C1827 C1825 1.327 . S
C1828 C1816 1.349 . S
C1828 H1822 0.950 . S
C1828 C1829 1.327 . S
C1829 H1823 0.950 . S
C1829 C1828 1.327 . S
C1829 C1833 1.429 . S
C1830 C1813 1.574 . S
C1830 H1824 0.949 . S
C1830 C1834 1.368 . S
C1831 C1812 1.429 . S
C1831 C1825 1.429 . S
C1831 C1832 1.523 . S
C1832 C1813 1.368 . S
C1832 C1826 1.368 . S
C1832 C1831 1.523 . S
C1833 C1817 1.429 . S
C1833 C1829 1.429 . S
C1833 C1834 1.523 . S
C1834 C1818 1.368 . S
C1834 C1830 1.368 . S
C1834 C1833 1.523 . S
H1835 C1810 0.950 . S
H1836 C1812 0.950 . S
H1837 C1813 0.949 . S
H1838 C1815 0.950 . S
H1839 C1817 0.950 . S
C1840 C1841 1.349 . S
C1840 C1842 1.327 . S
C1840 H1865 0.950 . S
C1841 C1840 1.349 . S
C1841 C1857 1.349 . S
C1842 C1840 1.327 . S
C1842 C1861 1.429 . S
C1842 H1866 0.950 . S
C1843 C1860 1.574 . S
C1843 C1862 1.368 . S
C1843 H1867 0.949 . S
H1844 C1848 0.949 . S
C1845 C1846 1.349 . S
C1845 C1847 1.327 . S
C1845 H1868 0.950 . S
C1846 C1845 1.349 . S
C1846 C1858 1.349 . S
C1847 C1845 1.327 . S
C1847 C1863 1.429 . S
C1847 H1869 0.950 . S
C1848 H1844 0.949 . S
C1848 C1856 1.574 . S
C1848 C1864 1.368 . S
H1849 C1857 0.950 . S
H1850 C1855 0.950 . S
H1851 C1856 0.949 . S
H1852 C1858 0.950 . S
H1853 C1859 0.950 . S
H1854 C1860 0.949 . S
C1855 H1850 0.950 . S
C1855 C1857 1.327 . S
C1855 C1861 1.429 . S
C1856 C1848 1.574 . S
C1856 H1851 0.949 . S
C1856 C1862 1.368 . S
C1857 C1841 1.349 . S
C1857 H1849 0.950 . S
C1857 C1855 1.327 . S
C1858 C1846 1.349 . S
C1858 H1852 0.950 . S
C1858 C1859 1.327 . S
C1859 H1853 0.950 . S
C1859 C1858 1.327 . S
C1859 C1863 1.429 . S
C1860 C1843 1.574 . S
C1860 H1854 0.949 . S
C1860 C1864 1.368 . S
C1861 C1842 1.429 . S
C1861 C1855 1.429 . S
C1861 C1862 1.523 . S
C1862 C1843 1.368 . S
C1862 C1856 1.368 . S
C1862 C1861 1.523 . S
C1863 C1847 1.429 . S
C1863 C1859 1.429 . S
C1863 C1864 1.523 . S
C1864 C1848 1.368 . S
C1864 C1860 1.368 . S
C1864 C1863 1.523 . S
H1865 C1840 0.950 . S
H1866 C1842 0.950 . S
H1867 C1843 0.949 . S
H1868 C1845 0.950 . S
H1869 C1847 0.950 . S
C1870 C1871 1.349 . S
C1870 C1872 1.327 . S
C1870 H1895 0.950 . S
C1871 C1870 1.349 . S
C1871 C1887 1.349 . S
C1872 C1870 1.327 . S
C1872 C1891 1.429 . S
C1872 H1896 0.950 . S
C1873 C1890 1.574 . S
C1873 C1892 1.368 . S
C1873 H1897 0.949 . S
H1874 C1878 0.949 . S
C1875 C1876 1.349 . S
C1875 C1877 1.327 . S
C1875 H1898 0.950 . S
C1876 C1875 1.349 . S
C1876 C1888 1.349 . S
C1877 C1875 1.327 . S
C1877 C1893 1.429 . S
C1877 H1899 0.950 . S
C1878 H1874 0.949 . S
C1878 C1886 1.574 . S
C1878 C1894 1.368 . S
H1879 C1887 0.950 . S
H1880 C1885 0.950 . S
H1881 C1886 0.949 . S
H1882 C1888 0.950 . S
H1883 C1889 0.950 . S
H1884 C1890 0.949 . S
C1885 H1880 0.950 . S
C1885 C1887 1.327 . S
C1885 C1891 1.429 . S
C1886 C1878 1.574 . S
C1886 H1881 0.949 . S
C1886 C1892 1.368 . S
C1887 C1871 1.349 . S
C1887 H1879 0.950 . S
C1887 C1885 1.327 . S
C1888 C1876 1.349 . S
C1888 H1882 0.950 . S
C1888 C1889 1.327 . S
C1889 H1883 0.950 . S
C1889 C1888 1.327 . S
C1889 C1893 1.429 . S
C1890 C1873 1.574 . S
C1890 H1884 0.949 . S
C1890 C1894 1.368 . S
C1891 C1872 1.429 . S
C1891 C1885 1.429 . S
C1891 C1892 1.523 . S
C1892 C1873 1.368 . S
C1892 C1886 1.368 . S
C1892 C1891 1.523 . S
C1893 C1877 1.429 . S
C1893 C1889 1.429 . S
C1893 C1894 1.523 . S
C1894 C1878 1.368 . S
C1894 C1890 1.368 . S
C1894 C1893 1.523 . S
H1895 C1870 0.950 . S
H1896 C1872 0.950 . S
H1897 C1873 0.949 . S
H1898 C1875 0.950 . S
H1899 C1877 0.950 . S
C1900 C1901 1.349 . S
C1900 C1902 1.327 . S
C1900 H1925 0.950 . S
C1901 C1900 1.349 . S
C1901 C1917 1.349 . S
C1902 C1900 1.327 . S
C1902 C1921 1.429 . S
C1902 H1926 0.950 . S
C1903 C1920 1.574 . S
C1903 C1922 1.368 . S
C1903 H1927 0.949 . S
H1904 C1908 0.949 . S
C1905 C1906 1.349 . S
C1905 C1907 1.327 . S
C1905 H1928 0.950 . S
C1906 C1905 1.349 . S
C1906 C1918 1.349 . S
C1907 C1905 1.327 . S
C1907 C1923 1.429 . S
C1907 H1929 0.950 . S
C1908 H1904 0.949 . S
C1908 C1916 1.574 . S
C1908 C1924 1.368 . S
H1909 C1917 0.950 . S
H1910 C1915 0.950 . S
H1911 C1916 0.949 . S
H1912 C1918 0.950 . S
H1913 C1919 0.950 . S
H1914 C1920 0.949 . S
C1915 H1910 0.950 . S
C1915 C1917 1.327 . S
C1915 C1921 1.429 . S
C1916 C1908 1.574 . S
C1916 H1911 0.949 . S
C1916 C1922 1.368 . S
C1917 C1901 1.349 . S
C1917 H1909 0.950 . S
C1917 C1915 1.327 . S
C1918 C1906 1.349 . S
C1918 H1912 0.950 . S
C1918 C1919 1.327 . S
C1919 H1913 0.950 . S
C1919 C1918 1.327 . S
C1919 C1923 1.429 . S
C1920 C1903 1.574 . S
C1920 H1914 0.949 . S
C1920 C1924 1.368 . S
C1921 C1902 1.429 . S
C1921 C1915 1.429 . S
C1921 C1922 1.523 . S
C1922 C1903 1.368 . S
C1922 C1916 1.368 . S
C1922 C1921 1.523 . S
C1923 C1907 1.429 . S
C1923 C1919 1.429 . S
C1923 C1924 1.523 . S
C1924 C1908 1.368 . S
C1924 C1920 1.368 . S
C1924 C1923 1.523 . S
H1925 C1900 0.950 . S
H1926 C1902 0.950 . S
H1927 C1903 0.949 . S
H1928 C1905 0.950 . S
H1929 C1907 0.950 . S
C1930 C1931 1.349 . S
C1930 C1932 1.327 . S
C1930 H1955 0.950 . S
C1931 C1930 1.349 . S
C1931 C1947 1.349 . S
C1932 C1930 1.327 . S
C1932 C1951 1.429 . S
C1932 H1956 0.950 . S
C1933 C1950 1.574 . S
C1933 C1952 1.368 . S
C1933 H1957 0.949 . S
H1934 C1938 0.949 . S
C1935 C1936 1.349 . S
C1935 C1937 1.327 . S
C1935 H1958 0.950 . S
C1936 C1935 1.349 . S
C1936 C1948 1.349 . S
C1937 C1935 1.327 . S
C1937 C1953 1.429 . S
C1937 H1959 0.950 . S
C1938 H1934 0.949 . S
C1938 C1946 1.574 . S
C1938 C1954 1.368 . S
H1939 C1947 0.950 . S
H1940 C1945 0.950 . S
H1941 C1946 0.949 . S
H1942 C1948 0.950 . S
H1943 C1949 0.950 . S
H1944 C1950 0.949 . S
C1945 H1940 0.950 . S
C1945 C1947 1.327 . S
C1945 C1951 1.429 . S
C1946 C1938 1.574 . S
C1946 H1941 0.949 . S
C1946 C1952 1.368 . S
C1947 C1931 1.349 . S
C1947 H1939 0.950 . S
C1947 C1945 1.327 . S
C1948 C1936 1.349 . S
C1948 H1942 0.950 . S
C1948 C1949 1.327 . S
C1949 H1943 0.950 . S
C1949 C1948 1.327 . S
C1949 C1953 1.429 . S
C1950 C1933 1.574 . S
C1950 H1944 0.949 . S
C1950 C1954 1.368 . S
C1951 C1932 1.429 . S
C1951 C1945 1.429 . S
C1951 C1952 1.523 . S
C1952 C1933 1.368 . S
C1952 C1946 1.368 . S
C1952 C1951 1.523 . S
C1953 C1937 1.429 . S
C1953 C1949 1.429 . S
C1953 C1954 1.523 . S
C1954 C1938 1.368 . S
C1954 C1950 1.368 . S
C1954 C1953 1.523 . S
H1955 C1930 0.950 . S
H1956 C1932 0.950 . S
H1957 C1933 0.949 . S
H1958 C1935 0.950 . S
H1959 C1937 0.950 . S
C1960 C1961 1.349 . S
C1960 C1962 1.327 . S
C1960 H1985 0.950 . S
C1961 C1960 1.349 . S
C1961 C1977 1.349 . S
C1962 C1960 1.327 . S
C1962 C1981 1.429 . S
C1962 H1986 0.950 . S
C1963 C1980 1.574 . S
C1963 C1982 1.368 . S
C1963 H1987 0.949 . S
H1964 C1968 0.949 . S
C1965 C1966 1.349 . S
C1965 C1967 1.327 . S
C1965 H1988 0.950 . S
C1966 C1965 1.349 . S
C1966 C1978 1.349 . S
C1967 C1965 1.327 . S
C1967 C1983 1.429 . S
C1967 H1989 0.950 . S
C1968 H1964 0.949 . S
C1968 C1976 1.574 . S
C1968 C1984 1.368 . S
H1969 C1977 0.950 . S
H1970 C1975 0.950 . S
H1971 C1976 0.949 . S
H1972 C1978 0.950 . S
H1973 C1979 0.950 . S
H1974 C1980 0.949 . S
C1975 H1970 0.950 . S
C1975 C1977 1.327 . S
C1975 C1981 1.429 . S
C1976 C1968 1.574 . S
C1976 H1971 0.949 . S
C1976 C1982 1.368 . S
C1977 C1961 1.349 . S
C1977 H1969 0.950 . S
C1977 C1975 1.327 . S
C1978 C1966 1.349 . S
C1978 H1972 0.950 . S
C1978 C1979 1.327 . S
C1979 H1973 0.950 . S
C1979 C1978 1.327 . S
C1979 C1983 1.429 . S
C1980 C1963 1.574 . S
C1980 H1974 0.949 . S
C1980 C1984 1.368 . S
C1981 C1962 1.429 . S
C1981 C1975 1.429 . S
C1981 C1982 1.523 . S
C1982 C1963 1.368 . S
C1982 C1976 1.368 . S
C1982 C1981 1.523 . S
C1983 C1967 1.429 . S
C1983 C1979 1.429 . S
C1983 C1984 1.523 . S
C1984 C1968 1.368 . S
C1984 C1980 1.368 . S
C1984 C1983 1.523 . S
H1985 C1960 0.950 . S
H1986 C1962 0.950 . S
H1987 C1963 0.949 . S
H1988 C1965 0.950 . S
H1989 C1967 0.950 . S
C1990 C1991 1.349 . S
C1990 C1992 1.327 . S
C1990 H2015 0.950 . S
C1991 C1990 1.349 . S
C1991 C2007 1.349 . S
C1992 C1990 1.327 . S
C1992 C2011 1.429 . S
C1992 H2016 0.950 . S
C1993 C2010 1.574 . S
C1993 C2012 1.368 . S
C1993 H2017 0.949 . S
H1994 C1998 0.949 . S
C1995 C1996 1.349 . S
C1995 C1997 1.327 . S
C1995 H2018 0.950 . S
C1996 C1995 1.349 . S
C1996 C2008 1.349 . S
C1997 C1995 1.327 . S
C1997 C2013 1.429 . S
C1997 H2019 0.950 . S
C1998 H1994 0.949 . S
C1998 C2006 1.574 . S
C1998 C2014 1.368 . S
H1999 C2007 0.950 . S
H2000 C2005 0.950 . S
H2001 C2006 0.949 . S
H2002 C2008 0.950 . S
H2003 C2009 0.950 . S
H2004 C2010 0.949 . S
C2005 H2000 0.950 . S
C2005 C2007 1.327 . S
C2005 C2011 1.429 . S
C2006 C1998 1.574 . S
C2006 H2001 0.949 . S
C2006 C2012 1.368 . S
C2007 C1991 1.349 . S
C2007 H1999 0.950 . S
C2007 C2005 1.327 . S
C2008 C1996 1.349 . S
C2008 H2002 0.950 . S
C2008 C2009 1.327 . S
C2009 H2003 0.950 . S
C2009 C2008 1.327 . S
C2009 C2013 1.429 . S
C2010 C1993 1.574 . S
C2010 H2004 0.949 . S
C2010 C2014 1.368 . S
C2011 C1992 1.429 . S
C2011 C2005 1.429 . S
C2011 C2012 1.523 . S
C2012 C1993 1.368 . S
C2012 C2006 1.368 . S
C2012 C2011 1.523 . S
C2013 C1997 1.429 . S
C2013 C2009 1.429 . S
C2013 C2014 1.523 . S
C2014 C1998 1.368 . S
C2014 C2010 1.368 . S
C2014 C2013 1.523 . S
H2015 C1990 0.950 . S
H2016 C1992 0.950 . S
H2017 C1993 0.949 . S
H2018 C1995 0.950 . S
H2019 C1997 0.950 . S
C2020 C2021 1.349 . S
C2020 C2022 1.327 . S
C2020 H2045 0.950 . S
C2021 C2020 1.349 . S
C2021 C2037 1.349 . S
C2022 C2020 1.327 . S
C2022 C2041 1.429 . S
C2022 H2046 0.950 . S
C2023 C2040 1.574 . S
C2023 C2042 1.368 . S
C2023 H2047 0.949 . S
H2024 C2028 0.949 . S
C2025 C2026 1.349 . S
C2025 C2027 1.327 . S
C2025 H2048 0.950 . S
C2026 C2025 1.349 . S
C2026 C2038 1.349 . S
C2027 C2025 1.327 . S
C2027 C2043 1.429 . S
C2027 H2049 0.950 . S
C2028 H2024 0.949 . S
C2028 C2036 1.574 . S
C2028 C2044 1.368 . S
H2029 C2037 0.950 . S
H2030 C2035 0.950 . S
H2031 C2036 0.949 . S
H2032 C2038 0.950 . S
H2033 C2039 0.950 . S
H2034 C2040 0.949 . S
C2035 H2030 0.950 . S
C2035 C2037 1.327 . S
C2035 C2041 1.429 . S
C2036 C2028 1.574 . S
C2036 H2031 0.949 . S
C2036 C2042 1.368 . S
C2037 C2021 1.349 . S
C2037 H2029 0.950 . S
C2037 C2035 1.327 . S
C2038 C2026 1.349 . S
C2038 H2032 0.950 . S
C2038 C2039 1.327 . S
C2039 H2033 0.950 . S
C2039 C2038 1.327 . S
C2039 C2043 1.429 . S
C2040 C2023 1.574 . S
C2040 H2034 0.949 . S
C2040 C2044 1.368 . S
C2041 C2022 1.429 . S
C2041 C2035 1.429 . S
C2041 C2042 1.523 . S
C2042 C2023 1.368 . S
C2042 C2036 1.368 . S
C2042 C2041 1.523 . S
C2043 C2027 1.429 . S
C2043 C2039 1.429 . S
C2043 C2044 1.523 . S
C2044 C2028 1.368 . S
C2044 C2040 1.368 . S
C2044 C2043 1.523 . S
H2045 C2020 0.950 . S
H2046 C2022 0.950 . S
H2047 C2023 0.949 . S
H2048 C2025 0.950 . S
H2049 C2027 0.950 . S
C2050 C2051 1.349 . S
C2050 C2052 1.327 . S
C2050 H2075 0.950 . S
C2051 C2050 1.349 . S
C2051 C2067 1.349 . S
C2052 C2050 1.327 . S
C2052 C2071 1.429 . S
C2052 H2076 0.950 . S
C2053 C2070 1.574 . S
C2053 C2072 1.368 . S
C2053 H2077 0.949 . S
H2054 C2058 0.949 . S
C2055 C2056 1.349 . S
C2055 C2057 1.327 . S
C2055 H2078 0.950 . S
C2056 C2055 1.349 . S
C2056 C2068 1.349 . S
C2057 C2055 1.327 . S
C2057 C2073 1.429 . S
C2057 H2079 0.950 . S
C2058 H2054 0.949 . S
C2058 C2066 1.574 . S
C2058 C2074 1.368 . S
H2059 C2067 0.950 . S
H2060 C2065 0.950 . S
H2061 C2066 0.949 . S
H2062 C2068 0.950 . S
H2063 C2069 0.950 . S
H2064 C2070 0.949 . S
C2065 H2060 0.950 . S
C2065 C2067 1.327 . S
C2065 C2071 1.429 . S
C2066 C2058 1.574 . S
C2066 H2061 0.949 . S
C2066 C2072 1.368 . S
C2067 C2051 1.349 . S
C2067 H2059 0.950 . S
C2067 C2065 1.327 . S
C2068 C2056 1.349 . S
C2068 H2062 0.950 . S
C2068 C2069 1.327 . S
C2069 H2063 0.950 . S
C2069 C2068 1.327 . S
C2069 C2073 1.429 . S
C2070 C2053 1.574 . S
C2070 H2064 0.949 . S
C2070 C2074 1.368 . S
C2071 C2052 1.429 . S
C2071 C2065 1.429 . S
C2071 C2072 1.523 . S
C2072 C2053 1.368 . S
C2072 C2066 1.368 . S
C2072 C2071 1.523 . S
C2073 C2057 1.429 . S
C2073 C2069 1.429 . S
C2073 C2074 1.523 . S
C2074 C2058 1.368 . S
C2074 C2070 1.368 . S
C2074 C2073 1.523 . S
H2075 C2050 0.950 . S
H2076 C2052 0.950 . S
H2077 C2053 0.949 . S
H2078 C2055 0.950 . S
H2079 C2057 0.950 . S
C641 C131 1.788 . S
C646 C10 1.789 1_556 S
C671 C7 0.698 . S
C676 C56 0.649 . S
C701 C90 0.746 . S
C706 C59 0.746 . S
C731 C127 0.723 . S
C736 C87 0.718 . S
C761 C167 2.173 . S
C766 C202 2.155 . S
C791 C219 0.947 . S
C796 C259 0.947 1_566 S
C821 C256 2.144 . S
C826 C282 2.145 . S
C851 C171 1.668 . S
C856 C299 1.661 . S
C881 C376 2.881 . S
C886 C11 2.851 . S
C911 C402 1.216 . S
C916 C42 1.233 . S
C941 C91 4.368 . S
C946 C531 4.358 . S
C971 C330 0.686 . S
C976 C130 0.681 . S
C1001 C450 0.506 . S
C1006 C170 0.521 . S
C1031 C571 3.067 . S
C1036 C216 3.076 . S
C1061 C242 2.025 1_556 S
C1066 C482 2.011 . S
C1091 C611 3.028 . S
C1096 C296 3.017 . S
C1121 C331 1.771 . S
C1126 C530 1.768 . S
C1151 C362 2.263 . S
C1156 C327 2.284 . S
C1181 C419 0.426 . S
C1186 C379 0.409 . S
C1211 C570 1.649 . S
C1216 C451 1.653 . S
C1241 C499 0.578 . S
C1246 C610 0.563 . S
C1271 C442 1.653 . S
C1276 C19 1.649 . S
C1301 C487 0.710 . S
C1306 C16 0.750 . S
C1331 C490 0.578 . S
C1336 C99 0.560 . S
C1361 C96 0.397 . S
C1366 C456 0.412 . S
C1391 C371 2.263 . S
C1396 C176 2.283 . S
C1421 C370 0.408 . S
C1426 C250 0.426 . S
C1451 C536 0.919 . S
C1456 C247 0.920 . S
C1481 C162 1.770 . S
C1486 C539 1.768 . S
C1511 C207 3.076 . S
C1516 C2 3.084 . S
C1541 C411 2.025 . S
C1546 C491 2.011 . S
C1571 C82 3.027 . S
C1576 C287 3.013 . S
C1601 C339 0.521 . S
C1606 C459 0.506 . S
C1631 C139 0.681 . S
C1636 C179 0.686 . S
C1661 C367 2.881 . S
C1666 C562 2.851 . S
C1691 C251 1.217 1_565 S
C1696 C51 1.233 . S
C1721 C602 4.368 . S
C1726 C522 4.354 . S
C1751 C322 1.668 . S
C1756 C290 1.661 . S
C1781 C336 2.173 . S
C1786 C211 2.155 . S
C1811 C410 0.947 . S
C1816 C210 0.947 . S
C1841 C122 1.788 . S
C1846 C579 1.789 . S
C1871 C50 0.745 . S
C1876 C619 0.746 . S
C1901 C496 0.710 . S
C1906 C567 0.750 . S
C1931 C447 0.413 . S
C1936 C607 0.397 . S
C1961 C416 0.920 . S
C1966 C527 0.919 . S
C1991 C576 0.699 . S
C1996 C47 0.649 . S
C2021 C136 0.724 . S
C2026 C616 0.722 . S
C2051 C291 2.145 . S
C2056 C407 2.144 . S
