# Generated by pormake.
# Topology umg, (4)-cn, num edge types: 1
# Building blocks:
#     Node 0, Type 0, BuildingBlock: NAWXER_clean_sbu_0, # of connection points: 4
#     Node 1, Type 0, BuildingBlock: NAWXER_clean_sbu_0, # of connection points: 4
#     Node 2, Type 0, BuildingBlock: NAWXER_clean_sbu_0, # of connection points: 4
#     Node 3, Type 0, BuildingBlock: NAWXER_clean_sbu_0, # of connection points: 4
#     Node 4, Type 0, BuildingBlock: NAWXER_clean_sbu_0, # of connection points: 4
#     Node 5, Type 0, BuildingBlock: NAWXER_clean_sbu_0, # of connection points: 4
#     Node 6, Type 0, BuildingBlock: NAWXER_clean_sbu_0, # of connection points: 4
#     Node 7, Type 0, BuildingBlock: NAWXER_clean_sbu_0, # of connection points: 4
#     Node 8, Type 0, BuildingBlock: NAWXER_clean_sbu_0, # of connection points: 4
#     Node 9, Type 0, BuildingBlock: NAWXER_clean_sbu_0, # of connection points: 4
#     Node 10, Type 0, BuildingBlock: NAWXER_clean_sbu_0, # of connection points: 4
#     Node 11, Type 0, BuildingBlock: NAWXER_clean_sbu_0, # of connection points: 4
#     Edge 12, Type (0, 0), BuildingBlock: KIFKEQ_clean_linker_1, # of connection points: 2
#     Edge 13, Type (0, 0), BuildingBlock: KIFKEQ_clean_linker_1, # of connection points: 2
#     Edge 14, Type (0, 0), BuildingBlock: KIFKEQ_clean_linker_1, # of connection points: 2
#     Edge 15, Type (0, 0), BuildingBlock: KIFKEQ_clean_linker_1, # of connection points: 2
#     Edge 16, Type (0, 0), BuildingBlock: KIFKEQ_clean_linker_1, # of connection points: 2
#     Edge 17, Type (0, 0), BuildingBlock: KIFKEQ_clean_linker_1, # of connection points: 2
#     Edge 18, Type (0, 0), BuildingBlock: KIFKEQ_clean_linker_1, # of connection points: 2
#     Edge 19, Type (0, 0), BuildingBlock: KIFKEQ_clean_linker_1, # of connection points: 2
#     Edge 20, Type (0, 0), BuildingBlock: KIFKEQ_clean_linker_1, # of connection points: 2
#     Edge 21, Type (0, 0), BuildingBlock: KIFKEQ_clean_linker_1, # of connection points: 2
#     Edge 22, Type (0, 0), BuildingBlock: KIFKEQ_clean_linker_1, # of connection points: 2
#     Edge 23, Type (0, 0), BuildingBlock: KIFKEQ_clean_linker_1, # of connection points: 2
#     Edge 24, Type (0, 0), BuildingBlock: KIFKEQ_clean_linker_1, # of connection points: 2
#     Edge 25, Type (0, 0), BuildingBlock: KIFKEQ_clean_linker_1, # of connection points: 2
#     Edge 26, Type (0, 0), BuildingBlock: KIFKEQ_clean_linker_1, # of connection points: 2
#     Edge 27, Type (0, 0), BuildingBlock: KIFKEQ_clean_linker_1, # of connection points: 2
#     Edge 28, Type (0, 0), BuildingBlock: KIFKEQ_clean_linker_1, # of connection points: 2
#     Edge 29, Type (0, 0), BuildingBlock: KIFKEQ_clean_linker_1, # of connection points: 2
#     Edge 30, Type (0, 0), BuildingBlock: KIFKEQ_clean_linker_1, # of connection points: 2
#     Edge 31, Type (0, 0), BuildingBlock: KIFKEQ_clean_linker_1, # of connection points: 2
#     Edge 32, Type (0, 0), BuildingBlock: KIFKEQ_clean_linker_1, # of connection points: 2
#     Edge 33, Type (0, 0), BuildingBlock: KIFKEQ_clean_linker_1, # of connection points: 2
#     Edge 34, Type (0, 0), BuildingBlock: KIFKEQ_clean_linker_1, # of connection points: 2
#     Edge 35, Type (0, 0), BuildingBlock: KIFKEQ_clean_linker_1, # of connection points: 2
# Relax obj value: 0.016
# Max RMSD: 0.162
# Mean RMSD: 0.161
data_MOF--net-umg--node1-NAWXER_clean_sbu_0--edge1-KIFKEQ_clean_linker_1
_symmetry_space_group_name_H-M    P1
_symmetry_Int_Tables_number       1
_symmetry_cell_setting            triclinic
loop_
_symmetry_equiv_pos_as_xyz
'x, y, z'
_cell_length_a     29.823716
_cell_length_b     29.826672
_cell_length_c     88.826236
_cell_angle_alpha  89.965392
_cell_angle_beta   90.005776
_cell_angle_gamma 120.00359
loop_
_atom_site_label
_atom_site_type_symbol
_atom_site_fract_x
_atom_site_fract_y
_atom_site_fract_z
_atom_type_partial_charge
C0 C 0.19171 0.53312 0.09084 0.0
C1 C 0.35582 0.53412 0.09124 0.0
O2 O 0.19925 0.49506 0.09244 0.0
Zn3 Zn 0.27366 0.5336 0.09119 0.0
O4 O 0.23072 0.57892 0.08928 0.0
Zn5 Zn 0.3142 0.61476 0.08858 0.0
O6 O 0.33078 0.64649 0.06898 0.0
O7 O 0.28681 0.56107 0.06822 0.0
O8 O 0.36229 0.57977 0.0897 0.0
O9 O 0.31027 0.49576 0.09253 0.0
O10 O 0.29459 0.57677 0.11186 0.0
O11 O 0.33573 0.65964 0.10592 0.0
C12 C 0.30911 0.60487 0.06137 0.0
C13 C 0.31802 0.62442 0.1159 0.0
C14 C 0.70202 0.31514 0.44931 0.0
C15 C 0.70875 0.30526 0.39473 0.0
O16 O 0.68458 0.33337 0.43947 0.0
Zn17 Zn 0.70586 0.31068 0.42202 0.0
O18 O 0.72525 0.29086 0.44509 0.0
Zn19 Zn 0.74593 0.26948 0.42412 0.0
O20 O 0.82047 0.30533 0.42505 0.0
O21 O 0.78914 0.35805 0.42267 0.0
O22 O 0.73055 0.28293 0.40137 0.0
O23 O 0.6893 0.32698 0.40252 0.0
O24 O 0.65738 0.2273 0.4233 0.0
O25 O 0.7096 0.19507 0.42506 0.0
C26 C 0.8281 0.35106 0.42388 0.0
C27 C 0.66398 0.18804 0.42437 0.0
C28 C 0.39614 0.69838 0.78287 0.0
C29 C 0.41416 0.70908 0.72828 0.0
O30 O 0.36052 0.6833 0.77305 0.0
Zn31 Zn 0.40483 0.70489 0.75553 0.0
O32 O 0.44361 0.72102 0.77866 0.0
Zn33 Zn 0.48617 0.74428 0.75792 0.0
O34 O 0.52466 0.81891 0.75935 0.0
O35 O 0.44085 0.78774 0.75648 0.0
O36 O 0.45808 0.73003 0.73504 0.0
O37 O 0.3727 0.68986 0.73597 0.0
O38 O 0.4397 0.65611 0.75621 0.0
O39 O 0.52398 0.70782 0.75889 0.0
C40 C 0.48664 0.82659 0.75799 0.0
C41 C 0.48539 0.66238 0.75755 0.0
C42 C 0.70454 0.39178 0.11618 0.0
C43 C 0.71128 0.41028 0.06164 0.0
O44 O 0.68378 0.35631 0.10634 0.0
Zn45 Zn 0.70633 0.40082 0.08887 0.0
O46 O 0.72934 0.43931 0.11202 0.0
Zn47 Zn 0.74828 0.48208 0.09131 0.0
O48 O 0.71215 0.52055 0.09285 0.0
O49 O 0.65945 0.4368 0.08992 0.0
O50 O 0.7343 0.45417 0.06841 0.0
O51 O 0.68908 0.36879 0.06932 0.0
O52 O 0.79005 0.43573 0.08946 0.0
O53 O 0.82255 0.51997 0.0922 0.0
C54 C 0.66642 0.48259 0.09149 0.0
C55 C 0.82946 0.48144 0.0908 0.0
C56 C 0.31783 0.69936 0.44945 0.0
C57 C 0.30813 0.70749 0.39488 0.0
O58 O 0.33565 0.68174 0.43955 0.0
Zn59 Zn 0.31331 0.70378 0.42217 0.0
O60 O 0.2937 0.72285 0.44531 0.0
Zn61 Zn 0.27178 0.74345 0.42439 0.0
O62 O 0.19748 0.7068 0.42572 0.0
O63 O 0.22988 0.65505 0.42299 0.0
O64 O 0.28503 0.72837 0.40158 0.0
O65 O 0.33063 0.68871 0.40263 0.0
O66 O 0.36048 0.78695 0.42343 0.0
O67 O 0.30738 0.8181 0.42506 0.0
C68 C 0.19053 0.66134 0.42442 0.0
C69 C 0.35325 0.8258 0.42443 0.0
C70 C 0.53708 0.18819 0.75798 0.0
C71 C 0.53632 0.3514 0.75776 0.0
O72 O 0.49869 0.19532 0.75931 0.0
Zn73 Zn 0.53658 0.26981 0.75803 0.0
O74 O 0.58272 0.2274 0.75646 0.0
Zn75 Zn 0.61778 0.31044 0.75541 0.0
O76 O 0.66267 0.33347 0.77276 0.0
O77 O 0.5798 0.29164 0.77869 0.0
O78 O 0.58207 0.35812 0.75617 0.0
O79 O 0.4982 0.30583 0.75935 0.0
O80 O 0.564 0.28421 0.73506 0.0
O81 O 0.64944 0.32564 0.73581 0.0
C82 C 0.62746 0.31573 0.78274 0.0
C83 C 0.60779 0.3057 0.72821 0.0
C84 C 0.48455 0.82541 0.5849 0.0
C85 C 0.48445 0.66173 0.58471 0.0
O86 O 0.52272 0.81803 0.58332 0.0
Zn87 Zn 0.48448 0.74365 0.58465 0.0
O88 O 0.43884 0.7863 0.58651 0.0
Zn89 Zn 0.40338 0.70285 0.58732 0.0
O90 O 0.37179 0.68637 0.60693 0.0
O91 O 0.45722 0.73063 0.60765 0.0
O92 O 0.43872 0.65505 0.58626 0.0
O93 O 0.52265 0.70734 0.58334 0.0
O94 O 0.44108 0.72234 0.56401 0.0
O95 O 0.35828 0.68092 0.57002 0.0
C96 C 0.41345 0.70824 0.61452 0.0
C97 C 0.39337 0.69868 0.56001 0.0
C98 C 0.70133 0.39007 0.89336 0.0
C99 C 0.71103 0.40964 0.94789 0.0
O100 O 0.68358 0.35486 0.90335 0.0
Zn101 Zn 0.7065 0.39973 0.92069 0.0
O102 O 0.72538 0.43773 0.8974 0.0
Zn103 Zn 0.7471 0.48091 0.91807 0.0
O104 O 0.82158 0.51886 0.91683 0.0
O105 O 0.78958 0.43485 0.91968 0.0
O106 O 0.73257 0.45344 0.94104 0.0
O107 O 0.69117 0.36802 0.94028 0.0
O108 O 0.65877 0.43541 0.91989 0.0
O109 O 0.71108 0.51929 0.91672 0.0
C110 C 0.82877 0.48051 0.91817 0.0
C111 C 0.6655 0.48117 0.91829 0.0
C112 C 0.30936 0.70834 0.28114 0.0
C113 C 0.31708 0.69835 0.22655 0.0
O114 O 0.32794 0.68564 0.2734 0.0
Zn115 Zn 0.31288 0.70293 0.25384 0.0
O116 O 0.28861 0.73155 0.27442 0.0
Zn117 Zn 0.2735 0.7448 0.25162 0.0
O118 O 0.19883 0.70947 0.25097 0.0
O119 O 0.22971 0.65615 0.25263 0.0
O120 O 0.29383 0.72268 0.23072 0.0
O121 O 0.33459 0.68033 0.23645 0.0
O122 O 0.36192 0.78625 0.25295 0.0
O123 O 0.3105 0.81907 0.25024 0.0
C124 C 0.19097 0.66355 0.25163 0.0
C125 C 0.35588 0.82575 0.2515 0.0
C126 C 0.60762 0.30501 0.61446 0.0
C127 C 0.62769 0.31476 0.55996 0.0
O128 O 0.64928 0.32686 0.60686 0.0
Zn129 Zn 0.61769 0.31037 0.58726 0.0
O130 O 0.56385 0.28257 0.60761 0.0
Zn131 Zn 0.53658 0.26955 0.58461 0.0
O132 O 0.49842 0.19516 0.58329 0.0
O133 O 0.58231 0.22694 0.58647 0.0
O134 O 0.57998 0.29107 0.56396 0.0
O135 O 0.66279 0.33241 0.56997 0.0
O136 O 0.58228 0.35812 0.58621 0.0
O137 O 0.49835 0.30581 0.58331 0.0
C138 C 0.53661 0.18782 0.58486 0.0
C139 C 0.53654 0.35142 0.58467 0.0
C140 C 0.31873 0.62158 0.89302 0.0
C141 C 0.30827 0.60399 0.94761 0.0
O142 O 0.33384 0.65727 0.9028 0.0
Zn143 Zn 0.31229 0.6131 0.92036 0.0
O144 O 0.29608 0.57414 0.89726 0.0
Zn145 Zn 0.27286 0.53176 0.91803 0.0
O146 O 0.19822 0.49329 0.91663 0.0
O147 O 0.22943 0.57711 0.91944 0.0
O148 O 0.28726 0.56002 0.94089 0.0
O149 O 0.32745 0.64539 0.93989 0.0
O150 O 0.36104 0.57817 0.91973 0.0
O151 O 0.30926 0.49389 0.9171 0.0
C152 C 0.19055 0.53131 0.91796 0.0
C153 C 0.35472 0.53246 0.91842 0.0
C154 C 0.7105 0.30649 0.28102 0.0
C155 C 0.70407 0.31451 0.22635 0.0
O156 O 0.68847 0.32544 0.27312 0.0
Zn157 Zn 0.70581 0.30934 0.25368 0.0
O158 O 0.73354 0.28526 0.27448 0.0
Zn159 Zn 0.74824 0.27029 0.25187 0.0
O160 O 0.82255 0.30701 0.25142 0.0
O161 O 0.78944 0.35863 0.25273 0.0
O162 O 0.72937 0.29259 0.2308 0.0
O163 O 0.68284 0.32947 0.23597 0.0
O164 O 0.65943 0.22638 0.25304 0.0
O165 O 0.71258 0.1956 0.25072 0.0
C166 C 0.82905 0.35246 0.25196 0.0
C167 C 0.66672 0.18765 0.25183 0.0
H168 H 0.29383 0.52686 0.96685 0.0
H169 H 0.32681 0.68529 0.96598 0.0
H170 H 0.29578 0.5287 0.99417 0.0
H171 H 0.32649 0.68658 0.99345 0.0
H172 H 0.3706 0.68633 0.04287 0.0
H173 H 0.37202 0.68725 0.0154 0.0
H174 H 0.24715 0.52823 0.01493 0.0
H175 H 0.24746 0.52679 0.04226 0.0
C176 C 0.30106 0.56201 0.97251 0.0
C177 C 0.30999 0.60588 0.96425 0.0
C178 C 0.30185 0.56299 0.98822 0.0
C179 C 0.3108 0.60763 0.9961 0.0
C180 C 0.3201 0.65171 0.9878 0.0
C181 C 0.32 0.65093 0.97204 0.0
C182 C 0.34351 0.65162 0.03686 0.0
C183 C 0.30917 0.60639 0.04473 0.0
C184 C 0.34409 0.6522 0.02111 0.0
C185 C 0.3099 0.60772 0.01288 0.0
C186 C 0.27492 0.56286 0.02083 0.0
C187 C 0.27483 0.5621 0.03653 0.0
H188 H 0.68836 0.36707 0.37645 0.0
H189 H 0.7242 0.24357 0.37541 0.0
H190 H 0.68893 0.36923 0.34896 0.0
H191 H 0.72259 0.24406 0.3481 0.0
H192 H 0.77314 0.29287 0.30043 0.0
H193 H 0.77231 0.29437 0.32773 0.0
H194 H 0.64468 0.32434 0.32669 0.0
H195 H 0.64714 0.32504 0.29919 0.0
C196 C 0.69583 0.34005 0.37035 0.0
C197 C 0.70667 0.30546 0.37809 0.0
C198 C 0.69589 0.34107 0.35458 0.0
C199 C 0.70625 0.30713 0.34625 0.0
C200 C 0.71577 0.27171 0.35408 0.0
C201 C 0.71637 0.27116 0.36978 0.0
C202 C 0.74491 0.29986 0.30601 0.0
C203 C 0.71001 0.30856 0.29765 0.0
C204 C 0.74418 0.30038 0.3217 0.0
C205 C 0.70799 0.30883 0.32949 0.0
C206 C 0.67343 0.3182 0.3211 0.0
C207 C 0.67462 0.31835 0.30534 0.0
H208 H 0.33293 0.6905 0.70987 0.0
H209 H 0.49148 0.72378 0.70909 0.0
H210 H 0.33176 0.69088 0.6824 0.0
H211 H 0.48976 0.7219 0.68176 0.0
H212 H 0.49157 0.77 0.63362 0.0
H213 H 0.49016 0.77037 0.66096 0.0
H214 H 0.3312 0.64534 0.66049 0.0
H215 H 0.3321 0.6467 0.63303 0.0
C216 C 0.36735 0.69739 0.70382 0.0
C217 C 0.41239 0.70745 0.71164 0.0
C218 C 0.36663 0.69733 0.68807 0.0
C219 C 0.41077 0.70671 0.67979 0.0
C220 C 0.45542 0.71576 0.6877 0.0
C221 C 0.45633 0.7165 0.7034 0.0
C222 C 0.45629 0.74261 0.63935 0.0
C223 C 0.412 0.70822 0.63116 0.0
C224 C 0.45554 0.74256 0.65506 0.0
C225 C 0.4107 0.70757 0.66301 0.0
C226 C 0.36624 0.6733 0.65479 0.0
C227 C 0.3668 0.67384 0.63903 0.0
H228 H 0.6484 0.32912 0.04326 0.0
H229 H 0.77386 0.48758 0.04242 0.0
H230 H 0.6467 0.32795 0.01578 0.0
H231 H 0.77387 0.48584 0.01509 0.0
H232 H 0.72742 0.48773 0.96699 0.0
H233 H 0.7257 0.48631 0.99433 0.0
H234 H 0.69158 0.3273 0.99386 0.0
H235 H 0.69105 0.32821 0.96639 0.0
C236 C 0.67593 0.36352 0.0372 0.0
C237 C 0.71101 0.40854 0.045 0.0
C238 C 0.67519 0.3628 0.02144 0.0
C239 C 0.70996 0.4069 0.01315 0.0
C240 C 0.74566 0.45153 0.02104 0.0
C241 C 0.74591 0.45245 0.03675 0.0
C242 C 0.71949 0.45243 0.97272 0.0
C243 C 0.70953 0.40813 0.96453 0.0
C244 C 0.71883 0.45168 0.98843 0.0
C245 C 0.70896 0.40683 0.99638 0.0
C246 C 0.69868 0.36234 0.98815 0.0
C247 C 0.69866 0.36291 0.9724 0.0
H248 H 0.29465 0.77077 0.30038 0.0
H249 H 0.32838 0.64582 0.29951 0.0
H250 H 0.29607 0.77042 0.3277 0.0
H251 H 0.32765 0.64385 0.32699 0.0
H252 H 0.37052 0.68814 0.37658 0.0
H253 H 0.37261 0.68879 0.3491 0.0
H254 H 0.24648 0.72103 0.34825 0.0
H255 H 0.24602 0.72255 0.37558 0.0
C256 C 0.30198 0.7429 0.30604 0.0
C257 C 0.31119 0.70818 0.29778 0.0
C258 C 0.30246 0.74244 0.32175 0.0
C259 C 0.31142 0.70673 0.32962 0.0
C260 C 0.32117 0.67228 0.32133 0.0
C261 C 0.32133 0.67319 0.30557 0.0
C262 C 0.34327 0.69533 0.37048 0.0
C263 C 0.30838 0.70567 0.37824 0.0
C264 C 0.34425 0.69543 0.35472 0.0
C265 C 0.30996 0.70533 0.34639 0.0
C266 C 0.27434 0.71452 0.35424 0.0
C267 C 0.27382 0.71505 0.36994 0.0
H268 H 0.52983 0.28969 0.70908 0.0
H269 H 0.68898 0.32483 0.70974 0.0
H270 H 0.53123 0.29115 0.68174 0.0
H271 H 0.68984 0.32399 0.68228 0.0
H272 H 0.6888 0.36721 0.6329 0.0
H273 H 0.68974 0.36893 0.66036 0.0
H274 H 0.53124 0.24294 0.66096 0.0
H275 H 0.52975 0.24298 0.63362 0.0
C276 C 0.56504 0.29729 0.70337 0.0
C277 C 0.60926 0.30702 0.71157 0.0
C278 C 0.56577 0.29779 0.68766 0.0
C279 C 0.61051 0.30725 0.67972 0.0
C280 C 0.65489 0.31724 0.68797 0.0
C281 C 0.65436 0.31744 0.70372 0.0
C282 C 0.65421 0.33993 0.63893 0.0
C283 C 0.60911 0.30518 0.6311 0.0
C284 C 0.6548 0.34067 0.65468 0.0
C285 C 0.61048 0.30623 0.66295 0.0
C286 C 0.56574 0.27088 0.65503 0.0
C287 C 0.56495 0.27064 0.63932 0.0
H288 H 0.2913 0.73891 0.20274 0.0
H289 H 0.35466 0.64039 0.21361 0.0
H290 H 0.29603 0.7233 0.17603 0.0
H291 H 0.35982 0.62524 0.18682 0.0
H292 H 0.2928 0.55853 0.13977 0.0
H293 H 0.29695 0.57896 0.16643 0.0
H294 H 0.35907 0.74051 0.15553 0.0
H295 H 0.3545 0.72006 0.12873 0.0
C296 C 0.30657 0.71419 0.19944 0.0
C297 C 0.32235 0.69067 0.21032 0.0
C298 C 0.30961 0.70556 0.18412 0.0
C299 C 0.32825 0.67301 0.17932 0.0
C300 C 0.3448 0.65011 0.19019 0.0
C301 C 0.34204 0.65898 0.20552 0.0
C302 C 0.30759 0.59849 0.14303 0.0
C303 C 0.32311 0.63765 0.13211 0.0
C304 C 0.31029 0.61021 0.15833 0.0
C305 C 0.32832 0.66133 0.16308 0.0
C306 C 0.34454 0.70067 0.15219 0.0
C307 C 0.34215 0.68898 0.13686 0.0
H308 H 0.64543 0.35409 0.46235 0.0
H309 H 0.74196 0.28832 0.47306 0.0
H310 H 0.63035 0.35908 0.48915 0.0
H311 H 0.72645 0.29294 0.49979 0.0
H312 H 0.72343 0.35086 0.54721 0.0
H313 H 0.74424 0.35595 0.52042 0.0
H314 H 0.58306 0.29548 0.50939 0.0
H315 H 0.56225 0.29076 0.53604 0.0
C316 C 0.66363 0.34094 0.4704 0.0
C317 C 0.69469 0.32058 0.46556 0.0
C318 C 0.65479 0.3436 0.48575 0.0
C319 C 0.67712 0.32629 0.49657 0.0
C320 C 0.70915 0.30708 0.49174 0.0
C321 C 0.71772 0.30411 0.4764 0.0
C322 C 0.69251 0.33899 0.53906 0.0
C323 C 0.64116 0.32023 0.54376 0.0
C324 C 0.70441 0.34169 0.52373 0.0
C325 C 0.66527 0.32608 0.51281 0.0
C326 C 0.61415 0.30835 0.51752 0.0
C327 C 0.60221 0.30532 0.53281 0.0
H328 H 0.30861 0.68368 0.79734 0.0
H329 H 0.45552 0.6915 0.8049 0.0
H330 H 0.28878 0.66731 0.82433 0.0
H331 H 0.43482 0.67375 0.83165 0.0
H332 H 0.32557 0.56201 0.87105 0.0
H333 H 0.34345 0.58253 0.84431 0.0
H334 H 0.35007 0.7287 0.85146 0.0
H335 H 0.33356 0.70903 0.87845 0.0
C336 C 0.33651 0.68182 0.80474 0.0
C337 C 0.38359 0.68886 0.79905 0.0
C338 C 0.32527 0.67275 0.82012 0.0
C339 C 0.36043 0.66945 0.82991 0.0
C340 C 0.40729 0.67628 0.82424 0.0
C341 C 0.41904 0.68648 0.80898 0.0
C342 C 0.33066 0.59847 0.86694 0.0
C343 C 0.32828 0.63401 0.87683 0.0
C344 C 0.34093 0.61012 0.85168 0.0
C345 C 0.34785 0.65697 0.84596 0.0
C346 C 0.34455 0.69222 0.8557 0.0
C347 C 0.3354 0.68108 0.87109 0.0
H348 H 0.63134 0.30457 0.13068 0.0
H349 H 0.77192 0.45024 0.13811 0.0
H350 H 0.62822 0.28436 0.15764 0.0
H351 H 0.76934 0.42916 0.16481 0.0
H352 H 0.7718 0.32274 0.2046 0.0
H353 H 0.76949 0.34032 0.1778 0.0
H354 H 0.62759 0.34293 0.18448 0.0
H355 H 0.63042 0.32676 0.2115 0.0
C356 C 0.66152 0.33209 0.13805 0.0
C357 C 0.70184 0.37897 0.13233 0.0
C358 C 0.65957 0.32063 0.1534 0.0
C359 C 0.69856 0.35533 0.16315 0.0
C360 C 0.73892 0.40194 0.15744 0.0
C361 C 0.74025 0.41394 0.14221 0.0
C362 C 0.73997 0.32686 0.20036 0.0
C363 C 0.70132 0.32351 0.21012 0.0
C364 C 0.73878 0.33698 0.18507 0.0
C365 C 0.69831 0.34274 0.1792 0.0
C366 C 0.65899 0.33833 0.18883 0.0
C367 C 0.66079 0.32937 0.20423 0.0
H368 H 0.45887 0.72369 0.53605 0.0
H369 H 0.29753 0.66217 0.5473 0.0
H370 H 0.438 0.71946 0.50942 0.0
H371 H 0.27665 0.65753 0.52053 0.0
H372 H 0.27769 0.72533 0.47332 0.0
H373 H 0.29367 0.72062 0.50002 0.0
H374 H 0.39123 0.65642 0.48908 0.0
H375 H 0.37569 0.66153 0.46231 0.0
C376 C 0.41887 0.70892 0.53285 0.0
C377 C 0.37988 0.69347 0.54382 0.0
C378 C 0.40689 0.70617 0.51756 0.0
C379 C 0.3557 0.68818 0.51287 0.0
C380 C 0.31654 0.67203 0.52382 0.0
C381 C 0.32847 0.67445 0.53913 0.0
C382 C 0.30236 0.70996 0.47659 0.0
C383 C 0.32564 0.69405 0.46567 0.0
C384 C 0.31121 0.70694 0.4919 0.0
C385 C 0.34375 0.68822 0.49665 0.0
C386 C 0.36639 0.67152 0.48575 0.0
C387 C 0.35729 0.67424 0.47043 0.0
H388 H 0.64329 0.29429 0.88052 0.0
H389 H 0.74217 0.45599 0.8695 0.0
H390 H 0.62818 0.27371 0.85373 0.0
H391 H 0.72662 0.43542 0.84282 0.0
H392 H 0.72318 0.37422 0.79559 0.0
H393 H 0.74369 0.38951 0.82239 0.0
H394 H 0.58207 0.29038 0.83327 0.0
H395 H 0.56157 0.27467 0.80659 0.0
C396 C 0.66198 0.32538 0.8724 0.0
C397 C 0.69374 0.3768 0.87716 0.0
C398 C 0.65315 0.31361 0.85707 0.0
C399 C 0.67617 0.35296 0.84617 0.0
C400 C 0.70881 0.40417 0.85093 0.0
C401 C 0.7174 0.41597 0.86624 0.0
C402 C 0.6921 0.35542 0.80371 0.0
C403 C 0.64072 0.32342 0.79895 0.0
C404 C 0.70382 0.36436 0.81905 0.0
C405 C 0.66447 0.3412 0.82993 0.0
C406 C 0.61332 0.30832 0.82517 0.0
C407 C 0.60156 0.29963 0.80986 0.0
H408 H 0.92002 0.56879 0.09826 0.0
H409 H 0.85887 0.41102 0.0833 0.0
H410 H 1.00694 0.58063 0.09856 0.0
H411 H 0.94597 0.42335 0.08303 0.0
H412 H 0.10148 0.44565 0.09862 0.0
H413 H 0.0143 0.43334 0.09889 0.0
H414 H 0.07432 0.58965 0.08256 0.0
H415 H 0.16152 0.60246 0.08285 0.0
C416 C 0.92519 0.53674 0.09491 0.0
C417 C 0.88248 0.48895 0.09077 0.0
C418 C 0.97513 0.5436 0.095 0.0
C419 C 0.98371 0.50299 0.09079 0.0
C420 C 0.94089 0.45525 0.08658 0.0
C421 C 0.89089 0.44825 0.08664 0.0
C422 C 0.09602 0.47737 0.0951 0.0
C423 C 0.13849 0.52507 0.09076 0.0
C424 C 0.04594 0.47023 0.09516 0.0
C425 C 0.03705 0.51049 0.09075 0.0
C426 C 0.07964 0.55805 0.0863 0.0
C427 C 0.12971 0.56532 0.08637 0.0
H428 H 0.66114 0.09718 0.41782 0.0
H429 H 0.56423 0.15924 0.43161 0.0
H430 H 0.58606 0.01035 0.41762 0.0
H431 H 0.48947 0.07224 0.43227 0.0
H432 H 0.35541 0.91644 0.41781 0.0
H433 H 0.43029 1.00354 0.41759 0.0
H434 H 0.52727 0.94239 0.43251 0.0
H435 H 0.45287 0.85529 0.43188 0.0
C436 C 0.62382 0.09213 0.42099 0.0
C437 C 0.61859 0.13505 0.4247 0.0
C438 C 0.58067 0.04222 0.42098 0.0
C439 C 0.5313 0.03382 0.42496 0.0
C440 C 0.52642 0.07696 0.42884 0.0
C441 C 0.56942 0.12695 0.42858 0.0
C442 C 0.39279 0.92174 0.42104 0.0
C443 C 0.39828 0.879 0.4248 0.0
C444 C 0.43581 0.97179 0.42101 0.0
C445 C 0.48524 0.98044 0.42502 0.0
C446 C 0.4903 0.93748 0.42902 0.0
C447 C 0.44748 0.88741 0.42877 0.0
H448 H 0.44904 0.3544 0.76561 0.0
H449 H 0.60575 0.45086 0.74973 0.0
H450 H 0.43692 0.42938 0.76587 0.0
H451 H 0.59313 0.52535 0.74943 0.0
H452 H 0.57271 0.65909 0.76502 0.0
H453 H 0.58439 0.58392 0.7654 0.0
H454 H 0.42693 0.48765 0.74998 0.0
H455 H 0.41477 0.5625 0.75016 0.0
C456 C 0.48077 0.39154 0.76206 0.0
C457 C 0.52839 0.39665 0.75769 0.0
C458 C 0.47375 0.43455 0.76212 0.0
C459 C 0.51404 0.48362 0.75768 0.0
C460 C 0.56152 0.48849 0.7532 0.0
C461 C 0.56868 0.44562 0.75327 0.0
C462 C 0.54059 0.62187 0.76172 0.0
C463 C 0.49281 0.61682 0.75758 0.0
C464 C 0.54735 0.57873 0.76184 0.0
C465 C 0.50665 0.52953 0.75769 0.0
C466 C 0.4589 0.52464 0.75349 0.0
C467 C 0.45201 0.5677 0.7535 0.0
H468 H 0.60643 0.15786 0.59256 0.0
H469 H 0.44918 0.09751 0.57717 0.0
H470 H 0.59379 0.0707 0.59279 0.0
H471 H 0.43703 0.01044 0.57685 0.0
H472 H 0.57201 0.91571 0.57719 0.0
H473 H 0.58419 1.0028 0.57685 0.0
H474 H 0.42746 0.94256 0.59282 0.0
H475 H 0.41479 0.8554 0.59261 0.0
C476 C 0.56923 0.126 0.58911 0.0
C477 C 0.52879 0.13468 0.58486 0.0
C478 C 0.56207 0.07596 0.58915 0.0
C479 C 0.5144 0.03331 0.5848 0.0
C480 C 0.47401 0.04212 0.5805 0.0
C481 C 0.48104 0.09215 0.58059 0.0
C482 C 0.54016 0.92109 0.58061 0.0
C483 C 0.49241 0.87856 0.5849 0.0
C484 C 0.54722 0.97112 0.58051 0.0
C485 C 0.50683 0.97994 0.58481 0.0
C486 C 0.45917 0.9373 0.58917 0.0
C487 C 0.45198 0.88725 0.58915 0.0
H488 H 0.45463 0.603 0.92581 0.0
H489 H 0.35789 0.44508 0.91098 0.0
H490 H 0.52943 0.59074 0.92602 0.0
H491 H 0.433 0.43331 0.91062 0.0
H492 H 0.566 0.41177 0.9263 0.0
H493 H 0.49156 0.42448 0.92659 0.0
H494 H 0.58764 0.58068 0.91014 0.0
H495 H 0.66257 0.56847 0.91041 0.0
C496 C 0.44939 0.56574 0.92248 0.0
C497 C 0.40025 0.52498 0.91841 0.0
C498 C 0.49242 0.55879 0.92251 0.0
C499 C 0.48747 0.51102 0.91832 0.0
C500 C 0.43825 0.47036 0.91417 0.0
C501 C 0.39514 0.47717 0.91428 0.0
C502 C 0.57127 0.44886 0.92275 0.0
C503 C 0.62027 0.48912 0.91834 0.0
C504 C 0.52843 0.45607 0.92282 0.0
C505 C 0.53334 0.50357 0.91834 0.0
C506 C 0.58244 0.54382 0.91389 0.0
C507 C 0.62543 0.53676 0.91396 0.0
H508 H 0.10037 0.66176 0.25809 0.0
H509 H 0.1613 0.56377 0.24442 0.0
H510 H 0.0132 0.58691 0.25843 0.0
H511 H 0.07419 0.48943 0.24394 0.0
H512 H 0.91997 0.35611 0.25895 0.0
H513 H 1.00662 0.43141 0.25911 0.0
H514 H 0.94431 0.52701 0.24384 0.0
H515 H 0.85741 0.45199 0.24451 0.0
C516 C 0.09501 0.62428 0.25498 0.0
C517 C 0.13771 0.61862 0.2513 0.0
C518 C 0.04493 0.58129 0.25508 0.0
C519 C 0.03625 0.53173 0.25124 0.0
C520 C 0.07915 0.52652 0.2473 0.0
C521 C 0.12922 0.5693 0.24747 0.0
C522 C 0.92487 0.39326 0.25564 0.0
C523 C 0.88187 0.39812 0.25174 0.0
C524 C 0.97468 0.43653 0.25562 0.0
C525 C 0.98291 0.48565 0.25143 0.0
C526 C 0.93969 0.49022 0.24741 0.0
C527 C 0.88977 0.44709 0.24769 0.0
H528 H 0.56662 0.41307 0.08391 0.0
H529 H 0.66389 0.57016 0.09934 0.0
H530 H 0.49223 0.42579 0.08381 0.0
H531 H 0.58895 0.5824 0.09981 0.0
H532 H 0.4558 0.60438 0.08389 0.0
H533 H 0.53054 0.5921 0.08392 0.0
H534 H 0.43399 0.43516 0.09975 0.0
H535 H 0.35886 0.44695 0.09914 0.0
C536 C 0.57206 0.45025 0.08741 0.0
C537 C 0.62125 0.49063 0.09162 0.0
C538 C 0.52923 0.45745 0.08745 0.0
C539 C 0.53433 0.50509 0.09185 0.0
C540 C 0.5836 0.54543 0.09613 0.0
C541 C 0.62659 0.53836 0.09595 0.0
C542 C 0.45051 0.56723 0.08737 0.0
C543 C 0.4013 0.52659 0.09147 0.0
C544 C 0.49352 0.56028 0.08749 0.0
C545 C 0.48852 0.51263 0.09186 0.0
C546 C 0.43927 0.47211 0.09607 0.0
C547 C 0.39615 0.47892 0.09581 0.0
H548 H 0.91818 0.35316 0.43141 0.0
H549 H 0.85848 0.45114 0.41652 0.0
H550 H 1.0054 0.42793 0.43198 0.0
H551 H 0.94572 0.52545 0.4165 0.0
H552 H 0.10017 0.65796 0.43228 0.0
H553 H 0.0132 0.58293 0.43255 0.0
H554 H 0.07384 0.48703 0.41638 0.0
H555 H 0.16096 0.56169 0.4167 0.0
C556 C 0.92374 0.3906 0.42814 0.0
C557 C 0.88135 0.39618 0.42396 0.0
C558 C 0.97384 0.4335 0.42838 0.0
C559 C 0.98284 0.48295 0.42429 0.0
C560 C 0.94033 0.48829 0.42 0.0
C561 C 0.89023 0.44553 0.41991 0.0
C562 C 0.09491 0.62083 0.4288 0.0
C563 C 0.13752 0.61583 0.42448 0.0
C564 C 0.04494 0.57777 0.42886 0.0
C565 C 0.03624 0.52872 0.42445 0.0
C566 C 0.07899 0.52388 0.4201 0.0
C567 C 0.12901 0.56683 0.42019 0.0
H568 H 0.44996 0.09775 0.7658 0.0
H569 H 0.60752 0.15883 0.75058 0.0
H570 H 0.43845 0.01092 0.76632 0.0
H571 H 0.59551 0.07194 0.75054 0.0
H572 H 0.57405 0.91677 0.7659 0.0
H573 H 0.58599 1.00383 0.76641 0.0
H574 H 0.42943 0.94361 0.7503 0.0
H575 H 0.41701 0.85663 0.75035 0.0
C576 C 0.48202 0.09259 0.76246 0.0
C577 C 0.52964 0.13522 0.75816 0.0
C578 C 0.47536 0.04272 0.76267 0.0
C579 C 0.51602 0.03421 0.75845 0.0
C580 C 0.5636 0.07698 0.75412 0.0
C581 C 0.57039 0.12687 0.75404 0.0
C582 C 0.54221 0.92219 0.76248 0.0
C583 C 0.49457 0.87975 0.75811 0.0
C584 C 0.54911 0.97217 0.7627 0.0
C585 C 0.50867 0.98095 0.7584 0.0
C586 C 0.46114 0.93837 0.75395 0.0
C587 C 0.45412 0.88842 0.75388 0.0
H588 H 0.57186 0.65902 0.57685 0.0
H589 H 0.41462 0.56179 0.59221 0.0
H590 H 0.58402 0.58409 0.57635 0.0
H591 H 0.42727 0.4873 0.59228 0.0
H592 H 0.44907 0.35412 0.57687 0.0
H593 H 0.43689 0.42905 0.57639 0.0
H594 H 0.59373 0.52581 0.59223 0.0
H595 H 0.60639 0.45134 0.59214 0.0
C596 C 0.54 0.62172 0.58023 0.0
C597 C 0.49227 0.61641 0.58455 0.0
C598 C 0.54704 0.57872 0.58003 0.0
C599 C 0.50666 0.52944 0.58429 0.0
C600 C 0.45898 0.52433 0.58867 0.0
C601 C 0.45181 0.5672 0.58873 0.0
C602 C 0.48094 0.39142 0.58023 0.0
C603 C 0.5287 0.39673 0.58453 0.0
C604 C 0.4739 0.43441 0.58004 0.0
C605 C 0.5143 0.48368 0.58429 0.0
C606 C 0.562 0.48879 0.58863 0.0
C607 C 0.56918 0.44593 0.58868 0.0
H608 H 0.16055 0.601 0.92555 0.0
H609 H 0.1003 0.4438 0.91017 0.0
H610 H 0.07352 0.58851 0.92567 0.0
H611 H 0.0132 0.43179 0.90972 0.0
H612 H 0.85831 0.41025 0.92563 0.0
H613 H 0.94526 0.42236 0.92563 0.0
H614 H 1.00595 0.57923 0.90971 0.0
H615 H 0.91908 0.56762 0.91027 0.0
C616 C 0.12872 0.56384 0.92207 0.0
C617 C 0.13738 0.52337 0.91787 0.0
C618 C 0.07875 0.55677 0.92204 0.0
C619 C 0.03613 0.50918 0.91765 0.0
C620 C 0.04489 0.46872 0.91338 0.0
C621 C 0.0949 0.47566 0.91356 0.0
C622 C 0.89022 0.44735 0.92213 0.0
C623 C 0.88176 0.48802 0.91799 0.0
C624 C 0.94014 0.45421 0.92203 0.0
C625 C 0.98284 0.50177 0.91765 0.0
C626 C 0.97422 0.54234 0.9134 0.0
C627 C 0.92433 0.53562 0.91364 0.0
H628 H 0.45553 0.85482 0.25911 0.0
H629 H 0.35973 0.91622 0.24353 0.0
H630 H 0.53052 0.94176 0.25932 0.0
H631 H 0.43506 1.00296 0.24316 0.0
H632 H 0.56679 0.15719 0.25926 0.0
H633 H 0.49251 0.07005 0.25928 0.0
H634 H 0.58987 0.01032 0.24372 0.0
H635 H 0.66473 0.09758 0.24428 0.0
C636 C 0.45056 0.88686 0.2556 0.0
C637 C 0.4016 0.8786 0.25135 0.0
C638 C 0.4937 0.93676 0.25563 0.0
C639 C 0.48906 0.97961 0.25126 0.0
C640 C 0.44005 0.97114 0.24686 0.0
C641 C 0.39682 0.9213 0.24699 0.0
C642 C 0.5724 0.12547 0.25585 0.0
C643 C 0.62172 0.13435 0.25177 0.0
C644 C 0.52963 0.07542 0.25576 0.0
C645 C 0.53492 0.03293 0.25143 0.0
C646 C 0.58436 0.0419 0.24733 0.0
C647 C 0.6273 0.09199 0.24757 0.0
loop_
_geom_bond_atom_site_label_1
_geom_bond_atom_site_label_2
_geom_bond_distance
_geom_bond_site_symmetry_2
_ccdc_geom_bond_type
C0 O2 1.247 . S
C0 O4 1.258 . S
C1 O8 1.247 . S
C1 O9 1.258 . S
O2 C0 1.247 . S
O2 Zn3 2.028 . S
Zn3 O2 2.028 . S
Zn3 O7 2.035 . S
Zn3 O9 2.035 . S
Zn3 O10 2.028 . S
O4 C0 1.258 . S
O4 Zn5 2.035 . S
Zn5 O4 2.035 . S
Zn5 O6 2.028 . S
Zn5 O8 2.028 . S
Zn5 O11 2.035 . S
O6 Zn5 2.028 . S
O6 C12 1.247 . S
O7 Zn3 2.035 . S
O7 C12 1.258 . S
O8 C1 1.247 . S
O8 Zn5 2.028 . S
O9 C1 1.258 . S
O9 Zn3 2.035 . S
O10 Zn3 2.028 . S
O10 C13 1.247 . S
O11 Zn5 2.035 . S
O11 C13 1.258 . S
C12 O6 1.247 . S
C12 O7 1.258 . S
C13 O10 1.247 . S
C13 O11 1.258 . S
C14 O16 1.247 . S
C14 O18 1.258 . S
C15 O22 1.247 . S
C15 O23 1.258 . S
O16 C14 1.247 . S
O16 Zn17 2.028 . S
Zn17 O16 2.028 . S
Zn17 O21 2.035 . S
Zn17 O23 2.035 . S
Zn17 O24 2.028 . S
O18 C14 1.258 . S
O18 Zn19 2.035 . S
Zn19 O18 2.035 . S
Zn19 O20 2.028 . S
Zn19 O22 2.028 . S
Zn19 O25 2.035 . S
O20 Zn19 2.028 . S
O20 C26 1.247 . S
O21 Zn17 2.035 . S
O21 C26 1.258 . S
O22 C15 1.247 . S
O22 Zn19 2.028 . S
O23 C15 1.258 . S
O23 Zn17 2.035 . S
O24 Zn17 2.028 . S
O24 C27 1.247 . S
O25 Zn19 2.035 . S
O25 C27 1.258 . S
C26 O20 1.247 . S
C26 O21 1.258 . S
C27 O24 1.247 . S
C27 O25 1.258 . S
C28 O30 1.247 . S
C28 O32 1.258 . S
C29 O36 1.247 . S
C29 O37 1.258 . S
O30 C28 1.247 . S
O30 Zn31 2.028 . S
Zn31 O30 2.028 . S
Zn31 O35 2.035 . S
Zn31 O37 2.035 . S
Zn31 O38 2.028 . S
O32 C28 1.258 . S
O32 Zn33 2.035 . S
Zn33 O32 2.035 . S
Zn33 O34 2.028 . S
Zn33 O36 2.028 . S
Zn33 O39 2.035 . S
O34 Zn33 2.028 . S
O34 C40 1.247 . S
O35 Zn31 2.035 . S
O35 C40 1.258 . S
O36 C29 1.247 . S
O36 Zn33 2.028 . S
O37 C29 1.258 . S
O37 Zn31 2.035 . S
O38 Zn31 2.028 . S
O38 C41 1.247 . S
O39 Zn33 2.035 . S
O39 C41 1.258 . S
C40 O34 1.247 . S
C40 O35 1.258 . S
C41 O38 1.247 . S
C41 O39 1.258 . S
C42 O44 1.247 . S
C42 O46 1.258 . S
C43 O50 1.247 . S
C43 O51 1.258 . S
O44 C42 1.247 . S
O44 Zn45 2.028 . S
Zn45 O44 2.028 . S
Zn45 O49 2.035 . S
Zn45 O51 2.035 . S
Zn45 O52 2.028 . S
O46 C42 1.258 . S
O46 Zn47 2.035 . S
Zn47 O46 2.035 . S
Zn47 O48 2.028 . S
Zn47 O50 2.028 . S
Zn47 O53 2.035 . S
O48 Zn47 2.028 . S
O48 C54 1.247 . S
O49 Zn45 2.035 . S
O49 C54 1.258 . S
O50 C43 1.247 . S
O50 Zn47 2.028 . S
O51 C43 1.258 . S
O51 Zn45 2.035 . S
O52 Zn45 2.028 . S
O52 C55 1.247 . S
O53 Zn47 2.035 . S
O53 C55 1.258 . S
C54 O48 1.247 . S
C54 O49 1.258 . S
C55 O52 1.247 . S
C55 O53 1.258 . S
C56 O58 1.247 . S
C56 O60 1.258 . S
C57 O64 1.247 . S
C57 O65 1.258 . S
O58 C56 1.247 . S
O58 Zn59 2.028 . S
Zn59 O58 2.028 . S
Zn59 O63 2.035 . S
Zn59 O65 2.035 . S
Zn59 O66 2.028 . S
O60 C56 1.258 . S
O60 Zn61 2.035 . S
Zn61 O60 2.035 . S
Zn61 O62 2.028 . S
Zn61 O64 2.028 . S
Zn61 O67 2.035 . S
O62 Zn61 2.028 . S
O62 C68 1.247 . S
O63 Zn59 2.035 . S
O63 C68 1.258 . S
O64 C57 1.247 . S
O64 Zn61 2.028 . S
O65 C57 1.258 . S
O65 Zn59 2.035 . S
O66 Zn59 2.028 . S
O66 C69 1.247 . S
O67 Zn61 2.035 . S
O67 C69 1.258 . S
C68 O62 1.247 . S
C68 O63 1.258 . S
C69 O66 1.247 . S
C69 O67 1.258 . S
C70 O72 1.247 . S
C70 O74 1.258 . S
C71 O78 1.247 . S
C71 O79 1.258 . S
O72 C70 1.247 . S
O72 Zn73 2.028 . S
Zn73 O72 2.028 . S
Zn73 O77 2.035 . S
Zn73 O79 2.035 . S
Zn73 O80 2.028 . S
O74 C70 1.258 . S
O74 Zn75 2.035 . S
Zn75 O74 2.035 . S
Zn75 O76 2.028 . S
Zn75 O78 2.028 . S
Zn75 O81 2.035 . S
O76 Zn75 2.028 . S
O76 C82 1.247 . S
O77 Zn73 2.035 . S
O77 C82 1.258 . S
O78 C71 1.247 . S
O78 Zn75 2.028 . S
O79 C71 1.258 . S
O79 Zn73 2.035 . S
O80 Zn73 2.028 . S
O80 C83 1.247 . S
O81 Zn75 2.035 . S
O81 C83 1.258 . S
C82 O76 1.247 . S
C82 O77 1.258 . S
C83 O80 1.247 . S
C83 O81 1.258 . S
C84 O86 1.247 . S
C84 O88 1.258 . S
C85 O92 1.247 . S
C85 O93 1.258 . S
O86 C84 1.247 . S
O86 Zn87 2.028 . S
Zn87 O86 2.028 . S
Zn87 O91 2.035 . S
Zn87 O93 2.035 . S
Zn87 O94 2.028 . S
O88 C84 1.258 . S
O88 Zn89 2.035 . S
Zn89 O88 2.035 . S
Zn89 O90 2.028 . S
Zn89 O92 2.028 . S
Zn89 O95 2.035 . S
O90 Zn89 2.028 . S
O90 C96 1.247 . S
O91 Zn87 2.035 . S
O91 C96 1.258 . S
O92 C85 1.247 . S
O92 Zn89 2.028 . S
O93 C85 1.258 . S
O93 Zn87 2.035 . S
O94 Zn87 2.028 . S
O94 C97 1.247 . S
O95 Zn89 2.035 . S
O95 C97 1.258 . S
C96 O90 1.247 . S
C96 O91 1.258 . S
C97 O94 1.247 . S
C97 O95 1.258 . S
C98 O100 1.247 . S
C98 O102 1.258 . S
C99 O106 1.247 . S
C99 O107 1.258 . S
O100 C98 1.247 . S
O100 Zn101 2.028 . S
Zn101 O100 2.028 . S
Zn101 O105 2.035 . S
Zn101 O107 2.035 . S
Zn101 O108 2.028 . S
O102 C98 1.258 . S
O102 Zn103 2.035 . S
Zn103 O102 2.035 . S
Zn103 O104 2.028 . S
Zn103 O106 2.028 . S
Zn103 O109 2.035 . S
O104 Zn103 2.028 . S
O104 C110 1.247 . S
O105 Zn101 2.035 . S
O105 C110 1.258 . S
O106 C99 1.247 . S
O106 Zn103 2.028 . S
O107 C99 1.258 . S
O107 Zn101 2.035 . S
O108 Zn101 2.028 . S
O108 C111 1.247 . S
O109 Zn103 2.035 . S
O109 C111 1.258 . S
C110 O104 1.247 . S
C110 O105 1.258 . S
C111 O108 1.247 . S
C111 O109 1.258 . S
C112 O114 1.247 . S
C112 O116 1.258 . S
C113 O120 1.247 . S
C113 O121 1.258 . S
O114 C112 1.247 . S
O114 Zn115 2.028 . S
Zn115 O114 2.028 . S
Zn115 O119 2.035 . S
Zn115 O121 2.035 . S
Zn115 O122 2.028 . S
O116 C112 1.258 . S
O116 Zn117 2.035 . S
Zn117 O116 2.035 . S
Zn117 O118 2.028 . S
Zn117 O120 2.028 . S
Zn117 O123 2.035 . S
O118 Zn117 2.028 . S
O118 C124 1.247 . S
O119 Zn115 2.035 . S
O119 C124 1.258 . S
O120 C113 1.247 . S
O120 Zn117 2.028 . S
O121 C113 1.258 . S
O121 Zn115 2.035 . S
O122 Zn115 2.028 . S
O122 C125 1.247 . S
O123 Zn117 2.035 . S
O123 C125 1.258 . S
C124 O118 1.247 . S
C124 O119 1.258 . S
C125 O122 1.247 . S
C125 O123 1.258 . S
C126 O128 1.247 . S
C126 O130 1.258 . S
C127 O134 1.247 . S
C127 O135 1.258 . S
O128 C126 1.247 . S
O128 Zn129 2.028 . S
Zn129 O128 2.028 . S
Zn129 O133 2.035 . S
Zn129 O135 2.035 . S
Zn129 O136 2.028 . S
O130 C126 1.258 . S
O130 Zn131 2.035 . S
Zn131 O130 2.035 . S
Zn131 O132 2.028 . S
Zn131 O134 2.028 . S
Zn131 O137 2.035 . S
O132 Zn131 2.028 . S
O132 C138 1.247 . S
O133 Zn129 2.035 . S
O133 C138 1.258 . S
O134 C127 1.247 . S
O134 Zn131 2.028 . S
O135 C127 1.258 . S
O135 Zn129 2.035 . S
O136 Zn129 2.028 . S
O136 C139 1.247 . S
O137 Zn131 2.035 . S
O137 C139 1.258 . S
C138 O132 1.247 . S
C138 O133 1.258 . S
C139 O136 1.247 . S
C139 O137 1.258 . S
C140 O142 1.247 . S
C140 O144 1.258 . S
C141 O148 1.247 . S
C141 O149 1.258 . S
O142 C140 1.247 . S
O142 Zn143 2.028 . S
Zn143 O142 2.028 . S
Zn143 O147 2.035 . S
Zn143 O149 2.035 . S
Zn143 O150 2.028 . S
O144 C140 1.258 . S
O144 Zn145 2.035 . S
Zn145 O144 2.035 . S
Zn145 O146 2.028 . S
Zn145 O148 2.028 . S
Zn145 O151 2.035 . S
O146 Zn145 2.028 . S
O146 C152 1.247 . S
O147 Zn143 2.035 . S
O147 C152 1.258 . S
O148 C141 1.247 . S
O148 Zn145 2.028 . S
O149 C141 1.258 . S
O149 Zn143 2.035 . S
O150 Zn143 2.028 . S
O150 C153 1.247 . S
O151 Zn145 2.035 . S
O151 C153 1.258 . S
C152 O146 1.247 . S
C152 O147 1.258 . S
C153 O150 1.247 . S
C153 O151 1.258 . S
C154 O156 1.247 . S
C154 O158 1.258 . S
C155 O162 1.247 . S
C155 O163 1.258 . S
O156 C154 1.247 . S
O156 Zn157 2.028 . S
Zn157 O156 2.028 . S
Zn157 O161 2.035 . S
Zn157 O163 2.035 . S
Zn157 O164 2.028 . S
O158 C154 1.258 . S
O158 Zn159 2.035 . S
Zn159 O158 2.035 . S
Zn159 O160 2.028 . S
Zn159 O162 2.028 . S
Zn159 O165 2.035 . S
O160 Zn159 2.028 . S
O160 C166 1.247 . S
O161 Zn157 2.035 . S
O161 C166 1.258 . S
O162 C155 1.247 . S
O162 Zn159 2.028 . S
O163 C155 1.258 . S
O163 Zn157 2.035 . S
O164 Zn157 2.028 . S
O164 C167 1.247 . S
O165 Zn159 2.035 . S
O165 C167 1.258 . S
C166 O160 1.247 . S
C166 O161 1.258 . S
C167 O164 1.247 . S
C167 O165 1.258 . S
H168 C176 0.950 . S
H169 C181 0.950 . S
H170 C178 0.950 . S
H171 C180 0.950 . S
H172 C182 0.950 . S
H173 C184 0.950 . S
H174 C186 0.950 . S
H175 C187 0.950 . S
C176 H168 0.950 . S
C176 C177 1.386 . S
C176 C178 1.391 . S
C177 C176 1.386 . S
C177 C181 1.393 . S
C178 H170 0.950 . S
C178 C176 1.391 . S
C178 C179 1.400 . S
C179 C178 1.400 . S
C179 C180 1.398 . S
C179 C185 1.491 1_556 S
C180 H171 0.950 . S
C180 C179 1.398 . S
C180 C181 1.391 . S
C181 H169 0.950 . S
C181 C177 1.393 . S
C181 C180 1.391 . S
C182 H172 0.950 . S
C182 C183 1.386 . S
C182 C184 1.391 . S
C183 C182 1.386 . S
C183 C187 1.393 . S
C184 H173 0.950 . S
C184 C182 1.391 . S
C184 C185 1.400 . S
C185 C179 1.491 1_554 S
C185 C184 1.400 . S
C185 C186 1.398 . S
C186 H174 0.950 . S
C186 C185 1.398 . S
C186 C187 1.391 . S
C187 H175 0.950 . S
C187 C183 1.393 . S
C187 C186 1.391 . S
H188 C196 0.950 . S
H189 C201 0.950 . S
H190 C198 0.950 . S
H191 C200 0.950 . S
H192 C202 0.950 . S
H193 C204 0.950 . S
H194 C206 0.950 . S
H195 C207 0.950 . S
C196 H188 0.950 . S
C196 C197 1.386 . S
C196 C198 1.391 . S
C197 C196 1.386 . S
C197 C201 1.393 . S
C198 H190 0.950 . S
C198 C196 1.391 . S
C198 C199 1.400 . S
C199 C198 1.400 . S
C199 C200 1.398 . S
C199 C205 1.491 . S
C200 H191 0.950 . S
C200 C199 1.398 . S
C200 C201 1.391 . S
C201 H189 0.950 . S
C201 C197 1.393 . S
C201 C200 1.391 . S
C202 H192 0.950 . S
C202 C203 1.386 . S
C202 C204 1.391 . S
C203 C202 1.386 . S
C203 C207 1.393 . S
C204 H193 0.950 . S
C204 C202 1.391 . S
C204 C205 1.400 . S
C205 C199 1.491 . S
C205 C204 1.400 . S
C205 C206 1.398 . S
C206 H194 0.950 . S
C206 C205 1.398 . S
C206 C207 1.391 . S
C207 H195 0.950 . S
C207 C203 1.393 . S
C207 C206 1.391 . S
H208 C216 0.950 . S
H209 C221 0.950 . S
H210 C218 0.950 . S
H211 C220 0.950 . S
H212 C222 0.950 . S
H213 C224 0.950 . S
H214 C226 0.950 . S
H215 C227 0.950 . S
C216 H208 0.950 . S
C216 C217 1.386 . S
C216 C218 1.391 . S
C217 C216 1.386 . S
C217 C221 1.393 . S
C218 H210 0.950 . S
C218 C216 1.391 . S
C218 C219 1.400 . S
C219 C218 1.400 . S
C219 C220 1.398 . S
C219 C225 1.491 . S
C220 H211 0.950 . S
C220 C219 1.398 . S
C220 C221 1.391 . S
C221 H209 0.950 . S
C221 C217 1.393 . S
C221 C220 1.391 . S
C222 H212 0.950 . S
C222 C223 1.386 . S
C222 C224 1.391 . S
C223 C222 1.386 . S
C223 C227 1.393 . S
C224 H213 0.950 . S
C224 C222 1.391 . S
C224 C225 1.400 . S
C225 C219 1.491 . S
C225 C224 1.400 . S
C225 C226 1.398 . S
C226 H214 0.950 . S
C226 C225 1.398 . S
C226 C227 1.391 . S
C227 H215 0.950 . S
C227 C223 1.393 . S
C227 C226 1.391 . S
H228 C236 0.950 . S
H229 C241 0.950 . S
H230 C238 0.950 . S
H231 C240 0.950 . S
H232 C242 0.950 . S
H233 C244 0.950 . S
H234 C246 0.950 . S
H235 C247 0.950 . S
C236 H228 0.950 . S
C236 C237 1.386 . S
C236 C238 1.391 . S
C237 C236 1.386 . S
C237 C241 1.393 . S
C238 H230 0.950 . S
C238 C236 1.391 . S
C238 C239 1.400 . S
C239 C238 1.400 . S
C239 C240 1.398 . S
C239 C245 1.491 1_554 S
C240 H231 0.950 . S
C240 C239 1.398 . S
C240 C241 1.391 . S
C241 H229 0.950 . S
C241 C237 1.393 . S
C241 C240 1.391 . S
C242 H232 0.950 . S
C242 C243 1.386 . S
C242 C244 1.391 . S
C243 C242 1.386 . S
C243 C247 1.393 . S
C244 H233 0.950 . S
C244 C242 1.391 . S
C244 C245 1.400 . S
C245 C239 1.491 1_556 S
C245 C244 1.400 . S
C245 C246 1.398 . S
C246 H234 0.950 . S
C246 C245 1.398 . S
C246 C247 1.391 . S
C247 H235 0.950 . S
C247 C243 1.393 . S
C247 C246 1.391 . S
H248 C256 0.950 . S
H249 C261 0.950 . S
H250 C258 0.950 . S
H251 C260 0.950 . S
H252 C262 0.950 . S
H253 C264 0.950 . S
H254 C266 0.950 . S
H255 C267 0.950 . S
C256 H248 0.950 . S
C256 C257 1.386 . S
C256 C258 1.391 . S
C257 C256 1.386 . S
C257 C261 1.393 . S
C258 H250 0.950 . S
C258 C256 1.391 . S
C258 C259 1.400 . S
C259 C258 1.400 . S
C259 C260 1.398 . S
C259 C265 1.491 . S
C260 H251 0.950 . S
C260 C259 1.398 . S
C260 C261 1.391 . S
C261 H249 0.950 . S
C261 C257 1.393 . S
C261 C260 1.391 . S
C262 H252 0.950 . S
C262 C263 1.386 . S
C262 C264 1.391 . S
C263 C262 1.386 . S
C263 C267 1.393 . S
C264 H253 0.950 . S
C264 C262 1.391 . S
C264 C265 1.400 . S
C265 C259 1.491 . S
C265 C264 1.400 . S
C265 C266 1.398 . S
C266 H254 0.950 . S
C266 C265 1.398 . S
C266 C267 1.391 . S
C267 H255 0.950 . S
C267 C263 1.393 . S
C267 C266 1.391 . S
H268 C276 0.950 . S
H269 C281 0.950 . S
H270 C278 0.950 . S
H271 C280 0.950 . S
H272 C282 0.950 . S
H273 C284 0.950 . S
H274 C286 0.950 . S
H275 C287 0.950 . S
C276 H268 0.950 . S
C276 C277 1.386 . S
C276 C278 1.391 . S
C277 C276 1.386 . S
C277 C281 1.393 . S
C278 H270 0.950 . S
C278 C276 1.391 . S
C278 C279 1.400 . S
C279 C278 1.400 . S
C279 C280 1.398 . S
C279 C285 1.491 . S
C280 H271 0.950 . S
C280 C279 1.398 . S
C280 C281 1.391 . S
C281 H269 0.950 . S
C281 C277 1.393 . S
C281 C280 1.391 . S
C282 H272 0.950 . S
C282 C283 1.386 . S
C282 C284 1.391 . S
C283 C282 1.386 . S
C283 C287 1.393 . S
C284 H273 0.950 . S
C284 C282 1.391 . S
C284 C285 1.400 . S
C285 C279 1.491 . S
C285 C284 1.400 . S
C285 C286 1.398 . S
C286 H274 0.950 . S
C286 C285 1.398 . S
C286 C287 1.391 . S
C287 H275 0.950 . S
C287 C283 1.393 . S
C287 C286 1.391 . S
H288 C296 0.950 . S
H289 C301 0.950 . S
H290 C298 0.950 . S
H291 C300 0.950 . S
H292 C302 0.950 . S
H293 C304 0.950 . S
H294 C306 0.950 . S
H295 C307 0.950 . S
C296 H288 0.950 . S
C296 C297 1.386 . S
C296 C298 1.391 . S
C297 C296 1.386 . S
C297 C301 1.393 . S
C298 H290 0.950 . S
C298 C296 1.391 . S
C298 C299 1.400 . S
C299 C298 1.400 . S
C299 C300 1.398 . S
C299 C305 1.491 . S
C300 H291 0.950 . S
C300 C299 1.398 . S
C300 C301 1.391 . S
C301 H289 0.950 . S
C301 C297 1.393 . S
C301 C300 1.391 . S
C302 H292 0.950 . S
C302 C303 1.386 . S
C302 C304 1.391 . S
C303 C302 1.386 . S
C303 C307 1.393 . S
C304 H293 0.950 . S
C304 C302 1.391 . S
C304 C305 1.400 . S
C305 C299 1.491 . S
C305 C304 1.400 . S
C305 C306 1.398 . S
C306 H294 0.950 . S
C306 C305 1.398 . S
C306 C307 1.391 . S
C307 H295 0.950 . S
C307 C303 1.393 . S
C307 C306 1.391 . S
H308 C316 0.950 . S
H309 C321 0.950 . S
H310 C318 0.950 . S
H311 C320 0.950 . S
H312 C322 0.950 . S
H313 C324 0.950 . S
H314 C326 0.950 . S
H315 C327 0.950 . S
C316 H308 0.950 . S
C316 C317 1.386 . S
C316 C318 1.391 . S
C317 C316 1.386 . S
C317 C321 1.393 . S
C318 H310 0.950 . S
C318 C316 1.391 . S
C318 C319 1.400 . S
C319 C318 1.400 . S
C319 C320 1.398 . S
C319 C325 1.491 . S
C320 H311 0.950 . S
C320 C319 1.398 . S
C320 C321 1.391 . S
C321 H309 0.950 . S
C321 C317 1.393 . S
C321 C320 1.391 . S
C322 H312 0.950 . S
C322 C323 1.386 . S
C322 C324 1.391 . S
C323 C322 1.386 . S
C323 C327 1.393 . S
C324 H313 0.950 . S
C324 C322 1.391 . S
C324 C325 1.400 . S
C325 C319 1.491 . S
C325 C324 1.400 . S
C325 C326 1.398 . S
C326 H314 0.950 . S
C326 C325 1.398 . S
C326 C327 1.391 . S
C327 H315 0.950 . S
C327 C323 1.393 . S
C327 C326 1.391 . S
H328 C336 0.950 . S
H329 C341 0.950 . S
H330 C338 0.950 . S
H331 C340 0.950 . S
H332 C342 0.950 . S
H333 C344 0.950 . S
H334 C346 0.950 . S
H335 C347 0.950 . S
C336 H328 0.950 . S
C336 C337 1.386 . S
C336 C338 1.391 . S
C337 C336 1.386 . S
C337 C341 1.393 . S
C338 H330 0.950 . S
C338 C336 1.391 . S
C338 C339 1.400 . S
C339 C338 1.400 . S
C339 C340 1.398 . S
C339 C345 1.491 . S
C340 H331 0.950 . S
C340 C339 1.398 . S
C340 C341 1.391 . S
C341 H329 0.950 . S
C341 C337 1.393 . S
C341 C340 1.391 . S
C342 H332 0.950 . S
C342 C343 1.386 . S
C342 C344 1.391 . S
C343 C342 1.386 . S
C343 C347 1.393 . S
C344 H333 0.950 . S
C344 C342 1.391 . S
C344 C345 1.400 . S
C345 C339 1.491 . S
C345 C344 1.400 . S
C345 C346 1.398 . S
C346 H334 0.950 . S
C346 C345 1.398 . S
C346 C347 1.391 . S
C347 H335 0.950 . S
C347 C343 1.393 . S
C347 C346 1.391 . S
H348 C356 0.950 . S
H349 C361 0.950 . S
H350 C358 0.950 . S
H351 C360 0.950 . S
H352 C362 0.950 . S
H353 C364 0.950 . S
H354 C366 0.950 . S
H355 C367 0.950 . S
C356 H348 0.950 . S
C356 C357 1.386 . S
C356 C358 1.391 . S
C357 C356 1.386 . S
C357 C361 1.393 . S
C358 H350 0.950 . S
C358 C356 1.391 . S
C358 C359 1.400 . S
C359 C358 1.400 . S
C359 C360 1.398 . S
C359 C365 1.491 . S
C360 H351 0.950 . S
C360 C359 1.398 . S
C360 C361 1.391 . S
C361 H349 0.950 . S
C361 C357 1.393 . S
C361 C360 1.391 . S
C362 H352 0.950 . S
C362 C363 1.386 . S
C362 C364 1.391 . S
C363 C362 1.386 . S
C363 C367 1.393 . S
C364 H353 0.950 . S
C364 C362 1.391 . S
C364 C365 1.400 . S
C365 C359 1.491 . S
C365 C364 1.400 . S
C365 C366 1.398 . S
C366 H354 0.950 . S
C366 C365 1.398 . S
C366 C367 1.391 . S
C367 H355 0.950 . S
C367 C363 1.393 . S
C367 C366 1.391 . S
H368 C376 0.950 . S
H369 C381 0.950 . S
H370 C378 0.950 . S
H371 C380 0.950 . S
H372 C382 0.950 . S
H373 C384 0.950 . S
H374 C386 0.950 . S
H375 C387 0.950 . S
C376 H368 0.950 . S
C376 C377 1.386 . S
C376 C378 1.391 . S
C377 C376 1.386 . S
C377 C381 1.393 . S
C378 H370 0.950 . S
C378 C376 1.391 . S
C378 C379 1.400 . S
C379 C378 1.400 . S
C379 C380 1.398 . S
C379 C385 1.491 . S
C380 H371 0.950 . S
C380 C379 1.398 . S
C380 C381 1.391 . S
C381 H369 0.950 . S
C381 C377 1.393 . S
C381 C380 1.391 . S
C382 H372 0.950 . S
C382 C383 1.386 . S
C382 C384 1.391 . S
C383 C382 1.386 . S
C383 C387 1.393 . S
C384 H373 0.950 . S
C384 C382 1.391 . S
C384 C385 1.400 . S
C385 C379 1.491 . S
C385 C384 1.400 . S
C385 C386 1.398 . S
C386 H374 0.950 . S
C386 C385 1.398 . S
C386 C387 1.391 . S
C387 H375 0.950 . S
C387 C383 1.393 . S
C387 C386 1.391 . S
H388 C396 0.950 . S
H389 C401 0.950 . S
H390 C398 0.950 . S
H391 C400 0.950 . S
H392 C402 0.950 . S
H393 C404 0.950 . S
H394 C406 0.950 . S
H395 C407 0.950 . S
C396 H388 0.950 . S
C396 C397 1.386 . S
C396 C398 1.391 . S
C397 C396 1.386 . S
C397 C401 1.393 . S
C398 H390 0.950 . S
C398 C396 1.391 . S
C398 C399 1.400 . S
C399 C398 1.400 . S
C399 C400 1.398 . S
C399 C405 1.491 . S
C400 H391 0.950 . S
C400 C399 1.398 . S
C400 C401 1.391 . S
C401 H389 0.950 . S
C401 C397 1.393 . S
C401 C400 1.391 . S
C402 H392 0.950 . S
C402 C403 1.386 . S
C402 C404 1.391 . S
C403 C402 1.386 . S
C403 C407 1.393 . S
C404 H393 0.950 . S
C404 C402 1.391 . S
C404 C405 1.400 . S
C405 C399 1.491 . S
C405 C404 1.400 . S
C405 C406 1.398 . S
C406 H394 0.950 . S
C406 C405 1.398 . S
C406 C407 1.391 . S
C407 H395 0.950 . S
C407 C403 1.393 . S
C407 C406 1.391 . S
H408 C416 0.950 . S
H409 C421 0.950 . S
H410 C418 0.950 . S
H411 C420 0.950 . S
H412 C422 0.950 . S
H413 C424 0.950 . S
H414 C426 0.950 . S
H415 C427 0.950 . S
C416 H408 0.950 . S
C416 C417 1.386 . S
C416 C418 1.391 . S
C417 C416 1.386 . S
C417 C421 1.393 . S
C418 H410 0.950 . S
C418 C416 1.391 . S
C418 C419 1.400 . S
C419 C418 1.400 . S
C419 C420 1.398 . S
C419 C425 1.491 1_655 S
C420 H411 0.950 . S
C420 C419 1.398 . S
C420 C421 1.391 . S
C421 H409 0.950 . S
C421 C417 1.393 . S
C421 C420 1.391 . S
C422 H412 0.950 . S
C422 C423 1.386 . S
C422 C424 1.391 . S
C423 C422 1.386 . S
C423 C427 1.393 . S
C424 H413 0.950 . S
C424 C422 1.391 . S
C424 C425 1.400 . S
C425 C419 1.491 1_455 S
C425 C424 1.400 . S
C425 C426 1.398 . S
C426 H414 0.950 . S
C426 C425 1.398 . S
C426 C427 1.391 . S
C427 H415 0.950 . S
C427 C423 1.393 . S
C427 C426 1.391 . S
H428 C436 0.950 . S
H429 C441 0.950 . S
H430 C438 0.950 . S
H431 C440 0.950 . S
H432 C442 0.950 . S
H433 C444 0.950 . S
H434 C446 0.950 . S
H435 C447 0.950 . S
C436 H428 0.950 . S
C436 C437 1.386 . S
C436 C438 1.391 . S
C437 C436 1.386 . S
C437 C441 1.393 . S
C438 H430 0.950 . S
C438 C436 1.391 . S
C438 C439 1.400 . S
C439 C438 1.400 . S
C439 C440 1.398 . S
C439 C445 1.491 1_545 S
C440 H431 0.950 . S
C440 C439 1.398 . S
C440 C441 1.391 . S
C441 H429 0.950 . S
C441 C437 1.393 . S
C441 C440 1.391 . S
C442 H432 0.950 . S
C442 C443 1.386 . S
C442 C444 1.391 . S
C443 C442 1.386 . S
C443 C447 1.393 . S
C444 H433 0.950 . S
C444 C442 1.391 . S
C444 C445 1.400 . S
C445 C439 1.491 1_565 S
C445 C444 1.400 . S
C445 C446 1.398 . S
C446 H434 0.950 . S
C446 C445 1.398 . S
C446 C447 1.391 . S
C447 H435 0.950 . S
C447 C443 1.393 . S
C447 C446 1.391 . S
H448 C456 0.950 . S
H449 C461 0.950 . S
H450 C458 0.950 . S
H451 C460 0.950 . S
H452 C462 0.950 . S
H453 C464 0.950 . S
H454 C466 0.950 . S
H455 C467 0.950 . S
C456 H448 0.950 . S
C456 C457 1.386 . S
C456 C458 1.391 . S
C457 C456 1.386 . S
C457 C461 1.393 . S
C458 H450 0.950 . S
C458 C456 1.391 . S
C458 C459 1.400 . S
C459 C458 1.400 . S
C459 C460 1.398 . S
C459 C465 1.491 . S
C460 H451 0.950 . S
C460 C459 1.398 . S
C460 C461 1.391 . S
C461 H449 0.950 . S
C461 C457 1.393 . S
C461 C460 1.391 . S
C462 H452 0.950 . S
C462 C463 1.386 . S
C462 C464 1.391 . S
C463 C462 1.386 . S
C463 C467 1.393 . S
C464 H453 0.950 . S
C464 C462 1.391 . S
C464 C465 1.400 . S
C465 C459 1.491 . S
C465 C464 1.400 . S
C465 C466 1.398 . S
C466 H454 0.950 . S
C466 C465 1.398 . S
C466 C467 1.391 . S
C467 H455 0.950 . S
C467 C463 1.393 . S
C467 C466 1.391 . S
H468 C476 0.950 . S
H469 C481 0.950 . S
H470 C478 0.950 . S
H471 C480 0.950 . S
H472 C482 0.950 . S
H473 C484 0.950 . S
H474 C486 0.950 . S
H475 C487 0.950 . S
C476 H468 0.950 . S
C476 C477 1.386 . S
C476 C478 1.391 . S
C477 C476 1.386 . S
C477 C481 1.393 . S
C478 H470 0.950 . S
C478 C476 1.391 . S
C478 C479 1.400 . S
C479 C478 1.400 . S
C479 C480 1.398 . S
C479 C485 1.491 1_545 S
C480 H471 0.950 . S
C480 C479 1.398 . S
C480 C481 1.391 . S
C481 H469 0.950 . S
C481 C477 1.393 . S
C481 C480 1.391 . S
C482 H472 0.950 . S
C482 C483 1.386 . S
C482 C484 1.391 . S
C483 C482 1.386 . S
C483 C487 1.393 . S
C484 H473 0.950 . S
C484 C482 1.391 . S
C484 C485 1.400 . S
C485 C479 1.491 1_565 S
C485 C484 1.400 . S
C485 C486 1.398 . S
C486 H474 0.950 . S
C486 C485 1.398 . S
C486 C487 1.391 . S
C487 H475 0.950 . S
C487 C483 1.393 . S
C487 C486 1.391 . S
H488 C496 0.950 . S
H489 C501 0.950 . S
H490 C498 0.950 . S
H491 C500 0.950 . S
H492 C502 0.950 . S
H493 C504 0.950 . S
H494 C506 0.950 . S
H495 C507 0.950 . S
C496 H488 0.950 . S
C496 C497 1.386 . S
C496 C498 1.391 . S
C497 C496 1.386 . S
C497 C501 1.393 . S
C498 H490 0.950 . S
C498 C496 1.391 . S
C498 C499 1.400 . S
C499 C498 1.400 . S
C499 C500 1.398 . S
C499 C505 1.491 . S
C500 H491 0.950 . S
C500 C499 1.398 . S
C500 C501 1.391 . S
C501 H489 0.950 . S
C501 C497 1.393 . S
C501 C500 1.391 . S
C502 H492 0.950 . S
C502 C503 1.386 . S
C502 C504 1.391 . S
C503 C502 1.386 . S
C503 C507 1.393 . S
C504 H493 0.950 . S
C504 C502 1.391 . S
C504 C505 1.400 . S
C505 C499 1.491 . S
C505 C504 1.400 . S
C505 C506 1.398 . S
C506 H494 0.950 . S
C506 C505 1.398 . S
C506 C507 1.391 . S
C507 H495 0.950 . S
C507 C503 1.393 . S
C507 C506 1.391 . S
H508 C516 0.950 . S
H509 C521 0.950 . S
H510 C518 0.950 . S
H511 C520 0.950 . S
H512 C522 0.950 . S
H513 C524 0.950 . S
H514 C526 0.950 . S
H515 C527 0.950 . S
C516 H508 0.950 . S
C516 C517 1.386 . S
C516 C518 1.391 . S
C517 C516 1.386 . S
C517 C521 1.393 . S
C518 H510 0.950 . S
C518 C516 1.391 . S
C518 C519 1.400 . S
C519 C518 1.400 . S
C519 C520 1.398 . S
C519 C525 1.491 1_455 S
C520 H511 0.950 . S
C520 C519 1.398 . S
C520 C521 1.391 . S
C521 H509 0.950 . S
C521 C517 1.393 . S
C521 C520 1.391 . S
C522 H512 0.950 . S
C522 C523 1.386 . S
C522 C524 1.391 . S
C523 C522 1.386 . S
C523 C527 1.393 . S
C524 H513 0.950 . S
C524 C522 1.391 . S
C524 C525 1.400 . S
C525 C519 1.491 1_655 S
C525 C524 1.400 . S
C525 C526 1.398 . S
C526 H514 0.950 . S
C526 C525 1.398 . S
C526 C527 1.391 . S
C527 H515 0.950 . S
C527 C523 1.393 . S
C527 C526 1.391 . S
H528 C536 0.950 . S
H529 C541 0.950 . S
H530 C538 0.950 . S
H531 C540 0.950 . S
H532 C542 0.950 . S
H533 C544 0.950 . S
H534 C546 0.950 . S
H535 C547 0.950 . S
C536 H528 0.950 . S
C536 C537 1.386 . S
C536 C538 1.391 . S
C537 C536 1.386 . S
C537 C541 1.393 . S
C538 H530 0.950 . S
C538 C536 1.391 . S
C538 C539 1.400 . S
C539 C538 1.400 . S
C539 C540 1.398 . S
C539 C545 1.491 . S
C540 H531 0.950 . S
C540 C539 1.398 . S
C540 C541 1.391 . S
C541 H529 0.950 . S
C541 C537 1.393 . S
C541 C540 1.391 . S
C542 H532 0.950 . S
C542 C543 1.386 . S
C542 C544 1.391 . S
C543 C542 1.386 . S
C543 C547 1.393 . S
C544 H533 0.950 . S
C544 C542 1.391 . S
C544 C545 1.400 . S
C545 C539 1.491 . S
C545 C544 1.400 . S
C545 C546 1.398 . S
C546 H534 0.950 . S
C546 C545 1.398 . S
C546 C547 1.391 . S
C547 H535 0.950 . S
C547 C543 1.393 . S
C547 C546 1.391 . S
H548 C556 0.950 . S
H549 C561 0.950 . S
H550 C558 0.950 . S
H551 C560 0.950 . S
H552 C562 0.950 . S
H553 C564 0.950 . S
H554 C566 0.950 . S
H555 C567 0.950 . S
C556 H548 0.950 . S
C556 C557 1.386 . S
C556 C558 1.391 . S
C557 C556 1.386 . S
C557 C561 1.393 . S
C558 H550 0.950 . S
C558 C556 1.391 . S
C558 C559 1.400 . S
C559 C558 1.400 . S
C559 C560 1.398 . S
C559 C565 1.491 1_655 S
C560 H551 0.950 . S
C560 C559 1.398 . S
C560 C561 1.391 . S
C561 H549 0.950 . S
C561 C557 1.393 . S
C561 C560 1.391 . S
C562 H552 0.950 . S
C562 C563 1.386 . S
C562 C564 1.391 . S
C563 C562 1.386 . S
C563 C567 1.393 . S
C564 H553 0.950 . S
C564 C562 1.391 . S
C564 C565 1.400 . S
C565 C559 1.491 1_455 S
C565 C564 1.400 . S
C565 C566 1.398 . S
C566 H554 0.950 . S
C566 C565 1.398 . S
C566 C567 1.391 . S
C567 H555 0.950 . S
C567 C563 1.393 . S
C567 C566 1.391 . S
H568 C576 0.950 . S
H569 C581 0.950 . S
H570 C578 0.950 . S
H571 C580 0.950 . S
H572 C582 0.950 . S
H573 C584 0.950 . S
H574 C586 0.950 . S
H575 C587 0.950 . S
C576 H568 0.950 . S
C576 C577 1.386 . S
C576 C578 1.391 . S
C577 C576 1.386 . S
C577 C581 1.393 . S
C578 H570 0.950 . S
C578 C576 1.391 . S
C578 C579 1.400 . S
C579 C578 1.400 . S
C579 C580 1.398 . S
C579 C585 1.491 1_545 S
C580 H571 0.950 . S
C580 C579 1.398 . S
C580 C581 1.391 . S
C581 H569 0.950 . S
C581 C577 1.393 . S
C581 C580 1.391 . S
C582 H572 0.950 . S
C582 C583 1.386 . S
C582 C584 1.391 . S
C583 C582 1.386 . S
C583 C587 1.393 . S
C584 H573 0.950 . S
C584 C582 1.391 . S
C584 C585 1.400 . S
C585 C579 1.491 1_565 S
C585 C584 1.400 . S
C585 C586 1.398 . S
C586 H574 0.950 . S
C586 C585 1.398 . S
C586 C587 1.391 . S
C587 H575 0.950 . S
C587 C583 1.393 . S
C587 C586 1.391 . S
H588 C596 0.950 . S
H589 C601 0.950 . S
H590 C598 0.950 . S
H591 C600 0.950 . S
H592 C602 0.950 . S
H593 C604 0.950 . S
H594 C606 0.950 . S
H595 C607 0.950 . S
C596 H588 0.950 . S
C596 C597 1.386 . S
C596 C598 1.391 . S
C597 C596 1.386 . S
C597 C601 1.393 . S
C598 H590 0.950 . S
C598 C596 1.391 . S
C598 C599 1.400 . S
C599 C598 1.400 . S
C599 C600 1.398 . S
C599 C605 1.491 . S
C600 H591 0.950 . S
C600 C599 1.398 . S
C600 C601 1.391 . S
C601 H589 0.950 . S
C601 C597 1.393 . S
C601 C600 1.391 . S
C602 H592 0.950 . S
C602 C603 1.386 . S
C602 C604 1.391 . S
C603 C602 1.386 . S
C603 C607 1.393 . S
C604 H593 0.950 . S
C604 C602 1.391 . S
C604 C605 1.400 . S
C605 C599 1.491 . S
C605 C604 1.400 . S
C605 C606 1.398 . S
C606 H594 0.950 . S
C606 C605 1.398 . S
C606 C607 1.391 . S
C607 H595 0.950 . S
C607 C603 1.393 . S
C607 C606 1.391 . S
H608 C616 0.950 . S
H609 C621 0.950 . S
H610 C618 0.950 . S
H611 C620 0.950 . S
H612 C622 0.950 . S
H613 C624 0.950 . S
H614 C626 0.950 . S
H615 C627 0.950 . S
C616 H608 0.950 . S
C616 C617 1.386 . S
C616 C618 1.391 . S
C617 C616 1.386 . S
C617 C621 1.393 . S
C618 H610 0.950 . S
C618 C616 1.391 . S
C618 C619 1.400 . S
C619 C618 1.400 . S
C619 C620 1.398 . S
C619 C625 1.491 1_455 S
C620 H611 0.950 . S
C620 C619 1.398 . S
C620 C621 1.391 . S
C621 H609 0.950 . S
C621 C617 1.393 . S
C621 C620 1.391 . S
C622 H612 0.950 . S
C622 C623 1.386 . S
C622 C624 1.391 . S
C623 C622 1.386 . S
C623 C627 1.393 . S
C624 H613 0.950 . S
C624 C622 1.391 . S
C624 C625 1.400 . S
C625 C619 1.491 1_655 S
C625 C624 1.400 . S
C625 C626 1.398 . S
C626 H614 0.950 . S
C626 C625 1.398 . S
C626 C627 1.391 . S
C627 H615 0.950 . S
C627 C623 1.393 . S
C627 C626 1.391 . S
H628 C636 0.950 . S
H629 C641 0.950 . S
H630 C638 0.950 . S
H631 C640 0.950 . S
H632 C642 0.950 . S
H633 C644 0.950 . S
H634 C646 0.950 . S
H635 C647 0.950 . S
C636 H628 0.950 . S
C636 C637 1.386 . S
C636 C638 1.391 . S
C637 C636 1.386 . S
C637 C641 1.393 . S
C638 H630 0.950 . S
C638 C636 1.391 . S
C638 C639 1.400 . S
C639 C638 1.400 . S
C639 C640 1.398 . S
C639 C645 1.491 1_565 S
C640 H631 0.950 . S
C640 C639 1.398 . S
C640 C641 1.391 . S
C641 H629 0.950 . S
C641 C637 1.393 . S
C641 C640 1.391 . S
C642 H632 0.950 . S
C642 C643 1.386 . S
C642 C644 1.391 . S
C643 C642 1.386 . S
C643 C647 1.393 . S
C644 H633 0.950 . S
C644 C642 1.391 . S
C644 C645 1.400 . S
C645 C639 1.491 1_545 S
C645 C644 1.400 . S
C645 C646 1.398 . S
C646 H634 0.950 . S
C646 C645 1.398 . S
C646 C647 1.391 . S
C647 H635 0.950 . S
C647 C643 1.393 . S
C647 C646 1.391 . S
C177 C141 1.600 . S
C183 C12 1.598 . S
C197 C15 1.608 . S
C203 C154 1.610 . S
C217 C29 1.610 . S
C223 C96 1.609 . S
C237 C43 1.609 . S
C243 C99 1.604 . S
C257 C112 1.598 . S
C263 C57 1.604 . S
C277 C83 1.599 . S
C283 C126 1.601 . S
C297 C113 1.627 . S
C303 C13 1.632 . S
C317 C14 1.627 . S
C323 C127 1.625 . S
C337 C28 1.625 . S
C343 C140 1.623 . S
C357 C42 1.627 . S
C363 C155 1.625 . S
C377 C97 1.625 . S
C383 C56 1.627 . S
C397 C98 1.627 . S
C403 C82 1.624 . S
C417 C55 1.400 . S
C423 C0 1.395 . S
C437 C27 1.387 . S
C443 C69 1.384 . S
C457 C71 1.399 . S
C463 C41 1.394 . S
C477 C138 1.383 . S
C483 C84 1.383 . S
C497 C153 1.388 . S
C503 C111 1.394 . S
C517 C124 1.399 . S
C523 C166 1.399 . S
C537 C54 1.809 . S
C543 C1 1.814 . S
C557 C26 1.820 . S
C563 C68 1.817 . S
C577 C70 1.819 . S
C583 C40 1.819 . S
C597 C85 1.814 . S
C603 C139 1.811 . S
C617 C152 1.813 . S
C623 C110 1.817 . S
C637 C125 1.813 . S
C643 C167 1.817 . S
