# Generated by pormake.
# Topology snk, (6)-cn, num edge types: 1
# Building blocks:
#     Node 0, Type 0, BuildingBlock: BETDIP_clean_sbu_0, # of connection points: 6
#     Node 1, Type 0, BuildingBlock: BETDIP_clean_sbu_0, # of connection points: 6
#     Node 2, Type 0, BuildingBlock: BETDIP_clean_sbu_0, # of connection points: 6
#     Node 3, Type 0, BuildingBlock: BETDIP_clean_sbu_0, # of connection points: 6
#     Node 4, Type 0, BuildingBlock: BETDIP_clean_sbu_0, # of connection points: 6
#     Node 5, Type 0, BuildingBlock: BETDIP_clean_sbu_0, # of connection points: 6
#     Node 6, Type 0, BuildingBlock: BETDIP_clean_sbu_0, # of connection points: 6
#     Node 7, Type 0, BuildingBlock: BETDIP_clean_sbu_0, # of connection points: 6
#     Edge 8, Type (0, 0), BuildingBlock: OJICUG_clean_linker_0, # of connection points: 2
#     Edge 9, Type (0, 0), BuildingBlock: OJICUG_clean_linker_0, # of connection points: 2
#     Edge 10, Type (0, 0), BuildingBlock: OJICUG_clean_linker_0, # of connection points: 2
#     Edge 11, Type (0, 0), BuildingBlock: OJICUG_clean_linker_0, # of connection points: 2
#     Edge 12, Type (0, 0), BuildingBlock: OJICUG_clean_linker_0, # of connection points: 2
#     Edge 13, Type (0, 0), BuildingBlock: OJICUG_clean_linker_0, # of connection points: 2
#     Edge 14, Type (0, 0), BuildingBlock: OJICUG_clean_linker_0, # of connection points: 2
#     Edge 15, Type (0, 0), BuildingBlock: OJICUG_clean_linker_0, # of connection points: 2
#     Edge 16, Type (0, 0), BuildingBlock: OJICUG_clean_linker_0, # of connection points: 2
#     Edge 17, Type (0, 0), BuildingBlock: OJICUG_clean_linker_0, # of connection points: 2
#     Edge 18, Type (0, 0), BuildingBlock: OJICUG_clean_linker_0, # of connection points: 2
#     Edge 19, Type (0, 0), BuildingBlock: OJICUG_clean_linker_0, # of connection points: 2
#     Edge 20, Type (0, 0), BuildingBlock: OJICUG_clean_linker_0, # of connection points: 2
#     Edge 21, Type (0, 0), BuildingBlock: OJICUG_clean_linker_0, # of connection points: 2
#     Edge 22, Type (0, 0), BuildingBlock: OJICUG_clean_linker_0, # of connection points: 2
#     Edge 23, Type (0, 0), BuildingBlock: OJICUG_clean_linker_0, # of connection points: 2
#     Edge 24, Type (0, 0), BuildingBlock: OJICUG_clean_linker_0, # of connection points: 2
#     Edge 25, Type (0, 0), BuildingBlock: OJICUG_clean_linker_0, # of connection points: 2
#     Edge 26, Type (0, 0), BuildingBlock: OJICUG_clean_linker_0, # of connection points: 2
#     Edge 27, Type (0, 0), BuildingBlock: OJICUG_clean_linker_0, # of connection points: 2
#     Edge 28, Type (0, 0), BuildingBlock: OJICUG_clean_linker_0, # of connection points: 2
#     Edge 29, Type (0, 0), BuildingBlock: OJICUG_clean_linker_0, # of connection points: 2
#     Edge 30, Type (0, 0), BuildingBlock: OJICUG_clean_linker_0, # of connection points: 2
#     Edge 31, Type (0, 0), BuildingBlock: OJICUG_clean_linker_0, # of connection points: 2
# Relax obj value: 0.121
# Max RMSD: 0.199
# Mean RMSD: 0.157
data_MOF--net-snk--node1-BETDIP_clean_sbu_0--edge1-OJICUG_clean_linker_0
_symmetry_space_group_name_H-M    P1
_symmetry_Int_Tables_number       1
_symmetry_cell_setting            triclinic
loop_
_symmetry_equiv_pos_as_xyz
'x, y, z'
_cell_length_a     26.08539
_cell_length_b     26.076253
_cell_length_c     20.761229
_cell_angle_alpha  96.743954
_cell_angle_beta   96.835918
_cell_angle_gamma 90.77994
loop_
_atom_site_label
_atom_site_type_symbol
_atom_site_fract_x
_atom_site_fract_y
_atom_site_fract_z
_atom_type_partial_charge
Tb0 Tb 0.99172 0.97825 0.4655 0.0
Tb1 Tb 0.02808 0.04327 0.59453 0.0
C2 C 0.96263 0.94626 0.34711 0.0
C3 C 0.97151 0.96078 0.28258 0.0
C4 C 0.98281 0.01211 0.27365 0.0
C5 C 0.9923 0.02455 0.21216 0.0
C6 C 0.9907 0.98591 0.15836 0.0
C7 C 0.97908 0.93462 0.16774 0.0
C8 C 0.96964 0.92227 0.22916 0.0
C9 C 0.05749 0.93376 0.54585 0.0
C10 C 0.08109 0.06524 0.4746 0.0
C11 C 0.05694 0.07578 0.71283 0.0
C12 C 0.0486 0.06118 0.7775 0.0
C13 C 0.03744 1.00983 0.78648 0.0
C14 C 0.02834 0.99734 0.84809 0.0
C15 C 0.03021 0.03595 0.90195 0.0
C16 C 0.04179 0.08724 0.89254 0.0
C17 C 0.05083 0.09965 0.83101 0.0
C18 C 0.96306 0.08797 0.5136 0.0
C19 C 0.9388 0.95604 0.58522 0.0
O20 O 0.9365 0.97821 0.38326 0.0
O21 O 1.00247 0.92856 0.3812 0.0
O22 O 0.05862 0.98074 0.53693 0.0
O23 O 0.02068 0.90943 0.50605 0.0
O24 O 0.04336 0.0368 0.43862 0.0
O25 O 0.08712 0.06905 0.53926 0.0
O26 O 0.08351 0.04428 0.67671 0.0
O27 O 0.01662 0.09268 0.67878 0.0
O28 O 0.96148 0.04108 0.52292 0.0
O29 O 0.99984 0.11215 0.55357 0.0
O30 O 0.97664 0.98433 0.62126 0.0
O31 O 0.93268 0.95249 0.52062 0.0
H32 H 0.98461 0.04252 0.31423 0.0
H33 H 1.00171 0.06433 0.20705 0.0
H34 H 0.97672 0.90398 0.12741 0.0
H35 H 0.96091 0.88244 0.23497 0.0
H36 H 0.03542 0.97947 0.74583 0.0
H37 H 0.01898 0.95756 0.85325 0.0
H38 H 0.04436 0.11786 0.93293 0.0
H39 H 0.0595 0.13949 0.82516 0.0
Tb40 Tb 0.28225 0.7368 0.72324 0.0
Tb41 Tb 0.23593 0.78669 0.8421 0.0
C42 C 0.3003 0.69692 0.61195 0.0
C43 C 0.28775 0.70676 0.54352 0.0
C44 C 0.24191 0.73055 0.52203 0.0
C45 C 0.23279 0.74238 0.45762 0.0
C46 C 0.2694 0.73076 0.41367 0.0
C47 C 0.31492 0.70639 0.43554 0.0
C48 C 0.32392 0.69453 0.49975 0.0
C49 C 0.34099 0.80693 0.8007 0.0
C50 C 0.20337 0.82863 0.7111 0.0
C51 C 0.22029 0.8285 0.95353 0.0
C52 C 0.22914 0.81587 1.02132 0.0
C53 C 0.27469 0.79272 0.04524 0.0
C54 C 0.28107 0.77913 0.1089 0.0
C55 C 0.24216 0.7887 0.14998 0.0
C56 C 0.19691 0.8125 0.12597 0.0
C57 C 0.19049 0.82585 0.06227 0.0
C58 C 0.1772 0.71571 0.76621 0.0
C59 C 0.3132 0.692 0.85322 0.0
O60 O 0.26249 0.68134 0.6418 0.0
O61 O 0.33032 0.73188 0.64891 0.0
O62 O 0.29292 0.80893 0.78524 0.0
O63 O 0.358 0.76601 0.76953 0.0
O64 O 0.22301 0.78656 0.68273 0.0
O65 O 0.21122 0.84214 0.77501 0.0
O66 O 0.26108 0.83842 0.92546 0.0
O67 O 0.1861 0.79911 0.91434 0.0
O68 O 0.22543 0.71447 0.78062 0.0
O69 O 0.15994 0.75626 0.798 0.0
O70 O 0.29106 0.73232 0.8827 0.0
O71 O 0.30838 0.68136 0.78885 0.0
H72 H 0.21345 0.74043 0.55506 0.0
H73 H 0.19705 0.76057 0.44226 0.0
H74 H 0.34434 0.6976 0.40355 0.0
H75 H 0.35973 0.67659 0.51562 0.0
H76 H 0.30526 0.78499 1.01473 0.0
H77 H 0.31669 0.76151 0.12612 0.0
H78 H 0.16596 0.81991 0.15598 0.0
H79 H 0.15499 0.84355 0.04468 0.0
Tb80 Tb 0.53677 0.98432 0.09333 0.0
Tb81 Tb 0.48705 0.03342 0.97637 0.0
C82 C 0.57635 0.96543 0.20459 0.0
C83 C 0.56514 0.97667 0.27277 0.0
C84 C 0.54429 0.02372 0.29588 0.0
C85 C 0.53209 0.03226 0.36014 0.0
C86 C 0.54035 0.99388 0.40247 0.0
C87 C 0.56154 0.947 0.37895 0.0
C88 C 0.57379 0.93857 0.31486 0.0
C89 C 0.46574 0.92716 1.0152 0.0
C90 C 0.44397 0.06279 0.10686 0.0
C91 C 0.44815 0.05309 0.86516 0.0
C92 C 0.45961 0.04198 0.79707 0.0
C93 C 0.4804 0.9949 0.77391 0.0
C94 C 0.4928 0.98646 0.70973 0.0
C95 C 0.48479 0.02495 0.66754 0.0
C96 C 0.46372 0.07188 0.69112 0.0
C97 C 0.45128 0.08022 0.75513 0.0
C98 C 0.55778 0.0905 0.05528 0.0
C99 C 0.57913 0.95428 0.96239 0.0
O100 O 0.59113 1.00426 0.17589 0.0
O101 O 0.54296 0.9346 0.16616 0.0
O102 O 0.46444 0.97518 0.03147 0.0
O103 O 0.50645 0.9092 0.0459 0.0
O104 O 0.48578 0.04219 0.1349 0.0
O105 O 0.43112 0.057 0.04279 0.0
O106 O 0.43284 0.01426 0.89345 0.0
O107 O 0.48167 0.08352 0.90397 0.0
O108 O 0.55924 0.04259 0.0383 0.0
O109 O 0.51696 0.10844 1.02482 0.0
O110 O 0.53741 0.97516 0.93464 0.0
O111 O 0.59225 0.96 1.02642 0.0
H112 H 0.53716 0.05375 0.26428 0.0
H113 H 0.51645 0.06906 0.37676 0.0
H114 H 0.56769 0.91626 0.40962 0.0
H115 H 0.58948 0.90185 0.29783 0.0
H116 H 0.4873 0.96478 0.8054 0.0
H117 H 0.50836 0.94963 0.69305 0.0
H118 H 0.45776 0.1027 0.66054 0.0
H119 H 0.43568 0.11697 0.77221 0.0
Tb120 Tb 0.2942 0.27887 0.34532 0.0
Tb121 Tb 0.22808 0.24183 0.21692 0.0
C122 C 0.32553 0.30963 0.46332 0.0
C123 C 0.31141 0.30012 0.52836 0.0
C124 C 0.2714 0.32688 0.55627 0.0
C125 C 0.25888 0.31766 0.61778 0.0
C126 C 0.28661 0.28211 0.65339 0.0
C127 C 0.32705 0.25594 0.62586 0.0
C128 C 0.33929 0.26485 0.56422 0.0
C129 C 0.33757 0.21107 0.26682 0.0
C130 C 0.20602 0.19067 0.33819 0.0
C131 C 0.19596 0.2137 0.09844 0.0
C132 C 0.21065 0.22399 0.03404 0.0
C133 C 0.25403 0.20151 1.00904 0.0
C134 C 0.26655 0.21105 0.94763 0.0
C135 C 0.23606 0.2433 0.90967 0.0
C136 C 0.19277 0.26577 0.93497 0.0
C137 C 0.18013 0.25603 0.99611 0.0
C138 C 0.18595 0.30955 0.29664 0.0
C139 C 0.31667 0.32915 0.22362 0.0
O140 O 0.29322 0.33515 0.42651 0.0
O141 O 0.34505 0.27082 0.42937 0.0
O142 O 0.29041 0.21091 0.27531 0.0
O143 O 0.36239 0.24789 0.30608 0.0
O144 O 0.23536 0.2281 0.37352 0.0
O145 O 0.20168 0.18409 0.27349 0.0
O146 O 0.22742 0.18683 0.13434 0.0
O147 O 0.17747 0.25255 0.13342 0.0
O148 O 0.23258 0.3092 0.28673 0.0
O149 O 0.15991 0.27408 0.25664 0.0
O150 O 0.28785 0.29125 0.18863 0.0
O151 O 0.32046 0.33636 0.28823 0.0
H152 H 0.24994 0.35527 0.53094 0.0
H153 H 0.22805 0.3391 0.638 0.0
H154 H 0.34896 0.22803 0.65167 0.0
H155 H 0.37078 0.24405 0.54466 0.0
H156 H 0.27822 0.17626 0.03662 0.0
H157 H 0.2997 0.19238 0.92951 0.0
H158 H 0.16877 0.29142 0.90783 0.0
H159 H 0.14632 0.27371 1.0138 0.0
Tb160 Tb 0.78351 0.23259 0.21268 0.0
Tb161 Tb 0.74373 0.28761 0.3335 0.0
C162 C 0.7926 0.18834 0.10005 0.0
C163 C 0.78528 0.20336 0.03346 0.0
C164 C 0.78249 0.16527 0.97953 0.0
C165 C 0.77669 0.17905 0.91596 0.0
C166 C 0.77367 0.2313 0.90517 0.0
C167 C 0.77601 0.26935 0.9596 0.0
C168 C 0.78165 0.25549 1.02314 0.0
C169 C 0.84362 0.30822 0.27803 0.0
C170 C 0.70546 0.32613 0.20224 0.0
C171 C 0.73448 0.33166 0.44618 0.0
C172 C 0.74209 0.31658 0.51274 0.0
C173 C 0.74505 0.35463 0.56673 0.0
C174 C 0.75105 0.3408 0.63027 0.0
C175 C 0.75413 0.28853 0.64099 0.0
C176 C 0.75167 0.25053 0.5865 0.0
C177 C 0.74582 0.26444 0.52299 0.0
C178 C 0.68342 0.21234 0.26754 0.0
C179 C 0.82172 0.1942 0.34413 0.0
O180 O 0.75083 0.18512 0.12859 0.0
O181 O 0.83075 0.2119 0.13944 0.0
O182 O 0.79511 0.3075 0.26794 0.0
O183 O 0.86021 0.26691 0.24723 0.0
O184 O 0.7237 0.2831 0.17403 0.0
O185 O 0.7166 0.34151 0.26548 0.0
O186 O 0.77614 0.33532 0.41754 0.0
O187 O 0.69646 0.30781 0.40684 0.0
O188 O 0.73193 0.21284 0.27803 0.0
O189 O 0.66698 0.25362 0.2986 0.0
O190 O 0.80358 0.2373 0.37221 0.0
O191 O 0.81064 0.17876 0.2809 0.0
H192 H 0.78522 0.12484 0.9866 0.0
H193 H 0.77555 0.14881 0.87529 0.0
H194 H 0.77306 0.30985 0.9531 0.0
H195 H 0.78345 0.28547 0.06422 0.0
H196 H 0.74226 0.39507 0.55973 0.0
H197 H 0.75229 0.37101 0.67099 0.0
H198 H 0.75466 0.21002 0.59294 0.0
H199 H 0.74392 0.23448 0.48186 0.0
Tb200 Tb 0.79157 0.7764 0.83938 0.0
Tb201 Tb 0.72353 0.74257 0.71161 0.0
C202 C 0.82495 0.80252 0.95787 0.0
C203 C 0.80964 0.79283 1.02223 0.0
C204 C 0.77316 0.82358 0.05221 0.0
C205 C 0.76013 0.81493 0.11368 0.0
C206 C 0.78325 0.77539 0.1467 0.0
C207 C 0.81968 0.7447 0.11665 0.0
C208 C 0.83287 0.75347 0.0554 0.0
C209 C 0.83244 0.71054 0.756 0.0
C210 C 0.70233 0.68957 0.83184 0.0
C211 C 0.69068 0.71455 0.59347 0.0
C212 C 0.7058 0.7238 0.52883 0.0
C213 C 0.74037 0.69137 0.49763 0.0
C214 C 0.7536 0.69986 0.43619 0.0
C215 C 0.73224 0.74071 0.40409 0.0
C216 C 0.69737 0.77283 0.43519 0.0
C217 C 0.68426 0.76442 0.49659 0.0
C218 C 0.6818 0.80856 0.79424 0.0
C219 C 0.81269 0.82999 0.71968 0.0
O220 O 0.79489 0.83111 0.92263 0.0
O221 O 0.84156 0.76293 0.92217 0.0
O222 O 0.78599 0.71053 0.76679 0.0
O223 O 0.85898 0.74488 0.79723 0.0
O224 O 0.73201 0.72655 0.8674 0.0
O225 O 0.69742 0.68388 0.76717 0.0
O226 O 0.72123 0.68675 0.62943 0.0
O227 O 0.67333 0.75419 0.62839 0.0
O228 O 0.72858 0.80885 0.78409 0.0
O229 O 0.65621 0.77276 0.75408 0.0
O230 O 0.78256 0.79342 0.68381 0.0
O231 O 0.81789 0.83522 0.78437 0.0
H232 H 0.75472 0.85448 1.02836 0.0
H233 H 0.73157 0.83901 0.13512 0.0
H234 H 0.83885 0.71445 0.14105 0.0
H235 H 0.86166 0.72953 0.03422 0.0
H236 H 0.75718 0.65928 0.52053 0.0
H237 H 0.78092 0.67459 0.41408 0.0
H238 H 0.67935 0.80404 0.41157 0.0
H239 H 0.65681 0.78965 0.51855 0.0
Tb240 Tb 0.48998 0.47613 0.96272 0.0
Tb241 Tb 0.52832 0.54165 0.09133 0.0
C242 C 0.45859 0.44526 0.84481 0.0
C243 C 0.46816 0.45924 0.77973 0.0
C244 C 0.44181 0.49952 0.75177 0.0
C245 C 0.45102 0.51182 0.69015 0.0
C246 C 0.48621 0.48365 0.65453 0.0
C247 C 0.51203 0.443 0.68218 0.0
C248 C 0.50308 0.43093 0.74387 0.0
C249 C 0.55768 0.43221 0.04084 0.0
C250 C 0.57867 0.56389 0.96961 0.0
C251 C 0.5579 0.57232 0.20982 0.0
C252 C 0.54676 0.55796 0.27408 0.0
C253 C 0.56923 0.51489 0.30003 0.0
C254 C 0.55903 0.50261 0.36129 0.0
C255 C 0.52617 0.53307 0.3982 0.0
C256 C 0.50373 0.57606 0.37201 0.0
C257 C 0.51409 0.58845 0.31098 0.0
C258 C 0.46055 0.58459 1.01246 0.0
C259 C 0.43995 0.45388 0.08467 0.0
O260 O 0.43359 0.47793 0.88172 0.0
O261 O 0.49717 0.42518 0.87863 0.0
O262 O 0.55817 0.47934 0.03219 0.0
O263 O 0.52054 0.40761 1.00187 0.0
O264 O 0.54098 0.53476 0.93446 0.0
O265 O 0.58574 0.56794 0.03429 0.0
O266 O 0.58316 0.53949 0.17362 0.0
O267 O 0.52021 0.59289 0.17508 0.0
O268 O 0.46064 0.53785 1.022 0.0
O269 O 0.49624 0.61032 0.05252 0.0
O270 O 0.47786 0.48272 0.11965 0.0
O271 O 0.43264 0.45006 1.02006 0.0
H272 H 0.41374 0.52136 0.77716 0.0
H273 H 0.42986 0.54284 0.66988 0.0
H274 H 0.53968 0.42077 0.65641 0.0
H275 H 0.52357 0.39924 0.76348 0.0
H276 H 0.595 0.49077 0.27332 0.0
H277 H 0.57768 0.46969 0.38017 0.0
H278 H 0.47767 0.60004 0.39839 0.0
H279 H 0.49641 0.62206 0.29262 0.0
Tb280 Tb 0.03052 0.48461 0.58195 0.0
Tb281 Tb 0.98763 0.53838 0.46568 0.0
C282 C 0.06682 0.46116 0.69217 0.0
C283 C 0.05731 0.4735 0.76067 0.0
C284 C 0.04037 0.52218 0.78442 0.0
C285 C 0.02902 0.53179 0.84892 0.0
C286 C 0.03461 0.49292 0.89079 0.0
C287 C 0.05223 0.44446 0.86676 0.0
C288 C 0.06338 0.43489 0.80235 0.0
C289 C 0.96475 0.42947 0.4943 0.0
C290 C 0.93827 0.56401 0.59363 0.0
C291 C 0.95161 0.56205 0.35546 0.0
C292 C 0.96062 0.54917 0.28688 0.0
C293 C 0.97797 0.50052 0.26364 0.0
C294 C 0.98891 0.49049 0.19901 0.0
C295 C 0.98262 0.52891 0.15654 0.0
C296 C 0.96463 0.57733 0.18011 0.0
C297 C 0.95379 0.58729 0.24461 0.0
C298 C 0.05365 0.59334 0.55312 0.0
C299 C 0.0799 0.45886 0.45446 0.0
O300 O 0.08622 0.49823 0.66415 0.0
O301 O 0.02982 0.43468 0.65391 0.0
O302 O 0.96188 0.47693 0.51336 0.0
O303 O 1.00366 0.41065 0.52763 0.0
O304 O 0.97716 0.53998 0.62315 0.0
O305 O 0.93001 0.56246 0.52928 0.0
O306 O 0.93153 0.52557 0.38382 0.0
O307 O 0.98928 0.58782 0.39333 0.0
O308 O 0.05636 0.5459 0.53396 0.0
O309 O 0.01465 0.61225 0.52007 0.0
O310 O 0.04084 0.48251 0.4246 0.0
O311 O 0.08834 0.46114 0.51882 0.0
H312 H 0.03561 0.55261 0.75309 0.0
H313 H 0.01614 0.56972 0.86608 0.0
H314 H 0.05631 0.41347 0.8973 0.0
H315 H 0.07615 0.39699 0.78474 0.0
H316 H 0.98339 0.47048 0.2955 0.0
H317 H 1.0021 0.45259 0.18226 0.0
H318 H 0.96004 0.60803 0.14917 0.0
H319 H 0.94074 0.62517 0.26184 0.0
C320 C 0.11197 0.08794 0.37164 0.0
C321 C 0.11565 0.09515 0.44035 0.0
H322 H 0.13752 0.11212 0.2855 0.0
C323 C 0.15091 0.1325 0.47516 0.0
H324 H 0.0855 0.05921 0.34317 0.0
C325 C 0.18084 0.16288 0.44191 0.0
C326 C 0.17624 0.15647 0.3731 0.0
H327 H 0.1547 0.13906 0.52803 0.0
H328 H 0.20706 0.19191 0.47033 0.0
C329 C 0.14192 0.11823 0.33841 0.0
C330 C 0.13514 0.93618 0.63085 0.0
C331 C 0.09553 0.90813 0.58886 0.0
H332 H 0.19981 0.93305 0.70502 0.0
C333 C 0.09246 0.85423 0.58731 0.0
H334 H 0.13976 0.97741 0.63101 0.0
C335 C 0.12818 0.82885 0.62675 0.0
C336 C 0.16665 0.85693 0.6702 0.0
H337 H 0.0627 0.83146 0.55505 0.0
H338 H 0.12529 0.78714 0.62389 0.0
C339 C 0.16979 0.91085 0.67254 0.0
C340 C 0.41827 0.81952 0.88349 0.0
C341 C 0.37175 0.83858 0.85573 0.0
H342 H 0.48381 0.83244 0.95609 0.0
C343 C 0.35552 0.88711 0.88133 0.0
H344 H 0.4316 0.7821 0.86498 0.0
C345 C 0.38563 0.91613 0.93395 0.0
C346 C 0.43235 0.89698 0.96125 0.0
H347 H 0.31981 0.90262 0.86053 0.0
H348 H 0.37243 0.95338 0.95323 0.0
C349 C 0.44803 0.84823 0.93594 0.0
C350 C 0.44326 0.13508 0.19502 0.0
C351 C 0.41538 0.0987 0.14836 0.0
H352 H 0.44031 0.19997 0.26725 0.0
C353 C 0.36122 0.09797 0.14183 0.0
H354 H 0.4851 0.13616 0.20116 0.0
C355 C 0.33539 0.13322 0.18206 0.0
C356 C 0.36338 0.17127 0.22656 0.0
H357 H 0.33906 0.06963 0.1067 0.0
H358 H 0.29381 0.1306 0.17832 0.0
C359 C 0.41757 0.17157 0.23283 0.0
C360 C 0.90841 0.93193 0.68793 0.0
C361 C 0.90411 0.92596 0.61919 0.0
H362 H 0.88302 0.90666 0.77358 0.0
C363 C 0.86787 0.88976 0.58387 0.0
H364 H 0.93564 0.95973 0.7168 0.0
C365 C 0.83757 0.8593 0.6166 0.0
C366 C 0.84277 0.86445 0.68539 0.0
H367 H 0.86351 0.88418 0.53096 0.0
H368 H 0.81059 0.83119 0.58775 0.0
C369 C 0.8781 0.90155 0.72065 0.0
C370 C 0.88592 0.08623 0.42783 0.0
C371 C 0.92658 0.11362 0.46867 0.0
H372 H 0.82125 0.09022 0.3539 0.0
C373 C 0.93229 0.16707 0.46739 0.0
H374 H 0.87947 0.04543 0.42963 0.0
C375 C 0.8979 0.19277 0.42665 0.0
C376 C 0.85799 0.16539 0.38491 0.0
H377 H 0.96305 0.18931 0.49852 0.0
H378 H 0.90275 0.23419 0.42743 0.0
C379 C 0.85241 0.11182 0.38506 0.0
C380 C 0.60326 0.19672 0.18987 0.0
C381 C 0.65139 0.17934 0.21492 0.0
H382 H 0.53671 0.18262 0.11901 0.0
C383 C 0.66866 0.1317 0.1878 0.0
H384 H 0.58898 0.23333 0.20975 0.0
C385 C 0.6384 0.10234 0.1356 0.0
C386 C 0.59057 0.12032 0.11011 0.0
H387 H 0.70563 0.11746 0.20654 0.0
H388 H 0.65258 0.06599 0.1148 0.0
C389 C 0.57345 0.16781 0.13761 0.0
C390 C 0.68585 0.8851 0.88139 0.0
C391 C 0.65708 0.84699 0.83776 0.0
H392 H 0.68374 0.94839 0.95764 0.0
C393 C 0.60307 0.8455 0.83515 0.0
H394 H 0.72724 0.88851 0.88252 0.0
C395 C 0.57828 0.88117 0.8752 0.0
C396 C 0.60697 0.91801 0.92037 0.0
H397 H 0.57971 0.81696 0.80166 0.0
H398 H 0.5365 0.87939 0.87155 0.0
C399 C 0.66101 0.91966 0.92372 0.0
C400 C 0.606 0.58899 0.86566 0.0
C401 C 0.61243 0.59398 0.93448 0.0
H402 H 0.62933 0.61496 0.77923 0.0
C403 C 0.65004 0.62914 0.96892 0.0
H404 H 0.57743 0.56216 0.83744 0.0
C405 C 0.67974 0.65947 0.93539 0.0
C406 C 0.67259 0.65523 0.86661 0.0
H407 H 0.65605 0.63394 1.02183 0.0
H408 H 0.70792 0.68668 0.96365 0.0
C409 C 0.63581 0.61923 0.83212 0.0
C410 C 0.6294 0.32688 0.11936 0.0
C411 C 0.6685 0.35467 0.16201 0.0
H412 H 0.56302 0.32996 0.04929 0.0
C413 C 0.6718 0.40864 0.16459 0.0
H414 H 0.62625 0.28517 0.11648 0.0
C415 C 0.63665 0.4343 0.1239 0.0
C416 C 0.59646 0.40648 0.08271 0.0
H417 H 0.70225 0.43064 0.19657 0.0
H418 H 0.64125 0.47556 0.12429 0.0
C419 C 0.59327 0.35255 0.0809 0.0
C420 C 0.95291 0.35434 0.40822 0.0
C421 C 0.93417 0.4007 0.43681 0.0
H422 H 0.93916 0.28932 0.3349 0.0
C423 C 0.88636 0.4182 0.41061 0.0
H424 H 0.98989 0.34019 0.42712 0.0
C425 C 0.85716 0.3889 0.35752 0.0
C426 C 0.87546 0.34181 0.33018 0.0
H427 H 0.8711 0.45379 0.43202 0.0
H428 H 0.81992 0.40249 0.33867 0.0
C429 C 0.92403 0.32539 0.35515 0.0
C430 C 0.89101 0.63708 0.74271 0.0
C431 C 0.85551 0.67013 0.71437 0.0
H432 H 0.94372 0.57634 0.72681 0.0
C433 C 0.84485 0.66639 0.64622 0.0
H434 H 0.89988 0.6397 0.79536 0.0
C435 C 0.87005 0.63031 0.60659 0.0
C436 C 0.90653 0.59762 0.63475 0.0
H437 H 0.81889 0.69289 0.62361 0.0
H438 H 0.86227 0.62937 0.55403 0.0
C439 C 0.91599 0.60085 0.70333 0.0
C440 C 0.38225 0.40009 0.2226 0.0
C441 C 0.34638 0.36307 0.18839 0.0
H442 H 0.43978 0.45784 0.21677 0.0
C443 C 0.34003 0.35755 0.11957 0.0
H444 H 0.38807 0.40535 0.27552 0.0
C445 C 0.3696 0.38771 0.08573 0.0
C446 C 0.40629 0.42393 0.11994 0.0
H447 H 0.31255 0.32949 0.09155 0.0
H448 H 0.36427 0.38195 0.03281 0.0
C449 C 0.41195 0.43013 0.18876 0.0
C450 C 0.4176 0.60024 0.90359 0.0
C451 C 0.42015 0.60841 0.97173 0.0
H452 H 0.38116 0.61979 0.81219 0.0
C453 C 0.38596 0.6421 1.00092 0.0
H454 H 0.44515 0.57594 0.88054 0.0
C455 C 0.34959 0.66763 0.96223 0.0
C456 C 0.34731 0.66029 0.8937 0.0
H457 H 0.38778 0.64908 0.05365 0.0
H458 H 0.32398 0.6938 0.98613 0.0
C459 C 0.38125 0.62572 0.86473 0.0
C460 C 0.09683 0.69847 0.6896 0.0
C461 C 0.14578 0.68232 0.71352 0.0
H462 H 0.02981 0.68303 0.61976 0.0
C463 C 0.16393 0.63524 0.68593 0.0
H464 H 0.08175 0.73448 0.71014 0.0
C465 C 0.13382 0.6054 0.63404 0.0
C466 C 0.08543 0.62254 0.60918 0.0
H467 H 0.20131 0.62169 0.70423 0.0
H468 H 0.14867 0.56956 0.61269 0.0
C469 C 0.06717 0.66913 0.63767 0.0
C470 C 0.1289 0.38462 0.30729 0.0
C471 C 0.1625 0.35047 0.33688 0.0
H472 H 0.07744 0.44692 0.32139 0.0
C473 C 0.17102 0.35364 0.40506 0.0
H474 H 0.12161 0.38231 0.25453 0.0
C475 C 0.146 0.39054 0.44358 0.0
C476 C 0.1115 0.42446 0.41425 0.0
H477 H 0.19521 0.32612 0.42842 0.0
H478 H 0.15221 0.39107 0.49617 0.0
C479 C 0.10379 0.42155 0.34564 0.0
C480 C 0.03909 0.9777 0.9913 0.0
C481 C 0.02002 0.023 0.9676 0.0
H482 H 0.04579 0.93102 0.07 0.0
C483 C 0.9913 0.05605 1.00735 0.0
H484 H 0.06204 0.95175 0.96259 0.0
C485 C 0.98196 0.04417 0.06906 0.0
C486 C 1.00103 0.99887 0.09277 0.0
H487 H 0.97526 0.09085 0.99037 0.0
H488 H 0.95899 0.07011 0.09774 0.0
C489 C 0.02976 0.96582 0.05302 0.0
C490 C 0.27602 0.7119 0.29319 0.0
C491 C 0.26098 0.74499 0.34579 0.0
H492 H 0.28148 0.69943 0.19046 0.0
C493 C 0.23918 0.79239 0.33321 0.0
H494 H 0.29215 0.67473 0.30081 0.0
C495 C 0.23297 0.80649 0.26982 0.0
C496 C 0.2485 0.77361 0.21741 0.0
H497 H 0.22794 0.81922 0.37261 0.0
H498 H 0.2169 0.84367 0.26209 0.0
C499 C 0.26995 0.72607 0.22986 0.0
C500 C 0.54428 0.99119 0.58608 0.0
C501 C 0.49886 0.01665 0.59953 0.0
H502 H 0.59349 0.96502 0.51419 0.0
C503 C 0.46736 0.03478 0.54759 0.0
H504 H 0.56993 0.97748 0.62495 0.0
C505 C 0.48091 0.02769 0.48397 0.0
C506 C 0.52633 1.00223 0.4705 0.0
H507 H 0.43171 0.05387 0.55586 0.0
H508 H 0.45523 0.04138 0.4451 0.0
C509 C 0.55784 0.98411 0.52246 0.0
C510 C 0.20982 0.25759 0.79217 0.0
C511 C 0.24908 0.2533 0.84392 0.0
H512 H 0.19077 0.26964 0.69185 0.0
C513 C 0.30083 0.25878 0.83225 0.0
H514 H 0.16956 0.25269 0.79874 0.0
C515 C 0.31294 0.26809 0.77064 0.0
C516 C 0.27366 0.27247 0.71909 0.0
H517 H 0.33212 0.25666 0.87101 0.0
H518 H 0.35317 0.27264 0.76366 0.0
C519 C 0.22195 0.26723 0.7307 0.0
C520 C 0.79639 0.28894 0.82296 0.0
C521 C 0.76855 0.24603 0.83749 0.0
H522 H 0.81443 0.33541 0.74976 0.0
C523 C 0.73606 0.21715 0.78676 0.0
H524 H 0.82242 0.31154 0.86057 0.0
C525 C 0.73151 0.23083 0.72317 0.0
C526 C 0.75933 0.27374 0.70864 0.0
H527 H 0.71346 0.18436 0.79637 0.0
H528 H 0.70547 0.20823 0.68556 0.0
C529 C 0.79184 0.30261 0.75937 0.0
C530 C 0.75224 0.8 0.32214 0.0
C531 C 0.74568 0.74955 0.33822 0.0
H532 H 0.76962 0.84769 0.24984 0.0
C533 C 0.75152 0.70768 0.29056 0.0
H534 H 0.7489 0.8332 0.35782 0.0
C535 C 0.76357 0.71604 0.2286 0.0
C536 C 0.76998 0.76649 0.21254 0.0
H537 H 0.74591 0.66833 0.30067 0.0
H538 H 0.76708 0.68291 0.19287 0.0
C539 C 0.76413 0.80835 0.26012 0.0
C540 C 0.50126 0.54798 0.57671 0.0
C541 C 0.49588 0.49634 0.58871 0.0
H542 H 0.51615 0.60004 0.50831 0.0
C543 C 0.5003 0.45687 0.53747 0.0
H544 H 0.49882 0.57932 0.61529 0.0
C545 C 0.50992 0.46871 0.47587 0.0
C546 C 0.51561 0.52037 0.46386 0.0
H547 H 0.4956 0.41669 0.5447 0.0
H548 H 0.51217 0.43728 0.43737 0.0
C549 C 0.51114 0.55984 0.5152 0.0
C550 C 0.97732 0.52993 0.97283 0.0
C551 C 0.02146 0.50242 0.95894 0.0
H552 H 0.92985 0.55886 0.04548 0.0
C553 C 0.05247 0.48329 1.0105 0.0
H554 H 0.95211 0.54443 0.93414 0.0
C555 C 0.03969 0.49152 0.07438 0.0
C556 C 0.99558 0.51909 0.0883 0.0
H557 H 0.08713 0.46255 1.00168 0.0
H558 H 0.06497 0.47709 0.11306 0.0
C559 C 0.96452 0.53812 0.03669 0.0
loop_
_geom_bond_atom_site_label_1
_geom_bond_atom_site_label_2
_geom_bond_distance
_geom_bond_site_symmetry_2
_ccdc_geom_bond_type
Tb0 C2 2.809 1_655 S
Tb0 O20 2.484 . S
Tb0 O21 2.440 1_655 S
Tb0 O22 2.658 1_655 S
Tb0 O23 2.409 1_655 S
Tb0 O24 2.378 1_665 S
Tb0 O28 2.325 1_565 S
Tb0 O31 2.341 . S
Tb1 C11 2.809 1_455 S
Tb1 O22 2.325 1_545 S
Tb1 O25 2.341 . S
Tb1 O26 2.484 . S
Tb1 O27 2.440 1_455 S
Tb1 O28 2.658 1_455 S
Tb1 O29 2.409 1_455 S
Tb1 O30 2.378 1_445 S
C2 Tb0 2.809 1_455 S
C2 C3 1.514 . S
C2 O20 1.248 1_455 S
C2 O21 1.266 . S
C3 C2 1.514 . S
C3 C4 1.359 1_455 S
C3 C8 1.348 . S
C4 C3 1.359 1_655 S
C4 C5 1.380 1_655 S
C4 H32 0.929 1_565 S
C5 C4 1.380 1_455 S
C5 C6 1.347 . S
C5 H33 0.931 1_465 S
C6 C5 1.347 . S
C6 C7 1.369 . S
C7 C6 1.369 . S
C7 C8 1.408 . S
C7 H34 0.930 . S
C8 C3 1.348 . S
C8 C7 1.408 . S
C8 H35 0.930 . S
C9 O22 1.281 . S
C9 O23 1.254 . S
C10 O24 1.236 . S
C10 O25 1.266 . S
C11 Tb1 2.809 1_655 S
C11 C12 1.514 . S
C11 O26 1.248 1_655 S
C11 O27 1.266 . S
C12 C11 1.514 . S
C12 C13 1.359 1_655 S
C12 C17 1.348 . S
C13 C12 1.359 1_455 S
C13 C14 1.380 1_455 S
C13 H36 0.929 1_545 S
C14 C13 1.380 1_655 S
C14 C15 1.347 . S
C14 H37 0.931 1_645 S
C15 C14 1.347 . S
C15 C16 1.369 . S
C16 C15 1.369 . S
C16 C17 1.408 . S
C16 H38 0.930 . S
C17 C12 1.348 . S
C17 C16 1.408 . S
C17 H39 0.930 . S
C18 O28 1.281 . S
C18 O29 1.254 . S
C19 O30 1.236 . S
C19 O31 1.266 . S
O20 Tb0 2.484 . S
O20 C2 1.248 1_655 S
O21 Tb0 2.440 1_455 S
O21 C2 1.266 . S
O22 Tb0 2.658 1_455 S
O22 Tb1 2.325 1_565 S
O22 C9 1.281 . S
O23 Tb0 2.409 1_455 S
O23 C9 1.254 . S
O24 Tb0 2.378 1_445 S
O24 C10 1.236 . S
O25 Tb1 2.341 . S
O25 C10 1.266 . S
O26 Tb1 2.484 . S
O26 C11 1.248 1_455 S
O27 Tb1 2.440 1_655 S
O27 C11 1.266 . S
O28 Tb0 2.325 1_545 S
O28 Tb1 2.658 1_655 S
O28 C18 1.281 . S
O29 Tb1 2.409 1_655 S
O29 C18 1.254 . S
O30 Tb1 2.378 1_665 S
O30 C19 1.236 . S
O31 Tb0 2.341 . S
O31 C19 1.266 . S
H32 C4 0.929 1_545 S
H33 C5 0.931 1_645 S
H34 C7 0.930 . S
H35 C8 0.930 . S
H36 C13 0.929 1_565 S
H37 C14 0.931 1_465 S
H38 C16 0.930 . S
H39 C17 0.930 . S
Tb40 C42 2.809 . S
Tb40 O60 2.484 . S
Tb40 O61 2.440 . S
Tb40 O62 2.658 . S
Tb40 O63 2.409 . S
Tb40 O64 2.378 . S
Tb40 O68 2.325 . S
Tb40 O71 2.341 . S
Tb41 C51 2.809 . S
Tb41 O62 2.325 . S
Tb41 O65 2.341 . S
Tb41 O66 2.484 . S
Tb41 O67 2.440 . S
Tb41 O68 2.658 . S
Tb41 O69 2.409 . S
Tb41 O70 2.378 . S
C42 Tb40 2.809 . S
C42 C43 1.514 . S
C42 O60 1.248 . S
C42 O61 1.266 . S
C43 C42 1.514 . S
C43 C44 1.359 . S
C43 C48 1.348 . S
C44 C43 1.359 . S
C44 C45 1.380 . S
C44 H72 0.929 . S
C45 C44 1.380 . S
C45 C46 1.347 . S
C45 H73 0.931 . S
C46 C45 1.347 . S
C46 C47 1.369 . S
C47 C46 1.369 . S
C47 C48 1.408 . S
C47 H74 0.930 . S
C48 C43 1.348 . S
C48 C47 1.408 . S
C48 H75 0.930 . S
C49 O62 1.281 . S
C49 O63 1.254 . S
C50 O64 1.236 . S
C50 O65 1.266 . S
C51 Tb41 2.809 . S
C51 C52 1.514 1_556 S
C51 O66 1.248 . S
C51 O67 1.266 . S
C52 C51 1.514 1_554 S
C52 C53 1.359 . S
C52 C57 1.348 . S
C53 C52 1.359 . S
C53 C54 1.380 . S
C53 H76 0.929 . S
C54 C53 1.380 . S
C54 C55 1.347 . S
C54 H77 0.931 . S
C55 C54 1.347 . S
C55 C56 1.369 . S
C56 C55 1.369 . S
C56 C57 1.408 . S
C56 H78 0.930 . S
C57 C52 1.348 . S
C57 C56 1.408 . S
C57 H79 0.930 1_554 S
C58 O68 1.281 . S
C58 O69 1.254 . S
C59 O70 1.236 . S
C59 O71 1.266 . S
O60 Tb40 2.484 . S
O60 C42 1.248 . S
O61 Tb40 2.440 . S
O61 C42 1.266 . S
O62 Tb40 2.658 . S
O62 Tb41 2.325 . S
O62 C49 1.281 . S
O63 Tb40 2.409 . S
O63 C49 1.254 . S
O64 Tb40 2.378 . S
O64 C50 1.236 . S
O65 Tb41 2.341 . S
O65 C50 1.266 . S
O66 Tb41 2.484 . S
O66 C51 1.248 . S
O67 Tb41 2.440 . S
O67 C51 1.266 . S
O68 Tb40 2.325 . S
O68 Tb41 2.658 . S
O68 C58 1.281 . S
O69 Tb41 2.409 . S
O69 C58 1.254 . S
O70 Tb41 2.378 . S
O70 C59 1.236 . S
O71 Tb40 2.341 . S
O71 C59 1.266 . S
H72 C44 0.929 . S
H73 C45 0.931 . S
H74 C47 0.930 . S
H75 C48 0.930 . S
H76 C53 0.929 . S
H77 C54 0.931 . S
H78 C56 0.930 . S
H79 C57 0.930 1_556 S
Tb80 C82 2.809 . S
Tb80 O100 2.484 1_565 S
Tb80 O101 2.440 . S
Tb80 O102 2.658 1_554 S
Tb80 O103 2.409 . S
Tb80 O104 2.378 1_565 S
Tb80 O108 2.325 1_565 S
Tb80 O111 2.341 1_554 S
Tb81 C91 2.809 . S
Tb81 O102 2.325 1_545 S
Tb81 O105 2.341 1_556 S
Tb81 O106 2.484 1_545 S
Tb81 O107 2.440 . S
Tb81 O108 2.658 1_556 S
Tb81 O109 2.409 . S
Tb81 O110 2.378 1_545 S
C82 Tb80 2.809 . S
C82 C83 1.514 . S
C82 O100 1.248 1_565 S
C82 O101 1.266 . S
C83 C82 1.514 . S
C83 C84 1.359 1_565 S
C83 C88 1.348 . S
C84 C83 1.359 1_545 S
C84 C85 1.380 . S
C84 H112 0.929 . S
C85 C84 1.380 . S
C85 C86 1.347 1_545 S
C85 H113 0.931 . S
C86 C85 1.347 1_565 S
C86 C87 1.369 . S
C87 C86 1.369 . S
C87 C88 1.408 . S
C87 H114 0.930 . S
C88 C83 1.348 . S
C88 C87 1.408 . S
C88 H115 0.930 . S
C89 O102 1.281 . S
C89 O103 1.254 1_556 S
C90 O104 1.236 . S
C90 O105 1.266 . S
C91 Tb81 2.809 . S
C91 C92 1.514 . S
C91 O106 1.248 1_545 S
C91 O107 1.266 . S
C92 C91 1.514 . S
C92 C93 1.359 1_545 S
C92 C97 1.348 . S
C93 C92 1.359 1_565 S
C93 C94 1.380 . S
C93 H116 0.929 . S
C94 C93 1.380 . S
C94 C95 1.347 1_565 S
C94 H117 0.931 . S
C95 C94 1.347 1_545 S
C95 C96 1.369 . S
C96 C95 1.369 . S
C96 C97 1.408 . S
C96 H118 0.930 . S
C97 C92 1.348 . S
C97 C96 1.408 . S
C97 H119 0.930 . S
C98 O108 1.281 . S
C98 O109 1.254 1_554 S
C99 O110 1.236 . S
C99 O111 1.266 . S
O100 Tb80 2.484 1_545 S
O100 C82 1.248 1_545 S
O101 Tb80 2.440 . S
O101 C82 1.266 . S
O102 Tb80 2.658 1_556 S
O102 Tb81 2.325 1_565 S
O102 C89 1.281 . S
O103 Tb80 2.409 . S
O103 C89 1.254 1_554 S
O104 Tb80 2.378 1_545 S
O104 C90 1.236 . S
O105 Tb81 2.341 1_554 S
O105 C90 1.266 . S
O106 Tb81 2.484 1_565 S
O106 C91 1.248 1_565 S
O107 Tb81 2.440 . S
O107 C91 1.266 . S
O108 Tb80 2.325 1_545 S
O108 Tb81 2.658 1_554 S
O108 C98 1.281 . S
O109 Tb81 2.409 . S
O109 C98 1.254 1_556 S
O110 Tb81 2.378 1_565 S
O110 C99 1.236 . S
O111 Tb80 2.341 1_556 S
O111 C99 1.266 . S
H112 C84 0.929 . S
H113 C85 0.931 . S
H114 C87 0.930 . S
H115 C88 0.930 . S
H116 C93 0.929 . S
H117 C94 0.931 . S
H118 C96 0.930 . S
H119 C97 0.930 . S
Tb120 C122 2.809 . S
Tb120 O140 2.484 . S
Tb120 O141 2.440 . S
Tb120 O142 2.658 . S
Tb120 O143 2.409 . S
Tb120 O144 2.378 . S
Tb120 O148 2.325 . S
Tb120 O151 2.341 . S
Tb121 C131 2.809 . S
Tb121 O142 2.325 . S
Tb121 O145 2.341 . S
Tb121 O146 2.484 . S
Tb121 O147 2.440 . S
Tb121 O148 2.658 . S
Tb121 O149 2.409 . S
Tb121 O150 2.378 . S
C122 Tb120 2.809 . S
C122 C123 1.514 . S
C122 O140 1.248 . S
C122 O141 1.266 . S
C123 C122 1.514 . S
C123 C124 1.359 . S
C123 C128 1.348 . S
C124 C123 1.359 . S
C124 C125 1.380 . S
C124 H152 0.929 . S
C125 C124 1.380 . S
C125 C126 1.347 . S
C125 H153 0.931 . S
C126 C125 1.347 . S
C126 C127 1.369 . S
C127 C126 1.369 . S
C127 C128 1.408 . S
C127 H154 0.930 . S
C128 C123 1.348 . S
C128 C127 1.408 . S
C128 H155 0.930 . S
C129 O142 1.281 . S
C129 O143 1.254 . S
C130 O144 1.236 . S
C130 O145 1.266 . S
C131 Tb121 2.809 . S
C131 C132 1.514 1_554 S
C131 O146 1.248 . S
C131 O147 1.266 . S
C132 C131 1.514 1_556 S
C132 C133 1.359 . S
C132 C137 1.348 . S
C133 C132 1.359 . S
C133 C134 1.380 . S
C133 H156 0.929 . S
C134 C133 1.380 . S
C134 C135 1.347 . S
C134 H157 0.931 . S
C135 C134 1.347 . S
C135 C136 1.369 . S
C136 C135 1.369 . S
C136 C137 1.408 . S
C136 H158 0.930 . S
C137 C132 1.348 . S
C137 C136 1.408 . S
C137 H159 0.930 . S
C138 O148 1.281 . S
C138 O149 1.254 . S
C139 O150 1.236 . S
C139 O151 1.266 . S
O140 Tb120 2.484 . S
O140 C122 1.248 . S
O141 Tb120 2.440 . S
O141 C122 1.266 . S
O142 Tb120 2.658 . S
O142 Tb121 2.325 . S
O142 C129 1.281 . S
O143 Tb120 2.409 . S
O143 C129 1.254 . S
O144 Tb120 2.378 . S
O144 C130 1.236 . S
O145 Tb121 2.341 . S
O145 C130 1.266 . S
O146 Tb121 2.484 . S
O146 C131 1.248 . S
O147 Tb121 2.440 . S
O147 C131 1.266 . S
O148 Tb120 2.325 . S
O148 Tb121 2.658 . S
O148 C138 1.281 . S
O149 Tb121 2.409 . S
O149 C138 1.254 . S
O150 Tb121 2.378 . S
O150 C139 1.236 . S
O151 Tb120 2.341 . S
O151 C139 1.266 . S
H152 C124 0.929 . S
H153 C125 0.931 . S
H154 C127 0.930 . S
H155 C128 0.930 . S
H156 C133 0.929 . S
H157 C134 0.931 . S
H158 C136 0.930 . S
H159 C137 0.930 . S
Tb160 C162 2.809 . S
Tb160 O180 2.484 . S
Tb160 O181 2.440 . S
Tb160 O182 2.658 . S
Tb160 O183 2.409 . S
Tb160 O184 2.378 . S
Tb160 O188 2.325 . S
Tb160 O191 2.341 . S
Tb161 C171 2.809 . S
Tb161 O182 2.325 . S
Tb161 O185 2.341 . S
Tb161 O186 2.484 . S
Tb161 O187 2.440 . S
Tb161 O188 2.658 . S
Tb161 O189 2.409 . S
Tb161 O190 2.378 . S
C162 Tb160 2.809 . S
C162 C163 1.514 1_554 S
C162 O180 1.248 . S
C162 O181 1.266 . S
C163 C162 1.514 1_556 S
C163 C164 1.359 . S
C163 C168 1.348 . S
C164 C163 1.359 . S
C164 C165 1.380 . S
C164 H192 0.929 . S
C165 C164 1.380 . S
C165 C166 1.347 . S
C165 H193 0.931 . S
C166 C165 1.347 . S
C166 C167 1.369 . S
C167 C166 1.369 . S
C167 C168 1.408 . S
C167 H194 0.930 . S
C168 C163 1.348 . S
C168 C167 1.408 . S
C168 H195 0.930 1_556 S
C169 O182 1.281 . S
C169 O183 1.254 . S
C170 O184 1.236 . S
C170 O185 1.266 . S
C171 Tb161 2.809 . S
C171 C172 1.514 . S
C171 O186 1.248 . S
C171 O187 1.266 . S
C172 C171 1.514 . S
C172 C173 1.359 . S
C172 C177 1.348 . S
C173 C172 1.359 . S
C173 C174 1.380 . S
C173 H196 0.929 . S
C174 C173 1.380 . S
C174 C175 1.347 . S
C174 H197 0.931 . S
C175 C174 1.347 . S
C175 C176 1.369 . S
C176 C175 1.369 . S
C176 C177 1.408 . S
C176 H198 0.930 . S
C177 C172 1.348 . S
C177 C176 1.408 . S
C177 H199 0.930 . S
C178 O188 1.281 . S
C178 O189 1.254 . S
C179 O190 1.236 . S
C179 O191 1.266 . S
O180 Tb160 2.484 . S
O180 C162 1.248 . S
O181 Tb160 2.440 . S
O181 C162 1.266 . S
O182 Tb160 2.658 . S
O182 Tb161 2.325 . S
O182 C169 1.281 . S
O183 Tb160 2.409 . S
O183 C169 1.254 . S
O184 Tb160 2.378 . S
O184 C170 1.236 . S
O185 Tb161 2.341 . S
O185 C170 1.266 . S
O186 Tb161 2.484 . S
O186 C171 1.248 . S
O187 Tb161 2.440 . S
O187 C171 1.266 . S
O188 Tb160 2.325 . S
O188 Tb161 2.658 . S
O188 C178 1.281 . S
O189 Tb161 2.409 . S
O189 C178 1.254 . S
O190 Tb161 2.378 . S
O190 C179 1.236 . S
O191 Tb160 2.341 . S
O191 C179 1.266 . S
H192 C164 0.929 . S
H193 C165 0.931 . S
H194 C167 0.930 . S
H195 C168 0.930 1_554 S
H196 C173 0.929 . S
H197 C174 0.931 . S
H198 C176 0.930 . S
H199 C177 0.930 . S
Tb200 C202 2.809 . S
Tb200 O220 2.484 . S
Tb200 O221 2.440 . S
Tb200 O222 2.658 . S
Tb200 O223 2.409 . S
Tb200 O224 2.378 . S
Tb200 O228 2.325 . S
Tb200 O231 2.341 . S
Tb201 C211 2.809 . S
Tb201 O222 2.325 . S
Tb201 O225 2.341 . S
Tb201 O226 2.484 . S
Tb201 O227 2.440 . S
Tb201 O228 2.658 . S
Tb201 O229 2.409 . S
Tb201 O230 2.378 . S
C202 Tb200 2.809 . S
C202 C203 1.514 1_556 S
C202 O220 1.248 . S
C202 O221 1.266 . S
C203 C202 1.514 1_554 S
C203 C204 1.359 . S
C203 C208 1.348 . S
C204 C203 1.359 . S
C204 C205 1.380 . S
C204 H232 0.929 . S
C205 C204 1.380 . S
C205 C206 1.347 . S
C205 H233 0.931 . S
C206 C205 1.347 . S
C206 C207 1.369 . S
C207 C206 1.369 . S
C207 C208 1.408 . S
C207 H234 0.930 . S
C208 C203 1.348 . S
C208 C207 1.408 . S
C208 H235 0.930 . S
C209 O222 1.281 . S
C209 O223 1.254 . S
C210 O224 1.236 . S
C210 O225 1.266 . S
C211 Tb201 2.809 . S
C211 C212 1.514 . S
C211 O226 1.248 . S
C211 O227 1.266 . S
C212 C211 1.514 . S
C212 C213 1.359 . S
C212 C217 1.348 . S
C213 C212 1.359 . S
C213 C214 1.380 . S
C213 H236 0.929 . S
C214 C213 1.380 . S
C214 C215 1.347 . S
C214 H237 0.931 . S
C215 C214 1.347 . S
C215 C216 1.369 . S
C216 C215 1.369 . S
C216 C217 1.408 . S
C216 H238 0.930 . S
C217 C212 1.348 . S
C217 C216 1.408 . S
C217 H239 0.930 . S
C218 O228 1.281 . S
C218 O229 1.254 . S
C219 O230 1.236 . S
C219 O231 1.266 . S
O220 Tb200 2.484 . S
O220 C202 1.248 . S
O221 Tb200 2.440 . S
O221 C202 1.266 . S
O222 Tb200 2.658 . S
O222 Tb201 2.325 . S
O222 C209 1.281 . S
O223 Tb200 2.409 . S
O223 C209 1.254 . S
O224 Tb200 2.378 . S
O224 C210 1.236 . S
O225 Tb201 2.341 . S
O225 C210 1.266 . S
O226 Tb201 2.484 . S
O226 C211 1.248 . S
O227 Tb201 2.440 . S
O227 C211 1.266 . S
O228 Tb200 2.325 . S
O228 Tb201 2.658 . S
O228 C218 1.281 . S
O229 Tb201 2.409 . S
O229 C218 1.254 . S
O230 Tb201 2.378 . S
O230 C219 1.236 . S
O231 Tb200 2.341 . S
O231 C219 1.266 . S
H232 C204 0.929 . S
H233 C205 0.931 . S
H234 C207 0.930 . S
H235 C208 0.930 . S
H236 C213 0.929 . S
H237 C214 0.931 . S
H238 C216 0.930 . S
H239 C217 0.930 . S
Tb240 C242 2.809 . S
Tb240 O260 2.484 . S
Tb240 O261 2.440 . S
Tb240 O262 2.658 1_556 S
Tb240 O263 2.409 . S
Tb240 O264 2.378 . S
Tb240 O268 2.325 . S
Tb240 O271 2.341 . S
Tb241 C251 2.809 . S
Tb241 O262 2.325 . S
Tb241 O265 2.341 . S
Tb241 O266 2.484 . S
Tb241 O267 2.440 . S
Tb241 O268 2.658 1_554 S
Tb241 O269 2.409 . S
Tb241 O270 2.378 . S
C242 Tb240 2.809 . S
C242 C243 1.514 . S
C242 O260 1.248 . S
C242 O261 1.266 . S
C243 C242 1.514 . S
C243 C244 1.359 . S
C243 C248 1.348 . S
C244 C243 1.359 . S
C244 C245 1.380 . S
C244 H272 0.929 . S
C245 C244 1.380 . S
C245 C246 1.347 . S
C245 H273 0.931 . S
C246 C245 1.347 . S
C246 C247 1.369 . S
C247 C246 1.369 . S
C247 C248 1.408 . S
C247 H274 0.930 . S
C248 C243 1.348 . S
C248 C247 1.408 . S
C248 H275 0.930 . S
C249 O262 1.281 . S
C249 O263 1.254 1_554 S
C250 O264 1.236 . S
C250 O265 1.266 1_556 S
C251 Tb241 2.809 . S
C251 C252 1.514 . S
C251 O266 1.248 . S
C251 O267 1.266 . S
C252 C251 1.514 . S
C252 C253 1.359 . S
C252 C257 1.348 . S
C253 C252 1.359 . S
C253 C254 1.380 . S
C253 H276 0.929 . S
C254 C253 1.380 . S
C254 C255 1.347 . S
C254 H277 0.931 . S
C255 C254 1.347 . S
C255 C256 1.369 . S
C256 C255 1.369 . S
C256 C257 1.408 . S
C256 H278 0.930 . S
C257 C252 1.348 . S
C257 C256 1.408 . S
C257 H279 0.930 . S
C258 O268 1.281 . S
C258 O269 1.254 1_556 S
C259 O270 1.236 . S
C259 O271 1.266 1_554 S
O260 Tb240 2.484 . S
O260 C242 1.248 . S
O261 Tb240 2.440 . S
O261 C242 1.266 . S
O262 Tb240 2.658 1_554 S
O262 Tb241 2.325 . S
O262 C249 1.281 . S
O263 Tb240 2.409 . S
O263 C249 1.254 1_556 S
O264 Tb240 2.378 . S
O264 C250 1.236 . S
O265 Tb241 2.341 . S
O265 C250 1.266 1_554 S
O266 Tb241 2.484 . S
O266 C251 1.248 . S
O267 Tb241 2.440 . S
O267 C251 1.266 . S
O268 Tb240 2.325 . S
O268 Tb241 2.658 1_556 S
O268 C258 1.281 . S
O269 Tb241 2.409 . S
O269 C258 1.254 1_554 S
O270 Tb241 2.378 . S
O270 C259 1.236 . S
O271 Tb240 2.341 . S
O271 C259 1.266 1_556 S
H272 C244 0.929 . S
H273 C245 0.931 . S
H274 C247 0.930 . S
H275 C248 0.930 . S
H276 C253 0.929 . S
H277 C254 0.931 . S
H278 C256 0.930 . S
H279 C257 0.930 . S
Tb280 C282 2.809 1_455 S
Tb280 O300 2.484 . S
Tb280 O301 2.440 1_455 S
Tb280 O302 2.658 1_455 S
Tb280 O303 2.409 1_455 S
Tb280 O304 2.378 1_455 S
Tb280 O308 2.325 . S
Tb280 O311 2.341 . S
Tb281 C291 2.809 1_655 S
Tb281 O302 2.325 . S
Tb281 O305 2.341 . S
Tb281 O306 2.484 . S
Tb281 O307 2.440 1_655 S
Tb281 O308 2.658 1_655 S
Tb281 O309 2.409 1_655 S
Tb281 O310 2.378 1_655 S
C282 Tb280 2.809 1_655 S
C282 C283 1.514 . S
C282 O300 1.248 1_655 S
C282 O301 1.266 . S
C283 C282 1.514 . S
C283 C284 1.359 1_655 S
C283 C288 1.348 . S
C284 C283 1.359 1_455 S
C284 C285 1.380 1_455 S
C284 H312 0.929 . S
C285 C284 1.380 1_655 S
C285 C286 1.347 . S
C285 H313 0.931 1_655 S
C286 C285 1.347 . S
C286 C287 1.369 . S
C287 C286 1.369 . S
C287 C288 1.408 . S
C287 H314 0.930 . S
C288 C283 1.348 . S
C288 C287 1.408 . S
C288 H315 0.930 . S
C289 O302 1.281 . S
C289 O303 1.254 . S
C290 O304 1.236 . S
C290 O305 1.266 . S
C291 Tb281 2.809 1_455 S
C291 C292 1.514 . S
C291 O306 1.248 1_455 S
C291 O307 1.266 . S
C292 C291 1.514 . S
C292 C293 1.359 1_455 S
C292 C297 1.348 . S
C293 C292 1.359 1_655 S
C293 C294 1.380 1_655 S
C293 H316 0.929 . S
C294 C293 1.380 1_455 S
C294 C295 1.347 . S
C294 H317 0.931 1_455 S
C295 C294 1.347 . S
C295 C296 1.369 . S
C296 C295 1.369 . S
C296 C297 1.408 . S
C296 H318 0.930 . S
C297 C292 1.348 . S
C297 C296 1.408 . S
C297 H319 0.930 . S
C298 O308 1.281 . S
C298 O309 1.254 . S
C299 O310 1.236 . S
C299 O311 1.266 . S
O300 Tb280 2.484 . S
O300 C282 1.248 1_455 S
O301 Tb280 2.440 1_655 S
O301 C282 1.266 . S
O302 Tb280 2.658 1_655 S
O302 Tb281 2.325 . S
O302 C289 1.281 . S
O303 Tb280 2.409 1_655 S
O303 C289 1.254 . S
O304 Tb280 2.378 1_655 S
O304 C290 1.236 . S
O305 Tb281 2.341 . S
O305 C290 1.266 . S
O306 Tb281 2.484 . S
O306 C291 1.248 1_655 S
O307 Tb281 2.440 1_455 S
O307 C291 1.266 . S
O308 Tb280 2.325 . S
O308 Tb281 2.658 1_455 S
O308 C298 1.281 . S
O309 Tb281 2.409 1_455 S
O309 C298 1.254 . S
O310 Tb281 2.378 1_455 S
O310 C299 1.236 . S
O311 Tb280 2.341 . S
O311 C299 1.266 . S
H312 C284 0.929 . S
H313 C285 0.931 1_455 S
H314 C287 0.930 . S
H315 C288 0.930 . S
H316 C293 0.929 . S
H317 C294 0.931 1_655 S
H318 C296 0.930 . S
H319 C297 0.930 . S
C320 C321 1.387 . S
C320 H324 0.950 . S
C320 C329 1.390 . S
C321 C320 1.387 . S
C321 C323 1.387 . S
H322 C329 0.950 . S
C323 C321 1.387 . S
C323 C325 1.390 . S
C323 H327 0.950 . S
H324 C320 0.950 . S
C325 C323 1.390 . S
C325 C326 1.387 . S
C325 H328 0.950 . S
C326 C325 1.387 . S
C326 C329 1.387 . S
H327 C323 0.950 . S
H328 C325 0.950 . S
C329 C320 1.390 . S
C329 H322 0.950 . S
C329 C326 1.387 . S
C330 C331 1.387 . S
C330 H334 0.950 . S
C330 C339 1.390 . S
C331 C330 1.387 . S
C331 C333 1.387 . S
H332 C339 0.950 . S
C333 C331 1.387 . S
C333 C335 1.390 . S
C333 H337 0.950 . S
H334 C330 0.950 . S
C335 C333 1.390 . S
C335 C336 1.387 . S
C335 H338 0.950 . S
C336 C335 1.387 . S
C336 C339 1.387 . S
H337 C333 0.950 . S
H338 C335 0.950 . S
C339 C330 1.390 . S
C339 H332 0.950 . S
C339 C336 1.387 . S
C340 C341 1.387 . S
C340 H344 0.950 . S
C340 C349 1.390 . S
C341 C340 1.387 . S
C341 C343 1.387 . S
H342 C349 0.950 . S
C343 C341 1.387 . S
C343 C345 1.390 . S
C343 H347 0.950 . S
H344 C340 0.950 . S
C345 C343 1.390 . S
C345 C346 1.387 . S
C345 H348 0.950 . S
C346 C345 1.387 . S
C346 C349 1.387 . S
H347 C343 0.950 . S
H348 C345 0.950 . S
C349 C340 1.390 . S
C349 H342 0.950 . S
C349 C346 1.387 . S
C350 C351 1.387 . S
C350 H354 0.950 . S
C350 C359 1.390 . S
C351 C350 1.387 . S
C351 C353 1.387 . S
H352 C359 0.950 . S
C353 C351 1.387 . S
C353 C355 1.390 . S
C353 H357 0.950 . S
H354 C350 0.950 . S
C355 C353 1.390 . S
C355 C356 1.387 . S
C355 H358 0.950 . S
C356 C355 1.387 . S
C356 C359 1.387 . S
H357 C353 0.950 . S
H358 C355 0.950 . S
C359 C350 1.390 . S
C359 H352 0.950 . S
C359 C356 1.387 . S
C360 C361 1.387 . S
C360 H364 0.950 . S
C360 C369 1.390 . S
C361 C360 1.387 . S
C361 C363 1.387 . S
H362 C369 0.950 . S
C363 C361 1.387 . S
C363 C365 1.390 . S
C363 H367 0.950 . S
H364 C360 0.950 . S
C365 C363 1.390 . S
C365 C366 1.387 . S
C365 H368 0.950 . S
C366 C365 1.387 . S
C366 C369 1.387 . S
H367 C363 0.950 . S
H368 C365 0.950 . S
C369 C360 1.390 . S
C369 H362 0.950 . S
C369 C366 1.387 . S
C370 C371 1.387 . S
C370 H374 0.950 . S
C370 C379 1.390 . S
C371 C370 1.387 . S
C371 C373 1.387 . S
H372 C379 0.950 . S
C373 C371 1.387 . S
C373 C375 1.390 . S
C373 H377 0.950 . S
H374 C370 0.950 . S
C375 C373 1.390 . S
C375 C376 1.387 . S
C375 H378 0.950 . S
C376 C375 1.387 . S
C376 C379 1.387 . S
H377 C373 0.950 . S
H378 C375 0.950 . S
C379 C370 1.390 . S
C379 H372 0.950 . S
C379 C376 1.387 . S
C380 C381 1.387 . S
C380 H384 0.950 . S
C380 C389 1.390 . S
C381 C380 1.387 . S
C381 C383 1.387 . S
H382 C389 0.950 . S
C383 C381 1.387 . S
C383 C385 1.390 . S
C383 H387 0.950 . S
H384 C380 0.950 . S
C385 C383 1.390 . S
C385 C386 1.387 . S
C385 H388 0.950 . S
C386 C385 1.387 . S
C386 C389 1.387 . S
H387 C383 0.950 . S
H388 C385 0.950 . S
C389 C380 1.390 . S
C389 H382 0.950 . S
C389 C386 1.387 . S
C390 C391 1.387 . S
C390 H394 0.950 . S
C390 C399 1.390 . S
C391 C390 1.387 . S
C391 C393 1.387 . S
H392 C399 0.950 . S
C393 C391 1.387 . S
C393 C395 1.390 . S
C393 H397 0.950 . S
H394 C390 0.950 . S
C395 C393 1.390 . S
C395 C396 1.387 . S
C395 H398 0.950 . S
C396 C395 1.387 . S
C396 C399 1.387 . S
H397 C393 0.950 . S
H398 C395 0.950 . S
C399 C390 1.390 . S
C399 H392 0.950 . S
C399 C396 1.387 . S
C400 C401 1.387 . S
C400 H404 0.950 . S
C400 C409 1.390 . S
C401 C400 1.387 . S
C401 C403 1.387 . S
H402 C409 0.950 . S
C403 C401 1.387 . S
C403 C405 1.390 . S
C403 H407 0.950 . S
H404 C400 0.950 . S
C405 C403 1.390 . S
C405 C406 1.387 . S
C405 H408 0.950 . S
C406 C405 1.387 . S
C406 C409 1.387 . S
H407 C403 0.950 . S
H408 C405 0.950 . S
C409 C400 1.390 . S
C409 H402 0.950 . S
C409 C406 1.387 . S
C410 C411 1.387 . S
C410 H414 0.950 . S
C410 C419 1.390 . S
C411 C410 1.387 . S
C411 C413 1.387 . S
H412 C419 0.950 . S
C413 C411 1.387 . S
C413 C415 1.390 . S
C413 H417 0.950 . S
H414 C410 0.950 . S
C415 C413 1.390 . S
C415 C416 1.387 . S
C415 H418 0.950 . S
C416 C415 1.387 . S
C416 C419 1.387 . S
H417 C413 0.950 . S
H418 C415 0.950 . S
C419 C410 1.390 . S
C419 H412 0.950 . S
C419 C416 1.387 . S
C420 C421 1.387 . S
C420 H424 0.950 . S
C420 C429 1.390 . S
C421 C420 1.387 . S
C421 C423 1.387 . S
H422 C429 0.950 . S
C423 C421 1.387 . S
C423 C425 1.390 . S
C423 H427 0.950 . S
H424 C420 0.950 . S
C425 C423 1.390 . S
C425 C426 1.387 . S
C425 H428 0.950 . S
C426 C425 1.387 . S
C426 C429 1.387 . S
H427 C423 0.950 . S
H428 C425 0.950 . S
C429 C420 1.390 . S
C429 H422 0.950 . S
C429 C426 1.387 . S
C430 C431 1.387 . S
C430 H434 0.950 . S
C430 C439 1.390 . S
C431 C430 1.387 . S
C431 C433 1.387 . S
H432 C439 0.950 . S
C433 C431 1.387 . S
C433 C435 1.390 . S
C433 H437 0.950 . S
H434 C430 0.950 . S
C435 C433 1.390 . S
C435 C436 1.387 . S
C435 H438 0.950 . S
C436 C435 1.387 . S
C436 C439 1.387 . S
H437 C433 0.950 . S
H438 C435 0.950 . S
C439 C430 1.390 . S
C439 H432 0.950 . S
C439 C436 1.387 . S
C440 C441 1.387 . S
C440 H444 0.950 . S
C440 C449 1.390 . S
C441 C440 1.387 . S
C441 C443 1.387 . S
H442 C449 0.950 . S
C443 C441 1.387 . S
C443 C445 1.390 . S
C443 H447 0.950 . S
H444 C440 0.950 . S
C445 C443 1.390 . S
C445 C446 1.387 . S
C445 H448 0.950 . S
C446 C445 1.387 . S
C446 C449 1.387 . S
H447 C443 0.950 . S
H448 C445 0.950 . S
C449 C440 1.390 . S
C449 H442 0.950 . S
C449 C446 1.387 . S
C450 C451 1.387 . S
C450 H454 0.950 . S
C450 C459 1.390 . S
C451 C450 1.387 . S
C451 C453 1.387 . S
H452 C459 0.950 . S
C453 C451 1.387 . S
C453 C455 1.390 . S
C453 H457 0.950 . S
H454 C450 0.950 . S
C455 C453 1.390 . S
C455 C456 1.387 . S
C455 H458 0.950 . S
C456 C455 1.387 . S
C456 C459 1.387 . S
H457 C453 0.950 . S
H458 C455 0.950 . S
C459 C450 1.390 . S
C459 H452 0.950 . S
C459 C456 1.387 . S
C460 C461 1.387 . S
C460 H464 0.950 . S
C460 C469 1.390 . S
C461 C460 1.387 . S
C461 C463 1.387 . S
H462 C469 0.950 . S
C463 C461 1.387 . S
C463 C465 1.390 . S
C463 H467 0.950 . S
H464 C460 0.950 . S
C465 C463 1.390 . S
C465 C466 1.387 . S
C465 H468 0.950 . S
C466 C465 1.387 . S
C466 C469 1.387 . S
H467 C463 0.950 . S
H468 C465 0.950 . S
C469 C460 1.390 . S
C469 H462 0.950 . S
C469 C466 1.387 . S
C470 C471 1.387 . S
C470 H474 0.950 . S
C470 C479 1.390 . S
C471 C470 1.387 . S
C471 C473 1.387 . S
H472 C479 0.950 . S
C473 C471 1.387 . S
C473 C475 1.390 . S
C473 H477 0.950 . S
H474 C470 0.950 . S
C475 C473 1.390 . S
C475 C476 1.387 . S
C475 H478 0.950 . S
C476 C475 1.387 . S
C476 C479 1.387 . S
H477 C473 0.950 . S
H478 C475 0.950 . S
C479 C470 1.390 . S
C479 H472 0.950 . S
C479 C476 1.387 . S
C480 C481 1.387 1_465 S
C480 H484 0.950 . S
C480 C489 1.390 . S
C481 C480 1.387 1_645 S
C481 C483 1.387 1_556 S
H482 C489 0.950 . S
C483 C481 1.387 1_554 S
C483 C485 1.390 . S
C483 H487 0.950 . S
H484 C480 0.950 . S
C485 C483 1.390 . S
C485 C486 1.387 1_645 S
C485 H488 0.950 . S
C486 C485 1.387 1_465 S
C486 C489 1.387 1_554 S
H487 C483 0.950 . S
H488 C485 0.950 . S
C489 C480 1.390 . S
C489 H482 0.950 . S
C489 C486 1.387 1_556 S
C490 C491 1.387 . S
C490 H494 0.950 . S
C490 C499 1.390 . S
C491 C490 1.387 . S
C491 C493 1.387 . S
H492 C499 0.950 . S
C493 C491 1.387 . S
C493 C495 1.390 . S
C493 H497 0.950 . S
H494 C490 0.950 . S
C495 C493 1.390 . S
C495 C496 1.387 . S
C495 H498 0.950 . S
C496 C495 1.387 . S
C496 C499 1.387 . S
H497 C493 0.950 . S
H498 C495 0.950 . S
C499 C490 1.390 . S
C499 H492 0.950 . S
C499 C496 1.387 . S
C500 C501 1.387 1_565 S
C500 H504 0.950 . S
C500 C509 1.390 . S
C501 C500 1.387 1_545 S
C501 C503 1.387 . S
H502 C509 0.950 . S
C503 C501 1.387 . S
C503 C505 1.390 . S
C503 H507 0.950 . S
H504 C500 0.950 . S
C505 C503 1.390 . S
C505 C506 1.387 1_545 S
C505 H508 0.950 . S
C506 C505 1.387 1_565 S
C506 C509 1.387 . S
H507 C503 0.950 . S
H508 C505 0.950 . S
C509 C500 1.390 . S
C509 H502 0.950 . S
C509 C506 1.387 . S
C510 C511 1.387 . S
C510 H514 0.950 . S
C510 C519 1.390 . S
C511 C510 1.387 . S
C511 C513 1.387 . S
H512 C519 0.950 . S
C513 C511 1.387 . S
C513 C515 1.390 . S
C513 H517 0.950 . S
H514 C510 0.950 . S
C515 C513 1.390 . S
C515 C516 1.387 . S
C515 H518 0.950 . S
C516 C515 1.387 . S
C516 C519 1.387 . S
H517 C513 0.950 . S
H518 C515 0.950 . S
C519 C510 1.390 . S
C519 H512 0.950 . S
C519 C516 1.387 . S
C520 C521 1.387 . S
C520 H524 0.950 . S
C520 C529 1.390 . S
C521 C520 1.387 . S
C521 C523 1.387 . S
H522 C529 0.950 . S
C523 C521 1.387 . S
C523 C525 1.390 . S
C523 H527 0.950 . S
H524 C520 0.950 . S
C525 C523 1.390 . S
C525 C526 1.387 . S
C525 H528 0.950 . S
C526 C525 1.387 . S
C526 C529 1.387 . S
H527 C523 0.950 . S
H528 C525 0.950 . S
C529 C520 1.390 . S
C529 H522 0.950 . S
C529 C526 1.387 . S
C530 C531 1.387 . S
C530 H534 0.950 . S
C530 C539 1.390 . S
C531 C530 1.387 . S
C531 C533 1.387 . S
H532 C539 0.950 . S
C533 C531 1.387 . S
C533 C535 1.390 . S
C533 H537 0.950 . S
H534 C530 0.950 . S
C535 C533 1.390 . S
C535 C536 1.387 . S
C535 H538 0.950 . S
C536 C535 1.387 . S
C536 C539 1.387 . S
H537 C533 0.950 . S
H538 C535 0.950 . S
C539 C530 1.390 . S
C539 H532 0.950 . S
C539 C536 1.387 . S
C540 C541 1.387 . S
C540 H544 0.950 . S
C540 C549 1.390 . S
C541 C540 1.387 . S
C541 C543 1.387 . S
H542 C549 0.950 . S
C543 C541 1.387 . S
C543 C545 1.390 . S
C543 H547 0.950 . S
H544 C540 0.950 . S
C545 C543 1.390 . S
C545 C546 1.387 . S
C545 H548 0.950 . S
C546 C545 1.387 . S
C546 C549 1.387 . S
H547 C543 0.950 . S
H548 C545 0.950 . S
C549 C540 1.390 . S
C549 H542 0.950 . S
C549 C546 1.387 . S
C550 C551 1.387 . S
C550 H554 0.950 . S
C550 C559 1.390 1_656 S
C551 C550 1.387 . S
C551 C553 1.387 . S
H552 C559 0.950 . S
C553 C551 1.387 . S
C553 C555 1.390 1_656 S
C553 H557 0.950 . S
H554 C550 0.950 . S
C555 C553 1.390 1_454 S
C555 C556 1.387 . S
C555 H558 0.950 . S
C556 C555 1.387 . S
C556 C559 1.387 . S
H557 C553 0.950 . S
H558 C555 0.950 . S
C559 C550 1.390 1_454 S
C559 H552 0.950 . S
C559 C556 1.387 . S
C321 C10 1.975 . S
C326 C130 1.973 . S
C331 C9 1.549 . S
C336 C50 1.582 . S
C341 C49 1.067 . S
C346 C89 1.065 . S
C351 C90 1.581 . S
C356 C129 1.547 . S
C361 C19 1.975 . S
C366 C219 1.977 . S
C371 C18 1.547 . S
C376 C179 1.581 . S
C381 C178 1.065 . S
C386 C98 1.066 . S
C391 C218 1.549 . S
C396 C99 1.582 . S
C401 C250 1.975 . S
C406 C210 1.975 . S
C411 C170 1.581 . S
C416 C249 1.547 . S
C421 C289 1.065 . S
C426 C169 1.068 . S
C431 C209 1.547 . S
C436 C290 1.582 . S
C441 C139 1.975 . S
C446 C259 1.975 . S
C451 C258 1.547 . S
C456 C59 1.581 . S
C461 C58 1.065 . S
C466 C298 1.066 . S
C471 C138 1.549 . S
C476 C299 1.581 . S
C481 C15 1.803 . S
C486 C6 1.803 . S
C491 C46 1.469 . S
C496 C55 1.469 . S
C501 C95 1.469 . S
C506 C86 1.469 . S
C511 C135 1.801 . S
C516 C126 1.801 . S
C521 C166 1.469 . S
C526 C175 1.469 . S
C531 C215 1.803 . S
C536 C206 1.803 . S
C541 C246 1.802 . S
C546 C255 1.802 . S
C551 C286 1.465 . S
C556 C295 1.465 . S
