# Generated by pormake.
# Topology fcp, (5)-cn, num edge types: 1
# Building blocks:
#     Node 0, Type 0, BuildingBlock: XOMCOT_clean_sbu_0, # of connection points: 5
#     Node 1, Type 0, BuildingBlock: XOMCOT_clean_sbu_0, # of connection points: 5
#     Node 2, Type 0, BuildingBlock: XOMCOT_clean_sbu_0, # of connection points: 5
#     Node 3, Type 0, BuildingBlock: XOMCOT_clean_sbu_0, # of connection points: 5
#     Node 4, Type 0, BuildingBlock: XOMCOT_clean_sbu_0, # of connection points: 5
#     Node 5, Type 0, BuildingBlock: XOMCOT_clean_sbu_0, # of connection points: 5
#     Node 6, Type 0, BuildingBlock: XOMCOT_clean_sbu_0, # of connection points: 5
#     Node 7, Type 0, BuildingBlock: XOMCOT_clean_sbu_0, # of connection points: 5
#     Node 8, Type 0, BuildingBlock: XOMCOT_clean_sbu_0, # of connection points: 5
#     Node 9, Type 0, BuildingBlock: XOMCOT_clean_sbu_0, # of connection points: 5
#     Node 10, Type 0, BuildingBlock: XOMCOT_clean_sbu_0, # of connection points: 5
#     Node 11, Type 0, BuildingBlock: XOMCOT_clean_sbu_0, # of connection points: 5
#     Node 12, Type 0, BuildingBlock: XOMCOT_clean_sbu_0, # of connection points: 5
#     Node 13, Type 0, BuildingBlock: XOMCOT_clean_sbu_0, # of connection points: 5
#     Node 14, Type 0, BuildingBlock: XOMCOT_clean_sbu_0, # of connection points: 5
#     Node 15, Type 0, BuildingBlock: XOMCOT_clean_sbu_0, # of connection points: 5
#     Node 16, Type 0, BuildingBlock: XOMCOT_clean_sbu_0, # of connection points: 5
#     Node 17, Type 0, BuildingBlock: XOMCOT_clean_sbu_0, # of connection points: 5
#     Node 18, Type 0, BuildingBlock: XOMCOT_clean_sbu_0, # of connection points: 5
#     Node 19, Type 0, BuildingBlock: XOMCOT_clean_sbu_0, # of connection points: 5
#     Node 20, Type 0, BuildingBlock: XOMCOT_clean_sbu_0, # of connection points: 5
#     Node 21, Type 0, BuildingBlock: XOMCOT_clean_sbu_0, # of connection points: 5
#     Node 22, Type 0, BuildingBlock: XOMCOT_clean_sbu_0, # of connection points: 5
#     Node 23, Type 0, BuildingBlock: XOMCOT_clean_sbu_0, # of connection points: 5
#     Edge 24, Type (0, 0), BuildingBlock: OJICUG_clean_linker_0, # of connection points: 2
#     Edge 25, Type (0, 0), BuildingBlock: OJICUG_clean_linker_0, # of connection points: 2
#     Edge 26, Type (0, 0), BuildingBlock: OJICUG_clean_linker_0, # of connection points: 2
#     Edge 27, Type (0, 0), BuildingBlock: OJICUG_clean_linker_0, # of connection points: 2
#     Edge 28, Type (0, 0), BuildingBlock: OJICUG_clean_linker_0, # of connection points: 2
#     Edge 29, Type (0, 0), BuildingBlock: OJICUG_clean_linker_0, # of connection points: 2
#     Edge 30, Type (0, 0), BuildingBlock: OJICUG_clean_linker_0, # of connection points: 2
#     Edge 31, Type (0, 0), BuildingBlock: OJICUG_clean_linker_0, # of connection points: 2
#     Edge 32, Type (0, 0), BuildingBlock: OJICUG_clean_linker_0, # of connection points: 2
#     Edge 33, Type (0, 0), BuildingBlock: OJICUG_clean_linker_0, # of connection points: 2
#     Edge 34, Type (0, 0), BuildingBlock: OJICUG_clean_linker_0, # of connection points: 2
#     Edge 35, Type (0, 0), BuildingBlock: OJICUG_clean_linker_0, # of connection points: 2
#     Edge 36, Type (0, 0), BuildingBlock: OJICUG_clean_linker_0, # of connection points: 2
#     Edge 37, Type (0, 0), BuildingBlock: OJICUG_clean_linker_0, # of connection points: 2
#     Edge 38, Type (0, 0), BuildingBlock: OJICUG_clean_linker_0, # of connection points: 2
#     Edge 39, Type (0, 0), BuildingBlock: OJICUG_clean_linker_0, # of connection points: 2
#     Edge 40, Type (0, 0), BuildingBlock: OJICUG_clean_linker_0, # of connection points: 2
#     Edge 41, Type (0, 0), BuildingBlock: OJICUG_clean_linker_0, # of connection points: 2
#     Edge 42, Type (0, 0), BuildingBlock: OJICUG_clean_linker_0, # of connection points: 2
#     Edge 43, Type (0, 0), BuildingBlock: OJICUG_clean_linker_0, # of connection points: 2
#     Edge 44, Type (0, 0), BuildingBlock: OJICUG_clean_linker_0, # of connection points: 2
#     Edge 45, Type (0, 0), BuildingBlock: OJICUG_clean_linker_0, # of connection points: 2
#     Edge 46, Type (0, 0), BuildingBlock: OJICUG_clean_linker_0, # of connection points: 2
#     Edge 47, Type (0, 0), BuildingBlock: OJICUG_clean_linker_0, # of connection points: 2
#     Edge 48, Type (0, 0), BuildingBlock: OJICUG_clean_linker_0, # of connection points: 2
#     Edge 49, Type (0, 0), BuildingBlock: OJICUG_clean_linker_0, # of connection points: 2
#     Edge 50, Type (0, 0), BuildingBlock: OJICUG_clean_linker_0, # of connection points: 2
#     Edge 51, Type (0, 0), BuildingBlock: OJICUG_clean_linker_0, # of connection points: 2
#     Edge 52, Type (0, 0), BuildingBlock: OJICUG_clean_linker_0, # of connection points: 2
#     Edge 53, Type (0, 0), BuildingBlock: OJICUG_clean_linker_0, # of connection points: 2
#     Edge 54, Type (0, 0), BuildingBlock: OJICUG_clean_linker_0, # of connection points: 2
#     Edge 55, Type (0, 0), BuildingBlock: OJICUG_clean_linker_0, # of connection points: 2
#     Edge 56, Type (0, 0), BuildingBlock: OJICUG_clean_linker_0, # of connection points: 2
#     Edge 57, Type (0, 0), BuildingBlock: OJICUG_clean_linker_0, # of connection points: 2
#     Edge 58, Type (0, 0), BuildingBlock: OJICUG_clean_linker_0, # of connection points: 2
#     Edge 59, Type (0, 0), BuildingBlock: OJICUG_clean_linker_0, # of connection points: 2
#     Edge 60, Type (0, 0), BuildingBlock: OJICUG_clean_linker_0, # of connection points: 2
#     Edge 61, Type (0, 0), BuildingBlock: OJICUG_clean_linker_0, # of connection points: 2
#     Edge 62, Type (0, 0), BuildingBlock: OJICUG_clean_linker_0, # of connection points: 2
#     Edge 63, Type (0, 0), BuildingBlock: OJICUG_clean_linker_0, # of connection points: 2
#     Edge 64, Type (0, 0), BuildingBlock: OJICUG_clean_linker_0, # of connection points: 2
#     Edge 65, Type (0, 0), BuildingBlock: OJICUG_clean_linker_0, # of connection points: 2
#     Edge 66, Type (0, 0), BuildingBlock: OJICUG_clean_linker_0, # of connection points: 2
#     Edge 67, Type (0, 0), BuildingBlock: OJICUG_clean_linker_0, # of connection points: 2
#     Edge 68, Type (0, 0), BuildingBlock: OJICUG_clean_linker_0, # of connection points: 2
#     Edge 69, Type (0, 0), BuildingBlock: OJICUG_clean_linker_0, # of connection points: 2
#     Edge 70, Type (0, 0), BuildingBlock: OJICUG_clean_linker_0, # of connection points: 2
#     Edge 71, Type (0, 0), BuildingBlock: OJICUG_clean_linker_0, # of connection points: 2
#     Edge 72, Type (0, 0), BuildingBlock: OJICUG_clean_linker_0, # of connection points: 2
#     Edge 73, Type (0, 0), BuildingBlock: OJICUG_clean_linker_0, # of connection points: 2
#     Edge 74, Type (0, 0), BuildingBlock: OJICUG_clean_linker_0, # of connection points: 2
#     Edge 75, Type (0, 0), BuildingBlock: OJICUG_clean_linker_0, # of connection points: 2
#     Edge 76, Type (0, 0), BuildingBlock: OJICUG_clean_linker_0, # of connection points: 2
#     Edge 77, Type (0, 0), BuildingBlock: OJICUG_clean_linker_0, # of connection points: 2
#     Edge 78, Type (0, 0), BuildingBlock: OJICUG_clean_linker_0, # of connection points: 2
#     Edge 79, Type (0, 0), BuildingBlock: OJICUG_clean_linker_0, # of connection points: 2
#     Edge 80, Type (0, 0), BuildingBlock: OJICUG_clean_linker_0, # of connection points: 2
#     Edge 81, Type (0, 0), BuildingBlock: OJICUG_clean_linker_0, # of connection points: 2
#     Edge 82, Type (0, 0), BuildingBlock: OJICUG_clean_linker_0, # of connection points: 2
#     Edge 83, Type (0, 0), BuildingBlock: OJICUG_clean_linker_0, # of connection points: 2
# Relax obj value: 0.051
# Max RMSD: 0.111
# Mean RMSD: 0.111
data_MOF--net-fcp--node1-XOMCOT_clean_sbu_0--edge1-OJICUG_clean_linker_0
_symmetry_space_group_name_H-M    P1
_symmetry_Int_Tables_number       1
_symmetry_cell_setting            triclinic
loop_
_symmetry_equiv_pos_as_xyz
'x, y, z'
_cell_length_a     39.351922
_cell_length_b     39.401659
_cell_length_c     39.23468
_cell_angle_alpha  89.978919
_cell_angle_beta   89.875697
_cell_angle_gamma 90.01607
loop_
_atom_site_label
_atom_site_type_symbol
_atom_site_fract_x
_atom_site_fract_y
_atom_site_fract_z
_atom_type_partial_charge
Co0 Co 0.09232 0.33505 0.18926 0.0
C1 C 0.15589 0.31131 0.15483 0.0
C2 C 0.16507 0.34993 0.19198 0.0
C3 C 0.19583 0.33801 0.18061 0.0
N4 N 0.1398 0.33396 0.17521 0.0
N5 N 0.19009 0.31355 0.15735 0.0
H6 H 0.14324 0.29195 0.1403 0.0
H7 H 0.16151 0.36713 0.21313 0.0
C8 C 0.11314 0.40914 0.18785 0.0
O9 O 0.12824 0.40619 0.1581 0.0
N10 N 0.04591 0.33624 0.20501 0.0
C11 C 0.01794 0.32367 0.18984 0.0
C12 C 0.98991 0.33324 0.20872 0.0
C13 C 0.03478 0.3525 0.23316 0.0
N14 N 1.00069 0.35119 0.23592 0.0
C15 C 0.07901 0.31553 0.12002 0.0
C16 C 0.04338 0.37271 0.10077 0.0
C17 C 0.04624 0.34592 0.0771 0.0
C18 C 0.06531 0.31744 0.08726 0.0
C19 C 0.05877 0.37027 0.13304 0.0
N20 N 0.07657 0.34193 0.14234 0.0
H21 H 0.0902 0.29188 0.12784 0.0
H22 H 0.05462 0.39049 0.15113 0.0
H23 H 0.0178 0.30947 0.16626 0.0
H24 H 0.05116 0.36623 0.25047 0.0
O25 O 0.09222 0.2856 0.19172 0.0
O26 O 0.10621 0.32051 0.23367 0.0
O27 O 0.09523 0.38486 0.19965 0.0
C28 C 0.10246 0.28956 0.22309 0.0
H29 H 0.22042 0.34491 0.19079 0.0
H30 H 0.96361 0.32792 0.2027 0.0
H31 H 0.0283 0.39495 0.09521 0.0
H32 H 0.06926 0.29604 0.0705 0.0
Co33 Co 0.83663 0.43432 0.33202 0.0
C34 C 0.81357 0.37244 0.36924 0.0
C35 C 0.85018 0.36134 0.33039 0.0
C36 C 0.83854 0.33124 0.34361 0.0
N37 N 0.83528 0.38736 0.34705 0.0
N38 N 0.81537 0.33826 0.36792 0.0
H39 H 0.79522 0.38581 0.3845 0.0
H40 H 0.8666 0.36395 0.30842 0.0
C41 C 0.91025 0.41235 0.33283 0.0
O42 O 0.90717 0.39835 0.36308 0.0
N43 N 0.838 0.48032 0.31552 0.0
C44 C 0.82582 0.50853 0.33059 0.0
C45 C 0.83546 0.53622 0.31134 0.0
C46 C 0.85412 0.49097 0.28708 0.0
N47 N 0.85304 0.52498 0.28403 0.0
C48 C 0.81798 0.44965 0.40095 0.0
C49 C 0.87706 0.48221 0.42006 0.0
C50 C 0.85018 0.48046 0.44379 0.0
C51 C 0.82068 0.46307 0.43372 0.0
C52 C 0.87369 0.46726 0.38764 0.0
N53 N 0.84449 0.45076 0.37853 0.0
H54 H 0.79375 0.43961 0.39327 0.0
H55 H 0.89402 0.47054 0.36943 0.0
H56 H 0.81191 0.50906 0.35438 0.0
H57 H 0.86768 0.47432 0.26983 0.0
O58 O 0.78713 0.43482 0.3308 0.0
O59 O 0.82086 0.41968 0.28818 0.0
O60 O 0.88629 0.43042 0.32069 0.0
C61 C 0.79018 0.42371 0.29965 0.0
H62 H 0.84475 0.30615 0.33425 0.0
H63 H 0.83058 0.56261 0.31725 0.0
H64 H 0.90007 0.49608 0.42581 0.0
H65 H 0.79913 0.46024 0.45064 0.0
Co66 Co 0.93371 0.69037 0.1915 0.0
C67 C 0.87069 0.71349 0.15565 0.0
C68 C 0.86104 0.67494 0.19285 0.0
C69 C 0.83045 0.68629 0.18064 0.0
N70 N 0.88653 0.6912 0.17658 0.0
N71 N 0.83646 0.71067 0.15731 0.0
H72 H 0.88345 0.73285 0.14114 0.0
H73 H 0.8643 0.65774 0.21406 0.0
C74 C 0.91352 0.61637 0.18804 0.0
O75 O 0.89916 0.62012 0.15807 0.0
N76 N 0.97975 0.68947 0.20808 0.0
C77 C 1.00795 0.7024 0.1935 0.0
C78 C 0.03562 0.69304 0.21289 0.0
C79 C 0.99038 0.67321 0.23639 0.0
N80 N 0.02436 0.67493 0.23983 0.0
C81 C 0.94831 0.71081 0.12252 0.0
C82 C 0.98391 0.65357 0.10327 0.0
C83 C 0.98086 0.68017 0.07941 0.0
C84 C 0.96203 0.70881 0.08967 0.0
C85 C 0.96856 0.65609 0.13556 0.0
N86 N 0.95056 0.68433 0.14478 0.0
H87 H 0.93705 0.73443 0.13041 0.0
H88 H 0.97278 0.63592 0.15368 0.0
H89 H 1.0085 0.71668 0.16996 0.0
H90 H 0.97375 0.6592 0.25332 0.0
O91 O 0.93303 0.73978 0.19492 0.0
O92 O 0.91867 0.70378 0.23589 0.0
O93 O 0.93106 0.64035 0.20086 0.0
C94 C 0.92208 0.73499 0.226 0.0
H95 H 0.80567 0.67893 0.19012 0.0
H96 H 0.06202 0.69855 0.20737 0.0
H97 H 0.99902 0.6313 0.09782 0.0
H98 H 0.95809 0.73019 0.07289 0.0
Co99 Co 0.18719 0.59062 0.33375 0.0
C100 C 0.21115 0.65417 0.36852 0.0
C101 C 0.1747 0.66339 0.32919 0.0
C102 C 0.1866 0.69406 0.34056 0.0
N103 N 0.18934 0.63818 0.34718 0.0
N104 N 0.20966 0.68836 0.36525 0.0
H105 H 0.22913 0.6414 0.38466 0.0
H106 H 0.15822 0.65972 0.30749 0.0
C107 C 0.11409 0.61366 0.33681 0.0
O108 O 0.11856 0.62896 0.36622 0.0
N109 N 0.1849 0.54419 0.31846 0.0
C110 C 0.19676 0.51601 0.33381 0.0
C111 C 0.18724 0.48825 0.31464 0.0
C112 C 0.16909 0.53343 0.28996 0.0
N113 N 0.17006 0.4994 0.28709 0.0
C114 C 0.20842 0.57671 0.40246 0.0
C115 C 0.15012 0.54393 0.42384 0.0
C116 C 0.17774 0.5456 0.44657 0.0
C117 C 0.2069 0.56308 0.43535 0.0
C118 C 0.15235 0.55891 0.39136 0.0
N119 N 0.1812 0.57537 0.38102 0.0
H120 H 0.23226 0.58706 0.39381 0.0
H121 H 0.13142 0.55551 0.37398 0.0
H122 H 0.21066 0.51555 0.35755 0.0
H123 H 0.1561 0.55008 0.27232 0.0
O124 O 0.23662 0.58989 0.3299 0.0
O125 O 0.20075 0.60387 0.28878 0.0
O126 O 0.13712 0.59434 0.32474 0.0
C127 C 0.23195 0.5999 0.29854 0.0
H128 H 0.18049 0.71852 0.32964 0.0
H129 H 0.19224 0.46188 0.32057 0.0
H130 H 0.12732 0.52999 0.43032 0.0
H131 H 0.22899 0.56581 0.45145 0.0
Co132 Co 0.09856 0.68318 0.83406 0.0
C133 C 0.16033 0.70849 0.87059 0.0
C134 C 0.17167 0.66978 0.83408 0.0
C135 C 0.20173 0.68262 0.84622 0.0
N136 N 0.14547 0.68529 0.84989 0.0
N137 N 0.19468 0.70714 0.86912 0.0
H138 H 0.14669 0.7275 0.88472 0.0
H139 H 0.1692 0.65219 0.8131 0.0
C140 C 0.12033 0.60932 0.83824 0.0
O141 O 0.13593 0.61334 0.86753 0.0
N142 N 0.05275 0.68117 0.81675 0.0
C143 C 0.02435 0.69444 0.83058 0.0
C144 C 0.99699 0.68482 0.81093 0.0
C145 C 0.04251 0.66438 0.78858 0.0
N146 N 1.00856 0.66614 0.78455 0.0
C147 C 0.08181 0.70653 0.90136 0.0
C148 C 0.04833 0.64905 0.92354 0.0
C149 C 0.04972 0.67722 0.94569 0.0
C150 C 0.06757 0.70594 0.934 0.0
C151 C 0.06419 0.65026 0.89138 0.0
N152 N 0.08104 0.67872 0.8807 0.0
H153 H 0.09236 0.73008 0.8923 0.0
H154 H 0.06136 0.62881 0.87454 0.0
H155 H 0.02346 0.70936 0.85369 0.0
H156 H 0.05938 0.65018 0.77207 0.0
O157 O 0.09852 0.73243 0.82886 0.0
O158 O 0.11436 0.69524 0.78957 0.0
O159 O 0.10173 0.6329 0.82619 0.0
C160 C 0.11036 0.72671 0.7983 0.0
H161 H 0.22677 0.67616 0.83681 0.0
H162 H 0.97055 0.6907 0.81582 0.0
H163 H 0.03416 0.62649 0.93023 0.0
H164 H 0.07035 0.72843 0.9495 0.0
Co165 Co 0.18833 0.42629 0.69002 0.0
C166 C 0.21397 0.36276 0.65762 0.0
C167 C 0.16762 0.35443 0.68481 0.0
C168 C 0.17958 0.32369 0.67359 0.0
N169 N 0.18846 0.37937 0.67388 0.0
N170 N 0.20902 0.32878 0.65671 0.0
H171 H 0.23735 0.37467 0.64964 0.0
H172 H 0.14675 0.35753 0.70238 0.0
C173 C 0.11205 0.41133 0.68762 0.0
O174 O 0.11304 0.39974 0.65623 0.0
N175 N 0.18846 0.47204 0.70756 0.0
C176 C 0.20269 0.49987 0.69358 0.0
C177 C 0.19466 0.52751 0.7136 0.0
C178 C 0.17278 0.48283 0.73623 0.0
N179 N 0.17611 0.5166 0.7404 0.0
C180 C 0.20555 0.43815 0.6197 0.0
C181 C 0.15237 0.48121 0.60443 0.0
C182 C 0.17721 0.4754 0.57916 0.0
C183 C 0.20358 0.45272 0.58728 0.0
C184 C 0.15476 0.46518 0.63641 0.0
N185 N 0.18118 0.44386 0.64378 0.0
H186 H 0.22765 0.42335 0.62572 0.0
H187 H 0.13624 0.47133 0.65581 0.0
H188 H 0.21706 0.50018 0.67005 0.0
H189 H 0.15819 0.46654 0.75298 0.0
O190 O 0.23784 0.42554 0.69181 0.0
O191 O 0.20297 0.4103 0.73358 0.0
O192 O 0.13852 0.42418 0.70109 0.0
C193 C 0.23392 0.41411 0.72282 0.0
H194 H 0.16816 0.29936 0.67924 0.0
H195 H 0.20141 0.55369 0.70862 0.0
H196 H 0.13184 0.49898 0.60024 0.0
H197 H 0.22324 0.44647 0.56904 0.0
Co198 Co 0.92883 0.33578 0.8326 0.0
C199 C 0.86616 0.31103 0.86848 0.0
C200 C 0.85576 0.34961 0.83157 0.0
C201 C 0.82538 0.33752 0.84386 0.0
N202 N 0.88157 0.33377 0.84759 0.0
N203 N 0.83185 0.31312 0.86703 0.0
H204 H 0.87932 0.29191 0.88288 0.0
H205 H 0.85866 0.36707 0.81051 0.0
C206 C 0.90739 0.40984 0.83513 0.0
O207 O 0.89225 0.40647 0.86482 0.0
N208 N 0.97497 0.33785 0.816 0.0
C209 C 1.00334 0.32556 0.83065 0.0
C210 C 0.03093 0.33552 0.81133 0.0
C211 C 0.98546 0.35434 0.78769 0.0
N212 N 0.01952 0.35341 0.78436 0.0
C213 C 0.94371 0.3154 0.90126 0.0
C214 C 0.97816 0.37312 0.92106 0.0
C215 C 0.97608 0.34593 0.94437 0.0
C216 C 0.95765 0.31714 0.93393 0.0
C217 C 0.96256 0.3708 0.88888 0.0
N218 N 0.94529 0.34222 0.87934 0.0
H219 H 0.93294 0.29164 0.89318 0.0
H220 H 0.96608 0.39138 0.87105 0.0
H221 H 1.00404 0.31126 0.85416 0.0
H222 H 0.96865 0.36791 0.77066 0.0
O223 O 0.92952 0.2864 0.82946 0.0
O224 O 0.91438 0.32171 0.78824 0.0
O225 O 0.92513 0.38568 0.82288 0.0
C226 C 0.91871 0.29068 0.79833 0.0
H227 H 0.80047 0.34449 0.83455 0.0
H228 H 0.05739 0.3305 0.8169 0.0
H229 H 0.99276 0.39564 0.92684 0.0
H230 H 0.95433 0.29541 0.9504 0.0
Co231 Co 0.83948 0.59454 0.68883 0.0
C232 C 0.81189 0.65779 0.65781 0.0
C233 C 0.85936 0.66692 0.68249 0.0
C234 C 0.8469 0.6973 0.67079 0.0
N235 N 0.83807 0.64169 0.67337 0.0
N236 N 0.81684 0.69166 0.65535 0.0
H237 H 0.78831 0.64558 0.65107 0.0
H238 H 0.88118 0.66434 0.69884 0.0
C239 C 0.91594 0.61008 0.68726 0.0
O240 O 0.91584 0.62098 0.6556 0.0
N241 N 0.84049 0.54847 0.70549 0.0
C242 C 0.8269 0.52066 0.69094 0.0
C243 C 0.83523 0.49281 0.71051 0.0
C244 C 0.85607 0.53747 0.73406 0.0
N245 N 0.85332 0.50356 0.7376 0.0
C246 C 0.82395 0.58486 0.61815 0.0
C247 C 0.87711 0.54191 0.60233 0.0
C248 C 0.85265 0.54865 0.57701 0.0
C249 C 0.82646 0.57143 0.58537 0.0
C250 C 0.87429 0.55704 0.63474 0.0
N251 N 0.84779 0.57821 0.64238 0.0
H252 H 0.80176 0.59947 0.62426 0.0
H253 H 0.89247 0.55031 0.65421 0.0
H254 H 0.81267 0.52054 0.66738 0.0
H255 H 0.87005 0.55373 0.75127 0.0
O256 O 0.79 0.59354 0.68996 0.0
O257 O 0.82359 0.60919 0.73248 0.0
O258 O 0.88897 0.59801 0.70059 0.0
C259 C 0.79298 0.60445 0.72122 0.0
H260 H 0.85863 0.72178 0.67484 0.0
H261 H 0.82889 0.46662 0.70511 0.0
H262 H 0.89754 0.5241 0.5978 0.0
H263 H 0.80721 0.57851 0.56707 0.0
Co264 Co 0.18327 0.09216 0.34473 0.0
C265 C 0.15539 0.15343 0.30945 0.0
C266 C 0.14214 0.15175 0.3625 0.0
C267 C 0.12797 0.1803 0.34845 0.0
N268 N 0.15968 0.13495 0.33823 0.0
N269 N 0.13633 0.18141 0.31514 0.0
H270 H 0.16618 0.14697 0.28494 0.0
H271 H 0.13928 0.14377 0.38869 0.0
C272 C 0.19093 0.08723 0.4227 0.0
O273 O 0.18745 0.05409 0.42389 0.0
N274 N 0.2066 0.04927 0.35097 0.0
C275 C 0.20029 0.02044 0.33361 0.0
C276 C 0.2235 0.99624 0.3431 0.0
C277 C 0.23429 0.04242 0.37019 0.0
N278 N 0.24466 1.00999 0.36622 0.0
C279 C 0.12521 0.05639 0.31957 0.0
C280 C 0.08783 0.05478 0.37917 0.0
C281 C 0.07385 0.04022 0.34974 0.0
C282 C 0.09315 0.0412 0.31968 0.0
C283 C 0.12014 0.06974 0.37797 0.0
N284 N 0.13889 0.06984 0.34855 0.0
H285 H 0.13903 0.05723 0.29583 0.0
H286 H 0.12911 0.08206 0.40063 0.0
H287 H 0.18064 0.01714 0.31479 0.0
H288 H 0.2467 0.06069 0.38657 0.0
O289 O 0.19134 0.0884 0.29569 0.0
O290 O 0.22592 0.11289 0.33258 0.0
O291 O 0.1871 0.1034 0.39475 0.0
C292 C 0.21989 0.10418 0.3013 0.0
H293 H 0.11229 0.19864 0.36169 0.0
H294 H 0.22441 0.97026 0.33415 0.0
H295 H 0.07354 0.05554 0.40278 0.0
H296 H 0.08366 0.0302 0.29627 0.0
Co297 Co 0.58896 0.33616 0.18861 0.0
C298 C 0.65185 0.36452 0.22101 0.0
C299 C 0.64612 0.37916 0.16864 0.0
C300 C 0.67508 0.39398 0.18108 0.0
N301 N 0.63165 0.36031 0.19343 0.0
N302 N 0.67871 0.38479 0.21395 0.0
H303 H 0.64728 0.35304 0.24563 0.0
H304 H 0.63599 0.38263 0.14329 0.0
C305 C 0.58477 0.31862 0.11285 0.0
O306 O 0.55147 0.31667 0.11235 0.0
N307 N 0.54597 0.31253 0.18396 0.0
C308 C 0.51521 0.3244 0.19339 0.0
C309 C 0.49115 0.29997 0.1868 0.0
C310 C 0.54032 0.28054 0.17273 0.0
N311 N 0.507 0.27256 0.17394 0.0
C312 C 0.5605 0.39867 0.21182 0.0
C313 C 0.54432 0.42611 0.14912 0.0
C314 C 0.53775 0.44542 0.17852 0.0
C315 C 0.54582 0.43091 0.21019 0.0
C316 C 0.55865 0.39363 0.15191 0.0
N317 N 0.56658 0.38018 0.18303 0.0
H318 H 0.56708 0.3886 0.23651 0.0
H319 H 0.5638 0.37999 0.1288 0.0
H320 H 0.51034 0.34917 0.2041 0.0
H321 H 0.5599 0.264 0.16271 0.0
O322 O 0.58555 0.33011 0.23796 0.0
O323 O 0.61011 0.29438 0.20208 0.0
O324 O 0.60031 0.33042 0.13879 0.0
C325 C 0.60157 0.30152 0.23318 0.0
H326 H 0.69184 0.41083 0.16717 0.0
H327 H 0.46396 0.30239 0.19029 0.0
H328 H 0.53919 0.43619 0.12399 0.0
H329 H 0.54077 0.4442 0.2338 0.0
Co330 Co 0.82861 0.93064 0.33979 0.0
C331 C 0.86573 0.87009 0.31306 0.0
C332 C 0.82843 0.85726 0.3508 0.0
C333 C 0.84202 0.82775 0.33813 0.0
N334 N 0.84387 0.88395 0.3358 0.0
N335 N 0.86539 0.83584 0.31432 0.0
H336 H 0.88043 0.88433 0.29483 0.0
H337 H 0.80745 0.85908 0.36856 0.0
C338 C 0.83731 0.90695 0.41239 0.0
O339 O 0.86629 0.89236 0.40448 0.0
N340 N 0.81218 0.97649 0.34349 0.0
C341 C 0.82598 1.0047 0.32981 0.0
C342 C 0.80667 0.03219 0.33954 0.0
C343 C 0.78437 0.98692 0.36068 0.0
N344 N 0.78055 0.02081 0.35862 0.0
C345 C 0.89546 0.94852 0.31643 0.0
C346 C 0.91851 0.97679 0.37652 0.0
C347 C 0.93994 0.97725 0.3479 0.0
C348 C 0.92793 0.96278 0.31759 0.0
C349 C 0.88607 0.96229 0.37423 0.0
N350 N 0.87519 0.94738 0.3447 0.0
H351 H 0.88618 0.93963 0.29221 0.0
H352 H 0.86934 0.96457 0.39589 0.0
H353 H 0.84867 1.00533 0.31423 0.0
H354 H 0.76779 0.97022 0.375 0.0
O355 O 0.82375 0.93264 0.29053 0.0
O356 O 0.78389 0.91607 0.32689 0.0
O357 O 0.82162 0.92498 0.3904 0.0
C358 C 0.79305 0.92118 0.2955 0.0
H359 H 0.83386 0.80229 0.34451 0.0
H360 H 0.81144 0.05853 0.33329 0.0
H361 H 0.92617 0.98874 0.40014 0.0
H362 H 0.94332 0.96282 0.29467 0.0
Co363 Co 0.42812 0.69047 0.18484 0.0
C364 C 0.3679 0.65207 0.20988 0.0
C365 C 0.35504 0.68897 0.1719 0.0
C366 C 0.32552 0.67501 0.18426 0.0
N367 N 0.38175 0.67403 0.18726 0.0
N368 N 0.33362 0.65194 0.20828 0.0
H369 H 0.38219 0.6379 0.22846 0.0
H370 H 0.35677 0.7101 0.15438 0.0
C371 C 0.40677 0.68513 0.11058 0.0
O372 O 0.39119 0.6561 0.11593 0.0
N373 N 0.47368 0.70818 0.18257 0.0
C374 C 0.5023 0.69464 0.19556 0.0
C375 C 0.52928 0.71516 0.18666 0.0
C376 C 0.48336 0.73694 0.16661 0.0
N377 N 0.51714 0.74174 0.16882 0.0
C378 C 0.44754 0.62413 0.20744 0.0
C379 C 0.47474 0.60083 0.14684 0.0
C380 C 0.47614 0.57985 0.17569 0.0
C381 C 0.46232 0.59196 0.20623 0.0
C382 C 0.46015 0.63328 0.14929 0.0
N383 N 0.44587 0.64431 0.17915 0.0
H384 H 0.43852 0.63317 0.23172 0.0
H385 H 0.46171 0.64975 0.12743 0.0
H386 H 0.50362 0.67126 0.20992 0.0
H387 H 0.46622 0.75344 0.15282 0.0
O388 O 0.42892 0.69384 0.23426 0.0
O389 O 0.41219 0.73445 0.19908 0.0
O390 O 0.42386 0.69915 0.13436 0.0
C391 C 0.417 0.72438 0.23022 0.0
H392 H 0.30001 0.68297 0.17779 0.0
H393 H 0.55582 0.71073 0.19236 0.0
H394 H 0.48602 0.59278 0.12298 0.0
H395 H 0.4632 0.57678 0.22923 0.0
Co396 Co 0.18704 0.92625 0.67956 0.0
C397 C 0.15547 0.86372 0.70867 0.0
C398 C 0.1766 0.85493 0.65926 0.0
C399 C 0.16527 0.8246 0.67203 0.0
N400 N 0.16933 0.87998 0.68153 0.0
N401 N 0.15219 0.82997 0.70336 0.0
H402 H 0.15081 0.87562 0.733 0.0
H403 H 0.19173 0.85754 0.63648 0.0
C404 C 0.17434 0.91251 0.6047 0.0
O405 O 0.14301 0.90292 0.61123 0.0
N406 N 0.20631 0.97114 0.67747 0.0
C407 C 0.20019 0.99757 0.69831 0.0
C408 C 0.2212 0.02401 0.68887 0.0
C409 C 0.23081 0.98163 0.65579 0.0
N410 N 0.24033 0.01387 0.66211 0.0
C411 C 0.11756 0.93837 0.69914 0.0
C412 C 0.10247 0.98521 0.64904 0.0
C413 C 0.07725 0.97741 0.67334 0.0
C414 C 0.08531 0.95307 0.69824 0.0
C415 C 0.13429 0.96906 0.65032 0.0
N416 N 0.14144 0.94561 0.67499 0.0
H417 H 0.12348 0.92195 0.72011 0.0
H418 H 0.15356 0.97622 0.632 0.0
H419 H 0.18199 0.99748 0.71901 0.0
H420 H 0.2421 0.96573 0.63635 0.0
O421 O 0.19122 0.92652 0.72888 0.0
O422 O 0.23081 0.90879 0.69276 0.0
O423 O 0.19355 0.92281 0.62871 0.0
C424 C 0.22138 0.91368 0.72419 0.0
H425 H 0.16822 0.80029 0.65962 0.0
H426 H 0.22213 0.04887 0.70058 0.0
H427 H 0.09823 1.00435 0.62974 0.0
H428 H 0.06709 0.94546 0.71745 0.0
Co429 Co 0.43251 0.33024 0.84045 0.0
C430 C 0.36978 0.35683 0.80668 0.0
C431 C 0.37303 0.37054 0.85952 0.0
C432 C 0.34421 0.38486 0.84615 0.0
N433 N 0.38894 0.35258 0.83497 0.0
N434 N 0.34218 0.37626 0.81297 0.0
H435 H 0.37572 0.34615 0.78201 0.0
H436 H 0.38218 0.37394 0.88525 0.0
C437 C 0.43638 0.31253 0.91639 0.0
O438 O 0.46967 0.31042 0.91684 0.0
N439 N 0.47625 0.30829 0.84564 0.0
C440 C 0.50685 0.32176 0.83808 0.0
C441 C 0.53161 0.29836 0.84576 0.0
C442 C 0.48272 0.27635 0.85649 0.0
N443 N 0.51636 0.26996 0.85718 0.0
C444 C 0.45281 0.39592 0.81891 0.0
C445 C 0.47946 0.41896 0.87975 0.0
C446 C 0.47966 0.44076 0.85142 0.0
C447 C 0.46617 0.42866 0.82069 0.0
C448 C 0.46581 0.38622 0.87685 0.0
N449 N 0.4528 0.37499 0.84663 0.0
H450 H 0.4421 0.38744 0.79508 0.0
H451 H 0.4658 0.37032 0.89902 0.0
H452 H 0.51107 0.34706 0.8283 0.0
H453 H 0.46342 0.25893 0.86555 0.0
O454 O 0.43742 0.32551 0.79134 0.0
O455 O 0.41334 0.28786 0.82574 0.0
O456 O 0.42074 0.32386 0.89022 0.0
C457 C 0.42231 0.29629 0.79502 0.0
H458 H 0.32653 0.40109 0.85963 0.0
H459 H 0.55882 0.30224 0.84425 0.0
H460 H 0.48925 0.42726 0.90413 0.0
H461 H 0.46614 0.44422 0.79793 0.0
Co462 Co 0.83249 0.0908 0.68704 0.0
C463 C 0.86892 0.15255 0.71221 0.0
C464 C 0.83129 0.16381 0.67452 0.0
C465 C 0.84411 0.19385 0.68659 0.0
N466 N 0.84744 0.13773 0.68977 0.0
N467 N 0.86769 0.18677 0.71039 0.0
H468 H 0.88373 0.13907 0.73084 0.0
H469 H 0.80999 0.16127 0.65736 0.0
C470 C 0.83693 0.11407 0.61349 0.0
O471 O 0.86648 0.1289 0.61803 0.0
N472 N 0.81605 0.04491 0.68416 0.0
C473 C 0.82453 0.018 0.7035 0.0
C474 C 0.80522 0.99058 0.6932 0.0
C475 C 0.79188 0.03378 0.66264 0.0
N476 N 0.78486 1.00067 0.66745 0.0
C477 C 0.90026 0.07473 0.70859 0.0
C478 C 0.92136 0.04317 0.6494 0.0
C479 C 0.94416 0.04465 0.67696 0.0
C480 C 0.93304 0.06126 0.70669 0.0
C481 C 0.88898 0.05793 0.65208 0.0
N482 N 0.87896 0.07413 0.68123 0.0
H483 H 0.8917 0.08463 0.7327 0.0
H484 H 0.87155 0.05491 0.6311 0.0
H485 H 0.84325 0.01835 0.72363 0.0
H486 H 0.77912 0.04974 0.64426 0.0
O487 O 0.82837 0.08971 0.73654 0.0
O488 O 0.78795 0.10523 0.70052 0.0
O489 O 0.82418 0.09546 0.6368 0.0
C490 C 0.79746 0.10072 0.73183 0.0
H491 H 0.83507 0.21896 0.68006 0.0
H492 H 0.80643 0.96512 0.7035 0.0
H493 H 0.92782 0.0297 0.62625 0.0
H494 H 0.9492 0.06358 0.72882 0.0
Co495 Co 0.59236 0.68364 0.83876 0.0
C496 C 0.65414 0.65545 0.8043 0.0
C497 C 0.65074 0.64138 0.85704 0.0
C498 C 0.67958 0.62714 0.84356 0.0
N499 N 0.63485 0.65945 0.83261 0.0
N500 N 0.68175 0.63603 0.81046 0.0
H501 H 0.64861 0.66678 0.77984 0.0
H502 H 0.64198 0.63841 0.88298 0.0
C503 C 0.59036 0.6976 0.91571 0.0
O504 O 0.55722 0.69488 0.91874 0.0
N505 N 0.54956 0.70744 0.84468 0.0
C506 C 0.52023 0.69954 0.82886 0.0
C507 C 0.49594 0.72299 0.8376 0.0
C508 C 0.54288 0.73635 0.86212 0.0
N509 N 0.51008 0.74592 0.85869 0.0
C510 C 0.55722 0.62395 0.81726 0.0
C511 C 0.55318 0.59168 0.87963 0.0
C512 C 0.53918 0.57571 0.85098 0.0
C513 C 0.54151 0.59228 0.81949 0.0
C514 C 0.56845 0.62366 0.87634 0.0
N515 N 0.56985 0.63981 0.84548 0.0
H516 H 0.55911 0.63569 0.79251 0.0
H517 H 0.57972 0.63459 0.89868 0.0
H518 H 0.5166 0.67841 0.81177 0.0
H519 H 0.56147 0.75004 0.87706 0.0
O520 O 0.58757 0.68905 0.78956 0.0
O521 O 0.61307 0.72531 0.82416 0.0
O522 O 0.60527 0.69015 0.88784 0.0
C523 C 0.60364 0.71771 0.79347 0.0
H524 H 0.69746 0.6112 0.85706 0.0
H525 H 0.46957 0.72271 0.82977 0.0
H526 H 0.55224 0.57964 0.90444 0.0
H527 H 0.53185 0.58058 0.79649 0.0
Co528 Co 0.3386 0.18655 0.10242 0.0
C529 C 0.31143 0.15096 0.16428 0.0
C530 C 0.34955 0.18802 0.17579 0.0
C531 C 0.33638 0.17608 0.20587 0.0
N532 N 0.33458 0.17182 0.14956 0.0
N533 N 0.31228 0.15282 0.19876 0.0
H534 H 0.29314 0.13613 0.15032 0.0
H535 H 0.36741 0.20874 0.1732 0.0
C536 C 0.41119 0.1774 0.12602 0.0
O537 O 0.40319 0.1492 0.14204 0.0
N538 N 0.34245 0.20257 0.05622 0.0
C539 C 0.32251 0.1944 0.02963 0.0
C540 C 0.33278 0.21314 1.00176 0.0
C541 C 0.36446 0.22604 0.0444 0.0
N542 N 0.35916 0.23295 1.01116 0.0
C543 C 0.31396 0.12041 0.08405 0.0
C544 C 0.37327 0.09679 0.05461 0.0
C545 C 0.34409 0.07643 0.053 0.0
C546 C 0.31419 0.08865 0.06811 0.0
C547 C 0.37183 0.12868 0.07038 0.0
N548 N 0.34262 0.13993 0.08563 0.0
H549 H 0.29015 0.12987 0.09377 0.0
H550 H 0.3939 0.14478 0.06867 0.0
H551 H 0.30181 0.17636 0.03054 0.0
H552 H 0.38341 0.23843 0.06 0.0
O553 O 0.28952 0.19231 0.10069 0.0
O554 O 0.32639 0.23164 0.11669 0.0
O555 O 0.3892 0.19268 0.10771 0.0
C556 C 0.29493 0.22303 0.11171 0.0
H557 H 0.34252 0.18562 0.23097 0.0
H558 H 0.32193 0.212 0.97646 0.0
H559 H 0.39665 0.08884 0.04237 0.0
H560 H 0.29092 0.07398 0.06717 0.0
Co561 Co 0.33898 0.83793 0.92776 0.0
C562 C 0.30457 0.86161 0.86373 0.0
C563 C 0.35677 0.87703 0.86669 0.0
C564 C 0.34345 0.88905 0.83671 0.0
N565 N 0.33265 0.85938 0.88356 0.0
N566 N 0.31068 0.87937 0.83482 0.0
H567 H 0.28025 0.85041 0.86999 0.0
H568 H 0.38232 0.8815 0.87568 0.0
C569 C 0.41581 0.8262 0.93323 0.0
O570 O 0.41586 0.82603 0.9667 0.0
N571 N 0.34524 0.81687 0.97213 0.0
C572 C 0.33825 0.83097 1.00269 0.0
C573 C 0.34751 0.80875 0.02798 0.0
C574 C 0.35763 0.78559 0.97934 0.0
N575 N 0.3596 0.78037 0.0133 0.0
C576 C 0.31267 0.89961 0.95595 0.0
C577 C 0.37379 0.93094 0.97016 0.0
C578 C 0.3436 0.94733 0.98001 0.0
C579 C 0.31275 0.93117 0.9723 0.0
C580 C 0.3726 0.89913 0.9542 0.0
N581 N 0.34229 0.88335 0.94797 0.0
H582 H 0.28852 0.88788 0.95053 0.0
H583 H 0.39628 0.88773 0.94691 0.0
H584 H 0.32775 0.85594 1.00674 0.0
H585 H 0.3667 0.76787 0.9603 0.0
O586 O 0.29018 0.82961 0.93188 0.0
O587 O 0.32741 0.79437 0.90886 0.0
O588 O 0.38902 0.83413 0.91668 0.0
C589 C 0.29611 0.80052 0.91719 0.0
H590 H 0.35669 0.90438 0.81803 0.0
H591 H 0.34623 0.81332 0.05516 0.0
H592 H 0.3983 0.94265 0.97444 0.0
H593 H 0.28863 0.94232 0.97945 0.0
Co594 Co 0.33717 0.18201 0.59537 0.0
C595 C 0.36795 0.21509 0.65663 0.0
C596 C 0.38018 0.16215 0.65313 0.0
C597 C 0.39497 0.17497 0.68203 0.0
N598 N 0.36284 0.18712 0.63729 0.0
N599 N 0.38724 0.20819 0.68423 0.0
H600 H 0.35735 0.23983 0.65123 0.0
H601 H 0.38224 0.13623 0.64441 0.0
C602 C 0.32697 0.10511 0.58912 0.0
O603 O 0.32961 0.10451 0.55574 0.0
N604 N 0.31164 0.17699 0.55337 0.0
C605 C 0.31735 0.19405 0.52413 0.0
C606 C 0.29313 0.18498 0.5007 0.0
C607 C 0.28323 0.15847 0.54757 0.0
N608 N 0.27189 0.16243 0.51533 0.0
C609 C 0.39399 0.20762 0.55768 0.0
C610 C 0.43117 0.14832 0.55392 0.0
C611 C 0.44524 0.17809 0.54015 0.0
C612 C 0.4259 0.20792 0.54202 0.0
C613 C 0.39895 0.14907 0.5693 0.0
N614 N 0.38044 0.17844 0.57074 0.0
H615 H 0.38028 0.23124 0.55942 0.0
H616 H 0.38989 0.12613 0.58102 0.0
H617 H 0.33749 0.21215 0.51994 0.0
H618 H 0.2712 0.14232 0.56637 0.0
O619 O 0.32924 0.23094 0.59306 0.0
O620 O 0.29588 0.19374 0.6188 0.0
O621 O 0.33319 0.13217 0.6058 0.0
C622 C 0.30164 0.22507 0.61053 0.0
H623 H 0.41041 0.16097 0.69999 0.0
H624 H 0.29176 0.19361 0.47454 0.0
H625 H 0.44538 0.12479 0.5539 0.0
H626 H 0.43531 0.23155 0.53153 0.0
Co627 Co 0.68458 0.18833 0.93142 0.0
C628 C 0.71124 0.15202 0.86983 0.0
C629 C 0.67017 0.18573 0.85844 0.0
C630 C 0.68244 0.17282 0.82837 0.0
N631 N 0.68747 0.172 0.8847 0.0
N632 N 0.70835 0.15165 0.83551 0.0
H633 H 0.73153 0.13959 0.88323 0.0
H634 H 0.65124 0.20548 0.86079 0.0
C635 C 0.6113 0.17715 0.9111 0.0
O636 O 0.61881 0.14774 0.89722 0.0
N637 N 0.68148 0.20613 0.97701 0.0
C638 C 0.70157 0.19914 1.00382 0.0
C639 C 0.6909 0.21852 0.03111 0.0
C640 C 0.65904 0.22952 0.98811 0.0
N641 N 0.66412 0.23749 0.02112 0.0
C642 C 0.708 0.12111 0.9479 0.0
C643 C 0.65128 0.10024 0.98369 0.0
C644 C 0.67851 0.07724 0.98029 0.0
C645 C 0.707 0.08839 0.96161 0.0
C646 C 0.65287 0.13244 0.96837 0.0
N647 N 0.68067 0.14226 0.94985 0.0
H648 H 0.73144 0.12974 0.93673 0.0
H649 H 0.63217 0.14991 0.97265 0.0
H650 H 0.72246 0.18131 1.00349 0.0
H651 H 0.63981 0.24101 0.97219 0.0
O652 O 0.73377 0.19408 0.93189 0.0
O653 O 0.69662 0.23283 0.91517 0.0
O654 O 0.63393 0.194 0.92706 0.0
C655 C 0.72819 0.22435 0.91968 0.0
H656 H 0.67436 0.18025 0.80309 0.0
H657 H 0.70168 0.2183 0.05647 0.0
H658 H 0.62917 0.09409 0.9989 0.0
H659 H 0.72893 0.07236 0.95765 0.0
Co660 Co 0.68595 0.83528 0.59405 0.0
C661 C 0.65876 0.80181 0.65686 0.0
C662 C 0.6452 0.85447 0.65379 0.0
C663 C 0.63116 0.84117 0.68292 0.0
N664 N 0.66299 0.83 0.6376 0.0
N665 N 0.63964 0.80811 0.68477 0.0
H666 H 0.66936 0.77721 0.65085 0.0
H667 H 0.64182 0.88017 0.6448 0.0
C668 C 0.70152 0.91101 0.58872 0.0
O669 O 0.70468 0.91137 0.55541 0.0
N670 N 0.70845 0.84003 0.55028 0.0
C671 C 0.69585 0.83019 0.51991 0.0
C672 C 0.71907 0.83791 0.49487 0.0
C673 C 0.7399 0.85223 0.54345 0.0
N674 N 0.74661 0.85166 0.50972 0.0
C675 C 0.62114 0.81016 0.5736 0.0
C676 C 0.59717 0.86894 0.54362 0.0
C677 C 0.57588 0.84034 0.54454 0.0
C678 C 0.58842 0.81062 0.55974 0.0
C679 C 0.62974 0.8674 0.55782 0.0
N680 N 0.64138 0.83827 0.57261 0.0
H681 H 0.63022 0.78716 0.58549 0.0
H682 H 0.6453 0.88974 0.55678 0.0
H683 H 0.67122 0.81871 0.516 0.0
H684 H 0.75664 0.86304 0.56243 0.0
O685 O 0.69443 0.7865 0.59137 0.0
O686 O 0.72857 0.82454 0.61484 0.0
O687 O 0.68888 0.8854 0.60413 0.0
C688 C 0.7228 0.79303 0.60734 0.0
H689 H 0.61529 0.85458 0.70103 0.0
H690 H 0.7156 0.83482 0.46768 0.0
H691 H 0.58858 0.89259 0.53254 0.0
H692 H 0.57323 0.78773 0.56072 0.0
Co693 Co 0.68622 0.83179 0.09453 0.0
C694 C 0.70956 0.86911 0.15669 0.0
C695 C 0.67095 0.83232 0.16737 0.0
C696 C 0.68204 0.84559 0.1977 0.0
N697 N 0.68748 0.84764 0.14143 0.0
N698 N 0.70642 0.86867 0.191 0.0
H699 H 0.72888 0.88332 0.14354 0.0
H700 H 0.65353 0.81128 0.16461 0.0
C701 C 0.61178 0.83724 0.11465 0.0
O702 O 0.61615 0.86683 0.12943 0.0
N703 N 0.68452 0.81439 0.04877 0.0
C704 C 0.70323 0.82333 0.02146 0.0
C705 C 0.69312 0.80365 0.99414 0.0
C706 C 0.66364 0.78955 0.038 0.0
N707 N 0.66811 0.78261 1.00472 0.0
C708 C 0.70825 0.89929 0.07832 0.0
C709 C 0.65109 0.91978 0.0433 0.0
C710 C 0.6784 0.9428 0.04605 0.0
C711 C 0.70701 0.93191 0.06451 0.0
C712 C 0.65292 0.88761 0.05877 0.0
N713 N 0.68106 0.87792 0.07668 0.0
H714 H 0.7318 0.89092 0.08937 0.0
H715 H 0.6322 0.87007 0.05497 0.0
H716 H 0.72261 0.84281 0.02138 0.0
H717 H 0.64587 0.77636 0.05433 0.0
O718 O 0.73557 0.82792 0.09464 0.0
O719 O 0.69957 0.7876 0.11034 0.0
O720 O 0.63595 0.82353 0.09795 0.0
C721 C 0.73086 0.79726 0.10624 0.0
H722 H 0.6744 0.8371 0.22281 0.0
H723 H 0.70291 0.80517 0.96838 0.0
H724 H 0.62879 0.92586 0.02845 0.0
H725 H 0.7289 0.94807 0.06815 0.0
Co726 Co 0.33189 0.83703 0.43137 0.0
C727 C 0.3627 0.80475 0.36959 0.0
C728 C 0.37396 0.8579 0.37291 0.0
C729 C 0.38849 0.8454 0.34367 0.0
N730 N 0.35746 0.83257 0.38914 0.0
N731 N 0.38134 0.81204 0.34154 0.0
H732 H 0.35258 0.77984 0.37514 0.0
H733 H 0.37553 0.88389 0.38147 0.0
C734 C 0.32316 0.91405 0.43922 0.0
O735 O 0.32583 0.91355 0.47259 0.0
N736 N 0.30611 0.84149 0.47336 0.0
C737 C 0.31054 0.82361 0.50236 0.0
C738 C 0.28496 0.83171 0.52489 0.0
C739 C 0.2773 0.85957 0.47841 0.0
N740 N 0.26426 0.85426 0.50976 0.0
C741 C 0.38829 0.8127 0.4705 0.0
C742 C 0.4263 0.8716 0.47046 0.0
C743 C 0.4398 0.84263 0.48621 0.0
C744 C 0.42019 0.81294 0.48612 0.0
C745 C 0.39417 0.87032 0.4552 0.0
N746 N 0.37514 0.84124 0.45576 0.0
H747 H 0.37444 0.7891 0.46988 0.0
H748 H 0.38557 0.89263 0.44206 0.0
H749 H 0.33045 0.80538 0.50687 0.0
H750 H 0.266 0.87615 0.45957 0.0
O751 O 0.32522 0.78801 0.43349 0.0
O752 O 0.29062 0.82443 0.40835 0.0
O753 O 0.32731 0.88704 0.42173 0.0
C754 C 0.29721 0.79323 0.41663 0.0
H755 H 0.40333 0.85977 0.32542 0.0
H756 H 0.282 0.8222 0.55062 0.0
H757 H 0.44052 0.89512 0.46967 0.0
H758 H 0.4298 0.78964 0.49712 0.0
Co759 Co 0.69203 0.1918 0.43261 0.0
C760 C 0.65461 0.21582 0.37093 0.0
C761 C 0.69279 0.17879 0.35936 0.0
C762 C 0.67957 0.19063 0.3293 0.0
N763 N 0.67668 0.19391 0.38563 0.0
N764 N 0.65561 0.21403 0.33651 0.0
H765 H 0.63946 0.23395 0.38477 0.0
H766 H 0.71422 0.1618 0.36182 0.0
C767 C 0.68717 0.11815 0.41104 0.0
O768 O 0.65809 0.12309 0.3954 0.0
N769 N 0.70876 0.18971 0.47864 0.0
C770 C 0.69435 0.20205 0.50724 0.0
C771 C 0.71398 0.19244 0.53466 0.0
C772 C 0.73718 0.17352 0.48879 0.0
N773 N 0.74089 0.17479 0.52285 0.0
C774 C 0.62481 0.21425 0.45024 0.0
C775 C 0.60203 0.1541 0.47844 0.0
C776 C 0.58022 0.18227 0.47857 0.0
C777 C 0.59213 0.21264 0.46418 0.0
C778 C 0.63469 0.15685 0.46435 0.0
N779 N 0.64548 0.18642 0.44955 0.0
H780 H 0.63384 0.23839 0.44099 0.0
H781 H 0.65155 0.13545 0.46674 0.0
H782 H 0.67085 0.21622 0.50825 0.0
H783 H 0.75406 0.15995 0.47176 0.0
O784 O 0.6963 0.24105 0.43295 0.0
O785 O 0.73647 0.20474 0.41749 0.0
O786 O 0.70044 0.14171 0.42886 0.0
C787 C 0.72712 0.23601 0.4217 0.0
H788 H 0.6886 0.18414 0.30406 0.0
H789 H 0.70866 0.19745 0.56128 0.0
H790 H 0.59442 0.13045 0.49028 0.0
H791 H 0.57642 0.2352 0.46391 0.0
C792 C 0.15771 0.48567 0.22678 0.0
C793 C 0.15353 0.47893 0.26174 0.0
H794 H 0.14839 0.46863 0.17554 0.0
C795 C 0.13351 0.45136 0.27186 0.0
H796 H 0.17305 0.50697 0.21854 0.0
C797 C 0.11864 0.43024 0.24762 0.0
C798 C 0.12418 0.43558 0.21249 0.0
H799 H 0.12963 0.44602 0.29867 0.0
H800 H 0.10404 0.40874 0.25668 0.0
C801 C 0.14353 0.46386 0.20229 0.0
C802 C 0.95191 0.38751 0.24962 0.0
C803 C 0.97988 0.3685 0.26054 0.0
H804 H 0.90895 0.41723 0.26364 0.0
C805 C 0.98687 0.36635 0.2956 0.0
H806 H 0.94636 0.38986 0.2227 0.0
C807 C 0.96503 0.38158 0.31948 0.0
C808 C 0.93646 0.40001 0.30851 0.0
H809 H 1.00848 0.35183 0.30447 0.0
H810 H 0.97008 0.37835 0.34641 0.0
C811 C 0.93074 0.40343 0.27322 0.0
C812 C 0.8665 0.53997 0.22426 0.0
C813 C 0.87069 0.54542 0.2594 0.0
H814 H 0.87667 0.5584 0.17364 0.0
C815 C 0.89176 0.57177 0.27046 0.0
H816 H 0.85038 0.51956 0.21534 0.0
C817 C 0.90755 0.59313 0.24697 0.0
C818 C 0.90189 0.58927 0.2117 0.0
H819 H 0.89565 0.57604 0.29744 0.0
H820 H 0.9229 0.61374 0.25675 0.0
C821 C 0.88162 0.56204 0.20053 0.0
C822 C 0.06015 0.64587 0.32361 0.0
C823 C 0.08779 0.62598 0.31269 0.0
H824 H 0.0176 0.67677 0.30845 0.0
C825 C 0.0927 0.62111 0.27742 0.0
H826 H 0.05576 0.65023 0.35051 0.0
C827 C 0.07175 0.63707 0.25373 0.0
C828 C 0.04478 0.65752 0.26459 0.0
H829 H 0.11377 0.60618 0.26786 0.0
H830 H 0.07672 0.63368 0.22679 0.0
C831 C 0.03847 0.66111 0.29967 0.0
C832 C 0.1395 0.5647 0.75508 0.0
C833 C 0.15972 0.53747 0.76556 0.0
H834 H 0.11026 0.60773 0.76963 0.0
C835 C 0.16452 0.53174 0.80058 0.0
H836 H 0.13526 0.5693 0.72821 0.0
C837 C 0.15073 0.55425 0.82475 0.0
C838 C 0.13114 0.5822 0.81415 0.0
H839 H 0.18007 0.51072 0.80907 0.0
H840 H 0.15605 0.55027 0.85152 0.0
C841 C 0.12501 0.5865 0.77901 0.0
C842 C 0.06695 0.3913 0.77036 0.0
C843 C 0.0399 0.37098 0.75954 0.0
H844 H 0.10971 0.42124 0.75635 0.0
C845 C 0.03396 0.36719 0.72442 0.0
H846 H 0.07161 0.39497 0.79731 0.0
C847 C 0.05629 0.38175 0.70049 0.0
C848 C 0.08439 0.40096 0.71143 0.0
H849 H 0.01302 0.35168 0.71563 0.0
H850 H 0.05227 0.37692 0.67363 0.0
C851 C 0.0886 0.40649 0.7467 0.0
C852 C 0.90359 0.43311 0.77603 0.0
C853 C 0.89715 0.43724 0.81116 0.0
H854 H 0.89398 0.45071 0.72529 0.0
C855 C 0.8778 0.46535 0.82183 0.0
H856 H 0.91825 0.41181 0.76661 0.0
C857 C 0.86444 0.48812 0.79774 0.0
C858 C 0.86947 0.48253 0.76271 0.0
H859 H 0.87228 0.46923 0.8486 0.0
H860 H 0.84899 0.50922 0.80627 0.0
C861 C 0.88955 0.45519 0.75217 0.0
C862 C 0.99467 0.65245 0.72453 0.0
C863 C 0.98823 0.64884 0.75961 0.0
H864 H 0.97668 0.64312 0.67362 0.0
C865 C 0.96054 0.62926 0.77027 0.0
H866 H 0.01607 0.66744 0.71587 0.0
C867 C 0.93875 0.61464 0.74649 0.0
C868 C 0.9435 0.62001 0.71124 0.0
H869 H 0.95545 0.62579 0.79719 0.0
H870 H 0.91716 0.60045 0.75603 0.0
C871 C 0.97223 0.63845 0.70046 0.0
C872 C 0.2227 0.08979 0.47845 0.0
C873 C 0.20507 0.10634 0.45205 0.0
H874 H 0.25798 0.09514 0.51993 0.0
C875 C 0.20557 0.14203 0.4509 0.0
H876 H 0.22292 0.06235 0.48002 0.0
C877 C 0.22574 0.16054 0.4734 0.0
C878 C 0.2456 0.14394 0.49789 0.0
H879 H 0.19198 0.15571 0.43123 0.0
H880 H 0.22721 0.18784 0.47057 0.0
C881 C 0.24275 0.10852 0.50131 0.0
C882 C 0.64091 0.29953 0.08967 0.0
C883 C 0.6054 0.30196 0.08587 0.0
H884 H 0.68727 0.27701 0.07216 0.0
C885 C 0.58993 0.28482 0.05857 0.0
H886 H 0.65384 0.31242 0.1103 0.0
C887 C 0.60936 0.26456 0.03655 0.0
C888 C 0.64454 0.26072 0.04167 0.0
H889 H 0.56268 0.286 0.05494 0.0
H890 H 0.59663 0.25072 0.01646 0.0
C891 C 0.66016 0.27899 0.06801 0.0
C892 C 0.76637 0.9005 0.4768 0.0
C893 C 0.77321 0.86902 0.49187 0.0
H894 H 0.78187 0.93778 0.44035 0.0
C895 C 0.80392 0.85252 0.48458 0.0
H896 H 0.7426 0.91334 0.48207 0.0
C897 C 0.82657 0.86636 0.46067 0.0
C898 C 0.8185 0.89671 0.44353 0.0
H899 H 0.80929 0.82799 0.49579 0.0
H900 H 0.8491 0.85207 0.45389 0.0
C901 C 0.78881 0.9143 0.45293 0.0
C902 C 0.40477 0.7601 0.05081 0.0
C903 C 0.37586 0.75315 0.03126 0.0
H904 H 0.43798 0.74354 0.09039 0.0
C905 C 0.36019 0.72129 0.0341 0.0
H906 H 0.41707 0.78462 0.04893 0.0
C907 C 0.37181 0.69764 0.05821 0.0
C908 C 0.39929 0.70567 0.07972 0.0
H909 H 0.33762 0.71572 0.01938 0.0
H910 H 0.35791 0.67415 0.0615 0.0
C911 C 0.41655 0.73656 0.07458 0.0
C912 C 0.20794 0.85424 0.53681 0.0
C913 C 0.23699 0.87199 0.52619 0.0
H914 H 0.16401 0.85405 0.5692 0.0
C915 C 0.24179 0.90554 0.53699 0.0
H916 H 0.20418 0.82817 0.52894 0.0
C917 C 0.21939 0.92014 0.56054 0.0
C918 C 0.19145 0.90159 0.57299 0.0
H919 H 0.26434 0.91936 0.52933 0.0
H920 H 0.22512 0.94507 0.57068 0.0
C921 C 0.18498 0.86914 0.55963 0.0
C922 C 0.43195 0.28089 0.97195 0.0
C923 C 0.41606 0.29648 0.94394 0.0
H924 H 0.42617 0.24832 0.01539 0.0
C925 C 0.38065 0.29303 0.94026 0.0
H926 H 0.45916 0.28295 0.97554 0.0
C927 C 0.36194 0.2729 0.9628 0.0
C928 C 0.37804 0.25606 0.98983 0.0
H929 H 0.36744 0.30473 0.9191 0.0
H930 H 0.33489 0.27005 0.95876 0.0
C931 C 0.41308 0.26103 0.99478 0.0
C932 C 0.82439 0.14738 0.55986 0.0
C933 C 0.81344 0.12596 0.58641 0.0
H934 H 0.80932 0.17954 0.51808 0.0
C935 C 0.77838 0.11919 0.58971 0.0
H936 H 0.85111 0.15319 0.55667 0.0
C937 C 0.75484 0.13495 0.56853 0.0
C938 C 0.76566 0.15713 0.54291 0.0
H939 H 0.76874 0.10297 0.6098 0.0
H940 H 0.72799 0.13022 0.5724 0.0
C941 C 0.80062 0.16251 0.53794 0.0
C942 C 0.66479 0.74159 0.95748 0.0
C943 C 0.64915 0.75861 0.98462 0.0
H944 H 0.65889 0.70797 0.91536 0.0
C945 C 0.6145 0.75251 0.99132 0.0
H946 H 0.69154 0.74532 0.95214 0.0
C947 C 0.59548 0.73116 0.97009 0.0
C948 C 0.61088 0.71522 0.94201 0.0
H949 H 0.60176 0.7654 1.01209 0.0
H950 H 0.56851 0.72827 0.97488 0.0
C951 C 0.646 0.71996 0.93661 0.0
C952 C 0.47743 0.2465 0.12587 0.0
C953 C 0.49018 0.24395 0.15907 0.0
H954 H 0.44276 0.22671 0.08892 0.0
C955 C 0.48092 0.21615 0.17937 0.0
H956 H 0.48409 0.26809 0.11011 0.0
C957 C 0.45741 0.19226 0.16734 0.0
C958 C 0.44244 0.19632 0.13505 0.0
H959 H 0.49022 0.21421 0.20525 0.0
H960 H 0.449 0.17228 0.18435 0.0
C961 C 0.45376 0.22291 0.11392 0.0
C962 C 0.44336 0.81024 0.87803 0.0
C963 C 0.44501 0.81199 0.91382 0.0
H964 H 0.46318 0.78779 0.83244 0.0
C965 C 0.47224 0.79587 0.93051 0.0
H966 H 0.42304 0.82259 0.86417 0.0
C967 C 0.4956 0.77619 0.91199 0.0
C968 C 0.49184 0.77209 0.87661 0.0
H969 H 0.47434 0.79672 0.95802 0.0
H970 H 0.51501 0.7622 0.92558 0.0
C971 C 0.46634 0.79033 0.85973 0.0
C972 C 0.26985 0.02993 0.60859 0.0
C973 C 0.26544 0.03354 0.64402 0.0
H974 H 0.29306 0.04967 0.56312 0.0
C975 C 0.28495 0.05771 0.66141 0.0
H976 H 0.25512 0.01143 0.59455 0.0
C977 C 0.307 0.0791 0.64365 0.0
C978 C 0.30976 0.07724 0.60789 0.0
H979 H 0.28262 0.06054 0.68876 0.0
H980 H 0.32072 0.09821 0.65792 0.0
C981 C 0.29171 0.05171 0.59062 0.0
C982 C 0.54124 0.21267 0.85595 0.0
C983 C 0.53338 0.24246 0.87383 0.0
H984 H 0.5719 0.16767 0.85424 0.0
C985 C 0.54686 0.24746 0.90644 0.0
H986 H 0.5312 0.20871 0.83058 0.0
C987 C 0.56993 0.22424 0.92004 0.0
C988 C 0.58011 0.19565 0.90112 0.0
H989 H 0.54107 0.27045 0.92042 0.0
H990 H 0.58146 0.22983 0.94445 0.0
C991 C 0.56437 0.18925 0.86958 0.0
C992 C 0.74387 0.95342 0.66396 0.0
C993 C 0.76125 0.98031 0.64828 0.0
H994 H 0.71046 0.91122 0.65778 0.0
C995 C 0.75594 0.98647 0.61337 0.0
H996 H 0.74705 0.94846 0.6909 0.0
C997 C 0.73503 0.96506 0.59415 0.0
C998 C 0.71867 0.9373 0.60958 0.0
H999 H 0.7691 1.007 0.60059 0.0
H1000 H 0.73269 0.96956 0.56702 0.0
C1001 C 0.72262 0.93233 0.64493 0.0
C1002 C 0.55981 0.75756 0.12639 0.0
C1003 C 0.53698 0.7672 0.15192 0.0
H1004 H 0.60009 0.77237 0.09346 0.0
C1005 C 0.53552 0.8013 0.16217 0.0
H1006 H 0.56097 0.73137 0.11807 0.0
C1007 C 0.55846 0.82507 0.14857 0.0
C1008 C 0.58273 0.81501 0.12416 0.0
H1009 H 0.51786 0.80904 0.18189 0.0
H1010 H 0.55821 0.85079 0.15829 0.0
C1011 C 0.58209 0.78122 0.11233 0.0
C1012 C 0.29072 0.96818 0.36728 0.0
C1013 C 0.27048 0.99183 0.38458 0.0
H1014 H 0.32418 0.92583 0.37099 0.0
C1015 C 0.27233 0.9936 0.42032 0.0
H1016 H 0.28994 0.96664 0.33973 0.0
C1017 C 0.29176 0.96985 0.43855 0.0
C1018 C 0.30972 0.94426 0.42115 0.0
H1019 H 0.25676 0.01161 0.43417 0.0
H1020 H 0.29076 0.9701 0.46614 0.0
C1021 C 0.31028 0.94483 0.38529 0.0
C1022 C 0.7213 0.0397 0.36635 0.0
C1023 C 0.75571 0.04137 0.37552 0.0
H1024 H 0.67208 0.06295 0.37047 0.0
C1025 C 0.76631 0.0654 0.39943 0.0
H1026 H 0.71287 0.02119 0.34781 0.0
C1027 C 0.74321 0.08857 0.41295 0.0
C1028 C 0.70908 0.08881 0.40211 0.0
H1029 H 0.79277 0.0668 0.40681 0.0
H1030 H 0.75271 0.1075 0.43053 0.0
C1031 C 0.69811 0.06349 0.37935 0.0
C1032 C 1.00364 0.31605 0.99459 0.0
C1033 C 0.99411 0.34654 0.9784 0.0
H1034 H 0.02469 0.29162 0.03783 0.0
C1035 C 1.00226 0.37718 0.99516 0.0
H1036 H 0.99918 0.29167 0.98281 0.0
C1037 C 0.01937 0.37718 0.02666 0.0
C1038 C 0.02831 0.34653 0.04301 0.0
H1039 H 0.99527 0.40139 0.98424 0.0
H1040 H 0.02571 0.40142 0.03791 0.0
C1041 C 0.01961 0.31604 0.02638 0.0
C1042 C 0.8216 0.50975 0.49351 0.0
C1043 C 0.85164 0.498 0.47791 0.0
H1044 H 0.79793 0.53227 0.53654 0.0
C1045 C 0.88251 0.50328 0.49538 0.0
H1046 H 0.79723 0.50741 0.48104 0.0
C1047 C 0.88313 0.51973 0.52726 0.0
C1048 C 0.85285 0.53101 0.54291 0.0
H1049 H 0.9063 0.49448 0.48469 0.0
H1050 H 0.90746 0.5238 0.5394 0.0
C1051 C 0.82212 0.5252 0.52551 0.0
C1052 C 0.02202 0.70832 0.99527 0.0
C1053 C 0.03183 0.67748 0.97987 0.0
H1054 H 1.00105 0.73373 0.03806 0.0
C1055 C 0.02419 0.64726 0.99765 0.0
H1056 H 0.02606 0.73239 0.98271 0.0
C1057 C 1.00734 0.64796 0.02932 0.0
C1058 C 0.99827 0.67894 0.04498 0.0
H1059 H 0.03139 0.62281 0.98743 0.0
H1060 H 1.00137 0.62395 0.04125 0.0
C1061 C 1.00635 0.70906 0.0273 0.0
C1062 C 0.20735 0.50015 0.52759 0.0
C1063 C 0.17681 0.49368 0.5453 0.0
H1064 H 0.23166 0.51925 0.48311 0.0
C1065 C 0.14633 0.50498 0.5302 0.0
H1066 H 0.23166 0.493 0.53819 0.0
C1067 C 0.1465 0.52204 0.49865 0.0
C1068 C 0.17711 0.52793 0.48076 0.0
H1069 H 0.12211 0.50044 0.54248 0.0
H1070 H 0.12249 0.53076 0.48853 0.0
C1071 C 0.20744 0.51633 0.49584 0.0
C1072 C 0.98524 0.01389 0.32146 0.0
C1073 C 0.97394 0.994 0.34902 0.0
H1074 H 0.02492 0.04449 0.30036 0.0
C1075 C 0.99544 0.99019 0.37738 0.0
H1076 H 0.96909 0.01806 0.29954 0.0
C1077 C 0.02768 1.00537 0.37783 0.0
C1078 C 0.03917 0.02479 0.34996 0.0
H1079 H 0.98765 0.97486 0.39894 0.0
H1080 H 0.04389 1.00125 0.39971 0.0
C1081 C 0.01735 0.02907 0.32193 0.0
C1082 C 0.53205 0.5054 0.2005 0.0
C1083 C 0.52299 0.48047 0.17643 0.0
H1084 H 0.52447 0.55599 0.21902 0.0
C1085 C 0.49941 0.48932 0.15089 0.0
H1086 H 0.55079 0.50019 0.21995 0.0
C1087 C 0.48488 0.52185 0.14995 0.0
C1088 C 0.49318 0.54613 0.1748 0.0
H1089 H 0.49143 0.4709 0.13208 0.0
H1090 H 0.46635 0.52769 0.13044 0.0
C1091 C 0.51714 0.53761 0.19986 0.0
C1092 C 0.02566 0.99979 0.70472 0.0
C1093 C 0.04335 0.99512 0.67382 0.0
H1094 H 0.98092 0.01682 0.72989 0.0
C1095 C 0.02811 1.00739 0.64375 0.0
H1096 H 0.03644 0.99176 0.72874 0.0
C1097 C 0.99634 0.02369 0.64466 0.0
C1098 C 0.97846 0.02775 0.67559 0.0
H1099 H 0.04045 1.00416 0.61929 0.0
H1100 H 0.98601 0.03325 0.621 0.0
C1101 C 0.9937 0.01522 0.70552 0.0
C1102 C 0.49256 0.53509 0.8356 0.0
C1103 C 0.52279 0.54172 0.85339 0.0
H1104 H 0.45485 0.49859 0.82178 0.0
C1105 C 0.53781 0.51531 0.8722 0.0
H1106 H 0.47999 0.55503 0.82141 0.0
C1107 C 0.52352 0.48272 0.87221 0.0
C1108 C 0.4938 0.47585 0.85353 0.0
H1109 H 0.56127 0.51954 0.88596 0.0
H1110 H 0.5364 0.46267 0.88595 0.0
C1111 C 0.4782 0.50266 0.83576 0.0
C1112 C 0.31806 0.03559 1.01127 0.0
C1113 C 0.34429 0.04354 0.03418 0.0
H1114 H 0.2978 1.00012 0.97548 0.0
C1115 C 0.37068 0.01995 0.03873 0.0
H1116 H 0.29766 0.05347 1.0067 0.0
C1117 C 0.37052 0.98891 0.02123 0.0
C1118 C 0.3442 0.9808 0.99829 0.0
H1119 H 0.39114 0.02522 0.05638 0.0
H1120 H 0.39078 0.97104 0.02627 0.0
C1121 C 0.31812 1.00482 0.99342 0.0
C1122 C 0.50163 0.20667 0.52967 0.0
C1123 C 0.48012 0.17852 0.52488 0.0
H1124 H 0.5498 0.22973 0.51938 0.0
C1125 C 0.49223 0.15112 0.50526 0.0
H1126 H 0.49367 0.22789 0.54528 0.0
C1127 C 0.52473 0.15213 0.49048 0.0
C1128 C 0.54589 0.1806 0.49482 0.0
H1129 H 0.47635 0.12915 0.50071 0.0
H1130 H 0.53301 0.13089 0.47504 0.0
C1131 C 0.53396 0.20772 0.51481 0.0
C1132 C 0.70857 0.02589 1.00521 0.0
C1133 C 0.67803 0.0427 0.99706 0.0
H1134 H 0.73291 0.98176 0.02418 0.0
C1135 C 0.64733 0.02599 1.00523 0.0
H1136 H 0.73302 0.03751 1.00057 0.0
C1137 C 0.64729 0.99406 0.02127 0.0
C1138 C 0.67795 0.97716 0.02893 0.0
H1139 H 0.62306 0.0373 0.99913 0.0
H1140 H 0.62302 0.98293 0.02783 0.0
C1141 C 0.70852 0.99363 0.02005 0.0
C1142 C 0.50152 0.86 0.48557 0.0
C1143 C 0.47447 0.8429 0.50163 0.0
H1144 H 0.55458 0.87212 0.48598 0.0
C1145 C 0.48101 0.82536 0.53217 0.0
H1146 H 0.4976 0.87331 0.46175 0.0
C1147 C 0.51373 0.8247 0.54611 0.0
C1148 C 0.54088 0.8415 0.52988 0.0
H1149 H 0.46073 0.81235 0.54553 0.0
H1150 H 0.51764 0.81128 0.56987 0.0
C1151 C 0.53427 0.85929 0.49949 0.0
C1152 C 0.11423 0.22758 0.23402 0.0
C1153 C 0.11025 0.26092 0.24611 0.0
H1154 H 0.12598 0.17581 0.24673 0.0
C1155 C 0.11499 0.26743 0.28097 0.0
H1156 H 0.11091 0.22189 0.20723 0.0
C1157 C 0.1235 0.24136 0.30331 0.0
C1158 C 0.1277 0.20802 0.29147 0.0
H1159 H 0.11221 0.29284 0.29114 0.0
H1160 H 0.12734 0.24749 0.32991 0.0
C1161 C 0.12311 0.20133 0.25653 0.0
C1162 C 0.76569 0.40964 0.24308 0.0
C1163 C 0.76075 0.41472 0.27815 0.0
H1164 H 0.74362 0.39583 0.19543 0.0
C1165 C 0.72822 0.40957 0.29211 0.0
H1166 H 0.79046 0.41326 0.23154 0.0
C1167 C 0.7012 0.39924 0.27123 0.0
C1168 C 0.70627 0.39441 0.23605 0.0
H1169 H 0.72378 0.41303 0.31915 0.0
H1170 H 0.67632 0.3955 0.28243 0.0
C1171 C 0.7388 0.39977 0.22231 0.0
C1172 C 0.89121 0.82034 0.25858 0.0
C1173 C 0.8833 0.81228 0.29268 0.0
H1174 H 0.90988 0.80208 0.21038 0.0
C1175 C 0.89133 0.77985 0.305 0.0
H1176 H 0.88512 0.84509 0.2483 0.0
C1177 C 0.90534 0.75547 0.28347 0.0
C1178 C 0.91172 0.76284 0.249 0.0
H1179 H 0.88619 0.77311 0.33125 0.0
H1180 H 0.91035 0.73045 0.29376 0.0
C1181 C 0.90532 0.79576 0.23687 0.0
C1182 C 0.31789 0.62793 0.26471 0.0
C1183 C 0.30996 0.63465 0.23036 0.0
H1184 H 0.29927 0.61146 0.31357 0.0
C1185 C 0.27744 0.62649 0.21834 0.0
H1186 H 0.34269 0.63416 0.2748 0.0
C1187 C 0.25278 0.6137 0.24038 0.0
C1188 C 0.26001 0.60867 0.27507 0.0
H1189 H 0.2708 0.63075 0.19192 0.0
H1190 H 0.22766 0.60866 0.23033 0.0
C1191 C 0.29305 0.61501 0.28693 0.0
C1192 C 0.13937 0.74536 0.74535 0.0
C1193 C 0.12051 0.75395 0.7745 0.0
H1194 H 0.1648 0.76218 0.70078 0.0
C1195 C 0.11211 0.7881 0.78017 0.0
H1196 H 0.14662 0.7193 0.74035 0.0
C1197 C 0.12221 0.81312 0.75677 0.0
C1198 C 0.14123 0.80444 0.72751 0.0
H1199 H 0.09753 0.79541 0.80243 0.0
H1200 H 0.11484 0.83914 0.76154 0.0
C1201 C 0.14971 0.77017 0.72235 0.0
C1202 C 0.28237 0.39047 0.80208 0.0
C1203 C 0.31551 0.38573 0.78975 0.0
H1204 H 0.231 0.40316 0.79071 0.0
C1205 C 0.32202 0.39079 0.75481 0.0
H1206 H 0.27644 0.38634 0.82871 0.0
C1207 C 0.29576 0.4007 0.73277 0.0
C1208 C 0.2626 0.40521 0.74534 0.0
H1209 H 0.34741 0.38755 0.74467 0.0
H1210 H 0.30128 0.4044 0.70596 0.0
C1211 C 0.25627 0.39996 0.78019 0.0
C1212 C 0.90469 0.22921 0.78782 0.0
C1213 C 0.90978 0.26229 0.77546 0.0
H1214 H 0.8869 0.17894 0.77667 0.0
C1215 C 0.90369 0.26907 0.74085 0.0
H1216 H 0.9091 0.22333 0.81442 0.0
C1217 C 0.89123 0.24386 0.71939 0.0
C1218 C 0.88442 0.21121 0.73192 0.0
H1219 H 0.90776 0.2942 0.7304 0.0
H1220 H 0.88623 0.25012 0.693 0.0
C1221 C 0.89208 0.20382 0.76619 0.0
C1222 C 0.74218 0.62392 0.80028 0.0
C1223 C 0.70915 0.62787 0.78751 0.0
H1224 H 0.7942 0.61342 0.78943 0.0
C1225 C 0.70352 0.62362 0.75235 0.0
H1226 H 0.74744 0.6275 0.8271 0.0
C1227 C 0.73055 0.61531 0.7305 0.0
C1228 C 0.76359 0.61164 0.7435 0.0
H1229 H 0.67824 0.62633 0.74188 0.0
H1230 H 0.72572 0.61224 0.70351 0.0
C1231 C 0.76904 0.61603 0.77858 0.0
C1232 C 0.23406 0.1148 0.23951 0.0
C1233 C 0.2441 0.11322 0.27383 0.0
H1234 H 0.24774 0.12909 0.18853 0.0
C1235 C 0.27753 0.12222 0.28237 0.0
H1236 H 0.2084 0.10805 0.23223 0.0
C1237 C 0.3001 0.13373 0.25747 0.0
C1238 C 0.2898 0.13706 0.22334 0.0
H1239 H 0.28621 0.1208 0.30852 0.0
H1240 H 0.32558 0.14055 0.26517 0.0
C1241 C 0.25667 0.12674 0.21447 0.0
C1242 C 0.62774 0.26841 0.3202 0.0
C1243 C 0.63827 0.23519 0.31199 0.0
H1244 H 0.6076 0.31568 0.30162 0.0
C1245 C 0.63353 0.2235 0.27852 0.0
H1246 H 0.63116 0.27835 0.34566 0.0
C1247 C 0.62047 0.24487 0.25347 0.0
C1248 C 0.61141 0.27846 0.2612 0.0
H1249 H 0.64054 0.19789 0.27146 0.0
H1250 H 0.61807 0.23518 0.22774 0.0
C1251 C 0.61431 0.28985 0.295 0.0
C1252 C 0.78252 0.90745 0.23394 0.0
C1253 C 0.77017 0.91182 0.26726 0.0
H1254 H 0.77203 0.8898 0.18345 0.0
C1255 C 0.73593 0.90446 0.27422 0.0
H1256 H 0.80887 0.91279 0.22792 0.0
C1257 C 0.71482 0.8916 0.24882 0.0
C1258 C 0.72744 0.88554 0.21587 0.0
H1259 H 0.72555 0.9079 0.29958 0.0
H1260 H 0.68869 0.8858 0.25519 0.0
C1261 C 0.76136 0.89435 0.20846 0.0
C1262 C 0.40594 0.73371 0.29262 0.0
C1263 C 0.40848 0.74662 0.25931 0.0
H1264 H 0.39498 0.74458 0.34515 0.0
C1265 C 0.4019 0.78117 0.25361 0.0
H1266 H 0.4107 0.70711 0.2977 0.0
C1267 C 0.39312 0.80245 0.2806 0.0
C1268 C 0.39037 0.78968 0.31392 0.0
H1269 H 0.40356 0.79186 0.22822 0.0
H1270 H 0.38793 0.8289 0.27526 0.0
C1271 C 0.39671 0.75504 0.31969 0.0
C1272 C 0.29997 0.88894 0.77367 0.0
C1273 C 0.28765 0.88677 0.80725 0.0
H1274 H 0.28877 0.8989 0.72131 0.0
C1275 C 0.25301 0.89308 0.81338 0.0
H1276 H 0.32643 0.88382 0.7681 0.0
C1277 C 0.23135 0.90212 0.78649 0.0
C1278 C 0.24388 0.90447 0.75295 0.0
H1279 H 0.24289 0.89179 0.83902 0.0
H1280 H 0.20483 0.90715 0.79192 0.0
C1281 C 0.27834 0.89746 0.74685 0.0
C1282 C 0.41286 0.28651 0.73248 0.0
C1283 C 0.41438 0.27392 0.76596 0.0
H1284 H 0.40243 0.27524 0.67992 0.0
C1285 C 0.40694 0.2396 0.77196 0.0
H1286 H 0.41825 0.31296 0.72722 0.0
C1287 C 0.39824 0.21819 0.7451 0.0
C1288 C 0.39631 0.23067 0.71164 0.0
H1289 H 0.40786 0.22919 0.79751 0.0
H1290 H 0.39242 0.1919 0.7506 0.0
C1291 C 0.40356 0.26509 0.70553 0.0
C1292 C 0.78656 0.11595 0.79313 0.0
C1293 C 0.77436 0.10985 0.76009 0.0
H1294 H 0.77517 0.13459 0.84317 0.0
C1295 C 0.73977 0.11519 0.7532 0.0
H1296 H 0.81316 0.1122 0.79908 0.0
C1297 C 0.71806 0.12769 0.77832 0.0
C1298 C 0.73037 0.13544 0.81096 0.0
H1299 H 0.7295 0.11036 0.72806 0.0
H1300 H 0.69163 0.13181 0.77197 0.0
C1301 C 0.76474 0.12871 0.81838 0.0
C1302 C 0.61963 0.77468 0.77167 0.0
C1303 C 0.61186 0.74057 0.76486 0.0
H1304 H 0.63458 0.82278 0.75142 0.0
C1305 C 0.61334 0.72878 0.7311 0.0
H1306 H 0.61871 0.78449 0.79746 0.0
C1307 C 0.62294 0.75079 0.70468 0.0
C1308 C 0.6305 0.78498 0.71163 0.0
H1309 H 0.60767 0.70252 0.72524 0.0
H1310 H 0.62401 0.74128 0.67881 0.0
C1311 C 0.62858 0.79666 0.74534 0.0
C1312 C 0.23322 0.23556 0.12248 0.0
C1313 C 0.26704 0.24676 0.12008 0.0
H1314 H 0.18212 0.24789 0.13663 0.0
C1315 C 0.27453 0.28075 0.12774 0.0
H1316 H 0.22672 0.20945 0.11683 0.0
C1317 C 0.24905 0.30281 0.13874 0.0
C1318 C 0.21542 0.29143 0.1426 0.0
H1319 H 0.3003 0.29027 0.12582 0.0
H1320 H 0.25582 0.32876 0.1447 0.0
C1321 C 0.20764 0.25768 0.1337 0.0
C1322 C 0.27774 0.74257 0.89973 0.0
C1323 C 0.26896 0.77602 0.90842 0.0
H1324 H 0.26103 0.69434 0.88158 0.0
C1325 C 0.23471 0.78588 0.90648 0.0
H1326 H 0.30386 0.73403 0.90136 0.0
C1327 C 0.21001 0.76309 0.89455 0.0
C1328 C 0.21908 0.72991 0.88458 0.0
H1329 H 0.22723 0.81155 0.9129 0.0
H1330 H 0.18414 0.77196 0.89197 0.0
C1331 C 0.25315 0.71981 0.88818 0.0
C1332 C 0.2815 0.28586 0.61034 0.0
C1333 C 0.27818 0.25225 0.62181 0.0
H1334 H 0.26169 0.33651 0.61179 0.0
C1335 C 0.25188 0.24433 0.64469 0.0
H1336 H 0.3015 0.29271 0.59261 0.0
C1337 C 0.22944 0.26928 0.656 0.0
C1338 C 0.23237 0.30301 0.64458 0.0
H1339 H 0.24869 0.21873 0.65426 0.0
H1340 H 0.21013 0.26191 0.67416 0.0
C1341 C 0.25874 0.31098 0.6215 0.0
C1342 C 0.77343 0.30297 0.8879 0.0
C1343 C 0.80692 0.29142 0.88323 0.0
H1344 H 0.72265 0.29106 0.90317 0.0
C1345 C 0.8149 0.25796 0.89309 0.0
H1346 H 0.76646 0.3287 0.88129 0.0
C1347 C 0.78966 0.23631 0.90609 0.0
C1348 C 0.75595 0.24766 0.90938 0.0
H1349 H 0.8403 0.24803 0.88965 0.0
H1350 H 0.7963 0.21041 0.91248 0.0
C1351 C 0.7483 0.28138 0.90065 0.0
C1352 C 0.74293 0.73224 0.60935 0.0
C1353 C 0.74691 0.76644 0.61852 0.0
H1354 H 0.76243 0.68165 0.61317 0.0
C1355 C 0.77431 0.77556 0.63951 0.0
H1356 H 0.7221 0.72446 0.59314 0.0
C1357 C 0.79702 0.75119 0.6514 0.0
C1358 C 0.79331 0.71684 0.64246 0.0
H1359 H 0.77808 0.80166 0.64729 0.0
H1360 H 0.81715 0.75952 0.6681 0.0
C1361 C 0.766 0.70769 0.62107 0.0
C1362 C 0.81828 0.76573 0.1322 0.0
C1363 C 0.81114 0.73188 0.14133 0.0
H1364 H 0.79844 0.81313 0.11383 0.0
C1365 C 0.77807 0.71943 0.13634 0.0
H1366 H 0.84337 0.7763 0.13595 0.0
C1367 C 0.75243 0.74052 0.124 0.0
C1368 C 0.75919 0.77463 0.11608 0.0
H1369 H 0.77183 0.69336 0.14243 0.0
H1370 H 0.72709 0.73015 0.12121 0.0
C1371 C 0.79252 0.78691 0.11964 0.0
C1372 C 0.26348 0.70581 0.39363 0.0
C1373 C 0.2309 0.71379 0.38112 0.0
H1374 H 0.31015 0.7247 0.41479 0.0
C1375 C 0.21992 0.74772 0.38265 0.0
H1376 H 0.27296 0.68006 0.39268 0.0
C1377 C 0.24133 0.77318 0.3948 0.0
C1378 C 0.2742 0.76542 0.40621 0.0
H1379 H 0.19479 0.75477 0.37405 0.0
H1380 H 0.23214 0.7991 0.39495 0.0
C1381 C 0.28489 0.7314 0.40617 0.0
C1382 C 0.78442 0.2563 0.40452 0.0
C1383 C 0.75029 0.26381 0.41193 0.0
H1384 H 0.83194 0.27434 0.38531 0.0
C1385 C 0.73848 0.2971 0.40729 0.0
H1386 H 0.7944 0.23095 0.40817 0.0
C1387 C 0.76014 0.32204 0.39392 0.0
C1388 C 0.7939 0.31401 0.38505 0.0
H1389 H 0.71226 0.30353 0.41267 0.0
H1390 H 0.74999 0.34711 0.38916 0.0
C1391 C 0.80594 0.2811 0.39128 0.0
loop_
_geom_bond_atom_site_label_1
_geom_bond_atom_site_label_2
_geom_bond_distance
_geom_bond_site_symmetry_2
_ccdc_geom_bond_type
Co0 N4 2.148 . S
Co0 N10 2.128 . S
Co0 N20 2.194 . S
Co0 O25 2.351 . S
Co0 O26 2.155 . S
Co0 O27 2.096 . S
C1 N4 1.301 . S
C1 N5 1.328 . S
C1 H6 0.930 . S
C2 C3 1.333 . S
C2 N4 1.317 . S
C2 H7 0.930 . S
C3 C2 1.333 . S
C3 N5 1.350 . S
C3 H29 0.931 . S
N4 Co0 2.148 . S
N4 C1 1.301 . S
N4 C2 1.317 . S
N5 C1 1.328 . S
N5 C3 1.350 . S
H6 C1 0.930 . S
H7 C2 0.930 . S
C8 O9 1.224 . S
C8 O27 1.247 . S
O9 C8 1.224 . S
N10 Co0 2.128 . S
N10 C11 1.355 . S
N10 C13 1.311 . S
C11 N10 1.355 . S
C11 C12 1.363 1_455 S
C11 H23 0.929 . S
C12 C11 1.363 1_655 S
C12 N14 1.375 . S
C12 H30 0.931 . S
C13 N10 1.311 . S
C13 N14 1.347 1_455 S
C13 H24 0.929 . S
N14 C12 1.375 . S
N14 C13 1.347 1_655 S
C15 C18 1.365 . S
C15 N20 1.328 . S
C15 H21 0.929 . S
C16 C17 1.362 . S
C16 C19 1.378 . S
C16 H31 0.929 . S
C17 C16 1.362 . S
C17 C18 1.366 . S
C18 C15 1.365 . S
C18 C17 1.366 . S
C18 H32 0.930 . S
C19 C16 1.378 . S
C19 N20 1.315 . S
C19 H22 0.930 . S
N20 Co0 2.194 . S
N20 C15 1.328 . S
N20 C19 1.315 . S
H21 C15 0.929 . S
H22 C19 0.930 . S
H23 C11 0.929 . S
H24 C13 0.929 . S
O25 Co0 2.351 . S
O25 C28 1.244 . S
O26 Co0 2.155 . S
O26 C28 1.240 . S
O27 Co0 2.096 . S
O27 C8 1.247 . S
C28 O25 1.244 . S
C28 O26 1.240 . S
H29 C3 0.931 . S
H30 C12 0.931 . S
H31 C16 0.929 . S
H32 C18 0.930 . S
Co33 N37 2.148 . S
Co33 N43 2.128 . S
Co33 N53 2.194 . S
Co33 O58 2.351 . S
Co33 O59 2.155 . S
Co33 O60 2.096 . S
C34 N37 1.301 . S
C34 N38 1.328 . S
C34 H39 0.930 . S
C35 C36 1.333 . S
C35 N37 1.317 . S
C35 H40 0.930 . S
C36 C35 1.333 . S
C36 N38 1.350 . S
C36 H62 0.931 . S
N37 Co33 2.148 . S
N37 C34 1.301 . S
N37 C35 1.317 . S
N38 C34 1.328 . S
N38 C36 1.350 . S
H39 C34 0.930 . S
H40 C35 0.930 . S
C41 O42 1.224 . S
C41 O60 1.247 . S
O42 C41 1.224 . S
N43 Co33 2.128 . S
N43 C44 1.355 . S
N43 C46 1.311 . S
C44 N43 1.355 . S
C44 C45 1.363 . S
C44 H56 0.929 . S
C45 C44 1.363 . S
C45 N47 1.375 . S
C45 H63 0.931 . S
C46 N43 1.311 . S
C46 N47 1.347 . S
C46 H57 0.929 . S
N47 C45 1.375 . S
N47 C46 1.347 . S
C48 C51 1.365 . S
C48 N53 1.328 . S
C48 H54 0.929 . S
C49 C50 1.362 . S
C49 C52 1.378 . S
C49 H64 0.929 . S
C50 C49 1.362 . S
C50 C51 1.366 . S
C51 C48 1.365 . S
C51 C50 1.366 . S
C51 H65 0.930 . S
C52 C49 1.378 . S
C52 N53 1.315 . S
C52 H55 0.930 . S
N53 Co33 2.194 . S
N53 C48 1.328 . S
N53 C52 1.315 . S
H54 C48 0.929 . S
H55 C52 0.930 . S
H56 C44 0.929 . S
H57 C46 0.929 . S
O58 Co33 2.351 . S
O58 C61 1.244 . S
O59 Co33 2.155 . S
O59 C61 1.240 . S
O60 Co33 2.096 . S
O60 C41 1.247 . S
C61 O58 1.244 . S
C61 O59 1.240 . S
H62 C36 0.931 . S
H63 C45 0.931 . S
H64 C49 0.929 . S
H65 C51 0.930 . S
Co66 N70 2.148 . S
Co66 N76 2.128 . S
Co66 N86 2.194 . S
Co66 O91 2.351 . S
Co66 O92 2.155 . S
Co66 O93 2.096 . S
C67 N70 1.301 . S
C67 N71 1.328 . S
C67 H72 0.930 . S
C68 C69 1.333 . S
C68 N70 1.317 . S
C68 H73 0.930 . S
C69 C68 1.333 . S
C69 N71 1.350 . S
C69 H95 0.931 . S
N70 Co66 2.148 . S
N70 C67 1.301 . S
N70 C68 1.317 . S
N71 C67 1.328 . S
N71 C69 1.350 . S
H72 C67 0.930 . S
H73 C68 0.930 . S
C74 O75 1.224 . S
C74 O93 1.247 . S
O75 C74 1.224 . S
N76 Co66 2.128 . S
N76 C77 1.355 . S
N76 C79 1.311 . S
C77 N76 1.355 . S
C77 C78 1.363 1_655 S
C77 H89 0.929 . S
C78 C77 1.363 1_455 S
C78 N80 1.375 . S
C78 H96 0.931 . S
C79 N76 1.311 . S
C79 N80 1.347 1_655 S
C79 H90 0.929 . S
N80 C78 1.375 . S
N80 C79 1.347 1_455 S
C81 C84 1.365 . S
C81 N86 1.328 . S
C81 H87 0.929 . S
C82 C83 1.362 . S
C82 C85 1.378 . S
C82 H97 0.929 . S
C83 C82 1.362 . S
C83 C84 1.366 . S
C84 C81 1.365 . S
C84 C83 1.366 . S
C84 H98 0.930 . S
C85 C82 1.378 . S
C85 N86 1.315 . S
C85 H88 0.930 . S
N86 Co66 2.194 . S
N86 C81 1.328 . S
N86 C85 1.315 . S
H87 C81 0.929 . S
H88 C85 0.930 . S
H89 C77 0.929 . S
H90 C79 0.929 . S
O91 Co66 2.351 . S
O91 C94 1.244 . S
O92 Co66 2.155 . S
O92 C94 1.240 . S
O93 Co66 2.096 . S
O93 C74 1.247 . S
C94 O91 1.244 . S
C94 O92 1.240 . S
H95 C69 0.931 . S
H96 C78 0.931 . S
H97 C82 0.929 . S
H98 C84 0.930 . S
Co99 N103 2.148 . S
Co99 N109 2.128 . S
Co99 N119 2.194 . S
Co99 O124 2.351 . S
Co99 O125 2.155 . S
Co99 O126 2.096 . S
C100 N103 1.301 . S
C100 N104 1.328 . S
C100 H105 0.930 . S
C101 C102 1.333 . S
C101 N103 1.317 . S
C101 H106 0.930 . S
C102 C101 1.333 . S
C102 N104 1.350 . S
C102 H128 0.931 . S
N103 Co99 2.148 . S
N103 C100 1.301 . S
N103 C101 1.317 . S
N104 C100 1.328 . S
N104 C102 1.350 . S
H105 C100 0.930 . S
H106 C101 0.930 . S
C107 O108 1.224 . S
C107 O126 1.247 . S
O108 C107 1.224 . S
N109 Co99 2.128 . S
N109 C110 1.355 . S
N109 C112 1.311 . S
C110 N109 1.355 . S
C110 C111 1.363 . S
C110 H122 0.929 . S
C111 C110 1.363 . S
C111 N113 1.375 . S
C111 H129 0.931 . S
C112 N109 1.311 . S
C112 N113 1.347 . S
C112 H123 0.929 . S
N113 C111 1.375 . S
N113 C112 1.347 . S
C114 C117 1.365 . S
C114 N119 1.328 . S
C114 H120 0.929 . S
C115 C116 1.362 . S
C115 C118 1.378 . S
C115 H130 0.929 . S
C116 C115 1.362 . S
C116 C117 1.366 . S
C117 C114 1.365 . S
C117 C116 1.366 . S
C117 H131 0.930 . S
C118 C115 1.378 . S
C118 N119 1.315 . S
C118 H121 0.930 . S
N119 Co99 2.194 . S
N119 C114 1.328 . S
N119 C118 1.315 . S
H120 C114 0.929 . S
H121 C118 0.930 . S
H122 C110 0.929 . S
H123 C112 0.929 . S
O124 Co99 2.351 . S
O124 C127 1.244 . S
O125 Co99 2.155 . S
O125 C127 1.240 . S
O126 Co99 2.096 . S
O126 C107 1.247 . S
C127 O124 1.244 . S
C127 O125 1.240 . S
H128 C102 0.931 . S
H129 C111 0.931 . S
H130 C115 0.929 . S
H131 C117 0.930 . S
Co132 N136 2.148 . S
Co132 N142 2.128 . S
Co132 N152 2.194 . S
Co132 O157 2.351 . S
Co132 O158 2.155 . S
Co132 O159 2.096 . S
C133 N136 1.301 . S
C133 N137 1.328 . S
C133 H138 0.930 . S
C134 C135 1.333 . S
C134 N136 1.317 . S
C134 H139 0.930 . S
C135 C134 1.333 . S
C135 N137 1.350 . S
C135 H161 0.931 . S
N136 Co132 2.148 . S
N136 C133 1.301 . S
N136 C134 1.317 . S
N137 C133 1.328 . S
N137 C135 1.350 . S
H138 C133 0.930 . S
H139 C134 0.930 . S
C140 O141 1.224 . S
C140 O159 1.247 . S
O141 C140 1.224 . S
N142 Co132 2.128 . S
N142 C143 1.355 . S
N142 C145 1.311 . S
C143 N142 1.355 . S
C143 C144 1.363 1_455 S
C143 H155 0.929 . S
C144 C143 1.363 1_655 S
C144 N146 1.375 . S
C144 H162 0.931 . S
C145 N142 1.311 . S
C145 N146 1.347 1_455 S
C145 H156 0.929 . S
N146 C144 1.375 . S
N146 C145 1.347 1_655 S
C147 C150 1.365 . S
C147 N152 1.328 . S
C147 H153 0.929 . S
C148 C149 1.362 . S
C148 C151 1.378 . S
C148 H163 0.929 . S
C149 C148 1.362 . S
C149 C150 1.366 . S
C150 C147 1.365 . S
C150 C149 1.366 . S
C150 H164 0.930 . S
C151 C148 1.378 . S
C151 N152 1.315 . S
C151 H154 0.930 . S
N152 Co132 2.194 . S
N152 C147 1.328 . S
N152 C151 1.315 . S
H153 C147 0.929 . S
H154 C151 0.930 . S
H155 C143 0.929 . S
H156 C145 0.929 . S
O157 Co132 2.351 . S
O157 C160 1.244 . S
O158 Co132 2.155 . S
O158 C160 1.240 . S
O159 Co132 2.096 . S
O159 C140 1.247 . S
C160 O157 1.244 . S
C160 O158 1.240 . S
H161 C135 0.931 . S
H162 C144 0.931 . S
H163 C148 0.929 . S
H164 C150 0.930 . S
Co165 N169 2.148 . S
Co165 N175 2.128 . S
Co165 N185 2.194 . S
Co165 O190 2.351 . S
Co165 O191 2.155 . S
Co165 O192 2.096 . S
C166 N169 1.301 . S
C166 N170 1.328 . S
C166 H171 0.930 . S
C167 C168 1.333 . S
C167 N169 1.317 . S
C167 H172 0.930 . S
C168 C167 1.333 . S
C168 N170 1.350 . S
C168 H194 0.931 . S
N169 Co165 2.148 . S
N169 C166 1.301 . S
N169 C167 1.317 . S
N170 C166 1.328 . S
N170 C168 1.350 . S
H171 C166 0.930 . S
H172 C167 0.930 . S
C173 O174 1.224 . S
C173 O192 1.247 . S
O174 C173 1.224 . S
N175 Co165 2.128 . S
N175 C176 1.355 . S
N175 C178 1.311 . S
C176 N175 1.355 . S
C176 C177 1.363 . S
C176 H188 0.929 . S
C177 C176 1.363 . S
C177 N179 1.375 . S
C177 H195 0.931 . S
C178 N175 1.311 . S
C178 N179 1.347 . S
C178 H189 0.929 . S
N179 C177 1.375 . S
N179 C178 1.347 . S
C180 C183 1.365 . S
C180 N185 1.328 . S
C180 H186 0.929 . S
C181 C182 1.362 . S
C181 C184 1.378 . S
C181 H196 0.929 . S
C182 C181 1.362 . S
C182 C183 1.366 . S
C183 C180 1.365 . S
C183 C182 1.366 . S
C183 H197 0.930 . S
C184 C181 1.378 . S
C184 N185 1.315 . S
C184 H187 0.930 . S
N185 Co165 2.194 . S
N185 C180 1.328 . S
N185 C184 1.315 . S
H186 C180 0.929 . S
H187 C184 0.930 . S
H188 C176 0.929 . S
H189 C178 0.929 . S
O190 Co165 2.351 . S
O190 C193 1.244 . S
O191 Co165 2.155 . S
O191 C193 1.240 . S
O192 Co165 2.096 . S
O192 C173 1.247 . S
C193 O190 1.244 . S
C193 O191 1.240 . S
H194 C168 0.931 . S
H195 C177 0.931 . S
H196 C181 0.929 . S
H197 C183 0.930 . S
Co198 N202 2.148 . S
Co198 N208 2.128 . S
Co198 N218 2.194 . S
Co198 O223 2.351 . S
Co198 O224 2.155 . S
Co198 O225 2.096 . S
C199 N202 1.301 . S
C199 N203 1.328 . S
C199 H204 0.930 . S
C200 C201 1.333 . S
C200 N202 1.317 . S
C200 H205 0.930 . S
C201 C200 1.333 . S
C201 N203 1.350 . S
C201 H227 0.931 . S
N202 Co198 2.148 . S
N202 C199 1.301 . S
N202 C200 1.317 . S
N203 C199 1.328 . S
N203 C201 1.350 . S
H204 C199 0.930 . S
H205 C200 0.930 . S
C206 O207 1.224 . S
C206 O225 1.247 . S
O207 C206 1.224 . S
N208 Co198 2.128 . S
N208 C209 1.355 . S
N208 C211 1.311 . S
C209 N208 1.355 . S
C209 C210 1.363 1_655 S
C209 H221 0.929 . S
C210 C209 1.363 1_455 S
C210 N212 1.375 . S
C210 H228 0.931 . S
C211 N208 1.311 . S
C211 N212 1.347 1_655 S
C211 H222 0.929 . S
N212 C210 1.375 . S
N212 C211 1.347 1_455 S
C213 C216 1.365 . S
C213 N218 1.328 . S
C213 H219 0.929 . S
C214 C215 1.362 . S
C214 C217 1.378 . S
C214 H229 0.929 . S
C215 C214 1.362 . S
C215 C216 1.366 . S
C216 C213 1.365 . S
C216 C215 1.366 . S
C216 H230 0.930 . S
C217 C214 1.378 . S
C217 N218 1.315 . S
C217 H220 0.930 . S
N218 Co198 2.194 . S
N218 C213 1.328 . S
N218 C217 1.315 . S
H219 C213 0.929 . S
H220 C217 0.930 . S
H221 C209 0.929 . S
H222 C211 0.929 . S
O223 Co198 2.351 . S
O223 C226 1.244 . S
O224 Co198 2.155 . S
O224 C226 1.240 . S
O225 Co198 2.096 . S
O225 C206 1.247 . S
C226 O223 1.244 . S
C226 O224 1.240 . S
H227 C201 0.931 . S
H228 C210 0.931 . S
H229 C214 0.929 . S
H230 C216 0.930 . S
Co231 N235 2.148 . S
Co231 N241 2.128 . S
Co231 N251 2.194 . S
Co231 O256 2.351 . S
Co231 O257 2.155 . S
Co231 O258 2.096 . S
C232 N235 1.301 . S
C232 N236 1.328 . S
C232 H237 0.930 . S
C233 C234 1.333 . S
C233 N235 1.317 . S
C233 H238 0.930 . S
C234 C233 1.333 . S
C234 N236 1.350 . S
C234 H260 0.931 . S
N235 Co231 2.148 . S
N235 C232 1.301 . S
N235 C233 1.317 . S
N236 C232 1.328 . S
N236 C234 1.350 . S
H237 C232 0.930 . S
H238 C233 0.930 . S
C239 O240 1.224 . S
C239 O258 1.247 . S
O240 C239 1.224 . S
N241 Co231 2.128 . S
N241 C242 1.355 . S
N241 C244 1.311 . S
C242 N241 1.355 . S
C242 C243 1.363 . S
C242 H254 0.929 . S
C243 C242 1.363 . S
C243 N245 1.375 . S
C243 H261 0.931 . S
C244 N241 1.311 . S
C244 N245 1.347 . S
C244 H255 0.929 . S
N245 C243 1.375 . S
N245 C244 1.347 . S
C246 C249 1.365 . S
C246 N251 1.328 . S
C246 H252 0.929 . S
C247 C248 1.362 . S
C247 C250 1.378 . S
C247 H262 0.929 . S
C248 C247 1.362 . S
C248 C249 1.366 . S
C249 C246 1.365 . S
C249 C248 1.366 . S
C249 H263 0.930 . S
C250 C247 1.378 . S
C250 N251 1.315 . S
C250 H253 0.930 . S
N251 Co231 2.194 . S
N251 C246 1.328 . S
N251 C250 1.315 . S
H252 C246 0.929 . S
H253 C250 0.930 . S
H254 C242 0.929 . S
H255 C244 0.929 . S
O256 Co231 2.351 . S
O256 C259 1.244 . S
O257 Co231 2.155 . S
O257 C259 1.240 . S
O258 Co231 2.096 . S
O258 C239 1.247 . S
C259 O256 1.244 . S
C259 O257 1.240 . S
H260 C234 0.931 . S
H261 C243 0.931 . S
H262 C247 0.929 . S
H263 C249 0.930 . S
Co264 N268 2.148 . S
Co264 N274 2.128 . S
Co264 N284 2.194 . S
Co264 O289 2.351 . S
Co264 O290 2.155 . S
Co264 O291 2.096 . S
C265 N268 1.301 . S
C265 N269 1.328 . S
C265 H270 0.930 . S
C266 C267 1.333 . S
C266 N268 1.317 . S
C266 H271 0.930 . S
C267 C266 1.333 . S
C267 N269 1.350 . S
C267 H293 0.931 . S
N268 Co264 2.148 . S
N268 C265 1.301 . S
N268 C266 1.317 . S
N269 C265 1.328 . S
N269 C267 1.350 . S
H270 C265 0.930 . S
H271 C266 0.930 . S
C272 O273 1.224 . S
C272 O291 1.247 . S
O273 C272 1.224 . S
N274 Co264 2.128 . S
N274 C275 1.355 . S
N274 C277 1.311 . S
C275 N274 1.355 . S
C275 C276 1.363 1_545 S
C275 H287 0.929 . S
C276 C275 1.363 1_565 S
C276 N278 1.375 . S
C276 H294 0.931 . S
C277 N274 1.311 . S
C277 N278 1.347 1_545 S
C277 H288 0.929 . S
N278 C276 1.375 . S
N278 C277 1.347 1_565 S
C279 C282 1.365 . S
C279 N284 1.328 . S
C279 H285 0.929 . S
C280 C281 1.362 . S
C280 C283 1.378 . S
C280 H295 0.929 . S
C281 C280 1.362 . S
C281 C282 1.366 . S
C282 C279 1.365 . S
C282 C281 1.366 . S
C282 H296 0.930 . S
C283 C280 1.378 . S
C283 N284 1.315 . S
C283 H286 0.930 . S
N284 Co264 2.194 . S
N284 C279 1.328 . S
N284 C283 1.315 . S
H285 C279 0.929 . S
H286 C283 0.930 . S
H287 C275 0.929 . S
H288 C277 0.929 . S
O289 Co264 2.351 . S
O289 C292 1.244 . S
O290 Co264 2.155 . S
O290 C292 1.240 . S
O291 Co264 2.096 . S
O291 C272 1.247 . S
C292 O289 1.244 . S
C292 O290 1.240 . S
H293 C267 0.931 . S
H294 C276 0.931 . S
H295 C280 0.929 . S
H296 C282 0.930 . S
Co297 N301 2.148 . S
Co297 N307 2.128 . S
Co297 N317 2.194 . S
Co297 O322 2.351 . S
Co297 O323 2.155 . S
Co297 O324 2.096 . S
C298 N301 1.301 . S
C298 N302 1.328 . S
C298 H303 0.930 . S
C299 C300 1.333 . S
C299 N301 1.317 . S
C299 H304 0.930 . S
C300 C299 1.333 . S
C300 N302 1.350 . S
C300 H326 0.931 . S
N301 Co297 2.148 . S
N301 C298 1.301 . S
N301 C299 1.317 . S
N302 C298 1.328 . S
N302 C300 1.350 . S
H303 C298 0.930 . S
H304 C299 0.930 . S
C305 O306 1.224 . S
C305 O324 1.247 . S
O306 C305 1.224 . S
N307 Co297 2.128 . S
N307 C308 1.355 . S
N307 C310 1.311 . S
C308 N307 1.355 . S
C308 C309 1.363 . S
C308 H320 0.929 . S
C309 C308 1.363 . S
C309 N311 1.375 . S
C309 H327 0.931 . S
C310 N307 1.311 . S
C310 N311 1.347 . S
C310 H321 0.929 . S
N311 C309 1.375 . S
N311 C310 1.347 . S
C312 C315 1.365 . S
C312 N317 1.328 . S
C312 H318 0.929 . S
C313 C314 1.362 . S
C313 C316 1.378 . S
C313 H328 0.929 . S
C314 C313 1.362 . S
C314 C315 1.366 . S
C315 C312 1.365 . S
C315 C314 1.366 . S
C315 H329 0.930 . S
C316 C313 1.378 . S
C316 N317 1.315 . S
C316 H319 0.930 . S
N317 Co297 2.194 . S
N317 C312 1.328 . S
N317 C316 1.315 . S
H318 C312 0.929 . S
H319 C316 0.930 . S
H320 C308 0.929 . S
H321 C310 0.929 . S
O322 Co297 2.351 . S
O322 C325 1.244 . S
O323 Co297 2.155 . S
O323 C325 1.240 . S
O324 Co297 2.096 . S
O324 C305 1.247 . S
C325 O322 1.244 . S
C325 O323 1.240 . S
H326 C300 0.931 . S
H327 C309 0.931 . S
H328 C313 0.929 . S
H329 C315 0.930 . S
Co330 N334 2.148 . S
Co330 N340 2.128 . S
Co330 N350 2.194 . S
Co330 O355 2.351 . S
Co330 O356 2.155 . S
Co330 O357 2.096 . S
C331 N334 1.301 . S
C331 N335 1.328 . S
C331 H336 0.930 . S
C332 C333 1.333 . S
C332 N334 1.317 . S
C332 H337 0.930 . S
C333 C332 1.333 . S
C333 N335 1.350 . S
C333 H359 0.931 . S
N334 Co330 2.148 . S
N334 C331 1.301 . S
N334 C332 1.317 . S
N335 C331 1.328 . S
N335 C333 1.350 . S
H336 C331 0.930 . S
H337 C332 0.930 . S
C338 O339 1.224 . S
C338 O357 1.247 . S
O339 C338 1.224 . S
N340 Co330 2.128 . S
N340 C341 1.355 . S
N340 C343 1.311 . S
C341 N340 1.355 . S
C341 C342 1.363 1_565 S
C341 H353 0.929 . S
C342 C341 1.363 1_545 S
C342 N344 1.375 . S
C342 H360 0.931 . S
C343 N340 1.311 . S
C343 N344 1.347 1_565 S
C343 H354 0.929 . S
N344 C342 1.375 . S
N344 C343 1.347 1_545 S
C345 C348 1.365 . S
C345 N350 1.328 . S
C345 H351 0.929 . S
C346 C347 1.362 . S
C346 C349 1.378 . S
C346 H361 0.929 . S
C347 C346 1.362 . S
C347 C348 1.366 . S
C348 C345 1.365 . S
C348 C347 1.366 . S
C348 H362 0.930 . S
C349 C346 1.378 . S
C349 N350 1.315 . S
C349 H352 0.930 . S
N350 Co330 2.194 . S
N350 C345 1.328 . S
N350 C349 1.315 . S
H351 C345 0.929 . S
H352 C349 0.930 . S
H353 C341 0.929 . S
H354 C343 0.929 . S
O355 Co330 2.351 . S
O355 C358 1.244 . S
O356 Co330 2.155 . S
O356 C358 1.240 . S
O357 Co330 2.096 . S
O357 C338 1.247 . S
C358 O355 1.244 . S
C358 O356 1.240 . S
H359 C333 0.931 . S
H360 C342 0.931 . S
H361 C346 0.929 . S
H362 C348 0.930 . S
Co363 N367 2.148 . S
Co363 N373 2.128 . S
Co363 N383 2.194 . S
Co363 O388 2.351 . S
Co363 O389 2.155 . S
Co363 O390 2.096 . S
C364 N367 1.301 . S
C364 N368 1.328 . S
C364 H369 0.930 . S
C365 C366 1.333 . S
C365 N367 1.317 . S
C365 H370 0.930 . S
C366 C365 1.333 . S
C366 N368 1.350 . S
C366 H392 0.931 . S
N367 Co363 2.148 . S
N367 C364 1.301 . S
N367 C365 1.317 . S
N368 C364 1.328 . S
N368 C366 1.350 . S
H369 C364 0.930 . S
H370 C365 0.930 . S
C371 O372 1.224 . S
C371 O390 1.247 . S
O372 C371 1.224 . S
N373 Co363 2.128 . S
N373 C374 1.355 . S
N373 C376 1.311 . S
C374 N373 1.355 . S
C374 C375 1.363 . S
C374 H386 0.929 . S
C375 C374 1.363 . S
C375 N377 1.375 . S
C375 H393 0.931 . S
C376 N373 1.311 . S
C376 N377 1.347 . S
C376 H387 0.929 . S
N377 C375 1.375 . S
N377 C376 1.347 . S
C378 C381 1.365 . S
C378 N383 1.328 . S
C378 H384 0.929 . S
C379 C380 1.362 . S
C379 C382 1.378 . S
C379 H394 0.929 . S
C380 C379 1.362 . S
C380 C381 1.366 . S
C381 C378 1.365 . S
C381 C380 1.366 . S
C381 H395 0.930 . S
C382 C379 1.378 . S
C382 N383 1.315 . S
C382 H385 0.930 . S
N383 Co363 2.194 . S
N383 C378 1.328 . S
N383 C382 1.315 . S
H384 C378 0.929 . S
H385 C382 0.930 . S
H386 C374 0.929 . S
H387 C376 0.929 . S
O388 Co363 2.351 . S
O388 C391 1.244 . S
O389 Co363 2.155 . S
O389 C391 1.240 . S
O390 Co363 2.096 . S
O390 C371 1.247 . S
C391 O388 1.244 . S
C391 O389 1.240 . S
H392 C366 0.931 . S
H393 C375 0.931 . S
H394 C379 0.929 . S
H395 C381 0.930 . S
Co396 N400 2.148 . S
Co396 N406 2.128 . S
Co396 N416 2.194 . S
Co396 O421 2.351 . S
Co396 O422 2.155 . S
Co396 O423 2.096 . S
C397 N400 1.301 . S
C397 N401 1.328 . S
C397 H402 0.930 . S
C398 C399 1.333 . S
C398 N400 1.317 . S
C398 H403 0.930 . S
C399 C398 1.333 . S
C399 N401 1.350 . S
C399 H425 0.931 . S
N400 Co396 2.148 . S
N400 C397 1.301 . S
N400 C398 1.317 . S
N401 C397 1.328 . S
N401 C399 1.350 . S
H402 C397 0.930 . S
H403 C398 0.930 . S
C404 O405 1.224 . S
C404 O423 1.247 . S
O405 C404 1.224 . S
N406 Co396 2.128 . S
N406 C407 1.355 . S
N406 C409 1.311 . S
C407 N406 1.355 . S
C407 C408 1.363 1_565 S
C407 H419 0.929 . S
C408 C407 1.363 1_545 S
C408 N410 1.375 . S
C408 H426 0.931 . S
C409 N406 1.311 . S
C409 N410 1.347 1_565 S
C409 H420 0.929 . S
N410 C408 1.375 . S
N410 C409 1.347 1_545 S
C411 C414 1.365 . S
C411 N416 1.328 . S
C411 H417 0.929 . S
C412 C413 1.362 . S
C412 C415 1.378 . S
C412 H427 0.929 . S
C413 C412 1.362 . S
C413 C414 1.366 . S
C414 C411 1.365 . S
C414 C413 1.366 . S
C414 H428 0.930 . S
C415 C412 1.378 . S
C415 N416 1.315 . S
C415 H418 0.930 . S
N416 Co396 2.194 . S
N416 C411 1.328 . S
N416 C415 1.315 . S
H417 C411 0.929 . S
H418 C415 0.930 . S
H419 C407 0.929 . S
H420 C409 0.929 . S
O421 Co396 2.351 . S
O421 C424 1.244 . S
O422 Co396 2.155 . S
O422 C424 1.240 . S
O423 Co396 2.096 . S
O423 C404 1.247 . S
C424 O421 1.244 . S
C424 O422 1.240 . S
H425 C399 0.931 . S
H426 C408 0.931 . S
H427 C412 0.929 . S
H428 C414 0.930 . S
Co429 N433 2.148 . S
Co429 N439 2.128 . S
Co429 N449 2.194 . S
Co429 O454 2.351 . S
Co429 O455 2.155 . S
Co429 O456 2.096 . S
C430 N433 1.301 . S
C430 N434 1.328 . S
C430 H435 0.930 . S
C431 C432 1.333 . S
C431 N433 1.317 . S
C431 H436 0.930 . S
C432 C431 1.333 . S
C432 N434 1.350 . S
C432 H458 0.931 . S
N433 Co429 2.148 . S
N433 C430 1.301 . S
N433 C431 1.317 . S
N434 C430 1.328 . S
N434 C432 1.350 . S
H435 C430 0.930 . S
H436 C431 0.930 . S
C437 O438 1.224 . S
C437 O456 1.247 . S
O438 C437 1.224 . S
N439 Co429 2.128 . S
N439 C440 1.355 . S
N439 C442 1.311 . S
C440 N439 1.355 . S
C440 C441 1.363 . S
C440 H452 0.929 . S
C441 C440 1.363 . S
C441 N443 1.375 . S
C441 H459 0.931 . S
C442 N439 1.311 . S
C442 N443 1.347 . S
C442 H453 0.929 . S
N443 C441 1.375 . S
N443 C442 1.347 . S
C444 C447 1.365 . S
C444 N449 1.328 . S
C444 H450 0.929 . S
C445 C446 1.362 . S
C445 C448 1.378 . S
C445 H460 0.929 . S
C446 C445 1.362 . S
C446 C447 1.366 . S
C447 C444 1.365 . S
C447 C446 1.366 . S
C447 H461 0.930 . S
C448 C445 1.378 . S
C448 N449 1.315 . S
C448 H451 0.930 . S
N449 Co429 2.194 . S
N449 C444 1.328 . S
N449 C448 1.315 . S
H450 C444 0.929 . S
H451 C448 0.930 . S
H452 C440 0.929 . S
H453 C442 0.929 . S
O454 Co429 2.351 . S
O454 C457 1.244 . S
O455 Co429 2.155 . S
O455 C457 1.240 . S
O456 Co429 2.096 . S
O456 C437 1.247 . S
C457 O454 1.244 . S
C457 O455 1.240 . S
H458 C432 0.931 . S
H459 C441 0.931 . S
H460 C445 0.929 . S
H461 C447 0.930 . S
Co462 N466 2.148 . S
Co462 N472 2.128 . S
Co462 N482 2.194 . S
Co462 O487 2.351 . S
Co462 O488 2.155 . S
Co462 O489 2.096 . S
C463 N466 1.301 . S
C463 N467 1.328 . S
C463 H468 0.930 . S
C464 C465 1.333 . S
C464 N466 1.317 . S
C464 H469 0.930 . S
C465 C464 1.333 . S
C465 N467 1.350 . S
C465 H491 0.931 . S
N466 Co462 2.148 . S
N466 C463 1.301 . S
N466 C464 1.317 . S
N467 C463 1.328 . S
N467 C465 1.350 . S
H468 C463 0.930 . S
H469 C464 0.930 . S
C470 O471 1.224 . S
C470 O489 1.247 . S
O471 C470 1.224 . S
N472 Co462 2.128 . S
N472 C473 1.355 . S
N472 C475 1.311 . S
C473 N472 1.355 . S
C473 C474 1.363 1_545 S
C473 H485 0.929 . S
C474 C473 1.363 1_565 S
C474 N476 1.375 . S
C474 H492 0.931 . S
C475 N472 1.311 . S
C475 N476 1.347 1_545 S
C475 H486 0.929 . S
N476 C474 1.375 . S
N476 C475 1.347 1_565 S
C477 C480 1.365 . S
C477 N482 1.328 . S
C477 H483 0.929 . S
C478 C479 1.362 . S
C478 C481 1.378 . S
C478 H493 0.929 . S
C479 C478 1.362 . S
C479 C480 1.366 . S
C480 C477 1.365 . S
C480 C479 1.366 . S
C480 H494 0.930 . S
C481 C478 1.378 . S
C481 N482 1.315 . S
C481 H484 0.930 . S
N482 Co462 2.194 . S
N482 C477 1.328 . S
N482 C481 1.315 . S
H483 C477 0.929 . S
H484 C481 0.930 . S
H485 C473 0.929 . S
H486 C475 0.929 . S
O487 Co462 2.351 . S
O487 C490 1.244 . S
O488 Co462 2.155 . S
O488 C490 1.240 . S
O489 Co462 2.096 . S
O489 C470 1.247 . S
C490 O487 1.244 . S
C490 O488 1.240 . S
H491 C465 0.931 . S
H492 C474 0.931 . S
H493 C478 0.929 . S
H494 C480 0.930 . S
Co495 N499 2.148 . S
Co495 N505 2.128 . S
Co495 N515 2.194 . S
Co495 O520 2.351 . S
Co495 O521 2.155 . S
Co495 O522 2.096 . S
C496 N499 1.301 . S
C496 N500 1.328 . S
C496 H501 0.930 . S
C497 C498 1.333 . S
C497 N499 1.317 . S
C497 H502 0.930 . S
C498 C497 1.333 . S
C498 N500 1.350 . S
C498 H524 0.931 . S
N499 Co495 2.148 . S
N499 C496 1.301 . S
N499 C497 1.317 . S
N500 C496 1.328 . S
N500 C498 1.350 . S
H501 C496 0.930 . S
H502 C497 0.930 . S
C503 O504 1.224 . S
C503 O522 1.247 . S
O504 C503 1.224 . S
N505 Co495 2.128 . S
N505 C506 1.355 . S
N505 C508 1.311 . S
C506 N505 1.355 . S
C506 C507 1.363 . S
C506 H518 0.929 . S
C507 C506 1.363 . S
C507 N509 1.375 . S
C507 H525 0.931 . S
C508 N505 1.311 . S
C508 N509 1.347 . S
C508 H519 0.929 . S
N509 C507 1.375 . S
N509 C508 1.347 . S
C510 C513 1.365 . S
C510 N515 1.328 . S
C510 H516 0.929 . S
C511 C512 1.362 . S
C511 C514 1.378 . S
C511 H526 0.929 . S
C512 C511 1.362 . S
C512 C513 1.366 . S
C513 C510 1.365 . S
C513 C512 1.366 . S
C513 H527 0.930 . S
C514 C511 1.378 . S
C514 N515 1.315 . S
C514 H517 0.930 . S
N515 Co495 2.194 . S
N515 C510 1.328 . S
N515 C514 1.315 . S
H516 C510 0.929 . S
H517 C514 0.930 . S
H518 C506 0.929 . S
H519 C508 0.929 . S
O520 Co495 2.351 . S
O520 C523 1.244 . S
O521 Co495 2.155 . S
O521 C523 1.240 . S
O522 Co495 2.096 . S
O522 C503 1.247 . S
C523 O520 1.244 . S
C523 O521 1.240 . S
H524 C498 0.931 . S
H525 C507 0.931 . S
H526 C511 0.929 . S
H527 C513 0.930 . S
Co528 N532 2.148 . S
Co528 N538 2.128 . S
Co528 N548 2.194 . S
Co528 O553 2.351 . S
Co528 O554 2.155 . S
Co528 O555 2.096 . S
C529 N532 1.301 . S
C529 N533 1.328 . S
C529 H534 0.930 . S
C530 C531 1.333 . S
C530 N532 1.317 . S
C530 H535 0.930 . S
C531 C530 1.333 . S
C531 N533 1.350 . S
C531 H557 0.931 . S
N532 Co528 2.148 . S
N532 C529 1.301 . S
N532 C530 1.317 . S
N533 C529 1.328 . S
N533 C531 1.350 . S
H534 C529 0.930 . S
H535 C530 0.930 . S
C536 O537 1.224 . S
C536 O555 1.247 . S
O537 C536 1.224 . S
N538 Co528 2.128 . S
N538 C539 1.355 . S
N538 C541 1.311 . S
C539 N538 1.355 . S
C539 C540 1.363 1_554 S
C539 H551 0.929 . S
C540 C539 1.363 1_556 S
C540 N542 1.375 . S
C540 H558 0.931 . S
C541 N538 1.311 . S
C541 N542 1.347 1_554 S
C541 H552 0.929 . S
N542 C540 1.375 . S
N542 C541 1.347 1_556 S
C543 C546 1.365 . S
C543 N548 1.328 . S
C543 H549 0.929 . S
C544 C545 1.362 . S
C544 C547 1.378 . S
C544 H559 0.929 . S
C545 C544 1.362 . S
C545 C546 1.366 . S
C546 C543 1.365 . S
C546 C545 1.366 . S
C546 H560 0.930 . S
C547 C544 1.378 . S
C547 N548 1.315 . S
C547 H550 0.930 . S
N548 Co528 2.194 . S
N548 C543 1.328 . S
N548 C547 1.315 . S
H549 C543 0.929 . S
H550 C547 0.930 . S
H551 C539 0.929 . S
H552 C541 0.929 . S
O553 Co528 2.351 . S
O553 C556 1.244 . S
O554 Co528 2.155 . S
O554 C556 1.240 . S
O555 Co528 2.096 . S
O555 C536 1.247 . S
C556 O553 1.244 . S
C556 O554 1.240 . S
H557 C531 0.931 . S
H558 C540 0.931 . S
H559 C544 0.929 . S
H560 C546 0.930 . S
Co561 N565 2.148 . S
Co561 N571 2.128 . S
Co561 N581 2.194 . S
Co561 O586 2.351 . S
Co561 O587 2.155 . S
Co561 O588 2.096 . S
C562 N565 1.301 . S
C562 N566 1.328 . S
C562 H567 0.930 . S
C563 C564 1.333 . S
C563 N565 1.317 . S
C563 H568 0.930 . S
C564 C563 1.333 . S
C564 N566 1.350 . S
C564 H590 0.931 . S
N565 Co561 2.148 . S
N565 C562 1.301 . S
N565 C563 1.317 . S
N566 C562 1.328 . S
N566 C564 1.350 . S
H567 C562 0.930 . S
H568 C563 0.930 . S
C569 O570 1.224 . S
C569 O588 1.247 . S
O570 C569 1.224 . S
N571 Co561 2.128 . S
N571 C572 1.355 . S
N571 C574 1.311 . S
C572 N571 1.355 . S
C572 C573 1.363 1_556 S
C572 H584 0.929 . S
C573 C572 1.363 1_554 S
C573 N575 1.375 . S
C573 H591 0.931 . S
C574 N571 1.311 . S
C574 N575 1.347 1_556 S
C574 H585 0.929 . S
N575 C573 1.375 . S
N575 C574 1.347 1_554 S
C576 C579 1.365 . S
C576 N581 1.328 . S
C576 H582 0.929 . S
C577 C578 1.362 . S
C577 C580 1.378 . S
C577 H592 0.929 . S
C578 C577 1.362 . S
C578 C579 1.366 . S
C579 C576 1.365 . S
C579 C578 1.366 . S
C579 H593 0.930 . S
C580 C577 1.378 . S
C580 N581 1.315 . S
C580 H583 0.930 . S
N581 Co561 2.194 . S
N581 C576 1.328 . S
N581 C580 1.315 . S
H582 C576 0.929 . S
H583 C580 0.930 . S
H584 C572 0.929 . S
H585 C574 0.929 . S
O586 Co561 2.351 . S
O586 C589 1.244 . S
O587 Co561 2.155 . S
O587 C589 1.240 . S
O588 Co561 2.096 . S
O588 C569 1.247 . S
C589 O586 1.244 . S
C589 O587 1.240 . S
H590 C564 0.931 . S
H591 C573 0.931 . S
H592 C577 0.929 . S
H593 C579 0.930 . S
Co594 N598 2.148 . S
Co594 N604 2.128 . S
Co594 N614 2.194 . S
Co594 O619 2.351 . S
Co594 O620 2.155 . S
Co594 O621 2.096 . S
C595 N598 1.301 . S
C595 N599 1.328 . S
C595 H600 0.930 . S
C596 C597 1.333 . S
C596 N598 1.317 . S
C596 H601 0.930 . S
C597 C596 1.333 . S
C597 N599 1.350 . S
C597 H623 0.931 . S
N598 Co594 2.148 . S
N598 C595 1.301 . S
N598 C596 1.317 . S
N599 C595 1.328 . S
N599 C597 1.350 . S
H600 C595 0.930 . S
H601 C596 0.930 . S
C602 O603 1.224 . S
C602 O621 1.247 . S
O603 C602 1.224 . S
N604 Co594 2.128 . S
N604 C605 1.355 . S
N604 C607 1.311 . S
C605 N604 1.355 . S
C605 C606 1.363 . S
C605 H617 0.929 . S
C606 C605 1.363 . S
C606 N608 1.375 . S
C606 H624 0.931 . S
C607 N604 1.311 . S
C607 N608 1.347 . S
C607 H618 0.929 . S
N608 C606 1.375 . S
N608 C607 1.347 . S
C609 C612 1.365 . S
C609 N614 1.328 . S
C609 H615 0.929 . S
C610 C611 1.362 . S
C610 C613 1.378 . S
C610 H625 0.929 . S
C611 C610 1.362 . S
C611 C612 1.366 . S
C612 C609 1.365 . S
C612 C611 1.366 . S
C612 H626 0.930 . S
C613 C610 1.378 . S
C613 N614 1.315 . S
C613 H616 0.930 . S
N614 Co594 2.194 . S
N614 C609 1.328 . S
N614 C613 1.315 . S
H615 C609 0.929 . S
H616 C613 0.930 . S
H617 C605 0.929 . S
H618 C607 0.929 . S
O619 Co594 2.351 . S
O619 C622 1.244 . S
O620 Co594 2.155 . S
O620 C622 1.240 . S
O621 Co594 2.096 . S
O621 C602 1.247 . S
C622 O619 1.244 . S
C622 O620 1.240 . S
H623 C597 0.931 . S
H624 C606 0.931 . S
H625 C610 0.929 . S
H626 C612 0.930 . S
Co627 N631 2.148 . S
Co627 N637 2.128 . S
Co627 N647 2.194 . S
Co627 O652 2.351 . S
Co627 O653 2.155 . S
Co627 O654 2.096 . S
C628 N631 1.301 . S
C628 N632 1.328 . S
C628 H633 0.930 . S
C629 C630 1.333 . S
C629 N631 1.317 . S
C629 H634 0.930 . S
C630 C629 1.333 . S
C630 N632 1.350 . S
C630 H656 0.931 . S
N631 Co627 2.148 . S
N631 C628 1.301 . S
N631 C629 1.317 . S
N632 C628 1.328 . S
N632 C630 1.350 . S
H633 C628 0.930 . S
H634 C629 0.930 . S
C635 O636 1.224 . S
C635 O654 1.247 . S
O636 C635 1.224 . S
N637 Co627 2.128 . S
N637 C638 1.355 . S
N637 C640 1.311 . S
C638 N637 1.355 . S
C638 C639 1.363 1_556 S
C638 H650 0.929 . S
C639 C638 1.363 1_554 S
C639 N641 1.375 . S
C639 H657 0.931 . S
C640 N637 1.311 . S
C640 N641 1.347 1_556 S
C640 H651 0.929 . S
N641 C639 1.375 . S
N641 C640 1.347 1_554 S
C642 C645 1.365 . S
C642 N647 1.328 . S
C642 H648 0.929 . S
C643 C644 1.362 . S
C643 C646 1.378 . S
C643 H658 0.929 . S
C644 C643 1.362 . S
C644 C645 1.366 . S
C645 C642 1.365 . S
C645 C644 1.366 . S
C645 H659 0.930 . S
C646 C643 1.378 . S
C646 N647 1.315 . S
C646 H649 0.930 . S
N647 Co627 2.194 . S
N647 C642 1.328 . S
N647 C646 1.315 . S
H648 C642 0.929 . S
H649 C646 0.930 . S
H650 C638 0.929 . S
H651 C640 0.929 . S
O652 Co627 2.351 . S
O652 C655 1.244 . S
O653 Co627 2.155 . S
O653 C655 1.240 . S
O654 Co627 2.096 . S
O654 C635 1.247 . S
C655 O652 1.244 . S
C655 O653 1.240 . S
H656 C630 0.931 . S
H657 C639 0.931 . S
H658 C643 0.929 . S
H659 C645 0.930 . S
Co660 N664 2.148 . S
Co660 N670 2.128 . S
Co660 N680 2.194 . S
Co660 O685 2.351 . S
Co660 O686 2.155 . S
Co660 O687 2.096 . S
C661 N664 1.301 . S
C661 N665 1.328 . S
C661 H666 0.930 . S
C662 C663 1.333 . S
C662 N664 1.317 . S
C662 H667 0.930 . S
C663 C662 1.333 . S
C663 N665 1.350 . S
C663 H689 0.931 . S
N664 Co660 2.148 . S
N664 C661 1.301 . S
N664 C662 1.317 . S
N665 C661 1.328 . S
N665 C663 1.350 . S
H666 C661 0.930 . S
H667 C662 0.930 . S
C668 O669 1.224 . S
C668 O687 1.247 . S
O669 C668 1.224 . S
N670 Co660 2.128 . S
N670 C671 1.355 . S
N670 C673 1.311 . S
C671 N670 1.355 . S
C671 C672 1.363 . S
C671 H683 0.929 . S
C672 C671 1.363 . S
C672 N674 1.375 . S
C672 H690 0.931 . S
C673 N670 1.311 . S
C673 N674 1.347 . S
C673 H684 0.929 . S
N674 C672 1.375 . S
N674 C673 1.347 . S
C675 C678 1.365 . S
C675 N680 1.328 . S
C675 H681 0.929 . S
C676 C677 1.362 . S
C676 C679 1.378 . S
C676 H691 0.929 . S
C677 C676 1.362 . S
C677 C678 1.366 . S
C678 C675 1.365 . S
C678 C677 1.366 . S
C678 H692 0.930 . S
C679 C676 1.378 . S
C679 N680 1.315 . S
C679 H682 0.930 . S
N680 Co660 2.194 . S
N680 C675 1.328 . S
N680 C679 1.315 . S
H681 C675 0.929 . S
H682 C679 0.930 . S
H683 C671 0.929 . S
H684 C673 0.929 . S
O685 Co660 2.351 . S
O685 C688 1.244 . S
O686 Co660 2.155 . S
O686 C688 1.240 . S
O687 Co660 2.096 . S
O687 C668 1.247 . S
C688 O685 1.244 . S
C688 O686 1.240 . S
H689 C663 0.931 . S
H690 C672 0.931 . S
H691 C676 0.929 . S
H692 C678 0.930 . S
Co693 N697 2.148 . S
Co693 N703 2.128 . S
Co693 N713 2.194 . S
Co693 O718 2.351 . S
Co693 O719 2.155 . S
Co693 O720 2.096 . S
C694 N697 1.301 . S
C694 N698 1.328 . S
C694 H699 0.930 . S
C695 C696 1.333 . S
C695 N697 1.317 . S
C695 H700 0.930 . S
C696 C695 1.333 . S
C696 N698 1.350 . S
C696 H722 0.931 . S
N697 Co693 2.148 . S
N697 C694 1.301 . S
N697 C695 1.317 . S
N698 C694 1.328 . S
N698 C696 1.350 . S
H699 C694 0.930 . S
H700 C695 0.930 . S
C701 O702 1.224 . S
C701 O720 1.247 . S
O702 C701 1.224 . S
N703 Co693 2.128 . S
N703 C704 1.355 . S
N703 C706 1.311 . S
C704 N703 1.355 . S
C704 C705 1.363 1_554 S
C704 H716 0.929 . S
C705 C704 1.363 1_556 S
C705 N707 1.375 . S
C705 H723 0.931 . S
C706 N703 1.311 . S
C706 N707 1.347 1_554 S
C706 H717 0.929 . S
N707 C705 1.375 . S
N707 C706 1.347 1_556 S
C708 C711 1.365 . S
C708 N713 1.328 . S
C708 H714 0.929 . S
C709 C710 1.362 . S
C709 C712 1.378 . S
C709 H724 0.929 . S
C710 C709 1.362 . S
C710 C711 1.366 . S
C711 C708 1.365 . S
C711 C710 1.366 . S
C711 H725 0.930 . S
C712 C709 1.378 . S
C712 N713 1.315 . S
C712 H715 0.930 . S
N713 Co693 2.194 . S
N713 C708 1.328 . S
N713 C712 1.315 . S
H714 C708 0.929 . S
H715 C712 0.930 . S
H716 C704 0.929 . S
H717 C706 0.929 . S
O718 Co693 2.351 . S
O718 C721 1.244 . S
O719 Co693 2.155 . S
O719 C721 1.240 . S
O720 Co693 2.096 . S
O720 C701 1.247 . S
C721 O718 1.244 . S
C721 O719 1.240 . S
H722 C696 0.931 . S
H723 C705 0.931 . S
H724 C709 0.929 . S
H725 C711 0.930 . S
Co726 N730 2.148 . S
Co726 N736 2.128 . S
Co726 N746 2.194 . S
Co726 O751 2.351 . S
Co726 O752 2.155 . S
Co726 O753 2.096 . S
C727 N730 1.301 . S
C727 N731 1.328 . S
C727 H732 0.930 . S
C728 C729 1.333 . S
C728 N730 1.317 . S
C728 H733 0.930 . S
C729 C728 1.333 . S
C729 N731 1.350 . S
C729 H755 0.931 . S
N730 Co726 2.148 . S
N730 C727 1.301 . S
N730 C728 1.317 . S
N731 C727 1.328 . S
N731 C729 1.350 . S
H732 C727 0.930 . S
H733 C728 0.930 . S
C734 O735 1.224 . S
C734 O753 1.247 . S
O735 C734 1.224 . S
N736 Co726 2.128 . S
N736 C737 1.355 . S
N736 C739 1.311 . S
C737 N736 1.355 . S
C737 C738 1.363 . S
C737 H749 0.929 . S
C738 C737 1.363 . S
C738 N740 1.375 . S
C738 H756 0.931 . S
C739 N736 1.311 . S
C739 N740 1.347 . S
C739 H750 0.929 . S
N740 C738 1.375 . S
N740 C739 1.347 . S
C741 C744 1.365 . S
C741 N746 1.328 . S
C741 H747 0.929 . S
C742 C743 1.362 . S
C742 C745 1.378 . S
C742 H757 0.929 . S
C743 C742 1.362 . S
C743 C744 1.366 . S
C744 C741 1.365 . S
C744 C743 1.366 . S
C744 H758 0.930 . S
C745 C742 1.378 . S
C745 N746 1.315 . S
C745 H748 0.930 . S
N746 Co726 2.194 . S
N746 C741 1.328 . S
N746 C745 1.315 . S
H747 C741 0.929 . S
H748 C745 0.930 . S
H749 C737 0.929 . S
H750 C739 0.929 . S
O751 Co726 2.351 . S
O751 C754 1.244 . S
O752 Co726 2.155 . S
O752 C754 1.240 . S
O753 Co726 2.096 . S
O753 C734 1.247 . S
C754 O751 1.244 . S
C754 O752 1.240 . S
H755 C729 0.931 . S
H756 C738 0.931 . S
H757 C742 0.929 . S
H758 C744 0.930 . S
Co759 N763 2.148 . S
Co759 N769 2.128 . S
Co759 N779 2.194 . S
Co759 O784 2.351 . S
Co759 O785 2.155 . S
Co759 O786 2.096 . S
C760 N763 1.301 . S
C760 N764 1.328 . S
C760 H765 0.930 . S
C761 C762 1.333 . S
C761 N763 1.317 . S
C761 H766 0.930 . S
C762 C761 1.333 . S
C762 N764 1.350 . S
C762 H788 0.931 . S
N763 Co759 2.148 . S
N763 C760 1.301 . S
N763 C761 1.317 . S
N764 C760 1.328 . S
N764 C762 1.350 . S
H765 C760 0.930 . S
H766 C761 0.930 . S
C767 O768 1.224 . S
C767 O786 1.247 . S
O768 C767 1.224 . S
N769 Co759 2.128 . S
N769 C770 1.355 . S
N769 C772 1.311 . S
C770 N769 1.355 . S
C770 C771 1.363 . S
C770 H782 0.929 . S
C771 C770 1.363 . S
C771 N773 1.375 . S
C771 H789 0.931 . S
C772 N769 1.311 . S
C772 N773 1.347 . S
C772 H783 0.929 . S
N773 C771 1.375 . S
N773 C772 1.347 . S
C774 C777 1.365 . S
C774 N779 1.328 . S
C774 H780 0.929 . S
C775 C776 1.362 . S
C775 C778 1.378 . S
C775 H790 0.929 . S
C776 C775 1.362 . S
C776 C777 1.366 . S
C777 C774 1.365 . S
C777 C776 1.366 . S
C777 H791 0.930 . S
C778 C775 1.378 . S
C778 N779 1.315 . S
C778 H781 0.930 . S
N779 Co759 2.194 . S
N779 C774 1.328 . S
N779 C778 1.315 . S
H780 C774 0.929 . S
H781 C778 0.930 . S
H782 C770 0.929 . S
H783 C772 0.929 . S
O784 Co759 2.351 . S
O784 C787 1.244 . S
O785 Co759 2.155 . S
O785 C787 1.240 . S
O786 Co759 2.096 . S
O786 C767 1.247 . S
C787 O784 1.244 . S
C787 O785 1.240 . S
H788 C762 0.931 . S
H789 C771 0.931 . S
H790 C775 0.929 . S
H791 C777 0.930 . S
C792 C793 1.387 . S
C792 H796 0.950 . S
C792 C801 1.390 . S
C793 C792 1.387 . S
C793 C795 1.387 . S
H794 C801 0.950 . S
C795 C793 1.387 . S
C795 C797 1.390 . S
C795 H799 0.950 . S
H796 C792 0.950 . S
C797 C795 1.390 . S
C797 C798 1.387 . S
C797 H800 0.950 . S
C798 C797 1.387 . S
C798 C801 1.387 . S
H799 C795 0.950 . S
H800 C797 0.950 . S
C801 C792 1.390 . S
C801 H794 0.950 . S
C801 C798 1.387 . S
C802 C803 1.387 . S
C802 H806 0.950 . S
C802 C811 1.390 . S
C803 C802 1.387 . S
C803 C805 1.387 . S
H804 C811 0.950 . S
C805 C803 1.387 . S
C805 C807 1.390 . S
C805 H809 0.950 . S
H806 C802 0.950 . S
C807 C805 1.390 . S
C807 C808 1.387 . S
C807 H810 0.950 . S
C808 C807 1.387 . S
C808 C811 1.387 . S
H809 C805 0.950 . S
H810 C807 0.950 . S
C811 C802 1.390 . S
C811 H804 0.950 . S
C811 C808 1.387 . S
C812 C813 1.387 . S
C812 H816 0.950 . S
C812 C821 1.390 . S
C813 C812 1.387 . S
C813 C815 1.387 . S
H814 C821 0.950 . S
C815 C813 1.387 . S
C815 C817 1.390 . S
C815 H819 0.950 . S
H816 C812 0.950 . S
C817 C815 1.390 . S
C817 C818 1.387 . S
C817 H820 0.950 . S
C818 C817 1.387 . S
C818 C821 1.387 . S
H819 C815 0.950 . S
H820 C817 0.950 . S
C821 C812 1.390 . S
C821 H814 0.950 . S
C821 C818 1.387 . S
C822 C823 1.387 . S
C822 H826 0.950 . S
C822 C831 1.390 . S
C823 C822 1.387 . S
C823 C825 1.387 . S
H824 C831 0.950 . S
C825 C823 1.387 . S
C825 C827 1.390 . S
C825 H829 0.950 . S
H826 C822 0.950 . S
C827 C825 1.390 . S
C827 C828 1.387 . S
C827 H830 0.950 . S
C828 C827 1.387 . S
C828 C831 1.387 . S
H829 C825 0.950 . S
H830 C827 0.950 . S
C831 C822 1.390 . S
C831 H824 0.950 . S
C831 C828 1.387 . S
C832 C833 1.387 . S
C832 H836 0.950 . S
C832 C841 1.390 . S
C833 C832 1.387 . S
C833 C835 1.387 . S
H834 C841 0.950 . S
C835 C833 1.387 . S
C835 C837 1.390 . S
C835 H839 0.950 . S
H836 C832 0.950 . S
C837 C835 1.390 . S
C837 C838 1.387 . S
C837 H840 0.950 . S
C838 C837 1.387 . S
C838 C841 1.387 . S
H839 C835 0.950 . S
H840 C837 0.950 . S
C841 C832 1.390 . S
C841 H834 0.950 . S
C841 C838 1.387 . S
C842 C843 1.387 . S
C842 H846 0.950 . S
C842 C851 1.390 . S
C843 C842 1.387 . S
C843 C845 1.387 . S
H844 C851 0.950 . S
C845 C843 1.387 . S
C845 C847 1.390 . S
C845 H849 0.950 . S
H846 C842 0.950 . S
C847 C845 1.390 . S
C847 C848 1.387 . S
C847 H850 0.950 . S
C848 C847 1.387 . S
C848 C851 1.387 . S
H849 C845 0.950 . S
H850 C847 0.950 . S
C851 C842 1.390 . S
C851 H844 0.950 . S
C851 C848 1.387 . S
C852 C853 1.387 . S
C852 H856 0.950 . S
C852 C861 1.390 . S
C853 C852 1.387 . S
C853 C855 1.387 . S
H854 C861 0.950 . S
C855 C853 1.387 . S
C855 C857 1.390 . S
C855 H859 0.950 . S
H856 C852 0.950 . S
C857 C855 1.390 . S
C857 C858 1.387 . S
C857 H860 0.950 . S
C858 C857 1.387 . S
C858 C861 1.387 . S
H859 C855 0.950 . S
H860 C857 0.950 . S
C861 C852 1.390 . S
C861 H854 0.950 . S
C861 C858 1.387 . S
C862 C863 1.387 . S
C862 H866 0.950 . S
C862 C871 1.390 . S
C863 C862 1.387 . S
C863 C865 1.387 . S
H864 C871 0.950 . S
C865 C863 1.387 . S
C865 C867 1.390 . S
C865 H869 0.950 . S
H866 C862 0.950 . S
C867 C865 1.390 . S
C867 C868 1.387 . S
C867 H870 0.950 . S
C868 C867 1.387 . S
C868 C871 1.387 . S
H869 C865 0.950 . S
H870 C867 0.950 . S
C871 C862 1.390 . S
C871 H864 0.950 . S
C871 C868 1.387 . S
C872 C873 1.387 . S
C872 H876 0.950 . S
C872 C881 1.390 . S
C873 C872 1.387 . S
C873 C875 1.387 . S
H874 C881 0.950 . S
C875 C873 1.387 . S
C875 C877 1.390 . S
C875 H879 0.950 . S
H876 C872 0.950 . S
C877 C875 1.390 . S
C877 C878 1.387 . S
C877 H880 0.950 . S
C878 C877 1.387 . S
C878 C881 1.387 . S
H879 C875 0.950 . S
H880 C877 0.950 . S
C881 C872 1.390 . S
C881 H874 0.950 . S
C881 C878 1.387 . S
C882 C883 1.387 . S
C882 H886 0.950 . S
C882 C891 1.390 . S
C883 C882 1.387 . S
C883 C885 1.387 . S
H884 C891 0.950 . S
C885 C883 1.387 . S
C885 C887 1.390 . S
C885 H889 0.950 . S
H886 C882 0.950 . S
C887 C885 1.390 . S
C887 C888 1.387 . S
C887 H890 0.950 . S
C888 C887 1.387 . S
C888 C891 1.387 . S
H889 C885 0.950 . S
H890 C887 0.950 . S
C891 C882 1.390 . S
C891 H884 0.950 . S
C891 C888 1.387 . S
C892 C893 1.387 . S
C892 H896 0.950 . S
C892 C901 1.390 . S
C893 C892 1.387 . S
C893 C895 1.387 . S
H894 C901 0.950 . S
C895 C893 1.387 . S
C895 C897 1.390 . S
C895 H899 0.950 . S
H896 C892 0.950 . S
C897 C895 1.390 . S
C897 C898 1.387 . S
C897 H900 0.950 . S
C898 C897 1.387 . S
C898 C901 1.387 . S
H899 C895 0.950 . S
H900 C897 0.950 . S
C901 C892 1.390 . S
C901 H894 0.950 . S
C901 C898 1.387 . S
C902 C903 1.387 . S
C902 H906 0.950 . S
C902 C911 1.390 . S
C903 C902 1.387 . S
C903 C905 1.387 . S
H904 C911 0.950 . S
C905 C903 1.387 . S
C905 C907 1.390 . S
C905 H909 0.950 . S
H906 C902 0.950 . S
C907 C905 1.390 . S
C907 C908 1.387 . S
C907 H910 0.950 . S
C908 C907 1.387 . S
C908 C911 1.387 . S
H909 C905 0.950 . S
H910 C907 0.950 . S
C911 C902 1.390 . S
C911 H904 0.950 . S
C911 C908 1.387 . S
C912 C913 1.387 . S
C912 H916 0.950 . S
C912 C921 1.390 . S
C913 C912 1.387 . S
C913 C915 1.387 . S
H914 C921 0.950 . S
C915 C913 1.387 . S
C915 C917 1.390 . S
C915 H919 0.950 . S
H916 C912 0.950 . S
C917 C915 1.390 . S
C917 C918 1.387 . S
C917 H920 0.950 . S
C918 C917 1.387 . S
C918 C921 1.387 . S
H919 C915 0.950 . S
H920 C917 0.950 . S
C921 C912 1.390 . S
C921 H914 0.950 . S
C921 C918 1.387 . S
C922 C923 1.387 . S
C922 H926 0.950 . S
C922 C931 1.390 . S
C923 C922 1.387 . S
C923 C925 1.387 . S
H924 C931 0.950 . S
C925 C923 1.387 . S
C925 C927 1.390 . S
C925 H929 0.950 . S
H926 C922 0.950 . S
C927 C925 1.390 . S
C927 C928 1.387 . S
C927 H930 0.950 . S
C928 C927 1.387 . S
C928 C931 1.387 . S
H929 C925 0.950 . S
H930 C927 0.950 . S
C931 C922 1.390 . S
C931 H924 0.950 . S
C931 C928 1.387 . S
C932 C933 1.387 . S
C932 H936 0.950 . S
C932 C941 1.390 . S
C933 C932 1.387 . S
C933 C935 1.387 . S
H934 C941 0.950 . S
C935 C933 1.387 . S
C935 C937 1.390 . S
C935 H939 0.950 . S
H936 C932 0.950 . S
C937 C935 1.390 . S
C937 C938 1.387 . S
C937 H940 0.950 . S
C938 C937 1.387 . S
C938 C941 1.387 . S
H939 C935 0.950 . S
H940 C937 0.950 . S
C941 C932 1.390 . S
C941 H934 0.950 . S
C941 C938 1.387 . S
C942 C943 1.387 . S
C942 H946 0.950 . S
C942 C951 1.390 . S
C943 C942 1.387 . S
C943 C945 1.387 . S
H944 C951 0.950 . S
C945 C943 1.387 . S
C945 C947 1.390 . S
C945 H949 0.950 . S
H946 C942 0.950 . S
C947 C945 1.390 . S
C947 C948 1.387 . S
C947 H950 0.950 . S
C948 C947 1.387 . S
C948 C951 1.387 . S
H949 C945 0.950 . S
H950 C947 0.950 . S
C951 C942 1.390 . S
C951 H944 0.950 . S
C951 C948 1.387 . S
C952 C953 1.387 . S
C952 H956 0.950 . S
C952 C961 1.390 . S
C953 C952 1.387 . S
C953 C955 1.387 . S
H954 C961 0.950 . S
C955 C953 1.387 . S
C955 C957 1.390 . S
C955 H959 0.950 . S
H956 C952 0.950 . S
C957 C955 1.390 . S
C957 C958 1.387 . S
C957 H960 0.950 . S
C958 C957 1.387 . S
C958 C961 1.387 . S
H959 C955 0.950 . S
H960 C957 0.950 . S
C961 C952 1.390 . S
C961 H954 0.950 . S
C961 C958 1.387 . S
C962 C963 1.387 . S
C962 H966 0.950 . S
C962 C971 1.390 . S
C963 C962 1.387 . S
C963 C965 1.387 . S
H964 C971 0.950 . S
C965 C963 1.387 . S
C965 C967 1.390 . S
C965 H969 0.950 . S
H966 C962 0.950 . S
C967 C965 1.390 . S
C967 C968 1.387 . S
C967 H970 0.950 . S
C968 C967 1.387 . S
C968 C971 1.387 . S
H969 C965 0.950 . S
H970 C967 0.950 . S
C971 C962 1.390 . S
C971 H964 0.950 . S
C971 C968 1.387 . S
C972 C973 1.387 . S
C972 H976 0.950 . S
C972 C981 1.390 . S
C973 C972 1.387 . S
C973 C975 1.387 . S
H974 C981 0.950 . S
C975 C973 1.387 . S
C975 C977 1.390 . S
C975 H979 0.950 . S
H976 C972 0.950 . S
C977 C975 1.390 . S
C977 C978 1.387 . S
C977 H980 0.950 . S
C978 C977 1.387 . S
C978 C981 1.387 . S
H979 C975 0.950 . S
H980 C977 0.950 . S
C981 C972 1.390 . S
C981 H974 0.950 . S
C981 C978 1.387 . S
C982 C983 1.387 . S
C982 H986 0.950 . S
C982 C991 1.390 . S
C983 C982 1.387 . S
C983 C985 1.387 . S
H984 C991 0.950 . S
C985 C983 1.387 . S
C985 C987 1.390 . S
C985 H989 0.950 . S
H986 C982 0.950 . S
C987 C985 1.390 . S
C987 C988 1.387 . S
C987 H990 0.950 . S
C988 C987 1.387 . S
C988 C991 1.387 . S
H989 C985 0.950 . S
H990 C987 0.950 . S
C991 C982 1.390 . S
C991 H984 0.950 . S
C991 C988 1.387 . S
C992 C993 1.387 . S
C992 H996 0.950 . S
C992 C1001 1.390 . S
C993 C992 1.387 . S
C993 C995 1.387 . S
H994 C1001 0.950 . S
C995 C993 1.387 . S
C995 C997 1.390 . S
C995 H999 0.950 . S
H996 C992 0.950 . S
C997 C995 1.390 . S
C997 C998 1.387 . S
C997 H1000 0.950 . S
C998 C997 1.387 . S
C998 C1001 1.387 . S
H999 C995 0.950 . S
H1000 C997 0.950 . S
C1001 C992 1.390 . S
C1001 H994 0.950 . S
C1001 C998 1.387 . S
C1002 C1003 1.387 . S
C1002 H1006 0.950 . S
C1002 C1011 1.390 . S
C1003 C1002 1.387 . S
C1003 C1005 1.387 . S
H1004 C1011 0.950 . S
C1005 C1003 1.387 . S
C1005 C1007 1.390 . S
C1005 H1009 0.950 . S
H1006 C1002 0.950 . S
C1007 C1005 1.390 . S
C1007 C1008 1.387 . S
C1007 H1010 0.950 . S
C1008 C1007 1.387 . S
C1008 C1011 1.387 . S
H1009 C1005 0.950 . S
H1010 C1007 0.950 . S
C1011 C1002 1.390 . S
C1011 H1004 0.950 . S
C1011 C1008 1.387 . S
C1012 C1013 1.387 . S
C1012 H1016 0.950 . S
C1012 C1021 1.390 . S
C1013 C1012 1.387 . S
C1013 C1015 1.387 . S
H1014 C1021 0.950 . S
C1015 C1013 1.387 . S
C1015 C1017 1.390 . S
C1015 H1019 0.950 . S
H1016 C1012 0.950 . S
C1017 C1015 1.390 . S
C1017 C1018 1.387 . S
C1017 H1020 0.950 . S
C1018 C1017 1.387 . S
C1018 C1021 1.387 . S
H1019 C1015 0.950 . S
H1020 C1017 0.950 . S
C1021 C1012 1.390 . S
C1021 H1014 0.950 . S
C1021 C1018 1.387 . S
C1022 C1023 1.387 . S
C1022 H1026 0.950 . S
C1022 C1031 1.390 . S
C1023 C1022 1.387 . S
C1023 C1025 1.387 . S
H1024 C1031 0.950 . S
C1025 C1023 1.387 . S
C1025 C1027 1.390 . S
C1025 H1029 0.950 . S
H1026 C1022 0.950 . S
C1027 C1025 1.390 . S
C1027 C1028 1.387 . S
C1027 H1030 0.950 . S
C1028 C1027 1.387 . S
C1028 C1031 1.387 . S
H1029 C1025 0.950 . S
H1030 C1027 0.950 . S
C1031 C1022 1.390 . S
C1031 H1024 0.950 . S
C1031 C1028 1.387 . S
C1032 C1033 1.387 . S
C1032 H1036 0.950 . S
C1032 C1041 1.390 1_656 S
C1033 C1032 1.387 . S
C1033 C1035 1.387 . S
H1034 C1041 0.950 . S
C1035 C1033 1.387 . S
C1035 C1037 1.390 1_656 S
C1035 H1039 0.950 . S
H1036 C1032 0.950 . S
C1037 C1035 1.390 1_454 S
C1037 C1038 1.387 . S
C1037 H1040 0.950 . S
C1038 C1037 1.387 . S
C1038 C1041 1.387 . S
H1039 C1035 0.950 . S
H1040 C1037 0.950 . S
C1041 C1032 1.390 1_454 S
C1041 H1034 0.950 . S
C1041 C1038 1.387 . S
C1042 C1043 1.387 . S
C1042 H1046 0.950 . S
C1042 C1051 1.390 . S
C1043 C1042 1.387 . S
C1043 C1045 1.387 . S
H1044 C1051 0.950 . S
C1045 C1043 1.387 . S
C1045 C1047 1.390 . S
C1045 H1049 0.950 . S
H1046 C1042 0.950 . S
C1047 C1045 1.390 . S
C1047 C1048 1.387 . S
C1047 H1050 0.950 . S
C1048 C1047 1.387 . S
C1048 C1051 1.387 . S
H1049 C1045 0.950 . S
H1050 C1047 0.950 . S
C1051 C1042 1.390 . S
C1051 H1044 0.950 . S
C1051 C1048 1.387 . S
C1052 C1053 1.387 . S
C1052 H1056 0.950 . S
C1052 C1061 1.390 1_456 S
C1053 C1052 1.387 . S
C1053 C1055 1.387 . S
H1054 C1061 0.950 . S
C1055 C1053 1.387 . S
C1055 C1057 1.390 1_456 S
C1055 H1059 0.950 . S
H1056 C1052 0.950 . S
C1057 C1055 1.390 1_654 S
C1057 C1058 1.387 . S
C1057 H1060 0.950 . S
C1058 C1057 1.387 . S
C1058 C1061 1.387 . S
H1059 C1055 0.950 . S
H1060 C1057 0.950 . S
C1061 C1052 1.390 1_654 S
C1061 H1054 0.950 . S
C1061 C1058 1.387 . S
C1062 C1063 1.387 . S
C1062 H1066 0.950 . S
C1062 C1071 1.390 . S
C1063 C1062 1.387 . S
C1063 C1065 1.387 . S
H1064 C1071 0.950 . S
C1065 C1063 1.387 . S
C1065 C1067 1.390 . S
C1065 H1069 0.950 . S
H1066 C1062 0.950 . S
C1067 C1065 1.390 . S
C1067 C1068 1.387 . S
C1067 H1070 0.950 . S
C1068 C1067 1.387 . S
C1068 C1071 1.387 . S
H1069 C1065 0.950 . S
H1070 C1067 0.950 . S
C1071 C1062 1.390 . S
C1071 H1064 0.950 . S
C1071 C1068 1.387 . S
C1072 C1073 1.387 . S
C1072 H1076 0.950 . S
C1072 C1081 1.390 1_665 S
C1073 C1072 1.387 . S
C1073 C1075 1.387 . S
H1074 C1081 0.950 . S
C1075 C1073 1.387 . S
C1075 C1077 1.390 1_665 S
C1075 H1079 0.950 . S
H1076 C1072 0.950 . S
C1077 C1075 1.390 1_445 S
C1077 C1078 1.387 . S
C1077 H1080 0.950 . S
C1078 C1077 1.387 . S
C1078 C1081 1.387 . S
H1079 C1075 0.950 . S
H1080 C1077 0.950 . S
C1081 C1072 1.390 1_445 S
C1081 H1074 0.950 . S
C1081 C1078 1.387 . S
C1082 C1083 1.387 . S
C1082 H1086 0.950 . S
C1082 C1091 1.390 . S
C1083 C1082 1.387 . S
C1083 C1085 1.387 . S
H1084 C1091 0.950 . S
C1085 C1083 1.387 . S
C1085 C1087 1.390 . S
C1085 H1089 0.950 . S
H1086 C1082 0.950 . S
C1087 C1085 1.390 . S
C1087 C1088 1.387 . S
C1087 H1090 0.950 . S
C1088 C1087 1.387 . S
C1088 C1091 1.387 . S
H1089 C1085 0.950 . S
H1090 C1087 0.950 . S
C1091 C1082 1.390 . S
C1091 H1084 0.950 . S
C1091 C1088 1.387 . S
C1092 C1093 1.387 . S
C1092 H1096 0.950 . S
C1092 C1101 1.390 1_465 S
C1093 C1092 1.387 . S
C1093 C1095 1.387 . S
H1094 C1101 0.950 . S
C1095 C1093 1.387 . S
C1095 C1097 1.390 1_465 S
C1095 H1099 0.950 . S
H1096 C1092 0.950 . S
C1097 C1095 1.390 1_645 S
C1097 C1098 1.387 . S
C1097 H1100 0.950 . S
C1098 C1097 1.387 . S
C1098 C1101 1.387 . S
H1099 C1095 0.950 . S
H1100 C1097 0.950 . S
C1101 C1092 1.390 1_645 S
C1101 H1094 0.950 . S
C1101 C1098 1.387 . S
C1102 C1103 1.387 . S
C1102 H1106 0.950 . S
C1102 C1111 1.390 . S
C1103 C1102 1.387 . S
C1103 C1105 1.387 . S
H1104 C1111 0.950 . S
C1105 C1103 1.387 . S
C1105 C1107 1.390 . S
C1105 H1109 0.950 . S
H1106 C1102 0.950 . S
C1107 C1105 1.390 . S
C1107 C1108 1.387 . S
C1107 H1110 0.950 . S
C1108 C1107 1.387 . S
C1108 C1111 1.387 . S
H1109 C1105 0.950 . S
H1110 C1107 0.950 . S
C1111 C1102 1.390 . S
C1111 H1104 0.950 . S
C1111 C1108 1.387 . S
C1112 C1113 1.387 . S
C1112 H1116 0.950 . S
C1112 C1121 1.390 1_544 S
C1113 C1112 1.387 . S
C1113 C1115 1.387 . S
H1114 C1121 0.950 . S
C1115 C1113 1.387 . S
C1115 C1117 1.390 1_544 S
C1115 H1119 0.950 . S
H1116 C1112 0.950 . S
C1117 C1115 1.390 1_566 S
C1117 C1118 1.387 . S
C1117 H1120 0.950 . S
C1118 C1117 1.387 . S
C1118 C1121 1.387 . S
H1119 C1115 0.950 . S
H1120 C1117 0.950 . S
C1121 C1112 1.390 1_566 S
C1121 H1114 0.950 . S
C1121 C1118 1.387 . S
C1122 C1123 1.387 . S
C1122 H1126 0.950 . S
C1122 C1131 1.390 . S
C1123 C1122 1.387 . S
C1123 C1125 1.387 . S
H1124 C1131 0.950 . S
C1125 C1123 1.387 . S
C1125 C1127 1.390 . S
C1125 H1129 0.950 . S
H1126 C1122 0.950 . S
C1127 C1125 1.390 . S
C1127 C1128 1.387 . S
C1127 H1130 0.950 . S
C1128 C1127 1.387 . S
C1128 C1131 1.387 . S
H1129 C1125 0.950 . S
H1130 C1127 0.950 . S
C1131 C1122 1.390 . S
C1131 H1124 0.950 . S
C1131 C1128 1.387 . S
C1132 C1133 1.387 . S
C1132 H1136 0.950 . S
C1132 C1141 1.390 1_546 S
C1133 C1132 1.387 . S
C1133 C1135 1.387 . S
H1134 C1141 0.950 . S
C1135 C1133 1.387 . S
C1135 C1137 1.390 1_546 S
C1135 H1139 0.950 . S
H1136 C1132 0.950 . S
C1137 C1135 1.390 1_564 S
C1137 C1138 1.387 . S
C1137 H1140 0.950 . S
C1138 C1137 1.387 . S
C1138 C1141 1.387 . S
H1139 C1135 0.950 . S
H1140 C1137 0.950 . S
C1141 C1132 1.390 1_564 S
C1141 H1134 0.950 . S
C1141 C1138 1.387 . S
C1142 C1143 1.387 . S
C1142 H1146 0.950 . S
C1142 C1151 1.390 . S
C1143 C1142 1.387 . S
C1143 C1145 1.387 . S
H1144 C1151 0.950 . S
C1145 C1143 1.387 . S
C1145 C1147 1.390 . S
C1145 H1149 0.950 . S
H1146 C1142 0.950 . S
C1147 C1145 1.390 . S
C1147 C1148 1.387 . S
C1147 H1150 0.950 . S
C1148 C1147 1.387 . S
C1148 C1151 1.387 . S
H1149 C1145 0.950 . S
H1150 C1147 0.950 . S
C1151 C1142 1.390 . S
C1151 H1144 0.950 . S
C1151 C1148 1.387 . S
C1152 C1153 1.387 . S
C1152 H1156 0.950 . S
C1152 C1161 1.390 . S
C1153 C1152 1.387 . S
C1153 C1155 1.387 . S
H1154 C1161 0.950 . S
C1155 C1153 1.387 . S
C1155 C1157 1.390 . S
C1155 H1159 0.950 . S
H1156 C1152 0.950 . S
C1157 C1155 1.390 . S
C1157 C1158 1.387 . S
C1157 H1160 0.950 . S
C1158 C1157 1.387 . S
C1158 C1161 1.387 . S
H1159 C1155 0.950 . S
H1160 C1157 0.950 . S
C1161 C1152 1.390 . S
C1161 H1154 0.950 . S
C1161 C1158 1.387 . S
C1162 C1163 1.387 . S
C1162 H1166 0.950 . S
C1162 C1171 1.390 . S
C1163 C1162 1.387 . S
C1163 C1165 1.387 . S
H1164 C1171 0.950 . S
C1165 C1163 1.387 . S
C1165 C1167 1.390 . S
C1165 H1169 0.950 . S
H1166 C1162 0.950 . S
C1167 C1165 1.390 . S
C1167 C1168 1.387 . S
C1167 H1170 0.950 . S
C1168 C1167 1.387 . S
C1168 C1171 1.387 . S
H1169 C1165 0.950 . S
H1170 C1167 0.950 . S
C1171 C1162 1.390 . S
C1171 H1164 0.950 . S
C1171 C1168 1.387 . S
C1172 C1173 1.387 . S
C1172 H1176 0.950 . S
C1172 C1181 1.390 . S
C1173 C1172 1.387 . S
C1173 C1175 1.387 . S
H1174 C1181 0.950 . S
C1175 C1173 1.387 . S
C1175 C1177 1.390 . S
C1175 H1179 0.950 . S
H1176 C1172 0.950 . S
C1177 C1175 1.390 . S
C1177 C1178 1.387 . S
C1177 H1180 0.950 . S
C1178 C1177 1.387 . S
C1178 C1181 1.387 . S
H1179 C1175 0.950 . S
H1180 C1177 0.950 . S
C1181 C1172 1.390 . S
C1181 H1174 0.950 . S
C1181 C1178 1.387 . S
C1182 C1183 1.387 . S
C1182 H1186 0.950 . S
C1182 C1191 1.390 . S
C1183 C1182 1.387 . S
C1183 C1185 1.387 . S
H1184 C1191 0.950 . S
C1185 C1183 1.387 . S
C1185 C1187 1.390 . S
C1185 H1189 0.950 . S
H1186 C1182 0.950 . S
C1187 C1185 1.390 . S
C1187 C1188 1.387 . S
C1187 H1190 0.950 . S
C1188 C1187 1.387 . S
C1188 C1191 1.387 . S
H1189 C1185 0.950 . S
H1190 C1187 0.950 . S
C1191 C1182 1.390 . S
C1191 H1184 0.950 . S
C1191 C1188 1.387 . S
C1192 C1193 1.387 . S
C1192 H1196 0.950 . S
C1192 C1201 1.390 . S
C1193 C1192 1.387 . S
C1193 C1195 1.387 . S
H1194 C1201 0.950 . S
C1195 C1193 1.387 . S
C1195 C1197 1.390 . S
C1195 H1199 0.950 . S
H1196 C1192 0.950 . S
C1197 C1195 1.390 . S
C1197 C1198 1.387 . S
C1197 H1200 0.950 . S
C1198 C1197 1.387 . S
C1198 C1201 1.387 . S
H1199 C1195 0.950 . S
H1200 C1197 0.950 . S
C1201 C1192 1.390 . S
C1201 H1194 0.950 . S
C1201 C1198 1.387 . S
C1202 C1203 1.387 . S
C1202 H1206 0.950 . S
C1202 C1211 1.390 . S
C1203 C1202 1.387 . S
C1203 C1205 1.387 . S
H1204 C1211 0.950 . S
C1205 C1203 1.387 . S
C1205 C1207 1.390 . S
C1205 H1209 0.950 . S
H1206 C1202 0.950 . S
C1207 C1205 1.390 . S
C1207 C1208 1.387 . S
C1207 H1210 0.950 . S
C1208 C1207 1.387 . S
C1208 C1211 1.387 . S
H1209 C1205 0.950 . S
H1210 C1207 0.950 . S
C1211 C1202 1.390 . S
C1211 H1204 0.950 . S
C1211 C1208 1.387 . S
C1212 C1213 1.387 . S
C1212 H1216 0.950 . S
C1212 C1221 1.390 . S
C1213 C1212 1.387 . S
C1213 C1215 1.387 . S
H1214 C1221 0.950 . S
C1215 C1213 1.387 . S
C1215 C1217 1.390 . S
C1215 H1219 0.950 . S
H1216 C1212 0.950 . S
C1217 C1215 1.390 . S
C1217 C1218 1.387 . S
C1217 H1220 0.950 . S
C1218 C1217 1.387 . S
C1218 C1221 1.387 . S
H1219 C1215 0.950 . S
H1220 C1217 0.950 . S
C1221 C1212 1.390 . S
C1221 H1214 0.950 . S
C1221 C1218 1.387 . S
C1222 C1223 1.387 . S
C1222 H1226 0.950 . S
C1222 C1231 1.390 . S
C1223 C1222 1.387 . S
C1223 C1225 1.387 . S
H1224 C1231 0.950 . S
C1225 C1223 1.387 . S
C1225 C1227 1.390 . S
C1225 H1229 0.950 . S
H1226 C1222 0.950 . S
C1227 C1225 1.390 . S
C1227 C1228 1.387 . S
C1227 H1230 0.950 . S
C1228 C1227 1.387 . S
C1228 C1231 1.387 . S
H1229 C1225 0.950 . S
H1230 C1227 0.950 . S
C1231 C1222 1.390 . S
C1231 H1224 0.950 . S
C1231 C1228 1.387 . S
C1232 C1233 1.387 . S
C1232 H1236 0.950 . S
C1232 C1241 1.390 . S
C1233 C1232 1.387 . S
C1233 C1235 1.387 . S
H1234 C1241 0.950 . S
C1235 C1233 1.387 . S
C1235 C1237 1.390 . S
C1235 H1239 0.950 . S
H1236 C1232 0.950 . S
C1237 C1235 1.390 . S
C1237 C1238 1.387 . S
C1237 H1240 0.950 . S
C1238 C1237 1.387 . S
C1238 C1241 1.387 . S
H1239 C1235 0.950 . S
H1240 C1237 0.950 . S
C1241 C1232 1.390 . S
C1241 H1234 0.950 . S
C1241 C1238 1.387 . S
C1242 C1243 1.387 . S
C1242 H1246 0.950 . S
C1242 C1251 1.390 . S
C1243 C1242 1.387 . S
C1243 C1245 1.387 . S
H1244 C1251 0.950 . S
C1245 C1243 1.387 . S
C1245 C1247 1.390 . S
C1245 H1249 0.950 . S
H1246 C1242 0.950 . S
C1247 C1245 1.390 . S
C1247 C1248 1.387 . S
C1247 H1250 0.950 . S
C1248 C1247 1.387 . S
C1248 C1251 1.387 . S
H1249 C1245 0.950 . S
H1250 C1247 0.950 . S
C1251 C1242 1.390 . S
C1251 H1244 0.950 . S
C1251 C1248 1.387 . S
C1252 C1253 1.387 . S
C1252 H1256 0.950 . S
C1252 C1261 1.390 . S
C1253 C1252 1.387 . S
C1253 C1255 1.387 . S
H1254 C1261 0.950 . S
C1255 C1253 1.387 . S
C1255 C1257 1.390 . S
C1255 H1259 0.950 . S
H1256 C1252 0.950 . S
C1257 C1255 1.390 . S
C1257 C1258 1.387 . S
C1257 H1260 0.950 . S
C1258 C1257 1.387 . S
C1258 C1261 1.387 . S
H1259 C1255 0.950 . S
H1260 C1257 0.950 . S
C1261 C1252 1.390 . S
C1261 H1254 0.950 . S
C1261 C1258 1.387 . S
C1262 C1263 1.387 . S
C1262 H1266 0.950 . S
C1262 C1271 1.390 . S
C1263 C1262 1.387 . S
C1263 C1265 1.387 . S
H1264 C1271 0.950 . S
C1265 C1263 1.387 . S
C1265 C1267 1.390 . S
C1265 H1269 0.950 . S
H1266 C1262 0.950 . S
C1267 C1265 1.390 . S
C1267 C1268 1.387 . S
C1267 H1270 0.950 . S
C1268 C1267 1.387 . S
C1268 C1271 1.387 . S
H1269 C1265 0.950 . S
H1270 C1267 0.950 . S
C1271 C1262 1.390 . S
C1271 H1264 0.950 . S
C1271 C1268 1.387 . S
C1272 C1273 1.387 . S
C1272 H1276 0.950 . S
C1272 C1281 1.390 . S
C1273 C1272 1.387 . S
C1273 C1275 1.387 . S
H1274 C1281 0.950 . S
C1275 C1273 1.387 . S
C1275 C1277 1.390 . S
C1275 H1279 0.950 . S
H1276 C1272 0.950 . S
C1277 C1275 1.390 . S
C1277 C1278 1.387 . S
C1277 H1280 0.950 . S
C1278 C1277 1.387 . S
C1278 C1281 1.387 . S
H1279 C1275 0.950 . S
H1280 C1277 0.950 . S
C1281 C1272 1.390 . S
C1281 H1274 0.950 . S
C1281 C1278 1.387 . S
C1282 C1283 1.387 . S
C1282 H1286 0.950 . S
C1282 C1291 1.390 . S
C1283 C1282 1.387 . S
C1283 C1285 1.387 . S
H1284 C1291 0.950 . S
C1285 C1283 1.387 . S
C1285 C1287 1.390 . S
C1285 H1289 0.950 . S
H1286 C1282 0.950 . S
C1287 C1285 1.390 . S
C1287 C1288 1.387 . S
C1287 H1290 0.950 . S
C1288 C1287 1.387 . S
C1288 C1291 1.387 . S
H1289 C1285 0.950 . S
H1290 C1287 0.950 . S
C1291 C1282 1.390 . S
C1291 H1284 0.950 . S
C1291 C1288 1.387 . S
C1292 C1293 1.387 . S
C1292 H1296 0.950 . S
C1292 C1301 1.390 . S
C1293 C1292 1.387 . S
C1293 C1295 1.387 . S
H1294 C1301 0.950 . S
C1295 C1293 1.387 . S
C1295 C1297 1.390 . S
C1295 H1299 0.950 . S
H1296 C1292 0.950 . S
C1297 C1295 1.390 . S
C1297 C1298 1.387 . S
C1297 H1300 0.950 . S
C1298 C1297 1.387 . S
C1298 C1301 1.387 . S
H1299 C1295 0.950 . S
H1300 C1297 0.950 . S
C1301 C1292 1.390 . S
C1301 H1294 0.950 . S
C1301 C1298 1.387 . S
C1302 C1303 1.387 . S
C1302 H1306 0.950 . S
C1302 C1311 1.390 . S
C1303 C1302 1.387 . S
C1303 C1305 1.387 . S
H1304 C1311 0.950 . S
C1305 C1303 1.387 . S
C1305 C1307 1.390 . S
C1305 H1309 0.950 . S
H1306 C1302 0.950 . S
C1307 C1305 1.390 . S
C1307 C1308 1.387 . S
C1307 H1310 0.950 . S
C1308 C1307 1.387 . S
C1308 C1311 1.387 . S
H1309 C1305 0.950 . S
H1310 C1307 0.950 . S
C1311 C1302 1.390 . S
C1311 H1304 0.950 . S
C1311 C1308 1.387 . S
C1312 C1313 1.387 . S
C1312 H1316 0.950 . S
C1312 C1321 1.390 . S
C1313 C1312 1.387 . S
C1313 C1315 1.387 . S
H1314 C1321 0.950 . S
C1315 C1313 1.387 . S
C1315 C1317 1.390 . S
C1315 H1319 0.950 . S
H1316 C1312 0.950 . S
C1317 C1315 1.390 . S
C1317 C1318 1.387 . S
C1317 H1320 0.950 . S
C1318 C1317 1.387 . S
C1318 C1321 1.387 . S
H1319 C1315 0.950 . S
H1320 C1317 0.950 . S
C1321 C1312 1.390 . S
C1321 H1314 0.950 . S
C1321 C1318 1.387 . S
C1322 C1323 1.387 . S
C1322 H1326 0.950 . S
C1322 C1331 1.390 . S
C1323 C1322 1.387 . S
C1323 C1325 1.387 . S
H1324 C1331 0.950 . S
C1325 C1323 1.387 . S
C1325 C1327 1.390 . S
C1325 H1329 0.950 . S
H1326 C1322 0.950 . S
C1327 C1325 1.390 . S
C1327 C1328 1.387 . S
C1327 H1330 0.950 . S
C1328 C1327 1.387 . S
C1328 C1331 1.387 . S
H1329 C1325 0.950 . S
H1330 C1327 0.950 . S
C1331 C1322 1.390 . S
C1331 H1324 0.950 . S
C1331 C1328 1.387 . S
C1332 C1333 1.387 . S
C1332 H1336 0.950 . S
C1332 C1341 1.390 . S
C1333 C1332 1.387 . S
C1333 C1335 1.387 . S
H1334 C1341 0.950 . S
C1335 C1333 1.387 . S
C1335 C1337 1.390 . S
C1335 H1339 0.950 . S
H1336 C1332 0.950 . S
C1337 C1335 1.390 . S
C1337 C1338 1.387 . S
C1337 H1340 0.950 . S
C1338 C1337 1.387 . S
C1338 C1341 1.387 . S
H1339 C1335 0.950 . S
H1340 C1337 0.950 . S
C1341 C1332 1.390 . S
C1341 H1334 0.950 . S
C1341 C1338 1.387 . S
C1342 C1343 1.387 . S
C1342 H1346 0.950 . S
C1342 C1351 1.390 . S
C1343 C1342 1.387 . S
C1343 C1345 1.387 . S
H1344 C1351 0.950 . S
C1345 C1343 1.387 . S
C1345 C1347 1.390 . S
C1345 H1349 0.950 . S
H1346 C1342 0.950 . S
C1347 C1345 1.390 . S
C1347 C1348 1.387 . S
C1347 H1350 0.950 . S
C1348 C1347 1.387 . S
C1348 C1351 1.387 . S
H1349 C1345 0.950 . S
H1350 C1347 0.950 . S
C1351 C1342 1.390 . S
C1351 H1344 0.950 . S
C1351 C1348 1.387 . S
C1352 C1353 1.387 . S
C1352 H1356 0.950 . S
C1352 C1361 1.390 . S
C1353 C1352 1.387 . S
C1353 C1355 1.387 . S
H1354 C1361 0.950 . S
C1355 C1353 1.387 . S
C1355 C1357 1.390 . S
C1355 H1359 0.950 . S
H1356 C1352 0.950 . S
C1357 C1355 1.390 . S
C1357 C1358 1.387 . S
C1357 H1360 0.950 . S
C1358 C1357 1.387 . S
C1358 C1361 1.387 . S
H1359 C1355 0.950 . S
H1360 C1357 0.950 . S
C1361 C1352 1.390 . S
C1361 H1354 0.950 . S
C1361 C1358 1.387 . S
C1362 C1363 1.387 . S
C1362 H1366 0.950 . S
C1362 C1371 1.390 . S
C1363 C1362 1.387 . S
C1363 C1365 1.387 . S
H1364 C1371 0.950 . S
C1365 C1363 1.387 . S
C1365 C1367 1.390 . S
C1365 H1369 0.950 . S
H1366 C1362 0.950 . S
C1367 C1365 1.390 . S
C1367 C1368 1.387 . S
C1367 H1370 0.950 . S
C1368 C1367 1.387 . S
C1368 C1371 1.387 . S
H1369 C1365 0.950 . S
H1370 C1367 0.950 . S
C1371 C1362 1.390 . S
C1371 H1364 0.950 . S
C1371 C1368 1.387 . S
C1372 C1373 1.387 . S
C1372 H1376 0.950 . S
C1372 C1381 1.390 . S
C1373 C1372 1.387 . S
C1373 C1375 1.387 . S
H1374 C1381 0.950 . S
C1375 C1373 1.387 . S
C1375 C1377 1.390 . S
C1375 H1379 0.950 . S
H1376 C1372 0.950 . S
C1377 C1375 1.390 . S
C1377 C1378 1.387 . S
C1377 H1380 0.950 . S
C1378 C1377 1.387 . S
C1378 C1381 1.387 . S
H1379 C1375 0.950 . S
H1380 C1377 0.950 . S
C1381 C1372 1.390 . S
C1381 H1374 0.950 . S
C1381 C1378 1.387 . S
C1382 C1383 1.387 . S
C1382 H1386 0.950 . S
C1382 C1391 1.390 . S
C1383 C1382 1.387 . S
C1383 C1385 1.387 . S
H1384 C1391 0.950 . S
C1385 C1383 1.387 . S
C1385 C1387 1.390 . S
C1385 H1389 0.950 . S
H1386 C1382 0.950 . S
C1387 C1385 1.390 . S
C1387 C1388 1.387 . S
C1387 H1390 0.950 . S
C1388 C1387 1.387 . S
C1388 C1391 1.387 . S
H1389 C1385 0.950 . S
H1390 C1387 0.950 . S
C1391 C1382 1.390 . S
C1391 H1384 0.950 . S
C1391 C1388 1.387 . S
C793 N113 1.429 . S
C798 C8 1.451 . S
C803 N14 1.429 . S
C808 C41 1.450 . S
C813 N47 1.429 . S
C818 C74 1.451 . S
C823 C107 1.451 . S
C828 N80 1.427 . S
C833 N179 1.427 . S
C838 C140 1.451 . S
C843 N212 1.429 . S
C848 C173 1.450 . S
C853 C206 1.450 . S
C858 N245 1.427 . S
C863 N146 1.427 . S
C868 C239 1.451 . S
C873 C272 1.451 . S
C878 N608 1.428 . S
C883 C305 1.451 . S
C888 N641 1.429 . S
C893 N674 1.427 . S
C898 C338 1.451 . S
C903 N575 1.429 . S
C908 C371 1.451 . S
C913 N740 1.429 . S
C918 C404 1.451 . S
C923 C437 1.450 . S
C928 N542 1.428 . S
C933 C470 1.451 . S
C938 N773 1.429 . S
C943 N707 1.429 . S
C948 C503 1.451 . S
C953 N311 1.427 . S
C958 C536 1.451 . S
C963 C569 1.450 . S
C968 N509 1.428 . S
C973 N410 1.428 . S
C978 C602 1.450 . S
C983 N443 1.429 . S
C988 C635 1.450 . S
C993 N476 1.428 . S
C998 C668 1.451 . S
C1003 N377 1.427 . S
C1008 C701 1.451 . S
C1013 N278 1.428 . S
C1018 C734 1.451 . S
C1023 N344 1.427 . S
C1028 C767 1.451 . S
C1033 C215 1.585 . S
C1038 C17 1.585 . S
C1043 C50 1.586 . S
C1048 C248 1.586 . S
C1053 C149 1.585 . S
C1058 C83 1.585 . S
C1063 C182 1.586 . S
C1068 C116 1.586 . S
C1073 C347 1.585 . S
C1078 C281 1.585 . S
C1083 C314 1.586 . S
C1088 C380 1.586 . S
C1093 C413 1.585 . S
C1098 C479 1.585 . S
C1103 C512 1.586 . S
C1108 C446 1.586 . S
C1113 C545 1.585 . S
C1118 C578 1.585 . S
C1123 C611 1.586 . S
C1128 C776 1.586 . S
C1133 C644 1.585 . S
C1138 C710 1.585 . S
C1143 C743 1.585 . S
C1148 C677 1.585 . S
C1153 C28 1.329 . S
C1158 N269 1.361 . S
C1163 C61 1.329 . S
C1168 N302 1.361 . S
C1173 N335 1.361 . S
C1178 C94 1.329 . S
C1183 N368 1.361 . S
C1188 C127 1.329 . S
C1193 C160 1.332 . S
C1198 N401 1.361 . S
C1203 N434 1.361 . S
C1208 C193 1.332 . S
C1213 C226 1.332 . S
C1218 N467 1.361 . S
C1223 N500 1.360 . S
C1228 C259 1.332 . S
C1233 C292 1.332 . S
C1238 N533 1.360 . S
C1243 N764 1.361 . S
C1248 C325 1.330 . S
C1253 C358 1.331 . S
C1258 N698 1.360 . S
C1263 C391 1.329 . S
C1268 N731 1.361 . S
C1273 N566 1.361 . S
C1278 C424 1.331 . S
C1283 C457 1.329 . S
C1288 N599 1.361 . S
C1293 C490 1.329 . S
C1298 N632 1.361 . S
C1303 C523 1.332 . S
C1308 N665 1.360 . S
C1313 C556 1.332 . S
C1318 N5 1.361 . S
C1323 C589 1.332 . S
C1328 N137 1.361 . S
C1333 C622 1.332 . S
C1338 N170 1.361 . S
C1343 N203 1.361 . S
C1348 C655 1.329 . S
C1353 C688 1.332 . S
C1358 N236 1.361 . S
C1363 N71 1.361 . S
C1368 C721 1.332 . S
C1373 N104 1.361 . S
C1378 C754 1.331 . S
C1383 C787 1.332 . S
C1388 N38 1.361 . S
