# Generated by pormake.
# Topology unj, (4)-cn, num edge types: 1
# Building blocks:
#     Node 0, Type 0, BuildingBlock: QUQFOY_clean_sbu_3, # of connection points: 4
#     Node 1, Type 0, BuildingBlock: QUQFOY_clean_sbu_3, # of connection points: 4
#     Node 2, Type 0, BuildingBlock: QUQFOY_clean_sbu_3, # of connection points: 4
#     Node 3, Type 0, BuildingBlock: QUQFOY_clean_sbu_3, # of connection points: 4
#     Node 4, Type 0, BuildingBlock: QUQFOY_clean_sbu_3, # of connection points: 4
#     Node 5, Type 0, BuildingBlock: QUQFOY_clean_sbu_3, # of connection points: 4
#     Edge 6, Type (0, 0), BuildingBlock: MIFKUJ_clean_linker_0, # of connection points: 2
#     Edge 7, Type (0, 0), BuildingBlock: MIFKUJ_clean_linker_0, # of connection points: 2
#     Edge 8, Type (0, 0), BuildingBlock: MIFKUJ_clean_linker_0, # of connection points: 2
#     Edge 9, Type (0, 0), BuildingBlock: MIFKUJ_clean_linker_0, # of connection points: 2
#     Edge 10, Type (0, 0), BuildingBlock: MIFKUJ_clean_linker_0, # of connection points: 2
#     Edge 11, Type (0, 0), BuildingBlock: MIFKUJ_clean_linker_0, # of connection points: 2
#     Edge 12, Type (0, 0), BuildingBlock: MIFKUJ_clean_linker_0, # of connection points: 2
#     Edge 13, Type (0, 0), BuildingBlock: MIFKUJ_clean_linker_0, # of connection points: 2
#     Edge 14, Type (0, 0), BuildingBlock: MIFKUJ_clean_linker_0, # of connection points: 2
#     Edge 15, Type (0, 0), BuildingBlock: MIFKUJ_clean_linker_0, # of connection points: 2
#     Edge 16, Type (0, 0), BuildingBlock: MIFKUJ_clean_linker_0, # of connection points: 2
#     Edge 17, Type (0, 0), BuildingBlock: MIFKUJ_clean_linker_0, # of connection points: 2
# Relax obj value: 0.028
# Max RMSD: 0.080
# Mean RMSD: 0.080
data_MOF--net-unj--node1-QUQFOY_clean_sbu_3--edge1-MIFKUJ_clean_linker_0
_symmetry_space_group_name_H-M    P1
_symmetry_Int_Tables_number       1
_symmetry_cell_setting            triclinic
loop_
_symmetry_equiv_pos_as_xyz
'x, y, z'
_cell_length_a     43.811084
_cell_length_b     43.899554
_cell_length_c     48.415072
_cell_angle_alpha  89.885384
_cell_angle_beta   90.080707
_cell_angle_gamma 119.86676
loop_
_atom_site_label
_atom_site_type_symbol
_atom_site_fract_x
_atom_site_fract_y
_atom_site_fract_z
_atom_type_partial_charge
C0 C 0.54679 0.26424 0.53136 0.0
O1 O 0.56271 0.24831 0.53942 0.0
Cd2 Cd 0.53938 0.20338 0.57384 0.0
O3 O 0.51774 0.25778 0.54235 0.0
Cd4 Cd 0.47809 0.22192 0.58032 0.0
C5 C 0.45776 0.14729 0.54622 0.0
O6 O 0.52542 0.23033 0.61077 0.0
O7 O 0.47321 0.1943 0.62573 0.0
O8 O 0.47485 0.27436 0.58947 0.0
C9 C 0.50606 0.21122 0.63024 0.0
O10 O 0.4886 0.15353 0.55242 0.0
C11 C 0.44175 0.25885 0.59275 0.0
O12 O 0.44736 0.1686 0.55305 0.0
O13 O 0.42501 0.22573 0.58951 0.0
C14 C 0.27676 0.54765 0.70774 0.0
O15 O 0.30881 0.56399 0.71518 0.0
Cd16 Cd 0.33138 0.54299 0.75088 0.0
O17 O 0.2549 0.51884 0.71932 0.0
Cd18 Cd 0.25226 0.47906 0.75668 0.0
C19 C 0.311 0.46247 0.72446 0.0
O20 O 0.28886 0.52698 0.78695 0.0
O21 O 0.27402 0.47573 0.80322 0.0
O22 O 0.19476 0.47271 0.76383 0.0
C23 C 0.28947 0.50867 0.80691 0.0
O24 O 0.33434 0.49363 0.73087 0.0
C25 C 0.17828 0.4395 0.76597 0.0
O26 O 0.27878 0.45091 0.73036 0.0
O27 O 0.1963 0.42421 0.76365 0.0
C28 C 0.71755 0.28189 0.86862 0.0
O29 O 0.7341 0.31378 0.87622 0.0
Cd30 Cd 0.78268 0.33568 0.90753 0.0
O31 O 0.72515 0.2596 0.87857 0.0
Cd32 Cd 0.76397 0.25596 0.91402 0.0
C33 C 0.83635 0.30898 0.87676 0.0
O34 O 0.75958 0.29599 0.94566 0.0
O35 O 0.79637 0.27936 0.95784 0.0
O36 O 0.71221 0.20115 0.92626 0.0
C37 C 0.78085 0.29641 0.96355 0.0
O38 O 0.83084 0.33389 0.88341 0.0
C39 C 0.72728 0.18286 0.92643 0.0
O40 O 0.81523 0.27759 0.88432 0.0
O41 O 0.75987 0.1986 0.92055 0.0
C42 C 0.44071 0.72592 0.04139 0.0
O43 O 0.42441 0.74131 0.04982 0.0
Cd44 Cd 0.44795 0.78835 0.08234 0.0
O45 O 0.47112 0.73424 0.05073 0.0
Cd46 Cd 0.51407 0.77336 0.08583 0.0
C47 C 0.5267 0.84579 0.05084 0.0
O48 O 0.46794 0.76395 0.11695 0.0
O49 O 0.51971 0.79923 0.1327 0.0
O50 O 0.5221 0.7232 0.09264 0.0
C51 C 0.48671 0.78299 0.13656 0.0
O52 O 0.4959 0.83839 0.05835 0.0
C53 C 0.55544 0.74057 0.094 0.0
O54 O 0.53906 0.82593 0.05733 0.0
O55 O 0.56995 0.7737 0.0913 0.0
C56 C 0.71899 0.44383 0.1959 0.0
O57 O 0.68591 0.4281 0.19967 0.0
Cd58 Cd 0.65839 0.44829 0.2318 0.0
O59 O 0.73925 0.47147 0.2095 0.0
Cd60 Cd 0.73678 0.50936 0.24603 0.0
C61 C 0.68653 0.53144 0.20686 0.0
O62 O 0.69332 0.46011 0.27262 0.0
O63 O 0.70902 0.51129 0.28962 0.0
O64 O 0.79105 0.5122 0.26022 0.0
C65 C 0.69127 0.47817 0.29213 0.0
O66 O 0.66146 0.50025 0.21083 0.0
C67 C 0.80848 0.54527 0.26322 0.0
O68 O 0.71712 0.54135 0.21645 0.0
O69 O 0.79253 0.56215 0.25803 0.0
C70 C 0.26789 0.71028 0.37177 0.0
O71 O 0.25242 0.67854 0.37989 0.0
Cd72 Cd 0.20721 0.65595 0.41404 0.0
O73 O 0.26037 0.73238 0.38219 0.0
Cd74 Cd 0.22264 0.73522 0.41913 0.0
C75 C 0.14797 0.67726 0.38613 0.0
O76 O 0.23358 0.69865 0.44978 0.0
O77 O 0.19636 0.71279 0.46541 0.0
O78 O 0.27292 0.79289 0.42704 0.0
C79 C 0.2142 0.69765 0.46945 0.0
O80 O 0.1554 0.65361 0.39276 0.0
C81 C 0.25552 0.80881 0.42887 0.0
O82 O 0.16871 0.70928 0.39223 0.0
O83 O 0.22236 0.79043 0.42593 0.0
H84 H 0.38895 0.12311 0.53164 0.0
H85 H 0.34999 0.06946 0.50609 0.0
H86 H 0.43385 0.04525 0.49996 0.0
H87 H 0.47298 0.09874 0.5252 0.0
H88 H 0.39844 0.03462 0.45105 0.0
H89 H 0.37076 0.00607 0.54814 0.0
H90 H 0.35202 0.01372 0.59439 0.0
H91 H 0.25414 -0.00291 0.56074 0.0
H92 H 0.27253 0.98979 0.5142 0.0
H93 H 0.32572 0.85345 0.43539 0.0
H94 H 0.3549 0.9149 0.44913 0.0
H95 H 0.25488 0.91175 0.45031 0.0
H96 H 0.22522 0.84968 0.4369 0.0
H97 H 0.29137 0.94041 0.49651 0.0
H98 H 0.31538 0.95868 0.40048 0.0
H99 H 0.33404 0.94971 0.35464 0.0
H100 H 0.43826 0.98515 0.3856 0.0
H101 H 0.42014 0.99389 0.43175 0.0
C102 C 0.39913 0.10641 0.52479 0.0
C103 C 0.43404 0.11511 0.5306 0.0
C104 C 0.37683 0.07579 0.51022 0.0
C105 C 0.38905 0.05338 0.50127 0.0
C106 C 0.42398 0.0623 0.50662 0.0
C107 C 0.44624 0.09279 0.52121 0.0
C108 C 0.36536 0.01993 0.48711 0.0
C109 C 0.37505 0.01394 0.46095 0.0
C110 C 0.33425 0.99351 0.49971 0.0
C111 C 0.3232 -0.00216 0.52766 0.0
C112 C 0.34537 0.00435 0.55057 0.0
C113 C 0.33479 0.00856 0.57684 0.0
C114 C 0.30196 0.00601 0.58048 0.0
C115 C 0.2796 -0.00086 0.55787 0.0
C116 C 0.29008 0.99495 0.53155 0.0
C117 C 0.3099 0.86586 0.43828 0.0
C118 C 0.27316 0.84671 0.43514 0.0
C119 C 0.32667 0.9011 0.44595 0.0
C120 C 0.30711 0.91803 0.45039 0.0
C121 C 0.27044 0.89918 0.44684 0.0
C122 C 0.25358 0.86379 0.43916 0.0
C123 C 0.325 0.95461 0.46073 0.0
C124 C 0.31425 0.96128 0.48621 0.0
C125 C 0.35513 0.98165 0.44747 0.0
C126 C 0.36632 0.97677 0.41965 0.0
C127 C 0.34223 0.96437 0.39758 0.0
C128 C 0.35272 0.95935 0.37152 0.0
C129 C 0.3873 0.9668 0.36722 0.0
C130 C 0.41149 0.97939 0.38896 0.0
C131 C 0.40113 0.98445 0.41506 0.0
H132 H 0.39536 0.96287 0.34704 0.0
H133 H 0.29381 0.00927 0.60084 0.0
H134 H 0.47191 0.32929 0.60097 0.0
H135 H 0.44492 0.36093 0.62137 0.0
H136 H 0.34527 0.26464 0.62606 0.0
H137 H 0.3721 0.23257 0.60543 0.0
H138 H 0.33964 0.32386 0.60986 0.0
H139 H 0.39241 0.28993 0.68165 0.0
H140 H 0.44013 0.28442 0.70386 0.0
H141 H 0.50513 0.39671 0.70533 0.0
H142 H 0.45798 0.40289 0.68273 0.0
H143 H 0.26937 0.39372 0.7089 0.0
H144 H 0.2876 0.35646 0.68479 0.0
H145 H 0.39454 0.44257 0.68229 0.0
H146 H 0.37678 0.47974 0.70668 0.0
H147 H 0.39235 0.38362 0.69857 0.0
H148 H 0.34156 0.41809 0.62512 0.0
H149 H 0.2949 0.4245 0.60195 0.0
H150 H 0.22708 0.31255 0.60298 0.0
H151 H 0.2732 0.30551 0.62652 0.0
C152 C 0.44414 0.31484 0.606 0.0
C153 C 0.42419 0.27836 0.60188 0.0
C154 C 0.4288 0.33297 0.61768 0.0
C155 C 0.3933 0.31496 0.62559 0.0
C156 C 0.37276 0.2789 0.62017 0.0
C157 C 0.38814 0.26065 0.60846 0.0
C158 C 0.37853 0.33363 0.64106 0.0
C159 C 0.35072 0.3365 0.62947 0.0
C160 C 0.39346 0.35046 0.66641 0.0
C161 C 0.42175 0.34685 0.68029 0.0
C162 C 0.41697 0.31344 0.68653 0.0
C163 C 0.44391 0.3102 0.69921 0.0
C164 C 0.47567 0.3402 0.70595 0.0
C165 C 0.48053 0.3735 0.70008 0.0
C166 C 0.45369 0.37689 0.68736 0.0
C167 C 0.29676 0.40474 0.70319 0.0
C168 C 0.32162 0.43971 0.70974 0.0
C169 C 0.30709 0.38345 0.68931 0.0
C170 C 0.34236 0.39686 0.68156 0.0
C171 C 0.36718 0.4317 0.68811 0.0
C172 C 0.35694 0.45293 0.70203 0.0
C173 C 0.35385 0.37457 0.66715 0.0
C174 C 0.38104 0.37085 0.67904 0.0
C175 C 0.3384 0.35712 0.64207 0.0
C176 C 0.31068 0.3613 0.62787 0.0
C177 C 0.31659 0.39486 0.62062 0.0
C178 C 0.29026 0.3986 0.60738 0.0
C179 C 0.25801 0.36896 0.60107 0.0
C180 C 0.25206 0.33549 0.60793 0.0
C181 C 0.27828 0.33161 0.6212 0.0
H182 H 0.23767 0.37191 0.59082 0.0
H183 H 0.49648 0.33764 0.7158 0.0
H184 H 0.85926 0.26354 0.86179 0.0
H185 H 0.91326 0.27749 0.83692 0.0
H186 H 0.93913 0.38576 0.83042 0.0
H187 H 0.88521 0.37212 0.85499 0.0
H188 H 0.95196 0.36143 0.78223 0.0
H189 H 0.97549 0.36043 0.88024 0.0
H190 H 0.96504 0.33337 0.92648 0.0
H191 H 0.98157 0.25158 0.89442 0.0
H192 H 0.99168 0.27796 0.84788 0.0
H193 H 0.13453 0.46644 0.77104 0.0
H194 H 0.07244 0.43542 0.78338 0.0
H195 H 0.07315 0.33752 0.78614 0.0
H196 H 0.13587 0.36868 0.77414 0.0
H197 H 0.04284 0.34578 0.83115 0.0
H198 H 0.02941 0.35295 0.73452 0.0
H199 H 0.04072 0.38076 0.68857 0.0
H200 H 0.0055 0.45059 0.71722 0.0
H201 H 0.99446 0.42356 0.76348 0.0
C202 C 0.87631 0.29029 0.85491 0.0
C203 C 0.86805 0.31679 0.86057 0.0
C204 C 0.90715 0.29818 0.84073 0.0
C205 C 0.93027 0.33269 0.83205 0.0
C206 C 0.92158 0.35894 0.83693 0.0
C207 C 0.89083 0.35112 0.85111 0.0
C208 C 0.96436 0.34211 0.81899 0.0
C209 C 0.97193 0.35814 0.79289 0.0
C210 C 0.98987 0.33668 0.83258 0.0
C211 C 0.9839 0.3209 0.86055 0.0
C212 C 0.97661 0.33652 0.88302 0.0
C213 C 0.9708 0.32134 0.90928 0.0
C214 C 0.97252 0.29071 0.91337 0.0
C215 C 0.98016 0.27526 0.89121 0.0
C216 C 0.98595 0.29031 0.86489 0.0
C217 C 0.12147 0.43825 0.77401 0.0
C218 C 0.14011 0.42 0.77168 0.0
C219 C 0.08587 0.4205 0.78087 0.0
C220 C 0.06804 0.38408 0.78531 0.0
C221 C 0.08641 0.36562 0.78265 0.0
C222 C 0.12218 0.38343 0.77578 0.0
C223 C 0.03092 0.36609 0.79465 0.0
C224 C 0.02271 0.34843 0.82009 0.0
C225 C 0.00483 0.37001 0.78041 0.0
C226 C 0.01128 0.38631 0.75255 0.0
C227 C 0.0243 0.37439 0.73109 0.0
C228 C 0.03063 0.39 0.70497 0.0
C229 C 0.02387 0.41745 0.69998 0.0
C230 C 0.01071 0.42931 0.72111 0.0
C231 C 0.00436 0.41381 0.74728 0.0
H232 H 0.0288 0.42951 0.67975 0.0
H233 H 0.96803 0.27899 0.93372 0.0
H234 H 0.59231 0.86859 0.02913 0.0
H235 H 0.6282 0.92214 0.0025 0.0
H236 H 0.54628 0.94912 0.00868 0.0
H237 H 0.50998 0.89546 0.03489 0.0
H238 H 0.57383 0.96125 0.95731 0.0
H239 H 0.61772 0.98635 0.05115 0.0
H240 H 0.64233 0.97646 0.09386 0.0
H241 H 0.73219 0.98886 0.04879 0.0
H242 H 0.70785 -0.00161 0.00572 0.0
H243 H 0.65826 0.14413 0.94082 0.0
H244 H 0.62662 0.08321 0.95615 0.0
H245 H 0.72008 0.07534 0.94445 0.0
H246 H 0.75232 0.13687 0.92949 0.0
H247 H 0.69071 0.04995 0.99365 0.0
H248 H 0.64989 0.03324 0.90064 0.0
H249 H 0.62537 0.04505 0.85875 0.0
H250 H 0.52979 0.01797 0.90221 0.0
H251 H 0.5539 0.00647 0.94449 0.0
C252 C 0.58186 0.88586 0.02478 0.0
C253 C 0.54835 0.87785 0.03432 0.0
C254 C 0.60244 0.91646 0.00957 0.0
C255 C 0.59001 0.93973 0.00385 0.0
C256 C 0.55633 0.93146 0.01284 0.0
C257 C 0.53569 0.90085 0.02795 0.0
C258 C 0.6124 0.97332 0.98929 0.0
C259 C 0.59932 0.98075 0.96528 0.0
C260 C 0.64608 -0.00173 -0.0007 0.0
C261 C 0.66077 0.99266 0.02518 0.0
C262 C 0.64259 0.98669 0.05032 0.0
C263 C 0.65651 0.9812 0.07459 0.0
C264 C 0.68875 0.98192 0.07402 0.0
C265 C 0.70719 0.98824 0.04919 0.0
C266 C 0.69335 0.9937 0.02485 0.0
C267 C 0.67207 0.12941 0.94125 0.0
C268 C 0.70781 0.1453 0.93398 0.0
C269 C 0.65386 0.09448 0.94986 0.0
C270 C 0.67087 0.0746 0.95107 0.0
C271 C 0.70645 0.09022 0.94352 0.0
C272 C 0.72478 0.1253 0.93496 0.0
C273 C 0.65185 0.03825 0.96195 0.0
C274 C 0.66553 0.03025 0.9853 0.0
C275 C 0.61869 0.01285 0.95135 0.0
C276 C 0.60382 0.01918 0.92581 0.0
C277 C 0.62371 0.02998 0.90132 0.0
C278 C 0.60988 0.03661 0.8775 0.0
C279 C 0.57607 0.03233 0.87783 0.0
C280 C 0.55598 0.02128 0.90198 0.0
C281 C 0.56969 0.01465 0.92587 0.0
H282 H 0.56543 0.03753 0.85938 0.0
H283 H 0.69949 0.97767 0.09283 0.0
H284 H 0.73281 0.60062 0.19475 0.0
H285 H 0.72052 0.64158 0.1693 0.0
H286 H 0.61289 0.55952 0.15769 0.0
H287 H 0.62492 0.51843 0.18266 0.0
H288 H 0.63966 0.59752 0.11096 0.0
H289 H 0.63548 0.62025 0.20882 0.0
H290 H 0.6603 0.63626 0.25579 0.0
H291 H 0.74335 0.7349 0.22548 0.0
H292 H 0.71922 0.71924 0.17824 0.0
H293 H 0.53056 0.67034 0.09856 0.0
H294 H 0.56324 0.64089 0.11103 0.0
H295 H 0.65943 0.74083 0.11437 0.0
H296 H 0.6266 0.77075 0.10218 0.0
H297 H 0.65124 0.70209 0.15969 0.0
H298 H 0.64735 0.68304 0.06297 0.0
H299 H 0.62039 0.66678 0.01671 0.0
H300 H 0.55154 0.56133 0.04461 0.0
H301 H 0.57774 0.57703 0.09115 0.0
C302 C 0.70657 0.59126 0.18667 0.0
C303 C 0.67978 0.55629 0.19091 0.0
C304 C 0.69961 0.61471 0.17215 0.0
C305 C 0.66574 0.60361 0.16178 0.0
C306 C 0.63924 0.56858 0.16545 0.0
C307 C 0.64614 0.54517 0.17989 0.0
C308 C 0.65704 0.62852 0.14809 0.0
C309 C 0.64215 0.6204 0.12157 0.0
C310 C 0.6614 0.65898 0.16161 0.0
C311 C 0.67583 0.6684 0.18998 0.0
C312 C 0.6592 0.64522 0.21215 0.0
C313 C 0.6731 0.65425 0.23881 0.0
C314 C 0.70345 0.68652 0.2436 0.0
C315 C 0.71989 0.70988 0.22173 0.0
C316 C 0.70612 0.70095 0.19501 0.0
C317 C 0.55873 0.68611 0.10165 0.0
C318 C 0.57601 0.72289 0.09946 0.0
C319 C 0.57743 0.66919 0.10859 0.0
C320 C 0.61385 0.68863 0.11327 0.0
C321 C 0.63136 0.72535 0.11068 0.0
C322 C 0.6126 0.74237 0.10369 0.0
C323 C 0.6327 0.67043 0.12291 0.0
C324 C 0.64954 0.67979 0.14869 0.0
C325 C 0.63004 0.64105 0.10871 0.0
C326 C 0.61445 0.63129 0.08062 0.0
C327 C 0.62633 0.65643 0.05929 0.0
C328 C 0.61119 0.6473 0.03301 0.0
C329 C 0.58424 0.61306 0.02774 0.0
C330 C 0.57244 0.58784 0.04872 0.0
C331 C 0.58748 0.59682 0.07505 0.0
H332 H 0.57252 0.60606 0.00738 0.0
H333 H 0.71417 0.69347 0.26426 0.0
H334 H 0.0983 0.61186 0.36873 0.0
H335 H 0.04353 0.59546 0.34434 0.0
H336 H 0.06777 0.7035 0.34491 0.0
H337 H 0.1226 0.72022 0.36965 0.0
H338 H 0.00021 0.65901 0.36004 0.0
H339 H 0.07589 0.66792 0.28589 0.0
H340 H 0.11881 0.65712 0.26126 0.0
H341 H 0.04482 0.54643 0.26026 0.0
H342 H 0.00161 0.55649 0.28524 0.0
H343 H 0.85285 0.61559 0.27202 0.0
H344 H 0.91344 0.64382 0.28939 0.0
H345 H 0.90747 0.54281 0.29379 0.0
H346 H 0.84744 0.51461 0.27611 0.0
H347 H 0.96913 0.59137 0.27255 0.0
H348 H 0.89671 0.58175 0.3512 0.0
H349 H 0.85382 0.59172 0.37678 0.0
H350 H 0.92189 0.70326 0.36973 0.0
H351 H 0.965 0.69393 0.34378 0.0
C352 C 0.0921 0.63221 0.36364 0.0
C353 C 0.11489 0.66737 0.37111 0.0
C354 C 0.06085 0.6228 0.34956 0.0
C355 C 0.05185 0.64836 0.34251 0.0
C356 C 0.07435 0.68343 0.35008 0.0
C357 C 0.10567 0.69291 0.36417 0.0
C358 C 0.0184 0.63806 0.32791 0.0
C359 C 0.99364 0.64483 0.34062 0.0
C360 C 0.00974 0.61912 0.3028 0.0
C361 C 0.03559 0.61296 0.28761 0.0
C362 C 0.06885 0.64124 0.28059 0.0
C363 C 0.09322 0.63526 0.26654 0.0
C364 C 0.08457 0.6011 0.25924 0.0
C365 C 0.05149 0.57287 0.26593 0.0
C366 C 0.02703 0.57871 0.28 0.0
C367 C 0.86456 0.59947 0.27658 0.0
C368 C 0.84536 0.56288 0.27282 0.0
C369 C 0.89909 0.61561 0.28656 0.0
C370 C 0.9148 0.59534 0.2931 0.0
C371 C 0.89587 0.55894 0.28883 0.0
C372 C 0.86149 0.54285 0.27882 0.0
C373 C 0.95066 0.61162 0.30501 0.0
C374 C 0.9759 0.606 0.29176 0.0
C375 C 0.95972 0.63153 0.32966 0.0
C376 C 0.93386 0.63714 0.34527 0.0
C377 C 0.90239 0.6084 0.35491 0.0
C378 C 0.87807 0.61393 0.36951 0.0
C379 C 0.88507 0.6481 0.3748 0.0
C380 C 0.91646 0.67681 0.36557 0.0
C381 C 0.94085 0.67142 0.35093 0.0
H382 H 0.86621 0.65233 0.38611 0.0
H383 H 0.10348 0.59652 0.24837 0.0
H384 H 0.61486 0.29819 0.51364 0.0
H385 H 0.64036 0.34118 0.4764 0.0
H386 H 0.53907 0.33213 0.46102 0.0
H387 H 0.51374 0.29016 0.49904 0.0
H388 H 0.6284 0.33343 0.42506 0.0
H389 H 0.54791 0.40611 0.43184 0.0
H390 H 0.52095 0.42528 0.4675 0.0
H391 H 0.59367 0.42698 0.52787 0.0
H392 H 0.62137 0.4083 0.49251 0.0
H393 H 0.63957 0.41044 0.29825 0.0
H394 H 0.61386 0.37937 0.34136 0.0
H395 H 0.67514 0.47547 0.38698 0.0
H396 H 0.70022 0.50708 0.34361 0.0
H397 H 0.61156 0.43605 0.41047 0.0
H398 H 0.70541 0.41896 0.38005 0.0
H399 H 0.73889 0.40427 0.347 0.0
H400 H 0.65149 0.29934 0.3398 0.0
H401 H 0.61728 0.31356 0.37252 0.0
C402 C 0.59807 0.30555 0.50245 0.0
C403 C 0.56228 0.29074 0.50918 0.0
C404 C 0.61269 0.33015 0.48119 0.0
C405 C 0.59174 0.34014 0.46602 0.0
C406 C 0.55597 0.32546 0.47279 0.0
C407 C 0.54145 0.30126 0.49439 0.0
C408 C 0.60684 0.36409 0.44201 0.0
C409 C 0.62478 0.35592 0.42201 0.0
C410 C 0.60276 0.39388 0.43819 0.0
C411 C 0.58649 0.40548 0.45955 0.0
C412 C 0.55824 0.41072 0.4527 0.0
C413 C 0.54281 0.42147 0.47287 0.0
C414 C 0.55551 0.42723 0.49995 0.0
C415 C 0.58376 0.42237 0.50691 0.0
C416 C 0.5993 0.41165 0.48681 0.0
C417 C 0.64714 0.42508 0.31742 0.0
C418 C 0.67224 0.46102 0.31769 0.0
C419 C 0.63249 0.4073 0.34202 0.0
C420 C 0.64327 0.42497 0.36738 0.0
C421 C 0.66664 0.46135 0.36761 0.0
C422 C 0.68097 0.47933 0.34287 0.0
C423 C 0.63229 0.40476 0.3935 0.0
C424 C 0.6152 0.41361 0.41376 0.0
C425 C 0.63811 0.3762 0.39809 0.0
C426 C 0.65869 0.36742 0.37857 0.0
C427 C 0.69325 0.39282 0.37129 0.0
C428 C 0.71236 0.38457 0.35263 0.0
C429 C 0.6973 0.35091 0.34126 0.0
C430 C 0.66311 0.32541 0.3486 0.0
C431 C 0.64386 0.33354 0.36722 0.0
H432 H 0.71214 0.34458 0.32682 0.0
H433 H 0.54351 0.43553 0.51554 0.0
H434 H 0.17941 0.69478 0.51742 0.0
H435 H 0.18005 0.6662 0.56095 0.0
H436 H 0.24639 0.63118 0.52324 0.0
H437 H 0.24556 0.65902 0.48002 0.0
H438 H 0.19628 0.58014 0.55397 0.0
H439 H 0.28114 0.70476 0.56281 0.0
H440 H 0.29916 0.7677 0.56362 0.0
H441 H 0.22709 0.74906 0.63009 0.0
H442 H 0.20834 0.68589 0.62943 0.0
H443 H 0.31627 0.60698 0.67723 0.0
H444 H 0.29638 0.63039 0.63997 0.0
H445 H 0.18982 0.54591 0.65144 0.0
H446 H 0.20953 0.5219 0.68852 0.0
H447 H 0.25039 0.65416 0.63683 0.0
H448 H 0.15166 0.52256 0.58725 0.0
H449 H 0.13976 0.46144 0.58446 0.0
H450 H 0.24963 0.49708 0.59633 0.0
H451 H 0.26219 0.55838 0.59884 0.0
C452 C 0.19384 0.6807 0.51844 0.0
C453 C 0.2126 0.67929 0.49541 0.0
C454 C 0.19422 0.66448 0.54326 0.0
C455 C 0.2134 0.64673 0.54529 0.0
C456 C 0.23129 0.64458 0.52207 0.0
C457 C 0.23096 0.66072 0.49742 0.0
C458 C 0.21666 0.63165 0.57171 0.0
C459 C 0.20761 0.59618 0.57225 0.0
C460 C 0.23174 0.65268 0.59542 0.0
C461 C 0.24303 0.6906 0.59584 0.0
C462 C 0.26894 0.71406 0.57744 0.0
C463 C 0.27933 0.74977 0.5779 0.0
C464 C 0.26419 0.76235 0.59683 0.0
C465 C 0.23872 0.73926 0.61539 0.0
C466 C 0.22822 0.70352 0.61499 0.0
C467 C 0.28858 0.59338 0.67191 0.0
C468 C 0.26455 0.56237 0.68567 0.0
C469 C 0.27722 0.60695 0.65074 0.0
C470 C 0.24169 0.58978 0.64288 0.0
C471 C 0.21743 0.55935 0.65704 0.0
C472 C 0.22878 0.54567 0.67818 0.0
C473 C 0.23069 0.60285 0.61885 0.0
C474 C 0.23817 0.63788 0.61883 0.0
C475 C 0.21488 0.58163 0.59535 0.0
C476 C 0.20774 0.54494 0.5936 0.0
C477 C 0.17325 0.51731 0.58921 0.0
C478 C 0.1664 0.48266 0.58768 0.0
C479 C 0.1939 0.47537 0.59033 0.0
C480 C 0.22833 0.50274 0.5944 0.0
C481 C 0.23532 0.53743 0.59591 0.0
H482 H 0.18854 0.44853 0.58916 0.0
H483 H 0.27227 0.79 0.59716 0.0
H484 H 0.67559 0.31024 0.85922 0.0
H485 H 0.62868 0.29182 0.82496 0.0
H486 H 0.6495 0.21056 0.79694 0.0
H487 H 0.69489 0.22759 0.83229 0.0
H488 H 0.63212 0.29536 0.77401 0.0
H489 H 0.58149 0.14462 0.76542 0.0
H490 H 0.57002 0.09527 0.79627 0.0
H491 H 0.55796 0.15002 0.86501 0.0
H492 H 0.56887 0.19949 0.83453 0.0
H493 H 0.57519 0.23812 0.64238 0.0
H494 H 0.60168 0.24435 0.68776 0.0
H495 H 0.4986 0.19101 0.72503 0.0
H496 H 0.4716 0.18421 0.67927 0.0
H497 H 0.54493 0.17249 0.74911 0.0
H498 H 0.54084 0.27577 0.72886 0.0
H499 H 0.54748 0.32549 0.7006 0.0
H500 H 0.65906 0.36624 0.69612 0.0
H501 H 0.65303 0.31642 0.72397 0.0
C502 C 0.66983 0.2882 0.84591 0.0
C503 C 0.68886 0.27037 0.8483 0.0
C504 C 0.64299 0.27764 0.82638 0.0
C505 C 0.63515 0.24949 0.8085 0.0
C506 C 0.65421 0.23165 0.81096 0.0
C507 C 0.68044 0.24164 0.83098 0.0
C508 C 0.6094 0.24088 0.78573 0.0
C509 C 0.61283 0.26847 0.76887 0.0
C510 C 0.58346 0.20588 0.77926 0.0
C511 C 0.57624 0.17591 0.79767 0.0
C512 C 0.57617 0.14605 0.78708 0.0
C513 C 0.56982 0.11807 0.80452 0.0
C514 C 0.56335 0.11955 0.8326 0.0
C515 C 0.56309 0.14896 0.84328 0.0
C516 C 0.5694 0.177 0.82593 0.0
C517 C 0.55806 0.22735 0.66015 0.0
C518 C 0.52134 0.21107 0.65735 0.0
C519 C 0.57325 0.23096 0.68606 0.0
C520 C 0.55208 0.21872 0.70973 0.0
C521 C 0.51532 0.20075 0.70696 0.0
C522 C 0.49999 0.19696 0.68087 0.0
C523 C 0.56896 0.22686 0.73723 0.0
C524 C 0.56383 0.19929 0.75481 0.0
C525 C 0.59252 0.26196 0.74499 0.0
C526 C 0.59643 0.29221 0.72839 0.0
C527 C 0.56677 0.2952 0.7217 0.0
C528 C 0.57042 0.32342 0.70577 0.0
C529 C 0.60366 0.34899 0.69655 0.0
C530 C 0.63333 0.34641 0.70328 0.0
C531 C 0.62981 0.3182 0.71917 0.0
H532 H 0.60644 0.37082 0.68422 0.0
H533 H 0.55851 0.09788 0.84607 0.0
H534 H 0.28573 0.47678 0.85661 0.0
H535 H 0.30932 0.50599 0.90112 0.0
H536 H 0.35514 0.60694 0.86073 0.0
H537 H 0.33145 0.57826 0.81662 0.0
H538 H 0.37595 0.55342 0.92151 0.0
H539 H 0.33805 0.66037 0.89787 0.0
H540 H 0.29261 0.66594 0.87186 0.0
H541 H 0.2219 0.55497 0.87966 0.0
H542 H 0.26669 0.54881 0.90607 0.0
H543 H 0.47256 0.70498 0.00355 0.0
H544 H 0.44405 0.65967 0.96822 0.0
H545 H 0.34213 0.63586 -0.00069 0.0
H546 H 0.37059 0.68248 0.03354 0.0
H547 H 0.34066 0.64058 0.94825 0.0
H548 H 0.37802 0.57853 0.00687 0.0
H549 H 0.4192 0.56894 0.03534 0.0
H550 H 0.48233 0.58177 0.96379 0.0
H551 H 0.4418 0.59192 0.93493 0.0
C552 C 0.30116 0.50518 0.85726 0.0
C553 C 0.30635 0.52529 0.83327 0.0
C554 C 0.31466 0.52177 0.88262 0.0
C555 C 0.33341 0.55857 0.88418 0.0
C556 C 0.34018 0.5785 0.85998 0.0
C557 C 0.32662 0.56206 0.8348 0.0
C558 C 0.34432 0.57673 0.91108 0.0
C559 C 0.36816 0.57234 0.9276 0.0
C560 C 0.33318 0.60052 0.9193 0.0
C561 C 0.30586 0.60412 0.90378 0.0
C562 C 0.31274 0.63719 0.89417 0.0
C563 C 0.2871 0.64044 0.87933 0.0
C564 C 0.25442 0.61082 0.87405 0.0
C565 C 0.24726 0.57788 0.88368 0.0
C566 C 0.27278 0.57449 0.89856 0.0
C567 C 0.44408 0.68989 0.00288 0.0
C568 C 0.42374 0.69739 0.02104 0.0
C569 C 0.42778 0.66375 0.98288 0.0
C570 C 0.39088 0.64394 0.98129 0.0
C571 C 0.37062 0.65081 4e-05 0.0
C572 C 0.38689 0.6775 0.01955 0.0
C573 C 0.37339 0.61831 0.95861 0.0
C574 C 0.34823 0.62134 0.94269 0.0
C575 C 0.38262 0.59261 0.95152 0.0
C576 C 0.40695 0.58621 0.96876 0.0
C577 C 0.4008 0.57952 -0.00278 0.0
C578 C 0.42401 0.57395 0.01344 0.0
C579 C 0.4534 0.57481 0.0014 0.0
C580 C 0.45956 0.58112 0.9731 0.0
C581 C 0.43644 0.58673 0.95679 0.0
H582 H 0.47136 0.57053 0.01399 0.0
H583 H 0.23463 0.61339 0.86254 0.0
H584 H 0.7582 0.3419 0.97653 0.0
H585 H 0.76372 0.37088 0.02051 0.0
H586 H 0.82184 0.32372 0.05396 0.0
H587 H 0.81621 0.29418 0.00963 0.0
H588 H 0.76903 0.31517 0.0879 0.0
H589 H 0.86476 0.41053 0.04397 0.0
H590 H 0.89758 0.45217 0.0065 0.0
H591 H 0.82577 0.49195 0.00887 0.0
H592 H 0.79217 0.4502 0.04607 0.0
H593 H 0.78855 0.46995 0.18328 0.0
H594 H 0.81347 0.44696 0.14959 0.0
H595 H 0.70909 0.36347 0.12934 0.0
H596 H 0.68401 0.38586 0.16313 0.0
H597 H 0.80465 0.44128 0.09566 0.0
H598 H 0.70958 0.29061 0.11167 0.0
H599 H 0.68006 0.24961 0.15025 0.0
H600 H 0.75834 0.32191 0.20656 0.0
H601 H 0.78866 0.36314 0.16827 0.0
C602 C 0.77247 0.3379 0.99311 0.0
C603 C 0.78668 0.31569 0.9897 0.0
C604 C 0.77584 0.35472 0.01819 0.0
C605 C 0.79356 0.34979 0.04036 0.0
C606 C 0.80827 0.328 0.03699 0.0
C607 C 0.80507 0.31123 0.01171 0.0
C608 C 0.79393 0.36544 0.06746 0.0
C609 C 0.77726 0.34282 0.08981 0.0
C610 C 0.80567 0.40171 0.07012 0.0
C611 C 0.82587 0.42712 0.04782 0.0
C612 C 0.85583 0.42801 0.03641 0.0
C613 C 0.87459 0.45166 0.01522 0.0
C614 C 0.86376 0.47468 0.00531 0.0
C615 C 0.83416 0.47413 0.0166 0.0
C616 C 0.81528 0.45052 0.03778 0.0
C617 C 0.7709 0.44654 0.17178 0.0
C618 C 0.73425 0.42976 0.17584 0.0
C619 C 0.78522 0.43345 0.15259 0.0
C620 C 0.7632 0.40325 0.13726 0.0
C621 C 0.72666 0.38638 0.14138 0.0
C622 C 0.71232 0.3994 0.16055 0.0
C623 C 0.77781 0.3906 0.11547 0.0
C624 C 0.79728 0.41381 0.09411 0.0
C625 C 0.76922 0.35501 0.11395 0.0
C626 C 0.75132 0.33007 0.13706 0.0
C627 C 0.72065 0.29769 0.13224 0.0
C628 C 0.70373 0.27442 0.15408 0.0
C629 C 0.71728 0.28317 0.18084 0.0
C630 C 0.74782 0.31519 0.18582 0.0
C631 C 0.76486 0.33855 0.16406 0.0
H632 H 0.70412 0.26513 0.19772 0.0
H633 H 0.87832 0.49296 0.98889 0.0
H634 H 0.30667 0.67959 0.35848 0.0
H635 H 0.3525 0.69832 0.32342 0.0
H636 H 0.33685 0.78499 0.30157 0.0
H637 H 0.29209 0.76727 0.3376 0.0
H638 H 0.34732 0.6992 0.27185 0.0
H639 H 0.4091 0.85137 0.27233 0.0
H640 H 0.42296 0.89879 0.30582 0.0
H641 H 0.42828 0.8352 0.37107 0.0
H642 H 0.41492 0.78758 0.33792 0.0
H643 H 0.41859 0.76461 0.14454 0.0
H644 H 0.38887 0.75884 0.18832 0.0
H645 H 0.48745 0.79786 0.23167 0.0
H646 H 0.51777 0.8044 0.18748 0.0
H647 H 0.44386 0.82102 0.25477 0.0
H648 H 0.43698 0.71312 0.22881 0.0
H649 H 0.42649 0.66472 0.19737 0.0
H650 H 0.31832 0.63765 0.18864 0.0
H651 H 0.3283 0.68625 0.2197 0.0
C652 C 0.31317 0.70278 0.34632 0.0
C653 C 0.29572 0.72189 0.35065 0.0
C654 C 0.33944 0.71352 0.32634 0.0
C655 C 0.34843 0.74328 0.31 0.0
C656 C 0.33104 0.76246 0.31435 0.0
C657 C 0.30522 0.75212 0.33475 0.0
C658 C 0.37393 0.75245 0.28703 0.0
C659 C 0.36856 0.72583 0.26835 0.0
C660 C 0.40212 0.78706 0.2826 0.0
C661 C 0.41073 0.81579 0.30264 0.0
C662 C 0.41342 0.84757 0.29379 0.0
C663 C 0.42114 0.87447 0.31273 0.0
C664 C 0.4264 0.86997 0.34057 0.0
C665 C 0.42408 0.83861 0.34951 0.0
C666 C 0.41638 0.81163 0.33066 0.0
C667 C 0.43409 0.77245 0.16333 0.0
C668 C 0.47038 0.78442 0.16272 0.0
C669 C 0.41708 0.76916 0.18831 0.0
C670 C 0.43589 0.77725 0.21319 0.0
C671 C 0.47252 0.79135 0.21262 0.0
C672 C 0.48974 0.79499 0.18745 0.0
C673 C 0.4164 0.76793 0.23959 0.0
C674 C 0.42285 0.79442 0.25871 0.0
C675 C 0.38972 0.73299 0.24495 0.0
C676 C 0.38347 0.70349 0.22645 0.0
C677 C 0.41102 0.69699 0.22004 0.0
C678 C 0.40516 0.66951 0.2023 0.0
C679 C 0.37178 0.64816 0.19098 0.0
C680 C 0.34417 0.65422 0.19742 0.0
C681 C 0.3499 0.6817 0.21512 0.0
H682 H 0.36729 0.6269 0.17725 0.0
H683 H 0.43233 0.89082 0.3552 0.0
loop_
_geom_bond_atom_site_label_1
_geom_bond_atom_site_label_2
_geom_bond_distance
_geom_bond_site_symmetry_2
_ccdc_geom_bond_type
C0 O1 1.306 . S
C0 O3 1.160 . S
O1 C0 1.306 . S
O1 Cd2 2.228 . S
Cd2 O1 2.228 . S
Cd2 O6 2.273 . S
Cd2 O10 2.277 . S
O3 C0 1.160 . S
O3 Cd4 2.203 . S
Cd4 O3 2.203 . S
Cd4 O6 2.411 . S
Cd4 O7 2.333 . S
Cd4 O8 2.352 . S
Cd4 O12 2.277 . S
Cd4 O13 2.356 . S
C5 O10 1.209 . S
C5 O12 1.226 . S
O6 Cd2 2.273 . S
O6 Cd4 2.411 . S
O6 C9 1.320 . S
O7 Cd4 2.333 . S
O7 C9 1.214 . S
O8 Cd4 2.352 . S
O8 C11 1.258 . S
C9 O6 1.320 . S
C9 O7 1.214 . S
O10 Cd2 2.277 . S
O10 C5 1.209 . S
C11 O8 1.258 . S
C11 O13 1.282 . S
O12 Cd4 2.277 . S
O12 C5 1.226 . S
O13 Cd4 2.356 . S
O13 C11 1.282 . S
C14 O15 1.306 . S
C14 O17 1.160 . S
O15 C14 1.306 . S
O15 Cd16 2.228 . S
Cd16 O15 2.228 . S
Cd16 O20 2.273 . S
Cd16 O24 2.277 . S
O17 C14 1.160 . S
O17 Cd18 2.203 . S
Cd18 O17 2.203 . S
Cd18 O20 2.411 . S
Cd18 O21 2.333 . S
Cd18 O22 2.352 . S
Cd18 O26 2.277 . S
Cd18 O27 2.356 . S
C19 O24 1.209 . S
C19 O26 1.226 . S
O20 Cd16 2.273 . S
O20 Cd18 2.411 . S
O20 C23 1.320 . S
O21 Cd18 2.333 . S
O21 C23 1.214 . S
O22 Cd18 2.352 . S
O22 C25 1.258 . S
C23 O20 1.320 . S
C23 O21 1.214 . S
O24 Cd16 2.277 . S
O24 C19 1.209 . S
C25 O22 1.258 . S
C25 O27 1.282 . S
O26 Cd18 2.277 . S
O26 C19 1.226 . S
O27 Cd18 2.356 . S
O27 C25 1.282 . S
C28 O29 1.306 . S
C28 O31 1.160 . S
O29 C28 1.306 . S
O29 Cd30 2.228 . S
Cd30 O29 2.228 . S
Cd30 O34 2.273 . S
Cd30 O38 2.277 . S
O31 C28 1.160 . S
O31 Cd32 2.203 . S
Cd32 O31 2.203 . S
Cd32 O34 2.411 . S
Cd32 O35 2.333 . S
Cd32 O36 2.352 . S
Cd32 O40 2.277 . S
Cd32 O41 2.356 . S
C33 O38 1.209 . S
C33 O40 1.226 . S
O34 Cd30 2.273 . S
O34 Cd32 2.411 . S
O34 C37 1.320 . S
O35 Cd32 2.333 . S
O35 C37 1.214 . S
O36 Cd32 2.352 . S
O36 C39 1.258 . S
C37 O34 1.320 . S
C37 O35 1.214 . S
O38 Cd30 2.277 . S
O38 C33 1.209 . S
C39 O36 1.258 . S
C39 O41 1.282 . S
O40 Cd32 2.277 . S
O40 C33 1.226 . S
O41 Cd32 2.356 . S
O41 C39 1.282 . S
C42 O43 1.306 . S
C42 O45 1.160 . S
O43 C42 1.306 . S
O43 Cd44 2.228 . S
Cd44 O43 2.228 . S
Cd44 O48 2.273 . S
Cd44 O52 2.277 . S
O45 C42 1.160 . S
O45 Cd46 2.203 . S
Cd46 O45 2.203 . S
Cd46 O48 2.411 . S
Cd46 O49 2.333 . S
Cd46 O50 2.352 . S
Cd46 O54 2.277 . S
Cd46 O55 2.356 . S
C47 O52 1.209 . S
C47 O54 1.226 . S
O48 Cd44 2.273 . S
O48 Cd46 2.411 . S
O48 C51 1.320 . S
O49 Cd46 2.333 . S
O49 C51 1.214 . S
O50 Cd46 2.352 . S
O50 C53 1.258 . S
C51 O48 1.320 . S
C51 O49 1.214 . S
O52 Cd44 2.277 . S
O52 C47 1.209 . S
C53 O50 1.258 . S
C53 O55 1.282 . S
O54 Cd46 2.277 . S
O54 C47 1.226 . S
O55 Cd46 2.356 . S
O55 C53 1.282 . S
C56 O57 1.306 . S
C56 O59 1.160 . S
O57 C56 1.306 . S
O57 Cd58 2.228 . S
Cd58 O57 2.228 . S
Cd58 O62 2.273 . S
Cd58 O66 2.277 . S
O59 C56 1.160 . S
O59 Cd60 2.203 . S
Cd60 O59 2.203 . S
Cd60 O62 2.411 . S
Cd60 O63 2.333 . S
Cd60 O64 2.352 . S
Cd60 O68 2.277 . S
Cd60 O69 2.356 . S
C61 O66 1.209 . S
C61 O68 1.226 . S
O62 Cd58 2.273 . S
O62 Cd60 2.411 . S
O62 C65 1.320 . S
O63 Cd60 2.333 . S
O63 C65 1.214 . S
O64 Cd60 2.352 . S
O64 C67 1.258 . S
C65 O62 1.320 . S
C65 O63 1.214 . S
O66 Cd58 2.277 . S
O66 C61 1.209 . S
C67 O64 1.258 . S
C67 O69 1.282 . S
O68 Cd60 2.277 . S
O68 C61 1.226 . S
O69 Cd60 2.356 . S
O69 C67 1.282 . S
C70 O71 1.306 . S
C70 O73 1.160 . S
O71 C70 1.306 . S
O71 Cd72 2.228 . S
Cd72 O71 2.228 . S
Cd72 O76 2.273 . S
Cd72 O80 2.277 . S
O73 C70 1.160 . S
O73 Cd74 2.203 . S
Cd74 O73 2.203 . S
Cd74 O76 2.411 . S
Cd74 O77 2.333 . S
Cd74 O78 2.352 . S
Cd74 O82 2.277 . S
Cd74 O83 2.356 . S
C75 O80 1.209 . S
C75 O82 1.226 . S
O76 Cd72 2.273 . S
O76 Cd74 2.411 . S
O76 C79 1.320 . S
O77 Cd74 2.333 . S
O77 C79 1.214 . S
O78 Cd74 2.352 . S
O78 C81 1.258 . S
C79 O76 1.320 . S
C79 O77 1.214 . S
O80 Cd72 2.277 . S
O80 C75 1.209 . S
C81 O78 1.258 . S
C81 O83 1.282 . S
O82 Cd74 2.277 . S
O82 C75 1.226 . S
O83 Cd74 2.356 . S
O83 C81 1.282 . S
H84 C102 0.951 . S
H85 C104 0.951 . S
H86 C106 0.950 . S
H87 C107 0.950 . S
H88 C109 0.950 . S
H89 C112 0.950 . S
H90 C113 0.950 . S
H91 C115 0.964 . S
H92 C116 0.950 . S
H93 C117 0.951 . S
H94 C119 0.951 . S
H95 C121 0.950 . S
H96 C122 0.950 . S
H97 C124 0.950 . S
H98 C127 0.950 . S
H99 C128 0.950 . S
H100 C130 0.950 . S
H101 C131 0.950 . S
C102 H84 0.951 . S
C102 C103 1.366 . S
C102 C104 1.388 . S
C103 C102 1.366 . S
C103 C107 1.385 . S
C104 H85 0.951 . S
C104 C102 1.388 . S
C104 C105 1.366 . S
C105 C104 1.366 . S
C105 C106 1.414 . S
C105 C108 1.499 . S
C106 H86 0.950 . S
C106 C105 1.414 . S
C106 C107 1.374 . S
C107 H87 0.950 . S
C107 C103 1.385 . S
C107 C106 1.374 . S
C108 C105 1.499 . S
C108 C109 1.373 . S
C108 C110 1.389 . S
C109 H88 0.950 . S
C109 C108 1.373 . S
C109 C125 1.377 . S
C110 C108 1.389 . S
C110 C111 1.524 . S
C110 C124 1.377 1_545 S
C111 C110 1.524 . S
C111 C112 1.397 . S
C111 C116 1.363 1_545 S
C112 H89 0.950 . S
C112 C111 1.397 . S
C112 C113 1.334 . S
C113 H90 0.950 . S
C113 C112 1.334 . S
C113 C114 1.287 . S
C114 C113 1.287 . S
C114 C115 1.517 1_545 S
C114 H133 0.913 . S
C115 H91 0.964 . S
C115 C114 1.517 1_565 S
C115 C116 1.407 . S
C116 H92 0.950 . S
C116 C111 1.363 1_565 S
C116 C115 1.407 . S
C117 H93 0.951 . S
C117 C118 1.366 . S
C117 C119 1.388 . S
C118 C117 1.366 . S
C118 C122 1.385 . S
C119 H94 0.951 . S
C119 C117 1.388 . S
C119 C120 1.366 . S
C120 C119 1.366 . S
C120 C121 1.414 . S
C120 C123 1.499 . S
C121 H95 0.950 . S
C121 C120 1.414 . S
C121 C122 1.374 . S
C122 H96 0.950 . S
C122 C118 1.385 . S
C122 C121 1.374 . S
C123 C120 1.499 . S
C123 C124 1.373 . S
C123 C125 1.389 1_565 S
C124 H97 0.950 . S
C124 C110 1.377 1_565 S
C124 C123 1.373 . S
C125 C109 1.377 . S
C125 C123 1.389 1_545 S
C125 C126 1.524 . S
C126 C125 1.524 . S
C126 C127 1.397 1_545 S
C126 C131 1.363 . S
C127 H98 0.950 . S
C127 C126 1.397 1_565 S
C127 C128 1.334 . S
C128 H99 0.950 . S
C128 C127 1.334 . S
C128 C129 1.287 . S
C129 C128 1.287 . S
C129 C130 1.524 1_565 S
C129 H132 0.999 . S
C130 H100 0.950 . S
C130 C129 1.524 1_545 S
C130 C131 1.415 . S
C131 H101 0.950 . S
C131 C126 1.363 . S
C131 C130 1.415 . S
H132 C129 0.999 . S
H133 C114 0.913 . S
H134 C152 0.951 . S
H135 C154 0.951 . S
H136 C156 0.950 . S
H137 C157 0.950 . S
H138 C159 0.950 . S
H139 C162 0.950 . S
H140 C163 0.950 . S
H141 C165 0.950 . S
H142 C166 0.950 . S
H143 C167 0.951 . S
H144 C169 0.951 . S
H145 C171 0.950 . S
H146 C172 0.950 . S
H147 C174 0.950 . S
H148 C177 0.950 . S
H149 C178 0.950 . S
H150 C180 0.950 . S
H151 C181 0.950 . S
C152 H134 0.951 . S
C152 C153 1.366 . S
C152 C154 1.388 . S
C153 C152 1.366 . S
C153 C157 1.385 . S
C154 H135 0.951 . S
C154 C152 1.388 . S
C154 C155 1.366 . S
C155 C154 1.366 . S
C155 C156 1.414 . S
C155 C158 1.499 . S
C156 H136 0.950 . S
C156 C155 1.414 . S
C156 C157 1.374 . S
C157 H137 0.950 . S
C157 C153 1.385 . S
C157 C156 1.374 . S
C158 C155 1.499 . S
C158 C159 1.373 . S
C158 C160 1.389 . S
C159 H138 0.950 . S
C159 C158 1.373 . S
C159 C175 1.377 . S
C160 C158 1.389 . S
C160 C161 1.524 . S
C160 C174 1.377 . S
C161 C160 1.524 . S
C161 C162 1.397 . S
C161 C166 1.363 . S
C162 H139 0.950 . S
C162 C161 1.397 . S
C162 C163 1.334 . S
C163 H140 0.950 . S
C163 C162 1.334 . S
C163 C164 1.287 . S
C164 C163 1.287 . S
C164 C165 1.524 . S
C164 H183 0.913 . S
C165 H141 0.950 . S
C165 C164 1.524 . S
C165 C166 1.415 . S
C166 H142 0.950 . S
C166 C161 1.363 . S
C166 C165 1.415 . S
C167 H143 0.951 . S
C167 C168 1.366 . S
C167 C169 1.388 . S
C168 C167 1.366 . S
C168 C172 1.385 . S
C169 H144 0.951 . S
C169 C167 1.388 . S
C169 C170 1.366 . S
C170 C169 1.366 . S
C170 C171 1.414 . S
C170 C173 1.499 . S
C171 H145 0.950 . S
C171 C170 1.414 . S
C171 C172 1.374 . S
C172 H146 0.950 . S
C172 C168 1.385 . S
C172 C171 1.374 . S
C173 C170 1.499 . S
C173 C174 1.373 . S
C173 C175 1.389 . S
C174 H147 0.950 . S
C174 C160 1.377 . S
C174 C173 1.373 . S
C175 C159 1.377 . S
C175 C173 1.389 . S
C175 C176 1.524 . S
C176 C175 1.524 . S
C176 C177 1.397 . S
C176 C181 1.363 . S
C177 H148 0.950 . S
C177 C176 1.397 . S
C177 C178 1.334 . S
C178 H149 0.950 . S
C178 C177 1.334 . S
C178 C179 1.287 . S
C179 C178 1.287 . S
C179 C180 1.524 . S
C179 H182 0.999 . S
C180 H150 0.950 . S
C180 C179 1.524 . S
C180 C181 1.415 . S
C181 H151 0.950 . S
C181 C176 1.363 . S
C181 C180 1.415 . S
H182 C179 0.999 . S
H183 C164 0.913 . S
H184 C202 0.951 . S
H185 C204 0.951 . S
H186 C206 0.950 . S
H187 C207 0.950 . S
H188 C209 0.950 . S
H189 C212 0.950 . S
H190 C213 0.950 . S
H191 C215 0.950 . S
H192 C216 0.950 . S
H193 C217 0.951 . S
H194 C219 0.951 . S
H195 C221 0.950 . S
H196 C222 0.950 . S
H197 C224 0.950 . S
H198 C227 0.950 . S
H199 C228 0.950 . S
H200 C230 0.950 . S
H201 C231 0.950 . S
C202 H184 0.951 . S
C202 C203 1.366 . S
C202 C204 1.388 . S
C203 C202 1.366 . S
C203 C207 1.385 . S
C204 H185 0.951 . S
C204 C202 1.388 . S
C204 C205 1.366 . S
C205 C204 1.366 . S
C205 C206 1.414 . S
C205 C208 1.499 . S
C206 H186 0.950 . S
C206 C205 1.414 . S
C206 C207 1.374 . S
C207 H187 0.950 . S
C207 C203 1.385 . S
C207 C206 1.374 . S
C208 C205 1.499 . S
C208 C209 1.373 . S
C208 C210 1.389 . S
C209 H188 0.950 . S
C209 C208 1.373 . S
C209 C225 1.377 . S
C210 C208 1.389 . S
C210 C211 1.524 . S
C210 C224 1.377 1_655 S
C211 C210 1.524 . S
C211 C212 1.397 . S
C211 C216 1.363 1_655 S
C212 H189 0.950 . S
C212 C211 1.397 . S
C212 C213 1.334 . S
C213 H190 0.950 . S
C213 C212 1.334 . S
C213 C214 1.287 . S
C214 C213 1.287 . S
C214 C215 1.524 1_655 S
C214 H233 0.913 . S
C215 H191 0.950 . S
C215 C214 1.524 1_455 S
C215 C216 1.415 . S
C216 H192 0.950 . S
C216 C211 1.363 1_455 S
C216 C215 1.415 . S
C217 H193 0.951 . S
C217 C218 1.366 . S
C217 C219 1.388 . S
C218 C217 1.366 . S
C218 C222 1.385 . S
C219 H194 0.951 . S
C219 C217 1.388 . S
C219 C220 1.366 . S
C220 C219 1.366 . S
C220 C221 1.414 . S
C220 C223 1.499 . S
C221 H195 0.950 . S
C221 C220 1.414 . S
C221 C222 1.374 . S
C222 H196 0.950 . S
C222 C218 1.385 . S
C222 C221 1.374 . S
C223 C220 1.499 . S
C223 C224 1.373 . S
C223 C225 1.389 1_455 S
C224 H197 0.950 . S
C224 C210 1.377 1_455 S
C224 C223 1.373 . S
C225 C209 1.377 . S
C225 C223 1.389 1_655 S
C225 C226 1.524 . S
C226 C225 1.524 . S
C226 C227 1.397 1_655 S
C226 C231 1.363 . S
C227 H198 0.950 . S
C227 C226 1.397 1_455 S
C227 C228 1.334 . S
C228 H199 0.950 . S
C228 C227 1.334 . S
C228 C229 1.287 1_455 S
C229 C228 1.287 1_655 S
C229 C230 1.524 . S
C229 H232 0.999 . S
C230 H200 0.950 . S
C230 C229 1.524 . S
C230 C231 1.415 . S
C231 H201 0.950 . S
C231 C226 1.363 . S
C231 C230 1.415 . S
H232 C229 0.999 . S
H233 C214 0.913 . S
H234 C252 0.951 . S
H235 C254 0.951 . S
H236 C256 0.950 . S
H237 C257 0.950 . S
H238 C259 0.950 . S
H239 C262 0.950 . S
H240 C263 0.950 . S
H241 C265 0.950 . S
H242 C266 0.950 . S
H243 C267 0.951 . S
H244 C269 0.951 . S
H245 C271 0.950 . S
H246 C272 0.950 . S
H247 C274 0.950 . S
H248 C277 0.950 . S
H249 C278 0.950 . S
H250 C280 0.950 . S
H251 C281 0.950 . S
C252 H234 0.951 . S
C252 C253 1.366 . S
C252 C254 1.388 . S
C253 C252 1.366 . S
C253 C257 1.385 . S
C254 H235 0.951 . S
C254 C252 1.388 . S
C254 C255 1.366 . S
C255 C254 1.366 . S
C255 C256 1.414 . S
C255 C258 1.499 . S
C256 H236 0.950 . S
C256 C255 1.414 . S
C256 C257 1.374 . S
C257 H237 0.950 . S
C257 C253 1.385 . S
C257 C256 1.374 . S
C258 C255 1.499 . S
C258 C259 1.373 1_554 S
C258 C260 1.389 . S
C259 H238 0.950 . S
C259 C258 1.373 1_556 S
C259 C275 1.377 . S
C260 C258 1.389 . S
C260 C261 1.524 . S
C260 C274 1.377 1_565 S
C261 C260 1.524 . S
C261 C262 1.397 . S
C261 C266 1.363 . S
C262 H239 0.950 . S
C262 C261 1.397 . S
C262 C263 1.334 . S
C263 H240 0.950 . S
C263 C262 1.334 . S
C263 C264 1.287 . S
C264 C263 1.287 . S
C264 C265 1.524 . S
C264 H283 0.913 . S
C265 H241 0.950 . S
C265 C264 1.524 . S
C265 C266 1.415 . S
C266 H242 0.950 . S
C266 C261 1.363 . S
C266 C265 1.415 . S
C267 H243 0.951 . S
C267 C268 1.366 . S
C267 C269 1.388 . S
C268 C267 1.366 . S
C268 C272 1.385 . S
C269 H244 0.951 . S
C269 C267 1.388 . S
C269 C270 1.366 . S
C270 C269 1.366 . S
C270 C271 1.414 . S
C270 C273 1.499 . S
C271 H245 0.950 . S
C271 C270 1.414 . S
C271 C272 1.374 . S
C272 H246 0.950 . S
C272 C268 1.385 . S
C272 C271 1.374 . S
C273 C270 1.499 . S
C273 C274 1.373 1_556 S
C273 C275 1.389 1_545 S
C274 H247 0.950 . S
C274 C260 1.377 1_545 S
C274 C273 1.373 1_554 S
C275 C259 1.377 . S
C275 C273 1.389 1_565 S
C275 C276 1.524 . S
C276 C275 1.524 . S
C276 C277 1.397 1_565 S
C276 C281 1.363 . S
C277 H248 0.950 . S
C277 C276 1.397 1_545 S
C277 C278 1.334 . S
C278 H249 0.950 . S
C278 C277 1.334 . S
C278 C279 1.287 . S
C279 C278 1.287 . S
C279 C280 1.524 1_545 S
C279 H282 0.999 . S
C280 H250 0.950 . S
C280 C279 1.524 1_565 S
C280 C281 1.415 . S
C281 H251 0.950 . S
C281 C276 1.363 . S
C281 C280 1.415 . S
H282 C279 0.999 . S
H283 C264 0.913 . S
H284 C302 0.951 . S
H285 C304 0.951 . S
H286 C306 0.950 . S
H287 C307 0.950 . S
H288 C309 0.950 . S
H289 C312 0.950 . S
H290 C313 0.950 . S
H291 C315 0.950 . S
H292 C316 0.950 . S
H293 C317 0.951 . S
H294 C319 0.951 . S
H295 C321 0.950 . S
H296 C322 0.950 . S
H297 C324 0.950 . S
H298 C327 0.950 . S
H299 C328 0.950 . S
H300 C330 0.950 . S
H301 C331 0.950 . S
C302 H284 0.951 . S
C302 C303 1.366 . S
C302 C304 1.388 . S
C303 C302 1.366 . S
C303 C307 1.385 . S
C304 H285 0.951 . S
C304 C302 1.388 . S
C304 C305 1.366 . S
C305 C304 1.366 . S
C305 C306 1.414 . S
C305 C308 1.499 . S
C306 H286 0.950 . S
C306 C305 1.414 . S
C306 C307 1.374 . S
C307 H287 0.950 . S
C307 C303 1.385 . S
C307 C306 1.374 . S
C308 C305 1.499 . S
C308 C309 1.373 . S
C308 C310 1.389 . S
C309 H288 0.950 . S
C309 C308 1.373 . S
C309 C325 1.377 . S
C310 C308 1.389 . S
C310 C311 1.524 . S
C310 C324 1.377 . S
C311 C310 1.524 . S
C311 C312 1.397 . S
C311 C316 1.363 . S
C312 H289 0.950 . S
C312 C311 1.397 . S
C312 C313 1.334 . S
C313 H290 0.950 . S
C313 C312 1.334 . S
C313 C314 1.287 . S
C314 C313 1.287 . S
C314 C315 1.524 . S
C314 H333 0.913 . S
C315 H291 0.950 . S
C315 C314 1.524 . S
C315 C316 1.415 . S
C316 H292 0.950 . S
C316 C311 1.363 . S
C316 C315 1.415 . S
C317 H293 0.951 . S
C317 C318 1.366 . S
C317 C319 1.388 . S
C318 C317 1.366 . S
C318 C322 1.385 . S
C319 H294 0.951 . S
C319 C317 1.388 . S
C319 C320 1.366 . S
C320 C319 1.366 . S
C320 C321 1.414 . S
C320 C323 1.499 . S
C321 H295 0.950 . S
C321 C320 1.414 . S
C321 C322 1.374 . S
C322 H296 0.950 . S
C322 C318 1.385 . S
C322 C321 1.374 . S
C323 C320 1.499 . S
C323 C324 1.373 . S
C323 C325 1.389 . S
C324 H297 0.950 . S
C324 C310 1.377 . S
C324 C323 1.373 . S
C325 C309 1.377 . S
C325 C323 1.389 . S
C325 C326 1.524 . S
C326 C325 1.524 . S
C326 C327 1.397 . S
C326 C331 1.363 . S
C327 H298 0.950 . S
C327 C326 1.397 . S
C327 C328 1.334 . S
C328 H299 0.950 . S
C328 C327 1.334 . S
C328 C329 1.287 . S
C329 C328 1.287 . S
C329 C330 1.524 . S
C329 H332 0.999 . S
C330 H300 0.950 . S
C330 C329 1.524 . S
C330 C331 1.415 . S
C331 H301 0.950 . S
C331 C326 1.363 . S
C331 C330 1.415 . S
H332 C329 0.999 . S
H333 C314 0.913 . S
H334 C352 0.951 . S
H335 C354 0.951 . S
H336 C356 0.950 . S
H337 C357 0.950 . S
H338 C359 0.950 . S
H339 C362 0.950 . S
H340 C363 0.950 . S
H341 C365 0.950 . S
H342 C366 0.950 . S
H343 C367 0.951 . S
H344 C369 0.951 . S
H345 C371 0.950 . S
H346 C372 0.950 . S
H347 C374 0.950 . S
H348 C377 0.950 . S
H349 C378 0.950 . S
H350 C380 0.950 . S
H351 C381 0.950 1_455 S
C352 H334 0.951 . S
C352 C353 1.366 . S
C352 C354 1.388 . S
C353 C352 1.366 . S
C353 C357 1.385 . S
C354 H335 0.951 . S
C354 C352 1.388 . S
C354 C355 1.366 . S
C355 C354 1.366 . S
C355 C356 1.414 . S
C355 C358 1.499 . S
C356 H336 0.950 . S
C356 C355 1.414 . S
C356 C357 1.374 . S
C357 H337 0.950 . S
C357 C353 1.385 . S
C357 C356 1.374 . S
C358 C355 1.499 . S
C358 C359 1.373 . S
C358 C360 1.389 . S
C359 H338 0.950 . S
C359 C358 1.373 . S
C359 C375 1.377 1_455 S
C360 C358 1.389 . S
C360 C361 1.524 . S
C360 C374 1.377 1_455 S
C361 C360 1.524 . S
C361 C362 1.397 . S
C361 C366 1.363 . S
C362 H339 0.950 . S
C362 C361 1.397 . S
C362 C363 1.334 . S
C363 H340 0.950 . S
C363 C362 1.334 . S
C363 C364 1.287 . S
C364 C363 1.287 . S
C364 C365 1.524 . S
C364 H383 0.913 . S
C365 H341 0.950 . S
C365 C364 1.524 . S
C365 C366 1.415 . S
C366 H342 0.950 . S
C366 C361 1.363 . S
C366 C365 1.415 . S
C367 H343 0.951 . S
C367 C368 1.366 . S
C367 C369 1.388 . S
C368 C367 1.366 . S
C368 C372 1.385 . S
C369 H344 0.951 . S
C369 C367 1.388 . S
C369 C370 1.366 . S
C370 C369 1.366 . S
C370 C371 1.414 . S
C370 C373 1.499 . S
C371 H345 0.950 . S
C371 C370 1.414 . S
C371 C372 1.374 . S
C372 H346 0.950 . S
C372 C368 1.385 . S
C372 C371 1.374 . S
C373 C370 1.499 . S
C373 C374 1.373 . S
C373 C375 1.389 . S
C374 H347 0.950 . S
C374 C360 1.377 1_655 S
C374 C373 1.373 . S
C375 C359 1.377 1_655 S
C375 C373 1.389 . S
C375 C376 1.524 . S
C376 C375 1.524 . S
C376 C377 1.397 . S
C376 C381 1.363 . S
C377 H348 0.950 . S
C377 C376 1.397 . S
C377 C378 1.334 . S
C378 H349 0.950 . S
C378 C377 1.334 . S
C378 C379 1.287 . S
C379 C378 1.287 . S
C379 C380 1.524 . S
C379 H382 0.999 . S
C380 H350 0.950 . S
C380 C379 1.524 . S
C380 C381 1.415 . S
C381 H351 0.950 1_655 S
C381 C376 1.363 . S
C381 C380 1.415 . S
H382 C379 0.999 . S
H383 C364 0.913 . S
H384 C402 0.951 . S
H385 C404 0.951 . S
H386 C406 0.950 . S
H387 C407 0.950 . S
H388 C409 0.950 . S
H389 C412 0.950 . S
H390 C413 0.950 . S
H391 C415 0.950 . S
H392 C416 0.950 . S
H393 C417 0.951 . S
H394 C419 0.951 . S
H395 C421 0.950 . S
H396 C422 0.950 . S
H397 C424 0.950 . S
H398 C427 0.950 . S
H399 C428 0.950 . S
H400 C430 0.950 . S
H401 C431 0.950 . S
C402 H384 0.951 . S
C402 C403 1.366 . S
C402 C404 1.388 . S
C403 C402 1.366 . S
C403 C407 1.385 . S
C404 H385 0.951 . S
C404 C402 1.388 . S
C404 C405 1.366 . S
C405 C404 1.366 . S
C405 C406 1.414 . S
C405 C408 1.499 . S
C406 H386 0.950 . S
C406 C405 1.414 . S
C406 C407 1.374 . S
C407 H387 0.950 . S
C407 C403 1.385 . S
C407 C406 1.374 . S
C408 C405 1.499 . S
C408 C409 1.373 . S
C408 C410 1.389 . S
C409 H388 0.950 . S
C409 C408 1.373 . S
C409 C425 1.377 . S
C410 C408 1.389 . S
C410 C411 1.524 . S
C410 C424 1.377 . S
C411 C410 1.524 . S
C411 C412 1.397 . S
C411 C416 1.363 . S
C412 H389 0.950 . S
C412 C411 1.397 . S
C412 C413 1.334 . S
C413 H390 0.950 . S
C413 C412 1.334 . S
C413 C414 1.287 . S
C414 C413 1.287 . S
C414 C415 1.524 . S
C414 H433 0.913 . S
C415 H391 0.950 . S
C415 C414 1.524 . S
C415 C416 1.415 . S
C416 H392 0.950 . S
C416 C411 1.363 . S
C416 C415 1.415 . S
C417 H393 0.951 . S
C417 C418 1.366 . S
C417 C419 1.388 . S
C418 C417 1.366 . S
C418 C422 1.385 . S
C419 H394 0.951 . S
C419 C417 1.388 . S
C419 C420 1.366 . S
C420 C419 1.366 . S
C420 C421 1.414 . S
C420 C423 1.499 . S
C421 H395 0.950 . S
C421 C420 1.414 . S
C421 C422 1.374 . S
C422 H396 0.950 . S
C422 C418 1.385 . S
C422 C421 1.374 . S
C423 C420 1.499 . S
C423 C424 1.373 . S
C423 C425 1.389 . S
C424 H397 0.950 . S
C424 C410 1.377 . S
C424 C423 1.373 . S
C425 C409 1.377 . S
C425 C423 1.389 . S
C425 C426 1.524 . S
C426 C425 1.524 . S
C426 C427 1.397 . S
C426 C431 1.363 . S
C427 H398 0.950 . S
C427 C426 1.397 . S
C427 C428 1.334 . S
C428 H399 0.950 . S
C428 C427 1.334 . S
C428 C429 1.287 . S
C429 C428 1.287 . S
C429 C430 1.524 . S
C429 H432 0.999 . S
C430 H400 0.950 . S
C430 C429 1.524 . S
C430 C431 1.415 . S
C431 H401 0.950 . S
C431 C426 1.363 . S
C431 C430 1.415 . S
H432 C429 0.999 . S
H433 C414 0.913 . S
H434 C452 0.951 . S
H435 C454 0.951 . S
H436 C456 0.950 . S
H437 C457 0.950 . S
H438 C459 0.950 . S
H439 C462 0.950 . S
H440 C463 0.950 . S
H441 C465 0.950 . S
H442 C466 0.950 . S
H443 C467 0.951 . S
H444 C469 0.951 . S
H445 C471 0.950 . S
H446 C472 0.950 . S
H447 C474 0.950 . S
H448 C477 0.950 . S
H449 C478 0.950 . S
H450 C480 0.950 . S
H451 C481 0.950 . S
C452 H434 0.951 . S
C452 C453 1.366 . S
C452 C454 1.388 . S
C453 C452 1.366 . S
C453 C457 1.385 . S
C454 H435 0.951 . S
C454 C452 1.388 . S
C454 C455 1.366 . S
C455 C454 1.366 . S
C455 C456 1.414 . S
C455 C458 1.499 . S
C456 H436 0.950 . S
C456 C455 1.414 . S
C456 C457 1.374 . S
C457 H437 0.950 . S
C457 C453 1.385 . S
C457 C456 1.374 . S
C458 C455 1.499 . S
C458 C459 1.373 . S
C458 C460 1.389 . S
C459 H438 0.950 . S
C459 C458 1.373 . S
C459 C475 1.377 . S
C460 C458 1.389 . S
C460 C461 1.524 . S
C460 C474 1.377 . S
C461 C460 1.524 . S
C461 C462 1.397 . S
C461 C466 1.363 . S
C462 H439 0.950 . S
C462 C461 1.397 . S
C462 C463 1.334 . S
C463 H440 0.950 . S
C463 C462 1.334 . S
C463 C464 1.287 . S
C464 C463 1.287 . S
C464 C465 1.524 . S
C464 H483 0.913 . S
C465 H441 0.950 . S
C465 C464 1.524 . S
C465 C466 1.415 . S
C466 H442 0.950 . S
C466 C461 1.363 . S
C466 C465 1.415 . S
C467 H443 0.951 . S
C467 C468 1.366 . S
C467 C469 1.388 . S
C468 C467 1.366 . S
C468 C472 1.385 . S
C469 H444 0.951 . S
C469 C467 1.388 . S
C469 C470 1.366 . S
C470 C469 1.366 . S
C470 C471 1.414 . S
C470 C473 1.499 . S
C471 H445 0.950 . S
C471 C470 1.414 . S
C471 C472 1.374 . S
C472 H446 0.950 . S
C472 C468 1.385 . S
C472 C471 1.374 . S
C473 C470 1.499 . S
C473 C474 1.373 . S
C473 C475 1.389 . S
C474 H447 0.950 . S
C474 C460 1.377 . S
C474 C473 1.373 . S
C475 C459 1.377 . S
C475 C473 1.389 . S
C475 C476 1.524 . S
C476 C475 1.524 . S
C476 C477 1.397 . S
C476 C481 1.363 . S
C477 H448 0.950 . S
C477 C476 1.397 . S
C477 C478 1.334 . S
C478 H449 0.950 . S
C478 C477 1.334 . S
C478 C479 1.287 . S
C479 C478 1.287 . S
C479 C480 1.524 . S
C479 H482 0.999 . S
C480 H450 0.950 . S
C480 C479 1.524 . S
C480 C481 1.415 . S
C481 H451 0.950 . S
C481 C476 1.363 . S
C481 C480 1.415 . S
H482 C479 0.999 . S
H483 C464 0.913 . S
H484 C502 0.951 . S
H485 C504 0.951 . S
H486 C506 0.950 . S
H487 C507 0.950 . S
H488 C509 0.950 . S
H489 C512 0.950 . S
H490 C513 0.950 . S
H491 C515 0.950 . S
H492 C516 0.950 . S
H493 C517 0.951 . S
H494 C519 0.951 . S
H495 C521 0.950 . S
H496 C522 0.950 . S
H497 C524 0.950 . S
H498 C527 0.950 . S
H499 C528 0.950 . S
H500 C530 0.950 . S
H501 C531 0.950 . S
C502 H484 0.951 . S
C502 C503 1.366 . S
C502 C504 1.388 . S
C503 C502 1.366 . S
C503 C507 1.385 . S
C504 H485 0.951 . S
C504 C502 1.388 . S
C504 C505 1.366 . S
C505 C504 1.366 . S
C505 C506 1.414 . S
C505 C508 1.499 . S
C506 H486 0.950 . S
C506 C505 1.414 . S
C506 C507 1.374 . S
C507 H487 0.950 . S
C507 C503 1.385 . S
C507 C506 1.374 . S
C508 C505 1.499 . S
C508 C509 1.373 . S
C508 C510 1.389 . S
C509 H488 0.950 . S
C509 C508 1.373 . S
C509 C525 1.377 . S
C510 C508 1.389 . S
C510 C511 1.524 . S
C510 C524 1.377 . S
C511 C510 1.524 . S
C511 C512 1.397 . S
C511 C516 1.363 . S
C512 H489 0.950 . S
C512 C511 1.397 . S
C512 C513 1.334 . S
C513 H490 0.950 . S
C513 C512 1.334 . S
C513 C514 1.287 . S
C514 C513 1.287 . S
C514 C515 1.524 . S
C514 H533 0.913 . S
C515 H491 0.950 . S
C515 C514 1.524 . S
C515 C516 1.415 . S
C516 H492 0.950 . S
C516 C511 1.363 . S
C516 C515 1.415 . S
C517 H493 0.951 . S
C517 C518 1.366 . S
C517 C519 1.388 . S
C518 C517 1.366 . S
C518 C522 1.385 . S
C519 H494 0.951 . S
C519 C517 1.388 . S
C519 C520 1.366 . S
C520 C519 1.366 . S
C520 C521 1.414 . S
C520 C523 1.499 . S
C521 H495 0.950 . S
C521 C520 1.414 . S
C521 C522 1.374 . S
C522 H496 0.950 . S
C522 C518 1.385 . S
C522 C521 1.374 . S
C523 C520 1.499 . S
C523 C524 1.373 . S
C523 C525 1.389 . S
C524 H497 0.950 . S
C524 C510 1.377 . S
C524 C523 1.373 . S
C525 C509 1.377 . S
C525 C523 1.389 . S
C525 C526 1.524 . S
C526 C525 1.524 . S
C526 C527 1.397 . S
C526 C531 1.363 . S
C527 H498 0.950 . S
C527 C526 1.397 . S
C527 C528 1.334 . S
C528 H499 0.950 . S
C528 C527 1.334 . S
C528 C529 1.287 . S
C529 C528 1.287 . S
C529 C530 1.524 . S
C529 H532 0.999 . S
C530 H500 0.950 . S
C530 C529 1.524 . S
C530 C531 1.415 . S
C531 H501 0.950 . S
C531 C526 1.363 . S
C531 C530 1.415 . S
H532 C529 0.999 . S
H533 C514 0.913 . S
H534 C552 0.951 . S
H535 C554 0.951 . S
H536 C556 0.950 . S
H537 C557 0.950 . S
H538 C559 0.950 . S
H539 C562 0.950 . S
H540 C563 0.950 . S
H541 C565 0.950 . S
H542 C566 0.950 . S
H543 C567 0.951 . S
H544 C569 0.951 . S
H545 C571 0.950 . S
H546 C572 0.950 . S
H547 C574 0.950 . S
H548 C577 0.950 . S
H549 C578 0.950 . S
H550 C580 0.950 . S
H551 C581 0.950 . S
C552 H534 0.951 . S
C552 C553 1.366 . S
C552 C554 1.388 . S
C553 C552 1.366 . S
C553 C557 1.385 . S
C554 H535 0.951 . S
C554 C552 1.388 . S
C554 C555 1.366 . S
C555 C554 1.366 . S
C555 C556 1.414 . S
C555 C558 1.499 . S
C556 H536 0.950 . S
C556 C555 1.414 . S
C556 C557 1.374 . S
C557 H537 0.950 . S
C557 C553 1.385 . S
C557 C556 1.374 . S
C558 C555 1.499 . S
C558 C559 1.373 . S
C558 C560 1.389 . S
C559 H538 0.950 . S
C559 C558 1.373 . S
C559 C575 1.377 . S
C560 C558 1.389 . S
C560 C561 1.524 . S
C560 C574 1.377 . S
C561 C560 1.524 . S
C561 C562 1.397 . S
C561 C566 1.363 . S
C562 H539 0.950 . S
C562 C561 1.397 . S
C562 C563 1.334 . S
C563 H540 0.950 . S
C563 C562 1.334 . S
C563 C564 1.287 . S
C564 C563 1.287 . S
C564 C565 1.524 . S
C564 H583 0.913 . S
C565 H541 0.950 . S
C565 C564 1.524 . S
C565 C566 1.415 . S
C566 H542 0.950 . S
C566 C561 1.363 . S
C566 C565 1.415 . S
C567 H543 0.951 . S
C567 C568 1.366 1_556 S
C567 C569 1.388 . S
C568 C567 1.366 1_554 S
C568 C572 1.385 . S
C569 H544 0.951 . S
C569 C567 1.388 . S
C569 C570 1.366 . S
C570 C569 1.366 . S
C570 C571 1.414 . S
C570 C573 1.499 . S
C571 H545 0.950 . S
C571 C570 1.414 . S
C571 C572 1.374 1_556 S
C572 H546 0.950 . S
C572 C568 1.385 . S
C572 C571 1.374 1_554 S
C573 C570 1.499 . S
C573 C574 1.373 . S
C573 C575 1.389 . S
C574 H547 0.950 . S
C574 C560 1.377 . S
C574 C573 1.373 . S
C575 C559 1.377 . S
C575 C573 1.389 . S
C575 C576 1.524 . S
C576 C575 1.524 . S
C576 C577 1.397 . S
C576 C581 1.363 . S
C577 H548 0.950 . S
C577 C576 1.397 . S
C577 C578 1.334 . S
C578 H549 0.950 . S
C578 C577 1.334 . S
C578 C579 1.287 . S
C579 C578 1.287 . S
C579 C580 1.524 . S
C579 H582 0.999 . S
C580 H550 0.950 . S
C580 C579 1.524 . S
C580 C581 1.415 . S
C581 H551 0.950 . S
C581 C576 1.363 . S
C581 C580 1.415 . S
H582 C579 0.999 . S
H583 C564 0.913 . S
H584 C602 0.951 . S
H585 C604 0.951 . S
H586 C606 0.950 . S
H587 C607 0.950 . S
H588 C609 0.950 . S
H589 C612 0.950 . S
H590 C613 0.950 . S
H591 C615 0.950 . S
H592 C616 0.950 . S
H593 C617 0.951 . S
H594 C619 0.951 . S
H595 C621 0.950 . S
H596 C622 0.950 . S
H597 C624 0.950 . S
H598 C627 0.950 . S
H599 C628 0.950 . S
H600 C630 0.950 . S
H601 C631 0.950 . S
C602 H584 0.951 . S
C602 C603 1.366 . S
C602 C604 1.388 1_556 S
C603 C602 1.366 . S
C603 C607 1.385 1_556 S
C604 H585 0.951 . S
C604 C602 1.388 1_554 S
C604 C605 1.366 . S
C605 C604 1.366 . S
C605 C606 1.414 . S
C605 C608 1.499 . S
C606 H586 0.950 . S
C606 C605 1.414 . S
C606 C607 1.374 . S
C607 H587 0.950 . S
C607 C603 1.385 1_554 S
C607 C606 1.374 . S
C608 C605 1.499 . S
C608 C609 1.373 . S
C608 C610 1.389 . S
C609 H588 0.950 . S
C609 C608 1.373 . S
C609 C625 1.377 . S
C610 C608 1.389 . S
C610 C611 1.524 . S
C610 C624 1.377 . S
C611 C610 1.524 . S
C611 C612 1.397 . S
C611 C616 1.363 . S
C612 H589 0.950 . S
C612 C611 1.397 . S
C612 C613 1.334 1_554 S
C613 H590 0.950 . S
C613 C612 1.334 1_556 S
C613 C614 1.287 . S
C614 C613 1.287 . S
C614 C615 1.524 . S
C614 H633 0.913 . S
C615 H591 0.950 . S
C615 C614 1.524 . S
C615 C616 1.415 1_556 S
C616 H592 0.950 . S
C616 C611 1.363 . S
C616 C615 1.415 1_554 S
C617 H593 0.951 . S
C617 C618 1.366 . S
C617 C619 1.388 . S
C618 C617 1.366 . S
C618 C622 1.385 . S
C619 H594 0.951 . S
C619 C617 1.388 . S
C619 C620 1.366 . S
C620 C619 1.366 . S
C620 C621 1.414 . S
C620 C623 1.499 . S
C621 H595 0.950 . S
C621 C620 1.414 . S
C621 C622 1.374 . S
C622 H596 0.950 . S
C622 C618 1.385 . S
C622 C621 1.374 . S
C623 C620 1.499 . S
C623 C624 1.373 . S
C623 C625 1.389 . S
C624 H597 0.950 . S
C624 C610 1.377 . S
C624 C623 1.373 . S
C625 C609 1.377 . S
C625 C623 1.389 . S
C625 C626 1.524 . S
C626 C625 1.524 . S
C626 C627 1.397 . S
C626 C631 1.363 . S
C627 H598 0.950 . S
C627 C626 1.397 . S
C627 C628 1.334 . S
C628 H599 0.950 . S
C628 C627 1.334 . S
C628 C629 1.287 . S
C629 C628 1.287 . S
C629 C630 1.524 . S
C629 H632 0.999 . S
C630 H600 0.950 . S
C630 C629 1.524 . S
C630 C631 1.415 . S
C631 H601 0.950 . S
C631 C626 1.363 . S
C631 C630 1.415 . S
H632 C629 0.999 . S
H633 C614 0.913 . S
H634 C652 0.951 . S
H635 C654 0.951 . S
H636 C656 0.950 . S
H637 C657 0.950 . S
H638 C659 0.950 . S
H639 C662 0.950 . S
H640 C663 0.950 . S
H641 C665 0.950 . S
H642 C666 0.950 . S
H643 C667 0.951 . S
H644 C669 0.951 . S
H645 C671 0.950 . S
H646 C672 0.950 . S
H647 C674 0.950 . S
H648 C677 0.950 . S
H649 C678 0.950 . S
H650 C680 0.950 . S
H651 C681 0.950 . S
C652 H634 0.951 . S
C652 C653 1.366 . S
C652 C654 1.388 . S
C653 C652 1.366 . S
C653 C657 1.385 . S
C654 H635 0.951 . S
C654 C652 1.388 . S
C654 C655 1.366 . S
C655 C654 1.366 . S
C655 C656 1.414 . S
C655 C658 1.499 . S
C656 H636 0.950 . S
C656 C655 1.414 . S
C656 C657 1.374 . S
C657 H637 0.950 . S
C657 C653 1.385 . S
C657 C656 1.374 . S
C658 C655 1.499 . S
C658 C659 1.373 . S
C658 C660 1.389 . S
C659 H638 0.950 . S
C659 C658 1.373 . S
C659 C675 1.377 . S
C660 C658 1.389 . S
C660 C661 1.524 . S
C660 C674 1.377 . S
C661 C660 1.524 . S
C661 C662 1.397 . S
C661 C666 1.363 . S
C662 H639 0.950 . S
C662 C661 1.397 . S
C662 C663 1.334 . S
C663 H640 0.950 . S
C663 C662 1.334 . S
C663 C664 1.287 . S
C664 C663 1.287 . S
C664 C665 1.524 . S
C664 H683 0.913 . S
C665 H641 0.950 . S
C665 C664 1.524 . S
C665 C666 1.415 . S
C666 H642 0.950 . S
C666 C661 1.363 . S
C666 C665 1.415 . S
C667 H643 0.951 . S
C667 C668 1.366 . S
C667 C669 1.388 . S
C668 C667 1.366 . S
C668 C672 1.385 . S
C669 H644 0.951 . S
C669 C667 1.388 . S
C669 C670 1.366 . S
C670 C669 1.366 . S
C670 C671 1.414 . S
C670 C673 1.499 . S
C671 H645 0.950 . S
C671 C670 1.414 . S
C671 C672 1.374 . S
C672 H646 0.950 . S
C672 C668 1.385 . S
C672 C671 1.374 . S
C673 C670 1.499 . S
C673 C674 1.373 . S
C673 C675 1.389 . S
C674 H647 0.950 . S
C674 C660 1.377 . S
C674 C673 1.373 . S
C675 C659 1.377 . S
C675 C673 1.389 . S
C675 C676 1.524 . S
C676 C675 1.524 . S
C676 C677 1.397 . S
C676 C681 1.363 . S
C677 H648 0.950 . S
C677 C676 1.397 . S
C677 C678 1.334 . S
C678 H649 0.950 . S
C678 C677 1.334 . S
C678 C679 1.287 . S
C679 C678 1.287 . S
C679 C680 1.524 . S
C679 H682 0.999 . S
C680 H650 0.950 . S
C680 C679 1.524 . S
C680 C681 1.415 . S
C681 H651 0.950 . S
C681 C676 1.363 . S
C681 C680 1.415 . S
H682 C679 0.999 . S
H683 C664 0.913 . S
C103 C5 1.637 . S
C118 C81 1.630 . S
C153 C11 1.630 . S
C168 C19 1.637 . S
C203 C33 1.637 . S
C218 C25 1.630 . S
C253 C47 1.637 . S
C268 C39 1.630 . S
C303 C61 1.637 . S
C318 C53 1.630 . S
C353 C75 1.637 . S
C368 C67 1.630 . S
C403 C0 1.434 . S
C418 C65 1.444 . S
C453 C79 1.444 . S
C468 C14 1.434 . S
C503 C28 1.434 . S
C518 C9 1.444 . S
C553 C23 1.444 . S
C568 C42 1.434 . S
C603 C37 1.444 . S
C618 C56 1.435 . S
C653 C70 1.434 . S
C668 C51 1.444 . S
