# Generated by pormake.
# Topology wjd, (6)-cn, num edge types: 1
# Building blocks:
#     Node 0, Type 0, BuildingBlock: HISSIN_clean_sbu_0, # of connection points: 6
#     Node 1, Type 0, BuildingBlock: HISSIN_clean_sbu_0, # of connection points: 6
#     Node 2, Type 0, BuildingBlock: HISSIN_clean_sbu_0, # of connection points: 6
#     Node 3, Type 0, BuildingBlock: HISSIN_clean_sbu_0, # of connection points: 6
#     Node 4, Type 0, BuildingBlock: HISSIN_clean_sbu_0, # of connection points: 6
#     Node 5, Type 0, BuildingBlock: HISSIN_clean_sbu_0, # of connection points: 6
#     Node 6, Type 0, BuildingBlock: HISSIN_clean_sbu_0, # of connection points: 6
#     Node 7, Type 0, BuildingBlock: HISSIN_clean_sbu_0, # of connection points: 6
#     Node 8, Type 0, BuildingBlock: HISSIN_clean_sbu_0, # of connection points: 6
#     Node 9, Type 0, BuildingBlock: HISSIN_clean_sbu_0, # of connection points: 6
#     Node 10, Type 0, BuildingBlock: HISSIN_clean_sbu_0, # of connection points: 6
#     Node 11, Type 0, BuildingBlock: HISSIN_clean_sbu_0, # of connection points: 6
#     Edge 12, Type (0, 0), BuildingBlock: CIFDUS_clean_linker_0, # of connection points: 2
#     Edge 13, Type (0, 0), BuildingBlock: CIFDUS_clean_linker_0, # of connection points: 2
#     Edge 14, Type (0, 0), BuildingBlock: CIFDUS_clean_linker_0, # of connection points: 2
#     Edge 15, Type (0, 0), BuildingBlock: CIFDUS_clean_linker_0, # of connection points: 2
#     Edge 16, Type (0, 0), BuildingBlock: CIFDUS_clean_linker_0, # of connection points: 2
#     Edge 17, Type (0, 0), BuildingBlock: CIFDUS_clean_linker_0, # of connection points: 2
#     Edge 18, Type (0, 0), BuildingBlock: CIFDUS_clean_linker_0, # of connection points: 2
#     Edge 19, Type (0, 0), BuildingBlock: CIFDUS_clean_linker_0, # of connection points: 2
#     Edge 20, Type (0, 0), BuildingBlock: CIFDUS_clean_linker_0, # of connection points: 2
#     Edge 21, Type (0, 0), BuildingBlock: CIFDUS_clean_linker_0, # of connection points: 2
#     Edge 22, Type (0, 0), BuildingBlock: CIFDUS_clean_linker_0, # of connection points: 2
#     Edge 23, Type (0, 0), BuildingBlock: CIFDUS_clean_linker_0, # of connection points: 2
#     Edge 24, Type (0, 0), BuildingBlock: CIFDUS_clean_linker_0, # of connection points: 2
#     Edge 25, Type (0, 0), BuildingBlock: CIFDUS_clean_linker_0, # of connection points: 2
#     Edge 26, Type (0, 0), BuildingBlock: CIFDUS_clean_linker_0, # of connection points: 2
#     Edge 27, Type (0, 0), BuildingBlock: CIFDUS_clean_linker_0, # of connection points: 2
#     Edge 28, Type (0, 0), BuildingBlock: CIFDUS_clean_linker_0, # of connection points: 2
#     Edge 29, Type (0, 0), BuildingBlock: CIFDUS_clean_linker_0, # of connection points: 2
#     Edge 30, Type (0, 0), BuildingBlock: CIFDUS_clean_linker_0, # of connection points: 2
#     Edge 31, Type (0, 0), BuildingBlock: CIFDUS_clean_linker_0, # of connection points: 2
#     Edge 32, Type (0, 0), BuildingBlock: CIFDUS_clean_linker_0, # of connection points: 2
#     Edge 33, Type (0, 0), BuildingBlock: CIFDUS_clean_linker_0, # of connection points: 2
#     Edge 34, Type (0, 0), BuildingBlock: CIFDUS_clean_linker_0, # of connection points: 2
#     Edge 35, Type (0, 0), BuildingBlock: CIFDUS_clean_linker_0, # of connection points: 2
#     Edge 36, Type (0, 0), BuildingBlock: CIFDUS_clean_linker_0, # of connection points: 2
#     Edge 37, Type (0, 0), BuildingBlock: CIFDUS_clean_linker_0, # of connection points: 2
#     Edge 38, Type (0, 0), BuildingBlock: CIFDUS_clean_linker_0, # of connection points: 2
#     Edge 39, Type (0, 0), BuildingBlock: CIFDUS_clean_linker_0, # of connection points: 2
#     Edge 40, Type (0, 0), BuildingBlock: CIFDUS_clean_linker_0, # of connection points: 2
#     Edge 41, Type (0, 0), BuildingBlock: CIFDUS_clean_linker_0, # of connection points: 2
#     Edge 42, Type (0, 0), BuildingBlock: CIFDUS_clean_linker_0, # of connection points: 2
#     Edge 43, Type (0, 0), BuildingBlock: CIFDUS_clean_linker_0, # of connection points: 2
#     Edge 44, Type (0, 0), BuildingBlock: CIFDUS_clean_linker_0, # of connection points: 2
#     Edge 45, Type (0, 0), BuildingBlock: CIFDUS_clean_linker_0, # of connection points: 2
#     Edge 46, Type (0, 0), BuildingBlock: CIFDUS_clean_linker_0, # of connection points: 2
#     Edge 47, Type (0, 0), BuildingBlock: CIFDUS_clean_linker_0, # of connection points: 2
# Relax obj value: 0.096
# Max RMSD: 0.214
# Mean RMSD: 0.214
data_MOF--net-wjd--node1-HISSIN_clean_sbu_0--edge1-CIFDUS_clean_linker_0
_symmetry_space_group_name_H-M    P1
_symmetry_Int_Tables_number       1
_symmetry_cell_setting            triclinic
loop_
_symmetry_equiv_pos_as_xyz
'x, y, z'
_cell_length_a     36.585284
_cell_length_b     36.644623
_cell_length_c     47.318139
_cell_angle_alpha  89.967216
_cell_angle_beta   89.873139
_cell_angle_gamma 119.85177
loop_
_atom_site_label
_atom_site_type_symbol
_atom_site_fract_x
_atom_site_fract_y
_atom_site_fract_z
_atom_type_partial_charge
Eu0 Eu 0.39042 0.18559 0.10311 0.0
Eu1 Eu 0.33001 0.09056 0.12932 0.0
C2 C 0.38805 0.1659 0.17032 0.0
C3 C 0.47484 0.30228 0.09083 0.0
C4 C 0.48417 0.33915 0.07608 0.0
C5 C 0.53779 0.34268 0.11927 0.0
C6 C 0.52011 0.37748 0.08272 0.0
C7 C 0.50175 0.30434 0.11263 0.0
C8 C 0.54762 0.37979 0.10429 0.0
C9 C 0.43686 0.26226 0.08324 0.0
O10 O 0.29573 0.12774 0.13518 0.0
O11 O 0.32345 0.16984 0.09657 0.0
C12 C 0.29454 0.15353 0.11631 0.0
O13 O 0.37428 0.13744 0.06739 0.0
O14 O 0.28359 0.0482 0.16025 0.0
O15 O 0.30458 0.02282 0.1266 0.0
O16 O 0.31022 0.08863 0.08455 0.0
C17 C 0.33754 0.10279 0.0639 0.0
O18 O 0.43616 0.16711 0.11941 0.0
O19 O 0.39325 0.09539 0.11745 0.0
O20 O 0.3738 0.12617 0.16444 0.0
O21 O 0.44227 0.23072 0.07649 0.0
O22 O 0.40371 0.25053 0.09918 0.0
O23 O 0.38923 0.19273 0.15119 0.0
C24 C 0.23292 0.98247 0.14103 0.0
C25 C 0.2185 0.97053 0.1132 0.0
C26 C 0.16231 0.93347 0.15824 0.0
C27 C 0.17651 0.94028 0.10796 0.0
C28 C 0.2044 0.96369 0.16347 0.0
C29 C 0.14786 0.92127 0.13041 0.0
C30 C 0.27731 1.01436 0.14695 0.0
C31 C 0.43124 0.12918 0.11854 0.0
H32 H 0.46376 0.33824 0.05921 0.0
H33 H 0.55787 0.34327 0.13625 0.0
H34 H 0.52684 0.40511 0.07047 0.0
H35 H 0.49494 0.2763 0.12444 0.0
H36 H 0.23965 0.98449 0.09543 0.0
H37 H 0.14127 0.91912 0.17605 0.0
H38 H 0.1664 0.93206 0.08626 0.0
H39 H 0.21474 0.9723 0.18511 0.0
Eu40 Eu 0.81567 0.72601 0.37739 0.0
Eu41 Eu 0.84825 0.66609 0.40939 0.0
C42 C 0.8137 0.71849 0.44495 0.0
C43 C 0.80681 0.82297 0.35939 0.0
C44 C 0.84882 0.85449 0.36411 0.0
C45 C 0.78508 0.87544 0.36535 0.0
C46 C 0.85885 0.89614 0.36925 0.0
C47 C 0.77513 0.83391 0.35999 0.0
C48 C 0.82705 0.90711 0.37011 0.0
C49 C 0.79535 0.77859 0.35438 0.0
O50 O 0.77795 0.62676 0.40794 0.0
O51 O 0.76172 0.65827 0.37157 0.0
C52 C 0.75188 0.62585 0.38853 0.0
O53 O 0.84678 0.70649 0.3445 0.0
O54 O 0.84213 0.61741 0.43916 0.0
O55 O 0.89809 0.65017 0.41337 0.0
O56 O 0.83302 0.64369 0.36387 0.0
C57 C 0.84139 0.66859 0.34188 0.0
O58 O 0.8801 0.77099 0.39547 0.0
O59 O 0.9057 0.72534 0.39534 0.0
O60 O 0.84209 0.70617 0.44422 0.0
O61 O 0.82483 0.77185 0.34465 0.0
O62 O 0.77294 0.75157 0.37395 0.0
O63 O 0.79381 0.71886 0.42213 0.0
C64 C 0.87783 0.5804 0.42611 0.0
C65 C 0.85352 0.55297 0.40444 0.0
C66 C 0.90664 0.53452 0.43639 0.0
C67 C 0.85566 0.51647 0.39885 0.0
C68 C 0.90441 0.57092 0.44197 0.0
C69 C 0.88227 0.5067 0.41476 0.0
C70 C 0.87768 0.62003 0.43158 0.0
C71 C 0.9118 0.76367 0.3961 0.0
H72 H 0.87394 0.84695 0.36404 0.0
H73 H 0.75987 0.88284 0.36556 0.0
H74 H 0.8914 0.9196 0.37314 0.0
H75 H 0.74254 0.81022 0.35643 0.0
H76 H 0.83316 0.55996 0.39172 0.0
H77 H 0.92701 0.52786 0.44933 0.0
H78 H 0.83681 0.49615 0.38181 0.0
H79 H 0.92364 0.59184 0.45868 0.0
Eu80 Eu 0.8604 0.20068 0.10559 0.0
Eu81 Eu 0.95635 0.24176 0.13317 0.0
C82 C 0.87806 0.21938 0.17264 0.0
C83 C 0.7425 0.16463 0.09303 0.0
C84 C 0.73887 0.18705 0.11587 0.0
C85 C 0.66787 0.13643 0.08294 0.0
C86 C 0.70009 0.18445 0.12203 0.0
C87 C 0.70665 0.13908 0.0768 0.0
C88 C 0.66406 0.15938 0.1055 0.0
C89 C 0.78319 0.16741 0.08581 0.0
O90 O 0.92225 0.17135 0.14085 0.0
O91 O 0.8781 0.15006 0.1028 0.0
C92 C 0.89694 0.1417 0.1233 0.0
O93 O 0.90773 0.2293 0.06912 0.0
O94 O 0.99782 0.24561 0.1675 0.0
O95 O 1.02494 0.28013 0.12874 0.0
O96 O 0.96064 0.22237 0.08919 0.0
C97 C 0.94453 0.23092 0.0673 0.0
O98 O 0.87692 0.26563 0.1199 0.0
O99 O 0.94928 0.29761 0.11894 0.0
O100 O 0.91687 0.24836 0.16672 0.0
O101 O 0.81403 0.20422 0.07828 0.0
O102 O 0.79598 0.14779 0.10254 0.0
O103 O 0.85345 0.19225 0.15344 0.0
C104 C 0.06099 0.24923 0.15103 0.0
C105 C 0.04594 0.20589 0.15445 0.0
C106 C 0.13152 0.25978 0.14337 0.0
C107 C 0.07347 0.18975 0.1526 0.0
C108 C 0.10401 0.27596 0.14545 0.0
C109 C 0.11662 0.21645 0.14697 0.0
C110 C 1.0321 0.26666 0.15248 0.0
C111 C 0.91422 0.29975 0.11883 0.0
H112 H 0.76607 0.20672 0.12881 0.0
H113 H 0.64115 0.11727 0.06951 0.0
H114 H 0.69837 0.20215 0.1398 0.0
H115 H 0.70875 0.12145 0.05911 0.0
H116 H 1.0128 0.18437 0.15839 0.0
H117 H 0.16459 0.28131 0.13926 0.0
H118 H 0.06082 0.1562 0.15511 0.0
H119 H 0.11636 0.30942 0.14263 0.0
Eu120 Eu 0.33641 0.1021 0.37508 0.0
Eu121 Eu 0.3956 0.1964 0.40279 0.0
C122 C 0.3439 0.11204 0.44172 0.0
C123 C 0.23603 0.99987 0.35941 0.0
C124 C 0.21892 0.98811 0.38677 0.0
C125 C 0.1651 0.95966 0.3401 0.0
C126 C 0.17543 0.96215 0.39071 0.0
C127 C 0.20865 0.98534 0.33615 0.0
C128 C 0.14792 0.94767 0.36743 0.0
C129 C 0.28185 0.02847 0.35483 0.0
O130 O 0.44131 0.17782 0.3858 0.0
O131 O 0.39903 0.10586 0.38637 0.0
C132 C 0.4368 0.13995 0.3861 0.0
O133 O 0.38082 0.14094 0.34071 0.0
O134 O 0.44837 0.24241 0.42809 0.0
O135 O 0.40861 0.26142 0.40623 0.0
O136 O 0.3877 0.20341 0.3555 0.0
C137 C 0.38952 0.1795 0.33538 0.0
O138 O 0.30137 0.1388 0.3728 0.0
O139 O 0.32867 0.17844 0.41235 0.0
O140 O 0.37864 0.14907 0.4392 0.0
O141 O 0.29238 0.06384 0.34192 0.0
O142 O 0.30695 0.03361 0.37593 0.0
O143 O 0.31794 0.09509 0.42054 0.0
C144 C 0.48039 0.31385 0.4125 0.0
C145 C 0.48198 0.3522 0.41834 0.0
C146 C 0.55163 0.35309 0.39335 0.0
C147 C 0.51824 0.39068 0.41214 0.0
C148 C 0.5153 0.31464 0.39943 0.0
C149 C 0.55391 0.39168 0.40007 0.0
C150 C 0.44274 0.27375 0.42108 0.0
C151 C 0.29915 0.16206 0.39314 0.0
H152 H 0.23906 0.99919 0.4052 0.0
H153 H 0.14491 0.94868 0.3217 0.0
H154 H 0.16324 0.95389 0.41205 0.0
H155 H 0.22098 0.99404 0.31487 0.0
H156 H 0.45541 0.3524 0.42835 0.0
H157 H 0.57826 0.35261 0.3837 0.0
H158 H 0.51892 0.41963 0.41785 0.0
H159 H 0.51482 0.28557 0.39439 0.0
Eu160 Eu 0.84146 0.65875 0.10867 0.0
Eu161 Eu 0.80042 0.71373 0.13681 0.0
C162 C 0.83038 0.6643 0.1764 0.0
C163 C 0.87312 0.57298 0.0952 0.0
C164 C 0.90839 0.57453 0.10832 0.0
C165 C 0.84201 0.49678 0.09122 0.0
C166 C 0.91033 0.53765 0.11299 0.0
C167 C 0.84005 0.53356 0.08661 0.0
C168 C 0.87711 0.49815 0.10454 0.0
C169 C 0.87229 0.61251 0.08884 0.0
O170 O 0.87134 0.7517 0.14144 0.0
O171 O 0.89175 0.72663 0.10383 0.0
C172 C 0.90029 0.75525 0.12333 0.0
O173 O 0.81124 0.67676 0.07297 0.0
O174 O 0.80187 0.75812 0.16843 0.0
O175 O 0.75516 0.73603 0.13521 0.0
O176 O 0.81881 0.73704 0.09252 0.0
C177 C 0.81044 0.71229 0.07071 0.0
O178 O 0.77828 0.61127 0.12615 0.0
O179 O 0.74535 0.65047 0.12327 0.0
O180 O 0.79942 0.67193 0.17195 0.0
O181 O 0.83676 0.60923 0.08053 0.0
O182 O 0.89282 0.64447 0.10572 0.0
O183 O 0.8554 0.66593 0.15578 0.0
C184 C 0.7852 0.80785 0.14901 0.0
C185 C 0.78567 0.82138 0.12113 0.0
C186 C 0.80899 0.87941 0.16522 0.0
C187 C 0.79766 0.86336 0.11535 0.0
C188 C 0.79695 0.83732 0.17099 0.0
C189 C 0.80947 0.89302 0.1373 0.0
C190 C 0.77364 0.76362 0.1553 0.0
C191 C 0.74376 0.6137 0.12435 0.0
H192 H 0.93473 0.60438 0.11486 0.0
H193 H 0.81612 0.46722 0.08385 0.0
H194 H 0.93772 0.54012 0.12351 0.0
H195 H 0.8127 0.53106 0.07599 0.0
H196 H 0.77691 0.79959 0.10367 0.0
H197 H 0.81733 0.90115 0.18271 0.0
H198 H 0.79816 0.87265 0.09355 0.0
H199 H 0.79687 0.82778 0.19267 0.0
Eu200 Eu 0.96486 0.25432 0.37875 0.0
Eu201 Eu 0.86688 0.21066 0.40327 0.0
C202 C 0.94858 0.2385 0.44351 0.0
C203 C 0.07191 0.26591 0.36341 0.0
C204 C 0.07188 0.24275 0.38712 0.0
C205 C 0.12671 0.25561 0.34213 0.0
C206 C 0.09923 0.22637 0.38837 0.0
C207 C 0.09955 0.2722 0.34097 0.0
C208 C 0.12686 0.23242 0.36582 0.0
C209 C 0.04207 0.28194 0.36128 0.0
O210 O 0.8841 0.27671 0.39197 0.0
O211 O 0.9563 0.30847 0.39497 0.0
C212 C 0.92121 0.31057 0.39479 0.0
O213 O 0.92895 0.26577 0.34532 0.0
O214 O 0.81891 0.2101 0.43124 0.0
O215 O 0.80172 0.15855 0.40221 0.0
O216 O 0.86394 0.20894 0.35493 0.0
C217 C 0.89047 0.2386 0.3376 0.0
O218 O 0.93171 0.18454 0.36863 0.0
O219 O 0.88465 0.16016 0.40527 0.0
O220 O 0.91209 0.23746 0.44101 0.0
O221 O 1.009 0.25993 0.34553 0.0
O222 O 0.03265 0.29418 0.38476 0.0
O223 O 0.96535 0.23031 0.42184 0.0
C224 C 0.74812 0.17554 0.41332 0.0
C225 C 0.7143 0.13967 0.40102 0.0
C226 C 0.70392 0.20808 0.41459 0.0
C227 C 0.67586 0.1381 0.39539 0.0
C228 C 0.74233 0.20969 0.42011 0.0
C229 C 0.67007 0.17234 0.40205 0.0
C230 C 0.78808 0.17594 0.42029 0.0
C231 C 0.90546 0.15359 0.38518 0.0
H232 H 0.05043 0.23695 0.40457 0.0
H233 H 0.14788 0.26126 0.32454 0.0
H234 H 0.09817 0.20828 0.40678 0.0
H235 H 0.09994 0.28977 0.32243 0.0
H236 H 0.71753 0.11262 0.39581 0.0
H237 H 0.70063 0.23481 0.42059 0.0
H238 H 0.65086 0.1102 0.38551 0.0
H239 H 0.76734 0.23764 0.42995 0.0
Eu240 Eu 0.10372 0.32651 0.63223 0.0
Eu241 Eu 0.20189 0.38203 0.60766 0.0
C242 C 0.12056 0.32805 0.56733 0.0
C243 C 0.99484 0.23119 0.64243 0.0
C244 C 0.99088 0.21399 0.61529 0.0
C245 C 0.94 0.16264 0.65921 0.0
C246 C 0.96137 0.17176 0.61008 0.0
C247 C 0.96925 0.20508 0.66434 0.0
C248 C 0.93552 0.14553 0.63196 0.0
C249 C 1.02595 0.27587 0.64819 0.0
O250 O 0.18417 0.43017 0.6202 0.0
O251 O 0.11196 0.38967 0.61751 0.0
C252 C 0.14682 0.42681 0.61811 0.0
O253 O 0.13915 0.37187 0.66667 0.0
O254 O 0.24964 0.43086 0.5804 0.0
O255 O 0.26698 0.39449 0.60754 0.0
O256 O 0.2051 0.38233 0.65601 0.0
C257 C 0.17808 0.38384 0.67388 0.0
O258 O 0.13857 0.29147 0.64259 0.0
O259 O 0.18451 0.31392 0.60539 0.0
O260 O 0.15669 0.36361 0.56988 0.0
O261 O 0.05861 0.28288 0.66329 0.0
O262 O 0.03626 0.30199 0.62694 0.0
O263 O 0.10387 0.30303 0.58895 0.0
C264 C 0.32064 0.46423 0.59658 0.0
C265 C 0.32279 0.49331 0.61674 0.0
C266 C 0.3961 0.50872 0.58798 0.0
C267 C 0.36125 0.52999 0.62229 0.0
C268 C 0.35765 0.47211 0.58244 0.0
C269 C 0.39848 0.53846 0.60781 0.0
C270 C 0.28034 0.42577 0.58975 0.0
C271 C 0.16472 0.2869 0.62581 0.0
H272 H 1.01067 0.23312 0.59807 0.0
H273 H 0.92038 0.14338 0.67647 0.0
H274 H 0.95914 0.15947 0.58895 0.0
H275 H 0.97187 0.21754 0.68547 0.0
H276 H 0.29469 0.48778 0.62805 0.0
H277 H 0.42372 0.5142 0.57611 0.0
H278 H 0.36178 0.55172 0.638 0.0
H279 H 0.35675 0.4501 0.5668 0.0
Eu280 Eu 0.21638 0.84318 0.90422 0.0
Eu281 Eu 0.25687 0.94032 0.87847 0.0
C282 C 0.21949 0.86074 0.83746 0.0
C283 C 0.1832 0.72631 0.91829 0.0
C284 C 0.15533 0.68967 0.93315 0.0
C285 C 0.20804 0.68574 0.89195 0.0
C286 C 0.15385 0.65137 0.92758 0.0
C287 C 0.20944 0.72404 0.89753 0.0
C288 C 0.18031 0.64882 0.90697 0.0
C289 C 0.1833 0.76603 0.9241 0.0
O290 O 0.19082 0.92155 0.89389 0.0
O291 O 0.16132 0.84997 0.89132 0.0
C292 C 0.15752 0.88362 0.89248 0.0
O293 O 0.22383 0.88864 0.94007 0.0
O294 O 0.27372 0.98808 0.84539 0.0
O295 O 0.28422 1.00649 0.88938 0.0
O296 O 0.28324 0.94172 0.92117 0.0
C297 C 0.25824 0.92563 0.94285 0.0
O298 O 0.2855 0.86638 0.90008 0.0
O299 O 0.3093 0.92464 0.87094 0.0
O300 O 0.22089 0.89644 0.84304 0.0
O301 O 0.16543 0.7778 0.90521 0.0
O302 O 0.21812 0.79775 0.93359 0.0
O303 O 0.22627 0.83922 0.85704 0.0
C304 C 0.26587 0.0462 0.85995 0.0
C305 C 0.22245 0.02971 0.85561 0.0
C306 C 0.27434 0.11607 0.86456 0.0
C307 C 0.20509 0.05633 0.85588 0.0
C308 C 0.29165 0.08959 0.86405 0.0
C309 C 0.23077 0.09973 0.86092 0.0
C310 C 0.28419 1.01858 0.86351 0.0
C311 C 0.31484 0.89585 0.88413 0.0
H312 H 0.13465 0.69069 0.94917 0.0
H313 H 0.22852 0.68502 0.87568 0.0
H314 H 0.13254 0.62394 0.93985 0.0
H315 H 0.2309 0.75184 0.8856 0.0
H316 H 0.20185 0.99617 0.85285 0.0
H317 H 0.29504 0.14939 0.86815 0.0
H318 H 0.17139 0.04275 0.85321 0.0
H319 H 0.32513 0.10289 0.86769 0.0
Eu320 Eu 0.73234 0.79779 0.63612 0.0
Eu321 Eu 0.67672 0.83758 0.60758 0.0
C322 C 0.73102 0.8075 0.57006 0.0
C323 C 0.83096 0.79223 0.65372 0.0
C324 C 0.84748 0.76659 0.64529 0.0
C325 C 0.90285 0.85116 0.65787 0.0
C326 C 0.89117 0.78302 0.64308 0.0
C327 C 0.85917 0.83481 0.65985 0.0
C328 C 0.91949 0.82553 0.64942 0.0
C329 C 0.78454 0.77444 0.65549 0.0
O330 O 0.62879 0.77305 0.62297 0.0
O331 O 0.66949 0.74128 0.62289 0.0
C332 C 0.63221 0.73899 0.62253 0.0
O333 O 0.68701 0.79252 0.67007 0.0
O334 O 0.62625 0.833 0.58042 0.0
O335 O 0.66509 0.89042 0.60343 0.0
O336 O 0.67933 0.84792 0.65508 0.0
C337 C 0.67715 0.8218 0.67501 0.0
O338 O 0.7675 0.86827 0.643 0.0
O339 O 0.74494 0.88816 0.60406 0.0
O340 O 0.6952 0.80782 0.57197 0.0
O341 O 0.77101 0.7954 0.67034 0.0
O342 O 0.76345 0.76007 0.63203 0.0
O343 O 0.75587 0.81709 0.59192 0.0
C344 C 0.59454 0.87313 0.59461 0.0
C345 C 0.58501 0.89988 0.57898 0.0
C346 C 0.53188 0.85261 0.62329 0.0
C347 C 0.54905 0.90279 0.58526 0.0
C348 C 0.5679 0.84978 0.617 0.0
C349 C 0.52168 0.87888 0.60734 0.0
C350 C 0.63228 0.87009 0.58723 0.0
C351 C 0.77195 0.89729 0.62476 0.0
H352 H 0.82652 0.73373 0.64038 0.0
H353 H 0.92362 0.88413 0.66256 0.0
H354 H 0.90281 0.76223 0.63677 0.0
H355 H 0.84753 0.85564 0.66608 0.0
H356 H 0.60521 0.91826 0.56164 0.0
H357 H 0.51197 0.83414 0.6407 0.0
H358 H 0.54209 0.92291 0.57229 0.0
H359 H 0.57483 0.82919 0.6295 0.0
Eu360 Eu 0.20344 0.37302 0.90584 0.0
Eu361 Eu 0.10875 0.3157 0.87745 0.0
C362 C 0.18732 0.37121 0.83851 0.0
C363 C 0.32068 0.45787 0.91961 0.0
C364 C 0.34214 0.465 0.89363 0.0
C365 C 0.37769 0.52492 0.93651 0.0
C366 C 0.38104 0.50191 0.88916 0.0
C367 C 0.3391 0.48815 0.94097 0.0
C368 C 0.39915 0.53256 0.9105 0.0
C369 C 0.28022 0.41872 0.92562 0.0
O370 O 0.14417 0.27944 0.87342 0.0
O371 O 0.18528 0.30556 0.91262 0.0
C372 C 0.16847 0.27688 0.89287 0.0
O373 O 0.15506 0.35466 0.94181 0.0
O374 O 0.06886 0.27299 0.84429 0.0
O375 O 0.04054 0.28938 0.87863 0.0
O376 O 0.10202 0.29443 0.92219 0.0
C377 C 0.11824 0.31959 0.9438 0.0
O378 O 0.1861 0.42002 0.89007 0.0
O379 O 0.11398 0.37848 0.89025 0.0
O380 O 0.14826 0.36114 0.8438 0.0
O381 O 0.24835 0.42285 0.93377 0.0
O382 O 0.2687 0.38677 0.90866 0.0
O383 O 0.21144 0.36891 0.85826 0.0
C384 C 1.00168 0.22049 0.86031 0.0
C385 C 1.00673 0.19497 0.8803 0.0
C386 C 0.93349 0.16131 0.84771 0.0
C387 C 0.9751 0.15289 0.88414 0.0
C388 C 0.96506 0.20322 0.8439 0.0
C389 C 0.93779 0.13567 0.86812 0.0
C390 C 0.03384 0.26523 0.85673 0.0
C391 C 0.1484 0.41599 0.89047 0.0
H392 H 0.32889 0.44216 0.87674 0.0
H393 H 0.3909 0.54737 0.95362 0.0
H394 H 0.39649 0.50684 0.86884 0.0
H395 H 0.32364 0.48328 0.9613 0.0
H396 H 0.03487 0.20776 0.89319 0.0
H397 H 0.90556 0.14898 0.83466 0.0
H398 H 0.97937 0.13423 0.90016 0.0
H399 H 0.96067 0.22231 0.82826 0.0
Eu400 Eu 0.25915 0.95135 0.63385 0.0
Eu401 Eu 0.22316 0.85707 0.60554 0.0
C402 C 0.25659 0.94203 0.56734 0.0
C403 C 0.2686 0.0579 0.64752 0.0
C404 C 0.25778 0.06342 0.61999 0.0
C405 C 0.25413 0.11244 0.664 0.0
C406 C 0.24578 0.09352 0.61447 0.0
C407 C 0.26646 0.0825 0.66948 0.0
C408 C 0.24391 0.11852 0.63637 0.0
C409 C 0.28147 0.02627 0.65357 0.0
O410 O 0.28737 0.87408 0.62119 0.0
O411 O 0.31735 0.94613 0.62231 0.0
C412 C 0.32074 0.9118 0.62176 0.0
O413 O 0.26624 0.91326 0.66802 0.0
O414 O 0.22861 0.81163 0.57848 0.0
O415 O 0.17065 0.79271 0.60141 0.0
O416 O 0.21303 0.8488 0.65342 0.0
C417 C 0.23912 0.87363 0.67304 0.0
O418 O 0.18746 0.91485 0.63821 0.0
O419 O 0.17393 0.8755 0.59843 0.0
O420 O 0.25456 0.90511 0.56972 0.0
O421 O 0.25326 0.99153 0.66568 0.0
O422 O 0.3017 1.01923 0.63349 0.0
O423 O 0.24696 0.9585 0.58857 0.0
C424 C 0.18828 0.73979 0.59207 0.0
C425 C 0.16206 0.70417 0.57589 0.0
C426 C 0.20822 0.69696 0.62033 0.0
C427 C 0.15912 0.66527 0.58169 0.0
C428 C 0.21109 0.73586 0.61451 0.0
C429 C 0.18244 0.66114 0.60385 0.0
C430 C 0.19137 0.78057 0.58511 0.0
C431 C 0.16105 0.89102 0.6185 0.0
H432 H 0.25859 0.04446 0.60271 0.0
H433 H 0.25337 0.13138 0.6813 0.0
H434 H 0.23757 0.09695 0.59304 0.0
H435 H 0.27447 0.07865 0.69088 0.0
H436 H 0.14414 0.70653 0.55849 0.0
H437 H 0.22621 0.69495 0.6378 0.0
H438 H 0.13941 0.6387 0.56831 0.0
H439 H 0.23129 0.76291 0.6274 0.0
Eu440 Eu 0.67411 0.83011 0.90676 0.0
Eu441 Eu 0.73116 0.79341 0.87677 0.0
C442 C 0.67379 0.81795 0.83977 0.0
C443 C 0.58934 0.86211 0.91987 0.0
C444 C 0.55526 0.84409 0.93881 0.0
C445 C 0.54832 0.88243 0.88952 0.0
C446 C 0.51809 0.84484 0.93312 0.0
C447 C 0.58552 0.8815 0.89516 0.0
C448 C 0.51398 0.86385 0.90834 0.0
C449 C 0.62895 0.86193 0.9268 0.0
O450 O 0.77649 0.85786 0.89452 0.0
O451 O 0.73291 0.88483 0.88897 0.0
C452 C 0.77098 0.89038 0.89129 0.0
O453 O 0.71416 0.82466 0.94208 0.0
O454 O 0.77739 0.80137 0.84458 0.0
O455 O 0.7564 0.75043 0.87462 0.0
O456 O 0.72223 0.77248 0.92171 0.0
C457 C 0.72408 0.79457 0.94388 0.0
O458 O 0.63284 0.75994 0.90697 0.0
O459 O 0.66316 0.73966 0.87207 0.0
O460 O 0.7109 0.82118 0.84212 0.0
O461 O 0.62569 0.82679 0.93589 0.0
O462 O 0.66074 0.88173 0.90959 0.0
O463 O 0.64986 0.81242 0.86192 0.0
C464 C 0.82767 0.78353 0.86013 0.0
C465 C 0.85332 0.81739 0.87794 0.0
C466 C 0.88622 0.77109 0.85251 0.0
C467 C 0.89521 0.82797 0.88305 0.0
C468 C 0.84449 0.76067 0.84735 0.0
C469 C 0.91205 0.80465 0.8706 0.0
C470 C 0.78345 0.77179 0.85477 0.0
C471 C 0.63109 0.73186 0.88891 0.0
H472 H 0.5574 0.82949 0.95818 0.0
H473 H 0.54619 0.89705 0.87016 0.0
H474 H 0.4926 0.8308 0.94835 0.0
H475 H 0.61123 0.89596 0.88012 0.0
H476 H 0.84084 0.83542 0.88805 0.0
H477 H 0.89832 0.75284 0.84224 0.0
H478 H 0.91406 0.85372 0.89726 0.0
H479 H 0.82529 0.73461 0.83343 0.0
H480 H 0.17819 0.2356 0.10766 0.0
H481 H 0.12076 0.15814 0.18117 0.0
H482 H 0.16935 0.13057 0.1779 0.0
H483 H 0.22984 0.12988 0.15474 0.0
H484 H 0.28621 0.20764 0.08098 0.0
H485 H 0.23671 0.23348 0.08392 0.0
C486 C 0.17645 0.21288 0.12309 0.0
C487 C 0.14594 0.19921 0.14472 0.0
C488 C 0.20443 0.19707 0.12105 0.0
C489 C 0.14371 0.16908 0.16418 0.0
C490 C 0.17164 0.1534 0.16239 0.0
C491 C 0.23114 0.15228 0.13922 0.0
C492 C 0.26202 0.16672 0.11773 0.0
C493 C 0.20232 0.16728 0.14097 0.0
C494 C 0.26302 0.19581 0.09782 0.0
C495 C 0.23467 0.2108 0.09946 0.0
H496 H 0.10865 0.88025 0.40268 0.0
H497 H 0.08304 0.95162 0.34134 0.0
H498 H 1.0072 0.90359 0.34675 0.0
H499 H 0.94786 0.83848 0.3672 0.0
H500 H 0.9751 0.76584 0.42646 0.0
H501 H 0.05011 0.81747 0.42415 0.0
C502 C 0.08649 0.88567 0.39078 0.0
C503 C 0.10163 0.9195 0.3716 0.0
C504 C 0.04299 0.85764 0.39373 0.0
C505 C 0.07234 0.92557 0.35601 0.0
C506 C 1.02891 0.89821 0.35921 0.0
C507 C 0.97025 0.83453 0.37996 0.0
C508 C 0.95599 0.79855 0.3971 0.0
C509 C 1.01379 0.86378 0.37778 0.0
C510 C 0.98536 0.79331 0.41313 0.0
C511 C 1.02829 0.82275 0.41175 0.0
H512 H 0.83695 0.07029 0.09732 0.0
H513 H 0.93512 0.11359 0.16016 0.0
H514 H 0.91713 0.04108 0.16988 0.0
H515 H 0.87276 0.96499 0.16115 0.0
H516 H 0.77347 0.92188 0.09918 0.0
H517 H 0.79298 0.99445 0.08843 0.0
C518 C 0.85467 0.06398 0.11301 0.0
C519 C 0.88741 0.0976 0.12794 0.0
C520 C 0.8439 0.02205 0.11874 0.0
C521 C 0.90975 0.08852 0.14832 0.0
C522 C 0.89943 0.04696 0.15395 0.0
C523 C 0.85514 0.9714 0.14545 0.0
C524 C 0.82166 0.93771 0.13101 0.0
C525 C 0.86634 1.0134 0.13946 0.0
C526 C 0.79972 0.94694 0.1104 0.0
C527 C 0.81072 0.98854 0.10432 0.0
H528 H 0.24617 0.15434 0.35001 0.0
H529 H 0.27671 0.19603 0.43642 0.0
H530 H 0.22535 0.22003 0.43592 0.0
H531 H 0.17409 0.23239 0.41036 0.0
H532 H 0.14447 0.19231 0.32366 0.0
H533 H 0.19323 0.16493 0.32481 0.0
C534 C 0.24127 0.16827 0.36882 0.0
C535 C 0.26537 0.17335 0.3932 0.0
C536 C 0.21209 0.18275 0.36827 0.0
C537 C 0.25878 0.19182 0.41731 0.0
C538 C 0.2294 0.20563 0.41706 0.0
C539 C 0.17794 0.21725 0.39181 0.0
C540 C 0.15569 0.21461 0.36693 0.0
C541 C 0.20623 0.20174 0.39256 0.0
C542 C 0.16157 0.19534 0.34298 0.0
C543 C 0.18931 0.17944 0.34366 0.0
H544 H 0.07648 0.91156 0.15591 0.0
H545 H 0.11902 0.85684 0.09221 0.0
H546 H 0.04637 0.80218 0.08333 0.0
H547 H 0.97084 0.76831 0.09475 0.0
H548 H 0.92851 0.82235 0.15917 0.0
H549 H 1.00082 0.8785 0.16668 0.0
C550 C 0.0699 0.88753 0.1402 0.0
C551 C 0.10332 0.88839 0.12481 0.0
C552 C 1.02799 0.85593 0.13531 0.0
C553 C 0.09401 0.85733 0.10418 0.0
C554 C 0.05242 0.82586 0.09918 0.0
C555 C 0.97732 0.7925 0.1103 0.0
C556 C 0.94408 0.79087 0.12639 0.0
C557 C 1.01915 0.82469 0.11471 0.0
C558 C 0.95331 0.82258 0.14649 0.0
C559 C 0.99475 0.85478 0.15086 0.0
H560 H 0.89201 0.9806 0.34912 0.0
H561 H 0.78513 0.93262 0.40554 0.0
H562 H 0.8005 1.00419 0.41566 0.0
H563 H 0.8435 0.08039 0.40808 0.0
H564 H 0.94979 0.12885 0.35105 0.0
H565 H 0.93568 0.05735 0.34186 0.0
C566 C 0.8723 0.98584 0.3638 0.0
C567 C 0.83734 0.95113 0.37645 0.0
C568 C 0.88121 0.02725 0.36946 0.0
C569 C 0.81187 0.95859 0.39519 0.0
C570 C 0.82077 0.99959 0.40112 0.0
C571 C 0.8638 0.07544 0.39375 0.0
C572 C 0.89774 0.11016 0.38033 0.0
C573 C 0.85522 0.03416 0.38829 0.0
C574 C 0.9234 0.10286 0.36167 0.0
C575 C 0.91536 0.06191 0.35639 0.0
H576 H 0.19102 0.13668 0.66648 0.0
H577 H 0.27051 0.17427 0.59238 0.0
H578 H 0.25221 0.22853 0.58215 0.0
H579 H 0.21485 0.26641 0.59466 0.0
H580 H 0.1351 0.22892 0.66872 0.0
H581 H 0.15237 0.17381 0.6785 0.0
C582 C 0.20451 0.1569 0.64818 0.0
C583 C 0.23215 0.15132 0.63025 0.0
C584 C 0.19379 0.18814 0.64237 0.0
C585 C 0.24883 0.17748 0.60639 0.0
C586 C 0.23853 0.2087 0.60058 0.0
C587 C 0.20108 0.24615 0.61291 0.0
C588 C 0.17375 0.25206 0.63093 0.0
C589 C 0.21114 0.21441 0.61845 0.0
C590 C 0.1562 0.22525 0.65442 0.0
C591 C 0.16614 0.19369 0.6601 0.0
H592 H 0.08398 0.80978 0.8946 0.0
H593 H 0.13324 0.94354 0.88618 0.0
H594 H 0.06146 0.93127 0.87965 0.0
H595 H 0.98461 0.88166 0.87399 0.0
H596 H 0.93767 0.74823 0.88226 0.0
H597 H 1.00877 0.76141 0.8909 0.0
C598 C 0.07929 0.83649 0.89145 0.0
C599 C 0.11421 0.87758 0.89076 0.0
C600 C 0.03822 0.82918 0.88742 0.0
C601 C 0.10707 0.91158 0.88685 0.0
C602 C 0.06599 0.90454 0.88301 0.0
C603 C 0.98996 0.85555 0.87794 0.0
C604 C 0.95574 0.81391 0.8771 0.0
C605 C 1.03129 0.86336 0.88292 0.0
C606 C 0.96336 0.78047 0.88217 0.0
C607 C 1.00403 0.78798 0.88731 0.0
H608 H 0.79129 0.96612 0.59188 0.0
H609 H 0.82994 0.92827 0.66736 0.0
H610 H 0.88351 1.00115 0.67623 0.0
H611 H 0.91877 0.07621 0.66324 0.0
H612 H 0.8808 0.11407 0.5876 0.0
H613 H 0.828 0.04088 0.57812 0.0
C614 C 0.81154 0.97371 0.61021 0.0
C615 C 0.80627 0.94152 0.62894 0.0
C616 C 0.84249 1.01588 0.61524 0.0
C617 C 0.83304 0.95219 0.65254 0.0
C618 C 0.86374 0.99399 0.6577 0.0
C619 C 0.89879 0.06844 0.64476 0.0
C620 C 0.90371 0.10068 0.62622 0.0
C621 C 0.86854 0.02617 0.63935 0.0
C622 C 0.87796 0.08992 0.60212 0.0
C623 C 0.84761 0.04804 0.59673 0.0
H624 H 0.1449 0.21337 0.85381 0.0
H625 H 0.219 0.26501 0.92941 0.0
H626 H 0.24368 0.21467 0.92637 0.0
H627 H 0.2468 0.15774 0.90164 0.0
H628 H 0.17299 0.10454 0.82642 0.0
H629 H 0.14544 0.15322 0.83009 0.0
C630 C 0.16618 0.2134 0.86972 0.0
C631 C 0.18017 0.24335 0.89169 0.0
C632 C 0.18053 0.18411 0.8679 0.0
C633 C 0.2077 0.24266 0.91216 0.0
C634 C 0.22199 0.21383 0.91046 0.0
C635 C 0.22481 0.1569 0.88596 0.0
C636 C 0.21239 0.12789 0.8636 0.0
C637 C 0.2091 0.18482 0.88826 0.0
C638 C 0.18308 0.12656 0.84385 0.0
C639 C 0.16743 0.1545 0.8459 0.0
H640 H 0.11877 0.9098 0.65907 0.0
H641 H 0.10007 0.84307 0.58042 0.0
H642 H 1.02476 0.81749 0.58295 0.0
H643 H 0.96332 0.81218 0.60777 0.0
H644 H 0.98083 0.87849 0.6863 0.0
H645 H 0.05692 0.90614 0.68335 0.0
C646 C 0.09829 0.88992 0.64238 0.0
C647 C 0.11545 0.87842 0.61964 0.0
C648 C 0.05448 0.875 0.64393 0.0
C649 C 0.08812 0.85253 0.59826 0.0
C650 C 0.04481 0.83771 0.59966 0.0
C651 C 0.98372 0.83249 0.62435 0.0
C652 C 0.96613 0.84298 0.64729 0.0
C653 C 1.02753 0.84835 0.62251 0.0
C654 C 0.99335 0.87005 0.66827 0.0
C655 C 0.03695 0.88577 0.66666 0.0
H656 H 0.94227 0.06382 0.8776 0.0
H657 H 0.85377 0.10886 0.87058 0.0
H658 H 0.79529 0.03773 0.87752 0.0
H659 H 0.76876 0.96285 0.88485 0.0
H660 H 0.85577 0.91606 0.8921 0.0
H661 H 0.91516 0.9877 0.8862 0.0
C662 C 0.91021 0.0581 0.87782 0.0
C663 C 0.9026 0.09183 0.87325 0.0
C664 C 0.87637 1.01677 0.88191 0.0
C665 C 0.86071 0.0836 0.87345 0.0
C666 C 0.82714 0.04288 0.87761 0.0
C667 C 0.80067 0.96812 0.88525 0.0
C668 C 0.8076 0.93387 0.8889 0.0
C669 C 0.83455 1.00923 0.88168 0.0
C670 C 0.84935 0.94168 0.88936 0.0
C671 C 0.88338 0.98271 0.88593 0.0
H672 H 0.43304 0.16306 0.29663 0.0
H673 H 0.3605 0.2254 0.30712 0.0
H674 H 0.35883 0.23314 0.25562 0.0
H675 H 0.36892 0.21171 0.20741 0.0
H676 H 0.44039 0.1478 0.19858 0.0
H677 H 0.45244 0.15195 0.24938 0.0
C678 C 0.4177 0.17922 0.28763 0.0
C679 C 0.39661 0.19328 0.3055 0.0
C680 C 0.41653 0.18304 0.25819 0.0
C681 C 0.37712 0.21447 0.29371 0.0
C682 C 0.37588 0.21855 0.26426 0.0
C683 C 0.38825 0.20003 0.21662 0.0
C684 C 0.40359 0.17926 0.19938 0.0
C685 C 0.3942 0.20157 0.24621 0.0
C686 C 0.42814 0.16371 0.21152 0.0
C687 C 0.43486 0.16587 0.24057 0.0
H688 H 0.89952 0.70029 0.30023 0.0
H689 H 0.77245 0.60318 0.31855 0.0
H690 H 0.75776 0.59052 0.26787 0.0
H691 H 0.77862 0.61474 0.21845 0.0
H692 H 0.90723 0.70859 0.20035 0.0
H693 H 0.92413 0.71475 0.25074 0.0
C694 C 0.86914 0.67535 0.29304 0.0
C695 C 0.83712 0.65252 0.31288 0.0
C696 C 0.86109 0.66824 0.26394 0.0
C697 C 0.79769 0.6206 0.30353 0.0
C698 C 0.78916 0.61377 0.27458 0.0
C699 C 0.81051 0.63578 0.22561 0.0
C700 C 0.8416 0.66147 0.20592 0.0
C701 C 0.82017 0.63852 0.2546 0.0
C702 C 0.8829 0.68844 0.21522 0.0
C703 C 0.8925 0.69213 0.24401 0.0
H704 H 0.89989 0.2824 0.20969 0.0
H705 H 0.82648 0.14751 0.20244 0.0
H706 H 0.81778 0.14115 0.254 0.0
H707 H 0.84105 0.17411 0.30145 0.0
H708 H 0.9161 0.3093 0.30714 0.0
H709 H 0.91354 0.31546 0.25607 0.0
C710 C 0.88124 0.25165 0.21938 0.0
C711 C 0.86434 0.21547 0.20244 0.0
C712 C 0.87697 0.24832 0.24885 0.0
C713 C 0.83978 0.17584 0.21512 0.0
C714 C 0.83511 0.17221 0.24461 0.0
C715 C 0.8557 0.20486 0.2915 0.0
C716 C 0.87921 0.24118 0.30797 0.0
C717 C 0.85494 0.2082 0.26179 0.0
C718 C 0.89828 0.28088 0.29484 0.0
C719 C 0.89695 0.28446 0.26562 0.0
H720 H 0.22578 0.36556 0.70967 0.0
H721 H 0.15436 0.43002 0.70483 0.0
H722 H 0.15657 0.43735 0.75603 0.0
H723 H 0.16846 0.41546 0.80211 0.0
H724 H 0.2379 0.34935 0.80857 0.0
H725 H 0.24751 0.35314 0.75702 0.0
C726 C 0.21193 0.38233 0.71986 0.0
C727 C 0.18955 0.39687 0.70358 0.0
C728 C 0.21238 0.38551 0.74962 0.0
C729 C 0.17138 0.41823 0.71699 0.0
C730 C 0.17249 0.4223 0.74627 0.0
C731 C 0.1865 0.40268 0.79226 0.0
C732 C 0.20199 0.38172 0.80894 0.0
C733 C 0.19124 0.40446 0.76281 0.0
C734 C 0.22573 0.36571 0.79608 0.0
C735 C 0.23089 0.36758 0.7666 0.0
H736 H 0.27582 0.86058 0.80057 0.0
H737 H 0.14737 0.83326 0.80794 0.0
H738 H 0.13931 0.82694 0.75648 0.0
H739 H 0.17253 0.84048 0.70922 0.0
H740 H 0.30352 0.87616 0.70228 0.0
H741 H 0.307 0.86732 0.75328 0.0
C742 C 0.24573 0.85178 0.79083 0.0
C743 C 0.21197 0.8466 0.80783 0.0
C744 C 0.24207 0.85027 0.76117 0.0
C745 C 0.17348 0.83665 0.79513 0.0
C746 C 0.16902 0.83341 0.76573 0.0
C747 C 0.20132 0.84488 0.71887 0.0
C748 C 0.2376 0.85845 0.70215 0.0
C749 C 0.20356 0.84169 0.74845 0.0
C750 C 0.27516 0.86532 0.71485 0.0
C751 C 0.27721 0.86054 0.74401 0.0
H752 H 0.63146 0.76303 0.71461 0.0
H753 H 0.70724 0.89689 0.70164 0.0
H754 H 0.70788 0.9087 0.75259 0.0
H755 H 0.69604 0.87969 0.80109 0.0
H756 H 0.61787 0.74623 0.81396 0.0
H757 H 0.60812 0.73531 0.76284 0.0
C758 C 0.64723 0.79479 0.72298 0.0
C759 C 0.6697 0.82903 0.7046 0.0
C760 C 0.64708 0.80131 0.75224 0.0
C761 C 0.6897 0.8701 0.71547 0.0
C762 C 0.69029 0.87683 0.7446 0.0
C763 C 0.67555 0.84851 0.79262 0.0
C764 C 0.65735 0.8138 0.81099 0.0
C765 C 0.67032 0.84257 0.76324 0.0
C766 C 0.63149 0.77337 0.80004 0.0
C767 C 0.62638 0.76711 0.77085 0.0
H768 H 0.32717 1.00237 0.95236 0.0
H769 H 0.20977 0.91065 0.99083 0.0
H770 H 0.22325 0.95845 0.0307 0.0
H771 H 0.26775 0.02654 0.05403 0.0
H772 H 0.38587 0.11739 0.01601 0.0
H773 H 0.37201 0.06988 0.97601 0.0
C774 C 0.30445 0.9925 0.96948 0.0
C775 C 0.26738 0.95261 0.96849 0.0
C776 C 0.31228 1.0203 0.99217 0.0
C777 C 0.23857 0.94082 0.991 0.0
C778 C 0.2462 0.96833 0.01372 0.0
C779 C 0.2906 0.03616 0.03705 0.0
C780 C 0.32795 0.07581 0.0382 0.0
C781 C 0.2828 1.00824 0.01442 0.0
C782 C 0.35686 0.0874 0.01577 0.0
C783 C 0.34902 0.06006 0.99294 0.0
H784 H 0.75267 0.73934 0.4522 0.0
H785 H 0.85159 0.73264 0.49742 0.0
H786 H 0.83555 0.76102 0.53966 0.0
H787 H 0.79347 0.78784 0.5635 0.0
H788 H 0.69411 0.79313 0.51783 0.0
H789 H 0.71083 0.7655 0.47574 0.0
C790 C 0.77092 0.74393 0.47123 0.0
C791 C 0.80348 0.73374 0.47146 0.0
C792 C 0.76161 0.76033 0.49528 0.0
C793 C 0.82635 0.73996 0.49653 0.0
C794 C 0.81725 0.75637 0.52067 0.0
C795 C 0.77561 0.78333 0.54429 0.0
C796 C 0.74263 0.79296 0.54387 0.0
C797 C 0.78504 0.76682 0.52023 0.0
C798 C 0.71965 0.78626 0.51882 0.0
C799 C 0.72916 0.77032 0.49475 0.0
H800 H 0.03313 0.27779 0.94716 0.0
H801 H 0.1445 0.33602 0.99916 0.0
H802 H 0.10014 0.31293 0.04181 0.0
H803 H 1.02976 0.27476 0.06407 0.0
H804 H 0.91842 0.2212 0.012 0.0
H805 H 0.9628 0.24397 0.9694 0.0
C806 C 0.04779 0.28545 0.96784 0.0
C807 C 0.09221 0.30817 0.97 0.0
C808 C 1.02205 0.27282 0.99213 0.0
C809 C 0.11054 0.31856 0.99692 0.0
C810 C 0.08514 0.30522 0.02126 0.0
C811 C 1.01514 0.26794 0.04338 0.0
C812 C 0.9707 0.24566 0.04119 0.0
C813 C 0.04089 0.28206 0.0191 0.0
C814 C 0.95238 0.23802 0.01427 0.0
C815 C 0.9778 0.25102 0.98995 0.0
H816 H 0.30358 0.02719 0.44616 0.0
H817 H 0.36063 0.13989 0.49677 0.0
H818 H 0.3382 0.09683 0.53996 0.0
H819 H 0.30055 0.02712 0.56311 0.0
H820 H 0.2479 0.91455 0.51242 0.0
H821 H 0.27057 0.95764 0.4693 0.0
C822 C 0.31119 0.04241 0.46666 0.0
C823 C 0.33335 0.08684 0.46825 0.0
C824 C 0.2989 1.01743 0.49128 0.0
C825 C 0.34364 0.10592 0.49495 0.0
C826 C 0.33066 0.08125 0.51961 0.0
C827 C 0.29397 1.01196 0.54261 0.0
C828 C 0.27195 0.96753 0.54097 0.0
C829 C 0.30795 0.03699 0.51801 0.0
C830 C 0.26458 0.94851 0.51428 0.0
C831 C 0.2775 0.97319 0.48966 0.0
H832 H 0.79775 0.7789 0.06177 0.0
H833 H 0.79056 0.67089 0.01985 0.0
H834 H 0.76264 0.68682 0.97762 0.0
H835 H 0.73914 0.73008 0.9531 0.0
H836 H 0.74436 0.8374 0.99478 0.0
H837 H 0.7734 0.82232 0.03709 0.0
C838 C 0.79015 0.75876 0.04344 0.0
C839 C 0.79634 0.72357 0.04416 0.0
C840 C 0.77331 0.76769 0.01937 0.0
C841 C 0.78634 0.69812 0.02002 0.0
C842 C 0.77017 0.70715 0.99588 0.0
C843 C 0.74647 0.75038 0.97136 0.0
C844 C 0.73943 0.78502 0.97059 0.0
C845 C 0.76325 0.74162 0.99542 0.0
C846 C 0.74916 0.81052 0.9947 0.0
C847 C 0.76599 0.80198 0.01884 0.0
H848 H 0.03587 0.29027 0.56364 0.0
H849 H 0.14783 0.34059 0.51199 0.0
H850 H 0.10391 0.31642 0.4693 0.0
H851 H 0.03376 0.27937 0.44706 0.0
H852 H 0.92188 0.23272 0.49864 0.0
H853 H 0.96582 0.25683 0.54126 0.0
C854 C 0.05071 0.29577 0.54303 0.0
C855 C 0.09514 0.31658 0.54099 0.0
C856 C 1.02525 0.28231 0.51873 0.0
C857 C 0.11385 0.32461 0.51413 0.0
C858 C 0.08869 0.31062 0.48978 0.0
C859 C 1.01886 0.27427 0.46764 0.0
C860 C 0.97439 0.25358 0.46969 0.0
C861 C 0.04438 0.2891 0.49188 0.0
C862 C 0.95583 0.24825 0.49647 0.0
C863 C 0.981 0.26204 0.5208 0.0
H864 H 0.58269 0.09248 0.10271 0.0
H865 H 0.65367 0.2258 0.1199 0.0
H866 H 0.58848 0.22716 0.12702 0.0
H867 H 0.51179 0.19191 0.12652 0.0
H868 H 0.43906 0.0591 0.10839 0.0
H869 H 0.50441 0.05626 0.10352 0.0
C870 C 0.58392 0.12187 0.10794 0.0
C871 C 0.62343 0.159 0.11082 0.0
C872 C 0.54595 0.12259 0.11181 0.0
C873 C 0.62409 0.19659 0.11798 0.0
C874 C 0.58669 0.19749 0.12186 0.0
C875 C 0.50993 0.16213 0.12159 0.0
C876 C 0.47025 0.12576 0.11768 0.0
C877 C 0.54751 0.16084 0.11862 0.0
C878 C 0.46896 0.08759 0.11155 0.0
C879 C 0.50641 0.08601 0.10865 0.0
H880 H 0.73806 0.54856 0.40189 0.0
H881 H 0.67481 0.61191 0.36859 0.0
H882 H 0.60774 0.5448 0.36847 0.0
H883 H 0.56667 0.46816 0.38019 0.0
H884 H 0.63265 0.4071 0.41311 0.0
H885 H 0.69896 0.47322 0.41086 0.0
C886 C 0.70965 0.54789 0.39456 0.0
C887 C 0.71141 0.58545 0.38565 0.0
C888 C 0.67159 0.50944 0.39451 0.0
C889 C 0.67439 0.58357 0.37564 0.0
C890 C 0.63602 0.54519 0.3757 0.0
C891 C 0.59559 0.46938 0.38682 0.0
C892 C 0.59442 0.43238 0.39678 0.0
C893 C 0.63411 0.50794 0.38549 0.0
C894 C 0.63241 0.43462 0.40499 0.0
C895 C 0.67045 0.4726 0.4039 0.0
H896 H 0.84928 0.3152 0.12592 0.0
H897 H 0.98257 0.37805 0.10776 0.0
H898 H 0.9833 0.44495 0.10233 0.0
H899 H 0.94519 0.48515 0.10088 0.0
H900 H 0.81212 0.42111 0.1203 0.0
H901 H 0.81233 0.35533 0.12668 0.0
C902 C 0.87867 0.34346 0.12085 0.0
C903 C 0.91582 0.34127 0.11715 0.0
C904 C 0.87884 0.38176 0.11772 0.0
C905 C 0.95348 0.37857 0.11079 0.0
C906 C 0.95388 0.4169 0.10759 0.0
C907 C 0.9163 0.45696 0.10683 0.0
C908 C 0.87853 0.4584 0.10971 0.0
C909 C 0.91663 0.41885 0.11078 0.0
C910 C 0.84148 0.42115 0.11724 0.0
C911 C 0.84159 0.38339 0.12112 0.0
H912 H 0.51717 0.20235 0.37644 0.0
H913 H 0.44502 0.07081 0.39859 0.0
H914 H 0.51048 0.06866 0.40472 0.0
H915 H 0.58868 0.10555 0.40642 0.0
H916 H 0.65931 0.23689 0.38307 0.0
H917 H 0.59399 0.23764 0.37528 0.0
C918 C 0.51552 0.17301 0.38247 0.0
C919 C 0.47595 0.13682 0.38719 0.0
C920 C 0.5532 0.17208 0.38611 0.0
C921 C 0.47484 0.09914 0.39474 0.0
C922 C 0.51237 0.09797 0.39839 0.0
C923 C 0.58988 0.13423 0.39928 0.0
C924 C 0.62933 0.17132 0.39582 0.0
C925 C 0.55183 0.13444 0.39449 0.0
C926 C 0.62979 0.20812 0.38669 0.0
C927 C 0.59231 0.20854 0.38197 0.0
H928 H 0.55897 0.45981 0.10603 0.0
H929 H 0.62578 0.39119 0.11599 0.0
H930 H 0.69113 0.4568 0.12438 0.0
H931 H 0.73011 0.53362 0.12719 0.0
H932 H 0.66464 0.60339 0.11642 0.0
H933 H 0.59822 0.53746 0.10995 0.0
C934 C 0.58784 0.45919 0.10993 0.0
C935 C 0.58716 0.4203 0.11038 0.0
C936 C 0.62568 0.49731 0.11456 0.0
C937 C 0.62495 0.42032 0.11589 0.0
C938 C 0.66253 0.45796 0.12052 0.0
C939 C 0.70136 0.53462 0.12359 0.0
C940 C 0.70264 0.57371 0.12226 0.0
C941 C 0.66334 0.49663 0.11973 0.0
C942 C 0.6648 0.57396 0.1176 0.0
C943 C 0.62674 0.53619 0.11382 0.0
H944 H 0.95107 0.49503 0.41491 0.0
H945 H 0.81624 0.42873 0.40272 0.0
H946 H 0.81705 0.36351 0.39461 0.0
H947 H 0.85507 0.32471 0.39206 0.0
H948 H 0.98969 0.38919 0.40485 0.0
H949 H 0.98976 0.45554 0.41179 0.0
C950 C 0.92181 0.46628 0.41063 0.0
C951 C 0.88362 0.46711 0.40937 0.0
C952 C 0.92241 0.42847 0.40613 0.0
C953 C 0.84619 0.42946 0.40341 0.0
C954 C 0.84656 0.39196 0.39894 0.0
C955 C 0.88463 0.35318 0.3963 0.0
C956 C 0.92238 0.35168 0.39796 0.0
C957 C 0.88439 0.39106 0.40034 0.0
C958 C 0.96016 0.38921 0.4034 0.0
C959 C 0.96019 0.4272 0.40744 0.0
H960 H 0.11446 0.58065 0.60167 0.0
H961 H 0.24855 0.64943 0.61698 0.0
H962 H 0.24864 0.58361 0.62375 0.0
H963 H 0.21177 0.50688 0.62387 0.0
H964 H 0.07797 0.43661 0.60794 0.0
H965 H 0.07683 0.50261 0.60274 0.0
C966 C 0.14375 0.58126 0.60639 0.0
C967 C 0.18146 0.62029 0.60887 0.0
C968 C 0.14371 0.54298 0.61007 0.0
C969 C 0.21892 0.62019 0.61537 0.0
C970 C 0.2191 0.58244 0.61905 0.0
C971 C 0.18218 0.50572 0.61931 0.0
C972 C 0.14499 0.46653 0.61619 0.0
C973 C 0.18179 0.5437 0.61628 0.0
C974 C 0.10708 0.46613 0.61047 0.0
C975 C 0.10645 0.50395 0.60743 0.0
H976 H 0.32841 0.83161 0.8966 0.0
H977 H 0.39365 0.96093 0.86875 0.0
H978 H 0.46126 0.96214 0.87243 0.0
H979 H 0.50205 0.92735 0.88706 0.0
H980 H 0.43442 0.79807 0.91522 0.0
H981 H 0.36768 0.79628 0.90825 0.0
C982 C 0.35732 0.8602 0.89118 0.0
C983 C 0.35582 0.89632 0.88267 0.0
C984 C 0.39582 0.86078 0.89375 0.0
C985 C 0.39373 0.93266 0.87532 0.0
C986 C 0.43244 0.9334 0.87762 0.0
C987 C 0.47268 0.89868 0.89137 0.0
C988 C 0.47349 0.86305 0.90211 0.0
C989 C 0.43395 0.89781 0.88732 0.0
C990 C 0.43499 0.82623 0.9076 0.0
C991 C 0.39669 0.82507 0.90344 0.0
H992 H 0.55132 0.72388 0.62416 0.0
H993 H 0.62311 0.65987 0.6175 0.0
H994 H 0.55761 0.59241 0.61296 0.0
H995 H 0.4796 0.55159 0.6099 0.0
H996 H 0.40916 0.61714 0.61577 0.0
H997 H 0.47437 0.6836 0.62192 0.0
C998 C 0.5529 0.69526 0.62182 0.0
C999 C 0.59248 0.6973 0.62113 0.0
C1000 C 0.51513 0.6566 0.61912 0.0
C1001 C 0.59335 0.65954 0.61814 0.0
C1002 C 0.5558 0.62085 0.61548 0.0
C1003 C 0.47845 0.5804 0.6124 0.0
C1004 C 0.43905 0.57891 0.61243 0.0
C1005 C 0.51644 0.619 0.61572 0.0
C1006 C 0.43858 0.6168 0.6161 0.0
C1007 C 0.47604 0.65506 0.61942 0.0
H1008 H 0.11257 0.56796 0.9055 0.0
H1009 H 0.24814 0.63826 0.89743 0.0
H1010 H 0.24953 0.57318 0.8903 0.0
H1011 H 0.21326 0.49661 0.88786 0.0
H1012 H 0.07797 0.4246 0.89683 0.0
H1013 H 0.07562 0.48998 0.90217 0.0
C1014 C 0.14245 0.56906 0.9023 0.0
C1015 C 0.18023 0.60836 0.90194 0.0
C1016 C 0.14314 0.53116 0.8984 0.0
C1017 C 0.2185 0.60888 0.89738 0.0
C1018 C 0.21939 0.57153 0.89348 0.0
C1019 C 0.18306 0.49492 0.89088 0.0
C1020 C 0.1458 0.45538 0.892 0.0
C1021 C 0.182 0.53253 0.8941 0.0
C1022 C 0.10716 0.45436 0.89582 0.0
C1023 C 0.10584 0.49183 0.89897 0.0
H1024 H 0.3373 0.84771 0.62789 0.0
H1025 H 0.39922 0.98169 0.61339 0.0
H1026 H 0.46698 0.98374 0.60835 0.0
H1027 H 0.50824 0.94663 0.60636 0.0
H1028 H 0.44426 0.81231 0.62014 0.0
H1029 H 0.37799 0.81152 0.62735 0.0
C1030 C 0.36553 0.87756 0.62373 0.0
C1031 C 0.36286 0.91451 0.62088 0.0
C1032 C 0.40421 0.87843 0.62069 0.0
C1033 C 0.40013 0.95276 0.61573 0.0
C1034 C 0.43892 0.95389 0.61273 0.0
C1035 C 0.47979 0.91716 0.61088 0.0
C1036 C 0.48161 0.87956 0.61275 0.0
C1037 C 0.44129 0.9168 0.61484 0.0
C1038 C 0.4443 0.84184 0.61899 0.0
C1039 C 0.40616 0.84128 0.62293 0.0
H1040 H 0.55545 0.7167 0.90855 0.0
H1041 H 0.61486 0.65513 0.86671 0.0
H1042 H 0.54792 0.58801 0.86851 0.0
H1043 H 0.47279 0.54623 0.88442 0.0
H1044 H 0.41589 0.61085 0.92569 0.0
H1045 H 0.48166 0.67716 0.92178 0.0
C1046 C 0.55409 0.6887 0.89979 0.0
C1047 C 0.59055 0.69105 0.88783 0.0
C1048 C 0.51579 0.65055 0.90096 0.0
C1049 C 0.58748 0.65436 0.87613 0.0
C1050 C 0.54917 0.61593 0.87724 0.0
C1051 C 0.47473 0.57491 0.89228 0.0
C1052 C 0.43934 0.57317 0.90581 0.0
C1053 C 0.51312 0.61351 0.88993 0.0
C1054 C 0.44262 0.61081 0.91584 0.0
C1055 C 0.48026 0.64893 0.91347 0.0
loop_
_geom_bond_atom_site_label_1
_geom_bond_atom_site_label_2
_geom_bond_distance
_geom_bond_site_symmetry_2
_ccdc_geom_bond_type
Eu0 C9 2.828 . S
Eu0 O11 2.392 . S
Eu0 O13 2.418 . S
Eu0 O18 2.373 . S
Eu0 O21 2.488 . S
Eu0 O22 2.471 . S
Eu0 O23 2.349 . S
Eu1 O10 2.373 . S
Eu1 O14 2.488 . S
Eu1 O15 2.471 . S
Eu1 O16 2.349 . S
Eu1 O19 2.392 . S
Eu1 O20 2.418 . S
Eu1 C30 2.828 . S
C2 O20 1.244 . S
C2 O23 1.265 . S
C3 C4 1.379 . S
C3 C7 1.373 . S
C3 C9 1.505 . S
C4 C3 1.379 . S
C4 C6 1.369 . S
C4 H32 0.930 . S
C5 C7 1.383 . S
C5 C8 1.382 . S
C5 H33 0.930 . S
C6 C4 1.369 . S
C6 C8 1.392 . S
C6 H34 0.930 . S
C7 C3 1.373 . S
C7 C5 1.383 . S
C7 H35 0.931 . S
C8 C5 1.382 . S
C8 C6 1.392 . S
C9 Eu0 2.828 . S
C9 C3 1.505 . S
C9 O21 1.249 . S
C9 O22 1.244 . S
O10 Eu1 2.373 . S
O10 C12 1.258 . S
O11 Eu0 2.392 . S
O11 C12 1.242 . S
C12 O10 1.258 . S
C12 O11 1.242 . S
O13 Eu0 2.418 . S
O13 C17 1.244 . S
O14 Eu1 2.488 . S
O14 C30 1.249 . S
O15 Eu1 2.471 . S
O15 C30 1.244 . S
O16 Eu1 2.349 . S
O16 C17 1.265 . S
C17 O13 1.244 . S
C17 O16 1.265 . S
O18 Eu0 2.373 . S
O18 C31 1.258 . S
O19 Eu1 2.392 . S
O19 C31 1.242 . S
O20 Eu1 2.418 . S
O20 C2 1.244 . S
O21 Eu0 2.488 . S
O21 C9 1.249 . S
O22 Eu0 2.471 . S
O22 C9 1.244 . S
O23 Eu0 2.349 . S
O23 C2 1.265 . S
C24 C25 1.379 . S
C24 C28 1.373 . S
C24 C30 1.505 1_565 S
C25 C24 1.379 . S
C25 C27 1.369 . S
C25 H36 0.930 . S
C26 C28 1.383 . S
C26 C29 1.382 . S
C26 H37 0.930 . S
C27 C25 1.369 . S
C27 C29 1.392 . S
C27 H38 0.930 . S
C28 C24 1.373 . S
C28 C26 1.383 . S
C28 H39 0.931 . S
C29 C26 1.382 . S
C29 C27 1.392 . S
C30 Eu1 2.828 . S
C30 O14 1.249 . S
C30 O15 1.244 . S
C30 C24 1.505 1_545 S
C31 O18 1.258 . S
C31 O19 1.242 . S
H32 C4 0.930 . S
H33 C5 0.930 . S
H34 C6 0.930 . S
H35 C7 0.931 . S
H36 C25 0.930 . S
H37 C26 0.930 . S
H38 C27 0.930 . S
H39 C28 0.931 . S
Eu40 C49 2.828 . S
Eu40 O51 2.392 . S
Eu40 O53 2.418 . S
Eu40 O58 2.373 . S
Eu40 O61 2.488 . S
Eu40 O62 2.471 . S
Eu40 O63 2.349 . S
Eu41 O50 2.373 . S
Eu41 O54 2.488 . S
Eu41 O55 2.471 . S
Eu41 O56 2.349 . S
Eu41 O59 2.392 . S
Eu41 O60 2.418 . S
Eu41 C70 2.828 . S
C42 O60 1.244 . S
C42 O63 1.265 . S
C43 C44 1.379 . S
C43 C47 1.373 . S
C43 C49 1.505 . S
C44 C43 1.379 . S
C44 C46 1.369 . S
C44 H72 0.930 . S
C45 C47 1.383 . S
C45 C48 1.382 . S
C45 H73 0.930 . S
C46 C44 1.369 . S
C46 C48 1.392 . S
C46 H74 0.930 . S
C47 C43 1.373 . S
C47 C45 1.383 . S
C47 H75 0.931 . S
C48 C45 1.382 . S
C48 C46 1.392 . S
C49 Eu40 2.828 . S
C49 C43 1.505 . S
C49 O61 1.249 . S
C49 O62 1.244 . S
O50 Eu41 2.373 . S
O50 C52 1.258 . S
O51 Eu40 2.392 . S
O51 C52 1.242 . S
C52 O50 1.258 . S
C52 O51 1.242 . S
O53 Eu40 2.418 . S
O53 C57 1.244 . S
O54 Eu41 2.488 . S
O54 C70 1.249 . S
O55 Eu41 2.471 . S
O55 C70 1.244 . S
O56 Eu41 2.349 . S
O56 C57 1.265 . S
C57 O53 1.244 . S
C57 O56 1.265 . S
O58 Eu40 2.373 . S
O58 C71 1.258 . S
O59 Eu41 2.392 . S
O59 C71 1.242 . S
O60 Eu41 2.418 . S
O60 C42 1.244 . S
O61 Eu40 2.488 . S
O61 C49 1.249 . S
O62 Eu40 2.471 . S
O62 C49 1.244 . S
O63 Eu40 2.349 . S
O63 C42 1.265 . S
C64 C65 1.379 . S
C64 C68 1.373 . S
C64 C70 1.505 . S
C65 C64 1.379 . S
C65 C67 1.369 . S
C65 H76 0.930 . S
C66 C68 1.383 . S
C66 C69 1.382 . S
C66 H77 0.930 . S
C67 C65 1.369 . S
C67 C69 1.392 . S
C67 H78 0.930 . S
C68 C64 1.373 . S
C68 C66 1.383 . S
C68 H79 0.931 . S
C69 C66 1.382 . S
C69 C67 1.392 . S
C70 Eu41 2.828 . S
C70 O54 1.249 . S
C70 O55 1.244 . S
C70 C64 1.505 . S
C71 O58 1.258 . S
C71 O59 1.242 . S
H72 C44 0.930 . S
H73 C45 0.930 . S
H74 C46 0.930 . S
H75 C47 0.931 . S
H76 C65 0.930 . S
H77 C66 0.930 . S
H78 C67 0.930 . S
H79 C68 0.931 . S
Eu80 C89 2.828 . S
Eu80 O91 2.392 . S
Eu80 O93 2.418 . S
Eu80 O98 2.373 . S
Eu80 O101 2.488 . S
Eu80 O102 2.471 . S
Eu80 O103 2.349 . S
Eu81 O90 2.373 . S
Eu81 O94 2.488 . S
Eu81 O95 2.471 . S
Eu81 O96 2.349 . S
Eu81 O99 2.392 . S
Eu81 O100 2.418 . S
Eu81 C110 2.828 . S
C82 O100 1.244 . S
C82 O103 1.265 . S
C83 C84 1.379 . S
C83 C87 1.373 . S
C83 C89 1.505 . S
C84 C83 1.379 . S
C84 C86 1.369 . S
C84 H112 0.930 . S
C85 C87 1.383 . S
C85 C88 1.382 . S
C85 H113 0.930 . S
C86 C84 1.369 . S
C86 C88 1.392 . S
C86 H114 0.930 . S
C87 C83 1.373 . S
C87 C85 1.383 . S
C87 H115 0.931 . S
C88 C85 1.382 . S
C88 C86 1.392 . S
C89 Eu80 2.828 . S
C89 C83 1.505 . S
C89 O101 1.249 . S
C89 O102 1.244 . S
O90 Eu81 2.373 . S
O90 C92 1.258 . S
O91 Eu80 2.392 . S
O91 C92 1.242 . S
C92 O90 1.258 . S
C92 O91 1.242 . S
O93 Eu80 2.418 . S
O93 C97 1.244 . S
O94 Eu81 2.488 . S
O94 C110 1.249 . S
O95 Eu81 2.471 . S
O95 C110 1.244 . S
O96 Eu81 2.349 . S
O96 C97 1.265 . S
C97 O93 1.244 . S
C97 O96 1.265 . S
O98 Eu80 2.373 . S
O98 C111 1.258 . S
O99 Eu81 2.392 . S
O99 C111 1.242 . S
O100 Eu81 2.418 . S
O100 C82 1.244 . S
O101 Eu80 2.488 . S
O101 C89 1.249 . S
O102 Eu80 2.471 . S
O102 C89 1.244 . S
O103 Eu80 2.349 . S
O103 C82 1.265 . S
C104 C105 1.379 . S
C104 C108 1.373 . S
C104 C110 1.505 1_455 S
C105 C104 1.379 . S
C105 C107 1.369 . S
C105 H116 0.930 . S
C106 C108 1.383 . S
C106 C109 1.382 . S
C106 H117 0.930 . S
C107 C105 1.369 . S
C107 C109 1.392 . S
C107 H118 0.930 . S
C108 C104 1.373 . S
C108 C106 1.383 . S
C108 H119 0.931 . S
C109 C106 1.382 . S
C109 C107 1.392 . S
C110 Eu81 2.828 . S
C110 O94 1.249 . S
C110 O95 1.244 . S
C110 C104 1.505 1_655 S
C111 O98 1.258 . S
C111 O99 1.242 . S
H112 C84 0.930 . S
H113 C85 0.930 . S
H114 C86 0.930 . S
H115 C87 0.931 . S
H116 C105 0.930 . S
H117 C106 0.930 . S
H118 C107 0.930 . S
H119 C108 0.931 . S
Eu120 C129 2.828 . S
Eu120 O131 2.392 . S
Eu120 O133 2.418 . S
Eu120 O138 2.373 . S
Eu120 O141 2.488 . S
Eu120 O142 2.471 . S
Eu120 O143 2.349 . S
Eu121 O130 2.373 . S
Eu121 O134 2.488 . S
Eu121 O135 2.471 . S
Eu121 O136 2.349 . S
Eu121 O139 2.392 . S
Eu121 O140 2.418 . S
Eu121 C150 2.828 . S
C122 O140 1.244 . S
C122 O143 1.265 . S
C123 C124 1.379 . S
C123 C127 1.373 . S
C123 C129 1.505 1_565 S
C124 C123 1.379 . S
C124 C126 1.369 . S
C124 H152 0.930 . S
C125 C127 1.383 . S
C125 C128 1.382 . S
C125 H153 0.930 . S
C126 C124 1.369 . S
C126 C128 1.392 . S
C126 H154 0.930 . S
C127 C123 1.373 . S
C127 C125 1.383 . S
C127 H155 0.931 . S
C128 C125 1.382 . S
C128 C126 1.392 . S
C129 Eu120 2.828 . S
C129 C123 1.505 1_545 S
C129 O141 1.249 . S
C129 O142 1.244 . S
O130 Eu121 2.373 . S
O130 C132 1.258 . S
O131 Eu120 2.392 . S
O131 C132 1.242 . S
C132 O130 1.258 . S
C132 O131 1.242 . S
O133 Eu120 2.418 . S
O133 C137 1.244 . S
O134 Eu121 2.488 . S
O134 C150 1.249 . S
O135 Eu121 2.471 . S
O135 C150 1.244 . S
O136 Eu121 2.349 . S
O136 C137 1.265 . S
C137 O133 1.244 . S
C137 O136 1.265 . S
O138 Eu120 2.373 . S
O138 C151 1.258 . S
O139 Eu121 2.392 . S
O139 C151 1.242 . S
O140 Eu121 2.418 . S
O140 C122 1.244 . S
O141 Eu120 2.488 . S
O141 C129 1.249 . S
O142 Eu120 2.471 . S
O142 C129 1.244 . S
O143 Eu120 2.349 . S
O143 C122 1.265 . S
C144 C145 1.379 . S
C144 C148 1.373 . S
C144 C150 1.505 . S
C145 C144 1.379 . S
C145 C147 1.369 . S
C145 H156 0.930 . S
C146 C148 1.383 . S
C146 C149 1.382 . S
C146 H157 0.930 . S
C147 C145 1.369 . S
C147 C149 1.392 . S
C147 H158 0.930 . S
C148 C144 1.373 . S
C148 C146 1.383 . S
C148 H159 0.931 . S
C149 C146 1.382 . S
C149 C147 1.392 . S
C150 Eu121 2.828 . S
C150 O134 1.249 . S
C150 O135 1.244 . S
C150 C144 1.505 . S
C151 O138 1.258 . S
C151 O139 1.242 . S
H152 C124 0.930 . S
H153 C125 0.930 . S
H154 C126 0.930 . S
H155 C127 0.931 . S
H156 C145 0.930 . S
H157 C146 0.930 . S
H158 C147 0.930 . S
H159 C148 0.931 . S
Eu160 C169 2.828 . S
Eu160 O171 2.392 . S
Eu160 O173 2.418 . S
Eu160 O178 2.373 . S
Eu160 O181 2.488 . S
Eu160 O182 2.471 . S
Eu160 O183 2.349 . S
Eu161 O170 2.373 . S
Eu161 O174 2.488 . S
Eu161 O175 2.471 . S
Eu161 O176 2.349 . S
Eu161 O179 2.392 . S
Eu161 O180 2.418 . S
Eu161 C190 2.828 . S
C162 O180 1.244 . S
C162 O183 1.265 . S
C163 C164 1.379 . S
C163 C167 1.373 . S
C163 C169 1.505 . S
C164 C163 1.379 . S
C164 C166 1.369 . S
C164 H192 0.930 . S
C165 C167 1.383 . S
C165 C168 1.382 . S
C165 H193 0.930 . S
C166 C164 1.369 . S
C166 C168 1.392 . S
C166 H194 0.930 . S
C167 C163 1.373 . S
C167 C165 1.383 . S
C167 H195 0.931 . S
C168 C165 1.382 . S
C168 C166 1.392 . S
C169 Eu160 2.828 . S
C169 C163 1.505 . S
C169 O181 1.249 . S
C169 O182 1.244 . S
O170 Eu161 2.373 . S
O170 C172 1.258 . S
O171 Eu160 2.392 . S
O171 C172 1.242 . S
C172 O170 1.258 . S
C172 O171 1.242 . S
O173 Eu160 2.418 . S
O173 C177 1.244 . S
O174 Eu161 2.488 . S
O174 C190 1.249 . S
O175 Eu161 2.471 . S
O175 C190 1.244 . S
O176 Eu161 2.349 . S
O176 C177 1.265 . S
C177 O173 1.244 . S
C177 O176 1.265 . S
O178 Eu160 2.373 . S
O178 C191 1.258 . S
O179 Eu161 2.392 . S
O179 C191 1.242 . S
O180 Eu161 2.418 . S
O180 C162 1.244 . S
O181 Eu160 2.488 . S
O181 C169 1.249 . S
O182 Eu160 2.471 . S
O182 C169 1.244 . S
O183 Eu160 2.349 . S
O183 C162 1.265 . S
C184 C185 1.379 . S
C184 C188 1.373 . S
C184 C190 1.505 . S
C185 C184 1.379 . S
C185 C187 1.369 . S
C185 H196 0.930 . S
C186 C188 1.383 . S
C186 C189 1.382 . S
C186 H197 0.930 . S
C187 C185 1.369 . S
C187 C189 1.392 . S
C187 H198 0.930 . S
C188 C184 1.373 . S
C188 C186 1.383 . S
C188 H199 0.931 . S
C189 C186 1.382 . S
C189 C187 1.392 . S
C190 Eu161 2.828 . S
C190 O174 1.249 . S
C190 O175 1.244 . S
C190 C184 1.505 . S
C191 O178 1.258 . S
C191 O179 1.242 . S
H192 C164 0.930 . S
H193 C165 0.930 . S
H194 C166 0.930 . S
H195 C167 0.931 . S
H196 C185 0.930 . S
H197 C186 0.930 . S
H198 C187 0.930 . S
H199 C188 0.931 . S
Eu200 C209 2.828 . S
Eu200 O211 2.392 . S
Eu200 O213 2.418 . S
Eu200 O218 2.373 . S
Eu200 O221 2.488 . S
Eu200 O222 2.471 . S
Eu200 O223 2.349 . S
Eu201 O210 2.373 . S
Eu201 O214 2.488 . S
Eu201 O215 2.471 . S
Eu201 O216 2.349 . S
Eu201 O219 2.392 . S
Eu201 O220 2.418 . S
Eu201 C230 2.828 . S
C202 O220 1.244 . S
C202 O223 1.265 . S
C203 C204 1.379 . S
C203 C207 1.373 . S
C203 C209 1.505 1_455 S
C204 C203 1.379 . S
C204 C206 1.369 . S
C204 H232 0.930 . S
C205 C207 1.383 . S
C205 C208 1.382 . S
C205 H233 0.930 . S
C206 C204 1.369 . S
C206 C208 1.392 . S
C206 H234 0.930 . S
C207 C203 1.373 . S
C207 C205 1.383 . S
C207 H235 0.931 . S
C208 C205 1.382 . S
C208 C206 1.392 . S
C209 Eu200 2.828 . S
C209 C203 1.505 1_655 S
C209 O221 1.249 . S
C209 O222 1.244 . S
O210 Eu201 2.373 . S
O210 C212 1.258 . S
O211 Eu200 2.392 . S
O211 C212 1.242 . S
C212 O210 1.258 . S
C212 O211 1.242 . S
O213 Eu200 2.418 . S
O213 C217 1.244 . S
O214 Eu201 2.488 . S
O214 C230 1.249 . S
O215 Eu201 2.471 . S
O215 C230 1.244 . S
O216 Eu201 2.349 . S
O216 C217 1.265 . S
C217 O213 1.244 . S
C217 O216 1.265 . S
O218 Eu200 2.373 . S
O218 C231 1.258 . S
O219 Eu201 2.392 . S
O219 C231 1.242 . S
O220 Eu201 2.418 . S
O220 C202 1.244 . S
O221 Eu200 2.488 . S
O221 C209 1.249 . S
O222 Eu200 2.471 . S
O222 C209 1.244 . S
O223 Eu200 2.349 . S
O223 C202 1.265 . S
C224 C225 1.379 . S
C224 C228 1.373 . S
C224 C230 1.505 . S
C225 C224 1.379 . S
C225 C227 1.369 . S
C225 H236 0.930 . S
C226 C228 1.383 . S
C226 C229 1.382 . S
C226 H237 0.930 . S
C227 C225 1.369 . S
C227 C229 1.392 . S
C227 H238 0.930 . S
C228 C224 1.373 . S
C228 C226 1.383 . S
C228 H239 0.931 . S
C229 C226 1.382 . S
C229 C227 1.392 . S
C230 Eu201 2.828 . S
C230 O214 1.249 . S
C230 O215 1.244 . S
C230 C224 1.505 . S
C231 O218 1.258 . S
C231 O219 1.242 . S
H232 C204 0.930 . S
H233 C205 0.930 . S
H234 C206 0.930 . S
H235 C207 0.931 . S
H236 C225 0.930 . S
H237 C226 0.930 . S
H238 C227 0.930 . S
H239 C228 0.931 . S
Eu240 C249 2.828 . S
Eu240 O251 2.392 . S
Eu240 O253 2.418 . S
Eu240 O258 2.373 . S
Eu240 O261 2.488 . S
Eu240 O262 2.471 . S
Eu240 O263 2.349 . S
Eu241 O250 2.373 . S
Eu241 O254 2.488 . S
Eu241 O255 2.471 . S
Eu241 O256 2.349 . S
Eu241 O259 2.392 . S
Eu241 O260 2.418 . S
Eu241 C270 2.828 . S
C242 O260 1.244 . S
C242 O263 1.265 . S
C243 C244 1.379 . S
C243 C247 1.373 . S
C243 C249 1.505 1_655 S
C244 C243 1.379 . S
C244 C246 1.369 . S
C244 H272 0.930 . S
C245 C247 1.383 . S
C245 C248 1.382 . S
C245 H273 0.930 . S
C246 C244 1.369 . S
C246 C248 1.392 . S
C246 H274 0.930 . S
C247 C243 1.373 . S
C247 C245 1.383 . S
C247 H275 0.931 . S
C248 C245 1.382 . S
C248 C246 1.392 . S
C249 Eu240 2.828 . S
C249 C243 1.505 1_455 S
C249 O261 1.249 . S
C249 O262 1.244 . S
O250 Eu241 2.373 . S
O250 C252 1.258 . S
O251 Eu240 2.392 . S
O251 C252 1.242 . S
C252 O250 1.258 . S
C252 O251 1.242 . S
O253 Eu240 2.418 . S
O253 C257 1.244 . S
O254 Eu241 2.488 . S
O254 C270 1.249 . S
O255 Eu241 2.471 . S
O255 C270 1.244 . S
O256 Eu241 2.349 . S
O256 C257 1.265 . S
C257 O253 1.244 . S
C257 O256 1.265 . S
O258 Eu240 2.373 . S
O258 C271 1.258 . S
O259 Eu241 2.392 . S
O259 C271 1.242 . S
O260 Eu241 2.418 . S
O260 C242 1.244 . S
O261 Eu240 2.488 . S
O261 C249 1.249 . S
O262 Eu240 2.471 . S
O262 C249 1.244 . S
O263 Eu240 2.349 . S
O263 C242 1.265 . S
C264 C265 1.379 . S
C264 C268 1.373 . S
C264 C270 1.505 . S
C265 C264 1.379 . S
C265 C267 1.369 . S
C265 H276 0.930 . S
C266 C268 1.383 . S
C266 C269 1.382 . S
C266 H277 0.930 . S
C267 C265 1.369 . S
C267 C269 1.392 . S
C267 H278 0.930 . S
C268 C264 1.373 . S
C268 C266 1.383 . S
C268 H279 0.931 . S
C269 C266 1.382 . S
C269 C267 1.392 . S
C270 Eu241 2.828 . S
C270 O254 1.249 . S
C270 O255 1.244 . S
C270 C264 1.505 . S
C271 O258 1.258 . S
C271 O259 1.242 . S
H272 C244 0.930 . S
H273 C245 0.930 . S
H274 C246 0.930 . S
H275 C247 0.931 . S
H276 C265 0.930 . S
H277 C266 0.930 . S
H278 C267 0.930 . S
H279 C268 0.931 . S
Eu280 C289 2.828 . S
Eu280 O291 2.392 . S
Eu280 O293 2.418 . S
Eu280 O298 2.373 . S
Eu280 O301 2.488 . S
Eu280 O302 2.471 . S
Eu280 O303 2.349 . S
Eu281 O290 2.373 . S
Eu281 O294 2.488 . S
Eu281 O295 2.471 . S
Eu281 O296 2.349 . S
Eu281 O299 2.392 . S
Eu281 O300 2.418 . S
Eu281 C310 2.828 . S
C282 O300 1.244 . S
C282 O303 1.265 . S
C283 C284 1.379 . S
C283 C287 1.373 . S
C283 C289 1.505 . S
C284 C283 1.379 . S
C284 C286 1.369 . S
C284 H312 0.930 . S
C285 C287 1.383 . S
C285 C288 1.382 . S
C285 H313 0.930 . S
C286 C284 1.369 . S
C286 C288 1.392 . S
C286 H314 0.930 . S
C287 C283 1.373 . S
C287 C285 1.383 . S
C287 H315 0.931 . S
C288 C285 1.382 . S
C288 C286 1.392 . S
C289 Eu280 2.828 . S
C289 C283 1.505 . S
C289 O301 1.249 . S
C289 O302 1.244 . S
O290 Eu281 2.373 . S
O290 C292 1.258 . S
O291 Eu280 2.392 . S
O291 C292 1.242 . S
C292 O290 1.258 . S
C292 O291 1.242 . S
O293 Eu280 2.418 . S
O293 C297 1.244 . S
O294 Eu281 2.488 . S
O294 C310 1.249 . S
O295 Eu281 2.471 . S
O295 C310 1.244 . S
O296 Eu281 2.349 . S
O296 C297 1.265 . S
C297 O293 1.244 . S
C297 O296 1.265 . S
O298 Eu280 2.373 . S
O298 C311 1.258 . S
O299 Eu281 2.392 . S
O299 C311 1.242 . S
O300 Eu281 2.418 . S
O300 C282 1.244 . S
O301 Eu280 2.488 . S
O301 C289 1.249 . S
O302 Eu280 2.471 . S
O302 C289 1.244 . S
O303 Eu280 2.349 . S
O303 C282 1.265 . S
C304 C305 1.379 . S
C304 C308 1.373 . S
C304 C310 1.505 1_545 S
C305 C304 1.379 . S
C305 C307 1.369 . S
C305 H316 0.930 . S
C306 C308 1.383 . S
C306 C309 1.382 . S
C306 H317 0.930 . S
C307 C305 1.369 . S
C307 C309 1.392 . S
C307 H318 0.930 . S
C308 C304 1.373 . S
C308 C306 1.383 . S
C308 H319 0.931 . S
C309 C306 1.382 . S
C309 C307 1.392 . S
C310 Eu281 2.828 . S
C310 O294 1.249 . S
C310 O295 1.244 . S
C310 C304 1.505 1_565 S
C311 O298 1.258 . S
C311 O299 1.242 . S
H312 C284 0.930 . S
H313 C285 0.930 . S
H314 C286 0.930 . S
H315 C287 0.931 . S
H316 C305 0.930 . S
H317 C306 0.930 . S
H318 C307 0.930 . S
H319 C308 0.931 . S
Eu320 C329 2.828 . S
Eu320 O331 2.392 . S
Eu320 O333 2.418 . S
Eu320 O338 2.373 . S
Eu320 O341 2.488 . S
Eu320 O342 2.471 . S
Eu320 O343 2.349 . S
Eu321 O330 2.373 . S
Eu321 O334 2.488 . S
Eu321 O335 2.471 . S
Eu321 O336 2.349 . S
Eu321 O339 2.392 . S
Eu321 O340 2.418 . S
Eu321 C350 2.828 . S
C322 O340 1.244 . S
C322 O343 1.265 . S
C323 C324 1.379 . S
C323 C327 1.373 . S
C323 C329 1.505 . S
C324 C323 1.379 . S
C324 C326 1.369 . S
C324 H352 0.930 . S
C325 C327 1.383 . S
C325 C328 1.382 . S
C325 H353 0.930 . S
C326 C324 1.369 . S
C326 C328 1.392 . S
C326 H354 0.930 . S
C327 C323 1.373 . S
C327 C325 1.383 . S
C327 H355 0.931 . S
C328 C325 1.382 . S
C328 C326 1.392 . S
C329 Eu320 2.828 . S
C329 C323 1.505 . S
C329 O341 1.249 . S
C329 O342 1.244 . S
O330 Eu321 2.373 . S
O330 C332 1.258 . S
O331 Eu320 2.392 . S
O331 C332 1.242 . S
C332 O330 1.258 . S
C332 O331 1.242 . S
O333 Eu320 2.418 . S
O333 C337 1.244 . S
O334 Eu321 2.488 . S
O334 C350 1.249 . S
O335 Eu321 2.471 . S
O335 C350 1.244 . S
O336 Eu321 2.349 . S
O336 C337 1.265 . S
C337 O333 1.244 . S
C337 O336 1.265 . S
O338 Eu320 2.373 . S
O338 C351 1.258 . S
O339 Eu321 2.392 . S
O339 C351 1.242 . S
O340 Eu321 2.418 . S
O340 C322 1.244 . S
O341 Eu320 2.488 . S
O341 C329 1.249 . S
O342 Eu320 2.471 . S
O342 C329 1.244 . S
O343 Eu320 2.349 . S
O343 C322 1.265 . S
C344 C345 1.379 . S
C344 C348 1.373 . S
C344 C350 1.505 . S
C345 C344 1.379 . S
C345 C347 1.369 . S
C345 H356 0.930 . S
C346 C348 1.383 . S
C346 C349 1.382 . S
C346 H357 0.930 . S
C347 C345 1.369 . S
C347 C349 1.392 . S
C347 H358 0.930 . S
C348 C344 1.373 . S
C348 C346 1.383 . S
C348 H359 0.931 . S
C349 C346 1.382 . S
C349 C347 1.392 . S
C350 Eu321 2.828 . S
C350 O334 1.249 . S
C350 O335 1.244 . S
C350 C344 1.505 . S
C351 O338 1.258 . S
C351 O339 1.242 . S
H352 C324 0.930 . S
H353 C325 0.930 . S
H354 C326 0.930 . S
H355 C327 0.931 . S
H356 C345 0.930 . S
H357 C346 0.930 . S
H358 C347 0.930 . S
H359 C348 0.931 . S
Eu360 C369 2.828 . S
Eu360 O371 2.392 . S
Eu360 O373 2.418 . S
Eu360 O378 2.373 . S
Eu360 O381 2.488 . S
Eu360 O382 2.471 . S
Eu360 O383 2.349 . S
Eu361 O370 2.373 . S
Eu361 O374 2.488 . S
Eu361 O375 2.471 . S
Eu361 O376 2.349 . S
Eu361 O379 2.392 . S
Eu361 O380 2.418 . S
Eu361 C390 2.828 . S
C362 O380 1.244 . S
C362 O383 1.265 . S
C363 C364 1.379 . S
C363 C367 1.373 . S
C363 C369 1.505 . S
C364 C363 1.379 . S
C364 C366 1.369 . S
C364 H392 0.930 . S
C365 C367 1.383 . S
C365 C368 1.382 . S
C365 H393 0.930 . S
C366 C364 1.369 . S
C366 C368 1.392 . S
C366 H394 0.930 . S
C367 C363 1.373 . S
C367 C365 1.383 . S
C367 H395 0.931 . S
C368 C365 1.382 . S
C368 C366 1.392 . S
C369 Eu360 2.828 . S
C369 C363 1.505 . S
C369 O381 1.249 . S
C369 O382 1.244 . S
O370 Eu361 2.373 . S
O370 C372 1.258 . S
O371 Eu360 2.392 . S
O371 C372 1.242 . S
C372 O370 1.258 . S
C372 O371 1.242 . S
O373 Eu360 2.418 . S
O373 C377 1.244 . S
O374 Eu361 2.488 . S
O374 C390 1.249 . S
O375 Eu361 2.471 . S
O375 C390 1.244 . S
O376 Eu361 2.349 . S
O376 C377 1.265 . S
C377 O373 1.244 . S
C377 O376 1.265 . S
O378 Eu360 2.373 . S
O378 C391 1.258 . S
O379 Eu361 2.392 . S
O379 C391 1.242 . S
O380 Eu361 2.418 . S
O380 C362 1.244 . S
O381 Eu360 2.488 . S
O381 C369 1.249 . S
O382 Eu360 2.471 . S
O382 C369 1.244 . S
O383 Eu360 2.349 . S
O383 C362 1.265 . S
C384 C385 1.379 . S
C384 C388 1.373 . S
C384 C390 1.505 1_655 S
C385 C384 1.379 . S
C385 C387 1.369 . S
C385 H396 0.930 . S
C386 C388 1.383 . S
C386 C389 1.382 . S
C386 H397 0.930 . S
C387 C385 1.369 . S
C387 C389 1.392 . S
C387 H398 0.930 . S
C388 C384 1.373 . S
C388 C386 1.383 . S
C388 H399 0.931 . S
C389 C386 1.382 . S
C389 C387 1.392 . S
C390 Eu361 2.828 . S
C390 O374 1.249 . S
C390 O375 1.244 . S
C390 C384 1.505 1_455 S
C391 O378 1.258 . S
C391 O379 1.242 . S
H392 C364 0.930 . S
H393 C365 0.930 . S
H394 C366 0.930 . S
H395 C367 0.931 . S
H396 C385 0.930 . S
H397 C386 0.930 . S
H398 C387 0.930 . S
H399 C388 0.931 . S
Eu400 C409 2.828 . S
Eu400 O411 2.392 . S
Eu400 O413 2.418 . S
Eu400 O418 2.373 . S
Eu400 O421 2.488 . S
Eu400 O422 2.471 . S
Eu400 O423 2.349 . S
Eu401 O410 2.373 . S
Eu401 O414 2.488 . S
Eu401 O415 2.471 . S
Eu401 O416 2.349 . S
Eu401 O419 2.392 . S
Eu401 O420 2.418 . S
Eu401 C430 2.828 . S
C402 O420 1.244 . S
C402 O423 1.265 . S
C403 C404 1.379 . S
C403 C407 1.373 . S
C403 C409 1.505 1_545 S
C404 C403 1.379 . S
C404 C406 1.369 . S
C404 H432 0.930 . S
C405 C407 1.383 . S
C405 C408 1.382 . S
C405 H433 0.930 . S
C406 C404 1.369 . S
C406 C408 1.392 . S
C406 H434 0.930 . S
C407 C403 1.373 . S
C407 C405 1.383 . S
C407 H435 0.931 . S
C408 C405 1.382 . S
C408 C406 1.392 . S
C409 Eu400 2.828 . S
C409 C403 1.505 1_565 S
C409 O421 1.249 . S
C409 O422 1.244 . S
O410 Eu401 2.373 . S
O410 C412 1.258 . S
O411 Eu400 2.392 . S
O411 C412 1.242 . S
C412 O410 1.258 . S
C412 O411 1.242 . S
O413 Eu400 2.418 . S
O413 C417 1.244 . S
O414 Eu401 2.488 . S
O414 C430 1.249 . S
O415 Eu401 2.471 . S
O415 C430 1.244 . S
O416 Eu401 2.349 . S
O416 C417 1.265 . S
C417 O413 1.244 . S
C417 O416 1.265 . S
O418 Eu400 2.373 . S
O418 C431 1.258 . S
O419 Eu401 2.392 . S
O419 C431 1.242 . S
O420 Eu401 2.418 . S
O420 C402 1.244 . S
O421 Eu400 2.488 . S
O421 C409 1.249 . S
O422 Eu400 2.471 . S
O422 C409 1.244 . S
O423 Eu400 2.349 . S
O423 C402 1.265 . S
C424 C425 1.379 . S
C424 C428 1.373 . S
C424 C430 1.505 . S
C425 C424 1.379 . S
C425 C427 1.369 . S
C425 H436 0.930 . S
C426 C428 1.383 . S
C426 C429 1.382 . S
C426 H437 0.930 . S
C427 C425 1.369 . S
C427 C429 1.392 . S
C427 H438 0.930 . S
C428 C424 1.373 . S
C428 C426 1.383 . S
C428 H439 0.931 . S
C429 C426 1.382 . S
C429 C427 1.392 . S
C430 Eu401 2.828 . S
C430 O414 1.249 . S
C430 O415 1.244 . S
C430 C424 1.505 . S
C431 O418 1.258 . S
C431 O419 1.242 . S
H432 C404 0.930 . S
H433 C405 0.930 . S
H434 C406 0.930 . S
H435 C407 0.931 . S
H436 C425 0.930 . S
H437 C426 0.930 . S
H438 C427 0.930 . S
H439 C428 0.931 . S
Eu440 C449 2.828 . S
Eu440 O451 2.392 . S
Eu440 O453 2.418 . S
Eu440 O458 2.373 . S
Eu440 O461 2.488 . S
Eu440 O462 2.471 . S
Eu440 O463 2.349 . S
Eu441 O450 2.373 . S
Eu441 O454 2.488 . S
Eu441 O455 2.471 . S
Eu441 O456 2.349 . S
Eu441 O459 2.392 . S
Eu441 O460 2.418 . S
Eu441 C470 2.828 . S
C442 O460 1.244 . S
C442 O463 1.265 . S
C443 C444 1.379 . S
C443 C447 1.373 . S
C443 C449 1.505 . S
C444 C443 1.379 . S
C444 C446 1.369 . S
C444 H472 0.930 . S
C445 C447 1.383 . S
C445 C448 1.382 . S
C445 H473 0.930 . S
C446 C444 1.369 . S
C446 C448 1.392 . S
C446 H474 0.930 . S
C447 C443 1.373 . S
C447 C445 1.383 . S
C447 H475 0.931 . S
C448 C445 1.382 . S
C448 C446 1.392 . S
C449 Eu440 2.828 . S
C449 C443 1.505 . S
C449 O461 1.249 . S
C449 O462 1.244 . S
O450 Eu441 2.373 . S
O450 C452 1.258 . S
O451 Eu440 2.392 . S
O451 C452 1.242 . S
C452 O450 1.258 . S
C452 O451 1.242 . S
O453 Eu440 2.418 . S
O453 C457 1.244 . S
O454 Eu441 2.488 . S
O454 C470 1.249 . S
O455 Eu441 2.471 . S
O455 C470 1.244 . S
O456 Eu441 2.349 . S
O456 C457 1.265 . S
C457 O453 1.244 . S
C457 O456 1.265 . S
O458 Eu440 2.373 . S
O458 C471 1.258 . S
O459 Eu441 2.392 . S
O459 C471 1.242 . S
O460 Eu441 2.418 . S
O460 C442 1.244 . S
O461 Eu440 2.488 . S
O461 C449 1.249 . S
O462 Eu440 2.471 . S
O462 C449 1.244 . S
O463 Eu440 2.349 . S
O463 C442 1.265 . S
C464 C465 1.379 . S
C464 C468 1.373 . S
C464 C470 1.505 . S
C465 C464 1.379 . S
C465 C467 1.369 . S
C465 H476 0.930 . S
C466 C468 1.383 . S
C466 C469 1.382 . S
C466 H477 0.930 . S
C467 C465 1.369 . S
C467 C469 1.392 . S
C467 H478 0.930 . S
C468 C464 1.373 . S
C468 C466 1.383 . S
C468 H479 0.931 . S
C469 C466 1.382 . S
C469 C467 1.392 . S
C470 Eu441 2.828 . S
C470 O454 1.249 . S
C470 O455 1.244 . S
C470 C464 1.505 . S
C471 O458 1.258 . S
C471 O459 1.242 . S
H472 C444 0.930 . S
H473 C445 0.930 . S
H474 C446 0.930 . S
H475 C447 0.931 . S
H476 C465 0.930 . S
H477 C466 0.930 . S
H478 C467 0.930 . S
H479 C468 0.931 . S
H480 C486 0.930 . S
H481 C489 0.930 . S
H482 C490 0.930 . S
H483 C491 0.930 . S
H484 C494 0.930 . S
H485 C495 0.930 . S
C486 H480 0.930 . S
C486 C487 1.355 . S
C486 C488 1.415 . S
C487 C486 1.355 . S
C487 C489 1.419 . S
C488 C486 1.415 . S
C488 C493 1.425 . S
C488 C495 1.409 . S
C489 H481 0.930 . S
C489 C487 1.419 . S
C489 C490 1.362 . S
C490 H482 0.930 . S
C490 C489 1.362 . S
C490 C493 1.409 . S
C491 H483 0.930 . S
C491 C492 1.355 . S
C491 C493 1.415 . S
C492 C491 1.355 . S
C492 C494 1.419 . S
C493 C488 1.425 . S
C493 C490 1.409 . S
C493 C491 1.415 . S
C494 H484 0.930 . S
C494 C492 1.419 . S
C494 C495 1.362 . S
C495 H485 0.930 . S
C495 C488 1.409 . S
C495 C494 1.362 . S
H496 C502 0.930 . S
H497 C505 0.930 . S
H498 C506 0.930 . S
H499 C507 0.930 . S
H500 C510 0.930 . S
H501 C511 0.912 1_455 S
C502 H496 0.930 . S
C502 C503 1.355 . S
C502 C504 1.435 . S
C503 C502 1.355 . S
C503 C505 1.419 . S
C504 C502 1.435 . S
C504 C509 1.402 1_455 S
C504 C511 1.411 1_455 S
C505 H497 0.930 . S
C505 C503 1.419 . S
C505 C506 1.362 1_455 S
C506 H498 0.930 . S
C506 C505 1.362 1_655 S
C506 C509 1.409 . S
C507 H499 0.930 . S
C507 C508 1.355 . S
C507 C509 1.415 . S
C508 C507 1.355 . S
C508 C510 1.419 . S
C509 C504 1.402 1_655 S
C509 C506 1.409 . S
C509 C507 1.415 . S
C510 H500 0.930 . S
C510 C508 1.419 . S
C510 C511 1.362 . S
C511 H501 0.912 1_655 S
C511 C504 1.411 1_655 S
C511 C510 1.362 . S
H512 C518 0.930 . S
H513 C521 0.930 . S
H514 C522 0.930 . S
H515 C523 0.930 . S
H516 C526 0.930 . S
H517 C527 0.930 . S
C518 H512 0.930 . S
C518 C519 1.355 . S
C518 C520 1.415 . S
C519 C518 1.355 . S
C519 C521 1.419 . S
C520 C518 1.415 . S
C520 C525 1.425 . S
C520 C527 1.409 1_545 S
C521 H513 0.930 . S
C521 C519 1.419 . S
C521 C522 1.362 . S
C522 H514 0.930 . S
C522 C521 1.362 . S
C522 C525 1.409 . S
C523 H515 0.930 . S
C523 C524 1.355 . S
C523 C525 1.415 1_565 S
C524 C523 1.355 . S
C524 C526 1.419 . S
C525 C520 1.425 . S
C525 C522 1.409 . S
C525 C523 1.415 1_545 S
C526 H516 0.930 . S
C526 C524 1.419 . S
C526 C527 1.362 . S
C527 H517 0.930 . S
C527 C520 1.409 1_565 S
C527 C526 1.362 . S
H528 C534 0.930 . S
H529 C537 0.930 . S
H530 C538 0.930 . S
H531 C539 0.930 . S
H532 C542 0.930 . S
H533 C543 0.930 . S
C534 H528 0.930 . S
C534 C535 1.355 . S
C534 C536 1.415 . S
C535 C534 1.355 . S
C535 C537 1.419 . S
C536 C534 1.415 . S
C536 C541 1.425 . S
C536 C543 1.409 . S
C537 H529 0.930 . S
C537 C535 1.419 . S
C537 C538 1.362 . S
C538 H530 0.930 . S
C538 C537 1.362 . S
C538 C541 1.409 . S
C539 H531 0.930 . S
C539 C540 1.355 . S
C539 C541 1.415 . S
C540 C539 1.355 . S
C540 C542 1.419 . S
C541 C536 1.425 . S
C541 C538 1.409 . S
C541 C539 1.415 . S
C542 H532 0.930 . S
C542 C540 1.419 . S
C542 C543 1.362 . S
C543 H533 0.930 . S
C543 C536 1.409 . S
C543 C542 1.362 . S
H544 C550 0.930 . S
H545 C553 0.930 . S
H546 C554 0.930 . S
H547 C555 0.930 . S
H548 C558 0.930 . S
H549 C559 0.930 . S
C550 H544 0.930 . S
C550 C551 1.355 . S
C550 C552 1.415 1_455 S
C551 C550 1.355 . S
C551 C553 1.419 . S
C552 C550 1.415 1_655 S
C552 C557 1.425 . S
C552 C559 1.409 . S
C553 H545 0.930 . S
C553 C551 1.419 . S
C553 C554 1.362 . S
C554 H546 0.930 . S
C554 C553 1.362 . S
C554 C557 1.409 1_455 S
C555 H547 0.930 . S
C555 C556 1.355 . S
C555 C557 1.415 . S
C556 C555 1.355 . S
C556 C558 1.419 . S
C557 C552 1.425 . S
C557 C554 1.409 1_655 S
C557 C555 1.415 . S
C558 H548 0.930 . S
C558 C556 1.419 . S
C558 C559 1.362 . S
C559 H549 0.930 . S
C559 C552 1.409 . S
C559 C558 1.362 . S
H560 C566 0.930 . S
H561 C569 0.930 . S
H562 C570 0.930 . S
H563 C571 0.930 . S
H564 C574 0.930 . S
H565 C575 0.930 . S
C566 H560 0.930 . S
C566 C567 1.355 . S
C566 C568 1.415 1_565 S
C567 C566 1.355 . S
C567 C569 1.419 . S
C568 C566 1.415 1_545 S
C568 C573 1.425 . S
C568 C575 1.409 . S
C569 H561 0.930 . S
C569 C567 1.419 . S
C569 C570 1.362 . S
C570 H562 0.930 . S
C570 C569 1.362 . S
C570 C573 1.409 1_565 S
C571 H563 0.930 . S
C571 C572 1.355 . S
C571 C573 1.415 . S
C572 C571 1.355 . S
C572 C574 1.419 . S
C573 C568 1.425 . S
C573 C570 1.409 1_545 S
C573 C571 1.415 . S
C574 H564 0.930 . S
C574 C572 1.419 . S
C574 C575 1.362 . S
C575 H565 0.930 . S
C575 C568 1.409 . S
C575 C574 1.362 . S
H576 C582 0.930 . S
H577 C585 0.930 . S
H578 C586 0.930 . S
H579 C587 0.930 . S
H580 C590 0.930 . S
H581 C591 0.930 . S
C582 H576 0.930 . S
C582 C583 1.355 . S
C582 C584 1.415 . S
C583 C582 1.355 . S
C583 C585 1.419 . S
C584 C582 1.415 . S
C584 C589 1.425 . S
C584 C591 1.409 . S
C585 H577 0.930 . S
C585 C583 1.419 . S
C585 C586 1.362 . S
C586 H578 0.930 . S
C586 C585 1.362 . S
C586 C589 1.409 . S
C587 H579 0.930 . S
C587 C588 1.355 . S
C587 C589 1.415 . S
C588 C587 1.355 . S
C588 C590 1.419 . S
C589 C584 1.425 . S
C589 C586 1.409 . S
C589 C587 1.415 . S
C590 H580 0.930 . S
C590 C588 1.419 . S
C590 C591 1.362 . S
C591 H581 0.930 . S
C591 C584 1.409 . S
C591 C590 1.362 . S
H592 C598 0.930 . S
H593 C601 0.930 . S
H594 C602 0.930 . S
H595 C603 0.930 . S
H596 C606 0.930 . S
H597 C607 0.930 . S
C598 H592 0.930 . S
C598 C599 1.355 . S
C598 C600 1.415 . S
C599 C598 1.355 . S
C599 C601 1.419 . S
C600 C598 1.415 . S
C600 C605 1.425 . S
C600 C607 1.409 1_455 S
C601 H593 0.930 . S
C601 C599 1.419 . S
C601 C602 1.362 . S
C602 H594 0.930 . S
C602 C601 1.362 . S
C602 C605 1.409 . S
C603 H595 0.930 . S
C603 C604 1.355 . S
C603 C605 1.415 1_655 S
C604 C603 1.355 . S
C604 C606 1.419 . S
C605 C600 1.425 . S
C605 C602 1.409 . S
C605 C603 1.415 1_455 S
C606 H596 0.930 . S
C606 C604 1.419 . S
C606 C607 1.362 . S
C607 H597 0.930 . S
C607 C600 1.409 1_655 S
C607 C606 1.362 . S
H608 C614 0.930 . S
H609 C617 0.930 . S
H610 C618 0.930 . S
H611 C619 0.930 . S
H612 C622 0.930 . S
H613 C623 0.930 . S
C614 H608 0.930 . S
C614 C615 1.355 . S
C614 C616 1.415 . S
C615 C614 1.355 . S
C615 C617 1.419 . S
C616 C614 1.415 . S
C616 C621 1.425 . S
C616 C623 1.409 1_565 S
C617 H609 0.930 . S
C617 C615 1.419 . S
C617 C618 1.362 . S
C618 H610 0.930 . S
C618 C617 1.362 . S
C618 C621 1.409 . S
C619 H611 0.930 . S
C619 C620 1.355 . S
C619 C621 1.415 1_545 S
C620 C619 1.355 . S
C620 C622 1.419 . S
C621 C616 1.425 . S
C621 C618 1.409 . S
C621 C619 1.415 1_565 S
C622 H612 0.930 . S
C622 C620 1.419 . S
C622 C623 1.362 . S
C623 H613 0.930 . S
C623 C616 1.409 1_545 S
C623 C622 1.362 . S
H624 C630 0.930 . S
H625 C633 0.930 . S
H626 C634 0.930 . S
H627 C635 0.930 . S
H628 C638 0.930 . S
H629 C639 0.930 . S
C630 H624 0.930 . S
C630 C631 1.355 . S
C630 C632 1.415 . S
C631 C630 1.355 . S
C631 C633 1.419 . S
C632 C630 1.415 . S
C632 C637 1.425 . S
C632 C639 1.409 . S
C633 H625 0.930 . S
C633 C631 1.419 . S
C633 C634 1.362 . S
C634 H626 0.930 . S
C634 C633 1.362 . S
C634 C637 1.409 . S
C635 H627 0.930 . S
C635 C636 1.355 . S
C635 C637 1.415 . S
C636 C635 1.355 . S
C636 C638 1.419 . S
C637 C632 1.425 . S
C637 C634 1.409 . S
C637 C635 1.415 . S
C638 H628 0.930 . S
C638 C636 1.419 . S
C638 C639 1.362 . S
C639 H629 0.930 . S
C639 C632 1.409 . S
C639 C638 1.362 . S
H640 C646 0.930 . S
H641 C649 0.930 . S
H642 C650 0.930 . S
H643 C651 0.930 . S
H644 C654 0.930 . S
H645 C655 0.930 . S
C646 H640 0.930 . S
C646 C647 1.355 . S
C646 C648 1.415 . S
C647 C646 1.355 . S
C647 C649 1.419 . S
C648 C646 1.415 . S
C648 C653 1.425 . S
C648 C655 1.409 1_455 S
C649 H641 0.930 . S
C649 C647 1.419 . S
C649 C650 1.362 . S
C650 H642 0.930 . S
C650 C649 1.362 . S
C650 C653 1.409 . S
C651 H643 0.930 . S
C651 C652 1.355 . S
C651 C653 1.415 1_655 S
C652 C651 1.355 . S
C652 C654 1.419 . S
C653 C648 1.425 . S
C653 C650 1.409 . S
C653 C651 1.415 1_455 S
C654 H644 0.930 . S
C654 C652 1.419 . S
C654 C655 1.362 . S
C655 H645 0.930 . S
C655 C648 1.409 1_655 S
C655 C654 1.362 . S
H656 C662 0.930 . S
H657 C665 0.930 . S
H658 C666 0.930 . S
H659 C667 0.930 . S
H660 C670 0.930 . S
H661 C671 0.930 . S
C662 H656 0.930 . S
C662 C663 1.355 . S
C662 C664 1.415 1_545 S
C663 C662 1.355 . S
C663 C665 1.419 . S
C664 C662 1.415 1_565 S
C664 C669 1.425 . S
C664 C671 1.409 . S
C665 H657 0.930 . S
C665 C663 1.419 . S
C665 C666 1.362 . S
C666 H658 0.930 . S
C666 C665 1.362 . S
C666 C669 1.409 1_545 S
C667 H659 0.930 . S
C667 C668 1.355 . S
C667 C669 1.415 . S
C668 C667 1.355 . S
C668 C670 1.419 . S
C669 C664 1.425 . S
C669 C666 1.409 1_565 S
C669 C667 1.415 . S
C670 H660 0.930 . S
C670 C668 1.419 . S
C670 C671 1.362 . S
C671 H661 0.930 . S
C671 C664 1.409 . S
C671 C670 1.362 . S
H672 C678 0.930 . S
H673 C681 0.930 . S
H674 C682 0.930 . S
H675 C683 0.930 . S
H676 C686 0.930 . S
H677 C687 0.930 . S
C678 H672 0.930 . S
C678 C679 1.355 . S
C678 C680 1.415 . S
C679 C678 1.355 . S
C679 C681 1.419 . S
C680 C678 1.415 . S
C680 C685 1.425 . S
C680 C687 1.409 . S
C681 H673 0.930 . S
C681 C679 1.419 . S
C681 C682 1.362 . S
C682 H674 0.930 . S
C682 C681 1.362 . S
C682 C685 1.409 . S
C683 H675 0.930 . S
C683 C684 1.355 . S
C683 C685 1.415 . S
C684 C683 1.355 . S
C684 C686 1.419 . S
C685 C680 1.425 . S
C685 C682 1.409 . S
C685 C683 1.415 . S
C686 H676 0.930 . S
C686 C684 1.419 . S
C686 C687 1.362 . S
C687 H677 0.930 . S
C687 C680 1.409 . S
C687 C686 1.362 . S
H688 C694 0.930 . S
H689 C697 0.930 . S
H690 C698 0.930 . S
H691 C699 0.930 . S
H692 C702 0.930 . S
H693 C703 0.930 . S
C694 H688 0.930 . S
C694 C695 1.355 . S
C694 C696 1.415 . S
C695 C694 1.355 . S
C695 C697 1.419 . S
C696 C694 1.415 . S
C696 C701 1.425 . S
C696 C703 1.409 . S
C697 H689 0.930 . S
C697 C695 1.419 . S
C697 C698 1.362 . S
C698 H690 0.930 . S
C698 C697 1.362 . S
C698 C701 1.409 . S
C699 H691 0.930 . S
C699 C700 1.355 . S
C699 C701 1.415 . S
C700 C699 1.355 . S
C700 C702 1.419 . S
C701 C696 1.425 . S
C701 C698 1.409 . S
C701 C699 1.415 . S
C702 H692 0.930 . S
C702 C700 1.419 . S
C702 C703 1.362 . S
C703 H693 0.930 . S
C703 C696 1.409 . S
C703 C702 1.362 . S
H704 C710 0.930 . S
H705 C713 0.930 . S
H706 C714 0.930 . S
H707 C715 0.930 . S
H708 C718 0.930 . S
H709 C719 0.930 . S
C710 H704 0.930 . S
C710 C711 1.355 . S
C710 C712 1.415 . S
C711 C710 1.355 . S
C711 C713 1.419 . S
C712 C710 1.415 . S
C712 C717 1.425 . S
C712 C719 1.409 . S
C713 H705 0.930 . S
C713 C711 1.419 . S
C713 C714 1.362 . S
C714 H706 0.930 . S
C714 C713 1.362 . S
C714 C717 1.409 . S
C715 H707 0.930 . S
C715 C716 1.355 . S
C715 C717 1.415 . S
C716 C715 1.355 . S
C716 C718 1.419 . S
C717 C712 1.425 . S
C717 C714 1.409 . S
C717 C715 1.415 . S
C718 H708 0.930 . S
C718 C716 1.419 . S
C718 C719 1.362 . S
C719 H709 0.930 . S
C719 C712 1.409 . S
C719 C718 1.362 . S
H720 C726 0.930 . S
H721 C729 0.930 . S
H722 C730 0.930 . S
H723 C731 0.930 . S
H724 C734 0.930 . S
H725 C735 0.930 . S
C726 H720 0.930 . S
C726 C727 1.355 . S
C726 C728 1.415 . S
C727 C726 1.355 . S
C727 C729 1.419 . S
C728 C726 1.415 . S
C728 C733 1.425 . S
C728 C735 1.409 . S
C729 H721 0.930 . S
C729 C727 1.419 . S
C729 C730 1.362 . S
C730 H722 0.930 . S
C730 C729 1.362 . S
C730 C733 1.409 . S
C731 H723 0.930 . S
C731 C732 1.355 . S
C731 C733 1.415 . S
C732 C731 1.355 . S
C732 C734 1.419 . S
C733 C728 1.425 . S
C733 C730 1.409 . S
C733 C731 1.415 . S
C734 H724 0.930 . S
C734 C732 1.419 . S
C734 C735 1.362 . S
C735 H725 0.930 . S
C735 C728 1.409 . S
C735 C734 1.362 . S
H736 C742 0.930 . S
H737 C745 0.930 . S
H738 C746 0.930 . S
H739 C747 0.930 . S
H740 C750 0.930 . S
H741 C751 0.930 . S
C742 H736 0.930 . S
C742 C743 1.355 . S
C742 C744 1.415 . S
C743 C742 1.355 . S
C743 C745 1.419 . S
C744 C742 1.415 . S
C744 C749 1.425 . S
C744 C751 1.409 . S
C745 H737 0.930 . S
C745 C743 1.419 . S
C745 C746 1.362 . S
C746 H738 0.930 . S
C746 C745 1.362 . S
C746 C749 1.409 . S
C747 H739 0.930 . S
C747 C748 1.355 . S
C747 C749 1.415 . S
C748 C747 1.355 . S
C748 C750 1.419 . S
C749 C744 1.425 . S
C749 C746 1.409 . S
C749 C747 1.415 . S
C750 H740 0.930 . S
C750 C748 1.419 . S
C750 C751 1.362 . S
C751 H741 0.930 . S
C751 C744 1.409 . S
C751 C750 1.362 . S
H752 C758 0.930 . S
H753 C761 0.930 . S
H754 C762 0.930 . S
H755 C763 0.930 . S
H756 C766 0.930 . S
H757 C767 0.930 . S
C758 H752 0.930 . S
C758 C759 1.355 . S
C758 C760 1.415 . S
C759 C758 1.355 . S
C759 C761 1.419 . S
C760 C758 1.415 . S
C760 C765 1.425 . S
C760 C767 1.409 . S
C761 H753 0.930 . S
C761 C759 1.419 . S
C761 C762 1.362 . S
C762 H754 0.930 . S
C762 C761 1.362 . S
C762 C765 1.409 . S
C763 H755 0.930 . S
C763 C764 1.355 . S
C763 C765 1.415 . S
C764 C763 1.355 . S
C764 C766 1.419 . S
C765 C760 1.425 . S
C765 C762 1.409 . S
C765 C763 1.415 . S
C766 H756 0.930 . S
C766 C764 1.419 . S
C766 C767 1.362 . S
C767 H757 0.930 . S
C767 C760 1.409 . S
C767 C766 1.362 . S
H768 C774 0.930 . S
H769 C777 0.930 . S
H770 C778 0.930 1_545 S
H771 C779 0.930 . S
H772 C782 0.930 . S
H773 C783 0.930 1_565 S
C774 H768 0.930 . S
C774 C775 1.355 . S
C774 C776 1.415 1_556 S
C775 C774 1.355 . S
C775 C777 1.419 . S
C776 C774 1.415 1_554 S
C776 C781 1.425 1_564 S
C776 C783 1.409 1_565 S
C777 H769 0.930 . S
C777 C775 1.419 . S
C777 C778 1.362 . S
C778 H770 0.930 1_565 S
C778 C777 1.362 . S
C778 C781 1.409 1_565 S
C779 H771 0.930 . S
C779 C780 1.355 . S
C779 C781 1.415 1_554 S
C780 C779 1.355 . S
C780 C782 1.419 . S
C781 C776 1.425 1_546 S
C781 C778 1.409 1_545 S
C781 C779 1.415 1_556 S
C782 H772 0.930 . S
C782 C780 1.419 . S
C782 C783 1.362 . S
C783 H773 0.930 1_545 S
C783 C776 1.409 1_545 S
C783 C782 1.362 . S
H784 C790 0.930 . S
H785 C793 0.930 . S
H786 C794 0.930 . S
H787 C795 0.930 . S
H788 C798 0.930 . S
H789 C799 0.930 . S
C790 H784 0.930 . S
C790 C791 1.355 . S
C790 C792 1.415 . S
C791 C790 1.355 . S
C791 C793 1.419 . S
C792 C790 1.415 . S
C792 C797 1.425 . S
C792 C799 1.409 . S
C793 H785 0.930 . S
C793 C791 1.419 . S
C793 C794 1.362 . S
C794 H786 0.930 . S
C794 C793 1.362 . S
C794 C797 1.409 . S
C795 H787 0.930 . S
C795 C796 1.355 . S
C795 C797 1.415 . S
C796 C795 1.355 . S
C796 C798 1.419 . S
C797 C792 1.425 . S
C797 C794 1.409 . S
C797 C795 1.415 . S
C798 H788 0.930 . S
C798 C796 1.419 . S
C798 C799 1.362 . S
C799 H789 0.930 . S
C799 C792 1.409 . S
C799 C798 1.362 . S
H800 C806 0.930 . S
H801 C809 0.931 . S
H802 C810 0.930 . S
H803 C811 0.930 . S
H804 C814 0.931 . S
H805 C815 0.930 . S
C806 H800 0.930 . S
C806 C807 1.355 . S
C806 C808 1.407 1_455 S
C807 C806 1.355 . S
C807 C809 1.419 . S
C808 C806 1.407 1_655 S
C808 C813 1.416 1_656 S
C808 C815 1.421 . S
C809 H801 0.931 . S
C809 C807 1.419 . S
C809 C810 1.362 1_556 S
C810 H802 0.930 . S
C810 C809 1.362 1_554 S
C810 C813 1.421 . S
C811 H803 0.930 . S
C811 C812 1.355 . S
C811 C813 1.407 1_655 S
C812 C811 1.355 . S
C812 C814 1.419 . S
C813 C808 1.416 1_454 S
C813 C810 1.421 . S
C813 C811 1.407 1_455 S
C814 H804 0.931 . S
C814 C812 1.419 . S
C814 C815 1.362 1_554 S
C815 H805 0.930 . S
C815 C808 1.421 . S
C815 C814 1.362 1_556 S
H816 C822 0.930 . S
H817 C825 0.930 . S
H818 C826 0.930 . S
H819 C827 0.930 . S
H820 C830 0.930 . S
H821 C831 0.930 . S
C822 H816 0.930 . S
C822 C823 1.355 . S
C822 C824 1.415 . S
C823 C822 1.355 . S
C823 C825 1.419 . S
C824 C822 1.415 . S
C824 C829 1.425 1_545 S
C824 C831 1.409 . S
C825 H817 0.930 . S
C825 C823 1.419 . S
C825 C826 1.362 1_545 S
C826 H818 0.930 . S
C826 C825 1.362 1_565 S
C826 C829 1.409 . S
C827 H819 0.930 . S
C827 C828 1.355 . S
C827 C829 1.415 . S
C828 C827 1.355 . S
C828 C830 1.419 . S
C829 C824 1.425 1_565 S
C829 C826 1.409 . S
C829 C827 1.415 . S
C830 H820 0.930 . S
C830 C828 1.419 . S
C830 C831 1.362 1_565 S
C831 H821 0.930 . S
C831 C824 1.409 . S
C831 C830 1.362 1_545 S
H832 C838 0.930 . S
H833 C841 0.925 1_556 S
H834 C842 0.930 . S
H835 C843 0.930 . S
H836 C846 0.925 1_554 S
H837 C847 0.930 . S
C838 H832 0.930 . S
C838 C839 1.355 . S
C838 C840 1.415 . S
C839 C838 1.355 . S
C839 C841 1.441 . S
C840 C838 1.415 . S
C840 C845 1.425 1_554 S
C840 C847 1.409 . S
C841 H833 0.925 1_554 S
C841 C839 1.441 . S
C841 C842 1.346 1_554 S
C842 H834 0.930 . S
C842 C841 1.346 1_556 S
C842 C845 1.409 . S
C843 H835 0.930 . S
C843 C844 1.355 . S
C843 C845 1.415 . S
C844 C843 1.355 . S
C844 C846 1.441 . S
C845 C840 1.425 1_556 S
C845 C842 1.409 . S
C845 C843 1.415 . S
C846 H836 0.925 1_556 S
C846 C844 1.441 . S
C846 C847 1.346 1_556 S
C847 H837 0.930 . S
C847 C840 1.409 . S
C847 C846 1.346 1_554 S
H848 C854 0.930 . S
H849 C857 0.930 . S
H850 C858 0.930 . S
H851 C859 0.930 . S
H852 C862 0.930 . S
H853 C863 0.930 . S
C854 H848 0.930 . S
C854 C855 1.355 . S
C854 C856 1.415 . S
C855 C854 1.355 . S
C855 C857 1.419 . S
C856 C854 1.415 . S
C856 C861 1.425 1_455 S
C856 C863 1.409 . S
C857 H849 0.930 . S
C857 C855 1.419 . S
C857 C858 1.362 1_455 S
C858 H850 0.930 . S
C858 C857 1.362 1_655 S
C858 C861 1.409 . S
C859 H851 0.930 . S
C859 C860 1.355 . S
C859 C861 1.415 . S
C860 C859 1.355 . S
C860 C862 1.419 . S
C861 C856 1.425 1_655 S
C861 C858 1.409 . S
C861 C859 1.415 . S
C862 H852 0.930 . S
C862 C860 1.419 . S
C862 C863 1.362 1_655 S
C863 H853 0.930 . S
C863 C856 1.409 . S
C863 C862 1.362 1_455 S
H864 C870 0.930 . S
H865 C873 0.930 . S
H866 C874 0.930 . S
H867 C875 0.930 . S
H868 C878 0.930 . S
H869 C879 0.930 . S
C870 H864 0.930 . S
C870 C871 1.355 . S
C870 C872 1.415 . S
C871 C870 1.355 . S
C871 C873 1.419 . S
C872 C870 1.415 . S
C872 C877 1.425 . S
C872 C879 1.409 . S
C873 H865 0.930 . S
C873 C871 1.419 . S
C873 C874 1.362 . S
C874 H866 0.930 . S
C874 C873 1.362 . S
C874 C877 1.409 . S
C875 H867 0.930 . S
C875 C876 1.355 . S
C875 C877 1.415 . S
C876 C875 1.355 . S
C876 C878 1.419 . S
C877 C872 1.425 . S
C877 C874 1.409 . S
C877 C875 1.415 . S
C878 H868 0.930 . S
C878 C876 1.419 . S
C878 C879 1.362 . S
C879 H869 0.930 . S
C879 C872 1.409 . S
C879 C878 1.362 . S
H880 C886 0.930 . S
H881 C889 0.930 . S
H882 C890 0.930 . S
H883 C891 0.930 . S
H884 C894 0.930 . S
H885 C895 0.930 . S
C886 H880 0.930 . S
C886 C887 1.355 . S
C886 C888 1.415 . S
C887 C886 1.355 . S
C887 C889 1.419 . S
C888 C886 1.415 . S
C888 C893 1.425 . S
C888 C895 1.409 . S
C889 H881 0.930 . S
C889 C887 1.419 . S
C889 C890 1.362 . S
C890 H882 0.930 . S
C890 C889 1.362 . S
C890 C893 1.409 . S
C891 H883 0.930 . S
C891 C892 1.355 . S
C891 C893 1.415 . S
C892 C891 1.355 . S
C892 C894 1.419 . S
C893 C888 1.425 . S
C893 C890 1.409 . S
C893 C891 1.415 . S
C894 H884 0.930 . S
C894 C892 1.419 . S
C894 C895 1.362 . S
C895 H885 0.930 . S
C895 C888 1.409 . S
C895 C894 1.362 . S
H896 C902 0.930 . S
H897 C905 0.930 . S
H898 C906 0.930 . S
H899 C907 0.930 . S
H900 C910 0.930 . S
H901 C911 0.930 . S
C902 H896 0.930 . S
C902 C903 1.355 . S
C902 C904 1.415 . S
C903 C902 1.355 . S
C903 C905 1.419 . S
C904 C902 1.415 . S
C904 C909 1.425 . S
C904 C911 1.409 . S
C905 H897 0.930 . S
C905 C903 1.419 . S
C905 C906 1.362 . S
C906 H898 0.930 . S
C906 C905 1.362 . S
C906 C909 1.409 . S
C907 H899 0.930 . S
C907 C908 1.355 . S
C907 C909 1.415 . S
C908 C907 1.355 . S
C908 C910 1.419 . S
C909 C904 1.425 . S
C909 C906 1.409 . S
C909 C907 1.415 . S
C910 H900 0.930 . S
C910 C908 1.419 . S
C910 C911 1.362 . S
C911 H901 0.930 . S
C911 C904 1.409 . S
C911 C910 1.362 . S
H912 C918 0.930 . S
H913 C921 0.930 . S
H914 C922 0.930 . S
H915 C923 0.930 . S
H916 C926 0.930 . S
H917 C927 0.930 . S
C918 H912 0.930 . S
C918 C919 1.355 . S
C918 C920 1.415 . S
C919 C918 1.355 . S
C919 C921 1.419 . S
C920 C918 1.415 . S
C920 C925 1.425 . S
C920 C927 1.409 . S
C921 H913 0.930 . S
C921 C919 1.419 . S
C921 C922 1.362 . S
C922 H914 0.930 . S
C922 C921 1.362 . S
C922 C925 1.409 . S
C923 H915 0.930 . S
C923 C924 1.355 . S
C923 C925 1.415 . S
C924 C923 1.355 . S
C924 C926 1.419 . S
C925 C920 1.425 . S
C925 C922 1.409 . S
C925 C923 1.415 . S
C926 H916 0.930 . S
C926 C924 1.419 . S
C926 C927 1.362 . S
C927 H917 0.930 . S
C927 C920 1.409 . S
C927 C926 1.362 . S
H928 C934 0.930 . S
H929 C937 0.930 . S
H930 C938 0.930 . S
H931 C939 0.930 . S
H932 C942 0.930 . S
H933 C943 0.930 . S
C934 H928 0.930 . S
C934 C935 1.355 . S
C934 C936 1.415 . S
C935 C934 1.355 . S
C935 C937 1.419 . S
C936 C934 1.415 . S
C936 C941 1.425 . S
C936 C943 1.409 . S
C937 H929 0.930 . S
C937 C935 1.419 . S
C937 C938 1.362 . S
C938 H930 0.930 . S
C938 C937 1.362 . S
C938 C941 1.409 . S
C939 H931 0.930 . S
C939 C940 1.355 . S
C939 C941 1.415 . S
C940 C939 1.355 . S
C940 C942 1.419 . S
C941 C936 1.425 . S
C941 C938 1.409 . S
C941 C939 1.415 . S
C942 H932 0.930 . S
C942 C940 1.419 . S
C942 C943 1.362 . S
C943 H933 0.930 . S
C943 C936 1.409 . S
C943 C942 1.362 . S
H944 C950 0.930 . S
H945 C953 0.930 . S
H946 C954 0.930 . S
H947 C955 0.930 . S
H948 C958 0.930 . S
H949 C959 0.930 . S
C950 H944 0.930 . S
C950 C951 1.355 . S
C950 C952 1.415 . S
C951 C950 1.355 . S
C951 C953 1.419 . S
C952 C950 1.415 . S
C952 C957 1.425 . S
C952 C959 1.409 . S
C953 H945 0.930 . S
C953 C951 1.419 . S
C953 C954 1.362 . S
C954 H946 0.930 . S
C954 C953 1.362 . S
C954 C957 1.409 . S
C955 H947 0.930 . S
C955 C956 1.355 . S
C955 C957 1.415 . S
C956 C955 1.355 . S
C956 C958 1.419 . S
C957 C952 1.425 . S
C957 C954 1.409 . S
C957 C955 1.415 . S
C958 H948 0.930 . S
C958 C956 1.419 . S
C958 C959 1.362 . S
C959 H949 0.930 . S
C959 C952 1.409 . S
C959 C958 1.362 . S
H960 C966 0.930 . S
H961 C969 0.930 . S
H962 C970 0.930 . S
H963 C971 0.930 . S
H964 C974 0.930 . S
H965 C975 0.930 . S
C966 H960 0.930 . S
C966 C967 1.355 . S
C966 C968 1.415 . S
C967 C966 1.355 . S
C967 C969 1.419 . S
C968 C966 1.415 . S
C968 C973 1.425 . S
C968 C975 1.409 . S
C969 H961 0.930 . S
C969 C967 1.419 . S
C969 C970 1.362 . S
C970 H962 0.930 . S
C970 C969 1.362 . S
C970 C973 1.409 . S
C971 H963 0.930 . S
C971 C972 1.355 . S
C971 C973 1.415 . S
C972 C971 1.355 . S
C972 C974 1.419 . S
C973 C968 1.425 . S
C973 C970 1.409 . S
C973 C971 1.415 . S
C974 H964 0.930 . S
C974 C972 1.419 . S
C974 C975 1.362 . S
C975 H965 0.930 . S
C975 C968 1.409 . S
C975 C974 1.362 . S
H976 C982 0.930 . S
H977 C985 0.930 . S
H978 C986 0.930 . S
H979 C987 0.930 . S
H980 C990 0.930 . S
H981 C991 0.930 . S
C982 H976 0.930 . S
C982 C983 1.355 . S
C982 C984 1.415 . S
C983 C982 1.355 . S
C983 C985 1.419 . S
C984 C982 1.415 . S
C984 C989 1.425 . S
C984 C991 1.409 . S
C985 H977 0.930 . S
C985 C983 1.419 . S
C985 C986 1.362 . S
C986 H978 0.930 . S
C986 C985 1.362 . S
C986 C989 1.409 . S
C987 H979 0.930 . S
C987 C988 1.355 . S
C987 C989 1.415 . S
C988 C987 1.355 . S
C988 C990 1.419 . S
C989 C984 1.425 . S
C989 C986 1.409 . S
C989 C987 1.415 . S
C990 H980 0.930 . S
C990 C988 1.419 . S
C990 C991 1.362 . S
C991 H981 0.930 . S
C991 C984 1.409 . S
C991 C990 1.362 . S
H992 C998 0.930 . S
H993 C1001 0.930 . S
H994 C1002 0.930 . S
H995 C1003 0.930 . S
H996 C1006 0.930 . S
H997 C1007 0.930 . S
C998 H992 0.930 . S
C998 C999 1.355 . S
C998 C1000 1.415 . S
C999 C998 1.355 . S
C999 C1001 1.419 . S
C1000 C998 1.415 . S
C1000 C1005 1.425 . S
C1000 C1007 1.409 . S
C1001 H993 0.930 . S
C1001 C999 1.419 . S
C1001 C1002 1.362 . S
C1002 H994 0.930 . S
C1002 C1001 1.362 . S
C1002 C1005 1.409 . S
C1003 H995 0.930 . S
C1003 C1004 1.355 . S
C1003 C1005 1.415 . S
C1004 C1003 1.355 . S
C1004 C1006 1.419 . S
C1005 C1000 1.425 . S
C1005 C1002 1.409 . S
C1005 C1003 1.415 . S
C1006 H996 0.930 . S
C1006 C1004 1.419 . S
C1006 C1007 1.362 . S
C1007 H997 0.930 . S
C1007 C1000 1.409 . S
C1007 C1006 1.362 . S
H1008 C1014 0.930 . S
H1009 C1017 0.930 . S
H1010 C1018 0.930 . S
H1011 C1019 0.930 . S
H1012 C1022 0.930 . S
H1013 C1023 0.930 . S
C1014 H1008 0.930 . S
C1014 C1015 1.355 . S
C1014 C1016 1.415 . S
C1015 C1014 1.355 . S
C1015 C1017 1.419 . S
C1016 C1014 1.415 . S
C1016 C1021 1.425 . S
C1016 C1023 1.409 . S
C1017 H1009 0.930 . S
C1017 C1015 1.419 . S
C1017 C1018 1.362 . S
C1018 H1010 0.930 . S
C1018 C1017 1.362 . S
C1018 C1021 1.409 . S
C1019 H1011 0.930 . S
C1019 C1020 1.355 . S
C1019 C1021 1.415 . S
C1020 C1019 1.355 . S
C1020 C1022 1.419 . S
C1021 C1016 1.425 . S
C1021 C1018 1.409 . S
C1021 C1019 1.415 . S
C1022 H1012 0.930 . S
C1022 C1020 1.419 . S
C1022 C1023 1.362 . S
C1023 H1013 0.930 . S
C1023 C1016 1.409 . S
C1023 C1022 1.362 . S
H1024 C1030 0.930 . S
H1025 C1033 0.930 . S
H1026 C1034 0.930 . S
H1027 C1035 0.930 . S
H1028 C1038 0.930 . S
H1029 C1039 0.930 . S
C1030 H1024 0.930 . S
C1030 C1031 1.355 . S
C1030 C1032 1.415 . S
C1031 C1030 1.355 . S
C1031 C1033 1.419 . S
C1032 C1030 1.415 . S
C1032 C1037 1.425 . S
C1032 C1039 1.409 . S
C1033 H1025 0.930 . S
C1033 C1031 1.419 . S
C1033 C1034 1.362 . S
C1034 H1026 0.930 . S
C1034 C1033 1.362 . S
C1034 C1037 1.409 . S
C1035 H1027 0.930 . S
C1035 C1036 1.355 . S
C1035 C1037 1.415 . S
C1036 C1035 1.355 . S
C1036 C1038 1.419 . S
C1037 C1032 1.425 . S
C1037 C1034 1.409 . S
C1037 C1035 1.415 . S
C1038 H1028 0.930 . S
C1038 C1036 1.419 . S
C1038 C1039 1.362 . S
C1039 H1029 0.930 . S
C1039 C1032 1.409 . S
C1039 C1038 1.362 . S
H1040 C1046 0.930 . S
H1041 C1049 0.930 . S
H1042 C1050 0.930 . S
H1043 C1051 0.930 . S
H1044 C1054 0.930 . S
H1045 C1055 0.930 . S
C1046 H1040 0.930 . S
C1046 C1047 1.355 . S
C1046 C1048 1.415 . S
C1047 C1046 1.355 . S
C1047 C1049 1.419 . S
C1048 C1046 1.415 . S
C1048 C1053 1.425 . S
C1048 C1055 1.409 . S
C1049 H1041 0.930 . S
C1049 C1047 1.419 . S
C1049 C1050 1.362 . S
C1050 H1042 0.930 . S
C1050 C1049 1.362 . S
C1050 C1053 1.409 . S
C1051 H1043 0.930 . S
C1051 C1052 1.355 . S
C1051 C1053 1.415 . S
C1052 C1051 1.355 . S
C1052 C1054 1.419 . S
C1053 C1048 1.425 . S
C1053 C1050 1.409 . S
C1053 C1051 1.415 . S
C1054 H1044 0.930 . S
C1054 C1052 1.419 . S
C1054 C1055 1.362 . S
C1055 H1045 0.930 . S
C1055 C1048 1.409 . S
C1055 C1054 1.362 . S
C487 C109 1.297 . S
C492 C12 1.269 . S
C503 C128 1.309 . S
C508 C71 1.276 . S
C519 C92 1.304 . S
C524 C189 1.300 . S
C535 C151 1.279 . S
C540 C208 1.310 . S
C551 C29 1.305 . S
C556 C172 1.313 . S
C567 C48 1.306 . S
C572 C231 1.314 . S
C583 C408 1.298 . S
C588 C271 1.298 . S
C599 C292 1.314 . S
C604 C469 1.306 . S
C615 C351 1.311 . S
C620 C248 1.303 . S
C631 C372 1.265 . S
C636 C309 1.299 . S
C647 C431 1.305 . S
C652 C328 1.313 . S
C663 C389 1.311 . S
C668 C452 1.312 . S
C679 C137 1.735 . S
C684 C2 1.732 . S
C695 C57 1.766 . S
C700 C162 1.700 . S
C711 C82 1.751 . S
C716 C217 1.716 . S
C727 C257 1.696 . S
C732 C362 1.770 . S
C743 C282 1.762 . S
C748 C417 1.704 . S
C759 C337 1.759 . S
C764 C442 1.707 . S
C775 C297 2.371 . S
C780 C17 2.372 . S
C791 C42 2.381 . S
C796 C322 2.382 . S
C807 C377 2.384 . S
C812 C97 2.385 . S
C823 C122 2.360 . S
C828 C402 2.359 . S
C839 C177 2.380 . S
C844 C457 2.379 . S
C855 C242 2.359 . S
C860 C202 2.358 . S
C871 C88 1.708 . S
C876 C31 1.743 . S
C887 C52 1.716 . S
C892 C149 1.651 . S
C903 C111 1.743 . S
C908 C168 1.710 . S
C919 C132 1.736 . S
C924 C229 1.690 . S
C935 C8 1.651 . S
C940 C191 1.716 . S
C951 C69 1.693 . S
C956 C212 1.730 . S
C967 C429 1.664 . S
C972 C252 1.724 . S
C983 C311 1.712 . S
C988 C448 1.650 . S
C999 C332 1.726 . S
C1004 C269 1.685 . S
C1015 C288 1.660 . S
C1020 C391 1.722 . S
C1031 C412 1.712 . S
C1036 C349 1.650 . S
C1047 C471 1.740 . S
C1052 C368 1.708 . S
