# Generated by pormake.
# Topology sxb, (6)-cn, num edge types: 1
# Building blocks:
#     Node 0, Type 0, BuildingBlock: PAMTUU_clean_sbu_0, # of connection points: 6
#     Node 1, Type 0, BuildingBlock: PAMTUU_clean_sbu_0, # of connection points: 6
#     Node 2, Type 0, BuildingBlock: PAMTUU_clean_sbu_0, # of connection points: 6
#     Node 3, Type 0, BuildingBlock: PAMTUU_clean_sbu_0, # of connection points: 6
#     Edge 4, Type (0, 0), BuildingBlock: FUNLAD_clean_linker_1, # of connection points: 2
#     Edge 5, Type (0, 0), BuildingBlock: FUNLAD_clean_linker_1, # of connection points: 2
#     Edge 6, Type (0, 0), BuildingBlock: FUNLAD_clean_linker_1, # of connection points: 2
#     Edge 7, Type (0, 0), BuildingBlock: FUNLAD_clean_linker_1, # of connection points: 2
#     Edge 8, Type (0, 0), BuildingBlock: FUNLAD_clean_linker_1, # of connection points: 2
#     Edge 9, Type (0, 0), BuildingBlock: FUNLAD_clean_linker_1, # of connection points: 2
#     Edge 10, Type (0, 0), BuildingBlock: FUNLAD_clean_linker_1, # of connection points: 2
#     Edge 11, Type (0, 0), BuildingBlock: FUNLAD_clean_linker_1, # of connection points: 2
#     Edge 12, Type (0, 0), BuildingBlock: FUNLAD_clean_linker_1, # of connection points: 2
#     Edge 13, Type (0, 0), BuildingBlock: FUNLAD_clean_linker_1, # of connection points: 2
#     Edge 14, Type (0, 0), BuildingBlock: FUNLAD_clean_linker_1, # of connection points: 2
#     Edge 15, Type (0, 0), BuildingBlock: FUNLAD_clean_linker_1, # of connection points: 2
# Relax obj value: 0.109
# Max RMSD: 0.190
# Mean RMSD: 0.190
data_MOF--net-sxb--node1-PAMTUU_clean_sbu_0--edge1-FUNLAD_clean_linker_1
_symmetry_space_group_name_H-M    P1
_symmetry_Int_Tables_number       1
_symmetry_cell_setting            triclinic
loop_
_symmetry_equiv_pos_as_xyz
'x, y, z'
_cell_length_a     24.749266
_cell_length_b     17.795776
_cell_length_c     31.07911
_cell_angle_alpha  89.691577
_cell_angle_beta   99.102467
_cell_angle_gamma 89.304905
loop_
_atom_site_label
_atom_site_type_symbol
_atom_site_fract_x
_atom_site_fract_y
_atom_site_fract_z
_atom_type_partial_charge
Tb0 Tb 0.07946 0.07837 0.98692 0.0
Tb1 Tb 0.97926 0.95574 0.97281 0.0
C2 C 1.02508 0.01919 0.06283 0.0
C3 C 0.22076 0.15524 0.0014 0.0
C4 C 0.33571 0.1353 0.00874 0.0
C5 C 0.30993 0.13267 0.04584 0.0
C6 C 0.25316 0.14236 0.04227 0.0
C7 C 0.24672 0.15949 0.96436 0.0
C8 C 0.30343 0.14948 0.96791 0.0
C9 C 0.16047 0.16576 0.99739 0.0
O10 O 0.11788 0.97022 0.9782 0.0
O11 O 0.05273 0.88978 0.99722 0.0
O12 O 1.01857 0.94817 0.91536 0.0
O13 O 0.04918 0.0696 0.91756 0.0
O14 O 0.93064 0.87829 0.00029 0.0
O15 O 0.91274 0.90796 0.93225 0.0
O16 O 0.94746 0.06399 0.94761 0.0
O17 O 1.00436 0.14198 0.99162 0.0
O18 O 0.07227 0.02735 0.04941 0.0
O19 O 0.98014 0.01155 0.03486 0.0
C20 C 0.10278 0.90376 0.99033 0.0
O21 O 0.13165 0.15089 0.95971 0.0
O22 O 0.13704 0.14046 0.02915 0.0
C23 C 0.03598 0.0072 0.8963 0.0
C24 C 0.83837 0.89829 0.96997 0.0
C25 C 0.73018 0.94435 0.97669 0.0
C26 C 0.74249 0.86881 0.9683 0.0
C27 C 0.79607 0.84599 0.96486 0.0
C28 C 0.82663 0.97336 0.97895 0.0
C29 C 0.77325 0.99632 0.98207 0.0
C30 C 0.89454 0.87621 0.96491 0.0
C31 C 0.95687 0.12808 0.96758 0.0
H32 H 0.3338 0.12284 0.07776 0.0
H33 H 0.23472 0.14002 0.07161 0.0
H34 H 0.22323 0.17116 0.93251 0.0
H35 H 0.3218 0.15483 0.93872 0.0
H36 H 0.71047 0.82727 0.9641 0.0
H37 H 0.80436 0.78774 0.95794 0.0
H38 H 0.85882 0.01463 0.98317 0.0
H39 H 0.76665 0.05492 0.98837 0.0
Tb40 Tb 0.98417 0.02696 0.46663 0.0
Tb41 Tb 0.09074 0.91212 0.49568 0.0
C42 C 0.05403 0.96762 0.39872 0.0
C43 C 0.84005 0.08629 0.45015 0.0
C44 C 0.73014 0.04733 0.45262 0.0
C45 C 0.74278 0.1092 0.42777 0.0
C46 C 0.79716 0.12837 0.42645 0.0
C47 C 0.82797 0.02517 0.47558 0.0
C48 C 0.77363 0.0058 0.47692 0.0
C49 C 0.89713 0.10299 0.4461 0.0
O50 O 0.95874 0.91254 0.45133 0.0
O51 O 1.01885 0.8463 0.50166 0.0
O52 O 0.06979 0.96405 0.55407 0.0
O53 O 0.97843 0.9847 0.53133 0.0
O54 O 0.14011 0.8195 0.4841 0.0
O55 O 0.1583 0.88395 0.54297 0.0
O56 O 0.12484 0.0187 0.4811 0.0
O57 O 0.05336 0.10037 0.48784 0.0
O58 O 1.02872 0.02617 0.41211 0.0
O59 O 0.072 0.91112 0.42472 0.0
C60 C 0.97101 0.85369 0.47678 0.0
O61 O 0.93073 0.11144 0.48254 0.0
O62 O 0.91827 0.06023 0.41901 0.0
C63 C 1.02003 0.97454 0.56248 0.0
C64 C 0.23334 0.84243 0.5121 0.0
C65 C 0.3434 0.87002 0.5037 0.0
C66 C 0.33005 0.83904 0.5423 0.0
C67 C 0.27562 0.82519 0.54642 0.0
C68 C 0.24625 0.87374 0.47348 0.0
C69 C 0.30073 0.88721 0.46922 0.0
C70 C 0.17607 0.83326 0.5185 0.0
C71 C 0.10551 0.08643 0.48656 0.0
H72 H 0.71041 0.14251 0.40886 0.0
H73 H 0.8057 0.17545 0.40643 0.0
H74 H 0.86067 0.99179 0.49401 0.0
H75 H 0.76658 0.95823 0.49693 0.0
H76 H 0.36187 0.82559 0.56949 0.0
H77 H 0.26646 0.80176 0.57667 0.0
H78 H 0.21415 0.88918 0.44689 0.0
H79 H 0.30871 0.91297 0.43934 0.0
Tb80 Tb 0.58271 0.52719 0.02379 0.0
Tb81 Tb 0.48348 0.40425 0.01453 0.0
C82 C 0.52605 0.48582 0.10253 0.0
C83 C 0.72464 0.57719 0.02388 0.0
C84 C 0.83106 0.52299 0.01746 0.0
C85 C 0.81464 0.59659 0.00359 0.0
C86 C 0.76177 0.62334 0.00678 0.0
C87 C 0.74098 0.50377 0.03731 0.0
C88 C 0.79359 0.47734 0.03448 0.0
C89 C 0.66835 0.60369 0.02638 0.0
O90 O 0.61421 0.42381 0.05583 0.0
O91 O 0.55936 0.3396 0.01496 0.0
O92 O 0.4897 0.44867 0.95024 0.0
O93 O 0.58173 0.4612 0.96497 0.0
O94 O 0.42838 0.34032 0.04397 0.0
O95 O 0.42996 0.33238 0.97519 0.0
O96 O 0.44406 0.51311 0.01835 0.0
O97 O 0.50912 0.59172 0.99738 0.0
O98 O 0.54432 0.54215 0.08154 0.0
O99 O 0.51259 0.42145 0.0835 0.0
C100 C 0.60572 0.35666 0.03968 0.0
O101 O 0.63281 0.59501 0.99113 0.0
O102 O 0.64857 0.58255 0.06092 0.0
C103 C 0.53704 0.45346 0.93678 0.0
C104 C 0.34281 0.32896 0.9986 0.0
C105 C 0.2289 0.36014 0.9854 0.0
C106 C 0.25665 0.33883 0.02684 0.0
C107 C 0.31283 0.32318 0.03324 0.0
C108 C 0.31497 0.34883 0.95701 0.0
C109 C 0.25873 0.36469 0.95063 0.0
C110 C 0.40296 0.31657 0.00676 0.0
C111 C 0.45892 0.57833 0.00429 0.0
H112 H 0.84256 0.63419 0.99108 0.0
H113 H 0.74994 0.68003 0.99601 0.0
H114 H 0.71311 0.46658 0.05018 0.0
H115 H 0.80495 0.42063 0.04555 0.0
H116 H 0.23581 0.33653 0.05487 0.0
H117 H 0.33307 0.3077 0.06562 0.0
H118 H 0.33669 0.35354 0.9295 0.0
H119 H 0.23857 0.3816 0.91847 0.0
Tb120 Tb 0.4744 0.58902 0.50671 0.0
Tb121 Tb 0.57984 0.47109 0.53046 0.0
C122 C 0.54157 0.53223 0.43583 0.0
C123 C 0.33556 0.66305 0.50415 0.0
C124 C 0.23143 0.63296 0.52616 0.0
C125 C 0.23647 0.66333 0.48499 0.0
C126 C 0.2881 0.67805 0.47417 0.0
C127 C 0.33072 0.63392 0.54543 0.0
C128 C 0.27916 0.61971 0.5564 0.0
C129 C 0.38959 0.67063 0.49053 0.0
O130 O 0.43974 0.48135 0.51851 0.0
O131 O 0.50994 0.39917 0.5092 0.0
O132 O 0.5375 0.46577 0.58628 0.0
O133 O 0.49442 0.58155 0.57765 0.0
O134 O 0.63134 0.38675 0.51165 0.0
O135 O 0.64877 0.43752 0.57517 0.0
O136 O 0.60505 0.58387 0.5497 0.0
O137 O 0.54678 0.65377 0.50037 0.0
O138 O 0.49253 0.54552 0.4452 0.0
O139 O 0.58347 0.51791 0.46621 0.0
C140 C 0.45809 0.4138 0.51125 0.0
O141 O 0.43078 0.68571 0.52086 0.0
O142 O 0.40183 0.61755 0.46497 0.0
C143 C 0.51236 0.52262 0.60171 0.0
C144 C 0.72334 0.41546 0.53882 0.0
C145 C 0.82927 0.46229 0.52883 0.0
C146 C 0.82191 0.41033 0.56173 0.0
C147 C 0.7693 0.38726 0.56666 0.0
C148 C 0.73066 0.46674 0.50576 0.0
C149 C 0.78314 0.48932 0.50059 0.0
C150 C 0.66783 0.39616 0.54637 0.0
C151 C 0.59449 0.64382 0.52505 0.0
H152 H 0.20096 0.67661 0.46106 0.0
H153 H 0.29102 0.70033 0.44211 0.0
H154 H 0.36681 0.62065 0.56892 0.0
H155 H 0.27668 0.59654 0.58832 0.0
H156 H 0.85659 0.3868 0.58339 0.0
H157 H 0.76446 0.34802 0.59251 0.0
H158 H 0.69576 0.49019 0.48425 0.0
H159 H 0.78766 0.52905 0.4749 0.0
H160 H 0.4147 0.66893 0.96399 0.0
C161 C 0.41633 0.63704 0.99407 0.0
H162 H 0.38204 0.61623 0.05044 0.0
H163 H 0.25412 0.93019 0.96096 0.0
H164 H 0.34284 0.98203 0.95928 0.0
H165 H 0.42686 0.90668 0.98241 0.0
H166 H 0.42182 0.7797 0.00891 0.0
C167 C 0.37854 0.6483 0.02023 0.0
C168 C 0.32847 0.69653 0.00762 0.0
C169 C 0.33225 0.77313 0.99537 0.0
C170 C 0.28377 0.81703 0.98244 0.0
C171 C 0.28901 0.89324 0.97031 0.0
C172 C 0.34008 0.92443 0.9697 0.0
C173 C 0.38722 0.88208 0.98282 0.0
C174 C 0.38364 0.80818 0.99682 0.0
H175 H 0.14698 0.81029 0.02794 0.0
C176 C 0.14479 0.84398 0.99845 0.0
H177 H 0.17739 0.86748 0.94163 0.0
H178 H 0.30539 0.55263 0.0317 0.0
H179 H 0.21608 0.50068 0.032 0.0
H180 H 0.13252 0.57344 0.00343 0.0
H181 H 0.1383 0.70139 0.97826 0.0
C182 C 0.18145 0.83381 0.97129 0.0
C183 C 0.23145 0.78512 0.98264 0.0
C184 C 0.22762 0.7083 0.99421 0.0
C185 C 0.27604 0.66472 0.00792 0.0
C186 C 0.27054 0.58901 0.02097 0.0
C187 C 0.21925 0.55766 0.02061 0.0
C188 C 0.17226 0.59891 0.00506 0.0
C189 C 0.17619 0.67292 0.99137 0.0
H190 H 0.68476 0.31491 0.07316 0.0
C191 C 0.65375 0.30633 0.0447 0.0
H192 H 0.639 0.26794 0.98039 0.0
H193 H 0.87973 0.32745 0.95054 0.0
H194 H 0.82695 0.42044 0.90316 0.0
H195 H 0.72886 0.44033 0.9049 0.0
H196 H 0.68197 0.36641 0.9526 0.0
C197 C 0.66783 0.26975 0.01055 0.0
C198 C 0.72681 0.25449 0.00884 0.0
C199 C 0.75365 0.29811 0.98041 0.0
C200 C 0.81054 0.28707 0.97967 0.0
C201 C 0.83642 0.33257 0.95169 0.0
C202 C 0.80687 0.38663 0.92475 0.0
C203 C 0.75147 0.3977 0.92557 0.0
C204 C 0.72499 0.35441 0.95306 0.0
H205 H 0.87608 0.17218 0.93962 0.0
C206 C 0.90908 0.17818 0.96696 0.0
H207 H 0.92936 0.21362 0.0319 0.0
H208 H 0.6878 0.16093 0.06657 0.0
H209 H 0.73965 0.06636 0.11274 0.0
H210 H 0.8381 0.04615 0.11112 0.0
H211 H 0.8853 0.12047 0.06365 0.0
C212 C 0.89845 0.21317 0.00286 0.0
C213 C 0.84051 0.23188 0.00703 0.0
C214 C 0.81381 0.18904 0.03597 0.0
C215 C 0.75695 0.20046 0.0369 0.0
C216 C 0.73108 0.15558 0.06522 0.0
C217 C 0.76027 0.10066 0.09165 0.0
C218 C 0.81566 0.08923 0.09069 0.0
C219 C 0.84232 0.13261 0.06328 0.0
H220 H 0.12825 0.20485 0.47789 0.0
C221 C 0.14394 0.14956 0.48878 0.0
H222 H 0.21251 0.08305 0.51447 0.0
H223 H 0.39508 0.26108 0.44224 0.0
H224 H 0.39878 0.14029 0.40765 0.0
H225 H 0.32984 0.04415 0.41453 0.0
H226 H 0.25653 0.06851 0.45573 0.0
C227 C 0.19775 0.13869 0.50325 0.0
C228 C 0.23979 0.19734 0.50055 0.0
C229 C 0.28328 0.18155 0.47691 0.0
C230 C 0.32408 0.23627 0.4739 0.0
C231 C 0.3648 0.22045 0.44775 0.0
C232 C 0.36696 0.15155 0.42706 0.0
C233 C 0.3281 0.09746 0.43089 0.0
C234 C 0.28637 0.11218 0.45502 0.0
H235 H 0.43395 0.2955 0.51831 0.0
C236 C 0.41892 0.35147 0.50816 0.0
H237 H 0.35126 0.42015 0.48321 0.0
H238 H 0.1665 0.24288 0.55338 0.0
H239 H 0.16228 0.36413 0.58734 0.0
H240 H 0.23127 0.46024 0.58046 0.0
H241 H 0.30516 0.43533 0.54001 0.0
C242 C 0.36523 0.3639 0.49383 0.0
C243 C 0.32245 0.30598 0.49575 0.0
C244 C 0.2787 0.32202 0.5191 0.0
C245 C 0.23789 0.26729 0.52211 0.0
C246 C 0.19689 0.28339 0.54795 0.0
C247 C 0.1944 0.3526 0.56826 0.0
C248 C 0.23325 0.40669 0.56441 0.0
C249 C 0.27535 0.39162 0.5407 0.0
H250 H 0.9372 0.75303 0.50431 0.0
C251 C 0.92693 0.80177 0.4833 0.0
H252 H 0.86299 0.86902 0.44899 0.0
H253 H 0.67628 0.62995 0.45007 0.0
H254 H 0.69037 0.6205 0.37499 0.0
H255 H 0.76751 0.6845 0.34953 0.0
H256 H 0.83139 0.75772 0.39935 0.0
C257 C 0.87404 0.82051 0.47004 0.0
C258 C 0.8286 0.78032 0.48592 0.0
C259 C 0.79106 0.73902 0.45626 0.0
C260 C 0.74611 0.70316 0.4708 0.0
C261 C 0.71043 0.65987 0.44074 0.0
C262 C 0.71821 0.65359 0.3975 0.0
C263 C 0.76163 0.68959 0.38317 0.0
C264 C 0.79788 0.73164 0.41208 0.0
H265 H 0.6309 0.74518 0.50071 0.0
C266 C 0.64002 0.6936 0.51927 0.0
H267 H 0.7023 0.61838 0.54854 0.0
H268 H 0.88957 0.86212 0.55071 0.0
H269 H 0.87609 0.86991 0.62593 0.0
H270 H 0.79977 0.80416 0.65153 0.0
H271 H 0.73602 0.73085 0.60159 0.0
C272 C 0.69236 0.67043 0.53042 0.0
C273 C 0.73824 0.70997 0.51487 0.0
C274 C 0.77587 0.75096 0.54459 0.0
C275 C 0.82067 0.78723 0.53002 0.0
C276 C 0.85595 0.83108 0.56007 0.0
C277 C 0.84843 0.8366 0.60341 0.0
C278 C 0.80544 0.79965 0.61781 0.0
C279 C 0.76926 0.75761 0.58884 0.0
H280 H 0.42012 0.13749 0.04564 0.0
C281 C 0.3963 0.12536 0.01401 0.0
H282 H 0.39965 0.08576 0.95053 0.0
H283 H 0.63911 0.13484 0.9267 0.0
H284 H 0.59243 0.23085 0.87868 0.0
H285 H 0.49581 0.26355 0.88059 0.0
H286 H 0.44471 0.19903 0.92968 0.0
C287 C 0.42239 0.09815 0.98241 0.0
C288 C 0.48307 0.08736 0.98783 0.0
C289 C 0.51271 0.12617 0.95929 0.0
C290 C 0.56904 0.10909 0.95929 0.0
C291 C 0.5967 0.14665 0.92899 0.0
C292 C 0.57035 0.20185 0.90106 0.0
C293 C 0.51591 0.22017 0.90206 0.0
C294 C 0.48709 0.18257 0.93043 0.0
H295 H 0.64176 0.922 0.97435 0.0
C296 C 0.6722 0.966 0.97937 0.0
H297 H 0.6831 0.08241 0.99108 0.0
H298 H 0.43937 0.00052 0.0471 0.0
H299 H 0.48868 0.9157 0.1007 0.0
H300 H 0.58842 0.89699 0.10598 0.0
H301 H 0.639 0.96175 0.05668 0.0
C302 C 0.65512 0.03602 0.98765 0.0
C303 C 0.59635 0.05477 0.98885 0.0
C304 C 0.56788 0.02031 0.01981 0.0
C305 C 0.51085 0.03477 0.01848 0.0
C306 C 0.48296 0.99495 0.04772 0.0
C307 C 0.51077 0.94543 0.07861 0.0
C308 C 0.56684 0.93458 0.08142 0.0
C309 C 0.59529 0.97158 0.05257 0.0
H310 H 0.43006 0.88688 0.53243 0.0
C311 C 0.40177 0.88702 0.50183 0.0
H312 H 0.39625 0.89856 0.43329 0.0
H313 H 0.622 0.08377 0.51509 0.0
H314 H 0.56043 0.17221 0.54213 0.0
H315 H 0.46124 0.14868 0.53303 0.0
H316 H 0.42344 0.03545 0.49805 0.0
C317 C 0.4217 0.90258 0.46495 0.0
C318 C 0.4805 0.92116 0.46606 0.0
C319 C 0.50167 0.98927 0.48497 0.0
C320 C 0.55844 0.00487 0.48795 0.0
C321 C 0.57895 0.0707 0.50988 0.0
C322 C 0.54407 0.12178 0.52592 0.0
C323 C 0.48828 0.10841 0.52097 0.0
C324 C 0.46715 0.04292 0.50096 0.0
H325 H 0.64091 0.06649 0.43362 0.0
C326 C 0.67128 0.02903 0.45203 0.0
H327 H 0.68106 0.92834 0.48958 0.0
H328 H 0.4534 0.7854 0.42823 0.0
H329 H 0.51349 0.70154 0.39597 0.0
H330 H 0.6094 0.73455 0.39412 0.0
H331 H 0.6473 0.84954 0.4273 0.0
C332 C 0.65303 0.96971 0.47246 0.0
C333 C 0.59333 0.95457 0.46946 0.0
C334 C 0.57151 0.88818 0.44878 0.0
C335 C 0.51534 0.87079 0.44784 0.0
C336 C 0.49535 0.80238 0.42881 0.0
C337 C 0.52932 0.75378 0.41003 0.0
C338 C 0.58351 0.77217 0.40929 0.0
C339 C 0.60466 0.8384 0.42846 0.0
H340 H 0.89953 0.44267 0.0369 0.0
C341 C 0.88716 0.49212 0.01681 0.0
H342 H 0.91179 0.56579 0.96986 0.0
H343 H 0.14743 0.43169 0.0784 0.0
H344 H 0.12763 0.51215 0.13667 0.0
H345 H 0.03971 0.58121 0.13061 0.0
H346 H 0.97109 0.57027 0.06608 0.0
C347 C 0.92303 0.51969 0.99261 0.0
C348 C 0.97829 0.48389 0.9946 0.0
C349 C 1.01796 0.49053 0.03262 0.0
C350 C 0.06881 0.45096 0.03597 0.0
C351 C 0.10793 0.45977 0.07411 0.0
C352 C 0.09719 0.50605 0.10783 0.0
C353 C 0.04768 0.54487 0.10444 0.0
C354 C 1.00847 0.53762 0.06733 0.0
H355 H 0.15707 0.42313 0.95111 0.0
C356 C 0.17047 0.38493 0.97824 0.0
H357 H 0.14618 0.32786 0.03184 0.0
H358 H 0.9152 0.46799 0.91499 0.0
H359 H 0.93297 0.38402 0.85729 0.0
H360 H 1.01728 0.30621 0.86571 0.0
H361 H 0.08475 0.31331 0.93129 0.0
C362 C 0.13446 0.36627 0.00466 0.0
C363 C 0.08008 0.4049 0.00122 0.0
C364 C 0.04027 0.39802 0.96329 0.0
C365 C 0.99025 0.43972 0.95939 0.0
C366 C 0.95262 0.43501 0.92025 0.0
C367 C 0.96255 0.38747 0.88683 0.0
C368 C 1.0101 0.3439 0.8915 0.0
C369 C 0.0487 0.34895 0.92918 0.0
H370 H 0.17646 0.602 0.57306 0.0
C371 C 0.17768 0.61347 0.53881 0.0
H372 H 0.13173 0.60907 0.47534 0.0
H373 H 0.96316 0.37234 0.52003 0.0
H374 H 1.0215 0.29402 0.48243 0.0
H375 H 0.10753 0.34309 0.46329 0.0
H376 H 0.13601 0.47013 0.48194 0.0
C377 C 0.13162 0.60388 0.51009 0.0
C378 C 0.08105 0.5741 0.52396 0.0
C379 C 0.06462 0.49987 0.51236 0.0
C380 C 1.01487 0.47181 0.52315 0.0
C381 C 1.00011 0.3969 0.51199 0.0
C382 C 0.03332 0.35123 0.49058 0.0
C383 C 0.08176 0.37879 0.47981 0.0
C384 C 0.09749 0.45206 0.49055 0.0
H385 H 0.88901 0.50793 0.48984 0.0
C386 C 0.8843 0.48789 0.52216 0.0
H387 H 0.92384 0.4765 0.58757 0.0
H388 H 0.10069 0.71864 0.55162 0.0
H389 H 0.04441 0.79466 0.59211 0.0
H390 H 0.95896 0.74516 0.61189 0.0
H391 H 0.92867 0.61947 0.5906 0.0
C392 C 0.92767 0.49066 0.55419 0.0
C393 C 0.98136 0.51827 0.54522 0.0
C394 C 0.99875 0.59144 0.55833 0.0
C395 C 0.04851 0.61965 0.54745 0.0
C396 C 0.06397 0.69377 0.55979 0.0
C397 C 0.03198 0.73809 0.58302 0.0
C398 C 0.98373 0.7103 0.59403 0.0
C399 C 0.96688 0.63807 0.58164 0.0
H400 H 0.08673 0.91813 0.34291 0.0
C401 C 0.06246 0.96435 0.35284 0.0
H402 H 1.01634 0.06264 0.33284 0.0
H403 H 0.11572 0.13479 0.16443 0.0
H404 H 0.15218 0.23594 0.21188 0.0
H405 H 0.14254 0.23539 0.28968 0.0
H406 H 0.09589 0.13405 0.3204 0.0
C407 C 0.03976 0.01537 0.32311 0.0
C408 C 0.04828 0.01233 0.2768 0.0
C409 C 0.07654 0.07134 0.25951 0.0
C410 C 0.08303 0.07092 0.21484 0.0
C411 C 0.11026 0.1316 0.19824 0.0
C412 C 0.13135 0.19016 0.22511 0.0
C413 C 0.12586 0.18991 0.26889 0.0
C414 C 0.09883 0.13141 0.28607 0.0
H415 H 0.98135 0.01741 0.11928 0.0
C416 C 1.02176 0.01732 0.1097 0.0
H417 H 0.10708 0.01405 0.13136 0.0
H418 H 0.98665 0.89427 0.29792 0.0
H419 H 0.95528 0.78932 0.25174 0.0
H420 H 0.97504 0.78203 0.17652 0.0
H421 H 1.02501 0.8808 0.14674 0.0
C422 C 0.06645 0.013 0.14044 0.0
C423 C 0.06182 0.011 0.18765 0.0
C424 C 0.03546 0.95039 0.20536 0.0
C425 C 1.02707 0.95227 0.24959 0.0
C426 C 0.99671 0.89402 0.26533 0.0
C427 C 0.97804 0.83359 0.23903 0.0
C428 C 0.98893 0.82967 0.19663 0.0
C429 C 1.01729 0.88715 0.17983 0.0
H430 H 0.06114 0.05174 0.83657 0.0
C431 C 0.04001 0.00571 0.84961 0.0
H432 H 0.99602 0.90558 0.83516 0.0
H433 H 1.00537 0.10055 0.6498 0.0
H434 H 0.95245 0.19628 0.68011 0.0
H435 H 0.92701 0.18025 0.7532 0.0
H436 H 0.95594 0.06933 0.79681 0.0
C437 C 1.01685 0.95236 0.82262 0.0
C438 C 1.02141 0.95438 0.77539 0.0
C439 C 1.00058 0.01692 0.74906 0.0
C440 C 1.01177 0.02353 0.70573 0.0
C441 C 0.99519 0.09018 0.68183 0.0
C442 C 0.96518 0.14607 0.69903 0.0
C443 C 0.95111 0.13725 0.74024 0.0
C444 C 0.96846 0.07358 0.7651 0.0
H445 H 0.96757 0.97423 0.61358 0.0
C446 C 1.00979 0.97278 0.60787 0.0
H447 H 0.09297 0.96616 0.63645 0.0
H448 H 0.06419 0.82494 0.8161 0.0
H449 H 0.11074 0.72429 0.78386 0.0
H450 H 0.12466 0.73161 0.70708 0.0
H451 H 0.09291 0.84011 0.66237 0.0
C452 C 0.05069 0.96954 0.64187 0.0
C453 C 0.03985 0.96454 0.68757 0.0
C454 C 0.05812 0.90018 0.71318 0.0
C455 C 0.04919 0.8953 0.75721 0.0
C456 C 0.06914 0.83122 0.78231 0.0
C457 C 0.09601 0.77298 0.76423 0.0
C458 C 0.1039 0.77713 0.72103 0.0
C459 C 0.08541 0.83984 0.6957 0.0
H460 H 0.59322 0.53645 0.38425 0.0
C461 C 0.55109 0.53592 0.39019 0.0
H462 H 0.4678 0.537 0.36193 0.0
H463 H 0.48917 0.6711 0.17848 0.0
H464 H 0.43541 0.76716 0.20793 0.0
H465 H 0.42003 0.76088 0.28437 0.0
H466 H 0.45771 0.65822 0.3316 0.0
C467 C 0.51 0.53646 0.35621 0.0
C468 C 0.52031 0.54019 0.31015 0.0
C469 C 0.49803 0.60089 0.28286 0.0
C470 C 0.50728 0.60495 0.23883 0.0
C471 C 0.48383 0.66554 0.21222 0.0
C472 C 0.45284 0.72111 0.2287 0.0
C473 C 0.44418 0.71757 0.27173 0.0
C474 C 0.46625 0.65829 0.29857 0.0
H475 H 0.50223 0.44576 0.16366 0.0
C476 C 0.52192 0.49168 0.14917 0.0
H477 H 0.56231 0.59528 0.16089 0.0
H478 H 0.5617 0.40891 0.35043 0.0
H479 H 0.62043 0.31796 0.32237 0.0
H480 H 0.64563 0.3338 0.2492 0.0
H481 H 0.61063 0.43964 0.20323 0.0
C482 C 0.54316 0.54817 0.17467 0.0
C483 C 0.53879 0.5484 0.22205 0.0
C484 C 0.56298 0.48941 0.24981 0.0
C485 C 0.55187 0.48348 0.29324 0.0
C486 C 0.57183 0.41942 0.3184 0.0
C487 C 0.60513 0.3661 0.30247 0.0
C488 C 0.61906 0.37477 0.2612 0.0
C489 C 0.59829 0.43548 0.23502 0.0
H490 H 0.48183 0.56836 0.6594 0.0
C491 C 0.50436 0.52181 0.64782 0.0
H492 H 0.54655 0.41922 0.66457 0.0
H493 H 0.54592 0.58957 0.85563 0.0
H494 H 0.60141 0.68464 0.82852 0.0
H495 H 0.62143 0.67949 0.75332 0.0
H496 H 0.58492 0.58033 0.70453 0.0
C497 C 0.5251 0.46705 0.67587 0.0
C498 C 0.51704 0.46743 0.72245 0.0
C499 C 0.54117 0.52371 0.75125 0.0
C500 C 0.53247 0.52403 0.79546 0.0
C501 C 0.5537 0.58406 0.82253 0.0
C502 C 0.58523 0.63951 0.80725 0.0
C503 C 0.59628 0.63682 0.76486 0.0
C504 C 0.57466 0.57977 0.73707 0.0
H505 H 0.58151 0.4494 0.88075 0.0
C506 C 0.54094 0.45303 0.88991 0.0
H507 H 0.45616 0.46474 0.86739 0.0
H508 H 0.46435 0.35221 0.67595 0.0
H509 H 0.41115 0.25486 0.70374 0.0
H510 H 0.39887 0.25284 0.78098 0.0
H511 H 0.43935 0.34843 0.83079 0.0
C512 C 0.49697 0.46171 0.85871 0.0
C513 C 0.5025 0.46543 0.81157 0.0
C514 C 0.47811 0.40953 0.7827 0.0
C515 C 0.48551 0.41042 0.73818 0.0
C516 C 0.46058 0.35386 0.71014 0.0
C517 C 0.42981 0.29769 0.72564 0.0
C518 C 0.42288 0.29657 0.76911 0.0
C519 C 0.44652 0.35172 0.79741 0.0
loop_
_geom_bond_atom_site_label_1
_geom_bond_atom_site_label_2
_geom_bond_distance
_geom_bond_site_symmetry_2
_ccdc_geom_bond_type
Tb0 C9 2.764 . S
Tb0 O10 2.325 1_545 S
Tb0 O13 2.303 1_554 S
Tb0 O17 2.322 1_455 S
Tb0 O18 2.349 . S
Tb0 O21 2.415 1_554 S
Tb0 O22 2.399 . S
Tb1 O11 2.322 1_655 S
Tb1 O12 2.349 . S
Tb1 O14 2.415 1_556 S
Tb1 O15 2.399 . S
Tb1 O16 2.325 1_565 S
Tb1 O19 2.303 1_556 S
Tb1 C30 2.764 . S
C2 O18 1.261 . S
C2 O19 1.257 1_445 S
C3 C6 1.358 . S
C3 C7 1.332 1_554 S
C3 C9 1.504 . S
C4 C5 1.388 . S
C4 C8 1.297 1_554 S
C5 C4 1.388 . S
C5 C6 1.429 . S
C5 H32 0.932 . S
C6 C3 1.358 . S
C6 C5 1.429 . S
C6 H33 0.930 . S
C7 C3 1.332 1_556 S
C7 C8 1.394 . S
C7 H34 0.932 . S
C8 C4 1.297 1_556 S
C8 C7 1.394 . S
C8 H35 0.929 . S
C9 Tb0 2.764 . S
C9 C3 1.504 . S
C9 O21 1.239 1_554 S
C9 O22 1.263 . S
O10 Tb0 2.325 1_565 S
O10 C20 1.236 . S
O11 Tb1 2.322 1_455 S
O11 C20 1.257 1_556 S
O12 Tb1 2.349 . S
O12 C23 1.261 . S
O13 Tb0 2.303 1_556 S
O13 C23 1.257 1_445 S
O14 Tb1 2.415 1_554 S
O14 C30 1.239 1_554 S
O15 Tb1 2.399 . S
O15 C30 1.263 . S
O16 Tb1 2.325 1_545 S
O16 C31 1.236 . S
O17 Tb0 2.322 1_655 S
O17 C31 1.257 1_554 S
O18 Tb0 2.349 . S
O18 C2 1.261 . S
O19 Tb1 2.303 1_554 S
O19 C2 1.257 1_665 S
C20 O10 1.236 . S
C20 O11 1.257 1_554 S
O21 Tb0 2.415 1_556 S
O21 C9 1.239 1_556 S
O22 Tb0 2.399 . S
O22 C9 1.263 . S
C23 O12 1.261 . S
C23 O13 1.257 1_665 S
C24 C27 1.358 . S
C24 C28 1.332 1_556 S
C24 C30 1.504 . S
C25 C26 1.375 . S
C25 C29 1.306 1_556 S
C26 C25 1.375 . S
C26 C27 1.429 . S
C26 H36 0.932 . S
C27 C24 1.358 . S
C27 C26 1.429 . S
C27 H37 0.930 . S
C28 C24 1.332 1_554 S
C28 C29 1.394 . S
C28 H38 0.932 . S
C29 C25 1.306 1_554 S
C29 C28 1.394 . S
C29 H39 0.929 . S
C30 Tb1 2.764 . S
C30 O14 1.239 1_556 S
C30 O15 1.263 . S
C30 C24 1.504 . S
C31 O16 1.236 . S
C31 O17 1.257 1_556 S
H32 C5 0.932 . S
H33 C6 0.930 . S
H34 C7 0.932 . S
H35 C8 0.929 . S
H36 C26 0.932 . S
H37 C27 0.930 . S
H38 C28 0.932 . S
H39 C29 0.929 . S
Tb40 C49 2.764 . S
Tb40 O50 2.325 1_545 S
Tb40 O53 2.303 . S
Tb40 O57 2.322 1_655 S
Tb40 O58 2.349 . S
Tb40 O61 2.415 . S
Tb40 O62 2.399 . S
Tb41 O51 2.322 1_455 S
Tb41 O52 2.349 . S
Tb41 O54 2.415 . S
Tb41 O55 2.399 . S
Tb41 O56 2.325 1_565 S
Tb41 O59 2.303 . S
Tb41 C70 2.764 . S
C42 O58 1.261 . S
C42 O59 1.257 1_645 S
C43 C46 1.358 . S
C43 C47 1.332 . S
C43 C49 1.504 . S
C44 C45 1.373 . S
C44 C48 1.308 . S
C45 C44 1.373 . S
C45 C46 1.429 . S
C45 H72 0.932 . S
C46 C43 1.358 . S
C46 C45 1.429 . S
C46 H73 0.930 . S
C47 C43 1.332 . S
C47 C48 1.394 . S
C47 H74 0.932 . S
C48 C44 1.308 . S
C48 C47 1.394 . S
C48 H75 0.929 . S
C49 Tb40 2.764 . S
C49 C43 1.504 . S
C49 O61 1.239 . S
C49 O62 1.263 . S
O50 Tb40 2.325 1_565 S
O50 C60 1.236 . S
O51 Tb41 2.322 1_655 S
O51 C60 1.257 . S
O52 Tb41 2.349 . S
O52 C63 1.261 . S
O53 Tb40 2.303 . S
O53 C63 1.257 1_645 S
O54 Tb41 2.415 . S
O54 C70 1.239 . S
O55 Tb41 2.399 . S
O55 C70 1.263 . S
O56 Tb41 2.325 1_545 S
O56 C71 1.236 . S
O57 Tb40 2.322 1_455 S
O57 C71 1.257 . S
O58 Tb40 2.349 . S
O58 C42 1.261 . S
O59 Tb41 2.303 . S
O59 C42 1.257 1_465 S
C60 O50 1.236 . S
C60 O51 1.257 . S
O61 Tb40 2.415 . S
O61 C49 1.239 . S
O62 Tb40 2.399 . S
O62 C49 1.263 . S
C63 O52 1.261 . S
C63 O53 1.257 1_465 S
C64 C67 1.358 . S
C64 C68 1.332 . S
C64 C70 1.504 . S
C65 C66 1.373 . S
C65 C69 1.308 . S
C66 C65 1.373 . S
C66 C67 1.429 . S
C66 H76 0.932 . S
C67 C64 1.358 . S
C67 C66 1.429 . S
C67 H77 0.930 . S
C68 C64 1.332 . S
C68 C69 1.394 . S
C68 H78 0.932 . S
C69 C65 1.308 . S
C69 C68 1.394 . S
C69 H79 0.929 . S
C70 Tb41 2.764 . S
C70 O54 1.239 . S
C70 O55 1.263 . S
C70 C64 1.504 . S
C71 O56 1.236 . S
C71 O57 1.257 . S
H72 C45 0.932 . S
H73 C46 0.930 . S
H74 C47 0.932 . S
H75 C48 0.929 . S
H76 C66 0.932 . S
H77 C67 0.930 . S
H78 C68 0.932 . S
H79 C69 0.929 . S
Tb80 C89 2.764 . S
Tb80 O90 2.325 . S
Tb80 O93 2.303 1_554 S
Tb80 O97 2.322 . S
Tb80 O98 2.349 . S
Tb80 O101 2.415 1_554 S
Tb80 O102 2.399 . S
Tb81 O91 2.322 . S
Tb81 O92 2.349 . S
Tb81 O94 2.415 1_556 S
Tb81 O95 2.399 . S
Tb81 O96 2.325 . S
Tb81 O99 2.303 1_556 S
Tb81 C110 2.764 . S
C82 O98 1.261 . S
C82 O99 1.257 . S
C83 C86 1.358 . S
C83 C87 1.332 1_554 S
C83 C89 1.504 . S
C84 C85 1.388 . S
C84 C88 1.297 1_554 S
C85 C84 1.388 . S
C85 C86 1.429 . S
C85 H112 0.932 . S
C86 C83 1.358 . S
C86 C85 1.429 . S
C86 H113 0.930 . S
C87 C83 1.332 1_556 S
C87 C88 1.394 . S
C87 H114 0.932 . S
C88 C84 1.297 1_556 S
C88 C87 1.394 . S
C88 H115 0.929 . S
C89 Tb80 2.764 . S
C89 C83 1.504 . S
C89 O101 1.239 1_554 S
C89 O102 1.263 . S
O90 Tb80 2.325 . S
O90 C100 1.236 . S
O91 Tb81 2.322 . S
O91 C100 1.257 1_556 S
O92 Tb81 2.349 . S
O92 C103 1.261 . S
O93 Tb80 2.303 1_556 S
O93 C103 1.257 . S
O94 Tb81 2.415 1_554 S
O94 C110 1.239 1_554 S
O95 Tb81 2.399 . S
O95 C110 1.263 . S
O96 Tb81 2.325 . S
O96 C111 1.236 . S
O97 Tb80 2.322 . S
O97 C111 1.257 1_554 S
O98 Tb80 2.349 . S
O98 C82 1.261 . S
O99 Tb81 2.303 1_554 S
O99 C82 1.257 . S
C100 O90 1.236 . S
C100 O91 1.257 1_554 S
O101 Tb80 2.415 1_556 S
O101 C89 1.239 1_556 S
O102 Tb80 2.399 . S
O102 C89 1.263 . S
C103 O92 1.261 . S
C103 O93 1.257 . S
C104 C107 1.358 . S
C104 C108 1.332 1_556 S
C104 C110 1.504 . S
C105 C106 1.375 . S
C105 C109 1.306 1_556 S
C106 C105 1.375 . S
C106 C107 1.429 . S
C106 H116 0.932 . S
C107 C104 1.358 . S
C107 C106 1.429 . S
C107 H117 0.930 . S
C108 C104 1.332 1_554 S
C108 C109 1.394 . S
C108 H118 0.932 . S
C109 C105 1.306 1_554 S
C109 C108 1.394 . S
C109 H119 0.929 . S
C110 Tb81 2.764 . S
C110 O94 1.239 1_556 S
C110 O95 1.263 . S
C110 C104 1.504 . S
C111 O96 1.236 . S
C111 O97 1.257 1_556 S
H112 C85 0.932 . S
H113 C86 0.930 . S
H114 C87 0.932 . S
H115 C88 0.929 . S
H116 C106 0.932 . S
H117 C107 0.930 . S
H118 C108 0.932 . S
H119 C109 0.929 . S
Tb120 C129 2.764 . S
Tb120 O130 2.325 . S
Tb120 O133 2.303 . S
Tb120 O137 2.322 . S
Tb120 O138 2.349 . S
Tb120 O141 2.415 . S
Tb120 O142 2.399 . S
Tb121 O131 2.322 . S
Tb121 O132 2.349 . S
Tb121 O134 2.415 . S
Tb121 O135 2.399 . S
Tb121 O136 2.325 . S
Tb121 O139 2.303 . S
Tb121 C150 2.764 . S
C122 O138 1.261 . S
C122 O139 1.257 . S
C123 C126 1.358 . S
C123 C127 1.332 . S
C123 C129 1.504 . S
C124 C125 1.373 . S
C124 C128 1.308 . S
C125 C124 1.373 . S
C125 C126 1.429 . S
C125 H152 0.932 . S
C126 C123 1.358 . S
C126 C125 1.429 . S
C126 H153 0.930 . S
C127 C123 1.332 . S
C127 C128 1.394 . S
C127 H154 0.932 . S
C128 C124 1.308 . S
C128 C127 1.394 . S
C128 H155 0.929 . S
C129 Tb120 2.764 . S
C129 C123 1.504 . S
C129 O141 1.239 . S
C129 O142 1.263 . S
O130 Tb120 2.325 . S
O130 C140 1.236 . S
O131 Tb121 2.322 . S
O131 C140 1.257 . S
O132 Tb121 2.349 . S
O132 C143 1.261 . S
O133 Tb120 2.303 . S
O133 C143 1.257 . S
O134 Tb121 2.415 . S
O134 C150 1.239 . S
O135 Tb121 2.399 . S
O135 C150 1.263 . S
O136 Tb121 2.325 . S
O136 C151 1.236 . S
O137 Tb120 2.322 . S
O137 C151 1.257 . S
O138 Tb120 2.349 . S
O138 C122 1.261 . S
O139 Tb121 2.303 . S
O139 C122 1.257 . S
C140 O130 1.236 . S
C140 O131 1.257 . S
O141 Tb120 2.415 . S
O141 C129 1.239 . S
O142 Tb120 2.399 . S
O142 C129 1.263 . S
C143 O132 1.261 . S
C143 O133 1.257 . S
C144 C147 1.358 . S
C144 C148 1.332 . S
C144 C150 1.504 . S
C145 C146 1.373 . S
C145 C149 1.308 . S
C146 C145 1.373 . S
C146 C147 1.429 . S
C146 H156 0.932 . S
C147 C144 1.358 . S
C147 C146 1.429 . S
C147 H157 0.930 . S
C148 C144 1.332 . S
C148 C149 1.394 . S
C148 H158 0.932 . S
C149 C145 1.308 . S
C149 C148 1.394 . S
C149 H159 0.929 . S
C150 Tb121 2.764 . S
C150 O134 1.239 . S
C150 O135 1.263 . S
C150 C144 1.504 . S
C151 O136 1.236 . S
C151 O137 1.257 . S
H152 C125 0.932 . S
H153 C126 0.930 . S
H154 C127 0.932 . S
H155 C128 0.929 . S
H156 C146 0.932 . S
H157 C147 0.930 . S
H158 C148 0.932 . S
H159 C149 0.929 . S
H160 C161 0.953 . S
C161 H160 0.953 . S
C161 C167 1.262 1_556 S
H162 C167 0.950 . S
H163 C171 0.949 . S
H164 C172 0.950 . S
H165 C173 0.951 . S
H166 C174 0.951 . S
C167 C161 1.262 1_554 S
C167 H162 0.950 . S
C167 C168 1.478 . S
C168 C167 1.478 . S
C168 C169 1.397 1_554 S
C168 C185 1.394 . S
C169 C168 1.397 1_556 S
C169 C170 1.438 . S
C169 C174 1.429 . S
C170 C169 1.438 . S
C170 C171 1.428 . S
C170 C183 1.394 . S
C171 H163 0.949 . S
C171 C170 1.428 . S
C171 C172 1.345 . S
C172 H164 0.950 . S
C172 C171 1.345 . S
C172 C173 1.424 . S
C173 H165 0.951 . S
C173 C172 1.424 . S
C173 C174 1.347 . S
C174 H166 0.951 . S
C174 C169 1.429 . S
C174 C173 1.347 . S
H175 C176 0.951 . S
C176 H175 0.951 . S
C176 C182 1.265 1_554 S
H177 C182 0.950 . S
H178 C186 0.949 . S
H179 C187 0.950 . S
H180 C188 0.951 . S
H181 C189 0.951 . S
C182 C176 1.265 1_556 S
C182 H177 0.950 . S
C182 C183 1.478 . S
C183 C170 1.394 . S
C183 C182 1.478 . S
C183 C184 1.397 1_556 S
C184 C183 1.397 1_554 S
C184 C185 1.438 . S
C184 C189 1.429 . S
C185 C168 1.394 . S
C185 C184 1.438 . S
C185 C186 1.428 . S
C186 H178 0.949 . S
C186 C185 1.428 . S
C186 C187 1.345 . S
C187 H179 0.950 . S
C187 C186 1.345 . S
C187 C188 1.424 . S
C188 H180 0.951 . S
C188 C187 1.424 . S
C188 C189 1.347 . S
C189 H181 0.951 . S
C189 C184 1.429 . S
C189 C188 1.347 . S
H190 C191 0.951 . S
C191 H190 0.951 . S
C191 C197 1.265 1_554 S
H192 C197 0.950 . S
H193 C201 0.949 . S
H194 C202 0.950 . S
H195 C203 0.951 . S
H196 C204 0.951 . S
C197 C191 1.265 1_556 S
C197 H192 0.950 . S
C197 C198 1.478 . S
C198 C197 1.478 . S
C198 C199 1.397 . S
C198 C215 1.394 1_556 S
C199 C198 1.397 . S
C199 C200 1.438 . S
C199 C204 1.429 . S
C200 C199 1.438 . S
C200 C201 1.428 . S
C200 C213 1.394 1_556 S
C201 H193 0.949 . S
C201 C200 1.428 . S
C201 C202 1.345 . S
C202 H194 0.950 . S
C202 C201 1.345 . S
C202 C203 1.424 . S
C203 H195 0.951 . S
C203 C202 1.424 . S
C203 C204 1.347 . S
C204 H196 0.951 . S
C204 C199 1.429 . S
C204 C203 1.347 . S
H205 C206 0.955 . S
C206 H205 0.955 . S
C206 C212 1.260 1_556 S
H207 C212 0.950 . S
H208 C216 0.949 . S
H209 C217 0.950 . S
H210 C218 0.951 . S
H211 C219 0.951 . S
C212 C206 1.260 1_554 S
C212 H207 0.950 . S
C212 C213 1.478 . S
C213 C200 1.394 1_554 S
C213 C212 1.478 . S
C213 C214 1.397 . S
C214 C213 1.397 . S
C214 C215 1.438 . S
C214 C219 1.429 . S
C215 C198 1.394 1_554 S
C215 C214 1.438 . S
C215 C216 1.428 . S
C216 H208 0.949 . S
C216 C215 1.428 . S
C216 C217 1.345 . S
C217 H209 0.950 . S
C217 C216 1.345 . S
C217 C218 1.424 . S
C218 H210 0.951 . S
C218 C217 1.424 . S
C218 C219 1.347 . S
C219 H211 0.951 . S
C219 C214 1.429 . S
C219 C218 1.347 . S
H220 C221 0.951 . S
C221 H220 0.951 . S
C221 C227 1.265 . S
H222 C227 0.950 . S
H223 C231 0.949 . S
H224 C232 0.950 . S
H225 C233 0.951 . S
H226 C234 0.951 . S
C227 C221 1.265 . S
C227 H222 0.950 . S
C227 C228 1.478 . S
C228 C227 1.478 . S
C228 C229 1.397 . S
C228 C245 1.394 . S
C229 C228 1.397 . S
C229 C230 1.438 . S
C229 C234 1.429 . S
C230 C229 1.438 . S
C230 C231 1.428 . S
C230 C243 1.394 . S
C231 H223 0.949 . S
C231 C230 1.428 . S
C231 C232 1.345 . S
C232 H224 0.950 . S
C232 C231 1.345 . S
C232 C233 1.424 . S
C233 H225 0.951 . S
C233 C232 1.424 . S
C233 C234 1.347 . S
C234 H226 0.951 . S
C234 C229 1.429 . S
C234 C233 1.347 . S
H235 C236 0.951 . S
C236 H235 0.951 . S
C236 C242 1.265 . S
H237 C242 0.950 . S
H238 C246 0.949 . S
H239 C247 0.950 . S
H240 C248 0.951 . S
H241 C249 0.951 . S
C242 C236 1.265 . S
C242 H237 0.950 . S
C242 C243 1.478 . S
C243 C230 1.394 . S
C243 C242 1.478 . S
C243 C244 1.397 . S
C244 C243 1.397 . S
C244 C245 1.438 . S
C244 C249 1.429 . S
C245 C228 1.394 . S
C245 C244 1.438 . S
C245 C246 1.428 . S
C246 H238 0.949 . S
C246 C245 1.428 . S
C246 C247 1.345 . S
C247 H239 0.950 . S
C247 C246 1.345 . S
C247 C248 1.424 . S
C248 H240 0.951 . S
C248 C247 1.424 . S
C248 C249 1.347 . S
C249 H241 0.951 . S
C249 C244 1.429 . S
C249 C248 1.347 . S
H250 C251 0.951 . S
C251 H250 0.951 . S
C251 C257 1.265 . S
H252 C257 0.950 . S
H253 C261 0.949 . S
H254 C262 0.950 . S
H255 C263 0.951 . S
H256 C264 0.951 . S
C257 C251 1.265 . S
C257 H252 0.950 . S
C257 C258 1.478 . S
C258 C257 1.478 . S
C258 C259 1.397 . S
C258 C275 1.394 . S
C259 C258 1.397 . S
C259 C260 1.438 . S
C259 C264 1.429 . S
C260 C259 1.438 . S
C260 C261 1.428 . S
C260 C273 1.394 . S
C261 H253 0.949 . S
C261 C260 1.428 . S
C261 C262 1.345 . S
C262 H254 0.950 . S
C262 C261 1.345 . S
C262 C263 1.424 . S
C263 H255 0.951 . S
C263 C262 1.424 . S
C263 C264 1.347 . S
C264 H256 0.951 . S
C264 C259 1.429 . S
C264 C263 1.347 . S
H265 C266 0.951 . S
C266 H265 0.951 . S
C266 C272 1.265 . S
H267 C272 0.950 . S
H268 C276 0.949 . S
H269 C277 0.950 . S
H270 C278 0.951 . S
H271 C279 0.951 . S
C272 C266 1.265 . S
C272 H267 0.950 . S
C272 C273 1.478 . S
C273 C260 1.394 . S
C273 C272 1.478 . S
C273 C274 1.397 . S
C274 C273 1.397 . S
C274 C275 1.438 . S
C274 C279 1.429 . S
C275 C258 1.394 . S
C275 C274 1.438 . S
C275 C276 1.428 . S
C276 H268 0.949 . S
C276 C275 1.428 . S
C276 C277 1.345 . S
C277 H269 0.950 . S
C277 C276 1.345 . S
C277 C278 1.424 . S
C278 H270 0.951 . S
C278 C277 1.424 . S
C278 C279 1.347 . S
C279 H271 0.951 . S
C279 C274 1.429 . S
C279 C278 1.347 . S
H280 C281 0.951 . S
C281 H280 0.951 . S
C281 C287 1.265 1_554 S
H282 C287 0.950 . S
H283 C291 0.949 . S
H284 C292 0.950 . S
H285 C293 0.951 . S
H286 C294 0.951 1_545 S
C287 C281 1.265 1_556 S
C287 H282 0.950 . S
C287 C288 1.478 . S
C288 C287 1.478 . S
C288 C289 1.397 1_545 S
C288 C305 1.394 1_556 S
C289 C288 1.397 1_565 S
C289 C290 1.438 . S
C289 C294 1.429 . S
C290 C289 1.438 . S
C290 C291 1.428 . S
C290 C303 1.394 1_556 S
C291 H283 0.949 . S
C291 C290 1.428 . S
C291 C292 1.345 . S
C292 H284 0.950 . S
C292 C291 1.345 . S
C292 C293 1.424 . S
C293 H285 0.951 . S
C293 C292 1.424 . S
C293 C294 1.347 . S
C294 H286 0.951 1_565 S
C294 C289 1.429 . S
C294 C293 1.347 . S
H295 C296 0.951 . S
C296 H295 0.951 . S
C296 C302 1.265 1_556 S
H297 C302 0.950 . S
H298 C306 0.949 . S
H299 C307 0.950 . S
H300 C308 0.951 . S
H301 C309 0.951 1_565 S
C302 C296 1.265 1_554 S
C302 H297 0.950 . S
C302 C303 1.478 . S
C303 C290 1.394 1_554 S
C303 C302 1.478 . S
C303 C304 1.397 1_565 S
C304 C303 1.397 1_545 S
C304 C305 1.438 . S
C304 C309 1.429 . S
C305 C288 1.394 1_554 S
C305 C304 1.438 . S
C305 C306 1.428 . S
C306 H298 0.949 . S
C306 C305 1.428 . S
C306 C307 1.345 . S
C307 H299 0.950 . S
C307 C306 1.345 . S
C307 C308 1.424 . S
C308 H300 0.951 . S
C308 C307 1.424 . S
C308 C309 1.347 . S
C309 H301 0.951 1_545 S
C309 C304 1.429 . S
C309 C308 1.347 . S
H310 C311 0.951 . S
C311 H310 0.951 . S
C311 C317 1.265 . S
H312 C317 0.950 . S
H313 C321 0.949 . S
H314 C322 0.950 . S
H315 C323 0.951 . S
H316 C324 0.951 . S
C317 C311 1.265 . S
C317 H312 0.950 . S
C317 C318 1.478 . S
C318 C317 1.478 . S
C318 C319 1.397 . S
C318 C335 1.394 . S
C319 C318 1.397 . S
C319 C320 1.438 1_565 S
C319 C324 1.429 . S
C320 C319 1.438 1_545 S
C320 C321 1.428 . S
C320 C333 1.394 . S
C321 H313 0.949 . S
C321 C320 1.428 . S
C321 C322 1.345 . S
C322 H314 0.950 . S
C322 C321 1.345 . S
C322 C323 1.424 . S
C323 H315 0.951 . S
C323 C322 1.424 . S
C323 C324 1.347 1_545 S
C324 H316 0.951 . S
C324 C319 1.429 . S
C324 C323 1.347 1_565 S
H325 C326 0.951 . S
C326 H325 0.951 . S
C326 C332 1.265 . S
H327 C332 0.950 . S
H328 C336 0.949 . S
H329 C337 0.950 . S
H330 C338 0.951 . S
H331 C339 0.951 . S
C332 C326 1.265 . S
C332 H327 0.950 . S
C332 C333 1.478 . S
C333 C320 1.394 . S
C333 C332 1.478 . S
C333 C334 1.397 . S
C334 C333 1.397 . S
C334 C335 1.438 1_545 S
C334 C339 1.429 . S
C335 C318 1.394 . S
C335 C334 1.438 1_565 S
C335 C336 1.428 . S
C336 H328 0.949 . S
C336 C335 1.428 . S
C336 C337 1.345 . S
C337 H329 0.950 . S
C337 C336 1.345 . S
C337 C338 1.424 . S
C338 H330 0.951 . S
C338 C337 1.424 . S
C338 C339 1.347 1_565 S
C339 H331 0.951 . S
C339 C334 1.429 . S
C339 C338 1.347 1_545 S
H340 C341 0.949 1_556 S
C341 H340 0.949 1_554 S
C341 C347 1.264 . S
H342 C347 0.950 . S
H343 C351 0.949 . S
H344 C352 0.950 . S
H345 C353 0.951 . S
H346 C354 0.951 . S
C347 C341 1.264 . S
C347 H342 0.950 . S
C347 C348 1.478 . S
C348 C347 1.478 . S
C348 C349 1.397 . S
C348 C365 1.394 1_554 S
C349 C348 1.397 . S
C349 C350 1.438 1_655 S
C349 C354 1.429 . S
C350 C349 1.438 1_455 S
C350 C351 1.428 . S
C350 C363 1.394 1_554 S
C351 H343 0.949 . S
C351 C350 1.428 . S
C351 C352 1.345 . S
C352 H344 0.950 . S
C352 C351 1.345 . S
C352 C353 1.424 . S
C353 H345 0.951 . S
C353 C352 1.424 . S
C353 C354 1.347 1_455 S
C354 H346 0.951 . S
C354 C349 1.429 . S
C354 C353 1.347 1_655 S
H355 C356 0.950 1_554 S
C356 H355 0.950 1_556 S
C356 C362 1.265 . S
H357 C362 0.950 . S
H358 C366 0.949 . S
H359 C367 0.950 . S
H360 C368 0.951 . S
H361 C369 0.951 . S
C362 C356 1.265 . S
C362 H357 0.950 . S
C362 C363 1.478 . S
C363 C350 1.394 1_556 S
C363 C362 1.478 . S
C363 C364 1.397 . S
C364 C363 1.397 . S
C364 C365 1.438 1_455 S
C364 C369 1.429 . S
C365 C348 1.394 1_556 S
C365 C364 1.438 1_655 S
C365 C366 1.428 . S
C366 H358 0.949 . S
C366 C365 1.428 . S
C366 C367 1.345 . S
C367 H359 0.950 . S
C367 C366 1.345 . S
C367 C368 1.424 . S
C368 H360 0.951 . S
C368 C367 1.424 . S
C368 C369 1.347 1_655 S
C369 H361 0.951 . S
C369 C364 1.429 . S
C369 C368 1.347 1_455 S
H370 C371 0.951 . S
C371 H370 0.951 . S
C371 C377 1.265 . S
H372 C377 0.950 . S
H373 C381 0.949 . S
H374 C382 0.950 . S
H375 C383 0.951 . S
H376 C384 0.951 . S
C377 C371 1.265 . S
C377 H372 0.950 . S
C377 C378 1.478 . S
C378 C377 1.478 . S
C378 C379 1.397 . S
C378 C395 1.394 . S
C379 C378 1.397 . S
C379 C380 1.438 1_455 S
C379 C384 1.429 . S
C380 C379 1.438 1_655 S
C380 C381 1.428 . S
C380 C393 1.394 . S
C381 H373 0.949 . S
C381 C380 1.428 . S
C381 C382 1.345 . S
C382 H374 0.950 . S
C382 C381 1.345 . S
C382 C383 1.424 . S
C383 H375 0.951 . S
C383 C382 1.424 . S
C383 C384 1.347 1_655 S
C384 H376 0.951 . S
C384 C379 1.429 . S
C384 C383 1.347 1_455 S
H385 C386 0.951 . S
C386 H385 0.951 . S
C386 C392 1.265 . S
H387 C392 0.950 . S
H388 C396 0.949 . S
H389 C397 0.950 . S
H390 C398 0.951 . S
H391 C399 0.951 . S
C392 C386 1.265 . S
C392 H387 0.950 . S
C392 C393 1.478 . S
C393 C380 1.394 . S
C393 C392 1.478 . S
C393 C394 1.397 . S
C394 C393 1.397 . S
C394 C395 1.438 1_655 S
C394 C399 1.429 . S
C395 C378 1.394 . S
C395 C394 1.438 1_455 S
C395 C396 1.428 . S
C396 H388 0.949 . S
C396 C395 1.428 . S
C396 C397 1.345 . S
C397 H389 0.950 . S
C397 C396 1.345 . S
C397 C398 1.424 . S
C398 H390 0.951 . S
C398 C397 1.424 . S
C398 C399 1.347 1_455 S
C399 H391 0.951 . S
C399 C394 1.429 . S
C399 C398 1.347 1_655 S
H400 C401 0.951 . S
C401 H400 0.951 . S
C401 C407 1.265 1_465 S
H402 C407 0.950 . S
H403 C411 0.949 . S
H404 C412 0.950 . S
H405 C413 0.951 . S
H406 C414 0.951 . S
C407 C401 1.265 1_645 S
C407 H402 0.950 . S
C407 C408 1.478 . S
C408 C407 1.478 . S
C408 C409 1.397 . S
C408 C425 1.394 1_645 S
C409 C408 1.397 . S
C409 C410 1.438 . S
C409 C414 1.429 . S
C410 C409 1.438 . S
C410 C411 1.428 . S
C410 C423 1.394 1_645 S
C411 H403 0.949 . S
C411 C410 1.428 . S
C411 C412 1.345 . S
C412 H404 0.950 . S
C412 C411 1.345 . S
C412 C413 1.424 . S
C413 H405 0.951 . S
C413 C412 1.424 . S
C413 C414 1.347 . S
C414 H406 0.951 . S
C414 C409 1.429 . S
C414 C413 1.347 . S
H415 C416 0.951 . S
C416 H415 0.951 . S
C416 C422 1.265 1_645 S
H417 C422 0.950 . S
H418 C426 0.949 . S
H419 C427 0.950 . S
H420 C428 0.951 . S
H421 C429 0.951 . S
C422 C416 1.265 1_465 S
C422 H417 0.950 . S
C422 C423 1.478 . S
C423 C410 1.394 1_465 S
C423 C422 1.478 . S
C423 C424 1.397 . S
C424 C423 1.397 . S
C424 C425 1.438 . S
C424 C429 1.429 . S
C425 C408 1.394 1_465 S
C425 C424 1.438 . S
C425 C426 1.428 . S
C426 H418 0.949 . S
C426 C425 1.428 . S
C426 C427 1.345 . S
C427 H419 0.950 . S
C427 C426 1.345 . S
C427 C428 1.424 . S
C428 H420 0.951 . S
C428 C427 1.424 . S
C428 C429 1.347 . S
C429 H421 0.951 . S
C429 C424 1.429 . S
C429 C428 1.347 . S
H430 C431 0.951 . S
C431 H430 0.951 . S
C431 C437 1.265 1_465 S
H432 C437 0.950 . S
H433 C441 0.949 . S
H434 C442 0.950 . S
H435 C443 0.951 . S
H436 C444 0.951 . S
C437 C431 1.265 1_645 S
C437 H432 0.950 . S
C437 C438 1.478 . S
C438 C437 1.478 . S
C438 C439 1.397 . S
C438 C455 1.394 1_645 S
C439 C438 1.397 . S
C439 C440 1.438 . S
C439 C444 1.429 . S
C440 C439 1.438 . S
C440 C441 1.428 . S
C440 C453 1.394 1_645 S
C441 H433 0.949 . S
C441 C440 1.428 . S
C441 C442 1.345 . S
C442 H434 0.950 . S
C442 C441 1.345 . S
C442 C443 1.424 . S
C443 H435 0.951 . S
C443 C442 1.424 . S
C443 C444 1.347 . S
C444 H436 0.951 . S
C444 C439 1.429 . S
C444 C443 1.347 . S
H445 C446 0.951 1_545 S
C446 H445 0.951 1_565 S
C446 C452 1.265 1_655 S
H447 C452 0.950 . S
H448 C456 0.949 . S
H449 C457 0.950 . S
H450 C458 0.951 . S
H451 C459 0.951 . S
C452 C446 1.265 1_455 S
C452 H447 0.950 . S
C452 C453 1.478 . S
C453 C440 1.394 1_465 S
C453 C452 1.478 . S
C453 C454 1.397 . S
C454 C453 1.397 . S
C454 C455 1.438 . S
C454 C459 1.429 . S
C455 C438 1.394 1_465 S
C455 C454 1.438 . S
C455 C456 1.428 . S
C456 H448 0.949 . S
C456 C455 1.428 . S
C456 C457 1.345 . S
C457 H449 0.950 . S
C457 C456 1.345 . S
C457 C458 1.424 . S
C458 H450 0.951 . S
C458 C457 1.424 . S
C458 C459 1.347 . S
C459 H451 0.951 . S
C459 C454 1.429 . S
C459 C458 1.347 . S
H460 C461 0.951 . S
C461 H460 0.951 . S
C461 C467 1.265 . S
H462 C467 0.950 . S
H463 C471 0.949 . S
H464 C472 0.950 . S
H465 C473 0.951 . S
H466 C474 0.951 . S
C467 C461 1.265 . S
C467 H462 0.950 . S
C467 C468 1.478 . S
C468 C467 1.478 . S
C468 C469 1.397 . S
C468 C485 1.394 . S
C469 C468 1.397 . S
C469 C470 1.438 . S
C469 C474 1.429 . S
C470 C469 1.438 . S
C470 C471 1.428 . S
C470 C483 1.394 . S
C471 H463 0.949 . S
C471 C470 1.428 . S
C471 C472 1.345 . S
C472 H464 0.950 . S
C472 C471 1.345 . S
C472 C473 1.424 . S
C473 H465 0.951 . S
C473 C472 1.424 . S
C473 C474 1.347 . S
C474 H466 0.951 . S
C474 C469 1.429 . S
C474 C473 1.347 . S
H475 C476 0.951 . S
C476 H475 0.951 . S
C476 C482 1.265 . S
H477 C482 0.950 . S
H478 C486 0.949 . S
H479 C487 0.950 . S
H480 C488 0.951 . S
H481 C489 0.951 . S
C482 C476 1.265 . S
C482 H477 0.950 . S
C482 C483 1.478 . S
C483 C470 1.394 . S
C483 C482 1.478 . S
C483 C484 1.397 . S
C484 C483 1.397 . S
C484 C485 1.438 . S
C484 C489 1.429 . S
C485 C468 1.394 . S
C485 C484 1.438 . S
C485 C486 1.428 . S
C486 H478 0.949 . S
C486 C485 1.428 . S
C486 C487 1.345 . S
C487 H479 0.950 . S
C487 C486 1.345 . S
C487 C488 1.424 . S
C488 H480 0.951 . S
C488 C487 1.424 . S
C488 C489 1.347 . S
C489 H481 0.951 . S
C489 C484 1.429 . S
C489 C488 1.347 . S
H490 C491 0.951 . S
C491 H490 0.951 . S
C491 C497 1.265 . S
H492 C497 0.950 . S
H493 C501 0.949 . S
H494 C502 0.950 . S
H495 C503 0.951 . S
H496 C504 0.951 . S
C497 C491 1.265 . S
C497 H492 0.950 . S
C497 C498 1.478 . S
C498 C497 1.478 . S
C498 C499 1.397 . S
C498 C515 1.394 . S
C499 C498 1.397 . S
C499 C500 1.438 . S
C499 C504 1.429 . S
C500 C499 1.438 . S
C500 C501 1.428 . S
C500 C513 1.394 . S
C501 H493 0.949 . S
C501 C500 1.428 . S
C501 C502 1.345 . S
C502 H494 0.950 . S
C502 C501 1.345 . S
C502 C503 1.424 . S
C503 H495 0.951 . S
C503 C502 1.424 . S
C503 C504 1.347 . S
C504 H496 0.951 . S
C504 C499 1.429 . S
C504 C503 1.347 . S
H505 C506 0.951 . S
C506 H505 0.951 . S
C506 C512 1.265 . S
H507 C512 0.950 . S
H508 C516 0.949 . S
H509 C517 0.950 . S
H510 C518 0.951 . S
H511 C519 0.951 . S
C512 C506 1.265 . S
C512 H507 0.950 . S
C512 C513 1.478 . S
C513 C500 1.394 . S
C513 C512 1.478 . S
C513 C514 1.397 . S
C514 C513 1.397 . S
C514 C515 1.438 . S
C514 C519 1.429 . S
C515 C498 1.394 . S
C515 C514 1.438 . S
C515 C516 1.428 . S
C516 H508 0.949 . S
C516 C515 1.428 . S
C516 C517 1.345 . S
C517 H509 0.950 . S
C517 C516 1.345 . S
C517 C518 1.424 . S
C518 H510 0.951 . S
C518 C517 1.424 . S
C518 C519 1.347 . S
C519 H511 0.951 . S
C519 C514 1.429 . S
C519 C518 1.347 . S
C161 C111 1.588 . S
C176 C20 1.586 . S
C191 C100 1.585 . S
C206 C31 1.587 . S
C221 C71 1.646 . S
C236 C140 1.645 . S
C251 C60 1.640 . S
C266 C151 1.641 . S
C281 C4 1.464 . S
C296 C25 1.466 . S
C311 C65 1.462 . S
C326 C44 1.462 . S
C341 C84 1.334 . S
C356 C105 1.334 . S
C371 C124 1.335 . S
C386 C145 1.335 . S
C401 C42 1.491 1_465 S
C416 C2 1.487 1_655 S
C431 C23 1.488 1_455 S
C446 C63 1.490 1_655 S
C461 C122 1.490 . S
C476 C82 1.488 . S
C491 C143 1.480 . S
C506 C103 1.493 . S
