# Generated by pormake.
# Topology usf, (4)-cn, num edge types: 1
# Building blocks:
#     Node 0, Type 0, BuildingBlock: KOZSID_clean_sbu_0, # of connection points: 4
#     Node 1, Type 0, BuildingBlock: KOZSID_clean_sbu_0, # of connection points: 4
#     Node 2, Type 0, BuildingBlock: KOZSID_clean_sbu_0, # of connection points: 4
#     Node 3, Type 0, BuildingBlock: KOZSID_clean_sbu_0, # of connection points: 4
#     Node 4, Type 0, BuildingBlock: KOZSID_clean_sbu_0, # of connection points: 4
#     Node 5, Type 0, BuildingBlock: KOZSID_clean_sbu_0, # of connection points: 4
#     Node 6, Type 0, BuildingBlock: KOZSID_clean_sbu_0, # of connection points: 4
#     Node 7, Type 0, BuildingBlock: KOZSID_clean_sbu_0, # of connection points: 4
#     Node 8, Type 0, BuildingBlock: KOZSID_clean_sbu_0, # of connection points: 4
#     Node 9, Type 0, BuildingBlock: KOZSID_clean_sbu_0, # of connection points: 4
#     Node 10, Type 0, BuildingBlock: KOZSID_clean_sbu_0, # of connection points: 4
#     Node 11, Type 0, BuildingBlock: KOZSID_clean_sbu_0, # of connection points: 4
#     Node 12, Type 0, BuildingBlock: KOZSID_clean_sbu_0, # of connection points: 4
#     Node 13, Type 0, BuildingBlock: KOZSID_clean_sbu_0, # of connection points: 4
#     Node 14, Type 0, BuildingBlock: KOZSID_clean_sbu_0, # of connection points: 4
#     Node 15, Type 0, BuildingBlock: KOZSID_clean_sbu_0, # of connection points: 4
#     Node 16, Type 0, BuildingBlock: KOZSID_clean_sbu_0, # of connection points: 4
#     Node 17, Type 0, BuildingBlock: KOZSID_clean_sbu_0, # of connection points: 4
#     Edge 18, Type (0, 0), BuildingBlock: XIVTED_clean_linker_0, # of connection points: 2
#     Edge 19, Type (0, 0), BuildingBlock: XIVTED_clean_linker_0, # of connection points: 2
#     Edge 20, Type (0, 0), BuildingBlock: XIVTED_clean_linker_0, # of connection points: 2
#     Edge 21, Type (0, 0), BuildingBlock: XIVTED_clean_linker_0, # of connection points: 2
#     Edge 22, Type (0, 0), BuildingBlock: XIVTED_clean_linker_0, # of connection points: 2
#     Edge 23, Type (0, 0), BuildingBlock: XIVTED_clean_linker_0, # of connection points: 2
#     Edge 24, Type (0, 0), BuildingBlock: XIVTED_clean_linker_0, # of connection points: 2
#     Edge 25, Type (0, 0), BuildingBlock: XIVTED_clean_linker_0, # of connection points: 2
#     Edge 26, Type (0, 0), BuildingBlock: XIVTED_clean_linker_0, # of connection points: 2
#     Edge 27, Type (0, 0), BuildingBlock: XIVTED_clean_linker_0, # of connection points: 2
#     Edge 28, Type (0, 0), BuildingBlock: XIVTED_clean_linker_0, # of connection points: 2
#     Edge 29, Type (0, 0), BuildingBlock: XIVTED_clean_linker_0, # of connection points: 2
#     Edge 30, Type (0, 0), BuildingBlock: XIVTED_clean_linker_0, # of connection points: 2
#     Edge 31, Type (0, 0), BuildingBlock: XIVTED_clean_linker_0, # of connection points: 2
#     Edge 32, Type (0, 0), BuildingBlock: XIVTED_clean_linker_0, # of connection points: 2
#     Edge 33, Type (0, 0), BuildingBlock: XIVTED_clean_linker_0, # of connection points: 2
#     Edge 34, Type (0, 0), BuildingBlock: XIVTED_clean_linker_0, # of connection points: 2
#     Edge 35, Type (0, 0), BuildingBlock: XIVTED_clean_linker_0, # of connection points: 2
#     Edge 36, Type (0, 0), BuildingBlock: XIVTED_clean_linker_0, # of connection points: 2
#     Edge 37, Type (0, 0), BuildingBlock: XIVTED_clean_linker_0, # of connection points: 2
#     Edge 38, Type (0, 0), BuildingBlock: XIVTED_clean_linker_0, # of connection points: 2
#     Edge 39, Type (0, 0), BuildingBlock: XIVTED_clean_linker_0, # of connection points: 2
#     Edge 40, Type (0, 0), BuildingBlock: XIVTED_clean_linker_0, # of connection points: 2
#     Edge 41, Type (0, 0), BuildingBlock: XIVTED_clean_linker_0, # of connection points: 2
#     Edge 42, Type (0, 0), BuildingBlock: XIVTED_clean_linker_0, # of connection points: 2
#     Edge 43, Type (0, 0), BuildingBlock: XIVTED_clean_linker_0, # of connection points: 2
#     Edge 44, Type (0, 0), BuildingBlock: XIVTED_clean_linker_0, # of connection points: 2
#     Edge 45, Type (0, 0), BuildingBlock: XIVTED_clean_linker_0, # of connection points: 2
#     Edge 46, Type (0, 0), BuildingBlock: XIVTED_clean_linker_0, # of connection points: 2
#     Edge 47, Type (0, 0), BuildingBlock: XIVTED_clean_linker_0, # of connection points: 2
#     Edge 48, Type (0, 0), BuildingBlock: XIVTED_clean_linker_0, # of connection points: 2
#     Edge 49, Type (0, 0), BuildingBlock: XIVTED_clean_linker_0, # of connection points: 2
#     Edge 50, Type (0, 0), BuildingBlock: XIVTED_clean_linker_0, # of connection points: 2
#     Edge 51, Type (0, 0), BuildingBlock: XIVTED_clean_linker_0, # of connection points: 2
#     Edge 52, Type (0, 0), BuildingBlock: XIVTED_clean_linker_0, # of connection points: 2
#     Edge 53, Type (0, 0), BuildingBlock: XIVTED_clean_linker_0, # of connection points: 2
# Relax obj value: 0.014
# Max RMSD: 0.050
# Mean RMSD: 0.025
data_MOF--net-usf--node1-KOZSID_clean_sbu_0--edge1-XIVTED_clean_linker_0
_symmetry_space_group_name_H-M    P1
_symmetry_Int_Tables_number       1
_symmetry_cell_setting            triclinic
loop_
_symmetry_equiv_pos_as_xyz
'x, y, z'
_cell_length_a     61.315514
_cell_length_b     61.465133
_cell_length_c     34.543068
_cell_angle_alpha  90.090858
_cell_angle_beta   89.592807
_cell_angle_gamma 116.25586
loop_
_atom_site_label
_atom_site_type_symbol
_atom_site_fract_x
_atom_site_fract_y
_atom_site_fract_z
_atom_type_partial_charge
C0 C 0.99848 0.48414 0.10225 0.0
C1 C 0.97968 0.4641 0.11927 0.0
C2 C 0.96466 0.45107 0.09013 0.0
C3 C 0.97495 0.46381 0.05702 0.0
N4 N 0.99577 0.48418 0.06308 0.0
Co5 Co 0.01576 0.50832 0.02235 0.0
N6 N 0.99239 0.49012 0.98 0.0
C7 C 0.97108 0.47002 0.98456 0.0
C8 C 0.95872 0.46142 0.95071 0.0
C9 C 0.9731 0.47676 0.92265 0.0
C10 C 0.99364 0.49382 0.94097 0.0
N11 N 0.03607 0.5321 0.98135 0.0
C12 C 0.03373 0.53157 0.94203 0.0
C13 C 0.05321 0.55082 0.92467 0.0
C14 C 0.06831 0.5639 0.95371 0.0
C15 C 0.05743 0.55192 0.98712 0.0
N16 N 0.0388 0.52687 0.06492 0.0
C17 C 0.05941 0.54777 0.06071 0.0
C18 C 0.07116 0.55694 0.09484 0.0
C19 C 0.05707 0.54118 0.12272 0.0
C20 C 0.03733 0.52323 0.104 0.0
N21 N 0.03417 0.48917 0.01238 0.0
C22 C 0.06054 0.46374 0.98851 0.0
C23 C 0.07247 0.48802 0.99974 0.0
C24 C 0.05908 0.50021 0.01168 0.0
C25 C 0.03518 0.45201 0.99147 0.0
C26 C 0.02245 0.46496 1.00352 0.0
N27 N 0.99746 0.52762 0.0324 0.0
C28 C 0.99774 0.56622 0.04727 0.0
C29 C 0.97313 0.55485 0.05745 0.0
C30 C 0.96058 0.52971 0.05276 0.0
C31 C 0.97297 0.51657 0.04014 0.0
C32 C 0.00938 0.55242 0.03468 0.0
H33 H 0.96246 0.49746 0.03778 0.0
H34 H 0.02816 0.56224 0.02774 0.0
H35 H 0.06935 0.51869 0.01948 0.0
H36 H 0.00313 0.45515 1.00458 0.0
C37 C 0.96425 0.45846 0.02047 0.0
C38 C 0.01772 0.50321 0.12481 0.0
C39 C 0.01401 0.51276 0.91976 0.0
C40 C 0.06718 0.55836 0.02424 0.0
H41 H 0.97663 0.45965 0.14973 0.0
H42 H 0.94774 0.43473 0.09295 0.0
H43 H 0.94161 0.44547 0.94675 0.0
H44 H 0.96909 0.47527 0.89203 0.0
H45 H 0.05653 0.55476 0.8941 0.0
H46 H 0.0855 0.57992 0.95073 0.0
H47 H 0.08791 0.57326 0.099 0.0
H48 H 0.06084 0.54281 0.15342 0.0
H49 H 0.09214 0.49771 0.99909 0.0
H50 H 0.0251 0.43315 0.98332 0.0
H51 H 0.00811 0.58573 0.04925 0.0
H52 H 0.94144 0.52003 0.06005 0.0
C53 C 0.5668 0.51659 0.92652 0.0
C54 C 0.58689 0.51637 0.90798 0.0
C55 C 0.60267 0.51714 0.93612 0.0
C56 C 0.59168 0.51816 0.97022 0.0
N57 N 0.56968 0.51794 0.96575 0.0
Co58 Co 0.5492 0.52212 1.00825 0.0
N59 N 0.57367 0.52548 0.0493 0.0
C60 C 0.59509 0.52457 0.04354 0.0
C61 C 0.60759 0.52599 0.07688 0.0
C62 C 0.59325 0.5277 0.10591 0.0
C63 C 0.57275 0.5274 0.08857 0.0
N64 N 0.52876 0.5264 0.0507 0.0
C65 C 0.53204 0.52849 0.08979 0.0
C66 C 0.51308 0.53092 0.1083 0.0
C67 C 0.49704 0.52979 0.08026 0.0
C68 C 0.5071 0.52691 0.04624 0.0
N69 N 0.52468 0.51866 0.96725 0.0
C70 C 0.50296 0.51891 0.9732 0.0
C71 C 0.48967 0.51569 0.94017 0.0
C72 C 0.50385 0.51361 0.91117 0.0
C73 C 0.52529 0.51602 0.92808 0.0
N74 N 0.5328 0.48633 0.01742 0.0
C75 C 0.50959 0.43641 0.03707 0.0
C76 C 0.49622 0.44957 0.03156 0.0
C77 C 0.50804 0.47421 0.02193 0.0
C78 C 0.5348 0.44858 0.03148 0.0
C79 C 0.5459 0.47325 0.02137 0.0
N80 N 0.56551 0.5579 0.99905 0.0
C81 C 0.563 0.59523 0.98377 0.0
C82 C 0.5882 0.60774 0.97864 0.0
C83 C 0.60189 0.59497 0.9853 0.0
C84 C 0.59031 0.57035 0.99545 0.0
C85 C 0.55218 0.57065 0.99407 0.0
H86 H 0.6018 0.5617 0.9996 0.0
H87 H 0.53293 0.5623 0.99735 0.0
H88 H 0.49672 0.48311 0.01899 0.0
H89 H 0.56512 0.4814 0.01732 0.0
C90 C 0.60239 0.52118 1.00659 0.0
C91 C 0.54581 0.51622 0.90547 0.0
C92 C 0.55255 0.528 0.11085 0.0
C93 C 0.49597 0.52311 0.01002 0.0
H94 H 0.59031 0.51634 0.87725 0.0
H95 H 0.62047 0.51777 0.93211 0.0
H96 H 0.62481 0.52523 0.07982 0.0
H97 H 0.59726 0.52849 0.13646 0.0
H98 H 0.51089 0.53298 0.139 0.0
H99 H 0.47983 0.53046 0.0843 0.0
H100 H 0.4719 0.51524 0.93742 0.0
H101 H 0.49897 0.51088 0.88091 0.0
H102 H 0.47668 0.4411 0.03576 0.0
H103 H 0.54595 0.43911 0.03473 0.0
H104 H 0.55156 0.60434 0.97995 0.0
H105 H 0.62147 0.60371 0.98169 0.0
C106 C 0.50891 0.04273 0.07105 0.0
C107 C 0.50442 0.06282 0.07603 0.0
C108 C 0.5109 0.07559 0.04224 0.0
C109 C 0.51876 0.06253 0.01864 0.0
N110 N 0.51756 0.04208 0.03514 0.0
Co111 Co 0.52632 0.01733 0.0107 0.0
N112 N 0.53695 0.03676 0.9617 0.0
C113 C 0.53719 0.0585 0.95447 0.0
C114 C 0.54563 0.06749 0.9183 0.0
C115 C 0.55107 0.05047 0.90127 0.0
C116 C 0.54565 0.03201 0.92825 0.0
N117 N 0.53467 0.99236 0.98596 0.0
C118 C 0.54309 0.99162 0.9499 0.0
C119 C 0.54636 0.9709 0.94412 0.0
C120 C 0.53952 0.9579 0.97768 0.0
C121 C 0.53254 0.9714 1.00186 0.0
N122 N 0.51613 0.99812 0.05999 0.0
C123 C 0.5167 0.97679 0.06765 0.0
C124 C 0.5097 0.96852 0.1046 0.0
C125 C 0.50447 0.98564 0.12176 0.0
C126 C 0.5084 0.00339 0.09401 0.0
N127 N 0.49243 0.9998 0.99059 0.0
C128 C 0.44384 0.9749 0.96382 0.0
C129 C 0.45544 0.96255 0.98197 0.0
C130 C 0.47939 0.97519 0.99505 0.0
C131 C 0.4573 1.0 0.95893 0.0
C132 C 0.48131 0.01192 0.97217 0.0
N133 N 0.56019 0.03482 0.03075 0.0
C134 C 0.59643 0.03411 0.05712 0.0
C135 C 0.60893 0.05941 0.05631 0.0
C136 C 0.5964 0.07222 0.04319 0.0
C137 C 0.57232 0.05968 0.03046 0.0
C138 C 0.57229 0.02232 0.0447 0.0
H139 H 0.56397 0.07052 0.02022 0.0
H140 H 0.56384 0.00306 0.0466 0.0
H141 H 0.48696 0.9646 1.0087 0.0
H142 H 0.49046 0.03098 0.96732 0.0
C143 C 0.52833 0.06952 0.9815 0.0
C144 C 0.50539 0.02528 0.10173 0.0
C145 C 0.54789 0.00981 0.92 0.0
C146 C 0.52428 0.9651 0.03981 0.0
H147 H 0.49747 0.06787 0.10165 0.0
H148 H 0.51029 0.09254 0.03584 0.0
H149 H 0.5472 0.08421 0.90558 0.0
H150 H 0.55786 0.05142 0.87203 0.0
H151 H 0.55297 0.96573 0.91824 0.0
H152 H 0.53963 0.94067 0.98373 0.0
H153 H 0.50886 0.95218 0.11768 0.0
H154 H 0.49878 0.98516 0.15157 0.0
H155 H 0.44624 0.94306 0.98587 0.0
H156 H 0.44931 0.01065 0.94548 0.0
H157 H 0.60517 0.02336 0.06769 0.0
H158 H 0.6053 0.09185 0.04187 0.0
C159 C 0.5744 0.01983 0.47494 0.0
C160 C 0.59895 0.03406 0.46731 0.0
C161 C 0.60424 0.0569 0.47974 0.0
C162 C 0.58272 0.05537 0.49408 0.0
N163 N 0.56388 0.03303 0.49102 0.0
Co164 Co 0.52971 0.02275 0.50997 0.0
N165 N 0.53747 0.05648 0.52765 0.0
C166 C 0.55887 0.0765 0.52313 0.0
C167 C 0.55852 0.09736 0.53637 0.0
C168 C 0.53538 0.09036 0.54961 0.0
C169 C 0.52292 0.06551 0.54363 0.0
N170 N 0.49604 0.0121 0.53155 0.0
C171 C 0.48577 0.02504 0.54927 0.0
C172 C 0.46195 0.01032 0.56055 0.0
C173 C 0.45697 0.98728 0.54942 0.0
C174 C 0.47794 0.98922 0.53211 0.0
N175 N 0.52149 0.98941 0.48974 0.0
C176 C 0.49932 0.9701 0.4903 0.0
C177 C 0.49905 0.94965 0.47399 0.0
C178 C 0.52244 0.95627 0.46227 0.0
C179 C 0.53571 0.98053 0.4721 0.0
N180 N 0.53933 0.01473 0.56052 0.0
C181 C 0.54905 0.00405 0.63568 0.0
C182 C 0.53284 0.98583 0.61177 0.0
C183 C 0.52816 0.99154 0.57476 0.0
C184 C 0.56159 0.02742 0.6203 0.0
C185 C 0.55668 0.03226 0.58275 0.0
N186 N 0.51988 0.03058 0.4594 0.0
C187 C 0.48952 0.02194 0.40995 0.0
C188 C 0.50681 0.03824 0.3845 0.0
C189 C 0.53043 0.0518 0.39823 0.0
C190 C 0.53642 0.04797 0.43565 0.0
C191 C 0.49642 0.01821 0.44671 0.0
H192 H 0.55471 0.05891 0.44428 0.0
H193 H 0.48247 0.00482 0.46389 0.0
H194 H 0.51496 0.9769 0.5587 0.0
H195 H 0.56668 0.05045 0.57275 0.0
C196 C 0.57926 0.07486 0.50824 0.0
C197 C 0.56198 0.99395 0.46619 0.0
C198 C 0.4973 0.05136 0.55367 0.0
C199 C 0.48012 0.97078 0.51136 0.0
H200 H 0.61173 0.02854 0.45396 0.0
H201 H 0.62162 0.07279 0.47812 0.0
H202 H 0.57337 0.11548 0.53658 0.0
H203 H 0.52847 0.10221 0.56229 0.0
H204 H 0.44922 0.01575 0.57428 0.0
H205 H 0.43978 0.97124 0.55208 0.0
H206 H 0.48391 0.93176 0.47242 0.0
H207 H 0.52904 0.94432 0.44911 0.0
H208 H 0.52321 0.96728 0.62187 0.0
H209 H 0.57435 0.04223 0.63759 0.0
H210 H 0.47077 0.01153 0.40136 0.0
H211 H 0.54465 0.06465 0.37985 0.0
C212 C 0.03203 0.49667 0.44208 0.0
C213 C 0.05226 0.49603 0.42482 0.0
C214 C 0.0676 0.49712 0.45397 0.0
C215 C 0.05611 0.4986 0.4873 0.0
N216 N 0.03411 0.49808 0.48143 0.0
Co217 Co 0.01307 0.50294 0.52222 0.0
N218 N 0.0364 0.50595 0.56493 0.0
C219 C 0.05739 0.50396 0.5609 0.0
C220 C 0.06932 0.50582 0.59504 0.0
C221 C 0.0549 0.50874 0.62278 0.0
C222 C 0.03482 0.50841 0.60396 0.0
N223 N 0.99258 0.50897 0.56266 0.0
C224 C 0.99534 0.51197 0.60178 0.0
C225 C 0.9763 0.51518 0.61846 0.0
C226 C 0.96108 0.51419 0.58914 0.0
C227 C 0.97152 0.51039 0.55623 0.0
N228 N 0.98919 0.49879 0.47986 0.0
C229 C 0.9672 0.49859 0.48445 0.0
C230 C 0.95465 0.49539 0.45057 0.0
C231 C 0.96962 0.4937 0.42251 0.0
C232 C 0.99068 0.49624 0.44085 0.0
N233 N 0.99594 0.46732 0.53285 0.0
C234 C 0.97243 0.41767 0.55437 0.0
C235 C 0.9598 0.43183 0.55353 0.0
C236 C 0.97171 0.45626 0.54254 0.0
C237 C 0.99691 0.42868 0.54301 0.0
C238 C 0.00821 0.45329 0.53254 0.0
N239 N 0.03018 0.53853 0.5115 0.0
C240 C 0.0295 0.57482 0.48535 0.0
C241 C 0.05475 0.58753 0.48769 0.0
C242 C 0.06746 0.57568 0.50362 0.0
C243 C 0.05495 0.55131 0.51496 0.0
C244 C 0.01764 0.55071 0.49799 0.0
H245 H 0.06579 0.5431 0.52576 0.0
H246 H 0.99832 0.54223 0.49596 0.0
H247 H 0.96091 0.46587 0.54258 0.0
H248 H 0.02701 0.46066 0.5249 0.0
C249 C 0.06569 0.50103 0.52446 0.0
C250 C 0.01183 0.49693 0.41972 0.0
C251 C 0.01483 0.51056 0.6246 0.0
C252 C 0.96043 0.50482 0.51995 0.0
H253 H 0.05592 0.49543 0.39427 0.0
H254 H 0.08533 0.49743 0.45112 0.0
H255 H 0.08648 0.50513 0.59925 0.0
H256 H 0.05875 0.51086 0.65345 0.0
H257 H 0.97322 0.51721 0.64883 0.0
H258 H 0.94387 0.51503 0.59176 0.0
H259 H 0.93713 0.49533 0.44651 0.0
H260 H 0.96574 0.49151 0.39185 0.0
H261 H 0.94068 0.42409 0.56122 0.0
H262 H 0.00756 0.41856 0.54319 0.0
H263 H 0.0189 0.58348 0.47387 0.0
H264 H 0.08708 0.58494 0.50616 0.0
C265 C 0.54621 0.54118 0.58989 0.0
C266 C 0.54497 0.56066 0.60853 0.0
C267 C 0.54516 0.57629 0.58045 0.0
C268 C 0.5469 0.56584 0.5463 0.0
N269 N 0.54766 0.54433 0.55066 0.0
Co270 Co 0.55348 0.52505 0.50811 0.0
N271 N 0.55485 0.5488 0.46693 0.0
C272 C 0.552 0.56916 0.47264 0.0
C273 C 0.55193 0.58106 0.4392 0.0
C274 C 0.55458 0.56735 0.41015 0.0
C275 C 0.55635 0.54785 0.42759 0.0
N276 N 0.55983 0.50604 0.46573 0.0
C277 C 0.56155 0.50932 0.42658 0.0
C278 C 0.56613 0.49167 0.40818 0.0
C279 C 0.56674 0.47641 0.43637 0.0
C280 C 0.56272 0.48563 0.47036 0.0
N281 N 0.55143 0.50093 0.54907 0.0
C282 C 0.55311 0.47997 0.543 0.0
C283 C 0.55004 0.46646 0.57585 0.0
C284 C 0.54645 0.47965 0.60484 0.0
C285 C 0.54792 0.50081 0.58813 0.0
N286 N 0.51779 0.50656 0.49916 0.0
C287 C 0.4681 0.4809 0.47863 0.0
C288 C 0.48301 0.46913 0.4817 0.0
C289 C 0.50746 0.48212 0.49189 0.0
C290 C 0.47842 0.50567 0.4876 0.0
C291 C 0.50301 0.51799 0.49789 0.0
N292 N 0.58928 0.54358 0.51701 0.0
C293 C 0.62777 0.54426 0.53499 0.0
C294 C 0.6391 0.56961 0.53673 0.0
C295 C 0.62521 0.5817 0.52693 0.0
C296 C 0.6006 0.56848 0.5173 0.0
C297 C 0.6032 0.53177 0.52492 0.0
H298 H 0.59103 0.57885 0.51083 0.0
H299 H 0.59585 0.51252 0.52424 0.0
H300 H 0.51773 0.472 0.49315 0.0
H301 H 0.5098 0.53687 0.50404 0.0
C302 C 0.54868 0.5762 0.50978 0.0
C303 C 0.54652 0.52045 0.61084 0.0
C304 C 0.55854 0.5285 0.40541 0.0
C305 C 0.55894 0.47418 0.50641 0.0
H306 H 0.54451 0.56371 0.63928 0.0
H307 H 0.54471 0.59356 0.58452 0.0
H308 H 0.54964 0.59745 0.43623 0.0
H309 H 0.55466 0.57109 0.37956 0.0
H310 H 0.56833 0.48973 0.37745 0.0
H311 H 0.56902 0.46006 0.4324 0.0
H312 H 0.55072 0.44922 0.57852 0.0
H313 H 0.54339 0.47433 0.63497 0.0
H314 H 0.47591 0.44985 0.47623 0.0
H315 H 0.46781 0.51579 0.48572 0.0
H316 H 0.6378 0.53398 0.54141 0.0
H317 H 0.63305 0.60132 0.52781 0.0
C318 C 0.68916 0.84214 0.43552 0.0
C319 C 0.67026 0.82221 0.45265 0.0
C320 C 0.65498 0.80936 0.42367 0.0
C321 C 0.66539 0.82187 0.39045 0.0
N322 N 0.68666 0.8418 0.39625 0.0
Co323 Co 0.70768 0.8648 0.355 0.0
N324 N 0.68515 0.84562 0.31225 0.0
C325 C 0.66435 0.82492 0.31657 0.0
C326 C 0.65289 0.81537 0.28239 0.0
C327 C 0.66736 0.83068 0.25437 0.0
C328 C 0.687 0.84875 0.27307 0.0
N329 N 0.72836 0.88812 0.31385 0.0
C330 C 0.72611 0.88758 0.27456 0.0
C331 C 0.74526 0.90722 0.2573 0.0
C332 C 0.75997 0.92064 0.28643 0.0
C333 C 0.74917 0.9085 0.31975 0.0
N334 N 0.73055 0.88361 0.3976 0.0
C335 C 0.75164 0.90398 0.39301 0.0
C336 C 0.76296 0.9139 0.42706 0.0
C337 C 0.7483 0.89902 0.45527 0.0
C338 C 0.72883 0.88052 0.43681 0.0
N339 N 0.72592 0.84518 0.34786 0.0
C340 C 0.75029 0.81708 0.32776 0.0
C341 C 0.76301 0.84229 0.33123 0.0
C342 C 0.75057 0.85589 0.34142 0.0
C343 C 0.72552 0.80616 0.33688 0.0
C344 C 0.71385 0.82037 0.34686 0.0
N345 N 0.6893 0.88433 0.36206 0.0
C346 C 0.68826 0.92211 0.37895 0.0
C347 C 0.66286 0.91088 0.37914 0.0
C348 C 0.65095 0.88638 0.36924 0.0
C349 C 0.66438 0.87357 0.36097 0.0
C350 C 0.70102 0.90867 0.36997 0.0
H351 H 0.65411 0.85486 0.35449 0.0
H352 H 0.72033 0.91833 0.37012 0.0
H353 H 0.76115 0.87506 0.343 0.0
H354 H 0.69493 0.81081 0.3528 0.0
C355 C 0.65606 0.81493 0.35322 0.0
C356 C 0.70889 0.86088 0.45794 0.0
C357 C 0.70685 0.86846 0.25217 0.0
C358 C 0.75912 0.91468 0.35666 0.0
H359 H 0.66771 0.81733 0.48298 0.0
H360 H 0.63831 0.79275 0.42648 0.0
H361 H 0.63606 0.79912 0.27831 0.0
H362 H 0.66385 0.82869 0.2236 0.0
H363 H 0.74864 0.91121 0.22675 0.0
H364 H 0.77694 0.93693 0.28357 0.0
H365 H 0.77947 0.9305 0.431 0.0
H366 H 0.75144 0.90201 0.48599 0.0
H367 H 0.78229 0.85162 0.32475 0.0
H368 H 0.71498 0.78663 0.33584 0.0
H369 H 0.6983 0.94121 0.38573 0.0
H370 H 0.63127 0.87686 0.36909 0.0
C371 C 0.20865 0.84439 0.42955 0.0
C372 C 0.22735 0.84089 0.44636 0.0
C373 C 0.23978 0.83646 0.4169 0.0
C374 C 0.22795 0.83728 0.38385 0.0
N375 N 0.20891 0.84236 0.39022 0.0
Co376 Co 0.18536 0.84236 0.34996 0.0
N377 N 0.20375 0.83589 0.30652 0.0
C378 C 0.22457 0.83357 0.31003 0.0
C379 C 0.23389 0.83042 0.27546 0.0
C380 C 0.21836 0.83123 0.24801 0.0
C381 C 0.20037 0.83489 0.26745 0.0
N382 N 0.16111 0.84112 0.31002 0.0
C383 C 0.161 0.83862 0.27075 0.0
C384 C 0.14058 0.83918 0.2546 0.0
C385 C 0.12742 0.84211 0.28444 0.0
C386 C 0.14044 0.84326 0.3171 0.0
N387 N 0.16773 0.85026 0.39296 0.0
C388 C 0.14793 0.85432 0.38895 0.0
C389 C 0.13983 0.8597 0.42304 0.0
C390 C 0.15528 0.85887 0.45063 0.0
C391 C 0.17185 0.85273 0.43181 0.0
N392 N 0.20514 0.87774 0.34038 0.0
C393 C 0.23343 0.92733 0.32149 0.0
C394 C 0.20798 0.91695 0.32195 0.0
C395 C 0.19435 0.89244 0.33154 0.0
C396 C 0.24437 0.91243 0.33169 0.0
C397 C 0.23006 0.88797 0.34092 0.0
N398 N 0.16561 0.80686 0.35979 0.0
C399 C 0.12992 0.774 0.38808 0.0
C400 C 0.14 0.7578 0.38303 0.0
C401 C 0.16259 0.76622 0.36454 0.0
C402 C 0.17506 0.79064 0.35351 0.0
C403 C 0.14268 0.79809 0.37565 0.0
H404 H 0.19252 0.79596 0.34064 0.0
H405 H 0.13369 0.80933 0.37977 0.0
H406 H 0.17506 0.8857 0.33104 0.0
H407 H 0.23957 0.87762 0.34805 0.0
C408 C 0.23446 0.83376 0.34638 0.0
C409 C 0.19061 0.8487 0.45236 0.0
C410 C 0.1804 0.83708 0.24736 0.0
C411 C 0.1357 0.84995 0.3537 0.0
H412 H 0.2314 0.84108 0.47682 0.0
H413 H 0.25542 0.83277 0.41934 0.0
H414 H 0.25008 0.82787 0.27076 0.0
H415 H 0.22011 0.82934 0.21715 0.0
H416 H 0.13602 0.83841 0.22429 0.0
H417 H 0.11094 0.84438 0.28235 0.0
H418 H 0.12404 0.86297 0.42753 0.0
H419 H 0.1541 0.86187 0.48128 0.0
H420 H 0.19846 0.92749 0.31401 0.0
H421 H 0.26397 0.91955 0.33269 0.0
H422 H 0.11218 0.76808 0.40155 0.0
H423 H 0.171 0.7542 0.3598 0.0
C424 C 0.20159 0.362 0.43915 0.0
C425 C 0.19966 0.38147 0.4565 0.0
C426 C 0.20021 0.39672 0.42743 0.0
C427 C 0.20264 0.38591 0.39404 0.0
N428 N 0.20338 0.36449 0.39984 0.0
Co429 Co 0.2089 0.34407 0.35883 0.0
N430 N 0.21084 0.36715 0.31617 0.0
C431 C 0.20865 0.38798 0.32041 0.0
C432 C 0.20991 0.39977 0.28622 0.0
C433 C 0.2127 0.38546 0.25828 0.0
C434 C 0.21286 0.36558 0.27702 0.0
N435 N 0.21492 0.3239 0.31797 0.0
C436 C 0.21696 0.32644 0.2787 0.0
C437 C 0.21997 0.30747 0.26161 0.0
C438 C 0.21987 0.29252 0.2908 0.0
C439 C 0.21669 0.303 0.32402 0.0
N440 N 0.20644 0.32071 0.4013 0.0
C441 C 0.20764 0.29942 0.39682 0.0
C442 C 0.2053 0.28705 0.43076 0.0
C443 C 0.20267 0.30139 0.4588 0.0
C444 C 0.20378 0.32191 0.44035 0.0
N445 N 0.17315 0.32602 0.34988 0.0
C446 C 0.1233 0.30149 0.32971 0.0
C447 C 0.13763 0.28907 0.33273 0.0
C448 C 0.1622 0.30152 0.34296 0.0
C449 C 0.13428 0.32627 0.33849 0.0
C450 C 0.1589 0.33801 0.34839 0.0
N451 N 0.24465 0.36222 0.36781 0.0
C452 C 0.2831 0.36264 0.38536 0.0
C453 C 0.2943 0.38796 0.38838 0.0
C454 C 0.28037 0.40014 0.37945 0.0
C455 C 0.25593 0.38708 0.3691 0.0
C456 C 0.25852 0.35027 0.37509 0.0
H457 H 0.24649 0.39756 0.36275 0.0
H458 H 0.25102 0.33099 0.3739 0.0
H459 H 0.17206 0.29098 0.34441 0.0
H460 H 0.16604 0.35691 0.35422 0.0
C461 C 0.20499 0.39575 0.35689 0.0
C462 C 0.2026 0.34212 0.46143 0.0
C463 C 0.21488 0.34569 0.25617 0.0
C464 C 0.21278 0.29241 0.36075 0.0
H465 H 0.19848 0.38466 0.48707 0.0
H466 H 0.19949 0.41392 0.43037 0.0
H467 H 0.20866 0.41663 0.28206 0.0
H468 H 0.21425 0.38918 0.22751 0.0
H469 H 0.22134 0.30427 0.2311 0.0
H470 H 0.22099 0.2755 0.288 0.0
H471 H 0.20599 0.2699 0.43476 0.0
H472 H 0.20052 0.29732 0.48945 0.0
H473 H 0.13019 0.2699 0.32621 0.0
H474 H 0.12397 0.33672 0.33774 0.0
H475 H 0.29301 0.35227 0.39194 0.0
H476 H 0.28828 0.41976 0.38034 0.0
C477 C 0.19354 0.31844 0.94064 0.0
C478 C 0.17641 0.29802 0.95943 0.0
C479 C 0.16156 0.2832 0.93155 0.0
C480 C 0.17046 0.29522 0.89733 0.0
N481 N 0.19034 0.31673 0.90151 0.0
Co482 Co 0.20839 0.34019 0.85879 0.0
N483 N 0.18535 0.31916 0.81795 0.0
C484 C 0.16595 0.29745 0.82392 0.0
C485 C 0.15413 0.28651 0.79065 0.0
C486 C 0.16681 0.30201 0.76152 0.0
C487 C 0.18568 0.32174 0.77869 0.0
N488 N 0.22635 0.36374 0.81615 0.0
C489 C 0.2228 0.36237 0.77712 0.0
C490 C 0.23971 0.38299 0.75846 0.0
C491 C 0.25475 0.39761 0.78632 0.0
C492 C 0.24616 0.38528 0.82038 0.0
N493 N 0.23149 0.36117 0.89959 0.0
C494 C 0.25113 0.38267 0.89351 0.0
C495 C 0.26293 0.39369 0.92673 0.0
C496 C 0.24999 0.37848 0.95596 0.0
C497 C 0.23097 0.35882 0.93889 0.0
N498 N 0.22922 0.32336 0.84988 0.0
C499 C 0.25762 0.29972 0.82751 0.0
C500 C 0.26832 0.32476 0.83354 0.0
C501 C 0.25388 0.33614 0.8446 0.0
C502 C 0.23277 0.28659 0.83489 0.0
C503 C 0.21911 0.29862 0.84634 0.0
N504 N 0.18751 0.35694 0.86766 0.0
C505 C 0.18323 0.3933 0.88298 0.0
C506 C 0.15817 0.37986 0.88864 0.0
C507 C 0.14796 0.3549 0.88189 0.0
C508 C 0.1628 0.34394 0.87143 0.0
C509 C 0.19741 0.3816 0.87237 0.0
H510 H 0.15386 0.32486 0.86718 0.0
H511 H 0.21639 0.39283 0.86895 0.0
H512 H 0.26299 0.35533 0.84781 0.0
H513 H 0.20031 0.28749 0.85141 0.0
C514 C 0.15997 0.2873 0.86101 0.0
C515 C 0.21229 0.339 0.96145 0.0
C516 C 0.20397 0.34194 0.75625 0.0
C517 C 0.25689 0.39295 0.85655 0.0
H518 H 0.17465 0.29431 0.9902 0.0
H519 H 0.14587 0.26589 0.93579 0.0
H520 H 0.1385 0.26904 0.78782 0.0
H521 H 0.16285 0.29882 0.731 0.0
H522 H 0.24119 0.38699 0.7278 0.0
H523 H 0.27033 0.41501 0.78217 0.0
H524 H 0.2786 0.41114 0.92947 0.0
H525 H 0.25381 0.38193 0.98647 0.0
H526 H 0.28759 0.33568 0.82838 0.0
H527 H 0.22379 0.26705 0.83156 0.0
H528 H 0.19209 0.4127 0.88782 0.0
H529 H 0.12855 0.34373 0.88482 0.0
C530 C 0.73285 0.87291 0.93556 0.0
C531 C 0.75393 0.87488 0.95311 0.0
C532 C 0.76847 0.87314 0.92437 0.0
C533 C 0.75565 0.87043 0.8909 0.0
N534 N 0.73387 0.87059 0.89641 0.0
Co535 Co 0.70968 0.86722 0.85499 0.0
N536 N 0.72966 0.86141 0.8134 0.0
C537 C 0.75065 0.85966 0.81878 0.0
C538 C 0.75991 0.85461 0.78563 0.0
C539 C 0.74405 0.8533 0.75719 0.0
C540 C 0.72609 0.85805 0.7745 0.0
N541 N 0.68587 0.86461 0.81332 0.0
C542 C 0.68718 0.86283 0.77405 0.0
C543 C 0.66788 0.86473 0.75608 0.0
C544 C 0.65377 0.86732 0.78465 0.0
C545 C 0.6653 0.86729 0.8184 0.0
N546 N 0.68928 0.87213 0.8969 0.0
C547 C 0.66751 0.8723 0.892 0.0
C548 C 0.65657 0.87393 0.92585 0.0
C549 C 0.6721 0.87448 0.95432 0.0
C550 C 0.69188 0.87341 0.93614 0.0
N551 N 0.72704 0.90292 0.84501 0.0
C552 C 0.75065 0.95253 0.82336 0.0
C553 C 0.72639 0.94179 0.8358 0.0
C554 C 0.71503 0.9172 0.8463 0.0
C555 C 0.76309 0.9382 0.8234 0.0
C556 C 0.75116 0.9138 0.83457 0.0
N557 N 0.6924 0.8316 0.86496 0.0
C558 C 0.65517 0.79502 0.87688 0.0
C559 C 0.66824 0.78205 0.88667 0.0
C560 C 0.6936 0.7942 0.88385 0.0
C561 C 0.70516 0.81863 0.87301 0.0
C562 C 0.66749 0.81953 0.86607 0.0
H563 H 0.72449 0.82672 0.8719 0.0
H564 H 0.65651 0.82846 0.85939 0.0
H565 H 0.69641 0.91008 0.85474 0.0
H566 H 0.76183 0.90406 0.834 0.0
C567 C 0.76216 0.86473 0.85477 0.0
C568 C 0.71221 0.87279 0.95754 0.0
C569 C 0.70656 0.85996 0.75246 0.0
C570 C 0.6576 0.87039 0.85521 0.0
H571 H 0.75815 0.87684 0.98366 0.0
H572 H 0.78592 0.87294 0.92767 0.0
H573 H 0.77652 0.85264 0.78236 0.0
H574 H 0.7458 0.84964 0.72699 0.0
H575 H 0.66446 0.86482 0.72545 0.0
H576 H 0.63736 0.86957 0.78117 0.0
H577 H 0.63911 0.87413 0.92946 0.0
H578 H 0.66887 0.87509 0.98502 0.0
H579 H 0.71592 0.95209 0.83633 0.0
H580 H 0.78207 0.94578 0.81487 0.0
H581 H 0.6355 0.78657 0.87853 0.0
H582 H 0.70465 0.78492 0.89 0.0
C583 C 0.1752 0.85846 0.93121 0.0
C584 C 0.17179 0.8768 0.94967 0.0
C585 C 0.17223 0.89257 0.92157 0.0
C586 C 0.17571 0.88299 0.88756 0.0
N587 N 0.1772 0.86184 0.89207 0.0
Co588 Co 0.18288 0.84237 0.8497 0.0
N589 N 0.18564 0.86675 0.80868 0.0
C590 C 0.18373 0.88761 0.81443 0.0
C591 C 0.1852 0.90023 0.78107 0.0
C592 C 0.18799 0.88654 0.75209 0.0
C593 C 0.18819 0.86627 0.76945 0.0
N594 N 0.18859 0.8229 0.80738 0.0
C595 C 0.19086 0.82641 0.76831 0.0
C596 C 0.19424 0.80806 0.74984 0.0
C597 C 0.19356 0.79216 0.7779 0.0
C598 C 0.18995 0.80169 0.81186 0.0
N599 N 0.18014 0.81801 0.89075 0.0
C600 C 0.18195 0.79709 0.88497 0.0
C601 C 0.18071 0.78457 0.91833 0.0
C602 C 0.17821 0.79839 0.94736 0.0
C603 C 0.17791 0.81862 0.93003 0.0
N604 N 0.14711 0.82473 0.83996 0.0
C605 C 0.09767 0.80027 0.81742 0.0
C606 C 0.11133 0.78754 0.82456 0.0
C607 C 0.13575 0.79999 0.83564 0.0
C608 C 0.109 0.82536 0.82331 0.0
C609 C 0.13337 0.83706 0.83482 0.0
N610 N 0.21863 0.86003 0.85926 0.0
C611 C 0.25711 0.85963 0.87384 0.0
C612 C 0.26857 0.88482 0.87871 0.0
C613 C 0.25468 0.89741 0.87257 0.0
C614 C 0.23001 0.8848 0.86306 0.0
C615 C 0.23247 0.84776 0.86392 0.0
H616 H 0.22044 0.89548 0.85952 0.0
H617 H 0.22496 0.8286 0.86056 0.0
H618 H 0.14519 0.78923 0.83981 0.0
H619 H 0.14077 0.85615 0.83883 0.0
C620 C 0.17901 0.89407 0.85127 0.0
C621 C 0.17663 0.83841 0.95234 0.0
C622 C 0.18967 0.84657 0.74722 0.0
C623 C 0.1866 0.7906 0.84813 0.0
H624 H 0.16953 0.87876 0.98038 0.0
H625 H 0.17071 0.90932 0.92556 0.0
H626 H 0.18369 0.91703 0.77805 0.0
H627 H 0.18912 0.89076 0.72154 0.0
H628 H 0.19669 0.80619 0.71916 0.0
H629 H 0.19505 0.7754 0.77391 0.0
H630 H 0.18227 0.76779 0.92131 0.0
H631 H 0.1774 0.79427 0.97791 0.0
H632 H 0.10348 0.76809 0.82047 0.0
H633 H 0.0991 0.83603 0.81912 0.0
H634 H 0.26714 0.84904 0.87751 0.0
H635 H 0.26259 0.91691 0.87612 0.0
C636 C 0.37658 0.22425 0.71518 0.0
C637 C 0.39055 0.24916 0.71835 0.0
C638 C 0.41308 0.25415 0.70423 0.0
C639 C 0.41161 0.23216 0.69301 0.0
N640 N 0.38947 0.21334 0.69914 0.0
Co641 Co 0.37921 0.17837 0.68557 0.0
N642 N 0.41239 0.18589 0.66426 0.0
C643 C 0.43191 0.2079 0.66255 0.0
C644 C 0.45238 0.20735 0.64748 0.0
C645 C 0.44564 0.18354 0.63923 0.0
C646 C 0.42128 0.1709 0.64963 0.0
N647 N 0.36891 0.14344 0.67184 0.0
C648 C 0.38187 0.13251 0.6562 0.0
C649 C 0.36761 0.10781 0.65106 0.0
C650 C 0.34492 0.10287 0.66439 0.0
C651 C 0.34655 0.12473 0.67668 0.0
N652 N 0.34611 0.17081 0.70716 0.0
C653 C 0.32671 0.14872 0.70942 0.0
C654 C 0.30666 0.14902 0.7266 0.0
C655 C 0.31354 0.17273 0.73576 0.0
C656 C 0.33747 0.18563 0.72325 0.0
N657 N 0.36885 0.18401 0.63384 0.0
C658 C 0.35511 0.19098 0.55903 0.0
C659 C 0.3394 0.17178 0.58223 0.0
C660 C 0.34657 0.16867 0.61923 0.0
C661 C 0.37748 0.20706 0.57441 0.0
C662 C 0.38387 0.20332 0.61155 0.0
N663 N 0.38953 0.17277 0.73727 0.0
C664 C 0.38063 0.14984 0.7968 0.0
C665 C 0.40203 0.16702 0.81345 0.0
C666 C 0.41771 0.18642 0.79054 0.0
C667 C 0.41114 0.18893 0.75285 0.0
C668 C 0.37488 0.15295 0.75891 0.0
H669 H 0.42363 0.20435 0.7372 0.0
H670 H 0.3582 0.13939 0.74814 0.0
H671 H 0.33386 0.15357 0.63522 0.0
H672 H 0.40123 0.2161 0.62128 0.0
C673 C 0.43059 0.22869 0.67615 0.0
C674 C 0.35104 0.21194 0.72702 0.0
C675 C 0.40766 0.14462 0.64608 0.0
C676 C 0.32776 0.12807 0.69453 0.0
H677 H 0.38502 0.26245 0.72938 0.0
H678 H 0.42863 0.27175 0.70204 0.0
H679 H 0.47017 0.22241 0.64348 0.0
H680 H 0.45744 0.1763 0.62735 0.0
H681 H 0.37311 0.09467 0.63919 0.0
H682 H 0.32918 0.08535 0.66551 0.0
H683 H 0.28909 0.13383 0.73174 0.0
H684 H 0.30216 0.1797 0.74995 0.0
H685 H 0.32171 0.15902 0.5718 0.0
H686 H 0.39047 0.22206 0.55744 0.0
H687 H 0.36774 0.13454 0.81333 0.0
H688 H 0.43478 0.19993 0.80183 0.0
C689 C 0.86203 0.23173 0.6536 0.0
C690 C 0.84688 0.242 0.64266 0.0
C691 C 0.82379 0.22587 0.65275 0.0
C692 C 0.82605 0.20662 0.66886 0.0
N693 N 0.84919 0.20943 0.66965 0.0
Co694 Co 0.86009 0.18495 0.68849 0.0
N695 N 0.82647 0.16238 0.70717 0.0
C696 C 0.80664 0.16663 0.70627 0.0
C697 C 0.78608 0.14806 0.72115 0.0
C698 C 0.79316 0.1309 0.73236 0.0
C699 C 0.81779 0.14002 0.72371 0.0
N700 N 0.87077 0.15991 0.70533 0.0
C701 C 0.85781 0.13738 0.72057 0.0
C702 C 0.87247 0.12583 0.72702 0.0
C703 C 0.8953 0.14133 0.71479 0.0
C704 C 0.89338 0.16144 0.70175 0.0
N705 N 0.89402 0.2082 0.67202 0.0
C706 C 0.91425 0.20482 0.67587 0.0
C707 C 0.93523 0.22441 0.66478 0.0
C708 C 0.92807 0.24148 0.65346 0.0
C709 C 0.90295 0.23119 0.65786 0.0
N710 N 0.86688 0.20007 0.74034 0.0
C711 C 0.874 0.21776 0.81658 0.0
C712 C 0.88962 0.20933 0.79978 0.0
C713 C 0.88584 0.20077 0.76186 0.0
C714 C 0.85552 0.21833 0.79385 0.0
C715 C 0.85229 0.20945 0.7561 0.0
N716 N 0.85316 0.16969 0.63656 0.0
C717 C 0.86699 0.15886 0.57722 0.0
C718 C 0.84352 0.14911 0.56194 0.0
C719 C 0.82485 0.14918 0.58528 0.0
C720 C 0.83006 0.15971 0.6219 0.0
C721 C 0.8713 0.16869 0.61438 0.0
H722 H 0.81504 0.15968 0.63751 0.0
H723 H 0.88956 0.17565 0.62421 0.0
H724 H 0.89815 0.19428 0.75097 0.0
H725 H 0.83756 0.20991 0.74053 0.0
C726 C 0.80729 0.18689 0.68707 0.0
C727 C 0.88848 0.24408 0.64862 0.0
C728 C 0.83179 0.12626 0.72989 0.0
C729 C 0.9128 0.1827 0.68868 0.0
H730 H 0.85201 0.25949 0.6292 0.0
H731 H 0.80738 0.22818 0.64962 0.0
H732 H 0.76789 0.14677 0.72237 0.0
H733 H 0.78129 0.11337 0.74451 0.0
H734 H 0.86728 0.10809 0.73958 0.0
H735 H 0.91147 0.13845 0.71587 0.0
H736 H 0.95356 0.22609 0.66499 0.0
H737 H 0.94008 0.25952 0.64332 0.0
H738 H 0.9041 0.2083 0.81624 0.0
H739 H 0.84324 0.22514 0.80533 0.0
H740 H 0.88226 0.15966 0.56033 0.0
H741 H 0.80623 0.14141 0.57533 0.0
C742 C 0.82624 0.6457 0.63407 0.0
C743 C 0.81832 0.62216 0.62043 0.0
C744 C 0.83282 0.61311 0.63691 0.0
C745 C 0.8489 0.63159 0.65932 0.0
N746 N 0.8458 0.65195 0.6575 0.0
Co747 Co 0.86542 0.68273 0.68576 0.0
N748 N 0.89108 0.67239 0.6988 0.0
C749 C 0.88892 0.64966 0.69644 0.0
C750 C 0.90987 0.64809 0.7059 0.0
C751 C 0.92626 0.67126 0.71503 0.0
C752 C 0.91427 0.68571 0.71099 0.0
N753 N 0.88498 0.7133 0.71439 0.0
C754 C 0.90854 0.72308 0.72586 0.0
C755 C 0.91465 0.74456 0.74596 0.0
C756 C 0.89424 0.74832 0.74697 0.0
C757 C 0.87682 0.72898 0.72765 0.0
N758 N 0.83986 0.69324 0.67268 0.0
C759 C 0.83706 0.71159 0.68974 0.0
C760 C 0.8174 0.71428 0.67632 0.0
C761 C 0.80683 0.69625 0.64958 0.0
C762 C 0.82067 0.68346 0.64813 0.0
N763 N 0.84787 0.66787 0.73344 0.0
C764 C 0.82264 0.64948 0.80246 0.0
C765 C 0.81004 0.64651 0.76791 0.0
C766 C 0.82302 0.6555 0.73361 0.0
C767 C 0.84805 0.66121 0.80191 0.0
C768 C 0.86033 0.67047 0.76715 0.0
N769 N 0.88293 0.69765 0.63825 0.0
C770 C 0.89918 0.73152 0.59432 0.0
C771 C 0.90717 0.71858 0.56917 0.0
C772 C 0.90324 0.69514 0.57996 0.0
C773 C 0.89123 0.6851 0.61456 0.0
C774 C 0.88704 0.7207 0.62857 0.0
H775 H 0.88833 0.66699 0.62176 0.0
H776 H 0.88077 0.73094 0.64701 0.0
H777 H 0.81279 0.65278 0.70745 0.0
H778 H 0.87988 0.68017 0.76775 0.0
C779 C 0.86872 0.6314 0.67872 0.0
C780 C 0.81281 0.66016 0.62782 0.0
C781 C 0.92495 0.71164 0.72099 0.0
C782 C 0.85427 0.727 0.71591 0.0
H783 H 0.8032 0.61231 0.60135 0.0
H784 H 0.83197 0.59531 0.63256 0.0
H785 H 0.91321 0.63223 0.70453 0.0
H786 H 0.94491 0.67679 0.72347 0.0
H787 H 0.93198 0.75619 0.75881 0.0
H788 H 0.89257 0.76376 0.75916 0.0
H789 H 0.81145 0.72774 0.68494 0.0
H790 H 0.79026 0.6924 0.63405 0.0
H791 H 0.79035 0.63743 0.76747 0.0
H792 H 0.85831 0.66395 0.82839 0.0
H793 H 0.90199 0.74976 0.58746 0.0
H794 H 0.90858 0.68416 0.56123 0.0
C795 C 0.89682 0.67428 0.15115 0.0
C796 C 0.9148 0.68486 0.12306 0.0
C797 C 0.91151 0.70359 0.10726 0.0
C798 C 0.89181 0.70348 0.12647 0.0
N799 N 0.88268 0.68606 0.15379 0.0
Co800 Co 0.85373 0.67922 0.18689 0.0
N801 N 0.85499 0.71134 0.17503 0.0
C802 C 0.86664 0.72574 0.14489 0.0
C803 C 0.86412 0.74684 0.14409 0.0
C804 C 0.84991 0.74557 0.17563 0.0
C805 C 0.8446 0.72369 0.19398 0.0
N806 N 0.82484 0.67255 0.21992 0.0
C807 C 0.81705 0.68819 0.23524 0.0
C808 C 0.79619 0.67595 0.25747 0.0
C809 C 0.79063 0.65178 0.25543 0.0
C810 C 0.8084 0.65062 0.23235 0.0
N811 N 0.85224 0.64692 0.19857 0.0
C812 C 0.83295 0.62776 0.21362 0.0
C813 C 0.83708 0.60774 0.21838 0.0
C814 C 0.86024 0.61458 0.2049 0.0
C815 C 0.86895 0.63846 0.19239 0.0
N816 N 0.87483 0.69312 0.23119 0.0
C817 C 0.90329 0.71356 0.29608 0.0
C818 C 0.88382 0.6904 0.29793 0.0
C819 C 0.86967 0.68063 0.26533 0.0
C820 C 0.9086 0.72626 0.26106 0.0
C821 C 0.89434 0.7155 0.22867 0.0
N822 N 0.8326 0.66526 0.14251 0.0
C823 C 0.82336 0.64095 0.08504 0.0
C824 C 0.80497 0.64763 0.0756 0.0
C825 C 0.80004 0.6626 0.10127 0.0
C826 C 0.814 0.67112 0.13471 0.0
C827 C 0.83687 0.64992 0.11841 0.0
H828 H 0.81015 0.68296 0.15369 0.0
H829 H 0.85132 0.64497 0.12389 0.0
H830 H 0.85425 0.66314 0.26805 0.0
H831 H 0.89881 0.72547 0.20181 0.0
C832 C 0.88313 0.72092 0.12264 0.0
C833 C 0.89176 0.65125 0.1705 0.0
C834 C 0.82817 0.71437 0.22738 0.0
C835 C 0.81275 0.63028 0.22772 0.0
H836 H 0.92843 0.67918 0.11406 0.0
H837 H 0.92237 0.71597 0.08478 0.0
H838 H 0.87243 0.76181 0.12396 0.0
H839 H 0.84404 0.75913 0.18404 0.0
H840 H 0.78606 0.68362 0.27356 0.0
H841 H 0.77603 0.637 0.27045 0.0
H842 H 0.82491 0.59042 0.23092 0.0
H843 H 0.86946 0.6031 0.20355 0.0
H844 H 0.87898 0.68027 0.32485 0.0
H845 H 0.9235 0.7443 0.25886 0.0
H846 H 0.82829 0.6299 0.06579 0.0
H847 H 0.78593 0.66814 0.09515 0.0
C848 C 0.3873 0.20088 0.26954 0.0
C849 C 0.40477 0.2058 0.29795 0.0
C850 C 0.42248 0.20075 0.28227 0.0
C851 C 0.41485 0.19305 0.24538 0.0
N852 N 0.39348 0.1932 0.23634 0.0
Co853 Co 0.3754 0.18296 0.18635 0.0
N854 N 0.40042 0.17355 0.16446 0.0
C855 C 0.4204 0.17454 0.18235 0.0
C856 C 0.43427 0.16716 0.15959 0.0
C857 C 0.42263 0.16136 0.12488 0.0
C858 C 0.4023 0.16563 0.12861 0.0
N859 N 0.3574 0.17286 0.13626 0.0
C860 C 0.36348 0.16498 0.10316 0.0
C861 C 0.34622 0.16043 0.07454 0.0
C862 C 0.32871 0.16589 0.08999 0.0
C863 C 0.33627 0.17346 0.12695 0.0
N864 N 0.3503 0.19221 0.20838 0.0
C865 C 0.33025 0.19112 0.19059 0.0
C866 C 0.31609 0.19795 0.2137 0.0
C867 C 0.32758 0.20341 0.24857 0.0
C868 C 0.34811 0.19953 0.24456 0.0
N869 N 0.3942 0.21653 0.16551 0.0
C870 C 0.42092 0.26419 0.13578 0.0
C871 C 0.39557 0.252 0.13277 0.0
C872 C 0.38275 0.22845 0.14749 0.0
C873 C 0.43258 0.2519 0.15389 0.0
C874 C 0.41904 0.2284 0.16843 0.0
N875 N 0.35662 0.14941 0.20709 0.0
C876 C 0.31836 0.11357 0.2165 0.0
C877 C 0.32992 0.10149 0.2354 0.0
C878 C 0.35511 0.11399 0.24021 0.0
C879 C 0.36795 0.13773 0.2262 0.0
C880 C 0.3319 0.13722 0.20265 0.0
H881 H 0.38703 0.14629 0.23124 0.0
H882 H 0.32193 0.14524 0.18832 0.0
H883 H 0.36355 0.22029 0.14393 0.0
H884 H 0.42914 0.22018 0.18178 0.0
C885 C 0.42645 0.18397 0.21965 0.0
C886 C 0.36433 0.20194 0.27641 0.0
C887 C 0.38608 0.1631 0.09671 0.0
C888 C 0.32447 0.18219 0.15295 0.0
H889 H 0.40442 0.21173 0.32735 0.0
H890 H 0.43859 0.20179 0.29648 0.0
H891 H 0.45118 0.16668 0.16701 0.0
H892 H 0.42864 0.15521 0.09939 0.0
H893 H 0.34653 0.15433 0.04522 0.0
H894 H 0.3127 0.16501 0.07568 0.0
H895 H 0.29909 0.19827 0.2064 0.0
H896 H 0.32134 0.20909 0.27433 0.0
H897 H 0.38545 0.26066 0.11957 0.0
H898 H 0.45219 0.26018 0.1565 0.0
H899 H 0.29892 0.10467 0.21168 0.0
H900 H 0.36493 0.10562 0.25519 0.0
C901 C 0.87861 0.22275 0.13115 0.0
C902 C 0.87976 0.24563 0.12622 0.0
C903 C 0.87289 0.25167 0.16064 0.0
C904 C 0.86803 0.23222 0.18443 0.0
N905 N 0.87161 0.2142 0.16749 0.0
Co906 Co 0.8664 0.18243 0.19115 0.0
N907 N 0.85439 0.19045 0.24072 0.0
C908 C 0.85237 0.21103 0.249 0.0
C909 C 0.84416 0.21163 0.28572 0.0
C910 C 0.84071 0.19017 0.30201 0.0
C911 C 0.84686 0.17753 0.27399 0.0
N912 N 0.86122 0.15067 0.21479 0.0
C913 C 0.85276 0.1414 0.25034 0.0
C914 C 0.85148 0.11842 0.25491 0.0
C915 C 0.85976 0.1131 0.22121 0.0
C916 C 0.86546 0.13297 0.19805 0.0
N917 N 0.87834 0.17441 0.14149 0.0
C918 C 0.88103 0.15418 0.13343 0.0
C919 C 0.88915 0.15365 0.09656 0.0
C920 C 0.89156 0.17468 0.07986 0.0
C921 C 0.88478 0.18688 0.10771 0.0
N922 N 0.90043 0.19783 0.21123 0.0
C923 C 0.94899 0.22015 0.23836 0.0
C924 C 0.9393 0.19719 0.22122 0.0
C925 C 0.91527 0.18651 0.20792 0.0
C926 C 0.93377 0.23155 0.24209 0.0
C927 C 0.90982 0.22016 0.22867 0.0
N928 N 0.83245 0.16707 0.17116 0.0
C929 C 0.79878 0.13306 0.14156 0.0
C930 C 0.78369 0.1447 0.14467 0.0
C931 C 0.79376 0.16797 0.16091 0.0
C932 C 0.81783 0.17864 0.17396 0.0
C933 C 0.82285 0.14451 0.15455 0.0
H934 H 0.82423 0.19629 0.18625 0.0
H935 H 0.83332 0.13466 0.15103 0.0
H936 H 0.9092 0.16913 0.19488 0.0
H937 H 0.8993 0.22984 0.23281 0.0
C938 C 0.85894 0.22981 0.22209 0.0
C939 C 0.88342 0.20953 0.10004 0.0
C940 C 0.846 0.1537 0.2808 0.0
C941 C 0.8747 0.13549 0.16043 0.0
H942 H 0.88467 0.2566 0.1002 0.0
H943 H 0.87114 0.26805 0.16728 0.0
H944 H 0.84136 0.2261 0.29924 0.0
H945 H 0.83466 0.18475 0.33144 0.0
H946 H 0.84526 0.10674 0.28007 0.0
H947 H 0.86142 0.0967 0.21439 0.0
H948 H 0.89237 0.1394 0.08314 0.0
H949 H 0.89717 0.18015 0.05026 0.0
H950 H 0.95034 0.18761 0.21733 0.0
H951 H 0.94019 0.24916 0.25575 0.0
H952 H 0.79206 0.11494 0.12974 0.0
H953 H 0.78326 0.17817 0.16336 0.0
H954 H 0.01246 0.5331 0.37231 0.0
H955 H 0.02244 0.4697 0.1726 0.0
H956 H 0.01309 0.46341 0.36749 0.0
H957 H 0.01225 0.5346 0.17667 0.0
H958 H 0.02093 0.468 0.24375 0.0
H959 H 0.014 0.53491 0.30113 0.0
C960 C 0.01295 0.51818 0.35621 0.0
C961 C 0.01281 0.49815 0.37598 0.0
C962 C 0.01901 0.48264 0.2292 0.0
C963 C 0.01468 0.50007 0.2941 0.0
C964 C 0.01987 0.4836 0.18853 0.0
C965 C 0.01733 0.50224 0.16856 0.0
C966 C 0.01577 0.50059 0.25045 0.0
C967 C 0.01425 0.51989 0.19081 0.0
C968 C 0.01384 0.51921 0.31553 0.0
C969 C 0.0134 0.4793 0.35354 0.0
N970 N 0.01357 0.51864 0.23035 0.0
N971 N 0.01439 0.48075 0.31402 0.0
H972 H 0.59145 0.56139 0.35465 0.0
H973 H 0.52184 0.49293 0.16102 0.0
H974 H 0.5246 0.49548 0.35667 0.0
H975 H 0.58382 0.56304 0.16022 0.0
H976 H 0.52308 0.49277 0.23222 0.0
H977 H 0.58984 0.56154 0.28356 0.0
C978 C 0.57641 0.54695 0.34006 0.0
C979 C 0.55804 0.52849 0.3617 0.0
C980 C 0.53643 0.50822 0.21657 0.0
C981 C 0.5561 0.52836 0.27992 0.0
C982 C 0.53568 0.50832 0.1759 0.0
C983 C 0.55281 0.52798 0.15458 0.0
C984 C 0.55451 0.52793 0.23638 0.0
C985 C 0.57036 0.54745 0.17544 0.0
C986 C 0.57547 0.54702 0.29943 0.0
C987 C 0.5391 0.51009 0.34117 0.0
N988 N 0.57081 0.54689 0.21496 0.0
N989 N 0.53862 0.51048 0.30162 0.0
H990 H 0.53719 0.06195 0.14599 0.0
H991 H 0.47511 1.00126 0.33899 0.0
H992 H 0.46535 1.00229 0.14799 0.0
H993 H 0.52524 0.07756 0.33479 0.0
H994 H 0.47015 1.00172 0.26951 0.0
H995 H 0.533 0.06891 0.21495 0.0
C996 C 0.52041 0.05058 0.16104 0.0
C997 C 0.50173 0.03129 0.14197 0.0
C998 C 0.48189 0.01847 0.28391 0.0
C999 C 0.49689 0.03884 0.22026 0.0
C1000 C 0.48468 0.01831 0.32381 0.0
C1001 C 0.50092 0.03937 0.34309 0.0
C1002 C 0.49585 0.03964 0.26286 0.0
C1003 C 0.5131 0.06069 0.3212 0.0
C1004 C 0.51797 0.05457 0.20018 0.0
C1005 C 0.48024 0.01708 0.16222 0.0
N1006 N 0.51069 0.06017 0.28211 0.0
N1007 N 0.47856 0.02082 0.20063 0.0
H1008 H 0.01812 0.54781 0.67262 0.0
H1009 H 0.01641 0.47831 0.87141 0.0
H1010 H 0.01112 0.47501 0.67632 0.0
H1011 H 0.01256 0.54652 0.86832 0.0
H1012 H 0.0164 0.47759 0.80023 0.0
H1013 H 0.01794 0.5486 0.74386 0.0
C1014 C 0.01643 0.53194 0.68847 0.0
C1015 C 0.01445 0.51125 0.66838 0.0
C1016 C 0.01561 0.49277 0.815 0.0
C1017 C 0.01458 0.51208 0.75033 0.0
C1018 C 0.01565 0.49319 0.85569 0.0
C1019 C 0.01463 0.51257 0.87597 0.0
C1020 C 0.01465 0.51196 0.79401 0.0
C1021 C 0.01359 0.53133 0.85397 0.0
C1022 C 0.01639 0.5324 0.72919 0.0
C1023 C 0.01262 0.49132 0.69054 0.0
N1024 N 0.01369 0.5306 0.81439 0.0
N1025 N 0.01277 0.49224 0.73009 0.0
H1026 H 0.51214 0.52281 0.66081 0.0
H1027 H 0.55036 0.48357 0.85468 0.0
H1028 H 0.57877 0.51531 0.66118 0.0
H1029 H 0.53968 0.5483 0.85594 0.0
H1030 H 0.55108 0.48476 0.78335 0.0
H1031 H 0.51198 0.52235 0.73217 0.0
C1032 C 0.52676 0.5211 0.67582 0.0
C1033 C 0.54568 0.51942 0.65472 0.0
C1034 C 0.54854 0.49865 0.79935 0.0
C1035 C 0.5449 0.51772 0.7365 0.0
C1036 C 0.5482 0.49805 0.84002 0.0
C1037 C 0.54533 0.51609 0.86158 0.0
C1038 C 0.54497 0.51681 0.77979 0.0
C1039 C 0.54198 0.53405 0.84071 0.0
C1040 C 0.52658 0.52077 0.71651 0.0
C1041 C 0.56381 0.51665 0.67604 0.0
N1042 N 0.54163 0.53382 0.80113 0.0
N1043 N 0.56283 0.51561 0.71559 0.0
H1044 H 0.58902 0.02828 0.8752 0.0
H1045 H 0.5127 0.97424 0.68416 0.0
H1046 H 0.51294 0.97815 0.87356 0.0
H1047 H 0.58946 0.02319 0.68256 0.0
H1048 H 0.51448 0.97032 0.75366 0.0
H1049 H 0.59153 0.02202 0.80533 0.0
C1050 C 0.573 0.01567 0.86 0.0
C1051 C 0.5507 0.00388 0.87944 0.0
C1052 C 0.53105 0.98171 0.73815 0.0
C1053 C 0.55324 0.9967 0.80036 0.0
C1054 C 0.53011 0.98381 0.69822 0.0
C1055 C 0.55094 0.99926 0.6773 0.0
C1056 C 0.55288 0.99541 0.75762 0.0
C1057 C 0.57282 0.0115 0.69756 0.0
C1058 C 0.57437 0.0121 0.82033 0.0
C1059 C 0.53038 0.98764 0.85913 0.0
N1060 N 0.57315 0.00957 0.73672 0.0
N1061 N 0.53206 0.98471 0.82051 0.0
H1062 H 0.67091 0.82902 0.70319 0.0
H1063 H 0.74357 0.85949 0.50725 0.0
H1064 H 0.74251 0.8891 0.7015 0.0
H1065 H 0.67353 0.86002 0.50881 0.0
H1066 H 0.74342 0.85974 0.57861 0.0
H1067 H 0.67099 0.82933 0.63183 0.0
C1068 C 0.68663 0.8423 0.68788 0.0
C1069 C 0.7066 0.85929 0.7086 0.0
C1070 C 0.72809 0.85973 0.56321 0.0
C1071 C 0.7072 0.85892 0.62684 0.0
C1072 C 0.72815 0.85965 0.52254 0.0
C1073 C 0.70865 0.86002 0.50179 0.0
C1074 C 0.70795 0.85919 0.58355 0.0
C1075 C 0.68894 0.8597 0.52343 0.0
C1076 C 0.68666 0.84239 0.6472 0.0
C1077 C 0.72671 0.87567 0.68692 0.0
N1078 N 0.68896 0.85903 0.56298 0.0
N1079 N 0.72662 0.87491 0.64737 0.0
H1080 H 0.15474 0.8155 0.698 0.0
H1081 H 0.22528 0.88065 0.50147 0.0
H1082 H 0.22458 0.87792 0.69694 0.0
H1083 H 0.15667 0.81668 0.50276 0.0
H1084 H 0.2253 0.88026 0.5727 0.0
H1085 H 0.15492 0.81579 0.62679 0.0
C1086 C 0.17011 0.82929 0.6827 0.0
C1087 C 0.18962 0.84677 0.7035 0.0
C1088 C 0.21023 0.86626 0.55752 0.0
C1089 C 0.19004 0.8473 0.62161 0.0
C1090 C 0.21025 0.86647 0.51681 0.0
C1091 C 0.19101 0.84861 0.49608 0.0
C1092 C 0.19074 0.84807 0.57797 0.0
C1093 C 0.17189 0.83078 0.51753 0.0
C1094 C 0.17023 0.82947 0.64201 0.0
C1095 C 0.2091 0.8642 0.68211 0.0
N1096 N 0.17224 0.83096 0.55709 0.0
N1097 N 0.20881 0.86404 0.64254 0.0
H1098 H 0.16628 0.33976 0.51128 0.0
H1099 H 0.23811 0.34002 0.7062 0.0
H1100 H 0.23848 0.34458 0.51115 0.0
H1101 H 0.16955 0.34354 0.70675 0.0
H1102 H 0.23797 0.34024 0.63502 0.0
H1103 H 0.1664 0.33975 0.58251 0.0
C1104 C 0.1822 0.34092 0.5263 0.0
C1105 C 0.20246 0.34234 0.50517 0.0
C1106 C 0.2229 0.34093 0.65059 0.0
C1107 C 0.20269 0.34204 0.58704 0.0
C1108 C 0.22299 0.34079 0.69127 0.0
C1109 C 0.20377 0.34166 0.71252 0.0
C1110 C 0.20338 0.34188 0.63065 0.0
C1111 C 0.18466 0.34268 0.69158 0.0
C1112 C 0.18227 0.34086 0.567 0.0
C1113 C 0.2225 0.34352 0.52623 0.0
N1114 N 0.18491 0.34271 0.65199 0.0
N1115 N 0.2221 0.34332 0.56579 0.0
H1116 H 0.70271 0.90194 0.20373 0.0
H1117 H 0.71113 0.83661 1.0054 0.0
H1118 H 0.71207 0.83656 0.20113 0.0
H1119 H 0.71279 0.90733 1.00915 0.0
H1120 H 0.70988 0.83532 0.07662 0.0
H1121 H 0.70444 0.90328 0.1326 0.0
C1122 C 0.70514 0.88786 0.18811 0.0
C1123 C 0.70737 0.86918 0.20846 0.0
C1124 C 0.71052 0.85114 0.06196 0.0
C1125 C 0.70918 0.87042 0.12665 0.0
C1126 C 0.71126 0.85188 0.02128 0.0
C1127 C 0.71191 0.87204 1.00124 0.0
C1128 C 0.71033 0.87069 0.08306 0.0
C1129 C 0.71209 0.89135 0.02336 0.0
C1130 C 0.70614 0.88861 0.14747 0.0
C1131 C 0.71029 0.85129 0.18665 0.0
N1132 N 0.71119 0.89015 0.06287 0.0
N1133 N 0.71109 0.85233 0.1471 0.0
H1134 H 0.14217 0.80635 1.00235 0.0
H1135 H 0.21229 0.87161 0.19767 0.0
H1136 H 0.21106 0.86998 1.0021 0.0
H1137 H 0.14753 0.80371 0.19736 0.0
H1138 H 0.21148 0.8722 0.12648 0.0
H1139 H 0.14292 0.8059 0.07353 0.0
C1140 C 0.15748 0.82022 0.01733 0.0
C1141 C 0.17666 0.83813 0.99613 0.0
C1142 C 0.19739 0.85716 0.14188 0.0
C1143 C 0.17761 0.83792 0.07806 0.0
C1144 C 0.19787 0.85684 0.18257 0.0
C1145 C 0.17988 0.83766 0.20361 0.0
C1146 C 0.17872 0.83817 0.1217 0.0
C1147 C 0.16165 0.81896 0.18241 0.0
C1148 C 0.15792 0.81998 0.05802 0.0
C1149 C 0.19593 0.8558 0.0172 0.0
N1150 N 0.1615 0.81971 0.14285 0.0
N1151 N 0.19591 0.85526 0.05678 0.0
H1152 H 0.17796 0.34161 0.01046 0.0
H1153 H 0.25168 0.34926 0.20647 0.0
H1154 H 0.24645 0.33797 0.01205 0.0
H1155 H 0.1782 0.34096 0.20624 0.0
H1156 H 0.25103 0.34737 0.13535 0.0
H1157 H 0.17836 0.3433 0.08166 0.0
C1158 C 0.19308 0.34115 0.02585 0.0
C1159 C 0.21225 0.33977 1.00519 0.0
C1160 C 0.235 0.34594 0.15074 0.0
C1161 C 0.21299 0.34186 0.08702 0.0
C1162 C 0.23539 0.34702 0.19139 0.0
C1163 C 0.21491 0.3451 0.21242 0.0
C1164 C 0.21404 0.34315 0.13059 0.0
C1165 C 0.19437 0.34247 0.19125 0.0
C1166 C 0.19334 0.34214 0.06653 0.0
C1167 C 0.23139 0.33921 0.02672 0.0
N1168 N 0.19446 0.34159 0.1517 0.0
N1169 N 0.23132 0.34036 0.06624 0.0
H1170 H 0.41693 0.20185 0.05512 0.0
H1171 H 0.39269 0.12674 0.85811 0.0
H1172 H 0.37408 0.12444 0.04833 0.0
H1173 H 0.42153 0.20474 0.86452 0.0
H1174 H 0.39406 0.12516 0.92874 0.0
H1175 H 0.42723 0.20266 0.98626 0.0
C1176 C 0.41003 0.18501 0.03898 0.0
C1177 C 0.39455 0.16309 0.05668 0.0
C1178 C 0.4004 0.14262 0.91455 0.0
C1179 C 0.40591 0.16375 0.97853 0.0
C1180 C 0.39955 0.14355 0.87428 0.0
C1181 C 0.40664 0.16588 0.85531 0.0
C1182 C 0.40847 0.16418 0.93595 0.0
C1183 C 0.41596 0.18711 0.87771 0.0
C1184 C 0.41582 0.18543 0.99986 0.0
C1185 C 0.38597 0.14165 0.03516 0.0
N1186 N 0.41634 0.1857 0.91685 0.0
N1187 N 0.39159 0.14252 0.99691 0.0
H1188 H 0.83662 0.20725 0.86815 0.0
H1189 H 0.92209 0.23298 0.05151 0.0
H1190 H 0.91506 0.24126 0.86061 0.0
H1191 H 0.84401 0.20292 0.05781 0.0
H1192 H 0.92048 0.24137 0.98237 0.0
H1193 H 0.83939 0.21132 0.93815 0.0
C1194 C 0.85447 0.21606 0.8811 0.0
C1195 C 0.87565 0.22364 0.85841 0.0
C1196 C 0.9037 0.23324 0.99893 0.0
C1197 C 0.87893 0.22774 0.93889 0.0
C1198 C 0.90468 0.22847 0.03818 0.0
C1199 C 0.88312 0.21707 0.05963 0.0
C1200 C 0.88099 0.22637 0.98135 0.0
C1201 C 0.86094 0.21159 0.04173 0.0
C1202 C 0.85603 0.2182 0.92121 0.0
C1203 C 0.89824 0.23462 0.87703 0.0
N1204 N 0.8604 0.21606 1.00341 0.0
N1205 N 0.89929 0.23605 0.91625 0.0
H1206 H 0.79473 0.67674 0.02638 0.0
H1207 H 0.8235 0.61611 0.8531 0.0
H1208 H 0.79015 0.60481 0.03579 0.0
H1209 H 0.79282 0.66628 0.83582 0.0
H1210 H 0.80742 0.60902 0.91935 0.0
H1211 H 0.78853 0.6709 0.95682 0.0
C1212 C 0.79159 0.65939 0.01409 0.0
C1213 C 0.79373 0.64151 0.03677 0.0
C1214 C 0.80364 0.62112 0.90084 0.0
C1215 C 0.78739 0.63506 0.95708 0.0
C1216 C 0.81292 0.62522 0.86322 0.0
C1217 C 0.80954 0.64188 0.83953 0.0
C1218 C 0.79163 0.63441 0.91505 0.0
C1219 C 0.79575 0.65332 0.85356 0.0
C1220 C 0.78818 0.65612 0.97424 0.0
C1221 C 0.78952 0.61941 0.01911 0.0
N1222 N 0.78774 0.64981 0.89086 0.0
N1223 N 0.78726 0.61706 0.98011 0.0
H1224 H 0.33392 0.16215 0.31643 0.0
H1225 H 0.36435 0.23249 0.51807 0.0
H1226 H 0.37578 0.23951 0.32689 0.0
H1227 H 0.33272 0.15456 0.50655 0.0
H1228 H 0.36048 0.23585 0.44822 0.0
H1229 H 0.32484 0.15963 0.38596 0.0
C1230 C 0.34077 0.17862 0.33351 0.0
C1231 C 0.35571 0.20101 0.31661 0.0
C1232 C 0.35407 0.21801 0.46111 0.0
C1233 C 0.34585 0.1984 0.3956 0.0
C1234 C 0.35637 0.21608 0.50093 0.0
C1235 C 0.34924 0.19323 0.51812 0.0
C1236 C 0.3446 0.19695 0.43834 0.0
C1237 C 0.33844 0.17255 0.49465 0.0
C1238 C 0.3357 0.17723 0.37304 0.0
C1239 C 0.36428 0.22195 0.33937 0.0
N1240 N 0.33674 0.17494 0.4559 0.0
N1241 N 0.35947 0.22012 0.37799 0.0
H1242 H 0.80347 0.13647 0.32191 0.0
H1243 H 0.866 0.1269 0.51872 0.0
H1244 H 0.87799 0.14819 0.32904 0.0
H1245 H 0.81069 0.1523 0.51131 0.0
H1246 H 0.86288 0.11997 0.44882 0.0
H1247 H 0.79838 0.12689 0.39145 0.0
C1248 C 0.81853 0.13646 0.33811 0.0
C1249 C 0.84127 0.14352 0.32044 0.0
C1250 C 0.85116 0.12663 0.46287 0.0
C1251 C 0.83561 0.13241 0.3989 0.0
C1252 C 0.85305 0.13082 0.50267 0.0
C1253 C 0.839 0.14076 0.52107 0.0
C1254 C 0.83483 0.13201 0.44148 0.0
C1255 C 0.82189 0.14457 0.49876 0.0
C1256 C 0.81567 0.13106 0.37753 0.0
C1257 C 0.86028 0.14307 0.34209 0.0
N1258 N 0.82047 0.1404 0.4601 0.0
N1259 N 0.85712 0.13787 0.38047 0.0
H1260 H 0.94343 0.71327 0.52897 0.0
H1261 H 0.90542 0.75374 0.33216 0.0
H1262 H 0.89408 0.74593 0.52034 0.0
H1263 H 0.92925 0.69773 0.34182 0.0
H1264 H 0.91638 0.76458 0.40012 0.0
H1265 H 0.95281 0.72114 0.46001 0.0
C1266 C 0.93484 0.72242 0.51281 0.0
C1267 C 0.91735 0.72825 0.5303 0.0
C1268 C 0.91991 0.75043 0.38697 0.0
C1269 C 0.92842 0.73771 0.45174 0.0
C1270 C 0.91383 0.74438 0.34827 0.0
C1271 C 0.91627 0.72471 0.3319 0.0
C1272 C 0.92851 0.7367 0.40905 0.0
C1273 C 0.92697 0.71289 0.3538 0.0
C1274 C 0.94036 0.72706 0.47356 0.0
C1275 C 0.90753 0.74091 0.5082 0.0
N1276 N 0.9324 0.71885 0.39153 0.0
N1277 N 0.91288 0.74483 0.46988 0.0
H1278 H 0.09914 0.48162 0.93813 0.0
H1279 H 0.1202 0.36211 0.94064 0.0
H1280 H 0.05377 0.41713 1.0028 0.0
H1281 H 0.16133 0.42447 0.86854 0.0
H1282 H 0.09577 0.38188 0.96389 0.0
H1283 H 0.12245 0.46111 0.91318 0.0
C1284 C 0.09416 0.46317 0.94729 0.0
C1285 C 0.07455 0.45114 0.97285 0.0
C1286 C 0.11009 0.39121 0.9429 0.0
C1287 C 0.10108 0.42739 0.94396 0.0
C1288 C 0.12398 0.37987 0.92938 0.0
C1289 C 0.14288 0.39159 0.90245 0.0
C1290 C 0.11513 0.41454 0.92958 0.0
C1291 C 0.14719 0.41483 0.88962 0.0
C1292 C 0.10739 0.4514 0.93279 0.0
C1293 C 0.06864 0.42705 0.983 0.0
N1294 N 0.13345 0.42552 0.90332 0.0
N1295 N 0.08191 0.416 0.96865 0.0
H1296 H 0.62494 0.74519 0.86166 0.0
H1297 H 0.63168 0.64454 1.00254 0.0
H1298 H 0.68288 0.75987 0.94303 0.0
H1299 H 0.57178 0.63032 0.92552 0.0
H1300 H 0.65089 0.68669 0.9804 0.0
H1301 H 0.60518 0.70314 0.88446 0.0
C1302 C 0.63349 0.73968 0.88444 0.0
C1303 C 0.65574 0.75626 0.90024 0.0
C1304 C 0.63351 0.67437 0.96837 0.0
C1305 C 0.63322 0.70784 0.92631 0.0
C1306 C 0.62257 0.65021 0.98087 0.0
C1307 C 0.60001 0.6337 0.96595 0.0
C1308 C 0.62193 0.68225 0.94055 0.0
C1309 C 0.58899 0.64236 0.9383 0.0
C1310 C 0.62223 0.71557 0.89732 0.0
C1311 C 0.666 0.74777 0.92938 0.0
N1312 N 0.60006 0.66594 0.92647 0.0
N1313 N 0.65471 0.72426 0.94138 0.0
H1314 H 0.29233 0.87081 0.93313 0.0
H1315 H 0.42244 0.98432 0.89984 0.0
H1316 H 0.30424 0.92843 0.85218 0.0
H1317 H 0.4058 0.93523 0.99694 0.0
H1318 H 0.38016 0.96275 0.87911 0.0
H1319 H 0.33477 0.89243 0.9533 0.0
C1320 C 0.30389 0.88793 0.91936 0.0
C1321 C 0.29459 0.89775 0.89082 0.0
C1322 C 0.38579 0.95672 0.90496 0.0
C1323 C 0.34341 0.92278 0.91405 0.0
C1324 C 0.40998 0.96914 0.91704 0.0
C1325 C 0.41799 0.96174 0.95038 0.0
C1326 C 0.36933 0.93654 0.92608 0.0
C1327 C 0.40082 0.9415 0.97074 0.0
C1328 C 0.32812 0.90037 0.93112 0.0
C1329 C 0.31048 0.92023 0.87453 0.0
N1330 N 0.37744 0.92966 0.95826 0.0
N1331 N 0.33406 0.93191 0.88624 0.0
H1332 H 0.48198 0.07871 0.51014 0.0
H1333 H 0.4202 0.11479 0.68896 0.0
H1334 H 0.48033 0.05296 0.62647 0.0
H1335 H 0.42316 0.14148 0.57294 0.0
H1336 H 0.44121 0.09106 0.66653 0.0
H1337 H 0.45942 0.10097 0.53217 0.0
C1338 C 0.47668 0.07772 0.54032 0.0
C1339 C 0.4828 0.06404 0.56661 0.0
C1340 C 0.43728 0.10208 0.64591 0.0
C1341 C 0.45721 0.0894 0.59217 0.0
C1342 C 0.42532 0.11555 0.65873 0.0
C1343 C 0.42016 0.13004 0.63267 0.0
C1344 C 0.44407 0.10313 0.60672 0.0
C1345 C 0.427 0.13053 0.5938 0.0
C1346 C 0.46387 0.0904 0.55293 0.0
C1347 C 0.47575 0.06329 0.60543 0.0
N1348 N 0.43865 0.11729 0.58197 0.0
N1349 N 0.46333 0.07583 0.61709 0.0
H1350 H 0.89062 0.2846 0.68473 0.0
H1351 H 0.97626 0.37804 0.52375 0.0
H1352 H 0.91379 0.26181 0.58081 0.0
H1353 H 0.94072 0.39827 0.61543 0.0
H1354 H 0.95589 0.33587 0.54628 0.0
H1355 H 0.91086 0.32676 0.66179 0.0
C1356 C 0.89999 0.28855 0.65704 0.0
C1357 C 0.90063 0.26979 0.63466 0.0
C1358 C 0.95252 0.34954 0.56142 0.0
C1359 C 0.92401 0.31796 0.60822 0.0
C1360 C 0.96426 0.37367 0.5487 0.0
C1361 C 0.96019 0.39183 0.5676 0.0
C1362 C 0.93674 0.34344 0.5936 0.0
C1363 C 0.94421 0.38492 0.59958 0.0
C1364 C 0.91154 0.31258 0.64393 0.0
C1365 C 0.91302 0.27582 0.59899 0.0
N1366 N 0.93319 0.36138 0.6116 0.0
N1367 N 0.9243 0.29936 0.58695 0.0
H1368 H 0.79353 0.66937 0.56154 0.0
H1369 H 0.66172 0.55797 0.5958 0.0
H1370 H 0.77409 0.62269 0.66157 0.0
H1371 H 0.67541 0.61226 0.50773 0.0
H1372 H 0.70373 0.58013 0.61723 0.0
H1373 H 0.75127 0.6478 0.53865 0.0
C1374 C 0.78033 0.65455 0.57856 0.0
C1375 C 0.78727 0.6476 0.61322 0.0
C1376 C 0.69761 0.58725 0.59321 0.0
C1377 C 0.73908 0.62284 0.58741 0.0
C1378 C 0.6736 0.57448 0.58073 0.0
C1379 C 0.6649 0.58314 0.54975 0.0
C1380 C 0.71334 0.6089 0.57452 0.0
C1381 C 0.68119 0.60494 0.53191 0.0
C1382 C 0.75626 0.64228 0.56559 0.0
C1383 C 0.7695 0.62842 0.63446 0.0
N1384 N 0.70459 0.61699 0.54442 0.0
N1385 N 0.74633 0.61666 0.62115 0.0
H1386 H 0.93672 0.6552 0.18916 0.0
H1387 H 0.9272 0.54988 0.04255 0.0
H1388 H 0.87483 0.61546 0.11672 0.0
H1389 H 0.99115 0.59208 0.10989 0.0
H1390 H 0.90737 0.57306 0.07078 0.0
H1391 H 0.95688 0.63176 0.16172 0.0
C1392 C 0.92741 0.6414 0.16764 0.0
C1393 C 0.90411 0.63692 0.15537 0.0
C1394 C 0.92576 0.57729 0.07935 0.0
C1395 C 0.92683 0.61029 0.12372 0.0
C1396 C 0.93705 0.56397 0.06336 0.0
C1397 C 0.96091 0.56905 0.07376 0.0
C1398 C 0.93835 0.59581 0.10613 0.0
C1399 C 0.97288 0.58775 0.10056 0.0
C1400 C 0.93885 0.62809 0.15192 0.0
C1401 C 0.89275 0.61915 0.12712 0.0
N1402 N 0.96147 0.60041 0.11585 0.0
N1403 N 0.90419 0.60644 0.11229 0.0
H1404 H 0.46227 0.30151 0.1655 0.0
H1405 H 0.46649 0.40034 0.011 0.0
H1406 H 0.41185 0.28489 0.07075 0.0
H1407 H 0.52442 0.41319 0.09143 0.0
H1408 H 0.4455 0.35843 0.03401 0.0
H1409 H 0.48463 0.34266 0.14012 0.0
C1410 C 0.45594 0.30635 0.1392 0.0
C1411 C 0.43498 0.28945 0.12039 0.0
C1412 C 0.46285 0.37036 0.04654 0.0
C1413 C 0.46048 0.33702 0.09146 0.0
C1414 C 0.47482 0.39436 0.03352 0.0
C1415 C 0.49727 0.41042 0.04933 0.0
C1416 C 0.47322 0.36226 0.07593 0.0
C1417 C 0.50727 0.40146 0.07812 0.0
C1418 C 0.46871 0.32998 0.12484 0.0
C1419 C 0.42757 0.29722 0.08679 0.0
N1420 N 0.49513 0.37808 0.09064 0.0
N1421 N 0.44022 0.32036 0.07355 0.0
H1422 H 0.74382 0.14882 0.17505 0.0
H1423 H 0.64635 0.0481 0.03845 0.0
H1424 H 0.76382 0.11279 0.08382 0.0
H1425 H 0.63064 0.0999 0.10235 0.0
H1426 H 0.68873 0.069 0.05944 0.0
H1427 H 0.70177 0.12894 0.15294 0.0
C1428 C 0.73956 0.13694 0.1502 0.0
C1429 C 0.75775 0.13266 0.13138 0.0
C1430 C 0.67603 0.07583 0.06882 0.0
C1431 C 0.7091 0.10923 0.10648 0.0
C1432 C 0.65179 0.06382 0.05704 0.0
C1433 C 0.63485 0.07221 0.06868 0.0
C1434 C 0.68346 0.09627 0.09292 0.0
C1435 C 0.64307 0.09288 0.09242 0.0
C1436 C 0.7154 0.12544 0.13775 0.0
C1437 C 0.75062 0.11647 0.09987 0.0
N1438 N 0.66672 0.10409 0.10394 0.0
N1439 N 0.72694 0.10533 0.08859 0.0
H1440 H 0.56087 0.9737 0.39516 0.0
H1441 H 0.67113 0.94157 0.44065 0.0
H1442 H 0.59601 0.98606 0.50604 0.0
H1443 H 0.62247 0.91047 0.34472 0.0
H1444 H 0.64669 0.962 0.46148 0.0
H1445 H 0.58577 0.95384 0.37285 0.0
C1446 C 0.57377 0.97206 0.41477 0.0
C1447 C 0.57636 0.98126 0.45249 0.0
C1448 C 0.64137 0.95073 0.43584 0.0
C1449 C 0.60511 0.95913 0.4272 0.0
C1450 C 0.65543 0.93923 0.42376 0.0
C1451 C 0.64882 0.92429 0.3909 0.0
C1452 C 0.62067 0.9475 0.4147 0.0
C1453 C 0.62809 0.92165 0.37041 0.0
C1454 C 0.58797 0.96082 0.4021 0.0
C1455 C 0.59349 0.97906 0.47679 0.0
N1456 N 0.61479 0.93319 0.38258 0.0
N1457 N 0.60729 0.96829 0.4637 0.0
H1458 H 0.0861 0.62823 0.52641 0.0
H1459 H 0.12716 0.71547 0.34282 0.0
H1460 H 0.05285 0.60409 0.41506 0.0
H1461 H 0.12431 0.74272 0.45682 0.0
H1462 H 0.10631 0.6738 0.36824 0.0
H1463 H 0.10687 0.66992 0.50098 0.0
C1464 C 0.08328 0.63173 0.49659 0.0
C1465 C 0.0677 0.61278 0.4728 0.0
C1466 C 0.11024 0.68893 0.38762 0.0
C1467 C 0.09162 0.66014 0.44343 0.0
C1468 C 0.12218 0.71264 0.37319 0.0
C1469 C 0.12732 0.73249 0.39776 0.0
C1470 C 0.104 0.68508 0.42709 0.0
C1471 C 0.12048 0.72786 0.43691 0.0
C1472 C 0.09501 0.65547 0.48218 0.0
C1473 C 0.0646 0.61826 0.43438 0.0
N1474 N 0.10938 0.70466 0.45046 0.0
N1475 N 0.07661 0.64138 0.42076 0.0
H1476 H 0.3337 0.37963 0.36939 0.0
H1477 H 0.42786 0.48665 0.50272 0.0
H1478 H 0.31392 0.42736 0.43702 0.0
H1479 H 0.44903 0.44439 0.4245 0.0
H1480 H 0.38591 0.46446 0.48058 0.0
H1481 H 0.37569 0.40205 0.39138 0.0
C1482 C 0.33812 0.39475 0.38898 0.0
C1483 C 0.32012 0.40157 0.40125 0.0
C1484 C 0.39975 0.46004 0.46828 0.0
C1485 C 0.36841 0.42751 0.42651 0.0
C1486 C 0.42381 0.47283 0.48077 0.0
C1487 C 0.44223 0.46746 0.46564 0.0
C1488 C 0.39387 0.44163 0.44042 0.0
C1489 C 0.43554 0.44898 0.43765 0.0
C1490 C 0.36218 0.40765 0.40138 0.0
C1491 C 0.32715 0.42158 0.42631 0.0
N1492 N 0.41201 0.43678 0.42605 0.0
N1493 N 0.35064 0.43375 0.43814 0.0
H1494 H 0.84783 0.75119 0.27996 0.0
H1495 H 0.73204 0.77939 0.27673 0.0
H1496 H 0.78406 0.71233 0.21088 0.0
H1497 H 0.79581 0.82098 0.34484 0.0
H1498 H 0.75104 0.75449 0.25334 0.0
H1499 H 0.82949 0.77692 0.30503 0.0
C1500 C 0.82988 0.74805 0.27041 0.0
C1501 C 0.81715 0.7295 0.244 0.0
C1502 C 0.76094 0.76902 0.27343 0.0
C1503 C 0.79626 0.75875 0.27183 0.0
C1504 C 0.75001 0.78319 0.28704 0.0
C1505 C 0.76223 0.8022 0.31314 0.0
C1506 C 0.78438 0.77379 0.28587 0.0
C1507 C 0.78576 0.80659 0.32463 0.0
C1508 C 0.81946 0.76269 0.28454 0.0
C1509 C 0.79419 0.72625 0.23177 0.0
N1510 N 0.79605 0.79244 0.31103 0.0
N1511 N 0.78445 0.74068 0.24586 0.0
H1512 H 0.28513 0.08109 0.2714 0.0
H1513 H 0.27658 0.94722 0.28036 0.0
H1514 H 0.34249 0.06375 0.23185 0.0
H1515 H 0.22448 0.96692 0.33568 0.0
H1516 H 0.30038 0.98946 0.26097 0.0
H1517 H 0.26196 0.03909 0.29302 0.0
C1518 C 0.29285 0.06845 0.26712 0.0
C1519 C 0.31584 0.07606 0.24965 0.0
C1520 C 0.28377 0.98456 0.27744 0.0
C1521 C 0.28934 0.02777 0.27459 0.0
C1522 C 0.27018 0.96039 0.2888 0.0
C1523 C 0.24837 0.95326 0.30987 0.0
C1524 C 0.27554 1.00192 0.28692 0.0
C1525 C 0.24092 0.97129 0.31904 0.0
C1526 C 0.27964 0.04447 0.27971 0.0
C1527 C 0.32499 0.05885 0.24548 0.0
N1528 N 0.25441 0.99468 0.30747 0.0
N1529 N 0.3117 0.03556 0.25766 0.0
H1530 H 0.08885 0.25462 0.34516 0.0
H1531 H 0.98189 0.26807 0.23124 0.0
H1532 H 0.09826 0.31958 0.28442 0.0
H1533 H 0.97498 0.19987 0.27628 0.0
H1534 H 0.02389 0.28766 0.25376 0.0
H1535 H 0.04675 0.23464 0.32286 0.0
C1536 C 0.0822 0.26471 0.32703 0.0
C1537 C 0.09735 0.28896 0.31684 0.0
C1538 C 0.01322 0.2684 0.25872 0.0
C1539 C 0.04879 0.26611 0.29155 0.0
C1540 C 0.98913 0.25721 0.24606 0.0
C1541 C 0.97474 0.23224 0.25188 0.0
C1542 C 0.02314 0.25464 0.27765 0.0
C1543 C 0.98539 0.21909 0.27077 0.0
C1544 C 0.05805 0.25327 0.31445 0.0
C1545 C 0.08733 0.30106 0.29373 0.0
N1546 N 0.00887 0.23044 0.28306 0.0
N1547 N 0.06379 0.28956 0.28198 0.0
H1548 H 0.3592 0.23765 0.79454 0.0
H1549 H 0.24526 0.26647 0.76926 0.0
H1550 H 0.31427 0.2182 0.69293 0.0
H1551 H 0.3025 0.30496 0.85073 0.0
H1552 H 0.26858 0.24586 0.74438 0.0
H1553 H 0.33721 0.26007 0.81897 0.0
C1554 C 0.34476 0.23827 0.77739 0.0
C1555 C 0.33847 0.22622 0.74174 0.0
C1556 C 0.2761 0.25885 0.76764 0.0
C1557 C 0.31311 0.25133 0.76949 0.0
C1558 C 0.26272 0.27049 0.78204 0.0
C1559 C 0.27192 0.28736 0.81223 0.0
C1560 C 0.29877 0.26386 0.78381 0.0
C1561 C 0.29481 0.29215 0.8273 0.0
C1562 C 0.33225 0.251 0.79125 0.0
C1563 C 0.31957 0.2273 0.72058 0.0
N1564 N 0.3074 0.28033 0.81311 0.0
N1565 N 0.30745 0.23951 0.73487 0.0
H1566 H 0.81073 0.10983 0.801 0.0
H1567 H 0.78029 0.97097 0.7599 0.0
H1568 H 0.82518 0.08476 0.69176 0.0
H1569 H 0.74857 0.99273 0.85519 0.0
H1570 H 0.79995 0.01307 0.73741 0.0
H1571 H 0.79071 0.06763 0.82415 0.0
C1572 C 0.8096 0.09537 0.78193 0.0
C1573 C 0.81949 0.10068 0.74441 0.0
C1574 C 0.78868 0.00866 0.76323 0.0
C1575 C 0.79698 0.05247 0.77072 0.0
C1576 C 0.77756 0.98463 0.77626 0.0
C1577 C 0.76276 0.97823 0.80959 0.0
C1578 C 0.78525 0.02666 0.78383 0.0
C1579 C 0.75965 0.99674 0.82922 0.0
C1580 C 0.79821 0.07133 0.79508 0.0
C1581 C 0.81776 0.08136 0.72088 0.0
N1582 N 0.77088 0.02009 0.81618 0.0
N1583 N 0.80683 0.05816 0.73444 0.0
H1584 H 0.07559 0.81518 0.76133 0.0
H1585 H 0.94443 0.70155 0.78578 0.0
H1586 H 0.06117 0.75633 0.84101 0.0
H1587 H 0.96306 0.75146 0.69001 0.0
H1588 H 0.98629 0.723 0.80937 0.0
H1589 H 0.03375 0.79396 0.738 0.0
C1590 C 0.0636 0.79787 0.77415 0.0
C1591 C 0.07203 0.78759 0.8033 0.0
C1592 C 0.98133 0.72922 0.78306 0.0
C1593 C 0.02392 0.76306 0.77646 0.0
C1594 C 0.95748 0.71692 0.76954 0.0
C1595 C 0.9505 0.72443 0.73541 0.0
C1596 C 0.99831 0.74953 0.76274 0.0
C1597 C 0.96786 0.7449 0.71611 0.0
C1598 C 0.03973 0.78568 0.76058 0.0
C1599 C 0.05564 0.7649 0.81829 0.0
N1600 N 0.99095 0.75673 0.73 0.0
N1601 N 0.03243 0.75349 0.80485 0.0
loop_
_geom_bond_atom_site_label_1
_geom_bond_atom_site_label_2
_geom_bond_distance
_geom_bond_site_symmetry_2
_ccdc_geom_bond_type
C0 C1 1.443 . S
C0 N4 1.376 . S
C0 C38 1.370 1_655 S
C1 C0 1.443 . S
C1 C2 1.340 . S
C1 H41 0.951 . S
C2 C1 1.340 . S
C2 C3 1.439 . S
C2 H42 0.950 . S
C3 C2 1.439 . S
C3 N4 1.374 . S
C3 C37 1.395 . S
N4 C0 1.376 . S
N4 C3 1.374 . S
N4 Co5 1.999 1_655 S
Co5 N4 1.999 1_455 S
Co5 N6 1.983 1_454 S
Co5 N11 2.017 1_554 S
Co5 N16 2.006 . S
Co5 N21 2.301 1_554 S
Co5 N27 2.264 1_455 S
N6 Co5 1.983 1_656 S
N6 C7 1.376 . S
N6 C10 1.383 . S
C7 N6 1.376 . S
C7 C8 1.446 . S
C7 C37 1.391 1_556 S
C8 C7 1.446 . S
C8 C9 1.339 . S
C8 H43 0.949 . S
C9 C8 1.339 . S
C9 C10 1.439 . S
C9 H44 0.950 . S
C10 N6 1.383 . S
C10 C9 1.439 . S
C10 C39 1.386 1_655 S
N11 Co5 2.017 1_556 S
N11 C12 1.376 . S
N11 C15 1.374 . S
C12 N11 1.376 . S
C12 C13 1.443 . S
C12 C39 1.394 . S
C13 C12 1.443 . S
C13 C14 1.340 . S
C13 H45 0.951 . S
C14 C13 1.340 . S
C14 C15 1.439 . S
C14 H46 0.950 . S
C15 N11 1.374 . S
C15 C14 1.439 . S
C15 C40 1.395 1_556 S
N16 Co5 2.006 . S
N16 C17 1.376 . S
N16 C20 1.383 . S
C17 N16 1.376 . S
C17 C18 1.446 . S
C17 C40 1.391 . S
C18 C17 1.446 . S
C18 C19 1.339 . S
C18 H47 0.949 . S
C19 C18 1.339 . S
C19 C20 1.439 . S
C19 H48 0.950 . S
C20 N16 1.383 . S
C20 C19 1.439 . S
C20 C38 1.412 . S
N21 Co5 2.301 1_556 S
N21 C24 1.332 . S
N21 C26 1.332 . S
C22 C23 1.386 . S
C22 C25 1.388 . S
C23 C22 1.386 . S
C23 C24 1.382 . S
C23 H49 0.950 . S
C24 N21 1.332 . S
C24 C23 1.382 . S
C24 H35 0.952 1_556 S
C25 C22 1.388 . S
C25 C26 1.382 . S
C25 H50 0.950 . S
C26 N21 1.332 . S
C26 C25 1.382 . S
C26 H36 0.948 1_455 S
N27 Co5 2.264 1_655 S
N27 C31 1.332 . S
N27 C32 1.332 . S
C28 C29 1.388 . S
C28 C32 1.382 . S
C28 H51 0.950 . S
C29 C28 1.388 . S
C29 C30 1.386 . S
C30 C29 1.386 . S
C30 C31 1.382 . S
C30 H52 0.950 . S
C31 N27 1.332 . S
C31 C30 1.382 . S
C31 H33 0.952 . S
C32 N27 1.332 . S
C32 C28 1.382 . S
C32 H34 0.948 1_655 S
H33 C31 0.952 . S
H34 C32 0.948 1_455 S
H35 C24 0.952 1_554 S
H36 C26 0.948 1_655 S
C37 C3 1.395 . S
C37 C7 1.391 1_554 S
C38 C0 1.370 1_455 S
C38 C20 1.412 . S
C39 C10 1.386 1_455 S
C39 C12 1.394 . S
C40 C15 1.395 1_554 S
C40 C17 1.391 . S
H41 C1 0.951 . S
H42 C2 0.950 . S
H43 C8 0.949 . S
H44 C9 0.950 . S
H45 C13 0.951 . S
H46 C14 0.950 . S
H47 C18 0.949 . S
H48 C19 0.950 . S
H49 C23 0.950 . S
H50 C25 0.950 . S
H51 C28 0.950 . S
H52 C30 0.950 . S
C53 C54 1.443 . S
C53 N57 1.376 . S
C53 C91 1.389 . S
C54 C53 1.443 . S
C54 C55 1.340 . S
C54 H94 0.951 . S
C55 C54 1.340 . S
C55 C56 1.439 . S
C55 H95 0.950 . S
C56 C55 1.439 . S
C56 N57 1.374 . S
C56 C90 1.395 1_556 S
N57 C53 1.376 . S
N57 C56 1.374 . S
N57 Co58 2.008 1_556 S
Co58 N57 2.008 1_554 S
Co58 N59 1.995 . S
Co58 N64 2.008 . S
Co58 N69 1.995 1_554 S
Co58 N74 2.282 . S
Co58 N80 2.282 1_554 S
N59 Co58 1.995 . S
N59 C60 1.376 . S
N59 C63 1.383 . S
C60 N59 1.376 . S
C60 C61 1.446 . S
C60 C90 1.391 . S
C61 C60 1.446 . S
C61 C62 1.339 . S
C61 H96 0.949 . S
C62 C61 1.339 . S
C62 C63 1.439 . S
C62 H97 0.950 . S
C63 N59 1.383 . S
C63 C62 1.439 . S
C63 C92 1.392 . S
N64 Co58 2.008 . S
N64 C65 1.376 . S
N64 C68 1.374 . S
C65 N64 1.376 . S
C65 C66 1.443 . S
C65 C92 1.389 . S
C66 C65 1.443 . S
C66 C67 1.340 . S
C66 H98 0.951 . S
C67 C66 1.340 . S
C67 C68 1.439 . S
C67 H99 0.950 . S
C68 N64 1.374 . S
C68 C67 1.439 . S
C68 C93 1.395 . S
N69 Co58 1.995 1_556 S
N69 C70 1.376 . S
N69 C73 1.383 . S
C70 N69 1.376 . S
C70 C71 1.446 . S
C70 C93 1.391 1_556 S
C71 C70 1.446 . S
C71 C72 1.339 . S
C71 H100 0.949 . S
C72 C71 1.339 . S
C72 C73 1.439 . S
C72 H101 0.950 . S
C73 N69 1.383 . S
C73 C72 1.439 . S
C73 C91 1.392 . S
N74 Co58 2.282 . S
N74 C77 1.332 . S
N74 C79 1.332 . S
C75 C76 1.386 . S
C75 C78 1.388 . S
C76 C75 1.386 . S
C76 C77 1.382 . S
C76 H102 0.950 . S
C77 N74 1.332 . S
C77 C76 1.382 . S
C77 H88 0.952 . S
C78 C75 1.388 . S
C78 C79 1.382 . S
C78 H103 0.950 . S
C79 N74 1.332 . S
C79 C78 1.382 . S
C79 H89 0.948 . S
N80 Co58 2.282 1_556 S
N80 C84 1.332 . S
N80 C85 1.332 . S
C81 C82 1.388 . S
C81 C85 1.382 . S
C81 H104 0.950 . S
C82 C81 1.388 . S
C82 C83 1.386 . S
C83 C82 1.386 . S
C83 C84 1.382 . S
C83 H105 0.950 . S
C84 N80 1.332 . S
C84 C83 1.382 . S
C84 H86 0.952 1_556 S
C85 N80 1.332 . S
C85 C81 1.382 . S
C85 H87 0.948 . S
H86 C84 0.952 1_554 S
H87 C85 0.948 . S
H88 C77 0.952 . S
H89 C79 0.948 . S
C90 C56 1.395 1_554 S
C90 C60 1.391 . S
C91 C53 1.389 . S
C91 C73 1.392 . S
C92 C63 1.392 . S
C92 C65 1.389 . S
C93 C68 1.395 . S
C93 C70 1.391 1_554 S
H94 C54 0.951 . S
H95 C55 0.950 . S
H96 C61 0.949 . S
H97 C62 0.950 . S
H98 C66 0.951 . S
H99 C67 0.950 . S
H100 C71 0.949 . S
H101 C72 0.950 . S
H102 C76 0.950 . S
H103 C78 0.950 . S
H104 C81 0.950 . S
H105 C83 0.950 . S
C106 C107 1.443 . S
C106 N110 1.376 . S
C106 C144 1.389 . S
C107 C106 1.443 . S
C107 C108 1.340 . S
C107 H147 0.951 . S
C108 C107 1.340 . S
C108 C109 1.439 . S
C108 H148 0.950 . S
C109 C108 1.439 . S
C109 N110 1.374 . S
C109 C143 1.395 . S
N110 C106 1.376 . S
N110 C109 1.374 . S
N110 Co111 2.008 . S
Co111 N110 2.008 . S
Co111 N112 1.995 1_554 S
Co111 N117 2.008 1_544 S
Co111 N122 1.995 1_545 S
Co111 N127 2.282 1_544 S
Co111 N133 2.282 . S
N112 Co111 1.995 1_556 S
N112 C113 1.376 . S
N112 C116 1.383 . S
C113 N112 1.376 . S
C113 C114 1.446 . S
C113 C143 1.391 1_556 S
C114 C113 1.446 . S
C114 C115 1.339 . S
C114 H149 0.949 . S
C115 C114 1.339 . S
C115 C116 1.439 . S
C115 H150 0.950 . S
C116 N112 1.383 . S
C116 C115 1.439 . S
C116 C145 1.392 . S
N117 Co111 2.008 1_566 S
N117 C118 1.376 . S
N117 C121 1.374 . S
C118 N117 1.376 . S
C118 C119 1.443 . S
C118 C145 1.389 1_565 S
C119 C118 1.443 . S
C119 C120 1.340 . S
C119 H151 0.951 . S
C120 C119 1.340 . S
C120 C121 1.439 . S
C120 H152 0.950 . S
C121 N117 1.374 . S
C121 C120 1.439 . S
C121 C146 1.395 1_556 S
N122 Co111 1.995 1_565 S
N122 C123 1.376 . S
N122 C126 1.383 . S
C123 N122 1.376 . S
C123 C124 1.446 . S
C123 C146 1.391 . S
C124 C123 1.446 . S
C124 C125 1.339 . S
C124 H153 0.949 . S
C125 C124 1.339 . S
C125 C126 1.439 . S
C125 H154 0.950 . S
C126 N122 1.383 . S
C126 C125 1.439 . S
C126 C144 1.392 1_565 S
N127 Co111 2.282 1_566 S
N127 C130 1.332 . S
N127 C132 1.332 1_565 S
C128 C129 1.386 . S
C128 C131 1.388 . S
C129 C128 1.386 . S
C129 C130 1.382 . S
C129 H155 0.950 . S
C130 N127 1.332 . S
C130 C129 1.382 . S
C130 H141 0.952 1_556 S
C131 C128 1.388 . S
C131 C132 1.382 1_565 S
C131 H156 0.950 1_565 S
C132 N127 1.332 1_545 S
C132 C131 1.382 1_545 S
C132 H142 0.948 . S
N133 Co111 2.282 . S
N133 C137 1.332 . S
N133 C138 1.332 . S
C134 C135 1.388 . S
C134 C138 1.382 . S
C134 H157 0.950 . S
C135 C134 1.388 . S
C135 C136 1.386 . S
C136 C135 1.386 . S
C136 C137 1.382 . S
C136 H158 0.950 . S
C137 N133 1.332 . S
C137 C136 1.382 . S
C137 H139 0.952 . S
C138 N133 1.332 . S
C138 C134 1.382 . S
C138 H140 0.948 . S
H139 C137 0.952 . S
H140 C138 0.948 . S
H141 C130 0.952 1_554 S
H142 C132 0.948 . S
C143 C109 1.395 . S
C143 C113 1.391 1_554 S
C144 C106 1.389 . S
C144 C126 1.392 1_545 S
C145 C116 1.392 . S
C145 C118 1.389 1_545 S
C146 C121 1.395 1_554 S
C146 C123 1.391 . S
H147 C107 0.951 . S
H148 C108 0.950 . S
H149 C114 0.949 . S
H150 C115 0.950 . S
H151 C119 0.951 . S
H152 C120 0.950 . S
H153 C124 0.949 . S
H154 C125 0.950 . S
H155 C129 0.950 . S
H156 C131 0.950 1_545 S
H157 C134 0.950 . S
H158 C136 0.950 . S
C159 C160 1.443 . S
C159 N163 1.376 . S
C159 C197 1.389 1_545 S
C160 C159 1.443 . S
C160 C161 1.340 . S
C160 H200 0.951 . S
C161 C160 1.340 . S
C161 C162 1.439 . S
C161 H201 0.950 . S
C162 C161 1.439 . S
C162 N163 1.374 . S
C162 C196 1.395 . S
N163 C159 1.376 . S
N163 C162 1.374 . S
N163 Co164 2.008 . S
Co164 N163 2.008 . S
Co164 N165 1.995 . S
Co164 N170 2.008 . S
Co164 N175 1.995 1_545 S
Co164 N180 2.282 . S
Co164 N186 2.282 . S
N165 Co164 1.995 . S
N165 C166 1.376 . S
N165 C169 1.383 . S
C166 N165 1.376 . S
C166 C167 1.446 . S
C166 C196 1.391 . S
C167 C166 1.446 . S
C167 C168 1.339 . S
C167 H202 0.949 . S
C168 C167 1.339 . S
C168 C169 1.439 . S
C168 H203 0.950 . S
C169 N165 1.383 . S
C169 C168 1.439 . S
C169 C198 1.392 . S
N170 Co164 2.008 . S
N170 C171 1.376 . S
N170 C174 1.374 1_545 S
C171 N170 1.376 . S
C171 C172 1.443 . S
C171 C198 1.389 . S
C172 C171 1.443 . S
C172 C173 1.340 1_545 S
C172 H204 0.951 . S
C173 C172 1.340 1_565 S
C173 C174 1.439 . S
C173 H205 0.950 . S
C174 N170 1.374 1_565 S
C174 C173 1.439 . S
C174 C199 1.395 . S
N175 Co164 1.995 1_565 S
N175 C176 1.376 . S
N175 C179 1.383 . S
C176 N175 1.376 . S
C176 C177 1.446 . S
C176 C199 1.391 . S
C177 C176 1.446 . S
C177 C178 1.339 . S
C177 H206 0.949 . S
C178 C177 1.339 . S
C178 C179 1.439 . S
C178 H207 0.950 . S
C179 N175 1.383 . S
C179 C178 1.439 . S
C179 C197 1.392 . S
N180 Co164 2.282 . S
N180 C183 1.332 1_545 S
N180 C185 1.332 . S
C181 C182 1.386 1_545 S
C181 C184 1.388 . S
C182 C181 1.386 1_565 S
C182 C183 1.382 . S
C182 H208 0.950 . S
C183 N180 1.332 1_565 S
C183 C182 1.382 . S
C183 H194 0.952 . S
C184 C181 1.388 . S
C184 C185 1.382 . S
C184 H209 0.950 . S
C185 N180 1.332 . S
C185 C184 1.382 . S
C185 H195 0.948 . S
N186 Co164 2.282 . S
N186 C190 1.332 . S
N186 C191 1.332 1_545 S
C187 C188 1.388 1_565 S
C187 C191 1.382 . S
C187 H210 0.950 . S
C188 C187 1.388 1_545 S
C188 C189 1.386 . S
C189 C188 1.386 . S
C189 C190 1.382 . S
C189 H211 0.950 . S
C190 N186 1.332 . S
C190 C189 1.382 . S
C190 H192 0.952 . S
C191 N186 1.332 1_565 S
C191 C187 1.382 . S
C191 H193 0.948 . S
H192 C190 0.952 . S
H193 C191 0.948 . S
H194 C183 0.952 . S
H195 C185 0.948 . S
C196 C162 1.395 . S
C196 C166 1.391 . S
C197 C159 1.389 1_565 S
C197 C179 1.392 . S
C198 C169 1.392 . S
C198 C171 1.389 . S
C199 C174 1.395 . S
C199 C176 1.391 . S
H200 C160 0.951 . S
H201 C161 0.950 . S
H202 C167 0.949 . S
H203 C168 0.950 . S
H204 C172 0.951 . S
H205 C173 0.950 . S
H206 C177 0.949 . S
H207 C178 0.950 . S
H208 C182 0.950 . S
H209 C184 0.950 . S
H210 C187 0.950 . S
H211 C189 0.950 . S
C212 C213 1.443 . S
C212 N216 1.376 . S
C212 C250 1.389 . S
C213 C212 1.443 . S
C213 C214 1.340 . S
C213 H253 0.951 . S
C214 C213 1.340 . S
C214 C215 1.439 . S
C214 H254 0.950 . S
C215 C214 1.439 . S
C215 N216 1.374 . S
C215 C249 1.395 . S
N216 C212 1.376 . S
N216 C215 1.374 . S
N216 Co217 2.020 . S
Co217 N216 2.020 . S
Co217 N218 2.007 . S
Co217 N223 1.996 1_455 S
Co217 N228 1.983 1_455 S
Co217 N233 2.283 1_455 S
Co217 N239 2.282 . S
N218 Co217 2.007 . S
N218 C219 1.376 . S
N218 C222 1.383 . S
C219 N218 1.376 . S
C219 C220 1.446 . S
C219 C249 1.391 . S
C220 C219 1.446 . S
C220 C221 1.339 . S
C220 H255 0.949 . S
C221 C220 1.339 . S
C221 C222 1.439 . S
C221 H256 0.950 . S
C222 N218 1.383 . S
C222 C221 1.439 . S
C222 C251 1.421 . S
N223 Co217 1.996 1_655 S
N223 C224 1.376 . S
N223 C227 1.374 . S
C224 N223 1.376 . S
C224 C225 1.443 . S
C224 C251 1.359 1_655 S
C225 C224 1.443 . S
C225 C226 1.340 . S
C225 H257 0.951 . S
C226 C225 1.340 . S
C226 C227 1.439 . S
C226 H258 0.950 . S
C227 N223 1.374 . S
C227 C226 1.439 . S
C227 C252 1.395 . S
N228 Co217 1.983 1_655 S
N228 C229 1.376 . S
N228 C232 1.383 . S
C229 N228 1.376 . S
C229 C230 1.446 . S
C229 C252 1.391 . S
C230 C229 1.446 . S
C230 C231 1.339 . S
C230 H259 0.949 . S
C231 C230 1.339 . S
C231 C232 1.439 . S
C231 H260 0.950 . S
C232 N228 1.383 . S
C232 C231 1.439 . S
C232 C250 1.392 1_655 S
N233 Co217 2.283 1_655 S
N233 C236 1.332 . S
N233 C238 1.332 . S
C234 C235 1.386 . S
C234 C237 1.388 . S
C235 C234 1.386 . S
C235 C236 1.382 . S
C235 H261 0.950 . S
C236 N233 1.332 . S
C236 C235 1.382 . S
C236 H247 0.952 . S
C237 C234 1.388 . S
C237 C238 1.382 . S
C237 H262 0.950 . S
C238 N233 1.332 . S
C238 C237 1.382 . S
C238 H248 0.948 1_655 S
N239 Co217 2.282 . S
N239 C243 1.332 . S
N239 C244 1.332 . S
C240 C241 1.388 . S
C240 C244 1.382 . S
C240 H263 0.950 . S
C241 C240 1.388 . S
C241 C242 1.386 . S
C242 C241 1.386 . S
C242 C243 1.382 . S
C242 H264 0.950 . S
C243 N239 1.332 . S
C243 C242 1.382 . S
C243 H245 0.952 . S
C244 N239 1.332 . S
C244 C240 1.382 . S
C244 H246 0.948 1_455 S
H245 C243 0.952 . S
H246 C244 0.948 1_655 S
H247 C236 0.952 . S
H248 C238 0.948 1_455 S
C249 C215 1.395 . S
C249 C219 1.391 . S
C250 C212 1.389 . S
C250 C232 1.392 1_455 S
C251 C222 1.421 . S
C251 C224 1.359 1_455 S
C252 C227 1.395 . S
C252 C229 1.391 . S
H253 C213 0.951 . S
H254 C214 0.950 . S
H255 C220 0.949 . S
H256 C221 0.950 . S
H257 C225 0.951 . S
H258 C226 0.950 . S
H259 C230 0.949 . S
H260 C231 0.950 . S
H261 C235 0.950 . S
H262 C237 0.950 . S
H263 C240 0.950 . S
H264 C242 0.950 . S
C265 C266 1.443 . S
C265 N269 1.376 . S
C265 C303 1.389 . S
C266 C265 1.443 . S
C266 C267 1.340 . S
C266 H306 0.951 . S
C267 C266 1.340 . S
C267 C268 1.439 . S
C267 H307 0.950 . S
C268 C267 1.439 . S
C268 N269 1.374 . S
C268 C302 1.395 . S
N269 C265 1.376 . S
N269 C268 1.374 . S
N269 Co270 2.008 . S
Co270 N269 2.008 . S
Co270 N271 1.995 . S
Co270 N276 2.008 . S
Co270 N281 1.995 . S
Co270 N286 2.282 . S
Co270 N292 2.282 . S
N271 Co270 1.995 . S
N271 C272 1.376 . S
N271 C275 1.383 . S
C272 N271 1.376 . S
C272 C273 1.446 . S
C272 C302 1.391 . S
C273 C272 1.446 . S
C273 C274 1.339 . S
C273 H308 0.949 . S
C274 C273 1.339 . S
C274 C275 1.439 . S
C274 H309 0.950 . S
C275 N271 1.383 . S
C275 C274 1.439 . S
C275 C304 1.392 . S
N276 Co270 2.008 . S
N276 C277 1.376 . S
N276 C280 1.374 . S
C277 N276 1.376 . S
C277 C278 1.443 . S
C277 C304 1.389 . S
C278 C277 1.443 . S
C278 C279 1.340 . S
C278 H310 0.951 . S
C279 C278 1.340 . S
C279 C280 1.439 . S
C279 H311 0.950 . S
C280 N276 1.374 . S
C280 C279 1.439 . S
C280 C305 1.395 . S
N281 Co270 1.995 . S
N281 C282 1.376 . S
N281 C285 1.383 . S
C282 N281 1.376 . S
C282 C283 1.446 . S
C282 C305 1.391 . S
C283 C282 1.446 . S
C283 C284 1.339 . S
C283 H312 0.949 . S
C284 C283 1.339 . S
C284 C285 1.439 . S
C284 H313 0.950 . S
C285 N281 1.383 . S
C285 C284 1.439 . S
C285 C303 1.392 . S
N286 Co270 2.282 . S
N286 C289 1.332 . S
N286 C291 1.332 . S
C287 C288 1.386 . S
C287 C290 1.388 . S
C288 C287 1.386 . S
C288 C289 1.382 . S
C288 H314 0.950 . S
C289 N286 1.332 . S
C289 C288 1.382 . S
C289 H300 0.952 . S
C290 C287 1.388 . S
C290 C291 1.382 . S
C290 H315 0.950 . S
C291 N286 1.332 . S
C291 C290 1.382 . S
C291 H301 0.948 . S
N292 Co270 2.282 . S
N292 C296 1.332 . S
N292 C297 1.332 . S
C293 C294 1.388 . S
C293 C297 1.382 . S
C293 H316 0.950 . S
C294 C293 1.388 . S
C294 C295 1.386 . S
C295 C294 1.386 . S
C295 C296 1.382 . S
C295 H317 0.950 . S
C296 N292 1.332 . S
C296 C295 1.382 . S
C296 H298 0.952 . S
C297 N292 1.332 . S
C297 C293 1.382 . S
C297 H299 0.948 . S
H298 C296 0.952 . S
H299 C297 0.948 . S
H300 C289 0.952 . S
H301 C291 0.948 . S
C302 C268 1.395 . S
C302 C272 1.391 . S
C303 C265 1.389 . S
C303 C285 1.392 . S
C304 C275 1.392 . S
C304 C277 1.389 . S
C305 C280 1.395 . S
C305 C282 1.391 . S
H306 C266 0.951 . S
H307 C267 0.950 . S
H308 C273 0.949 . S
H309 C274 0.950 . S
H310 C278 0.951 . S
H311 C279 0.950 . S
H312 C283 0.949 . S
H313 C284 0.950 . S
H314 C288 0.950 . S
H315 C290 0.950 . S
H316 C293 0.950 . S
H317 C295 0.950 . S
C318 C319 1.443 . S
C318 N322 1.376 . S
C318 C356 1.389 . S
C319 C318 1.443 . S
C319 C320 1.340 . S
C319 H359 0.951 . S
C320 C319 1.340 . S
C320 C321 1.439 . S
C320 H360 0.950 . S
C321 C320 1.439 . S
C321 N322 1.374 . S
C321 C355 1.395 . S
N322 C318 1.376 . S
N322 C321 1.374 . S
N322 Co323 2.008 . S
Co323 N322 2.008 . S
Co323 N324 1.995 . S
Co323 N329 2.008 . S
Co323 N334 1.995 . S
Co323 N339 2.282 . S
Co323 N345 2.282 . S
N324 Co323 1.995 . S
N324 C325 1.376 . S
N324 C328 1.383 . S
C325 N324 1.376 . S
C325 C326 1.446 . S
C325 C355 1.391 . S
C326 C325 1.446 . S
C326 C327 1.339 . S
C326 H361 0.949 . S
C327 C326 1.339 . S
C327 C328 1.439 . S
C327 H362 0.950 . S
C328 N324 1.383 . S
C328 C327 1.439 . S
C328 C357 1.392 . S
N329 Co323 2.008 . S
N329 C330 1.376 . S
N329 C333 1.374 . S
C330 N329 1.376 . S
C330 C331 1.443 . S
C330 C357 1.389 . S
C331 C330 1.443 . S
C331 C332 1.340 . S
C331 H363 0.951 . S
C332 C331 1.340 . S
C332 C333 1.439 . S
C332 H364 0.950 . S
C333 N329 1.374 . S
C333 C332 1.439 . S
C333 C358 1.395 . S
N334 Co323 1.995 . S
N334 C335 1.376 . S
N334 C338 1.383 . S
C335 N334 1.376 . S
C335 C336 1.446 . S
C335 C358 1.391 . S
C336 C335 1.446 . S
C336 C337 1.339 . S
C336 H365 0.949 . S
C337 C336 1.339 . S
C337 C338 1.439 . S
C337 H366 0.950 . S
C338 N334 1.383 . S
C338 C337 1.439 . S
C338 C356 1.392 . S
N339 Co323 2.282 . S
N339 C342 1.332 . S
N339 C344 1.332 . S
C340 C341 1.386 . S
C340 C343 1.388 . S
C341 C340 1.386 . S
C341 C342 1.382 . S
C341 H367 0.950 . S
C342 N339 1.332 . S
C342 C341 1.382 . S
C342 H353 0.952 . S
C343 C340 1.388 . S
C343 C344 1.382 . S
C343 H368 0.950 . S
C344 N339 1.332 . S
C344 C343 1.382 . S
C344 H354 0.948 . S
N345 Co323 2.282 . S
N345 C349 1.332 . S
N345 C350 1.332 . S
C346 C347 1.388 . S
C346 C350 1.382 . S
C346 H369 0.950 . S
C347 C346 1.388 . S
C347 C348 1.386 . S
C348 C347 1.386 . S
C348 C349 1.382 . S
C348 H370 0.950 . S
C349 N345 1.332 . S
C349 C348 1.382 . S
C349 H351 0.952 . S
C350 N345 1.332 . S
C350 C346 1.382 . S
C350 H352 0.948 . S
H351 C349 0.952 . S
H352 C350 0.948 . S
H353 C342 0.952 . S
H354 C344 0.948 . S
C355 C321 1.395 . S
C355 C325 1.391 . S
C356 C318 1.389 . S
C356 C338 1.392 . S
C357 C328 1.392 . S
C357 C330 1.389 . S
C358 C333 1.395 . S
C358 C335 1.391 . S
H359 C319 0.951 . S
H360 C320 0.950 . S
H361 C326 0.949 . S
H362 C327 0.950 . S
H363 C331 0.951 . S
H364 C332 0.950 . S
H365 C336 0.949 . S
H366 C337 0.950 . S
H367 C341 0.950 . S
H368 C343 0.950 . S
H369 C346 0.950 . S
H370 C348 0.950 . S
C371 C372 1.443 . S
C371 N375 1.376 . S
C371 C409 1.389 . S
C372 C371 1.443 . S
C372 C373 1.340 . S
C372 H412 0.951 . S
C373 C372 1.340 . S
C373 C374 1.439 . S
C373 H413 0.950 . S
C374 C373 1.439 . S
C374 N375 1.374 . S
C374 C408 1.395 . S
N375 C371 1.376 . S
N375 C374 1.374 . S
N375 Co376 2.008 . S
Co376 N375 2.008 . S
Co376 N377 1.995 . S
Co376 N382 2.008 . S
Co376 N387 1.995 . S
Co376 N392 2.282 . S
Co376 N398 2.282 . S
N377 Co376 1.995 . S
N377 C378 1.376 . S
N377 C381 1.383 . S
C378 N377 1.376 . S
C378 C379 1.446 . S
C378 C408 1.391 . S
C379 C378 1.446 . S
C379 C380 1.339 . S
C379 H414 0.949 . S
C380 C379 1.339 . S
C380 C381 1.439 . S
C380 H415 0.950 . S
C381 N377 1.383 . S
C381 C380 1.439 . S
C381 C410 1.392 . S
N382 Co376 2.008 . S
N382 C383 1.376 . S
N382 C386 1.374 . S
C383 N382 1.376 . S
C383 C384 1.443 . S
C383 C410 1.389 . S
C384 C383 1.443 . S
C384 C385 1.340 . S
C384 H416 0.951 . S
C385 C384 1.340 . S
C385 C386 1.439 . S
C385 H417 0.950 . S
C386 N382 1.374 . S
C386 C385 1.439 . S
C386 C411 1.395 . S
N387 Co376 1.995 . S
N387 C388 1.376 . S
N387 C391 1.383 . S
C388 N387 1.376 . S
C388 C389 1.446 . S
C388 C411 1.391 . S
C389 C388 1.446 . S
C389 C390 1.339 . S
C389 H418 0.949 . S
C390 C389 1.339 . S
C390 C391 1.439 . S
C390 H419 0.950 . S
C391 N387 1.383 . S
C391 C390 1.439 . S
C391 C409 1.392 . S
N392 Co376 2.282 . S
N392 C395 1.332 . S
N392 C397 1.332 . S
C393 C394 1.386 . S
C393 C396 1.388 . S
C394 C393 1.386 . S
C394 C395 1.382 . S
C394 H420 0.950 . S
C395 N392 1.332 . S
C395 C394 1.382 . S
C395 H406 0.952 . S
C396 C393 1.388 . S
C396 C397 1.382 . S
C396 H421 0.950 . S
C397 N392 1.332 . S
C397 C396 1.382 . S
C397 H407 0.948 . S
N398 Co376 2.282 . S
N398 C402 1.332 . S
N398 C403 1.332 . S
C399 C400 1.388 . S
C399 C403 1.382 . S
C399 H422 0.950 . S
C400 C399 1.388 . S
C400 C401 1.386 . S
C401 C400 1.386 . S
C401 C402 1.382 . S
C401 H423 0.950 . S
C402 N398 1.332 . S
C402 C401 1.382 . S
C402 H404 0.952 . S
C403 N398 1.332 . S
C403 C399 1.382 . S
C403 H405 0.948 . S
H404 C402 0.952 . S
H405 C403 0.948 . S
H406 C395 0.952 . S
H407 C397 0.948 . S
C408 C374 1.395 . S
C408 C378 1.391 . S
C409 C371 1.389 . S
C409 C391 1.392 . S
C410 C381 1.392 . S
C410 C383 1.389 . S
C411 C386 1.395 . S
C411 C388 1.391 . S
H412 C372 0.951 . S
H413 C373 0.950 . S
H414 C379 0.949 . S
H415 C380 0.950 . S
H416 C384 0.951 . S
H417 C385 0.950 . S
H418 C389 0.949 . S
H419 C390 0.950 . S
H420 C394 0.950 . S
H421 C396 0.950 . S
H422 C399 0.950 . S
H423 C401 0.950 . S
C424 C425 1.443 . S
C424 N428 1.376 . S
C424 C462 1.389 . S
C425 C424 1.443 . S
C425 C426 1.340 . S
C425 H465 0.951 . S
C426 C425 1.340 . S
C426 C427 1.439 . S
C426 H466 0.950 . S
C427 C426 1.439 . S
C427 N428 1.374 . S
C427 C461 1.395 . S
N428 C424 1.376 . S
N428 C427 1.374 . S
N428 Co429 2.008 . S
Co429 N428 2.008 . S
Co429 N430 1.995 . S
Co429 N435 2.008 . S
Co429 N440 1.995 . S
Co429 N445 2.282 . S
Co429 N451 2.282 . S
N430 Co429 1.995 . S
N430 C431 1.376 . S
N430 C434 1.383 . S
C431 N430 1.376 . S
C431 C432 1.446 . S
C431 C461 1.391 . S
C432 C431 1.446 . S
C432 C433 1.339 . S
C432 H467 0.949 . S
C433 C432 1.339 . S
C433 C434 1.439 . S
C433 H468 0.950 . S
C434 N430 1.383 . S
C434 C433 1.439 . S
C434 C463 1.392 . S
N435 Co429 2.008 . S
N435 C436 1.376 . S
N435 C439 1.374 . S
C436 N435 1.376 . S
C436 C437 1.443 . S
C436 C463 1.389 . S
C437 C436 1.443 . S
C437 C438 1.340 . S
C437 H469 0.951 . S
C438 C437 1.340 . S
C438 C439 1.439 . S
C438 H470 0.950 . S
C439 N435 1.374 . S
C439 C438 1.439 . S
C439 C464 1.395 . S
N440 Co429 1.995 . S
N440 C441 1.376 . S
N440 C444 1.383 . S
C441 N440 1.376 . S
C441 C442 1.446 . S
C441 C464 1.391 . S
C442 C441 1.446 . S
C442 C443 1.339 . S
C442 H471 0.949 . S
C443 C442 1.339 . S
C443 C444 1.439 . S
C443 H472 0.950 . S
C444 N440 1.383 . S
C444 C443 1.439 . S
C444 C462 1.392 . S
N445 Co429 2.282 . S
N445 C448 1.332 . S
N445 C450 1.332 . S
C446 C447 1.386 . S
C446 C449 1.388 . S
C447 C446 1.386 . S
C447 C448 1.382 . S
C447 H473 0.950 . S
C448 N445 1.332 . S
C448 C447 1.382 . S
C448 H459 0.952 . S
C449 C446 1.388 . S
C449 C450 1.382 . S
C449 H474 0.950 . S
C450 N445 1.332 . S
C450 C449 1.382 . S
C450 H460 0.948 . S
N451 Co429 2.282 . S
N451 C455 1.332 . S
N451 C456 1.332 . S
C452 C453 1.388 . S
C452 C456 1.382 . S
C452 H475 0.950 . S
C453 C452 1.388 . S
C453 C454 1.386 . S
C454 C453 1.386 . S
C454 C455 1.382 . S
C454 H476 0.950 . S
C455 N451 1.332 . S
C455 C454 1.382 . S
C455 H457 0.952 . S
C456 N451 1.332 . S
C456 C452 1.382 . S
C456 H458 0.948 . S
H457 C455 0.952 . S
H458 C456 0.948 . S
H459 C448 0.952 . S
H460 C450 0.948 . S
C461 C427 1.395 . S
C461 C431 1.391 . S
C462 C424 1.389 . S
C462 C444 1.392 . S
C463 C434 1.392 . S
C463 C436 1.389 . S
C464 C439 1.395 . S
C464 C441 1.391 . S
H465 C425 0.951 . S
H466 C426 0.950 . S
H467 C432 0.949 . S
H468 C433 0.950 . S
H469 C437 0.951 . S
H470 C438 0.950 . S
H471 C442 0.949 . S
H472 C443 0.950 . S
H473 C447 0.950 . S
H474 C449 0.950 . S
H475 C452 0.950 . S
H476 C454 0.950 . S
C477 C478 1.443 . S
C477 N481 1.376 . S
C477 C515 1.389 . S
C478 C477 1.443 . S
C478 C479 1.340 . S
C478 H518 0.951 . S
C479 C478 1.340 . S
C479 C480 1.439 . S
C479 H519 0.950 . S
C480 C479 1.439 . S
C480 N481 1.374 . S
C480 C514 1.395 . S
N481 C477 1.376 . S
N481 C480 1.374 . S
N481 Co482 2.008 . S
Co482 N481 2.008 . S
Co482 N483 1.995 . S
Co482 N488 2.008 . S
Co482 N493 1.995 . S
Co482 N498 2.282 . S
Co482 N504 2.282 . S
N483 Co482 1.995 . S
N483 C484 1.376 . S
N483 C487 1.383 . S
C484 N483 1.376 . S
C484 C485 1.446 . S
C484 C514 1.391 . S
C485 C484 1.446 . S
C485 C486 1.339 . S
C485 H520 0.949 . S
C486 C485 1.339 . S
C486 C487 1.439 . S
C486 H521 0.950 . S
C487 N483 1.383 . S
C487 C486 1.439 . S
C487 C516 1.392 . S
N488 Co482 2.008 . S
N488 C489 1.376 . S
N488 C492 1.374 . S
C489 N488 1.376 . S
C489 C490 1.443 . S
C489 C516 1.389 . S
C490 C489 1.443 . S
C490 C491 1.340 . S
C490 H522 0.951 . S
C491 C490 1.340 . S
C491 C492 1.439 . S
C491 H523 0.950 . S
C492 N488 1.374 . S
C492 C491 1.439 . S
C492 C517 1.395 . S
N493 Co482 1.995 . S
N493 C494 1.376 . S
N493 C497 1.383 . S
C494 N493 1.376 . S
C494 C495 1.446 . S
C494 C517 1.391 . S
C495 C494 1.446 . S
C495 C496 1.339 . S
C495 H524 0.949 . S
C496 C495 1.339 . S
C496 C497 1.439 . S
C496 H525 0.950 . S
C497 N493 1.383 . S
C497 C496 1.439 . S
C497 C515 1.392 . S
N498 Co482 2.282 . S
N498 C501 1.332 . S
N498 C503 1.332 . S
C499 C500 1.386 . S
C499 C502 1.388 . S
C500 C499 1.386 . S
C500 C501 1.382 . S
C500 H526 0.950 . S
C501 N498 1.332 . S
C501 C500 1.382 . S
C501 H512 0.952 . S
C502 C499 1.388 . S
C502 C503 1.382 . S
C502 H527 0.950 . S
C503 N498 1.332 . S
C503 C502 1.382 . S
C503 H513 0.948 . S
N504 Co482 2.282 . S
N504 C508 1.332 . S
N504 C509 1.332 . S
C505 C506 1.388 . S
C505 C509 1.382 . S
C505 H528 0.950 . S
C506 C505 1.388 . S
C506 C507 1.386 . S
C507 C506 1.386 . S
C507 C508 1.382 . S
C507 H529 0.950 . S
C508 N504 1.332 . S
C508 C507 1.382 . S
C508 H510 0.952 . S
C509 N504 1.332 . S
C509 C505 1.382 . S
C509 H511 0.948 . S
H510 C508 0.952 . S
H511 C509 0.948 . S
H512 C501 0.952 . S
H513 C503 0.948 . S
C514 C480 1.395 . S
C514 C484 1.391 . S
C515 C477 1.389 . S
C515 C497 1.392 . S
C516 C487 1.392 . S
C516 C489 1.389 . S
C517 C492 1.395 . S
C517 C494 1.391 . S
H518 C478 0.951 . S
H519 C479 0.950 . S
H520 C485 0.949 . S
H521 C486 0.950 . S
H522 C490 0.951 . S
H523 C491 0.950 . S
H524 C495 0.949 . S
H525 C496 0.950 . S
H526 C500 0.950 . S
H527 C502 0.950 . S
H528 C505 0.950 . S
H529 C507 0.950 . S
C530 C531 1.443 . S
C530 N534 1.376 . S
C530 C568 1.389 . S
C531 C530 1.443 . S
C531 C532 1.340 . S
C531 H571 0.951 . S
C532 C531 1.340 . S
C532 C533 1.439 . S
C532 H572 0.950 . S
C533 C532 1.439 . S
C533 N534 1.374 . S
C533 C567 1.395 . S
N534 C530 1.376 . S
N534 C533 1.374 . S
N534 Co535 2.008 . S
Co535 N534 2.008 . S
Co535 N536 1.995 . S
Co535 N541 2.008 . S
Co535 N546 1.995 . S
Co535 N551 2.282 . S
Co535 N557 2.282 . S
N536 Co535 1.995 . S
N536 C537 1.376 . S
N536 C540 1.383 . S
C537 N536 1.376 . S
C537 C538 1.446 . S
C537 C567 1.391 . S
C538 C537 1.446 . S
C538 C539 1.339 . S
C538 H573 0.949 . S
C539 C538 1.339 . S
C539 C540 1.439 . S
C539 H574 0.950 . S
C540 N536 1.383 . S
C540 C539 1.439 . S
C540 C569 1.392 . S
N541 Co535 2.008 . S
N541 C542 1.376 . S
N541 C545 1.374 . S
C542 N541 1.376 . S
C542 C543 1.443 . S
C542 C569 1.389 . S
C543 C542 1.443 . S
C543 C544 1.340 . S
C543 H575 0.951 . S
C544 C543 1.340 . S
C544 C545 1.439 . S
C544 H576 0.950 . S
C545 N541 1.374 . S
C545 C544 1.439 . S
C545 C570 1.395 . S
N546 Co535 1.995 . S
N546 C547 1.376 . S
N546 C550 1.383 . S
C547 N546 1.376 . S
C547 C548 1.446 . S
C547 C570 1.391 . S
C548 C547 1.446 . S
C548 C549 1.339 . S
C548 H577 0.949 . S
C549 C548 1.339 . S
C549 C550 1.439 . S
C549 H578 0.950 . S
C550 N546 1.383 . S
C550 C549 1.439 . S
C550 C568 1.392 . S
N551 Co535 2.282 . S
N551 C554 1.332 . S
N551 C556 1.332 . S
C552 C553 1.386 . S
C552 C555 1.388 . S
C553 C552 1.386 . S
C553 C554 1.382 . S
C553 H579 0.950 . S
C554 N551 1.332 . S
C554 C553 1.382 . S
C554 H565 0.952 . S
C555 C552 1.388 . S
C555 C556 1.382 . S
C555 H580 0.950 . S
C556 N551 1.332 . S
C556 C555 1.382 . S
C556 H566 0.948 . S
N557 Co535 2.282 . S
N557 C561 1.332 . S
N557 C562 1.332 . S
C558 C559 1.388 . S
C558 C562 1.382 . S
C558 H581 0.950 . S
C559 C558 1.388 . S
C559 C560 1.386 . S
C560 C559 1.386 . S
C560 C561 1.382 . S
C560 H582 0.950 . S
C561 N557 1.332 . S
C561 C560 1.382 . S
C561 H563 0.952 . S
C562 N557 1.332 . S
C562 C558 1.382 . S
C562 H564 0.948 . S
H563 C561 0.952 . S
H564 C562 0.948 . S
H565 C554 0.952 . S
H566 C556 0.948 . S
C567 C533 1.395 . S
C567 C537 1.391 . S
C568 C530 1.389 . S
C568 C550 1.392 . S
C569 C540 1.392 . S
C569 C542 1.389 . S
C570 C545 1.395 . S
C570 C547 1.391 . S
H571 C531 0.951 . S
H572 C532 0.950 . S
H573 C538 0.949 . S
H574 C539 0.950 . S
H575 C543 0.951 . S
H576 C544 0.950 . S
H577 C548 0.949 . S
H578 C549 0.950 . S
H579 C553 0.950 . S
H580 C555 0.950 . S
H581 C558 0.950 . S
H582 C560 0.950 . S
C583 C584 1.443 . S
C583 N587 1.376 . S
C583 C621 1.389 . S
C584 C583 1.443 . S
C584 C585 1.340 . S
C584 H624 0.951 . S
C585 C584 1.340 . S
C585 C586 1.439 . S
C585 H625 0.950 . S
C586 C585 1.439 . S
C586 N587 1.374 . S
C586 C620 1.395 . S
N587 C583 1.376 . S
N587 C586 1.374 . S
N587 Co588 2.008 . S
Co588 N587 2.008 . S
Co588 N589 1.995 . S
Co588 N594 2.008 . S
Co588 N599 1.995 . S
Co588 N604 2.282 . S
Co588 N610 2.282 . S
N589 Co588 1.995 . S
N589 C590 1.376 . S
N589 C593 1.383 . S
C590 N589 1.376 . S
C590 C591 1.446 . S
C590 C620 1.391 . S
C591 C590 1.446 . S
C591 C592 1.339 . S
C591 H626 0.949 . S
C592 C591 1.339 . S
C592 C593 1.439 . S
C592 H627 0.950 . S
C593 N589 1.383 . S
C593 C592 1.439 . S
C593 C622 1.392 . S
N594 Co588 2.008 . S
N594 C595 1.376 . S
N594 C598 1.374 . S
C595 N594 1.376 . S
C595 C596 1.443 . S
C595 C622 1.389 . S
C596 C595 1.443 . S
C596 C597 1.340 . S
C596 H628 0.951 . S
C597 C596 1.340 . S
C597 C598 1.439 . S
C597 H629 0.950 . S
C598 N594 1.374 . S
C598 C597 1.439 . S
C598 C623 1.395 . S
N599 Co588 1.995 . S
N599 C600 1.376 . S
N599 C603 1.383 . S
C600 N599 1.376 . S
C600 C601 1.446 . S
C600 C623 1.391 . S
C601 C600 1.446 . S
C601 C602 1.339 . S
C601 H630 0.949 . S
C602 C601 1.339 . S
C602 C603 1.439 . S
C602 H631 0.950 . S
C603 N599 1.383 . S
C603 C602 1.439 . S
C603 C621 1.392 . S
N604 Co588 2.282 . S
N604 C607 1.332 . S
N604 C609 1.332 . S
C605 C606 1.386 . S
C605 C608 1.388 . S
C606 C605 1.386 . S
C606 C607 1.382 . S
C606 H632 0.950 . S
C607 N604 1.332 . S
C607 C606 1.382 . S
C607 H618 0.952 . S
C608 C605 1.388 . S
C608 C609 1.382 . S
C608 H633 0.950 . S
C609 N604 1.332 . S
C609 C608 1.382 . S
C609 H619 0.948 . S
N610 Co588 2.282 . S
N610 C614 1.332 . S
N610 C615 1.332 . S
C611 C612 1.388 . S
C611 C615 1.382 . S
C611 H634 0.950 . S
C612 C611 1.388 . S
C612 C613 1.386 . S
C613 C612 1.386 . S
C613 C614 1.382 . S
C613 H635 0.950 . S
C614 N610 1.332 . S
C614 C613 1.382 . S
C614 H616 0.952 . S
C615 N610 1.332 . S
C615 C611 1.382 . S
C615 H617 0.948 . S
H616 C614 0.952 . S
H617 C615 0.948 . S
H618 C607 0.952 . S
H619 C609 0.948 . S
C620 C586 1.395 . S
C620 C590 1.391 . S
C621 C583 1.389 . S
C621 C603 1.392 . S
C622 C593 1.392 . S
C622 C595 1.389 . S
C623 C598 1.395 . S
C623 C600 1.391 . S
H624 C584 0.951 . S
H625 C585 0.950 . S
H626 C591 0.949 . S
H627 C592 0.950 . S
H628 C596 0.951 . S
H629 C597 0.950 . S
H630 C601 0.949 . S
H631 C602 0.950 . S
H632 C606 0.950 . S
H633 C608 0.950 . S
H634 C611 0.950 . S
H635 C613 0.950 . S
C636 C637 1.443 . S
C636 N640 1.376 . S
C636 C674 1.389 . S
C637 C636 1.443 . S
C637 C638 1.340 . S
C637 H677 0.951 . S
C638 C637 1.340 . S
C638 C639 1.439 . S
C638 H678 0.950 . S
C639 C638 1.439 . S
C639 N640 1.374 . S
C639 C673 1.395 . S
N640 C636 1.376 . S
N640 C639 1.374 . S
N640 Co641 2.008 . S
Co641 N640 2.008 . S
Co641 N642 1.995 . S
Co641 N647 2.008 . S
Co641 N652 1.995 . S
Co641 N657 2.282 . S
Co641 N663 2.282 . S
N642 Co641 1.995 . S
N642 C643 1.376 . S
N642 C646 1.383 . S
C643 N642 1.376 . S
C643 C644 1.446 . S
C643 C673 1.391 . S
C644 C643 1.446 . S
C644 C645 1.339 . S
C644 H679 0.949 . S
C645 C644 1.339 . S
C645 C646 1.439 . S
C645 H680 0.950 . S
C646 N642 1.383 . S
C646 C645 1.439 . S
C646 C675 1.392 . S
N647 Co641 2.008 . S
N647 C648 1.376 . S
N647 C651 1.374 . S
C648 N647 1.376 . S
C648 C649 1.443 . S
C648 C675 1.389 . S
C649 C648 1.443 . S
C649 C650 1.340 . S
C649 H681 0.951 . S
C650 C649 1.340 . S
C650 C651 1.439 . S
C650 H682 0.950 . S
C651 N647 1.374 . S
C651 C650 1.439 . S
C651 C676 1.395 . S
N652 Co641 1.995 . S
N652 C653 1.376 . S
N652 C656 1.383 . S
C653 N652 1.376 . S
C653 C654 1.446 . S
C653 C676 1.391 . S
C654 C653 1.446 . S
C654 C655 1.339 . S
C654 H683 0.949 . S
C655 C654 1.339 . S
C655 C656 1.439 . S
C655 H684 0.950 . S
C656 N652 1.383 . S
C656 C655 1.439 . S
C656 C674 1.392 . S
N657 Co641 2.282 . S
N657 C660 1.332 . S
N657 C662 1.332 . S
C658 C659 1.386 . S
C658 C661 1.388 . S
C659 C658 1.386 . S
C659 C660 1.382 . S
C659 H685 0.950 . S
C660 N657 1.332 . S
C660 C659 1.382 . S
C660 H671 0.952 . S
C661 C658 1.388 . S
C661 C662 1.382 . S
C661 H686 0.950 . S
C662 N657 1.332 . S
C662 C661 1.382 . S
C662 H672 0.948 . S
N663 Co641 2.282 . S
N663 C667 1.332 . S
N663 C668 1.332 . S
C664 C665 1.388 . S
C664 C668 1.382 . S
C664 H687 0.950 . S
C665 C664 1.388 . S
C665 C666 1.386 . S
C666 C665 1.386 . S
C666 C667 1.382 . S
C666 H688 0.950 . S
C667 N663 1.332 . S
C667 C666 1.382 . S
C667 H669 0.952 . S
C668 N663 1.332 . S
C668 C664 1.382 . S
C668 H670 0.948 . S
H669 C667 0.952 . S
H670 C668 0.948 . S
H671 C660 0.952 . S
H672 C662 0.948 . S
C673 C639 1.395 . S
C673 C643 1.391 . S
C674 C636 1.389 . S
C674 C656 1.392 . S
C675 C646 1.392 . S
C675 C648 1.389 . S
C676 C651 1.395 . S
C676 C653 1.391 . S
H677 C637 0.951 . S
H678 C638 0.950 . S
H679 C644 0.949 . S
H680 C645 0.950 . S
H681 C649 0.951 . S
H682 C650 0.950 . S
H683 C654 0.949 . S
H684 C655 0.950 . S
H685 C659 0.950 . S
H686 C661 0.950 . S
H687 C664 0.950 . S
H688 C666 0.950 . S
C689 C690 1.443 . S
C689 N693 1.376 . S
C689 C727 1.389 . S
C690 C689 1.443 . S
C690 C691 1.340 . S
C690 H730 0.951 . S
C691 C690 1.340 . S
C691 C692 1.439 . S
C691 H731 0.950 . S
C692 C691 1.439 . S
C692 N693 1.374 . S
C692 C726 1.395 . S
N693 C689 1.376 . S
N693 C692 1.374 . S
N693 Co694 2.008 . S
Co694 N693 2.008 . S
Co694 N695 1.995 . S
Co694 N700 2.008 . S
Co694 N705 1.995 . S
Co694 N710 2.282 . S
Co694 N716 2.282 . S
N695 Co694 1.995 . S
N695 C696 1.376 . S
N695 C699 1.383 . S
C696 N695 1.376 . S
C696 C697 1.446 . S
C696 C726 1.391 . S
C697 C696 1.446 . S
C697 C698 1.339 . S
C697 H732 0.949 . S
C698 C697 1.339 . S
C698 C699 1.439 . S
C698 H733 0.950 . S
C699 N695 1.383 . S
C699 C698 1.439 . S
C699 C728 1.392 . S
N700 Co694 2.008 . S
N700 C701 1.376 . S
N700 C704 1.374 . S
C701 N700 1.376 . S
C701 C702 1.443 . S
C701 C728 1.389 . S
C702 C701 1.443 . S
C702 C703 1.340 . S
C702 H734 0.951 . S
C703 C702 1.340 . S
C703 C704 1.439 . S
C703 H735 0.950 . S
C704 N700 1.374 . S
C704 C703 1.439 . S
C704 C729 1.395 . S
N705 Co694 1.995 . S
N705 C706 1.376 . S
N705 C709 1.383 . S
C706 N705 1.376 . S
C706 C707 1.446 . S
C706 C729 1.391 . S
C707 C706 1.446 . S
C707 C708 1.339 . S
C707 H736 0.949 . S
C708 C707 1.339 . S
C708 C709 1.439 . S
C708 H737 0.950 . S
C709 N705 1.383 . S
C709 C708 1.439 . S
C709 C727 1.392 . S
N710 Co694 2.282 . S
N710 C713 1.332 . S
N710 C715 1.332 . S
C711 C712 1.386 . S
C711 C714 1.388 . S
C712 C711 1.386 . S
C712 C713 1.382 . S
C712 H738 0.950 . S
C713 N710 1.332 . S
C713 C712 1.382 . S
C713 H724 0.952 . S
C714 C711 1.388 . S
C714 C715 1.382 . S
C714 H739 0.950 . S
C715 N710 1.332 . S
C715 C714 1.382 . S
C715 H725 0.948 . S
N716 Co694 2.282 . S
N716 C720 1.332 . S
N716 C721 1.332 . S
C717 C718 1.388 . S
C717 C721 1.382 . S
C717 H740 0.950 . S
C718 C717 1.388 . S
C718 C719 1.386 . S
C719 C718 1.386 . S
C719 C720 1.382 . S
C719 H741 0.950 . S
C720 N716 1.332 . S
C720 C719 1.382 . S
C720 H722 0.952 . S
C721 N716 1.332 . S
C721 C717 1.382 . S
C721 H723 0.948 . S
H722 C720 0.952 . S
H723 C721 0.948 . S
H724 C713 0.952 . S
H725 C715 0.948 . S
C726 C692 1.395 . S
C726 C696 1.391 . S
C727 C689 1.389 . S
C727 C709 1.392 . S
C728 C699 1.392 . S
C728 C701 1.389 . S
C729 C704 1.395 . S
C729 C706 1.391 . S
H730 C690 0.951 . S
H731 C691 0.950 . S
H732 C697 0.949 . S
H733 C698 0.950 . S
H734 C702 0.951 . S
H735 C703 0.950 . S
H736 C707 0.949 . S
H737 C708 0.950 . S
H738 C712 0.950 . S
H739 C714 0.950 . S
H740 C717 0.950 . S
H741 C719 0.950 . S
C742 C743 1.443 . S
C742 N746 1.376 . S
C742 C780 1.389 . S
C743 C742 1.443 . S
C743 C744 1.340 . S
C743 H783 0.951 . S
C744 C743 1.340 . S
C744 C745 1.439 . S
C744 H784 0.950 . S
C745 C744 1.439 . S
C745 N746 1.374 . S
C745 C779 1.395 . S
N746 C742 1.376 . S
N746 C745 1.374 . S
N746 Co747 2.008 . S
Co747 N746 2.008 . S
Co747 N748 1.995 . S
Co747 N753 2.008 . S
Co747 N758 1.995 . S
Co747 N763 2.282 . S
Co747 N769 2.282 . S
N748 Co747 1.995 . S
N748 C749 1.376 . S
N748 C752 1.383 . S
C749 N748 1.376 . S
C749 C750 1.446 . S
C749 C779 1.391 . S
C750 C749 1.446 . S
C750 C751 1.339 . S
C750 H785 0.949 . S
C751 C750 1.339 . S
C751 C752 1.439 . S
C751 H786 0.950 . S
C752 N748 1.383 . S
C752 C751 1.439 . S
C752 C781 1.392 . S
N753 Co747 2.008 . S
N753 C754 1.376 . S
N753 C757 1.374 . S
C754 N753 1.376 . S
C754 C755 1.443 . S
C754 C781 1.389 . S
C755 C754 1.443 . S
C755 C756 1.340 . S
C755 H787 0.951 . S
C756 C755 1.340 . S
C756 C757 1.439 . S
C756 H788 0.950 . S
C757 N753 1.374 . S
C757 C756 1.439 . S
C757 C782 1.395 . S
N758 Co747 1.995 . S
N758 C759 1.376 . S
N758 C762 1.383 . S
C759 N758 1.376 . S
C759 C760 1.446 . S
C759 C782 1.391 . S
C760 C759 1.446 . S
C760 C761 1.339 . S
C760 H789 0.949 . S
C761 C760 1.339 . S
C761 C762 1.439 . S
C761 H790 0.950 . S
C762 N758 1.383 . S
C762 C761 1.439 . S
C762 C780 1.392 . S
N763 Co747 2.282 . S
N763 C766 1.332 . S
N763 C768 1.332 . S
C764 C765 1.386 . S
C764 C767 1.388 . S
C765 C764 1.386 . S
C765 C766 1.382 . S
C765 H791 0.950 . S
C766 N763 1.332 . S
C766 C765 1.382 . S
C766 H777 0.952 . S
C767 C764 1.388 . S
C767 C768 1.382 . S
C767 H792 0.950 . S
C768 N763 1.332 . S
C768 C767 1.382 . S
C768 H778 0.948 . S
N769 Co747 2.282 . S
N769 C773 1.332 . S
N769 C774 1.332 . S
C770 C771 1.388 . S
C770 C774 1.382 . S
C770 H793 0.950 . S
C771 C770 1.388 . S
C771 C772 1.386 . S
C772 C771 1.386 . S
C772 C773 1.382 . S
C772 H794 0.950 . S
C773 N769 1.332 . S
C773 C772 1.382 . S
C773 H775 0.952 . S
C774 N769 1.332 . S
C774 C770 1.382 . S
C774 H776 0.948 . S
H775 C773 0.952 . S
H776 C774 0.948 . S
H777 C766 0.952 . S
H778 C768 0.948 . S
C779 C745 1.395 . S
C779 C749 1.391 . S
C780 C742 1.389 . S
C780 C762 1.392 . S
C781 C752 1.392 . S
C781 C754 1.389 . S
C782 C757 1.395 . S
C782 C759 1.391 . S
H783 C743 0.951 . S
H784 C744 0.950 . S
H785 C750 0.949 . S
H786 C751 0.950 . S
H787 C755 0.951 . S
H788 C756 0.950 . S
H789 C760 0.949 . S
H790 C761 0.950 . S
H791 C765 0.950 . S
H792 C767 0.950 . S
H793 C770 0.950 . S
H794 C772 0.950 . S
C795 C796 1.443 . S
C795 N799 1.376 . S
C795 C833 1.389 . S
C796 C795 1.443 . S
C796 C797 1.340 . S
C796 H836 0.951 . S
C797 C796 1.340 . S
C797 C798 1.439 . S
C797 H837 0.950 . S
C798 C797 1.439 . S
C798 N799 1.374 . S
C798 C832 1.395 . S
N799 C795 1.376 . S
N799 C798 1.374 . S
N799 Co800 2.008 . S
Co800 N799 2.008 . S
Co800 N801 1.995 . S
Co800 N806 2.008 . S
Co800 N811 1.995 . S
Co800 N816 2.282 . S
Co800 N822 2.282 . S
N801 Co800 1.995 . S
N801 C802 1.376 . S
N801 C805 1.383 . S
C802 N801 1.376 . S
C802 C803 1.446 . S
C802 C832 1.391 . S
C803 C802 1.446 . S
C803 C804 1.339 . S
C803 H838 0.949 . S
C804 C803 1.339 . S
C804 C805 1.439 . S
C804 H839 0.950 . S
C805 N801 1.383 . S
C805 C804 1.439 . S
C805 C834 1.392 . S
N806 Co800 2.008 . S
N806 C807 1.376 . S
N806 C810 1.374 . S
C807 N806 1.376 . S
C807 C808 1.443 . S
C807 C834 1.389 . S
C808 C807 1.443 . S
C808 C809 1.340 . S
C808 H840 0.951 . S
C809 C808 1.340 . S
C809 C810 1.439 . S
C809 H841 0.950 . S
C810 N806 1.374 . S
C810 C809 1.439 . S
C810 C835 1.395 . S
N811 Co800 1.995 . S
N811 C812 1.376 . S
N811 C815 1.383 . S
C812 N811 1.376 . S
C812 C813 1.446 . S
C812 C835 1.391 . S
C813 C812 1.446 . S
C813 C814 1.339 . S
C813 H842 0.949 . S
C814 C813 1.339 . S
C814 C815 1.439 . S
C814 H843 0.950 . S
C815 N811 1.383 . S
C815 C814 1.439 . S
C815 C833 1.392 . S
N816 Co800 2.282 . S
N816 C819 1.332 . S
N816 C821 1.332 . S
C817 C818 1.386 . S
C817 C820 1.388 . S
C818 C817 1.386 . S
C818 C819 1.382 . S
C818 H844 0.950 . S
C819 N816 1.332 . S
C819 C818 1.382 . S
C819 H830 0.952 . S
C820 C817 1.388 . S
C820 C821 1.382 . S
C820 H845 0.950 . S
C821 N816 1.332 . S
C821 C820 1.382 . S
C821 H831 0.948 . S
N822 Co800 2.282 . S
N822 C826 1.332 . S
N822 C827 1.332 . S
C823 C824 1.388 . S
C823 C827 1.382 . S
C823 H846 0.950 . S
C824 C823 1.388 . S
C824 C825 1.386 . S
C825 C824 1.386 . S
C825 C826 1.382 . S
C825 H847 0.950 . S
C826 N822 1.332 . S
C826 C825 1.382 . S
C826 H828 0.952 . S
C827 N822 1.332 . S
C827 C823 1.382 . S
C827 H829 0.948 . S
H828 C826 0.952 . S
H829 C827 0.948 . S
H830 C819 0.952 . S
H831 C821 0.948 . S
C832 C798 1.395 . S
C832 C802 1.391 . S
C833 C795 1.389 . S
C833 C815 1.392 . S
C834 C805 1.392 . S
C834 C807 1.389 . S
C835 C810 1.395 . S
C835 C812 1.391 . S
H836 C796 0.951 . S
H837 C797 0.950 . S
H838 C803 0.949 . S
H839 C804 0.950 . S
H840 C808 0.951 . S
H841 C809 0.950 . S
H842 C813 0.949 . S
H843 C814 0.950 . S
H844 C818 0.950 . S
H845 C820 0.950 . S
H846 C823 0.950 . S
H847 C825 0.950 . S
C848 C849 1.443 . S
C848 N852 1.376 . S
C848 C886 1.389 . S
C849 C848 1.443 . S
C849 C850 1.340 . S
C849 H889 0.951 . S
C850 C849 1.340 . S
C850 C851 1.439 . S
C850 H890 0.950 . S
C851 C850 1.439 . S
C851 N852 1.374 . S
C851 C885 1.395 . S
N852 C848 1.376 . S
N852 C851 1.374 . S
N852 Co853 2.008 . S
Co853 N852 2.008 . S
Co853 N854 1.995 . S
Co853 N859 2.008 . S
Co853 N864 1.995 . S
Co853 N869 2.282 . S
Co853 N875 2.282 . S
N854 Co853 1.995 . S
N854 C855 1.376 . S
N854 C858 1.383 . S
C855 N854 1.376 . S
C855 C856 1.446 . S
C855 C885 1.391 . S
C856 C855 1.446 . S
C856 C857 1.339 . S
C856 H891 0.949 . S
C857 C856 1.339 . S
C857 C858 1.439 . S
C857 H892 0.950 . S
C858 N854 1.383 . S
C858 C857 1.439 . S
C858 C887 1.392 . S
N859 Co853 2.008 . S
N859 C860 1.376 . S
N859 C863 1.374 . S
C860 N859 1.376 . S
C860 C861 1.443 . S
C860 C887 1.389 . S
C861 C860 1.443 . S
C861 C862 1.340 . S
C861 H893 0.951 . S
C862 C861 1.340 . S
C862 C863 1.439 . S
C862 H894 0.950 . S
C863 N859 1.374 . S
C863 C862 1.439 . S
C863 C888 1.395 . S
N864 Co853 1.995 . S
N864 C865 1.376 . S
N864 C868 1.383 . S
C865 N864 1.376 . S
C865 C866 1.446 . S
C865 C888 1.391 . S
C866 C865 1.446 . S
C866 C867 1.339 . S
C866 H895 0.949 . S
C867 C866 1.339 . S
C867 C868 1.439 . S
C867 H896 0.950 . S
C868 N864 1.383 . S
C868 C867 1.439 . S
C868 C886 1.392 . S
N869 Co853 2.282 . S
N869 C872 1.332 . S
N869 C874 1.332 . S
C870 C871 1.386 . S
C870 C873 1.388 . S
C871 C870 1.386 . S
C871 C872 1.382 . S
C871 H897 0.950 . S
C872 N869 1.332 . S
C872 C871 1.382 . S
C872 H883 0.952 . S
C873 C870 1.388 . S
C873 C874 1.382 . S
C873 H898 0.950 . S
C874 N869 1.332 . S
C874 C873 1.382 . S
C874 H884 0.948 . S
N875 Co853 2.282 . S
N875 C879 1.332 . S
N875 C880 1.332 . S
C876 C877 1.388 . S
C876 C880 1.382 . S
C876 H899 0.950 . S
C877 C876 1.388 . S
C877 C878 1.386 . S
C878 C877 1.386 . S
C878 C879 1.382 . S
C878 H900 0.950 . S
C879 N875 1.332 . S
C879 C878 1.382 . S
C879 H881 0.952 . S
C880 N875 1.332 . S
C880 C876 1.382 . S
C880 H882 0.948 . S
H881 C879 0.952 . S
H882 C880 0.948 . S
H883 C872 0.952 . S
H884 C874 0.948 . S
C885 C851 1.395 . S
C885 C855 1.391 . S
C886 C848 1.389 . S
C886 C868 1.392 . S
C887 C858 1.392 . S
C887 C860 1.389 . S
C888 C863 1.395 . S
C888 C865 1.391 . S
H889 C849 0.951 . S
H890 C850 0.950 . S
H891 C856 0.949 . S
H892 C857 0.950 . S
H893 C861 0.951 . S
H894 C862 0.950 . S
H895 C866 0.949 . S
H896 C867 0.950 . S
H897 C871 0.950 . S
H898 C873 0.950 . S
H899 C876 0.950 . S
H900 C878 0.950 . S
C901 C902 1.443 . S
C901 N905 1.376 . S
C901 C939 1.389 . S
C902 C901 1.443 . S
C902 C903 1.340 . S
C902 H942 0.951 . S
C903 C902 1.340 . S
C903 C904 1.439 . S
C903 H943 0.950 . S
C904 C903 1.439 . S
C904 N905 1.374 . S
C904 C938 1.395 . S
N905 C901 1.376 . S
N905 C904 1.374 . S
N905 Co906 2.008 . S
Co906 N905 2.008 . S
Co906 N907 1.995 . S
Co906 N912 2.008 . S
Co906 N917 1.995 . S
Co906 N922 2.282 . S
Co906 N928 2.282 . S
N907 Co906 1.995 . S
N907 C908 1.376 . S
N907 C911 1.383 . S
C908 N907 1.376 . S
C908 C909 1.446 . S
C908 C938 1.391 . S
C909 C908 1.446 . S
C909 C910 1.339 . S
C909 H944 0.949 . S
C910 C909 1.339 . S
C910 C911 1.439 . S
C910 H945 0.950 . S
C911 N907 1.383 . S
C911 C910 1.439 . S
C911 C940 1.392 . S
N912 Co906 2.008 . S
N912 C913 1.376 . S
N912 C916 1.374 . S
C913 N912 1.376 . S
C913 C914 1.443 . S
C913 C940 1.389 . S
C914 C913 1.443 . S
C914 C915 1.340 . S
C914 H946 0.951 . S
C915 C914 1.340 . S
C915 C916 1.439 . S
C915 H947 0.950 . S
C916 N912 1.374 . S
C916 C915 1.439 . S
C916 C941 1.395 . S
N917 Co906 1.995 . S
N917 C918 1.376 . S
N917 C921 1.383 . S
C918 N917 1.376 . S
C918 C919 1.446 . S
C918 C941 1.391 . S
C919 C918 1.446 . S
C919 C920 1.339 . S
C919 H948 0.949 . S
C920 C919 1.339 . S
C920 C921 1.439 . S
C920 H949 0.950 . S
C921 N917 1.383 . S
C921 C920 1.439 . S
C921 C939 1.392 . S
N922 Co906 2.282 . S
N922 C925 1.332 . S
N922 C927 1.332 . S
C923 C924 1.386 . S
C923 C926 1.388 . S
C924 C923 1.386 . S
C924 C925 1.382 . S
C924 H950 0.950 . S
C925 N922 1.332 . S
C925 C924 1.382 . S
C925 H936 0.952 . S
C926 C923 1.388 . S
C926 C927 1.382 . S
C926 H951 0.950 . S
C927 N922 1.332 . S
C927 C926 1.382 . S
C927 H937 0.948 . S
N928 Co906 2.282 . S
N928 C932 1.332 . S
N928 C933 1.332 . S
C929 C930 1.388 . S
C929 C933 1.382 . S
C929 H952 0.950 . S
C930 C929 1.388 . S
C930 C931 1.386 . S
C931 C930 1.386 . S
C931 C932 1.382 . S
C931 H953 0.950 . S
C932 N928 1.332 . S
C932 C931 1.382 . S
C932 H934 0.952 . S
C933 N928 1.332 . S
C933 C929 1.382 . S
C933 H935 0.948 . S
H934 C932 0.952 . S
H935 C933 0.948 . S
H936 C925 0.952 . S
H937 C927 0.948 . S
C938 C904 1.395 . S
C938 C908 1.391 . S
C939 C901 1.389 . S
C939 C921 1.392 . S
C940 C911 1.392 . S
C940 C913 1.389 . S
C941 C916 1.395 . S
C941 C918 1.391 . S
H942 C902 0.951 . S
H943 C903 0.950 . S
H944 C909 0.949 . S
H945 C910 0.950 . S
H946 C914 0.951 . S
H947 C915 0.950 . S
H948 C919 0.949 . S
H949 C920 0.950 . S
H950 C924 0.950 . S
H951 C926 0.950 . S
H952 C929 0.950 . S
H953 C931 0.950 . S
H954 C960 0.930 . S
H955 C964 0.930 . S
H956 C969 0.929 . S
H957 C967 0.929 . S
H958 C962 0.929 . S
H959 C968 0.929 . S
C960 H954 0.930 . S
C960 C961 1.386 . S
C960 C968 1.378 . S
C961 C960 1.386 . S
C961 C969 1.414 1_455 S
C962 H958 0.929 . S
C962 C964 1.378 . S
C962 C966 1.356 . S
C963 C966 1.461 1_455 S
C963 C968 1.381 . S
C963 N971 1.398 1_455 S
C964 H955 0.930 . S
C964 C962 1.378 . S
C964 C965 1.369 1_655 S
C965 C964 1.369 1_455 S
C965 C967 1.431 . S
C966 C962 1.356 . S
C966 C963 1.461 1_655 S
C966 N970 1.421 1_655 S
C967 H957 0.929 . S
C967 C965 1.431 . S
C967 N970 1.384 . S
C968 H959 0.929 . S
C968 C960 1.378 . S
C968 C963 1.381 . S
C969 H956 0.929 . S
C969 C961 1.414 1_655 S
C969 N971 1.384 . S
N970 C966 1.421 1_455 S
N970 C967 1.384 . S
N971 C963 1.398 1_655 S
N971 C969 1.384 . S
H972 C978 0.930 . S
H973 C982 0.930 . S
H974 C987 0.929 . S
H975 C985 0.929 . S
H976 C980 0.929 . S
H977 C986 0.929 . S
C978 H972 0.930 . S
C978 C979 1.367 . S
C978 C986 1.378 . S
C979 C978 1.367 . S
C979 C987 1.433 . S
C980 H976 0.929 . S
C980 C982 1.378 . S
C980 C984 1.350 . S
C981 C984 1.463 . S
C981 C986 1.350 . S
C981 N989 1.427 . S
C982 H973 0.930 . S
C982 C980 1.378 . S
C982 C983 1.367 . S
C983 C982 1.367 . S
C983 C985 1.433 . S
C984 C980 1.350 . S
C984 C981 1.463 . S
C984 N988 1.427 . S
C985 H975 0.929 . S
C985 C983 1.433 . S
C985 N988 1.384 . S
C986 H977 0.929 . S
C986 C978 1.378 . S
C986 C981 1.350 . S
C987 H974 0.929 . S
C987 C979 1.433 . S
C987 N989 1.384 . S
N988 C984 1.427 . S
N988 C985 1.384 . S
N989 C981 1.427 . S
N989 C987 1.384 . S
H990 C996 0.930 . S
H991 C1000 0.930 . S
H992 C1005 0.929 . S
H993 C1003 0.929 . S
H994 C998 0.929 . S
H995 C1004 0.929 . S
C996 H990 0.930 . S
C996 C997 1.367 . S
C996 C1004 1.378 . S
C997 C996 1.367 . S
C997 C1005 1.433 1_545 S
C998 H994 0.929 . S
C998 C1000 1.378 . S
C998 C1002 1.350 1_565 S
C999 C1002 1.463 . S
C999 C1004 1.350 . S
C999 N1007 1.427 1_545 S
C1000 H991 0.930 . S
C1000 C998 1.378 . S
C1000 C1001 1.367 1_565 S
C1001 C1000 1.367 1_545 S
C1001 C1003 1.433 . S
C1002 C998 1.350 1_545 S
C1002 C999 1.463 . S
C1002 N1006 1.427 . S
C1003 H993 0.929 . S
C1003 C1001 1.433 . S
C1003 N1006 1.384 . S
C1004 H995 0.929 . S
C1004 C996 1.378 . S
C1004 C999 1.350 . S
C1005 H992 0.929 . S
C1005 C997 1.433 1_565 S
C1005 N1007 1.384 . S
N1006 C1002 1.427 . S
N1006 C1003 1.384 . S
N1007 C999 1.427 1_565 S
N1007 C1005 1.384 . S
H1008 C1014 0.930 . S
H1009 C1018 0.930 . S
H1010 C1023 0.929 . S
H1011 C1021 0.929 . S
H1012 C1016 0.929 . S
H1013 C1022 0.929 . S
C1014 H1008 0.930 . S
C1014 C1015 1.355 1_655 S
C1014 C1022 1.378 . S
C1015 C1014 1.355 1_455 S
C1015 C1023 1.445 . S
C1016 H1012 0.929 . S
C1016 C1018 1.378 . S
C1016 C1020 1.367 . S
C1017 C1020 1.462 . S
C1017 C1022 1.341 1_455 S
C1017 N1025 1.436 . S
C1018 H1009 0.930 . S
C1018 C1016 1.378 . S
C1018 C1019 1.380 . S
C1019 C1018 1.380 . S
C1019 C1021 1.420 1_455 S
C1020 C1016 1.367 . S
C1020 C1017 1.462 . S
C1020 N1024 1.411 1_455 S
C1021 H1011 0.929 . S
C1021 C1019 1.420 1_655 S
C1021 N1024 1.384 . S
C1022 H1013 0.929 . S
C1022 C1014 1.378 . S
C1022 C1017 1.341 1_655 S
C1023 H1010 0.929 . S
C1023 C1015 1.445 . S
C1023 N1025 1.384 . S
N1024 C1020 1.411 1_655 S
N1024 C1021 1.384 . S
N1025 C1017 1.436 . S
N1025 C1023 1.384 . S
H1026 C1032 0.930 . S
H1027 C1036 0.930 . S
H1028 C1041 0.929 . S
H1029 C1039 0.929 . S
H1030 C1034 0.929 . S
H1031 C1040 0.929 . S
C1032 H1026 0.930 . S
C1032 C1033 1.367 . S
C1032 C1040 1.378 . S
C1033 C1032 1.367 . S
C1033 C1041 1.433 . S
C1034 H1030 0.929 . S
C1034 C1036 1.378 . S
C1034 C1038 1.350 . S
C1035 C1038 1.463 . S
C1035 C1040 1.350 . S
C1035 N1043 1.427 . S
C1036 H1027 0.930 . S
C1036 C1034 1.378 . S
C1036 C1037 1.367 . S
C1037 C1036 1.367 . S
C1037 C1039 1.433 . S
C1038 C1034 1.350 . S
C1038 C1035 1.463 . S
C1038 N1042 1.427 . S
C1039 H1029 0.929 . S
C1039 C1037 1.433 . S
C1039 N1042 1.384 . S
C1040 H1031 0.929 . S
C1040 C1032 1.378 . S
C1040 C1035 1.350 . S
C1041 H1028 0.929 . S
C1041 C1033 1.433 . S
C1041 N1043 1.384 . S
N1042 C1038 1.427 . S
N1042 C1039 1.384 . S
N1043 C1035 1.427 . S
N1043 C1041 1.384 . S
H1044 C1050 0.930 . S
H1045 C1054 0.930 . S
H1046 C1059 0.929 . S
H1047 C1057 0.929 . S
H1048 C1052 0.929 . S
H1049 C1058 0.929 . S
C1050 H1044 0.930 . S
C1050 C1051 1.367 . S
C1050 C1058 1.378 . S
C1051 C1050 1.367 . S
C1051 C1059 1.433 1_545 S
C1052 H1048 0.929 . S
C1052 C1054 1.378 . S
C1052 C1056 1.350 1_565 S
C1053 C1056 1.463 . S
C1053 C1058 1.350 . S
C1053 N1061 1.427 1_545 S
C1054 H1045 0.930 . S
C1054 C1052 1.378 . S
C1054 C1055 1.367 1_565 S
C1055 C1054 1.367 1_545 S
C1055 C1057 1.433 . S
C1056 C1052 1.350 1_545 S
C1056 C1053 1.463 . S
C1056 N1060 1.427 . S
C1057 H1047 0.929 . S
C1057 C1055 1.433 . S
C1057 N1060 1.384 . S
C1058 H1049 0.929 . S
C1058 C1050 1.378 . S
C1058 C1053 1.350 . S
C1059 H1046 0.929 . S
C1059 C1051 1.433 1_565 S
C1059 N1061 1.384 . S
N1060 C1056 1.427 . S
N1060 C1057 1.384 . S
N1061 C1053 1.427 1_565 S
N1061 C1059 1.384 . S
H1062 C1068 0.930 . S
H1063 C1072 0.930 . S
H1064 C1077 0.929 . S
H1065 C1075 0.929 . S
H1066 C1070 0.929 . S
H1067 C1076 0.929 . S
C1068 H1062 0.930 . S
C1068 C1069 1.367 . S
C1068 C1076 1.378 . S
C1069 C1068 1.367 . S
C1069 C1077 1.433 . S
C1070 H1066 0.929 . S
C1070 C1072 1.378 . S
C1070 C1074 1.350 . S
C1071 C1074 1.463 . S
C1071 C1076 1.350 . S
C1071 N1079 1.427 . S
C1072 H1063 0.930 . S
C1072 C1070 1.378 . S
C1072 C1073 1.367 . S
C1073 C1072 1.367 . S
C1073 C1075 1.433 . S
C1074 C1070 1.350 . S
C1074 C1071 1.463 . S
C1074 N1078 1.427 . S
C1075 H1065 0.929 . S
C1075 C1073 1.433 . S
C1075 N1078 1.384 . S
C1076 H1067 0.929 . S
C1076 C1068 1.378 . S
C1076 C1071 1.350 . S
C1077 H1064 0.929 . S
C1077 C1069 1.433 . S
C1077 N1079 1.384 . S
N1078 C1074 1.427 . S
N1078 C1075 1.384 . S
N1079 C1071 1.427 . S
N1079 C1077 1.384 . S
H1080 C1086 0.930 . S
H1081 C1090 0.930 . S
H1082 C1095 0.929 . S
H1083 C1093 0.929 . S
H1084 C1088 0.929 . S
H1085 C1094 0.929 . S
C1086 H1080 0.930 . S
C1086 C1087 1.367 . S
C1086 C1094 1.378 . S
C1087 C1086 1.367 . S
C1087 C1095 1.433 . S
C1088 H1084 0.929 . S
C1088 C1090 1.378 . S
C1088 C1092 1.350 . S
C1089 C1092 1.463 . S
C1089 C1094 1.350 . S
C1089 N1097 1.427 . S
C1090 H1081 0.930 . S
C1090 C1088 1.378 . S
C1090 C1091 1.367 . S
C1091 C1090 1.367 . S
C1091 C1093 1.433 . S
C1092 C1088 1.350 . S
C1092 C1089 1.463 . S
C1092 N1096 1.427 . S
C1093 H1083 0.929 . S
C1093 C1091 1.433 . S
C1093 N1096 1.384 . S
C1094 H1085 0.929 . S
C1094 C1086 1.378 . S
C1094 C1089 1.350 . S
C1095 H1082 0.929 . S
C1095 C1087 1.433 . S
C1095 N1097 1.384 . S
N1096 C1092 1.427 . S
N1096 C1093 1.384 . S
N1097 C1089 1.427 . S
N1097 C1095 1.384 . S
H1098 C1104 0.930 . S
H1099 C1108 0.930 . S
H1100 C1113 0.929 . S
H1101 C1111 0.929 . S
H1102 C1106 0.929 . S
H1103 C1112 0.929 . S
C1104 H1098 0.930 . S
C1104 C1105 1.367 . S
C1104 C1112 1.378 . S
C1105 C1104 1.367 . S
C1105 C1113 1.433 . S
C1106 H1102 0.929 . S
C1106 C1108 1.378 . S
C1106 C1110 1.350 . S
C1107 C1110 1.463 . S
C1107 C1112 1.350 . S
C1107 N1115 1.427 . S
C1108 H1099 0.930 . S
C1108 C1106 1.378 . S
C1108 C1109 1.367 . S
C1109 C1108 1.367 . S
C1109 C1111 1.433 . S
C1110 C1106 1.350 . S
C1110 C1107 1.463 . S
C1110 N1114 1.427 . S
C1111 H1101 0.929 . S
C1111 C1109 1.433 . S
C1111 N1114 1.384 . S
C1112 H1103 0.929 . S
C1112 C1104 1.378 . S
C1112 C1107 1.350 . S
C1113 H1100 0.929 . S
C1113 C1105 1.433 . S
C1113 N1115 1.384 . S
N1114 C1110 1.427 . S
N1114 C1111 1.384 . S
N1115 C1107 1.427 . S
N1115 C1113 1.384 . S
H1116 C1122 0.930 . S
H1117 C1126 0.930 . S
H1118 C1131 0.929 . S
H1119 C1129 0.929 . S
H1120 C1124 0.929 . S
H1121 C1130 0.929 . S
C1122 H1116 0.930 . S
C1122 C1123 1.367 . S
C1122 C1130 1.378 . S
C1123 C1122 1.367 . S
C1123 C1131 1.433 . S
C1124 H1120 0.929 . S
C1124 C1126 1.378 . S
C1124 C1128 1.350 . S
C1125 C1128 1.463 . S
C1125 C1130 1.350 . S
C1125 N1133 1.427 . S
C1126 H1117 0.930 . S
C1126 C1124 1.378 . S
C1126 C1127 1.367 1_554 S
C1127 C1126 1.367 1_556 S
C1127 C1129 1.433 1_556 S
C1128 C1124 1.350 . S
C1128 C1125 1.463 . S
C1128 N1132 1.427 . S
C1129 H1119 0.929 . S
C1129 C1127 1.433 1_554 S
C1129 N1132 1.384 . S
C1130 H1121 0.929 . S
C1130 C1122 1.378 . S
C1130 C1125 1.350 . S
C1131 H1118 0.929 . S
C1131 C1123 1.433 . S
C1131 N1133 1.384 . S
N1132 C1128 1.427 . S
N1132 C1129 1.384 . S
N1133 C1125 1.427 . S
N1133 C1131 1.384 . S
H1134 C1140 0.930 . S
H1135 C1144 0.930 . S
H1136 C1149 0.930 . S
H1137 C1147 0.929 . S
H1138 C1142 0.929 . S
H1139 C1148 0.929 . S
C1140 H1134 0.930 . S
C1140 C1141 1.367 1_554 S
C1140 C1148 1.378 . S
C1141 C1140 1.367 1_556 S
C1141 C1149 1.433 1_556 S
C1142 H1138 0.929 . S
C1142 C1144 1.378 . S
C1142 C1146 1.350 . S
C1143 C1146 1.463 . S
C1143 C1148 1.350 . S
C1143 N1151 1.427 . S
C1144 H1135 0.930 . S
C1144 C1142 1.378 . S
C1144 C1145 1.367 . S
C1145 C1144 1.367 . S
C1145 C1147 1.433 . S
C1146 C1142 1.350 . S
C1146 C1143 1.463 . S
C1146 N1150 1.427 . S
C1147 H1137 0.929 . S
C1147 C1145 1.433 . S
C1147 N1150 1.384 . S
C1148 H1139 0.929 . S
C1148 C1140 1.378 . S
C1148 C1143 1.350 . S
C1149 H1136 0.930 . S
C1149 C1141 1.433 1_554 S
C1149 N1151 1.384 . S
N1150 C1146 1.427 . S
N1150 C1147 1.384 . S
N1151 C1143 1.427 . S
N1151 C1149 1.384 . S
H1152 C1158 0.930 . S
H1153 C1162 0.930 . S
H1154 C1167 0.925 1_556 S
H1155 C1165 0.929 . S
H1156 C1160 0.929 . S
H1157 C1166 0.929 . S
C1158 H1152 0.930 . S
C1158 C1159 1.367 1_554 S
C1158 C1166 1.378 . S
C1159 C1158 1.367 1_556 S
C1159 C1167 1.433 1_556 S
C1160 H1156 0.929 . S
C1160 C1162 1.378 . S
C1160 C1164 1.350 . S
C1161 C1164 1.463 . S
C1161 C1166 1.350 . S
C1161 N1169 1.427 . S
C1162 H1153 0.930 . S
C1162 C1160 1.378 . S
C1162 C1163 1.367 . S
C1163 C1162 1.367 . S
C1163 C1165 1.433 . S
C1164 C1160 1.350 . S
C1164 C1161 1.463 . S
C1164 N1168 1.427 . S
C1165 H1155 0.929 . S
C1165 C1163 1.433 . S
C1165 N1168 1.384 . S
C1166 H1157 0.929 . S
C1166 C1158 1.378 . S
C1166 C1161 1.350 . S
C1167 H1154 0.925 1_554 S
C1167 C1159 1.433 1_554 S
C1167 N1169 1.384 . S
N1168 C1164 1.427 . S
N1168 C1165 1.384 . S
N1169 C1161 1.427 . S
N1169 C1167 1.384 . S
H1170 C1176 0.930 . S
H1171 C1180 0.930 . S
H1172 C1185 0.929 . S
H1173 C1183 0.929 . S
H1174 C1178 0.929 . S
H1175 C1184 0.929 . S
C1176 H1170 0.930 . S
C1176 C1177 1.367 . S
C1176 C1184 1.378 1_554 S
C1177 C1176 1.367 . S
C1177 C1185 1.433 . S
C1178 H1174 0.929 . S
C1178 C1180 1.378 . S
C1178 C1182 1.350 . S
C1179 C1182 1.463 . S
C1179 C1184 1.350 . S
C1179 N1187 1.427 . S
C1180 H1171 0.930 . S
C1180 C1178 1.378 . S
C1180 C1181 1.367 . S
C1181 C1180 1.367 . S
C1181 C1183 1.433 . S
C1182 C1178 1.350 . S
C1182 C1179 1.463 . S
C1182 N1186 1.427 . S
C1183 H1173 0.929 . S
C1183 C1181 1.433 . S
C1183 N1186 1.384 . S
C1184 H1175 0.929 . S
C1184 C1176 1.378 1_556 S
C1184 C1179 1.350 . S
C1185 H1172 0.929 . S
C1185 C1177 1.433 . S
C1185 N1187 1.384 1_554 S
N1186 C1182 1.427 . S
N1186 C1183 1.384 . S
N1187 C1179 1.427 . S
N1187 C1185 1.384 1_556 S
H1188 C1194 0.930 . S
H1189 C1198 0.930 . S
H1190 C1203 0.929 . S
H1191 C1201 0.929 . S
H1192 C1196 0.929 . S
H1193 C1202 0.929 . S
C1194 H1188 0.930 . S
C1194 C1195 1.367 . S
C1194 C1202 1.378 . S
C1195 C1194 1.367 . S
C1195 C1203 1.433 . S
C1196 H1192 0.929 . S
C1196 C1198 1.378 1_556 S
C1196 C1200 1.350 . S
C1197 C1200 1.463 . S
C1197 C1202 1.350 . S
C1197 N1205 1.427 . S
C1198 H1189 0.930 . S
C1198 C1196 1.378 1_554 S
C1198 C1199 1.367 . S
C1199 C1198 1.367 . S
C1199 C1201 1.433 . S
C1200 C1196 1.350 . S
C1200 C1197 1.463 . S
C1200 N1204 1.427 . S
C1201 H1191 0.929 . S
C1201 C1199 1.433 . S
C1201 N1204 1.384 1_554 S
C1202 H1193 0.929 . S
C1202 C1194 1.378 . S
C1202 C1197 1.350 . S
C1203 H1190 0.929 . S
C1203 C1195 1.433 . S
C1203 N1205 1.384 . S
N1204 C1200 1.427 . S
N1204 C1201 1.384 1_556 S
N1205 C1197 1.427 . S
N1205 C1203 1.384 . S
H1206 C1212 0.930 . S
H1207 C1216 0.930 . S
H1208 C1221 0.929 . S
H1209 C1219 0.929 . S
H1210 C1214 0.929 . S
H1211 C1220 0.929 . S
C1212 H1206 0.930 . S
C1212 C1213 1.367 . S
C1212 C1220 1.378 1_554 S
C1213 C1212 1.367 . S
C1213 C1221 1.433 . S
C1214 H1210 0.929 . S
C1214 C1216 1.378 . S
C1214 C1218 1.350 . S
C1215 C1218 1.463 . S
C1215 C1220 1.350 . S
C1215 N1223 1.427 . S
C1216 H1207 0.930 . S
C1216 C1214 1.378 . S
C1216 C1217 1.367 . S
C1217 C1216 1.367 . S
C1217 C1219 1.433 . S
C1218 C1214 1.350 . S
C1218 C1215 1.463 . S
C1218 N1222 1.427 . S
C1219 H1209 0.929 . S
C1219 C1217 1.433 . S
C1219 N1222 1.384 . S
C1220 H1211 0.929 . S
C1220 C1212 1.378 1_556 S
C1220 C1215 1.350 . S
C1221 H1208 0.929 . S
C1221 C1213 1.433 . S
C1221 N1223 1.384 1_554 S
N1222 C1218 1.427 . S
N1222 C1219 1.384 . S
N1223 C1215 1.427 . S
N1223 C1221 1.384 1_556 S
H1224 C1230 0.930 . S
H1225 C1234 0.930 . S
H1226 C1239 0.929 . S
H1227 C1237 0.929 . S
H1228 C1232 0.929 . S
H1229 C1238 0.929 . S
C1230 H1224 0.930 . S
C1230 C1231 1.367 . S
C1230 C1238 1.378 . S
C1231 C1230 1.367 . S
C1231 C1239 1.433 . S
C1232 H1228 0.929 . S
C1232 C1234 1.378 . S
C1232 C1236 1.350 . S
C1233 C1236 1.463 . S
C1233 C1238 1.350 . S
C1233 N1241 1.427 . S
C1234 H1225 0.930 . S
C1234 C1232 1.378 . S
C1234 C1235 1.367 . S
C1235 C1234 1.367 . S
C1235 C1237 1.433 . S
C1236 C1232 1.350 . S
C1236 C1233 1.463 . S
C1236 N1240 1.427 . S
C1237 H1227 0.929 . S
C1237 C1235 1.433 . S
C1237 N1240 1.384 . S
C1238 H1229 0.929 . S
C1238 C1230 1.378 . S
C1238 C1233 1.350 . S
C1239 H1226 0.929 . S
C1239 C1231 1.433 . S
C1239 N1241 1.384 . S
N1240 C1236 1.427 . S
N1240 C1237 1.384 . S
N1241 C1233 1.427 . S
N1241 C1239 1.384 . S
H1242 C1248 0.930 . S
H1243 C1252 0.930 . S
H1244 C1257 0.929 . S
H1245 C1255 0.929 . S
H1246 C1250 0.929 . S
H1247 C1256 0.929 . S
C1248 H1242 0.930 . S
C1248 C1249 1.367 . S
C1248 C1256 1.378 . S
C1249 C1248 1.367 . S
C1249 C1257 1.433 . S
C1250 H1246 0.929 . S
C1250 C1252 1.378 . S
C1250 C1254 1.350 . S
C1251 C1254 1.463 . S
C1251 C1256 1.350 . S
C1251 N1259 1.427 . S
C1252 H1243 0.930 . S
C1252 C1250 1.378 . S
C1252 C1253 1.367 . S
C1253 C1252 1.367 . S
C1253 C1255 1.433 . S
C1254 C1250 1.350 . S
C1254 C1251 1.463 . S
C1254 N1258 1.427 . S
C1255 H1245 0.929 . S
C1255 C1253 1.433 . S
C1255 N1258 1.384 . S
C1256 H1247 0.929 . S
C1256 C1248 1.378 . S
C1256 C1251 1.350 . S
C1257 H1244 0.929 . S
C1257 C1249 1.433 . S
C1257 N1259 1.384 . S
N1258 C1254 1.427 . S
N1258 C1255 1.384 . S
N1259 C1251 1.427 . S
N1259 C1257 1.384 . S
H1260 C1266 0.930 . S
H1261 C1270 0.930 . S
H1262 C1275 0.929 . S
H1263 C1273 0.929 . S
H1264 C1268 0.929 . S
H1265 C1274 0.929 . S
C1266 H1260 0.930 . S
C1266 C1267 1.367 . S
C1266 C1274 1.378 . S
C1267 C1266 1.367 . S
C1267 C1275 1.433 . S
C1268 H1264 0.929 . S
C1268 C1270 1.378 . S
C1268 C1272 1.350 . S
C1269 C1272 1.463 . S
C1269 C1274 1.350 . S
C1269 N1277 1.427 . S
C1270 H1261 0.930 . S
C1270 C1268 1.378 . S
C1270 C1271 1.367 . S
C1271 C1270 1.367 . S
C1271 C1273 1.433 . S
C1272 C1268 1.350 . S
C1272 C1269 1.463 . S
C1272 N1276 1.427 . S
C1273 H1263 0.929 . S
C1273 C1271 1.433 . S
C1273 N1276 1.384 . S
C1274 H1265 0.929 . S
C1274 C1266 1.378 . S
C1274 C1269 1.350 . S
C1275 H1262 0.929 . S
C1275 C1267 1.433 . S
C1275 N1277 1.384 . S
N1276 C1272 1.427 . S
N1276 C1273 1.384 . S
N1277 C1269 1.427 . S
N1277 C1275 1.384 . S
H1278 C1284 0.930 . S
H1279 C1288 0.930 . S
H1280 C1293 0.929 . S
H1281 C1291 0.929 . S
H1282 C1286 0.929 . S
H1283 C1292 0.929 . S
C1284 H1278 0.930 . S
C1284 C1285 1.367 . S
C1284 C1292 1.378 . S
C1285 C1284 1.367 . S
C1285 C1293 1.433 . S
C1286 H1282 0.929 . S
C1286 C1288 1.378 . S
C1286 C1290 1.350 . S
C1287 C1290 1.463 . S
C1287 C1292 1.350 . S
C1287 N1295 1.427 . S
C1288 H1279 0.930 . S
C1288 C1286 1.378 . S
C1288 C1289 1.367 . S
C1289 C1288 1.367 . S
C1289 C1291 1.433 . S
C1290 C1286 1.350 . S
C1290 C1287 1.463 . S
C1290 N1294 1.427 . S
C1291 H1281 0.929 . S
C1291 C1289 1.433 . S
C1291 N1294 1.384 . S
C1292 H1283 0.929 . S
C1292 C1284 1.378 . S
C1292 C1287 1.350 . S
C1293 H1280 0.929 . S
C1293 C1285 1.433 . S
C1293 N1295 1.384 . S
N1294 C1290 1.427 . S
N1294 C1291 1.384 . S
N1295 C1287 1.427 . S
N1295 C1293 1.384 . S
H1296 C1302 0.930 . S
H1297 C1306 0.930 1_554 S
H1298 C1311 0.929 . S
H1299 C1309 0.929 . S
H1300 C1304 0.929 . S
H1301 C1310 0.929 . S
C1302 H1296 0.930 . S
C1302 C1303 1.367 . S
C1302 C1310 1.378 . S
C1303 C1302 1.367 . S
C1303 C1311 1.433 . S
C1304 H1300 0.929 . S
C1304 C1306 1.378 . S
C1304 C1308 1.350 . S
C1305 C1308 1.463 . S
C1305 C1310 1.350 . S
C1305 N1313 1.427 . S
C1306 H1297 0.930 1_556 S
C1306 C1304 1.378 . S
C1306 C1307 1.367 . S
C1307 C1306 1.367 . S
C1307 C1309 1.433 . S
C1308 C1304 1.350 . S
C1308 C1305 1.463 . S
C1308 N1312 1.427 . S
C1309 H1299 0.929 . S
C1309 C1307 1.433 . S
C1309 N1312 1.384 . S
C1310 H1301 0.929 . S
C1310 C1302 1.378 . S
C1310 C1305 1.350 . S
C1311 H1298 0.929 . S
C1311 C1303 1.433 . S
C1311 N1313 1.384 . S
N1312 C1308 1.427 . S
N1312 C1309 1.384 . S
N1313 C1305 1.427 . S
N1313 C1311 1.384 . S
H1314 C1320 0.930 . S
H1315 C1324 0.930 . S
H1316 C1329 0.929 . S
H1317 C1327 0.929 . S
H1318 C1322 0.929 . S
H1319 C1328 0.929 . S
C1320 H1314 0.930 . S
C1320 C1321 1.367 . S
C1320 C1328 1.378 . S
C1321 C1320 1.367 . S
C1321 C1329 1.433 . S
C1322 H1318 0.929 . S
C1322 C1324 1.378 . S
C1322 C1326 1.350 . S
C1323 C1326 1.463 . S
C1323 C1328 1.350 . S
C1323 N1331 1.427 . S
C1324 H1315 0.930 . S
C1324 C1322 1.378 . S
C1324 C1325 1.367 . S
C1325 C1324 1.367 . S
C1325 C1327 1.433 . S
C1326 C1322 1.350 . S
C1326 C1323 1.463 . S
C1326 N1330 1.427 . S
C1327 H1317 0.929 . S
C1327 C1325 1.433 . S
C1327 N1330 1.384 . S
C1328 H1319 0.929 . S
C1328 C1320 1.378 . S
C1328 C1323 1.350 . S
C1329 H1316 0.929 . S
C1329 C1321 1.433 . S
C1329 N1331 1.384 . S
N1330 C1326 1.427 . S
N1330 C1327 1.384 . S
N1331 C1323 1.427 . S
N1331 C1329 1.384 . S
H1332 C1338 0.930 . S
H1333 C1342 0.930 . S
H1334 C1347 0.929 . S
H1335 C1345 0.929 . S
H1336 C1340 0.929 . S
H1337 C1346 0.929 . S
C1338 H1332 0.930 . S
C1338 C1339 1.367 . S
C1338 C1346 1.378 . S
C1339 C1338 1.367 . S
C1339 C1347 1.433 . S
C1340 H1336 0.929 . S
C1340 C1342 1.378 . S
C1340 C1344 1.350 . S
C1341 C1344 1.463 . S
C1341 C1346 1.350 . S
C1341 N1349 1.427 . S
C1342 H1333 0.930 . S
C1342 C1340 1.378 . S
C1342 C1343 1.367 . S
C1343 C1342 1.367 . S
C1343 C1345 1.433 . S
C1344 C1340 1.350 . S
C1344 C1341 1.463 . S
C1344 N1348 1.427 . S
C1345 H1335 0.929 . S
C1345 C1343 1.433 . S
C1345 N1348 1.384 . S
C1346 H1337 0.929 . S
C1346 C1338 1.378 . S
C1346 C1341 1.350 . S
C1347 H1334 0.929 . S
C1347 C1339 1.433 . S
C1347 N1349 1.384 . S
N1348 C1344 1.427 . S
N1348 C1345 1.384 . S
N1349 C1341 1.427 . S
N1349 C1347 1.384 . S
H1350 C1356 0.930 . S
H1351 C1360 0.930 . S
H1352 C1365 0.929 . S
H1353 C1363 0.929 . S
H1354 C1358 0.929 . S
H1355 C1364 0.929 . S
C1356 H1350 0.930 . S
C1356 C1357 1.367 . S
C1356 C1364 1.378 . S
C1357 C1356 1.367 . S
C1357 C1365 1.433 . S
C1358 H1354 0.929 . S
C1358 C1360 1.378 . S
C1358 C1362 1.350 . S
C1359 C1362 1.463 . S
C1359 C1364 1.350 . S
C1359 N1367 1.427 . S
C1360 H1351 0.930 . S
C1360 C1358 1.378 . S
C1360 C1361 1.367 . S
C1361 C1360 1.367 . S
C1361 C1363 1.433 . S
C1362 C1358 1.350 . S
C1362 C1359 1.463 . S
C1362 N1366 1.427 . S
C1363 H1353 0.929 . S
C1363 C1361 1.433 . S
C1363 N1366 1.384 . S
C1364 H1355 0.929 . S
C1364 C1356 1.378 . S
C1364 C1359 1.350 . S
C1365 H1352 0.929 . S
C1365 C1357 1.433 . S
C1365 N1367 1.384 . S
N1366 C1362 1.427 . S
N1366 C1363 1.384 . S
N1367 C1359 1.427 . S
N1367 C1365 1.384 . S
H1368 C1374 0.930 . S
H1369 C1378 0.930 . S
H1370 C1383 0.929 . S
H1371 C1381 0.929 . S
H1372 C1376 0.929 . S
H1373 C1382 0.929 . S
C1374 H1368 0.930 . S
C1374 C1375 1.367 . S
C1374 C1382 1.378 . S
C1375 C1374 1.367 . S
C1375 C1383 1.433 . S
C1376 H1372 0.929 . S
C1376 C1378 1.378 . S
C1376 C1380 1.350 . S
C1377 C1380 1.463 . S
C1377 C1382 1.350 . S
C1377 N1385 1.427 . S
C1378 H1369 0.930 . S
C1378 C1376 1.378 . S
C1378 C1379 1.367 . S
C1379 C1378 1.367 . S
C1379 C1381 1.433 . S
C1380 C1376 1.350 . S
C1380 C1377 1.463 . S
C1380 N1384 1.427 . S
C1381 H1371 0.929 . S
C1381 C1379 1.433 . S
C1381 N1384 1.384 . S
C1382 H1373 0.929 . S
C1382 C1374 1.378 . S
C1382 C1377 1.350 . S
C1383 H1370 0.929 . S
C1383 C1375 1.433 . S
C1383 N1385 1.384 . S
N1384 C1380 1.427 . S
N1384 C1381 1.384 . S
N1385 C1377 1.427 . S
N1385 C1383 1.384 . S
H1386 C1392 0.930 . S
H1387 C1396 0.930 . S
H1388 C1401 0.929 . S
H1389 C1399 0.929 . S
H1390 C1394 0.929 . S
H1391 C1400 0.929 . S
C1392 H1386 0.930 . S
C1392 C1393 1.367 . S
C1392 C1400 1.378 . S
C1393 C1392 1.367 . S
C1393 C1401 1.433 . S
C1394 H1390 0.929 . S
C1394 C1396 1.378 . S
C1394 C1398 1.350 . S
C1395 C1398 1.463 . S
C1395 C1400 1.350 . S
C1395 N1403 1.427 . S
C1396 H1387 0.930 . S
C1396 C1394 1.378 . S
C1396 C1397 1.367 . S
C1397 C1396 1.367 . S
C1397 C1399 1.433 . S
C1398 C1394 1.350 . S
C1398 C1395 1.463 . S
C1398 N1402 1.427 . S
C1399 H1389 0.929 . S
C1399 C1397 1.433 . S
C1399 N1402 1.384 . S
C1400 H1391 0.929 . S
C1400 C1392 1.378 . S
C1400 C1395 1.350 . S
C1401 H1388 0.929 . S
C1401 C1393 1.433 . S
C1401 N1403 1.384 . S
N1402 C1398 1.427 . S
N1402 C1399 1.384 . S
N1403 C1395 1.427 . S
N1403 C1401 1.384 . S
H1404 C1410 0.930 . S
H1405 C1414 0.930 . S
H1406 C1419 0.929 . S
H1407 C1417 0.929 . S
H1408 C1412 0.929 . S
H1409 C1418 0.929 . S
C1410 H1404 0.930 . S
C1410 C1411 1.367 . S
C1410 C1418 1.378 . S
C1411 C1410 1.367 . S
C1411 C1419 1.433 . S
C1412 H1408 0.929 . S
C1412 C1414 1.378 . S
C1412 C1416 1.350 . S
C1413 C1416 1.463 . S
C1413 C1418 1.350 . S
C1413 N1421 1.427 . S
C1414 H1405 0.930 . S
C1414 C1412 1.378 . S
C1414 C1415 1.367 . S
C1415 C1414 1.367 . S
C1415 C1417 1.433 . S
C1416 C1412 1.350 . S
C1416 C1413 1.463 . S
C1416 N1420 1.427 . S
C1417 H1407 0.929 . S
C1417 C1415 1.433 . S
C1417 N1420 1.384 . S
C1418 H1409 0.929 . S
C1418 C1410 1.378 . S
C1418 C1413 1.350 . S
C1419 H1406 0.929 . S
C1419 C1411 1.433 . S
C1419 N1421 1.384 . S
N1420 C1416 1.427 . S
N1420 C1417 1.384 . S
N1421 C1413 1.427 . S
N1421 C1419 1.384 . S
H1422 C1428 0.930 . S
H1423 C1432 0.930 . S
H1424 C1437 0.929 . S
H1425 C1435 0.929 . S
H1426 C1430 0.929 . S
H1427 C1436 0.929 . S
C1428 H1422 0.930 . S
C1428 C1429 1.367 . S
C1428 C1436 1.378 . S
C1429 C1428 1.367 . S
C1429 C1437 1.433 . S
C1430 H1426 0.929 . S
C1430 C1432 1.378 . S
C1430 C1434 1.350 . S
C1431 C1434 1.463 . S
C1431 C1436 1.350 . S
C1431 N1439 1.427 . S
C1432 H1423 0.930 . S
C1432 C1430 1.378 . S
C1432 C1433 1.367 . S
C1433 C1432 1.367 . S
C1433 C1435 1.433 . S
C1434 C1430 1.350 . S
C1434 C1431 1.463 . S
C1434 N1438 1.427 . S
C1435 H1425 0.929 . S
C1435 C1433 1.433 . S
C1435 N1438 1.384 . S
C1436 H1427 0.929 . S
C1436 C1428 1.378 . S
C1436 C1431 1.350 . S
C1437 H1424 0.929 . S
C1437 C1429 1.433 . S
C1437 N1439 1.384 . S
N1438 C1434 1.427 . S
N1438 C1435 1.384 . S
N1439 C1431 1.427 . S
N1439 C1437 1.384 . S
H1440 C1446 0.930 . S
H1441 C1450 0.930 . S
H1442 C1455 0.929 . S
H1443 C1453 0.929 . S
H1444 C1448 0.929 . S
H1445 C1454 0.929 . S
C1446 H1440 0.930 . S
C1446 C1447 1.367 . S
C1446 C1454 1.378 . S
C1447 C1446 1.367 . S
C1447 C1455 1.433 . S
C1448 H1444 0.929 . S
C1448 C1450 1.378 . S
C1448 C1452 1.350 . S
C1449 C1452 1.463 . S
C1449 C1454 1.350 . S
C1449 N1457 1.427 . S
C1450 H1441 0.930 . S
C1450 C1448 1.378 . S
C1450 C1451 1.367 . S
C1451 C1450 1.367 . S
C1451 C1453 1.433 . S
C1452 C1448 1.350 . S
C1452 C1449 1.463 . S
C1452 N1456 1.427 . S
C1453 H1443 0.929 . S
C1453 C1451 1.433 . S
C1453 N1456 1.384 . S
C1454 H1445 0.929 . S
C1454 C1446 1.378 . S
C1454 C1449 1.350 . S
C1455 H1442 0.929 . S
C1455 C1447 1.433 . S
C1455 N1457 1.384 . S
N1456 C1452 1.427 . S
N1456 C1453 1.384 . S
N1457 C1449 1.427 . S
N1457 C1455 1.384 . S
H1458 C1464 0.930 . S
H1459 C1468 0.930 . S
H1460 C1473 0.929 . S
H1461 C1471 0.929 . S
H1462 C1466 0.929 . S
H1463 C1472 0.929 . S
C1464 H1458 0.930 . S
C1464 C1465 1.367 . S
C1464 C1472 1.378 . S
C1465 C1464 1.367 . S
C1465 C1473 1.433 . S
C1466 H1462 0.929 . S
C1466 C1468 1.378 . S
C1466 C1470 1.350 . S
C1467 C1470 1.463 . S
C1467 C1472 1.350 . S
C1467 N1475 1.427 . S
C1468 H1459 0.930 . S
C1468 C1466 1.378 . S
C1468 C1469 1.367 . S
C1469 C1468 1.367 . S
C1469 C1471 1.433 . S
C1470 C1466 1.350 . S
C1470 C1467 1.463 . S
C1470 N1474 1.427 . S
C1471 H1461 0.929 . S
C1471 C1469 1.433 . S
C1471 N1474 1.384 . S
C1472 H1463 0.929 . S
C1472 C1464 1.378 . S
C1472 C1467 1.350 . S
C1473 H1460 0.929 . S
C1473 C1465 1.433 . S
C1473 N1475 1.384 . S
N1474 C1470 1.427 . S
N1474 C1471 1.384 . S
N1475 C1467 1.427 . S
N1475 C1473 1.384 . S
H1476 C1482 0.930 . S
H1477 C1486 0.930 . S
H1478 C1491 0.929 . S
H1479 C1489 0.929 . S
H1480 C1484 0.929 . S
H1481 C1490 0.929 . S
C1482 H1476 0.930 . S
C1482 C1483 1.367 . S
C1482 C1490 1.378 . S
C1483 C1482 1.367 . S
C1483 C1491 1.433 . S
C1484 H1480 0.929 . S
C1484 C1486 1.378 . S
C1484 C1488 1.350 . S
C1485 C1488 1.463 . S
C1485 C1490 1.350 . S
C1485 N1493 1.427 . S
C1486 H1477 0.930 . S
C1486 C1484 1.378 . S
C1486 C1487 1.367 . S
C1487 C1486 1.367 . S
C1487 C1489 1.433 . S
C1488 C1484 1.350 . S
C1488 C1485 1.463 . S
C1488 N1492 1.427 . S
C1489 H1479 0.929 . S
C1489 C1487 1.433 . S
C1489 N1492 1.384 . S
C1490 H1481 0.929 . S
C1490 C1482 1.378 . S
C1490 C1485 1.350 . S
C1491 H1478 0.929 . S
C1491 C1483 1.433 . S
C1491 N1493 1.384 . S
N1492 C1488 1.427 . S
N1492 C1489 1.384 . S
N1493 C1485 1.427 . S
N1493 C1491 1.384 . S
H1494 C1500 0.930 . S
H1495 C1504 0.930 . S
H1496 C1509 0.929 . S
H1497 C1507 0.929 . S
H1498 C1502 0.929 . S
H1499 C1508 0.929 . S
C1500 H1494 0.930 . S
C1500 C1501 1.367 . S
C1500 C1508 1.378 . S
C1501 C1500 1.367 . S
C1501 C1509 1.433 . S
C1502 H1498 0.929 . S
C1502 C1504 1.378 . S
C1502 C1506 1.350 . S
C1503 C1506 1.463 . S
C1503 C1508 1.350 . S
C1503 N1511 1.427 . S
C1504 H1495 0.930 . S
C1504 C1502 1.378 . S
C1504 C1505 1.367 . S
C1505 C1504 1.367 . S
C1505 C1507 1.433 . S
C1506 C1502 1.350 . S
C1506 C1503 1.463 . S
C1506 N1510 1.427 . S
C1507 H1497 0.929 . S
C1507 C1505 1.433 . S
C1507 N1510 1.384 . S
C1508 H1499 0.929 . S
C1508 C1500 1.378 . S
C1508 C1503 1.350 . S
C1509 H1496 0.929 . S
C1509 C1501 1.433 . S
C1509 N1511 1.384 . S
N1510 C1506 1.427 . S
N1510 C1507 1.384 . S
N1511 C1503 1.427 . S
N1511 C1509 1.384 . S
H1512 C1518 0.930 . S
H1513 C1522 0.930 . S
H1514 C1527 0.929 . S
H1515 C1525 0.929 . S
H1516 C1520 0.929 . S
H1517 C1526 0.929 . S
C1518 H1512 0.930 . S
C1518 C1519 1.367 . S
C1518 C1526 1.378 . S
C1519 C1518 1.367 . S
C1519 C1527 1.433 . S
C1520 H1516 0.929 . S
C1520 C1522 1.378 . S
C1520 C1524 1.350 . S
C1521 C1524 1.463 1_545 S
C1521 C1526 1.350 . S
C1521 N1529 1.427 . S
C1522 H1513 0.930 . S
C1522 C1520 1.378 . S
C1522 C1523 1.367 . S
C1523 C1522 1.367 . S
C1523 C1525 1.433 . S
C1524 C1520 1.350 . S
C1524 C1521 1.463 1_565 S
C1524 N1528 1.427 . S
C1525 H1515 0.929 . S
C1525 C1523 1.433 . S
C1525 N1528 1.384 . S
C1526 H1517 0.929 . S
C1526 C1518 1.378 . S
C1526 C1521 1.350 . S
C1527 H1514 0.929 . S
C1527 C1519 1.433 . S
C1527 N1529 1.384 . S
N1528 C1524 1.427 . S
N1528 C1525 1.384 . S
N1529 C1521 1.427 . S
N1529 C1527 1.384 . S
H1530 C1536 0.930 . S
H1531 C1540 0.930 . S
H1532 C1545 0.929 . S
H1533 C1543 0.929 . S
H1534 C1538 0.929 . S
H1535 C1544 0.929 . S
C1536 H1530 0.930 . S
C1536 C1537 1.367 . S
C1536 C1544 1.378 . S
C1537 C1536 1.367 . S
C1537 C1545 1.433 . S
C1538 H1534 0.929 . S
C1538 C1540 1.378 1_455 S
C1538 C1542 1.350 . S
C1539 C1542 1.463 . S
C1539 C1544 1.350 . S
C1539 N1547 1.427 . S
C1540 H1531 0.930 . S
C1540 C1538 1.378 1_655 S
C1540 C1541 1.367 . S
C1541 C1540 1.367 . S
C1541 C1543 1.433 . S
C1542 C1538 1.350 . S
C1542 C1539 1.463 . S
C1542 N1546 1.427 . S
C1543 H1533 0.929 . S
C1543 C1541 1.433 . S
C1543 N1546 1.384 1_655 S
C1544 H1535 0.929 . S
C1544 C1536 1.378 . S
C1544 C1539 1.350 . S
C1545 H1532 0.929 . S
C1545 C1537 1.433 . S
C1545 N1547 1.384 . S
N1546 C1542 1.427 . S
N1546 C1543 1.384 1_455 S
N1547 C1539 1.427 . S
N1547 C1545 1.384 . S
H1548 C1554 0.930 . S
H1549 C1558 0.930 . S
H1550 C1563 0.929 . S
H1551 C1561 0.929 . S
H1552 C1556 0.929 . S
H1553 C1562 0.929 . S
C1554 H1548 0.930 . S
C1554 C1555 1.367 . S
C1554 C1562 1.378 . S
C1555 C1554 1.367 . S
C1555 C1563 1.433 . S
C1556 H1552 0.929 . S
C1556 C1558 1.378 . S
C1556 C1560 1.350 . S
C1557 C1560 1.463 . S
C1557 C1562 1.350 . S
C1557 N1565 1.427 . S
C1558 H1549 0.930 . S
C1558 C1556 1.378 . S
C1558 C1559 1.367 . S
C1559 C1558 1.367 . S
C1559 C1561 1.433 . S
C1560 C1556 1.350 . S
C1560 C1557 1.463 . S
C1560 N1564 1.427 . S
C1561 H1551 0.929 . S
C1561 C1559 1.433 . S
C1561 N1564 1.384 . S
C1562 H1553 0.929 . S
C1562 C1554 1.378 . S
C1562 C1557 1.350 . S
C1563 H1550 0.929 . S
C1563 C1555 1.433 . S
C1563 N1565 1.384 . S
N1564 C1560 1.427 . S
N1564 C1561 1.384 . S
N1565 C1557 1.427 . S
N1565 C1563 1.384 . S
H1566 C1572 0.930 . S
H1567 C1576 0.930 . S
H1568 C1581 0.929 . S
H1569 C1579 0.929 . S
H1570 C1574 0.929 . S
H1571 C1580 0.929 . S
C1572 H1566 0.930 . S
C1572 C1573 1.367 . S
C1572 C1580 1.378 . S
C1573 C1572 1.367 . S
C1573 C1581 1.433 . S
C1574 H1570 0.929 . S
C1574 C1576 1.378 1_545 S
C1574 C1578 1.350 . S
C1575 C1578 1.463 . S
C1575 C1580 1.350 . S
C1575 N1583 1.427 . S
C1576 H1567 0.930 . S
C1576 C1574 1.378 1_565 S
C1576 C1577 1.367 . S
C1577 C1576 1.367 . S
C1577 C1579 1.433 . S
C1578 C1574 1.350 . S
C1578 C1575 1.463 . S
C1578 N1582 1.427 . S
C1579 H1569 0.929 . S
C1579 C1577 1.433 . S
C1579 N1582 1.384 1_565 S
C1580 H1571 0.929 . S
C1580 C1572 1.378 . S
C1580 C1575 1.350 . S
C1581 H1568 0.929 . S
C1581 C1573 1.433 . S
C1581 N1583 1.384 . S
N1582 C1578 1.427 . S
N1582 C1579 1.384 1_545 S
N1583 C1575 1.427 . S
N1583 C1581 1.384 . S
H1584 C1590 0.930 . S
H1585 C1594 0.930 . S
H1586 C1599 0.929 . S
H1587 C1597 0.929 . S
H1588 C1592 0.929 . S
H1589 C1598 0.929 . S
C1590 H1584 0.930 . S
C1590 C1591 1.367 . S
C1590 C1598 1.378 . S
C1591 C1590 1.367 . S
C1591 C1599 1.433 . S
C1592 H1588 0.929 . S
C1592 C1594 1.378 . S
C1592 C1596 1.350 . S
C1593 C1596 1.463 1_455 S
C1593 C1598 1.350 . S
C1593 N1601 1.427 . S
C1594 H1585 0.930 . S
C1594 C1592 1.378 . S
C1594 C1595 1.367 . S
C1595 C1594 1.367 . S
C1595 C1597 1.433 . S
C1596 C1592 1.350 . S
C1596 C1593 1.463 1_655 S
C1596 N1600 1.427 . S
C1597 H1587 0.929 . S
C1597 C1595 1.433 . S
C1597 N1600 1.384 . S
C1598 H1589 0.929 . S
C1598 C1590 1.378 . S
C1598 C1593 1.350 . S
C1599 H1586 0.929 . S
C1599 C1591 1.433 . S
C1599 N1601 1.384 . S
N1600 C1596 1.427 . S
N1600 C1597 1.384 . S
N1601 C1593 1.427 . S
N1601 C1599 1.384 . S
C961 C250 1.973 . S
C965 C38 1.972 . S
C979 C304 1.972 . S
C983 C92 1.972 . S
C997 C144 1.143 . S
C1001 C188 1.144 . S
C1015 C251 1.937 . S
C1019 C39 1.938 . S
C1033 C303 1.938 . S
C1037 C91 1.937 . S
C1051 C145 1.104 . S
C1055 C181 1.105 . S
C1069 C569 1.929 . S
C1073 C356 1.930 . S
C1087 C622 1.928 . S
C1091 C409 1.927 . S
C1105 C462 1.928 . S
C1109 C516 1.929 . S
C1123 C357 1.980 . S
C1127 C568 1.981 . S
C1141 C621 1.982 . S
C1145 C410 1.982 . S
C1159 C515 1.982 . S
C1163 C463 1.981 . S
C1177 C887 1.133 . S
C1181 C665 1.132 . S
C1195 C711 1.136 . S
C1199 C939 1.134 . S
C1213 C824 0.309 . S
C1217 C764 0.304 . S
C1231 C886 1.116 . S
C1235 C658 1.116 . S
C1249 C940 1.113 . S
C1253 C718 1.112 . S
C1267 C771 0.283 . S
C1271 C817 0.288 . S
C1285 C22 1.530 . S
C1289 C506 1.533 . S
C1303 C559 1.505 . S
C1307 C82 1.504 . S
C1321 C612 1.504 . S
C1325 C128 1.504 . S
C1339 C198 1.520 . S
C1343 C675 1.519 . S
C1357 C727 1.512 . S
C1361 C234 1.512 . S
C1375 C780 1.506 . S
C1379 C294 1.507 . S
C1393 C833 1.543 . S
C1397 C29 1.539 . S
C1411 C870 1.514 . S
C1415 C75 1.514 . S
C1429 C930 1.501 . S
C1433 C135 1.500 . S
C1447 C197 1.525 . S
C1451 C347 1.527 . S
C1465 C241 1.508 . S
C1469 C400 1.508 . S
C1483 C453 1.510 . S
C1487 C287 1.510 . S
C1501 C834 1.513 . S
C1505 C340 1.510 . S
C1519 C877 1.525 . S
C1523 C393 1.526 . S
C1537 C446 1.510 . S
C1541 C923 1.511 . S
C1555 C674 1.503 . S
C1559 C499 1.502 . S
C1573 C728 1.511 . S
C1577 C552 1.509 . S
C1591 C605 1.510 . S
C1595 C781 1.511 . S
