# Generated by pormake.
# Topology wkd, (5)-cn, num edge types: 1
# Building blocks:
#     Node 0, Type 0, BuildingBlock: BEQFEK_clean_sbu_0, # of connection points: 5
#     Node 1, Type 0, BuildingBlock: BEQFEK_clean_sbu_0, # of connection points: 5
#     Node 2, Type 0, BuildingBlock: BEQFEK_clean_sbu_0, # of connection points: 5
#     Node 3, Type 0, BuildingBlock: BEQFEK_clean_sbu_0, # of connection points: 5
#     Node 4, Type 0, BuildingBlock: BEQFEK_clean_sbu_0, # of connection points: 5
#     Node 5, Type 0, BuildingBlock: BEQFEK_clean_sbu_0, # of connection points: 5
#     Node 6, Type 0, BuildingBlock: BEQFEK_clean_sbu_0, # of connection points: 5
#     Node 7, Type 0, BuildingBlock: BEQFEK_clean_sbu_0, # of connection points: 5
#     Node 8, Type 0, BuildingBlock: BEQFEK_clean_sbu_0, # of connection points: 5
#     Node 9, Type 0, BuildingBlock: BEQFEK_clean_sbu_0, # of connection points: 5
#     Node 10, Type 0, BuildingBlock: BEQFEK_clean_sbu_0, # of connection points: 5
#     Node 11, Type 0, BuildingBlock: BEQFEK_clean_sbu_0, # of connection points: 5
#     Edge 12, Type (0, 0), BuildingBlock: KIFKEQ_clean_linker_1, # of connection points: 2
#     Edge 13, Type (0, 0), BuildingBlock: KIFKEQ_clean_linker_1, # of connection points: 2
#     Edge 14, Type (0, 0), BuildingBlock: KIFKEQ_clean_linker_1, # of connection points: 2
#     Edge 15, Type (0, 0), BuildingBlock: KIFKEQ_clean_linker_1, # of connection points: 2
#     Edge 16, Type (0, 0), BuildingBlock: KIFKEQ_clean_linker_1, # of connection points: 2
#     Edge 17, Type (0, 0), BuildingBlock: KIFKEQ_clean_linker_1, # of connection points: 2
#     Edge 18, Type (0, 0), BuildingBlock: KIFKEQ_clean_linker_1, # of connection points: 2
#     Edge 19, Type (0, 0), BuildingBlock: KIFKEQ_clean_linker_1, # of connection points: 2
#     Edge 20, Type (0, 0), BuildingBlock: KIFKEQ_clean_linker_1, # of connection points: 2
#     Edge 21, Type (0, 0), BuildingBlock: KIFKEQ_clean_linker_1, # of connection points: 2
#     Edge 22, Type (0, 0), BuildingBlock: KIFKEQ_clean_linker_1, # of connection points: 2
#     Edge 23, Type (0, 0), BuildingBlock: KIFKEQ_clean_linker_1, # of connection points: 2
#     Edge 24, Type (0, 0), BuildingBlock: KIFKEQ_clean_linker_1, # of connection points: 2
#     Edge 25, Type (0, 0), BuildingBlock: KIFKEQ_clean_linker_1, # of connection points: 2
#     Edge 26, Type (0, 0), BuildingBlock: KIFKEQ_clean_linker_1, # of connection points: 2
#     Edge 27, Type (0, 0), BuildingBlock: KIFKEQ_clean_linker_1, # of connection points: 2
#     Edge 28, Type (0, 0), BuildingBlock: KIFKEQ_clean_linker_1, # of connection points: 2
#     Edge 29, Type (0, 0), BuildingBlock: KIFKEQ_clean_linker_1, # of connection points: 2
#     Edge 30, Type (0, 0), BuildingBlock: KIFKEQ_clean_linker_1, # of connection points: 2
#     Edge 31, Type (0, 0), BuildingBlock: KIFKEQ_clean_linker_1, # of connection points: 2
#     Edge 32, Type (0, 0), BuildingBlock: KIFKEQ_clean_linker_1, # of connection points: 2
#     Edge 33, Type (0, 0), BuildingBlock: KIFKEQ_clean_linker_1, # of connection points: 2
#     Edge 34, Type (0, 0), BuildingBlock: KIFKEQ_clean_linker_1, # of connection points: 2
#     Edge 35, Type (0, 0), BuildingBlock: KIFKEQ_clean_linker_1, # of connection points: 2
#     Edge 36, Type (0, 0), BuildingBlock: KIFKEQ_clean_linker_1, # of connection points: 2
#     Edge 37, Type (0, 0), BuildingBlock: KIFKEQ_clean_linker_1, # of connection points: 2
#     Edge 38, Type (0, 0), BuildingBlock: KIFKEQ_clean_linker_1, # of connection points: 2
#     Edge 39, Type (0, 0), BuildingBlock: KIFKEQ_clean_linker_1, # of connection points: 2
#     Edge 40, Type (0, 0), BuildingBlock: KIFKEQ_clean_linker_1, # of connection points: 2
#     Edge 41, Type (0, 0), BuildingBlock: KIFKEQ_clean_linker_1, # of connection points: 2
# Relax obj value: 0.045
# Max RMSD: 0.099
# Mean RMSD: 0.099
data_MOF--net-wkd--node1-BEQFEK_clean_sbu_0--edge1-KIFKEQ_clean_linker_1
_symmetry_space_group_name_H-M    P1
_symmetry_Int_Tables_number       1
_symmetry_cell_setting            triclinic
loop_
_symmetry_equiv_pos_as_xyz
'x, y, z'
_cell_length_a     24.24747
_cell_length_b     24.250802
_cell_length_c     137.25452
_cell_angle_alpha  89.998264
_cell_angle_beta   90.01076
_cell_angle_gamma 119.96979
loop_
_atom_site_label
_atom_site_type_symbol
_atom_site_fract_x
_atom_site_fract_y
_atom_site_fract_z
_atom_type_partial_charge
Co0 Co 0.96215 0.33422 0.06231 0.0
Co1 Co 0.02805 0.27469 0.07476 0.0
C2 C 0.9265 0.19828 0.05986 0.0
O3 O 0.91787 0.24461 0.05778 0.0
O4 O 0.96768 0.20411 0.06616 0.0
C5 C 0.86445 0.35941 0.05476 0.0
O6 O 0.82275 0.3051 0.05875 0.0
C7 C 0.03558 0.1898 0.08962 0.0
C8 C 0.13905 0.23975 0.09247 0.0
C9 C 0.08207 0.187 0.09522 0.0
N10 N 0.06407 0.24213 0.08395 0.0
N11 N 0.12589 0.27156 0.08569 0.0
C12 C 0.96578 0.14264 0.0893 0.0
H13 H 0.9443 0.14745 0.08246 0.0
H14 H 0.94181 0.15159 0.09547 0.0
H15 H 0.95741 0.09341 0.08995 0.0
C16 C 0.94046 0.37034 0.0821 0.0
N17 N 0.96031 0.33965 0.07612 0.0
N18 N 0.98809 0.31479 0.08134 0.0
C19 C 0.98694 0.32912 0.09081 0.0
C20 C 0.9563 0.36433 0.09162 0.0
C21 C 0.90836 0.40593 0.0787 0.0
H22 H 0.93799 0.44095 0.07305 0.0
H23 H 0.86201 0.37188 0.07537 0.0
H24 H 0.89942 0.43067 0.08476 0.0
O25 O 0.05148 0.378 0.05767 0.0
O26 O 0.09925 0.33797 0.06662 0.0
H27 H 0.0701 0.3296 0.0962 0.0
H28 H 0.02613 0.34419 0.10542 0.0
C29 C 0.02172 0.31663 0.09874 0.0
H30 H 0.99569 0.26526 0.10056 0.0
H31 H 0.15917 0.31357 0.08227 0.0
O32 O 0.92357 0.37943 0.05572 0.0
C33 C 0.10106 0.37562 0.06 0.0
Co34 Co 0.63929 0.96681 0.22929 0.0
Co35 Co 0.76421 0.03428 0.24177 0.0
C36 C 0.74201 0.93399 0.22686 0.0
O37 O 0.68708 0.92519 0.22471 0.0
O38 O 0.77663 0.97463 0.23329 0.0
C39 C 0.54782 0.92137 0.21414 0.0
O40 O 0.59942 0.94913 0.20874 0.0
C41 C 0.85576 0.04138 0.25642 0.0
C42 C 0.90074 0.14182 0.26111 0.0
C43 C 0.89965 0.08508 0.26293 0.0
N44 N 0.83178 0.0709 0.25106 0.0
N45 N 0.85949 0.13113 0.25381 0.0
C46 C 0.83233 0.97152 0.25588 0.0
H47 H 0.78334 0.94587 0.25286 0.0
H48 H 0.83311 0.95236 0.2632 0.0
H49 H 0.86398 0.96341 0.25098 0.0
C50 C 0.58103 0.94136 0.24892 0.0
N51 N 0.63222 0.96375 0.24304 0.0
N52 N 0.68431 0.99253 0.24834 0.0
C53 C 0.66778 0.98987 0.25779 0.0
C54 C 0.60174 0.95711 0.25848 0.0
C55 C 0.5137 0.90686 0.24536 0.0
H56 H 0.50724 0.86874 0.24022 0.0
H57 H 0.47938 0.88539 0.25145 0.0
H58 H 0.50373 0.94063 0.24133 0.0
O59 O 0.68207 0.05656 0.22465 0.0
O60 O 0.77005 0.10443 0.23358 0.0
H61 H 0.68992 0.02664 0.27258 0.0
H62 H 0.74176 1.00089 0.26745 0.0
C63 C 0.71404 0.02485 0.26583 0.0
H64 H 0.74748 0.07426 0.26348 0.0
H65 H 0.84873 0.16444 0.25091 0.0
O66 O 0.55351 0.92243 0.22335 0.0
C67 C 0.7339 0.10628 0.22701 0.0
Co68 Co 0.66953 0.63351 0.39571 0.0
Co69 Co 0.73733 0.75992 0.40789 0.0
C70 C 0.80718 0.73187 0.39251 0.0
O71 O 0.75755 0.67933 0.39038 0.0
O72 O 0.80671 0.76749 0.3993 0.0
C73 C 0.64775 0.51861 0.38601 0.0
O74 O 0.70982 0.54369 0.38656 0.0
C75 C 0.82737 0.85578 0.42173 0.0
C76 C 0.76845 0.89347 0.42784 0.0
C77 C 0.82726 0.89743 0.42867 0.0
N78 N 0.77088 0.82807 0.41711 0.0
N79 N 0.73636 0.85161 0.42069 0.0
C80 C 0.877 0.83711 0.42027 0.0
H81 H 0.85496 0.78767 0.41746 0.0
H82 H 0.90252 0.84114 0.42718 0.0
H83 H 0.91208 0.86949 0.41482 0.0
C84 C 0.6379 0.57733 0.41549 0.0
N85 N 0.66867 0.62747 0.40945 0.0
N86 N 0.69686 0.68026 0.4146 0.0
C87 C 0.68526 0.66517 0.42413 0.0
C88 C 0.64725 0.59958 0.42501 0.0
C89 C 0.59483 0.51064 0.41206 0.0
H90 H 0.56034 0.51031 0.40672 0.0
H91 H 0.6236 0.49316 0.40828 0.0
H92 H 0.5684 0.47809 0.41816 0.0
O93 O 0.62449 0.67821 0.3917 0.0
O94 O 0.67428 0.76965 0.39978 0.0
H95 H 0.68694 0.7427 0.43181 0.0
H96 H 0.69912 0.68921 0.4395 0.0
C97 C 0.70938 0.7126 0.43226 0.0
H98 H 0.76155 0.7435 0.43157 0.0
H99 H 0.68988 0.83726 0.41851 0.0
O100 O 0.62191 0.54831 0.38965 0.0
C101 C 0.63184 0.73258 0.39376 0.0
Co102 Co 0.04523 0.67075 0.56254 0.0
Co103 Co 0.98056 0.7341 0.57451 0.0
C104 C 0.0806 0.80722 0.55946 0.0
O105 O 0.08796 0.75985 0.55757 0.0
O106 O 0.04089 0.80351 0.56587 0.0
C107 C 0.09068 0.62338 0.54768 0.0
O108 O 0.06338 0.64761 0.54225 0.0
C109 C 0.9682 0.82084 0.58859 0.0
C110 C 0.86688 0.76236 0.59266 0.0
C111 C 0.92142 0.8198 0.5946 0.0
N112 N 0.94248 0.76592 0.58351 0.0
N113 N 0.88179 0.73159 0.58594 0.0
C114 C 0.03569 0.87343 0.58751 0.0
H115 H 0.05414 0.87258 0.58017 0.0
H116 H 0.0659 0.86706 0.59294 0.0
H117 H 0.03941 0.92041 0.58874 0.0
C118 C 0.06372 0.63527 0.58238 0.0
N119 N 0.04639 0.66764 0.57631 0.0
N120 N 0.02022 0.69466 0.58138 0.0
C121 C 0.02075 0.68085 0.59089 0.0
C122 C 0.048 0.64245 0.59185 0.0
C123 C 0.08711 0.59198 0.57894 0.0
H124 H 0.05545 0.56072 0.57307 0.0
H125 H 0.13549 0.62104 0.57581 0.0
H126 H 0.08862 0.56188 0.58489 0.0
O127 O 0.95585 0.62405 0.55791 0.0
O128 O 0.91075 0.67008 0.56616 0.0
H129 H 0.94217 0.68052 0.59802 0.0
H130 H 0.00557 0.69166 0.60619 0.0
C131 C 0.99451 0.70302 0.59888 0.0
H132 H 0.0155 0.75521 0.59838 0.0
H133 H 0.85069 0.68659 0.5831 0.0
O134 O 0.08959 0.62827 0.55688 0.0
C135 C 0.90753 0.62948 0.55995 0.0
Co136 Co 0.36947 0.03633 0.72889 0.0
Co137 Co 0.24466 0.97092 0.74145 0.0
C138 C 0.26728 0.06944 0.72616 0.0
O139 O 0.3221 0.07785 0.72402 0.0
O140 O 0.23291 0.02975 0.7327 0.0
C141 C 0.48349 0.13107 0.71896 0.0
O142 O 0.45738 0.16719 0.71941 0.0
C143 C 0.15486 0.96791 0.75606 0.0
C144 C 0.1076 0.86779 0.76097 0.0
C145 C 0.11052 0.92552 0.76265 0.0
N146 N 0.17735 0.93668 0.75079 0.0
N147 N 0.14829 0.87666 0.75367 0.0
C148 C 0.18006 0.03804 0.75536 0.0
H149 H 0.22888 0.06223 0.75226 0.0
H150 H 0.18033 0.05825 0.76263 0.0
H151 H 0.14886 0.04674 0.75044 0.0
C152 C 0.42813 0.06488 0.74855 0.0
N153 N 0.37695 0.04152 0.74264 0.0
N154 N 0.32486 0.01307 0.74795 0.0
C155 C 0.34136 0.01675 0.75742 0.0
C156 C 0.40739 0.05004 0.75813 0.0
C157 C 0.49546 0.09965 0.745 0.0
H158 H 0.50162 0.13755 0.73985 0.0
H159 H 0.52975 0.1215 0.75109 0.0
H160 H 0.50574 0.06602 0.741 0.0
O161 O 0.32529 0.94591 0.72466 0.0
O162 O 0.23731 0.89902 0.73359 0.0
H163 H 0.26086 0.93298 0.7631 0.0
H164 H 0.31922 0.97937 0.77217 0.0
C165 C 0.29514 0.98208 0.76547 0.0
H166 H 0.26845 0.00695 0.7672 0.0
H167 H 0.15774 0.84224 0.75086 0.0
O168 O 0.45462 0.0757 0.72268 0.0
C169 C 0.27347 0.89648 0.72709 0.0
Co170 Co 0.33427 0.37317 0.89575 0.0
Co171 Co 0.2687 0.2462 0.90784 0.0
C172 C 0.19709 0.27501 0.89274 0.0
O173 O 0.24625 0.32782 0.8906 0.0
O174 O 0.19856 0.23917 0.89941 0.0
C175 C 0.38762 0.46464 0.8808 0.0
O176 O 0.36604 0.41283 0.87549 0.0
C177 C 0.18415 0.15356 0.92272 0.0
C178 C 0.23257 0.098 0.92508 0.0
C179 C 0.18111 0.10356 0.92816 0.0
N180 N 0.23544 0.17654 0.91684 0.0
N181 N 0.26388 0.14286 0.91828 0.0
C182 C 0.13805 0.1776 0.92274 0.0
H183 H 0.14155 0.20324 0.91589 0.0
H184 H 0.14938 0.21143 0.92886 0.0
H185 H 0.08867 0.13759 0.92371 0.0
C186 C 0.36662 0.42842 0.9155 0.0
N187 N 0.33589 0.37817 0.9095 0.0
N188 N 0.31022 0.32535 0.91466 0.0
C189 C 0.32461 0.3405 0.92414 0.0
C190 C 0.36054 0.40635 0.92499 0.0
C191 C 0.40296 0.49604 0.91211 0.0
H192 H 0.44613 0.50384 0.90813 0.0
H193 H 0.3732 0.50533 0.90697 0.0
H194 H 0.41718 0.52996 0.91829 0.0
O195 O 0.3799 0.32925 0.89135 0.0
O196 O 0.331 0.23765 0.89941 0.0
H197 H 0.32227 0.25607 0.92938 0.0
H198 H 0.34082 0.31559 0.93862 0.0
C199 C 0.3117 0.29293 0.93204 0.0
H200 H 0.26073 0.26946 0.93408 0.0
H201 H 0.30507 0.15082 0.91466 0.0
O202 O 0.37876 0.45929 0.88995 0.0
C203 C 0.37269 0.27473 0.89331 0.0
Co204 Co 0.66364 0.03316 0.84862 0.0
Co205 Co 0.73524 0.98416 0.83524 0.0
C206 C 0.8045 0.07908 0.85078 0.0
O207 O 0.75344 0.07819 0.85329 0.0
O208 O 0.80531 0.0456 0.84368 0.0
C209 C 0.63257 0.1275 0.85528 0.0
O210 O 0.67934 0.16664 0.84957 0.0
C211 C 0.8237 0.97803 0.82092 0.0
C212 C 0.76017 0.88487 0.81405 0.0
C213 C 0.82093 0.93716 0.81359 0.0
N214 N 0.76679 0.95117 0.82542 0.0
N215 N 0.72948 0.89512 0.82136 0.0
C216 C 0.87692 0.0439 0.82298 0.0
H217 H 0.85785 0.07381 0.82586 0.0
H218 H 0.90536 0.06606 0.81631 0.0
H219 H 0.90861 0.04144 0.82858 0.0
C220 C 0.62237 0.05467 0.82913 0.0
N221 N 0.65798 0.03936 0.83487 0.0
N222 N 0.69092 0.02191 0.82932 0.0
C223 C 0.67888 0.02759 0.8199 0.0
C224 C 0.63456 0.04778 0.81945 0.0
C225 C 0.57197 0.0678 0.83281 0.0
H226 H 0.55159 0.04178 0.83971 0.0
H227 H 0.59343 0.11958 0.83418 0.0
H228 H 0.53326 0.05353 0.82738 0.0
O229 O 0.62354 0.94305 0.85245 0.0
O230 O 0.67536 0.909 0.84318 0.0
H231 H 0.68769 0.96214 0.8105 0.0
H232 H 0.7034 0.03507 0.8046 0.0
C233 C 0.70946 0.01431 0.81144 0.0
H234 H 0.76102 0.03504 0.81284 0.0
H235 H 0.68225 0.86472 0.82339 0.0
O236 O 0.61802 0.06946 0.85575 0.0
C237 C 0.63372 0.89891 0.84966 0.0
Co238 Co 0.63014 0.66904 0.01481 0.0
Co239 Co 0.75719 0.73295 1.0026 0.0
C240 C 0.72991 0.80573 0.01774 0.0
O241 O 0.67549 0.75824 0.01975 0.0
O242 O 0.76559 0.80194 0.01128 0.0
C243 C 0.51201 0.64748 0.0236 0.0
O244 O 0.5345 0.70869 0.02226 0.0
C245 C 0.85438 0.82067 0.98836 0.0
C246 C 0.89843 0.76348 0.98415 0.0
C247 C 0.90015 0.82044 0.98225 0.0
N248 N 0.82635 0.76577 0.99346 0.0
N249 N 0.85342 0.73222 0.99094 0.0
C250 C 0.83836 0.87246 0.98952 0.0
H251 H 0.8191 0.8711 0.99688 0.0
H252 H 0.80142 0.86556 0.98412 0.0
H253 H 0.88107 0.91982 0.98829 0.0
C254 C 0.57456 0.63295 0.99505 0.0
N255 N 0.6246 0.66551 1.00104 0.0
N256 N 0.67746 0.69249 0.99589 0.0
C257 C 0.66252 0.67841 0.98641 0.0
C258 C 0.59688 0.63992 0.98554 0.0
C259 C 0.50807 0.58979 0.99856 0.0
H260 H 0.50873 0.5587 1.00443 0.0
H261 H 0.48887 0.61897 1.00168 0.0
H262 H 0.47623 0.5595 0.99264 0.0
O263 O 0.67482 0.62425 0.01923 0.0
O264 O 0.76528 0.66978 0.01085 0.0
H265 H 0.74084 0.67869 0.97919 0.0
H266 H 0.68751 0.68845 0.97106 0.0
C267 C 0.71039 0.70053 0.97833 0.0
H268 H 0.74107 0.75283 0.97875 0.0
H269 H 0.84047 0.68742 0.99377 0.0
O270 O 0.54451 0.62245 0.02082 0.0
C271 C 0.72831 0.62948 0.01711 0.0
Co272 Co 0.97606 0.63802 0.18209 0.0
Co273 Co 0.03239 0.76022 0.16886 0.0
C274 C 0.93697 0.7375 0.18441 0.0
O275 O 0.93261 0.68459 0.18678 0.0
O276 O 0.9736 0.77155 0.17755 0.0
C277 C 0.87941 0.51976 0.19082 0.0
O278 O 0.83979 0.53982 0.18852 0.0
C279 C 0.04056 0.85427 0.15427 0.0
C280 C 0.13737 0.88841 0.14848 0.0
C281 C 0.08371 0.89411 0.1473 0.0
N282 N 0.0675 0.8259 0.15923 0.0
N283 N 0.12568 0.84736 0.15583 0.0
C284 C 0.97286 0.83813 0.15555 0.0
H285 H 0.94459 0.79056 0.15897 0.0
H286 H 0.95153 0.83894 0.14843 0.0
H287 H 0.97141 0.87402 0.16039 0.0
C288 C 0.95229 0.57616 0.16263 0.0
N289 N 0.97028 0.62769 0.16833 0.0
N290 N 0.99209 0.67871 0.1628 0.0
C291 C 0.98777 0.66108 0.15339 0.0
C292 C 0.96301 0.59568 0.15295 0.0
C293 C 0.93221 0.51107 0.16647 0.0
H294 H 0.96477 0.51449 0.17242 0.0
H295 H 0.88359 0.49029 0.16957 0.0
H296 H 0.93221 0.47906 0.1607 0.0
O297 O 0.06682 0.68545 0.18611 0.0
O298 O 0.10575 0.7711 0.17668 0.0
H299 H 0.06034 0.73633 0.14492 0.0
H300 H 0.99193 0.68053 0.1379 0.0
C301 C 0.00776 0.70609 0.14495 0.0
H302 H 0.98661 0.73708 0.1457 0.0
H303 H 0.15667 0.83228 0.15831 0.0
O304 O 0.93801 0.55389 0.18867 0.0
C305 C 0.11319 0.73835 0.18326 0.0
Co306 Co 0.33955 0.9689 0.34845 0.0
Co307 Co 0.27388 0.02702 0.33567 0.0
C308 C 0.20062 0.92834 0.35071 0.0
O309 O 0.24995 0.92536 0.35303 0.0
O310 O 0.20232 0.96527 0.34396 0.0
C311 C 0.36883 0.87261 0.35515 0.0
O312 O 0.32117 0.83247 0.34967 0.0
C313 C 0.18695 0.03693 0.32153 0.0
C314 C 0.25074 0.13162 0.31514 0.0
C315 C 0.19012 0.07928 0.31444 0.0
N316 N 0.24346 0.06299 0.32614 0.0
N317 N 0.28093 0.11997 0.32238 0.0
C318 C 0.13396 0.97036 0.32321 0.0
H319 H 0.15309 0.94022 0.32597 0.0
H320 H 0.10663 0.94954 0.31641 0.0
H321 H 0.10118 0.97112 0.32878 0.0
C322 C 0.37989 0.94951 0.32881 0.0
N323 N 0.34571 0.96581 0.33469 0.0
N324 N 0.31578 0.98774 0.32934 0.0
C325 C 0.32847 0.98416 0.31987 0.0
C326 C 0.37 0.96049 0.31921 0.0
C327 C 0.42716 0.93156 0.33238 0.0
H328 H 0.44877 0.95639 0.33931 0.0
H329 H 0.40244 0.87947 0.33367 0.0
H330 H 0.46543 0.94377 0.32694 0.0
O331 O 0.38212 0.05775 0.35272 0.0
O332 O 0.33586 0.09997 0.34391 0.0
H333 H 0.32434 0.0552 0.31118 0.0
H334 H 0.30781 0.98438 0.30451 0.0
C335 C 0.30103 1.0026 0.31156 0.0
H336 H 0.24938 0.98273 0.31272 0.0
H337 H 0.32797 0.15001 0.32454 0.0
O338 O 0.38388 0.9308 0.35537 0.0
C339 C 0.37605 0.10509 0.35035 0.0
Co340 Co 0.37528 0.33656 0.51539 0.0
Co341 Co 0.25564 0.27339 0.50167 0.0
C342 C 0.27691 0.19782 0.51696 0.0
O343 O 0.3293 0.24595 0.51959 0.0
O344 O 0.24349 0.20176 0.51012 0.0
C345 C 0.49652 0.36107 0.52323 0.0
O346 O 0.48503 0.30901 0.51858 0.0
C347 C 0.1665 0.18793 0.48668 0.0
C348 C 0.12686 0.24633 0.48105 0.0
C349 C 0.12537 0.18899 0.47973 0.0
N350 N 0.19149 0.24248 0.4918 0.0
N351 N 0.16689 0.27671 0.48848 0.0
C352 C 0.18613 0.13888 0.48791 0.0
H353 H 0.23478 0.16083 0.49104 0.0
H354 H 0.18457 0.11599 0.48083 0.0
H355 H 0.15272 0.10166 0.49301 0.0
C356 C 0.44097 0.37716 0.49612 0.0
N357 N 0.38846 0.34393 0.50165 0.0
N358 N 0.33827 0.31598 0.49591 0.0
C359 C 0.3574 0.32989 0.48656 0.0
C360 C 0.42307 0.36889 0.48637 0.0
C361 C 0.50673 0.41726 0.50013 0.0
H362 H 0.50583 0.44671 0.50624 0.0
H363 H 0.5238 0.38565 0.50296 0.0
H364 H 0.54081 0.44841 0.49449 0.0
O365 O 0.32614 0.37822 0.51941 0.0
O366 O 0.24235 0.33404 0.50958 0.0
H367 H 0.27953 0.33013 0.47931 0.0
H368 H 0.33855 0.3327 0.47113 0.0
C369 C 0.31303 0.31231 0.47806 0.0
H370 H 0.28522 0.25979 0.47738 0.0
H371 H 0.17884 0.3217 0.49112 0.0
O372 O 0.45689 0.38073 0.52265 0.0
C373 C 0.27384 0.37255 0.51641 0.0
Co374 Co 0.03702 0.36855 0.6815 0.0
Co375 Co 0.97149 0.24342 0.6689 0.0
C376 C 0.07035 0.26651 0.68419 0.0
O377 O 0.0789 0.32139 0.68631 0.0
O378 O 0.03047 0.23201 0.67768 0.0
C379 C 0.13219 0.48289 0.69135 0.0
O380 O 0.16847 0.45699 0.69083 0.0
C381 C 0.96398 0.152 0.65386 0.0
C382 C 0.86038 0.09797 0.65113 0.0
C383 C 0.91745 0.10284 0.64825 0.0
N384 N 0.93542 0.17514 0.65965 0.0
N385 N 0.87352 0.14241 0.65799 0.0
C386 C 0.03387 0.17499 0.65409 0.0
H387 H 0.05519 0.20005 0.66102 0.0
H388 H 0.05764 0.2091 0.64804 0.0
H389 H 0.04264 0.13453 0.65317 0.0
C390 C 0.06241 0.42691 0.66188 0.0
N391 N 0.04104 0.3757 0.66773 0.0
N392 N 0.01286 0.32364 0.6624 0.0
C393 C 0.01484 0.34025 0.65297 0.0
C394 C 0.04666 0.40625 0.65232 0.0
C395 C 0.09531 0.49415 0.66547 0.0
H396 H 0.13497 0.50204 0.67036 0.0
H397 H 0.11451 0.52878 0.65937 0.0
H398 H 0.06122 0.5023 0.66975 0.0
O399 O 0.94695 0.32441 0.68583 0.0
O400 O 0.90016 0.2365 0.67689 0.0
H401 H 0.97462 0.31827 0.63841 0.0
H402 H 0.00552 0.26917 0.64285 0.0
C403 C 0.97951 0.29412 0.64494 0.0
H404 H 0.93137 0.25824 0.64749 0.0
H405 H 0.84017 0.15062 0.66152 0.0
O406 O 0.07661 0.45381 0.6877 0.0
C407 C 0.89761 0.27252 0.68341 0.0
H408 H 0.66361 0.84185 0.02991 0.0
H409 H 0.85243 0.90357 0.01877 0.0
H410 H 0.70724 0.93627 0.0404 0.0
H411 H 0.89549 0.99671 0.02932 0.0
H412 H 0.95393 0.10221 0.05865 0.0
H413 H 0.90292 0.00776 0.04834 0.0
H414 H 0.76866 0.0626 0.03823 0.0
H415 H 0.82022 0.15811 0.04846 0.0
C416 C 0.7142 0.87562 0.02965 0.0
C417 C 0.75455 0.86503 0.02353 0.0
C418 C 0.73904 0.92959 0.03564 0.0
C419 C 0.80472 0.97322 0.03572 0.0
C420 C 0.84476 0.96333 0.02947 0.0
C421 C 0.81994 0.91015 0.02339 0.0
C422 C 0.91319 0.09401 0.05431 0.0
C423 C 0.8914 0.13795 0.05433 0.0
C424 C 0.88427 0.0401 0.04837 0.0
C425 C 0.83228 0.02834 0.04245 0.0
C426 C 0.80867 0.07067 0.04275 0.0
C427 C 0.83831 0.12532 0.04858 0.0
H428 H 0.96039 0.85977 0.18514 0.0
H429 H 0.83712 0.67225 0.19702 0.0
H430 H 0.91129 0.90348 0.19581 0.0
H431 H 0.78727 0.7164 0.2076 0.0
H432 H 0.67639 0.82677 0.2157 0.0
H433 H 0.72057 0.77578 0.2054 0.0
H434 H 0.90998 0.91344 0.21489 0.0
H435 H 0.86621 0.96389 0.2253 0.0
C436 C 0.92233 0.8277 0.18994 0.0
C437 C 0.90283 0.7625 0.19025 0.0
C438 C 0.89459 0.85289 0.19609 0.0
C439 C 0.84598 0.81335 0.20257 0.0
C440 C 0.82472 0.74783 0.20266 0.0
C441 C 0.85331 0.72269 0.19662 0.0
C442 C 0.72741 0.84575 0.21567 0.0
C443 C 0.76782 0.89955 0.22129 0.0
C444 C 0.75256 0.81645 0.2098 0.0
C445 C 0.81861 0.8411 0.20931 0.0
C446 C 0.85888 0.89395 0.21508 0.0
C447 C 0.83374 0.92253 0.22107 0.0
H448 H 0.81684 0.69185 0.3743 0.0
H449 H 0.92903 0.82229 0.3972 0.0
H450 H 0.91146 0.7342 0.36396 0.0
H451 H 0.02366 0.86375 0.38688 0.0
H452 H 0.18832 0.87439 0.36862 0.0
H453 H 0.09304 0.82185 0.37876 0.0
H454 H 0.98395 0.84627 0.35606 0.0
H455 H 0.07948 0.89979 0.3459 0.0
C456 C 0.86179 0.72897 0.37717 0.0
C457 C 0.86543 0.75386 0.38656 0.0
C458 C 0.91576 0.75338 0.37123 0.0
C459 C 0.97467 0.80225 0.37462 0.0
C460 C 0.97882 0.82579 0.38411 0.0
C461 C 0.92464 0.80223 0.38999 0.0
C462 C 0.14394 0.86805 0.36573 0.0
C463 C 0.14153 0.8915 0.35646 0.0
C464 C 0.08955 0.83828 0.37157 0.0
C465 C 0.03135 0.83027 0.3682 0.0
C466 C 0.02825 0.8516 0.35881 0.0
C467 C 0.08294 0.88242 0.35302 0.0
H468 H 0.15477 0.09853 0.51737 0.0
H469 H 0.34217 0.1611 0.52919 0.0
H470 H 0.11098 0.0044 0.52777 0.0
H471 H 0.29799 0.06586 0.53948 0.0
H472 H 0.18534 0.84455 0.54779 0.0
H473 H 0.23629 0.93837 0.53718 0.0
H474 H 0.1032 0.99535 0.54703 0.0
H475 H 0.05304 0.90288 0.55774 0.0
C476 C 0.18681 0.09181 0.52208 0.0
C477 C 0.25193 0.13754 0.52249 0.0
C478 C 0.1616 0.0381 0.52807 0.0
C479 C 0.20111 0.02832 0.53446 0.0
C480 C 0.26663 0.07241 0.5346 0.0
C481 C 0.29176 0.12688 0.52873 0.0
C482 C 0.16737 0.87745 0.54776 0.0
C483 C 0.11504 0.86616 0.5536 0.0
C484 C 0.19658 0.93105 0.5417 0.0
C485 C 0.17315 0.97351 0.54124 0.0
C486 C 0.12166 0.96286 0.54719 0.0
C487 C 0.09327 0.91011 0.55336 0.0
H488 H 0.14346 0.04131 0.72504 0.0
H489 H 0.33196 0.1736 0.71434 0.0
H490 H 0.09901 0.09116 0.71466 0.0
H491 H 0.2871 0.22391 0.70404 0.0
H492 H 0.17497 0.33128 0.69593 0.0
H493 H 0.22519 0.28642 0.70625 0.0
H494 H 0.09137 0.09815 0.69583 0.0
H495 H 0.04161 0.14258 0.68543 0.0
C496 C 0.17553 0.08142 0.72056 0.0
C497 C 0.24126 0.10329 0.72049 0.0
C498 C 0.14996 0.10963 0.71457 0.0
C499 C 0.18961 0.16098 0.70851 0.0
C500 C 0.25555 0.18441 0.70867 0.0
C501 C 0.2811 0.15549 0.71454 0.0
C502 C 0.15661 0.28038 0.69578 0.0
C503 C 0.10416 0.24048 0.68988 0.0
C504 C 0.18546 0.25483 0.70167 0.0
C505 C 0.16172 0.18885 0.70189 0.0
C506 C 0.1101 0.14913 0.69587 0.0
C507 C 0.08194 0.17469 0.68987 0.0
H508 H 0.81364 0.12641 0.86914 0.0
H509 H 0.92721 0.11473 0.84583 0.0
H510 H 0.90827 0.17888 0.87945 0.0
H511 H 0.02187 0.16794 0.85614 0.0
H512 H 0.18554 0.31853 0.87493 0.0
H513 H 0.09068 0.27674 0.86469 0.0
H514 H 0.9811 0.14011 0.88701 0.0
H515 H 0.07609 0.18125 0.89725 0.0
C516 C 0.85888 0.13577 0.86617 0.0
C517 C 0.86287 0.11619 0.85667 0.0
C518 C 0.9129 0.16545 0.8721 0.0
C519 C 0.97219 0.1772 0.8686 0.0
C520 C 0.97672 0.15973 0.85899 0.0
C521 C 0.92252 0.12908 0.85311 0.0
C522 C 0.14112 0.27999 0.87771 0.0
C523 C 0.13838 0.25305 0.8869 0.0
C524 C 0.08698 0.25591 0.87181 0.0
C525 C 0.02874 0.20517 0.87505 0.0
C526 C 0.0254 0.17956 0.88436 0.0
C527 C 0.07979 0.20292 0.8902 0.0
H528 H 0.16995 0.15294 0.0995 0.0
H529 H 0.9828 0.1156 0.10796 0.0
H530 H 0.16574 0.08003 0.11196 0.0
H531 H 0.97681 0.03932 0.12005 0.0
H532 H 0.02586 0.96675 0.14831 0.0
H533 H 0.02068 0.03409 0.13549 0.0
H534 H 0.11669 0.97072 0.11576 0.0
H535 H 0.12338 0.9054 0.12863 0.0
C536 C 0.12735 0.12836 0.10391 0.0
C537 C 0.07614 0.13921 0.10254 0.0
C538 C 0.12465 0.08594 0.11102 0.0
C539 C 0.07053 0.05291 0.11695 0.0
C540 C 0.01926 0.06389 0.11562 0.0
C541 C 0.02217 0.10681 0.10852 0.0
C542 C 0.04489 0.96661 0.14118 0.0
C543 C 0.07501 0.9309 0.13945 0.0
C544 C 0.04195 0.00516 0.13383 0.0
C545 C 0.06881 0.0084 0.12459 0.0
C546 C 0.09687 0.97072 0.12283 0.0
C547 C 0.10043 0.93297 0.13019 0.0
H548 H 0.96467 0.02004 0.26173 0.0
H549 H 0.91723 0.12842 0.28152 0.0
H550 H 0.03056 0.01009 0.2744 0.0
H551 H 0.98233 0.1178 0.2942 0.0
H552 H 0.06247 0.03385 0.31682 0.0
H553 H 0.98642 0.02708 0.3044 0.0
H554 H 0.13569 0.09858 0.2828 0.0
H555 H 0.21161 0.10627 0.2952 0.0
C556 C 0.96738 0.04061 0.26884 0.0
C557 C 0.93572 0.07471 0.27069 0.0
C558 C 0.00528 0.03526 0.27605 0.0
C559 C 0.01118 0.06296 0.28527 0.0
C560 C 0.978 0.09545 0.28719 0.0
C561 C 0.9412 0.10188 0.27993 0.0
C562 C 0.0786 0.0472 0.30939 0.0
C563 C 0.14268 0.07037 0.30694 0.0
C564 C 0.03533 0.04366 0.30231 0.0
C565 C 0.05528 0.06207 0.29265 0.0
C566 C 0.11898 0.08349 0.29017 0.0
C567 C 0.16241 0.08827 0.29727 0.0
H568 H 0.11347 0.21314 0.46082 0.0
H569 H 0.05387 0.0594 0.48145 0.0
H570 H 0.04633 0.13741 0.44832 0.0
H571 H 0.98588 0.9835 0.46894 0.0
H572 H 0.80664 0.90749 0.44781 0.0
H573 H 0.88465 0.97325 0.46016 0.0
H574 H 0.03442 0.03798 0.43871 0.0
H575 H 0.95622 0.97127 0.42634 0.0
C576 C 0.08649 0.16299 0.46263 0.0
C577 C 0.08902 0.14195 0.47206 0.0
C578 C 0.04848 0.11971 0.45547 0.0
C579 C 0.01115 0.05471 0.45767 0.0
C580 C 0.01436 0.03343 0.46707 0.0
C581 C 0.05346 0.07668 0.4742 0.0
C582 C 0.85635 0.93527 0.44577 0.0
C583 C 0.87559 0.93425 0.43615 0.0
C584 C 0.90095 0.97244 0.45284 0.0
C585 C 0.96547 0.01041 0.45038 0.0
C586 C 0.98491 0.00897 0.44078 0.0
C587 C 0.94036 0.97069 0.43373 0.0
H588 H 0.83105 0.98066 0.64379 0.0
H589 H 0.01563 0.13434 0.63514 0.0
H590 H 0.83496 0.91502 0.63069 0.0
H591 H 0.01999 0.06797 0.62216 0.0
H592 H 0.02238 0.89644 0.60665 0.0
H593 H 0.02486 0.96718 0.6195 0.0
H594 H 0.83116 0.91576 0.61268 0.0
H595 H 0.82902 0.84607 0.59972 0.0
C596 C 0.87278 1.00034 0.63915 0.0
C597 C 0.92349 0.06251 0.64066 0.0
C598 C 0.87486 0.96276 0.63162 0.0
C599 C 0.92769 0.9864 0.62537 0.0
C600 C 0.97899 0.04818 0.62694 0.0
C601 C 0.97672 0.08604 0.63447 0.0
C602 C 0.98102 0.90167 0.60766 0.0
C603 C 0.92591 0.86655 0.60199 0.0
C604 C 0.98228 0.94181 0.61511 0.0
C605 C 0.92815 0.94687 0.61713 0.0
C606 C 0.87338 0.91227 0.61139 0.0
C607 C 0.87226 0.87256 0.60393 0.0
H608 H 0.09171 0.88318 0.7813 0.0
H609 H 0.04897 0.99391 0.76126 0.0
H610 H 0.02763 0.89647 0.79385 0.0
H611 H 0.98421 0.00667 0.7738 0.0
H612 H 0.80148 0.91355 0.79426 0.0
H613 H 0.87799 0.92082 0.78201 0.0
H614 H 0.02477 0.98734 0.804 0.0
H615 H 0.94808 0.98089 0.81627 0.0
C616 C 0.06907 0.91088 0.77963 0.0
C617 C 0.07549 0.93784 0.77035 0.0
C618 C 0.03287 0.91886 0.78682 0.0
C619 C 1.00127 0.95278 0.78479 0.0
C620 C 0.00828 0.98042 0.77554 0.0
C621 C 0.04555 0.97346 0.7684 0.0
C622 C 0.85031 0.93051 0.79644 0.0
C623 C 0.8691 0.94695 0.80618 0.0
C624 C 0.89409 0.93504 0.78943 0.0
C625 C 0.95721 0.95478 0.79207 0.0
C626 C 0.97632 0.97205 0.80179 0.0
C627 C 0.9327 0.96873 0.80878 0.0
H628 H 0.01858 0.84763 0.97683 0.0
H629 H 0.87401 0.89679 0.9704 0.0
H630 H 0.08444 0.91737 0.96375 0.0
H631 H 0.94072 0.96773 0.95746 0.0
H632 H 0.11627 0.13549 0.94157 0.0
H633 H 0.04682 0.0692 0.95468 0.0
H634 H 0.07669 0.91555 0.94568 0.0
H635 H 0.14478 0.98101 0.93245 0.0
C636 C 1.00112 0.87388 0.97271 0.0
C637 C 0.94148 0.86745 0.97482 0.0
C638 C 0.03876 0.91363 0.96519 0.0
C639 C 0.01767 0.94791 0.95956 0.0
C640 C 0.95859 0.94256 0.96176 0.0
C641 C 0.92061 0.90231 0.96926 0.0
C642 C 0.10659 0.08705 0.94217 0.0
C643 C 0.13527 0.06327 0.93581 0.0
C644 C 0.06722 0.04924 0.94976 0.0
C645 C 0.05658 0.98731 0.95124 0.0
C646 C 0.08468 0.96341 0.94482 0.0
C647 C 0.12352 1.00089 0.93721 0.0
H648 H 0.45523 0.52097 0.02802 0.0
H649 H 0.42999 0.6846 0.03073 0.0
H650 H 0.35618 0.45644 0.03683 0.0
H651 H 0.33101 0.61991 0.03967 0.0
H652 H 0.12377 0.46463 0.04595 0.0
H653 H 0.22236 0.53046 0.03708 0.0
H654 H 0.31436 0.4467 0.05342 0.0
H655 H 0.21555 0.3801 0.06222 0.0
C656 C 0.42858 0.54324 0.0305 0.0
C657 C 0.45064 0.60805 0.02869 0.0
C658 C 0.37199 0.50628 0.0356 0.0
C659 C 0.33594 0.53312 0.039 0.0
C660 C 0.35748 0.59772 0.03708 0.0
C661 C 0.41431 0.63483 0.03199 0.0
C662 C 0.16499 0.46023 0.04768 0.0
C663 C 0.1616 0.41686 0.05479 0.0
C664 C 0.22162 0.49828 0.04262 0.0
C665 C 0.27612 0.49372 0.04453 0.0
C666 C 0.27292 0.45073 0.05169 0.0
C667 C 0.21636 0.41281 0.05677 0.0
H668 H 0.94923 0.46507 0.19644 0.0
H669 H 0.75805 0.43541 0.19685 0.0
H670 H 0.91269 0.3653 0.20514 0.0
H671 H 0.72168 0.33581 0.20571 0.0
H672 H 0.67077 0.12894 0.21236 0.0
H673 H 0.70493 0.22819 0.20355 0.0
H674 H 0.87464 0.32089 0.22127 0.0
H675 H 0.84123 0.22168 0.22997 0.0
C676 C 0.89939 0.43737 0.19841 0.0
C677 C 0.8566 0.4584 0.19597 0.0
C678 C 0.87852 0.38029 0.20345 0.0
C679 C 0.81433 0.34271 0.20618 0.0
C680 C 0.77134 0.36335 0.20365 0.0
C681 C 0.79226 0.4206 0.19861 0.0
C682 C 0.71531 0.17051 0.2144 0.0
C683 C 0.75332 0.16715 0.22187 0.0
C684 C 0.73472 0.22751 0.20938 0.0
C685 C 0.79264 0.28243 0.21168 0.0
C686 C 0.83024 0.27922 0.21921 0.0
C687 C 0.81084 0.22234 0.22424 0.0
H688 H 0.37903 0.76636 0.35251 0.0
H689 H 0.44141 0.93057 0.37111 0.0
H690 H 0.44249 0.73329 0.36201 0.0
H691 H 0.50198 0.89606 0.38093 0.0
H692 H 0.65707 0.85419 0.39047 0.0
H693 H 0.59344 0.88761 0.38112 0.0
H694 H 0.44964 0.69038 0.37682 0.0
H695 H 0.51503 0.65738 0.3857 0.0
C696 C 0.40571 0.7949 0.35871 0.0
C697 C 0.40545 0.85107 0.36105 0.0
C698 C 0.44184 0.77582 0.36421 0.0
C699 C 0.47757 0.8119 0.37228 0.0
C700 C 0.47632 0.86767 0.37467 0.0
C701 C 0.44118 0.88729 0.36907 0.0
C702 C 0.6117 0.81812 0.38756 0.0
C703 C 0.59118 0.75323 0.38878 0.0
C704 C 0.57495 0.83719 0.38223 0.0
C705 C 0.51625 0.79175 0.37814 0.0
C706 C 0.49514 0.72681 0.37963 0.0
C707 C 0.53241 0.70781 0.3848 0.0
H708 H 0.86649 0.51259 0.5518 0.0
H709 H 0.81155 0.65458 0.5565 0.0
H710 H 0.76642 0.44552 0.54338 0.0
H711 H 0.71345 0.58993 0.54753 0.0
H712 H 0.51657 0.43942 0.53863 0.0
H713 H 0.61412 0.50104 0.54787 0.0
H714 H 0.70973 0.4312 0.5292 0.0
H715 H 0.6105 0.36632 0.52042 0.0
C716 C 0.83315 0.52967 0.55094 0.0
C717 C 0.8467 0.58868 0.55484 0.0
C718 C 0.77585 0.49145 0.54604 0.0
C719 C 0.73128 0.51195 0.54471 0.0
C720 C 0.74548 0.57147 0.54857 0.0
C721 C 0.80208 0.60895 0.55367 0.0
C722 C 0.55847 0.43711 0.53655 0.0
C723 C 0.556 0.39806 0.52882 0.0
C724 C 0.61476 0.47292 0.5418 0.0
C725 C 0.67055 0.47185 0.5393 0.0
C726 C 0.66778 0.4326 0.53151 0.0
C727 C 0.61096 0.39561 0.52641 0.0
H728 H 0.06586 0.54483 0.69463 0.0
H729 H 0.2491 0.56016 0.69957 0.0
H730 H 0.10118 0.64437 0.70336 0.0
H731 H 0.28419 0.65975 0.70839 0.0
H732 H 0.34232 0.87031 0.71395 0.0
H733 H 0.3092 0.77078 0.70529 0.0
H734 H 0.12843 0.68445 0.72025 0.0
H735 H 0.16108 0.78401 0.72887 0.0
C736 C 0.11371 0.56941 0.69757 0.0
C737 C 0.15463 0.54442 0.69642 0.0
C738 C 0.13377 0.62628 0.70263 0.0
C739 C 0.19533 0.65972 0.70661 0.0
C740 C 0.23661 0.63527 0.70534 0.0
C741 C 0.21641 0.5781 0.70032 0.0
C742 C 0.29554 0.8301 0.71542 0.0
C743 C 0.25429 0.8353 0.72209 0.0
C744 C 0.27675 0.77297 0.71049 0.0
C745 C 0.21614 0.71986 0.71206 0.0
C746 C 0.17513 0.72482 0.71879 0.0
C747 C 0.19404 0.7818 0.72377 0.0
H748 H 0.48692 0.34879 0.88432 0.0
H749 H 0.34814 0.15296 0.89057 0.0
H750 H 0.55148 0.31428 0.87553 0.0
H751 H 0.41063 0.11794 0.88132 0.0
H752 H 0.56202 0.07357 0.87159 0.0
H753 H 0.5022 0.11029 0.88115 0.0
H754 H 0.55805 0.26728 0.86114 0.0
H755 H 0.62082 0.23218 0.85192 0.0
C756 C 0.47001 0.29826 0.88376 0.0
C757 C 0.4125 0.2536 0.88816 0.0
C758 C 0.50679 0.27835 0.87864 0.0
C759 C 0.48641 0.21316 0.87763 0.0
C760 C 0.42873 0.16856 0.88206 0.0
C761 C 0.39256 0.18857 0.88734 0.0
C762 C 0.56159 0.11604 0.86926 0.0
C763 C 0.59614 0.15007 0.86102 0.0
C764 C 0.52687 0.13694 0.8747 0.0
C765 C 0.52478 0.19176 0.87194 0.0
C766 C 0.55933 0.2256 0.86364 0.0
C767 C 0.59506 0.20531 0.8583 0.0
H768 H 0.64106 0.79222 0.84553 0.0
H769 H 0.54286 0.86048 0.86388 0.0
H770 H 0.58162 0.68755 0.85308 0.0
H771 H 0.48276 0.75557 0.87129 0.0
H772 H 0.44019 0.58097 0.8897 0.0
H773 H 0.49972 0.68559 0.88212 0.0
H774 H 0.47345 0.59678 0.85391 0.0
H775 H 0.41489 0.49215 0.86149 0.0
C776 C 0.60665 0.78491 0.85114 0.0
C777 C 0.59686 0.83487 0.8541 0.0
C778 C 0.57232 0.72478 0.85543 0.0
C779 C 0.52749 0.71325 0.86279 0.0
C780 C 0.51756 0.76313 0.86573 0.0
C781 C 0.55179 0.8232 0.86143 0.0
C782 C 0.44703 0.58375 0.88188 0.0
C783 C 0.42279 0.52821 0.8762 0.0
C784 C 0.48089 0.64372 0.87753 0.0
C785 C 0.49131 0.6495 0.86741 0.0
C786 C 0.46695 0.59394 0.86174 0.0
C787 C 0.43304 0.53397 0.86608 0.0
H788 H 0.75459 0.36358 0.05687 0.0
H789 H 0.92723 0.44083 0.03991 0.0
H790 H 0.72227 0.42931 0.04783 0.0
H791 H 0.89349 0.50319 0.0304 0.0
H792 H 0.84914 0.65577 0.02118 0.0
H793 H 0.88146 0.59111 0.03045 0.0
H794 H 0.68391 0.44427 0.03333 0.0
H795 H 0.65198 0.51126 0.02465 0.0
C796 C 0.78514 0.39404 0.0511 0.0
C797 C 0.84345 0.39738 0.04911 0.0
C798 C 0.76651 0.43149 0.04585 0.0
C799 C 0.80512 0.47197 0.03833 0.0
C800 C 0.86303 0.47408 0.03626 0.0
C801 C 0.88227 0.43787 0.04167 0.0
C802 C 0.81279 0.60958 0.02379 0.0
C803 C 0.74811 0.58859 0.02222 0.0
C804 C 0.83123 0.57213 0.02907 0.0
C805 C 0.78543 0.51201 0.03269 0.0
C806 C 0.72066 0.49071 0.0309 0.0
C807 C 0.70224 0.52886 0.02583 0.0
H808 H 0.51937 0.91293 0.19475 0.0
H809 H 0.4318 0.86158 0.22321 0.0
H810 H 0.41444 0.86597 0.18723 0.0
H811 H 0.32685 0.81556 0.21569 0.0
H812 H 0.14766 0.68516 0.19799 0.0
H813 H 0.25268 0.72668 0.20535 0.0
H814 H 0.32767 0.88906 0.18607 0.0
H815 H 0.22334 0.84732 0.17861 0.0
C816 C 0.47776 0.89161 0.1994 0.0
C817 C 0.48399 0.89116 0.20958 0.0
C818 C 0.41762 0.865 0.1951 0.0
C819 C 0.36231 0.83726 0.20086 0.0
C820 C 0.36849 0.83596 0.21103 0.0
C821 C 0.42867 0.86266 0.21535 0.0
C822 C 0.18657 0.72962 0.1953 0.0
C823 C 0.17697 0.76286 0.1877 0.0
C824 C 0.24668 0.75357 0.19956 0.0
C825 C 0.29853 0.81114 0.19629 0.0
C826 C 0.28895 0.84414 0.18867 0.0
C827 C 0.22894 0.82034 0.18443 0.0
H828 H 0.68632 0.44124 0.37759 0.0
H829 H 0.5197 0.45875 0.38258 0.0
H830 H 0.62129 0.34267 0.36861 0.0
H831 H 0.45477 0.35994 0.37369 0.0
H832 H 0.37315 0.21641 0.34844 0.0
H833 H 0.43966 0.31709 0.3569 0.0
H834 H 0.53618 0.23332 0.37201 0.0
H835 H 0.47077 0.13342 0.36354 0.0
C836 C 0.63584 0.42398 0.37681 0.0
C837 C 0.60823 0.45783 0.38081 0.0
C838 C 0.59856 0.36742 0.37168 0.0
C839 C 0.53293 0.34365 0.37043 0.0
C840 C 0.50534 0.3775 0.37443 0.0
C841 C 0.54252 0.43387 0.37958 0.0
C842 C 0.40868 0.21956 0.35354 0.0
C843 C 0.41652 0.16677 0.3553 0.0
C844 C 0.44653 0.2771 0.35843 0.0
C845 C 0.49318 0.28309 0.36512 0.0
C846 C 0.50124 0.23048 0.36681 0.0
C847 C 0.46336 0.17304 0.36198 0.0
H848 H 0.09985 0.60413 0.52829 0.0
H849 H 0.14856 0.56508 0.55676 0.0
H850 H 0.14618 0.54568 0.52076 0.0
H851 H 0.194 0.5056 0.54921 0.0
H852 H 0.32531 0.45758 0.5315 0.0
H853 H 0.28323 0.52014 0.53901 0.0
H854 H 0.12279 0.43606 0.51933 0.0
H855 H 0.16516 0.37443 0.51171 0.0
C856 C 0.12042 0.58306 0.53295 0.0
C857 C 0.12038 0.58918 0.54313 0.0
C858 C 0.14666 0.54923 0.52863 0.0
C859 C 0.17354 0.52072 0.53438 0.0
C860 C 0.17426 0.52754 0.54456 0.0
C861 C 0.14792 0.56135 0.54889 0.0
C862 C 0.28112 0.45252 0.52875 0.0
C863 C 0.2487 0.41097 0.52098 0.0
C864 C 0.25684 0.48813 0.5331 0.0
C865 C 0.19969 0.48315 0.52977 0.0
C866 C 0.16738 0.4417 0.52199 0.0
C867 C 0.19155 0.40605 0.51766 0.0
H868 H 0.54562 0.06485 0.71578 0.0
H869 H 0.56069 0.24783 0.71071 0.0
H870 H 0.64536 0.10017 0.70711 0.0
H871 H 0.6605 0.28292 0.70195 0.0
H872 H 0.87126 0.34124 0.69655 0.0
H873 H 0.77158 0.30805 0.70516 0.0
H874 H 0.68562 0.12725 0.69021 0.0
H875 H 0.78532 0.15997 0.68164 0.0
C876 C 0.57019 0.11264 0.71282 0.0
C877 C 0.54508 0.15349 0.71392 0.0
C878 C 0.62717 0.1327 0.7078 0.0
C879 C 0.6606 0.19418 0.7038 0.0
C880 C 0.63602 0.2354 0.70501 0.0
C881 C 0.57874 0.2152 0.71 0.0
C882 C 0.83111 0.29443 0.69507 0.0
C883 C 0.83643 0.2532 0.68841 0.0
C884 C 0.7739 0.2756 0.69998 0.0
C885 C 0.72085 0.21499 0.69839 0.0
C886 C 0.72595 0.17397 0.69168 0.0
C887 C 0.783 0.19291 0.68673 0.0
H888 H 0.05806 0.62109 0.1402 0.0
H889 H 0.86122 0.48563 0.14626 0.0
H890 H 0.05282 0.56363 0.12533 0.0
H891 H 0.85559 0.42741 0.1313 0.0
H892 H 0.89991 0.30935 0.10882 0.0
H893 H 0.89912 0.36304 0.12392 0.0
H894 H 1.00141 0.54475 0.10931 0.0
H895 H 1.00313 0.49095 0.09436 0.0
C896 C 0.01355 0.57902 0.13829 0.0
C897 C 0.95979 0.5581 0.14426 0.0
C898 C 0.01045 0.54622 0.12978 0.0
C899 C 0.95355 0.49145 0.12707 0.0
C900 C 0.90014 0.46938 0.13321 0.0
C901 C 0.90326 0.50255 0.14174 0.0
C902 C 0.92162 0.36072 0.10888 0.0
C903 C 0.95116 0.39618 0.10047 0.0
C904 C 0.92098 0.39139 0.11748 0.0
C905 C 0.95044 0.45814 0.11782 0.0
C906 C 0.97897 0.49333 0.10932 0.0
C907 C 0.97938 0.46263 0.10073 0.0
H908 H 0.60316 0.9057 0.27607 0.0
H909 H 0.51461 0.99553 0.26049 0.0
H910 H 0.54577 0.90364 0.2909 0.0
H911 H 0.45613 0.99231 0.27517 0.0
H912 H 0.43218 0.05298 0.30568 0.0
H913 H 0.48505 0.0477 0.2909 0.0
H914 H 0.43765 0.85563 0.29819 0.0
H915 H 0.3842 0.86114 0.31303 0.0
C916 C 0.57076 0.92425 0.27582 0.0
C917 C 0.5631 0.95073 0.26719 0.0
C918 C 0.53771 0.9228 0.28427 0.0
C919 C 0.49671 0.94817 0.28422 0.0
C920 C 0.48801 0.97317 0.27548 0.0
C921 C 0.52089 0.97443 0.26705 0.0
C922 C 0.43248 0.00941 0.30406 0.0
C923 C 0.40336 0.9571 0.31039 0.0
C924 C 0.4627 0.00633 0.2956 0.0
C925 C 0.46491 0.95097 0.29331 0.0
C926 C 0.43692 0.89901 0.29977 0.0
C927 C 0.40634 0.90207 0.30824 0.0
H928 H 0.49312 0.49643 0.48336 0.0
H929 H 0.43956 0.31564 0.47 0.0
H930 H 0.55078 0.55148 0.46862 0.0
H931 H 0.49539 0.37025 0.45505 0.0
H932 H 0.64975 0.49699 0.4327 0.0
H933 H 0.59973 0.44047 0.44786 0.0
H934 H 0.52214 0.56489 0.45231 0.0
H935 H 0.57269 0.6212 0.43729 0.0
C936 C 0.49455 0.46865 0.47728 0.0
C937 C 0.46255 0.40204 0.47779 0.0
C938 C 0.52679 0.49998 0.4688 0.0
C939 C 0.52725 0.46524 0.46062 0.0
C940 C 0.49649 0.39846 0.46124 0.0
C941 C 0.46435 0.36718 0.46976 0.0
C942 C 0.62176 0.51178 0.43695 0.0
C943 C 0.61538 0.56358 0.43393 0.0
C944 C 0.59308 0.47953 0.4456 0.0
C945 C 0.55749 0.49861 0.45136 0.0
C946 C 0.55041 0.54986 0.44818 0.0
C947 C 0.57903 0.58194 0.43957 0.0
H948 H 0.95076 0.57079 0.60426 0.0
H949 H 0.14992 0.63739 0.59925 0.0
H950 H 0.95403 0.51658 0.61905 0.0
H951 H 0.15309 0.58182 0.61401 0.0
H952 H 0.10159 0.40877 0.63491 0.0
H953 H 0.10474 0.46776 0.62019 0.0
H954 H 0.00584 0.548 0.63557 0.0
H955 H 1.00264 0.48886 0.65021 0.0
C956 C 0.99537 0.57417 0.60639 0.0
C957 C 0.05031 0.60884 0.60071 0.0
C958 C 0.99724 0.54313 0.61484 0.0
C959 C 0.05393 0.54537 0.61772 0.0
C960 C 0.1087 0.5791 0.61194 0.0
C961 C 0.10694 0.61083 0.60352 0.0
C962 C 0.08111 0.43953 0.63511 0.0
C963 C 0.05218 0.44476 0.64364 0.0
C964 C 0.0831 0.47338 0.62674 0.0
C965 C 0.05538 0.51231 0.62673 0.0
C966 C 0.02711 0.51795 0.63534 0.0
C967 C 0.02572 0.48463 0.64372 0.0
H968 H 0.40305 0.10072 0.77564 0.0
H969 H 0.49706 0.01512 0.76042 0.0
H970 H 0.45872 0.10302 0.79067 0.0
H971 H 0.55431 0.0192 0.77527 0.0
H972 H 0.57698 0.95715 0.80555 0.0
H973 H 0.52522 0.96264 0.79067 0.0
H974 H 0.56341 0.15087 0.79869 0.0
H975 H 0.61524 0.1448 0.8137 0.0
C976 C 0.4364 0.0833 0.77551 0.0
C977 C 0.4459 0.05774 0.76692 0.0
C978 C 0.46849 0.08491 0.78407 0.0
C979 C 0.51056 0.06081 0.78419 0.0
C980 C 0.52146 0.0372 0.77547 0.0
C981 C 0.48935 0.03556 0.76694 0.0
C982 C 0.5747 0.99985 0.80409 0.0
C983 C 0.60085 0.05096 0.81066 0.0
C984 C 0.54522 0.00313 0.79556 0.0
C985 C 0.54101 0.05759 0.79341 0.0
C986 C 0.56576 0.1082 0.80014 0.0
C987 C 0.59541 0.10484 0.80871 0.0
H988 H 0.48976 0.635 0.97823 0.0
H989 H 0.62158 0.5675 0.97317 0.0
H990 H 0.43053 0.57932 0.96351 0.0
H991 H 0.56354 0.51303 0.95842 0.0
H992 H 0.48744 0.48671 0.92725 0.0
H993 H 0.54348 0.54462 0.94195 0.0
H994 H 0.36426 0.46576 0.95726 0.0
H995 H 0.30826 0.40807 0.94247 0.0
C996 C 0.50588 0.60817 0.97396 0.0
C997 C 0.56049 0.60601 0.97673 0.0
C998 C 0.4721 0.57634 0.96557 0.0
C999 C 0.49279 0.54232 0.95978 0.0
C1000 C 0.54713 0.5398 0.96264 0.0
C1001 C 0.58036 0.57097 0.97106 0.0
C1002 C 0.46013 0.48244 0.93374 0.0
C1003 C 0.39371 0.4434 0.93377 0.0
C1004 C 0.49212 0.51506 0.94216 0.0
C1005 C 0.45822 0.50954 0.95076 0.0
C1006 C 0.39152 0.47128 0.95072 0.0
C1007 C 0.35957 0.43813 0.9423 0.0
loop_
_geom_bond_atom_site_label_1
_geom_bond_atom_site_label_2
_geom_bond_distance
_geom_bond_site_symmetry_2
_ccdc_geom_bond_type
Co0 O3 1.970 . S
Co0 N17 1.989 . S
Co0 O25 1.967 1_655 S
Co0 O32 1.920 . S
Co1 O4 1.966 1_455 S
Co1 N10 2.022 . S
Co1 N18 1.993 . S
Co1 O26 1.941 . S
C2 O3 1.258 . S
C2 O4 1.263 . S
O3 Co0 1.970 . S
O3 C2 1.258 . S
O4 Co1 1.966 1_655 S
O4 C2 1.263 . S
C5 O6 1.235 . S
C5 O32 1.289 . S
O6 C5 1.235 . S
C7 C9 1.400 . S
C7 N10 1.351 . S
C7 C12 1.501 1_455 S
C8 C9 1.387 . S
C8 N11 1.341 . S
C9 C7 1.400 . S
C9 C8 1.387 . S
N10 Co1 2.022 . S
N10 C7 1.351 . S
N10 N11 1.365 . S
N11 C8 1.341 . S
N11 N10 1.365 . S
N11 H31 0.862 . S
C12 C7 1.501 1_655 S
C12 H13 0.961 . S
C12 H14 0.961 . S
C12 H15 0.960 . S
H13 C12 0.961 . S
H14 C12 0.961 . S
H15 C12 0.960 . S
C16 N17 1.342 . S
C16 C20 1.401 . S
C16 C21 1.499 . S
N17 Co0 1.989 . S
N17 C16 1.342 . S
N17 N18 1.388 1_655 S
N18 Co1 1.993 . S
N18 N17 1.388 1_455 S
N18 C19 1.344 1_455 S
C19 N18 1.344 1_655 S
C19 C20 1.401 . S
C19 C29 1.507 1_655 S
C20 C16 1.401 . S
C20 C19 1.401 . S
C21 C16 1.499 . S
C21 H22 0.959 . S
C21 H23 0.960 . S
C21 H24 0.961 . S
H22 C21 0.959 . S
H23 C21 0.960 . S
H24 C21 0.961 . S
O25 Co0 1.967 1_455 S
O25 C33 1.258 . S
O26 Co1 1.941 . S
O26 C33 1.266 . S
H27 C29 0.959 . S
H28 C29 0.961 1_655 S
C29 C19 1.507 1_455 S
C29 H27 0.959 . S
C29 H28 0.961 1_455 S
C29 H30 0.960 . S
H30 C29 0.960 . S
H31 N11 0.862 . S
O32 Co0 1.920 . S
O32 C5 1.289 . S
C33 O25 1.258 . S
C33 O26 1.266 . S
Co34 O37 1.970 . S
Co34 N51 1.989 . S
Co34 O59 1.967 1_565 S
Co34 O66 1.920 . S
Co35 O38 1.966 1_545 S
Co35 N44 2.022 . S
Co35 N52 1.993 . S
Co35 O60 1.941 . S
C36 O37 1.258 . S
C36 O38 1.263 . S
O37 Co34 1.970 . S
O37 C36 1.258 . S
O38 Co35 1.966 1_565 S
O38 C36 1.263 . S
C39 O40 1.235 . S
C39 O66 1.289 . S
O40 C39 1.235 . S
C41 C43 1.400 . S
C41 N44 1.351 . S
C41 C46 1.501 1_545 S
C42 C43 1.387 . S
C42 N45 1.341 . S
C43 C41 1.400 . S
C43 C42 1.387 . S
N44 Co35 2.022 . S
N44 C41 1.351 . S
N44 N45 1.365 . S
N45 C42 1.341 . S
N45 N44 1.365 . S
N45 H65 0.862 . S
C46 C41 1.501 1_565 S
C46 H47 0.961 . S
C46 H48 0.961 . S
C46 H49 0.960 . S
H47 C46 0.961 . S
H48 C46 0.961 . S
H49 C46 0.960 . S
C50 N51 1.342 . S
C50 C54 1.401 . S
C50 C55 1.499 . S
N51 Co34 1.989 . S
N51 C50 1.342 . S
N51 N52 1.388 1_565 S
N52 Co35 1.993 . S
N52 N51 1.388 1_545 S
N52 C53 1.347 1_545 S
C53 N52 1.347 1_565 S
C53 C54 1.392 . S
C53 C63 1.512 1_565 S
C54 C50 1.401 . S
C54 C53 1.392 . S
C55 C50 1.499 . S
C55 H56 0.959 . S
C55 H57 0.960 . S
C55 H58 0.961 . S
H56 C55 0.959 . S
H57 C55 0.960 . S
H58 C55 0.961 . S
O59 Co34 1.967 1_545 S
O59 C67 1.258 . S
O60 Co35 1.941 . S
O60 C67 1.266 . S
H61 C63 0.959 . S
H62 C63 0.961 1_565 S
C63 C53 1.512 1_545 S
C63 H61 0.959 . S
C63 H62 0.961 1_545 S
C63 H64 0.960 . S
H64 C63 0.960 . S
H65 N45 0.862 . S
O66 Co34 1.920 . S
O66 C39 1.289 . S
C67 O59 1.258 . S
C67 O60 1.266 . S
Co68 O71 1.970 . S
Co68 N85 1.989 . S
Co68 O93 1.967 . S
Co68 O100 1.920 . S
Co69 O72 1.966 . S
Co69 N78 2.022 . S
Co69 N86 1.993 . S
Co69 O94 1.941 . S
C70 O71 1.258 . S
C70 O72 1.263 . S
O71 Co68 1.970 . S
O71 C70 1.258 . S
O72 Co69 1.966 . S
O72 C70 1.263 . S
C73 O74 1.235 . S
C73 O100 1.289 . S
O74 C73 1.235 . S
C75 C77 1.400 . S
C75 N78 1.351 . S
C75 C80 1.501 . S
C76 C77 1.387 . S
C76 N79 1.341 . S
C77 C75 1.400 . S
C77 C76 1.387 . S
N78 Co69 2.022 . S
N78 C75 1.351 . S
N78 N79 1.365 . S
N79 C76 1.341 . S
N79 N78 1.365 . S
N79 H99 0.862 . S
C80 C75 1.501 . S
C80 H81 0.961 . S
C80 H82 0.961 . S
C80 H83 0.960 . S
H81 C80 0.961 . S
H82 C80 0.961 . S
H83 C80 0.960 . S
C84 N85 1.342 . S
C84 C88 1.401 . S
C84 C89 1.499 . S
N85 Co68 1.989 . S
N85 C84 1.342 . S
N85 N86 1.388 . S
N86 Co69 1.993 . S
N86 N85 1.388 . S
N86 C87 1.346 . S
C87 N86 1.346 . S
C87 C88 1.396 . S
C87 C97 1.510 . S
C88 C84 1.401 . S
C88 C87 1.396 . S
C89 C84 1.499 . S
C89 H90 0.959 . S
C89 H91 0.960 . S
C89 H92 0.961 . S
H90 C89 0.959 . S
H91 C89 0.960 . S
H92 C89 0.961 . S
O93 Co68 1.967 . S
O93 C101 1.258 . S
O94 Co69 1.941 . S
O94 C101 1.266 . S
H95 C97 0.959 . S
H96 C97 0.961 . S
C97 C87 1.510 . S
C97 H95 0.959 . S
C97 H96 0.961 . S
C97 H98 0.960 . S
H98 C97 0.960 . S
H99 N79 0.862 . S
O100 Co68 1.920 . S
O100 C73 1.289 . S
C101 O93 1.258 . S
C101 O94 1.266 . S
Co102 O105 1.970 . S
Co102 N119 1.989 . S
Co102 O127 1.967 1_455 S
Co102 O134 1.920 . S
Co103 O106 1.966 1_655 S
Co103 N112 2.022 . S
Co103 N120 1.993 . S
Co103 O128 1.941 . S
C104 O105 1.258 . S
C104 O106 1.263 . S
O105 Co102 1.970 . S
O105 C104 1.258 . S
O106 Co103 1.966 1_455 S
O106 C104 1.263 . S
C107 O108 1.235 . S
C107 O134 1.289 . S
O108 C107 1.235 . S
C109 C111 1.400 . S
C109 N112 1.351 . S
C109 C114 1.501 1_655 S
C110 C111 1.387 . S
C110 N113 1.341 . S
C111 C109 1.400 . S
C111 C110 1.387 . S
N112 Co103 2.022 . S
N112 C109 1.351 . S
N112 N113 1.365 . S
N113 C110 1.341 . S
N113 N112 1.365 . S
N113 H133 0.862 . S
C114 C109 1.501 1_455 S
C114 H115 0.961 . S
C114 H116 0.961 . S
C114 H117 0.960 . S
H115 C114 0.961 . S
H116 C114 0.961 . S
H117 C114 0.960 . S
C118 N119 1.342 . S
C118 C122 1.401 . S
C118 C123 1.499 . S
N119 Co102 1.989 . S
N119 C118 1.342 . S
N119 N120 1.388 1_455 S
N120 Co103 1.993 . S
N120 N119 1.388 1_655 S
N120 C121 1.344 1_655 S
C121 N120 1.344 1_455 S
C121 C122 1.401 . S
C121 C131 1.507 1_455 S
C122 C118 1.401 . S
C122 C121 1.401 . S
C123 C118 1.499 . S
C123 H124 0.959 . S
C123 H125 0.960 . S
C123 H126 0.961 . S
H124 C123 0.959 . S
H125 C123 0.960 . S
H126 C123 0.961 . S
O127 Co102 1.967 1_655 S
O127 C135 1.258 . S
O128 Co103 1.941 . S
O128 C135 1.266 . S
H129 C131 0.959 . S
H130 C131 0.961 1_455 S
C131 C121 1.507 1_655 S
C131 H129 0.959 . S
C131 H130 0.961 1_655 S
C131 H132 0.960 . S
H132 C131 0.960 . S
H133 N113 0.862 . S
O134 Co102 1.920 . S
O134 C107 1.289 . S
C135 O127 1.258 . S
C135 O128 1.266 . S
Co136 O139 1.970 . S
Co136 N153 1.989 . S
Co136 O161 1.967 1_545 S
Co136 O168 1.920 . S
Co137 O140 1.966 1_565 S
Co137 N146 2.022 . S
Co137 N154 1.993 . S
Co137 O162 1.941 . S
C138 O139 1.258 . S
C138 O140 1.263 . S
O139 Co136 1.970 . S
O139 C138 1.258 . S
O140 Co137 1.966 1_545 S
O140 C138 1.263 . S
C141 O142 1.235 . S
C141 O168 1.289 . S
O142 C141 1.235 . S
C143 C145 1.400 . S
C143 N146 1.351 . S
C143 C148 1.501 1_565 S
C144 C145 1.387 . S
C144 N147 1.341 . S
C145 C143 1.400 . S
C145 C144 1.387 . S
N146 Co137 2.022 . S
N146 C143 1.351 . S
N146 N147 1.365 . S
N147 C144 1.341 . S
N147 N146 1.365 . S
N147 H167 0.862 . S
C148 C143 1.501 1_545 S
C148 H149 0.961 . S
C148 H150 0.961 . S
C148 H151 0.960 . S
H149 C148 0.961 . S
H150 C148 0.961 . S
H151 C148 0.960 . S
C152 N153 1.342 . S
C152 C156 1.401 . S
C152 C157 1.499 . S
N153 Co136 1.989 . S
N153 C152 1.342 . S
N153 N154 1.388 1_545 S
N154 Co137 1.993 . S
N154 N153 1.388 1_565 S
N154 C155 1.347 1_565 S
C155 N154 1.347 1_545 S
C155 C156 1.392 . S
C155 C165 1.512 1_545 S
C156 C152 1.401 . S
C156 C155 1.392 . S
C157 C152 1.499 . S
C157 H158 0.959 . S
C157 H159 0.960 . S
C157 H160 0.961 . S
H158 C157 0.959 . S
H159 C157 0.960 . S
H160 C157 0.961 . S
O161 Co136 1.967 1_565 S
O161 C169 1.258 . S
O162 Co137 1.941 . S
O162 C169 1.266 . S
H163 C165 0.959 . S
H164 C165 0.961 1_545 S
C165 C155 1.512 1_565 S
C165 H163 0.959 . S
C165 H164 0.961 1_565 S
C165 H166 0.960 . S
H166 C165 0.960 . S
H167 N147 0.862 . S
O168 Co136 1.920 . S
O168 C141 1.289 . S
C169 O161 1.258 . S
C169 O162 1.266 . S
Co170 O173 1.970 . S
Co170 N187 1.989 . S
Co170 O195 1.967 . S
Co170 O202 1.920 . S
Co171 O174 1.966 . S
Co171 N180 2.022 . S
Co171 N188 1.993 . S
Co171 O196 1.941 . S
C172 O173 1.258 . S
C172 O174 1.263 . S
O173 Co170 1.970 . S
O173 C172 1.258 . S
O174 Co171 1.966 . S
O174 C172 1.263 . S
C175 O176 1.235 . S
C175 O202 1.289 . S
O176 C175 1.235 . S
C177 C179 1.400 . S
C177 N180 1.351 . S
C177 C182 1.501 . S
C178 C179 1.387 . S
C178 N181 1.341 . S
C179 C177 1.400 . S
C179 C178 1.387 . S
N180 Co171 2.022 . S
N180 C177 1.351 . S
N180 N181 1.365 . S
N181 C178 1.341 . S
N181 N180 1.365 . S
N181 H201 0.862 . S
C182 C177 1.501 . S
C182 H183 0.961 . S
C182 H184 0.961 . S
C182 H185 0.960 . S
H183 C182 0.961 . S
H184 C182 0.961 . S
H185 C182 0.960 . S
C186 N187 1.342 . S
C186 C190 1.401 . S
C186 C191 1.499 . S
N187 Co170 1.989 . S
N187 C186 1.342 . S
N187 N188 1.388 . S
N188 Co171 1.993 . S
N188 N187 1.388 . S
N188 C189 1.346 . S
C189 N188 1.346 . S
C189 C190 1.396 . S
C189 C199 1.510 . S
C190 C186 1.401 . S
C190 C189 1.396 . S
C191 C186 1.499 . S
C191 H192 0.959 . S
C191 H193 0.960 . S
C191 H194 0.961 . S
H192 C191 0.959 . S
H193 C191 0.960 . S
H194 C191 0.961 . S
O195 Co170 1.967 . S
O195 C203 1.258 . S
O196 Co171 1.941 . S
O196 C203 1.266 . S
H197 C199 0.959 . S
H198 C199 0.961 . S
C199 C189 1.510 . S
C199 H197 0.959 . S
C199 H198 0.961 . S
C199 H200 0.960 . S
H200 C199 0.960 . S
H201 N181 0.862 . S
O202 Co170 1.920 . S
O202 C175 1.289 . S
C203 O195 1.258 . S
C203 O196 1.266 . S
Co204 O207 1.970 . S
Co204 N221 1.989 . S
Co204 O229 1.967 1_545 S
Co204 O236 1.920 . S
Co205 O208 1.966 1_565 S
Co205 N214 2.022 . S
Co205 N222 1.993 . S
Co205 O230 1.941 . S
C206 O207 1.258 . S
C206 O208 1.263 . S
O207 Co204 1.970 . S
O207 C206 1.258 . S
O208 Co205 1.966 1_545 S
O208 C206 1.263 . S
C209 O210 1.235 . S
C209 O236 1.289 . S
O210 C209 1.235 . S
C211 C213 1.400 . S
C211 N214 1.351 . S
C211 C216 1.501 1_565 S
C212 C213 1.387 . S
C212 N215 1.341 . S
C213 C211 1.400 . S
C213 C212 1.387 . S
N214 Co205 2.022 . S
N214 C211 1.351 . S
N214 N215 1.365 . S
N215 C212 1.341 . S
N215 N214 1.365 . S
N215 H235 0.862 . S
C216 C211 1.501 1_545 S
C216 H217 0.961 . S
C216 H218 0.961 . S
C216 H219 0.960 . S
H217 C216 0.961 . S
H218 C216 0.961 . S
H219 C216 0.960 . S
C220 N221 1.342 . S
C220 C224 1.401 . S
C220 C225 1.499 . S
N221 Co204 1.989 . S
N221 C220 1.342 . S
N221 N222 1.388 1_545 S
N222 Co205 1.993 . S
N222 N221 1.388 1_565 S
N222 C223 1.344 1_565 S
C223 N222 1.344 1_545 S
C223 C224 1.401 . S
C223 C233 1.507 1_545 S
C224 C220 1.401 . S
C224 C223 1.401 . S
C225 C220 1.499 . S
C225 H226 0.959 . S
C225 H227 0.960 . S
C225 H228 0.961 . S
H226 C225 0.959 . S
H227 C225 0.960 . S
H228 C225 0.961 . S
O229 Co204 1.967 1_565 S
O229 C237 1.258 . S
O230 Co205 1.941 . S
O230 C237 1.266 . S
H231 C233 0.959 . S
H232 C233 0.961 1_545 S
C233 C223 1.507 1_565 S
C233 H231 0.959 . S
C233 H232 0.961 1_565 S
C233 H234 0.960 . S
H234 C233 0.960 . S
H235 N215 0.862 . S
O236 Co204 1.920 . S
O236 C209 1.289 . S
C237 O229 1.258 . S
C237 O230 1.266 . S
Co238 O241 1.970 . S
Co238 N255 1.989 1_554 S
Co238 O263 1.967 . S
Co238 O270 1.920 . S
Co239 O242 1.965 . S
Co239 N248 2.022 . S
Co239 N256 1.993 . S
Co239 O264 1.941 . S
C240 O241 1.258 . S
C240 O242 1.265 1_554 S
O241 Co238 1.970 . S
O241 C240 1.258 . S
O242 Co239 1.965 . S
O242 C240 1.265 1_556 S
C243 O244 1.235 . S
C243 O270 1.289 . S
O244 C243 1.235 . S
C245 C247 1.400 . S
C245 N248 1.351 . S
C245 C250 1.501 . S
C246 C247 1.387 . S
C246 N249 1.341 . S
C247 C245 1.400 . S
C247 C246 1.387 . S
N248 Co239 2.022 . S
N248 C245 1.351 . S
N248 N249 1.365 . S
N249 C246 1.341 . S
N249 N248 1.365 . S
N249 H269 0.862 . S
C250 C245 1.501 . S
C250 H251 0.961 . S
C250 H252 0.961 . S
C250 H253 0.960 . S
H251 C250 0.961 . S
H252 C250 0.961 . S
H253 C250 0.960 . S
C254 N255 1.342 . S
C254 C258 1.401 . S
C254 C259 1.499 . S
N255 Co238 1.989 1_556 S
N255 C254 1.342 . S
N255 N256 1.388 . S
N256 Co239 1.993 . S
N256 N255 1.388 . S
N256 C257 1.346 . S
C257 N256 1.346 . S
C257 C258 1.396 . S
C257 C267 1.510 . S
C258 C254 1.401 . S
C258 C257 1.396 . S
C259 C254 1.499 . S
C259 H260 0.959 . S
C259 H261 0.960 . S
C259 H262 0.961 . S
H260 C259 0.959 . S
H261 C259 0.960 . S
H262 C259 0.961 . S
O263 Co238 1.967 . S
O263 C271 1.258 . S
O264 Co239 1.941 . S
O264 C271 1.266 1_556 S
H265 C267 0.959 . S
H266 C267 0.961 . S
C267 C257 1.510 . S
C267 H265 0.959 . S
C267 H266 0.961 . S
C267 H268 0.960 . S
H268 C267 0.960 . S
H269 N249 0.862 . S
O270 Co238 1.920 . S
O270 C243 1.289 . S
C271 O263 1.258 . S
C271 O264 1.266 1_554 S
Co272 O275 1.970 . S
Co272 N289 1.989 . S
Co272 O297 1.967 1_655 S
Co272 O304 1.920 . S
Co273 O276 1.966 1_455 S
Co273 N282 2.022 . S
Co273 N290 1.993 . S
Co273 O298 1.941 . S
C274 O275 1.258 . S
C274 O276 1.263 . S
O275 Co272 1.970 . S
O275 C274 1.258 . S
O276 Co273 1.966 1_655 S
O276 C274 1.263 . S
C277 O278 1.235 . S
C277 O304 1.289 . S
O278 C277 1.235 . S
C279 C281 1.400 . S
C279 N282 1.351 . S
C279 C284 1.501 1_455 S
C280 C281 1.387 . S
C280 N283 1.341 . S
C281 C279 1.400 . S
C281 C280 1.387 . S
N282 Co273 2.022 . S
N282 C279 1.351 . S
N282 N283 1.365 . S
N283 C280 1.341 . S
N283 N282 1.365 . S
N283 H303 0.862 . S
C284 C279 1.501 1_655 S
C284 H285 0.961 . S
C284 H286 0.961 . S
C284 H287 0.960 . S
H285 C284 0.961 . S
H286 C284 0.961 . S
H287 C284 0.960 . S
C288 N289 1.342 . S
C288 C292 1.401 . S
C288 C293 1.499 . S
N289 Co272 1.989 . S
N289 C288 1.342 . S
N289 N290 1.388 1_655 S
N290 Co273 1.993 . S
N290 N289 1.388 1_455 S
N290 C291 1.347 1_455 S
C291 N290 1.347 1_655 S
C291 C292 1.392 . S
C291 C301 1.513 1_655 S
C292 C288 1.401 . S
C292 C291 1.392 . S
C293 C288 1.499 . S
C293 H294 0.959 . S
C293 H295 0.960 . S
C293 H296 0.961 . S
H294 C293 0.959 . S
H295 C293 0.960 . S
H296 C293 0.961 . S
O297 Co272 1.967 1_455 S
O297 C305 1.258 . S
O298 Co273 1.941 . S
O298 C305 1.266 . S
H299 C301 0.959 . S
H300 C301 0.961 1_655 S
C301 C291 1.513 1_455 S
C301 H299 0.959 . S
C301 H300 0.961 1_455 S
C301 H302 0.960 . S
H302 C301 0.960 . S
H303 N283 0.862 . S
O304 Co272 1.920 . S
O304 C277 1.289 . S
C305 O297 1.258 . S
C305 O298 1.266 . S
Co306 O309 1.970 . S
Co306 N323 1.989 . S
Co306 O331 1.967 1_565 S
Co306 O338 1.920 . S
Co307 O310 1.966 1_545 S
Co307 N316 2.022 . S
Co307 N324 1.993 . S
Co307 O332 1.941 . S
C308 O309 1.258 . S
C308 O310 1.263 . S
O309 Co306 1.970 . S
O309 C308 1.258 . S
O310 Co307 1.966 1_565 S
O310 C308 1.263 . S
C311 O312 1.235 . S
C311 O338 1.289 . S
O312 C311 1.235 . S
C313 C315 1.400 . S
C313 N316 1.351 . S
C313 C318 1.501 1_545 S
C314 C315 1.387 . S
C314 N317 1.341 . S
C315 C313 1.400 . S
C315 C314 1.387 . S
N316 Co307 2.022 . S
N316 C313 1.351 . S
N316 N317 1.365 . S
N317 C314 1.341 . S
N317 N316 1.365 . S
N317 H337 0.862 . S
C318 C313 1.501 1_565 S
C318 H319 0.961 . S
C318 H320 0.961 . S
C318 H321 0.960 . S
H319 C318 0.961 . S
H320 C318 0.961 . S
H321 C318 0.960 . S
C322 N323 1.342 . S
C322 C326 1.401 . S
C322 C327 1.499 . S
N323 Co306 1.989 . S
N323 C322 1.342 . S
N323 N324 1.388 1_565 S
N324 Co307 1.993 . S
N324 N323 1.388 1_545 S
N324 C325 1.344 1_545 S
C325 N324 1.344 1_565 S
C325 C326 1.401 . S
C325 C335 1.507 1_565 S
C326 C322 1.401 . S
C326 C325 1.401 . S
C327 C322 1.499 . S
C327 H328 0.959 . S
C327 H329 0.960 . S
C327 H330 0.961 . S
H328 C327 0.959 . S
H329 C327 0.960 . S
H330 C327 0.961 . S
O331 Co306 1.967 1_545 S
O331 C339 1.258 . S
O332 Co307 1.941 . S
O332 C339 1.266 . S
H333 C335 0.959 . S
H334 C335 0.961 1_565 S
C335 C325 1.507 1_545 S
C335 H333 0.959 . S
C335 H334 0.961 1_545 S
C335 H336 0.960 . S
H336 C335 0.960 . S
H337 N317 0.862 . S
O338 Co306 1.920 . S
O338 C311 1.289 . S
C339 O331 1.258 . S
C339 O332 1.266 . S
Co340 O343 1.970 . S
Co340 N357 1.989 . S
Co340 O365 1.967 . S
Co340 O372 1.920 . S
Co341 O344 1.966 . S
Co341 N350 2.022 . S
Co341 N358 1.993 . S
Co341 O366 1.941 . S
C342 O343 1.258 . S
C342 O344 1.263 . S
O343 Co340 1.970 . S
O343 C342 1.258 . S
O344 Co341 1.966 . S
O344 C342 1.263 . S
C345 O346 1.235 . S
C345 O372 1.289 . S
O346 C345 1.235 . S
C347 C349 1.400 . S
C347 N350 1.351 . S
C347 C352 1.501 . S
C348 C349 1.387 . S
C348 N351 1.341 . S
C349 C347 1.400 . S
C349 C348 1.387 . S
N350 Co341 2.022 . S
N350 C347 1.351 . S
N350 N351 1.365 . S
N351 C348 1.341 . S
N351 N350 1.365 . S
N351 H371 0.862 . S
C352 C347 1.501 . S
C352 H353 0.961 . S
C352 H354 0.961 . S
C352 H355 0.960 . S
H353 C352 0.961 . S
H354 C352 0.961 . S
H355 C352 0.960 . S
C356 N357 1.342 . S
C356 C360 1.401 . S
C356 C361 1.499 . S
N357 Co340 1.989 . S
N357 C356 1.342 . S
N357 N358 1.388 . S
N358 Co341 1.993 . S
N358 N357 1.388 . S
N358 C359 1.346 . S
C359 N358 1.346 . S
C359 C360 1.396 . S
C359 C369 1.510 . S
C360 C356 1.401 . S
C360 C359 1.396 . S
C361 C356 1.499 . S
C361 H362 0.959 . S
C361 H363 0.960 . S
C361 H364 0.961 . S
H362 C361 0.959 . S
H363 C361 0.960 . S
H364 C361 0.961 . S
O365 Co340 1.967 . S
O365 C373 1.258 . S
O366 Co341 1.941 . S
O366 C373 1.266 . S
H367 C369 0.959 . S
H368 C369 0.961 . S
C369 C359 1.510 . S
C369 H367 0.959 . S
C369 H368 0.961 . S
C369 H370 0.960 . S
H370 C369 0.960 . S
H371 N351 0.862 . S
O372 Co340 1.920 . S
O372 C345 1.289 . S
C373 O365 1.258 . S
C373 O366 1.266 . S
Co374 O377 1.970 . S
Co374 N391 1.989 . S
Co374 O399 1.967 1_455 S
Co374 O406 1.920 . S
Co375 O378 1.966 1_655 S
Co375 N384 2.022 . S
Co375 N392 1.993 . S
Co375 O400 1.941 . S
C376 O377 1.258 . S
C376 O378 1.263 . S
O377 Co374 1.970 . S
O377 C376 1.258 . S
O378 Co375 1.966 1_455 S
O378 C376 1.263 . S
C379 O380 1.235 . S
C379 O406 1.289 . S
O380 C379 1.235 . S
C381 C383 1.400 . S
C381 N384 1.351 . S
C381 C386 1.501 1_655 S
C382 C383 1.387 . S
C382 N385 1.341 . S
C383 C381 1.400 . S
C383 C382 1.387 . S
N384 Co375 2.022 . S
N384 C381 1.351 . S
N384 N385 1.365 . S
N385 C382 1.341 . S
N385 N384 1.365 . S
N385 H405 0.862 . S
C386 C381 1.501 1_455 S
C386 H387 0.961 . S
C386 H388 0.961 . S
C386 H389 0.960 . S
H387 C386 0.961 . S
H388 C386 0.961 . S
H389 C386 0.960 . S
C390 N391 1.342 . S
C390 C394 1.401 . S
C390 C395 1.499 . S
N391 Co374 1.989 . S
N391 C390 1.342 . S
N391 N392 1.388 1_455 S
N392 Co375 1.993 . S
N392 N391 1.388 1_655 S
N392 C393 1.347 1_655 S
C393 N392 1.347 1_455 S
C393 C394 1.392 . S
C393 C403 1.512 1_455 S
C394 C390 1.401 . S
C394 C393 1.392 . S
C395 C390 1.499 . S
C395 H396 0.959 . S
C395 H397 0.960 . S
C395 H398 0.961 . S
H396 C395 0.959 . S
H397 C395 0.960 . S
H398 C395 0.961 . S
O399 Co374 1.967 1_655 S
O399 C407 1.258 . S
O400 Co375 1.941 . S
O400 C407 1.266 . S
H401 C403 0.959 . S
H402 C403 0.961 1_455 S
C403 C393 1.512 1_655 S
C403 H401 0.959 . S
C403 H402 0.961 1_655 S
C403 H404 0.960 . S
H404 C403 0.960 . S
H405 N385 0.862 . S
O406 Co374 1.920 . S
O406 C379 1.289 . S
C407 O399 1.258 . S
C407 O400 1.266 . S
H408 C416 0.950 . S
H409 C421 0.950 . S
H410 C418 0.950 . S
H411 C420 0.950 . S
H412 C422 0.950 . S
H413 C424 0.950 . S
H414 C426 0.950 . S
H415 C427 0.950 . S
C416 H408 0.950 . S
C416 C417 1.386 . S
C416 C418 1.391 . S
C417 C416 1.386 . S
C417 C421 1.393 . S
C418 H410 0.950 . S
C418 C416 1.391 . S
C418 C419 1.400 . S
C419 C418 1.400 . S
C419 C420 1.398 . S
C419 C425 1.491 1_565 S
C420 H411 0.950 . S
C420 C419 1.398 . S
C420 C421 1.391 . S
C421 H409 0.950 . S
C421 C417 1.393 . S
C421 C420 1.391 . S
C422 H412 0.950 . S
C422 C423 1.386 . S
C422 C424 1.391 . S
C423 C422 1.386 . S
C423 C427 1.393 . S
C424 H413 0.950 . S
C424 C422 1.391 . S
C424 C425 1.400 . S
C425 C419 1.491 1_545 S
C425 C424 1.400 . S
C425 C426 1.398 . S
C426 H414 0.950 . S
C426 C425 1.398 . S
C426 C427 1.391 . S
C427 H415 0.950 . S
C427 C423 1.393 . S
C427 C426 1.391 . S
H428 C436 0.950 . S
H429 C441 0.950 . S
H430 C438 0.950 . S
H431 C440 0.950 . S
H432 C442 0.950 . S
H433 C444 0.950 . S
H434 C446 0.950 . S
H435 C447 0.950 . S
C436 H428 0.950 . S
C436 C437 1.386 . S
C436 C438 1.391 . S
C437 C436 1.386 . S
C437 C441 1.393 . S
C438 H430 0.950 . S
C438 C436 1.391 . S
C438 C439 1.400 . S
C439 C438 1.400 . S
C439 C440 1.398 . S
C439 C445 1.491 . S
C440 H431 0.950 . S
C440 C439 1.398 . S
C440 C441 1.391 . S
C441 H429 0.950 . S
C441 C437 1.393 . S
C441 C440 1.391 . S
C442 H432 0.950 . S
C442 C443 1.386 . S
C442 C444 1.391 . S
C443 C442 1.386 . S
C443 C447 1.393 . S
C444 H433 0.950 . S
C444 C442 1.391 . S
C444 C445 1.400 . S
C445 C439 1.491 . S
C445 C444 1.400 . S
C445 C446 1.398 . S
C446 H434 0.950 . S
C446 C445 1.398 . S
C446 C447 1.391 . S
C447 H435 0.950 . S
C447 C443 1.393 . S
C447 C446 1.391 . S
H448 C456 0.950 . S
H449 C461 0.950 . S
H450 C458 0.950 . S
H451 C460 0.950 1_455 S
H452 C462 0.950 . S
H453 C464 0.950 . S
H454 C466 0.950 1_655 S
H455 C467 0.950 . S
C456 H448 0.950 . S
C456 C457 1.386 . S
C456 C458 1.391 . S
C457 C456 1.386 . S
C457 C461 1.393 . S
C458 H450 0.950 . S
C458 C456 1.391 . S
C458 C459 1.400 . S
C459 C458 1.400 . S
C459 C460 1.398 . S
C459 C465 1.491 1_655 S
C460 H451 0.950 1_655 S
C460 C459 1.398 . S
C460 C461 1.391 . S
C461 H449 0.950 . S
C461 C457 1.393 . S
C461 C460 1.391 . S
C462 H452 0.950 . S
C462 C463 1.386 . S
C462 C464 1.391 . S
C463 C462 1.386 . S
C463 C467 1.393 . S
C464 H453 0.950 . S
C464 C462 1.391 . S
C464 C465 1.400 . S
C465 C459 1.491 1_455 S
C465 C464 1.400 . S
C465 C466 1.398 . S
C466 H454 0.950 1_455 S
C466 C465 1.398 . S
C466 C467 1.391 . S
C467 H455 0.950 . S
C467 C463 1.393 . S
C467 C466 1.391 . S
H468 C476 0.950 . S
H469 C481 0.950 . S
H470 C478 0.950 . S
H471 C480 0.950 . S
H472 C482 0.950 . S
H473 C484 0.950 . S
H474 C486 0.950 . S
H475 C487 0.950 . S
C476 H468 0.950 . S
C476 C477 1.386 . S
C476 C478 1.391 . S
C477 C476 1.386 . S
C477 C481 1.393 . S
C478 H470 0.950 . S
C478 C476 1.391 . S
C478 C479 1.400 . S
C479 C478 1.400 . S
C479 C480 1.398 . S
C479 C485 1.491 1_545 S
C480 H471 0.950 . S
C480 C479 1.398 . S
C480 C481 1.391 . S
C481 H469 0.950 . S
C481 C477 1.393 . S
C481 C480 1.391 . S
C482 H472 0.950 . S
C482 C483 1.386 . S
C482 C484 1.391 . S
C483 C482 1.386 . S
C483 C487 1.393 . S
C484 H473 0.950 . S
C484 C482 1.391 . S
C484 C485 1.400 . S
C485 C479 1.491 1_565 S
C485 C484 1.400 . S
C485 C486 1.398 . S
C486 H474 0.950 . S
C486 C485 1.398 . S
C486 C487 1.391 . S
C487 H475 0.950 . S
C487 C483 1.393 . S
C487 C486 1.391 . S
H488 C496 0.950 . S
H489 C501 0.950 . S
H490 C498 0.950 . S
H491 C500 0.950 . S
H492 C502 0.950 . S
H493 C504 0.950 . S
H494 C506 0.950 . S
H495 C507 0.950 . S
C496 H488 0.950 . S
C496 C497 1.386 . S
C496 C498 1.391 . S
C497 C496 1.386 . S
C497 C501 1.393 . S
C498 H490 0.950 . S
C498 C496 1.391 . S
C498 C499 1.400 . S
C499 C498 1.400 . S
C499 C500 1.398 . S
C499 C505 1.491 . S
C500 H491 0.950 . S
C500 C499 1.398 . S
C500 C501 1.391 . S
C501 H489 0.950 . S
C501 C497 1.393 . S
C501 C500 1.391 . S
C502 H492 0.950 . S
C502 C503 1.386 . S
C502 C504 1.391 . S
C503 C502 1.386 . S
C503 C507 1.393 . S
C504 H493 0.950 . S
C504 C502 1.391 . S
C504 C505 1.400 . S
C505 C499 1.491 . S
C505 C504 1.400 . S
C505 C506 1.398 . S
C506 H494 0.950 . S
C506 C505 1.398 . S
C506 C507 1.391 . S
C507 H495 0.950 . S
C507 C503 1.393 . S
C507 C506 1.391 . S
H508 C516 0.950 . S
H509 C521 0.950 . S
H510 C518 0.950 . S
H511 C520 0.950 1_455 S
H512 C522 0.950 . S
H513 C524 0.950 . S
H514 C526 0.950 1_655 S
H515 C527 0.950 . S
C516 H508 0.950 . S
C516 C517 1.386 . S
C516 C518 1.391 . S
C517 C516 1.386 . S
C517 C521 1.393 . S
C518 H510 0.950 . S
C518 C516 1.391 . S
C518 C519 1.400 . S
C519 C518 1.400 . S
C519 C520 1.398 . S
C519 C525 1.491 1_655 S
C520 H511 0.950 1_655 S
C520 C519 1.398 . S
C520 C521 1.391 . S
C521 H509 0.950 . S
C521 C517 1.393 . S
C521 C520 1.391 . S
C522 H512 0.950 . S
C522 C523 1.386 . S
C522 C524 1.391 . S
C523 C522 1.386 . S
C523 C527 1.393 . S
C524 H513 0.950 . S
C524 C522 1.391 . S
C524 C525 1.400 . S
C525 C519 1.491 1_455 S
C525 C524 1.400 . S
C525 C526 1.398 . S
C526 H514 0.950 1_455 S
C526 C525 1.398 . S
C526 C527 1.391 . S
C527 H515 0.950 . S
C527 C523 1.393 . S
C527 C526 1.391 . S
H528 C536 0.950 . S
H529 C541 0.950 . S
H530 C538 0.950 . S
H531 C540 0.950 . S
H532 C542 0.950 . S
H533 C544 0.961 . S
H534 C546 0.950 . S
H535 C547 0.950 . S
C536 H528 0.950 . S
C536 C537 1.386 . S
C536 C538 1.391 . S
C537 C536 1.386 . S
C537 C541 1.393 1_455 S
C538 H530 0.950 . S
C538 C536 1.391 . S
C538 C539 1.400 . S
C539 C538 1.400 . S
C539 C540 1.398 1_455 S
C539 C545 1.491 1_545 S
C540 H531 0.950 . S
C540 C539 1.398 1_655 S
C540 C541 1.391 . S
C541 H529 0.950 . S
C541 C537 1.393 1_655 S
C541 C540 1.391 . S
C542 H532 0.950 . S
C542 C543 1.386 1_655 S
C542 C544 1.391 . S
C543 C542 1.386 1_455 S
C543 C547 1.393 . S
C544 H533 0.961 . S
C544 C542 1.391 . S
C544 C545 1.400 1_655 S
C545 C539 1.491 1_565 S
C545 C544 1.400 1_455 S
C545 C546 1.398 . S
C546 H534 0.950 . S
C546 C545 1.398 . S
C546 C547 1.391 . S
C547 H535 0.950 . S
C547 C543 1.393 . S
C547 C546 1.391 . S
H548 C556 0.950 . S
H549 C561 0.950 . S
H550 C558 0.950 . S
H551 C560 0.950 . S
H552 C562 0.950 . S
H553 C564 0.950 . S
H554 C566 0.950 1_565 S
H555 C567 0.950 1_565 S
C556 H548 0.950 . S
C556 C557 1.386 . S
C556 C558 1.391 1_655 S
C557 C556 1.386 . S
C557 C561 1.393 . S
C558 H550 0.950 . S
C558 C556 1.391 1_455 S
C558 C559 1.400 1_455 S
C559 C558 1.400 1_655 S
C559 C560 1.398 . S
C559 C565 1.491 1_655 S
C560 H551 0.950 . S
C560 C559 1.398 . S
C560 C561 1.391 . S
C561 H549 0.950 . S
C561 C557 1.393 . S
C561 C560 1.391 . S
C562 H552 0.950 . S
C562 C563 1.386 . S
C562 C564 1.391 . S
C563 C562 1.386 . S
C563 C567 1.393 . S
C564 H553 0.950 . S
C564 C562 1.391 . S
C564 C565 1.400 . S
C565 C559 1.491 1_455 S
C565 C564 1.400 . S
C565 C566 1.398 . S
C566 H554 0.950 1_545 S
C566 C565 1.398 . S
C566 C567 1.391 . S
C567 H555 0.950 1_545 S
C567 C563 1.393 . S
C567 C566 1.391 . S
H568 C576 0.950 . S
H569 C581 0.950 . S
H570 C578 0.950 . S
H571 C580 0.950 1_565 S
H572 C582 0.950 . S
H573 C584 0.950 . S
H574 C586 0.950 1_455 S
H575 C587 0.950 . S
C576 H568 0.950 . S
C576 C577 1.386 . S
C576 C578 1.391 . S
C577 C576 1.386 . S
C577 C581 1.393 . S
C578 H570 0.950 . S
C578 C576 1.391 . S
C578 C579 1.400 . S
C579 C578 1.400 . S
C579 C580 1.398 1_455 S
C579 C585 1.491 1_445 S
C580 H571 0.950 1_545 S
C580 C579 1.398 1_655 S
C580 C581 1.391 1_655 S
C581 H569 0.950 . S
C581 C577 1.393 . S
C581 C580 1.391 1_455 S
C582 H572 0.950 . S
C582 C583 1.386 . S
C582 C584 1.391 . S
C583 C582 1.386 . S
C583 C587 1.393 . S
C584 H573 0.950 . S
C584 C582 1.391 . S
C584 C585 1.400 . S
C585 C579 1.491 1_665 S
C585 C584 1.400 . S
C585 C586 1.398 1_565 S
C586 H574 0.950 1_655 S
C586 C585 1.398 1_545 S
C586 C587 1.391 1_545 S
C587 H575 0.950 . S
C587 C583 1.393 . S
C587 C586 1.391 1_565 S
H588 C596 0.950 . S
H589 C601 0.950 . S
H590 C598 0.950 1_565 S
H591 C600 0.950 . S
H592 C602 0.950 . S
H593 C604 0.950 . S
H594 C606 0.950 . S
H595 C607 0.950 . S
C596 H588 0.950 . S
C596 C597 1.386 . S
C596 C598 1.391 . S
C597 C596 1.386 . S
C597 C601 1.393 1_655 S
C598 H590 0.950 1_545 S
C598 C596 1.391 . S
C598 C599 1.400 . S
C599 C598 1.400 . S
C599 C600 1.398 1_655 S
C599 C605 1.491 1_545 S
C600 H591 0.950 . S
C600 C599 1.398 1_455 S
C600 C601 1.391 . S
C601 H589 0.950 . S
C601 C597 1.393 1_455 S
C601 C600 1.391 . S
C602 H592 0.950 . S
C602 C603 1.386 1_455 S
C602 C604 1.391 . S
C603 C602 1.386 1_655 S
C603 C607 1.393 . S
C604 H593 0.950 . S
C604 C602 1.391 . S
C604 C605 1.400 1_455 S
C605 C599 1.491 1_565 S
C605 C604 1.400 1_655 S
C605 C606 1.398 . S
C606 H594 0.950 . S
C606 C605 1.398 . S
C606 C607 1.391 . S
C607 H595 0.950 . S
C607 C603 1.393 . S
C607 C606 1.391 . S
H608 C616 0.950 1_545 S
H609 C621 0.950 . S
H610 C618 0.950 1_545 S
H611 C620 0.950 . S
H612 C622 0.950 . S
H613 C624 0.950 . S
H614 C626 0.952 1_445 S
H615 C627 0.950 1_545 S
C616 H608 0.950 1_565 S
C616 C617 1.386 . S
C616 C618 1.391 . S
C617 C616 1.386 . S
C617 C621 1.393 . S
C618 H610 0.950 1_565 S
C618 C616 1.391 . S
C618 C619 1.400 . S
C619 C618 1.400 . S
C619 C620 1.398 1_455 S
C619 C625 1.491 1_455 S
C620 H611 0.950 . S
C620 C619 1.398 1_655 S
C620 C621 1.391 1_655 S
C621 H609 0.950 . S
C621 C617 1.393 . S
C621 C620 1.391 1_455 S
C622 H612 0.950 . S
C622 C623 1.386 . S
C622 C624 1.391 . S
C623 C622 1.386 . S
C623 C627 1.393 . S
C624 H613 0.950 . S
C624 C622 1.391 . S
C624 C625 1.400 . S
C625 C619 1.491 1_655 S
C625 C624 1.400 . S
C625 C626 1.398 . S
C626 H614 0.952 1_665 S
C626 C625 1.398 . S
C626 C627 1.391 . S
C627 H615 0.950 1_565 S
C627 C623 1.393 . S
C627 C626 1.391 . S
H628 C636 0.950 . S
H629 C641 0.950 . S
H630 C638 0.950 . S
H631 C640 0.950 . S
H632 C642 0.950 . S
H633 C644 0.950 1_655 S
H634 C646 0.950 1_565 S
H635 C647 0.950 . S
C636 H628 0.950 . S
C636 C637 1.386 . S
C636 C638 1.391 1_655 S
C637 C636 1.386 . S
C637 C641 1.393 . S
C638 H630 0.950 . S
C638 C636 1.391 1_455 S
C638 C639 1.400 1_455 S
C639 C638 1.400 1_655 S
C639 C640 1.398 . S
C639 C645 1.491 1_665 S
C640 H631 0.950 . S
C640 C639 1.398 . S
C640 C641 1.391 . S
C641 H629 0.950 . S
C641 C637 1.393 . S
C641 C640 1.391 . S
C642 H632 0.950 . S
C642 C643 1.386 . S
C642 C644 1.391 . S
C643 C642 1.386 . S
C643 C647 1.393 . S
C644 H633 0.950 1_455 S
C644 C642 1.391 . S
C644 C645 1.400 . S
C645 C639 1.491 1_445 S
C645 C644 1.400 . S
C645 C646 1.398 . S
C646 H634 0.950 1_545 S
C646 C645 1.398 . S
C646 C647 1.391 . S
C647 H635 0.950 . S
C647 C643 1.393 . S
C647 C646 1.391 . S
H648 C656 0.950 . S
H649 C661 0.950 . S
H650 C658 0.950 . S
H651 C660 0.950 . S
H652 C662 0.950 . S
H653 C664 0.950 . S
H654 C666 0.950 . S
H655 C667 0.950 . S
C656 H648 0.950 . S
C656 C657 1.386 . S
C656 C658 1.391 . S
C657 C656 1.386 . S
C657 C661 1.393 . S
C658 H650 0.950 . S
C658 C656 1.391 . S
C658 C659 1.400 . S
C659 C658 1.400 . S
C659 C660 1.398 . S
C659 C665 1.491 . S
C660 H651 0.950 . S
C660 C659 1.398 . S
C660 C661 1.391 . S
C661 H649 0.950 . S
C661 C657 1.393 . S
C661 C660 1.391 . S
C662 H652 0.950 . S
C662 C663 1.386 . S
C662 C664 1.391 . S
C663 C662 1.386 . S
C663 C667 1.393 . S
C664 H653 0.950 . S
C664 C662 1.391 . S
C664 C665 1.400 . S
C665 C659 1.491 . S
C665 C664 1.400 . S
C665 C666 1.398 . S
C666 H654 0.950 . S
C666 C665 1.398 . S
C666 C667 1.391 . S
C667 H655 0.950 . S
C667 C663 1.393 . S
C667 C666 1.391 . S
H668 C676 0.950 . S
H669 C681 0.950 . S
H670 C678 0.950 . S
H671 C680 0.950 . S
H672 C682 0.950 . S
H673 C684 0.950 . S
H674 C686 0.950 . S
H675 C687 0.950 . S
C676 H668 0.950 . S
C676 C677 1.386 . S
C676 C678 1.391 . S
C677 C676 1.386 . S
C677 C681 1.393 . S
C678 H670 0.950 . S
C678 C676 1.391 . S
C678 C679 1.400 . S
C679 C678 1.400 . S
C679 C680 1.398 . S
C679 C685 1.491 . S
C680 H671 0.950 . S
C680 C679 1.398 . S
C680 C681 1.391 . S
C681 H669 0.950 . S
C681 C677 1.393 . S
C681 C680 1.391 . S
C682 H672 0.950 . S
C682 C683 1.386 . S
C682 C684 1.391 . S
C683 C682 1.386 . S
C683 C687 1.393 . S
C684 H673 0.950 . S
C684 C682 1.391 . S
C684 C685 1.400 . S
C685 C679 1.491 . S
C685 C684 1.400 . S
C685 C686 1.398 . S
C686 H674 0.950 . S
C686 C685 1.398 . S
C686 C687 1.391 . S
C687 H675 0.950 . S
C687 C683 1.393 . S
C687 C686 1.391 . S
H688 C696 0.950 . S
H689 C701 0.950 . S
H690 C698 0.950 . S
H691 C700 0.950 . S
H692 C702 0.950 . S
H693 C704 0.950 . S
H694 C706 0.950 . S
H695 C707 0.950 . S
C696 H688 0.950 . S
C696 C697 1.386 . S
C696 C698 1.391 . S
C697 C696 1.386 . S
C697 C701 1.393 . S
C698 H690 0.950 . S
C698 C696 1.391 . S
C698 C699 1.400 . S
C699 C698 1.400 . S
C699 C700 1.398 . S
C699 C705 1.491 . S
C700 H691 0.950 . S
C700 C699 1.398 . S
C700 C701 1.391 . S
C701 H689 0.950 . S
C701 C697 1.393 . S
C701 C700 1.391 . S
C702 H692 0.950 . S
C702 C703 1.386 . S
C702 C704 1.391 . S
C703 C702 1.386 . S
C703 C707 1.393 . S
C704 H693 0.950 . S
C704 C702 1.391 . S
C704 C705 1.400 . S
C705 C699 1.491 . S
C705 C704 1.400 . S
C705 C706 1.398 . S
C706 H694 0.950 . S
C706 C705 1.398 . S
C706 C707 1.391 . S
C707 H695 0.950 . S
C707 C703 1.393 . S
C707 C706 1.391 . S
H708 C716 0.950 . S
H709 C721 0.950 . S
H710 C718 0.950 . S
H711 C720 0.950 . S
H712 C722 0.950 . S
H713 C724 0.950 . S
H714 C726 0.950 . S
H715 C727 0.950 . S
C716 H708 0.950 . S
C716 C717 1.386 . S
C716 C718 1.391 . S
C717 C716 1.386 . S
C717 C721 1.393 . S
C718 H710 0.950 . S
C718 C716 1.391 . S
C718 C719 1.400 . S
C719 C718 1.400 . S
C719 C720 1.398 . S
C719 C725 1.491 . S
C720 H711 0.950 . S
C720 C719 1.398 . S
C720 C721 1.391 . S
C721 H709 0.950 . S
C721 C717 1.393 . S
C721 C720 1.391 . S
C722 H712 0.950 . S
C722 C723 1.386 . S
C722 C724 1.391 . S
C723 C722 1.386 . S
C723 C727 1.393 . S
C724 H713 0.950 . S
C724 C722 1.391 . S
C724 C725 1.400 . S
C725 C719 1.491 . S
C725 C724 1.400 . S
C725 C726 1.398 . S
C726 H714 0.950 . S
C726 C725 1.398 . S
C726 C727 1.391 . S
C727 H715 0.950 . S
C727 C723 1.393 . S
C727 C726 1.391 . S
H728 C736 0.950 . S
H729 C741 0.950 . S
H730 C738 0.950 . S
H731 C740 0.950 . S
H732 C742 0.950 . S
H733 C744 0.950 . S
H734 C746 0.950 . S
H735 C747 0.950 . S
C736 H728 0.950 . S
C736 C737 1.386 . S
C736 C738 1.391 . S
C737 C736 1.386 . S
C737 C741 1.393 . S
C738 H730 0.950 . S
C738 C736 1.391 . S
C738 C739 1.400 . S
C739 C738 1.400 . S
C739 C740 1.398 . S
C739 C745 1.491 . S
C740 H731 0.950 . S
C740 C739 1.398 . S
C740 C741 1.391 . S
C741 H729 0.950 . S
C741 C737 1.393 . S
C741 C740 1.391 . S
C742 H732 0.950 . S
C742 C743 1.386 . S
C742 C744 1.391 . S
C743 C742 1.386 . S
C743 C747 1.393 . S
C744 H733 0.950 . S
C744 C742 1.391 . S
C744 C745 1.400 . S
C745 C739 1.491 . S
C745 C744 1.400 . S
C745 C746 1.398 . S
C746 H734 0.950 . S
C746 C745 1.398 . S
C746 C747 1.391 . S
C747 H735 0.950 . S
C747 C743 1.393 . S
C747 C746 1.391 . S
H748 C756 0.950 . S
H749 C761 0.950 . S
H750 C758 0.950 . S
H751 C760 0.950 . S
H752 C762 0.950 . S
H753 C764 0.950 . S
H754 C766 0.950 . S
H755 C767 0.950 . S
C756 H748 0.950 . S
C756 C757 1.386 . S
C756 C758 1.391 . S
C757 C756 1.386 . S
C757 C761 1.393 . S
C758 H750 0.950 . S
C758 C756 1.391 . S
C758 C759 1.400 . S
C759 C758 1.400 . S
C759 C760 1.398 . S
C759 C765 1.491 . S
C760 H751 0.950 . S
C760 C759 1.398 . S
C760 C761 1.391 . S
C761 H749 0.950 . S
C761 C757 1.393 . S
C761 C760 1.391 . S
C762 H752 0.950 . S
C762 C763 1.386 . S
C762 C764 1.391 . S
C763 C762 1.386 . S
C763 C767 1.393 . S
C764 H753 0.950 . S
C764 C762 1.391 . S
C764 C765 1.400 . S
C765 C759 1.491 . S
C765 C764 1.400 . S
C765 C766 1.398 . S
C766 H754 0.950 . S
C766 C765 1.398 . S
C766 C767 1.391 . S
C767 H755 0.950 . S
C767 C763 1.393 . S
C767 C766 1.391 . S
H768 C776 0.950 . S
H769 C781 0.950 . S
H770 C778 0.950 . S
H771 C780 0.950 . S
H772 C782 0.950 . S
H773 C784 0.950 . S
H774 C786 0.950 . S
H775 C787 0.950 . S
C776 H768 0.950 . S
C776 C777 1.386 . S
C776 C778 1.391 . S
C777 C776 1.386 . S
C777 C781 1.393 . S
C778 H770 0.950 . S
C778 C776 1.391 . S
C778 C779 1.400 . S
C779 C778 1.400 . S
C779 C780 1.398 . S
C779 C785 1.491 . S
C780 H771 0.950 . S
C780 C779 1.398 . S
C780 C781 1.391 . S
C781 H769 0.950 . S
C781 C777 1.393 . S
C781 C780 1.391 . S
C782 H772 0.950 . S
C782 C783 1.386 . S
C782 C784 1.391 . S
C783 C782 1.386 . S
C783 C787 1.393 . S
C784 H773 0.950 . S
C784 C782 1.391 . S
C784 C785 1.400 . S
C785 C779 1.491 . S
C785 C784 1.400 . S
C785 C786 1.398 . S
C786 H774 0.950 . S
C786 C785 1.398 . S
C786 C787 1.391 . S
C787 H775 0.950 . S
C787 C783 1.393 . S
C787 C786 1.391 . S
H788 C796 0.950 . S
H789 C801 0.950 . S
H790 C798 0.950 . S
H791 C800 0.950 . S
H792 C802 0.950 . S
H793 C804 0.950 . S
H794 C806 0.950 . S
H795 C807 0.950 . S
C796 H788 0.950 . S
C796 C797 1.386 . S
C796 C798 1.391 . S
C797 C796 1.386 . S
C797 C801 1.393 . S
C798 H790 0.950 . S
C798 C796 1.391 . S
C798 C799 1.400 . S
C799 C798 1.400 . S
C799 C800 1.398 . S
C799 C805 1.491 . S
C800 H791 0.950 . S
C800 C799 1.398 . S
C800 C801 1.391 . S
C801 H789 0.950 . S
C801 C797 1.393 . S
C801 C800 1.391 . S
C802 H792 0.950 . S
C802 C803 1.386 . S
C802 C804 1.391 . S
C803 C802 1.386 . S
C803 C807 1.393 . S
C804 H793 0.950 . S
C804 C802 1.391 . S
C804 C805 1.400 . S
C805 C799 1.491 . S
C805 C804 1.400 . S
C805 C806 1.398 . S
C806 H794 0.950 . S
C806 C805 1.398 . S
C806 C807 1.391 . S
C807 H795 0.950 . S
C807 C803 1.393 . S
C807 C806 1.391 . S
H808 C816 0.950 . S
H809 C821 0.950 . S
H810 C818 0.950 . S
H811 C820 0.950 . S
H812 C822 0.950 . S
H813 C824 0.950 . S
H814 C826 0.950 . S
H815 C827 0.950 . S
C816 H808 0.950 . S
C816 C817 1.386 . S
C816 C818 1.391 . S
C817 C816 1.386 . S
C817 C821 1.393 . S
C818 H810 0.950 . S
C818 C816 1.391 . S
C818 C819 1.400 . S
C819 C818 1.400 . S
C819 C820 1.398 . S
C819 C825 1.491 . S
C820 H811 0.950 . S
C820 C819 1.398 . S
C820 C821 1.391 . S
C821 H809 0.950 . S
C821 C817 1.393 . S
C821 C820 1.391 . S
C822 H812 0.950 . S
C822 C823 1.386 . S
C822 C824 1.391 . S
C823 C822 1.386 . S
C823 C827 1.393 . S
C824 H813 0.950 . S
C824 C822 1.391 . S
C824 C825 1.400 . S
C825 C819 1.491 . S
C825 C824 1.400 . S
C825 C826 1.398 . S
C826 H814 0.950 . S
C826 C825 1.398 . S
C826 C827 1.391 . S
C827 H815 0.950 . S
C827 C823 1.393 . S
C827 C826 1.391 . S
H828 C836 0.950 . S
H829 C841 0.950 . S
H830 C838 0.950 . S
H831 C840 0.950 . S
H832 C842 0.950 . S
H833 C844 0.950 . S
H834 C846 0.950 . S
H835 C847 0.950 . S
C836 H828 0.950 . S
C836 C837 1.386 . S
C836 C838 1.391 . S
C837 C836 1.386 . S
C837 C841 1.393 . S
C838 H830 0.950 . S
C838 C836 1.391 . S
C838 C839 1.400 . S
C839 C838 1.400 . S
C839 C840 1.398 . S
C839 C845 1.491 . S
C840 H831 0.950 . S
C840 C839 1.398 . S
C840 C841 1.391 . S
C841 H829 0.950 . S
C841 C837 1.393 . S
C841 C840 1.391 . S
C842 H832 0.950 . S
C842 C843 1.386 . S
C842 C844 1.391 . S
C843 C842 1.386 . S
C843 C847 1.393 . S
C844 H833 0.950 . S
C844 C842 1.391 . S
C844 C845 1.400 . S
C845 C839 1.491 . S
C845 C844 1.400 . S
C845 C846 1.398 . S
C846 H834 0.950 . S
C846 C845 1.398 . S
C846 C847 1.391 . S
C847 H835 0.950 . S
C847 C843 1.393 . S
C847 C846 1.391 . S
H848 C856 0.950 . S
H849 C861 0.950 . S
H850 C858 0.950 . S
H851 C860 0.950 . S
H852 C862 0.950 . S
H853 C864 0.950 . S
H854 C866 0.950 . S
H855 C867 0.950 . S
C856 H848 0.950 . S
C856 C857 1.386 . S
C856 C858 1.391 . S
C857 C856 1.386 . S
C857 C861 1.393 . S
C858 H850 0.950 . S
C858 C856 1.391 . S
C858 C859 1.400 . S
C859 C858 1.400 . S
C859 C860 1.398 . S
C859 C865 1.491 . S
C860 H851 0.950 . S
C860 C859 1.398 . S
C860 C861 1.391 . S
C861 H849 0.950 . S
C861 C857 1.393 . S
C861 C860 1.391 . S
C862 H852 0.950 . S
C862 C863 1.386 . S
C862 C864 1.391 . S
C863 C862 1.386 . S
C863 C867 1.393 . S
C864 H853 0.950 . S
C864 C862 1.391 . S
C864 C865 1.400 . S
C865 C859 1.491 . S
C865 C864 1.400 . S
C865 C866 1.398 . S
C866 H854 0.950 . S
C866 C865 1.398 . S
C866 C867 1.391 . S
C867 H855 0.950 . S
C867 C863 1.393 . S
C867 C866 1.391 . S
H868 C876 0.950 . S
H869 C881 0.950 . S
H870 C878 0.950 . S
H871 C880 0.950 . S
H872 C882 0.950 . S
H873 C884 0.950 . S
H874 C886 0.950 . S
H875 C887 0.950 . S
C876 H868 0.950 . S
C876 C877 1.386 . S
C876 C878 1.391 . S
C877 C876 1.386 . S
C877 C881 1.393 . S
C878 H870 0.950 . S
C878 C876 1.391 . S
C878 C879 1.400 . S
C879 C878 1.400 . S
C879 C880 1.398 . S
C879 C885 1.491 . S
C880 H871 0.950 . S
C880 C879 1.398 . S
C880 C881 1.391 . S
C881 H869 0.950 . S
C881 C877 1.393 . S
C881 C880 1.391 . S
C882 H872 0.950 . S
C882 C883 1.386 . S
C882 C884 1.391 . S
C883 C882 1.386 . S
C883 C887 1.393 . S
C884 H873 0.950 . S
C884 C882 1.391 . S
C884 C885 1.400 . S
C885 C879 1.491 . S
C885 C884 1.400 . S
C885 C886 1.398 . S
C886 H874 0.950 . S
C886 C885 1.398 . S
C886 C887 1.391 . S
C887 H875 0.950 . S
C887 C883 1.393 . S
C887 C886 1.391 . S
H888 C896 0.950 . S
H889 C901 0.950 . S
H890 C898 0.950 . S
H891 C900 0.950 . S
H892 C902 0.950 . S
H893 C904 0.950 . S
H894 C906 0.950 . S
H895 C907 0.950 . S
C896 H888 0.950 . S
C896 C897 1.386 1_455 S
C896 C898 1.391 . S
C897 C896 1.386 1_655 S
C897 C901 1.393 . S
C898 H890 0.950 . S
C898 C896 1.391 . S
C898 C899 1.400 1_455 S
C899 C898 1.400 1_655 S
C899 C900 1.398 . S
C899 C905 1.491 . S
C900 H891 0.950 . S
C900 C899 1.398 . S
C900 C901 1.391 . S
C901 H889 0.950 . S
C901 C897 1.393 . S
C901 C900 1.391 . S
C902 H892 0.950 . S
C902 C903 1.386 . S
C902 C904 1.391 . S
C903 C902 1.386 . S
C903 C907 1.393 1_655 S
C904 H893 0.950 . S
C904 C902 1.391 . S
C904 C905 1.400 . S
C905 C899 1.491 . S
C905 C904 1.400 . S
C905 C906 1.398 1_655 S
C906 H894 0.950 . S
C906 C905 1.398 1_455 S
C906 C907 1.391 . S
C907 H895 0.950 . S
C907 C903 1.393 1_455 S
C907 C906 1.391 . S
H908 C916 0.950 . S
H909 C921 0.950 . S
H910 C918 0.950 . S
H911 C920 0.950 . S
H912 C922 0.950 1_545 S
H913 C924 0.950 1_545 S
H914 C926 0.950 . S
H915 C927 0.950 . S
C916 H908 0.950 . S
C916 C917 1.386 . S
C916 C918 1.391 . S
C917 C916 1.386 . S
C917 C921 1.393 1_565 S
C918 H910 0.950 . S
C918 C916 1.391 . S
C918 C919 1.400 . S
C919 C918 1.400 . S
C919 C920 1.398 1_565 S
C919 C925 1.491 . S
C920 H911 0.950 . S
C920 C919 1.398 1_545 S
C920 C921 1.391 . S
C921 H909 0.950 . S
C921 C917 1.393 1_545 S
C921 C920 1.391 . S
C922 H912 0.950 1_565 S
C922 C923 1.386 . S
C922 C924 1.391 . S
C923 C922 1.386 . S
C923 C927 1.393 . S
C924 H913 0.950 1_565 S
C924 C922 1.391 . S
C924 C925 1.400 . S
C925 C919 1.491 . S
C925 C924 1.400 . S
C925 C926 1.398 . S
C926 H914 0.950 . S
C926 C925 1.398 . S
C926 C927 1.391 . S
C927 H915 0.950 . S
C927 C923 1.393 . S
C927 C926 1.391 . S
H928 C936 0.950 . S
H929 C941 0.950 . S
H930 C938 0.950 . S
H931 C940 0.950 . S
H932 C942 0.950 . S
H933 C944 0.950 . S
H934 C946 0.950 . S
H935 C947 0.950 . S
C936 H928 0.950 . S
C936 C937 1.386 . S
C936 C938 1.391 . S
C937 C936 1.386 . S
C937 C941 1.393 . S
C938 H930 0.950 . S
C938 C936 1.391 . S
C938 C939 1.400 . S
C939 C938 1.400 . S
C939 C940 1.398 . S
C939 C945 1.491 . S
C940 H931 0.950 . S
C940 C939 1.398 . S
C940 C941 1.391 . S
C941 H929 0.950 . S
C941 C937 1.393 . S
C941 C940 1.391 . S
C942 H932 0.950 . S
C942 C943 1.386 . S
C942 C944 1.391 . S
C943 C942 1.386 . S
C943 C947 1.393 . S
C944 H933 0.950 . S
C944 C942 1.391 . S
C944 C945 1.400 . S
C945 C939 1.491 . S
C945 C944 1.400 . S
C945 C946 1.398 . S
C946 H934 0.950 . S
C946 C945 1.398 . S
C946 C947 1.391 . S
C947 H935 0.950 . S
C947 C943 1.393 . S
C947 C946 1.391 . S
H948 C956 0.950 . S
H949 C961 0.950 . S
H950 C958 0.950 . S
H951 C960 0.950 . S
H952 C962 0.950 . S
H953 C964 0.950 . S
H954 C966 0.950 . S
H955 C967 0.950 . S
C956 H948 0.950 . S
C956 C957 1.386 . S
C956 C958 1.391 . S
C957 C956 1.386 . S
C957 C961 1.393 . S
C958 H950 0.950 . S
C958 C956 1.391 . S
C958 C959 1.400 . S
C959 C958 1.400 . S
C959 C960 1.398 . S
C959 C965 1.491 . S
C960 H951 0.950 . S
C960 C959 1.398 . S
C960 C961 1.391 . S
C961 H949 0.950 . S
C961 C957 1.393 . S
C961 C960 1.391 . S
C962 H952 0.950 . S
C962 C963 1.386 . S
C962 C964 1.391 . S
C963 C962 1.386 . S
C963 C967 1.393 . S
C964 H953 0.950 . S
C964 C962 1.391 . S
C964 C965 1.400 . S
C965 C959 1.491 . S
C965 C964 1.400 . S
C965 C966 1.398 . S
C966 H954 0.950 . S
C966 C965 1.398 . S
C966 C967 1.391 . S
C967 H955 0.950 . S
C967 C963 1.393 . S
C967 C966 1.391 . S
H968 C976 0.950 . S
H969 C981 0.950 . S
H970 C978 0.950 . S
H971 C980 0.950 . S
H972 C982 0.950 . S
H973 C984 0.950 . S
H974 C986 0.950 . S
H975 C987 0.950 . S
C976 H968 0.950 . S
C976 C977 1.386 . S
C976 C978 1.391 . S
C977 C976 1.386 . S
C977 C981 1.393 1_545 S
C978 H970 0.950 . S
C978 C976 1.391 . S
C978 C979 1.400 . S
C979 C978 1.400 . S
C979 C980 1.398 1_545 S
C979 C985 1.491 . S
C980 H971 0.950 . S
C980 C979 1.398 1_565 S
C980 C981 1.391 . S
C981 H969 0.950 . S
C981 C977 1.393 1_565 S
C981 C980 1.391 . S
C982 H972 0.950 . S
C982 C983 1.386 1_565 S
C982 C984 1.391 . S
C983 C982 1.386 1_545 S
C983 C987 1.393 . S
C984 H973 0.950 . S
C984 C982 1.391 . S
C984 C985 1.400 1_565 S
C985 C979 1.491 . S
C985 C984 1.400 1_545 S
C985 C986 1.398 . S
C986 H974 0.950 . S
C986 C985 1.398 . S
C986 C987 1.391 . S
C987 H975 0.950 . S
C987 C983 1.393 . S
C987 C986 1.391 . S
H988 C996 0.950 . S
H989 C1001 0.950 . S
H990 C998 0.950 . S
H991 C1000 0.950 . S
H992 C1002 0.950 . S
H993 C1004 0.950 . S
H994 C1006 0.950 . S
H995 C1007 0.950 . S
C996 H988 0.950 . S
C996 C997 1.386 . S
C996 C998 1.391 . S
C997 C996 1.386 . S
C997 C1001 1.393 . S
C998 H990 0.950 . S
C998 C996 1.391 . S
C998 C999 1.400 . S
C999 C998 1.400 . S
C999 C1000 1.398 . S
C999 C1005 1.491 . S
C1000 H991 0.950 . S
C1000 C999 1.398 . S
C1000 C1001 1.391 . S
C1001 H989 0.950 . S
C1001 C997 1.393 . S
C1001 C1000 1.391 . S
C1002 H992 0.950 . S
C1002 C1003 1.386 . S
C1002 C1004 1.391 . S
C1003 C1002 1.386 . S
C1003 C1007 1.393 . S
C1004 H993 0.950 . S
C1004 C1002 1.391 . S
C1004 C1005 1.400 . S
C1005 C999 1.491 . S
C1005 C1004 1.400 . S
C1005 C1006 1.398 . S
C1006 H994 0.950 . S
C1006 C1005 1.398 . S
C1006 C1007 1.391 . S
C1007 H995 0.950 . S
C1007 C1003 1.393 . S
C1007 C1006 1.391 . S
C417 C240 1.869 . S
C423 C2 1.869 . S
C437 C274 1.850 . S
C443 C36 1.854 . S
C457 C70 1.868 . S
C463 C308 1.871 . S
C477 C342 1.869 . S
C483 C104 1.870 . S
C497 C138 1.850 . S
C503 C376 1.853 . S
C517 C206 1.868 . S
C523 C172 1.870 . S
C537 C9 1.209 . S
C543 C281 1.224 . S
C557 C43 1.208 . S
C563 C315 1.233 . S
C577 C349 1.215 . S
C583 C77 1.189 . S
C597 C383 1.219 . S
C603 C111 1.213 . S
C617 C145 1.233 . S
C623 C213 1.212 . S
C637 C247 1.196 . S
C643 C179 1.201 . S
C657 C243 1.526 . S
C663 C33 1.542 . S
C677 C277 1.555 . S
C683 C67 1.572 . S
C697 C311 1.577 . S
C703 C101 1.587 . S
C717 C135 1.542 . S
C723 C345 1.529 . S
C737 C379 1.564 . S
C743 C169 1.570 . S
C757 C203 1.585 . S
C763 C209 1.578 . S
C777 C237 1.544 . S
C783 C175 1.524 . S
C797 C5 1.576 . S
C803 C271 1.587 . S
C817 C39 1.554 . S
C823 C305 1.571 . S
C837 C73 1.536 . S
C843 C339 1.540 . S
C857 C107 1.567 . S
C863 C373 1.588 . S
C877 C141 1.565 . S
C883 C407 1.570 . S
C897 C292 1.336 . S
C903 C20 1.336 . S
C917 C54 1.334 . S
C923 C326 1.334 . S
C937 C360 1.365 . S
C943 C88 1.364 . S
C957 C122 1.334 . S
C963 C394 1.335 . S
C977 C156 1.333 . S
C983 C224 1.334 . S
C997 C258 1.362 . S
C1003 C190 1.361 . S
