# Generated by pormake.
# Topology zni, (4)-cn, num edge types: 1
# Building blocks:
#     Node 0, Type 0, BuildingBlock: QUQFOY_clean_sbu_3, # of connection points: 4
#     Node 1, Type 0, BuildingBlock: QUQFOY_clean_sbu_3, # of connection points: 4
#     Node 2, Type 0, BuildingBlock: QUQFOY_clean_sbu_3, # of connection points: 4
#     Node 3, Type 0, BuildingBlock: QUQFOY_clean_sbu_3, # of connection points: 4
#     Node 4, Type 0, BuildingBlock: QUQFOY_clean_sbu_3, # of connection points: 4
#     Node 5, Type 0, BuildingBlock: QUQFOY_clean_sbu_3, # of connection points: 4
#     Node 6, Type 0, BuildingBlock: QUQFOY_clean_sbu_3, # of connection points: 4
#     Node 7, Type 0, BuildingBlock: QUQFOY_clean_sbu_3, # of connection points: 4
#     Node 8, Type 0, BuildingBlock: QUQFOY_clean_sbu_3, # of connection points: 4
#     Node 9, Type 0, BuildingBlock: QUQFOY_clean_sbu_3, # of connection points: 4
#     Node 10, Type 0, BuildingBlock: QUQFOY_clean_sbu_3, # of connection points: 4
#     Node 11, Type 0, BuildingBlock: QUQFOY_clean_sbu_3, # of connection points: 4
#     Node 12, Type 0, BuildingBlock: QUQFOY_clean_sbu_3, # of connection points: 4
#     Node 13, Type 0, BuildingBlock: QUQFOY_clean_sbu_3, # of connection points: 4
#     Node 14, Type 0, BuildingBlock: QUQFOY_clean_sbu_3, # of connection points: 4
#     Node 15, Type 0, BuildingBlock: QUQFOY_clean_sbu_3, # of connection points: 4
#     Node 16, Type 0, BuildingBlock: QUQFOY_clean_sbu_3, # of connection points: 4
#     Node 17, Type 0, BuildingBlock: QUQFOY_clean_sbu_3, # of connection points: 4
#     Node 18, Type 0, BuildingBlock: QUQFOY_clean_sbu_3, # of connection points: 4
#     Node 19, Type 0, BuildingBlock: QUQFOY_clean_sbu_3, # of connection points: 4
#     Node 20, Type 0, BuildingBlock: QUQFOY_clean_sbu_3, # of connection points: 4
#     Node 21, Type 0, BuildingBlock: QUQFOY_clean_sbu_3, # of connection points: 4
#     Node 22, Type 0, BuildingBlock: QUQFOY_clean_sbu_3, # of connection points: 4
#     Node 23, Type 0, BuildingBlock: QUQFOY_clean_sbu_3, # of connection points: 4
#     Node 24, Type 0, BuildingBlock: QUQFOY_clean_sbu_3, # of connection points: 4
#     Node 25, Type 0, BuildingBlock: QUQFOY_clean_sbu_3, # of connection points: 4
#     Node 26, Type 0, BuildingBlock: QUQFOY_clean_sbu_3, # of connection points: 4
#     Node 27, Type 0, BuildingBlock: QUQFOY_clean_sbu_3, # of connection points: 4
#     Node 28, Type 0, BuildingBlock: QUQFOY_clean_sbu_3, # of connection points: 4
#     Node 29, Type 0, BuildingBlock: QUQFOY_clean_sbu_3, # of connection points: 4
#     Node 30, Type 0, BuildingBlock: QUQFOY_clean_sbu_3, # of connection points: 4
#     Node 31, Type 0, BuildingBlock: QUQFOY_clean_sbu_3, # of connection points: 4
#     Edge 32, Type (0, 0), None
#     Edge 33, Type (0, 0), None
#     Edge 34, Type (0, 0), None
#     Edge 35, Type (0, 0), None
#     Edge 36, Type (0, 0), None
#     Edge 37, Type (0, 0), None
#     Edge 38, Type (0, 0), None
#     Edge 39, Type (0, 0), None
#     Edge 40, Type (0, 0), None
#     Edge 41, Type (0, 0), None
#     Edge 42, Type (0, 0), None
#     Edge 43, Type (0, 0), None
#     Edge 44, Type (0, 0), None
#     Edge 45, Type (0, 0), None
#     Edge 46, Type (0, 0), None
#     Edge 47, Type (0, 0), None
#     Edge 48, Type (0, 0), None
#     Edge 49, Type (0, 0), None
#     Edge 50, Type (0, 0), None
#     Edge 51, Type (0, 0), None
#     Edge 52, Type (0, 0), None
#     Edge 53, Type (0, 0), None
#     Edge 54, Type (0, 0), None
#     Edge 55, Type (0, 0), None
#     Edge 56, Type (0, 0), None
#     Edge 57, Type (0, 0), None
#     Edge 58, Type (0, 0), None
#     Edge 59, Type (0, 0), None
#     Edge 60, Type (0, 0), None
#     Edge 61, Type (0, 0), None
#     Edge 62, Type (0, 0), None
#     Edge 63, Type (0, 0), None
#     Edge 64, Type (0, 0), None
#     Edge 65, Type (0, 0), None
#     Edge 66, Type (0, 0), None
#     Edge 67, Type (0, 0), None
#     Edge 68, Type (0, 0), None
#     Edge 69, Type (0, 0), None
#     Edge 70, Type (0, 0), None
#     Edge 71, Type (0, 0), None
#     Edge 72, Type (0, 0), None
#     Edge 73, Type (0, 0), None
#     Edge 74, Type (0, 0), None
#     Edge 75, Type (0, 0), None
#     Edge 76, Type (0, 0), None
#     Edge 77, Type (0, 0), None
#     Edge 78, Type (0, 0), None
#     Edge 79, Type (0, 0), None
#     Edge 80, Type (0, 0), None
#     Edge 81, Type (0, 0), None
#     Edge 82, Type (0, 0), None
#     Edge 83, Type (0, 0), None
#     Edge 84, Type (0, 0), None
#     Edge 85, Type (0, 0), None
#     Edge 86, Type (0, 0), None
#     Edge 87, Type (0, 0), None
#     Edge 88, Type (0, 0), None
#     Edge 89, Type (0, 0), None
#     Edge 90, Type (0, 0), None
#     Edge 91, Type (0, 0), None
#     Edge 92, Type (0, 0), None
#     Edge 93, Type (0, 0), None
#     Edge 94, Type (0, 0), None
#     Edge 95, Type (0, 0), None
# Relax obj value: 0.205
# Max RMSD: 0.112
# Mean RMSD: 0.112
data_MOF--net-zni--node1-QUQFOY_clean_sbu_3--edge1-none
_symmetry_space_group_name_H-M    P1
_symmetry_Int_Tables_number       1
_symmetry_cell_setting            triclinic
loop_
_symmetry_equiv_pos_as_xyz
'x, y, z'
_cell_length_a     27.993155
_cell_length_b     27.993359
_cell_length_c     16.05043
_cell_angle_alpha  90.00942
_cell_angle_beta   90.003298
_cell_angle_gamma 90.000295
loop_
_atom_site_label
_atom_site_type_symbol
_atom_site_fract_x
_atom_site_fract_y
_atom_site_fract_z
_atom_type_partial_charge
C0 C 0.12198 0.07233 0.51498 0.0
O1 O 0.08059 0.05567 0.52678 0.0
Cd2 Cd 0.03242 0.10922 0.44609 0.0
O3 O 0.13236 0.08771 0.44264 0.0
Cd4 Cd 0.08922 0.07895 0.30703 0.0
C5 C 0.10799 0.19046 0.34434 0.0
O6 O 0.00212 0.06784 0.33037 0.0
O7 O 0.02357 0.1158 0.23167 0.0
O8 O 0.11078 -0.00355 0.28074 0.0
C9 C -0.00984 0.09466 0.27012 0.0
O10 O 0.0767 0.18132 0.39996 0.0
C11 C 0.12251 0.0035 0.20525 0.0
O12 O 0.12306 0.15791 0.29561 0.0
O13 O 0.12285 0.0464 0.17936 0.0
C14 C 0.14489 0.87196 0.76502 0.0
O15 O 0.16156 0.83058 0.77681 0.0
Cd16 Cd 0.10801 0.78241 0.6961 0.0
O17 O 0.12951 0.88235 0.69267 0.0
Cd18 Cd 0.13827 0.83921 0.55705 0.0
C19 C 0.02676 0.85799 0.59438 0.0
O20 O 0.14939 0.75212 0.58039 0.0
O21 O 0.10142 0.77356 0.48167 0.0
O22 O 0.22077 0.8608 0.53075 0.0
C23 C 0.12257 0.74015 0.52013 0.0
O24 O 0.03591 0.82669 0.64998 0.0
C25 C 0.2137 0.87253 0.45527 0.0
O26 O 0.05931 0.87305 0.54564 0.0
O27 O 0.17079 0.87285 0.42938 0.0
C28 C 0.34519 0.8949 0.01501 0.0
O29 O 0.38658 0.91157 0.02682 0.0
Cd30 Cd 0.43474 0.85801 -0.05387 0.0
O31 O 0.3348 0.87952 -0.05734 0.0
Cd32 Cd 0.37794 0.88826 0.80705 0.0
C33 C 0.35917 0.77675 0.84438 0.0
O34 O 0.46504 0.89938 0.83042 0.0
O35 O 0.44359 0.8514 0.73171 0.0
O36 O 0.35638 0.97076 0.78074 0.0
C37 C 0.477 0.87255 0.77016 0.0
O38 O 0.39047 0.7859 0.9 0.0
C39 C 0.34465 0.96369 0.70525 0.0
O40 O 0.3441 0.8093 0.79564 0.0
O41 O 0.34432 0.92077 0.67936 0.0
C42 C 0.32233 0.09517 0.26497 0.0
O43 O 0.30566 0.13655 0.27679 0.0
Cd44 Cd 0.35922 0.18472 0.19611 0.0
O45 O 0.33771 0.08479 0.19262 0.0
Cd46 Cd 0.32896 0.12794 0.05703 0.0
C47 C 0.44047 0.10916 0.09434 0.0
O48 O 0.31784 0.21504 0.08041 0.0
O49 O 0.36582 0.19358 -0.0183 0.0
O50 O 0.24646 0.10638 0.03073 0.0
C51 C 0.34467 0.22699 0.02016 0.0
O52 O 0.43132 0.14045 0.14997 0.0
C53 C 0.25351 0.09465 -0.04477 0.0
O54 O 0.40792 0.09409 0.0456 0.0
O55 O 0.29642 0.09432 -0.07066 0.0
C56 C 0.12198 0.89491 0.8367 0.0
O57 O 0.08059 0.91156 0.82486 0.0
Cd58 Cd 0.03241 0.85797 0.90544 0.0
O59 O 0.13238 0.8795 0.90902 0.0
Cd60 Cd 0.08923 0.88822 0.04462 0.0
C61 C 0.10799 0.77672 0.00715 0.0
O62 O 0.00214 0.89934 0.02121 0.0
O63 O 0.02357 0.85137 0.11992 0.0
O64 O 0.1108 0.97072 0.07094 0.0
C65 C -0.00983 0.87251 0.08144 0.0
O66 O 0.0767 0.78588 -0.04846 0.0
C67 C 0.12251 0.96366 0.14643 0.0
O68 O 0.12306 0.80926 0.05593 0.0
O69 O 0.12285 0.92075 0.17233 0.0
C70 C 0.32224 0.87199 0.08669 0.0
O71 O 0.30558 0.83061 0.07483 0.0
Cd72 Cd 0.35918 0.78243 0.15541 0.0
O73 O 0.33765 0.8824 0.15901 0.0
Cd74 Cd 0.32895 0.83925 0.2946 0.0
C75 C 0.44045 0.85802 0.25714 0.0
O76 O 0.31782 0.75217 0.27117 0.0
O77 O 0.3658 0.77359 0.3699 0.0
O78 O 0.24645 0.86082 0.32094 0.0
C79 C 0.34466 0.74019 0.33141 0.0
O80 O 0.43128 0.82672 0.20152 0.0
C81 C 0.25353 0.87252 0.39644 0.0
O82 O 0.40792 0.87308 0.30592 0.0
O83 O 0.29644 0.87287 0.42233 0.0
C84 C 0.34523 0.07221 0.33665 0.0
O85 O 0.38661 0.05555 0.32481 0.0
Cd86 Cd 0.43479 0.10915 0.40541 0.0
O87 O 0.33482 0.08762 0.40897 0.0
Cd88 Cd 0.37796 0.07891 0.54459 0.0
C89 C 0.35919 0.19041 0.50711 0.0
O90 O 0.46504 0.06779 0.52119 0.0
O91 O 0.44362 0.11577 0.61991 0.0
O92 O 0.35638 -0.00358 0.57092 0.0
C93 C 0.47702 0.09462 0.58142 0.0
O94 O 0.39049 0.18125 0.4515 0.0
C95 C 0.34467 0.00351 0.64642 0.0
O96 O 0.34413 0.15789 0.55588 0.0
O97 O 0.34433 0.04642 0.6723 0.0
C98 C 0.14494 0.09524 0.58667 0.0
O99 O 0.1616 0.13662 0.57484 0.0
Cd100 Cd 0.10801 0.18481 0.65544 0.0
O101 O 0.12953 0.08483 0.65898 0.0
Cd102 Cd 0.13826 0.12797 0.79461 0.0
C103 C 0.02675 0.10921 0.75713 0.0
O104 O 0.14938 0.21505 0.77122 0.0
O105 O 0.10141 0.19364 0.86995 0.0
O106 O 0.22075 0.10639 0.82092 0.0
C107 C 0.12255 0.22704 0.83146 0.0
O108 O 0.03591 0.14051 0.70153 0.0
C109 C 0.21368 0.09468 0.89641 0.0
O110 O 0.05929 0.09415 0.8059 0.0
O111 O 0.17077 0.09435 0.92231 0.0
C112 C 0.84517 0.89485 0.33654 0.0
O113 O 0.88655 0.91155 0.32474 0.0
Cd114 Cd 0.93472 0.85797 0.40537 0.0
O115 O 0.83481 0.87946 0.40888 0.0
Cd116 Cd 0.87797 0.88822 0.54447 0.0
C117 C 0.85918 0.77672 0.50714 0.0
O118 O 0.96507 0.89933 0.52109 0.0
O119 O 0.94362 0.85136 0.6198 0.0
O120 O 0.85642 0.97073 0.57076 0.0
C121 C 0.97703 0.87248 0.58132 0.0
O122 O 0.89046 0.78587 0.45151 0.0
C123 C 0.84469 0.96368 0.64625 0.0
O124 O 0.84412 0.80927 0.55589 0.0
O125 O 0.84436 0.92078 0.67215 0.0
C126 C 0.82228 0.09522 0.08647 0.0
O127 O 0.80563 0.13662 0.07467 0.0
Cd128 Cd 0.8592 0.18477 0.15538 0.0
O129 O 0.83765 0.08483 0.15881 0.0
Cd130 Cd 0.82893 0.12797 0.29444 0.0
C131 C 0.94043 0.10917 0.25708 0.0
O132 O 0.81782 0.21506 0.27111 0.0
O133 O 0.86579 0.19361 0.36981 0.0
O134 O 0.74643 0.1064 0.32075 0.0
C135 C 0.84465 0.22703 0.33136 0.0
O136 O 0.93129 0.14047 0.20148 0.0
C137 C 0.75349 0.09467 0.39624 0.0
O138 O 0.90788 0.09411 0.30582 0.0
O139 O 0.79641 0.09434 0.42212 0.0
C140 C 0.62205 0.07227 0.83651 0.0
O141 O 0.58068 0.05557 0.82471 0.0
Cd142 Cd 0.5325 0.10916 0.90534 0.0
O143 O 0.63242 0.08767 0.90886 0.0
Cd144 Cd 0.58926 0.07892 0.04444 0.0
C145 C 0.60805 0.19042 0.00711 0.0
O146 O 0.50216 0.06782 0.02104 0.0
O147 O 0.52361 0.1158 0.11977 0.0
O148 O 0.61081 -0.00358 0.07076 0.0
C149 C 0.4902 0.09466 0.08128 0.0
O150 O 0.57677 0.18127 -0.04853 0.0
C151 C 0.62253 0.00349 0.14626 0.0
O152 O 0.62311 0.15788 0.05586 0.0
O153 O 0.62287 0.04641 0.17214 0.0
C154 C 0.6449 0.87201 0.58652 0.0
O155 O 0.66154 0.83061 0.5747 0.0
Cd156 Cd 0.60797 0.78246 0.65538 0.0
O157 O 0.62951 0.88239 0.65886 0.0
Cd158 Cd 0.63823 0.83924 0.79446 0.0
C159 C 0.52673 0.85805 0.75711 0.0
O160 O 0.64934 0.75214 0.77109 0.0
O161 O 0.60136 0.77361 0.86977 0.0
O162 O 0.72074 0.86079 0.82077 0.0
C163 C 0.62251 0.74019 0.83133 0.0
O164 O 0.53587 0.82675 0.70149 0.0
C165 C 0.71368 0.87251 0.89627 0.0
O166 O 0.55928 0.8731 0.80587 0.0
O167 O 0.67077 0.87286 0.92216 0.0
C168 C 0.84517 0.07226 0.01478 0.0
O169 O 0.88655 0.05557 0.02663 0.0
Cd170 Cd 0.93474 0.10919 -0.05389 0.0
O171 O 0.83478 0.08769 -0.05753 0.0
Cd172 Cd 0.87796 0.07896 0.80689 0.0
C173 C 0.85918 0.19046 0.84437 0.0
O174 O 0.96505 0.06786 0.83034 0.0
O175 O 0.94362 0.11583 0.73161 0.0
O176 O 0.85641 -0.00354 0.78057 0.0
C177 C 0.97702 0.09471 0.77013 0.0
O178 O 0.89046 0.18129 0.9 0.0
C179 C 0.8447 0.00352 0.70507 0.0
O180 O 0.84412 0.15792 0.79557 0.0
O181 O 0.84436 0.04643 0.67917 0.0
C182 C 0.64498 0.09519 0.76483 0.0
O183 O 0.66162 0.13658 0.77669 0.0
Cd184 Cd 0.60801 0.18475 0.69611 0.0
O185 O 0.62957 0.08478 0.69252 0.0
Cd186 Cd 0.63825 0.12793 0.55691 0.0
C187 C 0.52675 0.10914 0.59442 0.0
O188 O 0.64936 0.21502 0.58034 0.0
O189 O 0.60137 0.19358 0.48163 0.0
O190 O 0.72075 0.10638 0.53057 0.0
C191 C 0.62252 0.22699 0.52012 0.0
O192 O 0.53592 0.14044 0.65003 0.0
C193 C 0.71367 0.09467 0.45507 0.0
O194 O 0.55928 0.09408 0.54562 0.0
O195 O 0.67075 0.09432 0.42918 0.0
C196 C 0.62201 0.89498 0.51483 0.0
O197 O 0.58064 0.91167 0.52667 0.0
Cd198 Cd 0.53245 0.85805 0.44613 0.0
O199 O 0.63241 0.87955 0.44252 0.0
Cd200 Cd 0.58925 0.88826 0.30692 0.0
C201 C 0.60803 0.77677 0.34442 0.0
O202 O 0.50216 0.89937 0.33036 0.0
O203 O 0.52358 0.85139 0.23162 0.0
O204 O 0.61081 0.97075 0.28058 0.0
C205 C 0.49018 0.87252 0.27014 0.0
O206 O 0.57674 0.78594 0.40004 0.0
C207 C 0.62252 0.96367 0.20509 0.0
O208 O 0.62308 0.80929 0.29562 0.0
O209 O 0.62285 0.92076 0.1792 0.0
C210 C 0.82223 0.87193 0.26485 0.0
O211 O 0.80559 0.83054 0.27668 0.0
Cd212 Cd 0.85919 0.78237 0.19608 0.0
O213 O 0.83763 0.88235 0.19254 0.0
Cd214 Cd 0.82894 0.83921 0.05691 0.0
C215 C 0.94044 0.85799 0.09442 0.0
O216 O 0.81783 0.75212 0.0803 0.0
O217 O 0.8658 0.77355 -0.01842 0.0
O218 O 0.74644 0.86078 0.03058 0.0
C219 C 0.84466 0.74014 0.02007 0.0
O220 O 0.93128 0.82669 0.15001 0.0
C221 C 0.75352 0.87249 -0.04491 0.0
O222 O 0.9079 0.87305 0.04564 0.0
O223 O 0.79643 0.87283 -0.0708 0.0
C224 C 0.62196 0.57232 0.015 0.0
O225 O 0.58056 0.55569 0.0268 0.0
Cd226 Cd 0.5324 0.60923 -0.05391 0.0
O227 O 0.63235 0.58769 -0.05735 0.0
Cd228 Cd 0.58922 0.57895 0.80703 0.0
C229 C 0.608 0.69046 0.84437 0.0
O230 O 0.50212 0.56784 0.83037 0.0
O231 O 0.52357 0.6158 0.73166 0.0
O232 O 0.61078 0.49644 0.78074 0.0
C233 C 0.49016 0.59466 0.77012 0.0
O234 O 0.5767 0.68132 0.89998 0.0
C235 C 0.62252 0.5035 0.70525 0.0
O236 O 0.62306 0.65791 0.79564 0.0
O237 O 0.62285 0.5464 0.67936 0.0
C238 C 0.64489 0.37199 0.265 0.0
O239 O 0.66159 0.33062 0.2768 0.0
Cd240 Cd 0.60801 0.28244 0.19614 0.0
O241 O 0.62951 0.38236 0.19266 0.0
Cd242 Cd 0.63827 0.33921 0.05705 0.0
C243 C 0.52676 0.35799 0.09439 0.0
O244 O 0.64938 0.25212 0.08042 0.0
O245 O 0.60142 0.27356 -0.01832 0.0
O246 O 0.72077 0.36079 0.03075 0.0
C247 C 0.62255 0.24016 0.02018 0.0
O248 O 0.53591 0.32671 0.15001 0.0
C249 C 0.7137 0.37252 -0.04473 0.0
O250 O 0.55931 0.37305 0.04565 0.0
O251 O 0.67079 0.37284 -0.07062 0.0
C252 C 0.84521 0.39491 0.51503 0.0
O253 O 0.8866 0.41156 0.52684 0.0
Cd254 Cd 0.93476 0.358 0.44613 0.0
O255 O 0.83481 0.37954 0.44267 0.0
Cd256 Cd 0.87795 0.38826 0.30706 0.0
C257 C 0.85916 0.27676 0.34441 0.0
O258 O 0.96504 0.39938 0.33041 0.0
O259 O 0.94359 0.3514 0.2317 0.0
O260 O 0.85638 0.47076 0.28074 0.0
C261 C 0.977 0.37255 0.27016 0.0
O262 O 0.89046 0.2859 0.40001 0.0
C263 C 0.84465 0.46369 0.20525 0.0
O264 O 0.8441 0.3093 0.29566 0.0
O265 O 0.84431 0.42077 0.17937 0.0
C266 C 0.82233 0.59514 0.76496 0.0
O267 O 0.80564 0.63652 0.77677 0.0
Cd268 Cd 0.85921 0.68469 0.69614 0.0
O269 O 0.83772 0.58477 0.69261 0.0
Cd270 Cd 0.82896 0.62794 0.55704 0.0
C271 C 0.94047 0.60915 0.59435 0.0
O272 O 0.81785 0.71503 0.58044 0.0
O273 O 0.86582 0.69358 0.48171 0.0
O274 O 0.74646 0.60638 0.53073 0.0
C275 C 0.84469 0.72699 0.5202 0.0
O276 O 0.93132 0.64044 0.65 0.0
C277 C 0.75351 0.59466 0.45523 0.0
O278 O 0.90792 0.59409 0.5456 0.0
O279 O 0.79642 0.59432 0.42934 0.0
C280 C 0.62196 0.39492 0.33669 0.0
O281 O 0.58057 0.41156 0.32484 0.0
Cd282 Cd 0.5324 0.35796 0.40543 0.0
O283 O 0.63238 0.37952 0.409 0.0
Cd284 Cd 0.58923 0.38822 0.54462 0.0
C285 C 0.60801 0.27672 0.50712 0.0
O286 O 0.50215 0.39934 0.52121 0.0
O287 O 0.52358 0.35137 0.61993 0.0
O288 O 0.6108 0.47072 0.57094 0.0
C289 C 0.49017 0.37251 0.58144 0.0
O290 O 0.57671 0.28588 0.45152 0.0
C291 C 0.62251 0.46366 0.64643 0.0
O292 O 0.62307 0.30926 0.5559 0.0
O293 O 0.62285 0.42075 0.67233 0.0
C294 C 0.82224 0.37202 0.5867 0.0
O295 O 0.80556 0.33065 0.57485 0.0
Cd296 Cd 0.85917 0.28245 0.65538 0.0
O297 O 0.83766 0.38242 0.65902 0.0
Cd298 Cd 0.82895 0.33925 0.7946 0.0
C299 C 0.94045 0.35802 0.75712 0.0
O300 O 0.81784 0.25217 0.77114 0.0
O301 O 0.86581 0.27359 0.86989 0.0
O302 O 0.74645 0.36081 0.82094 0.0
C303 C 0.84468 0.24019 0.83136 0.0
O304 O 0.93128 0.32674 0.70149 0.0
C305 C 0.75353 0.37251 0.89644 0.0
O306 O 0.90792 0.37308 0.80591 0.0
O307 O 0.79644 0.37286 0.92233 0.0
C308 C 0.84524 0.5722 0.83663 0.0
O309 O 0.88664 0.55556 0.82479 0.0
Cd310 Cd 0.93481 0.60916 0.90541 0.0
O311 O 0.83482 0.5876 0.90896 0.0
Cd312 Cd 0.87795 0.57891 0.04459 0.0
C313 C 0.85918 0.69041 0.00708 0.0
O314 O 0.96504 0.56779 0.02119 0.0
O315 O 0.94362 0.61576 0.11993 0.0
O316 O 0.85638 0.49642 0.07092 0.0
C317 C 0.97702 0.59462 0.08143 0.0
O318 O 0.89049 0.68125 -0.04852 0.0
C319 C 0.84466 0.50351 0.14642 0.0
O320 O 0.84412 0.65788 0.05586 0.0
O321 O 0.84433 0.54642 0.1723 0.0
C322 C 0.64494 0.59521 0.08668 0.0
O323 O 0.66162 0.63659 0.07485 0.0
Cd324 Cd 0.60801 0.68478 0.15541 0.0
O325 O 0.62952 0.58482 0.159 0.0
Cd326 Cd 0.63825 0.62797 0.29461 0.0
C327 C 0.52675 0.60921 0.25712 0.0
O328 O 0.64937 0.71505 0.27119 0.0
O329 O 0.60141 0.69364 0.36994 0.0
O330 O 0.72075 0.60639 0.32092 0.0
C331 C 0.62253 0.72703 0.33141 0.0
O332 O 0.53591 0.64049 0.20151 0.0
C333 C 0.71367 0.59468 0.39641 0.0
O334 O 0.55928 0.59415 0.3059 0.0
O335 O 0.67077 0.59435 0.42231 0.0
C336 C 0.34519 0.39487 0.83653 0.0
O337 O 0.38658 0.41153 0.82472 0.0
Cd338 Cd 0.43474 0.35796 0.90537 0.0
O339 O 0.33482 0.37948 0.90887 0.0
Cd340 Cd 0.37797 0.38822 0.04447 0.0
C341 C 0.35917 0.27672 0.00711 0.0
O342 O 0.46507 0.39933 0.02109 0.0
O343 O 0.44362 0.35136 0.11981 0.0
O344 O 0.35642 0.47073 0.07076 0.0
C345 C 0.47703 0.37249 0.08132 0.0
O346 O 0.39046 0.28586 -0.04851 0.0
C347 C 0.34469 0.46368 0.14625 0.0
O348 O 0.34412 0.30927 0.05587 0.0
O349 O 0.34436 0.42078 0.17215 0.0
C350 C 0.32228 0.5952 0.58648 0.0
O351 O 0.3056 0.63658 0.57469 0.0
Cd352 Cd 0.35919 0.68475 0.65535 0.0
O353 O 0.33766 0.58482 0.65882 0.0
Cd354 Cd 0.32893 0.62797 0.79444 0.0
C355 C 0.44043 0.60916 0.75707 0.0
O356 O 0.31783 0.71506 0.77107 0.0
O357 O 0.3658 0.69361 0.8698 0.0
O358 O 0.24643 0.60641 0.82075 0.0
C359 C 0.34467 0.72702 0.83131 0.0
O360 O 0.43128 0.64046 0.70146 0.0
C361 C 0.25349 0.59468 0.89624 0.0
O362 O 0.40788 0.59411 0.80582 0.0
O363 O 0.29641 0.59435 0.92212 0.0
C364 C 0.12203 0.57226 0.3365 0.0
O365 O 0.08065 0.55558 0.32469 0.0
Cd366 Cd 0.03249 0.60917 0.40533 0.0
O367 O 0.13241 0.58765 0.40884 0.0
Cd368 Cd 0.08926 0.57892 0.54444 0.0
C369 C 0.10806 0.69042 0.50708 0.0
O370 O 0.00216 0.56782 0.52105 0.0
O371 O 0.02361 0.6158 0.61978 0.0
O372 O 0.11081 0.49642 0.57076 0.0
C373 C -0.0098 0.59466 0.58128 0.0
O374 O 0.07677 0.68127 0.45145 0.0
C375 C 0.12254 0.50349 0.64626 0.0
O376 O 0.12311 0.65788 0.55584 0.0
O377 O 0.12287 0.54641 0.67214 0.0
C378 C 0.14489 0.37203 0.08653 0.0
O379 O 0.16156 0.33065 0.07471 0.0
Cd380 Cd 0.10798 0.28249 0.15534 0.0
O381 O 0.1295 0.38241 0.15887 0.0
Cd382 Cd 0.13823 0.33924 0.29445 0.0
C383 C 0.02673 0.35805 0.2571 0.0
O384 O 0.14933 0.25214 0.27105 0.0
O385 O 0.10135 0.27361 0.36977 0.0
O386 O 0.22074 0.36078 0.32077 0.0
C387 C 0.12248 0.24019 0.33128 0.0
O388 O 0.03588 0.32676 0.20147 0.0
C389 C 0.21368 0.37251 0.39627 0.0
O390 O 0.05928 0.3731 0.30587 0.0
O391 O 0.17078 0.37285 0.42216 0.0
C392 C 0.34519 0.57225 0.5148 0.0
O393 O 0.38657 0.55558 0.52664 0.0
Cd394 Cd 0.43475 0.6092 0.44611 0.0
O395 O 0.33479 0.58767 0.44248 0.0
Cd396 Cd 0.37796 0.57896 0.30689 0.0
C397 C 0.35916 0.69046 0.3444 0.0
O398 O 0.46504 0.56786 0.33034 0.0
O399 O 0.44361 0.61583 0.2316 0.0
O400 O 0.35641 0.49646 0.28057 0.0
C401 C 0.47701 0.59471 0.27013 0.0
O402 O 0.39045 0.6813 0.40002 0.0
C403 C 0.3447 0.50352 0.20507 0.0
O404 O 0.34411 0.65792 0.2956 0.0
O405 O 0.34436 0.54643 0.17917 0.0
C406 C 0.14498 0.59516 0.26482 0.0
O407 O 0.16165 0.63655 0.27668 0.0
Cd408 Cd 0.10802 0.68473 0.19615 0.0
O409 O 0.12956 0.58476 0.1925 0.0
Cd410 Cd 0.13825 0.62793 0.05692 0.0
C411 C 0.02675 0.60913 0.09443 0.0
O412 O 0.14935 0.71502 0.08037 0.0
O413 O 0.10137 0.69358 -0.01836 0.0
O414 O 0.22074 0.60638 0.03057 0.0
C415 C 0.12249 0.72699 0.02016 0.0
O416 O 0.03592 0.64042 0.15005 0.0
C417 C 0.21366 0.59468 -0.04493 0.0
O418 O 0.05928 0.59408 0.04563 0.0
O419 O 0.17075 0.59433 -0.07082 0.0
C420 C 0.122 0.39499 0.01485 0.0
O421 O 0.08062 0.41166 0.02669 0.0
Cd422 Cd 0.03243 0.35804 -0.05386 0.0
O423 O 0.1324 0.37957 -0.05747 0.0
Cd424 Cd 0.08925 0.38826 0.80692 0.0
C425 C 0.10804 0.27677 0.84444 0.0
O426 O 0.00216 0.39937 0.83036 0.0
O427 O 0.02358 0.35139 0.73161 0.0
O428 O 0.11081 0.47076 0.78058 0.0
C429 C -0.00981 0.37252 0.77013 0.0
O430 O 0.07674 0.28594 0.90006 0.0
C431 C 0.12252 0.46367 0.70509 0.0
O432 O 0.12309 0.3093 0.79565 0.0
O433 O 0.12286 0.42076 0.6792 0.0
C434 C 0.32223 0.37196 0.76484 0.0
O435 O 0.30557 0.33058 0.77667 0.0
Cd436 Cd 0.35919 0.28239 0.69612 0.0
O437 O 0.33765 0.38236 0.69252 0.0
Cd438 Cd 0.32894 0.33921 0.55691 0.0
C439 C 0.44044 0.358 0.59443 0.0
O440 O 0.31784 0.25213 0.58033 0.0
O441 O 0.36581 0.27355 0.48159 0.0
O442 O 0.24645 0.36077 0.53058 0.0
C443 C 0.34469 0.24015 0.52011 0.0
O444 O 0.43128 0.3267 0.65004 0.0
C445 C 0.25352 0.37248 0.45509 0.0
O446 O 0.40791 0.37305 0.54564 0.0
O447 O 0.29643 0.37282 0.4292 0.0
loop_
_geom_bond_atom_site_label_1
_geom_bond_atom_site_label_2
_geom_bond_distance
_geom_bond_site_symmetry_2
_ccdc_geom_bond_type
C0 O1 1.306 . S
C0 O3 1.160 . S
O1 C0 1.306 . S
O1 Cd2 2.228 . S
Cd2 O1 2.228 . S
Cd2 O6 2.273 . S
Cd2 O10 2.277 . S
O3 C0 1.160 . S
O3 Cd4 2.203 . S
Cd4 O3 2.203 . S
Cd4 O6 2.411 . S
Cd4 O7 2.333 . S
Cd4 O8 2.352 . S
Cd4 O12 2.277 . S
Cd4 O13 2.356 . S
C5 O10 1.209 . S
C5 O12 1.226 . S
O6 Cd2 2.273 . S
O6 Cd4 2.411 . S
O6 C9 1.320 . S
O7 Cd4 2.333 . S
O7 C9 1.214 . S
O8 Cd4 2.352 . S
O8 C11 1.258 . S
C9 O6 1.320 . S
C9 O7 1.214 . S
O10 Cd2 2.277 . S
O10 C5 1.209 . S
C11 O8 1.258 . S
C11 O13 1.282 . S
O12 Cd4 2.277 . S
O12 C5 1.226 . S
O13 Cd4 2.356 . S
O13 C11 1.282 . S
C14 O15 1.306 . S
C14 O17 1.160 . S
O15 C14 1.306 . S
O15 Cd16 2.228 . S
Cd16 O15 2.228 . S
Cd16 O20 2.273 . S
Cd16 O24 2.277 . S
O17 C14 1.160 . S
O17 Cd18 2.203 . S
Cd18 O17 2.203 . S
Cd18 O20 2.411 . S
Cd18 O21 2.333 . S
Cd18 O22 2.352 . S
Cd18 O26 2.277 . S
Cd18 O27 2.356 . S
C19 O24 1.209 . S
C19 O26 1.226 . S
O20 Cd16 2.273 . S
O20 Cd18 2.411 . S
O20 C23 1.320 . S
O21 Cd18 2.333 . S
O21 C23 1.214 . S
O22 Cd18 2.352 . S
O22 C25 1.258 . S
C23 O20 1.320 . S
C23 O21 1.214 . S
O24 Cd16 2.277 . S
O24 C19 1.209 . S
C25 O22 1.258 . S
C25 O27 1.282 . S
O26 Cd18 2.277 . S
O26 C19 1.226 . S
O27 Cd18 2.356 . S
O27 C25 1.282 . S
C28 O29 1.306 . S
C28 O31 1.160 . S
O29 C28 1.306 . S
O29 Cd30 2.228 . S
Cd30 O29 2.228 . S
Cd30 O34 2.273 1_554 S
Cd30 O38 2.277 1_554 S
O31 C28 1.160 . S
O31 Cd32 2.203 1_554 S
Cd32 O31 2.203 1_556 S
Cd32 O34 2.411 . S
Cd32 O35 2.333 . S
Cd32 O36 2.352 . S
Cd32 O40 2.277 . S
Cd32 O41 2.356 . S
C33 O38 1.209 . S
C33 O40 1.226 . S
O34 Cd30 2.273 1_556 S
O34 Cd32 2.411 . S
O34 C37 1.320 . S
O35 Cd32 2.333 . S
O35 C37 1.214 . S
O36 Cd32 2.352 . S
O36 C39 1.258 . S
C37 O34 1.320 . S
C37 O35 1.214 . S
O38 Cd30 2.277 1_556 S
O38 C33 1.209 . S
C39 O36 1.258 . S
C39 O41 1.282 . S
O40 Cd32 2.277 . S
O40 C33 1.226 . S
O41 Cd32 2.356 . S
O41 C39 1.282 . S
C42 O43 1.306 . S
C42 O45 1.160 . S
O43 C42 1.306 . S
O43 Cd44 2.228 . S
Cd44 O43 2.228 . S
Cd44 O48 2.273 . S
Cd44 O52 2.277 . S
O45 C42 1.160 . S
O45 Cd46 2.203 . S
Cd46 O45 2.203 . S
Cd46 O48 2.411 . S
Cd46 O49 2.333 . S
Cd46 O50 2.352 . S
Cd46 O54 2.277 . S
Cd46 O55 2.356 1_554 S
C47 O52 1.209 . S
C47 O54 1.226 . S
O48 Cd44 2.273 . S
O48 Cd46 2.411 . S
O48 C51 1.320 . S
O49 Cd46 2.333 . S
O49 C51 1.214 . S
O50 Cd46 2.352 . S
O50 C53 1.258 . S
C51 O48 1.320 . S
C51 O49 1.214 . S
O52 Cd44 2.277 . S
O52 C47 1.209 . S
C53 O50 1.258 . S
C53 O55 1.282 1_554 S
O54 Cd46 2.277 . S
O54 C47 1.226 . S
O55 Cd46 2.356 1_556 S
O55 C53 1.282 1_556 S
C56 O57 1.306 . S
C56 O59 1.160 . S
O57 C56 1.306 . S
O57 Cd58 2.228 . S
Cd58 O57 2.228 . S
Cd58 O62 2.273 1_556 S
Cd58 O66 2.277 1_556 S
O59 C56 1.160 . S
O59 Cd60 2.203 1_556 S
Cd60 O59 2.203 1_554 S
Cd60 O62 2.411 . S
Cd60 O63 2.333 . S
Cd60 O64 2.352 . S
Cd60 O68 2.277 . S
Cd60 O69 2.356 . S
C61 O66 1.209 . S
C61 O68 1.226 . S
O62 Cd58 2.273 1_554 S
O62 Cd60 2.411 . S
O62 C65 1.320 . S
O63 Cd60 2.333 . S
O63 C65 1.214 . S
O64 Cd60 2.352 . S
O64 C67 1.258 . S
C65 O62 1.320 . S
C65 O63 1.214 . S
O66 Cd58 2.277 1_554 S
O66 C61 1.209 . S
C67 O64 1.258 . S
C67 O69 1.282 . S
O68 Cd60 2.277 . S
O68 C61 1.226 . S
O69 Cd60 2.356 . S
O69 C67 1.282 . S
C70 O71 1.306 . S
C70 O73 1.160 . S
O71 C70 1.306 . S
O71 Cd72 2.228 . S
Cd72 O71 2.228 . S
Cd72 O76 2.273 . S
Cd72 O80 2.277 . S
O73 C70 1.160 . S
O73 Cd74 2.203 . S
Cd74 O73 2.203 . S
Cd74 O76 2.411 . S
Cd74 O77 2.333 . S
Cd74 O78 2.352 . S
Cd74 O82 2.277 . S
Cd74 O83 2.356 . S
C75 O80 1.209 . S
C75 O82 1.226 . S
O76 Cd72 2.273 . S
O76 Cd74 2.411 . S
O76 C79 1.320 . S
O77 Cd74 2.333 . S
O77 C79 1.214 . S
O78 Cd74 2.352 . S
O78 C81 1.258 . S
C79 O76 1.320 . S
C79 O77 1.214 . S
O80 Cd72 2.277 . S
O80 C75 1.209 . S
C81 O78 1.258 . S
C81 O83 1.282 . S
O82 Cd74 2.277 . S
O82 C75 1.226 . S
O83 Cd74 2.356 . S
O83 C81 1.282 . S
C84 O85 1.306 . S
C84 O87 1.160 . S
O85 C84 1.306 . S
O85 Cd86 2.228 . S
Cd86 O85 2.228 . S
Cd86 O90 2.273 . S
Cd86 O94 2.277 . S
O87 C84 1.160 . S
O87 Cd88 2.203 . S
Cd88 O87 2.203 . S
Cd88 O90 2.411 . S
Cd88 O91 2.333 . S
Cd88 O92 2.352 . S
Cd88 O96 2.277 . S
Cd88 O97 2.356 . S
C89 O94 1.209 . S
C89 O96 1.226 . S
O90 Cd86 2.273 . S
O90 Cd88 2.411 . S
O90 C93 1.320 . S
O91 Cd88 2.333 . S
O91 C93 1.214 . S
O92 Cd88 2.352 . S
O92 C95 1.258 . S
C93 O90 1.320 . S
C93 O91 1.214 . S
O94 Cd86 2.277 . S
O94 C89 1.209 . S
C95 O92 1.258 . S
C95 O97 1.282 . S
O96 Cd88 2.277 . S
O96 C89 1.226 . S
O97 Cd88 2.356 . S
O97 C95 1.282 . S
C98 O99 1.306 . S
C98 O101 1.160 . S
O99 C98 1.306 . S
O99 Cd100 2.228 . S
Cd100 O99 2.228 . S
Cd100 O104 2.273 . S
Cd100 O108 2.277 . S
O101 C98 1.160 . S
O101 Cd102 2.203 . S
Cd102 O101 2.203 . S
Cd102 O104 2.411 . S
Cd102 O105 2.333 . S
Cd102 O106 2.352 . S
Cd102 O110 2.277 . S
Cd102 O111 2.356 1_556 S
C103 O108 1.209 . S
C103 O110 1.226 . S
O104 Cd100 2.273 . S
O104 Cd102 2.411 . S
O104 C107 1.320 . S
O105 Cd102 2.333 . S
O105 C107 1.214 . S
O106 Cd102 2.352 . S
O106 C109 1.258 . S
C107 O104 1.320 . S
C107 O105 1.214 . S
O108 Cd100 2.277 . S
O108 C103 1.209 . S
C109 O106 1.258 . S
C109 O111 1.282 1_556 S
O110 Cd102 2.277 . S
O110 C103 1.226 . S
O111 Cd102 2.356 1_554 S
O111 C109 1.282 1_554 S
C112 O113 1.306 . S
C112 O115 1.160 . S
O113 C112 1.306 . S
O113 Cd114 2.228 . S
Cd114 O113 2.228 . S
Cd114 O118 2.273 . S
Cd114 O122 2.277 . S
O115 C112 1.160 . S
O115 Cd116 2.203 . S
Cd116 O115 2.203 . S
Cd116 O118 2.411 . S
Cd116 O119 2.333 . S
Cd116 O120 2.352 . S
Cd116 O124 2.277 . S
Cd116 O125 2.356 . S
C117 O122 1.209 . S
C117 O124 1.226 . S
O118 Cd114 2.273 . S
O118 Cd116 2.411 . S
O118 C121 1.320 . S
O119 Cd116 2.333 . S
O119 C121 1.214 . S
O120 Cd116 2.352 . S
O120 C123 1.258 . S
C121 O118 1.320 . S
C121 O119 1.214 . S
O122 Cd114 2.277 . S
O122 C117 1.209 . S
C123 O120 1.258 . S
C123 O125 1.282 . S
O124 Cd116 2.277 . S
O124 C117 1.226 . S
O125 Cd116 2.356 . S
O125 C123 1.282 . S
C126 O127 1.306 . S
C126 O129 1.160 . S
O127 C126 1.306 . S
O127 Cd128 2.228 . S
Cd128 O127 2.228 . S
Cd128 O132 2.273 . S
Cd128 O136 2.277 . S
O129 C126 1.160 . S
O129 Cd130 2.203 . S
Cd130 O129 2.203 . S
Cd130 O132 2.411 . S
Cd130 O133 2.333 . S
Cd130 O134 2.352 . S
Cd130 O138 2.277 . S
Cd130 O139 2.356 . S
C131 O136 1.209 . S
C131 O138 1.226 . S
O132 Cd128 2.273 . S
O132 Cd130 2.411 . S
O132 C135 1.320 . S
O133 Cd130 2.333 . S
O133 C135 1.214 . S
O134 Cd130 2.352 . S
O134 C137 1.258 . S
C135 O132 1.320 . S
C135 O133 1.214 . S
O136 Cd128 2.277 . S
O136 C131 1.209 . S
C137 O134 1.258 . S
C137 O139 1.282 . S
O138 Cd130 2.277 . S
O138 C131 1.226 . S
O139 Cd130 2.356 . S
O139 C137 1.282 . S
C140 O141 1.306 . S
C140 O143 1.160 . S
O141 C140 1.306 . S
O141 Cd142 2.228 . S
Cd142 O141 2.228 . S
Cd142 O146 2.273 1_556 S
Cd142 O150 2.277 1_556 S
O143 C140 1.160 . S
O143 Cd144 2.203 1_556 S
Cd144 O143 2.203 1_554 S
Cd144 O146 2.411 . S
Cd144 O147 2.333 . S
Cd144 O148 2.352 . S
Cd144 O152 2.277 . S
Cd144 O153 2.356 . S
C145 O150 1.209 . S
C145 O152 1.226 . S
O146 Cd142 2.273 1_554 S
O146 Cd144 2.411 . S
O146 C149 1.320 . S
O147 Cd144 2.333 . S
O147 C149 1.214 . S
O148 Cd144 2.352 . S
O148 C151 1.258 . S
C149 O146 1.320 . S
C149 O147 1.214 . S
O150 Cd142 2.277 1_554 S
O150 C145 1.209 . S
C151 O148 1.258 . S
C151 O153 1.282 . S
O152 Cd144 2.277 . S
O152 C145 1.226 . S
O153 Cd144 2.356 . S
O153 C151 1.282 . S
C154 O155 1.306 . S
C154 O157 1.160 . S
O155 C154 1.306 . S
O155 Cd156 2.228 . S
Cd156 O155 2.228 . S
Cd156 O160 2.273 . S
Cd156 O164 2.277 . S
O157 C154 1.160 . S
O157 Cd158 2.203 . S
Cd158 O157 2.203 . S
Cd158 O160 2.411 . S
Cd158 O161 2.333 . S
Cd158 O162 2.352 . S
Cd158 O166 2.277 . S
Cd158 O167 2.356 1_556 S
C159 O164 1.209 . S
C159 O166 1.226 . S
O160 Cd156 2.273 . S
O160 Cd158 2.411 . S
O160 C163 1.320 . S
O161 Cd158 2.333 . S
O161 C163 1.214 . S
O162 Cd158 2.352 . S
O162 C165 1.258 . S
C163 O160 1.320 . S
C163 O161 1.214 . S
O164 Cd156 2.277 . S
O164 C159 1.209 . S
C165 O162 1.258 . S
C165 O167 1.282 1_556 S
O166 Cd158 2.277 . S
O166 C159 1.226 . S
O167 Cd158 2.356 1_554 S
O167 C165 1.282 1_554 S
C168 O169 1.306 . S
C168 O171 1.160 . S
O169 C168 1.306 . S
O169 Cd170 2.228 . S
Cd170 O169 2.228 . S
Cd170 O174 2.273 1_554 S
Cd170 O178 2.277 1_554 S
O171 C168 1.160 . S
O171 Cd172 2.203 1_554 S
Cd172 O171 2.203 1_556 S
Cd172 O174 2.411 . S
Cd172 O175 2.333 . S
Cd172 O176 2.352 . S
Cd172 O180 2.277 . S
Cd172 O181 2.356 . S
C173 O178 1.209 . S
C173 O180 1.226 . S
O174 Cd170 2.273 1_556 S
O174 Cd172 2.411 . S
O174 C177 1.320 . S
O175 Cd172 2.333 . S
O175 C177 1.214 . S
O176 Cd172 2.352 . S
O176 C179 1.258 . S
C177 O174 1.320 . S
C177 O175 1.214 . S
O178 Cd170 2.277 1_556 S
O178 C173 1.209 . S
C179 O176 1.258 . S
C179 O181 1.282 . S
O180 Cd172 2.277 . S
O180 C173 1.226 . S
O181 Cd172 2.356 . S
O181 C179 1.282 . S
C182 O183 1.306 . S
C182 O185 1.160 . S
O183 C182 1.306 . S
O183 Cd184 2.228 . S
Cd184 O183 2.228 . S
Cd184 O188 2.273 . S
Cd184 O192 2.277 . S
O185 C182 1.160 . S
O185 Cd186 2.203 . S
Cd186 O185 2.203 . S
Cd186 O188 2.411 . S
Cd186 O189 2.333 . S
Cd186 O190 2.352 . S
Cd186 O194 2.277 . S
Cd186 O195 2.356 . S
C187 O192 1.209 . S
C187 O194 1.226 . S
O188 Cd184 2.273 . S
O188 Cd186 2.411 . S
O188 C191 1.320 . S
O189 Cd186 2.333 . S
O189 C191 1.214 . S
O190 Cd186 2.352 . S
O190 C193 1.258 . S
C191 O188 1.320 . S
C191 O189 1.214 . S
O192 Cd184 2.277 . S
O192 C187 1.209 . S
C193 O190 1.258 . S
C193 O195 1.282 . S
O194 Cd186 2.277 . S
O194 C187 1.226 . S
O195 Cd186 2.356 . S
O195 C193 1.282 . S
C196 O197 1.306 . S
C196 O199 1.160 . S
O197 C196 1.306 . S
O197 Cd198 2.228 . S
Cd198 O197 2.228 . S
Cd198 O202 2.273 . S
Cd198 O206 2.277 . S
O199 C196 1.160 . S
O199 Cd200 2.203 . S
Cd200 O199 2.203 . S
Cd200 O202 2.411 . S
Cd200 O203 2.333 . S
Cd200 O204 2.352 . S
Cd200 O208 2.277 . S
Cd200 O209 2.356 . S
C201 O206 1.209 . S
C201 O208 1.226 . S
O202 Cd198 2.273 . S
O202 Cd200 2.411 . S
O202 C205 1.320 . S
O203 Cd200 2.333 . S
O203 C205 1.214 . S
O204 Cd200 2.352 . S
O204 C207 1.258 . S
C205 O202 1.320 . S
C205 O203 1.214 . S
O206 Cd198 2.277 . S
O206 C201 1.209 . S
C207 O204 1.258 . S
C207 O209 1.282 . S
O208 Cd200 2.277 . S
O208 C201 1.226 . S
O209 Cd200 2.356 . S
O209 C207 1.282 . S
C210 O211 1.306 . S
C210 O213 1.160 . S
O211 C210 1.306 . S
O211 Cd212 2.228 . S
Cd212 O211 2.228 . S
Cd212 O216 2.273 . S
Cd212 O220 2.277 . S
O213 C210 1.160 . S
O213 Cd214 2.203 . S
Cd214 O213 2.203 . S
Cd214 O216 2.411 . S
Cd214 O217 2.333 . S
Cd214 O218 2.352 . S
Cd214 O222 2.277 . S
Cd214 O223 2.356 1_554 S
C215 O220 1.209 . S
C215 O222 1.226 . S
O216 Cd212 2.273 . S
O216 Cd214 2.411 . S
O216 C219 1.320 . S
O217 Cd214 2.333 . S
O217 C219 1.214 . S
O218 Cd214 2.352 . S
O218 C221 1.258 . S
C219 O216 1.320 . S
C219 O217 1.214 . S
O220 Cd212 2.277 . S
O220 C215 1.209 . S
C221 O218 1.258 . S
C221 O223 1.282 1_554 S
O222 Cd214 2.277 . S
O222 C215 1.226 . S
O223 Cd214 2.356 1_556 S
O223 C221 1.282 1_556 S
C224 O225 1.306 . S
C224 O227 1.160 . S
O225 C224 1.306 . S
O225 Cd226 2.228 . S
Cd226 O225 2.228 . S
Cd226 O230 2.273 1_554 S
Cd226 O234 2.277 1_554 S
O227 C224 1.160 . S
O227 Cd228 2.203 1_554 S
Cd228 O227 2.203 1_556 S
Cd228 O230 2.411 . S
Cd228 O231 2.333 . S
Cd228 O232 2.352 . S
Cd228 O236 2.277 . S
Cd228 O237 2.356 . S
C229 O234 1.209 . S
C229 O236 1.226 . S
O230 Cd226 2.273 1_556 S
O230 Cd228 2.411 . S
O230 C233 1.320 . S
O231 Cd228 2.333 . S
O231 C233 1.214 . S
O232 Cd228 2.352 . S
O232 C235 1.258 . S
C233 O230 1.320 . S
C233 O231 1.214 . S
O234 Cd226 2.277 1_556 S
O234 C229 1.209 . S
C235 O232 1.258 . S
C235 O237 1.282 . S
O236 Cd228 2.277 . S
O236 C229 1.226 . S
O237 Cd228 2.356 . S
O237 C235 1.282 . S
C238 O239 1.306 . S
C238 O241 1.160 . S
O239 C238 1.306 . S
O239 Cd240 2.228 . S
Cd240 O239 2.228 . S
Cd240 O244 2.273 . S
Cd240 O248 2.277 . S
O241 C238 1.160 . S
O241 Cd242 2.203 . S
Cd242 O241 2.203 . S
Cd242 O244 2.411 . S
Cd242 O245 2.333 . S
Cd242 O246 2.352 . S
Cd242 O250 2.277 . S
Cd242 O251 2.356 1_554 S
C243 O248 1.209 . S
C243 O250 1.226 . S
O244 Cd240 2.273 . S
O244 Cd242 2.411 . S
O244 C247 1.320 . S
O245 Cd242 2.333 . S
O245 C247 1.214 . S
O246 Cd242 2.352 . S
O246 C249 1.258 . S
C247 O244 1.320 . S
C247 O245 1.214 . S
O248 Cd240 2.277 . S
O248 C243 1.209 . S
C249 O246 1.258 . S
C249 O251 1.282 1_554 S
O250 Cd242 2.277 . S
O250 C243 1.226 . S
O251 Cd242 2.356 1_556 S
O251 C249 1.282 1_556 S
C252 O253 1.306 . S
C252 O255 1.160 . S
O253 C252 1.306 . S
O253 Cd254 2.228 . S
Cd254 O253 2.228 . S
Cd254 O258 2.273 . S
Cd254 O262 2.277 . S
O255 C252 1.160 . S
O255 Cd256 2.203 . S
Cd256 O255 2.203 . S
Cd256 O258 2.411 . S
Cd256 O259 2.333 . S
Cd256 O260 2.352 . S
Cd256 O264 2.277 . S
Cd256 O265 2.356 . S
C257 O262 1.209 . S
C257 O264 1.226 . S
O258 Cd254 2.273 . S
O258 Cd256 2.411 . S
O258 C261 1.320 . S
O259 Cd256 2.333 . S
O259 C261 1.214 . S
O260 Cd256 2.352 . S
O260 C263 1.258 . S
C261 O258 1.320 . S
C261 O259 1.214 . S
O262 Cd254 2.277 . S
O262 C257 1.209 . S
C263 O260 1.258 . S
C263 O265 1.282 . S
O264 Cd256 2.277 . S
O264 C257 1.226 . S
O265 Cd256 2.356 . S
O265 C263 1.282 . S
C266 O267 1.306 . S
C266 O269 1.160 . S
O267 C266 1.306 . S
O267 Cd268 2.228 . S
Cd268 O267 2.228 . S
Cd268 O272 2.273 . S
Cd268 O276 2.277 . S
O269 C266 1.160 . S
O269 Cd270 2.203 . S
Cd270 O269 2.203 . S
Cd270 O272 2.411 . S
Cd270 O273 2.333 . S
Cd270 O274 2.352 . S
Cd270 O278 2.277 . S
Cd270 O279 2.356 . S
C271 O276 1.209 . S
C271 O278 1.226 . S
O272 Cd268 2.273 . S
O272 Cd270 2.411 . S
O272 C275 1.320 . S
O273 Cd270 2.333 . S
O273 C275 1.214 . S
O274 Cd270 2.352 . S
O274 C277 1.258 . S
C275 O272 1.320 . S
C275 O273 1.214 . S
O276 Cd268 2.277 . S
O276 C271 1.209 . S
C277 O274 1.258 . S
C277 O279 1.282 . S
O278 Cd270 2.277 . S
O278 C271 1.226 . S
O279 Cd270 2.356 . S
O279 C277 1.282 . S
C280 O281 1.306 . S
C280 O283 1.160 . S
O281 C280 1.306 . S
O281 Cd282 2.228 . S
Cd282 O281 2.228 . S
Cd282 O286 2.273 . S
Cd282 O290 2.277 . S
O283 C280 1.160 . S
O283 Cd284 2.203 . S
Cd284 O283 2.203 . S
Cd284 O286 2.411 . S
Cd284 O287 2.333 . S
Cd284 O288 2.352 . S
Cd284 O292 2.277 . S
Cd284 O293 2.356 . S
C285 O290 1.209 . S
C285 O292 1.226 . S
O286 Cd282 2.273 . S
O286 Cd284 2.411 . S
O286 C289 1.320 . S
O287 Cd284 2.333 . S
O287 C289 1.214 . S
O288 Cd284 2.352 . S
O288 C291 1.258 . S
C289 O286 1.320 . S
C289 O287 1.214 . S
O290 Cd282 2.277 . S
O290 C285 1.209 . S
C291 O288 1.258 . S
C291 O293 1.282 . S
O292 Cd284 2.277 . S
O292 C285 1.226 . S
O293 Cd284 2.356 . S
O293 C291 1.282 . S
C294 O295 1.306 . S
C294 O297 1.160 . S
O295 C294 1.306 . S
O295 Cd296 2.228 . S
Cd296 O295 2.228 . S
Cd296 O300 2.273 . S
Cd296 O304 2.277 . S
O297 C294 1.160 . S
O297 Cd298 2.203 . S
Cd298 O297 2.203 . S
Cd298 O300 2.411 . S
Cd298 O301 2.333 . S
Cd298 O302 2.352 . S
Cd298 O306 2.277 . S
Cd298 O307 2.356 1_556 S
C299 O304 1.209 . S
C299 O306 1.226 . S
O300 Cd296 2.273 . S
O300 Cd298 2.411 . S
O300 C303 1.320 . S
O301 Cd298 2.333 . S
O301 C303 1.214 . S
O302 Cd298 2.352 . S
O302 C305 1.258 . S
C303 O300 1.320 . S
C303 O301 1.214 . S
O304 Cd296 2.277 . S
O304 C299 1.209 . S
C305 O302 1.258 . S
C305 O307 1.282 1_556 S
O306 Cd298 2.277 . S
O306 C299 1.226 . S
O307 Cd298 2.356 1_554 S
O307 C305 1.282 1_554 S
C308 O309 1.306 . S
C308 O311 1.160 . S
O309 C308 1.306 . S
O309 Cd310 2.228 . S
Cd310 O309 2.228 . S
Cd310 O314 2.273 1_556 S
Cd310 O318 2.277 1_556 S
O311 C308 1.160 . S
O311 Cd312 2.203 1_556 S
Cd312 O311 2.203 1_554 S
Cd312 O314 2.411 . S
Cd312 O315 2.333 . S
Cd312 O316 2.352 . S
Cd312 O320 2.277 . S
Cd312 O321 2.356 . S
C313 O318 1.209 . S
C313 O320 1.226 . S
O314 Cd310 2.273 1_554 S
O314 Cd312 2.411 . S
O314 C317 1.320 . S
O315 Cd312 2.333 . S
O315 C317 1.214 . S
O316 Cd312 2.352 . S
O316 C319 1.258 . S
C317 O314 1.320 . S
C317 O315 1.214 . S
O318 Cd310 2.277 1_554 S
O318 C313 1.209 . S
C319 O316 1.258 . S
C319 O321 1.282 . S
O320 Cd312 2.277 . S
O320 C313 1.226 . S
O321 Cd312 2.356 . S
O321 C319 1.282 . S
C322 O323 1.306 . S
C322 O325 1.160 . S
O323 C322 1.306 . S
O323 Cd324 2.228 . S
Cd324 O323 2.228 . S
Cd324 O328 2.273 . S
Cd324 O332 2.277 . S
O325 C322 1.160 . S
O325 Cd326 2.203 . S
Cd326 O325 2.203 . S
Cd326 O328 2.411 . S
Cd326 O329 2.333 . S
Cd326 O330 2.352 . S
Cd326 O334 2.277 . S
Cd326 O335 2.356 . S
C327 O332 1.209 . S
C327 O334 1.226 . S
O328 Cd324 2.273 . S
O328 Cd326 2.411 . S
O328 C331 1.320 . S
O329 Cd326 2.333 . S
O329 C331 1.214 . S
O330 Cd326 2.352 . S
O330 C333 1.258 . S
C331 O328 1.320 . S
C331 O329 1.214 . S
O332 Cd324 2.277 . S
O332 C327 1.209 . S
C333 O330 1.258 . S
C333 O335 1.282 . S
O334 Cd326 2.277 . S
O334 C327 1.226 . S
O335 Cd326 2.356 . S
O335 C333 1.282 . S
C336 O337 1.306 . S
C336 O339 1.160 . S
O337 C336 1.306 . S
O337 Cd338 2.228 . S
Cd338 O337 2.228 . S
Cd338 O342 2.273 1_556 S
Cd338 O346 2.277 1_556 S
O339 C336 1.160 . S
O339 Cd340 2.203 1_556 S
Cd340 O339 2.203 1_554 S
Cd340 O342 2.411 . S
Cd340 O343 2.333 . S
Cd340 O344 2.352 . S
Cd340 O348 2.277 . S
Cd340 O349 2.356 . S
C341 O346 1.209 . S
C341 O348 1.226 . S
O342 Cd338 2.273 1_554 S
O342 Cd340 2.411 . S
O342 C345 1.320 . S
O343 Cd340 2.333 . S
O343 C345 1.214 . S
O344 Cd340 2.352 . S
O344 C347 1.258 . S
C345 O342 1.320 . S
C345 O343 1.214 . S
O346 Cd338 2.277 1_554 S
O346 C341 1.209 . S
C347 O344 1.258 . S
C347 O349 1.282 . S
O348 Cd340 2.277 . S
O348 C341 1.226 . S
O349 Cd340 2.356 . S
O349 C347 1.282 . S
C350 O351 1.306 . S
C350 O353 1.160 . S
O351 C350 1.306 . S
O351 Cd352 2.228 . S
Cd352 O351 2.228 . S
Cd352 O356 2.273 . S
Cd352 O360 2.277 . S
O353 C350 1.160 . S
O353 Cd354 2.203 . S
Cd354 O353 2.203 . S
Cd354 O356 2.411 . S
Cd354 O357 2.333 . S
Cd354 O358 2.352 . S
Cd354 O362 2.277 . S
Cd354 O363 2.356 1_556 S
C355 O360 1.209 . S
C355 O362 1.226 . S
O356 Cd352 2.273 . S
O356 Cd354 2.411 . S
O356 C359 1.320 . S
O357 Cd354 2.333 . S
O357 C359 1.214 . S
O358 Cd354 2.352 . S
O358 C361 1.258 . S
C359 O356 1.320 . S
C359 O357 1.214 . S
O360 Cd352 2.277 . S
O360 C355 1.209 . S
C361 O358 1.258 . S
C361 O363 1.282 1_556 S
O362 Cd354 2.277 . S
O362 C355 1.226 . S
O363 Cd354 2.356 1_554 S
O363 C361 1.282 1_554 S
C364 O365 1.306 . S
C364 O367 1.160 . S
O365 C364 1.306 . S
O365 Cd366 2.228 . S
Cd366 O365 2.228 . S
Cd366 O370 2.273 . S
Cd366 O374 2.277 . S
O367 C364 1.160 . S
O367 Cd368 2.203 . S
Cd368 O367 2.203 . S
Cd368 O370 2.411 . S
Cd368 O371 2.333 . S
Cd368 O372 2.352 . S
Cd368 O376 2.277 . S
Cd368 O377 2.356 . S
C369 O374 1.209 . S
C369 O376 1.226 . S
O370 Cd366 2.273 . S
O370 Cd368 2.411 . S
O370 C373 1.320 . S
O371 Cd368 2.333 . S
O371 C373 1.214 . S
O372 Cd368 2.352 . S
O372 C375 1.258 . S
C373 O370 1.320 . S
C373 O371 1.214 . S
O374 Cd366 2.277 . S
O374 C369 1.209 . S
C375 O372 1.258 . S
C375 O377 1.282 . S
O376 Cd368 2.277 . S
O376 C369 1.226 . S
O377 Cd368 2.356 . S
O377 C375 1.282 . S
C378 O379 1.306 . S
C378 O381 1.160 . S
O379 C378 1.306 . S
O379 Cd380 2.228 . S
Cd380 O379 2.228 . S
Cd380 O384 2.273 . S
Cd380 O388 2.277 . S
O381 C378 1.160 . S
O381 Cd382 2.203 . S
Cd382 O381 2.203 . S
Cd382 O384 2.411 . S
Cd382 O385 2.333 . S
Cd382 O386 2.352 . S
Cd382 O390 2.277 . S
Cd382 O391 2.356 . S
C383 O388 1.209 . S
C383 O390 1.226 . S
O384 Cd380 2.273 . S
O384 Cd382 2.411 . S
O384 C387 1.320 . S
O385 Cd382 2.333 . S
O385 C387 1.214 . S
O386 Cd382 2.352 . S
O386 C389 1.258 . S
C387 O384 1.320 . S
C387 O385 1.214 . S
O388 Cd380 2.277 . S
O388 C383 1.209 . S
C389 O386 1.258 . S
C389 O391 1.282 . S
O390 Cd382 2.277 . S
O390 C383 1.226 . S
O391 Cd382 2.356 . S
O391 C389 1.282 . S
C392 O393 1.306 . S
C392 O395 1.160 . S
O393 C392 1.306 . S
O393 Cd394 2.228 . S
Cd394 O393 2.228 . S
Cd394 O398 2.273 . S
Cd394 O402 2.277 . S
O395 C392 1.160 . S
O395 Cd396 2.203 . S
Cd396 O395 2.203 . S
Cd396 O398 2.411 . S
Cd396 O399 2.333 . S
Cd396 O400 2.352 . S
Cd396 O404 2.277 . S
Cd396 O405 2.356 . S
C397 O402 1.209 . S
C397 O404 1.226 . S
O398 Cd394 2.273 . S
O398 Cd396 2.411 . S
O398 C401 1.320 . S
O399 Cd396 2.333 . S
O399 C401 1.214 . S
O400 Cd396 2.352 . S
O400 C403 1.258 . S
C401 O398 1.320 . S
C401 O399 1.214 . S
O402 Cd394 2.277 . S
O402 C397 1.209 . S
C403 O400 1.258 . S
C403 O405 1.282 . S
O404 Cd396 2.277 . S
O404 C397 1.226 . S
O405 Cd396 2.356 . S
O405 C403 1.282 . S
C406 O407 1.306 . S
C406 O409 1.160 . S
O407 C406 1.306 . S
O407 Cd408 2.228 . S
Cd408 O407 2.228 . S
Cd408 O412 2.273 . S
Cd408 O416 2.277 . S
O409 C406 1.160 . S
O409 Cd410 2.203 . S
Cd410 O409 2.203 . S
Cd410 O412 2.411 . S
Cd410 O413 2.333 . S
Cd410 O414 2.352 . S
Cd410 O418 2.277 . S
Cd410 O419 2.356 1_554 S
C411 O416 1.209 . S
C411 O418 1.226 . S
O412 Cd408 2.273 . S
O412 Cd410 2.411 . S
O412 C415 1.320 . S
O413 Cd410 2.333 . S
O413 C415 1.214 . S
O414 Cd410 2.352 . S
O414 C417 1.258 . S
C415 O412 1.320 . S
C415 O413 1.214 . S
O416 Cd408 2.277 . S
O416 C411 1.209 . S
C417 O414 1.258 . S
C417 O419 1.282 1_554 S
O418 Cd410 2.277 . S
O418 C411 1.226 . S
O419 Cd410 2.356 1_556 S
O419 C417 1.282 1_556 S
C420 O421 1.306 . S
C420 O423 1.160 . S
O421 C420 1.306 . S
O421 Cd422 2.228 . S
Cd422 O421 2.228 . S
Cd422 O426 2.273 1_554 S
Cd422 O430 2.277 1_554 S
O423 C420 1.160 . S
O423 Cd424 2.203 1_554 S
Cd424 O423 2.203 1_556 S
Cd424 O426 2.411 . S
Cd424 O427 2.333 . S
Cd424 O428 2.352 . S
Cd424 O432 2.277 . S
Cd424 O433 2.356 . S
C425 O430 1.209 . S
C425 O432 1.226 . S
O426 Cd422 2.273 1_556 S
O426 Cd424 2.411 . S
O426 C429 1.320 . S
O427 Cd424 2.333 . S
O427 C429 1.214 . S
O428 Cd424 2.352 . S
O428 C431 1.258 . S
C429 O426 1.320 . S
C429 O427 1.214 . S
O430 Cd422 2.277 1_556 S
O430 C425 1.209 . S
C431 O428 1.258 . S
C431 O433 1.282 . S
O432 Cd424 2.277 . S
O432 C425 1.226 . S
O433 Cd424 2.356 . S
O433 C431 1.282 . S
C434 O435 1.306 . S
C434 O437 1.160 . S
O435 C434 1.306 . S
O435 Cd436 2.228 . S
Cd436 O435 2.228 . S
Cd436 O440 2.273 . S
Cd436 O444 2.277 . S
O437 C434 1.160 . S
O437 Cd438 2.203 . S
Cd438 O437 2.203 . S
Cd438 O440 2.411 . S
Cd438 O441 2.333 . S
Cd438 O442 2.352 . S
Cd438 O446 2.277 . S
Cd438 O447 2.356 . S
C439 O444 1.209 . S
C439 O446 1.226 . S
O440 Cd436 2.273 . S
O440 Cd438 2.411 . S
O440 C443 1.320 . S
O441 Cd438 2.333 . S
O441 C443 1.214 . S
O442 Cd438 2.352 . S
O442 C445 1.258 . S
C443 O440 1.320 . S
C443 O441 1.214 . S
O444 Cd436 2.277 . S
O444 C439 1.209 . S
C445 O442 1.258 . S
C445 O447 1.282 . S
O446 Cd438 2.277 . S
O446 C439 1.226 . S
O447 Cd438 2.356 . S
O447 C445 1.282 . S
C11 C67 1.583 1_545 S
C25 C81 1.583 . S
C95 C39 1.583 1_545 S
C109 C53 1.583 1_556 S
C123 C179 1.583 1_565 S
C137 C193 1.583 . S
C207 C151 1.583 1_565 S
C165 C221 1.583 1_556 S
C291 C235 1.583 . S
C305 C249 1.583 1_556 S
C263 C319 1.583 . S
C333 C277 1.583 . S
C347 C403 1.583 . S
C417 C361 1.583 1_554 S
C431 C375 1.583 . S
C389 C445 1.583 . S
C5 C387 1.672 . S
C121 C19 1.672 1_655 S
C33 C359 1.672 . S
C47 C149 1.672 . S
C415 C61 1.672 . S
C205 C75 1.672 . S
C89 C443 1.672 . S
C103 C177 1.672 1_455 S
C275 C117 1.672 . S
C131 C9 1.672 1_655 S
C247 C145 1.672 . S
C159 C37 1.672 . S
C303 C173 1.672 . S
C187 C93 1.672 . S
C331 C201 1.672 . S
C215 C65 1.672 1_655 S
C163 C229 1.672 . S
C345 C243 1.672 . S
C135 C257 1.672 . S
C271 C373 1.672 1_655 S
C191 C285 1.672 . S
C429 C299 1.672 1_455 S
C219 C313 1.672 . S
C327 C401 1.672 . S
C341 C51 1.672 . S
C355 C233 1.672 . S
C369 C23 1.672 . S
C383 C261 1.672 1_455 S
C397 C79 1.672 . S
C317 C411 1.672 1_655 S
C107 C425 1.672 . S
C439 C289 1.672 . S
C0 C98 1.186 . S
C14 C56 1.186 . S
C28 C70 1.186 . S
C84 C42 1.186 . S
C210 C112 1.186 . S
C168 C126 1.186 . S
C182 C140 1.186 . S
C196 C154 1.186 . S
C224 C322 1.186 . S
C280 C238 1.186 . S
C294 C252 1.186 . S
C308 C266 1.186 . S
C434 C336 1.186 . S
C350 C392 1.186 . S
C364 C406 1.186 . S
C378 C420 1.186 . S
