# Generated by pormake.
# Topology afi, (4)-cn, num edge types: 1
# Building blocks:
#     Node 0, Type 0, BuildingBlock: AZAVOO_clean_sbu_0, # of connection points: 4
#     Node 1, Type 0, BuildingBlock: AZAVOO_clean_sbu_0, # of connection points: 4
#     Node 2, Type 0, BuildingBlock: AZAVOO_clean_sbu_0, # of connection points: 4
#     Node 3, Type 0, BuildingBlock: AZAVOO_clean_sbu_0, # of connection points: 4
#     Node 4, Type 0, BuildingBlock: AZAVOO_clean_sbu_0, # of connection points: 4
#     Node 5, Type 0, BuildingBlock: AZAVOO_clean_sbu_0, # of connection points: 4
#     Node 6, Type 0, BuildingBlock: AZAVOO_clean_sbu_0, # of connection points: 4
#     Node 7, Type 0, BuildingBlock: AZAVOO_clean_sbu_0, # of connection points: 4
#     Node 8, Type 0, BuildingBlock: AZAVOO_clean_sbu_0, # of connection points: 4
#     Node 9, Type 0, BuildingBlock: AZAVOO_clean_sbu_0, # of connection points: 4
#     Node 10, Type 0, BuildingBlock: AZAVOO_clean_sbu_0, # of connection points: 4
#     Node 11, Type 0, BuildingBlock: AZAVOO_clean_sbu_0, # of connection points: 4
#     Node 12, Type 0, BuildingBlock: AZAVOO_clean_sbu_0, # of connection points: 4
#     Node 13, Type 0, BuildingBlock: AZAVOO_clean_sbu_0, # of connection points: 4
#     Node 14, Type 0, BuildingBlock: AZAVOO_clean_sbu_0, # of connection points: 4
#     Node 15, Type 0, BuildingBlock: AZAVOO_clean_sbu_0, # of connection points: 4
#     Node 16, Type 0, BuildingBlock: AZAVOO_clean_sbu_0, # of connection points: 4
#     Node 17, Type 0, BuildingBlock: AZAVOO_clean_sbu_0, # of connection points: 4
#     Node 18, Type 0, BuildingBlock: AZAVOO_clean_sbu_0, # of connection points: 4
#     Node 19, Type 0, BuildingBlock: AZAVOO_clean_sbu_0, # of connection points: 4
#     Node 20, Type 0, BuildingBlock: AZAVOO_clean_sbu_0, # of connection points: 4
#     Node 21, Type 0, BuildingBlock: AZAVOO_clean_sbu_0, # of connection points: 4
#     Node 22, Type 0, BuildingBlock: AZAVOO_clean_sbu_0, # of connection points: 4
#     Node 23, Type 0, BuildingBlock: AZAVOO_clean_sbu_0, # of connection points: 4
#     Edge 24, Type (0, 0), BuildingBlock: XUDNAN_clean_linker_2, # of connection points: 2
#     Edge 25, Type (0, 0), BuildingBlock: XUDNAN_clean_linker_2, # of connection points: 2
#     Edge 26, Type (0, 0), BuildingBlock: XUDNAN_clean_linker_2, # of connection points: 2
#     Edge 27, Type (0, 0), BuildingBlock: XUDNAN_clean_linker_2, # of connection points: 2
#     Edge 28, Type (0, 0), BuildingBlock: XUDNAN_clean_linker_2, # of connection points: 2
#     Edge 29, Type (0, 0), BuildingBlock: XUDNAN_clean_linker_2, # of connection points: 2
#     Edge 30, Type (0, 0), BuildingBlock: XUDNAN_clean_linker_2, # of connection points: 2
#     Edge 31, Type (0, 0), BuildingBlock: XUDNAN_clean_linker_2, # of connection points: 2
#     Edge 32, Type (0, 0), BuildingBlock: XUDNAN_clean_linker_2, # of connection points: 2
#     Edge 33, Type (0, 0), BuildingBlock: XUDNAN_clean_linker_2, # of connection points: 2
#     Edge 34, Type (0, 0), BuildingBlock: XUDNAN_clean_linker_2, # of connection points: 2
#     Edge 35, Type (0, 0), BuildingBlock: XUDNAN_clean_linker_2, # of connection points: 2
#     Edge 36, Type (0, 0), BuildingBlock: XUDNAN_clean_linker_2, # of connection points: 2
#     Edge 37, Type (0, 0), BuildingBlock: XUDNAN_clean_linker_2, # of connection points: 2
#     Edge 38, Type (0, 0), BuildingBlock: XUDNAN_clean_linker_2, # of connection points: 2
#     Edge 39, Type (0, 0), BuildingBlock: XUDNAN_clean_linker_2, # of connection points: 2
#     Edge 40, Type (0, 0), BuildingBlock: XUDNAN_clean_linker_2, # of connection points: 2
#     Edge 41, Type (0, 0), BuildingBlock: XUDNAN_clean_linker_2, # of connection points: 2
#     Edge 42, Type (0, 0), BuildingBlock: XUDNAN_clean_linker_2, # of connection points: 2
#     Edge 43, Type (0, 0), BuildingBlock: XUDNAN_clean_linker_2, # of connection points: 2
#     Edge 44, Type (0, 0), BuildingBlock: XUDNAN_clean_linker_2, # of connection points: 2
#     Edge 45, Type (0, 0), BuildingBlock: XUDNAN_clean_linker_2, # of connection points: 2
#     Edge 46, Type (0, 0), BuildingBlock: XUDNAN_clean_linker_2, # of connection points: 2
#     Edge 47, Type (0, 0), BuildingBlock: XUDNAN_clean_linker_2, # of connection points: 2
#     Edge 48, Type (0, 0), BuildingBlock: XUDNAN_clean_linker_2, # of connection points: 2
#     Edge 49, Type (0, 0), BuildingBlock: XUDNAN_clean_linker_2, # of connection points: 2
#     Edge 50, Type (0, 0), BuildingBlock: XUDNAN_clean_linker_2, # of connection points: 2
#     Edge 51, Type (0, 0), BuildingBlock: XUDNAN_clean_linker_2, # of connection points: 2
#     Edge 52, Type (0, 0), BuildingBlock: XUDNAN_clean_linker_2, # of connection points: 2
#     Edge 53, Type (0, 0), BuildingBlock: XUDNAN_clean_linker_2, # of connection points: 2
#     Edge 54, Type (0, 0), BuildingBlock: XUDNAN_clean_linker_2, # of connection points: 2
#     Edge 55, Type (0, 0), BuildingBlock: XUDNAN_clean_linker_2, # of connection points: 2
#     Edge 56, Type (0, 0), BuildingBlock: XUDNAN_clean_linker_2, # of connection points: 2
#     Edge 57, Type (0, 0), BuildingBlock: XUDNAN_clean_linker_2, # of connection points: 2
#     Edge 58, Type (0, 0), BuildingBlock: XUDNAN_clean_linker_2, # of connection points: 2
#     Edge 59, Type (0, 0), BuildingBlock: XUDNAN_clean_linker_2, # of connection points: 2
#     Edge 60, Type (0, 0), BuildingBlock: XUDNAN_clean_linker_2, # of connection points: 2
#     Edge 61, Type (0, 0), BuildingBlock: XUDNAN_clean_linker_2, # of connection points: 2
#     Edge 62, Type (0, 0), BuildingBlock: XUDNAN_clean_linker_2, # of connection points: 2
#     Edge 63, Type (0, 0), BuildingBlock: XUDNAN_clean_linker_2, # of connection points: 2
#     Edge 64, Type (0, 0), BuildingBlock: XUDNAN_clean_linker_2, # of connection points: 2
#     Edge 65, Type (0, 0), BuildingBlock: XUDNAN_clean_linker_2, # of connection points: 2
#     Edge 66, Type (0, 0), BuildingBlock: XUDNAN_clean_linker_2, # of connection points: 2
#     Edge 67, Type (0, 0), BuildingBlock: XUDNAN_clean_linker_2, # of connection points: 2
#     Edge 68, Type (0, 0), BuildingBlock: XUDNAN_clean_linker_2, # of connection points: 2
#     Edge 69, Type (0, 0), BuildingBlock: XUDNAN_clean_linker_2, # of connection points: 2
#     Edge 70, Type (0, 0), BuildingBlock: XUDNAN_clean_linker_2, # of connection points: 2
#     Edge 71, Type (0, 0), BuildingBlock: XUDNAN_clean_linker_2, # of connection points: 2
# Relax obj value: 0.098
# Max RMSD: 0.124
# Mean RMSD: 0.123
data_MOF--net-afi--node1-AZAVOO_clean_sbu_0--edge1-XUDNAN_clean_linker_2
_symmetry_space_group_name_H-M    P1
_symmetry_Int_Tables_number       1
_symmetry_cell_setting            triclinic
loop_
_symmetry_equiv_pos_as_xyz
'x, y, z'
_cell_length_a     65.789866
_cell_length_b     65.901007
_cell_length_c     42.496119
_cell_angle_alpha  90.0969
_cell_angle_beta   89.860507
_cell_angle_gamma 119.95607
loop_
_atom_site_label
_atom_site_type_symbol
_atom_site_fract_x
_atom_site_fract_y
_atom_site_fract_z
_atom_type_partial_charge
Mg0 Mg 0.43678 0.11596 0.17051 0.0
O1 O 0.46672 0.1123 0.19349 0.0
O2 O 0.46235 0.07789 0.17793 0.0
Mg3 Mg 0.43195 0.0604 0.14338 0.0
C4 C 0.47311 0.09687 0.19371 0.0
C5 C 0.43668 0.15972 0.19485 0.0
O6 O 0.41462 0.14425 0.18915 0.0
O7 O 0.45732 0.12636 0.1231 0.0
O8 O 0.45223 0.0911 0.11033 0.0
O9 O 0.41097 0.09298 0.20861 0.0
O10 O 0.41662 0.07987 0.16379 0.0
C11 C 0.46042 0.1128 0.10443 0.0
C12 C 0.40602 0.07542 0.19028 0.0
O13 O 0.45219 0.15402 0.18894 0.0
Mg14 Mg 0.32876 0.46629 0.17452 0.0
O15 O 0.36849 0.48488 0.18176 0.0
O16 O 0.38284 0.4631 0.1624 0.0
Mg17 Mg 0.35203 0.43072 0.13987 0.0
C18 C 0.38563 0.48145 0.17648 0.0
C19 C 0.31897 0.50895 0.20202 0.0
O20 O 0.32869 0.53179 0.20484 0.0
O21 O 0.33474 0.47722 0.1222 0.0
O22 O 0.34827 0.45429 0.1041 0.0
O23 O 0.32503 0.44558 0.21897 0.0
O24 O 0.32719 0.43398 0.17105 0.0
C25 C 0.34236 0.4698 0.09974 0.0
C26 C 0.32656 0.4306 0.20078 0.0
O27 O 0.33101 0.50102 0.18878 0.0
Mg28 Mg 0.88055 0.31676 0.1773 0.0
O29 O 0.88544 0.34905 0.20445 0.0
O30 O 0.92094 0.37954 0.19448 0.0
Mg31 Mg 0.93876 0.3673 0.15901 0.0
C32 C 0.9011 0.37048 0.20837 0.0
C33 C 0.83641 0.29553 0.22128 0.0
O34 O 0.85308 0.30894 0.24108 0.0
O35 O 0.87387 0.33172 0.13167 0.0
O36 O 0.91049 0.36118 0.12347 0.0
O37 O 0.89999 0.309 0.21516 0.0
O38 O 0.9165 0.33093 0.17331 0.0
C39 C 0.88898 0.34916 0.11537 0.0
C40 C 0.91871 0.322 0.19886 0.0
O41 O 0.84166 0.29565 0.19237 0.0
Mg42 Mg 0.53668 0.86997 0.169 0.0
O43 O 0.50464 0.87214 0.18729 0.0
O44 O 0.50769 0.90472 0.16644 0.0
Mg45 Mg 0.54006 0.92298 0.13488 0.0
C46 C 0.49709 0.88652 0.18375 0.0
C47 C 0.5156 0.826 0.21553 0.0
O48 O 0.5152 0.84121 0.23519 0.0
O49 O 0.51901 0.85777 0.12054 0.0
O50 O 0.52433 0.89175 0.1014 0.0
O51 O 0.55975 0.89416 0.20809 0.0
O52 O 0.55543 0.90587 0.16145 0.0
C53 C 0.51738 0.86997 0.09826 0.0
C54 C 0.56465 0.91122 0.18885 0.0
O55 O 0.52211 0.83223 0.18724 0.0
Mg56 Mg 0.67779 0.55865 0.16436 0.0
O57 O 0.64278 0.52856 0.18402 0.0
O58 O 0.61419 0.53358 0.16388 0.0
Mg59 Mg 0.62976 0.5652 0.13099 0.0
C60 C 0.62108 0.52236 0.18118 0.0
C61 C 0.72049 0.55774 0.18969 0.0
O62 O 0.7279 0.57969 0.18225 0.0
O63 O 0.67026 0.5392 0.1169 0.0
O64 O 0.6426 0.54638 0.09845 0.0
O65 O 0.67915 0.5833 0.2026 0.0
O66 O 0.66275 0.57932 0.15621 0.0
C67 C 0.65615 0.53784 0.09517 0.0
C68 C 0.66756 0.58897 0.1834 0.0
O69 O 0.69907 0.54264 0.18451 0.0
Mg70 Mg 0.09395 0.65628 0.18371 0.0
O71 O 0.09451 0.62356 0.20223 0.0
O72 O 0.06417 0.59247 0.17971 0.0
Mg73 Mg 0.04426 0.60426 0.14736 0.0
C74 C 0.08199 0.60144 0.1979 0.0
C75 C 0.13758 0.68169 0.23145 0.0
O76 O 0.1232 0.66514 0.25074 0.0
O77 O 0.10853 0.65204 0.1364 0.0
O78 O 0.07623 0.62213 0.11512 0.0
O79 O 0.06739 0.65287 0.2211 0.0
O80 O 0.05824 0.63649 0.1744 0.0
C81 C 0.09774 0.63815 0.11349 0.0
C82 C 0.05132 0.63969 0.20114 0.0
O83 O 0.13098 0.68182 0.20333 0.0
Mg84 Mg 0.85824 0.52594 0.32045 0.0
O85 O 0.87021 0.49973 0.30889 0.0
O86 O 0.90837 0.51456 0.31863 0.0
Mg87 Mg 0.92084 0.55107 0.33964 0.0
C88 C 0.88863 0.49795 0.30912 0.0
C89 C 0.79992 0.48806 0.30592 0.0
O90 O 0.7838 0.46626 0.3117 0.0
O91 O 0.85877 0.5179 0.37261 0.0
O92 O 0.89719 0.53448 0.38277 0.0
O93 O 0.8705 0.54211 0.27248 0.0
O94 O 0.89264 0.55357 0.31496 0.0
C95 C 0.87576 0.52316 0.39158 0.0
C96 C 0.89091 0.55517 0.2851 0.0
O97 O 0.82046 0.49511 0.31663 0.0
Mg98 Mg 0.31379 0.88097 0.31183 0.0
O99 O 0.34582 0.88025 0.29002 0.0
O100 O 0.37673 0.91626 0.29605 0.0
Mg101 Mg 0.3661 0.93938 0.3231 0.0
C102 C 0.36759 0.8952 0.28615 0.0
C103 C 0.27808 0.83246 0.28153 0.0
O104 O 0.28092 0.847 0.25863 0.0
O105 O 0.32663 0.87879 0.36171 0.0
O106 O 0.35723 0.91519 0.36545 0.0
O107 O 0.3085 0.8962 0.26691 0.0
O108 O 0.33042 0.91745 0.30627 0.0
C109 C 0.34388 0.89492 0.37714 0.0
C110 C 0.32271 0.91667 0.27839 0.0
O111 O 0.29006 0.84067 0.30664 0.0
Mg112 Mg 0.43844 0.34311 0.30664 0.0
O113 O 0.47144 0.37431 0.28418 0.0
O114 O 0.46919 0.40651 0.29385 0.0
Mg115 Mg 0.43638 0.39726 0.32239 0.0
C116 C 0.47965 0.39642 0.2819 0.0
C117 C 0.4371 0.29814 0.28479 0.0
O118 O 0.41559 0.29432 0.28176 0.0
O119 O 0.45504 0.35432 0.3563 0.0
O120 O 0.45055 0.38555 0.36296 0.0
O121 O 0.41607 0.33894 0.26405 0.0
O122 O 0.41998 0.36154 0.30429 0.0
C123 C 0.45673 0.37125 0.37322 0.0
C124 C 0.411 0.35358 0.27718 0.0
O125 O 0.45256 0.31774 0.29625 0.0
Mg126 Mg 0.11305 0.43524 0.31162 0.0
O127 O 0.10841 0.46505 0.29049 0.0
O128 O 0.07215 0.45706 0.30354 0.0
Mg129 Mg 0.05369 0.42323 0.33216 0.0
C130 C 0.09193 0.47003 0.29021 0.0
C131 C 0.1593 0.43987 0.28978 0.0
O132 O 0.15425 0.45567 0.29973 0.0
O133 O 0.1176 0.45224 0.36012 0.0
O134 O 0.08022 0.44121 0.37197 0.0
O135 O 0.09723 0.41268 0.26922 0.0
O136 O 0.07688 0.41241 0.31063 0.0
C137 C 0.10195 0.45111 0.37915 0.0
C138 C 0.07706 0.40487 0.28279 0.0
O139 O 0.15341 0.45453 0.29965 0.0
Mg140 Mg 0.65929 0.10518 0.31313 0.0
O141 O 0.62608 0.10545 0.2955 0.0
O142 O 0.59578 0.06946 0.30408 0.0
Mg143 Mg 0.60817 0.04682 0.32845 0.0
C144 C 0.60418 0.09035 0.29387 0.0
C145 C 0.69143 0.15313 0.27985 0.0
O146 O 0.68552 0.1384 0.25622 0.0
O147 O 0.64945 0.10785 0.36456 0.0
O148 O 0.6195 0.07135 0.37086 0.0
O149 O 0.66232 0.09007 0.26689 0.0
O150 O 0.64264 0.06873 0.30766 0.0
C151 C 0.63341 0.09181 0.38163 0.0
C152 C 0.64879 0.06959 0.27882 0.0
O153 O 0.68243 0.14525 0.30683 0.0
Mg154 Mg 0.55206 0.66355 0.30398 0.0
O155 O 0.52682 0.62817 0.27898 0.0
O156 O 0.54208 0.60505 0.28855 0.0
Mg157 Mg 0.57375 0.62275 0.32057 0.0
C158 C 0.52676 0.60879 0.27565 0.0
C159 C 0.52905 0.68876 0.26896 0.0
O160 O 0.54136 0.68649 0.24627 0.0
O161 O 0.53549 0.64755 0.35194 0.0
O162 O 0.55056 0.62412 0.35963 0.0
O163 O 0.57576 0.67496 0.26174 0.0
O164 O 0.57934 0.6559 0.30187 0.0
C165 C 0.53797 0.63278 0.36868 0.0
C166 C 0.58588 0.66439 0.27411 0.0
O167 O 0.52792 0.6792 0.29547 0.0
Mg168 Mg 0.53719 0.86197 0.811 0.0
O169 O 0.50169 0.84829 0.78607 0.0
O170 O 0.48255 0.80925 0.78985 0.0
Mg171 Mg 0.50466 0.79776 0.81794 0.0
C172 C 0.48386 0.82825 0.78038 0.0
C173 C 0.54918 0.90895 0.77953 0.0
O174 O 0.54822 0.89605 0.75538 0.0
O175 O 0.51921 0.85541 0.8593 0.0
O176 O 0.50173 0.81632 0.86191 0.0
O177 O 0.55283 0.85669 0.76694 0.0
O178 O 0.53619 0.8301 0.80418 0.0
C179 C 0.50701 0.83609 0.87412 0.0
C180 C 0.54592 0.83572 0.77696 0.0
O181 O 0.54428 0.89971 0.80681 0.0
Mg182 Mg 0.67965 0.55085 0.81133 0.0
O183 O 0.65616 0.5174 0.78463 0.0
O184 O 0.66808 0.49124 0.78615 0.0
Mg185 Mg 0.70235 0.50974 0.81476 0.0
C186 C 0.65345 0.49745 0.77747 0.0
C187 C 0.64425 0.55914 0.77617 0.0
O188 O 0.65402 0.55236 0.75473 0.0
O189 O 0.66491 0.53107 0.85771 0.0
O190 O 0.68198 0.50895 0.85916 0.0
O191 O 0.7038 0.56777 0.77037 0.0
O192 O 0.70781 0.54506 0.80501 0.0
C193 C 0.6694 0.51656 0.87179 0.0
C194 C 0.7152 0.5577 0.78008 0.0
O195 O 0.65121 0.56124 0.80459 0.0
Mg196 Mg 0.14 0.66933 0.82738 0.0
O197 O 0.14627 0.64093 0.80717 0.0
O198 O 0.18197 0.64711 0.81852 0.0
Mg199 Mg 0.19932 0.68081 0.84802 0.0
C200 C 0.16191 0.63496 0.8057 0.0
C201 C 0.09891 0.64238 0.78266 0.0
O202 O 0.11787 0.64964 0.76536 0.0
O203 O 0.13488 0.65281 0.8767 0.0
O204 O 0.17217 0.66293 0.88696 0.0
O205 O 0.15795 0.69369 0.78629 0.0
O206 O 0.17594 0.69265 0.82931 0.0
C207 C 0.15068 0.65373 0.89527 0.0
C208 C 0.17716 0.70176 0.80229 0.0
O209 O 0.10134 0.64735 0.81191 0.0
Mg210 Mg 0.45421 0.12837 0.80995 0.0
O211 O 0.48992 0.1351 0.79386 0.0
O212 O 0.51768 0.17179 0.80457 0.0
Mg213 Mg 0.49876 0.1889 0.8295 0.0
C214 C 0.51125 0.1515 0.79326 0.0
C215 C 0.42124 0.08272 0.77971 0.0
O216 O 0.41289 0.09695 0.77564 0.0
O217 O 0.46412 0.12567 0.86084 0.0
O218 O 0.48892 0.16365 0.87149 0.0
O219 O 0.44998 0.14263 0.76452 0.0
O220 O 0.46535 0.16423 0.80706 0.0
C221 C 0.47721 0.14217 0.87983 0.0
C222 C 0.45992 0.16299 0.77781 0.0
O223 O 0.43896 0.08938 0.79756 0.0
Mg224 Mg 0.33148 0.45639 0.80714 0.0
O225 O 0.35209 0.49344 0.7853 0.0
O226 O 0.32997 0.51008 0.79232 0.0
Mg227 Mg 0.29671 0.48542 0.81934 0.0
C228 C 0.34848 0.51067 0.78191 0.0
C229 C 0.36183 0.43372 0.81703 0.0
O230 O 0.34572 0.42435 0.8391 0.0
O231 O 0.34212 0.47208 0.85693 0.0
O232 O 0.31926 0.48818 0.86181 0.0
O233 O 0.31143 0.44242 0.76236 0.0
O234 O 0.2998 0.45598 0.80183 0.0
C235 C 0.33443 0.4834 0.87286 0.0
C236 C 0.29641 0.44772 0.77375 0.0
O237 O 0.36249 0.45001 0.8003 0.0
Mg238 Mg 0.86826 0.32475 0.82285 0.0
O239 O 0.8632 0.35404 0.80333 0.0
O240 O 0.82807 0.34831 0.81781 0.0
Mg241 Mg 0.80916 0.31325 0.84439 0.0
C242 C 0.84787 0.36047 0.80415 0.0
C243 C 0.91618 0.35041 0.78444 0.0
O244 O 0.90186 0.34128 0.76045 0.0
O245 O 0.87249 0.34057 0.87228 0.0
O246 O 0.83512 0.32915 0.88506 0.0
O247 O 0.85069 0.30111 0.78059 0.0
O248 O 0.83245 0.3021 0.82345 0.0
C249 C 0.85687 0.33868 0.89199 0.0
C250 C 0.83128 0.29324 0.79624 0.0
O251 O 0.90774 0.34671 0.8122 0.0
Mg252 Mg 0.12065 0.44374 0.66523 0.0
O253 O 0.13208 0.47836 0.69049 0.0
O254 O 0.16906 0.50489 0.67889 0.0
Mg255 Mg 0.18158 0.48708 0.64364 0.0
C256 C 0.14985 0.4988 0.69337 0.0
C257 C 0.08084 0.43136 0.71269 0.0
O258 O 0.0999 0.44004 0.72999 0.0
O259 O 0.11633 0.45974 0.61921 0.0
O260 O 0.15426 0.4845 0.60849 0.0
O261 O 0.13749 0.43231 0.70246 0.0
O262 O 0.15534 0.45197 0.6596 0.0
C263 C 0.13252 0.47511 0.60154 0.0
C264 C 0.15619 0.4422 0.68518 0.0
O265 O 0.08288 0.43044 0.68298 0.0
Mg266 Mg 0.67135 0.11527 0.67706 0.0
O267 O 0.64522 0.12628 0.69231 0.0
O268 O 0.65654 0.16309 0.67881 0.0
Mg269 Mg 0.69128 0.17565 0.65175 0.0
C270 C 0.64193 0.14374 0.69181 0.0
C271 C 0.63619 0.07474 0.71897 0.0
O272 O 0.64324 0.0933 0.73693 0.0
O273 O 0.6575 0.11119 0.62703 0.0
O274 O 0.67199 0.1486 0.6123 0.0
O275 O 0.69143 0.13031 0.72101 0.0
O276 O 0.69825 0.15041 0.67676 0.0
C277 C 0.66062 0.12662 0.60643 0.0
C278 C 0.70262 0.15005 0.70619 0.0
O279 O 0.6444 0.07746 0.69114 0.0
Mg280 Mg 0.53933 0.66076 0.66184 0.0
O281 O 0.50126 0.6409 0.67964 0.0
O282 O 0.48277 0.65846 0.65915 0.0
Mg283 Mg 0.5084 0.68937 0.62867 0.0
C284 C 0.48285 0.64252 0.67611 0.0
C285 C 0.5573 0.63467 0.70525 0.0
O286 O 0.56456 0.65419 0.72116 0.0
O287 O 0.52718 0.6437 0.61309 0.0
O288 O 0.51098 0.66408 0.59426 0.0
O289 O 0.54977 0.68713 0.70146 0.0
O290 O 0.53768 0.69103 0.65477 0.0
C291 C 0.51736 0.64881 0.59089 0.0
C292 C 0.54463 0.69923 0.68246 0.0
O293 O 0.5457 0.63162 0.68003 0.0
Mg294 Mg 0.88741 0.55572 0.67877 0.0
O295 O 0.87773 0.52254 0.70695 0.0
O296 O 0.83911 0.49794 0.70413 0.0
Mg297 Mg 0.82337 0.51598 0.67521 0.0
C298 C 0.85953 0.503 0.71349 0.0
C299 C 0.93519 0.57141 0.71088 0.0
O300 O 0.92162 0.56925 0.73486 0.0
O301 O 0.88199 0.53521 0.63279 0.0
O302 O 0.84275 0.51352 0.63184 0.0
O303 O 0.88059 0.57343 0.71951 0.0
O304 O 0.85379 0.55032 0.68527 0.0
C305 C 0.86284 0.5204 0.6193 0.0
C306 C 0.85905 0.56307 0.71006 0.0
O307 O 0.92636 0.56672 0.68335 0.0
Mg308 Mg 0.33475 0.87825 0.6783 0.0
O309 O 0.35855 0.86216 0.68662 0.0
O310 O 0.33765 0.82535 0.66887 0.0
Mg311 Mg 0.30195 0.81758 0.65019 0.0
C312 C 0.35617 0.84193 0.6814 0.0
C313 C 0.35988 0.9305 0.67424 0.0
O314 O 0.34224 0.92239 0.6544 0.0
O315 O 0.34279 0.8808 0.62557 0.0
O316 O 0.32013 0.84368 0.60979 0.0
O317 O 0.31855 0.86535 0.72536 0.0
O318 O 0.30499 0.84534 0.68117 0.0
C319 C 0.33438 0.86526 0.60392 0.0
C320 C 0.30396 0.84604 0.71133 0.0
O321 O 0.36394 0.91587 0.68828 0.0
Mg322 Mg 0.45691 0.33369 0.66963 0.0
O323 O 0.49399 0.36152 0.68296 0.0
O324 O 0.52028 0.35358 0.66152 0.0
Mg325 Mg 0.49941 0.3196 0.63304 0.0
C326 C 0.51513 0.36648 0.67829 0.0
C327 C 0.43113 0.3479 0.71702 0.0
O328 O 0.42708 0.32717 0.72609 0.0
O329 O 0.46284 0.35 0.62015 0.0
O330 O 0.48637 0.33777 0.5996 0.0
O331 O 0.45566 0.31021 0.7093 0.0
O332 O 0.468 0.30941 0.66145 0.0
C333 C 0.47423 0.34793 0.597 0.0
C334 C 0.46417 0.30142 0.68961 0.0
O335 O 0.44285 0.35652 0.69183 0.0
H336 H 0.39533 0.0551 0.24951 0.0
H337 H 0.38063 0.03993 0.15009 0.0
H338 H 0.35584 -0.00203 0.162 0.0
H339 H 0.40091 0.00545 0.26609 0.0
H340 H 0.38745 -4e-05 0.30446 0.0
H341 H 0.40227 0.02925 0.28878 0.0
H342 H 0.3646 0.03198 0.29627 0.0
H343 H 0.3497 0.00272 0.31217 0.0
H344 H 0.33745 0.00992 0.27901 0.0
H345 H 0.33423 0.95742 0.18394 0.0
H346 H 0.31797 0.92082 0.21493 0.0
H347 H 0.34716 0.96182 0.29991 0.0
C348 C 0.38648 0.04296 0.23042 0.0
C349 C 0.38975 0.05076 0.19892 0.0
C350 C 0.37834 0.0343 0.17443 0.0
C351 C 0.36416 0.01043 0.18092 0.0
C352 C 0.3616 0.00316 0.21208 0.0
C353 C 0.37242 0.01886 0.23648 0.0
C354 C 0.3679 0.00611 0.26761 0.0
C355 C 0.39101 0.01045 0.28261 0.0
C356 C 0.35409 0.0131 0.29009 0.0
C357 C 0.35311 0.98091 0.25676 0.0
C358 C 0.34952 0.97961 0.22468 0.0
C359 C 0.33681 0.95819 0.20915 0.0
C360 C 0.32764 0.9375 0.2269 0.0
C361 C 0.33142 0.93842 0.25975 0.0
C362 C 0.34415 0.96048 0.27477 0.0
H363 H 0.40091 0.38729 0.29732 0.0
H364 H 0.38539 0.33634 0.22302 0.0
H365 H 0.35822 0.34764 0.19915 0.0
H366 H 0.3437 0.38141 0.30432 0.0
H367 H 0.35491 0.41231 0.31004 0.0
H368 H 0.37192 0.39921 0.32253 0.0
H369 H 0.40708 0.42881 0.28858 0.0
H370 H 0.39033 0.44224 0.27649 0.0
H371 H 0.4027 0.43164 0.24731 0.0
H372 H 0.33361 0.36504 0.18293 0.0
H373 H 0.31697 0.3904 0.17138 0.0
H374 H 0.35005 0.43149 0.25499 0.0
C375 C 0.39204 0.37856 0.27592 0.0
C376 C 0.39548 0.36098 0.26196 0.0
C377 C 0.38315 0.34991 0.23408 0.0
C378 C 0.36756 0.35611 0.2205 0.0
C379 C 0.36461 0.37349 0.23499 0.0
C380 C 0.37677 0.3848 0.26183 0.0
C381 C 0.37173 0.40402 0.27156 0.0
C382 C 0.35986 0.39892 0.30404 0.0
C383 C 0.3943 0.4281 0.27093 0.0
C384 C 0.35493 0.40192 0.24579 0.0
C385 C 0.3508 0.38393 0.22526 0.0
C386 C 0.33665 0.37909 0.19889 0.0
C387 C 0.32723 0.39357 0.1926 0.0
C388 C 0.33213 0.41282 0.21239 0.0
C389 C 0.34561 0.41662 0.23985 0.0
H390 H 0.93839 0.33487 0.25784 0.0
H391 H 0.9526 0.32406 0.16148 0.0
H392 H 0.99447 0.34065 0.17406 0.0
H393 H 0.98746 0.38951 0.26587 0.0
H394 H 0.99375 0.38647 0.30628 0.0
H395 H 0.96419 0.36991 0.29182 0.0
H396 H 0.96204 0.33123 0.30929 0.0
H397 H 0.99153 0.34772 0.32428 0.0
H398 H 0.98417 0.32466 0.296 0.0
H399 H 0.03497 0.36283 0.1945 0.0
H400 H 0.07193 0.3884 0.22254 0.0
H401 H 0.03211 0.38521 0.30589 0.0
C402 C 0.95025 0.3352 0.23987 0.0
C403 C 0.94238 0.32789 0.20888 0.0
C404 C 0.95841 0.32939 0.18546 0.0
C405 C 0.98218 0.33875 0.19237 0.0
C406 C 0.98967 0.34663 0.22281 0.0
C407 C 0.97424 0.34483 0.24633 0.0
C408 C 0.98735 0.35682 0.27615 0.0
C409 C 0.98292 0.37686 0.28556 0.0
C410 C 0.98089 0.33904 0.30302 0.0
C411 C 0.01245 0.36614 0.26533 0.0
C412 C 0.01335 0.35986 0.2346 0.0
C413 C 0.03454 0.36759 0.21878 0.0
C414 C 0.05544 0.38218 0.23485 0.0
C415 C 0.05495 0.38896 0.26633 0.0
C416 C 0.03313 0.38053 0.28178 0.0
H417 H 0.5762 0.93139 0.24812 0.0
H418 H 0.58685 0.94749 0.14835 0.0
H419 H 0.61073 0.98945 0.16053 0.0
H420 H 0.57 0.98048 0.26942 0.0
H421 H 0.5852 0.98575 0.30639 0.0
H422 H 0.56995 0.95662 0.29018 0.0
H423 H 0.60817 0.95442 0.29268 0.0
H424 H 0.62352 0.98354 0.309 0.0
H425 H 0.63436 0.97684 0.27379 0.0
H426 H 0.63267 0.02975 0.18292 0.0
H427 H 0.65036 0.06603 0.21471 0.0
H428 H 0.62528 0.02428 0.29985 0.0
C429 C 0.58378 0.94376 0.22893 0.0
C430 C 0.57964 0.93617 0.19731 0.0
C431 C 0.58964 0.9529 0.17278 0.0
C432 C 0.60334 0.9768 0.17941 0.0
C433 C 0.60689 0.9838 0.21073 0.0
C434 C 0.5974 0.96785 0.23514 0.0
C435 C 0.60321 0.98028 0.26665 0.0
C436 C 0.58075 0.97549 0.28418 0.0
C437 C 0.61821 0.97336 0.28671 0.0
C438 C 0.61724 0.00559 0.25601 0.0
C439 C 0.61929 0.00721 0.22367 0.0
C440 C 0.63124 0.02875 0.20831 0.0
C441 C 0.64125 0.04924 0.22653 0.0
C442 C 0.63906 0.048 0.25969 0.0
C443 C 0.62705 0.02583 0.27451 0.0
H444 H 0.61232 0.64576 0.29548 0.0
H445 H 0.59498 0.67073 0.21089 0.0
H446 H 0.61758 0.65734 0.17919 0.0
H447 H 0.67148 0.65858 0.27128 0.0
H448 H 0.66797 0.63223 0.28915 0.0
H449 H 0.65314 0.64657 0.3056 0.0
H450 H 0.61335 0.60798 0.30076 0.0
H451 H 0.62799 0.59355 0.2842 0.0
H452 H 0.60437 0.59372 0.26301 0.0
H453 H 0.63777 0.63734 0.15632 0.0
H454 H 0.65535 0.61301 0.14341 0.0
H455 H 0.65933 0.60034 0.2428 0.0
C456 C 0.61341 0.64861 0.27033 0.0
C457 C 0.60171 0.65911 0.2556 0.0
C458 C 0.60386 0.66279 0.22268 0.0
C459 C 0.61664 0.65523 0.20449 0.0
C460 C 0.62728 0.64421 0.21967 0.0
C461 C 0.62597 0.64106 0.25186 0.0
C462 C 0.63752 0.62719 0.26211 0.0
C463 C 0.65879 0.64204 0.28329 0.0
C464 C 0.61974 0.60425 0.27848 0.0
C465 C 0.64504 0.62251 0.2305 0.0
C466 C 0.63909 0.63267 0.20641 0.0
C467 C 0.64281 0.62959 0.17498 0.0
C468 C 0.65268 0.61563 0.16792 0.0
C469 C 0.65874 0.60486 0.19214 0.0
C470 C 0.65519 0.60865 0.22387 0.0
H471 H 0.02915 0.63394 0.25872 0.0
H472 H 0.01575 0.61885 0.15899 0.0
H473 H 0.97333 0.59763 0.16909 0.0
H474 H 0.98336 0.57896 0.28601 0.0
H475 H 0.97553 0.59079 0.31914 0.0
H476 H 0.00507 0.6059 0.3041 0.0
H477 H 0.0024 0.64353 0.29669 0.0
H478 H 0.97282 0.62851 0.31173 0.0
H479 H 0.97885 0.64231 0.27361 0.0
H480 H 0.93226 0.5761 0.18989 0.0
H481 H 0.89547 0.55567 0.22074 0.0
H482 H 0.93504 0.58605 0.30638 0.0
C483 C 0.01727 0.62634 0.23904 0.0
C484 C 0.02586 0.62785 0.20813 0.0
C485 C 0.00969 0.61761 0.18299 0.0
C486 C 0.98548 0.60564 0.1884 0.0
C487 C 0.97754 0.60415 0.21909 0.0
C488 C 0.99289 0.61428 0.24401 0.0
C489 C 0.97962 0.60943 0.27482 0.0
C490 C 0.9863 0.59544 0.29734 0.0
C491 C 0.98367 0.63231 0.29011 0.0
C492 C 0.95458 0.59475 0.26326 0.0
C493 C 0.95375 0.59198 0.23103 0.0
C494 C 0.93263 0.57829 0.21516 0.0
C495 C 0.91182 0.56678 0.23284 0.0
C496 C 0.91235 0.56904 0.26598 0.0
C497 C 0.93401 0.58366 0.28113 0.0
H498 H 0.56938 0.93505 0.72662 0.0
H499 H 0.55002 0.94046 0.8227 0.0
H500 H 0.56785 0.98331 0.81616 0.0
H501 H 0.62487 0.98576 0.72822 0.0
H502 H 0.62395 0.9942 0.68815 0.0
H503 H 0.60766 0.96382 0.69928 0.0
H504 H 0.56942 0.9611 0.67834 0.0
H505 H 0.58562 0.9915 0.66702 0.0
H506 H 0.56057 0.98128 0.69274 0.0
H507 H 0.58987 0.02568 0.80018 0.0
H508 H 0.61496 0.06454 0.77661 0.0
H509 H 0.62073 0.0316 0.69107 0.0
C510 C 0.56849 0.94514 0.74616 0.0
C511 C 0.55815 0.93435 0.77516 0.0
C512 C 0.55775 0.94831 0.80026 0.0
C513 C 0.5678 0.97265 0.79673 0.0
C514 C 0.57818 0.98274 0.76797 0.0
C515 C 0.57857 0.96943 0.74311 0.0
C516 C 0.59207 0.98469 0.71533 0.0
C517 C 0.6134 0.98195 0.70729 0.0
C518 C 0.57595 0.97932 0.68666 0.0
C519 C 0.59958 0.00875 0.72861 0.0
C520 C 0.59118 0.0072 0.7589 0.0
C521 C 0.5964 0.02708 0.77642 0.0
C522 C 0.61074 0.04911 0.76278 0.0
C523 C 0.61987 0.05118 0.73194 0.0
C524 C 0.61394 0.03064 0.71459 0.0
H525 H 0.63468 0.59265 0.79923 0.0
H526 H 0.61249 0.53724 0.72991 0.0
H527 H 0.58442 0.54789 0.70799 0.0
H528 H 0.57644 0.58928 0.80938 0.0
H529 H 0.58969 0.62065 0.81237 0.0
H530 H 0.60537 0.6064 0.82595 0.0
H531 H 0.64029 0.63307 0.78961 0.0
H532 H 0.62471 0.64727 0.77582 0.0
H533 H 0.63528 0.63394 0.74806 0.0
H534 H 0.5619 0.56683 0.68992 0.0
H535 H 0.54697 0.5934 0.67631 0.0
H536 H 0.58428 0.63745 0.75617 0.0
C537 C 0.62337 0.58237 0.78008 0.0
C538 C 0.62554 0.56399 0.76643 0.0
C539 C 0.61101 0.55135 0.74075 0.0
C540 C 0.59495 0.5572 0.72821 0.0
C541 C 0.59365 0.57583 0.74152 0.0
C542 C 0.6074 0.58823 0.76693 0.0
C543 C 0.60416 0.60892 0.77469 0.0
C544 C 0.59326 0.60614 0.80755 0.0
C545 C 0.62749 0.63217 0.77186 0.0
C546 C 0.58706 0.60658 0.7491 0.0
C547 C 0.58093 0.58714 0.73058 0.0
C548 C 0.56632 0.58195 0.7045 0.0
C549 C 0.55796 0.59719 0.69691 0.0
C550 C 0.56439 0.61751 0.71515 0.0
C551 C 0.57886 0.62198 0.74186 0.0
H552 H 0.95994 0.58754 0.76594 0.0
H553 H 0.96778 0.57479 0.66758 0.0
H554 H 0.0101 0.58996 0.67616 0.0
H555 H 0.01374 0.6414 0.77248 0.0
H556 H 0.01977 0.63611 0.81205 0.0
H557 H 0.98991 0.62315 0.79862 0.0
H558 H 0.9828 0.58199 0.81344 0.0
H559 H 0.01266 0.59482 0.82693 0.0
H560 H 0.00177 0.57209 0.79749 0.0
H561 H 0.05155 0.6075 0.69495 0.0
H562 H 0.08964 0.62697 0.72205 0.0
H563 H 0.05523 0.62884 0.80848 0.0
C564 C 0.97049 0.58774 0.74622 0.0
C565 C 0.96049 0.57989 0.71605 0.0
C566 C 0.975 0.58067 0.69087 0.0
C567 C -0.00095 0.58922 0.69555 0.0
C568 C 0.00833 0.59693 0.72553 0.0
C569 C 0.99453 0.5963 0.75044 0.0
C570 C 0.00903 0.60638 0.78006 0.0
C571 C 0.00805 0.62805 0.79146 0.0
C572 C 0.00109 0.5877 0.80601 0.0
C573 C 0.03323 0.613 0.76783 0.0
C574 C 0.03235 0.60725 0.73636 0.0
C575 C 0.05244 0.61201 0.7196 0.0
C576 C 0.07403 0.62313 0.73528 0.0
C577 C 0.07551 0.62948 0.76746 0.0
C578 C 0.05472 0.62412 0.78396 0.0
H579 H 0.42317 0.04189 0.78938 0.0
H580 H 0.39963 0.07621 0.72361 0.0
H581 H 0.3854 0.04261 0.68785 0.0
H582 H 0.44074 0.01253 0.73058 0.0
H583 H 0.42961 0.98582 0.7529 0.0
H584 H 0.43995 0.01338 0.77295 0.0
H585 H 0.39996 -0.00309 0.80151 0.0
H586 H 0.38961 0.96928 0.78175 0.0
H587 H 0.37337 0.98457 0.77863 0.0
H588 H 0.37288 0.00587 0.65952 0.0
H589 H 0.35855 0.96538 0.64228 0.0
H590 H 0.38793 0.95246 0.72623 0.0
C591 C 0.41517 0.04231 0.76734 0.0
C592 C 0.41259 0.06175 0.7593 0.0
C593 C 0.40173 0.06154 0.73044 0.0
C594 C 0.39374 0.04259 0.70976 0.0
C595 C 0.39648 0.02374 0.71826 0.0
C596 C 0.40662 0.02318 0.74645 0.0
C597 C 0.40564 -0.00023 0.75048 0.0
C598 C 0.43047 0.00308 0.75181 0.0
C599 C 0.39129 0.98687 0.77983 0.0
C600 C 0.3931 0.98731 0.72038 0.0
C601 C 0.38842 0.00177 0.70202 0.0
C602 C 0.37646 0.99434 0.67361 0.0
C603 C 0.36839 0.97127 0.66402 0.0
C604 C 0.37207 0.95568 0.68284 0.0
C605 C 0.38508 0.96402 0.71112 0.0
H606 H 0.3855 0.43706 0.76157 0.0
H607 H 0.36968 0.40474 0.85403 0.0
H608 H 0.38825 0.38167 0.83909 0.0
H609 H 0.37258 0.38661 0.71918 0.0
H610 H 0.39587 0.40061 0.69067 0.0
H611 H 0.38406 0.41703 0.70939 0.0
H612 H 0.42555 0.44782 0.72849 0.0
H613 H 0.43756 0.43161 0.70954 0.0
H614 H 0.44266 0.43846 0.75086 0.0
H615 H 0.40413 0.35907 0.81316 0.0
H616 H 0.41862 0.33925 0.77841 0.0
H617 H 0.42528 0.3858 0.70186 0.0
C618 C 0.38656 0.42562 0.77894 0.0
C619 C 0.37624 0.42283 0.80911 0.0
C620 C 0.3775 0.40725 0.83088 0.0
C621 C 0.38804 0.39406 0.82261 0.0
C622 C 0.39737 0.39665 0.79247 0.0
C623 C 0.39702 0.41217 0.77099 0.0
C624 C 0.40711 0.41037 0.73952 0.0
C625 C 0.38881 0.40323 0.71314 0.0
C626 C 0.42956 0.43344 0.73164 0.0
C627 C 0.41255 0.39096 0.74651 0.0
C628 C 0.40686 0.38349 0.77731 0.0
C629 C 0.40897 0.36497 0.78914 0.0
C630 C 0.41711 0.35373 0.76906 0.0
C631 C 0.42318 0.36097 0.73737 0.0
C632 C 0.42105 0.38004 0.72605 0.0
H633 H 0.03653 0.40688 0.68609 0.0
H634 H 0.07256 0.43472 0.77478 0.0
H635 H 0.03458 0.41803 0.80211 0.0
H636 H 0.98722 0.41637 0.70224 0.0
H637 H 0.96604 0.38958 0.68333 0.0
H638 H -0.00389 0.40457 0.67018 0.0
H639 H -0.00173 0.36679 0.67883 0.0
H640 H 0.96824 0.35171 0.6921 0.0
H641 H 0.99098 0.35283 0.71688 0.0
H642 H 0.99301 0.39714 0.82058 0.0
H643 H 0.95023 0.37381 0.82872 0.0
H644 H 0.9405 0.35933 0.72845 0.0
C645 C 0.03641 0.40965 0.7112 0.0
C646 C 0.05762 0.42215 0.72823 0.0
C647 C 0.05664 0.42522 0.76113 0.0
C648 C 0.03511 0.41581 0.77694 0.0
C649 C 0.01458 0.40337 0.75961 0.0
C650 C 0.01497 0.40032 0.72747 0.0
C651 C 0.99024 0.38571 0.7147 0.0
C652 C 0.98457 0.39991 0.69123 0.0
C653 C 0.98674 0.36291 0.69975 0.0
C654 C 0.97601 0.38085 0.74475 0.0
C655 C 0.99044 0.39129 0.77034 0.0
C656 C 0.9815 0.38897 0.8007 0.0
C657 C 0.95714 0.37563 0.8051 0.0
C658 C 0.94192 0.36472 0.77927 0.0
C659 C 0.9516 0.3675 0.7487 0.0
H660 H 0.40671 0.17621 0.20679 0.0
H661 H 0.47996 0.19565 0.21457 0.0
H662 H 0.48865 0.23339 0.23901 0.0
H663 H 0.41631 0.23335 0.18733 0.0
H664 H 0.39122 0.2295 0.20945 0.0
H665 H 0.39131 0.20447 0.19258 0.0
H666 H 0.38294 0.18491 0.24756 0.0
H667 H 0.38291 0.20991 0.26464 0.0
H668 H 0.4023 0.20036 0.27986 0.0
H669 H 0.48864 0.26955 0.26364 0.0
H670 H 0.48007 0.2998 0.28422 0.0
H671 H 0.40682 0.25537 0.25955 0.0
C672 C 0.42465 0.18835 0.21352 0.0
C673 C 0.44265 0.18286 0.20871 0.0
C674 C 0.46585 0.19941 0.21793 0.0
C675 C 0.47093 0.22089 0.23189 0.0
C676 C 0.45264 0.22562 0.23643 0.0
C677 C 0.42998 0.20973 0.22735 0.0
C678 C 0.4133 0.21868 0.23456 0.0
C679 C 0.4024 0.22168 0.20418 0.0
C680 C 0.39424 0.2025 0.25806 0.0
C681 C 0.42999 0.24211 0.24929 0.0
C682 C 0.45264 0.24595 0.25027 0.0
C683 C 0.47093 0.26662 0.26292 0.0
C684 C 0.46591 0.28371 0.27462 0.0
C685 C 0.44277 0.28006 0.27361 0.0
C686 C 0.42471 0.25885 0.26082 0.0
H687 H 0.19854 0.48441 0.28128 0.0
H688 H 0.17296 0.41013 0.26971 0.0
H689 H 0.21104 0.41898 0.24649 0.0
H690 H 0.2308 0.50269 0.20921 0.0
H691 H 0.25462 0.52922 0.22537 0.0
H692 H 0.22565 0.51697 0.24196 0.0
H693 H 0.24198 0.51578 0.29696 0.0
H694 H 0.27102 0.5281 0.28053 0.0
H695 H 0.2584 0.5008 0.30175 0.0
H696 H 0.25192 0.43619 0.22296 0.0
H697 H 0.29225 0.46047 0.20213 0.0
H698 H 0.29071 0.52318 0.22954 0.0
C699 C 0.20102 0.47002 0.27408 0.0
C700 C 0.18285 0.44651 0.27735 0.0
C701 C 0.18675 0.42823 0.26745 0.0
C702 C 0.20828 0.43308 0.25423 0.0
C703 C 0.22583 0.45639 0.25107 0.0
C704 C 0.22246 0.47456 0.26082 0.0
C705 C 0.24403 0.49806 0.2544 0.0
C706 C 0.23843 0.51258 0.23136 0.0
C707 C 0.25447 0.51147 0.28525 0.0
C708 C 0.25995 0.49027 0.23943 0.0
C709 C 0.24921 0.46619 0.23768 0.0
C710 C 0.26054 0.45509 0.22434 0.0
C711 C 0.28346 0.46901 0.21253 0.0
C712 C 0.29479 0.49374 0.2142 0.0
C713 C 0.2827 0.50433 0.22789 0.0
H714 H 0.71697 0.17341 0.22641 0.0
H715 H 0.70935 0.18865 0.32373 0.0
H716 H 0.74352 0.22848 0.31752 0.0
H717 H 0.77796 0.20111 0.22622 0.0
H718 H 0.78169 0.21212 0.18658 0.0
H719 H 0.75508 0.186 0.19753 0.0
H720 H 0.73065 0.2047 0.17895 0.0
H721 H 0.75724 0.23093 0.16784 0.0
H722 H 0.73691 0.23265 0.1947 0.0
H723 H 0.78086 0.2652 0.30212 0.0
H724 H 0.81817 0.29568 0.27907 0.0
H725 H 0.80136 0.2565 0.19165 0.0
C726 C 0.72213 0.18524 0.2463 0.0
C727 C 0.71033 0.17787 0.27557 0.0
C728 C 0.71798 0.19388 0.30105 0.0
C729 C 0.73737 0.21657 0.29772 0.0
C730 C 0.74888 0.22306 0.26871 0.0
C731 C 0.74145 0.20788 0.24339 0.0
C732 C 0.75775 0.2185 0.2154 0.0
C733 C 0.76877 0.20355 0.2059 0.0
C734 C 0.74487 0.2219 0.18758 0.0
C735 C 0.7759 0.24182 0.22914 0.0
C736 C 0.77035 0.2442 0.25982 0.0
C737 C 0.7852 0.26363 0.278 0.0
C738 C 0.8064 0.28086 0.26468 0.0
C739 C 0.81268 0.2786 0.23346 0.0
C740 C 0.79693 0.25897 0.21536 0.0
H741 H 0.52484 0.79452 0.18531 0.0
H742 H 0.49726 0.80546 0.27257 0.0
H743 H 0.49373 0.76901 0.29402 0.0
H744 H 0.48946 0.7298 0.18442 0.0
H745 H 0.51341 0.72685 0.16899 0.0
H746 H 0.51108 0.75222 0.15925 0.0
H747 H 0.55315 0.77924 0.18027 0.0
H748 H 0.55559 0.75401 0.19009 0.0
H749 H 0.56026 0.77536 0.21995 0.0
H750 H 0.49658 0.73303 0.30772 0.0
H751 H 0.50642 0.70151 0.31265 0.0
H752 H 0.53233 0.71442 0.21654 0.0
C753 C 0.51754 0.789 0.20867 0.0
C754 C 0.51116 0.80284 0.22714 0.0
C755 C 0.50217 0.79516 0.25787 0.0
C756 C 0.50005 0.77441 0.27025 0.0
C757 C 0.50694 0.76144 0.25165 0.0
C758 C 0.51545 0.76843 0.22146 0.0
C759 C 0.52334 0.7524 0.20717 0.0
C760 C 0.50843 0.73955 0.17824 0.0
C761 C 0.54964 0.76607 0.1989 0.0
C762 C 0.51847 0.73563 0.23425 0.0
C763 C 0.50875 0.74093 0.2596 0.0
C764 C 0.50392 0.72856 0.28786 0.0
C765 C 0.50955 0.71065 0.29044 0.0
C766 C 0.52006 0.70533 0.26498 0.0
C767 C 0.5241 0.71779 0.23639 0.0
H768 H 0.71091 0.51453 0.21197 0.0
H769 H 0.76703 0.58663 0.20262 0.0
H770 H 0.79403 0.57689 0.23012 0.0
H771 H 0.72582 0.50536 0.28904 0.0
H772 H 0.71845 0.4755 0.28181 0.0
H773 H 0.70382 0.48798 0.26027 0.0
H774 H 0.71647 0.47758 0.20764 0.0
H775 H 0.7311 0.465 0.22905 0.0
H776 H 0.7471 0.48774 0.20051 0.0
H777 H 0.81484 0.55933 0.26078 0.0
H778 H 0.82717 0.53513 0.29103 0.0
H779 H 0.75748 0.47494 0.27942 0.0
C780 C 0.72891 0.52824 0.21546 0.0
C781 C 0.73679 0.55134 0.20505 0.0
C782 C 0.76051 0.56877 0.21032 0.0
C783 C 0.77604 0.56342 0.22594 0.0
C784 C 0.76767 0.54054 0.23616 0.0
C785 C 0.74467 0.52322 0.23102 0.0
C786 C 0.73992 0.50011 0.24486 0.0
C787 C 0.72088 0.49176 0.27052 0.0
C788 C 0.73326 0.48152 0.21897 0.0
C789 C 0.76373 0.50717 0.25876 0.0
C790 C 0.77959 0.53053 0.25352 0.0
C791 C 0.80258 0.54096 0.26483 0.0
C792 C 0.80947 0.5271 0.28194 0.0
C793 C 0.79342 0.50311 0.2875 0.0
C794 C 0.77031 0.4932 0.27559 0.0
H795 H 0.16796 0.7231 0.2016 0.0
H796 H 0.15869 0.68458 0.28819 0.0
H797 H 0.19506 0.71787 0.30931 0.0
H798 H 0.23226 0.75252 0.19886 0.0
H799 H 0.2351 0.7794 0.18393 0.0
H800 H 0.2094 0.75181 0.17475 0.0
H801 H 0.18295 0.7671 0.19746 0.0
H802 H 0.20853 0.79468 0.20674 0.0
H803 H 0.18766 0.77816 0.23719 0.0
H804 H 0.2316 0.75665 0.32224 0.0
H805 H 0.26445 0.7975 0.32589 0.0
H806 H 0.24942 0.81055 0.23106 0.0
C807 C 0.17375 0.72147 0.22481 0.0
C808 C 0.16044 0.70108 0.24313 0.0
C809 C 0.16854 0.69992 0.27361 0.0
C810 C 0.18924 0.71877 0.28582 0.0
C811 C 0.20175 0.73873 0.26732 0.0
C812 C 0.19431 0.74017 0.23743 0.0
C813 C 0.21022 0.764 0.22296 0.0
C814 C 0.22247 0.76179 0.19337 0.0
C815 C 0.19652 0.77673 0.21567 0.0
C816 C 0.22756 0.77588 0.24952 0.0
C817 C 0.22253 0.76099 0.27484 0.0
C818 C 0.23577 0.76839 0.30244 0.0
C819 C 0.25443 0.79164 0.3043 0.0
C820 C 0.25965 0.80732 0.27879 0.0
C821 C 0.24607 0.79908 0.25098 0.0
H822 H 0.54302 0.71519 0.74199 0.0
H823 H 0.5496 0.7336 0.643 0.0
H824 H 0.55197 0.77107 0.65648 0.0
H825 H 0.50579 0.73877 0.76152 0.0
H826 H 0.51854 0.74921 0.79978 0.0
H827 H 0.51861 0.72423 0.78266 0.0
H828 H 0.56379 0.74492 0.78895 0.0
H829 H 0.56385 0.76996 0.80612 0.0
H830 H 0.58183 0.7736 0.77216 0.0
H831 H 0.55392 0.80662 0.68031 0.0
H832 H 0.55265 0.83696 0.71324 0.0
H833 H 0.5428 0.79481 0.79639 0.0
C834 C 0.54514 0.72722 0.72327 0.0
C835 C 0.54622 0.72158 0.6915 0.0
C836 C 0.54866 0.73758 0.66752 0.0
C837 C 0.55012 0.75895 0.67491 0.0
C838 C 0.54888 0.76399 0.70639 0.0
C839 C 0.54624 0.74856 0.7302 0.0
C840 C 0.54428 0.75789 0.76196 0.0
C841 C 0.52038 0.74155 0.77738 0.0
C842 C 0.56465 0.76183 0.78356 0.0
C843 C 0.54625 0.78091 0.75218 0.0
C844 C 0.54914 0.7842 0.72006 0.0
C845 C 0.5516 0.80426 0.70552 0.0
C846 C 0.5509 0.82139 0.72436 0.0
C847 C 0.54748 0.81813 0.75724 0.0
C848 C 0.54522 0.79766 0.77124 0.0
H849 H 0.72992 0.52654 0.76658 0.0
H850 H 0.75092 0.60016 0.76261 0.0
H851 H 0.79121 0.60985 0.74782 0.0
H852 H 0.78219 0.53219 0.79781 0.0
H853 H 0.78211 0.50956 0.77382 0.0
H854 H 0.75484 0.50824 0.78376 0.0
H855 H 0.74432 0.50617 0.72466 0.0
H856 H 0.7713 0.50695 0.71458 0.0
H857 H 0.76483 0.52828 0.69812 0.0
H858 H 0.82996 0.61163 0.73873 0.0
H859 H 0.86252 0.60484 0.72376 0.0
H860 H 0.81524 0.52989 0.72876 0.0
C861 C 0.74297 0.54463 0.76215 0.0
C862 C 0.73753 0.56267 0.76573 0.0
C863 C 0.75485 0.58614 0.7596 0.0
C864 C 0.77777 0.59181 0.75157 0.0
C865 C 0.78282 0.57368 0.74916 0.0
C866 C 0.76573 0.55051 0.75326 0.0
C867 C 0.77546 0.53427 0.74772 0.0
C868 C 0.77353 0.52024 0.77756 0.0
C869 C 0.76326 0.51796 0.71959 0.0
C870 C 0.80076 0.55196 0.74028 0.0
C871 C 0.80477 0.57463 0.74193 0.0
C872 C 0.82699 0.59397 0.737 0.0
C873 C 0.84539 0.58998 0.7289 0.0
C874 C 0.84121 0.5669 0.72521 0.0
C875 C 0.81875 0.5477 0.73143 0.0
H876 H 0.26242 0.80898 0.69182 0.0
H877 H 0.31003 0.83546 0.77128 0.0
H878 H 0.28405 0.79946 0.80109 0.0
H879 H 0.2101 0.78464 0.73766 0.0
H880 H 0.1938 0.75967 0.71237 0.0
H881 H 0.21706 0.78658 0.69632 0.0
H882 H 0.23721 0.76427 0.67447 0.0
H883 H 0.21404 0.73729 0.69064 0.0
H884 H 0.24415 0.74721 0.70086 0.0
H885 H 0.25323 0.76139 0.82223 0.0
H886 H 0.21715 0.72532 0.83648 0.0
H887 H 0.18783 0.72394 0.74446 0.0
C888 C 0.26742 0.80705 0.71541 0.0
C889 C 0.28825 0.82482 0.72929 0.0
C890 C 0.2941 0.822 0.76034 0.0
C891 C 0.27957 0.80158 0.77731 0.0
C892 C 0.25917 0.78435 0.76296 0.0
C893 C 0.25288 0.78697 0.7329 0.0
C894 C 0.22912 0.76654 0.72394 0.0
C895 C 0.21148 0.77486 0.71719 0.0
C896 C 0.23127 0.75303 0.69581 0.0
C897 C 0.22293 0.75215 0.75384 0.0
C898 C 0.24076 0.76261 0.77573 0.0
C899 C 0.23916 0.75298 0.8053 0.0
C900 C 0.21856 0.73238 0.81308 0.0
C901 C 0.19965 0.7217 0.79152 0.0
C902 C 0.20203 0.7316 0.76133 0.0
H903 H 0.46314 0.28362 0.74863 0.0
H904 H 0.4749 0.27571 0.64988 0.0
H905 H 0.47864 0.24137 0.66259 0.0
H906 H 0.50375 0.26438 0.77979 0.0
H907 H 0.48479 0.2493 0.81263 0.0
H908 H 0.48545 0.27487 0.79637 0.0
H909 H 0.44045 0.25103 0.788 0.0
H910 H 0.43967 0.22541 0.80405 0.0
H911 H 0.42802 0.22433 0.76535 0.0
H912 H 0.47564 0.20505 0.68432 0.0
H913 H 0.46919 0.17049 0.71504 0.0
H914 H 0.46181 0.20268 0.80014 0.0
C915 C 0.46699 0.27494 0.72983 0.0
C916 C 0.46886 0.28245 0.69831 0.0
C917 C 0.47365 0.27048 0.67427 0.0
C918 C 0.47577 0.25089 0.68121 0.0
C919 C 0.47338 0.24363 0.71236 0.0
C920 C 0.46943 0.25543 0.7364 0.0
C921 C 0.46648 0.24323 0.76766 0.0
C922 C 0.4863 0.25888 0.79046 0.0
C923 C 0.44221 0.23554 0.78209 0.0
C924 C 0.46856 0.22235 0.75718 0.0
C925 C 0.47256 0.22296 0.72517 0.0
C926 C 0.47304 0.20459 0.70952 0.0
C927 C 0.46926 0.18502 0.72707 0.0
C928 C 0.46534 0.18417 0.75988 0.0
C929 C 0.46532 0.20321 0.77515 0.0
H930 H 0.17302 0.44055 0.74415 0.0
H931 H 0.18871 0.44443 0.64434 0.0
H932 H 0.22558 0.44496 0.65606 0.0
H933 H 0.23248 0.48055 0.76768 0.0
H934 H 0.2307 0.46523 0.80359 0.0
H935 H 0.20471 0.4638 0.78753 0.0
H936 H 0.184 0.41846 0.78702 0.0
H937 H 0.20994 0.41977 0.80309 0.0
H938 H 0.19762 0.40423 0.76685 0.0
H939 H 0.26033 0.44443 0.67801 0.0
H940 H 0.29266 0.44612 0.70962 0.0
H941 H 0.25611 0.44526 0.79522 0.0
C942 C 0.18418 0.44133 0.72487 0.0
C943 C 0.17801 0.44232 0.69337 0.0
C944 C 0.19317 0.44371 0.66868 0.0
C945 C 0.2141 0.44392 0.67505 0.0
C946 C 0.21982 0.44305 0.70628 0.0
C947 C 0.2055 0.44205 0.73085 0.0
C948 C 0.21651 0.4425 0.7623 0.0
C949 C 0.22139 0.46432 0.78139 0.0
C950 C 0.2011 0.41989 0.7809 0.0
C951 C 0.23911 0.44382 0.75143 0.0
C952 C 0.24052 0.44383 0.71902 0.0
C953 C 0.25954 0.44454 0.70344 0.0
C954 C 0.27776 0.44544 0.72153 0.0
C955 C 0.27691 0.44597 0.75475 0.0
C956 C 0.2573 0.4451 0.76981 0.0
H957 H 0.82005 0.27152 0.73773 0.0
H958 H 0.79124 0.27012 0.83037 0.0
H959 H 0.75456 0.23503 0.81583 0.0
H960 H 0.76345 0.25001 0.69474 0.0
H961 H 0.76972 0.23274 0.66768 0.0
H962 H 0.79338 0.25929 0.68407 0.0
H963 H 0.81278 0.236 0.70461 0.0
H964 H 0.78912 0.2094 0.68853 0.0
H965 H 0.79621 0.21099 0.72974 0.0
H966 H 0.72331 0.19756 0.79493 0.0
H967 H 0.69697 0.1614 0.76568 0.0
H968 H 0.74356 0.1873 0.68498 0.0
C969 C 0.80582 0.26409 0.75464 0.0
C970 C 0.80856 0.27377 0.78511 0.0
C971 C 0.7896 0.26334 0.80673 0.0
C972 C 0.76862 0.24327 0.79878 0.0
C973 C 0.76661 0.23387 0.76894 0.0
C974 C 0.78444 0.24405 0.74692 0.0
C975 C 0.7777 0.22972 0.71684 0.0
C976 C 0.77595 0.24378 0.6892 0.0
C977 C 0.79498 0.22101 0.70952 0.0
C978 C 0.75372 0.20962 0.72596 0.0
C979 C 0.74777 0.21241 0.7562 0.0
C980 C 0.72746 0.19535 0.77097 0.0
C981 C 0.71271 0.17485 0.75432 0.0
C982 C 0.71821 0.17181 0.72313 0.0
C983 C 0.73883 0.1895 0.70866 0.0
H984 H 0.46022 0.14599 0.0649 0.0
H985 H 0.48527 0.09656 0.07328 0.0
H986 H 0.49479 0.10075 0.01687 0.0
H987 H 0.43221 0.12653 -0.00511 0.0
H988 H 0.44011 0.15453 0.97776 0.0
H989 H 0.43892 0.15126 0.01984 0.0
H990 H 0.48195 0.1849 0.02467 0.0
H991 H 0.48313 0.18872 0.98258 0.0
H992 H 0.50455 0.18372 0.00205 0.0
H993 H 0.4937 0.10351 0.95871 0.0
H994 H 0.48933 0.11107 0.90268 0.0
H995 H 0.4682 0.16099 0.93125 0.0
C996 C 0.46871 0.13693 0.0551 0.0
C997 C 0.47198 0.12093 0.07346 0.0
C998 C 0.48255 0.10887 0.05962 0.0
C999 C 0.488 0.11108 0.02755 0.0
C1000 C 0.48321 0.1258 0.00963 0.0
C1001 C 0.47449 0.13911 0.02294 0.0
C1002 C 0.46971 0.1525 -0.00221 0.0
C1003 C 0.44369 0.14579 -0.00242 0.0
C1004 C 0.4858 0.17904 0.00203 0.0
C1005 C 0.47612 0.14379 0.96841 0.0
C1006 C 0.48376 0.12831 0.97578 0.0
C1007 C 0.48841 0.11613 0.95258 0.0
C1008 C 0.48566 0.1203 0.92093 0.0
C1009 C 0.4787 0.13672 0.91296 0.0
C1010 C 0.47394 0.14864 0.93695 0.0
H1011 H 0.35067 0.46262 0.91399 0.0
H1012 H 0.33218 0.51712 0.90743 0.0
H1013 H 0.33595 0.52244 0.96494 0.0
H1014 H 0.31792 0.43616 0.97973 0.0
H1015 H 0.33826 0.4289 -0.00229 0.0
H1016 H 0.3382 0.43204 0.9557 0.0
H1017 H 0.38237 0.46337 0.95667 0.0
H1018 H 0.38265 0.4601 -0.00126 0.0
H1019 H 0.39239 0.4886 0.9819 0.0
H1020 H 0.33605 0.51791 0.02371 0.0
H1021 H 0.33475 0.50514 0.07882 0.0
H1022 H 0.35333 0.45389 0.04659 0.0
C1023 C 0.34827 0.47625 0.92453 0.0
C1024 C 0.34124 0.48951 0.9062 0.0
C1025 C 0.3376 0.50675 0.92101 0.0
C1026 C 0.33974 0.50995 0.95369 0.0
C1027 C 0.34568 0.4959 0.97128 0.0
C1028 C 0.35021 0.4796 0.9572 0.0
C1029 C 0.35422 0.4653 0.98162 0.0
C1030 C 0.33606 0.43906 0.97849 0.0
C1031 C 0.37941 0.46961 0.97961 0.0
C1032 C 0.35047 0.47557 0.01149 0.0
C1033 C 0.34577 0.49334 0.00515 0.0
C1034 C 0.34014 0.50429 0.02903 0.0
C1035 C 0.33933 0.49686 0.06025 0.0
C1036 C 0.34404 0.47861 0.06719 0.0
C1037 C 0.34988 0.46809 0.04232 0.0
H1038 H 0.83437 0.31471 0.94452 0.0
H1039 H 0.89462 0.37931 0.91288 0.0
H1040 H 0.90522 0.39168 0.96842 0.0
H1041 H 0.82034 0.33722 0.01591 0.0
H1042 H 0.81347 0.31145 0.03852 0.0
H1043 H 0.8086 0.30921 -0.00338 0.0
H1044 H 0.83461 0.29015 0.99032 0.0
H1045 H 0.83927 0.29206 0.03215 0.0
H1046 H 0.86406 0.30503 0.00575 0.0
H1047 H 0.90998 0.39609 0.02654 0.0
H1048 H 0.9134 0.38985 0.08276 0.0
H1049 H 0.85168 0.32063 0.07686 0.0
C1050 C 0.84955 0.33166 0.94939 0.0
C1051 C 0.86355 0.34633 0.92469 0.0
C1052 C 0.8837 0.36799 0.93166 0.0
C1053 C 0.88965 0.37519 0.96302 0.0
C1054 C 0.87542 0.36032 0.98692 0.0
C1055 C 0.85604 0.3388 0.98048 0.0
C1056 C 0.84548 0.3248 0.01031 0.0
C1057 C 0.82049 0.32042 0.01565 0.0
C1058 C 0.8459 0.30165 0.00958 0.0
C1059 C 0.8623 0.34159 0.03458 0.0
C1060 C 0.87898 0.36222 0.02059 0.0
C1061 C 0.89702 0.38004 0.03775 0.0
C1062 C 0.89878 0.37628 0.06973 0.0
C1063 C 0.88289 0.35463 0.08421 0.0
C1064 C 0.86389 0.33743 0.06661 0.0
H1065 H 0.52448 0.89335 0.04294 0.0
H1066 H 0.49248 0.82319 0.08196 0.0
H1067 H 0.48159 0.80674 0.02814 0.0
H1068 H 0.48361 0.88069 0.97684 0.0
H1069 H 0.50688 0.90019 0.95082 0.0
H1070 H 0.509 0.90617 -0.00754 0.0
H1071 H 0.54897 0.90736 -0.00592 0.0
H1072 H 0.547 0.90143 0.95257 0.0
H1073 H 0.55086 0.88261 0.97966 0.0
H1074 H 0.47707 0.79834 0.96996 0.0
H1075 H 0.48195 0.79824 0.91258 0.0
H1076 H 0.5186 0.87431 0.91203 0.0
C1077 C 0.51466 0.87448 0.04039 0.0
C1078 C 0.50905 0.85951 0.06675 0.0
C1079 C 0.4968 0.83496 0.06214 0.0
C1080 C 0.49046 0.8255 0.0317 0.0
C1081 C 0.49658 0.84085 0.00623 0.0
C1082 C 0.50852 0.86483 0.01032 0.0
C1083 C 0.51529 0.87765 0.97913 0.0
C1084 C 0.50295 0.89202 0.97455 0.0
C1085 C 0.54211 0.89316 0.9762 0.0
C1086 C 0.50585 0.85713 0.95668 0.0
C1087 C 0.4947 0.83607 0.97275 0.0
C1088 C 0.48558 0.81472 0.95716 0.0
C1089 C 0.48849 0.8149 0.92447 0.0
C1090 C 0.50075 0.83631 0.90764 0.0
C1091 C 0.50899 0.85765 0.92403 0.0
H1092 H 0.63917 0.54449 0.04029 0.0
H1093 H 0.67395 0.50901 0.07942 0.0
H1094 H 0.67555 0.49445 0.02614 0.0
H1095 H 0.60538 0.50163 0.97817 0.0
H1096 H 0.61007 0.52439 0.95069 0.0
H1097 H 0.60848 0.52885 -0.00772 0.0
H1098 H 0.64916 0.56667 0.98987 0.0
H1099 H 0.65082 0.56239 0.94838 0.0
H1100 H 0.67389 0.56527 0.97406 0.0
H1101 H 0.67602 0.48658 0.96805 0.0
H1102 H 0.67937 0.48936 0.91035 0.0
H1103 H 0.64568 0.53168 0.90977 0.0
C1104 C 0.64664 0.53318 0.03795 0.0
C1105 C 0.65618 0.52763 0.06413 0.0
C1106 C 0.66641 0.51335 0.05973 0.0
C1107 C 0.66724 0.5049 0.02961 0.0
C1108 C 0.65784 0.51097 0.00428 0.0
C1109 C 0.64787 0.52492 0.00821 0.0
C1110 C 0.64143 0.53125 0.97702 0.0
C1111 C 0.61475 0.5209 0.9744 0.0
C1112 C 0.65462 0.55797 0.97205 0.0
C1113 C 0.64997 0.51924 0.95466 0.0
C1114 C 0.65886 0.50718 0.97083 0.0
C1115 C 0.66893 0.4958 0.95519 0.0
C1116 C 0.67072 0.4975 0.92231 0.0
C1117 C 0.66285 0.51084 0.90537 0.0
C1118 C 0.65168 0.5212 0.92186 0.0
H1119 H 0.10878 0.63887 0.92691 0.0
H1120 H 0.18063 0.65439 0.94018 0.0
H1121 H 0.17466 0.65113 -0.00264 0.0
H1122 H 0.10641 0.67077 0.9903 0.0
H1123 H 0.07678 0.65014 0.00207 0.0
H1124 H 0.08558 0.65128 0.96168 0.0
H1125 H 0.07255 0.60713 0.96312 0.0
H1126 H 0.06329 0.60572 0.00339 0.0
H1127 H 0.08391 0.59629 -0.00673 0.0
H1128 H 0.16298 0.65197 0.05329 0.0
H1129 H 0.14373 0.65026 0.10428 0.0
H1130 H 0.07907 0.63163 0.05496 0.0
C1131 C 0.12306 0.64096 0.94175 0.0
C1132 C 0.1452 0.64707 0.92886 0.0
C1133 C 0.16348 0.64982 0.94929 0.0
C1134 C 0.16033 0.64805 0.98194 0.0
C1135 C 0.13867 0.64307 -0.00607 0.0
C1136 C 0.12014 0.63896 0.9745 0.0
C1137 C 0.09882 0.63441 -0.0064 0.0
C1138 C 0.09148 0.65275 0.98648 0.0
C1139 C 0.07844 0.6094 0.98802 0.0
C1140 C 0.10853 0.63727 0.02661 0.0
C1141 C 0.1316 0.64244 0.02633 0.0
C1142 C 0.14475 0.64744 0.05392 0.0
C1143 C 0.1338 0.64665 0.08268 0.0
C1144 C 0.10995 0.64057 0.08344 0.0
C1145 C 0.09726 0.63592 0.05503 0.0
H1146 H 0.89841 0.54101 0.57567 0.0
H1147 H 0.82746 0.48315 0.58861 0.0
H1148 H 0.82446 0.47511 0.53176 0.0
H1149 H 0.88795 0.56248 0.50854 0.0
H1150 H 0.91527 0.57051 0.48894 0.0
H1151 H 0.91376 0.5694 0.53119 0.0
H1152 H 0.92925 0.54017 0.53191 0.0
H1153 H 0.93119 0.54147 0.48956 0.0
H1154 H 0.9145 0.51361 0.50905 0.0
H1155 H 0.82644 0.47756 0.47323 0.0
H1156 H 0.835 0.48802 0.41701 0.0
H1157 H 0.90497 0.54335 0.44179 0.0
C1158 C 0.88259 0.52611 0.56672 0.0
C1159 C 0.86319 0.51273 0.58664 0.0
C1160 C 0.84256 0.4937 0.57384 0.0
C1161 C 0.84068 0.48894 0.54154 0.0
C1162 C 0.85966 0.50316 0.52232 0.0
C1163 C 0.88041 0.52108 0.53444 0.0
C1164 C 0.89744 0.53493 0.50833 0.0
C1165 C 0.90397 0.56085 0.50932 0.0
C1166 C 0.9194 0.53238 0.5098 0.0
C1167 C 0.88265 0.52259 0.47976 0.0
C1168 C 0.86097 0.50422 0.48833 0.0
C1169 C 0.84356 0.49154 0.46615 0.0
C1170 C 0.8485 0.49771 0.43432 0.0
C1171 C 0.8707 0.51632 0.42502 0.0
C1172 C 0.88799 0.52873 0.44812 0.0
H1173 H 0.30946 0.84288 0.55108 0.0
H1174 H 0.37413 0.90361 0.58196 0.0
H1175 H 0.38509 0.91527 0.5265 0.0
H1176 H 0.33229 0.83059 0.47935 0.0
H1177 H 0.30614 0.82281 0.45702 0.0
H1178 H 0.30424 0.81798 0.49892 0.0
H1179 H 0.28374 0.84262 0.50541 0.0
H1180 H 0.28544 0.8474 0.46357 0.0
H1181 H 0.29773 0.87205 0.4901 0.0
H1182 H 0.38851 0.92089 0.46854 0.0
H1183 H 0.38278 0.92283 0.41185 0.0
H1184 H 0.31482 0.8593 0.41796 0.0
C1185 C 0.32609 0.85846 0.54615 0.0
C1186 C 0.3411 0.87225 0.5708 0.0
C1187 C 0.36242 0.8928 0.56345 0.0
C1188 C 0.36885 0.89945 0.53204 0.0
C1189 C 0.35365 0.88547 0.50834 0.0
C1190 C 0.3326 0.86554 0.51497 0.0
C1191 C 0.31862 0.85467 0.4852 0.0
C1192 C 0.31512 0.83005 0.47981 0.0
C1193 C 0.29499 0.85417 0.48614 0.0
C1194 C 0.33499 0.87181 0.46078 0.0
C1195 C 0.35524 0.88918 0.4747 0.0
C1196 C 0.37275 0.90739 0.45737 0.0
C1197 C 0.36926 0.90831 0.42509 0.0
C1198 C 0.34825 0.89126 0.41033 0.0
C1199 C 0.33112 0.87247 0.42841 0.0
H1200 H 0.47443 0.32806 0.54105 0.0
H1201 H 0.47024 0.38629 0.58172 0.0
H1202 H 0.46906 0.40043 0.52805 0.0
H1203 H 0.50987 0.35793 0.47289 0.0
H1204 H 0.49402 0.3332 0.44708 0.0
H1205 H 0.49615 0.32858 0.48845 0.0
H1206 H 0.45082 0.30429 0.49254 0.0
H1207 H 0.44857 0.30863 0.45118 0.0
H1208 H 0.43354 0.31694 0.47941 0.0
H1209 H 0.46873 0.40813 0.47046 0.0
H1210 H 0.4635 0.40648 0.41326 0.0
H1211 H 0.46524 0.34142 0.40981 0.0
C1212 C 0.47349 0.34393 0.53865 0.0
C1213 C 0.47273 0.35634 0.56542 0.0
C1214 C 0.4709 0.37665 0.56145 0.0
C1215 C 0.47039 0.38484 0.53113 0.0
C1216 C 0.4714 0.37228 0.50523 0.0
C1217 C 0.4725 0.35205 0.50869 0.0
C1218 C 0.47158 0.34082 0.47714 0.0
C1219 C 0.49426 0.3401 0.47104 0.0
C1220 C 0.44983 0.31622 0.47494 0.0
C1221 C 0.46966 0.35787 0.45523 0.0
C1222 C 0.47003 0.37608 0.47197 0.0
C1223 C 0.46831 0.39391 0.45715 0.0
C1224 C 0.46536 0.39276 0.4245 0.0
C1225 C 0.46375 0.37367 0.40683 0.0
C1226 C 0.46648 0.35627 0.42247 0.0
H1227 H 0.09384 0.44747 0.56514 0.0
H1228 H 0.15976 0.51327 0.56534 0.0
H1229 H 0.15707 0.51635 0.50805 0.0
H1230 H 0.10379 0.42471 0.50035 0.0
H1231 H 0.0747 0.41097 0.48386 0.0
H1232 H 0.07867 0.41595 0.52555 0.0
H1233 H 0.05681 0.43949 0.52441 0.0
H1234 H 0.05218 0.43408 0.48272 0.0
H1235 H 0.06625 0.46367 0.49748 0.0
H1236 H 0.15229 0.50779 0.45063 0.0
H1237 H 0.14159 0.49137 0.39677 0.0
H1238 H 0.07765 0.4327 0.43328 0.0
C1239 C 0.1071 0.46306 0.55334 0.0
C1240 C 0.12703 0.48006 0.56971 0.0
C1241 C 0.14435 0.49996 0.55328 0.0
C1242 C 0.143 0.50189 0.52068 0.0
C1243 C 0.12398 0.48404 0.50487 0.0
C1244 C 0.10593 0.46535 0.52069 0.0
C1245 C 0.08849 0.4476 0.49776 0.0
C1246 C 0.08631 0.42339 0.50216 0.0
C1247 C 0.06451 0.44614 0.50077 0.0
C1248 C 0.10025 0.45864 0.46681 0.0
C1249 C 0.12069 0.47967 0.47139 0.0
C1250 C 0.13593 0.49173 0.44658 0.0
C1251 C 0.12989 0.4822 0.4162 0.0
C1252 C 0.10871 0.46102 0.411 0.0
C1253 C 0.0937 0.44923 0.43661 0.0
H1254 H 0.66372 0.12951 0.41874 0.0
H1255 H 0.59866 0.06272 0.42179 0.0
H1256 H 0.5974 0.06577 0.47918 0.0
H1257 H 0.68876 0.12124 0.486 0.0
H1258 H 0.70189 0.1509 0.50031 0.0
H1259 H 0.69676 0.14506 0.45884 0.0
H1260 H 0.67242 0.16611 0.45767 0.0
H1261 H 0.67767 0.17223 0.49915 0.0
H1262 H 0.64805 0.15699 0.48438 0.0
H1263 H 0.60558 0.07293 0.53624 0.0
H1264 H 0.62097 0.08627 0.58989 0.0
H1265 H 0.67931 0.1494 0.55091 0.0
C1266 C 0.64893 0.11582 0.4314 0.0
C1267 C 0.63139 0.09583 0.41558 0.0
C1268 C 0.61245 0.07818 0.43319 0.0
C1269 C 0.61149 0.07973 0.4659 0.0
C1270 C 0.62941 0.09919 0.48085 0.0
C1271 C 0.64757 0.11715 0.46425 0.0
C1272 C 0.66506 0.13565 0.48645 0.0
C1273 C 0.68956 0.13835 0.48267 0.0
C1274 C 0.66584 0.15914 0.48162 0.0
C1275 C 0.6542 0.12484 0.51797 0.0
C1276 C 0.63365 0.10379 0.51414 0.0
C1277 C 0.62139 0.08963 0.53964 0.0
C1278 C 0.63031 0.09724 0.56996 0.0
C1279 C 0.65112 0.11893 0.57448 0.0
C1280 C 0.66308 0.13295 0.54812 0.0
H1281 H 0.52132 0.6559 0.40519 0.0
H1282 H 0.5332 0.59676 0.40555 0.0
H1283 H 0.52403 0.59106 0.46209 0.0
H1284 H 0.54878 0.67971 0.4743 0.0
H1285 H 0.52889 0.68914 0.48806 0.0
H1286 H 0.53197 0.68603 0.44659 0.0
H1287 H 0.48721 0.65751 0.44191 0.0
H1288 H 0.48394 0.66072 0.48345 0.0
H1289 H 0.47332 0.632 0.46682 0.0
H1290 H 0.52077 0.59614 0.51991 0.0
H1291 H 0.52084 0.61023 0.57397 0.0
H1292 H 0.50968 0.66495 0.53576 0.0
C1293 C 0.52115 0.64124 0.4169 0.0
C1294 C 0.52801 0.62683 0.40088 0.0
C1295 C 0.52807 0.60812 0.41728 0.0
C1296 C 0.5228 0.60465 0.44944 0.0
C1297 C 0.51716 0.61981 0.46489 0.0
C1298 C 0.51589 0.6375 0.44908 0.0
C1299 C 0.51158 0.6527 0.47171 0.0
C1300 C 0.53149 0.6784 0.47006 0.0
C1301 C 0.48758 0.6506 0.46561 0.0
C1302 C 0.51174 0.64147 0.50271 0.0
C1303 C 0.51474 0.62238 0.49833 0.0
C1304 C 0.5178 0.6107 0.52367 0.0
C1305 C 0.51794 0.61888 0.55427 0.0
C1306 C 0.515 0.63851 0.55918 0.0
C1307 C 0.51145 0.64957 0.53296 0.0
H1308 H 0.4846 0.06443 0.21322 0.0
H1309 H 0.50956 0.13907 0.21431 0.0
H1310 H 0.54622 0.14603 0.24021 0.0
H1311 H 0.50819 0.06207 0.28922 0.0
H1312 H 0.5152 0.04015 0.27659 0.0
H1313 H 0.491 0.04142 0.25895 0.0
H1314 H 0.50928 0.04476 0.20375 0.0
H1315 H 0.53363 0.0437 0.22123 0.0
H1316 H 0.53887 0.06789 0.19618 0.0
H1317 H 0.58152 0.14457 0.26317 0.0
H1318 H 0.61026 0.13454 0.28524 0.0
H1319 H 0.56067 0.0608 0.27022 0.0
C1320 C 0.49768 0.08227 0.21904 0.0
C1321 C 0.49424 0.10123 0.21162 0.0
C1322 C 0.51176 0.12426 0.21989 0.0
C1323 C 0.53268 0.12838 0.23446 0.0
C1324 C 0.53565 0.10926 0.24092 0.0
C1325 C 0.51842 0.08663 0.23382 0.0
C1326 C 0.52563 0.06901 0.24322 0.0
C1327 C 0.50902 0.05218 0.2685 0.0
C1328 C 0.52693 0.05556 0.21437 0.0
C1329 C 0.54974 0.08521 0.25649 0.0
C1330 C 0.55537 0.10838 0.25482 0.0
C1331 C 0.57715 0.12646 0.26485 0.0
C1332 C 0.59341 0.12061 0.27721 0.0
C1333 C 0.58766 0.09689 0.2797 0.0
C1334 C 0.56554 0.0791 0.26903 0.0
H1335 H 0.48142 0.59877 0.26284 0.0
H1336 H 0.5314 0.57533 0.2446 0.0
H1337 H 0.5013 0.54141 0.21532 0.0
H1338 H 0.43275 0.54224 0.2766 0.0
H1339 H 0.41144 0.54783 0.25798 0.0
H1340 H 0.43738 0.5716 0.27531 0.0
H1341 H 0.44785 0.5939 0.22223 0.0
H1342 H 0.42185 0.57022 0.20479 0.0
H1343 H 0.45014 0.57971 0.18718 0.0
H1344 H 0.46568 0.50895 0.1906 0.0
H1345 H 0.42636 0.47982 0.17162 0.0
H1346 H 0.39877 0.52341 0.20623 0.0
C1347 C 0.48609 0.58671 0.25217 0.0
C1348 C 0.50878 0.58974 0.25597 0.0
C1349 C 0.51411 0.57334 0.24214 0.0
C1350 C 0.49716 0.55403 0.22535 0.0
C1351 C 0.47485 0.55123 0.22257 0.0
C1352 C 0.46921 0.56708 0.2355 0.0
C1353 C 0.44349 0.55913 0.23036 0.0
C1354 C 0.43051 0.55495 0.26194 0.0
C1355 C 0.44068 0.57679 0.20992 0.0
C1356 C 0.43563 0.53629 0.21289 0.0
C1357 C 0.45406 0.53219 0.2085 0.0
C1358 C 0.4511 0.51202 0.19367 0.0
C1359 C 0.42866 0.49554 0.183 0.0
C1360 C 0.4094 0.49926 0.18731 0.0
C1361 C 0.41308 0.52001 0.20242 0.0
H1362 H 0.92347 0.49081 0.28506 0.0
H1363 H 0.84922 0.45493 0.30793 0.0
H1364 H 0.84512 0.41788 0.28816 0.0
H1365 H 0.91706 0.46122 0.21288 0.0
H1366 H 0.94362 0.45985 0.21684 0.0
H1367 H 0.9413 0.48318 0.2354 0.0
H1368 H 0.9513 0.47203 0.28929 0.0
H1369 H 0.95363 0.44863 0.27087 0.0
H1370 H 0.93394 0.44247 0.30363 0.0
H1371 H 0.84857 0.38509 0.26445 0.0
H1372 H 0.85883 0.35909 0.23529 0.0
H1373 H 0.93058 0.41634 0.22584 0.0
C1374 C 0.90645 0.47507 0.28632 0.0
C1375 C 0.88669 0.47572 0.29821 0.0
C1376 C 0.86459 0.45486 0.29889 0.0
C1377 C 0.8621 0.4337 0.28786 0.0
C1378 C 0.88183 0.43367 0.27603 0.0
C1379 C 0.90356 0.4538 0.27499 0.0
C1380 C 0.92156 0.44924 0.25913 0.0
C1381 C 0.93146 0.46426 0.22929 0.0
C1382 C 0.94127 0.45333 0.28211 0.0
C1383 C 0.90646 0.42348 0.25112 0.0
C1384 C 0.88368 0.41481 0.26147 0.0
C1385 C 0.86637 0.39164 0.25632 0.0
C1386 C 0.8724 0.37699 0.23973 0.0
C1387 C 0.89551 0.38562 0.22817 0.0
C1388 C 0.91276 0.40915 0.23435 0.0
H1389 H 0.48406 0.9188 0.19784 0.0
H1390 H 0.46125 0.84491 0.20707 0.0
H1391 H 0.4246 0.83839 0.23283 0.0
H1392 H 0.46253 0.92472 0.27279 0.0
H1393 H 0.45439 0.94543 0.2586 0.0
H1394 H 0.47821 0.94375 0.24031 0.0
H1395 H 0.4577 0.93683 0.18615 0.0
H1396 H 0.43373 0.93834 0.20431 0.0
H1397 H 0.42808 0.91295 0.18155 0.0
H1398 H 0.38956 0.84024 0.25639 0.0
H1399 H 0.36158 0.85089 0.27985 0.0
H1400 H 0.40909 0.92378 0.25665 0.0
C1401 C 0.47135 0.90119 0.20513 0.0
C1402 C 0.47542 0.88232 0.20019 0.0
C1403 C 0.45849 0.85963 0.2106 0.0
C1404 C 0.43759 0.85576 0.22512 0.0
C1405 C 0.43407 0.8748 0.22935 0.0
C1406 C 0.45068 0.89711 0.21996 0.0
C1407 C 0.4433 0.91484 0.2281 0.0
C1408 C 0.46063 0.93326 0.25134 0.0
C1409 C 0.44054 0.92641 0.19825 0.0
C1410 C 0.41985 0.89907 0.24348 0.0
C1411 C 0.41461 0.87599 0.24375 0.0
C1412 C 0.39359 0.8583 0.25642 0.0
C1413 C 0.37775 0.86447 0.26955 0.0
C1414 C 0.38321 0.88817 0.27025 0.0
C1415 C 0.40447 0.90553 0.25676 0.0
H1416 H 0.577 0.5125 0.19793 0.0
H1417 H 0.62418 0.48443 0.20184 0.0
H1418 H 0.59273 0.44822 0.22659 0.0
H1419 H 0.54956 0.48994 0.27304 0.0
H1420 H 0.52116 0.4843 0.25993 0.0
H1421 H 0.54736 0.50755 0.24228 0.0
H1422 H 0.53232 0.48926 0.18721 0.0
H1423 H 0.50617 0.46584 0.20472 0.0
H1424 H 0.52452 0.45923 0.18021 0.0
H1425 H 0.55486 0.41413 0.24909 0.0
H1426 H 0.51581 0.38738 0.27231 0.0
H1427 H 0.49493 0.4393 0.25534 0.0
C1428 C 0.58077 0.49875 0.20397 0.0
C1429 C 0.603 0.50121 0.19777 0.0
C1430 C 0.60729 0.48293 0.20645 0.0
C1431 C 0.5895 0.46227 0.22035 0.0
C1432 C 0.56765 0.46032 0.22575 0.0
C1433 C 0.56341 0.47827 0.21821 0.0
C1434 C 0.5388 0.47232 0.22724 0.0
C1435 C 0.53926 0.48955 0.2521 0.0
C1436 C 0.52462 0.47162 0.19811 0.0
C1437 C 0.52971 0.44813 0.24091 0.0
C1438 C 0.54644 0.44132 0.23959 0.0
C1439 C 0.54171 0.41939 0.25041 0.0
C1440 C 0.51945 0.40426 0.26339 0.0
C1441 C 0.50237 0.41129 0.2658 0.0
C1442 C 0.50765 0.43346 0.2541 0.0
H1443 H 0.05304 0.55548 0.21314 0.0
H1444 H 0.12564 0.61117 0.21787 0.0
H1445 H 0.13663 0.58334 0.2405 0.0
H1446 H 0.05323 0.52838 0.28692 0.0
H1447 H 0.03377 0.49914 0.27277 0.0
H1448 H 0.03204 0.52351 0.25674 0.0
H1449 H 0.03791 0.51179 0.20063 0.0
H1450 H 0.03989 0.48752 0.21652 0.0
H1451 H 0.06329 0.50898 0.19233 0.0
H1452 H 0.13967 0.54833 0.26016 0.0
H1453 H 0.13383 0.51069 0.28105 0.0
H1454 H 0.05888 0.4791 0.2659 0.0
C1455 C 0.07126 0.56186 0.21897 0.0
C1456 C 0.08853 0.58545 0.21355 0.0
C1457 C 0.11212 0.59317 0.2219 0.0
C1458 C 0.11853 0.57746 0.23459 0.0
C1459 C 0.10108 0.55421 0.23919 0.0
C1460 C 0.07786 0.54658 0.23211 0.0
C1461 C 0.06228 0.52097 0.24021 0.0
C1462 C 0.04427 0.51783 0.26568 0.0
C1463 C 0.05014 0.50647 0.21066 0.0
C1464 C 0.08034 0.51525 0.25274 0.0
C1465 C 0.10267 0.53453 0.25165 0.0
C1466 C 0.12223 0.53319 0.26133 0.0
C1467 C 0.11877 0.51172 0.27298 0.0
C1468 C 0.09591 0.49201 0.27524 0.0
C1469 C 0.07656 0.49389 0.26471 0.0
H1470 H 0.47257 0.86283 0.77032 0.0
H1471 H 0.45026 0.79019 0.74891 0.0
H1472 H 0.41678 0.78692 0.71892 0.0
H1473 H 0.41504 0.85398 0.78249 0.0
H1474 H 0.42115 0.88141 0.76515 0.0
H1475 H 0.44442 0.87875 0.78328 0.0
H1476 H 0.46846 0.89247 0.73156 0.0
H1477 H 0.44522 0.89515 0.71325 0.0
H1478 H 0.45553 0.8771 0.69541 0.0
H1479 H 0.38543 0.79084 0.69256 0.0
H1480 H 0.35652 0.801 0.67325 0.0
H1481 H 0.39782 0.87094 0.71254 0.0
C1482 C 0.46076 0.84632 0.75904 0.0
C1483 C 0.4641 0.82677 0.7619 0.0
C1484 C 0.44806 0.80538 0.74716 0.0
C1485 C 0.42904 0.80337 0.72993 0.0
C1486 C 0.42616 0.82285 0.72775 0.0
C1487 C 0.44144 0.8439 0.74198 0.0
C1488 C 0.4335 0.86171 0.7372 0.0
C1489 C 0.42821 0.8694 0.76892 0.0
C1490 C 0.45177 0.88286 0.71822 0.0
C1491 C 0.41126 0.84726 0.71831 0.0
C1492 C 0.40758 0.825 0.71292 0.0
C1493 C 0.38812 0.80824 0.69655 0.0
C1494 C 0.37176 0.81423 0.68567 0.0
C1495 C 0.37478 0.8368 0.69134 0.0
C1496 C 0.395 0.85359 0.70767 0.0
H1497 H 0.64109 0.45376 0.75295 0.0
H1498 H 0.61643 0.50355 0.76355 0.0
H1499 H 0.57933 0.47587 0.73822 0.0
H1500 H 0.61389 0.43151 0.6759 0.0
H1501 H 0.60643 0.40179 0.68447 0.0
H1502 H 0.63178 0.42586 0.70256 0.0
H1503 H 0.61547 0.4085 0.75764 0.0
H1504 H 0.59004 0.38445 0.73975 0.0
H1505 H 0.58651 0.40244 0.76875 0.0
H1506 H 0.54397 0.44238 0.71571 0.0
H1507 H 0.5129 0.40543 0.69312 0.0
H1508 H 0.56006 0.37718 0.69422 0.0
C1509 C 0.62797 0.4589 0.74968 0.0
C1510 C 0.6318 0.48091 0.76032 0.0
C1511 C 0.6141 0.48691 0.75558 0.0
C1512 C 0.59285 0.47126 0.74124 0.0
C1513 C 0.58952 0.44969 0.73143 0.0
C1514 C 0.60659 0.4435 0.73506 0.0
C1515 C 0.59819 0.41901 0.72248 0.0
C1516 C 0.61349 0.41959 0.69469 0.0
C1517 C 0.59751 0.40264 0.74873 0.0
C1518 C 0.57366 0.41238 0.71173 0.0
C1519 C 0.56908 0.43037 0.71731 0.0
C1520 C 0.54738 0.42823 0.71086 0.0
C1521 C 0.52981 0.40712 0.69818 0.0
C1522 C 0.5341 0.38849 0.69179 0.0
C1523 C 0.55639 0.39124 0.69852 0.0
H1524 H 0.19193 0.62122 0.78084 0.0
H1525 H 0.11812 0.59823 0.79477 0.0
H1526 H 0.1074 0.56052 0.76961 0.0
H1527 H 0.18471 0.59536 0.70404 0.0
H1528 H 0.20689 0.58729 0.70977 0.0
H1529 H 0.20898 0.61224 0.73017 0.0
H1530 H 0.21109 0.59431 0.78345 0.0
H1531 H 0.20891 0.56925 0.76321 0.0
H1532 H 0.1882 0.56523 0.79381 0.0
H1533 H 0.10445 0.52519 0.74415 0.0
H1534 H 0.10923 0.49546 0.71522 0.0
H1535 H 0.18484 0.54169 0.71479 0.0
C1536 C 0.17354 0.60819 0.7787 0.0
C1537 C 0.15588 0.61263 0.78994 0.0
C1538 C 0.13197 0.59526 0.78631 0.0
C1539 C 0.12568 0.57373 0.77219 0.0
C1540 C 0.14347 0.56988 0.76146 0.0
C1541 C 0.1669 0.58667 0.76415 0.0
C1542 C 0.18242 0.57834 0.74927 0.0
C1543 C 0.19658 0.59425 0.72167 0.0
C1544 C 0.19861 0.57668 0.77391 0.0
C1545 C 0.16403 0.55426 0.73786 0.0
C1546 C 0.14171 0.54968 0.74553 0.0
C1547 C 0.12182 0.52857 0.73787 0.0
C1548 C 0.12476 0.51176 0.7215 0.0
C1549 C 0.14741 0.51624 0.71258 0.0
C1550 C 0.16729 0.53777 0.72112 0.0
H1551 H 0.6318 0.17815 0.70988 0.0
H1552 H 0.60304 0.10274 0.70772 0.0
H1553 H 0.5671 0.09706 0.73341 0.0
H1554 H 0.60862 0.17976 0.78629 0.0
H1555 H 0.60222 0.20252 0.77609 0.0
H1556 H 0.62582 0.20106 0.75665 0.0
H1557 H 0.60718 0.19961 0.70246 0.0
H1558 H 0.58357 0.20114 0.72173 0.0
H1559 H 0.5772 0.17738 0.6951 0.0
H1560 H 0.53428 0.09897 0.75841 0.0
H1561 H 0.5062 0.10847 0.78297 0.0
H1562 H 0.5558 0.18271 0.77128 0.0
C1563 C 0.61787 0.16047 0.71466 0.0
C1564 C 0.62028 0.14091 0.70668 0.0
C1565 C 0.60172 0.11804 0.71363 0.0
C1566 C 0.58116 0.11458 0.7282 0.0
C1567 C 0.5794 0.13415 0.73592 0.0
C1568 C 0.59719 0.15666 0.72956 0.0
C1569 C 0.59072 0.17455 0.74103 0.0
C1570 C 0.60787 0.19041 0.76653 0.0
C1571 C 0.5896 0.18902 0.71343 0.0
C1572 C 0.56652 0.1585 0.75466 0.0
C1573 C 0.5604 0.13529 0.75125 0.0
C1574 C 0.53885 0.11708 0.76133 0.0
C1575 C 0.523 0.12269 0.77521 0.0
C1576 C 0.52878 0.14635 0.77914 0.0
C1577 C 0.55094 0.16448 0.76886 0.0
H1578 H 0.39383 0.52317 0.76463 0.0
H1579 H 0.34307 0.54704 0.7619 0.0
H1580 H 0.37197 0.58312 0.73515 0.0
H1581 H 0.44433 0.57984 0.77995 0.0
H1582 H 0.46388 0.57485 0.75558 0.0
H1583 H 0.43915 0.55051 0.7743 0.0
H1584 H 0.42463 0.53033 0.72013 0.0
H1585 H 0.44935 0.55458 0.70126 0.0
H1586 H 0.41996 0.54589 0.6887 0.0
H1587 H 0.40575 0.61632 0.70829 0.0
H1588 H 0.44292 0.64514 0.68337 0.0
H1589 H 0.47257 0.6007 0.70415 0.0
C1590 C 0.38877 0.53594 0.75832 0.0
C1591 C 0.3661 0.53217 0.76541 0.0
C1592 C 0.36029 0.54945 0.75687 0.0
C1593 C 0.37658 0.57005 0.74161 0.0
C1594 C 0.39873 0.57325 0.7351 0.0
C1595 C 0.40492 0.55677 0.7432 0.0
C1596 C 0.43006 0.56479 0.73364 0.0
C1597 C 0.44525 0.56767 0.7626 0.0
C1598 C 0.43104 0.54789 0.70949 0.0
C1599 C 0.4369 0.58829 0.71884 0.0
C1600 C 0.4185 0.59274 0.71991 0.0
C1601 C 0.42034 0.61309 0.70735 0.0
C1602 C 0.44154 0.62935 0.6932 0.0
C1603 C 0.46074 0.62527 0.69181 0.0
C1604 C 0.45831 0.60445 0.705 0.0
H1605 H 0.81818 0.37708 0.78852 0.0
H1606 H 0.89163 0.39611 0.78917 0.0
H1607 H 0.90255 0.43523 0.76883 0.0
H1608 H 0.82111 0.40664 0.71607 0.0
H1609 H 0.8007 0.4157 0.72885 0.0
H1610 H 0.79867 0.38937 0.74449 0.0
H1611 H 0.80175 0.40535 0.8011 0.0
H1612 H 0.80399 0.43183 0.7856 0.0
H1613 H 0.82641 0.43341 0.81147 0.0
H1614 H 0.90575 0.47242 0.74936 0.0
H1615 H 0.90074 0.50408 0.72694 0.0
H1616 H 0.82513 0.46065 0.73686 0.0
C1617 C 0.83656 0.38949 0.78442 0.0
C1618 C 0.85404 0.38352 0.79056 0.0
C1619 C 0.87789 0.4002 0.78457 0.0
C1620 C 0.88431 0.42254 0.77319 0.0
C1621 C 0.86669 0.42792 0.76764 0.0
C1622 C 0.84329 0.41182 0.77266 0.0
C1623 C 0.82779 0.42181 0.7635 0.0
C1624 C 0.81109 0.40753 0.73663 0.0
C1625 C 0.81419 0.42318 0.79213 0.0
C1626 C 0.84617 0.446 0.75252 0.0
C1627 C 0.8685 0.44923 0.75547 0.0
C1628 C 0.88835 0.47011 0.74685 0.0
C1629 C 0.8853 0.48803 0.73423 0.0
C1630 C 0.86253 0.48489 0.73003 0.0
C1631 C 0.84277 0.46364 0.73972 0.0
loop_
_geom_bond_atom_site_label_1
_geom_bond_atom_site_label_2
_geom_bond_distance
_geom_bond_site_symmetry_2
_ccdc_geom_bond_type
Mg0 O1 2.028 . S
Mg0 O7 1.986 . S
Mg0 O9 2.114 . S
Mg0 O10 2.251 . S
Mg0 O13 2.010 . S
O1 Mg0 2.028 . S
O1 C4 1.250 . S
O2 Mg3 2.028 . S
O2 C4 1.248 . S
Mg3 O2 2.028 . S
Mg3 O8 2.032 . S
Mg3 O10 2.079 . S
C4 O1 1.250 . S
C4 O2 1.248 . S
C5 O6 1.264 . S
C5 O13 1.249 . S
O6 C5 1.264 . S
O7 Mg0 1.986 . S
O7 C11 1.246 . S
O8 Mg3 2.032 . S
O8 C11 1.259 . S
O9 Mg0 2.114 . S
O9 C12 1.252 . S
O10 Mg0 2.251 . S
O10 Mg3 2.079 . S
O10 C12 1.273 . S
C11 O7 1.246 . S
C11 O8 1.259 . S
C12 O9 1.252 . S
C12 O10 1.273 . S
O13 Mg0 2.010 . S
O13 C5 1.249 . S
Mg14 O15 2.028 . S
Mg14 O21 1.986 . S
Mg14 O23 2.114 . S
Mg14 O24 2.251 . S
Mg14 O27 2.010 . S
O15 Mg14 2.028 . S
O15 C18 1.250 . S
O16 Mg17 2.028 . S
O16 C18 1.248 . S
Mg17 O16 2.028 . S
Mg17 O22 2.032 . S
Mg17 O24 2.079 . S
C18 O15 1.250 . S
C18 O16 1.248 . S
C19 O20 1.264 . S
C19 O27 1.249 . S
O20 C19 1.264 . S
O21 Mg14 1.986 . S
O21 C25 1.246 . S
O22 Mg17 2.032 . S
O22 C25 1.259 . S
O23 Mg14 2.114 . S
O23 C26 1.252 . S
O24 Mg14 2.251 . S
O24 Mg17 2.079 . S
O24 C26 1.273 . S
C25 O21 1.246 . S
C25 O22 1.259 . S
C26 O23 1.252 . S
C26 O24 1.273 . S
O27 Mg14 2.010 . S
O27 C19 1.249 . S
Mg28 O29 2.028 . S
Mg28 O35 1.986 . S
Mg28 O37 2.114 . S
Mg28 O38 2.251 . S
Mg28 O41 2.010 . S
O29 Mg28 2.028 . S
O29 C32 1.250 . S
O30 Mg31 2.028 . S
O30 C32 1.248 . S
Mg31 O30 2.028 . S
Mg31 O36 2.032 . S
Mg31 O38 2.079 . S
C32 O29 1.250 . S
C32 O30 1.248 . S
C33 O34 1.264 . S
C33 O41 1.249 . S
O34 C33 1.264 . S
O35 Mg28 1.986 . S
O35 C39 1.246 . S
O36 Mg31 2.032 . S
O36 C39 1.259 . S
O37 Mg28 2.114 . S
O37 C40 1.252 . S
O38 Mg28 2.251 . S
O38 Mg31 2.079 . S
O38 C40 1.273 . S
C39 O35 1.246 . S
C39 O36 1.259 . S
C40 O37 1.252 . S
C40 O38 1.273 . S
O41 Mg28 2.010 . S
O41 C33 1.249 . S
Mg42 O43 2.028 . S
Mg42 O49 1.986 . S
Mg42 O51 2.114 . S
Mg42 O52 2.251 . S
Mg42 O55 2.010 . S
O43 Mg42 2.028 . S
O43 C46 1.250 . S
O44 Mg45 2.028 . S
O44 C46 1.248 . S
Mg45 O44 2.028 . S
Mg45 O50 2.032 . S
Mg45 O52 2.079 . S
C46 O43 1.250 . S
C46 O44 1.248 . S
C47 O48 1.264 . S
C47 O55 1.249 . S
O48 C47 1.264 . S
O49 Mg42 1.986 . S
O49 C53 1.246 . S
O50 Mg45 2.032 . S
O50 C53 1.259 . S
O51 Mg42 2.114 . S
O51 C54 1.252 . S
O52 Mg42 2.251 . S
O52 Mg45 2.079 . S
O52 C54 1.273 . S
C53 O49 1.246 . S
C53 O50 1.259 . S
C54 O51 1.252 . S
C54 O52 1.273 . S
O55 Mg42 2.010 . S
O55 C47 1.249 . S
Mg56 O57 2.028 . S
Mg56 O63 1.986 . S
Mg56 O65 2.114 . S
Mg56 O66 2.251 . S
Mg56 O69 2.010 . S
O57 Mg56 2.028 . S
O57 C60 1.250 . S
O58 Mg59 2.028 . S
O58 C60 1.248 . S
Mg59 O58 2.028 . S
Mg59 O64 2.032 . S
Mg59 O66 2.079 . S
C60 O57 1.250 . S
C60 O58 1.248 . S
C61 O62 1.264 . S
C61 O69 1.249 . S
O62 C61 1.264 . S
O63 Mg56 1.986 . S
O63 C67 1.246 . S
O64 Mg59 2.032 . S
O64 C67 1.259 . S
O65 Mg56 2.114 . S
O65 C68 1.252 . S
O66 Mg56 2.251 . S
O66 Mg59 2.079 . S
O66 C68 1.273 . S
C67 O63 1.246 . S
C67 O64 1.259 . S
C68 O65 1.252 . S
C68 O66 1.273 . S
O69 Mg56 2.010 . S
O69 C61 1.249 . S
Mg70 O71 2.028 . S
Mg70 O77 1.986 . S
Mg70 O79 2.114 . S
Mg70 O80 2.251 . S
Mg70 O83 2.010 . S
O71 Mg70 2.028 . S
O71 C74 1.250 . S
O72 Mg73 2.028 . S
O72 C74 1.248 . S
Mg73 O72 2.028 . S
Mg73 O78 2.032 . S
Mg73 O80 2.079 . S
C74 O71 1.250 . S
C74 O72 1.248 . S
C75 O76 1.264 . S
C75 O83 1.249 . S
O76 C75 1.264 . S
O77 Mg70 1.986 . S
O77 C81 1.246 . S
O78 Mg73 2.032 . S
O78 C81 1.259 . S
O79 Mg70 2.114 . S
O79 C82 1.252 . S
O80 Mg70 2.251 . S
O80 Mg73 2.079 . S
O80 C82 1.273 . S
C81 O77 1.246 . S
C81 O78 1.259 . S
C82 O79 1.252 . S
C82 O80 1.273 . S
O83 Mg70 2.010 . S
O83 C75 1.249 . S
Mg84 O85 2.028 . S
Mg84 O91 1.986 . S
Mg84 O93 2.114 . S
Mg84 O94 2.251 . S
Mg84 O97 2.010 . S
O85 Mg84 2.028 . S
O85 C88 1.250 . S
O86 Mg87 2.028 . S
O86 C88 1.248 . S
Mg87 O86 2.028 . S
Mg87 O92 2.032 . S
Mg87 O94 2.079 . S
C88 O85 1.250 . S
C88 O86 1.248 . S
C89 O90 1.264 . S
C89 O97 1.249 . S
O90 C89 1.264 . S
O91 Mg84 1.986 . S
O91 C95 1.246 . S
O92 Mg87 2.032 . S
O92 C95 1.259 . S
O93 Mg84 2.114 . S
O93 C96 1.252 . S
O94 Mg84 2.251 . S
O94 Mg87 2.079 . S
O94 C96 1.273 . S
C95 O91 1.246 . S
C95 O92 1.259 . S
C96 O93 1.252 . S
C96 O94 1.273 . S
O97 Mg84 2.010 . S
O97 C89 1.249 . S
Mg98 O99 2.028 . S
Mg98 O105 1.986 . S
Mg98 O107 2.114 . S
Mg98 O108 2.251 . S
Mg98 O111 2.010 . S
O99 Mg98 2.028 . S
O99 C102 1.250 . S
O100 Mg101 2.028 . S
O100 C102 1.248 . S
Mg101 O100 2.028 . S
Mg101 O106 2.032 . S
Mg101 O108 2.079 . S
C102 O99 1.250 . S
C102 O100 1.248 . S
C103 O104 1.264 . S
C103 O111 1.249 . S
O104 C103 1.264 . S
O105 Mg98 1.986 . S
O105 C109 1.246 . S
O106 Mg101 2.032 . S
O106 C109 1.259 . S
O107 Mg98 2.114 . S
O107 C110 1.252 . S
O108 Mg98 2.251 . S
O108 Mg101 2.079 . S
O108 C110 1.273 . S
C109 O105 1.246 . S
C109 O106 1.259 . S
C110 O107 1.252 . S
C110 O108 1.273 . S
O111 Mg98 2.010 . S
O111 C103 1.249 . S
Mg112 O113 2.028 . S
Mg112 O119 1.986 . S
Mg112 O121 2.114 . S
Mg112 O122 2.251 . S
Mg112 O125 2.010 . S
O113 Mg112 2.028 . S
O113 C116 1.250 . S
O114 Mg115 2.028 . S
O114 C116 1.248 . S
Mg115 O114 2.028 . S
Mg115 O120 2.032 . S
Mg115 O122 2.079 . S
C116 O113 1.250 . S
C116 O114 1.248 . S
C117 O118 1.264 . S
C117 O125 1.249 . S
O118 C117 1.264 . S
O119 Mg112 1.986 . S
O119 C123 1.246 . S
O120 Mg115 2.032 . S
O120 C123 1.259 . S
O121 Mg112 2.114 . S
O121 C124 1.252 . S
O122 Mg112 2.251 . S
O122 Mg115 2.079 . S
O122 C124 1.273 . S
C123 O119 1.246 . S
C123 O120 1.259 . S
C124 O121 1.252 . S
C124 O122 1.273 . S
O125 Mg112 2.010 . S
O125 C117 1.249 . S
Mg126 O127 2.028 . S
Mg126 O133 1.986 . S
Mg126 O135 2.114 . S
Mg126 O136 2.251 . S
Mg126 O139 2.010 . S
O127 Mg126 2.028 . S
O127 C130 1.250 . S
O128 Mg129 2.028 . S
O128 C130 1.248 . S
Mg129 O128 2.028 . S
Mg129 O134 2.032 . S
Mg129 O136 2.079 . S
C130 O127 1.250 . S
C130 O128 1.248 . S
C131 O132 1.264 . S
C131 O139 1.249 . S
O132 C131 1.264 . S
O133 Mg126 1.986 . S
O133 C137 1.246 . S
O134 Mg129 2.032 . S
O134 C137 1.259 . S
O135 Mg126 2.114 . S
O135 C138 1.252 . S
O136 Mg126 2.251 . S
O136 Mg129 2.079 . S
O136 C138 1.273 . S
C137 O133 1.246 . S
C137 O134 1.259 . S
C138 O135 1.252 . S
C138 O136 1.273 . S
O139 Mg126 2.010 . S
O139 C131 1.249 . S
Mg140 O141 2.028 . S
Mg140 O147 1.986 . S
Mg140 O149 2.114 . S
Mg140 O150 2.251 . S
Mg140 O153 2.010 . S
O141 Mg140 2.028 . S
O141 C144 1.250 . S
O142 Mg143 2.028 . S
O142 C144 1.248 . S
Mg143 O142 2.028 . S
Mg143 O148 2.032 . S
Mg143 O150 2.079 . S
C144 O141 1.250 . S
C144 O142 1.248 . S
C145 O146 1.264 . S
C145 O153 1.249 . S
O146 C145 1.264 . S
O147 Mg140 1.986 . S
O147 C151 1.246 . S
O148 Mg143 2.032 . S
O148 C151 1.259 . S
O149 Mg140 2.114 . S
O149 C152 1.252 . S
O150 Mg140 2.251 . S
O150 Mg143 2.079 . S
O150 C152 1.273 . S
C151 O147 1.246 . S
C151 O148 1.259 . S
C152 O149 1.252 . S
C152 O150 1.273 . S
O153 Mg140 2.010 . S
O153 C145 1.249 . S
Mg154 O155 2.028 . S
Mg154 O161 1.986 . S
Mg154 O163 2.114 . S
Mg154 O164 2.251 . S
Mg154 O167 2.010 . S
O155 Mg154 2.028 . S
O155 C158 1.250 . S
O156 Mg157 2.028 . S
O156 C158 1.248 . S
Mg157 O156 2.028 . S
Mg157 O162 2.032 . S
Mg157 O164 2.079 . S
C158 O155 1.250 . S
C158 O156 1.248 . S
C159 O160 1.264 . S
C159 O167 1.249 . S
O160 C159 1.264 . S
O161 Mg154 1.986 . S
O161 C165 1.246 . S
O162 Mg157 2.032 . S
O162 C165 1.259 . S
O163 Mg154 2.114 . S
O163 C166 1.252 . S
O164 Mg154 2.251 . S
O164 Mg157 2.079 . S
O164 C166 1.273 . S
C165 O161 1.246 . S
C165 O162 1.259 . S
C166 O163 1.252 . S
C166 O164 1.273 . S
O167 Mg154 2.010 . S
O167 C159 1.249 . S
Mg168 O169 2.028 . S
Mg168 O175 1.986 . S
Mg168 O177 2.114 . S
Mg168 O178 2.251 . S
Mg168 O181 2.010 . S
O169 Mg168 2.028 . S
O169 C172 1.250 . S
O170 Mg171 2.028 . S
O170 C172 1.248 . S
Mg171 O170 2.028 . S
Mg171 O176 2.032 . S
Mg171 O178 2.079 . S
C172 O169 1.250 . S
C172 O170 1.248 . S
C173 O174 1.264 . S
C173 O181 1.249 . S
O174 C173 1.264 . S
O175 Mg168 1.986 . S
O175 C179 1.246 . S
O176 Mg171 2.032 . S
O176 C179 1.259 . S
O177 Mg168 2.114 . S
O177 C180 1.252 . S
O178 Mg168 2.251 . S
O178 Mg171 2.079 . S
O178 C180 1.273 . S
C179 O175 1.246 . S
C179 O176 1.259 . S
C180 O177 1.252 . S
C180 O178 1.273 . S
O181 Mg168 2.010 . S
O181 C173 1.249 . S
Mg182 O183 2.028 . S
Mg182 O189 1.986 . S
Mg182 O191 2.114 . S
Mg182 O192 2.251 . S
Mg182 O195 2.010 . S
O183 Mg182 2.028 . S
O183 C186 1.250 . S
O184 Mg185 2.028 . S
O184 C186 1.248 . S
Mg185 O184 2.028 . S
Mg185 O190 2.032 . S
Mg185 O192 2.079 . S
C186 O183 1.250 . S
C186 O184 1.248 . S
C187 O188 1.264 . S
C187 O195 1.249 . S
O188 C187 1.264 . S
O189 Mg182 1.986 . S
O189 C193 1.246 . S
O190 Mg185 2.032 . S
O190 C193 1.259 . S
O191 Mg182 2.114 . S
O191 C194 1.252 . S
O192 Mg182 2.251 . S
O192 Mg185 2.079 . S
O192 C194 1.273 . S
C193 O189 1.246 . S
C193 O190 1.259 . S
C194 O191 1.252 . S
C194 O192 1.273 . S
O195 Mg182 2.010 . S
O195 C187 1.249 . S
Mg196 O197 2.028 . S
Mg196 O203 1.986 . S
Mg196 O205 2.114 . S
Mg196 O206 2.251 . S
Mg196 O209 2.010 . S
O197 Mg196 2.028 . S
O197 C200 1.250 . S
O198 Mg199 2.028 . S
O198 C200 1.248 . S
Mg199 O198 2.028 . S
Mg199 O204 2.032 . S
Mg199 O206 2.079 . S
C200 O197 1.250 . S
C200 O198 1.248 . S
C201 O202 1.264 . S
C201 O209 1.249 . S
O202 C201 1.264 . S
O203 Mg196 1.986 . S
O203 C207 1.246 . S
O204 Mg199 2.032 . S
O204 C207 1.259 . S
O205 Mg196 2.114 . S
O205 C208 1.252 . S
O206 Mg196 2.251 . S
O206 Mg199 2.079 . S
O206 C208 1.273 . S
C207 O203 1.246 . S
C207 O204 1.259 . S
C208 O205 1.252 . S
C208 O206 1.273 . S
O209 Mg196 2.010 . S
O209 C201 1.249 . S
Mg210 O211 2.028 . S
Mg210 O217 1.986 . S
Mg210 O219 2.114 . S
Mg210 O220 2.251 . S
Mg210 O223 2.010 . S
O211 Mg210 2.028 . S
O211 C214 1.250 . S
O212 Mg213 2.028 . S
O212 C214 1.248 . S
Mg213 O212 2.028 . S
Mg213 O218 2.032 . S
Mg213 O220 2.079 . S
C214 O211 1.250 . S
C214 O212 1.248 . S
C215 O216 1.264 . S
C215 O223 1.249 . S
O216 C215 1.264 . S
O217 Mg210 1.986 . S
O217 C221 1.246 . S
O218 Mg213 2.032 . S
O218 C221 1.259 . S
O219 Mg210 2.114 . S
O219 C222 1.252 . S
O220 Mg210 2.251 . S
O220 Mg213 2.079 . S
O220 C222 1.273 . S
C221 O217 1.246 . S
C221 O218 1.259 . S
C222 O219 1.252 . S
C222 O220 1.273 . S
O223 Mg210 2.010 . S
O223 C215 1.249 . S
Mg224 O225 2.028 . S
Mg224 O231 1.986 . S
Mg224 O233 2.114 . S
Mg224 O234 2.251 . S
Mg224 O237 2.010 . S
O225 Mg224 2.028 . S
O225 C228 1.250 . S
O226 Mg227 2.028 . S
O226 C228 1.248 . S
Mg227 O226 2.028 . S
Mg227 O232 2.032 . S
Mg227 O234 2.079 . S
C228 O225 1.250 . S
C228 O226 1.248 . S
C229 O230 1.264 . S
C229 O237 1.249 . S
O230 C229 1.264 . S
O231 Mg224 1.986 . S
O231 C235 1.246 . S
O232 Mg227 2.032 . S
O232 C235 1.259 . S
O233 Mg224 2.114 . S
O233 C236 1.252 . S
O234 Mg224 2.251 . S
O234 Mg227 2.079 . S
O234 C236 1.273 . S
C235 O231 1.246 . S
C235 O232 1.259 . S
C236 O233 1.252 . S
C236 O234 1.273 . S
O237 Mg224 2.010 . S
O237 C229 1.249 . S
Mg238 O239 2.028 . S
Mg238 O245 1.986 . S
Mg238 O247 2.114 . S
Mg238 O248 2.251 . S
Mg238 O251 2.010 . S
O239 Mg238 2.028 . S
O239 C242 1.250 . S
O240 Mg241 2.028 . S
O240 C242 1.248 . S
Mg241 O240 2.028 . S
Mg241 O246 2.032 . S
Mg241 O248 2.079 . S
C242 O239 1.250 . S
C242 O240 1.248 . S
C243 O244 1.264 . S
C243 O251 1.249 . S
O244 C243 1.264 . S
O245 Mg238 1.986 . S
O245 C249 1.246 . S
O246 Mg241 2.032 . S
O246 C249 1.259 . S
O247 Mg238 2.114 . S
O247 C250 1.252 . S
O248 Mg238 2.251 . S
O248 Mg241 2.079 . S
O248 C250 1.273 . S
C249 O245 1.246 . S
C249 O246 1.259 . S
C250 O247 1.252 . S
C250 O248 1.273 . S
O251 Mg238 2.010 . S
O251 C243 1.249 . S
Mg252 O253 2.028 . S
Mg252 O259 1.986 . S
Mg252 O261 2.114 . S
Mg252 O262 2.251 . S
Mg252 O265 2.010 . S
O253 Mg252 2.028 . S
O253 C256 1.250 . S
O254 Mg255 2.028 . S
O254 C256 1.248 . S
Mg255 O254 2.028 . S
Mg255 O260 2.032 . S
Mg255 O262 2.079 . S
C256 O253 1.250 . S
C256 O254 1.248 . S
C257 O258 1.264 . S
C257 O265 1.249 . S
O258 C257 1.264 . S
O259 Mg252 1.986 . S
O259 C263 1.246 . S
O260 Mg255 2.032 . S
O260 C263 1.259 . S
O261 Mg252 2.114 . S
O261 C264 1.252 . S
O262 Mg252 2.251 . S
O262 Mg255 2.079 . S
O262 C264 1.273 . S
C263 O259 1.246 . S
C263 O260 1.259 . S
C264 O261 1.252 . S
C264 O262 1.273 . S
O265 Mg252 2.010 . S
O265 C257 1.249 . S
Mg266 O267 2.028 . S
Mg266 O273 1.986 . S
Mg266 O275 2.114 . S
Mg266 O276 2.251 . S
Mg266 O279 2.010 . S
O267 Mg266 2.028 . S
O267 C270 1.250 . S
O268 Mg269 2.028 . S
O268 C270 1.248 . S
Mg269 O268 2.028 . S
Mg269 O274 2.032 . S
Mg269 O276 2.079 . S
C270 O267 1.250 . S
C270 O268 1.248 . S
C271 O272 1.264 . S
C271 O279 1.249 . S
O272 C271 1.264 . S
O273 Mg266 1.986 . S
O273 C277 1.246 . S
O274 Mg269 2.032 . S
O274 C277 1.259 . S
O275 Mg266 2.114 . S
O275 C278 1.252 . S
O276 Mg266 2.251 . S
O276 Mg269 2.079 . S
O276 C278 1.273 . S
C277 O273 1.246 . S
C277 O274 1.259 . S
C278 O275 1.252 . S
C278 O276 1.273 . S
O279 Mg266 2.010 . S
O279 C271 1.249 . S
Mg280 O281 2.028 . S
Mg280 O287 1.986 . S
Mg280 O289 2.114 . S
Mg280 O290 2.251 . S
Mg280 O293 2.010 . S
O281 Mg280 2.028 . S
O281 C284 1.250 . S
O282 Mg283 2.028 . S
O282 C284 1.248 . S
Mg283 O282 2.028 . S
Mg283 O288 2.032 . S
Mg283 O290 2.079 . S
C284 O281 1.250 . S
C284 O282 1.248 . S
C285 O286 1.264 . S
C285 O293 1.249 . S
O286 C285 1.264 . S
O287 Mg280 1.986 . S
O287 C291 1.246 . S
O288 Mg283 2.032 . S
O288 C291 1.259 . S
O289 Mg280 2.114 . S
O289 C292 1.252 . S
O290 Mg280 2.251 . S
O290 Mg283 2.079 . S
O290 C292 1.273 . S
C291 O287 1.246 . S
C291 O288 1.259 . S
C292 O289 1.252 . S
C292 O290 1.273 . S
O293 Mg280 2.010 . S
O293 C285 1.249 . S
Mg294 O295 2.028 . S
Mg294 O301 1.986 . S
Mg294 O303 2.114 . S
Mg294 O304 2.251 . S
Mg294 O307 2.010 . S
O295 Mg294 2.028 . S
O295 C298 1.250 . S
O296 Mg297 2.028 . S
O296 C298 1.248 . S
Mg297 O296 2.028 . S
Mg297 O302 2.032 . S
Mg297 O304 2.079 . S
C298 O295 1.250 . S
C298 O296 1.248 . S
C299 O300 1.264 . S
C299 O307 1.249 . S
O300 C299 1.264 . S
O301 Mg294 1.986 . S
O301 C305 1.246 . S
O302 Mg297 2.032 . S
O302 C305 1.259 . S
O303 Mg294 2.114 . S
O303 C306 1.252 . S
O304 Mg294 2.251 . S
O304 Mg297 2.079 . S
O304 C306 1.273 . S
C305 O301 1.246 . S
C305 O302 1.259 . S
C306 O303 1.252 . S
C306 O304 1.273 . S
O307 Mg294 2.010 . S
O307 C299 1.249 . S
Mg308 O309 2.028 . S
Mg308 O315 1.986 . S
Mg308 O317 2.114 . S
Mg308 O318 2.251 . S
Mg308 O321 2.010 . S
O309 Mg308 2.028 . S
O309 C312 1.250 . S
O310 Mg311 2.028 . S
O310 C312 1.248 . S
Mg311 O310 2.028 . S
Mg311 O316 2.032 . S
Mg311 O318 2.079 . S
C312 O309 1.250 . S
C312 O310 1.248 . S
C313 O314 1.264 . S
C313 O321 1.249 . S
O314 C313 1.264 . S
O315 Mg308 1.986 . S
O315 C319 1.246 . S
O316 Mg311 2.032 . S
O316 C319 1.259 . S
O317 Mg308 2.114 . S
O317 C320 1.252 . S
O318 Mg308 2.251 . S
O318 Mg311 2.079 . S
O318 C320 1.273 . S
C319 O315 1.246 . S
C319 O316 1.259 . S
C320 O317 1.252 . S
C320 O318 1.273 . S
O321 Mg308 2.010 . S
O321 C313 1.249 . S
Mg322 O323 2.028 . S
Mg322 O329 1.986 . S
Mg322 O331 2.114 . S
Mg322 O332 2.251 . S
Mg322 O335 2.010 . S
O323 Mg322 2.028 . S
O323 C326 1.250 . S
O324 Mg325 2.028 . S
O324 C326 1.248 . S
Mg325 O324 2.028 . S
Mg325 O330 2.032 . S
Mg325 O332 2.079 . S
C326 O323 1.250 . S
C326 O324 1.248 . S
C327 O328 1.264 . S
C327 O335 1.249 . S
O328 C327 1.264 . S
O329 Mg322 1.986 . S
O329 C333 1.246 . S
O330 Mg325 2.032 . S
O330 C333 1.259 . S
O331 Mg322 2.114 . S
O331 C334 1.252 . S
O332 Mg322 2.251 . S
O332 Mg325 2.079 . S
O332 C334 1.273 . S
C333 O329 1.246 . S
C333 O330 1.259 . S
C334 O331 1.252 . S
C334 O332 1.273 . S
O335 Mg322 2.010 . S
O335 C327 1.249 . S
H336 C348 0.930 . S
H337 C350 0.930 . S
H338 C351 0.930 . S
H339 C355 0.959 . S
H340 C355 0.959 . S
H341 C355 0.961 . S
H342 C356 0.960 . S
H343 C356 0.961 . S
H344 C356 0.959 . S
H345 C359 0.929 . S
H346 C360 0.931 . S
H347 C362 0.930 . S
C348 H336 0.930 . S
C348 C349 1.399 . S
C348 C353 1.399 . S
C349 C348 1.399 . S
C349 C350 1.376 . S
C350 H337 0.930 . S
C350 C349 1.376 . S
C350 C351 1.388 . S
C351 H338 0.930 . S
C351 C350 1.388 . S
C351 C352 1.390 . S
C352 C351 1.390 . S
C352 C353 1.394 . S
C352 C358 1.465 1_545 S
C353 C348 1.399 . S
C353 C352 1.394 . S
C353 C354 1.516 . S
C354 C353 1.516 . S
C354 C355 1.502 . S
C354 C356 1.561 . S
C354 C357 1.526 1_545 S
C355 H339 0.959 . S
C355 H340 0.959 . S
C355 H341 0.961 . S
C355 C354 1.502 . S
C356 H342 0.960 . S
C356 H343 0.961 . S
C356 H344 0.959 . S
C356 C354 1.561 . S
C357 C354 1.526 1_565 S
C357 C358 1.396 . S
C357 C362 1.390 . S
C358 C352 1.465 1_565 S
C358 C357 1.396 . S
C358 C359 1.399 . S
C359 H345 0.929 . S
C359 C358 1.399 . S
C359 C360 1.385 . S
C360 H346 0.931 . S
C360 C359 1.385 . S
C360 C361 1.389 . S
C361 C360 1.389 . S
C361 C362 1.387 . S
C362 H347 0.930 . S
C362 C357 1.390 . S
C362 C361 1.387 . S
H363 C375 0.930 . S
H364 C377 0.930 . S
H365 C378 0.930 . S
H366 C382 0.959 . S
H367 C382 0.959 . S
H368 C382 0.961 . S
H369 C383 0.960 . S
H370 C383 0.961 . S
H371 C383 0.959 . S
H372 C386 0.929 . S
H373 C387 0.931 . S
H374 C389 0.930 . S
C375 H363 0.930 . S
C375 C376 1.399 . S
C375 C380 1.399 . S
C376 C375 1.399 . S
C376 C377 1.376 . S
C377 H364 0.930 . S
C377 C376 1.376 . S
C377 C378 1.388 . S
C378 H365 0.930 . S
C378 C377 1.388 . S
C378 C379 1.390 . S
C379 C378 1.390 . S
C379 C380 1.394 . S
C379 C385 1.465 . S
C380 C375 1.399 . S
C380 C379 1.394 . S
C380 C381 1.516 . S
C381 C380 1.516 . S
C381 C382 1.502 . S
C381 C383 1.561 . S
C381 C384 1.526 . S
C382 H366 0.959 . S
C382 H367 0.959 . S
C382 H368 0.961 . S
C382 C381 1.502 . S
C383 H369 0.960 . S
C383 H370 0.961 . S
C383 H371 0.959 . S
C383 C381 1.561 . S
C384 C381 1.526 . S
C384 C385 1.396 . S
C384 C389 1.390 . S
C385 C379 1.465 . S
C385 C384 1.396 . S
C385 C386 1.399 . S
C386 H372 0.929 . S
C386 C385 1.399 . S
C386 C387 1.385 . S
C387 H373 0.931 . S
C387 C386 1.385 . S
C387 C388 1.389 . S
C388 C387 1.389 . S
C388 C389 1.387 . S
C389 H374 0.930 . S
C389 C384 1.390 . S
C389 C388 1.387 . S
H390 C402 0.930 . S
H391 C404 0.930 . S
H392 C405 0.930 . S
H393 C409 0.959 . S
H394 C409 0.959 . S
H395 C409 0.961 . S
H396 C410 0.960 . S
H397 C410 0.961 . S
H398 C410 0.959 . S
H399 C413 0.929 . S
H400 C414 0.931 . S
H401 C416 0.930 . S
C402 H390 0.930 . S
C402 C403 1.399 . S
C402 C407 1.399 . S
C403 C402 1.399 . S
C403 C404 1.376 . S
C404 H391 0.930 . S
C404 C403 1.376 . S
C404 C405 1.388 . S
C405 H392 0.930 . S
C405 C404 1.388 . S
C405 C406 1.390 . S
C406 C405 1.390 . S
C406 C407 1.394 . S
C406 C412 1.465 1_655 S
C407 C402 1.399 . S
C407 C406 1.394 . S
C407 C408 1.516 . S
C408 C407 1.516 . S
C408 C409 1.502 . S
C408 C410 1.561 . S
C408 C411 1.526 1_655 S
C409 H393 0.959 . S
C409 H394 0.959 . S
C409 H395 0.961 . S
C409 C408 1.502 . S
C410 H396 0.960 . S
C410 H397 0.961 . S
C410 H398 0.959 . S
C410 C408 1.561 . S
C411 C408 1.526 1_455 S
C411 C412 1.396 . S
C411 C416 1.390 . S
C412 C406 1.465 1_455 S
C412 C411 1.396 . S
C412 C413 1.399 . S
C413 H399 0.929 . S
C413 C412 1.399 . S
C413 C414 1.385 . S
C414 H400 0.931 . S
C414 C413 1.385 . S
C414 C415 1.389 . S
C415 C414 1.389 . S
C415 C416 1.387 . S
C416 H401 0.930 . S
C416 C411 1.390 . S
C416 C415 1.387 . S
H417 C429 0.930 . S
H418 C431 0.930 . S
H419 C432 0.930 . S
H420 C436 0.959 . S
H421 C436 0.959 . S
H422 C436 0.961 . S
H423 C437 0.960 . S
H424 C437 0.961 . S
H425 C437 0.959 . S
H426 C440 0.929 . S
H427 C441 0.931 . S
H428 C443 0.930 . S
C429 H417 0.930 . S
C429 C430 1.399 . S
C429 C434 1.399 . S
C430 C429 1.399 . S
C430 C431 1.376 . S
C431 H418 0.930 . S
C431 C430 1.376 . S
C431 C432 1.388 . S
C432 H419 0.930 . S
C432 C431 1.388 . S
C432 C433 1.390 . S
C433 C432 1.390 . S
C433 C434 1.394 . S
C433 C439 1.465 1_565 S
C434 C429 1.399 . S
C434 C433 1.394 . S
C434 C435 1.516 . S
C435 C434 1.516 . S
C435 C436 1.502 . S
C435 C437 1.561 . S
C435 C438 1.526 1_565 S
C436 H420 0.959 . S
C436 H421 0.959 . S
C436 H422 0.961 . S
C436 C435 1.502 . S
C437 H423 0.960 . S
C437 H424 0.961 . S
C437 H425 0.959 . S
C437 C435 1.561 . S
C438 C435 1.526 1_545 S
C438 C439 1.396 . S
C438 C443 1.390 . S
C439 C433 1.465 1_545 S
C439 C438 1.396 . S
C439 C440 1.399 . S
C440 H426 0.929 . S
C440 C439 1.399 . S
C440 C441 1.385 . S
C441 H427 0.931 . S
C441 C440 1.385 . S
C441 C442 1.389 . S
C442 C441 1.389 . S
C442 C443 1.387 . S
C443 H428 0.930 . S
C443 C438 1.390 . S
C443 C442 1.387 . S
H444 C456 0.930 . S
H445 C458 0.930 . S
H446 C459 0.930 . S
H447 C463 0.959 . S
H448 C463 0.959 . S
H449 C463 0.961 . S
H450 C464 0.960 . S
H451 C464 0.961 . S
H452 C464 0.959 . S
H453 C467 0.929 . S
H454 C468 0.931 . S
H455 C470 0.930 . S
C456 H444 0.930 . S
C456 C457 1.399 . S
C456 C461 1.399 . S
C457 C456 1.399 . S
C457 C458 1.376 . S
C458 H445 0.930 . S
C458 C457 1.376 . S
C458 C459 1.388 . S
C459 H446 0.930 . S
C459 C458 1.388 . S
C459 C460 1.390 . S
C460 C459 1.390 . S
C460 C461 1.394 . S
C460 C466 1.465 . S
C461 C456 1.399 . S
C461 C460 1.394 . S
C461 C462 1.516 . S
C462 C461 1.516 . S
C462 C463 1.502 . S
C462 C464 1.561 . S
C462 C465 1.526 . S
C463 H447 0.959 . S
C463 H448 0.959 . S
C463 H449 0.961 . S
C463 C462 1.502 . S
C464 H450 0.960 . S
C464 H451 0.961 . S
C464 H452 0.959 . S
C464 C462 1.561 . S
C465 C462 1.526 . S
C465 C466 1.396 . S
C465 C470 1.390 . S
C466 C460 1.465 . S
C466 C465 1.396 . S
C466 C467 1.399 . S
C467 H453 0.929 . S
C467 C466 1.399 . S
C467 C468 1.385 . S
C468 H454 0.931 . S
C468 C467 1.385 . S
C468 C469 1.389 . S
C469 C468 1.389 . S
C469 C470 1.387 . S
C470 H455 0.930 . S
C470 C465 1.390 . S
C470 C469 1.387 . S
H471 C483 0.930 . S
H472 C485 0.930 . S
H473 C486 0.930 . S
H474 C490 0.959 . S
H475 C490 0.959 . S
H476 C490 0.961 . S
H477 C491 0.960 . S
H478 C491 0.961 . S
H479 C491 0.959 . S
H480 C494 0.929 . S
H481 C495 0.931 . S
H482 C497 0.930 . S
C483 H471 0.930 . S
C483 C484 1.399 . S
C483 C488 1.399 . S
C484 C483 1.399 . S
C484 C485 1.376 . S
C485 H472 0.930 . S
C485 C484 1.376 . S
C485 C486 1.388 . S
C486 H473 0.930 . S
C486 C485 1.388 . S
C486 C487 1.390 . S
C487 C486 1.390 . S
C487 C488 1.394 . S
C487 C493 1.465 1_455 S
C488 C483 1.399 . S
C488 C487 1.394 . S
C488 C489 1.516 . S
C489 C488 1.516 . S
C489 C490 1.502 . S
C489 C491 1.561 . S
C489 C492 1.526 1_455 S
C490 H474 0.959 . S
C490 H475 0.959 . S
C490 H476 0.961 . S
C490 C489 1.502 . S
C491 H477 0.960 . S
C491 H478 0.961 . S
C491 H479 0.959 . S
C491 C489 1.561 . S
C492 C489 1.526 1_655 S
C492 C493 1.396 . S
C492 C497 1.390 . S
C493 C487 1.465 1_655 S
C493 C492 1.396 . S
C493 C494 1.399 . S
C494 H480 0.929 . S
C494 C493 1.399 . S
C494 C495 1.385 . S
C495 H481 0.931 . S
C495 C494 1.385 . S
C495 C496 1.389 . S
C496 C495 1.389 . S
C496 C497 1.387 . S
C497 H482 0.930 . S
C497 C492 1.390 . S
C497 C496 1.387 . S
H498 C510 0.930 . S
H499 C512 0.930 . S
H500 C513 0.930 . S
H501 C517 0.959 . S
H502 C517 0.959 . S
H503 C517 0.961 . S
H504 C518 0.960 . S
H505 C518 0.961 . S
H506 C518 0.959 . S
H507 C521 0.929 . S
H508 C522 0.931 . S
H509 C524 0.930 . S
C510 H498 0.930 . S
C510 C511 1.399 . S
C510 C515 1.399 . S
C511 C510 1.399 . S
C511 C512 1.376 . S
C512 H499 0.930 . S
C512 C511 1.376 . S
C512 C513 1.388 . S
C513 H500 0.930 . S
C513 C512 1.388 . S
C513 C514 1.390 . S
C514 C513 1.390 . S
C514 C515 1.394 . S
C514 C520 1.465 1_565 S
C515 C510 1.399 . S
C515 C514 1.394 . S
C515 C516 1.516 . S
C516 C515 1.516 . S
C516 C517 1.502 . S
C516 C518 1.561 . S
C516 C519 1.526 1_565 S
C517 H501 0.959 . S
C517 H502 0.959 . S
C517 H503 0.961 . S
C517 C516 1.502 . S
C518 H504 0.960 . S
C518 H505 0.961 . S
C518 H506 0.959 . S
C518 C516 1.561 . S
C519 C516 1.526 1_545 S
C519 C520 1.396 . S
C519 C524 1.390 . S
C520 C514 1.465 1_545 S
C520 C519 1.396 . S
C520 C521 1.399 . S
C521 H507 0.929 . S
C521 C520 1.399 . S
C521 C522 1.385 . S
C522 H508 0.931 . S
C522 C521 1.385 . S
C522 C523 1.389 . S
C523 C522 1.389 . S
C523 C524 1.387 . S
C524 H509 0.930 . S
C524 C519 1.390 . S
C524 C523 1.387 . S
H525 C537 0.930 . S
H526 C539 0.930 . S
H527 C540 0.930 . S
H528 C544 0.959 . S
H529 C544 0.959 . S
H530 C544 0.961 . S
H531 C545 0.960 . S
H532 C545 0.961 . S
H533 C545 0.959 . S
H534 C548 0.929 . S
H535 C549 0.931 . S
H536 C551 0.930 . S
C537 H525 0.930 . S
C537 C538 1.399 . S
C537 C542 1.399 . S
C538 C537 1.399 . S
C538 C539 1.376 . S
C539 H526 0.930 . S
C539 C538 1.376 . S
C539 C540 1.388 . S
C540 H527 0.930 . S
C540 C539 1.388 . S
C540 C541 1.390 . S
C541 C540 1.390 . S
C541 C542 1.394 . S
C541 C547 1.465 . S
C542 C537 1.399 . S
C542 C541 1.394 . S
C542 C543 1.516 . S
C543 C542 1.516 . S
C543 C544 1.502 . S
C543 C545 1.561 . S
C543 C546 1.526 . S
C544 H528 0.959 . S
C544 H529 0.959 . S
C544 H530 0.961 . S
C544 C543 1.502 . S
C545 H531 0.960 . S
C545 H532 0.961 . S
C545 H533 0.959 . S
C545 C543 1.561 . S
C546 C543 1.526 . S
C546 C547 1.396 . S
C546 C551 1.390 . S
C547 C541 1.465 . S
C547 C546 1.396 . S
C547 C548 1.399 . S
C548 H534 0.929 . S
C548 C547 1.399 . S
C548 C549 1.385 . S
C549 H535 0.931 . S
C549 C548 1.385 . S
C549 C550 1.389 . S
C550 C549 1.389 . S
C550 C551 1.387 . S
C551 H536 0.930 . S
C551 C546 1.390 . S
C551 C550 1.387 . S
H552 C564 0.930 . S
H553 C566 0.930 . S
H554 C567 0.930 . S
H555 C571 0.959 . S
H556 C571 0.959 . S
H557 C571 0.961 . S
H558 C572 0.960 . S
H559 C572 0.961 . S
H560 C572 0.959 . S
H561 C575 0.929 . S
H562 C576 0.931 . S
H563 C578 0.930 . S
C564 H552 0.930 . S
C564 C565 1.399 . S
C564 C569 1.399 . S
C565 C564 1.399 . S
C565 C566 1.376 . S
C566 H553 0.930 . S
C566 C565 1.376 . S
C566 C567 1.388 . S
C567 H554 0.930 . S
C567 C566 1.388 . S
C567 C568 1.390 . S
C568 C567 1.390 . S
C568 C569 1.394 . S
C568 C574 1.465 1_655 S
C569 C564 1.399 . S
C569 C568 1.394 . S
C569 C570 1.516 . S
C570 C569 1.516 . S
C570 C571 1.502 . S
C570 C572 1.561 . S
C570 C573 1.526 1_655 S
C571 H555 0.959 . S
C571 H556 0.959 . S
C571 H557 0.961 . S
C571 C570 1.502 . S
C572 H558 0.960 . S
C572 H559 0.961 . S
C572 H560 0.959 . S
C572 C570 1.561 . S
C573 C570 1.526 1_455 S
C573 C574 1.396 . S
C573 C578 1.390 . S
C574 C568 1.465 1_455 S
C574 C573 1.396 . S
C574 C575 1.399 . S
C575 H561 0.929 . S
C575 C574 1.399 . S
C575 C576 1.385 . S
C576 H562 0.931 . S
C576 C575 1.385 . S
C576 C577 1.389 . S
C577 C576 1.389 . S
C577 C578 1.387 . S
C578 H563 0.930 . S
C578 C573 1.390 . S
C578 C577 1.387 . S
H579 C591 0.930 . S
H580 C593 0.930 . S
H581 C594 0.930 . S
H582 C598 0.959 . S
H583 C598 0.959 . S
H584 C598 0.961 . S
H585 C599 0.960 . S
H586 C599 0.961 . S
H587 C599 0.959 . S
H588 C602 0.929 . S
H589 C603 0.931 . S
H590 C605 0.930 . S
C591 H579 0.930 . S
C591 C592 1.399 . S
C591 C596 1.399 . S
C592 C591 1.399 . S
C592 C593 1.376 . S
C593 H580 0.930 . S
C593 C592 1.376 . S
C593 C594 1.388 . S
C594 H581 0.930 . S
C594 C593 1.388 . S
C594 C595 1.390 . S
C595 C594 1.390 . S
C595 C596 1.394 . S
C595 C601 1.465 1_545 S
C596 C591 1.399 . S
C596 C595 1.394 . S
C596 C597 1.516 1_545 S
C597 C596 1.516 1_565 S
C597 C598 1.502 . S
C597 C599 1.561 . S
C597 C600 1.526 . S
C598 H582 0.959 . S
C598 H583 0.959 . S
C598 H584 0.961 . S
C598 C597 1.502 . S
C599 H585 0.960 . S
C599 H586 0.961 . S
C599 H587 0.959 . S
C599 C597 1.561 . S
C600 C597 1.526 . S
C600 C601 1.396 . S
C600 C605 1.390 . S
C601 C595 1.465 1_565 S
C601 C600 1.396 . S
C601 C602 1.399 . S
C602 H588 0.929 . S
C602 C601 1.399 . S
C602 C603 1.385 . S
C603 H589 0.931 . S
C603 C602 1.385 . S
C603 C604 1.389 . S
C604 C603 1.389 . S
C604 C605 1.387 . S
C605 H590 0.930 . S
C605 C600 1.390 . S
C605 C604 1.387 . S
H606 C618 0.930 . S
H607 C620 0.930 . S
H608 C621 0.930 . S
H609 C625 0.959 . S
H610 C625 0.959 . S
H611 C625 0.961 . S
H612 C626 0.960 . S
H613 C626 0.961 . S
H614 C626 0.959 . S
H615 C629 0.929 . S
H616 C630 0.931 . S
H617 C632 0.930 . S
C618 H606 0.930 . S
C618 C619 1.399 . S
C618 C623 1.399 . S
C619 C618 1.399 . S
C619 C620 1.376 . S
C620 H607 0.930 . S
C620 C619 1.376 . S
C620 C621 1.388 . S
C621 H608 0.930 . S
C621 C620 1.388 . S
C621 C622 1.390 . S
C622 C621 1.390 . S
C622 C623 1.394 . S
C622 C628 1.465 . S
C623 C618 1.399 . S
C623 C622 1.394 . S
C623 C624 1.516 . S
C624 C623 1.516 . S
C624 C625 1.502 . S
C624 C626 1.561 . S
C624 C627 1.526 . S
C625 H609 0.959 . S
C625 H610 0.959 . S
C625 H611 0.961 . S
C625 C624 1.502 . S
C626 H612 0.960 . S
C626 H613 0.961 . S
C626 H614 0.959 . S
C626 C624 1.561 . S
C627 C624 1.526 . S
C627 C628 1.396 . S
C627 C632 1.390 . S
C628 C622 1.465 . S
C628 C627 1.396 . S
C628 C629 1.399 . S
C629 H615 0.929 . S
C629 C628 1.399 . S
C629 C630 1.385 . S
C630 H616 0.931 . S
C630 C629 1.385 . S
C630 C631 1.389 . S
C631 C630 1.389 . S
C631 C632 1.387 . S
C632 H617 0.930 . S
C632 C627 1.390 . S
C632 C631 1.387 . S
H633 C645 0.930 . S
H634 C647 0.930 . S
H635 C648 0.930 . S
H636 C652 0.959 . S
H637 C652 0.959 . S
H638 C652 0.961 . S
H639 C653 0.960 . S
H640 C653 0.961 . S
H641 C653 0.959 . S
H642 C656 0.929 . S
H643 C657 0.931 . S
H644 C659 0.930 . S
C645 H633 0.930 . S
C645 C646 1.399 . S
C645 C650 1.399 . S
C646 C645 1.399 . S
C646 C647 1.376 . S
C647 H634 0.930 . S
C647 C646 1.376 . S
C647 C648 1.388 . S
C648 H635 0.930 . S
C648 C647 1.388 . S
C648 C649 1.390 . S
C649 C648 1.390 . S
C649 C650 1.394 . S
C649 C655 1.465 1_455 S
C650 C645 1.399 . S
C650 C649 1.394 . S
C650 C651 1.516 1_455 S
C651 C650 1.516 1_655 S
C651 C652 1.502 . S
C651 C653 1.561 . S
C651 C654 1.526 . S
C652 H636 0.959 . S
C652 H637 0.959 . S
C652 H638 0.961 . S
C652 C651 1.502 . S
C653 H639 0.960 . S
C653 H640 0.961 . S
C653 H641 0.959 . S
C653 C651 1.561 . S
C654 C651 1.526 . S
C654 C655 1.396 . S
C654 C659 1.390 . S
C655 C649 1.465 1_655 S
C655 C654 1.396 . S
C655 C656 1.399 . S
C656 H642 0.929 . S
C656 C655 1.399 . S
C656 C657 1.385 . S
C657 H643 0.931 . S
C657 C656 1.385 . S
C657 C658 1.389 . S
C658 C657 1.389 . S
C658 C659 1.387 . S
C659 H644 0.930 . S
C659 C654 1.390 . S
C659 C658 1.387 . S
H660 C672 0.930 . S
H661 C674 0.930 . S
H662 C675 0.930 . S
H663 C679 0.959 . S
H664 C679 0.959 . S
H665 C679 0.961 . S
H666 C680 0.960 . S
H667 C680 0.961 . S
H668 C680 0.959 . S
H669 C683 0.929 . S
H670 C684 0.931 . S
H671 C686 0.930 . S
C672 H660 0.930 . S
C672 C673 1.399 . S
C672 C677 1.399 . S
C673 C672 1.399 . S
C673 C674 1.376 . S
C674 H661 0.930 . S
C674 C673 1.376 . S
C674 C675 1.388 . S
C675 H662 0.930 . S
C675 C674 1.388 . S
C675 C676 1.390 . S
C676 C675 1.390 . S
C676 C677 1.394 . S
C676 C682 1.465 . S
C677 C672 1.399 . S
C677 C676 1.394 . S
C677 C678 1.516 . S
C678 C677 1.516 . S
C678 C679 1.502 . S
C678 C680 1.561 . S
C678 C681 1.526 . S
C679 H663 0.959 . S
C679 H664 0.959 . S
C679 H665 0.961 . S
C679 C678 1.502 . S
C680 H666 0.960 . S
C680 H667 0.961 . S
C680 H668 0.959 . S
C680 C678 1.561 . S
C681 C678 1.526 . S
C681 C682 1.396 . S
C681 C686 1.390 . S
C682 C676 1.465 . S
C682 C681 1.396 . S
C682 C683 1.399 . S
C683 H669 0.929 . S
C683 C682 1.399 . S
C683 C684 1.385 . S
C684 H670 0.931 . S
C684 C683 1.385 . S
C684 C685 1.389 . S
C685 C684 1.389 . S
C685 C686 1.387 . S
C686 H671 0.930 . S
C686 C681 1.390 . S
C686 C685 1.387 . S
H687 C699 0.930 . S
H688 C701 0.930 . S
H689 C702 0.930 . S
H690 C706 0.959 . S
H691 C706 0.959 . S
H692 C706 0.961 . S
H693 C707 0.960 . S
H694 C707 0.961 . S
H695 C707 0.959 . S
H696 C710 0.929 . S
H697 C711 0.931 . S
H698 C713 0.930 . S
C699 H687 0.930 . S
C699 C700 1.399 . S
C699 C704 1.399 . S
C700 C699 1.399 . S
C700 C701 1.376 . S
C701 H688 0.930 . S
C701 C700 1.376 . S
C701 C702 1.388 . S
C702 H689 0.930 . S
C702 C701 1.388 . S
C702 C703 1.390 . S
C703 C702 1.390 . S
C703 C704 1.394 . S
C703 C709 1.465 . S
C704 C699 1.399 . S
C704 C703 1.394 . S
C704 C705 1.516 . S
C705 C704 1.516 . S
C705 C706 1.502 . S
C705 C707 1.561 . S
C705 C708 1.526 . S
C706 H690 0.959 . S
C706 H691 0.959 . S
C706 H692 0.961 . S
C706 C705 1.502 . S
C707 H693 0.960 . S
C707 H694 0.961 . S
C707 H695 0.959 . S
C707 C705 1.561 . S
C708 C705 1.526 . S
C708 C709 1.396 . S
C708 C713 1.390 . S
C709 C703 1.465 . S
C709 C708 1.396 . S
C709 C710 1.399 . S
C710 H696 0.929 . S
C710 C709 1.399 . S
C710 C711 1.385 . S
C711 H697 0.931 . S
C711 C710 1.385 . S
C711 C712 1.389 . S
C712 C711 1.389 . S
C712 C713 1.387 . S
C713 H698 0.930 . S
C713 C708 1.390 . S
C713 C712 1.387 . S
H714 C726 0.930 . S
H715 C728 0.930 . S
H716 C729 0.930 . S
H717 C733 0.959 . S
H718 C733 0.959 . S
H719 C733 0.961 . S
H720 C734 0.960 . S
H721 C734 0.961 . S
H722 C734 0.959 . S
H723 C737 0.929 . S
H724 C738 0.931 . S
H725 C740 0.930 . S
C726 H714 0.930 . S
C726 C727 1.399 . S
C726 C731 1.399 . S
C727 C726 1.399 . S
C727 C728 1.376 . S
C728 H715 0.930 . S
C728 C727 1.376 . S
C728 C729 1.388 . S
C729 H716 0.930 . S
C729 C728 1.388 . S
C729 C730 1.390 . S
C730 C729 1.390 . S
C730 C731 1.394 . S
C730 C736 1.465 . S
C731 C726 1.399 . S
C731 C730 1.394 . S
C731 C732 1.516 . S
C732 C731 1.516 . S
C732 C733 1.502 . S
C732 C734 1.561 . S
C732 C735 1.526 . S
C733 H717 0.959 . S
C733 H718 0.959 . S
C733 H719 0.961 . S
C733 C732 1.502 . S
C734 H720 0.960 . S
C734 H721 0.961 . S
C734 H722 0.959 . S
C734 C732 1.561 . S
C735 C732 1.526 . S
C735 C736 1.396 . S
C735 C740 1.390 . S
C736 C730 1.465 . S
C736 C735 1.396 . S
C736 C737 1.399 . S
C737 H723 0.929 . S
C737 C736 1.399 . S
C737 C738 1.385 . S
C738 H724 0.931 . S
C738 C737 1.385 . S
C738 C739 1.389 . S
C739 C738 1.389 . S
C739 C740 1.387 . S
C740 H725 0.930 . S
C740 C735 1.390 . S
C740 C739 1.387 . S
H741 C753 0.930 . S
H742 C755 0.930 . S
H743 C756 0.930 . S
H744 C760 0.959 . S
H745 C760 0.959 . S
H746 C760 0.961 . S
H747 C761 0.960 . S
H748 C761 0.961 . S
H749 C761 0.959 . S
H750 C764 0.929 . S
H751 C765 0.931 . S
H752 C767 0.930 . S
C753 H741 0.930 . S
C753 C754 1.399 . S
C753 C758 1.399 . S
C754 C753 1.399 . S
C754 C755 1.376 . S
C755 H742 0.930 . S
C755 C754 1.376 . S
C755 C756 1.388 . S
C756 H743 0.930 . S
C756 C755 1.388 . S
C756 C757 1.390 . S
C757 C756 1.390 . S
C757 C758 1.394 . S
C757 C763 1.465 . S
C758 C753 1.399 . S
C758 C757 1.394 . S
C758 C759 1.516 . S
C759 C758 1.516 . S
C759 C760 1.502 . S
C759 C761 1.561 . S
C759 C762 1.526 . S
C760 H744 0.959 . S
C760 H745 0.959 . S
C760 H746 0.961 . S
C760 C759 1.502 . S
C761 H747 0.960 . S
C761 H748 0.961 . S
C761 H749 0.959 . S
C761 C759 1.561 . S
C762 C759 1.526 . S
C762 C763 1.396 . S
C762 C767 1.390 . S
C763 C757 1.465 . S
C763 C762 1.396 . S
C763 C764 1.399 . S
C764 H750 0.929 . S
C764 C763 1.399 . S
C764 C765 1.385 . S
C765 H751 0.931 . S
C765 C764 1.385 . S
C765 C766 1.389 . S
C766 C765 1.389 . S
C766 C767 1.387 . S
C767 H752 0.930 . S
C767 C762 1.390 . S
C767 C766 1.387 . S
H768 C780 0.930 . S
H769 C782 0.930 . S
H770 C783 0.930 . S
H771 C787 0.959 . S
H772 C787 0.959 . S
H773 C787 0.961 . S
H774 C788 0.960 . S
H775 C788 0.961 . S
H776 C788 0.959 . S
H777 C791 0.929 . S
H778 C792 0.931 . S
H779 C794 0.930 . S
C780 H768 0.930 . S
C780 C781 1.399 . S
C780 C785 1.399 . S
C781 C780 1.399 . S
C781 C782 1.376 . S
C782 H769 0.930 . S
C782 C781 1.376 . S
C782 C783 1.388 . S
C783 H770 0.930 . S
C783 C782 1.388 . S
C783 C784 1.390 . S
C784 C783 1.390 . S
C784 C785 1.394 . S
C784 C790 1.465 . S
C785 C780 1.399 . S
C785 C784 1.394 . S
C785 C786 1.516 . S
C786 C785 1.516 . S
C786 C787 1.502 . S
C786 C788 1.561 . S
C786 C789 1.526 . S
C787 H771 0.959 . S
C787 H772 0.959 . S
C787 H773 0.961 . S
C787 C786 1.502 . S
C788 H774 0.960 . S
C788 H775 0.961 . S
C788 H776 0.959 . S
C788 C786 1.561 . S
C789 C786 1.526 . S
C789 C790 1.396 . S
C789 C794 1.390 . S
C790 C784 1.465 . S
C790 C789 1.396 . S
C790 C791 1.399 . S
C791 H777 0.929 . S
C791 C790 1.399 . S
C791 C792 1.385 . S
C792 H778 0.931 . S
C792 C791 1.385 . S
C792 C793 1.389 . S
C793 C792 1.389 . S
C793 C794 1.387 . S
C794 H779 0.930 . S
C794 C789 1.390 . S
C794 C793 1.387 . S
H795 C807 0.930 . S
H796 C809 0.930 . S
H797 C810 0.930 . S
H798 C814 0.959 . S
H799 C814 0.959 . S
H800 C814 0.961 . S
H801 C815 0.960 . S
H802 C815 0.961 . S
H803 C815 0.959 . S
H804 C818 0.929 . S
H805 C819 0.931 . S
H806 C821 0.930 . S
C807 H795 0.930 . S
C807 C808 1.399 . S
C807 C812 1.399 . S
C808 C807 1.399 . S
C808 C809 1.376 . S
C809 H796 0.930 . S
C809 C808 1.376 . S
C809 C810 1.388 . S
C810 H797 0.930 . S
C810 C809 1.388 . S
C810 C811 1.390 . S
C811 C810 1.390 . S
C811 C812 1.394 . S
C811 C817 1.465 . S
C812 C807 1.399 . S
C812 C811 1.394 . S
C812 C813 1.516 . S
C813 C812 1.516 . S
C813 C814 1.502 . S
C813 C815 1.561 . S
C813 C816 1.526 . S
C814 H798 0.959 . S
C814 H799 0.959 . S
C814 H800 0.961 . S
C814 C813 1.502 . S
C815 H801 0.960 . S
C815 H802 0.961 . S
C815 H803 0.959 . S
C815 C813 1.561 . S
C816 C813 1.526 . S
C816 C817 1.396 . S
C816 C821 1.390 . S
C817 C811 1.465 . S
C817 C816 1.396 . S
C817 C818 1.399 . S
C818 H804 0.929 . S
C818 C817 1.399 . S
C818 C819 1.385 . S
C819 H805 0.931 . S
C819 C818 1.385 . S
C819 C820 1.389 . S
C820 C819 1.389 . S
C820 C821 1.387 . S
C821 H806 0.930 . S
C821 C816 1.390 . S
C821 C820 1.387 . S
H822 C834 0.930 . S
H823 C836 0.930 . S
H824 C837 0.930 . S
H825 C841 0.959 . S
H826 C841 0.959 . S
H827 C841 0.961 . S
H828 C842 0.960 . S
H829 C842 0.961 . S
H830 C842 0.959 . S
H831 C845 0.929 . S
H832 C846 0.931 . S
H833 C848 0.930 . S
C834 H822 0.930 . S
C834 C835 1.399 . S
C834 C839 1.399 . S
C835 C834 1.399 . S
C835 C836 1.376 . S
C836 H823 0.930 . S
C836 C835 1.376 . S
C836 C837 1.388 . S
C837 H824 0.930 . S
C837 C836 1.388 . S
C837 C838 1.390 . S
C838 C837 1.390 . S
C838 C839 1.394 . S
C838 C844 1.465 . S
C839 C834 1.399 . S
C839 C838 1.394 . S
C839 C840 1.516 . S
C840 C839 1.516 . S
C840 C841 1.502 . S
C840 C842 1.561 . S
C840 C843 1.526 . S
C841 H825 0.959 . S
C841 H826 0.959 . S
C841 H827 0.961 . S
C841 C840 1.502 . S
C842 H828 0.960 . S
C842 H829 0.961 . S
C842 H830 0.959 . S
C842 C840 1.561 . S
C843 C840 1.526 . S
C843 C844 1.396 . S
C843 C848 1.390 . S
C844 C838 1.465 . S
C844 C843 1.396 . S
C844 C845 1.399 . S
C845 H831 0.929 . S
C845 C844 1.399 . S
C845 C846 1.385 . S
C846 H832 0.931 . S
C846 C845 1.385 . S
C846 C847 1.389 . S
C847 C846 1.389 . S
C847 C848 1.387 . S
C848 H833 0.930 . S
C848 C843 1.390 . S
C848 C847 1.387 . S
H849 C861 0.930 . S
H850 C863 0.930 . S
H851 C864 0.930 . S
H852 C868 0.959 . S
H853 C868 0.959 . S
H854 C868 0.961 . S
H855 C869 0.960 . S
H856 C869 0.961 . S
H857 C869 0.959 . S
H858 C872 0.929 . S
H859 C873 0.931 . S
H860 C875 0.930 . S
C861 H849 0.930 . S
C861 C862 1.399 . S
C861 C866 1.399 . S
C862 C861 1.399 . S
C862 C863 1.376 . S
C863 H850 0.930 . S
C863 C862 1.376 . S
C863 C864 1.388 . S
C864 H851 0.930 . S
C864 C863 1.388 . S
C864 C865 1.390 . S
C865 C864 1.390 . S
C865 C866 1.394 . S
C865 C871 1.465 . S
C866 C861 1.399 . S
C866 C865 1.394 . S
C866 C867 1.516 . S
C867 C866 1.516 . S
C867 C868 1.502 . S
C867 C869 1.561 . S
C867 C870 1.526 . S
C868 H852 0.959 . S
C868 H853 0.959 . S
C868 H854 0.961 . S
C868 C867 1.502 . S
C869 H855 0.960 . S
C869 H856 0.961 . S
C869 H857 0.959 . S
C869 C867 1.561 . S
C870 C867 1.526 . S
C870 C871 1.396 . S
C870 C875 1.390 . S
C871 C865 1.465 . S
C871 C870 1.396 . S
C871 C872 1.399 . S
C872 H858 0.929 . S
C872 C871 1.399 . S
C872 C873 1.385 . S
C873 H859 0.931 . S
C873 C872 1.385 . S
C873 C874 1.389 . S
C874 C873 1.389 . S
C874 C875 1.387 . S
C875 H860 0.930 . S
C875 C870 1.390 . S
C875 C874 1.387 . S
H876 C888 0.930 . S
H877 C890 0.930 . S
H878 C891 0.930 . S
H879 C895 0.959 . S
H880 C895 0.959 . S
H881 C895 0.961 . S
H882 C896 0.960 . S
H883 C896 0.961 . S
H884 C896 0.959 . S
H885 C899 0.929 . S
H886 C900 0.931 . S
H887 C902 0.930 . S
C888 H876 0.930 . S
C888 C889 1.399 . S
C888 C893 1.399 . S
C889 C888 1.399 . S
C889 C890 1.376 . S
C890 H877 0.930 . S
C890 C889 1.376 . S
C890 C891 1.388 . S
C891 H878 0.930 . S
C891 C890 1.388 . S
C891 C892 1.390 . S
C892 C891 1.390 . S
C892 C893 1.394 . S
C892 C898 1.465 . S
C893 C888 1.399 . S
C893 C892 1.394 . S
C893 C894 1.516 . S
C894 C893 1.516 . S
C894 C895 1.502 . S
C894 C896 1.561 . S
C894 C897 1.526 . S
C895 H879 0.959 . S
C895 H880 0.959 . S
C895 H881 0.961 . S
C895 C894 1.502 . S
C896 H882 0.960 . S
C896 H883 0.961 . S
C896 H884 0.959 . S
C896 C894 1.561 . S
C897 C894 1.526 . S
C897 C898 1.396 . S
C897 C902 1.390 . S
C898 C892 1.465 . S
C898 C897 1.396 . S
C898 C899 1.399 . S
C899 H885 0.929 . S
C899 C898 1.399 . S
C899 C900 1.385 . S
C900 H886 0.931 . S
C900 C899 1.385 . S
C900 C901 1.389 . S
C901 C900 1.389 . S
C901 C902 1.387 . S
C902 H887 0.930 . S
C902 C897 1.390 . S
C902 C901 1.387 . S
H903 C915 0.930 . S
H904 C917 0.930 . S
H905 C918 0.930 . S
H906 C922 0.959 . S
H907 C922 0.959 . S
H908 C922 0.961 . S
H909 C923 0.960 . S
H910 C923 0.961 . S
H911 C923 0.959 . S
H912 C926 0.929 . S
H913 C927 0.931 . S
H914 C929 0.930 . S
C915 H903 0.930 . S
C915 C916 1.399 . S
C915 C920 1.399 . S
C916 C915 1.399 . S
C916 C917 1.376 . S
C917 H904 0.930 . S
C917 C916 1.376 . S
C917 C918 1.388 . S
C918 H905 0.930 . S
C918 C917 1.388 . S
C918 C919 1.390 . S
C919 C918 1.390 . S
C919 C920 1.394 . S
C919 C925 1.465 . S
C920 C915 1.399 . S
C920 C919 1.394 . S
C920 C921 1.516 . S
C921 C920 1.516 . S
C921 C922 1.502 . S
C921 C923 1.561 . S
C921 C924 1.526 . S
C922 H906 0.959 . S
C922 H907 0.959 . S
C922 H908 0.961 . S
C922 C921 1.502 . S
C923 H909 0.960 . S
C923 H910 0.961 . S
C923 H911 0.959 . S
C923 C921 1.561 . S
C924 C921 1.526 . S
C924 C925 1.396 . S
C924 C929 1.390 . S
C925 C919 1.465 . S
C925 C924 1.396 . S
C925 C926 1.399 . S
C926 H912 0.929 . S
C926 C925 1.399 . S
C926 C927 1.385 . S
C927 H913 0.931 . S
C927 C926 1.385 . S
C927 C928 1.389 . S
C928 C927 1.389 . S
C928 C929 1.387 . S
C929 H914 0.930 . S
C929 C924 1.390 . S
C929 C928 1.387 . S
H930 C942 0.930 . S
H931 C944 0.930 . S
H932 C945 0.930 . S
H933 C949 0.959 . S
H934 C949 0.959 . S
H935 C949 0.961 . S
H936 C950 0.960 . S
H937 C950 0.961 . S
H938 C950 0.959 . S
H939 C953 0.929 . S
H940 C954 0.931 . S
H941 C956 0.930 . S
C942 H930 0.930 . S
C942 C943 1.399 . S
C942 C947 1.399 . S
C943 C942 1.399 . S
C943 C944 1.376 . S
C944 H931 0.930 . S
C944 C943 1.376 . S
C944 C945 1.388 . S
C945 H932 0.930 . S
C945 C944 1.388 . S
C945 C946 1.390 . S
C946 C945 1.390 . S
C946 C947 1.394 . S
C946 C952 1.465 . S
C947 C942 1.399 . S
C947 C946 1.394 . S
C947 C948 1.516 . S
C948 C947 1.516 . S
C948 C949 1.502 . S
C948 C950 1.561 . S
C948 C951 1.526 . S
C949 H933 0.959 . S
C949 H934 0.959 . S
C949 H935 0.961 . S
C949 C948 1.502 . S
C950 H936 0.960 . S
C950 H937 0.961 . S
C950 H938 0.959 . S
C950 C948 1.561 . S
C951 C948 1.526 . S
C951 C952 1.396 . S
C951 C956 1.390 . S
C952 C946 1.465 . S
C952 C951 1.396 . S
C952 C953 1.399 . S
C953 H939 0.929 . S
C953 C952 1.399 . S
C953 C954 1.385 . S
C954 H940 0.931 . S
C954 C953 1.385 . S
C954 C955 1.389 . S
C955 C954 1.389 . S
C955 C956 1.387 . S
C956 H941 0.930 . S
C956 C951 1.390 . S
C956 C955 1.387 . S
H957 C969 0.930 . S
H958 C971 0.930 . S
H959 C972 0.930 . S
H960 C976 0.959 . S
H961 C976 0.959 . S
H962 C976 0.961 . S
H963 C977 0.960 . S
H964 C977 0.961 . S
H965 C977 0.959 . S
H966 C980 0.929 . S
H967 C981 0.931 . S
H968 C983 0.930 . S
C969 H957 0.930 . S
C969 C970 1.399 . S
C969 C974 1.399 . S
C970 C969 1.399 . S
C970 C971 1.376 . S
C971 H958 0.930 . S
C971 C970 1.376 . S
C971 C972 1.388 . S
C972 H959 0.930 . S
C972 C971 1.388 . S
C972 C973 1.390 . S
C973 C972 1.390 . S
C973 C974 1.394 . S
C973 C979 1.465 . S
C974 C969 1.399 . S
C974 C973 1.394 . S
C974 C975 1.516 . S
C975 C974 1.516 . S
C975 C976 1.502 . S
C975 C977 1.561 . S
C975 C978 1.526 . S
C976 H960 0.959 . S
C976 H961 0.959 . S
C976 H962 0.961 . S
C976 C975 1.502 . S
C977 H963 0.960 . S
C977 H964 0.961 . S
C977 H965 0.959 . S
C977 C975 1.561 . S
C978 C975 1.526 . S
C978 C979 1.396 . S
C978 C983 1.390 . S
C979 C973 1.465 . S
C979 C978 1.396 . S
C979 C980 1.399 . S
C980 H966 0.929 . S
C980 C979 1.399 . S
C980 C981 1.385 . S
C981 H967 0.931 . S
C981 C980 1.385 . S
C981 C982 1.389 . S
C982 C981 1.389 . S
C982 C983 1.387 . S
C983 H968 0.930 . S
C983 C978 1.390 . S
C983 C982 1.387 . S
H984 C996 0.930 . S
H985 C998 0.930 . S
H986 C999 0.930 . S
H987 C1003 0.959 1_556 S
H988 C1003 0.959 1_556 S
H989 C1003 0.961 . S
H990 C1004 0.960 . S
H991 C1004 0.961 1_556 S
H992 C1004 0.961 . S
H993 C1007 0.929 . S
H994 C1008 0.931 . S
H995 C1010 0.930 . S
C996 H984 0.930 . S
C996 C997 1.399 . S
C996 C1001 1.399 . S
C997 C996 1.399 . S
C997 C998 1.376 . S
C998 H985 0.930 . S
C998 C997 1.376 . S
C998 C999 1.388 . S
C999 H986 0.930 . S
C999 C998 1.388 . S
C999 C1000 1.390 . S
C1000 C999 1.390 . S
C1000 C1001 1.394 . S
C1000 C1006 1.465 1_554 S
C1001 C996 1.399 . S
C1001 C1000 1.394 . S
C1001 C1002 1.516 . S
C1002 C1001 1.516 . S
C1002 C1003 1.502 . S
C1002 C1004 1.561 . S
C1002 C1005 1.526 1_554 S
C1003 H987 0.959 1_554 S
C1003 H988 0.959 1_554 S
C1003 H989 0.961 . S
C1003 C1002 1.502 . S
C1004 H990 0.960 . S
C1004 H991 0.961 1_554 S
C1004 H992 0.961 . S
C1004 C1002 1.561 . S
C1005 C1002 1.526 1_556 S
C1005 C1006 1.396 . S
C1005 C1010 1.390 . S
C1006 C1000 1.465 1_556 S
C1006 C1005 1.396 . S
C1006 C1007 1.399 . S
C1007 H993 0.929 . S
C1007 C1006 1.399 . S
C1007 C1008 1.385 . S
C1008 H994 0.931 . S
C1008 C1007 1.385 . S
C1008 C1009 1.389 . S
C1009 C1008 1.389 . S
C1009 C1010 1.387 . S
C1010 H995 0.930 . S
C1010 C1005 1.390 . S
C1010 C1009 1.387 . S
H1011 C1023 0.930 . S
H1012 C1025 0.930 . S
H1013 C1026 0.930 . S
H1014 C1030 0.959 . S
H1015 C1030 0.959 . S
H1016 C1030 0.961 1_556 S
H1017 C1031 0.960 . S
H1018 C1031 0.961 1_554 S
H1019 C1031 0.961 . S
H1020 C1034 0.929 . S
H1021 C1035 0.931 . S
H1022 C1037 0.930 . S
C1023 H1011 0.930 . S
C1023 C1024 1.399 . S
C1023 C1028 1.399 . S
C1024 C1023 1.399 . S
C1024 C1025 1.376 . S
C1025 H1012 0.930 . S
C1025 C1024 1.376 . S
C1025 C1026 1.388 . S
C1026 H1013 0.930 . S
C1026 C1025 1.388 . S
C1026 C1027 1.390 . S
C1027 C1026 1.390 . S
C1027 C1028 1.394 . S
C1027 C1033 1.465 1_556 S
C1028 C1023 1.399 . S
C1028 C1027 1.394 . S
C1028 C1029 1.528 . S
C1029 C1028 1.528 . S
C1029 C1030 1.501 1_556 S
C1029 C1031 1.562 . S
C1029 C1032 1.514 1_556 S
C1030 H1014 0.959 . S
C1030 H1015 0.959 . S
C1030 H1016 0.961 1_554 S
C1030 C1029 1.501 1_554 S
C1031 H1017 0.960 . S
C1031 H1018 0.961 1_556 S
C1031 H1019 0.961 . S
C1031 C1029 1.562 . S
C1032 C1029 1.514 1_554 S
C1032 C1033 1.396 . S
C1032 C1037 1.390 . S
C1033 C1027 1.465 1_554 S
C1033 C1032 1.396 . S
C1033 C1034 1.399 . S
C1034 H1020 0.929 . S
C1034 C1033 1.399 . S
C1034 C1035 1.385 . S
C1035 H1021 0.931 . S
C1035 C1034 1.385 . S
C1035 C1036 1.389 . S
C1036 C1035 1.389 . S
C1036 C1037 1.387 . S
C1037 H1022 0.930 . S
C1037 C1032 1.390 . S
C1037 C1036 1.387 . S
H1038 C1050 0.930 . S
H1039 C1052 0.930 . S
H1040 C1053 0.930 . S
H1041 C1057 0.959 . S
H1042 C1057 0.959 . S
H1043 C1057 0.961 1_556 S
H1044 C1058 0.960 1_556 S
H1045 C1058 0.961 . S
H1046 C1058 0.959 . S
H1047 C1061 0.929 . S
H1048 C1062 0.931 . S
H1049 C1064 0.930 . S
C1050 H1038 0.930 . S
C1050 C1051 1.399 . S
C1050 C1055 1.399 . S
C1051 C1050 1.399 . S
C1051 C1052 1.376 . S
C1052 H1039 0.930 . S
C1052 C1051 1.376 . S
C1052 C1053 1.388 . S
C1053 H1040 0.930 . S
C1053 C1052 1.388 . S
C1053 C1054 1.390 . S
C1054 C1053 1.390 . S
C1054 C1055 1.394 . S
C1054 C1060 1.465 1_556 S
C1055 C1050 1.399 . S
C1055 C1054 1.394 . S
C1055 C1056 1.516 1_556 S
C1056 C1055 1.516 1_554 S
C1056 C1057 1.502 . S
C1056 C1058 1.561 . S
C1056 C1059 1.526 . S
C1057 H1041 0.959 . S
C1057 H1042 0.959 . S
C1057 H1043 0.961 1_554 S
C1057 C1056 1.502 . S
C1058 H1044 0.960 1_554 S
C1058 H1045 0.961 . S
C1058 H1046 0.959 . S
C1058 C1056 1.561 . S
C1059 C1056 1.526 . S
C1059 C1060 1.396 . S
C1059 C1064 1.390 . S
C1060 C1054 1.465 1_554 S
C1060 C1059 1.396 . S
C1060 C1061 1.399 . S
C1061 H1047 0.929 . S
C1061 C1060 1.399 . S
C1061 C1062 1.385 . S
C1062 H1048 0.931 . S
C1062 C1061 1.385 . S
C1062 C1063 1.389 . S
C1063 C1062 1.389 . S
C1063 C1064 1.387 . S
C1064 H1049 0.930 . S
C1064 C1059 1.390 . S
C1064 C1063 1.387 . S
H1065 C1077 0.930 . S
H1066 C1079 0.930 . S
H1067 C1080 0.930 . S
H1068 C1084 0.959 . S
H1069 C1084 0.959 . S
H1070 C1084 0.961 1_554 S
H1071 C1085 0.960 1_554 S
H1072 C1085 0.961 . S
H1073 C1085 0.959 . S
H1074 C1088 0.929 . S
H1075 C1089 0.931 . S
H1076 C1091 0.930 . S
C1077 H1065 0.930 . S
C1077 C1078 1.399 . S
C1077 C1082 1.399 . S
C1078 C1077 1.399 . S
C1078 C1079 1.376 . S
C1079 H1066 0.930 . S
C1079 C1078 1.376 . S
C1079 C1080 1.388 . S
C1080 H1067 0.930 . S
C1080 C1079 1.388 . S
C1080 C1081 1.390 . S
C1081 C1080 1.390 . S
C1081 C1082 1.394 . S
C1081 C1087 1.465 1_554 S
C1082 C1077 1.399 . S
C1082 C1081 1.394 . S
C1082 C1083 1.516 1_554 S
C1083 C1082 1.516 1_556 S
C1083 C1084 1.502 . S
C1083 C1085 1.561 . S
C1083 C1086 1.526 . S
C1084 H1068 0.959 . S
C1084 H1069 0.959 . S
C1084 H1070 0.961 1_556 S
C1084 C1083 1.502 . S
C1085 H1071 0.960 1_556 S
C1085 H1072 0.961 . S
C1085 H1073 0.959 . S
C1085 C1083 1.561 . S
C1086 C1083 1.526 . S
C1086 C1087 1.396 . S
C1086 C1091 1.390 . S
C1087 C1081 1.465 1_556 S
C1087 C1086 1.396 . S
C1087 C1088 1.399 . S
C1088 H1074 0.929 . S
C1088 C1087 1.399 . S
C1088 C1089 1.385 . S
C1089 H1075 0.931 . S
C1089 C1088 1.385 . S
C1089 C1090 1.389 . S
C1090 C1089 1.389 . S
C1090 C1091 1.387 . S
C1091 H1076 0.930 . S
C1091 C1086 1.390 . S
C1091 C1090 1.387 . S
H1092 C1104 0.930 . S
H1093 C1106 0.930 . S
H1094 C1107 0.930 . S
H1095 C1111 0.958 1_556 S
H1096 C1111 0.934 1_556 S
H1097 C1111 0.989 . S
H1098 C1112 0.960 1_554 S
H1099 C1112 0.961 . S
H1100 C1112 0.959 . S
H1101 C1115 0.929 . S
H1102 C1116 0.931 . S
H1103 C1118 0.930 . S
C1104 H1092 0.930 . S
C1104 C1105 1.399 . S
C1104 C1109 1.399 . S
C1105 C1104 1.399 . S
C1105 C1106 1.376 . S
C1106 H1093 0.930 . S
C1106 C1105 1.376 . S
C1106 C1107 1.388 . S
C1107 H1094 0.930 . S
C1107 C1106 1.388 . S
C1107 C1108 1.390 . S
C1108 C1107 1.390 . S
C1108 C1109 1.394 . S
C1108 C1114 1.465 1_554 S
C1109 C1104 1.399 . S
C1109 C1108 1.394 . S
C1109 C1110 1.515 . S
C1110 C1109 1.515 . S
C1110 C1111 1.501 . S
C1110 C1112 1.561 1_554 S
C1110 C1113 1.527 1_554 S
C1111 H1095 0.958 1_554 S
C1111 H1096 0.934 1_554 S
C1111 H1097 0.989 . S
C1111 C1110 1.501 . S
C1112 H1098 0.960 1_556 S
C1112 H1099 0.961 . S
C1112 H1100 0.959 . S
C1112 C1110 1.561 1_556 S
C1113 C1110 1.527 1_556 S
C1113 C1114 1.396 . S
C1113 C1118 1.390 . S
C1114 C1108 1.465 1_556 S
C1114 C1113 1.396 . S
C1114 C1115 1.399 . S
C1115 H1101 0.929 . S
C1115 C1114 1.399 . S
C1115 C1116 1.385 . S
C1116 H1102 0.931 . S
C1116 C1115 1.385 . S
C1116 C1117 1.389 . S
C1117 C1116 1.389 . S
C1117 C1118 1.387 . S
C1118 H1103 0.930 . S
C1118 C1113 1.390 . S
C1118 C1117 1.387 . S
H1119 C1131 0.930 . S
H1120 C1133 0.930 . S
H1121 C1134 0.930 . S
H1122 C1138 0.961 . S
H1123 C1138 0.959 1_554 S
H1124 C1138 0.961 . S
H1125 C1139 0.960 . S
H1126 C1139 0.961 1_554 S
H1127 C1139 0.959 1_554 S
H1128 C1142 0.929 . S
H1129 C1143 0.931 . S
H1130 C1145 0.930 . S
C1131 H1119 0.930 . S
C1131 C1132 1.399 . S
C1131 C1136 1.399 . S
C1132 C1131 1.399 . S
C1132 C1133 1.376 . S
C1133 H1120 0.930 . S
C1133 C1132 1.376 . S
C1133 C1134 1.388 . S
C1134 H1121 0.930 . S
C1134 C1133 1.388 . S
C1134 C1135 1.390 . S
C1135 C1134 1.390 . S
C1135 C1136 1.394 . S
C1135 C1141 1.465 1_556 S
C1136 C1131 1.399 . S
C1136 C1135 1.394 . S
C1136 C1137 1.516 . S
C1137 C1136 1.516 . S
C1137 C1138 1.502 . S
C1137 C1139 1.561 . S
C1137 C1140 1.526 1_556 S
C1138 H1122 0.961 . S
C1138 H1123 0.959 1_556 S
C1138 H1124 0.961 . S
C1138 C1137 1.502 . S
C1139 H1125 0.960 . S
C1139 H1126 0.961 1_556 S
C1139 H1127 0.959 1_556 S
C1139 C1137 1.561 . S
C1140 C1137 1.526 1_554 S
C1140 C1141 1.396 . S
C1140 C1145 1.390 . S
C1141 C1135 1.465 1_554 S
C1141 C1140 1.396 . S
C1141 C1142 1.399 . S
C1142 H1128 0.929 . S
C1142 C1141 1.399 . S
C1142 C1143 1.385 . S
C1143 H1129 0.931 . S
C1143 C1142 1.385 . S
C1143 C1144 1.389 . S
C1144 C1143 1.389 . S
C1144 C1145 1.387 . S
C1145 H1130 0.930 . S
C1145 C1140 1.390 . S
C1145 C1144 1.387 . S
H1146 C1158 0.930 . S
H1147 C1160 0.930 . S
H1148 C1161 0.930 . S
H1149 C1165 0.959 . S
H1150 C1165 0.959 . S
H1151 C1165 0.961 . S
H1152 C1166 0.960 . S
H1153 C1166 0.961 . S
H1154 C1166 0.959 . S
H1155 C1169 0.929 . S
H1156 C1170 0.931 . S
H1157 C1172 0.930 . S
C1158 H1146 0.930 . S
C1158 C1159 1.399 . S
C1158 C1163 1.399 . S
C1159 C1158 1.399 . S
C1159 C1160 1.376 . S
C1160 H1147 0.930 . S
C1160 C1159 1.376 . S
C1160 C1161 1.388 . S
C1161 H1148 0.930 . S
C1161 C1160 1.388 . S
C1161 C1162 1.390 . S
C1162 C1161 1.390 . S
C1162 C1163 1.394 . S
C1162 C1168 1.465 . S
C1163 C1158 1.399 . S
C1163 C1162 1.394 . S
C1163 C1164 1.516 . S
C1164 C1163 1.516 . S
C1164 C1165 1.502 . S
C1164 C1166 1.561 . S
C1164 C1167 1.526 . S
C1165 H1149 0.959 . S
C1165 H1150 0.959 . S
C1165 H1151 0.961 . S
C1165 C1164 1.502 . S
C1166 H1152 0.960 . S
C1166 H1153 0.961 . S
C1166 H1154 0.959 . S
C1166 C1164 1.561 . S
C1167 C1164 1.526 . S
C1167 C1168 1.396 . S
C1167 C1172 1.390 . S
C1168 C1162 1.465 . S
C1168 C1167 1.396 . S
C1168 C1169 1.399 . S
C1169 H1155 0.929 . S
C1169 C1168 1.399 . S
C1169 C1170 1.385 . S
C1170 H1156 0.931 . S
C1170 C1169 1.385 . S
C1170 C1171 1.389 . S
C1171 C1170 1.389 . S
C1171 C1172 1.387 . S
C1172 H1157 0.930 . S
C1172 C1167 1.390 . S
C1172 C1171 1.387 . S
H1173 C1185 0.930 . S
H1174 C1187 0.930 . S
H1175 C1188 0.930 . S
H1176 C1192 0.959 . S
H1177 C1192 0.959 . S
H1178 C1192 0.961 . S
H1179 C1193 0.960 . S
H1180 C1193 0.961 . S
H1181 C1193 0.959 . S
H1182 C1196 0.929 . S
H1183 C1197 0.931 . S
H1184 C1199 0.930 . S
C1185 H1173 0.930 . S
C1185 C1186 1.399 . S
C1185 C1190 1.399 . S
C1186 C1185 1.399 . S
C1186 C1187 1.376 . S
C1187 H1174 0.930 . S
C1187 C1186 1.376 . S
C1187 C1188 1.388 . S
C1188 H1175 0.930 . S
C1188 C1187 1.388 . S
C1188 C1189 1.390 . S
C1189 C1188 1.390 . S
C1189 C1190 1.394 . S
C1189 C1195 1.465 . S
C1190 C1185 1.399 . S
C1190 C1189 1.394 . S
C1190 C1191 1.516 . S
C1191 C1190 1.516 . S
C1191 C1192 1.502 . S
C1191 C1193 1.561 . S
C1191 C1194 1.526 . S
C1192 H1176 0.959 . S
C1192 H1177 0.959 . S
C1192 H1178 0.961 . S
C1192 C1191 1.502 . S
C1193 H1179 0.960 . S
C1193 H1180 0.961 . S
C1193 H1181 0.959 . S
C1193 C1191 1.561 . S
C1194 C1191 1.526 . S
C1194 C1195 1.396 . S
C1194 C1199 1.390 . S
C1195 C1189 1.465 . S
C1195 C1194 1.396 . S
C1195 C1196 1.399 . S
C1196 H1182 0.929 . S
C1196 C1195 1.399 . S
C1196 C1197 1.385 . S
C1197 H1183 0.931 . S
C1197 C1196 1.385 . S
C1197 C1198 1.389 . S
C1198 C1197 1.389 . S
C1198 C1199 1.387 . S
C1199 H1184 0.930 . S
C1199 C1194 1.390 . S
C1199 C1198 1.387 . S
H1200 C1212 0.930 . S
H1201 C1214 0.930 . S
H1202 C1215 0.930 . S
H1203 C1219 0.959 . S
H1204 C1219 0.959 . S
H1205 C1219 0.961 . S
H1206 C1220 0.960 . S
H1207 C1220 0.961 . S
H1208 C1220 0.959 . S
H1209 C1223 0.929 . S
H1210 C1224 0.931 . S
H1211 C1226 0.930 . S
C1212 H1200 0.930 . S
C1212 C1213 1.399 . S
C1212 C1217 1.399 . S
C1213 C1212 1.399 . S
C1213 C1214 1.376 . S
C1214 H1201 0.930 . S
C1214 C1213 1.376 . S
C1214 C1215 1.388 . S
C1215 H1202 0.930 . S
C1215 C1214 1.388 . S
C1215 C1216 1.390 . S
C1216 C1215 1.390 . S
C1216 C1217 1.394 . S
C1216 C1222 1.465 . S
C1217 C1212 1.399 . S
C1217 C1216 1.394 . S
C1217 C1218 1.516 . S
C1218 C1217 1.516 . S
C1218 C1219 1.502 . S
C1218 C1220 1.561 . S
C1218 C1221 1.526 . S
C1219 H1203 0.959 . S
C1219 H1204 0.959 . S
C1219 H1205 0.961 . S
C1219 C1218 1.502 . S
C1220 H1206 0.960 . S
C1220 H1207 0.961 . S
C1220 H1208 0.959 . S
C1220 C1218 1.561 . S
C1221 C1218 1.526 . S
C1221 C1222 1.396 . S
C1221 C1226 1.390 . S
C1222 C1216 1.465 . S
C1222 C1221 1.396 . S
C1222 C1223 1.399 . S
C1223 H1209 0.929 . S
C1223 C1222 1.399 . S
C1223 C1224 1.385 . S
C1224 H1210 0.931 . S
C1224 C1223 1.385 . S
C1224 C1225 1.389 . S
C1225 C1224 1.389 . S
C1225 C1226 1.387 . S
C1226 H1211 0.930 . S
C1226 C1221 1.390 . S
C1226 C1225 1.387 . S
H1227 C1239 0.930 . S
H1228 C1241 0.930 . S
H1229 C1242 0.930 . S
H1230 C1246 0.959 . S
H1231 C1246 0.959 . S
H1232 C1246 0.961 . S
H1233 C1247 0.960 . S
H1234 C1247 0.961 . S
H1235 C1247 0.959 . S
H1236 C1250 0.929 . S
H1237 C1251 0.931 . S
H1238 C1253 0.930 . S
C1239 H1227 0.930 . S
C1239 C1240 1.399 . S
C1239 C1244 1.399 . S
C1240 C1239 1.399 . S
C1240 C1241 1.376 . S
C1241 H1228 0.930 . S
C1241 C1240 1.376 . S
C1241 C1242 1.388 . S
C1242 H1229 0.930 . S
C1242 C1241 1.388 . S
C1242 C1243 1.390 . S
C1243 C1242 1.390 . S
C1243 C1244 1.394 . S
C1243 C1249 1.465 . S
C1244 C1239 1.399 . S
C1244 C1243 1.394 . S
C1244 C1245 1.516 . S
C1245 C1244 1.516 . S
C1245 C1246 1.502 . S
C1245 C1247 1.561 . S
C1245 C1248 1.526 . S
C1246 H1230 0.959 . S
C1246 H1231 0.959 . S
C1246 H1232 0.961 . S
C1246 C1245 1.502 . S
C1247 H1233 0.960 . S
C1247 H1234 0.961 . S
C1247 H1235 0.959 . S
C1247 C1245 1.561 . S
C1248 C1245 1.526 . S
C1248 C1249 1.396 . S
C1248 C1253 1.390 . S
C1249 C1243 1.465 . S
C1249 C1248 1.396 . S
C1249 C1250 1.399 . S
C1250 H1236 0.929 . S
C1250 C1249 1.399 . S
C1250 C1251 1.385 . S
C1251 H1237 0.931 . S
C1251 C1250 1.385 . S
C1251 C1252 1.389 . S
C1252 C1251 1.389 . S
C1252 C1253 1.387 . S
C1253 H1238 0.930 . S
C1253 C1248 1.390 . S
C1253 C1252 1.387 . S
H1254 C1266 0.930 . S
H1255 C1268 0.930 . S
H1256 C1269 0.930 . S
H1257 C1273 0.959 . S
H1258 C1273 0.959 . S
H1259 C1273 0.961 . S
H1260 C1274 0.960 . S
H1261 C1274 0.961 . S
H1262 C1274 0.959 . S
H1263 C1277 0.929 . S
H1264 C1278 0.931 . S
H1265 C1280 0.930 . S
C1266 H1254 0.930 . S
C1266 C1267 1.399 . S
C1266 C1271 1.399 . S
C1267 C1266 1.399 . S
C1267 C1268 1.376 . S
C1268 H1255 0.930 . S
C1268 C1267 1.376 . S
C1268 C1269 1.388 . S
C1269 H1256 0.930 . S
C1269 C1268 1.388 . S
C1269 C1270 1.390 . S
C1270 C1269 1.390 . S
C1270 C1271 1.394 . S
C1270 C1276 1.465 . S
C1271 C1266 1.399 . S
C1271 C1270 1.394 . S
C1271 C1272 1.516 . S
C1272 C1271 1.516 . S
C1272 C1273 1.502 . S
C1272 C1274 1.561 . S
C1272 C1275 1.526 . S
C1273 H1257 0.959 . S
C1273 H1258 0.959 . S
C1273 H1259 0.961 . S
C1273 C1272 1.502 . S
C1274 H1260 0.960 . S
C1274 H1261 0.961 . S
C1274 H1262 0.959 . S
C1274 C1272 1.561 . S
C1275 C1272 1.526 . S
C1275 C1276 1.396 . S
C1275 C1280 1.390 . S
C1276 C1270 1.465 . S
C1276 C1275 1.396 . S
C1276 C1277 1.399 . S
C1277 H1263 0.929 . S
C1277 C1276 1.399 . S
C1277 C1278 1.385 . S
C1278 H1264 0.931 . S
C1278 C1277 1.385 . S
C1278 C1279 1.389 . S
C1279 C1278 1.389 . S
C1279 C1280 1.387 . S
C1280 H1265 0.930 . S
C1280 C1275 1.390 . S
C1280 C1279 1.387 . S
H1281 C1293 0.930 . S
H1282 C1295 0.930 . S
H1283 C1296 0.930 . S
H1284 C1300 0.959 . S
H1285 C1300 0.959 . S
H1286 C1300 0.961 . S
H1287 C1301 0.960 . S
H1288 C1301 0.961 . S
H1289 C1301 0.959 . S
H1290 C1304 0.929 . S
H1291 C1305 0.931 . S
H1292 C1307 0.930 . S
C1293 H1281 0.930 . S
C1293 C1294 1.399 . S
C1293 C1298 1.399 . S
C1294 C1293 1.399 . S
C1294 C1295 1.376 . S
C1295 H1282 0.930 . S
C1295 C1294 1.376 . S
C1295 C1296 1.388 . S
C1296 H1283 0.930 . S
C1296 C1295 1.388 . S
C1296 C1297 1.390 . S
C1297 C1296 1.390 . S
C1297 C1298 1.394 . S
C1297 C1303 1.465 . S
C1298 C1293 1.399 . S
C1298 C1297 1.394 . S
C1298 C1299 1.516 . S
C1299 C1298 1.516 . S
C1299 C1300 1.502 . S
C1299 C1301 1.561 . S
C1299 C1302 1.526 . S
C1300 H1284 0.959 . S
C1300 H1285 0.959 . S
C1300 H1286 0.961 . S
C1300 C1299 1.502 . S
C1301 H1287 0.960 . S
C1301 H1288 0.961 . S
C1301 H1289 0.959 . S
C1301 C1299 1.561 . S
C1302 C1299 1.526 . S
C1302 C1303 1.396 . S
C1302 C1307 1.390 . S
C1303 C1297 1.465 . S
C1303 C1302 1.396 . S
C1303 C1304 1.399 . S
C1304 H1290 0.929 . S
C1304 C1303 1.399 . S
C1304 C1305 1.385 . S
C1305 H1291 0.931 . S
C1305 C1304 1.385 . S
C1305 C1306 1.389 . S
C1306 C1305 1.389 . S
C1306 C1307 1.387 . S
C1307 H1292 0.930 . S
C1307 C1302 1.390 . S
C1307 C1306 1.387 . S
H1308 C1320 0.930 . S
H1309 C1322 0.930 . S
H1310 C1323 0.930 . S
H1311 C1327 0.959 . S
H1312 C1327 0.959 . S
H1313 C1327 0.961 . S
H1314 C1328 0.960 . S
H1315 C1328 0.961 . S
H1316 C1328 0.959 . S
H1317 C1331 0.929 . S
H1318 C1332 0.931 . S
H1319 C1334 0.930 . S
C1320 H1308 0.930 . S
C1320 C1321 1.399 . S
C1320 C1325 1.399 . S
C1321 C1320 1.399 . S
C1321 C1322 1.376 . S
C1322 H1309 0.930 . S
C1322 C1321 1.376 . S
C1322 C1323 1.388 . S
C1323 H1310 0.930 . S
C1323 C1322 1.388 . S
C1323 C1324 1.390 . S
C1324 C1323 1.390 . S
C1324 C1325 1.394 . S
C1324 C1330 1.465 . S
C1325 C1320 1.399 . S
C1325 C1324 1.394 . S
C1325 C1326 1.516 . S
C1326 C1325 1.516 . S
C1326 C1327 1.502 . S
C1326 C1328 1.561 . S
C1326 C1329 1.526 . S
C1327 H1311 0.959 . S
C1327 H1312 0.959 . S
C1327 H1313 0.961 . S
C1327 C1326 1.502 . S
C1328 H1314 0.960 . S
C1328 H1315 0.961 . S
C1328 H1316 0.959 . S
C1328 C1326 1.561 . S
C1329 C1326 1.526 . S
C1329 C1330 1.396 . S
C1329 C1334 1.390 . S
C1330 C1324 1.465 . S
C1330 C1329 1.396 . S
C1330 C1331 1.399 . S
C1331 H1317 0.929 . S
C1331 C1330 1.399 . S
C1331 C1332 1.385 . S
C1332 H1318 0.931 . S
C1332 C1331 1.385 . S
C1332 C1333 1.389 . S
C1333 C1332 1.389 . S
C1333 C1334 1.387 . S
C1334 H1319 0.930 . S
C1334 C1329 1.390 . S
C1334 C1333 1.387 . S
H1335 C1347 0.930 . S
H1336 C1349 0.930 . S
H1337 C1350 0.930 . S
H1338 C1354 0.959 . S
H1339 C1354 0.959 . S
H1340 C1354 0.961 . S
H1341 C1355 0.960 . S
H1342 C1355 0.961 . S
H1343 C1355 0.959 . S
H1344 C1358 0.929 . S
H1345 C1359 0.931 . S
H1346 C1361 0.930 . S
C1347 H1335 0.930 . S
C1347 C1348 1.399 . S
C1347 C1352 1.399 . S
C1348 C1347 1.399 . S
C1348 C1349 1.376 . S
C1349 H1336 0.930 . S
C1349 C1348 1.376 . S
C1349 C1350 1.388 . S
C1350 H1337 0.930 . S
C1350 C1349 1.388 . S
C1350 C1351 1.390 . S
C1351 C1350 1.390 . S
C1351 C1352 1.394 . S
C1351 C1357 1.465 . S
C1352 C1347 1.399 . S
C1352 C1351 1.394 . S
C1352 C1353 1.516 . S
C1353 C1352 1.516 . S
C1353 C1354 1.502 . S
C1353 C1355 1.561 . S
C1353 C1356 1.526 . S
C1354 H1338 0.959 . S
C1354 H1339 0.959 . S
C1354 H1340 0.961 . S
C1354 C1353 1.502 . S
C1355 H1341 0.960 . S
C1355 H1342 0.961 . S
C1355 H1343 0.959 . S
C1355 C1353 1.561 . S
C1356 C1353 1.526 . S
C1356 C1357 1.396 . S
C1356 C1361 1.390 . S
C1357 C1351 1.465 . S
C1357 C1356 1.396 . S
C1357 C1358 1.399 . S
C1358 H1344 0.929 . S
C1358 C1357 1.399 . S
C1358 C1359 1.385 . S
C1359 H1345 0.931 . S
C1359 C1358 1.385 . S
C1359 C1360 1.389 . S
C1360 C1359 1.389 . S
C1360 C1361 1.387 . S
C1361 H1346 0.930 . S
C1361 C1356 1.390 . S
C1361 C1360 1.387 . S
H1362 C1374 0.930 . S
H1363 C1376 0.930 . S
H1364 C1377 0.930 . S
H1365 C1381 0.959 . S
H1366 C1381 0.959 . S
H1367 C1381 0.961 . S
H1368 C1382 0.960 . S
H1369 C1382 0.961 . S
H1370 C1382 0.959 . S
H1371 C1385 0.929 . S
H1372 C1386 0.931 . S
H1373 C1388 0.930 . S
C1374 H1362 0.930 . S
C1374 C1375 1.399 . S
C1374 C1379 1.399 . S
C1375 C1374 1.399 . S
C1375 C1376 1.376 . S
C1376 H1363 0.930 . S
C1376 C1375 1.376 . S
C1376 C1377 1.388 . S
C1377 H1364 0.930 . S
C1377 C1376 1.388 . S
C1377 C1378 1.390 . S
C1378 C1377 1.390 . S
C1378 C1379 1.394 . S
C1378 C1384 1.465 . S
C1379 C1374 1.399 . S
C1379 C1378 1.394 . S
C1379 C1380 1.516 . S
C1380 C1379 1.516 . S
C1380 C1381 1.502 . S
C1380 C1382 1.561 . S
C1380 C1383 1.526 . S
C1381 H1365 0.959 . S
C1381 H1366 0.959 . S
C1381 H1367 0.961 . S
C1381 C1380 1.502 . S
C1382 H1368 0.960 . S
C1382 H1369 0.961 . S
C1382 H1370 0.959 . S
C1382 C1380 1.561 . S
C1383 C1380 1.526 . S
C1383 C1384 1.396 . S
C1383 C1388 1.390 . S
C1384 C1378 1.465 . S
C1384 C1383 1.396 . S
C1384 C1385 1.399 . S
C1385 H1371 0.929 . S
C1385 C1384 1.399 . S
C1385 C1386 1.385 . S
C1386 H1372 0.931 . S
C1386 C1385 1.385 . S
C1386 C1387 1.389 . S
C1387 C1386 1.389 . S
C1387 C1388 1.387 . S
C1388 H1373 0.930 . S
C1388 C1383 1.390 . S
C1388 C1387 1.387 . S
H1389 C1401 0.930 . S
H1390 C1403 0.930 . S
H1391 C1404 0.930 . S
H1392 C1408 0.959 . S
H1393 C1408 0.959 . S
H1394 C1408 0.961 . S
H1395 C1409 0.960 . S
H1396 C1409 0.961 . S
H1397 C1409 0.959 . S
H1398 C1412 0.929 . S
H1399 C1413 0.931 . S
H1400 C1415 0.930 . S
C1401 H1389 0.930 . S
C1401 C1402 1.399 . S
C1401 C1406 1.399 . S
C1402 C1401 1.399 . S
C1402 C1403 1.376 . S
C1403 H1390 0.930 . S
C1403 C1402 1.376 . S
C1403 C1404 1.388 . S
C1404 H1391 0.930 . S
C1404 C1403 1.388 . S
C1404 C1405 1.390 . S
C1405 C1404 1.390 . S
C1405 C1406 1.394 . S
C1405 C1411 1.465 . S
C1406 C1401 1.399 . S
C1406 C1405 1.394 . S
C1406 C1407 1.516 . S
C1407 C1406 1.516 . S
C1407 C1408 1.502 . S
C1407 C1409 1.561 . S
C1407 C1410 1.526 . S
C1408 H1392 0.959 . S
C1408 H1393 0.959 . S
C1408 H1394 0.961 . S
C1408 C1407 1.502 . S
C1409 H1395 0.960 . S
C1409 H1396 0.961 . S
C1409 H1397 0.959 . S
C1409 C1407 1.561 . S
C1410 C1407 1.526 . S
C1410 C1411 1.396 . S
C1410 C1415 1.390 . S
C1411 C1405 1.465 . S
C1411 C1410 1.396 . S
C1411 C1412 1.399 . S
C1412 H1398 0.929 . S
C1412 C1411 1.399 . S
C1412 C1413 1.385 . S
C1413 H1399 0.931 . S
C1413 C1412 1.385 . S
C1413 C1414 1.389 . S
C1414 C1413 1.389 . S
C1414 C1415 1.387 . S
C1415 H1400 0.930 . S
C1415 C1410 1.390 . S
C1415 C1414 1.387 . S
H1416 C1428 0.930 . S
H1417 C1430 0.930 . S
H1418 C1431 0.930 . S
H1419 C1435 0.959 . S
H1420 C1435 0.959 . S
H1421 C1435 0.961 . S
H1422 C1436 0.960 . S
H1423 C1436 0.961 . S
H1424 C1436 0.959 . S
H1425 C1439 0.929 . S
H1426 C1440 0.931 . S
H1427 C1442 0.930 . S
C1428 H1416 0.930 . S
C1428 C1429 1.399 . S
C1428 C1433 1.399 . S
C1429 C1428 1.399 . S
C1429 C1430 1.376 . S
C1430 H1417 0.930 . S
C1430 C1429 1.376 . S
C1430 C1431 1.388 . S
C1431 H1418 0.930 . S
C1431 C1430 1.388 . S
C1431 C1432 1.390 . S
C1432 C1431 1.390 . S
C1432 C1433 1.394 . S
C1432 C1438 1.465 . S
C1433 C1428 1.399 . S
C1433 C1432 1.394 . S
C1433 C1434 1.516 . S
C1434 C1433 1.516 . S
C1434 C1435 1.502 . S
C1434 C1436 1.561 . S
C1434 C1437 1.526 . S
C1435 H1419 0.959 . S
C1435 H1420 0.959 . S
C1435 H1421 0.961 . S
C1435 C1434 1.502 . S
C1436 H1422 0.960 . S
C1436 H1423 0.961 . S
C1436 H1424 0.959 . S
C1436 C1434 1.561 . S
C1437 C1434 1.526 . S
C1437 C1438 1.396 . S
C1437 C1442 1.390 . S
C1438 C1432 1.465 . S
C1438 C1437 1.396 . S
C1438 C1439 1.399 . S
C1439 H1425 0.929 . S
C1439 C1438 1.399 . S
C1439 C1440 1.385 . S
C1440 H1426 0.931 . S
C1440 C1439 1.385 . S
C1440 C1441 1.389 . S
C1441 C1440 1.389 . S
C1441 C1442 1.387 . S
C1442 H1427 0.930 . S
C1442 C1437 1.390 . S
C1442 C1441 1.387 . S
H1443 C1455 0.930 . S
H1444 C1457 0.930 . S
H1445 C1458 0.930 . S
H1446 C1462 0.959 . S
H1447 C1462 0.959 . S
H1448 C1462 0.961 . S
H1449 C1463 0.960 . S
H1450 C1463 0.961 . S
H1451 C1463 0.959 . S
H1452 C1466 0.929 . S
H1453 C1467 0.931 . S
H1454 C1469 0.930 . S
C1455 H1443 0.930 . S
C1455 C1456 1.399 . S
C1455 C1460 1.399 . S
C1456 C1455 1.399 . S
C1456 C1457 1.376 . S
C1457 H1444 0.930 . S
C1457 C1456 1.376 . S
C1457 C1458 1.388 . S
C1458 H1445 0.930 . S
C1458 C1457 1.388 . S
C1458 C1459 1.390 . S
C1459 C1458 1.390 . S
C1459 C1460 1.394 . S
C1459 C1465 1.465 . S
C1460 C1455 1.399 . S
C1460 C1459 1.394 . S
C1460 C1461 1.516 . S
C1461 C1460 1.516 . S
C1461 C1462 1.502 . S
C1461 C1463 1.561 . S
C1461 C1464 1.526 . S
C1462 H1446 0.959 . S
C1462 H1447 0.959 . S
C1462 H1448 0.961 . S
C1462 C1461 1.502 . S
C1463 H1449 0.960 . S
C1463 H1450 0.961 . S
C1463 H1451 0.959 . S
C1463 C1461 1.561 . S
C1464 C1461 1.526 . S
C1464 C1465 1.396 . S
C1464 C1469 1.390 . S
C1465 C1459 1.465 . S
C1465 C1464 1.396 . S
C1465 C1466 1.399 . S
C1466 H1452 0.929 . S
C1466 C1465 1.399 . S
C1466 C1467 1.385 . S
C1467 H1453 0.931 . S
C1467 C1466 1.385 . S
C1467 C1468 1.389 . S
C1468 C1467 1.389 . S
C1468 C1469 1.387 . S
C1469 H1454 0.930 . S
C1469 C1464 1.390 . S
C1469 C1468 1.387 . S
H1470 C1482 0.930 . S
H1471 C1484 0.930 . S
H1472 C1485 0.930 . S
H1473 C1489 0.959 . S
H1474 C1489 0.959 . S
H1475 C1489 0.961 . S
H1476 C1490 0.960 . S
H1477 C1490 0.961 . S
H1478 C1490 0.959 . S
H1479 C1493 0.929 . S
H1480 C1494 0.931 . S
H1481 C1496 0.930 . S
C1482 H1470 0.930 . S
C1482 C1483 1.399 . S
C1482 C1487 1.399 . S
C1483 C1482 1.399 . S
C1483 C1484 1.376 . S
C1484 H1471 0.930 . S
C1484 C1483 1.376 . S
C1484 C1485 1.388 . S
C1485 H1472 0.930 . S
C1485 C1484 1.388 . S
C1485 C1486 1.390 . S
C1486 C1485 1.390 . S
C1486 C1487 1.394 . S
C1486 C1492 1.465 . S
C1487 C1482 1.399 . S
C1487 C1486 1.394 . S
C1487 C1488 1.516 . S
C1488 C1487 1.516 . S
C1488 C1489 1.502 . S
C1488 C1490 1.561 . S
C1488 C1491 1.526 . S
C1489 H1473 0.959 . S
C1489 H1474 0.959 . S
C1489 H1475 0.961 . S
C1489 C1488 1.502 . S
C1490 H1476 0.960 . S
C1490 H1477 0.961 . S
C1490 H1478 0.959 . S
C1490 C1488 1.561 . S
C1491 C1488 1.526 . S
C1491 C1492 1.396 . S
C1491 C1496 1.390 . S
C1492 C1486 1.465 . S
C1492 C1491 1.396 . S
C1492 C1493 1.399 . S
C1493 H1479 0.929 . S
C1493 C1492 1.399 . S
C1493 C1494 1.385 . S
C1494 H1480 0.931 . S
C1494 C1493 1.385 . S
C1494 C1495 1.389 . S
C1495 C1494 1.389 . S
C1495 C1496 1.387 . S
C1496 H1481 0.930 . S
C1496 C1491 1.390 . S
C1496 C1495 1.387 . S
H1497 C1509 0.930 . S
H1498 C1511 0.930 . S
H1499 C1512 0.930 . S
H1500 C1516 0.959 . S
H1501 C1516 0.959 . S
H1502 C1516 0.961 . S
H1503 C1517 0.960 . S
H1504 C1517 0.961 . S
H1505 C1517 0.959 . S
H1506 C1520 0.929 . S
H1507 C1521 0.931 . S
H1508 C1523 0.930 . S
C1509 H1497 0.930 . S
C1509 C1510 1.399 . S
C1509 C1514 1.399 . S
C1510 C1509 1.399 . S
C1510 C1511 1.376 . S
C1511 H1498 0.930 . S
C1511 C1510 1.376 . S
C1511 C1512 1.388 . S
C1512 H1499 0.930 . S
C1512 C1511 1.388 . S
C1512 C1513 1.390 . S
C1513 C1512 1.390 . S
C1513 C1514 1.394 . S
C1513 C1519 1.465 . S
C1514 C1509 1.399 . S
C1514 C1513 1.394 . S
C1514 C1515 1.516 . S
C1515 C1514 1.516 . S
C1515 C1516 1.502 . S
C1515 C1517 1.561 . S
C1515 C1518 1.526 . S
C1516 H1500 0.959 . S
C1516 H1501 0.959 . S
C1516 H1502 0.961 . S
C1516 C1515 1.502 . S
C1517 H1503 0.960 . S
C1517 H1504 0.961 . S
C1517 H1505 0.959 . S
C1517 C1515 1.561 . S
C1518 C1515 1.526 . S
C1518 C1519 1.396 . S
C1518 C1523 1.390 . S
C1519 C1513 1.465 . S
C1519 C1518 1.396 . S
C1519 C1520 1.399 . S
C1520 H1506 0.929 . S
C1520 C1519 1.399 . S
C1520 C1521 1.385 . S
C1521 H1507 0.931 . S
C1521 C1520 1.385 . S
C1521 C1522 1.389 . S
C1522 C1521 1.389 . S
C1522 C1523 1.387 . S
C1523 H1508 0.930 . S
C1523 C1518 1.390 . S
C1523 C1522 1.387 . S
H1524 C1536 0.930 . S
H1525 C1538 0.930 . S
H1526 C1539 0.930 . S
H1527 C1543 0.959 . S
H1528 C1543 0.959 . S
H1529 C1543 0.961 . S
H1530 C1544 0.960 . S
H1531 C1544 0.961 . S
H1532 C1544 0.959 . S
H1533 C1547 0.929 . S
H1534 C1548 0.931 . S
H1535 C1550 0.930 . S
C1536 H1524 0.930 . S
C1536 C1537 1.399 . S
C1536 C1541 1.399 . S
C1537 C1536 1.399 . S
C1537 C1538 1.376 . S
C1538 H1525 0.930 . S
C1538 C1537 1.376 . S
C1538 C1539 1.388 . S
C1539 H1526 0.930 . S
C1539 C1538 1.388 . S
C1539 C1540 1.390 . S
C1540 C1539 1.390 . S
C1540 C1541 1.394 . S
C1540 C1546 1.465 . S
C1541 C1536 1.399 . S
C1541 C1540 1.394 . S
C1541 C1542 1.516 . S
C1542 C1541 1.516 . S
C1542 C1543 1.502 . S
C1542 C1544 1.561 . S
C1542 C1545 1.526 . S
C1543 H1527 0.959 . S
C1543 H1528 0.959 . S
C1543 H1529 0.961 . S
C1543 C1542 1.502 . S
C1544 H1530 0.960 . S
C1544 H1531 0.961 . S
C1544 H1532 0.959 . S
C1544 C1542 1.561 . S
C1545 C1542 1.526 . S
C1545 C1546 1.396 . S
C1545 C1550 1.390 . S
C1546 C1540 1.465 . S
C1546 C1545 1.396 . S
C1546 C1547 1.399 . S
C1547 H1533 0.929 . S
C1547 C1546 1.399 . S
C1547 C1548 1.385 . S
C1548 H1534 0.931 . S
C1548 C1547 1.385 . S
C1548 C1549 1.389 . S
C1549 C1548 1.389 . S
C1549 C1550 1.387 . S
C1550 H1535 0.930 . S
C1550 C1545 1.390 . S
C1550 C1549 1.387 . S
H1551 C1563 0.930 . S
H1552 C1565 0.930 . S
H1553 C1566 0.930 . S
H1554 C1570 0.959 . S
H1555 C1570 0.959 . S
H1556 C1570 0.961 . S
H1557 C1571 0.960 . S
H1558 C1571 0.961 . S
H1559 C1571 0.959 . S
H1560 C1574 0.929 . S
H1561 C1575 0.931 . S
H1562 C1577 0.930 . S
C1563 H1551 0.930 . S
C1563 C1564 1.399 . S
C1563 C1568 1.399 . S
C1564 C1563 1.399 . S
C1564 C1565 1.376 . S
C1565 H1552 0.930 . S
C1565 C1564 1.376 . S
C1565 C1566 1.388 . S
C1566 H1553 0.930 . S
C1566 C1565 1.388 . S
C1566 C1567 1.390 . S
C1567 C1566 1.390 . S
C1567 C1568 1.394 . S
C1567 C1573 1.465 . S
C1568 C1563 1.399 . S
C1568 C1567 1.394 . S
C1568 C1569 1.516 . S
C1569 C1568 1.516 . S
C1569 C1570 1.502 . S
C1569 C1571 1.561 . S
C1569 C1572 1.526 . S
C1570 H1554 0.959 . S
C1570 H1555 0.959 . S
C1570 H1556 0.961 . S
C1570 C1569 1.502 . S
C1571 H1557 0.960 . S
C1571 H1558 0.961 . S
C1571 H1559 0.959 . S
C1571 C1569 1.561 . S
C1572 C1569 1.526 . S
C1572 C1573 1.396 . S
C1572 C1577 1.390 . S
C1573 C1567 1.465 . S
C1573 C1572 1.396 . S
C1573 C1574 1.399 . S
C1574 H1560 0.929 . S
C1574 C1573 1.399 . S
C1574 C1575 1.385 . S
C1575 H1561 0.931 . S
C1575 C1574 1.385 . S
C1575 C1576 1.389 . S
C1576 C1575 1.389 . S
C1576 C1577 1.387 . S
C1577 H1562 0.930 . S
C1577 C1572 1.390 . S
C1577 C1576 1.387 . S
H1578 C1590 0.930 . S
H1579 C1592 0.930 . S
H1580 C1593 0.930 . S
H1581 C1597 0.959 . S
H1582 C1597 0.959 . S
H1583 C1597 0.961 . S
H1584 C1598 0.960 . S
H1585 C1598 0.961 . S
H1586 C1598 0.959 . S
H1587 C1601 0.929 . S
H1588 C1602 0.931 . S
H1589 C1604 0.930 . S
C1590 H1578 0.930 . S
C1590 C1591 1.399 . S
C1590 C1595 1.399 . S
C1591 C1590 1.399 . S
C1591 C1592 1.376 . S
C1592 H1579 0.930 . S
C1592 C1591 1.376 . S
C1592 C1593 1.388 . S
C1593 H1580 0.930 . S
C1593 C1592 1.388 . S
C1593 C1594 1.390 . S
C1594 C1593 1.390 . S
C1594 C1595 1.394 . S
C1594 C1600 1.465 . S
C1595 C1590 1.399 . S
C1595 C1594 1.394 . S
C1595 C1596 1.516 . S
C1596 C1595 1.516 . S
C1596 C1597 1.502 . S
C1596 C1598 1.561 . S
C1596 C1599 1.526 . S
C1597 H1581 0.959 . S
C1597 H1582 0.959 . S
C1597 H1583 0.961 . S
C1597 C1596 1.502 . S
C1598 H1584 0.960 . S
C1598 H1585 0.961 . S
C1598 H1586 0.959 . S
C1598 C1596 1.561 . S
C1599 C1596 1.526 . S
C1599 C1600 1.396 . S
C1599 C1604 1.390 . S
C1600 C1594 1.465 . S
C1600 C1599 1.396 . S
C1600 C1601 1.399 . S
C1601 H1587 0.929 . S
C1601 C1600 1.399 . S
C1601 C1602 1.385 . S
C1602 H1588 0.931 . S
C1602 C1601 1.385 . S
C1602 C1603 1.389 . S
C1603 C1602 1.389 . S
C1603 C1604 1.387 . S
C1604 H1589 0.930 . S
C1604 C1599 1.390 . S
C1604 C1603 1.387 . S
H1605 C1617 0.930 . S
H1606 C1619 0.930 . S
H1607 C1620 0.930 . S
H1608 C1624 0.959 . S
H1609 C1624 0.959 . S
H1610 C1624 0.961 . S
H1611 C1625 0.960 . S
H1612 C1625 0.961 . S
H1613 C1625 0.959 . S
H1614 C1628 0.929 . S
H1615 C1629 0.931 . S
H1616 C1631 0.930 . S
C1617 H1605 0.930 . S
C1617 C1618 1.399 . S
C1617 C1622 1.399 . S
C1618 C1617 1.399 . S
C1618 C1619 1.376 . S
C1619 H1606 0.930 . S
C1619 C1618 1.376 . S
C1619 C1620 1.388 . S
C1620 H1607 0.930 . S
C1620 C1619 1.388 . S
C1620 C1621 1.390 . S
C1621 C1620 1.390 . S
C1621 C1622 1.394 . S
C1621 C1627 1.465 . S
C1622 C1617 1.399 . S
C1622 C1621 1.394 . S
C1622 C1623 1.516 . S
C1623 C1622 1.516 . S
C1623 C1624 1.502 . S
C1623 C1625 1.561 . S
C1623 C1626 1.526 . S
C1624 H1608 0.959 . S
C1624 H1609 0.959 . S
C1624 H1610 0.961 . S
C1624 C1623 1.502 . S
C1625 H1611 0.960 . S
C1625 H1612 0.961 . S
C1625 H1613 0.959 . S
C1625 C1623 1.561 . S
C1626 C1623 1.526 . S
C1626 C1627 1.396 . S
C1626 C1631 1.390 . S
C1627 C1621 1.465 . S
C1627 C1626 1.396 . S
C1627 C1628 1.399 . S
C1628 H1614 0.929 . S
C1628 C1627 1.399 . S
C1628 C1629 1.385 . S
C1629 H1615 0.931 . S
C1629 C1628 1.385 . S
C1629 C1630 1.389 . S
C1630 C1629 1.389 . S
C1630 C1631 1.387 . S
C1631 H1616 0.930 . S
C1631 C1626 1.390 . S
C1631 C1630 1.387 . S
C349 C12 1.428 . S
C361 C110 1.422 . S
C376 C124 1.418 . S
C388 C26 1.426 . S
C403 C40 1.422 . S
C415 C138 1.413 . S
C430 C54 1.422 . S
C442 C152 1.413 . S
C457 C166 1.397 . S
C469 C68 1.404 . S
C484 C82 1.419 . S
C496 C96 1.410 . S
C511 C173 1.088 . S
C523 C271 1.125 . S
C538 C187 1.049 . S
C550 C285 1.022 . S
C565 C299 1.109 . S
C577 C201 1.142 . S
C592 C215 1.061 . S
C604 C313 1.030 . S
C619 C229 1.007 . S
C631 C327 1.021 . S
C646 C257 1.089 . S
C658 C243 1.051 . S
C673 C5 1.005 . S
C685 C117 0.945 . S
C700 C131 0.851 . S
C712 C19 0.884 . S
C727 C145 0.971 . S
C739 C33 1.024 . S
C754 C47 0.914 . S
C766 C159 0.866 . S
C781 C61 0.852 . S
C793 C89 0.890 . S
C808 C75 0.933 . S
C820 C103 0.878 . S
C835 C292 1.318 . S
C847 C180 1.321 . S
C862 C194 1.321 . S
C874 C306 1.319 . S
C889 C320 1.317 . S
C901 C208 1.313 . S
C916 C334 1.312 . S
C928 C222 1.316 . S
C943 C264 1.310 . S
C955 C236 1.313 . S
C970 C250 1.311 . S
C982 C278 1.316 . S
C997 C11 1.461 . S
C1009 C221 1.493 . S
C1024 C235 1.480 . S
C1036 C25 1.470 . S
C1051 C249 1.503 . S
C1063 C39 1.462 . S
C1078 C53 1.506 . S
C1090 C179 1.481 . S
C1105 C67 1.482 . S
C1117 C193 1.505 . S
C1132 C207 1.474 . S
C1144 C81 1.506 . S
C1159 C305 1.483 . S
C1171 C95 1.468 . S
C1186 C319 1.506 . S
C1198 C109 1.480 . S
C1213 C333 1.500 . S
C1225 C123 1.461 . S
C1240 C263 1.481 . S
C1252 C137 1.469 . S
C1267 C151 1.466 . S
C1279 C277 1.485 . S
C1294 C165 1.479 . S
C1306 C291 1.473 . S
C1321 C4 1.445 . S
C1333 C144 1.419 . S
C1348 C158 1.454 . S
C1360 C18 1.424 . S
C1375 C88 1.471 . S
C1387 C32 1.439 . S
C1402 C46 1.466 . S
C1414 C102 1.488 . S
C1429 C60 1.415 . S
C1441 C116 1.419 . S
C1456 C74 1.426 . S
C1468 C130 1.458 . S
C1483 C172 1.491 . S
C1495 C312 1.483 . S
C1510 C186 1.490 . S
C1522 C326 1.505 . S
C1537 C200 1.518 . S
C1549 C256 1.507 . S
C1564 C270 1.516 . S
C1576 C214 1.519 . S
C1591 C228 1.483 . S
C1603 C284 1.494 . S
C1618 C242 1.513 . S
C1630 C298 1.500 . S
