# Generated by pormake.
# Topology npo, (4)-cn, num edge types: 1
# Building blocks:
#     Node 0, Type 0, BuildingBlock: QUQFOY_clean_sbu_3, # of connection points: 4
#     Node 1, Type 0, BuildingBlock: QUQFOY_clean_sbu_3, # of connection points: 4
#     Node 2, Type 0, BuildingBlock: QUQFOY_clean_sbu_3, # of connection points: 4
#     Node 3, Type 0, BuildingBlock: QUQFOY_clean_sbu_3, # of connection points: 4
#     Node 4, Type 0, BuildingBlock: QUQFOY_clean_sbu_3, # of connection points: 4
#     Node 5, Type 0, BuildingBlock: QUQFOY_clean_sbu_3, # of connection points: 4
#     Edge 6, Type (0, 0), BuildingBlock: XUDNAN_clean_linker_2, # of connection points: 2
#     Edge 7, Type (0, 0), BuildingBlock: XUDNAN_clean_linker_2, # of connection points: 2
#     Edge 8, Type (0, 0), BuildingBlock: XUDNAN_clean_linker_2, # of connection points: 2
#     Edge 9, Type (0, 0), BuildingBlock: XUDNAN_clean_linker_2, # of connection points: 2
#     Edge 10, Type (0, 0), BuildingBlock: XUDNAN_clean_linker_2, # of connection points: 2
#     Edge 11, Type (0, 0), BuildingBlock: XUDNAN_clean_linker_2, # of connection points: 2
#     Edge 12, Type (0, 0), BuildingBlock: XUDNAN_clean_linker_2, # of connection points: 2
#     Edge 13, Type (0, 0), BuildingBlock: XUDNAN_clean_linker_2, # of connection points: 2
#     Edge 14, Type (0, 0), BuildingBlock: XUDNAN_clean_linker_2, # of connection points: 2
#     Edge 15, Type (0, 0), BuildingBlock: XUDNAN_clean_linker_2, # of connection points: 2
#     Edge 16, Type (0, 0), BuildingBlock: XUDNAN_clean_linker_2, # of connection points: 2
#     Edge 17, Type (0, 0), BuildingBlock: XUDNAN_clean_linker_2, # of connection points: 2
# Relax obj value: 0.289
# Max RMSD: 0.250
# Mean RMSD: 0.240
data_MOF--net-npo--node1-QUQFOY_clean_sbu_3--edge1-XUDNAN_clean_linker_2
_symmetry_space_group_name_H-M    P1
_symmetry_Int_Tables_number       1
_symmetry_cell_setting            triclinic
loop_
_symmetry_equiv_pos_as_xyz
'x, y, z'
_cell_length_a     45.130769
_cell_length_b     44.534368
_cell_length_c     24.60175
_cell_angle_alpha  91.862497
_cell_angle_beta   89.87111
_cell_angle_gamma 120.60928
loop_
_atom_site_label
_atom_site_type_symbol
_atom_site_fract_x
_atom_site_fract_y
_atom_site_fract_z
_atom_type_partial_charge
C0 C 0.52293 0.17095 0.18507 0.0
O1 O 0.53255 0.17023 0.13677 0.0
Cd2 Cd 0.55989 0.13884 0.10864 0.0
O3 O 0.52572 0.15261 0.22129 0.0
Cd4 Cd 0.54536 0.10952 0.22773 0.0
C5 C 0.62556 0.17496 0.20498 0.0
O6 O 0.52432 0.08127 0.13985 0.0
O7 O 0.56247 0.07239 0.17617 0.0
O8 O 0.49591 0.07392 0.28445 0.0
C9 C 0.54057 0.06504 0.13832 0.0
O10 O 0.61599 0.17158 0.15535 0.0
C11 C 0.51298 0.06833 0.31952 0.0
O12 O 0.6044 0.15658 0.24109 0.0
O13 O 0.54521 0.08273 0.31262 0.0
C14 C 0.32964 0.47647 0.73832 0.0
O15 O 0.34423 0.47463 0.69519 0.0
Cd16 Cd 0.40461 0.49736 0.68777 0.0
O17 O 0.34691 0.48925 0.78258 0.0
Cd18 Cd 0.40735 0.51284 0.81518 0.0
C19 C 0.43272 0.58143 0.73473 0.0
O20 O 0.42003 0.47439 0.762 0.0
O21 O 0.46436 0.52143 0.79332 0.0
O22 O 0.38606 0.48164 0.89945 0.0
C23 C 0.45234 0.49191 0.76903 0.0
O24 O 0.43007 0.5612 0.69476 0.0
C25 C 0.40682 0.50731 0.93019 0.0
O26 O 0.42415 0.56982 0.78229 0.0
O27 O 0.42684 0.53576 0.90748 0.0
C28 C 0.84509 0.50863 0.26036 0.0
O29 O 0.85963 0.50678 0.30324 0.0
Cd30 Cd 0.89427 0.48037 0.30799 0.0
O31 O 0.84993 0.4978 0.21443 0.0
Cd32 Cd 0.88406 0.47235 0.17742 0.0
C33 C 0.8359 0.40028 0.25024 0.0
O34 O 0.9343 0.50351 0.23578 0.0
O35 O 0.93001 0.45898 0.19195 0.0
O36 O 0.89831 0.50737 0.09654 0.0
C37 C 0.94732 0.48476 0.22461 0.0
O38 O 0.85303 0.41766 0.29261 0.0
C39 C 0.89043 0.48175 0.06352 0.0
O40 O 0.84096 0.41472 0.20464 0.0
O41 O 0.8784 0.45191 0.08359 0.0
C42 C 0.35393 0.81248 0.76639 0.0
O43 O 0.365 0.81554 0.81482 0.0
Cd44 Cd 0.42435 0.84886 0.83851 0.0
O45 O 0.37458 0.82911 0.72839 0.0
Cd46 Cd 0.43704 0.87242 0.71724 0.0
C47 C 0.45331 0.80924 0.74725 0.0
O48 O 0.44374 0.90441 0.80096 0.0
O49 O 0.49152 0.91389 0.76673 0.0
O50 O 0.41748 0.90114 0.65646 0.0
C51 C 0.47623 0.92206 0.80231 0.0
O52 O 0.44752 0.81477 0.79619 0.0
C53 C 0.44095 0.90889 0.62183 0.0
O54 O 0.45001 0.82576 0.70872 0.0
O55 O 0.46217 0.89879 0.63076 0.0
C56 C 0.62646 0.49823 0.25597 0.0
O57 O 0.61317 0.492 0.20847 0.0
Cd58 Cd 0.55274 0.46648 0.18866 0.0
O59 O 0.60762 0.49036 0.29788 0.0
Cd60 Cd 0.54555 0.46196 0.31827 0.0
C61 C 0.52397 0.38741 0.24286 0.0
O62 O 0.5322 0.49326 0.25344 0.0
O63 O 0.48847 0.45278 0.29396 0.0
O64 O 0.55551 0.49265 0.40727 0.0
C65 C 0.50001 0.47719 0.26062 0.0
O66 O 0.52824 0.4036 0.19916 0.0
C67 C 0.54124 0.46461 0.43341 0.0
O68 O 0.53021 0.4034 0.28889 0.0
O69 O 0.52938 0.43618 0.40577 0.0
C70 C 0.1225 0.48999 0.74421 0.0
O71 O 0.11642 0.49847 0.79091 0.0
Cd72 Cd 0.08216 0.52514 0.80553 0.0
O73 O 0.11042 0.49548 0.70136 0.0
Cd74 Cd 0.07516 0.52113 0.67622 0.0
C75 C 0.13207 0.59942 0.73698 0.0
O76 O 0.03245 0.49402 0.74595 0.0
O77 O 0.02921 0.53291 0.70078 0.0
O78 O 0.05444 0.48209 0.59497 0.0
C79 C 0.01653 0.50997 0.73648 0.0
O80 O 0.12097 0.58635 0.78313 0.0
C81 C 0.06115 0.50657 0.56302 0.0
O82 O 0.12082 0.58065 0.69349 0.0
O83 O 0.07422 0.53716 0.58405 0.0
H84 H 0.52385 0.22079 0.12189 0.0
H85 H 0.498 0.17874 0.2832 0.0
H86 H 0.48742 0.22608 0.31178 0.0
H87 H 0.57162 0.3063 0.16371 0.0
H88 H 0.55847 0.32363 0.10973 0.0
H89 H 0.55763 0.28312 0.09875 0.0
H90 H 0.49301 0.25206 0.07128 0.0
H91 H 0.49367 0.29266 0.08178 0.0
H92 H 0.4629 0.25449 0.11687 0.0
H93 H 0.48818 0.28215 0.32653 0.0
H94 H 0.49965 0.34248 0.32646 0.0
H95 H 0.52526 0.34822 0.15546 0.0
C96 C 0.51495 0.22084 0.16278 0.0
C97 C 0.51159 0.19592 0.20026 0.0
C98 C 0.50059 0.19743 0.25371 0.0
C99 C 0.49441 0.22416 0.27025 0.0
C100 C 0.49912 0.24898 0.23275 0.0
C101 C 0.50886 0.24739 0.17996 0.0
C102 C 0.51573 0.2792 0.1493 0.0
C103 C 0.55307 0.29923 0.12924 0.0
C104 C 0.48977 0.26898 0.10201 0.0
C105 C 0.50975 0.29969 0.19377 0.0
C106 C 0.49966 0.28155 0.24133 0.0
C107 C 0.49543 0.29632 0.28928 0.0
C108 C 0.50219 0.33069 0.28886 0.0
C109 C 0.51322 0.35 0.24085 0.0
C110 C 0.5163 0.33393 0.1925 0.0
H111 H 0.2929 0.48941 0.81502 0.0
H112 H 0.28386 0.44196 0.6543 0.0
H113 H 0.22552 0.43275 0.64381 0.0
H114 H 0.1997 0.43425 0.85174 0.0
H115 H 0.19999 0.47078 0.8861 0.0
H116 H 0.23855 0.46812 0.88497 0.0
H117 H 0.27188 0.52931 0.84371 0.0
H118 H 0.23353 0.53207 0.84437 0.0
H119 H 0.25607 0.53709 0.78166 0.0
H120 H 0.17283 0.43727 0.64436 0.0
H121 H 0.12855 0.45365 0.65741 0.0
H122 H 0.17087 0.49698 0.81835 0.0
C123 C 0.27825 0.47609 0.77832 0.0
C124 C 0.29294 0.46632 0.73558 0.0
C125 C 0.27317 0.44964 0.68769 0.0
C126 C 0.23991 0.44416 0.68139 0.0
C127 C 0.22664 0.45518 0.72353 0.0
C128 C 0.24501 0.47046 0.77135 0.0
C129 C 0.22628 0.48308 0.80806 0.0
C130 C 0.21548 0.46284 0.86084 0.0
C131 C 0.24825 0.52272 0.82011 0.0
C132 C 0.19527 0.47385 0.77241 0.0
C133 C 0.19576 0.45738 0.72411 0.0
C134 C 0.17168 0.4494 0.68252 0.0
C135 C 0.14674 0.45895 0.69018 0.0
C136 C 0.14608 0.47624 0.73908 0.0
C137 C 0.17024 0.48305 0.78106 0.0
H138 H 0.67474 0.22365 0.14031 0.0
H139 H 0.65542 0.19026 0.30703 0.0
H140 H 0.71105 0.24172 0.33577 0.0
H141 H 0.76985 0.26254 0.14513 0.0
H142 H 0.77648 0.29772 0.10294 0.0
H143 H 0.7379 0.25554 0.09455 0.0
H144 H 0.70089 0.28441 0.10895 0.0
H145 H 0.73922 0.32653 0.11784 0.0
H146 H 0.70715 0.31065 0.16998 0.0
H147 H 0.76531 0.30049 0.34778 0.0
H148 H 0.81371 0.36117 0.34173 0.0
H149 H 0.79643 0.35549 0.16716 0.0
C150 C 0.68253 0.22657 0.18267 0.0
C151 C 0.66074 0.20283 0.22136 0.0
C152 C 0.67174 0.20801 0.27656 0.0
C153 C 0.70334 0.23713 0.29328 0.0
C154 C 0.72368 0.26062 0.25425 0.0
C155 C 0.71381 0.25545 0.2 0.0
C156 C 0.73864 0.28595 0.16683 0.0
C157 C 0.7568 0.27476 0.12489 0.0
C158 C 0.72038 0.30287 0.13932 0.0
C159 C 0.76336 0.30968 0.21118 0.0
C160 C 0.75468 0.29449 0.26122 0.0
C161 C 0.77267 0.31244 0.30867 0.0
C162 C 0.80006 0.34693 0.30484 0.0
C163 C 0.8089 0.36312 0.25398 0.0
C164 C 0.79051 0.34389 0.20664 0.0
H165 H 0.45578 0.76495 0.81891 0.0
H166 H 0.46513 0.78795 0.64747 0.0
H167 H 0.46803 0.7349 0.62628 0.0
H168 H 0.51102 0.72492 0.8196 0.0
H169 H 0.48332 0.69279 0.86698 0.0
H170 H 0.48794 0.73547 0.8692 0.0
H171 H 0.42171 0.70692 0.85932 0.0
H172 H 0.4169 0.66428 0.85658 0.0
H173 H 0.3996 0.67731 0.80225 0.0
H174 H 0.46213 0.67534 0.62289 0.0
H175 H 0.44838 0.61498 0.63774 0.0
H176 H 0.44235 0.63155 0.81134 0.0
C177 C 0.45941 0.75947 0.77701 0.0
C178 C 0.46035 0.78072 0.73489 0.0
C179 C 0.46453 0.77217 0.68051 0.0
C180 C 0.46627 0.74211 0.66808 0.0
C181 C 0.46405 0.72109 0.7105 0.0
C182 C 0.46103 0.72961 0.76395 0.0
C183 C 0.45582 0.70118 0.80155 0.0
C184 C 0.48635 0.71438 0.84169 0.0
C185 C 0.42147 0.68657 0.83165 0.0
C186 C 0.45503 0.67469 0.76072 0.0
C187 C 0.46036 0.68678 0.7085 0.0
C188 C 0.45848 0.66583 0.66371 0.0
C189 C 0.45057 0.63155 0.67254 0.0
C190 C 0.44429 0.61849 0.72571 0.0
C191 C 0.4472 0.64072 0.77022 0.0
H192 H 0.67027 0.49693 0.18036 0.0
H193 H 0.66636 0.5287 0.34757 0.0
H194 H 0.72672 0.54425 0.36207 0.0
H195 H 0.71289 0.45419 0.20811 0.0
H196 H 0.73871 0.46601 0.14787 0.0
H197 H 0.69803 0.4642 0.14713 0.0
H198 H 0.72805 0.52826 0.11702 0.0
H199 H 0.76896 0.53023 0.1175 0.0
H200 H 0.76363 0.56195 0.1569 0.0
H201 H 0.78379 0.54826 0.36238 0.0
H202 H 0.83245 0.53848 0.34967 0.0
H203 H 0.79894 0.50302 0.18258 0.0
C204 C 0.68247 0.50827 0.21949 0.0
C205 C 0.66377 0.51194 0.2627 0.0
C206 C 0.6803 0.52584 0.31382 0.0
C207 C 0.71462 0.53493 0.32234 0.0
C208 C 0.73204 0.53001 0.27932 0.0
C209 C 0.71656 0.51709 0.22881 0.0
C210 C 0.73928 0.51006 0.19153 0.0
C211 C 0.72115 0.47133 0.1726 0.0
C212 C 0.75066 0.53407 0.14286 0.0
C213 C 0.76929 0.51962 0.22969 0.0
C214 C 0.76495 0.53177 0.27975 0.0
C215 C 0.78781 0.5394 0.32307 0.0
C216 C 0.81533 0.53365 0.31547 0.0
C217 C 0.8196 0.52007 0.26506 0.0
C218 C 0.79675 0.51394 0.2213 0.0
H219 H 0.30503 0.76775 0.83568 0.0
H220 H 0.32016 0.79943 0.668 0.0
H221 H 0.26085 0.75233 0.64506 0.0
H222 H 0.26275 0.67989 0.80725 0.0
H223 H 0.23321 0.66753 0.86292 0.0
H224 H 0.27429 0.70723 0.86834 0.0
H225 H 0.24405 0.74253 0.88882 0.0
H226 H 0.20273 0.7028 0.88373 0.0
H227 H 0.21153 0.73899 0.84227 0.0
H228 H 0.20366 0.69734 0.63775 0.0
H229 H 0.15278 0.63861 0.64639 0.0
H230 H 0.17498 0.64286 0.819 0.0
C231 C 0.29564 0.76546 0.7944 0.0
C232 C 0.31722 0.78738 0.75366 0.0
C233 C 0.30406 0.78305 0.69995 0.0
C234 C 0.27036 0.75645 0.68658 0.0
C235 C 0.25014 0.73467 0.72746 0.0
C236 C 0.2622 0.73906 0.78039 0.0
C237 C 0.23672 0.71009 0.81554 0.0
C238 C 0.2527 0.69001 0.8399 0.0
C239 C 0.22294 0.72447 0.86023 0.0
C240 C 0.20903 0.68788 0.77359 0.0
C241 C 0.217 0.70279 0.72324 0.0
C242 C 0.1968 0.68572 0.67715 0.0
C243 C 0.16804 0.6523 0.68246 0.0
C244 C 0.15984 0.63623 0.73345 0.0
C245 C 0.18023 0.65469 0.77972 0.0
H246 H 0.45171 0.95404 0.86783 0.0
H247 H 0.54125 0.94369 0.84205 0.0
H248 H 0.56823 0.97933 0.92661 0.0
H249 H 0.49833 0.04366 0.92091 0.0
H250 H 0.46504 0.03639 0.96841 0.0
H251 H 0.45409 0.01128 0.90517 0.0
H252 H 0.42425 0.95414 0.95848 0.0
H253 H 0.43549 0.97904 0.02188 0.0
H254 H 0.44834 0.94717 0.00985 0.0
H255 H 0.58295 0.0127 0.01829 0.0
H256 H 0.58688 0.04609 0.10334 0.0
H257 H 0.48808 0.03524 0.06458 0.0
C258 C 0.47715 0.95953 0.87968 0.0
C259 C 0.49443 0.94612 0.84883 0.0
C260 C 0.52773 0.95396 0.86525 0.0
C261 C 0.54311 0.97397 0.91324 0.0
C262 C 0.52492 0.98614 0.94349 0.0
C263 C 0.49289 0.97963 0.92674 0.0
C264 C 0.4785 -0.00446 0.96595 0.0
C265 C 0.47373 0.02338 0.93847 0.0
C266 C 0.44465 0.96728 -0.00952 0.0
C267 C 0.50722 0.01176 0.00794 0.0
C268 C 0.53372 0.00594 -0.00528 0.0
C269 C 0.56251 0.0177 0.02873 0.0
C270 C 0.56443 0.03641 0.07698 0.0
C271 C 0.53786 0.04333 0.09011 0.0
C272 C 0.50891 0.03059 0.05525 0.0
H273 H 0.55496 0.52001 0.50233 0.0
H274 H 0.5153 0.4084 0.49788 0.0
H275 H 0.49859 0.40585 0.59358 0.0
H276 H 0.58405 0.53651 0.65161 0.0
H277 H 0.57079 0.56828 0.66042 0.0
H278 H 0.58678 0.56297 0.59574 0.0
H279 H 0.53086 0.55224 0.54814 0.0
H280 H 0.51478 0.55746 0.61236 0.0
H281 H 0.4898 0.51806 0.57122 0.0
H282 H 0.47438 0.41243 0.67966 0.0
H283 H 0.44657 0.42868 0.75212 0.0
H284 H 0.50433 0.53638 0.70524 0.0
C285 C 0.54388 0.49531 0.52216 0.0
C286 C 0.53644 0.46444 0.49276 0.0
C287 C 0.52127 0.43241 0.51964 0.0
C288 C 0.51188 0.43072 0.57416 0.0
C289 C 0.51831 0.46136 0.60152 0.0
C290 C 0.53442 0.4932 0.57675 0.0
C291 C 0.53439 0.52135 0.61294 0.0
C292 C 0.5712 0.54891 0.63127 0.0
C293 C 0.51637 0.53822 0.58447 0.0
C294 C 0.51369 0.49985 0.66013 0.0
C295 C 0.5052 0.4654 0.65317 0.0
C296 C 0.48188 0.43951 0.68683 0.0
C297 C 0.46616 0.44888 0.72772 0.0
C298 C 0.47418 0.48383 0.73484 0.0
C299 C 0.49901 0.50977 0.70187 0.0
H300 H 0.97822 0.45731 0.80457 0.0
H301 H -0.00612 0.55614 0.75107 0.0
H302 H 0.95465 0.55515 0.82211 0.0
H303 H 0.88531 0.41999 0.84464 0.0
H304 H 0.89109 0.39909 0.90186 0.0
H305 H 0.91536 0.40467 0.84089 0.0
H306 H 0.97214 0.43683 0.89773 0.0
H307 H 0.94816 0.43151 0.95857 0.0
H308 H 0.98112 0.47454 0.9398 0.0
H309 H 0.92387 0.54923 0.90961 0.0
H310 H 0.90056 0.53658 0.0026 0.0
H311 H 0.90163 0.43975 -0.00493 0.0
C312 C 0.97258 0.47822 0.80683 0.0
C313 C -0.01097 0.50679 0.77254 0.0
C314 C 0.98133 0.53387 0.77682 0.0
C315 C 0.95905 0.5335 0.81698 0.0
C316 C 0.94412 0.50548 0.85151 0.0
C317 C 0.95005 0.47797 0.84607 0.0
C318 C 0.93339 0.45251 0.89106 0.0
C319 C 0.90457 0.41696 0.86823 0.0
C320 C 0.96031 0.44866 0.9237 0.0
C321 C 0.91888 0.47101 0.92446 0.0
C322 C 0.925 0.50135 0.90079 0.0
C323 C 0.91793 0.52501 0.92773 0.0
C324 C 0.90484 0.51771 0.98053 0.0
C325 C 0.89881 0.48694 0.00543 0.0
C326 C 0.90503 0.46295 0.97633 0.0
H327 H 0.54061 0.04106 0.38702 0.0
H328 H 0.44672 0.04203 0.3535 0.0
H329 H 0.41763 0.00067 0.42684 0.0
H330 H 0.4999 0.95011 0.41241 0.0
H331 H 0.52976 0.95572 0.46582 0.0
H332 H 0.54354 0.9864 0.41219 0.0
H333 H 0.56284 0.03737 0.48347 0.0
H334 H 0.54936 0.00688 0.53734 0.0
H335 H 0.53249 0.03573 0.53279 0.0
H336 H 0.39914 0.95965 0.50452 0.0
H337 H 0.39232 0.92132 0.57987 0.0
H338 H 0.49761 0.94533 0.55911 0.0
C339 C 0.51401 0.03282 0.39539 0.0
C340 C 0.49594 0.04488 0.36485 0.0
C341 C 0.46105 0.03316 0.37656 0.0
C342 C 0.44433 0.00967 0.41807 0.0
C343 C 0.46282 -0.00198 0.44706 0.0
C344 C 0.49686 0.00915 0.43617 0.0
C345 C 0.51074 0.99215 0.47241 0.0
C346 C 0.52162 0.96977 0.43868 0.0
C347 C 0.54062 0.01967 0.50865 0.0
C348 C 0.47918 0.96971 0.50547 0.0
C349 C 0.45186 0.97361 0.49049 0.0
C350 C 0.42028 0.95625 0.5164 0.0
C351 C 0.41665 0.93455 0.55909 0.0
C352 C 0.44434 0.93017 0.57493 0.0
C353 C 0.47585 0.9478 0.54737 0.0
H354 H 0.4624 0.54769 -0.00397 0.0
H355 H 0.3598 0.45638 -0.00512 0.0
H356 H 0.3696 0.44451 0.08862 0.0
H357 H 0.50162 0.50876 0.05365 0.0
H358 H 0.53299 0.54617 0.09372 0.0
H359 H 0.51531 0.5523 0.03264 0.0
H360 H 0.49548 0.58964 0.08695 0.0
H361 H 0.51338 0.58381 0.14842 0.0
H362 H 0.4688 0.57199 0.14558 0.0
H363 H 0.39344 0.43787 0.17629 0.0
H364 H 0.43012 0.43503 0.24789 0.0
H365 H 0.51806 0.52911 0.18921 0.0
C366 C 0.44152 0.52598 0.0163 0.0
C367 C 0.41017 0.50322 0.98869 0.0
C368 C 0.38388 0.47431 0.01568 0.0
C369 C 0.38918 0.46748 0.06895 0.0
C370 C 0.42091 0.48977 0.09444 0.0
C371 C 0.44664 0.5185 0.06896 0.0
C372 C 0.48003 0.53539 0.10152 0.0
C373 C 0.50917 0.53563 0.06841 0.0
C374 C 0.48999 0.5724 0.12183 0.0
C375 C 0.46954 0.5108 0.14807 0.0
C376 C 0.43513 0.48521 0.1441 0.0
C377 C 0.42026 0.45811 0.18033 0.0
C378 C 0.4413 0.45668 0.22082 0.0
C379 C 0.47691 0.48185 0.224 0.0
C380 C 0.49087 0.50966 0.18797 0.0
H381 H 0.05708 0.55043 0.49352 0.0
H382 H 0.04394 0.4472 0.50148 0.0
H383 H 0.02356 0.43473 0.40558 0.0
H384 H 0.9817 0.52419 0.42717 0.0
H385 H -0.00299 0.5621 0.38647 0.0
H386 H 0.0177 0.56558 0.45048 0.0
H387 H 0.07634 0.58985 0.40238 0.0
H388 H 0.05568 0.58633 0.33791 0.0
H389 H 0.08041 0.56525 0.34619 0.0
H390 H -0.00259 0.43081 0.31399 0.0
H391 H 0.96262 0.43334 0.23896 0.0
H392 H -0.00921 0.53832 0.29329 0.0
C393 C 0.05096 0.52559 0.47459 0.0
C394 C 0.05238 0.49988 0.50454 0.0
C395 C 0.04319 0.46731 0.47897 0.0
C396 C 0.03187 0.46013 0.42446 0.0
C397 C 0.02996 0.48583 0.39638 0.0
C398 C 0.03919 0.5179 0.42074 0.0
C399 C 0.03 0.53909 0.3851 0.0
C400 C 0.00512 0.54824 0.41402 0.0
C401 C 0.06255 0.57208 0.3668 0.0
C402 C 0.01258 0.51328 0.33797 0.0
C403 C 0.01374 0.48315 0.34431 0.0
C404 C -0.00316 0.45449 0.3081 0.0
C405 C 0.97717 0.45619 0.26557 0.0
C406 C 0.97406 0.48606 0.26052 0.0
C407 C -0.007 0.51532 0.296 0.0
loop_
_geom_bond_atom_site_label_1
_geom_bond_atom_site_label_2
_geom_bond_distance
_geom_bond_site_symmetry_2
_ccdc_geom_bond_type
C0 O1 1.306 . S
C0 O3 1.160 . S
O1 C0 1.306 . S
O1 Cd2 2.228 . S
Cd2 O1 2.228 . S
Cd2 O6 2.273 . S
Cd2 O10 2.277 . S
O3 C0 1.160 . S
O3 Cd4 2.203 . S
Cd4 O3 2.203 . S
Cd4 O6 2.411 . S
Cd4 O7 2.333 . S
Cd4 O8 2.352 . S
Cd4 O12 2.277 . S
Cd4 O13 2.356 . S
C5 O10 1.209 . S
C5 O12 1.226 . S
O6 Cd2 2.273 . S
O6 Cd4 2.411 . S
O6 C9 1.320 . S
O7 Cd4 2.333 . S
O7 C9 1.214 . S
O8 Cd4 2.352 . S
O8 C11 1.258 . S
C9 O6 1.320 . S
C9 O7 1.214 . S
O10 Cd2 2.277 . S
O10 C5 1.209 . S
C11 O8 1.258 . S
C11 O13 1.282 . S
O12 Cd4 2.277 . S
O12 C5 1.226 . S
O13 Cd4 2.356 . S
O13 C11 1.282 . S
C14 O15 1.306 . S
C14 O17 1.160 . S
O15 C14 1.306 . S
O15 Cd16 2.228 . S
Cd16 O15 2.228 . S
Cd16 O20 2.273 . S
Cd16 O24 2.277 . S
O17 C14 1.160 . S
O17 Cd18 2.203 . S
Cd18 O17 2.203 . S
Cd18 O20 2.411 . S
Cd18 O21 2.333 . S
Cd18 O22 2.352 . S
Cd18 O26 2.277 . S
Cd18 O27 2.356 . S
C19 O24 1.209 . S
C19 O26 1.226 . S
O20 Cd16 2.273 . S
O20 Cd18 2.411 . S
O20 C23 1.320 . S
O21 Cd18 2.333 . S
O21 C23 1.214 . S
O22 Cd18 2.352 . S
O22 C25 1.258 . S
C23 O20 1.320 . S
C23 O21 1.214 . S
O24 Cd16 2.277 . S
O24 C19 1.209 . S
C25 O22 1.258 . S
C25 O27 1.282 . S
O26 Cd18 2.277 . S
O26 C19 1.226 . S
O27 Cd18 2.356 . S
O27 C25 1.282 . S
C28 O29 1.306 . S
C28 O31 1.160 . S
O29 C28 1.306 . S
O29 Cd30 2.228 . S
Cd30 O29 2.228 . S
Cd30 O34 2.273 . S
Cd30 O38 2.277 . S
O31 C28 1.160 . S
O31 Cd32 2.203 . S
Cd32 O31 2.203 . S
Cd32 O34 2.411 . S
Cd32 O35 2.333 . S
Cd32 O36 2.352 . S
Cd32 O40 2.277 . S
Cd32 O41 2.356 . S
C33 O38 1.209 . S
C33 O40 1.226 . S
O34 Cd30 2.273 . S
O34 Cd32 2.411 . S
O34 C37 1.320 . S
O35 Cd32 2.333 . S
O35 C37 1.214 . S
O36 Cd32 2.352 . S
O36 C39 1.258 . S
C37 O34 1.320 . S
C37 O35 1.214 . S
O38 Cd30 2.277 . S
O38 C33 1.209 . S
C39 O36 1.258 . S
C39 O41 1.282 . S
O40 Cd32 2.277 . S
O40 C33 1.226 . S
O41 Cd32 2.356 . S
O41 C39 1.282 . S
C42 O43 1.306 . S
C42 O45 1.160 . S
O43 C42 1.306 . S
O43 Cd44 2.228 . S
Cd44 O43 2.228 . S
Cd44 O48 2.273 . S
Cd44 O52 2.277 . S
O45 C42 1.160 . S
O45 Cd46 2.203 . S
Cd46 O45 2.203 . S
Cd46 O48 2.411 . S
Cd46 O49 2.333 . S
Cd46 O50 2.352 . S
Cd46 O54 2.277 . S
Cd46 O55 2.356 . S
C47 O52 1.209 . S
C47 O54 1.226 . S
O48 Cd44 2.273 . S
O48 Cd46 2.411 . S
O48 C51 1.320 . S
O49 Cd46 2.333 . S
O49 C51 1.214 . S
O50 Cd46 2.352 . S
O50 C53 1.258 . S
C51 O48 1.320 . S
C51 O49 1.214 . S
O52 Cd44 2.277 . S
O52 C47 1.209 . S
C53 O50 1.258 . S
C53 O55 1.282 . S
O54 Cd46 2.277 . S
O54 C47 1.226 . S
O55 Cd46 2.356 . S
O55 C53 1.282 . S
C56 O57 1.306 . S
C56 O59 1.160 . S
O57 C56 1.306 . S
O57 Cd58 2.228 . S
Cd58 O57 2.228 . S
Cd58 O62 2.273 . S
Cd58 O66 2.277 . S
O59 C56 1.160 . S
O59 Cd60 2.203 . S
Cd60 O59 2.203 . S
Cd60 O62 2.411 . S
Cd60 O63 2.333 . S
Cd60 O64 2.352 . S
Cd60 O68 2.277 . S
Cd60 O69 2.356 . S
C61 O66 1.209 . S
C61 O68 1.226 . S
O62 Cd58 2.273 . S
O62 Cd60 2.411 . S
O62 C65 1.320 . S
O63 Cd60 2.333 . S
O63 C65 1.214 . S
O64 Cd60 2.352 . S
O64 C67 1.258 . S
C65 O62 1.320 . S
C65 O63 1.214 . S
O66 Cd58 2.277 . S
O66 C61 1.209 . S
C67 O64 1.258 . S
C67 O69 1.282 . S
O68 Cd60 2.277 . S
O68 C61 1.226 . S
O69 Cd60 2.356 . S
O69 C67 1.282 . S
C70 O71 1.306 . S
C70 O73 1.160 . S
O71 C70 1.306 . S
O71 Cd72 2.228 . S
Cd72 O71 2.228 . S
Cd72 O76 2.273 . S
Cd72 O80 2.277 . S
O73 C70 1.160 . S
O73 Cd74 2.203 . S
Cd74 O73 2.203 . S
Cd74 O76 2.411 . S
Cd74 O77 2.333 . S
Cd74 O78 2.352 . S
Cd74 O82 2.277 . S
Cd74 O83 2.356 . S
C75 O80 1.209 . S
C75 O82 1.226 . S
O76 Cd72 2.273 . S
O76 Cd74 2.411 . S
O76 C79 1.320 . S
O77 Cd74 2.333 . S
O77 C79 1.214 . S
O78 Cd74 2.352 . S
O78 C81 1.258 . S
C79 O76 1.320 . S
C79 O77 1.214 . S
O80 Cd72 2.277 . S
O80 C75 1.209 . S
C81 O78 1.258 . S
C81 O83 1.282 . S
O82 Cd74 2.277 . S
O82 C75 1.226 . S
O83 Cd74 2.356 . S
O83 C81 1.282 . S
H84 C96 0.930 . S
H85 C98 0.930 . S
H86 C99 0.930 . S
H87 C103 0.959 . S
H88 C103 0.959 . S
H89 C103 0.961 . S
H90 C104 0.960 . S
H91 C104 0.961 . S
H92 C104 0.959 . S
H93 C107 0.929 . S
H94 C108 0.931 . S
H95 C110 0.930 . S
C96 H84 0.930 . S
C96 C97 1.399 . S
C96 C101 1.399 . S
C97 C96 1.399 . S
C97 C98 1.376 . S
C98 H85 0.930 . S
C98 C97 1.376 . S
C98 C99 1.388 . S
C99 H86 0.930 . S
C99 C98 1.388 . S
C99 C100 1.390 . S
C100 C99 1.390 . S
C100 C101 1.394 . S
C100 C106 1.465 . S
C101 C96 1.399 . S
C101 C100 1.394 . S
C101 C102 1.516 . S
C102 C101 1.516 . S
C102 C103 1.502 . S
C102 C104 1.561 . S
C102 C105 1.526 . S
C103 H87 0.959 . S
C103 H88 0.959 . S
C103 H89 0.961 . S
C103 C102 1.502 . S
C104 H90 0.960 . S
C104 H91 0.961 . S
C104 H92 0.959 . S
C104 C102 1.561 . S
C105 C102 1.526 . S
C105 C106 1.396 . S
C105 C110 1.390 . S
C106 C100 1.465 . S
C106 C105 1.396 . S
C106 C107 1.399 . S
C107 H93 0.929 . S
C107 C106 1.399 . S
C107 C108 1.385 . S
C108 H94 0.931 . S
C108 C107 1.385 . S
C108 C109 1.389 . S
C109 C108 1.389 . S
C109 C110 1.387 . S
C110 H95 0.930 . S
C110 C105 1.390 . S
C110 C109 1.387 . S
H111 C123 0.930 . S
H112 C125 0.930 . S
H113 C126 0.930 . S
H114 C130 0.959 . S
H115 C130 0.959 . S
H116 C130 0.961 . S
H117 C131 0.960 . S
H118 C131 0.961 . S
H119 C131 0.959 . S
H120 C134 0.929 . S
H121 C135 0.931 . S
H122 C137 0.930 . S
C123 H111 0.930 . S
C123 C124 1.399 . S
C123 C128 1.399 . S
C124 C123 1.399 . S
C124 C125 1.376 . S
C125 H112 0.930 . S
C125 C124 1.376 . S
C125 C126 1.388 . S
C126 H113 0.930 . S
C126 C125 1.388 . S
C126 C127 1.390 . S
C127 C126 1.390 . S
C127 C128 1.394 . S
C127 C133 1.465 . S
C128 C123 1.399 . S
C128 C127 1.394 . S
C128 C129 1.516 . S
C129 C128 1.516 . S
C129 C130 1.502 . S
C129 C131 1.561 . S
C129 C132 1.526 . S
C130 H114 0.959 . S
C130 H115 0.959 . S
C130 H116 0.961 . S
C130 C129 1.502 . S
C131 H117 0.960 . S
C131 H118 0.961 . S
C131 H119 0.959 . S
C131 C129 1.561 . S
C132 C129 1.526 . S
C132 C133 1.396 . S
C132 C137 1.390 . S
C133 C127 1.465 . S
C133 C132 1.396 . S
C133 C134 1.399 . S
C134 H120 0.929 . S
C134 C133 1.399 . S
C134 C135 1.385 . S
C135 H121 0.931 . S
C135 C134 1.385 . S
C135 C136 1.389 . S
C136 C135 1.389 . S
C136 C137 1.387 . S
C137 H122 0.930 . S
C137 C132 1.390 . S
C137 C136 1.387 . S
H138 C150 0.930 . S
H139 C152 0.930 . S
H140 C153 0.930 . S
H141 C157 0.959 . S
H142 C157 0.959 . S
H143 C157 0.961 . S
H144 C158 0.960 . S
H145 C158 0.961 . S
H146 C158 0.959 . S
H147 C161 0.929 . S
H148 C162 0.931 . S
H149 C164 0.930 . S
C150 H138 0.930 . S
C150 C151 1.399 . S
C150 C155 1.399 . S
C151 C150 1.399 . S
C151 C152 1.376 . S
C152 H139 0.930 . S
C152 C151 1.376 . S
C152 C153 1.388 . S
C153 H140 0.930 . S
C153 C152 1.388 . S
C153 C154 1.390 . S
C154 C153 1.390 . S
C154 C155 1.394 . S
C154 C160 1.465 . S
C155 C150 1.399 . S
C155 C154 1.394 . S
C155 C156 1.516 . S
C156 C155 1.516 . S
C156 C157 1.502 . S
C156 C158 1.561 . S
C156 C159 1.526 . S
C157 H141 0.959 . S
C157 H142 0.959 . S
C157 H143 0.961 . S
C157 C156 1.502 . S
C158 H144 0.960 . S
C158 H145 0.961 . S
C158 H146 0.959 . S
C158 C156 1.561 . S
C159 C156 1.526 . S
C159 C160 1.396 . S
C159 C164 1.390 . S
C160 C154 1.465 . S
C160 C159 1.396 . S
C160 C161 1.399 . S
C161 H147 0.929 . S
C161 C160 1.399 . S
C161 C162 1.385 . S
C162 H148 0.931 . S
C162 C161 1.385 . S
C162 C163 1.389 . S
C163 C162 1.389 . S
C163 C164 1.387 . S
C164 H149 0.930 . S
C164 C159 1.390 . S
C164 C163 1.387 . S
H165 C177 0.930 . S
H166 C179 0.930 . S
H167 C180 0.930 . S
H168 C184 0.959 . S
H169 C184 0.959 . S
H170 C184 0.961 . S
H171 C185 0.960 . S
H172 C185 0.961 . S
H173 C185 0.959 . S
H174 C188 0.929 . S
H175 C189 0.931 . S
H176 C191 0.930 . S
C177 H165 0.930 . S
C177 C178 1.399 . S
C177 C182 1.399 . S
C178 C177 1.399 . S
C178 C179 1.376 . S
C179 H166 0.930 . S
C179 C178 1.376 . S
C179 C180 1.388 . S
C180 H167 0.930 . S
C180 C179 1.388 . S
C180 C181 1.390 . S
C181 C180 1.390 . S
C181 C182 1.394 . S
C181 C187 1.465 . S
C182 C177 1.399 . S
C182 C181 1.394 . S
C182 C183 1.516 . S
C183 C182 1.516 . S
C183 C184 1.502 . S
C183 C185 1.561 . S
C183 C186 1.526 . S
C184 H168 0.959 . S
C184 H169 0.959 . S
C184 H170 0.961 . S
C184 C183 1.502 . S
C185 H171 0.960 . S
C185 H172 0.961 . S
C185 H173 0.959 . S
C185 C183 1.561 . S
C186 C183 1.526 . S
C186 C187 1.396 . S
C186 C191 1.390 . S
C187 C181 1.465 . S
C187 C186 1.396 . S
C187 C188 1.399 . S
C188 H174 0.929 . S
C188 C187 1.399 . S
C188 C189 1.385 . S
C189 H175 0.931 . S
C189 C188 1.385 . S
C189 C190 1.389 . S
C190 C189 1.389 . S
C190 C191 1.387 . S
C191 H176 0.930 . S
C191 C186 1.390 . S
C191 C190 1.387 . S
H192 C204 0.930 . S
H193 C206 0.930 . S
H194 C207 0.930 . S
H195 C211 0.959 . S
H196 C211 0.959 . S
H197 C211 0.961 . S
H198 C212 0.960 . S
H199 C212 0.961 . S
H200 C212 0.959 . S
H201 C215 0.929 . S
H202 C216 0.931 . S
H203 C218 0.930 . S
C204 H192 0.930 . S
C204 C205 1.399 . S
C204 C209 1.399 . S
C205 C204 1.399 . S
C205 C206 1.376 . S
C206 H193 0.930 . S
C206 C205 1.376 . S
C206 C207 1.388 . S
C207 H194 0.930 . S
C207 C206 1.388 . S
C207 C208 1.390 . S
C208 C207 1.390 . S
C208 C209 1.394 . S
C208 C214 1.465 . S
C209 C204 1.399 . S
C209 C208 1.394 . S
C209 C210 1.516 . S
C210 C209 1.516 . S
C210 C211 1.502 . S
C210 C212 1.561 . S
C210 C213 1.526 . S
C211 H195 0.959 . S
C211 H196 0.959 . S
C211 H197 0.961 . S
C211 C210 1.502 . S
C212 H198 0.960 . S
C212 H199 0.961 . S
C212 H200 0.959 . S
C212 C210 1.561 . S
C213 C210 1.526 . S
C213 C214 1.396 . S
C213 C218 1.390 . S
C214 C208 1.465 . S
C214 C213 1.396 . S
C214 C215 1.399 . S
C215 H201 0.929 . S
C215 C214 1.399 . S
C215 C216 1.385 . S
C216 H202 0.931 . S
C216 C215 1.385 . S
C216 C217 1.389 . S
C217 C216 1.389 . S
C217 C218 1.387 . S
C218 H203 0.930 . S
C218 C213 1.390 . S
C218 C217 1.387 . S
H219 C231 0.930 . S
H220 C233 0.930 . S
H221 C234 0.930 . S
H222 C238 0.959 . S
H223 C238 0.959 . S
H224 C238 0.961 . S
H225 C239 0.960 . S
H226 C239 0.961 . S
H227 C239 0.959 . S
H228 C242 0.929 . S
H229 C243 0.931 . S
H230 C245 0.930 . S
C231 H219 0.930 . S
C231 C232 1.399 . S
C231 C236 1.399 . S
C232 C231 1.399 . S
C232 C233 1.376 . S
C233 H220 0.930 . S
C233 C232 1.376 . S
C233 C234 1.388 . S
C234 H221 0.930 . S
C234 C233 1.388 . S
C234 C235 1.390 . S
C235 C234 1.390 . S
C235 C236 1.394 . S
C235 C241 1.465 . S
C236 C231 1.399 . S
C236 C235 1.394 . S
C236 C237 1.516 . S
C237 C236 1.516 . S
C237 C238 1.502 . S
C237 C239 1.561 . S
C237 C240 1.526 . S
C238 H222 0.959 . S
C238 H223 0.959 . S
C238 H224 0.961 . S
C238 C237 1.502 . S
C239 H225 0.960 . S
C239 H226 0.961 . S
C239 H227 0.959 . S
C239 C237 1.561 . S
C240 C237 1.526 . S
C240 C241 1.396 . S
C240 C245 1.390 . S
C241 C235 1.465 . S
C241 C240 1.396 . S
C241 C242 1.399 . S
C242 H228 0.929 . S
C242 C241 1.399 . S
C242 C243 1.385 . S
C243 H229 0.931 . S
C243 C242 1.385 . S
C243 C244 1.389 . S
C244 C243 1.389 . S
C244 C245 1.387 . S
C245 H230 0.930 . S
C245 C240 1.390 . S
C245 C244 1.387 . S
H246 C258 0.930 . S
H247 C260 0.930 . S
H248 C261 0.930 . S
H249 C265 0.959 1_546 S
H250 C265 0.959 1_545 S
H251 C265 0.961 1_556 S
H252 C266 0.960 . S
H253 C266 0.961 . S
H254 C266 0.959 . S
H255 C269 0.929 . S
H256 C270 0.931 . S
H257 C272 0.930 . S
C258 H246 0.930 . S
C258 C259 1.399 . S
C258 C263 1.399 . S
C259 C258 1.399 . S
C259 C260 1.376 . S
C260 H247 0.930 . S
C260 C259 1.376 . S
C260 C261 1.388 . S
C261 H248 0.930 . S
C261 C260 1.388 . S
C261 C262 1.390 . S
C262 C261 1.390 . S
C262 C263 1.394 . S
C262 C268 1.465 1_566 S
C263 C258 1.399 . S
C263 C262 1.394 . S
C263 C264 1.516 1_556 S
C264 C263 1.516 1_554 S
C264 C265 1.502 . S
C264 C266 1.561 . S
C264 C267 1.526 1_565 S
C265 H249 0.959 1_564 S
C265 H250 0.959 1_565 S
C265 H251 0.961 1_554 S
C265 C264 1.502 . S
C266 H252 0.960 . S
C266 H253 0.961 . S
C266 H254 0.959 . S
C266 C264 1.561 . S
C267 C264 1.526 1_545 S
C267 C268 1.396 . S
C267 C272 1.390 . S
C268 C262 1.465 1_544 S
C268 C267 1.396 . S
C268 C269 1.399 . S
C269 H255 0.929 . S
C269 C268 1.399 . S
C269 C270 1.385 . S
C270 H256 0.931 . S
C270 C269 1.385 . S
C270 C271 1.389 . S
C271 C270 1.389 . S
C271 C272 1.387 . S
C272 H257 0.930 . S
C272 C267 1.390 . S
C272 C271 1.387 . S
H273 C285 0.930 . S
H274 C287 0.930 . S
H275 C288 0.930 . S
H276 C292 0.959 . S
H277 C292 0.959 . S
H278 C292 0.961 . S
H279 C293 0.960 . S
H280 C293 0.961 . S
H281 C293 0.959 . S
H282 C296 0.929 . S
H283 C297 0.931 . S
H284 C299 0.930 . S
C285 H273 0.930 . S
C285 C286 1.399 . S
C285 C290 1.399 . S
C286 C285 1.399 . S
C286 C287 1.376 . S
C287 H274 0.930 . S
C287 C286 1.376 . S
C287 C288 1.388 . S
C288 H275 0.930 . S
C288 C287 1.388 . S
C288 C289 1.390 . S
C289 C288 1.390 . S
C289 C290 1.394 . S
C289 C295 1.465 . S
C290 C285 1.399 . S
C290 C289 1.394 . S
C290 C291 1.516 . S
C291 C290 1.516 . S
C291 C292 1.502 . S
C291 C293 1.561 . S
C291 C294 1.526 . S
C292 H276 0.959 . S
C292 H277 0.959 . S
C292 H278 0.961 . S
C292 C291 1.502 . S
C293 H279 0.960 . S
C293 H280 0.961 . S
C293 H281 0.959 . S
C293 C291 1.561 . S
C294 C291 1.526 . S
C294 C295 1.396 . S
C294 C299 1.390 . S
C295 C289 1.465 . S
C295 C294 1.396 . S
C295 C296 1.399 . S
C296 H282 0.929 . S
C296 C295 1.399 . S
C296 C297 1.385 . S
C297 H283 0.931 . S
C297 C296 1.385 . S
C297 C298 1.389 . S
C298 C297 1.389 . S
C298 C299 1.387 . S
C299 H284 0.930 . S
C299 C294 1.390 . S
C299 C298 1.387 . S
H300 C312 0.930 . S
H301 C314 0.930 . S
H302 C315 0.930 . S
H303 C319 0.959 . S
H304 C319 0.959 . S
H305 C319 0.961 . S
H306 C320 0.960 . S
H307 C320 0.961 . S
H308 C320 0.959 . S
H309 C323 0.929 . S
H310 C324 0.931 . S
H311 C326 0.930 . S
C312 H300 0.930 . S
C312 C313 1.399 . S
C312 C317 1.399 . S
C313 C312 1.399 . S
C313 C314 1.376 . S
C314 H301 0.930 . S
C314 C313 1.376 . S
C314 C315 1.388 . S
C315 H302 0.930 . S
C315 C314 1.388 . S
C315 C316 1.390 . S
C316 C315 1.390 . S
C316 C317 1.394 . S
C316 C322 1.465 1_556 S
C317 C312 1.399 . S
C317 C316 1.394 . S
C317 C318 1.516 1_455 S
C318 C317 1.516 1_655 S
C318 C319 1.502 . S
C318 C320 1.561 . S
C318 C321 1.526 1_556 S
C319 H303 0.959 . S
C319 H304 0.959 . S
C319 H305 0.961 . S
C319 C318 1.502 . S
C320 H306 0.960 . S
C320 H307 0.961 . S
C320 H308 0.959 . S
C320 C318 1.561 . S
C321 C318 1.526 1_554 S
C321 C322 1.396 1_655 S
C321 C326 1.390 . S
C322 C316 1.465 1_554 S
C322 C321 1.396 1_455 S
C322 C323 1.399 . S
C323 H309 0.929 . S
C323 C322 1.399 . S
C323 C324 1.385 1_455 S
C324 H310 0.931 . S
C324 C323 1.385 1_655 S
C324 C325 1.389 . S
C325 C324 1.389 . S
C325 C326 1.387 . S
C326 H311 0.930 . S
C326 C321 1.390 . S
C326 C325 1.387 . S
H327 C339 0.930 . S
H328 C341 0.930 . S
H329 C342 0.930 . S
H330 C346 0.959 . S
H331 C346 0.959 . S
H332 C346 0.961 . S
H333 C347 0.960 . S
H334 C347 0.961 . S
H335 C347 0.959 . S
H336 C350 0.929 . S
H337 C351 0.931 . S
H338 C353 0.930 . S
C339 H327 0.930 . S
C339 C340 1.399 . S
C339 C344 1.399 . S
C340 C339 1.399 . S
C340 C341 1.376 . S
C341 H328 0.930 . S
C341 C340 1.376 . S
C341 C342 1.388 1_545 S
C342 H329 0.930 . S
C342 C341 1.388 1_565 S
C342 C343 1.390 . S
C343 C342 1.390 . S
C343 C344 1.394 1_565 S
C343 C349 1.465 . S
C344 C339 1.399 . S
C344 C343 1.394 1_545 S
C344 C345 1.516 . S
C345 C344 1.516 . S
C345 C346 1.502 . S
C345 C347 1.561 . S
C345 C348 1.526 1_545 S
C346 H330 0.959 . S
C346 H331 0.959 . S
C346 H332 0.961 . S
C346 C345 1.502 . S
C347 H333 0.960 . S
C347 H334 0.961 . S
C347 H335 0.959 . S
C347 C345 1.561 . S
C348 C345 1.526 1_565 S
C348 C349 1.396 . S
C348 C353 1.390 . S
C349 C343 1.465 . S
C349 C348 1.396 . S
C349 C350 1.399 . S
C350 H336 0.929 . S
C350 C349 1.399 . S
C350 C351 1.385 . S
C351 H337 0.931 . S
C351 C350 1.385 . S
C351 C352 1.389 . S
C352 C351 1.389 . S
C352 C353 1.387 . S
C353 H338 0.930 . S
C353 C348 1.390 . S
C353 C352 1.387 . S
H354 C366 0.930 . S
H355 C368 0.930 . S
H356 C369 0.930 . S
H357 C373 0.959 . S
H358 C373 0.959 1_554 S
H359 C373 0.961 . S
H360 C374 0.960 . S
H361 C374 0.961 . S
H362 C374 0.959 . S
H363 C377 0.929 . S
H364 C378 0.931 . S
H365 C380 0.930 . S
C366 H354 0.930 . S
C366 C367 1.399 . S
C366 C371 1.399 . S
C367 C366 1.399 . S
C367 C368 1.376 . S
C368 H355 0.930 . S
C368 C367 1.376 . S
C368 C369 1.388 . S
C369 H356 0.930 . S
C369 C368 1.388 . S
C369 C370 1.390 1_556 S
C370 C369 1.390 1_554 S
C370 C371 1.394 1_554 S
C370 C376 1.465 . S
C371 C366 1.399 . S
C371 C370 1.394 1_556 S
C371 C372 1.516 1_556 S
C372 C371 1.516 1_554 S
C372 C373 1.502 1_554 S
C372 C374 1.561 . S
C372 C375 1.526 . S
C373 H357 0.959 . S
C373 H358 0.959 1_556 S
C373 H359 0.961 . S
C373 C372 1.502 1_556 S
C374 H360 0.960 . S
C374 H361 0.961 . S
C374 H362 0.959 . S
C374 C372 1.561 . S
C375 C372 1.526 . S
C375 C376 1.396 . S
C375 C380 1.390 . S
C376 C370 1.465 . S
C376 C375 1.396 . S
C376 C377 1.399 . S
C377 H363 0.929 . S
C377 C376 1.399 . S
C377 C378 1.385 . S
C378 H364 0.931 . S
C378 C377 1.385 . S
C378 C379 1.389 . S
C379 C378 1.389 . S
C379 C380 1.387 . S
C380 H365 0.930 . S
C380 C375 1.390 . S
C380 C379 1.387 . S
H381 C393 0.930 . S
H382 C395 0.930 . S
H383 C396 0.930 . S
H384 C400 0.959 . S
H385 C400 0.959 . S
H386 C400 0.961 . S
H387 C401 0.960 . S
H388 C401 0.961 . S
H389 C401 0.959 . S
H390 C404 0.929 . S
H391 C405 0.931 . S
H392 C407 0.930 . S
C393 H381 0.930 . S
C393 C394 1.399 . S
C393 C398 1.399 . S
C394 C393 1.399 . S
C394 C395 1.376 . S
C395 H382 0.930 . S
C395 C394 1.376 . S
C395 C396 1.388 1_455 S
C396 H383 0.930 . S
C396 C395 1.388 1_655 S
C396 C397 1.390 . S
C397 C396 1.390 . S
C397 C398 1.394 1_655 S
C397 C403 1.465 . S
C398 C393 1.399 . S
C398 C397 1.394 1_455 S
C398 C399 1.516 . S
C399 C398 1.516 . S
C399 C400 1.502 . S
C399 C401 1.561 . S
C399 C402 1.526 1_455 S
C400 H384 0.959 . S
C400 H385 0.959 . S
C400 H386 0.961 . S
C400 C399 1.502 . S
C401 H387 0.960 . S
C401 H388 0.961 . S
C401 H389 0.959 . S
C401 C399 1.561 . S
C402 C399 1.526 1_655 S
C402 C403 1.396 . S
C402 C407 1.390 . S
C403 C397 1.465 . S
C403 C402 1.396 . S
C403 C404 1.399 . S
C404 H390 0.929 . S
C404 C403 1.399 . S
C404 C405 1.385 . S
C405 H391 0.931 . S
C405 C404 1.385 . S
C405 C406 1.389 . S
C406 C405 1.389 . S
C406 C407 1.387 . S
C407 H392 0.930 . S
C407 C402 1.390 . S
C407 C406 1.387 . S
C97 C0 1.104 . S
C109 C61 1.063 . S
C124 C14 1.047 . S
C136 C70 1.114 . S
C151 C5 1.014 . S
C163 C33 1.076 . S
C178 C47 1.014 . S
C190 C19 1.074 . S
C205 C56 1.067 . S
C217 C28 1.105 . S
C232 C42 1.099 . S
C244 C75 1.033 . S
C259 C51 1.375 . S
C271 C9 1.376 . S
C286 C67 1.373 . S
C298 C23 1.409 . S
C313 C79 1.402 . S
C325 C39 1.397 . S
C340 C11 1.403 . S
C352 C53 1.382 . S
C367 C25 1.396 . S
C379 C65 1.398 . S
C394 C81 1.417 . S
C406 C37 1.416 . S
