# Generated by pormake.
# Topology uoq, (4)-cn, num edge types: 1
# Building blocks:
#     Node 0, Type 0, BuildingBlock: QUQFOY_clean_sbu_1, # of connection points: 4
#     Node 1, Type 0, BuildingBlock: QUQFOY_clean_sbu_1, # of connection points: 4
#     Node 2, Type 0, BuildingBlock: QUQFOY_clean_sbu_1, # of connection points: 4
#     Node 3, Type 0, BuildingBlock: QUQFOY_clean_sbu_1, # of connection points: 4
#     Node 4, Type 0, BuildingBlock: QUQFOY_clean_sbu_1, # of connection points: 4
#     Node 5, Type 0, BuildingBlock: QUQFOY_clean_sbu_1, # of connection points: 4
#     Node 6, Type 0, BuildingBlock: QUQFOY_clean_sbu_1, # of connection points: 4
#     Node 7, Type 0, BuildingBlock: QUQFOY_clean_sbu_1, # of connection points: 4
#     Node 8, Type 0, BuildingBlock: QUQFOY_clean_sbu_1, # of connection points: 4
#     Node 9, Type 0, BuildingBlock: QUQFOY_clean_sbu_1, # of connection points: 4
#     Node 10, Type 0, BuildingBlock: QUQFOY_clean_sbu_1, # of connection points: 4
#     Node 11, Type 0, BuildingBlock: QUQFOY_clean_sbu_1, # of connection points: 4
#     Edge 12, Type (0, 0), BuildingBlock: EYOCIG_clean_linker_4, # of connection points: 2
#     Edge 13, Type (0, 0), BuildingBlock: EYOCIG_clean_linker_4, # of connection points: 2
#     Edge 14, Type (0, 0), BuildingBlock: EYOCIG_clean_linker_4, # of connection points: 2
#     Edge 15, Type (0, 0), BuildingBlock: EYOCIG_clean_linker_4, # of connection points: 2
#     Edge 16, Type (0, 0), BuildingBlock: EYOCIG_clean_linker_4, # of connection points: 2
#     Edge 17, Type (0, 0), BuildingBlock: EYOCIG_clean_linker_4, # of connection points: 2
#     Edge 18, Type (0, 0), BuildingBlock: EYOCIG_clean_linker_4, # of connection points: 2
#     Edge 19, Type (0, 0), BuildingBlock: EYOCIG_clean_linker_4, # of connection points: 2
#     Edge 20, Type (0, 0), BuildingBlock: EYOCIG_clean_linker_4, # of connection points: 2
#     Edge 21, Type (0, 0), BuildingBlock: EYOCIG_clean_linker_4, # of connection points: 2
#     Edge 22, Type (0, 0), BuildingBlock: EYOCIG_clean_linker_4, # of connection points: 2
#     Edge 23, Type (0, 0), BuildingBlock: EYOCIG_clean_linker_4, # of connection points: 2
#     Edge 24, Type (0, 0), BuildingBlock: EYOCIG_clean_linker_4, # of connection points: 2
#     Edge 25, Type (0, 0), BuildingBlock: EYOCIG_clean_linker_4, # of connection points: 2
#     Edge 26, Type (0, 0), BuildingBlock: EYOCIG_clean_linker_4, # of connection points: 2
#     Edge 27, Type (0, 0), BuildingBlock: EYOCIG_clean_linker_4, # of connection points: 2
#     Edge 28, Type (0, 0), BuildingBlock: EYOCIG_clean_linker_4, # of connection points: 2
#     Edge 29, Type (0, 0), BuildingBlock: EYOCIG_clean_linker_4, # of connection points: 2
#     Edge 30, Type (0, 0), BuildingBlock: EYOCIG_clean_linker_4, # of connection points: 2
#     Edge 31, Type (0, 0), BuildingBlock: EYOCIG_clean_linker_4, # of connection points: 2
#     Edge 32, Type (0, 0), BuildingBlock: EYOCIG_clean_linker_4, # of connection points: 2
#     Edge 33, Type (0, 0), BuildingBlock: EYOCIG_clean_linker_4, # of connection points: 2
#     Edge 34, Type (0, 0), BuildingBlock: EYOCIG_clean_linker_4, # of connection points: 2
#     Edge 35, Type (0, 0), BuildingBlock: EYOCIG_clean_linker_4, # of connection points: 2
# Relax obj value: 0.140
# Max RMSD: 0.203
# Mean RMSD: 0.203
data_MOF--net-uoq--node1-QUQFOY_clean_sbu_1--edge1-EYOCIG_clean_linker_4
_symmetry_space_group_name_H-M    P1
_symmetry_Int_Tables_number       1
_symmetry_cell_setting            triclinic
loop_
_symmetry_equiv_pos_as_xyz
'x, y, z'
_cell_length_a     51.537984
_cell_length_b     51.507667
_cell_length_c     18.932433
_cell_angle_alpha  89.96939
_cell_angle_beta   90.008747
_cell_angle_gamma 120.01327
loop_
_atom_site_label
_atom_site_type_symbol
_atom_site_fract_x
_atom_site_fract_y
_atom_site_fract_z
_atom_type_partial_charge
O0 O 0.27903 0.47651 0.31607 0.0
Cd1 Cd 0.30016 0.47467 0.22665 0.0
Cd2 Cd 0.31834 0.44682 0.32369 0.0
O3 O 0.27842 0.43786 0.36894 0.0
O4 O 0.28171 0.48669 0.14915 0.0
O5 O 0.2758 0.44118 0.15692 0.0
C6 C 0.26941 0.45962 0.12582 0.0
C7 C 0.33846 0.41487 0.32051 0.0
C8 C 0.27008 0.45725 0.36515 0.0
C9 C 0.36009 0.50955 0.28697 0.0
O10 O 0.35057 0.49035 0.33612 0.0
O11 O 0.34568 0.50494 0.2294 0.0
O12 O 0.33426 0.42467 0.37943 0.0
O13 O 0.32938 0.42138 0.26313 0.0
O14 O 0.80079 0.28095 0.65136 0.0
Cd15 Cd 0.82343 0.30166 0.56132 0.0
Cd16 Cd 0.86966 0.31952 0.65697 0.0
O17 O 0.83874 0.27972 0.70275 0.0
O18 O 0.79271 0.28312 0.48437 0.0
O19 O 0.83211 0.2769 0.49191 0.0
C20 C 0.80725 0.27055 0.46116 0.0
C21 C 0.92166 0.33969 0.65292 0.0
C22 C 0.81111 0.27185 0.70003 0.0
C23 C 0.84902 0.36155 0.62169 0.0
O24 O 0.85859 0.35181 0.67056 0.0
O25 O 0.83914 0.34728 0.56397 0.0
O26 O 0.9078 0.33533 0.7121 0.0
O27 O 0.90596 0.33067 0.59572 0.0
O28 O 0.51816 0.80182 0.98324 0.0
Cd29 Cd 0.52029 0.82468 0.89355 0.0
Cd30 Cd 0.54811 0.87083 0.99019 0.0
O31 O 0.55708 0.83979 0.03536 0.0
O32 O 0.50833 0.79397 0.8166 0.0
O33 O 0.55395 0.83335 0.82473 0.0
C34 C 0.53552 0.80846 0.7939 0.0
C35 C 0.57993 0.92293 0.98631 0.0
C36 C 0.53756 0.81208 0.03194 0.0
C37 C 0.48546 0.8499 0.95332 0.0
O38 O 0.50458 0.8595 0.00261 0.0
O39 O 0.49016 0.84016 0.89575 0.0
O40 O 0.57029 0.90902 0.04544 0.0
O41 O 0.57337 0.90722 0.92912 0.0
O42 O 0.71459 0.51958 0.31639 0.0
Cd43 Cd 0.69352 0.5215 0.22697 0.0
Cd44 Cd 0.6755 0.54935 0.32368 0.0
O45 O 0.71551 0.55844 0.36874 0.0
O46 O 0.71189 0.50935 0.14963 0.0
O47 O 0.71801 0.55495 0.15722 0.0
C48 C 0.72432 0.53644 0.12627 0.0
C49 C 0.6552 0.58109 0.31949 0.0
C50 C 0.72374 0.53896 0.36515 0.0
C51 C 0.63367 0.48673 0.28742 0.0
O52 O 0.64333 0.50585 0.33669 0.0
O53 O 0.64797 0.4914 0.22967 0.0
O54 O 0.65953 0.57157 0.37872 0.0
O55 O 0.66431 0.57447 0.26235 0.0
O56 O 0.19328 0.7162 0.64922 0.0
Cd57 Cd 0.17024 0.69521 0.55979 0.0
Cd58 Cd 0.12446 0.67667 0.65704 0.0
O59 O 0.15525 0.71682 0.70191 0.0
O60 O 0.20057 0.71389 0.48209 0.0
O61 O 0.16101 0.71978 0.49081 0.0
C62 C 0.18579 0.72628 0.45939 0.0
C63 C 0.07234 0.65572 0.65348 0.0
C64 C 0.18299 0.72519 0.6982 0.0
C65 C 0.1456 0.63528 0.61999 0.0
O66 O 0.13622 0.64484 0.66965 0.0
O67 O 0.15498 0.64963 0.56218 0.0
O68 O 0.08633 0.66033 0.71256 0.0
O69 O 0.08795 0.66496 0.59616 0.0
O70 O 0.47609 0.19487 0.98304 0.0
Cd71 Cd 0.47356 0.17175 0.89361 0.0
Cd72 Cd 0.44619 0.12597 0.99083 0.0
O73 O 0.43744 0.15704 0.03643 0.0
O74 O 0.48533 0.20223 0.81614 0.0
O75 O 0.43974 0.16288 0.82507 0.0
C76 C 0.4581 0.18768 0.79378 0.0
C77 C 0.41474 0.07382 0.98675 0.0
C78 C 0.45707 0.18472 0.03256 0.0
C79 C 0.50885 0.14733 0.95412 0.0
O80 O 0.48973 0.13764 0.00339 0.0
O81 O 0.50394 0.15664 0.89612 0.0
O82 O 0.42416 0.0877 0.04595 0.0
O83 O 0.42123 0.08957 0.9296 0.0
O84 O 0.51854 0.71611 0.33821 0.0
Cd85 Cd 0.52012 0.6948 0.42759 0.0
Cd86 Cd 0.54826 0.67691 0.33094 0.0
O87 O 0.55743 0.71698 0.28617 0.0
O88 O 0.50832 0.71331 0.50539 0.0
O89 O 0.55366 0.71887 0.49742 0.0
C90 C 0.53538 0.72541 0.52868 0.0
C91 C 0.57994 0.6565 0.33313 0.0
C92 C 0.53794 0.72518 0.28946 0.0
C93 C 0.48535 0.63513 0.36587 0.0
O94 O 0.50479 0.64482 0.31729 0.0
O95 O 0.48973 0.64929 0.42377 0.0
O96 O 0.5703 0.66112 0.27446 0.0
O97 O 0.57346 0.66535 0.39088 0.0
O98 O 0.80071 0.51947 0.67058 0.0
Cd99 Cd 0.82333 0.52128 0.76055 0.0
Cd100 Cd 0.8695 0.54934 0.66415 0.0
O101 O 0.83873 0.55872 0.61943 0.0
O102 O 0.7926 0.5091 0.8375 0.0
O103 O 0.83204 0.55473 0.82997 0.0
C104 C 0.80716 0.53621 0.86072 0.0
C105 C 0.92166 0.5805 0.66685 0.0
C106 C 0.81106 0.53906 0.62222 0.0
C107 C 0.84858 0.48673 0.70013 0.0
O108 O 0.85785 0.50581 0.65075 0.0
O109 O 0.83905 0.49139 0.75805 0.0
O110 O 0.90746 0.57115 0.60802 0.0
O111 O 0.90625 0.57411 0.72447 0.0
O112 O 0.27902 0.80181 0.00445 0.0
Cd113 Cd 0.30008 0.82457 0.09402 0.0
Cd114 Cd 0.3183 0.87076 -0.00252 0.0
O115 O 0.27811 0.83993 0.95295 0.0
O116 O 0.28124 0.79414 0.1716 0.0
O117 O 0.2756 0.83388 0.16299 0.0
C118 C 0.26892 0.80899 0.19424 0.0
C119 C 0.33922 0.92298 -0.00028 0.0
C120 C 0.2699 0.81221 0.95596 0.0
C121 C 0.3598 0.84938 0.03268 0.0
O122 O 0.35014 0.85905 0.98386 0.0
O123 O 0.34563 0.83973 0.09065 0.0
O124 O 0.33436 0.90869 0.94102 0.0
O125 O 0.33028 0.90762 0.05746 0.0
O126 O 0.47606 0.2807 0.33977 0.0
Cd127 Cd 0.47358 0.30173 0.42842 0.0
Cd128 Cd 0.44559 0.31917 0.33059 0.0
O129 O 0.43748 0.2795 0.28515 0.0
O130 O 0.48531 0.28335 0.50669 0.0
O131 O 0.43978 0.27722 0.49732 0.0
C132 C 0.4581 0.27089 0.52914 0.0
C133 C 0.4135 0.33915 0.33365 0.0
C134 C 0.45719 0.27161 0.28992 0.0
C135 C 0.50826 0.3614 0.36666 0.0
O136 O 0.48893 0.35165 0.31784 0.0
O137 O 0.50381 0.34726 0.42465 0.0
O138 O 0.42323 0.33484 0.27476 0.0
O139 O 0.42006 0.33015 0.3911 0.0
O140 O 0.19334 0.47691 0.67061 0.0
Cd141 Cd 0.17069 0.47525 0.76031 0.0
Cd142 Cd 0.12438 0.44684 0.66437 0.0
O143 O 0.15528 0.43764 0.61972 0.0
O144 O 0.20134 0.48724 0.83737 0.0
O145 O 0.16174 0.44171 0.82978 0.0
C146 C 0.18667 0.4601 0.86048 0.0
C147 C 0.07229 0.41506 0.66679 0.0
C148 C 0.18296 0.45726 0.62243 0.0
C149 C 0.1455 0.5098 0.69909 0.0
O150 O 0.13573 0.49032 0.65059 0.0
O151 O 0.15537 0.50548 0.75695 0.0
O152 O 0.08651 0.4247 0.60806 0.0
O153 O 0.08767 0.42161 0.72448 0.0
O154 O 0.7147 0.19488 0.00629 0.0
Cd155 Cd 0.69352 0.17161 0.09518 0.0
Cd156 Cd 0.67548 0.12591 -0.00286 0.0
O157 O 0.71555 0.15712 0.95268 0.0
O158 O 0.71188 0.20208 0.17263 0.0
O159 O 0.71793 0.16257 0.16491 0.0
C160 C 0.72427 0.18739 0.1959 0.0
C161 C 0.65519 0.07377 -0.00078 0.0
C162 C 0.72382 0.18484 0.95709 0.0
C163 C 0.63396 0.14725 0.03407 0.0
O164 O 0.64345 0.13751 0.985 0.0
O165 O 0.64814 0.15666 0.09203 0.0
O166 O 0.65953 0.08803 0.94059 0.0
O167 O 0.66422 0.08914 0.05691 0.0
C168 C 0.36773 0.38463 0.32352 0.0
C169 C 0.35429 0.39831 0.31945 0.0
C170 C 0.38351 0.36867 0.33046 0.0
C171 C 0.39707 0.35512 0.33461 0.0
C172 C 0.98113 0.36922 0.65552 0.0
C173 C 0.95403 0.35566 0.65145 0.0
C174 C 0.01284 0.3851 0.66274 0.0
C175 C 0.03992 0.39865 0.66726 0.0
C176 C 0.60989 0.98247 0.98861 0.0
C177 C 0.59635 0.95534 0.98481 0.0
C178 C 0.62574 0.01424 -0.00459 0.0
C179 C 0.63925 0.04135 -0.00033 0.0
C180 C 0.62561 0.61098 0.32183 0.0
C181 C 0.6392 0.59747 0.3179 0.0
C182 C 0.60977 0.62686 0.32896 0.0
C183 C 0.59628 0.64045 0.33348 0.0
C184 C 0.98113 0.60972 0.66321 0.0
C185 C 0.95404 0.59649 0.66749 0.0
C186 C 0.01286 0.62556 0.65622 0.0
C187 C 0.03996 0.6394 0.65224 0.0
C188 C 0.36932 0.98251 -0.00424 0.0
C189 C 0.35553 0.9554 0.0001 0.0
C190 C 0.38521 0.01428 0.9889 0.0
C191 C 0.39856 0.04141 0.98515 0.0
C192 C 0.21238 0.44672 0.9648 0.0
C193 C 0.19895 0.45072 0.91733 0.0
C194 C 0.23097 0.44658 0.02028 0.0
C195 C 0.2481 0.45036 0.06829 0.0
C196 C 0.78149 0.23169 0.35649 0.0
C197 C 0.79492 0.24902 0.40412 0.0
C198 C 0.76288 0.21299 0.30103 0.0
C199 C 0.74567 0.19957 0.25321 0.0
C200 C 0.54877 0.78255 0.68984 0.0
C201 C 0.54486 0.79608 0.73721 0.0
C202 C 0.54875 0.76389 0.63434 0.0
C203 C 0.54482 0.74672 0.58628 0.0
C204 C 0.76285 0.54941 0.02097 0.0
C205 C 0.74568 0.54563 0.06887 0.0
C206 C 0.78144 0.54932 0.96544 0.0
C207 C 0.79486 0.54543 0.91778 0.0
C208 C 0.21114 0.76506 0.35433 0.0
C209 C 0.19778 0.74779 0.40216 0.0
C210 C 0.22987 0.78366 0.2988 0.0
C211 C 0.24728 0.79698 0.25119 0.0
C212 C 0.44464 0.21344 0.68971 0.0
C213 C 0.44862 0.19995 0.73712 0.0
C214 C 0.44462 0.23215 0.63432 0.0
C215 C 0.44857 0.2494 0.58641 0.0
C216 C 0.21915 0.46095 0.52089 0.0
C217 C 0.20246 0.45911 0.56711 0.0
C218 C 0.23745 0.46102 0.46629 0.0
C219 C 0.25236 0.45924 0.42014 0.0
C220 C 0.77504 0.23997 0.80239 0.0
C221 C 0.79163 0.25454 0.75573 0.0
C222 C 0.75673 0.22175 0.85699 0.0
C223 C 0.74169 0.20484 0.90272 0.0
C224 C 0.53392 0.7756 0.13281 0.0
C225 C 0.53564 0.79234 0.08677 0.0
C226 C 0.534 0.75741 0.18752 0.0
C227 C 0.53588 0.74268 0.23402 0.0
C228 C 0.75666 0.53535 0.46581 0.0
C229 C 0.74161 0.53708 0.4199 0.0
C230 C 0.77496 0.53538 0.52039 0.0
C231 C 0.79154 0.53714 0.56684 0.0
C232 C 0.2194 0.75786 0.7993 0.0
C233 C 0.20269 0.74292 0.75318 0.0
C234 C 0.23758 0.77609 0.85408 0.0
C235 C 0.25236 0.7927 0.90052 0.0
C236 C 0.46187 0.22146 0.13383 0.0
C237 C 0.45957 0.20456 0.08767 0.0
C238 C 0.46206 0.23971 0.18866 0.0
C239 C 0.45999 0.2543 0.23518 0.0
C240 C 0.4092 0.55991 0.31514 0.0
C241 C 0.3867 0.53737 0.29929 0.0
C242 C 0.43521 0.58601 0.33622 0.0
C243 C 0.45765 0.6085 0.35267 0.0
C244 C 0.848 0.43673 0.67183 0.0
C245 C 0.84774 0.4591 0.68783 0.0
C246 C 0.84812 0.41075 0.65076 0.0
C247 C 0.84802 0.38822 0.63457 0.0
C248 C 0.43508 0.84861 0.9816 0.0
C249 C 0.45761 0.84866 0.9656 0.0
C250 C 0.40896 0.84844 0.00301 0.0
C251 C 0.38646 0.84832 0.01966 0.0
C252 C 0.58451 0.43644 0.31568 0.0
C253 C 0.60703 0.45895 0.29976 0.0
C254 C 0.55847 0.4104 0.33689 0.0
C255 C 0.536 0.38796 0.35344 0.0
C256 C 0.14674 0.58608 0.64775 0.0
C257 C 0.14676 0.60861 0.63187 0.0
C258 C 0.1467 0.56001 0.66903 0.0
C259 C 0.14668 0.53755 0.68567 0.0
C260 C 0.5855 0.14949 0.00483 0.0
C261 C 0.6077 0.149 0.0212 0.0
C262 C 0.55953 0.14954 0.98336 0.0
C263 C 0.53687 0.14908 0.96682 0.0
loop_
_geom_bond_atom_site_label_1
_geom_bond_atom_site_label_2
_geom_bond_distance
_geom_bond_site_symmetry_2
_ccdc_geom_bond_type
O0 Cd1 2.223 . S
O0 C8 1.315 . S
Cd1 O0 2.223 . S
Cd1 O4 2.297 . S
Cd1 O5 2.439 . S
Cd1 O11 2.240 . S
Cd2 O3 2.240 . S
Cd2 O10 2.223 . S
Cd2 O12 2.297 . S
Cd2 O13 2.439 . S
O3 Cd2 2.240 . S
O3 C8 1.279 . S
O4 Cd1 2.297 . S
O4 C6 1.247 . S
O5 Cd1 2.439 . S
O5 C6 1.208 . S
C6 O4 1.247 . S
C6 O5 1.208 . S
C7 O12 1.247 . S
C7 O13 1.208 . S
C8 O0 1.315 . S
C8 O3 1.279 . S
C9 O10 1.315 . S
C9 O11 1.279 . S
O10 Cd2 2.223 . S
O10 C9 1.315 . S
O11 Cd1 2.240 . S
O11 C9 1.279 . S
O12 Cd2 2.297 . S
O12 C7 1.247 . S
O13 Cd2 2.439 . S
O13 C7 1.208 . S
O14 Cd15 2.223 . S
O14 C22 1.315 . S
Cd15 O14 2.223 . S
Cd15 O18 2.297 . S
Cd15 O19 2.439 . S
Cd15 O25 2.240 . S
Cd16 O17 2.240 . S
Cd16 O24 2.223 . S
Cd16 O26 2.297 . S
Cd16 O27 2.439 . S
O17 Cd16 2.240 . S
O17 C22 1.279 . S
O18 Cd15 2.297 . S
O18 C20 1.247 . S
O19 Cd15 2.439 . S
O19 C20 1.208 . S
C20 O18 1.247 . S
C20 O19 1.208 . S
C21 O26 1.247 . S
C21 O27 1.208 . S
C22 O14 1.315 . S
C22 O17 1.279 . S
C23 O24 1.315 . S
C23 O25 1.279 . S
O24 Cd16 2.223 . S
O24 C23 1.315 . S
O25 Cd15 2.240 . S
O25 C23 1.279 . S
O26 Cd16 2.297 . S
O26 C21 1.247 . S
O27 Cd16 2.439 . S
O27 C21 1.208 . S
O28 Cd29 2.223 . S
O28 C36 1.315 1_556 S
Cd29 O28 2.223 . S
Cd29 O32 2.297 . S
Cd29 O33 2.439 . S
Cd29 O39 2.240 . S
Cd30 O31 2.240 . S
Cd30 O38 2.223 . S
Cd30 O40 2.297 . S
Cd30 O41 2.439 1_554 S
O31 Cd30 2.240 . S
O31 C36 1.279 . S
O32 Cd29 2.297 . S
O32 C34 1.247 . S
O33 Cd29 2.439 . S
O33 C34 1.208 . S
C34 O32 1.247 . S
C34 O33 1.208 . S
C35 O40 1.247 1_556 S
C35 O41 1.208 . S
C36 O28 1.315 1_554 S
C36 O31 1.279 . S
C37 O38 1.315 . S
C37 O39 1.279 1_554 S
O38 Cd30 2.223 . S
O38 C37 1.315 . S
O39 Cd29 2.240 . S
O39 C37 1.279 1_556 S
O40 Cd30 2.297 . S
O40 C35 1.247 1_554 S
O41 Cd30 2.439 1_556 S
O41 C35 1.208 . S
O42 Cd43 2.223 . S
O42 C50 1.315 . S
Cd43 O42 2.223 . S
Cd43 O46 2.297 . S
Cd43 O47 2.439 . S
Cd43 O53 2.240 . S
Cd44 O45 2.240 . S
Cd44 O52 2.223 . S
Cd44 O54 2.297 . S
Cd44 O55 2.439 . S
O45 Cd44 2.240 . S
O45 C50 1.279 . S
O46 Cd43 2.297 . S
O46 C48 1.247 . S
O47 Cd43 2.439 . S
O47 C48 1.208 . S
C48 O46 1.247 . S
C48 O47 1.208 . S
C49 O54 1.247 . S
C49 O55 1.208 . S
C50 O42 1.315 . S
C50 O45 1.279 . S
C51 O52 1.315 . S
C51 O53 1.279 . S
O52 Cd44 2.223 . S
O52 C51 1.315 . S
O53 Cd43 2.240 . S
O53 C51 1.279 . S
O54 Cd44 2.297 . S
O54 C49 1.247 . S
O55 Cd44 2.439 . S
O55 C49 1.208 . S
O56 Cd57 2.223 . S
O56 C64 1.315 . S
Cd57 O56 2.223 . S
Cd57 O60 2.297 . S
Cd57 O61 2.439 . S
Cd57 O67 2.240 . S
Cd58 O59 2.240 . S
Cd58 O66 2.223 . S
Cd58 O68 2.297 . S
Cd58 O69 2.439 . S
O59 Cd58 2.240 . S
O59 C64 1.279 . S
O60 Cd57 2.297 . S
O60 C62 1.247 . S
O61 Cd57 2.439 . S
O61 C62 1.208 . S
C62 O60 1.247 . S
C62 O61 1.208 . S
C63 O68 1.247 . S
C63 O69 1.208 . S
C64 O56 1.315 . S
C64 O59 1.279 . S
C65 O66 1.315 . S
C65 O67 1.279 . S
O66 Cd58 2.223 . S
O66 C65 1.315 . S
O67 Cd57 2.240 . S
O67 C65 1.279 . S
O68 Cd58 2.297 . S
O68 C63 1.247 . S
O69 Cd58 2.439 . S
O69 C63 1.208 . S
O70 Cd71 2.223 . S
O70 C78 1.315 1_556 S
Cd71 O70 2.223 . S
Cd71 O74 2.297 . S
Cd71 O75 2.439 . S
Cd71 O81 2.240 . S
Cd72 O73 2.240 . S
Cd72 O80 2.223 . S
Cd72 O82 2.297 . S
Cd72 O83 2.439 1_554 S
O73 Cd72 2.240 . S
O73 C78 1.279 . S
O74 Cd71 2.297 . S
O74 C76 1.247 . S
O75 Cd71 2.439 . S
O75 C76 1.208 . S
C76 O74 1.247 . S
C76 O75 1.208 . S
C77 O82 1.247 1_556 S
C77 O83 1.208 . S
C78 O70 1.315 1_554 S
C78 O73 1.279 . S
C79 O80 1.315 . S
C79 O81 1.279 1_554 S
O80 Cd72 2.223 . S
O80 C79 1.315 . S
O81 Cd71 2.240 . S
O81 C79 1.279 1_556 S
O82 Cd72 2.297 . S
O82 C77 1.247 1_554 S
O83 Cd72 2.439 1_556 S
O83 C77 1.208 . S
O84 Cd85 2.223 . S
O84 C92 1.315 . S
Cd85 O84 2.223 . S
Cd85 O88 2.297 . S
Cd85 O89 2.439 . S
Cd85 O95 2.240 . S
Cd86 O87 2.240 . S
Cd86 O94 2.223 . S
Cd86 O96 2.297 . S
Cd86 O97 2.439 . S
O87 Cd86 2.240 . S
O87 C92 1.279 . S
O88 Cd85 2.297 . S
O88 C90 1.247 . S
O89 Cd85 2.439 . S
O89 C90 1.208 . S
C90 O88 1.247 . S
C90 O89 1.208 . S
C91 O96 1.247 . S
C91 O97 1.208 . S
C92 O84 1.315 . S
C92 O87 1.279 . S
C93 O94 1.315 . S
C93 O95 1.279 . S
O94 Cd86 2.223 . S
O94 C93 1.315 . S
O95 Cd85 2.240 . S
O95 C93 1.279 . S
O96 Cd86 2.297 . S
O96 C91 1.247 . S
O97 Cd86 2.439 . S
O97 C91 1.208 . S
O98 Cd99 2.223 . S
O98 C106 1.315 . S
Cd99 O98 2.223 . S
Cd99 O102 2.297 . S
Cd99 O103 2.439 . S
Cd99 O109 2.240 . S
Cd100 O101 2.240 . S
Cd100 O108 2.223 . S
Cd100 O110 2.297 . S
Cd100 O111 2.439 . S
O101 Cd100 2.240 . S
O101 C106 1.279 . S
O102 Cd99 2.297 . S
O102 C104 1.247 . S
O103 Cd99 2.439 . S
O103 C104 1.208 . S
C104 O102 1.247 . S
C104 O103 1.208 . S
C105 O110 1.247 . S
C105 O111 1.208 . S
C106 O98 1.315 . S
C106 O101 1.279 . S
C107 O108 1.315 . S
C107 O109 1.279 . S
O108 Cd100 2.223 . S
O108 C107 1.315 . S
O109 Cd99 2.240 . S
O109 C107 1.279 . S
O110 Cd100 2.297 . S
O110 C105 1.247 . S
O111 Cd100 2.439 . S
O111 C105 1.208 . S
O112 Cd113 2.223 . S
O112 C120 1.315 1_554 S
Cd113 O112 2.223 . S
Cd113 O116 2.297 . S
Cd113 O117 2.439 . S
Cd113 O123 2.240 . S
Cd114 O115 2.240 . S
Cd114 O122 2.223 . S
Cd114 O124 2.297 . S
Cd114 O125 2.439 1_556 S
O115 Cd114 2.240 . S
O115 C120 1.279 . S
O116 Cd113 2.297 . S
O116 C118 1.247 . S
O117 Cd113 2.439 . S
O117 C118 1.208 . S
C118 O116 1.247 . S
C118 O117 1.208 . S
C119 O124 1.247 1_554 S
C119 O125 1.208 . S
C120 O112 1.315 1_556 S
C120 O115 1.279 . S
C121 O122 1.315 . S
C121 O123 1.279 1_556 S
O122 Cd114 2.223 . S
O122 C121 1.315 . S
O123 Cd113 2.240 . S
O123 C121 1.279 1_554 S
O124 Cd114 2.297 . S
O124 C119 1.247 1_556 S
O125 Cd114 2.439 1_554 S
O125 C119 1.208 . S
O126 Cd127 2.223 . S
O126 C134 1.315 . S
Cd127 O126 2.223 . S
Cd127 O130 2.297 . S
Cd127 O131 2.439 . S
Cd127 O137 2.240 . S
Cd128 O129 2.240 . S
Cd128 O136 2.223 . S
Cd128 O138 2.297 . S
Cd128 O139 2.439 . S
O129 Cd128 2.240 . S
O129 C134 1.279 . S
O130 Cd127 2.297 . S
O130 C132 1.247 . S
O131 Cd127 2.439 . S
O131 C132 1.208 . S
C132 O130 1.247 . S
C132 O131 1.208 . S
C133 O138 1.247 . S
C133 O139 1.208 . S
C134 O126 1.315 . S
C134 O129 1.279 . S
C135 O136 1.315 . S
C135 O137 1.279 . S
O136 Cd128 2.223 . S
O136 C135 1.315 . S
O137 Cd127 2.240 . S
O137 C135 1.279 . S
O138 Cd128 2.297 . S
O138 C133 1.247 . S
O139 Cd128 2.439 . S
O139 C133 1.208 . S
O140 Cd141 2.223 . S
O140 C148 1.315 . S
Cd141 O140 2.223 . S
Cd141 O144 2.297 . S
Cd141 O145 2.439 . S
Cd141 O151 2.240 . S
Cd142 O143 2.240 . S
Cd142 O150 2.223 . S
Cd142 O152 2.297 . S
Cd142 O153 2.439 . S
O143 Cd142 2.240 . S
O143 C148 1.279 . S
O144 Cd141 2.297 . S
O144 C146 1.247 . S
O145 Cd141 2.439 . S
O145 C146 1.208 . S
C146 O144 1.247 . S
C146 O145 1.208 . S
C147 O152 1.247 . S
C147 O153 1.208 . S
C148 O140 1.315 . S
C148 O143 1.279 . S
C149 O150 1.315 . S
C149 O151 1.279 . S
O150 Cd142 2.223 . S
O150 C149 1.315 . S
O151 Cd141 2.240 . S
O151 C149 1.279 . S
O152 Cd142 2.297 . S
O152 C147 1.247 . S
O153 Cd142 2.439 . S
O153 C147 1.208 . S
O154 Cd155 2.223 . S
O154 C162 1.315 1_554 S
Cd155 O154 2.223 . S
Cd155 O158 2.297 . S
Cd155 O159 2.439 . S
Cd155 O165 2.240 . S
Cd156 O157 2.240 . S
Cd156 O164 2.223 . S
Cd156 O166 2.297 . S
Cd156 O167 2.439 1_556 S
O157 Cd156 2.240 . S
O157 C162 1.279 . S
O158 Cd155 2.297 . S
O158 C160 1.247 . S
O159 Cd155 2.439 . S
O159 C160 1.208 . S
C160 O158 1.247 . S
C160 O159 1.208 . S
C161 O166 1.247 1_554 S
C161 O167 1.208 . S
C162 O154 1.315 1_556 S
C162 O157 1.279 . S
C163 O164 1.315 . S
C163 O165 1.279 1_556 S
O164 Cd156 2.223 . S
O164 C163 1.315 . S
O165 Cd155 2.240 . S
O165 C163 1.279 1_554 S
O166 Cd156 2.297 . S
O166 C161 1.247 1_556 S
O167 Cd156 2.439 1_554 S
O167 C161 1.208 . S
C168 C169 1.170 . S
C168 C170 1.380 . S
C169 C168 1.170 . S
C170 C168 1.380 . S
C170 C171 1.170 . S
C171 C170 1.170 . S
C172 C173 1.170 . S
C172 C174 1.380 1_655 S
C173 C172 1.170 . S
C174 C172 1.380 1_455 S
C174 C175 1.170 . S
C175 C174 1.170 . S
C176 C177 1.170 . S
C176 C178 1.380 1_566 S
C177 C176 1.170 . S
C178 C176 1.380 1_544 S
C178 C179 1.170 . S
C179 C178 1.170 . S
C180 C181 1.170 . S
C180 C182 1.380 . S
C181 C180 1.170 . S
C182 C180 1.380 . S
C182 C183 1.170 . S
C183 C182 1.170 . S
C184 C185 1.170 . S
C184 C186 1.380 1_655 S
C185 C184 1.170 . S
C186 C184 1.380 1_455 S
C186 C187 1.170 . S
C187 C186 1.170 . S
C188 C189 1.170 . S
C188 C190 1.380 1_564 S
C189 C188 1.170 . S
C190 C188 1.380 1_546 S
C190 C191 1.170 . S
C191 C190 1.170 . S
C192 C193 1.170 . S
C192 C194 1.380 1_556 S
C193 C192 1.170 . S
C194 C192 1.380 1_554 S
C194 C195 1.170 . S
C195 C194 1.170 . S
C196 C197 1.170 . S
C196 C198 1.380 . S
C197 C196 1.170 . S
C198 C196 1.380 . S
C198 C199 1.170 . S
C199 C198 1.170 . S
C200 C201 1.170 . S
C200 C202 1.380 . S
C201 C200 1.170 . S
C202 C200 1.380 . S
C202 C203 1.170 . S
C203 C202 1.170 . S
C204 C205 1.170 . S
C204 C206 1.380 1_554 S
C205 C204 1.170 . S
C206 C204 1.380 1_556 S
C206 C207 1.170 . S
C207 C206 1.170 . S
C208 C209 1.170 . S
C208 C210 1.380 . S
C209 C208 1.170 . S
C210 C208 1.380 . S
C210 C211 1.170 . S
C211 C210 1.170 . S
C212 C213 1.170 . S
C212 C214 1.380 . S
C213 C212 1.170 . S
C214 C212 1.380 . S
C214 C215 1.170 . S
C215 C214 1.170 . S
C216 C217 1.170 . S
C216 C218 1.380 . S
C217 C216 1.170 . S
C218 C216 1.380 . S
C218 C219 1.170 . S
C219 C218 1.170 . S
C220 C221 1.170 . S
C220 C222 1.380 . S
C221 C220 1.170 . S
C222 C220 1.380 . S
C222 C223 1.170 . S
C223 C222 1.170 . S
C224 C225 1.170 . S
C224 C226 1.380 . S
C225 C224 1.170 . S
C226 C224 1.380 . S
C226 C227 1.170 . S
C227 C226 1.170 . S
C228 C229 1.170 . S
C228 C230 1.380 . S
C229 C228 1.170 . S
C230 C228 1.380 . S
C230 C231 1.170 . S
C231 C230 1.170 . S
C232 C233 1.170 . S
C232 C234 1.380 . S
C233 C232 1.170 . S
C234 C232 1.380 . S
C234 C235 1.170 . S
C235 C234 1.170 . S
C236 C237 1.170 . S
C236 C238 1.380 . S
C237 C236 1.170 . S
C238 C236 1.380 . S
C238 C239 1.170 . S
C239 C238 1.170 . S
C240 C241 1.170 . S
C240 C242 1.380 . S
C241 C240 1.170 . S
C242 C240 1.380 . S
C242 C243 1.170 . S
C243 C242 1.170 . S
C244 C245 1.170 . S
C244 C246 1.380 . S
C245 C244 1.170 . S
C246 C244 1.380 . S
C246 C247 1.170 . S
C247 C246 1.170 . S
C248 C249 1.170 1_556 S
C248 C250 1.380 . S
C249 C248 1.170 1_554 S
C250 C248 1.380 . S
C250 C251 1.170 . S
C251 C250 1.170 . S
C252 C253 1.170 . S
C252 C254 1.380 . S
C253 C252 1.170 . S
C254 C252 1.380 . S
C254 C255 1.170 . S
C255 C254 1.170 . S
C256 C257 1.170 . S
C256 C258 1.380 . S
C257 C256 1.170 . S
C258 C256 1.380 . S
C258 C259 1.170 . S
C259 C258 1.170 . S
C260 C261 1.170 . S
C260 C262 1.380 1_556 S
C261 C260 1.170 . S
C262 C260 1.380 1_554 S
C262 C263 1.170 . S
C263 C262 1.170 . S
C169 C7 1.482 . S
C171 C133 1.469 . S
C173 C21 1.492 . S
C175 C147 1.454 . S
C177 C35 1.494 . S
C179 C161 1.448 . S
C181 C49 1.494 . S
C183 C91 1.446 . S
C185 C105 1.445 . S
C187 C63 1.473 . S
C189 C119 1.439 . S
C191 C77 1.484 . S
C193 C146 1.483 . S
C195 C6 1.497 . S
C197 C20 1.475 . S
C199 C160 1.481 . S
C201 C34 1.490 . S
C203 C90 1.505 . S
C205 C48 1.483 . S
C207 C104 1.475 . S
C209 C62 1.517 . S
C211 C118 1.511 . S
C213 C76 1.500 . S
C215 C132 1.512 . S
C217 C148 1.538 . S
C219 C8 1.536 . S
C221 C22 1.541 . S
C223 C162 1.527 . S
C225 C36 1.532 . S
C227 C92 1.540 . S
C229 C50 1.533 . S
C231 C106 1.540 . S
C233 C64 1.534 . S
C235 C120 1.539 . S
C237 C78 1.529 . S
C239 C134 1.529 . S
C241 C9 1.667 . S
C243 C93 1.674 . S
C245 C107 1.665 . S
C247 C23 1.666 . S
C249 C37 1.668 . S
C251 C121 1.675 . S
C253 C51 1.668 . S
C255 C135 1.675 . S
C257 C65 1.669 . S
C259 C149 1.677 . S
C261 C163 1.687 . S
C263 C79 1.689 . S
