# Generated by pormake.
# Topology zga, (5)-cn, num edge types: 1
# Building blocks:
#     Node 0, Type 0, BuildingBlock: XOMCOT_clean_sbu_0, # of connection points: 5
#     Node 1, Type 0, BuildingBlock: XOMCOT_clean_sbu_0, # of connection points: 5
#     Node 2, Type 0, BuildingBlock: XOMCOT_clean_sbu_0, # of connection points: 5
#     Node 3, Type 0, BuildingBlock: XOMCOT_clean_sbu_0, # of connection points: 5
#     Node 4, Type 0, BuildingBlock: XOMCOT_clean_sbu_0, # of connection points: 5
#     Node 5, Type 0, BuildingBlock: XOMCOT_clean_sbu_0, # of connection points: 5
#     Node 6, Type 0, BuildingBlock: XOMCOT_clean_sbu_0, # of connection points: 5
#     Node 7, Type 0, BuildingBlock: XOMCOT_clean_sbu_0, # of connection points: 5
#     Node 8, Type 0, BuildingBlock: XOMCOT_clean_sbu_0, # of connection points: 5
#     Node 9, Type 0, BuildingBlock: XOMCOT_clean_sbu_0, # of connection points: 5
#     Node 10, Type 0, BuildingBlock: XOMCOT_clean_sbu_0, # of connection points: 5
#     Node 11, Type 0, BuildingBlock: XOMCOT_clean_sbu_0, # of connection points: 5
#     Node 12, Type 0, BuildingBlock: XOMCOT_clean_sbu_0, # of connection points: 5
#     Node 13, Type 0, BuildingBlock: XOMCOT_clean_sbu_0, # of connection points: 5
#     Node 14, Type 0, BuildingBlock: XOMCOT_clean_sbu_0, # of connection points: 5
#     Node 15, Type 0, BuildingBlock: XOMCOT_clean_sbu_0, # of connection points: 5
#     Edge 16, Type (0, 0), BuildingBlock: UVAHIK_clean_linker_0, # of connection points: 2
#     Edge 17, Type (0, 0), BuildingBlock: UVAHIK_clean_linker_0, # of connection points: 2
#     Edge 18, Type (0, 0), BuildingBlock: UVAHIK_clean_linker_0, # of connection points: 2
#     Edge 19, Type (0, 0), BuildingBlock: UVAHIK_clean_linker_0, # of connection points: 2
#     Edge 20, Type (0, 0), BuildingBlock: UVAHIK_clean_linker_0, # of connection points: 2
#     Edge 21, Type (0, 0), BuildingBlock: UVAHIK_clean_linker_0, # of connection points: 2
#     Edge 22, Type (0, 0), BuildingBlock: UVAHIK_clean_linker_0, # of connection points: 2
#     Edge 23, Type (0, 0), BuildingBlock: UVAHIK_clean_linker_0, # of connection points: 2
#     Edge 24, Type (0, 0), BuildingBlock: UVAHIK_clean_linker_0, # of connection points: 2
#     Edge 25, Type (0, 0), BuildingBlock: UVAHIK_clean_linker_0, # of connection points: 2
#     Edge 26, Type (0, 0), BuildingBlock: UVAHIK_clean_linker_0, # of connection points: 2
#     Edge 27, Type (0, 0), BuildingBlock: UVAHIK_clean_linker_0, # of connection points: 2
#     Edge 28, Type (0, 0), BuildingBlock: UVAHIK_clean_linker_0, # of connection points: 2
#     Edge 29, Type (0, 0), BuildingBlock: UVAHIK_clean_linker_0, # of connection points: 2
#     Edge 30, Type (0, 0), BuildingBlock: UVAHIK_clean_linker_0, # of connection points: 2
#     Edge 31, Type (0, 0), BuildingBlock: UVAHIK_clean_linker_0, # of connection points: 2
#     Edge 32, Type (0, 0), BuildingBlock: UVAHIK_clean_linker_0, # of connection points: 2
#     Edge 33, Type (0, 0), BuildingBlock: UVAHIK_clean_linker_0, # of connection points: 2
#     Edge 34, Type (0, 0), BuildingBlock: UVAHIK_clean_linker_0, # of connection points: 2
#     Edge 35, Type (0, 0), BuildingBlock: UVAHIK_clean_linker_0, # of connection points: 2
#     Edge 36, Type (0, 0), BuildingBlock: UVAHIK_clean_linker_0, # of connection points: 2
#     Edge 37, Type (0, 0), BuildingBlock: UVAHIK_clean_linker_0, # of connection points: 2
#     Edge 38, Type (0, 0), BuildingBlock: UVAHIK_clean_linker_0, # of connection points: 2
#     Edge 39, Type (0, 0), BuildingBlock: UVAHIK_clean_linker_0, # of connection points: 2
#     Edge 40, Type (0, 0), BuildingBlock: UVAHIK_clean_linker_0, # of connection points: 2
#     Edge 41, Type (0, 0), BuildingBlock: UVAHIK_clean_linker_0, # of connection points: 2
#     Edge 42, Type (0, 0), BuildingBlock: UVAHIK_clean_linker_0, # of connection points: 2
#     Edge 43, Type (0, 0), BuildingBlock: UVAHIK_clean_linker_0, # of connection points: 2
#     Edge 44, Type (0, 0), BuildingBlock: UVAHIK_clean_linker_0, # of connection points: 2
#     Edge 45, Type (0, 0), BuildingBlock: UVAHIK_clean_linker_0, # of connection points: 2
#     Edge 46, Type (0, 0), BuildingBlock: UVAHIK_clean_linker_0, # of connection points: 2
#     Edge 47, Type (0, 0), BuildingBlock: UVAHIK_clean_linker_0, # of connection points: 2
#     Edge 48, Type (0, 0), BuildingBlock: UVAHIK_clean_linker_0, # of connection points: 2
#     Edge 49, Type (0, 0), BuildingBlock: UVAHIK_clean_linker_0, # of connection points: 2
#     Edge 50, Type (0, 0), BuildingBlock: UVAHIK_clean_linker_0, # of connection points: 2
#     Edge 51, Type (0, 0), BuildingBlock: UVAHIK_clean_linker_0, # of connection points: 2
#     Edge 52, Type (0, 0), BuildingBlock: UVAHIK_clean_linker_0, # of connection points: 2
#     Edge 53, Type (0, 0), BuildingBlock: UVAHIK_clean_linker_0, # of connection points: 2
#     Edge 54, Type (0, 0), BuildingBlock: UVAHIK_clean_linker_0, # of connection points: 2
#     Edge 55, Type (0, 0), BuildingBlock: UVAHIK_clean_linker_0, # of connection points: 2
# Relax obj value: 0.025
# Max RMSD: 0.076
# Mean RMSD: 0.076
data_MOF--net-zga--node1-XOMCOT_clean_sbu_0--edge1-UVAHIK_clean_linker_0
_symmetry_space_group_name_H-M    P1
_symmetry_Int_Tables_number       1
_symmetry_cell_setting            triclinic
loop_
_symmetry_equiv_pos_as_xyz
'x, y, z'
_cell_length_a     64.116279
_cell_length_b     131.81585
_cell_length_c     22.077104
_cell_angle_alpha  91.920032
_cell_angle_beta   89.993684
_cell_angle_gamma 89.971324
loop_
_atom_site_label
_atom_site_type_symbol
_atom_site_fract_x
_atom_site_fract_y
_atom_site_fract_z
_atom_type_partial_charge
Co0 Co 0.12907 0.54302 0.12408 0.0
C1 C 0.13451 0.54231 0.98911 0.0
C2 C 0.15039 0.53023 0.03225 0.0
C3 C 0.15259 0.52884 0.97061 0.0
N4 N 0.13949 0.53882 0.04422 0.0
N5 N 0.14253 0.53643 0.94338 0.0
H6 H 0.12406 0.54854 0.98195 0.0
H7 H 0.15575 0.52508 0.06603 0.0
C8 C 0.17479 0.5397 0.14284 0.0
O9 O 0.17837 0.54525 0.09561 0.0
N10 N 0.11847 0.54689 0.20336 0.0
C11 C 0.10457 0.55433 0.2159 0.0
C12 C 0.10215 0.55527 0.27777 0.0
C13 C 0.12424 0.54336 0.2575 0.0
N14 N 0.11457 0.5484 0.30391 0.0
C15 C 0.12868 0.56308 0.07695 0.0
C16 C 0.15697 0.57161 0.1581 0.0
C17 C 0.14721 0.57789 0.11658 0.0
C18 C 0.13297 0.57346 0.07548 0.0
C19 C 0.15227 0.56124 0.15786 0.0
N20 N 0.13872 0.55699 0.11638 0.0
H21 H 0.11622 0.56014 0.04888 0.0
H22 H 0.15883 0.55676 0.19319 0.0
H23 H 0.09706 0.55889 0.1824 0.0
H24 H 0.13575 0.53745 0.2629 0.0
O25 O 0.10133 0.54431 0.09065 0.0
O26 O 0.1145 0.53022 0.12713 0.0
O27 O 0.15613 0.5385 0.1617 0.0
C28 C 0.09887 0.53476 0.10188 0.0
H29 H 0.16062 0.52259 0.94782 0.0
H30 H 0.09205 0.56064 0.30159 0.0
H31 H 0.1678 0.5747 0.1915 0.0
H32 H 0.12431 0.57806 0.04445 0.0
Co33 Co 0.12926 0.72227 0.14108 0.0
C34 C 0.1348 0.7229 0.27596 0.0
C35 C 0.15084 0.73494 0.23297 0.0
C36 C 0.15304 0.73629 0.29462 0.0
N37 N 0.13985 0.72638 0.22089 0.0
N38 N 0.14288 0.72873 0.32177 0.0
H39 H 0.12424 0.71671 0.28302 0.0
H40 H 0.15622 0.7401 0.19929 0.0
C41 C 0.17491 0.72567 0.12124 0.0
O42 O 0.17869 0.72003 0.16802 0.0
N43 N 0.11848 0.71849 0.06187 0.0
C44 C 0.10449 0.71109 0.04942 0.0
C45 C 0.102 0.71016 0.98757 0.0
C46 C 0.12423 0.72201 0.00768 0.0
N47 N 0.11447 0.717 0.96133 0.0
C48 C 0.1292 0.70213 0.18726 0.0
C49 C 0.15717 0.69377 0.10451 0.0
C50 C 0.14753 0.68739 0.14568 0.0
C51 C 0.13347 0.69174 0.18769 0.0
C52 C 0.15247 0.70414 0.10571 0.0
N53 N 0.13905 0.70831 0.14787 0.0
H54 H 0.11688 0.70503 0.21602 0.0
H55 H 0.15887 0.70869 0.07048 0.0
H56 H 0.09699 0.70654 0.08296 0.0
H57 H 0.13581 0.72787 1.00217 0.0
O58 O 0.10161 0.7209 0.17506 0.0
O59 O 0.11458 0.73506 0.13894 0.0
O60 O 0.15617 0.72689 0.10307 0.0
C61 C 0.09905 0.73047 0.1643 0.0
H62 H 0.16112 0.74252 0.31747 0.0
H63 H 0.09184 0.70482 0.96383 0.0
H64 H 0.16788 0.69076 0.07052 0.0
H65 H 0.12491 0.68707 0.21856 0.0
Co66 Co 0.88341 0.47205 0.89036 0.0
C67 C 0.87865 0.47258 0.02562 0.0
C68 C 0.86069 0.4841 0.98368 0.0
C69 C 0.85819 0.48518 0.04543 0.0
N70 N 0.87292 0.47597 0.97079 0.0
N71 N 0.86956 0.47796 0.07166 0.0
H72 H 0.88984 0.46664 0.03249 0.0
H73 H 0.85458 0.48919 0.9506 0.0
C74 C 0.83763 0.47524 0.87001 0.0
O75 O 0.83382 0.46941 0.91586 0.0
N76 N 0.89407 0.46843 0.81065 0.0
C77 C 0.90704 0.46063 0.79712 0.0
C78 C 0.90912 0.45972 0.73513 0.0
C79 C 0.88864 0.47226 0.75692 0.0
N80 N 0.89754 0.46702 0.70999 0.0
C81 C 0.88336 0.45188 0.93617 0.0
C82 C 0.85579 0.44353 0.8523 0.0
C83 C 0.86523 0.43714 0.89385 0.0
C84 C 0.87909 0.44148 0.93639 0.0
C85 C 0.86049 0.4539 0.85371 0.0
N86 N 0.8737 0.45805 0.89643 0.0
H87 H 0.89553 0.45477 0.96543 0.0
H88 H 0.85424 0.45846 0.8183 0.0
H89 H 0.9139 0.45572 0.82999 0.0
H90 H 0.87774 0.47845 0.75204 0.0
O91 O 0.91113 0.47063 0.9237 0.0
O92 O 0.89796 0.48486 0.88891 0.0
O93 O 0.85641 0.47668 0.8528 0.0
C94 C 0.91358 0.48023 0.91363 0.0
H95 H 0.84951 0.49111 0.06937 0.0
H96 H 0.9182 0.45404 0.71036 0.0
H97 H 0.84523 0.44052 0.81792 0.0
H98 H 0.88751 0.43681 0.96759 0.0
Co99 Co 0.88343 0.29275 0.87194 0.0
C100 C 0.87879 0.2921 0.73658 0.0
C101 C 0.86105 0.28054 0.77879 0.0
C102 C 0.85858 0.27941 0.71705 0.0
N103 N 0.87314 0.28872 0.79149 0.0
N104 N 0.8698 0.28666 0.69066 0.0
H105 H 0.88984 0.29809 0.72955 0.0
H106 H 0.855 0.27546 0.81203 0.0
C107 C 0.83762 0.28959 0.89138 0.0
O108 O 0.83394 0.29534 0.84504 0.0
N109 N 0.8939 0.29648 0.95169 0.0
C110 C 0.90667 0.30434 0.96532 0.0
C111 C 0.90866 0.30527 0.02733 0.0
C112 C 0.8885 0.29262 1.00538 0.0
N113 N 0.89723 0.29791 0.05238 0.0
C114 C 0.88361 0.31284 0.82507 0.0
C115 C 0.85567 0.32136 0.90731 0.0
C116 C 0.86521 0.32764 0.86542 0.0
C117 C 0.8793 0.32321 0.8238 0.0
C118 C 0.86039 0.31099 0.90689 0.0
N119 N 0.87377 0.30674 0.86489 0.0
H120 H 0.89594 0.3099 0.79654 0.0
H121 H 0.854 0.3065 0.94242 0.0
H122 H 0.91348 0.30927 0.93248 0.0
H123 H 0.87775 0.28638 0.01017 0.0
O124 O 0.91123 0.29411 0.83907 0.0
O125 O 0.89799 0.27994 0.87431 0.0
O126 O 0.85634 0.2882 0.9092 0.0
C127 C 0.91366 0.28452 0.84963 0.0
H128 H 0.84998 0.27344 0.69325 0.0
H129 H 0.9176 0.31099 0.05218 0.0
H130 H 0.84497 0.32445 0.9411 0.0
H131 H 0.88782 0.32781 0.79246 0.0
Co132 Co 0.12939 0.04287 0.62352 0.0
C133 C 0.13482 0.04214 0.48853 0.0
C134 C 0.15052 0.03 0.53171 0.0
C135 C 0.15269 0.0286 0.47008 0.0
N136 N 0.13975 0.03864 0.54365 0.0
N137 N 0.14275 0.03623 0.44282 0.0
H138 H 0.12448 0.04841 0.48135 0.0
H139 H 0.1558 0.02484 0.56551 0.0
C140 C 0.17509 0.03945 0.64207 0.0
O141 O 0.17868 0.04498 0.59475 0.0
N142 N 0.11886 0.04677 0.70282 0.0
C143 C 0.10508 0.05425 0.71546 0.0
C144 C 0.10272 0.05521 0.77735 0.0
C145 C 0.12462 0.04321 0.75692 0.0
N146 N 0.11506 0.04828 0.8034 0.0
C147 C 0.12916 0.06293 0.57633 0.0
C148 C 0.15753 0.0714 0.65741 0.0
C149 C 0.1478 0.0777 0.61594 0.0
C150 C 0.13351 0.0733 0.57486 0.0
C151 C 0.15277 0.06104 0.65716 0.0
N152 N 0.13917 0.05682 0.61573 0.0
H153 H 0.11667 0.06001 0.54831 0.0
H154 H 0.1593 0.05655 0.69247 0.0
H155 H 0.09762 0.05884 0.68202 0.0
H156 H 0.13605 0.03727 0.76224 0.0
O157 O 0.10165 0.04422 0.59017 0.0
O158 O 0.1147 0.0301 0.62667 0.0
O159 O 0.15643 0.0383 0.66106 0.0
C160 C 0.09911 0.03467 0.60143 0.0
H161 H 0.16063 0.02232 0.4473 0.0
H162 H 0.09273 0.06061 0.80126 0.0
H163 H 0.16839 0.07448 0.69079 0.0
H164 H 0.12487 0.07792 0.54388 0.0
Co165 Co 0.12976 0.22204 0.63987 0.0
C166 C 0.13529 0.22269 0.77477 0.0
C167 C 0.15092 0.23486 0.73178 0.0
C168 C 0.15312 0.23623 0.79342 0.0
N169 N 0.14018 0.22623 0.71971 0.0
N170 N 0.14321 0.22859 0.82057 0.0
H171 H 0.12497 0.21641 0.78185 0.0
H172 H 0.15616 0.24005 0.69806 0.0
C173 C 0.17541 0.22553 0.6209 0.0
O174 O 0.1791 0.21996 0.66804 0.0
N175 N 0.11915 0.21818 0.56059 0.0
C176 C 0.10531 0.21072 0.54809 0.0
C177 C 0.10291 0.20976 0.48623 0.0
C178 C 0.1249 0.22171 0.50643 0.0
N179 N 0.11528 0.21665 0.46005 0.0
C180 C 0.12968 0.20192 0.68629 0.0
C181 C 0.15795 0.19358 0.60439 0.0
C182 C 0.14819 0.18719 0.64531 0.0
C183 C 0.13399 0.19153 0.68691 0.0
C184 C 0.15321 0.20394 0.6054 0.0
N185 N 0.13964 0.2081 0.64715 0.0
H186 H 0.11725 0.20481 0.71468 0.0
H187 H 0.15971 0.20848 0.57029 0.0
H188 H 0.09784 0.20615 0.5816 0.0
H189 H 0.13638 0.22763 0.50098 0.0
O190 O 0.10206 0.22065 0.67347 0.0
O191 O 0.11499 0.2348 0.63717 0.0
O192 O 0.15672 0.22667 0.60216 0.0
C193 C 0.09945 0.2302 0.66242 0.0
H194 H 0.16103 0.24251 0.81627 0.0
H195 H 0.09287 0.20437 0.46243 0.0
H196 H 0.16878 0.19056 0.57071 0.0
H197 H 0.12534 0.18686 0.71756 0.0
Co198 Co 0.88326 0.97222 0.39057 0.0
C199 C 0.87776 0.97288 0.5255 0.0
C200 C 0.86205 0.98502 0.48246 0.0
C201 C 0.85987 0.98641 0.5441 0.0
N202 N 0.87283 0.9764 0.47042 0.0
N203 N 0.86983 0.97878 0.57127 0.0
H204 H 0.88813 0.96661 0.53259 0.0
H205 H 0.85679 0.99021 0.44873 0.0
C206 C 0.8376 0.97569 0.37162 0.0
O207 O 0.83393 0.97012 0.41874 0.0
N208 N 0.89388 0.96836 0.31129 0.0
C209 C 0.90771 0.9609 0.29869 0.0
C210 C 0.9101 0.95995 0.23681 0.0
C211 C 0.88811 0.97191 0.25717 0.0
N212 N 0.89772 0.96685 0.21072 0.0
C213 C 0.88334 0.9521 0.43705 0.0
C214 C 0.8551 0.94376 0.3551 0.0
C215 C 0.86484 0.93737 0.39609 0.0
C216 C 0.87903 0.94171 0.43771 0.0
C217 C 0.85986 0.95412 0.35606 0.0
N218 N 0.87341 0.95827 0.39784 0.0
H219 H 0.89576 0.95498 0.46547 0.0
H220 H 0.85338 0.95866 0.32091 0.0
H221 H 0.91518 0.95631 0.33216 0.0
H222 H 0.87664 0.97783 0.25179 0.0
O223 O 0.91096 0.97082 0.42416 0.0
O224 O 0.898 0.98497 0.3879 0.0
O225 O 0.85629 0.97685 0.3529 0.0
C226 C 0.91355 0.98037 0.41315 0.0
H227 H 0.85194 0.99269 0.56693 0.0
H228 H 0.92013 0.95455 0.21295 0.0
H229 H 0.84429 0.94075 0.3214 0.0
H230 H 0.88766 0.93704 0.46842 0.0
Co231 Co 0.88315 0.79304 0.37465 0.0
C232 C 0.8777 0.79232 0.23968 0.0
C233 C 0.86204 0.78018 0.28282 0.0
C234 C 0.85984 0.77879 0.22119 0.0
N235 N 0.8728 0.78881 0.29479 0.0
N236 N 0.86976 0.78642 0.19395 0.0
H237 H 0.88803 0.79859 0.2325 0.0
H238 H 0.85677 0.77501 0.31661 0.0
C239 C 0.83745 0.78964 0.39315 0.0
O240 O 0.83388 0.79518 0.34585 0.0
N241 N 0.89367 0.79694 0.45395 0.0
C242 C 0.90748 0.80441 0.46651 0.0
C243 C 0.90986 0.80537 0.52838 0.0
C244 C 0.88791 0.7934 0.50809 0.0
N245 N 0.8975 0.79847 0.55451 0.0
C246 C 0.88342 0.8131 0.32748 0.0
C247 C 0.85503 0.82159 0.40852 0.0
C248 C 0.86478 0.82788 0.36708 0.0
C249 C 0.87907 0.82347 0.32602 0.0
C250 C 0.85977 0.81122 0.40826 0.0
N251 N 0.87338 0.80699 0.36685 0.0
H252 H 0.89591 0.81017 0.29949 0.0
H253 H 0.85322 0.80674 0.44355 0.0
H254 H 0.91496 0.80898 0.43301 0.0
H255 H 0.87647 0.78747 0.51348 0.0
O256 O 0.91089 0.79437 0.34131 0.0
O257 O 0.89784 0.78027 0.37783 0.0
O258 O 0.85611 0.78848 0.41218 0.0
C259 C 0.91343 0.78482 0.3526 0.0
H260 H 0.8519 0.77251 0.19839 0.0
H261 H 0.91987 0.81077 0.55222 0.0
H262 H 0.84417 0.82468 0.44189 0.0
H263 H 0.88773 0.82808 0.29506 0.0
Co264 Co 0.62945 0.54279 0.62224 0.0
C265 C 0.63499 0.54217 0.48736 0.0
C266 C 0.65114 0.53016 0.53032 0.0
C267 C 0.65335 0.5288 0.46868 0.0
N268 N 0.64008 0.53869 0.54242 0.0
N269 N 0.64312 0.53634 0.44154 0.0
H270 H 0.62436 0.54834 0.48031 0.0
H271 H 0.65657 0.525 0.56399 0.0
C272 C 0.67511 0.53941 0.64218 0.0
O273 O 0.67888 0.54507 0.59548 0.0
N274 N 0.61863 0.54655 0.70145 0.0
C275 C 0.6046 0.55393 0.7139 0.0
C276 C 0.60209 0.55486 0.77574 0.0
C277 C 0.6244 0.54303 0.75564 0.0
N278 N 0.61459 0.54803 0.80198 0.0
C279 C 0.6294 0.56293 0.57613 0.0
C280 C 0.65726 0.57128 0.65917 0.0
C281 C 0.64766 0.57767 0.61792 0.0
C282 C 0.63366 0.57333 0.57576 0.0
C283 C 0.65257 0.56092 0.65789 0.0
N284 N 0.63921 0.55676 0.61558 0.0
H285 H 0.61712 0.56004 0.54725 0.0
H286 H 0.65894 0.55637 0.69314 0.0
H287 H 0.59708 0.55848 0.68036 0.0
H288 H 0.63601 0.53718 0.76116 0.0
O289 O 0.60181 0.54416 0.58821 0.0
O290 O 0.61482 0.53 0.62426 0.0
O291 O 0.65637 0.53817 0.66028 0.0
C292 C 0.59928 0.53458 0.59891 0.0
H293 H 0.66148 0.52258 0.44581 0.0
H294 H 0.59189 0.56019 0.79947 0.0
H295 H 0.66792 0.5743 0.69327 0.0
H296 H 0.62514 0.578 0.54481 0.0
Co297 Co 0.62916 0.72199 0.63751 0.0
C298 C 0.63453 0.72277 0.77253 0.0
C299 C 0.64993 0.73498 0.72928 0.0
C300 C 0.6521 0.7364 0.7909 0.0
N301 N 0.63934 0.7263 0.7174 0.0
N302 N 0.64234 0.72873 0.8182 0.0
H303 H 0.62437 0.71644 0.77976 0.0
H304 H 0.65512 0.74015 0.69542 0.0
C305 C 0.67487 0.72544 0.61976 0.0
O306 O 0.67837 0.71996 0.66735 0.0
N307 N 0.6188 0.71803 0.55815 0.0
C308 C 0.60513 0.7105 0.54544 0.0
C309 C 0.60285 0.70953 0.48353 0.0
C310 C 0.62455 0.7216 0.50409 0.0
N311 N 0.61511 0.71649 0.45756 0.0
C312 C 0.62877 0.70197 0.68509 0.0
C313 C 0.65745 0.69344 0.60507 0.0
C314 C 0.64756 0.68717 0.64634 0.0
C315 C 0.63312 0.6916 0.68689 0.0
C316 C 0.65269 0.70381 0.60497 0.0
N317 N 0.63894 0.70806 0.64589 0.0
H318 H 0.61618 0.70491 0.71268 0.0
H319 H 0.65936 0.70827 0.56976 0.0
H320 H 0.59769 0.7059 0.57885 0.0
H321 H 0.63589 0.72758 0.49884 0.0
O322 O 0.60135 0.72067 0.67043 0.0
O323 O 0.61444 0.73475 0.63372 0.0
O324 O 0.65625 0.72654 0.60029 0.0
C325 C 0.59881 0.73021 0.65883 0.0
H326 H 0.65992 0.74272 0.81364 0.0
H327 H 0.59295 0.7041 0.45957 0.0
H328 H 0.66843 0.69034 0.57208 0.0
H329 H 0.62435 0.687 0.71769 0.0
Co330 Co 0.38336 0.47216 0.38826 0.0
C331 C 0.37789 0.47284 0.52319 0.0
C332 C 0.36219 0.48498 0.48016 0.0
C333 C 0.36001 0.48636 0.5418 0.0
N334 N 0.37296 0.47635 0.46812 0.0
N335 N 0.36996 0.47874 0.56897 0.0
H336 H 0.38825 0.46656 0.53027 0.0
H337 H 0.35692 0.49017 0.44643 0.0
C338 C 0.3377 0.47564 0.36948 0.0
O339 O 0.33406 0.47006 0.4166 0.0
N340 N 0.39396 0.4683 0.30896 0.0
C341 C 0.4078 0.46084 0.29638 0.0
C342 C 0.41019 0.45989 0.23451 0.0
C343 C 0.38819 0.47184 0.25484 0.0
N344 N 0.39781 0.46679 0.2084 0.0
C345 C 0.38347 0.45205 0.43477 0.0
C346 C 0.35521 0.4437 0.35291 0.0
C347 C 0.36497 0.43732 0.39386 0.0
C348 C 0.37917 0.44166 0.43544 0.0
C349 C 0.35995 0.45406 0.35385 0.0
N350 N 0.37352 0.45822 0.39559 0.0
H351 H 0.3959 0.45493 0.46315 0.0
H352 H 0.35346 0.4586 0.31873 0.0
H353 H 0.41528 0.45627 0.32985 0.0
H354 H 0.37671 0.47776 0.24946 0.0
O355 O 0.41108 0.47077 0.42177 0.0
O356 O 0.3981 0.48492 0.38549 0.0
O357 O 0.35638 0.47679 0.35065 0.0
C358 C 0.41366 0.48032 0.4107 0.0
H359 H 0.35208 0.49265 0.56463 0.0
H360 H 0.42023 0.4545 0.21065 0.0
H361 H 0.34438 0.44069 0.31924 0.0
H362 H 0.38781 0.43699 0.46612 0.0
Co363 Co 0.38331 0.29298 0.37186 0.0
C364 C 0.37782 0.29228 0.23691 0.0
C365 C 0.36211 0.28015 0.28004 0.0
C366 C 0.35989 0.27877 0.21841 0.0
N367 N 0.37291 0.28877 0.29202 0.0
N368 N 0.36984 0.28639 0.19118 0.0
H369 H 0.38818 0.29854 0.22973 0.0
H370 H 0.35683 0.27498 0.31382 0.0
C371 C 0.33762 0.28958 0.3907 0.0
O372 O 0.33399 0.29513 0.34345 0.0
N373 N 0.39389 0.29686 0.45114 0.0
C374 C 0.40771 0.30432 0.46368 0.0
C375 C 0.4101 0.30528 0.52555 0.0
C376 C 0.38812 0.29333 0.50528 0.0
N377 N 0.39773 0.29839 0.5517 0.0
C378 C 0.38355 0.31304 0.3248 0.0
C379 C 0.35522 0.32153 0.40604 0.0
C380 C 0.36494 0.32783 0.36457 0.0
C381 C 0.3792 0.32342 0.32341 0.0
C382 C 0.35996 0.31116 0.40571 0.0
N383 N 0.37354 0.30693 0.3642 0.0
H384 H 0.39602 0.31012 0.29672 0.0
H385 H 0.35344 0.30667 0.44102 0.0
H386 H 0.41519 0.30889 0.43018 0.0
H387 H 0.37666 0.28741 0.5107 0.0
O388 O 0.41103 0.29431 0.33838 0.0
O389 O 0.398 0.2802 0.37485 0.0
O390 O 0.3563 0.28842 0.40952 0.0
C391 C 0.41358 0.28476 0.34957 0.0
H392 H 0.35193 0.2725 0.19561 0.0
H393 H 0.42013 0.31068 0.54939 0.0
H394 H 0.34438 0.32461 0.43949 0.0
H395 H 0.38784 0.32803 0.29241 0.0
Co396 Co 0.62943 0.04293 0.12117 0.0
C397 C 0.63498 0.04231 0.98628 0.0
C398 C 0.65086 0.03021 0.02926 0.0
C399 C 0.65307 0.02885 0.96762 0.0
N400 N 0.63996 0.0388 0.04134 0.0
N401 N 0.643 0.03644 0.94047 0.0
H402 H 0.62451 0.04854 0.97922 0.0
H403 H 0.65619 0.02503 0.06295 0.0
C404 C 0.6751 0.03953 0.14052 0.0
O405 O 0.67878 0.04513 0.09353 0.0
N406 N 0.61871 0.04675 0.20042 0.0
C407 C 0.60476 0.05416 0.21291 0.0
C408 C 0.60231 0.0551 0.27476 0.0
C409 C 0.62449 0.04322 0.2546 0.0
N410 N 0.61477 0.04825 0.30097 0.0
C411 C 0.62929 0.06307 0.07491 0.0
C412 C 0.65738 0.07142 0.15723 0.0
C413 C 0.64767 0.07781 0.11619 0.0
C414 C 0.63355 0.07346 0.07439 0.0
C415 C 0.65267 0.06106 0.15615 0.0
N416 N 0.6392 0.05689 0.11417 0.0
H417 H 0.61692 0.06018 0.04633 0.0
H418 H 0.65913 0.05652 0.19132 0.0
H419 H 0.59725 0.05871 0.17939 0.0
H420 H 0.63604 0.03734 0.26007 0.0
O421 O 0.60175 0.0443 0.08737 0.0
O422 O 0.61477 0.03015 0.12356 0.0
O423 O 0.65639 0.03833 0.15902 0.0
C424 C 0.59922 0.03473 0.09825 0.0
H425 H 0.66109 0.02259 0.94475 0.0
H426 H 0.59218 0.06047 0.29854 0.0
H427 H 0.66814 0.07444 0.19106 0.0
H428 H 0.62494 0.07813 0.04362 0.0
Co429 Co 0.62941 0.22215 0.13893 0.0
C430 C 0.63491 0.22284 0.27388 0.0
C431 C 0.65067 0.23495 0.23076 0.0
C432 C 0.65289 0.23633 0.2924 0.0
N433 N 0.63984 0.22635 0.21877 0.0
N434 N 0.64291 0.22872 0.31962 0.0
H435 H 0.62451 0.2166 0.28105 0.0
H436 H 0.65597 0.24012 0.197 0.0
C437 C 0.67509 0.22555 0.11994 0.0
O438 O 0.67875 0.21998 0.16709 0.0
N439 N 0.6188 0.21828 0.05967 0.0
C440 C 0.60495 0.21083 0.04714 0.0
C441 C 0.60256 0.20987 0.98527 0.0
C442 C 0.62457 0.22181 1.00551 0.0
N443 N 0.61495 0.21675 0.95911 0.0
C444 C 0.62918 0.20208 0.18591 0.0
C445 C 0.65747 0.1936 0.10453 0.0
C446 C 0.64776 0.1873 0.14601 0.0
C447 C 0.63352 0.19171 0.18724 0.0
C448 C 0.65273 0.20397 0.10491 0.0
N449 N 0.63917 0.2082 0.14649 0.0
H450 H 0.61673 0.20501 0.21406 0.0
H451 H 0.65924 0.20846 0.0696 0.0
H452 H 0.59747 0.20627 0.08065 0.0
H453 H 0.63605 0.22772 1.00008 0.0
O454 O 0.60169 0.22081 0.17248 0.0
O455 O 0.61472 0.23493 0.13605 0.0
O456 O 0.6564 0.22672 0.10122 0.0
C457 C 0.59915 0.23037 0.16135 0.0
H458 H 0.66088 0.24259 0.31521 0.0
H459 H 0.59251 0.20448 0.96145 0.0
H460 H 0.66829 0.19052 0.07103 0.0
H461 H 0.62489 0.18709 0.21825 0.0
Co462 Co 0.38347 0.97204 0.88924 0.0
C463 C 0.37807 0.97281 0.02424 0.0
C464 C 0.36263 0.98502 0.98102 0.0
C465 C 0.36046 0.98643 0.04265 0.0
N466 N 0.37325 0.97634 0.96912 0.0
N467 N 0.37023 0.97876 0.06993 0.0
H468 H 0.38825 0.96648 0.03146 0.0
H469 H 0.35744 0.99019 0.94718 0.0
C470 C 0.33776 0.9755 0.87133 0.0
O471 O 0.33423 0.97002 0.91894 0.0
N472 N 0.39387 0.96808 0.80989 0.0
C473 C 0.40756 0.96056 0.7972 0.0
C474 C 0.40986 0.95959 0.73529 0.0
C475 C 0.38811 0.97165 0.75583 0.0
N476 N 0.39758 0.96654 0.70931 0.0
C477 C 0.38389 0.95202 0.93676 0.0
C478 C 0.35519 0.9435 0.85683 0.0
C479 C 0.36509 0.93722 0.89809 0.0
C480 C 0.37955 0.94165 0.93857 0.0
C481 C 0.35996 0.95386 0.85668 0.0
N482 N 0.37371 0.95811 0.89757 0.0
H483 H 0.39648 0.95495 0.96434 0.0
H484 H 0.35329 0.95832 0.82147 0.0
H485 H 0.41501 0.95596 0.83062 0.0
H486 H 0.37676 0.97763 0.75056 0.0
O487 O 0.41127 0.97072 0.92225 0.0
O488 O 0.39817 0.9848 0.88554 0.0
O489 O 0.35639 0.9766 0.85195 0.0
C490 C 0.41379 0.98026 0.9107 0.0
H491 H 0.35262 0.99275 0.0654 0.0
H492 H 0.41977 0.95416 0.71134 0.0
H493 H 0.34419 0.94041 0.82389 0.0
H494 H 0.38832 0.93705 0.96935 0.0
Co495 Co 0.38309 0.7928 0.87084 0.0
C496 C 0.3783 0.79231 0.73562 0.0
C497 C 0.36007 0.7809 0.77749 0.0
C498 C 0.35756 0.77984 0.71573 0.0
N499 N 0.37247 0.78896 0.79043 0.0
N500 N 0.36909 0.787 0.68955 0.0
H501 H 0.38965 0.79818 0.72877 0.0
H502 H 0.35387 0.77583 0.81051 0.0
C503 C 0.33734 0.78968 0.89196 0.0
O504 O 0.33346 0.79558 0.84643 0.0
N505 N 0.39391 0.79635 0.95048 0.0
C506 C 0.40699 0.80409 0.96395 0.0
C507 C 0.40912 0.80499 0.02593 0.0
C508 C 0.38846 0.79253 1.00425 0.0
N509 N 0.39746 0.79774 0.05113 0.0
C510 C 0.3829 0.81301 0.82541 0.0
C511 C 0.3557 0.82133 0.91044 0.0
C512 C 0.36497 0.82774 0.86872 0.0
C513 C 0.37865 0.8234 0.82558 0.0
C514 C 0.36037 0.81096 0.90861 0.0
N515 N 0.3734 0.80681 0.86535 0.0
H516 H 0.39495 0.81012 0.79566 0.0
H517 H 0.35423 0.80638 0.94408 0.0
H518 H 0.41388 0.80898 0.93105 0.0
H519 H 0.37746 0.78639 0.0092 0.0
O520 O 0.41077 0.79422 0.83713 0.0
O521 O 0.39762 0.77998 0.87168 0.0
O522 O 0.35615 0.78817 0.90866 0.0
C523 C 0.41321 0.78461 0.84689 0.0
H524 H 0.34876 0.77396 0.69177 0.0
H525 H 0.41829 0.81065 0.05065 0.0
H526 H 0.34528 0.82433 0.94525 0.0
H527 H 0.38694 0.82809 0.79419 0.0
C528 C 0.30024 0.48115 0.3664 0.0
C529 C 0.3205 0.48147 0.34213 0.0
C530 C 0.28446 0.48735 0.34417 0.0
C531 C 0.27685 0.5111 0.26239 0.0
H532 H 0.22002 0.50144 0.24423 0.0
C533 C 0.21228 0.53423 0.14586 0.0
C534 C 0.19204 0.5339 0.17021 0.0
C535 C 0.2281 0.52805 0.16806 0.0
C536 C 0.23576 0.5043 0.24978 0.0
H537 H 0.33984 0.48833 0.27399 0.0
H538 H 0.31226 0.49902 0.23481 0.0
H539 H 0.24707 0.48993 0.27814 0.0
H540 H 0.17276 0.52705 0.23853 0.0
H541 H 0.20039 0.51638 0.27764 0.0
H542 H 0.26554 0.52547 0.23402 0.0
C543 C 0.30866 0.49411 0.27178 0.0
C544 C 0.25128 0.49769 0.26913 0.0
C545 C 0.32444 0.48792 0.29396 0.0
C546 C 0.18815 0.52747 0.21848 0.0
C547 C 0.20396 0.52128 0.24063 0.0
C548 C 0.26133 0.51771 0.24304 0.0
C549 C 0.28854 0.49401 0.29714 0.0
C550 C 0.27203 0.501 0.27568 0.0
C551 C 0.22406 0.52139 0.21515 0.0
C552 C 0.24058 0.5144 0.23652 0.0
H553 H 0.29666 0.4763 0.40363 0.0
H554 H 0.2692 0.48713 0.36515 0.0
H555 H 0.29259 0.51396 0.26795 0.0
H556 H 0.21583 0.53907 0.10857 0.0
H557 H 0.24334 0.52827 0.14702 0.0
C558 C 0.07758 0.74635 0.17133 0.0
C559 C 0.07971 0.73595 0.1819 0.0
C560 C 0.05958 0.7516 0.18964 0.0
C561 C 0.01509 0.75034 0.29581 0.0
H562 H 0.99067 0.77037 0.1924 0.0
C563 C 0.93491 0.76894 0.34634 0.0
C564 C 0.93281 0.77933 0.33554 0.0
C565 C 0.95293 0.76367 0.32828 0.0
C566 C 0.99743 0.76489 0.22216 0.0
H567 H 0.06454 0.72287 0.21946 0.0
H568 H 0.03303 0.73201 0.25084 0.0
H569 H 0.02169 0.76108 0.15875 0.0
H570 H 0.94806 0.79239 0.29796 0.0
H571 H 0.97958 0.78323 0.26706 0.0
H572 H 0.99083 0.75415 0.35921 0.0
C573 C 0.04539 0.73615 0.22912 0.0
C574 C 0.01522 0.75956 0.20283 0.0
C575 C 0.06339 0.73089 0.21075 0.0
C576 C 0.94918 0.78437 0.30682 0.0
C577 C 0.9672 0.77911 0.28873 0.0
C578 C 0.9973 0.75568 0.31514 0.0
C579 C 0.04329 0.74658 0.219 0.0
C580 C 0.02427 0.75222 0.23941 0.0
C581 C 0.96926 0.76868 0.29896 0.0
C582 C 0.98825 0.76302 0.27857 0.0
H583 H 0.08992 0.75047 0.14941 0.0
H584 H 0.0586 0.75966 0.18179 0.0
H585 H 0.02185 0.74486 0.32555 0.0
H586 H 0.92254 0.76483 0.36817 0.0
H587 H 0.95389 0.75562 0.33624 0.0
C588 C 0.29976 0.7844 0.89677 0.0
C589 C 0.3202 0.78385 0.91954 0.0
C590 C 0.284 0.77821 0.91915 0.0
C591 C 0.2765 0.75417 0.99819 0.0
H592 H 0.22004 0.76408 0.02144 0.0
C593 C 0.21244 0.73102 0.11661 0.0
C594 C 0.19204 0.73149 0.09353 0.0
C595 C 0.22819 0.7372 0.09407 0.0
C596 C 0.23567 0.76115 0.01447 0.0
H597 H 0.33988 0.77658 0.98529 0.0
H598 H 0.31237 0.76591 0.02478 0.0
H599 H 0.24704 0.77557 0.98708 0.0
H600 H 0.17239 0.73863 0.02717 0.0
H601 H 0.19988 0.7493 0.98752 0.0
H602 H 0.26513 0.73976 0.02566 0.0
C603 C 0.3086 0.77099 0.9888 0.0
C604 C 0.25117 0.76775 0.99484 0.0
C605 C 0.32435 0.77717 0.96644 0.0
C606 C 0.1879 0.73809 0.04622 0.0
C607 C 0.20363 0.74428 0.02377 0.0
C608 C 0.26101 0.74757 0.01785 0.0
C609 C 0.28829 0.77132 0.96488 0.0
C610 C 0.27179 0.76435 0.98647 0.0
C611 C 0.22391 0.74401 0.04795 0.0
C612 C 0.24039 0.75098 0.02622 0.0
H613 H 0.29601 0.78943 0.86053 0.0
H614 H 0.26859 0.77861 0.89929 0.0
H615 H 0.29213 0.75124 0.9912 0.0
H616 H 0.21618 0.72604 0.15314 0.0
H617 H 0.24358 0.73685 0.11411 0.0
C618 C 0.94925 0.48065 0.96002 0.0
C619 C 0.9329 0.48571 0.93128 0.0
C620 C 0.96724 0.48591 0.97839 0.0
C621 C 0.9973 0.50934 0.95212 0.0
H622 H 0.02177 0.50395 0.10841 0.0
C623 C 0.06313 0.53425 0.05606 0.0
C624 C 0.07955 0.52923 0.08478 0.0
C625 C 0.04517 0.52895 0.03796 0.0
C626 C 0.01527 0.50547 0.06435 0.0
H627 H 0.92262 0.50025 0.89904 0.0
H628 H 0.95391 0.50943 0.9314 0.0
H629 H 0.9908 0.49462 0.0748 0.0
H630 H 0.08995 0.51474 0.11738 0.0
H631 H 0.05869 0.50548 0.08544 0.0
H632 H 0.02176 0.52019 0.94166 0.0
C633 C 0.95297 0.50138 0.93916 0.0
C634 C 0.99751 0.50012 0.04506 0.0
C635 C 0.93498 0.49612 0.92087 0.0
C636 C 0.07754 0.51883 0.09555 0.0
C637 C 0.05957 0.51354 0.07749 0.0
C638 C 0.01505 0.51469 0.97141 0.0
C639 C 0.96929 0.49635 0.96837 0.0
C640 C 0.9883 0.50199 0.98871 0.0
C641 C 0.0432 0.51852 0.04818 0.0
C642 C 0.02425 0.51283 0.02779 0.0
H643 H 0.94813 0.47263 0.96865 0.0
H644 H 0.97962 0.48177 1.00002 0.0
H645 H 0.9908 0.51087 0.90807 0.0
H646 H 0.06418 0.54226 0.04722 0.0
H647 H 0.03274 0.53305 0.0163 0.0
C648 C 0.82457 0.48774 0.79554 0.0
C649 C 0.82046 0.48108 0.84258 0.0
C650 C 0.8088 0.49394 0.77334 0.0
C651 C 0.75139 0.49726 0.768 0.0
H652 H 0.7654 0.52523 0.73701 0.0
C653 C 0.68813 0.52698 0.7171 0.0
C654 C 0.69225 0.53358 0.66979 0.0
C655 C 0.70388 0.52078 0.73945 0.0
C656 C 0.76126 0.51742 0.74487 0.0
H657 H 0.79635 0.47556 0.902 0.0
H658 H 0.76891 0.4864 0.86349 0.0
H659 H 0.7924 0.51372 0.77118 0.0
H660 H 0.71637 0.53901 0.61006 0.0
H661 H 0.74377 0.52818 0.64887 0.0
H662 H 0.72024 0.50096 0.74171 0.0
C663 C 0.78429 0.48677 0.84342 0.0
C664 C 0.77676 0.51081 0.76436 0.0
C665 C 0.80007 0.48057 0.86566 0.0
C666 C 0.71264 0.53404 0.6466 0.0
C667 C 0.72839 0.52784 0.66901 0.0
C668 C 0.73589 0.50387 0.74853 0.0
C669 C 0.78853 0.49364 0.79756 0.0
C670 C 0.77203 0.50064 0.77614 0.0
C671 C 0.72414 0.52103 0.71513 0.0
C672 C 0.74062 0.51404 0.73671 0.0
H673 H 0.84007 0.4883 0.77646 0.0
H674 H 0.81253 0.499 0.73725 0.0
H675 H 0.74725 0.48945 0.77583 0.0
H676 H 0.67263 0.52645 0.73625 0.0
H677 H 0.70014 0.51575 0.7757 0.0
C678 C 0.07789 0.24606 0.66892 0.0
C679 C 0.08005 0.23566 0.67963 0.0
C680 C 0.05984 0.2513 0.68695 0.0
C681 C 0.01524 0.25001 0.79272 0.0
H682 H 0.99092 0.27005 0.68921 0.0
C683 C 0.93507 0.26862 0.84299 0.0
C684 C 0.93301 0.27902 0.83239 0.0
C685 C 0.95308 0.26334 0.82487 0.0
C686 C 0.99765 0.26457 0.71899 0.0
H687 H 0.06487 0.22258 0.7171 0.0
H688 H 0.03328 0.23169 0.74799 0.0
H689 H 0.02196 0.26076 0.65575 0.0
H690 H 0.9483 0.29208 0.79498 0.0
H691 H 0.9798 0.28291 0.76394 0.0
H692 H 0.99092 0.25382 0.85596 0.0
C693 C 0.04565 0.23584 0.72638 0.0
C694 C 0.01545 0.25923 0.69977 0.0
C695 C 0.0637 0.2306 0.7083 0.0
C696 C 0.9494 0.28406 0.80373 0.0
C697 C 0.96739 0.27879 0.78555 0.0
C698 C 0.99744 0.25534 0.81194 0.0
C699 C 0.04353 0.24626 0.71617 0.0
C700 C 0.02448 0.25189 0.7364 0.0
C701 C 0.96942 0.26835 0.79565 0.0
C702 C 0.98842 0.26269 0.77533 0.0
H703 H 0.09024 0.25019 0.64713 0.0
H704 H 0.05884 0.25935 0.67903 0.0
H705 H 0.02198 0.24453 0.82251 0.0
H706 H 0.92269 0.26451 0.86477 0.0
H707 H 0.95401 0.25529 0.83272 0.0
C708 C 0.68828 0.23788 0.04463 0.0
C709 C 0.69228 0.23136 0.09247 0.0
C710 C 0.70406 0.24406 0.02234 0.0
C711 C 0.75441 0.25574 0.06722 0.0
H712 H 0.75945 0.26069 0.89573 0.0
C713 C 0.82434 0.27724 0.96637 0.0
C714 C 0.82037 0.2838 0.91874 0.0
C715 C 0.80851 0.27108 0.98862 0.0
C716 C 0.75809 0.2595 0.94387 0.0
H717 H 0.71625 0.22602 0.15302 0.0
H718 H 0.74381 0.2367 0.11358 0.0
H719 H 0.73272 0.24911 0.93059 0.0
H720 H 0.79642 0.28923 0.85845 0.0
H721 H 0.76878 0.27859 0.89778 0.0
H722 H 0.7798 0.26613 0.08049 0.0
C723 C 0.72837 0.23716 0.09401 0.0
C724 C 0.74278 0.25283 0.96385 0.0
C725 C 0.71259 0.23097 0.11629 0.0
C726 C 0.80006 0.28425 0.89505 0.0
C727 C 0.78423 0.27809 0.91726 0.0
C728 C 0.76973 0.26241 0.04724 0.0
C729 C 0.72424 0.24388 0.04731 0.0
C730 C 0.74074 0.25086 0.02579 0.0
C731 C 0.78832 0.27133 0.96379 0.0
C732 C 0.77177 0.26437 0.9853 0.0
H733 H 0.67282 0.23839 0.02523 0.0
H734 H 0.70026 0.2492 0.98673 0.0
H735 H 0.75305 0.25455 0.11536 0.0
H736 H 0.83981 0.27667 0.98569 0.0
H737 H 0.81228 0.26591 0.0241 0.0
C738 C 0.32435 0.98765 0.7953 0.0
C739 C 0.3205 0.98129 0.84394 0.0
C740 C 0.30852 0.99381 0.77299 0.0
C741 C 0.25849 1.00576 0.81856 0.0
H742 H 0.25273 0.01021 0.64668 0.0
C743 C 0.18844 0.02727 0.71802 0.0
C744 C 0.19232 0.03365 0.6695 0.0
C745 C 0.20425 0.0211 0.74036 0.0
C746 C 0.25429 0.00915 0.69491 0.0
H747 H 0.29675 0.97619 0.90595 0.0
H748 H 0.26911 0.98682 0.86649 0.0
H749 H 0.27949 0.99864 0.68176 0.0
H750 H 0.21612 0.03878 0.60772 0.0
H751 H 0.24373 0.02813 0.6472 0.0
H752 H 0.23328 0.01627 0.83171 0.0
C753 C 0.28447 0.98718 0.84628 0.0
C754 C 0.26962 1.0025 0.71501 0.0
C755 C 0.3003 0.98102 0.86858 0.0
C756 C 0.21255 0.03393 0.645 0.0
C757 C 0.22835 0.02776 0.66731 0.0
C758 C 0.24315 0.01241 0.79845 0.0
C759 C 0.28845 0.99376 0.79873 0.0
C760 C 0.27192 1.00072 0.77711 0.0
C761 C 0.22434 0.02117 0.71473 0.0
C762 C 0.24086 0.0142 0.73636 0.0
H763 H 0.33973 0.98807 0.77526 0.0
H764 H 0.31221 0.99884 0.7367 0.0
H765 H 0.26005 1.00471 0.86679 0.0
H766 H 0.17304 0.02684 0.73796 0.0
H767 H 0.20054 0.01606 0.77656 0.0
C768 C 0.18858 0.23779 0.54518 0.0
C769 C 0.19258 0.23135 0.59337 0.0
C770 C 0.20434 0.24397 0.52275 0.0
C771 C 0.2545 0.25583 0.56758 0.0
H772 H 0.25983 0.26046 0.39579 0.0
C773 C 0.32436 0.27735 0.46649 0.0
C774 C 0.32041 0.28379 0.41823 0.0
C775 C 0.30858 0.27119 0.48891 0.0
C776 C 0.2584 0.25936 0.444 0.0
H777 H 0.21652 0.22614 0.65446 0.0
H778 H 0.24404 0.23682 0.61481 0.0
H779 H 0.23314 0.24888 0.431 0.0
H780 H 0.29652 0.28899 0.357 0.0
H781 H 0.26895 0.27835 0.39663 0.0
H782 H 0.27976 0.2663 0.58058 0.0
C783 C 0.22861 0.23722 0.59504 0.0
C784 C 0.2431 0.2527 0.46418 0.0
C785 C 0.21286 0.23103 0.61744 0.0
C786 C 0.30015 0.28411 0.39407 0.0
C787 C 0.28436 0.27794 0.41647 0.0
C788 C 0.2698 0.26249 0.5474 0.0
C789 C 0.22449 0.24387 0.54795 0.0
C790 C 0.24096 0.25084 0.52623 0.0
C791 C 0.28844 0.2713 0.46363 0.0
C792 C 0.27194 0.26434 0.48534 0.0
H793 H 0.17314 0.23825 0.52558 0.0
H794 H 0.20055 0.24905 0.48682 0.0
H795 H 0.25307 0.25472 0.61579 0.0
H796 H 0.3398 0.27689 0.48616 0.0
H797 H 0.31234 0.26611 0.52488 0.0
C798 C 0.94925 0.98077 0.4593 0.0
C799 C 0.93292 0.98583 0.43047 0.0
C800 C 0.96727 0.98602 0.47754 0.0
C801 C 0.99745 0.00941 0.45121 0.0
H802 H 0.02176 1.00402 0.60771 0.0
C803 C 0.06339 0.03422 0.55548 0.0
C804 C 0.07975 0.02918 0.58429 0.0
C805 C 0.04539 0.02896 0.53729 0.0
C806 C 0.01531 1.00554 0.5636 0.0
H807 H 0.92273 1.00036 0.39785 0.0
H808 H 0.95407 0.00952 0.43003 0.0
H809 H 0.99077 0.99473 0.57396 0.0
H810 H 0.09001 0.01468 0.61699 0.0
H811 H 0.0587 1.00547 0.5849 0.0
H812 H 0.02198 0.02022 0.44085 0.0
C813 C 0.95309 1.00147 0.43796 0.0
C814 C 0.99754 1.0002 0.54421 0.0
C815 C 0.93507 0.99623 0.41976 0.0
C816 C 0.07765 0.01879 0.59508 0.0
C817 C 0.05965 0.01352 0.57693 0.0
C818 C 0.01522 0.01474 0.47059 0.0
C819 C 0.96937 0.99644 0.46735 0.0
C820 C 0.98838 1.00207 0.48778 0.0
C821 C 0.04334 0.01853 0.54751 0.0
C822 C 0.02437 0.01288 0.52705 0.0
H823 H 0.94809 0.97276 0.46811 0.0
H824 H 0.97962 0.98188 0.49929 0.0
H825 H 0.99099 0.01093 0.4071 0.0
H826 H 0.06451 0.04224 0.54661 0.0
H827 H 0.03302 0.03308 0.51554 0.0
C828 C 0.68831 0.02727 0.21619 0.0
C829 C 0.6923 0.03374 0.16817 0.0
C830 C 0.70412 0.02112 0.23873 0.0
C831 C 0.7545 0.00942 0.19439 0.0
H832 H 0.7596 1.00472 0.36615 0.0
C833 C 0.82439 0.98796 0.29601 0.0
C834 C 0.82041 0.98149 0.34405 0.0
C835 C 0.80859 0.99412 0.27352 0.0
C836 C 0.75823 1.00584 0.31795 0.0
H837 H 0.71626 0.03905 0.1075 0.0
H838 H 0.74386 0.02843 0.14735 0.0
H839 H 0.73283 0.01625 0.33078 0.0
H840 H 0.79646 0.97621 0.40483 0.0
H841 H 0.76886 0.98684 0.36506 0.0
H842 H 0.77989 0.99901 0.18155 0.0
C843 C 0.72841 0.02798 0.1669 0.0
C844 C 0.74289 0.01248 0.29768 0.0
C845 C 0.71261 0.03413 0.14438 0.0
C846 C 0.8001 0.98112 0.36793 0.0
C847 C 0.78431 0.98728 0.34546 0.0
C848 C 0.76983 1.00278 0.21466 0.0
C849 C 0.7243 0.0213 0.21382 0.0
C850 C 0.74083 0.01435 0.23563 0.0
C851 C 0.78842 0.99396 0.29851 0.0
C852 C 0.77189 1.0009 0.2767 0.0
H853 H 0.67284 0.02676 0.23557 0.0
H854 H 0.70033 0.01601 0.27452 0.0
H855 H 0.75312 0.01054 0.14618 0.0
H856 H 0.83985 0.98846 0.27656 0.0
H857 H 0.81238 0.99922 0.23771 0.0
C858 C 0.71231 0.73098 0.61737 0.0
C859 C 0.69213 0.73125 0.5926 0.0
C860 C 0.72813 0.73717 0.59535 0.0
C861 C 0.74303 0.7526 0.46463 0.0
H862 H 0.77919 0.76631 0.58194 0.0
C863 C 0.8 0.78412 0.39583 0.0
C864 C 0.82021 0.78383 0.42042 0.0
C865 C 0.7842 0.77793 0.41791 0.0
C866 C 0.76937 0.76247 0.54852 0.0
H867 H 0.67293 0.73808 0.52397 0.0
H868 H 0.70044 0.74889 0.48589 0.0
H869 H 0.75245 0.7547 0.61652 0.0
H870 H 0.83947 0.77698 0.48881 0.0
H871 H 0.81198 0.76616 0.52702 0.0
H872 H 0.75993 0.76038 0.39664 0.0
C873 C 0.70411 0.74384 0.52206 0.0
C874 C 0.75405 0.75579 0.56833 0.0
C875 C 0.6883 0.73765 0.5441 0.0
C876 C 0.82408 0.77742 0.46881 0.0
C877 C 0.80828 0.77123 0.49092 0.0
C878 C 0.75834 0.75928 0.44482 0.0
C879 C 0.72416 0.74378 0.54796 0.0
C880 C 0.74068 0.75077 0.52665 0.0
C881 C 0.78821 0.7713 0.46519 0.0
C882 C 0.7717 0.76431 0.48651 0.0
H883 H 0.71584 0.72612 0.65464 0.0
H884 H 0.74347 0.7368 0.61566 0.0
H885 H 0.73321 0.74876 0.4312 0.0
H886 H 0.79644 0.78899 0.35865 0.0
H887 H 0.76884 0.77831 0.39773 0.0
C888 C 0.44884 0.78419 0.80012 0.0
C889 C 0.4325 0.77912 0.82887 0.0
C890 C 0.46681 0.77893 0.78155 0.0
C891 C 0.4969 0.75549 0.80749 0.0
H892 H 0.52145 0.76095 0.65139 0.0
C893 C 0.56296 0.73067 0.70394 0.0
C894 C 0.57939 0.7357 0.67549 0.0
C895 C 0.54492 0.73594 0.72178 0.0
C896 C 0.51492 0.75941 0.69539 0.0
H897 H 0.42224 0.76457 0.86083 0.0
H898 H 0.45351 0.75539 0.8281 0.0
H899 H 0.49042 0.77025 0.68499 0.0
H900 H 0.58974 0.7502 0.64299 0.0
H901 H 0.55836 0.75942 0.6745 0.0
H902 H 0.52139 0.74465 0.81793 0.0
C903 C 0.45256 0.76345 0.82051 0.0
C904 C 0.49714 0.76475 0.71468 0.0
C905 C 0.43458 0.76871 0.83902 0.0
C906 C 0.57732 0.7461 0.66463 0.0
C907 C 0.55928 0.75137 0.68245 0.0
C908 C 0.51468 0.75015 0.7882 0.0
C909 C 0.46888 0.76849 0.79136 0.0
C910 C 0.4879 0.76285 0.77097 0.0
C911 C 0.5429 0.74637 0.71158 0.0
C912 C 0.52391 0.75204 0.73189 0.0
H913 H 0.44771 0.79222 0.7917 0.0
H914 H 0.47919 0.78308 0.75995 0.0
H915 H 0.49038 0.75395 0.8515 0.0
H916 H 0.56405 0.72265 0.71282 0.0
H917 H 0.5325 0.73182 0.74328 0.0
C918 C 0.57786 0.5187 0.59186 0.0
C919 C 0.57996 0.5291 0.58129 0.0
C920 C 0.55988 0.51344 0.57355 0.0
C921 C 0.51539 0.51469 0.46742 0.0
H922 H 0.49099 0.49468 0.5709 0.0
C923 C 0.43519 0.49618 0.4171 0.0
C924 C 0.43305 0.48579 0.42786 0.0
C925 C 0.45322 0.50142 0.43514 0.0
C926 C 0.49774 0.50015 0.54112 0.0
H927 H 0.56476 0.54217 0.54371 0.0
H928 H 0.53327 0.53303 0.51233 0.0
H929 H 0.52201 0.50396 0.60448 0.0
H930 H 0.44825 0.47271 0.46541 0.0
H931 H 0.47981 0.48183 0.49631 0.0
H932 H 0.49112 0.51089 0.40406 0.0
C933 C 0.54564 0.52889 0.53406 0.0
C934 C 0.51553 0.50548 0.56041 0.0
C935 C 0.56363 0.53415 0.55242 0.0
C936 C 0.4494 0.48072 0.45657 0.0
C937 C 0.46744 0.48597 0.47466 0.0
C938 C 0.4976 0.50936 0.44813 0.0
C939 C 0.54357 0.51846 0.54419 0.0
C940 C 0.52457 0.51282 0.52381 0.0
C941 C 0.46953 0.4964 0.46442 0.0
C942 C 0.48855 0.50203 0.48473 0.0
H943 H 0.59021 0.51458 0.61379 0.0
H944 H 0.55892 0.50539 0.58142 0.0
H945 H 0.52214 0.52017 0.43765 0.0
H946 H 0.42283 0.50031 0.39527 0.0
H947 H 0.4542 0.50947 0.42719 0.0
C948 C 0.43505 0.26888 0.34308 0.0
C949 C 0.43294 0.27927 0.33237 0.0
C950 C 0.45306 0.26361 0.32492 0.0
C951 C 0.49754 0.26484 0.21873 0.0
H952 H 0.52195 0.2448 0.32206 0.0
C953 C 0.57768 0.24625 0.16793 0.0
C954 C 0.57979 0.23585 0.17862 0.0
C955 C 0.55967 0.25152 0.18612 0.0
C956 C 0.51519 0.25028 0.29232 0.0
H957 H 0.44817 0.29233 0.29479 0.0
H958 H 0.47968 0.28318 0.2637 0.0
H959 H 0.49094 0.25409 0.35577 0.0
H960 H 0.56457 0.22279 0.21619 0.0
H961 H 0.53306 0.23195 0.24734 0.0
H962 H 0.52179 0.26103 0.15528 0.0
C963 C 0.4673 0.27905 0.2854 0.0
C964 C 0.49741 0.25562 0.31168 0.0
C965 C 0.4493 0.28432 0.3036 0.0
C966 C 0.56344 0.23081 0.2074 0.0
C967 C 0.54543 0.23607 0.22564 0.0
C968 C 0.51532 0.2595 0.19937 0.0
C969 C 0.46937 0.26862 0.29557 0.0
C970 C 0.48836 0.26297 0.27514 0.0
C971 C 0.54336 0.24651 0.21548 0.0
C972 C 0.52437 0.25216 0.23591 0.0
H973 H 0.42268 0.26476 0.36495 0.0
H974 H 0.45401 0.25556 0.33284 0.0
H975 H 0.49078 0.27032 0.18899 0.0
H976 H 0.59004 0.25037 0.14605 0.0
H977 H 0.55871 0.25957 0.17822 0.0
C978 C 0.43525 0.99614 0.91654 0.0
C979 C 0.43318 0.98575 0.9275 0.0
C980 C 0.45326 1.00142 0.93448 0.0
C981 C 0.49774 1.00025 0.04066 0.0
H982 H 0.52209 0.02027 0.93714 0.0
C983 C 0.5778 0.01885 0.09142 0.0
C984 C 0.57989 0.02925 0.08076 0.0
C985 C 0.55982 0.01358 0.07315 0.0
C986 C 0.51535 0.01479 0.96692 0.0
H987 H 0.44848 0.97272 0.9652 0.0
H988 H 0.47998 0.98189 0.9959 0.0
H989 H 0.49111 0.01095 0.9035 0.0
H990 H 0.56467 0.0423 0.04308 0.0
H991 H 0.5332 0.03315 0.01177 0.0
H992 H 0.52196 1.00409 0.10408 0.0
C993 C 0.46758 0.98601 0.9742 0.0
C994 C 0.49759 0.00944 0.9476 0.0
C995 C 0.44958 0.98073 0.95622 0.0
C996 C 0.56355 0.03429 0.05186 0.0
C997 C 0.54557 0.02902 0.03354 0.0
C998 C 0.51549 1.0056 0.05997 0.0
C999 C 0.4696 0.99643 0.96385 0.0
C1000 C 0.48857 1.0021 0.98422 0.0
C1001 C 0.54351 0.01859 0.04374 0.0
C1002 C 0.52453 0.01294 0.02335 0.0
H1003 H 0.42285 1.00024 0.8947 0.0
H1004 H 0.45418 0.00947 0.92642 0.0
H1005 H 0.491 0.99477 0.07045 0.0
H1006 H 0.59015 0.01473 0.11338 0.0
H1007 H 0.55887 1.00553 0.08107 0.0
C1008 C 0.11432 0.55526 0.40959 0.0
C1009 C 0.11756 0.5471 0.36801 0.0
C1010 C 0.11713 0.55405 0.47168 0.0
C1011 C 0.14242 0.53744 0.58234 0.0
H1012 H 0.10413 0.55072 0.69559 0.0
C1013 C 0.14187 0.52927 0.83803 0.0
C1014 C 0.13976 0.53763 0.879 0.0
C1015 C 0.13926 0.53042 0.77578 0.0
C1016 C 0.11509 0.54705 0.66459 0.0
H1017 H 0.12616 0.53122 0.35946 0.0
H1018 H 0.13089 0.52905 0.46795 0.0
H1019 H 0.09928 0.55259 0.58703 0.0
H1020 H 0.13345 0.5538 0.88579 0.0
H1021 H 0.12869 0.55577 0.77726 0.0
H1022 H 0.1581 0.53183 0.66009 0.0
C1023 C 0.1265 0.53646 0.45238 0.0
C1024 C 0.11233 0.54812 0.6023 0.0
C1025 C 0.12377 0.53769 0.39014 0.0
C1026 C 0.13489 0.54716 0.85589 0.0
C1027 C 0.13218 0.5483 0.79359 0.0
C1028 C 0.14513 0.53633 0.64465 0.0
C1029 C 0.12318 0.54463 0.49398 0.0
C1030 C 0.12599 0.54336 0.56033 0.0
C1031 C 0.13437 0.53995 0.75279 0.0
C1032 C 0.13151 0.54114 0.68652 0.0
H1033 H 0.10994 0.56267 0.39412 0.0
H1034 H 0.11484 0.56056 0.50216 0.0
H1035 H 0.15345 0.53379 0.55147 0.0
H1036 H 0.14524 0.52178 0.85393 0.0
H1037 H 0.14073 0.5238 0.74568 0.0
C1038 C 0.1238 0.72766 0.87498 0.0
C1039 C 0.11745 0.71828 0.8972 0.0
C1040 C 0.12656 0.72886 0.81272 0.0
C1041 C 0.11227 0.71721 0.66285 0.0
H1042 H 0.15833 0.73329 0.60503 0.0
C1043 C 0.13498 0.71804 0.40923 0.0
C1044 C 0.14002 0.72755 0.38613 0.0
C1045 C 0.1322 0.71692 0.47153 0.0
C1046 C 0.14527 0.72885 0.62048 0.0
H1047 H 0.1096 0.70273 0.87122 0.0
H1048 H 0.11454 0.70479 0.76315 0.0
H1049 H 0.15359 0.73138 0.71367 0.0
H1050 H 0.14573 0.74338 0.41122 0.0
H1051 H 0.14112 0.74138 0.51943 0.0
H1052 H 0.10408 0.71462 0.56956 0.0
C1053 C 0.11692 0.7113 0.79358 0.0
C1054 C 0.14252 0.72777 0.6828 0.0
C1055 C 0.11409 0.71011 0.85569 0.0
C1056 C 0.14223 0.7359 0.4271 0.0
C1057 C 0.13956 0.73476 0.48934 0.0
C1058 C 0.11508 0.71826 0.60055 0.0
C1059 C 0.12312 0.72069 0.77119 0.0
C1060 C 0.12599 0.72193 0.70482 0.0
C1061 C 0.13451 0.72526 0.51233 0.0
C1062 C 0.1316 0.72409 0.57861 0.0
H1063 H 0.1263 0.73412 0.9056 0.0
H1064 H 0.13107 0.73624 0.79708 0.0
H1065 H 0.09915 0.7128 0.67813 0.0
H1066 H 0.13345 0.71141 0.37933 0.0
H1067 H 0.12858 0.70946 0.48786 0.0
C1068 C 0.89224 0.47808 0.62291 0.0
C1069 C 0.89419 0.46834 0.64619 0.0
C1070 C 0.88952 0.4793 0.56058 0.0
C1071 C 0.86951 0.46658 0.42332 0.0
H1072 H 0.90653 0.48412 0.3354 0.0
C1073 C 0.85535 0.47816 0.17552 0.0
C1074 C 0.87227 0.47671 0.13575 0.0
C1075 C 0.85791 0.47711 0.2379 0.0
C1076 C 0.89611 0.4792 0.35946 0.0
H1077 H 0.8942 0.45224 0.62295 0.0
H1078 H 0.88897 0.45436 0.51438 0.0
H1079 H 0.9108 0.48257 0.44517 0.0
H1080 H 0.9052 0.47317 0.12999 0.0
H1081 H 0.90983 0.47155 0.23962 0.0
H1082 H 0.85462 0.46331 0.33787 0.0
C1083 C 0.88983 0.46105 0.54416 0.0
C1084 C 0.89845 0.47837 0.42217 0.0
C1085 C 0.89297 0.45984 0.60615 0.0
C1086 C 0.89187 0.47424 0.15963 0.0
C1087 C 0.89454 0.47339 0.22224 0.0
C1088 C 0.86691 0.46756 0.36088 0.0
C1089 C 0.88822 0.47079 0.52067 0.0
C1090 C 0.88527 0.47199 0.45461 0.0
C1091 C 0.87756 0.47479 0.26193 0.0
C1092 C 0.88027 0.47382 0.32826 0.0
H1093 H 0.89321 0.48475 0.65281 0.0
H1094 H 0.88822 0.48689 0.5436 0.0
H1095 H 0.8591 0.46164 0.4473 0.0
H1096 H 0.84007 0.48002 0.15816 0.0
H1097 H 0.84458 0.47826 0.26752 0.0
C1098 C 0.89222 0.28679 0.13933 0.0
C1099 C 0.89388 0.29656 0.11614 0.0
C1100 C 0.88953 0.28554 0.20164 0.0
C1101 C 0.86916 0.29808 0.33905 0.0
H1102 H 0.90681 0.28079 0.42668 0.0
C1103 C 0.85553 0.28634 0.58684 0.0
C1104 C 0.87244 0.28791 0.62653 0.0
C1105 C 0.85801 0.28742 0.52445 0.0
C1106 C 0.89621 0.28564 0.40271 0.0
H1107 H 0.89342 0.31265 0.13951 0.0
H1108 H 0.88823 0.31047 0.24807 0.0
H1109 H 0.91098 0.2824 0.31693 0.0
H1110 H 0.90526 0.29168 0.63212 0.0
H1111 H 0.90975 0.29335 0.5225 0.0
H1112 H 0.8542 0.30121 0.42457 0.0
C1113 C 0.8893 0.30379 0.21823 0.0
C1114 C 0.8985 0.28651 0.34001 0.0
C1115 C 0.89241 0.30504 0.15625 0.0
C1116 C 0.89194 0.29052 0.60255 0.0
C1117 C 0.89454 0.29139 0.53994 0.0
C1118 C 0.86661 0.29705 0.40149 0.0
C1119 C 0.88798 0.29404 0.24163 0.0
C1120 C 0.88509 0.29279 0.30767 0.0
C1121 C 0.87757 0.28988 0.50033 0.0
C1122 C 0.8802 0.29088 0.434 0.0
H1123 H 0.8934 0.28015 0.10938 0.0
H1124 H 0.88846 0.27794 0.21855 0.0
H1125 H 0.85858 0.30295 0.31515 0.0
H1126 H 0.84033 0.28438 0.60427 0.0
H1127 H 0.8447 0.28618 0.49489 0.0
C1128 C 0.14191 0.02905 0.33755 0.0
C1129 C 0.14001 0.03742 0.37844 0.0
C1130 C 0.13934 0.0302 0.27529 0.0
C1131 C 0.13979 0.04958 0.15735 0.0
H1132 H 0.11094 0.02876 0.06159 0.0
C1133 C 0.11513 0.05517 0.90905 0.0
C1134 C 0.1181 0.04698 0.86746 0.0
C1135 C 0.11808 0.05395 0.9711 0.0
C1136 C 0.11923 0.03459 0.08758 0.0
H1137 H 0.13403 0.05362 0.38516 0.0
H1138 H 0.12901 0.05558 0.27684 0.0
H1139 H 0.11521 0.02682 0.17033 0.0
H1140 H 0.1264 0.03105 0.8588 0.0
H1141 H 0.13168 0.02893 0.96726 0.0
H1142 H 0.14362 0.05738 0.07456 0.0
C1143 C 0.13278 0.04813 0.29294 0.0
C1144 C 0.1217 0.03348 0.14996 0.0
C1145 C 0.13541 0.04698 0.35527 0.0
C1146 C 0.12412 0.03753 0.88952 0.0
C1147 C 0.12695 0.03629 0.95172 0.0
C1148 C 0.13724 0.0507 0.09502 0.0
C1149 C 0.13473 0.03976 0.25212 0.0
C1150 C 0.13202 0.04096 0.18569 0.0
C1151 C 0.12398 0.0445 0.99322 0.0
C1152 C 0.12692 0.04322 0.05939 0.0
H1153 H 0.14519 0.02155 0.35348 0.0
H1154 H 0.1412 0.0236 0.24523 0.0
H1155 H 0.14814 0.05541 0.18317 0.0
H1156 H 0.11076 0.06258 0.89367 0.0
H1157 H 0.11547 0.0604 1.00187 0.0
C1158 C 0.1152 0.20973 0.35449 0.0
C1159 C 0.11829 0.21792 0.39594 0.0
C1160 C 0.11803 0.21092 0.29238 0.0
C1161 C 0.14311 0.22757 0.18156 0.0
H1162 H 0.10508 0.21413 0.06834 0.0
C1163 C 0.14239 0.23573 0.92593 0.0
C1164 C 0.14045 0.22737 0.88493 0.0
C1165 C 0.1398 0.23456 0.98817 0.0
C1166 C 0.11596 0.21784 0.09933 0.0
H1167 H 0.12666 0.23383 0.40429 0.0
H1168 H 0.13142 0.23596 0.29577 0.0
H1169 H 0.10023 0.21226 0.17691 0.0
H1170 H 0.13446 0.21118 0.87807 0.0
H1171 H 0.12974 0.20917 0.9866 0.0
H1172 H 0.1587 0.23322 0.10379 0.0
C1173 C 0.12713 0.22855 0.31144 0.0
C1174 C 0.1132 0.21677 0.16163 0.0
C1175 C 0.12438 0.22734 0.3737 0.0
C1176 C 0.13577 0.21781 0.908 0.0
C1177 C 0.13308 0.21666 0.9703 0.0
C1178 C 0.1458 0.22868 0.11925 0.0
C1179 C 0.12395 0.22036 0.26995 0.0
C1180 C 0.12677 0.2216 0.20359 0.0
C1181 C 0.13511 0.22502 0.01112 0.0
C1182 C 0.13228 0.22381 0.07739 0.0
H1183 H 0.11092 0.20232 0.37006 0.0
H1184 H 0.11585 0.20439 0.26199 0.0
H1185 H 0.15406 0.23127 0.21242 0.0
H1186 H 0.1456 0.24324 0.91006 0.0
H1187 H 0.14114 0.24119 0.01828 0.0
C1188 C 0.88859 0.97757 0.12451 0.0
C1189 C 0.89467 0.96813 0.14665 0.0
C1190 C 0.88576 0.97878 0.06229 0.0
C1191 C 0.87557 0.96433 0.91909 0.0
H1192 H 0.89746 0.98823 0.84362 0.0
C1193 C 0.87729 0.96803 0.65879 0.0
C1194 C 0.87262 0.97758 0.63564 0.0
C1195 C 0.87995 0.96689 0.72111 0.0
C1196 C 0.89101 0.98157 0.86404 0.0
H1197 H 0.90211 0.95254 0.12057 0.0
H1198 H 0.8974 0.95469 0.01234 0.0
H1199 H 0.90175 0.98632 0.95238 0.0
H1200 H 0.86738 0.99345 0.66063 0.0
H1201 H 0.87142 0.9914 0.76884 0.0
H1202 H 0.86469 0.95959 0.83097 0.0
C1203 C 0.89475 0.96114 0.04306 0.0
C1204 C 0.89349 0.98047 0.92643 0.0
C1205 C 0.8977 0.95994 0.10512 0.0
C1206 C 0.8707 0.98595 0.67654 0.0
C1207 C 0.87331 0.9848 0.73878 0.0
C1208 C 0.87301 0.96544 0.85675 0.0
C1209 C 0.88879 0.97058 0.02085 0.0
C1210 C 0.88584 0.97183 0.95467 0.0
C1211 C 0.87798 0.97526 0.76193 0.0
C1212 C 0.88073 0.97406 0.82836 0.0
H1213 H 0.88627 0.98405 0.15517 0.0
H1214 H 0.88098 0.98613 0.04668 0.0
H1215 H 0.86923 0.95764 0.9396 0.0
H1216 H 0.87868 0.96139 0.62889 0.0
H1217 H 0.88377 0.95944 0.7372 0.0
C1218 C 0.87714 0.79719 0.1065 0.0
C1219 C 0.87248 0.78763 0.12958 0.0
C1220 C 0.8798 0.79835 0.04419 0.0
C1221 C 0.86708 0.78633 0.89524 0.0
H1222 H 0.91258 0.80279 0.83761 0.0
C1223 C 0.88844 0.78775 0.64077 0.0
C1224 C 0.89449 0.79718 0.6186 0.0
C1225 C 0.88571 0.78652 0.70301 0.0
C1226 C 0.89963 0.79827 0.85288 0.0
H1227 H 0.86733 0.77176 0.10447 0.0
H1228 H 0.87176 0.77382 0.99622 0.0
H1229 H 0.90778 0.8009 0.94616 0.0
H1230 H 0.90182 0.81278 0.64461 0.0
H1231 H 0.8969 0.81068 0.75266 0.0
H1232 H 0.8588 0.78376 0.80206 0.0
C1233 C 0.8731 0.78044 0.02634 0.0
C1234 C 0.8969 0.79718 0.91517 0.0
C1235 C 0.87053 0.77927 0.08859 0.0
C1236 C 0.89756 0.80536 0.66012 0.0
C1237 C 0.89475 0.80415 0.72222 0.0
C1238 C 0.86975 0.78745 0.83293 0.0
C1239 C 0.87778 0.78999 1.00338 0.0
C1240 C 0.8806 0.7912 0.9371 0.0
C1241 C 0.88886 0.79471 0.74457 0.0
C1242 C 0.88606 0.79344 0.81092 0.0
H1243 H 0.87845 0.80383 0.13642 0.0
H1244 H 0.88313 0.80584 0.02788 0.0
H1245 H 0.85419 0.78178 0.91069 0.0
H1246 H 0.88618 0.78126 0.61012 0.0
H1247 H 0.88145 0.7791 0.71862 0.0
C1248 C 0.61414 0.55491 0.90763 0.0
C1249 C 0.61757 0.54675 0.86611 0.0
C1250 C 0.61697 0.55372 0.96975 0.0
C1251 C 0.6427 0.53729 0.08051 0.0
H1252 H 0.60414 0.55038 0.19376 0.0
C1253 C 0.64251 0.52917 0.33622 0.0
C1254 C 0.64023 0.53752 0.37718 0.0
C1255 C 0.63981 0.5303 0.27398 0.0
C1256 C 0.61517 0.54676 0.16276 0.0
H1257 H 0.62655 0.53092 0.8577 0.0
H1258 H 0.63132 0.5288 0.96623 0.0
H1259 H 0.5992 0.55219 0.08519 0.0
H1260 H 0.6335 0.55365 0.38396 0.0
H1261 H 0.62859 0.55558 0.27544 0.0
H1262 H 0.65856 0.5318 0.15827 0.0
C1263 C 0.62676 0.53618 0.95059 0.0
C1264 C 0.61236 0.54781 0.10046 0.0
C1265 C 0.62399 0.53738 0.88833 0.0
C1266 C 0.63509 0.54702 0.35407 0.0
C1267 C 0.63229 0.54814 0.29177 0.0
C1268 C 0.64546 0.53622 0.14283 0.0
C1269 C 0.62324 0.54434 0.99213 0.0
C1270 C 0.62611 0.54311 0.05849 0.0
C1271 C 0.63467 0.53979 0.25098 0.0
C1272 C 0.63175 0.54095 0.1847 0.0
H1273 H 0.60959 0.56229 0.89212 0.0
H1274 H 0.61452 0.56023 1.00018 0.0
H1275 H 0.6538 0.5337 0.04964 0.0
H1276 H 0.64608 0.5217 0.3521 0.0
H1277 H 0.64143 0.52369 0.2439 0.0
C1278 C 0.63532 0.71793 0.90577 0.0
C1279 C 0.63968 0.72751 0.88259 0.0
C1280 C 0.63277 0.71676 0.9681 0.0
C1281 C 0.62142 0.73135 0.11113 0.0
H1282 H 0.64393 0.70755 0.1864 0.0
C1283 C 0.624 0.72729 0.37152 0.0
C1284 C 0.61816 0.71781 0.39353 0.0
C1285 C 0.62681 0.72854 0.30933 0.0
C1286 C 0.63739 0.7142 0.16597 0.0
H1287 H 0.64449 0.74341 0.90754 0.0
H1288 H 0.64064 0.74133 0.0158 0.0
H1289 H 0.64837 0.70956 0.07779 0.0
H1290 H 0.61114 0.70218 0.36727 0.0
H1291 H 0.61582 0.70439 0.25907 0.0
H1292 H 0.61058 0.73601 0.19954 0.0
C1293 C 0.63891 0.73472 0.98575 0.0
C1294 C 0.63989 0.71535 0.10365 0.0
C1295 C 0.64141 0.73589 0.92348 0.0
C1296 C 0.61536 0.70961 0.35191 0.0
C1297 C 0.61829 0.71085 0.28987 0.0
C1298 C 0.619 0.73023 0.17351 0.0
C1299 C 0.63455 0.72515 0.00892 0.0
C1300 C 0.6319 0.72393 0.07536 0.0
C1301 C 0.624 0.72033 0.2678 0.0
C1302 C 0.62691 0.72163 0.20164 0.0
H1303 H 0.63409 0.71128 0.87588 0.0
H1304 H 0.62919 0.70929 0.98421 0.0
H1305 H 0.61476 0.73798 0.09079 0.0
H1306 H 0.62613 0.73377 0.40226 0.0
H1307 H 0.63138 0.73593 0.29382 0.0
C1308 C 0.39783 0.45988 0.10279 0.0
C1309 C 0.39477 0.46808 0.14433 0.0
C1310 C 0.3949 0.46108 0.04073 0.0
C1311 C 0.39358 0.48042 0.92414 0.0
H1312 H 0.36488 0.45953 0.82861 0.0
C1313 C 0.37081 0.4859 0.67425 0.0
C1314 C 0.37275 0.47754 0.63333 0.0
C1315 C 0.37341 0.48475 0.73649 0.0
C1316 C 0.37317 0.46538 0.85441 0.0
H1317 H 0.38631 0.48398 0.15286 0.0
H1318 H 0.38104 0.48607 0.04437 0.0
H1319 H 0.36941 0.45757 0.93723 0.0
H1320 H 0.37886 0.46135 0.62656 0.0
H1321 H 0.38395 0.45939 0.73486 0.0
H1322 H 0.39754 0.48819 0.84136 0.0
C1323 C 0.38583 0.47872 0.05998 0.0
C1324 C 0.37572 0.46426 0.91675 0.0
C1325 C 0.38866 0.4775 0.1222 0.0
C1326 C 0.37745 0.46798 0.65647 0.0
C1327 C 0.38011 0.46684 0.71878 0.0
C1328 C 0.39111 0.48152 0.86175 0.0
C1329 C 0.3889 0.47052 0.01853 0.0
C1330 C 0.38597 0.47177 0.95235 0.0
C1331 C 0.37811 0.47521 0.75962 0.0
C1332 C 0.38086 0.47401 0.82605 0.0
H1333 H 0.40227 0.45249 0.11823 0.0
H1334 H 0.39757 0.45464 0.01001 0.0
H1335 H 0.40182 0.48627 0.95011 0.0
H1336 H 0.36746 0.4934 0.65837 0.0
H1337 H 0.3715 0.49134 0.76657 0.0
C1338 C 0.37727 0.29716 0.10372 0.0
C1339 C 0.37257 0.2876 0.1268 0.0
C1340 C 0.37994 0.29831 0.04142 0.0
C1341 C 0.36719 0.2863 0.89244 0.0
H1342 H 0.41276 0.30272 0.83485 0.0
C1343 C 0.38861 0.28768 0.63798 0.0
C1344 C 0.39471 0.2971 0.6158 0.0
C1345 C 0.38586 0.28646 0.70023 0.0
C1346 C 0.39979 0.29821 0.85011 0.0
H1347 H 0.36735 0.27173 0.10169 0.0
H1348 H 0.37179 0.27379 0.99343 0.0
H1349 H 0.40793 0.30084 0.9434 0.0
H1350 H 0.40209 0.3127 0.64179 0.0
H1351 H 0.39714 0.31062 0.74983 0.0
H1352 H 0.35893 0.28373 0.79925 0.0
C1353 C 0.37316 0.28041 0.02355 0.0
C1354 C 0.39704 0.29713 0.91239 0.0
C1355 C 0.37058 0.27924 0.08581 0.0
C1356 C 0.3978 0.30529 0.6573 0.0
C1357 C 0.39497 0.30409 0.7194 0.0
C1358 C 0.36988 0.28742 0.83013 0.0
C1359 C 0.37788 0.28995 1.00059 0.0
C1360 C 0.38071 0.29116 0.93432 0.0
C1361 C 0.38904 0.29465 0.74177 0.0
C1362 C 0.38622 0.29339 0.80813 0.0
H1363 H 0.37861 0.30379 0.13365 0.0
H1364 H 0.3833 0.3058 0.02511 0.0
H1365 H 0.35428 0.28176 0.90787 0.0
H1366 H 0.38633 0.2812 0.60735 0.0
H1367 H 0.38157 0.27905 0.71585 0.0
C1368 C 0.62403 0.03758 0.38732 0.0
C1369 C 0.61777 0.04698 0.36508 0.0
C1370 C 0.62679 0.03638 0.44958 0.0
C1371 C 0.61265 0.0481 0.59942 0.0
H1372 H 0.65848 0.03185 0.65723 0.0
C1373 C 0.63529 0.04718 0.85303 0.0
C1374 C 0.64019 0.03764 0.87611 0.0
C1375 C 0.63256 0.04831 0.79073 0.0
C1376 C 0.64549 0.03634 0.64178 0.0
H1377 H 0.6101 0.06255 0.391 0.0
H1378 H 0.61505 0.0605 0.49906 0.0
H1379 H 0.65378 0.03378 0.5486 0.0
H1380 H 0.64566 0.02179 0.85101 0.0
H1381 H 0.64112 0.02382 0.7428 0.0
H1382 H 0.60448 0.05072 0.69271 0.0
C1383 C 0.61736 0.05397 0.46867 0.0
C1384 C 0.64276 0.03743 0.57947 0.0
C1385 C 0.61452 0.05516 0.40655 0.0
C1386 C 0.64229 0.02929 0.83514 0.0
C1387 C 0.63965 0.03044 0.7729 0.0
C1388 C 0.61543 0.04704 0.66172 0.0
C1389 C 0.62345 0.04456 0.49108 0.0
C1390 C 0.6263 0.04332 0.55745 0.0
C1391 C 0.63475 0.03996 0.74992 0.0
C1392 C 0.63188 0.04115 0.68365 0.0
H1393 H 0.62645 0.03111 0.35672 0.0
H1394 H 0.63122 0.02899 0.46524 0.0
H1395 H 0.59959 0.05255 0.58414 0.0
H1396 H 0.63386 0.05381 0.88295 0.0
H1397 H 0.62905 0.05578 0.77441 0.0
C1398 C 0.6241 0.22745 0.87281 0.0
C1399 C 0.61797 0.21804 0.89501 0.0
C1400 C 0.62686 0.22867 0.81056 0.0
C1401 C 0.61289 0.21693 0.66069 0.0
H1402 H 0.65847 0.23333 0.60292 0.0
C1403 C 0.63542 0.21796 0.40706 0.0
C1404 C 0.64017 0.22751 0.384 0.0
C1405 C 0.63274 0.21681 0.46937 0.0
C1406 C 0.64555 0.2288 0.61836 0.0
H1407 H 0.61052 0.20244 0.86904 0.0
H1408 H 0.61548 0.20452 0.76098 0.0
H1409 H 0.65381 0.23137 0.71155 0.0
H1410 H 0.64547 0.24337 0.40913 0.0
H1411 H 0.64101 0.24132 0.51737 0.0
H1412 H 0.60474 0.2143 0.56739 0.0
C1413 C 0.61768 0.21105 0.7914 0.0
C1414 C 0.64285 0.22769 0.68067 0.0
C1415 C 0.61484 0.20985 0.85351 0.0
C1416 C 0.64219 0.23586 0.425 0.0
C1417 C 0.63961 0.2347 0.48725 0.0
C1418 C 0.61565 0.21801 0.5984 0.0
C1419 C 0.62365 0.22048 0.76903 0.0
C1420 C 0.62648 0.22174 0.70267 0.0
C1421 C 0.63484 0.22516 0.5102 0.0
C1422 C 0.632 0.22396 0.57648 0.0
H1423 H 0.62641 0.23393 0.90343 0.0
H1424 H 0.63119 0.23608 0.79493 0.0
H1425 H 0.5999 0.21243 0.67595 0.0
H1426 H 0.63405 0.21133 0.37713 0.0
H1427 H 0.62934 0.20933 0.48566 0.0
C1428 C 0.39736 0.95966 0.60365 0.0
C1429 C 0.39453 0.96786 0.64526 0.0
C1430 C 0.39443 0.9609 0.54161 0.0
C1431 C 0.39362 0.98027 0.42521 0.0
H1432 H 0.36435 0.95958 0.32955 0.0
C1433 C 0.37115 0.98592 0.17522 0.0
C1434 C 0.37291 0.97754 0.13432 0.0
C1435 C 0.37366 0.98475 0.23749 0.0
C1436 C 0.3728 0.96537 0.35539 0.0
H1437 H 0.38649 0.98382 0.65397 0.0
H1438 H 0.38123 0.98596 0.54553 0.0
H1439 H 0.36881 0.95758 0.43815 0.0
H1440 H 0.37857 0.96132 0.12759 0.0
H1441 H 0.38349 0.95933 0.23591 0.0
H1442 H 0.39781 0.98803 0.34249 0.0
C1443 C 0.38584 0.97858 0.56105 0.0
C1444 C 0.37531 0.96423 0.41771 0.0
C1445 C 0.38865 0.97733 0.62324 0.0
C1446 C 0.37731 0.96796 0.15749 0.0
C1447 C 0.37988 0.9668 0.21982 0.0
C1448 C 0.39119 0.98139 0.36284 0.0
C1449 C 0.38867 0.97037 0.51952 0.0
C1450 C 0.38576 0.97166 0.45337 0.0
C1451 C 0.37807 0.97518 0.26065 0.0
C1452 C 0.38074 0.97396 0.32708 0.0
H1453 H 0.40162 0.95224 0.61902 0.0
H1454 H 0.39693 0.95444 0.51083 0.0
H1455 H 0.40202 0.98606 0.45123 0.0
H1456 H 0.36803 0.99344 0.15929 0.0
H1457 H 0.37191 0.99136 0.26755 0.0
C1458 C 0.39301 0.80495 0.15496 0.0
C1459 C 0.39409 0.79644 0.11495 0.0
C1460 C 0.38985 0.80377 0.21696 0.0
C1461 C 0.39812 0.78642 0.33906 0.0
H1462 H 0.35457 0.80171 0.42325 0.0
C1463 C 0.39153 0.79059 0.6016 0.0
C1464 C 0.37186 0.78823 0.62546 0.0
C1465 C 0.39424 0.79142 0.539 0.0
C1466 C 0.36677 0.79739 0.40028 0.0
H1467 H 0.39283 0.78004 0.10842 0.0
H1468 H 0.38779 0.77793 0.21765 0.0
H1469 H 0.35911 0.80335 0.31382 0.0
H1470 H 0.3396 0.78511 0.603 0.0
H1471 H 0.34419 0.78684 0.49363 0.0
H1472 H 0.40605 0.78063 0.42586 0.0
C1473 C 0.38923 0.78551 0.20064 0.0
C1474 C 0.36942 0.79836 0.33783 0.0
C1475 C 0.39198 0.78671 0.13829 0.0
C1476 C 0.35492 0.78688 0.58566 0.0
C1477 C 0.35753 0.78791 0.52327 0.0
C1478 C 0.39574 0.78561 0.40178 0.0
C1479 C 0.38807 0.79404 0.2405 0.0
C1480 C 0.38508 0.79286 0.30658 0.0
C1481 C 0.37724 0.79012 0.49927 0.0
C1482 C 0.38 0.79107 0.43293 0.0
H1483 H 0.39437 0.81254 0.13812 0.0
H1484 H 0.3891 0.81046 0.2467 0.0
H1485 H 0.41039 0.78215 0.31609 0.0
H1486 H 0.40487 0.79158 0.63126 0.0
H1487 H 0.40958 0.79317 0.52164 0.0
C1488 C 0.15172 0.59453 0.17457 0.0
C1489 C 0.15058 0.58909 0.11874 0.0
C1490 C 0.15339 0.60512 0.17657 0.0
C1491 C 0.1424 0.62741 0.08445 0.0
H1492 H 0.17645 0.64175 0.20452 0.0
C1493 C 0.15179 0.67096 0.08542 0.0
C1494 C 0.15074 0.67618 0.14199 0.0
C1495 C 0.15338 0.66037 0.08183 0.0
C1496 C 0.16673 0.63786 0.17103 0.0
H1497 H 0.15109 0.59054 0.02121 0.0
H1498 H 0.15408 0.609 0.02468 0.0
H1499 H 0.17646 0.62322 0.1995 0.0
H1500 H 0.15119 0.6743 0.23919 0.0
H1501 H 0.15362 0.65583 0.23294 0.0
H1502 H 0.13249 0.64202 0.05633 0.0
C1503 C 0.15331 0.60509 0.06699 0.0
C1504 C 0.16674 0.62723 0.16814 0.0
C1505 C 0.15163 0.5945 0.06498 0.0
C1506 C 0.15177 0.67053 0.19488 0.0
C1507 C 0.15338 0.65994 0.19128 0.0
C1508 C 0.1424 0.63802 0.08733 0.0
C1509 C 0.15396 0.61055 0.1228 0.0
C1510 C 0.15451 0.62187 0.12493 0.0
C1511 C 0.15396 0.65471 0.13469 0.0
C1512 C 0.1545 0.6434 0.13077 0.0
H1513 H 0.15062 0.59064 0.21688 0.0
H1514 H 0.15357 0.60908 0.22036 0.0
H1515 H 0.1325 0.62355 0.05132 0.0
H1516 H 0.15079 0.67503 0.04371 0.0
H1517 H 0.15406 0.65662 0.03749 0.0
C1518 C 0.86076 0.4203 0.94308 0.0
C1519 C 0.86197 0.42593 0.89016 0.0
C1520 C 0.8591 0.40971 0.93955 0.0
C1521 C 0.87014 0.38774 0.83583 0.0
H1522 H 0.83597 0.37302 0.94809 0.0
C1523 C 0.86062 0.34424 0.81382 0.0
C1524 C 0.86181 0.33884 0.86759 0.0
C1525 C 0.85896 0.35483 0.81576 0.0
C1526 C 0.84572 0.37702 0.9167 0.0
H1527 H 0.86218 0.42475 0.79189 0.0
H1528 H 0.8588 0.40635 0.78576 0.0
H1529 H 0.83604 0.39155 0.95286 0.0
H1530 H 0.86198 0.34041 0.96573 0.0
H1531 H 0.85902 0.35886 0.9691 0.0
H1532 H 0.87997 0.37324 0.79997 0.0
C1533 C 0.85939 0.41012 0.83009 0.0
C1534 C 0.84577 0.38765 0.91945 0.0
C1535 C 0.86104 0.4207 0.83362 0.0
C1536 C 0.86077 0.34429 0.9234 0.0
C1537 C 0.85911 0.35489 0.92535 0.0
C1538 C 0.87008 0.37713 0.83305 0.0
C1539 C 0.85863 0.40447 0.88299 0.0
C1540 C 0.85804 0.39315 0.87917 0.0
C1541 C 0.85844 0.3603 0.87155 0.0
C1542 C 0.85793 0.37162 0.87357 0.0
H1543 H 0.86123 0.42408 0.98738 0.0
H1544 H 0.85873 0.40561 0.98124 0.0
H1545 H 0.88009 0.39171 0.80482 0.0
H1546 H 0.86106 0.34028 0.77006 0.0
H1547 H 0.85811 0.35874 0.77345 0.0
C1548 C 0.15235 0.09433 0.67402 0.0
C1549 C 0.15122 0.08889 0.61816 0.0
C1550 C 0.15404 0.10492 0.67608 0.0
C1551 C 0.14317 0.12722 0.58391 0.0
H1552 H 0.17704 0.14154 0.70449 0.0
C1553 C 0.15263 0.17077 0.58512 0.0
C1554 C 0.15143 0.17598 0.64168 0.0
C1555 C 0.15423 0.16018 0.58154 0.0
C1556 C 0.16737 0.13766 0.67085 0.0
H1557 H 0.15179 0.09036 0.52065 0.0
H1558 H 0.15484 0.10881 0.52421 0.0
H1559 H 0.17705 0.12301 0.69937 0.0
H1560 H 0.15163 0.1741 0.73889 0.0
H1561 H 0.15409 0.15563 0.73264 0.0
H1562 H 0.13332 0.14183 0.55572 0.0
C1563 C 0.15403 0.1049 0.5665 0.0
C1564 C 0.16738 0.12703 0.66791 0.0
C1565 C 0.15232 0.09431 0.56444 0.0
C1566 C 0.15233 0.17033 0.69458 0.0
C1567 C 0.15395 0.15974 0.69099 0.0
C1568 C 0.14317 0.13784 0.58683 0.0
C1569 C 0.15465 0.11035 0.62234 0.0
C1570 C 0.15521 0.12167 0.62452 0.0
C1571 C 0.15467 0.15452 0.6344 0.0
C1572 C 0.15521 0.1432 0.63046 0.0
H1573 H 0.1512 0.09043 0.7163 0.0
H1574 H 0.15419 0.10887 0.71988 0.0
H1575 H 0.13331 0.12336 0.55064 0.0
H1576 H 0.15173 0.17484 0.5434 0.0
H1577 H 0.15501 0.15643 0.53721 0.0
C1578 C 0.86066 0.92053 0.44548 0.0
C1579 C 0.86158 0.92616 0.39254 0.0
C1580 C 0.85899 0.90994 0.44197 0.0
C1581 C 0.8697 0.888 0.33793 0.0
H1582 H 0.83573 0.87325 0.45053 0.0
C1583 C 0.86031 0.8445 0.31559 0.0
C1584 C 0.8614 0.83908 0.36931 0.0
C1585 C 0.85865 0.85508 0.31765 0.0
C1586 C 0.84543 0.87725 0.41905 0.0
H1587 H 0.8613 0.925 0.29426 0.0
H1588 H 0.85795 0.90659 0.2882 0.0
H1589 H 0.83583 0.89178 0.45558 0.0
H1590 H 0.86141 0.84061 0.46745 0.0
H1591 H 0.85851 0.85906 0.47104 0.0
H1592 H 0.87948 0.87351 0.30178 0.0
C1593 C 0.85874 0.91036 0.33251 0.0
C1594 C 0.84549 0.88788 0.42195 0.0
C1595 C 0.86038 0.92094 0.33602 0.0
C1596 C 0.86029 0.84451 0.42517 0.0
C1597 C 0.85864 0.85511 0.42723 0.0
C1598 C 0.86964 0.87739 0.33504 0.0
C1599 C 0.85826 0.9047 0.38541 0.0
C1600 C 0.85768 0.89339 0.38153 0.0
C1601 C 0.85806 0.86054 0.37349 0.0
C1602 C 0.85756 0.87186 0.37566 0.0
H1603 H 0.86136 0.9243 0.48976 0.0
H1604 H 0.85884 0.90583 0.48364 0.0
H1605 H 0.87957 0.89198 0.30679 0.0
H1606 H 0.86082 0.84054 0.2718 0.0
H1607 H 0.85786 0.859 0.27536 0.0
C1608 C 0.6518 0.67057 0.69824 0.0
C1609 C 0.65095 0.67597 0.6444 0.0
C1610 C 0.65347 0.65999 0.69639 0.0
C1611 C 0.66717 0.6378 0.59575 0.0
H1612 H 0.63252 0.62308 0.70678 0.0
C1613 C 0.65204 0.59452 0.56877 0.0
C1614 C 0.65088 0.58888 0.62165 0.0
C1615 C 0.65368 0.60511 0.57238 0.0
C1616 C 0.64254 0.62705 0.676 0.0
H1617 H 0.65137 0.6744 0.54628 0.0
H1618 H 0.6543 0.65596 0.54306 0.0
H1619 H 0.6326 0.64155 0.71169 0.0
H1620 H 0.65071 0.59003 0.71993 0.0
H1621 H 0.65402 0.60844 0.72617 0.0
H1622 H 0.67693 0.62326 0.55968 0.0
C1623 C 0.65397 0.65992 0.58681 0.0
C1624 C 0.64258 0.63767 0.67883 0.0
C1625 C 0.65231 0.67052 0.58866 0.0
C1626 C 0.65181 0.5941 0.67823 0.0
C1627 C 0.65343 0.60468 0.68183 0.0
C1628 C 0.66712 0.62717 0.59291 0.0
C1629 C 0.65432 0.65451 0.64064 0.0
C1630 C 0.65484 0.64319 0.63862 0.0
C1631 C 0.65416 0.61034 0.62897 0.0
C1632 C 0.65474 0.62166 0.63288 0.0
H1633 H 0.6511 0.67454 0.74195 0.0
H1634 H 0.65408 0.65608 0.73875 0.0
H1635 H 0.67702 0.64179 0.56462 0.0
H1636 H 0.65154 0.59075 0.52445 0.0
H1637 H 0.65403 0.60922 0.53072 0.0
C1638 C 0.36051 0.42089 0.33377 0.0
C1639 C 0.36172 0.42611 0.3903 0.0
C1640 C 0.35888 0.4103 0.33025 0.0
C1641 C 0.34566 0.38782 0.41969 0.0
H1642 H 0.37961 0.37346 0.29939 0.0
C1643 C 0.36046 0.34445 0.42273 0.0
C1644 C 0.36155 0.33902 0.36685 0.0
C1645 C 0.35882 0.35504 0.42484 0.0
C1646 C 0.36978 0.37733 0.33268 0.0
H1647 H 0.36153 0.42424 0.48752 0.0
H1648 H 0.35902 0.40577 0.48137 0.0
H1649 H 0.37971 0.39193 0.30445 0.0
H1650 H 0.36093 0.3405 0.26935 0.0
H1651 H 0.35797 0.35895 0.27299 0.0
H1652 H 0.33591 0.37318 0.44825 0.0
C1653 C 0.35916 0.40988 0.43971 0.0
C1654 C 0.36984 0.38795 0.3356 0.0
C1655 C 0.36082 0.42047 0.44323 0.0
C1656 C 0.36044 0.34444 0.31315 0.0
C1657 C 0.35878 0.35503 0.31525 0.0
C1658 C 0.3456 0.37719 0.41676 0.0
C1659 C 0.35842 0.40465 0.38314 0.0
C1660 C 0.35784 0.39333 0.37925 0.0
C1661 C 0.35822 0.36049 0.37112 0.0
C1662 C 0.35772 0.37181 0.37333 0.0
H1663 H 0.36142 0.42495 0.29203 0.0
H1664 H 0.35808 0.40654 0.28594 0.0
H1665 H 0.33602 0.39172 0.45335 0.0
H1666 H 0.36161 0.34055 0.46499 0.0
H1667 H 0.35871 0.35899 0.46865 0.0
C1668 C 0.65224 0.17067 0.19735 0.0
C1669 C 0.65114 0.1761 0.14367 0.0
C1670 C 0.65389 0.16008 0.1952 0.0
C1671 C 0.66706 0.13794 0.09365 0.0
H1672 H 0.63287 0.1232 0.20574 0.0
C1673 C 0.65185 0.09466 0.06693 0.0
C1674 C 0.65089 0.08902 0.11982 0.0
C1675 C 0.6535 0.10525 0.07051 0.0
C1676 C 0.64276 0.12718 0.17465 0.0
H1677 H 0.65108 0.17459 0.04552 0.0
H1678 H 0.65396 0.15615 0.04178 0.0
H1679 H 0.63299 0.14167 0.21089 0.0
H1680 H 0.65109 0.09016 0.21811 0.0
H1681 H 0.65442 0.10857 0.22429 0.0
H1682 H 0.67664 0.12341 0.05705 0.0
C1683 C 0.65385 0.16009 0.08562 0.0
C1684 C 0.64283 0.13779 0.17762 0.0
C1685 C 0.65222 0.17068 0.08777 0.0
C1686 C 0.65204 0.09423 0.17638 0.0
C1687 C 0.65367 0.10482 0.17996 0.0
C1688 C 0.66698 0.12731 0.09067 0.0
C1689 C 0.65444 0.15464 0.13931 0.0
C1690 C 0.65493 0.14332 0.13705 0.0
C1691 C 0.65419 0.11048 0.1271 0.0
C1692 C 0.65478 0.12179 0.13104 0.0
H1693 H 0.65176 0.17462 0.24117 0.0
H1694 H 0.65469 0.15616 0.23744 0.0
H1695 H 0.67677 0.14194 0.06221 0.0
H1696 H 0.65119 0.09089 0.02262 0.0
H1697 H 0.65368 0.10936 0.02886 0.0
C1698 C 0.36114 0.84414 0.92948 0.0
C1699 C 0.36175 0.83894 0.87279 0.0
C1700 C 0.3595 0.85473 0.93331 0.0
C1701 C 0.34527 0.87724 0.84518 0.0
H1702 H 0.38028 0.89159 0.96277 0.0
C1703 C 0.36019 0.92057 0.8405 0.0
C1704 C 0.36168 0.92603 0.89621 0.0
C1705 C 0.35851 0.90998 0.83868 0.0
C1706 C 0.37016 0.88772 0.93026 0.0
H1707 H 0.36048 0.84085 0.77568 0.0
H1708 H 0.35798 0.85932 0.78232 0.0
H1709 H 0.38037 0.87312 0.95772 0.0
H1710 H 0.36173 0.9246 0.99377 0.0
H1711 H 0.35874 0.90614 0.99062 0.0
H1712 H 0.33525 0.89188 0.81732 0.0
C1713 C 0.35859 0.8552 0.8239 0.0
C1714 C 0.37021 0.8771 0.92735 0.0
C1715 C 0.36025 0.84461 0.82006 0.0
C1716 C 0.36094 0.92063 0.95007 0.0
C1717 C 0.35926 0.91004 0.94825 0.0
C1718 C 0.34522 0.88787 0.84807 0.0
C1719 C 0.35843 0.86041 0.88057 0.0
C1720 C 0.35783 0.87172 0.88464 0.0
C1721 C 0.35828 0.90457 0.89252 0.0
C1722 C 0.35774 0.89325 0.89051 0.0
H1723 H 0.36251 0.84006 0.97105 0.0
H1724 H 0.35916 0.85847 0.97772 0.0
H1725 H 0.33532 0.87335 0.8123 0.0
H1726 H 0.36105 0.92445 0.7981 0.0
H1727 H 0.35807 0.90601 0.79495 0.0
loop_
_geom_bond_atom_site_label_1
_geom_bond_atom_site_label_2
_geom_bond_distance
_geom_bond_site_symmetry_2
_ccdc_geom_bond_type
Co0 N4 2.148 . S
Co0 N10 2.128 . S
Co0 N20 2.194 . S
Co0 O25 2.351 . S
Co0 O26 2.155 . S
Co0 O27 2.096 . S
C1 N4 1.301 1_556 S
C1 N5 1.328 . S
C1 H6 0.930 . S
C2 C3 1.333 1_554 S
C2 N4 1.317 . S
C2 H7 0.930 . S
C3 C2 1.333 1_556 S
C3 N5 1.350 . S
C3 H29 0.931 . S
N4 Co0 2.148 . S
N4 C1 1.301 1_554 S
N4 C2 1.317 . S
N5 C1 1.328 . S
N5 C3 1.350 . S
H6 C1 0.930 . S
H7 C2 0.930 . S
C8 O9 1.224 . S
C8 O27 1.247 . S
O9 C8 1.224 . S
N10 Co0 2.128 . S
N10 C11 1.355 . S
N10 C13 1.311 . S
C11 N10 1.355 . S
C11 C12 1.363 . S
C11 H23 0.929 . S
C12 C11 1.363 . S
C12 N14 1.375 . S
C12 H30 0.931 . S
C13 N10 1.311 . S
C13 N14 1.347 . S
C13 H24 0.929 . S
N14 C12 1.375 . S
N14 C13 1.347 . S
C15 C18 1.365 . S
C15 N20 1.328 . S
C15 H21 0.929 . S
C16 C17 1.362 . S
C16 C19 1.378 . S
C16 H31 0.929 . S
C17 C16 1.362 . S
C17 C18 1.366 . S
C18 C15 1.365 . S
C18 C17 1.366 . S
C18 H32 0.930 . S
C19 C16 1.378 . S
C19 N20 1.315 . S
C19 H22 0.930 . S
N20 Co0 2.194 . S
N20 C15 1.328 . S
N20 C19 1.315 . S
H21 C15 0.929 . S
H22 C19 0.930 . S
H23 C11 0.929 . S
H24 C13 0.929 . S
O25 Co0 2.351 . S
O25 C28 1.244 . S
O26 Co0 2.155 . S
O26 C28 1.240 . S
O27 Co0 2.096 . S
O27 C8 1.247 . S
C28 O25 1.244 . S
C28 O26 1.240 . S
H29 C3 0.931 . S
H30 C12 0.931 . S
H31 C16 0.929 . S
H32 C18 0.930 . S
Co33 N37 2.148 . S
Co33 N43 2.128 . S
Co33 N53 2.194 . S
Co33 O58 2.351 . S
Co33 O59 2.155 . S
Co33 O60 2.096 . S
C34 N37 1.301 . S
C34 N38 1.328 . S
C34 H39 0.930 . S
C35 C36 1.333 . S
C35 N37 1.317 . S
C35 H40 0.930 . S
C36 C35 1.333 . S
C36 N38 1.350 . S
C36 H62 0.931 . S
N37 Co33 2.148 . S
N37 C34 1.301 . S
N37 C35 1.317 . S
N38 C34 1.328 . S
N38 C36 1.350 . S
H39 C34 0.930 . S
H40 C35 0.930 . S
C41 O42 1.224 . S
C41 O60 1.247 . S
O42 C41 1.224 . S
N43 Co33 2.128 . S
N43 C44 1.355 . S
N43 C46 1.311 1_554 S
C44 N43 1.355 . S
C44 C45 1.363 1_554 S
C44 H56 0.929 . S
C45 C44 1.363 1_556 S
C45 N47 1.375 . S
C45 H63 0.931 . S
C46 N43 1.311 1_556 S
C46 N47 1.347 . S
C46 H57 0.929 . S
N47 C45 1.375 . S
N47 C46 1.347 . S
C48 C51 1.365 . S
C48 N53 1.328 . S
C48 H54 0.929 . S
C49 C50 1.362 . S
C49 C52 1.378 . S
C49 H64 0.929 . S
C50 C49 1.362 . S
C50 C51 1.366 . S
C51 C48 1.365 . S
C51 C50 1.366 . S
C51 H65 0.930 . S
C52 C49 1.378 . S
C52 N53 1.315 . S
C52 H55 0.930 . S
N53 Co33 2.194 . S
N53 C48 1.328 . S
N53 C52 1.315 . S
H54 C48 0.929 . S
H55 C52 0.930 . S
H56 C44 0.929 . S
H57 C46 0.929 . S
O58 Co33 2.351 . S
O58 C61 1.244 . S
O59 Co33 2.155 . S
O59 C61 1.240 . S
O60 Co33 2.096 . S
O60 C41 1.247 . S
C61 O58 1.244 . S
C61 O59 1.240 . S
H62 C36 0.931 . S
H63 C45 0.931 . S
H64 C49 0.929 . S
H65 C51 0.930 . S
Co66 N70 2.148 . S
Co66 N76 2.128 . S
Co66 N86 2.194 . S
Co66 O91 2.351 . S
Co66 O92 2.155 . S
Co66 O93 2.096 . S
C67 N70 1.301 1_554 S
C67 N71 1.328 . S
C67 H72 0.930 . S
C68 C69 1.333 1_556 S
C68 N70 1.317 . S
C68 H73 0.930 . S
C69 C68 1.333 1_554 S
C69 N71 1.350 . S
C69 H95 0.931 . S
N70 Co66 2.148 . S
N70 C67 1.301 1_556 S
N70 C68 1.317 . S
N71 C67 1.328 . S
N71 C69 1.350 . S
H72 C67 0.930 . S
H73 C68 0.930 . S
C74 O75 1.224 . S
C74 O93 1.247 . S
O75 C74 1.224 . S
N76 Co66 2.128 . S
N76 C77 1.355 . S
N76 C79 1.311 . S
C77 N76 1.355 . S
C77 C78 1.363 . S
C77 H89 0.929 . S
C78 C77 1.363 . S
C78 N80 1.375 . S
C78 H96 0.931 . S
C79 N76 1.311 . S
C79 N80 1.347 . S
C79 H90 0.929 . S
N80 C78 1.375 . S
N80 C79 1.347 . S
C81 C84 1.365 . S
C81 N86 1.328 . S
C81 H87 0.929 . S
C82 C83 1.362 . S
C82 C85 1.378 . S
C82 H97 0.929 . S
C83 C82 1.362 . S
C83 C84 1.366 . S
C84 C81 1.365 . S
C84 C83 1.366 . S
C84 H98 0.930 . S
C85 C82 1.378 . S
C85 N86 1.315 . S
C85 H88 0.930 . S
N86 Co66 2.194 . S
N86 C81 1.328 . S
N86 C85 1.315 . S
H87 C81 0.929 . S
H88 C85 0.930 . S
H89 C77 0.929 . S
H90 C79 0.929 . S
O91 Co66 2.351 . S
O91 C94 1.244 . S
O92 Co66 2.155 . S
O92 C94 1.240 . S
O93 Co66 2.096 . S
O93 C74 1.247 . S
C94 O91 1.244 . S
C94 O92 1.240 . S
H95 C69 0.931 . S
H96 C78 0.931 . S
H97 C82 0.929 . S
H98 C84 0.930 . S
Co99 N103 2.148 . S
Co99 N109 2.128 . S
Co99 N119 2.194 . S
Co99 O124 2.351 . S
Co99 O125 2.155 . S
Co99 O126 2.096 . S
C100 N103 1.301 . S
C100 N104 1.328 . S
C100 H105 0.930 . S
C101 C102 1.333 . S
C101 N103 1.317 . S
C101 H106 0.930 . S
C102 C101 1.333 . S
C102 N104 1.350 . S
C102 H128 0.931 . S
N103 Co99 2.148 . S
N103 C100 1.301 . S
N103 C101 1.317 . S
N104 C100 1.328 . S
N104 C102 1.350 . S
H105 C100 0.930 . S
H106 C101 0.930 . S
C107 O108 1.224 . S
C107 O126 1.247 . S
O108 C107 1.224 . S
N109 Co99 2.128 . S
N109 C110 1.355 . S
N109 C112 1.311 1_556 S
C110 N109 1.355 . S
C110 C111 1.363 1_556 S
C110 H122 0.929 . S
C111 C110 1.363 1_554 S
C111 N113 1.375 . S
C111 H129 0.931 . S
C112 N109 1.311 1_554 S
C112 N113 1.347 . S
C112 H123 0.929 . S
N113 C111 1.375 . S
N113 C112 1.347 . S
C114 C117 1.365 . S
C114 N119 1.328 . S
C114 H120 0.929 . S
C115 C116 1.362 . S
C115 C118 1.378 . S
C115 H130 0.929 . S
C116 C115 1.362 . S
C116 C117 1.366 . S
C117 C114 1.365 . S
C117 C116 1.366 . S
C117 H131 0.930 . S
C118 C115 1.378 . S
C118 N119 1.315 . S
C118 H121 0.930 . S
N119 Co99 2.194 . S
N119 C114 1.328 . S
N119 C118 1.315 . S
H120 C114 0.929 . S
H121 C118 0.930 . S
H122 C110 0.929 . S
H123 C112 0.929 . S
O124 Co99 2.351 . S
O124 C127 1.244 . S
O125 Co99 2.155 . S
O125 C127 1.240 . S
O126 Co99 2.096 . S
O126 C107 1.247 . S
C127 O124 1.244 . S
C127 O125 1.240 . S
H128 C102 0.931 . S
H129 C111 0.931 . S
H130 C115 0.929 . S
H131 C117 0.930 . S
Co132 N136 2.148 . S
Co132 N142 2.128 . S
Co132 N152 2.194 . S
Co132 O157 2.351 . S
Co132 O158 2.155 . S
Co132 O159 2.096 . S
C133 N136 1.301 . S
C133 N137 1.328 . S
C133 H138 0.930 . S
C134 C135 1.333 . S
C134 N136 1.317 . S
C134 H139 0.930 . S
C135 C134 1.333 . S
C135 N137 1.350 . S
C135 H161 0.931 . S
N136 Co132 2.148 . S
N136 C133 1.301 . S
N136 C134 1.317 . S
N137 C133 1.328 . S
N137 C135 1.350 . S
H138 C133 0.930 . S
H139 C134 0.930 . S
C140 O141 1.224 . S
C140 O159 1.247 . S
O141 C140 1.224 . S
N142 Co132 2.128 . S
N142 C143 1.355 . S
N142 C145 1.311 . S
C143 N142 1.355 . S
C143 C144 1.363 . S
C143 H155 0.929 . S
C144 C143 1.363 . S
C144 N146 1.375 . S
C144 H162 0.931 . S
C145 N142 1.311 . S
C145 N146 1.347 . S
C145 H156 0.929 . S
N146 C144 1.375 . S
N146 C145 1.347 . S
C147 C150 1.365 . S
C147 N152 1.328 . S
C147 H153 0.929 . S
C148 C149 1.362 . S
C148 C151 1.378 . S
C148 H163 0.929 . S
C149 C148 1.362 . S
C149 C150 1.366 . S
C150 C147 1.365 . S
C150 C149 1.366 . S
C150 H164 0.930 . S
C151 C148 1.378 . S
C151 N152 1.315 . S
C151 H154 0.930 . S
N152 Co132 2.194 . S
N152 C147 1.328 . S
N152 C151 1.315 . S
H153 C147 0.929 . S
H154 C151 0.930 . S
H155 C143 0.929 . S
H156 C145 0.929 . S
O157 Co132 2.351 . S
O157 C160 1.244 . S
O158 Co132 2.155 . S
O158 C160 1.240 . S
O159 Co132 2.096 . S
O159 C140 1.247 . S
C160 O157 1.244 . S
C160 O158 1.240 . S
H161 C135 0.931 . S
H162 C144 0.931 . S
H163 C148 0.929 . S
H164 C150 0.930 . S
Co165 N169 2.148 . S
Co165 N175 2.128 . S
Co165 N185 2.194 . S
Co165 O190 2.351 . S
Co165 O191 2.155 . S
Co165 O192 2.096 . S
C166 N169 1.301 . S
C166 N170 1.328 . S
C166 H171 0.930 . S
C167 C168 1.333 . S
C167 N169 1.317 . S
C167 H172 0.930 . S
C168 C167 1.333 . S
C168 N170 1.350 . S
C168 H194 0.931 . S
N169 Co165 2.148 . S
N169 C166 1.301 . S
N169 C167 1.317 . S
N170 C166 1.328 . S
N170 C168 1.350 . S
H171 C166 0.930 . S
H172 C167 0.930 . S
C173 O174 1.224 . S
C173 O192 1.247 . S
O174 C173 1.224 . S
N175 Co165 2.128 . S
N175 C176 1.355 . S
N175 C178 1.311 . S
C176 N175 1.355 . S
C176 C177 1.363 . S
C176 H188 0.929 . S
C177 C176 1.363 . S
C177 N179 1.375 . S
C177 H195 0.931 . S
C178 N175 1.311 . S
C178 N179 1.347 . S
C178 H189 0.929 . S
N179 C177 1.375 . S
N179 C178 1.347 . S
C180 C183 1.365 . S
C180 N185 1.328 . S
C180 H186 0.929 . S
C181 C182 1.362 . S
C181 C184 1.378 . S
C181 H196 0.929 . S
C182 C181 1.362 . S
C182 C183 1.366 . S
C183 C180 1.365 . S
C183 C182 1.366 . S
C183 H197 0.930 . S
C184 C181 1.378 . S
C184 N185 1.315 . S
C184 H187 0.930 . S
N185 Co165 2.194 . S
N185 C180 1.328 . S
N185 C184 1.315 . S
H186 C180 0.929 . S
H187 C184 0.930 . S
H188 C176 0.929 . S
H189 C178 0.929 . S
O190 Co165 2.351 . S
O190 C193 1.244 . S
O191 Co165 2.155 . S
O191 C193 1.240 . S
O192 Co165 2.096 . S
O192 C173 1.247 . S
C193 O190 1.244 . S
C193 O191 1.240 . S
H194 C168 0.931 . S
H195 C177 0.931 . S
H196 C181 0.929 . S
H197 C183 0.930 . S
Co198 N202 2.148 . S
Co198 N208 2.128 . S
Co198 N218 2.194 . S
Co198 O223 2.351 . S
Co198 O224 2.155 . S
Co198 O225 2.096 . S
C199 N202 1.301 . S
C199 N203 1.328 . S
C199 H204 0.930 . S
C200 C201 1.333 . S
C200 N202 1.317 . S
C200 H205 0.930 . S
C201 C200 1.333 . S
C201 N203 1.350 . S
C201 H227 0.931 . S
N202 Co198 2.148 . S
N202 C199 1.301 . S
N202 C200 1.317 . S
N203 C199 1.328 . S
N203 C201 1.350 . S
H204 C199 0.930 . S
H205 C200 0.930 . S
C206 O207 1.224 . S
C206 O225 1.247 . S
O207 C206 1.224 . S
N208 Co198 2.128 . S
N208 C209 1.355 . S
N208 C211 1.311 . S
C209 N208 1.355 . S
C209 C210 1.363 . S
C209 H221 0.929 . S
C210 C209 1.363 . S
C210 N212 1.375 . S
C210 H228 0.931 . S
C211 N208 1.311 . S
C211 N212 1.347 . S
C211 H222 0.929 . S
N212 C210 1.375 . S
N212 C211 1.347 . S
C213 C216 1.365 . S
C213 N218 1.328 . S
C213 H219 0.929 . S
C214 C215 1.362 . S
C214 C217 1.378 . S
C214 H229 0.929 . S
C215 C214 1.362 . S
C215 C216 1.366 . S
C216 C213 1.365 . S
C216 C215 1.366 . S
C216 H230 0.930 . S
C217 C214 1.378 . S
C217 N218 1.315 . S
C217 H220 0.930 . S
N218 Co198 2.194 . S
N218 C213 1.328 . S
N218 C217 1.315 . S
H219 C213 0.929 . S
H220 C217 0.930 . S
H221 C209 0.929 . S
H222 C211 0.929 . S
O223 Co198 2.351 . S
O223 C226 1.244 . S
O224 Co198 2.155 . S
O224 C226 1.240 . S
O225 Co198 2.096 . S
O225 C206 1.247 . S
C226 O223 1.244 . S
C226 O224 1.240 . S
H227 C201 0.931 . S
H228 C210 0.931 . S
H229 C214 0.929 . S
H230 C216 0.930 . S
Co231 N235 2.148 . S
Co231 N241 2.128 . S
Co231 N251 2.194 . S
Co231 O256 2.351 . S
Co231 O257 2.155 . S
Co231 O258 2.096 . S
C232 N235 1.301 . S
C232 N236 1.328 . S
C232 H237 0.930 . S
C233 C234 1.333 . S
C233 N235 1.317 . S
C233 H238 0.930 . S
C234 C233 1.333 . S
C234 N236 1.350 . S
C234 H260 0.931 . S
N235 Co231 2.148 . S
N235 C232 1.301 . S
N235 C233 1.317 . S
N236 C232 1.328 . S
N236 C234 1.350 . S
H237 C232 0.930 . S
H238 C233 0.930 . S
C239 O240 1.224 . S
C239 O258 1.247 . S
O240 C239 1.224 . S
N241 Co231 2.128 . S
N241 C242 1.355 . S
N241 C244 1.311 . S
C242 N241 1.355 . S
C242 C243 1.363 . S
C242 H254 0.929 . S
C243 C242 1.363 . S
C243 N245 1.375 . S
C243 H261 0.931 . S
C244 N241 1.311 . S
C244 N245 1.347 . S
C244 H255 0.929 . S
N245 C243 1.375 . S
N245 C244 1.347 . S
C246 C249 1.365 . S
C246 N251 1.328 . S
C246 H252 0.929 . S
C247 C248 1.362 . S
C247 C250 1.378 . S
C247 H262 0.929 . S
C248 C247 1.362 . S
C248 C249 1.366 . S
C249 C246 1.365 . S
C249 C248 1.366 . S
C249 H263 0.930 . S
C250 C247 1.378 . S
C250 N251 1.315 . S
C250 H253 0.930 . S
N251 Co231 2.194 . S
N251 C246 1.328 . S
N251 C250 1.315 . S
H252 C246 0.929 . S
H253 C250 0.930 . S
H254 C242 0.929 . S
H255 C244 0.929 . S
O256 Co231 2.351 . S
O256 C259 1.244 . S
O257 Co231 2.155 . S
O257 C259 1.240 . S
O258 Co231 2.096 . S
O258 C239 1.247 . S
C259 O256 1.244 . S
C259 O257 1.240 . S
H260 C234 0.931 . S
H261 C243 0.931 . S
H262 C247 0.929 . S
H263 C249 0.930 . S
Co264 N268 2.148 . S
Co264 N274 2.128 . S
Co264 N284 2.194 . S
Co264 O289 2.351 . S
Co264 O290 2.155 . S
Co264 O291 2.096 . S
C265 N268 1.301 . S
C265 N269 1.328 . S
C265 H270 0.930 . S
C266 C267 1.333 . S
C266 N268 1.317 . S
C266 H271 0.930 . S
C267 C266 1.333 . S
C267 N269 1.350 . S
C267 H293 0.931 . S
N268 Co264 2.148 . S
N268 C265 1.301 . S
N268 C266 1.317 . S
N269 C265 1.328 . S
N269 C267 1.350 . S
H270 C265 0.930 . S
H271 C266 0.930 . S
C272 O273 1.224 . S
C272 O291 1.247 . S
O273 C272 1.224 . S
N274 Co264 2.128 . S
N274 C275 1.355 . S
N274 C277 1.311 . S
C275 N274 1.355 . S
C275 C276 1.363 . S
C275 H287 0.929 . S
C276 C275 1.363 . S
C276 N278 1.375 . S
C276 H294 0.931 . S
C277 N274 1.311 . S
C277 N278 1.347 . S
C277 H288 0.929 . S
N278 C276 1.375 . S
N278 C277 1.347 . S
C279 C282 1.365 . S
C279 N284 1.328 . S
C279 H285 0.929 . S
C280 C281 1.362 . S
C280 C283 1.378 . S
C280 H295 0.929 . S
C281 C280 1.362 . S
C281 C282 1.366 . S
C282 C279 1.365 . S
C282 C281 1.366 . S
C282 H296 0.930 . S
C283 C280 1.378 . S
C283 N284 1.315 . S
C283 H286 0.930 . S
N284 Co264 2.194 . S
N284 C279 1.328 . S
N284 C283 1.315 . S
H285 C279 0.929 . S
H286 C283 0.930 . S
H287 C275 0.929 . S
H288 C277 0.929 . S
O289 Co264 2.351 . S
O289 C292 1.244 . S
O290 Co264 2.155 . S
O290 C292 1.240 . S
O291 Co264 2.096 . S
O291 C272 1.247 . S
C292 O289 1.244 . S
C292 O290 1.240 . S
H293 C267 0.931 . S
H294 C276 0.931 . S
H295 C280 0.929 . S
H296 C282 0.930 . S
Co297 N301 2.148 . S
Co297 N307 2.128 . S
Co297 N317 2.194 . S
Co297 O322 2.351 . S
Co297 O323 2.155 . S
Co297 O324 2.096 . S
C298 N301 1.301 . S
C298 N302 1.328 . S
C298 H303 0.930 . S
C299 C300 1.333 . S
C299 N301 1.317 . S
C299 H304 0.930 . S
C300 C299 1.333 . S
C300 N302 1.350 . S
C300 H326 0.931 . S
N301 Co297 2.148 . S
N301 C298 1.301 . S
N301 C299 1.317 . S
N302 C298 1.328 . S
N302 C300 1.350 . S
H303 C298 0.930 . S
H304 C299 0.930 . S
C305 O306 1.224 . S
C305 O324 1.247 . S
O306 C305 1.224 . S
N307 Co297 2.128 . S
N307 C308 1.355 . S
N307 C310 1.311 . S
C308 N307 1.355 . S
C308 C309 1.363 . S
C308 H320 0.929 . S
C309 C308 1.363 . S
C309 N311 1.375 . S
C309 H327 0.931 . S
C310 N307 1.311 . S
C310 N311 1.347 . S
C310 H321 0.929 . S
N311 C309 1.375 . S
N311 C310 1.347 . S
C312 C315 1.365 . S
C312 N317 1.328 . S
C312 H318 0.929 . S
C313 C314 1.362 . S
C313 C316 1.378 . S
C313 H328 0.929 . S
C314 C313 1.362 . S
C314 C315 1.366 . S
C315 C312 1.365 . S
C315 C314 1.366 . S
C315 H329 0.930 . S
C316 C313 1.378 . S
C316 N317 1.315 . S
C316 H319 0.930 . S
N317 Co297 2.194 . S
N317 C312 1.328 . S
N317 C316 1.315 . S
H318 C312 0.929 . S
H319 C316 0.930 . S
H320 C308 0.929 . S
H321 C310 0.929 . S
O322 Co297 2.351 . S
O322 C325 1.244 . S
O323 Co297 2.155 . S
O323 C325 1.240 . S
O324 Co297 2.096 . S
O324 C305 1.247 . S
C325 O322 1.244 . S
C325 O323 1.240 . S
H326 C300 0.931 . S
H327 C309 0.931 . S
H328 C313 0.929 . S
H329 C315 0.930 . S
Co330 N334 2.148 . S
Co330 N340 2.128 . S
Co330 N350 2.194 . S
Co330 O355 2.351 . S
Co330 O356 2.155 . S
Co330 O357 2.096 . S
C331 N334 1.301 . S
C331 N335 1.328 . S
C331 H336 0.930 . S
C332 C333 1.333 . S
C332 N334 1.317 . S
C332 H337 0.930 . S
C333 C332 1.333 . S
C333 N335 1.350 . S
C333 H359 0.931 . S
N334 Co330 2.148 . S
N334 C331 1.301 . S
N334 C332 1.317 . S
N335 C331 1.328 . S
N335 C333 1.350 . S
H336 C331 0.930 . S
H337 C332 0.930 . S
C338 O339 1.224 . S
C338 O357 1.247 . S
O339 C338 1.224 . S
N340 Co330 2.128 . S
N340 C341 1.355 . S
N340 C343 1.311 . S
C341 N340 1.355 . S
C341 C342 1.363 . S
C341 H353 0.929 . S
C342 C341 1.363 . S
C342 N344 1.375 . S
C342 H360 0.931 . S
C343 N340 1.311 . S
C343 N344 1.347 . S
C343 H354 0.929 . S
N344 C342 1.375 . S
N344 C343 1.347 . S
C345 C348 1.365 . S
C345 N350 1.328 . S
C345 H351 0.929 . S
C346 C347 1.362 . S
C346 C349 1.378 . S
C346 H361 0.929 . S
C347 C346 1.362 . S
C347 C348 1.366 . S
C348 C345 1.365 . S
C348 C347 1.366 . S
C348 H362 0.930 . S
C349 C346 1.378 . S
C349 N350 1.315 . S
C349 H352 0.930 . S
N350 Co330 2.194 . S
N350 C345 1.328 . S
N350 C349 1.315 . S
H351 C345 0.929 . S
H352 C349 0.930 . S
H353 C341 0.929 . S
H354 C343 0.929 . S
O355 Co330 2.351 . S
O355 C358 1.244 . S
O356 Co330 2.155 . S
O356 C358 1.240 . S
O357 Co330 2.096 . S
O357 C338 1.247 . S
C358 O355 1.244 . S
C358 O356 1.240 . S
H359 C333 0.931 . S
H360 C342 0.931 . S
H361 C346 0.929 . S
H362 C348 0.930 . S
Co363 N367 2.148 . S
Co363 N373 2.128 . S
Co363 N383 2.194 . S
Co363 O388 2.351 . S
Co363 O389 2.155 . S
Co363 O390 2.096 . S
C364 N367 1.301 . S
C364 N368 1.328 . S
C364 H369 0.930 . S
C365 C366 1.333 . S
C365 N367 1.317 . S
C365 H370 0.930 . S
C366 C365 1.333 . S
C366 N368 1.350 . S
C366 H392 0.931 . S
N367 Co363 2.148 . S
N367 C364 1.301 . S
N367 C365 1.317 . S
N368 C364 1.328 . S
N368 C366 1.350 . S
H369 C364 0.930 . S
H370 C365 0.930 . S
C371 O372 1.224 . S
C371 O390 1.247 . S
O372 C371 1.224 . S
N373 Co363 2.128 . S
N373 C374 1.355 . S
N373 C376 1.311 . S
C374 N373 1.355 . S
C374 C375 1.363 . S
C374 H386 0.929 . S
C375 C374 1.363 . S
C375 N377 1.375 . S
C375 H393 0.931 . S
C376 N373 1.311 . S
C376 N377 1.347 . S
C376 H387 0.929 . S
N377 C375 1.375 . S
N377 C376 1.347 . S
C378 C381 1.365 . S
C378 N383 1.328 . S
C378 H384 0.929 . S
C379 C380 1.362 . S
C379 C382 1.378 . S
C379 H394 0.929 . S
C380 C379 1.362 . S
C380 C381 1.366 . S
C381 C378 1.365 . S
C381 C380 1.366 . S
C381 H395 0.930 . S
C382 C379 1.378 . S
C382 N383 1.315 . S
C382 H385 0.930 . S
N383 Co363 2.194 . S
N383 C378 1.328 . S
N383 C382 1.315 . S
H384 C378 0.929 . S
H385 C382 0.930 . S
H386 C374 0.929 . S
H387 C376 0.929 . S
O388 Co363 2.351 . S
O388 C391 1.244 . S
O389 Co363 2.155 . S
O389 C391 1.240 . S
O390 Co363 2.096 . S
O390 C371 1.247 . S
C391 O388 1.244 . S
C391 O389 1.240 . S
H392 C366 0.931 . S
H393 C375 0.931 . S
H394 C379 0.929 . S
H395 C381 0.930 . S
Co396 N400 2.148 . S
Co396 N406 2.128 . S
Co396 N416 2.194 . S
Co396 O421 2.351 . S
Co396 O422 2.155 . S
Co396 O423 2.096 . S
C397 N400 1.301 1_556 S
C397 N401 1.328 . S
C397 H402 0.930 . S
C398 C399 1.333 1_554 S
C398 N400 1.317 . S
C398 H403 0.930 . S
C399 C398 1.333 1_556 S
C399 N401 1.350 . S
C399 H425 0.931 . S
N400 Co396 2.148 . S
N400 C397 1.301 1_554 S
N400 C398 1.317 . S
N401 C397 1.328 . S
N401 C399 1.350 . S
H402 C397 0.930 . S
H403 C398 0.930 . S
C404 O405 1.224 . S
C404 O423 1.247 . S
O405 C404 1.224 . S
N406 Co396 2.128 . S
N406 C407 1.355 . S
N406 C409 1.311 . S
C407 N406 1.355 . S
C407 C408 1.363 . S
C407 H419 0.929 . S
C408 C407 1.363 . S
C408 N410 1.375 . S
C408 H426 0.931 . S
C409 N406 1.311 . S
C409 N410 1.347 . S
C409 H420 0.929 . S
N410 C408 1.375 . S
N410 C409 1.347 . S
C411 C414 1.365 . S
C411 N416 1.328 . S
C411 H417 0.929 . S
C412 C413 1.362 . S
C412 C415 1.378 . S
C412 H427 0.929 . S
C413 C412 1.362 . S
C413 C414 1.366 . S
C414 C411 1.365 . S
C414 C413 1.366 . S
C414 H428 0.930 . S
C415 C412 1.378 . S
C415 N416 1.315 . S
C415 H418 0.930 . S
N416 Co396 2.194 . S
N416 C411 1.328 . S
N416 C415 1.315 . S
H417 C411 0.929 . S
H418 C415 0.930 . S
H419 C407 0.929 . S
H420 C409 0.929 . S
O421 Co396 2.351 . S
O421 C424 1.244 . S
O422 Co396 2.155 . S
O422 C424 1.240 . S
O423 Co396 2.096 . S
O423 C404 1.247 . S
C424 O421 1.244 . S
C424 O422 1.240 . S
H425 C399 0.931 . S
H426 C408 0.931 . S
H427 C412 0.929 . S
H428 C414 0.930 . S
Co429 N433 2.148 . S
Co429 N439 2.128 . S
Co429 N449 2.194 . S
Co429 O454 2.351 . S
Co429 O455 2.155 . S
Co429 O456 2.096 . S
C430 N433 1.301 . S
C430 N434 1.328 . S
C430 H435 0.930 . S
C431 C432 1.333 . S
C431 N433 1.317 . S
C431 H436 0.930 . S
C432 C431 1.333 . S
C432 N434 1.350 . S
C432 H458 0.931 . S
N433 Co429 2.148 . S
N433 C430 1.301 . S
N433 C431 1.317 . S
N434 C430 1.328 . S
N434 C432 1.350 . S
H435 C430 0.930 . S
H436 C431 0.930 . S
C437 O438 1.224 . S
C437 O456 1.247 . S
O438 C437 1.224 . S
N439 Co429 2.128 . S
N439 C440 1.355 . S
N439 C442 1.311 1_554 S
C440 N439 1.355 . S
C440 C441 1.363 1_554 S
C440 H452 0.929 . S
C441 C440 1.363 1_556 S
C441 N443 1.375 . S
C441 H459 0.931 . S
C442 N439 1.311 1_556 S
C442 N443 1.347 . S
C442 H453 0.929 . S
N443 C441 1.375 . S
N443 C442 1.347 . S
C444 C447 1.365 . S
C444 N449 1.328 . S
C444 H450 0.929 . S
C445 C446 1.362 . S
C445 C448 1.378 . S
C445 H460 0.929 . S
C446 C445 1.362 . S
C446 C447 1.366 . S
C447 C444 1.365 . S
C447 C446 1.366 . S
C447 H461 0.930 . S
C448 C445 1.378 . S
C448 N449 1.315 . S
C448 H451 0.930 . S
N449 Co429 2.194 . S
N449 C444 1.328 . S
N449 C448 1.315 . S
H450 C444 0.929 . S
H451 C448 0.930 . S
H452 C440 0.929 . S
H453 C442 0.929 . S
O454 Co429 2.351 . S
O454 C457 1.244 . S
O455 Co429 2.155 . S
O455 C457 1.240 . S
O456 Co429 2.096 . S
O456 C437 1.247 . S
C457 O454 1.244 . S
C457 O455 1.240 . S
H458 C432 0.931 . S
H459 C441 0.931 . S
H460 C445 0.929 . S
H461 C447 0.930 . S
Co462 N466 2.148 . S
Co462 N472 2.128 . S
Co462 N482 2.194 . S
Co462 O487 2.351 . S
Co462 O488 2.155 . S
Co462 O489 2.096 . S
C463 N466 1.301 1_554 S
C463 N467 1.328 . S
C463 H468 0.930 . S
C464 C465 1.333 1_556 S
C464 N466 1.317 . S
C464 H469 0.930 . S
C465 C464 1.333 1_554 S
C465 N467 1.350 . S
C465 H491 0.931 . S
N466 Co462 2.148 . S
N466 C463 1.301 1_556 S
N466 C464 1.317 . S
N467 C463 1.328 . S
N467 C465 1.350 . S
H468 C463 0.930 . S
H469 C464 0.930 . S
C470 O471 1.224 . S
C470 O489 1.247 . S
O471 C470 1.224 . S
N472 Co462 2.128 . S
N472 C473 1.355 . S
N472 C475 1.311 . S
C473 N472 1.355 . S
C473 C474 1.363 . S
C473 H485 0.929 . S
C474 C473 1.363 . S
C474 N476 1.375 . S
C474 H492 0.931 . S
C475 N472 1.311 . S
C475 N476 1.347 . S
C475 H486 0.929 . S
N476 C474 1.375 . S
N476 C475 1.347 . S
C477 C480 1.365 . S
C477 N482 1.328 . S
C477 H483 0.929 . S
C478 C479 1.362 . S
C478 C481 1.378 . S
C478 H493 0.929 . S
C479 C478 1.362 . S
C479 C480 1.366 . S
C480 C477 1.365 . S
C480 C479 1.366 . S
C480 H494 0.930 . S
C481 C478 1.378 . S
C481 N482 1.315 . S
C481 H484 0.930 . S
N482 Co462 2.194 . S
N482 C477 1.328 . S
N482 C481 1.315 . S
H483 C477 0.929 . S
H484 C481 0.930 . S
H485 C473 0.929 . S
H486 C475 0.929 . S
O487 Co462 2.351 . S
O487 C490 1.244 . S
O488 Co462 2.155 . S
O488 C490 1.240 . S
O489 Co462 2.096 . S
O489 C470 1.247 . S
C490 O487 1.244 . S
C490 O488 1.240 . S
H491 C465 0.931 . S
H492 C474 0.931 . S
H493 C478 0.929 . S
H494 C480 0.930 . S
Co495 N499 2.148 . S
Co495 N505 2.128 . S
Co495 N515 2.194 . S
Co495 O520 2.351 . S
Co495 O521 2.155 . S
Co495 O522 2.096 . S
C496 N499 1.301 . S
C496 N500 1.328 . S
C496 H501 0.930 . S
C497 C498 1.333 . S
C497 N499 1.317 . S
C497 H502 0.930 . S
C498 C497 1.333 . S
C498 N500 1.350 . S
C498 H524 0.931 . S
N499 Co495 2.148 . S
N499 C496 1.301 . S
N499 C497 1.317 . S
N500 C496 1.328 . S
N500 C498 1.350 . S
H501 C496 0.930 . S
H502 C497 0.930 . S
C503 O504 1.224 . S
C503 O522 1.247 . S
O504 C503 1.224 . S
N505 Co495 2.128 . S
N505 C506 1.355 . S
N505 C508 1.311 1_556 S
C506 N505 1.355 . S
C506 C507 1.363 1_556 S
C506 H518 0.929 . S
C507 C506 1.363 1_554 S
C507 N509 1.375 . S
C507 H525 0.931 . S
C508 N505 1.311 1_554 S
C508 N509 1.347 . S
C508 H519 0.929 . S
N509 C507 1.375 . S
N509 C508 1.347 . S
C510 C513 1.365 . S
C510 N515 1.328 . S
C510 H516 0.929 . S
C511 C512 1.362 . S
C511 C514 1.378 . S
C511 H526 0.929 . S
C512 C511 1.362 . S
C512 C513 1.366 . S
C513 C510 1.365 . S
C513 C512 1.366 . S
C513 H527 0.930 . S
C514 C511 1.378 . S
C514 N515 1.315 . S
C514 H517 0.930 . S
N515 Co495 2.194 . S
N515 C510 1.328 . S
N515 C514 1.315 . S
H516 C510 0.929 . S
H517 C514 0.930 . S
H518 C506 0.929 . S
H519 C508 0.929 . S
O520 Co495 2.351 . S
O520 C523 1.244 . S
O521 Co495 2.155 . S
O521 C523 1.240 . S
O522 Co495 2.096 . S
O522 C503 1.247 . S
C523 O520 1.244 . S
C523 O521 1.240 . S
H524 C498 0.931 . S
H525 C507 0.931 . S
H526 C511 0.929 . S
H527 C513 0.930 . S
C528 C529 1.349 . S
C528 C530 1.327 . S
C528 H553 0.950 . S
C529 C528 1.349 . S
C529 C545 1.349 . S
C530 C528 1.327 . S
C530 C549 1.429 . S
C530 H554 0.950 . S
C531 C548 1.574 . S
C531 C550 1.368 . S
C531 H555 0.949 . S
H532 C536 0.949 . S
C533 C534 1.349 . S
C533 C535 1.327 . S
C533 H556 0.950 . S
C534 C533 1.349 . S
C534 C546 1.349 . S
C535 C533 1.327 . S
C535 C551 1.429 . S
C535 H557 0.950 . S
C536 H532 0.949 . S
C536 C544 1.574 . S
C536 C552 1.368 . S
H537 C545 0.950 . S
H538 C543 0.950 . S
H539 C544 0.949 . S
H540 C546 0.950 . S
H541 C547 0.950 . S
H542 C548 0.949 . S
C543 H538 0.950 . S
C543 C545 1.327 . S
C543 C549 1.429 . S
C544 C536 1.574 . S
C544 H539 0.949 . S
C544 C550 1.368 . S
C545 C529 1.349 . S
C545 H537 0.950 . S
C545 C543 1.327 . S
C546 C534 1.349 . S
C546 H540 0.950 . S
C546 C547 1.327 . S
C547 H541 0.950 . S
C547 C546 1.327 . S
C547 C551 1.429 . S
C548 C531 1.574 . S
C548 H542 0.949 . S
C548 C552 1.368 . S
C549 C530 1.429 . S
C549 C543 1.429 . S
C549 C550 1.523 . S
C550 C531 1.368 . S
C550 C544 1.368 . S
C550 C549 1.523 . S
C551 C535 1.429 . S
C551 C547 1.429 . S
C551 C552 1.523 . S
C552 C536 1.368 . S
C552 C548 1.368 . S
C552 C551 1.523 . S
H553 C528 0.950 . S
H554 C530 0.950 . S
H555 C531 0.949 . S
H556 C533 0.950 . S
H557 C535 0.950 . S
C558 C559 1.349 . S
C558 C560 1.327 . S
C558 H583 0.950 . S
C559 C558 1.349 . S
C559 C575 1.349 . S
C560 C558 1.327 . S
C560 C579 1.429 . S
C560 H584 0.950 . S
C561 C578 1.574 1_455 S
C561 C580 1.368 . S
C561 H585 0.949 . S
H562 C566 0.949 . S
C563 C564 1.349 . S
C563 C565 1.327 . S
C563 H586 0.950 . S
C564 C563 1.349 . S
C564 C576 1.349 . S
C565 C563 1.327 . S
C565 C581 1.429 . S
C565 H587 0.950 . S
C566 H562 0.949 . S
C566 C574 1.574 1_655 S
C566 C582 1.368 . S
H567 C575 0.950 . S
H568 C573 0.950 . S
H569 C574 0.949 . S
H570 C576 0.950 . S
H571 C577 0.950 . S
H572 C578 0.949 . S
C573 H568 0.950 . S
C573 C575 1.327 . S
C573 C579 1.429 . S
C574 C566 1.574 1_455 S
C574 H569 0.949 . S
C574 C580 1.368 . S
C575 C559 1.349 . S
C575 H567 0.950 . S
C575 C573 1.327 . S
C576 C564 1.349 . S
C576 H570 0.950 . S
C576 C577 1.327 . S
C577 H571 0.950 . S
C577 C576 1.327 . S
C577 C581 1.429 . S
C578 C561 1.574 1_655 S
C578 H572 0.949 . S
C578 C582 1.368 . S
C579 C560 1.429 . S
C579 C573 1.429 . S
C579 C580 1.523 . S
C580 C561 1.368 . S
C580 C574 1.368 . S
C580 C579 1.523 . S
C581 C565 1.429 . S
C581 C577 1.429 . S
C581 C582 1.523 . S
C582 C566 1.368 . S
C582 C578 1.368 . S
C582 C581 1.523 . S
H583 C558 0.950 . S
H584 C560 0.950 . S
H585 C561 0.949 . S
H586 C563 0.950 . S
H587 C565 0.950 . S
C588 C589 1.349 . S
C588 C590 1.327 . S
C588 H613 0.950 . S
C589 C588 1.349 . S
C589 C605 1.349 . S
C590 C588 1.327 . S
C590 C609 1.429 . S
C590 H614 0.950 1_556 S
C591 C608 1.574 . S
C591 C610 1.368 . S
C591 H615 0.949 . S
H592 C596 0.949 . S
C593 C594 1.349 . S
C593 C595 1.327 . S
C593 H616 0.950 . S
C594 C593 1.349 . S
C594 C606 1.349 . S
C595 C593 1.327 . S
C595 C611 1.429 . S
C595 H617 0.950 1_554 S
C596 H592 0.949 . S
C596 C604 1.574 . S
C596 C612 1.368 . S
H597 C605 0.950 . S
H598 C603 0.950 . S
H599 C604 0.949 . S
H600 C606 0.950 . S
H601 C607 0.950 . S
H602 C608 0.949 . S
C603 H598 0.950 . S
C603 C605 1.327 . S
C603 C609 1.429 . S
C604 C596 1.574 . S
C604 H599 0.949 . S
C604 C610 1.368 1_554 S
C605 C589 1.349 . S
C605 H597 0.950 . S
C605 C603 1.327 . S
C606 C594 1.349 . S
C606 H600 0.950 . S
C606 C607 1.327 . S
C607 H601 0.950 . S
C607 C606 1.327 . S
C607 C611 1.429 . S
C608 C591 1.574 . S
C608 H602 0.949 . S
C608 C612 1.368 1_556 S
C609 C590 1.429 . S
C609 C603 1.429 . S
C609 C610 1.523 . S
C610 C591 1.368 . S
C610 C604 1.368 1_556 S
C610 C609 1.523 . S
C611 C595 1.429 . S
C611 C607 1.429 . S
C611 C612 1.523 . S
C612 C596 1.368 . S
C612 C608 1.368 1_554 S
C612 C611 1.523 . S
H613 C588 0.950 . S
H614 C590 0.950 1_554 S
H615 C591 0.949 . S
H616 C593 0.950 . S
H617 C595 0.950 1_556 S
C618 C619 1.349 . S
C618 C620 1.327 1_556 S
C618 H643 0.950 1_556 S
C619 C618 1.349 . S
C619 C635 1.349 . S
C620 C618 1.327 1_554 S
C620 C639 1.429 1_554 S
C620 H644 0.950 . S
C621 C638 1.574 1_655 S
C621 C640 1.368 . S
C621 H645 0.949 . S
H622 C626 0.949 . S
C623 C624 1.349 . S
C623 C625 1.327 1_554 S
C623 H646 0.950 1_554 S
C624 C623 1.349 . S
C624 C636 1.349 . S
C625 C623 1.327 1_556 S
C625 C641 1.429 1_556 S
C625 H647 0.950 . S
C626 H622 0.949 . S
C626 C634 1.574 1_455 S
C626 C642 1.368 . S
H627 C635 0.950 . S
H628 C633 0.950 . S
H629 C634 0.949 . S
H630 C636 0.950 . S
H631 C637 0.950 . S
H632 C638 0.949 . S
C633 H628 0.950 . S
C633 C635 1.327 . S
C633 C639 1.429 . S
C634 C626 1.574 1_655 S
C634 H629 0.949 . S
C634 C640 1.368 1_554 S
C635 C619 1.349 . S
C635 H627 0.950 . S
C635 C633 1.327 . S
C636 C624 1.349 . S
C636 H630 0.950 . S
C636 C637 1.327 . S
C637 H631 0.950 . S
C637 C636 1.327 . S
C637 C641 1.429 . S
C638 C621 1.574 1_455 S
C638 H632 0.949 . S
C638 C642 1.368 1_556 S
C639 C620 1.429 1_556 S
C639 C633 1.429 . S
C639 C640 1.523 . S
C640 C621 1.368 . S
C640 C634 1.368 1_556 S
C640 C639 1.523 . S
C641 C625 1.429 1_554 S
C641 C637 1.429 . S
C641 C642 1.523 . S
C642 C626 1.368 . S
C642 C638 1.368 1_554 S
C642 C641 1.523 . S
H643 C618 0.950 1_554 S
H644 C620 0.950 . S
H645 C621 0.949 . S
H646 C623 0.950 1_556 S
H647 C625 0.950 . S
C648 C649 1.349 . S
C648 C650 1.327 . S
C648 H673 0.950 . S
C649 C648 1.349 . S
C649 C665 1.349 . S
C650 C648 1.327 . S
C650 C669 1.429 . S
C650 H674 0.950 . S
C651 C668 1.574 . S
C651 C670 1.368 . S
C651 H675 0.949 . S
H652 C656 0.949 . S
C653 C654 1.349 . S
C653 C655 1.327 . S
C653 H676 0.950 . S
C654 C653 1.349 . S
C654 C666 1.349 . S
C655 C653 1.327 . S
C655 C671 1.429 . S
C655 H677 0.950 . S
C656 H652 0.949 . S
C656 C664 1.574 . S
C656 C672 1.368 . S
H657 C665 0.950 . S
H658 C663 0.950 . S
H659 C664 0.949 . S
H660 C666 0.950 . S
H661 C667 0.950 . S
H662 C668 0.949 . S
C663 H658 0.950 . S
C663 C665 1.327 . S
C663 C669 1.429 . S
C664 C656 1.574 . S
C664 H659 0.949 . S
C664 C670 1.368 . S
C665 C649 1.349 . S
C665 H657 0.950 . S
C665 C663 1.327 . S
C666 C654 1.349 . S
C666 H660 0.950 . S
C666 C667 1.327 . S
C667 H661 0.950 . S
C667 C666 1.327 . S
C667 C671 1.429 . S
C668 C651 1.574 . S
C668 H662 0.949 . S
C668 C672 1.368 . S
C669 C650 1.429 . S
C669 C663 1.429 . S
C669 C670 1.523 . S
C670 C651 1.368 . S
C670 C664 1.368 . S
C670 C669 1.523 . S
C671 C655 1.429 . S
C671 C667 1.429 . S
C671 C672 1.523 . S
C672 C656 1.368 . S
C672 C668 1.368 . S
C672 C671 1.523 . S
H673 C648 0.950 . S
H674 C650 0.950 . S
H675 C651 0.949 . S
H676 C653 0.950 . S
H677 C655 0.950 . S
C678 C679 1.349 . S
C678 C680 1.327 . S
C678 H703 0.950 . S
C679 C678 1.349 . S
C679 C695 1.349 . S
C680 C678 1.327 . S
C680 C699 1.429 . S
C680 H704 0.950 . S
C681 C698 1.574 1_455 S
C681 C700 1.368 . S
C681 H705 0.949 . S
H682 C686 0.949 . S
C683 C684 1.349 . S
C683 C685 1.327 . S
C683 H706 0.950 . S
C684 C683 1.349 . S
C684 C696 1.349 . S
C685 C683 1.327 . S
C685 C701 1.429 . S
C685 H707 0.950 . S
C686 H682 0.949 . S
C686 C694 1.574 1_655 S
C686 C702 1.368 . S
H687 C695 0.950 . S
H688 C693 0.950 . S
H689 C694 0.949 . S
H690 C696 0.950 . S
H691 C697 0.950 . S
H692 C698 0.949 . S
C693 H688 0.950 . S
C693 C695 1.327 . S
C693 C699 1.429 . S
C694 C686 1.574 1_455 S
C694 H689 0.949 . S
C694 C700 1.368 . S
C695 C679 1.349 . S
C695 H687 0.950 . S
C695 C693 1.327 . S
C696 C684 1.349 . S
C696 H690 0.950 . S
C696 C697 1.327 . S
C697 H691 0.950 . S
C697 C696 1.327 . S
C697 C701 1.429 . S
C698 C681 1.574 1_655 S
C698 H692 0.949 . S
C698 C702 1.368 . S
C699 C680 1.429 . S
C699 C693 1.429 . S
C699 C700 1.523 . S
C700 C681 1.368 . S
C700 C694 1.368 . S
C700 C699 1.523 . S
C701 C685 1.429 . S
C701 C697 1.429 . S
C701 C702 1.523 . S
C702 C686 1.368 . S
C702 C698 1.368 . S
C702 C701 1.523 . S
H703 C678 0.950 . S
H704 C680 0.950 . S
H705 C681 0.949 . S
H706 C683 0.950 . S
H707 C685 0.950 . S
C708 C709 1.349 . S
C708 C710 1.329 . S
C708 H733 0.950 1_554 S
C709 C708 1.349 . S
C709 C725 1.349 . S
C710 C708 1.329 . S
C710 C729 1.432 . S
C710 H734 0.945 1_554 S
C711 C728 1.574 . S
C711 C730 1.368 . S
C711 H735 0.949 . S
H712 C716 0.949 . S
C713 C714 1.349 . S
C713 C715 1.329 . S
C713 H736 0.950 1_556 S
C714 C713 1.349 . S
C714 C726 1.349 . S
C715 C713 1.329 . S
C715 C731 1.432 . S
C715 H737 0.945 1_556 S
C716 H712 0.949 . S
C716 C724 1.574 . S
C716 C732 1.368 . S
H717 C725 0.950 . S
H718 C723 0.950 . S
H719 C724 0.949 . S
H720 C726 0.950 . S
H721 C727 0.950 . S
H722 C728 0.949 . S
C723 H718 0.950 . S
C723 C725 1.327 . S
C723 C729 1.429 . S
C724 C716 1.574 . S
C724 H719 0.949 . S
C724 C730 1.368 1_556 S
C725 C709 1.349 . S
C725 H717 0.950 . S
C725 C723 1.327 . S
C726 C714 1.349 . S
C726 H720 0.950 . S
C726 C727 1.327 . S
C727 H721 0.950 . S
C727 C726 1.327 . S
C727 C731 1.429 . S
C728 C711 1.574 . S
C728 H722 0.949 . S
C728 C732 1.368 1_554 S
C729 C710 1.432 . S
C729 C723 1.429 . S
C729 C730 1.523 . S
C730 C711 1.368 . S
C730 C724 1.368 1_554 S
C730 C729 1.523 . S
C731 C715 1.432 . S
C731 C727 1.429 . S
C731 C732 1.523 . S
C732 C716 1.368 . S
C732 C728 1.368 1_556 S
C732 C731 1.523 . S
H733 C708 0.950 1_556 S
H734 C710 0.945 1_556 S
H735 C711 0.949 . S
H736 C713 0.950 1_554 S
H737 C715 0.945 1_554 S
C738 C739 1.349 . S
C738 C740 1.327 . S
C738 H763 0.950 . S
C739 C738 1.349 . S
C739 C755 1.349 . S
C740 C738 1.327 . S
C740 C759 1.429 . S
C740 H764 0.950 . S
C741 C758 1.574 1_565 S
C741 C760 1.368 . S
C741 H765 0.949 . S
H742 C746 0.949 . S
C743 C744 1.349 . S
C743 C745 1.327 . S
C743 H766 0.950 . S
C744 C743 1.349 . S
C744 C756 1.349 . S
C745 C743 1.327 . S
C745 C761 1.429 . S
C745 H767 0.950 . S
C746 H742 0.949 . S
C746 C754 1.574 1_545 S
C746 C762 1.368 . S
H747 C755 0.950 . S
H748 C753 0.950 . S
H749 C754 0.949 . S
H750 C756 0.950 . S
H751 C757 0.950 . S
H752 C758 0.949 . S
C753 H748 0.950 . S
C753 C755 1.327 . S
C753 C759 1.429 . S
C754 C746 1.574 1_565 S
C754 H749 0.949 . S
C754 C760 1.368 . S
C755 C739 1.349 . S
C755 H747 0.950 . S
C755 C753 1.327 . S
C756 C744 1.349 . S
C756 H750 0.950 . S
C756 C757 1.327 . S
C757 H751 0.950 . S
C757 C756 1.327 . S
C757 C761 1.429 . S
C758 C741 1.574 1_545 S
C758 H752 0.949 . S
C758 C762 1.368 . S
C759 C740 1.429 . S
C759 C753 1.429 . S
C759 C760 1.523 . S
C760 C741 1.368 . S
C760 C754 1.368 . S
C760 C759 1.523 . S
C761 C745 1.429 . S
C761 C757 1.429 . S
C761 C762 1.523 . S
C762 C746 1.368 . S
C762 C758 1.368 . S
C762 C761 1.523 . S
H763 C738 0.950 . S
H764 C740 0.950 . S
H765 C741 0.949 . S
H766 C743 0.950 . S
H767 C745 0.950 . S
C768 C769 1.349 . S
C768 C770 1.327 . S
C768 H793 0.950 . S
C769 C768 1.349 . S
C769 C785 1.349 . S
C770 C768 1.327 . S
C770 C789 1.429 . S
C770 H794 0.950 . S
C771 C788 1.574 . S
C771 C790 1.368 . S
C771 H795 0.949 . S
H772 C776 0.949 . S
C773 C774 1.349 . S
C773 C775 1.327 . S
C773 H796 0.950 . S
C774 C773 1.349 . S
C774 C786 1.349 . S
C775 C773 1.327 . S
C775 C791 1.429 . S
C775 H797 0.950 . S
C776 H772 0.949 . S
C776 C784 1.574 . S
C776 C792 1.368 . S
H777 C785 0.950 . S
H778 C783 0.950 . S
H779 C784 0.949 . S
H780 C786 0.950 . S
H781 C787 0.950 . S
H782 C788 0.949 . S
C783 H778 0.950 . S
C783 C785 1.327 . S
C783 C789 1.429 . S
C784 C776 1.574 . S
C784 H779 0.949 . S
C784 C790 1.368 . S
C785 C769 1.349 . S
C785 H777 0.950 . S
C785 C783 1.327 . S
C786 C774 1.349 . S
C786 H780 0.950 . S
C786 C787 1.327 . S
C787 H781 0.950 . S
C787 C786 1.327 . S
C787 C791 1.429 . S
C788 C771 1.574 . S
C788 H782 0.949 . S
C788 C792 1.368 . S
C789 C770 1.429 . S
C789 C783 1.429 . S
C789 C790 1.523 . S
C790 C771 1.368 . S
C790 C784 1.368 . S
C790 C789 1.523 . S
C791 C775 1.429 . S
C791 C787 1.429 . S
C791 C792 1.523 . S
C792 C776 1.368 . S
C792 C788 1.368 . S
C792 C791 1.523 . S
H793 C768 0.950 . S
H794 C770 0.950 . S
H795 C771 0.949 . S
H796 C773 0.950 . S
H797 C775 0.950 . S
C798 C799 1.349 . S
C798 C800 1.327 . S
C798 H823 0.950 . S
C799 C798 1.349 . S
C799 C815 1.349 . S
C800 C798 1.327 . S
C800 C819 1.429 . S
C800 H824 0.950 . S
C801 C818 1.574 1_655 S
C801 C820 1.368 1_545 S
C801 H825 0.949 . S
H802 C806 0.949 . S
C803 C804 1.349 . S
C803 C805 1.327 . S
C803 H826 0.950 . S
C804 C803 1.349 . S
C804 C816 1.349 . S
C805 C803 1.327 . S
C805 C821 1.429 . S
C805 H827 0.950 . S
C806 H802 0.949 . S
C806 C814 1.574 1_455 S
C806 C822 1.368 1_565 S
H807 C815 0.950 . S
H808 C813 0.950 . S
H809 C814 0.949 . S
H810 C816 0.950 . S
H811 C817 0.950 . S
H812 C818 0.949 . S
C813 H808 0.950 . S
C813 C815 1.327 . S
C813 C819 1.429 . S
C814 C806 1.574 1_655 S
C814 H809 0.949 . S
C814 C820 1.368 . S
C815 C799 1.349 . S
C815 H807 0.950 . S
C815 C813 1.327 . S
C816 C804 1.349 . S
C816 H810 0.950 . S
C816 C817 1.327 . S
C817 H811 0.950 . S
C817 C816 1.327 . S
C817 C821 1.429 . S
C818 C801 1.574 1_455 S
C818 H812 0.949 . S
C818 C822 1.368 . S
C819 C800 1.429 . S
C819 C813 1.429 . S
C819 C820 1.523 . S
C820 C801 1.368 1_565 S
C820 C814 1.368 . S
C820 C819 1.523 . S
C821 C805 1.429 . S
C821 C817 1.429 . S
C821 C822 1.523 . S
C822 C806 1.368 1_545 S
C822 C818 1.368 . S
C822 C821 1.523 . S
H823 C798 0.950 . S
H824 C800 0.950 . S
H825 C801 0.949 . S
H826 C803 0.950 . S
H827 C805 0.950 . S
C828 C829 1.349 . S
C828 C830 1.327 . S
C828 H853 0.950 . S
C829 C828 1.349 . S
C829 C845 1.349 . S
C830 C828 1.327 . S
C830 C849 1.429 . S
C830 H854 0.950 . S
C831 C848 1.574 1_545 S
C831 C850 1.368 . S
C831 H855 0.949 . S
H832 C836 0.949 . S
C833 C834 1.349 . S
C833 C835 1.327 . S
C833 H856 0.950 . S
C834 C833 1.349 . S
C834 C846 1.349 . S
C835 C833 1.327 . S
C835 C851 1.429 . S
C835 H857 0.950 . S
C836 H832 0.949 . S
C836 C844 1.574 1_565 S
C836 C852 1.368 . S
H837 C845 0.950 . S
H838 C843 0.950 . S
H839 C844 0.949 . S
H840 C846 0.950 . S
H841 C847 0.950 . S
H842 C848 0.949 . S
C843 H838 0.950 . S
C843 C845 1.327 . S
C843 C849 1.429 . S
C844 C836 1.574 1_545 S
C844 H839 0.949 . S
C844 C850 1.368 . S
C845 C829 1.349 . S
C845 H837 0.950 . S
C845 C843 1.327 . S
C846 C834 1.349 . S
C846 H840 0.950 . S
C846 C847 1.327 . S
C847 H841 0.950 . S
C847 C846 1.327 . S
C847 C851 1.429 . S
C848 C831 1.574 1_565 S
C848 H842 0.949 . S
C848 C852 1.368 . S
C849 C830 1.429 . S
C849 C843 1.429 . S
C849 C850 1.523 . S
C850 C831 1.368 . S
C850 C844 1.368 . S
C850 C849 1.523 . S
C851 C835 1.429 . S
C851 C847 1.429 . S
C851 C852 1.523 . S
C852 C836 1.368 . S
C852 C848 1.368 . S
C852 C851 1.523 . S
H853 C828 0.950 . S
H854 C830 0.950 . S
H855 C831 0.949 . S
H856 C833 0.950 . S
H857 C835 0.950 . S
C858 C859 1.349 . S
C858 C860 1.327 . S
C858 H883 0.950 . S
C859 C858 1.349 . S
C859 C875 1.349 . S
C860 C858 1.327 . S
C860 C879 1.429 . S
C860 H884 0.950 . S
C861 C878 1.574 . S
C861 C880 1.368 . S
C861 H885 0.949 . S
H862 C866 0.949 . S
C863 C864 1.349 . S
C863 C865 1.327 . S
C863 H886 0.950 . S
C864 C863 1.349 . S
C864 C876 1.349 . S
C865 C863 1.327 . S
C865 C881 1.429 . S
C865 H887 0.950 . S
C866 H862 0.949 . S
C866 C874 1.574 . S
C866 C882 1.368 . S
H867 C875 0.950 . S
H868 C873 0.950 . S
H869 C874 0.949 . S
H870 C876 0.950 . S
H871 C877 0.950 . S
H872 C878 0.949 . S
C873 H868 0.950 . S
C873 C875 1.327 . S
C873 C879 1.429 . S
C874 C866 1.574 . S
C874 H869 0.949 . S
C874 C880 1.368 . S
C875 C859 1.349 . S
C875 H867 0.950 . S
C875 C873 1.327 . S
C876 C864 1.349 . S
C876 H870 0.950 . S
C876 C877 1.327 . S
C877 H871 0.950 . S
C877 C876 1.327 . S
C877 C881 1.429 . S
C878 C861 1.574 . S
C878 H872 0.949 . S
C878 C882 1.368 . S
C879 C860 1.429 . S
C879 C873 1.429 . S
C879 C880 1.523 . S
C880 C861 1.368 . S
C880 C874 1.368 . S
C880 C879 1.523 . S
C881 C865 1.429 . S
C881 C877 1.429 . S
C881 C882 1.523 . S
C882 C866 1.368 . S
C882 C878 1.368 . S
C882 C881 1.523 . S
H883 C858 0.950 . S
H884 C860 0.950 . S
H885 C861 0.949 . S
H886 C863 0.950 . S
H887 C865 0.950 . S
C888 C889 1.349 . S
C888 C890 1.327 . S
C888 H913 0.950 . S
C889 C888 1.349 . S
C889 C905 1.349 . S
C890 C888 1.327 . S
C890 C909 1.429 . S
C890 H914 0.950 . S
C891 C908 1.574 . S
C891 C910 1.368 . S
C891 H915 0.949 . S
H892 C896 0.949 . S
C893 C894 1.349 . S
C893 C895 1.327 . S
C893 H916 0.950 . S
C894 C893 1.349 . S
C894 C906 1.349 . S
C895 C893 1.327 . S
C895 C911 1.429 . S
C895 H917 0.950 . S
C896 H892 0.949 . S
C896 C904 1.574 . S
C896 C912 1.368 . S
H897 C905 0.950 . S
H898 C903 0.950 . S
H899 C904 0.949 . S
H900 C906 0.950 . S
H901 C907 0.950 . S
H902 C908 0.949 . S
C903 H898 0.950 . S
C903 C905 1.327 . S
C903 C909 1.429 . S
C904 C896 1.574 . S
C904 H899 0.949 . S
C904 C910 1.368 . S
C905 C889 1.349 . S
C905 H897 0.950 . S
C905 C903 1.327 . S
C906 C894 1.349 . S
C906 H900 0.950 . S
C906 C907 1.327 . S
C907 H901 0.950 . S
C907 C906 1.327 . S
C907 C911 1.429 . S
C908 C891 1.574 . S
C908 H902 0.949 . S
C908 C912 1.368 . S
C909 C890 1.429 . S
C909 C903 1.429 . S
C909 C910 1.523 . S
C910 C891 1.368 . S
C910 C904 1.368 . S
C910 C909 1.523 . S
C911 C895 1.429 . S
C911 C907 1.429 . S
C911 C912 1.523 . S
C912 C896 1.368 . S
C912 C908 1.368 . S
C912 C911 1.523 . S
H913 C888 0.950 . S
H914 C890 0.950 . S
H915 C891 0.949 . S
H916 C893 0.950 . S
H917 C895 0.950 . S
C918 C919 1.349 . S
C918 C920 1.327 . S
C918 H943 0.950 . S
C919 C918 1.349 . S
C919 C935 1.349 . S
C920 C918 1.327 . S
C920 C939 1.429 . S
C920 H944 0.950 . S
C921 C938 1.574 . S
C921 C940 1.368 . S
C921 H945 0.949 . S
H922 C926 0.949 . S
C923 C924 1.349 . S
C923 C925 1.327 . S
C923 H946 0.950 . S
C924 C923 1.349 . S
C924 C936 1.349 . S
C925 C923 1.327 . S
C925 C941 1.429 . S
C925 H947 0.950 . S
C926 H922 0.949 . S
C926 C934 1.574 . S
C926 C942 1.368 . S
H927 C935 0.950 . S
H928 C933 0.950 . S
H929 C934 0.949 . S
H930 C936 0.950 . S
H931 C937 0.950 . S
H932 C938 0.949 . S
C933 H928 0.950 . S
C933 C935 1.327 . S
C933 C939 1.429 . S
C934 C926 1.574 . S
C934 H929 0.949 . S
C934 C940 1.368 . S
C935 C919 1.349 . S
C935 H927 0.950 . S
C935 C933 1.327 . S
C936 C924 1.349 . S
C936 H930 0.950 . S
C936 C937 1.327 . S
C937 H931 0.950 . S
C937 C936 1.327 . S
C937 C941 1.429 . S
C938 C921 1.574 . S
C938 H932 0.949 . S
C938 C942 1.368 . S
C939 C920 1.429 . S
C939 C933 1.429 . S
C939 C940 1.523 . S
C940 C921 1.368 . S
C940 C934 1.368 . S
C940 C939 1.523 . S
C941 C925 1.429 . S
C941 C937 1.429 . S
C941 C942 1.523 . S
C942 C926 1.368 . S
C942 C938 1.368 . S
C942 C941 1.523 . S
H943 C918 0.950 . S
H944 C920 0.950 . S
H945 C921 0.949 . S
H946 C923 0.950 . S
H947 C925 0.950 . S
C948 C949 1.349 . S
C948 C950 1.327 . S
C948 H973 0.950 . S
C949 C948 1.349 . S
C949 C965 1.349 . S
C950 C948 1.327 . S
C950 C969 1.429 . S
C950 H974 0.950 . S
C951 C968 1.574 . S
C951 C970 1.368 . S
C951 H975 0.949 . S
H952 C956 0.949 . S
C953 C954 1.349 . S
C953 C955 1.327 . S
C953 H976 0.950 . S
C954 C953 1.349 . S
C954 C966 1.349 . S
C955 C953 1.327 . S
C955 C971 1.429 . S
C955 H977 0.950 . S
C956 H952 0.949 . S
C956 C964 1.574 . S
C956 C972 1.368 . S
H957 C965 0.950 . S
H958 C963 0.950 . S
H959 C964 0.949 . S
H960 C966 0.950 . S
H961 C967 0.950 . S
H962 C968 0.949 . S
C963 H958 0.950 . S
C963 C965 1.327 . S
C963 C969 1.429 . S
C964 C956 1.574 . S
C964 H959 0.949 . S
C964 C970 1.368 . S
C965 C949 1.349 . S
C965 H957 0.950 . S
C965 C963 1.327 . S
C966 C954 1.349 . S
C966 H960 0.950 . S
C966 C967 1.327 . S
C967 H961 0.950 . S
C967 C966 1.327 . S
C967 C971 1.429 . S
C968 C951 1.574 . S
C968 H962 0.949 . S
C968 C972 1.368 . S
C969 C950 1.429 . S
C969 C963 1.429 . S
C969 C970 1.523 . S
C970 C951 1.368 . S
C970 C964 1.368 . S
C970 C969 1.523 . S
C971 C955 1.429 . S
C971 C967 1.429 . S
C971 C972 1.523 . S
C972 C956 1.368 . S
C972 C968 1.368 . S
C972 C971 1.523 . S
H973 C948 0.950 . S
H974 C950 0.950 . S
H975 C951 0.949 . S
H976 C953 0.950 . S
H977 C955 0.950 . S
C978 C979 1.349 . S
C978 C980 1.327 . S
C978 H1003 0.950 . S
C979 C978 1.349 . S
C979 C995 1.349 . S
C980 C978 1.327 . S
C980 C999 1.429 . S
C980 H1004 0.950 . S
C981 C998 1.574 . S
C981 C1000 1.368 1_554 S
C981 H1005 0.949 . S
H982 C986 0.949 . S
C983 C984 1.349 . S
C983 C985 1.327 . S
C983 H1006 0.950 . S
C984 C983 1.349 . S
C984 C996 1.349 . S
C985 C983 1.327 . S
C985 C1001 1.429 . S
C985 H1007 0.950 . S
C986 H982 0.949 . S
C986 C994 1.574 . S
C986 C1002 1.368 1_556 S
H987 C995 0.950 1_554 S
H988 C993 0.945 1_554 S
H989 C994 0.949 . S
H990 C996 0.950 1_556 S
H991 C997 0.945 1_556 S
H992 C998 0.949 . S
C993 H988 0.945 1_556 S
C993 C995 1.329 . S
C993 C999 1.431 . S
C994 C986 1.574 . S
C994 H989 0.949 . S
C994 C1000 1.368 1_545 S
C995 C979 1.349 . S
C995 H987 0.950 1_556 S
C995 C993 1.329 . S
C996 C984 1.349 . S
C996 H990 0.950 1_554 S
C996 C997 1.329 . S
C997 H991 0.945 1_554 S
C997 C996 1.329 . S
C997 C1001 1.431 . S
C998 C981 1.574 . S
C998 H992 0.949 . S
C998 C1002 1.368 1_565 S
C999 C980 1.429 . S
C999 C993 1.431 . S
C999 C1000 1.523 . S
C1000 C981 1.368 1_556 S
C1000 C994 1.368 1_565 S
C1000 C999 1.523 . S
C1001 C985 1.429 . S
C1001 C997 1.431 . S
C1001 C1002 1.523 . S
C1002 C986 1.368 1_554 S
C1002 C998 1.368 1_545 S
C1002 C1001 1.523 . S
H1003 C978 0.950 . S
H1004 C980 0.950 . S
H1005 C981 0.949 . S
H1006 C983 0.950 . S
H1007 C985 0.950 . S
C1008 C1009 1.349 . S
C1008 C1010 1.327 . S
C1008 H1033 0.950 . S
C1009 C1008 1.349 . S
C1009 C1025 1.349 . S
C1010 C1008 1.327 . S
C1010 C1029 1.429 . S
C1010 H1034 0.950 . S
C1011 C1028 1.574 . S
C1011 C1030 1.368 . S
C1011 H1035 0.949 . S
H1012 C1016 0.949 . S
C1013 C1014 1.349 . S
C1013 C1015 1.327 . S
C1013 H1036 0.950 . S
C1014 C1013 1.349 . S
C1014 C1026 1.349 . S
C1015 C1013 1.327 . S
C1015 C1031 1.429 . S
C1015 H1037 0.950 . S
C1016 H1012 0.949 . S
C1016 C1024 1.574 . S
C1016 C1032 1.368 . S
H1017 C1025 0.950 . S
H1018 C1023 0.950 . S
H1019 C1024 0.949 . S
H1020 C1026 0.950 . S
H1021 C1027 0.950 . S
H1022 C1028 0.949 . S
C1023 H1018 0.950 . S
C1023 C1025 1.327 . S
C1023 C1029 1.429 . S
C1024 C1016 1.574 . S
C1024 H1019 0.949 . S
C1024 C1030 1.368 . S
C1025 C1009 1.349 . S
C1025 H1017 0.950 . S
C1025 C1023 1.327 . S
C1026 C1014 1.349 . S
C1026 H1020 0.950 . S
C1026 C1027 1.327 . S
C1027 H1021 0.950 . S
C1027 C1026 1.327 . S
C1027 C1031 1.429 . S
C1028 C1011 1.574 . S
C1028 H1022 0.949 . S
C1028 C1032 1.368 . S
C1029 C1010 1.429 . S
C1029 C1023 1.429 . S
C1029 C1030 1.523 . S
C1030 C1011 1.368 . S
C1030 C1024 1.368 . S
C1030 C1029 1.523 . S
C1031 C1015 1.429 . S
C1031 C1027 1.429 . S
C1031 C1032 1.523 . S
C1032 C1016 1.368 . S
C1032 C1028 1.368 . S
C1032 C1031 1.523 . S
H1033 C1008 0.950 . S
H1034 C1010 0.950 . S
H1035 C1011 0.949 . S
H1036 C1013 0.950 . S
H1037 C1015 0.950 . S
C1038 C1039 1.349 . S
C1038 C1040 1.327 . S
C1038 H1063 0.950 . S
C1039 C1038 1.349 . S
C1039 C1055 1.349 . S
C1040 C1038 1.327 . S
C1040 C1059 1.429 . S
C1040 H1064 0.950 . S
C1041 C1058 1.574 . S
C1041 C1060 1.368 . S
C1041 H1065 0.949 . S
H1042 C1046 0.949 . S
C1043 C1044 1.349 . S
C1043 C1045 1.327 . S
C1043 H1066 0.950 . S
C1044 C1043 1.349 . S
C1044 C1056 1.349 . S
C1045 C1043 1.327 . S
C1045 C1061 1.429 . S
C1045 H1067 0.950 . S
C1046 H1042 0.949 . S
C1046 C1054 1.574 . S
C1046 C1062 1.368 . S
H1047 C1055 0.950 . S
H1048 C1053 0.950 . S
H1049 C1054 0.949 . S
H1050 C1056 0.950 . S
H1051 C1057 0.950 . S
H1052 C1058 0.949 . S
C1053 H1048 0.950 . S
C1053 C1055 1.327 . S
C1053 C1059 1.429 . S
C1054 C1046 1.574 . S
C1054 H1049 0.949 . S
C1054 C1060 1.368 . S
C1055 C1039 1.349 . S
C1055 H1047 0.950 . S
C1055 C1053 1.327 . S
C1056 C1044 1.349 . S
C1056 H1050 0.950 . S
C1056 C1057 1.327 . S
C1057 H1051 0.950 . S
C1057 C1056 1.327 . S
C1057 C1061 1.429 . S
C1058 C1041 1.574 . S
C1058 H1052 0.949 . S
C1058 C1062 1.368 . S
C1059 C1040 1.429 . S
C1059 C1053 1.429 . S
C1059 C1060 1.523 . S
C1060 C1041 1.368 . S
C1060 C1054 1.368 . S
C1060 C1059 1.523 . S
C1061 C1045 1.429 . S
C1061 C1057 1.429 . S
C1061 C1062 1.523 . S
C1062 C1046 1.368 . S
C1062 C1058 1.368 . S
C1062 C1061 1.523 . S
H1063 C1038 0.950 . S
H1064 C1040 0.950 . S
H1065 C1041 0.949 . S
H1066 C1043 0.950 . S
H1067 C1045 0.950 . S
C1068 C1069 1.349 . S
C1068 C1070 1.327 . S
C1068 H1093 0.950 . S
C1069 C1068 1.349 . S
C1069 C1085 1.349 . S
C1070 C1068 1.327 . S
C1070 C1089 1.429 . S
C1070 H1094 0.950 . S
C1071 C1088 1.574 . S
C1071 C1090 1.368 . S
C1071 H1095 0.949 . S
H1072 C1076 0.949 . S
C1073 C1074 1.349 . S
C1073 C1075 1.327 . S
C1073 H1096 0.950 . S
C1074 C1073 1.349 . S
C1074 C1086 1.349 . S
C1075 C1073 1.327 . S
C1075 C1091 1.429 . S
C1075 H1097 0.950 . S
C1076 H1072 0.949 . S
C1076 C1084 1.574 . S
C1076 C1092 1.368 . S
H1077 C1085 0.950 . S
H1078 C1083 0.950 . S
H1079 C1084 0.949 . S
H1080 C1086 0.950 . S
H1081 C1087 0.950 . S
H1082 C1088 0.949 . S
C1083 H1078 0.950 . S
C1083 C1085 1.327 . S
C1083 C1089 1.429 . S
C1084 C1076 1.574 . S
C1084 H1079 0.949 . S
C1084 C1090 1.368 . S
C1085 C1069 1.349 . S
C1085 H1077 0.950 . S
C1085 C1083 1.327 . S
C1086 C1074 1.349 . S
C1086 H1080 0.950 . S
C1086 C1087 1.327 . S
C1087 H1081 0.950 . S
C1087 C1086 1.327 . S
C1087 C1091 1.429 . S
C1088 C1071 1.574 . S
C1088 H1082 0.949 . S
C1088 C1092 1.368 . S
C1089 C1070 1.429 . S
C1089 C1083 1.429 . S
C1089 C1090 1.523 . S
C1090 C1071 1.368 . S
C1090 C1084 1.368 . S
C1090 C1089 1.523 . S
C1091 C1075 1.429 . S
C1091 C1087 1.429 . S
C1091 C1092 1.523 . S
C1092 C1076 1.368 . S
C1092 C1088 1.368 . S
C1092 C1091 1.523 . S
H1093 C1068 0.950 . S
H1094 C1070 0.950 . S
H1095 C1071 0.949 . S
H1096 C1073 0.950 . S
H1097 C1075 0.950 . S
C1098 C1099 1.349 . S
C1098 C1100 1.327 . S
C1098 H1123 0.950 . S
C1099 C1098 1.349 . S
C1099 C1115 1.349 . S
C1100 C1098 1.327 . S
C1100 C1119 1.429 . S
C1100 H1124 0.950 . S
C1101 C1118 1.574 . S
C1101 C1120 1.368 . S
C1101 H1125 0.949 . S
H1102 C1106 0.949 . S
C1103 C1104 1.349 . S
C1103 C1105 1.327 . S
C1103 H1126 0.950 . S
C1104 C1103 1.349 . S
C1104 C1116 1.349 . S
C1105 C1103 1.327 . S
C1105 C1121 1.429 . S
C1105 H1127 0.950 . S
C1106 H1102 0.949 . S
C1106 C1114 1.574 . S
C1106 C1122 1.368 . S
H1107 C1115 0.950 . S
H1108 C1113 0.950 . S
H1109 C1114 0.949 . S
H1110 C1116 0.950 . S
H1111 C1117 0.950 . S
H1112 C1118 0.949 . S
C1113 H1108 0.950 . S
C1113 C1115 1.327 . S
C1113 C1119 1.429 . S
C1114 C1106 1.574 . S
C1114 H1109 0.949 . S
C1114 C1120 1.368 . S
C1115 C1099 1.349 . S
C1115 H1107 0.950 . S
C1115 C1113 1.327 . S
C1116 C1104 1.349 . S
C1116 H1110 0.950 . S
C1116 C1117 1.327 . S
C1117 H1111 0.950 . S
C1117 C1116 1.327 . S
C1117 C1121 1.429 . S
C1118 C1101 1.574 . S
C1118 H1112 0.949 . S
C1118 C1122 1.368 . S
C1119 C1100 1.429 . S
C1119 C1113 1.429 . S
C1119 C1120 1.523 . S
C1120 C1101 1.368 . S
C1120 C1114 1.368 . S
C1120 C1119 1.523 . S
C1121 C1105 1.429 . S
C1121 C1117 1.429 . S
C1121 C1122 1.523 . S
C1122 C1106 1.368 . S
C1122 C1118 1.368 . S
C1122 C1121 1.523 . S
H1123 C1098 0.950 . S
H1124 C1100 0.950 . S
H1125 C1101 0.949 . S
H1126 C1103 0.950 . S
H1127 C1105 0.950 . S
C1128 C1129 1.349 . S
C1128 C1130 1.327 . S
C1128 H1153 0.950 . S
C1129 C1128 1.349 . S
C1129 C1145 1.349 . S
C1130 C1128 1.327 . S
C1130 C1149 1.429 . S
C1130 H1154 0.950 . S
C1131 C1148 1.574 . S
C1131 C1150 1.368 . S
C1131 H1155 0.949 . S
H1132 C1136 0.949 . S
C1133 C1134 1.349 . S
C1133 C1135 1.327 . S
C1133 H1156 0.950 . S
C1134 C1133 1.349 . S
C1134 C1146 1.349 . S
C1135 C1133 1.327 . S
C1135 C1151 1.429 . S
C1135 H1157 0.950 . S
C1136 H1132 0.949 . S
C1136 C1144 1.574 . S
C1136 C1152 1.368 . S
H1137 C1145 0.950 . S
H1138 C1143 0.950 . S
H1139 C1144 0.949 . S
H1140 C1146 0.950 . S
H1141 C1147 0.950 . S
H1142 C1148 0.949 . S
C1143 H1138 0.950 . S
C1143 C1145 1.327 . S
C1143 C1149 1.429 . S
C1144 C1136 1.574 . S
C1144 H1139 0.949 . S
C1144 C1150 1.368 . S
C1145 C1129 1.349 . S
C1145 H1137 0.950 . S
C1145 C1143 1.327 . S
C1146 C1134 1.349 . S
C1146 H1140 0.950 . S
C1146 C1147 1.327 . S
C1147 H1141 0.950 . S
C1147 C1146 1.327 . S
C1147 C1151 1.429 . S
C1148 C1131 1.574 . S
C1148 H1142 0.949 . S
C1148 C1152 1.368 . S
C1149 C1130 1.429 . S
C1149 C1143 1.429 . S
C1149 C1150 1.523 . S
C1150 C1131 1.368 . S
C1150 C1144 1.368 . S
C1150 C1149 1.523 . S
C1151 C1135 1.429 . S
C1151 C1147 1.429 . S
C1151 C1152 1.523 1_556 S
C1152 C1136 1.368 . S
C1152 C1148 1.368 . S
C1152 C1151 1.523 1_554 S
H1153 C1128 0.950 . S
H1154 C1130 0.950 . S
H1155 C1131 0.949 . S
H1156 C1133 0.950 . S
H1157 C1135 0.950 . S
C1158 C1159 1.349 . S
C1158 C1160 1.327 . S
C1158 H1183 0.950 . S
C1159 C1158 1.349 . S
C1159 C1175 1.349 . S
C1160 C1158 1.327 . S
C1160 C1179 1.429 . S
C1160 H1184 0.950 . S
C1161 C1178 1.574 . S
C1161 C1180 1.368 . S
C1161 H1185 0.949 . S
H1162 C1166 0.949 . S
C1163 C1164 1.349 . S
C1163 C1165 1.327 . S
C1163 H1186 0.950 . S
C1164 C1163 1.349 . S
C1164 C1176 1.349 . S
C1165 C1163 1.327 . S
C1165 C1181 1.429 1_556 S
C1165 H1187 0.950 . S
C1166 H1162 0.949 . S
C1166 C1174 1.574 . S
C1166 C1182 1.368 . S
H1167 C1175 0.950 . S
H1168 C1173 0.950 . S
H1169 C1174 0.949 . S
H1170 C1176 0.950 . S
H1171 C1177 0.950 . S
H1172 C1178 0.949 . S
C1173 H1168 0.950 . S
C1173 C1175 1.327 . S
C1173 C1179 1.429 . S
C1174 C1166 1.574 . S
C1174 H1169 0.949 . S
C1174 C1180 1.368 . S
C1175 C1159 1.349 . S
C1175 H1167 0.950 . S
C1175 C1173 1.327 . S
C1176 C1164 1.349 . S
C1176 H1170 0.950 . S
C1176 C1177 1.327 . S
C1177 H1171 0.950 . S
C1177 C1176 1.327 . S
C1177 C1181 1.429 1_556 S
C1178 C1161 1.574 . S
C1178 H1172 0.949 . S
C1178 C1182 1.368 . S
C1179 C1160 1.429 . S
C1179 C1173 1.429 . S
C1179 C1180 1.523 . S
C1180 C1161 1.368 . S
C1180 C1174 1.368 . S
C1180 C1179 1.523 . S
C1181 C1165 1.429 1_554 S
C1181 C1177 1.429 1_554 S
C1181 C1182 1.523 . S
C1182 C1166 1.368 . S
C1182 C1178 1.368 . S
C1182 C1181 1.523 . S
H1183 C1158 0.950 . S
H1184 C1160 0.950 . S
H1185 C1161 0.949 . S
H1186 C1163 0.950 . S
H1187 C1165 0.950 . S
C1188 C1189 1.349 . S
C1188 C1190 1.327 . S
C1188 H1213 0.950 . S
C1189 C1188 1.349 . S
C1189 C1205 1.349 . S
C1190 C1188 1.327 . S
C1190 C1209 1.429 . S
C1190 H1214 0.950 . S
C1191 C1208 1.574 . S
C1191 C1210 1.368 . S
C1191 H1215 0.949 . S
H1192 C1196 0.949 . S
C1193 C1194 1.349 . S
C1193 C1195 1.327 . S
C1193 H1216 0.950 . S
C1194 C1193 1.349 . S
C1194 C1206 1.349 . S
C1195 C1193 1.327 . S
C1195 C1211 1.429 . S
C1195 H1217 0.950 . S
C1196 H1192 0.949 . S
C1196 C1204 1.574 . S
C1196 C1212 1.368 . S
H1197 C1205 0.950 . S
H1198 C1203 0.950 . S
H1199 C1204 0.949 . S
H1200 C1206 0.950 . S
H1201 C1207 0.950 . S
H1202 C1208 0.949 . S
C1203 H1198 0.950 . S
C1203 C1205 1.327 . S
C1203 C1209 1.429 . S
C1204 C1196 1.574 . S
C1204 H1199 0.949 . S
C1204 C1210 1.368 . S
C1205 C1189 1.349 . S
C1205 H1197 0.950 . S
C1205 C1203 1.327 . S
C1206 C1194 1.349 . S
C1206 H1200 0.950 . S
C1206 C1207 1.327 . S
C1207 H1201 0.950 . S
C1207 C1206 1.327 . S
C1207 C1211 1.429 . S
C1208 C1191 1.574 . S
C1208 H1202 0.949 . S
C1208 C1212 1.368 . S
C1209 C1190 1.429 . S
C1209 C1203 1.429 . S
C1209 C1210 1.523 1_554 S
C1210 C1191 1.368 . S
C1210 C1204 1.368 . S
C1210 C1209 1.523 1_556 S
C1211 C1195 1.429 . S
C1211 C1207 1.429 . S
C1211 C1212 1.523 . S
C1212 C1196 1.368 . S
C1212 C1208 1.368 . S
C1212 C1211 1.523 . S
H1213 C1188 0.950 . S
H1214 C1190 0.950 . S
H1215 C1191 0.949 . S
H1216 C1193 0.950 . S
H1217 C1195 0.950 . S
C1218 C1219 1.349 . S
C1218 C1220 1.327 . S
C1218 H1243 0.950 . S
C1219 C1218 1.349 . S
C1219 C1235 1.349 . S
C1220 C1218 1.327 . S
C1220 C1239 1.429 1_554 S
C1220 H1244 0.950 . S
C1221 C1238 1.574 . S
C1221 C1240 1.368 . S
C1221 H1245 0.949 . S
H1222 C1226 0.949 . S
C1223 C1224 1.349 . S
C1223 C1225 1.327 . S
C1223 H1246 0.950 . S
C1224 C1223 1.349 . S
C1224 C1236 1.349 . S
C1225 C1223 1.327 . S
C1225 C1241 1.429 . S
C1225 H1247 0.950 . S
C1226 H1222 0.949 . S
C1226 C1234 1.574 . S
C1226 C1242 1.368 . S
H1227 C1235 0.950 . S
H1228 C1233 0.950 . S
H1229 C1234 0.949 . S
H1230 C1236 0.950 . S
H1231 C1237 0.950 . S
H1232 C1238 0.949 . S
C1233 H1228 0.950 . S
C1233 C1235 1.327 . S
C1233 C1239 1.429 1_554 S
C1234 C1226 1.574 . S
C1234 H1229 0.949 . S
C1234 C1240 1.368 . S
C1235 C1219 1.349 . S
C1235 H1227 0.950 . S
C1235 C1233 1.327 . S
C1236 C1224 1.349 . S
C1236 H1230 0.950 . S
C1236 C1237 1.327 . S
C1237 H1231 0.950 . S
C1237 C1236 1.327 . S
C1237 C1241 1.429 . S
C1238 C1221 1.574 . S
C1238 H1232 0.949 . S
C1238 C1242 1.368 . S
C1239 C1220 1.429 1_556 S
C1239 C1233 1.429 1_556 S
C1239 C1240 1.523 . S
C1240 C1221 1.368 . S
C1240 C1234 1.368 . S
C1240 C1239 1.523 . S
C1241 C1225 1.429 . S
C1241 C1237 1.429 . S
C1241 C1242 1.523 . S
C1242 C1226 1.368 . S
C1242 C1238 1.368 . S
C1242 C1241 1.523 . S
H1243 C1218 0.950 . S
H1244 C1220 0.950 . S
H1245 C1221 0.949 . S
H1246 C1223 0.950 . S
H1247 C1225 0.950 . S
C1248 C1249 1.349 . S
C1248 C1250 1.327 . S
C1248 H1273 0.950 . S
C1249 C1248 1.349 . S
C1249 C1265 1.349 . S
C1250 C1248 1.327 . S
C1250 C1269 1.429 . S
C1250 H1274 0.950 . S
C1251 C1268 1.574 . S
C1251 C1270 1.368 . S
C1251 H1275 0.949 . S
H1252 C1256 0.949 . S
C1253 C1254 1.349 . S
C1253 C1255 1.327 . S
C1253 H1276 0.950 . S
C1254 C1253 1.349 . S
C1254 C1266 1.349 . S
C1255 C1253 1.327 . S
C1255 C1271 1.429 . S
C1255 H1277 0.950 . S
C1256 H1252 0.949 . S
C1256 C1264 1.574 . S
C1256 C1272 1.368 . S
H1257 C1265 0.950 . S
H1258 C1263 0.950 . S
H1259 C1264 0.949 . S
H1260 C1266 0.950 . S
H1261 C1267 0.950 . S
H1262 C1268 0.949 . S
C1263 H1258 0.950 . S
C1263 C1265 1.327 . S
C1263 C1269 1.429 . S
C1264 C1256 1.574 . S
C1264 H1259 0.949 . S
C1264 C1270 1.368 . S
C1265 C1249 1.349 . S
C1265 H1257 0.950 . S
C1265 C1263 1.327 . S
C1266 C1254 1.349 . S
C1266 H1260 0.950 . S
C1266 C1267 1.327 . S
C1267 H1261 0.950 . S
C1267 C1266 1.327 . S
C1267 C1271 1.429 . S
C1268 C1251 1.574 . S
C1268 H1262 0.949 . S
C1268 C1272 1.368 . S
C1269 C1250 1.429 . S
C1269 C1263 1.429 . S
C1269 C1270 1.523 1_556 S
C1270 C1251 1.368 . S
C1270 C1264 1.368 . S
C1270 C1269 1.523 1_554 S
C1271 C1255 1.429 . S
C1271 C1267 1.429 . S
C1271 C1272 1.523 . S
C1272 C1256 1.368 . S
C1272 C1268 1.368 . S
C1272 C1271 1.523 . S
H1273 C1248 0.950 . S
H1274 C1250 0.950 . S
H1275 C1251 0.949 . S
H1276 C1253 0.950 . S
H1277 C1255 0.950 . S
C1278 C1279 1.349 . S
C1278 C1280 1.327 . S
C1278 H1303 0.950 . S
C1279 C1278 1.349 . S
C1279 C1295 1.349 . S
C1280 C1278 1.327 . S
C1280 C1299 1.429 1_556 S
C1280 H1304 0.950 . S
C1281 C1298 1.574 . S
C1281 C1300 1.368 . S
C1281 H1305 0.949 . S
H1282 C1286 0.949 . S
C1283 C1284 1.349 . S
C1283 C1285 1.327 . S
C1283 H1306 0.950 . S
C1284 C1283 1.349 . S
C1284 C1296 1.349 . S
C1285 C1283 1.327 . S
C1285 C1301 1.429 . S
C1285 H1307 0.950 . S
C1286 H1282 0.949 . S
C1286 C1294 1.574 . S
C1286 C1302 1.368 . S
H1287 C1295 0.950 . S
H1288 C1293 0.950 . S
H1289 C1294 0.949 . S
H1290 C1296 0.950 . S
H1291 C1297 0.950 . S
H1292 C1298 0.949 . S
C1293 H1288 0.950 . S
C1293 C1295 1.327 . S
C1293 C1299 1.429 1_556 S
C1294 C1286 1.574 . S
C1294 H1289 0.949 . S
C1294 C1300 1.368 . S
C1295 C1279 1.349 . S
C1295 H1287 0.950 . S
C1295 C1293 1.327 . S
C1296 C1284 1.349 . S
C1296 H1290 0.950 . S
C1296 C1297 1.327 . S
C1297 H1291 0.950 . S
C1297 C1296 1.327 . S
C1297 C1301 1.429 . S
C1298 C1281 1.574 . S
C1298 H1292 0.949 . S
C1298 C1302 1.368 . S
C1299 C1280 1.429 1_554 S
C1299 C1293 1.429 1_554 S
C1299 C1300 1.523 . S
C1300 C1281 1.368 . S
C1300 C1294 1.368 . S
C1300 C1299 1.523 . S
C1301 C1285 1.429 . S
C1301 C1297 1.429 . S
C1301 C1302 1.523 . S
C1302 C1286 1.368 . S
C1302 C1298 1.368 . S
C1302 C1301 1.523 . S
H1303 C1278 0.950 . S
H1304 C1280 0.950 . S
H1305 C1281 0.949 . S
H1306 C1283 0.950 . S
H1307 C1285 0.950 . S
C1308 C1309 1.349 . S
C1308 C1310 1.327 . S
C1308 H1333 0.950 . S
C1309 C1308 1.349 . S
C1309 C1325 1.349 . S
C1310 C1308 1.327 . S
C1310 C1329 1.429 . S
C1310 H1334 0.950 . S
C1311 C1328 1.574 . S
C1311 C1330 1.368 . S
C1311 H1335 0.949 . S
H1312 C1316 0.949 . S
C1313 C1314 1.349 . S
C1313 C1315 1.327 . S
C1313 H1336 0.950 . S
C1314 C1313 1.349 . S
C1314 C1326 1.349 . S
C1315 C1313 1.327 . S
C1315 C1331 1.429 . S
C1315 H1337 0.950 . S
C1316 H1312 0.949 . S
C1316 C1324 1.574 . S
C1316 C1332 1.368 . S
H1317 C1325 0.950 . S
H1318 C1323 0.950 . S
H1319 C1324 0.949 . S
H1320 C1326 0.950 . S
H1321 C1327 0.950 . S
H1322 C1328 0.949 . S
C1323 H1318 0.950 . S
C1323 C1325 1.327 . S
C1323 C1329 1.429 . S
C1324 C1316 1.574 . S
C1324 H1319 0.949 . S
C1324 C1330 1.368 . S
C1325 C1309 1.349 . S
C1325 H1317 0.950 . S
C1325 C1323 1.327 . S
C1326 C1314 1.349 . S
C1326 H1320 0.950 . S
C1326 C1327 1.327 . S
C1327 H1321 0.950 . S
C1327 C1326 1.327 . S
C1327 C1331 1.429 . S
C1328 C1311 1.574 . S
C1328 H1322 0.949 . S
C1328 C1332 1.368 . S
C1329 C1310 1.429 . S
C1329 C1323 1.429 . S
C1329 C1330 1.523 1_554 S
C1330 C1311 1.368 . S
C1330 C1324 1.368 . S
C1330 C1329 1.523 1_556 S
C1331 C1315 1.429 . S
C1331 C1327 1.429 . S
C1331 C1332 1.523 . S
C1332 C1316 1.368 . S
C1332 C1328 1.368 . S
C1332 C1331 1.523 . S
H1333 C1308 0.950 . S
H1334 C1310 0.950 . S
H1335 C1311 0.949 . S
H1336 C1313 0.950 . S
H1337 C1315 0.950 . S
C1338 C1339 1.349 . S
C1338 C1340 1.327 . S
C1338 H1363 0.950 . S
C1339 C1338 1.349 . S
C1339 C1355 1.349 . S
C1340 C1338 1.327 . S
C1340 C1359 1.429 1_554 S
C1340 H1364 0.950 . S
C1341 C1358 1.574 . S
C1341 C1360 1.368 . S
C1341 H1365 0.949 . S
H1342 C1346 0.949 . S
C1343 C1344 1.349 . S
C1343 C1345 1.327 . S
C1343 H1366 0.950 . S
C1344 C1343 1.349 . S
C1344 C1356 1.349 . S
C1345 C1343 1.327 . S
C1345 C1361 1.429 . S
C1345 H1367 0.950 . S
C1346 H1342 0.949 . S
C1346 C1354 1.574 . S
C1346 C1362 1.368 . S
H1347 C1355 0.950 . S
H1348 C1353 0.950 . S
H1349 C1354 0.949 . S
H1350 C1356 0.950 . S
H1351 C1357 0.950 . S
H1352 C1358 0.949 . S
C1353 H1348 0.950 . S
C1353 C1355 1.327 . S
C1353 C1359 1.429 1_554 S
C1354 C1346 1.574 . S
C1354 H1349 0.949 . S
C1354 C1360 1.368 . S
C1355 C1339 1.349 . S
C1355 H1347 0.950 . S
C1355 C1353 1.327 . S
C1356 C1344 1.349 . S
C1356 H1350 0.950 . S
C1356 C1357 1.327 . S
C1357 H1351 0.950 . S
C1357 C1356 1.327 . S
C1357 C1361 1.429 . S
C1358 C1341 1.574 . S
C1358 H1352 0.949 . S
C1358 C1362 1.368 . S
C1359 C1340 1.429 1_556 S
C1359 C1353 1.429 1_556 S
C1359 C1360 1.523 . S
C1360 C1341 1.368 . S
C1360 C1354 1.368 . S
C1360 C1359 1.523 . S
C1361 C1345 1.429 . S
C1361 C1357 1.429 . S
C1361 C1362 1.523 . S
C1362 C1346 1.368 . S
C1362 C1358 1.368 . S
C1362 C1361 1.523 . S
H1363 C1338 0.950 . S
H1364 C1340 0.950 . S
H1365 C1341 0.949 . S
H1366 C1343 0.950 . S
H1367 C1345 0.950 . S
C1368 C1369 1.349 . S
C1368 C1370 1.327 . S
C1368 H1393 0.950 . S
C1369 C1368 1.349 . S
C1369 C1385 1.349 . S
C1370 C1368 1.327 . S
C1370 C1389 1.429 . S
C1370 H1394 0.950 . S
C1371 C1388 1.574 . S
C1371 C1390 1.368 . S
C1371 H1395 0.949 . S
H1372 C1376 0.949 . S
C1373 C1374 1.349 . S
C1373 C1375 1.327 . S
C1373 H1396 0.950 . S
C1374 C1373 1.349 . S
C1374 C1386 1.349 . S
C1375 C1373 1.327 . S
C1375 C1391 1.429 . S
C1375 H1397 0.950 . S
C1376 H1372 0.949 . S
C1376 C1384 1.574 . S
C1376 C1392 1.368 . S
H1377 C1385 0.950 . S
H1378 C1383 0.950 . S
H1379 C1384 0.949 . S
H1380 C1386 0.950 . S
H1381 C1387 0.950 . S
H1382 C1388 0.949 . S
C1383 H1378 0.950 . S
C1383 C1385 1.327 . S
C1383 C1389 1.429 . S
C1384 C1376 1.574 . S
C1384 H1379 0.949 . S
C1384 C1390 1.368 . S
C1385 C1369 1.349 . S
C1385 H1377 0.950 . S
C1385 C1383 1.327 . S
C1386 C1374 1.349 . S
C1386 H1380 0.950 . S
C1386 C1387 1.327 . S
C1387 H1381 0.950 . S
C1387 C1386 1.327 . S
C1387 C1391 1.429 . S
C1388 C1371 1.574 . S
C1388 H1382 0.949 . S
C1388 C1392 1.368 . S
C1389 C1370 1.429 . S
C1389 C1383 1.429 . S
C1389 C1390 1.523 . S
C1390 C1371 1.368 . S
C1390 C1384 1.368 . S
C1390 C1389 1.523 . S
C1391 C1375 1.429 . S
C1391 C1387 1.429 . S
C1391 C1392 1.523 . S
C1392 C1376 1.368 . S
C1392 C1388 1.368 . S
C1392 C1391 1.523 . S
H1393 C1368 0.950 . S
H1394 C1370 0.950 . S
H1395 C1371 0.949 . S
H1396 C1373 0.950 . S
H1397 C1375 0.950 . S
C1398 C1399 1.349 . S
C1398 C1400 1.327 . S
C1398 H1423 0.950 . S
C1399 C1398 1.349 . S
C1399 C1415 1.349 . S
C1400 C1398 1.327 . S
C1400 C1419 1.429 . S
C1400 H1424 0.950 . S
C1401 C1418 1.574 . S
C1401 C1420 1.368 . S
C1401 H1425 0.949 . S
H1402 C1406 0.949 . S
C1403 C1404 1.349 . S
C1403 C1405 1.327 . S
C1403 H1426 0.950 . S
C1404 C1403 1.349 . S
C1404 C1416 1.349 . S
C1405 C1403 1.327 . S
C1405 C1421 1.429 . S
C1405 H1427 0.950 . S
C1406 H1402 0.949 . S
C1406 C1414 1.574 . S
C1406 C1422 1.368 . S
H1407 C1415 0.950 . S
H1408 C1413 0.950 . S
H1409 C1414 0.949 . S
H1410 C1416 0.950 . S
H1411 C1417 0.950 . S
H1412 C1418 0.949 . S
C1413 H1408 0.950 . S
C1413 C1415 1.327 . S
C1413 C1419 1.429 . S
C1414 C1406 1.574 . S
C1414 H1409 0.949 . S
C1414 C1420 1.368 . S
C1415 C1399 1.349 . S
C1415 H1407 0.950 . S
C1415 C1413 1.327 . S
C1416 C1404 1.349 . S
C1416 H1410 0.950 . S
C1416 C1417 1.327 . S
C1417 H1411 0.950 . S
C1417 C1416 1.327 . S
C1417 C1421 1.429 . S
C1418 C1401 1.574 . S
C1418 H1412 0.949 . S
C1418 C1422 1.368 . S
C1419 C1400 1.429 . S
C1419 C1413 1.429 . S
C1419 C1420 1.523 . S
C1420 C1401 1.368 . S
C1420 C1414 1.368 . S
C1420 C1419 1.523 . S
C1421 C1405 1.429 . S
C1421 C1417 1.429 . S
C1421 C1422 1.523 . S
C1422 C1406 1.368 . S
C1422 C1418 1.368 . S
C1422 C1421 1.523 . S
H1423 C1398 0.950 . S
H1424 C1400 0.950 . S
H1425 C1401 0.949 . S
H1426 C1403 0.950 . S
H1427 C1405 0.950 . S
C1428 C1429 1.349 . S
C1428 C1430 1.327 . S
C1428 H1453 0.950 . S
C1429 C1428 1.349 . S
C1429 C1445 1.349 . S
C1430 C1428 1.327 . S
C1430 C1449 1.429 . S
C1430 H1454 0.950 . S
C1431 C1448 1.574 . S
C1431 C1450 1.368 . S
C1431 H1455 0.949 . S
H1432 C1436 0.949 . S
C1433 C1434 1.349 . S
C1433 C1435 1.327 . S
C1433 H1456 0.950 . S
C1434 C1433 1.349 . S
C1434 C1446 1.349 . S
C1435 C1433 1.327 . S
C1435 C1451 1.429 . S
C1435 H1457 0.950 . S
C1436 H1432 0.949 . S
C1436 C1444 1.574 . S
C1436 C1452 1.368 . S
H1437 C1445 0.950 . S
H1438 C1443 0.950 . S
H1439 C1444 0.949 . S
H1440 C1446 0.950 . S
H1441 C1447 0.950 . S
H1442 C1448 0.949 . S
C1443 H1438 0.950 . S
C1443 C1445 1.327 . S
C1443 C1449 1.429 . S
C1444 C1436 1.574 . S
C1444 H1439 0.949 . S
C1444 C1450 1.368 . S
C1445 C1429 1.349 . S
C1445 H1437 0.950 . S
C1445 C1443 1.327 . S
C1446 C1434 1.349 . S
C1446 H1440 0.950 . S
C1446 C1447 1.327 . S
C1447 H1441 0.950 . S
C1447 C1446 1.327 . S
C1447 C1451 1.429 . S
C1448 C1431 1.574 . S
C1448 H1442 0.949 . S
C1448 C1452 1.368 . S
C1449 C1430 1.429 . S
C1449 C1443 1.429 . S
C1449 C1450 1.523 . S
C1450 C1431 1.368 . S
C1450 C1444 1.368 . S
C1450 C1449 1.523 . S
C1451 C1435 1.429 . S
C1451 C1447 1.429 . S
C1451 C1452 1.523 . S
C1452 C1436 1.368 . S
C1452 C1448 1.368 . S
C1452 C1451 1.523 . S
H1453 C1428 0.950 . S
H1454 C1430 0.950 . S
H1455 C1431 0.949 . S
H1456 C1433 0.950 . S
H1457 C1435 0.950 . S
C1458 C1459 1.349 . S
C1458 C1460 1.327 . S
C1458 H1483 0.950 . S
C1459 C1458 1.349 . S
C1459 C1475 1.349 . S
C1460 C1458 1.327 . S
C1460 C1479 1.429 . S
C1460 H1484 0.950 . S
C1461 C1478 1.574 . S
C1461 C1480 1.368 . S
C1461 H1485 0.949 . S
H1462 C1466 0.949 . S
C1463 C1464 1.349 . S
C1463 C1465 1.327 . S
C1463 H1486 0.950 . S
C1464 C1463 1.349 . S
C1464 C1476 1.349 . S
C1465 C1463 1.327 . S
C1465 C1481 1.429 . S
C1465 H1487 0.950 . S
C1466 H1462 0.949 . S
C1466 C1474 1.574 . S
C1466 C1482 1.368 . S
H1467 C1475 0.950 . S
H1468 C1473 0.950 . S
H1469 C1474 0.949 . S
H1470 C1476 0.950 . S
H1471 C1477 0.950 . S
H1472 C1478 0.949 . S
C1473 H1468 0.950 . S
C1473 C1475 1.327 . S
C1473 C1479 1.429 . S
C1474 C1466 1.574 . S
C1474 H1469 0.949 . S
C1474 C1480 1.368 . S
C1475 C1459 1.349 . S
C1475 H1467 0.950 . S
C1475 C1473 1.327 . S
C1476 C1464 1.349 . S
C1476 H1470 0.950 . S
C1476 C1477 1.327 . S
C1477 H1471 0.950 . S
C1477 C1476 1.327 . S
C1477 C1481 1.429 . S
C1478 C1461 1.574 . S
C1478 H1472 0.949 . S
C1478 C1482 1.368 . S
C1479 C1460 1.429 . S
C1479 C1473 1.429 . S
C1479 C1480 1.523 . S
C1480 C1461 1.368 . S
C1480 C1474 1.368 . S
C1480 C1479 1.523 . S
C1481 C1465 1.429 . S
C1481 C1477 1.429 . S
C1481 C1482 1.523 . S
C1482 C1466 1.368 . S
C1482 C1478 1.368 . S
C1482 C1481 1.523 . S
H1483 C1458 0.950 . S
H1484 C1460 0.950 . S
H1485 C1461 0.949 . S
H1486 C1463 0.950 . S
H1487 C1465 0.950 . S
C1488 C1489 1.349 . S
C1488 C1490 1.327 . S
C1488 H1513 0.950 . S
C1489 C1488 1.349 . S
C1489 C1505 1.349 . S
C1490 C1488 1.327 . S
C1490 C1509 1.429 . S
C1490 H1514 0.950 . S
C1491 C1508 1.574 . S
C1491 C1510 1.368 . S
C1491 H1515 0.949 . S
H1492 C1496 0.949 . S
C1493 C1494 1.349 . S
C1493 C1495 1.327 . S
C1493 H1516 0.950 . S
C1494 C1493 1.349 . S
C1494 C1506 1.349 . S
C1495 C1493 1.327 . S
C1495 C1511 1.429 . S
C1495 H1517 0.950 . S
C1496 H1492 0.949 . S
C1496 C1504 1.574 . S
C1496 C1512 1.368 . S
H1497 C1505 0.950 . S
H1498 C1503 0.950 . S
H1499 C1504 0.949 . S
H1500 C1506 0.950 . S
H1501 C1507 0.950 . S
H1502 C1508 0.949 . S
C1503 H1498 0.950 . S
C1503 C1505 1.327 . S
C1503 C1509 1.429 . S
C1504 C1496 1.574 . S
C1504 H1499 0.949 . S
C1504 C1510 1.368 . S
C1505 C1489 1.349 . S
C1505 H1497 0.950 . S
C1505 C1503 1.327 . S
C1506 C1494 1.349 . S
C1506 H1500 0.950 . S
C1506 C1507 1.327 . S
C1507 H1501 0.950 . S
C1507 C1506 1.327 . S
C1507 C1511 1.429 . S
C1508 C1491 1.574 . S
C1508 H1502 0.949 . S
C1508 C1512 1.368 . S
C1509 C1490 1.429 . S
C1509 C1503 1.429 . S
C1509 C1510 1.523 . S
C1510 C1491 1.368 . S
C1510 C1504 1.368 . S
C1510 C1509 1.523 . S
C1511 C1495 1.429 . S
C1511 C1507 1.429 . S
C1511 C1512 1.523 . S
C1512 C1496 1.368 . S
C1512 C1508 1.368 . S
C1512 C1511 1.523 . S
H1513 C1488 0.950 . S
H1514 C1490 0.950 . S
H1515 C1491 0.949 . S
H1516 C1493 0.950 . S
H1517 C1495 0.950 . S
C1518 C1519 1.349 . S
C1518 C1520 1.327 . S
C1518 H1543 0.950 . S
C1519 C1518 1.349 . S
C1519 C1535 1.349 . S
C1520 C1518 1.327 . S
C1520 C1539 1.429 . S
C1520 H1544 0.950 . S
C1521 C1538 1.574 . S
C1521 C1540 1.368 . S
C1521 H1545 0.949 . S
H1522 C1526 0.949 . S
C1523 C1524 1.349 . S
C1523 C1525 1.327 . S
C1523 H1546 0.950 . S
C1524 C1523 1.349 . S
C1524 C1536 1.349 . S
C1525 C1523 1.327 . S
C1525 C1541 1.429 . S
C1525 H1547 0.950 . S
C1526 H1522 0.949 . S
C1526 C1534 1.574 . S
C1526 C1542 1.368 . S
H1527 C1535 0.950 . S
H1528 C1533 0.950 . S
H1529 C1534 0.949 . S
H1530 C1536 0.950 . S
H1531 C1537 0.950 . S
H1532 C1538 0.949 . S
C1533 H1528 0.950 . S
C1533 C1535 1.327 . S
C1533 C1539 1.429 . S
C1534 C1526 1.574 . S
C1534 H1529 0.949 . S
C1534 C1540 1.368 . S
C1535 C1519 1.349 . S
C1535 H1527 0.950 . S
C1535 C1533 1.327 . S
C1536 C1524 1.349 . S
C1536 H1530 0.950 . S
C1536 C1537 1.327 . S
C1537 H1531 0.950 . S
C1537 C1536 1.327 . S
C1537 C1541 1.429 . S
C1538 C1521 1.574 . S
C1538 H1532 0.949 . S
C1538 C1542 1.368 . S
C1539 C1520 1.429 . S
C1539 C1533 1.429 . S
C1539 C1540 1.523 . S
C1540 C1521 1.368 . S
C1540 C1534 1.368 . S
C1540 C1539 1.523 . S
C1541 C1525 1.429 . S
C1541 C1537 1.429 . S
C1541 C1542 1.523 . S
C1542 C1526 1.368 . S
C1542 C1538 1.368 . S
C1542 C1541 1.523 . S
H1543 C1518 0.950 . S
H1544 C1520 0.950 . S
H1545 C1521 0.949 . S
H1546 C1523 0.950 . S
H1547 C1525 0.950 . S
C1548 C1549 1.349 . S
C1548 C1550 1.327 . S
C1548 H1573 0.950 . S
C1549 C1548 1.349 . S
C1549 C1565 1.349 . S
C1550 C1548 1.327 . S
C1550 C1569 1.429 . S
C1550 H1574 0.950 . S
C1551 C1568 1.574 . S
C1551 C1570 1.368 . S
C1551 H1575 0.949 . S
H1552 C1556 0.949 . S
C1553 C1554 1.349 . S
C1553 C1555 1.327 . S
C1553 H1576 0.950 . S
C1554 C1553 1.349 . S
C1554 C1566 1.349 . S
C1555 C1553 1.327 . S
C1555 C1571 1.429 . S
C1555 H1577 0.950 . S
C1556 H1552 0.949 . S
C1556 C1564 1.574 . S
C1556 C1572 1.368 . S
H1557 C1565 0.950 . S
H1558 C1563 0.950 . S
H1559 C1564 0.949 . S
H1560 C1566 0.950 . S
H1561 C1567 0.950 . S
H1562 C1568 0.949 . S
C1563 H1558 0.950 . S
C1563 C1565 1.327 . S
C1563 C1569 1.429 . S
C1564 C1556 1.574 . S
C1564 H1559 0.949 . S
C1564 C1570 1.368 . S
C1565 C1549 1.349 . S
C1565 H1557 0.950 . S
C1565 C1563 1.327 . S
C1566 C1554 1.349 . S
C1566 H1560 0.950 . S
C1566 C1567 1.327 . S
C1567 H1561 0.950 . S
C1567 C1566 1.327 . S
C1567 C1571 1.429 . S
C1568 C1551 1.574 . S
C1568 H1562 0.949 . S
C1568 C1572 1.368 . S
C1569 C1550 1.429 . S
C1569 C1563 1.429 . S
C1569 C1570 1.523 . S
C1570 C1551 1.368 . S
C1570 C1564 1.368 . S
C1570 C1569 1.523 . S
C1571 C1555 1.429 . S
C1571 C1567 1.429 . S
C1571 C1572 1.523 . S
C1572 C1556 1.368 . S
C1572 C1568 1.368 . S
C1572 C1571 1.523 . S
H1573 C1548 0.950 . S
H1574 C1550 0.950 . S
H1575 C1551 0.949 . S
H1576 C1553 0.950 . S
H1577 C1555 0.950 . S
C1578 C1579 1.349 . S
C1578 C1580 1.327 . S
C1578 H1603 0.950 . S
C1579 C1578 1.349 . S
C1579 C1595 1.349 . S
C1580 C1578 1.327 . S
C1580 C1599 1.429 . S
C1580 H1604 0.950 . S
C1581 C1598 1.574 . S
C1581 C1600 1.368 . S
C1581 H1605 0.949 . S
H1582 C1586 0.949 . S
C1583 C1584 1.349 . S
C1583 C1585 1.327 . S
C1583 H1606 0.950 . S
C1584 C1583 1.349 . S
C1584 C1596 1.349 . S
C1585 C1583 1.327 . S
C1585 C1601 1.429 . S
C1585 H1607 0.950 . S
C1586 H1582 0.949 . S
C1586 C1594 1.574 . S
C1586 C1602 1.368 . S
H1587 C1595 0.950 . S
H1588 C1593 0.950 . S
H1589 C1594 0.949 . S
H1590 C1596 0.950 . S
H1591 C1597 0.950 . S
H1592 C1598 0.949 . S
C1593 H1588 0.950 . S
C1593 C1595 1.327 . S
C1593 C1599 1.429 . S
C1594 C1586 1.574 . S
C1594 H1589 0.949 . S
C1594 C1600 1.368 . S
C1595 C1579 1.349 . S
C1595 H1587 0.950 . S
C1595 C1593 1.327 . S
C1596 C1584 1.349 . S
C1596 H1590 0.950 . S
C1596 C1597 1.327 . S
C1597 H1591 0.950 . S
C1597 C1596 1.327 . S
C1597 C1601 1.429 . S
C1598 C1581 1.574 . S
C1598 H1592 0.949 . S
C1598 C1602 1.368 . S
C1599 C1580 1.429 . S
C1599 C1593 1.429 . S
C1599 C1600 1.523 . S
C1600 C1581 1.368 . S
C1600 C1594 1.368 . S
C1600 C1599 1.523 . S
C1601 C1585 1.429 . S
C1601 C1597 1.429 . S
C1601 C1602 1.523 . S
C1602 C1586 1.368 . S
C1602 C1598 1.368 . S
C1602 C1601 1.523 . S
H1603 C1578 0.950 . S
H1604 C1580 0.950 . S
H1605 C1581 0.949 . S
H1606 C1583 0.950 . S
H1607 C1585 0.950 . S
C1608 C1609 1.349 . S
C1608 C1610 1.327 . S
C1608 H1633 0.950 . S
C1609 C1608 1.349 . S
C1609 C1625 1.349 . S
C1610 C1608 1.327 . S
C1610 C1629 1.429 . S
C1610 H1634 0.950 . S
C1611 C1628 1.574 . S
C1611 C1630 1.368 . S
C1611 H1635 0.949 . S
H1612 C1616 0.949 . S
C1613 C1614 1.349 . S
C1613 C1615 1.327 . S
C1613 H1636 0.950 . S
C1614 C1613 1.349 . S
C1614 C1626 1.349 . S
C1615 C1613 1.327 . S
C1615 C1631 1.429 . S
C1615 H1637 0.950 . S
C1616 H1612 0.949 . S
C1616 C1624 1.574 . S
C1616 C1632 1.368 . S
H1617 C1625 0.950 . S
H1618 C1623 0.950 . S
H1619 C1624 0.949 . S
H1620 C1626 0.950 . S
H1621 C1627 0.950 . S
H1622 C1628 0.949 . S
C1623 H1618 0.950 . S
C1623 C1625 1.327 . S
C1623 C1629 1.429 . S
C1624 C1616 1.574 . S
C1624 H1619 0.949 . S
C1624 C1630 1.368 . S
C1625 C1609 1.349 . S
C1625 H1617 0.950 . S
C1625 C1623 1.327 . S
C1626 C1614 1.349 . S
C1626 H1620 0.950 . S
C1626 C1627 1.327 . S
C1627 H1621 0.950 . S
C1627 C1626 1.327 . S
C1627 C1631 1.429 . S
C1628 C1611 1.574 . S
C1628 H1622 0.949 . S
C1628 C1632 1.368 . S
C1629 C1610 1.429 . S
C1629 C1623 1.429 . S
C1629 C1630 1.523 . S
C1630 C1611 1.368 . S
C1630 C1624 1.368 . S
C1630 C1629 1.523 . S
C1631 C1615 1.429 . S
C1631 C1627 1.429 . S
C1631 C1632 1.523 . S
C1632 C1616 1.368 . S
C1632 C1628 1.368 . S
C1632 C1631 1.523 . S
H1633 C1608 0.950 . S
H1634 C1610 0.950 . S
H1635 C1611 0.949 . S
H1636 C1613 0.950 . S
H1637 C1615 0.950 . S
C1638 C1639 1.349 . S
C1638 C1640 1.327 . S
C1638 H1663 0.950 . S
C1639 C1638 1.349 . S
C1639 C1655 1.349 . S
C1640 C1638 1.327 . S
C1640 C1659 1.429 . S
C1640 H1664 0.950 . S
C1641 C1658 1.574 . S
C1641 C1660 1.368 . S
C1641 H1665 0.949 . S
H1642 C1646 0.949 . S
C1643 C1644 1.349 . S
C1643 C1645 1.327 . S
C1643 H1666 0.950 . S
C1644 C1643 1.349 . S
C1644 C1656 1.349 . S
C1645 C1643 1.327 . S
C1645 C1661 1.429 . S
C1645 H1667 0.950 . S
C1646 H1642 0.949 . S
C1646 C1654 1.574 . S
C1646 C1662 1.368 . S
H1647 C1655 0.950 . S
H1648 C1653 0.950 . S
H1649 C1654 0.949 . S
H1650 C1656 0.950 . S
H1651 C1657 0.950 . S
H1652 C1658 0.949 . S
C1653 H1648 0.950 . S
C1653 C1655 1.327 . S
C1653 C1659 1.429 . S
C1654 C1646 1.574 . S
C1654 H1649 0.949 . S
C1654 C1660 1.368 . S
C1655 C1639 1.349 . S
C1655 H1647 0.950 . S
C1655 C1653 1.327 . S
C1656 C1644 1.349 . S
C1656 H1650 0.950 . S
C1656 C1657 1.327 . S
C1657 H1651 0.950 . S
C1657 C1656 1.327 . S
C1657 C1661 1.429 . S
C1658 C1641 1.574 . S
C1658 H1652 0.949 . S
C1658 C1662 1.368 . S
C1659 C1640 1.429 . S
C1659 C1653 1.429 . S
C1659 C1660 1.523 . S
C1660 C1641 1.368 . S
C1660 C1654 1.368 . S
C1660 C1659 1.523 . S
C1661 C1645 1.429 . S
C1661 C1657 1.429 . S
C1661 C1662 1.523 . S
C1662 C1646 1.368 . S
C1662 C1658 1.368 . S
C1662 C1661 1.523 . S
H1663 C1638 0.950 . S
H1664 C1640 0.950 . S
H1665 C1641 0.949 . S
H1666 C1643 0.950 . S
H1667 C1645 0.950 . S
C1668 C1669 1.349 . S
C1668 C1670 1.327 . S
C1668 H1693 0.950 . S
C1669 C1668 1.349 . S
C1669 C1685 1.349 . S
C1670 C1668 1.327 . S
C1670 C1689 1.429 . S
C1670 H1694 0.950 . S
C1671 C1688 1.574 . S
C1671 C1690 1.368 . S
C1671 H1695 0.949 . S
H1672 C1676 0.949 . S
C1673 C1674 1.349 . S
C1673 C1675 1.327 . S
C1673 H1696 0.950 . S
C1674 C1673 1.349 . S
C1674 C1686 1.349 . S
C1675 C1673 1.327 . S
C1675 C1691 1.429 . S
C1675 H1697 0.950 . S
C1676 H1672 0.949 . S
C1676 C1684 1.574 . S
C1676 C1692 1.368 . S
H1677 C1685 0.950 . S
H1678 C1683 0.950 . S
H1679 C1684 0.949 . S
H1680 C1686 0.950 . S
H1681 C1687 0.950 . S
H1682 C1688 0.949 . S
C1683 H1678 0.950 . S
C1683 C1685 1.327 . S
C1683 C1689 1.429 . S
C1684 C1676 1.574 . S
C1684 H1679 0.949 . S
C1684 C1690 1.368 . S
C1685 C1669 1.349 . S
C1685 H1677 0.950 . S
C1685 C1683 1.327 . S
C1686 C1674 1.349 . S
C1686 H1680 0.950 . S
C1686 C1687 1.327 . S
C1687 H1681 0.950 . S
C1687 C1686 1.327 . S
C1687 C1691 1.429 . S
C1688 C1671 1.574 . S
C1688 H1682 0.949 . S
C1688 C1692 1.368 . S
C1689 C1670 1.429 . S
C1689 C1683 1.429 . S
C1689 C1690 1.523 . S
C1690 C1671 1.368 . S
C1690 C1684 1.368 . S
C1690 C1689 1.523 . S
C1691 C1675 1.429 . S
C1691 C1687 1.429 . S
C1691 C1692 1.523 . S
C1692 C1676 1.368 . S
C1692 C1688 1.368 . S
C1692 C1691 1.523 . S
H1693 C1668 0.950 . S
H1694 C1670 0.950 . S
H1695 C1671 0.949 . S
H1696 C1673 0.950 . S
H1697 C1675 0.950 . S
C1698 C1699 1.349 . S
C1698 C1700 1.327 . S
C1698 H1723 0.950 . S
C1699 C1698 1.349 . S
C1699 C1715 1.349 . S
C1700 C1698 1.327 . S
C1700 C1719 1.429 . S
C1700 H1724 0.950 . S
C1701 C1718 1.574 . S
C1701 C1720 1.368 . S
C1701 H1725 0.949 . S
H1702 C1706 0.949 . S
C1703 C1704 1.349 . S
C1703 C1705 1.327 . S
C1703 H1726 0.950 . S
C1704 C1703 1.349 . S
C1704 C1716 1.349 . S
C1705 C1703 1.327 . S
C1705 C1721 1.429 . S
C1705 H1727 0.950 . S
C1706 H1702 0.949 . S
C1706 C1714 1.574 . S
C1706 C1722 1.368 . S
H1707 C1715 0.950 . S
H1708 C1713 0.950 . S
H1709 C1714 0.949 . S
H1710 C1716 0.950 . S
H1711 C1717 0.950 . S
H1712 C1718 0.949 . S
C1713 H1708 0.950 . S
C1713 C1715 1.327 . S
C1713 C1719 1.429 . S
C1714 C1706 1.574 . S
C1714 H1709 0.949 . S
C1714 C1720 1.368 . S
C1715 C1699 1.349 . S
C1715 H1707 0.950 . S
C1715 C1713 1.327 . S
C1716 C1704 1.349 . S
C1716 H1710 0.950 . S
C1716 C1717 1.327 . S
C1717 H1711 0.950 . S
C1717 C1716 1.327 . S
C1717 C1721 1.429 . S
C1718 C1701 1.574 . S
C1718 H1712 0.949 . S
C1718 C1722 1.368 . S
C1719 C1700 1.429 . S
C1719 C1713 1.429 . S
C1719 C1720 1.523 . S
C1720 C1701 1.368 . S
C1720 C1714 1.368 . S
C1720 C1719 1.523 . S
C1721 C1705 1.429 . S
C1721 C1717 1.429 . S
C1721 C1722 1.523 . S
C1722 C1706 1.368 . S
C1722 C1718 1.368 . S
C1722 C1721 1.523 . S
H1723 C1698 0.950 . S
H1724 C1700 0.950 . S
H1725 C1701 0.949 . S
H1726 C1703 0.950 . S
H1727 C1705 0.950 . S
C529 C338 1.507 . S
C534 C8 1.507 . S
C559 C61 1.506 . S
C564 C259 1.506 . S
C589 C503 1.507 . S
C594 C41 1.507 . S
C619 C94 1.506 . S
C624 C28 1.506 . S
C649 C74 1.507 . S
C654 C272 1.507 . S
C679 C193 1.506 . S
C684 C127 1.506 . S
C709 C437 1.507 . S
C714 C107 1.507 . S
C739 C470 1.507 . S
C744 C140 1.507 . S
C769 C173 1.507 . S
C774 C371 1.507 . S
C799 C226 1.506 . S
C804 C160 1.506 . S
C829 C404 1.507 . S
C834 C206 1.507 . S
C859 C305 1.507 . S
C864 C239 1.507 . S
C889 C523 1.506 . S
C894 C325 1.506 . S
C919 C292 1.506 . S
C924 C358 1.506 . S
C949 C391 1.506 . S
C954 C457 1.506 . S
C979 C490 1.506 . S
C984 C424 1.506 . S
C1009 N14 1.332 . S
C1014 N5 1.337 . S
C1039 N47 1.332 . S
C1044 N38 1.337 . S
C1069 N80 1.332 . S
C1074 N71 1.337 . S
C1099 N113 1.332 . S
C1104 N104 1.337 . S
C1129 N137 1.337 . S
C1134 N146 1.332 . S
C1159 N179 1.332 . S
C1164 N170 1.337 . S
C1189 N212 1.332 . S
C1194 N203 1.337 . S
C1219 N236 1.337 . S
C1224 N245 1.332 . S
C1249 N278 1.332 . S
C1254 N269 1.337 . S
C1279 N302 1.337 . S
C1284 N311 1.332 . S
C1309 N344 1.332 . S
C1314 N335 1.337 . S
C1339 N368 1.337 . S
C1344 N377 1.332 . S
C1369 N410 1.332 . S
C1374 N401 1.337 . S
C1399 N443 1.332 . S
C1404 N434 1.337 . S
C1429 N476 1.332 . S
C1434 N467 1.337 . S
C1459 N509 1.332 . S
C1464 N500 1.337 . S
C1489 C17 1.498 . S
C1494 C50 1.498 . S
C1519 C83 1.498 . S
C1524 C116 1.498 . S
C1549 C149 1.499 . S
C1554 C182 1.499 . S
C1579 C215 1.499 . S
C1584 C248 1.499 . S
C1609 C314 1.498 . S
C1614 C281 1.498 . S
C1639 C347 1.498 . S
C1644 C380 1.498 . S
C1669 C446 1.499 . S
C1674 C413 1.499 . S
C1699 C512 1.499 . S
C1704 C479 1.499 . S
