# Generated by pormake.
# Topology umu, (4)-cn, num edge types: 1
# Building blocks:
#     Node 0, Type 0, BuildingBlock: GALJAG_clean_sbu_0, # of connection points: 4
#     Node 1, Type 0, BuildingBlock: GALJAG_clean_sbu_0, # of connection points: 4
#     Node 2, Type 0, BuildingBlock: GALJAG_clean_sbu_0, # of connection points: 4
#     Node 3, Type 0, BuildingBlock: GALJAG_clean_sbu_0, # of connection points: 4
#     Node 4, Type 0, BuildingBlock: GALJAG_clean_sbu_0, # of connection points: 4
#     Node 5, Type 0, BuildingBlock: GALJAG_clean_sbu_0, # of connection points: 4
#     Node 6, Type 0, BuildingBlock: GALJAG_clean_sbu_0, # of connection points: 4
#     Node 7, Type 0, BuildingBlock: GALJAG_clean_sbu_0, # of connection points: 4
#     Node 8, Type 0, BuildingBlock: GALJAG_clean_sbu_0, # of connection points: 4
#     Node 9, Type 0, BuildingBlock: GALJAG_clean_sbu_0, # of connection points: 4
#     Node 10, Type 0, BuildingBlock: GALJAG_clean_sbu_0, # of connection points: 4
#     Node 11, Type 0, BuildingBlock: GALJAG_clean_sbu_0, # of connection points: 4
#     Node 12, Type 0, BuildingBlock: GALJAG_clean_sbu_0, # of connection points: 4
#     Node 13, Type 0, BuildingBlock: GALJAG_clean_sbu_0, # of connection points: 4
#     Node 14, Type 0, BuildingBlock: GALJAG_clean_sbu_0, # of connection points: 4
#     Node 15, Type 0, BuildingBlock: GALJAG_clean_sbu_0, # of connection points: 4
#     Node 16, Type 0, BuildingBlock: GALJAG_clean_sbu_0, # of connection points: 4
#     Node 17, Type 0, BuildingBlock: GALJAG_clean_sbu_0, # of connection points: 4
#     Node 18, Type 0, BuildingBlock: GALJAG_clean_sbu_0, # of connection points: 4
#     Node 19, Type 0, BuildingBlock: GALJAG_clean_sbu_0, # of connection points: 4
#     Node 20, Type 0, BuildingBlock: GALJAG_clean_sbu_0, # of connection points: 4
#     Node 21, Type 0, BuildingBlock: GALJAG_clean_sbu_0, # of connection points: 4
#     Node 22, Type 0, BuildingBlock: GALJAG_clean_sbu_0, # of connection points: 4
#     Node 23, Type 0, BuildingBlock: GALJAG_clean_sbu_0, # of connection points: 4
#     Node 24, Type 0, BuildingBlock: GALJAG_clean_sbu_0, # of connection points: 4
#     Node 25, Type 0, BuildingBlock: GALJAG_clean_sbu_0, # of connection points: 4
#     Node 26, Type 0, BuildingBlock: GALJAG_clean_sbu_0, # of connection points: 4
#     Node 27, Type 0, BuildingBlock: GALJAG_clean_sbu_0, # of connection points: 4
#     Node 28, Type 0, BuildingBlock: GALJAG_clean_sbu_0, # of connection points: 4
#     Node 29, Type 0, BuildingBlock: GALJAG_clean_sbu_0, # of connection points: 4
#     Node 30, Type 0, BuildingBlock: GALJAG_clean_sbu_0, # of connection points: 4
#     Node 31, Type 0, BuildingBlock: GALJAG_clean_sbu_0, # of connection points: 4
#     Edge 32, Type (0, 0), BuildingBlock: ZUJKAS_clean_linker_0, # of connection points: 2
#     Edge 33, Type (0, 0), BuildingBlock: ZUJKAS_clean_linker_0, # of connection points: 2
#     Edge 34, Type (0, 0), BuildingBlock: ZUJKAS_clean_linker_0, # of connection points: 2
#     Edge 35, Type (0, 0), BuildingBlock: ZUJKAS_clean_linker_0, # of connection points: 2
#     Edge 36, Type (0, 0), BuildingBlock: ZUJKAS_clean_linker_0, # of connection points: 2
#     Edge 37, Type (0, 0), BuildingBlock: ZUJKAS_clean_linker_0, # of connection points: 2
#     Edge 38, Type (0, 0), BuildingBlock: ZUJKAS_clean_linker_0, # of connection points: 2
#     Edge 39, Type (0, 0), BuildingBlock: ZUJKAS_clean_linker_0, # of connection points: 2
#     Edge 40, Type (0, 0), BuildingBlock: ZUJKAS_clean_linker_0, # of connection points: 2
#     Edge 41, Type (0, 0), BuildingBlock: ZUJKAS_clean_linker_0, # of connection points: 2
#     Edge 42, Type (0, 0), BuildingBlock: ZUJKAS_clean_linker_0, # of connection points: 2
#     Edge 43, Type (0, 0), BuildingBlock: ZUJKAS_clean_linker_0, # of connection points: 2
#     Edge 44, Type (0, 0), BuildingBlock: ZUJKAS_clean_linker_0, # of connection points: 2
#     Edge 45, Type (0, 0), BuildingBlock: ZUJKAS_clean_linker_0, # of connection points: 2
#     Edge 46, Type (0, 0), BuildingBlock: ZUJKAS_clean_linker_0, # of connection points: 2
#     Edge 47, Type (0, 0), BuildingBlock: ZUJKAS_clean_linker_0, # of connection points: 2
#     Edge 48, Type (0, 0), BuildingBlock: ZUJKAS_clean_linker_0, # of connection points: 2
#     Edge 49, Type (0, 0), BuildingBlock: ZUJKAS_clean_linker_0, # of connection points: 2
#     Edge 50, Type (0, 0), BuildingBlock: ZUJKAS_clean_linker_0, # of connection points: 2
#     Edge 51, Type (0, 0), BuildingBlock: ZUJKAS_clean_linker_0, # of connection points: 2
#     Edge 52, Type (0, 0), BuildingBlock: ZUJKAS_clean_linker_0, # of connection points: 2
#     Edge 53, Type (0, 0), BuildingBlock: ZUJKAS_clean_linker_0, # of connection points: 2
#     Edge 54, Type (0, 0), BuildingBlock: ZUJKAS_clean_linker_0, # of connection points: 2
#     Edge 55, Type (0, 0), BuildingBlock: ZUJKAS_clean_linker_0, # of connection points: 2
#     Edge 56, Type (0, 0), BuildingBlock: ZUJKAS_clean_linker_0, # of connection points: 2
#     Edge 57, Type (0, 0), BuildingBlock: ZUJKAS_clean_linker_0, # of connection points: 2
#     Edge 58, Type (0, 0), BuildingBlock: ZUJKAS_clean_linker_0, # of connection points: 2
#     Edge 59, Type (0, 0), BuildingBlock: ZUJKAS_clean_linker_0, # of connection points: 2
#     Edge 60, Type (0, 0), BuildingBlock: ZUJKAS_clean_linker_0, # of connection points: 2
#     Edge 61, Type (0, 0), BuildingBlock: ZUJKAS_clean_linker_0, # of connection points: 2
#     Edge 62, Type (0, 0), BuildingBlock: ZUJKAS_clean_linker_0, # of connection points: 2
#     Edge 63, Type (0, 0), BuildingBlock: ZUJKAS_clean_linker_0, # of connection points: 2
#     Edge 64, Type (0, 0), BuildingBlock: ZUJKAS_clean_linker_0, # of connection points: 2
#     Edge 65, Type (0, 0), BuildingBlock: ZUJKAS_clean_linker_0, # of connection points: 2
#     Edge 66, Type (0, 0), BuildingBlock: ZUJKAS_clean_linker_0, # of connection points: 2
#     Edge 67, Type (0, 0), BuildingBlock: ZUJKAS_clean_linker_0, # of connection points: 2
#     Edge 68, Type (0, 0), BuildingBlock: ZUJKAS_clean_linker_0, # of connection points: 2
#     Edge 69, Type (0, 0), BuildingBlock: ZUJKAS_clean_linker_0, # of connection points: 2
#     Edge 70, Type (0, 0), BuildingBlock: ZUJKAS_clean_linker_0, # of connection points: 2
#     Edge 71, Type (0, 0), BuildingBlock: ZUJKAS_clean_linker_0, # of connection points: 2
#     Edge 72, Type (0, 0), BuildingBlock: ZUJKAS_clean_linker_0, # of connection points: 2
#     Edge 73, Type (0, 0), BuildingBlock: ZUJKAS_clean_linker_0, # of connection points: 2
#     Edge 74, Type (0, 0), BuildingBlock: ZUJKAS_clean_linker_0, # of connection points: 2
#     Edge 75, Type (0, 0), BuildingBlock: ZUJKAS_clean_linker_0, # of connection points: 2
#     Edge 76, Type (0, 0), BuildingBlock: ZUJKAS_clean_linker_0, # of connection points: 2
#     Edge 77, Type (0, 0), BuildingBlock: ZUJKAS_clean_linker_0, # of connection points: 2
#     Edge 78, Type (0, 0), BuildingBlock: ZUJKAS_clean_linker_0, # of connection points: 2
#     Edge 79, Type (0, 0), BuildingBlock: ZUJKAS_clean_linker_0, # of connection points: 2
#     Edge 80, Type (0, 0), BuildingBlock: ZUJKAS_clean_linker_0, # of connection points: 2
#     Edge 81, Type (0, 0), BuildingBlock: ZUJKAS_clean_linker_0, # of connection points: 2
#     Edge 82, Type (0, 0), BuildingBlock: ZUJKAS_clean_linker_0, # of connection points: 2
#     Edge 83, Type (0, 0), BuildingBlock: ZUJKAS_clean_linker_0, # of connection points: 2
#     Edge 84, Type (0, 0), BuildingBlock: ZUJKAS_clean_linker_0, # of connection points: 2
#     Edge 85, Type (0, 0), BuildingBlock: ZUJKAS_clean_linker_0, # of connection points: 2
#     Edge 86, Type (0, 0), BuildingBlock: ZUJKAS_clean_linker_0, # of connection points: 2
#     Edge 87, Type (0, 0), BuildingBlock: ZUJKAS_clean_linker_0, # of connection points: 2
#     Edge 88, Type (0, 0), BuildingBlock: ZUJKAS_clean_linker_0, # of connection points: 2
#     Edge 89, Type (0, 0), BuildingBlock: ZUJKAS_clean_linker_0, # of connection points: 2
#     Edge 90, Type (0, 0), BuildingBlock: ZUJKAS_clean_linker_0, # of connection points: 2
#     Edge 91, Type (0, 0), BuildingBlock: ZUJKAS_clean_linker_0, # of connection points: 2
#     Edge 92, Type (0, 0), BuildingBlock: ZUJKAS_clean_linker_0, # of connection points: 2
#     Edge 93, Type (0, 0), BuildingBlock: ZUJKAS_clean_linker_0, # of connection points: 2
#     Edge 94, Type (0, 0), BuildingBlock: ZUJKAS_clean_linker_0, # of connection points: 2
#     Edge 95, Type (0, 0), BuildingBlock: ZUJKAS_clean_linker_0, # of connection points: 2
# Relax obj value: 0.103
# Max RMSD: 0.078
# Mean RMSD: 0.078
data_MOF--net-umu--node1-GALJAG_clean_sbu_0--edge1-ZUJKAS_clean_linker_0
_symmetry_space_group_name_H-M    P1
_symmetry_Int_Tables_number       1
_symmetry_cell_setting            triclinic
loop_
_symmetry_equiv_pos_as_xyz
'x, y, z'
_cell_length_a     103.3837
_cell_length_b     103.31676
_cell_length_c     35.416599
_cell_angle_alpha  90.00365
_cell_angle_beta   90.009646
_cell_angle_gamma 90.010203
loop_
_atom_site_label
_atom_site_type_symbol
_atom_site_fract_x
_atom_site_fract_y
_atom_site_fract_z
_atom_type_partial_charge
In0 In 0.21036 0.15603 0.07013 0.0
O1 O 0.21746 0.14202 0.02483 0.0
O2 O 0.22677 0.16031 0.02915 0.0
C3 C 0.22152 0.14772 0.13489 0.0
C4 C 0.18796 0.14603 0.04404 0.0
C5 C 0.20651 0.18163 0.08087 0.0
O6 O 0.22793 0.15046 0.10572 0.0
O7 O 0.20946 0.14895 0.13125 0.0
O8 O 0.2128 0.17711 0.05344 0.0
O9 O 0.20202 0.17322 0.10311 0.0
C10 C 0.22583 0.1497 0.01172 0.0
O11 O 0.19172 0.15731 0.03607 0.0
O12 O 0.19526 0.13995 0.06641 0.0
In13 In 0.09331 0.96246 0.31576 0.0
O14 O 0.10032 0.97818 0.27507 0.0
O15 O 0.0858 0.96516 0.25605 0.0
C16 C 0.10222 0.97222 0.38148 0.0
C17 C 0.10892 0.94296 0.29415 0.0
C18 C 0.0681 0.96 0.33348 0.0
O19 O 0.09987 0.9792 0.35308 0.0
O20 O 0.10028 0.96028 0.37653 0.0
O21 O 0.07561 0.95037 0.33158 0.0
O22 O 0.07337 0.97078 0.32689 0.0
C23 C 0.09304 0.97461 0.24839 0.0
O24 O 0.09704 0.9413 0.30072 0.0
O25 O 0.11297 0.9543 0.3 0.0
In26 In 0.28938 0.84318 0.57052 0.0
O27 O 0.31056 0.84462 0.55331 0.0
O28 O 0.29989 0.86211 0.5587 0.0
C29 C 0.2898 0.81783 0.58836 0.0
C30 C 0.27728 0.84449 0.50315 0.0
C31 C 0.27984 0.85258 0.63585 0.0
O32 O 0.2999 0.82469 0.58833 0.0
O33 O 0.27956 0.82379 0.57986 0.0
O34 O 0.27285 0.85046 0.60731 0.0
O35 O 0.2917 0.85019 0.63122 0.0
C36 C 0.31049 0.85679 0.55024 0.0
O37 O 0.27439 0.8519 0.53021 0.0
O38 O 0.28609 0.83644 0.51033 0.0
In39 In 0.403 0.039 0.82338 0.0
O40 O 0.39414 0.02431 0.78249 0.0
O41 O 0.40858 0.03708 0.76167 0.0
C42 C 0.39508 0.02836 0.88899 0.0
C43 C 0.38846 0.05999 0.80799 0.0
C44 C 0.42868 0.03959 0.83602 0.0
O45 O 0.39584 0.02201 0.85867 0.0
O46 O 0.39811 0.04015 0.88609 0.0
O47 O 0.42163 0.04951 0.83927 0.0
O48 O 0.42274 0.0294 0.82686 0.0
C49 C 0.40078 0.02803 0.7546 0.0
O50 O 0.4006 0.06053 0.811 0.0
O51 O 0.38364 0.04898 0.81428 0.0
In52 In 0.21125 0.84507 0.06244 0.0
O53 O 0.22791 0.84977 0.10274 0.0
O54 O 0.21079 0.84148 0.12556 0.0
C55 C 0.22155 0.85401 0.99754 0.0
C56 C 0.19136 0.86095 0.07851 0.0
C57 C 0.21018 0.81939 0.04889 0.0
O58 O 0.22768 0.85398 0.02835 0.0
O59 O 0.21014 0.84974 -0.00039 0.0
O60 O 0.20036 0.8266 0.04643 0.0
O61 O 0.22047 0.82516 0.05781 0.0
C62 C 0.22195 0.8459 0.13175 0.0
O63 O 0.18986 0.84895 0.07327 0.0
O64 O 0.20278 0.86498 0.07385 0.0
In65 In 0.40584 0.96078 0.31803 0.0
O66 O 0.40565 0.94081 0.34525 0.0
O67 O 0.38781 0.94829 0.32507 0.0
C68 C 0.43096 0.959 0.2986 0.0
C69 C 0.40327 0.97416 0.38307 0.0
C70 C 0.39673 0.97059 0.25268 0.0
O71 O 0.42348 0.94933 0.2983 0.0
O72 O 0.42572 0.96951 0.30831 0.0
O73 O 0.39907 0.97755 0.28116 0.0
O74 O 0.39875 0.95866 0.2574 0.0
C75 C 0.39362 0.9392 0.34173 0.0
O76 O 0.39453 0.97399 0.35819 0.0
O77 O 0.4133 0.96789 0.37467 0.0
In78 In 0.28626 0.15492 0.56858 0.0
O79 O 0.3074 0.15321 0.58633 0.0
O80 O 0.29631 0.13594 0.58241 0.0
C81 C 0.28755 0.18036 0.55261 0.0
C82 C 0.27374 0.15311 0.63523 0.0
C83 C 0.27725 0.14625 0.50167 0.0
O84 O 0.29747 0.17323 0.5536 0.0
O85 O 0.27702 0.17462 0.55938 0.0
O86 O 0.27 0.14819 0.52975 0.0
O87 O 0.28909 0.14843 0.5076 0.0
C88 C 0.30698 0.1411 0.59087 0.0
O89 O 0.27158 0.14539 0.60831 0.0
O90 O 0.28184 0.16188 0.62799 0.0
In91 In 0.09552 0.04119 0.80852 0.0
O92 O 0.09897 0.06299 0.81369 0.0
O93 O 0.11432 0.05037 0.82865 0.0
C94 C 0.07038 0.04502 0.79191 0.0
C95 C 0.0949 0.02766 0.87401 0.0
C96 C 0.10448 0.03037 0.74436 0.0
O97 O 0.07682 0.05276 0.81209 0.0
O98 O 0.07665 0.03541 0.77973 0.0
O99 O 0.10167 0.02385 0.77335 0.0
O100 O 0.10295 0.04244 0.74786 0.0
C101 C 0.1103 0.06186 0.82642 0.0
O102 O 0.10429 0.02706 0.85143 0.0
O103 O 0.08577 0.0348 0.86317 0.0
In104 In 0.78788 0.84296 0.06233 0.0
O105 O 0.77102 0.84827 0.10125 0.0
O106 O 0.78528 0.83524 0.12179 0.0
C107 C 0.7789 0.85273 0.99674 0.0
C108 C 0.8067 0.85865 0.08802 0.0
C109 C 0.79057 0.81793 0.04244 0.0
O110 O 0.77164 0.85025 0.02443 0.0
O111 O 0.79075 0.85057 0.00241 0.0
O112 O 0.80016 0.82541 0.04596 0.0
O113 O 0.77974 0.82314 0.04851 0.0
C114 C 0.77501 0.8414 0.12835 0.0
O115 O 0.80878 0.847 0.07919 0.0
O116 O 0.7953 0.86251 0.08219 0.0
In117 In 0.90712 0.03798 0.82441 0.0
O118 O 0.9012 0.02061 0.86092 0.0
O119 O 0.90837 0.03749 0.8882 0.0
C120 C 0.89912 0.02578 0.76107 0.0
C121 C 0.89215 0.05858 0.84008 0.0
C122 C 0.93267 0.04162 0.81185 0.0
O123 O 0.90462 0.0199 0.78785 0.0
O124 O 0.89746 0.03772 0.76658 0.0
O125 O 0.92412 0.0474 0.79293 0.0
O126 O 0.92834 0.0341 0.83677 0.0
C127 C 0.904 0.02617 0.89166 0.0
O128 O 0.90424 0.0595 0.83578 0.0
O129 O 0.88761 0.04737 0.83497 0.0
In130 In 0.71234 0.15363 0.57083 0.0
O131 O 0.72894 0.15867 0.6106 0.0
O132 O 0.7201 0.14024 0.61677 0.0
C133 C 0.72324 0.14509 0.50604 0.0
C134 C 0.69015 0.14329 0.59722 0.0
C135 C 0.70733 0.1789 0.55794 0.0
O136 O 0.72982 0.14939 0.53326 0.0
O137 O 0.71121 0.14489 0.51175 0.0
O138 O 0.70433 0.17017 0.53463 0.0
O139 O 0.71274 0.17486 0.58756 0.0
C140 C 0.72835 0.14821 0.6289 0.0
O141 O 0.69337 0.15486 0.60339 0.0
O142 O 0.69791 0.13704 0.57665 0.0
In143 In 0.59422 0.9597 0.31135 0.0
O144 O 0.59873 0.97698 0.34988 0.0
O145 O 0.58914 0.96069 0.37351 0.0
C146 C 0.60248 0.96892 0.24421 0.0
C147 C 0.61013 0.94004 0.33014 0.0
C148 C 0.56868 0.95811 0.29738 0.0
O149 O 0.60485 0.97463 0.27496 0.0
O150 O 0.59624 0.95849 0.2475 0.0
O151 O 0.57599 0.94832 0.29696 0.0
O152 O 0.57428 0.96869 0.30466 0.0
C153 C 0.59391 0.97175 0.37893 0.0
O154 O 0.59816 0.93847 0.32508 0.0
O155 O 0.61414 0.95135 0.32382 0.0
In156 In 0.78889 0.15414 0.07358 0.0
O157 O 0.81027 0.15202 0.05872 0.0
O158 O 0.79882 0.13497 0.06139 0.0
C159 C 0.78943 0.17961 0.08934 0.0
C160 C 0.77739 0.15262 0.00533 0.0
C161 C 0.77915 0.14543 0.13953 0.0
O162 O 0.7995 0.1727 0.0896 0.0
O163 O 0.77913 0.17364 0.08139 0.0
O164 O 0.77242 0.14638 0.10993 0.0
O165 O 0.79085 0.14862 0.13565 0.0
C166 C 0.8097 0.13992 0.05424 0.0
O167 O 0.7742 0.14536 0.03246 0.0
O168 O 0.78605 0.16079 0.01306 0.0
In169 In 0.59288 0.03992 0.81761 0.0
O170 O 0.59513 0.06156 0.80714 0.0
O171 O 0.61224 0.0503 0.81088 0.0
C172 C 0.56708 0.04019 0.82747 0.0
C173 C 0.59431 0.02834 0.74935 0.0
C174 C 0.60065 0.03037 0.88492 0.0
O175 O 0.57396 0.05024 0.83044 0.0
O176 O 0.57324 0.02998 0.81958 0.0
O177 O 0.6053 0.02637 0.8541 0.0
O178 O 0.59241 0.03928 0.88165 0.0
C179 C 0.60729 0.06128 0.80509 0.0
O180 O 0.5976 0.02259 0.77934 0.0
O181 O 0.59035 0.03975 0.75405 0.0
In182 In 0.71053 0.84233 0.57116 0.0
O183 O 0.7268 0.84664 0.5292 0.0
O184 O 0.71036 0.83625 0.50961 0.0
C185 C 0.72145 0.85185 0.63451 0.0
C186 C 0.69131 0.85869 0.5524 0.0
C187 C 0.70841 0.81711 0.58981 0.0
O188 O 0.72764 0.85047 0.60407 0.0
O189 O 0.70969 0.84862 0.63282 0.0
O190 O 0.69885 0.8247 0.59027 0.0
O191 O 0.71897 0.82227 0.58032 0.0
C192 C 0.72116 0.84123 0.50176 0.0
O193 O 0.6893 0.8469 0.55966 0.0
O194 O 0.70288 0.8623 0.55628 0.0
In195 In 0.90412 0.95818 0.32982 0.0
O196 O 0.89966 0.93688 0.31963 0.0
O197 O 0.88398 0.95021 0.3189 0.0
C198 C 0.92991 0.95689 0.34041 0.0
C199 C 0.90314 0.9694 0.26112 0.0
C200 C 0.89623 0.96753 0.39712 0.0
O201 O 0.92282 0.94694 0.34044 0.0
O202 O 0.92397 0.9674 0.33531 0.0
O203 O 0.89512 0.97389 0.36684 0.0
O204 O 0.90105 0.9564 0.39325 0.0
C205 C 0.88771 0.93867 0.31454 0.0
O206 O 0.89982 0.97536 0.29074 0.0
O207 O 0.90704 0.95799 0.26641 0.0
In208 In 0.71051 0.65418 0.57065 0.0
O209 O 0.68922 0.6509 0.5566 0.0
O210 O 0.70153 0.63446 0.55946 0.0
C211 C 0.70842 0.67956 0.58736 0.0
C212 C 0.72165 0.65316 0.50187 0.0
C213 C 0.72159 0.64568 0.63502 0.0
O214 O 0.699 0.67184 0.5901 0.0
O215 O 0.71885 0.67444 0.57645 0.0
O216 O 0.72795 0.64776 0.60523 0.0
O217 O 0.7096 0.6477 0.63221 0.0
C218 C 0.69037 0.63882 0.55268 0.0
O219 O 0.72574 0.64658 0.52944 0.0
O220 O 0.71219 0.66041 0.50932 0.0
In221 In 0.59501 0.4592 0.82047 0.0
O222 O 0.60066 0.47497 0.77817 0.0
O223 O 0.58999 0.45876 0.75818 0.0
C224 C 0.60396 0.47014 0.88454 0.0
C225 C 0.61049 0.43891 0.80539 0.0
C226 C 0.56939 0.45835 0.83431 0.0
O227 O 0.60338 0.47617 0.85362 0.0
O228 O 0.60023 0.45853 0.88299 0.0
O229 O 0.57653 0.44848 0.83698 0.0
O230 O 0.57523 0.46861 0.82538 0.0
C231 C 0.59544 0.46934 0.7504 0.0
O232 O 0.5986 0.43762 0.81258 0.0
O233 O 0.61465 0.45037 0.80745 0.0
In234 In 0.78665 0.34318 0.07238 0.0
O235 O 0.77121 0.3513 0.03252 0.0
O236 O 0.78274 0.33558 0.01342 0.0
C237 C 0.77778 0.35234 0.13875 0.0
C238 C 0.80673 0.35776 0.04934 0.0
C239 C 0.78804 0.31788 0.09007 0.0
O240 O 0.7705 0.35036 0.11074 0.0
O241 O 0.78958 0.34994 0.13304 0.0
O242 O 0.79799 0.32494 0.08761 0.0
O243 O 0.77748 0.32365 0.08406 0.0
C244 C 0.77388 0.34356 0.00604 0.0
O245 O 0.80774 0.34573 0.05485 0.0
O246 O 0.79577 0.36244 0.05695 0.0
In247 In 0.90385 0.53851 0.32305 0.0
O248 O 0.89638 0.52305 0.28207 0.0
O249 O 0.90993 0.53686 0.26176 0.0
C250 C 0.89468 0.52864 0.38828 0.0
C251 C 0.88956 0.55937 0.30483 0.0
C252 C 0.92932 0.539 0.33939 0.0
O253 O 0.89641 0.52183 0.35914 0.0
O254 O 0.89731 0.54048 0.38425 0.0
O255 O 0.92239 0.54906 0.34008 0.0
O256 O 0.92336 0.52876 0.33094 0.0
C257 C 0.90294 0.52719 0.25451 0.0
O258 O 0.90162 0.55997 0.31013 0.0
O259 O 0.88465 0.54833 0.31009 0.0
In260 In 0.70925 0.34059 0.56455 0.0
O261 O 0.68838 0.34274 0.58462 0.0
O262 O 0.69926 0.35985 0.57503 0.0
C263 C 0.70678 0.31557 0.54453 0.0
C264 C 0.72127 0.34154 0.63207 0.0
C265 C 0.72052 0.34969 0.50129 0.0
O266 O 0.69751 0.3235 0.5422 0.0
O267 O 0.71724 0.32032 0.55655 0.0
O268 O 0.72683 0.34693 0.5307 0.0
O269 O 0.70847 0.34799 0.50387 0.0
C270 C 0.68878 0.35493 0.58616 0.0
O271 O 0.72359 0.34956 0.60609 0.0
O272 O 0.71317 0.3329 0.6236 0.0
In273 In 0.90484 0.45957 0.81531 0.0
O274 O 0.90091 0.43823 0.82705 0.0
O275 O 0.88501 0.45125 0.82864 0.0
C276 C 0.93041 0.45798 0.80092 0.0
C277 C 0.90438 0.47087 0.88386 0.0
C278 C 0.89601 0.46991 0.75026 0.0
O279 O 0.92302 0.44828 0.7989 0.0
O280 O 0.92487 0.46842 0.80969 0.0
O281 O 0.89682 0.47628 0.78054 0.0
O282 O 0.89947 0.45823 0.75289 0.0
C283 C 0.889 0.43982 0.8332 0.0
O284 O 0.89934 0.47608 0.85515 0.0
O285 O 0.90974 0.46011 0.87778 0.0
In286 In 0.78824 0.65527 0.06426 0.0
O287 O 0.80731 0.65525 0.09639 0.0
O288 O 0.8012 0.63757 0.07156 0.0
C289 C 0.79072 0.6802 0.04344 0.0
C290 C 0.77384 0.65339 0.12766 0.0
C291 C 0.77904 0.64572 0.99867 0.0
O292 O 0.80036 0.67278 0.04684 0.0
O293 O 0.77993 0.67497 0.05003 0.0
O294 O 0.7719 0.64778 0.02694 0.0
O295 O 0.79086 0.64818 0.00379 0.0
C296 C 0.80951 0.64337 0.09142 0.0
O297 O 0.77541 0.64395 0.10554 0.0
O298 O 0.77919 0.66373 0.11718 0.0
In299 In 0.5927 0.53715 0.31233 0.0
O300 O 0.59648 0.55818 0.32863 0.0
O301 O 0.61227 0.545 0.33043 0.0
C302 C 0.56748 0.5396 0.29432 0.0
C303 C 0.59229 0.52436 0.3786 0.0
C304 C 0.60211 0.52806 0.24642 0.0
O305 O 0.57502 0.5492 0.29584 0.0
O306 O 0.5727 0.52885 0.30152 0.0
O307 O 0.5996 0.52082 0.27414 0.0
O308 O 0.6001 0.53994 0.25215 0.0
C309 C 0.60826 0.55635 0.33639 0.0
O310 O 0.59876 0.5204 0.35064 0.0
O311 O 0.58592 0.53457 0.37279 0.0
In312 In 0.28659 0.34396 0.56205 0.0
O313 O 0.27208 0.33693 0.60565 0.0
O314 O 0.27698 0.35689 0.60631 0.0
C315 C 0.27847 0.35465 0.49658 0.0
C316 C 0.30839 0.3534 0.5934 0.0
C317 C 0.2884 0.31859 0.54489 0.0
O318 O 0.27192 0.35512 0.52657 0.0
O319 O 0.28928 0.34912 0.49988 0.0
O320 O 0.29826 0.3256 0.54977 0.0
O321 O 0.27775 0.32443 0.54816 0.0
C322 C 0.27073 0.34778 0.62146 0.0
O323 O 0.30283 0.34332 0.60516 0.0
O324 O 0.30325 0.35849 0.56465 0.0
In325 In 0.40434 0.53801 0.3115 0.0
O326 O 0.39847 0.5216 0.35147 0.0
O327 O 0.40942 0.53723 0.37385 0.0
C328 C 0.39607 0.52797 0.24528 0.0
C329 C 0.38845 0.55776 0.32916 0.0
C330 C 0.42988 0.54005 0.29705 0.0
O331 O 0.39683 0.52135 0.27513 0.0
O332 O 0.39919 0.5397 0.24906 0.0
O333 O 0.42235 0.54965 0.29609 0.0
O334 O 0.42451 0.52944 0.30514 0.0
C335 C 0.40372 0.52666 0.38011 0.0
O336 O 0.40038 0.55932 0.32318 0.0
O337 O 0.38445 0.54632 0.3246 0.0
In338 In 0.21019 0.65542 0.06722 0.0
O339 O 0.18882 0.6527 0.08167 0.0
O340 O 0.20051 0.63592 0.07724 0.0
C341 C 0.20964 0.68103 0.05385 0.0
C342 C 0.22223 0.65457 0.13477 0.0
C343 C 0.21955 0.6472 0.00025 0.0
O344 O 0.19963 0.67404 0.05246 0.0
O345 O 0.21997 0.67506 0.06169 0.0
O346 O 0.22503 0.64459 0.03116 0.0
O347 O 0.2093 0.65373 0.00322 0.0
C348 C 0.18955 0.64057 0.08472 0.0
O349 O 0.2265 0.64859 0.10628 0.0
O350 O 0.21214 0.6611 0.12883 0.0
In351 In 0.09438 0.45999 0.81273 0.0
O352 O 0.09674 0.47784 0.85086 0.0
O353 O 0.09361 0.45953 0.87661 0.0
C354 C 0.10239 0.46958 0.74575 0.0
C355 C 0.1101 0.43972 0.82608 0.0
C356 C 0.06859 0.45831 0.80356 0.0
O357 O 0.10638 0.47405 0.77681 0.0
O358 O 0.0946 0.46025 0.74862 0.0
O359 O 0.07593 0.44859 0.80099 0.0
O360 O 0.07426 0.46885 0.81073 0.0
C361 C 0.0955 0.47147 0.88111 0.0
O362 O 0.098 0.4385 0.82274 0.0
O363 O 0.11428 0.45106 0.82082 0.0
In364 In 0.28832 0.65409 0.5747 0.0
O365 O 0.27245 0.64623 0.53565 0.0
O366 O 0.28438 0.66146 0.51544 0.0
C367 C 0.27978 0.64545 0.64208 0.0
C368 C 0.30872 0.63962 0.55265 0.0
C369 C 0.2889 0.6795 0.59075 0.0
O370 O 0.27346 0.64383 0.61195 0.0
O371 O 0.29047 0.65117 0.6381 0.0
O372 O 0.29904 0.67267 0.58927 0.0
O373 O 0.27849 0.67345 0.58447 0.0
C374 C 0.27527 0.6537 0.50869 0.0
O375 O 0.30934 0.65176 0.55567 0.0
O376 O 0.29806 0.63479 0.56255 0.0
In377 In 0.09331 0.53826 0.32132 0.0
O378 O 0.09657 0.55971 0.30929 0.0
O379 O 0.11291 0.54724 0.30886 0.0
C380 C 0.06765 0.53881 0.33387 0.0
C381 C 0.09368 0.52637 0.25352 0.0
C382 C 0.1023 0.52963 0.3883 0.0
O383 O 0.07449 0.54894 0.33375 0.0
O384 O 0.07377 0.52844 0.32787 0.0
O385 O 0.10526 0.52429 0.35744 0.0
O386 O 0.09505 0.53939 0.38521 0.0
C387 C 0.10856 0.5585 0.30365 0.0
O388 O 0.09702 0.52061 0.28346 0.0
O389 O 0.09004 0.5379 0.25811 0.0
In390 In 0.21186 0.34398 0.06835 0.0
O391 O 0.19082 0.34665 0.05044 0.0
O392 O 0.20274 0.36336 0.05396 0.0
C393 C 0.20879 0.31898 0.08792 0.0
C394 C 0.22397 0.34433 0.0009 0.0
C395 C 0.22241 0.35312 0.13276 0.0
O396 O 0.19957 0.327 0.08883 0.0
O397 O 0.21951 0.32364 0.07764 0.0
O398 O 0.22914 0.34951 0.105 0.0
O399 O 0.21035 0.35227 0.12787 0.0
C400 C 0.19182 0.35871 0.04571 0.0
O401 O 0.22664 0.35229 0.02677 0.0
O402 O 0.21551 0.33605 0.00952 0.0
In403 In 0.40495 0.45796 0.81664 0.0
O404 O 0.40348 0.43707 0.79746 0.0
O405 O 0.38631 0.44611 0.81761 0.0
C406 C 0.43098 0.45704 0.82234 0.0
C407 C 0.40092 0.47053 0.75063 0.0
C408 C 0.39714 0.46703 0.88452 0.0
O409 O 0.42389 0.44738 0.82907 0.0
O410 O 0.42495 0.46711 0.8127 0.0
O411 O 0.39304 0.47171 0.85383 0.0
O412 O 0.40485 0.45768 0.88079 0.0
C413 C 0.39149 0.43612 0.80357 0.0
O414 O 0.40267 0.47653 0.78128 0.0
O415 O 0.40106 0.4584 0.75357 0.0
H416 H 0.10186 0.08657 0.83823 0.0
H417 H 0.11333 0.10392 0.87162 0.0
H418 H 0.14672 0.07924 0.88328 0.0
H419 H 0.13534 0.06187 0.85016 0.0
H420 H 0.12335 0.1007 0.94785 0.0
H421 H 0.16132 0.11448 0.84459 0.0
H422 H 0.14664 0.10619 0.83101 0.0
H423 H 0.15973 0.09735 0.85222 0.0
C424 C 0.11174 0.08494 0.84726 0.0
C425 C 0.11773 0.07288 0.84161 0.0
C426 C 0.11824 0.09483 0.86641 0.0
C427 C 0.13087 0.09285 0.87963 0.0
C428 C 0.13703 0.08099 0.87282 0.0
H429 H 0.17804 0.12192 0.0563 0.0
H430 H 0.16224 0.11047 0.01716 0.0
C431 C 0.13051 0.07107 0.85399 0.0
C432 C 0.13732 0.10274 0.90314 0.0
H433 H 0.16448 0.12138 0.9083 0.0
C434 C 0.13224 0.10539 0.93906 0.0
C435 C 0.14885 0.10887 0.89141 0.0
C436 C 0.15443 0.1067 0.85257 0.0
C437 C 0.13875 0.11358 0.96432 0.0
C438 C 0.15062 0.11918 0.95327 0.0
C439 C 0.15539 0.117 0.91671 0.0
C440 C 0.15871 0.12668 0.97984 0.0
C441 C 0.13299 0.11605 0.00277 0.0
C442 C 0.16182 0.13961 0.97201 0.0
C443 C 0.17081 0.14618 0.99438 0.0
C444 C 0.17695 0.13985 0.02461 0.0
C445 C 0.17343 0.12706 0.03328 0.0
C446 C 0.16438 0.12052 0.01104 0.0
H447 H 0.12246 0.11388 0.00333 0.0
H448 H 0.13782 0.10971 0.02378 0.0
H449 H 0.1345 0.12626 0.01152 0.0
H450 H 0.15758 0.14449 0.94792 0.0
H451 H 0.17337 0.15602 0.98694 0.0
H452 H 0.10204 0.91834 0.27417 0.0
H453 H 0.11512 0.90265 0.23899 0.0
H454 H 0.14713 0.92944 0.23876 0.0
H455 H 0.13425 0.94502 0.27431 0.0
H456 H 0.1255 0.9065 0.16801 0.0
H457 H 0.16439 0.89594 0.27098 0.0
H458 H 0.14941 0.90366 0.28438 0.0
H459 H 0.16226 0.91297 0.26342 0.0
C460 C 0.11195 0.92076 0.26725 0.0
C461 C 0.11715 0.93288 0.27708 0.0
C462 C 0.11938 0.91182 0.24706 0.0
C463 C 0.13213 0.91483 0.23666 0.0
C464 C 0.13741 0.9268 0.24721 0.0
H465 H 0.19301 0.88652 0.09641 0.0
H466 H 0.1774 0.89926 0.13253 0.0
C467 C 0.13002 0.93572 0.2674 0.0
C468 C 0.13969 0.9059 0.21256 0.0
H469 H 0.16875 0.89043 0.20646 0.0
C470 C 0.13488 0.90282 0.17655 0.0
C471 C 0.1519 0.90112 0.22386 0.0
C472 C 0.15724 0.90348 0.26292 0.0
C473 C 0.14224 0.89553 0.15092 0.0
C474 C 0.15463 0.89118 0.1618 0.0
C475 C 0.15927 0.89393 0.19814 0.0
C476 C 0.16316 0.88396 0.13579 0.0
C477 C 0.13693 0.89289 0.112 0.0
C478 C 0.16014 0.87126 0.125 0.0
C479 C 0.16904 0.86395 0.1043 0.0
C480 C 0.18109 0.86924 0.0943 0.0
C481 C 0.1838 0.88218 0.10366 0.0
C482 C 0.17492 0.88945 0.12438 0.0
H483 H 0.12819 0.89878 0.10584 0.0
H484 H 0.14437 0.89493 0.09018 0.0
H485 H 0.13427 0.88251 0.10975 0.0
H486 H 0.15116 0.86682 0.13396 0.0
H487 H 0.16672 0.85398 0.09764 0.0
H488 H 0.40375 0.92019 0.38624 0.0
H489 H 0.39186 0.90365 0.42157 0.0
H490 H 0.35607 0.91715 0.37303 0.0
H491 H 0.36786 0.93369 0.33757 0.0
H492 H 0.3722 0.90966 0.47475 0.0
H493 H 0.35417 0.87737 0.36116 0.0
H494 H 0.36753 0.88841 0.35437 0.0
H495 H 0.35116 0.89426 0.35291 0.0
C496 C 0.39338 0.91948 0.38255 0.0
C497 C 0.38672 0.92822 0.35917 0.0
C498 C 0.38661 0.91005 0.4028 0.0
C499 C 0.37313 0.90913 0.39963 0.0
C500 C 0.36651 0.91758 0.37536 0.0
H501 H 0.31291 0.88297 0.54416 0.0
H502 H 0.32975 0.89493 0.5105 0.0
C503 C 0.37325 0.92704 0.35524 0.0
C504 C 0.36581 0.90011 0.42398 0.0
H505 H 0.34399 0.87536 0.42151 0.0
C506 C 0.36616 0.90204 0.4632 0.0
C507 C 0.35805 0.89013 0.40879 0.0
C508 C 0.35776 0.8873 0.36702 0.0
C509 C 0.35848 0.8946 0.48756 0.0
C510 C 0.35022 0.88507 0.47219 0.0
C511 C 0.35029 0.88275 0.43314 0.0
C512 C 0.34085 0.87791 0.49577 0.0
C513 C 0.35914 0.89708 0.52949 0.0
C514 C 0.34158 0.86439 0.49873 0.0
C515 C 0.33199 0.85754 0.51807 0.0
C516 C 0.32145 0.8641 0.53426 0.0
C517 C 0.32094 0.87767 0.53208 0.0
C518 C 0.33057 0.88451 0.51299 0.0
H519 H 0.36819 0.90217 0.53749 0.0
H520 H 0.35085 0.90325 0.53793 0.0
H521 H 0.35852 0.88787 0.54558 0.0
H522 H 0.34942 0.85914 0.48542 0.0
H523 H 0.3326 0.84708 0.51914 0.0
H524 H 0.3969 0.08401 0.78715 0.0
H525 H 0.38443 0.10079 0.75452 0.0
H526 H 0.35023 0.077 0.76189 0.0
H527 H 0.36253 0.06036 0.79498 0.0
H528 H 0.37271 0.09739 0.68623 0.0
H529 H 0.33624 0.11203 0.79211 0.0
H530 H 0.35066 0.10314 0.80463 0.0
H531 H 0.33671 0.0948 0.78623 0.0
C532 C 0.38665 0.08251 0.7826 0.0
C533 C 0.38067 0.07089 0.79361 0.0
C534 C 0.37956 0.09208 0.76388 0.0
C535 C 0.36638 0.0902 0.75615 0.0
C536 C 0.36031 0.07879 0.76832 0.0
H537 H 0.30708 0.11556 0.60954 0.0
H538 H 0.32293 0.10423 0.64871 0.0
C539 C 0.36738 0.06925 0.78706 0.0
C540 C 0.35921 0.09948 0.7322 0.0
H541 H 0.33092 0.11639 0.72693 0.0
C542 C 0.36371 0.10177 0.69535 0.0
C543 C 0.34748 0.1052 0.7442 0.0
C544 C 0.34256 0.10378 0.7841 0.0
C545 C 0.35641 0.10905 0.66957 0.0
C546 C 0.34438 0.11413 0.68104 0.0
C547 C 0.34013 0.11233 0.71826 0.0
C548 C 0.33567 0.12072 0.6543 0.0
C549 C 0.36127 0.11083 0.62976 0.0
C550 C 0.3378 0.13364 0.64402 0.0
C551 C 0.32875 0.14016 0.62166 0.0
C552 C 0.31748 0.1338 0.60937 0.0
C553 C 0.31568 0.12069 0.6185 0.0
C554 C 0.32469 0.11422 0.64094 0.0
H555 H 0.37057 0.10573 0.62476 0.0
H556 H 0.35396 0.10718 0.60939 0.0
H557 H 0.36267 0.1213 0.62402 0.0
H558 H 0.34623 0.13878 0.6543 0.0
H559 H 0.33036 0.15027 0.61516 0.0
H560 H 0.80379 0.88341 0.113 0.0
H561 H 0.81858 0.89563 0.15341 0.0
H562 H 0.84589 0.8641 0.14996 0.0
H563 H 0.83118 0.85182 0.10924 0.0
H564 H 0.82725 0.88657 0.22551 0.0
H565 H 0.86804 0.8966 0.12724 0.0
H566 H 0.85212 0.89209 0.11079 0.0
H567 H 0.86276 0.88004 0.12997 0.0
C568 C 0.81305 0.87917 0.12026 0.0
C569 C 0.81635 0.86667 0.10795 0.0
C570 C 0.82145 0.88614 0.14345 0.0
C571 C 0.83332 0.88077 0.1545 0.0
C572 C 0.83683 0.86847 0.14131 0.0
H573 H 0.89403 0.9138 0.29611 0.0
H574 H 0.88065 0.89825 0.26147 0.0
C575 C 0.82842 0.86147 0.11811 0.0
C576 C 0.84162 0.88779 0.18162 0.0
H577 H 0.87067 0.90312 0.1906 0.0
C578 C 0.83676 0.89017 0.21797 0.0
C579 C 0.85405 0.89234 0.1717 0.0
C580 C 0.85957 0.89025 0.13274 0.0
C581 C 0.84398 0.89712 0.24467 0.0
C582 C 0.85627 0.90199 0.23443 0.0
C583 C 0.86125 0.89933 0.19837 0.0
C584 C 0.86376 0.91061 0.25964 0.0
C585 C 0.83842 0.89913 0.28361 0.0
C586 C 0.85861 0.92259 0.27063 0.0
C587 C 0.8662 0.93145 0.2905 0.0
C588 C 0.87911 0.92852 0.29943 0.0
C589 C 0.88409 0.9163 0.28973 0.0
C590 C 0.87649 0.90744 0.26985 0.0
H591 H 0.83114 0.89159 0.29061 0.0
H592 H 0.84612 0.899 0.30548 0.0
H593 H 0.83351 0.90867 0.28469 0.0
H594 H 0.8489 0.92534 0.26239 0.0
H595 H 0.86212 0.94082 0.29738 0.0
H596 H 0.86633 0.05825 0.85486 0.0
H597 H 0.85379 0.07471 0.88794 0.0
H598 H 0.88733 0.09952 0.89218 0.0
H599 H 0.90005 0.08294 0.85952 0.0
H600 H 0.87602 0.09621 0.96141 0.0
H601 H 0.83872 0.10916 0.85605 0.0
H602 H 0.83973 0.09199 0.86289 0.0
H603 H 0.85333 0.10061 0.8435 0.0
C604 C 0.87098 0.06732 0.86211 0.0
C605 C 0.88417 0.06931 0.85462 0.0
C606 C 0.86378 0.07675 0.88086 0.0
C607 C 0.86959 0.0884 0.89211 0.0
C608 C 0.88265 0.09062 0.88353 0.0
H609 H 0.83347 0.14866 0.03193 0.0
H610 H 0.84943 0.13691 0.99381 0.0
C611 C 0.88989 0.08116 0.86478 0.0
C612 C 0.86228 0.09765 0.91583 0.0
H613 H 0.83362 0.11392 0.92104 0.0
C614 C 0.86687 0.1003 0.95237 0.0
C615 C 0.85036 0.10298 0.90391 0.0
C616 C 0.84531 0.10115 0.86429 0.0
C617 C 0.85951 0.10759 0.97798 0.0
C618 C 0.84731 0.11232 0.96661 0.0
C619 C 0.84295 0.11013 0.92967 0.0
C620 C 0.83859 0.11901 0.9931 0.0
C621 C 0.86449 0.10975 0.0175 0.0
C622 C 0.8274 0.11271 0.00577 0.0
C623 C 0.81834 0.11933 0.02763 0.0
C624 C 0.82027 0.13242 0.03683 0.0
C625 C 0.83176 0.13857 0.02537 0.0
C626 C 0.84086 0.1319 0.0036 0.0
H627 H 0.8737 0.10453 0.02285 0.0
H628 H 0.86613 0.12025 0.02208 0.0
H629 H 0.85717 0.10651 0.03842 0.0
H630 H 0.82552 0.10275 0.99785 0.0
H631 H 0.80957 0.11435 0.03595 0.0
H632 H 0.68149 0.11853 0.58876 0.0
H633 H 0.66499 0.10754 0.6264 0.0
H634 H 0.65743 0.14298 0.68685 0.0
H635 H 0.67398 0.15405 0.64937 0.0
H636 H 0.66272 0.12149 0.73344 0.0
H637 H 0.62521 0.10999 0.6267 0.0
H638 H 0.64125 0.10538 0.6126 0.0
H639 H 0.63745 0.12221 0.61922 0.0
C640 C 0.67614 0.12404 0.60955 0.0
C641 C 0.67902 0.13714 0.61615 0.0
C642 C 0.66669 0.11777 0.63093 0.0
C643 C 0.65993 0.12449 0.65915 0.0
C644 C 0.66251 0.13766 0.66505 0.0
H645 H 0.59833 0.08489 0.78269 0.0
H646 H 0.61066 0.1021 0.75167 0.0
C647 C 0.67193 0.14396 0.64356 0.0
C648 C 0.65101 0.11745 0.68449 0.0
H649 H 0.62437 0.09799 0.68455 0.0
C650 C 0.65422 0.1165 0.72291 0.0
C651 C 0.63987 0.11108 0.67073 0.0
C652 C 0.63564 0.1123 0.63012 0.0
C653 C 0.6469 0.10882 0.74762 0.0
C654 C 0.63621 0.10184 0.73335 0.0
C655 C 0.63264 0.10329 0.69534 0.0
C656 C 0.62908 0.09233 0.75659 0.0
C657 C 0.65077 0.10809 0.78864 0.0
C658 C 0.63542 0.08125 0.77013 0.0
C659 C 0.62841 0.07141 0.78779 0.0
C660 C 0.61495 0.07247 0.79205 0.0
C661 C 0.60871 0.08382 0.7799 0.0
C662 C 0.61572 0.09364 0.76211 0.0
H663 H 0.65657 0.11666 0.79721 0.0
H664 H 0.64214 0.1074 0.80718 0.0
H665 H 0.65678 0.09933 0.79317 0.0
H666 H 0.6457 0.07995 0.76553 0.0
H667 H 0.63347 0.06274 0.7967 0.0
H668 H 0.63561 0.94206 0.34873 0.0
H669 H 0.6483 0.92696 0.38687 0.0
H670 H 0.61597 0.90061 0.39039 0.0
H671 H 0.6032 0.91565 0.35204 0.0
H672 H 0.63985 0.91912 0.46122 0.0
H673 H 0.64767 0.87734 0.36462 0.0
H674 H 0.64361 0.89331 0.34754 0.0
H675 H 0.63137 0.88329 0.36847 0.0
C676 C 0.63129 0.93292 0.3569 0.0
C677 C 0.61841 0.93003 0.34746 0.0
C678 C 0.63853 0.92435 0.3788 0.0
C679 C 0.63306 0.91269 0.39132 0.0
C680 C 0.6204 0.9095 0.38058 0.0
H681 H 0.66633 0.85248 0.53477 0.0
H682 H 0.65086 0.86573 0.49931 0.0
C683 C 0.61313 0.9181 0.35872 0.0
C684 C 0.64029 0.90444 0.41808 0.0
H685 H 0.6551 0.87512 0.42728 0.0
C686 C 0.64318 0.90949 0.45388 0.0
C687 C 0.64444 0.89184 0.40847 0.0
C688 C 0.64172 0.88609 0.37013 0.0
C689 C 0.65027 0.9023 0.48032 0.0
C690 C 0.65478 0.88985 0.47033 0.0
C691 C 0.65161 0.88467 0.43485 0.0
C692 C 0.66351 0.88236 0.49525 0.0
C693 C 0.65279 0.90808 0.51875 0.0
C694 C 0.67565 0.88741 0.5051 0.0
C695 C 0.68445 0.87991 0.52544 0.0
C696 C 0.68131 0.86719 0.536 0.0
C697 C 0.66899 0.86228 0.52716 0.0
C698 C 0.66017 0.86981 0.5068 0.0
H699 H 0.64546 0.91555 0.52601 0.0
H700 H 0.65275 0.90053 0.54106 0.0
H701 H 0.66242 0.91283 0.51871 0.0
H702 H 0.67852 0.89697 0.49581 0.0
H703 H 0.6939 0.88392 0.53161 0.0
H704 H 0.69142 0.61304 0.53703 0.0
H705 H 0.67556 0.60026 0.50202 0.0
H706 H 0.65008 0.63327 0.49715 0.0
H707 H 0.66603 0.64622 0.53168 0.0
H708 H 0.64968 0.5941 0.51539 0.0
H709 H 0.65542 0.62397 0.38571 0.0
H710 H 0.66641 0.62508 0.42515 0.0
H711 H 0.6508 0.63267 0.4275 0.0
C712 C 0.68238 0.61754 0.52894 0.0
C713 C 0.68 0.63066 0.53678 0.0
C714 C 0.67333 0.61023 0.50892 0.0
C715 C 0.66179 0.61591 0.49635 0.0
C716 C 0.65907 0.6288 0.50591 0.0
H717 H 0.60155 0.58113 0.35509 0.0
H718 H 0.61403 0.59636 0.39384 0.0
C719 C 0.66814 0.63615 0.52588 0.0
C720 C 0.6529 0.60837 0.47211 0.0
H721 H 0.64067 0.60658 0.38262 0.0
C722 C 0.64764 0.59686 0.48644 0.0
C723 C 0.65029 0.61202 0.43432 0.0
C724 C 0.65609 0.62405 0.41702 0.0
C725 C 0.63995 0.5888 0.46384 0.0
C726 C 0.63761 0.5923 0.42587 0.0
C727 C 0.64254 0.60397 0.41178 0.0
C728 C 0.6305 0.58363 0.40004 0.0
C729 C 0.63444 0.57657 0.48064 0.0
C730 C 0.63587 0.57168 0.38978 0.0
C731 C 0.62884 0.56303 0.36755 0.0
C732 C 0.61631 0.56621 0.35525 0.0
C733 C 0.61118 0.57843 0.36421 0.0
C734 C 0.61826 0.58711 0.38636 0.0
H735 H 0.6346 0.57678 0.512 0.0
H736 H 0.62433 0.57503 0.47104 0.0
H737 H 0.64029 0.56818 0.47112 0.0
H738 H 0.6454 0.56894 0.39965 0.0
H739 H 0.63306 0.5537 0.36104 0.0
H740 H 0.60316 0.41387 0.79291 0.0
H741 H 0.61554 0.3971 0.75993 0.0
H742 H 0.6479 0.42326 0.75032 0.0
H743 H 0.63572 0.43993 0.7837 0.0
H744 H 0.62438 0.39936 0.68736 0.0
H745 H 0.66544 0.39017 0.78387 0.0
H746 H 0.65093 0.39842 0.79893 0.0
H747 H 0.66344 0.4071 0.77421 0.0
C748 C 0.61303 0.41593 0.78455 0.0
C749 C 0.61849 0.42819 0.79089 0.0
C750 C 0.62006 0.40636 0.76562 0.0
C751 C 0.63267 0.4089 0.75302 0.0
C752 C 0.63828 0.421 0.76051 0.0
H753 H 0.68884 0.38091 0.5987 0.0
H754 H 0.67385 0.39318 0.6383 0.0
C755 C 0.63129 0.43054 0.77945 0.0
C756 C 0.63958 0.39943 0.72903 0.0
H757 H 0.66851 0.38395 0.71894 0.0
C758 C 0.63394 0.39579 0.69453 0.0
C759 C 0.65203 0.39478 0.73852 0.0
C760 C 0.65826 0.39771 0.77609 0.0
C761 C 0.6407 0.38813 0.66844 0.0
C762 C 0.65336 0.38404 0.67725 0.0
C763 C 0.65882 0.38726 0.71225 0.0
C764 C 0.66138 0.37686 0.64996 0.0
C765 C 0.63454 0.38487 0.63103 0.0
C766 C 0.6591 0.3637 0.64288 0.0
C767 C 0.66766 0.35665 0.62029 0.0
C768 C 0.6786 0.36268 0.60457 0.0
C769 C 0.68049 0.376 0.61036 0.0
C770 C 0.67197 0.38301 0.63305 0.0
H771 H 0.62508 0.38979 0.62713 0.0
H772 H 0.64108 0.38768 0.60755 0.0
H773 H 0.633 0.37426 0.62919 0.0
H774 H 0.65099 0.35881 0.65597 0.0
H775 H 0.66599 0.34638 0.6164 0.0
H776 H 0.86376 0.44181 0.85423 0.0
H777 H 0.85121 0.42613 0.89076 0.0
H778 H 0.88305 0.39923 0.88663 0.0
H779 H 0.89574 0.41489 0.85003 0.0
H780 H 0.85545 0.38903 0.87384 0.0
H781 H 0.86314 0.41814 0.00402 0.0
H782 H 0.85776 0.42694 0.96309 0.0
H783 H 0.87346 0.41951 0.96303 0.0
C784 C 0.86802 0.43247 0.86049 0.0
C785 C 0.88076 0.4296 0.84954 0.0
C786 C 0.86086 0.42357 0.88147 0.0
C787 C 0.86632 0.41166 0.89172 0.0
C788 C 0.87874 0.40843 0.87904 0.0
H789 H 0.83045 0.34953 0.02496 0.0
H790 H 0.8463 0.36198 0.98843 0.0
C791 C 0.88595 0.41736 0.85813 0.0
C792 C 0.85926 0.40297 0.91753 0.0
H793 H 0.848 0.40097 0.00786 0.0
C794 C 0.85391 0.39151 0.90326 0.0
C795 C 0.85736 0.4063 0.95582 0.0
C796 C 0.8633 0.41834 0.97266 0.0
C797 C 0.84617 0.38353 0.92604 0.0
C798 C 0.844 0.38704 0.96417 0.0
C799 C 0.8497 0.39832 0.97864 0.0
C800 C 0.83509 0.37967 0.98874 0.0
C801 C 0.83992 0.37174 0.90872 0.0
C802 C 0.82385 0.38568 0.00235 0.0
C803 C 0.81488 0.37866 0.02346 0.0
C804 C 0.81701 0.36551 0.0314 0.0
C805 C 0.82854 0.35965 0.01915 0.0
C806 C 0.83754 0.3667 0.99803 0.0
H807 H 0.84041 0.37189 0.87738 0.0
H808 H 0.84501 0.36292 0.91874 0.0
H809 H 0.82963 0.37099 0.91737 0.0
H810 H 0.82184 0.39571 0.99566 0.0
H811 H 0.8061 0.38344 0.03256 0.0
H812 H 0.82631 0.65324 0.14331 0.0
H813 H 0.84216 0.64128 0.18105 0.0
H814 H 0.83235 0.60618 0.1217 0.0
H815 H 0.81648 0.61805 0.08386 0.0
H816 H 0.83528 0.61974 0.22795 0.0
H817 H 0.87254 0.60692 0.12151 0.0
H818 H 0.8611 0.61992 0.11461 0.0
H819 H 0.85622 0.60342 0.10733 0.0
C820 C 0.8277 0.64302 0.13782 0.0
C821 C 0.82017 0.63656 0.11066 0.0
C822 C 0.83672 0.63621 0.15946 0.0
C823 C 0.83846 0.62289 0.15391 0.0
C824 C 0.83127 0.6165 0.12597 0.0
H825 H 0.86356 0.56046 0.29238 0.0
H826 H 0.85163 0.57747 0.25934 0.0
C827 C 0.82219 0.62328 0.10448 0.0
C828 C 0.84701 0.61543 0.17928 0.0
H829 H 0.87316 0.59532 0.17981 0.0
C830 C 0.84367 0.61452 0.21759 0.0
C831 C 0.85798 0.60876 0.16567 0.0
C832 C 0.86228 0.60986 0.1251 0.0
C833 C 0.85072 0.60664 0.2424 0.0
C834 C 0.8613 0.59946 0.22835 0.0
C835 C 0.86498 0.6008 0.19041 0.0
C836 C 0.86826 0.58993 0.25192 0.0
C837 C 0.84673 0.60595 0.28332 0.0
C838 C 0.88154 0.59136 0.25881 0.0
C839 C 0.88838 0.58167 0.27775 0.0
C840 C 0.88206 0.57034 0.28964 0.0
C841 C 0.86868 0.56911 0.28368 0.0
C842 C 0.86184 0.57883 0.26494 0.0
H843 H 0.84081 0.61445 0.29166 0.0
H844 H 0.84083 0.59711 0.28783 0.0
H845 H 0.85532 0.60538 0.30206 0.0
H846 H 0.88666 0.59984 0.24878 0.0
H847 H 0.8987 0.58285 0.28181 0.0
H848 H 0.31698 0.34724 0.66376 0.0
H849 H 0.33199 0.35961 0.70296 0.0
H850 H 0.33895 0.38578 0.61023 0.0
H851 H 0.32352 0.37373 0.57127 0.0
H852 H 0.35695 0.36626 0.6999 0.0
H853 H 0.3265 0.41026 0.69071 0.0
H854 H 0.32115 0.39475 0.67342 0.0
H855 H 0.33171 0.40469 0.64525 0.0
C856 C 0.32182 0.35555 0.65156 0.0
C857 C 0.31897 0.35964 0.61462 0.0
C858 C 0.33039 0.36261 0.67402 0.0
C859 C 0.33632 0.37381 0.65985 0.0
C860 C 0.33417 0.37739 0.6221 0.0
H861 H 0.39943 0.417 0.75626 0.0
H862 H 0.386 0.40075 0.72541 0.0
C863 C 0.32545 0.37044 0.59977 0.0
C864 C 0.34429 0.38202 0.6851 0.0
H865 H 0.34725 0.41283 0.71852 0.0
C866 C 0.35481 0.37643 0.70416 0.0
C867 C 0.34126 0.3952 0.69148 0.0
C868 C 0.32946 0.40155 0.67447 0.0
C869 C 0.3626 0.38376 0.72862 0.0
C870 C 0.36001 0.39713 0.73323 0.0
C871 C 0.3493 0.40261 0.71486 0.0
C872 C 0.3685 0.40581 0.75559 0.0
C873 C 0.37338 0.37705 0.74962 0.0
C874 C 0.36315 0.41417 0.78274 0.0
C875 C 0.37077 0.4237 0.79982 0.0
C876 C 0.38388 0.42494 0.79025 0.0
C877 C 0.38937 0.41618 0.76448 0.0
C878 C 0.38171 0.4068 0.74698 0.0
H879 H 0.37121 0.36661 0.75374 0.0
H880 H 0.38241 0.37773 0.73284 0.0
H881 H 0.37509 0.38153 0.77768 0.0
H882 H 0.35297 0.41361 0.78978 0.0
H883 H 0.3663 0.43034 0.81957 0.0
H884 H 0.30828 0.61379 0.53778 0.0
H885 H 0.32331 0.60164 0.49801 0.0
H886 H 0.34685 0.63576 0.48434 0.0
H887 H 0.33181 0.64806 0.52414 0.0
H888 H 0.32916 0.61073 0.41919 0.0
H889 H 0.37238 0.60485 0.51174 0.0
H890 H 0.35636 0.60737 0.53082 0.0
H891 H 0.36484 0.62055 0.5091 0.0
C892 C 0.31678 0.61866 0.52695 0.0
C893 C 0.31887 0.63188 0.53399 0.0
C894 C 0.32532 0.61171 0.50415 0.0
C895 C 0.33614 0.61783 0.48835 0.0
C896 C 0.33858 0.63088 0.4966 0.0
H897 H 0.3952 0.58277 0.34445 0.0
H898 H 0.38241 0.59888 0.37878 0.0
C899 C 0.33 0.63787 0.51932 0.0
C900 C 0.34426 0.61074 0.46105 0.0
H901 H 0.37349 0.5959 0.45075 0.0
C902 C 0.33889 0.60753 0.42591 0.0
C903 C 0.35697 0.60678 0.46989 0.0
C904 C 0.36305 0.60997 0.50746 0.0
C905 C 0.34583 0.60021 0.39947 0.0
C906 C 0.35835 0.59574 0.4089 0.0
C907 C 0.36388 0.59932 0.44362 0.0
C908 C 0.36553 0.58663 0.38439 0.0
C909 C 0.3397 0.59735 0.36171 0.0
C910 C 0.36022 0.57449 0.37574 0.0
C911 C 0.36745 0.56532 0.35596 0.0
C912 C 0.3802 0.56809 0.34487 0.0
C913 C 0.38538 0.58039 0.35252 0.0
C914 C 0.37811 0.58958 0.37223 0.0
H915 H 0.33235 0.60477 0.35421 0.0
H916 H 0.34706 0.59694 0.33891 0.0
H917 H 0.33472 0.58785 0.36311 0.0
H918 H 0.35064 0.5719 0.38558 0.0
H919 H 0.36324 0.55589 0.35075 0.0
H920 H 0.10101 0.58302 0.28464 0.0
H921 H 0.11318 0.59865 0.24644 0.0
H922 H 0.14589 0.57279 0.24488 0.0
H923 H 0.13388 0.55716 0.28307 0.0
H924 H 0.14091 0.60961 0.25868 0.0
H925 H 0.13325 0.5794 0.13058 0.0
H926 H 0.12293 0.57835 0.17167 0.0
H927 H 0.13869 0.57107 0.17229 0.0
C928 C 0.11088 0.58079 0.2768 0.0
C929 C 0.11648 0.56884 0.28662 0.0
C930 C 0.11779 0.5897 0.25494 0.0
C931 C 0.13031 0.58673 0.24253 0.0
C932 C 0.13616 0.57515 0.25398 0.0
H933 H 0.18991 0.61472 0.09947 0.0
H934 H 0.17404 0.60237 0.13566 0.0
C935 C 0.12931 0.56627 0.27591 0.0
C936 C 0.1371 0.59535 0.21592 0.0
H937 H 0.14801 0.59685 0.12513 0.0
C938 C 0.14236 0.60696 0.22935 0.0
C939 C 0.1389 0.59176 0.17778 0.0
C940 C 0.13308 0.57952 0.16195 0.0
C941 C 0.14994 0.61486 0.20588 0.0
C942 C 0.152 0.61112 0.16786 0.0
C943 C 0.14638 0.59969 0.15423 0.0
C944 C 0.1608 0.61841 0.14268 0.0
C945 C 0.15616 0.6268 0.22244 0.0
C946 C 0.15835 0.63139 0.13342 0.0
C947 C 0.16744 0.63849 0.11278 0.0
C948 C 0.17903 0.63267 0.1009 0.0
C949 C 0.18108 0.61947 0.10831 0.0
C950 C 0.17203 0.61241 0.12903 0.0
H951 H 0.15586 0.62678 0.2538 0.0
H952 H 0.1664 0.62762 0.21327 0.0
H953 H 0.15091 0.63551 0.21237 0.0
H954 H 0.14959 0.6361 0.14298 0.0
H955 H 0.16558 0.64864 0.10731 0.0
H956 H 0.13576 0.44107 0.84284 0.0
H957 H 0.14839 0.42537 0.87902 0.0
H958 H 0.11578 0.39937 0.88087 0.0
H959 H 0.10301 0.41505 0.8447 0.0
H960 H 0.13775 0.41651 0.9545 0.0
H961 H 0.14918 0.37683 0.85318 0.0
H962 H 0.14624 0.39323 0.83763 0.0
H963 H 0.13304 0.38342 0.85367 0.0
C964 C 0.13136 0.43189 0.85013 0.0
C965 C 0.11838 0.4293 0.84111 0.0
C966 C 0.13858 0.42296 0.87087 0.0
C967 C 0.13298 0.41127 0.88253 0.0
C968 C 0.12027 0.40832 0.8718 0.0
H969 H 0.16807 0.35063 0.02125 0.0
H970 H 0.1523 0.36317 0.98474 0.0
C971 C 0.113 0.41728 0.85116 0.0
C972 C 0.14003 0.40285 0.90909 0.0
H973 H 0.15668 0.37445 0.91561 0.0
C974 C 0.14186 0.40728 0.94613 0.0
C975 C 0.14515 0.39077 0.89807 0.0
C976 C 0.1434 0.38571 0.85845 0.0
C977 C 0.14892 0.40002 0.97243 0.0
C978 C 0.15455 0.38818 0.96101 0.0
C979 C 0.15237 0.38355 0.92424 0.0
C980 C 0.16344 0.3809 0.9859 0.0
C981 C 0.15025 0.4051 0.0122 0.0
C982 C 0.17485 0.38675 0.99887 0.0
C983 C 0.18381 0.37967 0.01986 0.0
C984 C 0.18158 0.36654 0.0279 0.0
C985 C 0.17001 0.36075 0.01563 0.0
C986 C 0.16102 0.36787 0.99468 0.0
H987 H 0.14216 0.41171 0.01959 0.0
H988 H 0.15053 0.39709 0.03306 0.0
H989 H 0.15939 0.41069 0.01455 0.0
H990 H 0.17705 0.3967 0.99171 0.0
H991 H 0.19268 0.38436 0.02864 0.0
H992 H 0.22295 0.12908 0.9642 0.0
H993 H 0.2321 0.12665 0.90079 0.0
H994 H 0.25307 0.16241 0.91484 0.0
H995 H 0.24407 0.16486 0.9782 0.0
H996 H 0.22793 0.1446 0.84309 0.0
H997 H 0.28035 0.13826 0.86962 0.0
H998 H 0.26829 0.13578 0.9058 0.0
H999 H 0.27357 0.15187 0.89411 0.0
C1000 C 0.22974 0.13627 0.95409 0.0
C1001 C 0.2328 0.14717 0.97612 0.0
C1002 C 0.23492 0.13488 0.91785 0.0
C1003 C 0.24334 0.14429 0.90329 0.0
C1004 C 0.24679 0.15491 0.92582 0.0
H1005 H 0.27663 0.16908 0.69565 0.0
H1006 H 0.26867 0.16579 0.75985 0.0
C1007 C 0.24159 0.15633 0.96196 0.0
C1008 C 0.24755 0.14373 0.86338 0.0
H1009 H 0.27429 0.14468 0.80704 0.0
C1010 C 0.23806 0.14441 0.83509 0.0
C1011 C 0.26076 0.14351 0.85316 0.0
C1012 C 0.27133 0.14219 0.88225 0.0
C1013 C 0.24144 0.1455 0.79685 0.0
C1014 C 0.25467 0.1457 0.78673 0.0
C1015 C 0.26415 0.14459 0.81494 0.0
C1016 C 0.25893 0.14776 0.7473 0.0
C1017 C 0.23087 0.147 0.76778 0.0
C1018 C 0.25601 0.13874 0.7189 0.0
C1019 C 0.26049 0.14064 0.68203 0.0
C1020 C 0.26804 0.15154 0.67316 0.0
C1021 C 0.27081 0.16061 0.7016 0.0
C1022 C 0.26631 0.15872 0.73832 0.0
H1023 H 0.22141 0.14938 0.78092 0.0
H1024 H 0.23336 0.15471 0.74718 0.0
H1025 H 0.22977 0.13779 0.75201 0.0
H1026 H 0.25049 0.13011 0.72541 0.0
H1027 H 0.2583 0.13344 0.66074 0.0
H1028 H 0.07734 0.96918 0.18878 0.0
H1029 H 0.07847 0.97812 0.12501 0.0
H1030 H 0.11067 0.00212 0.15816 0.0
H1031 H 0.10946 0.99336 0.22242 0.0
H1032 H 0.09248 0.01528 0.11616 0.0
H1033 H 0.1057 0.96916 0.0461 0.0
H1034 H 0.09121 0.96801 0.0738 0.0
H1035 H 0.10641 0.97128 0.09665 0.0
C1036 C 0.08465 0.97638 0.18253 0.0
C1037 C 0.09336 0.98054 0.21049 0.0
C1038 C 0.08534 0.98141 0.14602 0.0
C1039 C 0.09483 0.99056 0.13668 0.0
C1040 C 0.10335 0.99497 0.16477 0.0
H1041 H 0.11444 0.01387 0.90691 0.0
H1042 H 0.11488 0.00489 0.97098 0.0
C1043 C 0.10263 0.98998 0.20141 0.0
C1044 C 0.0957 0.99568 0.09773 0.0
H1045 H 0.09933 0.98652 0.00571 0.0
C1046 C 0.09406 0.00901 0.09201 0.0
C1047 C 0.09796 0.9875 0.06637 0.0
C1048 C 0.10056 0.97321 0.07097 0.0
C1049 C 0.09426 0.01435 0.0556 0.0
C1050 C 0.09589 0.00608 0.02411 0.0
C1051 C 0.09791 0.9928 0.0299 0.0
C1052 C 0.09544 0.01104 0.98493 0.0
C1053 C 0.09283 0.02881 0.05123 0.0
C1054 C 0.08426 0.01713 0.97131 0.0
C1055 C 0.084 0.02228 0.93488 0.0
C1056 C 0.09488 0.0213 0.9113 0.0
C1057 C 0.10592 0.01478 0.9245 0.0
C1058 C 0.10619 0.00967 0.96105 0.0
H1059 H 0.09531 0.03401 0.07773 0.0
H1060 H 0.09908 0.03252 0.02816 0.0
H1061 H 0.08263 0.03112 0.04415 0.0
H1062 H 0.07575 0.01801 0.98899 0.0
H1063 H 0.07532 0.02717 0.92538 0.0
H1064 H 0.20931 0.84195 0.198 0.0
H1065 H 0.21816 0.84309 0.26184 0.0
H1066 H 0.25577 0.85221 0.21625 0.0
H1067 H 0.24686 0.85147 0.15216 0.0
H1068 H 0.23656 0.82843 0.29285 0.0
H1069 H 0.25194 0.87983 0.29619 0.0
H1070 H 0.24156 0.87342 0.25971 0.0
H1071 H 0.25877 0.87096 0.25749 0.0
C1072 C 0.21945 0.84428 0.20158 0.0
C1073 C 0.22741 0.84664 0.17016 0.0
C1074 C 0.22449 0.84494 0.23806 0.0
C1075 C 0.23757 0.84793 0.24385 0.0
C1076 C 0.24557 0.85022 0.21249 0.0
H1077 H 0.28243 0.82961 0.44166 0.0
H1078 H 0.27237 0.83077 0.3794 0.0
C1079 C 0.2405 0.84969 0.17591 0.0
C1080 C 0.24292 0.84799 0.28267 0.0
H1081 H 0.25943 0.86642 0.34656 0.0
C1082 C 0.24149 0.83677 0.30466 0.0
C1083 C 0.24918 0.85894 0.29823 0.0
C1084 C 0.25035 0.87151 0.27684 0.0
C1085 C 0.24639 0.8361 0.34149 0.0
C1086 C 0.25316 0.84684 0.35641 0.0
C1087 C 0.25434 0.85817 0.33484 0.0
C1088 C 0.25932 0.84635 0.39407 0.0
C1089 C 0.24417 0.82395 0.36423 0.0
C1090 C 0.25553 0.85496 0.42266 0.0
C1091 C 0.26132 0.85437 0.45832 0.0
C1092 C 0.27103 0.8452 0.46575 0.0
C1093 C 0.27491 0.83672 0.43687 0.0
C1094 C 0.26913 0.83732 0.40133 0.0
H1095 H 0.23587 0.81826 0.35314 0.0
H1096 H 0.25292 0.81776 0.36268 0.0
H1097 H 0.24231 0.82626 0.39437 0.0
H1098 H 0.24801 0.86205 0.41747 0.0
H1099 H 0.2582 0.86106 0.48001 0.0
H1100 H 0.41475 0.03415 0.69205 0.0
H1101 H 0.41253 0.0252 0.62861 0.0
H1102 H 0.38145 0.00064 0.66694 0.0
H1103 H 0.38376 0.00943 0.73093 0.0
H1104 H 0.39933 0.98758 0.62456 0.0
H1105 H 0.38454 0.03243 0.55086 0.0
H1106 H 0.39917 0.03453 0.57739 0.0
H1107 H 0.3843 0.03094 0.60166 0.0
C1108 C 0.40741 0.02687 0.68699 0.0
C1109 C 0.3994 0.0225 0.7164 0.0
C1110 C 0.40608 0.02185 0.65063 0.0
C1111 C 0.39664 0.01246 0.6429 0.0
C1112 C 0.38871 0.00798 0.67229 0.0
H1113 H 0.38182 0.98649 0.41072 0.0
H1114 H 0.37893 0.99556 0.47422 0.0
C1115 C 0.39005 0.01298 0.70877 0.0
C1116 C 0.39558 0.0069 0.6045 0.0
H1117 H 0.39243 0.01517 0.51162 0.0
C1118 C 0.39765 0.99358 0.5999 0.0
C1119 C 0.39317 0.01471 0.57242 0.0
C1120 C 0.39003 0.02892 0.57581 0.0
C1121 C 0.39801 0.98795 0.56389 0.0
C1122 C 0.3965 0.99592 0.5317 0.0
C1123 C 0.39378 0.00912 0.53635 0.0
C1124 C 0.39827 0.9908 0.49304 0.0
C1125 C 0.40009 0.97354 0.56064 0.0
C1126 C 0.41019 0.98546 0.4824 0.0
C1127 C 0.41187 0.9803 0.44635 0.0
C1128 C 0.40167 0.98049 0.42013 0.0
C1129 C 0.38984 0.98621 0.43039 0.0
C1130 C 0.38817 0.99136 0.4666 0.0
H1131 H 0.3972 0.96843 0.58693 0.0
H1132 H 0.39454 0.96943 0.53662 0.0
H1133 H 0.41052 0.9716 0.55578 0.0
H1134 H 0.4182 0.98523 0.50211 0.0
H1135 H 0.42112 0.97604 0.43918 0.0
H1136 H 0.78286 0.8283 0.19088 0.0
H1137 H 0.77278 0.82817 0.25321 0.0
H1138 H 0.74249 0.85322 0.21227 0.0
H1139 H 0.75269 0.85359 0.14975 0.0
H1140 H 0.75271 0.8613 0.28018 0.0
H1141 H 0.74028 0.80917 0.28635 0.0
H1142 H 0.75704 0.81201 0.27603 0.0
H1143 H 0.74484 0.81714 0.243 0.0
C1144 C 0.77399 0.8337 0.19503 0.0
C1145 C 0.76852 0.84091 0.16542 0.0
C1146 C 0.76821 0.83356 0.23062 0.0
C1147 C 0.75678 0.84051 0.23717 0.0
C1148 C 0.75128 0.84773 0.20768 0.0
H1149 H 0.70951 0.83215 0.43817 0.0
H1150 H 0.71791 0.83248 0.37371 0.0
C1151 C 0.75709 0.84791 0.17202 0.0
C1152 C 0.75089 0.84061 0.27525 0.0
H1153 H 0.73916 0.82084 0.34441 0.0
C1154 C 0.74965 0.85248 0.29417 0.0
C1155 C 0.74678 0.82909 0.2932 0.0
C1156 C 0.74717 0.81615 0.27348 0.0
C1157 C 0.74468 0.85311 0.33098 0.0
C1158 C 0.74111 0.84152 0.34955 0.0
C1159 C 0.74207 0.82969 0.33029 0.0
C1160 C 0.73612 0.84145 0.38874 0.0
C1161 C 0.74313 0.86619 0.34941 0.0
C1162 C 0.74364 0.84623 0.41866 0.0
C1163 C 0.73883 0.84613 0.45556 0.0
C1164 C 0.72648 0.84109 0.46312 0.0
C1165 C 0.71907 0.8361 0.4332 0.0
C1166 C 0.72385 0.83628 0.39636 0.0
H1167 H 0.74286 0.8741 0.32817 0.0
H1168 H 0.73415 0.86661 0.36654 0.0
H1169 H 0.75148 0.86798 0.36838 0.0
H1170 H 0.75326 0.84999 0.41351 0.0
H1171 H 0.74478 0.84997 0.47811 0.0
H1172 H 0.89904 0.00068 0.90735 0.0
H1173 H 0.89763 0.99056 0.97004 0.0
H1174 H 0.9041 0.02764 0.02249 0.0
H1175 H 0.90567 0.03779 0.96029 0.0
H1176 H 0.91965 0.99451 0.0309 0.0
H1177 H 0.86996 0.00984 0.07198 0.0
H1178 H 0.87472 0.00778 0.02322 0.0
H1179 H 0.88028 0.02156 0.04932 0.0
C1180 C 0.90007 0.00667 0.93227 0.0
C1181 C 0.9025 0.02001 0.92899 0.0
C1182 C 0.89927 0.00089 0.96794 0.0
C1183 C 0.90068 0.00841 0.00067 0.0
C1184 C 0.90289 0.02173 0.99746 0.0
H1185 H 0.89883 0.99474 0.2422 0.0
H1186 H 0.89832 0.0041 0.17853 0.0
C1187 C 0.90383 0.02749 0.96194 0.0
C1188 C 0.90054 0.00231 0.03834 0.0
H1189 H 0.88256 -0.00054 0.11865 0.0
C1190 C 0.91152 0.99547 0.05008 0.0
C1191 C 0.88999 0.00382 0.06322 0.0
C1192 C 0.878 0.01109 0.05148 0.0
C1193 C 0.91234 0.99024 0.08655 0.0
C1194 C 0.90169 0.99158 0.11145 0.0
C1195 C 0.89068 0.99841 0.09953 0.0
C1196 C 0.9018 0.98591 0.14991 0.0
C1197 C 0.92475 0.98369 0.09837 0.0
C1198 C 0.9037 0.97257 0.15486 0.0
C1199 C 0.90416 0.96727 0.19106 0.0
C1200 C 0.90248 0.97515 0.22302 0.0
C1201 C 0.9002 0.98845 0.21806 0.0
C1202 C 0.89989 0.99379 0.18175 0.0
H1203 H 0.93305 0.98689 0.08079 0.0
H1204 H 0.92702 0.98569 0.12844 0.0
H1205 H 0.92371 0.97307 0.09474 0.0
H1206 H 0.90482 0.96625 0.1307 0.0
H1207 H 0.90576 0.95695 0.19399 0.0
H1208 H 0.76047 0.13428 0.97944 0.0
H1209 H 0.753 0.13123 0.91428 0.0
H1210 H 0.77485 0.16474 0.87953 0.0
H1211 H 0.78249 0.16772 0.9442 0.0
H1212 H 0.7392 0.14783 0.86783 0.0
H1213 H 0.78721 0.1371 0.80576 0.0
H1214 H 0.78431 0.13692 0.85603 0.0
H1215 H 0.78691 0.15201 0.83178 0.0
C1216 C 0.76364 0.141 0.95788 0.0
C1217 C 0.77211 0.15119 0.96682 0.0
C1218 C 0.7594 0.13923 0.92072 0.0
C1219 C 0.76362 0.14758 0.89198 0.0
C1220 C 0.77177 0.15797 0.9011 0.0
H1221 H 0.74617 0.16422 0.66125 0.0
H1222 H 0.75528 0.16253 0.72485 0.0
C1223 C 0.77603 0.15973 0.93813 0.0
C1224 C 0.75924 0.14571 0.85254 0.0
H1225 H 0.77022 0.14206 0.76219 0.0
C1226 C 0.74595 0.14639 0.84477 0.0
C1227 C 0.76809 0.14381 0.82256 0.0
C1228 C 0.78242 0.14228 0.82942 0.0
C1229 C 0.74131 0.14576 0.80759 0.0
C1230 C 0.7502 0.14424 0.77755 0.0
C1231 C 0.76345 0.14325 0.78535 0.0
C1232 C 0.7459 0.14435 0.73774 0.0
C1233 C 0.72698 0.14721 0.80056 0.0
C1234 C 0.73801 0.13443 0.72358 0.0
C1235 C 0.73283 0.13534 0.68723 0.0
C1236 C 0.73547 0.1462 0.66455 0.0
C1237 C 0.74395 0.15576 0.67811 0.0
C1238 C 0.74915 0.15482 0.7144 0.0
H1239 H 0.72175 0.15066 0.82604 0.0
H1240 H 0.72518 0.15411 0.77708 0.0
H1241 H 0.72288 0.1377 0.79231 0.0
H1242 H 0.73555 0.12619 0.74106 0.0
H1243 H 0.72634 0.12781 0.67751 0.0
H1244 H 0.5873 0.03919 0.6825 0.0
H1245 H 0.58769 0.02928 0.61991 0.0
H1246 H 0.60284 0.99403 0.66775 0.0
H1247 H 0.60257 0.00394 0.73081 0.0
H1248 H 0.61565 0.00295 0.59986 0.0
H1249 H 0.56223 0.00074 0.58462 0.0
H1250 H 0.56846 0.01638 0.59731 0.0
H1251 H 0.5701 0.00308 0.62963 0.0
C1252 C 0.59072 0.02932 0.67977 0.0
C1253 C 0.59484 0.0223 0.71159 0.0
C1254 C 0.59089 0.02367 0.644 0.0
C1255 C 0.59512 0.01089 0.63935 0.0
C1256 C 0.59948 0.00391 0.67088 0.0
H1257 H 0.58333 0.96231 0.44357 0.0
H1258 H 0.5841 0.97181 0.50668 0.0
C1259 C 0.5993 0.00955 0.70681 0.0
C1260 C 0.59493 0.00486 0.60146 0.0
H1261 H 0.57463 0.99606 0.52993 0.0
C1262 C 0.6067 0.00139 0.58456 0.0
C1263 C 0.58321 0.00276 0.58182 0.0
C1264 C 0.57026 0.00582 0.59932 0.0
C1265 C 0.60707 0.99605 0.5481 0.0
C1266 C 0.59537 0.99429 0.52805 0.0
C1267 C 0.58359 0.99756 0.54525 0.0
C1268 C 0.59506 0.98867 0.48963 0.0
C1269 C 0.61993 0.99216 0.53152 0.0
C1270 C 0.60082 0.9951 0.45903 0.0
C1271 C 0.60036 0.9897 0.4228 0.0
C1272 C 0.59411 0.97781 0.4167 0.0
C1273 C 0.58823 0.97148 0.44737 0.0
C1274 C 0.58867 0.97689 0.48345 0.0
H1275 H 0.62758 0.99146 0.55347 0.0
H1276 H 0.61917 0.9827 0.51679 0.0
H1277 H 0.62299 -0.00048 0.51053 0.0
H1278 H 0.6056 0.00432 0.46314 0.0
H1279 H 0.60495 0.9948 0.39967 0.0
H1280 H 0.71404 0.66623 0.43895 0.0
H1281 H 0.72262 0.66417 0.37497 0.0
H1282 H 0.75 0.63561 0.41371 0.0
H1283 H 0.74154 0.63772 0.47811 0.0
H1284 H 0.76098 0.65455 0.36845 0.0
H1285 H 0.71708 0.63424 0.301 0.0
H1286 H 0.71401 0.64891 0.32665 0.0
H1287 H 0.71926 0.63468 0.35158 0.0
C1288 C 0.72188 0.6595 0.43387 0.0
C1289 C 0.72711 0.65211 0.46349 0.0
C1290 C 0.72669 0.65826 0.39724 0.0
C1291 C 0.73676 0.64955 0.3895 0.0
C1292 C 0.74214 0.6423 0.4191 0.0
H1293 H 0.76369 0.63164 0.16052 0.0
H1294 H 0.75467 0.62974 0.2244 0.0
C1295 C 0.73732 0.64353 0.45582 0.0
C1296 C 0.742 0.64848 0.35075 0.0
H1297 H 0.73336 0.6425 0.25932 0.0
C1298 C 0.75499 0.65179 0.34463 0.0
C1299 C 0.7342 0.64468 0.31983 0.0
C1300 C 0.7204 0.6403 0.32505 0.0
C1301 C 0.76025 0.65192 0.30816 0.0
C1302 C 0.75225 0.64886 0.27702 0.0
C1303 C 0.73941 0.64501 0.28325 0.0
C1304 C 0.75696 0.65005 0.23775 0.0
C1305 C 0.77433 0.65539 0.30325 0.0
C1306 C 0.76083 0.66215 0.22387 0.0
C1307 C 0.76594 0.66326 0.18759 0.0
C1308 C 0.76721 0.6523 0.16442 0.0
C1309 C 0.76284 0.64025 0.17779 0.0
C1310 C 0.75772 0.63914 0.21422 0.0
H1311 H 0.77988 0.65395 0.32979 0.0
H1312 H 0.77886 0.64951 0.28056 0.0
H1313 H 0.77512 0.66575 0.29524 0.0
H1314 H 0.76005 0.67072 0.24134 0.0
H1315 H 0.76914 0.67269 0.17798 0.0
H1316 H 0.60482 0.50202 0.3981 0.0
H1317 H 0.60543 0.49172 0.46045 0.0
H1318 H 0.5812 0.52205 0.50521 0.0
H1319 H 0.58034 0.53223 0.44306 0.0
H1320 H 0.61449 0.50172 0.52794 0.0
H1321 H 0.56244 0.48941 0.53899 0.0
H1322 H 0.5699 0.4941 0.495 0.0
H1323 H 0.56526 0.5062 0.52893 0.0
C1324 C 0.59953 0.50642 0.42119 0.0
C1325 C 0.59246 0.51787 0.4157 0.0
C1326 C 0.59992 0.50055 0.45675 0.0
C1327 C 0.5932 0.50602 0.48726 0.0
C1328 C 0.58621 0.51751 0.48185 0.0
H1329 H 0.60478 0.49277 0.72688 0.0
H1330 H 0.6047 0.50143 0.66247 0.0
C1331 C 0.58578 0.52335 0.44635 0.0
C1332 C 0.59376 0.49996 0.52507 0.0
H1333 H 0.57483 0.48782 0.59556 0.0
C1334 C 0.60584 0.49859 0.54268 0.0
C1335 C 0.58246 0.49576 0.54397 0.0
C1336 C 0.5693 0.49631 0.52564 0.0
C1337 C 0.60691 0.49337 0.57914 0.0
C1338 C 0.59555 0.48968 0.59865 0.0
C1339 C 0.5835 0.4908 0.58069 0.0
C1340 C 0.59592 0.48443 0.63753 0.0
C1341 C 0.62018 0.49171 0.59618 0.0
C1342 C 0.59073 0.47215 0.64496 0.0
C1343 C 0.59062 0.46727 0.68167 0.0
C1344 C 0.59568 0.47459 0.71167 0.0
C1345 C 0.60088 0.48689 0.70425 0.0
C1346 C 0.60092 0.49181 0.66747 0.0
H1347 H 0.62784 0.4916 0.57418 0.0
H1348 H 0.62218 0.49992 0.61549 0.0
H1349 H 0.6208 0.48259 0.61271 0.0
H1350 H 0.58677 0.46633 0.62228 0.0
H1351 H 0.58656 0.45774 0.68653 0.0
H1352 H 0.71856 0.32465 0.69051 0.0
H1353 H 0.72716 0.32677 0.75447 0.0
H1354 H 0.74518 0.36296 0.72393 0.0
H1355 H 0.7368 0.36076 0.65952 0.0
H1356 H 0.76134 0.3473 0.76387 0.0
H1357 H 0.71406 0.35092 0.83643 0.0
H1358 H 0.71525 0.33672 0.80744 0.0
H1359 H 0.71571 0.3525 0.7859 0.0
C1360 C 0.72437 0.33305 0.69739 0.0
C1361 C 0.72698 0.34256 0.67011 0.0
C1362 C 0.72918 0.33431 0.73403 0.0
C1363 C 0.73655 0.34517 0.74414 0.0
C1364 C 0.7394 0.35456 0.71674 0.0
H1365 H 0.75689 0.36173 0.97957 0.0
H1366 H 0.74785 0.36323 0.91564 0.0
C1367 C 0.73464 0.35328 0.67999 0.0
C1368 C 0.74159 0.34648 0.78306 0.0
H1369 H 0.73242 0.3464 0.87564 0.0
C1370 C 0.75502 0.34724 0.7883 0.0
C1371 C 0.73331 0.34666 0.81486 0.0
C1372 C 0.71877 0.3468 0.81093 0.0
C1373 C 0.76042 0.34761 0.8246 0.0
C1374 C 0.75217 0.34692 0.85641 0.0
C1375 C 0.73872 0.34673 0.85119 0.0
C1376 C 0.75735 0.34592 0.89525 0.0
C1377 C 0.77491 0.34875 0.8285 0.0
C1378 C 0.76539 0.33552 0.9051 0.0
C1379 C 0.77057 0.33467 0.94136 0.0
C1380 C 0.76768 0.34413 0.96859 0.0
C1381 C 0.75928 0.35432 0.9591 0.0
C1382 C 0.75414 0.3552 0.92265 0.0
H1383 H 0.77934 0.35315 0.80294 0.0
H1384 H 0.77759 0.35468 0.85346 0.0
H1385 H 0.77912 0.33895 0.8321 0.0
H1386 H 0.76769 0.32807 0.88466 0.0
H1387 H 0.77692 0.32665 0.94796 0.0
H1388 H 0.91485 0.53587 0.19099 0.0
H1389 H 0.91424 0.52636 0.12792 0.0
H1390 H 0.88971 0.49566 0.16905 0.0
H1391 H 0.89006 0.50531 0.2323 0.0
H1392 H 0.92259 0.5026 0.10577 0.0
H1393 H 0.87015 0.50812 0.07604 0.0
H1394 H 0.87808 0.51633 0.11464 0.0
H1395 H 0.87366 0.49956 0.11897 0.0
C1396 C 0.90927 0.52713 0.1866 0.0
C1397 C 0.90247 0.52134 0.21652 0.0
C1398 C 0.90893 0.52171 0.15055 0.0
C1399 C 0.90179 0.51041 0.14369 0.0
C1400 C 0.89505 0.50454 0.17356 0.0
H1401 H 0.91266 0.46024 0.94989 0.0
H1402 H 0.91185 0.46981 0.01293 0.0
C1403 C 0.89533 0.51001 0.2097 0.0
C1404 C 0.90185 0.50459 0.10549 0.0
H1405 H 0.88235 0.49577 0.03204 0.0
C1406 C 0.91379 0.50113 0.08961 0.0
C1407 C 0.89038 0.50285 0.08431 0.0
C1408 C 0.87735 0.50701 0.09914 0.0
C1409 C 0.91458 0.49586 0.05321 0.0
C1410 C 0.90308 0.49373 0.03249 0.0
C1411 C 0.89114 0.49732 0.04817 0.0
C1412 C 0.90327 0.48784 0.9944 0.0
C1413 C 0.92776 0.49286 0.03703 0.0
C1414 C 0.89836 0.49465 0.96326 0.0
C1415 C 0.8987 0.48916 0.9272 0.0
C1416 C 0.90394 0.47675 0.9218 0.0
C1417 C 0.90868 0.46988 0.95313 0.0
C1418 C 0.90828 0.47535 0.98914 0.0
H1419 H 0.93553 0.4983 0.0518 0.0
H1420 H 0.92978 0.48238 0.04044 0.0
H1421 H 0.92818 0.49522 0.00646 0.0
H1422 H 0.89439 0.50428 0.96681 0.0
H1423 H 0.89493 0.49464 0.90357 0.0
H1424 H 0.25522 0.33006 0.65582 0.0
H1425 H 0.24652 0.33104 0.7199 0.0
H1426 H 0.26247 0.36934 0.73364 0.0
H1427 H 0.27097 0.36854 0.66918 0.0
H1428 H 0.26191 0.33324 0.78238 0.0
H1429 H 0.22646 0.3736 0.7781 0.0
H1430 H 0.2326 0.36597 0.73588 0.0
H1431 H 0.24224 0.3777 0.76063 0.0
C1432 C 0.25662 0.33881 0.67218 0.0
C1433 C 0.26377 0.34923 0.65756 0.0
C1434 C 0.25167 0.33934 0.7088 0.0
C1435 C 0.25379 0.35028 0.73146 0.0
C1436 C 0.26051 0.36091 0.71641 0.0
H1437 H 0.23969 0.36318 0.972 0.0
H1438 H 0.24773 0.36492 0.90697 0.0
C1439 C 0.26539 0.36042 0.67962 0.0
C1440 C 0.25004 0.35 0.77179 0.0
H1441 H 0.23161 0.36509 0.83859 0.0
C1442 C 0.25525 0.34018 0.79462 0.0
C1443 C 0.24146 0.35915 0.78775 0.0
C1444 C 0.23526 0.36964 0.7643 0.0
C1445 C 0.25206 0.33922 0.83296 0.0
C1446 C 0.24336 0.34825 0.84878 0.0
C1447 C 0.23831 0.35821 0.82624 0.0
C1448 C 0.23888 0.34707 0.88823 0.0
C1449 C 0.25808 0.3286 0.85635 0.0
C1450 C 0.23126 0.33647 0.89898 0.0
C1451 C 0.22666 0.33546 0.93589 0.0
C1452 C 0.2296 0.34505 0.96269 0.0
C1453 C 0.23735 0.35561 0.95197 0.0
C1454 C 0.2419 0.35665 0.9149 0.0
H1455 H 0.26683 0.32451 0.8426 0.0
H1456 H 0.26077 0.33222 0.88481 0.0
H1457 H 0.25096 0.32066 0.86 0.0
H1458 H 0.2287 0.32907 0.87862 0.0
H1459 H 0.22066 0.32725 0.94328 0.0
H1460 H 0.39357 0.50321 0.40044 0.0
H1461 H 0.39209 0.49409 0.4643 0.0
H1462 H 0.41053 0.52815 0.50959 0.0
H1463 H 0.4121 0.53731 0.44605 0.0
H1464 H 0.41412 0.49009 0.51646 0.0
H1465 H 0.37644 0.52331 0.57283 0.0
H1466 H 0.37886 0.52078 0.52284 0.0
H1467 H 0.38986 0.53079 0.54897 0.0
C1468 C 0.39729 0.50875 0.42403 0.0
C1469 C 0.40294 0.52096 0.4183 0.0
C1470 C 0.39643 0.50354 0.46041 0.0
C1471 C 0.40105 0.51055 0.49157 0.0
C1472 C 0.40674 0.5227 0.48591 0.0
H1473 H 0.40554 0.49595 0.73318 0.0
H1474 H 0.40532 0.50584 0.67013 0.0
C1475 C 0.40769 0.52787 0.44958 0.0
C1476 C 0.40033 0.50497 0.52996 0.0
H1477 H 0.38624 0.50897 0.61638 0.0
C1478 C 0.40798 0.49416 0.5383 0.0
C1479 C 0.39241 0.51042 0.55835 0.0
C1480 C 0.38383 0.52192 0.55043 0.0
C1481 C 0.40808 0.48871 0.57458 0.0
C1482 C 0.40002 0.49403 0.60294 0.0
C1483 C 0.39238 0.5049 0.59458 0.0
C1484 C 0.39933 0.48835 0.64133 0.0
C1485 C 0.41708 0.47752 0.58238 0.0
C1486 C 0.39564 0.47539 0.64612 0.0
C1487 C 0.39586 0.46973 0.68188 0.0
C1488 C 0.39957 0.47699 0.71365 0.0
C1489 C 0.40266 0.49014 0.70915 0.0
C1490 C 0.40255 0.49578 0.6732 0.0
H1491 H 0.42514 0.47713 0.56165 0.0
H1492 H 0.42126 0.47816 0.61121 0.0
H1493 H 0.41161 0.46831 0.58016 0.0
H1494 H 0.39276 0.46958 0.62208 0.0
H1495 H 0.39329 0.45961 0.68454 0.0
H1496 H 0.25967 0.63455 0.48095 0.0
H1497 H 0.25092 0.63279 0.41676 0.0
H1498 H 0.26777 0.66975 0.38859 0.0
H1499 H 0.27686 0.67135 0.45203 0.0
H1500 H 0.23434 0.64732 0.3775 0.0
H1501 H 0.28161 0.6476 0.30463 0.0
H1502 H 0.28019 0.64569 0.35509 0.0
H1503 H 0.27971 0.66157 0.33412 0.0
C1504 C 0.26146 0.6423 0.46102 0.0
C1505 C 0.26903 0.65303 0.4713 0.0
C1506 C 0.25649 0.64127 0.42439 0.0
C1507 C 0.25898 0.65098 0.39759 0.0
C1508 C 0.26609 0.66194 0.40838 0.0
H1509 H 0.21667 0.66923 0.19637 0.0
H1510 H 0.22566 0.66726 0.25981 0.0
C1511 C 0.27118 0.6629 0.44476 0.0
C1512 C 0.25397 0.64983 0.3585 0.0
H1513 H 0.26302 0.65202 0.26603 0.0
C1514 C 0.24062 0.6482 0.35311 0.0
C1515 C 0.26221 0.65067 0.32665 0.0
C1516 C 0.27674 0.65133 0.33039 0.0
C1517 C 0.23522 0.64797 0.31677 0.0
C1518 C 0.24336 0.6498 0.28505 0.0
C1519 C 0.25676 0.65084 0.29037 0.0
C1520 C 0.23812 0.65107 0.24625 0.0
C1521 C 0.22087 0.64569 0.3128 0.0
C1522 C 0.24257 0.64302 0.21705 0.0
C1523 C 0.23762 0.6443 0.18047 0.0
C1524 C 0.22812 0.65364 0.1726 0.0
C1525 C 0.22389 0.66186 0.20169 0.0
C1526 C 0.22893 0.66066 0.23806 0.0
H1527 H 0.21696 0.64026 0.33734 0.0
H1528 H 0.21582 0.65516 0.31166 0.0
H1529 H 0.21859 0.64024 0.28662 0.0
H1530 H 0.24976 0.63564 0.22268 0.0
H1531 H 0.24105 0.63784 0.15857 0.0
H1532 H 0.08911 0.538 0.18599 0.0
H1533 H 0.09011 0.5283 0.12311 0.0
H1534 H 0.10045 0.49157 0.17235 0.0
H1535 H 0.09951 0.50123 0.23567 0.0
H1536 H 0.11258 0.51459 0.08972 0.0
H1537 H 0.06802 0.48463 0.10261 0.0
H1538 H 0.0711 0.49842 0.13266 0.0
H1539 H 0.07961 0.48353 0.1404 0.0
C1540 C 0.09157 0.52784 0.1835 0.0
C1541 C 0.09419 0.52034 0.21575 0.0
C1542 C 0.09216 0.52234 0.14757 0.0
C1543 C 0.09526 0.50923 0.14323 0.0
C1544 C 0.09792 0.50169 0.17527 0.0
H1545 H 0.09709 0.45889 0.94824 0.0
H1546 H 0.09783 0.4683 0.01141 0.0
C1547 C 0.09741 0.50722 0.21133 0.0
C1548 C 0.09574 0.50353 0.10499 0.0
H1549 H 0.07996 0.48268 0.04627 0.0
C1550 C 0.10548 0.5076 0.08011 0.0
C1551 C 0.08645 0.49443 0.09278 0.0
C1552 C 0.07563 0.49001 0.11829 0.0
C1553 C 0.10628 0.50264 0.04326 0.0
C1554 C 0.09687 0.49365 0.03079 0.0
C1555 C 0.08715 0.48958 0.05584 0.0
C1556 C 0.09699 0.48815 0.99211 0.0
C1557 C 0.11737 0.50687 0.01844 0.0
C1558 C 0.09624 0.4962 0.96017 0.0
C1559 C 0.09595 0.49083 0.92388 0.0
C1560 C 0.09618 0.47734 0.91906 0.0
C1561 C 0.09687 0.46933 0.95107 0.0
C1562 C 0.09729 0.47469 0.9872 0.0
H1563 H 0.12558 0.51069 0.03536 0.0
H1564 H 0.12093 0.49874 0.00076 0.0
H1565 H 0.11403 0.51472 -0.00057 0.0
H1566 H 0.09567 0.5066 0.9633 0.0
H1567 H 0.09532 0.49722 0.89969 0.0
H1568 H 0.21455 0.20096 0.03447 0.0
H1569 H 0.21234 0.22425 0.04398 0.0
H1570 H 0.1923 0.21748 0.14893 0.0
H1571 H 0.19455 0.19402 0.13972 0.0
H1572 H 0.18912 0.23896 0.05401 0.0
H1573 H 0.22269 0.24225 0.1767 0.0
H1574 H 0.22234 0.22836 0.14577 0.0
H1575 H 0.20971 0.23069 0.17982 0.0
C1576 C 0.20966 0.2044 0.05958 0.0
C1577 C 0.20477 0.19568 0.08645 0.0
C1578 C 0.20839 0.21771 0.06492 0.0
C1579 C 0.20227 0.22256 0.09728 0.0
C1580 C 0.1972 0.2139 0.12399 0.0
H1581 H 0.18647 0.30632 0.107 0.0
H1582 H 0.18349 0.28291 0.11469 0.0
C1583 C 0.19845 0.20053 0.11862 0.0
C1584 C 0.20138 0.23672 0.10267 0.0
H1585 H 0.21399 0.26174 0.15374 0.0
C1586 C 0.1944 0.24397 0.07611 0.0
C1587 C 0.20837 0.24315 0.1314 0.0
C1588 C 0.21629 0.23578 0.16 0.0
C1589 C 0.19456 0.25754 0.07672 0.0
C1590 C 0.20176 0.26399 0.10501 0.0
C1591 C 0.20841 0.25673 0.1323 0.0
C1592 C 0.20357 0.27819 0.10429 0.0
C1593 C 0.18757 0.26486 0.04598 0.0
C1594 C 0.21591 0.28328 0.09724 0.0
C1595 C 0.21765 0.29659 0.09301 0.0
C1596 C 0.20707 0.30506 0.09588 0.0
C1597 C 0.19479 0.3 0.10444 0.0
C1598 C 0.19306 0.28665 0.10869 0.0
H1599 H 0.18443 0.25841 0.02261 0.0
H1600 H 0.17884 0.26955 0.05804 0.0
H1601 H 0.19385 0.27258 0.03413 0.0
H1602 H 0.22415 0.2769 0.09381 0.0
H1603 H 0.22723 0.3002 0.08657 0.0
H1604 H 0.05048 0.97945 0.3389 0.0
H1605 H 0.02703 0.97747 0.34523 0.0
H1606 H 0.03052 0.9359 0.3494 0.0
H1607 H 0.05408 0.93779 0.34341 0.0
H1608 H 0.01148 0.96393 0.29266 0.0
H1609 H 0.00591 0.94449 0.43828 0.0
H1610 H 0.02054 0.95236 0.42243 0.0
H1611 H 0.01709 0.93605 0.40816 0.0
C1612 C 0.04628 0.96989 0.34168 0.0
C1613 C 0.0541 0.95877 0.34059 0.0
C1614 C 0.0329 0.96878 0.34529 0.0
C1615 C 0.02708 0.95656 0.34808 0.0
C1616 C 0.03486 0.94543 0.34792 0.0
H1617 H 0.94518 0.93539 0.34735 0.0
H1618 H 0.96889 0.93465 0.34986 0.0
C1619 C 0.04829 0.94653 0.34431 0.0
C1620 C 0.01282 0.95553 0.34817 0.0
H1621 H 0.98687 0.94646 0.40162 0.0
C1622 C 0.00609 0.96011 0.31648 0.0
C1623 C 0.00587 0.95043 0.37914 0.0
C1624 C 0.01267 0.94562 0.41412 0.0
C1625 C 0.99256 0.95982 0.31499 0.0
C1626 C 0.98558 0.95504 0.34635 0.0
C1627 C 0.99229 0.95017 0.37773 0.0
C1628 C 0.97129 0.95544 0.34729 0.0
C1629 C 0.98585 0.96455 0.27974 0.0
C1630 C 0.96485 0.96737 0.34595 0.0
C1631 C 0.95138 0.96782 0.34441 0.0
C1632 C 0.9441 0.95633 0.34446 0.0
C1633 C 0.95055 0.94439 0.34713 0.0
C1634 C 0.96407 0.94395 0.34861 0.0
H1635 H 0.99247 0.96458 0.25501 0.0
H1636 H 0.97732 0.95845 0.27297 0.0
H1637 H 0.98245 0.97462 0.28431 0.0
H1638 H 0.97027 0.97635 0.34559 0.0
H1639 H 0.94667 0.97717 0.34267 0.0
H1640 H 0.31081 0.80226 0.60022 0.0
H1641 H 0.31097 0.77859 0.60595 0.0
H1642 H 0.26933 0.77806 0.59852 0.0
H1643 H 0.26909 0.80162 0.59229 0.0
H1644 H 0.29849 0.76137 0.65802 0.0
H1645 H 0.28126 0.75478 0.51073 0.0
H1646 H 0.28745 0.77001 0.52797 0.0
H1647 H 0.2712 0.7651 0.53901 0.0
C1648 C 0.30169 0.79709 0.60011 0.0
C1649 C 0.28995 0.80375 0.59541 0.0
C1650 C 0.3018 0.7836 0.60343 0.0
C1651 C 0.29018 0.77661 0.60198 0.0
C1652 C 0.27842 0.78329 0.59897 0.0
H1653 H 0.26842 0.69606 0.59332 0.0
H1654 H 0.26902 0.71963 0.59958 0.0
C1655 C 0.2783 0.79674 0.59555 0.0
C1656 C 0.29031 0.7623 0.60217 0.0
H1657 H 0.28211 0.73601 0.54903 0.0
C1658 C 0.29497 0.75579 0.63419 0.0
C1659 C 0.28576 0.7551 0.57091 0.0
C1660 C 0.28124 0.76157 0.53504 0.0
C1661 C 0.29487 0.74221 0.63612 0.0
C1662 C 0.29016 0.73503 0.60503 0.0
C1663 C 0.28563 0.74156 0.57292 0.0
C1664 C 0.28984 0.72072 0.60484 0.0
C1665 C 0.29953 0.73565 0.67166 0.0
C1666 C 0.30136 0.71355 0.60591 0.0
C1667 C 0.30105 0.70008 0.60232 0.0
C1668 C 0.28921 0.6936 0.59739 0.0
C1669 C 0.27768 0.70079 0.5971 0.0
C1670 C 0.278 0.71424 0.60067 0.0
H1671 H 0.29992 0.74246 0.69591 0.0
H1672 H 0.29315 0.72739 0.67918 0.0
H1673 H 0.30942 0.73181 0.66692 0.0
H1674 H 0.31061 0.7184 0.60839 0.0
H1675 H 0.31009 0.69479 0.60251 0.0
H1676 H 0.44373 0.06048 0.85361 0.0
H1677 H 0.46739 0.06125 0.8573 0.0
H1678 H 0.46925 0.02046 0.83198 0.0
H1679 H 0.44563 0.01956 0.82869 0.0
H1680 H 0.48585 0.02846 0.89135 0.0
H1681 H 0.49089 0.05932 0.76351 0.0
H1682 H 0.48045 0.06563 0.79963 0.0
H1683 H 0.47604 0.05105 0.77517 0.0
C1684 C 0.44919 0.05166 0.84905 0.0
C1685 C 0.44286 0.03998 0.84062 0.0
C1686 C 0.46268 0.05214 0.85098 0.0
C1687 C 0.47003 0.04095 0.84431 0.0
C1688 C 0.46372 0.0292 0.83704 0.0
H1689 H 0.55037 0.01984 0.82206 0.0
H1690 H 0.52682 0.0203 0.82881 0.0
C1691 C 0.45025 0.02871 0.83513 0.0
C1692 C 0.48432 0.04149 0.84412 0.0
H1693 H 0.51005 0.05421 0.79651 0.0
C1694 C 0.49116 0.0341 0.87069 0.0
C1695 C 0.49118 0.04887 0.81709 0.0
C1696 C 0.4843 0.05659 0.78699 0.0
C1697 C 0.50473 0.03393 0.87104 0.0
C1698 C 0.51158 0.04117 0.84369 0.0
C1699 C 0.50474 0.0487 0.81746 0.0
C1700 C 0.52585 0.04081 0.84103 0.0
C1701 C 0.51162 0.0261 0.90086 0.0
C1702 C 0.53306 0.05223 0.84494 0.0
C1703 C 0.5465 0.05201 0.84087 0.0
C1704 C 0.55292 0.04037 0.83256 0.0
C1705 C 0.54568 0.02894 0.82865 0.0
C1706 C 0.53224 0.02917 0.83273 0.0
H1707 H 0.50524 0.02406 0.9254 0.0
H1708 H 0.51465 0.0167 0.88858 0.0
H1709 H 0.52041 0.0312 0.91104 0.0
H1710 H 0.52828 0.06132 0.85108 0.0
H1711 H 0.55183 0.06098 0.84397 0.0
H1712 H 0.23016 0.80229 0.05298 0.0
H1713 H 0.22917 0.77875 0.04734 0.0
H1714 H 0.18811 0.78093 0.02668 0.0
H1715 H 0.18899 0.80456 0.03269 0.0
H1716 H 0.19508 0.76316 0.08268 0.0
H1717 H 0.22457 0.75603 0.95359 0.0
H1718 H 0.23237 0.76579 0.98882 0.0
H1719 H 0.21784 0.77154 0.96649 0.0
C1720 C 0.22093 0.79778 0.04683 0.0
C1721 C 0.20965 0.80525 0.04322 0.0
C1722 C 0.2204 0.78433 0.04338 0.0
C1723 C 0.2086 0.77813 0.03601 0.0
C1724 C 0.19733 0.78556 0.03208 0.0
H1725 H 0.18866 0.69585 0.03607 0.0
H1726 H 0.18784 0.71942 0.02931 0.0
C1727 C 0.19785 0.79904 0.0355 0.0
C1728 C 0.20795 0.76383 0.03494 0.0
H1729 H 0.22048 0.73723 0.991 0.0
C1730 C 0.2005 0.75747 0.06236 0.0
C1731 C 0.21508 0.75647 0.00847 0.0
C1732 C 0.22282 0.76279 0.97744 0.0
C1733 C 0.20033 0.74393 0.06489 0.0
C1734 C 0.20764 0.73657 0.03882 0.0
C1735 C 0.21491 0.74292 0.01096 0.0
C1736 C 0.2082 0.72228 0.04087 0.0
C1737 C 0.19273 0.73762 0.09628 0.0
C1738 C 0.21999 0.71609 0.0484 0.0
C1739 C 0.22051 0.70264 0.05204 0.0
C1740 C 0.20923 0.69517 0.04806 0.0
C1741 C 0.19749 0.70137 0.03954 0.0
C1742 C 0.19699 0.71482 0.03584 0.0
H1743 H 0.19013 0.74464 0.11881 0.0
H1744 H 0.18363 0.73357 0.08458 0.0
H1745 H 0.19829 0.72956 0.10915 0.0
H1746 H 0.22875 0.72169 0.05222 0.0
H1747 H 0.2297 0.69812 0.05852 0.0
H1748 H 0.44857 0.97858 0.29687 0.0
H1749 H 0.47193 0.97685 0.28797 0.0
H1750 H 0.46833 0.93558 0.27283 0.0
H1751 H 0.44488 0.93722 0.28209 0.0
H1752 H 0.48683 0.94277 0.32609 0.0
H1753 H 0.49359 0.97027 0.19328 0.0
H1754 H 0.48434 0.97891 0.22798 0.0
H1755 H 0.47802 0.96418 0.20815 0.0
C1756 C 0.45272 0.96915 0.29115 0.0
C1757 C 0.44491 0.95803 0.29018 0.0
C1758 C 0.46606 0.9682 0.28581 0.0
C1759 C 0.47182 0.95612 0.27918 0.0
C1760 C 0.46403 0.945 0.27761 0.0
H1761 H 0.55447 0.93652 0.28104 0.0
H1762 H 0.53097 0.93506 0.27321 0.0
C1763 C 0.45066 0.94596 0.28289 0.0
C1764 C 0.48607 0.95504 0.27703 0.0
H1765 H 0.51256 0.96681 0.23089 0.0
C1766 C 0.49248 0.94785 0.30494 0.0
C1767 C 0.49337 0.96171 0.24944 0.0
C1768 C 0.48698 0.9691 0.21779 0.0
C1769 C 0.50602 0.94763 0.30708 0.0
C1770 C 0.51332 0.95461 0.28014 0.0
C1771 C 0.50692 0.9615 0.25154 0.0
C1772 C 0.52758 0.95549 0.2825 0.0
C1773 C 0.51239 0.94041 0.33914 0.0
C1774 C 0.53346 0.96751 0.28915 0.0
C1775 C 0.54685 0.96838 0.29341 0.0
C1776 C 0.5546 0.95724 0.29098 0.0
C1777 C 0.54873 0.94526 0.28332 0.0
C1778 C 0.53531 0.94439 0.27899 0.0
H1779 H 0.50539 0.93787 0.36177 0.0
H1780 H 0.51664 0.93129 0.32819 0.0
H1781 H 0.52032 0.94625 0.3517 0.0
H1782 H 0.52764 0.97618 0.29183 0.0
H1783 H 0.55111 0.97776 0.29917 0.0
H1784 H 0.30917 0.19528 0.54377 0.0
H1785 H 0.31016 0.2189 0.53781 0.0
H1786 H 0.26849 0.22075 0.53994 0.0
H1787 H 0.26742 0.19722 0.54649 0.0
H1788 H 0.2994 0.2362 0.48407 0.0
H1789 H 0.27951 0.24421 0.62774 0.0
H1790 H 0.28538 0.22865 0.61213 0.0
H1791 H 0.26954 0.23412 0.59847 0.0
C1792 C 0.30023 0.20073 0.54276 0.0
C1793 C 0.28822 0.19444 0.54599 0.0
C1794 C 0.30081 0.2142 0.5393 0.0
C1795 C 0.28941 0.22155 0.53912 0.0
C1796 C 0.27741 0.21524 0.54081 0.0
H1797 H 0.26832 0.30188 0.53585 0.0
H1798 H 0.26929 0.27831 0.53113 0.0
C1799 C 0.27681 0.20181 0.54439 0.0
C1800 C 0.29001 0.23585 0.53834 0.0
H1801 H 0.28128 0.26269 0.58827 0.0
C1802 C 0.29552 0.24202 0.5069 0.0
C1803 C 0.28502 0.24337 0.56835 0.0
C1804 C 0.27964 0.23727 0.60376 0.0
C1805 C 0.29579 0.25559 0.50418 0.0
C1806 C 0.29052 0.26307 0.53382 0.0
C1807 C 0.28522 0.25689 0.56548 0.0
C1808 C 0.29018 0.27736 0.53264 0.0
C1809 C 0.30137 0.26183 0.46932 0.0
C1810 C 0.30164 0.28461 0.53471 0.0
C1811 C 0.30112 0.2981 0.5375 0.0
C1812 C 0.28913 0.30451 0.5384 0.0
C1813 C 0.2777 0.29722 0.53524 0.0
C1814 C 0.27823 0.28376 0.53254 0.0
H1815 H 0.30276 0.25475 0.44607 0.0
H1816 H 0.29499 0.26976 0.45922 0.0
H1817 H 0.31092 0.26611 0.47629 0.0
H1818 H 0.31095 0.27981 0.53541 0.0
H1819 H 0.31007 0.30348 0.54 0.0
H1820 H 0.95217 0.03454 0.85871 0.0
H1821 H 0.97538 0.03672 0.84819 0.0
H1822 H 0.96805 0.0541 0.73944 0.0
H1823 H 0.94469 0.05239 0.75059 0.0
H1824 H 0.98966 0.02577 0.7954 0.0
H1825 H 0.99387 0.07916 0.78256 0.0
H1826 H 0.97936 0.07135 0.79935 0.0
H1827 H 0.98282 0.07196 0.7496 0.0
C1828 C 0.9555 0.03894 0.83269 0.0
C1829 C 0.94665 0.04333 0.80549 0.0
C1830 C 0.96876 0.04017 0.82669 0.0
C1831 C 0.97347 0.0457 0.79321 0.0
C1832 C 0.96465 0.05008 0.76587 0.0
H1833 H 0.05532 0.03243 0.74038 0.0
H1834 H 0.03172 0.03332 0.73471 0.0
C1835 C 0.95132 0.04903 0.77214 0.0
C1836 C 0.98763 0.04629 0.78676 0.0
H1837 H 0.01286 0.06696 0.77127 0.0
C1838 C 0.99474 0.03477 0.79003 0.0
C1839 C 0.99423 0.05807 0.77998 0.0
C1840 C 0.98721 0.07086 0.778 0.0
C1841 C 0.00827 0.03472 0.78775 0.0
C1842 C 0.01487 0.04646 0.78052 0.0
C1843 C 0.00776 0.05795 0.77642 0.0
C1844 C 0.0292 0.04714 0.78011 0.0
C1845 C 0.01533 0.02216 0.7949 0.0
C1846 C 0.03565 0.05518 0.80592 0.0
C1847 C 0.04912 0.0549 0.80861 0.0
C1848 C 0.05635 0.04648 0.78574 0.0
C1849 C 0.04994 0.03888 0.75868 0.0
C1850 C 0.03648 0.03933 0.75558 0.0
H1851 H 0.00911 0.01498 0.80962 0.0
H1852 H 0.01831 0.01787 0.76752 0.0
H1853 H 0.02414 0.02377 0.81222 0.0
H1854 H 0.03023 0.06133 0.825 0.0
H1855 H 0.05381 0.06088 0.82966 0.0
H1856 H 0.8129 0.69447 0.03605 0.0
H1857 H 0.81456 0.71808 0.02982 0.0
H1858 H 0.77297 0.72091 0.02614 0.0
H1859 H 0.77121 0.69744 0.03265 0.0
H1860 H 0.80376 0.73641 0.97407 0.0
H1861 H 0.7845 0.74278 0.11925 0.0
H1862 H 0.79067 0.72751 0.10225 0.0
H1863 H 0.77469 0.73275 0.0893 0.0
C1864 C 0.80413 0.70012 0.03344 0.0
C1865 C 0.79192 0.69415 0.03527 0.0
C1866 C 0.80509 0.71358 0.02984 0.0
C1867 C 0.79388 0.72119 0.02811 0.0
C1868 C 0.78172 0.71518 0.02799 0.0
H1869 H 0.77115 0.80049 0.03317 0.0
H1870 H 0.77306 0.77706 0.02622 0.0
C1871 C 0.78074 0.70178 0.03165 0.0
C1872 C 0.79473 0.73546 0.02876 0.0
H1873 H 0.78605 0.76168 0.08144 0.0
C1874 C 0.80001 0.74198 0.9976 0.0
C1875 C 0.78991 0.74262 0.05972 0.0
C1876 C 0.78473 0.73608 0.09471 0.0
C1877 C 0.80008 0.75558 0.99598 0.0
C1878 C 0.79487 0.7627 0.02646 0.0
C1879 C 0.78994 0.75615 0.058 0.0
C1880 C 0.79398 0.77698 0.0261 0.0
C1881 C 0.80532 0.76223 0.9613 0.0
C1882 C 0.80514 0.78468 0.02786 0.0
C1883 C 0.80408 0.79811 0.03186 0.0
C1884 C 0.79184 0.80398 0.03437 0.0
C1885 C 0.78071 0.79625 0.0314 0.0
C1886 C 0.78178 0.78287 0.0274 0.0
H1887 H 0.80684 0.75535 0.93759 0.0
H1888 H 0.79863 0.77 0.95189 0.0
H1889 H 0.81474 0.76679 0.96819 0.0
H1890 H 0.81465 0.78027 0.02749 0.0
H1891 H 0.81282 0.80384 0.03419 0.0
H1892 H 0.71167 0.19883 0.6064 0.0
H1893 H 0.70852 0.22191 0.59483 0.0
H1894 H 0.69459 0.21356 0.48264 0.0
H1895 H 0.69779 0.19032 0.49398 0.0
H1896 H 0.71374 0.23311 0.4859 0.0
H1897 H 0.67438 0.24229 0.58844 0.0
H1898 H 0.68781 0.2338 0.60892 0.0
H1899 H 0.67848 0.22623 0.57214 0.0
C1900 C 0.70784 0.20188 0.57935 0.0
C1901 C 0.70494 0.19279 0.55111 0.0
C1902 C 0.70597 0.21506 0.57288 0.0
C1903 C 0.70113 0.2194 0.53812 0.0
C1904 C 0.69823 0.21036 0.50977 0.0
H1905 H 0.68491 0.30265 0.52275 0.0
H1906 H 0.6824 0.27924 0.51371 0.0
C1907 C 0.70005 0.19713 0.5163 0.0
C1908 C 0.69981 0.23345 0.53111 0.0
H1909 H 0.68658 0.26086 0.56826 0.0
C1910 C 0.70764 0.23918 0.50341 0.0
C1911 C 0.69168 0.2413 0.55356 0.0
C1912 C 0.68251 0.23558 0.58218 0.0
C1913 C 0.70815 0.25268 0.49922 0.0
C1914 C 0.70078 0.26058 0.52372 0.0
C1915 C 0.69233 0.25479 0.54975 0.0
C1916 C 0.70248 0.2748 0.52518 0.0
C1917 C 0.71677 0.25835 0.46911 0.0
C1918 C 0.71458 0.28003 0.53457 0.0
C1919 C 0.71603 0.29333 0.53977 0.0
C1920 C 0.70537 0.30166 0.53594 0.0
C1921 C 0.6933 0.29646 0.5258 0.0
C1922 C 0.69185 0.28311 0.52063 0.0
H1923 H 0.71825 0.25142 0.44551 0.0
H1924 H 0.71267 0.26747 0.45758 0.0
H1925 H 0.72638 0.26054 0.48151 0.0
H1926 H 0.72284 0.27376 0.53914 0.0
H1927 H 0.72545 0.29705 0.54773 0.0
H1928 H 0.80962 0.30283 0.09863 0.0
H1929 H 0.81044 0.27916 0.10391 0.0
H1930 H 0.76876 0.27761 0.10238 0.0
H1931 H 0.76784 0.30117 0.09681 0.0
H1932 H 0.79855 0.26139 0.15809 0.0
H1933 H 0.78057 0.25511 0.01137 0.0
H1934 H 0.78686 0.2703 0.02864 0.0
H1935 H 0.77072 0.26532 0.04068 0.0
C1936 C 0.80064 0.29744 0.09978 0.0
C1937 C 0.78866 0.30381 0.09693 0.0
C1938 C 0.80113 0.28395 0.10284 0.0
C1939 C 0.78967 0.27668 0.10295 0.0
C1940 C 0.77771 0.28307 0.10175 0.0
H1941 H 0.76891 0.1961 0.09137 0.0
H1942 H 0.76939 0.21965 0.0981 0.0
C1943 C 0.77721 0.29652 0.09867 0.0
C1944 C 0.79014 0.26239 0.10258 0.0
H1945 H 0.78216 0.2362 0.04879 0.0
C1946 C 0.79504 0.25585 0.1342 0.0
C1947 C 0.78558 0.25526 0.07123 0.0
C1948 C 0.78074 0.26183 0.03588 0.0
C1949 C 0.79515 0.24226 0.1357 0.0
C1950 C 0.79043 0.23513 0.10451 0.0
C1951 C 0.78569 0.24171 0.07275 0.0
C1952 C 0.79019 0.22081 0.10398 0.0
C1953 C 0.79999 0.23565 0.17095 0.0
C1954 C 0.80174 0.21368 0.10525 0.0
C1955 C 0.80149 0.20022 0.10148 0.0
C1956 C 0.78969 0.1937 0.09606 0.0
C1957 C 0.77814 0.20086 0.09548 0.0
C1958 C 0.7784 0.2143 0.09933 0.0
H1959 H 0.80028 0.24237 0.19543 0.0
H1960 H 0.7938 0.22723 0.17828 0.0
H1961 H 0.80996 0.23204 0.16597 0.0
H1962 H 0.81096 0.21856 0.10806 0.0
H1963 H 0.81054 0.19495 0.10188 0.0
H1964 H 0.68682 0.69304 0.60832 0.0
H1965 H 0.68489 0.71649 0.61759 0.0
H1966 H 0.72544 0.72106 0.59237 0.0
H1967 H 0.72749 0.69769 0.58343 0.0
H1968 H 0.71654 0.73548 0.6564 0.0
H1969 H 0.68572 0.74264 0.52909 0.0
H1970 H 0.68015 0.73092 0.5629 0.0
H1971 H 0.69479 0.72796 0.53705 0.0
C1972 C 0.69533 0.69905 0.60495 0.0
C1973 C 0.70729 0.69356 0.59491 0.0
C1974 C 0.6942 0.71242 0.61011 0.0
C1975 C 0.70499 0.72048 0.60518 0.0
C1976 C 0.717 0.71498 0.5962 0.0
H1977 H 0.72779 0.7993 0.59044 0.0
H1978 H 0.72591 0.77596 0.59943 0.0
C1979 C 0.71814 0.70164 0.59102 0.0
C1980 C 0.70382 0.73471 0.60831 0.0
H1981 H 0.69128 0.76119 0.56384 0.0
C1982 C 0.71093 0.74112 0.6364 0.0
C1983 C 0.69644 0.74199 0.58224 0.0
C1984 C 0.6889 0.73559 0.5509 0.0
C1985 C 0.71107 0.75467 0.63867 0.0
C1986 C 0.7041 0.76197 0.6117 0.0
C1987 C 0.69661 0.75555 0.58448 0.0
C1988 C 0.70525 0.77623 0.60925 0.0
C1989 C 0.71875 0.76106 0.66976 0.0
C1990 C 0.69421 0.78412 0.61122 0.0
C1991 C 0.69525 0.79749 0.60583 0.0
C1992 C 0.70732 0.80314 0.59804 0.0
C1993 C 0.71836 0.79523 0.59656 0.0
C1994 C 0.71732 0.7819 0.60198 0.0
H1995 H 0.71999 0.75448 0.69432 0.0
H1996 H 0.72851 0.76354 0.65898 0.0
H1997 H 0.71401 0.7701 0.67952 0.0
H1998 H 0.68479 0.7799 0.61648 0.0
H1999 H 0.68657 0.80335 0.60702 0.0
H2000 H 0.55233 0.47822 0.82675 0.0
H2001 H 0.52872 0.4771 0.8286 0.0
H2002 H 0.53076 0.43623 0.85266 0.0
H2003 H 0.55445 0.43728 0.85106 0.0
H2004 H 0.51384 0.46077 0.77977 0.0
H2005 H 0.50472 0.4506 0.93175 0.0
H2006 H 0.51981 0.4573 0.91495 0.0
H2007 H 0.51639 0.4404 0.90868 0.0
C2008 C 0.54776 0.46903 0.83294 0.0
C2009 C 0.55522 0.45783 0.83874 0.0
C2010 C 0.53429 0.4684 0.83394 0.0
C2011 C 0.52804 0.45661 0.84104 0.0
C2012 C 0.53544 0.44546 0.8477 0.0
H2013 H 0.44613 0.43636 0.8412 0.0
H2014 H 0.4698 0.43575 0.84531 0.0
C2015 C 0.54894 0.44607 0.84663 0.0
C2016 C 0.51379 0.45589 0.83887 0.0
H2017 H 0.48658 0.45047 0.89107 0.0
C2018 C 0.50786 0.45853 0.80409 0.0
C2019 C 0.50608 0.45285 0.8706 0.0
C2020 C 0.51202 0.45021 0.90874 0.0
C2021 C 0.49438 0.45823 0.80014 0.0
C2022 C 0.48664 0.45548 0.83205 0.0
C2023 C 0.49257 0.45261 0.86672 0.0
C2024 C 0.47236 0.45587 0.83012 0.0
C2025 C 0.48856 0.46072 0.76173 0.0
C2026 C 0.46601 0.46743 0.82078 0.0
C2027 C 0.45255 0.4678 0.81829 0.0
C2028 C 0.4452 0.45662 0.82541 0.0
C2029 C 0.45156 0.4451 0.83542 0.0
C2030 C 0.46505 0.44474 0.83785 0.0
H2031 H 0.49569 0.45907 0.73876 0.0
H2032 H 0.48003 0.45441 0.75674 0.0
H2033 H 0.48534 0.47095 0.76009 0.0
H2034 H 0.47148 0.47619 0.81547 0.0
H2035 H 0.4479 0.47684 0.81079 0.0
H2036 H 0.94578 0.51846 0.33987 0.0
H2037 H 0.96935 0.51892 0.34495 0.0
H2038 H 0.96835 0.56045 0.35702 0.0
H2039 H 0.9447 0.56006 0.35242 0.0
H2040 H 0.98538 0.53215 0.29463 0.0
H2041 H 0.99302 0.54909 0.4419 0.0
H2042 H 0.97776 0.54262 0.4257 0.0
H2043 H 0.98232 0.55892 0.41403 0.0
C2044 C 0.95056 0.52768 0.34415 0.0
C2045 C 0.94342 0.53924 0.34571 0.0
C2046 C 0.96402 0.52792 0.34704 0.0
C2047 C 0.97057 0.5397 0.35171 0.0
C2048 C 0.96345 0.55124 0.35413 0.0
H2049 H 0.05219 0.55994 0.34458 0.0
H2050 H 0.02855 0.5603 0.35001 0.0
C2051 C 0.94997 0.55101 0.35129 0.0
C2052 C 0.98487 0.53994 0.35101 0.0
H2053 H 0.01162 0.54772 0.40279 0.0
C2054 C 0.99112 0.5355 0.31833 0.0
C2055 C 0.9923 0.54442 0.38188 0.0
C2056 C 0.98604 0.54894 0.41803 0.0
C2057 C 0.00464 0.53548 0.31556 0.0
C2058 C 0.01208 0.53981 0.34657 0.0
C2059 C 0.00585 0.54438 0.37915 0.0
C2060 C 0.02637 0.53953 0.34561 0.0
C2061 C 0.01083 0.53103 0.27921 0.0
C2062 C 0.03294 0.52771 0.34218 0.0
C2063 C 0.04639 0.52748 0.33897 0.0
C2064 C 0.0535 0.53906 0.33937 0.0
C2065 C 0.04694 0.55087 0.34402 0.0
C2066 C 0.03346 0.5511 0.3472 0.0
H2067 H 0.00387 0.53116 0.2553 0.0
H2068 H 0.01925 0.5372 0.27183 0.0
H2069 H 0.01433 0.52094 0.28272 0.0
H2070 H 0.02763 0.51867 0.34156 0.0
H2071 H 0.05119 0.51823 0.33571 0.0
H2072 H 0.94474 0.4365 0.78396 0.0
H2073 H 0.96833 0.43507 0.77834 0.0
H2074 H 0.97147 0.47602 0.8002 0.0
H2075 H 0.94795 0.47756 0.80537 0.0
H2076 H 0.98712 0.46716 0.74 0.0
H2077 H 0.99301 0.43721 0.86948 0.0
H2078 H 0.9821 0.43091 0.8345 0.0
H2079 H 0.97819 0.44567 0.85872 0.0
C2080 C 0.95046 0.4452 0.78735 0.0
C2081 C 0.94453 0.45713 0.79532 0.0
C2082 C 0.96392 0.44436 0.78433 0.0
C2083 C 0.97162 0.45541 0.78943 0.0
C2084 C 0.96568 0.46738 0.79632 0.0
H2085 H 0.05108 0.47796 0.80762 0.0
H2086 H 0.02759 0.47653 0.80097 0.0
C2087 C 0.95225 0.46823 0.79931 0.0
C2088 C 0.9859 0.45457 0.78833 0.0
H2089 H 0.01194 0.44239 0.83571 0.0
C2090 C 0.99256 0.46169 0.76078 0.0
C2091 C 0.99293 0.44741 0.81547 0.0
C2092 C 0.98624 0.43993 0.84644 0.0
C2093 C 0.00612 0.46194 0.75984 0.0
C2094 C 0.01315 0.45505 0.78757 0.0
C2095 C 0.00649 0.44766 0.81451 0.0
C2096 C 0.0274 0.4559 0.79034 0.0
C2097 C 0.01281 0.46956 0.72918 0.0
C2098 C 0.03503 0.44472 0.78738 0.0
C2099 C 0.04846 0.4455 0.79139 0.0
C2100 C 0.05444 0.45746 0.79872 0.0
C2101 C 0.04675 0.46863 0.80179 0.0
C2102 C 0.03335 0.46784 0.79775 0.0
H2103 H 0.00637 0.4711 0.70445 0.0
H2104 H 0.01556 0.4792 0.74039 0.0
H2105 H 0.02174 0.46458 0.71954 0.0
H2106 H 0.03059 0.43541 0.78197 0.0
H2107 H 0.05415 0.43673 0.78898 0.0
H2108 H 0.44774 0.52068 0.29786 0.0
H2109 H 0.47116 0.52263 0.28984 0.0
H2110 H 0.46717 0.56376 0.27271 0.0
H2111 H 0.44371 0.56192 0.28108 0.0
H2112 H 0.48575 0.53285 0.22778 0.0
H2113 H 0.49319 0.56051 0.36098 0.0
H2114 H 0.47842 0.55183 0.35114 0.0
H2115 H 0.48155 0.56705 0.32844 0.0
C2116 C 0.45184 0.53013 0.29228 0.0
C2117 C 0.44392 0.54116 0.29037 0.0
C2118 C 0.4652 0.53122 0.28762 0.0
C2119 C 0.47087 0.54335 0.28114 0.0
C2120 C 0.46297 0.55434 0.27826 0.0
H2121 H 0.55363 0.56174 0.28172 0.0
H2122 H 0.53016 0.56364 0.27311 0.0
C2123 C 0.44959 0.55327 0.28291 0.0
C2124 C 0.4851 0.54443 0.27831 0.0
H2125 H 0.51167 0.55584 0.32479 0.0
C2126 C 0.49143 0.53795 0.2488 0.0
C2127 C 0.49244 0.55115 0.30571 0.0
C2128 C 0.48611 0.55797 0.33856 0.0
C2129 C 0.50498 0.53785 0.2463 0.0
C2130 C 0.51233 0.54418 0.27445 0.0
C2131 C 0.50598 0.55101 0.30324 0.0
C2132 C 0.52659 0.54303 0.27632 0.0
C2133 C 0.51128 0.53091 0.21364 0.0
C2134 C 0.53231 0.53083 0.28102 0.0
C2135 C 0.54565 0.52972 0.28593 0.0
C2136 C 0.55351 0.54081 0.28652 0.0
C2137 C 0.5478 0.55303 0.28128 0.0
C2138 C 0.53442 0.55413 0.27638 0.0
H2139 H 0.50464 0.53022 0.18904 0.0
H2140 H 0.52029 0.53589 0.20463 0.0
H2141 H 0.5138 0.52092 0.22244 0.0
H2142 H 0.52641 0.52217 0.28198 0.0
H2143 H 0.54976 0.52018 0.29009 0.0
H2144 H 0.2098 0.14385 0.20302 0.0
H2145 H 0.22031 0.14056 0.26424 0.0
H2146 H 0.25763 0.14044 0.20982 0.0
H2147 H 0.24722 0.14396 0.14861 0.0
H2148 H 0.23743 0.12145 0.29235 0.0
H2149 H 0.26036 0.17009 0.28642 0.0
H2150 H 0.24762 0.16527 0.25456 0.0
H2151 H 0.26391 0.15977 0.24695 0.0
C2152 C 0.22024 0.143 0.20406 0.0
C2153 C 0.22771 0.14431 0.17112 0.0
C2154 C 0.22622 0.1411 0.23902 0.0
C2155 C 0.23975 0.14049 0.24158 0.0
C2156 C 0.24719 0.14114 0.2085 0.0
H2157 H 0.29092 0.14284 0.43654 0.0
H2158 H 0.28226 0.13952 0.37295 0.0
C2159 C 0.24122 0.1431 0.17356 0.0
C2160 C 0.24607 0.13986 0.27905 0.0
H2161 H 0.26557 0.15697 0.33864 0.0
C2162 C 0.24362 0.12918 0.3025 0.0
C2163 C 0.25409 0.15 0.29217 0.0
C2164 C 0.25659 0.16199 0.26892 0.0
C2165 C 0.24906 0.12835 0.33877 0.0
C2166 C 0.25698 0.13855 0.35197 0.0
C2167 C 0.25955 0.14913 0.32831 0.0
C2168 C 0.26226 0.13885 0.39083 0.0
C2169 C 0.24636 0.11654 0.36255 0.0
C2170 C 0.25388 0.13944 0.42196 0.0
C2171 C 0.2588 0.14134 0.45829 0.0
C2172 C 0.27217 0.14276 0.46405 0.0
C2173 C 0.28057 0.14176 0.43298 0.0
C2174 C 0.27564 0.13987 0.39666 0.0
H2175 H 0.24328 0.10819 0.34496 0.0
H2176 H 0.25502 0.11371 0.37915 0.0
H2177 H 0.23842 0.11876 0.38262 0.0
H2178 H 0.2435 0.13895 0.41799 0.0
H2179 H 0.25209 0.14212 0.48167 0.0
H2180 H 0.10774 0.95908 0.44637 0.0
H2181 H 0.11167 0.96825 0.50908 0.0
H2182 H 0.10884 0.00677 0.46296 0.0
H2183 H 0.10508 0.99769 0.40005 0.0
H2184 H 0.12902 0.00355 0.5176 0.0
H2185 H 0.08153 0.98493 0.56758 0.0
H2186 H 0.09221 0.97293 0.54822 0.0
H2187 H 0.08584 0.98544 0.51825 0.0
C2188 C 0.1081 0.9695 0.44951 0.0
C2189 C 0.10597 0.97768 0.41842 0.0
C2190 C 0.11031 0.97472 0.48534 0.0
C2191 C 0.11032 0.98817 0.49068 0.0
C2192 C 0.10881 0.99636 0.45939 0.0
H2193 H 0.10835 0.04206 0.67609 0.0
H2194 H 0.11163 0.03146 0.61505 0.0
C2195 C 0.10664 0.99115 0.42352 0.0
C2196 C 0.11107 0.99373 0.52911 0.0
H2197 H 0.09448 0.99575 0.61215 0.0
C2198 C 0.12151 0.00182 0.53839 0.0
C2199 C 0.10122 0.99148 0.55604 0.0
C2200 C 0.0895 0.98332 0.54708 0.0
C2201 C 0.12239 0.00768 0.57411 0.0
C2202 C 0.11246 0.00553 0.60085 0.0
C2203 C 0.10212 0.99732 0.59165 0.0
C2204 C 0.1122 0.01206 0.63807 0.0
C2205 C 0.13398 0.01601 0.58302 0.0
C2206 C 0.11143 0.00467 0.67125 0.0
C2207 C 0.10944 0.01069 0.70606 0.0
C2208 C 0.10813 0.02421 0.70829 0.0
C2209 C 0.10938 0.03163 0.67524 0.0
C2210 C 0.11134 0.02559 0.64038 0.0
H2211 H 0.1423 0.01369 0.56438 0.0
H2212 H 0.13141 0.02633 0.57852 0.0
H2213 H 0.13702 0.01481 0.61289 0.0
H2214 H 0.112 0.99421 0.67004 0.0
H2215 H 0.10853 0.00472 0.73105 0.0
H2216 H 0.24643 0.86182 0.98568 0.0
H2217 H 0.25703 0.86573 0.92491 0.0
H2218 H 0.22103 0.85836 0.86721 0.0
H2219 H 0.21036 0.85452 0.9278 0.0
H2220 H 0.25834 0.8466 0.86889 0.0
H2221 H 0.2348 0.89103 0.81408 0.0
H2222 H 0.23437 0.88654 0.86338 0.0
H2223 H 0.2237 0.87885 0.83019 0.0
C2224 C 0.24072 0.86127 0.96008 0.0
C2225 C 0.22758 0.85783 0.96143 0.0
C2226 C 0.24678 0.86352 0.92544 0.0
C2227 C 0.23978 0.86248 0.89165 0.0
C2228 C 0.22655 0.85947 0.89301 0.0
H2229 H 0.25439 0.85441 0.65524 0.0
H2230 H 0.24544 0.8583 0.71814 0.0
C2231 C 0.22049 0.85719 0.92763 0.0
C2232 C 0.24656 0.86308 0.85492 0.0
H2233 H 0.24681 0.87844 0.76959 0.0
C2234 C 0.25598 0.85367 0.84732 0.0
C2235 C 0.24334 0.87226 0.82687 0.0
C2236 C 0.23358 0.88283 0.83405 0.0
C2237 C 0.26193 0.85285 0.81186 0.0
C2238 C 0.2586 0.86193 0.78353 0.0
C2239 C 0.24937 0.87153 0.7914 0.0
C2240 C 0.26405 0.86107 0.74494 0.0
C2241 C 0.27128 0.8419 0.80456 0.0
C2242 C 0.27746 0.86176 0.73896 0.0
C2243 C 0.28261 0.8594 0.70313 0.0
C2244 C 0.27441 0.85651 0.67263 0.0
C2245 C 0.26095 0.85657 0.67825 0.0
C2246 C 0.25582 0.85881 0.71414 0.0
H2247 H 0.27035 0.83407 0.82591 0.0
H2248 H 0.26972 0.83765 0.77612 0.0
H2249 H 0.28132 0.84566 0.80591 0.0
H2250 H 0.28396 0.86378 0.7622 0.0
H2251 H 0.29301 0.85954 0.69952 0.0
H2252 H 0.39448 0.03977 0.95848 0.0
H2253 H 0.39145 0.02911 0.0196 0.0
H2254 H 0.38528 0.99265 0.96315 0.0
H2255 H 0.38847 0.00318 0.90194 0.0
H2256 H 0.37079 0.0137 0.0503 0.0
H2257 H 0.41663 0.98613 0.03294 0.0
H2258 H 0.41252 -0.00022 0.0035 0.0
H2259 H 0.4051 0.9843 0.99534 0.0
C2260 C 0.39235 0.02951 0.95907 0.0
C2261 C 0.39185 0.02227 0.92549 0.0
C2262 C 0.39059 0.02345 0.99397 0.0
C2263 C 0.38834 0.01008 0.99582 0.0
C2264 C 0.38722 0.00294 0.96227 0.0
H2265 H 0.39125 0.95753 0.18766 0.0
H2266 H 0.38717 0.96676 0.12514 0.0
C2267 C 0.389 0.00898 0.92737 0.0
C2268 C 0.38794 0.0035 0.0329 0.0
H2269 H 0.40452 0.98206 0.08787 0.0
C2270 C 0.37811 0.00673 0.05855 0.0
C2271 C 0.39754 0.99445 0.04347 0.0
C2272 C 0.40862 0.991 0.01758 0.0
C2273 C 0.37761 0.0011 0.09461 0.0
C2274 C 0.38733 0.99219 0.10537 0.0
C2275 C 0.39704 0.98884 0.07946 0.0
C2276 C 0.3881 0.98667 0.1439 0.0
C2277 C 0.36666 0.00465 0.12074 0.0
C2278 C 0.38985 0.99481 0.17521 0.0
C2279 C 0.39215 0.98957 0.21095 0.0
C2280 C 0.39287 0.97609 0.21588 0.0
C2281 C 0.39075 0.96795 0.18471 0.0
C2282 C 0.38841 0.97321 0.149 0.0
H2283 H 0.35815 0.00832 0.10483 0.0
H2284 H 0.3636 0.99623 0.13804 0.0
H2285 H 0.36991 0.01244 0.14011 0.0
H2286 H 0.38996 0.00523 0.17178 0.0
H2287 H 0.39382 0.99608 0.23443 0.0
H2288 H 0.75362 0.85519 0.97604 0.0
H2289 H 0.74514 0.85889 0.9125 0.0
H2290 H 0.78401 0.8631 0.87007 0.0
H2291 H 0.7926 0.85911 0.93347 0.0
H2292 H 0.74768 0.87883 0.85907 0.0
H2293 H 0.76965 0.83279 0.80884 0.0
H2294 H 0.76869 0.83694 0.85822 0.0
H2295 H 0.78084 0.8442 0.82874 0.0
C2296 C 0.76036 0.85705 0.95327 0.0
C2297 C 0.77378 0.8567 0.95958 0.0
C2298 C 0.7555 0.85919 0.91701 0.0
C2299 C 0.76396 0.86102 0.88651 0.0
C2300 C 0.77734 0.86143 0.89313 0.0
H2301 H 0.74682 0.85813 0.64546 0.0
H2302 H 0.75761 0.86261 0.70558 0.0
C2303 C 0.78222 0.85922 0.92936 0.0
C2304 C 0.75875 0.86161 0.84761 0.0
H2305 H 0.75803 0.845 0.76435 0.0
C2306 C 0.75 0.87149 0.83823 0.0
C2307 C 0.76177 0.852 0.82056 0.0
C2308 C 0.77066 0.84081 0.82954 0.0
C2309 C 0.74411 0.87196 0.8025 0.0
C2310 C 0.74695 0.8622 0.77578 0.0
C2311 C 0.75593 0.85251 0.78487 0.0
C2312 C 0.74016 0.86126 0.73907 0.0
C2313 C 0.73492 0.88288 0.79366 0.0
C2314 C 0.72676 0.85914 0.73799 0.0
C2315 C 0.72058 0.85656 0.70372 0.0
C2316 C 0.72771 0.85598 0.67 0.0
C2317 C 0.74107 0.85852 0.67099 0.0
C2318 C 0.74724 0.86109 0.70528 0.0
H2319 H 0.73669 0.8914 0.81208 0.0
H2320 H 0.73576 0.88593 0.7637 0.0
H2321 H 0.72485 0.87956 0.79859 0.0
H2322 H 0.72116 0.85894 0.76382 0.0
H2323 H 0.71028 0.8546 0.70384 0.0
H2324 H 0.90332 0.00062 0.7407 0.0
H2325 H 0.89967 0.99081 0.67862 0.0
H2326 H 0.88356 0.02672 0.63814 0.0
H2327 H 0.88731 0.03665 0.69993 0.0
H2328 H 0.87679 0.98807 0.63291 0.0
H2329 H 0.91412 0.01938 0.56619 0.0
H2330 H 0.91266 0.01765 0.61671 0.0
H2331 H 0.90157 0.0278 0.59124 0.0
C2332 C 0.89889 0.00639 0.71868 0.0
C2333 C 0.89572 0.01944 0.72502 0.0
C2334 C 0.89679 0.00077 0.68329 0.0
C2335 C 0.89154 0.00812 0.65371 0.0
C2336 C 0.88783 0.02097 0.66046 0.0
H2337 H 0.88642 0.99149 0.41282 0.0
H2338 H 0.8833 0.00128 0.47516 0.0
C2339 C 0.88994 0.0266 0.6958 0.0
C2340 C 0.89054 0.00251 0.61535 0.0
H2341 H 0.90277 0.00516 0.52621 0.0
C2342 C 0.88242 0.99181 0.6095 0.0
C2343 C 0.8979 0.00745 0.58494 0.0
C2344 C 0.90715 0.01863 0.58996 0.0
C2345 C 0.88146 0.98591 0.57387 0.0
C2346 C 0.889 0.99071 0.54362 0.0
C2347 C 0.89695 0.00154 0.54941 0.0
C2348 C 0.8894 0.9843 0.50621 0.0
C2349 C 0.87231 0.97466 0.56889 0.0
C2350 C 0.89376 0.97148 0.50301 0.0
C2351 C 0.89552 0.96587 0.46749 0.0
C2352 C 0.89306 0.97302 0.43451 0.0
C2353 C 0.88837 0.98574 0.43774 0.0
C2354 C 0.8866 0.99134 0.47331 0.0
H2355 H 0.86454 0.97475 0.59054 0.0
H2356 H 0.86779 0.97476 0.54044 0.0
H2357 H 0.87777 0.96548 0.57204 0.0
H2358 H 0.89627 0.96596 0.52796 0.0
H2359 H 0.8992 0.95607 0.4659 0.0
H2360 H 0.75447 0.1375 0.15429 0.0
H2361 H 0.7446 0.13395 0.21626 0.0
H2362 H 0.7811 0.14225 0.27009 0.0
H2363 H 0.7911 0.14555 0.20822 0.0
H2364 H 0.76768 0.12157 0.30357 0.0
H2365 H 0.73619 0.1647 0.28461 0.0
H2366 H 0.73465 0.15265 0.24835 0.0
H2367 H 0.74965 0.16126 0.25379 0.0
C2368 C 0.76043 0.13842 0.17932 0.0
C2369 C 0.77352 0.14193 0.17647 0.0
C2370 C 0.75476 0.13645 0.21468 0.0
C2371 C 0.76206 0.1381 0.24774 0.0
C2372 C 0.77528 0.141 0.2449 0.0
H2373 H 0.74879 0.1455 0.48653 0.0
H2374 H 0.75805 0.14197 0.42379 0.0
C2375 C 0.78098 0.14289 0.20954 0.0
C2376 C 0.75581 0.13752 0.28532 0.0
H2377 H 0.7333 0.15261 0.34034 0.0
C2378 C 0.76013 0.12832 0.31164 0.0
C2379 C 0.746 0.14638 0.29575 0.0
C2380 C 0.7414 0.15689 0.26933 0.0
C2381 C 0.75485 0.12772 0.34814 0.0
C2382 C 0.74513 0.13665 0.3586 0.0
C2383 C 0.7407 0.14572 0.33211 0.0
C2384 C 0.73977 0.13725 0.39732 0.0
C2385 C 0.75964 0.1175 0.37514 0.0
C2386 C 0.72643 0.13579 0.40321 0.0
C2387 C 0.72111 0.13786 0.43896 0.0
C2388 C 0.72904 0.14154 0.46936 0.0
C2389 C 0.74245 0.14263 0.46366 0.0
C2390 C 0.74777 0.14053 0.42789 0.0
H2391 H 0.76436 0.10935 0.35999 0.0
H2392 H 0.76689 0.12186 0.39444 0.0
H2393 H 0.75159 0.11361 0.39253 0.0
H2394 H 0.7201 0.13334 0.3799 0.0
H2395 H 0.71074 0.13696 0.44249 0.0
H2396 H 0.62067 0.98734 0.22792 0.0
H2397 H 0.62479 0.99753 0.16654 0.0
H2398 H 0.59506 0.97378 0.11621 0.0
H2399 H 0.59152 0.96309 0.17671 0.0
H2400 H 0.61406 0.97601 0.06926 0.0
H2401 H 0.60262 0.02509 0.12369 0.0
H2402 H 0.61627 0.01774 0.14635 0.0
H2403 H 0.60042 0.01074 0.15183 0.0
C2404 C 0.61514 0.98424 0.20359 0.0
C2405 C 0.60572 0.9745 0.20705 0.0
C2406 C 0.61741 0.99013 0.16861 0.0
C2407 C 0.60999 0.98669 0.13687 0.0
C2408 C 0.60089 0.97666 0.14021 0.0
H2409 H 0.58652 0.03188 0.94914 0.0
H2410 H 0.59066 0.02126 0.00933 0.0
C2411 C 0.59885 0.97056 0.17486 0.0
C2412 C 0.61126 0.9937 0.10036 0.0
H2413 H 0.60845 0.02354 0.05977 0.0
C2414 C 0.61287 0.98642 0.06717 0.0
C2415 C 0.60963 0.00728 0.09759 0.0
C2416 C 0.60701 0.01566 0.13169 0.0
C2417 C 0.61235 0.99221 0.03133 0.0
C2418 C 0.61074 0.0058 0.02859 0.0
C2419 C 0.60972 0.01314 0.06185 0.0
C2420 C 0.60872 0.01247 0.99184 0.0
C2421 C 0.61277 0.9836 0.99692 0.0
C2422 C 0.61756 0.01124 0.96187 0.0
C2423 C 0.61503 0.01709 0.92693 0.0
C2424 C 0.60382 0.02457 0.92185 0.0
C2425 C 0.59527 0.0262 0.95227 0.0
C2426 C 0.59764 0.02014 0.98674 0.0
H2427 H 0.61063 0.97335 0.00407 0.0
H2428 H 0.60573 0.98684 0.97523 0.0
H2429 H 0.62261 0.98394 0.98445 0.0
H2430 H 0.62638 0.00572 0.96536 0.0
H2431 H 0.62183 0.01579 0.904 0.0
H2432 H 0.79252 0.64049 0.9342 0.0
H2433 H 0.78368 0.63683 0.87096 0.0
H2434 H 0.74495 0.63904 0.91573 0.0
H2435 H 0.75371 0.64247 0.97916 0.0
H2436 H 0.74827 0.61954 0.86003 0.0
H2437 H 0.76739 0.66729 0.81367 0.0
H2438 H 0.77928 0.65637 0.83241 0.0
H2439 H 0.76678 0.66256 0.86267 0.0
C2440 C 0.78213 0.64002 0.93065 0.0
C2441 C 0.7738 0.64191 0.96151 0.0
C2442 C 0.7771 0.63798 0.89451 0.0
C2443 C 0.76368 0.63792 0.88864 0.0
C2444 C 0.75535 0.63911 0.9197 0.0
H2445 H 0.71008 0.64202 0.70354 0.0
H2446 H 0.72074 0.63831 0.76424 0.0
C2447 C 0.76036 0.64109 0.95588 0.0
C2448 C 0.75829 0.63749 0.84994 0.0
H2449 H 0.75662 0.65476 0.76798 0.0
C2450 C 0.75013 0.62719 0.83979 0.0
C2451 C 0.7607 0.64753 0.82371 0.0
C2452 C 0.76892 0.65913 0.83362 0.0
C2453 C 0.74433 0.62667 0.80394 0.0
C2454 C 0.74662 0.6368 0.77794 0.0
C2455 C 0.75494 0.64697 0.78793 0.0
C2456 C 0.74007 0.63748 0.74082 0.0
C2457 C 0.73586 0.61527 0.79413 0.0
C2458 C 0.74739 0.6383 0.70756 0.0
C2459 C 0.74133 0.64052 0.6729 0.0
C2460 C 0.72784 0.64204 0.67097 0.0
C2461 C 0.72048 0.64084 0.70415 0.0
C2462 C 0.72656 0.63863 0.73881 0.0
H2463 H 0.73804 0.60676 0.81223 0.0
H2464 H 0.72558 0.61794 0.79868 0.0
H2465 H 0.73707 0.61245 0.76408 0.0
H2466 H 0.75784 0.63753 0.70857 0.0
H2467 H 0.74725 0.6414 0.6478 0.0
H2468 H 0.60871 0.54172 0.18326 0.0
H2469 H 0.61303 0.53308 0.1201 0.0
H2470 H 0.60844 0.49422 0.16248 0.0
H2471 H 0.6044 0.50275 0.22579 0.0
H2472 H 0.62879 0.49665 0.11077 0.0
H2473 H 0.58338 0.51874 0.05644 0.0
H2474 H 0.59462 0.52993 0.07711 0.0
H2475 H 0.58705 0.51785 0.10616 0.0
C2476 C 0.60878 0.53133 0.17918 0.0
C2477 C 0.60608 0.52291 0.20932 0.0
C2478 C 0.61119 0.52642 0.14309 0.0
C2479 C 0.6108 0.51303 0.13653 0.0
C2480 C 0.60873 0.50459 0.16695 0.0
H2481 H 0.60564 0.45914 0.95436 0.0
H2482 H 0.60945 0.47013 0.01449 0.0
C2483 C 0.6064 0.50948 0.20307 0.0
C2484 C 0.61175 0.50778 0.09773 0.0
H2485 H 0.59599 0.50703 0.01309 0.0
C2486 C 0.62168 0.49898 0.08929 0.0
C2487 C 0.60243 0.51082 0.06984 0.0
C2488 C 0.59119 0.51976 0.07778 0.0
C2489 C 0.62247 0.49304 0.05369 0.0
C2490 C 0.613 0.49589 0.02614 0.0
C2491 C 0.60328 0.50493 0.03427 0.0
C2492 C 0.61239 0.48902 0.98952 0.0
C2493 C 0.63341 0.48375 0.04589 0.0
C2494 C 0.61276 0.49601 0.95557 0.0
C2495 C 0.61052 0.48976 0.92118 0.0
C2496 C 0.60775 0.47645 0.92026 0.0
C2497 C 0.60778 0.4694 0.9542 0.0
C2498 C 0.61005 0.47565 0.98855 0.0
H2499 H 0.64172 0.48544 0.06515 0.0
H2500 H 0.62995 0.4737 0.05038 0.0
H2501 H 0.6368 0.48461 0.01625 0.0
H2502 H 0.61445 0.50636 0.95579 0.0
H2503 H 0.61055 0.49544 0.89548 0.0
H2504 H 0.74624 0.35386 0.48962 0.0
H2505 H 0.75703 0.35848 0.42964 0.0
H2506 H 0.72007 0.35893 0.37312 0.0
H2507 H 0.7092 0.3545 0.43309 0.0
H2508 H 0.75577 0.34206 0.36874 0.0
H2509 H 0.73792 0.39073 0.32861 0.0
H2510 H 0.7367 0.3845 0.37614 0.0
H2511 H 0.72524 0.3796 0.34069 0.0
C2512 C 0.7404 0.35518 0.46453 0.0
C2513 C 0.72688 0.35378 0.46596 0.0
C2514 C 0.74657 0.35783 0.43033 0.0
C2515 C 0.73934 0.3592 0.39705 0.0
C2516 C 0.72581 0.3582 0.39861 0.0
H2517 H 0.75257 0.35573 0.15912 0.0
H2518 H 0.74409 0.35899 0.2229 0.0
C2519 C 0.71962 0.35556 0.43283 0.0
C2520 C 0.746 0.36022 0.36019 0.0
H2521 H 0.74789 0.37824 0.27957 0.0
C2522 C 0.75421 0.35006 0.34944 0.0
C2523 C 0.74386 0.37064 0.33507 0.0
C2524 C 0.73554 0.38205 0.34579 0.0
C2525 C 0.75998 0.34978 0.31367 0.0
C2526 C 0.75767 0.36008 0.28825 0.0
C2527 C 0.74966 0.37039 0.29922 0.0
C2528 C 0.76292 0.35986 0.24942 0.0
C2529 C 0.76806 0.33818 0.30284 0.0
C2530 C 0.77632 0.35972 0.24316 0.0
C2531 C 0.78119 0.35777 0.20681 0.0
C2532 C 0.77273 0.35605 0.17617 0.0
C2533 C 0.75933 0.35697 0.18223 0.0
C2534 C 0.75446 0.35886 0.2186 0.0
H2535 H 0.76655 0.3299 0.32237 0.0
H2536 H 0.76577 0.33496 0.27368 0.0
H2537 H 0.77845 0.34086 0.30383 0.0
H2538 H 0.783 0.3607 0.26656 0.0
H2539 H 0.79157 0.35722 0.20292 0.0
H2540 H 0.88946 0.4951 0.7376 0.0
H2541 H 0.88541 0.50551 0.67669 0.0
H2542 H 0.89024 0.46882 0.62034 0.0
H2543 H 0.89422 0.45831 0.68117 0.0
H2544 H 0.90384 0.50553 0.6186 0.0
H2545 H 0.85758 0.48391 0.57011 0.0
H2546 H 0.8627 0.48354 0.61888 0.0
H2547 H 0.86948 0.47237 0.5854 0.0
C2548 C 0.88944 0.4892 0.71231 0.0
C2549 C 0.89219 0.4759 0.71409 0.0
C2550 C 0.88711 0.49516 0.67757 0.0
C2551 C 0.88738 0.48791 0.6441 0.0
C2552 C 0.88973 0.47454 0.64592 0.0
H2553 H 0.89227 0.50307 0.4062 0.0
H2554 H 0.88912 0.49376 0.46906 0.0
C2555 C 0.89208 0.46857 0.68065 0.0
C2556 C 0.88661 0.49452 0.60713 0.0
H2557 H 0.86984 0.49553 0.52413 0.0
C2558 C 0.89632 0.50348 0.59808 0.0
C2559 C 0.87685 0.49171 0.58042 0.0
C2560 C 0.86598 0.48244 0.5892 0.0
C2561 C 0.89678 0.50943 0.56256 0.0
C2562 C 0.88706 0.50657 0.53568 0.0
C2563 C 0.87723 0.49773 0.54488 0.0
C2564 C 0.88736 0.51225 0.4973 0.0
C2565 C 0.90797 0.51832 0.55367 0.0
C2566 C 0.88695 0.52571 0.49221 0.0
C2567 C 0.88887 0.53106 0.45642 0.0
C2568 C 0.89104 0.52301 0.42508 0.0
C2569 C 0.89066 0.50952 0.42988 0.0
C2570 C 0.88884 0.50418 0.46573 0.0
H2571 H 0.91615 0.51696 0.57366 0.0
H2572 H 0.91158 0.51668 0.52453 0.0
H2573 H 0.9047 0.52852 0.55586 0.0
H2574 H 0.88553 0.53209 0.51611 0.0
H2575 H 0.88899 0.5415 0.45348 0.0
H2576 H 0.20986 0.36188 0.19552 0.0
H2577 H 0.21927 0.36665 0.25738 0.0
H2578 H 0.25727 0.3579 0.214 0.0
H2579 H 0.24796 0.35337 0.15195 0.0
H2580 H 0.23195 0.34895 0.29984 0.0
H2581 H 0.26425 0.39073 0.27324 0.0
H2582 H 0.25179 0.38587 0.24044 0.0
H2583 H 0.26706 0.37752 0.24138 0.0
C2584 C 0.22024 0.3612 0.19901 0.0
C2585 C 0.22818 0.35723 0.16896 0.0
C2586 C 0.22561 0.36395 0.23433 0.0
C2587 C 0.23899 0.3628 0.24018 0.0
C2588 C 0.24696 0.35916 0.20992 0.0
H2589 H 0.29006 0.35274 0.42759 0.0
H2590 H 0.28013 0.35666 0.3659 0.0
C2591 C 0.24161 0.35647 0.17454 0.0
C2592 C 0.24441 0.36401 0.27875 0.0
H2593 H 0.26794 0.37892 0.3307 0.0
C2594 C 0.23968 0.35565 0.30675 0.0
C2595 C 0.25455 0.3727 0.28761 0.0
C2596 C 0.25963 0.3823 0.25916 0.0
C2597 C 0.2451 0.35541 0.343 0.0
C2598 C 0.25541 0.3639 0.35165 0.0
C2599 C 0.26001 0.37244 0.32393 0.0
C2600 C 0.26195 0.36344 0.38877 0.0
C2601 C 0.2401 0.34568 0.37129 0.0
C2602 C 0.25516 0.36642 0.42194 0.0
C2603 C 0.26078 0.36414 0.4572 0.0
C2604 C 0.2733 0.35892 0.45977 0.0
C2605 C 0.28037 0.35672 0.42648 0.0
C2606 C 0.27473 0.35897 0.39124 0.0
H2607 H 0.23399 0.33814 0.35778 0.0
H2608 H 0.24823 0.34085 0.38615 0.0
H2609 H 0.23414 0.35075 0.39272 0.0
H2610 H 0.24535 0.37005 0.42054 0.0
H2611 H 0.25514 0.36602 0.48239 0.0
H2612 H 0.40579 0.45887 0.95301 0.0
H2613 H 0.40262 0.46929 0.01422 0.0
H2614 H 0.37858 0.49831 0.962 0.0
H2615 H 0.38169 0.48789 0.90036 0.0
H2616 H 0.41006 0.49578 0.0273 0.0
H2617 H 0.35811 0.48654 0.05855 0.0
H2618 H 0.36725 0.47681 0.0256 0.0
H2619 H 0.36191 0.49268 0.01229 0.0
C2620 C 0.39966 0.46735 0.95457 0.0
C2621 C 0.39401 0.47259 0.92187 0.0
C2622 C 0.39787 0.47329 0.98957 0.0
C2623 C 0.39031 0.48451 0.99262 0.0
C2624 C 0.38431 0.48955 0.96027 0.0
H2625 H 0.39583 0.53999 0.1767 0.0
H2626 H 0.39315 0.52991 0.11462 0.0
C2627 C 0.38613 0.48363 0.92511 0.0
C2628 C 0.38971 0.49146 0.0291 0.0
H2629 H 0.36955 0.49992 0.10145 0.0
C2630 C 0.4012 0.49672 0.04348 0.0
C2631 C 0.37814 0.49259 0.0501 0.0
C2632 C 0.36563 0.4868 0.03615 0.0
C2633 C 0.40146 0.50309 0.07841 0.0
C2634 C 0.38988 0.50431 0.09934 0.0
C2635 C 0.37837 0.49903 0.08508 0.0
C2636 C 0.38981 0.51069 0.13672 0.0
C2637 C 0.41417 0.50825 0.09308 0.0
C2638 C 0.38841 0.50326 0.1696 0.0
C2639 C 0.38996 0.50897 0.20511 0.0
C2640 C 0.39288 0.52222 0.20821 0.0
C2641 C 0.39364 0.52975 0.17521 0.0
C2642 C 0.39212 0.52402 0.13975 0.0
H2643 H 0.42254 0.50451 0.07673 0.0
H2644 H 0.41417 0.51897 0.09104 0.0
H2645 H 0.41548 0.50562 0.12324 0.0
H2646 H 0.38662 0.49294 0.16775 0.0
H2647 H 0.38929 0.50294 0.23004 0.0
H2648 H 0.21544 0.65911 0.93315 0.0
H2649 H 0.2257 0.65444 0.87276 0.0
H2650 H 0.246 0.62224 0.92307 0.0
H2651 H 0.23634 0.6275 0.98443 0.0
H2652 H 0.26183 0.63436 0.88237 0.0
H2653 H 0.21839 0.62863 0.79459 0.0
H2654 H 0.2177 0.64416 0.81682 0.0
H2655 H 0.21742 0.62966 0.84533 0.0
C2656 C 0.22198 0.65094 0.93121 0.0
C2657 C 0.22506 0.64362 0.96333 0.0
C2658 C 0.22775 0.64818 0.89653 0.0
C2659 C 0.23637 0.63774 0.89289 0.0
C2660 C 0.23932 0.63029 0.92499 0.0
H2661 H 0.26187 0.62686 0.65855 0.0
H2662 H 0.25238 0.62203 0.72039 0.0
C2663 C 0.23379 0.63328 0.96 0.0
C2664 C 0.243 0.63532 0.85627 0.0
H2665 H 0.23788 0.63534 0.76115 0.0
C2666 C 0.25655 0.6343 0.85591 0.0
C2667 C 0.23619 0.63481 0.82159 0.0
C2668 C 0.22162 0.63421 0.81971 0.0
C2669 C 0.26348 0.63365 0.8219 0.0
C2670 C 0.25674 0.6347 0.7872 0.0
C2671 C 0.24315 0.63484 0.78759 0.0
C2672 C 0.2635 0.63652 0.75049 0.0
C2673 C 0.27795 0.63182 0.82377 0.0
C2674 C 0.27299 0.64619 0.74666 0.0
C2675 C 0.27866 0.64866 0.71165 0.0
C2676 C 0.27463 0.64186 0.67944 0.0
C2677 C 0.26515 0.63222 0.68304 0.0
C2678 C 0.25972 0.62948 0.71833 0.0
H2679 H 0.28068 0.62595 0.84884 0.0
H2680 H 0.28175 0.62696 0.79811 0.0
H2681 H 0.28269 0.6414 0.82679 0.0
H2682 H 0.27573 0.65215 0.77049 0.0
H2683 H 0.28581 0.6563 0.70951 0.0
H2684 H 0.09159 0.53501 0.45646 0.0
H2685 H 0.09653 0.52503 0.51704 0.0
H2686 H 0.12703 0.50277 0.46502 0.0
H2687 H 0.1216 0.51228 0.40359 0.0
H2688 H 0.11383 0.48774 0.50659 0.0
H2689 H 0.12359 0.53073 0.5934 0.0
H2690 H 0.10803 0.53257 0.57194 0.0
H2691 H 0.12231 0.53169 0.54268 0.0
C2692 C 0.09948 0.52812 0.45802 0.0
C2693 C 0.10623 0.52443 0.42537 0.0
C2694 C 0.10239 0.52251 0.49281 0.0
C2695 C 0.11239 0.51336 0.49598 0.0
C2696 C 0.11935 0.50987 0.46342 0.0
H2697 H 0.12266 0.4857 0.72934 0.0
H2698 H 0.12791 0.49538 0.66793 0.0
C2699 C 0.11625 0.5153 0.42837 0.0
C2700 C 0.11463 0.50662 0.53251 0.0
H2701 H 0.11559 0.51181 0.62761 0.0
C2702 C 0.1145 0.49303 0.53298 0.0
C2703 C 0.1159 0.51341 0.56707 0.0
C2704 C 0.11763 0.5279 0.56864 0.0
C2705 C 0.11466 0.48611 0.56704 0.0
C2706 C 0.11437 0.49296 0.60167 0.0
C2707 C 0.11548 0.50651 0.60118 0.0
C2708 C 0.11192 0.48639 0.63832 0.0
C2709 C 0.11504 0.47151 0.56536 0.0
C2710 C 0.10117 0.47818 0.64228 0.0
C2711 C 0.09833 0.47248 0.67698 0.0
C2712 C 0.10596 0.47515 0.70884 0.0
C2713 C 0.11664 0.48347 0.70517 0.0
C2714 C 0.11963 0.48899 0.67013 0.0
H2715 H 0.1204 0.46816 0.53999 0.0
H2716 H 0.11968 0.4673 0.59082 0.0
H2717 H 0.10502 0.46773 0.56311 0.0
H2718 H 0.09474 0.47641 0.61869 0.0
H2719 H 0.08992 0.46626 0.6791 0.0
loop_
_geom_bond_atom_site_label_1
_geom_bond_atom_site_label_2
_geom_bond_distance
_geom_bond_site_symmetry_2
_ccdc_geom_bond_type
In0 O1 2.294 . S
In0 O2 2.326 1_554 S
In0 O6 2.266 . S
In0 O7 2.326 . S
In0 O8 2.266 . S
In0 O9 2.326 . S
In0 O11 2.294 . S
In0 O12 2.326 . S
O1 In0 2.294 . S
O1 C10 1.240 1_554 S
O2 In0 2.326 1_556 S
O2 C10 1.252 . S
C3 O6 1.252 . S
C3 O7 1.260 . S
C4 O11 1.240 . S
C4 O12 1.252 . S
C5 O8 1.252 . S
C5 O9 1.260 . S
O6 In0 2.266 . S
O6 C3 1.252 . S
O7 In0 2.326 . S
O7 C3 1.260 . S
O8 In0 2.266 . S
O8 C5 1.252 . S
O9 In0 2.326 . S
O9 C5 1.260 . S
C10 O1 1.240 1_556 S
C10 O2 1.252 . S
O11 In0 2.294 . S
O11 C4 1.240 . S
O12 In0 2.326 . S
O12 C4 1.252 . S
In13 O14 2.294 . S
In13 O15 2.326 . S
In13 O19 2.266 . S
In13 O20 2.326 . S
In13 O21 2.266 . S
In13 O22 2.326 . S
In13 O24 2.294 . S
In13 O25 2.326 . S
O14 In13 2.294 . S
O14 C23 1.240 . S
O15 In13 2.326 . S
O15 C23 1.252 . S
C16 O19 1.252 . S
C16 O20 1.260 . S
C17 O24 1.240 . S
C17 O25 1.252 . S
C18 O21 1.252 . S
C18 O22 1.260 . S
O19 In13 2.266 . S
O19 C16 1.252 . S
O20 In13 2.326 . S
O20 C16 1.260 . S
O21 In13 2.266 . S
O21 C18 1.252 . S
O22 In13 2.326 . S
O22 C18 1.260 . S
C23 O14 1.240 . S
C23 O15 1.252 . S
O24 In13 2.294 . S
O24 C17 1.240 . S
O25 In13 2.326 . S
O25 C17 1.252 . S
In26 O27 2.294 . S
In26 O28 2.326 . S
In26 O32 2.266 . S
In26 O33 2.326 . S
In26 O34 2.266 . S
In26 O35 2.326 . S
In26 O37 2.294 . S
In26 O38 2.326 . S
O27 In26 2.294 . S
O27 C36 1.240 . S
O28 In26 2.326 . S
O28 C36 1.252 . S
C29 O32 1.252 . S
C29 O33 1.260 . S
C30 O37 1.240 . S
C30 O38 1.252 . S
C31 O34 1.252 . S
C31 O35 1.260 . S
O32 In26 2.266 . S
O32 C29 1.252 . S
O33 In26 2.326 . S
O33 C29 1.260 . S
O34 In26 2.266 . S
O34 C31 1.252 . S
O35 In26 2.326 . S
O35 C31 1.260 . S
C36 O27 1.240 . S
C36 O28 1.252 . S
O37 In26 2.294 . S
O37 C30 1.240 . S
O38 In26 2.326 . S
O38 C30 1.252 . S
In39 O40 2.294 . S
In39 O41 2.326 . S
In39 O45 2.266 . S
In39 O46 2.326 . S
In39 O47 2.266 . S
In39 O48 2.326 . S
In39 O50 2.294 . S
In39 O51 2.326 . S
O40 In39 2.294 . S
O40 C49 1.240 . S
O41 In39 2.326 . S
O41 C49 1.252 . S
C42 O45 1.252 . S
C42 O46 1.260 . S
C43 O50 1.240 . S
C43 O51 1.252 . S
C44 O47 1.252 . S
C44 O48 1.260 . S
O45 In39 2.266 . S
O45 C42 1.252 . S
O46 In39 2.326 . S
O46 C42 1.260 . S
O47 In39 2.266 . S
O47 C44 1.252 . S
O48 In39 2.326 . S
O48 C44 1.260 . S
C49 O40 1.240 . S
C49 O41 1.252 . S
O50 In39 2.294 . S
O50 C43 1.240 . S
O51 In39 2.326 . S
O51 C43 1.252 . S
In52 O53 2.294 . S
In52 O54 2.326 . S
In52 O58 2.266 . S
In52 O59 2.326 . S
In52 O60 2.266 . S
In52 O61 2.326 . S
In52 O63 2.294 . S
In52 O64 2.326 . S
O53 In52 2.294 . S
O53 C62 1.240 . S
O54 In52 2.326 . S
O54 C62 1.252 . S
C55 O58 1.252 . S
C55 O59 1.260 . S
C56 O63 1.240 . S
C56 O64 1.252 . S
C57 O60 1.252 . S
C57 O61 1.260 . S
O58 In52 2.266 . S
O58 C55 1.252 . S
O59 In52 2.326 . S
O59 C55 1.260 . S
O60 In52 2.266 . S
O60 C57 1.252 . S
O61 In52 2.326 . S
O61 C57 1.260 . S
C62 O53 1.240 . S
C62 O54 1.252 . S
O63 In52 2.294 . S
O63 C56 1.240 . S
O64 In52 2.326 . S
O64 C56 1.252 . S
In65 O66 2.294 . S
In65 O67 2.326 . S
In65 O71 2.266 . S
In65 O72 2.326 . S
In65 O73 2.266 . S
In65 O74 2.326 . S
In65 O76 2.294 . S
In65 O77 2.326 . S
O66 In65 2.294 . S
O66 C75 1.240 . S
O67 In65 2.326 . S
O67 C75 1.252 . S
C68 O71 1.252 . S
C68 O72 1.260 . S
C69 O76 1.240 . S
C69 O77 1.252 . S
C70 O73 1.252 . S
C70 O74 1.260 . S
O71 In65 2.266 . S
O71 C68 1.252 . S
O72 In65 2.326 . S
O72 C68 1.260 . S
O73 In65 2.266 . S
O73 C70 1.252 . S
O74 In65 2.326 . S
O74 C70 1.260 . S
C75 O66 1.240 . S
C75 O67 1.252 . S
O76 In65 2.294 . S
O76 C69 1.240 . S
O77 In65 2.326 . S
O77 C69 1.252 . S
In78 O79 2.294 . S
In78 O80 2.326 . S
In78 O84 2.266 . S
In78 O85 2.326 . S
In78 O86 2.266 . S
In78 O87 2.326 . S
In78 O89 2.294 . S
In78 O90 2.326 . S
O79 In78 2.294 . S
O79 C88 1.240 . S
O80 In78 2.326 . S
O80 C88 1.252 . S
C81 O84 1.252 . S
C81 O85 1.260 . S
C82 O89 1.240 . S
C82 O90 1.252 . S
C83 O86 1.252 . S
C83 O87 1.260 . S
O84 In78 2.266 . S
O84 C81 1.252 . S
O85 In78 2.326 . S
O85 C81 1.260 . S
O86 In78 2.266 . S
O86 C83 1.252 . S
O87 In78 2.326 . S
O87 C83 1.260 . S
C88 O79 1.240 . S
C88 O80 1.252 . S
O89 In78 2.294 . S
O89 C82 1.240 . S
O90 In78 2.326 . S
O90 C82 1.252 . S
In91 O92 2.294 . S
In91 O93 2.326 . S
In91 O97 2.266 . S
In91 O98 2.326 . S
In91 O99 2.266 . S
In91 O100 2.326 . S
In91 O102 2.294 . S
In91 O103 2.326 . S
O92 In91 2.294 . S
O92 C101 1.240 . S
O93 In91 2.326 . S
O93 C101 1.252 . S
C94 O97 1.252 . S
C94 O98 1.260 . S
C95 O102 1.240 . S
C95 O103 1.252 . S
C96 O99 1.252 . S
C96 O100 1.260 . S
O97 In91 2.266 . S
O97 C94 1.252 . S
O98 In91 2.326 . S
O98 C94 1.260 . S
O99 In91 2.266 . S
O99 C96 1.252 . S
O100 In91 2.326 . S
O100 C96 1.260 . S
C101 O92 1.240 . S
C101 O93 1.252 . S
O102 In91 2.294 . S
O102 C95 1.240 . S
O103 In91 2.326 . S
O103 C95 1.252 . S
In104 O105 2.294 . S
In104 O106 2.326 . S
In104 O110 2.266 . S
In104 O111 2.326 . S
In104 O112 2.266 . S
In104 O113 2.326 . S
In104 O115 2.294 . S
In104 O116 2.326 . S
O105 In104 2.294 . S
O105 C114 1.240 . S
O106 In104 2.326 . S
O106 C114 1.252 . S
C107 O110 1.252 . S
C107 O111 1.260 . S
C108 O115 1.240 . S
C108 O116 1.252 . S
C109 O112 1.252 . S
C109 O113 1.260 . S
O110 In104 2.266 . S
O110 C107 1.252 . S
O111 In104 2.326 . S
O111 C107 1.260 . S
O112 In104 2.266 . S
O112 C109 1.252 . S
O113 In104 2.326 . S
O113 C109 1.260 . S
C114 O105 1.240 . S
C114 O106 1.252 . S
O115 In104 2.294 . S
O115 C108 1.240 . S
O116 In104 2.326 . S
O116 C108 1.252 . S
In117 O118 2.294 . S
In117 O119 2.326 . S
In117 O123 2.266 . S
In117 O124 2.326 . S
In117 O125 2.266 . S
In117 O126 2.326 . S
In117 O128 2.294 . S
In117 O129 2.326 . S
O118 In117 2.294 . S
O118 C127 1.240 . S
O119 In117 2.326 . S
O119 C127 1.252 . S
C120 O123 1.252 . S
C120 O124 1.260 . S
C121 O128 1.240 . S
C121 O129 1.252 . S
C122 O125 1.252 . S
C122 O126 1.260 . S
O123 In117 2.266 . S
O123 C120 1.252 . S
O124 In117 2.326 . S
O124 C120 1.260 . S
O125 In117 2.266 . S
O125 C122 1.252 . S
O126 In117 2.326 . S
O126 C122 1.260 . S
C127 O118 1.240 . S
C127 O119 1.252 . S
O128 In117 2.294 . S
O128 C121 1.240 . S
O129 In117 2.326 . S
O129 C121 1.252 . S
In130 O131 2.294 . S
In130 O132 2.326 . S
In130 O136 2.266 . S
In130 O137 2.326 . S
In130 O138 2.266 . S
In130 O139 2.326 . S
In130 O141 2.294 . S
In130 O142 2.326 . S
O131 In130 2.294 . S
O131 C140 1.240 . S
O132 In130 2.326 . S
O132 C140 1.252 . S
C133 O136 1.252 . S
C133 O137 1.260 . S
C134 O141 1.240 . S
C134 O142 1.252 . S
C135 O138 1.252 . S
C135 O139 1.260 . S
O136 In130 2.266 . S
O136 C133 1.252 . S
O137 In130 2.326 . S
O137 C133 1.260 . S
O138 In130 2.266 . S
O138 C135 1.252 . S
O139 In130 2.326 . S
O139 C135 1.260 . S
C140 O131 1.240 . S
C140 O132 1.252 . S
O141 In130 2.294 . S
O141 C134 1.240 . S
O142 In130 2.326 . S
O142 C134 1.252 . S
In143 O144 2.294 . S
In143 O145 2.326 . S
In143 O149 2.266 . S
In143 O150 2.326 . S
In143 O151 2.266 . S
In143 O152 2.326 . S
In143 O154 2.294 . S
In143 O155 2.326 . S
O144 In143 2.294 . S
O144 C153 1.240 . S
O145 In143 2.326 . S
O145 C153 1.252 . S
C146 O149 1.252 . S
C146 O150 1.260 . S
C147 O154 1.240 . S
C147 O155 1.252 . S
C148 O151 1.252 . S
C148 O152 1.260 . S
O149 In143 2.266 . S
O149 C146 1.252 . S
O150 In143 2.326 . S
O150 C146 1.260 . S
O151 In143 2.266 . S
O151 C148 1.252 . S
O152 In143 2.326 . S
O152 C148 1.260 . S
C153 O144 1.240 . S
C153 O145 1.252 . S
O154 In143 2.294 . S
O154 C147 1.240 . S
O155 In143 2.326 . S
O155 C147 1.252 . S
In156 O157 2.294 . S
In156 O158 2.326 . S
In156 O162 2.266 . S
In156 O163 2.326 . S
In156 O164 2.266 . S
In156 O165 2.326 . S
In156 O167 2.294 . S
In156 O168 2.326 1_554 S
O157 In156 2.294 . S
O157 C166 1.240 . S
O158 In156 2.326 . S
O158 C166 1.252 . S
C159 O162 1.252 . S
C159 O163 1.260 . S
C160 O167 1.240 1_556 S
C160 O168 1.252 . S
C161 O164 1.252 . S
C161 O165 1.260 . S
O162 In156 2.266 . S
O162 C159 1.252 . S
O163 In156 2.326 . S
O163 C159 1.260 . S
O164 In156 2.266 . S
O164 C161 1.252 . S
O165 In156 2.326 . S
O165 C161 1.260 . S
C166 O157 1.240 . S
C166 O158 1.252 . S
O167 In156 2.294 . S
O167 C160 1.240 1_554 S
O168 In156 2.326 1_556 S
O168 C160 1.252 . S
In169 O170 2.294 . S
In169 O171 2.326 . S
In169 O175 2.266 . S
In169 O176 2.326 . S
In169 O177 2.266 . S
In169 O178 2.326 . S
In169 O180 2.294 . S
In169 O181 2.326 . S
O170 In169 2.294 . S
O170 C179 1.240 . S
O171 In169 2.326 . S
O171 C179 1.252 . S
C172 O175 1.252 . S
C172 O176 1.260 . S
C173 O180 1.240 . S
C173 O181 1.252 . S
C174 O177 1.252 . S
C174 O178 1.260 . S
O175 In169 2.266 . S
O175 C172 1.252 . S
O176 In169 2.326 . S
O176 C172 1.260 . S
O177 In169 2.266 . S
O177 C174 1.252 . S
O178 In169 2.326 . S
O178 C174 1.260 . S
C179 O170 1.240 . S
C179 O171 1.252 . S
O180 In169 2.294 . S
O180 C173 1.240 . S
O181 In169 2.326 . S
O181 C173 1.252 . S
In182 O183 2.294 . S
In182 O184 2.326 . S
In182 O188 2.266 . S
In182 O189 2.326 . S
In182 O190 2.266 . S
In182 O191 2.326 . S
In182 O193 2.294 . S
In182 O194 2.326 . S
O183 In182 2.294 . S
O183 C192 1.240 . S
O184 In182 2.326 . S
O184 C192 1.252 . S
C185 O188 1.252 . S
C185 O189 1.260 . S
C186 O193 1.240 . S
C186 O194 1.252 . S
C187 O190 1.252 . S
C187 O191 1.260 . S
O188 In182 2.266 . S
O188 C185 1.252 . S
O189 In182 2.326 . S
O189 C185 1.260 . S
O190 In182 2.266 . S
O190 C187 1.252 . S
O191 In182 2.326 . S
O191 C187 1.260 . S
C192 O183 1.240 . S
C192 O184 1.252 . S
O193 In182 2.294 . S
O193 C186 1.240 . S
O194 In182 2.326 . S
O194 C186 1.252 . S
In195 O196 2.294 . S
In195 O197 2.326 . S
In195 O201 2.266 . S
In195 O202 2.326 . S
In195 O203 2.266 . S
In195 O204 2.326 . S
In195 O206 2.294 . S
In195 O207 2.326 . S
O196 In195 2.294 . S
O196 C205 1.240 . S
O197 In195 2.326 . S
O197 C205 1.252 . S
C198 O201 1.252 . S
C198 O202 1.260 . S
C199 O206 1.240 . S
C199 O207 1.252 . S
C200 O203 1.252 . S
C200 O204 1.260 . S
O201 In195 2.266 . S
O201 C198 1.252 . S
O202 In195 2.326 . S
O202 C198 1.260 . S
O203 In195 2.266 . S
O203 C200 1.252 . S
O204 In195 2.326 . S
O204 C200 1.260 . S
C205 O196 1.240 . S
C205 O197 1.252 . S
O206 In195 2.294 . S
O206 C199 1.240 . S
O207 In195 2.326 . S
O207 C199 1.252 . S
In208 O209 2.294 . S
In208 O210 2.326 . S
In208 O214 2.266 . S
In208 O215 2.326 . S
In208 O216 2.266 . S
In208 O217 2.326 . S
In208 O219 2.294 . S
In208 O220 2.326 . S
O209 In208 2.294 . S
O209 C218 1.240 . S
O210 In208 2.326 . S
O210 C218 1.252 . S
C211 O214 1.252 . S
C211 O215 1.260 . S
C212 O219 1.240 . S
C212 O220 1.252 . S
C213 O216 1.252 . S
C213 O217 1.260 . S
O214 In208 2.266 . S
O214 C211 1.252 . S
O215 In208 2.326 . S
O215 C211 1.260 . S
O216 In208 2.266 . S
O216 C213 1.252 . S
O217 In208 2.326 . S
O217 C213 1.260 . S
C218 O209 1.240 . S
C218 O210 1.252 . S
O219 In208 2.294 . S
O219 C212 1.240 . S
O220 In208 2.326 . S
O220 C212 1.252 . S
In221 O222 2.294 . S
In221 O223 2.326 . S
In221 O227 2.266 . S
In221 O228 2.326 . S
In221 O229 2.266 . S
In221 O230 2.326 . S
In221 O232 2.294 . S
In221 O233 2.326 . S
O222 In221 2.294 . S
O222 C231 1.240 . S
O223 In221 2.326 . S
O223 C231 1.252 . S
C224 O227 1.252 . S
C224 O228 1.260 . S
C225 O232 1.240 . S
C225 O233 1.252 . S
C226 O229 1.252 . S
C226 O230 1.260 . S
O227 In221 2.266 . S
O227 C224 1.252 . S
O228 In221 2.326 . S
O228 C224 1.260 . S
O229 In221 2.266 . S
O229 C226 1.252 . S
O230 In221 2.326 . S
O230 C226 1.260 . S
C231 O222 1.240 . S
C231 O223 1.252 . S
O232 In221 2.294 . S
O232 C225 1.240 . S
O233 In221 2.326 . S
O233 C225 1.252 . S
In234 O235 2.294 . S
In234 O236 2.326 1_554 S
In234 O240 2.266 . S
In234 O241 2.326 . S
In234 O242 2.266 . S
In234 O243 2.326 . S
In234 O245 2.294 . S
In234 O246 2.326 . S
O235 In234 2.294 . S
O235 C244 1.240 1_554 S
O236 In234 2.326 1_556 S
O236 C244 1.252 . S
C237 O240 1.252 . S
C237 O241 1.260 . S
C238 O245 1.240 . S
C238 O246 1.252 . S
C239 O242 1.252 . S
C239 O243 1.260 . S
O240 In234 2.266 . S
O240 C237 1.252 . S
O241 In234 2.326 . S
O241 C237 1.260 . S
O242 In234 2.266 . S
O242 C239 1.252 . S
O243 In234 2.326 . S
O243 C239 1.260 . S
C244 O235 1.240 1_556 S
C244 O236 1.252 . S
O245 In234 2.294 . S
O245 C238 1.240 . S
O246 In234 2.326 . S
O246 C238 1.252 . S
In247 O248 2.294 . S
In247 O249 2.326 . S
In247 O253 2.266 . S
In247 O254 2.326 . S
In247 O255 2.266 . S
In247 O256 2.326 . S
In247 O258 2.294 . S
In247 O259 2.326 . S
O248 In247 2.294 . S
O248 C257 1.240 . S
O249 In247 2.326 . S
O249 C257 1.252 . S
C250 O253 1.252 . S
C250 O254 1.260 . S
C251 O258 1.240 . S
C251 O259 1.252 . S
C252 O255 1.252 . S
C252 O256 1.260 . S
O253 In247 2.266 . S
O253 C250 1.252 . S
O254 In247 2.326 . S
O254 C250 1.260 . S
O255 In247 2.266 . S
O255 C252 1.252 . S
O256 In247 2.326 . S
O256 C252 1.260 . S
C257 O248 1.240 . S
C257 O249 1.252 . S
O258 In247 2.294 . S
O258 C251 1.240 . S
O259 In247 2.326 . S
O259 C251 1.252 . S
In260 O261 2.294 . S
In260 O262 2.326 . S
In260 O266 2.266 . S
In260 O267 2.326 . S
In260 O268 2.266 . S
In260 O269 2.326 . S
In260 O271 2.294 . S
In260 O272 2.326 . S
O261 In260 2.294 . S
O261 C270 1.240 . S
O262 In260 2.326 . S
O262 C270 1.252 . S
C263 O266 1.252 . S
C263 O267 1.260 . S
C264 O271 1.240 . S
C264 O272 1.252 . S
C265 O268 1.252 . S
C265 O269 1.260 . S
O266 In260 2.266 . S
O266 C263 1.252 . S
O267 In260 2.326 . S
O267 C263 1.260 . S
O268 In260 2.266 . S
O268 C265 1.252 . S
O269 In260 2.326 . S
O269 C265 1.260 . S
C270 O261 1.240 . S
C270 O262 1.252 . S
O271 In260 2.294 . S
O271 C264 1.240 . S
O272 In260 2.326 . S
O272 C264 1.252 . S
In273 O274 2.294 . S
In273 O275 2.326 . S
In273 O279 2.266 . S
In273 O280 2.326 . S
In273 O281 2.266 . S
In273 O282 2.326 . S
In273 O284 2.294 . S
In273 O285 2.326 . S
O274 In273 2.294 . S
O274 C283 1.240 . S
O275 In273 2.326 . S
O275 C283 1.252 . S
C276 O279 1.252 . S
C276 O280 1.260 . S
C277 O284 1.240 . S
C277 O285 1.252 . S
C278 O281 1.252 . S
C278 O282 1.260 . S
O279 In273 2.266 . S
O279 C276 1.252 . S
O280 In273 2.326 . S
O280 C276 1.260 . S
O281 In273 2.266 . S
O281 C278 1.252 . S
O282 In273 2.326 . S
O282 C278 1.260 . S
C283 O274 1.240 . S
C283 O275 1.252 . S
O284 In273 2.294 . S
O284 C277 1.240 . S
O285 In273 2.326 . S
O285 C277 1.252 . S
In286 O287 2.294 . S
In286 O288 2.326 . S
In286 O292 2.266 . S
In286 O293 2.326 . S
In286 O294 2.266 . S
In286 O295 2.326 . S
In286 O297 2.294 . S
In286 O298 2.326 . S
O287 In286 2.294 . S
O287 C296 1.240 . S
O288 In286 2.326 . S
O288 C296 1.252 . S
C289 O292 1.252 . S
C289 O293 1.260 . S
C290 O297 1.240 . S
C290 O298 1.252 . S
C291 O294 1.252 . S
C291 O295 1.260 . S
O292 In286 2.266 . S
O292 C289 1.252 . S
O293 In286 2.326 . S
O293 C289 1.260 . S
O294 In286 2.266 . S
O294 C291 1.252 . S
O295 In286 2.326 . S
O295 C291 1.260 . S
C296 O287 1.240 . S
C296 O288 1.252 . S
O297 In286 2.294 . S
O297 C290 1.240 . S
O298 In286 2.326 . S
O298 C290 1.252 . S
In299 O300 2.294 . S
In299 O301 2.326 . S
In299 O305 2.266 . S
In299 O306 2.326 . S
In299 O307 2.266 . S
In299 O308 2.326 . S
In299 O310 2.294 . S
In299 O311 2.326 . S
O300 In299 2.294 . S
O300 C309 1.240 . S
O301 In299 2.326 . S
O301 C309 1.252 . S
C302 O305 1.252 . S
C302 O306 1.260 . S
C303 O310 1.240 . S
C303 O311 1.252 . S
C304 O307 1.252 . S
C304 O308 1.260 . S
O305 In299 2.266 . S
O305 C302 1.252 . S
O306 In299 2.326 . S
O306 C302 1.260 . S
O307 In299 2.266 . S
O307 C304 1.252 . S
O308 In299 2.326 . S
O308 C304 1.260 . S
C309 O300 1.240 . S
C309 O301 1.252 . S
O310 In299 2.294 . S
O310 C303 1.240 . S
O311 In299 2.326 . S
O311 C303 1.252 . S
In312 O313 2.294 . S
In312 O314 2.326 . S
In312 O318 2.266 . S
In312 O319 2.326 . S
In312 O320 2.266 . S
In312 O321 2.326 . S
In312 O323 2.294 . S
In312 O324 2.326 . S
O313 In312 2.294 . S
O313 C322 1.240 . S
O314 In312 2.326 . S
O314 C322 1.252 . S
C315 O318 1.252 . S
C315 O319 1.260 . S
C316 O323 1.240 . S
C316 O324 1.252 . S
C317 O320 1.252 . S
C317 O321 1.260 . S
O318 In312 2.266 . S
O318 C315 1.252 . S
O319 In312 2.326 . S
O319 C315 1.260 . S
O320 In312 2.266 . S
O320 C317 1.252 . S
O321 In312 2.326 . S
O321 C317 1.260 . S
C322 O313 1.240 . S
C322 O314 1.252 . S
O323 In312 2.294 . S
O323 C316 1.240 . S
O324 In312 2.326 . S
O324 C316 1.252 . S
In325 O326 2.294 . S
In325 O327 2.326 . S
In325 O331 2.266 . S
In325 O332 2.326 . S
In325 O333 2.266 . S
In325 O334 2.326 . S
In325 O336 2.294 . S
In325 O337 2.326 . S
O326 In325 2.294 . S
O326 C335 1.240 . S
O327 In325 2.326 . S
O327 C335 1.252 . S
C328 O331 1.252 . S
C328 O332 1.260 . S
C329 O336 1.240 . S
C329 O337 1.252 . S
C330 O333 1.252 . S
C330 O334 1.260 . S
O331 In325 2.266 . S
O331 C328 1.252 . S
O332 In325 2.326 . S
O332 C328 1.260 . S
O333 In325 2.266 . S
O333 C330 1.252 . S
O334 In325 2.326 . S
O334 C330 1.260 . S
C335 O326 1.240 . S
C335 O327 1.252 . S
O336 In325 2.294 . S
O336 C329 1.240 . S
O337 In325 2.326 . S
O337 C329 1.252 . S
In338 O339 2.294 . S
In338 O340 2.326 . S
In338 O344 2.266 . S
In338 O345 2.326 . S
In338 O346 2.266 . S
In338 O347 2.326 . S
In338 O349 2.294 . S
In338 O350 2.326 . S
O339 In338 2.294 . S
O339 C348 1.240 . S
O340 In338 2.326 . S
O340 C348 1.252 . S
C341 O344 1.252 . S
C341 O345 1.260 . S
C342 O349 1.240 . S
C342 O350 1.252 . S
C343 O346 1.252 . S
C343 O347 1.260 . S
O344 In338 2.266 . S
O344 C341 1.252 . S
O345 In338 2.326 . S
O345 C341 1.260 . S
O346 In338 2.266 . S
O346 C343 1.252 . S
O347 In338 2.326 . S
O347 C343 1.260 . S
C348 O339 1.240 . S
C348 O340 1.252 . S
O349 In338 2.294 . S
O349 C342 1.240 . S
O350 In338 2.326 . S
O350 C342 1.252 . S
In351 O352 2.294 . S
In351 O353 2.326 . S
In351 O357 2.266 . S
In351 O358 2.326 . S
In351 O359 2.266 . S
In351 O360 2.326 . S
In351 O362 2.294 . S
In351 O363 2.326 . S
O352 In351 2.294 . S
O352 C361 1.240 . S
O353 In351 2.326 . S
O353 C361 1.252 . S
C354 O357 1.252 . S
C354 O358 1.260 . S
C355 O362 1.240 . S
C355 O363 1.252 . S
C356 O359 1.252 . S
C356 O360 1.260 . S
O357 In351 2.266 . S
O357 C354 1.252 . S
O358 In351 2.326 . S
O358 C354 1.260 . S
O359 In351 2.266 . S
O359 C356 1.252 . S
O360 In351 2.326 . S
O360 C356 1.260 . S
C361 O352 1.240 . S
C361 O353 1.252 . S
O362 In351 2.294 . S
O362 C355 1.240 . S
O363 In351 2.326 . S
O363 C355 1.252 . S
In364 O365 2.294 . S
In364 O366 2.326 . S
In364 O370 2.266 . S
In364 O371 2.326 . S
In364 O372 2.266 . S
In364 O373 2.326 . S
In364 O375 2.294 . S
In364 O376 2.326 . S
O365 In364 2.294 . S
O365 C374 1.240 . S
O366 In364 2.326 . S
O366 C374 1.252 . S
C367 O370 1.252 . S
C367 O371 1.260 . S
C368 O375 1.240 . S
C368 O376 1.252 . S
C369 O372 1.252 . S
C369 O373 1.260 . S
O370 In364 2.266 . S
O370 C367 1.252 . S
O371 In364 2.326 . S
O371 C367 1.260 . S
O372 In364 2.266 . S
O372 C369 1.252 . S
O373 In364 2.326 . S
O373 C369 1.260 . S
C374 O365 1.240 . S
C374 O366 1.252 . S
O375 In364 2.294 . S
O375 C368 1.240 . S
O376 In364 2.326 . S
O376 C368 1.252 . S
In377 O378 2.294 . S
In377 O379 2.326 . S
In377 O383 2.266 . S
In377 O384 2.326 . S
In377 O385 2.266 . S
In377 O386 2.326 . S
In377 O388 2.294 . S
In377 O389 2.326 . S
O378 In377 2.294 . S
O378 C387 1.240 . S
O379 In377 2.326 . S
O379 C387 1.252 . S
C380 O383 1.252 . S
C380 O384 1.260 . S
C381 O388 1.240 . S
C381 O389 1.252 . S
C382 O385 1.252 . S
C382 O386 1.260 . S
O383 In377 2.266 . S
O383 C380 1.252 . S
O384 In377 2.326 . S
O384 C380 1.260 . S
O385 In377 2.266 . S
O385 C382 1.252 . S
O386 In377 2.326 . S
O386 C382 1.260 . S
C387 O378 1.240 . S
C387 O379 1.252 . S
O388 In377 2.294 . S
O388 C381 1.240 . S
O389 In377 2.326 . S
O389 C381 1.252 . S
In390 O391 2.294 . S
In390 O392 2.326 . S
In390 O396 2.266 . S
In390 O397 2.326 . S
In390 O398 2.266 . S
In390 O399 2.326 . S
In390 O401 2.294 . S
In390 O402 2.326 1_554 S
O391 In390 2.294 . S
O391 C400 1.240 . S
O392 In390 2.326 . S
O392 C400 1.252 . S
C393 O396 1.252 . S
C393 O397 1.260 . S
C394 O401 1.240 1_556 S
C394 O402 1.252 . S
C395 O398 1.252 . S
C395 O399 1.260 . S
O396 In390 2.266 . S
O396 C393 1.252 . S
O397 In390 2.326 . S
O397 C393 1.260 . S
O398 In390 2.266 . S
O398 C395 1.252 . S
O399 In390 2.326 . S
O399 C395 1.260 . S
C400 O391 1.240 . S
C400 O392 1.252 . S
O401 In390 2.294 . S
O401 C394 1.240 1_554 S
O402 In390 2.326 1_556 S
O402 C394 1.252 . S
In403 O404 2.294 . S
In403 O405 2.326 . S
In403 O409 2.266 . S
In403 O410 2.326 . S
In403 O411 2.266 . S
In403 O412 2.326 . S
In403 O414 2.294 . S
In403 O415 2.326 . S
O404 In403 2.294 . S
O404 C413 1.240 . S
O405 In403 2.326 . S
O405 C413 1.252 . S
C406 O409 1.252 . S
C406 O410 1.260 . S
C407 O414 1.240 . S
C407 O415 1.252 . S
C408 O411 1.252 . S
C408 O412 1.260 . S
O409 In403 2.266 . S
O409 C406 1.252 . S
O410 In403 2.326 . S
O410 C406 1.260 . S
O411 In403 2.266 . S
O411 C408 1.252 . S
O412 In403 2.326 . S
O412 C408 1.260 . S
C413 O404 1.240 . S
C413 O405 1.252 . S
O414 In403 2.294 . S
O414 C407 1.240 . S
O415 In403 2.326 . S
O415 C407 1.252 . S
H416 C424 0.929 . S
H417 C426 0.930 . S
H418 C428 0.930 . S
H419 C431 0.929 . S
H420 C434 0.930 . S
H421 C436 0.960 . S
H422 C436 0.960 . S
H423 C436 0.960 . S
C424 H416 0.929 . S
C424 C425 1.377 . S
C424 C426 1.384 . S
C425 C424 1.377 . S
C425 C431 1.390 . S
C426 H417 0.930 . S
C426 C424 1.384 . S
C426 C427 1.372 . S
C427 C426 1.372 . S
C427 C428 1.400 . S
C427 C432 1.490 . S
C428 H418 0.930 . S
C428 C427 1.400 . S
C428 C431 1.386 . S
H429 C445 0.930 . S
H430 C446 0.931 . S
C431 H419 0.929 . S
C431 C425 1.390 . S
C431 C428 1.386 . S
C432 C427 1.490 . S
C432 C434 1.395 . S
C432 C435 1.403 . S
H433 C439 0.930 . S
C434 H420 0.930 . S
C434 C432 1.395 . S
C434 C437 1.403 . S
C435 C432 1.403 . S
C435 C436 1.524 . S
C435 C439 1.400 . S
C436 H421 0.960 . S
C436 H422 0.960 . S
C436 H423 0.960 . S
C436 C435 1.524 . S
C437 C434 1.403 . S
C437 C438 1.392 . S
C437 C441 1.495 . S
C438 C437 1.392 . S
C438 C439 1.385 . S
C438 C440 1.478 . S
C439 H433 0.930 . S
C439 C435 1.400 . S
C439 C438 1.385 . S
C440 C438 1.478 . S
C440 C442 1.381 . S
C440 C446 1.383 1_556 S
C441 C437 1.495 . S
C441 H447 0.959 . S
C441 H448 0.961 1_556 S
C441 H449 0.960 . S
C442 C440 1.381 . S
C442 C443 1.394 . S
C442 H450 0.930 . S
C443 C442 1.394 . S
C443 C444 1.383 1_556 S
C443 H451 0.929 . S
C444 C443 1.383 1_554 S
C444 C445 1.377 . S
C445 H429 0.930 . S
C445 C444 1.377 . S
C445 C446 1.379 . S
C446 H430 0.931 . S
C446 C440 1.383 1_554 S
C446 C445 1.379 . S
H447 C441 0.959 . S
H448 C441 0.961 1_554 S
H449 C441 0.960 . S
H450 C442 0.930 . S
H451 C443 0.929 . S
H452 C460 0.929 . S
H453 C462 0.930 . S
H454 C464 0.930 . S
H455 C467 0.929 . S
H456 C470 0.930 . S
H457 C472 0.960 . S
H458 C472 0.960 . S
H459 C472 0.960 . S
C460 H452 0.929 . S
C460 C461 1.377 . S
C460 C462 1.384 . S
C461 C460 1.377 . S
C461 C467 1.390 . S
C462 H453 0.930 . S
C462 C460 1.384 . S
C462 C463 1.372 . S
C463 C462 1.372 . S
C463 C464 1.400 . S
C463 C468 1.490 . S
C464 H454 0.930 . S
C464 C463 1.400 . S
C464 C467 1.386 . S
H465 C481 0.930 . S
H466 C482 0.931 . S
C467 H455 0.929 . S
C467 C461 1.390 . S
C467 C464 1.386 . S
C468 C463 1.490 . S
C468 C470 1.395 . S
C468 C471 1.403 . S
H469 C475 0.930 . S
C470 H456 0.930 . S
C470 C468 1.395 . S
C470 C473 1.403 . S
C471 C468 1.403 . S
C471 C472 1.524 . S
C471 C475 1.400 . S
C472 H457 0.960 . S
C472 H458 0.960 . S
C472 H459 0.960 . S
C472 C471 1.524 . S
C473 C470 1.403 . S
C473 C474 1.392 . S
C473 C477 1.495 . S
C474 C473 1.392 . S
C474 C475 1.385 . S
C474 C476 1.478 . S
C475 H469 0.930 . S
C475 C471 1.400 . S
C475 C474 1.385 . S
C476 C474 1.478 . S
C476 C478 1.381 . S
C476 C482 1.383 . S
C477 C473 1.495 . S
C477 H483 0.959 . S
C477 H484 0.961 . S
C477 H485 0.960 . S
C478 C476 1.381 . S
C478 C479 1.394 . S
C478 H486 0.930 . S
C479 C478 1.394 . S
C479 C480 1.383 . S
C479 H487 0.929 . S
C480 C479 1.383 . S
C480 C481 1.377 . S
C481 H465 0.930 . S
C481 C480 1.377 . S
C481 C482 1.379 . S
C482 H466 0.931 . S
C482 C476 1.383 . S
C482 C481 1.379 . S
H483 C477 0.959 . S
H484 C477 0.961 . S
H485 C477 0.960 . S
H486 C478 0.930 . S
H487 C479 0.929 . S
H488 C496 0.929 . S
H489 C498 0.930 . S
H490 C500 0.930 . S
H491 C503 0.929 . S
H492 C506 0.930 . S
H493 C508 0.960 . S
H494 C508 0.960 . S
H495 C508 0.960 . S
C496 H488 0.929 . S
C496 C497 1.377 . S
C496 C498 1.384 . S
C497 C496 1.377 . S
C497 C503 1.390 . S
C498 H489 0.930 . S
C498 C496 1.384 . S
C498 C499 1.372 . S
C499 C498 1.372 . S
C499 C500 1.400 . S
C499 C504 1.490 . S
C500 H490 0.930 . S
C500 C499 1.400 . S
C500 C503 1.386 . S
H501 C517 0.930 . S
H502 C518 0.931 . S
C503 H491 0.929 . S
C503 C497 1.390 . S
C503 C500 1.386 . S
C504 C499 1.490 . S
C504 C506 1.395 . S
C504 C507 1.403 . S
H505 C511 0.930 . S
C506 H492 0.930 . S
C506 C504 1.395 . S
C506 C509 1.403 . S
C507 C504 1.403 . S
C507 C508 1.524 . S
C507 C511 1.400 . S
C508 H493 0.960 . S
C508 H494 0.960 . S
C508 H495 0.960 . S
C508 C507 1.524 . S
C509 C506 1.403 . S
C509 C510 1.392 . S
C509 C513 1.495 . S
C510 C509 1.392 . S
C510 C511 1.385 . S
C510 C512 1.478 . S
C511 H505 0.930 . S
C511 C507 1.400 . S
C511 C510 1.385 . S
C512 C510 1.478 . S
C512 C514 1.381 . S
C512 C518 1.383 . S
C513 C509 1.495 . S
C513 H519 0.959 . S
C513 H520 0.961 . S
C513 H521 0.960 . S
C514 C512 1.381 . S
C514 C515 1.394 . S
C514 H522 0.930 . S
C515 C514 1.394 . S
C515 C516 1.383 . S
C515 H523 0.929 . S
C516 C515 1.383 . S
C516 C517 1.377 . S
C517 H501 0.930 . S
C517 C516 1.377 . S
C517 C518 1.379 . S
C518 H502 0.931 . S
C518 C512 1.383 . S
C518 C517 1.379 . S
H519 C513 0.959 . S
H520 C513 0.961 . S
H521 C513 0.960 . S
H522 C514 0.930 . S
H523 C515 0.929 . S
H524 C532 0.929 . S
H525 C534 0.930 . S
H526 C536 0.930 . S
H527 C539 0.929 . S
H528 C542 0.930 . S
H529 C544 0.960 . S
H530 C544 0.960 . S
H531 C544 0.960 . S
C532 H524 0.929 . S
C532 C533 1.377 . S
C532 C534 1.384 . S
C533 C532 1.377 . S
C533 C539 1.390 . S
C534 H525 0.930 . S
C534 C532 1.384 . S
C534 C535 1.372 . S
C535 C534 1.372 . S
C535 C536 1.400 . S
C535 C540 1.490 . S
C536 H526 0.930 . S
C536 C535 1.400 . S
C536 C539 1.386 . S
H537 C553 0.930 . S
H538 C554 0.931 . S
C539 H527 0.929 . S
C539 C533 1.390 . S
C539 C536 1.386 . S
C540 C535 1.490 . S
C540 C542 1.395 . S
C540 C543 1.403 . S
H541 C547 0.930 . S
C542 H528 0.930 . S
C542 C540 1.395 . S
C542 C545 1.403 . S
C543 C540 1.403 . S
C543 C544 1.524 . S
C543 C547 1.400 . S
C544 H529 0.960 . S
C544 H530 0.960 . S
C544 H531 0.960 . S
C544 C543 1.524 . S
C545 C542 1.403 . S
C545 C546 1.392 . S
C545 C549 1.495 . S
C546 C545 1.392 . S
C546 C547 1.385 . S
C546 C548 1.478 . S
C547 H541 0.930 . S
C547 C543 1.400 . S
C547 C546 1.385 . S
C548 C546 1.478 . S
C548 C550 1.381 . S
C548 C554 1.383 . S
C549 C545 1.495 . S
C549 H555 0.959 . S
C549 H556 0.961 . S
C549 H557 0.960 . S
C550 C548 1.381 . S
C550 C551 1.394 . S
C550 H558 0.930 . S
C551 C550 1.394 . S
C551 C552 1.383 . S
C551 H559 0.929 . S
C552 C551 1.383 . S
C552 C553 1.377 . S
C553 H537 0.930 . S
C553 C552 1.377 . S
C553 C554 1.379 . S
C554 H538 0.931 . S
C554 C548 1.383 . S
C554 C553 1.379 . S
H555 C549 0.959 . S
H556 C549 0.961 . S
H557 C549 0.960 . S
H558 C550 0.930 . S
H559 C551 0.929 . S
H560 C568 0.929 . S
H561 C570 0.930 . S
H562 C572 0.930 . S
H563 C575 0.929 . S
H564 C578 0.930 . S
H565 C580 0.960 . S
H566 C580 0.960 . S
H567 C580 0.960 . S
C568 H560 0.929 . S
C568 C569 1.377 . S
C568 C570 1.384 . S
C569 C568 1.377 . S
C569 C575 1.390 . S
C570 H561 0.930 . S
C570 C568 1.384 . S
C570 C571 1.372 . S
C571 C570 1.372 . S
C571 C572 1.400 . S
C571 C576 1.490 . S
C572 H562 0.930 . S
C572 C571 1.400 . S
C572 C575 1.386 . S
H573 C589 0.930 . S
H574 C590 0.931 . S
C575 H563 0.929 . S
C575 C569 1.390 . S
C575 C572 1.386 . S
C576 C571 1.490 . S
C576 C578 1.395 . S
C576 C579 1.403 . S
H577 C583 0.930 . S
C578 H564 0.930 . S
C578 C576 1.395 . S
C578 C581 1.403 . S
C579 C576 1.403 . S
C579 C580 1.524 . S
C579 C583 1.400 . S
C580 H565 0.960 . S
C580 H566 0.960 . S
C580 H567 0.960 . S
C580 C579 1.524 . S
C581 C578 1.403 . S
C581 C582 1.392 . S
C581 C585 1.495 . S
C582 C581 1.392 . S
C582 C583 1.385 . S
C582 C584 1.478 . S
C583 H577 0.930 . S
C583 C579 1.400 . S
C583 C582 1.385 . S
C584 C582 1.478 . S
C584 C586 1.381 . S
C584 C590 1.383 . S
C585 C581 1.495 . S
C585 H591 0.959 . S
C585 H592 0.961 . S
C585 H593 0.960 . S
C586 C584 1.381 . S
C586 C587 1.394 . S
C586 H594 0.930 . S
C587 C586 1.394 . S
C587 C588 1.383 . S
C587 H595 0.929 . S
C588 C587 1.383 . S
C588 C589 1.377 . S
C589 H573 0.930 . S
C589 C588 1.377 . S
C589 C590 1.379 . S
C590 H574 0.931 . S
C590 C584 1.383 . S
C590 C589 1.379 . S
H591 C585 0.959 . S
H592 C585 0.961 . S
H593 C585 0.960 . S
H594 C586 0.930 . S
H595 C587 0.929 . S
H596 C604 0.929 . S
H597 C606 0.930 . S
H598 C608 0.930 . S
H599 C611 0.929 . S
H600 C614 0.930 . S
H601 C616 0.960 . S
H602 C616 0.960 . S
H603 C616 0.960 . S
C604 H596 0.929 . S
C604 C605 1.377 . S
C604 C606 1.384 . S
C605 C604 1.377 . S
C605 C611 1.390 . S
C606 H597 0.930 . S
C606 C604 1.384 . S
C606 C607 1.372 . S
C607 C606 1.372 . S
C607 C608 1.400 . S
C607 C612 1.490 . S
C608 H598 0.930 . S
C608 C607 1.400 . S
C608 C611 1.386 . S
H609 C625 0.930 . S
H610 C626 0.931 . S
C611 H599 0.929 . S
C611 C605 1.390 . S
C611 C608 1.386 . S
C612 C607 1.490 . S
C612 C614 1.395 . S
C612 C615 1.403 . S
H613 C619 0.930 . S
C614 H600 0.930 . S
C614 C612 1.395 . S
C614 C617 1.403 . S
C615 C612 1.403 . S
C615 C616 1.524 . S
C615 C619 1.400 . S
C616 H601 0.960 . S
C616 H602 0.960 . S
C616 H603 0.960 . S
C616 C615 1.524 . S
C617 C614 1.403 . S
C617 C618 1.392 . S
C617 C621 1.495 1_556 S
C618 C617 1.392 . S
C618 C619 1.385 . S
C618 C620 1.478 . S
C619 H613 0.930 . S
C619 C615 1.400 . S
C619 C618 1.385 . S
C620 C618 1.478 . S
C620 C622 1.381 1_556 S
C620 C626 1.383 . S
C621 C617 1.495 1_554 S
C621 H627 0.959 . S
C621 H628 0.961 . S
C621 H629 0.960 . S
C622 C620 1.381 1_554 S
C622 C623 1.394 . S
C622 H630 0.930 . S
C623 C622 1.394 . S
C623 C624 1.383 . S
C623 H631 0.929 . S
C624 C623 1.383 . S
C624 C625 1.377 1_554 S
C625 H609 0.930 . S
C625 C624 1.377 1_556 S
C625 C626 1.379 . S
C626 H610 0.931 . S
C626 C620 1.383 . S
C626 C625 1.379 . S
H627 C621 0.959 . S
H628 C621 0.961 . S
H629 C621 0.960 . S
H630 C622 0.930 . S
H631 C623 0.929 . S
H632 C640 0.929 . S
H633 C642 0.930 . S
H634 C644 0.930 . S
H635 C647 0.929 . S
H636 C650 0.930 . S
H637 C652 0.960 . S
H638 C652 0.960 . S
H639 C652 0.960 . S
C640 H632 0.929 . S
C640 C641 1.377 . S
C640 C642 1.384 . S
C641 C640 1.377 . S
C641 C647 1.390 . S
C642 H633 0.930 . S
C642 C640 1.384 . S
C642 C643 1.372 . S
C643 C642 1.372 . S
C643 C644 1.400 . S
C643 C648 1.490 . S
C644 H634 0.930 . S
C644 C643 1.400 . S
C644 C647 1.386 . S
H645 C661 0.930 . S
H646 C662 0.931 . S
C647 H635 0.929 . S
C647 C641 1.390 . S
C647 C644 1.386 . S
C648 C643 1.490 . S
C648 C650 1.395 . S
C648 C651 1.403 . S
H649 C655 0.930 . S
C650 H636 0.930 . S
C650 C648 1.395 . S
C650 C653 1.403 . S
C651 C648 1.403 . S
C651 C652 1.524 . S
C651 C655 1.400 . S
C652 H637 0.960 . S
C652 H638 0.960 . S
C652 H639 0.960 . S
C652 C651 1.524 . S
C653 C650 1.403 . S
C653 C654 1.392 . S
C653 C657 1.495 . S
C654 C653 1.392 . S
C654 C655 1.385 . S
C654 C656 1.478 . S
C655 H649 0.930 . S
C655 C651 1.400 . S
C655 C654 1.385 . S
C656 C654 1.478 . S
C656 C658 1.381 . S
C656 C662 1.383 . S
C657 C653 1.495 . S
C657 H663 0.959 . S
C657 H664 0.961 . S
C657 H665 0.960 . S
C658 C656 1.381 . S
C658 C659 1.394 . S
C658 H666 0.930 . S
C659 C658 1.394 . S
C659 C660 1.383 . S
C659 H667 0.929 . S
C660 C659 1.383 . S
C660 C661 1.377 . S
C661 H645 0.930 . S
C661 C660 1.377 . S
C661 C662 1.379 . S
C662 H646 0.931 . S
C662 C656 1.383 . S
C662 C661 1.379 . S
H663 C657 0.959 . S
H664 C657 0.961 . S
H665 C657 0.960 . S
H666 C658 0.930 . S
H667 C659 0.929 . S
H668 C676 0.929 . S
H669 C678 0.930 . S
H670 C680 0.930 . S
H671 C683 0.929 . S
H672 C686 0.930 . S
H673 C688 0.960 . S
H674 C688 0.960 . S
H675 C688 0.960 . S
C676 H668 0.929 . S
C676 C677 1.377 . S
C676 C678 1.384 . S
C677 C676 1.377 . S
C677 C683 1.390 . S
C678 H669 0.930 . S
C678 C676 1.384 . S
C678 C679 1.372 . S
C679 C678 1.372 . S
C679 C680 1.400 . S
C679 C684 1.490 . S
C680 H670 0.930 . S
C680 C679 1.400 . S
C680 C683 1.386 . S
H681 C697 0.930 . S
H682 C698 0.931 . S
C683 H671 0.929 . S
C683 C677 1.390 . S
C683 C680 1.386 . S
C684 C679 1.490 . S
C684 C686 1.395 . S
C684 C687 1.403 . S
H685 C691 0.930 . S
C686 H672 0.930 . S
C686 C684 1.395 . S
C686 C689 1.403 . S
C687 C684 1.403 . S
C687 C688 1.524 . S
C687 C691 1.400 . S
C688 H673 0.960 . S
C688 H674 0.960 . S
C688 H675 0.960 . S
C688 C687 1.524 . S
C689 C686 1.403 . S
C689 C690 1.392 . S
C689 C693 1.495 . S
C690 C689 1.392 . S
C690 C691 1.385 . S
C690 C692 1.478 . S
C691 H685 0.930 . S
C691 C687 1.400 . S
C691 C690 1.385 . S
C692 C690 1.478 . S
C692 C694 1.381 . S
C692 C698 1.383 . S
C693 C689 1.495 . S
C693 H699 0.959 . S
C693 H700 0.961 . S
C693 H701 0.960 . S
C694 C692 1.381 . S
C694 C695 1.394 . S
C694 H702 0.930 . S
C695 C694 1.394 . S
C695 C696 1.383 . S
C695 H703 0.929 . S
C696 C695 1.383 . S
C696 C697 1.377 . S
C697 H681 0.930 . S
C697 C696 1.377 . S
C697 C698 1.379 . S
C698 H682 0.931 . S
C698 C692 1.383 . S
C698 C697 1.379 . S
H699 C693 0.959 . S
H700 C693 0.961 . S
H701 C693 0.960 . S
H702 C694 0.930 . S
H703 C695 0.929 . S
H704 C712 0.929 . S
H705 C714 0.930 . S
H706 C716 0.930 . S
H707 C719 0.929 . S
H708 C722 0.930 . S
H709 C724 0.960 . S
H710 C724 0.960 . S
H711 C724 0.960 . S
C712 H704 0.929 . S
C712 C713 1.377 . S
C712 C714 1.384 . S
C713 C712 1.377 . S
C713 C719 1.390 . S
C714 H705 0.930 . S
C714 C712 1.384 . S
C714 C715 1.372 . S
C715 C714 1.372 . S
C715 C716 1.400 . S
C715 C720 1.490 . S
C716 H706 0.930 . S
C716 C715 1.400 . S
C716 C719 1.386 . S
H717 C733 0.930 . S
H718 C734 0.931 . S
C719 H707 0.929 . S
C719 C713 1.390 . S
C719 C716 1.386 . S
C720 C715 1.490 . S
C720 C722 1.395 . S
C720 C723 1.403 . S
H721 C727 0.930 . S
C722 H708 0.930 . S
C722 C720 1.395 . S
C722 C725 1.403 . S
C723 C720 1.403 . S
C723 C724 1.524 . S
C723 C727 1.400 . S
C724 H709 0.960 . S
C724 H710 0.960 . S
C724 H711 0.960 . S
C724 C723 1.524 . S
C725 C722 1.403 . S
C725 C726 1.392 . S
C725 C729 1.495 . S
C726 C725 1.392 . S
C726 C727 1.385 . S
C726 C728 1.478 . S
C727 H721 0.930 . S
C727 C723 1.400 . S
C727 C726 1.385 . S
C728 C726 1.478 . S
C728 C730 1.381 . S
C728 C734 1.383 . S
C729 C725 1.495 . S
C729 H735 0.959 . S
C729 H736 0.961 . S
C729 H737 0.960 . S
C730 C728 1.381 . S
C730 C731 1.394 . S
C730 H738 0.930 . S
C731 C730 1.394 . S
C731 C732 1.383 . S
C731 H739 0.929 . S
C732 C731 1.383 . S
C732 C733 1.377 . S
C733 H717 0.930 . S
C733 C732 1.377 . S
C733 C734 1.379 . S
C734 H718 0.931 . S
C734 C728 1.383 . S
C734 C733 1.379 . S
H735 C729 0.959 . S
H736 C729 0.961 . S
H737 C729 0.960 . S
H738 C730 0.930 . S
H739 C731 0.929 . S
H740 C748 0.929 . S
H741 C750 0.930 . S
H742 C752 0.930 . S
H743 C755 0.929 . S
H744 C758 0.930 . S
H745 C760 0.960 . S
H746 C760 0.960 . S
H747 C760 0.960 . S
C748 H740 0.929 . S
C748 C749 1.377 . S
C748 C750 1.384 . S
C749 C748 1.377 . S
C749 C755 1.390 . S
C750 H741 0.930 . S
C750 C748 1.384 . S
C750 C751 1.372 . S
C751 C750 1.372 . S
C751 C752 1.400 . S
C751 C756 1.490 . S
C752 H742 0.930 . S
C752 C751 1.400 . S
C752 C755 1.386 . S
H753 C769 0.930 . S
H754 C770 0.931 . S
C755 H743 0.929 . S
C755 C749 1.390 . S
C755 C752 1.386 . S
C756 C751 1.490 . S
C756 C758 1.395 . S
C756 C759 1.403 . S
H757 C763 0.930 . S
C758 H744 0.930 . S
C758 C756 1.395 . S
C758 C761 1.403 . S
C759 C756 1.403 . S
C759 C760 1.524 . S
C759 C763 1.400 . S
C760 H745 0.960 . S
C760 H746 0.960 . S
C760 H747 0.960 . S
C760 C759 1.524 . S
C761 C758 1.403 . S
C761 C762 1.392 . S
C761 C765 1.495 . S
C762 C761 1.392 . S
C762 C763 1.385 . S
C762 C764 1.478 . S
C763 H757 0.930 . S
C763 C759 1.400 . S
C763 C762 1.385 . S
C764 C762 1.478 . S
C764 C766 1.381 . S
C764 C770 1.383 . S
C765 C761 1.495 . S
C765 H771 0.959 . S
C765 H772 0.961 . S
C765 H773 0.960 . S
C766 C764 1.381 . S
C766 C767 1.394 . S
C766 H774 0.930 . S
C767 C766 1.394 . S
C767 C768 1.383 . S
C767 H775 0.929 . S
C768 C767 1.383 . S
C768 C769 1.377 . S
C769 H753 0.930 . S
C769 C768 1.377 . S
C769 C770 1.379 . S
C770 H754 0.931 . S
C770 C764 1.383 . S
C770 C769 1.379 . S
H771 C765 0.959 . S
H772 C765 0.961 . S
H773 C765 0.960 . S
H774 C766 0.930 . S
H775 C767 0.929 . S
H776 C784 0.929 . S
H777 C786 0.930 . S
H778 C788 0.930 . S
H779 C791 0.929 . S
H780 C794 0.930 . S
H781 C796 0.960 . S
H782 C796 0.960 . S
H783 C796 0.960 . S
C784 H776 0.929 . S
C784 C785 1.377 . S
C784 C786 1.384 . S
C785 C784 1.377 . S
C785 C791 1.390 . S
C786 H777 0.930 . S
C786 C784 1.384 . S
C786 C787 1.372 . S
C787 C786 1.372 . S
C787 C788 1.400 . S
C787 C792 1.490 . S
C788 H778 0.930 . S
C788 C787 1.400 . S
C788 C791 1.386 . S
H789 C805 0.930 . S
H790 C806 0.931 . S
C791 H779 0.929 . S
C791 C785 1.390 . S
C791 C788 1.386 . S
C792 C787 1.490 . S
C792 C794 1.395 . S
C792 C795 1.403 . S
H793 C799 0.930 . S
C794 H780 0.930 . S
C794 C792 1.395 . S
C794 C797 1.403 . S
C795 C792 1.403 . S
C795 C796 1.524 . S
C795 C799 1.400 . S
C796 H781 0.960 . S
C796 H782 0.960 . S
C796 H783 0.960 . S
C796 C795 1.524 . S
C797 C794 1.403 . S
C797 C798 1.392 . S
C797 C801 1.495 . S
C798 C797 1.392 . S
C798 C799 1.385 . S
C798 C800 1.478 . S
C799 H793 0.930 . S
C799 C795 1.400 . S
C799 C798 1.385 . S
C800 C798 1.478 . S
C800 C802 1.381 . S
C800 C806 1.383 1_556 S
C801 C797 1.495 . S
C801 H807 0.959 . S
C801 H808 0.961 . S
C801 H809 0.960 . S
C802 C800 1.381 . S
C802 C803 1.394 . S
C802 H810 0.930 . S
C803 C802 1.394 . S
C803 C804 1.383 1_556 S
C803 H811 0.929 . S
C804 C803 1.383 1_554 S
C804 C805 1.377 . S
C805 H789 0.930 . S
C805 C804 1.377 . S
C805 C806 1.379 . S
C806 H790 0.931 . S
C806 C800 1.383 1_554 S
C806 C805 1.379 . S
H807 C801 0.959 . S
H808 C801 0.961 . S
H809 C801 0.960 . S
H810 C802 0.930 . S
H811 C803 0.929 . S
H812 C820 0.929 . S
H813 C822 0.930 . S
H814 C824 0.930 . S
H815 C827 0.929 . S
H816 C830 0.930 . S
H817 C832 0.960 . S
H818 C832 0.960 . S
H819 C832 0.960 . S
C820 H812 0.929 . S
C820 C821 1.377 . S
C820 C822 1.384 . S
C821 C820 1.377 . S
C821 C827 1.390 . S
C822 H813 0.930 . S
C822 C820 1.384 . S
C822 C823 1.372 . S
C823 C822 1.372 . S
C823 C824 1.400 . S
C823 C828 1.490 . S
C824 H814 0.930 . S
C824 C823 1.400 . S
C824 C827 1.386 . S
H825 C841 0.930 . S
H826 C842 0.931 . S
C827 H815 0.929 . S
C827 C821 1.390 . S
C827 C824 1.386 . S
C828 C823 1.490 . S
C828 C830 1.395 . S
C828 C831 1.403 . S
H829 C835 0.930 . S
C830 H816 0.930 . S
C830 C828 1.395 . S
C830 C833 1.403 . S
C831 C828 1.403 . S
C831 C832 1.524 . S
C831 C835 1.400 . S
C832 H817 0.960 . S
C832 H818 0.960 . S
C832 H819 0.960 . S
C832 C831 1.524 . S
C833 C830 1.403 . S
C833 C834 1.392 . S
C833 C837 1.495 . S
C834 C833 1.392 . S
C834 C835 1.385 . S
C834 C836 1.478 . S
C835 H829 0.930 . S
C835 C831 1.400 . S
C835 C834 1.385 . S
C836 C834 1.478 . S
C836 C838 1.381 . S
C836 C842 1.383 . S
C837 C833 1.495 . S
C837 H843 0.959 . S
C837 H844 0.961 . S
C837 H845 0.960 . S
C838 C836 1.381 . S
C838 C839 1.394 . S
C838 H846 0.930 . S
C839 C838 1.394 . S
C839 C840 1.383 . S
C839 H847 0.929 . S
C840 C839 1.383 . S
C840 C841 1.377 . S
C841 H825 0.930 . S
C841 C840 1.377 . S
C841 C842 1.379 . S
C842 H826 0.931 . S
C842 C836 1.383 . S
C842 C841 1.379 . S
H843 C837 0.959 . S
H844 C837 0.961 . S
H845 C837 0.960 . S
H846 C838 0.930 . S
H847 C839 0.929 . S
H848 C856 0.929 . S
H849 C858 0.930 . S
H850 C860 0.930 . S
H851 C863 0.929 . S
H852 C866 0.930 . S
H853 C868 0.960 . S
H854 C868 0.960 . S
H855 C868 0.960 . S
C856 H848 0.929 . S
C856 C857 1.377 . S
C856 C858 1.384 . S
C857 C856 1.377 . S
C857 C863 1.390 . S
C858 H849 0.930 . S
C858 C856 1.384 . S
C858 C859 1.372 . S
C859 C858 1.372 . S
C859 C860 1.400 . S
C859 C864 1.490 . S
C860 H850 0.930 . S
C860 C859 1.400 . S
C860 C863 1.386 . S
H861 C877 0.930 . S
H862 C878 0.931 . S
C863 H851 0.929 . S
C863 C857 1.390 . S
C863 C860 1.386 . S
C864 C859 1.490 . S
C864 C866 1.395 . S
C864 C867 1.403 . S
H865 C871 0.930 . S
C866 H852 0.930 . S
C866 C864 1.395 . S
C866 C869 1.403 . S
C867 C864 1.403 . S
C867 C868 1.524 . S
C867 C871 1.400 . S
C868 H853 0.960 . S
C868 H854 0.960 . S
C868 H855 0.960 . S
C868 C867 1.524 . S
C869 C866 1.403 . S
C869 C870 1.392 . S
C869 C873 1.495 . S
C870 C869 1.392 . S
C870 C871 1.385 . S
C870 C872 1.478 . S
C871 H865 0.930 . S
C871 C867 1.400 . S
C871 C870 1.385 . S
C872 C870 1.478 . S
C872 C874 1.381 . S
C872 C878 1.383 . S
C873 C869 1.495 . S
C873 H879 0.959 . S
C873 H880 0.961 . S
C873 H881 0.960 . S
C874 C872 1.381 . S
C874 C875 1.394 . S
C874 H882 0.930 . S
C875 C874 1.394 . S
C875 C876 1.383 . S
C875 H883 0.929 . S
C876 C875 1.383 . S
C876 C877 1.377 . S
C877 H861 0.930 . S
C877 C876 1.377 . S
C877 C878 1.379 . S
C878 H862 0.931 . S
C878 C872 1.383 . S
C878 C877 1.379 . S
H879 C873 0.959 . S
H880 C873 0.961 . S
H881 C873 0.960 . S
H882 C874 0.930 . S
H883 C875 0.929 . S
H884 C892 0.929 . S
H885 C894 0.930 . S
H886 C896 0.930 . S
H887 C899 0.929 . S
H888 C902 0.930 . S
H889 C904 0.960 . S
H890 C904 0.960 . S
H891 C904 0.960 . S
C892 H884 0.929 . S
C892 C893 1.377 . S
C892 C894 1.384 . S
C893 C892 1.377 . S
C893 C899 1.390 . S
C894 H885 0.930 . S
C894 C892 1.384 . S
C894 C895 1.372 . S
C895 C894 1.372 . S
C895 C896 1.400 . S
C895 C900 1.490 . S
C896 H886 0.930 . S
C896 C895 1.400 . S
C896 C899 1.386 . S
H897 C913 0.930 . S
H898 C914 0.931 . S
C899 H887 0.929 . S
C899 C893 1.390 . S
C899 C896 1.386 . S
C900 C895 1.490 . S
C900 C902 1.395 . S
C900 C903 1.403 . S
H901 C907 0.930 . S
C902 H888 0.930 . S
C902 C900 1.395 . S
C902 C905 1.403 . S
C903 C900 1.403 . S
C903 C904 1.524 . S
C903 C907 1.400 . S
C904 H889 0.960 . S
C904 H890 0.960 . S
C904 H891 0.960 . S
C904 C903 1.524 . S
C905 C902 1.403 . S
C905 C906 1.392 . S
C905 C909 1.495 . S
C906 C905 1.392 . S
C906 C907 1.385 . S
C906 C908 1.478 . S
C907 H901 0.930 . S
C907 C903 1.400 . S
C907 C906 1.385 . S
C908 C906 1.478 . S
C908 C910 1.381 . S
C908 C914 1.383 . S
C909 C905 1.495 . S
C909 H915 0.959 . S
C909 H916 0.961 . S
C909 H917 0.960 . S
C910 C908 1.381 . S
C910 C911 1.394 . S
C910 H918 0.930 . S
C911 C910 1.394 . S
C911 C912 1.383 . S
C911 H919 0.929 . S
C912 C911 1.383 . S
C912 C913 1.377 . S
C913 H897 0.930 . S
C913 C912 1.377 . S
C913 C914 1.379 . S
C914 H898 0.931 . S
C914 C908 1.383 . S
C914 C913 1.379 . S
H915 C909 0.959 . S
H916 C909 0.961 . S
H917 C909 0.960 . S
H918 C910 0.930 . S
H919 C911 0.929 . S
H920 C928 0.929 . S
H921 C930 0.930 . S
H922 C932 0.930 . S
H923 C935 0.929 . S
H924 C938 0.930 . S
H925 C940 0.960 . S
H926 C940 0.960 . S
H927 C940 0.960 . S
C928 H920 0.929 . S
C928 C929 1.377 . S
C928 C930 1.384 . S
C929 C928 1.377 . S
C929 C935 1.390 . S
C930 H921 0.930 . S
C930 C928 1.384 . S
C930 C931 1.372 . S
C931 C930 1.372 . S
C931 C932 1.400 . S
C931 C936 1.490 . S
C932 H922 0.930 . S
C932 C931 1.400 . S
C932 C935 1.386 . S
H933 C949 0.930 . S
H934 C950 0.931 . S
C935 H923 0.929 . S
C935 C929 1.390 . S
C935 C932 1.386 . S
C936 C931 1.490 . S
C936 C938 1.395 . S
C936 C939 1.403 . S
H937 C943 0.930 . S
C938 H924 0.930 . S
C938 C936 1.395 . S
C938 C941 1.403 . S
C939 C936 1.403 . S
C939 C940 1.524 . S
C939 C943 1.400 . S
C940 H925 0.960 . S
C940 H926 0.960 . S
C940 H927 0.960 . S
C940 C939 1.524 . S
C941 C938 1.403 . S
C941 C942 1.392 . S
C941 C945 1.495 . S
C942 C941 1.392 . S
C942 C943 1.385 . S
C942 C944 1.478 . S
C943 H937 0.930 . S
C943 C939 1.400 . S
C943 C942 1.385 . S
C944 C942 1.478 . S
C944 C946 1.381 . S
C944 C950 1.383 . S
C945 C941 1.495 . S
C945 H951 0.959 . S
C945 H952 0.961 . S
C945 H953 0.960 . S
C946 C944 1.381 . S
C946 C947 1.394 . S
C946 H954 0.930 . S
C947 C946 1.394 . S
C947 C948 1.383 . S
C947 H955 0.929 . S
C948 C947 1.383 . S
C948 C949 1.377 . S
C949 H933 0.930 . S
C949 C948 1.377 . S
C949 C950 1.379 . S
C950 H934 0.931 . S
C950 C944 1.383 . S
C950 C949 1.379 . S
H951 C945 0.959 . S
H952 C945 0.961 . S
H953 C945 0.960 . S
H954 C946 0.930 . S
H955 C947 0.929 . S
H956 C964 0.929 . S
H957 C966 0.930 . S
H958 C968 0.930 . S
H959 C971 0.929 . S
H960 C974 0.930 . S
H961 C976 0.960 . S
H962 C976 0.960 . S
H963 C976 0.960 . S
C964 H956 0.929 . S
C964 C965 1.377 . S
C964 C966 1.384 . S
C965 C964 1.377 . S
C965 C971 1.390 . S
C966 H957 0.930 . S
C966 C964 1.384 . S
C966 C967 1.372 . S
C967 C966 1.372 . S
C967 C968 1.400 . S
C967 C972 1.490 . S
C968 H958 0.930 . S
C968 C967 1.400 . S
C968 C971 1.386 . S
H969 C985 0.930 . S
H970 C986 0.931 . S
C971 H959 0.929 . S
C971 C965 1.390 . S
C971 C968 1.386 . S
C972 C967 1.490 . S
C972 C974 1.395 . S
C972 C975 1.403 . S
H973 C979 0.930 . S
C974 H960 0.930 . S
C974 C972 1.395 . S
C974 C977 1.403 . S
C975 C972 1.403 . S
C975 C976 1.524 . S
C975 C979 1.400 . S
C976 H961 0.960 . S
C976 H962 0.960 . S
C976 H963 0.960 . S
C976 C975 1.524 . S
C977 C974 1.403 . S
C977 C978 1.392 . S
C977 C981 1.495 1_556 S
C978 C977 1.392 . S
C978 C979 1.385 . S
C978 C980 1.478 . S
C979 H973 0.930 . S
C979 C975 1.400 . S
C979 C978 1.385 . S
C980 C978 1.478 . S
C980 C982 1.381 . S
C980 C986 1.383 1_556 S
C981 C977 1.495 1_554 S
C981 H987 0.959 . S
C981 H988 0.961 . S
C981 H989 0.959 1_554 S
C982 C980 1.381 . S
C982 C983 1.394 1_556 S
C982 H990 0.930 . S
C983 C982 1.394 1_554 S
C983 C984 1.383 . S
C983 H991 0.927 1_554 S
C984 C983 1.383 . S
C984 C985 1.377 . S
C985 H969 0.930 . S
C985 C984 1.377 . S
C985 C986 1.379 . S
C986 H970 0.931 . S
C986 C980 1.383 1_554 S
C986 C985 1.379 . S
H987 C981 0.959 . S
H988 C981 0.961 . S
H989 C981 0.959 1_556 S
H990 C982 0.930 . S
H991 C983 0.927 1_556 S
H992 C1000 0.929 . S
H993 C1002 0.930 . S
H994 C1004 0.930 . S
H995 C1007 0.929 . S
H996 C1010 0.930 . S
H997 C1012 0.960 . S
H998 C1012 0.960 . S
H999 C1012 0.960 . S
C1000 H992 0.929 . S
C1000 C1001 1.377 . S
C1000 C1002 1.384 . S
C1001 C1000 1.377 . S
C1001 C1007 1.390 . S
C1002 H993 0.930 . S
C1002 C1000 1.384 . S
C1002 C1003 1.372 . S
C1003 C1002 1.372 . S
C1003 C1004 1.400 . S
C1003 C1008 1.490 . S
C1004 H994 0.930 . S
C1004 C1003 1.400 . S
C1004 C1007 1.386 . S
H1005 C1021 0.930 . S
H1006 C1022 0.931 . S
C1007 H995 0.929 . S
C1007 C1001 1.390 . S
C1007 C1004 1.386 . S
C1008 C1003 1.490 . S
C1008 C1010 1.395 . S
C1008 C1011 1.403 . S
H1009 C1015 0.930 . S
C1010 H996 0.930 . S
C1010 C1008 1.395 . S
C1010 C1013 1.403 . S
C1011 C1008 1.403 . S
C1011 C1012 1.524 . S
C1011 C1015 1.400 . S
C1012 H997 0.960 . S
C1012 H998 0.960 . S
C1012 H999 0.960 . S
C1012 C1011 1.524 . S
C1013 C1010 1.403 . S
C1013 C1014 1.392 . S
C1013 C1017 1.495 . S
C1014 C1013 1.392 . S
C1014 C1015 1.385 . S
C1014 C1016 1.478 . S
C1015 H1009 0.930 . S
C1015 C1011 1.400 . S
C1015 C1014 1.385 . S
C1016 C1014 1.478 . S
C1016 C1018 1.381 . S
C1016 C1022 1.383 . S
C1017 C1013 1.495 . S
C1017 H1023 0.959 . S
C1017 H1024 0.961 . S
C1017 H1025 0.960 . S
C1018 C1016 1.381 . S
C1018 C1019 1.394 . S
C1018 H1026 0.930 . S
C1019 C1018 1.394 . S
C1019 C1020 1.383 . S
C1019 H1027 0.929 . S
C1020 C1019 1.383 . S
C1020 C1021 1.377 . S
C1021 H1005 0.930 . S
C1021 C1020 1.377 . S
C1021 C1022 1.379 . S
C1022 H1006 0.931 . S
C1022 C1016 1.383 . S
C1022 C1021 1.379 . S
H1023 C1017 0.959 . S
H1024 C1017 0.961 . S
H1025 C1017 0.960 . S
H1026 C1018 0.930 . S
H1027 C1019 0.929 . S
H1028 C1036 0.929 . S
H1029 C1038 0.930 . S
H1030 C1040 0.930 . S
H1031 C1043 0.929 . S
H1032 C1046 0.930 . S
H1033 C1048 0.960 . S
H1034 C1048 0.960 . S
H1035 C1048 0.960 . S
C1036 H1028 0.929 . S
C1036 C1037 1.377 . S
C1036 C1038 1.384 . S
C1037 C1036 1.377 . S
C1037 C1043 1.390 . S
C1038 H1029 0.930 . S
C1038 C1036 1.384 . S
C1038 C1039 1.372 . S
C1039 C1038 1.372 . S
C1039 C1040 1.400 . S
C1039 C1044 1.490 . S
C1040 H1030 0.930 . S
C1040 C1039 1.400 . S
C1040 C1043 1.386 . S
H1041 C1057 0.930 . S
H1042 C1058 0.931 . S
C1043 H1031 0.929 . S
C1043 C1037 1.390 . S
C1043 C1040 1.386 . S
C1044 C1039 1.490 . S
C1044 C1046 1.395 1_565 S
C1044 C1047 1.403 . S
H1045 C1051 0.930 . S
C1046 H1032 0.930 . S
C1046 C1044 1.395 1_545 S
C1046 C1049 1.403 . S
C1047 C1044 1.403 . S
C1047 C1048 1.524 . S
C1047 C1051 1.400 . S
C1048 H1033 0.960 . S
C1048 H1034 0.960 . S
C1048 H1035 0.960 . S
C1048 C1047 1.524 . S
C1049 C1046 1.403 . S
C1049 C1050 1.392 . S
C1049 C1053 1.495 . S
C1050 C1049 1.392 . S
C1050 C1051 1.385 1_545 S
C1050 C1052 1.478 1_554 S
C1051 H1045 0.930 . S
C1051 C1047 1.400 . S
C1051 C1050 1.385 1_565 S
C1052 C1050 1.478 1_556 S
C1052 C1054 1.381 . S
C1052 C1058 1.383 . S
C1053 C1049 1.495 . S
C1053 H1059 0.959 . S
C1053 H1060 0.961 . S
C1053 H1061 0.960 . S
C1054 C1052 1.381 . S
C1054 C1055 1.394 . S
C1054 H1062 0.930 . S
C1055 C1054 1.394 . S
C1055 C1056 1.383 . S
C1055 H1063 0.929 . S
C1056 C1055 1.383 . S
C1056 C1057 1.377 . S
C1057 H1041 0.930 . S
C1057 C1056 1.377 . S
C1057 C1058 1.379 . S
C1058 H1042 0.931 . S
C1058 C1052 1.383 . S
C1058 C1057 1.379 . S
H1059 C1053 0.959 . S
H1060 C1053 0.961 . S
H1061 C1053 0.960 . S
H1062 C1054 0.930 . S
H1063 C1055 0.929 . S
H1064 C1072 0.929 . S
H1065 C1074 0.930 . S
H1066 C1076 0.930 . S
H1067 C1079 0.929 . S
H1068 C1082 0.930 . S
H1069 C1084 0.960 . S
H1070 C1084 0.960 . S
H1071 C1084 0.960 . S
C1072 H1064 0.929 . S
C1072 C1073 1.377 . S
C1072 C1074 1.384 . S
C1073 C1072 1.377 . S
C1073 C1079 1.390 . S
C1074 H1065 0.930 . S
C1074 C1072 1.384 . S
C1074 C1075 1.372 . S
C1075 C1074 1.372 . S
C1075 C1076 1.400 . S
C1075 C1080 1.490 . S
C1076 H1066 0.930 . S
C1076 C1075 1.400 . S
C1076 C1079 1.386 . S
H1077 C1093 0.930 . S
H1078 C1094 0.931 . S
C1079 H1067 0.929 . S
C1079 C1073 1.390 . S
C1079 C1076 1.386 . S
C1080 C1075 1.490 . S
C1080 C1082 1.395 . S
C1080 C1083 1.403 . S
H1081 C1087 0.930 . S
C1082 H1068 0.930 . S
C1082 C1080 1.395 . S
C1082 C1085 1.403 . S
C1083 C1080 1.403 . S
C1083 C1084 1.524 . S
C1083 C1087 1.400 . S
C1084 H1069 0.960 . S
C1084 H1070 0.960 . S
C1084 H1071 0.960 . S
C1084 C1083 1.524 . S
C1085 C1082 1.403 . S
C1085 C1086 1.392 . S
C1085 C1089 1.495 . S
C1086 C1085 1.392 . S
C1086 C1087 1.385 . S
C1086 C1088 1.478 . S
C1087 H1081 0.930 . S
C1087 C1083 1.400 . S
C1087 C1086 1.385 . S
C1088 C1086 1.478 . S
C1088 C1090 1.381 . S
C1088 C1094 1.383 . S
C1089 C1085 1.495 . S
C1089 H1095 0.959 . S
C1089 H1096 0.961 . S
C1089 H1097 0.960 . S
C1090 C1088 1.381 . S
C1090 C1091 1.394 . S
C1090 H1098 0.930 . S
C1091 C1090 1.394 . S
C1091 C1092 1.383 . S
C1091 H1099 0.929 . S
C1092 C1091 1.383 . S
C1092 C1093 1.377 . S
C1093 H1077 0.930 . S
C1093 C1092 1.377 . S
C1093 C1094 1.379 . S
C1094 H1078 0.931 . S
C1094 C1088 1.383 . S
C1094 C1093 1.379 . S
H1095 C1089 0.959 . S
H1096 C1089 0.961 . S
H1097 C1089 0.960 . S
H1098 C1090 0.930 . S
H1099 C1091 0.929 . S
H1100 C1108 0.929 . S
H1101 C1110 0.930 . S
H1102 C1112 0.930 . S
H1103 C1115 0.929 . S
H1104 C1118 0.930 . S
H1105 C1120 0.960 . S
H1106 C1120 0.960 . S
H1107 C1120 0.960 . S
C1108 H1100 0.929 . S
C1108 C1109 1.377 . S
C1108 C1110 1.384 . S
C1109 C1108 1.377 . S
C1109 C1115 1.390 . S
C1110 H1101 0.930 . S
C1110 C1108 1.384 . S
C1110 C1111 1.372 . S
C1111 C1110 1.372 . S
C1111 C1112 1.400 . S
C1111 C1116 1.490 . S
C1112 H1102 0.930 . S
C1112 C1111 1.400 . S
C1112 C1115 1.386 . S
H1113 C1129 0.930 . S
H1114 C1130 0.931 . S
C1115 H1103 0.929 . S
C1115 C1109 1.390 . S
C1115 C1112 1.386 . S
C1116 C1111 1.490 . S
C1116 C1118 1.395 1_545 S
C1116 C1119 1.403 . S
H1117 C1123 0.930 . S
C1118 H1104 0.930 . S
C1118 C1116 1.395 1_565 S
C1118 C1121 1.403 . S
C1119 C1116 1.403 . S
C1119 C1120 1.524 . S
C1119 C1123 1.400 . S
C1120 H1105 0.960 . S
C1120 H1106 0.960 . S
C1120 H1107 0.960 . S
C1120 C1119 1.524 . S
C1121 C1118 1.403 . S
C1121 C1122 1.392 . S
C1121 C1125 1.495 . S
C1122 C1121 1.392 . S
C1122 C1123 1.385 1_565 S
C1122 C1124 1.478 . S
C1123 H1117 0.930 . S
C1123 C1119 1.400 . S
C1123 C1122 1.385 1_545 S
C1124 C1122 1.478 . S
C1124 C1126 1.381 . S
C1124 C1130 1.383 . S
C1125 C1121 1.495 . S
C1125 H1131 0.959 . S
C1125 H1132 0.961 . S
C1125 H1133 0.960 . S
C1126 C1124 1.381 . S
C1126 C1127 1.394 . S
C1126 H1134 0.930 . S
C1127 C1126 1.394 . S
C1127 C1128 1.383 . S
C1127 H1135 0.929 . S
C1128 C1127 1.383 . S
C1128 C1129 1.377 . S
C1129 H1113 0.930 . S
C1129 C1128 1.377 . S
C1129 C1130 1.379 . S
C1130 H1114 0.931 . S
C1130 C1124 1.383 . S
C1130 C1129 1.379 . S
H1131 C1125 0.959 . S
H1132 C1125 0.961 . S
H1133 C1125 0.960 . S
H1134 C1126 0.930 . S
H1135 C1127 0.929 . S
H1136 C1144 0.929 . S
H1137 C1146 0.930 . S
H1138 C1148 0.930 . S
H1139 C1151 0.929 . S
H1140 C1154 0.930 . S
H1141 C1156 0.960 . S
H1142 C1156 0.960 . S
H1143 C1156 0.960 . S
C1144 H1136 0.929 . S
C1144 C1145 1.377 . S
C1144 C1146 1.384 . S
C1145 C1144 1.377 . S
C1145 C1151 1.390 . S
C1146 H1137 0.930 . S
C1146 C1144 1.384 . S
C1146 C1147 1.372 . S
C1147 C1146 1.372 . S
C1147 C1148 1.400 . S
C1147 C1152 1.490 . S
C1148 H1138 0.930 . S
C1148 C1147 1.400 . S
C1148 C1151 1.386 . S
H1149 C1165 0.930 . S
H1150 C1166 0.931 . S
C1151 H1139 0.929 . S
C1151 C1145 1.390 . S
C1151 C1148 1.386 . S
C1152 C1147 1.490 . S
C1152 C1154 1.395 . S
C1152 C1155 1.403 . S
H1153 C1159 0.930 . S
C1154 H1140 0.930 . S
C1154 C1152 1.395 . S
C1154 C1157 1.403 . S
C1155 C1152 1.403 . S
C1155 C1156 1.524 . S
C1155 C1159 1.400 . S
C1156 H1141 0.960 . S
C1156 H1142 0.960 . S
C1156 H1143 0.960 . S
C1156 C1155 1.524 . S
C1157 C1154 1.403 . S
C1157 C1158 1.392 . S
C1157 C1161 1.495 . S
C1158 C1157 1.392 . S
C1158 C1159 1.385 . S
C1158 C1160 1.478 . S
C1159 H1153 0.930 . S
C1159 C1155 1.400 . S
C1159 C1158 1.385 . S
C1160 C1158 1.478 . S
C1160 C1162 1.381 . S
C1160 C1166 1.383 . S
C1161 C1157 1.495 . S
C1161 H1167 0.959 . S
C1161 H1168 0.961 . S
C1161 H1169 0.960 . S
C1162 C1160 1.381 . S
C1162 C1163 1.394 . S
C1162 H1170 0.930 . S
C1163 C1162 1.394 . S
C1163 C1164 1.383 . S
C1163 H1171 0.929 . S
C1164 C1163 1.383 . S
C1164 C1165 1.377 . S
C1165 H1149 0.930 . S
C1165 C1164 1.377 . S
C1165 C1166 1.379 . S
C1166 H1150 0.931 . S
C1166 C1160 1.383 . S
C1166 C1165 1.379 . S
H1167 C1161 0.959 . S
H1168 C1161 0.961 . S
H1169 C1161 0.960 . S
H1170 C1162 0.930 . S
H1171 C1163 0.929 . S
H1172 C1180 0.929 . S
H1173 C1182 0.930 1_565 S
H1174 C1184 0.930 . S
H1175 C1187 0.929 . S
H1176 C1190 0.930 . S
H1177 C1192 0.960 . S
H1178 C1192 0.960 . S
H1179 C1192 0.960 . S
C1180 H1172 0.929 . S
C1180 C1181 1.377 . S
C1180 C1182 1.384 . S
C1181 C1180 1.377 . S
C1181 C1187 1.390 . S
C1182 H1173 0.930 1_545 S
C1182 C1180 1.384 . S
C1182 C1183 1.372 . S
C1183 C1182 1.372 . S
C1183 C1184 1.400 . S
C1183 C1188 1.490 1_556 S
C1184 H1174 0.930 . S
C1184 C1183 1.400 . S
C1184 C1187 1.386 . S
H1185 C1201 0.930 . S
H1186 C1202 0.940 . S
C1187 H1175 0.929 . S
C1187 C1181 1.390 . S
C1187 C1184 1.386 . S
C1188 C1183 1.490 1_554 S
C1188 C1190 1.395 1_545 S
C1188 C1191 1.403 . S
H1189 C1195 0.930 . S
C1190 H1176 0.930 . S
C1190 C1188 1.395 1_565 S
C1190 C1193 1.403 . S
C1191 C1188 1.403 . S
C1191 C1192 1.524 . S
C1191 C1195 1.400 . S
C1192 H1177 0.960 . S
C1192 H1178 0.960 . S
C1192 H1179 0.960 . S
C1192 C1191 1.524 . S
C1193 C1190 1.403 . S
C1193 C1194 1.392 . S
C1193 C1197 1.495 . S
C1194 C1193 1.392 . S
C1194 C1195 1.385 1_565 S
C1194 C1196 1.478 . S
C1195 H1189 0.930 . S
C1195 C1191 1.400 . S
C1195 C1194 1.385 1_545 S
C1196 C1194 1.478 . S
C1196 C1198 1.381 . S
C1196 C1202 1.383 . S
C1197 C1193 1.495 . S
C1197 H1203 0.959 . S
C1197 H1204 0.961 . S
C1197 H1205 0.960 . S
C1198 C1196 1.381 . S
C1198 C1199 1.394 . S
C1198 H1206 0.930 . S
C1199 C1198 1.394 . S
C1199 C1200 1.383 . S
C1199 H1207 0.929 . S
C1200 C1199 1.383 . S
C1200 C1201 1.377 . S
C1201 H1185 0.930 . S
C1201 C1200 1.377 . S
C1201 C1202 1.379 . S
C1202 H1186 0.940 . S
C1202 C1196 1.383 . S
C1202 C1201 1.379 . S
H1203 C1197 0.959 . S
H1204 C1197 0.961 . S
H1205 C1197 0.960 . S
H1206 C1198 0.930 . S
H1207 C1199 0.929 . S
H1208 C1216 0.929 . S
H1209 C1218 0.930 . S
H1210 C1220 0.930 . S
H1211 C1223 0.929 . S
H1212 C1226 0.930 . S
H1213 C1228 0.960 . S
H1214 C1228 0.960 . S
H1215 C1228 0.960 . S
C1216 H1208 0.929 . S
C1216 C1217 1.377 . S
C1216 C1218 1.384 . S
C1217 C1216 1.377 . S
C1217 C1223 1.390 . S
C1218 H1209 0.930 . S
C1218 C1216 1.384 . S
C1218 C1219 1.372 . S
C1219 C1218 1.372 . S
C1219 C1220 1.400 . S
C1219 C1224 1.490 . S
C1220 H1210 0.930 . S
C1220 C1219 1.400 . S
C1220 C1223 1.386 . S
H1221 C1237 0.930 . S
H1222 C1238 0.931 . S
C1223 H1211 0.929 . S
C1223 C1217 1.390 . S
C1223 C1220 1.386 . S
C1224 C1219 1.490 . S
C1224 C1226 1.395 . S
C1224 C1227 1.403 . S
H1225 C1231 0.930 . S
C1226 H1212 0.930 . S
C1226 C1224 1.395 . S
C1226 C1229 1.403 . S
C1227 C1224 1.403 . S
C1227 C1228 1.524 . S
C1227 C1231 1.400 . S
C1228 H1213 0.960 . S
C1228 H1214 0.960 . S
C1228 H1215 0.960 . S
C1228 C1227 1.524 . S
C1229 C1226 1.403 . S
C1229 C1230 1.392 . S
C1229 C1233 1.495 . S
C1230 C1229 1.392 . S
C1230 C1231 1.385 . S
C1230 C1232 1.478 . S
C1231 H1225 0.930 . S
C1231 C1227 1.400 . S
C1231 C1230 1.385 . S
C1232 C1230 1.478 . S
C1232 C1234 1.381 . S
C1232 C1238 1.383 . S
C1233 C1229 1.495 . S
C1233 H1239 0.959 . S
C1233 H1240 0.961 . S
C1233 H1241 0.960 . S
C1234 C1232 1.381 . S
C1234 C1235 1.394 . S
C1234 H1242 0.930 . S
C1235 C1234 1.394 . S
C1235 C1236 1.383 . S
C1235 H1243 0.929 . S
C1236 C1235 1.383 . S
C1236 C1237 1.377 . S
C1237 H1221 0.930 . S
C1237 C1236 1.377 . S
C1237 C1238 1.379 . S
C1238 H1222 0.931 . S
C1238 C1232 1.383 . S
C1238 C1237 1.379 . S
H1239 C1233 0.959 . S
H1240 C1233 0.961 . S
H1241 C1233 0.960 . S
H1242 C1234 0.930 . S
H1243 C1235 0.929 . S
H1244 C1252 0.929 . S
H1245 C1254 0.930 . S
H1246 C1256 0.933 1_565 S
H1247 C1259 0.929 . S
H1248 C1262 0.930 . S
H1249 C1264 0.960 . S
H1250 C1264 0.960 . S
H1251 C1264 0.960 . S
C1252 H1244 0.929 . S
C1252 C1253 1.377 . S
C1252 C1254 1.384 . S
C1253 C1252 1.377 . S
C1253 C1259 1.390 . S
C1254 H1245 0.930 . S
C1254 C1252 1.384 . S
C1254 C1255 1.372 . S
C1255 C1254 1.372 . S
C1255 C1256 1.400 . S
C1255 C1260 1.490 . S
C1256 H1246 0.933 1_545 S
C1256 C1255 1.400 . S
C1256 C1259 1.386 . S
H1257 C1273 0.930 . S
H1258 C1274 0.931 . S
C1259 H1247 0.929 . S
C1259 C1253 1.390 . S
C1259 C1256 1.386 . S
C1260 C1255 1.490 . S
C1260 C1262 1.395 1_545 S
C1260 C1263 1.403 . S
H1261 C1267 0.930 . S
C1262 H1248 0.930 . S
C1262 C1260 1.395 1_565 S
C1262 C1265 1.403 . S
C1263 C1260 1.403 . S
C1263 C1264 1.524 . S
C1263 C1267 1.400 . S
C1264 H1249 0.960 . S
C1264 H1250 0.960 . S
C1264 H1251 0.960 . S
C1264 C1263 1.524 . S
C1265 C1262 1.403 . S
C1265 C1266 1.392 . S
C1265 C1269 1.495 . S
C1266 C1265 1.392 . S
C1266 C1267 1.385 1_565 S
C1266 C1268 1.478 . S
C1267 H1261 0.930 . S
C1267 C1263 1.400 . S
C1267 C1266 1.385 1_545 S
C1268 C1266 1.478 . S
C1268 C1270 1.381 . S
C1268 C1274 1.383 . S
C1269 C1265 1.495 . S
C1269 H1275 0.959 . S
C1269 H1276 0.961 . S
C1269 H1277 0.960 . S
C1270 C1268 1.381 . S
C1270 C1271 1.394 . S
C1270 H1278 0.884 1_565 S
C1271 C1270 1.394 . S
C1271 C1272 1.383 . S
C1271 H1279 0.929 . S
C1272 C1271 1.383 . S
C1272 C1273 1.377 . S
C1273 H1257 0.930 . S
C1273 C1272 1.377 . S
C1273 C1274 1.379 . S
C1274 H1258 0.931 . S
C1274 C1268 1.383 . S
C1274 C1273 1.379 . S
H1275 C1269 0.959 . S
H1276 C1269 0.961 . S
H1277 C1269 0.960 . S
H1278 C1270 0.884 1_545 S
H1279 C1271 0.929 . S
H1280 C1288 0.929 . S
H1281 C1290 0.930 . S
H1282 C1292 0.930 . S
H1283 C1295 0.929 . S
H1284 C1298 0.930 . S
H1285 C1300 0.960 . S
H1286 C1300 0.960 . S
H1287 C1300 0.960 . S
C1288 H1280 0.929 . S
C1288 C1289 1.377 . S
C1288 C1290 1.384 . S
C1289 C1288 1.377 . S
C1289 C1295 1.390 . S
C1290 H1281 0.930 . S
C1290 C1288 1.384 . S
C1290 C1291 1.372 . S
C1291 C1290 1.372 . S
C1291 C1292 1.400 . S
C1291 C1296 1.490 . S
C1292 H1282 0.930 . S
C1292 C1291 1.400 . S
C1292 C1295 1.386 . S
H1293 C1309 0.930 . S
H1294 C1310 0.931 . S
C1295 H1283 0.929 . S
C1295 C1289 1.390 . S
C1295 C1292 1.386 . S
C1296 C1291 1.490 . S
C1296 C1298 1.395 . S
C1296 C1299 1.403 . S
H1297 C1303 0.930 . S
C1298 H1284 0.930 . S
C1298 C1296 1.395 . S
C1298 C1301 1.403 . S
C1299 C1296 1.403 . S
C1299 C1300 1.524 . S
C1299 C1303 1.400 . S
C1300 H1285 0.960 . S
C1300 H1286 0.960 . S
C1300 H1287 0.960 . S
C1300 C1299 1.524 . S
C1301 C1298 1.403 . S
C1301 C1302 1.392 . S
C1301 C1305 1.495 . S
C1302 C1301 1.392 . S
C1302 C1303 1.385 . S
C1302 C1304 1.478 . S
C1303 H1297 0.930 . S
C1303 C1299 1.400 . S
C1303 C1302 1.385 . S
C1304 C1302 1.478 . S
C1304 C1306 1.381 . S
C1304 C1310 1.383 . S
C1305 C1301 1.495 . S
C1305 H1311 0.959 . S
C1305 H1312 0.961 . S
C1305 H1313 0.960 . S
C1306 C1304 1.381 . S
C1306 C1307 1.394 . S
C1306 H1314 0.930 . S
C1307 C1306 1.394 . S
C1307 C1308 1.383 . S
C1307 H1315 0.929 . S
C1308 C1307 1.383 . S
C1308 C1309 1.377 . S
C1309 H1293 0.930 . S
C1309 C1308 1.377 . S
C1309 C1310 1.379 . S
C1310 H1294 0.931 . S
C1310 C1304 1.383 . S
C1310 C1309 1.379 . S
H1311 C1305 0.959 . S
H1312 C1305 0.961 . S
H1313 C1305 0.960 . S
H1314 C1306 0.930 . S
H1315 C1307 0.929 . S
H1316 C1324 0.929 . S
H1317 C1326 0.930 . S
H1318 C1328 0.930 . S
H1319 C1331 0.929 . S
H1320 C1334 0.930 . S
H1321 C1336 0.960 . S
H1322 C1336 0.960 . S
H1323 C1336 0.960 . S
C1324 H1316 0.929 . S
C1324 C1325 1.377 . S
C1324 C1326 1.384 . S
C1325 C1324 1.377 . S
C1325 C1331 1.390 . S
C1326 H1317 0.930 . S
C1326 C1324 1.384 . S
C1326 C1327 1.372 . S
C1327 C1326 1.372 . S
C1327 C1328 1.400 . S
C1327 C1332 1.490 . S
C1328 H1318 0.930 . S
C1328 C1327 1.400 . S
C1328 C1331 1.386 . S
H1329 C1345 0.930 . S
H1330 C1346 0.931 . S
C1331 H1319 0.929 . S
C1331 C1325 1.390 . S
C1331 C1328 1.386 . S
C1332 C1327 1.490 . S
C1332 C1334 1.395 . S
C1332 C1335 1.403 . S
H1333 C1339 0.930 . S
C1334 H1320 0.930 . S
C1334 C1332 1.395 . S
C1334 C1337 1.403 . S
C1335 C1332 1.403 . S
C1335 C1336 1.524 . S
C1335 C1339 1.400 . S
C1336 H1321 0.960 . S
C1336 H1322 0.960 . S
C1336 H1323 0.960 . S
C1336 C1335 1.524 . S
C1337 C1334 1.403 . S
C1337 C1338 1.392 . S
C1337 C1341 1.495 . S
C1338 C1337 1.392 . S
C1338 C1339 1.385 . S
C1338 C1340 1.478 . S
C1339 H1333 0.930 . S
C1339 C1335 1.400 . S
C1339 C1338 1.385 . S
C1340 C1338 1.478 . S
C1340 C1342 1.381 . S
C1340 C1346 1.383 . S
C1341 C1337 1.495 . S
C1341 H1347 0.959 . S
C1341 H1348 0.961 . S
C1341 H1349 0.960 . S
C1342 C1340 1.381 . S
C1342 C1343 1.394 . S
C1342 H1350 0.930 . S
C1343 C1342 1.394 . S
C1343 C1344 1.383 . S
C1343 H1351 0.929 . S
C1344 C1343 1.383 . S
C1344 C1345 1.377 . S
C1345 H1329 0.930 . S
C1345 C1344 1.377 . S
C1345 C1346 1.379 . S
C1346 H1330 0.931 . S
C1346 C1340 1.383 . S
C1346 C1345 1.379 . S
H1347 C1341 0.959 . S
H1348 C1341 0.961 . S
H1349 C1341 0.960 . S
H1350 C1342 0.930 . S
H1351 C1343 0.929 . S
H1352 C1360 0.929 . S
H1353 C1362 0.930 . S
H1354 C1364 0.930 . S
H1355 C1367 0.929 . S
H1356 C1370 0.930 . S
H1357 C1372 0.960 . S
H1358 C1372 0.960 . S
H1359 C1372 0.960 . S
C1360 H1352 0.929 . S
C1360 C1361 1.377 . S
C1360 C1362 1.384 . S
C1361 C1360 1.377 . S
C1361 C1367 1.390 . S
C1362 H1353 0.930 . S
C1362 C1360 1.384 . S
C1362 C1363 1.372 . S
C1363 C1362 1.372 . S
C1363 C1364 1.400 . S
C1363 C1368 1.490 . S
C1364 H1354 0.930 . S
C1364 C1363 1.400 . S
C1364 C1367 1.386 . S
H1365 C1381 0.930 . S
H1366 C1382 0.931 . S
C1367 H1355 0.929 . S
C1367 C1361 1.390 . S
C1367 C1364 1.386 . S
C1368 C1363 1.490 . S
C1368 C1370 1.395 . S
C1368 C1371 1.403 . S
H1369 C1375 0.930 . S
C1370 H1356 0.930 . S
C1370 C1368 1.395 . S
C1370 C1373 1.403 . S
C1371 C1368 1.403 . S
C1371 C1372 1.524 . S
C1371 C1375 1.400 . S
C1372 H1357 0.960 . S
C1372 H1358 0.960 . S
C1372 H1359 0.960 . S
C1372 C1371 1.524 . S
C1373 C1370 1.403 . S
C1373 C1374 1.392 . S
C1373 C1377 1.495 . S
C1374 C1373 1.392 . S
C1374 C1375 1.385 . S
C1374 C1376 1.478 . S
C1375 H1369 0.930 . S
C1375 C1371 1.400 . S
C1375 C1374 1.385 . S
C1376 C1374 1.478 . S
C1376 C1378 1.381 . S
C1376 C1382 1.383 . S
C1377 C1373 1.495 . S
C1377 H1383 0.959 . S
C1377 H1384 0.961 . S
C1377 H1385 0.960 . S
C1378 C1376 1.381 . S
C1378 C1379 1.394 . S
C1378 H1386 0.930 . S
C1379 C1378 1.394 . S
C1379 C1380 1.383 . S
C1379 H1387 0.929 . S
C1380 C1379 1.383 . S
C1380 C1381 1.377 . S
C1381 H1365 0.930 . S
C1381 C1380 1.377 . S
C1381 C1382 1.379 . S
C1382 H1366 0.931 . S
C1382 C1376 1.383 . S
C1382 C1381 1.379 . S
H1383 C1377 0.959 . S
H1384 C1377 0.961 . S
H1385 C1377 0.960 . S
H1386 C1378 0.930 . S
H1387 C1379 0.929 . S
H1388 C1396 0.929 . S
H1389 C1398 0.930 . S
H1390 C1400 0.930 . S
H1391 C1403 0.929 . S
H1392 C1406 0.930 . S
H1393 C1408 0.960 . S
H1394 C1408 0.960 . S
H1395 C1408 0.960 . S
C1396 H1388 0.929 . S
C1396 C1397 1.377 . S
C1396 C1398 1.384 . S
C1397 C1396 1.377 . S
C1397 C1403 1.390 . S
C1398 H1389 0.930 . S
C1398 C1396 1.384 . S
C1398 C1399 1.372 . S
C1399 C1398 1.372 . S
C1399 C1400 1.400 . S
C1399 C1404 1.490 . S
C1400 H1390 0.930 . S
C1400 C1399 1.400 . S
C1400 C1403 1.386 . S
H1401 C1417 0.930 . S
H1402 C1418 0.931 . S
C1403 H1391 0.929 . S
C1403 C1397 1.390 . S
C1403 C1400 1.386 . S
C1404 C1399 1.490 . S
C1404 C1406 1.395 . S
C1404 C1407 1.403 . S
H1405 C1411 0.930 . S
C1406 H1392 0.930 . S
C1406 C1404 1.395 . S
C1406 C1409 1.403 . S
C1407 C1404 1.403 . S
C1407 C1408 1.524 . S
C1407 C1411 1.400 . S
C1408 H1393 0.960 . S
C1408 H1394 0.960 . S
C1408 H1395 0.960 . S
C1408 C1407 1.524 . S
C1409 C1406 1.403 . S
C1409 C1410 1.392 . S
C1409 C1413 1.495 . S
C1410 C1409 1.392 . S
C1410 C1411 1.385 . S
C1410 C1412 1.478 1_554 S
C1411 H1405 0.930 . S
C1411 C1407 1.400 . S
C1411 C1410 1.385 . S
C1412 C1410 1.478 1_556 S
C1412 C1414 1.381 . S
C1412 C1418 1.383 . S
C1413 C1409 1.495 . S
C1413 H1419 0.959 . S
C1413 H1420 0.961 . S
C1413 H1421 0.960 . S
C1414 C1412 1.381 . S
C1414 C1415 1.394 . S
C1414 H1422 0.930 . S
C1415 C1414 1.394 . S
C1415 C1416 1.383 . S
C1415 H1423 0.929 . S
C1416 C1415 1.383 . S
C1416 C1417 1.377 . S
C1417 H1401 0.930 . S
C1417 C1416 1.377 . S
C1417 C1418 1.379 . S
C1418 H1402 0.931 . S
C1418 C1412 1.383 . S
C1418 C1417 1.379 . S
H1419 C1413 0.959 . S
H1420 C1413 0.961 . S
H1421 C1413 0.960 . S
H1422 C1414 0.930 . S
H1423 C1415 0.929 . S
H1424 C1432 0.929 . S
H1425 C1434 0.930 . S
H1426 C1436 0.930 . S
H1427 C1439 0.929 . S
H1428 C1442 0.930 . S
H1429 C1444 0.960 . S
H1430 C1444 0.960 . S
H1431 C1444 0.960 . S
C1432 H1424 0.929 . S
C1432 C1433 1.377 . S
C1432 C1434 1.384 . S
C1433 C1432 1.377 . S
C1433 C1439 1.390 . S
C1434 H1425 0.930 . S
C1434 C1432 1.384 . S
C1434 C1435 1.372 . S
C1435 C1434 1.372 . S
C1435 C1436 1.400 . S
C1435 C1440 1.490 . S
C1436 H1426 0.930 . S
C1436 C1435 1.400 . S
C1436 C1439 1.386 . S
H1437 C1453 0.930 . S
H1438 C1454 0.931 . S
C1439 H1427 0.929 . S
C1439 C1433 1.390 . S
C1439 C1436 1.386 . S
C1440 C1435 1.490 . S
C1440 C1442 1.395 . S
C1440 C1443 1.403 . S
H1441 C1447 0.930 . S
C1442 H1428 0.930 . S
C1442 C1440 1.395 . S
C1442 C1445 1.403 . S
C1443 C1440 1.403 . S
C1443 C1444 1.524 . S
C1443 C1447 1.400 . S
C1444 H1429 0.960 . S
C1444 H1430 0.960 . S
C1444 H1431 0.960 . S
C1444 C1443 1.524 . S
C1445 C1442 1.403 . S
C1445 C1446 1.392 . S
C1445 C1449 1.495 . S
C1446 C1445 1.392 . S
C1446 C1447 1.385 . S
C1446 C1448 1.478 . S
C1447 H1441 0.930 . S
C1447 C1443 1.400 . S
C1447 C1446 1.385 . S
C1448 C1446 1.478 . S
C1448 C1450 1.381 . S
C1448 C1454 1.383 . S
C1449 C1445 1.495 . S
C1449 H1455 0.959 . S
C1449 H1456 0.961 . S
C1449 H1457 0.960 . S
C1450 C1448 1.381 . S
C1450 C1451 1.394 . S
C1450 H1458 0.930 . S
C1451 C1450 1.394 . S
C1451 C1452 1.383 . S
C1451 H1459 0.929 . S
C1452 C1451 1.383 . S
C1452 C1453 1.377 . S
C1453 H1437 0.930 . S
C1453 C1452 1.377 . S
C1453 C1454 1.379 . S
C1454 H1438 0.931 . S
C1454 C1448 1.383 . S
C1454 C1453 1.379 . S
H1455 C1449 0.959 . S
H1456 C1449 0.961 . S
H1457 C1449 0.960 . S
H1458 C1450 0.930 . S
H1459 C1451 0.929 . S
H1460 C1468 0.929 . S
H1461 C1470 0.930 . S
H1462 C1472 0.930 . S
H1463 C1475 0.929 . S
H1464 C1478 0.930 . S
H1465 C1480 0.960 . S
H1466 C1480 0.960 . S
H1467 C1480 0.960 . S
C1468 H1460 0.929 . S
C1468 C1469 1.377 . S
C1468 C1470 1.384 . S
C1469 C1468 1.377 . S
C1469 C1475 1.390 . S
C1470 H1461 0.930 . S
C1470 C1468 1.384 . S
C1470 C1471 1.372 . S
C1471 C1470 1.372 . S
C1471 C1472 1.400 . S
C1471 C1476 1.490 . S
C1472 H1462 0.930 . S
C1472 C1471 1.400 . S
C1472 C1475 1.386 . S
H1473 C1489 0.930 . S
H1474 C1490 0.931 . S
C1475 H1463 0.929 . S
C1475 C1469 1.390 . S
C1475 C1472 1.386 . S
C1476 C1471 1.490 . S
C1476 C1478 1.395 . S
C1476 C1479 1.403 . S
H1477 C1483 0.930 . S
C1478 H1464 0.930 . S
C1478 C1476 1.395 . S
C1478 C1481 1.403 . S
C1479 C1476 1.403 . S
C1479 C1480 1.524 . S
C1479 C1483 1.400 . S
C1480 H1465 0.960 . S
C1480 H1466 0.960 . S
C1480 H1467 0.960 . S
C1480 C1479 1.524 . S
C1481 C1478 1.403 . S
C1481 C1482 1.392 . S
C1481 C1485 1.495 . S
C1482 C1481 1.392 . S
C1482 C1483 1.385 . S
C1482 C1484 1.478 . S
C1483 H1477 0.930 . S
C1483 C1479 1.400 . S
C1483 C1482 1.385 . S
C1484 C1482 1.478 . S
C1484 C1486 1.381 . S
C1484 C1490 1.383 . S
C1485 C1481 1.495 . S
C1485 H1491 0.959 . S
C1485 H1492 0.961 . S
C1485 H1493 0.960 . S
C1486 C1484 1.381 . S
C1486 C1487 1.394 . S
C1486 H1494 0.930 . S
C1487 C1486 1.394 . S
C1487 C1488 1.383 . S
C1487 H1495 0.929 . S
C1488 C1487 1.383 . S
C1488 C1489 1.377 . S
C1489 H1473 0.930 . S
C1489 C1488 1.377 . S
C1489 C1490 1.379 . S
C1490 H1474 0.931 . S
C1490 C1484 1.383 . S
C1490 C1489 1.379 . S
H1491 C1485 0.959 . S
H1492 C1485 0.961 . S
H1493 C1485 0.960 . S
H1494 C1486 0.930 . S
H1495 C1487 0.929 . S
H1496 C1504 0.929 . S
H1497 C1506 0.930 . S
H1498 C1508 0.930 . S
H1499 C1511 0.929 . S
H1500 C1514 0.930 . S
H1501 C1516 0.960 . S
H1502 C1516 0.960 . S
H1503 C1516 0.960 . S
C1504 H1496 0.929 . S
C1504 C1505 1.377 . S
C1504 C1506 1.384 . S
C1505 C1504 1.377 . S
C1505 C1511 1.390 . S
C1506 H1497 0.930 . S
C1506 C1504 1.384 . S
C1506 C1507 1.372 . S
C1507 C1506 1.372 . S
C1507 C1508 1.400 . S
C1507 C1512 1.490 . S
C1508 H1498 0.930 . S
C1508 C1507 1.400 . S
C1508 C1511 1.386 . S
H1509 C1525 0.930 . S
H1510 C1526 0.931 . S
C1511 H1499 0.929 . S
C1511 C1505 1.390 . S
C1511 C1508 1.386 . S
C1512 C1507 1.490 . S
C1512 C1514 1.395 . S
C1512 C1515 1.403 . S
H1513 C1519 0.930 . S
C1514 H1500 0.930 . S
C1514 C1512 1.395 . S
C1514 C1517 1.403 . S
C1515 C1512 1.403 . S
C1515 C1516 1.524 . S
C1515 C1519 1.400 . S
C1516 H1501 0.960 . S
C1516 H1502 0.960 . S
C1516 H1503 0.960 . S
C1516 C1515 1.524 . S
C1517 C1514 1.403 . S
C1517 C1518 1.392 . S
C1517 C1521 1.495 . S
C1518 C1517 1.392 . S
C1518 C1519 1.385 . S
C1518 C1520 1.478 . S
C1519 H1513 0.930 . S
C1519 C1515 1.400 . S
C1519 C1518 1.385 . S
C1520 C1518 1.478 . S
C1520 C1522 1.381 . S
C1520 C1526 1.383 . S
C1521 C1517 1.495 . S
C1521 H1527 0.959 . S
C1521 H1528 0.961 . S
C1521 H1529 0.960 . S
C1522 C1520 1.381 . S
C1522 C1523 1.394 . S
C1522 H1530 0.930 . S
C1523 C1522 1.394 . S
C1523 C1524 1.383 . S
C1523 H1531 0.929 . S
C1524 C1523 1.383 . S
C1524 C1525 1.377 . S
C1525 H1509 0.930 . S
C1525 C1524 1.377 . S
C1525 C1526 1.379 . S
C1526 H1510 0.931 . S
C1526 C1520 1.383 . S
C1526 C1525 1.379 . S
H1527 C1521 0.959 . S
H1528 C1521 0.961 . S
H1529 C1521 0.960 . S
H1530 C1522 0.930 . S
H1531 C1523 0.929 . S
H1532 C1540 0.929 . S
H1533 C1542 0.930 . S
H1534 C1544 0.930 . S
H1535 C1547 0.929 . S
H1536 C1550 0.930 . S
H1537 C1552 0.960 . S
H1538 C1552 0.960 . S
H1539 C1552 0.960 . S
C1540 H1532 0.929 . S
C1540 C1541 1.377 . S
C1540 C1542 1.384 . S
C1541 C1540 1.377 . S
C1541 C1547 1.390 . S
C1542 H1533 0.930 . S
C1542 C1540 1.384 . S
C1542 C1543 1.372 . S
C1543 C1542 1.372 . S
C1543 C1544 1.400 . S
C1543 C1548 1.490 . S
C1544 H1534 0.930 . S
C1544 C1543 1.400 . S
C1544 C1547 1.386 . S
H1545 C1561 0.930 . S
H1546 C1562 0.931 . S
C1547 H1535 0.929 . S
C1547 C1541 1.390 . S
C1547 C1544 1.386 . S
C1548 C1543 1.490 . S
C1548 C1550 1.395 . S
C1548 C1551 1.403 . S
H1549 C1555 0.930 . S
C1550 H1536 0.930 . S
C1550 C1548 1.395 . S
C1550 C1553 1.403 . S
C1551 C1548 1.403 . S
C1551 C1552 1.524 . S
C1551 C1555 1.400 . S
C1552 H1537 0.960 . S
C1552 H1538 0.960 . S
C1552 H1539 0.960 . S
C1552 C1551 1.524 . S
C1553 C1550 1.403 . S
C1553 C1554 1.392 . S
C1553 C1557 1.495 . S
C1554 C1553 1.392 . S
C1554 C1555 1.385 . S
C1554 C1556 1.478 1_554 S
C1555 H1549 0.930 . S
C1555 C1551 1.400 . S
C1555 C1554 1.385 . S
C1556 C1554 1.478 1_556 S
C1556 C1558 1.381 . S
C1556 C1562 1.383 . S
C1557 C1553 1.495 . S
C1557 H1563 0.959 . S
C1557 H1564 0.961 1_554 S
C1557 H1565 0.960 1_554 S
C1558 C1556 1.381 . S
C1558 C1559 1.394 . S
C1558 H1566 0.930 . S
C1559 C1558 1.394 . S
C1559 C1560 1.383 . S
C1559 H1567 0.929 . S
C1560 C1559 1.383 . S
C1560 C1561 1.377 . S
C1561 H1545 0.930 . S
C1561 C1560 1.377 . S
C1561 C1562 1.379 . S
C1562 H1546 0.931 . S
C1562 C1556 1.383 . S
C1562 C1561 1.379 . S
H1563 C1557 0.959 . S
H1564 C1557 0.961 1_556 S
H1565 C1557 0.960 1_556 S
H1566 C1558 0.930 . S
H1567 C1559 0.929 . S
H1568 C1576 0.929 . S
H1569 C1578 0.930 . S
H1570 C1580 0.930 . S
H1571 C1583 0.929 . S
H1572 C1586 0.930 . S
H1573 C1588 0.960 . S
H1574 C1588 0.960 . S
H1575 C1588 0.960 . S
C1576 H1568 0.929 . S
C1576 C1577 1.377 . S
C1576 C1578 1.384 . S
C1577 C1576 1.377 . S
C1577 C1583 1.390 . S
C1578 H1569 0.930 . S
C1578 C1576 1.384 . S
C1578 C1579 1.372 . S
C1579 C1578 1.372 . S
C1579 C1580 1.400 . S
C1579 C1584 1.490 . S
C1580 H1570 0.930 . S
C1580 C1579 1.400 . S
C1580 C1583 1.386 . S
H1581 C1597 0.930 . S
H1582 C1598 0.931 . S
C1583 H1571 0.929 . S
C1583 C1577 1.390 . S
C1583 C1580 1.386 . S
C1584 C1579 1.490 . S
C1584 C1586 1.395 . S
C1584 C1587 1.403 . S
H1585 C1591 0.930 . S
C1586 H1572 0.930 . S
C1586 C1584 1.395 . S
C1586 C1589 1.403 . S
C1587 C1584 1.403 . S
C1587 C1588 1.524 . S
C1587 C1591 1.400 . S
C1588 H1573 0.960 . S
C1588 H1574 0.960 . S
C1588 H1575 0.960 . S
C1588 C1587 1.524 . S
C1589 C1586 1.403 . S
C1589 C1590 1.392 . S
C1589 C1593 1.495 . S
C1590 C1589 1.392 . S
C1590 C1591 1.385 . S
C1590 C1592 1.478 . S
C1591 H1585 0.930 . S
C1591 C1587 1.400 . S
C1591 C1590 1.385 . S
C1592 C1590 1.478 . S
C1592 C1594 1.381 . S
C1592 C1598 1.383 . S
C1593 C1589 1.495 . S
C1593 H1599 0.959 . S
C1593 H1600 0.961 . S
C1593 H1601 0.960 . S
C1594 C1592 1.381 . S
C1594 C1595 1.394 . S
C1594 H1602 0.930 . S
C1595 C1594 1.394 . S
C1595 C1596 1.383 . S
C1595 H1603 0.929 . S
C1596 C1595 1.383 . S
C1596 C1597 1.377 . S
C1597 H1581 0.930 . S
C1597 C1596 1.377 . S
C1597 C1598 1.379 . S
C1598 H1582 0.931 . S
C1598 C1592 1.383 . S
C1598 C1597 1.379 . S
H1599 C1593 0.959 . S
H1600 C1593 0.961 . S
H1601 C1593 0.960 . S
H1602 C1594 0.930 . S
H1603 C1595 0.929 . S
H1604 C1612 0.929 . S
H1605 C1614 0.930 . S
H1606 C1616 0.930 . S
H1607 C1619 0.929 . S
H1608 C1622 0.930 . S
H1609 C1624 0.960 . S
H1610 C1624 0.960 . S
H1611 C1624 0.960 . S
C1612 H1604 0.929 . S
C1612 C1613 1.377 . S
C1612 C1614 1.384 . S
C1613 C1612 1.377 . S
C1613 C1619 1.390 . S
C1614 H1605 0.930 . S
C1614 C1612 1.384 . S
C1614 C1615 1.372 . S
C1615 C1614 1.372 . S
C1615 C1616 1.400 . S
C1615 C1620 1.490 . S
C1616 H1606 0.930 . S
C1616 C1615 1.400 . S
C1616 C1619 1.386 . S
H1617 C1633 0.930 . S
H1618 C1634 0.931 . S
C1619 H1607 0.929 . S
C1619 C1613 1.390 . S
C1619 C1616 1.386 . S
C1620 C1615 1.490 . S
C1620 C1622 1.395 . S
C1620 C1623 1.403 . S
H1621 C1627 0.930 . S
C1622 H1608 0.930 . S
C1622 C1620 1.395 . S
C1622 C1625 1.403 1_455 S
C1623 C1620 1.403 . S
C1623 C1624 1.524 . S
C1623 C1627 1.400 1_455 S
C1624 H1609 0.960 . S
C1624 H1610 0.960 . S
C1624 H1611 0.960 . S
C1624 C1623 1.524 . S
C1625 C1622 1.403 1_655 S
C1625 C1626 1.392 . S
C1625 C1629 1.495 . S
C1626 C1625 1.392 . S
C1626 C1627 1.385 . S
C1626 C1628 1.478 . S
C1627 H1621 0.930 . S
C1627 C1623 1.400 1_655 S
C1627 C1626 1.385 . S
C1628 C1626 1.478 . S
C1628 C1630 1.381 . S
C1628 C1634 1.383 . S
C1629 C1625 1.495 . S
C1629 H1635 0.959 . S
C1629 H1636 0.961 . S
C1629 H1637 0.960 . S
C1630 C1628 1.381 . S
C1630 C1631 1.394 . S
C1630 H1638 0.930 . S
C1631 C1630 1.394 . S
C1631 C1632 1.383 . S
C1631 H1639 0.929 . S
C1632 C1631 1.383 . S
C1632 C1633 1.377 . S
C1633 H1617 0.930 . S
C1633 C1632 1.377 . S
C1633 C1634 1.379 . S
C1634 H1618 0.931 . S
C1634 C1628 1.383 . S
C1634 C1633 1.379 . S
H1635 C1629 0.959 . S
H1636 C1629 0.961 . S
H1637 C1629 0.960 . S
H1638 C1630 0.930 . S
H1639 C1631 0.929 . S
H1640 C1648 0.929 . S
H1641 C1650 0.930 . S
H1642 C1652 0.930 . S
H1643 C1655 0.929 . S
H1644 C1658 0.930 . S
H1645 C1660 0.960 . S
H1646 C1660 0.960 . S
H1647 C1660 0.960 . S
C1648 H1640 0.929 . S
C1648 C1649 1.377 . S
C1648 C1650 1.384 . S
C1649 C1648 1.377 . S
C1649 C1655 1.390 . S
C1650 H1641 0.930 . S
C1650 C1648 1.384 . S
C1650 C1651 1.372 . S
C1651 C1650 1.372 . S
C1651 C1652 1.400 . S
C1651 C1656 1.490 . S
C1652 H1642 0.930 . S
C1652 C1651 1.400 . S
C1652 C1655 1.386 . S
H1653 C1669 0.930 . S
H1654 C1670 0.931 . S
C1655 H1643 0.929 . S
C1655 C1649 1.390 . S
C1655 C1652 1.386 . S
C1656 C1651 1.490 . S
C1656 C1658 1.395 . S
C1656 C1659 1.403 . S
H1657 C1663 0.930 . S
C1658 H1644 0.930 . S
C1658 C1656 1.395 . S
C1658 C1661 1.403 . S
C1659 C1656 1.403 . S
C1659 C1660 1.524 . S
C1659 C1663 1.400 . S
C1660 H1645 0.960 . S
C1660 H1646 0.960 . S
C1660 H1647 0.960 . S
C1660 C1659 1.524 . S
C1661 C1658 1.403 . S
C1661 C1662 1.392 . S
C1661 C1665 1.495 . S
C1662 C1661 1.392 . S
C1662 C1663 1.385 . S
C1662 C1664 1.478 . S
C1663 H1657 0.930 . S
C1663 C1659 1.400 . S
C1663 C1662 1.385 . S
C1664 C1662 1.478 . S
C1664 C1666 1.381 . S
C1664 C1670 1.383 . S
C1665 C1661 1.495 . S
C1665 H1671 0.959 . S
C1665 H1672 0.961 . S
C1665 H1673 0.960 . S
C1666 C1664 1.381 . S
C1666 C1667 1.394 . S
C1666 H1674 0.930 . S
C1667 C1666 1.394 . S
C1667 C1668 1.383 . S
C1667 H1675 0.929 . S
C1668 C1667 1.383 . S
C1668 C1669 1.377 . S
C1669 H1653 0.930 . S
C1669 C1668 1.377 . S
C1669 C1670 1.379 . S
C1670 H1654 0.931 . S
C1670 C1664 1.383 . S
C1670 C1669 1.379 . S
H1671 C1665 0.959 . S
H1672 C1665 0.961 . S
H1673 C1665 0.960 . S
H1674 C1666 0.930 . S
H1675 C1667 0.929 . S
H1676 C1684 0.929 . S
H1677 C1686 0.930 . S
H1678 C1688 0.930 . S
H1679 C1691 0.929 . S
H1680 C1694 0.930 . S
H1681 C1696 0.960 . S
H1682 C1696 0.960 . S
H1683 C1696 0.960 . S
C1684 H1676 0.929 . S
C1684 C1685 1.377 . S
C1684 C1686 1.384 . S
C1685 C1684 1.377 . S
C1685 C1691 1.390 . S
C1686 H1677 0.930 . S
C1686 C1684 1.384 . S
C1686 C1687 1.372 . S
C1687 C1686 1.372 . S
C1687 C1688 1.400 . S
C1687 C1692 1.490 . S
C1688 H1678 0.930 . S
C1688 C1687 1.400 . S
C1688 C1691 1.386 . S
H1689 C1705 0.930 . S
H1690 C1706 0.931 . S
C1691 H1679 0.929 . S
C1691 C1685 1.390 . S
C1691 C1688 1.386 . S
C1692 C1687 1.490 . S
C1692 C1694 1.395 . S
C1692 C1695 1.403 . S
H1693 C1699 0.930 . S
C1694 H1680 0.930 . S
C1694 C1692 1.395 . S
C1694 C1697 1.403 . S
C1695 C1692 1.403 . S
C1695 C1696 1.524 . S
C1695 C1699 1.400 . S
C1696 H1681 0.960 . S
C1696 H1682 0.960 . S
C1696 H1683 0.960 . S
C1696 C1695 1.524 . S
C1697 C1694 1.403 . S
C1697 C1698 1.392 . S
C1697 C1701 1.495 . S
C1698 C1697 1.392 . S
C1698 C1699 1.385 . S
C1698 C1700 1.478 . S
C1699 H1693 0.930 . S
C1699 C1695 1.400 . S
C1699 C1698 1.385 . S
C1700 C1698 1.478 . S
C1700 C1702 1.381 . S
C1700 C1706 1.383 . S
C1701 C1697 1.495 . S
C1701 H1707 0.959 . S
C1701 H1708 0.961 . S
C1701 H1709 0.960 . S
C1702 C1700 1.381 . S
C1702 C1703 1.394 . S
C1702 H1710 0.930 . S
C1703 C1702 1.394 . S
C1703 C1704 1.383 . S
C1703 H1711 0.929 . S
C1704 C1703 1.383 . S
C1704 C1705 1.377 . S
C1705 H1689 0.930 . S
C1705 C1704 1.377 . S
C1705 C1706 1.379 . S
C1706 H1690 0.931 . S
C1706 C1700 1.383 . S
C1706 C1705 1.379 . S
H1707 C1701 0.959 . S
H1708 C1701 0.961 . S
H1709 C1701 0.960 . S
H1710 C1702 0.930 . S
H1711 C1703 0.929 . S
H1712 C1720 0.929 . S
H1713 C1722 0.930 . S
H1714 C1724 0.930 . S
H1715 C1727 0.929 . S
H1716 C1730 0.930 . S
H1717 C1732 0.960 . S
H1718 C1732 0.960 . S
H1719 C1732 0.960 . S
C1720 H1712 0.929 . S
C1720 C1721 1.377 . S
C1720 C1722 1.384 . S
C1721 C1720 1.377 . S
C1721 C1727 1.390 . S
C1722 H1713 0.930 . S
C1722 C1720 1.384 . S
C1722 C1723 1.372 . S
C1723 C1722 1.372 . S
C1723 C1724 1.400 . S
C1723 C1728 1.490 . S
C1724 H1714 0.930 . S
C1724 C1723 1.400 . S
C1724 C1727 1.386 . S
H1725 C1741 0.930 . S
H1726 C1742 0.931 . S
C1727 H1715 0.929 . S
C1727 C1721 1.390 . S
C1727 C1724 1.386 . S
C1728 C1723 1.490 . S
C1728 C1730 1.395 . S
C1728 C1731 1.403 . S
H1729 C1735 0.930 . S
C1730 H1716 0.930 . S
C1730 C1728 1.395 . S
C1730 C1733 1.403 . S
C1731 C1728 1.403 . S
C1731 C1732 1.524 . S
C1731 C1735 1.400 . S
C1732 H1717 0.960 . S
C1732 H1718 0.960 . S
C1732 H1719 0.960 . S
C1732 C1731 1.524 . S
C1733 C1730 1.403 . S
C1733 C1734 1.392 . S
C1733 C1737 1.495 . S
C1734 C1733 1.392 . S
C1734 C1735 1.385 . S
C1734 C1736 1.478 . S
C1735 H1729 0.930 . S
C1735 C1731 1.400 . S
C1735 C1734 1.385 . S
C1736 C1734 1.478 . S
C1736 C1738 1.381 . S
C1736 C1742 1.383 . S
C1737 C1733 1.495 . S
C1737 H1743 0.959 . S
C1737 H1744 0.961 . S
C1737 H1745 0.960 . S
C1738 C1736 1.381 . S
C1738 C1739 1.394 . S
C1738 H1746 0.930 . S
C1739 C1738 1.394 . S
C1739 C1740 1.383 . S
C1739 H1747 0.929 . S
C1740 C1739 1.383 . S
C1740 C1741 1.377 . S
C1741 H1725 0.930 . S
C1741 C1740 1.377 . S
C1741 C1742 1.379 . S
C1742 H1726 0.931 . S
C1742 C1736 1.383 . S
C1742 C1741 1.379 . S
H1743 C1737 0.959 . S
H1744 C1737 0.961 . S
H1745 C1737 0.960 . S
H1746 C1738 0.930 . S
H1747 C1739 0.929 . S
H1748 C1756 0.929 . S
H1749 C1758 0.930 . S
H1750 C1760 0.930 . S
H1751 C1763 0.929 . S
H1752 C1766 0.930 . S
H1753 C1768 0.960 . S
H1754 C1768 0.960 . S
H1755 C1768 0.960 . S
C1756 H1748 0.929 . S
C1756 C1757 1.377 . S
C1756 C1758 1.384 . S
C1757 C1756 1.377 . S
C1757 C1763 1.390 . S
C1758 H1749 0.930 . S
C1758 C1756 1.384 . S
C1758 C1759 1.372 . S
C1759 C1758 1.372 . S
C1759 C1760 1.400 . S
C1759 C1764 1.490 . S
C1760 H1750 0.930 . S
C1760 C1759 1.400 . S
C1760 C1763 1.386 . S
H1761 C1777 0.930 . S
H1762 C1778 0.931 . S
C1763 H1751 0.929 . S
C1763 C1757 1.390 . S
C1763 C1760 1.386 . S
C1764 C1759 1.490 . S
C1764 C1766 1.395 . S
C1764 C1767 1.403 . S
H1765 C1771 0.930 . S
C1766 H1752 0.930 . S
C1766 C1764 1.395 . S
C1766 C1769 1.403 . S
C1767 C1764 1.403 . S
C1767 C1768 1.524 . S
C1767 C1771 1.400 . S
C1768 H1753 0.960 . S
C1768 H1754 0.960 . S
C1768 H1755 0.960 . S
C1768 C1767 1.524 . S
C1769 C1766 1.403 . S
C1769 C1770 1.392 . S
C1769 C1773 1.495 . S
C1770 C1769 1.392 . S
C1770 C1771 1.385 . S
C1770 C1772 1.478 . S
C1771 H1765 0.930 . S
C1771 C1767 1.400 . S
C1771 C1770 1.385 . S
C1772 C1770 1.478 . S
C1772 C1774 1.381 . S
C1772 C1778 1.383 . S
C1773 C1769 1.495 . S
C1773 H1779 0.959 . S
C1773 H1780 0.961 . S
C1773 H1781 0.960 . S
C1774 C1772 1.381 . S
C1774 C1775 1.394 . S
C1774 H1782 0.930 . S
C1775 C1774 1.394 . S
C1775 C1776 1.383 . S
C1775 H1783 0.929 . S
C1776 C1775 1.383 . S
C1776 C1777 1.377 . S
C1777 H1761 0.930 . S
C1777 C1776 1.377 . S
C1777 C1778 1.379 . S
C1778 H1762 0.931 . S
C1778 C1772 1.383 . S
C1778 C1777 1.379 . S
H1779 C1773 0.959 . S
H1780 C1773 0.961 . S
H1781 C1773 0.960 . S
H1782 C1774 0.930 . S
H1783 C1775 0.929 . S
H1784 C1792 0.929 . S
H1785 C1794 0.930 . S
H1786 C1796 0.930 . S
H1787 C1799 0.929 . S
H1788 C1802 0.930 . S
H1789 C1804 0.960 . S
H1790 C1804 0.960 . S
H1791 C1804 0.960 . S
C1792 H1784 0.929 . S
C1792 C1793 1.377 . S
C1792 C1794 1.384 . S
C1793 C1792 1.377 . S
C1793 C1799 1.390 . S
C1794 H1785 0.930 . S
C1794 C1792 1.384 . S
C1794 C1795 1.372 . S
C1795 C1794 1.372 . S
C1795 C1796 1.400 . S
C1795 C1800 1.490 . S
C1796 H1786 0.930 . S
C1796 C1795 1.400 . S
C1796 C1799 1.386 . S
H1797 C1813 0.930 . S
H1798 C1814 0.931 . S
C1799 H1787 0.929 . S
C1799 C1793 1.390 . S
C1799 C1796 1.386 . S
C1800 C1795 1.490 . S
C1800 C1802 1.395 . S
C1800 C1803 1.403 . S
H1801 C1807 0.930 . S
C1802 H1788 0.930 . S
C1802 C1800 1.395 . S
C1802 C1805 1.403 . S
C1803 C1800 1.403 . S
C1803 C1804 1.524 . S
C1803 C1807 1.400 . S
C1804 H1789 0.960 . S
C1804 H1790 0.960 . S
C1804 H1791 0.960 . S
C1804 C1803 1.524 . S
C1805 C1802 1.403 . S
C1805 C1806 1.392 . S
C1805 C1809 1.495 . S
C1806 C1805 1.392 . S
C1806 C1807 1.385 . S
C1806 C1808 1.478 . S
C1807 H1801 0.930 . S
C1807 C1803 1.400 . S
C1807 C1806 1.385 . S
C1808 C1806 1.478 . S
C1808 C1810 1.381 . S
C1808 C1814 1.383 . S
C1809 C1805 1.495 . S
C1809 H1815 0.959 . S
C1809 H1816 0.961 . S
C1809 H1817 0.960 . S
C1810 C1808 1.381 . S
C1810 C1811 1.394 . S
C1810 H1818 0.930 . S
C1811 C1810 1.394 . S
C1811 C1812 1.383 . S
C1811 H1819 0.929 . S
C1812 C1811 1.383 . S
C1812 C1813 1.377 . S
C1813 H1797 0.930 . S
C1813 C1812 1.377 . S
C1813 C1814 1.379 . S
C1814 H1798 0.931 . S
C1814 C1808 1.383 . S
C1814 C1813 1.379 . S
H1815 C1809 0.959 . S
H1816 C1809 0.961 . S
H1817 C1809 0.960 . S
H1818 C1810 0.930 . S
H1819 C1811 0.929 . S
H1820 C1828 0.929 . S
H1821 C1830 0.930 . S
H1822 C1832 0.930 . S
H1823 C1835 0.929 . S
H1824 C1838 0.930 . S
H1825 C1840 0.960 . S
H1826 C1840 0.960 . S
H1827 C1840 0.960 . S
C1828 H1820 0.929 . S
C1828 C1829 1.377 . S
C1828 C1830 1.384 . S
C1829 C1828 1.377 . S
C1829 C1835 1.390 . S
C1830 H1821 0.930 . S
C1830 C1828 1.384 . S
C1830 C1831 1.372 . S
C1831 C1830 1.372 . S
C1831 C1832 1.400 . S
C1831 C1836 1.490 . S
C1832 H1822 0.930 . S
C1832 C1831 1.400 . S
C1832 C1835 1.386 . S
H1833 C1849 0.930 . S
H1834 C1850 0.931 . S
C1835 H1823 0.929 . S
C1835 C1829 1.390 . S
C1835 C1832 1.386 . S
C1836 C1831 1.490 . S
C1836 C1838 1.395 . S
C1836 C1839 1.403 . S
H1837 C1843 0.930 . S
C1838 H1824 0.930 . S
C1838 C1836 1.395 . S
C1838 C1841 1.403 1_655 S
C1839 C1836 1.403 . S
C1839 C1840 1.524 . S
C1839 C1843 1.400 1_655 S
C1840 H1825 0.960 . S
C1840 H1826 0.960 . S
C1840 H1827 0.960 . S
C1840 C1839 1.524 . S
C1841 C1838 1.403 1_455 S
C1841 C1842 1.392 . S
C1841 C1845 1.495 . S
C1842 C1841 1.392 . S
C1842 C1843 1.385 . S
C1842 C1844 1.478 . S
C1843 H1837 0.930 . S
C1843 C1839 1.400 1_455 S
C1843 C1842 1.385 . S
C1844 C1842 1.478 . S
C1844 C1846 1.381 . S
C1844 C1850 1.383 . S
C1845 C1841 1.495 . S
C1845 H1851 0.959 . S
C1845 H1852 0.961 . S
C1845 H1853 0.960 . S
C1846 C1844 1.381 . S
C1846 C1847 1.394 . S
C1846 H1854 0.930 . S
C1847 C1846 1.394 . S
C1847 C1848 1.383 . S
C1847 H1855 0.929 . S
C1848 C1847 1.383 . S
C1848 C1849 1.377 . S
C1849 H1833 0.930 . S
C1849 C1848 1.377 . S
C1849 C1850 1.379 . S
C1850 H1834 0.931 . S
C1850 C1844 1.383 . S
C1850 C1849 1.379 . S
H1851 C1845 0.959 . S
H1852 C1845 0.961 . S
H1853 C1845 0.960 . S
H1854 C1846 0.930 . S
H1855 C1847 0.929 . S
H1856 C1864 0.929 . S
H1857 C1866 0.930 . S
H1858 C1868 0.930 . S
H1859 C1871 0.929 . S
H1860 C1874 0.930 . S
H1861 C1876 0.960 . S
H1862 C1876 0.960 . S
H1863 C1876 0.960 . S
C1864 H1856 0.929 . S
C1864 C1865 1.377 . S
C1864 C1866 1.384 . S
C1865 C1864 1.377 . S
C1865 C1871 1.390 . S
C1866 H1857 0.930 . S
C1866 C1864 1.384 . S
C1866 C1867 1.372 . S
C1867 C1866 1.372 . S
C1867 C1868 1.400 . S
C1867 C1872 1.490 . S
C1868 H1858 0.930 . S
C1868 C1867 1.400 . S
C1868 C1871 1.386 . S
H1869 C1885 0.930 . S
H1870 C1886 0.931 . S
C1871 H1859 0.929 . S
C1871 C1865 1.390 . S
C1871 C1868 1.386 . S
C1872 C1867 1.490 . S
C1872 C1874 1.395 . S
C1872 C1875 1.403 . S
H1873 C1879 0.930 . S
C1874 H1860 0.930 . S
C1874 C1872 1.395 . S
C1874 C1877 1.403 . S
C1875 C1872 1.403 . S
C1875 C1876 1.524 . S
C1875 C1879 1.400 . S
C1876 H1861 0.960 . S
C1876 H1862 0.960 . S
C1876 H1863 0.960 . S
C1876 C1875 1.524 . S
C1877 C1874 1.403 . S
C1877 C1878 1.392 . S
C1877 C1881 1.495 . S
C1878 C1877 1.392 . S
C1878 C1879 1.385 . S
C1878 C1880 1.478 . S
C1879 H1873 0.930 . S
C1879 C1875 1.400 . S
C1879 C1878 1.385 . S
C1880 C1878 1.478 . S
C1880 C1882 1.381 . S
C1880 C1886 1.383 . S
C1881 C1877 1.495 . S
C1881 H1887 0.959 . S
C1881 H1888 0.961 . S
C1881 H1889 0.960 . S
C1882 C1880 1.381 . S
C1882 C1883 1.394 . S
C1882 H1890 0.930 . S
C1883 C1882 1.394 . S
C1883 C1884 1.383 . S
C1883 H1891 0.929 . S
C1884 C1883 1.383 . S
C1884 C1885 1.377 . S
C1885 H1869 0.930 . S
C1885 C1884 1.377 . S
C1885 C1886 1.379 . S
C1886 H1870 0.931 . S
C1886 C1880 1.383 . S
C1886 C1885 1.379 . S
H1887 C1881 0.959 . S
H1888 C1881 0.961 . S
H1889 C1881 0.960 . S
H1890 C1882 0.930 . S
H1891 C1883 0.929 . S
H1892 C1900 0.929 . S
H1893 C1902 0.930 . S
H1894 C1904 0.930 . S
H1895 C1907 0.929 . S
H1896 C1910 0.930 . S
H1897 C1912 0.960 . S
H1898 C1912 0.960 . S
H1899 C1912 0.960 . S
C1900 H1892 0.929 . S
C1900 C1901 1.377 . S
C1900 C1902 1.384 . S
C1901 C1900 1.377 . S
C1901 C1907 1.390 . S
C1902 H1893 0.930 . S
C1902 C1900 1.384 . S
C1902 C1903 1.372 . S
C1903 C1902 1.372 . S
C1903 C1904 1.400 . S
C1903 C1908 1.490 . S
C1904 H1894 0.930 . S
C1904 C1903 1.400 . S
C1904 C1907 1.386 . S
H1905 C1921 0.930 . S
H1906 C1922 0.931 . S
C1907 H1895 0.929 . S
C1907 C1901 1.390 . S
C1907 C1904 1.386 . S
C1908 C1903 1.490 . S
C1908 C1910 1.395 . S
C1908 C1911 1.403 . S
H1909 C1915 0.930 . S
C1910 H1896 0.930 . S
C1910 C1908 1.395 . S
C1910 C1913 1.403 . S
C1911 C1908 1.403 . S
C1911 C1912 1.524 . S
C1911 C1915 1.400 . S
C1912 H1897 0.960 . S
C1912 H1898 0.960 . S
C1912 H1899 0.960 . S
C1912 C1911 1.524 . S
C1913 C1910 1.403 . S
C1913 C1914 1.392 . S
C1913 C1917 1.495 . S
C1914 C1913 1.392 . S
C1914 C1915 1.385 . S
C1914 C1916 1.478 . S
C1915 H1909 0.930 . S
C1915 C1911 1.400 . S
C1915 C1914 1.385 . S
C1916 C1914 1.478 . S
C1916 C1918 1.381 . S
C1916 C1922 1.383 . S
C1917 C1913 1.495 . S
C1917 H1923 0.959 . S
C1917 H1924 0.961 . S
C1917 H1925 0.960 . S
C1918 C1916 1.381 . S
C1918 C1919 1.394 . S
C1918 H1926 0.930 . S
C1919 C1918 1.394 . S
C1919 C1920 1.383 . S
C1919 H1927 0.929 . S
C1920 C1919 1.383 . S
C1920 C1921 1.377 . S
C1921 H1905 0.930 . S
C1921 C1920 1.377 . S
C1921 C1922 1.379 . S
C1922 H1906 0.931 . S
C1922 C1916 1.383 . S
C1922 C1921 1.379 . S
H1923 C1917 0.959 . S
H1924 C1917 0.961 . S
H1925 C1917 0.960 . S
H1926 C1918 0.930 . S
H1927 C1919 0.929 . S
H1928 C1936 0.929 . S
H1929 C1938 0.930 . S
H1930 C1940 0.930 . S
H1931 C1943 0.929 . S
H1932 C1946 0.930 . S
H1933 C1948 0.960 . S
H1934 C1948 0.960 . S
H1935 C1948 0.960 . S
C1936 H1928 0.929 . S
C1936 C1937 1.377 . S
C1936 C1938 1.384 . S
C1937 C1936 1.377 . S
C1937 C1943 1.390 . S
C1938 H1929 0.930 . S
C1938 C1936 1.384 . S
C1938 C1939 1.372 . S
C1939 C1938 1.372 . S
C1939 C1940 1.400 . S
C1939 C1944 1.490 . S
C1940 H1930 0.930 . S
C1940 C1939 1.400 . S
C1940 C1943 1.386 . S
H1941 C1957 0.930 . S
H1942 C1958 0.931 . S
C1943 H1931 0.929 . S
C1943 C1937 1.390 . S
C1943 C1940 1.386 . S
C1944 C1939 1.490 . S
C1944 C1946 1.395 . S
C1944 C1947 1.403 . S
H1945 C1951 0.930 . S
C1946 H1932 0.930 . S
C1946 C1944 1.395 . S
C1946 C1949 1.403 . S
C1947 C1944 1.403 . S
C1947 C1948 1.524 . S
C1947 C1951 1.400 . S
C1948 H1933 0.960 . S
C1948 H1934 0.960 . S
C1948 H1935 0.960 . S
C1948 C1947 1.524 . S
C1949 C1946 1.403 . S
C1949 C1950 1.392 . S
C1949 C1953 1.495 . S
C1950 C1949 1.392 . S
C1950 C1951 1.385 . S
C1950 C1952 1.478 . S
C1951 H1945 0.930 . S
C1951 C1947 1.400 . S
C1951 C1950 1.385 . S
C1952 C1950 1.478 . S
C1952 C1954 1.381 . S
C1952 C1958 1.383 . S
C1953 C1949 1.495 . S
C1953 H1959 0.959 . S
C1953 H1960 0.961 . S
C1953 H1961 0.960 . S
C1954 C1952 1.381 . S
C1954 C1955 1.394 . S
C1954 H1962 0.930 . S
C1955 C1954 1.394 . S
C1955 C1956 1.383 . S
C1955 H1963 0.929 . S
C1956 C1955 1.383 . S
C1956 C1957 1.377 . S
C1957 H1941 0.930 . S
C1957 C1956 1.377 . S
C1957 C1958 1.379 . S
C1958 H1942 0.931 . S
C1958 C1952 1.383 . S
C1958 C1957 1.379 . S
H1959 C1953 0.959 . S
H1960 C1953 0.961 . S
H1961 C1953 0.960 . S
H1962 C1954 0.930 . S
H1963 C1955 0.929 . S
H1964 C1972 0.929 . S
H1965 C1974 0.930 . S
H1966 C1976 0.930 . S
H1967 C1979 0.929 . S
H1968 C1982 0.930 . S
H1969 C1984 0.960 . S
H1970 C1984 0.960 . S
H1971 C1984 0.960 . S
C1972 H1964 0.929 . S
C1972 C1973 1.377 . S
C1972 C1974 1.384 . S
C1973 C1972 1.377 . S
C1973 C1979 1.390 . S
C1974 H1965 0.930 . S
C1974 C1972 1.384 . S
C1974 C1975 1.372 . S
C1975 C1974 1.372 . S
C1975 C1976 1.400 . S
C1975 C1980 1.490 . S
C1976 H1966 0.930 . S
C1976 C1975 1.400 . S
C1976 C1979 1.386 . S
H1977 C1993 0.930 . S
H1978 C1994 0.931 . S
C1979 H1967 0.929 . S
C1979 C1973 1.390 . S
C1979 C1976 1.386 . S
C1980 C1975 1.490 . S
C1980 C1982 1.395 . S
C1980 C1983 1.403 . S
H1981 C1987 0.930 . S
C1982 H1968 0.930 . S
C1982 C1980 1.395 . S
C1982 C1985 1.403 . S
C1983 C1980 1.403 . S
C1983 C1984 1.524 . S
C1983 C1987 1.400 . S
C1984 H1969 0.960 . S
C1984 H1970 0.960 . S
C1984 H1971 0.960 . S
C1984 C1983 1.524 . S
C1985 C1982 1.403 . S
C1985 C1986 1.392 . S
C1985 C1989 1.495 . S
C1986 C1985 1.392 . S
C1986 C1987 1.385 . S
C1986 C1988 1.478 . S
C1987 H1981 0.930 . S
C1987 C1983 1.400 . S
C1987 C1986 1.385 . S
C1988 C1986 1.478 . S
C1988 C1990 1.381 . S
C1988 C1994 1.383 . S
C1989 C1985 1.495 . S
C1989 H1995 0.959 . S
C1989 H1996 0.961 . S
C1989 H1997 0.960 . S
C1990 C1988 1.381 . S
C1990 C1991 1.394 . S
C1990 H1998 0.930 . S
C1991 C1990 1.394 . S
C1991 C1992 1.383 . S
C1991 H1999 0.929 . S
C1992 C1991 1.383 . S
C1992 C1993 1.377 . S
C1993 H1977 0.930 . S
C1993 C1992 1.377 . S
C1993 C1994 1.379 . S
C1994 H1978 0.931 . S
C1994 C1988 1.383 . S
C1994 C1993 1.379 . S
H1995 C1989 0.959 . S
H1996 C1989 0.961 . S
H1997 C1989 0.960 . S
H1998 C1990 0.930 . S
H1999 C1991 0.929 . S
H2000 C2008 0.929 . S
H2001 C2010 0.930 . S
H2002 C2012 0.930 . S
H2003 C2015 0.929 . S
H2004 C2018 0.930 . S
H2005 C2020 0.960 . S
H2006 C2020 0.960 . S
H2007 C2020 0.960 . S
C2008 H2000 0.929 . S
C2008 C2009 1.377 . S
C2008 C2010 1.384 . S
C2009 C2008 1.377 . S
C2009 C2015 1.390 . S
C2010 H2001 0.930 . S
C2010 C2008 1.384 . S
C2010 C2011 1.372 . S
C2011 C2010 1.372 . S
C2011 C2012 1.400 . S
C2011 C2016 1.490 . S
C2012 H2002 0.930 . S
C2012 C2011 1.400 . S
C2012 C2015 1.386 . S
H2013 C2029 0.930 . S
H2014 C2030 0.931 . S
C2015 H2003 0.929 . S
C2015 C2009 1.390 . S
C2015 C2012 1.386 . S
C2016 C2011 1.490 . S
C2016 C2018 1.395 . S
C2016 C2019 1.403 . S
H2017 C2023 0.930 . S
C2018 H2004 0.930 . S
C2018 C2016 1.395 . S
C2018 C2021 1.403 . S
C2019 C2016 1.403 . S
C2019 C2020 1.524 . S
C2019 C2023 1.400 . S
C2020 H2005 0.960 . S
C2020 H2006 0.960 . S
C2020 H2007 0.960 . S
C2020 C2019 1.524 . S
C2021 C2018 1.403 . S
C2021 C2022 1.392 . S
C2021 C2025 1.495 . S
C2022 C2021 1.392 . S
C2022 C2023 1.385 . S
C2022 C2024 1.478 . S
C2023 H2017 0.930 . S
C2023 C2019 1.400 . S
C2023 C2022 1.385 . S
C2024 C2022 1.478 . S
C2024 C2026 1.381 . S
C2024 C2030 1.383 . S
C2025 C2021 1.495 . S
C2025 H2031 0.959 . S
C2025 H2032 0.961 . S
C2025 H2033 0.960 . S
C2026 C2024 1.381 . S
C2026 C2027 1.394 . S
C2026 H2034 0.930 . S
C2027 C2026 1.394 . S
C2027 C2028 1.383 . S
C2027 H2035 0.929 . S
C2028 C2027 1.383 . S
C2028 C2029 1.377 . S
C2029 H2013 0.930 . S
C2029 C2028 1.377 . S
C2029 C2030 1.379 . S
C2030 H2014 0.931 . S
C2030 C2024 1.383 . S
C2030 C2029 1.379 . S
H2031 C2025 0.959 . S
H2032 C2025 0.961 . S
H2033 C2025 0.960 . S
H2034 C2026 0.930 . S
H2035 C2027 0.929 . S
H2036 C2044 0.929 . S
H2037 C2046 0.930 . S
H2038 C2048 0.930 . S
H2039 C2051 0.929 . S
H2040 C2054 0.930 . S
H2041 C2056 0.960 . S
H2042 C2056 0.960 . S
H2043 C2056 0.960 . S
C2044 H2036 0.929 . S
C2044 C2045 1.377 . S
C2044 C2046 1.384 . S
C2045 C2044 1.377 . S
C2045 C2051 1.390 . S
C2046 H2037 0.930 . S
C2046 C2044 1.384 . S
C2046 C2047 1.372 . S
C2047 C2046 1.372 . S
C2047 C2048 1.400 . S
C2047 C2052 1.490 . S
C2048 H2038 0.930 . S
C2048 C2047 1.400 . S
C2048 C2051 1.386 . S
H2049 C2065 0.930 . S
H2050 C2066 0.931 . S
C2051 H2039 0.929 . S
C2051 C2045 1.390 . S
C2051 C2048 1.386 . S
C2052 C2047 1.490 . S
C2052 C2054 1.395 . S
C2052 C2055 1.403 . S
H2053 C2059 0.930 . S
C2054 H2040 0.930 . S
C2054 C2052 1.395 . S
C2054 C2057 1.403 1_655 S
C2055 C2052 1.403 . S
C2055 C2056 1.524 . S
C2055 C2059 1.400 1_655 S
C2056 H2041 0.960 . S
C2056 H2042 0.960 . S
C2056 H2043 0.960 . S
C2056 C2055 1.524 . S
C2057 C2054 1.403 1_455 S
C2057 C2058 1.392 . S
C2057 C2061 1.495 . S
C2058 C2057 1.392 . S
C2058 C2059 1.385 . S
C2058 C2060 1.478 . S
C2059 H2053 0.930 . S
C2059 C2055 1.400 1_455 S
C2059 C2058 1.385 . S
C2060 C2058 1.478 . S
C2060 C2062 1.381 . S
C2060 C2066 1.383 . S
C2061 C2057 1.495 . S
C2061 H2067 0.959 . S
C2061 H2068 0.961 . S
C2061 H2069 0.960 . S
C2062 C2060 1.381 . S
C2062 C2063 1.394 . S
C2062 H2070 0.930 . S
C2063 C2062 1.394 . S
C2063 C2064 1.383 . S
C2063 H2071 0.929 . S
C2064 C2063 1.383 . S
C2064 C2065 1.377 . S
C2065 H2049 0.930 . S
C2065 C2064 1.377 . S
C2065 C2066 1.379 . S
C2066 H2050 0.931 . S
C2066 C2060 1.383 . S
C2066 C2065 1.379 . S
H2067 C2061 0.959 . S
H2068 C2061 0.961 . S
H2069 C2061 0.960 . S
H2070 C2062 0.930 . S
H2071 C2063 0.929 . S
H2072 C2080 0.929 . S
H2073 C2082 0.930 . S
H2074 C2084 0.930 . S
H2075 C2087 0.929 . S
H2076 C2090 0.930 . S
H2077 C2092 0.960 . S
H2078 C2092 0.960 . S
H2079 C2092 0.960 . S
C2080 H2072 0.929 . S
C2080 C2081 1.377 . S
C2080 C2082 1.384 . S
C2081 C2080 1.377 . S
C2081 C2087 1.390 . S
C2082 H2073 0.930 . S
C2082 C2080 1.384 . S
C2082 C2083 1.372 . S
C2083 C2082 1.372 . S
C2083 C2084 1.400 . S
C2083 C2088 1.490 . S
C2084 H2074 0.930 . S
C2084 C2083 1.400 . S
C2084 C2087 1.386 . S
H2085 C2101 0.930 . S
H2086 C2102 0.931 . S
C2087 H2075 0.929 . S
C2087 C2081 1.390 . S
C2087 C2084 1.386 . S
C2088 C2083 1.490 . S
C2088 C2090 1.395 . S
C2088 C2091 1.403 . S
H2089 C2095 0.930 . S
C2090 H2076 0.930 . S
C2090 C2088 1.395 . S
C2090 C2093 1.403 1_655 S
C2091 C2088 1.403 . S
C2091 C2092 1.524 . S
C2091 C2095 1.400 1_655 S
C2092 H2077 0.960 . S
C2092 H2078 0.960 . S
C2092 H2079 0.960 . S
C2092 C2091 1.524 . S
C2093 C2090 1.403 1_455 S
C2093 C2094 1.392 . S
C2093 C2097 1.495 . S
C2094 C2093 1.392 . S
C2094 C2095 1.385 . S
C2094 C2096 1.478 . S
C2095 H2089 0.930 . S
C2095 C2091 1.400 1_455 S
C2095 C2094 1.385 . S
C2096 C2094 1.478 . S
C2096 C2098 1.381 . S
C2096 C2102 1.383 . S
C2097 C2093 1.495 . S
C2097 H2103 0.959 . S
C2097 H2104 0.961 . S
C2097 H2105 0.960 . S
C2098 C2096 1.381 . S
C2098 C2099 1.394 . S
C2098 H2106 0.930 . S
C2099 C2098 1.394 . S
C2099 C2100 1.383 . S
C2099 H2107 0.929 . S
C2100 C2099 1.383 . S
C2100 C2101 1.377 . S
C2101 H2085 0.930 . S
C2101 C2100 1.377 . S
C2101 C2102 1.379 . S
C2102 H2086 0.931 . S
C2102 C2096 1.383 . S
C2102 C2101 1.379 . S
H2103 C2097 0.959 . S
H2104 C2097 0.961 . S
H2105 C2097 0.960 . S
H2106 C2098 0.930 . S
H2107 C2099 0.929 . S
H2108 C2116 0.929 . S
H2109 C2118 0.930 . S
H2110 C2120 0.930 . S
H2111 C2123 0.929 . S
H2112 C2126 0.930 . S
H2113 C2128 0.960 . S
H2114 C2128 0.960 . S
H2115 C2128 0.960 . S
C2116 H2108 0.929 . S
C2116 C2117 1.377 . S
C2116 C2118 1.384 . S
C2117 C2116 1.377 . S
C2117 C2123 1.390 . S
C2118 H2109 0.930 . S
C2118 C2116 1.384 . S
C2118 C2119 1.372 . S
C2119 C2118 1.372 . S
C2119 C2120 1.400 . S
C2119 C2124 1.490 . S
C2120 H2110 0.930 . S
C2120 C2119 1.400 . S
C2120 C2123 1.386 . S
H2121 C2137 0.930 . S
H2122 C2138 0.931 . S
C2123 H2111 0.929 . S
C2123 C2117 1.390 . S
C2123 C2120 1.386 . S
C2124 C2119 1.490 . S
C2124 C2126 1.395 . S
C2124 C2127 1.403 . S
H2125 C2131 0.930 . S
C2126 H2112 0.930 . S
C2126 C2124 1.395 . S
C2126 C2129 1.403 . S
C2127 C2124 1.403 . S
C2127 C2128 1.524 . S
C2127 C2131 1.400 . S
C2128 H2113 0.960 . S
C2128 H2114 0.960 . S
C2128 H2115 0.960 . S
C2128 C2127 1.524 . S
C2129 C2126 1.403 . S
C2129 C2130 1.392 . S
C2129 C2133 1.495 . S
C2130 C2129 1.392 . S
C2130 C2131 1.385 . S
C2130 C2132 1.478 . S
C2131 H2125 0.930 . S
C2131 C2127 1.400 . S
C2131 C2130 1.385 . S
C2132 C2130 1.478 . S
C2132 C2134 1.381 . S
C2132 C2138 1.383 . S
C2133 C2129 1.495 . S
C2133 H2139 0.959 . S
C2133 H2140 0.961 . S
C2133 H2141 0.960 . S
C2134 C2132 1.381 . S
C2134 C2135 1.394 . S
C2134 H2142 0.930 . S
C2135 C2134 1.394 . S
C2135 C2136 1.383 . S
C2135 H2143 0.929 . S
C2136 C2135 1.383 . S
C2136 C2137 1.377 . S
C2137 H2121 0.930 . S
C2137 C2136 1.377 . S
C2137 C2138 1.379 . S
C2138 H2122 0.931 . S
C2138 C2132 1.383 . S
C2138 C2137 1.379 . S
H2139 C2133 0.959 . S
H2140 C2133 0.961 . S
H2141 C2133 0.960 . S
H2142 C2134 0.930 . S
H2143 C2135 0.929 . S
H2144 C2152 0.929 . S
H2145 C2154 0.930 . S
H2146 C2156 0.930 . S
H2147 C2159 0.929 . S
H2148 C2162 0.930 . S
H2149 C2164 0.960 . S
H2150 C2164 0.960 . S
H2151 C2164 0.960 . S
C2152 H2144 0.929 . S
C2152 C2153 1.377 . S
C2152 C2154 1.384 . S
C2153 C2152 1.377 . S
C2153 C2159 1.390 . S
C2154 H2145 0.930 . S
C2154 C2152 1.384 . S
C2154 C2155 1.372 . S
C2155 C2154 1.372 . S
C2155 C2156 1.400 . S
C2155 C2160 1.490 . S
C2156 H2146 0.930 . S
C2156 C2155 1.400 . S
C2156 C2159 1.386 . S
H2157 C2173 0.930 . S
H2158 C2174 0.931 . S
C2159 H2147 0.929 . S
C2159 C2153 1.390 . S
C2159 C2156 1.386 . S
C2160 C2155 1.490 . S
C2160 C2162 1.395 . S
C2160 C2163 1.403 . S
H2161 C2167 0.930 . S
C2162 H2148 0.930 . S
C2162 C2160 1.395 . S
C2162 C2165 1.403 . S
C2163 C2160 1.403 . S
C2163 C2164 1.524 . S
C2163 C2167 1.400 . S
C2164 H2149 0.960 . S
C2164 H2150 0.960 . S
C2164 H2151 0.960 . S
C2164 C2163 1.524 . S
C2165 C2162 1.403 . S
C2165 C2166 1.392 . S
C2165 C2169 1.495 . S
C2166 C2165 1.392 . S
C2166 C2167 1.385 . S
C2166 C2168 1.478 . S
C2167 H2161 0.930 . S
C2167 C2163 1.400 . S
C2167 C2166 1.385 . S
C2168 C2166 1.478 . S
C2168 C2170 1.381 . S
C2168 C2174 1.383 . S
C2169 C2165 1.495 . S
C2169 H2175 0.959 . S
C2169 H2176 0.961 . S
C2169 H2177 0.960 . S
C2170 C2168 1.381 . S
C2170 C2171 1.394 . S
C2170 H2178 0.930 . S
C2171 C2170 1.394 . S
C2171 C2172 1.383 . S
C2171 H2179 0.929 . S
C2172 C2171 1.383 . S
C2172 C2173 1.377 . S
C2173 H2157 0.930 . S
C2173 C2172 1.377 . S
C2173 C2174 1.379 . S
C2174 H2158 0.931 . S
C2174 C2168 1.383 . S
C2174 C2173 1.379 . S
H2175 C2169 0.959 . S
H2176 C2169 0.961 . S
H2177 C2169 0.960 . S
H2178 C2170 0.930 . S
H2179 C2171 0.929 . S
H2180 C2188 0.929 . S
H2181 C2190 0.930 . S
H2182 C2192 0.930 . S
H2183 C2195 0.929 . S
H2184 C2198 0.930 . S
H2185 C2200 0.960 . S
H2186 C2200 0.960 . S
H2187 C2200 0.960 . S
C2188 H2180 0.929 . S
C2188 C2189 1.377 . S
C2188 C2190 1.384 . S
C2189 C2188 1.377 . S
C2189 C2195 1.390 . S
C2190 H2181 0.930 . S
C2190 C2188 1.384 . S
C2190 C2191 1.372 . S
C2191 C2190 1.372 . S
C2191 C2192 1.400 . S
C2191 C2196 1.490 . S
C2192 H2182 0.930 . S
C2192 C2191 1.400 . S
C2192 C2195 1.386 . S
H2193 C2209 0.930 . S
H2194 C2210 0.931 . S
C2195 H2183 0.929 . S
C2195 C2189 1.390 . S
C2195 C2192 1.386 . S
C2196 C2191 1.490 . S
C2196 C2198 1.395 1_565 S
C2196 C2199 1.403 . S
H2197 C2203 0.930 . S
C2198 H2184 0.930 . S
C2198 C2196 1.395 1_545 S
C2198 C2201 1.403 . S
C2199 C2196 1.403 . S
C2199 C2200 1.524 . S
C2199 C2203 1.400 . S
C2200 H2185 0.960 . S
C2200 H2186 0.960 . S
C2200 H2187 0.960 . S
C2200 C2199 1.524 . S
C2201 C2198 1.403 . S
C2201 C2202 1.392 . S
C2201 C2205 1.495 . S
C2202 C2201 1.392 . S
C2202 C2203 1.385 1_545 S
C2202 C2204 1.478 . S
C2203 H2197 0.930 . S
C2203 C2199 1.400 . S
C2203 C2202 1.385 1_565 S
C2204 C2202 1.478 . S
C2204 C2206 1.381 . S
C2204 C2210 1.383 . S
C2205 C2201 1.495 . S
C2205 H2211 0.959 . S
C2205 H2212 0.961 . S
C2205 H2213 0.960 . S
C2206 C2204 1.381 . S
C2206 C2207 1.394 . S
C2206 H2214 0.930 . S
C2207 C2206 1.394 . S
C2207 C2208 1.383 . S
C2207 H2215 0.929 . S
C2208 C2207 1.383 . S
C2208 C2209 1.377 . S
C2209 H2193 0.930 . S
C2209 C2208 1.377 . S
C2209 C2210 1.379 . S
C2210 H2194 0.931 . S
C2210 C2204 1.383 . S
C2210 C2209 1.379 . S
H2211 C2205 0.959 . S
H2212 C2205 0.961 . S
H2213 C2205 0.960 . S
H2214 C2206 0.930 . S
H2215 C2207 0.929 . S
H2216 C2224 0.929 . S
H2217 C2226 0.930 . S
H2218 C2228 0.930 . S
H2219 C2231 0.929 . S
H2220 C2234 0.930 . S
H2221 C2236 0.960 . S
H2222 C2236 0.960 . S
H2223 C2236 0.960 . S
C2224 H2216 0.929 . S
C2224 C2225 1.377 . S
C2224 C2226 1.384 . S
C2225 C2224 1.377 . S
C2225 C2231 1.390 . S
C2226 H2217 0.930 . S
C2226 C2224 1.384 . S
C2226 C2227 1.372 . S
C2227 C2226 1.372 . S
C2227 C2228 1.400 . S
C2227 C2232 1.490 . S
C2228 H2218 0.930 . S
C2228 C2227 1.400 . S
C2228 C2231 1.386 . S
H2229 C2245 0.930 . S
H2230 C2246 0.931 . S
C2231 H2219 0.929 . S
C2231 C2225 1.390 . S
C2231 C2228 1.386 . S
C2232 C2227 1.490 . S
C2232 C2234 1.395 . S
C2232 C2235 1.403 . S
H2233 C2239 0.930 . S
C2234 H2220 0.930 . S
C2234 C2232 1.395 . S
C2234 C2237 1.403 . S
C2235 C2232 1.403 . S
C2235 C2236 1.524 . S
C2235 C2239 1.400 . S
C2236 H2221 0.960 . S
C2236 H2222 0.960 . S
C2236 H2223 0.960 . S
C2236 C2235 1.524 . S
C2237 C2234 1.403 . S
C2237 C2238 1.392 . S
C2237 C2241 1.495 . S
C2238 C2237 1.392 . S
C2238 C2239 1.385 . S
C2238 C2240 1.478 . S
C2239 H2233 0.930 . S
C2239 C2235 1.400 . S
C2239 C2238 1.385 . S
C2240 C2238 1.478 . S
C2240 C2242 1.381 . S
C2240 C2246 1.383 . S
C2241 C2237 1.495 . S
C2241 H2247 0.959 . S
C2241 H2248 0.961 . S
C2241 H2249 0.960 . S
C2242 C2240 1.381 . S
C2242 C2243 1.394 . S
C2242 H2250 0.930 . S
C2243 C2242 1.394 . S
C2243 C2244 1.383 . S
C2243 H2251 0.929 . S
C2244 C2243 1.383 . S
C2244 C2245 1.377 . S
C2245 H2229 0.930 . S
C2245 C2244 1.377 . S
C2245 C2246 1.379 . S
C2246 H2230 0.931 . S
C2246 C2240 1.383 . S
C2246 C2245 1.379 . S
H2247 C2241 0.959 . S
H2248 C2241 0.961 . S
H2249 C2241 0.960 . S
H2250 C2242 0.930 . S
H2251 C2243 0.929 . S
H2252 C2260 0.929 . S
H2253 C2262 0.930 . S
H2254 C2264 0.930 . S
H2255 C2267 0.929 . S
H2256 C2270 0.930 . S
H2257 C2272 0.960 . S
H2258 C2272 0.960 1_556 S
H2259 C2272 0.960 1_556 S
C2260 H2252 0.929 . S
C2260 C2261 1.377 . S
C2260 C2262 1.384 . S
C2261 C2260 1.377 . S
C2261 C2267 1.390 . S
C2262 H2253 0.930 . S
C2262 C2260 1.384 . S
C2262 C2263 1.372 . S
C2263 C2262 1.372 . S
C2263 C2264 1.400 . S
C2263 C2268 1.490 1_556 S
C2264 H2254 0.930 . S
C2264 C2263 1.400 . S
C2264 C2267 1.386 . S
H2265 C2281 0.930 . S
H2266 C2282 0.931 . S
C2267 H2255 0.929 . S
C2267 C2261 1.390 . S
C2267 C2264 1.386 . S
C2268 C2263 1.490 1_554 S
C2268 C2270 1.395 . S
C2268 C2271 1.403 1_545 S
H2269 C2275 0.930 . S
C2270 H2256 0.930 . S
C2270 C2268 1.395 . S
C2270 C2273 1.403 . S
C2271 C2268 1.403 1_565 S
C2271 C2272 1.524 . S
C2271 C2275 1.400 . S
C2272 H2257 0.960 . S
C2272 H2258 0.960 1_554 S
C2272 H2259 0.960 1_554 S
C2272 C2271 1.524 . S
C2273 C2270 1.403 . S
C2273 C2274 1.392 1_545 S
C2273 C2277 1.495 . S
C2274 C2273 1.392 1_565 S
C2274 C2275 1.385 . S
C2274 C2276 1.478 . S
C2275 H2269 0.930 . S
C2275 C2271 1.400 . S
C2275 C2274 1.385 . S
C2276 C2274 1.478 . S
C2276 C2278 1.381 . S
C2276 C2282 1.383 . S
C2277 C2273 1.495 . S
C2277 H2283 0.959 . S
C2277 H2284 0.961 . S
C2277 H2285 0.960 . S
C2278 C2276 1.381 . S
C2278 C2279 1.394 . S
C2278 H2286 0.930 . S
C2279 C2278 1.394 . S
C2279 C2280 1.383 . S
C2279 H2287 0.929 . S
C2280 C2279 1.383 . S
C2280 C2281 1.377 . S
C2281 H2265 0.930 . S
C2281 C2280 1.377 . S
C2281 C2282 1.379 . S
C2282 H2266 0.931 . S
C2282 C2276 1.383 . S
C2282 C2281 1.379 . S
H2283 C2277 0.959 . S
H2284 C2277 0.961 . S
H2285 C2277 0.960 . S
H2286 C2278 0.930 . S
H2287 C2279 0.929 . S
H2288 C2296 0.929 . S
H2289 C2298 0.930 . S
H2290 C2300 0.930 . S
H2291 C2303 0.929 . S
H2292 C2306 0.930 . S
H2293 C2308 0.960 . S
H2294 C2308 0.960 . S
H2295 C2308 0.960 . S
C2296 H2288 0.929 . S
C2296 C2297 1.377 . S
C2296 C2298 1.384 . S
C2297 C2296 1.377 . S
C2297 C2303 1.390 . S
C2298 H2289 0.930 . S
C2298 C2296 1.384 . S
C2298 C2299 1.372 . S
C2299 C2298 1.372 . S
C2299 C2300 1.400 . S
C2299 C2304 1.490 . S
C2300 H2290 0.930 . S
C2300 C2299 1.400 . S
C2300 C2303 1.386 . S
H2301 C2317 0.930 . S
H2302 C2318 0.931 . S
C2303 H2291 0.929 . S
C2303 C2297 1.390 . S
C2303 C2300 1.386 . S
C2304 C2299 1.490 . S
C2304 C2306 1.395 . S
C2304 C2307 1.403 . S
H2305 C2311 0.930 . S
C2306 H2292 0.930 . S
C2306 C2304 1.395 . S
C2306 C2309 1.403 . S
C2307 C2304 1.403 . S
C2307 C2308 1.524 . S
C2307 C2311 1.400 . S
C2308 H2293 0.960 . S
C2308 H2294 0.960 . S
C2308 H2295 0.960 . S
C2308 C2307 1.524 . S
C2309 C2306 1.403 . S
C2309 C2310 1.392 . S
C2309 C2313 1.495 . S
C2310 C2309 1.392 . S
C2310 C2311 1.385 . S
C2310 C2312 1.478 . S
C2311 H2305 0.930 . S
C2311 C2307 1.400 . S
C2311 C2310 1.385 . S
C2312 C2310 1.478 . S
C2312 C2314 1.381 . S
C2312 C2318 1.383 . S
C2313 C2309 1.495 . S
C2313 H2319 0.959 . S
C2313 H2320 0.961 . S
C2313 H2321 0.960 . S
C2314 C2312 1.381 . S
C2314 C2315 1.394 . S
C2314 H2322 0.930 . S
C2315 C2314 1.394 . S
C2315 C2316 1.383 . S
C2315 H2323 0.929 . S
C2316 C2315 1.383 . S
C2316 C2317 1.377 . S
C2317 H2301 0.930 . S
C2317 C2316 1.377 . S
C2317 C2318 1.379 . S
C2318 H2302 0.931 . S
C2318 C2312 1.383 . S
C2318 C2317 1.379 . S
H2319 C2313 0.959 . S
H2320 C2313 0.961 . S
H2321 C2313 0.960 . S
H2322 C2314 0.930 . S
H2323 C2315 0.929 . S
H2324 C2332 0.929 . S
H2325 C2334 0.930 1_565 S
H2326 C2336 0.930 . S
H2327 C2339 0.929 . S
H2328 C2342 0.930 . S
H2329 C2344 0.960 . S
H2330 C2344 0.960 . S
H2331 C2344 0.960 . S
C2332 H2324 0.929 . S
C2332 C2333 1.377 . S
C2332 C2334 1.384 . S
C2333 C2332 1.377 . S
C2333 C2339 1.390 . S
C2334 H2325 0.930 1_545 S
C2334 C2332 1.384 . S
C2334 C2335 1.372 . S
C2335 C2334 1.372 . S
C2335 C2336 1.400 . S
C2335 C2340 1.490 . S
C2336 H2326 0.930 . S
C2336 C2335 1.400 . S
C2336 C2339 1.386 . S
H2337 C2353 0.930 . S
H2338 C2354 0.931 . S
C2339 H2327 0.929 . S
C2339 C2333 1.390 . S
C2339 C2336 1.386 . S
C2340 C2335 1.490 . S
C2340 C2342 1.395 1_545 S
C2340 C2343 1.403 . S
H2341 C2347 0.930 . S
C2342 H2328 0.930 . S
C2342 C2340 1.395 1_565 S
C2342 C2345 1.403 . S
C2343 C2340 1.403 . S
C2343 C2344 1.524 . S
C2343 C2347 1.400 . S
C2344 H2329 0.960 . S
C2344 H2330 0.960 . S
C2344 H2331 0.960 . S
C2344 C2343 1.524 . S
C2345 C2342 1.403 . S
C2345 C2346 1.392 . S
C2345 C2349 1.495 . S
C2346 C2345 1.392 . S
C2346 C2347 1.385 1_565 S
C2346 C2348 1.478 . S
C2347 H2341 0.930 . S
C2347 C2343 1.400 . S
C2347 C2346 1.385 1_545 S
C2348 C2346 1.478 . S
C2348 C2350 1.381 . S
C2348 C2354 1.383 . S
C2349 C2345 1.495 . S
C2349 H2355 0.959 . S
C2349 H2356 0.961 . S
C2349 H2357 0.960 . S
C2350 C2348 1.381 . S
C2350 C2351 1.394 . S
C2350 H2358 0.930 . S
C2351 C2350 1.394 . S
C2351 C2352 1.383 . S
C2351 H2359 0.929 . S
C2352 C2351 1.383 . S
C2352 C2353 1.377 . S
C2353 H2337 0.930 . S
C2353 C2352 1.377 . S
C2353 C2354 1.379 . S
C2354 H2338 0.931 . S
C2354 C2348 1.383 . S
C2354 C2353 1.379 . S
H2355 C2349 0.959 . S
H2356 C2349 0.961 . S
H2357 C2349 0.960 . S
H2358 C2350 0.930 . S
H2359 C2351 0.929 . S
H2360 C2368 0.929 . S
H2361 C2370 0.930 . S
H2362 C2372 0.930 . S
H2363 C2375 0.929 . S
H2364 C2378 0.930 . S
H2365 C2380 0.960 . S
H2366 C2380 0.960 . S
H2367 C2380 0.960 . S
C2368 H2360 0.929 . S
C2368 C2369 1.377 . S
C2368 C2370 1.384 . S
C2369 C2368 1.377 . S
C2369 C2375 1.390 . S
C2370 H2361 0.930 . S
C2370 C2368 1.384 . S
C2370 C2371 1.372 . S
C2371 C2370 1.372 . S
C2371 C2372 1.400 . S
C2371 C2376 1.490 . S
C2372 H2362 0.930 . S
C2372 C2371 1.400 . S
C2372 C2375 1.386 . S
H2373 C2389 0.930 . S
H2374 C2390 0.931 . S
C2375 H2363 0.929 . S
C2375 C2369 1.390 . S
C2375 C2372 1.386 . S
C2376 C2371 1.490 . S
C2376 C2378 1.395 . S
C2376 C2379 1.403 . S
H2377 C2383 0.930 . S
C2378 H2364 0.930 . S
C2378 C2376 1.395 . S
C2378 C2381 1.403 . S
C2379 C2376 1.403 . S
C2379 C2380 1.524 . S
C2379 C2383 1.400 . S
C2380 H2365 0.960 . S
C2380 H2366 0.960 . S
C2380 H2367 0.960 . S
C2380 C2379 1.524 . S
C2381 C2378 1.403 . S
C2381 C2382 1.392 . S
C2381 C2385 1.495 . S
C2382 C2381 1.392 . S
C2382 C2383 1.385 . S
C2382 C2384 1.478 . S
C2383 H2377 0.930 . S
C2383 C2379 1.400 . S
C2383 C2382 1.385 . S
C2384 C2382 1.478 . S
C2384 C2386 1.381 . S
C2384 C2390 1.383 . S
C2385 C2381 1.495 . S
C2385 H2391 0.959 . S
C2385 H2392 0.961 . S
C2385 H2393 0.960 . S
C2386 C2384 1.381 . S
C2386 C2387 1.394 . S
C2386 H2394 0.930 . S
C2387 C2386 1.394 . S
C2387 C2388 1.383 . S
C2387 H2395 0.929 . S
C2388 C2387 1.383 . S
C2388 C2389 1.377 . S
C2389 H2373 0.930 . S
C2389 C2388 1.377 . S
C2389 C2390 1.379 . S
C2390 H2374 0.931 . S
C2390 C2384 1.383 . S
C2390 C2389 1.379 . S
H2391 C2385 0.959 . S
H2392 C2385 0.961 . S
H2393 C2385 0.960 . S
H2394 C2386 0.930 . S
H2395 C2387 0.929 . S
H2396 C2404 0.929 . S
H2397 C2406 0.930 . S
H2398 C2408 0.930 . S
H2399 C2411 0.929 . S
H2400 C2414 0.930 . S
H2401 C2416 0.960 . S
H2402 C2416 0.960 . S
H2403 C2416 0.960 . S
C2404 H2396 0.929 . S
C2404 C2405 1.377 . S
C2404 C2406 1.384 . S
C2405 C2404 1.377 . S
C2405 C2411 1.390 . S
C2406 H2397 0.930 . S
C2406 C2404 1.384 . S
C2406 C2407 1.372 . S
C2407 C2406 1.372 . S
C2407 C2408 1.400 . S
C2407 C2412 1.490 . S
C2408 H2398 0.930 . S
C2408 C2407 1.400 . S
C2408 C2411 1.386 . S
H2409 C2425 0.930 . S
H2410 C2426 0.931 . S
C2411 H2399 0.929 . S
C2411 C2405 1.390 . S
C2411 C2408 1.386 . S
C2412 C2407 1.490 . S
C2412 C2414 1.395 . S
C2412 C2415 1.403 1_565 S
H2413 C2419 0.930 . S
C2414 H2400 0.930 . S
C2414 C2412 1.395 . S
C2414 C2417 1.403 . S
C2415 C2412 1.403 1_545 S
C2415 C2416 1.524 . S
C2415 C2419 1.400 . S
C2416 H2401 0.960 . S
C2416 H2402 0.960 . S
C2416 H2403 0.960 . S
C2416 C2415 1.524 . S
C2417 C2414 1.403 . S
C2417 C2418 1.392 1_565 S
C2417 C2421 1.495 . S
C2418 C2417 1.392 1_545 S
C2418 C2419 1.385 . S
C2418 C2420 1.478 1_554 S
C2419 H2413 0.930 . S
C2419 C2415 1.400 . S
C2419 C2418 1.385 . S
C2420 C2418 1.478 1_556 S
C2420 C2422 1.381 . S
C2420 C2426 1.383 . S
C2421 C2417 1.495 . S
C2421 H2427 0.959 . S
C2421 H2428 0.961 1_554 S
C2421 H2429 0.960 1_554 S
C2422 C2420 1.381 . S
C2422 C2423 1.394 . S
C2422 H2430 0.930 . S
C2423 C2422 1.394 . S
C2423 C2424 1.383 . S
C2423 H2431 0.929 . S
C2424 C2423 1.383 . S
C2424 C2425 1.377 . S
C2425 H2409 0.930 . S
C2425 C2424 1.377 . S
C2425 C2426 1.379 . S
C2426 H2410 0.931 . S
C2426 C2420 1.383 . S
C2426 C2425 1.379 . S
H2427 C2421 0.959 . S
H2428 C2421 0.961 1_556 S
H2429 C2421 0.960 1_556 S
H2430 C2422 0.930 . S
H2431 C2423 0.929 . S
H2432 C2440 0.929 . S
H2433 C2442 0.930 . S
H2434 C2444 0.930 . S
H2435 C2447 0.929 . S
H2436 C2450 0.930 . S
H2437 C2452 0.960 . S
H2438 C2452 0.960 . S
H2439 C2452 0.960 . S
C2440 H2432 0.929 . S
C2440 C2441 1.377 . S
C2440 C2442 1.384 . S
C2441 C2440 1.377 . S
C2441 C2447 1.390 . S
C2442 H2433 0.930 . S
C2442 C2440 1.384 . S
C2442 C2443 1.372 . S
C2443 C2442 1.372 . S
C2443 C2444 1.400 . S
C2443 C2448 1.490 . S
C2444 H2434 0.930 . S
C2444 C2443 1.400 . S
C2444 C2447 1.386 . S
H2445 C2461 0.930 . S
H2446 C2462 0.931 . S
C2447 H2435 0.929 . S
C2447 C2441 1.390 . S
C2447 C2444 1.386 . S
C2448 C2443 1.490 . S
C2448 C2450 1.395 . S
C2448 C2451 1.403 . S
H2449 C2455 0.930 . S
C2450 H2436 0.930 . S
C2450 C2448 1.395 . S
C2450 C2453 1.403 . S
C2451 C2448 1.403 . S
C2451 C2452 1.524 . S
C2451 C2455 1.400 . S
C2452 H2437 0.960 . S
C2452 H2438 0.960 . S
C2452 H2439 0.960 . S
C2452 C2451 1.524 . S
C2453 C2450 1.403 . S
C2453 C2454 1.392 . S
C2453 C2457 1.495 . S
C2454 C2453 1.392 . S
C2454 C2455 1.385 . S
C2454 C2456 1.478 . S
C2455 H2449 0.930 . S
C2455 C2451 1.400 . S
C2455 C2454 1.385 . S
C2456 C2454 1.478 . S
C2456 C2458 1.381 . S
C2456 C2462 1.383 . S
C2457 C2453 1.495 . S
C2457 H2463 0.959 . S
C2457 H2464 0.961 . S
C2457 H2465 0.960 . S
C2458 C2456 1.381 . S
C2458 C2459 1.394 . S
C2458 H2466 0.930 . S
C2459 C2458 1.394 . S
C2459 C2460 1.383 . S
C2459 H2467 0.929 . S
C2460 C2459 1.383 . S
C2460 C2461 1.377 . S
C2461 H2445 0.930 . S
C2461 C2460 1.377 . S
C2461 C2462 1.379 . S
C2462 H2446 0.931 . S
C2462 C2456 1.383 . S
C2462 C2461 1.379 . S
H2463 C2457 0.959 . S
H2464 C2457 0.961 . S
H2465 C2457 0.960 . S
H2466 C2458 0.930 . S
H2467 C2459 0.929 . S
H2468 C2476 0.929 . S
H2469 C2478 0.930 . S
H2470 C2480 0.930 . S
H2471 C2483 0.929 . S
H2472 C2486 0.930 . S
H2473 C2488 0.960 . S
H2474 C2488 0.960 . S
H2475 C2488 0.960 . S
C2476 H2468 0.929 . S
C2476 C2477 1.377 . S
C2476 C2478 1.384 . S
C2477 C2476 1.377 . S
C2477 C2483 1.390 . S
C2478 H2469 0.930 . S
C2478 C2476 1.384 . S
C2478 C2479 1.372 . S
C2479 C2478 1.372 . S
C2479 C2480 1.400 . S
C2479 C2484 1.490 . S
C2480 H2470 0.930 . S
C2480 C2479 1.400 . S
C2480 C2483 1.386 . S
H2481 C2497 0.930 . S
H2482 C2498 0.931 . S
C2483 H2471 0.929 . S
C2483 C2477 1.390 . S
C2483 C2480 1.386 . S
C2484 C2479 1.490 . S
C2484 C2486 1.395 . S
C2484 C2487 1.403 . S
H2485 C2491 0.930 . S
C2486 H2472 0.930 . S
C2486 C2484 1.395 . S
C2486 C2489 1.403 . S
C2487 C2484 1.403 . S
C2487 C2488 1.524 . S
C2487 C2491 1.400 . S
C2488 H2473 0.960 . S
C2488 H2474 0.960 . S
C2488 H2475 0.960 . S
C2488 C2487 1.524 . S
C2489 C2486 1.403 . S
C2489 C2490 1.392 . S
C2489 C2493 1.495 . S
C2490 C2489 1.392 . S
C2490 C2491 1.385 . S
C2490 C2492 1.478 1_554 S
C2491 H2485 0.930 . S
C2491 C2487 1.400 . S
C2491 C2490 1.385 . S
C2492 C2490 1.478 1_556 S
C2492 C2494 1.381 . S
C2492 C2498 1.383 . S
C2493 C2489 1.495 . S
C2493 H2499 0.959 . S
C2493 H2500 0.961 . S
C2493 H2501 0.960 . S
C2494 C2492 1.381 . S
C2494 C2495 1.394 . S
C2494 H2502 0.930 . S
C2495 C2494 1.394 . S
C2495 C2496 1.383 . S
C2495 H2503 0.929 . S
C2496 C2495 1.383 . S
C2496 C2497 1.377 . S
C2497 H2481 0.930 . S
C2497 C2496 1.377 . S
C2497 C2498 1.379 . S
C2498 H2482 0.931 . S
C2498 C2492 1.383 . S
C2498 C2497 1.379 . S
H2499 C2493 0.959 . S
H2500 C2493 0.961 . S
H2501 C2493 0.960 . S
H2502 C2494 0.930 . S
H2503 C2495 0.929 . S
H2504 C2512 0.929 . S
H2505 C2514 0.930 . S
H2506 C2516 0.930 . S
H2507 C2519 0.929 . S
H2508 C2522 0.930 . S
H2509 C2524 0.960 . S
H2510 C2524 0.960 . S
H2511 C2524 0.960 . S
C2512 H2504 0.929 . S
C2512 C2513 1.377 . S
C2512 C2514 1.384 . S
C2513 C2512 1.377 . S
C2513 C2519 1.390 . S
C2514 H2505 0.930 . S
C2514 C2512 1.384 . S
C2514 C2515 1.372 . S
C2515 C2514 1.372 . S
C2515 C2516 1.400 . S
C2515 C2520 1.490 . S
C2516 H2506 0.930 . S
C2516 C2515 1.400 . S
C2516 C2519 1.386 . S
H2517 C2533 0.930 . S
H2518 C2534 0.931 . S
C2519 H2507 0.929 . S
C2519 C2513 1.390 . S
C2519 C2516 1.386 . S
C2520 C2515 1.490 . S
C2520 C2522 1.395 . S
C2520 C2523 1.403 . S
H2521 C2527 0.930 . S
C2522 H2508 0.930 . S
C2522 C2520 1.395 . S
C2522 C2525 1.403 . S
C2523 C2520 1.403 . S
C2523 C2524 1.524 . S
C2523 C2527 1.400 . S
C2524 H2509 0.960 . S
C2524 H2510 0.960 . S
C2524 H2511 0.960 . S
C2524 C2523 1.524 . S
C2525 C2522 1.403 . S
C2525 C2526 1.392 . S
C2525 C2529 1.495 . S
C2526 C2525 1.392 . S
C2526 C2527 1.385 . S
C2526 C2528 1.478 . S
C2527 H2521 0.930 . S
C2527 C2523 1.400 . S
C2527 C2526 1.385 . S
C2528 C2526 1.478 . S
C2528 C2530 1.381 . S
C2528 C2534 1.383 . S
C2529 C2525 1.495 . S
C2529 H2535 0.959 . S
C2529 H2536 0.961 . S
C2529 H2537 0.960 . S
C2530 C2528 1.381 . S
C2530 C2531 1.394 . S
C2530 H2538 0.930 . S
C2531 C2530 1.394 . S
C2531 C2532 1.383 . S
C2531 H2539 0.929 . S
C2532 C2531 1.383 . S
C2532 C2533 1.377 . S
C2533 H2517 0.930 . S
C2533 C2532 1.377 . S
C2533 C2534 1.379 . S
C2534 H2518 0.931 . S
C2534 C2528 1.383 . S
C2534 C2533 1.379 . S
H2535 C2529 0.959 . S
H2536 C2529 0.961 . S
H2537 C2529 0.960 . S
H2538 C2530 0.930 . S
H2539 C2531 0.929 . S
H2540 C2548 0.929 . S
H2541 C2550 0.930 . S
H2542 C2552 0.930 . S
H2543 C2555 0.929 . S
H2544 C2558 0.930 . S
H2545 C2560 0.960 . S
H2546 C2560 0.960 . S
H2547 C2560 0.960 . S
C2548 H2540 0.929 . S
C2548 C2549 1.377 . S
C2548 C2550 1.384 . S
C2549 C2548 1.377 . S
C2549 C2555 1.390 . S
C2550 H2541 0.930 . S
C2550 C2548 1.384 . S
C2550 C2551 1.372 . S
C2551 C2550 1.372 . S
C2551 C2552 1.400 . S
C2551 C2556 1.490 . S
C2552 H2542 0.930 . S
C2552 C2551 1.400 . S
C2552 C2555 1.386 . S
H2553 C2569 0.930 . S
H2554 C2570 0.931 . S
C2555 H2543 0.929 . S
C2555 C2549 1.390 . S
C2555 C2552 1.386 . S
C2556 C2551 1.490 . S
C2556 C2558 1.395 . S
C2556 C2559 1.403 . S
H2557 C2563 0.930 . S
C2558 H2544 0.930 . S
C2558 C2556 1.395 . S
C2558 C2561 1.403 . S
C2559 C2556 1.403 . S
C2559 C2560 1.524 . S
C2559 C2563 1.400 . S
C2560 H2545 0.960 . S
C2560 H2546 0.960 . S
C2560 H2547 0.960 . S
C2560 C2559 1.524 . S
C2561 C2558 1.403 . S
C2561 C2562 1.392 . S
C2561 C2565 1.495 . S
C2562 C2561 1.392 . S
C2562 C2563 1.385 . S
C2562 C2564 1.478 . S
C2563 H2557 0.930 . S
C2563 C2559 1.400 . S
C2563 C2562 1.385 . S
C2564 C2562 1.478 . S
C2564 C2566 1.381 . S
C2564 C2570 1.383 . S
C2565 C2561 1.495 . S
C2565 H2571 0.959 . S
C2565 H2572 0.961 . S
C2565 H2573 0.960 . S
C2566 C2564 1.381 . S
C2566 C2567 1.394 . S
C2566 H2574 0.930 . S
C2567 C2566 1.394 . S
C2567 C2568 1.383 . S
C2567 H2575 0.929 . S
C2568 C2567 1.383 . S
C2568 C2569 1.377 . S
C2569 H2553 0.930 . S
C2569 C2568 1.377 . S
C2569 C2570 1.379 . S
C2570 H2554 0.931 . S
C2570 C2564 1.383 . S
C2570 C2569 1.379 . S
H2571 C2565 0.959 . S
H2572 C2565 0.961 . S
H2573 C2565 0.960 . S
H2574 C2566 0.930 . S
H2575 C2567 0.929 . S
H2576 C2584 0.929 . S
H2577 C2586 0.930 . S
H2578 C2588 0.930 . S
H2579 C2591 0.929 . S
H2580 C2594 0.930 . S
H2581 C2596 0.960 . S
H2582 C2596 0.960 . S
H2583 C2596 0.960 . S
C2584 H2576 0.929 . S
C2584 C2585 1.377 . S
C2584 C2586 1.384 . S
C2585 C2584 1.377 . S
C2585 C2591 1.390 . S
C2586 H2577 0.930 . S
C2586 C2584 1.384 . S
C2586 C2587 1.372 . S
C2587 C2586 1.372 . S
C2587 C2588 1.400 . S
C2587 C2592 1.490 . S
C2588 H2578 0.930 . S
C2588 C2587 1.400 . S
C2588 C2591 1.386 . S
H2589 C2605 0.930 . S
H2590 C2606 0.931 . S
C2591 H2579 0.929 . S
C2591 C2585 1.390 . S
C2591 C2588 1.386 . S
C2592 C2587 1.490 . S
C2592 C2594 1.395 . S
C2592 C2595 1.403 . S
H2593 C2599 0.930 . S
C2594 H2580 0.930 . S
C2594 C2592 1.395 . S
C2594 C2597 1.403 . S
C2595 C2592 1.403 . S
C2595 C2596 1.524 . S
C2595 C2599 1.400 . S
C2596 H2581 0.960 . S
C2596 H2582 0.960 . S
C2596 H2583 0.960 . S
C2596 C2595 1.524 . S
C2597 C2594 1.403 . S
C2597 C2598 1.392 . S
C2597 C2601 1.495 . S
C2598 C2597 1.392 . S
C2598 C2599 1.385 . S
C2598 C2600 1.478 . S
C2599 H2593 0.930 . S
C2599 C2595 1.400 . S
C2599 C2598 1.385 . S
C2600 C2598 1.478 . S
C2600 C2602 1.381 . S
C2600 C2606 1.383 . S
C2601 C2597 1.495 . S
C2601 H2607 0.959 . S
C2601 H2608 0.961 . S
C2601 H2609 0.960 . S
C2602 C2600 1.381 . S
C2602 C2603 1.394 . S
C2602 H2610 0.930 . S
C2603 C2602 1.394 . S
C2603 C2604 1.383 . S
C2603 H2611 0.929 . S
C2604 C2603 1.383 . S
C2604 C2605 1.377 . S
C2605 H2589 0.930 . S
C2605 C2604 1.377 . S
C2605 C2606 1.379 . S
C2606 H2590 0.931 . S
C2606 C2600 1.383 . S
C2606 C2605 1.379 . S
H2607 C2601 0.959 . S
H2608 C2601 0.961 . S
H2609 C2601 0.960 . S
H2610 C2602 0.930 . S
H2611 C2603 0.929 . S
H2612 C2620 0.929 . S
H2613 C2622 0.930 . S
H2614 C2624 0.930 . S
H2615 C2627 0.929 . S
H2616 C2630 0.930 . S
H2617 C2632 0.960 . S
H2618 C2632 0.960 . S
H2619 C2632 0.960 . S
C2620 H2612 0.929 . S
C2620 C2621 1.377 . S
C2620 C2622 1.384 . S
C2621 C2620 1.377 . S
C2621 C2627 1.390 . S
C2622 H2613 0.930 . S
C2622 C2620 1.384 . S
C2622 C2623 1.372 . S
C2623 C2622 1.372 . S
C2623 C2624 1.400 . S
C2623 C2628 1.490 1_556 S
C2624 H2614 0.930 . S
C2624 C2623 1.400 . S
C2624 C2627 1.386 . S
H2625 C2641 0.930 . S
H2626 C2642 0.931 . S
C2627 H2615 0.929 . S
C2627 C2621 1.390 . S
C2627 C2624 1.386 . S
C2628 C2623 1.490 1_554 S
C2628 C2630 1.395 . S
C2628 C2631 1.403 . S
H2629 C2635 0.930 . S
C2630 H2616 0.930 . S
C2630 C2628 1.395 . S
C2630 C2633 1.403 . S
C2631 C2628 1.403 . S
C2631 C2632 1.524 . S
C2631 C2635 1.400 . S
C2632 H2617 0.960 . S
C2632 H2618 0.960 . S
C2632 H2619 0.960 . S
C2632 C2631 1.524 . S
C2633 C2630 1.403 . S
C2633 C2634 1.392 . S
C2633 C2637 1.495 . S
C2634 C2633 1.392 . S
C2634 C2635 1.385 . S
C2634 C2636 1.478 . S
C2635 H2629 0.930 . S
C2635 C2631 1.400 . S
C2635 C2634 1.385 . S
C2636 C2634 1.478 . S
C2636 C2638 1.381 . S
C2636 C2642 1.383 . S
C2637 C2633 1.495 . S
C2637 H2643 0.959 . S
C2637 H2644 0.961 . S
C2637 H2645 0.960 . S
C2638 C2636 1.381 . S
C2638 C2639 1.394 . S
C2638 H2646 0.930 . S
C2639 C2638 1.394 . S
C2639 C2640 1.383 . S
C2639 H2647 0.929 . S
C2640 C2639 1.383 . S
C2640 C2641 1.377 . S
C2641 H2625 0.930 . S
C2641 C2640 1.377 . S
C2641 C2642 1.379 . S
C2642 H2626 0.931 . S
C2642 C2636 1.383 . S
C2642 C2641 1.379 . S
H2643 C2637 0.959 . S
H2644 C2637 0.961 . S
H2645 C2637 0.960 . S
H2646 C2638 0.930 . S
H2647 C2639 0.929 . S
H2648 C2656 0.929 . S
H2649 C2658 0.930 . S
H2650 C2660 0.930 . S
H2651 C2663 0.929 . S
H2652 C2666 0.930 . S
H2653 C2668 0.960 . S
H2654 C2668 0.960 . S
H2655 C2668 0.960 . S
C2656 H2648 0.929 . S
C2656 C2657 1.377 . S
C2656 C2658 1.384 . S
C2657 C2656 1.377 . S
C2657 C2663 1.390 . S
C2658 H2649 0.930 . S
C2658 C2656 1.384 . S
C2658 C2659 1.372 . S
C2659 C2658 1.372 . S
C2659 C2660 1.400 . S
C2659 C2664 1.490 . S
C2660 H2650 0.930 . S
C2660 C2659 1.400 . S
C2660 C2663 1.386 . S
H2661 C2677 0.930 . S
H2662 C2678 0.931 . S
C2663 H2651 0.929 . S
C2663 C2657 1.390 . S
C2663 C2660 1.386 . S
C2664 C2659 1.490 . S
C2664 C2666 1.395 . S
C2664 C2667 1.403 . S
H2665 C2671 0.930 . S
C2666 H2652 0.930 . S
C2666 C2664 1.395 . S
C2666 C2669 1.403 . S
C2667 C2664 1.403 . S
C2667 C2668 1.524 . S
C2667 C2671 1.400 . S
C2668 H2653 0.960 . S
C2668 H2654 0.960 . S
C2668 H2655 0.960 . S
C2668 C2667 1.524 . S
C2669 C2666 1.403 . S
C2669 C2670 1.392 . S
C2669 C2673 1.495 . S
C2670 C2669 1.392 . S
C2670 C2671 1.385 . S
C2670 C2672 1.478 . S
C2671 H2665 0.930 . S
C2671 C2667 1.400 . S
C2671 C2670 1.385 . S
C2672 C2670 1.478 . S
C2672 C2674 1.381 . S
C2672 C2678 1.383 . S
C2673 C2669 1.495 . S
C2673 H2679 0.959 . S
C2673 H2680 0.961 . S
C2673 H2681 0.960 . S
C2674 C2672 1.381 . S
C2674 C2675 1.394 . S
C2674 H2682 0.930 . S
C2675 C2674 1.394 . S
C2675 C2676 1.383 . S
C2675 H2683 0.929 . S
C2676 C2675 1.383 . S
C2676 C2677 1.377 . S
C2677 H2661 0.930 . S
C2677 C2676 1.377 . S
C2677 C2678 1.379 . S
C2678 H2662 0.931 . S
C2678 C2672 1.383 . S
C2678 C2677 1.379 . S
H2679 C2673 0.959 . S
H2680 C2673 0.961 . S
H2681 C2673 0.960 . S
H2682 C2674 0.930 . S
H2683 C2675 0.929 . S
H2684 C2692 0.929 . S
H2685 C2694 0.930 . S
H2686 C2696 0.930 . S
H2687 C2699 0.929 . S
H2688 C2702 0.930 . S
H2689 C2704 0.960 . S
H2690 C2704 0.960 . S
H2691 C2704 0.960 . S
C2692 H2684 0.929 . S
C2692 C2693 1.377 . S
C2692 C2694 1.384 . S
C2693 C2692 1.377 . S
C2693 C2699 1.390 . S
C2694 H2685 0.930 . S
C2694 C2692 1.384 . S
C2694 C2695 1.372 . S
C2695 C2694 1.372 . S
C2695 C2696 1.400 . S
C2695 C2700 1.490 . S
C2696 H2686 0.930 . S
C2696 C2695 1.400 . S
C2696 C2699 1.386 . S
H2697 C2713 0.930 . S
H2698 C2714 0.931 . S
C2699 H2687 0.929 . S
C2699 C2693 1.390 . S
C2699 C2696 1.386 . S
C2700 C2695 1.490 . S
C2700 C2702 1.395 . S
C2700 C2703 1.403 . S
H2701 C2707 0.930 . S
C2702 H2688 0.930 . S
C2702 C2700 1.395 . S
C2702 C2705 1.403 . S
C2703 C2700 1.403 . S
C2703 C2704 1.524 . S
C2703 C2707 1.400 . S
C2704 H2689 0.960 . S
C2704 H2690 0.960 . S
C2704 H2691 0.960 . S
C2704 C2703 1.524 . S
C2705 C2702 1.403 . S
C2705 C2706 1.392 . S
C2705 C2709 1.495 . S
C2706 C2705 1.392 . S
C2706 C2707 1.385 . S
C2706 C2708 1.478 . S
C2707 H2701 0.930 . S
C2707 C2703 1.400 . S
C2707 C2706 1.385 . S
C2708 C2706 1.478 . S
C2708 C2710 1.381 . S
C2708 C2714 1.383 . S
C2709 C2705 1.495 . S
C2709 H2715 0.959 . S
C2709 H2716 0.961 . S
C2709 H2717 0.960 . S
C2710 C2708 1.381 . S
C2710 C2711 1.394 . S
C2710 H2718 0.930 . S
C2711 C2710 1.394 . S
C2711 C2712 1.383 . S
C2711 H2719 0.929 . S
C2712 C2711 1.383 . S
C2712 C2713 1.377 . S
C2713 H2697 0.930 . S
C2713 C2712 1.377 . S
C2713 C2714 1.379 . S
C2714 H2698 0.931 . S
C2714 C2708 1.383 . S
C2714 C2713 1.379 . S
H2715 C2709 0.959 . S
H2716 C2709 0.961 . S
H2717 C2709 0.960 . S
H2718 C2710 0.930 . S
H2719 C2711 0.929 . S
C425 C101 1.603 . S
C444 C4 1.604 . S
C461 C17 1.603 . S
C480 C56 1.593 . S
C497 C75 1.601 . S
C516 C36 1.612 . S
C533 C43 1.603 . S
C552 C88 1.599 . S
C569 C108 1.603 . S
C588 C205 1.608 . S
C605 C121 1.599 . S
C624 C166 1.606 . S
C641 C134 1.602 . S
C660 C179 1.612 . S
C677 C147 1.603 . S
C696 C186 1.608 . S
C713 C218 1.598 . S
C732 C309 1.581 . S
C749 C225 1.603 . S
C768 C270 1.604 . S
C785 C283 1.602 . S
C804 C238 1.587 . S
C821 C296 1.599 . S
C840 C251 1.611 . S
C857 C316 1.598 . S
C876 C413 1.600 . S
C893 C368 1.601 . S
C912 C329 1.612 . S
C929 C387 1.597 . S
C948 C348 1.582 . S
C965 C355 1.603 . S
C984 C400 1.609 . S
C1001 C10 0.668 . S
C1020 C82 0.687 . S
C1037 C23 0.659 . S
C1056 C95 0.641 . S
C1073 C62 0.665 . S
C1092 C30 0.671 . S
C1109 C49 0.659 . S
C1128 C69 0.641 . S
C1145 C114 0.660 . S
C1164 C192 0.685 . S
C1181 C127 0.665 . S
C1200 C199 0.642 . S
C1217 C160 0.666 . S
C1236 C140 0.642 . S
C1253 C173 0.660 . S
C1272 C153 0.663 . S
C1289 C212 0.659 . S
C1308 C290 0.642 . S
C1325 C303 0.666 . S
C1344 C231 0.676 . S
C1361 C264 0.659 . S
C1380 C244 0.642 . S
C1397 C257 0.660 . S
C1416 C277 0.646 . S
C1433 C322 0.668 . S
C1452 C394 0.662 . S
C1469 C335 0.667 . S
C1488 C407 0.642 . S
C1505 C374 0.661 . S
C1524 C342 0.658 . S
C1541 C381 0.662 . S
C1560 C361 0.686 . S
C1577 C5 1.646 . S
C1596 C393 1.646 . S
C1613 C18 1.649 . S
C1632 C198 1.637 . S
C1649 C29 1.646 . S
C1668 C369 1.651 . S
C1685 C44 1.649 . S
C1704 C172 1.645 . S
C1721 C57 1.646 . S
C1740 C341 1.644 . S
C1757 C68 1.646 . S
C1776 C148 1.644 . S
C1793 C81 1.648 . S
C1812 C317 1.651 . S
C1829 C122 1.647 . S
C1848 C94 1.638 . S
C1865 C289 1.646 . S
C1884 C109 1.651 . S
C1901 C135 1.647 . S
C1920 C263 1.638 . S
C1937 C239 1.646 . S
C1956 C159 1.651 . S
C1973 C211 1.649 . S
C1992 C187 1.648 . S
C2009 C226 1.647 . S
C2028 C406 1.640 . S
C2045 C252 1.649 . S
C2064 C380 1.640 . S
C2081 C276 1.649 . S
C2100 C356 1.646 . S
C2117 C330 1.646 . S
C2136 C302 1.646 . S
C2153 C3 1.494 . S
C2172 C83 1.499 . S
C2189 C16 1.496 . S
C2208 C96 1.498 . S
C2225 C55 1.496 1_556 S
C2244 C31 1.492 . S
C2261 C42 1.494 . S
C2280 C70 1.490 . S
C2297 C107 1.494 1_556 S
C2316 C185 1.493 . S
C2333 C120 1.494 . S
C2352 C200 1.495 . S
C2369 C161 1.496 . S
C2388 C133 1.495 . S
C2405 C146 1.496 . S
C2424 C174 1.493 . S
C2441 C291 1.496 1_556 S
C2460 C213 1.498 . S
C2477 C304 1.496 . S
C2496 C224 1.498 . S
C2513 C265 1.496 . S
C2532 C237 1.486 . S
C2549 C278 1.497 . S
C2568 C250 1.490 . S
C2585 C395 1.497 . S
C2604 C315 1.489 . S
C2621 C408 1.496 . S
C2640 C328 1.485 . S
C2657 C343 1.494 1_556 S
C2676 C367 1.491 . S
C2693 C382 1.494 . S
C2712 C354 1.491 . S
