# Generated by pormake.
# Topology lcy-e, (6)-cn, num edge types: 1
# Building blocks:
#     Node 0, Type 0, BuildingBlock: UKALOJ_clean_sbu_0, # of connection points: 6
#     Node 1, Type 0, BuildingBlock: UKALOJ_clean_sbu_0, # of connection points: 6
#     Node 2, Type 0, BuildingBlock: UKALOJ_clean_sbu_0, # of connection points: 6
#     Node 3, Type 0, BuildingBlock: UKALOJ_clean_sbu_0, # of connection points: 6
#     Node 4, Type 0, BuildingBlock: UKALOJ_clean_sbu_0, # of connection points: 6
#     Node 5, Type 0, BuildingBlock: UKALOJ_clean_sbu_0, # of connection points: 6
#     Node 6, Type 0, BuildingBlock: UKALOJ_clean_sbu_0, # of connection points: 6
#     Node 7, Type 0, BuildingBlock: UKALOJ_clean_sbu_0, # of connection points: 6
#     Node 8, Type 0, BuildingBlock: UKALOJ_clean_sbu_0, # of connection points: 6
#     Node 9, Type 0, BuildingBlock: UKALOJ_clean_sbu_0, # of connection points: 6
#     Node 10, Type 0, BuildingBlock: UKALOJ_clean_sbu_0, # of connection points: 6
#     Node 11, Type 0, BuildingBlock: UKALOJ_clean_sbu_0, # of connection points: 6
#     Edge 12, Type (0, 0), BuildingBlock: TEMPAE_clean_linker_10, # of connection points: 2
#     Edge 13, Type (0, 0), BuildingBlock: TEMPAE_clean_linker_10, # of connection points: 2
#     Edge 14, Type (0, 0), BuildingBlock: TEMPAE_clean_linker_10, # of connection points: 2
#     Edge 15, Type (0, 0), BuildingBlock: TEMPAE_clean_linker_10, # of connection points: 2
#     Edge 16, Type (0, 0), BuildingBlock: TEMPAE_clean_linker_10, # of connection points: 2
#     Edge 17, Type (0, 0), BuildingBlock: TEMPAE_clean_linker_10, # of connection points: 2
#     Edge 18, Type (0, 0), BuildingBlock: TEMPAE_clean_linker_10, # of connection points: 2
#     Edge 19, Type (0, 0), BuildingBlock: TEMPAE_clean_linker_10, # of connection points: 2
#     Edge 20, Type (0, 0), BuildingBlock: TEMPAE_clean_linker_10, # of connection points: 2
#     Edge 21, Type (0, 0), BuildingBlock: TEMPAE_clean_linker_10, # of connection points: 2
#     Edge 22, Type (0, 0), BuildingBlock: TEMPAE_clean_linker_10, # of connection points: 2
#     Edge 23, Type (0, 0), BuildingBlock: TEMPAE_clean_linker_10, # of connection points: 2
#     Edge 24, Type (0, 0), BuildingBlock: TEMPAE_clean_linker_10, # of connection points: 2
#     Edge 25, Type (0, 0), BuildingBlock: TEMPAE_clean_linker_10, # of connection points: 2
#     Edge 26, Type (0, 0), BuildingBlock: TEMPAE_clean_linker_10, # of connection points: 2
#     Edge 27, Type (0, 0), BuildingBlock: TEMPAE_clean_linker_10, # of connection points: 2
#     Edge 28, Type (0, 0), BuildingBlock: TEMPAE_clean_linker_10, # of connection points: 2
#     Edge 29, Type (0, 0), BuildingBlock: TEMPAE_clean_linker_10, # of connection points: 2
#     Edge 30, Type (0, 0), BuildingBlock: TEMPAE_clean_linker_10, # of connection points: 2
#     Edge 31, Type (0, 0), BuildingBlock: TEMPAE_clean_linker_10, # of connection points: 2
#     Edge 32, Type (0, 0), BuildingBlock: TEMPAE_clean_linker_10, # of connection points: 2
#     Edge 33, Type (0, 0), BuildingBlock: TEMPAE_clean_linker_10, # of connection points: 2
#     Edge 34, Type (0, 0), BuildingBlock: TEMPAE_clean_linker_10, # of connection points: 2
#     Edge 35, Type (0, 0), BuildingBlock: TEMPAE_clean_linker_10, # of connection points: 2
#     Edge 36, Type (0, 0), BuildingBlock: TEMPAE_clean_linker_10, # of connection points: 2
#     Edge 37, Type (0, 0), BuildingBlock: TEMPAE_clean_linker_10, # of connection points: 2
#     Edge 38, Type (0, 0), BuildingBlock: TEMPAE_clean_linker_10, # of connection points: 2
#     Edge 39, Type (0, 0), BuildingBlock: TEMPAE_clean_linker_10, # of connection points: 2
#     Edge 40, Type (0, 0), BuildingBlock: TEMPAE_clean_linker_10, # of connection points: 2
#     Edge 41, Type (0, 0), BuildingBlock: TEMPAE_clean_linker_10, # of connection points: 2
#     Edge 42, Type (0, 0), BuildingBlock: TEMPAE_clean_linker_10, # of connection points: 2
#     Edge 43, Type (0, 0), BuildingBlock: TEMPAE_clean_linker_10, # of connection points: 2
#     Edge 44, Type (0, 0), BuildingBlock: TEMPAE_clean_linker_10, # of connection points: 2
#     Edge 45, Type (0, 0), BuildingBlock: TEMPAE_clean_linker_10, # of connection points: 2
#     Edge 46, Type (0, 0), BuildingBlock: TEMPAE_clean_linker_10, # of connection points: 2
#     Edge 47, Type (0, 0), BuildingBlock: TEMPAE_clean_linker_10, # of connection points: 2
# Relax obj value: 0.283
# Max RMSD: 0.290
# Mean RMSD: 0.290
data_MOF--net-lcy-e--node1-UKALOJ_clean_sbu_0--edge1-TEMPAE_clean_linker_10
_symmetry_space_group_name_H-M    P1
_symmetry_Int_Tables_number       1
_symmetry_cell_setting            triclinic
loop_
_symmetry_equiv_pos_as_xyz
'x, y, z'
_cell_length_a     39.197654
_cell_length_b     39.245611
_cell_length_c     39.148193
_cell_angle_alpha  90.035423
_cell_angle_beta   90.182128
_cell_angle_gamma 90.100601
loop_
_atom_site_label
_atom_site_type_symbol
_atom_site_fract_x
_atom_site_fract_y
_atom_site_fract_z
_atom_type_partial_charge
Zn0 Zn 0.10087 0.22946 0.45539 0.0
O1 O 0.14131 0.25119 0.48096 0.0
C2 C 0.15032 0.17902 0.4276 0.0
Zn3 Zn 0.10687 0.18407 0.48846 0.0
C4 C 0.15532 0.23817 0.50703 0.0
O5 O 0.14567 0.20913 0.51771 0.0
C6 C 0.05205 0.17628 0.43542 0.0
O7 O 0.07164 0.204 0.52196 0.0
O8 O 0.06735 0.25189 0.49326 0.0
N9 N 0.11152 0.14142 0.51743 0.0
C10 C 0.08803 0.11844 0.52741 0.0
C11 C 0.13681 0.09844 0.5407 0.0
N12 N 0.14184 0.12907 0.52593 0.0
N13 N 0.10325 0.09142 0.54187 0.0
C14 C 0.12187 0.28707 0.40618 0.0
C15 C 0.07508 0.29788 0.38064 0.0
N16 N 0.09696 0.27033 0.423 0.0
N17 N 0.06787 0.27736 0.40725 0.0
N18 N 0.10888 0.304 0.37907 0.0
H19 H 0.15898 0.29875 0.44457 0.0
H20 H 0.1738 0.3067 0.40251 0.0
H21 H 0.17002 0.26325 0.41772 0.0
C22 C 0.15832 0.28893 0.41804 0.0
C23 C 0.05021 0.12168 0.5229 0.0
H24 H 0.03725 0.11432 0.54697 0.0
H25 H 0.04165 0.1035 0.50297 0.0
H26 H 0.0425 0.14782 0.51585 0.0
O27 O 0.06794 0.16015 0.45866 0.0
O28 O 0.05986 0.20703 0.42951 0.0
C29 C 0.06028 0.23414 0.51968 0.0
O30 O 0.13528 0.20666 0.41993 0.0
O31 O 0.14326 0.16442 0.45554 0.0
Zn32 Zn 0.99037 0.8372 0.69454 0.0
O33 O 0.9654 0.87882 0.71294 0.0
C34 C 0.02772 0.88129 0.64455 0.0
Zn35 Zn 0.03919 0.85884 0.71482 0.0
C36 C 0.97957 0.90342 0.72832 0.0
O37 O 0.01166 0.903 0.7339 0.0
C38 C 0.04807 0.79197 0.67964 0.0
O39 O 0.02912 0.83376 0.76032 0.0
O40 O 0.98074 0.81147 0.74215 0.0
N41 N 0.0854 0.87726 0.73193 0.0
C42 C 0.10973 0.86148 0.75038 0.0
C43 C 0.13189 0.90696 0.73058 0.0
N44 N 0.09921 0.90556 0.71965 0.0
N45 N 0.13918 0.87933 0.74958 0.0
C46 C 0.92563 0.83723 0.65177 0.0
C47 C 0.9261 0.78694 0.63177 0.0
N48 N 0.9469 0.81888 0.67163 0.0
N49 N 0.94643 0.78733 0.65962 0.0
N50 N 0.91293 0.8181 0.62611 0.0
H51 H 0.90972 0.88009 0.68157 0.0
H52 H 0.89956 0.88371 0.637 0.0
H53 H 0.94286 0.88947 0.65125 0.0
C54 C 0.91915 0.87477 0.65544 0.0
C55 C 0.10318 0.83098 0.77237 0.0
H56 H 0.08572 0.83913 0.79298 0.0
H57 H 0.12632 0.82094 0.78498 0.0
H58 H 0.09083 0.81047 0.75728 0.0
O59 O 0.06488 0.8148 0.69548 0.0
O60 O 0.01617 0.79525 0.67611 0.0
C61 C 0.00297 0.81544 0.76574 0.0
O62 O 0.00071 0.8638 0.64784 0.0
O63 O 0.04852 0.88342 0.66921 0.0
Zn64 Zn 0.35368 0.7895 0.96799 0.0
O65 O 0.387 0.77237 0.00489 0.0
C66 C 0.41547 0.81302 0.92854 0.0
Zn67 Zn 0.37597 0.75052 0.93417 0.0
C68 C 0.40542 0.74598 0.00333 0.0
O69 O 0.40635 0.72899 0.97552 0.0
C70 C 0.3226 0.79556 0.90121 0.0
O71 O 0.33669 0.71839 0.94769 0.0
O72 O 0.31659 0.753 0.98679 0.0
N73 N 0.39294 0.71553 0.89965 0.0
C74 C 0.37619 0.70164 0.87292 0.0
C75 C 0.42866 0.68854 0.8676 0.0
N76 N 0.42555 0.70718 0.89645 0.0
N77 N 0.39794 0.68476 0.85265 0.0
C78 C 0.35442 0.84745 0.02159 0.0
C79 C 0.30187 0.86088 0.02544 0.0
N80 N 0.33683 0.82621 0.00089 0.0
N81 N 0.30418 0.83452 0.00341 0.0
N82 N 0.33305 0.86916 0.03737 0.0
H83 H 0.40574 0.83183 0.00673 0.0
H84 H 0.4007 0.84295 0.05064 0.0
H85 H 0.40121 0.87582 0.01911 0.0
C86 C 0.39264 0.84935 0.02428 0.0
C87 C 0.33902 0.70628 0.86474 0.0
H88 H 0.32846 0.68258 0.85334 0.0
H89 H 0.33628 0.72679 0.84542 0.0
H90 H 0.3239 0.71298 0.88749 0.0
O91 O 0.34545 0.7736 0.89463 0.0
O92 O 0.31908 0.80624 0.9315 0.0
C93 C 0.31563 0.72436 0.97136 0.0
O94 O 0.39185 0.82443 0.94767 0.0
O95 O 0.4155 0.78182 0.92047 0.0
Zn96 Zn 0.47562 0.11694 0.19705 0.0
O97 O 0.50779 0.08064 0.21623 0.0
C98 C 0.42759 0.06196 0.17529 0.0
Zn99 Zn 0.43743 0.10454 0.23662 0.0
C100 C 0.50157 0.06433 0.24337 0.0
O101 O 0.47347 0.06917 0.25897 0.0
C102 C 0.41339 0.15735 0.18771 0.0
O103 O 0.45743 0.1423 0.26789 0.0
O104 O 0.49861 0.15352 0.23169 0.0
N105 N 0.40174 0.09277 0.27231 0.0
C106 C 0.37988 0.11266 0.28978 0.0
C107 C 0.36537 0.06103 0.29868 0.0
N108 N 0.39287 0.0607 0.2781 0.0
N109 N 0.35695 0.09333 0.30649 0.0
C110 C 0.52728 0.10889 0.13797 0.0
C111 C 0.5332 0.16031 0.12139 0.0
N112 N 0.50966 0.12874 0.15978 0.0
N113 N 0.51359 0.16069 0.14958 0.0
N114 N 0.54219 0.12812 0.11372 0.0
H115 H 0.50932 0.05971 0.15659 0.0
H116 H 0.55373 0.06207 0.14672 0.0
H117 H 0.5231 0.06037 0.11266 0.0
C118 C 0.52799 0.07063 0.13865 0.0
C119 C 0.37869 0.15088 0.2882 0.0
H120 H 0.39815 0.1617 0.27106 0.0
H121 H 0.38294 0.16147 0.31414 0.0
H122 H 0.35299 0.15916 0.27961 0.0
O123 O 0.40288 0.14003 0.21302 0.0
O124 O 0.44358 0.15342 0.17719 0.0
C125 C 0.48425 0.1587 0.26042 0.0
O126 O 0.45186 0.08031 0.16413 0.0
O127 O 0.41729 0.06625 0.20561 0.0
Zn128 Zn 0.62104 0.27106 0.53833 0.0
O129 O 0.66063 0.23837 0.52631 0.0
C130 C 0.67597 0.31431 0.56946 0.0
Zn131 Zn 0.64471 0.30653 0.50223 0.0
C132 C 0.6809 0.24199 0.50144 0.0
O133 O 0.6796 0.26898 0.48342 0.0
C134 C 0.58436 0.33415 0.5412 0.0
O135 O 0.60959 0.29035 0.46531 0.0
O136 O 0.59134 0.24858 0.49768 0.0
N137 N 0.66294 0.34285 0.46991 0.0
C138 C 0.64586 0.36548 0.45046 0.0
C139 C 0.69817 0.38048 0.45059 0.0
N140 N 0.69549 0.35207 0.46978 0.0
N141 N 0.66739 0.38911 0.43798 0.0
C142 C 0.6191 0.21639 0.59511 0.0
C143 C 0.5658 0.2091 0.60314 0.0
N144 N 0.60257 0.23653 0.57266 0.0
N145 N 0.56945 0.23192 0.57763 0.0
N146 N 0.59665 0.19878 0.61421 0.0
H147 H 0.66723 0.19195 0.58817 0.0
H148 H 0.66337 0.21443 0.62781 0.0
H149 H 0.67012 0.23753 0.58875 0.0
C150 C 0.65709 0.21542 0.60017 0.0
C151 C 0.60777 0.36674 0.44597 0.0
H152 H 0.60131 0.35921 0.41941 0.0
H153 H 0.59846 0.39316 0.44982 0.0
H154 H 0.59403 0.34971 0.46355 0.0
O155 O 0.60953 0.34337 0.523 0.0
O156 O 0.58126 0.30327 0.54983 0.0
C157 C 0.5912 0.26402 0.46904 0.0
O158 O 0.65128 0.29508 0.578 0.0
O159 O 0.68044 0.32168 0.53834 0.0
Zn160 Zn 0.94686 0.40453 0.76445 0.0
O161 O 0.96503 0.3681 0.73107 0.0
C162 C 0.91373 0.34835 0.80501 0.0
Zn163 Zn 0.98003 0.38194 0.80477 0.0
C164 C 0.98772 0.34629 0.73826 0.0
O165 O 0.00061 0.3456 0.76824 0.0
C166 C 0.93765 0.44077 0.8293 0.0
O167 O 0.01724 0.41569 0.79098 0.0
O168 O 0.98819 0.43863 0.74872 0.0
N169 N 0.00984 0.36372 0.84361 0.0
C170 C 0.02759 0.38044 0.86802 0.0
C171 C 0.02628 0.32802 0.88228 0.0
N172 N 0.00921 0.33112 0.85246 0.0
N173 N 0.03814 0.35863 0.89236 0.0
C174 C 0.89162 0.40431 0.70877 0.0
C175 C 0.87057 0.45414 0.71239 0.0
N176 N 0.91283 0.42272 0.72872 0.0
N177 N 0.89985 0.45383 0.73068 0.0
N178 N 0.86474 0.42321 0.69866 0.0
H179 H 0.92218 0.36747 0.68335 0.0
H180 H 0.87767 0.35841 0.68063 0.0
H181 H 0.90022 0.35128 0.72028 0.0
C182 C 0.89794 0.36823 0.69781 0.0
C183 C 0.03221 0.4184 0.87015 0.0
H184 H 0.01732 0.43236 0.85082 0.0
H185 H 0.05956 0.42463 0.86651 0.0
H186 H 0.02489 0.42751 0.89595 0.0
O187 O 0.95857 0.41828 0.83955 0.0
O188 O 0.92877 0.44113 0.7982 0.0
C189 C 0.01547 0.43686 0.76667 0.0
O190 O 0.90752 0.36973 0.78141 0.0
O191 O 0.94297 0.34786 0.8187 0.0
Zn192 Zn 0.91587 0.76278 0.07188 0.0
O193 O 0.88236 0.79829 0.0521 0.0
C194 C 0.85641 0.72369 0.10055 0.0
Zn195 Zn 0.89547 0.72227 0.03795 0.0
C196 C 0.86334 0.79104 0.02688 0.0
O197 O 0.86369 0.76093 0.01455 0.0
C198 C 0.94858 0.69575 0.08442 0.0
O199 O 0.93334 0.73447 0.00447 0.0
O200 O 0.95283 0.77812 0.03388 0.0
N201 N 0.87721 0.68613 0.00505 0.0
C202 C 0.89346 0.66274 0.98583 0.0
C203 C 0.84006 0.65365 0.98038 0.0
N204 N 0.84405 0.6805 0.00153 0.0
N205 N 0.87071 0.64225 0.97001 0.0
C206 C 0.91552 0.81541 0.12911 0.0
C207 C 0.9632 0.80608 0.15334 0.0
N208 N 0.93407 0.79633 0.10749 0.0
N209 N 0.96401 0.79107 0.12236 0.0
N210 N 0.93298 0.82156 0.15816 0.0
H211 H 0.88014 0.84518 0.10061 0.0
H212 H 0.86895 0.84102 0.14481 0.0
H213 H 0.86266 0.80587 0.11582 0.0
C214 C 0.87969 0.82732 0.12251 0.0
C215 C 0.93146 0.6583 0.98416 0.0
H216 H 0.94495 0.67195 0.00479 0.0
H217 H 0.94075 0.66834 0.95942 0.0
H218 H 0.9381 0.63085 0.9854 0.0
O219 O 0.92737 0.68517 0.06221 0.0
O220 O 0.9495 0.72713 0.09172 0.0
C221 C 0.95378 0.75931 0.0073 0.0
O222 O 0.87823 0.7464 0.10835 0.0
O223 O 0.85738 0.71 0.07133 0.0
Zn224 Zn 0.55429 0.63115 0.26302 0.0
O225 O 0.53344 0.66474 0.22882 0.0
C226 C 0.55847 0.68735 0.31495 0.0
Zn227 Zn 0.50961 0.63448 0.29642 0.0
C228 C 0.50231 0.67303 0.23043 0.0
O229 O 0.4848 0.66405 0.25639 0.0
C230 C 0.56364 0.5907 0.32584 0.0
O231 O 0.49099 0.59134 0.27327 0.0
O232 O 0.5308 0.59063 0.234 0.0
N233 N 0.46726 0.63648 0.32619 0.0
C234 C 0.45121 0.61197 0.34419 0.0
C235 C 0.42813 0.65938 0.35712 0.0
N236 N 0.45269 0.66587 0.33402 0.0
N237 N 0.42654 0.62573 0.36378 0.0
C238 C 0.61831 0.65262 0.22279 0.0
C239 C 0.64441 0.6052 0.21801 0.0
N240 N 0.59757 0.62816 0.23514 0.0
N241 N 0.6137 0.59871 0.23188 0.0
N242 N 0.64781 0.63881 0.21209 0.0
H243 H 0.60906 0.69984 0.19712 0.0
H244 H 0.63281 0.70375 0.23606 0.0
H245 H 0.58729 0.69639 0.23703 0.0
C246 C 0.6112 0.69019 0.22365 0.0
C247 C 0.46084 0.5749 0.34427 0.0
H248 H 0.48571 0.57005 0.33228 0.0
H249 H 0.44144 0.5603 0.32962 0.0
H250 H 0.46134 0.56493 0.37079 0.0
O251 O 0.53561 0.60447 0.33443 0.0
O252 O 0.57574 0.59668 0.29656 0.0
C253 C 0.50327 0.57859 0.24633 0.0
O254 O 0.576 0.67159 0.29271 0.0
O255 O 0.52795 0.67823 0.32031 0.0
Zn256 Zn 0.21241 0.48182 0.13705 0.0
O257 O 0.22065 0.51259 0.09499 0.0
C258 C 0.17075 0.43574 0.0914 0.0
Zn259 Zn 0.2422 0.44211 0.11052 0.0
C260 C 0.23974 0.50531 0.07005 0.0
O261 O 0.25442 0.47637 0.06905 0.0
C262 C 0.2135 0.42051 0.17869 0.0
O263 O 0.28489 0.45977 0.13563 0.0
O264 O 0.25845 0.50243 0.16007 0.0
N265 N 0.26991 0.40383 0.08934 0.0
C266 C 0.29175 0.38182 0.10412 0.0
C267 C 0.28208 0.36381 0.0536 0.0
N268 N 0.26414 0.39279 0.05785 0.0
N269 N 0.29983 0.35665 0.08221 0.0
C270 C 0.15952 0.53933 0.14415 0.0
C271 C 0.15719 0.54739 0.19797 0.0
N272 N 0.18287 0.51868 0.15862 0.0
N273 N 0.18145 0.52376 0.19207 0.0
N274 N 0.14343 0.55771 0.1682 0.0
H275 H 0.16298 0.56262 0.09499 0.0
H276 H 0.12253 0.54306 0.10338 0.0
H277 H 0.15867 0.51712 0.09307 0.0
C278 C 0.15049 0.54017 0.10681 0.0
C279 C 0.30279 0.38273 0.14095 0.0
H280 H 0.28919 0.40198 0.15614 0.0
H281 H 0.33043 0.38866 0.14227 0.0
H282 H 0.2989 0.35735 0.15283 0.0
O283 O 0.22845 0.40896 0.15235 0.0
O284 O 0.20471 0.45148 0.17975 0.0
C285 C 0.28597 0.48611 0.15424 0.0
O286 O 0.16736 0.45975 0.11301 0.0
O287 O 0.2002 0.4245 0.08481 0.0
Zn288 Zn 0.73494 0.04945 0.86937 0.0
O289 O 0.76996 0.03332 0.83398 0.0
C290 C 0.68652 0.0662 0.81215 0.0
Zn291 Zn 0.70134 0.00653 0.85433 0.0
C292 C 0.76736 0.0061 0.81682 0.0
O293 O 0.74042 0.98792 0.81962 0.0
C294 C 0.67153 0.05163 0.90845 0.0
O295 O 0.72356 0.9779 0.89262 0.0
O296 O 0.76028 0.01788 0.90681 0.0
N297 N 0.66873 0.96743 0.84281 0.0
C298 C 0.64754 0.94948 0.86316 0.0
C299 C 0.63261 0.93972 0.81169 0.0
N300 N 0.65961 0.96102 0.81084 0.0
N301 N 0.62463 0.93203 0.84423 0.0
C302 C 0.77992 0.11364 0.86087 0.0
C303 C 0.78249 0.1326 0.91189 0.0
N304 N 0.76455 0.09052 0.88116 0.0
N305 N 0.76637 0.10225 0.91287 0.0
N306 N 0.7913 0.14016 0.87957 0.0
H307 H 0.76582 0.09136 0.81171 0.0
H308 H 0.8083 0.10788 0.81466 0.0
H309 H 0.77312 0.13673 0.81154 0.0
C310 C 0.78149 0.11206 0.82257 0.0
C311 C 0.64688 0.95127 0.90151 0.0
H312 H 0.66537 0.96962 0.9121 0.0
H313 H 0.65313 0.92586 0.91214 0.0
H314 H 0.62084 0.95801 0.91027 0.0
O315 O 0.66411 0.02648 0.88935 0.0
O316 O 0.70045 0.06563 0.90558 0.0
C317 C 0.74848 0.98783 0.91076 0.0
O318 O 0.70875 0.0794 0.83183 0.0
O319 O 0.67907 0.03498 0.81545 0.0
Zn320 Zn 0.7554 0.94359 0.39828 0.0
O321 O 0.71817 0.95556 0.36257 0.0
C322 C 0.79191 0.909 0.34066 0.0
Zn323 Zn 0.78999 0.97683 0.36923 0.0
C324 C 0.72074 0.97913 0.3407 0.0
O325 O 0.74881 0.99524 0.33796 0.0
C326 C 0.8228 0.93982 0.42791 0.0
O327 O 0.77947 0.01455 0.40443 0.0
O328 O 0.73833 0.9857 0.42906 0.0
N329 N 0.82334 0.00857 0.34489 0.0
C330 C 0.8454 0.03159 0.35776 0.0
C331 C 0.85017 0.03324 0.30352 0.0
N332 N 0.82631 0.0096 0.31117 0.0
N333 N 0.86206 0.04764 0.3324 0.0
C334 C 0.69934 0.88944 0.40745 0.0
C335 C 0.6944 0.88489 0.4615 0.0
N336 N 0.72187 0.91127 0.4216 0.0
N337 N 0.71879 0.90844 0.45522 0.0
N338 N 0.68163 0.8731 0.43182 0.0
H339 H 0.71555 0.89418 0.35424 0.0
H340 H 0.67044 0.89078 0.36098 0.0
H341 H 0.6967 0.854 0.36571 0.0
C342 C 0.69576 0.88196 0.36994 0.0
C343 C 0.85244 0.03725 0.39507 0.0
H344 H 0.84235 0.01659 0.41123 0.0
H345 H 0.84059 0.06159 0.40302 0.0
H346 H 0.88033 0.03957 0.39953 0.0
O347 O 0.83036 0.95686 0.40131 0.0
O348 O 0.79205 0.93224 0.43409 0.0
C349 C 0.75581 0.01295 0.4263 0.0
O350 O 0.77465 0.90234 0.36728 0.0
O351 O 0.80015 0.93943 0.33395 0.0
Zn352 Zn 0.29864 0.4976 0.63747 0.0
O353 O 0.27948 0.45267 0.61861 0.0
C354 C 0.30778 0.52576 0.56585 0.0
Zn355 Zn 0.25439 0.52596 0.61657 0.0
C356 C 0.25138 0.45107 0.60266 0.0
O357 O 0.23458 0.47835 0.59719 0.0
C358 C 0.30354 0.57092 0.65308 0.0
O359 O 0.23076 0.5165 0.66179 0.0
O360 O 0.27222 0.48693 0.68512 0.0
N361 N 0.2123 0.55121 0.59982 0.0
C362 C 0.19154 0.57293 0.61636 0.0
C363 C 0.17539 0.57158 0.5643 0.0
N364 N 0.20214 0.55023 0.56751 0.0
N365 N 0.16804 0.58568 0.59475 0.0
C366 C 0.36601 0.45807 0.6351 0.0
C367 C 0.38829 0.46865 0.68372 0.0
N368 N 0.34222 0.47423 0.65378 0.0
N369 N 0.35599 0.48055 0.68412 0.0
N370 N 0.39519 0.45483 0.65304 0.0
H371 H 0.33379 0.44007 0.59361 0.0
H372 H 0.37549 0.42095 0.59574 0.0
H373 H 0.37071 0.46372 0.58078 0.0
C374 C 0.36092 0.44491 0.59938 0.0
C375 C 0.19543 0.58375 0.65303 0.0
H376 H 0.17609 0.57023 0.66861 0.0
H377 H 0.19086 0.61152 0.65569 0.0
H378 H 0.22085 0.57799 0.66355 0.0
O379 O 0.2755 0.57265 0.63677 0.0
O380 O 0.31794 0.54239 0.65701 0.0
C381 C 0.24243 0.49985 0.68679 0.0
O382 O 0.3231 0.50929 0.58931 0.0
O383 O 0.27749 0.53555 0.57076 0.0
C384 C 0.20199 0.27999 0.50898 0.0
C385 C 0.17844 0.25994 0.52672 0.0
C386 C 0.21608 0.30916 0.52393 0.0
C387 C 0.20607 0.31846 0.55735 0.0
C388 C 0.1844 0.29673 0.57641 0.0
C389 C 0.17087 0.26744 0.56081 0.0
C390 C 0.23945 0.33142 0.50292 0.0
C391 C 0.17324 0.30581 0.61214 0.0
C392 C 0.25829 0.38812 0.59902 0.0
C393 C 0.23879 0.41727 0.59166 0.0
C394 C 0.24741 0.35566 0.58899 0.0
C395 C 0.21633 0.35218 0.57103 0.0
C396 C 0.19614 0.38132 0.56402 0.0
C397 C 0.20764 0.41362 0.57445 0.0
C398 C 0.26954 0.32518 0.59694 0.0
C399 C 0.16276 0.37843 0.54487 0.0
H400 H 0.20755 0.27409 0.4825 0.0
H401 H 0.15205 0.25221 0.57418 0.0
H402 H 0.22622 0.35558 0.49651 0.0
H403 H 0.26271 0.33811 0.51769 0.0
H404 H 0.24726 0.31888 0.47873 0.0
H405 H 0.16039 0.28413 0.62508 0.0
H406 H 0.19537 0.31404 0.62785 0.0
H407 H 0.15511 0.32747 0.61101 0.0
H408 H 0.28236 0.39059 0.61251 0.0
H409 H 0.19238 0.43596 0.56891 0.0
H410 H 0.27882 0.31364 0.57282 0.0
H411 H 0.25446 0.30541 0.61042 0.0
H412 H 0.29198 0.33199 0.61297 0.0
H413 H 0.16745 0.36863 0.51872 0.0
H414 H 0.14936 0.40327 0.54286 0.0
H415 H 0.14569 0.35996 0.55783 0.0
C416 C 0.8027 0.96076 0.78856 0.0
C417 C 0.79771 0.99498 0.79733 0.0
C418 C 0.83438 0.94965 0.77593 0.0
C419 C 0.86154 0.97332 0.77219 0.0
C420 C 0.85604 0.0081 0.77947 0.0
C421 C 0.82421 0.0185 0.79171 0.0
C422 C 0.8392 0.91237 0.76778 0.0
C423 C 0.88422 0.03415 0.77575 0.0
C424 C 0.9502 0.93427 0.77487 0.0
C425 C 0.95703 0.93077 0.74002 0.0
C426 C 0.91982 0.94977 0.78587 0.0
C427 C 0.8959 0.96157 0.76131 0.0
C428 C 0.90416 0.96044 0.72619 0.0
C429 C 0.93476 0.94519 0.71603 0.0
C430 C 0.91219 0.95115 0.82361 0.0
C431 C 0.8795 0.97266 0.69915 0.0
H432 H 0.78245 0.94246 0.79299 0.0
H433 H 0.82054 0.0451 0.79816 0.0
H434 H 0.84913 0.90934 0.74144 0.0
H435 H 0.85837 0.90125 0.78544 0.0
H436 H 0.81509 0.89764 0.7701 0.0
H437 H 0.87527 0.0605 0.78091 0.0
H438 H 0.90524 0.02815 0.7938 0.0
H439 H 0.89499 0.03323 0.74961 0.0
H440 H 0.96707 0.92236 0.79332 0.0
H441 H 0.94005 0.94208 0.68903 0.0
H442 H 0.89117 0.93316 0.8296 0.0
H443 H 0.90354 0.97703 0.83097 0.0
H444 H 0.93475 0.94429 0.8394 0.0
H445 H 0.85714 0.9553 0.6982 0.0
H446 H 0.8913 0.97336 0.67339 0.0
H447 H 0.86989 -0.00153 0.70542 0.0
C448 C 0.28491 0.67064 0.95867 0.0
C449 C 0.29399 0.69573 0.98261 0.0
C450 C 0.2728 0.63871 0.96906 0.0
C451 C 0.26986 0.63163 0.00431 0.0
C452 C 0.27668 0.65769 0.02857 0.0
C453 C 0.28858 0.68961 0.01738 0.0
C454 C 0.26531 0.61189 0.94237 0.0
C455 C 0.27354 0.65113 0.06642 0.0
C456 C 0.22049 0.55515 0.03667 0.0
C457 C 0.24689 0.53268 0.0454 0.0
C458 C 0.22742 0.58694 0.022 0.0
C459 C 0.26166 0.59646 0.0159 0.0
C460 C 0.28828 0.57282 0.02239 0.0
C461 C 0.28053 0.54103 0.03704 0.0
C462 C 0.19828 0.61111 0.01507 0.0
C463 C 0.32512 0.58196 0.01593 0.0
H464 H 0.28903 0.67537 0.9317 0.0
H465 H 0.296 0.7088 0.03593 0.0
H466 H 0.28493 0.59159 0.94377 0.0
H467 H 0.24022 0.59973 0.9472 0.0
H468 H 0.26528 0.62258 0.9161 0.0
H469 H 0.27716 0.6747 0.08176 0.0
H470 H 0.24814 0.64017 0.07236 0.0
H471 H 0.293 0.63223 0.07444 0.0
H472 H 0.19442 0.54848 0.04297 0.0
H473 H 0.30097 0.52388 0.04428 0.0
H474 H 0.20017 0.62177 0.9889 0.0
H475 H 0.19961 0.63281 0.03321 0.0
H476 H 0.17302 0.59854 0.01791 0.0
H477 H 0.32836 0.59129 0.98939 0.0
H478 H 0.34249 0.55999 0.02006 0.0
H479 H 0.33294 0.60292 0.03334 0.0
C480 C 0.55344 0.02968 0.2351 0.0
C481 C 0.52925 0.04336 0.25757 0.0
C482 C 0.58455 0.01703 0.24712 0.0
C483 C 0.5916 0.01805 0.28252 0.0
C484 C 0.5664 0.02982 0.30559 0.0
C485 C 0.53531 0.04232 0.29279 0.0
C486 C 0.61056 0.00432 0.22174 0.0
C487 C 0.57302 0.03095 0.34358 0.0
C488 C 0.66388 0.96441 0.31712 0.0
C489 C 0.68991 0.98864 0.32132 0.0
C490 C 0.63185 0.97355 0.3043 0.0
C491 C 0.62578 0.0078 0.29516 0.0
C492 C 0.6524 0.03221 0.2979 0.0
C493 C 0.68432 0.02228 0.31093 0.0
C494 C 0.60428 0.94672 0.30146 0.0
C495 C 0.6468 0.06897 0.28808 0.0
H496 H 0.54867 0.03037 0.20781 0.0
H497 H 0.51679 0.05327 0.31012 0.0
H498 H 0.63304 0.02154 0.22179 0.0
H499 H 0.61969 0.9786 0.22908 0.0
H500 H 0.60015 0.00309 0.19533 0.0
H501 H 0.54999 0.03848 0.35821 0.0
H502 H 0.58177 0.0057 0.3528 0.0
H503 H 0.5937 0.04952 0.34912 0.0
H504 H 0.66831 0.93827 0.32465 0.0
H505 H 0.70432 0.0411 0.3144 0.0
H506 H 0.59469 0.94529 0.27481 0.0
H507 H 0.58236 0.95374 0.31787 0.0
H508 H 0.61342 0.92106 0.30921 0.0
H509 H 0.63787 0.07061 0.26121 0.0
H510 H 0.67034 0.08455 0.29087 0.0
H511 H 0.62659 0.0802 0.30435 0.0
C512 C 0.71202 0.1899 0.51799 0.0
C513 C 0.70202 0.21251 0.49213 0.0
C514 C 0.72318 0.15699 0.51026 0.0
C515 C 0.72492 0.1467 0.47573 0.0
C516 C 0.71757 0.17038 0.44935 0.0
C517 C 0.70609 0.20319 0.45791 0.0
C518 C 0.73092 0.13261 0.5391 0.0
C519 C 0.71983 0.1604 0.41218 0.0
C520 C 0.77423 0.06761 0.45176 0.0
C521 C 0.74789 0.04418 0.44548 0.0
C522 C 0.76722 0.10091 0.46225 0.0
C523 C 0.73297 0.11078 0.46725 0.0
C524 C 0.70635 0.08653 0.46332 0.0
C525 C 0.71415 0.05334 0.45237 0.0
C526 C 0.79631 0.12591 0.46625 0.0
C527 C 0.66953 0.09612 0.46908 0.0
H528 H 0.70936 0.19741 0.54447 0.0
H529 H 0.6981 0.22057 0.43792 0.0
H530 H 0.71153 0.11197 0.53939 0.0
H531 H 0.75614 0.12044 0.5353 0.0
H532 H 0.73082 0.14543 0.56442 0.0
H533 H 0.71616 0.18253 0.39488 0.0
H534 H 0.74497 0.14869 0.40675 0.0
H535 H 0.69998 0.14106 0.40628 0.0
H536 H 0.80039 0.06021 0.44715 0.0
H537 H 0.69378 0.03529 0.44732 0.0
H538 H 0.79543 0.13817 0.49177 0.0
H539 H 0.79383 0.14644 0.44692 0.0
H540 H 0.82162 0.11362 0.46306 0.0
H541 H 0.66647 0.10791 0.49465 0.0
H542 H 0.65216 0.07379 0.46716 0.0
H543 H 0.66158 0.11531 0.44985 0.0
C544 C 0.06989 0.46234 0.78609 0.0
C545 C 0.04687 0.45634 0.75916 0.0
C546 C 0.10377 0.47166 0.77995 0.0
C547 C 0.11484 0.47588 0.74596 0.0
C548 C 0.09101 0.47281 0.71869 0.0
C549 C 0.05716 0.46285 0.72561 0.0
C550 C 0.12818 0.47473 0.80975 0.0
C551 C 0.10176 0.47819 0.6821 0.0
C552 C 0.19806 0.52042 0.72542 0.0
C553 C 0.21817 0.49303 0.71441 0.0
C554 C 0.16472 0.51524 0.73711 0.0
C555 C 0.15166 0.48169 0.73881 0.0
C556 C 0.17339 0.45369 0.73171 0.0
C557 C 0.2065 0.45972 0.71932 0.0
C558 C 0.14256 0.54588 0.74415 0.0
C559 C 0.1607 0.41745 0.73429 0.0
H560 H 0.06188 0.45782 0.81214 0.0
H561 H 0.03955 0.45807 0.70474 0.0
H562 H 0.14732 0.45397 0.80843 0.0
H563 H 0.14229 0.49921 0.80858 0.0
H564 H 0.11493 0.4731 0.83475 0.0
H565 H 0.07968 0.47793 0.66424 0.0
H566 H 0.11538 0.50286 0.67947 0.0
H567 H 0.11973 0.45777 0.67444 0.0
H568 H 0.20714 0.54622 0.72135 0.0
H569 H 0.22176 0.43858 0.7102 0.0
H570 H 0.12723 0.54216 0.76761 0.0
H571 H 0.12447 0.54941 0.72257 0.0
H572 H 0.15787 0.56957 0.74694 0.0
H573 H 0.14765 0.4133 0.75905 0.0
H574 H 0.18173 0.39867 0.73184 0.0
H575 H 0.14179 0.41253 0.7137 0.0
C576 C 0.79977 0.96269 0.93945 0.0
C577 C 0.7645 0.96269 0.93372 0.0
C578 C 0.81561 0.93486 0.95563 0.0
C579 C 0.79554 0.90679 0.96649 0.0
C580 C 0.75974 0.9076 0.96226 0.0
C581 C 0.7447 0.93548 0.94586 0.0
C582 C 0.8539 0.93484 0.95983 0.0
C583 C 0.73737 0.87847 0.97391 0.0
C584 C 0.83709 0.81974 0.97616 0.0
C585 C 0.84288 0.81856 0.01144 0.0
C586 C 0.82181 0.84845 0.96108 0.0
C587 C 0.81186 0.87628 0.98192 0.0
C588 C 0.8167 0.87462 0.01767 0.0
C589 C 0.83215 0.8458 0.03194 0.0
C590 C 0.81696 0.84934 0.92282 0.0
C591 C 0.80598 0.90347 0.04082 0.0
H592 H 0.81514 0.9835 0.92972 0.0
H593 H 0.71736 0.93549 0.94158 0.0
H594 H 0.86083 0.93026 0.98693 0.0
H595 H 0.86503 0.91378 0.9446 0.0
H596 H 0.86564 0.95922 0.95148 0.0
H597 H 0.7098 0.88386 0.97018 0.0
H598 H 0.74389 0.85506 0.95946 0.0
H599 H 0.74196 0.87304 0.00135 0.0
H600 H 0.84567 0.79884 0.96024 0.0
H601 H 0.83611 0.8447 0.05929 0.0
H602 H 0.83096 0.87138 0.91193 0.0
H603 H 0.78957 0.85283 0.91655 0.0
H604 H 0.82612 0.82569 0.91025 0.0
H605 H 0.81953 0.9272 0.03353 0.0
H606 H 0.81142 0.89804 0.06815 0.0
H607 H 0.77826 0.90835 0.03785 0.0
C608 C 0.4614 0.53191 0.24596 0.0
C609 C 0.48098 0.55523 0.22731 0.0
C610 C 0.43098 0.51867 0.23261 0.0
C611 C 0.41994 0.52912 0.19982 0.0
C612 C 0.44108 0.55048 0.17973 0.0
C613 C 0.47158 0.56326 0.19375 0.0
C614 C 0.4094 0.4957 0.25475 0.0
C615 C 0.43024 0.56206 0.14457 0.0
C616 C 0.3487 0.47772 0.15949 0.0
C617 C 0.31977 0.49754 0.16692 0.0
C618 C 0.38142 0.48803 0.16944 0.0
C619 C 0.38553 0.5189 0.18748 0.0
C620 C 0.35658 0.53915 0.19516 0.0
C621 C 0.32394 0.52822 0.18475 0.0
C622 C 0.4116 0.46577 0.16076 0.0
C623 C 0.36011 0.57226 0.21451 0.0
H624 H 0.46854 0.52614 0.27212 0.0
H625 H 0.48629 0.58199 0.17969 0.0
H626 H 0.38577 0.50929 0.26223 0.0
H627 H 0.40161 0.47258 0.24038 0.0
H628 H 0.42301 0.4877 0.27834 0.0
H629 H 0.45137 0.57477 0.13063 0.0
H630 H 0.42097 0.54017 0.12917 0.0
H631 H 0.40884 0.58037 0.1469 0.0
H632 H 0.34592 0.45398 0.14561 0.0
H633 H 0.30181 0.54374 0.19038 0.0
H634 H 0.42443 0.45722 0.18455 0.0
H635 H 0.43058 0.48056 0.14588 0.0
H636 H 0.40412 0.44291 0.14573 0.0
H637 H 0.37139 0.56739 0.24008 0.0
H638 H 0.33524 0.58535 0.2179 0.0
H639 H 0.37771 0.58965 0.20078 0.0
C640 C 0.53515 0.18337 0.29039 0.0
C641 C 0.49967 0.18053 0.28711 0.0
C642 C 0.54982 0.19827 0.31968 0.0
C643 C 0.52841 0.211 0.34589 0.0
C644 C 0.49258 0.20981 0.34171 0.0
C645 C 0.47867 0.19441 0.31251 0.0
C646 C 0.58816 0.19896 0.3233 0.0
C647 C 0.46885 0.22363 0.36869 0.0
C648 C 0.56298 0.21633 0.43681 0.0
C649 C 0.57226 0.25075 0.43904 0.0
C650 C 0.54878 0.203 0.40657 0.0
C651 C 0.54334 0.22474 0.37814 0.0
C652 C 0.55175 0.2597 0.38067 0.0
C653 C 0.56623 0.27221 0.41098 0.0
C654 C 0.54025 0.16551 0.40476 0.0
C655 C 0.54587 0.28384 0.3512 0.0
H656 H 0.55143 0.17225 0.27104 0.0
H657 H 0.45118 0.19231 0.31001 0.0
H658 H 0.59707 0.22525 0.32881 0.0
H659 H 0.59596 0.18278 0.3452 0.0
H660 H 0.60122 0.18961 0.29997 0.0
H661 H 0.44169 0.22274 0.36051 0.0
H662 H 0.47161 0.20856 0.39251 0.0
H663 H 0.47563 0.25038 0.37492 0.0
H664 H 0.5679 0.19957 0.45826 0.0
H665 H 0.57323 0.2989 0.41256 0.0
H666 H 0.55493 0.15334 0.38387 0.0
H667 H 0.51278 0.16205 0.39875 0.0
H668 H 0.54605 0.15204 0.42904 0.0
H669 H 0.56092 0.27553 0.32875 0.0
H670 H 0.55313 0.31048 0.35758 0.0
H671 H 0.5186 0.2834 0.34354 0.0
C672 C 0.04 0.28448 0.55392 0.0
C673 C 0.0444 0.2492 0.55058 0.0
C674 C 0.03086 0.29894 0.58553 0.0
C675 C 0.02645 0.27764 0.61446 0.0
C676 C 0.02994 0.24199 0.61096 0.0
C677 C 0.03846 0.22823 0.57909 0.0
C678 C 0.0266 0.33706 0.58817 0.0
C679 C 0.0257 0.21838 0.64113 0.0
C680 C 0.03306 0.31876 0.70265 0.0
C681 C -0.00144 0.32317 0.71063 0.0
C682 C 0.04267 0.30329 0.67163 0.0
C683 C 0.01711 0.29239 0.64824 0.0
C684 C 0.98232 0.29546 0.65712 0.0
C685 C 0.97358 0.31039 0.68835 0.0
C686 C 0.08007 0.29975 0.6633 0.0
C687 C 0.95423 0.28429 0.63306 0.0
H688 H 0.04481 0.30089 0.5322 0.0
H689 H 0.04176 0.2009 0.57691 0.0
H690 H 0.001 0.34321 0.59848 0.0
H691 H 0.04574 0.34764 0.60623 0.0
H692 H 0.02963 0.34995 0.5631 0.0
H693 H 0.0295 0.19121 0.63415 0.0
H694 H 0.04433 0.22522 0.66142 0.0
H695 H -0.00015 0.22124 0.65219 0.0
H696 H 0.05238 0.32895 0.71972 0.0
H697 H 0.94692 0.31315 0.69492 0.0
H698 H 0.08642 0.31588 0.64094 0.0
H699 H 0.08595 0.27301 0.65625 0.0
H700 H 0.09671 0.30738 0.68503 0.0
H701 H 0.95611 0.29867 0.60874 0.0
H702 H 0.92842 0.28841 0.64396 0.0
H703 H 0.95703 0.25688 0.62678 0.0
C704 C 0.96587 0.79849 0.81494 0.0
C705 C -0.00169 0.80152 0.80042 0.0
C706 C 0.96228 0.79127 0.84995 0.0
C707 C 0.99184 0.78789 0.87073 0.0
C708 C 0.0245 0.78979 0.85582 0.0
C709 C 0.02721 0.7956 0.82073 0.0
C710 C 0.92696 0.78803 0.86485 0.0
C711 C 0.05664 0.78681 0.87704 0.0
C712 C 0.97666 0.8015 0.96557 0.0
C713 C 0.97384 0.76777 0.97675 0.0
C714 C 0.98446 0.8086 0.93125 0.0
C715 C 0.98863 0.78128 0.90788 0.0
C716 C 0.98844 0.74733 0.91984 0.0
C717 C 0.98192 0.74112 0.95433 0.0
C718 C 0.98604 0.8452 0.91956 0.0
C719 C 0.99207 0.7174 0.89581 0.0
H720 H 0.94345 0.80297 0.79931 0.0
H721 H 0.05219 0.79623 0.80927 0.0
H722 H 0.92451 0.76353 0.8788 0.0
H723 H 0.92257 0.80879 0.88355 0.0
H724 H 0.90674 0.78924 0.84494 0.0
H725 H 0.0801 0.7903 0.86156 0.0
H726 H 0.05649 0.80624 0.89765 0.0
H727 H 0.05779 0.76148 0.88952 0.0
H728 H 0.97022 0.82214 0.9828 0.0
H729 H 0.98029 0.71504 0.96322 0.0
H730 H 0.96323 0.85107 0.90379 0.0
H731 H 0.00885 0.84944 0.90337 0.0
H732 H 0.98687 0.86326 0.94141 0.0
H733 H 0.96997 0.71676 0.87802 0.0
H734 H 0.99317 0.69268 0.9096 0.0
H735 H 0.01538 0.72 0.88008 0.0
C736 C 0.50801 0.70195 0.17436 0.0
C737 C 0.48664 0.68794 0.19945 0.0
C738 C 0.4956 0.71009 0.14181 0.0
C739 C 0.46078 0.70453 0.13412 0.0
C740 C 0.43871 0.69146 0.15962 0.0
C741 C 0.45194 0.68325 0.19207 0.0
C742 C 0.51998 0.72409 0.11546 0.0
C743 C 0.40132 0.68558 0.15242 0.0
C744 C 0.4244 0.75817 0.06263 0.0
C745 C 0.42279 0.73507 0.03521 0.0
C746 C 0.43621 0.74835 0.09485 0.0
C747 C 0.44729 0.71454 0.1 0.0
C748 C 0.4467 0.69111 0.07234 0.0
C749 C 0.43436 0.70166 0.04014 0.0
C750 C 0.43638 0.7742 0.12351 0.0
C751 C 0.45872 0.6549 0.07692 0.0
H752 H 0.53491 0.70558 0.17983 0.0
H753 H 0.43544 0.6719 0.21112 0.0
H754 H 0.51987 0.70755 0.09246 0.0
H755 H 0.51163 0.74982 0.10725 0.0
H756 H 0.54655 0.72595 0.12527 0.0
H757 H 0.38751 0.67563 0.17506 0.0
H758 H 0.38914 0.70974 0.14422 0.0
H759 H 0.39833 0.66712 0.13114 0.0
H760 H 0.41568 0.78408 0.05918 0.0
H761 H 0.43292 0.6836 0.01923 0.0
H762 H 0.46278 0.77802 0.13309 0.0
H763 H 0.42092 0.76468 0.14521 0.0
H764 H 0.42607 0.7993 0.11542 0.0
H765 H 0.48559 0.65474 0.08593 0.0
H766 H 0.45697 0.63992 0.05289 0.0
H767 H 0.44322 0.64203 0.09678 0.0
C768 C 0.11241 0.3475 0.33401 0.0
C769 C 0.12632 0.31908 0.35049 0.0
C770 C 0.12815 0.36158 0.30511 0.0
C771 C 0.1589 0.34719 0.29281 0.0
C772 C 0.17288 0.31824 0.30913 0.0
C773 C 0.15587 0.30397 0.33715 0.0
C774 C 0.11187 0.39184 0.28775 0.0
C775 C 0.20587 0.30247 0.29717 0.0
C776 C 0.18435 0.36931 0.20189 0.0
C777 C 0.20443 0.39831 0.20738 0.0
C778 C 0.16987 0.35177 0.22957 0.0
C779 C 0.17668 0.36304 0.26333 0.0
C780 C 0.19886 0.39102 0.26887 0.0
C781 C 0.21191 0.40878 0.24074 0.0
C782 C 0.1456 0.32267 0.22259 0.0
C783 C 0.20775 0.40302 0.30446 0.0
H784 H 0.08911 0.35861 0.34379 0.0
H785 H 0.16561 0.28077 0.3485 0.0
H786 H 0.12902 0.41427 0.2896 0.0
H787 H 0.10797 0.38636 0.26019 0.0
H788 H 0.08689 0.39862 0.29922 0.0
H789 H 0.21454 0.28154 0.3142 0.0
H790 H 0.20264 0.29212 0.271 0.0
H791 H 0.22622 0.32214 0.29604 0.0
H792 H 0.17822 0.36171 0.17594 0.0
H793 H 0.22745 0.43132 0.24477 0.0
H794 H 0.11948 0.33006 0.23055 0.0
H795 H 0.15284 0.29993 0.23773 0.0
H796 H 0.14491 0.31555 0.19512 0.0
H797 H 0.18484 0.4141 0.31673 0.0
H798 H 0.22825 0.42261 0.30438 0.0
H799 H 0.21616 0.38121 0.32041 0.0
C800 C 0.87256 0.82925 0.5794 0.0
C801 C 0.90547 0.83126 0.59282 0.0
C802 C 0.86421 0.84663 0.54917 0.0
C803 C 0.88947 0.86649 0.53246 0.0
C804 C 0.92321 0.86717 0.54526 0.0
C805 C 0.93082 0.84936 0.57526 0.0
C806 C 0.82796 0.84515 0.53608 0.0
C807 C 0.95077 0.88815 0.52843 0.0
C808 C 0.86444 0.89561 0.44367 0.0
C809 C 0.84881 0.92672 0.45115 0.0
C810 C 0.87992 0.8764 0.46965 0.0
C811 C 0.87959 0.8889 0.50359 0.0
C812 C 0.86639 0.92175 0.51051 0.0
C813 C 0.85075 0.94015 0.48414 0.0
C814 C 0.8939 0.84159 0.46126 0.0
C815 C 0.8662 0.93627 0.54625 0.0
H816 H 0.85321 0.81527 0.5933 0.0
H817 H 0.9563 0.85069 0.58604 0.0
H818 H 0.81599 0.87063 0.53855 0.0
H819 H 0.82763 0.83828 0.50859 0.0
H820 H 0.81222 0.82639 0.55031 0.0
H821 H 0.9764 0.88297 0.53945 0.0
H822 H 0.95149 0.883 0.50058 0.0
H823 H 0.9451 0.91563 0.53175 0.0
H824 H 0.86211 0.88506 0.41816 0.0
H825 H 0.838 0.96401 0.48978 0.0
H826 H 0.87625 0.82179 0.47112 0.0
H827 H 0.91899 0.83764 0.47381 0.0
H828 H 0.89682 0.83781 0.43329 0.0
H829 H 0.84799 0.92168 0.56225 0.0
H830 H 0.85859 0.96353 0.54659 0.0
H831 H 0.89179 0.93388 0.5582 0.0
C832 C 0.29774 0.6196 0.69308 0.0
C833 C 0.31818 0.6002 0.67127 0.0
C834 C 0.31263 0.63886 0.71947 0.0
C835 C 0.3486 0.63881 0.72351 0.0
C836 C 0.36928 0.62251 0.69893 0.0
C837 C 0.35375 0.6031 0.67322 0.0
C838 C 0.28973 0.65611 0.7451 0.0
C839 C 0.40769 0.62248 0.70183 0.0
C840 C 0.38806 0.69517 0.79192 0.0
C841 C 0.39075 0.67224 0.81914 0.0
C842 C 0.37502 0.68465 0.76021 0.0
C843 C 0.36414 0.6505 0.75609 0.0
C844 C 0.36772 0.62708 0.78348 0.0
C845 C 0.38102 0.63834 0.81478 0.0
C846 C 0.37177 0.71024 0.73164 0.0
C847 C 0.35644 0.5904 0.7801 0.0
H848 H 0.27022 0.61704 0.69169 0.0
H849 H 0.36948 0.58807 0.65617 0.0
H850 H 0.28926 0.6409 0.76898 0.0
H851 H 0.29955 0.68182 0.75167 0.0
H852 H 0.26315 0.65855 0.73546 0.0
H853 H 0.41998 0.61406 0.67773 0.0
H854 H 0.41738 0.64821 0.70854 0.0
H855 H 0.41555 0.60481 0.72253 0.0
H856 H 0.39505 0.7216 0.79601 0.0
H857 H 0.38257 0.62113 0.83636 0.0
H858 H 0.34441 0.71522 0.72638 0.0
H859 H 0.38307 0.7 0.70781 0.0
H860 H 0.38442 0.73482 0.73795 0.0
H861 H 0.32872 0.58931 0.77433 0.0
H862 H 0.36139 0.57547 0.8037 0.0
H863 H 0.36996 0.57804 0.75856 0.0
C864 C 0.54686 0.12844 0.0513 0.0
C865 C 0.55866 0.11702 0.08306 0.0
C866 C 0.56199 0.11716 0.02095 0.0
C867 C 0.58977 0.09424 0.02265 0.0
C868 C 0.60168 0.08256 0.05477 0.0
C869 C 0.58597 0.09421 0.08465 0.0
C870 C 0.54863 0.13013 0.98717 0.0
C871 C 0.63152 0.05843 0.05759 0.0
C872 C 0.61952 0.04465 0.94494 0.0
C873 C 0.64804 0.06385 0.93515 0.0
C874 C 0.59951 0.05473 0.97288 0.0
C875 C 0.60832 0.08466 0.99116 0.0
C876 C 0.63621 0.10481 0.98044 0.0
C877 C 0.65569 0.09417 0.95259 0.0
C878 C 0.56975 0.03278 0.98358 0.0
C879 C 0.64632 0.137 -0.00083 0.0
H880 H 0.52552 0.14594 0.05034 0.0
H881 H 0.59535 0.086 0.10935 0.0
H882 H 0.56861 0.14547 0.9743 0.0
H883 H 0.54237 0.10844 0.97007 0.0
H884 H 0.52552 0.14618 0.99022 0.0
H885 H 0.63631 0.05028 0.08435 0.0
H886 H 0.62691 0.03544 0.04172 0.0
H887 H 0.6549 0.07097 0.04774 0.0
H888 H 0.61348 0.02124 0.93151 0.0
H889 H 0.67751 0.10935 0.94496 0.0
H890 H 0.54636 0.04846 0.98597 0.0
H891 H 0.575 0.02154 0.00906 0.0
H892 H 0.56473 0.01176 0.96521 0.0
H893 H 0.62423 0.15452 0.00099 0.0
H894 H 0.66764 0.15065 0.98646 0.0
H895 H 0.65429 0.13065 0.02563 0.0
C896 C 0.62773 0.1506 0.63907 0.0
C897 C 0.60389 0.17683 0.64257 0.0
C898 C 0.63915 0.13232 0.66756 0.0
C899 C 0.62583 0.14015 0.70019 0.0
C900 C 0.60021 0.16532 0.70355 0.0
C901 C 0.58951 0.18345 0.67454 0.0
C902 C 0.66637 0.10554 0.66289 0.0
C903 C 0.58509 0.17398 0.73788 0.0
C904 C 0.64084 0.07343 0.76834 0.0
C905 C 0.66972 0.08646 0.78517 0.0
C906 C 0.62552 0.09125 0.74139 0.0
C907 C 0.63966 0.12265 0.7308 0.0
C908 C 0.66832 0.13637 0.74819 0.0
C909 C 0.68292 0.11816 0.77536 0.0
C910 C 0.59476 0.07604 0.7237 0.0
C911 C 0.68421 0.16972 0.73738 0.0
H912 H 0.63807 0.14508 0.61405 0.0
H913 H 0.57102 0.2038 0.677 0.0
H914 H 0.68965 0.11294 0.67731 0.0
H915 H 0.65756 0.08078 0.6733 0.0
H916 H 0.67332 0.10195 0.63563 0.0
H917 H 0.56357 0.19225 0.73571 0.0
H918 H 0.57584 0.15054 0.75072 0.0
H919 H 0.60502 0.18537 0.75453 0.0
H920 H 0.63031 0.04907 0.77604 0.0
H921 H 0.70523 0.12831 0.78829 0.0
H922 H 0.60132 0.06944 0.69696 0.0
H923 H 0.57371 0.09488 0.72268 0.0
H924 H 0.58539 0.05268 0.73669 0.0
H925 H 0.69411 0.16742 0.71095 0.0
H926 H 0.70553 0.17756 0.75444 0.0
H927 H 0.66472 0.19018 0.73724 0.0
C928 C 0.14382 0.38784 0.06057 0.0
C929 C 0.14184 0.42166 0.07189 0.0
C930 C 0.12218 0.37568 0.03486 0.0
C931 C 0.09804 0.39799 0.02005 0.0
C932 C 0.09369 0.4312 0.03368 0.0
C933 C 0.11574 0.44271 0.05968 0.0
C934 C 0.12754 0.34002 0.02135 0.0
C935 C 0.06789 0.45555 0.0188 0.0
C936 C 0.08456 0.38473 0.9252 0.0
C937 C 0.0537 0.36692 0.92448 0.0
C938 C 0.09884 0.39555 0.95618 0.0
C939 C 0.0817 0.3883 0.98718 0.0
C940 C 0.05049 0.37011 0.98657 0.0
C941 C 0.0369 0.35943 0.95508 0.0
C942 C 0.13243 0.41447 0.95572 0.0
C943 C 0.03149 0.36209 0.01906 0.0
H944 H 0.16381 0.37142 0.07038 0.0
H945 H 0.11425 0.46889 0.06844 0.0
H946 H 0.10279 0.32679 0.01765 0.0
H947 H 0.14024 0.34138 0.99608 0.0
H948 H 0.14372 0.32448 0.0387 0.0
H949 H 0.06346 0.47775 0.03583 0.0
H950 H 0.0773 0.46513 0.99388 0.0
H951 H 0.04322 0.44246 0.01405 0.0
H952 H 0.09746 0.39011 0.90136 0.0
H953 H 0.01277 0.34594 0.95417 0.0
H954 H 0.15197 0.3998 0.97003 0.0
H955 H 0.12969 0.43951 0.96859 0.0
H956 H 0.14189 0.41885 0.92936 0.0
H957 H 0.04756 0.34611 0.03601 0.0
H958 H 0.0071 0.34848 0.01408 0.0
H959 H 0.02592 0.38599 0.03311 0.0
C960 C 0.83399 0.86347 0.33115 0.0
C961 C 0.80612 0.88223 0.31912 0.0
C962 C 0.85612 0.84732 0.30817 0.0
C963 C 0.84969 0.84994 0.27267 0.0
C964 C 0.8195 0.86591 0.26085 0.0
C965 C 0.79828 0.88235 0.28431 0.0
C966 C 0.88795 0.83045 0.32173 0.0
C967 C 0.81116 0.86825 0.22322 0.0
C968 C 0.91977 0.85813 0.20704 0.0
C969 C 0.91747 0.82663 0.19076 0.0
C970 C 0.8994 0.86521 0.23557 0.0
C971 C 0.87612 0.84017 0.2475 0.0
C972 C 0.87531 0.80756 0.23218 0.0
C973 C 0.89623 0.80114 0.204 0.0
C974 C 0.90112 0.90025 0.25144 0.0
C975 C 0.85118 0.78014 0.24436 0.0
H976 H 0.84024 0.86411 0.35815 0.0
H977 H 0.77685 0.89732 0.27523 0.0
H978 H 0.89297 0.8062 0.30812 0.0
H979 H 0.91015 0.84747 0.31734 0.0
H980 H 0.88616 0.82524 0.34956 0.0
H981 H 0.78495 0.878 0.21864 0.0
H982 H 0.82954 0.88567 0.21058 0.0
H983 H 0.81357 0.8429 0.21091 0.0
H984 H 0.93618 0.87763 0.19637 0.0
H985 H 0.89477 0.77679 0.19097 0.0
H986 H 0.90324 0.89828 0.27964 0.0
H987 H 0.87728 0.91433 0.24559 0.0
H988 H 0.92306 0.91532 0.24175 0.0
H989 H 0.85814 0.7725 0.27074 0.0
H990 H 0.85175 0.75716 0.22778 0.0
H991 H 0.82468 0.78996 0.24519 0.0
C992 C 0.30692 0.55466 0.50938 0.0
C993 C 0.325 0.53567 0.53382 0.0
C994 C 0.32306 0.56756 0.48035 0.0
C995 C 0.35807 0.56085 0.47527 0.0
C996 C 0.37621 0.5404 0.49894 0.0
C997 C 0.3595 0.52829 0.52822 0.0
C998 C 0.30295 0.58962 0.45591 0.0
C999 C 0.41349 0.5323 0.49395 0.0
C1000 C 0.392 0.57832 0.38642 0.0
C1001 C 0.40789 0.60998 0.39107 0.0
C1002 C 0.3765 0.56145 0.41387 0.0
C1003 C 0.37599 0.57726 0.44635 0.0
C1004 C 0.39103 0.60978 0.45088 0.0
C1005 C 0.40692 0.62569 0.42315 0.0
C1006 C 0.36078 0.52675 0.40816 0.0
C1007 C 0.39032 0.62777 0.48499 0.0
H1008 H 0.2802 0.56045 0.51338 0.0
H1009 H 0.37368 0.51382 0.54701 0.0
H1010 H 0.31358 0.61585 0.45596 0.0
H1011 H 0.30509 0.5797 0.42948 0.0
H1012 H 0.27549 0.59101 0.46272 0.0
H1013 H 0.42271 0.51277 0.5123 0.0
H1014 H 0.41805 0.52301 0.46758 0.0
H1015 H 0.4289 0.55579 0.49747 0.0
H1016 H 0.39174 0.56674 0.36134 0.0
H1017 H 0.41922 0.6502 0.42664 0.0
H1018 H 0.33293 0.52783 0.41293 0.0
H1019 H 0.37173 0.50814 0.42647 0.0
H1020 H 0.36497 0.51723 0.38177 0.0
H1021 H 0.36352 0.63154 0.49323 0.0
H1022 H 0.40318 0.653 0.48416 0.0
H1023 H 0.40303 0.61189 0.50468 0.0
C1024 C 0.19017 0.18326 0.37787 0.0
C1025 C 0.17747 0.16486 0.40577 0.0
C1026 C 0.21839 0.17129 0.35942 0.0
C1027 C 0.23415 0.14036 0.36929 0.0
C1028 C 0.22062 0.12112 0.39661 0.0
C1029 C 0.19242 0.13356 0.41444 0.0
C1030 C 0.23204 0.19232 0.33021 0.0
C1031 C 0.23672 0.08799 0.40787 0.0
C1032 C 0.2946 0.0939 0.31005 0.0
C1033 C 0.32629 0.10436 0.32284 0.0
C1034 C 0.26424 0.10605 0.32439 0.0
C1035 C 0.26589 0.12879 0.35242 0.0
C1036 C 0.29798 0.13917 0.36557 0.0
C1037 C 0.32788 0.12681 0.35051 0.0
C1038 C 0.23049 0.09462 0.3096 0.0
C1039 C 0.30073 0.16301 0.39576 0.0
H1040 H 0.17873 0.20746 0.37105 0.0
H1041 H 0.18261 0.11907 0.43585 0.0
H1042 H 0.25743 0.20279 0.3372 0.0
H1043 H 0.23553 0.1762 0.3072 0.0
H1044 H 0.21491 0.21388 0.32361 0.0
H1045 H 0.22204 0.07532 0.42851 0.0
H1046 H 0.2387 0.07019 0.38595 0.0
H1047 H 0.26301 0.09286 0.41729 0.0
H1048 H 0.29373 0.07673 0.28837 0.0
H1049 H 0.35258 0.13441 0.36042 0.0
H1050 H 0.21519 0.11711 0.30189 0.0
H1051 H 0.21565 0.08071 0.32925 0.0
H1052 H 0.23371 0.07775 0.28705 0.0
H1053 H 0.28698 0.18708 0.39026 0.0
H1054 H 0.32763 0.16921 0.40229 0.0
H1055 H 0.28848 0.15128 0.41841 0.0
C1056 C 0.07833 0.03701 0.5241 0.0
C1057 C 0.0881 0.05942 0.55018 0.0
C1058 C 0.06439 0.00501 0.53182 0.0
C1059 C 0.06007 0.99567 0.56643 0.0
C1060 C 0.06881 0.01902 0.59278 0.0
C1061 C 0.08305 0.05061 0.58424 0.0
C1062 C 0.05583 0.98078 0.50308 0.0
C1063 C 0.06413 0.01023 0.63004 0.0
C1064 C 0.00741 0.92384 0.60236 0.0
C1065 C 0.03357 0.9029 0.61463 0.0
C1066 C 0.01521 0.953 0.58314 0.0
C1067 C 0.04979 0.96058 0.57587 0.0
C1068 C 0.07554 0.93673 0.58413 0.0
C1069 C 0.06713 0.90827 0.60383 0.0
C1070 C 0.98698 0.97755 0.57427 0.0
C1071 C 0.11257 0.94325 0.57582 0.0
H1072 H 0.08237 0.0444 0.49774 0.0
H1073 H 0.09047 0.06847 0.60406 0.0
H1074 H 0.07593 0.96098 0.50141 0.0
H1075 H 0.03127 0.96756 0.50782 0.0
H1076 H 0.05434 0.99408 0.47808 0.0
H1077 H 0.0695 0.03225 0.64709 0.0
H1078 H 0.03765 0.00137 0.63469 0.0
H1079 H 0.08155 0.98911 0.63715 0.0
H1080 H 0.98141 0.91951 0.61067 0.0
H1081 H 0.08724 0.89168 0.6131 0.0
H1082 H 0.9906 0.98827 0.54833 0.0
H1083 H 0.98743 -0.0009 0.59264 0.0
H1084 H 0.96148 0.9652 0.57558 0.0
H1085 H 0.1153 0.95322 0.54946 0.0
H1086 H 0.12821 0.9198 0.57838 0.0
H1087 H 0.12294 0.96275 0.5936 0.0
C1088 C 0.18447 0.83708 0.75857 0.0
C1089 C 0.17183 0.87007 0.76346 0.0
C1090 C 0.21275 0.82543 0.77707 0.0
C1091 C 0.22972 0.84799 0.79967 0.0
C1092 C 0.21949 0.88258 0.80142 0.0
C1093 C 0.19032 0.89318 0.78345 0.0
C1094 C 0.2223 0.78823 0.7748 0.0
C1095 C 0.23784 0.90776 0.82414 0.0
C1096 C 0.26473 0.81176 0.88211 0.0
C1097 C 0.29932 0.80785 0.87448 0.0
C1098 C 0.24184 0.8242 0.85766 0.0
C1099 C 0.25416 0.83423 0.8252 0.0
C1100 C 0.28925 0.8306 0.81743 0.0
C1101 C 0.31142 0.81676 0.84208 0.0
C1102 C 0.20442 0.82648 0.86659 0.0
C1103 C 0.30343 0.84211 0.78355 0.0
H1104 H 0.17075 0.81974 0.74188 0.0
H1105 H 0.18092 0.91897 0.7864 0.0
H1106 H 0.25026 0.78518 0.77201 0.0
H1107 H 0.21479 0.77521 0.7988 0.0
H1108 H 0.20942 0.77521 0.75308 0.0
H1109 H 0.23096 0.93448 0.81784 0.0
H1110 H 0.23095 0.90292 0.85117 0.0
H1111 H 0.26588 0.90475 0.82187 0.0
H1112 H 0.25547 0.80458 0.90718 0.0
H1113 H 0.33834 0.81397 0.83646 0.0
H1114 H 0.1889 0.81256 0.84734 0.0
H1115 H 0.1961 0.85348 0.8662 0.0
H1116 H 0.19882 0.81576 0.89223 0.0
H1117 H 0.28989 0.82924 0.76224 0.0
H1118 H 0.33118 0.83687 0.78126 0.0
H1119 H 0.29921 0.8699 0.78048 0.0
C1120 C 0.37989 0.02159 0.16353 0.0
C1121 C 0.41129 0.03569 0.15369 0.0
C1122 C 0.36448 0.9956 0.1444 0.0
C1123 C 0.38107 0.98311 0.11495 0.0
C1124 C 0.41246 -0.00235 0.10447 0.0
C1125 C 0.42712 0.02399 0.12389 0.0
C1126 C 0.3308 0.98102 0.15613 0.0
C1127 C 0.43101 0.9847 0.07332 0.0
C1128 C 0.36269 0.89237 0.0875 0.0
C1129 C 0.34189 0.89742 0.05887 0.0
C1130 C 0.37547 0.92008 0.10612 0.0
C1131 C 0.36652 0.95358 0.09619 0.0
C1132 C 0.34402 0.95872 0.06829 0.0
C1133 C 0.33196 0.93044 0.04986 0.0
C1134 C 0.39924 0.91352 0.13583 0.0
C1135 C 0.33349 0.99406 0.05736 0.0
H1136 H 0.36734 0.03077 0.18639 0.0
H1137 H 0.45139 0.0348 0.11622 0.0
H1138 H 0.31192 0.98168 0.13497 0.0
H1139 H 0.33415 0.95395 0.16353 0.0
H1140 H 0.32018 0.9951 0.1783 0.0
H1141 H 0.45453 -0.00045 0.06791 0.0
H1142 H 0.43812 0.9576 0.0771 0.0
H1143 H 0.41405 0.98584 0.05061 0.0
H1144 H 0.36939 0.86665 0.0949 0.0
H1145 H 0.31578 0.93408 0.02767 0.0
H1146 H 0.38874 0.92494 0.15948 0.0
H1147 H 0.42428 0.92582 0.13102 0.0
H1148 H 0.40347 0.88588 0.14028 0.0
H1149 H 0.32263 0.00818 0.07933 0.0
H1150 H 0.31433 0.99355 0.03638 0.0
H1151 H 0.35618 0.00848 0.04855 0.0
C1152 C 0.81683 0.38293 0.70046 0.0
C1153 C 0.83282 0.41104 0.68526 0.0
C1154 C 0.78801 0.36785 0.68557 0.0
C1155 C 0.77453 0.38168 0.65503 0.0
C1156 C 0.78894 0.41184 0.64118 0.0
C1157 C 0.81808 0.4262 0.65652 0.0
C1158 C 0.77377 0.33571 0.70124 0.0
C1159 C 0.77474 0.42782 0.60911 0.0
C1160 C 0.73503 0.32245 0.5896 0.0
C1161 C 0.70017 0.32786 0.59466 0.0
C1162 C 0.75937 0.33895 0.60997 0.0
C1163 C 0.7485 0.36228 0.63528 0.0
C1164 C 0.71316 0.3673 0.64098 0.0
C1165 C 0.68926 0.34963 0.62073 0.0
C1166 C 0.79676 0.33206 0.60377 0.0
C1167 C 0.7007 0.39223 0.66749 0.0
H1168 H 0.82786 0.37191 0.72335 0.0
H1169 H 0.83025 0.44832 0.6453 0.0
H1170 H 0.74553 0.33503 0.69966 0.0
H1171 H 0.78364 0.31335 0.68701 0.0
H1172 H 0.78147 0.33308 0.72845 0.0
H1173 H 0.7858 0.45344 0.60428 0.0
H1174 H 0.78046 0.41126 0.58688 0.0
H1175 H 0.74659 0.43013 0.61082 0.0
H1176 H 0.74324 0.30565 0.56921 0.0
H1177 H 0.66219 0.35412 0.62407 0.0
H1178 H 0.80944 0.32444 0.62797 0.0
H1179 H 0.80948 0.35562 0.59466 0.0
H1180 H 0.8008 0.31165 0.58453 0.0
H1181 H 0.71192 0.38615 0.6928 0.0
H1182 H 0.67245 0.39216 0.66971 0.0
H1183 H 0.70921 0.41833 0.66067 0.0
C1184 C 0.89656 0.48717 0.84258 0.0
C1185 C 0.92456 0.46727 0.85257 0.0
C1186 C 0.88539 0.51444 0.86268 0.0
C1187 C 0.90288 0.52221 0.89336 0.0
C1188 C 0.93046 0.50155 0.90421 0.0
C1189 C 0.94087 0.47411 0.88373 0.0
C1190 C 0.85562 0.53564 0.85047 0.0
C1191 C 0.94981 0.50925 0.93673 0.0
C1192 C 0.90064 0.61413 0.92274 0.0
C1193 C 0.87723 0.61261 0.94959 0.0
C1194 C 0.90939 0.5848 0.90441 0.0
C1195 C 0.89376 0.55335 0.91277 0.0
C1196 C 0.86917 0.55191 0.93914 0.0
C1197 C 0.86116 0.58169 0.95728 0.0
C1198 C 0.93556 0.58743 0.87628 0.0
C1199 C 0.85167 0.51891 0.94843 0.0
H1200 H 0.88361 0.48177 0.81866 0.0
H1201 H 0.96253 0.45881 0.89154 0.0
H1202 H 0.83633 0.5381 0.87099 0.0
H1203 H 0.86454 0.56171 0.84411 0.0
H1204 H 0.84311 0.52456 0.8275 0.0
H1205 H 0.96927 0.48954 0.94262 0.0
H1206 H 0.96283 0.53427 0.93435 0.0
H1207 H 0.93194 0.51113 0.95856 0.0
H1208 H 0.91214 0.63834 0.91616 0.0
H1209 H 0.84298 0.58074 0.97805 0.0
H1210 H 0.92405 0.57949 0.8516 0.0
H1211 H 0.95715 0.56994 0.88159 0.0
H1212 H 0.94576 0.6137 0.87348 0.0
H1213 H 0.83862 0.50809 0.92569 0.0
H1214 H 0.83261 0.52231 0.96909 0.0
H1215 H 0.87088 0.49998 0.95694 0.0
C1216 C 0.81383 0.68138 0.11932 0.0
C1217 C 0.82945 0.71312 0.12431 0.0
C1218 C 0.78533 0.67179 0.13823 0.0
C1219 C 0.77194 0.69463 0.16268 0.0
C1220 C 0.78841 0.7262 0.16898 0.0
C1221 C 0.81742 0.73498 0.14986 0.0
C1222 C 0.76865 0.63778 0.13083 0.0
C1223 C 0.77491 0.75097 0.19513 0.0
C1224 C 0.67801 0.67821 0.17417 0.0
C1225 C 0.67838 0.6559 0.20194 0.0
C1226 C 0.70823 0.69337 0.16271 0.0
C1227 C 0.73937 0.68576 0.17949 0.0
C1228 C 0.73947 0.6647 0.20879 0.0
C1229 C 0.70888 0.64971 0.2195 0.0
C1230 C 0.70715 0.71566 0.1313 0.0
C1231 C 0.77212 0.65642 0.22754 0.0
H1232 H 0.82347 0.6642 0.09992 0.0
H1233 H 0.8297 0.75945 0.15386 0.0
H1234 H 0.76607 0.62281 0.1547 0.0
H1235 H 0.7426 0.64188 0.12045 0.0
H1236 H 0.7833 0.62241 0.11211 0.0
H1237 H 0.78767 0.77621 0.19346 0.0
H1238 H 0.74703 0.75464 0.19186 0.0
H1239 H 0.77913 0.7405 0.22111 0.0
H1240 H 0.65433 0.68253 0.16053 0.0
H1241 H 0.70874 0.63269 0.2413 0.0
H1242 H 0.71921 0.70205 0.10962 0.0
H1243 H 0.72182 0.73947 0.13565 0.0
H1244 H 0.68063 0.72242 0.12388 0.0
H1245 H 0.78788 0.63912 0.21168 0.0
H1246 H 0.76721 0.6438 0.25245 0.0
H1247 H 0.78725 0.67991 0.23208 0.0
C1248 C 0.63918 0.42005 0.39167 0.0
C1249 C 0.65817 0.42053 0.42192 0.0
C1250 C 0.62509 0.45004 0.37848 0.0
C1251 C 0.63018 0.48116 0.39615 0.0
C1252 C 0.65032 0.48191 0.42622 0.0
C1253 C 0.66422 0.45144 0.43873 0.0
C1254 C 0.60415 0.44829 0.34607 0.0
C1255 C 0.65627 0.51462 0.44566 0.0
C1256 C 0.61597 0.55869 0.34111 0.0
C1257 C 0.58178 0.56648 0.34817 0.0
C1258 C 0.63267 0.53212 0.358 0.0
C1259 C 0.61472 0.51283 0.38254 0.0
C1260 C 0.58087 0.5219 0.3914 0.0
C1261 C 0.56474 0.54881 0.37409 0.0
C1262 C 0.66882 0.52342 0.34801 0.0
C1263 C 0.56108 0.50195 0.41769 0.0
H1264 H 0.63472 0.39593 0.37892 0.0
H1265 H 0.67857 0.4514 0.46244 0.0
H1266 H 0.57773 0.45698 0.35119 0.0
H1267 H 0.61508 0.46559 0.32654 0.0
H1268 H 0.60303 0.42211 0.33531 0.0
H1269 H 0.6737 0.51105 0.4678 0.0
H1270 H 0.66725 0.53427 0.42854 0.0
H1271 H 0.63159 0.52462 0.45513 0.0
H1272 H 0.62943 0.57264 0.3214 0.0
H1273 H 0.53834 0.55482 0.37963 0.0
H1274 H 0.66905 0.49867 0.33428 0.0
H1275 H 0.68512 0.52056 0.37104 0.0
H1276 H 0.68032 0.54308 0.33117 0.0
H1277 H 0.55552 0.47607 0.40765 0.0
H1278 H 0.53655 0.51442 0.4243 0.0
H1279 H 0.57642 0.49881 0.44134 0.0
C1280 C 0.29816 0.29448 0.08756 0.0
C1281 C 0.31619 0.32515 0.09057 0.0
C1282 C 0.31123 0.26429 0.10154 0.0
C1283 C 0.34291 0.26517 0.11896 0.0
C1284 C 0.36187 0.29588 0.12063 0.0
C1285 C 0.34833 0.32548 0.10607 0.0
C1286 C 0.29067 0.23185 0.09876 0.0
C1287 C 0.39588 0.29777 0.13879 0.0
C1288 C 0.36677 0.20072 0.18701 0.0
C1289 C 0.39131 0.18163 0.16964 0.0
C1290 C 0.34946 0.22727 0.17033 0.0
C1291 C 0.35662 0.23414 0.1355 0.0
C1292 C 0.37965 0.21328 0.11738 0.0
C1293 C 0.39696 0.18746 0.13478 0.0
C1294 C 0.32513 0.24923 0.19043 0.0
C1295 C 0.38742 0.21935 0.0801 0.0
H1296 H 0.27313 0.29454 0.07571 0.0
H1297 H 0.36226 0.34929 0.10782 0.0
H1298 H 0.30663 0.211 0.08833 0.0
H1299 H 0.28215 0.22382 0.12453 0.0
H1300 H 0.26782 0.23495 0.08219 0.0
H1301 H 0.40733 0.32366 0.13765 0.0
H1302 H 0.39271 0.29056 0.166 0.0
H1303 H 0.41401 0.27942 0.12726 0.0
H1304 H 0.36246 0.19611 0.21396 0.0
H1305 H 0.41561 0.17225 0.12121 0.0
H1306 H 0.30052 0.25179 0.17662 0.0
H1307 H 0.33603 0.2752 0.19326 0.0
H1308 H 0.32011 0.23875 0.21629 0.0
H1309 H 0.36346 0.22207 0.0652 0.0
H1310 H 0.40271 0.19838 0.06883 0.0
H1311 H 0.40196 0.24347 0.07732 0.0
C1312 C 0.89253 0.30788 0.84842 0.0
C1313 C 0.88839 0.323 0.81625 0.0
C1314 C 0.87275 0.27997 0.85824 0.0
C1315 C 0.84817 0.26676 0.83528 0.0
C1316 C 0.8424 0.28309 0.80348 0.0
C1317 C 0.86255 0.31134 0.79436 0.0
C1318 C 0.87968 0.26339 0.89241 0.0
C1319 C 0.81606 0.26981 0.77861 0.0
C1320 C 0.83392 0.17221 0.847 0.0
C1321 C 0.80486 0.17185 0.86756 0.0
C1322 C 0.84736 0.20299 0.83491 0.0
C1323 C 0.83118 0.23405 0.84365 0.0
C1324 C 0.80123 0.23368 0.86375 0.0
C1325 C 0.78857 0.20247 0.87575 0.0
C1326 C 0.8796 0.20235 0.8139 0.0
C1327 C 0.78321 0.26624 0.87339 0.0
H1328 H 0.91219 0.31719 0.86563 0.0
H1329 H 0.85926 0.32311 0.76952 0.0
H1330 H 0.85563 0.26033 0.90693 0.0
H1331 H 0.89045 0.23757 0.88838 0.0
H1332 H 0.89794 0.27833 0.90824 0.0
H1333 H 0.81526 0.28492 0.75465 0.0
H1334 H 0.8216 0.24288 0.77205 0.0
H1335 H 0.79046 0.27038 0.79059 0.0
H1336 H 0.84655 0.14839 0.84113 0.0
H1337 H 0.76582 0.20183 0.8914 0.0
H1338 H 0.90065 0.21465 0.82842 0.0
H1339 H 0.87602 0.21705 0.78996 0.0
H1340 H 0.88748 0.17601 0.8072 0.0
H1341 H 0.79953 0.28129 0.89103 0.0
H1342 H 0.75838 0.26132 0.88608 0.0
H1343 H 0.7787 0.2821 0.85037 0.0
C1344 C 0.08336 0.57184 0.1778 0.0
C1345 C 0.11488 0.57984 0.16322 0.0
C1346 C 0.05378 0.58947 0.16801 0.0
C1347 C 0.05619 0.61557 0.14316 0.0
C1348 C 0.08839 0.6247 0.12964 0.0
C1349 C 0.11741 0.60674 0.14 0.0
C1350 C 0.0199 0.57931 0.18315 0.0
C1351 C 0.09206 0.65258 0.10331 0.0
C1352 C 0.98158 0.64125 0.08702 0.0
C1353 C 0.97285 0.67266 0.10148 0.0
C1354 C 0.00779 0.62144 0.10131 0.0
C1355 C 0.02521 0.63334 0.13081 0.0
C1356 C 0.01506 0.66406 0.14656 0.0
C1357 C 0.98909 0.68341 0.13163 0.0
C1358 C 0.01803 0.58872 0.08386 0.0
C1359 C 0.0328 0.67742 0.17818 0.0
H1360 H 0.08169 0.55071 0.19553 0.0
H1361 H 0.14205 0.61277 0.12905 0.0
H1362 H 0.00658 0.60199 0.19344 0.0
H1363 H 0.00335 0.56828 0.16291 0.0
H1364 H 0.02277 0.56025 0.20393 0.0
H1365 H 0.11907 0.65696 0.09597 0.0
H1366 H 0.07733 0.64583 0.08001 0.0
H1367 H 0.08143 0.67679 0.1133 0.0
H1368 H 0.96902 0.63289 0.06376 0.0
H1369 H 0.98205 0.70749 0.14321 0.0
H1370 H 0.0192 0.56758 0.10262 0.0
H1371 H 0.04393 0.59163 0.07285 0.0
H1372 H 9e-05 0.58154 0.06303 0.0
H1373 H 0.03452 0.65721 0.19791 0.0
H1374 H 0.01947 0.69977 0.18929 0.0
H1375 H 0.05925 0.68512 0.17171 0.0
C1376 C 0.66426 0.81332 0.43513 0.0
C1377 C 0.65668 0.84699 0.42645 0.0
C1378 C 0.64531 0.78632 0.42111 0.0
C1379 C 0.61862 0.79355 0.39772 0.0
C1380 C 0.60911 0.82774 0.39135 0.0
C1381 C 0.62814 0.85409 0.40618 0.0
C1382 C 0.65565 0.75017 0.42911 0.0
C1383 C 0.58099 0.8366 0.36646 0.0
C1384 C 0.604 0.7307 0.32557 0.0
C1385 C 0.57374 0.71477 0.3358 0.0
C1386 C 0.61887 0.7564 0.3456 0.0
C1387 C 0.60339 0.76584 0.37688 0.0
C1388 C 0.57306 0.74955 0.38754 0.0
C1389 C 0.55842 0.72439 0.3667 0.0
C1390 C 0.65099 0.77365 0.33315 0.0
C1391 C 0.55619 0.75863 0.42095 0.0
H1392 H 0.68656 0.80812 0.45071 0.0
H1393 H 0.62246 0.88036 0.39985 0.0
H1394 H 0.63287 0.73414 0.4341 0.0
H1395 H 0.66905 0.73912 0.40678 0.0
H1396 H 0.67298 0.74885 0.45158 0.0
H1397 H 0.57435 0.86409 0.36732 0.0
H1398 H 0.58931 0.83026 0.34014 0.0
H1399 H 0.55772 0.82143 0.37179 0.0
H1400 H 0.61587 0.72334 0.30171 0.0
H1401 H 0.53518 0.71186 0.37493 0.0
H1402 H 0.67183 0.77014 0.35206 0.0
H1403 H 0.64663 0.80146 0.33058 0.0
H1404 H 0.6596 0.76352 0.30812 0.0
H1405 H 0.5745 0.75523 0.44234 0.0
H1406 H 0.53322 0.74283 0.42599 0.0
H1407 H 0.54857 0.78584 0.42079 0.0
C1408 C 0.52486 0.35051 0.55283 0.0
C1409 C 0.55952 0.35878 0.55406 0.0
C1410 C 0.50076 0.37072 0.5695 0.0
C1411 C 0.51188 0.3992 0.5888 0.0
C1412 C 0.54689 0.40819 0.58939 0.0
C1413 C 0.5704 0.38798 0.57152 0.0
C1414 C 0.46351 0.36091 0.56735 0.0
C1415 C 0.55966 0.43799 0.61021 0.0
C1416 C 0.44005 0.45924 0.60982 0.0
C1417 C 0.42798 0.44504 0.6403 0.0
C1418 C 0.4689 0.44603 0.59364 0.0
C1419 C 0.48652 0.41858 0.60896 0.0
C1420 C 0.47641 0.40653 0.64155 0.0
C1421 C 0.44698 0.41988 0.65685 0.0
C1422 C 0.4786 0.45956 0.55889 0.0
C1423 C 0.49524 0.37793 0.65912 0.0
H1424 H 0.51669 0.32778 0.53928 0.0
H1425 H 0.59742 0.39385 0.57283 0.0
H1426 H 0.45427 0.35309 0.59293 0.0
H1427 H 0.44801 0.38308 0.5591 0.0
H1428 H 0.45896 0.33958 0.54922 0.0
H1429 H 0.58711 0.44333 0.60561 0.0
H1430 H 0.54474 0.46125 0.60429 0.0
H1431 H 0.55612 0.43249 0.63777 0.0
H1432 H 0.42599 0.47982 0.59793 0.0
H1433 H 0.43777 0.4095 0.68075 0.0
H1434 H 0.46999 0.44126 0.53902 0.0
H1435 H 0.50665 0.46225 0.55652 0.0
H1436 H 0.46658 0.48462 0.55358 0.0
H1437 H 0.48974 0.35357 0.64578 0.0
H1438 H 0.48757 0.37524 0.68628 0.0
H1439 H 0.5232 0.38224 0.65796 0.0
C1440 C 0.14766 0.6433 0.58259 0.0
C1441 C 0.14501 0.61312 0.60135 0.0
C1442 C 0.13061 0.67279 0.5932 0.0
C1443 C 0.11066 0.67175 0.62327 0.0
C1444 C 0.10632 0.64068 0.64108 0.0
C1445 C 0.12337 0.61158 0.62963 0.0
C1446 C 0.13534 0.70539 0.5733 0.0
C1447 C 0.08511 0.63856 0.67315 0.0
C1448 C 0.09835 0.75324 0.67378 0.0
C1449 C 0.0649 0.76191 0.66474 0.0
C1450 C 0.11374 0.72398 0.66021 0.0
C1451 C 0.09526 0.70335 0.63685 0.0
C1452 C 0.06176 0.71239 0.62715 0.0
C1453 C 0.04692 0.74148 0.64133 0.0
C1454 C 0.14952 0.71483 0.67124 0.0
C1455 C 0.04146 0.69116 0.60207 0.0
H1456 H 0.16462 0.64423 0.56079 0.0
H1457 H 0.12118 0.58789 0.64367 0.0
H1458 H 0.11025 0.71707 0.56745 0.0
H1459 H 0.14995 0.72397 0.58896 0.0
H1460 H 0.14924 0.70118 0.54898 0.0
H1461 H 0.08318 0.61209 0.68305 0.0
H1462 H 0.09664 0.65484 0.69331 0.0
H1463 H 0.05901 0.6483 0.66824 0.0
H1464 H 0.11227 0.76896 0.69188 0.0
H1465 H 0.02112 0.74824 0.63398 0.0
H1466 H 0.16638 0.71304 0.64861 0.0
H1467 H 0.14949 0.68947 0.68376 0.0
H1468 H 0.16052 0.73377 0.6893 0.0
H1469 H 0.05578 0.68839 0.57782 0.0
H1470 H 0.01612 0.70245 0.59629 0.0
H1471 H 0.03753 0.66518 0.6125 0.0
C1472 C 0.45317 0.86483 0.9319 0.0
C1473 C 0.44303 0.83491 0.91517 0.0
C1474 C 0.48188 0.88322 0.92063 0.0
C1475 C 0.50038 0.87143 0.89187 0.0
C1476 C 0.48924 0.84206 0.87415 0.0
C1477 C 0.46083 0.82416 0.88606 0.0
C1478 C 0.49313 0.91448 0.94011 0.0
C1479 C 0.50797 0.82883 0.84317 0.0
C1480 C 0.56215 0.92772 0.84318 0.0
C1481 C 0.59361 0.91633 0.85573 0.0
C1482 C 0.53144 0.91418 0.85555 0.0
C1483 C 0.53237 0.88853 0.88094 0.0
C1484 C 0.56418 0.87698 0.89369 0.0
C1485 C 0.59446 0.89093 0.88075 0.0
C1486 C 0.49805 0.92697 0.84117 0.0
C1487 C 0.56625 0.84942 0.92051 0.0
H1488 H 0.43948 0.87314 0.95443 0.0
H1489 H 0.45282 0.80126 0.87273 0.0
H1490 H 0.51839 0.90976 0.95207 0.0
H1491 H 0.49616 0.93638 0.92246 0.0
H1492 H 0.47477 0.92159 0.96047 0.0
H1493 H 0.49489 0.80664 0.83127 0.0
H1494 H 0.51042 0.84922 0.82371 0.0
H1495 H 0.53415 0.821 0.85055 0.0
H1496 H 0.56168 0.94763 0.82401 0.0
H1497 H 0.61888 0.88179 0.88991 0.0
H1498 H 0.48121 0.93568 0.86214 0.0
H1499 H 0.48461 0.90593 0.82777 0.0
H1500 H 0.5017 0.94833 0.82291 0.0
H1501 H 0.5504 0.85633 0.94289 0.0
H1502 H 0.59284 0.84496 0.92934 0.0
H1503 H 0.55597 0.82521 0.91002 0.0
C1504 C 0.92129 0.06576 0.32403 0.0
C1505 C 0.88846 0.07265 0.33596 0.0
C1506 C 0.94911 0.08559 0.3349 0.0
C1507 C 0.94359 0.1125 0.35839 0.0
C1508 C 0.90995 0.12135 0.36789 0.0
C1509 C 0.8827 0.10145 0.35617 0.0
C1510 C 0.98456 0.07593 0.32358 0.0
C1511 C 0.90291 0.14973 0.39296 0.0
C1512 C 0.01095 0.12858 0.42592 0.0
C1513 C 0.02508 0.15949 0.41506 0.0
C1514 C 0.98471 0.11284 0.40736 0.0
C1515 C 0.97279 0.12809 0.3768 0.0
C1516 C 0.98759 0.1588 0.36511 0.0
C1517 C 0.01339 0.17433 0.38457 0.0
C1518 C 0.96923 0.08026 0.42092 0.0
C1519 C 0.97591 0.17538 0.33232 0.0
H1520 H 0.92546 0.04344 0.30827 0.0
H1521 H 0.85699 0.10692 0.36464 0.0
H1522 H -0.00028 0.09897 0.31726 0.0
H1523 H -0.00213 0.06257 0.34472 0.0
H1524 H 0.98402 0.05879 0.30099 0.0
H1525 H 0.87528 0.15582 0.39456 0.0
H1526 H 0.9119 0.14202 0.41873 0.0
H1527 H 0.91701 0.17315 0.38578 0.0
H1528 H 0.01994 0.11696 0.44929 0.0
H1529 H 0.02451 0.19807 0.37581 0.0
H1530 H 0.97148 0.05969 0.40163 0.0
H1531 H 0.94164 0.08406 0.42589 0.0
H1532 H 0.98165 0.07163 0.44495 0.0
H1533 H 0.977 0.15679 0.31098 0.0
H1534 H 0.99167 0.19793 0.32557 0.0
H1535 H 0.94897 0.18359 0.33476 0.0
loop_
_geom_bond_atom_site_label_1
_geom_bond_atom_site_label_2
_geom_bond_distance
_geom_bond_site_symmetry_2
_ccdc_geom_bond_type
Zn0 O1 2.055 . S
Zn0 O8 2.046 . S
Zn0 N16 2.036 . S
Zn0 O28 2.053 . S
Zn0 O30 2.066 . S
O1 Zn0 2.055 . S
O1 C4 1.259 . S
C2 O30 1.256 . S
C2 O31 1.244 . S
Zn3 O5 2.046 . S
Zn3 O7 2.055 . S
Zn3 N9 2.036 . S
Zn3 O27 2.066 . S
Zn3 O31 2.053 . S
C4 O1 1.259 . S
C4 O5 1.254 . S
O5 Zn3 2.046 . S
O5 C4 1.254 . S
C6 O27 1.256 . S
C6 O28 1.244 . S
O7 Zn3 2.055 . S
O7 C29 1.259 . S
O8 Zn0 2.046 . S
O8 C29 1.254 . S
N9 Zn3 2.036 . S
N9 C10 1.298 . S
N9 N12 1.398 . S
C10 N9 1.298 . S
C10 N13 1.367 . S
C10 C23 1.481 . S
C11 N12 1.299 . S
C11 N13 1.379 . S
N12 N9 1.398 . S
N12 C11 1.299 . S
N13 C10 1.367 . S
N13 C11 1.379 . S
C14 N16 1.298 . S
C14 N18 1.367 . S
C14 C22 1.481 . S
C15 N17 1.299 . S
C15 N18 1.379 . S
N16 Zn0 2.036 . S
N16 C14 1.298 . S
N16 N17 1.398 . S
N17 C15 1.299 . S
N17 N16 1.398 . S
N18 C14 1.367 . S
N18 C15 1.379 . S
H19 C22 0.980 . S
H20 C22 0.981 . S
H21 C22 0.981 . S
C22 C14 1.481 . S
C22 H19 0.980 . S
C22 H20 0.981 . S
C22 H21 0.981 . S
C23 C10 1.481 . S
C23 H24 0.980 . S
C23 H25 0.981 . S
C23 H26 0.981 . S
H24 C23 0.980 . S
H25 C23 0.981 . S
H26 C23 0.981 . S
O27 Zn3 2.066 . S
O27 C6 1.256 . S
O28 Zn0 2.053 . S
O28 C6 1.244 . S
C29 O7 1.259 . S
C29 O8 1.254 . S
O30 Zn0 2.066 . S
O30 C2 1.256 . S
O31 C2 1.244 . S
O31 Zn3 2.053 . S
Zn32 O33 2.055 . S
Zn32 O40 2.046 . S
Zn32 N48 2.036 . S
Zn32 O60 2.053 1_655 S
Zn32 O62 2.066 1_655 S
O33 Zn32 2.055 . S
O33 C36 1.259 . S
C34 O62 1.256 . S
C34 O63 1.244 . S
Zn35 O37 2.046 . S
Zn35 O39 2.055 . S
Zn35 N41 2.036 . S
Zn35 O59 2.066 . S
Zn35 O63 2.053 . S
C36 O33 1.259 . S
C36 O37 1.254 1_655 S
O37 Zn35 2.046 . S
O37 C36 1.254 1_455 S
C38 O59 1.256 . S
C38 O60 1.244 . S
O39 Zn35 2.055 . S
O39 C61 1.259 1_455 S
O40 Zn32 2.046 . S
O40 C61 1.254 . S
N41 Zn35 2.036 . S
N41 C42 1.298 . S
N41 N44 1.398 . S
C42 N41 1.298 . S
C42 N45 1.367 . S
C42 C55 1.481 . S
C43 N44 1.299 . S
C43 N45 1.379 . S
N44 N41 1.398 . S
N44 C43 1.299 . S
N45 C42 1.367 . S
N45 C43 1.379 . S
C46 N48 1.298 . S
C46 N50 1.367 . S
C46 C54 1.481 . S
C47 N49 1.299 . S
C47 N50 1.379 . S
N48 Zn32 2.036 . S
N48 C46 1.298 . S
N48 N49 1.398 . S
N49 C47 1.299 . S
N49 N48 1.398 . S
N50 C46 1.367 . S
N50 C47 1.379 . S
H51 C54 0.980 . S
H52 C54 0.981 . S
H53 C54 0.981 . S
C54 C46 1.481 . S
C54 H51 0.980 . S
C54 H52 0.981 . S
C54 H53 0.981 . S
C55 C42 1.481 . S
C55 H56 0.980 . S
C55 H57 0.981 . S
C55 H58 0.981 . S
H56 C55 0.980 . S
H57 C55 0.981 . S
H58 C55 0.981 . S
O59 Zn35 2.066 . S
O59 C38 1.256 . S
O60 Zn32 2.053 1_455 S
O60 C38 1.244 . S
C61 O39 1.259 1_655 S
C61 O40 1.254 . S
O62 Zn32 2.066 1_455 S
O62 C34 1.256 . S
O63 C34 1.244 . S
O63 Zn35 2.053 . S
Zn64 O65 2.055 . S
Zn64 O72 2.046 . S
Zn64 N80 2.036 . S
Zn64 O92 2.053 1_554 S
Zn64 O94 2.066 1_554 S
O65 Zn64 2.055 . S
O65 C68 1.259 . S
C66 O94 1.256 . S
C66 O95 1.244 . S
Zn67 O69 2.046 . S
Zn67 O71 2.055 . S
Zn67 N73 2.036 . S
Zn67 O91 2.066 . S
Zn67 O95 2.053 . S
C68 O65 1.259 . S
C68 O69 1.254 1_554 S
O69 Zn67 2.046 . S
O69 C68 1.254 1_556 S
C70 O91 1.256 . S
C70 O92 1.244 . S
O71 Zn67 2.055 . S
O71 C93 1.259 1_556 S
O72 Zn64 2.046 . S
O72 C93 1.254 . S
N73 Zn67 2.036 . S
N73 C74 1.298 . S
N73 N76 1.398 . S
C74 N73 1.298 . S
C74 N77 1.367 . S
C74 C87 1.481 . S
C75 N76 1.299 . S
C75 N77 1.379 . S
N76 N73 1.398 . S
N76 C75 1.299 . S
N77 C74 1.367 . S
N77 C75 1.379 . S
C78 N80 1.298 . S
C78 N82 1.367 . S
C78 C86 1.481 . S
C79 N81 1.299 . S
C79 N82 1.379 . S
N80 Zn64 2.036 . S
N80 C78 1.298 . S
N80 N81 1.398 . S
N81 C79 1.299 . S
N81 N80 1.398 . S
N82 C78 1.367 . S
N82 C79 1.379 . S
H83 C86 0.980 . S
H84 C86 0.981 . S
H85 C86 0.981 . S
C86 C78 1.481 . S
C86 H83 0.980 . S
C86 H84 0.981 . S
C86 H85 0.981 . S
C87 C74 1.481 . S
C87 H88 0.980 . S
C87 H89 0.981 . S
C87 H90 0.981 . S
H88 C87 0.980 . S
H89 C87 0.981 . S
H90 C87 0.981 . S
O91 Zn67 2.066 . S
O91 C70 1.256 . S
O92 Zn64 2.053 1_556 S
O92 C70 1.244 . S
C93 O71 1.259 1_554 S
C93 O72 1.254 . S
O94 Zn64 2.066 1_556 S
O94 C66 1.256 . S
O95 C66 1.244 . S
O95 Zn67 2.053 . S
Zn96 O97 2.055 . S
Zn96 O104 2.046 . S
Zn96 N112 2.036 . S
Zn96 O124 2.053 . S
Zn96 O126 2.066 . S
O97 Zn96 2.055 . S
O97 C100 1.259 . S
C98 O126 1.256 . S
C98 O127 1.244 . S
Zn99 O101 2.046 . S
Zn99 O103 2.055 . S
Zn99 N105 2.036 . S
Zn99 O123 2.066 . S
Zn99 O127 2.053 . S
C100 O97 1.259 . S
C100 O101 1.254 . S
O101 Zn99 2.046 . S
O101 C100 1.254 . S
C102 O123 1.256 . S
C102 O124 1.244 . S
O103 Zn99 2.055 . S
O103 C125 1.259 . S
O104 Zn96 2.046 . S
O104 C125 1.254 . S
N105 Zn99 2.036 . S
N105 C106 1.298 . S
N105 N108 1.398 . S
C106 N105 1.298 . S
C106 N109 1.367 . S
C106 C119 1.481 . S
C107 N108 1.299 . S
C107 N109 1.379 . S
N108 N105 1.398 . S
N108 C107 1.299 . S
N109 C106 1.367 . S
N109 C107 1.379 . S
C110 N112 1.298 . S
C110 N114 1.367 . S
C110 C118 1.481 . S
C111 N113 1.299 . S
C111 N114 1.379 . S
N112 Zn96 2.036 . S
N112 C110 1.298 . S
N112 N113 1.398 . S
N113 C111 1.299 . S
N113 N112 1.398 . S
N114 C110 1.367 . S
N114 C111 1.379 . S
H115 C118 0.980 . S
H116 C118 0.981 . S
H117 C118 0.981 . S
C118 C110 1.481 . S
C118 H115 0.980 . S
C118 H116 0.981 . S
C118 H117 0.981 . S
C119 C106 1.481 . S
C119 H120 0.980 . S
C119 H121 0.981 . S
C119 H122 0.981 . S
H120 C119 0.980 . S
H121 C119 0.981 . S
H122 C119 0.981 . S
O123 Zn99 2.066 . S
O123 C102 1.256 . S
O124 Zn96 2.053 . S
O124 C102 1.244 . S
C125 O103 1.259 . S
C125 O104 1.254 . S
O126 Zn96 2.066 . S
O126 C98 1.256 . S
O127 C98 1.244 . S
O127 Zn99 2.053 . S
Zn128 O129 2.055 . S
Zn128 O136 2.046 . S
Zn128 N144 2.036 . S
Zn128 O156 2.053 . S
Zn128 O158 2.066 . S
O129 Zn128 2.055 . S
O129 C132 1.259 . S
C130 O158 1.256 . S
C130 O159 1.244 . S
Zn131 O133 2.046 . S
Zn131 O135 2.055 . S
Zn131 N137 2.036 . S
Zn131 O155 2.066 . S
Zn131 O159 2.053 . S
C132 O129 1.259 . S
C132 O133 1.254 . S
O133 Zn131 2.046 . S
O133 C132 1.254 . S
C134 O155 1.256 . S
C134 O156 1.244 . S
O135 Zn131 2.055 . S
O135 C157 1.259 . S
O136 Zn128 2.046 . S
O136 C157 1.254 . S
N137 Zn131 2.036 . S
N137 C138 1.298 . S
N137 N140 1.398 . S
C138 N137 1.298 . S
C138 N141 1.367 . S
C138 C151 1.481 . S
C139 N140 1.299 . S
C139 N141 1.379 . S
N140 N137 1.398 . S
N140 C139 1.299 . S
N141 C138 1.367 . S
N141 C139 1.379 . S
C142 N144 1.298 . S
C142 N146 1.367 . S
C142 C150 1.481 . S
C143 N145 1.299 . S
C143 N146 1.379 . S
N144 Zn128 2.036 . S
N144 C142 1.298 . S
N144 N145 1.398 . S
N145 C143 1.299 . S
N145 N144 1.398 . S
N146 C142 1.367 . S
N146 C143 1.379 . S
H147 C150 0.980 . S
H148 C150 0.981 . S
H149 C150 0.981 . S
C150 C142 1.481 . S
C150 H147 0.980 . S
C150 H148 0.981 . S
C150 H149 0.981 . S
C151 C138 1.481 . S
C151 H152 0.980 . S
C151 H153 0.981 . S
C151 H154 0.981 . S
H152 C151 0.980 . S
H153 C151 0.981 . S
H154 C151 0.981 . S
O155 Zn131 2.066 . S
O155 C134 1.256 . S
O156 Zn128 2.053 . S
O156 C134 1.244 . S
C157 O135 1.259 . S
C157 O136 1.254 . S
O158 Zn128 2.066 . S
O158 C130 1.256 . S
O159 C130 1.244 . S
O159 Zn131 2.053 . S
Zn160 O161 2.055 . S
Zn160 O168 2.046 . S
Zn160 N176 2.036 . S
Zn160 O188 2.053 . S
Zn160 O190 2.066 . S
O161 Zn160 2.055 . S
O161 C164 1.259 1_655 S
C162 O190 1.256 . S
C162 O191 1.244 . S
Zn163 O165 2.046 . S
Zn163 O167 2.055 . S
Zn163 N169 2.036 . S
Zn163 O187 2.066 1_455 S
Zn163 O191 2.053 1_455 S
C164 O161 1.259 1_455 S
C164 O165 1.254 . S
O165 Zn163 2.046 . S
O165 C164 1.254 . S
C166 O187 1.256 . S
C166 O188 1.244 . S
O167 Zn163 2.055 . S
O167 C189 1.259 . S
O168 Zn160 2.046 . S
O168 C189 1.254 1_655 S
N169 Zn163 2.036 . S
N169 C170 1.298 . S
N169 N172 1.398 . S
C170 N169 1.298 . S
C170 N173 1.367 . S
C170 C183 1.481 . S
C171 N172 1.299 . S
C171 N173 1.379 . S
N172 N169 1.398 . S
N172 C171 1.299 . S
N173 C170 1.367 . S
N173 C171 1.379 . S
C174 N176 1.298 . S
C174 N178 1.367 . S
C174 C182 1.481 . S
C175 N177 1.299 . S
C175 N178 1.379 . S
N176 Zn160 2.036 . S
N176 C174 1.298 . S
N176 N177 1.398 . S
N177 C175 1.299 . S
N177 N176 1.398 . S
N178 C174 1.367 . S
N178 C175 1.379 . S
H179 C182 0.980 . S
H180 C182 0.981 . S
H181 C182 0.981 . S
C182 C174 1.481 . S
C182 H179 0.980 . S
C182 H180 0.981 . S
C182 H181 0.981 . S
C183 C170 1.481 . S
C183 H184 0.980 . S
C183 H185 0.981 . S
C183 H186 0.981 . S
H184 C183 0.980 . S
H185 C183 0.981 . S
H186 C183 0.981 . S
O187 Zn163 2.066 1_655 S
O187 C166 1.256 . S
O188 Zn160 2.053 . S
O188 C166 1.244 . S
C189 O167 1.259 . S
C189 O168 1.254 1_455 S
O190 Zn160 2.066 . S
O190 C162 1.256 . S
O191 C162 1.244 . S
O191 Zn163 2.053 1_655 S
Zn192 O193 2.055 . S
Zn192 O200 2.046 . S
Zn192 N208 2.036 . S
Zn192 O220 2.053 . S
Zn192 O222 2.066 . S
O193 Zn192 2.055 . S
O193 C196 1.259 1_554 S
C194 O222 1.256 . S
C194 O223 1.244 . S
Zn195 O197 2.046 . S
Zn195 O199 2.055 . S
Zn195 N201 2.036 . S
Zn195 O219 2.066 1_556 S
Zn195 O223 2.053 1_556 S
C196 O193 1.259 1_556 S
C196 O197 1.254 . S
O197 Zn195 2.046 . S
O197 C196 1.254 . S
C198 O219 1.256 . S
C198 O220 1.244 . S
O199 Zn195 2.055 . S
O199 C221 1.259 . S
O200 Zn192 2.046 . S
O200 C221 1.254 1_554 S
N201 Zn195 2.036 . S
N201 C202 1.298 . S
N201 N204 1.398 . S
C202 N201 1.298 . S
C202 N205 1.367 . S
C202 C215 1.481 . S
C203 N204 1.299 . S
C203 N205 1.379 . S
N204 N201 1.398 . S
N204 C203 1.299 . S
N205 C202 1.367 . S
N205 C203 1.379 . S
C206 N208 1.298 . S
C206 N210 1.367 . S
C206 C214 1.481 . S
C207 N209 1.299 . S
C207 N210 1.379 . S
N208 Zn192 2.036 . S
N208 C206 1.298 . S
N208 N209 1.398 . S
N209 C207 1.299 . S
N209 N208 1.398 . S
N210 C206 1.367 . S
N210 C207 1.379 . S
H211 C214 0.980 . S
H212 C214 0.981 . S
H213 C214 0.981 . S
C214 C206 1.481 . S
C214 H211 0.980 . S
C214 H212 0.981 . S
C214 H213 0.981 . S
C215 C202 1.481 . S
C215 H216 0.980 . S
C215 H217 0.981 . S
C215 H218 0.981 . S
H216 C215 0.980 . S
H217 C215 0.981 . S
H218 C215 0.981 . S
O219 Zn195 2.066 1_554 S
O219 C198 1.256 . S
O220 Zn192 2.053 . S
O220 C198 1.244 . S
C221 O199 1.259 . S
C221 O200 1.254 1_556 S
O222 Zn192 2.066 . S
O222 C194 1.256 . S
O223 C194 1.244 . S
O223 Zn195 2.053 1_554 S
Zn224 O225 2.055 . S
Zn224 O232 2.046 . S
Zn224 N240 2.036 . S
Zn224 O252 2.053 . S
Zn224 O254 2.066 . S
O225 Zn224 2.055 . S
O225 C228 1.259 . S
C226 O254 1.256 . S
C226 O255 1.244 . S
Zn227 O229 2.046 . S
Zn227 O231 2.055 . S
Zn227 N233 2.036 . S
Zn227 O251 2.066 . S
Zn227 O255 2.053 . S
C228 O225 1.259 . S
C228 O229 1.254 . S
O229 Zn227 2.046 . S
O229 C228 1.254 . S
C230 O251 1.256 . S
C230 O252 1.244 . S
O231 Zn227 2.055 . S
O231 C253 1.259 . S
O232 Zn224 2.046 . S
O232 C253 1.254 . S
N233 Zn227 2.036 . S
N233 C234 1.298 . S
N233 N236 1.398 . S
C234 N233 1.298 . S
C234 N237 1.367 . S
C234 C247 1.481 . S
C235 N236 1.299 . S
C235 N237 1.379 . S
N236 N233 1.398 . S
N236 C235 1.299 . S
N237 C234 1.367 . S
N237 C235 1.379 . S
C238 N240 1.298 . S
C238 N242 1.367 . S
C238 C246 1.481 . S
C239 N241 1.299 . S
C239 N242 1.379 . S
N240 Zn224 2.036 . S
N240 C238 1.298 . S
N240 N241 1.398 . S
N241 C239 1.299 . S
N241 N240 1.398 . S
N242 C238 1.367 . S
N242 C239 1.379 . S
H243 C246 0.980 . S
H244 C246 0.981 . S
H245 C246 0.981 . S
C246 C238 1.481 . S
C246 H243 0.980 . S
C246 H244 0.981 . S
C246 H245 0.981 . S
C247 C234 1.481 . S
C247 H248 0.980 . S
C247 H249 0.981 . S
C247 H250 0.981 . S
H248 C247 0.980 . S
H249 C247 0.981 . S
H250 C247 0.981 . S
O251 Zn227 2.066 . S
O251 C230 1.256 . S
O252 Zn224 2.053 . S
O252 C230 1.244 . S
C253 O231 1.259 . S
C253 O232 1.254 . S
O254 Zn224 2.066 . S
O254 C226 1.256 . S
O255 C226 1.244 . S
O255 Zn227 2.053 . S
Zn256 O257 2.055 . S
Zn256 O264 2.046 . S
Zn256 N272 2.036 . S
Zn256 O284 2.053 . S
Zn256 O286 2.066 . S
O257 Zn256 2.055 . S
O257 C260 1.259 . S
C258 O286 1.256 . S
C258 O287 1.244 . S
Zn259 O261 2.046 . S
Zn259 O263 2.055 . S
Zn259 N265 2.036 . S
Zn259 O283 2.066 . S
Zn259 O287 2.053 . S
C260 O257 1.259 . S
C260 O261 1.254 . S
O261 Zn259 2.046 . S
O261 C260 1.254 . S
C262 O283 1.256 . S
C262 O284 1.244 . S
O263 Zn259 2.055 . S
O263 C285 1.259 . S
O264 Zn256 2.046 . S
O264 C285 1.254 . S
N265 Zn259 2.036 . S
N265 C266 1.298 . S
N265 N268 1.398 . S
C266 N265 1.298 . S
C266 N269 1.367 . S
C266 C279 1.481 . S
C267 N268 1.299 . S
C267 N269 1.379 . S
N268 N265 1.398 . S
N268 C267 1.299 . S
N269 C266 1.367 . S
N269 C267 1.379 . S
C270 N272 1.298 . S
C270 N274 1.367 . S
C270 C278 1.481 . S
C271 N273 1.299 . S
C271 N274 1.379 . S
N272 Zn256 2.036 . S
N272 C270 1.298 . S
N272 N273 1.398 . S
N273 C271 1.299 . S
N273 N272 1.398 . S
N274 C270 1.367 . S
N274 C271 1.379 . S
H275 C278 0.980 . S
H276 C278 0.981 . S
H277 C278 0.981 . S
C278 C270 1.481 . S
C278 H275 0.980 . S
C278 H276 0.981 . S
C278 H277 0.981 . S
C279 C266 1.481 . S
C279 H280 0.980 . S
C279 H281 0.981 . S
C279 H282 0.981 . S
H280 C279 0.980 . S
H281 C279 0.981 . S
H282 C279 0.981 . S
O283 Zn259 2.066 . S
O283 C262 1.256 . S
O284 Zn256 2.053 . S
O284 C262 1.244 . S
C285 O263 1.259 . S
C285 O264 1.254 . S
O286 Zn256 2.066 . S
O286 C258 1.256 . S
O287 C258 1.244 . S
O287 Zn259 2.053 . S
Zn288 O289 2.055 . S
Zn288 O296 2.046 . S
Zn288 N304 2.036 . S
Zn288 O316 2.053 . S
Zn288 O318 2.066 . S
O289 Zn288 2.055 . S
O289 C292 1.259 1_545 S
C290 O318 1.256 . S
C290 O319 1.244 . S
Zn291 O293 2.046 . S
Zn291 O295 2.055 . S
Zn291 N297 2.036 . S
Zn291 O315 2.066 1_565 S
Zn291 O319 2.053 1_565 S
C292 O289 1.259 1_565 S
C292 O293 1.254 . S
O293 Zn291 2.046 . S
O293 C292 1.254 . S
C294 O315 1.256 . S
C294 O316 1.244 . S
O295 Zn291 2.055 . S
O295 C317 1.259 . S
O296 Zn288 2.046 . S
O296 C317 1.254 1_545 S
N297 Zn291 2.036 . S
N297 C298 1.298 . S
N297 N300 1.398 . S
C298 N297 1.298 . S
C298 N301 1.367 . S
C298 C311 1.481 . S
C299 N300 1.299 . S
C299 N301 1.379 . S
N300 N297 1.398 . S
N300 C299 1.299 . S
N301 C298 1.367 . S
N301 C299 1.379 . S
C302 N304 1.298 . S
C302 N306 1.367 . S
C302 C310 1.481 . S
C303 N305 1.299 . S
C303 N306 1.379 . S
N304 Zn288 2.036 . S
N304 C302 1.298 . S
N304 N305 1.398 . S
N305 C303 1.299 . S
N305 N304 1.398 . S
N306 C302 1.367 . S
N306 C303 1.379 . S
H307 C310 0.980 . S
H308 C310 0.981 . S
H309 C310 0.981 . S
C310 C302 1.481 . S
C310 H307 0.980 . S
C310 H308 0.981 . S
C310 H309 0.981 . S
C311 C298 1.481 . S
C311 H312 0.980 . S
C311 H313 0.981 . S
C311 H314 0.981 . S
H312 C311 0.980 . S
H313 C311 0.981 . S
H314 C311 0.981 . S
O315 Zn291 2.066 1_545 S
O315 C294 1.256 . S
O316 Zn288 2.053 . S
O316 C294 1.244 . S
C317 O295 1.259 . S
C317 O296 1.254 1_565 S
O318 Zn288 2.066 . S
O318 C290 1.256 . S
O319 C290 1.244 . S
O319 Zn291 2.053 1_545 S
Zn320 O321 2.055 . S
Zn320 O328 2.046 . S
Zn320 N336 2.036 . S
Zn320 O348 2.053 . S
Zn320 O350 2.066 . S
O321 Zn320 2.055 . S
O321 C324 1.259 1_565 S
C322 O350 1.256 . S
C322 O351 1.244 . S
Zn323 O325 2.046 . S
Zn323 O327 2.055 . S
Zn323 N329 2.036 . S
Zn323 O347 2.066 1_545 S
Zn323 O351 2.053 1_545 S
C324 O321 1.259 1_545 S
C324 O325 1.254 . S
O325 Zn323 2.046 . S
O325 C324 1.254 . S
C326 O347 1.256 . S
C326 O348 1.244 . S
O327 Zn323 2.055 . S
O327 C349 1.259 . S
O328 Zn320 2.046 . S
O328 C349 1.254 1_565 S
N329 Zn323 2.036 . S
N329 C330 1.298 . S
N329 N332 1.398 . S
C330 N329 1.298 . S
C330 N333 1.367 . S
C330 C343 1.481 . S
C331 N332 1.299 . S
C331 N333 1.379 . S
N332 N329 1.398 . S
N332 C331 1.299 . S
N333 C330 1.367 . S
N333 C331 1.379 . S
C334 N336 1.298 . S
C334 N338 1.367 . S
C334 C342 1.481 . S
C335 N337 1.299 . S
C335 N338 1.379 . S
N336 Zn320 2.036 . S
N336 C334 1.298 . S
N336 N337 1.398 . S
N337 C335 1.299 . S
N337 N336 1.398 . S
N338 C334 1.367 . S
N338 C335 1.379 . S
H339 C342 0.980 . S
H340 C342 0.981 . S
H341 C342 0.981 . S
C342 C334 1.481 . S
C342 H339 0.980 . S
C342 H340 0.981 . S
C342 H341 0.981 . S
C343 C330 1.481 . S
C343 H344 0.980 . S
C343 H345 0.981 . S
C343 H346 0.981 . S
H344 C343 0.980 . S
H345 C343 0.981 . S
H346 C343 0.981 . S
O347 Zn323 2.066 1_565 S
O347 C326 1.256 . S
O348 Zn320 2.053 . S
O348 C326 1.244 . S
C349 O327 1.259 . S
C349 O328 1.254 1_545 S
O350 Zn320 2.066 . S
O350 C322 1.256 . S
O351 C322 1.244 . S
O351 Zn323 2.053 1_565 S
Zn352 O353 2.055 . S
Zn352 O360 2.046 . S
Zn352 N368 2.036 . S
Zn352 O380 2.053 . S
Zn352 O382 2.066 . S
O353 Zn352 2.055 . S
O353 C356 1.259 . S
C354 O382 1.256 . S
C354 O383 1.244 . S
Zn355 O357 2.046 . S
Zn355 O359 2.055 . S
Zn355 N361 2.036 . S
Zn355 O379 2.066 . S
Zn355 O383 2.053 . S
C356 O353 1.259 . S
C356 O357 1.254 . S
O357 Zn355 2.046 . S
O357 C356 1.254 . S
C358 O379 1.256 . S
C358 O380 1.244 . S
O359 Zn355 2.055 . S
O359 C381 1.259 . S
O360 Zn352 2.046 . S
O360 C381 1.254 . S
N361 Zn355 2.036 . S
N361 C362 1.298 . S
N361 N364 1.398 . S
C362 N361 1.298 . S
C362 N365 1.367 . S
C362 C375 1.481 . S
C363 N364 1.299 . S
C363 N365 1.379 . S
N364 N361 1.398 . S
N364 C363 1.299 . S
N365 C362 1.367 . S
N365 C363 1.379 . S
C366 N368 1.298 . S
C366 N370 1.367 . S
C366 C374 1.481 . S
C367 N369 1.299 . S
C367 N370 1.379 . S
N368 Zn352 2.036 . S
N368 C366 1.298 . S
N368 N369 1.398 . S
N369 C367 1.299 . S
N369 N368 1.398 . S
N370 C366 1.367 . S
N370 C367 1.379 . S
H371 C374 0.980 . S
H372 C374 0.981 . S
H373 C374 0.981 . S
C374 C366 1.481 . S
C374 H371 0.980 . S
C374 H372 0.981 . S
C374 H373 0.981 . S
C375 C362 1.481 . S
C375 H376 0.980 . S
C375 H377 0.981 . S
C375 H378 0.981 . S
H376 C375 0.980 . S
H377 C375 0.981 . S
H378 C375 0.981 . S
O379 Zn355 2.066 . S
O379 C358 1.256 . S
O380 Zn352 2.053 . S
O380 C358 1.244 . S
C381 O359 1.259 . S
C381 O360 1.254 . S
O382 Zn352 2.066 . S
O382 C354 1.256 . S
O383 C354 1.244 . S
O383 Zn355 2.053 . S
C384 C385 1.391 . S
C384 C386 1.394 . S
C384 H400 0.931 . S
C385 C384 1.391 . S
C385 C389 1.376 . S
C386 C384 1.394 . S
C386 C387 1.369 . S
C386 C390 1.531 . S
C387 C386 1.369 . S
C387 C388 1.410 . S
C387 C395 1.503 . S
C388 C387 1.410 . S
C388 C389 1.392 . S
C388 C391 1.511 . S
C389 C385 1.376 . S
C389 C388 1.392 . S
C389 H401 0.929 . S
C390 C386 1.531 . S
C390 H402 0.960 . S
C390 H403 0.962 . S
C390 H404 0.960 . S
C391 C388 1.511 . S
C391 H405 0.961 . S
C391 H406 0.961 . S
C391 H407 0.961 . S
C392 C393 1.370 . S
C392 C394 1.363 . S
C392 H408 0.931 . S
C393 C392 1.370 . S
C393 C397 1.408 . S
C394 C392 1.363 . S
C394 C395 1.370 . S
C394 C398 1.524 . S
C395 C387 1.503 . S
C395 C394 1.370 . S
C395 C396 1.403 . S
C396 C395 1.403 . S
C396 C397 1.404 . S
C396 C399 1.539 . S
C397 C393 1.408 . S
C397 C396 1.404 . S
C397 H409 0.930 . S
C398 C394 1.524 . S
C398 H410 0.956 . S
C398 H411 0.961 . S
C398 H412 0.961 . S
C399 C396 1.539 . S
C399 H413 0.958 . S
C399 H414 0.961 . S
C399 H415 0.960 . S
H400 C384 0.931 . S
H401 C389 0.929 . S
H402 C390 0.960 . S
H403 C390 0.962 . S
H404 C390 0.960 . S
H405 C391 0.961 . S
H406 C391 0.961 . S
H407 C391 0.961 . S
H408 C392 0.931 . S
H409 C397 0.930 . S
H410 C398 0.956 . S
H411 C398 0.961 . S
H412 C398 0.961 . S
H413 C399 0.958 . S
H414 C399 0.961 . S
H415 C399 0.960 . S
C416 C417 1.391 . S
C416 C418 1.394 . S
C416 H432 0.931 . S
C417 C416 1.391 . S
C417 C421 1.376 1_565 S
C418 C416 1.394 . S
C418 C419 1.369 . S
C418 C422 1.531 . S
C419 C418 1.369 . S
C419 C420 1.427 . S
C419 C427 1.503 . S
C420 C419 1.427 . S
C420 C421 1.388 1_565 S
C420 C423 1.498 1_565 S
C421 C417 1.376 1_545 S
C421 C420 1.388 1_545 S
C421 H433 0.929 . S
C422 C418 1.531 . S
C422 H434 0.960 . S
C422 H435 0.962 . S
C422 H436 0.960 . S
C423 C420 1.498 1_545 S
C423 H437 0.961 . S
C423 H438 0.961 . S
C423 H439 0.961 . S
C424 C425 1.370 . S
C424 C426 1.363 . S
C424 H440 0.931 . S
C425 C424 1.370 . S
C425 C429 1.408 . S
C426 C424 1.363 . S
C426 C427 1.370 . S
C426 C430 1.524 . S
C427 C419 1.503 . S
C427 C426 1.370 . S
C427 C428 1.403 . S
C428 C427 1.403 . S
C428 C429 1.404 . S
C428 C431 1.539 1_565 S
C429 C425 1.408 . S
C429 C428 1.404 . S
C429 H441 0.930 . S
C430 C426 1.524 . S
C430 H442 0.956 . S
C430 H443 0.961 . S
C430 H444 0.961 . S
C431 C428 1.539 1_545 S
C431 H445 0.958 . S
C431 H446 0.961 . S
C431 H447 0.960 . S
H432 C416 0.931 . S
H433 C421 0.929 . S
H434 C422 0.960 . S
H435 C422 0.962 . S
H436 C422 0.960 . S
H437 C423 0.961 . S
H438 C423 0.961 . S
H439 C423 0.961 . S
H440 C424 0.931 . S
H441 C429 0.930 . S
H442 C430 0.956 . S
H443 C430 0.961 . S
H444 C430 0.961 . S
H445 C431 0.958 . S
H446 C431 0.961 . S
H447 C431 0.960 . S
C448 C449 1.391 . S
C448 C450 1.394 . S
C448 H464 0.931 . S
C449 C448 1.391 . S
C449 C453 1.376 . S
C450 C448 1.394 . S
C450 C451 1.369 . S
C450 C454 1.531 . S
C451 C450 1.369 . S
C451 C452 1.410 . S
C451 C459 1.503 . S
C452 C451 1.410 . S
C452 C453 1.392 . S
C452 C455 1.511 . S
C453 C449 1.376 . S
C453 C452 1.392 . S
C453 H465 0.929 . S
C454 C450 1.531 . S
C454 H466 0.960 . S
C454 H467 0.962 . S
C454 H468 0.960 . S
C455 C452 1.511 . S
C455 H469 0.961 . S
C455 H470 0.961 . S
C455 H471 0.961 . S
C456 C457 1.370 . S
C456 C458 1.363 . S
C456 H472 0.931 . S
C457 C456 1.370 . S
C457 C461 1.408 . S
C458 C456 1.363 . S
C458 C459 1.370 . S
C458 C462 1.524 1_554 S
C459 C451 1.503 . S
C459 C458 1.370 . S
C459 C460 1.403 . S
C460 C459 1.403 . S
C460 C461 1.404 . S
C460 C463 1.539 . S
C461 C457 1.408 . S
C461 C460 1.404 . S
C461 H473 0.930 . S
C462 C458 1.524 1_556 S
C462 H474 0.956 . S
C462 H475 0.961 . S
C462 H476 0.961 . S
C463 C460 1.539 . S
C463 H477 0.958 . S
C463 H478 0.961 . S
C463 H479 0.960 . S
H464 C448 0.931 . S
H465 C453 0.929 . S
H466 C454 0.960 . S
H467 C454 0.962 . S
H468 C454 0.960 . S
H469 C455 0.961 . S
H470 C455 0.961 . S
H471 C455 0.961 . S
H472 C456 0.931 . S
H473 C461 0.930 . S
H474 C462 0.956 . S
H475 C462 0.961 . S
H476 C462 0.961 . S
H477 C463 0.958 . S
H478 C463 0.961 . S
H479 C463 0.960 . S
C480 C481 1.391 . S
C480 C482 1.394 . S
C480 H496 0.931 . S
C481 C480 1.391 . S
C481 C485 1.376 . S
C482 C480 1.394 . S
C482 C483 1.369 . S
C482 C486 1.531 . S
C483 C482 1.369 . S
C483 C484 1.410 . S
C483 C491 1.503 . S
C484 C483 1.410 . S
C484 C485 1.392 . S
C484 C487 1.511 . S
C485 C481 1.376 . S
C485 C484 1.392 . S
C485 H497 0.929 . S
C486 C482 1.531 . S
C486 H498 0.960 . S
C486 H499 0.962 . S
C486 H500 0.960 . S
C487 C484 1.511 . S
C487 H501 0.961 . S
C487 H502 0.961 . S
C487 H503 0.961 . S
C488 C489 1.370 1_565 S
C488 C490 1.363 1_565 S
C488 H504 0.931 . S
C489 C488 1.370 1_545 S
C489 C493 1.408 . S
C490 C488 1.363 1_545 S
C490 C491 1.370 . S
C490 C494 1.524 1_545 S
C491 C483 1.503 . S
C491 C490 1.370 . S
C491 C492 1.403 . S
C492 C491 1.403 . S
C492 C493 1.404 . S
C492 C495 1.539 . S
C493 C489 1.408 . S
C493 C492 1.404 . S
C493 H505 0.930 . S
C494 C490 1.524 1_565 S
C494 H506 0.956 . S
C494 H507 0.961 . S
C494 H508 0.961 . S
C495 C492 1.539 . S
C495 H509 0.958 . S
C495 H510 0.961 . S
C495 H511 0.960 . S
H496 C480 0.931 . S
H497 C485 0.929 . S
H498 C486 0.960 . S
H499 C486 0.962 . S
H500 C486 0.960 . S
H501 C487 0.961 . S
H502 C487 0.961 . S
H503 C487 0.961 . S
H504 C488 0.931 . S
H505 C493 0.930 . S
H506 C494 0.956 . S
H507 C494 0.961 . S
H508 C494 0.961 . S
H509 C495 0.958 . S
H510 C495 0.961 . S
H511 C495 0.960 . S
C512 C513 1.391 . S
C512 C514 1.394 . S
C512 H528 0.931 . S
C513 C512 1.391 . S
C513 C517 1.376 . S
C514 C512 1.394 . S
C514 C515 1.369 . S
C514 C518 1.531 . S
C515 C514 1.369 . S
C515 C516 1.410 . S
C515 C523 1.503 . S
C516 C515 1.410 . S
C516 C517 1.392 . S
C516 C519 1.511 . S
C517 C513 1.376 . S
C517 C516 1.392 . S
C517 H529 0.929 . S
C518 C514 1.531 . S
C518 H530 0.960 . S
C518 H531 0.962 . S
C518 H532 0.960 . S
C519 C516 1.511 . S
C519 H533 0.961 . S
C519 H534 0.961 . S
C519 H535 0.961 . S
C520 C521 1.370 . S
C520 C522 1.363 . S
C520 H536 0.931 . S
C521 C520 1.370 . S
C521 C525 1.408 . S
C522 C520 1.363 . S
C522 C523 1.370 . S
C522 C526 1.524 . S
C523 C515 1.503 . S
C523 C522 1.370 . S
C523 C524 1.403 . S
C524 C523 1.403 . S
C524 C525 1.404 . S
C524 C527 1.539 . S
C525 C521 1.408 . S
C525 C524 1.404 . S
C525 H537 0.930 . S
C526 C522 1.524 . S
C526 H538 0.956 . S
C526 H539 0.961 . S
C526 H540 0.961 . S
C527 C524 1.539 . S
C527 H541 0.958 . S
C527 H542 0.961 . S
C527 H543 0.960 . S
H528 C512 0.931 . S
H529 C517 0.929 . S
H530 C518 0.960 . S
H531 C518 0.962 . S
H532 C518 0.960 . S
H533 C519 0.961 . S
H534 C519 0.961 . S
H535 C519 0.961 . S
H536 C520 0.931 . S
H537 C525 0.930 . S
H538 C526 0.956 . S
H539 C526 0.961 . S
H540 C526 0.961 . S
H541 C527 0.958 . S
H542 C527 0.961 . S
H543 C527 0.960 . S
C544 C545 1.391 . S
C544 C546 1.394 . S
C544 H560 0.931 . S
C545 C544 1.391 . S
C545 C549 1.376 . S
C546 C544 1.394 . S
C546 C547 1.369 . S
C546 C550 1.531 . S
C547 C546 1.369 . S
C547 C548 1.410 . S
C547 C555 1.503 . S
C548 C547 1.410 . S
C548 C549 1.392 . S
C548 C551 1.511 . S
C549 C545 1.376 . S
C549 C548 1.392 . S
C549 H561 0.929 . S
C550 C546 1.531 . S
C550 H562 0.960 . S
C550 H563 0.962 . S
C550 H564 0.960 . S
C551 C548 1.511 . S
C551 H565 0.961 . S
C551 H566 0.961 . S
C551 H567 0.961 . S
C552 C553 1.370 . S
C552 C554 1.363 . S
C552 H568 0.931 . S
C553 C552 1.370 . S
C553 C557 1.408 . S
C554 C552 1.363 . S
C554 C555 1.370 . S
C554 C558 1.524 . S
C555 C547 1.503 . S
C555 C554 1.370 . S
C555 C556 1.403 . S
C556 C555 1.403 . S
C556 C557 1.404 . S
C556 C559 1.539 . S
C557 C553 1.408 . S
C557 C556 1.404 . S
C557 H569 0.930 . S
C558 C554 1.524 . S
C558 H570 0.956 . S
C558 H571 0.961 . S
C558 H572 0.961 . S
C559 C556 1.539 . S
C559 H573 0.958 . S
C559 H574 0.961 . S
C559 H575 0.960 . S
H560 C544 0.931 . S
H561 C549 0.929 . S
H562 C550 0.960 . S
H563 C550 0.962 . S
H564 C550 0.960 . S
H565 C551 0.961 . S
H566 C551 0.961 . S
H567 C551 0.961 . S
H568 C552 0.931 . S
H569 C557 0.930 . S
H570 C558 0.956 . S
H571 C558 0.961 . S
H572 C558 0.961 . S
H573 C559 0.958 . S
H574 C559 0.961 . S
H575 C559 0.960 . S
C576 C577 1.391 . S
C576 C578 1.394 . S
C576 H592 0.931 . S
C577 C576 1.391 . S
C577 C581 1.376 . S
C578 C576 1.394 . S
C578 C579 1.369 . S
C578 C582 1.536 . S
C579 C578 1.369 . S
C579 C580 1.410 . S
C579 C587 1.503 . S
C580 C579 1.410 . S
C580 C581 1.392 . S
C580 C583 1.511 . S
C581 C577 1.376 . S
C581 C580 1.392 . S
C581 H593 0.929 . S
C582 C578 1.536 . S
C582 H594 0.954 1_556 S
C582 H595 0.968 . S
C582 H596 0.955 1_556 S
C583 C580 1.511 . S
C583 H597 0.961 . S
C583 H598 0.961 . S
C583 H599 0.961 . S
C584 C585 1.370 . S
C584 C586 1.363 . S
C584 H600 0.931 . S
C585 C584 1.370 . S
C585 C589 1.408 1_556 S
C586 C584 1.363 . S
C586 C587 1.370 . S
C586 C590 1.524 . S
C587 C579 1.503 . S
C587 C586 1.370 . S
C587 C588 1.403 1_556 S
C588 C587 1.403 1_554 S
C588 C589 1.404 . S
C588 C591 1.539 . S
C589 C585 1.408 1_554 S
C589 C588 1.404 . S
C589 H601 0.930 . S
C590 C586 1.524 . S
C590 H602 0.956 . S
C590 H603 0.961 . S
C590 H604 0.961 . S
C591 C588 1.539 . S
C591 H605 0.958 . S
C591 H606 0.961 . S
C591 H607 0.960 . S
H592 C576 0.931 . S
H593 C581 0.929 . S
H594 C582 0.954 1_554 S
H595 C582 0.968 . S
H596 C582 0.955 1_554 S
H597 C583 0.961 . S
H598 C583 0.961 . S
H599 C583 0.961 . S
H600 C584 0.931 . S
H601 C589 0.930 . S
H602 C590 0.956 . S
H603 C590 0.961 . S
H604 C590 0.961 . S
H605 C591 0.958 . S
H606 C591 0.961 . S
H607 C591 0.960 . S
C608 C609 1.391 . S
C608 C610 1.394 . S
C608 H624 0.931 . S
C609 C608 1.391 . S
C609 C613 1.376 . S
C610 C608 1.394 . S
C610 C611 1.369 . S
C610 C614 1.531 . S
C611 C610 1.369 . S
C611 C612 1.410 . S
C611 C619 1.503 . S
C612 C611 1.410 . S
C612 C613 1.392 . S
C612 C615 1.511 . S
C613 C609 1.376 . S
C613 C612 1.392 . S
C613 H625 0.929 . S
C614 C610 1.531 . S
C614 H626 0.960 . S
C614 H627 0.962 . S
C614 H628 0.960 . S
C615 C612 1.511 . S
C615 H629 0.961 . S
C615 H630 0.961 . S
C615 H631 0.961 . S
C616 C617 1.370 . S
C616 C618 1.363 . S
C616 H632 0.931 . S
C617 C616 1.370 . S
C617 C621 1.408 . S
C618 C616 1.363 . S
C618 C619 1.370 . S
C618 C622 1.524 . S
C619 C611 1.503 . S
C619 C618 1.370 . S
C619 C620 1.403 . S
C620 C619 1.403 . S
C620 C621 1.404 . S
C620 C623 1.539 . S
C621 C617 1.408 . S
C621 C620 1.404 . S
C621 H633 0.930 . S
C622 C618 1.524 . S
C622 H634 0.956 . S
C622 H635 0.961 . S
C622 H636 0.961 . S
C623 C620 1.539 . S
C623 H637 0.958 . S
C623 H638 0.961 . S
C623 H639 0.960 . S
H624 C608 0.931 . S
H625 C613 0.929 . S
H626 C614 0.960 . S
H627 C614 0.962 . S
H628 C614 0.960 . S
H629 C615 0.961 . S
H630 C615 0.961 . S
H631 C615 0.961 . S
H632 C616 0.931 . S
H633 C621 0.930 . S
H634 C622 0.956 . S
H635 C622 0.961 . S
H636 C622 0.961 . S
H637 C623 0.958 . S
H638 C623 0.961 . S
H639 C623 0.960 . S
C640 C641 1.391 . S
C640 C642 1.394 . S
C640 H656 0.931 . S
C641 C640 1.391 . S
C641 C645 1.376 . S
C642 C640 1.394 . S
C642 C643 1.369 . S
C642 C646 1.531 . S
C643 C642 1.369 . S
C643 C644 1.410 . S
C643 C651 1.503 . S
C644 C643 1.410 . S
C644 C645 1.392 . S
C644 C647 1.511 . S
C645 C641 1.376 . S
C645 C644 1.392 . S
C645 H657 0.929 . S
C646 C642 1.531 . S
C646 H658 0.960 . S
C646 H659 0.962 . S
C646 H660 0.960 . S
C647 C644 1.511 . S
C647 H661 0.961 . S
C647 H662 0.961 . S
C647 H663 0.961 . S
C648 C649 1.370 . S
C648 C650 1.363 . S
C648 H664 0.931 . S
C649 C648 1.370 . S
C649 C653 1.408 . S
C650 C648 1.363 . S
C650 C651 1.370 . S
C650 C654 1.524 . S
C651 C643 1.503 . S
C651 C650 1.370 . S
C651 C652 1.403 . S
C652 C651 1.403 . S
C652 C653 1.404 . S
C652 C655 1.539 . S
C653 C649 1.408 . S
C653 C652 1.404 . S
C653 H665 0.930 . S
C654 C650 1.524 . S
C654 H666 0.956 . S
C654 H667 0.961 . S
C654 H668 0.961 . S
C655 C652 1.539 . S
C655 H669 0.958 . S
C655 H670 0.961 . S
C655 H671 0.960 . S
H656 C640 0.931 . S
H657 C645 0.929 . S
H658 C646 0.960 . S
H659 C646 0.962 . S
H660 C646 0.960 . S
H661 C647 0.961 . S
H662 C647 0.961 . S
H663 C647 0.961 . S
H664 C648 0.931 . S
H665 C653 0.930 . S
H666 C654 0.956 . S
H667 C654 0.961 . S
H668 C654 0.961 . S
H669 C655 0.958 . S
H670 C655 0.961 . S
H671 C655 0.960 . S
C672 C673 1.391 . S
C672 C674 1.394 . S
C672 H688 0.931 . S
C673 C672 1.391 . S
C673 C677 1.376 . S
C674 C672 1.394 . S
C674 C675 1.369 . S
C674 C678 1.531 1_455 S
C675 C674 1.369 . S
C675 C676 1.410 . S
C675 C683 1.503 . S
C676 C675 1.410 . S
C676 C677 1.392 . S
C676 C679 1.511 . S
C677 C673 1.376 . S
C677 C676 1.392 . S
C677 H689 0.929 . S
C678 C674 1.531 1_655 S
C678 H690 0.960 . S
C678 H691 0.962 . S
C678 H692 0.960 . S
C679 C676 1.511 . S
C679 H693 0.961 . S
C679 H694 0.961 . S
C679 H695 0.961 . S
C680 C681 1.370 . S
C680 C682 1.363 . S
C680 H696 0.931 . S
C681 C680 1.370 . S
C681 C685 1.408 . S
C682 C680 1.363 . S
C682 C683 1.370 . S
C682 C686 1.524 . S
C683 C675 1.503 . S
C683 C682 1.370 . S
C683 C684 1.403 . S
C684 C683 1.403 . S
C684 C685 1.404 . S
C684 C687 1.539 . S
C685 C681 1.408 . S
C685 C684 1.404 . S
C685 H697 0.928 . S
C686 C682 1.524 . S
C686 H698 0.956 . S
C686 H699 0.961 . S
C686 H700 0.961 . S
C687 C684 1.539 . S
C687 H701 0.958 1_455 S
C687 H702 0.961 . S
C687 H703 0.960 . S
H688 C672 0.931 . S
H689 C677 0.929 . S
H690 C678 0.960 . S
H691 C678 0.962 . S
H692 C678 0.960 . S
H693 C679 0.961 . S
H694 C679 0.961 . S
H695 C679 0.961 . S
H696 C680 0.931 . S
H697 C685 0.928 . S
H698 C686 0.956 . S
H699 C686 0.961 . S
H700 C686 0.961 . S
H701 C687 0.958 1_655 S
H702 C687 0.961 . S
H703 C687 0.960 . S
C704 C705 1.391 . S
C704 C706 1.394 . S
C704 H720 0.931 . S
C705 C704 1.391 . S
C705 C709 1.376 1_655 S
C706 C704 1.394 . S
C706 C707 1.369 . S
C706 C710 1.531 . S
C707 C706 1.369 . S
C707 C708 1.410 1_655 S
C707 C715 1.503 . S
C708 C707 1.410 1_455 S
C708 C709 1.392 . S
C708 C711 1.511 . S
C709 C705 1.376 1_455 S
C709 C708 1.392 . S
C709 H721 0.929 . S
C710 C706 1.531 . S
C710 H722 0.960 . S
C710 H723 0.962 . S
C710 H724 0.960 . S
C711 C708 1.511 . S
C711 H725 0.961 . S
C711 H726 0.961 . S
C711 H727 0.961 . S
C712 C713 1.370 . S
C712 C714 1.363 . S
C712 H728 0.931 . S
C713 C712 1.370 . S
C713 C717 1.408 . S
C714 C712 1.363 . S
C714 C715 1.370 . S
C714 C718 1.524 . S
C715 C707 1.503 . S
C715 C714 1.370 . S
C715 C716 1.403 . S
C716 C715 1.403 . S
C716 C717 1.404 . S
C716 C719 1.539 . S
C717 C713 1.408 . S
C717 C716 1.404 . S
C717 H729 0.930 . S
C718 C714 1.524 . S
C718 H730 0.956 . S
C718 H731 0.961 . S
C718 H732 0.961 . S
C719 C716 1.539 . S
C719 H733 0.958 . S
C719 H734 0.961 . S
C719 H735 0.960 . S
H720 C704 0.931 . S
H721 C709 0.929 . S
H722 C710 0.960 . S
H723 C710 0.962 . S
H724 C710 0.960 . S
H725 C711 0.961 . S
H726 C711 0.961 . S
H727 C711 0.961 . S
H728 C712 0.931 . S
H729 C717 0.930 . S
H730 C718 0.956 . S
H731 C718 0.961 . S
H732 C718 0.961 . S
H733 C719 0.958 . S
H734 C719 0.961 . S
H735 C719 0.960 . S
C736 C737 1.391 . S
C736 C738 1.394 . S
C736 H752 0.931 . S
C737 C736 1.391 . S
C737 C741 1.376 . S
C738 C736 1.394 . S
C738 C739 1.369 . S
C738 C742 1.531 . S
C739 C738 1.369 . S
C739 C740 1.410 . S
C739 C747 1.503 . S
C740 C739 1.410 . S
C740 C741 1.392 . S
C740 C743 1.511 . S
C741 C737 1.376 . S
C741 C740 1.392 . S
C741 H753 0.929 . S
C742 C738 1.531 . S
C742 H754 0.960 . S
C742 H755 0.962 . S
C742 H756 0.960 . S
C743 C740 1.511 . S
C743 H757 0.961 . S
C743 H758 0.961 . S
C743 H759 0.961 . S
C744 C745 1.370 . S
C744 C746 1.363 . S
C744 H760 0.931 . S
C745 C744 1.370 . S
C745 C749 1.408 . S
C746 C744 1.363 . S
C746 C747 1.370 . S
C746 C750 1.524 . S
C747 C739 1.503 . S
C747 C746 1.370 . S
C747 C748 1.403 . S
C748 C747 1.403 . S
C748 C749 1.404 . S
C748 C751 1.539 . S
C749 C745 1.408 . S
C749 C748 1.404 . S
C749 H761 0.930 . S
C750 C746 1.524 . S
C750 H762 0.956 . S
C750 H763 0.961 . S
C750 H764 0.961 . S
C751 C748 1.539 . S
C751 H765 0.958 . S
C751 H766 0.961 . S
C751 H767 0.960 . S
H752 C736 0.931 . S
H753 C741 0.929 . S
H754 C742 0.960 . S
H755 C742 0.962 . S
H756 C742 0.960 . S
H757 C743 0.961 . S
H758 C743 0.961 . S
H759 C743 0.961 . S
H760 C744 0.931 . S
H761 C749 0.930 . S
H762 C750 0.956 . S
H763 C750 0.961 . S
H764 C750 0.961 . S
H765 C751 0.958 . S
H766 C751 0.961 . S
H767 C751 0.960 . S
C768 C769 1.391 . S
C768 C770 1.394 . S
C768 H784 0.931 . S
C769 C768 1.391 . S
C769 C773 1.376 . S
C770 C768 1.394 . S
C770 C771 1.369 . S
C770 C774 1.531 . S
C771 C770 1.369 . S
C771 C772 1.410 . S
C771 C779 1.503 . S
C772 C771 1.410 . S
C772 C773 1.392 . S
C772 C775 1.511 . S
C773 C769 1.376 . S
C773 C772 1.392 . S
C773 H785 0.929 . S
C774 C770 1.531 . S
C774 H786 0.960 . S
C774 H787 0.962 . S
C774 H788 0.960 . S
C775 C772 1.511 . S
C775 H789 0.961 . S
C775 H790 0.961 . S
C775 H791 0.961 . S
C776 C777 1.370 . S
C776 C778 1.363 . S
C776 H792 0.931 . S
C777 C776 1.370 . S
C777 C781 1.408 . S
C778 C776 1.363 . S
C778 C779 1.370 . S
C778 C782 1.524 . S
C779 C771 1.503 . S
C779 C778 1.370 . S
C779 C780 1.403 . S
C780 C779 1.403 . S
C780 C781 1.404 . S
C780 C783 1.539 . S
C781 C777 1.408 . S
C781 C780 1.404 . S
C781 H793 0.930 . S
C782 C778 1.524 . S
C782 H794 0.956 . S
C782 H795 0.961 . S
C782 H796 0.961 . S
C783 C780 1.539 . S
C783 H797 0.958 . S
C783 H798 0.961 . S
C783 H799 0.960 . S
H784 C768 0.931 . S
H785 C773 0.929 . S
H786 C774 0.960 . S
H787 C774 0.962 . S
H788 C774 0.960 . S
H789 C775 0.961 . S
H790 C775 0.961 . S
H791 C775 0.961 . S
H792 C776 0.931 . S
H793 C781 0.930 . S
H794 C782 0.956 . S
H795 C782 0.961 . S
H796 C782 0.961 . S
H797 C783 0.958 . S
H798 C783 0.961 . S
H799 C783 0.960 . S
C800 C801 1.391 . S
C800 C802 1.394 . S
C800 H816 0.931 . S
C801 C800 1.391 . S
C801 C805 1.376 . S
C802 C800 1.394 . S
C802 C803 1.369 . S
C802 C806 1.531 . S
C803 C802 1.369 . S
C803 C804 1.410 . S
C803 C811 1.503 . S
C804 C803 1.410 . S
C804 C805 1.392 . S
C804 C807 1.511 . S
C805 C801 1.376 . S
C805 C804 1.392 . S
C805 H817 0.929 . S
C806 C802 1.531 . S
C806 H818 0.960 . S
C806 H819 0.962 . S
C806 H820 0.960 . S
C807 C804 1.511 . S
C807 H821 0.961 . S
C807 H822 0.961 . S
C807 H823 0.961 . S
C808 C809 1.370 . S
C808 C810 1.363 . S
C808 H824 0.931 . S
C809 C808 1.370 . S
C809 C813 1.408 . S
C810 C808 1.363 . S
C810 C811 1.370 . S
C810 C814 1.524 . S
C811 C803 1.503 . S
C811 C810 1.370 . S
C811 C812 1.403 . S
C812 C811 1.403 . S
C812 C813 1.404 . S
C812 C815 1.539 . S
C813 C809 1.408 . S
C813 C812 1.404 . S
C813 H825 0.930 . S
C814 C810 1.524 . S
C814 H826 0.956 . S
C814 H827 0.961 . S
C814 H828 0.961 . S
C815 C812 1.539 . S
C815 H829 0.958 . S
C815 H830 0.961 . S
C815 H831 0.960 . S
H816 C800 0.931 . S
H817 C805 0.929 . S
H818 C806 0.960 . S
H819 C806 0.962 . S
H820 C806 0.960 . S
H821 C807 0.961 . S
H822 C807 0.961 . S
H823 C807 0.961 . S
H824 C808 0.931 . S
H825 C813 0.930 . S
H826 C814 0.956 . S
H827 C814 0.961 . S
H828 C814 0.961 . S
H829 C815 0.958 . S
H830 C815 0.961 . S
H831 C815 0.960 . S
C832 C833 1.391 . S
C832 C834 1.394 . S
C832 H848 0.931 . S
C833 C832 1.391 . S
C833 C837 1.376 . S
C834 C832 1.394 . S
C834 C835 1.369 . S
C834 C838 1.531 . S
C835 C834 1.369 . S
C835 C836 1.410 . S
C835 C843 1.503 . S
C836 C835 1.410 . S
C836 C837 1.392 . S
C836 C839 1.511 . S
C837 C833 1.376 . S
C837 C836 1.392 . S
C837 H849 0.929 . S
C838 C834 1.531 . S
C838 H850 0.960 . S
C838 H851 0.962 . S
C838 H852 0.960 . S
C839 C836 1.511 . S
C839 H853 0.961 . S
C839 H854 0.961 . S
C839 H855 0.961 . S
C840 C841 1.370 . S
C840 C842 1.363 . S
C840 H856 0.931 . S
C841 C840 1.370 . S
C841 C845 1.408 . S
C842 C840 1.363 . S
C842 C843 1.370 . S
C842 C846 1.524 . S
C843 C835 1.503 . S
C843 C842 1.370 . S
C843 C844 1.403 . S
C844 C843 1.403 . S
C844 C845 1.404 . S
C844 C847 1.539 . S
C845 C841 1.408 . S
C845 C844 1.404 . S
C845 H857 0.930 . S
C846 C842 1.524 . S
C846 H858 0.956 . S
C846 H859 0.961 . S
C846 H860 0.961 . S
C847 C844 1.539 . S
C847 H861 0.958 . S
C847 H862 0.961 . S
C847 H863 0.960 . S
H848 C832 0.931 . S
H849 C837 0.929 . S
H850 C838 0.960 . S
H851 C838 0.962 . S
H852 C838 0.960 . S
H853 C839 0.961 . S
H854 C839 0.961 . S
H855 C839 0.961 . S
H856 C840 0.931 . S
H857 C845 0.930 . S
H858 C846 0.956 . S
H859 C846 0.961 . S
H860 C846 0.961 . S
H861 C847 0.958 . S
H862 C847 0.961 . S
H863 C847 0.960 . S
C864 C865 1.391 . S
C864 C866 1.394 . S
C864 H880 0.931 . S
C865 C864 1.391 . S
C865 C869 1.376 . S
C866 C864 1.394 . S
C866 C867 1.369 . S
C866 C870 1.531 1_554 S
C867 C866 1.369 . S
C867 C868 1.410 . S
C867 C875 1.503 . S
C868 C867 1.410 . S
C868 C869 1.392 . S
C868 C871 1.511 . S
C869 C865 1.376 . S
C869 C868 1.392 . S
C869 H881 0.929 . S
C870 C866 1.531 1_556 S
C870 H882 0.960 . S
C870 H883 0.962 . S
C870 H884 0.959 1_556 S
C871 C868 1.511 . S
C871 H885 0.961 . S
C871 H886 0.961 . S
C871 H887 0.961 . S
C872 C873 1.370 . S
C872 C874 1.363 . S
C872 H888 0.931 . S
C873 C872 1.370 . S
C873 C877 1.408 . S
C874 C872 1.363 . S
C874 C875 1.370 1_556 S
C874 C878 1.516 1_556 S
C875 C867 1.503 . S
C875 C874 1.370 1_554 S
C875 C876 1.403 1_554 S
C876 C875 1.403 1_556 S
C876 C877 1.404 . S
C876 C879 1.539 1_556 S
C877 C873 1.408 . S
C877 C876 1.404 . S
C877 H889 0.930 . S
C878 C874 1.516 1_554 S
C878 H890 0.954 1_554 S
C878 H891 0.984 . S
C878 H892 0.948 1_554 S
C879 C876 1.539 1_554 S
C879 H893 0.958 . S
C879 H894 0.961 . S
C879 H895 0.960 . S
H880 C864 0.931 . S
H881 C869 0.929 . S
H882 C870 0.960 . S
H883 C870 0.962 . S
H884 C870 0.959 1_554 S
H885 C871 0.961 . S
H886 C871 0.961 . S
H887 C871 0.961 . S
H888 C872 0.931 . S
H889 C877 0.930 . S
H890 C878 0.954 1_556 S
H891 C878 0.984 . S
H892 C878 0.948 1_556 S
H893 C879 0.958 . S
H894 C879 0.961 . S
H895 C879 0.960 . S
C896 C897 1.391 . S
C896 C898 1.394 . S
C896 H912 0.931 . S
C897 C896 1.391 . S
C897 C901 1.376 . S
C898 C896 1.394 . S
C898 C899 1.369 . S
C898 C902 1.531 . S
C899 C898 1.369 . S
C899 C900 1.410 . S
C899 C907 1.503 . S
C900 C899 1.410 . S
C900 C901 1.392 . S
C900 C903 1.511 . S
C901 C897 1.376 . S
C901 C900 1.392 . S
C901 H913 0.929 . S
C902 C898 1.531 . S
C902 H914 0.960 . S
C902 H915 0.962 . S
C902 H916 0.960 . S
C903 C900 1.511 . S
C903 H917 0.961 . S
C903 H918 0.961 . S
C903 H919 0.961 . S
C904 C905 1.370 . S
C904 C906 1.363 . S
C904 H920 0.931 . S
C905 C904 1.370 . S
C905 C909 1.408 . S
C906 C904 1.363 . S
C906 C907 1.370 . S
C906 C910 1.524 . S
C907 C899 1.503 . S
C907 C906 1.370 . S
C907 C908 1.403 . S
C908 C907 1.403 . S
C908 C909 1.404 . S
C908 C911 1.539 . S
C909 C905 1.408 . S
C909 C908 1.404 . S
C909 H921 0.930 . S
C910 C906 1.524 . S
C910 H922 0.956 . S
C910 H923 0.961 . S
C910 H924 0.961 . S
C911 C908 1.539 . S
C911 H925 0.958 . S
C911 H926 0.961 . S
C911 H927 0.960 . S
H912 C896 0.931 . S
H913 C901 0.929 . S
H914 C902 0.960 . S
H915 C902 0.962 . S
H916 C902 0.960 . S
H917 C903 0.961 . S
H918 C903 0.961 . S
H919 C903 0.961 . S
H920 C904 0.931 . S
H921 C909 0.930 . S
H922 C910 0.956 . S
H923 C910 0.961 . S
H924 C910 0.961 . S
H925 C911 0.958 . S
H926 C911 0.961 . S
H927 C911 0.960 . S
C928 C929 1.391 . S
C928 C930 1.394 . S
C928 H944 0.931 . S
C929 C928 1.391 . S
C929 C933 1.376 . S
C930 C928 1.394 . S
C930 C931 1.373 . S
C930 C934 1.531 1_554 S
C931 C930 1.373 . S
C931 C932 1.417 . S
C931 C939 1.490 1_554 S
C932 C931 1.417 . S
C932 C933 1.392 . S
C932 C935 1.511 . S
C933 C929 1.376 . S
C933 C932 1.392 . S
C933 H945 0.929 . S
C934 C930 1.531 1_556 S
C934 H946 0.960 . S
C934 H947 0.962 . S
C934 H948 0.960 1_556 S
C935 C932 1.511 . S
C935 H949 0.961 . S
C935 H950 0.961 1_554 S
C935 H951 0.961 . S
C936 C937 1.370 . S
C936 C938 1.363 . S
C936 H952 0.931 . S
C937 C936 1.370 . S
C937 C941 1.408 . S
C938 C936 1.363 . S
C938 C939 1.370 . S
C938 C942 1.524 . S
C939 C931 1.490 1_556 S
C939 C938 1.370 . S
C939 C940 1.403 . S
C940 C939 1.403 . S
C940 C941 1.404 . S
C940 C943 1.539 1_556 S
C941 C937 1.408 . S
C941 C940 1.404 . S
C941 H953 0.930 . S
C942 C938 1.524 . S
C942 H954 0.956 . S
C942 H955 0.961 . S
C942 H956 0.961 . S
C943 C940 1.539 1_554 S
C943 H957 0.958 . S
C943 H958 0.961 . S
C943 H959 0.960 . S
H944 C928 0.931 . S
H945 C933 0.929 . S
H946 C934 0.960 . S
H947 C934 0.962 . S
H948 C934 0.960 1_554 S
H949 C935 0.961 . S
H950 C935 0.961 1_556 S
H951 C935 0.961 . S
H952 C936 0.931 . S
H953 C941 0.930 . S
H954 C942 0.956 . S
H955 C942 0.961 . S
H956 C942 0.961 . S
H957 C943 0.958 . S
H958 C943 0.961 . S
H959 C943 0.960 . S
C960 C961 1.391 . S
C960 C962 1.394 . S
C960 H976 0.931 . S
C961 C960 1.391 . S
C961 C965 1.376 . S
C962 C960 1.394 . S
C962 C963 1.369 . S
C962 C966 1.531 . S
C963 C962 1.369 . S
C963 C964 1.410 . S
C963 C971 1.503 . S
C964 C963 1.410 . S
C964 C965 1.392 . S
C964 C967 1.511 . S
C965 C961 1.376 . S
C965 C964 1.392 . S
C965 H977 0.929 . S
C966 C962 1.531 . S
C966 H978 0.960 . S
C966 H979 0.962 . S
C966 H980 0.960 . S
C967 C964 1.511 . S
C967 H981 0.961 . S
C967 H982 0.961 . S
C967 H983 0.961 . S
C968 C969 1.370 . S
C968 C970 1.363 . S
C968 H984 0.931 . S
C969 C968 1.370 . S
C969 C973 1.408 . S
C970 C968 1.363 . S
C970 C971 1.370 . S
C970 C974 1.524 . S
C971 C963 1.503 . S
C971 C970 1.370 . S
C971 C972 1.403 . S
C972 C971 1.403 . S
C972 C973 1.404 . S
C972 C975 1.539 . S
C973 C969 1.408 . S
C973 C972 1.404 . S
C973 H985 0.930 . S
C974 C970 1.524 . S
C974 H986 0.956 . S
C974 H987 0.961 . S
C974 H988 0.961 . S
C975 C972 1.539 . S
C975 H989 0.958 . S
C975 H990 0.961 . S
C975 H991 0.960 . S
H976 C960 0.931 . S
H977 C965 0.929 . S
H978 C966 0.960 . S
H979 C966 0.962 . S
H980 C966 0.960 . S
H981 C967 0.961 . S
H982 C967 0.961 . S
H983 C967 0.961 . S
H984 C968 0.931 . S
H985 C973 0.930 . S
H986 C974 0.956 . S
H987 C974 0.961 . S
H988 C974 0.961 . S
H989 C975 0.958 . S
H990 C975 0.961 . S
H991 C975 0.960 . S
C992 C993 1.391 . S
C992 C994 1.394 . S
C992 H1008 0.931 . S
C993 C992 1.391 . S
C993 C997 1.376 . S
C994 C992 1.394 . S
C994 C995 1.369 . S
C994 C998 1.531 . S
C995 C994 1.369 . S
C995 C996 1.410 . S
C995 C1003 1.503 . S
C996 C995 1.410 . S
C996 C997 1.392 . S
C996 C999 1.511 . S
C997 C993 1.376 . S
C997 C996 1.392 . S
C997 H1009 0.929 . S
C998 C994 1.531 . S
C998 H1010 0.960 . S
C998 H1011 0.962 . S
C998 H1012 0.960 . S
C999 C996 1.511 . S
C999 H1013 0.961 . S
C999 H1014 0.961 . S
C999 H1015 0.961 . S
C1000 C1001 1.370 . S
C1000 C1002 1.363 . S
C1000 H1016 0.931 . S
C1001 C1000 1.370 . S
C1001 C1005 1.408 . S
C1002 C1000 1.363 . S
C1002 C1003 1.370 . S
C1002 C1006 1.524 . S
C1003 C995 1.503 . S
C1003 C1002 1.370 . S
C1003 C1004 1.403 . S
C1004 C1003 1.403 . S
C1004 C1005 1.404 . S
C1004 C1007 1.539 . S
C1005 C1001 1.408 . S
C1005 C1004 1.404 . S
C1005 H1017 0.930 . S
C1006 C1002 1.524 . S
C1006 H1018 0.956 . S
C1006 H1019 0.961 . S
C1006 H1020 0.961 . S
C1007 C1004 1.539 . S
C1007 H1021 0.958 . S
C1007 H1022 0.961 . S
C1007 H1023 0.960 . S
H1008 C992 0.931 . S
H1009 C997 0.929 . S
H1010 C998 0.960 . S
H1011 C998 0.962 . S
H1012 C998 0.960 . S
H1013 C999 0.961 . S
H1014 C999 0.961 . S
H1015 C999 0.961 . S
H1016 C1000 0.931 . S
H1017 C1005 0.930 . S
H1018 C1006 0.956 . S
H1019 C1006 0.961 . S
H1020 C1006 0.961 . S
H1021 C1007 0.958 . S
H1022 C1007 0.961 . S
H1023 C1007 0.960 . S
C1024 C1025 1.391 . S
C1024 C1026 1.394 . S
C1024 H1040 0.931 . S
C1025 C1024 1.391 . S
C1025 C1029 1.376 . S
C1026 C1024 1.394 . S
C1026 C1027 1.369 . S
C1026 C1030 1.531 . S
C1027 C1026 1.369 . S
C1027 C1028 1.410 . S
C1027 C1035 1.503 . S
C1028 C1027 1.410 . S
C1028 C1029 1.392 . S
C1028 C1031 1.511 . S
C1029 C1025 1.376 . S
C1029 C1028 1.392 . S
C1029 H1041 0.929 . S
C1030 C1026 1.531 . S
C1030 H1042 0.960 . S
C1030 H1043 0.962 . S
C1030 H1044 0.960 . S
C1031 C1028 1.511 . S
C1031 H1045 0.961 . S
C1031 H1046 0.961 . S
C1031 H1047 0.961 . S
C1032 C1033 1.370 . S
C1032 C1034 1.363 . S
C1032 H1048 0.931 . S
C1033 C1032 1.370 . S
C1033 C1037 1.408 . S
C1034 C1032 1.363 . S
C1034 C1035 1.370 . S
C1034 C1038 1.524 . S
C1035 C1027 1.503 . S
C1035 C1034 1.370 . S
C1035 C1036 1.403 . S
C1036 C1035 1.403 . S
C1036 C1037 1.404 . S
C1036 C1039 1.539 . S
C1037 C1033 1.408 . S
C1037 C1036 1.404 . S
C1037 H1049 0.930 . S
C1038 C1034 1.524 . S
C1038 H1050 0.956 . S
C1038 H1051 0.961 . S
C1038 H1052 0.961 . S
C1039 C1036 1.539 . S
C1039 H1053 0.958 . S
C1039 H1054 0.961 . S
C1039 H1055 0.960 . S
H1040 C1024 0.931 . S
H1041 C1029 0.929 . S
H1042 C1030 0.960 . S
H1043 C1030 0.962 . S
H1044 C1030 0.960 . S
H1045 C1031 0.961 . S
H1046 C1031 0.961 . S
H1047 C1031 0.961 . S
H1048 C1032 0.931 . S
H1049 C1037 0.930 . S
H1050 C1038 0.956 . S
H1051 C1038 0.961 . S
H1052 C1038 0.961 . S
H1053 C1039 0.958 . S
H1054 C1039 0.961 . S
H1055 C1039 0.960 . S
C1056 C1057 1.391 . S
C1056 C1058 1.394 . S
C1056 H1072 0.931 . S
C1057 C1056 1.391 . S
C1057 C1061 1.376 . S
C1058 C1056 1.394 . S
C1058 C1059 1.369 . S
C1058 C1062 1.531 . S
C1059 C1058 1.369 . S
C1059 C1060 1.410 . S
C1059 C1067 1.503 . S
C1060 C1059 1.410 . S
C1060 C1061 1.392 . S
C1060 C1063 1.511 . S
C1061 C1057 1.376 . S
C1061 C1060 1.392 . S
C1061 H1073 0.929 . S
C1062 C1058 1.531 . S
C1062 H1074 0.960 1_545 S
C1062 H1075 0.962 . S
C1062 H1076 0.960 . S
C1063 C1060 1.511 . S
C1063 H1077 0.961 . S
C1063 H1078 0.961 . S
C1063 H1079 0.961 . S
C1064 C1065 1.370 . S
C1064 C1066 1.363 1_565 S
C1064 H1080 0.931 . S
C1065 C1064 1.370 . S
C1065 C1069 1.408 . S
C1066 C1064 1.363 1_545 S
C1066 C1067 1.370 . S
C1066 C1070 1.524 . S
C1067 C1059 1.503 . S
C1067 C1066 1.370 . S
C1067 C1068 1.403 1_545 S
C1068 C1067 1.403 1_565 S
C1068 C1069 1.404 . S
C1068 C1071 1.539 . S
C1069 C1065 1.408 . S
C1069 C1068 1.404 . S
C1069 H1081 0.930 . S
C1070 C1066 1.524 . S
C1070 H1082 0.956 . S
C1070 H1083 0.961 . S
C1070 H1084 0.961 . S
C1071 C1068 1.539 . S
C1071 H1085 0.958 . S
C1071 H1086 0.961 . S
C1071 H1087 0.960 . S
H1072 C1056 0.931 . S
H1073 C1061 0.929 . S
H1074 C1062 0.960 1_565 S
H1075 C1062 0.962 . S
H1076 C1062 0.960 . S
H1077 C1063 0.961 . S
H1078 C1063 0.961 . S
H1079 C1063 0.961 . S
H1080 C1064 0.931 . S
H1081 C1069 0.930 . S
H1082 C1070 0.956 . S
H1083 C1070 0.961 . S
H1084 C1070 0.961 . S
H1085 C1071 0.958 . S
H1086 C1071 0.961 . S
H1087 C1071 0.960 . S
C1088 C1089 1.391 . S
C1088 C1090 1.394 . S
C1088 H1104 0.931 . S
C1089 C1088 1.391 . S
C1089 C1093 1.376 . S
C1090 C1088 1.394 . S
C1090 C1091 1.369 . S
C1090 C1094 1.531 . S
C1091 C1090 1.369 . S
C1091 C1092 1.410 . S
C1091 C1099 1.503 . S
C1092 C1091 1.410 . S
C1092 C1093 1.392 . S
C1092 C1095 1.511 . S
C1093 C1089 1.376 . S
C1093 C1092 1.392 . S
C1093 H1105 0.929 . S
C1094 C1090 1.531 . S
C1094 H1106 0.960 . S
C1094 H1107 0.962 . S
C1094 H1108 0.960 . S
C1095 C1092 1.511 . S
C1095 H1109 0.961 . S
C1095 H1110 0.961 . S
C1095 H1111 0.961 . S
C1096 C1097 1.370 . S
C1096 C1098 1.363 . S
C1096 H1112 0.931 . S
C1097 C1096 1.370 . S
C1097 C1101 1.408 . S
C1098 C1096 1.363 . S
C1098 C1099 1.370 . S
C1098 C1102 1.524 . S
C1099 C1091 1.503 . S
C1099 C1098 1.370 . S
C1099 C1100 1.403 . S
C1100 C1099 1.403 . S
C1100 C1101 1.404 . S
C1100 C1103 1.539 . S
C1101 C1097 1.408 . S
C1101 C1100 1.404 . S
C1101 H1113 0.930 . S
C1102 C1098 1.524 . S
C1102 H1114 0.956 . S
C1102 H1115 0.961 . S
C1102 H1116 0.961 . S
C1103 C1100 1.539 . S
C1103 H1117 0.958 . S
C1103 H1118 0.961 . S
C1103 H1119 0.960 . S
H1104 C1088 0.931 . S
H1105 C1093 0.929 . S
H1106 C1094 0.960 . S
H1107 C1094 0.962 . S
H1108 C1094 0.960 . S
H1109 C1095 0.961 . S
H1110 C1095 0.961 . S
H1111 C1095 0.961 . S
H1112 C1096 0.931 . S
H1113 C1101 0.930 . S
H1114 C1102 0.956 . S
H1115 C1102 0.961 . S
H1116 C1102 0.961 . S
H1117 C1103 0.958 . S
H1118 C1103 0.961 . S
H1119 C1103 0.960 . S
C1120 C1121 1.391 . S
C1120 C1122 1.394 . S
C1120 H1136 0.931 . S
C1121 C1120 1.391 . S
C1121 C1125 1.376 . S
C1122 C1120 1.394 . S
C1122 C1123 1.374 . S
C1122 C1126 1.531 1_545 S
C1123 C1122 1.374 . S
C1123 C1124 1.418 . S
C1123 C1131 1.488 1_545 S
C1124 C1123 1.418 . S
C1124 C1125 1.392 . S
C1124 C1127 1.511 . S
C1125 C1121 1.376 . S
C1125 C1124 1.392 . S
C1125 H1137 0.929 . S
C1126 C1122 1.531 1_565 S
C1126 H1138 0.960 . S
C1126 H1139 0.962 . S
C1126 H1140 0.960 1_565 S
C1127 C1124 1.511 . S
C1127 H1141 0.961 . S
C1127 H1142 0.961 1_545 S
C1127 H1143 0.961 . S
C1128 C1129 1.370 . S
C1128 C1130 1.363 . S
C1128 H1144 0.931 . S
C1129 C1128 1.370 . S
C1129 C1133 1.408 . S
C1130 C1128 1.363 . S
C1130 C1131 1.370 . S
C1130 C1134 1.524 . S
C1131 C1123 1.488 1_565 S
C1131 C1130 1.370 . S
C1131 C1132 1.403 . S
C1132 C1131 1.403 . S
C1132 C1133 1.404 . S
C1132 C1135 1.539 1_565 S
C1133 C1129 1.408 . S
C1133 C1132 1.404 . S
C1133 H1145 0.930 . S
C1134 C1130 1.524 . S
C1134 H1146 0.956 . S
C1134 H1147 0.961 . S
C1134 H1148 0.961 . S
C1135 C1132 1.539 1_545 S
C1135 H1149 0.958 . S
C1135 H1150 0.961 . S
C1135 H1151 0.960 . S
H1136 C1120 0.931 . S
H1137 C1125 0.929 . S
H1138 C1126 0.960 . S
H1139 C1126 0.962 . S
H1140 C1126 0.960 1_545 S
H1141 C1127 0.961 . S
H1142 C1127 0.961 1_565 S
H1143 C1127 0.961 . S
H1144 C1128 0.931 . S
H1145 C1133 0.930 . S
H1146 C1134 0.956 . S
H1147 C1134 0.961 . S
H1148 C1134 0.961 . S
H1149 C1135 0.958 . S
H1150 C1135 0.961 . S
H1151 C1135 0.960 . S
C1152 C1153 1.391 . S
C1152 C1154 1.394 . S
C1152 H1168 0.931 . S
C1153 C1152 1.391 . S
C1153 C1157 1.376 . S
C1154 C1152 1.394 . S
C1154 C1155 1.369 . S
C1154 C1158 1.531 . S
C1155 C1154 1.369 . S
C1155 C1156 1.410 . S
C1155 C1163 1.503 . S
C1156 C1155 1.410 . S
C1156 C1157 1.392 . S
C1156 C1159 1.511 . S
C1157 C1153 1.376 . S
C1157 C1156 1.392 . S
C1157 H1169 0.929 . S
C1158 C1154 1.531 . S
C1158 H1170 0.960 . S
C1158 H1171 0.962 . S
C1158 H1172 0.960 . S
C1159 C1156 1.511 . S
C1159 H1173 0.961 . S
C1159 H1174 0.961 . S
C1159 H1175 0.961 . S
C1160 C1161 1.370 . S
C1160 C1162 1.363 . S
C1160 H1176 0.931 . S
C1161 C1160 1.370 . S
C1161 C1165 1.408 . S
C1162 C1160 1.363 . S
C1162 C1163 1.370 . S
C1162 C1166 1.524 . S
C1163 C1155 1.503 . S
C1163 C1162 1.370 . S
C1163 C1164 1.403 . S
C1164 C1163 1.403 . S
C1164 C1165 1.404 . S
C1164 C1167 1.539 . S
C1165 C1161 1.408 . S
C1165 C1164 1.404 . S
C1165 H1177 0.930 . S
C1166 C1162 1.524 . S
C1166 H1178 0.956 . S
C1166 H1179 0.961 . S
C1166 H1180 0.961 . S
C1167 C1164 1.539 . S
C1167 H1181 0.958 . S
C1167 H1182 0.961 . S
C1167 H1183 0.960 . S
H1168 C1152 0.931 . S
H1169 C1157 0.929 . S
H1170 C1158 0.960 . S
H1171 C1158 0.962 . S
H1172 C1158 0.960 . S
H1173 C1159 0.961 . S
H1174 C1159 0.961 . S
H1175 C1159 0.961 . S
H1176 C1160 0.931 . S
H1177 C1165 0.930 . S
H1178 C1166 0.956 . S
H1179 C1166 0.961 . S
H1180 C1166 0.961 . S
H1181 C1167 0.958 . S
H1182 C1167 0.961 . S
H1183 C1167 0.960 . S
C1184 C1185 1.391 . S
C1184 C1186 1.394 . S
C1184 H1200 0.931 . S
C1185 C1184 1.391 . S
C1185 C1189 1.376 . S
C1186 C1184 1.394 . S
C1186 C1187 1.369 . S
C1186 C1190 1.531 . S
C1187 C1186 1.369 . S
C1187 C1188 1.410 . S
C1187 C1195 1.503 . S
C1188 C1187 1.410 . S
C1188 C1189 1.392 . S
C1188 C1191 1.511 . S
C1189 C1185 1.376 . S
C1189 C1188 1.392 . S
C1189 H1201 0.929 . S
C1190 C1186 1.531 . S
C1190 H1202 0.960 . S
C1190 H1203 0.962 . S
C1190 H1204 0.960 . S
C1191 C1188 1.511 . S
C1191 H1205 0.961 . S
C1191 H1206 0.961 . S
C1191 H1207 0.961 . S
C1192 C1193 1.370 . S
C1192 C1194 1.363 . S
C1192 H1208 0.931 . S
C1193 C1192 1.370 . S
C1193 C1197 1.408 . S
C1194 C1192 1.363 . S
C1194 C1195 1.370 . S
C1194 C1198 1.524 . S
C1195 C1187 1.503 . S
C1195 C1194 1.370 . S
C1195 C1196 1.403 . S
C1196 C1195 1.403 . S
C1196 C1197 1.404 . S
C1196 C1199 1.539 . S
C1197 C1193 1.408 . S
C1197 C1196 1.404 . S
C1197 H1209 0.930 . S
C1198 C1194 1.524 . S
C1198 H1210 0.956 . S
C1198 H1211 0.961 . S
C1198 H1212 0.961 . S
C1199 C1196 1.539 . S
C1199 H1213 0.958 . S
C1199 H1214 0.961 . S
C1199 H1215 0.960 . S
H1200 C1184 0.931 . S
H1201 C1189 0.929 . S
H1202 C1190 0.960 . S
H1203 C1190 0.962 . S
H1204 C1190 0.960 . S
H1205 C1191 0.961 . S
H1206 C1191 0.961 . S
H1207 C1191 0.961 . S
H1208 C1192 0.931 . S
H1209 C1197 0.930 . S
H1210 C1198 0.956 . S
H1211 C1198 0.961 . S
H1212 C1198 0.961 . S
H1213 C1199 0.958 . S
H1214 C1199 0.961 . S
H1215 C1199 0.960 . S
C1216 C1217 1.391 . S
C1216 C1218 1.394 . S
C1216 H1232 0.931 . S
C1217 C1216 1.391 . S
C1217 C1221 1.376 . S
C1218 C1216 1.394 . S
C1218 C1219 1.369 . S
C1218 C1222 1.531 . S
C1219 C1218 1.369 . S
C1219 C1220 1.410 . S
C1219 C1227 1.503 . S
C1220 C1219 1.410 . S
C1220 C1221 1.392 . S
C1220 C1223 1.511 . S
C1221 C1217 1.376 . S
C1221 C1220 1.392 . S
C1221 H1233 0.929 . S
C1222 C1218 1.531 . S
C1222 H1234 0.960 . S
C1222 H1235 0.962 . S
C1222 H1236 0.960 . S
C1223 C1220 1.511 . S
C1223 H1237 0.961 . S
C1223 H1238 0.961 . S
C1223 H1239 0.961 . S
C1224 C1225 1.370 . S
C1224 C1226 1.363 . S
C1224 H1240 0.931 . S
C1225 C1224 1.370 . S
C1225 C1229 1.408 . S
C1226 C1224 1.363 . S
C1226 C1227 1.370 . S
C1226 C1230 1.524 . S
C1227 C1219 1.503 . S
C1227 C1226 1.370 . S
C1227 C1228 1.403 . S
C1228 C1227 1.403 . S
C1228 C1229 1.404 . S
C1228 C1231 1.539 . S
C1229 C1225 1.408 . S
C1229 C1228 1.404 . S
C1229 H1241 0.930 . S
C1230 C1226 1.524 . S
C1230 H1242 0.956 . S
C1230 H1243 0.961 . S
C1230 H1244 0.961 . S
C1231 C1228 1.539 . S
C1231 H1245 0.958 . S
C1231 H1246 0.961 . S
C1231 H1247 0.960 . S
H1232 C1216 0.931 . S
H1233 C1221 0.929 . S
H1234 C1222 0.960 . S
H1235 C1222 0.962 . S
H1236 C1222 0.960 . S
H1237 C1223 0.961 . S
H1238 C1223 0.961 . S
H1239 C1223 0.961 . S
H1240 C1224 0.931 . S
H1241 C1229 0.930 . S
H1242 C1230 0.956 . S
H1243 C1230 0.961 . S
H1244 C1230 0.961 . S
H1245 C1231 0.958 . S
H1246 C1231 0.961 . S
H1247 C1231 0.960 . S
C1248 C1249 1.391 . S
C1248 C1250 1.394 . S
C1248 H1264 0.931 . S
C1249 C1248 1.391 . S
C1249 C1253 1.376 . S
C1250 C1248 1.394 . S
C1250 C1251 1.369 . S
C1250 C1254 1.531 . S
C1251 C1250 1.369 . S
C1251 C1252 1.410 . S
C1251 C1259 1.503 . S
C1252 C1251 1.410 . S
C1252 C1253 1.392 . S
C1252 C1255 1.511 . S
C1253 C1249 1.376 . S
C1253 C1252 1.392 . S
C1253 H1265 0.929 . S
C1254 C1250 1.531 . S
C1254 H1266 0.960 . S
C1254 H1267 0.962 . S
C1254 H1268 0.960 . S
C1255 C1252 1.511 . S
C1255 H1269 0.961 . S
C1255 H1270 0.961 . S
C1255 H1271 0.961 . S
C1256 C1257 1.370 . S
C1256 C1258 1.363 . S
C1256 H1272 0.931 . S
C1257 C1256 1.370 . S
C1257 C1261 1.408 . S
C1258 C1256 1.363 . S
C1258 C1259 1.370 . S
C1258 C1262 1.524 . S
C1259 C1251 1.503 . S
C1259 C1258 1.370 . S
C1259 C1260 1.403 . S
C1260 C1259 1.403 . S
C1260 C1261 1.404 . S
C1260 C1263 1.539 . S
C1261 C1257 1.408 . S
C1261 C1260 1.404 . S
C1261 H1273 0.930 . S
C1262 C1258 1.524 . S
C1262 H1274 0.956 . S
C1262 H1275 0.961 . S
C1262 H1276 0.961 . S
C1263 C1260 1.539 . S
C1263 H1277 0.958 . S
C1263 H1278 0.961 . S
C1263 H1279 0.960 . S
H1264 C1248 0.931 . S
H1265 C1253 0.929 . S
H1266 C1254 0.960 . S
H1267 C1254 0.962 . S
H1268 C1254 0.960 . S
H1269 C1255 0.961 . S
H1270 C1255 0.961 . S
H1271 C1255 0.961 . S
H1272 C1256 0.931 . S
H1273 C1261 0.930 . S
H1274 C1262 0.956 . S
H1275 C1262 0.961 . S
H1276 C1262 0.961 . S
H1277 C1263 0.958 . S
H1278 C1263 0.961 . S
H1279 C1263 0.960 . S
C1280 C1281 1.391 . S
C1280 C1282 1.394 . S
C1280 H1296 0.931 . S
C1281 C1280 1.391 . S
C1281 C1285 1.376 . S
C1282 C1280 1.394 . S
C1282 C1283 1.369 . S
C1282 C1286 1.531 . S
C1283 C1282 1.369 . S
C1283 C1284 1.410 . S
C1283 C1291 1.503 . S
C1284 C1283 1.410 . S
C1284 C1285 1.392 . S
C1284 C1287 1.511 . S
C1285 C1281 1.376 . S
C1285 C1284 1.392 . S
C1285 H1297 0.929 . S
C1286 C1282 1.531 . S
C1286 H1298 0.960 . S
C1286 H1299 0.962 . S
C1286 H1300 0.960 . S
C1287 C1284 1.511 . S
C1287 H1301 0.961 . S
C1287 H1302 0.961 . S
C1287 H1303 0.961 . S
C1288 C1289 1.370 . S
C1288 C1290 1.363 . S
C1288 H1304 0.931 . S
C1289 C1288 1.370 . S
C1289 C1293 1.408 . S
C1290 C1288 1.363 . S
C1290 C1291 1.370 . S
C1290 C1294 1.524 . S
C1291 C1283 1.503 . S
C1291 C1290 1.370 . S
C1291 C1292 1.403 . S
C1292 C1291 1.403 . S
C1292 C1293 1.404 . S
C1292 C1295 1.539 . S
C1293 C1289 1.408 . S
C1293 C1292 1.404 . S
C1293 H1305 0.930 . S
C1294 C1290 1.524 . S
C1294 H1306 0.956 . S
C1294 H1307 0.961 . S
C1294 H1308 0.961 . S
C1295 C1292 1.539 . S
C1295 H1309 0.958 . S
C1295 H1310 0.961 . S
C1295 H1311 0.960 . S
H1296 C1280 0.931 . S
H1297 C1285 0.929 . S
H1298 C1286 0.960 . S
H1299 C1286 0.962 . S
H1300 C1286 0.960 . S
H1301 C1287 0.961 . S
H1302 C1287 0.961 . S
H1303 C1287 0.961 . S
H1304 C1288 0.931 . S
H1305 C1293 0.930 . S
H1306 C1294 0.956 . S
H1307 C1294 0.961 . S
H1308 C1294 0.961 . S
H1309 C1295 0.958 . S
H1310 C1295 0.961 . S
H1311 C1295 0.960 . S
C1312 C1313 1.391 . S
C1312 C1314 1.394 . S
C1312 H1328 0.931 . S
C1313 C1312 1.391 . S
C1313 C1317 1.376 . S
C1314 C1312 1.394 . S
C1314 C1315 1.369 . S
C1314 C1318 1.531 . S
C1315 C1314 1.369 . S
C1315 C1316 1.410 . S
C1315 C1323 1.503 . S
C1316 C1315 1.410 . S
C1316 C1317 1.392 . S
C1316 C1319 1.511 . S
C1317 C1313 1.376 . S
C1317 C1316 1.392 . S
C1317 H1329 0.929 . S
C1318 C1314 1.531 . S
C1318 H1330 0.960 . S
C1318 H1331 0.962 . S
C1318 H1332 0.960 . S
C1319 C1316 1.511 . S
C1319 H1333 0.961 . S
C1319 H1334 0.961 . S
C1319 H1335 0.961 . S
C1320 C1321 1.370 . S
C1320 C1322 1.363 . S
C1320 H1336 0.931 . S
C1321 C1320 1.370 . S
C1321 C1325 1.408 . S
C1322 C1320 1.363 . S
C1322 C1323 1.370 . S
C1322 C1326 1.524 . S
C1323 C1315 1.503 . S
C1323 C1322 1.370 . S
C1323 C1324 1.403 . S
C1324 C1323 1.403 . S
C1324 C1325 1.404 . S
C1324 C1327 1.539 . S
C1325 C1321 1.408 . S
C1325 C1324 1.404 . S
C1325 H1337 0.930 . S
C1326 C1322 1.524 . S
C1326 H1338 0.956 . S
C1326 H1339 0.961 . S
C1326 H1340 0.961 . S
C1327 C1324 1.539 . S
C1327 H1341 0.958 . S
C1327 H1342 0.961 . S
C1327 H1343 0.960 . S
H1328 C1312 0.931 . S
H1329 C1317 0.929 . S
H1330 C1318 0.960 . S
H1331 C1318 0.962 . S
H1332 C1318 0.960 . S
H1333 C1319 0.961 . S
H1334 C1319 0.961 . S
H1335 C1319 0.961 . S
H1336 C1320 0.931 . S
H1337 C1325 0.930 . S
H1338 C1326 0.956 . S
H1339 C1326 0.961 . S
H1340 C1326 0.961 . S
H1341 C1327 0.958 . S
H1342 C1327 0.961 . S
H1343 C1327 0.960 . S
C1344 C1345 1.391 . S
C1344 C1346 1.394 . S
C1344 H1360 0.931 . S
C1345 C1344 1.391 . S
C1345 C1349 1.376 . S
C1346 C1344 1.394 . S
C1346 C1347 1.369 . S
C1346 C1350 1.518 1_455 S
C1347 C1346 1.369 . S
C1347 C1348 1.410 . S
C1347 C1355 1.503 . S
C1348 C1347 1.410 . S
C1348 C1349 1.392 . S
C1348 C1351 1.511 . S
C1349 C1345 1.376 . S
C1349 C1348 1.392 . S
C1349 H1361 0.929 . S
C1350 C1346 1.518 1_655 S
C1350 H1362 0.972 . S
C1350 H1363 0.962 . S
C1350 H1364 0.961 . S
C1351 C1348 1.511 . S
C1351 H1365 0.961 . S
C1351 H1366 0.961 . S
C1351 H1367 0.961 . S
C1352 C1353 1.370 . S
C1352 C1354 1.353 1_655 S
C1352 H1368 0.931 . S
C1353 C1352 1.370 . S
C1353 C1357 1.408 . S
C1354 C1352 1.353 1_455 S
C1354 C1355 1.371 . S
C1354 C1358 1.533 . S
C1355 C1347 1.503 . S
C1355 C1354 1.371 . S
C1355 C1356 1.403 1_455 S
C1356 C1355 1.403 1_655 S
C1356 C1357 1.404 . S
C1356 C1359 1.539 . S
C1357 C1353 1.408 . S
C1357 C1356 1.404 . S
C1357 H1369 0.930 . S
C1358 C1354 1.533 . S
C1358 H1370 0.956 . S
C1358 H1371 0.961 . S
C1358 H1372 0.961 . S
C1359 C1356 1.539 . S
C1359 H1373 0.958 . S
C1359 H1374 0.961 . S
C1359 H1375 0.934 1_655 S
H1360 C1344 0.931 . S
H1361 C1349 0.929 . S
H1362 C1350 0.972 . S
H1363 C1350 0.962 . S
H1364 C1350 0.961 . S
H1365 C1351 0.961 . S
H1366 C1351 0.961 . S
H1367 C1351 0.961 . S
H1368 C1352 0.931 . S
H1369 C1357 0.930 . S
H1370 C1358 0.956 . S
H1371 C1358 0.961 . S
H1372 C1358 0.961 . S
H1373 C1359 0.958 . S
H1374 C1359 0.961 . S
H1375 C1359 0.934 1_455 S
C1376 C1377 1.391 . S
C1376 C1378 1.394 . S
C1376 H1392 0.931 . S
C1377 C1376 1.391 . S
C1377 C1381 1.376 . S
C1378 C1376 1.394 . S
C1378 C1379 1.369 . S
C1378 C1382 1.531 . S
C1379 C1378 1.369 . S
C1379 C1380 1.410 . S
C1379 C1387 1.503 . S
C1380 C1379 1.410 . S
C1380 C1381 1.392 . S
C1380 C1383 1.511 . S
C1381 C1377 1.376 . S
C1381 C1380 1.392 . S
C1381 H1393 0.929 . S
C1382 C1378 1.531 . S
C1382 H1394 0.960 . S
C1382 H1395 0.962 . S
C1382 H1396 0.960 . S
C1383 C1380 1.511 . S
C1383 H1397 0.961 . S
C1383 H1398 0.961 . S
C1383 H1399 0.961 . S
C1384 C1385 1.370 . S
C1384 C1386 1.363 . S
C1384 H1400 0.931 . S
C1385 C1384 1.370 . S
C1385 C1389 1.408 . S
C1386 C1384 1.363 . S
C1386 C1387 1.370 . S
C1386 C1390 1.524 . S
C1387 C1379 1.503 . S
C1387 C1386 1.370 . S
C1387 C1388 1.403 . S
C1388 C1387 1.403 . S
C1388 C1389 1.404 . S
C1388 C1391 1.539 . S
C1389 C1385 1.408 . S
C1389 C1388 1.404 . S
C1389 H1401 0.930 . S
C1390 C1386 1.524 . S
C1390 H1402 0.956 . S
C1390 H1403 0.961 . S
C1390 H1404 0.961 . S
C1391 C1388 1.539 . S
C1391 H1405 0.958 . S
C1391 H1406 0.961 . S
C1391 H1407 0.960 . S
H1392 C1376 0.931 . S
H1393 C1381 0.929 . S
H1394 C1382 0.960 . S
H1395 C1382 0.962 . S
H1396 C1382 0.960 . S
H1397 C1383 0.961 . S
H1398 C1383 0.961 . S
H1399 C1383 0.961 . S
H1400 C1384 0.931 . S
H1401 C1389 0.930 . S
H1402 C1390 0.956 . S
H1403 C1390 0.961 . S
H1404 C1390 0.961 . S
H1405 C1391 0.958 . S
H1406 C1391 0.961 . S
H1407 C1391 0.960 . S
C1408 C1409 1.391 . S
C1408 C1410 1.394 . S
C1408 H1424 0.931 . S
C1409 C1408 1.391 . S
C1409 C1413 1.376 . S
C1410 C1408 1.394 . S
C1410 C1411 1.369 . S
C1410 C1414 1.531 . S
C1411 C1410 1.369 . S
C1411 C1412 1.410 . S
C1411 C1419 1.503 . S
C1412 C1411 1.410 . S
C1412 C1413 1.392 . S
C1412 C1415 1.511 . S
C1413 C1409 1.376 . S
C1413 C1412 1.392 . S
C1413 H1425 0.929 . S
C1414 C1410 1.531 . S
C1414 H1426 0.960 . S
C1414 H1427 0.962 . S
C1414 H1428 0.960 . S
C1415 C1412 1.511 . S
C1415 H1429 0.961 . S
C1415 H1430 0.961 . S
C1415 H1431 0.961 . S
C1416 C1417 1.370 . S
C1416 C1418 1.363 . S
C1416 H1432 0.931 . S
C1417 C1416 1.370 . S
C1417 C1421 1.408 . S
C1418 C1416 1.363 . S
C1418 C1419 1.370 . S
C1418 C1422 1.524 . S
C1419 C1411 1.503 . S
C1419 C1418 1.370 . S
C1419 C1420 1.403 . S
C1420 C1419 1.403 . S
C1420 C1421 1.404 . S
C1420 C1423 1.539 . S
C1421 C1417 1.408 . S
C1421 C1420 1.404 . S
C1421 H1433 0.930 . S
C1422 C1418 1.524 . S
C1422 H1434 0.956 . S
C1422 H1435 0.961 . S
C1422 H1436 0.961 . S
C1423 C1420 1.539 . S
C1423 H1437 0.958 . S
C1423 H1438 0.961 . S
C1423 H1439 0.960 . S
H1424 C1408 0.931 . S
H1425 C1413 0.929 . S
H1426 C1414 0.960 . S
H1427 C1414 0.962 . S
H1428 C1414 0.960 . S
H1429 C1415 0.961 . S
H1430 C1415 0.961 . S
H1431 C1415 0.961 . S
H1432 C1416 0.931 . S
H1433 C1421 0.930 . S
H1434 C1422 0.956 . S
H1435 C1422 0.961 . S
H1436 C1422 0.961 . S
H1437 C1423 0.958 . S
H1438 C1423 0.961 . S
H1439 C1423 0.960 . S
C1440 C1441 1.391 . S
C1440 C1442 1.394 . S
C1440 H1456 0.931 . S
C1441 C1440 1.391 . S
C1441 C1445 1.376 . S
C1442 C1440 1.394 . S
C1442 C1443 1.369 . S
C1442 C1446 1.531 . S
C1443 C1442 1.369 . S
C1443 C1444 1.410 . S
C1443 C1451 1.503 . S
C1444 C1443 1.410 . S
C1444 C1445 1.392 . S
C1444 C1447 1.511 . S
C1445 C1441 1.376 . S
C1445 C1444 1.392 . S
C1445 H1457 0.929 . S
C1446 C1442 1.531 . S
C1446 H1458 0.960 . S
C1446 H1459 0.962 . S
C1446 H1460 0.960 . S
C1447 C1444 1.511 . S
C1447 H1461 0.961 . S
C1447 H1462 0.961 . S
C1447 H1463 0.961 . S
C1448 C1449 1.370 . S
C1448 C1450 1.363 . S
C1448 H1464 0.931 . S
C1449 C1448 1.370 . S
C1449 C1453 1.408 . S
C1450 C1448 1.363 . S
C1450 C1451 1.370 . S
C1450 C1454 1.524 . S
C1451 C1443 1.503 . S
C1451 C1450 1.370 . S
C1451 C1452 1.403 . S
C1452 C1451 1.403 . S
C1452 C1453 1.404 . S
C1452 C1455 1.539 . S
C1453 C1449 1.408 . S
C1453 C1452 1.404 . S
C1453 H1465 0.930 . S
C1454 C1450 1.524 . S
C1454 H1466 0.956 . S
C1454 H1467 0.961 . S
C1454 H1468 0.961 . S
C1455 C1452 1.539 . S
C1455 H1469 0.958 . S
C1455 H1470 0.961 . S
C1455 H1471 0.960 . S
H1456 C1440 0.931 . S
H1457 C1445 0.929 . S
H1458 C1446 0.960 . S
H1459 C1446 0.962 . S
H1460 C1446 0.960 . S
H1461 C1447 0.961 . S
H1462 C1447 0.961 . S
H1463 C1447 0.961 . S
H1464 C1448 0.931 . S
H1465 C1453 0.930 . S
H1466 C1454 0.956 . S
H1467 C1454 0.961 . S
H1468 C1454 0.961 . S
H1469 C1455 0.958 . S
H1470 C1455 0.961 . S
H1471 C1455 0.960 . S
C1472 C1473 1.391 . S
C1472 C1474 1.394 . S
C1472 H1488 0.931 . S
C1473 C1472 1.391 . S
C1473 C1477 1.376 . S
C1474 C1472 1.394 . S
C1474 C1475 1.369 . S
C1474 C1478 1.531 . S
C1475 C1474 1.369 . S
C1475 C1476 1.410 . S
C1475 C1483 1.503 . S
C1476 C1475 1.410 . S
C1476 C1477 1.392 . S
C1476 C1479 1.511 . S
C1477 C1473 1.376 . S
C1477 C1476 1.392 . S
C1477 H1489 0.929 . S
C1478 C1474 1.531 . S
C1478 H1490 0.960 . S
C1478 H1491 0.962 . S
C1478 H1492 0.960 . S
C1479 C1476 1.511 . S
C1479 H1493 0.961 . S
C1479 H1494 0.961 . S
C1479 H1495 0.961 . S
C1480 C1481 1.370 . S
C1480 C1482 1.363 . S
C1480 H1496 0.931 . S
C1481 C1480 1.370 . S
C1481 C1485 1.408 . S
C1482 C1480 1.363 . S
C1482 C1483 1.370 . S
C1482 C1486 1.524 . S
C1483 C1475 1.503 . S
C1483 C1482 1.370 . S
C1483 C1484 1.403 . S
C1484 C1483 1.403 . S
C1484 C1485 1.404 . S
C1484 C1487 1.539 . S
C1485 C1481 1.408 . S
C1485 C1484 1.404 . S
C1485 H1497 0.930 . S
C1486 C1482 1.524 . S
C1486 H1498 0.956 . S
C1486 H1499 0.961 . S
C1486 H1500 0.961 . S
C1487 C1484 1.539 . S
C1487 H1501 0.958 . S
C1487 H1502 0.961 . S
C1487 H1503 0.960 . S
H1488 C1472 0.931 . S
H1489 C1477 0.929 . S
H1490 C1478 0.960 . S
H1491 C1478 0.962 . S
H1492 C1478 0.960 . S
H1493 C1479 0.961 . S
H1494 C1479 0.961 . S
H1495 C1479 0.961 . S
H1496 C1480 0.931 . S
H1497 C1485 0.930 . S
H1498 C1486 0.956 . S
H1499 C1486 0.961 . S
H1500 C1486 0.961 . S
H1501 C1487 0.958 . S
H1502 C1487 0.961 . S
H1503 C1487 0.960 . S
C1504 C1505 1.391 . S
C1504 C1506 1.394 . S
C1504 H1520 0.931 . S
C1505 C1504 1.391 . S
C1505 C1509 1.376 . S
C1506 C1504 1.394 . S
C1506 C1507 1.369 . S
C1506 C1510 1.531 1_655 S
C1507 C1506 1.369 . S
C1507 C1508 1.410 . S
C1507 C1515 1.503 . S
C1508 C1507 1.410 . S
C1508 C1509 1.392 . S
C1508 C1511 1.511 . S
C1509 C1505 1.376 . S
C1509 C1508 1.392 . S
C1509 H1521 0.929 . S
C1510 C1506 1.531 1_455 S
C1510 H1522 0.960 . S
C1510 H1523 0.962 . S
C1510 H1524 0.960 . S
C1511 C1508 1.511 . S
C1511 H1525 0.961 . S
C1511 H1526 0.961 . S
C1511 H1527 0.961 . S
C1512 C1513 1.370 . S
C1512 C1514 1.363 . S
C1512 H1528 0.931 . S
C1513 C1512 1.370 . S
C1513 C1517 1.408 . S
C1514 C1512 1.363 . S
C1514 C1515 1.370 1_455 S
C1514 C1518 1.524 1_455 S
C1515 C1507 1.503 . S
C1515 C1514 1.370 1_655 S
C1515 C1516 1.403 1_655 S
C1516 C1515 1.403 1_455 S
C1516 C1517 1.404 . S
C1516 C1519 1.539 . S
C1517 C1513 1.408 . S
C1517 C1516 1.404 . S
C1517 H1529 0.930 . S
C1518 C1514 1.524 1_655 S
C1518 H1530 0.956 . S
C1518 H1531 0.961 . S
C1518 H1532 0.961 . S
C1519 C1516 1.539 . S
C1519 H1533 0.958 . S
C1519 H1534 0.961 . S
C1519 H1535 0.960 1_455 S
H1520 C1504 0.931 . S
H1521 C1509 0.929 . S
H1522 C1510 0.960 . S
H1523 C1510 0.962 . S
H1524 C1510 0.960 . S
H1525 C1511 0.961 . S
H1526 C1511 0.961 . S
H1527 C1511 0.961 . S
H1528 C1512 0.931 . S
H1529 C1517 0.930 . S
H1530 C1518 0.956 . S
H1531 C1518 0.961 . S
H1532 C1518 0.961 . S
H1533 C1519 0.958 . S
H1534 C1519 0.961 . S
H1535 C1519 0.960 1_655 S
C385 C4 1.314 . S
C393 C356 1.362 . S
C417 C292 1.367 . S
C425 C36 1.358 . S
C449 C93 1.340 . S
C457 C260 1.325 . S
C481 C100 1.294 . S
C489 C324 1.343 . S
C513 C132 1.298 . S
C521 C349 1.357 . S
C545 C189 1.329 . S
C553 C381 1.326 . S
C577 C317 1.375 . S
C585 C196 1.354 . S
C609 C253 1.296 . S
C617 C285 1.355 . S
C641 C125 1.374 . S
C649 C157 1.354 . S
C673 C29 1.344 . S
C681 C164 1.363 . S
C705 C61 1.386 . S
C713 C221 1.344 . S
C737 C228 1.320 . S
C745 C68 1.363 . S
C769 N18 1.269 . S
C777 C262 1.266 . S
C801 N50 1.269 . S
C809 C326 1.266 . S
C833 C358 1.263 . S
C841 N77 1.263 . S
C865 N114 1.263 . S
C873 C294 1.266 . S
C897 N146 1.270 . S
C905 C290 1.267 . S
C929 C258 1.265 . S
C937 N173 1.259 . S
C961 C322 1.264 . S
C969 N210 1.265 . S
C993 C354 1.265 . S
C1001 N237 1.259 . S
C1025 C2 1.262 . S
C1033 N109 1.265 . S
C1057 N13 1.251 . S
C1065 C34 1.267 . S
C1089 N45 1.252 . S
C1097 C70 1.268 . S
C1121 C98 1.265 . S
C1129 N82 1.259 . S
C1153 N178 1.250 . S
C1161 C130 1.268 . S
C1185 C166 1.265 . S
C1193 N205 1.259 . S
C1217 C194 1.266 . S
C1225 N242 1.260 . S
C1249 N141 1.268 . S
C1257 C230 1.267 . S
C1281 N269 1.251 . S
C1289 C102 1.267 . S
C1313 C162 1.265 . S
C1321 N306 1.264 . S
C1345 N274 1.254 . S
C1353 C198 1.267 . S
C1377 N338 1.260 . S
C1385 C226 1.267 . S
C1409 C134 1.263 . S
C1417 N370 1.262 . S
C1441 N365 1.258 . S
C1449 C38 1.267 . S
C1473 C66 1.264 . S
C1481 N301 1.261 . S
C1505 N333 1.259 . S
C1513 C6 1.267 . S
