# Generated by pormake.
# Topology umo, (4)-cn, num edge types: 1
# Building blocks:
#     Node 0, Type 0, BuildingBlock: KUFVIS_clean_sbu_0, # of connection points: 4
#     Node 1, Type 0, BuildingBlock: KUFVIS_clean_sbu_0, # of connection points: 4
#     Node 2, Type 0, BuildingBlock: KUFVIS_clean_sbu_0, # of connection points: 4
#     Node 3, Type 0, BuildingBlock: KUFVIS_clean_sbu_0, # of connection points: 4
#     Node 4, Type 0, BuildingBlock: KUFVIS_clean_sbu_0, # of connection points: 4
#     Node 5, Type 0, BuildingBlock: KUFVIS_clean_sbu_0, # of connection points: 4
#     Node 6, Type 0, BuildingBlock: KUFVIS_clean_sbu_0, # of connection points: 4
#     Node 7, Type 0, BuildingBlock: KUFVIS_clean_sbu_0, # of connection points: 4
#     Node 8, Type 0, BuildingBlock: KUFVIS_clean_sbu_0, # of connection points: 4
#     Node 9, Type 0, BuildingBlock: KUFVIS_clean_sbu_0, # of connection points: 4
#     Node 10, Type 0, BuildingBlock: KUFVIS_clean_sbu_0, # of connection points: 4
#     Node 11, Type 0, BuildingBlock: KUFVIS_clean_sbu_0, # of connection points: 4
#     Edge 12, Type (0, 0), BuildingBlock: TEMPAE_clean_linker_10, # of connection points: 2
#     Edge 13, Type (0, 0), BuildingBlock: TEMPAE_clean_linker_10, # of connection points: 2
#     Edge 14, Type (0, 0), BuildingBlock: TEMPAE_clean_linker_10, # of connection points: 2
#     Edge 15, Type (0, 0), BuildingBlock: TEMPAE_clean_linker_10, # of connection points: 2
#     Edge 16, Type (0, 0), BuildingBlock: TEMPAE_clean_linker_10, # of connection points: 2
#     Edge 17, Type (0, 0), BuildingBlock: TEMPAE_clean_linker_10, # of connection points: 2
#     Edge 18, Type (0, 0), BuildingBlock: TEMPAE_clean_linker_10, # of connection points: 2
#     Edge 19, Type (0, 0), BuildingBlock: TEMPAE_clean_linker_10, # of connection points: 2
#     Edge 20, Type (0, 0), BuildingBlock: TEMPAE_clean_linker_10, # of connection points: 2
#     Edge 21, Type (0, 0), BuildingBlock: TEMPAE_clean_linker_10, # of connection points: 2
#     Edge 22, Type (0, 0), BuildingBlock: TEMPAE_clean_linker_10, # of connection points: 2
#     Edge 23, Type (0, 0), BuildingBlock: TEMPAE_clean_linker_10, # of connection points: 2
#     Edge 24, Type (0, 0), BuildingBlock: TEMPAE_clean_linker_10, # of connection points: 2
#     Edge 25, Type (0, 0), BuildingBlock: TEMPAE_clean_linker_10, # of connection points: 2
#     Edge 26, Type (0, 0), BuildingBlock: TEMPAE_clean_linker_10, # of connection points: 2
#     Edge 27, Type (0, 0), BuildingBlock: TEMPAE_clean_linker_10, # of connection points: 2
#     Edge 28, Type (0, 0), BuildingBlock: TEMPAE_clean_linker_10, # of connection points: 2
#     Edge 29, Type (0, 0), BuildingBlock: TEMPAE_clean_linker_10, # of connection points: 2
#     Edge 30, Type (0, 0), BuildingBlock: TEMPAE_clean_linker_10, # of connection points: 2
#     Edge 31, Type (0, 0), BuildingBlock: TEMPAE_clean_linker_10, # of connection points: 2
#     Edge 32, Type (0, 0), BuildingBlock: TEMPAE_clean_linker_10, # of connection points: 2
#     Edge 33, Type (0, 0), BuildingBlock: TEMPAE_clean_linker_10, # of connection points: 2
#     Edge 34, Type (0, 0), BuildingBlock: TEMPAE_clean_linker_10, # of connection points: 2
#     Edge 35, Type (0, 0), BuildingBlock: TEMPAE_clean_linker_10, # of connection points: 2
# Relax obj value: 0.193
# Max RMSD: 0.246
# Mean RMSD: 0.246
data_MOF--net-umo--node1-KUFVIS_clean_sbu_0--edge1-TEMPAE_clean_linker_10
_symmetry_space_group_name_H-M    P1
_symmetry_Int_Tables_number       1
_symmetry_cell_setting            triclinic
loop_
_symmetry_equiv_pos_as_xyz
'x, y, z'
_cell_length_a     47.783179
_cell_length_b     47.738438
_cell_length_c     39.244482
_cell_angle_alpha  89.942972
_cell_angle_beta   89.963126
_cell_angle_gamma 120.04314
loop_
_atom_site_label
_atom_site_type_symbol
_atom_site_fract_x
_atom_site_fract_y
_atom_site_fract_z
_atom_type_partial_charge
Mn0 Mn 0.17167 0.563 0.38792 0.0
Mn1 Mn 0.12112 0.59193 0.40538 0.0
C2 C 0.19206 0.61782 0.39167 0.0
C3 C 0.19417 0.54462 0.34594 0.0
C4 C 0.15131 0.57184 0.46086 0.0
O5 O 0.12755 0.52292 0.38287 0.0
O6 O 0.0971 0.54504 0.39572 0.0
C7 C 0.09484 0.58221 0.33536 0.0
N8 N 0.10983 0.60216 0.36228 0.0
C9 C 0.11298 0.6477 0.33245 0.0
C10 C 0.09754 0.62764 0.30442 0.0
C11 C 0.08847 0.59476 0.30588 0.0
C12 C 0.11897 0.6339 0.361 0.0
H13 H 0.08778 0.55691 0.33636 0.0
C14 C 0.10039 0.5209 0.38796 0.0
O15 O 0.19341 0.53681 0.37785 0.0
O16 O 0.1809 0.56174 0.33868 0.0
N17 N 0.13924 0.63689 0.41563 0.0
C18 C 0.15046 0.65201 0.44618 0.0
C19 C 0.15962 0.68478 0.44952 0.0
C20 C 0.1559 0.70133 0.42187 0.0
C21 C 0.14258 0.68479 0.3913 0.0
C22 C 0.13401 0.65215 0.38946 0.0
H23 H 0.15277 0.63923 0.46773 0.0
O24 O 0.21093 0.60565 0.39133 0.0
O25 O 0.16148 0.59777 0.38594 0.0
O26 O 0.16649 0.56186 0.44147 0.0
O27 O 0.13365 0.58287 0.44944 0.0
C28 C 0.13701 0.69927 0.36278 0.0
C29 C 0.12237 0.68078 0.3333 0.0
H30 H 0.09242 0.63719 0.28171 0.0
H31 H 0.07651 0.57909 0.28438 0.0
H32 H 0.16938 0.69721 0.47338 0.0
H33 H 0.16296 0.7266 0.42453 0.0
H34 H 0.14365 0.72454 0.36334 0.0
H35 H 0.11808 0.69214 0.31158 0.0
Mn36 Mn 0.59421 0.16958 0.55055 0.0
Mn37 Mn 0.51389 0.11973 0.56474 0.0
C38 C 0.56033 0.19076 0.5522 0.0
C39 C 0.63661 0.19246 0.51013 0.0
C40 C 0.56268 0.14803 0.62217 0.0
O41 O 0.58942 0.12506 0.54575 0.0
O42 O 0.53589 0.09516 0.55362 0.0
C43 C 0.49824 0.09664 0.49355 0.0
N44 N 0.49293 0.11036 0.52139 0.0
C45 C 0.45068 0.11446 0.49261 0.0
C46 C 0.45558 0.10022 0.46368 0.0
C47 C 0.47954 0.09137 0.46412 0.0
C48 C 0.47028 0.1194 0.52107 0.0
H49 H 0.51662 0.08978 0.49378 0.0
C50 C 0.56342 0.09793 0.54753 0.0
O51 O 0.64245 0.19111 0.54231 0.0
O52 O 0.6065 0.17927 0.5017 0.0
N53 N 0.48787 0.13855 0.57595 0.0
C54 C 0.48484 0.1502 0.60663 0.0
C55 C 0.46147 0.15955 0.61073 0.0
C56 C 0.44068 0.15579 0.58367 0.0
C57 C 0.44335 0.14256 0.55278 0.0
C58 C 0.46714 0.1337 0.55019 0.0
H59 H 0.50041 0.15275 0.6277 0.0
O60 O 0.59141 0.20923 0.5534 0.0
O61 O 0.54956 0.16013 0.54662 0.0
O62 O 0.58843 0.164 0.60383 0.0
O63 O 0.53454 0.13011 0.60951 0.0
C64 C 0.42328 0.13772 0.5245 0.0
C65 C 0.42708 0.12387 0.49437 0.0
H66 H 0.4411 0.09597 0.44099 0.0
H67 H 0.48352 0.08043 0.44187 0.0
H68 H 0.45941 0.16951 0.63474 0.0
H69 H 0.42269 0.16305 0.58692 0.0
H70 H 0.40486 0.1446 0.52566 0.0
H71 H 0.41155 0.12034 0.47276 0.0
Mn72 Mn 0.42083 0.5966 0.71883 0.0
Mn73 Mn 0.38439 0.51567 0.73294 0.0
C74 C 0.36549 0.56674 0.72243 0.0
C75 C 0.44201 0.63836 0.67765 0.0
C76 C 0.41106 0.56495 0.79018 0.0
O77 O 0.4576 0.58761 0.71217 0.0
O78 O 0.43023 0.53385 0.71956 0.0
C79 C 0.38681 0.49792 0.66119 0.0
N80 N 0.36949 0.49446 0.69004 0.0
C81 C 0.3203 0.4541 0.66357 0.0
C82 C 0.33764 0.45709 0.63364 0.0
C83 C 0.37102 0.47918 0.63242 0.0
C84 C 0.3373 0.47361 0.69134 0.0
H85 H 0.41248 0.51485 0.66016 0.0
C86 C 0.4562 0.56034 0.713 0.0
O87 O 0.45075 0.64437 0.70945 0.0
O88 O 0.42256 0.60842 0.67004 0.0
N89 N 0.33982 0.49323 0.7462 0.0
C90 C 0.32671 0.49268 0.77725 0.0
C91 C 0.29354 0.47173 0.78278 0.0
C92 C 0.27435 0.45081 0.75672 0.0
C93 C 0.28853 0.451 0.72535 0.0
C94 C 0.32172 0.47247 0.7213 0.0
H95 H 0.34133 0.50848 0.7975 0.0
O96 O 0.38064 0.59803 0.72381 0.0
O97 O 0.38295 0.55343 0.71579 0.0
O98 O 0.42208 0.59093 0.77194 0.0
O99 O 0.3981 0.53652 0.77742 0.0
C100 C 0.27098 0.4309 0.69787 0.0
C101 C 0.28682 0.43258 0.66693 0.0
H102 H 0.32556 0.4426 0.61143 0.0
H103 H 0.38455 0.4817 0.60938 0.0
H104 H 0.28282 0.47166 0.8071 0.0
H105 H 0.24875 0.43475 0.76104 0.0
H106 H 0.24525 0.41422 0.70017 0.0
H107 H 0.27303 0.41717 0.6459 0.0
Mn108 Mn 0.81455 0.42238 0.8929 0.0
Mn109 Mn 0.86047 0.38814 0.90984 0.0
C110 C 0.78998 0.36764 0.90166 0.0
C111 C 0.7917 0.43967 0.85017 0.0
C112 C 0.84 0.41916 0.96451 0.0
O113 O 0.8598 0.4588 0.8826 0.0
O114 O 0.88718 0.43274 0.892 0.0
C115 C 0.87764 0.38442 0.83816 0.0
N116 N 0.86498 0.36961 0.86853 0.0
C117 C 0.85462 0.31822 0.84669 0.0
C118 C 0.86774 0.33295 0.81524 0.0
C119 C 0.8792 0.36618 0.81094 0.0
C120 C 0.85359 0.33761 0.87284 0.0
H121 H 0.88645 0.40995 0.83474 0.0
C122 C 0.88591 0.45786 0.88317 0.0
O123 O 0.79572 0.45095 0.88108 0.0
O124 O 0.80216 0.41991 0.84423 0.0
N125 N 0.83904 0.34487 0.92734 0.0
C126 C 0.82755 0.33441 0.95943 0.0
C127 C 0.81484 0.30164 0.96781 0.0
C128 C 0.81504 0.28016 0.94351 0.0
C129 C 0.82818 0.29172 0.91111 0.0
C130 C 0.84037 0.32462 0.90416 0.0
H131 H 0.82762 0.35084 0.97835 0.0
O132 O 0.77352 0.38245 0.90195 0.0
O133 O 0.82035 0.3848 0.89311 0.0
O134 O 0.8238 0.4281 0.9455 0.0
O135 O 0.85528 0.40557 0.95292 0.0
C136 C 0.82931 0.27183 0.8853 0.0
C137 C 0.8424 0.28503 0.85307 0.0
H138 H 0.86902 0.31897 0.79419 0.0
H139 H 0.88925 0.37771 0.78671 0.0
H140 H 0.80496 0.29297 0.99296 0.0
H141 H 0.80507 0.25487 0.95002 0.0
H142 H 0.81991 0.24626 0.88986 0.0
H143 H 0.84289 0.26943 0.83334 0.0
Mn144 Mn 0.37863 0.81458 0.05878 0.0
Mn145 Mn 0.45842 0.86193 0.07697 0.0
C146 C 0.4107 0.7916 0.06266 0.0
C147 C 0.33856 0.79378 0.01597 0.0
C148 C 0.40635 0.8355 0.13147 0.0
O149 O 0.3857 0.85983 0.05323 0.0
O150 O 0.43917 0.88832 0.06244 0.0
C151 C 0.47986 0.88486 0.00651 0.0
N152 N 0.48228 0.87047 0.03548 0.0
C153 C 0.52547 0.86463 0.01162 0.0
C154 C 0.52358 0.87955 0.98159 0.0
C155 C 0.50059 0.8896 0.979 0.0
C156 C 0.50405 0.86039 0.03811 0.0
H157 H 0.46225 0.89264 1.00444 0.0
C158 C 0.41225 0.88645 0.05496 0.0
O159 O 0.33108 0.79496 0.04763 0.0
O160 O 0.36895 0.80581 0.00943 0.0
N161 N 0.48145 0.84081 0.09153 0.0
C162 C 0.48038 0.8271 0.12237 0.0
C163 C 0.5016 0.81542 0.12895 0.0
C164 C 0.52442 0.81892 0.10425 0.0
C165 C 0.52591 0.83423 0.07323 0.0
C166 C 0.504 0.84521 0.06802 0.0
H167 H 0.4632 0.82473 0.14166 0.0
O168 O 0.37948 0.77397 0.06292 0.0
O169 O 0.42274 0.82247 0.05735 0.0
O170 O 0.38158 0.8195 0.11199 0.0
O171 O 0.4352 0.85282 0.12028 0.0
C172 C 0.54801 0.83867 0.0471 0.0
C173 C 0.54767 0.8537 0.01625 0.0
H174 H 0.53957 0.88332 0.96034 0.0
H175 H 0.49891 0.90105 0.95587 0.0
H176 H 0.50044 0.80383 0.15304 0.0
H177 H 0.54065 0.80975 0.10937 0.0
H178 H 0.56513 0.83029 0.05033 0.0
H179 H 0.56457 0.85668 0.99623 0.0
Mn180 Mn 0.53679 0.36532 0.22821 0.0
Mn181 Mn 0.56642 0.44484 0.24585 0.0
C182 C 0.59163 0.4001 0.22748 0.0
C183 C 0.51679 0.32514 0.1853 0.0
C184 C 0.55019 0.39466 0.30127 0.0
O185 O 0.49634 0.36892 0.22722 0.0
O186 O 0.51911 0.42183 0.23872 0.0
C187 C 0.55307 0.46114 0.17721 0.0
N188 N 0.57427 0.46661 0.20301 0.0
C189 C 0.6177 0.51026 0.17205 0.0
C190 C 0.59628 0.50526 0.14526 0.0
C191 C 0.56385 0.48051 0.14781 0.0
C192 C 0.60562 0.48999 0.20058 0.0
H193 H 0.52814 0.44212 0.17902 0.0
C194 C 0.49454 0.39422 0.23234 0.0
O195 O 0.51078 0.31731 0.21737 0.0
O196 O 0.53268 0.35572 0.17869 0.0
N197 N 0.61189 0.47183 0.25355 0.0
C198 C 0.62903 0.47477 0.28242 0.0
C199 C 0.66173 0.49886 0.28433 0.0
C200 C 0.67628 0.52035 0.25699 0.0
C201 C 0.65791 0.51767 0.22804 0.0
C202 C 0.62538 0.49318 0.22762 0.0
H203 H 0.61802 0.45847 0.30358 0.0
O204 O 0.57964 0.36907 0.2275 0.0
O205 O 0.57109 0.41038 0.2246 0.0
O206 O 0.5392 0.36929 0.28201 0.0
O207 O 0.55982 0.42314 0.28972 0.0
C208 C 0.67057 0.53842 0.19966 0.0
C209 C 0.65052 0.5346 0.17159 0.0
H210 H 0.60447 0.52025 0.1226 0.0
H211 H 0.54719 0.47641 0.1272 0.0
H212 H 0.67566 0.5009 0.30687 0.0
H213 H 0.70154 0.53886 0.25853 0.0
H214 H 0.6957 0.5574 0.19915 0.0
H215 H 0.66055 0.55065 0.14988 0.0
Mn216 Mn 0.43306 0.81914 0.46117 0.0
Mn217 Mn 0.40303 0.86891 0.44501 0.0
C218 C 0.37813 0.79866 0.46162 0.0
C219 C 0.45288 0.79739 0.50247 0.0
C220 C 0.41942 0.83631 0.38864 0.0
O221 O 0.47341 0.86338 0.46342 0.0
O222 O 0.45048 0.89318 0.45105 0.0
C223 C 0.41794 0.89853 0.51366 0.0
N224 N 0.3961 0.88253 0.48844 0.0
C225 C 0.35333 0.88237 0.52096 0.0
C226 C 0.37539 0.89895 0.54722 0.0
C227 C 0.40782 0.90699 0.54358 0.0
C228 C 0.36476 0.87427 0.49189 0.0
H229 H 0.44291 0.90484 0.51099 0.0
C230 C 0.47511 0.89037 0.45769 0.0
O231 O 0.45913 0.79703 0.47022 0.0
O232 O 0.43695 0.81175 0.51032 0.0
N233 N 0.35743 0.85046 0.43844 0.0
C234 C 0.33979 0.83684 0.40968 0.0
C235 C 0.30703 0.82807 0.40876 0.0
C236 C 0.29299 0.83447 0.43692 0.0
C237 C 0.31193 0.84981 0.46567 0.0
C238 C 0.34442 0.85781 0.46518 0.0
H239 H 0.35045 0.83207 0.38786 0.0
O240 O 0.39032 0.77983 0.46082 0.0
O241 O 0.39852 0.82948 0.46549 0.0
O242 O 0.43114 0.82239 0.40754 0.0
O243 O 0.40881 0.85418 0.40058 0.0
C244 C 0.29989 0.85771 0.49466 0.0
C245 C 0.32053 0.8738 0.52238 0.0
H246 H 0.36771 0.9057 0.57025 0.0
H247 H 0.425 0.91978 0.56372 0.0
H248 H 0.29267 0.81649 0.38636 0.0
H249 H 0.26771 0.82767 0.43613 0.0
H250 H 0.27481 0.8516 0.49587 0.0
H251 H 0.31099 0.87976 0.54452 0.0
Mn252 Mn 0.5995 0.42439 0.63004 0.0
Mn253 Mn 0.52113 0.40137 0.61318 0.0
C254 C 0.5614 0.37033 0.62845 0.0
C255 C 0.64065 0.44131 0.67152 0.0
C256 C 0.56988 0.41516 0.55724 0.0
O257 O 0.59978 0.46693 0.63297 0.0
O258 O 0.5475 0.4484 0.62129 0.0
C259 C 0.50765 0.4152 0.68289 0.0
N260 N 0.50039 0.39409 0.65657 0.0
C261 C 0.45642 0.35151 0.68803 0.0
C262 C 0.46328 0.37286 0.71539 0.0
C263 C 0.48907 0.40482 0.71283 0.0
C264 C 0.47598 0.36316 0.65897 0.0
H265 H 0.52751 0.43975 0.68109 0.0
C266 C 0.57599 0.47126 0.628 0.0
O267 O 0.6476 0.44738 0.63932 0.0
O268 O 0.61029 0.42679 0.67932 0.0
N269 N 0.49112 0.3567 0.60446 0.0
C270 C 0.48532 0.34041 0.57438 0.0
C271 C 0.4597 0.30836 0.57216 0.0
C272 C 0.43946 0.29384 0.60043 0.0
C273 C 0.44472 0.3117 0.63046 0.0
C274 C 0.47072 0.34352 0.63117 0.0
H275 H 0.50041 0.35166 0.55236 0.0
O276 O 0.59199 0.38 0.62897 0.0
O277 O 0.55351 0.39256 0.63307 0.0
O278 O 0.59494 0.42363 0.57639 0.0
O279 O 0.54187 0.40731 0.56889 0.0
C280 C 0.42484 0.29937 0.6595 0.0
C281 C 0.43079 0.31921 0.68834 0.0
H282 H 0.44888 0.36498 0.73846 0.0
H283 H 0.49457 0.42144 0.73384 0.0
H284 H 0.45548 0.29495 0.5487 0.0
H285 H 0.4197 0.26912 0.59864 0.0
H286 H 0.40474 0.27476 0.65982 0.0
H287 H 0.41526 0.30951 0.71047 0.0
Mn288 Mn 0.16426 0.60853 0.79134 0.0
Mn289 Mn 0.11262 0.52958 0.77242 0.0
C290 C 0.18318 0.57288 0.78915 0.0
C291 C 0.18648 0.64869 0.83403 0.0
C292 C 0.14656 0.58037 0.7178 0.0
O293 O 0.12065 0.60588 0.79443 0.0
O294 O 0.08952 0.55358 0.78071 0.0
C295 C 0.08366 0.51314 0.84141 0.0
N296 N 0.09891 0.50756 0.81517 0.0
C297 C 0.09869 0.46365 0.84552 0.0
C298 C 0.08281 0.4688 0.87279 0.0
C299 C 0.07535 0.49372 0.87074 0.0
C300 C 0.10664 0.48399 0.81708 0.0
H301 H 0.0779 0.53228 0.84 0.0
C302 C 0.0933 0.58121 0.78846 0.0
O303 O 0.18724 0.65644 0.8021 0.0
O304 O 0.17164 0.6181 0.84085 0.0
N305 N 0.12978 0.50166 0.76347 0.0
C306 C 0.14232 0.49787 0.73374 0.0
C307 C 0.15034 0.47338 0.73114 0.0
C308 C 0.14425 0.45224 0.75864 0.0
C309 C 0.12984 0.45556 0.78835 0.0
C310 C 0.12245 0.48048 0.78947 0.0
H311 H 0.14669 0.51375 0.71236 0.0
O312 O 0.20276 0.60381 0.7899 0.0
O313 O 0.15257 0.5631 0.79345 0.0
O314 O 0.16129 0.60528 0.7376 0.0
O315 O 0.12764 0.55166 0.72874 0.0
C316 C 0.12217 0.43486 0.81672 0.0
C317 C 0.10677 0.43902 0.84537 0.0
H318 H 0.07621 0.45375 0.89538 0.0
H319 H 0.06315 0.4979 0.89169 0.0
H320 H 0.1611 0.47077 0.70797 0.0
H321 H 0.15048 0.4334 0.75656 0.0
H322 H 0.12786 0.41557 0.8167 0.0
H323 H 0.10093 0.42292 0.86701 0.0
Mn324 Mn 0.53887 0.16323 0.95321 0.0
Mn325 Mn 0.57014 0.1151 0.93398 0.0
C326 C 0.5939 0.1852 0.95046 0.0
C327 C 0.51995 0.18369 0.99688 0.0
C328 C 0.54776 0.14474 0.87976 0.0
O329 O 0.49979 0.11836 0.95755 0.0
O330 O 0.52365 0.08933 0.94535 0.0
C331 C 0.56352 0.08791 1.00328 0.0
N332 N 0.5823 0.10359 0.97577 0.0
C333 C 0.62901 0.10609 1.00195 0.0
C334 C 0.61015 0.08989 0.03053 0.0
C335 C 0.57728 0.08083 0.03122 0.0
C336 C 0.614 0.11268 0.97497 0.0
H337 H 0.53822 0.08082 1.00388 0.0
C338 C 0.49891 0.09159 0.95324 0.0
O339 O 0.51177 0.18372 0.96523 0.0
O340 O 0.53752 0.17071 1.0028 0.0
N341 N 0.61495 0.13536 0.92214 0.0
C342 C 0.62954 0.14989 0.8922 0.0
C343 C 0.66244 0.16034 0.88733 0.0
C344 C 0.67975 0.15478 0.91278 0.0
C345 C 0.66394 0.13867 0.94282 0.0
C346 C 0.63115 0.12896 0.94631 0.0
H347 H 0.61624 0.15378 0.87231 0.0
O348 O 0.58089 0.20334 0.95036 0.0
O349 O 0.57443 0.15428 0.95488 0.0
O350 O 0.53779 0.1596 0.89957 0.0
O351 O 0.55917 0.12729 0.89076 0.0
C352 C 0.67948 0.13205 0.96953 0.0
C353 C 0.66208 0.11594 0.99915 0.0
H354 H 0.62065 0.08428 0.05209 0.0
H355 H 0.56255 0.06832 0.05318 0.0
H356 H 0.67439 0.1725 0.86396 0.0
H357 H 0.70515 0.16295 0.90896 0.0
H358 H 0.70488 0.13945 0.96765 0.0
H359 H 0.67434 0.11116 0.01959 0.0
Mn360 Mn 0.37824 0.55047 0.12103 0.0
Mn361 Mn 0.45727 0.57896 0.10169 0.0
C362 C 0.41208 0.60497 0.11367 0.0
C363 C 0.33906 0.53494 0.16463 0.0
C364 C 0.40443 0.55296 0.0482 0.0
O365 O 0.38326 0.51128 0.12903 0.0
O366 O 0.43633 0.53381 0.11845 0.0
C367 C 0.47888 0.57932 0.17244 0.0
N368 N 0.4817 0.59523 0.14268 0.0
C369 C 0.5258 0.6446 0.1649 0.0
C370 C 0.52351 0.62869 0.19572 0.0
C371 C 0.49988 0.59593 0.19953 0.0
C372 C 0.50413 0.62682 0.13886 0.0
H373 H 0.46074 0.55415 0.1755 0.0
C374 C 0.40907 0.50984 0.12733 0.0
O375 O 0.33073 0.52485 0.13347 0.0
O376 O 0.36971 0.55248 0.17028 0.0
N377 N 0.48183 0.6224 0.08505 0.0
C378 C 0.48146 0.634 0.05337 0.0
C379 C 0.50348 0.66647 0.04546 0.0
C380 C 0.52638 0.6864 0.06975 0.0
C381 C 0.52723 0.67357 0.10165 0.0
C382 C 0.50457 0.64105 0.10814 0.0
H383 H 0.46418 0.61872 0.03442 0.0
O384 O 0.38101 0.59257 0.11427 0.0
O385 O 0.42304 0.5855 0.12052 0.0
O386 O 0.38014 0.54577 0.068 0.0
O387 O 0.4333 0.56385 0.05896 0.0
C388 C 0.54947 0.69185 0.12738 0.0
C389 C 0.54867 0.67742 0.15903 0.0
H390 H 0.53969 0.64141 0.21666 0.0
H391 H 0.49789 0.58351 0.22328 0.0
H392 H 0.50284 0.6761 0.02068 0.0
H393 H 0.54324 0.71147 0.06362 0.0
H394 H 0.56714 0.7171 0.12318 0.0
H395 H 0.56575 0.69178 0.17869 0.0
Mn396 Mn 0.81506 0.38907 0.29488 0.0
Mn397 Mn 0.85738 0.46947 0.27691 0.0
C398 C 0.78792 0.4167 0.28582 0.0
C399 C 0.79365 0.34881 0.33775 0.0
C400 C 0.83958 0.41777 0.22301 0.0
O401 O 0.86119 0.40064 0.30513 0.0
O402 O 0.88589 0.45404 0.29516 0.0
C403 C 0.87366 0.49162 0.34831 0.0
N404 N 0.86066 0.49262 0.31778 0.0
C405 C 0.84825 0.5326 0.33844 0.0
C406 C 0.86168 0.53215 0.37006 0.0
C407 C 0.87434 0.51149 0.37504 0.0
C408 C 0.84809 0.51213 0.31283 0.0
H409 H 0.88344 0.47579 0.35221 0.0
C410 C 0.88634 0.42855 0.30424 0.0
O411 O 0.79841 0.34203 0.30692 0.0
O412 O 0.80278 0.3788 0.34363 0.0
N413 N 0.83411 0.48911 0.25882 0.0
C414 C 0.82235 0.48694 0.22668 0.0
C415 C 0.80848 0.50579 0.21765 0.0
C416 C 0.80784 0.52751 0.24133 0.0
C417 C 0.82124 0.53028 0.27379 0.0
C418 C 0.83456 0.51071 0.28141 0.0
H419 H 0.82313 0.47061 0.20819 0.0
O420 O 0.7729 0.38538 0.2858 0.0
O421 O 0.81839 0.43148 0.2942 0.0
O422 O 0.82431 0.39261 0.24228 0.0
O423 O 0.8535 0.44679 0.23421 0.0
C424 C 0.82155 0.5514 0.29902 0.0
C425 C 0.83489 0.55244 0.33139 0.0
H426 H 0.8623 0.54749 0.39072 0.0
H427 H 0.88465 0.51092 0.3994 0.0
H428 H 0.79839 0.50367 0.19247 0.0
H429 H 0.797 0.54191 0.23432 0.0
H430 H 0.81127 0.5667 0.29393 0.0
H431 H 0.8347 0.56855 0.35068 0.0
C432 C 0.21966 0.65404 0.43893 0.0
C433 C 0.20511 0.64972 0.40704 0.0
C434 C 0.24172 0.68486 0.45068 0.0
C435 C 0.24798 0.71209 0.43057 0.0
C436 C 0.22902 0.70788 0.40122 0.0
C437 C 0.20909 0.6765 0.3885 0.0
C438 C 0.2606 0.68757 0.48266 0.0
C439 C 0.23148 0.73664 0.38247 0.0
C440 C 0.32028 0.78242 0.47159 0.0
C441 C 0.34477 0.78472 0.45021 0.0
C442 C 0.28765 0.76202 0.4629 0.0
C443 C 0.27996 0.74169 0.43392 0.0
C444 C 0.30502 0.74507 0.41179 0.0
C445 C 0.33693 0.76742 0.41974 0.0
C446 C 0.26195 0.76075 0.48628 0.0
C447 C 0.29901 0.72261 0.38193 0.0
H448 H 0.21604 0.63302 0.45325 0.0
H449 H 0.19764 0.673 0.36383 0.0
H450 H 0.25614 0.66364 0.49182 0.0
H451 H 0.28698 0.70323 0.47843 0.0
H452 H 0.25319 0.69833 0.50326 0.0
H453 H 0.21282 0.72922 0.36228 0.0
H454 H 0.22862 0.75272 0.40085 0.0
H455 H 0.25563 0.7512 0.37062 0.0
H456 H 0.32652 0.79553 0.49549 0.0
H457 H 0.35622 0.76933 0.40351 0.0
H458 H 0.26351 0.7511 0.51149 0.0
H459 H 0.23715 0.74589 0.47595 0.0
H460 H 0.26645 0.78556 0.49092 0.0
H461 H 0.28425 0.69694 0.38998 0.0
H462 H 0.32181 0.72594 0.37063 0.0
H463 H 0.28574 0.72708 0.36153 0.0
C464 C 0.51839 0.20697 0.54469 0.0
C465 C 0.54105 0.20437 0.56497 0.0
C466 C 0.50562 0.22643 0.55532 0.0
C467 C 0.51865 0.246 0.58465 0.0
C468 C 0.54041 0.24196 0.60592 0.0
C469 C 0.5504 0.22035 0.5962 0.0
C470 C 0.47919 0.22702 0.53481 0.0
C471 C 0.55655 0.26316 0.63667 0.0
C472 C 0.55062 0.33427 0.58062 0.0
C473 C 0.54075 0.33905 0.61253 0.0
C474 C 0.54019 0.30324 0.56846 0.0
C475 C 0.51775 0.27634 0.58812 0.0
C476 C 0.50348 0.2813 0.61742 0.0
C477 C 0.51664 0.31276 0.63062 0.0
C478 C 0.55715 0.29975 0.53748 0.0
C479 C 0.47607 0.25315 0.63579 0.0
H480 H 0.51137 0.19458 0.5204 0.0
H481 H 0.56795 0.21802 0.61169 0.0
H482 H 0.4573 0.21809 0.55101 0.0
H483 H 0.48596 0.25196 0.52713 0.0
H484 H 0.47288 0.21163 0.51169 0.0
H485 H 0.57483 0.2583 0.64846 0.0
H486 H 0.56886 0.2891 0.62934 0.0
H487 H 0.53836 0.25908 0.65645 0.0
H488 H 0.56935 0.35486 0.56686 0.0
H489 H 0.50904 0.31662 0.65535 0.0
H490 H 0.57032 0.28693 0.5445 0.0
H491 H 0.57483 0.3235 0.52616 0.0
H492 H 0.53943 0.28544 0.51745 0.0
H493 H 0.46577 0.26129 0.65632 0.0
H494 H 0.48423 0.23717 0.64709 0.0
H495 H 0.45672 0.23825 0.61725 0.0
C496 C 0.1978 0.52961 0.79396 0.0
C497 C 0.19599 0.55342 0.77492 0.0
C498 C 0.21722 0.51708 0.78256 0.0
C499 C 0.23764 0.53155 0.75403 0.0
C500 C 0.23417 0.55421 0.73373 0.0
C501 C 0.21254 0.564 0.74401 0.0
C502 C 0.21742 0.48981 0.80182 0.0
C503 C 0.25626 0.57166 0.70388 0.0
C504 C 0.32547 0.56035 0.76454 0.0
C505 C 0.33204 0.54967 0.7341 0.0
C506 C 0.29407 0.55238 0.77298 0.0
C507 C 0.26829 0.53126 0.75135 0.0
C508 C 0.27448 0.51722 0.72265 0.0
C509 C 0.30668 0.528 0.71325 0.0
C510 C 0.28938 0.56981 0.80277 0.0
C511 C 0.24719 0.49177 0.70153 0.0
H512 H 0.18501 0.52163 0.818 0.0
H513 H 0.21089 0.5825 0.72951 0.0
H514 H 0.21393 0.4705 0.78366 0.0
H515 H 0.24107 0.49822 0.81434 0.0
H516 H 0.19814 0.47934 0.82152 0.0
H517 H 0.25346 0.55425 0.68372 0.0
H518 H 0.25123 0.58993 0.69229 0.0
H519 H 0.28189 0.58423 0.71224 0.0
H520 H 0.34541 0.57725 0.78041 0.0
H521 H 0.31204 0.52021 0.68942 0.0
H522 H 0.27433 0.55229 0.82271 0.0
H523 H 0.27683 0.58287 0.79433 0.0
H524 H 0.31264 0.58769 0.81471 0.0
H525 H 0.23263 0.47006 0.7176 0.0
H526 H 0.25615 0.48458 0.67895 0.0
H527 H 0.2305 0.50008 0.69287 0.0
C528 C 0.77021 0.30884 0.89405 0.0
C529 C 0.77405 0.33453 0.91442 0.0
C530 C 0.7479 0.27685 0.90334 0.0
C531 C 0.72679 0.27132 0.93107 0.0
C532 C 0.73234 0.2972 0.95298 0.0
C533 C 0.75666 0.3284 0.94477 0.0
C534 C 0.74506 0.24914 0.88224 0.0
C535 C 0.70977 0.29307 0.98211 0.0
C536 C 0.63835 0.22099 0.91344 0.0
C537 C 0.62804 0.20036 0.94159 0.0
C538 C 0.67099 0.24285 0.9082 0.0
C539 C 0.69407 0.24262 0.93078 0.0
C540 C 0.68393 0.21933 0.95719 0.0
C541 C 0.65068 0.19935 0.96338 0.0
C542 C 0.68013 0.26817 0.88058 0.0
C543 C 0.70814 0.21605 0.97904 0.0
H544 H 0.78346 0.31378 0.87031 0.0
H545 H 0.75994 0.3486 0.96035 0.0
H546 H 0.74761 0.23187 0.89912 0.0
H547 H 0.72089 0.23557 0.87022 0.0
H548 H 0.76376 0.2575 0.86194 0.0
H549 H 0.7086 0.27506 1.00068 0.0
H550 H 0.71744 0.31606 0.99601 0.0
H551 H 0.68495 0.28416 0.97225 0.0
H552 H 0.62051 0.22163 0.89684 0.0
H553 H 0.64243 0.18364 0.98551 0.0
H554 H 0.69528 0.26544 0.86099 0.0
H555 H 0.69432 0.29284 0.89151 0.0
H556 H 0.65866 0.26641 0.86755 0.0
H557 H 0.72194 0.20819 0.96276 0.0
H558 H 0.69631 0.19814 0.99988 0.0
H559 H 0.72612 0.23956 0.99024 0.0
C560 C 0.41874 0.75654 0.10134 0.0
C561 C 0.42913 0.77612 0.07238 0.0
C562 C 0.42851 0.73401 0.10736 0.0
C563 C 0.45075 0.73239 0.08459 0.0
C564 C 0.46443 0.75499 0.05763 0.0
C565 C 0.45215 0.77568 0.05071 0.0
C566 C 0.41202 0.70972 0.13584 0.0
C567 C 0.49114 0.75649 0.03574 0.0
C568 C 0.45474 0.66269 0.1209 0.0
C569 C 0.43128 0.63787 0.10083 0.0
C570 C 0.46679 0.69514 0.11156 0.0
C571 C 0.45214 0.70222 0.08411 0.0
C572 C 0.4302 0.67703 0.06239 0.0
C573 C 0.42079 0.64516 0.07069 0.0
C574 C 0.4934 0.72184 0.13218 0.0
C575 C 0.41292 0.68292 0.03335 0.0
H576 H 0.40084 0.75714 0.1179 0.0
H577 H 0.45979 0.7907 0.02806 0.0
H578 H 0.39366 0.71334 0.14941 0.0
H579 H 0.39977 0.68471 0.12556 0.0
H580 H 0.43005 0.7117 0.15484 0.0
H581 H 0.49781 0.77413 0.01452 0.0
H582 H 0.51277 0.76375 0.05189 0.0
H583 H 0.48442 0.73246 0.02505 0.0
H584 H 0.46259 0.65683 0.1444 0.0
H585 H 0.40266 0.6256 0.05531 0.0
H586 H 0.48519 0.73768 0.1437 0.0
H587 H 0.5139 0.73733 0.11501 0.0
H588 H 0.50223 0.71224 0.15276 0.0
H589 H 0.39894 0.69405 0.04317 0.0
H590 H 0.39592 0.66027 0.01978 0.0
H591 H 0.43053 0.69979 0.01447 0.0
C592 C 0.75329 0.41996 0.24253 0.0
C593 C 0.77057 0.43226 0.27273 0.0
C594 C 0.72875 0.42616 0.23348 0.0
C595 C 0.72285 0.44692 0.25432 0.0
C596 C 0.74332 0.46294 0.28232 0.0
C597 C 0.76591 0.45397 0.29243 0.0
C598 C 0.70656 0.40687 0.20448 0.0
C599 C 0.73988 0.48794 0.30253 0.0
C600 C 0.64884 0.44311 0.21691 0.0
C601 C 0.62515 0.41965 0.23812 0.0
C602 C 0.68172 0.45649 0.22505 0.0
C603 C 0.69045 0.4435 0.25282 0.0
C604 C 0.6663 0.4206 0.2749 0.0
C605 C 0.634 0.40981 0.26772 0.0
C606 C 0.70709 0.48369 0.20368 0.0
C607 C 0.67397 0.40456 0.30391 0.0
H608 H 0.7571 0.40304 0.22755 0.0
H609 H 0.77902 0.46297 0.31613 0.0
H610 H 0.68146 0.39165 0.21403 0.0
H611 H 0.70617 0.42322 0.18471 0.0
H612 H 0.71403 0.39073 0.19206 0.0
H613 H 0.75772 0.49816 0.3236 0.0
H614 H 0.74335 0.50786 0.28525 0.0
H615 H 0.71526 0.47754 0.31342 0.0
H616 H 0.64172 0.45034 0.19379 0.0
H617 H 0.61534 0.3915 0.28387 0.0
H618 H 0.72357 0.47657 0.19164 0.0
H619 H 0.72231 0.50464 0.22039 0.0
H620 H 0.69623 0.49153 0.18346 0.0
H621 H 0.68819 0.39358 0.29444 0.0
H622 H 0.65184 0.38526 0.31653 0.0
H623 H 0.6886 0.42265 0.32355 0.0
C624 C 0.17422 0.61154 0.66341 0.0
C625 C 0.15242 0.58268 0.68009 0.0
C626 C 0.17945 0.61202 0.6278 0.0
C627 C 0.16292 0.58293 0.60863 0.0
C628 C 0.14192 0.55373 0.62561 0.0
C629 C 0.1366 0.55408 0.66058 0.0
C630 C 0.20178 0.64375 0.6105 0.0
C631 C 0.12369 0.52204 0.60657 0.0
C632 C 0.13443 0.58042 0.51827 0.0
C633 C 0.15501 0.57347 0.49878 0.0
C634 C 0.13831 0.5856 0.55343 0.0
C635 C 0.16297 0.58306 0.57047 0.0
C636 C 0.18399 0.57606 0.55131 0.0
C637 C 0.17989 0.5715 0.5156 0.0
C638 C 0.11509 0.59278 0.57251 0.0
C639 C 0.21036 0.57279 0.56865 0.0
H640 H 0.18687 0.63371 0.67799 0.0
H641 H 0.11953 0.53138 0.67253 0.0
H642 H 0.219 0.64118 0.59362 0.0
H643 H 0.18744 0.65093 0.5942 0.0
H644 H 0.21566 0.66342 0.62912 0.0
H645 H 0.11153 0.50094 0.62403 0.0
H646 H 0.10499 0.52247 0.59017 0.0
H647 H 0.14027 0.51845 0.58972 0.0
H648 H 0.11495 0.58199 0.50602 0.0
H649 H 0.19623 0.56666 0.50094 0.0
H650 H 0.12853 0.61418 0.5892 0.0
H651 H 0.09921 0.57193 0.58909 0.0
H652 H 0.09954 0.59743 0.5551 0.0
H653 H 0.22519 0.59425 0.58486 0.0
H654 H 0.22642 0.5701 0.5501 0.0
H655 H 0.19942 0.55131 0.58566 0.0
C656 C 0.5341 0.13387 0.67843 0.0
C657 C 0.56333 0.15144 0.6602 0.0
C658 C 0.53218 0.13752 0.71357 0.0
C659 C 0.56037 0.15858 0.73196 0.0
C660 C 0.59008 0.17663 0.71409 0.0
C661 C 0.59119 0.17307 0.67835 0.0
C662 C 0.49991 0.11771 0.73121 0.0
C663 C 0.6208 0.199 0.73288 0.0
C664 C 0.54626 0.1731 0.82514 0.0
C665 C 0.54904 0.14856 0.84179 0.0
C666 C 0.55096 0.17761 0.78944 0.0
C667 C 0.55903 0.15743 0.77013 0.0
C668 C 0.56207 0.13294 0.78695 0.0
C669 C 0.55663 0.12857 0.82206 0.0
C670 C 0.54696 0.20366 0.77228 0.0
C671 C 0.57048 0.11068 0.76773 0.0
H672 H 0.51215 0.11694 0.66525 0.0
H673 H 0.61381 0.18705 0.66476 0.0
H674 H 0.50046 0.09885 0.74727 0.0
H675 H 0.49492 0.13323 0.74824 0.0
H676 H 0.47962 0.10556 0.71285 0.0
H677 H 0.61705 0.21565 0.74945 0.0
H678 H 0.62755 0.18461 0.74967 0.0
H679 H 0.64124 0.21355 0.71524 0.0
H680 H 0.54081 0.18893 0.83993 0.0
H681 H 0.55877 0.1093 0.83414 0.0
H682 H 0.52646 0.1925 0.7541 0.0
H683 H 0.56895 0.21986 0.75734 0.0
H684 H 0.54236 0.21844 0.79087 0.0
H685 H 0.55037 0.09497 0.75035 0.0
H686 H 0.57498 0.09491 0.785 0.0
H687 H 0.59234 0.12495 0.75182 0.0
C688 C 0.42701 0.55508 0.99031 0.0
C689 C 0.40129 0.55239 0.0103 0.0
C690 C 0.42845 0.56029 0.95508 0.0
C691 C 0.40305 0.562 0.93862 0.0
C692 C 0.37646 0.55847 0.95825 0.0
C693 C 0.37597 0.55392 0.99393 0.0
C694 C 0.45726 0.56378 0.93543 0.0
C695 C 0.34857 0.55944 0.9415 0.0
C696 C 0.42116 0.59459 0.84697 0.0
C697 C 0.41004 0.56585 0.82834 0.0
C698 C 0.41817 0.59389 0.88292 0.0
C699 C 0.40314 0.56377 0.90051 0.0
C700 C 0.39127 0.53484 0.88173 0.0
C701 C 0.39535 0.53627 0.84636 0.0
C702 C 0.4317 0.62532 0.90219 0.0
C703 C 0.37488 0.50213 0.89907 0.0
H704 H 0.44677 0.55384 1.00237 0.0
H705 H 0.35624 0.55238 0.00902 0.0
H706 H 0.44942 0.54308 0.91773 0.0
H707 H 0.46806 0.58617 0.91981 0.0
H708 H 0.47628 0.56465 0.95241 0.0
H709 H 0.33004 0.55702 0.96023 0.0
H710 H 0.35751 0.58254 0.92742 0.0
H711 H 0.33692 0.53958 0.92261 0.0
H712 H 0.43232 0.61753 0.83358 0.0
H713 H 0.38659 0.51363 0.83283 0.0
H714 H 0.45184 0.62832 0.91875 0.0
H715 H 0.4129 0.62498 0.91906 0.0
H716 H 0.44086 0.64655 0.88489 0.0
H717 H 0.39278 0.49936 0.91453 0.0
H718 H 0.3638 0.48184 0.88055 0.0
H719 H 0.35572 0.50003 0.91664 0.0
C720 C 0.8598 0.44284 0.16585 0.0
C721 C 0.8394 0.41499 0.18507 0.0
C722 C 0.85744 0.44357 0.13035 0.0
C723 C 0.8347 0.41545 0.11288 0.0
C724 C 0.81454 0.38686 0.13175 0.0
C725 C 0.81694 0.387 0.16768 0.0
C726 C 0.87949 0.47462 0.11152 0.0
C727 C 0.79047 0.35617 0.11391 0.0
C728 C 0.81746 0.4272 0.02008 0.0
C729 C 0.83942 0.42103 1.00254 0.0
C730 C 0.81504 0.42486 0.05603 0.0
C731 C 0.83462 0.41565 0.07475 0.0
C732 C 0.85671 0.40945 0.05712 0.0
C733 C 0.85916 0.41268 0.02164 0.0
C734 C 0.79167 0.43237 0.07404 0.0
C735 C 0.87806 0.39951 0.07578 0.0
H736 H 0.87747 0.46472 0.17866 0.0
H737 H 0.80082 0.3655 0.18211 0.0
H738 H 0.89619 0.47108 0.09482 0.0
H739 H 0.86508 0.48149 0.09493 0.0
H740 H 0.89415 0.49505 0.12908 0.0
H741 H 0.77353 0.3606 0.09864 0.0
H742 H 0.80326 0.34846 0.09595 0.0
H743 H 0.77627 0.3361 0.13209 0.0
H744 H 0.80186 0.43333 1.00579 0.0
H745 H 0.87643 0.40792 0.00878 0.0
H746 H 0.80505 0.45299 0.09174 0.0
H747 H 0.77451 0.41129 0.08963 0.0
H748 H 0.77769 0.43854 0.05597 0.0
H749 H 0.89534 0.4196 0.09229 0.0
H750 H 0.89208 0.39301 0.05811 0.0
H751 H 0.86322 0.37845 0.09255 0.0
C752 C 0.42923 0.85615 0.18909 0.0
C753 C 0.40365 0.83268 0.16936 0.0
C754 C 0.43107 0.85245 0.22426 0.0
C755 C 0.40633 0.82483 0.2409 0.0
C756 C 0.37999 0.80119 0.22147 0.0
C757 C 0.379 0.8053 0.18585 0.0
C758 C 0.45949 0.87852 0.24371 0.0
C759 C 0.35287 0.77166 0.23837 0.0
C760 C 0.42707 0.81366 0.33257 0.0
C761 C 0.41553 0.8311 0.35084 0.0
C762 C 0.42303 0.80994 0.29676 0.0
C763 C 0.40655 0.8234 0.27902 0.0
C764 C 0.39378 0.83974 0.29758 0.0
C765 C 0.39886 0.84381 0.33273 0.0
C766 C 0.43736 0.79266 0.27775 0.0
C767 C 0.37591 0.85442 0.28012 0.0
H768 H 0.44846 0.87751 0.17684 0.0
H769 H 0.35944 0.78677 0.1709 0.0
H770 H 0.45102 0.89078 0.26148 0.0
H771 H 0.47106 0.86768 0.25924 0.0
H772 H 0.47806 0.89709 0.22661 0.0
H773 H 0.33478 0.75489 0.2197 0.0
H774 H 0.36275 0.75845 0.25264 0.0
H775 H 0.34044 0.7791 0.25711 0.0
H776 H 0.4398 0.80357 0.34602 0.0
H777 H 0.38984 0.85761 0.34588 0.0
H778 H 0.45773 0.81027 0.26166 0.0
H779 H 0.4191 0.77418 0.26046 0.0
H780 H 0.44647 0.78072 0.29525 0.0
H781 H 0.39311 0.8755 0.26455 0.0
H782 H 0.36399 0.86275 0.29859 0.0
H783 H 0.35721 0.83666 0.26266 0.0
C784 C 0.54585 0.36458 0.35696 0.0
C785 C 0.55484 0.39332 0.33898 0.0
C786 C 0.55107 0.3651 0.39261 0.0
C787 C 0.56619 0.39505 0.41046 0.0
C788 C 0.57649 0.42402 0.39211 0.0
C789 C 0.57016 0.42273 0.35723 0.0
C790 C 0.53931 0.33359 0.41139 0.0
C791 C 0.59281 0.45662 0.40961 0.0
C792 C 0.54372 0.40534 0.50007 0.0
C793 C 0.57086 0.41102 0.5195 0.0
C794 C 0.54111 0.39778 0.46537 0.0
C795 C 0.56669 0.39663 0.44862 0.0
C796 C 0.59428 0.40221 0.46776 0.0
C797 C 0.59599 0.40915 0.50306 0.0
C798 C 0.51122 0.3922 0.44636 0.0
C799 C 0.62225 0.40157 0.45075 0.0
H800 H 0.53425 0.34174 0.34342 0.0
H801 H 0.57721 0.4454 0.3444 0.0
H802 H 0.55833 0.33517 0.4288 0.0
H803 H 0.5181 0.32862 0.42731 0.0
H804 H 0.53211 0.31295 0.3937 0.0
H805 H 0.60328 0.47703 0.39114 0.0
H806 H 0.57495 0.45894 0.42565 0.0
H807 H 0.61243 0.45899 0.42658 0.0
H808 H 0.52395 0.40664 0.51201 0.0
H809 H 0.6168 0.41289 0.51771 0.0
H810 H 0.5014 0.36988 0.43078 0.0
H811 H 0.51757 0.41271 0.42872 0.0
H812 H 0.49189 0.39 0.46378 0.0
H813 H 0.61344 0.37909 0.43561 0.0
H814 H 0.6404 0.4031 0.46946 0.0
H815 H 0.63434 0.42224 0.43279 0.0
C816 C 0.94557 0.46317 0.31342 0.0
C817 C 0.91782 0.43243 0.31494 0.0
C818 C 0.97526 0.46847 0.32562 0.0
C819 C 0.97749 0.44229 0.3396 0.0
C820 C 0.9501 0.4108 0.33962 0.0
C821 C 0.92043 0.40624 0.32744 0.0
C822 C 0.00391 0.50257 0.32488 0.0
C823 C 0.95175 0.38223 0.35367 0.0
C824 C 0.06607 0.47453 0.3502 0.0
C825 C 0.07045 0.49037 0.3814 0.0
C826 C 0.03476 0.45393 0.33778 0.0
C827 C 0.00783 0.44951 0.35719 0.0
C828 C 0.01242 0.46122 0.39102 0.0
C829 C 0.04384 0.4818 0.40266 0.0
C830 C 0.03078 0.44093 0.30204 0.0
C831 C 0.98441 0.45649 0.41296 0.0
H832 H 0.94405 0.48355 0.30345 0.0
H833 H 0.8992 0.38231 0.32841 0.0
H834 H 0.01177 0.51126 0.35128 0.0
H835 H 0.0246 0.50304 0.31152 0.0
H836 H -0.00169 0.51987 0.3119 0.0
H837 H 0.93109 0.35891 0.34486 0.0
H838 H 0.97466 0.3833 0.34615 0.0
H839 H 0.95106 0.38266 0.3819 0.0
H840 H 0.08677 0.48104 0.33388 0.0
H841 H 0.04745 0.49376 0.42708 0.0
H842 H 0.02916 0.45803 0.28407 0.0
H843 H 0.00831 0.41715 0.29956 0.0
H844 H 0.05177 0.43835 0.29439 0.0
H845 H 0.97648 0.47367 0.40469 0.0
H846 H -0.00873 0.46108 0.44029 0.0
H847 H 0.96356 0.43164 0.41028 0.0
C848 C 0.52617 0.92357 0.49026 0.0
C849 C 0.50578 0.92074 0.46321 0.0
C850 C 0.54791 0.95417 0.50375 0.0
C851 C 0.54849 0.9819 0.49006 0.0
C852 C 0.532 0.97934 0.45923 0.0
C853 C 0.5108 0.94866 0.44614 0.0
C854 C 0.56697 0.95633 0.5352 0.0
C855 C 0.53276 0.0084 0.44297 0.0
C856 C 0.5363 0.03799 0.54685 0.0
C857 C 0.5638 0.06784 0.53952 0.0
C858 C 0.5324 0.00927 0.53322 0.0
C859 C 0.55699 0.01027 0.51215 0.0
C860 C 0.58646 0.03974 0.50793 0.0
C861 C 0.58945 0.0684 0.52147 0.0
C862 C 0.50051 0.9784 0.53876 0.0
C863 C 0.61393 0.04172 0.48713 0.0
H864 H 0.52284 0.902 0.50313 0.0
H865 H 0.49569 0.94643 0.42451 0.0
H866 H 0.59036 0.97945 0.53576 0.0
H867 H 0.55299 0.9554 0.55819 0.0
H868 H 0.57166 0.9358 0.53656 0.0
H869 H 0.52222 0.00299 0.41694 0.0
H870 H 0.51869 0.01624 0.45886 0.0
H871 H 0.55791 0.0289 0.44135 0.0
H872 H 0.51674 0.03721 0.56163 0.0
H873 H 0.61109 0.09131 0.5162 0.0
H874 H 0.50461 0.95883 0.54811 0.0
H875 H 0.48724 0.97029 0.51426 0.0
H876 H 0.48479 0.98154 0.55742 0.0
H877 H 0.61328 0.01817 0.48607 0.0
H878 H 0.63756 0.06028 0.49779 0.0
H879 H 0.61244 0.04921 0.46074 0.0
C880 C 0.51362 0.58542 0.692 0.0
C881 C 0.48532 0.55839 0.70423 0.0
C882 C 0.53965 0.5823 0.67996 0.0
C883 C 0.53693 0.55139 0.67971 0.0
C884 C 0.50928 0.52454 0.69411 0.0
C885 C 0.48403 0.52846 0.70633 0.0
C886 C 0.56905 0.61181 0.66598 0.0
C887 C 0.50526 0.49101 0.69474 0.0
C888 C 0.56162 0.51272 0.61391 0.0
C889 C 0.57934 0.50309 0.63429 0.0
C890 C 0.55192 0.53388 0.6266 0.0
C891 C 0.55998 0.54513 0.66051 0.0
C892 C 0.58293 0.54034 0.67849 0.0
C893 C 0.59233 0.51899 0.66516 0.0
C894 C 0.5286 0.53956 0.6059 0.0
C895 C 0.59369 0.55376 0.71383 0.0
H896 H 0.51509 0.60881 0.69071 0.0
H897 H 0.4626 0.50754 0.71635 0.0
H898 H 0.59102 0.60952 0.66724 0.0
H899 H 0.56469 0.61527 0.63895 0.0
H900 H 0.57364 0.63386 0.68012 0.0
H901 H 0.48266 0.47304 0.70777 0.0
H902 H 0.50473 0.4825 0.66832 0.0
H903 H 0.52595 0.49147 0.70804 0.0
H904 H 0.55225 0.50085 0.58963 0.0
H905 H 0.60648 0.51188 0.68073 0.0
H906 H 0.53425 0.565 0.60832 0.0
H907 H 0.50367 0.52371 0.61559 0.0
H908 H 0.52918 0.53405 0.5785 0.0
H909 H 0.59571 0.57787 0.71634 0.0
H910 H 0.61732 0.55587 0.7202 0.0
H911 H 0.57557 0.53725 0.73265 0.0
C912 C 0.06046 0.59556 0.82591 0.0
C913 C 0.06358 0.58219 0.79538 0.0
C914 C 0.02972 0.58488 0.84002 0.0
C915 C 0.00215 0.56036 0.82312 0.0
C916 C 0.00514 0.55143 0.78953 0.0
C917 C 0.03601 0.56241 0.77607 0.0
C918 C 0.0272 0.59631 0.87507 0.0
C919 C 0.97624 0.52628 0.77003 0.0
C920 C 0.94524 0.48583 0.87293 0.0
C921 C 0.91629 0.48652 0.87164 0.0
C922 C 0.97371 0.51076 0.85887 0.0
C923 C 0.97345 0.53744 0.8433 0.0
C924 C 0.94493 0.5395 0.84391 0.0
C925 C 0.91652 0.51383 0.85789 0.0
C926 C 0.00363 0.50751 0.85909 0.0
C927 C 0.9437 0.56779 0.82841 0.0
H928 H 0.08184 0.61126 0.84067 0.0
H929 H 0.03857 0.55271 0.75203 0.0
H930 H 0.00463 0.59739 0.87774 0.0
H931 H 0.02663 0.57903 0.89437 0.0
H932 H 0.04827 0.62055 0.88064 0.0
H933 H 0.98177 0.52628 0.74252 0.0
H934 H 0.96874 0.50194 0.78061 0.0
H935 H 0.95552 0.53048 0.7726 0.0
H936 H 0.94554 0.46515 0.88396 0.0
H937 H 0.89435 0.51482 0.8571 0.0
H938 H 0.02415 0.52916 0.87085 0.0
H939 H 0.01066 0.50573 0.83256 0.0
H940 H -3e-05 0.4858 0.87333 0.0
H941 H 0.96756 0.59035 0.82932 0.0
H942 H 0.92559 0.57202 0.84166 0.0
H943 H 0.93627 0.56238 0.80134 0.0
C944 C 0.46389 0.03259 0.94591 0.0
C945 C 0.46926 0.06117 0.96162 0.0
C946 C 0.44356 0.00254 0.9609 0.0
C947 C 0.42845 0.00133 0.99234 0.0
C948 C 0.42955 0.02956 1.00514 0.0
C949 C 0.45024 0.05948 0.98962 0.0
C950 C 0.44222 0.97284 0.9457 0.0
C951 C 0.41222 0.02882 0.03753 0.0
C952 C 0.38705 0.91631 0.02799 0.0
C953 C 0.41305 0.91677 0.04518 0.0
C954 C 0.39036 0.94464 0.01322 0.0
C955 C 0.42043 0.97371 0.01539 0.0
C956 C 0.44563 0.97483 0.03544 0.0
C957 C 0.4415 0.9464 0.05023 0.0
C958 C 0.36245 0.94266 0.99328 0.0
C959 C 0.47814 0.0054 0.03879 0.0
H960 H 0.47796 0.03392 0.92363 0.0
H961 H 0.45393 0.08159 1.00147 0.0
H962 H 0.45739 0.96604 0.96112 0.0
H963 H 0.41714 0.9521 0.94606 0.0
H964 H 0.45124 0.97702 0.91903 0.0
H965 H 0.40779 0.04953 0.03872 0.0
H966 H 0.38881 0.00587 0.03979 0.0
H967 H 0.42734 0.03049 0.05975 0.0
H968 H 0.36473 0.89361 0.02444 0.0
H969 H 0.46143 0.94717 0.06424 0.0
H970 H 0.36348 0.93528 0.96672 0.0
H971 H 0.36318 0.96625 0.9925 0.0
H972 H 0.33899 0.92414 1.00439 0.0
H973 H 0.49042 0.01204 0.01363 0.0
H974 H 0.49427 0.00261 0.05716 0.0
H975 H 0.47505 0.02581 0.04734 0.0
C976 C 0.43639 0.47754 0.13397 0.0
C977 C 0.40873 0.48014 0.13882 0.0
C978 C 0.43978 0.4534 0.15023 0.0
C979 C 0.41456 0.43081 0.17153 0.0
C980 C 0.38513 0.43108 0.17361 0.0
C981 C 0.38262 0.45601 0.15739 0.0
C982 C 0.4717 0.45412 0.14699 0.0
C983 C 0.35709 0.40666 0.19472 0.0
C984 C 0.44375 0.37511 0.19904 0.0
C985 C 0.46395 0.3937 0.22578 0.0
C986 C 0.42248 0.38368 0.18385 0.0
C987 C 0.42212 0.41152 0.19557 0.0
C988 C 0.43815 0.42651 0.22626 0.0
C989 C 0.45895 0.41734 0.24105 0.0
C990 C 0.40391 0.36577 0.15255 0.0
C991 C 0.43747 0.45554 0.24047 0.0
H992 H 0.45636 0.49555 0.11893 0.0
H993 H 0.36086 0.45745 0.16081 0.0
H994 H 0.48434 0.46052 0.17192 0.0
H995 H 0.4677 0.42998 0.13962 0.0
H996 H 0.48793 0.47203 0.12778 0.0
H997 H 0.33376 0.40121 0.18295 0.0
H998 H 0.35745 0.38374 0.19784 0.0
H999 H 0.35814 0.41692 0.22036 0.0
H1000 H 0.44703 0.35628 0.18759 0.0
H1001 H 0.47385 0.43102 0.26248 0.0
H1002 H 0.41832 0.37807 0.12949 0.0
H1003 H 0.38061 0.36555 0.15082 0.0
H1004 H 0.39908 0.34046 0.15253 0.0
H1005 H 0.45235 0.47693 0.22408 0.0
H1006 H 0.44721 0.46131 0.26682 0.0
H1007 H 0.41246 0.45133 0.24063 0.0
C1008 C 0.22144 0.51429 0.32405 0.0
C1009 C 0.2115 0.53712 0.31902 0.0
C1010 C 0.23944 0.50897 0.29888 0.0
C1011 C 0.24848 0.52752 0.26838 0.0
C1012 C 0.23794 0.55013 0.26306 0.0
C1013 C 0.21936 0.55433 0.28814 0.0
C1014 C 0.24945 0.48406 0.30525 0.0
C1015 C 0.24753 0.57107 0.23148 0.0
C1016 C 0.32658 0.54775 0.22247 0.0
C1017 C 0.31541 0.52977 0.19221 0.0
C1018 C 0.30513 0.54633 0.24781 0.0
C1019 C 0.27141 0.52586 0.24341 0.0
C1020 C 0.25995 0.50639 0.21368 0.0
C1021 C 0.28204 0.50885 0.18824 0.0
C1022 C 0.3186 0.56808 0.27856 0.0
C1023 C 0.22429 0.48367 0.20831 0.0
H1024 H 0.21533 0.50074 0.3477 0.0
H1025 H 0.21197 0.57213 0.28395 0.0
H1026 H 0.24372 0.46802 0.28276 0.0
H1027 H 0.27597 0.49632 0.30917 0.0
H1028 H 0.23732 0.46895 0.32802 0.0
H1029 H 0.2364 0.58666 0.23057 0.0
H1030 H 0.27421 0.58684 0.23067 0.0
H1031 H 0.24029 0.55579 0.20829 0.0
H1032 H 0.35227 0.56406 0.22591 0.0
H1033 H 0.27315 0.49474 0.16509 0.0
H1034 H 0.30973 0.55369 0.30234 0.0
H1035 H 0.3101 0.58587 0.27865 0.0
H1036 H 0.34546 0.58153 0.27896 0.0
H1037 H 0.21328 0.46886 0.23152 0.0
H1038 H 0.21953 0.46724 0.18633 0.0
H1039 H 0.21204 0.49783 0.2036 0.0
C1040 C 0.76689 0.29122 0.36006 0.0
C1041 C 0.77566 0.32379 0.36443 0.0
C1042 C 0.74728 0.26749 0.38431 0.0
C1043 C 0.7355 0.27639 0.41315 0.0
C1044 C 0.74513 0.30939 0.41805 0.0
C1045 C 0.76525 0.33256 0.39397 0.0
C1046 C 0.73832 0.23276 0.37851 0.0
C1047 C 0.73279 0.32013 0.44788 0.0
C1048 C 0.65385 0.21759 0.45241 0.0
C1049 C 0.66243 0.21082 0.48433 0.0
C1050 C 0.67736 0.23782 0.42865 0.0
C1051 C 0.71058 0.25129 0.43643 0.0
C1052 C 0.71948 0.2432 0.46788 0.0
C1053 C 0.69534 0.2234 0.49164 0.0
C1054 C 0.66653 0.24615 0.39591 0.0
C1055 C 0.75455 0.25632 0.47689 0.0
H1056 H 0.77489 0.28417 0.33747 0.0
H1057 H 0.77176 0.35759 0.39772 0.0
H1058 H 0.74179 0.22218 0.40223 0.0
H1059 H 0.7124 0.2183 0.37157 0.0
H1060 H 0.75286 0.2304 0.3578 0.0
H1061 H 0.74368 0.34684 0.44893 0.0
H1062 H 0.70615 0.30902 0.44603 0.0
H1063 H 0.73806 0.31182 0.47217 0.0
H1064 H 0.62855 0.20811 0.44638 0.0
H1065 H 0.70226 0.21821 0.51611 0.0
H1066 H 0.67757 0.24104 0.37366 0.0
H1067 H 0.67477 0.27241 0.39546 0.0
H1068 H 0.63983 0.23246 0.39289 0.0
H1069 H 0.76765 0.25315 0.45522 0.0
H1070 H 0.75743 0.24428 0.49977 0.0
H1071 H 0.76617 0.28264 0.48204 0.0
C1072 C 0.43156 0.65639 0.62181 0.0
C1073 C 0.45054 0.664 0.65138 0.0
C1074 C 0.43657 0.68009 0.59755 0.0
C1075 C 0.46187 0.71236 0.60222 0.0
C1076 C 0.48221 0.72 0.6312 0.0
C1077 C 0.47599 0.69584 0.65575 0.0
C1078 C 0.41364 0.67078 0.56771 0.0
C1079 C 0.51004 0.75384 0.63666 0.0
C1080 C 0.47801 0.76435 0.5223 0.0
C1081 C 0.45965 0.77923 0.5291 0.0
C1082 C 0.48097 0.74427 0.54682 0.0
C1083 C 0.46448 0.73823 0.57848 0.0
C1084 C 0.44697 0.75422 0.58581 0.0
C1085 C 0.44514 0.77471 0.56132 0.0
C1086 C 0.5007 0.72852 0.53833 0.0
C1087 C 0.42832 0.74809 0.61871 0.0
H1088 H 0.41171 0.63192 0.61816 0.0
H1089 H 0.49092 0.70191 0.67836 0.0
H1090 H 0.4003 0.68425 0.56899 0.0
H1091 H 0.4273 0.67747 0.54339 0.0
H1092 H 0.39576 0.64446 0.5672 0.0
H1093 H 0.52624 0.75488 0.65753 0.0
H1094 H 0.52443 0.76321 0.61291 0.0
H1095 H 0.50063 0.7702 0.64321 0.0
H1096 H 0.48948 0.76781 0.49762 0.0
H1097 H 0.43087 0.78602 0.567 0.0
H1098 H 0.48431 0.70243 0.53313 0.0
H1099 H 0.51622 0.73034 0.56022 0.0
H1100 H 0.51623 0.73966 0.51557 0.0
H1101 H 0.40861 0.72245 0.61968 0.0
H1102 H 0.41746 0.76381 0.62141 0.0
H1103 H 0.44428 0.7522 0.64088 0.0
C1104 C 0.76294 0.42611 0.79428 0.0
C1105 C 0.77355 0.44606 0.82324 0.0
C1106 C 0.74346 0.42916 0.76948 0.0
C1107 C 0.73473 0.45331 0.77302 0.0
C1108 C 0.74646 0.47451 0.80145 0.0
C1109 C 0.76539 0.47037 0.82648 0.0
C1110 C 0.73103 0.40546 0.74019 0.0
C1111 C 0.73842 0.50108 0.80581 0.0
C1112 C 0.6986 0.46691 0.69188 0.0
C1113 C 0.66533 0.4477 0.69825 0.0
C1114 C 0.72159 0.47066 0.71677 0.0
C1115 C 0.71112 0.45415 0.74842 0.0
C1116 C 0.67755 0.43545 0.75518 0.0
C1117 C 0.65522 0.43278 0.73029 0.0
C1118 C 0.7571 0.49148 0.70879 0.0
C1119 C 0.66507 0.41677 0.78809 0.0
H1120 H 0.76892 0.40712 0.79147 0.0
H1121 H 0.77357 0.486 0.84862 0.0
H1122 H 0.70425 0.3909 0.74135 0.0
H1123 H 0.73754 0.4186 0.71554 0.0
H1124 H 0.74081 0.38869 0.74053 0.0
H1125 H 0.75239 0.51783 0.82685 0.0
H1126 H 0.74343 0.5152 0.78186 0.0
H1127 H 0.71228 0.49036 0.81141 0.0
H1128 H 0.70668 0.4787 0.66734 0.0
H1129 H 0.6296 0.4178 0.73556 0.0
H1130 H 0.76803 0.47594 0.70524 0.0
H1131 H 0.76986 0.50805 0.73034 0.0
H1132 H 0.76133 0.50607 0.68529 0.0
H1133 H 0.67224 0.398 0.78972 0.0
H1134 H 0.63833 0.4047 0.79021 0.0
H1135 H 0.67593 0.4331 0.81024 0.0
C1136 C 0.28158 0.76833 0.99256 0.0
C1137 C 0.31412 0.77693 0.98864 0.0
C1138 C 0.25855 0.75054 0.96709 0.0
C1139 C 0.26809 0.7403 0.93751 0.0
C1140 C 0.30104 0.74957 0.93326 0.0
C1141 C 0.32356 0.76801 0.95854 0.0
C1142 C 0.22388 0.742 0.97222 0.0
C1143 C 0.31237 0.73864 0.90273 0.0
C1144 C 0.20949 0.66183 0.89281 0.0
C1145 C 0.20434 0.67273 0.86144 0.0
C1146 C 0.22914 0.68354 0.91813 0.0
C1147 C 0.24359 0.71728 0.91256 0.0
C1148 C 0.23711 0.72853 0.8817 0.0
C1149 C 0.21792 0.70615 0.85629 0.0
C1150 C 0.23586 0.67026 0.95012 0.0
C1151 C 0.25126 0.76424 0.87508 0.0
H1152 H 0.27408 0.77528 0.01559 0.0
H1153 H 0.34858 0.77437 0.95521 0.0
H1154 H 0.21446 0.74749 0.94883 0.0
H1155 H 0.20868 0.71567 0.97716 0.0
H1156 H 0.22113 0.7553 0.99398 0.0
H1157 H 0.33899 0.74883 0.90259 0.0
H1158 H 0.30051 0.71184 0.90268 0.0
H1159 H 0.30539 0.74591 0.87881 0.0
H1160 H 0.19923 0.63609 0.89716 0.0
H1161 H 0.21395 0.71484 0.83227 0.0
H1162 H 0.23024 0.68011 0.97303 0.0
H1163 H 0.26193 0.6779 0.95124 0.0
H1164 H 0.22159 0.64341 0.9513 0.0
H1165 H 0.2477 0.7762 0.89756 0.0
H1166 H 0.24029 0.76893 0.85241 0.0
H1167 H 0.27768 0.77561 0.87076 0.0
C1168 C 0.52409 0.31278 0.12526 0.0
C1169 C 0.50951 0.30135 0.15726 0.0
C1170 C 0.52128 0.29154 0.09904 0.0
C1171 C 0.50267 0.25771 0.10432 0.0
C1172 C 0.48628 0.24589 0.13587 0.0
C1173 C 0.49026 0.26783 0.16217 0.0
C1174 C 0.53992 0.30546 0.06637 0.0
C1175 C 0.46543 0.21006 0.14225 0.0
C1176 C 0.48836 0.20819 0.02274 0.0
C1177 C 0.51283 0.20019 0.02502 0.0
C1178 C 0.4833 0.22516 0.04933 0.0
C1179 C 0.50388 0.23529 0.0783 0.0
C1180 C 0.52822 0.22675 0.08079 0.0
C1181 C 0.53205 0.20903 0.0545 0.0
C1182 C 0.45643 0.23288 0.0461 0.0
C1183 C 0.55142 0.23771 0.1105 0.0
H1184 H 0.53907 0.33859 0.12102 0.0
H1185 H 0.47872 0.25873 0.18665 0.0
H1186 H 0.55869 0.29839 0.06368 0.0
H1187 H 0.52363 0.29559 0.04407 0.0
H1188 H 0.55198 0.33229 0.06556 0.0
H1189 H 0.45035 0.20488 0.16551 0.0
H1190 H 0.44938 0.19809 0.12012 0.0
H1191 H 0.48098 0.1991 0.14544 0.0
H1192 H 0.47324 0.20126 1.00022 0.0
H1193 H 0.55116 0.20316 0.05654 0.0
H1194 H 0.46681 0.25918 0.0416 0.0
H1195 H 0.44227 0.22681 0.07011 0.0
H1196 H 0.43981 0.21953 0.02475 0.0
H1197 H 0.56576 0.26455 0.11099 0.0
H1198 H 0.5684 0.22823 0.10917 0.0
H1199 H 0.53792 0.2297 0.13487 0.0
loop_
_geom_bond_atom_site_label_1
_geom_bond_atom_site_label_2
_geom_bond_distance
_geom_bond_site_symmetry_2
_ccdc_geom_bond_type
Mn0 O5 2.095 . S
Mn0 O15 2.162 . S
Mn0 O16 2.297 . S
Mn0 O24 2.385 . S
Mn0 O25 2.209 . S
Mn0 O26 2.094 . S
Mn1 O6 2.121 . S
Mn1 N8 2.257 . S
Mn1 N17 2.282 . S
Mn1 O25 2.215 . S
Mn1 O27 2.117 . S
C2 O24 1.234 . S
C2 O25 1.283 . S
C3 O15 1.281 . S
C3 O16 1.236 . S
C4 O26 1.240 . S
C4 O27 1.264 . S
O5 Mn0 2.095 . S
O5 C14 1.250 . S
O6 Mn1 2.121 . S
O6 C14 1.258 . S
C7 N8 1.326 . S
C7 C11 1.460 . S
C7 H13 0.929 . S
N8 Mn1 2.257 . S
N8 C7 1.326 . S
N8 C12 1.362 . S
C9 C10 1.258 . S
C9 C12 1.431 . S
C9 C29 1.449 . S
C10 C9 1.258 . S
C10 C11 1.477 . S
C10 H30 0.931 . S
C11 C7 1.460 . S
C11 C10 1.477 . S
C11 H31 0.930 . S
C12 N8 1.362 . S
C12 C9 1.431 . S
C12 C22 1.476 . S
H13 C7 0.929 . S
C14 O5 1.250 . S
C14 O6 1.258 . S
O15 Mn0 2.162 . S
O15 C3 1.281 . S
O16 Mn0 2.297 . S
O16 C3 1.236 . S
N17 Mn1 2.282 . S
N17 C18 1.328 . S
N17 C22 1.318 . S
C18 N17 1.328 . S
C18 C19 1.457 . S
C18 H23 0.929 . S
C19 C18 1.457 . S
C19 C20 1.291 . S
C19 H32 0.931 . S
C20 C19 1.291 . S
C20 C21 1.373 . S
C20 H33 0.929 . S
C21 C20 1.373 . S
C21 C22 1.396 . S
C21 C28 1.403 . S
C22 C12 1.476 . S
C22 N17 1.318 . S
C22 C21 1.396 . S
H23 C18 0.929 . S
O24 Mn0 2.385 . S
O24 C2 1.234 . S
O25 Mn0 2.209 . S
O25 Mn1 2.215 . S
O25 C2 1.283 . S
O26 Mn0 2.094 . S
O26 C4 1.240 . S
O27 Mn1 2.117 . S
O27 C4 1.264 . S
C28 C21 1.403 . S
C28 C29 1.399 . S
C28 H34 0.929 . S
C29 C9 1.449 . S
C29 C28 1.399 . S
C29 H35 0.930 . S
H30 C10 0.931 . S
H31 C11 0.930 . S
H32 C19 0.931 . S
H33 C20 0.929 . S
H34 C28 0.929 . S
H35 C29 0.930 . S
Mn36 O41 2.095 . S
Mn36 O51 2.162 . S
Mn36 O52 2.297 . S
Mn36 O60 2.385 . S
Mn36 O61 2.209 . S
Mn36 O62 2.094 . S
Mn37 O42 2.121 . S
Mn37 N44 2.257 . S
Mn37 N53 2.282 . S
Mn37 O61 2.215 . S
Mn37 O63 2.117 . S
C38 O60 1.234 . S
C38 O61 1.283 . S
C39 O51 1.281 . S
C39 O52 1.236 . S
C40 O62 1.240 . S
C40 O63 1.264 . S
O41 Mn36 2.095 . S
O41 C50 1.250 . S
O42 Mn37 2.121 . S
O42 C50 1.258 . S
C43 N44 1.326 . S
C43 C47 1.460 . S
C43 H49 0.929 . S
N44 Mn37 2.257 . S
N44 C43 1.326 . S
N44 C48 1.362 . S
C45 C46 1.258 . S
C45 C48 1.431 . S
C45 C65 1.449 . S
C46 C45 1.258 . S
C46 C47 1.477 . S
C46 H66 0.931 . S
C47 C43 1.460 . S
C47 C46 1.477 . S
C47 H67 0.930 . S
C48 N44 1.362 . S
C48 C45 1.431 . S
C48 C58 1.476 . S
H49 C43 0.929 . S
C50 O41 1.250 . S
C50 O42 1.258 . S
O51 Mn36 2.162 . S
O51 C39 1.281 . S
O52 Mn36 2.297 . S
O52 C39 1.236 . S
N53 Mn37 2.282 . S
N53 C54 1.328 . S
N53 C58 1.318 . S
C54 N53 1.328 . S
C54 C55 1.457 . S
C54 H59 0.929 . S
C55 C54 1.457 . S
C55 C56 1.291 . S
C55 H68 0.931 . S
C56 C55 1.291 . S
C56 C57 1.373 . S
C56 H69 0.929 . S
C57 C56 1.373 . S
C57 C58 1.396 . S
C57 C64 1.403 . S
C58 C48 1.476 . S
C58 N53 1.318 . S
C58 C57 1.396 . S
H59 C54 0.929 . S
O60 Mn36 2.385 . S
O60 C38 1.234 . S
O61 Mn36 2.209 . S
O61 Mn37 2.215 . S
O61 C38 1.283 . S
O62 Mn36 2.094 . S
O62 C40 1.240 . S
O63 Mn37 2.117 . S
O63 C40 1.264 . S
C64 C57 1.403 . S
C64 C65 1.399 . S
C64 H70 0.929 . S
C65 C45 1.449 . S
C65 C64 1.399 . S
C65 H71 0.930 . S
H66 C46 0.931 . S
H67 C47 0.930 . S
H68 C55 0.931 . S
H69 C56 0.929 . S
H70 C64 0.929 . S
H71 C65 0.930 . S
Mn72 O77 2.095 . S
Mn72 O87 2.162 . S
Mn72 O88 2.297 . S
Mn72 O96 2.385 . S
Mn72 O97 2.209 . S
Mn72 O98 2.094 . S
Mn73 O78 2.121 . S
Mn73 N80 2.257 . S
Mn73 N89 2.282 . S
Mn73 O97 2.215 . S
Mn73 O99 2.117 . S
C74 O96 1.234 . S
C74 O97 1.283 . S
C75 O87 1.281 . S
C75 O88 1.236 . S
C76 O98 1.240 . S
C76 O99 1.264 . S
O77 Mn72 2.095 . S
O77 C86 1.250 . S
O78 Mn73 2.121 . S
O78 C86 1.258 . S
C79 N80 1.326 . S
C79 C83 1.460 . S
C79 H85 0.929 . S
N80 Mn73 2.257 . S
N80 C79 1.326 . S
N80 C84 1.362 . S
C81 C82 1.258 . S
C81 C84 1.431 . S
C81 C101 1.449 . S
C82 C81 1.258 . S
C82 C83 1.477 . S
C82 H102 0.931 . S
C83 C79 1.460 . S
C83 C82 1.477 . S
C83 H103 0.930 . S
C84 N80 1.362 . S
C84 C81 1.431 . S
C84 C94 1.476 . S
H85 C79 0.929 . S
C86 O77 1.250 . S
C86 O78 1.258 . S
O87 Mn72 2.162 . S
O87 C75 1.281 . S
O88 Mn72 2.297 . S
O88 C75 1.236 . S
N89 Mn73 2.282 . S
N89 C90 1.328 . S
N89 C94 1.318 . S
C90 N89 1.328 . S
C90 C91 1.457 . S
C90 H95 0.929 . S
C91 C90 1.457 . S
C91 C92 1.291 . S
C91 H104 0.931 . S
C92 C91 1.291 . S
C92 C93 1.373 . S
C92 H105 0.929 . S
C93 C92 1.373 . S
C93 C94 1.396 . S
C93 C100 1.403 . S
C94 C84 1.476 . S
C94 N89 1.318 . S
C94 C93 1.396 . S
H95 C90 0.929 . S
O96 Mn72 2.385 . S
O96 C74 1.234 . S
O97 Mn72 2.209 . S
O97 Mn73 2.215 . S
O97 C74 1.283 . S
O98 Mn72 2.094 . S
O98 C76 1.240 . S
O99 Mn73 2.117 . S
O99 C76 1.264 . S
C100 C93 1.403 . S
C100 C101 1.399 . S
C100 H106 0.929 . S
C101 C81 1.449 . S
C101 C100 1.399 . S
C101 H107 0.930 . S
H102 C82 0.931 . S
H103 C83 0.930 . S
H104 C91 0.931 . S
H105 C92 0.929 . S
H106 C100 0.929 . S
H107 C101 0.930 . S
Mn108 O113 2.095 . S
Mn108 O123 2.162 . S
Mn108 O124 2.297 . S
Mn108 O132 2.385 . S
Mn108 O133 2.209 . S
Mn108 O134 2.094 . S
Mn109 O114 2.121 . S
Mn109 N116 2.257 . S
Mn109 N125 2.282 . S
Mn109 O133 2.215 . S
Mn109 O135 2.117 . S
C110 O132 1.234 . S
C110 O133 1.283 . S
C111 O123 1.281 . S
C111 O124 1.236 . S
C112 O134 1.240 . S
C112 O135 1.264 . S
O113 Mn108 2.095 . S
O113 C122 1.250 . S
O114 Mn109 2.121 . S
O114 C122 1.258 . S
C115 N116 1.326 . S
C115 C119 1.460 . S
C115 H121 0.929 . S
N116 Mn109 2.257 . S
N116 C115 1.326 . S
N116 C120 1.362 . S
C117 C118 1.258 . S
C117 C120 1.431 . S
C117 C137 1.449 . S
C118 C117 1.258 . S
C118 C119 1.477 . S
C118 H138 0.931 . S
C119 C115 1.460 . S
C119 C118 1.477 . S
C119 H139 0.930 . S
C120 N116 1.362 . S
C120 C117 1.431 . S
C120 C130 1.476 . S
H121 C115 0.929 . S
C122 O113 1.250 . S
C122 O114 1.258 . S
O123 Mn108 2.162 . S
O123 C111 1.281 . S
O124 Mn108 2.297 . S
O124 C111 1.236 . S
N125 Mn109 2.282 . S
N125 C126 1.328 . S
N125 C130 1.318 . S
C126 N125 1.328 . S
C126 C127 1.457 . S
C126 H131 0.929 . S
C127 C126 1.457 . S
C127 C128 1.291 . S
C127 H140 0.931 1_556 S
C128 C127 1.291 . S
C128 C129 1.373 . S
C128 H141 0.944 . S
C129 C128 1.373 . S
C129 C130 1.396 . S
C129 C136 1.403 . S
C130 C120 1.476 . S
C130 N125 1.318 . S
C130 C129 1.396 . S
H131 C126 0.929 . S
O132 Mn108 2.385 . S
O132 C110 1.234 . S
O133 Mn108 2.209 . S
O133 Mn109 2.215 . S
O133 C110 1.283 . S
O134 Mn108 2.094 . S
O134 C112 1.240 . S
O135 Mn109 2.117 . S
O135 C112 1.264 . S
C136 C129 1.403 . S
C136 C137 1.399 . S
C136 H142 0.929 . S
C137 C117 1.449 . S
C137 C136 1.399 . S
C137 H143 0.930 . S
H138 C118 0.931 . S
H139 C119 0.930 . S
H140 C127 0.931 1_554 S
H141 C128 0.944 . S
H142 C136 0.929 . S
H143 C137 0.930 . S
Mn144 O149 2.095 . S
Mn144 O159 2.162 . S
Mn144 O160 2.297 . S
Mn144 O168 2.385 . S
Mn144 O169 2.209 . S
Mn144 O170 2.094 . S
Mn145 O150 2.121 . S
Mn145 N152 2.257 . S
Mn145 N161 2.282 . S
Mn145 O169 2.215 . S
Mn145 O171 2.117 . S
C146 O168 1.234 . S
C146 O169 1.283 . S
C147 O159 1.281 . S
C147 O160 1.236 . S
C148 O170 1.240 . S
C148 O171 1.264 . S
O149 Mn144 2.095 . S
O149 C158 1.250 . S
O150 Mn145 2.121 . S
O150 C158 1.258 . S
C151 N152 1.326 . S
C151 C155 1.460 . S
C151 H157 0.929 . S
N152 Mn145 2.257 . S
N152 C151 1.326 . S
N152 C156 1.362 . S
C153 C154 1.258 . S
C153 C156 1.431 . S
C153 C173 1.449 . S
C154 C153 1.258 . S
C154 C155 1.477 . S
C154 H174 0.931 . S
C155 C151 1.460 . S
C155 C154 1.477 . S
C155 H175 0.930 . S
C156 N152 1.362 . S
C156 C153 1.431 . S
C156 C166 1.476 . S
H157 C151 0.929 . S
C158 O149 1.250 . S
C158 O150 1.258 . S
O159 Mn144 2.162 . S
O159 C147 1.281 . S
O160 Mn144 2.297 . S
O160 C147 1.236 . S
N161 Mn145 2.282 . S
N161 C162 1.328 . S
N161 C166 1.318 . S
C162 N161 1.328 . S
C162 C163 1.457 . S
C162 H167 0.929 . S
C163 C162 1.457 . S
C163 C164 1.291 . S
C163 H176 0.931 . S
C164 C163 1.291 . S
C164 C165 1.373 . S
C164 H177 0.929 . S
C165 C164 1.373 . S
C165 C166 1.396 . S
C165 C172 1.403 . S
C166 C156 1.476 . S
C166 N161 1.318 . S
C166 C165 1.396 . S
H167 C162 0.929 . S
O168 Mn144 2.385 . S
O168 C146 1.234 . S
O169 Mn144 2.209 . S
O169 Mn145 2.215 . S
O169 C146 1.283 . S
O170 Mn144 2.094 . S
O170 C148 1.240 . S
O171 Mn145 2.117 . S
O171 C148 1.264 . S
C172 C165 1.403 . S
C172 C173 1.399 . S
C172 H178 0.929 . S
C173 C153 1.449 . S
C173 C172 1.399 . S
C173 H179 0.930 . S
H174 C154 0.931 . S
H175 C155 0.930 . S
H176 C163 0.931 . S
H177 C164 0.929 . S
H178 C172 0.929 . S
H179 C173 0.930 . S
Mn180 O185 2.095 . S
Mn180 O195 2.162 . S
Mn180 O196 2.297 . S
Mn180 O204 2.385 . S
Mn180 O205 2.209 . S
Mn180 O206 2.094 . S
Mn181 O186 2.121 . S
Mn181 N188 2.257 . S
Mn181 N197 2.282 . S
Mn181 O205 2.215 . S
Mn181 O207 2.117 . S
C182 O204 1.234 . S
C182 O205 1.283 . S
C183 O195 1.281 . S
C183 O196 1.236 . S
C184 O206 1.240 . S
C184 O207 1.264 . S
O185 Mn180 2.095 . S
O185 C194 1.250 . S
O186 Mn181 2.121 . S
O186 C194 1.258 . S
C187 N188 1.326 . S
C187 C191 1.460 . S
C187 H193 0.929 . S
N188 Mn181 2.257 . S
N188 C187 1.326 . S
N188 C192 1.362 . S
C189 C190 1.258 . S
C189 C192 1.431 . S
C189 C209 1.449 . S
C190 C189 1.258 . S
C190 C191 1.477 . S
C190 H210 0.931 . S
C191 C187 1.460 . S
C191 C190 1.477 . S
C191 H211 0.930 . S
C192 N188 1.362 . S
C192 C189 1.431 . S
C192 C202 1.476 . S
H193 C187 0.929 . S
C194 O185 1.250 . S
C194 O186 1.258 . S
O195 Mn180 2.162 . S
O195 C183 1.281 . S
O196 Mn180 2.297 . S
O196 C183 1.236 . S
N197 Mn181 2.282 . S
N197 C198 1.328 . S
N197 C202 1.318 . S
C198 N197 1.328 . S
C198 C199 1.457 . S
C198 H203 0.929 . S
C199 C198 1.457 . S
C199 C200 1.291 . S
C199 H212 0.931 . S
C200 C199 1.291 . S
C200 C201 1.373 . S
C200 H213 0.929 . S
C201 C200 1.373 . S
C201 C202 1.396 . S
C201 C208 1.403 . S
C202 C192 1.476 . S
C202 N197 1.318 . S
C202 C201 1.396 . S
H203 C198 0.929 . S
O204 Mn180 2.385 . S
O204 C182 1.234 . S
O205 Mn180 2.209 . S
O205 Mn181 2.215 . S
O205 C182 1.283 . S
O206 Mn180 2.094 . S
O206 C184 1.240 . S
O207 Mn181 2.117 . S
O207 C184 1.264 . S
C208 C201 1.403 . S
C208 C209 1.399 . S
C208 H214 0.929 . S
C209 C189 1.449 . S
C209 C208 1.399 . S
C209 H215 0.930 . S
H210 C190 0.931 . S
H211 C191 0.930 . S
H212 C199 0.931 . S
H213 C200 0.929 . S
H214 C208 0.929 . S
H215 C209 0.930 . S
Mn216 O221 2.095 . S
Mn216 O231 2.162 . S
Mn216 O232 2.297 . S
Mn216 O240 2.385 . S
Mn216 O241 2.209 . S
Mn216 O242 2.094 . S
Mn217 O222 2.121 . S
Mn217 N224 2.257 . S
Mn217 N233 2.282 . S
Mn217 O241 2.215 . S
Mn217 O243 2.117 . S
C218 O240 1.234 . S
C218 O241 1.283 . S
C219 O231 1.281 . S
C219 O232 1.236 . S
C220 O242 1.240 . S
C220 O243 1.264 . S
O221 Mn216 2.095 . S
O221 C230 1.250 . S
O222 Mn217 2.121 . S
O222 C230 1.258 . S
C223 N224 1.326 . S
C223 C227 1.460 . S
C223 H229 0.929 . S
N224 Mn217 2.257 . S
N224 C223 1.326 . S
N224 C228 1.362 . S
C225 C226 1.258 . S
C225 C228 1.431 . S
C225 C245 1.449 . S
C226 C225 1.258 . S
C226 C227 1.477 . S
C226 H246 0.931 . S
C227 C223 1.460 . S
C227 C226 1.477 . S
C227 H247 0.930 . S
C228 N224 1.362 . S
C228 C225 1.431 . S
C228 C238 1.476 . S
H229 C223 0.929 . S
C230 O221 1.250 . S
C230 O222 1.258 . S
O231 Mn216 2.162 . S
O231 C219 1.281 . S
O232 Mn216 2.297 . S
O232 C219 1.236 . S
N233 Mn217 2.282 . S
N233 C234 1.328 . S
N233 C238 1.318 . S
C234 N233 1.328 . S
C234 C235 1.457 . S
C234 H239 0.929 . S
C235 C234 1.457 . S
C235 C236 1.291 . S
C235 H248 0.931 . S
C236 C235 1.291 . S
C236 C237 1.373 . S
C236 H249 0.929 . S
C237 C236 1.373 . S
C237 C238 1.396 . S
C237 C244 1.403 . S
C238 C228 1.476 . S
C238 N233 1.318 . S
C238 C237 1.396 . S
H239 C234 0.929 . S
O240 Mn216 2.385 . S
O240 C218 1.234 . S
O241 Mn216 2.209 . S
O241 Mn217 2.215 . S
O241 C218 1.283 . S
O242 Mn216 2.094 . S
O242 C220 1.240 . S
O243 Mn217 2.117 . S
O243 C220 1.264 . S
C244 C237 1.403 . S
C244 C245 1.399 . S
C244 H250 0.929 . S
C245 C225 1.449 . S
C245 C244 1.399 . S
C245 H251 0.930 . S
H246 C226 0.931 . S
H247 C227 0.930 . S
H248 C235 0.931 . S
H249 C236 0.929 . S
H250 C244 0.929 . S
H251 C245 0.930 . S
Mn252 O257 2.095 . S
Mn252 O267 2.162 . S
Mn252 O268 2.297 . S
Mn252 O276 2.385 . S
Mn252 O277 2.209 . S
Mn252 O278 2.094 . S
Mn253 O258 2.121 . S
Mn253 N260 2.257 . S
Mn253 N269 2.282 . S
Mn253 O277 2.215 . S
Mn253 O279 2.117 . S
C254 O276 1.234 . S
C254 O277 1.283 . S
C255 O267 1.281 . S
C255 O268 1.236 . S
C256 O278 1.240 . S
C256 O279 1.264 . S
O257 Mn252 2.095 . S
O257 C266 1.250 . S
O258 Mn253 2.121 . S
O258 C266 1.258 . S
C259 N260 1.326 . S
C259 C263 1.460 . S
C259 H265 0.929 . S
N260 Mn253 2.257 . S
N260 C259 1.326 . S
N260 C264 1.362 . S
C261 C262 1.258 . S
C261 C264 1.431 . S
C261 C281 1.449 . S
C262 C261 1.258 . S
C262 C263 1.477 . S
C262 H282 0.931 . S
C263 C259 1.460 . S
C263 C262 1.477 . S
C263 H283 0.930 . S
C264 N260 1.362 . S
C264 C261 1.431 . S
C264 C274 1.476 . S
H265 C259 0.929 . S
C266 O257 1.250 . S
C266 O258 1.258 . S
O267 Mn252 2.162 . S
O267 C255 1.281 . S
O268 Mn252 2.297 . S
O268 C255 1.236 . S
N269 Mn253 2.282 . S
N269 C270 1.328 . S
N269 C274 1.318 . S
C270 N269 1.328 . S
C270 C271 1.457 . S
C270 H275 0.929 . S
C271 C270 1.457 . S
C271 C272 1.291 . S
C271 H284 0.931 . S
C272 C271 1.291 . S
C272 C273 1.373 . S
C272 H285 0.929 . S
C273 C272 1.373 . S
C273 C274 1.396 . S
C273 C280 1.403 . S
C274 C264 1.476 . S
C274 N269 1.318 . S
C274 C273 1.396 . S
H275 C270 0.929 . S
O276 Mn252 2.385 . S
O276 C254 1.234 . S
O277 Mn252 2.209 . S
O277 Mn253 2.215 . S
O277 C254 1.283 . S
O278 Mn252 2.094 . S
O278 C256 1.240 . S
O279 Mn253 2.117 . S
O279 C256 1.264 . S
C280 C273 1.403 . S
C280 C281 1.399 . S
C280 H286 0.929 . S
C281 C261 1.449 . S
C281 C280 1.399 . S
C281 H287 0.930 . S
H282 C262 0.931 . S
H283 C263 0.930 . S
H284 C271 0.931 . S
H285 C272 0.929 . S
H286 C280 0.929 . S
H287 C281 0.930 . S
Mn288 O293 2.095 . S
Mn288 O303 2.162 . S
Mn288 O304 2.297 . S
Mn288 O312 2.385 . S
Mn288 O313 2.209 . S
Mn288 O314 2.094 . S
Mn289 O294 2.121 . S
Mn289 N296 2.257 . S
Mn289 N305 2.282 . S
Mn289 O313 2.215 . S
Mn289 O315 2.117 . S
C290 O312 1.234 . S
C290 O313 1.283 . S
C291 O303 1.281 . S
C291 O304 1.236 . S
C292 O314 1.240 . S
C292 O315 1.264 . S
O293 Mn288 2.095 . S
O293 C302 1.250 . S
O294 Mn289 2.121 . S
O294 C302 1.258 . S
C295 N296 1.326 . S
C295 C299 1.460 . S
C295 H301 0.929 . S
N296 Mn289 2.257 . S
N296 C295 1.326 . S
N296 C300 1.362 . S
C297 C298 1.258 . S
C297 C300 1.431 . S
C297 C317 1.449 . S
C298 C297 1.258 . S
C298 C299 1.477 . S
C298 H318 0.931 . S
C299 C295 1.460 . S
C299 C298 1.477 . S
C299 H319 0.930 . S
C300 N296 1.362 . S
C300 C297 1.431 . S
C300 C310 1.476 . S
H301 C295 0.929 . S
C302 O293 1.250 . S
C302 O294 1.258 . S
O303 Mn288 2.162 . S
O303 C291 1.281 . S
O304 Mn288 2.297 . S
O304 C291 1.236 . S
N305 Mn289 2.282 . S
N305 C306 1.328 . S
N305 C310 1.318 . S
C306 N305 1.328 . S
C306 C307 1.457 . S
C306 H311 0.929 . S
C307 C306 1.457 . S
C307 C308 1.291 . S
C307 H320 0.931 . S
C308 C307 1.291 . S
C308 C309 1.373 . S
C308 H321 0.929 . S
C309 C308 1.373 . S
C309 C310 1.396 . S
C309 C316 1.403 . S
C310 C300 1.476 . S
C310 N305 1.318 . S
C310 C309 1.396 . S
H311 C306 0.929 . S
O312 Mn288 2.385 . S
O312 C290 1.234 . S
O313 Mn288 2.209 . S
O313 Mn289 2.215 . S
O313 C290 1.283 . S
O314 Mn288 2.094 . S
O314 C292 1.240 . S
O315 Mn289 2.117 . S
O315 C292 1.264 . S
C316 C309 1.403 . S
C316 C317 1.399 . S
C316 H322 0.929 . S
C317 C297 1.449 . S
C317 C316 1.399 . S
C317 H323 0.930 . S
H318 C298 0.931 . S
H319 C299 0.930 . S
H320 C307 0.931 . S
H321 C308 0.929 . S
H322 C316 0.929 . S
H323 C317 0.930 . S
Mn324 O329 2.095 . S
Mn324 O339 2.162 . S
Mn324 O340 2.297 . S
Mn324 O348 2.385 . S
Mn324 O349 2.209 . S
Mn324 O350 2.094 . S
Mn325 O330 2.121 . S
Mn325 N332 2.257 . S
Mn325 N341 2.282 . S
Mn325 O349 2.215 . S
Mn325 O351 2.117 . S
C326 O348 1.234 . S
C326 O349 1.283 . S
C327 O339 1.281 . S
C327 O340 1.236 . S
C328 O350 1.240 . S
C328 O351 1.264 . S
O329 Mn324 2.095 . S
O329 C338 1.250 . S
O330 Mn325 2.121 . S
O330 C338 1.258 . S
C331 N332 1.326 . S
C331 C335 1.460 . S
C331 H337 0.929 . S
N332 Mn325 2.257 . S
N332 C331 1.326 . S
N332 C336 1.362 . S
C333 C334 1.258 . S
C333 C336 1.431 . S
C333 C353 1.449 . S
C334 C333 1.258 . S
C334 C335 1.477 . S
C334 H354 0.931 . S
C335 C331 1.460 . S
C335 C334 1.477 . S
C335 H355 0.930 . S
C336 N332 1.362 . S
C336 C333 1.431 . S
C336 C346 1.476 . S
H337 C331 0.929 . S
C338 O329 1.250 . S
C338 O330 1.258 . S
O339 Mn324 2.162 . S
O339 C327 1.281 . S
O340 Mn324 2.297 . S
O340 C327 1.236 . S
N341 Mn325 2.282 . S
N341 C342 1.328 . S
N341 C346 1.318 . S
C342 N341 1.328 . S
C342 C343 1.457 . S
C342 H347 0.929 . S
C343 C342 1.457 . S
C343 C344 1.291 . S
C343 H356 0.931 . S
C344 C343 1.291 . S
C344 C345 1.373 . S
C344 H357 0.929 . S
C345 C344 1.373 . S
C345 C346 1.396 . S
C345 C352 1.403 . S
C346 C336 1.476 . S
C346 N341 1.318 . S
C346 C345 1.396 . S
H347 C342 0.929 . S
O348 Mn324 2.385 . S
O348 C326 1.234 . S
O349 Mn324 2.209 . S
O349 Mn325 2.215 . S
O349 C326 1.283 . S
O350 Mn324 2.094 . S
O350 C328 1.240 . S
O351 Mn325 2.117 . S
O351 C328 1.264 . S
C352 C345 1.403 . S
C352 C353 1.399 . S
C352 H358 0.929 . S
C353 C333 1.449 . S
C353 C352 1.399 . S
C353 H359 0.930 . S
H354 C334 0.931 . S
H355 C335 0.930 . S
H356 C343 0.931 . S
H357 C344 0.929 . S
H358 C352 0.929 . S
H359 C353 0.930 . S
Mn360 O365 2.095 . S
Mn360 O375 2.162 . S
Mn360 O376 2.297 . S
Mn360 O384 2.385 . S
Mn360 O385 2.209 . S
Mn360 O386 2.094 . S
Mn361 O366 2.121 . S
Mn361 N368 2.257 . S
Mn361 N377 2.282 . S
Mn361 O385 2.215 . S
Mn361 O387 2.117 . S
C362 O384 1.234 . S
C362 O385 1.283 . S
C363 O375 1.281 . S
C363 O376 1.236 . S
C364 O386 1.240 . S
C364 O387 1.264 . S
O365 Mn360 2.095 . S
O365 C374 1.250 . S
O366 Mn361 2.121 . S
O366 C374 1.258 . S
C367 N368 1.326 . S
C367 C371 1.460 . S
C367 H373 0.929 . S
N368 Mn361 2.257 . S
N368 C367 1.326 . S
N368 C372 1.362 . S
C369 C370 1.258 . S
C369 C372 1.431 . S
C369 C389 1.449 . S
C370 C369 1.258 . S
C370 C371 1.477 . S
C370 H390 0.931 . S
C371 C367 1.460 . S
C371 C370 1.477 . S
C371 H391 0.930 . S
C372 N368 1.362 . S
C372 C369 1.431 . S
C372 C382 1.476 . S
H373 C367 0.929 . S
C374 O365 1.250 . S
C374 O366 1.258 . S
O375 Mn360 2.162 . S
O375 C363 1.281 . S
O376 Mn360 2.297 . S
O376 C363 1.236 . S
N377 Mn361 2.282 . S
N377 C378 1.328 . S
N377 C382 1.318 . S
C378 N377 1.328 . S
C378 C379 1.457 . S
C378 H383 0.929 . S
C379 C378 1.457 . S
C379 C380 1.291 . S
C379 H392 0.931 1_554 S
C380 C379 1.291 . S
C380 C381 1.373 . S
C380 H393 0.944 . S
C381 C380 1.373 . S
C381 C382 1.396 . S
C381 C388 1.403 . S
C382 C372 1.476 . S
C382 N377 1.318 . S
C382 C381 1.396 . S
H383 C378 0.929 . S
O384 Mn360 2.385 . S
O384 C362 1.234 . S
O385 Mn360 2.209 . S
O385 Mn361 2.215 . S
O385 C362 1.283 . S
O386 Mn360 2.094 . S
O386 C364 1.240 . S
O387 Mn361 2.117 . S
O387 C364 1.264 . S
C388 C381 1.403 . S
C388 C389 1.399 . S
C388 H394 0.929 . S
C389 C369 1.449 . S
C389 C388 1.399 . S
C389 H395 0.930 . S
H390 C370 0.931 . S
H391 C371 0.930 . S
H392 C379 0.931 1_556 S
H393 C380 0.944 . S
H394 C388 0.929 . S
H395 C389 0.930 . S
Mn396 O401 2.095 . S
Mn396 O411 2.162 . S
Mn396 O412 2.297 . S
Mn396 O420 2.385 . S
Mn396 O421 2.209 . S
Mn396 O422 2.094 . S
Mn397 O402 2.121 . S
Mn397 N404 2.257 . S
Mn397 N413 2.282 . S
Mn397 O421 2.215 . S
Mn397 O423 2.117 . S
C398 O420 1.234 . S
C398 O421 1.283 . S
C399 O411 1.281 . S
C399 O412 1.236 . S
C400 O422 1.240 . S
C400 O423 1.264 . S
O401 Mn396 2.095 . S
O401 C410 1.250 . S
O402 Mn397 2.121 . S
O402 C410 1.258 . S
C403 N404 1.326 . S
C403 C407 1.460 . S
C403 H409 0.929 . S
N404 Mn397 2.257 . S
N404 C403 1.326 . S
N404 C408 1.362 . S
C405 C406 1.258 . S
C405 C408 1.431 . S
C405 C425 1.449 . S
C406 C405 1.258 . S
C406 C407 1.477 . S
C406 H426 0.931 . S
C407 C403 1.460 . S
C407 C406 1.477 . S
C407 H427 0.930 . S
C408 N404 1.362 . S
C408 C405 1.431 . S
C408 C418 1.476 . S
H409 C403 0.929 . S
C410 O401 1.250 . S
C410 O402 1.258 . S
O411 Mn396 2.162 . S
O411 C399 1.281 . S
O412 Mn396 2.297 . S
O412 C399 1.236 . S
N413 Mn397 2.282 . S
N413 C414 1.328 . S
N413 C418 1.318 . S
C414 N413 1.328 . S
C414 C415 1.457 . S
C414 H419 0.929 . S
C415 C414 1.457 . S
C415 C416 1.291 . S
C415 H428 0.931 . S
C416 C415 1.291 . S
C416 C417 1.373 . S
C416 H429 0.929 . S
C417 C416 1.373 . S
C417 C418 1.396 . S
C417 C424 1.403 . S
C418 C408 1.476 . S
C418 N413 1.318 . S
C418 C417 1.396 . S
H419 C414 0.929 . S
O420 Mn396 2.385 . S
O420 C398 1.234 . S
O421 Mn396 2.209 . S
O421 Mn397 2.215 . S
O421 C398 1.283 . S
O422 Mn396 2.094 . S
O422 C400 1.240 . S
O423 Mn397 2.117 . S
O423 C400 1.264 . S
C424 C417 1.403 . S
C424 C425 1.399 . S
C424 H430 0.929 . S
C425 C405 1.449 . S
C425 C424 1.399 . S
C425 H431 0.930 . S
H426 C406 0.931 . S
H427 C407 0.930 . S
H428 C415 0.931 . S
H429 C416 0.929 . S
H430 C424 0.929 . S
H431 C425 0.930 . S
C432 C433 1.391 . S
C432 C434 1.394 . S
C432 H448 0.931 . S
C433 C432 1.391 . S
C433 C437 1.376 . S
C434 C432 1.394 . S
C434 C435 1.369 . S
C434 C438 1.531 . S
C435 C434 1.369 . S
C435 C436 1.410 . S
C435 C443 1.503 . S
C436 C435 1.410 . S
C436 C437 1.392 . S
C436 C439 1.511 . S
C437 C433 1.376 . S
C437 C436 1.392 . S
C437 H449 0.929 . S
C438 C434 1.531 . S
C438 H450 0.960 . S
C438 H451 0.962 . S
C438 H452 0.960 . S
C439 C436 1.511 . S
C439 H453 0.961 . S
C439 H454 0.961 . S
C439 H455 0.961 . S
C440 C441 1.370 . S
C440 C442 1.363 . S
C440 H456 0.931 . S
C441 C440 1.370 . S
C441 C445 1.408 . S
C442 C440 1.363 . S
C442 C443 1.370 . S
C442 C446 1.524 . S
C443 C435 1.503 . S
C443 C442 1.370 . S
C443 C444 1.403 . S
C444 C443 1.403 . S
C444 C445 1.404 . S
C444 C447 1.539 . S
C445 C441 1.408 . S
C445 C444 1.404 . S
C445 H457 0.930 . S
C446 C442 1.524 . S
C446 H458 0.956 . S
C446 H459 0.961 . S
C446 H460 0.961 . S
C447 C444 1.539 . S
C447 H461 0.958 . S
C447 H462 0.961 . S
C447 H463 0.960 . S
H448 C432 0.931 . S
H449 C437 0.929 . S
H450 C438 0.960 . S
H451 C438 0.962 . S
H452 C438 0.960 . S
H453 C439 0.961 . S
H454 C439 0.961 . S
H455 C439 0.961 . S
H456 C440 0.931 . S
H457 C445 0.930 . S
H458 C446 0.956 . S
H459 C446 0.961 . S
H460 C446 0.961 . S
H461 C447 0.958 . S
H462 C447 0.961 . S
H463 C447 0.960 . S
C464 C465 1.391 . S
C464 C466 1.394 . S
C464 H480 0.931 . S
C465 C464 1.391 . S
C465 C469 1.376 . S
C466 C464 1.394 . S
C466 C467 1.369 . S
C466 C470 1.531 . S
C467 C466 1.369 . S
C467 C468 1.410 . S
C467 C475 1.503 . S
C468 C467 1.410 . S
C468 C469 1.392 . S
C468 C471 1.511 . S
C469 C465 1.376 . S
C469 C468 1.392 . S
C469 H481 0.929 . S
C470 C466 1.531 . S
C470 H482 0.960 . S
C470 H483 0.962 . S
C470 H484 0.960 . S
C471 C468 1.511 . S
C471 H485 0.961 . S
C471 H486 0.961 . S
C471 H487 0.961 . S
C472 C473 1.370 . S
C472 C474 1.363 . S
C472 H488 0.931 . S
C473 C472 1.370 . S
C473 C477 1.408 . S
C474 C472 1.363 . S
C474 C475 1.370 . S
C474 C478 1.524 . S
C475 C467 1.503 . S
C475 C474 1.370 . S
C475 C476 1.403 . S
C476 C475 1.403 . S
C476 C477 1.404 . S
C476 C479 1.539 . S
C477 C473 1.408 . S
C477 C476 1.404 . S
C477 H489 0.930 . S
C478 C474 1.524 . S
C478 H490 0.956 . S
C478 H491 0.961 . S
C478 H492 0.961 . S
C479 C476 1.539 . S
C479 H493 0.958 . S
C479 H494 0.961 . S
C479 H495 0.960 . S
H480 C464 0.931 . S
H481 C469 0.929 . S
H482 C470 0.960 . S
H483 C470 0.962 . S
H484 C470 0.960 . S
H485 C471 0.961 . S
H486 C471 0.961 . S
H487 C471 0.961 . S
H488 C472 0.931 . S
H489 C477 0.930 . S
H490 C478 0.956 . S
H491 C478 0.961 . S
H492 C478 0.961 . S
H493 C479 0.958 . S
H494 C479 0.961 . S
H495 C479 0.960 . S
C496 C497 1.391 . S
C496 C498 1.394 . S
C496 H512 0.931 . S
C497 C496 1.391 . S
C497 C501 1.376 . S
C498 C496 1.394 . S
C498 C499 1.369 . S
C498 C502 1.531 . S
C499 C498 1.369 . S
C499 C500 1.410 . S
C499 C507 1.503 . S
C500 C499 1.410 . S
C500 C501 1.392 . S
C500 C503 1.511 . S
C501 C497 1.376 . S
C501 C500 1.392 . S
C501 H513 0.929 . S
C502 C498 1.531 . S
C502 H514 0.960 . S
C502 H515 0.962 . S
C502 H516 0.960 . S
C503 C500 1.511 . S
C503 H517 0.961 . S
C503 H518 0.961 . S
C503 H519 0.961 . S
C504 C505 1.370 . S
C504 C506 1.363 . S
C504 H520 0.931 . S
C505 C504 1.370 . S
C505 C509 1.408 . S
C506 C504 1.363 . S
C506 C507 1.370 . S
C506 C510 1.524 . S
C507 C499 1.503 . S
C507 C506 1.370 . S
C507 C508 1.403 . S
C508 C507 1.403 . S
C508 C509 1.404 . S
C508 C511 1.539 . S
C509 C505 1.408 . S
C509 C508 1.404 . S
C509 H521 0.930 . S
C510 C506 1.524 . S
C510 H522 0.956 . S
C510 H523 0.961 . S
C510 H524 0.961 . S
C511 C508 1.539 . S
C511 H525 0.958 . S
C511 H526 0.961 . S
C511 H527 0.960 . S
H512 C496 0.931 . S
H513 C501 0.929 . S
H514 C502 0.960 . S
H515 C502 0.962 . S
H516 C502 0.960 . S
H517 C503 0.961 . S
H518 C503 0.961 . S
H519 C503 0.961 . S
H520 C504 0.931 . S
H521 C509 0.930 . S
H522 C510 0.956 . S
H523 C510 0.961 . S
H524 C510 0.961 . S
H525 C511 0.958 . S
H526 C511 0.961 . S
H527 C511 0.960 . S
C528 C529 1.391 . S
C528 C530 1.394 . S
C528 H544 0.931 . S
C529 C528 1.391 . S
C529 C533 1.376 . S
C530 C528 1.394 . S
C530 C531 1.369 . S
C530 C534 1.531 . S
C531 C530 1.369 . S
C531 C532 1.410 . S
C531 C539 1.503 . S
C532 C531 1.410 . S
C532 C533 1.392 . S
C532 C535 1.511 . S
C533 C529 1.376 . S
C533 C532 1.392 . S
C533 H545 0.929 . S
C534 C530 1.531 . S
C534 H546 0.960 . S
C534 H547 0.962 . S
C534 H548 0.960 . S
C535 C532 1.511 . S
C535 H549 0.961 . S
C535 H550 0.961 . S
C535 H551 0.961 . S
C536 C537 1.370 . S
C536 C538 1.363 . S
C536 H552 0.931 . S
C537 C536 1.370 . S
C537 C541 1.408 . S
C538 C536 1.363 . S
C538 C539 1.370 . S
C538 C542 1.524 . S
C539 C531 1.503 . S
C539 C538 1.370 . S
C539 C540 1.403 . S
C540 C539 1.403 . S
C540 C541 1.404 . S
C540 C543 1.539 . S
C541 C537 1.408 . S
C541 C540 1.404 . S
C541 H553 0.930 . S
C542 C538 1.524 . S
C542 H554 0.956 . S
C542 H555 0.961 . S
C542 H556 0.961 . S
C543 C540 1.539 . S
C543 H557 0.958 . S
C543 H558 0.961 . S
C543 H559 0.960 . S
H544 C528 0.931 . S
H545 C533 0.929 . S
H546 C534 0.960 . S
H547 C534 0.962 . S
H548 C534 0.960 . S
H549 C535 0.961 . S
H550 C535 0.961 . S
H551 C535 0.961 . S
H552 C536 0.931 . S
H553 C541 0.930 . S
H554 C542 0.956 . S
H555 C542 0.961 . S
H556 C542 0.961 . S
H557 C543 0.958 . S
H558 C543 0.961 . S
H559 C543 0.960 . S
C560 C561 1.391 . S
C560 C562 1.394 . S
C560 H576 0.931 . S
C561 C560 1.391 . S
C561 C565 1.376 . S
C562 C560 1.394 . S
C562 C563 1.369 . S
C562 C566 1.531 . S
C563 C562 1.369 . S
C563 C564 1.410 . S
C563 C571 1.503 . S
C564 C563 1.410 . S
C564 C565 1.392 . S
C564 C567 1.511 . S
C565 C561 1.376 . S
C565 C564 1.392 . S
C565 H577 0.929 . S
C566 C562 1.531 . S
C566 H578 0.960 . S
C566 H579 0.962 . S
C566 H580 0.960 . S
C567 C564 1.511 . S
C567 H581 0.961 1_554 S
C567 H582 0.961 . S
C567 H583 0.961 . S
C568 C569 1.370 . S
C568 C570 1.363 . S
C568 H584 0.931 . S
C569 C568 1.370 . S
C569 C573 1.408 . S
C570 C568 1.363 . S
C570 C571 1.370 . S
C570 C574 1.524 . S
C571 C563 1.503 . S
C571 C570 1.370 . S
C571 C572 1.403 . S
C572 C571 1.403 . S
C572 C573 1.404 . S
C572 C575 1.539 . S
C573 C569 1.408 . S
C573 C572 1.404 . S
C573 H585 0.930 . S
C574 C570 1.524 . S
C574 H586 0.956 . S
C574 H587 0.961 . S
C574 H588 0.961 . S
C575 C572 1.539 . S
C575 H589 0.958 . S
C575 H590 0.961 . S
C575 H591 0.960 . S
H576 C560 0.931 . S
H577 C565 0.929 . S
H578 C566 0.960 . S
H579 C566 0.962 . S
H580 C566 0.960 . S
H581 C567 0.961 1_556 S
H582 C567 0.961 . S
H583 C567 0.961 . S
H584 C568 0.931 . S
H585 C573 0.930 . S
H586 C574 0.956 . S
H587 C574 0.961 . S
H588 C574 0.961 . S
H589 C575 0.958 . S
H590 C575 0.961 . S
H591 C575 0.960 . S
C592 C593 1.391 . S
C592 C594 1.394 . S
C592 H608 0.931 . S
C593 C592 1.391 . S
C593 C597 1.376 . S
C594 C592 1.394 . S
C594 C595 1.369 . S
C594 C598 1.531 . S
C595 C594 1.369 . S
C595 C596 1.410 . S
C595 C603 1.503 . S
C596 C595 1.410 . S
C596 C597 1.392 . S
C596 C599 1.511 . S
C597 C593 1.376 . S
C597 C596 1.392 . S
C597 H609 0.929 . S
C598 C594 1.531 . S
C598 H610 0.960 . S
C598 H611 0.962 . S
C598 H612 0.960 . S
C599 C596 1.511 . S
C599 H613 0.961 . S
C599 H614 0.961 . S
C599 H615 0.961 . S
C600 C601 1.370 . S
C600 C602 1.363 . S
C600 H616 0.931 . S
C601 C600 1.370 . S
C601 C605 1.408 . S
C602 C600 1.363 . S
C602 C603 1.370 . S
C602 C606 1.524 . S
C603 C595 1.503 . S
C603 C602 1.370 . S
C603 C604 1.403 . S
C604 C603 1.403 . S
C604 C605 1.404 . S
C604 C607 1.539 . S
C605 C601 1.408 . S
C605 C604 1.404 . S
C605 H617 0.930 . S
C606 C602 1.524 . S
C606 H618 0.956 . S
C606 H619 0.961 . S
C606 H620 0.961 . S
C607 C604 1.539 . S
C607 H621 0.958 . S
C607 H622 0.961 . S
C607 H623 0.960 . S
H608 C592 0.931 . S
H609 C597 0.929 . S
H610 C598 0.960 . S
H611 C598 0.962 . S
H612 C598 0.960 . S
H613 C599 0.961 . S
H614 C599 0.961 . S
H615 C599 0.961 . S
H616 C600 0.931 . S
H617 C605 0.930 . S
H618 C606 0.956 . S
H619 C606 0.961 . S
H620 C606 0.961 . S
H621 C607 0.958 . S
H622 C607 0.961 . S
H623 C607 0.960 . S
C624 C625 1.391 . S
C624 C626 1.394 . S
C624 H640 0.931 . S
C625 C624 1.391 . S
C625 C629 1.376 . S
C626 C624 1.394 . S
C626 C627 1.369 . S
C626 C630 1.531 . S
C627 C626 1.369 . S
C627 C628 1.410 . S
C627 C635 1.503 . S
C628 C627 1.410 . S
C628 C629 1.392 . S
C628 C631 1.511 . S
C629 C625 1.376 . S
C629 C628 1.392 . S
C629 H641 0.929 . S
C630 C626 1.531 . S
C630 H642 0.960 . S
C630 H643 0.962 . S
C630 H644 0.960 . S
C631 C628 1.511 . S
C631 H645 0.961 . S
C631 H646 0.961 . S
C631 H647 0.961 . S
C632 C633 1.370 . S
C632 C634 1.363 . S
C632 H648 0.931 . S
C633 C632 1.370 . S
C633 C637 1.408 . S
C634 C632 1.363 . S
C634 C635 1.370 . S
C634 C638 1.524 . S
C635 C627 1.503 . S
C635 C634 1.370 . S
C635 C636 1.403 . S
C636 C635 1.403 . S
C636 C637 1.404 . S
C636 C639 1.539 . S
C637 C633 1.408 . S
C637 C636 1.404 . S
C637 H649 0.930 . S
C638 C634 1.524 . S
C638 H650 0.956 . S
C638 H651 0.961 . S
C638 H652 0.961 . S
C639 C636 1.539 . S
C639 H653 0.958 . S
C639 H654 0.961 . S
C639 H655 0.960 . S
H640 C624 0.931 . S
H641 C629 0.929 . S
H642 C630 0.960 . S
H643 C630 0.962 . S
H644 C630 0.960 . S
H645 C631 0.961 . S
H646 C631 0.961 . S
H647 C631 0.961 . S
H648 C632 0.931 . S
H649 C637 0.930 . S
H650 C638 0.956 . S
H651 C638 0.961 . S
H652 C638 0.961 . S
H653 C639 0.958 . S
H654 C639 0.961 . S
H655 C639 0.960 . S
C656 C657 1.391 . S
C656 C658 1.394 . S
C656 H672 0.931 . S
C657 C656 1.391 . S
C657 C661 1.376 . S
C658 C656 1.394 . S
C658 C659 1.369 . S
C658 C662 1.531 . S
C659 C658 1.369 . S
C659 C660 1.410 . S
C659 C667 1.503 . S
C660 C659 1.410 . S
C660 C661 1.392 . S
C660 C663 1.511 . S
C661 C657 1.376 . S
C661 C660 1.392 . S
C661 H673 0.929 . S
C662 C658 1.531 . S
C662 H674 0.960 . S
C662 H675 0.962 . S
C662 H676 0.960 . S
C663 C660 1.511 . S
C663 H677 0.961 . S
C663 H678 0.961 . S
C663 H679 0.961 . S
C664 C665 1.370 . S
C664 C666 1.363 . S
C664 H680 0.931 . S
C665 C664 1.370 . S
C665 C669 1.408 . S
C666 C664 1.363 . S
C666 C667 1.370 . S
C666 C670 1.524 . S
C667 C659 1.503 . S
C667 C666 1.370 . S
C667 C668 1.403 . S
C668 C667 1.403 . S
C668 C669 1.404 . S
C668 C671 1.539 . S
C669 C665 1.408 . S
C669 C668 1.404 . S
C669 H681 0.930 . S
C670 C666 1.524 . S
C670 H682 0.956 . S
C670 H683 0.961 . S
C670 H684 0.961 . S
C671 C668 1.539 . S
C671 H685 0.958 . S
C671 H686 0.961 . S
C671 H687 0.960 . S
H672 C656 0.931 . S
H673 C661 0.929 . S
H674 C662 0.960 . S
H675 C662 0.962 . S
H676 C662 0.960 . S
H677 C663 0.961 . S
H678 C663 0.961 . S
H679 C663 0.961 . S
H680 C664 0.931 . S
H681 C669 0.930 . S
H682 C670 0.956 . S
H683 C670 0.961 . S
H684 C670 0.961 . S
H685 C671 0.958 . S
H686 C671 0.961 . S
H687 C671 0.960 . S
C688 C689 1.391 . S
C688 C690 1.394 . S
C688 H704 0.931 . S
C689 C688 1.391 . S
C689 C693 1.376 . S
C690 C688 1.394 . S
C690 C691 1.369 . S
C690 C694 1.531 . S
C691 C690 1.369 . S
C691 C692 1.410 . S
C691 C699 1.503 . S
C692 C691 1.410 . S
C692 C693 1.392 . S
C692 C695 1.511 . S
C693 C689 1.376 . S
C693 C692 1.392 . S
C693 H705 0.929 . S
C694 C690 1.531 . S
C694 H706 0.960 . S
C694 H707 0.962 . S
C694 H708 0.960 . S
C695 C692 1.511 . S
C695 H709 0.961 . S
C695 H710 0.961 . S
C695 H711 0.961 . S
C696 C697 1.370 . S
C696 C698 1.363 . S
C696 H712 0.931 . S
C697 C696 1.370 . S
C697 C701 1.408 . S
C698 C696 1.363 . S
C698 C699 1.370 . S
C698 C702 1.524 . S
C699 C691 1.503 . S
C699 C698 1.370 . S
C699 C700 1.403 . S
C700 C699 1.403 . S
C700 C701 1.404 . S
C700 C703 1.539 . S
C701 C697 1.408 . S
C701 C700 1.404 . S
C701 H713 0.930 . S
C702 C698 1.524 . S
C702 H714 0.956 . S
C702 H715 0.961 . S
C702 H716 0.961 . S
C703 C700 1.539 . S
C703 H717 0.958 . S
C703 H718 0.961 . S
C703 H719 0.960 . S
H704 C688 0.931 . S
H705 C693 0.929 . S
H706 C694 0.960 . S
H707 C694 0.962 . S
H708 C694 0.960 . S
H709 C695 0.961 . S
H710 C695 0.961 . S
H711 C695 0.961 . S
H712 C696 0.931 . S
H713 C701 0.930 . S
H714 C702 0.956 . S
H715 C702 0.961 . S
H716 C702 0.961 . S
H717 C703 0.958 . S
H718 C703 0.961 . S
H719 C703 0.960 . S
C720 C721 1.391 . S
C720 C722 1.394 . S
C720 H736 0.931 . S
C721 C720 1.391 . S
C721 C725 1.376 . S
C722 C720 1.394 . S
C722 C723 1.369 . S
C722 C726 1.531 . S
C723 C722 1.369 . S
C723 C724 1.410 . S
C723 C731 1.503 . S
C724 C723 1.410 . S
C724 C725 1.392 . S
C724 C727 1.511 . S
C725 C721 1.376 . S
C725 C724 1.392 . S
C725 H737 0.929 . S
C726 C722 1.531 . S
C726 H738 0.960 . S
C726 H739 0.962 . S
C726 H740 0.960 . S
C727 C724 1.511 . S
C727 H741 0.961 . S
C727 H742 0.961 . S
C727 H743 0.961 . S
C728 C729 1.370 . S
C728 C730 1.363 . S
C728 H744 0.931 . S
C729 C728 1.370 . S
C729 C733 1.408 . S
C730 C728 1.363 . S
C730 C731 1.370 . S
C730 C734 1.524 . S
C731 C723 1.503 . S
C731 C730 1.370 . S
C731 C732 1.403 . S
C732 C731 1.403 . S
C732 C733 1.404 . S
C732 C735 1.539 . S
C733 C729 1.408 . S
C733 C732 1.404 . S
C733 H745 0.930 . S
C734 C730 1.524 . S
C734 H746 0.956 . S
C734 H747 0.961 . S
C734 H748 0.961 . S
C735 C732 1.539 . S
C735 H749 0.958 . S
C735 H750 0.961 . S
C735 H751 0.960 . S
H736 C720 0.931 . S
H737 C725 0.929 . S
H738 C726 0.960 . S
H739 C726 0.962 . S
H740 C726 0.960 . S
H741 C727 0.961 . S
H742 C727 0.961 . S
H743 C727 0.961 . S
H744 C728 0.931 . S
H745 C733 0.930 . S
H746 C734 0.956 . S
H747 C734 0.961 . S
H748 C734 0.961 . S
H749 C735 0.958 . S
H750 C735 0.961 . S
H751 C735 0.960 . S
C752 C753 1.391 . S
C752 C754 1.394 . S
C752 H768 0.931 . S
C753 C752 1.391 . S
C753 C757 1.376 . S
C754 C752 1.394 . S
C754 C755 1.369 . S
C754 C758 1.531 . S
C755 C754 1.369 . S
C755 C756 1.410 . S
C755 C763 1.503 . S
C756 C755 1.410 . S
C756 C757 1.392 . S
C756 C759 1.511 . S
C757 C753 1.376 . S
C757 C756 1.392 . S
C757 H769 0.929 . S
C758 C754 1.531 . S
C758 H770 0.960 . S
C758 H771 0.962 . S
C758 H772 0.960 . S
C759 C756 1.511 . S
C759 H773 0.961 . S
C759 H774 0.961 . S
C759 H775 0.961 . S
C760 C761 1.370 . S
C760 C762 1.363 . S
C760 H776 0.931 . S
C761 C760 1.370 . S
C761 C765 1.408 . S
C762 C760 1.363 . S
C762 C763 1.370 . S
C762 C766 1.524 . S
C763 C755 1.503 . S
C763 C762 1.370 . S
C763 C764 1.403 . S
C764 C763 1.403 . S
C764 C765 1.404 . S
C764 C767 1.539 . S
C765 C761 1.408 . S
C765 C764 1.404 . S
C765 H777 0.930 . S
C766 C762 1.524 . S
C766 H778 0.956 . S
C766 H779 0.961 . S
C766 H780 0.961 . S
C767 C764 1.539 . S
C767 H781 0.958 . S
C767 H782 0.961 . S
C767 H783 0.960 . S
H768 C752 0.931 . S
H769 C757 0.929 . S
H770 C758 0.960 . S
H771 C758 0.962 . S
H772 C758 0.960 . S
H773 C759 0.961 . S
H774 C759 0.961 . S
H775 C759 0.961 . S
H776 C760 0.931 . S
H777 C765 0.930 . S
H778 C766 0.956 . S
H779 C766 0.961 . S
H780 C766 0.961 . S
H781 C767 0.958 . S
H782 C767 0.961 . S
H783 C767 0.960 . S
C784 C785 1.391 . S
C784 C786 1.394 . S
C784 H800 0.931 . S
C785 C784 1.391 . S
C785 C789 1.376 . S
C786 C784 1.394 . S
C786 C787 1.369 . S
C786 C790 1.531 . S
C787 C786 1.369 . S
C787 C788 1.410 . S
C787 C795 1.503 . S
C788 C787 1.410 . S
C788 C789 1.392 . S
C788 C791 1.511 . S
C789 C785 1.376 . S
C789 C788 1.392 . S
C789 H801 0.929 . S
C790 C786 1.531 . S
C790 H802 0.960 . S
C790 H803 0.962 . S
C790 H804 0.960 . S
C791 C788 1.511 . S
C791 H805 0.961 . S
C791 H806 0.961 . S
C791 H807 0.961 . S
C792 C793 1.370 . S
C792 C794 1.363 . S
C792 H808 0.931 . S
C793 C792 1.370 . S
C793 C797 1.408 . S
C794 C792 1.363 . S
C794 C795 1.370 . S
C794 C798 1.524 . S
C795 C787 1.503 . S
C795 C794 1.370 . S
C795 C796 1.403 . S
C796 C795 1.403 . S
C796 C797 1.404 . S
C796 C799 1.539 . S
C797 C793 1.408 . S
C797 C796 1.404 . S
C797 H809 0.930 . S
C798 C794 1.524 . S
C798 H810 0.956 . S
C798 H811 0.961 . S
C798 H812 0.961 . S
C799 C796 1.539 . S
C799 H813 0.958 . S
C799 H814 0.961 . S
C799 H815 0.960 . S
H800 C784 0.931 . S
H801 C789 0.929 . S
H802 C790 0.960 . S
H803 C790 0.962 . S
H804 C790 0.960 . S
H805 C791 0.961 . S
H806 C791 0.961 . S
H807 C791 0.961 . S
H808 C792 0.931 . S
H809 C797 0.930 . S
H810 C798 0.956 . S
H811 C798 0.961 . S
H812 C798 0.961 . S
H813 C799 0.958 . S
H814 C799 0.961 . S
H815 C799 0.960 . S
C816 C817 1.391 . S
C816 C818 1.394 . S
C816 H832 0.931 . S
C817 C816 1.391 . S
C817 C821 1.376 . S
C818 C816 1.394 . S
C818 C819 1.369 . S
C818 C822 1.531 . S
C819 C818 1.369 . S
C819 C820 1.410 . S
C819 C827 1.503 1_655 S
C820 C819 1.410 . S
C820 C821 1.392 . S
C820 C823 1.511 . S
C821 C817 1.376 . S
C821 C820 1.392 . S
C821 H833 0.929 . S
C822 C818 1.531 . S
C822 H834 0.960 . S
C822 H835 0.962 . S
C822 H836 0.960 . S
C823 C820 1.511 . S
C823 H837 0.961 . S
C823 H838 0.961 1_655 S
C823 H839 0.961 . S
C824 C825 1.370 . S
C824 C826 1.363 . S
C824 H840 0.931 . S
C825 C824 1.370 . S
C825 C829 1.408 . S
C826 C824 1.363 . S
C826 C827 1.370 . S
C826 C830 1.524 . S
C827 C819 1.503 1_455 S
C827 C826 1.370 . S
C827 C828 1.403 . S
C828 C827 1.403 . S
C828 C829 1.404 . S
C828 C831 1.539 1_455 S
C829 C825 1.408 . S
C829 C828 1.404 . S
C829 H841 0.930 . S
C830 C826 1.524 . S
C830 H842 0.956 . S
C830 H843 0.961 . S
C830 H844 0.961 . S
C831 C828 1.539 1_655 S
C831 H845 0.958 . S
C831 H846 0.961 1_655 S
C831 H847 0.960 . S
H832 C816 0.931 . S
H833 C821 0.929 . S
H834 C822 0.960 . S
H835 C822 0.962 . S
H836 C822 0.960 . S
H837 C823 0.961 . S
H838 C823 0.961 1_455 S
H839 C823 0.961 . S
H840 C824 0.931 . S
H841 C829 0.930 . S
H842 C830 0.956 . S
H843 C830 0.961 . S
H844 C830 0.961 . S
H845 C831 0.958 . S
H846 C831 0.961 1_455 S
H847 C831 0.960 . S
C848 C849 1.391 . S
C848 C850 1.394 . S
C848 H864 0.931 . S
C849 C848 1.391 . S
C849 C853 1.376 . S
C850 C848 1.394 . S
C850 C851 1.369 . S
C850 C854 1.531 . S
C851 C850 1.369 . S
C851 C852 1.410 . S
C851 C859 1.503 1_565 S
C852 C851 1.410 . S
C852 C853 1.392 . S
C852 C855 1.511 1_565 S
C853 C849 1.376 . S
C853 C852 1.392 . S
C853 H865 0.929 . S
C854 C850 1.531 . S
C854 H866 0.960 . S
C854 H867 0.962 . S
C854 H868 0.960 . S
C855 C852 1.511 1_545 S
C855 H869 0.961 1_545 S
C855 H870 0.961 . S
C855 H871 0.961 . S
C856 C857 1.370 . S
C856 C858 1.363 . S
C856 H872 0.931 . S
C857 C856 1.370 . S
C857 C861 1.408 . S
C858 C856 1.363 . S
C858 C859 1.370 . S
C858 C862 1.524 . S
C859 C851 1.503 1_545 S
C859 C858 1.370 . S
C859 C860 1.403 . S
C860 C859 1.403 . S
C860 C861 1.404 . S
C860 C863 1.539 . S
C861 C857 1.408 . S
C861 C860 1.404 . S
C861 H873 0.930 . S
C862 C858 1.524 . S
C862 H874 0.956 1_545 S
C862 H875 0.961 1_545 S
C862 H876 0.961 . S
C863 C860 1.539 . S
C863 H877 0.958 . S
C863 H878 0.961 . S
C863 H879 0.960 . S
H864 C848 0.931 . S
H865 C853 0.929 . S
H866 C854 0.960 . S
H867 C854 0.962 . S
H868 C854 0.960 . S
H869 C855 0.961 1_565 S
H870 C855 0.961 . S
H871 C855 0.961 . S
H872 C856 0.931 . S
H873 C861 0.930 . S
H874 C862 0.956 1_565 S
H875 C862 0.961 1_565 S
H876 C862 0.961 . S
H877 C863 0.958 . S
H878 C863 0.961 . S
H879 C863 0.960 . S
C880 C881 1.391 . S
C880 C882 1.394 . S
C880 H896 0.931 . S
C881 C880 1.391 . S
C881 C885 1.376 . S
C882 C880 1.394 . S
C882 C883 1.369 . S
C882 C886 1.531 . S
C883 C882 1.369 . S
C883 C884 1.410 . S
C883 C891 1.503 . S
C884 C883 1.410 . S
C884 C885 1.392 . S
C884 C887 1.511 . S
C885 C881 1.376 . S
C885 C884 1.392 . S
C885 H897 0.929 . S
C886 C882 1.531 . S
C886 H898 0.960 . S
C886 H899 0.962 . S
C886 H900 0.960 . S
C887 C884 1.511 . S
C887 H901 0.961 . S
C887 H902 0.961 . S
C887 H903 0.961 . S
C888 C889 1.370 . S
C888 C890 1.363 . S
C888 H904 0.931 . S
C889 C888 1.370 . S
C889 C893 1.408 . S
C890 C888 1.363 . S
C890 C891 1.370 . S
C890 C894 1.524 . S
C891 C883 1.503 . S
C891 C890 1.370 . S
C891 C892 1.403 . S
C892 C891 1.403 . S
C892 C893 1.404 . S
C892 C895 1.539 . S
C893 C889 1.408 . S
C893 C892 1.404 . S
C893 H905 0.930 . S
C894 C890 1.524 . S
C894 H906 0.956 . S
C894 H907 0.961 . S
C894 H908 0.961 . S
C895 C892 1.539 . S
C895 H909 0.958 . S
C895 H910 0.961 . S
C895 H911 0.960 . S
H896 C880 0.931 . S
H897 C885 0.929 . S
H898 C886 0.960 . S
H899 C886 0.962 . S
H900 C886 0.960 . S
H901 C887 0.961 . S
H902 C887 0.961 . S
H903 C887 0.961 . S
H904 C888 0.931 . S
H905 C893 0.930 . S
H906 C894 0.956 . S
H907 C894 0.961 . S
H908 C894 0.961 . S
H909 C895 0.958 . S
H910 C895 0.961 . S
H911 C895 0.960 . S
C912 C913 1.391 . S
C912 C914 1.394 . S
C912 H928 0.931 . S
C913 C912 1.391 . S
C913 C917 1.376 . S
C914 C912 1.394 . S
C914 C915 1.369 . S
C914 C918 1.531 . S
C915 C914 1.369 . S
C915 C916 1.410 . S
C915 C923 1.503 1_455 S
C916 C915 1.410 . S
C916 C917 1.392 . S
C916 C919 1.511 1_455 S
C917 C913 1.376 . S
C917 C916 1.392 . S
C917 H929 0.929 . S
C918 C914 1.531 . S
C918 H930 0.960 . S
C918 H931 0.962 . S
C918 H932 0.960 . S
C919 C916 1.511 1_655 S
C919 H933 0.961 1_655 S
C919 H934 0.961 . S
C919 H935 0.961 . S
C920 C921 1.370 . S
C920 C922 1.363 . S
C920 H936 0.931 . S
C921 C920 1.370 . S
C921 C925 1.408 . S
C922 C920 1.363 . S
C922 C923 1.370 . S
C922 C926 1.524 . S
C923 C915 1.503 1_655 S
C923 C922 1.370 . S
C923 C924 1.403 . S
C924 C923 1.403 . S
C924 C925 1.404 . S
C924 C927 1.539 . S
C925 C921 1.408 . S
C925 C924 1.404 . S
C925 H937 0.930 . S
C926 C922 1.524 . S
C926 H938 0.954 . S
C926 H939 0.961 . S
C926 H940 0.961 . S
C927 C924 1.539 . S
C927 H941 0.958 . S
C927 H942 0.961 . S
C927 H943 0.960 1_655 S
H928 C912 0.931 . S
H929 C917 0.929 . S
H930 C918 0.960 . S
H931 C918 0.962 . S
H932 C918 0.960 . S
H933 C919 0.961 1_455 S
H934 C919 0.961 . S
H935 C919 0.961 . S
H936 C920 0.931 . S
H937 C925 0.930 . S
H938 C926 0.954 . S
H939 C926 0.961 . S
H940 C926 0.961 . S
H941 C927 0.958 . S
H942 C927 0.961 . S
H943 C927 0.960 1_455 S
C944 C945 1.391 . S
C944 C946 1.394 . S
C944 H960 0.931 . S
C945 C944 1.391 . S
C945 C949 1.376 1_556 S
C946 C944 1.394 . S
C946 C947 1.369 . S
C946 C950 1.531 1_545 S
C947 C946 1.369 . S
C947 C948 1.410 1_556 S
C947 C955 1.503 1_546 S
C948 C947 1.410 1_554 S
C948 C949 1.392 . S
C948 C951 1.511 . S
C949 C945 1.376 1_554 S
C949 C948 1.392 . S
C949 H961 0.929 . S
C950 C946 1.531 1_565 S
C950 H962 0.960 . S
C950 H963 0.962 . S
C950 H964 0.960 1_565 S
C951 C948 1.511 . S
C951 H965 0.961 . S
C951 H966 0.961 . S
C951 H967 0.961 . S
C952 C953 1.370 . S
C952 C954 1.363 . S
C952 H968 0.931 . S
C953 C952 1.370 . S
C953 C957 1.408 . S
C954 C952 1.363 . S
C954 C955 1.370 . S
C954 C958 1.524 . S
C955 C947 1.503 1_564 S
C955 C954 1.370 . S
C955 C956 1.403 . S
C956 C955 1.403 . S
C956 C957 1.404 . S
C956 C959 1.533 1_554 S
C957 C953 1.408 . S
C957 C956 1.404 . S
C957 H969 0.930 . S
C958 C954 1.524 . S
C958 H970 0.956 1_554 S
C958 H971 0.961 1_565 S
C958 H972 0.961 . S
C959 C956 1.533 1_556 S
C959 H973 0.986 . S
C959 H974 0.944 1_556 S
C959 H975 0.942 1_566 S
H960 C944 0.931 . S
H961 C949 0.929 . S
H962 C950 0.960 . S
H963 C950 0.962 . S
H964 C950 0.960 1_545 S
H965 C951 0.961 . S
H966 C951 0.961 . S
H967 C951 0.961 . S
H968 C952 0.931 . S
H969 C957 0.930 . S
H970 C958 0.956 1_556 S
H971 C958 0.961 1_545 S
H972 C958 0.961 . S
H973 C959 0.986 . S
H974 C959 0.944 1_554 S
H975 C959 0.942 1_544 S
C976 C977 1.391 . S
C976 C978 1.394 . S
C976 H992 0.931 . S
C977 C976 1.391 . S
C977 C981 1.376 . S
C978 C976 1.394 . S
C978 C979 1.369 . S
C978 C982 1.531 . S
C979 C978 1.369 . S
C979 C980 1.410 . S
C979 C987 1.503 . S
C980 C979 1.410 . S
C980 C981 1.392 . S
C980 C983 1.511 . S
C981 C977 1.376 . S
C981 C980 1.392 . S
C981 H993 0.929 . S
C982 C978 1.531 . S
C982 H994 0.960 . S
C982 H995 0.962 . S
C982 H996 0.960 . S
C983 C980 1.511 . S
C983 H997 0.961 . S
C983 H998 0.961 . S
C983 H999 0.961 . S
C984 C985 1.370 . S
C984 C986 1.363 . S
C984 H1000 0.931 . S
C985 C984 1.370 . S
C985 C989 1.408 . S
C986 C984 1.363 . S
C986 C987 1.370 . S
C986 C990 1.524 . S
C987 C979 1.503 . S
C987 C986 1.370 . S
C987 C988 1.403 . S
C988 C987 1.403 . S
C988 C989 1.404 . S
C988 C991 1.539 . S
C989 C985 1.408 . S
C989 C988 1.404 . S
C989 H1001 0.930 . S
C990 C986 1.524 . S
C990 H1002 0.956 . S
C990 H1003 0.961 . S
C990 H1004 0.961 . S
C991 C988 1.539 . S
C991 H1005 0.958 . S
C991 H1006 0.961 . S
C991 H1007 0.960 . S
H992 C976 0.931 . S
H993 C981 0.929 . S
H994 C982 0.960 . S
H995 C982 0.962 . S
H996 C982 0.960 . S
H997 C983 0.961 . S
H998 C983 0.961 . S
H999 C983 0.961 . S
H1000 C984 0.931 . S
H1001 C989 0.930 . S
H1002 C990 0.956 . S
H1003 C990 0.961 . S
H1004 C990 0.961 . S
H1005 C991 0.958 . S
H1006 C991 0.961 . S
H1007 C991 0.960 . S
C1008 C1009 1.391 . S
C1008 C1010 1.394 . S
C1008 H1024 0.931 . S
C1009 C1008 1.391 . S
C1009 C1013 1.376 . S
C1010 C1008 1.394 . S
C1010 C1011 1.369 . S
C1010 C1014 1.531 . S
C1011 C1010 1.369 . S
C1011 C1012 1.410 . S
C1011 C1019 1.503 . S
C1012 C1011 1.410 . S
C1012 C1013 1.392 . S
C1012 C1015 1.511 . S
C1013 C1009 1.376 . S
C1013 C1012 1.392 . S
C1013 H1025 0.929 . S
C1014 C1010 1.531 . S
C1014 H1026 0.960 . S
C1014 H1027 0.962 . S
C1014 H1028 0.960 . S
C1015 C1012 1.511 . S
C1015 H1029 0.961 . S
C1015 H1030 0.961 . S
C1015 H1031 0.961 . S
C1016 C1017 1.370 . S
C1016 C1018 1.363 . S
C1016 H1032 0.931 . S
C1017 C1016 1.370 . S
C1017 C1021 1.408 . S
C1018 C1016 1.363 . S
C1018 C1019 1.370 . S
C1018 C1022 1.524 . S
C1019 C1011 1.503 . S
C1019 C1018 1.370 . S
C1019 C1020 1.403 . S
C1020 C1019 1.403 . S
C1020 C1021 1.404 . S
C1020 C1023 1.539 . S
C1021 C1017 1.408 . S
C1021 C1020 1.404 . S
C1021 H1033 0.930 . S
C1022 C1018 1.524 . S
C1022 H1034 0.956 . S
C1022 H1035 0.961 . S
C1022 H1036 0.961 . S
C1023 C1020 1.539 . S
C1023 H1037 0.958 . S
C1023 H1038 0.961 . S
C1023 H1039 0.960 . S
H1024 C1008 0.931 . S
H1025 C1013 0.929 . S
H1026 C1014 0.960 . S
H1027 C1014 0.962 . S
H1028 C1014 0.960 . S
H1029 C1015 0.961 . S
H1030 C1015 0.961 . S
H1031 C1015 0.961 . S
H1032 C1016 0.931 . S
H1033 C1021 0.930 . S
H1034 C1022 0.956 . S
H1035 C1022 0.961 . S
H1036 C1022 0.961 . S
H1037 C1023 0.958 . S
H1038 C1023 0.961 . S
H1039 C1023 0.960 . S
C1040 C1041 1.391 . S
C1040 C1042 1.394 . S
C1040 H1056 0.931 . S
C1041 C1040 1.391 . S
C1041 C1045 1.376 . S
C1042 C1040 1.394 . S
C1042 C1043 1.369 . S
C1042 C1046 1.531 . S
C1043 C1042 1.369 . S
C1043 C1044 1.410 . S
C1043 C1051 1.503 . S
C1044 C1043 1.410 . S
C1044 C1045 1.392 . S
C1044 C1047 1.511 . S
C1045 C1041 1.376 . S
C1045 C1044 1.392 . S
C1045 H1057 0.929 . S
C1046 C1042 1.531 . S
C1046 H1058 0.960 . S
C1046 H1059 0.962 . S
C1046 H1060 0.960 . S
C1047 C1044 1.511 . S
C1047 H1061 0.961 . S
C1047 H1062 0.961 . S
C1047 H1063 0.961 . S
C1048 C1049 1.370 . S
C1048 C1050 1.363 . S
C1048 H1064 0.931 . S
C1049 C1048 1.370 . S
C1049 C1053 1.408 . S
C1050 C1048 1.363 . S
C1050 C1051 1.370 . S
C1050 C1054 1.524 . S
C1051 C1043 1.503 . S
C1051 C1050 1.370 . S
C1051 C1052 1.403 . S
C1052 C1051 1.403 . S
C1052 C1053 1.404 . S
C1052 C1055 1.539 . S
C1053 C1049 1.408 . S
C1053 C1052 1.404 . S
C1053 H1065 0.930 . S
C1054 C1050 1.524 . S
C1054 H1066 0.956 . S
C1054 H1067 0.961 . S
C1054 H1068 0.961 . S
C1055 C1052 1.539 . S
C1055 H1069 0.958 . S
C1055 H1070 0.961 . S
C1055 H1071 0.960 . S
H1056 C1040 0.931 . S
H1057 C1045 0.929 . S
H1058 C1046 0.960 . S
H1059 C1046 0.962 . S
H1060 C1046 0.960 . S
H1061 C1047 0.961 . S
H1062 C1047 0.961 . S
H1063 C1047 0.961 . S
H1064 C1048 0.931 . S
H1065 C1053 0.930 . S
H1066 C1054 0.956 . S
H1067 C1054 0.961 . S
H1068 C1054 0.961 . S
H1069 C1055 0.958 . S
H1070 C1055 0.961 . S
H1071 C1055 0.960 . S
C1072 C1073 1.391 . S
C1072 C1074 1.394 . S
C1072 H1088 0.931 . S
C1073 C1072 1.391 . S
C1073 C1077 1.376 . S
C1074 C1072 1.394 . S
C1074 C1075 1.369 . S
C1074 C1078 1.531 . S
C1075 C1074 1.369 . S
C1075 C1076 1.410 . S
C1075 C1083 1.503 . S
C1076 C1075 1.410 . S
C1076 C1077 1.392 . S
C1076 C1079 1.511 . S
C1077 C1073 1.376 . S
C1077 C1076 1.392 . S
C1077 H1089 0.929 . S
C1078 C1074 1.531 . S
C1078 H1090 0.960 . S
C1078 H1091 0.962 . S
C1078 H1092 0.960 . S
C1079 C1076 1.511 . S
C1079 H1093 0.961 . S
C1079 H1094 0.961 . S
C1079 H1095 0.961 . S
C1080 C1081 1.370 . S
C1080 C1082 1.363 . S
C1080 H1096 0.931 . S
C1081 C1080 1.370 . S
C1081 C1085 1.408 . S
C1082 C1080 1.363 . S
C1082 C1083 1.370 . S
C1082 C1086 1.524 . S
C1083 C1075 1.503 . S
C1083 C1082 1.370 . S
C1083 C1084 1.403 . S
C1084 C1083 1.403 . S
C1084 C1085 1.404 . S
C1084 C1087 1.539 . S
C1085 C1081 1.408 . S
C1085 C1084 1.404 . S
C1085 H1097 0.930 . S
C1086 C1082 1.524 . S
C1086 H1098 0.956 . S
C1086 H1099 0.961 . S
C1086 H1100 0.961 . S
C1087 C1084 1.539 . S
C1087 H1101 0.958 . S
C1087 H1102 0.961 . S
C1087 H1103 0.960 . S
H1088 C1072 0.931 . S
H1089 C1077 0.929 . S
H1090 C1078 0.960 . S
H1091 C1078 0.962 . S
H1092 C1078 0.960 . S
H1093 C1079 0.961 . S
H1094 C1079 0.961 . S
H1095 C1079 0.961 . S
H1096 C1080 0.931 . S
H1097 C1085 0.930 . S
H1098 C1086 0.956 . S
H1099 C1086 0.961 . S
H1100 C1086 0.961 . S
H1101 C1087 0.958 . S
H1102 C1087 0.961 . S
H1103 C1087 0.960 . S
C1104 C1105 1.391 . S
C1104 C1106 1.394 . S
C1104 H1120 0.931 . S
C1105 C1104 1.391 . S
C1105 C1109 1.376 . S
C1106 C1104 1.394 . S
C1106 C1107 1.369 . S
C1106 C1110 1.531 . S
C1107 C1106 1.369 . S
C1107 C1108 1.410 . S
C1107 C1115 1.503 . S
C1108 C1107 1.410 . S
C1108 C1109 1.392 . S
C1108 C1111 1.511 . S
C1109 C1105 1.376 . S
C1109 C1108 1.392 . S
C1109 H1121 0.929 . S
C1110 C1106 1.531 . S
C1110 H1122 0.960 . S
C1110 H1123 0.962 . S
C1110 H1124 0.960 . S
C1111 C1108 1.511 . S
C1111 H1125 0.961 . S
C1111 H1126 0.961 . S
C1111 H1127 0.961 . S
C1112 C1113 1.370 . S
C1112 C1114 1.363 . S
C1112 H1128 0.931 . S
C1113 C1112 1.370 . S
C1113 C1117 1.408 . S
C1114 C1112 1.363 . S
C1114 C1115 1.370 . S
C1114 C1118 1.524 . S
C1115 C1107 1.503 . S
C1115 C1114 1.370 . S
C1115 C1116 1.403 . S
C1116 C1115 1.403 . S
C1116 C1117 1.404 . S
C1116 C1119 1.539 . S
C1117 C1113 1.408 . S
C1117 C1116 1.404 . S
C1117 H1129 0.930 . S
C1118 C1114 1.524 . S
C1118 H1130 0.956 . S
C1118 H1131 0.961 . S
C1118 H1132 0.961 . S
C1119 C1116 1.539 . S
C1119 H1133 0.958 . S
C1119 H1134 0.961 . S
C1119 H1135 0.960 . S
H1120 C1104 0.931 . S
H1121 C1109 0.929 . S
H1122 C1110 0.960 . S
H1123 C1110 0.962 . S
H1124 C1110 0.960 . S
H1125 C1111 0.961 . S
H1126 C1111 0.961 . S
H1127 C1111 0.961 . S
H1128 C1112 0.931 . S
H1129 C1117 0.930 . S
H1130 C1118 0.956 . S
H1131 C1118 0.961 . S
H1132 C1118 0.961 . S
H1133 C1119 0.958 . S
H1134 C1119 0.961 . S
H1135 C1119 0.960 . S
C1136 C1137 1.391 . S
C1136 C1138 1.394 . S
C1136 H1152 0.931 . S
C1137 C1136 1.391 . S
C1137 C1141 1.376 . S
C1138 C1136 1.394 . S
C1138 C1139 1.369 . S
C1138 C1142 1.531 . S
C1139 C1138 1.369 . S
C1139 C1140 1.410 . S
C1139 C1147 1.503 . S
C1140 C1139 1.410 . S
C1140 C1141 1.392 . S
C1140 C1143 1.511 . S
C1141 C1137 1.376 . S
C1141 C1140 1.392 . S
C1141 H1153 0.929 . S
C1142 C1138 1.531 . S
C1142 H1154 0.960 . S
C1142 H1155 0.962 . S
C1142 H1156 0.960 . S
C1143 C1140 1.511 . S
C1143 H1157 0.961 . S
C1143 H1158 0.961 . S
C1143 H1159 0.961 . S
C1144 C1145 1.370 . S
C1144 C1146 1.363 . S
C1144 H1160 0.931 . S
C1145 C1144 1.370 . S
C1145 C1149 1.408 . S
C1146 C1144 1.363 . S
C1146 C1147 1.370 . S
C1146 C1150 1.524 . S
C1147 C1139 1.503 . S
C1147 C1146 1.370 . S
C1147 C1148 1.403 . S
C1148 C1147 1.403 . S
C1148 C1149 1.404 . S
C1148 C1151 1.539 . S
C1149 C1145 1.408 . S
C1149 C1148 1.404 . S
C1149 H1161 0.930 . S
C1150 C1146 1.524 . S
C1150 H1162 0.956 . S
C1150 H1163 0.961 . S
C1150 H1164 0.961 . S
C1151 C1148 1.539 . S
C1151 H1165 0.958 . S
C1151 H1166 0.961 . S
C1151 H1167 0.960 . S
H1152 C1136 0.931 . S
H1153 C1141 0.929 . S
H1154 C1142 0.960 . S
H1155 C1142 0.962 . S
H1156 C1142 0.960 . S
H1157 C1143 0.961 . S
H1158 C1143 0.961 . S
H1159 C1143 0.961 . S
H1160 C1144 0.931 . S
H1161 C1149 0.930 . S
H1162 C1150 0.956 . S
H1163 C1150 0.961 . S
H1164 C1150 0.961 . S
H1165 C1151 0.958 . S
H1166 C1151 0.961 . S
H1167 C1151 0.960 . S
C1168 C1169 1.391 . S
C1168 C1170 1.394 . S
C1168 H1184 0.931 . S
C1169 C1168 1.391 . S
C1169 C1173 1.376 . S
C1170 C1168 1.394 . S
C1170 C1171 1.369 . S
C1170 C1174 1.531 . S
C1171 C1170 1.369 . S
C1171 C1172 1.410 . S
C1171 C1179 1.503 . S
C1172 C1171 1.410 . S
C1172 C1173 1.392 . S
C1172 C1175 1.511 . S
C1173 C1169 1.376 . S
C1173 C1172 1.392 . S
C1173 H1185 0.929 . S
C1174 C1170 1.531 . S
C1174 H1186 0.960 . S
C1174 H1187 0.962 . S
C1174 H1188 0.960 . S
C1175 C1172 1.511 . S
C1175 H1189 0.961 . S
C1175 H1190 0.961 . S
C1175 H1191 0.961 . S
C1176 C1177 1.370 . S
C1176 C1178 1.363 . S
C1176 H1192 0.931 . S
C1177 C1176 1.370 . S
C1177 C1181 1.408 . S
C1178 C1176 1.363 . S
C1178 C1179 1.370 . S
C1178 C1182 1.524 . S
C1179 C1171 1.503 . S
C1179 C1178 1.370 . S
C1179 C1180 1.403 . S
C1180 C1179 1.403 . S
C1180 C1181 1.404 . S
C1180 C1183 1.539 . S
C1181 C1177 1.408 . S
C1181 C1180 1.404 . S
C1181 H1193 0.930 1_554 S
C1182 C1178 1.524 . S
C1182 H1194 0.956 . S
C1182 H1195 0.961 . S
C1182 H1196 0.961 . S
C1183 C1180 1.539 . S
C1183 H1197 0.958 . S
C1183 H1198 0.961 . S
C1183 H1199 0.960 . S
H1184 C1168 0.931 . S
H1185 C1173 0.929 . S
H1186 C1174 0.960 . S
H1187 C1174 0.962 . S
H1188 C1174 0.960 . S
H1189 C1175 0.961 . S
H1190 C1175 0.961 . S
H1191 C1175 0.961 . S
H1192 C1176 0.931 . S
H1193 C1181 0.930 1_556 S
H1194 C1182 0.956 . S
H1195 C1182 0.961 . S
H1196 C1182 0.961 . S
H1197 C1183 0.958 . S
H1198 C1183 0.961 . S
H1199 C1183 0.960 . S
C433 C2 0.531 . S
C441 C218 0.583 . S
C465 C38 0.541 . S
C473 C254 0.607 . S
C497 C290 0.689 . S
C505 C74 0.634 . S
C529 C110 0.689 . S
C537 C326 0.634 . S
C561 C146 0.538 . S
C569 C362 0.579 . S
C593 C398 0.631 . S
C601 C182 0.588 . S
C625 C292 1.327 . S
C633 C4 1.391 . S
C657 C40 1.378 . S
C665 C328 1.375 . S
C689 C364 1.412 1_556 S
C697 C76 1.356 . S
C721 C400 1.372 . S
C729 C112 1.377 1_554 S
C753 C148 1.412 . S
C761 C220 1.357 . S
C785 C184 1.378 . S
C793 C256 1.364 . S
C817 C410 1.236 . S
C825 C14 1.200 . S
C849 C230 1.208 . S
C857 C50 1.220 . S
C881 C86 1.175 . S
C889 C266 1.217 . S
C913 C302 1.227 . S
C921 C122 1.213 . S
C945 C338 1.187 . S
C953 C158 1.201 . S
C977 C374 1.233 . S
C985 C194 1.197 . S
C1009 C3 1.575 . S
C1017 C363 1.585 . S
C1041 C399 1.597 . S
C1049 C39 1.592 . S
C1073 C75 1.584 . S
C1081 C219 1.586 . S
C1105 C111 1.577 . S
C1113 C255 1.583 . S
C1137 C147 1.575 1_556 S
C1145 C291 1.585 . S
C1169 C183 1.570 . S
C1177 C327 1.582 1_554 S
