# Generated by pormake.
# Topology yfh, (5)-cn, num edge types: 1
# Building blocks:
#     Node 0, Type 0, BuildingBlock: XOMCOT_clean_sbu_1, # of connection points: 5
#     Node 1, Type 0, BuildingBlock: XOMCOT_clean_sbu_1, # of connection points: 5
#     Node 2, Type 0, BuildingBlock: XOMCOT_clean_sbu_1, # of connection points: 5
#     Node 3, Type 0, BuildingBlock: XOMCOT_clean_sbu_1, # of connection points: 5
#     Node 4, Type 0, BuildingBlock: XOMCOT_clean_sbu_1, # of connection points: 5
#     Node 5, Type 0, BuildingBlock: XOMCOT_clean_sbu_1, # of connection points: 5
#     Node 6, Type 0, BuildingBlock: XOMCOT_clean_sbu_1, # of connection points: 5
#     Node 7, Type 0, BuildingBlock: XOMCOT_clean_sbu_1, # of connection points: 5
#     Edge 8, Type (0, 0), BuildingBlock: ZUJKAS_clean_linker_0, # of connection points: 2
#     Edge 9, Type (0, 0), BuildingBlock: ZUJKAS_clean_linker_0, # of connection points: 2
#     Edge 10, Type (0, 0), BuildingBlock: ZUJKAS_clean_linker_0, # of connection points: 2
#     Edge 11, Type (0, 0), BuildingBlock: ZUJKAS_clean_linker_0, # of connection points: 2
#     Edge 12, Type (0, 0), BuildingBlock: ZUJKAS_clean_linker_0, # of connection points: 2
#     Edge 13, Type (0, 0), BuildingBlock: ZUJKAS_clean_linker_0, # of connection points: 2
#     Edge 14, Type (0, 0), BuildingBlock: ZUJKAS_clean_linker_0, # of connection points: 2
#     Edge 15, Type (0, 0), BuildingBlock: ZUJKAS_clean_linker_0, # of connection points: 2
#     Edge 16, Type (0, 0), BuildingBlock: ZUJKAS_clean_linker_0, # of connection points: 2
#     Edge 17, Type (0, 0), BuildingBlock: ZUJKAS_clean_linker_0, # of connection points: 2
#     Edge 18, Type (0, 0), BuildingBlock: ZUJKAS_clean_linker_0, # of connection points: 2
#     Edge 19, Type (0, 0), BuildingBlock: ZUJKAS_clean_linker_0, # of connection points: 2
#     Edge 20, Type (0, 0), BuildingBlock: ZUJKAS_clean_linker_0, # of connection points: 2
#     Edge 21, Type (0, 0), BuildingBlock: ZUJKAS_clean_linker_0, # of connection points: 2
#     Edge 22, Type (0, 0), BuildingBlock: ZUJKAS_clean_linker_0, # of connection points: 2
#     Edge 23, Type (0, 0), BuildingBlock: ZUJKAS_clean_linker_0, # of connection points: 2
#     Edge 24, Type (0, 0), BuildingBlock: ZUJKAS_clean_linker_0, # of connection points: 2
#     Edge 25, Type (0, 0), BuildingBlock: ZUJKAS_clean_linker_0, # of connection points: 2
#     Edge 26, Type (0, 0), BuildingBlock: ZUJKAS_clean_linker_0, # of connection points: 2
#     Edge 27, Type (0, 0), BuildingBlock: ZUJKAS_clean_linker_0, # of connection points: 2
# Relax obj value: 0.371
# Max RMSD: 0.270
# Mean RMSD: 0.270
data_MOF--net-yfh--node1-XOMCOT_clean_sbu_1--edge1-ZUJKAS_clean_linker_0
_symmetry_space_group_name_H-M    P1
_symmetry_Int_Tables_number       1
_symmetry_cell_setting            triclinic
loop_
_symmetry_equiv_pos_as_xyz
'x, y, z'
_cell_length_a     36.143496
_cell_length_b     36.115584
_cell_length_c     72.963766
_cell_angle_alpha  90.25203
_cell_angle_beta   89.821014
_cell_angle_gamma 90.023425
loop_
_atom_site_label
_atom_site_type_symbol
_atom_site_fract_x
_atom_site_fract_y
_atom_site_fract_z
_atom_type_partial_charge
C0 C 0.35298 0.11083 0.09098 0.0
C1 C 0.33777 0.1104 0.07368 0.0
N2 N 0.3081 0.13302 0.07376 0.0
N3 N 0.33327 0.13409 0.1017 0.0
C4 C 0.3059 0.14674 0.09093 0.0
H5 H 0.37718 0.09575 0.09541 0.0
Co6 Co 0.34162 0.14592 0.12601 0.0
C7 C 0.33061 0.2268 0.12807 0.0
O8 O 0.36221 0.22707 0.13696 0.0
N9 N 0.34851 0.15655 0.1513 0.0
C10 C 0.3343 0.17506 0.17969 0.0
C11 C 0.32528 0.17766 0.16154 0.0
C12 C 0.36976 0.13931 0.16395 0.0
N13 N 0.36216 0.15081 0.18119 0.0
O14 O 0.29636 0.12042 0.13201 0.0
H15 H 0.30116 0.19188 0.15644 0.0
H16 H 0.38805 0.11644 0.16092 0.0
O17 O 0.31697 0.19558 0.12277 0.0
C18 C 0.30647 0.0875 0.13605 0.0
O19 O 0.34208 0.08057 0.13712 0.0
N20 N 0.38817 0.16607 0.11905 0.0
C21 C 0.455 0.17406 0.09987 0.0
C22 C 0.42351 0.19419 0.09481 0.0
C23 C 0.39047 0.18956 0.1044 0.0
C24 C 0.41907 0.14785 0.12478 0.0
C25 C 0.45288 0.15201 0.11564 0.0
H26 H 0.36589 0.20184 0.09867 0.0
H27 H 0.41707 0.12697 0.13518 0.0
H28 H 0.28533 0.16653 0.09546 0.0
H29 H 0.34786 0.09487 0.06198 0.0
H30 H 0.31911 0.1871 0.19106 0.0
H31 H 0.42311 0.21063 0.08244 0.0
H32 H 0.47638 0.13587 0.12011 0.0
C33 C 0.40478 0.84961 0.3339 0.0
C34 C 0.4034 0.83753 0.31596 0.0
N35 N 0.37908 0.80928 0.31496 0.0
N36 N 0.38101 0.82939 0.34401 0.0
C37 C 0.3662 0.80479 0.33218 0.0
H38 H 0.42136 0.87217 0.33917 0.0
Co39 Co 0.37025 0.83496 0.36873 0.0
C40 C 0.28959 0.82599 0.37143 0.0
O41 O 0.29046 0.85592 0.38175 0.0
N42 N 0.3603 0.8388 0.39426 0.0
C43 C 0.34303 0.81931 0.42196 0.0
C44 C 0.34079 0.81286 0.40352 0.0
C45 C 0.37601 0.85947 0.4077 0.0
N46 N 0.3654 0.84848 0.42461 0.0
O47 O 0.39365 0.78813 0.37298 0.0
H48 H 0.3278 0.78888 0.39739 0.0
H49 H 0.39722 0.87998 0.40542 0.0
O50 O 0.32006 0.81277 0.36501 0.0
C51 C 0.42637 0.79634 0.3782 0.0
O52 O 0.4346 0.83139 0.38085 0.0
N53 N 0.35207 0.88296 0.36362 0.0
C54 C 0.34785 0.95169 0.34615 0.0
C55 C 0.32451 0.92242 0.34101 0.0
C56 C 0.32734 0.88833 0.34971 0.0
C57 C 0.37352 0.91172 0.36947 0.0
C58 C 0.37127 0.9465 0.36122 0.0
H59 H 0.31278 0.86531 0.34362 0.0
H60 H 0.39564 0.90693 0.37898 0.0
H61 H 0.34542 0.78467 0.336 0.0
H62 H 0.41886 0.84882 0.30455 0.0
H63 H 0.33204 0.8017 0.43265 0.0
H64 H 0.30691 0.92431 0.32907 0.0
H65 H 0.38997 0.96815 0.36568 0.0
C66 C 0.66809 0.9065 0.59172 0.0
C67 C 0.68384 0.90427 0.57455 0.0
N68 N 0.70547 0.87387 0.57387 0.0
N69 N 0.67977 0.87776 0.60187 0.0
C70 C 0.7026 0.85847 0.59066 0.0
H71 H 0.64853 0.9272 0.59633 0.0
Co72 Co 0.66307 0.86692 0.62545 0.0
C73 C 0.71058 0.80485 0.6375 0.0
O74 O 0.71817 0.82199 0.65296 0.0
N75 N 0.64582 0.8558 0.6493 0.0
C76 C 0.62405 0.82499 0.67346 0.0
C77 C 0.62862 0.82442 0.65471 0.0
C78 C 0.65094 0.87503 0.66502 0.0
N79 N 0.63821 0.85696 0.6799 0.0
O80 O 0.70361 0.89545 0.63512 0.0
H81 H 0.62123 0.80176 0.6457 0.0
H82 H 0.6656 0.90094 0.66588 0.0
O83 O 0.69078 0.82088 0.62549 0.0
C84 C 0.69145 0.9286 0.63633 0.0
O85 O 0.65635 0.93468 0.63276 0.0
N86 N 0.62228 0.84346 0.61518 0.0
C87 C 0.56472 0.83047 0.59089 0.0
C88 C 0.59552 0.80682 0.59125 0.0
C89 C 0.62425 0.81388 0.60351 0.0
C90 C 0.59109 0.86446 0.61626 0.0
C91 C 0.56177 0.85833 0.60426 0.0
H92 H 0.64923 0.79772 0.6023 0.0
H93 H 0.59047 0.88828 0.62529 0.0
H94 H 0.71558 0.83268 0.59444 0.0
H95 H 0.67925 0.92339 0.56342 0.0
H96 H 0.612 0.80325 0.68172 0.0
H97 H 0.59862 0.78478 0.58124 0.0
H98 H 0.53869 0.87746 0.60434 0.0
C99 C 0.61792 0.139 0.83912 0.0
C100 C 0.62146 0.15675 0.82255 0.0
N101 N 0.64288 0.18692 0.82501 0.0
N102 N 0.63703 0.15791 0.85194 0.0
C103 C 0.65159 0.18711 0.84298 0.0
H104 H 0.60336 0.11332 0.84157 0.0
Co105 Co 0.64397 0.14399 0.87621 0.0
C106 C 0.70353 0.19526 0.88923 0.0
O107 O 0.68597 0.20275 0.9046 0.0
N108 N 0.65134 0.12986 0.90073 0.0
C109 C 0.67777 0.10982 0.92632 0.0
C110 C 0.6817 0.11335 0.90767 0.0
C111 C 0.62939 0.13603 0.91547 0.0
N112 N 0.64485 0.12432 0.93127 0.0
O113 O 0.61156 0.18399 0.88373 0.0
H114 H 0.70575 0.10524 0.89977 0.0
H115 H 0.60314 0.15016 0.91475 0.0
O116 O 0.68866 0.17396 0.87739 0.0
C117 C 0.57931 0.17012 0.88132 0.0
O118 O 0.57714 0.13489 0.87682 0.0
N119 N 0.67107 0.10324 0.86794 0.0
C120 C 0.69229 0.04276 0.84659 0.0
C121 C 0.71384 0.07515 0.84694 0.0
C122 C 0.70253 0.10535 0.85759 0.0
C123 C 0.65178 0.07096 0.8691 0.0
C124 C 0.66192 0.04029 0.85856 0.0
H125 H 0.71731 0.13112 0.8562 0.0
H126 H 0.62643 0.07012 0.87701 0.0
H127 H 0.66869 0.20795 0.84944 0.0
H128 H 0.61044 0.14727 0.80957 0.0
H129 H 0.69788 0.09775 0.93547 0.0
H130 H 0.73777 0.07811 0.8381 0.0
H131 H 0.64414 0.01616 0.85862 0.0
C132 C 0.8541 0.40927 0.66057 0.0
C133 C 0.84057 0.4083 0.67826 0.0
N134 N 0.81244 0.3838 0.67881 0.0
N135 N 0.83492 0.385 0.6502 0.0
C136 C 0.80951 0.37036 0.66161 0.0
H137 H 0.87688 0.42596 0.65564 0.0
Co138 Co 0.84176 0.37337 0.62566 0.0
C139 C 0.83621 0.29218 0.62375 0.0
O140 O 0.86652 0.29388 0.61376 0.0
N141 N 0.84675 0.36229 0.60029 0.0
C142 C 0.82819 0.34289 0.57276 0.0
C143 C 0.82143 0.34166 0.59118 0.0
C144 C 0.86747 0.37748 0.58674 0.0
N145 N 0.85699 0.36563 0.56992 0.0
O146 O 0.79413 0.39456 0.62086 0.0
H147 H 0.79762 0.32856 0.59738 0.0
H148 H 0.88765 0.39908 0.58884 0.0
O149 O 0.82154 0.32237 0.62972 0.0
C150 C 0.80038 0.42722 0.61494 0.0
O151 O 0.83477 0.4369 0.61158 0.0
N152 N 0.89029 0.35756 0.63134 0.0
C153 C 0.95829 0.35751 0.64964 0.0
C154 C 0.93006 0.33284 0.65462 0.0
C155 C 0.89629 0.33363 0.64552 0.0
C156 C 0.91814 0.38032 0.62566 0.0
C157 C 0.95256 0.38022 0.63435 0.0
H158 H 0.87378 0.31817 0.6515 0.0
H159 H 0.9126 0.40185 0.6159 0.0
H160 H 0.78984 0.34935 0.6575 0.0
H161 H 0.85075 0.4242 0.6898 0.0
H162 H 0.81098 0.3309 0.56216 0.0
H163 H 0.93231 0.31572 0.66671 0.0
H164 H 0.97339 0.39991 0.63002 0.0
C165 C 0.11153 0.36052 0.90839 0.0
C166 C 0.11444 0.34707 0.92598 0.0
N167 N 0.13772 0.31792 0.92565 0.0
N168 N 0.13302 0.33997 0.89716 0.0
C169 C 0.14817 0.31404 0.90801 0.0
H170 H 0.09514 0.38395 0.90407 0.0
Co171 Co 0.13986 0.34582 0.87223 0.0
C172 C 0.21824 0.32581 0.86512 0.0
O173 O 0.2196 0.35448 0.8541 0.0
N174 N 0.14576 0.35051 0.84662 0.0
C175 C 0.15546 0.33167 0.81789 0.0
C176 C 0.15755 0.32206 0.83597 0.0
C177 C 0.13478 0.37652 0.83446 0.0
N178 N 0.14122 0.36588 0.81698 0.0
O179 O 0.11066 0.30181 0.86828 0.0
H180 H 0.16568 0.29518 0.84104 0.0
H181 H 0.12028 0.40164 0.8381 0.0
O182 O 0.1878 0.31808 0.87345 0.0
C183 C 0.07817 0.3133 0.86436 0.0
O184 O 0.07313 0.34911 0.86245 0.0
N185 N 0.16362 0.39128 0.87721 0.0
C186 C 0.17617 0.45692 0.89681 0.0
C187 C 0.2014 0.42746 0.89761 0.0
C188 C 0.19396 0.39452 0.88828 0.0
C189 C 0.14056 0.42079 0.87502 0.0
C190 C 0.14633 0.45387 0.88462 0.0
H191 H 0.2104 0.3708 0.89188 0.0
H192 H 0.11478 0.4172 0.86781 0.0
H193 H 0.16623 0.29233 0.90304 0.0
H194 H 0.10116 0.35838 0.93808 0.0
H195 H 0.1612 0.31388 0.80624 0.0
H196 H 0.22502 0.42845 0.90668 0.0
H197 H 0.12542 0.47523 0.88385 0.0
C198 C 0.14013 0.61748 0.15071 0.0
C199 C 0.15682 0.61879 0.16764 0.0
N200 N 0.1861 0.64182 0.16659 0.0
N201 N 0.15862 0.63985 0.13912 0.0
C202 C 0.18669 0.65392 0.14913 0.0
H203 H 0.11549 0.60206 0.14717 0.0
Co204 Co 0.14544 0.65077 0.11516 0.0
C205 C 0.19693 0.71258 0.10543 0.0
O206 O 0.20689 0.69622 0.09007 0.0
N207 N 0.13195 0.66203 0.09093 0.0
C208 C 0.11567 0.69355 0.06605 0.0
C209 C 0.11942 0.69498 0.08481 0.0
C210 C 0.13485 0.64088 0.07566 0.0
N211 N 0.12541 0.65943 0.06035 0.0
O212 O 0.18666 0.62107 0.10682 0.0
H213 H 0.11451 0.719 0.09338 0.0
H214 H 0.14515 0.61284 0.0755 0.0
O215 O 0.17429 0.69644 0.1162 0.0
C216 C 0.17419 0.58793 0.10604 0.0
O217 O 0.13871 0.58265 0.10912 0.0
N218 N 0.10363 0.67525 0.12407 0.0
C219 C 0.0426 0.6909 0.1462 0.0
C220 C 0.07362 0.7144 0.14614 0.0
C221 C 0.10416 0.70582 0.13514 0.0
C222 C 0.07248 0.65434 0.12252 0.0
C223 C 0.04163 0.66157 0.1335 0.0
H224 H 0.12898 0.72202 0.13676 0.0
H225 H 0.0729 0.62975 0.114 0.0
H226 H 0.20636 0.6739 0.14395 0.0
H227 H 0.14776 0.60437 0.17983 0.0
H228 H 0.10692 0.71597 0.05727 0.0
H229 H 0.07537 0.73781 0.15542 0.0
H230 H 0.01868 0.64233 0.1331 0.0
C231 C 0.90538 0.65981 0.40075 0.0
C232 C 0.90341 0.67602 0.41783 0.0
N233 N 0.8737 0.6986 0.41828 0.0
N234 N 0.87713 0.6721 0.39043 0.0
C235 C 0.85843 0.69579 0.40145 0.0
H236 H 0.92551 0.63952 0.39629 0.0
Co237 Co 0.86587 0.6552 0.36692 0.0
C238 C 0.8039 0.70349 0.35547 0.0
O239 O 0.82109 0.71198 0.34016 0.0
N240 N 0.8543 0.63782 0.34319 0.0
C241 C 0.82221 0.61803 0.319 0.0
C242 C 0.82175 0.62301 0.33773 0.0
C243 C 0.87425 0.64073 0.32756 0.0
N244 N 0.85536 0.62925 0.31268 0.0
O245 O 0.89371 0.69591 0.35705 0.0
H246 H 0.79845 0.61779 0.3467 0.0
H247 H 0.90142 0.65294 0.32674 0.0
O248 O 0.81975 0.68271 0.36713 0.0
C249 C 0.92703 0.68435 0.35581 0.0
O250 O 0.93391 0.64951 0.35965 0.0
N251 N 0.84293 0.61426 0.37729 0.0
C252 C 0.8313 0.55706 0.40195 0.0
C253 C 0.80727 0.58757 0.40156 0.0
C254 C 0.81369 0.61615 0.38915 0.0
C255 C 0.86415 0.58321 0.37619 0.0
C256 C 0.85873 0.55408 0.38839 0.0
H257 H 0.79739 0.64102 0.39038 0.0
H258 H 0.88772 0.58265 0.36702 0.0
H259 H 0.83311 0.70947 0.39752 0.0
H260 H 0.92218 0.6711 0.42908 0.0
H261 H 0.79966 0.60786 0.31066 0.0
H262 H 0.78551 0.59068 0.41169 0.0
H263 H 0.87812 0.53122 0.38829 0.0
H264 H 0.23641 0.15437 0.07488 0.0
H265 H 0.20031 0.17977 0.0496 0.0
H266 H 0.29229 0.16168 0.01284 0.0
H267 H 0.32857 0.13638 0.03807 0.0
H268 H 0.22072 0.24217 0.03038 0.0
H269 H 0.20483 0.12248 0.98325 0.0
H270 H 0.21803 0.11729 0.00696 0.0
H271 H 0.25184 0.13052 0.99007 0.0
C272 C 0.24882 0.1555 0.06137 0.0
C273 C 0.28542 0.14359 0.05848 0.0
C274 C 0.2281 0.16982 0.04694 0.0
C275 C 0.24351 0.17226 0.02934 0.0
C276 C 0.27959 0.15927 0.02625 0.0
H277 H 0.20334 0.28246 0.92854 0.0
H278 H 0.22512 0.24581 0.9543 0.0
C279 C 0.30032 0.14485 0.04068 0.0
C280 C 0.22327 0.19164 0.01464 0.0
H281 H 0.19265 0.1824 0.97068 0.0
C282 C 0.21405 0.229 0.01741 0.0
C283 C 0.21475 0.17432 -0.00223 0.0
C284 C 0.22254 0.13384 0.99436 0.0
C285 C 0.1979 0.25001 0.00346 0.0
C286 C 0.19027 0.23295 0.98642 0.0
C287 C 0.19858 0.19533 0.9838 0.0
C288 C 0.17593 0.25429 0.97074 0.0
C289 C 0.19061 0.29065 0.00678 0.0
C290 C 0.14087 0.27093 0.97142 0.0
C291 C 0.12823 0.2919 0.95664 0.0
C292 C 0.15037 0.29626 0.94091 0.0
C293 C 0.18532 0.27918 0.94028 0.0
C294 C 0.19791 0.25833 0.95503 0.0
H295 H 0.20482 0.30104 0.01927 0.0
H296 H 0.19986 0.30736 0.99488 0.0
H297 H 0.16044 0.29507 0.0086 0.0
H298 H 0.12329 0.26762 0.98335 0.0
H299 H 0.10103 0.30432 0.95742 0.0
H300 H 0.16792 0.64752 0.20256 0.0
H301 H 0.20591 0.67385 0.22706 0.0
H302 H 0.29477 0.69206 0.18859 0.0
H303 H 0.25718 0.6651 0.16405 0.0
H304 H 0.31625 0.66129 0.22405 0.0
H305 H 0.22871 0.78741 0.22943 0.0
H306 H 0.20418 0.74418 0.23071 0.0
H307 H 0.22736 0.75673 0.20983 0.0
C308 C 0.19573 0.65654 0.19936 0.0
C309 C 0.20944 0.65445 0.18132 0.0
C310 C 0.21727 0.67188 0.21333 0.0
C311 C 0.25287 0.68534 0.20953 0.0
C312 C 0.26723 0.68203 0.19173 0.0
H313 H 0.37542 0.83604 0.28037 0.0
H314 H 0.34873 0.80496 0.2536 0.0
C315 C 0.24565 0.66684 0.17773 0.0
C316 C 0.27465 0.70393 0.22402 0.0
H317 H 0.27502 0.77985 0.25202 0.0
C318 C 0.30739 0.68727 0.23015 0.0
C319 C 0.26324 0.73809 0.23169 0.0
C320 C 0.22913 0.75793 0.22502 0.0
C321 C 0.32854 0.70346 0.24418 0.0
C322 C 0.31638 0.73696 0.2523 0.0
C323 C 0.28417 0.75407 0.24581 0.0
C324 C 0.33587 0.75425 0.26796 0.0
C325 C 0.36378 0.68475 0.25014 0.0
C326 C 0.33769 0.73592 0.28483 0.0
C327 C 0.35294 0.75357 0.30011 0.0
C328 C 0.36656 0.78996 0.29882 0.0
C329 C 0.36559 0.80789 0.28176 0.0
C330 C 0.35016 0.79026 0.26649 0.0
H331 H 0.3742 0.66512 0.23955 0.0
H332 H 0.38569 0.70545 0.25313 0.0
H333 H 0.35835 0.66886 0.26285 0.0
H334 H 0.3263 0.70834 0.28633 0.0
H335 H 0.35363 0.7389 0.313 0.0
H336 H 0.88604 0.68498 0.45441 0.0
H337 H 0.85938 0.71783 0.48062 0.0
H338 H 0.80142 0.79085 0.44404 0.0
H339 H 0.82849 0.75873 0.41769 0.0
H340 H 0.86255 0.79673 0.48978 0.0
H341 H 0.71964 0.7452 0.47761 0.0
H342 H 0.75986 0.72366 0.4674 0.0
H343 H 0.74224 0.76622 0.45829 0.0
C344 C 0.86806 0.7083 0.45186 0.0
C345 C 0.8593 0.71896 0.43384 0.0
C346 C 0.85269 0.72694 0.4669 0.0
C347 C 0.82808 0.7564 0.46424 0.0
C348 C 0.81988 0.76773 0.44635 0.0
H349 H 0.6917 0.88766 0.5379 0.0
H350 H 0.72354 0.86127 0.5114 0.0
C351 C 0.83533 0.74922 0.4313 0.0
C352 C 0.81061 0.77499 0.48021 0.0
H353 H 0.72748 0.78882 0.50146 0.0
C354 C 0.83303 0.79502 0.49239 0.0
C355 C 0.77212 0.7727 0.48349 0.0
C356 C 0.74697 0.75058 0.47112 0.0
C357 C 0.81785 0.81335 0.50768 0.0
C358 C 0.77934 0.8108 0.51108 0.0
C359 C 0.75697 0.7908 0.49884 0.0
C360 C 0.76159 0.82833 0.52732 0.0
C361 C 0.84307 0.83592 0.51981 0.0
C362 C 0.77233 0.81859 0.54512 0.0
C363 C 0.75443 0.83401 0.56037 0.0
C364 C 0.72508 0.85919 0.55814 0.0
C365 C 0.71448 0.86889 0.54024 0.0
C366 C 0.7325 0.85358 0.52501 0.0
H367 H 0.86892 0.84387 0.51254 0.0
H368 H 0.8291 0.86146 0.52476 0.0
H369 H 0.85092 0.81918 0.53191 0.0
H370 H 0.79418 0.79857 0.54725 0.0
H371 H 0.76363 0.82606 0.57388 0.0
H372 H 0.74205 0.35846 0.67929 0.0
H373 H 0.70944 0.33087 0.70525 0.0
H374 H 0.8033 0.35313 0.73995 0.0
H375 H 0.83613 0.38073 0.71399 0.0
H376 H 0.73452 0.26929 0.72382 0.0
H377 H 0.71624 0.38793 0.7716 0.0
H378 H 0.72742 0.39391 0.74765 0.0
H379 H 0.76289 0.38142 0.76368 0.0
C380 C 0.75564 0.35774 0.69248 0.0
C381 C 0.79176 0.37157 0.69457 0.0
C382 C 0.73691 0.34215 0.70731 0.0
C383 C 0.75382 0.34023 0.72455 0.0
C384 C 0.78943 0.35503 0.72685 0.0
H385 H 0.70743 0.22531 0.82542 0.0
H386 H 0.73237 0.26414 0.80102 0.0
C387 C 0.80819 0.37077 0.712 0.0
C388 C 0.73547 0.3198 0.7396 0.0
H389 H 0.70357 0.32792 0.78353 0.0
C390 C 0.72743 0.28217 0.73682 0.0
C391 C 0.72652 0.33667 0.75657 0.0
C392 C 0.73338 0.37729 0.76006 0.0
C393 C 0.71134 0.26071 0.75068 0.0
C394 C 0.70244 0.27752 0.76767 0.0
C395 C 0.71034 0.31519 0.77046 0.0
C396 C 0.68587 0.25606 0.78286 0.0
C397 C 0.70501 0.21996 0.7472 0.0
C398 C 0.65106 0.23931 0.78087 0.0
C399 C 0.63665 0.21712 0.79482 0.0
C400 C 0.65666 0.21153 0.81106 0.0
C401 C 0.69104 0.22934 0.8132 0.0
C402 C 0.70545 0.25144 0.79924 0.0
H403 H 0.72124 0.20971 0.73526 0.0
H404 H 0.71254 0.20335 0.75941 0.0
H405 H 0.67527 0.2152 0.74429 0.0
H406 H 0.63521 0.24314 0.76845 0.0
H407 H 0.60987 0.20431 0.79288 0.0
H408 H 0.68291 0.12166 0.96345 0.0
H409 H 0.65783 0.12825 0.99433 0.0
H410 H 0.54892 0.14545 0.972 0.0
H411 H 0.57319 0.13687 0.94115 0.0
H412 H 0.62351 0.18547 0.01101 0.0
H413 H 0.52909 0.06496 0.00864 0.0
H414 H 0.5642 0.07268 0.99145 0.0
H415 H 0.52054 0.09658 0.99026 0.0
C416 C 0.65351 0.12616 0.96501 0.0
C417 C 0.63014 0.12837 0.94963 0.0
C418 C 0.63927 0.13029 0.98275 0.0
C419 C 0.60141 0.13673 0.98551 0.0
C420 C 0.57811 0.13964 0.97024 0.0
H421 H 0.4847 0.22822 0.07777 0.0
H422 H 0.5256 0.21888 0.05154 0.0
C423 C 0.59221 0.13519 0.95252 0.0
C424 C 0.58623 0.14087 0.00433 0.0
H425 H 0.51859 0.1087 0.03277 0.0
C426 C 0.60083 0.16843 0.01588 0.0
C427 C 0.55718 0.11814 0.01082 0.0
C428 C 0.54212 0.08618 -0.00029 0.0
C429 C 0.58621 0.17478 0.03349 0.0
C430 C 0.55559 0.15357 0.03951 0.0
C431 C 0.5419 0.12519 0.02817 0.0
C432 C 0.53602 0.16096 0.05709 0.0
C433 C 0.60391 0.20393 0.04545 0.0
C434 C 0.52841 0.13171 0.06913 0.0
C435 C 0.50409 0.13667 0.08384 0.0
C436 C 0.48695 0.17116 0.08694 0.0
C437 C 0.49686 0.20114 0.07566 0.0
C438 C 0.52077 0.19597 0.06076 0.0
H439 H 0.63354 0.20785 0.04184 0.0
H440 H 0.58965 0.23076 0.04331 0.0
H441 H 0.60191 0.19666 0.06019 0.0
H442 H 0.53981 0.10441 0.06658 0.0
H443 H 0.4969 0.1127 0.09196 0.0
H444 H 0.29452 0.98736 0.32601 0.0
H445 H 0.30499 0.02794 0.29989 0.0
H446 H 0.42141 0.03212 0.31249 0.0
H447 H 0.41186 0.98909 0.3376 0.0
H448 H 0.33115 0.09407 0.2929 0.0
H449 H 0.4256 0.98987 0.26192 0.0
H450 H 0.3992 0.98076 0.28238 0.0
H451 H 0.44133 0.00728 0.28358 0.0
C452 C 0.32239 0.99692 0.32328 0.0
C453 C 0.3524 0.98399 0.3337 0.0
C454 C 0.3283 0.0204 0.3084 0.0
C455 C 0.36423 0.03197 0.30382 0.0
C456 C 0.39365 0.02244 0.31536 0.0
H457 H 0.38488 0.18613 0.21155 0.0
H458 H 0.39198 0.15896 0.24211 0.0
C459 C 0.38792 0.99831 0.33001 0.0
C460 C 0.37091 0.05168 0.28631 0.0
H461 H 0.4171 0.04517 0.2455 0.0
C462 C 0.35009 0.08352 0.28256 0.0
C463 C 0.39516 0.03745 0.2727 0.0
C464 C 0.41632 1.00178 0.27523 0.0
C465 C 0.35218 0.10107 0.26547 0.0
C466 C 0.37703 0.0873 0.25199 0.0
C467 C 0.39844 0.05595 0.2559 0.0
C468 C 0.37895 0.10314 0.23328 0.0
C469 C 0.32629 0.13298 0.26177 0.0
C470 C 0.37225 0.08037 0.21795 0.0
C471 C 0.36956 0.09571 0.20046 0.0
C472 C 0.37312 0.13405 0.19809 0.0
C473 C 0.38199 0.15648 0.2132 0.0
C474 C 0.38553 0.14106 0.23062 0.0
H475 H 0.30251 0.13332 0.27146 0.0
H476 H 0.34151 0.15945 0.26349 0.0
H477 H 0.3153 0.13169 0.24759 0.0
H478 H 0.36731 0.05099 0.21963 0.0
H479 H 0.36222 0.07805 0.189 0.0
H480 H 0.43734 0.86315 0.43165 0.0
H481 H 0.4658 0.86611 0.46206 0.0
H482 H 0.35791 0.85827 0.48721 0.0
H483 H 0.32951 0.85455 0.45679 0.0
H484 H 0.45867 0.91015 0.4933 0.0
H485 H 0.41031 0.76631 0.50615 0.0
H486 H 0.40775 0.78757 0.48387 0.0
H487 H 0.37422 0.79891 0.50126 0.0
C488 C 0.4197 0.86312 0.44367 0.0
C489 C 0.38131 0.85834 0.44196 0.0
C490 C 0.43594 0.86458 0.46102 0.0
C491 C 0.41399 0.86144 0.47685 0.0
C492 C 0.37539 0.85976 0.47515 0.0
H493 H 0.48905 0.83822 0.59075 0.0
H494 H 0.44929 0.8469 0.56382 0.0
C495 C 0.35921 0.85791 0.45783 0.0
C496 C 0.43174 0.85707 0.49496 0.0
H497 H 0.44395 0.79534 0.5298 0.0
C498 C 0.45526 0.88518 0.50134 0.0
C499 C 0.42732 0.82431 0.50538 0.0
C500 C 0.40381 0.79238 0.49879 0.0
C501 C 0.47482 0.88122 0.51779 0.0
C502 C 0.47084 0.84828 0.52798 0.0
C503 C 0.44663 0.8206 0.52191 0.0
C504 C 0.49389 0.84096 0.5442 0.0
C505 C 0.50005 0.912 0.52408 0.0
C506 C 0.53167 0.83368 0.54191 0.0
C507 C 0.55423 0.82845 0.55713 0.0
C508 C 0.53939 0.83045 0.57495 0.0
C509 C 0.5012 0.83659 0.57718 0.0
C510 C 0.47854 0.84158 0.56187 0.0
H511 H 0.49445 0.93832 0.51677 0.0
H512 H 0.49694 0.91679 0.53906 0.0
H513 H 0.52921 0.90396 0.5214 0.0
H514 H 0.54384 0.83282 0.52832 0.0
H515 H 0.58362 0.82449 0.55493 0.0
H516 H 0.68435 0.96695 0.84875 0.0
H517 H 0.68193 0.92295 0.82307 0.0
H518 H 0.70793 0.01112 0.78551 0.0
H519 H 0.7099 0.055 0.81077 0.0
H520 H 0.63239 0.9281 0.79473 0.0
H521 H 0.77457 0.92913 0.76685 0.0
H522 H 0.76375 0.9458 0.78962 0.0
H523 H 0.75748 0.97531 0.77003 0.0
C524 C 0.6902 0.9768 0.83504 0.0
C525 C 0.69748 0.01455 0.83188 0.0
C526 C 0.68891 0.95161 0.82041 0.0
C527 C 0.69526 0.96365 0.80241 0.0
C528 C 0.70396 1.00095 0.79933 0.0
H529 H 0.64312 0.92713 0.69278 0.0
H530 H 0.65753 0.94647 0.72404 0.0
C531 C 0.70517 0.02608 0.81387 0.0
C532 C 0.68873 0.93877 0.78654 0.0
H533 H 0.7258 0.91346 0.74528 0.0
C534 C 0.65309 0.92399 0.78412 0.0
C535 C 0.71578 0.93335 0.77274 0.0
C536 C 0.75514 0.94643 0.77503 0.0
C537 C 0.64309 0.90632 0.76768 0.0
C538 C 0.66941 0.90339 0.75343 0.0
C539 C 0.70562 0.91609 0.75624 0.0
C540 C 0.65893 0.89088 0.73487 0.0
C541 C 0.60393 0.89288 0.76514 0.0
C542 C 0.65453 0.85319 0.73074 0.0
C543 C 0.64654 0.84195 0.71278 0.0
C544 C 0.64295 0.8683 0.69872 0.0
C545 C 0.64636 0.90609 0.70316 0.0
C546 C 0.65444 0.91722 0.72102 0.0
H547 H 0.58651 0.89784 0.77748 0.0
H548 H 0.59119 0.90713 0.75327 0.0
H549 H 0.60406 0.86276 0.76206 0.0
H550 H 0.65804 0.83252 0.7413 0.0
H551 H 0.64445 0.81265 0.70981 0.0
H552 H 0.07004 0.36937 0.80732 0.0
H553 H 0.04703 0.37922 0.77616 0.0
H554 H 0.15757 0.40709 0.7583 0.0
H555 H 0.18062 0.39488 0.78936 0.0
H556 H 0.04388 0.43111 0.75138 0.0
H557 H 0.13787 0.32046 0.72599 0.0
H558 H 0.13276 0.33101 0.75 0.0
H559 H 0.16154 0.35953 0.73564 0.0
C560 C 0.08902 0.37867 0.79679 0.0
C561 C 0.12688 0.38164 0.80053 0.0
C562 C 0.07603 0.38409 0.77899 0.0
C563 C 0.10076 0.39286 0.76473 0.0
C564 C 0.13817 0.39915 0.76892 0.0
H565 H 0.99216 0.42351 0.65831 0.0
H566 H 0.03381 0.43557 0.68379 0.0
C567 C 0.15125 0.39284 0.78664 0.0
C568 C 0.08755 0.39238 0.74546 0.0
H569 H 0.09902 0.3482 0.70432 0.0
C570 C 0.05609 0.41321 0.74103 0.0
C571 C 0.10324 0.36856 0.73203 0.0
C572 C 0.13547 0.34335 0.73615 0.0
C573 C 0.03901 0.4099 0.72385 0.0
C574 C 0.05487 0.38629 0.71037 0.0
C575 C 0.08715 0.36655 0.71457 0.0
C576 C 0.03613 0.37854 0.69267 0.0
C577 C 1.00293 0.43002 0.7208 0.0
C578 C 0.02647 0.34199 0.68809 0.0
C579 C 1.00386 0.33472 0.67302 0.0
C580 C 0.98985 0.36391 0.66239 0.0
C581 C 1.00227 0.40017 0.66608 0.0
C582 C 0.02558 0.40731 0.68094 0.0
H583 H 0.99008 0.43915 0.73391 0.0
H584 H 0.00813 0.45507 0.71243 0.0
H585 H 0.98281 0.41217 0.71343 0.0
H586 H 0.03479 0.31917 0.69674 0.0
H587 H 0.99578 0.30635 0.6703 0.0
H588 H 0.15505 0.53018 0.89323 0.0
H589 H 0.14808 0.57618 0.91785 0.0
H590 H 0.19236 0.4984 0.95662 0.0
H591 H 0.19781 0.452 0.93267 0.0
H592 H 0.1035 0.56042 0.95135 0.0
H593 H 0.2491 0.5983 0.96645 0.0
H594 H 0.23473 0.57966 0.94455 0.0
H595 H 0.24101 0.54945 0.96379 0.0
C596 C 0.16359 0.52291 0.90696 0.0
C597 C 0.17722 0.48722 0.9108 0.0
C598 C 0.15976 0.54933 0.92097 0.0
C599 C 0.17013 0.54075 0.93897 0.0
C600 C 0.18492 0.5058 0.94273 0.0
H601 H 0.1139 0.58954 0.04834 0.0
H602 H 0.1227 0.56605 0.01708 0.0
C603 C 0.18828 0.47932 0.92888 0.0
C604 C 0.16245 0.5665 0.95434 0.0
H605 H 0.20448 0.6108 0.99008 0.0
C606 C 0.12551 0.57215 0.95962 0.0
C607 C 0.19124 0.58172 0.96506 0.0
C608 C 0.23129 0.57731 0.95963 0.0
C609 C 0.11671 0.59083 0.97598 0.0
C610 C 0.14558 0.60408 0.98724 0.0
C611 C 0.18243 0.60037 0.98142 0.0
C612 C 0.13824 0.61911 0.00578 0.0
C613 C 0.07669 0.59527 0.98145 0.0
C614 C 0.14412 0.65669 0.00971 0.0
C615 C 0.1389 0.6702 0.02754 0.0
C616 C 0.12836 0.64618 0.04176 0.0
C617 C 0.12227 0.6086 0.03769 0.0
C618 C 0.12705 0.59522 0.01985 0.0
H619 H 0.05778 0.59068 0.96968 0.0
H620 H 0.06984 0.57476 0.99222 0.0
H621 H 0.07166 0.62334 0.98721 0.0
H622 H 0.15304 0.67544 -0.00098 0.0
H623 H 0.14423 0.69918 0.03032 0.0
H624 H 0.96773 0.67611 0.14439 0.0
H625 H 0.92478 0.66928 0.17021 0.0
H626 H 0.01044 0.70375 0.20753 0.0
H627 H 0.05376 0.70932 0.18217 0.0
H628 H 0.94031 0.61941 0.2003 0.0
H629 H 0.9179 0.76375 0.22409 0.0
H630 H 0.93352 0.75259 0.20116 0.0
H631 H 0.96559 0.75235 0.21994 0.0
C632 C 0.97736 0.68263 0.15806 0.0
C633 C 0.01436 0.69327 0.1611 0.0
C634 C 0.95269 0.67888 0.17277 0.0
C635 C 0.96438 0.68635 0.19072 0.0
C636 C 1.00066 0.69858 0.19373 0.0
H637 H 0.9249 0.62241 0.29954 0.0
H638 H 0.94599 0.63493 0.26825 0.0
C639 C 0.02539 0.70195 0.17912 0.0
C640 C 0.94037 0.67774 0.20661 0.0
H641 H 0.90455 0.71561 0.24577 0.0
C642 C 0.93176 0.6405 0.21006 0.0
C643 C 0.92932 0.70532 0.2193 0.0
C644 C 0.93673 0.74581 0.2159 0.0
C645 C 0.91422 0.62994 0.22642 0.0
C646 C 0.90502 0.65732 0.2395 0.0
C647 C 0.91182 0.69472 0.23566 0.0
C648 C 0.89141 0.64736 0.25792 0.0
C649 C 0.90687 0.58953 0.23003 0.0
C650 C 0.8537 0.64984 0.2623 0.0
C651 C 0.84154 0.64247 0.28016 0.0
C652 C 0.86705 0.63304 0.2939 0.0
C653 C 0.90471 0.62991 0.28928 0.0
C654 C 0.91676 0.63692 0.27144 0.0
H655 H 0.91136 0.57215 0.21761 0.0
H656 H 0.92564 0.57974 0.241 0.0
H657 H 0.87801 0.58565 0.23493 0.0
H658 H 0.83384 0.65802 0.252 0.0
H659 H 0.81245 0.64553 0.28337 0.0
H660 H 0.82564 0.57697 0.43781 0.0
H661 H 0.83529 0.53821 0.46466 0.0
H662 H 0.85071 0.44278 0.4298 0.0
H663 H 0.84068 0.48148 0.40261 0.0
H664 H 0.79842 0.4404 0.46532 0.0
H665 H 0.94358 0.48829 0.47463 0.0
H666 H 0.90939 0.52278 0.46916 0.0
H667 H 0.921 0.48792 0.45254 0.0
C668 C 0.83014 0.54758 0.4358 0.0
C669 C 0.83212 0.53221 0.41807 0.0
C670 C 0.83609 0.52561 0.45115 0.0
C671 C 0.8441 0.48791 0.4491 0.0
C672 C 0.84478 0.47198 0.43155 0.0
H673 H 0.86243 0.32815 0.53812 0.0
H674 H 0.86476 0.35513 0.50738 0.0
C675 C 0.83903 0.49405 0.41609 0.0
C676 C 0.85228 0.46562 0.46547 0.0
H677 H 0.91697 0.45387 0.49892 0.0
C678 C 0.82448 0.44278 0.47257 0.0
C679 C 0.88623 0.46927 0.47484 0.0
C680 C 0.91699 0.4932 0.46743 0.0
C681 C 0.82923 0.42443 0.4893 0.0
C682 C 0.86306 0.42851 0.49888 0.0
C683 C 0.89119 0.45071 0.4915 0.0
C684 C 0.86859 0.41167 0.5171 0.0
C685 C 0.79738 0.40227 0.49699 0.0
C686 C 0.87244 0.43439 0.53264 0.0
C687 C 0.87158 0.41898 0.55019 0.0
C688 C 0.86674 0.38066 0.55236 0.0
C689 C 0.86581 0.3578 0.53674 0.0
C690 C 0.86694 0.37316 0.51924 0.0
H691 H 0.7709 0.40864 0.48998 0.0
H692 H 0.80313 0.37231 0.49512 0.0
H693 H 0.79389 0.40774 0.51188 0.0
H694 H 0.87394 0.46421 0.53124 0.0
H695 H 0.872 0.43724 0.56199 0.0
H696 H 0.18862 0.75215 0.13735 0.0
H697 H 0.20046 0.81802 0.14249 0.0
H698 H 0.24052 0.82829 0.08704 0.0
H699 H 0.22876 0.76229 0.08177 0.0
H700 H 0.28525 0.86359 0.11171 0.0
H701 H 0.13958 0.90501 0.12387 0.0
H702 H 0.15483 0.86825 0.13851 0.0
H703 H 0.15209 0.86065 0.11417 0.0
C704 C 0.19977 0.76839 0.12619 0.0
C705 C 0.2073 0.75187 0.10906 0.0
C706 C 0.20635 0.8062 0.12913 0.0
C707 C 0.22048 0.82848 0.11502 0.0
C708 C 0.22919 0.81183 0.09809 0.0
H709 H 0.25014 0.07062 0.11219 0.0
H710 H 0.22451 0.00817 0.10703 0.0
C711 C 0.22262 0.77399 0.09513 0.0
C712 C 0.22731 0.86883 0.11809 0.0
H713 H 0.18578 0.9501 0.13118 0.0
C714 C 0.26341 0.88247 0.11584 0.0
C715 C 0.19877 0.89376 0.12326 0.0
C716 C 0.15906 0.88133 0.12493 0.0
C717 C 0.27194 0.91989 0.11916 0.0
C718 C 0.24375 0.94444 0.1251 0.0
C719 C 0.20741 0.9312 0.12681 0.0
C720 C 0.25241 0.98351 0.13016 0.0
C721 C 0.31123 0.93292 0.11637 0.0
C722 C 0.2748 0.99075 0.14542 0.0
C723 C 0.28915 0.02617 0.14841 0.0
C724 C 0.28117 0.05529 0.13632 0.0
C725 C 0.2561 0.04891 0.12195 0.0
C726 C 0.2418 0.01316 0.11888 0.0
H727 H 0.32754 0.91311 0.1079 0.0
H728 H 0.31178 0.96045 0.10965 0.0
H729 H 0.32494 0.93566 0.12989 0.0
H730 H 0.28303 0.96842 0.1544 0.0
H731 H 0.30865 0.03022 0.15949 0.0
H732 H 0.76214 0.69769 0.3867 0.0
H733 H 0.69527 0.70529 0.38985 0.0
H734 H 0.68796 0.73597 0.33294 0.0
H735 H 0.75502 0.72858 0.32967 0.0
H736 H 0.64676 0.78114 0.35522 0.0
H737 H 0.61612 0.63439 0.37118 0.0
H738 H 0.64988 0.65462 0.38618 0.0
H739 H 0.66026 0.64926 0.36218 0.0
C740 C 0.74637 0.706 0.37482 0.0
C741 C 0.76398 0.71213 0.35787 0.0
C742 C 0.70804 0.71009 0.37662 0.0
C743 C 0.68639 0.72017 0.36151 0.0
C744 C 0.70402 0.7277 0.34474 0.0
H745 H 0.44545 0.74629 0.35155 0.0
H746 H 0.50814 0.72113 0.34694 0.0
C747 C 0.74243 0.72368 0.34292 0.0
C748 C 0.64552 0.72393 0.36335 0.0
H749 H 0.567 0.67777 0.37643 0.0
C750 C 0.62933 0.7584 0.35965 0.0
C751 C 0.62262 0.69415 0.369 0.0
C752 C 0.638 0.65591 0.37219 0.0
C753 C 0.59122 0.76425 0.36208 0.0
C754 C 0.56866 0.73497 0.36843 0.0
C755 C 0.58446 0.70017 0.37163 0.0
C756 C 0.52911 0.7414 0.37285 0.0
C757 C 0.57526 0.80203 0.35825 0.0
C758 C 0.51985 0.75934 0.38929 0.0
C759 C 0.48431 0.77353 0.39193 0.0
C760 C 0.45729 0.76976 0.37824 0.0
C761 C 0.46551 0.74876 0.36249 0.0
C762 C 0.50137 0.73474 0.35978 0.0
H763 H 0.59548 0.8205 0.35132 0.0
H764 H 0.55025 0.79948 0.34953 0.0
H765 H 0.56671 0.81523 0.37136 0.0
H766 H 0.54089 0.7648 0.3995 0.0
H767 H 0.47878 0.79007 0.40407 0.0
H768 H 0.67293 0.98136 0.66083 0.0
H769 H 0.70069 0.04281 0.66385 0.0
H770 H 0.7874 0.01093 0.62625 0.0
H771 H 0.75988 0.94873 0.6235 0.0
H772 H 0.81052 0.05991 0.65586 0.0
H773 H 0.68591 0.11153 0.61954 0.0
H774 H 0.67652 0.0862 0.64017 0.0
H775 H 0.69715 0.06294 0.62085 0.0
C776 C 0.69861 0.9871 0.65368 0.0
C777 C 0.71433 0.96045 0.64192 0.0
C778 C 0.71424 0.02229 0.65529 0.0
C779 C 0.7455 0.03175 0.6449 0.0
C780 C 0.76309 1.00423 0.6343 0.0
H781 H 0.86182 0.22571 0.61175 0.0
H782 H 0.83945 0.16424 0.61919 0.0
C783 C 0.7476 0.96866 0.63284 0.0
C784 C 0.75747 0.07105 0.64379 0.0
H785 H 0.72924 0.15628 0.62913 0.0
C786 C 0.79275 0.081 0.65007 0.0
C787 C 0.73414 0.09862 0.6363 0.0
C788 C 0.69644 0.08938 0.62868 0.0
C789 C 0.80536 0.11779 0.649 0.0
C790 C 0.78231 0.14518 0.64116 0.0
C791 C 0.74675 0.13535 0.63526 0.0
C792 C 0.79588 0.18322 0.63728 0.0
C793 C 0.84327 0.12703 0.6563 0.0
C794 C 0.77803 0.21471 0.64452 0.0
C795 C 0.79071 0.25043 0.64017 0.0
C796 C 0.82119 0.25509 0.62837 0.0
C797 C 0.83845 0.22337 0.621 0.0
C798 C 0.82589 0.18799 0.62535 0.0
H799 H 0.85222 0.10678 0.66682 0.0
H800 H 0.86359 0.12603 0.64488 0.0
H801 H 0.84391 0.15524 0.66241 0.0
H802 H 0.75446 0.21162 0.65359 0.0
H803 H 0.77681 0.27424 0.64607 0.0
H804 H 0.56314 0.23406 0.90126 0.0
H805 H 0.50176 0.26383 0.9043 0.0
H806 H 0.45623 0.18415 0.86639 0.0
H807 H 0.51609 0.15446 0.86362 0.0
H808 H 0.45444 0.29591 0.87946 0.0
H809 H 0.38573 0.1736 0.90892 0.0
H810 H 0.43545 0.1775 0.90745 0.0
H811 H 0.40907 0.16121 0.88809 0.0
C812 C 0.53995 0.22316 0.89358 0.0
C813 C 0.54435 0.19157 0.88245 0.0
C814 C 0.50491 0.24 0.89537 0.0
C815 C 0.474 0.22542 0.88604 0.0
C816 C 0.47912 0.19509 0.87429 0.0
H817 H 0.27817 0.31884 0.84308 0.0
H818 H 0.33949 0.29603 0.85099 0.0
C819 C 0.51361 0.17827 0.87263 0.0
C820 C 0.43627 0.2418 0.88784 0.0
H821 H 0.34558 0.21659 0.89291 0.0
C822 C 0.4307 0.27879 0.88276 0.0
C823 C 0.40514 0.21988 0.89259 0.0
C824 C 0.40921 0.18098 0.89977 0.0
C825 C 0.39483 0.29351 0.88098 0.0
C826 C 0.36363 0.27031 0.88382 0.0
C827 C 0.3693 0.23422 0.89028 0.0
C828 C 0.32532 0.28217 0.87898 0.0
C829 C 0.39086 0.33373 0.87585 0.0
C830 C 0.29594 0.27969 0.89165 0.0
C831 C 0.26029 0.29196 0.88696 0.0
C832 C 0.25353 0.30697 0.86954 0.0
C833 C 0.28257 0.3078 0.85669 0.0
C834 C 0.31785 0.2952 0.86128 0.0
H835 H 0.41482 0.35023 0.8808 0.0
H836 H 0.39011 0.33614 0.8607 0.0
H837 H 0.36509 0.34591 0.88159 0.0
H838 H 0.30079 0.26922 0.90532 0.0
H839 H 0.23853 0.29121 0.89719 0.0
H840 H 0.7867 0.47733 0.5886 0.0
H841 H 0.76086 0.53919 0.59356 0.0
H842 H 0.73041 0.50913 0.64868 0.0
H843 H 0.75585 0.44671 0.64363 0.0
H844 H 0.68325 0.56878 0.61405 0.0
H845 H 0.82162 0.59372 0.64545 0.0
H846 H 0.81547 0.55894 0.62787 0.0
H847 H 0.79667 0.55159 0.6503 0.0
C848 C 0.77272 0.4833 0.60144 0.0
C849 C 0.77275 0.45715 0.61564 0.0
C850 C 0.75823 0.51872 0.60431 0.0
C851 C 0.74399 0.52875 0.62151 0.0
C852 C 0.74111 0.50177 0.63526 0.0
H853 H 0.73065 0.75538 0.66405 0.0
H854 H 0.73666 0.68812 0.66099 0.0
C855 C 0.75524 0.46602 0.63231 0.0
C856 C 0.7378 0.56848 0.6257 0.0
H857 H 0.78284 0.64513 0.64179 0.0
C858 C 0.70478 0.5855 0.62028 0.0
C859 C 0.76599 0.59012 0.63383 0.0
C860 C 0.80207 0.57295 0.63973 0.0
C861 C 0.69934 0.62384 0.62266 0.0
C862 C 0.72816 0.64582 0.63017 0.0
C863 C 0.76083 0.62845 0.63596 0.0
C864 C 0.72532 0.68688 0.63188 0.0
C865 C 0.66258 0.64028 0.6173 0.0
C866 C 0.71821 0.70885 0.61645 0.0
C867 C 0.7147 0.7473 0.61816 0.0
C868 C 0.71874 0.76476 0.63532 0.0
C869 C 0.72748 0.7429 0.65062 0.0
C870 C 0.73071 0.70438 0.64891 0.0
H871 H 0.64029 0.61908 0.61739 0.0
H872 H 0.65453 0.66322 0.62667 0.0
H873 H 0.66465 0.65141 0.60319 0.0
H874 H 0.71521 0.69625 0.60304 0.0
H875 H 0.70846 0.76331 0.60605 0.0
H876 H 0.74482 0.19278 0.85769 0.0
H877 H 0.8106 0.20656 0.85399 0.0
H878 H 0.81716 0.23779 0.91098 0.0
H879 H 0.75118 0.22416 0.91481 0.0
H880 H 0.85292 0.28683 0.88879 0.0
H881 H 0.89746 0.14419 0.87129 0.0
H882 H 0.86127 0.16108 0.85676 0.0
H883 H 0.8524 0.15441 0.8808 0.0
C884 C 0.76022 0.20243 0.86949 0.0
C885 C 0.74269 0.20694 0.88662 0.0
C886 C 0.79797 0.21009 0.86736 0.0
C887 C 0.81919 0.22226 0.88232 0.0
C888 C 0.80152 0.228 0.89928 0.0
H889 H 0.06147 0.25392 0.88653 0.0
H890 H 0.99924 0.22741 0.89122 0.0
C891 C 0.7637 0.22038 0.90143 0.0
C892 C 0.85948 0.23018 0.88009 0.0
H893 H 0.94178 0.19233 0.86603 0.0
C894 C 0.87234 0.26604 0.88396 0.0
C895 C 0.88508 0.20296 0.87403 0.0
C896 C 0.87349 0.1634 0.87065 0.0
C897 C 0.90962 0.27575 0.88132 0.0
C898 C 0.93482 0.24907 0.8744 0.0
C899 C 0.92238 0.21284 0.87115 0.0
C900 C 0.97357 0.25936 0.8697 0.0
C901 C 0.92178 0.31472 0.88582 0.0
C902 C 0.98008 0.2845 0.85547 0.0
C903 C 0.0153 0.29942 0.85277 0.0
C904 C 0.04496 0.2893 0.86412 0.0
C905 C 0.03925 0.2618 0.87742 0.0
C906 C 1.00367 0.24692 0.8802 0.0
H907 H 0.90176 0.32898 0.89503 0.0
H908 H 0.9494 0.31477 0.89244 0.0
H909 H 0.92387 0.33089 0.87295 0.0
H910 H 0.95742 0.29408 0.84704 0.0
H911 H 0.01888 0.32055 0.84242 0.0
H912 H 0.15526 0.52658 0.08707 0.0
H913 H 0.18511 0.46599 0.08807 0.0
H914 H 0.27464 0.51262 0.11955 0.0
H915 H 0.24453 0.5738 0.1186 0.0
H916 H 0.25631 0.43638 0.07872 0.0
H917 H 0.227 0.43358 0.15355 0.0
H918 H 0.20645 0.46722 0.13847 0.0
H919 H 0.25365 0.47244 0.14566 0.0
C920 C 0.18184 0.52417 0.09379 0.0
C921 C 0.19756 0.55488 0.1028 0.0
C922 C 0.19884 0.48947 0.09437 0.0
C923 C 0.23174 0.48454 0.10416 0.0
C924 C 0.24897 0.51571 0.1121 0.0
H925 H 0.3511 0.29391 0.14136 0.0
H926 H 0.32595 0.3544 0.13442 0.0
C927 C 0.23203 0.55073 0.11137 0.0
C928 C 0.24573 0.44631 0.10736 0.0
H929 H 0.25766 0.38186 0.14098 0.0
C930 C 0.25675 0.42443 0.09233 0.0
C931 C 0.24563 0.43051 0.12508 0.0
C932 C 0.23228 0.45192 0.14164 0.0
C933 C 0.26873 0.38759 0.09462 0.0
C934 C 0.26892 0.37193 0.11239 0.0
C935 C 0.25745 0.39375 0.12735 0.0
C936 C 0.28356 0.33407 0.11611 0.0
C937 C 0.28205 0.36612 0.0781 0.0
C938 C 0.26788 0.30194 0.10831 0.0
C939 C 0.28244 0.26669 0.11227 0.0
C940 C 0.31281 0.26308 0.12415 0.0
C941 C 0.32783 0.29537 0.13208 0.0
C942 C 0.31343 0.33022 0.12814 0.0
H943 H 0.28779 0.38451 0.06626 0.0
H944 H 0.30758 0.35038 0.08134 0.0
H945 H 0.26042 0.34599 0.07394 0.0
H946 H 0.24432 0.30408 0.09925 0.0
H947 H 0.27022 0.24244 0.10592 0.0
H948 H 0.22358 0.84349 0.38691 0.0
H949 H 0.16238 0.82124 0.37872 0.0
H950 H 0.21011 0.75085 0.33703 0.0
H951 H 0.27232 0.77305 0.3453 0.0
H952 H 0.12628 0.82627 0.34474 0.0
H953 H 0.1442 0.6802 0.36711 0.0
H954 H 0.17571 0.71651 0.37388 0.0
H955 H 0.17782 0.69761 0.35111 0.0
C956 C 0.22133 0.82314 0.37602 0.0
C957 C 0.25298 0.80999 0.36678 0.0
C958 C 0.18616 0.81055 0.37133 0.0
C959 C 0.18159 0.78437 0.35731 0.0
C960 C 0.21305 0.77081 0.34805 0.0
H961 H 0.97875 0.66729 0.33058 0.0
H962 H 0.03981 0.69559 0.32734 0.0
C963 C 0.24855 0.78345 0.35279 0.0
C964 C 0.14363 0.77162 0.35273 0.0
H965 H 0.08605 0.69702 0.35568 0.0
C966 C 0.1175 0.79791 0.34695 0.0
C967 C 0.13222 0.73469 0.35566 0.0
C968 C 0.15876 0.70555 0.3624 0.0
C969 C 0.08018 0.78834 0.34423 0.0
C970 C 0.06855 0.75165 0.3477 0.0
C971 C 0.09493 0.72517 0.353 0.0
C972 C 0.0291 0.73994 0.34666 0.0
C973 C 0.05365 0.8176 0.33766 0.0
C974 C 1.00201 0.75645 0.35796 0.0
C975 C 0.96667 0.74061 0.35955 0.0
C976 C 0.95829 0.7078 0.35007 0.0
C977 C 0.98454 0.6928 0.33791 0.0
C978 C 0.0195 0.7088 0.33615 0.0
H979 H 0.06836 0.84006 0.33024 0.0
H980 H 0.03232 0.80559 0.32846 0.0
H981 H 0.03946 0.83021 0.34966 0.0
H982 H 0.00891 0.78001 0.36652 0.0
H983 H 0.94716 0.75213 0.36933 0.0
loop_
_geom_bond_atom_site_label_1
_geom_bond_atom_site_label_2
_geom_bond_distance
_geom_bond_site_symmetry_2
_ccdc_geom_bond_type
C0 C1 1.351 . S
C0 N3 1.368 . S
C0 H5 0.931 . S
C1 C0 1.351 . S
C1 N2 1.373 . S
C1 H29 0.930 . S
N2 C1 1.373 . S
N2 C4 1.340 . S
N3 C0 1.368 . S
N3 C4 1.321 . S
N3 Co6 2.135 . S
C4 N2 1.340 . S
C4 N3 1.321 . S
C4 H28 0.930 . S
H5 C0 0.931 . S
Co6 N3 2.135 . S
Co6 N9 2.121 . S
Co6 O14 2.055 . S
Co6 O17 2.039 . S
Co6 N20 2.140 . S
C7 O8 1.227 . S
C7 O17 1.265 . S
O8 C7 1.227 . S
N9 Co6 2.121 . S
N9 C11 1.375 . S
N9 C12 1.313 . S
C10 C11 1.338 . S
C10 N13 1.377 . S
C10 H30 0.930 . S
C11 N9 1.375 . S
C11 C10 1.338 . S
C11 H15 0.931 . S
C12 N9 1.313 . S
C12 N13 1.344 . S
C12 H16 0.930 . S
N13 C10 1.377 . S
N13 C12 1.344 . S
O14 Co6 2.055 . S
O14 C18 1.253 . S
H15 C11 0.931 . S
H16 C12 0.930 . S
O17 Co6 2.039 . S
O17 C7 1.265 . S
C18 O14 1.253 . S
C18 O19 1.227 . S
O19 C18 1.227 . S
N20 Co6 2.140 . S
N20 C23 1.346 . S
N20 C24 1.345 . S
C21 C22 1.387 . S
C21 C25 1.391 . S
C22 C21 1.387 . S
C22 C23 1.369 . S
C22 H31 0.929 . S
C23 N20 1.346 . S
C23 C22 1.369 . S
C23 H26 0.928 . S
C24 N20 1.345 . S
C24 C25 1.371 . S
C24 H27 0.931 . S
C25 C21 1.391 . S
C25 C24 1.371 . S
C25 H32 0.930 . S
H26 C23 0.928 . S
H27 C24 0.931 . S
H28 C4 0.930 . S
H29 C1 0.930 . S
H30 C10 0.930 . S
H31 C22 0.929 . S
H32 C25 0.930 . S
C33 C34 1.351 . S
C33 N36 1.368 . S
C33 H38 0.931 . S
C34 C33 1.351 . S
C34 N35 1.373 . S
C34 H62 0.930 . S
N35 C34 1.373 . S
N35 C37 1.340 . S
N36 C33 1.368 . S
N36 C37 1.321 . S
N36 Co39 2.135 . S
C37 N35 1.340 . S
C37 N36 1.321 . S
C37 H61 0.930 . S
H38 C33 0.931 . S
Co39 N36 2.135 . S
Co39 N42 2.121 . S
Co39 O47 2.055 . S
Co39 O50 2.039 . S
Co39 N53 2.140 . S
C40 O41 1.227 . S
C40 O50 1.265 . S
O41 C40 1.227 . S
N42 Co39 2.121 . S
N42 C44 1.375 . S
N42 C45 1.313 . S
C43 C44 1.338 . S
C43 N46 1.377 . S
C43 H63 0.930 . S
C44 N42 1.375 . S
C44 C43 1.338 . S
C44 H48 0.931 . S
C45 N42 1.313 . S
C45 N46 1.344 . S
C45 H49 0.930 . S
N46 C43 1.377 . S
N46 C45 1.344 . S
O47 Co39 2.055 . S
O47 C51 1.253 . S
H48 C44 0.931 . S
H49 C45 0.930 . S
O50 Co39 2.039 . S
O50 C40 1.265 . S
C51 O47 1.253 . S
C51 O52 1.227 . S
O52 C51 1.227 . S
N53 Co39 2.140 . S
N53 C56 1.346 . S
N53 C57 1.345 . S
C54 C55 1.387 . S
C54 C58 1.391 . S
C55 C54 1.387 . S
C55 C56 1.369 . S
C55 H64 0.929 . S
C56 N53 1.346 . S
C56 C55 1.369 . S
C56 H59 0.928 . S
C57 N53 1.345 . S
C57 C58 1.371 . S
C57 H60 0.931 . S
C58 C54 1.391 . S
C58 C57 1.371 . S
C58 H65 0.930 . S
H59 C56 0.928 . S
H60 C57 0.931 . S
H61 C37 0.930 . S
H62 C34 0.930 . S
H63 C43 0.930 . S
H64 C55 0.929 . S
H65 C58 0.930 . S
C66 C67 1.351 . S
C66 N69 1.368 . S
C66 H71 0.931 . S
C67 C66 1.351 . S
C67 N68 1.373 . S
C67 H95 0.930 . S
N68 C67 1.373 . S
N68 C70 1.340 . S
N69 C66 1.368 . S
N69 C70 1.321 . S
N69 Co72 2.135 . S
C70 N68 1.340 . S
C70 N69 1.321 . S
C70 H94 0.930 . S
H71 C66 0.931 . S
Co72 N69 2.135 . S
Co72 N75 2.121 . S
Co72 O80 2.055 . S
Co72 O83 2.039 . S
Co72 N86 2.140 . S
C73 O74 1.227 . S
C73 O83 1.265 . S
O74 C73 1.227 . S
N75 Co72 2.121 . S
N75 C77 1.375 . S
N75 C78 1.313 . S
C76 C77 1.338 . S
C76 N79 1.377 . S
C76 H96 0.930 . S
C77 N75 1.375 . S
C77 C76 1.338 . S
C77 H81 0.931 . S
C78 N75 1.313 . S
C78 N79 1.344 . S
C78 H82 0.930 . S
N79 C76 1.377 . S
N79 C78 1.344 . S
O80 Co72 2.055 . S
O80 C84 1.253 . S
H81 C77 0.931 . S
H82 C78 0.930 . S
O83 Co72 2.039 . S
O83 C73 1.265 . S
C84 O80 1.253 . S
C84 O85 1.227 . S
O85 C84 1.227 . S
N86 Co72 2.140 . S
N86 C89 1.346 . S
N86 C90 1.345 . S
C87 C88 1.387 . S
C87 C91 1.391 . S
C88 C87 1.387 . S
C88 C89 1.369 . S
C88 H97 0.929 . S
C89 N86 1.346 . S
C89 C88 1.369 . S
C89 H92 0.928 . S
C90 N86 1.345 . S
C90 C91 1.371 . S
C90 H93 0.931 . S
C91 C87 1.391 . S
C91 C90 1.371 . S
C91 H98 0.930 . S
H92 C89 0.928 . S
H93 C90 0.931 . S
H94 C70 0.930 . S
H95 C67 0.930 . S
H96 C76 0.930 . S
H97 C88 0.929 . S
H98 C91 0.930 . S
C99 C100 1.351 . S
C99 N102 1.368 . S
C99 H104 0.931 . S
C100 C99 1.351 . S
C100 N101 1.373 . S
C100 H128 0.930 . S
N101 C100 1.373 . S
N101 C103 1.340 . S
N102 C99 1.368 . S
N102 C103 1.321 . S
N102 Co105 2.135 . S
C103 N101 1.340 . S
C103 N102 1.321 . S
C103 H127 0.930 . S
H104 C99 0.931 . S
Co105 N102 2.135 . S
Co105 N108 2.121 . S
Co105 O113 2.055 . S
Co105 O116 2.039 . S
Co105 N119 2.140 . S
C106 O107 1.227 . S
C106 O116 1.265 . S
O107 C106 1.227 . S
N108 Co105 2.121 . S
N108 C110 1.375 . S
N108 C111 1.313 . S
C109 C110 1.338 . S
C109 N112 1.377 . S
C109 H129 0.930 . S
C110 N108 1.375 . S
C110 C109 1.338 . S
C110 H114 0.931 . S
C111 N108 1.313 . S
C111 N112 1.344 . S
C111 H115 0.930 . S
N112 C109 1.377 . S
N112 C111 1.344 . S
O113 Co105 2.055 . S
O113 C117 1.253 . S
H114 C110 0.931 . S
H115 C111 0.930 . S
O116 Co105 2.039 . S
O116 C106 1.265 . S
C117 O113 1.253 . S
C117 O118 1.227 . S
O118 C117 1.227 . S
N119 Co105 2.140 . S
N119 C122 1.346 . S
N119 C123 1.345 . S
C120 C121 1.387 . S
C120 C124 1.391 . S
C121 C120 1.387 . S
C121 C122 1.369 . S
C121 H130 0.929 . S
C122 N119 1.346 . S
C122 C121 1.369 . S
C122 H125 0.928 . S
C123 N119 1.345 . S
C123 C124 1.371 . S
C123 H126 0.931 . S
C124 C120 1.391 . S
C124 C123 1.371 . S
C124 H131 0.930 . S
H125 C122 0.928 . S
H126 C123 0.931 . S
H127 C103 0.930 . S
H128 C100 0.930 . S
H129 C109 0.930 . S
H130 C121 0.929 . S
H131 C124 0.930 . S
C132 C133 1.351 . S
C132 N135 1.368 . S
C132 H137 0.931 . S
C133 C132 1.351 . S
C133 N134 1.373 . S
C133 H161 0.930 . S
N134 C133 1.373 . S
N134 C136 1.340 . S
N135 C132 1.368 . S
N135 C136 1.321 . S
N135 Co138 2.135 . S
C136 N134 1.340 . S
C136 N135 1.321 . S
C136 H160 0.930 . S
H137 C132 0.931 . S
Co138 N135 2.135 . S
Co138 N141 2.121 . S
Co138 O146 2.055 . S
Co138 O149 2.039 . S
Co138 N152 2.140 . S
C139 O140 1.227 . S
C139 O149 1.265 . S
O140 C139 1.227 . S
N141 Co138 2.121 . S
N141 C143 1.375 . S
N141 C144 1.313 . S
C142 C143 1.338 . S
C142 N145 1.377 . S
C142 H162 0.930 . S
C143 N141 1.375 . S
C143 C142 1.338 . S
C143 H147 0.931 . S
C144 N141 1.313 . S
C144 N145 1.344 . S
C144 H148 0.930 . S
N145 C142 1.377 . S
N145 C144 1.344 . S
O146 Co138 2.055 . S
O146 C150 1.253 . S
H147 C143 0.931 . S
H148 C144 0.930 . S
O149 Co138 2.039 . S
O149 C139 1.265 . S
C150 O146 1.253 . S
C150 O151 1.227 . S
O151 C150 1.227 . S
N152 Co138 2.140 . S
N152 C155 1.346 . S
N152 C156 1.345 . S
C153 C154 1.387 . S
C153 C157 1.391 . S
C154 C153 1.387 . S
C154 C155 1.369 . S
C154 H163 0.929 . S
C155 N152 1.346 . S
C155 C154 1.369 . S
C155 H158 0.928 . S
C156 N152 1.345 . S
C156 C157 1.371 . S
C156 H159 0.931 . S
C157 C153 1.391 . S
C157 C156 1.371 . S
C157 H164 0.930 . S
H158 C155 0.928 . S
H159 C156 0.931 . S
H160 C136 0.930 . S
H161 C133 0.930 . S
H162 C142 0.930 . S
H163 C154 0.929 . S
H164 C157 0.930 . S
C165 C166 1.351 . S
C165 N168 1.368 . S
C165 H170 0.931 . S
C166 C165 1.351 . S
C166 N167 1.373 . S
C166 H194 0.930 . S
N167 C166 1.373 . S
N167 C169 1.340 . S
N168 C165 1.368 . S
N168 C169 1.321 . S
N168 Co171 2.135 . S
C169 N167 1.340 . S
C169 N168 1.321 . S
C169 H193 0.930 . S
H170 C165 0.931 . S
Co171 N168 2.135 . S
Co171 N174 2.121 . S
Co171 O179 2.055 . S
Co171 O182 2.039 . S
Co171 N185 2.140 . S
C172 O173 1.227 . S
C172 O182 1.265 . S
O173 C172 1.227 . S
N174 Co171 2.121 . S
N174 C176 1.375 . S
N174 C177 1.313 . S
C175 C176 1.338 . S
C175 N178 1.377 . S
C175 H195 0.930 . S
C176 N174 1.375 . S
C176 C175 1.338 . S
C176 H180 0.931 . S
C177 N174 1.313 . S
C177 N178 1.344 . S
C177 H181 0.930 . S
N178 C175 1.377 . S
N178 C177 1.344 . S
O179 Co171 2.055 . S
O179 C183 1.253 . S
H180 C176 0.931 . S
H181 C177 0.930 . S
O182 Co171 2.039 . S
O182 C172 1.265 . S
C183 O179 1.253 . S
C183 O184 1.227 . S
O184 C183 1.227 . S
N185 Co171 2.140 . S
N185 C188 1.346 . S
N185 C189 1.345 . S
C186 C187 1.387 . S
C186 C190 1.391 . S
C187 C186 1.387 . S
C187 C188 1.369 . S
C187 H196 0.929 . S
C188 N185 1.346 . S
C188 C187 1.369 . S
C188 H191 0.928 . S
C189 N185 1.345 . S
C189 C190 1.371 . S
C189 H192 0.931 . S
C190 C186 1.391 . S
C190 C189 1.371 . S
C190 H197 0.930 . S
H191 C188 0.928 . S
H192 C189 0.931 . S
H193 C169 0.930 . S
H194 C166 0.930 . S
H195 C175 0.930 . S
H196 C187 0.929 . S
H197 C190 0.930 . S
C198 C199 1.351 . S
C198 N201 1.368 . S
C198 H203 0.931 . S
C199 C198 1.351 . S
C199 N200 1.373 . S
C199 H227 0.930 . S
N200 C199 1.373 . S
N200 C202 1.340 . S
N201 C198 1.368 . S
N201 C202 1.321 . S
N201 Co204 2.135 . S
C202 N200 1.340 . S
C202 N201 1.321 . S
C202 H226 0.930 . S
H203 C198 0.931 . S
Co204 N201 2.135 . S
Co204 N207 2.121 . S
Co204 O212 2.055 . S
Co204 O215 2.039 . S
Co204 N218 2.140 . S
C205 O206 1.227 . S
C205 O215 1.265 . S
O206 C205 1.227 . S
N207 Co204 2.121 . S
N207 C209 1.375 . S
N207 C210 1.313 . S
C208 C209 1.338 . S
C208 N211 1.377 . S
C208 H228 0.930 . S
C209 N207 1.375 . S
C209 C208 1.338 . S
C209 H213 0.931 . S
C210 N207 1.313 . S
C210 N211 1.344 . S
C210 H214 0.930 . S
N211 C208 1.377 . S
N211 C210 1.344 . S
O212 Co204 2.055 . S
O212 C216 1.253 . S
H213 C209 0.931 . S
H214 C210 0.930 . S
O215 Co204 2.039 . S
O215 C205 1.265 . S
C216 O212 1.253 . S
C216 O217 1.227 . S
O217 C216 1.227 . S
N218 Co204 2.140 . S
N218 C221 1.346 . S
N218 C222 1.345 . S
C219 C220 1.387 . S
C219 C223 1.391 . S
C220 C219 1.387 . S
C220 C221 1.369 . S
C220 H229 0.929 . S
C221 N218 1.346 . S
C221 C220 1.369 . S
C221 H224 0.928 . S
C222 N218 1.345 . S
C222 C223 1.371 . S
C222 H225 0.931 . S
C223 C219 1.391 . S
C223 C222 1.371 . S
C223 H230 0.930 . S
H224 C221 0.928 . S
H225 C222 0.931 . S
H226 C202 0.930 . S
H227 C199 0.930 . S
H228 C208 0.930 . S
H229 C220 0.929 . S
H230 C223 0.930 . S
C231 C232 1.351 . S
C231 N234 1.368 . S
C231 H236 0.931 . S
C232 C231 1.351 . S
C232 N233 1.373 . S
C232 H260 0.930 . S
N233 C232 1.373 . S
N233 C235 1.340 . S
N234 C231 1.368 . S
N234 C235 1.321 . S
N234 Co237 2.135 . S
C235 N233 1.340 . S
C235 N234 1.321 . S
C235 H259 0.930 . S
H236 C231 0.931 . S
Co237 N234 2.135 . S
Co237 N240 2.121 . S
Co237 O245 2.055 . S
Co237 O248 2.039 . S
Co237 N251 2.140 . S
C238 O239 1.227 . S
C238 O248 1.265 . S
O239 C238 1.227 . S
N240 Co237 2.121 . S
N240 C242 1.375 . S
N240 C243 1.313 . S
C241 C242 1.338 . S
C241 N244 1.377 . S
C241 H261 0.930 . S
C242 N240 1.375 . S
C242 C241 1.338 . S
C242 H246 0.931 . S
C243 N240 1.313 . S
C243 N244 1.344 . S
C243 H247 0.930 . S
N244 C241 1.377 . S
N244 C243 1.344 . S
O245 Co237 2.055 . S
O245 C249 1.253 . S
H246 C242 0.931 . S
H247 C243 0.930 . S
O248 Co237 2.039 . S
O248 C238 1.265 . S
C249 O245 1.253 . S
C249 O250 1.227 . S
O250 C249 1.227 . S
N251 Co237 2.140 . S
N251 C254 1.346 . S
N251 C255 1.345 . S
C252 C253 1.387 . S
C252 C256 1.391 . S
C253 C252 1.387 . S
C253 C254 1.369 . S
C253 H262 0.929 . S
C254 N251 1.346 . S
C254 C253 1.369 . S
C254 H257 0.928 . S
C255 N251 1.345 . S
C255 C256 1.371 . S
C255 H258 0.931 . S
C256 C252 1.391 . S
C256 C255 1.371 . S
C256 H263 0.930 . S
H257 C254 0.928 . S
H258 C255 0.931 . S
H259 C235 0.930 . S
H260 C232 0.930 . S
H261 C241 0.930 . S
H262 C253 0.929 . S
H263 C256 0.930 . S
H264 C272 0.929 . S
H265 C274 0.930 . S
H266 C276 0.930 . S
H267 C279 0.929 . S
H268 C282 0.930 . S
H269 C284 0.960 . S
H270 C284 0.960 . S
H271 C284 0.930 1_554 S
C272 H264 0.929 . S
C272 C273 1.377 . S
C272 C274 1.384 . S
C273 C272 1.377 . S
C273 C279 1.390 . S
C274 H265 0.930 . S
C274 C272 1.384 . S
C274 C275 1.372 . S
C275 C274 1.372 . S
C275 C276 1.400 . S
C275 C280 1.490 . S
C276 H266 0.930 . S
C276 C275 1.400 . S
C276 C279 1.386 . S
H277 C293 0.930 . S
H278 C294 0.931 . S
C279 H267 0.929 . S
C279 C273 1.390 . S
C279 C276 1.386 . S
C280 C275 1.490 . S
C280 C282 1.395 . S
C280 C283 1.403 1_554 S
H281 C287 0.930 . S
C282 H268 0.930 . S
C282 C280 1.395 . S
C282 C285 1.403 . S
C283 C280 1.403 1_556 S
C283 C284 1.524 . S
C283 C287 1.400 . S
C284 H269 0.960 . S
C284 H270 0.960 . S
C284 H271 0.930 1_556 S
C284 C283 1.524 . S
C285 C282 1.403 . S
C285 C286 1.392 1_554 S
C285 C289 1.495 . S
C286 C285 1.392 1_556 S
C286 C287 1.385 . S
C286 C288 1.478 . S
C287 H281 0.930 . S
C287 C283 1.400 . S
C287 C286 1.385 . S
C288 C286 1.478 . S
C288 C290 1.381 . S
C288 C294 1.383 . S
C289 C285 1.495 . S
C289 H295 0.959 . S
C289 H296 0.961 . S
C289 H297 0.969 . S
C290 C288 1.381 . S
C290 C291 1.394 . S
C290 H298 0.930 . S
C291 C290 1.394 . S
C291 C292 1.383 . S
C291 H299 0.929 . S
C292 C291 1.383 . S
C292 C293 1.377 . S
C293 H277 0.930 . S
C293 C292 1.377 . S
C293 C294 1.379 . S
C294 H278 0.931 . S
C294 C288 1.383 . S
C294 C293 1.379 . S
H295 C289 0.959 . S
H296 C289 0.961 . S
H297 C289 0.969 . S
H298 C290 0.930 . S
H299 C291 0.929 . S
H300 C308 0.929 . S
H301 C310 0.930 . S
H302 C312 0.930 . S
H303 C315 0.929 . S
H304 C318 0.930 . S
H305 C320 0.960 . S
H306 C320 0.960 . S
H307 C320 0.960 . S
C308 H300 0.929 . S
C308 C309 1.377 . S
C308 C310 1.384 . S
C309 C308 1.377 . S
C309 C315 1.390 . S
C310 H301 0.930 . S
C310 C308 1.384 . S
C310 C311 1.372 . S
C311 C310 1.372 . S
C311 C312 1.400 . S
C311 C316 1.490 . S
C312 H302 0.930 . S
C312 C311 1.400 . S
C312 C315 1.386 . S
H313 C329 0.930 . S
H314 C330 0.931 . S
C315 H303 0.929 . S
C315 C309 1.390 . S
C315 C312 1.386 . S
C316 C311 1.490 . S
C316 C318 1.395 . S
C316 C319 1.403 . S
H317 C323 0.930 . S
C318 H304 0.930 . S
C318 C316 1.395 . S
C318 C321 1.403 . S
C319 C316 1.403 . S
C319 C320 1.524 . S
C319 C323 1.400 . S
C320 H305 0.960 . S
C320 H306 0.960 . S
C320 H307 0.960 . S
C320 C319 1.524 . S
C321 C318 1.403 . S
C321 C322 1.392 . S
C321 C325 1.495 . S
C322 C321 1.392 . S
C322 C323 1.385 . S
C322 C324 1.478 . S
C323 H317 0.930 . S
C323 C319 1.400 . S
C323 C322 1.385 . S
C324 C322 1.478 . S
C324 C326 1.381 . S
C324 C330 1.383 . S
C325 C321 1.495 . S
C325 H331 0.959 . S
C325 H332 0.961 . S
C325 H333 0.960 . S
C326 C324 1.381 . S
C326 C327 1.394 . S
C326 H334 0.930 . S
C327 C326 1.394 . S
C327 C328 1.383 . S
C327 H335 0.929 . S
C328 C327 1.383 . S
C328 C329 1.377 . S
C329 H313 0.930 . S
C329 C328 1.377 . S
C329 C330 1.379 . S
C330 H314 0.931 . S
C330 C324 1.383 . S
C330 C329 1.379 . S
H331 C325 0.959 . S
H332 C325 0.961 . S
H333 C325 0.960 . S
H334 C326 0.930 . S
H335 C327 0.929 . S
H336 C344 0.929 . S
H337 C346 0.930 . S
H338 C348 0.930 . S
H339 C351 0.929 . S
H340 C354 0.930 . S
H341 C356 0.960 . S
H342 C356 0.960 . S
H343 C356 0.960 . S
C344 H336 0.929 . S
C344 C345 1.377 . S
C344 C346 1.384 . S
C345 C344 1.377 . S
C345 C351 1.390 . S
C346 H337 0.930 . S
C346 C344 1.384 . S
C346 C347 1.372 . S
C347 C346 1.372 . S
C347 C348 1.400 . S
C347 C352 1.490 . S
C348 H338 0.930 . S
C348 C347 1.400 . S
C348 C351 1.386 . S
H349 C365 0.930 . S
H350 C366 0.931 . S
C351 H339 0.929 . S
C351 C345 1.390 . S
C351 C348 1.386 . S
C352 C347 1.490 . S
C352 C354 1.395 . S
C352 C355 1.403 . S
H353 C359 0.930 . S
C354 H340 0.930 . S
C354 C352 1.395 . S
C354 C357 1.403 . S
C355 C352 1.403 . S
C355 C356 1.524 . S
C355 C359 1.400 . S
C356 H341 0.960 . S
C356 H342 0.960 . S
C356 H343 0.960 . S
C356 C355 1.524 . S
C357 C354 1.403 . S
C357 C358 1.392 . S
C357 C361 1.495 . S
C358 C357 1.392 . S
C358 C359 1.385 . S
C358 C360 1.478 . S
C359 H353 0.930 . S
C359 C355 1.400 . S
C359 C358 1.385 . S
C360 C358 1.478 . S
C360 C362 1.381 . S
C360 C366 1.383 . S
C361 C357 1.495 . S
C361 H367 0.959 . S
C361 H368 0.961 . S
C361 H369 0.960 . S
C362 C360 1.381 . S
C362 C363 1.394 . S
C362 H370 0.930 . S
C363 C362 1.394 . S
C363 C364 1.383 . S
C363 H371 0.929 . S
C364 C363 1.383 . S
C364 C365 1.377 . S
C365 H349 0.930 . S
C365 C364 1.377 . S
C365 C366 1.379 . S
C366 H350 0.931 . S
C366 C360 1.383 . S
C366 C365 1.379 . S
H367 C361 0.959 . S
H368 C361 0.961 . S
H369 C361 0.960 . S
H370 C362 0.930 . S
H371 C363 0.929 . S
H372 C380 0.929 . S
H373 C382 0.930 . S
H374 C384 0.930 . S
H375 C387 0.929 . S
H376 C390 0.930 . S
H377 C392 0.960 . S
H378 C392 0.960 . S
H379 C392 0.960 . S
C380 H372 0.929 . S
C380 C381 1.377 . S
C380 C382 1.384 . S
C381 C380 1.377 . S
C381 C387 1.390 . S
C382 H373 0.930 . S
C382 C380 1.384 . S
C382 C383 1.372 . S
C383 C382 1.372 . S
C383 C384 1.400 . S
C383 C388 1.490 . S
C384 H374 0.930 . S
C384 C383 1.400 . S
C384 C387 1.386 . S
H385 C401 0.930 . S
H386 C402 0.931 . S
C387 H375 0.929 . S
C387 C381 1.390 . S
C387 C384 1.386 . S
C388 C383 1.490 . S
C388 C390 1.395 . S
C388 C391 1.403 . S
H389 C395 0.930 . S
C390 H376 0.930 . S
C390 C388 1.395 . S
C390 C393 1.403 . S
C391 C388 1.403 . S
C391 C392 1.524 . S
C391 C395 1.400 . S
C392 H377 0.960 . S
C392 H378 0.960 . S
C392 H379 0.960 . S
C392 C391 1.524 . S
C393 C390 1.403 . S
C393 C394 1.392 . S
C393 C397 1.495 . S
C394 C393 1.392 . S
C394 C395 1.385 . S
C394 C396 1.478 . S
C395 H389 0.930 . S
C395 C391 1.400 . S
C395 C394 1.385 . S
C396 C394 1.478 . S
C396 C398 1.381 . S
C396 C402 1.383 . S
C397 C393 1.495 . S
C397 H403 0.959 . S
C397 H404 0.961 . S
C397 H405 0.960 . S
C398 C396 1.381 . S
C398 C399 1.394 . S
C398 H406 0.930 . S
C399 C398 1.394 . S
C399 C400 1.383 . S
C399 H407 0.929 . S
C400 C399 1.383 . S
C400 C401 1.377 . S
C401 H385 0.930 . S
C401 C400 1.377 . S
C401 C402 1.379 . S
C402 H386 0.931 . S
C402 C396 1.383 . S
C402 C401 1.379 . S
H403 C397 0.959 . S
H404 C397 0.961 . S
H405 C397 0.960 . S
H406 C398 0.930 . S
H407 C399 0.929 . S
H408 C416 0.929 . S
H409 C418 0.930 . S
H410 C420 0.930 . S
H411 C423 0.929 . S
H412 C426 0.930 . S
H413 C428 0.960 . S
H414 C428 0.960 . S
H415 C428 0.960 . S
C416 H408 0.929 . S
C416 C417 1.377 . S
C416 C418 1.384 . S
C417 C416 1.377 . S
C417 C423 1.390 . S
C418 H409 0.930 . S
C418 C416 1.384 . S
C418 C419 1.372 . S
C419 C418 1.372 . S
C419 C420 1.400 . S
C419 C424 1.490 . S
C420 H410 0.930 . S
C420 C419 1.400 . S
C420 C423 1.386 . S
H421 C437 0.930 . S
H422 C438 0.931 . S
C423 H411 0.929 . S
C423 C417 1.390 . S
C423 C420 1.386 . S
C424 C419 1.490 . S
C424 C426 1.395 . S
C424 C427 1.403 . S
H425 C431 0.943 . S
C426 H412 0.930 . S
C426 C424 1.395 . S
C426 C429 1.403 1_556 S
C427 C424 1.403 . S
C427 C428 1.524 . S
C427 C431 1.363 1_556 S
C428 H413 0.960 . S
C428 H414 0.960 . S
C428 H415 0.960 . S
C428 C427 1.524 . S
C429 C426 1.403 1_554 S
C429 C430 1.392 . S
C429 C433 1.495 . S
C430 C429 1.392 . S
C430 C431 1.410 . S
C430 C432 1.478 . S
C431 H425 0.943 . S
C431 C427 1.363 1_554 S
C431 C430 1.410 . S
C432 C430 1.478 . S
C432 C434 1.381 . S
C432 C438 1.383 . S
C433 C429 1.495 . S
C433 H439 0.959 . S
C433 H440 0.961 . S
C433 H441 0.960 . S
C434 C432 1.381 . S
C434 C435 1.394 . S
C434 H442 0.930 . S
C435 C434 1.394 . S
C435 C436 1.383 . S
C435 H443 0.929 . S
C436 C435 1.383 . S
C436 C437 1.377 . S
C437 H421 0.930 . S
C437 C436 1.377 . S
C437 C438 1.379 . S
C438 H422 0.931 . S
C438 C432 1.383 . S
C438 C437 1.379 . S
H439 C433 0.959 . S
H440 C433 0.961 . S
H441 C433 0.960 . S
H442 C434 0.930 . S
H443 C435 0.929 . S
H444 C452 0.929 . S
H445 C454 0.930 . S
H446 C456 0.930 . S
H447 C459 0.929 . S
H448 C462 0.930 . S
H449 C464 0.960 . S
H450 C464 0.960 . S
H451 C464 0.960 . S
C452 H444 0.929 . S
C452 C453 1.378 . S
C452 C454 1.384 1_565 S
C453 C452 1.378 . S
C453 C459 1.387 1_565 S
C454 H445 0.930 . S
C454 C452 1.384 1_545 S
C454 C455 1.372 . S
C455 C454 1.372 . S
C455 C456 1.400 . S
C455 C460 1.490 . S
C456 H446 0.930 . S
C456 C455 1.400 . S
C456 C459 1.386 . S
H457 C473 0.930 . S
H458 C474 0.931 . S
C459 H447 0.929 . S
C459 C453 1.387 1_545 S
C459 C456 1.386 . S
C460 C455 1.490 . S
C460 C462 1.395 . S
C460 C463 1.403 . S
H461 C467 0.930 . S
C462 H448 0.930 . S
C462 C460 1.395 . S
C462 C465 1.403 . S
C463 C460 1.403 . S
C463 C464 1.524 1_545 S
C463 C467 1.400 . S
C464 H449 0.960 . S
C464 H450 0.960 . S
C464 H451 0.960 . S
C464 C463 1.524 1_565 S
C465 C462 1.403 . S
C465 C466 1.392 . S
C465 C469 1.495 . S
C466 C465 1.392 . S
C466 C467 1.385 . S
C466 C468 1.478 . S
C467 H461 0.930 . S
C467 C463 1.400 . S
C467 C466 1.385 . S
C468 C466 1.478 . S
C468 C470 1.381 . S
C468 C474 1.383 . S
C469 C465 1.495 . S
C469 H475 0.959 . S
C469 H476 0.961 . S
C469 H477 0.960 . S
C470 C468 1.381 . S
C470 C471 1.394 . S
C470 H478 0.930 . S
C471 C470 1.394 . S
C471 C472 1.383 . S
C471 H479 0.929 . S
C472 C471 1.383 . S
C472 C473 1.377 . S
C473 H457 0.930 . S
C473 C472 1.377 . S
C473 C474 1.379 . S
C474 H458 0.931 . S
C474 C468 1.383 . S
C474 C473 1.379 . S
H475 C469 0.959 . S
H476 C469 0.961 . S
H477 C469 0.960 . S
H478 C470 0.930 . S
H479 C471 0.929 . S
H480 C488 0.929 . S
H481 C490 0.930 . S
H482 C492 0.930 . S
H483 C495 0.929 . S
H484 C498 0.930 . S
H485 C500 0.960 . S
H486 C500 0.960 . S
H487 C500 0.960 . S
C488 H480 0.929 . S
C488 C489 1.377 . S
C488 C490 1.384 . S
C489 C488 1.377 . S
C489 C495 1.390 . S
C490 H481 0.930 . S
C490 C488 1.384 . S
C490 C491 1.372 . S
C491 C490 1.372 . S
C491 C492 1.400 . S
C491 C496 1.490 . S
C492 H482 0.930 . S
C492 C491 1.400 . S
C492 C495 1.386 . S
H493 C509 0.930 . S
H494 C510 0.931 . S
C495 H483 0.929 . S
C495 C489 1.390 . S
C495 C492 1.386 . S
C496 C491 1.490 . S
C496 C498 1.395 . S
C496 C499 1.403 . S
H497 C503 0.930 . S
C498 H484 0.930 . S
C498 C496 1.395 . S
C498 C501 1.403 . S
C499 C496 1.403 . S
C499 C500 1.524 . S
C499 C503 1.400 . S
C500 H485 0.960 . S
C500 H486 0.960 . S
C500 H487 0.960 . S
C500 C499 1.524 . S
C501 C498 1.403 . S
C501 C502 1.392 . S
C501 C505 1.495 . S
C502 C501 1.392 . S
C502 C503 1.385 . S
C502 C504 1.478 . S
C503 H497 0.930 . S
C503 C499 1.400 . S
C503 C502 1.385 . S
C504 C502 1.478 . S
C504 C506 1.381 . S
C504 C510 1.383 . S
C505 C501 1.495 . S
C505 H511 0.959 . S
C505 H512 0.961 . S
C505 H513 0.960 . S
C506 C504 1.381 . S
C506 C507 1.394 . S
C506 H514 0.930 . S
C507 C506 1.394 . S
C507 C508 1.383 . S
C507 H515 0.929 . S
C508 C507 1.383 . S
C508 C509 1.377 . S
C509 H493 0.930 . S
C509 C508 1.377 . S
C509 C510 1.379 . S
C510 H494 0.931 . S
C510 C504 1.383 . S
C510 C509 1.379 . S
H511 C505 0.959 . S
H512 C505 0.961 . S
H513 C505 0.960 . S
H514 C506 0.930 . S
H515 C507 0.929 . S
H516 C524 0.929 . S
H517 C526 0.930 . S
H518 C528 0.930 . S
H519 C531 0.929 . S
H520 C534 0.930 . S
H521 C536 0.960 . S
H522 C536 0.960 . S
H523 C536 0.960 . S
C524 H516 0.929 . S
C524 C525 1.397 . S
C524 C526 1.384 . S
C525 C524 1.397 . S
C525 C531 1.377 1_565 S
C526 H517 0.930 . S
C526 C524 1.384 . S
C526 C527 1.372 . S
C527 C526 1.372 . S
C527 C528 1.400 1_565 S
C527 C532 1.490 . S
C528 H518 0.930 . S
C528 C527 1.400 1_545 S
C528 C531 1.386 . S
H529 C545 0.930 . S
H530 C546 0.931 . S
C531 H519 0.929 . S
C531 C525 1.377 1_545 S
C531 C528 1.386 . S
C532 C527 1.490 . S
C532 C534 1.395 . S
C532 C535 1.403 . S
H533 C539 0.930 . S
C534 H520 0.930 . S
C534 C532 1.395 . S
C534 C537 1.403 . S
C535 C532 1.403 . S
C535 C536 1.524 . S
C535 C539 1.400 . S
C536 H521 0.960 . S
C536 H522 0.960 . S
C536 H523 0.960 . S
C536 C535 1.524 . S
C537 C534 1.403 . S
C537 C538 1.392 . S
C537 C541 1.495 . S
C538 C537 1.392 . S
C538 C539 1.385 . S
C538 C540 1.478 . S
C539 H533 0.930 . S
C539 C535 1.400 . S
C539 C538 1.385 . S
C540 C538 1.478 . S
C540 C542 1.381 . S
C540 C546 1.383 . S
C541 C537 1.495 . S
C541 H547 0.959 . S
C541 H548 0.961 . S
C541 H549 0.960 . S
C542 C540 1.381 . S
C542 C543 1.394 . S
C542 H550 0.930 . S
C543 C542 1.394 . S
C543 C544 1.383 . S
C543 H551 0.929 . S
C544 C543 1.383 . S
C544 C545 1.377 . S
C545 H529 0.930 . S
C545 C544 1.377 . S
C545 C546 1.379 . S
C546 H530 0.931 . S
C546 C540 1.383 . S
C546 C545 1.379 . S
H547 C541 0.959 . S
H548 C541 0.961 . S
H549 C541 0.960 . S
H550 C542 0.930 . S
H551 C543 0.929 . S
H552 C560 0.929 . S
H553 C562 0.930 . S
H554 C564 0.930 . S
H555 C567 0.929 . S
H556 C570 0.930 . S
H557 C572 0.960 . S
H558 C572 0.960 . S
H559 C572 0.960 . S
C560 H552 0.929 . S
C560 C561 1.377 . S
C560 C562 1.384 . S
C561 C560 1.377 . S
C561 C567 1.390 . S
C562 H553 0.930 . S
C562 C560 1.384 . S
C562 C563 1.372 . S
C563 C562 1.372 . S
C563 C564 1.400 . S
C563 C568 1.490 . S
C564 H554 0.930 . S
C564 C563 1.400 . S
C564 C567 1.386 . S
H565 C581 0.930 . S
H566 C582 0.931 . S
C567 H555 0.929 . S
C567 C561 1.390 . S
C567 C564 1.386 . S
C568 C563 1.490 . S
C568 C570 1.395 . S
C568 C571 1.403 . S
H569 C575 0.930 . S
C570 H556 0.930 . S
C570 C568 1.395 . S
C570 C573 1.403 . S
C571 C568 1.403 . S
C571 C572 1.524 . S
C571 C575 1.400 . S
C572 H557 0.960 . S
C572 H558 0.960 . S
C572 H559 0.960 . S
C572 C571 1.524 . S
C573 C570 1.403 . S
C573 C574 1.392 . S
C573 C577 1.495 1_455 S
C574 C573 1.392 . S
C574 C575 1.385 . S
C574 C576 1.478 . S
C575 H569 0.930 . S
C575 C571 1.400 . S
C575 C574 1.385 . S
C576 C574 1.478 . S
C576 C578 1.381 . S
C576 C582 1.383 . S
C577 C573 1.495 1_655 S
C577 H583 0.959 . S
C577 H584 0.961 . S
C577 H585 0.960 . S
C578 C576 1.381 . S
C578 C579 1.394 1_455 S
C578 H586 0.933 . S
C579 C578 1.394 1_655 S
C579 C580 1.383 . S
C579 H587 0.929 . S
C580 C579 1.383 . S
C580 C581 1.377 1_655 S
C581 H565 0.930 . S
C581 C580 1.377 1_455 S
C581 C582 1.379 . S
C582 H566 0.931 . S
C582 C576 1.383 . S
C582 C581 1.379 . S
H583 C577 0.959 . S
H584 C577 0.961 . S
H585 C577 0.960 . S
H586 C578 0.933 . S
H587 C579 0.929 . S
H588 C596 0.929 . S
H589 C598 0.930 . S
H590 C600 0.930 . S
H591 C603 0.929 . S
H592 C606 0.930 . S
H593 C608 0.960 . S
H594 C608 0.960 1_556 S
H595 C608 0.960 1_556 S
C596 H588 0.929 . S
C596 C597 1.377 . S
C596 C598 1.384 . S
C597 C596 1.377 . S
C597 C603 1.390 . S
C598 H589 0.930 . S
C598 C596 1.384 . S
C598 C599 1.372 . S
C599 C598 1.372 . S
C599 C600 1.400 . S
C599 C604 1.490 . S
C600 H590 0.930 . S
C600 C599 1.400 . S
C600 C603 1.386 . S
H601 C617 0.930 . S
H602 C618 0.931 . S
C603 H591 0.929 . S
C603 C597 1.390 . S
C603 C600 1.386 . S
C604 C599 1.490 . S
C604 C606 1.395 . S
C604 C607 1.403 1_556 S
H605 C611 0.930 . S
C606 H592 0.930 . S
C606 C604 1.395 . S
C606 C609 1.403 1_556 S
C607 C604 1.403 1_554 S
C607 C608 1.524 . S
C607 C611 1.400 . S
C608 H593 0.960 . S
C608 H594 0.960 1_554 S
C608 H595 0.960 1_554 S
C608 C607 1.524 . S
C609 C606 1.403 1_554 S
C609 C610 1.392 . S
C609 C613 1.495 . S
C610 C609 1.392 . S
C610 C611 1.385 . S
C610 C612 1.478 . S
C611 H605 0.930 . S
C611 C607 1.400 . S
C611 C610 1.385 . S
C612 C610 1.478 . S
C612 C614 1.381 . S
C612 C618 1.383 . S
C613 C609 1.495 . S
C613 H619 0.959 1_554 S
C613 H620 0.961 . S
C613 H621 0.960 . S
C614 C612 1.381 . S
C614 C615 1.394 . S
C614 H622 0.930 . S
C615 C614 1.394 . S
C615 C616 1.383 . S
C615 H623 0.929 . S
C616 C615 1.383 . S
C616 C617 1.377 . S
C617 H601 0.930 . S
C617 C616 1.377 . S
C617 C618 1.379 . S
C618 H602 0.931 . S
C618 C612 1.383 . S
C618 C617 1.379 . S
H619 C613 0.959 1_556 S
H620 C613 0.961 . S
H621 C613 0.960 . S
H622 C614 0.930 . S
H623 C615 0.929 . S
H624 C632 0.929 . S
H625 C634 0.930 . S
H626 C636 0.930 . S
H627 C639 0.929 . S
H628 C642 0.930 . S
H629 C644 0.960 . S
H630 C644 0.960 . S
H631 C644 0.960 . S
C632 H624 0.929 . S
C632 C633 1.397 . S
C632 C634 1.384 . S
C633 C632 1.397 . S
C633 C639 1.378 1_655 S
C634 H625 0.930 . S
C634 C632 1.384 . S
C634 C635 1.372 . S
C635 C634 1.372 . S
C635 C636 1.400 1_655 S
C635 C640 1.490 . S
C636 H626 0.930 . S
C636 C635 1.400 1_455 S
C636 C639 1.386 . S
H637 C653 0.930 . S
H638 C654 0.931 . S
C639 H627 0.929 . S
C639 C633 1.378 1_455 S
C639 C636 1.386 . S
C640 C635 1.490 . S
C640 C642 1.395 . S
C640 C643 1.403 . S
H641 C647 0.930 . S
C642 H628 0.930 . S
C642 C640 1.395 . S
C642 C645 1.403 . S
C643 C640 1.403 . S
C643 C644 1.524 . S
C643 C647 1.400 . S
C644 H629 0.960 . S
C644 H630 0.960 . S
C644 H631 0.960 . S
C644 C643 1.524 . S
C645 C642 1.403 . S
C645 C646 1.392 . S
C645 C649 1.495 . S
C646 C645 1.392 . S
C646 C647 1.385 . S
C646 C648 1.478 . S
C647 H641 0.930 . S
C647 C643 1.400 . S
C647 C646 1.385 . S
C648 C646 1.478 . S
C648 C650 1.381 . S
C648 C654 1.383 . S
C649 C645 1.495 . S
C649 H655 0.959 . S
C649 H656 0.961 . S
C649 H657 0.960 . S
C650 C648 1.381 . S
C650 C651 1.394 . S
C650 H658 0.930 . S
C651 C650 1.394 . S
C651 C652 1.383 . S
C651 H659 0.929 . S
C652 C651 1.383 . S
C652 C653 1.377 . S
C653 H637 0.930 . S
C653 C652 1.377 . S
C653 C654 1.379 . S
C654 H638 0.931 . S
C654 C648 1.383 . S
C654 C653 1.379 . S
H655 C649 0.959 . S
H656 C649 0.961 . S
H657 C649 0.960 . S
H658 C650 0.930 . S
H659 C651 0.929 . S
H660 C668 0.929 . S
H661 C670 0.930 . S
H662 C672 0.930 . S
H663 C675 0.929 . S
H664 C678 0.930 . S
H665 C680 0.960 . S
H666 C680 0.960 . S
H667 C680 0.960 . S
C668 H660 0.929 . S
C668 C669 1.377 . S
C668 C670 1.384 . S
C669 C668 1.377 . S
C669 C675 1.390 . S
C670 H661 0.930 . S
C670 C668 1.384 . S
C670 C671 1.372 . S
C671 C670 1.372 . S
C671 C672 1.400 . S
C671 C676 1.490 . S
C672 H662 0.930 . S
C672 C671 1.400 . S
C672 C675 1.386 . S
H673 C689 0.930 . S
H674 C690 0.931 . S
C675 H663 0.929 . S
C675 C669 1.390 . S
C675 C672 1.386 . S
C676 C671 1.490 . S
C676 C678 1.395 . S
C676 C679 1.403 . S
H677 C683 0.930 . S
C678 H664 0.930 . S
C678 C676 1.395 . S
C678 C681 1.403 . S
C679 C676 1.403 . S
C679 C680 1.524 . S
C679 C683 1.400 . S
C680 H665 0.960 . S
C680 H666 0.960 . S
C680 H667 0.960 . S
C680 C679 1.524 . S
C681 C678 1.403 . S
C681 C682 1.392 . S
C681 C685 1.495 . S
C682 C681 1.392 . S
C682 C683 1.385 . S
C682 C684 1.478 . S
C683 H677 0.930 . S
C683 C679 1.400 . S
C683 C682 1.385 . S
C684 C682 1.478 . S
C684 C686 1.381 . S
C684 C690 1.383 . S
C685 C681 1.495 . S
C685 H691 0.959 . S
C685 H692 0.961 . S
C685 H693 0.960 . S
C686 C684 1.381 . S
C686 C687 1.394 . S
C686 H694 0.930 . S
C687 C686 1.394 . S
C687 C688 1.383 . S
C687 H695 0.929 . S
C688 C687 1.383 . S
C688 C689 1.377 . S
C689 H673 0.930 . S
C689 C688 1.377 . S
C689 C690 1.379 . S
C690 H674 0.931 . S
C690 C684 1.383 . S
C690 C689 1.379 . S
H691 C685 0.959 . S
H692 C685 0.961 . S
H693 C685 0.960 . S
H694 C686 0.930 . S
H695 C687 0.929 . S
H696 C704 0.929 . S
H697 C706 0.930 . S
H698 C708 0.930 . S
H699 C711 0.929 . S
H700 C714 0.930 . S
H701 C716 0.960 . S
H702 C716 0.960 . S
H703 C716 0.960 . S
C704 H696 0.929 . S
C704 C705 1.377 . S
C704 C706 1.384 . S
C705 C704 1.377 . S
C705 C711 1.390 . S
C706 H697 0.930 . S
C706 C704 1.384 . S
C706 C707 1.372 . S
C707 C706 1.372 . S
C707 C708 1.400 . S
C707 C712 1.490 . S
C708 H698 0.930 . S
C708 C707 1.400 . S
C708 C711 1.386 . S
H709 C725 0.930 . S
H710 C726 0.931 . S
C711 H699 0.929 . S
C711 C705 1.390 . S
C711 C708 1.386 . S
C712 C707 1.490 . S
C712 C714 1.395 . S
C712 C715 1.403 . S
H713 C719 0.930 . S
C714 H700 0.930 . S
C714 C712 1.395 . S
C714 C717 1.403 . S
C715 C712 1.403 . S
C715 C716 1.524 . S
C715 C719 1.400 . S
C716 H701 0.960 . S
C716 H702 0.960 . S
C716 H703 0.960 . S
C716 C715 1.524 . S
C717 C714 1.403 . S
C717 C718 1.392 . S
C717 C721 1.495 . S
C718 C717 1.392 . S
C718 C719 1.385 . S
C718 C720 1.478 . S
C719 H713 0.930 . S
C719 C715 1.400 . S
C719 C718 1.385 . S
C720 C718 1.478 . S
C720 C722 1.381 . S
C720 C726 1.383 . S
C721 C717 1.495 . S
C721 H727 0.959 . S
C721 H728 0.961 . S
C721 H729 0.960 . S
C722 C720 1.381 . S
C722 C723 1.394 1_565 S
C722 H730 0.930 . S
C723 C722 1.394 1_545 S
C723 C724 1.383 . S
C723 H731 0.929 . S
C724 C723 1.383 . S
C724 C725 1.377 . S
C725 H709 0.930 . S
C725 C724 1.377 . S
C725 C726 1.379 1_545 S
C726 H710 0.931 . S
C726 C720 1.383 . S
C726 C725 1.379 1_565 S
H727 C721 0.959 . S
H728 C721 0.961 . S
H729 C721 0.960 . S
H730 C722 0.930 . S
H731 C723 0.929 . S
H732 C740 0.929 . S
H733 C742 0.930 . S
H734 C744 0.930 . S
H735 C747 0.929 . S
H736 C750 0.930 . S
H737 C752 0.960 . S
H738 C752 0.960 . S
H739 C752 0.960 . S
C740 H732 0.929 . S
C740 C741 1.377 . S
C740 C742 1.384 . S
C741 C740 1.377 . S
C741 C747 1.390 . S
C742 H733 0.930 . S
C742 C740 1.384 . S
C742 C743 1.372 . S
C743 C742 1.372 . S
C743 C744 1.400 . S
C743 C748 1.490 . S
C744 H734 0.930 . S
C744 C743 1.400 . S
C744 C747 1.386 . S
H745 C761 0.930 . S
H746 C762 0.931 . S
C747 H735 0.929 . S
C747 C741 1.390 . S
C747 C744 1.386 . S
C748 C743 1.490 . S
C748 C750 1.395 . S
C748 C751 1.403 . S
H749 C755 0.930 . S
C750 H736 0.930 . S
C750 C748 1.395 . S
C750 C753 1.403 . S
C751 C748 1.403 . S
C751 C752 1.524 . S
C751 C755 1.400 . S
C752 H737 0.960 . S
C752 H738 0.960 . S
C752 H739 0.960 . S
C752 C751 1.524 . S
C753 C750 1.403 . S
C753 C754 1.392 . S
C753 C757 1.495 . S
C754 C753 1.392 . S
C754 C755 1.385 . S
C754 C756 1.478 . S
C755 H749 0.930 . S
C755 C751 1.400 . S
C755 C754 1.385 . S
C756 C754 1.478 . S
C756 C758 1.381 . S
C756 C762 1.383 . S
C757 C753 1.495 . S
C757 H763 0.959 . S
C757 H764 0.961 . S
C757 H765 0.960 . S
C758 C756 1.381 . S
C758 C759 1.394 . S
C758 H766 0.930 . S
C759 C758 1.394 . S
C759 C760 1.383 . S
C759 H767 0.929 . S
C760 C759 1.383 . S
C760 C761 1.377 . S
C761 H745 0.930 . S
C761 C760 1.377 . S
C761 C762 1.379 . S
C762 H746 0.931 . S
C762 C756 1.383 . S
C762 C761 1.379 . S
H763 C757 0.959 . S
H764 C757 0.961 . S
H765 C757 0.960 . S
H766 C758 0.930 . S
H767 C759 0.929 . S
H768 C776 0.929 . S
H769 C778 0.930 . S
H770 C780 0.930 . S
H771 C783 0.929 . S
H772 C786 0.930 . S
H773 C788 0.960 . S
H774 C788 0.960 . S
H775 C788 0.960 . S
C776 H768 0.929 . S
C776 C777 1.377 . S
C776 C778 1.384 1_565 S
C777 C776 1.377 . S
C777 C783 1.390 . S
C778 H769 0.930 . S
C778 C776 1.384 1_545 S
C778 C779 1.372 . S
C779 C778 1.372 . S
C779 C780 1.400 . S
C779 C784 1.490 . S
C780 H770 0.930 . S
C780 C779 1.400 . S
C780 C783 1.386 1_545 S
H781 C797 0.930 . S
H782 C798 0.931 . S
C783 H771 0.929 . S
C783 C777 1.390 . S
C783 C780 1.386 1_565 S
C784 C779 1.490 . S
C784 C786 1.395 . S
C784 C787 1.403 . S
H785 C791 0.930 . S
C786 H772 0.930 . S
C786 C784 1.395 . S
C786 C789 1.403 . S
C787 C784 1.403 . S
C787 C788 1.524 . S
C787 C791 1.400 . S
C788 H773 0.960 . S
C788 H774 0.960 . S
C788 H775 0.960 . S
C788 C787 1.524 . S
C789 C786 1.403 . S
C789 C790 1.392 . S
C789 C793 1.495 . S
C790 C789 1.392 . S
C790 C791 1.385 . S
C790 C792 1.478 . S
C791 H785 0.930 . S
C791 C787 1.400 . S
C791 C790 1.385 . S
C792 C790 1.478 . S
C792 C794 1.381 . S
C792 C798 1.383 . S
C793 C789 1.495 . S
C793 H799 0.959 . S
C793 H800 0.961 . S
C793 H801 0.960 . S
C794 C792 1.381 . S
C794 C795 1.394 . S
C794 H802 0.930 . S
C795 C794 1.394 . S
C795 C796 1.383 . S
C795 H803 0.929 . S
C796 C795 1.383 . S
C796 C797 1.377 . S
C797 H781 0.930 . S
C797 C796 1.377 . S
C797 C798 1.379 . S
C798 H782 0.931 . S
C798 C792 1.383 . S
C798 C797 1.379 . S
H799 C793 0.959 . S
H800 C793 0.961 . S
H801 C793 0.960 . S
H802 C794 0.930 . S
H803 C795 0.929 . S
H804 C812 0.929 . S
H805 C814 0.930 . S
H806 C816 0.930 . S
H807 C819 0.929 . S
H808 C822 0.930 . S
H809 C824 0.960 . S
H810 C824 0.960 . S
H811 C824 0.960 . S
C812 H804 0.929 . S
C812 C813 1.377 . S
C812 C814 1.384 . S
C813 C812 1.377 . S
C813 C819 1.390 . S
C814 H805 0.930 . S
C814 C812 1.384 . S
C814 C815 1.372 . S
C815 C814 1.372 . S
C815 C816 1.400 . S
C815 C820 1.490 . S
C816 H806 0.930 . S
C816 C815 1.400 . S
C816 C819 1.386 . S
H817 C833 0.930 . S
H818 C834 0.931 . S
C819 H807 0.929 . S
C819 C813 1.390 . S
C819 C816 1.386 . S
C820 C815 1.490 . S
C820 C822 1.395 . S
C820 C823 1.403 . S
H821 C827 0.930 . S
C822 H808 0.930 . S
C822 C820 1.395 . S
C822 C825 1.403 . S
C823 C820 1.403 . S
C823 C824 1.524 . S
C823 C827 1.400 . S
C824 H809 0.960 . S
C824 H810 0.960 . S
C824 H811 0.960 . S
C824 C823 1.524 . S
C825 C822 1.403 . S
C825 C826 1.392 . S
C825 C829 1.495 . S
C826 C825 1.392 . S
C826 C827 1.385 . S
C826 C828 1.478 . S
C827 H821 0.930 . S
C827 C823 1.400 . S
C827 C826 1.385 . S
C828 C826 1.478 . S
C828 C830 1.381 . S
C828 C834 1.383 . S
C829 C825 1.495 . S
C829 H835 0.959 . S
C829 H836 0.961 . S
C829 H837 0.960 . S
C830 C828 1.381 . S
C830 C831 1.394 . S
C830 H838 0.930 . S
C831 C830 1.394 . S
C831 C832 1.383 . S
C831 H839 0.929 . S
C832 C831 1.383 . S
C832 C833 1.377 . S
C833 H817 0.930 . S
C833 C832 1.377 . S
C833 C834 1.379 . S
C834 H818 0.931 . S
C834 C828 1.383 . S
C834 C833 1.379 . S
H835 C829 0.959 . S
H836 C829 0.961 . S
H837 C829 0.960 . S
H838 C830 0.930 . S
H839 C831 0.929 . S
H840 C848 0.929 . S
H841 C850 0.930 . S
H842 C852 0.930 . S
H843 C855 0.929 . S
H844 C858 0.930 . S
H845 C860 0.960 . S
H846 C860 0.960 . S
H847 C860 0.960 . S
C848 H840 0.929 . S
C848 C849 1.377 . S
C848 C850 1.384 . S
C849 C848 1.377 . S
C849 C855 1.390 . S
C850 H841 0.930 . S
C850 C848 1.384 . S
C850 C851 1.372 . S
C851 C850 1.372 . S
C851 C852 1.400 . S
C851 C856 1.490 . S
C852 H842 0.930 . S
C852 C851 1.400 . S
C852 C855 1.386 . S
H853 C869 0.930 . S
H854 C870 0.931 . S
C855 H843 0.929 . S
C855 C849 1.390 . S
C855 C852 1.386 . S
C856 C851 1.490 . S
C856 C858 1.395 . S
C856 C859 1.403 . S
H857 C863 0.930 . S
C858 H844 0.930 . S
C858 C856 1.395 . S
C858 C861 1.403 . S
C859 C856 1.403 . S
C859 C860 1.524 . S
C859 C863 1.400 . S
C860 H845 0.960 . S
C860 H846 0.960 . S
C860 H847 0.960 . S
C860 C859 1.524 . S
C861 C858 1.403 . S
C861 C862 1.392 . S
C861 C865 1.495 . S
C862 C861 1.392 . S
C862 C863 1.385 . S
C862 C864 1.478 . S
C863 H857 0.930 . S
C863 C859 1.400 . S
C863 C862 1.385 . S
C864 C862 1.478 . S
C864 C866 1.381 . S
C864 C870 1.383 . S
C865 C861 1.495 . S
C865 H871 0.959 . S
C865 H872 0.961 . S
C865 H873 0.960 . S
C866 C864 1.381 . S
C866 C867 1.394 . S
C866 H874 0.930 . S
C867 C866 1.394 . S
C867 C868 1.383 . S
C867 H875 0.929 . S
C868 C867 1.383 . S
C868 C869 1.377 . S
C869 H853 0.930 . S
C869 C868 1.377 . S
C869 C870 1.379 . S
C870 H854 0.931 . S
C870 C864 1.383 . S
C870 C869 1.379 . S
H871 C865 0.959 . S
H872 C865 0.961 . S
H873 C865 0.960 . S
H874 C866 0.930 . S
H875 C867 0.929 . S
H876 C884 0.929 . S
H877 C886 0.930 . S
H878 C888 0.930 . S
H879 C891 0.929 . S
H880 C894 0.930 . S
H881 C896 0.960 . S
H882 C896 0.960 . S
H883 C896 0.960 . S
C884 H876 0.929 . S
C884 C885 1.377 . S
C884 C886 1.384 . S
C885 C884 1.377 . S
C885 C891 1.390 . S
C886 H877 0.930 . S
C886 C884 1.384 . S
C886 C887 1.372 . S
C887 C886 1.372 . S
C887 C888 1.400 . S
C887 C892 1.490 . S
C888 H878 0.930 . S
C888 C887 1.400 . S
C888 C891 1.386 . S
H889 C905 0.930 . S
H890 C906 0.931 . S
C891 H879 0.929 . S
C891 C885 1.390 . S
C891 C888 1.386 . S
C892 C887 1.490 . S
C892 C894 1.395 . S
C892 C895 1.403 . S
H893 C899 0.930 . S
C894 H880 0.930 . S
C894 C892 1.395 . S
C894 C897 1.403 . S
C895 C892 1.403 . S
C895 C896 1.524 . S
C895 C899 1.400 . S
C896 H881 0.960 . S
C896 H882 0.960 . S
C896 H883 0.960 . S
C896 C895 1.524 . S
C897 C894 1.403 . S
C897 C898 1.392 . S
C897 C901 1.495 . S
C898 C897 1.392 . S
C898 C899 1.385 . S
C898 C900 1.478 . S
C899 H893 0.930 . S
C899 C895 1.400 . S
C899 C898 1.385 . S
C900 C898 1.478 . S
C900 C902 1.381 . S
C900 C906 1.383 . S
C901 C897 1.495 . S
C901 H907 0.959 . S
C901 H908 0.961 . S
C901 H909 0.960 . S
C902 C900 1.381 . S
C902 C903 1.394 1_655 S
C902 H910 0.930 . S
C903 C902 1.394 1_455 S
C903 C904 1.383 . S
C903 H911 0.929 . S
C904 C903 1.383 . S
C904 C905 1.377 . S
C905 H889 0.930 . S
C905 C904 1.377 . S
C905 C906 1.379 1_455 S
C906 H890 0.931 . S
C906 C900 1.383 . S
C906 C905 1.379 1_655 S
H907 C901 0.959 . S
H908 C901 0.961 . S
H909 C901 0.960 . S
H910 C902 0.930 . S
H911 C903 0.929 . S
H912 C920 0.929 . S
H913 C922 0.930 . S
H914 C924 0.930 . S
H915 C927 0.929 . S
H916 C930 0.930 . S
H917 C932 0.960 . S
H918 C932 0.960 . S
H919 C932 0.960 . S
C920 H912 0.929 . S
C920 C921 1.377 . S
C920 C922 1.384 . S
C921 C920 1.377 . S
C921 C927 1.390 . S
C922 H913 0.930 . S
C922 C920 1.384 . S
C922 C923 1.372 . S
C923 C922 1.372 . S
C923 C924 1.400 . S
C923 C928 1.490 . S
C924 H914 0.930 . S
C924 C923 1.400 . S
C924 C927 1.386 . S
H925 C941 0.930 . S
H926 C942 0.931 . S
C927 H915 0.929 . S
C927 C921 1.390 . S
C927 C924 1.386 . S
C928 C923 1.490 . S
C928 C930 1.395 . S
C928 C931 1.403 . S
H929 C935 0.930 . S
C930 H916 0.930 . S
C930 C928 1.395 . S
C930 C933 1.403 . S
C931 C928 1.403 . S
C931 C932 1.524 . S
C931 C935 1.400 . S
C932 H917 0.960 . S
C932 H918 0.960 . S
C932 H919 0.960 . S
C932 C931 1.524 . S
C933 C930 1.403 . S
C933 C934 1.392 . S
C933 C937 1.495 . S
C934 C933 1.392 . S
C934 C935 1.385 . S
C934 C936 1.478 . S
C935 H929 0.930 . S
C935 C931 1.400 . S
C935 C934 1.385 . S
C936 C934 1.478 . S
C936 C938 1.381 . S
C936 C942 1.383 . S
C937 C933 1.495 . S
C937 H943 0.959 . S
C937 H944 0.961 . S
C937 H945 0.960 . S
C938 C936 1.381 . S
C938 C939 1.394 . S
C938 H946 0.930 . S
C939 C938 1.394 . S
C939 C940 1.383 . S
C939 H947 0.929 . S
C940 C939 1.383 . S
C940 C941 1.377 . S
C941 H925 0.930 . S
C941 C940 1.377 . S
C941 C942 1.379 . S
C942 H926 0.931 . S
C942 C936 1.383 . S
C942 C941 1.379 . S
H943 C937 0.959 . S
H944 C937 0.961 . S
H945 C937 0.960 . S
H946 C938 0.930 . S
H947 C939 0.929 . S
H948 C956 0.929 . S
H949 C958 0.930 . S
H950 C960 0.930 . S
H951 C963 0.929 . S
H952 C966 0.930 . S
H953 C968 0.960 . S
H954 C968 0.960 . S
H955 C968 0.960 . S
C956 H948 0.929 . S
C956 C957 1.377 . S
C956 C958 1.384 . S
C957 C956 1.377 . S
C957 C963 1.390 . S
C958 H949 0.930 . S
C958 C956 1.384 . S
C958 C959 1.372 . S
C959 C958 1.372 . S
C959 C960 1.400 . S
C959 C964 1.490 . S
C960 H950 0.930 . S
C960 C959 1.400 . S
C960 C963 1.386 . S
H961 C977 0.930 . S
H962 C978 0.931 . S
C963 H951 0.929 . S
C963 C957 1.390 . S
C963 C960 1.386 . S
C964 C959 1.490 . S
C964 C966 1.395 . S
C964 C967 1.403 . S
H965 C971 0.930 . S
C966 H952 0.930 . S
C966 C964 1.395 . S
C966 C969 1.403 . S
C967 C964 1.403 . S
C967 C968 1.524 . S
C967 C971 1.400 . S
C968 H953 0.960 . S
C968 H954 0.960 . S
C968 H955 0.960 . S
C968 C967 1.524 . S
C969 C966 1.403 . S
C969 C970 1.392 . S
C969 C973 1.495 . S
C970 C969 1.392 . S
C970 C971 1.385 . S
C970 C972 1.478 . S
C971 H965 0.930 . S
C971 C967 1.400 . S
C971 C970 1.385 . S
C972 C970 1.478 . S
C972 C974 1.381 . S
C972 C978 1.383 . S
C973 C969 1.495 . S
C973 H979 0.959 . S
C973 H980 0.961 . S
C973 H981 0.960 . S
C974 C972 1.381 . S
C974 C975 1.394 1_455 S
C974 H982 0.930 . S
C975 C974 1.394 1_655 S
C975 C976 1.383 . S
C975 H983 0.929 . S
C976 C975 1.383 . S
C976 C977 1.377 . S
C977 H961 0.930 . S
C977 C976 1.377 . S
C977 C978 1.379 1_655 S
C978 H962 0.931 . S
C978 C972 1.383 . S
C978 C977 1.379 1_455 S
H979 C973 0.959 . S
H980 C973 0.961 . S
H981 C973 0.960 . S
H982 C974 0.930 . S
H983 C975 0.929 . S
C273 N2 0.250 . S
C292 N167 0.229 . S
C309 N200 0.269 . S
C328 N35 0.178 . S
C345 N233 0.283 . S
C364 N68 0.233 . S
C381 N134 0.249 . S
C400 N101 0.255 . S
C417 N112 1.015 . S
C436 C21 1.045 . S
C453 C54 0.991 . S
C472 N13 0.958 . S
C489 N46 1.003 . S
C508 C87 0.952 . S
C525 C120 0.989 1_565 S
C544 N79 1.038 . S
C561 N178 0.998 . S
C580 C153 0.943 . S
C597 C186 1.001 . S
C616 N211 1.004 . S
C633 C219 0.989 1_655 S
C652 N244 1.043 . S
C669 C252 0.985 . S
C688 N145 0.963 . S
C705 C205 1.770 . S
C724 C18 1.819 . S
C741 C238 1.769 . S
C760 C51 1.819 . S
C777 C84 1.828 . S
C796 C139 1.776 . S
C813 C117 1.828 . S
C832 C172 1.780 . S
C849 C150 1.828 . S
C868 C73 1.777 . S
C885 C106 1.769 . S
C904 C183 1.819 . S
C921 C216 1.827 . S
C940 C7 1.774 . S
C957 C40 1.774 . S
C976 C249 1.827 . S
