# Generated by pormake.
# Topology oof, (8)-cn, num edge types: 1
# Building blocks:
#     Node 0, Type 0, BuildingBlock: TAGTUT_clean_sbu_1, # of connection points: 8
#     Node 1, Type 0, BuildingBlock: TAGTUT_clean_sbu_1, # of connection points: 8
#     Node 2, Type 0, BuildingBlock: TAGTUT_clean_sbu_1, # of connection points: 8
#     Node 3, Type 0, BuildingBlock: TAGTUT_clean_sbu_1, # of connection points: 8
#     Edge 4, Type (0, 0), BuildingBlock: AJUNOK_clean_linker_0, # of connection points: 2
#     Edge 5, Type (0, 0), BuildingBlock: AJUNOK_clean_linker_0, # of connection points: 2
#     Edge 6, Type (0, 0), BuildingBlock: AJUNOK_clean_linker_0, # of connection points: 2
#     Edge 7, Type (0, 0), BuildingBlock: AJUNOK_clean_linker_0, # of connection points: 2
#     Edge 8, Type (0, 0), BuildingBlock: AJUNOK_clean_linker_0, # of connection points: 2
#     Edge 9, Type (0, 0), BuildingBlock: AJUNOK_clean_linker_0, # of connection points: 2
#     Edge 10, Type (0, 0), BuildingBlock: AJUNOK_clean_linker_0, # of connection points: 2
#     Edge 11, Type (0, 0), BuildingBlock: AJUNOK_clean_linker_0, # of connection points: 2
#     Edge 12, Type (0, 0), BuildingBlock: AJUNOK_clean_linker_0, # of connection points: 2
#     Edge 13, Type (0, 0), BuildingBlock: AJUNOK_clean_linker_0, # of connection points: 2
#     Edge 14, Type (0, 0), BuildingBlock: AJUNOK_clean_linker_0, # of connection points: 2
#     Edge 15, Type (0, 0), BuildingBlock: AJUNOK_clean_linker_0, # of connection points: 2
#     Edge 16, Type (0, 0), BuildingBlock: AJUNOK_clean_linker_0, # of connection points: 2
#     Edge 17, Type (0, 0), BuildingBlock: AJUNOK_clean_linker_0, # of connection points: 2
#     Edge 18, Type (0, 0), BuildingBlock: AJUNOK_clean_linker_0, # of connection points: 2
#     Edge 19, Type (0, 0), BuildingBlock: AJUNOK_clean_linker_0, # of connection points: 2
# Relax obj value: 0.052
# Max RMSD: 0.154
# Mean RMSD: 0.154
data_MOF--net-oof--node1-TAGTUT_clean_sbu_1--edge1-AJUNOK_clean_linker_0
_symmetry_space_group_name_H-M    P1
_symmetry_Int_Tables_number       1
_symmetry_cell_setting            triclinic
loop_
_symmetry_equiv_pos_as_xyz
'x, y, z'
_cell_length_a     11.653474
_cell_length_b     42.049323
_cell_length_c     15.437681
_cell_angle_alpha  95.689714
_cell_angle_beta   101.55902
_cell_angle_gamma 104.41422
loop_
_atom_site_label
_atom_site_type_symbol
_atom_site_fract_x
_atom_site_fract_y
_atom_site_fract_z
_atom_type_partial_charge
C0 C 0.03184 0.0995 0.53815 0.0
C1 C 0.05563 0.04307 0.33048 0.0
C2 C 0.28766 0.16058 0.21598 0.0
Mg3 Mg 0.88979 0.07996 0.33877 0.0
O4 O 0.00323 0.1212 0.34193 0.0
Mg5 Mg 0.18127 0.12403 0.3817 0.0
Mg6 Mg 0.00631 0.13669 0.22471 0.0
O7 O -0.00101 0.15039 0.10499 0.0
Mg8 Mg 0.09678 0.18787 0.07654 0.0
Mg9 Mg 0.82115 0.13302 0.04517 0.0
C10 C 0.71225 0.11299 0.22261 0.0
C11 C 0.92126 0.06906 0.07522 0.0
O12 O 0.13037 0.11306 0.51471 0.0
O13 O 0.93141 0.08467 0.48151 0.0
O14 O 0.15564 0.06622 0.34489 0.0
O15 O 0.96601 0.04649 0.27454 0.0
O16 O 0.72737 0.09124 0.27293 0.0
O17 O 0.80002 0.13051 0.19445 0.0
C18 C 0.14863 0.19889 0.38658 0.0
O19 O 0.06746 0.19047 0.31127 0.0
O20 O 0.20004 0.17809 0.42099 0.0
O21 O 0.8765 0.13564 0.91044 0.0
O22 O 0.07204 0.16629 0.94095 0.0
O23 O 0.80333 0.18601 0.04789 0.0
C24 C 0.97721 0.14656 0.88728 0.0
O25 O -0.01573 0.22353 0.07035 0.0
O26 O 0.26503 0.18107 0.1618 0.0
C27 C 0.86703 0.21595 0.05325 0.0
O28 O 0.20333 0.14068 0.24272 0.0
O29 O -0.0189 0.08502 0.15166 0.0
O30 O 0.84416 0.0805 0.02689 0.0
C31 C 0.01478 0.88458 0.09025 0.0
C32 C 0.11765 0.81373 0.9213 0.0
C33 C 0.27798 0.91711 0.75377 0.0
Mg34 Mg 0.8929 0.84367 0.9008 0.0
O35 O -0.00782 0.88056 0.87169 0.0
Mg36 Mg 0.17066 0.89691 0.93094 0.0
Mg37 Mg -0.01571 0.89444 0.75213 0.0
O38 O -0.01202 0.91045 0.63605 0.0
Mg39 Mg 0.10354 0.95149 0.63977 0.0
Mg40 Mg 0.81089 0.90818 0.59697 0.0
C41 C 0.7029 0.87027 0.76008 0.0
C42 C 0.84038 0.83314 0.58715 0.0
O43 O 0.1158 0.89481 0.06677 0.0
O44 O 0.91882 0.86539 0.03651 0.0
O45 O 0.1854 0.8433 0.92742 0.0
O46 O 0.00086 0.8074 0.90478 0.0
O47 O 0.72571 0.84979 0.81406 0.0
O48 O 0.78729 0.89089 0.7351 0.0
C49 C 0.07835 0.96234 0.90179 0.0
O50 O 0.01387 0.94652 0.82625 0.0
O51 O 0.15316 0.9499 0.94903 0.0
O52 O 0.86306 0.9195 0.46365 0.0
O53 O 0.06323 0.9466 0.49722 0.0
O54 O 0.83958 0.9656 0.63979 0.0
C55 C 0.96251 0.93237 0.44034 0.0
O56 O 0.03142 0.98644 0.7031 0.0
O57 O 0.26444 0.93942 0.70501 0.0
C58 C 0.9383 0.98868 0.6483 0.0
O59 O 0.18962 0.89962 0.78128 0.0
O60 O 0.92062 0.84069 0.66299 0.0
O61 O 0.7899 0.85444 0.55505 0.0
C62 C 0.53482 0.60107 0.5382 0.0
C63 C 0.55689 0.54337 0.33234 0.0
C64 C 0.78756 0.66019 0.21455 0.0
Mg65 Mg 0.39083 0.58062 0.33946 0.0
O66 O 0.50472 0.62129 0.33983 0.0
Mg67 Mg 0.68306 0.62408 0.37975 0.0
Mg68 Mg 0.50636 0.6359 0.22129 0.0
O69 O 0.49944 0.64963 0.1014 0.0
Mg70 Mg 0.59705 0.68819 0.077 0.0
Mg71 Mg 0.32103 0.63413 0.04352 0.0
C72 C 0.21404 0.61379 0.22227 0.0
C73 C 0.40887 0.56802 0.07051 0.0
O74 O 0.63318 0.61439 0.51417 0.0
O75 O 0.43416 0.58607 0.48207 0.0
O76 O 0.65758 0.56622 0.34693 0.0
O77 O 0.46788 0.54725 0.27688 0.0
O78 O 0.22914 0.59226 0.27336 0.0
O79 O 0.30147 0.6309 0.19296 0.0
C80 C 0.65225 0.6989 0.3812 0.0
O81 O 0.57069 0.69019 0.30615 0.0
O82 O 0.70321 0.67819 0.41642 0.0
O83 O 0.37656 0.63753 0.90886 0.0
O84 O 0.57269 0.66794 0.94038 0.0
O85 O 0.30645 0.6873 0.04972 0.0
C86 C 0.4776 0.64856 0.8861 0.0
O87 O 0.48764 0.72461 0.07397 0.0
O88 O 0.76478 0.68116 0.16199 0.0
C89 C 0.37054 0.71726 0.0568 0.0
O90 O 0.70339 0.6393 0.23892 0.0
O91 O 0.47218 0.58287 0.14749 0.0
O92 O 0.33939 0.58157 0.02221 0.0
C93 C 0.51112 0.38133 0.094 0.0
C94 C 0.61447 0.31269 0.91919 0.0
C95 C 0.77571 0.41764 0.75838 0.0
Mg96 Mg 0.39053 0.34274 0.90226 0.0
O97 O 0.48898 0.38061 0.87653 0.0
Mg98 Mg 0.66659 0.39609 0.93558 0.0
Mg99 Mg 0.48182 0.39486 0.75702 0.0
O100 O 0.48348 0.41018 0.63973 0.0
Mg101 Mg 0.59971 0.45055 0.63993 0.0
Mg102 Mg 0.30551 0.40784 0.60103 0.0
C103 C 0.20213 0.37145 0.76709 0.0
C104 C 0.33539 0.33289 0.59392 0.0
O105 O 0.61194 0.39208 0.07073 0.0
O106 O 0.41512 0.36254 0.03942 0.0
O107 O 0.68233 0.34241 0.92759 0.0
O108 O 0.49772 0.30636 0.90235 0.0
O109 O 0.2243 0.34998 0.81792 0.0
O110 O 0.28572 0.39187 0.74106 0.0
C111 C 0.57439 0.46196 0.90852 0.0
O112 O 0.51415 0.44747 0.83061 0.0
O113 O 0.64371 0.44843 0.95738 0.0
O114 O 0.35569 0.41771 0.46576 0.0
O115 O 0.55584 0.44484 0.49762 0.0
O116 O 0.33612 0.4656 0.6397 0.0
C117 C 0.45471 0.43035 0.44154 0.0
O118 O 0.52852 0.48567 0.70292 0.0
O119 O 0.76092 0.43834 0.70454 0.0
C120 C 0.4359 0.48833 0.6484 0.0
O121 O 0.68725 0.40047 0.78659 0.0
O122 O 0.4173 0.34079 0.66894 0.0
O123 O 0.28355 0.35395 0.56197 0.0
C124 C 0.09079 0.14895 0.76669 0.0
C125 C -0.01 0.13313 0.79884 0.0
C126 C 0.10904 0.13624 0.68518 0.0
C127 C 0.0267 0.10732 0.63216 0.0
H128 H 0.15548 0.17172 0.804 0.0
H129 H 0.18505 0.15027 0.66175 0.0
S130 S 0.75779 0.05378 0.69157 0.0
N131 N 0.81405 0.08485 0.77586 0.0
N132 N 0.84695 0.06142 0.6211 0.0
C133 C 0.92874 0.0903 0.66533 0.0
C134 C 0.91042 0.10315 0.74881 0.0
C135 C 0.88167 0.89669 0.29146 0.0
C136 C 0.96782 0.92461 0.34614 0.0
C137 C 0.89919 0.88368 0.20988 0.0
C138 C 0.00305 0.8982 0.17913 0.0
H139 H 0.80282 0.88365 0.31356 0.0
H140 H 0.83121 0.86169 0.17136 0.0
S141 S 0.24772 0.97454 0.2918 0.0
N142 N 0.15533 0.96827 0.36039 0.0
N143 N 0.18751 0.94414 0.20606 0.0
C144 C 0.08696 0.9272 0.23101 0.0
C145 C 0.06918 0.9404 0.31443 0.0
C146 C 0.59037 0.65159 0.76494 0.0
C147 C 0.49084 0.63528 0.7977 0.0
C148 C 0.60963 0.63879 0.68381 0.0
C149 C 0.52971 0.60927 0.63203 0.0
H150 H 0.65322 0.67475 0.80151 0.0
H151 H 0.68435 0.65313 0.65966 0.0
S152 S 0.26524 0.55453 0.69357 0.0
N153 N 0.3189 0.58608 0.77662 0.0
N154 N 0.35379 0.56245 0.62281 0.0
C155 C 0.43314 0.59186 0.66588 0.0
C156 C 0.4137 0.60482 0.74881 0.0
C157 C 0.39592 0.37979 0.21405 0.0
C158 C 0.49907 0.39467 0.18298 0.0
C159 C 0.37662 0.3932 0.29463 0.0
C160 C 0.46002 0.42194 0.34764 0.0
H161 H 0.32976 0.35732 0.17636 0.0
H162 H 0.2986 0.37998 0.31729 0.0
S163 S 0.73478 0.47341 0.29029 0.0
N164 N 0.67897 0.44189 0.20728 0.0
N165 N 0.64271 0.46692 0.35906 0.0
C166 C 0.5603 0.43805 0.31535 0.0
C167 C 0.58033 0.42436 0.23336 0.0
C168 C 0.55893 0.14027 0.15043 0.0
C169 C 0.60376 0.12505 0.22157 0.0
C170 C 0.46095 0.15377 0.1521 0.0
C171 C 0.40584 0.15301 0.22554 0.0
H172 H 0.5982 0.14116 0.09247 0.0
H173 H 0.4246 0.1635 0.09356 0.0
S174 S 0.50157 0.1206 0.43464 0.0
N175 N 0.59319 0.11281 0.37161 0.0
N176 N 0.41149 0.13905 0.37462 0.0
C177 C 0.45379 0.13936 0.29883 0.0
C178 C 0.55208 0.12515 0.29686 0.0
C179 C 0.52551 0.87492 0.82144 0.0
C180 C 0.5834 0.87702 0.74939 0.0
C181 C 0.42765 0.88841 0.82345 0.0
C182 C 0.38531 0.90469 0.75395 0.0
H183 H 0.55953 0.86423 0.87894 0.0
H184 H 0.38671 0.88672 0.88054 0.0
S185 S 0.49161 0.91137 0.54289 0.0
N186 N 0.58067 0.89242 0.60195 0.0
N187 N 0.39858 0.91843 0.60553 0.0
C188 C 0.43829 0.90536 0.67929 0.0
C189 C 0.53674 0.89129 0.67701 0.0
C190 C 0.95959 0.65324 0.14973 0.0
C191 C 0.90654 0.65326 0.22414 0.0
C192 C 0.05861 0.64013 0.14866 0.0
C193 C 0.10625 0.62609 0.22143 0.0
H194 H 0.92048 0.66188 0.09003 0.0
H195 H 0.09609 0.64025 0.08985 0.0
S196 S 0.01062 0.62448 0.43737 0.0
N197 N 0.91704 0.64154 0.3756 0.0
N198 N 0.10137 0.6162 0.37411 0.0
C199 C 0.05703 0.62721 0.29781 0.0
C200 C 0.95753 0.64096 0.29903 0.0
C201 C 0.93148 0.40309 0.68678 0.0
C202 C 0.88601 0.40643 0.76426 0.0
C203 C 0.03093 0.39024 0.68657 0.0
C204 C 0.08709 0.37996 0.7635 0.0
H205 H 0.88899 0.4101 0.62523 0.0
H206 H 0.0648 0.38863 0.62628 0.0
S207 S 0.01274 0.38764 0.9865 0.0
N208 N 0.90985 0.40091 0.92116 0.0
N209 N 0.09774 0.37669 0.92171 0.0
C210 C 0.04359 0.38356 0.8419 0.0
C211 C 0.94252 0.39678 0.84201 0.0
C212 C 0.29743 0.27066 0.58015 0.0
C213 C 0.29409 0.29893 0.53978 0.0
C214 C 0.24668 0.23858 0.53016 0.0
C215 C 0.19044 0.23332 0.43758 0.0
H216 H 0.337 0.27324 0.65112 0.0
H217 H 0.25149 0.21761 0.56486 0.0
S218 S 0.16575 0.29912 0.29811 0.0
N219 N 0.23516 0.31953 0.3996 0.0
N220 N 0.13969 0.25933 0.30734 0.0
C221 C 0.18765 0.26134 0.3962 0.0
C222 C 0.23981 0.29403 0.44673 0.0
C223 C 0.80417 0.29508 0.97654 0.0
C224 C 0.67591 0.28656 0.9462 0.0
C225 C 0.86472 0.27282 0.01405 0.0
C226 C 0.80022 0.24074 0.02315 0.0
H227 H 0.85916 0.31947 0.97254 0.0
H228 H 0.96322 0.28082 0.03515 0.0
S229 S 0.46277 0.20515 0.95068 0.0
N230 N 0.48686 0.24311 0.92576 0.0
N231 N 0.59858 0.20131 -0.00427 0.0
C232 C 0.67154 0.23169 -0.00784 0.0
C233 C 0.61017 0.25442 0.9537 0.0
C234 C 0.75144 0.73887 0.52396 0.0
C235 C 0.69445 0.73345 0.4315 0.0
C236 C 0.80241 0.77098 0.57355 0.0
C237 C 0.7985 0.79917 0.53299 0.0
H238 H 0.75672 0.71799 0.55896 0.0
H239 H 0.84263 0.77364 0.64444 0.0
S240 S 0.66725 0.799 0.29159 0.0
N241 N 0.64186 0.75925 0.30114 0.0
N242 N 0.73761 0.81957 0.39278 0.0
C243 C 0.74321 0.79415 0.44007 0.0
C244 C 0.69088 0.76139 0.38988 0.0
C245 C 0.36852 0.77428 0.0182 0.0
C246 C 0.30404 0.74223 0.02765 0.0
C247 C 0.30787 0.7965 0.9804 0.0
C248 C 0.1795 0.78787 0.94994 0.0
H249 H 0.46703 0.78223 0.03901 0.0
H250 H 0.36289 0.82094 0.97612 0.0
S251 S 0.9664 0.70672 0.95658 0.0
N252 N 0.10228 0.70296 0.00165 0.0
N253 N -0.00951 0.74454 0.93067 0.0
C254 C 0.11384 0.75585 0.95829 0.0
C255 C 0.17527 0.73323 -0.00276 0.0
C256 C 0.88992 0.02093 0.95376 0.0
C257 C 0.9608 0.04099 0.03461 0.0
C258 C 0.93147 0.99681 0.90914 0.0
C259 C 0.04613 0.99161 0.94306 0.0
H260 H 0.80143 0.02391 0.92432 0.0
H261 H 0.87132 0.98152 0.84852 0.0
S262 S 0.27418 0.04017 0.14662 0.0
N263 N 0.157 0.0558 0.14249 0.0
N264 N 0.23331 1.01027 0.05955 0.0
C265 C 0.11939 1.01205 0.02257 0.0
C266 C 0.07724 0.03667 0.06804 0.0
C267 C 0.11342 0.03247 0.48936 0.0
C268 C 0.02479 0.02727 0.40885 0.0
C269 C 0.08324 0.0209 0.56635 0.0
C270 C 0.96338 1.00285 0.56647 0.0
H271 H 0.20681 0.04626 0.49385 0.0
H272 H 0.15563 0.02598 0.62633 0.0
S273 S 0.69684 0.98143 0.3723 0.0
N274 N 0.81134 1.00166 0.33342 0.0
N275 N 0.75501 0.98077 0.47848 0.0
C276 C 0.87358 0.99745 0.48648 0.0
C277 C 0.90442 1.00901 0.40762 0.0
C278 C 0.50268 0.54463 0.95662 0.0
C279 C 0.44287 0.5398 0.02721 0.0
C280 C 0.54761 0.51974 0.9189 0.0
C281 C 0.53559 0.48934 0.9514 0.0
H282 H 0.51679 0.56813 0.93143 0.0
H283 H 0.59307 0.52447 0.86492 0.0
S284 S 0.3692 0.46247 0.12476 0.0
N285 N 0.36215 0.50103 0.12053 0.0
N286 N 0.44806 0.45449 0.0515 0.0
C287 C 0.47257 0.48389 0.01997 0.0
C288 C 0.42602 0.50908 0.0576 0.0
C289 C 0.58167 0.521 0.56791 0.0
C290 C 0.46174 0.50268 0.56695 0.0
C291 C 0.61294 0.53275 0.49141 0.0
C292 C 0.52539 0.52738 0.41025 0.0
H293 H 0.65323 0.5262 0.62845 0.0
H294 H 0.70627 0.5468 0.4968 0.0
S295 S 0.19802 0.48067 0.37052 0.0
N296 N 0.25457 0.48008 0.47703 0.0
N297 N 0.31313 0.50129 0.33294 0.0
C298 C 0.40505 0.50883 0.4079 0.0
C299 C 0.37304 0.49711 0.48626 0.0
loop_
_geom_bond_atom_site_label_1
_geom_bond_atom_site_label_2
_geom_bond_distance
_geom_bond_site_symmetry_2
_ccdc_geom_bond_type
C0 O12 1.241 . S
C0 O13 1.280 1_455 S
C1 O14 1.277 . S
C1 O15 1.245 1_455 S
C2 O26 1.247 . S
C2 O28 1.289 . S
Mg3 O4 1.926 1_655 S
Mg3 O13 1.984 . S
Mg3 O15 1.988 . S
Mg3 O16 2.061 . S
O4 Mg3 1.926 1_455 S
O4 Mg5 1.986 . S
O4 Mg6 1.917 . S
Mg5 O4 1.986 . S
Mg5 O12 2.042 . S
Mg5 O14 2.041 . S
Mg5 O20 2.038 . S
Mg5 O28 2.238 . S
Mg6 O4 1.917 . S
Mg6 O7 1.917 . S
Mg6 O17 2.106 1_455 S
Mg6 O19 2.079 . S
Mg6 O28 2.106 . S
Mg6 O29 2.079 1_455 S
O7 Mg6 1.917 . S
O7 Mg8 1.926 . S
O7 Mg9 1.986 1_455 S
Mg8 O7 1.926 . S
Mg8 O22 1.984 1_554 S
Mg8 O25 1.988 . S
Mg8 O26 2.061 . S
Mg9 O7 1.986 1_655 S
Mg9 O17 2.238 . S
Mg9 O21 2.042 1_554 S
Mg9 O23 2.041 . S
Mg9 O30 2.038 . S
C10 O16 1.247 . S
C10 O17 1.289 . S
C11 O29 1.245 . S
C11 O30 1.274 . S
O12 C0 1.241 . S
O12 Mg5 2.042 . S
O13 C0 1.280 1_655 S
O13 Mg3 1.984 . S
O14 C1 1.277 . S
O14 Mg5 2.041 . S
O15 C1 1.245 1_655 S
O15 Mg3 1.988 . S
O16 Mg3 2.061 . S
O16 C10 1.247 . S
O17 Mg6 2.106 1_655 S
O17 Mg9 2.238 . S
O17 C10 1.289 . S
C18 O19 1.245 . S
C18 O20 1.274 . S
O19 Mg6 2.079 . S
O19 C18 1.245 . S
O20 Mg5 2.038 . S
O20 C18 1.274 . S
O21 Mg9 2.042 1_556 S
O21 C24 1.241 1_655 S
O22 Mg8 1.984 1_556 S
O22 C24 1.280 . S
O23 Mg9 2.041 . S
O23 C27 1.277 . S
C24 O21 1.241 1_455 S
C24 O22 1.280 . S
O25 Mg8 1.988 . S
O25 C27 1.245 1_455 S
O26 C2 1.247 . S
O26 Mg8 2.061 . S
C27 O23 1.277 . S
C27 O25 1.245 1_655 S
O28 C2 1.289 . S
O28 Mg5 2.238 . S
O28 Mg6 2.106 . S
O29 Mg6 2.079 1_655 S
O29 C11 1.245 . S
O30 Mg9 2.038 . S
O30 C11 1.274 . S
C31 O43 1.241 . S
C31 O44 1.280 1_455 S
C32 O45 1.277 . S
C32 O46 1.245 1_455 S
C33 O57 1.247 . S
C33 O59 1.289 . S
Mg34 O35 1.926 1_655 S
Mg34 O44 1.984 1_556 S
Mg34 O46 1.988 . S
Mg34 O47 2.061 . S
O35 Mg34 1.926 1_455 S
O35 Mg36 1.986 . S
O35 Mg37 1.917 . S
Mg36 O35 1.986 . S
Mg36 O43 2.042 1_556 S
Mg36 O45 2.041 . S
Mg36 O51 2.038 . S
Mg36 O59 2.238 . S
Mg37 O35 1.917 . S
Mg37 O38 1.917 . S
Mg37 O48 2.106 1_455 S
Mg37 O50 2.079 . S
Mg37 O59 2.106 . S
Mg37 O60 2.079 1_455 S
O38 Mg37 1.917 . S
O38 Mg39 1.926 . S
O38 Mg40 1.986 1_455 S
Mg39 O38 1.926 . S
Mg39 O53 1.984 . S
Mg39 O56 1.988 . S
Mg39 O57 2.061 . S
Mg40 O38 1.986 1_655 S
Mg40 O48 2.238 . S
Mg40 O52 2.042 . S
Mg40 O54 2.041 . S
Mg40 O61 2.038 . S
C41 O47 1.247 . S
C41 O48 1.289 . S
C42 O60 1.245 . S
C42 O61 1.274 . S
O43 C31 1.241 . S
O43 Mg36 2.042 1_554 S
O44 C31 1.280 1_655 S
O44 Mg34 1.984 1_554 S
O45 C32 1.277 . S
O45 Mg36 2.041 . S
O46 C32 1.245 1_655 S
O46 Mg34 1.988 . S
O47 Mg34 2.061 . S
O47 C41 1.247 . S
O48 Mg37 2.106 1_655 S
O48 Mg40 2.238 . S
O48 C41 1.289 . S
C49 O50 1.245 . S
C49 O51 1.274 . S
O50 Mg37 2.079 . S
O50 C49 1.245 . S
O51 Mg36 2.038 . S
O51 C49 1.274 . S
O52 Mg40 2.042 . S
O52 C55 1.241 1_655 S
O53 Mg39 1.984 . S
O53 C55 1.280 . S
O54 Mg40 2.041 . S
O54 C58 1.277 . S
C55 O52 1.241 1_455 S
C55 O53 1.280 . S
O56 Mg39 1.988 . S
O56 C58 1.245 1_455 S
O57 C33 1.247 . S
O57 Mg39 2.061 . S
C58 O54 1.277 . S
C58 O56 1.245 1_655 S
O59 C33 1.289 . S
O59 Mg36 2.238 . S
O59 Mg37 2.106 . S
O60 Mg37 2.079 1_655 S
O60 C42 1.245 . S
O61 Mg40 2.038 . S
O61 C42 1.274 . S
C62 O74 1.241 . S
C62 O75 1.280 . S
C63 O76 1.277 . S
C63 O77 1.245 . S
C64 O88 1.247 . S
C64 O90 1.289 . S
Mg65 O66 1.926 . S
Mg65 O75 1.984 . S
Mg65 O77 1.988 . S
Mg65 O78 2.061 . S
O66 Mg65 1.926 . S
O66 Mg67 1.986 . S
O66 Mg68 1.917 . S
Mg67 O66 1.986 . S
Mg67 O74 2.042 . S
Mg67 O76 2.041 . S
Mg67 O82 2.038 . S
Mg67 O90 2.238 . S
Mg68 O66 1.917 . S
Mg68 O69 1.917 . S
Mg68 O79 2.106 . S
Mg68 O81 2.079 . S
Mg68 O90 2.106 . S
Mg68 O91 2.079 . S
O69 Mg68 1.917 . S
O69 Mg70 1.926 . S
O69 Mg71 1.986 . S
Mg70 O69 1.926 . S
Mg70 O84 1.984 1_554 S
Mg70 O87 1.988 . S
Mg70 O88 2.061 . S
Mg71 O69 1.986 . S
Mg71 O79 2.238 . S
Mg71 O83 2.042 1_554 S
Mg71 O85 2.041 . S
Mg71 O92 2.038 . S
C72 O78 1.247 . S
C72 O79 1.289 . S
C73 O91 1.245 . S
C73 O92 1.274 . S
O74 C62 1.241 . S
O74 Mg67 2.042 . S
O75 C62 1.280 . S
O75 Mg65 1.984 . S
O76 C63 1.277 . S
O76 Mg67 2.041 . S
O77 C63 1.245 . S
O77 Mg65 1.988 . S
O78 Mg65 2.061 . S
O78 C72 1.247 . S
O79 Mg68 2.106 . S
O79 Mg71 2.238 . S
O79 C72 1.289 . S
C80 O81 1.245 . S
C80 O82 1.274 . S
O81 Mg68 2.079 . S
O81 C80 1.245 . S
O82 Mg67 2.038 . S
O82 C80 1.274 . S
O83 Mg71 2.042 1_556 S
O83 C86 1.241 . S
O84 Mg70 1.984 1_556 S
O84 C86 1.280 . S
O85 Mg71 2.041 . S
O85 C89 1.277 . S
C86 O83 1.241 . S
C86 O84 1.280 . S
O87 Mg70 1.988 . S
O87 C89 1.245 . S
O88 C64 1.247 . S
O88 Mg70 2.061 . S
C89 O85 1.277 . S
C89 O87 1.245 . S
O90 C64 1.289 . S
O90 Mg67 2.238 . S
O90 Mg68 2.106 . S
O91 Mg68 2.079 . S
O91 C73 1.245 . S
O92 Mg71 2.038 . S
O92 C73 1.274 . S
C93 O105 1.241 . S
C93 O106 1.280 . S
C94 O107 1.277 . S
C94 O108 1.245 . S
C95 O119 1.247 . S
C95 O121 1.289 . S
Mg96 O97 1.926 . S
Mg96 O106 1.984 1_556 S
Mg96 O108 1.988 . S
Mg96 O109 2.061 . S
O97 Mg96 1.926 . S
O97 Mg98 1.986 . S
O97 Mg99 1.917 . S
Mg98 O97 1.986 . S
Mg98 O105 2.042 1_556 S
Mg98 O107 2.041 . S
Mg98 O113 2.038 . S
Mg98 O121 2.238 . S
Mg99 O97 1.917 . S
Mg99 O100 1.917 . S
Mg99 O110 2.106 . S
Mg99 O112 2.079 . S
Mg99 O121 2.106 . S
Mg99 O122 2.079 . S
O100 Mg99 1.917 . S
O100 Mg101 1.926 . S
O100 Mg102 1.986 . S
Mg101 O100 1.926 . S
Mg101 O115 1.984 . S
Mg101 O118 1.988 . S
Mg101 O119 2.061 . S
Mg102 O100 1.986 . S
Mg102 O110 2.238 . S
Mg102 O114 2.042 . S
Mg102 O116 2.041 . S
Mg102 O123 2.038 . S
C103 O109 1.247 . S
C103 O110 1.289 . S
C104 O122 1.245 . S
C104 O123 1.274 . S
O105 C93 1.241 . S
O105 Mg98 2.042 1_554 S
O106 C93 1.280 . S
O106 Mg96 1.984 1_554 S
O107 C94 1.277 . S
O107 Mg98 2.041 . S
O108 C94 1.245 . S
O108 Mg96 1.988 . S
O109 Mg96 2.061 . S
O109 C103 1.247 . S
O110 Mg99 2.106 . S
O110 Mg102 2.238 . S
O110 C103 1.289 . S
C111 O112 1.245 . S
C111 O113 1.274 . S
O112 Mg99 2.079 . S
O112 C111 1.245 . S
O113 Mg98 2.038 . S
O113 C111 1.274 . S
O114 Mg102 2.042 . S
O114 C117 1.241 . S
O115 Mg101 1.984 . S
O115 C117 1.280 . S
O116 Mg102 2.041 . S
O116 C120 1.277 . S
C117 O114 1.241 . S
C117 O115 1.280 . S
O118 Mg101 1.988 . S
O118 C120 1.245 . S
O119 C95 1.247 . S
O119 Mg101 2.061 . S
C120 O116 1.277 . S
C120 O118 1.245 . S
O121 C95 1.289 . S
O121 Mg98 2.238 . S
O121 Mg99 2.106 . S
O122 Mg99 2.079 . S
O122 C104 1.245 . S
O123 Mg102 2.038 . S
O123 C104 1.274 . S
C124 C125 1.369 . S
C124 C126 1.419 . S
C124 H128 0.930 . S
C125 C124 1.369 . S
C125 C134 1.429 1_455 S
C126 C124 1.419 . S
C126 C127 1.362 1_455 S
C126 H129 0.929 . S
C127 C126 1.362 1_655 S
C127 C133 1.430 . S
H128 C124 0.930 . S
H129 C126 0.929 . S
S130 N131 1.613 . S
S130 N132 1.610 . S
N131 S130 1.613 . S
N131 C134 1.350 . S
N132 S130 1.610 . S
N132 C133 1.351 . S
C133 C127 1.430 . S
C133 N132 1.351 . S
C133 C134 1.434 . S
C134 C125 1.429 1_655 S
C134 N131 1.350 . S
C134 C133 1.434 . S
C135 C136 1.369 1_655 S
C135 C137 1.419 . S
C135 H139 0.930 . S
C136 C135 1.369 1_455 S
C136 C145 1.429 . S
C137 C135 1.419 . S
C137 C138 1.363 1_655 S
C137 H140 0.929 . S
C138 C137 1.363 1_455 S
C138 C144 1.428 . S
H139 C135 0.930 . S
H140 C137 0.929 . S
S141 N142 1.613 . S
S141 N143 1.610 . S
N142 S141 1.613 . S
N142 C145 1.350 . S
N143 S141 1.610 . S
N143 C144 1.351 . S
C144 C138 1.428 . S
C144 N143 1.351 . S
C144 C145 1.434 . S
C145 C136 1.429 . S
C145 N142 1.350 . S
C145 C144 1.434 . S
C146 C147 1.369 . S
C146 C148 1.419 . S
C146 H150 0.930 . S
C147 C146 1.369 . S
C147 C156 1.429 . S
C148 C146 1.419 . S
C148 C149 1.363 . S
C148 H151 0.929 . S
C149 C148 1.363 . S
C149 C155 1.428 . S
H150 C146 0.930 . S
H151 C148 0.929 . S
S152 N153 1.613 . S
S152 N154 1.610 . S
N153 S152 1.613 . S
N153 C156 1.350 . S
N154 S152 1.610 . S
N154 C155 1.351 . S
C155 C149 1.428 . S
C155 N154 1.351 . S
C155 C156 1.434 . S
C156 C147 1.429 . S
C156 N153 1.350 . S
C156 C155 1.434 . S
C157 C158 1.369 . S
C157 C159 1.419 . S
C157 H161 0.930 . S
C158 C157 1.369 . S
C158 C167 1.429 . S
C159 C157 1.419 . S
C159 C160 1.363 . S
C159 H162 0.929 . S
C160 C159 1.363 . S
C160 C166 1.428 . S
H161 C157 0.930 . S
H162 C159 0.929 . S
S163 N164 1.613 . S
S163 N165 1.610 . S
N164 S163 1.613 . S
N164 C167 1.350 . S
N165 S163 1.610 . S
N165 C166 1.351 . S
C166 C160 1.428 . S
C166 N165 1.351 . S
C166 C167 1.434 . S
C167 C158 1.429 . S
C167 N164 1.350 . S
C167 C166 1.434 . S
C168 C169 1.369 . S
C168 C170 1.419 . S
C168 H172 0.930 . S
C169 C168 1.369 . S
C169 C178 1.429 . S
C170 C168 1.419 . S
C170 C171 1.363 . S
C170 H173 0.929 . S
C171 C170 1.363 . S
C171 C177 1.428 . S
H172 C168 0.930 . S
H173 C170 0.929 . S
S174 N175 1.613 . S
S174 N176 1.610 . S
N175 S174 1.613 . S
N175 C178 1.350 . S
N176 S174 1.610 . S
N176 C177 1.351 . S
C177 C171 1.428 . S
C177 N176 1.351 . S
C177 C178 1.434 . S
C178 C169 1.429 . S
C178 N175 1.350 . S
C178 C177 1.434 . S
C179 C180 1.369 . S
C179 C181 1.419 . S
C179 H183 0.930 . S
C180 C179 1.369 . S
C180 C189 1.429 . S
C181 C179 1.419 . S
C181 C182 1.363 . S
C181 H184 0.929 . S
C182 C181 1.363 . S
C182 C188 1.428 . S
H183 C179 0.930 . S
H184 C181 0.929 . S
S185 N186 1.613 . S
S185 N187 1.610 . S
N186 S185 1.613 . S
N186 C189 1.350 . S
N187 S185 1.610 . S
N187 C188 1.351 . S
C188 C182 1.428 . S
C188 N187 1.351 . S
C188 C189 1.434 . S
C189 C180 1.429 . S
C189 N186 1.350 . S
C189 C188 1.434 . S
C190 C191 1.369 . S
C190 C192 1.419 1_655 S
C190 H194 0.930 . S
C191 C190 1.369 . S
C191 C200 1.429 . S
C192 C190 1.419 1_455 S
C192 C193 1.363 . S
C192 H195 0.929 . S
C193 C192 1.363 . S
C193 C199 1.428 . S
H194 C190 0.930 . S
H195 C192 0.929 . S
S196 N197 1.613 1_455 S
S196 N198 1.610 . S
N197 S196 1.613 1_655 S
N197 C200 1.350 . S
N198 S196 1.610 . S
N198 C199 1.351 . S
C199 C193 1.428 . S
C199 N198 1.351 . S
C199 C200 1.434 1_455 S
C200 C191 1.429 . S
C200 N197 1.350 . S
C200 C199 1.434 1_655 S
C201 C202 1.369 . S
C201 C203 1.419 1_655 S
C201 H205 0.930 . S
C202 C201 1.369 . S
C202 C211 1.429 . S
C203 C201 1.419 1_455 S
C203 C204 1.363 . S
C203 H206 0.929 . S
C204 C203 1.363 . S
C204 C210 1.428 . S
H205 C201 0.930 . S
H206 C203 0.929 . S
S207 N208 1.613 1_455 S
S207 N209 1.610 . S
N208 S207 1.613 1_655 S
N208 C211 1.350 . S
N209 S207 1.610 . S
N209 C210 1.351 . S
C210 C204 1.428 . S
C210 N209 1.351 . S
C210 C211 1.434 1_455 S
C211 C202 1.429 . S
C211 N208 1.350 . S
C211 C210 1.434 1_655 S
C212 C213 1.369 . S
C212 C214 1.419 . S
C212 H216 0.930 . S
C213 C212 1.369 . S
C213 C222 1.429 . S
C214 C212 1.419 . S
C214 C215 1.363 . S
C214 H217 0.929 . S
C215 C214 1.363 . S
C215 C221 1.428 . S
H216 C212 0.930 . S
H217 C214 0.929 . S
S218 N219 1.613 . S
S218 N220 1.610 . S
N219 S218 1.613 . S
N219 C222 1.350 . S
N220 S218 1.610 . S
N220 C221 1.351 . S
C221 C215 1.428 . S
C221 N220 1.351 . S
C221 C222 1.434 . S
C222 C213 1.429 . S
C222 N219 1.350 . S
C222 C221 1.434 . S
C223 C224 1.369 1_554 S
C223 C225 1.419 . S
C223 H227 0.930 . S
C224 C223 1.369 1_556 S
C224 C233 1.429 . S
C225 C223 1.419 . S
C225 C226 1.363 . S
C225 H228 0.929 . S
C226 C225 1.363 . S
C226 C232 1.428 1_554 S
H227 C223 0.930 . S
H228 C225 0.929 . S
S229 N230 1.613 . S
S229 N231 1.610 . S
N230 S229 1.613 . S
N230 C233 1.350 . S
N231 S229 1.610 . S
N231 C232 1.351 . S
C232 C226 1.428 1_556 S
C232 N231 1.351 . S
C232 C233 1.434 . S
C233 C224 1.429 . S
C233 N230 1.350 . S
C233 C232 1.434 . S
C234 C235 1.369 . S
C234 C236 1.419 . S
C234 H238 0.930 . S
C235 C234 1.369 . S
C235 C244 1.429 . S
C236 C234 1.419 . S
C236 C237 1.363 . S
C236 H239 0.929 . S
C237 C236 1.363 . S
C237 C243 1.428 . S
H238 C234 0.930 . S
H239 C236 0.929 . S
S240 N241 1.613 . S
S240 N242 1.610 . S
N241 S240 1.613 . S
N241 C244 1.350 . S
N242 S240 1.610 . S
N242 C243 1.351 . S
C243 C237 1.428 . S
C243 N242 1.351 . S
C243 C244 1.434 . S
C244 C235 1.429 . S
C244 N241 1.350 . S
C244 C243 1.434 . S
C245 C246 1.369 . S
C245 C247 1.419 . S
C245 H249 0.930 . S
C246 C245 1.369 . S
C246 C255 1.429 1_554 S
C247 C245 1.419 . S
C247 C248 1.363 1_554 S
C247 H250 0.929 . S
C248 C247 1.363 1_556 S
C248 C254 1.428 . S
H249 C245 0.930 . S
H250 C247 0.929 . S
S251 N252 1.613 . S
S251 N253 1.610 . S
N252 S251 1.613 . S
N252 C255 1.350 . S
N253 S251 1.610 . S
N253 C254 1.351 . S
C254 C248 1.428 . S
C254 N253 1.351 . S
C254 C255 1.434 . S
C255 C246 1.429 1_556 S
C255 N252 1.350 . S
C255 C254 1.434 . S
C256 C257 1.369 1_565 S
C256 C258 1.419 1_554 S
C256 H260 0.930 . S
C257 C256 1.369 1_545 S
C257 C266 1.429 1_655 S
C258 C256 1.419 1_556 S
C258 C259 1.363 1_655 S
C258 H261 0.929 . S
C259 C258 1.363 1_455 S
C259 C265 1.428 1_565 S
H260 C256 0.930 . S
H261 C258 0.929 . S
S262 N263 1.613 1_556 S
S262 N264 1.610 . S
N263 S262 1.613 1_554 S
N263 C266 1.350 . S
N264 S262 1.610 . S
N264 C265 1.351 . S
C265 C259 1.428 1_545 S
C265 N264 1.351 . S
C265 C266 1.434 1_556 S
C266 C257 1.429 1_455 S
C266 N263 1.350 . S
C266 C265 1.434 1_554 S
C267 C268 1.369 . S
C267 C269 1.419 . S
C267 H271 0.930 . S
C268 C267 1.369 . S
C268 C277 1.429 1_445 S
C269 C267 1.419 . S
C269 C270 1.363 1_445 S
C269 H272 0.929 . S
C270 C269 1.363 1_665 S
C270 C276 1.428 . S
H271 C267 0.930 . S
H272 C269 0.929 . S
S273 N274 1.613 . S
S273 N275 1.610 . S
N274 S273 1.613 . S
N274 C277 1.350 . S
N275 S273 1.610 . S
N275 C276 1.351 . S
C276 C270 1.428 . S
C276 N275 1.351 . S
C276 C277 1.434 . S
C277 C268 1.429 1_665 S
C277 N274 1.350 . S
C277 C276 1.434 . S
C278 C279 1.369 . S
C278 C280 1.419 1_554 S
C278 H282 0.930 . S
C279 C278 1.369 . S
C279 C288 1.429 . S
C280 C278 1.419 1_556 S
C280 C281 1.363 . S
C280 H283 0.929 . S
C281 C280 1.363 . S
C281 C287 1.432 . S
H282 C278 0.930 . S
H283 C280 0.929 . S
S284 N285 1.613 . S
S284 N286 1.610 . S
N285 S284 1.613 . S
N285 C288 1.350 . S
N286 S284 1.610 . S
N286 C287 1.350 1_554 S
C287 C281 1.432 . S
C287 N286 1.350 1_556 S
C287 C288 1.432 1_556 S
C288 C279 1.429 . S
C288 N285 1.350 . S
C288 C287 1.432 1_554 S
C289 C290 1.369 . S
C289 C291 1.419 . S
C289 H293 0.930 . S
C290 C289 1.369 . S
C290 C299 1.429 . S
C291 C289 1.419 . S
C291 C292 1.363 . S
C291 H294 0.929 . S
C292 C291 1.363 . S
C292 C298 1.428 . S
H293 C289 0.930 . S
H294 C291 0.929 . S
S295 N296 1.613 . S
S295 N297 1.610 . S
N296 S295 1.613 . S
N296 C299 1.350 . S
N297 S295 1.610 . S
N297 C298 1.351 . S
C298 C292 1.428 . S
C298 N297 1.351 . S
C298 C299 1.434 . S
C299 C290 1.429 . S
C299 N296 1.350 . S
C299 C298 1.434 . S
C125 C24 1.224 . S
C127 C0 1.235 1_655 S
C136 C55 1.228 . S
C138 C31 1.233 . S
C147 C86 1.233 . S
C149 C62 1.230 . S
C158 C93 1.224 . S
C160 C117 1.236 . S
C169 C10 1.104 . S
C171 C2 1.113 . S
C180 C41 1.115 . S
C182 C33 1.105 . S
C191 C64 1.112 . S
C193 C72 1.108 . S
C202 C95 1.106 . S
C204 C103 1.112 . S
C213 C104 1.669 . S
C215 C18 1.669 . S
C224 C94 1.868 . S
C226 C27 1.862 . S
C235 C80 1.674 . S
C237 C42 1.664 . S
C246 C89 1.861 . S
C248 C32 1.867 . S
C257 C11 2.198 . S
C259 C49 2.203 . S
C268 C1 1.427 . S
C270 C58 1.431 . S
C279 C73 2.203 . S
C281 C111 2.199 . S
C290 C120 1.436 . S
C292 C63 1.424 . S
