# Generated by pormake.
# Topology tzs, (4)-cn, num edge types: 1
# Building blocks:
#     Node 0, Type 0, BuildingBlock: CEKHIL_clean_sbu_0, # of connection points: 4
#     Node 1, Type 0, BuildingBlock: CEKHIL_clean_sbu_0, # of connection points: 4
#     Node 2, Type 0, BuildingBlock: CEKHIL_clean_sbu_0, # of connection points: 4
#     Node 3, Type 0, BuildingBlock: CEKHIL_clean_sbu_0, # of connection points: 4
#     Node 4, Type 0, BuildingBlock: CEKHIL_clean_sbu_0, # of connection points: 4
#     Node 5, Type 0, BuildingBlock: CEKHIL_clean_sbu_0, # of connection points: 4
#     Node 6, Type 0, BuildingBlock: CEKHIL_clean_sbu_0, # of connection points: 4
#     Node 7, Type 0, BuildingBlock: CEKHIL_clean_sbu_0, # of connection points: 4
#     Node 8, Type 0, BuildingBlock: CEKHIL_clean_sbu_0, # of connection points: 4
#     Node 9, Type 0, BuildingBlock: CEKHIL_clean_sbu_0, # of connection points: 4
#     Node 10, Type 0, BuildingBlock: CEKHIL_clean_sbu_0, # of connection points: 4
#     Node 11, Type 0, BuildingBlock: CEKHIL_clean_sbu_0, # of connection points: 4
#     Node 12, Type 0, BuildingBlock: CEKHIL_clean_sbu_0, # of connection points: 4
#     Node 13, Type 0, BuildingBlock: CEKHIL_clean_sbu_0, # of connection points: 4
#     Node 14, Type 0, BuildingBlock: CEKHIL_clean_sbu_0, # of connection points: 4
#     Node 15, Type 0, BuildingBlock: CEKHIL_clean_sbu_0, # of connection points: 4
#     Edge 16, Type (0, 0), BuildingBlock: MIFKUJ_clean_linker_0, # of connection points: 2
#     Edge 17, Type (0, 0), BuildingBlock: MIFKUJ_clean_linker_0, # of connection points: 2
#     Edge 18, Type (0, 0), BuildingBlock: MIFKUJ_clean_linker_0, # of connection points: 2
#     Edge 19, Type (0, 0), BuildingBlock: MIFKUJ_clean_linker_0, # of connection points: 2
#     Edge 20, Type (0, 0), BuildingBlock: MIFKUJ_clean_linker_0, # of connection points: 2
#     Edge 21, Type (0, 0), BuildingBlock: MIFKUJ_clean_linker_0, # of connection points: 2
#     Edge 22, Type (0, 0), BuildingBlock: MIFKUJ_clean_linker_0, # of connection points: 2
#     Edge 23, Type (0, 0), BuildingBlock: MIFKUJ_clean_linker_0, # of connection points: 2
#     Edge 24, Type (0, 0), BuildingBlock: MIFKUJ_clean_linker_0, # of connection points: 2
#     Edge 25, Type (0, 0), BuildingBlock: MIFKUJ_clean_linker_0, # of connection points: 2
#     Edge 26, Type (0, 0), BuildingBlock: MIFKUJ_clean_linker_0, # of connection points: 2
#     Edge 27, Type (0, 0), BuildingBlock: MIFKUJ_clean_linker_0, # of connection points: 2
#     Edge 28, Type (0, 0), BuildingBlock: MIFKUJ_clean_linker_0, # of connection points: 2
#     Edge 29, Type (0, 0), BuildingBlock: MIFKUJ_clean_linker_0, # of connection points: 2
#     Edge 30, Type (0, 0), BuildingBlock: MIFKUJ_clean_linker_0, # of connection points: 2
#     Edge 31, Type (0, 0), BuildingBlock: MIFKUJ_clean_linker_0, # of connection points: 2
#     Edge 32, Type (0, 0), BuildingBlock: MIFKUJ_clean_linker_0, # of connection points: 2
#     Edge 33, Type (0, 0), BuildingBlock: MIFKUJ_clean_linker_0, # of connection points: 2
#     Edge 34, Type (0, 0), BuildingBlock: MIFKUJ_clean_linker_0, # of connection points: 2
#     Edge 35, Type (0, 0), BuildingBlock: MIFKUJ_clean_linker_0, # of connection points: 2
#     Edge 36, Type (0, 0), BuildingBlock: MIFKUJ_clean_linker_0, # of connection points: 2
#     Edge 37, Type (0, 0), BuildingBlock: MIFKUJ_clean_linker_0, # of connection points: 2
#     Edge 38, Type (0, 0), BuildingBlock: MIFKUJ_clean_linker_0, # of connection points: 2
#     Edge 39, Type (0, 0), BuildingBlock: MIFKUJ_clean_linker_0, # of connection points: 2
#     Edge 40, Type (0, 0), BuildingBlock: MIFKUJ_clean_linker_0, # of connection points: 2
#     Edge 41, Type (0, 0), BuildingBlock: MIFKUJ_clean_linker_0, # of connection points: 2
#     Edge 42, Type (0, 0), BuildingBlock: MIFKUJ_clean_linker_0, # of connection points: 2
#     Edge 43, Type (0, 0), BuildingBlock: MIFKUJ_clean_linker_0, # of connection points: 2
#     Edge 44, Type (0, 0), BuildingBlock: MIFKUJ_clean_linker_0, # of connection points: 2
#     Edge 45, Type (0, 0), BuildingBlock: MIFKUJ_clean_linker_0, # of connection points: 2
#     Edge 46, Type (0, 0), BuildingBlock: MIFKUJ_clean_linker_0, # of connection points: 2
#     Edge 47, Type (0, 0), BuildingBlock: MIFKUJ_clean_linker_0, # of connection points: 2
# Relax obj value: 0.126
# Max RMSD: 0.120
# Mean RMSD: 0.120
data_MOF--net-tzs--node1-CEKHIL_clean_sbu_0--edge1-MIFKUJ_clean_linker_0
_symmetry_space_group_name_H-M    P1
_symmetry_Int_Tables_number       1
_symmetry_cell_setting            triclinic
loop_
_symmetry_equiv_pos_as_xyz
'x, y, z'
_cell_length_a     62.492489
_cell_length_b     62.476476
_cell_length_c     50.922672
_cell_angle_alpha  89.996317
_cell_angle_beta   90.008662
_cell_angle_gamma 89.994554
loop_
_atom_site_label
_atom_site_type_symbol
_atom_site_fract_x
_atom_site_fract_y
_atom_site_fract_z
_atom_type_partial_charge
Co0 Co 0.14726 0.34881 0.1919 0.0
O1 O 0.15525 0.31888 0.19247 0.0
O2 O 0.1759 0.34546 0.20584 0.0
C3 C 0.11414 0.34408 0.20878 0.0
O4 O 0.14464 0.38139 0.19644 0.0
Co5 Co 0.1088 0.36682 0.1602 0.0
O6 O 0.11139 0.39121 0.18487 0.0
C7 C 0.14893 0.3551 0.13268 0.0
C8 C 0.17334 0.32498 0.2026 0.0
C9 C 0.12912 0.39503 0.19628 0.0
O10 O 0.1586 0.35149 0.15465 0.0
O11 O 0.12917 0.3603 0.13101 0.0
O12 O 0.13065 0.345 0.22432 0.0
O13 O 0.11833 0.34468 0.18403 0.0
Co14 Co 0.65692 0.14877 0.19456 0.0
O15 O 0.68694 0.15615 0.19695 0.0
O16 O 0.66037 0.17662 0.21073 0.0
C17 C 0.66021 0.11474 0.20902 0.0
O18 O 0.62421 0.14645 0.1975 0.0
Co19 Co 0.63981 0.11256 0.15821 0.0
O20 O 0.61313 0.11579 0.17884 0.0
C21 C 0.65467 0.15329 0.13528 0.0
C22 C 0.68088 0.1739 0.20797 0.0
C23 C 0.60962 0.13231 0.19287 0.0
O24 O 0.65566 0.16206 0.15818 0.0
O25 O 0.65023 0.13355 0.13149 0.0
O26 O 0.65941 0.13047 0.22577 0.0
O27 O 0.66069 0.12024 0.18466 0.0
Co28 Co 0.85672 0.65845 0.19093 0.0
O29 O 0.84897 0.68829 0.19432 0.0
O30 O 0.82778 0.66113 0.20422 0.0
C31 C 0.88957 0.66153 0.20922 0.0
O32 O 0.85921 0.62571 0.19206 0.0
Co33 Co 0.89575 0.64319 0.15785 0.0
O34 O 0.89217 0.61646 0.17851 0.0
C35 C 0.85714 0.66018 0.13174 0.0
C36 C 0.83061 0.68173 0.20315 0.0
C37 C 0.87451 0.61196 0.18977 0.0
O38 O 0.84624 0.65845 0.15316 0.0
O39 O 0.87731 0.65684 0.13035 0.0
O40 O 0.87276 0.65989 0.22418 0.0
O41 O 0.88573 0.66283 0.18444 0.0
Co42 Co 0.34736 0.85715 0.19431 0.0
O43 O 0.3173 0.84964 0.19579 0.0
O44 O 0.34384 0.82889 0.20922 0.0
C45 C 0.34416 0.89067 0.21067 0.0
O46 O 0.38002 0.85922 0.19749 0.0
Co47 Co 0.36472 0.89476 0.16028 0.0
O48 O 0.39103 0.89096 0.18166 0.0
C49 C 0.34715 0.8559 0.13538 0.0
C50 C 0.32338 0.83167 0.20626 0.0
C51 C 0.39448 0.87373 0.19441 0.0
O52 O 0.34884 0.84543 0.15714 0.0
O53 O 0.35058 0.87603 0.13347 0.0
O54 O 0.34466 0.87435 0.22654 0.0
O55 O 0.34379 0.88602 0.18605 0.0
Co56 Co 0.14289 0.6525 0.31009 0.0
O57 O 0.15052 0.68249 0.30778 0.0
O58 O 0.17124 0.65567 0.2953 0.0
C59 C 0.10947 0.65574 0.29343 0.0
O60 O 0.14063 0.61979 0.30773 0.0
Co61 Co 0.10516 0.63601 0.34447 0.0
O62 O 0.1089 0.60925 0.32398 0.0
C63 C 0.14449 0.65252 0.3693 0.0
C64 C 0.16853 0.67621 0.29761 0.0
C65 C 0.12609 0.60543 0.31133 0.0
O66 O 0.15462 0.65156 0.34726 0.0
O67 O 0.12442 0.64894 0.37164 0.0
O68 O 0.12588 0.65477 0.27774 0.0
O69 O 0.11397 0.65645 0.3181 0.0
Co70 Co 0.35202 0.14491 0.30749 0.0
O71 O 0.32199 0.15189 0.3038 0.0
O72 O 0.34867 0.17352 0.29342 0.0
C73 C 0.34986 0.11167 0.29017 0.0
O74 O 0.3848 0.14331 0.30634 0.0
Co75 Co 0.36836 0.10723 0.34197 0.0
O76 O 0.39649 0.11301 0.3254 0.0
C77 C 0.34864 0.14518 0.36624 0.0
C78 C 0.32814 0.17027 0.29457 0.0
C79 C 0.39984 0.12994 0.31204 0.0
O80 O 0.35149 0.15604 0.34498 0.0
O81 O 0.35215 0.12505 0.3679 0.0
O82 O 0.35108 0.12824 0.27474 0.0
O83 O 0.34845 0.1159 0.31484 0.0
Co84 Co 0.86082 0.35441 0.3082 0.0
O85 O 0.85398 0.32417 0.30713 0.0
O86 O 0.83223 0.35012 0.29454 0.0
C87 C 0.89404 0.35133 0.29095 0.0
O88 O 0.86215 0.38716 0.30416 0.0
Co89 Co 0.8986 0.37343 0.34033 0.0
O90 O 0.89447 0.3986 0.31734 0.0
C91 C 0.85938 0.35905 0.36767 0.0
C92 C 0.83557 0.32972 0.29739 0.0
C93 C 0.87677 0.40173 0.30556 0.0
O94 O 0.84961 0.35606 0.34563 0.0
O95 O 0.879 0.36475 0.3694 0.0
O96 O 0.8774 0.35151 0.27559 0.0
O97 O 0.88996 0.35146 0.31574 0.0
Co98 Co 0.65172 0.8616 0.30732 0.0
O99 O 0.68176 0.85459 0.30385 0.0
O100 O 0.65511 0.83251 0.29493 0.0
C101 C 0.65352 0.89414 0.28793 0.0
O102 O 0.6189 0.863 0.30645 0.0
Co103 Co 0.63542 0.90077 0.33939 0.0
O104 O 0.60801 0.89516 0.32103 0.0
C105 C 0.65515 0.8638 0.3661 0.0
C106 C 0.67563 0.83586 0.2957 0.0
C107 C 0.60427 0.87734 0.30974 0.0
O108 O 0.6525 0.85204 0.34549 0.0
O109 O 0.65136 0.88392 0.36647 0.0
O110 O 0.65244 0.87695 0.27353 0.0
O111 O 0.65514 0.89089 0.3128 0.0
Co112 Co 0.85056 0.64211 0.80468 0.0
O113 O 0.82065 0.64981 0.80196 0.0
O114 O 0.8476 0.67117 0.79184 0.0
C115 C 0.84739 0.60939 0.78604 0.0
O116 O 0.8833 0.63982 0.80297 0.0
Co117 Co 0.86632 0.60286 0.837 0.0
O118 O 0.89376 0.60777 0.81838 0.0
C119 C 0.84873 0.64093 0.86375 0.0
C120 C 0.82703 0.66831 0.79334 0.0
C121 C 0.89774 0.62533 0.80658 0.0
O122 O 0.85087 0.65219 0.84264 0.0
O123 O 0.85197 0.62071 0.8645 0.0
O124 O 0.84882 0.62632 0.77124 0.0
O125 O 0.84636 0.61303 0.81086 0.0
Co126 Co 0.3602 0.85074 0.80721 0.0
O127 O 0.35277 0.82073 0.80435 0.0
O128 O 0.331 0.84753 0.79501 0.0
C129 C 0.39272 0.8478 0.78794 0.0
O130 O 0.36191 0.88354 0.80563 0.0
Co131 Co 0.39989 0.8675 0.83795 0.0
O132 O 0.39495 0.89402 0.81739 0.0
C133 C 0.363 0.8484 0.86593 0.0
C134 C 0.33408 0.82698 0.79619 0.0
C135 C 0.3768 0.89782 0.80699 0.0
O136 O 0.35092 0.85055 0.8455 0.0
O137 O 0.3831 0.85237 0.86577 0.0
O138 O 0.37563 0.84929 0.7734 0.0
O139 O 0.38935 0.84691 0.81279 0.0
Co140 Co 0.15165 0.35768 0.81006 0.0
O141 O 0.18192 0.35084 0.80923 0.0
O142 O 0.1561 0.32951 0.7953 0.0
C143 C 0.15461 0.39135 0.79414 0.0
O144 O 0.11898 0.359 0.80548 0.0
Co145 Co 0.1322 0.39448 0.84361 0.0
O146 O 0.10613 0.3896 0.82251 0.0
C147 C 0.14652 0.3546 0.86941 0.0
C148 C 0.17646 0.33271 0.79861 0.0
C149 C 0.10367 0.37256 0.80913 0.0
O150 O 0.14955 0.34542 0.847 0.0
O151 O 0.141 0.37421 0.87188 0.0
O152 O 0.15489 0.3751 0.77816 0.0
O153 O 0.1543 0.38667 0.81877 0.0
Co154 Co 0.64254 0.15347 0.8115 0.0
O155 O 0.65041 0.18341 0.80953 0.0
O156 O 0.67174 0.1565 0.79919 0.0
C157 C 0.61022 0.15734 0.79206 0.0
O158 O 0.64026 0.12068 0.809 0.0
Co159 Co 0.60244 0.1369 0.84148 0.0
O160 O 0.60728 0.11036 0.82111 0.0
C161 C 0.63986 0.15409 0.87054 0.0
C162 C 0.66891 0.17707 0.80091 0.0
C163 C 0.62533 0.10644 0.81054 0.0
O164 O 0.65179 0.15289 0.84985 0.0
O165 O 0.61976 0.1501 0.87019 0.0
O166 O 0.62734 0.15571 0.77767 0.0
O167 O 0.6134 0.15777 0.81699 0.0
Co168 Co 0.84792 0.3546 0.69083 0.0
O169 O 0.81774 0.34788 0.69384 0.0
O170 O 0.84409 0.32652 0.70616 0.0
C171 C 0.84608 0.38838 0.70674 0.0
O172 O 0.88067 0.35587 0.69275 0.0
Co173 Co 0.86524 0.39122 0.65523 0.0
O174 O 0.89311 0.38526 0.67231 0.0
C175 C 0.84556 0.35281 0.63203 0.0
C176 C 0.82361 0.32977 0.70417 0.0
C177 C 0.89602 0.36872 0.68651 0.0
O178 O 0.84802 0.34245 0.65377 0.0
O179 O 0.84918 0.37287 0.6298 0.0
O180 O 0.84656 0.37221 0.72286 0.0
O181 O 0.8449 0.38348 0.68224 0.0
Co182 Co 0.64728 0.84956 0.69426 0.0
O183 O 0.6547 0.81953 0.69628 0.0
O184 O 0.67573 0.84608 0.70881 0.0
C185 C 0.61381 0.84622 0.71063 0.0
O186 O 0.64501 0.88226 0.69713 0.0
Co187 Co 0.6096 0.86643 0.65996 0.0
O188 O 0.61293 0.89262 0.68167 0.0
C189 C 0.6488 0.84969 0.63515 0.0
C190 C 0.67282 0.82557 0.70636 0.0
C191 C 0.63014 0.89641 0.69429 0.0
O192 O 0.65903 0.85092 0.65711 0.0
O193 O 0.62869 0.85309 0.63296 0.0
O194 O 0.6301 0.84694 0.72653 0.0
O195 O 0.61847 0.8458 0.68603 0.0
Co196 Co 0.15673 0.64345 0.69752 0.0
O197 O 0.18648 0.65177 0.69996 0.0
O198 O 0.15917 0.67321 0.7081 0.0
C199 C 0.1609 0.61203 0.71891 0.0
O200 O 0.12401 0.64071 0.69919 0.0
Co201 Co 0.14139 0.602 0.66954 0.0
O202 O 0.11517 0.60653 0.69082 0.0
C203 C 0.15746 0.63885 0.6385 0.0
C204 C 0.17979 0.67051 0.70731 0.0
C205 C 0.11053 0.62506 0.6996 0.0
O206 O 0.15645 0.6513 0.65874 0.0
O207 O 0.15378 0.6187 0.63966 0.0
O208 O 0.15851 0.62963 0.73224 0.0
O209 O 0.16173 0.61419 0.69383 0.0
Co210 Co 0.35732 0.155 0.69283 0.0
O211 O 0.35017 0.18505 0.69556 0.0
O212 O 0.32857 0.15849 0.70645 0.0
C213 C 0.39038 0.1576 0.71055 0.0
O214 O 0.35924 0.1222 0.69485 0.0
Co215 Co 0.39559 0.13857 0.65925 0.0
O216 O 0.39109 0.11159 0.679 0.0
C217 C 0.35739 0.15679 0.63377 0.0
C218 C 0.33178 0.17901 0.70484 0.0
C219 C 0.37377 0.10777 0.69136 0.0
O220 O 0.34651 0.15462 0.65516 0.0
O221 O 0.37755 0.15341 0.63239 0.0
O222 O 0.37369 0.15676 0.72581 0.0
O223 O 0.38634 0.15861 0.68581 0.0
H224 H 0.33571 0.21216 0.2816 0.0
H225 H 0.30988 0.23871 0.26575 0.0
H226 H 0.25953 0.19168 0.2703 0.0
H227 H 0.28521 0.16511 0.28639 0.0
H228 H 0.25974 0.2148 0.22276 0.0
H229 H 0.26202 0.2287 0.31586 0.0
H230 H 0.27977 0.23678 0.35795 0.0
H231 H 0.30425 0.29546 0.32595 0.0
H232 H 0.28689 0.28757 0.28351 0.0
H233 H 0.1692 0.2816 0.20708 0.0
H234 H 0.19588 0.25587 0.22229 0.0
H235 H 0.24179 0.30693 0.2314 0.0
H236 H 0.2148 0.33287 0.21716 0.0
H237 H 0.24491 0.28198 0.27139 0.0
H238 H 0.24328 0.26943 0.17894 0.0
H239 H 0.22696 0.26194 0.13582 0.0
H240 H 0.20338 0.20177 0.1645 0.0
H241 H 0.21932 0.20903 0.20793 0.0
C242 C 0.31913 0.20748 0.2793 0.0
C243 C 0.31251 0.18653 0.28533 0.0
C244 C 0.30438 0.22269 0.27028 0.0
C245 C 0.28274 0.21722 0.26692 0.0
C246 C 0.27613 0.19627 0.27272 0.0
C247 C 0.29082 0.18112 0.28203 0.0
C248 C 0.267 0.23329 0.25726 0.0
C249 C 0.25628 0.22938 0.23352 0.0
C250 C 0.26298 0.25262 0.27089 0.0
C251 C 0.27334 0.25743 0.29643 0.0
C252 C 0.27134 0.24323 0.31772 0.0
C253 C 0.2813 0.2478 0.34166 0.0
C254 C 0.29318 0.26659 0.3446 0.0
C255 C 0.29507 0.28089 0.32363 0.0
C256 C 0.28516 0.27639 0.29964 0.0
C257 C 0.18501 0.28735 0.21219 0.0
C258 C 0.18989 0.30929 0.21079 0.0
C259 C 0.20034 0.27258 0.22078 0.0
C260 C 0.22108 0.27931 0.22763 0.0
C261 C 0.22596 0.30125 0.22623 0.0
C262 C 0.21053 0.31608 0.21798 0.0
C263 C 0.23747 0.26354 0.23678 0.0
C264 C 0.24835 0.26747 0.26047 0.0
C265 C 0.24185 0.24435 0.22289 0.0
C266 C 0.23233 0.23987 0.19676 0.0
C267 C 0.23449 0.25466 0.17611 0.0
C268 C 0.22533 0.25045 0.1516 0.0
C269 C 0.2141 0.23141 0.14744 0.0
C270 C 0.21206 0.21652 0.16776 0.0
C271 C 0.22118 0.22067 0.19232 0.0
H272 H 0.20701 0.22818 0.12846 0.0
H273 H 0.30088 0.2701 0.36315 0.0
H274 H 0.79313 0.33613 0.28668 0.0
H275 H 0.76675 0.30956 0.27223 0.0
H276 H 0.81518 0.26046 0.27447 0.0
H277 H 0.84156 0.28685 0.2894 0.0
H278 H 0.78992 0.26145 0.227 0.0
H279 H 0.78088 0.26026 0.32094 0.0
H280 H 0.77454 0.27636 0.36445 0.0
H281 H 0.71356 0.2999 0.33844 0.0
H282 H 0.71968 0.28421 0.29461 0.0
H283 H 0.7244 0.17 0.21073 0.0
H284 H 0.75028 0.19642 0.2263 0.0
H285 H 0.699 0.24111 0.24093 0.0
H286 H 0.67296 0.21442 0.22616 0.0
H287 H 0.72577 0.243 0.27974 0.0
H288 H 0.7336 0.24534 0.18658 0.0
H289 H 0.73919 0.231 0.142 0.0
H290 H 0.80118 0.20771 0.16452 0.0
H291 H 0.79584 0.22166 0.20937 0.0
C292 C 0.79814 0.31966 0.28421 0.0
C293 C 0.81943 0.31359 0.28925 0.0
C294 C 0.78304 0.30449 0.27598 0.0
C295 C 0.78899 0.28301 0.27231 0.0
C296 C 0.81025 0.27694 0.27716 0.0
C297 C 0.82528 0.29202 0.28581 0.0
C298 C 0.77305 0.26694 0.2632 0.0
C299 C 0.77603 0.25718 0.23866 0.0
C300 C 0.75459 0.26189 0.27804 0.0
C301 C 0.75085 0.27126 0.3044 0.0
C302 C 0.76621 0.26904 0.32441 0.0
C303 C 0.76264 0.27806 0.34915 0.0
C304 C 0.74369 0.2892 0.35419 0.0
C305 C 0.72825 0.2913 0.3345 0.0
C306 C 0.73175 0.28233 0.30971 0.0
C307 C 0.71862 0.18547 0.21721 0.0
C308 C 0.6966 0.19012 0.21709 0.0
C309 C 0.73347 0.20064 0.22601 0.0
C310 C 0.72672 0.22099 0.23444 0.0
C311 C 0.70469 0.22559 0.23451 0.0
C312 C 0.6898 0.21032 0.22597 0.0
C313 C 0.74258 0.23733 0.24343 0.0
C314 C 0.73961 0.24721 0.26798 0.0
C315 C 0.76092 0.24273 0.22839 0.0
C316 C 0.76422 0.23436 0.20142 0.0
C317 C 0.74836 0.23702 0.18209 0.0
C318 C 0.75149 0.22898 0.15676 0.0
C319 C 0.77051 0.2184 0.15045 0.0
C320 C 0.78645 0.21588 0.16945 0.0
C321 C 0.78338 0.22387 0.19482 0.0
H322 H 0.77291 0.21219 0.13083 0.0
H323 H 0.74095 0.29616 0.37335 0.0
H324 H 0.8355 0.7243 0.21364 0.0
H325 H 0.80858 0.74943 0.23002 0.0
H326 H 0.76126 0.69923 0.22941 0.0
H327 H 0.78826 0.67384 0.2134 0.0
H328 H 0.74722 0.73919 0.20688 0.0
H329 H 0.78019 0.7123 0.28546 0.0
H330 H 0.81042 0.70348 0.31464 0.0
H331 H 0.82886 0.76967 0.3167 0.0
H332 H 0.7989 0.77884 0.2872 0.0
H333 H 0.66747 0.79494 0.27914 0.0
H334 H 0.69319 0.76817 0.26388 0.0
H335 H 0.74482 0.81275 0.27692 0.0
H336 H 0.71922 0.83942 0.29272 0.0
H337 H 0.75633 0.77458 0.29339 0.0
H338 H 0.72505 0.80203 0.21458 0.0
H339 H 0.69594 0.81187 0.18419 0.0
H340 H 0.67559 0.74628 0.1809 0.0
H341 H 0.70442 0.73609 0.21158 0.0
C342 C 0.81936 0.71859 0.21691 0.0
C343 C 0.81403 0.69705 0.21225 0.0
C344 C 0.804 0.73297 0.22636 0.0
C345 C 0.78293 0.72619 0.23107 0.0
C346 C 0.77743 0.7048 0.22593 0.0
C347 C 0.79288 0.6903 0.21685 0.0
C348 C 0.76676 0.74145 0.24154 0.0
C349 C 0.749 0.7467 0.22596 0.0
C350 C 0.76943 0.75168 0.26613 0.0
C351 C 0.78743 0.74622 0.28389 0.0
C352 C 0.79081 0.72495 0.29193 0.0
C353 C 0.80787 0.71989 0.30857 0.0
C354 C 0.82159 0.73599 0.31746 0.0
C355 C 0.81824 0.7572 0.30977 0.0
C356 C 0.80121 0.76234 0.2931 0.0
C357 C 0.6843 0.79904 0.27883 0.0
C358 C 0.69126 0.81936 0.28708 0.0
C359 C 0.69901 0.78373 0.26995 0.0
C360 C 0.72099 0.78848 0.26885 0.0
C361 C 0.72799 0.80866 0.27752 0.0
C362 C 0.7133 0.82393 0.2865 0.0
C363 C 0.73669 0.77247 0.2587 0.0
C364 C 0.75442 0.76707 0.27433 0.0
C365 C 0.73412 0.76228 0.23402 0.0
C366 C 0.71674 0.76834 0.21561 0.0
C367 C 0.71425 0.78973 0.20756 0.0
C368 C 0.69783 0.79537 0.19025 0.0
C369 C 0.68389 0.77972 0.18069 0.0
C370 C 0.68638 0.75839 0.18837 0.0
C371 C 0.70276 0.75267 0.2057 0.0
H372 H 0.67119 0.78411 0.16727 0.0
H373 H 0.83478 0.73205 0.33035 0.0
H374 H 0.32635 0.80513 0.24851 0.0
H375 H 0.30005 0.77903 0.26385 0.0
H376 H 0.25946 0.79424 0.19776 0.0
H377 H 0.28501 0.82168 0.1838 0.0
H378 H 0.23504 0.78854 0.23436 0.0
H379 H 0.29318 0.7456 0.20449 0.0
H380 H 0.33053 0.73311 0.20109 0.0
H381 H 0.33064 0.71743 0.28319 0.0
H382 H 0.29337 0.73007 0.28715 0.0
H383 H 0.20155 0.66909 0.26352 0.0
H384 H 0.2274 0.69507 0.24668 0.0
H385 H 0.19908 0.74412 0.29524 0.0
H386 H 0.1725 0.71842 0.31097 0.0
H387 H 0.25763 0.71657 0.26463 0.0
H388 H 0.20433 0.79303 0.26966 0.0
H389 H 0.1663 0.80295 0.26489 0.0
H390 H 0.15525 0.74697 0.21788 0.0
H391 H 0.19324 0.73688 0.22208 0.0
C392 C 0.3118 0.80284 0.23728 0.0
C393 C 0.30775 0.81532 0.2149 0.0
C394 C 0.2968 0.78775 0.24593 0.0
C395 C 0.27782 0.78407 0.2317 0.0
C396 C 0.27386 0.79662 0.20924 0.0
C397 C 0.28852 0.81226 0.20114 0.0
C398 C 0.26196 0.76751 0.24044 0.0
C399 C 0.24008 0.7728 0.24088 0.0
C400 C 0.26817 0.74664 0.24847 0.0
C401 C 0.29055 0.73895 0.24616 0.0
C402 C 0.30122 0.7396 0.22185 0.0
C403 C 0.32236 0.73248 0.21982 0.0
C404 C 0.33296 0.72453 0.24193 0.0
C405 C 0.32242 0.72362 0.26609 0.0
C406 C 0.30128 0.73073 0.26824 0.0
C407 C 0.20082 0.68543 0.27056 0.0
C408 C 0.18488 0.69173 0.28843 0.0
C409 C 0.21567 0.7003 0.26096 0.0
C410 C 0.21512 0.72178 0.26927 0.0
C411 C 0.19958 0.72788 0.28783 0.0
C412 C 0.18445 0.71311 0.297 0.0
C413 C 0.23081 0.73768 0.25861 0.0
C414 C 0.25264 0.73229 0.25796 0.0
C415 C 0.22445 0.75806 0.24917 0.0
C416 C 0.20158 0.76409 0.24645 0.0
C417 C 0.19379 0.78288 0.25825 0.0
C418 C 0.17224 0.78852 0.25565 0.0
C419 C 0.15835 0.77556 0.24117 0.0
C420 C 0.166 0.75696 0.22918 0.0
C421 C 0.18753 0.75125 0.23169 0.0
H422 H 0.14168 0.77995 0.2392 0.0
H423 H 0.34934 0.71903 0.24032 0.0
H424 H 0.71476 0.83288 0.71934 0.0
H425 H 0.74136 0.80669 0.73431 0.0
H426 H 0.6942 0.75653 0.72885 0.0
H427 H 0.66764 0.78253 0.71351 0.0
H428 H 0.71802 0.75635 0.77667 0.0
H429 H 0.73001 0.75894 0.68322 0.0
H430 H 0.7373 0.77686 0.64101 0.0
H431 H 0.79677 0.80084 0.67133 0.0
H432 H 0.78968 0.78331 0.71387 0.0
H433 H 0.78363 0.66465 0.78848 0.0
H434 H 0.75815 0.69188 0.77417 0.0
H435 H 0.80965 0.73737 0.76585 0.0
H436 H 0.83535 0.7099 0.77942 0.0
H437 H 0.784 0.74114 0.72582 0.0
H438 H 0.77338 0.73873 0.81855 0.0
H439 H 0.76665 0.722 0.86162 0.0
H440 H 0.70556 0.69956 0.8346 0.0
H441 H 0.71205 0.7159 0.79121 0.0
C442 C 0.71007 0.81627 0.72126 0.0
C443 C 0.68909 0.80978 0.71515 0.0
C444 C 0.72529 0.80132 0.72979 0.0
C445 C 0.71978 0.77964 0.73265 0.0
C446 C 0.6988 0.77317 0.72681 0.0
C447 C 0.68367 0.78804 0.71793 0.0
C448 C 0.73588 0.76367 0.74169 0.0
C449 C 0.73234 0.75282 0.76543 0.0
C450 C 0.75486 0.75954 0.72742 0.0
C451 C 0.7592 0.77001 0.70182 0.0
C452 C 0.74455 0.76819 0.68096 0.0
C453 C 0.74866 0.77825 0.65696 0.0
C454 C 0.76746 0.79004 0.65351 0.0
C455 C 0.7822 0.79174 0.67404 0.0
C456 C 0.77815 0.78173 0.6981 0.0
C457 C 0.78955 0.68047 0.7837 0.0
C458 C 0.81154 0.68511 0.78522 0.0
C459 C 0.77492 0.6961 0.77562 0.0
C460 C 0.78184 0.71689 0.76929 0.0
C461 C 0.80384 0.72152 0.77065 0.0
C462 C 0.81853 0.7058 0.77851 0.0
C463 C 0.76618 0.73363 0.76087 0.0
C464 C 0.76977 0.74467 0.73721 0.0
C465 C 0.74734 0.73812 0.77541 0.0
C466 C 0.7433 0.72838 0.80154 0.0
C467 C 0.75858 0.7301 0.82172 0.0
C468 C 0.75479 0.72071 0.84621 0.0
C469 C 0.73571 0.70968 0.85083 0.0
C470 C 0.72034 0.70808 0.83099 0.0
C471 C 0.72406 0.71743 0.80645 0.0
H472 H 0.73282 0.70241 0.86979 0.0
H473 H 0.77061 0.79781 0.63492 0.0
H474 H 0.17133 0.71278 0.71795 0.0
H475 H 0.19655 0.74021 0.73325 0.0
H476 H 0.24773 0.69396 0.73134 0.0
H477 H 0.22275 0.66659 0.71585 0.0
H478 H 0.24653 0.71764 0.77806 0.0
H479 H 0.24486 0.73041 0.68451 0.0
H480 H 0.22728 0.73797 0.64216 0.0
H481 H 0.20227 0.79681 0.67309 0.0
H482 H 0.21946 0.78944 0.71577 0.0
H483 H 0.33779 0.78353 0.79141 0.0
H484 H 0.31064 0.75805 0.77683 0.0
H485 H 0.26515 0.80954 0.76833 0.0
H486 H 0.29251 0.83523 0.78222 0.0
H487 H 0.26167 0.78409 0.72808 0.0
H488 H 0.26305 0.77311 0.82057 0.0
H489 H 0.27906 0.76633 0.86404 0.0
H490 H 0.30226 0.7054 0.83736 0.0
H491 H 0.28663 0.71194 0.79359 0.0
C492 C 0.18798 0.7085 0.72065 0.0
C493 C 0.19503 0.6875 0.7156 0.0
C494 C 0.20238 0.72419 0.72937 0.0
C495 C 0.22407 0.71916 0.73341 0.0
C496 C 0.23109 0.69821 0.72842 0.0
C497 C 0.21678 0.68261 0.71943 0.0
C498 C 0.23946 0.73561 0.74306 0.0
C499 C 0.25003 0.73207 0.76701 0.0
C500 C 0.24351 0.75478 0.7291 0.0
C501 C 0.23326 0.75926 0.70342 0.0
C502 C 0.23546 0.74487 0.68235 0.0
C503 C 0.2256 0.74914 0.65827 0.0
C504 C 0.21361 0.76783 0.65496 0.0
C505 C 0.21153 0.78232 0.6757 0.0
C506 C 0.22134 0.77811 0.69983 0.0
C507 C 0.32199 0.78945 0.78655 0.0
C508 C 0.31732 0.81143 0.78809 0.0
C509 C 0.3064 0.77481 0.77831 0.0
C510 C 0.28564 0.78174 0.7718 0.0
C511 C 0.28098 0.80372 0.77325 0.0
C512 C 0.29664 0.81841 0.7813 0.0
C513 C 0.269 0.76609 0.76306 0.0
C514 C 0.25815 0.76975 0.73928 0.0
C515 C 0.26446 0.74716 0.77739 0.0
C516 C 0.27383 0.74311 0.80371 0.0
C517 C 0.2717 0.75833 0.8239 0.0
C518 C 0.28069 0.75452 0.84861 0.0
C519 C 0.29171 0.73547 0.85344 0.0
C520 C 0.29373 0.72016 0.83358 0.0
C521 C 0.28479 0.72391 0.80883 0.0
H522 H 0.29866 0.73255 0.87258 0.0
H523 H 0.20599 0.7711 0.6363 0.0
H524 H 0.16944 0.29176 0.78167 0.0
H525 H 0.19589 0.26575 0.76622 0.0
H526 H 0.24637 0.31141 0.78009 0.0
H527 H 0.21998 0.33751 0.79573 0.0
H528 H 0.24938 0.29139 0.73102 0.0
H529 H 0.24016 0.271 0.82152 0.0
H530 H 0.21932 0.26064 0.86061 0.0
H531 H 0.19559 0.20528 0.82001 0.0
H532 H 0.21606 0.21549 0.78052 0.0
H533 H 0.33762 0.22159 0.71462 0.0
H534 H 0.31146 0.2474 0.73087 0.0
H535 H 0.26295 0.19823 0.73106 0.0
H536 H 0.28942 0.1721 0.7159 0.0
H537 H 0.25857 0.22033 0.77299 0.0
H538 H 0.26631 0.23978 0.68264 0.0
H539 H 0.2856 0.24975 0.6422 0.0
H540 H 0.30999 0.30608 0.6801 0.0
H541 H 0.29107 0.2963 0.72089 0.0
C542 C 0.18618 0.29626 0.78155 0.0
C543 C 0.1926 0.31671 0.79001 0.0
C544 C 0.2013 0.28134 0.77276 0.0
C545 C 0.22315 0.28657 0.7721 0.0
C546 C 0.2296 0.30701 0.78042 0.0
C547 C 0.21451 0.32188 0.78947 0.0
C548 C 0.23922 0.27077 0.76247 0.0
C549 C 0.25162 0.27596 0.74039 0.0
C550 C 0.24168 0.25037 0.77418 0.0
C551 C 0.22949 0.24413 0.79798 0.0
C552 C 0.23037 0.25671 0.82085 0.0
C553 C 0.21864 0.25085 0.8431 0.0
C554 C 0.20609 0.23234 0.84277 0.0
C555 C 0.20529 0.21963 0.82022 0.0
C556 C 0.21697 0.22543 0.79791 0.0
C557 C 0.32136 0.21628 0.718 0.0
C558 C 0.31558 0.1948 0.71382 0.0
C559 C 0.30633 0.23112 0.72719 0.0
C560 C 0.28499 0.22498 0.73179 0.0
C561 C 0.27923 0.20347 0.72766 0.0
C562 C 0.29437 0.18853 0.71888 0.0
C563 C 0.26885 0.24085 0.74138 0.0
C564 C 0.25639 0.23572 0.7635 0.0
C565 C 0.26612 0.26121 0.72945 0.0
C566 C 0.27743 0.2672 0.7049 0.0
C567 C 0.2759 0.25422 0.6824 0.0
C568 C 0.28675 0.25984 0.65941 0.0
C569 C 0.29905 0.27851 0.6586 0.0
C570 C 0.30048 0.29162 0.68076 0.0
C571 C 0.28968 0.28605 0.70382 0.0
H572 H 0.30745 0.28283 0.64078 0.0
H573 H 0.19703 0.22783 0.86001 0.0
H574 H 0.66973 0.22034 0.80903 0.0
H575 H 0.69616 0.24618 0.79301 0.0
H576 H 0.73195 0.19494 0.75714 0.0
H577 H 0.70567 0.16896 0.7733 0.0
H578 H 0.74024 0.24984 0.80131 0.0
H579 H 0.75064 0.2148 0.69742 0.0
H580 H 0.73023 0.19358 0.66511 0.0
H581 H 0.67125 0.21715 0.69728 0.0
H582 H 0.69131 0.23873 0.72951 0.0
H583 H 0.83089 0.29489 0.73541 0.0
H584 H 0.80461 0.26921 0.75224 0.0
H585 H 0.75434 0.30267 0.71128 0.0
H586 H 0.7805 0.3286 0.69464 0.0
H587 H 0.75231 0.25768 0.70545 0.0
H588 H 0.75839 0.3103 0.77404 0.0
H589 H 0.77765 0.33264 0.8062 0.0
H590 H 0.80134 0.27619 0.84454 0.0
H591 H 0.78244 0.2535 0.81235 0.0
C592 C 0.68329 0.21454 0.79787 0.0
C593 C 0.68556 0.19258 0.79241 0.0
C594 C 0.69843 0.22933 0.78879 0.0
C595 C 0.71597 0.22254 0.7737 0.0
C596 C 0.71846 0.20059 0.76856 0.0
C597 C 0.70346 0.18574 0.7779 0.0
C598 C 0.73136 0.23849 0.7629 0.0
C599 C 0.74293 0.25148 0.78036 0.0
C600 C 0.73472 0.24087 0.73554 0.0
C601 C 0.72249 0.22818 0.71605 0.0
C602 C 0.73332 0.2155 0.69753 0.0
C603 C 0.72181 0.2034 0.67924 0.0
C604 C 0.69946 0.20395 0.67921 0.0
C605 C 0.68856 0.21666 0.6974 0.0
C606 C 0.69999 0.2288 0.71571 0.0
C607 C 0.81425 0.29676 0.72991 0.0
C608 C 0.80778 0.31383 0.71372 0.0
C609 C 0.79924 0.2821 0.73961 0.0
C610 C 0.77748 0.28406 0.73312 0.0
C611 C 0.77104 0.30083 0.71654 0.0
C612 C 0.786 0.31568 0.70712 0.0
C613 C 0.76143 0.26878 0.74388 0.0
C614 C 0.74973 0.25592 0.72641 0.0
C615 C 0.75786 0.2666 0.77122 0.0
C616 C 0.76918 0.28021 0.79062 0.0
C617 C 0.76785 0.30265 0.78919 0.0
C618 C 0.77868 0.31538 0.80745 0.0
C619 C 0.79076 0.30584 0.82735 0.0
C620 C 0.792 0.28355 0.82908 0.0
C621 C 0.78122 0.27075 0.81085 0.0
H622 H 0.79912 0.31572 0.84148 0.0
H623 H 0.69058 0.19457 0.66505 0.0
H624 H 0.12238 0.35623 0.91321 0.0
H625 H 0.1333 0.34616 0.95748 0.0
H626 H 0.19093 0.31773 0.92672 0.0
H627 H 0.18 0.32794 0.88188 0.0
H628 H 0.1528 0.30238 0.98213 0.0
H629 H 0.21633 0.34413 0.94856 0.0
H630 H 0.2304 0.3721 0.91894 0.0
H631 H 0.18428 0.41683 0.94894 0.0
H632 H 0.16984 0.389 0.9785 0.0
H633 H 0.17577 0.32251 0.11775 0.0
H634 H 0.18654 0.31403 0.07237 0.0
H635 H 0.15735 0.37273 0.04568 0.0
H636 H 0.14664 0.38107 0.0905 0.0
H637 H 0.1931 0.3643 0.01788 0.0
H638 H 0.12893 0.3261 0.04783 0.0
H639 H 0.10997 0.3006 0.07661 0.0
H640 H 0.15312 0.25056 0.05335 0.0
H641 H 0.17247 0.27588 0.02466 0.0
C642 C 0.13704 0.34719 0.91573 0.0
C643 C 0.15039 0.34292 0.89417 0.0
C644 C 0.14325 0.34144 0.94104 0.0
C645 C 0.16299 0.33142 0.94536 0.0
C646 C 0.17564 0.32552 0.92372 0.0
C647 C 0.16932 0.33119 0.89816 0.0
C648 C 0.17113 0.33048 0.97266 0.0
C649 C 0.16241 0.31535 0.98996 0.0
C650 C 0.18314 0.34773 0.9829 0.0
C651 C 0.19197 0.36452 0.96553 0.0
C652 C 0.20916 0.35992 0.9487 0.0
C653 C 0.2172 0.37573 0.93196 0.0
C654 C 0.20821 0.39622 0.93202 0.0
C655 C 0.19121 0.40095 0.94889 0.0
C656 C 0.18311 0.38518 0.96564 0.0
C657 C 0.17238 0.33389 0.10224 0.0
C658 C 0.16034 0.35241 0.10752 0.0
C659 C 0.17837 0.32897 0.07634 0.0
C660 C 0.17253 0.34263 0.05556 0.0
C661 C 0.16207 0.36195 0.06131 0.0
C662 C 0.15592 0.3667 0.08695 0.0
C663 C 0.17474 0.3362 0.02757 0.0
C664 C 0.18486 0.35037 0.01016 0.0
C665 C 0.16396 0.31807 0.0173 0.0
C666 C 0.15229 0.3029 0.03442 0.0
C667 C 0.13445 0.30969 0.04902 0.0
C668 C 0.12362 0.29528 0.06528 0.0
C669 C 0.13038 0.27399 0.06688 0.0
C670 C 0.14794 0.26707 0.05215 0.0
C671 C 0.15884 0.28143 0.0359 0.0
H672 H 0.12198 0.26285 0.07947 0.0
H673 H 0.21445 0.40844 0.91904 0.0
H674 H 0.61752 0.16917 0.91208 0.0
H675 H 0.63015 0.17804 0.95545 0.0
H676 H 0.69499 0.16402 0.93202 0.0
H677 H 0.68216 0.15452 0.88763 0.0
H678 H 0.68484 0.14516 0.97849 0.0
H679 H 0.68117 0.21581 0.94669 0.0
H680 H 0.66647 0.24676 0.92269 0.0
H681 H 0.61172 0.24746 0.97361 0.0
H682 H 0.6259 0.21632 0.99768 0.0
H683 H 0.69363 0.16339 0.11549 0.0
H684 H 0.70108 0.17322 0.06965 0.0
H685 H 0.63331 0.17909 0.05519 0.0
H686 H 0.62595 0.16914 0.1008 0.0
H687 H 0.65767 0.2088 0.02639 0.0
H688 H 0.65727 0.13192 0.04701 0.0
H689 H 0.67101 0.10021 0.07048 0.0
H690 H 0.7339 0.11192 0.03966 0.0
H691 H 0.72055 0.14388 0.0163 0.0
C692 C 0.63455 0.168 0.91583 0.0
C693 C 0.6488 0.16089 0.89628 0.0
C694 C 0.64179 0.1734 0.94075 0.0
C695 C 0.66358 0.17213 0.94699 0.0
C696 C 0.6781 0.16533 0.92754 0.0
C697 C 0.67078 0.15994 0.90222 0.0
C698 C 0.67021 0.17622 0.97462 0.0
C699 C 0.67961 0.15943 0.98881 0.0
C700 C 0.66323 0.19475 0.98824 0.0
C701 C 0.65465 0.21368 0.97403 0.0
C702 C 0.66595 0.22249 0.95272 0.0
C703 C 0.6577 0.24008 0.93909 0.0
C704 C 0.63818 0.24908 0.94663 0.0
C705 C 0.62687 0.24051 0.96783 0.0
C706 C 0.63504 0.22292 0.98152 0.0
C707 C 0.68045 0.16776 0.10275 0.0
C708 C 0.65925 0.16589 0.1116 0.0
C709 C 0.68469 0.17317 0.07656 0.0
C710 C 0.66774 0.17668 0.05894 0.0
C711 C 0.64663 0.17656 0.06845 0.0
C712 C 0.64242 0.17098 0.09451 0.0
C713 C 0.67137 0.17739 0.03011 0.0
C714 C 0.66378 0.19501 0.01584 0.0
C715 C 0.68007 0.15968 0.01638 0.0
C716 C 0.688 0.1404 0.03022 0.0
C717 C 0.67406 0.1278 0.04541 0.0
C718 C 0.68177 0.10978 0.05866 0.0
C719 C 0.70333 0.10409 0.05663 0.0
C720 C 0.71721 0.11637 0.04127 0.0
C721 C 0.70959 0.13444 0.02803 0.0
H722 H 0.70927 0.09014 0.0669 0.0
H723 H 0.63181 0.26268 0.93604 0.0
H724 H 0.82387 0.62376 0.90159 0.0
H725 H 0.81839 0.63674 0.94609 0.0
H726 H 0.85443 0.69376 0.92798 0.0
H727 H 0.86 0.68066 0.88285 0.0
H728 H 0.8698 0.67295 0.97082 0.0
H729 H 0.80179 0.69781 0.94368 0.0
H730 H 0.76673 0.69636 0.92159 0.0
H731 H 0.74749 0.64456 0.97172 0.0
H732 H 0.78257 0.64543 0.99384 0.0
H733 H 0.86416 0.69615 0.10398 0.0
H734 H 0.85534 0.70213 0.05775 0.0
H735 H 0.81966 0.64301 0.05657 0.0
H736 H 0.82795 0.63743 0.10328 0.0
H737 H 0.80243 0.67279 0.02242 0.0
H738 H 0.87223 0.64311 0.04191 0.0
H739 H 0.90765 0.64273 0.06326 0.0
H740 H 0.92352 0.70237 0.02614 0.0
H741 H 0.88803 0.70325 0.00487 0.0
C742 C 0.83027 0.6393 0.90687 0.0
C743 C 0.84251 0.65114 0.88882 0.0
C744 C 0.82696 0.64679 0.93231 0.0
C745 C 0.83586 0.6663 0.94041 0.0
C746 C 0.8473 0.67871 0.92208 0.0
C747 C 0.85041 0.67128 0.89633 0.0
C748 C 0.83541 0.67197 0.96877 0.0
C749 C 0.85502 0.67359 0.98198 0.0
C750 C 0.81614 0.67215 0.98347 0.0
C751 C 0.7949 0.67164 0.97037 0.0
C752 C 0.79015 0.686 0.9499 0.0
C753 C 0.77025 0.6853 0.93737 0.0
C754 C 0.7549 0.67037 0.94523 0.0
C755 C 0.7594 0.65613 0.96566 0.0
C756 C 0.77928 0.65675 0.97823 0.0
C757 C 0.85369 0.68492 0.09409 0.0
C758 C 0.84661 0.66641 0.10706 0.0
C759 C 0.84879 0.68825 0.06765 0.0
C760 C 0.83725 0.67279 0.05352 0.0
C761 C 0.82862 0.65515 0.06706 0.0
C762 C 0.83328 0.65198 0.09373 0.0
C763 C 0.83681 0.67344 0.02431 0.0
C764 C 0.81712 0.67279 0.01109 0.0
C765 C 0.85601 0.67399 0.00948 0.0
C766 C 0.8774 0.67338 0.02207 0.0
C767 C 0.88322 0.65622 0.03846 0.0
C768 C 0.90331 0.6559 0.05052 0.0
C769 C 0.91781 0.67255 0.04612 0.0
C770 C 0.91226 0.68951 0.02958 0.0
C771 C 0.89216 0.68993 0.01751 0.0
H772 H 0.93336 0.67227 0.05548 0.0
H773 H 0.73951 0.66984 0.9355 0.0
H774 H 0.36706 0.82173 0.11234 0.0
H775 H 0.3638 0.81141 0.0659 0.0
H776 H 0.31167 0.85599 0.05642 0.0
H777 H 0.3151 0.86645 0.10248 0.0
H778 H 0.30776 0.81902 0.02342 0.0
H779 H 0.35813 0.87471 0.04681 0.0
H780 H 0.38849 0.88977 0.07164 0.0
H781 H 0.42962 0.84038 0.04178 0.0
H782 H 0.39936 0.82481 0.01711 0.0
H783 H 0.32568 0.86019 0.89112 0.0
H784 H 0.31696 0.85299 0.93752 0.0
H785 H 0.37249 0.81227 0.94366 0.0
H786 H 0.38126 0.81955 0.89795 0.0
H787 H 0.37357 0.84434 0.97867 0.0
H788 H 0.32345 0.79156 0.94981 0.0
H789 H 0.29278 0.77762 0.92461 0.0
H790 H 0.25098 0.82207 0.96338 0.0
H791 H 0.28147 0.83654 0.98851 0.0
C792 C 0.35436 0.8286 0.10057 0.0
C793 C 0.34136 0.84488 0.11082 0.0
C794 C 0.35253 0.82279 0.07407 0.0
C795 C 0.33761 0.83311 0.05766 0.0
C796 C 0.32322 0.84778 0.06868 0.0
C797 C 0.32524 0.85378 0.09497 0.0
C798 C 0.33949 0.83179 0.02864 0.0
C799 C 0.32212 0.82453 0.01354 0.0
C800 C 0.35821 0.83902 0.0158 0.0
C801 C 0.37644 0.84843 0.03043 0.0
C802 C 0.37361 0.86695 0.04574 0.0
C803 C 0.39079 0.87559 0.05975 0.0
C804 C 0.41096 0.86599 0.05836 0.0
C805 C 0.41398 0.84776 0.04289 0.0
C806 C 0.39682 0.83901 0.0289 0.0
C807 C 0.33556 0.8492 0.90224 0.0
C808 C 0.35426 0.84062 0.89113 0.0
C809 C 0.33062 0.8451 0.92871 0.0
C810 C 0.34422 0.83223 0.94413 0.0
C811 C 0.36188 0.82237 0.93226 0.0
C812 C 0.36685 0.82654 0.90612 0.0
C813 C 0.342 0.83117 0.97317 0.0
C814 C 0.3593 0.83838 0.98837 0.0
C815 C 0.3232 0.82397 0.98589 0.0
C816 C 0.3048 0.8153 0.97085 0.0
C817 C 0.30776 0.79852 0.95278 0.0
C818 C 0.2904 0.79049 0.93855 0.0
C819 C 0.26996 0.799 0.94234 0.0
C820 C 0.26683 0.81552 0.96044 0.0
C821 C 0.28415 0.82363 0.9747 0.0
H822 H 0.25653 0.79275 0.93131 0.0
H823 H 0.42425 0.87271 0.0692 0.0
H824 H 0.15169 0.67977 0.61877 0.0
H825 H 0.15692 0.69125 0.57291 0.0
H826 H 0.18069 0.62839 0.55341 0.0
H827 H 0.17588 0.6171 0.59857 0.0
H828 H 0.20258 0.65786 0.52704 0.0
H829 H 0.1274 0.64219 0.54546 0.0
H830 H 0.09311 0.64792 0.56841 0.0
H831 H 0.09213 0.71333 0.54249 0.0
H832 H 0.12657 0.70801 0.51962 0.0
H833 H 0.17036 0.62731 0.39906 0.0
H834 H 0.18007 0.63367 0.44504 0.0
H835 H 0.15235 0.69687 0.44068 0.0
H836 H 0.1421 0.69013 0.39499 0.0
H837 H 0.13582 0.67656 0.47971 0.0
H838 H 0.20746 0.68855 0.4521 0.0
H839 H 0.24111 0.68145 0.42838 0.0
H840 H 0.2489 0.62248 0.47063 0.0
H841 H 0.21514 0.62906 0.49435 0.0
C842 C 0.15841 0.66861 0.60475 0.0
C843 C 0.16302 0.64744 0.61221 0.0
C844 C 0.16132 0.67513 0.57856 0.0
C845 C 0.16896 0.66058 0.5596 0.0
C846 C 0.17478 0.63993 0.56755 0.0
C847 C 0.17181 0.63343 0.59344 0.0
C848 C 0.16917 0.66567 0.53104 0.0
C849 C 0.18802 0.66206 0.51664 0.0
C850 C 0.15033 0.67163 0.51747 0.0
C851 C 0.12966 0.67479 0.53116 0.0
C852 C 0.11994 0.65783 0.54483 0.0
C853 C 0.10047 0.66099 0.55779 0.0
C854 C 0.09049 0.681 0.55699 0.0
C855 C 0.09992 0.69786 0.54315 0.0
C856 C 0.1194 0.69478 0.53019 0.0
C857 C 0.16717 0.64283 0.4077 0.0
C858 C 0.15583 0.65838 0.39354 0.0
C859 C 0.17268 0.6465 0.43399 0.0
C860 C 0.16706 0.66584 0.44642 0.0
C861 C 0.15689 0.68185 0.43161 0.0
C862 C 0.15121 0.67809 0.40546 0.0
C863 C 0.16912 0.66815 0.47546 0.0
C864 C 0.15062 0.67305 0.48998 0.0
C865 C 0.18828 0.66327 0.48904 0.0
C866 C 0.20868 0.65927 0.47493 0.0
C867 C 0.21627 0.674 0.45622 0.0
C868 C 0.23538 0.67007 0.44279 0.0
C869 C 0.24712 0.65151 0.44798 0.0
C870 C 0.23979 0.63686 0.46665 0.0
C871 C 0.22068 0.6407 0.48012 0.0
H872 H 0.26191 0.6485 0.43755 0.0
H873 H 0.07542 0.68342 0.56703 0.0
H874 H 0.37176 0.18571 0.59878 0.0
H875 H 0.36006 0.1904 0.55353 0.0
H876 H 0.30829 0.14598 0.56665 0.0
H877 H 0.32007 0.1413 0.61246 0.0
H878 H 0.33394 0.13402 0.52639 0.0
H879 H 0.29746 0.19762 0.55015 0.0
H880 H 0.29237 0.23266 0.57149 0.0
H881 H 0.34319 0.25925 0.52509 0.0
H882 H 0.34884 0.22428 0.50375 0.0
H883 H 0.31315 0.13487 0.3932 0.0
H884 H 0.30521 0.14396 0.43883 0.0
H885 H 0.35967 0.18636 0.44041 0.0
H886 H 0.3673 0.17764 0.3942 0.0
H887 H 0.32608 0.2003 0.47352 0.0
H888 H 0.36684 0.13612 0.45692 0.0
H889 H 0.37376 0.10111 0.43623 0.0
H890 H 0.31635 0.07585 0.47067 0.0
H891 H 0.30891 0.11086 0.49122 0.0
C892 C 0.35747 0.17745 0.59226 0.0
C893 C 0.34683 0.1631 0.60902 0.0
C894 C 0.35072 0.18023 0.5664 0.0
C895 C 0.33324 0.16862 0.55664 0.0
C896 C 0.32175 0.1552 0.57382 0.0
C897 C 0.32839 0.15261 0.59998 0.0
C898 C 0.32936 0.16816 0.52784 0.0
C899 C 0.33156 0.14846 0.51492 0.0
C900 C 0.32704 0.1871 0.51276 0.0
C901 C 0.32365 0.20825 0.52543 0.0
C902 C 0.30767 0.21089 0.54462 0.0
C903 C 0.30466 0.23075 0.5567 0.0
C904 C 0.31747 0.24816 0.54967 0.0
C905 C 0.33328 0.24575 0.53051 0.0
C906 C 0.33637 0.22591 0.51838 0.0
C907 C 0.32291 0.14679 0.40299 0.0
C908 C 0.34081 0.15559 0.39033 0.0
C909 C 0.31842 0.1519 0.42908 0.0
C910 C 0.3321 0.16549 0.44319 0.0
C911 C 0.34892 0.17582 0.42988 0.0
C912 C 0.35325 0.1709 0.40351 0.0
C913 C 0.33078 0.16621 0.47233 0.0
C914 C 0.32786 0.18587 0.48515 0.0
C915 C 0.33265 0.14727 0.48748 0.0
C916 C 0.33718 0.12616 0.47533 0.0
C917 C 0.3556 0.12315 0.4599 0.0
C918 C 0.35963 0.1033 0.44822 0.0
C919 C 0.34547 0.08629 0.45206 0.0
C920 C 0.32728 0.08907 0.46766 0.0
C921 C 0.32314 0.1089 0.47933 0.0
H922 H 0.34861 0.07093 0.44301 0.0
H923 H 0.31512 0.26353 0.55906 0.0
H924 H 0.86148 0.38288 0.41174 0.0
H925 H 0.85225 0.37158 0.45613 0.0
H926 H 0.82484 0.31334 0.42557 0.0
H927 H 0.83377 0.32492 0.3806 0.0
H928 H 0.80302 0.32972 0.47098 0.0
H929 H 0.87322 0.30939 0.44561 0.0
H930 H 0.90878 0.31451 0.4256 0.0
H931 H 0.92315 0.36359 0.48192 0.0
H932 H 0.88754 0.35901 0.50201 0.0
H933 H 0.86117 0.31558 0.61052 0.0
H934 H 0.85636 0.30415 0.56462 0.0
H935 H 0.81077 0.3552 0.55295 0.0
H936 H 0.81538 0.36627 0.59831 0.0
H937 H 0.86857 0.328 0.52602 0.0
H938 H 0.77871 0.34841 0.50267 0.0
H939 H 0.74325 0.3416 0.52212 0.0
H940 H 0.7683 0.28717 0.56341 0.0
H941 H 0.80384 0.29342 0.54392 0.0
C942 C 0.85288 0.36798 0.41438 0.0
C943 C 0.84843 0.35472 0.3928 0.0
C944 C 0.84772 0.36147 0.43976 0.0
C945 C 0.83836 0.34138 0.44419 0.0
C946 C 0.83219 0.32884 0.42255 0.0
C947 C 0.83718 0.33551 0.39691 0.0
C948 C 0.83726 0.33306 0.47148 0.0
C949 C 0.8173 0.32911 0.48307 0.0
C950 C 0.85602 0.33133 0.48693 0.0
C951 C 0.87767 0.33388 0.47528 0.0
C952 C 0.88393 0.32134 0.45366 0.0
C953 C 0.90409 0.32415 0.4423 0.0
C954 C 0.91821 0.33937 0.45248 0.0
C955 C 0.91221 0.35179 0.47408 0.0
C956 C 0.89204 0.34906 0.48549 0.0
C957 C 0.84947 0.32368 0.59837 0.0
C958 C 0.83868 0.34181 0.60782 0.0
C959 C 0.84681 0.31726 0.57213 0.0
C960 C 0.83313 0.32875 0.55521 0.0
C961 C 0.82109 0.34574 0.56551 0.0
C962 C 0.82384 0.35218 0.59148 0.0
C963 C 0.83414 0.32596 0.52617 0.0
C964 C 0.85421 0.32792 0.51405 0.0
C965 C 0.81549 0.32543 0.5103 0.0
C966 C 0.79402 0.32144 0.52184 0.0
C967 C 0.77665 0.33488 0.51572 0.0
C968 C 0.75652 0.33114 0.52681 0.0
C969 C 0.75353 0.31398 0.54401 0.0
C970 C 0.77065 0.30049 0.55013 0.0
C971 C 0.7908 0.30415 0.5391 0.0
H972 H 0.73794 0.31112 0.55258 0.0
H973 H 0.93382 0.34154 0.44364 0.0
H974 H 0.64146 0.81594 0.60356 0.0
H975 H 0.65192 0.81258 0.55747 0.0
H976 H 0.69033 0.86967 0.56441 0.0
H977 H 0.68006 0.87282 0.61089 0.0
H978 H 0.65829 0.87255 0.52722 0.0
H979 H 0.71421 0.82403 0.54891 0.0
H980 H 0.73073 0.79258 0.56994 0.0
H981 H 0.68905 0.75094 0.52655 0.0
H982 H 0.672 0.78217 0.50556 0.0
H983 H 0.6857 0.88019 0.39726 0.0
H984 H 0.69269 0.87124 0.44304 0.0
H985 H 0.64857 0.81835 0.43785 0.0
H986 H 0.64168 0.82719 0.39139 0.0
H987 H 0.68625 0.81216 0.47393 0.0
H988 H 0.62765 0.8603 0.45689 0.0
H989 H 0.6104 0.89145 0.43602 0.0
H990 H 0.65635 0.93332 0.47196 0.0
H991 H 0.67412 0.90233 0.49268 0.0
C992 C 0.65288 0.82722 0.59549 0.0
C993 C 0.66015 0.84451 0.61067 0.0
C994 C 0.65883 0.8253 0.56917 0.0
C995 C 0.67191 0.84086 0.55748 0.0
C996 C 0.68033 0.85742 0.57312 0.0
C997 C 0.67461 0.85914 0.59965 0.0
C998 C 0.6737 0.84172 0.52842 0.0
C999 C 0.66485 0.85952 0.51565 0.0
C1000 C 0.68147 0.82435 0.51328 0.0
C1001 C 0.69168 0.80549 0.52582 0.0
C1002 C 0.70841 0.80818 0.54402 0.0
C1003 C 0.71791 0.79039 0.5559 0.0
C1004 C 0.71091 0.76978 0.54963 0.0
C1005 C 0.69444 0.76692 0.53141 0.0
C1006 C 0.68487 0.78467 0.51949 0.0
C1007 C 0.678 0.86622 0.40561 0.0
C1008 C 0.66299 0.8545 0.39094 0.0
C1009 C 0.68204 0.86111 0.43175 0.0
C1010 C 0.67092 0.84435 0.44393 0.0
C1011 C 0.65734 0.83134 0.42874 0.0
C1012 C 0.6534 0.83637 0.40227 0.0
C1013 C 0.67098 0.84303 0.47302 0.0
C1014 C 0.67994 0.8252 0.48567 0.0
C1015 C 0.66314 0.86028 0.48826 0.0
C1016 C 0.65236 0.87898 0.47608 0.0
C1017 C 0.63419 0.87613 0.46015 0.0
C1018 C 0.6243 0.89376 0.44838 0.0
C1019 C 0.63231 0.91435 0.4526 0.0
C1020 C 0.65019 0.91736 0.46867 0.0
C1021 C 0.66018 0.89977 0.48044 0.0
H1022 H 0.62463 0.92798 0.44347 0.0
H1023 H 0.71829 0.75602 0.55884 0.0
H1024 H 0.09583 0.57439 0.30477 0.0
H1025 H 0.10025 0.5386 0.28685 0.0
H1026 H 0.16761 0.55043 0.2754 0.0
H1027 H 0.16313 0.58684 0.29263 0.0
H1028 H 0.15278 0.52975 0.23472 0.0
H1029 H 0.14834 0.51804 0.32672 0.0
H1030 H 0.13377 0.52121 0.37154 0.0
H1031 H 0.07538 0.49122 0.34665 0.0
H1032 H 0.08946 0.48814 0.30157 0.0
H1033 H 0.16639 0.41619 0.2093 0.0
H1034 H 0.16975 0.45149 0.23032 0.0
H1035 H 0.10101 0.45638 0.23455 0.0
H1036 H 0.09757 0.42153 0.21341 0.0
H1037 H 0.1218 0.46743 0.28163 0.0
H1038 H 0.12637 0.48272 0.18836 0.0
H1039 H 0.14209 0.47914 0.14415 0.0
H1040 H 0.20254 0.50155 0.17334 0.0
H1041 H 0.18723 0.50497 0.21783 0.0
C1042 C 0.11165 0.56944 0.29859 0.0
C1043 C 0.12917 0.58352 0.30043 0.0
C1044 C 0.11418 0.54883 0.28842 0.0
C1045 C 0.13438 0.54149 0.28029 0.0
C1046 C 0.15188 0.5556 0.28169 0.0
C1047 C 0.14931 0.57642 0.2916 0.0
C1048 C 0.13689 0.51923 0.27001 0.0
C1049 C 0.14639 0.5161 0.24528 0.0
C1050 C 0.12845 0.50127 0.28357 0.0
C1051 C 0.11992 0.503 0.3107 0.0
C1052 C 0.13234 0.51225 0.33076 0.0
C1053 C 0.12417 0.51401 0.35622 0.0
C1054 C 0.10365 0.50646 0.36193 0.0
C1055 C 0.09127 0.49708 0.34219 0.0
C1056 C 0.09935 0.49529 0.31668 0.0
C1057 C 0.15202 0.4248 0.21476 0.0
C1058 C 0.1317 0.41609 0.2095 0.0
C1059 C 0.15396 0.44498 0.22669 0.0
C1060 C 0.13562 0.45662 0.2339 0.0
C1061 C 0.11538 0.44773 0.22915 0.0
C1062 C 0.11344 0.42781 0.21693 0.0
C1063 C 0.1372 0.47816 0.24624 0.0
C1064 C 0.12848 0.4811 0.27135 0.0
C1065 C 0.14657 0.49583 0.2332 0.0
C1066 C 0.15574 0.49384 0.20647 0.0
C1067 C 0.14307 0.48669 0.1854 0.0
C1068 C 0.15189 0.48473 0.16028 0.0
C1069 C 0.17332 0.49005 0.15596 0.0
C1070 C 0.18595 0.49739 0.17673 0.0
C1071 C 0.17721 0.49935 0.20189 0.0
H1072 H 0.18012 0.48853 0.1365 0.0
H1073 H 0.09735 0.50784 0.38165 0.0
H1074 H 0.57322 0.11046 0.18001 0.0
H1075 H 0.53802 0.11292 0.20018 0.0
H1076 H 0.56133 0.16157 0.25307 0.0
H1077 H 0.59666 0.15963 0.23232 0.0
H1078 H 0.52504 0.10364 0.24595 0.0
H1079 H 0.51989 0.19363 0.27315 0.0
H1080 H 0.53278 0.22845 0.2566 0.0
H1081 H 0.53748 0.20253 0.17872 0.0
H1082 H 0.52436 0.16767 0.19473 0.0
H1083 H 0.43756 0.11425 0.33132 0.0
H1084 H 0.47324 0.11751 0.31226 0.0
H1085 H 0.44757 0.15626 0.24959 0.0
H1086 H 0.41191 0.15383 0.2693 0.0
H1087 H 0.48478 0.17095 0.26091 0.0
H1088 H 0.45855 0.1005 0.24278 0.0
H1089 H 0.44367 0.06479 0.25243 0.0
H1090 H 0.49798 0.05048 0.30103 0.0
H1091 H 0.51311 0.08619 0.29182 0.0
C1092 C 0.5709 0.12186 0.19578 0.0
C1093 C 0.58787 0.13489 0.20446 0.0
C1094 C 0.55069 0.12319 0.2074 0.0
C1095 C 0.54683 0.13748 0.22816 0.0
C1096 C 0.5637 0.15065 0.23682 0.0
C1097 C 0.58395 0.14949 0.22497 0.0
C1098 C 0.52535 0.13789 0.24109 0.0
C1099 C 0.51631 0.1184 0.24924 0.0
C1100 C 0.51363 0.15704 0.24507 0.0
C1101 C 0.52139 0.17798 0.23522 0.0
C1102 C 0.52363 0.19539 0.25249 0.0
C1103 C 0.53097 0.21513 0.2432 0.0
C1104 C 0.53602 0.21768 0.21665 0.0
C1105 C 0.53365 0.20051 0.19931 0.0
C1106 C 0.52629 0.18075 0.20848 0.0
C1107 C 0.43952 0.12366 0.31361 0.0
C1108 C 0.42181 0.13366 0.30175 0.0
C1109 C 0.45997 0.1254 0.30261 0.0
C1110 C 0.46316 0.13669 0.27904 0.0
C1111 C 0.44563 0.14739 0.2677 0.0
C1112 C 0.4252 0.14598 0.279 0.0
C1113 C 0.48454 0.13669 0.26581 0.0
C1114 C 0.49358 0.15622 0.2577 0.0
C1115 C 0.496 0.11749 0.26102 0.0
C1116 C 0.48684 0.09609 0.26682 0.0
C1117 C 0.46723 0.0898 0.25568 0.0
C1118 C 0.45878 0.06954 0.26103 0.0
C1119 C 0.46985 0.0554 0.27739 0.0
C1120 C 0.48942 0.06147 0.2884 0.0
C1121 C 0.49795 0.08169 0.28309 0.0
H1122 H 0.4633 0.03971 0.28149 0.0
H1123 H 0.54171 0.23297 0.20951 0.0
H1124 H 0.83721 0.59013 0.20057 0.0
H1125 H 0.83363 0.55378 0.21825 0.0
H1126 H 0.9024 0.5486 0.22293 0.0
H1127 H 0.90601 0.58429 0.20431 0.0
H1128 H 0.88822 0.5135 0.20485 0.0
H1129 H 0.8675 0.55788 0.27817 0.0
H1130 H 0.84612 0.58531 0.30109 0.0
H1131 H 0.78896 0.54883 0.2874 0.0
H1132 H 0.80998 0.5213 0.26412 0.0
H1133 H 0.9062 0.43347 0.29847 0.0
H1134 H 0.90148 0.46799 0.2772 0.0
H1135 H 0.8351 0.45346 0.26276 0.0
H1136 H 0.83966 0.41843 0.28415 0.0
H1137 H 0.84328 0.49644 0.28237 0.0
H1138 H 0.86671 0.44985 0.21317 0.0
H1139 H 0.88997 0.42249 0.19309 0.0
H1140 H 0.94432 0.46392 0.20185 0.0
H1141 H 0.92144 0.49142 0.22235 0.0
C1142 C 0.85153 0.5812 0.20537 0.0
C1143 C 0.87189 0.59009 0.20086 0.0
C1144 C 0.84948 0.56043 0.21563 0.0
C1145 C 0.86774 0.54835 0.22222 0.0
C1146 C 0.88803 0.55738 0.21788 0.0
C1147 C 0.89008 0.57788 0.20722 0.0
C1148 C 0.86605 0.52623 0.23329 0.0
C1149 C 0.87848 0.50991 0.22192 0.0
C1150 C 0.85291 0.52115 0.25515 0.0
C1151 C 0.84027 0.53767 0.26914 0.0
C1152 C 0.85035 0.55579 0.27988 0.0
C1153 C 0.8383 0.57134 0.29296 0.0
C1154 C 0.81618 0.56885 0.29562 0.0
C1155 C 0.80608 0.55076 0.28527 0.0
C1156 C 0.81805 0.53518 0.27215 0.0
C1157 C 0.8905 0.4375 0.29093 0.0
C1158 C 0.8733 0.42302 0.29305 0.0
C1159 C 0.88788 0.4573 0.27866 0.0
C1160 C 0.868 0.46326 0.26819 0.0
C1161 C 0.8506 0.44915 0.27068 0.0
C1162 C 0.85326 0.42912 0.28282 0.0
C1163 C 0.86588 0.48413 0.25431 0.0
C1164 C 0.85275 0.5001 0.26509 0.0
C1165 C 0.87861 0.48903 0.23215 0.0
C1166 C 0.89236 0.47265 0.21945 0.0
C1167 C 0.88364 0.45308 0.21096 0.0
C1168 C 0.89676 0.43755 0.19948 0.0
C1169 C 0.91861 0.44146 0.19623 0.0
C1170 C 0.92739 0.46092 0.20438 0.0
C1171 C 0.91434 0.4765 0.2159 0.0
H1172 H 0.92874 0.42941 0.18736 0.0
H1173 H 0.80688 0.5809 0.30576 0.0
H1174 H 0.58772 0.84065 0.2873 0.0
H1175 H 0.55177 0.83544 0.26913 0.0
H1176 H 0.53536 0.90033 0.28995 0.0
H1177 H 0.57075 0.90545 0.30867 0.0
H1178 H 0.50321 0.87617 0.30083 0.0
H1179 H 0.54918 0.88441 0.22576 0.0
H1180 H 0.57961 0.87586 0.19676 0.0
H1181 H 0.5544 0.81274 0.18423 0.0
H1182 H 0.52395 0.82084 0.21347 0.0
H1183 H 0.4231 0.90468 0.2081 0.0
H1184 H 0.45801 0.90027 0.22902 0.0
H1185 H 0.4498 0.83179 0.2288 0.0
H1186 H 0.41437 0.83606 0.20834 0.0
H1187 H 0.49313 0.85229 0.20873 0.0
H1188 H 0.44455 0.84741 0.28227 0.0
H1189 H 0.41389 0.85925 0.30905 0.0
H1190 H 0.44443 0.91989 0.3221 0.0
H1191 H 0.47514 0.90851 0.29503 0.0
C1192 C 0.57641 0.85376 0.28816 0.0
C1193 C 0.58225 0.87348 0.29949 0.0
C1194 C 0.55586 0.8508 0.27761 0.0
C1195 C 0.54081 0.86756 0.27786 0.0
C1196 C 0.54655 0.88709 0.28954 0.0
C1197 C 0.56693 0.89001 0.30022 0.0
C1198 C 0.51915 0.86515 0.26579 0.0
C1199 C 0.50111 0.87097 0.28067 0.0
C1200 C 0.51616 0.85805 0.23957 0.0
C1201 C 0.53445 0.85313 0.22206 0.0
C1202 C 0.55023 0.86865 0.217 0.0
C1203 C 0.56746 0.8639 0.20049 0.0
C1204 C 0.56898 0.84375 0.18873 0.0
C1205 C 0.55323 0.82832 0.19341 0.0
C1206 C 0.53599 0.83299 0.20994 0.0
C1207 C 0.4287 0.88864 0.21235 0.0
C1208 C 0.41593 0.87071 0.20649 0.0
C1209 C 0.44865 0.88617 0.22437 0.0
C1210 C 0.45647 0.86572 0.23042 0.0
C1211 C 0.44403 0.84771 0.22422 0.0
C1212 C 0.42378 0.85018 0.21264 0.0
C1213 C 0.47751 0.86355 0.24373 0.0
C1214 C 0.49534 0.85702 0.22905 0.0
C1215 C 0.4804 0.87034 0.26996 0.0
C1216 C 0.46205 0.87717 0.28642 0.0
C1217 C 0.44464 0.86334 0.29064 0.0
C1218 C 0.42727 0.86995 0.30592 0.0
C1219 C 0.42719 0.89033 0.31722 0.0
C1220 C 0.44451 0.90412 0.31332 0.0
C1221 C 0.46191 0.89758 0.29803 0.0
H1222 H 0.41373 0.89543 0.32904 0.0
H1223 H 0.58232 0.8401 0.17594 0.0
H1224 H 0.84389 0.57302 0.81466 0.0
H1225 H 0.84563 0.53618 0.79957 0.0
H1226 H 0.85486 0.55799 0.72 0.0
H1227 H 0.85287 0.59538 0.73509 0.0
H1228 H 0.82571 0.52544 0.72311 0.0
H1229 H 0.8965 0.53817 0.75466 0.0
H1230 H 0.92365 0.55031 0.78646 0.0
H1231 H 0.90183 0.5035 0.84209 0.0
H1232 H 0.87426 0.49134 0.81081 0.0
H1233 H 0.85156 0.42307 0.67535 0.0
H1234 H 0.85377 0.46052 0.688 0.0
H1235 H 0.84677 0.44287 0.76945 0.0
H1236 H 0.8452 0.4049 0.75686 0.0
H1237 H 0.87631 0.47388 0.76371 0.0
H1238 H 0.80427 0.46276 0.7334 0.0
H1239 H 0.77643 0.45114 0.70217 0.0
H1240 H 0.80042 0.4952 0.64455 0.0
H1241 H 0.82859 0.50689 0.67533 0.0
C1242 C 0.84636 0.5701 0.79391 0.0
C1243 C 0.84837 0.58716 0.77606 0.0
C1244 C 0.84744 0.54895 0.78535 0.0
C1245 C 0.85075 0.54429 0.75874 0.0
C1246 C 0.85244 0.56125 0.74068 0.0
C1247 C 0.85133 0.58257 0.74929 0.0
C1248 C 0.85196 0.52162 0.75006 0.0
C1249 C 0.83704 0.51424 0.7316 0.0
C1250 C 0.86638 0.5069 0.7617 0.0
C1251 C 0.8832 0.51394 0.78042 0.0
C1252 C 0.89739 0.53055 0.77373 0.0
C1253 C 0.91287 0.53743 0.79167 0.0
C1254 C 0.91445 0.5277 0.81629 0.0
C1255 C 0.90058 0.51103 0.82301 0.0
C1256 C 0.88504 0.50412 0.80517 0.0
C1257 C 0.85058 0.42705 0.69601 0.0
C1258 C 0.84805 0.41099 0.71512 0.0
C1259 C 0.85175 0.44855 0.70319 0.0
C1260 C 0.85 0.45459 0.72962 0.0
C1261 C 0.84804 0.43858 0.7489 0.0
C1262 C 0.84708 0.41692 0.74171 0.0
C1263 C 0.84994 0.47766 0.73688 0.0
C1264 C 0.86507 0.4851 0.75509 0.0
C1265 C 0.83569 0.49245 0.72505 0.0
C1266 C 0.81866 0.48555 0.70659 0.0
C1267 C 0.80369 0.46986 0.71401 0.0
C1268 C 0.78784 0.46328 0.6964 0.0
C1269 C 0.78669 0.47239 0.67137 0.0
C1270 C 0.80135 0.48815 0.66393 0.0
C1271 C 0.81725 0.49477 0.68146 0.0
H1272 H 0.77441 0.46726 0.65777 0.0
H1273 H 0.92644 0.53306 0.83016 0.0
H1274 H 0.57889 0.85261 0.67991 0.0
H1275 H 0.54153 0.85431 0.69308 0.0
H1276 H 0.55971 0.84409 0.7738 0.0
H1277 H 0.59762 0.84272 0.76073 0.0
H1278 H 0.52555 0.81728 0.75498 0.0
H1279 H 0.54479 0.89126 0.75829 0.0
H1280 H 0.5607 0.92456 0.74121 0.0
H1281 H 0.51578 0.92469 0.67739 0.0
H1282 H 0.49985 0.89112 0.69382 0.0
H1283 H 0.42881 0.84199 0.8162 0.0
H1284 H 0.46566 0.84265 0.80132 0.0
H1285 H 0.44458 0.85551 0.72224 0.0
H1286 H 0.40702 0.85499 0.73721 0.0
H1287 H 0.47999 0.88107 0.73882 0.0
H1288 H 0.46075 0.80709 0.73554 0.0
H1289 H 0.44551 0.77327 0.75202 0.0
H1290 H 0.49082 0.77294 0.81542 0.0
H1291 H 0.50614 0.80695 0.79954 0.0
C1292 C 0.57508 0.85088 0.70054 0.0
C1293 C 0.59126 0.8476 0.71933 0.0
C1294 C 0.55366 0.85189 0.708 0.0
C1295 C 0.54788 0.84947 0.73439 0.0
C1296 C 0.56391 0.84605 0.75331 0.0
C1297 C 0.58551 0.84533 0.74586 0.0
C1298 C 0.52496 0.85 0.74181 0.0
C1299 C 0.51564 0.83132 0.75186 0.0
C1300 C 0.51197 0.86812 0.73684 0.0
C1301 C 0.52125 0.88854 0.72715 0.0
C1302 C 0.5384 0.89828 0.74049 0.0
C1303 C 0.54742 0.91722 0.73094 0.0
C1304 C 0.53929 0.9267 0.70819 0.0
C1305 C 0.52208 0.9173 0.695 0.0
C1306 C 0.51304 0.89832 0.70443 0.0
C1307 C 0.43185 0.845 0.79559 0.0
C1308 C 0.41493 0.84835 0.77783 0.0
C1309 C 0.45301 0.84531 0.78713 0.0
C1310 C 0.45787 0.84888 0.76066 0.0
C1311 C 0.44112 0.85264 0.74278 0.0
C1312 C 0.41972 0.85225 0.75129 0.0
C1313 C 0.48058 0.84836 0.75216 0.0
C1314 C 0.48988 0.86702 0.74189 0.0
C1315 C 0.4936 0.83019 0.75688 0.0
C1316 C 0.48448 0.80968 0.76646 0.0
C1317 C 0.46736 0.79991 0.75312 0.0
C1318 C 0.45872 0.78068 0.76233 0.0
C1319 C 0.46716 0.77099 0.78479 0.0
C1320 C 0.48429 0.78048 0.79804 0.0
C1321 C 0.49297 0.79972 0.78893 0.0
H1322 H 0.46045 0.7561 0.79189 0.0
H1323 H 0.5463 0.94136 0.70081 0.0
H1324 H 0.13812 0.42518 0.82083 0.0
H1325 H 0.13813 0.4628 0.80802 0.0
H1326 H 0.16962 0.44655 0.73541 0.0
H1327 H 0.16897 0.40842 0.74776 0.0
H1328 H 0.18869 0.48186 0.7726 0.0
H1329 H 0.12628 0.45988 0.7242 0.0
H1330 H 0.09127 0.44226 0.71879 0.0
H1331 H 0.06403 0.48378 0.77708 0.0
H1332 H 0.09902 0.50142 0.78316 0.0
H1333 H 0.18151 0.57762 0.6998 0.0
H1334 H 0.17997 0.54077 0.71544 0.0
H1335 H 0.13878 0.56022 0.77907 0.0
H1336 H 0.14063 0.59763 0.76359 0.0
H1337 H 0.12397 0.52359 0.74858 0.0
H1338 H 0.18529 0.54681 0.79583 0.0
H1339 H 0.2202 0.56432 0.80255 0.0
H1340 H 0.24945 0.52062 0.74827 0.0
H1341 H 0.21461 0.50304 0.7409 0.0
C1342 C 0.14484 0.42949 0.80198 0.0
C1343 C 0.15354 0.41384 0.78526 0.0
C1344 C 0.14481 0.45102 0.79472 0.0
C1345 C 0.15388 0.45738 0.77084 0.0
C1346 C 0.16252 0.44185 0.75393 0.0
C1347 C 0.16206 0.42015 0.76093 0.0
C1348 C 0.15497 0.48042 0.76429 0.0
C1349 C 0.17464 0.49096 0.76693 0.0
C1350 C 0.13642 0.49231 0.75799 0.0
C1351 C 0.11535 0.48177 0.7544 0.0
C1352 C 0.1129 0.46508 0.7361 0.0
C1353 C 0.09304 0.45513 0.73285 0.0
C1354 C 0.07545 0.46184 0.74766 0.0
C1355 C 0.07768 0.47856 0.76568 0.0
C1356 C 0.09753 0.48855 0.76902 0.0
C1357 C 0.17233 0.57413 0.71734 0.0
C1358 C 0.16127 0.59044 0.7306 0.0
C1359 C 0.17148 0.55307 0.72625 0.0
C1360 C 0.15931 0.54779 0.74841 0.0
C1361 C 0.14831 0.56405 0.76193 0.0
C1362 C 0.14949 0.58535 0.75325 0.0
C1363 C 0.1578 0.52506 0.75654 0.0
C1364 C 0.13804 0.51454 0.7543 0.0
C1365 C 0.17627 0.51319 0.76336 0.0
C1366 C 0.19727 0.52374 0.76761 0.0
C1367 C 0.19911 0.54107 0.78511 0.0
C1368 C 0.2189 0.55098 0.78908 0.0
C1369 C 0.23702 0.54362 0.77579 0.0
C1370 C 0.23539 0.52631 0.75853 0.0
C1371 C 0.21563 0.51636 0.75446 0.0
H1372 H 0.25233 0.55131 0.77891 0.0
H1373 H 0.06008 0.45412 0.7451 0.0
H1374 H 0.4257 0.14886 0.6815 0.0
H1375 H 0.46278 0.14745 0.69586 0.0
H1376 H 0.44324 0.16206 0.77505 0.0
H1377 H 0.40557 0.16305 0.76081 0.0
H1378 H 0.47794 0.18811 0.75357 0.0
H1379 H 0.45817 0.11468 0.76501 0.0
H1380 H 0.44237 0.08028 0.75137 0.0
H1381 H 0.48821 0.07528 0.68888 0.0
H1382 H 0.50403 0.10988 0.70182 0.0
H1383 H 0.57425 0.16694 0.81892 0.0
H1384 H 0.53745 0.16634 0.80358 0.0
H1385 H 0.55876 0.147 0.7266 0.0
H1386 H 0.59618 0.14758 0.74201 0.0
H1387 H 0.52329 0.12314 0.74586 0.0
H1388 H 0.54295 0.1961 0.73349 0.0
H1389 H 0.55826 0.23116 0.74532 0.0
H1390 H 0.51253 0.23754 0.80776 0.0
H1391 H 0.49714 0.20234 0.79656 0.0
C1392 C 0.42915 0.15158 0.70205 0.0
C1393 C 0.41267 0.15601 0.72007 0.0
C1394 C 0.4504 0.15074 0.7102 0.0
C1395 C 0.45571 0.15456 0.73649 0.0
C1396 C 0.43938 0.15902 0.75465 0.0
C1397 C 0.41793 0.15951 0.74655 0.0
C1398 C 0.47848 0.15449 0.74448 0.0
C1399 C 0.4878 0.17384 0.75235 0.0
C1400 C 0.49141 0.13601 0.74183 0.0
C1401 C 0.48216 0.11501 0.73423 0.0
C1402 C 0.46477 0.10635 0.74821 0.0
C1403 C 0.45582 0.0868 0.74063 0.0
C1404 C 0.46424 0.07563 0.71923 0.0
C1405 C 0.48168 0.08396 0.70543 0.0
C1406 C 0.49066 0.10355 0.71289 0.0
C1407 C 0.57123 0.16259 0.79867 0.0
C1408 C 0.58814 0.15736 0.78162 0.0
C1409 C 0.55013 0.16231 0.78993 0.0
C1410 C 0.54538 0.1568 0.76393 0.0
C1411 C 0.56215 0.15135 0.74676 0.0
C1412 C 0.58346 0.1518 0.75551 0.0
C1413 C 0.52274 0.15677 0.75518 0.0
C1414 C 0.51344 0.13741 0.7471 0.0
C1415 C 0.50981 0.17529 0.75747 0.0
C1416 C 0.51902 0.19647 0.76433 0.0
C1417 C 0.53628 0.20488 0.7499 0.0
C1418 C 0.54495 0.2248 0.75646 0.0
C1419 C 0.53641 0.23655 0.77732 0.0
C1420 C 0.51915 0.22841 0.79163 0.0
C1421 C 0.51043 0.20848 0.78516 0.0
H1422 H 0.54313 0.25197 0.78236 0.0
H1423 H 0.45728 0.0605 0.71338 0.0
H1424 H 0.66264 0.0887 0.79112 0.0
H1425 H 0.66752 0.05276 0.77263 0.0
H1426 H 0.60068 0.0392 0.78572 0.0
H1427 H 0.59585 0.07453 0.80474 0.0
H1428 H 0.62226 0.00603 0.79911 0.0
H1429 H 0.62225 0.05225 0.72368 0.0
H1430 H 0.63439 0.08221 0.69588 0.0
H1431 H 0.69699 0.05416 0.69084 0.0
H1432 H 0.68528 0.02415 0.71892 0.0
H1433 H 0.5986 0.92469 0.70708 0.0
H1434 H 0.60217 0.9597 0.7279 0.0
H1435 H 0.67072 0.95231 0.72979 0.0
H1436 H 0.6673 0.91682 0.70926 0.0
H1437 H 0.65322 0.99474 0.71047 0.0
H1438 H 0.64985 0.9461 0.78387 0.0
H1439 H 0.63456 0.9159 0.80878 0.0
H1440 H 0.57455 0.94905 0.8146 0.0
H1441 H 0.58941 0.97934 0.78941 0.0
C1442 C 0.64901 0.07803 0.79013 0.0
C1443 C 0.62886 0.0846 0.79952 0.0
C1444 C 0.6518 0.05749 0.77942 0.0
C1445 C 0.63443 0.04321 0.77751 0.0
C1446 C 0.61439 0.04977 0.78703 0.0
C1447 C 0.61165 0.07011 0.79789 0.0
C1448 C 0.63679 0.02144 0.76566 0.0
C1449 C 0.62897 0.00369 0.77967 0.0
C1450 C 0.64587 0.01808 0.74046 0.0
C1451 C 0.65298 0.03612 0.72368 0.0
C1452 C 0.63866 0.05258 0.71684 0.0
C1453 C 0.64545 0.06954 0.701 0.0
C1454 C 0.66648 0.07013 0.69168 0.0
C1455 C 0.68073 0.05371 0.69813 0.0
C1456 C 0.67403 0.03672 0.714 0.0
C1457 C 0.61449 0.93049 0.71175 0.0
C1458 C 0.63269 0.91792 0.70643 0.0
C1459 C 0.61648 0.95051 0.72373 0.0
C1460 C 0.6367 0.9586 0.73039 0.0
C1461 C 0.65498 0.94635 0.72474 0.0
C1462 C 0.65298 0.92606 0.71313 0.0
C1463 C 0.6384 0.97968 0.74381 0.0
C1464 C 0.64689 0.9972 0.73008 0.0
C1465 C 0.62958 0.98294 0.76906 0.0
C1466 C 0.6207 0.96492 0.7846 0.0
C1467 C 0.63335 0.94689 0.79031 0.0
C1468 C 0.62477 0.92977 0.80451 0.0
C1469 C 0.60358 0.93054 0.81322 0.0
C1470 C 0.59096 0.94847 0.80783 0.0
C1471 C 0.59946 0.96564 0.79363 0.0
H1472 H 0.59696 0.91726 0.82419 0.0
H1473 H 0.6717 0.08326 0.67941 0.0
H1474 H 0.93205 0.59829 0.81048 0.0
H1475 H 0.96795 0.60311 0.79311 0.0
H1476 H 0.95014 0.66484 0.76219 0.0
H1477 H 0.91374 0.66003 0.77932 0.0
H1478 H 0.97314 0.64297 0.72668 0.0
H1479 H 0.98228 0.6614 0.8161 0.0
H1480 H 0.97912 0.65795 0.86416 0.0
H1481 H 0.01553 0.5997 0.86195 0.0
H1482 H 0.01864 0.60261 0.8138 0.0
H1483 H 0.08698 0.66228 0.70245 0.0
H1484 H 0.05081 0.66676 0.72087 0.0
H1485 H 0.04946 0.59986 0.74143 0.0
H1486 H 0.08509 0.59513 0.72256 0.0
H1487 H 0.03672 0.63056 0.78306 0.0
H1488 H 0.02331 0.61149 0.69196 0.0
H1489 H 0.0267 0.61652 0.64412 0.0
H1490 H 0.99881 0.67912 0.65062 0.0
H1491 H 0.99555 0.67456 0.69861 0.0
C1492 C 0.93566 0.61301 0.80015 0.0
C1493 C 0.91988 0.62884 0.79652 0.0
C1494 C 0.95634 0.61577 0.79027 0.0
C1495 C 0.96195 0.63448 0.77665 0.0
C1496 C 0.94625 0.6503 0.77274 0.0
C1497 C 0.92546 0.64755 0.78265 0.0
C1498 C 0.98411 0.63707 0.76616 0.0
C1499 C 0.98703 0.6407 0.73915 0.0
C1500 C 0.00236 0.63402 0.78229 0.0
C1501 C 1.00055 0.63215 0.81128 0.0
C1502 C 0.98947 0.64776 0.82582 0.0
C1503 C 0.98771 0.64592 0.8531 0.0
C1504 C 0.99708 0.62859 0.8661 0.0
C1505 C 0.00826 0.6131 0.85185 0.0
C1506 C 0.01006 0.61485 0.82456 0.0
C1507 C 0.07893 0.64856 0.71089 0.0
C1508 C 0.08885 0.62833 0.71089 0.0
C1509 C 0.05829 0.65113 0.72135 0.0
C1510 C 0.04746 0.63362 0.7325 0.0
C1511 C 0.05752 0.61356 0.73294 0.0
C1512 C 0.07785 0.61088 0.722 0.0
C1513 C 0.02559 0.63591 0.74365 0.0
C1514 C 0.02279 0.63318 0.77077 0.0
C1515 C 0.00752 0.64007 0.7277 0.0
C1516 C 0.00947 0.64281 0.6989 0.0
C1517 C 0.01812 0.62642 0.68323 0.0
C1518 C 0.01997 0.62916 0.65608 0.0
C1519 C 0.01305 0.64816 0.64435 0.0
C1520 C 0.00421 0.66443 0.65974 0.0
C1521 C 0.00235 0.66178 0.68691 0.0
H1522 H 0.01449 0.65025 0.62332 0.0
H1523 H 0.9957 0.6272 0.88721 0.0
H1524 H 0.33832 0.09096 0.71638 0.0
H1525 H 0.3344 0.05511 0.73542 0.0
H1526 H 0.39868 0.0395 0.71122 0.0
H1527 H 0.40257 0.07483 0.69182 0.0
H1528 H 0.37394 0.007 0.7014 0.0
H1529 H 0.38561 0.053 0.77563 0.0
H1530 H 0.37842 0.08342 0.80519 0.0
H1531 H 0.31615 0.05799 0.82246 0.0
H1532 H 0.32288 0.02754 0.79269 0.0
H1533 H 0.40691 0.92633 0.79052 0.0
H1534 H 0.40143 0.96134 0.77029 0.0
H1535 H 0.33315 0.95374 0.77738 0.0
H1536 H 0.33845 0.91818 0.7972 0.0
H1537 H 0.35448 0.99679 0.79503 0.0
H1538 H 0.34612 0.94821 0.72217 0.0
H1539 H 0.35653 0.91758 0.69445 0.0
H1540 H 0.41623 0.94827 0.67643 0.0
H1541 H 0.40631 0.97895 0.70441 0.0
C1542 C 0.35158 0.07986 0.715 0.0
C1543 C 0.37073 0.08589 0.70245 0.0
C1544 C 0.34935 0.05937 0.72602 0.0
C1545 C 0.3663 0.04456 0.72497 0.0
C1546 C 0.38531 0.05051 0.71223 0.0
C1547 C 0.3875 0.07085 0.70114 0.0
C1548 C 0.36459 0.02288 0.73719 0.0
C1549 C 0.36972 0.00486 0.72189 0.0
C1550 C 0.35875 0.01986 0.76385 0.0
C1551 C 0.35464 0.03816 0.78168 0.0
C1552 C 0.37031 0.054 0.78555 0.0
C1553 C 0.36634 0.07123 0.80237 0.0
C1554 C 0.34681 0.07268 0.81562 0.0
C1555 C 0.33125 0.05687 0.81212 0.0
C1556 C 0.33513 0.03963 0.79529 0.0
C1557 C 0.39069 0.93208 0.78796 0.0
C1558 C 0.3731 0.91942 0.79556 0.0
C1559 C 0.38761 0.9521 0.77633 0.0
C1560 C 0.36691 0.96012 0.77235 0.0
C1561 C 0.34926 0.94782 0.78034 0.0
C1562 C 0.35232 0.9275 0.79155 0.0
C1563 C 0.36406 0.98119 0.75926 0.0
C1564 C 0.35824 0.99902 0.77441 0.0
C1565 C 0.36959 0.98413 0.73258 0.0
C1566 C 0.37555 0.96579 0.71558 0.0
C1567 C 0.36155 0.94834 0.7125 0.0
C1568 C 0.36735 0.93099 0.6967 0.0
C1569 C 0.38705 0.93095 0.68374 0.0
C1570 C 0.40098 0.94831 0.68651 0.0
C1571 C 0.39527 0.96569 0.70231 0.0
H1572 H 0.39151 0.9175 0.67151 0.0
H1573 H 0.34377 0.08602 0.82865 0.0
H1574 H 0.06587 0.39145 0.82246 0.0
H1575 H 0.03105 0.38718 0.8018 0.0
H1576 H 0.05778 0.34127 0.74767 0.0
H1577 H 0.09282 0.34505 0.76892 0.0
H1578 H 0.01859 0.39699 0.75578 0.0
H1579 H 0.01802 0.30753 0.72571 0.0
H1580 H 0.03251 0.27303 0.74123 0.0
H1581 H 0.0352 0.29731 0.82005 0.0
H1582 H 0.02047 0.33183 0.80506 0.0
H1583 H 0.93395 0.38392 0.66744 0.0
H1584 H 0.9694 0.38086 0.68716 0.0
H1585 H 0.94314 0.34251 0.74979 0.0
H1586 H 0.90762 0.3449 0.72958 0.0
H1587 H 0.98165 0.32821 0.73814 0.0
H1588 H 0.95187 0.3971 0.75698 0.0
H1589 H 0.93524 0.43193 0.74683 0.0
H1590 H 0.98985 0.44942 0.70037 0.0
H1591 H 0.00668 0.41455 0.70996 0.0
C1592 C 0.0644 0.38028 0.8063 0.0
C1593 C 0.08223 0.36862 0.79734 0.0
C1594 C 0.0444 0.37789 0.79442 0.0
C1595 C 0.04164 0.3639 0.77313 0.0
C1596 C 0.05934 0.35196 0.7643 0.0
C1597 C 0.07941 0.35417 0.77643 0.0
C1598 C 0.02042 0.36269 0.75971 0.0
C1599 C 0.0106 0.3819 0.75191 0.0
C1600 C 0.00968 0.34309 0.75493 0.0
C1601 C 0.01838 0.32234 0.76419 0.0
C1602 C 0.02165 0.30548 0.74636 0.0
C1603 C 0.02991 0.28593 0.75506 0.0
C1604 C 0.03485 0.28301 0.78159 0.0
C1605 C 0.03146 0.29962 0.79949 0.0
C1606 C 0.02319 0.31919 0.79089 0.0
C1607 C 0.93572 0.37463 0.68527 0.0
C1608 C 0.91786 0.36484 0.69707 0.0
C1609 C 0.95603 0.37294 0.69659 0.0
C1610 C 0.95894 0.36187 0.72034 0.0
C1611 C 0.94134 0.35122 0.73153 0.0
C1612 C 0.92101 0.35263 0.71997 0.0
C1613 C 0.98 0.36249 0.73415 0.0
C1614 C 0.98976 0.34324 0.74194 0.0
C1615 C 0.99047 0.3821 0.73969 0.0
C1616 C 0.98044 0.40313 0.73397 0.0
C1617 C 0.96027 0.40831 0.74445 0.0
C1618 C 0.95081 0.42807 0.73882 0.0
C1619 C 0.96146 0.44286 0.72291 0.0
C1620 C 0.98161 0.43794 0.71266 0.0
C1621 C 0.99112 0.41819 0.7182 0.0
H1622 H 0.95412 0.45814 0.71857 0.0
H1623 H 0.04125 0.26786 0.78828 0.0
H1624 H 0.34621 0.07582 0.31983 0.0
H1625 H 0.34686 0.0387 0.30549 0.0
H1626 H 0.35609 0.05919 0.22538 0.0
H1627 H 0.35508 0.09678 0.23968 0.0
H1628 H 0.32612 0.02804 0.22906 0.0
H1629 H 0.39688 0.03907 0.26188 0.0
H1630 H 0.42364 0.05041 0.29456 0.0
H1631 H 0.40103 0.00257 0.34828 0.0
H1632 H 0.37353 0.99144 0.31635 0.0
H1633 H 0.34947 0.92576 0.17992 0.0
H1634 H 0.35222 0.96297 0.19328 0.0
H1635 H 0.34522 0.94437 0.27441 0.0
H1636 H 0.34321 0.90658 0.26109 0.0
H1637 H 0.3751 0.97483 0.26939 0.0
H1638 H 0.30296 0.96581 0.23886 0.0
H1639 H 0.27477 0.95516 0.20758 0.0
H1640 H 0.29974 0.99913 0.15047 0.0
H1641 H 0.32826 0.00984 0.18131 0.0
C1642 C 0.34848 0.07251 0.29913 0.0
C1643 C 0.35069 0.08926 0.28086 0.0
C1644 C 0.34893 0.05122 0.29099 0.0
C1645 C 0.35186 0.04612 0.26443 0.0
C1646 C 0.35392 0.06278 0.24602 0.0
C1647 C 0.35339 0.08422 0.25418 0.0
C1648 C 0.35221 0.02335 0.25604 0.0
C1649 C 0.33708 0.01648 0.23753 0.0
C1650 C 0.36613 0.00814 0.26769 0.0
C1651 C 0.38299 0.01452 0.28674 0.0
C1652 C 0.39748 0.03106 0.28072 0.0
C1653 C 0.41281 0.03745 0.29912 0.0
C1654 C 0.4141 0.02717 0.32342 0.0
C1655 C 0.40002 0.01051 0.32943 0.0
C1656 C 0.38452 0.00418 0.31121 0.0
C1657 C 0.34858 0.92947 0.20065 0.0
C1658 C 0.34599 0.91318 0.21946 0.0
C1659 C 0.35004 0.95084 0.20825 0.0
C1660 C 0.34849 0.95657 0.2348 0.0
C1661 C 0.34634 0.94033 0.25377 0.0
C1662 C 0.34512 0.91878 0.24616 0.0
C1663 C 0.34893 0.97953 0.2425 0.0
C1664 C 0.3642 0.98642 0.26086 0.0
C1665 C 0.33509 0.99479 0.23082 0.0
C1666 C 0.31785 0.98848 0.21232 0.0
C1667 C 0.30252 0.9731 0.21957 0.0
C1668 C 0.28647 0.96707 0.20193 0.0
C1669 C 0.2855 0.97643 0.17703 0.0
C1670 C 0.30053 0.99188 0.16976 0.0
C1671 C 0.31662 0.99795 0.18732 0.0
H1672 H 0.27307 0.97173 0.1634 0.0
H1673 H 0.42601 0.03213 0.33761 0.0
H1674 H 0.90884 0.34505 0.2407 0.0
H1675 H 0.94637 0.34455 0.22619 0.0
H1676 H 0.9669 0.35907 0.30506 0.0
H1677 H 0.92979 0.35936 0.31965 0.0
H1678 H 0.98867 0.38288 0.26741 0.0
H1679 H 0.9698 0.30957 0.28511 0.0
H1680 H 0.94824 0.27672 0.28069 0.0
H1681 H 0.96209 0.27458 0.19814 0.0
H1682 H 0.9835 0.30763 0.20201 0.0
H1683 H 0.09906 0.35296 0.25837 0.0
H1684 H 0.06142 0.35497 0.27224 0.0
H1685 H 0.04128 0.33823 0.19387 0.0
H1686 H 0.07856 0.33625 0.17997 0.0
H1687 H 0.01925 0.31582 0.23106 0.0
H1688 H 0.03692 0.38911 0.21241 0.0
H1689 H 0.05815 0.42226 0.21575 0.0
H1690 H 0.04689 0.42433 0.29889 0.0
H1691 H 0.02547 0.3912 0.29599 0.0
C1692 C 0.92137 0.34827 0.25485 0.0
C1693 C 0.91636 0.35216 0.28131 0.0
C1694 C 0.94277 0.34794 0.24658 0.0
C1695 C 0.95941 0.35167 0.26462 0.0
C1696 C 0.95434 0.35619 0.29082 0.0
C1697 C 0.93307 0.35627 0.29913 0.0
C1698 C 0.98218 0.35017 0.25659 0.0
C1699 C 0.99541 0.36816 0.2597 0.0
C1700 C 0.99089 0.33107 0.24617 0.0
C1701 C 0.97803 0.31121 0.24379 0.0
C1702 C 0.96808 0.30221 0.26597 0.0
C1703 C 0.95592 0.28353 0.26357 0.0
C1704 C 0.95374 0.27361 0.23913 0.0
C1705 C 0.96376 0.28231 0.21705 0.0
C1706 C 0.97591 0.30101 0.21933 0.0
C1707 C 0.08658 0.3496 0.24421 0.0
C1708 C 0.09174 0.34448 0.21811 0.0
C1709 C 0.06512 0.35086 0.25208 0.0
C1710 C 0.04856 0.34688 0.23401 0.0
C1711 C 0.05377 0.34136 0.20812 0.0
C1712 C 0.07511 0.34029 0.20022 0.0
C1713 C 0.02574 0.34853 0.24183 0.0
C1714 C 0.01251 0.33055 0.23874 0.0
C1715 C 0.01702 0.36765 0.25215 0.0
C1716 C 0.02981 0.38757 0.25403 0.0
C1717 C 0.03911 0.39656 0.23143 0.0
C1718 C 0.05114 0.41536 0.23324 0.0
C1719 C 0.05403 0.42531 0.25755 0.0
C1720 C 0.0447 0.41657 0.28008 0.0
C1721 C 0.03255 0.39782 0.27836 0.0
H1722 H 0.06341 0.43983 0.25892 0.0
H1723 H 0.94433 0.25914 0.23732 0.0
H1724 H 0.65486 0.90749 0.23639 0.0
H1725 H 0.65392 0.94466 0.22036 0.0
H1726 H 0.64727 0.96732 0.29994 0.0
H1727 H 0.64835 0.93068 0.31595 0.0
H1728 H 0.62045 0.98862 0.26598 0.0
H1729 H 0.69498 0.96806 0.27167 0.0
H1730 H 0.72638 0.9456 0.26157 0.0
H1731 H 0.71899 0.95924 0.17941 0.0
H1732 H 0.68734 0.98155 0.18902 0.0
H1733 H 0.65352 0.09765 0.2581 0.0
H1734 H 0.65057 0.05956 0.26953 0.0
H1735 H 0.66061 0.04252 0.18837 0.0
H1736 H 0.66372 0.08027 0.17691 0.0
H1737 H 0.68419 0.01777 0.22021 0.0
H1738 H 0.61144 0.04068 0.2144 0.0
H1739 H 0.58027 0.06351 0.2242 0.0
H1740 H 0.58368 0.04557 0.30549 0.0
H1741 H 0.61516 0.02293 0.29627 0.0
C1742 C 0.65304 0.92043 0.25037 0.0
C1743 C 0.65177 0.91615 0.27741 0.0
C1744 C 0.65254 0.94161 0.24123 0.0
C1745 C 0.65061 0.95874 0.25901 0.0
C1746 C 0.64868 0.95438 0.28588 0.0
C1747 C 0.6494 0.93336 0.29499 0.0
C1748 C 0.65157 0.98135 0.25012 0.0
C1749 C 0.63442 0.99505 0.25609 0.0
C1750 C 0.66963 0.98962 0.23682 0.0
C1751 C 0.68865 0.97625 0.23103 0.0
C1752 C 0.69994 0.96611 0.25143 0.0
C1753 C 0.7178 0.95344 0.2458 0.0
C1754 C 0.72463 0.95094 0.21986 0.0
C1755 C 0.71365 0.96115 0.19949 0.0
C1756 C 0.69576 0.97382 0.20502 0.0
C1757 C 0.65514 0.08575 0.24276 0.0
C1758 C 0.65881 0.09195 0.21663 0.0
C1759 C 0.65336 0.06403 0.24926 0.0
C1760 C 0.65519 0.04821 0.22973 0.0
C1761 C 0.65914 0.05442 0.20374 0.0
C1762 C 0.66085 0.07604 0.19724 0.0
C1763 C 0.65314 0.02514 0.23625 0.0
C1764 C 0.6701 0.01135 0.22987 0.0
C1765 C 0.63486 0.0168 0.24907 0.0
C1766 C 0.61581 0.03026 0.25468 0.0
C1767 C 0.60567 0.04174 0.23441 0.0
C1768 C 0.58793 0.05463 0.23985 0.0
C1769 C 0.58003 0.05602 0.26546 0.0
C1770 C 0.58984 0.04449 0.28566 0.0
C1771 C 0.60763 0.03162 0.28034 0.0
H1772 H 0.56628 0.066 0.26963 0.0
H1773 H 0.73847 0.94113 0.21554 0.0
H1774 H 0.0944 0.65582 0.24273 0.0
H1775 H 0.05685 0.65542 0.2285 0.0
H1776 H 0.03644 0.65312 0.30935 0.0
H1777 H 0.07367 0.65346 0.32363 0.0
H1778 H 0.01321 0.6257 0.27875 0.0
H1779 H 0.0355 0.69965 0.27659 0.0
H1780 H 0.05855 0.72981 0.26329 0.0
H1781 H 0.04402 0.71763 0.18223 0.0
H1782 H 0.0211 0.6872 0.19505 0.0
H1783 H 0.90375 0.65681 0.26015 0.0
H1784 H 0.94111 0.65483 0.27509 0.0
H1785 H 0.96272 0.66102 0.19498 0.0
H1786 H 0.92583 0.66341 0.18013 0.0
H1787 H 0.98536 0.68619 0.22568 0.0
H1788 H 0.96288 0.6128 0.22685 0.0
H1789 H 0.93965 0.58254 0.23927 0.0
H1790 H 0.95452 0.59285 0.32062 0.0
H1791 H 0.97758 0.62341 0.30872 0.0
C1792 C 0.08189 0.65514 0.25742 0.0
C1793 C 0.08701 0.65479 0.28428 0.0
C1794 C 0.06046 0.65494 0.24929 0.0
C1795 C 0.04383 0.6544 0.2679 0.0
C1796 C 0.04897 0.65351 0.29466 0.0
C1797 C 0.07031 0.6538 0.30278 0.0
C1798 C 0.02104 0.65548 0.2597 0.0
C1799 C 0.00705 0.63902 0.26736 0.0
C1800 C 0.01309 0.67267 0.24448 0.0
C1801 C 0.02677 0.69102 0.23676 0.0
C1802 C 0.03735 0.70331 0.25592 0.0
C1803 C 0.05037 0.72046 0.24847 0.0
C1804 C 0.05279 0.72559 0.22193 0.0
C1805 C 0.04215 0.71361 0.20278 0.0
C1806 C 0.02914 0.69642 0.21012 0.0
C1807 C 0.91651 0.65776 0.2458 0.0
C1808 C 0.91183 0.66024 0.21899 0.0
C1809 C 0.93783 0.65653 0.25432 0.0
C1810 C 0.95474 0.65763 0.23611 0.0
C1811 C 0.95 0.66019 0.2094 0.0
C1812 C 0.92883 0.66147 0.20094 0.0
C1813 C 0.97747 0.65635 0.24459 0.0
C1814 C 0.99147 0.67282 0.23703 0.0
C1815 C 0.98543 0.63908 0.25972 0.0
C1816 C 0.97178 0.62054 0.26691 0.0
C1817 C 0.96107 0.60872 0.24741 0.0
C1818 C 0.94795 0.5915 0.25435 0.0
C1819 C 0.94557 0.58581 0.28072 0.0
C1820 C 0.95636 0.5973 0.3002 0.0
C1821 C 0.96946 0.61456 0.29337 0.0
H1822 H 0.93539 0.57248 0.28605 0.0
H1823 H 0.06288 0.73888 0.2162 0.0
loop_
_geom_bond_atom_site_label_1
_geom_bond_atom_site_label_2
_geom_bond_distance
_geom_bond_site_symmetry_2
_ccdc_geom_bond_type
Co0 O1 2.216 . S
Co0 O2 2.091 . S
Co0 O4 2.004 . S
Co0 O10 2.021 . S
Co0 O12 2.137 . S
Co0 O13 2.244 . S
O1 Co0 2.216 . S
O1 C8 1.247 . S
O2 Co0 2.091 . S
O2 C8 1.261 . S
C3 O12 1.247 . S
C3 O13 1.272 . S
O4 Co0 2.004 . S
O4 C9 1.259 . S
Co5 O6 2.061 . S
Co5 O11 2.052 . S
Co5 O13 2.135 . S
O6 Co5 2.061 . S
O6 C9 1.235 . S
C7 O10 1.238 . S
C7 O11 1.241 . S
C8 O1 1.247 . S
C8 O2 1.261 . S
C9 O4 1.259 . S
C9 O6 1.235 . S
O10 Co0 2.021 . S
O10 C7 1.238 . S
O11 Co5 2.052 . S
O11 C7 1.241 . S
O12 Co0 2.137 . S
O12 C3 1.247 . S
O13 Co0 2.244 . S
O13 C3 1.272 . S
O13 Co5 2.135 . S
Co14 O15 2.216 . S
Co14 O16 2.091 . S
Co14 O18 2.004 . S
Co14 O24 2.021 . S
Co14 O26 2.137 . S
Co14 O27 2.244 . S
O15 Co14 2.216 . S
O15 C22 1.247 . S
O16 Co14 2.091 . S
O16 C22 1.261 . S
C17 O26 1.247 . S
C17 O27 1.272 . S
O18 Co14 2.004 . S
O18 C23 1.259 . S
Co19 O20 2.061 . S
Co19 O25 2.052 . S
Co19 O27 2.135 . S
O20 Co19 2.061 . S
O20 C23 1.235 . S
C21 O24 1.238 . S
C21 O25 1.241 . S
C22 O15 1.247 . S
C22 O16 1.261 . S
C23 O18 1.259 . S
C23 O20 1.235 . S
O24 Co14 2.021 . S
O24 C21 1.238 . S
O25 Co19 2.052 . S
O25 C21 1.241 . S
O26 Co14 2.137 . S
O26 C17 1.247 . S
O27 Co14 2.244 . S
O27 C17 1.272 . S
O27 Co19 2.135 . S
Co28 O29 2.216 . S
Co28 O30 2.091 . S
Co28 O32 2.004 . S
Co28 O38 2.021 . S
Co28 O40 2.137 . S
Co28 O41 2.244 . S
O29 Co28 2.216 . S
O29 C36 1.247 . S
O30 Co28 2.091 . S
O30 C36 1.261 . S
C31 O40 1.247 . S
C31 O41 1.272 . S
O32 Co28 2.004 . S
O32 C37 1.259 . S
Co33 O34 2.061 . S
Co33 O39 2.052 . S
Co33 O41 2.135 . S
O34 Co33 2.061 . S
O34 C37 1.235 . S
C35 O38 1.238 . S
C35 O39 1.241 . S
C36 O29 1.247 . S
C36 O30 1.261 . S
C37 O32 1.259 . S
C37 O34 1.235 . S
O38 Co28 2.021 . S
O38 C35 1.238 . S
O39 Co33 2.052 . S
O39 C35 1.241 . S
O40 Co28 2.137 . S
O40 C31 1.247 . S
O41 Co28 2.244 . S
O41 C31 1.272 . S
O41 Co33 2.135 . S
Co42 O43 2.216 . S
Co42 O44 2.091 . S
Co42 O46 2.004 . S
Co42 O52 2.021 . S
Co42 O54 2.137 . S
Co42 O55 2.244 . S
O43 Co42 2.216 . S
O43 C50 1.247 . S
O44 Co42 2.091 . S
O44 C50 1.261 . S
C45 O54 1.247 . S
C45 O55 1.272 . S
O46 Co42 2.004 . S
O46 C51 1.259 . S
Co47 O48 2.061 . S
Co47 O53 2.052 . S
Co47 O55 2.135 . S
O48 Co47 2.061 . S
O48 C51 1.235 . S
C49 O52 1.238 . S
C49 O53 1.241 . S
C50 O43 1.247 . S
C50 O44 1.261 . S
C51 O46 1.259 . S
C51 O48 1.235 . S
O52 Co42 2.021 . S
O52 C49 1.238 . S
O53 Co47 2.052 . S
O53 C49 1.241 . S
O54 Co42 2.137 . S
O54 C45 1.247 . S
O55 Co42 2.244 . S
O55 C45 1.272 . S
O55 Co47 2.135 . S
Co56 O57 2.216 . S
Co56 O58 2.091 . S
Co56 O60 2.004 . S
Co56 O66 2.021 . S
Co56 O68 2.137 . S
Co56 O69 2.244 . S
O57 Co56 2.216 . S
O57 C64 1.247 . S
O58 Co56 2.091 . S
O58 C64 1.261 . S
C59 O68 1.247 . S
C59 O69 1.272 . S
O60 Co56 2.004 . S
O60 C65 1.259 . S
Co61 O62 2.061 . S
Co61 O67 2.052 . S
Co61 O69 2.135 . S
O62 Co61 2.061 . S
O62 C65 1.235 . S
C63 O66 1.238 . S
C63 O67 1.241 . S
C64 O57 1.247 . S
C64 O58 1.261 . S
C65 O60 1.259 . S
C65 O62 1.235 . S
O66 Co56 2.021 . S
O66 C63 1.238 . S
O67 Co61 2.052 . S
O67 C63 1.241 . S
O68 Co56 2.137 . S
O68 C59 1.247 . S
O69 Co56 2.244 . S
O69 C59 1.272 . S
O69 Co61 2.135 . S
Co70 O71 2.216 . S
Co70 O72 2.091 . S
Co70 O74 2.004 . S
Co70 O80 2.021 . S
Co70 O82 2.137 . S
Co70 O83 2.244 . S
O71 Co70 2.216 . S
O71 C78 1.247 . S
O72 Co70 2.091 . S
O72 C78 1.261 . S
C73 O82 1.247 . S
C73 O83 1.272 . S
O74 Co70 2.004 . S
O74 C79 1.259 . S
Co75 O76 2.061 . S
Co75 O81 2.052 . S
Co75 O83 2.135 . S
O76 Co75 2.061 . S
O76 C79 1.235 . S
C77 O80 1.238 . S
C77 O81 1.241 . S
C78 O71 1.247 . S
C78 O72 1.261 . S
C79 O74 1.259 . S
C79 O76 1.235 . S
O80 Co70 2.021 . S
O80 C77 1.238 . S
O81 Co75 2.052 . S
O81 C77 1.241 . S
O82 Co70 2.137 . S
O82 C73 1.247 . S
O83 Co70 2.244 . S
O83 C73 1.272 . S
O83 Co75 2.135 . S
Co84 O85 2.216 . S
Co84 O86 2.091 . S
Co84 O88 2.004 . S
Co84 O94 2.021 . S
Co84 O96 2.137 . S
Co84 O97 2.244 . S
O85 Co84 2.216 . S
O85 C92 1.247 . S
O86 Co84 2.091 . S
O86 C92 1.261 . S
C87 O96 1.247 . S
C87 O97 1.272 . S
O88 Co84 2.004 . S
O88 C93 1.259 . S
Co89 O90 2.061 . S
Co89 O95 2.052 . S
Co89 O97 2.135 . S
O90 Co89 2.061 . S
O90 C93 1.235 . S
C91 O94 1.238 . S
C91 O95 1.241 . S
C92 O85 1.247 . S
C92 O86 1.261 . S
C93 O88 1.259 . S
C93 O90 1.235 . S
O94 Co84 2.021 . S
O94 C91 1.238 . S
O95 Co89 2.052 . S
O95 C91 1.241 . S
O96 Co84 2.137 . S
O96 C87 1.247 . S
O97 Co84 2.244 . S
O97 C87 1.272 . S
O97 Co89 2.135 . S
Co98 O99 2.216 . S
Co98 O100 2.091 . S
Co98 O102 2.004 . S
Co98 O108 2.021 . S
Co98 O110 2.137 . S
Co98 O111 2.244 . S
O99 Co98 2.216 . S
O99 C106 1.247 . S
O100 Co98 2.091 . S
O100 C106 1.261 . S
C101 O110 1.247 . S
C101 O111 1.272 . S
O102 Co98 2.004 . S
O102 C107 1.259 . S
Co103 O104 2.061 . S
Co103 O109 2.052 . S
Co103 O111 2.135 . S
O104 Co103 2.061 . S
O104 C107 1.235 . S
C105 O108 1.238 . S
C105 O109 1.241 . S
C106 O99 1.247 . S
C106 O100 1.261 . S
C107 O102 1.259 . S
C107 O104 1.235 . S
O108 Co98 2.021 . S
O108 C105 1.238 . S
O109 Co103 2.052 . S
O109 C105 1.241 . S
O110 Co98 2.137 . S
O110 C101 1.247 . S
O111 Co98 2.244 . S
O111 C101 1.272 . S
O111 Co103 2.135 . S
Co112 O113 2.216 . S
Co112 O114 2.091 . S
Co112 O116 2.004 . S
Co112 O122 2.021 . S
Co112 O124 2.137 . S
Co112 O125 2.244 . S
O113 Co112 2.216 . S
O113 C120 1.247 . S
O114 Co112 2.091 . S
O114 C120 1.261 . S
C115 O124 1.247 . S
C115 O125 1.272 . S
O116 Co112 2.004 . S
O116 C121 1.259 . S
Co117 O118 2.061 . S
Co117 O123 2.052 . S
Co117 O125 2.135 . S
O118 Co117 2.061 . S
O118 C121 1.235 . S
C119 O122 1.238 . S
C119 O123 1.241 . S
C120 O113 1.247 . S
C120 O114 1.261 . S
C121 O116 1.259 . S
C121 O118 1.235 . S
O122 Co112 2.021 . S
O122 C119 1.238 . S
O123 Co117 2.052 . S
O123 C119 1.241 . S
O124 Co112 2.137 . S
O124 C115 1.247 . S
O125 Co112 2.244 . S
O125 C115 1.272 . S
O125 Co117 2.135 . S
Co126 O127 2.216 . S
Co126 O128 2.091 . S
Co126 O130 2.004 . S
Co126 O136 2.021 . S
Co126 O138 2.137 . S
Co126 O139 2.244 . S
O127 Co126 2.216 . S
O127 C134 1.247 . S
O128 Co126 2.091 . S
O128 C134 1.261 . S
C129 O138 1.247 . S
C129 O139 1.272 . S
O130 Co126 2.004 . S
O130 C135 1.259 . S
Co131 O132 2.061 . S
Co131 O137 2.052 . S
Co131 O139 2.135 . S
O132 Co131 2.061 . S
O132 C135 1.235 . S
C133 O136 1.238 . S
C133 O137 1.241 . S
C134 O127 1.247 . S
C134 O128 1.261 . S
C135 O130 1.259 . S
C135 O132 1.235 . S
O136 Co126 2.021 . S
O136 C133 1.238 . S
O137 Co131 2.052 . S
O137 C133 1.241 . S
O138 Co126 2.137 . S
O138 C129 1.247 . S
O139 Co126 2.244 . S
O139 C129 1.272 . S
O139 Co131 2.135 . S
Co140 O141 2.216 . S
Co140 O142 2.091 . S
Co140 O144 2.004 . S
Co140 O150 2.021 . S
Co140 O152 2.137 . S
Co140 O153 2.244 . S
O141 Co140 2.216 . S
O141 C148 1.247 . S
O142 Co140 2.091 . S
O142 C148 1.261 . S
C143 O152 1.247 . S
C143 O153 1.272 . S
O144 Co140 2.004 . S
O144 C149 1.259 . S
Co145 O146 2.061 . S
Co145 O151 2.052 . S
Co145 O153 2.135 . S
O146 Co145 2.061 . S
O146 C149 1.235 . S
C147 O150 1.238 . S
C147 O151 1.241 . S
C148 O141 1.247 . S
C148 O142 1.261 . S
C149 O144 1.259 . S
C149 O146 1.235 . S
O150 Co140 2.021 . S
O150 C147 1.238 . S
O151 Co145 2.052 . S
O151 C147 1.241 . S
O152 Co140 2.137 . S
O152 C143 1.247 . S
O153 Co140 2.244 . S
O153 C143 1.272 . S
O153 Co145 2.135 . S
Co154 O155 2.216 . S
Co154 O156 2.091 . S
Co154 O158 2.004 . S
Co154 O164 2.021 . S
Co154 O166 2.137 . S
Co154 O167 2.244 . S
O155 Co154 2.216 . S
O155 C162 1.247 . S
O156 Co154 2.091 . S
O156 C162 1.261 . S
C157 O166 1.247 . S
C157 O167 1.272 . S
O158 Co154 2.004 . S
O158 C163 1.259 . S
Co159 O160 2.061 . S
Co159 O165 2.052 . S
Co159 O167 2.135 . S
O160 Co159 2.061 . S
O160 C163 1.235 . S
C161 O164 1.238 . S
C161 O165 1.241 . S
C162 O155 1.247 . S
C162 O156 1.261 . S
C163 O158 1.259 . S
C163 O160 1.235 . S
O164 Co154 2.021 . S
O164 C161 1.238 . S
O165 Co159 2.052 . S
O165 C161 1.241 . S
O166 Co154 2.137 . S
O166 C157 1.247 . S
O167 Co154 2.244 . S
O167 C157 1.272 . S
O167 Co159 2.135 . S
Co168 O169 2.216 . S
Co168 O170 2.091 . S
Co168 O172 2.004 . S
Co168 O178 2.021 . S
Co168 O180 2.137 . S
Co168 O181 2.244 . S
O169 Co168 2.216 . S
O169 C176 1.247 . S
O170 Co168 2.091 . S
O170 C176 1.261 . S
C171 O180 1.247 . S
C171 O181 1.272 . S
O172 Co168 2.004 . S
O172 C177 1.259 . S
Co173 O174 2.061 . S
Co173 O179 2.052 . S
Co173 O181 2.135 . S
O174 Co173 2.061 . S
O174 C177 1.235 . S
C175 O178 1.238 . S
C175 O179 1.241 . S
C176 O169 1.247 . S
C176 O170 1.261 . S
C177 O172 1.259 . S
C177 O174 1.235 . S
O178 Co168 2.021 . S
O178 C175 1.238 . S
O179 Co173 2.052 . S
O179 C175 1.241 . S
O180 Co168 2.137 . S
O180 C171 1.247 . S
O181 Co168 2.244 . S
O181 C171 1.272 . S
O181 Co173 2.135 . S
Co182 O183 2.216 . S
Co182 O184 2.091 . S
Co182 O186 2.004 . S
Co182 O192 2.021 . S
Co182 O194 2.137 . S
Co182 O195 2.244 . S
O183 Co182 2.216 . S
O183 C190 1.247 . S
O184 Co182 2.091 . S
O184 C190 1.261 . S
C185 O194 1.247 . S
C185 O195 1.272 . S
O186 Co182 2.004 . S
O186 C191 1.259 . S
Co187 O188 2.061 . S
Co187 O193 2.052 . S
Co187 O195 2.135 . S
O188 Co187 2.061 . S
O188 C191 1.235 . S
C189 O192 1.238 . S
C189 O193 1.241 . S
C190 O183 1.247 . S
C190 O184 1.261 . S
C191 O186 1.259 . S
C191 O188 1.235 . S
O192 Co182 2.021 . S
O192 C189 1.238 . S
O193 Co187 2.052 . S
O193 C189 1.241 . S
O194 Co182 2.137 . S
O194 C185 1.247 . S
O195 Co182 2.244 . S
O195 C185 1.272 . S
O195 Co187 2.135 . S
Co196 O197 2.216 . S
Co196 O198 2.091 . S
Co196 O200 2.004 . S
Co196 O206 2.021 . S
Co196 O208 2.137 . S
Co196 O209 2.244 . S
O197 Co196 2.216 . S
O197 C204 1.247 . S
O198 Co196 2.091 . S
O198 C204 1.261 . S
C199 O208 1.247 . S
C199 O209 1.272 . S
O200 Co196 2.004 . S
O200 C205 1.259 . S
Co201 O202 2.061 . S
Co201 O207 2.052 . S
Co201 O209 2.135 . S
O202 Co201 2.061 . S
O202 C205 1.235 . S
C203 O206 1.238 . S
C203 O207 1.241 . S
C204 O197 1.247 . S
C204 O198 1.261 . S
C205 O200 1.259 . S
C205 O202 1.235 . S
O206 Co196 2.021 . S
O206 C203 1.238 . S
O207 Co201 2.052 . S
O207 C203 1.241 . S
O208 Co196 2.137 . S
O208 C199 1.247 . S
O209 Co196 2.244 . S
O209 C199 1.272 . S
O209 Co201 2.135 . S
Co210 O211 2.216 . S
Co210 O212 2.091 . S
Co210 O214 2.004 . S
Co210 O220 2.021 . S
Co210 O222 2.137 . S
Co210 O223 2.244 . S
O211 Co210 2.216 . S
O211 C218 1.247 . S
O212 Co210 2.091 . S
O212 C218 1.261 . S
C213 O222 1.247 . S
C213 O223 1.272 . S
O214 Co210 2.004 . S
O214 C219 1.259 . S
Co215 O216 2.061 . S
Co215 O221 2.052 . S
Co215 O223 2.135 . S
O216 Co215 2.061 . S
O216 C219 1.235 . S
C217 O220 1.238 . S
C217 O221 1.241 . S
C218 O211 1.247 . S
C218 O212 1.261 . S
C219 O214 1.259 . S
C219 O216 1.235 . S
O220 Co210 2.021 . S
O220 C217 1.238 . S
O221 Co215 2.052 . S
O221 C217 1.241 . S
O222 Co210 2.137 . S
O222 C213 1.247 . S
O223 Co210 2.244 . S
O223 C213 1.272 . S
O223 Co215 2.135 . S
H224 C242 0.951 . S
H225 C244 0.951 . S
H226 C246 0.950 . S
H227 C247 0.950 . S
H228 C249 0.950 . S
H229 C252 0.950 . S
H230 C253 0.950 . S
H231 C255 0.950 . S
H232 C256 0.950 . S
H233 C257 0.951 . S
H234 C259 0.951 . S
H235 C261 0.950 . S
H236 C262 0.950 . S
H237 C264 0.950 . S
H238 C267 0.950 . S
H239 C268 0.950 . S
H240 C270 0.950 . S
H241 C271 0.950 . S
C242 H224 0.951 . S
C242 C243 1.366 . S
C242 C244 1.388 . S
C243 C242 1.366 . S
C243 C247 1.385 . S
C244 H225 0.951 . S
C244 C242 1.388 . S
C244 C245 1.366 . S
C245 C244 1.366 . S
C245 C246 1.414 . S
C245 C248 1.499 . S
C246 H226 0.950 . S
C246 C245 1.414 . S
C246 C247 1.374 . S
C247 H227 0.950 . S
C247 C243 1.385 . S
C247 C246 1.374 . S
C248 C245 1.499 . S
C248 C249 1.373 . S
C248 C250 1.389 . S
C249 H228 0.950 . S
C249 C248 1.373 . S
C249 C265 1.377 . S
C250 C248 1.389 . S
C250 C251 1.524 . S
C250 C264 1.377 . S
C251 C250 1.524 . S
C251 C252 1.397 . S
C251 C256 1.363 . S
C252 H229 0.950 . S
C252 C251 1.397 . S
C252 C253 1.334 . S
C253 H230 0.950 . S
C253 C252 1.334 . S
C253 C254 1.287 . S
C254 C253 1.287 . S
C254 C255 1.524 . S
C254 H273 0.913 . S
C255 H231 0.950 . S
C255 C254 1.524 . S
C255 C256 1.415 . S
C256 H232 0.950 . S
C256 C251 1.363 . S
C256 C255 1.415 . S
C257 H233 0.951 . S
C257 C258 1.366 . S
C257 C259 1.388 . S
C258 C257 1.366 . S
C258 C262 1.385 . S
C259 H234 0.951 . S
C259 C257 1.388 . S
C259 C260 1.366 . S
C260 C259 1.366 . S
C260 C261 1.414 . S
C260 C263 1.499 . S
C261 H235 0.950 . S
C261 C260 1.414 . S
C261 C262 1.374 . S
C262 H236 0.950 . S
C262 C258 1.385 . S
C262 C261 1.374 . S
C263 C260 1.499 . S
C263 C264 1.373 . S
C263 C265 1.389 . S
C264 H237 0.950 . S
C264 C250 1.377 . S
C264 C263 1.373 . S
C265 C249 1.377 . S
C265 C263 1.389 . S
C265 C266 1.524 . S
C266 C265 1.524 . S
C266 C267 1.397 . S
C266 C271 1.363 . S
C267 H238 0.950 . S
C267 C266 1.397 . S
C267 C268 1.334 . S
C268 H239 0.950 . S
C268 C267 1.334 . S
C268 C269 1.287 . S
C269 C268 1.287 . S
C269 C270 1.524 . S
C269 H272 0.999 . S
C270 H240 0.950 . S
C270 C269 1.524 . S
C270 C271 1.415 . S
C271 H241 0.950 . S
C271 C266 1.363 . S
C271 C270 1.415 . S
H272 C269 0.999 . S
H273 C254 0.913 . S
H274 C292 0.951 . S
H275 C294 0.951 . S
H276 C296 0.950 . S
H277 C297 0.950 . S
H278 C299 0.950 . S
H279 C302 0.950 . S
H280 C303 0.950 . S
H281 C305 0.950 . S
H282 C306 0.950 . S
H283 C307 0.951 . S
H284 C309 0.951 . S
H285 C311 0.950 . S
H286 C312 0.950 . S
H287 C314 0.950 . S
H288 C317 0.950 . S
H289 C318 0.950 . S
H290 C320 0.950 . S
H291 C321 0.950 . S
C292 H274 0.951 . S
C292 C293 1.366 . S
C292 C294 1.388 . S
C293 C292 1.366 . S
C293 C297 1.385 . S
C294 H275 0.951 . S
C294 C292 1.388 . S
C294 C295 1.366 . S
C295 C294 1.366 . S
C295 C296 1.414 . S
C295 C298 1.499 . S
C296 H276 0.950 . S
C296 C295 1.414 . S
C296 C297 1.374 . S
C297 H277 0.950 . S
C297 C293 1.385 . S
C297 C296 1.374 . S
C298 C295 1.499 . S
C298 C299 1.373 . S
C298 C300 1.389 . S
C299 H278 0.950 . S
C299 C298 1.373 . S
C299 C315 1.377 . S
C300 C298 1.389 . S
C300 C301 1.524 . S
C300 C314 1.377 . S
C301 C300 1.524 . S
C301 C302 1.397 . S
C301 C306 1.363 . S
C302 H279 0.950 . S
C302 C301 1.397 . S
C302 C303 1.334 . S
C303 H280 0.950 . S
C303 C302 1.334 . S
C303 C304 1.287 . S
C304 C303 1.287 . S
C304 C305 1.524 . S
C304 H323 0.913 . S
C305 H281 0.950 . S
C305 C304 1.524 . S
C305 C306 1.415 . S
C306 H282 0.950 . S
C306 C301 1.363 . S
C306 C305 1.415 . S
C307 H283 0.951 . S
C307 C308 1.366 . S
C307 C309 1.388 . S
C308 C307 1.366 . S
C308 C312 1.385 . S
C309 H284 0.951 . S
C309 C307 1.388 . S
C309 C310 1.366 . S
C310 C309 1.366 . S
C310 C311 1.414 . S
C310 C313 1.499 . S
C311 H285 0.950 . S
C311 C310 1.414 . S
C311 C312 1.374 . S
C312 H286 0.950 . S
C312 C308 1.385 . S
C312 C311 1.374 . S
C313 C310 1.499 . S
C313 C314 1.373 . S
C313 C315 1.389 . S
C314 H287 0.950 . S
C314 C300 1.377 . S
C314 C313 1.373 . S
C315 C299 1.377 . S
C315 C313 1.389 . S
C315 C316 1.524 . S
C316 C315 1.524 . S
C316 C317 1.397 . S
C316 C321 1.363 . S
C317 H288 0.950 . S
C317 C316 1.397 . S
C317 C318 1.334 . S
C318 H289 0.950 . S
C318 C317 1.334 . S
C318 C319 1.287 . S
C319 C318 1.287 . S
C319 C320 1.524 . S
C319 H322 0.999 . S
C320 H290 0.950 . S
C320 C319 1.524 . S
C320 C321 1.415 . S
C321 H291 0.950 . S
C321 C316 1.363 . S
C321 C320 1.415 . S
H322 C319 0.999 . S
H323 C304 0.913 . S
H324 C342 0.951 . S
H325 C344 0.951 . S
H326 C346 0.950 . S
H327 C347 0.950 . S
H328 C349 0.950 . S
H329 C352 0.950 . S
H330 C353 0.950 . S
H331 C355 0.950 . S
H332 C356 0.950 . S
H333 C357 0.951 . S
H334 C359 0.951 . S
H335 C361 0.950 . S
H336 C362 0.950 . S
H337 C364 0.950 . S
H338 C367 0.950 . S
H339 C368 0.950 . S
H340 C370 0.950 . S
H341 C371 0.950 . S
C342 H324 0.951 . S
C342 C343 1.366 . S
C342 C344 1.388 . S
C343 C342 1.366 . S
C343 C347 1.385 . S
C344 H325 0.951 . S
C344 C342 1.388 . S
C344 C345 1.366 . S
C345 C344 1.366 . S
C345 C346 1.414 . S
C345 C348 1.499 . S
C346 H326 0.950 . S
C346 C345 1.414 . S
C346 C347 1.374 . S
C347 H327 0.950 . S
C347 C343 1.385 . S
C347 C346 1.374 . S
C348 C345 1.499 . S
C348 C349 1.373 . S
C348 C350 1.389 . S
C349 H328 0.950 . S
C349 C348 1.373 . S
C349 C365 1.377 . S
C350 C348 1.389 . S
C350 C351 1.524 . S
C350 C364 1.377 . S
C351 C350 1.524 . S
C351 C352 1.397 . S
C351 C356 1.363 . S
C352 H329 0.950 . S
C352 C351 1.397 . S
C352 C353 1.334 . S
C353 H330 0.950 . S
C353 C352 1.334 . S
C353 C354 1.287 . S
C354 C353 1.287 . S
C354 C355 1.524 . S
C354 H373 0.913 . S
C355 H331 0.950 . S
C355 C354 1.524 . S
C355 C356 1.415 . S
C356 H332 0.950 . S
C356 C351 1.363 . S
C356 C355 1.415 . S
C357 H333 0.951 . S
C357 C358 1.366 . S
C357 C359 1.388 . S
C358 C357 1.366 . S
C358 C362 1.385 . S
C359 H334 0.951 . S
C359 C357 1.388 . S
C359 C360 1.366 . S
C360 C359 1.366 . S
C360 C361 1.414 . S
C360 C363 1.499 . S
C361 H335 0.950 . S
C361 C360 1.414 . S
C361 C362 1.374 . S
C362 H336 0.950 . S
C362 C358 1.385 . S
C362 C361 1.374 . S
C363 C360 1.499 . S
C363 C364 1.373 . S
C363 C365 1.389 . S
C364 H337 0.950 . S
C364 C350 1.377 . S
C364 C363 1.373 . S
C365 C349 1.377 . S
C365 C363 1.389 . S
C365 C366 1.524 . S
C366 C365 1.524 . S
C366 C367 1.397 . S
C366 C371 1.363 . S
C367 H338 0.950 . S
C367 C366 1.397 . S
C367 C368 1.334 . S
C368 H339 0.950 . S
C368 C367 1.334 . S
C368 C369 1.287 . S
C369 C368 1.287 . S
C369 C370 1.524 . S
C369 H372 0.999 . S
C370 H340 0.950 . S
C370 C369 1.524 . S
C370 C371 1.415 . S
C371 H341 0.950 . S
C371 C366 1.363 . S
C371 C370 1.415 . S
H372 C369 0.999 . S
H373 C354 0.913 . S
H374 C392 0.951 . S
H375 C394 0.951 . S
H376 C396 0.950 . S
H377 C397 0.950 . S
H378 C399 0.950 . S
H379 C402 0.950 . S
H380 C403 0.950 . S
H381 C405 0.950 . S
H382 C406 0.950 . S
H383 C407 0.951 . S
H384 C409 0.951 . S
H385 C411 0.950 . S
H386 C412 0.950 . S
H387 C414 0.950 . S
H388 C417 0.950 . S
H389 C418 0.950 . S
H390 C420 0.950 . S
H391 C421 0.950 . S
C392 H374 0.951 . S
C392 C393 1.366 . S
C392 C394 1.388 . S
C393 C392 1.366 . S
C393 C397 1.385 . S
C394 H375 0.951 . S
C394 C392 1.388 . S
C394 C395 1.366 . S
C395 C394 1.366 . S
C395 C396 1.414 . S
C395 C398 1.499 . S
C396 H376 0.950 . S
C396 C395 1.414 . S
C396 C397 1.374 . S
C397 H377 0.950 . S
C397 C393 1.385 . S
C397 C396 1.374 . S
C398 C395 1.499 . S
C398 C399 1.373 . S
C398 C400 1.389 . S
C399 H378 0.950 . S
C399 C398 1.373 . S
C399 C415 1.377 . S
C400 C398 1.389 . S
C400 C401 1.524 . S
C400 C414 1.377 . S
C401 C400 1.524 . S
C401 C402 1.397 . S
C401 C406 1.363 . S
C402 H379 0.950 . S
C402 C401 1.397 . S
C402 C403 1.334 . S
C403 H380 0.950 . S
C403 C402 1.334 . S
C403 C404 1.287 . S
C404 C403 1.287 . S
C404 C405 1.524 . S
C404 H423 0.913 . S
C405 H381 0.950 . S
C405 C404 1.524 . S
C405 C406 1.415 . S
C406 H382 0.950 . S
C406 C401 1.363 . S
C406 C405 1.415 . S
C407 H383 0.951 . S
C407 C408 1.366 . S
C407 C409 1.388 . S
C408 C407 1.366 . S
C408 C412 1.385 . S
C409 H384 0.951 . S
C409 C407 1.388 . S
C409 C410 1.366 . S
C410 C409 1.366 . S
C410 C411 1.414 . S
C410 C413 1.499 . S
C411 H385 0.950 . S
C411 C410 1.414 . S
C411 C412 1.374 . S
C412 H386 0.950 . S
C412 C408 1.385 . S
C412 C411 1.374 . S
C413 C410 1.499 . S
C413 C414 1.373 . S
C413 C415 1.389 . S
C414 H387 0.950 . S
C414 C400 1.377 . S
C414 C413 1.373 . S
C415 C399 1.377 . S
C415 C413 1.389 . S
C415 C416 1.524 . S
C416 C415 1.524 . S
C416 C417 1.397 . S
C416 C421 1.363 . S
C417 H388 0.950 . S
C417 C416 1.397 . S
C417 C418 1.334 . S
C418 H389 0.950 . S
C418 C417 1.334 . S
C418 C419 1.287 . S
C419 C418 1.287 . S
C419 C420 1.524 . S
C419 H422 0.999 . S
C420 H390 0.950 . S
C420 C419 1.524 . S
C420 C421 1.415 . S
C421 H391 0.950 . S
C421 C416 1.363 . S
C421 C420 1.415 . S
H422 C419 0.999 . S
H423 C404 0.913 . S
H424 C442 0.951 . S
H425 C444 0.951 . S
H426 C446 0.950 . S
H427 C447 0.950 . S
H428 C449 0.950 . S
H429 C452 0.950 . S
H430 C453 0.950 . S
H431 C455 0.950 . S
H432 C456 0.950 . S
H433 C457 0.951 . S
H434 C459 0.951 . S
H435 C461 0.950 . S
H436 C462 0.950 . S
H437 C464 0.950 . S
H438 C467 0.950 . S
H439 C468 0.950 . S
H440 C470 0.950 . S
H441 C471 0.950 . S
C442 H424 0.951 . S
C442 C443 1.366 . S
C442 C444 1.388 . S
C443 C442 1.366 . S
C443 C447 1.385 . S
C444 H425 0.951 . S
C444 C442 1.388 . S
C444 C445 1.366 . S
C445 C444 1.366 . S
C445 C446 1.414 . S
C445 C448 1.499 . S
C446 H426 0.950 . S
C446 C445 1.414 . S
C446 C447 1.374 . S
C447 H427 0.950 . S
C447 C443 1.385 . S
C447 C446 1.374 . S
C448 C445 1.499 . S
C448 C449 1.373 . S
C448 C450 1.389 . S
C449 H428 0.950 . S
C449 C448 1.373 . S
C449 C465 1.377 . S
C450 C448 1.389 . S
C450 C451 1.524 . S
C450 C464 1.377 . S
C451 C450 1.524 . S
C451 C452 1.397 . S
C451 C456 1.363 . S
C452 H429 0.950 . S
C452 C451 1.397 . S
C452 C453 1.334 . S
C453 H430 0.950 . S
C453 C452 1.334 . S
C453 C454 1.287 . S
C454 C453 1.287 . S
C454 C455 1.524 . S
C454 H473 0.913 . S
C455 H431 0.950 . S
C455 C454 1.524 . S
C455 C456 1.415 . S
C456 H432 0.950 . S
C456 C451 1.363 . S
C456 C455 1.415 . S
C457 H433 0.951 . S
C457 C458 1.366 . S
C457 C459 1.388 . S
C458 C457 1.366 . S
C458 C462 1.385 . S
C459 H434 0.951 . S
C459 C457 1.388 . S
C459 C460 1.366 . S
C460 C459 1.366 . S
C460 C461 1.414 . S
C460 C463 1.499 . S
C461 H435 0.950 . S
C461 C460 1.414 . S
C461 C462 1.374 . S
C462 H436 0.950 . S
C462 C458 1.385 . S
C462 C461 1.374 . S
C463 C460 1.499 . S
C463 C464 1.373 . S
C463 C465 1.389 . S
C464 H437 0.950 . S
C464 C450 1.377 . S
C464 C463 1.373 . S
C465 C449 1.377 . S
C465 C463 1.389 . S
C465 C466 1.524 . S
C466 C465 1.524 . S
C466 C467 1.397 . S
C466 C471 1.363 . S
C467 H438 0.950 . S
C467 C466 1.397 . S
C467 C468 1.334 . S
C468 H439 0.950 . S
C468 C467 1.334 . S
C468 C469 1.287 . S
C469 C468 1.287 . S
C469 C470 1.524 . S
C469 H472 0.999 . S
C470 H440 0.950 . S
C470 C469 1.524 . S
C470 C471 1.415 . S
C471 H441 0.950 . S
C471 C466 1.363 . S
C471 C470 1.415 . S
H472 C469 0.999 . S
H473 C454 0.913 . S
H474 C492 0.951 . S
H475 C494 0.951 . S
H476 C496 0.950 . S
H477 C497 0.950 . S
H478 C499 0.950 . S
H479 C502 0.950 . S
H480 C503 0.950 . S
H481 C505 0.950 . S
H482 C506 0.950 . S
H483 C507 0.951 . S
H484 C509 0.951 . S
H485 C511 0.950 . S
H486 C512 0.950 . S
H487 C514 0.950 . S
H488 C517 0.950 . S
H489 C518 0.950 . S
H490 C520 0.950 . S
H491 C521 0.950 . S
C492 H474 0.951 . S
C492 C493 1.366 . S
C492 C494 1.388 . S
C493 C492 1.366 . S
C493 C497 1.385 . S
C494 H475 0.951 . S
C494 C492 1.388 . S
C494 C495 1.366 . S
C495 C494 1.366 . S
C495 C496 1.414 . S
C495 C498 1.499 . S
C496 H476 0.950 . S
C496 C495 1.414 . S
C496 C497 1.374 . S
C497 H477 0.950 . S
C497 C493 1.385 . S
C497 C496 1.374 . S
C498 C495 1.499 . S
C498 C499 1.373 . S
C498 C500 1.389 . S
C499 H478 0.950 . S
C499 C498 1.373 . S
C499 C515 1.377 . S
C500 C498 1.389 . S
C500 C501 1.524 . S
C500 C514 1.377 . S
C501 C500 1.524 . S
C501 C502 1.397 . S
C501 C506 1.363 . S
C502 H479 0.950 . S
C502 C501 1.397 . S
C502 C503 1.334 . S
C503 H480 0.950 . S
C503 C502 1.334 . S
C503 C504 1.287 . S
C504 C503 1.287 . S
C504 C505 1.524 . S
C504 H523 0.913 . S
C505 H481 0.950 . S
C505 C504 1.524 . S
C505 C506 1.415 . S
C506 H482 0.950 . S
C506 C501 1.363 . S
C506 C505 1.415 . S
C507 H483 0.951 . S
C507 C508 1.366 . S
C507 C509 1.388 . S
C508 C507 1.366 . S
C508 C512 1.385 . S
C509 H484 0.951 . S
C509 C507 1.388 . S
C509 C510 1.366 . S
C510 C509 1.366 . S
C510 C511 1.414 . S
C510 C513 1.499 . S
C511 H485 0.950 . S
C511 C510 1.414 . S
C511 C512 1.374 . S
C512 H486 0.950 . S
C512 C508 1.385 . S
C512 C511 1.374 . S
C513 C510 1.499 . S
C513 C514 1.373 . S
C513 C515 1.389 . S
C514 H487 0.950 . S
C514 C500 1.377 . S
C514 C513 1.373 . S
C515 C499 1.377 . S
C515 C513 1.389 . S
C515 C516 1.524 . S
C516 C515 1.524 . S
C516 C517 1.397 . S
C516 C521 1.363 . S
C517 H488 0.950 . S
C517 C516 1.397 . S
C517 C518 1.334 . S
C518 H489 0.950 . S
C518 C517 1.334 . S
C518 C519 1.287 . S
C519 C518 1.287 . S
C519 C520 1.524 . S
C519 H522 0.999 . S
C520 H490 0.950 . S
C520 C519 1.524 . S
C520 C521 1.415 . S
C521 H491 0.950 . S
C521 C516 1.363 . S
C521 C520 1.415 . S
H522 C519 0.999 . S
H523 C504 0.913 . S
H524 C542 0.951 . S
H525 C544 0.951 . S
H526 C546 0.950 . S
H527 C547 0.950 . S
H528 C549 0.950 . S
H529 C552 0.950 . S
H530 C553 0.950 . S
H531 C555 0.950 . S
H532 C556 0.950 . S
H533 C557 0.951 . S
H534 C559 0.951 . S
H535 C561 0.950 . S
H536 C562 0.950 . S
H537 C564 0.950 . S
H538 C567 0.950 . S
H539 C568 0.950 . S
H540 C570 0.950 . S
H541 C571 0.950 . S
C542 H524 0.951 . S
C542 C543 1.366 . S
C542 C544 1.388 . S
C543 C542 1.366 . S
C543 C547 1.385 . S
C544 H525 0.951 . S
C544 C542 1.388 . S
C544 C545 1.366 . S
C545 C544 1.366 . S
C545 C546 1.414 . S
C545 C548 1.499 . S
C546 H526 0.950 . S
C546 C545 1.414 . S
C546 C547 1.374 . S
C547 H527 0.950 . S
C547 C543 1.385 . S
C547 C546 1.374 . S
C548 C545 1.499 . S
C548 C549 1.373 . S
C548 C550 1.389 . S
C549 H528 0.950 . S
C549 C548 1.373 . S
C549 C565 1.377 . S
C550 C548 1.389 . S
C550 C551 1.524 . S
C550 C564 1.377 . S
C551 C550 1.524 . S
C551 C552 1.397 . S
C551 C556 1.363 . S
C552 H529 0.950 . S
C552 C551 1.397 . S
C552 C553 1.334 . S
C553 H530 0.950 . S
C553 C552 1.334 . S
C553 C554 1.287 . S
C554 C553 1.287 . S
C554 C555 1.524 . S
C554 H573 0.913 . S
C555 H531 0.950 . S
C555 C554 1.524 . S
C555 C556 1.415 . S
C556 H532 0.950 . S
C556 C551 1.363 . S
C556 C555 1.415 . S
C557 H533 0.951 . S
C557 C558 1.366 . S
C557 C559 1.388 . S
C558 C557 1.366 . S
C558 C562 1.385 . S
C559 H534 0.951 . S
C559 C557 1.388 . S
C559 C560 1.366 . S
C560 C559 1.366 . S
C560 C561 1.414 . S
C560 C563 1.499 . S
C561 H535 0.950 . S
C561 C560 1.414 . S
C561 C562 1.374 . S
C562 H536 0.950 . S
C562 C558 1.385 . S
C562 C561 1.374 . S
C563 C560 1.499 . S
C563 C564 1.373 . S
C563 C565 1.389 . S
C564 H537 0.950 . S
C564 C550 1.377 . S
C564 C563 1.373 . S
C565 C549 1.377 . S
C565 C563 1.389 . S
C565 C566 1.524 . S
C566 C565 1.524 . S
C566 C567 1.397 . S
C566 C571 1.363 . S
C567 H538 0.950 . S
C567 C566 1.397 . S
C567 C568 1.334 . S
C568 H539 0.950 . S
C568 C567 1.334 . S
C568 C569 1.287 . S
C569 C568 1.287 . S
C569 C570 1.524 . S
C569 H572 0.999 . S
C570 H540 0.950 . S
C570 C569 1.524 . S
C570 C571 1.415 . S
C571 H541 0.950 . S
C571 C566 1.363 . S
C571 C570 1.415 . S
H572 C569 0.999 . S
H573 C554 0.913 . S
H574 C592 0.951 . S
H575 C594 0.951 . S
H576 C596 0.950 . S
H577 C597 0.950 . S
H578 C599 0.950 . S
H579 C602 0.950 . S
H580 C603 0.950 . S
H581 C605 0.950 . S
H582 C606 0.950 . S
H583 C607 0.951 . S
H584 C609 0.951 . S
H585 C611 0.950 . S
H586 C612 0.950 . S
H587 C614 0.950 . S
H588 C617 0.950 . S
H589 C618 0.950 . S
H590 C620 0.950 . S
H591 C621 0.950 . S
C592 H574 0.951 . S
C592 C593 1.366 . S
C592 C594 1.388 . S
C593 C592 1.366 . S
C593 C597 1.385 . S
C594 H575 0.951 . S
C594 C592 1.388 . S
C594 C595 1.366 . S
C595 C594 1.366 . S
C595 C596 1.414 . S
C595 C598 1.499 . S
C596 H576 0.950 . S
C596 C595 1.414 . S
C596 C597 1.374 . S
C597 H577 0.950 . S
C597 C593 1.385 . S
C597 C596 1.374 . S
C598 C595 1.499 . S
C598 C599 1.373 . S
C598 C600 1.389 . S
C599 H578 0.950 . S
C599 C598 1.373 . S
C599 C615 1.377 . S
C600 C598 1.389 . S
C600 C601 1.524 . S
C600 C614 1.377 . S
C601 C600 1.524 . S
C601 C602 1.397 . S
C601 C606 1.363 . S
C602 H579 0.950 . S
C602 C601 1.397 . S
C602 C603 1.334 . S
C603 H580 0.950 . S
C603 C602 1.334 . S
C603 C604 1.287 . S
C604 C603 1.287 . S
C604 C605 1.524 . S
C604 H623 0.913 . S
C605 H581 0.950 . S
C605 C604 1.524 . S
C605 C606 1.415 . S
C606 H582 0.950 . S
C606 C601 1.363 . S
C606 C605 1.415 . S
C607 H583 0.951 . S
C607 C608 1.366 . S
C607 C609 1.388 . S
C608 C607 1.366 . S
C608 C612 1.385 . S
C609 H584 0.951 . S
C609 C607 1.388 . S
C609 C610 1.366 . S
C610 C609 1.366 . S
C610 C611 1.414 . S
C610 C613 1.499 . S
C611 H585 0.950 . S
C611 C610 1.414 . S
C611 C612 1.374 . S
C612 H586 0.950 . S
C612 C608 1.385 . S
C612 C611 1.374 . S
C613 C610 1.499 . S
C613 C614 1.373 . S
C613 C615 1.389 . S
C614 H587 0.950 . S
C614 C600 1.377 . S
C614 C613 1.373 . S
C615 C599 1.377 . S
C615 C613 1.389 . S
C615 C616 1.524 . S
C616 C615 1.524 . S
C616 C617 1.397 . S
C616 C621 1.363 . S
C617 H588 0.950 . S
C617 C616 1.397 . S
C617 C618 1.334 . S
C618 H589 0.950 . S
C618 C617 1.334 . S
C618 C619 1.287 . S
C619 C618 1.287 . S
C619 C620 1.524 . S
C619 H622 0.999 . S
C620 H590 0.950 . S
C620 C619 1.524 . S
C620 C621 1.415 . S
C621 H591 0.950 . S
C621 C616 1.363 . S
C621 C620 1.415 . S
H622 C619 0.999 . S
H623 C604 0.913 . S
H624 C642 0.951 . S
H625 C644 0.951 . S
H626 C646 0.950 . S
H627 C647 0.950 . S
H628 C649 0.950 . S
H629 C652 0.950 . S
H630 C653 0.950 . S
H631 C655 0.950 . S
H632 C656 0.950 . S
H633 C657 0.951 . S
H634 C659 0.951 . S
H635 C661 0.950 . S
H636 C662 0.950 . S
H637 C664 0.950 . S
H638 C667 0.950 . S
H639 C668 0.950 . S
H640 C670 0.950 . S
H641 C671 0.950 . S
C642 H624 0.951 . S
C642 C643 1.366 . S
C642 C644 1.388 . S
C643 C642 1.366 . S
C643 C647 1.385 . S
C644 H625 0.951 . S
C644 C642 1.388 . S
C644 C645 1.366 . S
C645 C644 1.366 . S
C645 C646 1.414 . S
C645 C648 1.499 . S
C646 H626 0.950 . S
C646 C645 1.414 . S
C646 C647 1.374 . S
C647 H627 0.950 . S
C647 C643 1.385 . S
C647 C646 1.374 . S
C648 C645 1.499 . S
C648 C649 1.373 . S
C648 C650 1.389 . S
C649 H628 0.950 . S
C649 C648 1.373 . S
C649 C665 1.377 1_556 S
C650 C648 1.389 . S
C650 C651 1.524 . S
C650 C664 1.377 1_556 S
C651 C650 1.524 . S
C651 C652 1.397 . S
C651 C656 1.363 . S
C652 H629 0.950 . S
C652 C651 1.397 . S
C652 C653 1.334 . S
C653 H630 0.950 . S
C653 C652 1.334 . S
C653 C654 1.287 . S
C654 C653 1.287 . S
C654 C655 1.524 . S
C654 H673 0.913 . S
C655 H631 0.950 . S
C655 C654 1.524 . S
C655 C656 1.415 . S
C656 H632 0.950 . S
C656 C651 1.363 . S
C656 C655 1.415 . S
C657 H633 0.951 . S
C657 C658 1.366 . S
C657 C659 1.388 . S
C658 C657 1.366 . S
C658 C662 1.385 . S
C659 H634 0.951 . S
C659 C657 1.388 . S
C659 C660 1.366 . S
C660 C659 1.366 . S
C660 C661 1.414 . S
C660 C663 1.499 . S
C661 H635 0.950 . S
C661 C660 1.414 . S
C661 C662 1.374 . S
C662 H636 0.950 . S
C662 C658 1.385 . S
C662 C661 1.374 . S
C663 C660 1.499 . S
C663 C664 1.373 . S
C663 C665 1.389 . S
C664 H637 0.950 . S
C664 C650 1.377 1_554 S
C664 C663 1.373 . S
C665 C649 1.377 1_554 S
C665 C663 1.389 . S
C665 C666 1.524 . S
C666 C665 1.524 . S
C666 C667 1.397 . S
C666 C671 1.363 . S
C667 H638 0.950 . S
C667 C666 1.397 . S
C667 C668 1.334 . S
C668 H639 0.950 . S
C668 C667 1.334 . S
C668 C669 1.287 . S
C669 C668 1.287 . S
C669 C670 1.524 . S
C669 H672 0.999 . S
C670 H640 0.950 . S
C670 C669 1.524 . S
C670 C671 1.415 . S
C671 H641 0.950 . S
C671 C666 1.363 . S
C671 C670 1.415 . S
H672 C669 0.999 . S
H673 C654 0.913 . S
H674 C692 0.951 . S
H675 C694 0.951 . S
H676 C696 0.950 . S
H677 C697 0.950 . S
H678 C699 0.950 . S
H679 C702 0.950 . S
H680 C703 0.950 . S
H681 C705 0.950 . S
H682 C706 0.952 . S
H683 C707 0.951 . S
H684 C709 0.951 . S
H685 C711 0.950 . S
H686 C712 0.950 . S
H687 C714 0.950 . S
H688 C717 0.950 . S
H689 C718 0.950 . S
H690 C720 0.950 . S
H691 C721 0.952 . S
C692 H674 0.951 . S
C692 C693 1.366 . S
C692 C694 1.388 . S
C693 C692 1.366 . S
C693 C697 1.385 . S
C694 H675 0.951 . S
C694 C692 1.388 . S
C694 C695 1.366 . S
C695 C694 1.366 . S
C695 C696 1.414 . S
C695 C698 1.499 . S
C696 H676 0.950 . S
C696 C695 1.414 . S
C696 C697 1.374 . S
C697 H677 0.950 . S
C697 C693 1.385 . S
C697 C696 1.374 . S
C698 C695 1.499 . S
C698 C699 1.373 . S
C698 C700 1.389 . S
C699 H678 0.950 . S
C699 C698 1.373 . S
C699 C715 1.377 1_556 S
C700 C698 1.389 . S
C700 C701 1.524 . S
C700 C714 1.377 1_556 S
C701 C700 1.524 . S
C701 C702 1.397 . S
C701 C706 1.363 . S
C702 H679 0.950 . S
C702 C701 1.397 . S
C702 C703 1.334 . S
C703 H680 0.950 . S
C703 C702 1.334 . S
C703 C704 1.287 . S
C704 C703 1.287 . S
C704 C705 1.524 . S
C704 H723 0.913 . S
C705 H681 0.950 . S
C705 C704 1.524 . S
C705 C706 1.415 . S
C706 H682 0.952 . S
C706 C701 1.363 . S
C706 C705 1.415 . S
C707 H683 0.951 . S
C707 C708 1.366 . S
C707 C709 1.388 . S
C708 C707 1.366 . S
C708 C712 1.385 . S
C709 H684 0.951 . S
C709 C707 1.388 . S
C709 C710 1.366 . S
C710 C709 1.366 . S
C710 C711 1.414 . S
C710 C713 1.499 . S
C711 H685 0.950 . S
C711 C710 1.414 . S
C711 C712 1.374 . S
C712 H686 0.950 . S
C712 C708 1.385 . S
C712 C711 1.374 . S
C713 C710 1.499 . S
C713 C714 1.373 . S
C713 C715 1.389 . S
C714 H687 0.950 . S
C714 C700 1.377 1_554 S
C714 C713 1.373 . S
C715 C699 1.377 1_554 S
C715 C713 1.389 . S
C715 C716 1.524 . S
C716 C715 1.524 . S
C716 C717 1.397 . S
C716 C721 1.363 . S
C717 H688 0.950 . S
C717 C716 1.397 . S
C717 C718 1.334 . S
C718 H689 0.950 . S
C718 C717 1.334 . S
C718 C719 1.287 . S
C719 C718 1.287 . S
C719 C720 1.524 . S
C719 H722 0.999 . S
C720 H690 0.950 . S
C720 C719 1.524 . S
C720 C721 1.415 . S
C721 H691 0.952 . S
C721 C716 1.363 . S
C721 C720 1.415 . S
H722 C719 0.999 . S
H723 C704 0.913 . S
H724 C742 0.951 . S
H725 C744 0.951 . S
H726 C746 0.950 . S
H727 C747 0.950 . S
H728 C749 0.950 . S
H729 C752 0.950 . S
H730 C753 0.950 . S
H731 C755 0.950 . S
H732 C756 0.952 1_554 S
H733 C757 0.951 . S
H734 C759 0.951 . S
H735 C761 0.950 . S
H736 C762 0.950 . S
H737 C764 0.950 . S
H738 C767 0.950 . S
H739 C768 0.950 . S
H740 C770 0.950 . S
H741 C771 0.952 1_556 S
C742 H724 0.951 . S
C742 C743 1.366 . S
C742 C744 1.388 . S
C743 C742 1.366 . S
C743 C747 1.385 . S
C744 H725 0.951 . S
C744 C742 1.388 . S
C744 C745 1.366 . S
C745 C744 1.366 . S
C745 C746 1.414 . S
C745 C748 1.499 . S
C746 H726 0.950 . S
C746 C745 1.414 . S
C746 C747 1.374 . S
C747 H727 0.950 . S
C747 C743 1.385 . S
C747 C746 1.374 . S
C748 C745 1.499 . S
C748 C749 1.373 . S
C748 C750 1.389 . S
C749 H728 0.950 . S
C749 C748 1.373 . S
C749 C765 1.377 1_556 S
C750 C748 1.389 . S
C750 C751 1.524 . S
C750 C764 1.377 1_556 S
C751 C750 1.524 . S
C751 C752 1.397 . S
C751 C756 1.363 . S
C752 H729 0.950 . S
C752 C751 1.397 . S
C752 C753 1.334 . S
C753 H730 0.950 . S
C753 C752 1.334 . S
C753 C754 1.287 . S
C754 C753 1.287 . S
C754 C755 1.524 . S
C754 H773 0.913 . S
C755 H731 0.950 . S
C755 C754 1.524 . S
C755 C756 1.415 . S
C756 H732 0.952 1_556 S
C756 C751 1.363 . S
C756 C755 1.415 . S
C757 H733 0.951 . S
C757 C758 1.366 . S
C757 C759 1.388 . S
C758 C757 1.366 . S
C758 C762 1.385 . S
C759 H734 0.951 . S
C759 C757 1.388 . S
C759 C760 1.366 . S
C760 C759 1.366 . S
C760 C761 1.414 . S
C760 C763 1.499 . S
C761 H735 0.950 . S
C761 C760 1.414 . S
C761 C762 1.374 . S
C762 H736 0.950 . S
C762 C758 1.385 . S
C762 C761 1.374 . S
C763 C760 1.499 . S
C763 C764 1.373 . S
C763 C765 1.389 . S
C764 H737 0.950 . S
C764 C750 1.377 1_554 S
C764 C763 1.373 . S
C765 C749 1.377 1_554 S
C765 C763 1.389 . S
C765 C766 1.524 . S
C766 C765 1.524 . S
C766 C767 1.397 . S
C766 C771 1.363 . S
C767 H738 0.950 . S
C767 C766 1.397 . S
C767 C768 1.334 . S
C768 H739 0.950 . S
C768 C767 1.334 . S
C768 C769 1.287 . S
C769 C768 1.287 . S
C769 C770 1.524 . S
C769 H772 0.999 . S
C770 H740 0.950 . S
C770 C769 1.524 . S
C770 C771 1.415 . S
C771 H741 0.952 1_554 S
C771 C766 1.363 . S
C771 C770 1.415 . S
H772 C769 0.999 . S
H773 C754 0.913 . S
H774 C792 0.951 . S
H775 C794 0.951 . S
H776 C796 0.950 . S
H777 C797 0.950 . S
H778 C799 0.950 . S
H779 C802 0.950 . S
H780 C803 0.950 . S
H781 C805 0.950 . S
H782 C806 0.950 . S
H783 C807 0.951 . S
H784 C809 0.951 . S
H785 C811 0.950 . S
H786 C812 0.950 . S
H787 C814 0.950 . S
H788 C817 0.950 . S
H789 C818 0.950 . S
H790 C820 0.950 . S
H791 C821 0.950 . S
C792 H774 0.951 . S
C792 C793 1.366 . S
C792 C794 1.388 . S
C793 C792 1.366 . S
C793 C797 1.385 . S
C794 H775 0.951 . S
C794 C792 1.388 . S
C794 C795 1.366 . S
C795 C794 1.366 . S
C795 C796 1.414 . S
C795 C798 1.499 . S
C796 H776 0.950 . S
C796 C795 1.414 . S
C796 C797 1.374 . S
C797 H777 0.950 . S
C797 C793 1.385 . S
C797 C796 1.374 . S
C798 C795 1.499 . S
C798 C799 1.373 . S
C798 C800 1.389 . S
C799 H778 0.950 . S
C799 C798 1.373 . S
C799 C815 1.377 1_554 S
C800 C798 1.389 . S
C800 C801 1.524 . S
C800 C814 1.377 1_554 S
C801 C800 1.524 . S
C801 C802 1.397 . S
C801 C806 1.363 . S
C802 H779 0.950 . S
C802 C801 1.397 . S
C802 C803 1.334 . S
C803 H780 0.950 . S
C803 C802 1.334 . S
C803 C804 1.287 . S
C804 C803 1.287 . S
C804 C805 1.524 . S
C804 H823 0.913 . S
C805 H781 0.950 . S
C805 C804 1.524 . S
C805 C806 1.415 . S
C806 H782 0.950 . S
C806 C801 1.363 . S
C806 C805 1.415 . S
C807 H783 0.951 . S
C807 C808 1.366 . S
C807 C809 1.388 . S
C808 C807 1.366 . S
C808 C812 1.385 . S
C809 H784 0.951 . S
C809 C807 1.388 . S
C809 C810 1.366 . S
C810 C809 1.366 . S
C810 C811 1.414 . S
C810 C813 1.499 . S
C811 H785 0.950 . S
C811 C810 1.414 . S
C811 C812 1.374 . S
C812 H786 0.950 . S
C812 C808 1.385 . S
C812 C811 1.374 . S
C813 C810 1.499 . S
C813 C814 1.373 . S
C813 C815 1.389 . S
C814 H787 0.950 . S
C814 C800 1.377 1_556 S
C814 C813 1.373 . S
C815 C799 1.377 1_556 S
C815 C813 1.389 . S
C815 C816 1.524 . S
C816 C815 1.524 . S
C816 C817 1.397 . S
C816 C821 1.363 . S
C817 H788 0.950 . S
C817 C816 1.397 . S
C817 C818 1.334 . S
C818 H789 0.950 . S
C818 C817 1.334 . S
C818 C819 1.287 . S
C819 C818 1.287 . S
C819 C820 1.524 . S
C819 H822 0.999 . S
C820 H790 0.950 . S
C820 C819 1.524 . S
C820 C821 1.415 . S
C821 H791 0.950 . S
C821 C816 1.363 . S
C821 C820 1.415 . S
H822 C819 0.999 . S
H823 C804 0.913 . S
H824 C842 0.951 . S
H825 C844 0.951 . S
H826 C846 0.950 . S
H827 C847 0.950 . S
H828 C849 0.950 . S
H829 C852 0.950 . S
H830 C853 0.950 . S
H831 C855 0.950 . S
H832 C856 0.950 . S
H833 C857 0.951 . S
H834 C859 0.951 . S
H835 C861 0.950 . S
H836 C862 0.950 . S
H837 C864 0.950 . S
H838 C867 0.950 . S
H839 C868 0.950 . S
H840 C870 0.950 . S
H841 C871 0.950 . S
C842 H824 0.951 . S
C842 C843 1.366 . S
C842 C844 1.388 . S
C843 C842 1.366 . S
C843 C847 1.385 . S
C844 H825 0.951 . S
C844 C842 1.388 . S
C844 C845 1.366 . S
C845 C844 1.366 . S
C845 C846 1.414 . S
C845 C848 1.499 . S
C846 H826 0.950 . S
C846 C845 1.414 . S
C846 C847 1.374 . S
C847 H827 0.950 . S
C847 C843 1.385 . S
C847 C846 1.374 . S
C848 C845 1.499 . S
C848 C849 1.373 . S
C848 C850 1.389 . S
C849 H828 0.950 . S
C849 C848 1.373 . S
C849 C865 1.377 . S
C850 C848 1.389 . S
C850 C851 1.524 . S
C850 C864 1.377 . S
C851 C850 1.524 . S
C851 C852 1.397 . S
C851 C856 1.363 . S
C852 H829 0.950 . S
C852 C851 1.397 . S
C852 C853 1.334 . S
C853 H830 0.950 . S
C853 C852 1.334 . S
C853 C854 1.287 . S
C854 C853 1.287 . S
C854 C855 1.524 . S
C854 H873 0.913 . S
C855 H831 0.950 . S
C855 C854 1.524 . S
C855 C856 1.415 . S
C856 H832 0.950 . S
C856 C851 1.363 . S
C856 C855 1.415 . S
C857 H833 0.951 . S
C857 C858 1.366 . S
C857 C859 1.388 . S
C858 C857 1.366 . S
C858 C862 1.385 . S
C859 H834 0.951 . S
C859 C857 1.388 . S
C859 C860 1.366 . S
C860 C859 1.366 . S
C860 C861 1.414 . S
C860 C863 1.499 . S
C861 H835 0.950 . S
C861 C860 1.414 . S
C861 C862 1.374 . S
C862 H836 0.950 . S
C862 C858 1.385 . S
C862 C861 1.374 . S
C863 C860 1.499 . S
C863 C864 1.373 . S
C863 C865 1.389 . S
C864 H837 0.950 . S
C864 C850 1.377 . S
C864 C863 1.373 . S
C865 C849 1.377 . S
C865 C863 1.389 . S
C865 C866 1.524 . S
C866 C865 1.524 . S
C866 C867 1.397 . S
C866 C871 1.363 . S
C867 H838 0.950 . S
C867 C866 1.397 . S
C867 C868 1.334 . S
C868 H839 0.950 . S
C868 C867 1.334 . S
C868 C869 1.287 . S
C869 C868 1.287 . S
C869 C870 1.524 . S
C869 H872 0.999 . S
C870 H840 0.950 . S
C870 C869 1.524 . S
C870 C871 1.415 . S
C871 H841 0.950 . S
C871 C866 1.363 . S
C871 C870 1.415 . S
H872 C869 0.999 . S
H873 C854 0.913 . S
H874 C892 0.951 . S
H875 C894 0.951 . S
H876 C896 0.950 . S
H877 C897 0.950 . S
H878 C899 0.950 . S
H879 C902 0.950 . S
H880 C903 0.950 . S
H881 C905 0.950 . S
H882 C906 0.950 . S
H883 C907 0.951 . S
H884 C909 0.951 . S
H885 C911 0.950 . S
H886 C912 0.950 . S
H887 C914 0.950 . S
H888 C917 0.950 . S
H889 C918 0.950 . S
H890 C920 0.950 . S
H891 C921 0.950 . S
C892 H874 0.951 . S
C892 C893 1.366 . S
C892 C894 1.388 . S
C893 C892 1.366 . S
C893 C897 1.385 . S
C894 H875 0.951 . S
C894 C892 1.388 . S
C894 C895 1.366 . S
C895 C894 1.366 . S
C895 C896 1.414 . S
C895 C898 1.499 . S
C896 H876 0.950 . S
C896 C895 1.414 . S
C896 C897 1.374 . S
C897 H877 0.950 . S
C897 C893 1.385 . S
C897 C896 1.374 . S
C898 C895 1.499 . S
C898 C899 1.373 . S
C898 C900 1.389 . S
C899 H878 0.950 . S
C899 C898 1.373 . S
C899 C915 1.377 . S
C900 C898 1.389 . S
C900 C901 1.524 . S
C900 C914 1.377 . S
C901 C900 1.524 . S
C901 C902 1.397 . S
C901 C906 1.363 . S
C902 H879 0.950 . S
C902 C901 1.397 . S
C902 C903 1.334 . S
C903 H880 0.950 . S
C903 C902 1.334 . S
C903 C904 1.287 . S
C904 C903 1.287 . S
C904 C905 1.524 . S
C904 H923 0.913 . S
C905 H881 0.950 . S
C905 C904 1.524 . S
C905 C906 1.415 . S
C906 H882 0.950 . S
C906 C901 1.363 . S
C906 C905 1.415 . S
C907 H883 0.951 . S
C907 C908 1.366 . S
C907 C909 1.388 . S
C908 C907 1.366 . S
C908 C912 1.385 . S
C909 H884 0.951 . S
C909 C907 1.388 . S
C909 C910 1.366 . S
C910 C909 1.366 . S
C910 C911 1.414 . S
C910 C913 1.499 . S
C911 H885 0.950 . S
C911 C910 1.414 . S
C911 C912 1.374 . S
C912 H886 0.950 . S
C912 C908 1.385 . S
C912 C911 1.374 . S
C913 C910 1.499 . S
C913 C914 1.373 . S
C913 C915 1.389 . S
C914 H887 0.950 . S
C914 C900 1.377 . S
C914 C913 1.373 . S
C915 C899 1.377 . S
C915 C913 1.389 . S
C915 C916 1.524 . S
C916 C915 1.524 . S
C916 C917 1.397 . S
C916 C921 1.363 . S
C917 H888 0.950 . S
C917 C916 1.397 . S
C917 C918 1.334 . S
C918 H889 0.950 . S
C918 C917 1.334 . S
C918 C919 1.287 . S
C919 C918 1.287 . S
C919 C920 1.524 . S
C919 H922 0.999 . S
C920 H890 0.950 . S
C920 C919 1.524 . S
C920 C921 1.415 . S
C921 H891 0.950 . S
C921 C916 1.363 . S
C921 C920 1.415 . S
H922 C919 0.999 . S
H923 C904 0.913 . S
H924 C942 0.951 . S
H925 C944 0.951 . S
H926 C946 0.950 . S
H927 C947 0.950 . S
H928 C949 0.950 . S
H929 C952 0.950 . S
H930 C953 0.950 . S
H931 C955 0.950 . S
H932 C956 0.950 . S
H933 C957 0.951 . S
H934 C959 0.951 . S
H935 C961 0.950 . S
H936 C962 0.950 . S
H937 C964 0.950 . S
H938 C967 0.950 . S
H939 C968 0.950 . S
H940 C970 0.950 . S
H941 C971 0.950 . S
C942 H924 0.951 . S
C942 C943 1.366 . S
C942 C944 1.388 . S
C943 C942 1.366 . S
C943 C947 1.385 . S
C944 H925 0.951 . S
C944 C942 1.388 . S
C944 C945 1.366 . S
C945 C944 1.366 . S
C945 C946 1.414 . S
C945 C948 1.499 . S
C946 H926 0.950 . S
C946 C945 1.414 . S
C946 C947 1.374 . S
C947 H927 0.950 . S
C947 C943 1.385 . S
C947 C946 1.374 . S
C948 C945 1.499 . S
C948 C949 1.373 . S
C948 C950 1.389 . S
C949 H928 0.950 . S
C949 C948 1.373 . S
C949 C965 1.377 . S
C950 C948 1.389 . S
C950 C951 1.524 . S
C950 C964 1.377 . S
C951 C950 1.524 . S
C951 C952 1.397 . S
C951 C956 1.363 . S
C952 H929 0.950 . S
C952 C951 1.397 . S
C952 C953 1.334 . S
C953 H930 0.950 . S
C953 C952 1.334 . S
C953 C954 1.287 . S
C954 C953 1.287 . S
C954 C955 1.524 . S
C954 H973 0.913 . S
C955 H931 0.950 . S
C955 C954 1.524 . S
C955 C956 1.415 . S
C956 H932 0.950 . S
C956 C951 1.363 . S
C956 C955 1.415 . S
C957 H933 0.951 . S
C957 C958 1.366 . S
C957 C959 1.388 . S
C958 C957 1.366 . S
C958 C962 1.385 . S
C959 H934 0.951 . S
C959 C957 1.388 . S
C959 C960 1.366 . S
C960 C959 1.366 . S
C960 C961 1.414 . S
C960 C963 1.499 . S
C961 H935 0.950 . S
C961 C960 1.414 . S
C961 C962 1.374 . S
C962 H936 0.950 . S
C962 C958 1.385 . S
C962 C961 1.374 . S
C963 C960 1.499 . S
C963 C964 1.373 . S
C963 C965 1.389 . S
C964 H937 0.950 . S
C964 C950 1.377 . S
C964 C963 1.373 . S
C965 C949 1.377 . S
C965 C963 1.389 . S
C965 C966 1.524 . S
C966 C965 1.524 . S
C966 C967 1.397 . S
C966 C971 1.363 . S
C967 H938 0.950 . S
C967 C966 1.397 . S
C967 C968 1.334 . S
C968 H939 0.950 . S
C968 C967 1.334 . S
C968 C969 1.287 . S
C969 C968 1.287 . S
C969 C970 1.524 . S
C969 H972 0.999 . S
C970 H940 0.950 . S
C970 C969 1.524 . S
C970 C971 1.415 . S
C971 H941 0.950 . S
C971 C966 1.363 . S
C971 C970 1.415 . S
H972 C969 0.999 . S
H973 C954 0.913 . S
H974 C992 0.951 . S
H975 C994 0.951 . S
H976 C996 0.950 . S
H977 C997 0.950 . S
H978 C999 0.950 . S
H979 C1002 0.950 . S
H980 C1003 0.950 . S
H981 C1005 0.950 . S
H982 C1006 0.950 . S
H983 C1007 0.951 . S
H984 C1009 0.951 . S
H985 C1011 0.950 . S
H986 C1012 0.950 . S
H987 C1014 0.950 . S
H988 C1017 0.950 . S
H989 C1018 0.950 . S
H990 C1020 0.950 . S
H991 C1021 0.950 . S
C992 H974 0.951 . S
C992 C993 1.366 . S
C992 C994 1.388 . S
C993 C992 1.366 . S
C993 C997 1.385 . S
C994 H975 0.951 . S
C994 C992 1.388 . S
C994 C995 1.366 . S
C995 C994 1.366 . S
C995 C996 1.414 . S
C995 C998 1.499 . S
C996 H976 0.950 . S
C996 C995 1.414 . S
C996 C997 1.374 . S
C997 H977 0.950 . S
C997 C993 1.385 . S
C997 C996 1.374 . S
C998 C995 1.499 . S
C998 C999 1.373 . S
C998 C1000 1.389 . S
C999 H978 0.950 . S
C999 C998 1.373 . S
C999 C1015 1.377 . S
C1000 C998 1.389 . S
C1000 C1001 1.524 . S
C1000 C1014 1.377 . S
C1001 C1000 1.524 . S
C1001 C1002 1.397 . S
C1001 C1006 1.363 . S
C1002 H979 0.950 . S
C1002 C1001 1.397 . S
C1002 C1003 1.334 . S
C1003 H980 0.950 . S
C1003 C1002 1.334 . S
C1003 C1004 1.287 . S
C1004 C1003 1.287 . S
C1004 C1005 1.524 . S
C1004 H1023 0.913 . S
C1005 H981 0.950 . S
C1005 C1004 1.524 . S
C1005 C1006 1.415 . S
C1006 H982 0.950 . S
C1006 C1001 1.363 . S
C1006 C1005 1.415 . S
C1007 H983 0.951 . S
C1007 C1008 1.366 . S
C1007 C1009 1.388 . S
C1008 C1007 1.366 . S
C1008 C1012 1.385 . S
C1009 H984 0.951 . S
C1009 C1007 1.388 . S
C1009 C1010 1.366 . S
C1010 C1009 1.366 . S
C1010 C1011 1.414 . S
C1010 C1013 1.499 . S
C1011 H985 0.950 . S
C1011 C1010 1.414 . S
C1011 C1012 1.374 . S
C1012 H986 0.950 . S
C1012 C1008 1.385 . S
C1012 C1011 1.374 . S
C1013 C1010 1.499 . S
C1013 C1014 1.373 . S
C1013 C1015 1.389 . S
C1014 H987 0.950 . S
C1014 C1000 1.377 . S
C1014 C1013 1.373 . S
C1015 C999 1.377 . S
C1015 C1013 1.389 . S
C1015 C1016 1.524 . S
C1016 C1015 1.524 . S
C1016 C1017 1.397 . S
C1016 C1021 1.363 . S
C1017 H988 0.950 . S
C1017 C1016 1.397 . S
C1017 C1018 1.334 . S
C1018 H989 0.950 . S
C1018 C1017 1.334 . S
C1018 C1019 1.287 . S
C1019 C1018 1.287 . S
C1019 C1020 1.524 . S
C1019 H1022 0.999 . S
C1020 H990 0.950 . S
C1020 C1019 1.524 . S
C1020 C1021 1.415 . S
C1021 H991 0.950 . S
C1021 C1016 1.363 . S
C1021 C1020 1.415 . S
H1022 C1019 0.999 . S
H1023 C1004 0.913 . S
H1024 C1042 0.951 . S
H1025 C1044 0.951 . S
H1026 C1046 0.950 . S
H1027 C1047 0.950 . S
H1028 C1049 0.950 . S
H1029 C1052 0.950 . S
H1030 C1053 0.950 . S
H1031 C1055 0.950 . S
H1032 C1056 0.950 . S
H1033 C1057 0.951 . S
H1034 C1059 0.951 . S
H1035 C1061 0.950 . S
H1036 C1062 0.950 . S
H1037 C1064 0.950 . S
H1038 C1067 0.950 . S
H1039 C1068 0.950 . S
H1040 C1070 0.950 . S
H1041 C1071 0.950 . S
C1042 H1024 0.951 . S
C1042 C1043 1.366 . S
C1042 C1044 1.388 . S
C1043 C1042 1.366 . S
C1043 C1047 1.385 . S
C1044 H1025 0.951 . S
C1044 C1042 1.388 . S
C1044 C1045 1.366 . S
C1045 C1044 1.366 . S
C1045 C1046 1.414 . S
C1045 C1048 1.499 . S
C1046 H1026 0.950 . S
C1046 C1045 1.414 . S
C1046 C1047 1.374 . S
C1047 H1027 0.950 . S
C1047 C1043 1.385 . S
C1047 C1046 1.374 . S
C1048 C1045 1.499 . S
C1048 C1049 1.373 . S
C1048 C1050 1.389 . S
C1049 H1028 0.950 . S
C1049 C1048 1.373 . S
C1049 C1065 1.377 . S
C1050 C1048 1.389 . S
C1050 C1051 1.524 . S
C1050 C1064 1.377 . S
C1051 C1050 1.524 . S
C1051 C1052 1.397 . S
C1051 C1056 1.363 . S
C1052 H1029 0.950 . S
C1052 C1051 1.397 . S
C1052 C1053 1.334 . S
C1053 H1030 0.950 . S
C1053 C1052 1.334 . S
C1053 C1054 1.287 . S
C1054 C1053 1.287 . S
C1054 C1055 1.524 . S
C1054 H1073 0.913 . S
C1055 H1031 0.950 . S
C1055 C1054 1.524 . S
C1055 C1056 1.415 . S
C1056 H1032 0.950 . S
C1056 C1051 1.363 . S
C1056 C1055 1.415 . S
C1057 H1033 0.951 . S
C1057 C1058 1.366 . S
C1057 C1059 1.388 . S
C1058 C1057 1.366 . S
C1058 C1062 1.385 . S
C1059 H1034 0.951 . S
C1059 C1057 1.388 . S
C1059 C1060 1.366 . S
C1060 C1059 1.366 . S
C1060 C1061 1.414 . S
C1060 C1063 1.499 . S
C1061 H1035 0.950 . S
C1061 C1060 1.414 . S
C1061 C1062 1.374 . S
C1062 H1036 0.950 . S
C1062 C1058 1.385 . S
C1062 C1061 1.374 . S
C1063 C1060 1.499 . S
C1063 C1064 1.373 . S
C1063 C1065 1.389 . S
C1064 H1037 0.950 . S
C1064 C1050 1.377 . S
C1064 C1063 1.373 . S
C1065 C1049 1.377 . S
C1065 C1063 1.389 . S
C1065 C1066 1.524 . S
C1066 C1065 1.524 . S
C1066 C1067 1.397 . S
C1066 C1071 1.363 . S
C1067 H1038 0.950 . S
C1067 C1066 1.397 . S
C1067 C1068 1.334 . S
C1068 H1039 0.950 . S
C1068 C1067 1.334 . S
C1068 C1069 1.287 . S
C1069 C1068 1.287 . S
C1069 C1070 1.524 . S
C1069 H1072 0.999 . S
C1070 H1040 0.950 . S
C1070 C1069 1.524 . S
C1070 C1071 1.415 . S
C1071 H1041 0.950 . S
C1071 C1066 1.363 . S
C1071 C1070 1.415 . S
H1072 C1069 0.999 . S
H1073 C1054 0.913 . S
H1074 C1092 0.951 . S
H1075 C1094 0.951 . S
H1076 C1096 0.950 . S
H1077 C1097 0.950 . S
H1078 C1099 0.950 . S
H1079 C1102 0.950 . S
H1080 C1103 0.950 . S
H1081 C1105 0.950 . S
H1082 C1106 0.950 . S
H1083 C1107 0.951 . S
H1084 C1109 0.951 . S
H1085 C1111 0.950 . S
H1086 C1112 0.950 . S
H1087 C1114 0.950 . S
H1088 C1117 0.950 . S
H1089 C1118 0.950 . S
H1090 C1120 0.950 . S
H1091 C1121 0.950 . S
C1092 H1074 0.951 . S
C1092 C1093 1.366 . S
C1092 C1094 1.388 . S
C1093 C1092 1.366 . S
C1093 C1097 1.385 . S
C1094 H1075 0.951 . S
C1094 C1092 1.388 . S
C1094 C1095 1.366 . S
C1095 C1094 1.366 . S
C1095 C1096 1.414 . S
C1095 C1098 1.499 . S
C1096 H1076 0.950 . S
C1096 C1095 1.414 . S
C1096 C1097 1.374 . S
C1097 H1077 0.950 . S
C1097 C1093 1.385 . S
C1097 C1096 1.374 . S
C1098 C1095 1.499 . S
C1098 C1099 1.373 . S
C1098 C1100 1.389 . S
C1099 H1078 0.950 . S
C1099 C1098 1.373 . S
C1099 C1115 1.377 . S
C1100 C1098 1.389 . S
C1100 C1101 1.524 . S
C1100 C1114 1.377 . S
C1101 C1100 1.524 . S
C1101 C1102 1.397 . S
C1101 C1106 1.363 . S
C1102 H1079 0.950 . S
C1102 C1101 1.397 . S
C1102 C1103 1.334 . S
C1103 H1080 0.950 . S
C1103 C1102 1.334 . S
C1103 C1104 1.287 . S
C1104 C1103 1.287 . S
C1104 C1105 1.524 . S
C1104 H1123 0.913 . S
C1105 H1081 0.950 . S
C1105 C1104 1.524 . S
C1105 C1106 1.415 . S
C1106 H1082 0.950 . S
C1106 C1101 1.363 . S
C1106 C1105 1.415 . S
C1107 H1083 0.951 . S
C1107 C1108 1.366 . S
C1107 C1109 1.388 . S
C1108 C1107 1.366 . S
C1108 C1112 1.385 . S
C1109 H1084 0.951 . S
C1109 C1107 1.388 . S
C1109 C1110 1.366 . S
C1110 C1109 1.366 . S
C1110 C1111 1.414 . S
C1110 C1113 1.499 . S
C1111 H1085 0.950 . S
C1111 C1110 1.414 . S
C1111 C1112 1.374 . S
C1112 H1086 0.950 . S
C1112 C1108 1.385 . S
C1112 C1111 1.374 . S
C1113 C1110 1.499 . S
C1113 C1114 1.373 . S
C1113 C1115 1.389 . S
C1114 H1087 0.950 . S
C1114 C1100 1.377 . S
C1114 C1113 1.373 . S
C1115 C1099 1.377 . S
C1115 C1113 1.389 . S
C1115 C1116 1.524 . S
C1116 C1115 1.524 . S
C1116 C1117 1.397 . S
C1116 C1121 1.363 . S
C1117 H1088 0.950 . S
C1117 C1116 1.397 . S
C1117 C1118 1.334 . S
C1118 H1089 0.950 . S
C1118 C1117 1.334 . S
C1118 C1119 1.287 . S
C1119 C1118 1.287 . S
C1119 C1120 1.524 . S
C1119 H1122 0.999 . S
C1120 H1090 0.950 . S
C1120 C1119 1.524 . S
C1120 C1121 1.415 . S
C1121 H1091 0.950 . S
C1121 C1116 1.363 . S
C1121 C1120 1.415 . S
H1122 C1119 0.999 . S
H1123 C1104 0.913 . S
H1124 C1142 0.951 . S
H1125 C1144 0.951 . S
H1126 C1146 0.950 . S
H1127 C1147 0.950 . S
H1128 C1149 0.950 . S
H1129 C1152 0.950 . S
H1130 C1153 0.950 . S
H1131 C1155 0.950 . S
H1132 C1156 0.950 . S
H1133 C1157 0.951 . S
H1134 C1159 0.951 . S
H1135 C1161 0.950 . S
H1136 C1162 0.950 . S
H1137 C1164 0.950 . S
H1138 C1167 0.950 . S
H1139 C1168 0.950 . S
H1140 C1170 0.950 . S
H1141 C1171 0.950 . S
C1142 H1124 0.951 . S
C1142 C1143 1.366 . S
C1142 C1144 1.388 . S
C1143 C1142 1.366 . S
C1143 C1147 1.385 . S
C1144 H1125 0.951 . S
C1144 C1142 1.388 . S
C1144 C1145 1.366 . S
C1145 C1144 1.366 . S
C1145 C1146 1.414 . S
C1145 C1148 1.499 . S
C1146 H1126 0.950 . S
C1146 C1145 1.414 . S
C1146 C1147 1.374 . S
C1147 H1127 0.950 . S
C1147 C1143 1.385 . S
C1147 C1146 1.374 . S
C1148 C1145 1.499 . S
C1148 C1149 1.373 . S
C1148 C1150 1.389 . S
C1149 H1128 0.950 . S
C1149 C1148 1.373 . S
C1149 C1165 1.377 . S
C1150 C1148 1.389 . S
C1150 C1151 1.524 . S
C1150 C1164 1.377 . S
C1151 C1150 1.524 . S
C1151 C1152 1.397 . S
C1151 C1156 1.363 . S
C1152 H1129 0.950 . S
C1152 C1151 1.397 . S
C1152 C1153 1.334 . S
C1153 H1130 0.950 . S
C1153 C1152 1.334 . S
C1153 C1154 1.287 . S
C1154 C1153 1.287 . S
C1154 C1155 1.524 . S
C1154 H1173 0.913 . S
C1155 H1131 0.950 . S
C1155 C1154 1.524 . S
C1155 C1156 1.415 . S
C1156 H1132 0.950 . S
C1156 C1151 1.363 . S
C1156 C1155 1.415 . S
C1157 H1133 0.951 . S
C1157 C1158 1.366 . S
C1157 C1159 1.388 . S
C1158 C1157 1.366 . S
C1158 C1162 1.385 . S
C1159 H1134 0.951 . S
C1159 C1157 1.388 . S
C1159 C1160 1.366 . S
C1160 C1159 1.366 . S
C1160 C1161 1.414 . S
C1160 C1163 1.499 . S
C1161 H1135 0.950 . S
C1161 C1160 1.414 . S
C1161 C1162 1.374 . S
C1162 H1136 0.950 . S
C1162 C1158 1.385 . S
C1162 C1161 1.374 . S
C1163 C1160 1.499 . S
C1163 C1164 1.373 . S
C1163 C1165 1.389 . S
C1164 H1137 0.950 . S
C1164 C1150 1.377 . S
C1164 C1163 1.373 . S
C1165 C1149 1.377 . S
C1165 C1163 1.389 . S
C1165 C1166 1.524 . S
C1166 C1165 1.524 . S
C1166 C1167 1.397 . S
C1166 C1171 1.363 . S
C1167 H1138 0.950 . S
C1167 C1166 1.397 . S
C1167 C1168 1.334 . S
C1168 H1139 0.950 . S
C1168 C1167 1.334 . S
C1168 C1169 1.287 . S
C1169 C1168 1.287 . S
C1169 C1170 1.524 . S
C1169 H1172 0.999 . S
C1170 H1140 0.950 . S
C1170 C1169 1.524 . S
C1170 C1171 1.415 . S
C1171 H1141 0.950 . S
C1171 C1166 1.363 . S
C1171 C1170 1.415 . S
H1172 C1169 0.999 . S
H1173 C1154 0.913 . S
H1174 C1192 0.951 . S
H1175 C1194 0.951 . S
H1176 C1196 0.950 . S
H1177 C1197 0.950 . S
H1178 C1199 0.950 . S
H1179 C1202 0.950 . S
H1180 C1203 0.950 . S
H1181 C1205 0.950 . S
H1182 C1206 0.950 . S
H1183 C1207 0.951 . S
H1184 C1209 0.951 . S
H1185 C1211 0.950 . S
H1186 C1212 0.950 . S
H1187 C1214 0.950 . S
H1188 C1217 0.950 . S
H1189 C1218 0.950 . S
H1190 C1220 0.950 . S
H1191 C1221 0.950 . S
C1192 H1174 0.951 . S
C1192 C1193 1.366 . S
C1192 C1194 1.388 . S
C1193 C1192 1.366 . S
C1193 C1197 1.385 . S
C1194 H1175 0.951 . S
C1194 C1192 1.388 . S
C1194 C1195 1.366 . S
C1195 C1194 1.366 . S
C1195 C1196 1.414 . S
C1195 C1198 1.499 . S
C1196 H1176 0.950 . S
C1196 C1195 1.414 . S
C1196 C1197 1.374 . S
C1197 H1177 0.950 . S
C1197 C1193 1.385 . S
C1197 C1196 1.374 . S
C1198 C1195 1.499 . S
C1198 C1199 1.373 . S
C1198 C1200 1.389 . S
C1199 H1178 0.950 . S
C1199 C1198 1.373 . S
C1199 C1215 1.377 . S
C1200 C1198 1.389 . S
C1200 C1201 1.524 . S
C1200 C1214 1.377 . S
C1201 C1200 1.524 . S
C1201 C1202 1.397 . S
C1201 C1206 1.363 . S
C1202 H1179 0.950 . S
C1202 C1201 1.397 . S
C1202 C1203 1.334 . S
C1203 H1180 0.950 . S
C1203 C1202 1.334 . S
C1203 C1204 1.287 . S
C1204 C1203 1.287 . S
C1204 C1205 1.524 . S
C1204 H1223 0.913 . S
C1205 H1181 0.950 . S
C1205 C1204 1.524 . S
C1205 C1206 1.415 . S
C1206 H1182 0.950 . S
C1206 C1201 1.363 . S
C1206 C1205 1.415 . S
C1207 H1183 0.951 . S
C1207 C1208 1.366 . S
C1207 C1209 1.388 . S
C1208 C1207 1.366 . S
C1208 C1212 1.385 . S
C1209 H1184 0.951 . S
C1209 C1207 1.388 . S
C1209 C1210 1.366 . S
C1210 C1209 1.366 . S
C1210 C1211 1.414 . S
C1210 C1213 1.499 . S
C1211 H1185 0.950 . S
C1211 C1210 1.414 . S
C1211 C1212 1.374 . S
C1212 H1186 0.950 . S
C1212 C1208 1.385 . S
C1212 C1211 1.374 . S
C1213 C1210 1.499 . S
C1213 C1214 1.373 . S
C1213 C1215 1.389 . S
C1214 H1187 0.950 . S
C1214 C1200 1.377 . S
C1214 C1213 1.373 . S
C1215 C1199 1.377 . S
C1215 C1213 1.389 . S
C1215 C1216 1.524 . S
C1216 C1215 1.524 . S
C1216 C1217 1.397 . S
C1216 C1221 1.363 . S
C1217 H1188 0.950 . S
C1217 C1216 1.397 . S
C1217 C1218 1.334 . S
C1218 H1189 0.950 . S
C1218 C1217 1.334 . S
C1218 C1219 1.287 . S
C1219 C1218 1.287 . S
C1219 C1220 1.524 . S
C1219 H1222 0.999 . S
C1220 H1190 0.950 . S
C1220 C1219 1.524 . S
C1220 C1221 1.415 . S
C1221 H1191 0.950 . S
C1221 C1216 1.363 . S
C1221 C1220 1.415 . S
H1222 C1219 0.999 . S
H1223 C1204 0.913 . S
H1224 C1242 0.951 . S
H1225 C1244 0.951 . S
H1226 C1246 0.950 . S
H1227 C1247 0.950 . S
H1228 C1249 0.950 . S
H1229 C1252 0.950 . S
H1230 C1253 0.950 . S
H1231 C1255 0.950 . S
H1232 C1256 0.950 . S
H1233 C1257 0.951 . S
H1234 C1259 0.951 . S
H1235 C1261 0.950 . S
H1236 C1262 0.950 . S
H1237 C1264 0.950 . S
H1238 C1267 0.950 . S
H1239 C1268 0.950 . S
H1240 C1270 0.950 . S
H1241 C1271 0.950 . S
C1242 H1224 0.951 . S
C1242 C1243 1.366 . S
C1242 C1244 1.388 . S
C1243 C1242 1.366 . S
C1243 C1247 1.385 . S
C1244 H1225 0.951 . S
C1244 C1242 1.388 . S
C1244 C1245 1.366 . S
C1245 C1244 1.366 . S
C1245 C1246 1.414 . S
C1245 C1248 1.499 . S
C1246 H1226 0.950 . S
C1246 C1245 1.414 . S
C1246 C1247 1.374 . S
C1247 H1227 0.950 . S
C1247 C1243 1.385 . S
C1247 C1246 1.374 . S
C1248 C1245 1.499 . S
C1248 C1249 1.373 . S
C1248 C1250 1.389 . S
C1249 H1228 0.950 . S
C1249 C1248 1.373 . S
C1249 C1265 1.377 . S
C1250 C1248 1.389 . S
C1250 C1251 1.524 . S
C1250 C1264 1.377 . S
C1251 C1250 1.524 . S
C1251 C1252 1.397 . S
C1251 C1256 1.363 . S
C1252 H1229 0.950 . S
C1252 C1251 1.397 . S
C1252 C1253 1.334 . S
C1253 H1230 0.950 . S
C1253 C1252 1.334 . S
C1253 C1254 1.287 . S
C1254 C1253 1.287 . S
C1254 C1255 1.524 . S
C1254 H1273 0.913 . S
C1255 H1231 0.950 . S
C1255 C1254 1.524 . S
C1255 C1256 1.415 . S
C1256 H1232 0.950 . S
C1256 C1251 1.363 . S
C1256 C1255 1.415 . S
C1257 H1233 0.951 . S
C1257 C1258 1.366 . S
C1257 C1259 1.388 . S
C1258 C1257 1.366 . S
C1258 C1262 1.385 . S
C1259 H1234 0.951 . S
C1259 C1257 1.388 . S
C1259 C1260 1.366 . S
C1260 C1259 1.366 . S
C1260 C1261 1.414 . S
C1260 C1263 1.499 . S
C1261 H1235 0.950 . S
C1261 C1260 1.414 . S
C1261 C1262 1.374 . S
C1262 H1236 0.950 . S
C1262 C1258 1.385 . S
C1262 C1261 1.374 . S
C1263 C1260 1.499 . S
C1263 C1264 1.373 . S
C1263 C1265 1.389 . S
C1264 H1237 0.950 . S
C1264 C1250 1.377 . S
C1264 C1263 1.373 . S
C1265 C1249 1.377 . S
C1265 C1263 1.389 . S
C1265 C1266 1.524 . S
C1266 C1265 1.524 . S
C1266 C1267 1.397 . S
C1266 C1271 1.363 . S
C1267 H1238 0.950 . S
C1267 C1266 1.397 . S
C1267 C1268 1.334 . S
C1268 H1239 0.950 . S
C1268 C1267 1.334 . S
C1268 C1269 1.287 . S
C1269 C1268 1.287 . S
C1269 C1270 1.524 . S
C1269 H1272 0.999 . S
C1270 H1240 0.950 . S
C1270 C1269 1.524 . S
C1270 C1271 1.415 . S
C1271 H1241 0.950 . S
C1271 C1266 1.363 . S
C1271 C1270 1.415 . S
H1272 C1269 0.999 . S
H1273 C1254 0.913 . S
H1274 C1292 0.951 . S
H1275 C1294 0.951 . S
H1276 C1296 0.950 . S
H1277 C1297 0.950 . S
H1278 C1299 0.950 . S
H1279 C1302 0.950 . S
H1280 C1303 0.950 . S
H1281 C1305 0.950 . S
H1282 C1306 0.950 . S
H1283 C1307 0.951 . S
H1284 C1309 0.951 . S
H1285 C1311 0.950 . S
H1286 C1312 0.950 . S
H1287 C1314 0.950 . S
H1288 C1317 0.950 . S
H1289 C1318 0.950 . S
H1290 C1320 0.950 . S
H1291 C1321 0.950 . S
C1292 H1274 0.951 . S
C1292 C1293 1.366 . S
C1292 C1294 1.388 . S
C1293 C1292 1.366 . S
C1293 C1297 1.385 . S
C1294 H1275 0.951 . S
C1294 C1292 1.388 . S
C1294 C1295 1.366 . S
C1295 C1294 1.366 . S
C1295 C1296 1.414 . S
C1295 C1298 1.499 . S
C1296 H1276 0.950 . S
C1296 C1295 1.414 . S
C1296 C1297 1.374 . S
C1297 H1277 0.950 . S
C1297 C1293 1.385 . S
C1297 C1296 1.374 . S
C1298 C1295 1.499 . S
C1298 C1299 1.373 . S
C1298 C1300 1.389 . S
C1299 H1278 0.950 . S
C1299 C1298 1.373 . S
C1299 C1315 1.377 . S
C1300 C1298 1.389 . S
C1300 C1301 1.524 . S
C1300 C1314 1.377 . S
C1301 C1300 1.524 . S
C1301 C1302 1.397 . S
C1301 C1306 1.363 . S
C1302 H1279 0.950 . S
C1302 C1301 1.397 . S
C1302 C1303 1.334 . S
C1303 H1280 0.950 . S
C1303 C1302 1.334 . S
C1303 C1304 1.287 . S
C1304 C1303 1.287 . S
C1304 C1305 1.524 . S
C1304 H1323 0.913 . S
C1305 H1281 0.950 . S
C1305 C1304 1.524 . S
C1305 C1306 1.415 . S
C1306 H1282 0.950 . S
C1306 C1301 1.363 . S
C1306 C1305 1.415 . S
C1307 H1283 0.951 . S
C1307 C1308 1.366 . S
C1307 C1309 1.388 . S
C1308 C1307 1.366 . S
C1308 C1312 1.385 . S
C1309 H1284 0.951 . S
C1309 C1307 1.388 . S
C1309 C1310 1.366 . S
C1310 C1309 1.366 . S
C1310 C1311 1.414 . S
C1310 C1313 1.499 . S
C1311 H1285 0.950 . S
C1311 C1310 1.414 . S
C1311 C1312 1.374 . S
C1312 H1286 0.950 . S
C1312 C1308 1.385 . S
C1312 C1311 1.374 . S
C1313 C1310 1.499 . S
C1313 C1314 1.373 . S
C1313 C1315 1.389 . S
C1314 H1287 0.950 . S
C1314 C1300 1.377 . S
C1314 C1313 1.373 . S
C1315 C1299 1.377 . S
C1315 C1313 1.389 . S
C1315 C1316 1.524 . S
C1316 C1315 1.524 . S
C1316 C1317 1.397 . S
C1316 C1321 1.363 . S
C1317 H1288 0.950 . S
C1317 C1316 1.397 . S
C1317 C1318 1.334 . S
C1318 H1289 0.950 . S
C1318 C1317 1.334 . S
C1318 C1319 1.287 . S
C1319 C1318 1.287 . S
C1319 C1320 1.524 . S
C1319 H1322 0.999 . S
C1320 H1290 0.950 . S
C1320 C1319 1.524 . S
C1320 C1321 1.415 . S
C1321 H1291 0.950 . S
C1321 C1316 1.363 . S
C1321 C1320 1.415 . S
H1322 C1319 0.999 . S
H1323 C1304 0.913 . S
H1324 C1342 0.951 . S
H1325 C1344 0.951 . S
H1326 C1346 0.950 . S
H1327 C1347 0.950 . S
H1328 C1349 0.950 . S
H1329 C1352 0.950 . S
H1330 C1353 0.950 . S
H1331 C1355 0.950 . S
H1332 C1356 0.950 . S
H1333 C1357 0.951 . S
H1334 C1359 0.951 . S
H1335 C1361 0.950 . S
H1336 C1362 0.950 . S
H1337 C1364 0.950 . S
H1338 C1367 0.950 . S
H1339 C1368 0.950 . S
H1340 C1370 0.950 . S
H1341 C1371 0.950 . S
C1342 H1324 0.951 . S
C1342 C1343 1.366 . S
C1342 C1344 1.388 . S
C1343 C1342 1.366 . S
C1343 C1347 1.385 . S
C1344 H1325 0.951 . S
C1344 C1342 1.388 . S
C1344 C1345 1.366 . S
C1345 C1344 1.366 . S
C1345 C1346 1.414 . S
C1345 C1348 1.499 . S
C1346 H1326 0.950 . S
C1346 C1345 1.414 . S
C1346 C1347 1.374 . S
C1347 H1327 0.950 . S
C1347 C1343 1.385 . S
C1347 C1346 1.374 . S
C1348 C1345 1.499 . S
C1348 C1349 1.373 . S
C1348 C1350 1.389 . S
C1349 H1328 0.950 . S
C1349 C1348 1.373 . S
C1349 C1365 1.377 . S
C1350 C1348 1.389 . S
C1350 C1351 1.524 . S
C1350 C1364 1.377 . S
C1351 C1350 1.524 . S
C1351 C1352 1.397 . S
C1351 C1356 1.363 . S
C1352 H1329 0.950 . S
C1352 C1351 1.397 . S
C1352 C1353 1.334 . S
C1353 H1330 0.950 . S
C1353 C1352 1.334 . S
C1353 C1354 1.287 . S
C1354 C1353 1.287 . S
C1354 C1355 1.524 . S
C1354 H1373 0.913 . S
C1355 H1331 0.950 . S
C1355 C1354 1.524 . S
C1355 C1356 1.415 . S
C1356 H1332 0.950 . S
C1356 C1351 1.363 . S
C1356 C1355 1.415 . S
C1357 H1333 0.951 . S
C1357 C1358 1.366 . S
C1357 C1359 1.388 . S
C1358 C1357 1.366 . S
C1358 C1362 1.385 . S
C1359 H1334 0.951 . S
C1359 C1357 1.388 . S
C1359 C1360 1.366 . S
C1360 C1359 1.366 . S
C1360 C1361 1.414 . S
C1360 C1363 1.499 . S
C1361 H1335 0.950 . S
C1361 C1360 1.414 . S
C1361 C1362 1.374 . S
C1362 H1336 0.950 . S
C1362 C1358 1.385 . S
C1362 C1361 1.374 . S
C1363 C1360 1.499 . S
C1363 C1364 1.373 . S
C1363 C1365 1.389 . S
C1364 H1337 0.950 . S
C1364 C1350 1.377 . S
C1364 C1363 1.373 . S
C1365 C1349 1.377 . S
C1365 C1363 1.389 . S
C1365 C1366 1.524 . S
C1366 C1365 1.524 . S
C1366 C1367 1.397 . S
C1366 C1371 1.363 . S
C1367 H1338 0.950 . S
C1367 C1366 1.397 . S
C1367 C1368 1.334 . S
C1368 H1339 0.950 . S
C1368 C1367 1.334 . S
C1368 C1369 1.287 . S
C1369 C1368 1.287 . S
C1369 C1370 1.524 . S
C1369 H1372 0.999 . S
C1370 H1340 0.950 . S
C1370 C1369 1.524 . S
C1370 C1371 1.415 . S
C1371 H1341 0.950 . S
C1371 C1366 1.363 . S
C1371 C1370 1.415 . S
H1372 C1369 0.999 . S
H1373 C1354 0.913 . S
H1374 C1392 0.951 . S
H1375 C1394 0.951 . S
H1376 C1396 0.950 . S
H1377 C1397 0.950 . S
H1378 C1399 0.950 . S
H1379 C1402 0.950 . S
H1380 C1403 0.950 . S
H1381 C1405 0.950 . S
H1382 C1406 0.950 . S
H1383 C1407 0.951 . S
H1384 C1409 0.951 . S
H1385 C1411 0.950 . S
H1386 C1412 0.950 . S
H1387 C1414 0.950 . S
H1388 C1417 0.950 . S
H1389 C1418 0.950 . S
H1390 C1420 0.950 . S
H1391 C1421 0.950 . S
C1392 H1374 0.951 . S
C1392 C1393 1.366 . S
C1392 C1394 1.388 . S
C1393 C1392 1.366 . S
C1393 C1397 1.385 . S
C1394 H1375 0.951 . S
C1394 C1392 1.388 . S
C1394 C1395 1.366 . S
C1395 C1394 1.366 . S
C1395 C1396 1.414 . S
C1395 C1398 1.499 . S
C1396 H1376 0.950 . S
C1396 C1395 1.414 . S
C1396 C1397 1.374 . S
C1397 H1377 0.950 . S
C1397 C1393 1.385 . S
C1397 C1396 1.374 . S
C1398 C1395 1.499 . S
C1398 C1399 1.373 . S
C1398 C1400 1.389 . S
C1399 H1378 0.950 . S
C1399 C1398 1.373 . S
C1399 C1415 1.377 . S
C1400 C1398 1.389 . S
C1400 C1401 1.524 . S
C1400 C1414 1.377 . S
C1401 C1400 1.524 . S
C1401 C1402 1.397 . S
C1401 C1406 1.363 . S
C1402 H1379 0.950 . S
C1402 C1401 1.397 . S
C1402 C1403 1.334 . S
C1403 H1380 0.950 . S
C1403 C1402 1.334 . S
C1403 C1404 1.287 . S
C1404 C1403 1.287 . S
C1404 C1405 1.524 . S
C1404 H1423 0.913 . S
C1405 H1381 0.950 . S
C1405 C1404 1.524 . S
C1405 C1406 1.415 . S
C1406 H1382 0.950 . S
C1406 C1401 1.363 . S
C1406 C1405 1.415 . S
C1407 H1383 0.951 . S
C1407 C1408 1.366 . S
C1407 C1409 1.388 . S
C1408 C1407 1.366 . S
C1408 C1412 1.385 . S
C1409 H1384 0.951 . S
C1409 C1407 1.388 . S
C1409 C1410 1.366 . S
C1410 C1409 1.366 . S
C1410 C1411 1.414 . S
C1410 C1413 1.499 . S
C1411 H1385 0.950 . S
C1411 C1410 1.414 . S
C1411 C1412 1.374 . S
C1412 H1386 0.950 . S
C1412 C1408 1.385 . S
C1412 C1411 1.374 . S
C1413 C1410 1.499 . S
C1413 C1414 1.373 . S
C1413 C1415 1.389 . S
C1414 H1387 0.950 . S
C1414 C1400 1.377 . S
C1414 C1413 1.373 . S
C1415 C1399 1.377 . S
C1415 C1413 1.389 . S
C1415 C1416 1.524 . S
C1416 C1415 1.524 . S
C1416 C1417 1.397 . S
C1416 C1421 1.363 . S
C1417 H1388 0.950 . S
C1417 C1416 1.397 . S
C1417 C1418 1.334 . S
C1418 H1389 0.950 . S
C1418 C1417 1.334 . S
C1418 C1419 1.287 . S
C1419 C1418 1.287 . S
C1419 C1420 1.524 . S
C1419 H1422 0.999 . S
C1420 H1390 0.950 . S
C1420 C1419 1.524 . S
C1420 C1421 1.415 . S
C1421 H1391 0.950 . S
C1421 C1416 1.363 . S
C1421 C1420 1.415 . S
H1422 C1419 0.999 . S
H1423 C1404 0.913 . S
H1424 C1442 0.951 . S
H1425 C1444 0.951 . S
H1426 C1446 0.950 . S
H1427 C1447 0.950 . S
H1428 C1449 0.950 . S
H1429 C1452 0.950 . S
H1430 C1453 0.950 . S
H1431 C1455 0.950 . S
H1432 C1456 0.950 . S
H1433 C1457 0.951 . S
H1434 C1459 0.951 . S
H1435 C1461 0.950 . S
H1436 C1462 0.950 . S
H1437 C1464 0.950 . S
H1438 C1467 0.950 . S
H1439 C1468 0.950 . S
H1440 C1470 0.950 . S
H1441 C1471 0.950 . S
C1442 H1424 0.951 . S
C1442 C1443 1.366 . S
C1442 C1444 1.388 . S
C1443 C1442 1.366 . S
C1443 C1447 1.385 . S
C1444 H1425 0.951 . S
C1444 C1442 1.388 . S
C1444 C1445 1.366 . S
C1445 C1444 1.366 . S
C1445 C1446 1.414 . S
C1445 C1448 1.499 . S
C1446 H1426 0.950 . S
C1446 C1445 1.414 . S
C1446 C1447 1.374 . S
C1447 H1427 0.950 . S
C1447 C1443 1.385 . S
C1447 C1446 1.374 . S
C1448 C1445 1.499 . S
C1448 C1449 1.373 . S
C1448 C1450 1.389 . S
C1449 H1428 0.950 . S
C1449 C1448 1.373 . S
C1449 C1465 1.377 1_545 S
C1450 C1448 1.389 . S
C1450 C1451 1.524 . S
C1450 C1464 1.377 1_545 S
C1451 C1450 1.524 . S
C1451 C1452 1.397 . S
C1451 C1456 1.363 . S
C1452 H1429 0.950 . S
C1452 C1451 1.397 . S
C1452 C1453 1.334 . S
C1453 H1430 0.950 . S
C1453 C1452 1.334 . S
C1453 C1454 1.287 . S
C1454 C1453 1.287 . S
C1454 C1455 1.524 . S
C1454 H1473 0.913 . S
C1455 H1431 0.950 . S
C1455 C1454 1.524 . S
C1455 C1456 1.415 . S
C1456 H1432 0.950 . S
C1456 C1451 1.363 . S
C1456 C1455 1.415 . S
C1457 H1433 0.951 . S
C1457 C1458 1.366 . S
C1457 C1459 1.388 . S
C1458 C1457 1.366 . S
C1458 C1462 1.385 . S
C1459 H1434 0.951 . S
C1459 C1457 1.388 . S
C1459 C1460 1.366 . S
C1460 C1459 1.366 . S
C1460 C1461 1.414 . S
C1460 C1463 1.499 . S
C1461 H1435 0.950 . S
C1461 C1460 1.414 . S
C1461 C1462 1.374 . S
C1462 H1436 0.950 . S
C1462 C1458 1.385 . S
C1462 C1461 1.374 . S
C1463 C1460 1.499 . S
C1463 C1464 1.373 . S
C1463 C1465 1.389 . S
C1464 H1437 0.950 . S
C1464 C1450 1.377 1_565 S
C1464 C1463 1.373 . S
C1465 C1449 1.377 1_565 S
C1465 C1463 1.389 . S
C1465 C1466 1.524 . S
C1466 C1465 1.524 . S
C1466 C1467 1.397 . S
C1466 C1471 1.363 . S
C1467 H1438 0.950 . S
C1467 C1466 1.397 . S
C1467 C1468 1.334 . S
C1468 H1439 0.950 . S
C1468 C1467 1.334 . S
C1468 C1469 1.287 . S
C1469 C1468 1.287 . S
C1469 C1470 1.524 . S
C1469 H1472 0.999 . S
C1470 H1440 0.950 . S
C1470 C1469 1.524 . S
C1470 C1471 1.415 . S
C1471 H1441 0.950 . S
C1471 C1466 1.363 . S
C1471 C1470 1.415 . S
H1472 C1469 0.999 . S
H1473 C1454 0.913 . S
H1474 C1492 0.951 . S
H1475 C1494 0.951 . S
H1476 C1496 0.950 . S
H1477 C1497 0.950 . S
H1478 C1499 0.950 . S
H1479 C1502 0.950 . S
H1480 C1503 0.950 . S
H1481 C1505 0.950 . S
H1482 C1506 0.950 . S
H1483 C1507 0.951 . S
H1484 C1509 0.951 . S
H1485 C1511 0.950 . S
H1486 C1512 0.950 . S
H1487 C1514 0.950 . S
H1488 C1517 0.950 . S
H1489 C1518 0.950 . S
H1490 C1520 0.950 . S
H1491 C1521 0.950 . S
C1492 H1474 0.951 . S
C1492 C1493 1.366 . S
C1492 C1494 1.388 . S
C1493 C1492 1.366 . S
C1493 C1497 1.385 . S
C1494 H1475 0.951 . S
C1494 C1492 1.388 . S
C1494 C1495 1.366 . S
C1495 C1494 1.366 . S
C1495 C1496 1.414 . S
C1495 C1498 1.499 . S
C1496 H1476 0.950 . S
C1496 C1495 1.414 . S
C1496 C1497 1.374 . S
C1497 H1477 0.950 . S
C1497 C1493 1.385 . S
C1497 C1496 1.374 . S
C1498 C1495 1.499 . S
C1498 C1499 1.373 . S
C1498 C1500 1.389 . S
C1499 H1478 0.950 . S
C1499 C1498 1.373 . S
C1499 C1515 1.377 1_655 S
C1500 C1498 1.389 . S
C1500 C1501 1.524 . S
C1500 C1514 1.377 1_655 S
C1501 C1500 1.524 . S
C1501 C1502 1.397 . S
C1501 C1506 1.363 1_655 S
C1502 H1479 0.950 . S
C1502 C1501 1.397 . S
C1502 C1503 1.334 . S
C1503 H1480 0.950 . S
C1503 C1502 1.334 . S
C1503 C1504 1.287 . S
C1504 C1503 1.287 . S
C1504 C1505 1.524 1_655 S
C1504 H1523 0.913 . S
C1505 H1481 0.950 . S
C1505 C1504 1.524 1_455 S
C1505 C1506 1.415 . S
C1506 H1482 0.950 . S
C1506 C1501 1.363 1_455 S
C1506 C1505 1.415 . S
C1507 H1483 0.951 . S
C1507 C1508 1.366 . S
C1507 C1509 1.388 . S
C1508 C1507 1.366 . S
C1508 C1512 1.385 . S
C1509 H1484 0.951 . S
C1509 C1507 1.388 . S
C1509 C1510 1.366 . S
C1510 C1509 1.366 . S
C1510 C1511 1.414 . S
C1510 C1513 1.499 . S
C1511 H1485 0.950 . S
C1511 C1510 1.414 . S
C1511 C1512 1.374 . S
C1512 H1486 0.950 . S
C1512 C1508 1.385 . S
C1512 C1511 1.374 . S
C1513 C1510 1.499 . S
C1513 C1514 1.373 . S
C1513 C1515 1.389 . S
C1514 H1487 0.950 . S
C1514 C1500 1.377 1_455 S
C1514 C1513 1.373 . S
C1515 C1499 1.377 1_455 S
C1515 C1513 1.389 . S
C1515 C1516 1.524 . S
C1516 C1515 1.524 . S
C1516 C1517 1.397 . S
C1516 C1521 1.363 1_455 S
C1517 H1488 0.950 . S
C1517 C1516 1.397 . S
C1517 C1518 1.334 . S
C1518 H1489 0.950 . S
C1518 C1517 1.334 . S
C1518 C1519 1.287 . S
C1519 C1518 1.287 . S
C1519 C1520 1.524 1_455 S
C1519 H1522 0.999 . S
C1520 H1490 0.950 . S
C1520 C1519 1.524 1_655 S
C1520 C1521 1.415 . S
C1521 H1491 0.950 . S
C1521 C1516 1.363 1_655 S
C1521 C1520 1.415 . S
H1522 C1519 0.999 . S
H1523 C1504 0.913 . S
H1524 C1542 0.951 . S
H1525 C1544 0.951 . S
H1526 C1546 0.950 . S
H1527 C1547 0.950 . S
H1528 C1549 0.950 . S
H1529 C1552 0.950 . S
H1530 C1553 0.950 . S
H1531 C1555 0.950 . S
H1532 C1556 0.950 . S
H1533 C1557 0.951 . S
H1534 C1559 0.951 . S
H1535 C1561 0.950 . S
H1536 C1562 0.950 . S
H1537 C1564 0.950 . S
H1538 C1567 0.950 . S
H1539 C1568 0.950 . S
H1540 C1570 0.950 . S
H1541 C1571 0.950 . S
C1542 H1524 0.951 . S
C1542 C1543 1.366 . S
C1542 C1544 1.388 . S
C1543 C1542 1.366 . S
C1543 C1547 1.385 . S
C1544 H1525 0.951 . S
C1544 C1542 1.388 . S
C1544 C1545 1.366 . S
C1545 C1544 1.366 . S
C1545 C1546 1.414 . S
C1545 C1548 1.499 . S
C1546 H1526 0.950 . S
C1546 C1545 1.414 . S
C1546 C1547 1.374 . S
C1547 H1527 0.950 . S
C1547 C1543 1.385 . S
C1547 C1546 1.374 . S
C1548 C1545 1.499 . S
C1548 C1549 1.373 . S
C1548 C1550 1.389 . S
C1549 H1528 0.950 . S
C1549 C1548 1.373 . S
C1549 C1565 1.377 1_545 S
C1550 C1548 1.389 . S
C1550 C1551 1.524 . S
C1550 C1564 1.377 1_545 S
C1551 C1550 1.524 . S
C1551 C1552 1.397 . S
C1551 C1556 1.363 . S
C1552 H1529 0.950 . S
C1552 C1551 1.397 . S
C1552 C1553 1.334 . S
C1553 H1530 0.950 . S
C1553 C1552 1.334 . S
C1553 C1554 1.287 . S
C1554 C1553 1.287 . S
C1554 C1555 1.524 . S
C1554 H1573 0.913 . S
C1555 H1531 0.950 . S
C1555 C1554 1.524 . S
C1555 C1556 1.415 . S
C1556 H1532 0.950 . S
C1556 C1551 1.363 . S
C1556 C1555 1.415 . S
C1557 H1533 0.951 . S
C1557 C1558 1.366 . S
C1557 C1559 1.388 . S
C1558 C1557 1.366 . S
C1558 C1562 1.385 . S
C1559 H1534 0.951 . S
C1559 C1557 1.388 . S
C1559 C1560 1.366 . S
C1560 C1559 1.366 . S
C1560 C1561 1.414 . S
C1560 C1563 1.499 . S
C1561 H1535 0.950 . S
C1561 C1560 1.414 . S
C1561 C1562 1.374 . S
C1562 H1536 0.950 . S
C1562 C1558 1.385 . S
C1562 C1561 1.374 . S
C1563 C1560 1.499 . S
C1563 C1564 1.373 . S
C1563 C1565 1.389 . S
C1564 H1537 0.950 . S
C1564 C1550 1.377 1_565 S
C1564 C1563 1.373 . S
C1565 C1549 1.377 1_565 S
C1565 C1563 1.389 . S
C1565 C1566 1.524 . S
C1566 C1565 1.524 . S
C1566 C1567 1.397 . S
C1566 C1571 1.363 . S
C1567 H1538 0.950 . S
C1567 C1566 1.397 . S
C1567 C1568 1.334 . S
C1568 H1539 0.950 . S
C1568 C1567 1.334 . S
C1568 C1569 1.287 . S
C1569 C1568 1.287 . S
C1569 C1570 1.524 . S
C1569 H1572 0.999 . S
C1570 H1540 0.950 . S
C1570 C1569 1.524 . S
C1570 C1571 1.415 . S
C1571 H1541 0.950 . S
C1571 C1566 1.363 . S
C1571 C1570 1.415 . S
H1572 C1569 0.999 . S
H1573 C1554 0.913 . S
H1574 C1592 0.951 . S
H1575 C1594 0.951 . S
H1576 C1596 0.950 . S
H1577 C1597 0.950 . S
H1578 C1599 0.950 . S
H1579 C1602 0.950 . S
H1580 C1603 0.950 . S
H1581 C1605 0.961 . S
H1582 C1606 0.950 1_655 S
H1583 C1607 0.951 . S
H1584 C1609 0.951 . S
H1585 C1611 0.950 . S
H1586 C1612 0.950 . S
H1587 C1614 0.950 . S
H1588 C1617 0.950 . S
H1589 C1618 0.950 . S
H1590 C1620 0.961 . S
H1591 C1621 0.950 1_455 S
C1592 H1574 0.951 . S
C1592 C1593 1.366 . S
C1592 C1594 1.388 . S
C1593 C1592 1.366 . S
C1593 C1597 1.385 . S
C1594 H1575 0.951 . S
C1594 C1592 1.388 . S
C1594 C1595 1.366 . S
C1595 C1594 1.366 . S
C1595 C1596 1.414 . S
C1595 C1598 1.499 . S
C1596 H1576 0.950 . S
C1596 C1595 1.414 . S
C1596 C1597 1.374 . S
C1597 H1577 0.950 . S
C1597 C1593 1.385 . S
C1597 C1596 1.374 . S
C1598 C1595 1.499 . S
C1598 C1599 1.373 . S
C1598 C1600 1.389 . S
C1599 H1578 0.950 . S
C1599 C1598 1.373 . S
C1599 C1615 1.377 1_455 S
C1600 C1598 1.389 . S
C1600 C1601 1.524 . S
C1600 C1614 1.377 1_455 S
C1601 C1600 1.524 . S
C1601 C1602 1.397 . S
C1601 C1606 1.363 . S
C1602 H1579 0.950 . S
C1602 C1601 1.397 . S
C1602 C1603 1.334 . S
C1603 H1580 0.950 . S
C1603 C1602 1.334 . S
C1603 C1604 1.287 . S
C1604 C1603 1.287 . S
C1604 C1605 1.524 . S
C1604 H1623 0.913 . S
C1605 H1581 0.961 . S
C1605 C1604 1.524 . S
C1605 C1606 1.415 . S
C1606 H1582 0.950 1_455 S
C1606 C1601 1.363 . S
C1606 C1605 1.415 . S
C1607 H1583 0.951 . S
C1607 C1608 1.366 . S
C1607 C1609 1.388 . S
C1608 C1607 1.366 . S
C1608 C1612 1.385 . S
C1609 H1584 0.951 . S
C1609 C1607 1.388 . S
C1609 C1610 1.366 . S
C1610 C1609 1.366 . S
C1610 C1611 1.414 . S
C1610 C1613 1.499 . S
C1611 H1585 0.950 . S
C1611 C1610 1.414 . S
C1611 C1612 1.374 . S
C1612 H1586 0.950 . S
C1612 C1608 1.385 . S
C1612 C1611 1.374 . S
C1613 C1610 1.499 . S
C1613 C1614 1.373 . S
C1613 C1615 1.389 . S
C1614 H1587 0.950 . S
C1614 C1600 1.377 1_655 S
C1614 C1613 1.373 . S
C1615 C1599 1.377 1_655 S
C1615 C1613 1.389 . S
C1615 C1616 1.524 . S
C1616 C1615 1.524 . S
C1616 C1617 1.397 . S
C1616 C1621 1.363 . S
C1617 H1588 0.950 . S
C1617 C1616 1.397 . S
C1617 C1618 1.334 . S
C1618 H1589 0.950 . S
C1618 C1617 1.334 . S
C1618 C1619 1.287 . S
C1619 C1618 1.287 . S
C1619 C1620 1.524 . S
C1619 H1622 0.999 . S
C1620 H1590 0.961 . S
C1620 C1619 1.524 . S
C1620 C1621 1.415 . S
C1621 H1591 0.950 1_655 S
C1621 C1616 1.363 . S
C1621 C1620 1.415 . S
H1622 C1619 0.999 . S
H1623 C1604 0.913 . S
H1624 C1642 0.951 . S
H1625 C1644 0.951 . S
H1626 C1646 0.950 . S
H1627 C1647 0.950 . S
H1628 C1649 0.950 . S
H1629 C1652 0.950 . S
H1630 C1653 0.950 . S
H1631 C1655 0.970 . S
H1632 C1656 0.950 . S
H1633 C1657 0.951 . S
H1634 C1659 0.951 . S
H1635 C1661 0.950 . S
H1636 C1662 0.950 . S
H1637 C1664 0.950 . S
H1638 C1667 0.950 . S
H1639 C1668 0.950 . S
H1640 C1670 0.970 . S
H1641 C1671 0.950 . S
C1642 H1624 0.951 . S
C1642 C1643 1.366 . S
C1642 C1644 1.388 . S
C1643 C1642 1.366 . S
C1643 C1647 1.385 . S
C1644 H1625 0.951 . S
C1644 C1642 1.388 . S
C1644 C1645 1.366 . S
C1645 C1644 1.366 . S
C1645 C1646 1.414 . S
C1645 C1648 1.499 . S
C1646 H1626 0.950 . S
C1646 C1645 1.414 . S
C1646 C1647 1.374 . S
C1647 H1627 0.950 . S
C1647 C1643 1.385 . S
C1647 C1646 1.374 . S
C1648 C1645 1.499 . S
C1648 C1649 1.373 . S
C1648 C1650 1.389 . S
C1649 H1628 0.950 . S
C1649 C1648 1.373 . S
C1649 C1665 1.377 1_545 S
C1650 C1648 1.389 . S
C1650 C1651 1.524 . S
C1650 C1664 1.377 1_545 S
C1651 C1650 1.524 . S
C1651 C1652 1.397 . S
C1651 C1656 1.363 1_545 S
C1652 H1629 0.950 . S
C1652 C1651 1.397 . S
C1652 C1653 1.334 . S
C1653 H1630 0.950 . S
C1653 C1652 1.334 . S
C1653 C1654 1.287 . S
C1654 C1653 1.287 . S
C1654 C1655 1.497 1_545 S
C1654 H1673 0.913 . S
C1655 H1631 0.970 . S
C1655 C1654 1.497 1_565 S
C1655 C1656 1.420 . S
C1656 H1632 0.950 . S
C1656 C1651 1.363 1_565 S
C1656 C1655 1.420 . S
C1657 H1633 0.951 . S
C1657 C1658 1.366 . S
C1657 C1659 1.388 . S
C1658 C1657 1.366 . S
C1658 C1662 1.385 . S
C1659 H1634 0.951 . S
C1659 C1657 1.388 . S
C1659 C1660 1.366 . S
C1660 C1659 1.366 . S
C1660 C1661 1.414 . S
C1660 C1663 1.499 . S
C1661 H1635 0.950 . S
C1661 C1660 1.414 . S
C1661 C1662 1.374 . S
C1662 H1636 0.950 . S
C1662 C1658 1.385 . S
C1662 C1661 1.374 . S
C1663 C1660 1.499 . S
C1663 C1664 1.373 . S
C1663 C1665 1.389 . S
C1664 H1637 0.950 . S
C1664 C1650 1.377 1_565 S
C1664 C1663 1.373 . S
C1665 C1649 1.377 1_565 S
C1665 C1663 1.389 . S
C1665 C1666 1.524 . S
C1666 C1665 1.524 . S
C1666 C1667 1.397 . S
C1666 C1671 1.363 1_565 S
C1667 H1638 0.950 . S
C1667 C1666 1.397 . S
C1667 C1668 1.334 . S
C1668 H1639 0.950 . S
C1668 C1667 1.334 . S
C1668 C1669 1.287 . S
C1669 C1668 1.287 . S
C1669 C1670 1.497 1_565 S
C1669 H1672 0.999 . S
C1670 H1640 0.970 . S
C1670 C1669 1.497 1_545 S
C1670 C1671 1.420 . S
C1671 H1641 0.950 . S
C1671 C1666 1.363 1_545 S
C1671 C1670 1.420 . S
H1672 C1669 0.999 . S
H1673 C1654 0.913 . S
H1674 C1692 0.951 . S
H1675 C1694 0.951 . S
H1676 C1696 0.950 . S
H1677 C1697 0.950 . S
H1678 C1699 0.950 . S
H1679 C1702 0.950 . S
H1680 C1703 0.950 . S
H1681 C1705 0.950 . S
H1682 C1706 0.950 . S
H1683 C1707 0.951 . S
H1684 C1709 0.951 . S
H1685 C1711 0.950 . S
H1686 C1712 0.950 . S
H1687 C1714 0.950 . S
H1688 C1717 0.950 . S
H1689 C1718 0.950 . S
H1690 C1720 0.950 . S
H1691 C1721 0.950 . S
C1692 H1674 0.951 . S
C1692 C1693 1.366 . S
C1692 C1694 1.388 . S
C1693 C1692 1.366 . S
C1693 C1697 1.385 . S
C1694 H1675 0.951 . S
C1694 C1692 1.388 . S
C1694 C1695 1.366 . S
C1695 C1694 1.366 . S
C1695 C1696 1.414 . S
C1695 C1698 1.499 . S
C1696 H1676 0.950 . S
C1696 C1695 1.414 . S
C1696 C1697 1.374 . S
C1697 H1677 0.950 . S
C1697 C1693 1.385 . S
C1697 C1696 1.374 . S
C1698 C1695 1.499 . S
C1698 C1699 1.373 . S
C1698 C1700 1.389 . S
C1699 H1678 0.950 . S
C1699 C1698 1.373 . S
C1699 C1715 1.377 1_655 S
C1700 C1698 1.389 . S
C1700 C1701 1.524 . S
C1700 C1714 1.377 1_655 S
C1701 C1700 1.524 . S
C1701 C1702 1.397 . S
C1701 C1706 1.363 . S
C1702 H1679 0.950 . S
C1702 C1701 1.397 . S
C1702 C1703 1.334 . S
C1703 H1680 0.950 . S
C1703 C1702 1.334 . S
C1703 C1704 1.287 . S
C1704 C1703 1.287 . S
C1704 C1705 1.524 . S
C1704 H1723 0.913 . S
C1705 H1681 0.950 . S
C1705 C1704 1.524 . S
C1705 C1706 1.415 . S
C1706 H1682 0.950 . S
C1706 C1701 1.363 . S
C1706 C1705 1.415 . S
C1707 H1683 0.951 . S
C1707 C1708 1.366 . S
C1707 C1709 1.388 . S
C1708 C1707 1.366 . S
C1708 C1712 1.385 . S
C1709 H1684 0.951 . S
C1709 C1707 1.388 . S
C1709 C1710 1.366 . S
C1710 C1709 1.366 . S
C1710 C1711 1.414 . S
C1710 C1713 1.499 . S
C1711 H1685 0.950 . S
C1711 C1710 1.414 . S
C1711 C1712 1.374 . S
C1712 H1686 0.950 . S
C1712 C1708 1.385 . S
C1712 C1711 1.374 . S
C1713 C1710 1.499 . S
C1713 C1714 1.373 . S
C1713 C1715 1.389 . S
C1714 H1687 0.950 . S
C1714 C1700 1.377 1_455 S
C1714 C1713 1.373 . S
C1715 C1699 1.377 1_455 S
C1715 C1713 1.389 . S
C1715 C1716 1.524 . S
C1716 C1715 1.524 . S
C1716 C1717 1.397 . S
C1716 C1721 1.363 . S
C1717 H1688 0.950 . S
C1717 C1716 1.397 . S
C1717 C1718 1.334 . S
C1718 H1689 0.950 . S
C1718 C1717 1.334 . S
C1718 C1719 1.287 . S
C1719 C1718 1.287 . S
C1719 C1720 1.524 . S
C1719 H1722 0.999 . S
C1720 H1690 0.950 . S
C1720 C1719 1.524 . S
C1720 C1721 1.415 . S
C1721 H1691 0.950 . S
C1721 C1716 1.363 . S
C1721 C1720 1.415 . S
H1722 C1719 0.999 . S
H1723 C1704 0.913 . S
H1724 C1742 0.951 . S
H1725 C1744 0.951 . S
H1726 C1746 0.950 . S
H1727 C1747 0.950 . S
H1728 C1749 0.950 . S
H1729 C1752 0.950 . S
H1730 C1753 0.950 . S
H1731 C1755 0.950 . S
H1732 C1756 0.950 . S
H1733 C1757 0.951 . S
H1734 C1759 0.951 . S
H1735 C1761 0.950 . S
H1736 C1762 0.950 . S
H1737 C1764 0.950 . S
H1738 C1767 0.950 . S
H1739 C1768 0.950 . S
H1740 C1770 0.950 . S
H1741 C1771 0.950 . S
C1742 H1724 0.951 . S
C1742 C1743 1.366 . S
C1742 C1744 1.388 . S
C1743 C1742 1.366 . S
C1743 C1747 1.385 . S
C1744 H1725 0.951 . S
C1744 C1742 1.388 . S
C1744 C1745 1.366 . S
C1745 C1744 1.366 . S
C1745 C1746 1.414 . S
C1745 C1748 1.499 . S
C1746 H1726 0.950 . S
C1746 C1745 1.414 . S
C1746 C1747 1.374 . S
C1747 H1727 0.950 . S
C1747 C1743 1.385 . S
C1747 C1746 1.374 . S
C1748 C1745 1.499 . S
C1748 C1749 1.373 . S
C1748 C1750 1.389 . S
C1749 H1728 0.950 . S
C1749 C1748 1.373 . S
C1749 C1765 1.377 1_565 S
C1750 C1748 1.389 . S
C1750 C1751 1.524 . S
C1750 C1764 1.377 1_565 S
C1751 C1750 1.524 . S
C1751 C1752 1.397 . S
C1751 C1756 1.363 . S
C1752 H1729 0.950 . S
C1752 C1751 1.397 . S
C1752 C1753 1.334 . S
C1753 H1730 0.950 . S
C1753 C1752 1.334 . S
C1753 C1754 1.287 . S
C1754 C1753 1.287 . S
C1754 C1755 1.524 . S
C1754 H1773 0.913 . S
C1755 H1731 0.950 . S
C1755 C1754 1.524 . S
C1755 C1756 1.415 . S
C1756 H1732 0.950 . S
C1756 C1751 1.363 . S
C1756 C1755 1.415 . S
C1757 H1733 0.951 . S
C1757 C1758 1.366 . S
C1757 C1759 1.388 . S
C1758 C1757 1.366 . S
C1758 C1762 1.385 . S
C1759 H1734 0.951 . S
C1759 C1757 1.388 . S
C1759 C1760 1.366 . S
C1760 C1759 1.366 . S
C1760 C1761 1.414 . S
C1760 C1763 1.499 . S
C1761 H1735 0.950 . S
C1761 C1760 1.414 . S
C1761 C1762 1.374 . S
C1762 H1736 0.950 . S
C1762 C1758 1.385 . S
C1762 C1761 1.374 . S
C1763 C1760 1.499 . S
C1763 C1764 1.373 . S
C1763 C1765 1.389 . S
C1764 H1737 0.950 . S
C1764 C1750 1.377 1_545 S
C1764 C1763 1.373 . S
C1765 C1749 1.377 1_545 S
C1765 C1763 1.389 . S
C1765 C1766 1.524 . S
C1766 C1765 1.524 . S
C1766 C1767 1.397 . S
C1766 C1771 1.363 . S
C1767 H1738 0.950 . S
C1767 C1766 1.397 . S
C1767 C1768 1.334 . S
C1768 H1739 0.950 . S
C1768 C1767 1.334 . S
C1768 C1769 1.287 . S
C1769 C1768 1.287 . S
C1769 C1770 1.524 . S
C1769 H1772 0.999 . S
C1770 H1740 0.950 . S
C1770 C1769 1.524 . S
C1770 C1771 1.415 . S
C1771 H1741 0.950 . S
C1771 C1766 1.363 . S
C1771 C1770 1.415 . S
H1772 C1769 0.999 . S
H1773 C1754 0.913 . S
H1774 C1792 0.951 . S
H1775 C1794 0.951 . S
H1776 C1796 0.950 . S
H1777 C1797 0.950 . S
H1778 C1799 0.950 . S
H1779 C1802 0.950 . S
H1780 C1803 0.950 . S
H1781 C1805 0.950 . S
H1782 C1806 0.950 . S
H1783 C1807 0.951 . S
H1784 C1809 0.951 . S
H1785 C1811 0.950 . S
H1786 C1812 0.950 . S
H1787 C1814 0.950 . S
H1788 C1817 0.950 . S
H1789 C1818 0.950 . S
H1790 C1820 0.950 . S
H1791 C1821 0.950 . S
C1792 H1774 0.951 . S
C1792 C1793 1.366 . S
C1792 C1794 1.388 . S
C1793 C1792 1.366 . S
C1793 C1797 1.385 . S
C1794 H1775 0.951 . S
C1794 C1792 1.388 . S
C1794 C1795 1.366 . S
C1795 C1794 1.366 . S
C1795 C1796 1.414 . S
C1795 C1798 1.499 . S
C1796 H1776 0.950 . S
C1796 C1795 1.414 . S
C1796 C1797 1.374 . S
C1797 H1777 0.950 . S
C1797 C1793 1.385 . S
C1797 C1796 1.374 . S
C1798 C1795 1.499 . S
C1798 C1799 1.373 . S
C1798 C1800 1.389 . S
C1799 H1778 0.950 . S
C1799 C1798 1.373 . S
C1799 C1815 1.377 1_455 S
C1800 C1798 1.389 . S
C1800 C1801 1.524 . S
C1800 C1814 1.377 1_455 S
C1801 C1800 1.524 . S
C1801 C1802 1.397 . S
C1801 C1806 1.363 . S
C1802 H1779 0.950 . S
C1802 C1801 1.397 . S
C1802 C1803 1.334 . S
C1803 H1780 0.950 . S
C1803 C1802 1.334 . S
C1803 C1804 1.287 . S
C1804 C1803 1.287 . S
C1804 C1805 1.524 . S
C1804 H1823 0.913 . S
C1805 H1781 0.950 . S
C1805 C1804 1.524 . S
C1805 C1806 1.415 . S
C1806 H1782 0.950 . S
C1806 C1801 1.363 . S
C1806 C1805 1.415 . S
C1807 H1783 0.951 . S
C1807 C1808 1.366 . S
C1807 C1809 1.388 . S
C1808 C1807 1.366 . S
C1808 C1812 1.385 . S
C1809 H1784 0.951 . S
C1809 C1807 1.388 . S
C1809 C1810 1.366 . S
C1810 C1809 1.366 . S
C1810 C1811 1.414 . S
C1810 C1813 1.499 . S
C1811 H1785 0.950 . S
C1811 C1810 1.414 . S
C1811 C1812 1.374 . S
C1812 H1786 0.950 . S
C1812 C1808 1.385 . S
C1812 C1811 1.374 . S
C1813 C1810 1.499 . S
C1813 C1814 1.373 . S
C1813 C1815 1.389 . S
C1814 H1787 0.950 . S
C1814 C1800 1.377 1_655 S
C1814 C1813 1.373 . S
C1815 C1799 1.377 1_655 S
C1815 C1813 1.389 . S
C1815 C1816 1.524 . S
C1816 C1815 1.524 . S
C1816 C1817 1.397 . S
C1816 C1821 1.363 . S
C1817 H1788 0.950 . S
C1817 C1816 1.397 . S
C1817 C1818 1.334 . S
C1818 H1789 0.950 . S
C1818 C1817 1.334 . S
C1818 C1819 1.287 . S
C1819 C1818 1.287 . S
C1819 C1820 1.524 . S
C1819 H1822 0.999 . S
C1820 H1790 0.950 . S
C1820 C1819 1.524 . S
C1820 C1821 1.415 . S
C1821 H1791 0.950 . S
C1821 C1816 1.363 . S
C1821 C1820 1.415 . S
H1822 C1819 0.999 . S
H1823 C1804 0.913 . S
C243 C78 1.392 . S
C258 C8 1.392 . S
C293 C92 1.392 . S
C308 C22 1.392 . S
C343 C36 1.392 . S
C358 C106 1.392 . S
C393 C50 1.392 . S
C408 C64 1.392 . S
C443 C190 1.392 . S
C458 C120 1.392 . S
C493 C204 1.392 . S
C508 C134 1.392 . S
C543 C148 1.392 . S
C558 C218 1.392 . S
C593 C162 1.392 . S
C608 C176 1.392 . S
C643 C147 1.495 . S
C658 C7 1.495 . S
C693 C161 1.495 . S
C708 C21 1.495 . S
C743 C119 1.495 . S
C758 C35 1.496 . S
C793 C49 1.496 . S
C808 C133 1.495 . S
C843 C203 1.495 . S
C858 C63 1.495 . S
C893 C217 1.494 . S
C908 C77 1.496 . S
C943 C91 1.496 . S
C958 C175 1.495 . S
C993 C189 1.494 . S
C1008 C105 1.495 . S
C1043 C65 1.998 . S
C1058 C9 1.998 . S
C1093 C23 1.998 . S
C1108 C79 1.998 . S
C1143 C37 1.998 . S
C1158 C93 1.998 . S
C1193 C107 1.998 . S
C1208 C51 1.998 . S
C1243 C115 0.767 . S
C1258 C171 0.767 . S
C1293 C185 0.767 . S
C1308 C129 0.767 . S
C1343 C143 0.767 . S
C1358 C199 0.767 . S
C1393 C213 0.767 . S
C1408 C157 0.767 . S
C1443 C163 1.998 . S
C1458 C191 1.998 . S
C1493 C121 1.998 . S
C1508 C205 1.998 . S
C1543 C219 1.998 . S
C1558 C135 1.998 . S
C1593 C149 1.998 . S
C1608 C177 1.998 . S
C1643 C73 0.767 . S
C1658 C45 0.767 . S
C1693 C87 0.767 . S
C1708 C3 0.767 . S
C1743 C101 0.767 . S
C1758 C17 0.767 . S
C1793 C59 0.767 . S
C1808 C31 0.767 . S
