# Generated by pormake.
# Topology rob, (6)-cn, num edge types: 1
# Building blocks:
#     Node 0, Type 0, BuildingBlock: BETDIP_clean_sbu_0, # of connection points: 6
#     Node 1, Type 0, BuildingBlock: BETDIP_clean_sbu_0, # of connection points: 6
#     Node 2, Type 0, BuildingBlock: BETDIP_clean_sbu_0, # of connection points: 6
#     Node 3, Type 0, BuildingBlock: BETDIP_clean_sbu_0, # of connection points: 6
#     Edge 4, Type (0, 0), BuildingBlock: OJICUG_clean_linker_0, # of connection points: 2
#     Edge 5, Type (0, 0), BuildingBlock: OJICUG_clean_linker_0, # of connection points: 2
#     Edge 6, Type (0, 0), BuildingBlock: OJICUG_clean_linker_0, # of connection points: 2
#     Edge 7, Type (0, 0), BuildingBlock: OJICUG_clean_linker_0, # of connection points: 2
#     Edge 8, Type (0, 0), BuildingBlock: OJICUG_clean_linker_0, # of connection points: 2
#     Edge 9, Type (0, 0), BuildingBlock: OJICUG_clean_linker_0, # of connection points: 2
#     Edge 10, Type (0, 0), BuildingBlock: OJICUG_clean_linker_0, # of connection points: 2
#     Edge 11, Type (0, 0), BuildingBlock: OJICUG_clean_linker_0, # of connection points: 2
#     Edge 12, Type (0, 0), BuildingBlock: OJICUG_clean_linker_0, # of connection points: 2
#     Edge 13, Type (0, 0), BuildingBlock: OJICUG_clean_linker_0, # of connection points: 2
#     Edge 14, Type (0, 0), BuildingBlock: OJICUG_clean_linker_0, # of connection points: 2
#     Edge 15, Type (0, 0), BuildingBlock: OJICUG_clean_linker_0, # of connection points: 2
# Relax obj value: 0.040
# Max RMSD: 0.157
# Mean RMSD: 0.157
data_MOF--net-rob--node1-BETDIP_clean_sbu_0--edge1-OJICUG_clean_linker_0
_symmetry_space_group_name_H-M    P1
_symmetry_Int_Tables_number       1
_symmetry_cell_setting            triclinic
loop_
_symmetry_equiv_pos_as_xyz
'x, y, z'
_cell_length_a     12.116657
_cell_length_b     16.162656
_cell_length_c     28.562663
_cell_angle_alpha  97.536526
_cell_angle_beta   90.056076
_cell_angle_gamma 90.010949
loop_
_atom_site_label
_atom_site_type_symbol
_atom_site_fract_x
_atom_site_fract_y
_atom_site_fract_z
_atom_type_partial_charge
Tb0 Tb 0.1446 0.33713 0.062 0.0
Tb1 Tb 0.35188 0.25088 1.02266 0.0
C2 C 0.9743 0.37446 0.11063 0.0
C3 C 0.94815 0.37154 0.161 0.0
C4 C 0.98145 0.30371 0.18376 0.0
C5 C 0.96461 0.30456 0.23227 0.0
C6 C 0.9125 0.37274 0.25903 0.0
C7 C 0.87709 0.43992 0.23598 0.0
C8 C 0.89545 0.43952 0.18751 0.0
C9 C 0.31163 0.4359 0.05095 0.0
C10 C 0.31935 0.25832 0.12972 0.0
C11 C 0.52077 0.21571 0.97305 0.0
C12 C 0.54487 0.21897 0.92229 0.0
C13 C 0.61233 0.2827 0.90915 0.0
C14 C 0.63218 0.289 0.86153 0.0
C15 C 0.58566 0.23136 0.82567 0.0
C16 C 0.5188 0.16707 0.83875 0.0
C17 C 0.49879 0.16081 0.8865 0.0
C18 C 0.18446 0.15231 1.03367 0.0
C19 C 0.17937 0.33048 0.95458 0.0
O20 O 0.98767 0.30276 0.08396 0.0
O21 O 0.04977 0.4287 0.1027 0.0
O22 O 0.31668 0.36555 0.06524 0.0
O23 O 0.20945 0.45564 0.04482 0.0
O24 O 0.21626 0.28015 0.12137 0.0
O25 O 0.39607 0.25352 0.09653 0.0
O26 O 0.50636 0.28769 0.99925 0.0
O27 O 0.44914 0.15989 0.98291 0.0
O28 O 0.17982 0.22262 1.01931 0.0
O29 O 0.28665 0.13238 1.0398 0.0
O30 O 0.28107 0.30621 0.96313 0.0
O31 O 0.10247 0.33766 0.98784 0.0
H32 H 0.02113 0.2501 0.1641 0.0
H33 H 0.9911 0.25122 0.24874 0.0
H34 H 0.83681 0.49341 0.25555 0.0
H35 H 0.86957 0.49279 0.17081 0.0
H36 H 0.64897 0.32845 0.93579 0.0
H37 H 0.68304 0.33992 0.85281 0.0
H38 H 0.48308 0.12092 0.81211 0.0
H39 H 0.44679 0.11055 0.89524 0.0
Tb40 Tb 0.64592 0.83674 0.0626 0.0
Tb41 Tb 0.84983 0.75058 1.01994 0.0
C42 C 0.47823 0.87501 0.11271 0.0
C43 C 0.45473 0.87417 0.16344 0.0
C44 C 0.48922 0.80741 0.18682 0.0
C45 C 0.47341 0.80975 0.23546 0.0
C46 C 0.42139 0.87848 0.26175 0.0
C47 C 0.38555 0.94486 0.23816 0.0
C48 C 0.40265 0.94288 0.18952 0.0
C49 C 0.8133 0.9351 0.0508 0.0
C50 C 0.8228 0.75402 0.12722 0.0
C51 C 0.01643 0.71207 0.96924 0.0
C52 C 0.04062 0.71769 0.91901 0.0
C53 C 0.00962 0.78829 0.89818 0.0
C54 C 0.02574 0.79068 0.84991 0.0
C55 C 0.07469 0.72298 0.82151 0.0
C56 C 0.10681 0.65261 0.84247 0.0
C57 C 0.08931 0.64985 0.89073 0.0
C58 C 0.68247 0.65252 1.03221 0.0
C59 C 0.67369 0.83416 0.95561 0.0
O60 O 0.49117 0.80245 0.08688 0.0
O61 O 0.55242 0.92914 0.10329 0.0
O62 O 0.81853 0.86412 0.06424 0.0
O63 O 0.71099 0.95558 0.04583 0.0
O64 O 0.7197 0.77738 0.12042 0.0
O65 O 0.89756 0.74976 0.09323 0.0
O66 O 0.00713 0.78264 0.99735 0.0
O67 O 0.93914 0.65895 0.97671 0.0
O68 O 0.67742 0.7232 1.01837 0.0
O69 O 0.78479 0.63213 1.03735 0.0
O70 O 0.77717 0.81216 0.96274 0.0
O71 O 0.59838 0.83663 0.98926 0.0
H72 H 0.52858 0.75333 0.16751 0.0
H73 H 0.50022 0.75697 0.25235 0.0
H74 H 0.34546 0.99879 0.25739 0.0
H75 H 0.37597 0.99536 0.17231 0.0
H76 H 0.9726 0.84168 0.9192 0.0
H77 H 0.0016 0.8462 0.83494 0.0
H78 H 0.14418 0.5993 0.8214 0.0
H79 H 0.11298 0.59442 0.9059 0.0
Tb80 Tb 0.14626 0.76494 0.5214 0.0
Tb81 Tb 0.35023 0.85131 0.564 0.0
C82 C 0.97843 0.72645 0.47127 0.0
C83 C 0.9548 0.72731 0.42053 0.0
C84 C 0.98871 0.79432 0.39724 0.0
C85 C 0.97293 0.79198 0.34859 0.0
C86 C 0.92151 0.72301 0.3222 0.0
C87 C 0.88618 0.65641 0.3457 0.0
C88 C 0.90327 0.65838 0.39436 0.0
C89 C 0.31381 0.66677 0.5333 0.0
C90 C 0.32277 0.84759 0.4567 0.0
C91 C 0.51704 0.88992 0.61469 0.0
C92 C 0.54116 0.88441 0.66494 0.0
C93 C 0.50999 0.81386 0.68578 0.0
C94 C 0.52582 0.81162 0.73409 0.0
C95 C 0.57465 0.87942 0.76252 0.0
C96 C 0.607 0.9497 0.74155 0.0
C97 C 0.58978 0.95231 0.69325 0.0
C98 C 0.18285 0.94927 0.55163 0.0
C99 C 0.17425 0.76797 0.62844 0.0
O100 O 0.99131 0.79902 0.49713 0.0
O101 O 0.05274 0.67241 0.4807 0.0
O102 O 0.31887 0.73769 0.51978 0.0
O103 O 0.21155 0.64623 0.53832 0.0
O104 O 0.2197 0.82419 0.46351 0.0
O105 O 0.39765 0.85199 0.4907 0.0
O106 O 0.50758 0.81928 0.58664 0.0
O107 O 0.43985 0.94306 0.60711 0.0
O108 O 0.17783 0.87864 0.56553 0.0
O109 O 0.28515 0.96967 0.5465 0.0
O110 O 0.27771 0.79002 0.62132 0.0
O111 O 0.0989 0.76524 0.59473 0.0
H112 H 0.02764 0.84857 0.41663 0.0
H113 H -0.00069 0.84493 0.33176 0.0
H114 H 0.84653 0.60231 0.32641 0.0
H115 H 0.87703 0.60571 0.41149 0.0
H116 H 0.47303 0.76042 0.66474 0.0
H117 H 0.50155 0.75616 0.74906 0.0
H118 H 0.64435 1.00305 0.76263 0.0
H119 H 0.61357 1.00769 0.67806 0.0
Tb120 Tb 0.64544 0.26559 0.52302 0.0
Tb121 Tb 0.85308 0.35203 0.56226 0.0
C122 C 0.47517 0.22784 0.47429 0.0
C123 C 0.44883 0.23075 0.4239 0.0
C124 C 0.48111 0.29897 0.40126 0.0
C125 C 0.46414 0.29815 0.35274 0.0
C126 C 0.41295 0.2296 0.32586 0.0
C127 C 0.3786 0.16201 0.34878 0.0
C128 C 0.39705 0.1624 0.39726 0.0
C129 C 0.81251 0.16699 0.53427 0.0
C130 C 0.81981 0.34414 0.4552 0.0
C131 C 0.02275 0.38637 0.61167 0.0
C132 C 0.04658 0.38515 0.6626 0.0
C133 C 0.12505 0.32899 0.6761 0.0
C134 C 0.14502 0.3236 0.72384 0.0
C135 C 0.08755 0.37476 0.75948 0.0
C136 C 0.00956 0.43162 0.74595 0.0
C137 C 0.98922 0.43676 0.69808 0.0
C138 C 0.68566 0.45057 0.55118 0.0
C139 C 0.67983 0.27392 0.63066 0.0
O140 O 0.48827 0.29954 0.50101 0.0
O141 O 0.55092 0.17381 0.48222 0.0
O142 O 0.81751 0.23722 0.51983 0.0
O143 O 0.71036 0.1473 0.54047 0.0
O144 O 0.7167 0.32258 0.46364 0.0
O145 O 0.8968 0.34877 0.48834 0.0
O146 O 0.00587 0.31354 0.58671 0.0
O147 O 0.95313 0.4428 0.60079 0.0
O148 O 0.68108 0.38025 0.56553 0.0
O149 O 0.78787 0.47067 0.54524 0.0
O150 O 0.78131 0.29877 0.62224 0.0
O151 O 0.60332 0.2653 0.59717 0.0
H152 H 0.52011 0.35285 0.42101 0.0
H153 H 0.48983 0.35179 0.33636 0.0
H154 H 0.3391 0.10822 0.32909 0.0
H155 H 0.372 0.10883 0.41387 0.0
H156 H 0.17006 0.28821 0.64961 0.0
H157 H 0.20447 0.27812 0.73276 0.0
H158 H 0.96487 0.47275 0.77235 0.0
H159 H 0.92796 0.48076 0.68899 0.0
C160 C 0.60209 0.52236 0.05618 0.0
C161 C 0.58737 0.59766 1.03741 0.0
H162 H 0.5257 0.41223 0.07563 0.0
C163 C 0.48155 0.61938 1.02312 0.0
H164 H 0.68291 0.5043 0.06756 0.0
C165 C 0.39185 0.56655 1.0275 0.0
C166 C 0.40659 0.49115 0.04619 0.0
H167 H 0.46819 0.67685 1.00823 0.0
H168 H 0.31106 0.58458 1.01608 0.0
C169 C 0.51235 0.46961 0.06066 0.0
C170 C 0.51472 0.63396 0.52392 0.0
C171 C 0.40909 0.61191 0.53822 0.0
H172 H 0.68527 0.59956 0.51663 0.0
C173 C 0.39483 0.53634 0.55676 0.0
H174 H 0.52774 0.69162 0.50918 0.0
C175 C 0.48484 0.48372 0.56102 0.0
C176 C 0.59041 0.50563 0.54656 0.0
H177 H 0.3142 0.51802 0.56815 0.0
H178 H 0.47186 0.42617 0.57586 0.0
C179 C 0.60467 0.58125 0.52806 0.0
C180 C 0.10388 1.02126 0.05643 0.0
C181 C 0.08935 0.09701 1.0381 0.0
H182 H 0.02735 0.9105 0.07497 0.0
C183 C 0.98371 0.11879 1.0236 0.0
H184 H 0.18455 1.00303 0.06788 0.0
C185 C 0.89389 0.0659 1.02766 0.0
C186 C 0.90841 0.9902 0.04604 0.0
H187 H 0.97053 0.17645 1.00889 0.0
H188 H 0.81318 0.08413 1.01626 0.0
C189 C 0.01413 0.96827 0.06037 0.0
C190 C 0.01297 0.13292 0.52408 0.0
C191 C 0.90734 0.11146 0.53868 0.0
H192 H 0.18328 0.09789 0.51673 0.0
C193 C 0.89259 1.03582 0.55712 0.0
H194 H 0.02632 0.19049 0.5093 0.0
C195 C 0.98214 0.98269 0.56112 0.0
C196 C 0.08784 1.00435 0.54672 0.0
H197 H 0.8119 1.01783 0.56862 0.0
H198 H 0.96878 0.92504 0.57583 0.0
C199 C 0.10256 0.07987 0.52818 0.0
C200 C 0.47499 0.25723 0.24507 0.0
C201 C 0.3928 0.2301 0.27442 0.0
H202 H 0.51699 0.28598 0.17592 0.0
C203 C 0.28943 0.2066 0.25466 0.0
H204 H 0.55594 0.27485 0.25914 0.0
C205 C 0.26725 0.21335 0.20725 0.0
C206 C 0.34804 0.243 0.17831 0.0
H207 H 0.22429 0.18565 0.27625 0.0
H208 H 0.18626 0.19599 0.19335 0.0
C209 C 0.4531 0.26295 0.19736 0.0
C210 C 0.4824 0.852 0.34291 0.0
C211 C 0.40075 0.87887 0.31315 0.0
H212 H 0.52249 0.82246 0.41212 0.0
C213 C 0.2969 0.9021 0.33237 0.0
H214 H 0.56371 0.83464 0.32925 0.0
C215 C 0.27352 0.89487 0.37955 0.0
C216 C 0.35351 0.86489 0.40878 0.0
H217 H 0.23213 0.92283 0.31047 0.0
H218 H 0.19202 0.91169 0.393 0.0
C219 C 0.45923 0.84569 0.39041 0.0
C220 C 0.72362 0.88522 0.8796 0.0
C221 C 0.64342 0.85352 0.90801 0.0
H222 H 0.76463 0.9186 0.81161 0.0
C223 C 0.53755 0.83571 0.88929 0.0
H224 H 0.80531 0.90085 0.89331 0.0
C225 C 0.51422 0.84562 0.84224 0.0
C226 C 0.59578 0.87495 0.81341 0.0
H227 H 0.47416 0.81116 0.91037 0.0
H228 H 0.4328 0.82944 0.82822 0.0
C229 C 0.69998 0.89622 0.83293 0.0
C230 C 0.54775 0.23596 0.69318 0.0
C231 C 0.654 0.25885 0.67977 0.0
H232 H 0.44228 0.20975 0.74986 0.0
C233 C 0.7375 0.26939 0.71439 0.0
H234 H 0.48159 0.22719 0.66749 0.0
C235 C 0.71526 0.25921 0.76119 0.0
C236 C 0.60882 0.23815 0.77501 0.0
H237 H 0.82074 0.28631 0.70561 0.0
H238 H 0.78204 0.26781 0.78661 0.0
C239 C 0.52543 0.22557 0.74034 0.0
C240 C 0.77395 0.70607 0.20418 0.0
C241 C 0.8537 0.7366 0.17512 0.0
H242 H 0.73272 0.67767 0.27316 0.0
C243 C 0.95925 0.75631 0.19365 0.0
H244 H 0.69259 0.68887 0.19061 0.0
C245 C 0.98241 0.74998 0.24116 0.0
C246 C 0.90095 0.72259 0.27077 0.0
H247 H 0.02231 0.77997 0.17204 0.0
H248 H 0.06356 0.76775 0.25494 0.0
C249 C 0.79734 0.69882 0.25138 0.0
C250 C 0.95338 0.34003 0.38762 0.0
C251 C 0.84818 0.35938 0.40658 0.0
H252 H 0.05617 0.32864 0.32593 0.0
C253 C 0.76701 0.38842 0.37753 0.0
H254 H 0.0176 0.31751 0.40914 0.0
C255 C 0.78895 0.39515 0.33013 0.0
C256 C 0.89251 0.37227 0.31046 0.0
H257 H 0.68588 0.40532 0.39136 0.0
H258 H 0.72351 0.41559 0.30847 0.0
C259 C 0.97507 0.34576 0.33992 0.0
C260 C 0.21811 0.3555 0.8255 0.0
C261 C 0.10989 0.36848 0.81035 0.0
H262 H 0.32443 0.33389 0.88208 0.0
C263 C 0.02401 0.37304 0.84389 0.0
H264 H 0.28675 0.35341 0.8011 0.0
C265 C 0.04583 0.36246 0.89109 0.0
C266 C 0.15393 0.34701 0.90567 0.0
H267 H 0.93947 0.38243 0.83344 0.0
H268 H 0.97783 0.36466 0.9158 0.0
C269 C 0.23975 0.34476 0.8723 0.0
C270 C 0.22412 0.71731 0.70463 0.0
C271 C 0.14399 0.74888 0.67608 0.0
H272 H 0.26491 0.68401 0.7727 0.0
C273 C 0.03809 0.76669 0.69467 0.0
H274 H 0.30584 0.70168 0.69103 0.0
C275 C 0.01464 0.75686 0.7417 0.0
C276 C 0.09608 0.72757 0.77065 0.0
H277 H 0.97475 0.79116 0.67348 0.0
H278 H 0.93317 0.77302 0.7556 0.0
C279 C 0.20035 0.70636 0.75128 0.0
loop_
_geom_bond_atom_site_label_1
_geom_bond_atom_site_label_2
_geom_bond_distance
_geom_bond_site_symmetry_2
_ccdc_geom_bond_type
Tb0 C2 2.809 . S
Tb0 O20 2.484 . S
Tb0 O21 2.440 . S
Tb0 O22 2.658 1_554 S
Tb0 O23 2.409 . S
Tb0 O24 2.378 . S
Tb0 O28 2.325 . S
Tb0 O31 2.341 1_554 S
Tb1 C11 2.809 . S
Tb1 O22 2.325 . S
Tb1 O25 2.341 1_556 S
Tb1 O26 2.484 . S
Tb1 O27 2.440 . S
Tb1 O28 2.658 1_556 S
Tb1 O29 2.409 . S
Tb1 O30 2.378 . S
C2 Tb0 2.809 . S
C2 C3 1.514 . S
C2 O20 1.248 . S
C2 O21 1.266 . S
C3 C2 1.514 . S
C3 C4 1.359 1_455 S
C3 C8 1.348 . S
C4 C3 1.359 1_655 S
C4 C5 1.380 . S
C4 H32 0.929 . S
C5 C4 1.380 . S
C5 C6 1.347 . S
C5 H33 0.931 . S
C6 C5 1.347 . S
C6 C7 1.369 . S
C7 C6 1.369 . S
C7 C8 1.408 1_655 S
C7 H34 0.930 . S
C8 C3 1.348 . S
C8 C7 1.408 1_455 S
C8 H35 0.930 . S
C9 O22 1.281 1_554 S
C9 O23 1.254 . S
C10 O24 1.236 . S
C10 O25 1.266 . S
C11 Tb1 2.809 . S
C11 C12 1.514 . S
C11 O26 1.248 . S
C11 O27 1.266 . S
C12 C11 1.514 . S
C12 C13 1.359 . S
C12 C17 1.348 . S
C13 C12 1.359 . S
C13 C14 1.380 . S
C13 H36 0.929 . S
C14 C13 1.380 . S
C14 C15 1.347 . S
C14 H37 0.931 . S
C15 C14 1.347 . S
C15 C16 1.369 . S
C16 C15 1.369 . S
C16 C17 1.408 . S
C16 H38 0.930 . S
C17 C12 1.348 . S
C17 C16 1.408 . S
C17 H39 0.930 . S
C18 O28 1.281 1_556 S
C18 O29 1.254 . S
C19 O30 1.236 . S
C19 O31 1.266 . S
O20 Tb0 2.484 . S
O20 C2 1.248 . S
O21 Tb0 2.440 . S
O21 C2 1.266 . S
O22 Tb0 2.658 1_556 S
O22 Tb1 2.325 . S
O22 C9 1.281 1_556 S
O23 Tb0 2.409 . S
O23 C9 1.254 . S
O24 Tb0 2.378 . S
O24 C10 1.236 . S
O25 Tb1 2.341 1_554 S
O25 C10 1.266 . S
O26 Tb1 2.484 . S
O26 C11 1.248 . S
O27 Tb1 2.440 . S
O27 C11 1.266 . S
O28 Tb0 2.325 . S
O28 Tb1 2.658 1_554 S
O28 C18 1.281 1_554 S
O29 Tb1 2.409 . S
O29 C18 1.254 . S
O30 Tb1 2.378 . S
O30 C19 1.236 . S
O31 Tb0 2.341 1_556 S
O31 C19 1.266 . S
H32 C4 0.929 . S
H33 C5 0.931 . S
H34 C7 0.930 . S
H35 C8 0.930 . S
H36 C13 0.929 . S
H37 C14 0.931 . S
H38 C16 0.930 . S
H39 C17 0.930 . S
Tb40 C42 2.809 . S
Tb40 O60 2.484 . S
Tb40 O61 2.440 . S
Tb40 O62 2.658 1_554 S
Tb40 O63 2.409 . S
Tb40 O64 2.378 . S
Tb40 O68 2.325 . S
Tb40 O71 2.341 1_554 S
Tb41 C51 2.809 . S
Tb41 O62 2.325 . S
Tb41 O65 2.341 1_556 S
Tb41 O66 2.484 . S
Tb41 O67 2.440 . S
Tb41 O68 2.658 1_556 S
Tb41 O69 2.409 . S
Tb41 O70 2.378 . S
C42 Tb40 2.809 . S
C42 C43 1.514 . S
C42 O60 1.248 . S
C42 O61 1.266 . S
C43 C42 1.514 . S
C43 C44 1.359 . S
C43 C48 1.348 . S
C44 C43 1.359 . S
C44 C45 1.380 . S
C44 H72 0.929 . S
C45 C44 1.380 . S
C45 C46 1.347 . S
C45 H73 0.931 . S
C46 C45 1.347 . S
C46 C47 1.369 . S
C47 C46 1.369 . S
C47 C48 1.408 . S
C47 H74 0.930 . S
C48 C43 1.348 . S
C48 C47 1.408 . S
C48 H75 0.930 . S
C49 O62 1.281 1_554 S
C49 O63 1.254 . S
C50 O64 1.236 . S
C50 O65 1.266 . S
C51 Tb41 2.809 . S
C51 C52 1.514 . S
C51 O66 1.248 . S
C51 O67 1.266 . S
C52 C51 1.514 . S
C52 C53 1.359 1_655 S
C52 C57 1.348 . S
C53 C52 1.359 1_455 S
C53 C54 1.380 . S
C53 H76 0.929 . S
C54 C53 1.380 . S
C54 C55 1.347 . S
C54 H77 0.931 . S
C55 C54 1.347 . S
C55 C56 1.369 . S
C56 C55 1.369 . S
C56 C57 1.408 1_455 S
C56 H78 0.930 . S
C57 C52 1.348 . S
C57 C56 1.408 1_655 S
C57 H79 0.930 . S
C58 O68 1.281 1_556 S
C58 O69 1.254 . S
C59 O70 1.236 . S
C59 O71 1.266 . S
O60 Tb40 2.484 . S
O60 C42 1.248 . S
O61 Tb40 2.440 . S
O61 C42 1.266 . S
O62 Tb40 2.658 1_556 S
O62 Tb41 2.325 . S
O62 C49 1.281 1_556 S
O63 Tb40 2.409 . S
O63 C49 1.254 . S
O64 Tb40 2.378 . S
O64 C50 1.236 . S
O65 Tb41 2.341 1_554 S
O65 C50 1.266 . S
O66 Tb41 2.484 . S
O66 C51 1.248 . S
O67 Tb41 2.440 . S
O67 C51 1.266 . S
O68 Tb40 2.325 . S
O68 Tb41 2.658 1_554 S
O68 C58 1.281 1_554 S
O69 Tb41 2.409 . S
O69 C58 1.254 . S
O70 Tb41 2.378 . S
O70 C59 1.236 . S
O71 Tb40 2.341 1_556 S
O71 C59 1.266 . S
H72 C44 0.929 . S
H73 C45 0.931 . S
H74 C47 0.930 . S
H75 C48 0.930 . S
H76 C53 0.929 . S
H77 C54 0.931 . S
H78 C56 0.930 . S
H79 C57 0.930 . S
Tb80 C82 2.809 . S
Tb80 O100 2.484 . S
Tb80 O101 2.440 . S
Tb80 O102 2.658 . S
Tb80 O103 2.409 . S
Tb80 O104 2.378 . S
Tb80 O108 2.325 . S
Tb80 O111 2.341 . S
Tb81 C91 2.809 . S
Tb81 O102 2.325 . S
Tb81 O105 2.341 . S
Tb81 O106 2.484 . S
Tb81 O107 2.440 . S
Tb81 O108 2.658 . S
Tb81 O109 2.409 . S
Tb81 O110 2.378 . S
C82 Tb80 2.809 . S
C82 C83 1.514 . S
C82 O100 1.248 . S
C82 O101 1.266 . S
C83 C82 1.514 . S
C83 C84 1.359 1_455 S
C83 C88 1.348 . S
C84 C83 1.359 1_655 S
C84 C85 1.380 . S
C84 H112 0.929 . S
C85 C84 1.380 . S
C85 C86 1.347 . S
C85 H113 0.931 . S
C86 C85 1.347 . S
C86 C87 1.369 . S
C87 C86 1.369 . S
C87 C88 1.408 1_655 S
C87 H114 0.930 . S
C88 C83 1.348 . S
C88 C87 1.408 1_455 S
C88 H115 0.930 . S
C89 O102 1.281 . S
C89 O103 1.254 . S
C90 O104 1.236 . S
C90 O105 1.266 . S
C91 Tb81 2.809 . S
C91 C92 1.514 . S
C91 O106 1.248 . S
C91 O107 1.266 . S
C92 C91 1.514 . S
C92 C93 1.359 . S
C92 C97 1.348 . S
C93 C92 1.359 . S
C93 C94 1.380 . S
C93 H116 0.929 . S
C94 C93 1.380 . S
C94 C95 1.347 . S
C94 H117 0.931 . S
C95 C94 1.347 . S
C95 C96 1.369 . S
C96 C95 1.369 . S
C96 C97 1.408 . S
C96 H118 0.930 . S
C97 C92 1.348 . S
C97 C96 1.408 . S
C97 H119 0.930 . S
C98 O108 1.281 . S
C98 O109 1.254 . S
C99 O110 1.236 . S
C99 O111 1.266 . S
O100 Tb80 2.484 . S
O100 C82 1.248 . S
O101 Tb80 2.440 . S
O101 C82 1.266 . S
O102 Tb80 2.658 . S
O102 Tb81 2.325 . S
O102 C89 1.281 . S
O103 Tb80 2.409 . S
O103 C89 1.254 . S
O104 Tb80 2.378 . S
O104 C90 1.236 . S
O105 Tb81 2.341 . S
O105 C90 1.266 . S
O106 Tb81 2.484 . S
O106 C91 1.248 . S
O107 Tb81 2.440 . S
O107 C91 1.266 . S
O108 Tb80 2.325 . S
O108 Tb81 2.658 . S
O108 C98 1.281 . S
O109 Tb81 2.409 . S
O109 C98 1.254 . S
O110 Tb81 2.378 . S
O110 C99 1.236 . S
O111 Tb80 2.341 . S
O111 C99 1.266 . S
H112 C84 0.929 . S
H113 C85 0.931 . S
H114 C87 0.930 . S
H115 C88 0.930 . S
H116 C93 0.929 . S
H117 C94 0.931 . S
H118 C96 0.930 . S
H119 C97 0.930 . S
Tb120 C122 2.809 . S
Tb120 O140 2.484 . S
Tb120 O141 2.440 . S
Tb120 O142 2.658 . S
Tb120 O143 2.409 . S
Tb120 O144 2.378 . S
Tb120 O148 2.325 . S
Tb120 O151 2.341 . S
Tb121 C131 2.809 . S
Tb121 O142 2.325 . S
Tb121 O145 2.341 . S
Tb121 O146 2.484 . S
Tb121 O147 2.440 . S
Tb121 O148 2.658 . S
Tb121 O149 2.409 . S
Tb121 O150 2.378 . S
C122 Tb120 2.809 . S
C122 C123 1.514 . S
C122 O140 1.248 . S
C122 O141 1.266 . S
C123 C122 1.514 . S
C123 C124 1.359 . S
C123 C128 1.348 . S
C124 C123 1.359 . S
C124 C125 1.380 . S
C124 H152 0.929 . S
C125 C124 1.380 . S
C125 C126 1.347 . S
C125 H153 0.931 . S
C126 C125 1.347 . S
C126 C127 1.369 . S
C127 C126 1.369 . S
C127 C128 1.408 . S
C127 H154 0.930 . S
C128 C123 1.348 . S
C128 C127 1.408 . S
C128 H155 0.930 . S
C129 O142 1.281 . S
C129 O143 1.254 . S
C130 O144 1.236 . S
C130 O145 1.266 . S
C131 Tb121 2.809 . S
C131 C132 1.514 . S
C131 O146 1.248 . S
C131 O147 1.266 . S
C132 C131 1.514 . S
C132 C133 1.359 1_655 S
C132 C137 1.348 . S
C133 C132 1.359 1_455 S
C133 C134 1.380 . S
C133 H156 0.929 . S
C134 C133 1.380 . S
C134 C135 1.347 . S
C134 H157 0.931 . S
C135 C134 1.347 . S
C135 C136 1.369 . S
C136 C135 1.369 . S
C136 C137 1.408 1_455 S
C136 H158 0.930 . S
C137 C132 1.348 . S
C137 C136 1.408 1_655 S
C137 H159 0.930 . S
C138 O148 1.281 . S
C138 O149 1.254 . S
C139 O150 1.236 . S
C139 O151 1.266 . S
O140 Tb120 2.484 . S
O140 C122 1.248 . S
O141 Tb120 2.440 . S
O141 C122 1.266 . S
O142 Tb120 2.658 . S
O142 Tb121 2.325 . S
O142 C129 1.281 . S
O143 Tb120 2.409 . S
O143 C129 1.254 . S
O144 Tb120 2.378 . S
O144 C130 1.236 . S
O145 Tb121 2.341 . S
O145 C130 1.266 . S
O146 Tb121 2.484 . S
O146 C131 1.248 . S
O147 Tb121 2.440 . S
O147 C131 1.266 . S
O148 Tb120 2.325 . S
O148 Tb121 2.658 . S
O148 C138 1.281 . S
O149 Tb121 2.409 . S
O149 C138 1.254 . S
O150 Tb121 2.378 . S
O150 C139 1.236 . S
O151 Tb120 2.341 . S
O151 C139 1.266 . S
H152 C124 0.929 . S
H153 C125 0.931 . S
H154 C127 0.930 . S
H155 C128 0.930 . S
H156 C133 0.929 . S
H157 C134 0.931 . S
H158 C136 0.930 . S
H159 C137 0.930 . S
C160 C161 1.387 1_556 S
C160 H164 0.950 . S
C160 C169 1.390 . S
C161 C160 1.387 1_554 S
C161 C163 1.387 . S
H162 C169 0.950 . S
C163 C161 1.387 . S
C163 C165 1.390 . S
C163 H167 0.950 . S
H164 C160 0.950 . S
C165 C163 1.390 . S
C165 C166 1.387 . S
C165 H168 0.950 . S
C166 C165 1.387 . S
C166 C169 1.387 1_554 S
H167 C163 0.950 . S
H168 C165 0.950 . S
C169 C160 1.390 . S
C169 H162 0.950 . S
C169 C166 1.387 1_556 S
C170 C171 1.387 . S
C170 H174 0.950 . S
C170 C179 1.390 . S
C171 C170 1.387 . S
C171 C173 1.387 . S
H172 C179 0.950 . S
C173 C171 1.387 . S
C173 C175 1.390 . S
C173 H177 0.950 . S
H174 C170 0.950 . S
C175 C173 1.390 . S
C175 C176 1.387 . S
C175 H178 0.950 . S
C176 C175 1.387 . S
C176 C179 1.387 . S
H177 C173 0.950 . S
H178 C175 0.950 . S
C179 C170 1.390 . S
C179 H172 0.950 . S
C179 C176 1.387 . S
C180 C181 1.387 . S
C180 H184 0.950 . S
C180 C189 1.390 1_445 S
C181 C180 1.387 . S
C181 C183 1.387 1_554 S
H182 C189 0.950 . S
C183 C181 1.387 1_556 S
C183 C185 1.390 1_445 S
C183 H187 0.950 . S
H184 C180 0.950 . S
C185 C183 1.390 1_665 S
C185 C186 1.387 1_556 S
C185 H188 0.950 . S
C186 C185 1.387 1_554 S
C186 C189 1.387 . S
H187 C183 0.950 . S
H188 C185 0.950 . S
C189 C180 1.390 1_665 S
C189 H182 0.950 . S
C189 C186 1.387 . S
C190 C191 1.387 . S
C190 H194 0.950 . S
C190 C199 1.390 1_645 S
C191 C190 1.387 . S
C191 C193 1.387 . S
H192 C199 0.950 . S
C193 C191 1.387 . S
C193 C195 1.390 1_645 S
C193 H197 0.950 . S
H194 C190 0.950 . S
C195 C193 1.390 1_465 S
C195 C196 1.387 . S
C195 H198 0.950 . S
C196 C195 1.387 . S
C196 C199 1.387 . S
H197 C193 0.950 . S
H198 C195 0.950 . S
C199 C190 1.390 1_465 S
C199 H192 0.950 . S
C199 C196 1.387 . S
C200 C201 1.387 . S
C200 H204 0.950 . S
C200 C209 1.390 . S
C201 C200 1.387 . S
C201 C203 1.387 . S
H202 C209 0.950 . S
C203 C201 1.387 . S
C203 C205 1.390 . S
C203 H207 0.950 . S
H204 C200 0.950 . S
C205 C203 1.390 . S
C205 C206 1.387 . S
C205 H208 0.950 . S
C206 C205 1.387 . S
C206 C209 1.387 . S
H207 C203 0.950 . S
H208 C205 0.950 . S
C209 C200 1.390 . S
C209 H202 0.950 . S
C209 C206 1.387 . S
C210 C211 1.387 . S
C210 H214 0.950 . S
C210 C219 1.390 . S
C211 C210 1.387 . S
C211 C213 1.387 . S
H212 C219 0.950 . S
C213 C211 1.387 . S
C213 C215 1.390 . S
C213 H217 0.950 . S
H214 C210 0.950 . S
C215 C213 1.390 . S
C215 C216 1.387 . S
C215 H218 0.950 . S
C216 C215 1.387 . S
C216 C219 1.387 . S
H217 C213 0.950 . S
H218 C215 0.950 . S
C219 C210 1.390 . S
C219 H212 0.950 . S
C219 C216 1.387 . S
C220 C221 1.387 . S
C220 H224 0.950 . S
C220 C229 1.390 . S
C221 C220 1.387 . S
C221 C223 1.387 . S
H222 C229 0.950 . S
C223 C221 1.387 . S
C223 C225 1.390 . S
C223 H227 0.950 . S
H224 C220 0.950 . S
C225 C223 1.390 . S
C225 C226 1.387 . S
C225 H228 0.950 . S
C226 C225 1.387 . S
C226 C229 1.387 . S
H227 C223 0.950 . S
H228 C225 0.950 . S
C229 C220 1.390 . S
C229 H222 0.950 . S
C229 C226 1.387 . S
C230 C231 1.387 . S
C230 H234 0.950 . S
C230 C239 1.390 . S
C231 C230 1.387 . S
C231 C233 1.387 . S
H232 C239 0.950 . S
C233 C231 1.387 . S
C233 C235 1.390 . S
C233 H237 0.950 . S
H234 C230 0.950 . S
C235 C233 1.390 . S
C235 C236 1.387 . S
C235 H238 0.950 . S
C236 C235 1.387 . S
C236 C239 1.387 . S
H237 C233 0.950 . S
H238 C235 0.950 . S
C239 C230 1.390 . S
C239 H232 0.950 . S
C239 C236 1.387 . S
C240 C241 1.387 . S
C240 H244 0.950 . S
C240 C249 1.390 . S
C241 C240 1.387 . S
C241 C243 1.387 . S
H242 C249 0.950 . S
C243 C241 1.387 . S
C243 C245 1.390 . S
C243 H247 0.950 . S
H244 C240 0.950 . S
C245 C243 1.390 . S
C245 C246 1.387 . S
C245 H248 0.950 . S
C246 C245 1.387 . S
C246 C249 1.387 . S
H247 C243 0.950 . S
H248 C245 0.950 . S
C249 C240 1.390 . S
C249 H242 0.950 . S
C249 C246 1.387 . S
C250 C251 1.387 . S
C250 H254 0.950 . S
C250 C259 1.390 . S
C251 C250 1.387 . S
C251 C253 1.387 . S
H252 C259 0.950 . S
C253 C251 1.387 . S
C253 C255 1.390 . S
C253 H257 0.950 . S
H254 C250 0.950 . S
C255 C253 1.390 . S
C255 C256 1.387 . S
C255 H258 0.950 . S
C256 C255 1.387 . S
C256 C259 1.387 . S
H257 C253 0.950 . S
H258 C255 0.950 . S
C259 C250 1.390 . S
C259 H252 0.950 . S
C259 C256 1.387 . S
C260 C261 1.387 . S
C260 H264 0.950 . S
C260 C269 1.390 . S
C261 C260 1.387 . S
C261 C263 1.387 . S
H262 C269 0.950 . S
C263 C261 1.387 . S
C263 C265 1.390 . S
C263 H267 0.950 1_455 S
H264 C260 0.950 . S
C265 C263 1.390 . S
C265 C266 1.387 . S
C265 H268 0.950 . S
C266 C265 1.387 . S
C266 C269 1.387 . S
H267 C263 0.950 1_655 S
H268 C265 0.950 . S
C269 C260 1.390 . S
C269 H262 0.950 . S
C269 C266 1.387 . S
C270 C271 1.387 . S
C270 H274 0.950 . S
C270 C279 1.390 . S
C271 C270 1.387 . S
C271 C273 1.387 . S
H272 C279 0.950 . S
C273 C271 1.387 . S
C273 C275 1.390 . S
C273 H277 0.953 . S
H274 C270 0.950 . S
C275 C273 1.390 . S
C275 C276 1.387 . S
C275 H278 0.950 1_455 S
C276 C275 1.387 . S
C276 C279 1.387 . S
H277 C273 0.953 . S
H278 C275 0.950 1_655 S
C279 C270 1.390 . S
C279 H272 0.950 . S
C279 C276 1.387 . S
C161 C58 1.542 1_554 S
C166 C9 1.542 . S
C171 C89 1.541 . S
C176 C138 1.541 . S
C181 C18 1.541 1_554 S
C186 C49 1.541 . S
C191 C129 1.542 . S
C196 C98 1.542 . S
C201 C126 1.401 . S
C206 C10 1.431 . S
C211 C46 1.401 . S
C216 C90 1.431 . S
C221 C59 1.430 . S
C226 C95 1.402 . S
C231 C139 1.430 . S
C236 C15 1.402 . S
C241 C50 1.430 . S
C246 C86 1.401 . S
C251 C130 1.430 . S
C256 C6 1.402 . S
C261 C135 1.400 . S
C266 C19 1.430 . S
C271 C99 1.431 . S
C276 C55 1.401 . S
