# Generated by pormake.
# Topology sxb, (6)-cn, num edge types: 1
# Building blocks:
#     Node 0, Type 0, BuildingBlock: NUHQIS_clean_sbu_0, # of connection points: 6
#     Node 1, Type 0, BuildingBlock: NUHQIS_clean_sbu_0, # of connection points: 6
#     Node 2, Type 0, BuildingBlock: NUHQIS_clean_sbu_0, # of connection points: 6
#     Node 3, Type 0, BuildingBlock: NUHQIS_clean_sbu_0, # of connection points: 6
#     Edge 4, Type (0, 0), BuildingBlock: XUDNAN_clean_linker_2, # of connection points: 2
#     Edge 5, Type (0, 0), BuildingBlock: XUDNAN_clean_linker_2, # of connection points: 2
#     Edge 6, Type (0, 0), BuildingBlock: XUDNAN_clean_linker_2, # of connection points: 2
#     Edge 7, Type (0, 0), BuildingBlock: XUDNAN_clean_linker_2, # of connection points: 2
#     Edge 8, Type (0, 0), BuildingBlock: XUDNAN_clean_linker_2, # of connection points: 2
#     Edge 9, Type (0, 0), BuildingBlock: XUDNAN_clean_linker_2, # of connection points: 2
#     Edge 10, Type (0, 0), BuildingBlock: XUDNAN_clean_linker_2, # of connection points: 2
#     Edge 11, Type (0, 0), BuildingBlock: XUDNAN_clean_linker_2, # of connection points: 2
#     Edge 12, Type (0, 0), BuildingBlock: XUDNAN_clean_linker_2, # of connection points: 2
#     Edge 13, Type (0, 0), BuildingBlock: XUDNAN_clean_linker_2, # of connection points: 2
#     Edge 14, Type (0, 0), BuildingBlock: XUDNAN_clean_linker_2, # of connection points: 2
#     Edge 15, Type (0, 0), BuildingBlock: XUDNAN_clean_linker_2, # of connection points: 2
# Relax obj value: 0.072
# Max RMSD: 0.164
# Mean RMSD: 0.164
data_MOF--net-sxb--node1-NUHQIS_clean_sbu_0--edge1-XUDNAN_clean_linker_2
_symmetry_space_group_name_H-M    P1
_symmetry_Int_Tables_number       1
_symmetry_cell_setting            triclinic
loop_
_symmetry_equiv_pos_as_xyz
'x, y, z'
_cell_length_a     24.21618
_cell_length_b     16.619544
_cell_length_c     30.149065
_cell_angle_alpha  90.274422
_cell_angle_beta   95.636572
_cell_angle_gamma 90.062223
loop_
_atom_site_label
_atom_site_type_symbol
_atom_site_fract_x
_atom_site_fract_y
_atom_site_fract_z
_atom_type_partial_charge
Tb0 Tb 0.98574 0.91451 0.95609 0.0
Eu1 Eu 0.08572 0.05436 0.98081 0.0
C2 C 0.03787 0.00658 0.88074 0.0
C3 C 0.1115 0.86821 0.95719 0.0
C4 C 0.84154 0.84719 0.95876 0.0
C5 C 0.74047 0.84114 0.94521 0.0
C6 C 0.79337 0.8203 0.93328 0.0
C7 C 0.83579 0.89442 -0.00324 0.0
C8 C 0.78317 0.91607 0.00841 0.0
C9 C 0.73439 0.89044 0.98269 0.0
C10 C 0.89733 0.83224 0.94374 0.0
O11 O 0.98861 0.94535 0.02634 0.0
O12 O 0.08101 0.97444 0.04003 0.0
O13 O 1.00528 0.11122 -0.00123 0.0
O14 O 0.95738 0.03646 0.94494 0.0
C15 C 1.03396 0.95096 0.05369 0.0
O16 O 0.14826 0.11191 0.02824 0.0
O17 O 0.14513 0.14095 0.95843 0.0
O18 O 0.05112 0.06591 0.909 0.0
O19 O 1.02314 0.9349 0.89417 0.0
O20 O 0.06149 0.84239 0.9639 0.0
O21 O 0.12468 0.94442 0.95479 0.0
C22 C 0.95808 0.09192 0.97575 0.0
O23 O 0.9132 0.88368 0.9151 0.0
O24 O 0.93743 0.81691 0.97469 0.0
C25 C 0.23439 0.12463 -0.0022 0.0
C26 C 0.34833 0.0799 0.00395 0.0
C27 C 0.33041 0.14617 0.02821 0.0
C28 C 0.27415 0.16813 0.02518 0.0
C29 C 0.25215 0.05918 0.97303 0.0
C30 C 0.30838 0.03724 0.97596 0.0
C31 C 0.17442 0.14453 -0.00293 0.0
H32 H 0.70442 0.81836 0.92495 0.0
H33 H 0.79662 0.78384 0.90377 0.0
H34 H 0.87215 0.91726 0.01668 0.0
H35 H 0.78115 0.95562 0.03681 0.0
H36 H 0.35991 0.18105 0.04975 0.0
H37 H 0.26157 0.21845 0.04479 0.0
H38 H 0.22241 0.024 0.9519 0.0
H39 H 0.32027 0.98529 0.95728 0.0
Tb40 Tb 0.07139 0.93973 0.47547 0.0
Eu41 Eu 0.97196 0.07806 0.45442 0.0
C42 C 1.01963 0.0227 0.55397 0.0
C43 C 0.94838 0.88183 0.4656 0.0
C44 C 0.2214 0.89334 0.4935 0.0
C45 C 0.31671 0.86813 0.52406 0.0
C46 C 0.26093 0.84405 0.51711 0.0
C47 C 0.23854 0.968 0.47766 0.0
C48 C 0.29427 0.99191 0.48437 0.0
C49 C 0.33422 0.94206 0.50739 0.0
C50 C 0.16309 0.86566 0.48404 0.0
O51 O 0.03865 0.92652 0.40575 0.0
O52 O 1.00266 0.05177 0.38823 0.0
O53 O 0.04845 0.13975 0.43566 0.0
O54 O 0.10223 0.0622 0.48483 0.0
C55 C 1.02142 0.98169 0.37659 0.0
O56 O 0.89503 0.11508 0.41631 0.0
O57 O 0.92529 0.18217 0.47538 0.0
O58 O 1.00341 0.08238 0.52734 0.0
O59 O 0.03763 0.95433 0.5389 0.0
O60 O 1.00048 0.85924 0.47391 0.0
O61 O 0.93265 0.95675 0.45878 0.0
C62 C 0.09667 0.12168 0.4565 0.0
O63 O 0.13082 0.87265 0.51604 0.0
O64 O 0.13801 0.88864 0.44602 0.0
C65 C 0.82866 0.15568 0.4633 0.0
C66 C 0.72235 0.11704 0.48936 0.0
C67 C 0.72902 0.17984 0.45902 0.0
C68 C 0.78168 0.19887 0.44611 0.0
C69 C 0.82238 0.09413 0.49413 0.0
C70 C 0.76998 0.07505 0.50701 0.0
C71 C 0.88304 0.16808 0.44591 0.0
H72 H 0.34637 0.82806 0.54174 0.0
H73 H 0.24877 0.78644 0.52976 0.0
H74 H 0.20893 0.00764 0.45961 0.0
H75 H 0.30602 0.04976 0.47176 0.0
H76 H 0.69355 0.21423 0.44514 0.0
H77 H 0.78552 0.24624 0.42204 0.0
H78 H 0.85792 0.05905 0.5073 0.0
H79 H 0.7667 0.02537 0.5297 0.0
Tb80 Tb 0.50056 0.44622 0.03315 0.0
Eu81 Eu 0.60116 0.57565 0.01987 0.0
C82 C 0.53495 0.48716 0.93884 0.0
C83 C 0.62444 0.38713 0.03395 0.0
C84 C 0.35599 0.37025 0.03195 0.0
C85 C 0.27406 0.37995 0.97834 0.0
C86 C 0.33103 0.36606 0.98785 0.0
C87 C 0.32235 0.3869 0.06631 0.0
C88 C 0.26547 0.40113 0.05679 0.0
C89 C 0.24058 0.39837 0.01264 0.0
C90 C 0.41677 0.35936 0.04261 0.0
O91 O 0.54957 0.46166 0.09705 0.0
O92 O 0.5702 0.59382 0.0875 0.0
O93 O 0.522 0.63981 -0.00357 0.0
O94 O 0.46652 0.56639 0.03867 0.0
C95 C 0.56174 0.53321 0.11385 0.0
O96 O 0.6719 0.64567 0.04929 0.0
O97 O 0.64891 0.65126 0.97828 0.0
O98 O 0.58551 0.50088 0.95716 0.0
O99 O 0.49327 0.48286 0.96353 0.0
O100 O 0.57166 0.3705 0.02288 0.0
O101 O 0.6421 0.46055 0.04293 0.0
C102 C 0.47461 0.62819 0.01313 0.0
O103 O 0.44708 0.35223 0.00931 0.0
O104 O 0.44042 0.4062 0.07369 0.0
C105 C 0.74549 0.64739 0.00292 0.0
C106 C 0.85369 0.5923 0.99031 0.0
C107 C 0.83984 0.61465 0.03293 0.0
C108 C 0.78662 0.64236 0.03907 0.0
C109 C 0.75986 0.62836 0.96001 0.0
C110 C 0.81333 0.60145 0.95378 0.0
C111 C 0.68731 0.66671 0.01071 0.0
H112 H 0.2565 0.378 0.9439 0.0
H113 H 0.35554 0.35306 0.96051 0.0
H114 H 0.34017 0.38964 0.10068 0.0
H115 H 0.24091 0.41371 0.08414 0.0
H116 H 0.86938 0.60779 0.06202 0.0
H117 H 0.77713 0.65714 0.07252 0.0
H118 H 0.72953 0.63273 0.93124 0.0
H119 H 0.82276 0.58692 0.92031 0.0
Tb120 Tb 0.58112 0.43163 0.52805 0.0
Eu121 Eu 0.47885 0.56665 0.52103 0.0
C122 C 0.53104 0.49735 0.61251 0.0
C123 C 0.45593 0.37966 0.5145 0.0
C124 C 0.72239 0.35224 0.52348 0.0
C125 C 0.82185 0.34202 0.54466 0.0
C126 C 0.76703 0.32499 0.55278 0.0
C127 C 0.73353 0.39588 0.48552 0.0
C128 C 0.78826 0.41187 0.47707 0.0
C129 C 0.83302 0.38586 0.50677 0.0
C130 C 0.66473 0.3399 0.53441 0.0
O131 O 0.58011 0.48499 0.46202 0.0
O132 O 0.48773 0.51834 0.45227 0.0
O133 O 0.55493 0.63562 0.50675 0.0
O134 O 0.61859 0.54918 0.54246 0.0
C135 C 0.53531 0.50469 0.4362 0.0
O136 O 0.41524 0.63652 0.48165 0.0
O137 O 0.41943 0.64014 0.55345 0.0
O138 O 0.51971 0.56462 0.59098 0.0
O139 O 0.54386 0.43152 0.59133 0.0
O140 O 0.50597 0.3664 0.50266 0.0
O141 O 0.44362 0.44608 0.53467 0.0
C142 C 0.60613 0.61725 0.5219 0.0
O143 O 0.64995 0.38368 0.56715 0.0
O144 O 0.62603 0.33795 0.50112 0.0
C145 C 0.32951 0.63548 0.51321 0.0
C146 C 0.21764 0.58203 0.5024 0.0
C147 C 0.23989 0.62712 0.46893 0.0
C148 C 0.29507 0.65361 0.47433 0.0
C149 C 0.30676 0.59307 0.54744 0.0
C150 C 0.25142 0.56714 0.54218 0.0
C151 C 0.38953 0.65598 0.51615 0.0
H152 H 0.85555 0.32076 0.56793 0.0
H153 H 0.75943 0.29162 0.58236 0.0
H154 H 0.69994 0.4187 0.46265 0.0
H155 H 0.79556 0.44647 0.44785 0.0
H156 H 0.21477 0.64133 0.43826 0.0
H157 H 0.31126 0.68681 0.44759 0.0
H158 H 0.33204 0.57784 0.57787 0.0
H159 H 0.23581 0.53256 0.56863 0.0
H160 H 0.38726 0.66369 0.05966 0.0
H161 H 0.45095 0.69736 0.93153 0.0
H162 H 0.35972 0.75056 0.90082 0.0
H163 H 0.25341 0.59766 0.02089 0.0
H164 H 0.22076 0.65055 0.06379 0.0
H165 H 0.29172 0.61911 0.07394 0.0
H166 H 0.3191 0.76811 0.09385 0.0
H167 H 0.24762 0.79771 0.08264 0.0
H168 H 0.30027 0.84603 0.05379 0.0
H169 H 0.2599 0.79134 0.88334 0.0
H170 H 0.16395 0.84204 0.8838 0.0
H171 H 0.16634 0.78242 0.0235 0.0
C172 C 0.38227 0.68397 0.0254 0.0
C173 C 0.42584 0.67676 -0.00211 0.0
C174 C 0.41811 0.70359 0.95325 0.0
C175 C 0.3663 0.73276 0.93542 0.0
C176 C 0.32325 0.73524 0.96293 0.0
C177 C 0.33124 0.71392 0.0073 0.0
C178 C 0.2788 0.72377 0.03012 0.0
C179 C 0.26005 0.64293 0.04819 0.0
C180 C 0.28694 0.78773 0.06728 0.0
C181 C 0.23939 0.7525 0.99141 0.0
C182 C 0.26579 0.75811 0.95285 0.0
C183 C 0.23867 0.78662 0.91317 0.0
C184 C 0.18404 0.81406 0.91353 0.0
C185 C 0.15735 0.81247 0.95318 0.0
C186 C 0.18486 0.77972 0.99227 0.0
H187 H 0.73548 0.39587 0.06246 0.0
H188 H 0.60923 0.23603 -0.00155 0.0
H189 H 0.68207 0.14036 0.98187 0.0
H190 H 0.83161 0.37291 0.98775 0.0
H191 H 0.8927 0.37223 0.02713 0.0
H192 H 0.83119 0.42367 0.04068 0.0
H193 H 0.82939 0.33956 0.11248 0.0
H194 H 0.8918 0.2889 0.09984 0.0
H195 H 0.83091 0.23126 0.10908 0.0
H196 H 0.76608 0.07792 0.95934 0.0
H197 H 0.85791 0.03362 0.94361 0.0
H198 H 0.93383 0.22641 0.02668 0.0
C199 C 0.723 0.3398 0.04596 0.0
C200 C 0.66659 0.32358 0.0315 0.0
C201 C 0.65202 0.24972 0.00991 0.0
C202 C 0.69314 0.19512 0.00023 0.0
C203 C 0.74839 0.21485 0.01305 0.0
C204 C 0.76352 0.28416 0.03649 0.0
C205 C 0.82629 0.29209 0.04444 0.0
C206 C 0.84662 0.36983 0.02376 0.0
C207 C 0.84574 0.28766 0.09444 0.0
C208 C 0.84403 0.21813 0.01988 0.0
C209 C 0.79805 0.17506 0.00209 0.0
C210 C 0.80247 0.1093 0.97434 0.0
C211 C 0.85525 0.08507 0.96544 0.0
C212 C 0.90362 0.12541 0.98471 0.0
C213 C 0.89786 0.19332 0.01225 0.0
H214 H 0.15262 0.20652 0.52278 0.0
H215 H 0.15237 0.14193 0.38351 0.0
H216 H 0.24845 0.19452 0.38371 0.0
H217 H 0.23345 0.39347 0.5164 0.0
H218 H 0.26848 0.37936 0.5714 0.0
H219 H 0.19898 0.34172 0.55826 0.0
H220 H 0.23258 0.19924 0.58326 0.0
H221 H 0.30254 0.2355 0.59533 0.0
H222 H 0.28834 0.15259 0.5571 0.0
H223 H 0.3479 0.24349 0.40214 0.0
H224 H 0.43615 0.307 0.43316 0.0
H225 H 0.36867 0.34041 0.55984 0.0
C226 C 0.17226 0.20627 0.49199 0.0
C227 C 0.14537 0.17223 0.45287 0.0
C228 C 0.17225 0.17029 0.41336 0.0
C229 C 0.22691 0.1988 0.41342 0.0
C230 C 0.25327 0.22947 0.45319 0.0
C231 C 0.22619 0.23528 0.49138 0.0
C232 C 0.26322 0.27062 0.52978 0.0
C233 C 0.23965 0.35106 0.54487 0.0
C234 C 0.27218 0.21089 0.56865 0.0
C235 C 0.31582 0.28276 0.50759 0.0
C236 C 0.30966 0.25791 0.46356 0.0
C237 C 0.35308 0.26333 0.43653 0.0
C238 C 0.40326 0.2982 0.45456 0.0
C239 C 0.40928 0.32679 0.49904 0.0
C240 C 0.36529 0.31773 0.52592 0.0
H241 H 0.92 0.76879 0.5262 0.0
H242 H 0.87192 0.8699 0.39585 0.0
H243 H 0.7787 0.81119 0.39618 0.0
H244 H 0.83175 0.57806 0.50553 0.0
H245 H 0.81539 0.57594 0.56256 0.0
H246 H 0.88139 0.61456 0.5494 0.0
H247 H 0.86265 0.7477 0.58985 0.0
H248 H 0.79592 0.71149 0.60242 0.0
H249 H 0.80091 0.80448 0.57252 0.0
H250 H 0.68729 0.76806 0.4166 0.0
H251 H 0.60582 0.71061 0.44806 0.0
H252 H 0.71201 0.62825 0.56331 0.0
C253 C 0.89066 0.77462 0.49689 0.0
C254 C 0.90288 0.82313 0.46083 0.0
C255 C 0.86312 0.83214 0.42354 0.0
C256 C 0.81 0.79963 0.42355 0.0
C257 C 0.79766 0.75687 0.46079 0.0
C258 C 0.83718 0.74131 0.49608 0.0
C259 C 0.81162 0.69595 0.53258 0.0
C260 C 0.83648 0.61106 0.53784 0.0
C261 C 0.81818 0.74274 0.57695 0.0
C262 C 0.75141 0.69277 0.51319 0.0
C263 C 0.74441 0.72864 0.47185 0.0
C264 C 0.69226 0.73802 0.44851 0.0
C265 C 0.6461 0.70643 0.46698 0.0
C266 C 0.65262 0.66526 0.50812 0.0
C267 C 0.70589 0.65947 0.53176 0.0
H268 H 0.41374 0.02697 0.93897 0.0
H269 H 0.4181 0.07185 0.0812 0.0
H270 H 0.51553 0.02659 0.09113 0.0
H271 H 0.49929 0.84751 0.94674 0.0
H272 H 0.53412 0.87133 0.8983 0.0
H273 H 0.46437 0.90632 0.90241 0.0
H274 H 0.49654 0.05328 0.8908 0.0
H275 H 0.56624 0.01834 0.8867 0.0
H276 H 0.55324 0.09424 0.92728 0.0
H277 H 0.61202 0.97202 0.08616 0.0
H278 H 0.70167 0.92115 0.06643 0.0
H279 H 0.63767 0.91864 0.92656 0.0
C280 C 0.43506 0.02693 0.97226 0.0
C281 C 0.40786 0.0534 0.00931 0.0
C282 C 0.43785 0.05307 0.05217 0.0
C283 C 0.49325 0.02683 0.05821 0.0
C284 C 0.51867 0.00116 0.02109 0.0
C285 C 0.49073 0.0015 0.97888 0.0
C286 C 0.52824 0.97235 0.94452 0.0
C287 C 0.50511 0.89479 0.92163 0.0
C288 C 0.53655 0.0385 0.91031 0.0
C289 C 0.58165 0.95594 0.97397 0.0
C290 C 0.57495 0.9722 0.01806 0.0
C291 C 0.61788 0.96013 0.05162 0.0
C292 C 0.66914 0.93171 0.03987 0.0
C293 C 0.67806 0.91655 0.99468 0.0
C294 C 0.63297 0.9286 0.96147 0.0
H295 H 0.39767 0.01003 0.44611 0.0
H296 H 0.40597 0.9301 0.58338 0.0
H297 H 0.50479 0.96983 0.59434 0.0
H298 H 0.53267 0.93993 0.42533 0.0
H299 H 0.54718 0.02362 0.39046 0.0
H300 H 0.47658 0.99196 0.39385 0.0
H301 H 0.45038 0.13647 0.41828 0.0
H302 H 0.52087 0.16775 0.41367 0.0
H303 H 0.49054 0.18267 0.46527 0.0
H304 H 0.603 0.01969 0.59052 0.0
H305 H 0.69384 0.0684 0.57123 0.0
H306 H 0.62298 0.11093 0.43545 0.0
C307 C 0.42012 0.00161 0.47862 0.0
C308 C 0.39382 0.96703 0.51396 0.0
C309 C 0.42513 0.95582 0.55572 0.0
C310 C 0.48127 0.97867 0.56233 0.0
C311 C 0.50589 0.01231 0.52681 0.0
C312 C 0.47641 0.02331 0.48568 0.0
C313 C 0.5133 0.05806 0.45257 0.0
C314 C 0.51769 -9e-05 0.41323 0.0
C315 C 0.49247 0.14117 0.43645 0.0
C316 C 0.56806 0.06499 0.48146 0.0
C317 C 0.56277 0.03883 0.52426 0.0
C318 C 0.6076 0.03984 0.557 0.0
C319 C 0.65924 0.06734 0.54561 0.0
C320 C 0.66614 0.09316 0.50167 0.0
C321 C 0.61939 0.09252 0.46944 0.0
H322 H 0.9554 0.63039 0.03503 0.0
H323 H 0.87751 0.47039 0.93298 0.0
H324 H 0.96761 0.40454 0.92679 0.0
H325 H 0.08699 0.652 0.98876 0.0
H326 H 0.12499 0.65326 0.04324 0.0
H327 H 0.05475 0.68913 0.03625 0.0
H328 H 1.03112 0.58836 0.09747 0.0
H329 H 0.10125 0.55113 0.10268 0.0
H330 H 0.04408 0.48255 0.09009 0.0
H331 H 0.06655 0.35287 0.93355 0.0
H332 H 0.166 0.3221 0.95165 0.0
H333 H 0.17786 0.51319 0.05078 0.0
C334 C 0.95698 0.58131 0.01146 0.0
C335 C 0.90893 0.55591 0.98453 0.0
C336 C 0.91362 0.49228 0.95353 0.0
C337 C 0.96464 0.45383 0.95002 0.0
C338 C 1.01083 0.47966 0.97762 0.0
C339 C 1.00743 0.54205 0.00766 0.0
C340 C 0.06293 0.55782 0.03391 0.0
C341 C 0.0836 0.64311 0.02493 0.0
C342 C 0.05962 0.54412 0.084 0.0
C343 C 0.0982 0.4942 0.01417 0.0
C344 C 0.06745 0.44985 0.98164 0.0
C345 C 0.09109 0.38762 0.95878 0.0
C346 C 0.14772 0.37078 0.96918 0.0
C347 C 0.1802 0.41566 0.00235 0.0
C348 C 0.15455 0.47771 0.02524 0.0
H349 H 0.13808 0.57066 0.56203 0.0
H350 H 0.16805 0.51293 0.42589 0.0
H351 H 0.07419 0.45445 0.41278 0.0
H352 H 0.06046 0.38992 0.58122 0.0
H353 H 1.01282 0.44037 0.61431 0.0
H354 H 0.0824 0.47829 0.61317 0.0
H355 H 0.04377 0.61827 0.58749 0.0
H356 H 0.97449 0.58044 0.58992 0.0
H357 H 0.99391 0.62434 0.53912 0.0
H358 H 0.97608 0.40465 0.41374 0.0
H359 H 0.88115 0.36614 0.4292 0.0
H360 H 0.91535 0.45193 0.56519 0.0
C361 C 0.12506 0.54534 0.52952 0.0
C362 C 0.16051 0.54731 0.49486 0.0
C363 C 0.14146 0.51386 0.45273 0.0
C364 C 0.08829 0.47984 0.44504 0.0
C365 C 0.05439 0.47933 0.4798 0.0
C366 C 0.072 0.51107 0.52124 0.0
C367 C 1.0272 0.50322 0.55281 0.0
C368 C 0.04691 0.44975 0.59274 0.0
C369 C 1.00875 0.58652 0.56821 0.0
C370 C 0.98163 0.46237 0.52261 0.0
C371 C 0.99817 0.44927 0.4806 0.0
C372 C 0.96276 0.41439 0.44656 0.0
C373 C 0.9089 0.39294 0.45558 0.0
C374 C 0.89099 0.40578 0.49837 0.0
C375 C 0.92818 0.44034 0.53235 0.0
H376 H 0.05652 0.07433 0.31037 0.0
H377 H 0.9834 0.84323 0.33634 0.0
H378 H 0.97934 0.80884 0.25605 0.0
H379 H 0.98196 0.11228 0.20404 0.0
H380 H 0.04063 0.15515 0.18014 0.0
H381 H 0.0361 0.16217 0.23929 0.0
H382 H 0.13242 0.0942 0.25399 0.0
H383 H 0.13719 0.08686 0.19485 0.0
H384 H 0.14408 -0.00216 0.22885 0.0
H385 H 0.97729 0.80438 0.17237 0.0
H386 H 0.98675 0.82392 0.09197 0.0
H387 H 0.07091 0.05082 0.12196 0.0
C388 C 0.03949 0.01672 0.29891 0.0
C389 C 1.0197 0.96154 0.32901 0.0
C390 C 0.99865 0.88606 0.31344 0.0
C391 C 0.99609 0.8662 0.26803 0.0
C392 C 1.01599 0.92186 0.23903 0.0
C393 C 0.03814 0.99502 0.25392 0.0
C394 C 0.05882 0.04258 0.21615 0.0
C395 C 1.02749 0.12278 0.20953 0.0
C396 C 0.12188 0.05614 0.22394 0.0
C397 C 0.04402 0.98536 0.17759 0.0
C398 C 1.01867 0.91652 0.19138 0.0
C399 C 0.99796 0.8573 0.16127 0.0
C400 C 1.00339 0.86883 0.11584 0.0
C401 C 1.03042 0.93794 0.10139 0.0
C402 C 0.05131 -0.00346 0.1326 0.0
H403 H 1.03441 0.89821 0.81095 0.0
H404 H 0.03705 0.15401 0.84162 0.0
H405 H 1.03169 0.18481 0.76162 0.0
H406 H 0.11993 0.91162 0.71936 0.0
H407 H 0.08219 0.83481 0.68658 0.0
H408 H 0.08554 0.83212 0.74651 0.0
H409 H 0.97811 0.82985 0.74189 0.0
H410 H 0.97447 0.83283 0.68195 0.0
H411 H 0.93908 0.90804 0.71179 0.0
H412 H 1.023 0.18905 0.67904 0.0
H413 H 1.0179 0.16624 0.59796 0.0
H414 H 1.0247 0.90806 0.61976 0.0
C415 C 1.03378 0.96064 0.80079 0.0
C416 C 0.03595 0.02366 0.83257 0.0
C417 C 0.03558 0.10462 0.81797 0.0
C418 C 1.03235 0.12286 0.77256 0.0
C419 C 1.03002 0.05954 0.74212 0.0
C420 C 1.03121 0.98007 0.75546 0.0
C421 C 1.02939 0.92371 0.71564 0.0
C422 C 0.08243 0.87257 0.71712 0.0
C423 C 0.97715 0.87048 0.71265 0.0
C424 C 1.0267 0.98412 0.67797 0.0
C425 C 1.02668 0.06205 0.6941 0.0
C426 C 1.02325 0.12834 0.66593 0.0
C427 C 1.02015 0.1147 0.61991 0.0
C428 C 1.02106 0.03541 0.60256 0.0
C429 C 1.02434 0.96936 0.63208 0.0
H430 H 0.56591 0.40492 0.37006 0.0
H431 H 0.51448 0.64845 0.397 0.0
H432 H 0.52195 0.68483 0.31828 0.0
H433 H 0.662 0.45172 0.28804 0.0
H434 H 0.64143 0.36673 0.25285 0.0
H435 H 0.63657 0.36142 0.31203 0.0
H436 H 0.53228 0.32491 0.29757 0.0
H437 H 0.53687 0.32984 0.23839 0.0
H438 H 0.48643 0.39016 0.26354 0.0
H439 H 0.53536 0.6948 0.23703 0.0
H440 H 0.54357 0.67444 0.1567 0.0
H441 H 0.57848 0.42141 0.1806 0.0
C442 C 0.55676 0.46592 0.35921 0.0
C443 C 0.54009 0.52436 0.38923 0.0
C444 C 0.52736 0.60321 0.37416 0.0
C445 C 0.53175 0.6244 0.3297 0.0
C446 C 0.54799 0.56549 0.30062 0.0
C447 C 0.55952 0.48754 0.31453 0.0
C448 C 0.57198 0.43445 0.27569 0.0
C449 C 0.63154 0.40166 0.28258 0.0
C450 C 0.52934 0.3658 0.26837 0.0
C451 C 0.56554 0.49467 0.23787 0.0
C452 C 0.55269 0.5702 0.25316 0.0
C453 C 0.54525 0.63588 0.22461 0.0
C454 C 0.55021 0.62382 0.17908 0.0
C455 C 0.56147 0.54639 0.16242 0.0
C456 C 0.56957 0.48123 0.19237 0.0
H457 H 0.60062 0.44211 0.6837 0.0
H458 H 0.43906 0.54827 0.6478 0.0
H459 H 0.42087 0.54971 0.72701 0.0
H460 H 0.56321 0.31908 0.77679 0.0
H461 H 0.62713 0.33924 0.8109 0.0
H462 H 0.62582 0.33947 0.75102 0.0
H463 H 0.66637 0.48393 0.75408 0.0
H464 H 0.66775 0.48414 0.81391 0.0
H465 H 0.63136 0.56238 0.78185 0.0
H466 H 0.41984 0.54022 0.80931 0.0
H467 H 0.43913 0.53223 0.89099 0.0
H468 H 0.60472 0.44328 0.87577 0.0
C469 C 0.56122 0.46446 0.69271 0.0
C470 C 0.52084 0.49421 0.65988 0.0
C471 C 0.47028 0.52497 0.67265 0.0
C472 C 0.45955 0.52577 0.71746 0.0
C473 C 0.50025 0.49685 0.74922 0.0
C474 C 0.55037 0.46765 0.73765 0.0
C475 C 0.58842 0.44592 0.77894 0.0
C476 C 0.60193 0.35555 0.77943 0.0
C477 C 0.64162 0.49717 0.78239 0.0
C478 C 0.55188 0.46777 0.81535 0.0
C479 C 0.50086 0.49566 0.79728 0.0
C480 C 0.45965 0.51858 0.82389 0.0
C481 C 0.47094 0.51353 0.87026 0.0
C482 C 0.52339 0.48717 0.88971 0.0
C483 C 0.56435 0.46396 0.86179 0.0
loop_
_geom_bond_atom_site_label_1
_geom_bond_atom_site_label_2
_geom_bond_distance
_geom_bond_site_symmetry_2
_ccdc_geom_bond_type
Tb0 C10 2.825 . S
Tb0 O11 2.347 1_556 S
Tb0 O14 2.366 1_565 S
Tb0 O19 2.418 . S
Tb0 O20 2.384 1_655 S
Tb0 O23 2.479 . S
Tb0 O24 2.471 1_556 S
Eu1 O12 2.418 . S
Eu1 O13 2.384 1_455 S
Eu1 O16 2.479 . S
Eu1 O17 2.471 1_554 S
Eu1 O18 2.347 1_554 S
Eu1 O21 2.366 1_545 S
Eu1 C31 2.825 . S
C2 O18 1.259 1_665 S
C2 O19 1.265 . S
C3 O20 1.255 1_554 S
C3 O21 1.265 . S
C4 C6 1.367 1_554 S
C4 C7 1.391 . S
C4 C10 1.503 1_554 S
C5 C6 1.384 . S
C5 C9 1.387 1_556 S
C5 H32 0.930 . S
C6 C4 1.367 1_556 S
C6 C5 1.384 . S
C6 H33 0.931 . S
C7 C4 1.391 . S
C7 C8 1.390 . S
C7 H34 0.930 . S
C8 C7 1.390 . S
C8 C9 1.391 . S
C8 H35 0.930 . S
C9 C5 1.387 1_554 S
C9 C8 1.391 . S
C10 Tb0 2.825 . S
C10 C4 1.503 1_556 S
C10 O23 1.238 . S
C10 O24 1.247 1_556 S
O11 Tb0 2.347 1_554 S
O11 C15 1.259 1_665 S
O12 Eu1 2.418 . S
O12 C15 1.265 . S
O13 Eu1 2.384 1_655 S
O13 C22 1.255 1_554 S
O14 Tb0 2.366 1_545 S
O14 C22 1.265 . S
C15 O11 1.259 1_445 S
C15 O12 1.265 . S
O16 Eu1 2.479 . S
O16 C31 1.238 . S
O17 Eu1 2.471 1_556 S
O17 C31 1.247 1_556 S
O18 Eu1 2.347 1_556 S
O18 C2 1.259 1_445 S
O19 Tb0 2.418 . S
O19 C2 1.265 . S
O20 Tb0 2.384 1_455 S
O20 C3 1.255 1_556 S
O21 Eu1 2.366 1_565 S
O21 C3 1.265 . S
C22 O13 1.255 1_556 S
C22 O14 1.265 . S
O23 Tb0 2.479 . S
O23 C10 1.238 . S
O24 Tb0 2.471 1_554 S
O24 C10 1.247 1_554 S
C25 C28 1.371 1_556 S
C25 C29 1.386 . S
C25 C31 1.504 1_556 S
C26 C27 1.387 1_556 S
C26 C30 1.391 . S
C27 C26 1.387 1_554 S
C27 C28 1.384 . S
C27 H36 0.930 . S
C28 C25 1.371 1_554 S
C28 C27 1.384 . S
C28 H37 0.931 . S
C29 C25 1.386 . S
C29 C30 1.390 . S
C29 H38 0.930 . S
C30 C26 1.391 . S
C30 C29 1.390 . S
C30 H39 0.930 . S
C31 Eu1 2.825 . S
C31 O16 1.238 . S
C31 O17 1.247 1_554 S
C31 C25 1.504 1_554 S
H32 C5 0.930 . S
H33 C6 0.931 . S
H34 C7 0.930 . S
H35 C8 0.930 . S
H36 C27 0.930 . S
H37 C28 0.931 . S
H38 C29 0.930 . S
H39 C30 0.930 . S
Tb40 C50 2.825 . S
Tb40 O51 2.347 . S
Tb40 O54 2.366 1_565 S
Tb40 O59 2.418 . S
Tb40 O60 2.384 1_455 S
Tb40 O63 2.479 . S
Tb40 O64 2.471 . S
Eu41 O52 2.418 . S
Eu41 O53 2.384 1_655 S
Eu41 O56 2.479 . S
Eu41 O57 2.471 . S
Eu41 O58 2.347 . S
Eu41 O61 2.366 1_545 S
Eu41 C71 2.825 . S
C42 O58 1.259 1_465 S
C42 O59 1.265 . S
C43 O60 1.255 . S
C43 O61 1.265 . S
C44 C46 1.380 . S
C44 C47 1.374 . S
C44 C50 1.507 . S
C45 C46 1.384 . S
C45 C49 1.387 . S
C45 H72 0.930 . S
C46 C44 1.380 . S
C46 C45 1.384 . S
C46 H73 0.931 . S
C47 C44 1.374 . S
C47 C48 1.390 . S
C47 H74 0.930 . S
C48 C47 1.390 . S
C48 C49 1.391 . S
C48 H75 0.930 . S
C49 C45 1.387 . S
C49 C48 1.391 . S
C50 Tb40 2.825 . S
C50 C44 1.507 . S
C50 O63 1.238 . S
C50 O64 1.247 . S
O51 Tb40 2.347 . S
O51 C55 1.259 1_465 S
O52 Eu41 2.418 . S
O52 C55 1.265 . S
O53 Eu41 2.384 1_455 S
O53 C62 1.255 . S
O54 Tb40 2.366 1_545 S
O54 C62 1.265 . S
C55 O51 1.259 1_645 S
C55 O52 1.265 . S
O56 Eu41 2.479 . S
O56 C71 1.238 . S
O57 Eu41 2.471 . S
O57 C71 1.247 . S
O58 Eu41 2.347 . S
O58 C42 1.259 1_645 S
O59 Tb40 2.418 . S
O59 C42 1.265 . S
O60 Tb40 2.384 1_655 S
O60 C43 1.255 . S
O61 Eu41 2.366 1_565 S
O61 C43 1.265 . S
C62 O53 1.255 . S
C62 O54 1.265 . S
O63 Tb40 2.479 . S
O63 C50 1.238 . S
O64 Tb40 2.471 . S
O64 C50 1.247 . S
C65 C68 1.380 . S
C65 C69 1.374 . S
C65 C71 1.507 . S
C66 C67 1.387 . S
C66 C70 1.391 . S
C67 C66 1.387 . S
C67 C68 1.384 . S
C67 H76 0.930 . S
C68 C65 1.380 . S
C68 C67 1.384 . S
C68 H77 0.931 . S
C69 C65 1.374 . S
C69 C70 1.390 . S
C69 H78 0.930 . S
C70 C66 1.391 . S
C70 C69 1.390 . S
C70 H79 0.930 . S
C71 Eu41 2.825 . S
C71 O56 1.238 . S
C71 O57 1.247 . S
C71 C65 1.507 . S
H72 C45 0.930 . S
H73 C46 0.931 . S
H74 C47 0.930 . S
H75 C48 0.930 . S
H76 C67 0.930 . S
H77 C68 0.931 . S
H78 C69 0.930 . S
H79 C70 0.930 . S
Tb80 C90 2.825 . S
Tb80 O91 2.347 1_556 S
Tb80 O94 2.366 . S
Tb80 O99 2.418 . S
Tb80 O100 2.384 . S
Tb80 O103 2.479 . S
Tb80 O104 2.471 1_556 S
Eu81 O92 2.418 . S
Eu81 O93 2.384 . S
Eu81 O96 2.479 . S
Eu81 O97 2.471 1_554 S
Eu81 O98 2.347 1_554 S
Eu81 O101 2.366 . S
Eu81 C111 2.825 . S
C82 O98 1.259 . S
C82 O99 1.265 . S
C83 O100 1.255 1_554 S
C83 O101 1.265 . S
C84 C86 1.367 1_554 S
C84 C87 1.391 . S
C84 C90 1.503 1_554 S
C85 C86 1.384 . S
C85 C89 1.387 1_556 S
C85 H112 0.930 . S
C86 C84 1.367 1_556 S
C86 C85 1.384 . S
C86 H113 0.931 . S
C87 C84 1.391 . S
C87 C88 1.390 . S
C87 H114 0.930 . S
C88 C87 1.390 . S
C88 C89 1.391 . S
C88 H115 0.930 . S
C89 C85 1.387 1_554 S
C89 C88 1.391 . S
C90 Tb80 2.825 . S
C90 C84 1.503 1_556 S
C90 O103 1.238 . S
C90 O104 1.247 1_556 S
O91 Tb80 2.347 1_554 S
O91 C95 1.259 . S
O92 Eu81 2.418 . S
O92 C95 1.265 . S
O93 Eu81 2.384 . S
O93 C102 1.255 1_554 S
O94 Tb80 2.366 . S
O94 C102 1.265 . S
C95 O91 1.259 . S
C95 O92 1.265 . S
O96 Eu81 2.479 . S
O96 C111 1.238 . S
O97 Eu81 2.471 1_556 S
O97 C111 1.247 1_556 S
O98 Eu81 2.347 1_556 S
O98 C82 1.259 . S
O99 Tb80 2.418 . S
O99 C82 1.265 . S
O100 Tb80 2.384 . S
O100 C83 1.255 1_556 S
O101 Eu81 2.366 . S
O101 C83 1.265 . S
C102 O93 1.255 1_556 S
C102 O94 1.265 . S
O103 Tb80 2.479 . S
O103 C90 1.238 . S
O104 Tb80 2.471 1_554 S
O104 C90 1.247 1_554 S
C105 C108 1.371 1_556 S
C105 C109 1.386 . S
C105 C111 1.504 1_556 S
C106 C107 1.387 1_556 S
C106 C110 1.391 . S
C107 C106 1.387 1_554 S
C107 C108 1.384 . S
C107 H116 0.930 . S
C108 C105 1.371 1_554 S
C108 C107 1.384 . S
C108 H117 0.931 . S
C109 C105 1.386 . S
C109 C110 1.390 . S
C109 H118 0.930 . S
C110 C106 1.391 . S
C110 C109 1.390 . S
C110 H119 0.930 . S
C111 Eu81 2.825 . S
C111 O96 1.238 . S
C111 O97 1.247 1_554 S
C111 C105 1.504 1_554 S
H112 C85 0.930 . S
H113 C86 0.931 . S
H114 C87 0.930 . S
H115 C88 0.930 . S
H116 C107 0.930 . S
H117 C108 0.931 . S
H118 C109 0.930 . S
H119 C110 0.930 . S
Tb120 C130 2.825 . S
Tb120 O131 2.347 . S
Tb120 O134 2.366 . S
Tb120 O139 2.418 . S
Tb120 O140 2.384 . S
Tb120 O143 2.479 . S
Tb120 O144 2.471 . S
Eu121 O132 2.418 . S
Eu121 O133 2.384 . S
Eu121 O136 2.479 . S
Eu121 O137 2.471 . S
Eu121 O138 2.347 . S
Eu121 O141 2.366 . S
Eu121 C151 2.825 . S
C122 O138 1.259 . S
C122 O139 1.265 . S
C123 O140 1.255 . S
C123 O141 1.265 . S
C124 C126 1.380 . S
C124 C127 1.374 . S
C124 C130 1.507 . S
C125 C126 1.384 . S
C125 C129 1.387 . S
C125 H152 0.930 . S
C126 C124 1.380 . S
C126 C125 1.384 . S
C126 H153 0.931 . S
C127 C124 1.374 . S
C127 C128 1.390 . S
C127 H154 0.930 . S
C128 C127 1.390 . S
C128 C129 1.391 . S
C128 H155 0.930 . S
C129 C125 1.387 . S
C129 C128 1.391 . S
C130 Tb120 2.825 . S
C130 C124 1.507 . S
C130 O143 1.238 . S
C130 O144 1.247 . S
O131 Tb120 2.347 . S
O131 C135 1.259 . S
O132 Eu121 2.418 . S
O132 C135 1.265 . S
O133 Eu121 2.384 . S
O133 C142 1.255 . S
O134 Tb120 2.366 . S
O134 C142 1.265 . S
C135 O131 1.259 . S
C135 O132 1.265 . S
O136 Eu121 2.479 . S
O136 C151 1.238 . S
O137 Eu121 2.471 . S
O137 C151 1.247 . S
O138 Eu121 2.347 . S
O138 C122 1.259 . S
O139 Tb120 2.418 . S
O139 C122 1.265 . S
O140 Tb120 2.384 . S
O140 C123 1.255 . S
O141 Eu121 2.366 . S
O141 C123 1.265 . S
C142 O133 1.255 . S
C142 O134 1.265 . S
O143 Tb120 2.479 . S
O143 C130 1.238 . S
O144 Tb120 2.471 . S
O144 C130 1.247 . S
C145 C148 1.380 . S
C145 C149 1.374 . S
C145 C151 1.507 . S
C146 C147 1.387 . S
C146 C150 1.391 . S
C147 C146 1.387 . S
C147 C148 1.384 . S
C147 H156 0.930 . S
C148 C145 1.380 . S
C148 C147 1.384 . S
C148 H157 0.931 . S
C149 C145 1.374 . S
C149 C150 1.390 . S
C149 H158 0.930 . S
C150 C146 1.391 . S
C150 C149 1.390 . S
C150 H159 0.930 . S
C151 Eu121 2.825 . S
C151 O136 1.238 . S
C151 O137 1.247 . S
C151 C145 1.507 . S
H152 C125 0.930 . S
H153 C126 0.931 . S
H154 C127 0.930 . S
H155 C128 0.930 . S
H156 C147 0.930 . S
H157 C148 0.931 . S
H158 C149 0.930 . S
H159 C150 0.930 . S
H160 C172 0.930 . S
H161 C174 0.930 . S
H162 C175 0.930 . S
H163 C179 0.959 . S
H164 C179 0.959 . S
H165 C179 0.961 . S
H166 C180 0.960 . S
H167 C180 0.961 . S
H168 C180 0.959 . S
H169 C183 0.929 . S
H170 C184 0.931 . S
H171 C186 0.930 . S
C172 H160 0.930 . S
C172 C173 1.399 1_554 S
C172 C177 1.399 . S
C173 C172 1.399 1_556 S
C173 C174 1.376 . S
C174 H161 0.930 . S
C174 C173 1.376 . S
C174 C175 1.388 . S
C175 H162 0.930 . S
C175 C174 1.388 . S
C175 C176 1.390 . S
C176 C175 1.390 . S
C176 C177 1.394 1_556 S
C176 C182 1.465 . S
C177 C172 1.399 . S
C177 C176 1.394 1_554 S
C177 C178 1.516 . S
C178 C177 1.516 . S
C178 C179 1.502 . S
C178 C180 1.561 . S
C178 C181 1.526 . S
C179 H163 0.959 . S
C179 H164 0.959 . S
C179 H165 0.961 . S
C179 C178 1.502 . S
C180 H166 0.960 . S
C180 H167 0.961 . S
C180 H168 0.959 . S
C180 C178 1.561 . S
C181 C178 1.526 . S
C181 C182 1.396 1_554 S
C181 C186 1.390 . S
C182 C176 1.465 . S
C182 C181 1.396 1_556 S
C182 C183 1.399 . S
C183 H169 0.929 . S
C183 C182 1.399 . S
C183 C184 1.385 . S
C184 H170 0.931 . S
C184 C183 1.385 . S
C184 C185 1.389 1_556 S
C185 C184 1.389 1_554 S
C185 C186 1.387 . S
C186 H171 0.930 . S
C186 C181 1.390 . S
C186 C185 1.387 . S
H187 C199 0.930 . S
H188 C201 0.930 . S
H189 C202 0.930 . S
H190 C206 0.959 . S
H191 C206 0.959 . S
H192 C206 0.961 . S
H193 C207 0.960 . S
H194 C207 0.961 . S
H195 C207 0.959 . S
H196 C210 0.929 . S
H197 C211 0.931 . S
H198 C213 0.930 . S
C199 H187 0.930 . S
C199 C200 1.399 . S
C199 C204 1.399 . S
C200 C199 1.399 . S
C200 C201 1.376 1_554 S
C201 H188 0.930 . S
C201 C200 1.376 1_556 S
C201 C202 1.388 . S
C202 H189 0.930 . S
C202 C201 1.388 . S
C202 C203 1.390 . S
C203 C202 1.390 . S
C203 C204 1.394 1_556 S
C203 C209 1.465 . S
C204 C199 1.399 . S
C204 C203 1.394 1_554 S
C204 C205 1.516 . S
C205 C204 1.516 . S
C205 C206 1.502 . S
C205 C207 1.561 . S
C205 C208 1.526 . S
C206 H190 0.959 . S
C206 H191 0.959 . S
C206 H192 0.961 . S
C206 C205 1.502 . S
C207 H193 0.960 . S
C207 H194 0.961 . S
C207 H195 0.959 . S
C207 C205 1.561 . S
C208 C205 1.526 . S
C208 C209 1.396 1_554 S
C208 C213 1.390 . S
C209 C203 1.465 . S
C209 C208 1.396 1_556 S
C209 C210 1.399 . S
C210 H196 0.929 . S
C210 C209 1.399 . S
C210 C211 1.385 . S
C211 H197 0.931 . S
C211 C210 1.385 . S
C211 C212 1.389 . S
C212 C211 1.389 . S
C212 C213 1.387 1_556 S
C213 H198 0.930 . S
C213 C208 1.390 . S
C213 C212 1.387 1_554 S
H214 C226 0.930 . S
H215 C228 0.930 . S
H216 C229 0.930 . S
H217 C233 0.959 . S
H218 C233 0.959 . S
H219 C233 0.961 . S
H220 C234 0.960 . S
H221 C234 0.961 . S
H222 C234 0.959 . S
H223 C237 0.929 . S
H224 C238 0.931 . S
H225 C240 0.930 . S
C226 H214 0.930 . S
C226 C227 1.399 . S
C226 C231 1.399 . S
C227 C226 1.399 . S
C227 C228 1.376 . S
C228 H215 0.930 . S
C228 C227 1.376 . S
C228 C229 1.388 . S
C229 H216 0.930 . S
C229 C228 1.388 . S
C229 C230 1.390 . S
C230 C229 1.390 . S
C230 C231 1.394 . S
C230 C236 1.465 . S
C231 C226 1.399 . S
C231 C230 1.394 . S
C231 C232 1.516 . S
C232 C231 1.516 . S
C232 C233 1.502 . S
C232 C234 1.561 . S
C232 C235 1.526 . S
C233 H217 0.959 . S
C233 H218 0.959 . S
C233 H219 0.961 . S
C233 C232 1.502 . S
C234 H220 0.960 . S
C234 H221 0.961 . S
C234 H222 0.959 . S
C234 C232 1.561 . S
C235 C232 1.526 . S
C235 C236 1.396 . S
C235 C240 1.390 . S
C236 C230 1.465 . S
C236 C235 1.396 . S
C236 C237 1.399 . S
C237 H223 0.929 . S
C237 C236 1.399 . S
C237 C238 1.385 . S
C238 H224 0.931 . S
C238 C237 1.385 . S
C238 C239 1.389 . S
C239 C238 1.389 . S
C239 C240 1.387 . S
C240 H225 0.930 . S
C240 C235 1.390 . S
C240 C239 1.387 . S
H241 C253 0.930 . S
H242 C255 0.930 . S
H243 C256 0.930 . S
H244 C260 0.959 . S
H245 C260 0.959 . S
H246 C260 0.961 . S
H247 C261 0.960 . S
H248 C261 0.961 . S
H249 C261 0.959 . S
H250 C264 0.929 . S
H251 C265 0.931 . S
H252 C267 0.930 . S
C253 H241 0.930 . S
C253 C254 1.399 . S
C253 C258 1.399 . S
C254 C253 1.399 . S
C254 C255 1.376 . S
C255 H242 0.930 . S
C255 C254 1.376 . S
C255 C256 1.388 . S
C256 H243 0.930 . S
C256 C255 1.388 . S
C256 C257 1.390 . S
C257 C256 1.390 . S
C257 C258 1.394 . S
C257 C263 1.465 . S
C258 C253 1.399 . S
C258 C257 1.394 . S
C258 C259 1.516 . S
C259 C258 1.516 . S
C259 C260 1.502 . S
C259 C261 1.561 . S
C259 C262 1.526 . S
C260 H244 0.959 . S
C260 H245 0.959 . S
C260 H246 0.961 . S
C260 C259 1.502 . S
C261 H247 0.960 . S
C261 H248 0.961 . S
C261 H249 0.959 . S
C261 C259 1.561 . S
C262 C259 1.526 . S
C262 C263 1.396 . S
C262 C267 1.390 . S
C263 C257 1.465 . S
C263 C262 1.396 . S
C263 C264 1.399 . S
C264 H250 0.929 . S
C264 C263 1.399 . S
C264 C265 1.385 . S
C265 H251 0.931 . S
C265 C264 1.385 . S
C265 C266 1.389 . S
C266 C265 1.389 . S
C266 C267 1.387 . S
C267 H252 0.930 . S
C267 C262 1.390 . S
C267 C266 1.387 . S
H268 C280 0.930 . S
H269 C282 0.930 . S
H270 C283 0.930 . S
H271 C287 0.959 . S
H272 C287 0.959 . S
H273 C287 0.961 . S
H274 C288 0.960 . S
H275 C288 0.961 . S
H276 C288 0.959 . S
H277 C291 0.929 . S
H278 C292 0.931 . S
H279 C294 0.930 . S
C280 H268 0.930 . S
C280 C281 1.399 . S
C280 C285 1.399 . S
C281 C280 1.399 . S
C281 C282 1.376 1_556 S
C282 H269 0.930 . S
C282 C281 1.376 1_554 S
C282 C283 1.388 . S
C283 H270 0.930 . S
C283 C282 1.388 . S
C283 C284 1.390 . S
C284 C283 1.390 . S
C284 C285 1.394 1_554 S
C284 C290 1.465 1_545 S
C285 C280 1.399 . S
C285 C284 1.394 1_556 S
C285 C286 1.516 1_545 S
C286 C285 1.516 1_565 S
C286 C287 1.502 . S
C286 C288 1.561 1_565 S
C286 C289 1.526 . S
C287 H271 0.959 . S
C287 H272 0.959 . S
C287 H273 0.961 . S
C287 C286 1.502 . S
C288 H274 0.960 . S
C288 H275 0.961 . S
C288 H276 0.959 . S
C288 C286 1.561 1_545 S
C289 C286 1.526 . S
C289 C290 1.396 1_556 S
C289 C294 1.390 . S
C290 C284 1.465 1_565 S
C290 C289 1.396 1_554 S
C290 C291 1.399 . S
C291 H277 0.929 . S
C291 C290 1.399 . S
C291 C292 1.385 . S
C292 H278 0.931 . S
C292 C291 1.385 . S
C292 C293 1.389 . S
C293 C292 1.389 . S
C293 C294 1.387 1_554 S
C294 H279 0.930 . S
C294 C289 1.390 . S
C294 C293 1.387 1_556 S
H295 C307 0.930 . S
H296 C309 0.930 . S
H297 C310 0.930 1_545 S
H298 C314 0.959 . S
H299 C314 0.959 . S
H300 C314 0.961 . S
H301 C315 0.960 . S
H302 C315 0.961 . S
H303 C315 0.959 . S
H304 C318 0.929 . S
H305 C319 0.931 . S
H306 C321 0.930 . S
C307 H295 0.930 . S
C307 C308 1.399 . S
C307 C312 1.399 . S
C308 C307 1.399 . S
C308 C309 1.376 . S
C309 H296 0.930 . S
C309 C308 1.376 . S
C309 C310 1.388 . S
C310 H297 0.930 1_565 S
C310 C309 1.388 . S
C310 C311 1.390 . S
C311 C310 1.390 . S
C311 C312 1.394 . S
C311 C317 1.465 1_565 S
C312 C307 1.399 . S
C312 C311 1.394 . S
C312 C313 1.516 . S
C313 C312 1.516 . S
C313 C314 1.502 . S
C313 C315 1.561 1_565 S
C313 C316 1.526 1_565 S
C314 H298 0.959 . S
C314 H299 0.959 . S
C314 H300 0.961 . S
C314 C313 1.502 . S
C315 H301 0.960 . S
C315 H302 0.961 . S
C315 H303 0.959 . S
C315 C313 1.561 1_545 S
C316 C313 1.526 1_545 S
C316 C317 1.396 . S
C316 C321 1.390 . S
C317 C311 1.465 1_545 S
C317 C316 1.396 . S
C317 C318 1.399 . S
C318 H304 0.929 . S
C318 C317 1.399 . S
C318 C319 1.385 . S
C319 H305 0.931 . S
C319 C318 1.385 . S
C319 C320 1.389 . S
C320 C319 1.389 . S
C320 C321 1.387 . S
C321 H306 0.930 . S
C321 C316 1.390 . S
C321 C320 1.387 . S
H322 C334 0.930 . S
H323 C336 0.930 . S
H324 C337 0.930 . S
H325 C341 0.959 . S
H326 C341 0.959 . S
H327 C341 0.961 . S
H328 C342 0.960 1_655 S
H329 C342 0.961 . S
H330 C342 0.959 . S
H331 C345 0.929 . S
H332 C346 0.931 . S
H333 C348 0.930 . S
C334 H322 0.930 . S
C334 C335 1.399 1_554 S
C334 C339 1.399 . S
C335 C334 1.399 1_556 S
C335 C336 1.376 . S
C336 H323 0.930 . S
C336 C335 1.376 . S
C336 C337 1.388 . S
C337 H324 0.930 . S
C337 C336 1.388 . S
C337 C338 1.390 . S
C338 C337 1.390 . S
C338 C339 1.394 1_556 S
C338 C344 1.465 1_655 S
C339 C334 1.399 . S
C339 C338 1.394 1_554 S
C339 C340 1.516 1_655 S
C340 C339 1.516 1_455 S
C340 C341 1.502 . S
C340 C342 1.561 . S
C340 C343 1.526 . S
C341 H325 0.959 . S
C341 H326 0.959 . S
C341 H327 0.961 . S
C341 C340 1.502 . S
C342 H328 0.960 1_455 S
C342 H329 0.961 . S
C342 H330 0.959 . S
C342 C340 1.561 . S
C343 C340 1.526 . S
C343 C344 1.396 1_554 S
C343 C348 1.390 . S
C344 C338 1.465 1_455 S
C344 C343 1.396 1_556 S
C344 C345 1.399 . S
C345 H331 0.929 . S
C345 C344 1.399 . S
C345 C346 1.385 . S
C346 H332 0.931 . S
C346 C345 1.385 . S
C346 C347 1.389 1_556 S
C347 C346 1.389 1_554 S
C347 C348 1.387 . S
C348 H333 0.930 . S
C348 C343 1.390 . S
C348 C347 1.387 . S
H349 C361 0.930 . S
H350 C363 0.930 . S
H351 C364 0.930 . S
H352 C368 0.959 1_455 S
H353 C368 0.959 . S
H354 C368 0.961 1_455 S
H355 C369 0.960 . S
H356 C369 0.961 . S
H357 C369 0.959 . S
H358 C372 0.929 . S
H359 C373 0.931 . S
H360 C375 0.930 . S
C361 H349 0.930 . S
C361 C362 1.399 . S
C361 C366 1.399 . S
C362 C361 1.399 . S
C362 C363 1.376 . S
C363 H350 0.930 . S
C363 C362 1.376 . S
C363 C364 1.388 . S
C364 H351 0.930 . S
C364 C363 1.388 . S
C364 C365 1.390 . S
C365 C364 1.390 . S
C365 C366 1.394 . S
C365 C371 1.465 1_455 S
C366 C361 1.399 . S
C366 C365 1.394 . S
C366 C367 1.516 1_455 S
C367 C366 1.516 1_655 S
C367 C368 1.502 . S
C367 C369 1.561 . S
C367 C370 1.526 . S
C368 H352 0.959 1_655 S
C368 H353 0.959 . S
C368 H354 0.961 1_655 S
C368 C367 1.502 . S
C369 H355 0.960 . S
C369 H356 0.961 . S
C369 H357 0.959 . S
C369 C367 1.561 . S
C370 C367 1.526 . S
C370 C371 1.396 . S
C370 C375 1.390 . S
C371 C365 1.465 1_655 S
C371 C370 1.396 . S
C371 C372 1.399 . S
C372 H358 0.929 . S
C372 C371 1.399 . S
C372 C373 1.385 . S
C373 H359 0.931 . S
C373 C372 1.385 . S
C373 C374 1.389 . S
C374 C373 1.389 . S
C374 C375 1.387 . S
C375 H360 0.930 . S
C375 C370 1.390 . S
C375 C374 1.387 . S
H376 C388 0.930 . S
H377 C390 0.930 . S
H378 C391 0.930 . S
H379 C395 0.959 . S
H380 C395 0.959 . S
H381 C395 0.961 . S
H382 C396 0.960 . S
H383 C396 0.961 . S
H384 C396 0.959 . S
H385 C399 0.929 . S
H386 C400 0.931 . S
H387 C402 0.930 . S
C388 H376 0.930 . S
C388 C389 1.399 1_445 S
C388 C393 1.399 . S
C389 C388 1.399 1_665 S
C389 C390 1.377 . S
C390 H377 0.930 . S
C390 C389 1.377 . S
C390 C391 1.388 . S
C391 H378 0.930 . S
C391 C390 1.388 . S
C391 C392 1.388 1_655 S
C392 C391 1.388 1_455 S
C392 C393 1.395 1_565 S
C392 C398 1.466 . S
C393 C388 1.399 . S
C393 C392 1.395 1_545 S
C393 C394 1.516 . S
C394 C393 1.516 . S
C394 C395 1.502 1_455 S
C394 C396 1.561 . S
C394 C397 1.526 . S
C395 H379 0.959 . S
C395 H380 0.959 . S
C395 H381 0.961 . S
C395 C394 1.502 1_655 S
C396 H382 0.960 . S
C396 H383 0.961 . S
C396 H384 0.959 . S
C396 C394 1.561 . S
C397 C394 1.526 . S
C397 C398 1.397 1_545 S
C397 C402 1.390 . S
C398 C392 1.466 . S
C398 C397 1.397 1_565 S
C398 C399 1.399 1_455 S
C399 H385 0.929 . S
C399 C398 1.399 1_655 S
C399 C400 1.385 . S
C400 H386 0.931 . S
C400 C399 1.385 . S
C400 C401 1.389 1_655 S
C401 C400 1.389 1_455 S
C401 C402 1.387 1_565 S
C402 H387 0.930 . S
C402 C397 1.390 . S
C402 C401 1.387 1_545 S
H403 C415 0.930 . S
H404 C417 0.930 . S
H405 C418 0.930 . S
H406 C422 0.959 . S
H407 C422 0.959 . S
H408 C422 0.961 . S
H409 C423 0.960 . S
H410 C423 0.961 . S
H411 C423 0.959 . S
H412 C426 0.929 . S
H413 C427 0.931 . S
H414 C429 0.930 . S
C415 H403 0.930 . S
C415 C416 1.399 1_465 S
C415 C420 1.399 . S
C416 C415 1.399 1_645 S
C416 C417 1.376 . S
C417 H404 0.930 . S
C417 C416 1.376 . S
C417 C418 1.388 . S
C418 H405 0.930 . S
C418 C417 1.388 . S
C418 C419 1.390 . S
C419 C418 1.390 . S
C419 C420 1.394 1_645 S
C419 C425 1.465 . S
C420 C415 1.399 . S
C420 C419 1.394 1_465 S
C420 C421 1.516 . S
C421 C420 1.516 . S
C421 C422 1.502 . S
C421 C423 1.561 1_455 S
C421 C424 1.526 . S
C422 H406 0.959 . S
C422 H407 0.959 . S
C422 H408 0.961 . S
C422 C421 1.502 . S
C423 H409 0.960 . S
C423 H410 0.961 . S
C423 H411 0.959 . S
C423 C421 1.561 1_655 S
C424 C421 1.526 . S
C424 C425 1.396 1_465 S
C424 C429 1.390 . S
C425 C419 1.465 . S
C425 C424 1.396 1_645 S
C425 C426 1.399 . S
C426 H412 0.929 . S
C426 C425 1.399 . S
C426 C427 1.385 . S
C427 H413 0.931 . S
C427 C426 1.385 . S
C427 C428 1.390 . S
C428 C427 1.390 . S
C428 C429 1.387 1_645 S
C429 H414 0.930 . S
C429 C424 1.390 . S
C429 C428 1.387 1_465 S
H430 C442 0.930 . S
H431 C444 0.930 . S
H432 C445 0.930 . S
H433 C449 0.959 . S
H434 C449 0.959 . S
H435 C449 0.961 . S
H436 C450 0.960 . S
H437 C450 0.961 . S
H438 C450 0.959 . S
H439 C453 0.929 . S
H440 C454 0.931 . S
H441 C456 0.930 . S
C442 H430 0.930 . S
C442 C443 1.399 . S
C442 C447 1.399 . S
C443 C442 1.399 . S
C443 C444 1.376 . S
C444 H431 0.930 . S
C444 C443 1.376 . S
C444 C445 1.388 . S
C445 H432 0.930 . S
C445 C444 1.388 . S
C445 C446 1.390 . S
C446 C445 1.390 . S
C446 C447 1.394 . S
C446 C452 1.465 . S
C447 C442 1.399 . S
C447 C446 1.394 . S
C447 C448 1.516 . S
C448 C447 1.516 . S
C448 C449 1.502 . S
C448 C450 1.561 . S
C448 C451 1.526 . S
C449 H433 0.959 . S
C449 H434 0.959 . S
C449 H435 0.961 . S
C449 C448 1.502 . S
C450 H436 0.960 . S
C450 H437 0.961 . S
C450 H438 0.959 . S
C450 C448 1.561 . S
C451 C448 1.526 . S
C451 C452 1.396 . S
C451 C456 1.390 . S
C452 C446 1.465 . S
C452 C451 1.396 . S
C452 C453 1.399 . S
C453 H439 0.929 . S
C453 C452 1.399 . S
C453 C454 1.385 . S
C454 H440 0.931 . S
C454 C453 1.385 . S
C454 C455 1.389 . S
C455 C454 1.389 . S
C455 C456 1.387 . S
C456 H441 0.930 . S
C456 C451 1.390 . S
C456 C455 1.387 . S
H457 C469 0.930 . S
H458 C471 0.930 . S
H459 C472 0.930 . S
H460 C476 0.959 . S
H461 C476 0.959 . S
H462 C476 0.961 . S
H463 C477 0.960 . S
H464 C477 0.961 . S
H465 C477 0.959 . S
H466 C480 0.929 . S
H467 C481 0.931 . S
H468 C483 0.930 . S
C469 H457 0.930 . S
C469 C470 1.399 . S
C469 C474 1.399 . S
C470 C469 1.399 . S
C470 C471 1.376 . S
C471 H458 0.930 . S
C471 C470 1.376 . S
C471 C472 1.388 . S
C472 H459 0.930 . S
C472 C471 1.388 . S
C472 C473 1.390 . S
C473 C472 1.390 . S
C473 C474 1.394 . S
C473 C479 1.465 . S
C474 C469 1.399 . S
C474 C473 1.394 . S
C474 C475 1.516 . S
C475 C474 1.516 . S
C475 C476 1.502 . S
C475 C477 1.561 . S
C475 C478 1.526 . S
C476 H460 0.959 . S
C476 H461 0.959 . S
C476 H462 0.961 . S
C476 C475 1.502 . S
C477 H463 0.960 . S
C477 H464 0.961 . S
C477 H465 0.959 . S
C477 C475 1.561 . S
C478 C475 1.526 . S
C478 C479 1.396 . S
C478 C483 1.390 . S
C479 C473 1.465 . S
C479 C478 1.396 . S
C479 C480 1.399 . S
C480 H466 0.929 . S
C480 C479 1.399 . S
C480 C481 1.385 . S
C481 H467 0.931 . S
C481 C480 1.385 . S
C481 C482 1.389 . S
C482 C481 1.389 . S
C482 C483 1.387 . S
C483 H468 0.930 . S
C483 C478 1.390 . S
C483 C482 1.387 . S
C173 C102 1.617 . S
C185 C3 1.595 . S
C200 C83 1.620 . S
C212 C22 1.589 . S
C227 C62 1.580 . S
C239 C123 1.622 . S
C254 C43 1.596 . S
C266 C142 1.603 . S
C281 C26 1.443 . S
C293 C9 1.441 . S
C308 C49 1.405 . S
C320 C66 1.461 . S
C335 C106 1.408 . S
C347 C89 1.457 . S
C362 C146 1.423 . S
C374 C129 1.460 . S
C389 C55 1.491 1_565 S
C401 C15 1.486 1_565 S
C416 C2 1.469 1_545 S
C428 C42 1.493 1_645 S
C443 C135 1.434 . S
C455 C95 1.451 . S
C470 C122 1.466 . S
C482 C82 1.494 . S
