# Generated by pormake.
# Topology nfb, (4)-cn, num edge types: 1
# Building blocks:
#     Node 0, Type 0, BuildingBlock: GALJAG_clean_sbu_0, # of connection points: 4
#     Node 1, Type 0, BuildingBlock: GALJAG_clean_sbu_0, # of connection points: 4
#     Node 2, Type 0, BuildingBlock: GALJAG_clean_sbu_0, # of connection points: 4
#     Node 3, Type 0, BuildingBlock: GALJAG_clean_sbu_0, # of connection points: 4
#     Node 4, Type 0, BuildingBlock: GALJAG_clean_sbu_0, # of connection points: 4
#     Node 5, Type 0, BuildingBlock: GALJAG_clean_sbu_0, # of connection points: 4
#     Node 6, Type 0, BuildingBlock: GALJAG_clean_sbu_0, # of connection points: 4
#     Node 7, Type 0, BuildingBlock: GALJAG_clean_sbu_0, # of connection points: 4
#     Node 8, Type 0, BuildingBlock: GALJAG_clean_sbu_0, # of connection points: 4
#     Node 9, Type 0, BuildingBlock: GALJAG_clean_sbu_0, # of connection points: 4
#     Node 10, Type 0, BuildingBlock: GALJAG_clean_sbu_0, # of connection points: 4
#     Node 11, Type 0, BuildingBlock: GALJAG_clean_sbu_0, # of connection points: 4
#     Node 12, Type 0, BuildingBlock: GALJAG_clean_sbu_0, # of connection points: 4
#     Node 13, Type 0, BuildingBlock: GALJAG_clean_sbu_0, # of connection points: 4
#     Node 14, Type 0, BuildingBlock: GALJAG_clean_sbu_0, # of connection points: 4
#     Node 15, Type 0, BuildingBlock: GALJAG_clean_sbu_0, # of connection points: 4
#     Node 16, Type 0, BuildingBlock: GALJAG_clean_sbu_0, # of connection points: 4
#     Node 17, Type 0, BuildingBlock: GALJAG_clean_sbu_0, # of connection points: 4
#     Node 18, Type 0, BuildingBlock: GALJAG_clean_sbu_0, # of connection points: 4
#     Node 19, Type 0, BuildingBlock: GALJAG_clean_sbu_0, # of connection points: 4
#     Node 20, Type 0, BuildingBlock: GALJAG_clean_sbu_0, # of connection points: 4
#     Node 21, Type 0, BuildingBlock: GALJAG_clean_sbu_0, # of connection points: 4
#     Node 22, Type 0, BuildingBlock: GALJAG_clean_sbu_0, # of connection points: 4
#     Node 23, Type 0, BuildingBlock: GALJAG_clean_sbu_0, # of connection points: 4
#     Node 24, Type 0, BuildingBlock: GALJAG_clean_sbu_0, # of connection points: 4
#     Node 25, Type 0, BuildingBlock: GALJAG_clean_sbu_0, # of connection points: 4
#     Node 26, Type 0, BuildingBlock: GALJAG_clean_sbu_0, # of connection points: 4
#     Node 27, Type 0, BuildingBlock: GALJAG_clean_sbu_0, # of connection points: 4
#     Node 28, Type 0, BuildingBlock: GALJAG_clean_sbu_0, # of connection points: 4
#     Node 29, Type 0, BuildingBlock: GALJAG_clean_sbu_0, # of connection points: 4
#     Node 30, Type 0, BuildingBlock: GALJAG_clean_sbu_0, # of connection points: 4
#     Node 31, Type 0, BuildingBlock: GALJAG_clean_sbu_0, # of connection points: 4
#     Node 32, Type 0, BuildingBlock: GALJAG_clean_sbu_0, # of connection points: 4
#     Node 33, Type 0, BuildingBlock: GALJAG_clean_sbu_0, # of connection points: 4
#     Node 34, Type 0, BuildingBlock: GALJAG_clean_sbu_0, # of connection points: 4
#     Node 35, Type 0, BuildingBlock: GALJAG_clean_sbu_0, # of connection points: 4
#     Node 36, Type 0, BuildingBlock: GALJAG_clean_sbu_0, # of connection points: 4
#     Node 37, Type 0, BuildingBlock: GALJAG_clean_sbu_0, # of connection points: 4
#     Node 38, Type 0, BuildingBlock: GALJAG_clean_sbu_0, # of connection points: 4
#     Node 39, Type 0, BuildingBlock: GALJAG_clean_sbu_0, # of connection points: 4
#     Node 40, Type 0, BuildingBlock: GALJAG_clean_sbu_0, # of connection points: 4
#     Node 41, Type 0, BuildingBlock: GALJAG_clean_sbu_0, # of connection points: 4
#     Node 42, Type 0, BuildingBlock: GALJAG_clean_sbu_0, # of connection points: 4
#     Node 43, Type 0, BuildingBlock: GALJAG_clean_sbu_0, # of connection points: 4
#     Node 44, Type 0, BuildingBlock: GALJAG_clean_sbu_0, # of connection points: 4
#     Node 45, Type 0, BuildingBlock: GALJAG_clean_sbu_0, # of connection points: 4
#     Node 46, Type 0, BuildingBlock: GALJAG_clean_sbu_0, # of connection points: 4
#     Node 47, Type 0, BuildingBlock: GALJAG_clean_sbu_0, # of connection points: 4
#     Edge 48, Type (0, 0), None
#     Edge 49, Type (0, 0), None
#     Edge 50, Type (0, 0), None
#     Edge 51, Type (0, 0), None
#     Edge 52, Type (0, 0), None
#     Edge 53, Type (0, 0), None
#     Edge 54, Type (0, 0), None
#     Edge 55, Type (0, 0), None
#     Edge 56, Type (0, 0), None
#     Edge 57, Type (0, 0), None
#     Edge 58, Type (0, 0), None
#     Edge 59, Type (0, 0), None
#     Edge 60, Type (0, 0), None
#     Edge 61, Type (0, 0), None
#     Edge 62, Type (0, 0), None
#     Edge 63, Type (0, 0), None
#     Edge 64, Type (0, 0), None
#     Edge 65, Type (0, 0), None
#     Edge 66, Type (0, 0), None
#     Edge 67, Type (0, 0), None
#     Edge 68, Type (0, 0), None
#     Edge 69, Type (0, 0), None
#     Edge 70, Type (0, 0), None
#     Edge 71, Type (0, 0), None
#     Edge 72, Type (0, 0), None
#     Edge 73, Type (0, 0), None
#     Edge 74, Type (0, 0), None
#     Edge 75, Type (0, 0), None
#     Edge 76, Type (0, 0), None
#     Edge 77, Type (0, 0), None
#     Edge 78, Type (0, 0), None
#     Edge 79, Type (0, 0), None
#     Edge 80, Type (0, 0), None
#     Edge 81, Type (0, 0), None
#     Edge 82, Type (0, 0), None
#     Edge 83, Type (0, 0), None
#     Edge 84, Type (0, 0), None
#     Edge 85, Type (0, 0), None
#     Edge 86, Type (0, 0), None
#     Edge 87, Type (0, 0), None
#     Edge 88, Type (0, 0), None
#     Edge 89, Type (0, 0), None
#     Edge 90, Type (0, 0), None
#     Edge 91, Type (0, 0), None
#     Edge 92, Type (0, 0), None
#     Edge 93, Type (0, 0), None
#     Edge 94, Type (0, 0), None
#     Edge 95, Type (0, 0), None
#     Edge 96, Type (0, 0), None
#     Edge 97, Type (0, 0), None
#     Edge 98, Type (0, 0), None
#     Edge 99, Type (0, 0), None
#     Edge 100, Type (0, 0), None
#     Edge 101, Type (0, 0), None
#     Edge 102, Type (0, 0), None
#     Edge 103, Type (0, 0), None
#     Edge 104, Type (0, 0), None
#     Edge 105, Type (0, 0), None
#     Edge 106, Type (0, 0), None
#     Edge 107, Type (0, 0), None
#     Edge 108, Type (0, 0), None
#     Edge 109, Type (0, 0), None
#     Edge 110, Type (0, 0), None
#     Edge 111, Type (0, 0), None
#     Edge 112, Type (0, 0), None
#     Edge 113, Type (0, 0), None
#     Edge 114, Type (0, 0), None
#     Edge 115, Type (0, 0), None
#     Edge 116, Type (0, 0), None
#     Edge 117, Type (0, 0), None
#     Edge 118, Type (0, 0), None
#     Edge 119, Type (0, 0), None
#     Edge 120, Type (0, 0), None
#     Edge 121, Type (0, 0), None
#     Edge 122, Type (0, 0), None
#     Edge 123, Type (0, 0), None
#     Edge 124, Type (0, 0), None
#     Edge 125, Type (0, 0), None
#     Edge 126, Type (0, 0), None
#     Edge 127, Type (0, 0), None
#     Edge 128, Type (0, 0), None
#     Edge 129, Type (0, 0), None
#     Edge 130, Type (0, 0), None
#     Edge 131, Type (0, 0), None
#     Edge 132, Type (0, 0), None
#     Edge 133, Type (0, 0), None
#     Edge 134, Type (0, 0), None
#     Edge 135, Type (0, 0), None
#     Edge 136, Type (0, 0), None
#     Edge 137, Type (0, 0), None
#     Edge 138, Type (0, 0), None
#     Edge 139, Type (0, 0), None
#     Edge 140, Type (0, 0), None
#     Edge 141, Type (0, 0), None
#     Edge 142, Type (0, 0), None
#     Edge 143, Type (0, 0), None
# Relax obj value: 0.318
# Max RMSD: 0.087
# Mean RMSD: 0.085
data_MOF--net-nfb--node1-GALJAG_clean_sbu_0--edge1-none
_symmetry_space_group_name_H-M    P1
_symmetry_Int_Tables_number       1
_symmetry_cell_setting            triclinic
loop_
_symmetry_equiv_pos_as_xyz
'x, y, z'
_cell_length_a     25.674499
_cell_length_b     25.663538
_cell_length_c     25.661397
_cell_angle_alpha  89.999431
_cell_angle_beta   90.000228
_cell_angle_gamma 90.025263
loop_
_atom_site_label
_atom_site_type_symbol
_atom_site_fract_x
_atom_site_fract_y
_atom_site_fract_z
_atom_type_partial_charge
In0 In 0.13557 0.14049 0.39979 0.0
O1 O 0.08682 0.14777 0.47019 0.0
O2 O 0.13891 0.08287 0.46702 0.0
C3 C 0.13731 0.24324 0.40064 0.0
C4 C 0.24211 0.13468 0.40504 0.0
C5 C 0.05028 0.11016 0.34241 0.0
O6 O 0.11255 0.21718 0.43416 0.0
O7 O 0.15796 0.21775 0.36382 0.0
O8 O 0.07473 0.15209 0.33425 0.0
O9 O 0.07534 0.0791 0.3713 0.0
C10 C 0.10609 0.10884 0.493 0.0
O11 O 0.21622 0.11002 0.37038 0.0
O12 O 0.2145 0.15948 0.43685 0.0
In13 In 0.40209 0.63464 0.89975 0.0
O14 O 0.39053 0.57379 0.83416 0.0
O15 O 0.46343 0.5744 0.8713 0.0
C16 C 0.4079 0.74121 0.90521 0.0
C17 C 0.29939 0.63635 0.9005 0.0
C18 C 0.43373 0.6054 0.99301 0.0
O19 O 0.43258 0.71541 0.87051 0.0
O20 O 0.38305 0.7135 0.93691 0.0
O21 O 0.39484 0.58599 0.97025 0.0
O22 O 0.45973 0.63814 0.96691 0.0
C23 C 0.43241 0.54933 0.84236 0.0
O24 O 0.32539 0.61149 0.93397 0.0
O25 O 0.32493 0.65709 0.86374 0.0
In26 In 0.90694 0.9013 0.39978 0.0
O27 O 0.9557 0.89402 0.47018 0.0
O28 O 0.90362 0.95893 0.467 0.0
C29 C 0.90517 0.79855 0.40063 0.0
C30 C 0.80041 0.90712 0.40502 0.0
C31 C 0.99224 0.93162 0.3424 0.0
O32 O 0.92995 0.82461 0.43414 0.0
O33 O 0.88454 0.82405 0.3638 0.0
O34 O 0.96779 0.88969 0.33424 0.0
O35 O 0.96717 0.96269 0.37127 0.0
C36 C 0.93643 0.93295 0.49298 0.0
O37 O 0.82629 0.93176 0.37036 0.0
O38 O 0.82802 0.88233 0.43684 0.0
In39 In 0.64031 0.40712 0.89974 0.0
O40 O 0.65187 0.46796 0.83414 0.0
O41 O 0.57898 0.46736 0.87129 0.0
C42 C 0.63452 0.30055 0.90521 0.0
C43 C 0.74302 0.40542 0.90047 0.0
C44 C 0.60868 0.43636 0.99299 0.0
O45 O 0.60983 0.32634 0.87051 0.0
O46 O 0.65937 0.32827 0.9369 0.0
O47 O 0.64757 0.45577 0.97024 0.0
O48 O 0.58268 0.40362 0.96689 0.0
C49 C 0.60999 0.49242 0.84235 0.0
O50 O 0.71702 0.43028 0.93395 0.0
O51 O 0.71748 0.38468 0.86371 0.0
In52 In 0.13654 0.90087 0.64233 0.0
O53 O 0.07561 0.88943 0.70782 0.0
O54 O 0.07657 0.96245 0.67085 0.0
C55 C 0.24309 0.90653 0.63715 0.0
C56 C 0.13804 0.79811 0.64144 0.0
C57 C 0.10717 0.93256 0.54911 0.0
O58 O 0.21723 0.93119 0.67181 0.0
O59 O 0.21545 0.88181 0.60529 0.0
O60 O 0.08778 0.89369 0.57192 0.0
O61 O 0.14007 0.95847 0.57509 0.0
C62 C 0.05135 0.93146 0.69969 0.0
O63 O 0.11332 0.82424 0.60795 0.0
O64 O 0.15875 0.82355 0.67828 0.0
In65 In 0.64061 0.6354 0.14232 0.0
O66 O 0.71726 0.61222 0.10806 0.0
O67 O 0.71783 0.65782 0.17829 0.0
C68 C 0.60892 0.60619 0.04907 0.0
C69 C 0.61013 0.55013 0.19972 0.0
C70 C 0.63495 0.74197 0.13691 0.0
O71 O 0.64777 0.58674 0.07182 0.0
O72 O 0.58298 0.63895 0.07517 0.0
O73 O 0.61027 0.71616 0.17162 0.0
O74 O 0.65971 0.71426 0.10516 0.0
C75 C 0.74332 0.63708 0.14151 0.0
O76 O 0.65209 0.57451 0.20788 0.0
O77 O 0.57915 0.57525 0.17081 0.0
In78 In 0.90598 0.14094 0.64233 0.0
O79 O 0.92918 0.21758 0.60795 0.0
O80 O 0.88375 0.21826 0.67827 0.0
C81 C 0.93535 0.10925 0.54912 0.0
C82 C 0.99117 0.11036 0.6997 0.0
C83 C 0.79944 0.13526 0.63716 0.0
O84 O 0.95475 0.14813 0.57192 0.0
O85 O 0.90246 0.08334 0.5751 0.0
O86 O 0.82529 0.11062 0.67183 0.0
O87 O 0.82707 0.15998 0.60529 0.0
C88 C 0.90445 0.2437 0.64142 0.0
O89 O 0.96692 0.1524 0.70782 0.0
O90 O 0.96595 0.07937 0.67086 0.0
In91 In 0.4018 0.40637 0.14232 0.0
O92 O 0.32515 0.42956 0.10806 0.0
O93 O 0.32457 0.38396 0.17828 0.0
C94 C 0.4335 0.43558 0.04907 0.0
C95 C 0.43228 0.49164 0.19972 0.0
C96 C 0.40747 0.2998 0.13692 0.0
O97 O 0.39465 0.45503 0.07182 0.0
O98 O 0.45942 0.40281 0.07517 0.0
O99 O 0.43215 0.32561 0.17162 0.0
O100 O 0.38269 0.3275 0.10517 0.0
C101 C 0.29909 0.4047 0.1415 0.0
O102 O 0.39032 0.46725 0.20788 0.0
O103 O 0.46326 0.46652 0.17081 0.0
In104 In 0.39988 0.13529 0.14007 0.0
O105 O 0.37051 0.21604 0.10976 0.0
O106 O 0.43693 0.21419 0.15925 0.0
C107 C 0.34262 0.04995 0.10956 0.0
C108 C 0.4931 0.10613 0.10837 0.0
C109 C 0.40059 0.13689 0.24282 0.0
O110 O 0.33441 0.0743 0.15154 0.0
O111 O 0.3715 0.07513 0.07858 0.0
O112 O 0.43409 0.11211 0.21678 0.0
O113 O 0.36383 0.15759 0.21729 0.0
C114 C 0.40515 0.24187 0.13451 0.0
O115 O 0.47037 0.0867 0.14727 0.0
O116 O 0.46704 0.13892 0.08244 0.0
In117 In 0.40753 0.89926 0.64054 0.0
O118 O 0.4686 0.83391 0.65204 0.0
O119 O 0.46792 0.87114 0.57915 0.0
C120 C 0.301 0.90426 0.63487 0.0
C121 C 0.40584 0.89987 0.74329 0.0
C122 C 0.43613 0.99274 0.60894 0.0
O123 O 0.32689 0.86972 0.61007 0.0
O124 O 0.32859 0.93602 0.65977 0.0
O125 O 0.45572 0.97007 0.6478 0.0
O126 O 0.40358 0.96644 0.58292 0.0
C127 C 0.49304 0.84224 0.61014 0.0
O128 O 0.43066 0.93341 0.71731 0.0
O129 O 0.38516 0.86312 0.7177 0.0
In130 In 0.64256 0.90648 0.14006 0.0
O131 O 0.67191 0.82572 0.10974 0.0
O132 O 0.60551 0.82758 0.15925 0.0
C133 C 0.69981 0.99182 0.10954 0.0
C134 C 0.54934 0.93564 0.10836 0.0
C135 C 0.64188 0.90489 0.24281 0.0
O136 O 0.70803 0.96746 0.15151 0.0
O137 O 0.67093 0.96664 0.07857 0.0
O138 O 0.60838 0.92966 0.21677 0.0
O139 O 0.67863 0.88418 0.21727 0.0
C140 C 0.63727 0.7999 0.1345 0.0
O141 O 0.57207 0.95507 0.14726 0.0
O142 O 0.5754 0.90285 0.08242 0.0
In143 In 0.63499 0.14253 0.64055 0.0
O144 O 0.57393 0.20789 0.65205 0.0
O145 O 0.57461 0.17066 0.57916 0.0
C146 C 0.74153 0.13754 0.63489 0.0
C147 C 0.63666 0.1419 0.7433 0.0
C148 C 0.6064 0.04906 0.60894 0.0
O149 O 0.71563 0.17207 0.61008 0.0
O150 O 0.71393 0.10578 0.65979 0.0
O151 O 0.5868 0.07172 0.6478 0.0
O152 O 0.63895 0.07536 0.58293 0.0
C153 C 0.54949 0.19956 0.61015 0.0
O154 O 0.61185 0.10836 0.71731 0.0
O155 O 0.65735 0.17866 0.71773 0.0
In156 In 0.40029 0.90573 0.90201 0.0
O157 O 0.4705 0.95479 0.8949 0.0
O158 O 0.46751 0.90241 0.95962 0.0
C159 C 0.40134 0.90418 0.79925 0.0
C160 C 0.40561 0.79914 0.90763 0.0
C161 C 0.34272 0.99081 0.93252 0.0
O162 O 0.43475 0.92897 0.82541 0.0
O163 O 0.3645 0.88344 0.82465 0.0
O164 O 0.33464 0.96646 0.89051 0.0
O165 O 0.37164 0.96572 0.96351 0.0
C166 C 0.49336 0.93545 0.93376 0.0
O167 O 0.37094 0.82494 0.93231 0.0
O168 O 0.43743 0.82686 0.88294 0.0
In169 In 0.63594 0.89965 0.40154 0.0
O170 O 0.58727 0.97008 0.39428 0.0
O171 O 0.63949 0.96692 0.4591 0.0
C172 C 0.63756 0.9005 0.29878 0.0
C173 C 0.74249 0.90483 0.4073 0.0
C174 C 0.55064 0.84229 0.43195 0.0
O175 O 0.61281 0.93399 0.32486 0.0
O176 O 0.65824 0.86369 0.32425 0.0
O177 O 0.57506 0.83408 0.39002 0.0
O178 O 0.57572 0.87122 0.46296 0.0
C179 C 0.60667 0.99291 0.43314 0.0
O180 O 0.71659 0.87023 0.43203 0.0
O181 O 0.71489 0.9366 0.38245 0.0
In182 In 0.64216 0.13603 0.90203 0.0
O183 O 0.57194 0.08697 0.8949 0.0
O184 O 0.57495 0.13934 0.95963 0.0
C185 C 0.64114 0.13758 0.79926 0.0
C186 C 0.63682 0.24262 0.90764 0.0
C187 C 0.69972 0.05095 0.93253 0.0
O188 O 0.60773 0.11279 0.82541 0.0
O189 O 0.67798 0.15832 0.82467 0.0
O190 O 0.70781 0.0753 0.89053 0.0
O191 O 0.6708 0.07603 0.96352 0.0
C192 C 0.54909 0.10631 0.93376 0.0
O193 O 0.6715 0.21682 0.93232 0.0
O194 O 0.60501 0.2149 0.88295 0.0
In195 In 0.40658 0.14213 0.40155 0.0
O196 O 0.32593 0.17156 0.43204 0.0
O197 O 0.32762 0.10517 0.38248 0.0
C198 C 0.49188 0.19949 0.43195 0.0
C199 C 0.43585 0.04887 0.43314 0.0
C200 C 0.40493 0.14127 0.29879 0.0
O201 O 0.46746 0.20769 0.39002 0.0
O202 O 0.4668 0.17056 0.46297 0.0
O203 O 0.42969 0.10779 0.32487 0.0
O204 O 0.38426 0.17809 0.32427 0.0
C205 C 0.30003 0.13695 0.40732 0.0
O206 O 0.45525 0.0717 0.39428 0.0
O207 O 0.40303 0.07485 0.45911 0.0
In208 In 0.14044 0.39946 0.13543 0.0
O209 O 0.21712 0.43372 0.11222 0.0
O210 O 0.21765 0.36351 0.15785 0.0
C211 C 0.1088 0.49261 0.10591 0.0
C212 C 0.10991 0.34195 0.05026 0.0
C213 C 0.13477 0.40501 0.242 0.0
O214 O 0.14767 0.46981 0.08656 0.0
O215 O 0.08285 0.46662 0.13877 0.0
O216 O 0.11012 0.37025 0.21625 0.0
O217 O 0.15949 0.43677 0.21425 0.0
C218 C 0.24315 0.40029 0.13709 0.0
O219 O 0.15189 0.33384 0.07461 0.0
O220 O 0.07895 0.37086 0.07539 0.0
In221 In 0.14074 0.64173 0.90649 0.0
O222 O 0.21734 0.60738 0.9297 0.0
O223 O 0.21802 0.6776 0.8841 0.0
C224 C 0.10888 0.54862 0.936 0.0
C225 C 0.11031 0.69927 0.99165 0.0
C226 C 0.13505 0.63621 0.79991 0.0
O227 O 0.14781 0.57136 0.95535 0.0
O228 O 0.08299 0.57464 0.90313 0.0
O229 O 0.11047 0.671 0.82568 0.0
O230 O 0.15971 0.60442 0.82765 0.0
C231 C 0.24345 0.6408 0.90486 0.0
O232 O 0.1523 0.70734 0.9673 0.0
O233 O 0.07929 0.67039 0.96652 0.0
In234 In 0.89998 0.63986 0.40654 0.0
O235 O 0.97049 0.64699 0.45514 0.0
O236 O 0.96705 0.58215 0.40293 0.0
C237 C 0.90079 0.74259 0.40499 0.0
C238 C 0.9053 0.63432 0.29995 0.0
C239 C 0.84268 0.60947 0.49188 0.0
O240 O 0.93426 0.71653 0.42977 0.0
O241 O 0.86401 0.71709 0.38425 0.0
O242 O 0.83449 0.6514 0.46746 0.0
O243 O 0.87155 0.57846 0.46676 0.0
C244 C 0.99316 0.60807 0.43572 0.0
O245 O 0.87065 0.60955 0.32574 0.0
O246 O 0.93704 0.65909 0.32767 0.0
In247 In 0.90167 0.40008 0.90643 0.0
O248 O 0.82507 0.43443 0.92965 0.0
O249 O 0.82439 0.3642 0.88406 0.0
C250 C 0.93353 0.49319 0.93596 0.0
C251 C 0.93211 0.34254 0.99159 0.0
C252 C 0.90736 0.4056 0.79985 0.0
O253 O 0.8946 0.47044 0.9553 0.0
O254 O 0.95941 0.46717 0.90309 0.0
O255 O 0.93195 0.37082 0.82562 0.0
O256 O 0.88268 0.43739 0.8276 0.0
C257 C 0.79896 0.40099 0.90482 0.0
O258 O 0.89012 0.33446 0.96724 0.0
O259 O 0.96312 0.37142 0.96646 0.0
In260 In 0.14244 0.40194 0.40653 0.0
O261 O 0.17176 0.43225 0.32572 0.0
O262 O 0.10538 0.38268 0.32766 0.0
C263 C 0.19973 0.43235 0.49187 0.0
C264 C 0.04925 0.43373 0.43568 0.0
C265 C 0.14168 0.29921 0.405 0.0
O266 O 0.20794 0.39042 0.46745 0.0
O267 O 0.17085 0.46335 0.46675 0.0
O268 O 0.10819 0.32526 0.42977 0.0
O269 O 0.17844 0.32472 0.38425 0.0
C270 C 0.13712 0.40746 0.29994 0.0
O271 O 0.07191 0.3948 0.45511 0.0
O272 O 0.07537 0.45964 0.4029 0.0
In273 In 0.90197 0.64234 0.13544 0.0
O274 O 0.8253 0.60807 0.11223 0.0
O275 O 0.82476 0.67828 0.15786 0.0
C276 C 0.93361 0.54919 0.1059 0.0
C277 C 0.93249 0.69986 0.05027 0.0
C278 C 0.90764 0.63678 0.24201 0.0
O279 O 0.89474 0.572 0.08655 0.0
O280 O 0.95956 0.57517 0.13877 0.0
O281 O 0.9323 0.67154 0.21626 0.0
O282 O 0.88292 0.60502 0.21425 0.0
C283 C 0.79926 0.6415 0.1371 0.0
O284 O 0.89051 0.70796 0.07462 0.0
O285 O 0.96346 0.67095 0.0754 0.0
In286 In 0.8997 0.4024 0.63534 0.0
O287 O 0.97016 0.39503 0.58671 0.0
O288 O 0.96701 0.45987 0.63893 0.0
C289 C 0.9002 0.29966 0.637 0.0
C290 C 0.90502 0.40802 0.74192 0.0
C291 C 0.84251 0.43291 0.54997 0.0
O292 O 0.93373 0.32564 0.61216 0.0
O293 O 0.8635 0.32525 0.65772 0.0
O294 O 0.83418 0.391 0.5744 0.0
O295 O 0.87148 0.46385 0.57509 0.0
C296 C 0.99301 0.43386 0.60615 0.0
O297 O 0.87043 0.43283 0.71611 0.0
O298 O 0.93671 0.38319 0.71422 0.0
In299 In 0.14272 0.63941 0.63539 0.0
O300 O 0.17197 0.60897 0.71617 0.0
O301 O 0.10571 0.65864 0.71427 0.0
C302 C 0.1999 0.60888 0.55004 0.0
C303 C 0.0494 0.60795 0.6062 0.0
C304 C 0.14226 0.74215 0.63703 0.0
O305 O 0.20825 0.65079 0.57446 0.0
O306 O 0.17092 0.57794 0.57516 0.0
O307 O 0.10872 0.71618 0.61221 0.0
O308 O 0.17895 0.71654 0.65776 0.0
C309 C 0.13739 0.63379 0.74198 0.0
O310 O 0.07225 0.64679 0.58677 0.0
O311 O 0.0754 0.58194 0.63899 0.0
In312 In 0.90757 0.90138 0.6424 0.0
O313 O 0.93055 0.82468 0.60804 0.0
O314 O 0.8851 0.82414 0.67834 0.0
C315 C 0.93662 0.93299 0.54909 0.0
C316 C 0.80104 0.90725 0.63726 0.0
C317 C 0.99298 0.93157 0.69963 0.0
O318 O 0.95605 0.89409 0.57181 0.0
O319 O 0.90398 0.95904 0.57523 0.0
O320 O 0.968 0.96267 0.67073 0.0
O321 O 0.96846 0.8897 0.70791 0.0
C322 C 0.90572 0.79863 0.64151 0.0
O323 O 0.82696 0.93193 0.67188 0.0
O324 O 0.82861 0.88238 0.60548 0.0
In325 In 0.64048 0.40656 0.14221 0.0
O326 O 0.71712 0.42973 0.10788 0.0
O327 O 0.71771 0.38421 0.17816 0.0
C328 C 0.60877 0.43615 0.04911 0.0
C329 C 0.63474 0.29998 0.1367 0.0
C330 C 0.61014 0.49173 0.19967 0.0
O331 O 0.64771 0.45544 0.07187 0.0
O332 O 0.5828 0.40328 0.07506 0.0
O333 O 0.57908 0.46667 0.17078 0.0
O334 O 0.65206 0.46733 0.20785 0.0
C335 C 0.74318 0.40494 0.14136 0.0
O336 O 0.61011 0.32575 0.17145 0.0
O337 O 0.65947 0.32772 0.10493 0.0
In338 In 0.13495 0.14043 0.64242 0.0
O339 O 0.11195 0.21713 0.60804 0.0
O340 O 0.1574 0.21769 0.67835 0.0
C341 C 0.1059 0.10881 0.54911 0.0
C342 C 0.24149 0.13457 0.63727 0.0
C343 C 0.04954 0.11025 0.69965 0.0
O344 O 0.08647 0.1477 0.57183 0.0
O345 O 0.13855 0.08277 0.57525 0.0
O346 O 0.07452 0.07915 0.67075 0.0
O347 O 0.07407 0.15211 0.70793 0.0
C348 C 0.13677 0.24318 0.64152 0.0
O349 O 0.21556 0.10988 0.67188 0.0
O350 O 0.21392 0.15945 0.6055 0.0
In351 In 0.40194 0.63522 0.14223 0.0
O352 O 0.32529 0.61205 0.10792 0.0
O353 O 0.32471 0.65758 0.17819 0.0
C354 C 0.43363 0.60562 0.04912 0.0
C355 C 0.40768 0.74179 0.13671 0.0
C356 C 0.43228 0.55003 0.19968 0.0
O357 O 0.39468 0.58634 0.07189 0.0
O358 O 0.45961 0.63849 0.07508 0.0
O359 O 0.46334 0.5751 0.17079 0.0
O360 O 0.39035 0.57443 0.20787 0.0
C361 C 0.29923 0.63684 0.1414 0.0
O362 O 0.43231 0.71602 0.17146 0.0
O363 O 0.38294 0.71405 0.10494 0.0
In364 In 0.90659 0.1408 0.39965 0.0
O365 O 0.96677 0.07929 0.37139 0.0
O366 O 0.96758 0.15225 0.33419 0.0
C367 C 0.80005 0.13508 0.40477 0.0
C368 C 0.93553 0.10921 0.493 0.0
C369 C 0.905 0.24355 0.40041 0.0
O370 O 0.82593 0.11036 0.37016 0.0
O371 O 0.82766 0.15992 0.43656 0.0
O372 O 0.92978 0.2175 0.43391 0.0
O373 O 0.8843 0.21804 0.36362 0.0
C374 C 0.99191 0.11029 0.34249 0.0
O375 O 0.95505 0.14807 0.47027 0.0
O376 O 0.90282 0.08321 0.46688 0.0
In377 In 0.40169 0.40579 0.89984 0.0
O378 O 0.32506 0.429 0.93409 0.0
O379 O 0.32446 0.38347 0.86382 0.0
C380 C 0.43339 0.43535 0.99296 0.0
C381 C 0.40729 0.29922 0.90535 0.0
C382 C 0.43225 0.49094 0.84241 0.0
O383 O 0.39448 0.45466 0.97018 0.0
O384 O 0.45933 0.40247 0.96701 0.0
O385 O 0.46324 0.46581 0.8713 0.0
O386 O 0.39026 0.46661 0.83421 0.0
C387 C 0.29898 0.40422 0.9006 0.0
O388 O 0.43195 0.32498 0.8706 0.0
O389 O 0.38259 0.32696 0.93712 0.0
In390 In 0.13592 0.90099 0.39966 0.0
O391 O 0.07575 0.9625 0.37138 0.0
O392 O 0.07495 0.88954 0.33418 0.0
C393 C 0.24246 0.9067 0.40477 0.0
C394 C 0.10699 0.9326 0.493 0.0
C395 C 0.13748 0.79824 0.40045 0.0
O396 O 0.21658 0.93142 0.37017 0.0
O397 O 0.21485 0.88185 0.43656 0.0
O398 O 0.11272 0.8243 0.43394 0.0
O399 O 0.15819 0.82373 0.36364 0.0
C400 C 0.05062 0.9315 0.34248 0.0
O401 O 0.08745 0.89375 0.47027 0.0
O402 O 0.13971 0.95859 0.46687 0.0
In403 In 0.64072 0.63597 0.89983 0.0
O404 O 0.61047 0.71678 0.8706 0.0
O405 O 0.65981 0.71479 0.93713 0.0
C406 C 0.61016 0.55082 0.84241 0.0
C407 C 0.74342 0.63755 0.9006 0.0
C408 C 0.60901 0.6064 0.99296 0.0
O409 O 0.57917 0.57594 0.8713 0.0
O410 O 0.65215 0.57514 0.83421 0.0
O411 O 0.64792 0.58709 0.97018 0.0
O412 O 0.58308 0.63928 0.967 0.0
C413 C 0.63513 0.74254 0.90535 0.0
O414 O 0.71735 0.61276 0.93409 0.0
O415 O 0.71795 0.6583 0.86382 0.0
In416 In 0.64279 0.90704 0.90219 0.0
O417 O 0.5721 0.95532 0.89486 0.0
O418 O 0.57566 0.90323 0.95983 0.0
C419 C 0.64233 0.90536 0.79946 0.0
C420 C 0.6998 0.99255 0.93258 0.0
C421 C 0.6375 0.80047 0.90777 0.0
O422 O 0.60878 0.93019 0.82539 0.0
O423 O 0.67901 0.88465 0.82509 0.0
O424 O 0.67211 0.82629 0.93258 0.0
O425 O 0.6058 0.82816 0.88294 0.0
C426 C 0.54945 0.93581 0.93377 0.0
O427 O 0.6709 0.96744 0.96359 0.0
O428 O 0.7082 0.9681 0.8907 0.0
In429 In 0.6356 0.14233 0.40141 0.0
O430 O 0.57538 0.17061 0.46288 0.0
O431 O 0.57462 0.20775 0.38989 0.0
C432 C 0.74214 0.13732 0.40706 0.0
C433 C 0.6066 0.04902 0.43309 0.0
C434 C 0.63722 0.14149 0.29865 0.0
O435 O 0.71625 0.17191 0.43178 0.0
O436 O 0.71454 0.10547 0.38229 0.0
O437 O 0.61247 0.10798 0.32473 0.0
O438 O 0.65788 0.17833 0.32414 0.0
C439 C 0.55026 0.19947 0.43185 0.0
O440 O 0.58711 0.07172 0.3942 0.0
O441 O 0.63933 0.07515 0.45906 0.0
In442 In 0.39967 0.13471 0.90219 0.0
O443 O 0.37154 0.07431 0.96358 0.0
O444 O 0.33426 0.07366 0.89068 0.0
C445 C 0.40493 0.24129 0.90777 0.0
C446 C 0.493 0.10595 0.93378 0.0
C447 C 0.40016 0.13641 0.79946 0.0
O448 O 0.37032 0.21546 0.93257 0.0
O449 O 0.43665 0.2136 0.88295 0.0
O450 O 0.43369 0.11157 0.8254 0.0
O451 O 0.36347 0.15711 0.82508 0.0
C452 C 0.34264 0.04921 0.93256 0.0
O453 O 0.47035 0.08643 0.89487 0.0
O454 O 0.46679 0.13853 0.95983 0.0
In455 In 0.40692 0.89944 0.40142 0.0
O456 O 0.46714 0.87116 0.46288 0.0
O457 O 0.4679 0.83403 0.38989 0.0
C458 C 0.30038 0.90446 0.40707 0.0
C459 C 0.43592 0.99275 0.43309 0.0
C460 C 0.40528 0.90028 0.29866 0.0
O461 O 0.32627 0.86986 0.43178 0.0
O462 O 0.32798 0.93631 0.3823 0.0
O463 O 0.43004 0.93379 0.32473 0.0
O464 O 0.38462 0.86344 0.32415 0.0
C465 C 0.49226 0.84231 0.43185 0.0
O466 O 0.4554 0.97005 0.3942 0.0
O467 O 0.4032 0.96662 0.45906 0.0
In468 In 0.64239 0.13547 0.13994 0.0
O469 O 0.67075 0.07523 0.07853 0.0
O470 O 0.70799 0.07467 0.15145 0.0
C471 C 0.63708 0.24205 0.13429 0.0
C472 C 0.54919 0.10617 0.10834 0.0
C473 C 0.6416 0.1371 0.24269 0.0
O474 O 0.6717 0.21625 0.10953 0.0
O475 O 0.60534 0.21434 0.15909 0.0
O476 O 0.60815 0.11226 0.21663 0.0
O477 O 0.67837 0.15785 0.21718 0.0
C478 C 0.6997 0.05022 0.10954 0.0
O479 O 0.57197 0.08674 0.14721 0.0
O480 O 0.5752 0.13898 0.08235 0.0
In481 In 0.40597 0.14196 0.64072 0.0
O482 O 0.42908 0.10743 0.71731 0.0
O483 O 0.38376 0.17779 0.7181 0.0
C484 C 0.43562 0.04885 0.60906 0.0
C485 C 0.29941 0.13679 0.63498 0.0
C486 C 0.49112 0.19941 0.61027 0.0
O487 O 0.45492 0.07172 0.64794 0.0
O488 O 0.40263 0.07467 0.58314 0.0
O489 O 0.46603 0.17052 0.57922 0.0
O490 O 0.46677 0.20759 0.65225 0.0
C491 C 0.40441 0.14089 0.74349 0.0
O492 O 0.32532 0.17144 0.61032 0.0
O493 O 0.327 0.10493 0.65971 0.0
In494 In 0.40005 0.9063 0.13994 0.0
O495 O 0.47047 0.95503 0.1472 0.0
O496 O 0.46724 0.90278 0.08235 0.0
C497 C 0.40087 0.90467 0.2427 0.0
C498 C 0.34273 0.99155 0.10956 0.0
C499 C 0.40535 0.79972 0.1343 0.0
O500 O 0.43432 0.92951 0.21663 0.0
O501 O 0.3641 0.88392 0.2172 0.0
O502 O 0.37073 0.82553 0.10955 0.0
O503 O 0.4371 0.82743 0.15909 0.0
C504 C 0.49325 0.9356 0.10833 0.0
O505 O 0.37168 0.96654 0.07854 0.0
O506 O 0.33445 0.9671 0.15147 0.0
In507 In 0.63656 0.89984 0.64071 0.0
O508 O 0.71721 0.87038 0.61031 0.0
O509 O 0.71552 0.93687 0.65972 0.0
C510 C 0.55141 0.84239 0.61025 0.0
C511 C 0.6381 0.90089 0.74349 0.0
C512 C 0.60691 0.99295 0.60906 0.0
O513 O 0.57649 0.87129 0.57921 0.0
O514 O 0.57576 0.8342 0.65223 0.0
O515 O 0.5876 0.97008 0.64794 0.0
O516 O 0.6399 0.96713 0.58314 0.0
C517 C 0.74312 0.90502 0.63497 0.0
O518 O 0.61343 0.93436 0.71731 0.0
O519 O 0.65875 0.864 0.7181 0.0
In520 In 0.90207 0.64249 0.90662 0.0
O521 O 0.82535 0.60836 0.92981 0.0
O522 O 0.82494 0.67857 0.88419 0.0
C523 C 0.93361 0.54929 0.93601 0.0
C524 C 0.90779 0.63691 0.80006 0.0
C525 C 0.93251 0.69984 0.99187 0.0
O526 O 0.89472 0.57207 0.95537 0.0
O527 O 0.95964 0.57531 0.90324 0.0
O528 O 0.96351 0.67091 0.96682 0.0
O529 O 0.89061 0.70812 0.96744 0.0
C530 C 0.79937 0.64185 0.90496 0.0
O531 O 0.93251 0.67162 0.82581 0.0
O532 O 0.88295 0.60523 0.82781 0.0
In533 In 0.90182 0.39991 0.13525 0.0
O534 O 0.9322 0.37069 0.21604 0.0
O535 O 0.88281 0.43717 0.21409 0.0
C536 C 0.93213 0.34255 0.04998 0.0
C537 C 0.79912 0.40062 0.13696 0.0
C538 C 0.93353 0.49308 0.10588 0.0
O539 O 0.96319 0.37145 0.07504 0.0
O540 O 0.89022 0.33432 0.07442 0.0
O541 O 0.89458 0.47037 0.08654 0.0
O542 O 0.95953 0.46703 0.13862 0.0
C543 C 0.90756 0.40543 0.24182 0.0
O544 O 0.82514 0.43411 0.11211 0.0
O545 O 0.82464 0.36387 0.15771 0.0
In546 In 0.14221 0.40187 0.63552 0.0
O547 O 0.07177 0.39478 0.58681 0.0
O548 O 0.07517 0.45961 0.63907 0.0
C549 C 0.14125 0.29914 0.6371 0.0
C550 C 0.1996 0.43226 0.55027 0.0
C551 C 0.13691 0.40741 0.74211 0.0
O552 O 0.10783 0.32524 0.61229 0.0
O553 O 0.17807 0.32459 0.65783 0.0
O554 O 0.17161 0.43211 0.71632 0.0
O555 O 0.1051 0.38273 0.71439 0.0
C556 C 0.0491 0.4337 0.60624 0.0
O557 O 0.17072 0.46329 0.57534 0.0
O558 O 0.20777 0.3903 0.57466 0.0
In559 In 0.14059 0.64188 0.13531 0.0
O560 O 0.21727 0.60768 0.11216 0.0
O561 O 0.21778 0.67792 0.15776 0.0
C562 C 0.10888 0.54872 0.10591 0.0
C563 C 0.13485 0.63636 0.24188 0.0
C564 C 0.11029 0.69926 0.05005 0.0
O565 O 0.14783 0.57145 0.08658 0.0
O566 O 0.08288 0.57477 0.13866 0.0
O567 O 0.07922 0.67036 0.0751 0.0
O568 O 0.1522 0.70748 0.07448 0.0
C569 C 0.24329 0.64117 0.13701 0.0
O570 O 0.11022 0.6711 0.2161 0.0
O571 O 0.1596 0.60462 0.21414 0.0
In572 In 0.9002 0.63995 0.63553 0.0
O573 O 0.97065 0.64702 0.58682 0.0
O574 O 0.96724 0.5822 0.63911 0.0
C575 C 0.90121 0.74268 0.6371 0.0
C576 C 0.84281 0.60957 0.55028 0.0
C577 C 0.90548 0.63442 0.74212 0.0
O578 O 0.93462 0.71656 0.61229 0.0
O579 O 0.86438 0.71725 0.65783 0.0
O580 O 0.87079 0.60972 0.71632 0.0
O581 O 0.93731 0.65909 0.7144 0.0
C582 C 0.99331 0.6081 0.60627 0.0
O583 O 0.87168 0.57853 0.57536 0.0
O584 O 0.83465 0.65153 0.57467 0.0
In585 In 0.14033 0.39932 0.90661 0.0
O586 O 0.21706 0.43343 0.9298 0.0
O587 O 0.21746 0.36322 0.88418 0.0
C588 C 0.10881 0.49251 0.93602 0.0
C589 C 0.13461 0.40491 0.80005 0.0
C590 C 0.10989 0.34196 0.99186 0.0
O591 O 0.1477 0.46973 0.95537 0.0
O592 O 0.08276 0.4665 0.90326 0.0
O593 O 0.07889 0.3709 0.9668 0.0
O594 O 0.15179 0.33368 0.96742 0.0
C595 C 0.24303 0.39993 0.90495 0.0
O596 O 0.10989 0.3702 0.8258 0.0
O597 O 0.15945 0.43659 0.8278 0.0
In598 In 0.14249 0.63952 0.4064 0.0
O599 O 0.07209 0.64681 0.45514 0.0
O600 O 0.0752 0.58201 0.40282 0.0
C601 C 0.14181 0.74227 0.40482 0.0
C602 C 0.19977 0.60897 0.49164 0.0
C603 C 0.13717 0.63393 0.29981 0.0
O604 O 0.10833 0.71622 0.42964 0.0
O605 O 0.17855 0.71675 0.38407 0.0
O606 O 0.17178 0.60916 0.32562 0.0
O607 O 0.10544 0.65871 0.32752 0.0
C608 C 0.04925 0.60798 0.43567 0.0
O609 O 0.17077 0.57802 0.46657 0.0
O610 O 0.2081 0.65091 0.46724 0.0
In611 In 0.89993 0.40227 0.40634 0.0
O612 O 0.97031 0.395 0.4551 0.0
O613 O 0.96721 0.45978 0.40277 0.0
C614 C 0.90064 0.29952 0.40477 0.0
C615 C 0.84264 0.43281 0.49157 0.0
C616 C 0.90524 0.40786 0.29975 0.0
O617 O 0.93411 0.32558 0.42959 0.0
O618 O 0.8639 0.32502 0.38402 0.0
O619 O 0.87063 0.43263 0.32556 0.0
O620 O 0.93698 0.38309 0.32746 0.0
C621 C 0.99316 0.43381 0.43563 0.0
O622 O 0.87163 0.46377 0.4665 0.0
O623 O 0.83431 0.39087 0.46718 0.0
loop_
_geom_bond_atom_site_label_1
_geom_bond_atom_site_label_2
_geom_bond_distance
_geom_bond_site_symmetry_2
_ccdc_geom_bond_type
In0 O1 2.294 . S
In0 O2 2.326 . S
In0 O6 2.266 . S
In0 O7 2.326 . S
In0 O8 2.266 . S
In0 O9 2.326 . S
In0 O11 2.294 . S
In0 O12 2.326 . S
O1 In0 2.294 . S
O1 C10 1.240 . S
O2 In0 2.326 . S
O2 C10 1.252 . S
C3 O6 1.252 . S
C3 O7 1.260 . S
C4 O11 1.240 . S
C4 O12 1.252 . S
C5 O8 1.252 . S
C5 O9 1.260 . S
O6 In0 2.266 . S
O6 C3 1.252 . S
O7 In0 2.326 . S
O7 C3 1.260 . S
O8 In0 2.266 . S
O8 C5 1.252 . S
O9 In0 2.326 . S
O9 C5 1.260 . S
C10 O1 1.240 . S
C10 O2 1.252 . S
O11 In0 2.294 . S
O11 C4 1.240 . S
O12 In0 2.326 . S
O12 C4 1.252 . S
In13 O14 2.294 . S
In13 O15 2.326 . S
In13 O19 2.266 . S
In13 O20 2.326 . S
In13 O21 2.266 . S
In13 O22 2.326 . S
In13 O24 2.294 . S
In13 O25 2.326 . S
O14 In13 2.294 . S
O14 C23 1.240 . S
O15 In13 2.326 . S
O15 C23 1.252 . S
C16 O19 1.252 . S
C16 O20 1.260 . S
C17 O24 1.240 . S
C17 O25 1.252 . S
C18 O21 1.252 . S
C18 O22 1.260 . S
O19 In13 2.266 . S
O19 C16 1.252 . S
O20 In13 2.326 . S
O20 C16 1.260 . S
O21 In13 2.266 . S
O21 C18 1.252 . S
O22 In13 2.326 . S
O22 C18 1.260 . S
C23 O14 1.240 . S
C23 O15 1.252 . S
O24 In13 2.294 . S
O24 C17 1.240 . S
O25 In13 2.326 . S
O25 C17 1.252 . S
In26 O27 2.294 . S
In26 O28 2.326 . S
In26 O32 2.266 . S
In26 O33 2.326 . S
In26 O34 2.266 . S
In26 O35 2.326 . S
In26 O37 2.294 . S
In26 O38 2.326 . S
O27 In26 2.294 . S
O27 C36 1.240 . S
O28 In26 2.326 . S
O28 C36 1.252 . S
C29 O32 1.252 . S
C29 O33 1.260 . S
C30 O37 1.240 . S
C30 O38 1.252 . S
C31 O34 1.252 . S
C31 O35 1.260 . S
O32 In26 2.266 . S
O32 C29 1.252 . S
O33 In26 2.326 . S
O33 C29 1.260 . S
O34 In26 2.266 . S
O34 C31 1.252 . S
O35 In26 2.326 . S
O35 C31 1.260 . S
C36 O27 1.240 . S
C36 O28 1.252 . S
O37 In26 2.294 . S
O37 C30 1.240 . S
O38 In26 2.326 . S
O38 C30 1.252 . S
In39 O40 2.294 . S
In39 O41 2.326 . S
In39 O45 2.266 . S
In39 O46 2.326 . S
In39 O47 2.266 . S
In39 O48 2.326 . S
In39 O50 2.294 . S
In39 O51 2.326 . S
O40 In39 2.294 . S
O40 C49 1.240 . S
O41 In39 2.326 . S
O41 C49 1.252 . S
C42 O45 1.252 . S
C42 O46 1.260 . S
C43 O50 1.240 . S
C43 O51 1.252 . S
C44 O47 1.252 . S
C44 O48 1.260 . S
O45 In39 2.266 . S
O45 C42 1.252 . S
O46 In39 2.326 . S
O46 C42 1.260 . S
O47 In39 2.266 . S
O47 C44 1.252 . S
O48 In39 2.326 . S
O48 C44 1.260 . S
C49 O40 1.240 . S
C49 O41 1.252 . S
O50 In39 2.294 . S
O50 C43 1.240 . S
O51 In39 2.326 . S
O51 C43 1.252 . S
In52 O53 2.294 . S
In52 O54 2.326 . S
In52 O58 2.266 . S
In52 O59 2.326 . S
In52 O60 2.266 . S
In52 O61 2.326 . S
In52 O63 2.294 . S
In52 O64 2.326 . S
O53 In52 2.294 . S
O53 C62 1.240 . S
O54 In52 2.326 . S
O54 C62 1.252 . S
C55 O58 1.252 . S
C55 O59 1.260 . S
C56 O63 1.240 . S
C56 O64 1.252 . S
C57 O60 1.252 . S
C57 O61 1.260 . S
O58 In52 2.266 . S
O58 C55 1.252 . S
O59 In52 2.326 . S
O59 C55 1.260 . S
O60 In52 2.266 . S
O60 C57 1.252 . S
O61 In52 2.326 . S
O61 C57 1.260 . S
C62 O53 1.240 . S
C62 O54 1.252 . S
O63 In52 2.294 . S
O63 C56 1.240 . S
O64 In52 2.326 . S
O64 C56 1.252 . S
In65 O66 2.294 . S
In65 O67 2.326 . S
In65 O71 2.266 . S
In65 O72 2.326 . S
In65 O73 2.266 . S
In65 O74 2.326 . S
In65 O76 2.294 . S
In65 O77 2.326 . S
O66 In65 2.294 . S
O66 C75 1.240 . S
O67 In65 2.326 . S
O67 C75 1.252 . S
C68 O71 1.252 . S
C68 O72 1.260 . S
C69 O76 1.240 . S
C69 O77 1.252 . S
C70 O73 1.252 . S
C70 O74 1.260 . S
O71 In65 2.266 . S
O71 C68 1.252 . S
O72 In65 2.326 . S
O72 C68 1.260 . S
O73 In65 2.266 . S
O73 C70 1.252 . S
O74 In65 2.326 . S
O74 C70 1.260 . S
C75 O66 1.240 . S
C75 O67 1.252 . S
O76 In65 2.294 . S
O76 C69 1.240 . S
O77 In65 2.326 . S
O77 C69 1.252 . S
In78 O79 2.294 . S
In78 O80 2.326 . S
In78 O84 2.266 . S
In78 O85 2.326 . S
In78 O86 2.266 . S
In78 O87 2.326 . S
In78 O89 2.294 . S
In78 O90 2.326 . S
O79 In78 2.294 . S
O79 C88 1.240 . S
O80 In78 2.326 . S
O80 C88 1.252 . S
C81 O84 1.252 . S
C81 O85 1.260 . S
C82 O89 1.240 . S
C82 O90 1.252 . S
C83 O86 1.252 . S
C83 O87 1.260 . S
O84 In78 2.266 . S
O84 C81 1.252 . S
O85 In78 2.326 . S
O85 C81 1.260 . S
O86 In78 2.266 . S
O86 C83 1.252 . S
O87 In78 2.326 . S
O87 C83 1.260 . S
C88 O79 1.240 . S
C88 O80 1.252 . S
O89 In78 2.294 . S
O89 C82 1.240 . S
O90 In78 2.326 . S
O90 C82 1.252 . S
In91 O92 2.294 . S
In91 O93 2.326 . S
In91 O97 2.266 . S
In91 O98 2.326 . S
In91 O99 2.266 . S
In91 O100 2.326 . S
In91 O102 2.294 . S
In91 O103 2.326 . S
O92 In91 2.294 . S
O92 C101 1.240 . S
O93 In91 2.326 . S
O93 C101 1.252 . S
C94 O97 1.252 . S
C94 O98 1.260 . S
C95 O102 1.240 . S
C95 O103 1.252 . S
C96 O99 1.252 . S
C96 O100 1.260 . S
O97 In91 2.266 . S
O97 C94 1.252 . S
O98 In91 2.326 . S
O98 C94 1.260 . S
O99 In91 2.266 . S
O99 C96 1.252 . S
O100 In91 2.326 . S
O100 C96 1.260 . S
C101 O92 1.240 . S
C101 O93 1.252 . S
O102 In91 2.294 . S
O102 C95 1.240 . S
O103 In91 2.326 . S
O103 C95 1.252 . S
In104 O105 2.294 . S
In104 O106 2.326 . S
In104 O110 2.266 . S
In104 O111 2.326 . S
In104 O112 2.266 . S
In104 O113 2.326 . S
In104 O115 2.294 . S
In104 O116 2.326 . S
O105 In104 2.294 . S
O105 C114 1.240 . S
O106 In104 2.326 . S
O106 C114 1.252 . S
C107 O110 1.252 . S
C107 O111 1.260 . S
C108 O115 1.240 . S
C108 O116 1.252 . S
C109 O112 1.252 . S
C109 O113 1.260 . S
O110 In104 2.266 . S
O110 C107 1.252 . S
O111 In104 2.326 . S
O111 C107 1.260 . S
O112 In104 2.266 . S
O112 C109 1.252 . S
O113 In104 2.326 . S
O113 C109 1.260 . S
C114 O105 1.240 . S
C114 O106 1.252 . S
O115 In104 2.294 . S
O115 C108 1.240 . S
O116 In104 2.326 . S
O116 C108 1.252 . S
In117 O118 2.294 . S
In117 O119 2.326 . S
In117 O123 2.266 . S
In117 O124 2.326 . S
In117 O125 2.266 . S
In117 O126 2.326 . S
In117 O128 2.294 . S
In117 O129 2.326 . S
O118 In117 2.294 . S
O118 C127 1.240 . S
O119 In117 2.326 . S
O119 C127 1.252 . S
C120 O123 1.252 . S
C120 O124 1.260 . S
C121 O128 1.240 . S
C121 O129 1.252 . S
C122 O125 1.252 . S
C122 O126 1.260 . S
O123 In117 2.266 . S
O123 C120 1.252 . S
O124 In117 2.326 . S
O124 C120 1.260 . S
O125 In117 2.266 . S
O125 C122 1.252 . S
O126 In117 2.326 . S
O126 C122 1.260 . S
C127 O118 1.240 . S
C127 O119 1.252 . S
O128 In117 2.294 . S
O128 C121 1.240 . S
O129 In117 2.326 . S
O129 C121 1.252 . S
In130 O131 2.294 . S
In130 O132 2.326 . S
In130 O136 2.266 . S
In130 O137 2.326 . S
In130 O138 2.266 . S
In130 O139 2.326 . S
In130 O141 2.294 . S
In130 O142 2.326 . S
O131 In130 2.294 . S
O131 C140 1.240 . S
O132 In130 2.326 . S
O132 C140 1.252 . S
C133 O136 1.252 . S
C133 O137 1.260 . S
C134 O141 1.240 . S
C134 O142 1.252 . S
C135 O138 1.252 . S
C135 O139 1.260 . S
O136 In130 2.266 . S
O136 C133 1.252 . S
O137 In130 2.326 . S
O137 C133 1.260 . S
O138 In130 2.266 . S
O138 C135 1.252 . S
O139 In130 2.326 . S
O139 C135 1.260 . S
C140 O131 1.240 . S
C140 O132 1.252 . S
O141 In130 2.294 . S
O141 C134 1.240 . S
O142 In130 2.326 . S
O142 C134 1.252 . S
In143 O144 2.294 . S
In143 O145 2.326 . S
In143 O149 2.266 . S
In143 O150 2.326 . S
In143 O151 2.266 . S
In143 O152 2.326 . S
In143 O154 2.294 . S
In143 O155 2.326 . S
O144 In143 2.294 . S
O144 C153 1.240 . S
O145 In143 2.326 . S
O145 C153 1.252 . S
C146 O149 1.252 . S
C146 O150 1.260 . S
C147 O154 1.240 . S
C147 O155 1.252 . S
C148 O151 1.252 . S
C148 O152 1.260 . S
O149 In143 2.266 . S
O149 C146 1.252 . S
O150 In143 2.326 . S
O150 C146 1.260 . S
O151 In143 2.266 . S
O151 C148 1.252 . S
O152 In143 2.326 . S
O152 C148 1.260 . S
C153 O144 1.240 . S
C153 O145 1.252 . S
O154 In143 2.294 . S
O154 C147 1.240 . S
O155 In143 2.326 . S
O155 C147 1.252 . S
In156 O157 2.294 . S
In156 O158 2.326 . S
In156 O162 2.266 . S
In156 O163 2.326 . S
In156 O164 2.266 . S
In156 O165 2.326 . S
In156 O167 2.294 . S
In156 O168 2.326 . S
O157 In156 2.294 . S
O157 C166 1.240 . S
O158 In156 2.326 . S
O158 C166 1.252 . S
C159 O162 1.252 . S
C159 O163 1.260 . S
C160 O167 1.240 . S
C160 O168 1.252 . S
C161 O164 1.252 . S
C161 O165 1.260 . S
O162 In156 2.266 . S
O162 C159 1.252 . S
O163 In156 2.326 . S
O163 C159 1.260 . S
O164 In156 2.266 . S
O164 C161 1.252 . S
O165 In156 2.326 . S
O165 C161 1.260 . S
C166 O157 1.240 . S
C166 O158 1.252 . S
O167 In156 2.294 . S
O167 C160 1.240 . S
O168 In156 2.326 . S
O168 C160 1.252 . S
In169 O170 2.294 . S
In169 O171 2.326 . S
In169 O175 2.266 . S
In169 O176 2.326 . S
In169 O177 2.266 . S
In169 O178 2.326 . S
In169 O180 2.294 . S
In169 O181 2.326 . S
O170 In169 2.294 . S
O170 C179 1.240 . S
O171 In169 2.326 . S
O171 C179 1.252 . S
C172 O175 1.252 . S
C172 O176 1.260 . S
C173 O180 1.240 . S
C173 O181 1.252 . S
C174 O177 1.252 . S
C174 O178 1.260 . S
O175 In169 2.266 . S
O175 C172 1.252 . S
O176 In169 2.326 . S
O176 C172 1.260 . S
O177 In169 2.266 . S
O177 C174 1.252 . S
O178 In169 2.326 . S
O178 C174 1.260 . S
C179 O170 1.240 . S
C179 O171 1.252 . S
O180 In169 2.294 . S
O180 C173 1.240 . S
O181 In169 2.326 . S
O181 C173 1.252 . S
In182 O183 2.294 . S
In182 O184 2.326 . S
In182 O188 2.266 . S
In182 O189 2.326 . S
In182 O190 2.266 . S
In182 O191 2.326 . S
In182 O193 2.294 . S
In182 O194 2.326 . S
O183 In182 2.294 . S
O183 C192 1.240 . S
O184 In182 2.326 . S
O184 C192 1.252 . S
C185 O188 1.252 . S
C185 O189 1.260 . S
C186 O193 1.240 . S
C186 O194 1.252 . S
C187 O190 1.252 . S
C187 O191 1.260 . S
O188 In182 2.266 . S
O188 C185 1.252 . S
O189 In182 2.326 . S
O189 C185 1.260 . S
O190 In182 2.266 . S
O190 C187 1.252 . S
O191 In182 2.326 . S
O191 C187 1.260 . S
C192 O183 1.240 . S
C192 O184 1.252 . S
O193 In182 2.294 . S
O193 C186 1.240 . S
O194 In182 2.326 . S
O194 C186 1.252 . S
In195 O196 2.294 . S
In195 O197 2.326 . S
In195 O201 2.266 . S
In195 O202 2.326 . S
In195 O203 2.266 . S
In195 O204 2.326 . S
In195 O206 2.294 . S
In195 O207 2.326 . S
O196 In195 2.294 . S
O196 C205 1.240 . S
O197 In195 2.326 . S
O197 C205 1.252 . S
C198 O201 1.252 . S
C198 O202 1.260 . S
C199 O206 1.240 . S
C199 O207 1.252 . S
C200 O203 1.252 . S
C200 O204 1.260 . S
O201 In195 2.266 . S
O201 C198 1.252 . S
O202 In195 2.326 . S
O202 C198 1.260 . S
O203 In195 2.266 . S
O203 C200 1.252 . S
O204 In195 2.326 . S
O204 C200 1.260 . S
C205 O196 1.240 . S
C205 O197 1.252 . S
O206 In195 2.294 . S
O206 C199 1.240 . S
O207 In195 2.326 . S
O207 C199 1.252 . S
In208 O209 2.294 . S
In208 O210 2.326 . S
In208 O214 2.266 . S
In208 O215 2.326 . S
In208 O216 2.266 . S
In208 O217 2.326 . S
In208 O219 2.294 . S
In208 O220 2.326 . S
O209 In208 2.294 . S
O209 C218 1.240 . S
O210 In208 2.326 . S
O210 C218 1.252 . S
C211 O214 1.252 . S
C211 O215 1.260 . S
C212 O219 1.240 . S
C212 O220 1.252 . S
C213 O216 1.252 . S
C213 O217 1.260 . S
O214 In208 2.266 . S
O214 C211 1.252 . S
O215 In208 2.326 . S
O215 C211 1.260 . S
O216 In208 2.266 . S
O216 C213 1.252 . S
O217 In208 2.326 . S
O217 C213 1.260 . S
C218 O209 1.240 . S
C218 O210 1.252 . S
O219 In208 2.294 . S
O219 C212 1.240 . S
O220 In208 2.326 . S
O220 C212 1.252 . S
In221 O222 2.294 . S
In221 O223 2.326 . S
In221 O227 2.266 . S
In221 O228 2.326 . S
In221 O229 2.266 . S
In221 O230 2.326 . S
In221 O232 2.294 . S
In221 O233 2.326 . S
O222 In221 2.294 . S
O222 C231 1.240 . S
O223 In221 2.326 . S
O223 C231 1.252 . S
C224 O227 1.252 . S
C224 O228 1.260 . S
C225 O232 1.240 . S
C225 O233 1.252 . S
C226 O229 1.252 . S
C226 O230 1.260 . S
O227 In221 2.266 . S
O227 C224 1.252 . S
O228 In221 2.326 . S
O228 C224 1.260 . S
O229 In221 2.266 . S
O229 C226 1.252 . S
O230 In221 2.326 . S
O230 C226 1.260 . S
C231 O222 1.240 . S
C231 O223 1.252 . S
O232 In221 2.294 . S
O232 C225 1.240 . S
O233 In221 2.326 . S
O233 C225 1.252 . S
In234 O235 2.294 . S
In234 O236 2.326 . S
In234 O240 2.266 . S
In234 O241 2.326 . S
In234 O242 2.266 . S
In234 O243 2.326 . S
In234 O245 2.294 . S
In234 O246 2.326 . S
O235 In234 2.294 . S
O235 C244 1.240 . S
O236 In234 2.326 . S
O236 C244 1.252 . S
C237 O240 1.252 . S
C237 O241 1.260 . S
C238 O245 1.240 . S
C238 O246 1.252 . S
C239 O242 1.252 . S
C239 O243 1.260 . S
O240 In234 2.266 . S
O240 C237 1.252 . S
O241 In234 2.326 . S
O241 C237 1.260 . S
O242 In234 2.266 . S
O242 C239 1.252 . S
O243 In234 2.326 . S
O243 C239 1.260 . S
C244 O235 1.240 . S
C244 O236 1.252 . S
O245 In234 2.294 . S
O245 C238 1.240 . S
O246 In234 2.326 . S
O246 C238 1.252 . S
In247 O248 2.294 . S
In247 O249 2.326 . S
In247 O253 2.266 . S
In247 O254 2.326 . S
In247 O255 2.266 . S
In247 O256 2.326 . S
In247 O258 2.294 . S
In247 O259 2.326 . S
O248 In247 2.294 . S
O248 C257 1.240 . S
O249 In247 2.326 . S
O249 C257 1.252 . S
C250 O253 1.252 . S
C250 O254 1.260 . S
C251 O258 1.240 . S
C251 O259 1.252 . S
C252 O255 1.252 . S
C252 O256 1.260 . S
O253 In247 2.266 . S
O253 C250 1.252 . S
O254 In247 2.326 . S
O254 C250 1.260 . S
O255 In247 2.266 . S
O255 C252 1.252 . S
O256 In247 2.326 . S
O256 C252 1.260 . S
C257 O248 1.240 . S
C257 O249 1.252 . S
O258 In247 2.294 . S
O258 C251 1.240 . S
O259 In247 2.326 . S
O259 C251 1.252 . S
In260 O261 2.294 . S
In260 O262 2.326 . S
In260 O266 2.266 . S
In260 O267 2.326 . S
In260 O268 2.266 . S
In260 O269 2.326 . S
In260 O271 2.294 . S
In260 O272 2.326 . S
O261 In260 2.294 . S
O261 C270 1.240 . S
O262 In260 2.326 . S
O262 C270 1.252 . S
C263 O266 1.252 . S
C263 O267 1.260 . S
C264 O271 1.240 . S
C264 O272 1.252 . S
C265 O268 1.252 . S
C265 O269 1.260 . S
O266 In260 2.266 . S
O266 C263 1.252 . S
O267 In260 2.326 . S
O267 C263 1.260 . S
O268 In260 2.266 . S
O268 C265 1.252 . S
O269 In260 2.326 . S
O269 C265 1.260 . S
C270 O261 1.240 . S
C270 O262 1.252 . S
O271 In260 2.294 . S
O271 C264 1.240 . S
O272 In260 2.326 . S
O272 C264 1.252 . S
In273 O274 2.294 . S
In273 O275 2.326 . S
In273 O279 2.266 . S
In273 O280 2.326 . S
In273 O281 2.266 . S
In273 O282 2.326 . S
In273 O284 2.294 . S
In273 O285 2.326 . S
O274 In273 2.294 . S
O274 C283 1.240 . S
O275 In273 2.326 . S
O275 C283 1.252 . S
C276 O279 1.252 . S
C276 O280 1.260 . S
C277 O284 1.240 . S
C277 O285 1.252 . S
C278 O281 1.252 . S
C278 O282 1.260 . S
O279 In273 2.266 . S
O279 C276 1.252 . S
O280 In273 2.326 . S
O280 C276 1.260 . S
O281 In273 2.266 . S
O281 C278 1.252 . S
O282 In273 2.326 . S
O282 C278 1.260 . S
C283 O274 1.240 . S
C283 O275 1.252 . S
O284 In273 2.294 . S
O284 C277 1.240 . S
O285 In273 2.326 . S
O285 C277 1.252 . S
In286 O287 2.294 . S
In286 O288 2.326 . S
In286 O292 2.266 . S
In286 O293 2.326 . S
In286 O294 2.266 . S
In286 O295 2.326 . S
In286 O297 2.294 . S
In286 O298 2.326 . S
O287 In286 2.294 . S
O287 C296 1.240 . S
O288 In286 2.326 . S
O288 C296 1.252 . S
C289 O292 1.252 . S
C289 O293 1.260 . S
C290 O297 1.240 . S
C290 O298 1.252 . S
C291 O294 1.252 . S
C291 O295 1.260 . S
O292 In286 2.266 . S
O292 C289 1.252 . S
O293 In286 2.326 . S
O293 C289 1.260 . S
O294 In286 2.266 . S
O294 C291 1.252 . S
O295 In286 2.326 . S
O295 C291 1.260 . S
C296 O287 1.240 . S
C296 O288 1.252 . S
O297 In286 2.294 . S
O297 C290 1.240 . S
O298 In286 2.326 . S
O298 C290 1.252 . S
In299 O300 2.294 . S
In299 O301 2.326 . S
In299 O305 2.266 . S
In299 O306 2.326 . S
In299 O307 2.266 . S
In299 O308 2.326 . S
In299 O310 2.294 . S
In299 O311 2.326 . S
O300 In299 2.294 . S
O300 C309 1.240 . S
O301 In299 2.326 . S
O301 C309 1.252 . S
C302 O305 1.252 . S
C302 O306 1.260 . S
C303 O310 1.240 . S
C303 O311 1.252 . S
C304 O307 1.252 . S
C304 O308 1.260 . S
O305 In299 2.266 . S
O305 C302 1.252 . S
O306 In299 2.326 . S
O306 C302 1.260 . S
O307 In299 2.266 . S
O307 C304 1.252 . S
O308 In299 2.326 . S
O308 C304 1.260 . S
C309 O300 1.240 . S
C309 O301 1.252 . S
O310 In299 2.294 . S
O310 C303 1.240 . S
O311 In299 2.326 . S
O311 C303 1.252 . S
In312 O313 2.294 . S
In312 O314 2.326 . S
In312 O318 2.266 . S
In312 O319 2.326 . S
In312 O320 2.266 . S
In312 O321 2.326 . S
In312 O323 2.294 . S
In312 O324 2.326 . S
O313 In312 2.294 . S
O313 C322 1.240 . S
O314 In312 2.326 . S
O314 C322 1.252 . S
C315 O318 1.252 . S
C315 O319 1.260 . S
C316 O323 1.240 . S
C316 O324 1.252 . S
C317 O320 1.252 . S
C317 O321 1.260 . S
O318 In312 2.266 . S
O318 C315 1.252 . S
O319 In312 2.326 . S
O319 C315 1.260 . S
O320 In312 2.266 . S
O320 C317 1.252 . S
O321 In312 2.326 . S
O321 C317 1.260 . S
C322 O313 1.240 . S
C322 O314 1.252 . S
O323 In312 2.294 . S
O323 C316 1.240 . S
O324 In312 2.326 . S
O324 C316 1.252 . S
In325 O326 2.294 . S
In325 O327 2.326 . S
In325 O331 2.266 . S
In325 O332 2.326 . S
In325 O333 2.266 . S
In325 O334 2.326 . S
In325 O336 2.294 . S
In325 O337 2.326 . S
O326 In325 2.294 . S
O326 C335 1.240 . S
O327 In325 2.326 . S
O327 C335 1.252 . S
C328 O331 1.252 . S
C328 O332 1.260 . S
C329 O336 1.240 . S
C329 O337 1.252 . S
C330 O333 1.252 . S
C330 O334 1.260 . S
O331 In325 2.266 . S
O331 C328 1.252 . S
O332 In325 2.326 . S
O332 C328 1.260 . S
O333 In325 2.266 . S
O333 C330 1.252 . S
O334 In325 2.326 . S
O334 C330 1.260 . S
C335 O326 1.240 . S
C335 O327 1.252 . S
O336 In325 2.294 . S
O336 C329 1.240 . S
O337 In325 2.326 . S
O337 C329 1.252 . S
In338 O339 2.294 . S
In338 O340 2.326 . S
In338 O344 2.266 . S
In338 O345 2.326 . S
In338 O346 2.266 . S
In338 O347 2.326 . S
In338 O349 2.294 . S
In338 O350 2.326 . S
O339 In338 2.294 . S
O339 C348 1.240 . S
O340 In338 2.326 . S
O340 C348 1.252 . S
C341 O344 1.252 . S
C341 O345 1.260 . S
C342 O349 1.240 . S
C342 O350 1.252 . S
C343 O346 1.252 . S
C343 O347 1.260 . S
O344 In338 2.266 . S
O344 C341 1.252 . S
O345 In338 2.326 . S
O345 C341 1.260 . S
O346 In338 2.266 . S
O346 C343 1.252 . S
O347 In338 2.326 . S
O347 C343 1.260 . S
C348 O339 1.240 . S
C348 O340 1.252 . S
O349 In338 2.294 . S
O349 C342 1.240 . S
O350 In338 2.326 . S
O350 C342 1.252 . S
In351 O352 2.294 . S
In351 O353 2.326 . S
In351 O357 2.266 . S
In351 O358 2.326 . S
In351 O359 2.266 . S
In351 O360 2.326 . S
In351 O362 2.294 . S
In351 O363 2.326 . S
O352 In351 2.294 . S
O352 C361 1.240 . S
O353 In351 2.326 . S
O353 C361 1.252 . S
C354 O357 1.252 . S
C354 O358 1.260 . S
C355 O362 1.240 . S
C355 O363 1.252 . S
C356 O359 1.252 . S
C356 O360 1.260 . S
O357 In351 2.266 . S
O357 C354 1.252 . S
O358 In351 2.326 . S
O358 C354 1.260 . S
O359 In351 2.266 . S
O359 C356 1.252 . S
O360 In351 2.326 . S
O360 C356 1.260 . S
C361 O352 1.240 . S
C361 O353 1.252 . S
O362 In351 2.294 . S
O362 C355 1.240 . S
O363 In351 2.326 . S
O363 C355 1.252 . S
In364 O365 2.294 . S
In364 O366 2.326 . S
In364 O370 2.266 . S
In364 O371 2.326 . S
In364 O372 2.266 . S
In364 O373 2.326 . S
In364 O375 2.294 . S
In364 O376 2.326 . S
O365 In364 2.294 . S
O365 C374 1.240 . S
O366 In364 2.326 . S
O366 C374 1.252 . S
C367 O370 1.252 . S
C367 O371 1.260 . S
C368 O375 1.240 . S
C368 O376 1.252 . S
C369 O372 1.252 . S
C369 O373 1.260 . S
O370 In364 2.266 . S
O370 C367 1.252 . S
O371 In364 2.326 . S
O371 C367 1.260 . S
O372 In364 2.266 . S
O372 C369 1.252 . S
O373 In364 2.326 . S
O373 C369 1.260 . S
C374 O365 1.240 . S
C374 O366 1.252 . S
O375 In364 2.294 . S
O375 C368 1.240 . S
O376 In364 2.326 . S
O376 C368 1.252 . S
In377 O378 2.294 . S
In377 O379 2.326 . S
In377 O383 2.266 . S
In377 O384 2.326 . S
In377 O385 2.266 . S
In377 O386 2.326 . S
In377 O388 2.294 . S
In377 O389 2.326 . S
O378 In377 2.294 . S
O378 C387 1.240 . S
O379 In377 2.326 . S
O379 C387 1.252 . S
C380 O383 1.252 . S
C380 O384 1.260 . S
C381 O388 1.240 . S
C381 O389 1.252 . S
C382 O385 1.252 . S
C382 O386 1.260 . S
O383 In377 2.266 . S
O383 C380 1.252 . S
O384 In377 2.326 . S
O384 C380 1.260 . S
O385 In377 2.266 . S
O385 C382 1.252 . S
O386 In377 2.326 . S
O386 C382 1.260 . S
C387 O378 1.240 . S
C387 O379 1.252 . S
O388 In377 2.294 . S
O388 C381 1.240 . S
O389 In377 2.326 . S
O389 C381 1.252 . S
In390 O391 2.294 . S
In390 O392 2.326 . S
In390 O396 2.266 . S
In390 O397 2.326 . S
In390 O398 2.266 . S
In390 O399 2.326 . S
In390 O401 2.294 . S
In390 O402 2.326 . S
O391 In390 2.294 . S
O391 C400 1.240 . S
O392 In390 2.326 . S
O392 C400 1.252 . S
C393 O396 1.252 . S
C393 O397 1.260 . S
C394 O401 1.240 . S
C394 O402 1.252 . S
C395 O398 1.252 . S
C395 O399 1.260 . S
O396 In390 2.266 . S
O396 C393 1.252 . S
O397 In390 2.326 . S
O397 C393 1.260 . S
O398 In390 2.266 . S
O398 C395 1.252 . S
O399 In390 2.326 . S
O399 C395 1.260 . S
C400 O391 1.240 . S
C400 O392 1.252 . S
O401 In390 2.294 . S
O401 C394 1.240 . S
O402 In390 2.326 . S
O402 C394 1.252 . S
In403 O404 2.294 . S
In403 O405 2.326 . S
In403 O409 2.266 . S
In403 O410 2.326 . S
In403 O411 2.266 . S
In403 O412 2.326 . S
In403 O414 2.294 . S
In403 O415 2.326 . S
O404 In403 2.294 . S
O404 C413 1.240 . S
O405 In403 2.326 . S
O405 C413 1.252 . S
C406 O409 1.252 . S
C406 O410 1.260 . S
C407 O414 1.240 . S
C407 O415 1.252 . S
C408 O411 1.252 . S
C408 O412 1.260 . S
O409 In403 2.266 . S
O409 C406 1.252 . S
O410 In403 2.326 . S
O410 C406 1.260 . S
O411 In403 2.266 . S
O411 C408 1.252 . S
O412 In403 2.326 . S
O412 C408 1.260 . S
C413 O404 1.240 . S
C413 O405 1.252 . S
O414 In403 2.294 . S
O414 C407 1.240 . S
O415 In403 2.326 . S
O415 C407 1.252 . S
In416 O417 2.294 . S
In416 O418 2.326 . S
In416 O422 2.266 . S
In416 O423 2.326 . S
In416 O424 2.266 . S
In416 O425 2.326 . S
In416 O427 2.294 . S
In416 O428 2.326 . S
O417 In416 2.294 . S
O417 C426 1.240 . S
O418 In416 2.326 . S
O418 C426 1.252 . S
C419 O422 1.252 . S
C419 O423 1.260 . S
C420 O427 1.240 . S
C420 O428 1.252 . S
C421 O424 1.252 . S
C421 O425 1.260 . S
O422 In416 2.266 . S
O422 C419 1.252 . S
O423 In416 2.326 . S
O423 C419 1.260 . S
O424 In416 2.266 . S
O424 C421 1.252 . S
O425 In416 2.326 . S
O425 C421 1.260 . S
C426 O417 1.240 . S
C426 O418 1.252 . S
O427 In416 2.294 . S
O427 C420 1.240 . S
O428 In416 2.326 . S
O428 C420 1.252 . S
In429 O430 2.294 . S
In429 O431 2.326 . S
In429 O435 2.266 . S
In429 O436 2.326 . S
In429 O437 2.266 . S
In429 O438 2.326 . S
In429 O440 2.294 . S
In429 O441 2.326 . S
O430 In429 2.294 . S
O430 C439 1.240 . S
O431 In429 2.326 . S
O431 C439 1.252 . S
C432 O435 1.252 . S
C432 O436 1.260 . S
C433 O440 1.240 . S
C433 O441 1.252 . S
C434 O437 1.252 . S
C434 O438 1.260 . S
O435 In429 2.266 . S
O435 C432 1.252 . S
O436 In429 2.326 . S
O436 C432 1.260 . S
O437 In429 2.266 . S
O437 C434 1.252 . S
O438 In429 2.326 . S
O438 C434 1.260 . S
C439 O430 1.240 . S
C439 O431 1.252 . S
O440 In429 2.294 . S
O440 C433 1.240 . S
O441 In429 2.326 . S
O441 C433 1.252 . S
In442 O443 2.294 . S
In442 O444 2.326 . S
In442 O448 2.266 . S
In442 O449 2.326 . S
In442 O450 2.266 . S
In442 O451 2.326 . S
In442 O453 2.294 . S
In442 O454 2.326 . S
O443 In442 2.294 . S
O443 C452 1.240 . S
O444 In442 2.326 . S
O444 C452 1.252 . S
C445 O448 1.252 . S
C445 O449 1.260 . S
C446 O453 1.240 . S
C446 O454 1.252 . S
C447 O450 1.252 . S
C447 O451 1.260 . S
O448 In442 2.266 . S
O448 C445 1.252 . S
O449 In442 2.326 . S
O449 C445 1.260 . S
O450 In442 2.266 . S
O450 C447 1.252 . S
O451 In442 2.326 . S
O451 C447 1.260 . S
C452 O443 1.240 . S
C452 O444 1.252 . S
O453 In442 2.294 . S
O453 C446 1.240 . S
O454 In442 2.326 . S
O454 C446 1.252 . S
In455 O456 2.294 . S
In455 O457 2.326 . S
In455 O461 2.266 . S
In455 O462 2.326 . S
In455 O463 2.266 . S
In455 O464 2.326 . S
In455 O466 2.294 . S
In455 O467 2.326 . S
O456 In455 2.294 . S
O456 C465 1.240 . S
O457 In455 2.326 . S
O457 C465 1.252 . S
C458 O461 1.252 . S
C458 O462 1.260 . S
C459 O466 1.240 . S
C459 O467 1.252 . S
C460 O463 1.252 . S
C460 O464 1.260 . S
O461 In455 2.266 . S
O461 C458 1.252 . S
O462 In455 2.326 . S
O462 C458 1.260 . S
O463 In455 2.266 . S
O463 C460 1.252 . S
O464 In455 2.326 . S
O464 C460 1.260 . S
C465 O456 1.240 . S
C465 O457 1.252 . S
O466 In455 2.294 . S
O466 C459 1.240 . S
O467 In455 2.326 . S
O467 C459 1.252 . S
In468 O469 2.294 . S
In468 O470 2.326 . S
In468 O474 2.266 . S
In468 O475 2.326 . S
In468 O476 2.266 . S
In468 O477 2.326 . S
In468 O479 2.294 . S
In468 O480 2.326 . S
O469 In468 2.294 . S
O469 C478 1.240 . S
O470 In468 2.326 . S
O470 C478 1.252 . S
C471 O474 1.252 . S
C471 O475 1.260 . S
C472 O479 1.240 . S
C472 O480 1.252 . S
C473 O476 1.252 . S
C473 O477 1.260 . S
O474 In468 2.266 . S
O474 C471 1.252 . S
O475 In468 2.326 . S
O475 C471 1.260 . S
O476 In468 2.266 . S
O476 C473 1.252 . S
O477 In468 2.326 . S
O477 C473 1.260 . S
C478 O469 1.240 . S
C478 O470 1.252 . S
O479 In468 2.294 . S
O479 C472 1.240 . S
O480 In468 2.326 . S
O480 C472 1.252 . S
In481 O482 2.294 . S
In481 O483 2.326 . S
In481 O487 2.266 . S
In481 O488 2.326 . S
In481 O489 2.266 . S
In481 O490 2.326 . S
In481 O492 2.294 . S
In481 O493 2.326 . S
O482 In481 2.294 . S
O482 C491 1.240 . S
O483 In481 2.326 . S
O483 C491 1.252 . S
C484 O487 1.252 . S
C484 O488 1.260 . S
C485 O492 1.240 . S
C485 O493 1.252 . S
C486 O489 1.252 . S
C486 O490 1.260 . S
O487 In481 2.266 . S
O487 C484 1.252 . S
O488 In481 2.326 . S
O488 C484 1.260 . S
O489 In481 2.266 . S
O489 C486 1.252 . S
O490 In481 2.326 . S
O490 C486 1.260 . S
C491 O482 1.240 . S
C491 O483 1.252 . S
O492 In481 2.294 . S
O492 C485 1.240 . S
O493 In481 2.326 . S
O493 C485 1.252 . S
In494 O495 2.294 . S
In494 O496 2.326 . S
In494 O500 2.266 . S
In494 O501 2.326 . S
In494 O502 2.266 . S
In494 O503 2.326 . S
In494 O505 2.294 . S
In494 O506 2.326 . S
O495 In494 2.294 . S
O495 C504 1.240 . S
O496 In494 2.326 . S
O496 C504 1.252 . S
C497 O500 1.252 . S
C497 O501 1.260 . S
C498 O505 1.240 . S
C498 O506 1.252 . S
C499 O502 1.252 . S
C499 O503 1.260 . S
O500 In494 2.266 . S
O500 C497 1.252 . S
O501 In494 2.326 . S
O501 C497 1.260 . S
O502 In494 2.266 . S
O502 C499 1.252 . S
O503 In494 2.326 . S
O503 C499 1.260 . S
C504 O495 1.240 . S
C504 O496 1.252 . S
O505 In494 2.294 . S
O505 C498 1.240 . S
O506 In494 2.326 . S
O506 C498 1.252 . S
In507 O508 2.294 . S
In507 O509 2.326 . S
In507 O513 2.266 . S
In507 O514 2.326 . S
In507 O515 2.266 . S
In507 O516 2.326 . S
In507 O518 2.294 . S
In507 O519 2.326 . S
O508 In507 2.294 . S
O508 C517 1.240 . S
O509 In507 2.326 . S
O509 C517 1.252 . S
C510 O513 1.252 . S
C510 O514 1.260 . S
C511 O518 1.240 . S
C511 O519 1.252 . S
C512 O515 1.252 . S
C512 O516 1.260 . S
O513 In507 2.266 . S
O513 C510 1.252 . S
O514 In507 2.326 . S
O514 C510 1.260 . S
O515 In507 2.266 . S
O515 C512 1.252 . S
O516 In507 2.326 . S
O516 C512 1.260 . S
C517 O508 1.240 . S
C517 O509 1.252 . S
O518 In507 2.294 . S
O518 C511 1.240 . S
O519 In507 2.326 . S
O519 C511 1.252 . S
In520 O521 2.294 . S
In520 O522 2.326 . S
In520 O526 2.266 . S
In520 O527 2.326 . S
In520 O528 2.266 . S
In520 O529 2.326 . S
In520 O531 2.294 . S
In520 O532 2.326 . S
O521 In520 2.294 . S
O521 C530 1.240 . S
O522 In520 2.326 . S
O522 C530 1.252 . S
C523 O526 1.252 . S
C523 O527 1.260 . S
C524 O531 1.240 . S
C524 O532 1.252 . S
C525 O528 1.252 . S
C525 O529 1.260 . S
O526 In520 2.266 . S
O526 C523 1.252 . S
O527 In520 2.326 . S
O527 C523 1.260 . S
O528 In520 2.266 . S
O528 C525 1.252 . S
O529 In520 2.326 . S
O529 C525 1.260 . S
C530 O521 1.240 . S
C530 O522 1.252 . S
O531 In520 2.294 . S
O531 C524 1.240 . S
O532 In520 2.326 . S
O532 C524 1.252 . S
In533 O534 2.294 . S
In533 O535 2.326 . S
In533 O539 2.266 . S
In533 O540 2.326 . S
In533 O541 2.266 . S
In533 O542 2.326 . S
In533 O544 2.294 . S
In533 O545 2.326 . S
O534 In533 2.294 . S
O534 C543 1.240 . S
O535 In533 2.326 . S
O535 C543 1.252 . S
C536 O539 1.252 . S
C536 O540 1.260 . S
C537 O544 1.240 . S
C537 O545 1.252 . S
C538 O541 1.252 . S
C538 O542 1.260 . S
O539 In533 2.266 . S
O539 C536 1.252 . S
O540 In533 2.326 . S
O540 C536 1.260 . S
O541 In533 2.266 . S
O541 C538 1.252 . S
O542 In533 2.326 . S
O542 C538 1.260 . S
C543 O534 1.240 . S
C543 O535 1.252 . S
O544 In533 2.294 . S
O544 C537 1.240 . S
O545 In533 2.326 . S
O545 C537 1.252 . S
In546 O547 2.294 . S
In546 O548 2.326 . S
In546 O552 2.266 . S
In546 O553 2.326 . S
In546 O554 2.266 . S
In546 O555 2.326 . S
In546 O557 2.294 . S
In546 O558 2.326 . S
O547 In546 2.294 . S
O547 C556 1.240 . S
O548 In546 2.326 . S
O548 C556 1.252 . S
C549 O552 1.252 . S
C549 O553 1.260 . S
C550 O557 1.240 . S
C550 O558 1.252 . S
C551 O554 1.252 . S
C551 O555 1.260 . S
O552 In546 2.266 . S
O552 C549 1.252 . S
O553 In546 2.326 . S
O553 C549 1.260 . S
O554 In546 2.266 . S
O554 C551 1.252 . S
O555 In546 2.326 . S
O555 C551 1.260 . S
C556 O547 1.240 . S
C556 O548 1.252 . S
O557 In546 2.294 . S
O557 C550 1.240 . S
O558 In546 2.326 . S
O558 C550 1.252 . S
In559 O560 2.294 . S
In559 O561 2.326 . S
In559 O565 2.266 . S
In559 O566 2.326 . S
In559 O567 2.266 . S
In559 O568 2.326 . S
In559 O570 2.294 . S
In559 O571 2.326 . S
O560 In559 2.294 . S
O560 C569 1.240 . S
O561 In559 2.326 . S
O561 C569 1.252 . S
C562 O565 1.252 . S
C562 O566 1.260 . S
C563 O570 1.240 . S
C563 O571 1.252 . S
C564 O567 1.252 . S
C564 O568 1.260 . S
O565 In559 2.266 . S
O565 C562 1.252 . S
O566 In559 2.326 . S
O566 C562 1.260 . S
O567 In559 2.266 . S
O567 C564 1.252 . S
O568 In559 2.326 . S
O568 C564 1.260 . S
C569 O560 1.240 . S
C569 O561 1.252 . S
O570 In559 2.294 . S
O570 C563 1.240 . S
O571 In559 2.326 . S
O571 C563 1.252 . S
In572 O573 2.294 . S
In572 O574 2.326 . S
In572 O578 2.266 . S
In572 O579 2.326 . S
In572 O580 2.266 . S
In572 O581 2.326 . S
In572 O583 2.294 . S
In572 O584 2.326 . S
O573 In572 2.294 . S
O573 C582 1.240 . S
O574 In572 2.326 . S
O574 C582 1.252 . S
C575 O578 1.252 . S
C575 O579 1.260 . S
C576 O583 1.240 . S
C576 O584 1.252 . S
C577 O580 1.252 . S
C577 O581 1.260 . S
O578 In572 2.266 . S
O578 C575 1.252 . S
O579 In572 2.326 . S
O579 C575 1.260 . S
O580 In572 2.266 . S
O580 C577 1.252 . S
O581 In572 2.326 . S
O581 C577 1.260 . S
C582 O573 1.240 . S
C582 O574 1.252 . S
O583 In572 2.294 . S
O583 C576 1.240 . S
O584 In572 2.326 . S
O584 C576 1.252 . S
In585 O586 2.294 . S
In585 O587 2.326 . S
In585 O591 2.266 . S
In585 O592 2.326 . S
In585 O593 2.266 . S
In585 O594 2.326 . S
In585 O596 2.294 . S
In585 O597 2.326 . S
O586 In585 2.294 . S
O586 C595 1.240 . S
O587 In585 2.326 . S
O587 C595 1.252 . S
C588 O591 1.252 . S
C588 O592 1.260 . S
C589 O596 1.240 . S
C589 O597 1.252 . S
C590 O593 1.252 . S
C590 O594 1.260 . S
O591 In585 2.266 . S
O591 C588 1.252 . S
O592 In585 2.326 . S
O592 C588 1.260 . S
O593 In585 2.266 . S
O593 C590 1.252 . S
O594 In585 2.326 . S
O594 C590 1.260 . S
C595 O586 1.240 . S
C595 O587 1.252 . S
O596 In585 2.294 . S
O596 C589 1.240 . S
O597 In585 2.326 . S
O597 C589 1.252 . S
In598 O599 2.294 . S
In598 O600 2.326 . S
In598 O604 2.266 . S
In598 O605 2.326 . S
In598 O606 2.266 . S
In598 O607 2.326 . S
In598 O609 2.294 . S
In598 O610 2.326 . S
O599 In598 2.294 . S
O599 C608 1.240 . S
O600 In598 2.326 . S
O600 C608 1.252 . S
C601 O604 1.252 . S
C601 O605 1.260 . S
C602 O609 1.240 . S
C602 O610 1.252 . S
C603 O606 1.252 . S
C603 O607 1.260 . S
O604 In598 2.266 . S
O604 C601 1.252 . S
O605 In598 2.326 . S
O605 C601 1.260 . S
O606 In598 2.266 . S
O606 C603 1.252 . S
O607 In598 2.326 . S
O607 C603 1.260 . S
C608 O599 1.240 . S
C608 O600 1.252 . S
O609 In598 2.294 . S
O609 C602 1.240 . S
O610 In598 2.326 . S
O610 C602 1.252 . S
In611 O612 2.294 . S
In611 O613 2.326 . S
In611 O617 2.266 . S
In611 O618 2.326 . S
In611 O619 2.266 . S
In611 O620 2.326 . S
In611 O622 2.294 . S
In611 O623 2.326 . S
O612 In611 2.294 . S
O612 C621 1.240 . S
O613 In611 2.326 . S
O613 C621 1.252 . S
C614 O617 1.252 . S
C614 O618 1.260 . S
C615 O622 1.240 . S
C615 O623 1.252 . S
C616 O619 1.252 . S
C616 O620 1.260 . S
O617 In611 2.266 . S
O617 C614 1.252 . S
O618 In611 2.326 . S
O618 C614 1.260 . S
O619 In611 2.266 . S
O619 C616 1.252 . S
O620 In611 2.326 . S
O620 C616 1.260 . S
C621 O612 1.240 . S
C621 O613 1.252 . S
O622 In611 2.294 . S
O622 C615 1.240 . S
O623 In611 2.326 . S
O623 C615 1.252 . S
C265 C3 2.252 . S
C17 C231 2.225 . S
C29 C237 2.252 . S
C257 C43 2.225 . S
C304 C56 2.242 . S
C75 C283 2.228 . S
C88 C289 2.242 . S
C101 C218 2.228 . S
C109 C200 2.250 . S
C121 C159 2.244 . S
C135 C172 2.250 . S
C185 C147 2.244 . S
C322 C575 2.039 . S
C537 C335 2.006 . S
C348 C549 2.039 . S
C569 C361 2.006 . S
C369 C614 2.066 . S
C595 C387 2.010 . S
C395 C601 2.066 . S
C530 C407 2.010 . S
C419 C511 2.038 . S
C473 C434 2.067 . S
C491 C447 2.038 . S
C497 C460 2.067 . S
C341 C10 1.408 . S
C18 C354 1.408 1_556 S
C36 C315 1.408 . S
C44 C328 1.408 1_556 S
C57 C394 1.408 . S
C408 C68 1.408 1_556 S
C368 C81 1.408 . S
C380 C94 1.408 1_556 S
C472 C108 1.398 . S
C122 C484 1.412 1_565 S
C504 C134 1.398 . S
C148 C512 1.412 1_545 S
C166 C426 1.398 . S
C179 C433 1.404 1_565 S
C446 C192 1.398 . S
C459 C199 1.404 1_565 S
C211 C562 1.408 . S
C224 C588 1.408 . S
C608 C244 1.397 1_455 S
C523 C250 1.408 . S
C264 C621 1.397 1_455 S
C538 C276 1.408 . S
C296 C556 1.399 1_655 S
C303 C582 1.399 1_455 S
C374 C5 2.042 1_655 S
C382 C23 2.027 . S
C400 C31 2.042 1_455 S
C49 C406 2.027 . S
C317 C62 2.028 1_655 S
C330 C69 2.025 . S
C82 C343 2.028 1_655 S
C356 C95 2.025 . S
C107 C498 2.043 1_545 S
C127 C510 2.025 . S
C478 C133 2.043 1_545 S
C153 C486 2.025 . S
C452 C161 2.039 1_545 S
C174 C465 2.045 . S
C187 C420 2.039 1_545 S
C198 C439 2.045 . S
C590 C212 2.026 1_556 S
C225 C564 2.026 1_556 S
C239 C576 2.041 . S
C251 C536 2.026 1_556 S
C550 C263 2.041 . S
C525 C277 2.026 1_556 S
C615 C291 2.041 . S
C302 C602 2.041 . S
C205 C4 2.123 . S
C16 C160 2.112 . S
C173 C30 2.122 . S
C186 C42 2.112 . S
C120 C55 2.086 . S
C70 C140 2.107 . S
C83 C146 2.086 . S
C114 C96 2.107 . S
C213 C270 2.109 . S
C309 C226 2.111 . S
C278 C238 2.109 . S
C252 C290 2.110 . S
C517 C316 2.767 . S
C471 C329 2.771 . S
C342 C485 2.767 . S
C499 C355 2.771 . S
C432 C367 2.728 . S
C381 C445 2.771 . S
C393 C458 2.728 . S
C413 C421 2.771 . S
C524 C577 2.771 . S
C616 C543 2.771 . S
C589 C551 2.771 . S
C603 C563 2.771 . S
