# Generated by pormake.
# Topology lhb, (8)-cn, num edge types: 1
# Building blocks:
#     Node 0, Type 0, BuildingBlock: TAGTUT_clean_sbu_3, # of connection points: 8
#     Node 1, Type 0, BuildingBlock: TAGTUT_clean_sbu_3, # of connection points: 8
#     Node 2, Type 0, BuildingBlock: TAGTUT_clean_sbu_3, # of connection points: 8
#     Node 3, Type 0, BuildingBlock: TAGTUT_clean_sbu_3, # of connection points: 8
#     Node 4, Type 0, BuildingBlock: TAGTUT_clean_sbu_3, # of connection points: 8
#     Node 5, Type 0, BuildingBlock: TAGTUT_clean_sbu_3, # of connection points: 8
#     Node 6, Type 0, BuildingBlock: TAGTUT_clean_sbu_3, # of connection points: 8
#     Node 7, Type 0, BuildingBlock: TAGTUT_clean_sbu_3, # of connection points: 8
#     Edge 8, Type (0, 0), None
#     Edge 9, Type (0, 0), None
#     Edge 10, Type (0, 0), None
#     Edge 11, Type (0, 0), None
#     Edge 12, Type (0, 0), None
#     Edge 13, Type (0, 0), None
#     Edge 14, Type (0, 0), None
#     Edge 15, Type (0, 0), None
#     Edge 16, Type (0, 0), None
#     Edge 17, Type (0, 0), None
#     Edge 18, Type (0, 0), None
#     Edge 19, Type (0, 0), None
#     Edge 20, Type (0, 0), None
#     Edge 21, Type (0, 0), None
#     Edge 22, Type (0, 0), None
#     Edge 23, Type (0, 0), None
#     Edge 24, Type (0, 0), None
#     Edge 25, Type (0, 0), None
#     Edge 26, Type (0, 0), None
#     Edge 27, Type (0, 0), None
#     Edge 28, Type (0, 0), None
#     Edge 29, Type (0, 0), None
#     Edge 30, Type (0, 0), None
#     Edge 31, Type (0, 0), None
#     Edge 32, Type (0, 0), None
#     Edge 33, Type (0, 0), None
#     Edge 34, Type (0, 0), None
#     Edge 35, Type (0, 0), None
#     Edge 36, Type (0, 0), None
#     Edge 37, Type (0, 0), None
#     Edge 38, Type (0, 0), None
#     Edge 39, Type (0, 0), None
# Relax obj value: 0.081
# Max RMSD: 0.188
# Mean RMSD: 0.188
data_MOF--net-lhb--node1-TAGTUT_clean_sbu_3--edge1-none
_symmetry_space_group_name_H-M    P1
_symmetry_Int_Tables_number       1
_symmetry_cell_setting            triclinic
loop_
_symmetry_equiv_pos_as_xyz
'x, y, z'
_cell_length_a     20.040719
_cell_length_b     7.5660138
_cell_length_c     29.775167
_cell_angle_alpha  92.236544
_cell_angle_beta   89.965128
_cell_angle_gamma 90.162607
loop_
_atom_site_label
_atom_site_type_symbol
_atom_site_fract_x
_atom_site_fract_y
_atom_site_fract_z
_atom_type_partial_charge
C0 C 0.9512 0.35391 0.00713 0.0
C1 C 0.80466 0.15884 0.89105 0.0
C2 C 0.73638 0.70407 0.98203 0.0
Mg3 Mg 0.04591 0.16662 0.06772 0.0
Mg4 Mg 0.10672 0.77214 0.03635 0.0
O5 O 0.03122 0.90463 0.0537 0.0
Mg6 Mg 0.95797 0.92708 0.00866 0.0
O7 O 0.88653 -0.03431 0.96552 0.0
Mg8 Mg 0.82169 0.10076 1.00258 0.0
Mg9 Mg 0.85478 0.79518 0.92286 0.0
C10 C -0.02078 0.51339 0.01244 0.0
O11 O 0.02054 0.84263 0.94809 0.0
O12 O 0.10792 0.08102 0.12412 0.0
O13 O 0.94845 0.66593 0.90848 0.0
O14 O 0.13999 0.1895 0.0261 0.0
O15 O 0.15117 0.81494 0.10278 0.0
O16 O 0.17166 0.93514 0.99267 0.0
O17 O 0.88306 -0.01504 0.06525 0.0
O18 O 0.9522 0.14254 0.11046 0.0
C19 C 0.90435 0.03241 0.10468 0.0
C20 C 0.14415 -0.05343 0.13114 0.0
O21 O 0.93915 0.64407 0.01251 0.0
O22 O 0.78778 0.2026 0.93193 0.0
O23 O 0.0434 0.53224 0.01677 0.0
O24 O 0.74876 0.8567 1.00056 0.0
O25 O 0.82853 0.00628 0.87982 0.0
O26 O 0.77292 0.64129 0.95029 0.0
O27 O -0.01389 0.21592 0.00738 0.0
O28 O 0.88804 0.34198 0.0048 0.0
C29 C 0.17916 0.1026 0.99998 0.0
C30 C 0.00731 0.72466 0.91695 0.0
C31 C 0.29575 0.28649 0.35458 0.0
C32 C 0.05517 0.20277 0.38174 0.0
C33 C 0.01994 0.35384 0.25015 0.0
Mg34 Mg 0.37793 0.34962 0.25239 0.0
Mg35 Mg 0.34435 0.04272 0.17304 0.0
O36 O 0.31286 0.21332 0.21558 0.0
Mg37 Mg 0.24094 0.17642 0.25871 0.0
O38 O 0.16742 0.15599 0.304 0.0
Mg39 Mg 0.15377 0.41808 0.31745 0.0
Mg40 Mg 0.09119 0.02555 0.28707 0.0
C41 C 0.19177 -0.02812 0.16705 0.0
O42 O 0.25918 0.89827 0.26324 0.0
O43 O 0.41215 0.44998 0.1816 0.0
O44 O 0.15405 0.7884 0.26689 0.0
O45 O 0.4506 0.10695 0.25075 0.0
O46 O 0.37076 0.2531 0.12974 0.0
O47 O 0.42621 0.89086 0.20061 0.0
O48 O 0.2135 0.4607 0.25667 0.0
O49 O 0.31172 0.58821 0.25404 0.0
C50 C 0.2486 0.59778 0.25572 0.0
C51 C 0.39502 0.40572 0.14079 0.0
O52 O 0.17854 0.09014 0.19809 0.0
O53 O 0.09164 0.33689 0.37431 0.0
O54 O 0.25053 0.91285 0.15879 0.0
O55 O 0.05953 0.44119 0.27599 0.0
O56 O 0.04764 0.07035 0.35366 0.0
O57 O 0.02686 0.18633 0.24315 0.0
O58 O 0.31557 0.23624 0.31504 0.0
O59 O 0.24732 0.39406 0.3604 0.0
C60 C 0.46282 -0.04557 0.23226 0.0
C61 C 0.21813 0.76996 0.26273 0.0
C62 C 0.79573 0.78647 0.35457 0.0
C63 C 0.55514 0.70274 0.3817 0.0
C64 C 0.51994 0.85387 0.25011 0.0
Mg65 Mg 0.87794 0.84958 0.2524 0.0
Mg66 Mg 0.84438 0.54263 0.17306 0.0
O67 O 0.81288 0.71329 0.21558 0.0
Mg68 Mg 0.74095 0.67639 0.25869 0.0
O69 O 0.6674 0.65597 0.30397 0.0
Mg70 Mg 0.65375 0.91806 0.31742 0.0
Mg71 Mg 0.59117 0.52554 0.28703 0.0
C72 C 0.69181 0.47195 0.16699 0.0
O73 O 0.75918 0.39824 0.26323 0.0
O74 O 0.9122 -0.05011 0.18161 0.0
O75 O 0.65404 0.28838 0.26686 0.0
O76 O 0.9506 0.60691 0.25078 0.0
O77 O 0.87084 0.75295 0.12976 0.0
O78 O 0.92622 0.39078 0.20065 0.0
O79 O 0.7135 -0.03932 0.25665 0.0
O80 O 0.81173 0.08818 0.25403 0.0
C81 C 0.74861 0.09775 0.25571 0.0
C82 C 0.89509 0.90558 0.14081 0.0
O83 O 0.67858 0.5901 0.19806 0.0
O84 O 0.59161 0.83686 0.37427 0.0
O85 O 0.75057 0.4128 0.15878 0.0
O86 O 0.55952 0.94121 0.27595 0.0
O87 O 0.54761 0.57032 0.35363 0.0
O88 O 0.52685 0.68636 0.24311 0.0
O89 O 0.81555 0.73621 0.31503 0.0
O90 O 0.74728 0.89398 0.36039 0.0
C91 C -0.03717 0.45438 0.2323 0.0
C92 C 0.71813 0.26993 0.26271 0.0
C93 C 0.9519 0.85985 0.50755 0.0
C94 C 0.80578 0.66159 0.39101 0.0
C95 C 0.73705 0.20968 0.48257 0.0
Mg96 Mg 0.04659 0.67273 0.5682 0.0
Mg97 Mg 0.10734 0.27815 0.53686 0.0
O98 O 0.03187 0.4107 0.55425 0.0
Mg99 Mg 0.95869 0.43304 0.50916 0.0
O100 O 0.88735 0.47135 0.46599 0.0
Mg101 Mg 0.82243 0.6066 0.50283 0.0
Mg102 Mg 0.85563 0.29956 0.42367 0.0
C103 C -0.0201 0.01933 0.51295 0.0
O104 O 0.02124 0.34825 0.44855 0.0
O105 O 0.10865 0.58709 0.62459 0.0
O106 O 0.94901 0.16928 0.40972 0.0
O107 O 0.14067 0.69554 0.52662 0.0
O108 O 0.15189 0.32101 0.60322 0.0
O109 O 0.17225 0.44107 0.49319 0.0
O110 O 0.88369 0.49136 0.56572 0.0
O111 O 0.95284 0.64893 0.61093 0.0
C112 C 0.90498 0.53885 0.60516 0.0
C113 C 0.14492 0.45268 0.63157 0.0
O114 O 0.93982 0.15001 0.51306 0.0
O115 O 0.78897 0.70679 0.43183 0.0
O116 O 0.04407 0.0382 0.51729 0.0
O117 O 0.74942 0.36257 0.50095 0.0
O118 O 0.82955 0.50863 0.3801 0.0
O119 O 0.77369 0.14624 0.45098 0.0
O120 O -0.01319 0.72187 0.50784 0.0
O121 O 0.88876 0.84791 0.50506 0.0
C122 C 0.17981 0.60851 0.50051 0.0
C123 C 0.00783 0.22901 0.41774 0.0
C124 C 0.24885 0.10807 0.75747 0.0
C125 C 0.39568 0.91215 0.64127 0.0
C126 C 0.46357 0.45845 0.73255 0.0
Mg127 Mg 0.15408 0.91997 0.81813 0.0
Mg128 Mg 0.09293 0.52525 0.78641 0.0
O129 O 0.16849 0.65804 0.804 0.0
Mg130 Mg 0.24198 0.68108 0.75901 0.0
O131 O 0.31356 0.72005 0.71589 0.0
Mg132 Mg 0.37846 0.85551 0.75292 0.0
Mg133 Mg 0.34521 0.54881 0.67346 0.0
C134 C 0.22078 0.26731 0.76274 0.0
O135 O 0.17947 0.59629 0.69844 0.0
O136 O 0.09183 0.83372 0.87442 0.0
O137 O 0.25139 0.41913 0.65909 0.0
O138 O 0.05997 0.94368 0.77663 0.0
O139 O 0.04817 0.56775 0.85281 0.0
O140 O 0.0281 0.68952 0.74297 0.0
O141 O 0.31685 0.73936 0.8156 0.0
O142 O 0.2477 0.89553 0.86091 0.0
C143 C 0.29552 0.78604 0.85506 0.0
C144 C 0.05528 0.69917 0.88126 0.0
O145 O 0.26087 0.39847 0.76285 0.0
O146 O 0.41244 -0.04317 0.68213 0.0
O147 O 0.15656 0.28556 0.76697 0.0
O148 O 0.4514 0.61128 0.75101 0.0
O149 O 0.3718 0.75913 0.63018 0.0
O150 O 0.42687 0.39536 0.70089 0.0
O151 O 0.21393 -0.03037 0.75777 0.0
O152 O 0.31204 0.09679 0.75512 0.0
C153 C 0.02069 0.85691 0.75046 0.0
C154 C 0.19263 0.47805 0.6674 0.0
C155 C 0.74885 0.60805 0.75747 0.0
C156 C 0.89576 0.41199 0.6413 0.0
C157 C -0.03643 -0.04161 0.73261 0.0
Mg158 Mg 0.65403 0.41992 0.81811 0.0
Mg159 Mg 0.59289 0.02522 0.78636 0.0
O160 O 0.66845 0.15801 0.80397 0.0
Mg161 Mg 0.74197 0.18105 0.75901 0.0
O162 O 0.81358 0.22001 0.71591 0.0
Mg163 Mg 0.87847 0.35547 0.75295 0.0
Mg164 Mg 0.84524 0.04872 0.67349 0.0
C165 C 0.72077 0.76728 0.76273 0.0
O166 O 0.6795 0.09627 0.69842 0.0
O167 O 0.59172 0.33368 0.87436 0.0
O168 O 0.75142 0.91909 0.65908 0.0
O169 O 0.55996 0.44372 0.77657 0.0
O170 O 0.54811 0.06765 0.85276 0.0
O171 O 0.52807 0.18955 0.74292 0.0
O172 O 0.81681 0.23936 0.81561 0.0
O173 O 0.74757 0.39527 0.86093 0.0
C174 C 0.79555 0.28627 0.85506 0.0
C175 C 0.55515 0.19914 0.8812 0.0
O176 O 0.76086 0.89845 0.76285 0.0
O177 O 0.9125 0.45673 0.68215 0.0
O178 O 0.65655 0.78553 0.76694 0.0
O179 O 0.95141 0.11124 0.75106 0.0
O180 O 0.87188 0.25898 0.63021 0.0
O181 O 0.92688 0.89528 0.70094 0.0
O182 O 0.71393 0.4696 0.75776 0.0
O183 O 0.81204 0.59677 0.75512 0.0
C184 C 0.52068 0.35696 0.7504 0.0
C185 C 0.69267 -0.02186 0.66736 0.0
C186 C 0.45191 0.3598 0.50753 0.0
C187 C 0.30577 0.16157 0.39101 0.0
C188 C 0.23704 0.70967 0.48258 0.0
Mg189 Mg 0.54661 0.17267 0.56819 0.0
Mg190 Mg 0.60737 0.77809 0.53684 0.0
O191 O 0.5319 0.91064 0.55422 0.0
Mg192 Mg 0.4587 0.93299 0.50915 0.0
O193 O 0.38735 -0.0287 0.46598 0.0
Mg194 Mg 0.32243 0.10656 0.50283 0.0
Mg195 Mg 0.35561 0.79951 0.42367 0.0
C196 C 0.47992 0.51928 0.51294 0.0
O197 O 0.52123 0.84819 0.44852 0.0
O198 O 0.60867 0.08703 0.62456 0.0
O199 O 0.44899 0.66923 0.4097 0.0
O200 O 0.64068 0.19553 0.5266 0.0
O201 O 0.65193 0.82094 0.60321 0.0
O202 O 0.67228 0.94106 0.49318 0.0
O203 O 0.3837 -0.00867 0.5657 0.0
O204 O 0.4529 0.14873 0.61094 0.0
C205 C 0.40491 0.03905 0.60514 0.0
C206 C 0.64491 -0.04742 0.63156 0.0
O207 O 0.43984 0.64996 0.51305 0.0
O208 O 0.28896 0.20676 0.43183 0.0
O209 O 0.54409 0.53815 0.51727 0.0
O210 O 0.24942 0.86256 0.50096 0.0
O211 O 0.32953 0.0086 0.3801 0.0
O212 O 0.27367 0.64622 0.45099 0.0
O213 O 0.48682 0.22181 0.50783 0.0
O214 O 0.38877 0.34786 0.50505 0.0
C215 C 0.67982 0.10851 0.50049 0.0
C216 C 0.50781 0.72896 0.41772 0.0
C217 C 0.45121 0.85383 0.00711 0.0
C218 C 0.3046 0.65865 0.89105 0.0
C219 C 0.23636 0.20401 0.98206 0.0
Mg220 Mg 0.54594 0.66653 0.06769 0.0
Mg221 Mg 0.60677 0.27207 0.03631 0.0
O222 O 0.53126 0.40455 0.05367 0.0
Mg223 Mg 0.45799 0.427 0.00864 0.0
O224 O 0.38652 0.46559 0.96551 0.0
Mg225 Mg 0.32168 0.60068 1.00258 0.0
Mg226 Mg 0.35474 0.29503 0.92287 0.0
C227 C 0.47924 0.01331 0.01242 0.0
O228 O 0.52051 0.34251 0.94805 0.0
O229 O 0.60796 0.58094 0.12408 0.0
O230 O 0.4484 0.16575 0.90847 0.0
O231 O 0.64 0.6895 0.02606 0.0
O232 O 0.65122 0.31486 0.10275 0.0
O233 O 0.6717 0.43514 0.99264 0.0
O234 O 0.38309 0.4849 0.06524 0.0
O235 O 0.45228 0.64229 0.11047 0.0
C236 C 0.4043 0.53258 0.10467 0.0
C237 C 0.64415 0.44645 0.13111 0.0
O238 O 0.43916 0.14399 0.0125 0.0
O239 O 0.28774 0.70247 0.93193 0.0
O240 O 0.54341 0.03217 0.01674 0.0
O241 O 0.24875 0.35665 1.00058 0.0
O242 O 0.32847 0.50608 0.87983 0.0
O243 O 0.27289 0.14119 0.95032 0.0
O244 O 0.48612 0.71583 0.00736 0.0
O245 O 0.38805 0.8419 0.00478 0.0
C246 C 0.67918 0.60262 0.99994 0.0
C247 C 0.50726 0.2244 0.91694 0.0
loop_
_geom_bond_atom_site_label_1
_geom_bond_atom_site_label_2
_geom_bond_distance
_geom_bond_site_symmetry_2
_ccdc_geom_bond_type
C0 O27 1.312 1_656 S
C0 O28 1.208 . S
C1 O22 1.331 . S
C1 O25 1.244 1_545 S
C2 O24 1.264 . S
C2 O26 1.273 . S
Mg3 O5 1.936 1_545 S
Mg3 O12 2.081 . S
Mg3 O14 2.023 . S
Mg3 O18 2.031 1_455 S
Mg3 O27 2.291 . S
Mg4 O5 1.963 . S
Mg4 O15 1.942 . S
Mg4 O16 1.955 1_565 S
Mg4 O23 1.986 . S
O5 Mg3 1.936 1_565 S
O5 Mg4 1.963 . S
O5 Mg6 1.911 1_554 S
Mg6 O5 1.911 1_556 S
Mg6 O7 1.919 1_465 S
Mg6 O11 2.017 . S
Mg6 O17 2.110 1_466 S
Mg6 O21 2.013 . S
Mg6 O27 2.113 1_566 S
O7 Mg6 1.919 1_645 S
O7 Mg8 1.936 . S
O7 Mg9 1.963 1_545 S
Mg8 O7 1.936 . S
Mg8 O17 2.291 1_556 S
Mg8 O22 2.081 . S
Mg8 O24 2.023 1_545 S
Mg8 O28 2.031 . S
Mg9 O7 1.963 1_565 S
Mg9 O13 1.986 1_655 S
Mg9 O25 1.942 . S
Mg9 O26 1.955 . S
C10 O21 1.190 1_554 S
C10 O23 1.307 . S
O11 Mg6 2.017 . S
O11 C30 1.191 . S
O12 Mg3 2.081 . S
O12 C20 1.331 1_545 S
O13 Mg9 1.986 1_455 S
O13 C30 1.307 . S
O14 Mg3 2.023 . S
O14 C29 1.264 . S
O15 Mg4 1.942 . S
O15 C20 1.244 . S
O16 Mg4 1.955 1_545 S
O16 C29 1.273 . S
O17 Mg6 2.110 1_644 S
O17 Mg8 2.291 1_554 S
O17 C19 1.312 . S
O18 Mg3 2.031 1_655 S
O18 C19 1.208 . S
C19 O17 1.312 . S
C19 O18 1.208 . S
C20 O12 1.331 1_565 S
C20 O15 1.244 . S
O21 Mg6 2.013 . S
O21 C10 1.190 1_556 S
O22 C1 1.331 . S
O22 Mg8 2.081 . S
O23 Mg4 1.986 . S
O23 C10 1.307 . S
O24 C2 1.264 . S
O24 Mg8 2.023 1_565 S
O25 C1 1.244 1_565 S
O25 Mg9 1.942 . S
O26 C2 1.273 . S
O26 Mg9 1.955 . S
O27 C0 1.312 1_454 S
O27 Mg3 2.291 . S
O27 Mg6 2.113 1_544 S
O28 C0 1.208 . S
O28 Mg8 2.031 . S
C29 O14 1.264 . S
C29 O16 1.273 . S
C30 O11 1.191 . S
C30 O13 1.307 . S
C31 O58 1.312 . S
C31 O59 1.208 . S
C32 O53 1.331 . S
C32 O56 1.244 . S
C33 O55 1.264 . S
C33 O57 1.273 . S
Mg34 O36 1.936 . S
Mg34 O43 2.081 . S
Mg34 O45 2.023 . S
Mg34 O49 2.031 . S
Mg34 O58 2.291 . S
Mg35 O36 1.963 . S
Mg35 O46 1.942 . S
Mg35 O47 1.955 1_545 S
Mg35 O54 1.986 . S
O36 Mg34 1.936 . S
O36 Mg35 1.963 . S
O36 Mg37 1.915 . S
Mg37 O36 1.915 . S
Mg37 O38 1.915 . S
Mg37 O42 2.013 1_545 S
Mg37 O48 2.114 . S
Mg37 O52 2.013 . S
Mg37 O58 2.114 . S
O38 Mg37 1.915 . S
O38 Mg39 1.936 . S
O38 Mg40 1.963 . S
Mg39 O38 1.936 . S
Mg39 O48 2.291 . S
Mg39 O53 2.081 . S
Mg39 O55 2.023 . S
Mg39 O59 2.031 . S
Mg40 O38 1.963 . S
Mg40 O44 1.986 1_545 S
Mg40 O56 1.942 . S
Mg40 O57 1.955 . S
C41 O52 1.191 . S
C41 O54 1.307 . S
O42 Mg37 2.013 1_565 S
O42 C61 1.191 . S
O43 Mg34 2.081 . S
O43 C51 1.331 . S
O44 Mg40 1.986 1_565 S
O44 C61 1.307 . S
O45 Mg34 2.023 . S
O45 C60 1.264 1_545 S
O46 Mg35 1.942 . S
O46 C51 1.244 . S
O47 Mg35 1.955 1_565 S
O47 C60 1.273 . S
O48 Mg37 2.114 . S
O48 Mg39 2.291 . S
O48 C50 1.312 . S
O49 Mg34 2.031 . S
O49 C50 1.208 . S
C50 O48 1.312 . S
C50 O49 1.208 . S
C51 O43 1.331 . S
C51 O46 1.244 . S
O52 Mg37 2.013 . S
O52 C41 1.191 . S
O53 C32 1.331 . S
O53 Mg39 2.081 . S
O54 Mg35 1.986 . S
O54 C41 1.307 . S
O55 C33 1.264 . S
O55 Mg39 2.023 . S
O56 C32 1.244 . S
O56 Mg40 1.942 . S
O57 C33 1.273 . S
O57 Mg40 1.955 . S
O58 C31 1.312 . S
O58 Mg34 2.291 . S
O58 Mg37 2.114 . S
O59 C31 1.208 . S
O59 Mg39 2.031 . S
C60 O45 1.264 1_565 S
C60 O47 1.273 . S
C61 O42 1.191 . S
C61 O44 1.307 . S
C62 O89 1.312 . S
C62 O90 1.208 . S
C63 O84 1.331 . S
C63 O87 1.244 . S
C64 O86 1.264 1_565 S
C64 O88 1.273 . S
Mg65 O67 1.936 . S
Mg65 O74 2.081 . S
Mg65 O76 2.023 . S
Mg65 O80 2.031 1_565 S
Mg65 O89 2.291 . S
Mg66 O67 1.963 . S
Mg66 O77 1.942 . S
Mg66 O78 1.955 . S
Mg66 O85 1.986 . S
O67 Mg65 1.936 . S
O67 Mg66 1.963 . S
O67 Mg68 1.915 . S
Mg68 O67 1.915 . S
Mg68 O69 1.915 . S
Mg68 O73 2.013 . S
Mg68 O79 2.114 1_565 S
Mg68 O83 2.013 . S
Mg68 O89 2.114 . S
O69 Mg68 1.915 . S
O69 Mg70 1.936 . S
O69 Mg71 1.963 . S
Mg70 O69 1.936 . S
Mg70 O79 2.291 1_565 S
Mg70 O84 2.081 . S
Mg70 O86 2.023 1_565 S
Mg70 O90 2.031 . S
Mg71 O69 1.963 . S
Mg71 O75 1.986 . S
Mg71 O87 1.942 . S
Mg71 O88 1.955 . S
C72 O83 1.191 . S
C72 O85 1.307 . S
O73 Mg68 2.013 . S
O73 C92 1.191 . S
O74 Mg65 2.081 . S
O74 C82 1.331 . S
O75 Mg71 1.986 . S
O75 C92 1.307 . S
O76 Mg65 2.023 . S
O76 C91 1.264 . S
O77 Mg66 1.942 . S
O77 C82 1.244 . S
O78 Mg66 1.955 . S
O78 C91 1.273 . S
O79 Mg68 2.114 1_545 S
O79 Mg70 2.291 1_545 S
O79 C81 1.312 . S
O80 Mg65 2.031 1_545 S
O80 C81 1.208 . S
C81 O79 1.312 . S
C81 O80 1.208 . S
C82 O74 1.331 . S
C82 O77 1.244 . S
O83 Mg68 2.013 . S
O83 C72 1.191 . S
O84 C63 1.331 . S
O84 Mg70 2.081 . S
O85 Mg66 1.986 . S
O85 C72 1.307 . S
O86 C64 1.264 1_545 S
O86 Mg70 2.023 1_545 S
O87 C63 1.244 . S
O87 Mg71 1.942 . S
O88 C64 1.273 . S
O88 Mg71 1.955 . S
O89 C62 1.312 . S
O89 Mg65 2.291 . S
O89 Mg68 2.114 . S
O90 C62 1.208 . S
O90 Mg70 2.031 . S
C91 O76 1.264 . S
C91 O78 1.273 . S
C92 O73 1.191 . S
C92 O75 1.307 . S
C93 O120 1.312 1_655 S
C93 O121 1.208 . S
C94 O115 1.331 . S
C94 O118 1.244 . S
C95 O117 1.264 . S
C95 O119 1.273 . S
Mg96 O98 1.936 . S
Mg96 O105 2.081 . S
Mg96 O107 2.023 . S
Mg96 O111 2.031 1_455 S
Mg96 O120 2.291 . S
Mg97 O98 1.963 . S
Mg97 O108 1.942 . S
Mg97 O109 1.955 . S
Mg97 O116 1.986 . S
O98 Mg96 1.936 . S
O98 Mg97 1.963 . S
O98 Mg99 1.915 . S
Mg99 O98 1.915 . S
Mg99 O100 1.915 1_455 S
Mg99 O104 2.013 . S
Mg99 O110 2.114 1_455 S
Mg99 O114 2.013 . S
Mg99 O120 2.114 . S
O100 Mg99 1.915 1_655 S
O100 Mg101 1.936 . S
O100 Mg102 1.963 . S
Mg101 O100 1.936 . S
Mg101 O110 2.291 . S
Mg101 O115 2.081 . S
Mg101 O117 2.023 . S
Mg101 O121 2.031 . S
Mg102 O100 1.963 . S
Mg102 O106 1.986 1_655 S
Mg102 O118 1.942 . S
Mg102 O119 1.955 . S
C103 O114 1.191 . S
C103 O116 1.307 . S
O104 Mg99 2.013 . S
O104 C123 1.191 . S
O105 Mg96 2.081 . S
O105 C113 1.331 . S
O106 Mg102 1.986 1_455 S
O106 C123 1.307 . S
O107 Mg96 2.023 . S
O107 C122 1.264 . S
O108 Mg97 1.942 . S
O108 C113 1.244 . S
O109 Mg97 1.955 . S
O109 C122 1.273 . S
O110 Mg99 2.114 1_655 S
O110 Mg101 2.291 . S
O110 C112 1.312 . S
O111 Mg96 2.031 1_655 S
O111 C112 1.208 . S
C112 O110 1.312 . S
C112 O111 1.208 . S
C113 O105 1.331 . S
C113 O108 1.244 . S
O114 Mg99 2.013 . S
O114 C103 1.191 . S
O115 C94 1.331 . S
O115 Mg101 2.081 . S
O116 Mg97 1.986 . S
O116 C103 1.307 . S
O117 C95 1.264 . S
O117 Mg101 2.023 . S
O118 C94 1.244 . S
O118 Mg102 1.942 . S
O119 C95 1.273 . S
O119 Mg102 1.955 . S
O120 C93 1.312 1_455 S
O120 Mg96 2.291 . S
O120 Mg99 2.114 . S
O121 C93 1.208 . S
O121 Mg101 2.031 . S
C122 O107 1.264 . S
C122 O109 1.273 . S
C123 O104 1.191 . S
C123 O106 1.307 . S
C124 O151 1.312 . S
C124 O152 1.208 . S
C125 O146 1.331 . S
C125 O149 1.244 . S
C126 O148 1.264 . S
C126 O150 1.273 . S
Mg127 O129 1.936 . S
Mg127 O136 2.081 . S
Mg127 O138 2.023 1_565 S
Mg127 O142 2.031 . S
Mg127 O151 2.291 1_565 S
Mg128 O129 1.963 . S
Mg128 O139 1.942 . S
Mg128 O140 1.955 . S
Mg128 O147 1.986 . S
O129 Mg127 1.936 . S
O129 Mg128 1.963 . S
O129 Mg130 1.915 . S
Mg130 O129 1.915 . S
Mg130 O131 1.915 . S
Mg130 O135 2.013 . S
Mg130 O141 2.114 . S
Mg130 O145 2.013 . S
Mg130 O151 2.114 1_565 S
O131 Mg130 1.915 . S
O131 Mg132 1.936 . S
O131 Mg133 1.963 . S
Mg132 O131 1.936 . S
Mg132 O141 2.291 . S
Mg132 O146 2.081 . S
Mg132 O148 2.023 . S
Mg132 O152 2.031 1_565 S
Mg133 O131 1.963 . S
Mg133 O137 1.986 . S
Mg133 O149 1.942 . S
Mg133 O150 1.955 . S
C134 O145 1.191 . S
C134 O147 1.307 . S
O135 Mg130 2.013 . S
O135 C154 1.191 . S
O136 Mg127 2.081 . S
O136 C144 1.331 . S
O137 Mg133 1.986 . S
O137 C154 1.307 . S
O138 Mg127 2.023 1_545 S
O138 C153 1.264 1_545 S
O139 Mg128 1.942 . S
O139 C144 1.244 . S
O140 Mg128 1.955 . S
O140 C153 1.273 . S
O141 Mg130 2.114 . S
O141 Mg132 2.291 . S
O141 C143 1.312 . S
O142 Mg127 2.031 . S
O142 C143 1.208 . S
C143 O141 1.312 . S
C143 O142 1.208 . S
C144 O136 1.331 . S
C144 O139 1.244 . S
O145 Mg130 2.013 . S
O145 C134 1.191 . S
O146 C125 1.331 . S
O146 Mg132 2.081 . S
O147 Mg128 1.986 . S
O147 C134 1.307 . S
O148 C126 1.264 . S
O148 Mg132 2.023 . S
O149 C125 1.244 . S
O149 Mg133 1.942 . S
O150 C126 1.273 . S
O150 Mg133 1.955 . S
O151 C124 1.312 . S
O151 Mg127 2.291 1_545 S
O151 Mg130 2.114 1_545 S
O152 C124 1.208 . S
O152 Mg132 2.031 1_545 S
C153 O138 1.264 1_565 S
C153 O140 1.273 . S
C154 O135 1.191 . S
C154 O137 1.307 . S
C155 O182 1.312 . S
C155 O183 1.208 . S
C156 O177 1.331 . S
C156 O180 1.244 . S
C157 O179 1.264 1_565 S
C157 O181 1.273 . S
Mg158 O160 1.936 . S
Mg158 O167 2.081 . S
Mg158 O169 2.023 . S
Mg158 O173 2.031 . S
Mg158 O182 2.291 . S
Mg159 O160 1.963 . S
Mg159 O170 1.942 . S
Mg159 O171 1.955 . S
Mg159 O178 1.986 1_545 S
O160 Mg158 1.936 . S
O160 Mg159 1.963 . S
O160 Mg161 1.915 . S
Mg161 O160 1.915 . S
Mg161 O162 1.915 . S
Mg161 O166 2.013 . S
Mg161 O172 2.114 . S
Mg161 O176 2.013 1_545 S
Mg161 O182 2.114 . S
O162 Mg161 1.915 . S
O162 Mg163 1.936 . S
O162 Mg164 1.963 . S
Mg163 O162 1.936 . S
Mg163 O172 2.291 . S
Mg163 O177 2.081 . S
Mg163 O179 2.023 . S
Mg163 O183 2.031 . S
Mg164 O162 1.963 . S
Mg164 O168 1.986 . S
Mg164 O180 1.942 . S
Mg164 O181 1.955 1_545 S
C165 O176 1.191 . S
C165 O178 1.307 . S
O166 Mg161 2.013 . S
O166 C185 1.191 . S
O167 Mg158 2.081 . S
O167 C175 1.331 . S
O168 Mg164 1.986 . S
O168 C185 1.307 . S
O169 Mg158 2.023 . S
O169 C184 1.264 . S
O170 Mg159 1.942 . S
O170 C175 1.244 . S
O171 Mg159 1.955 . S
O171 C184 1.273 . S
O172 Mg161 2.114 . S
O172 Mg163 2.291 . S
O172 C174 1.312 . S
O173 Mg158 2.031 . S
O173 C174 1.208 . S
C174 O172 1.312 . S
C174 O173 1.208 . S
C175 O167 1.331 . S
C175 O170 1.244 . S
O176 Mg161 2.013 1_565 S
O176 C165 1.191 . S
O177 C156 1.331 . S
O177 Mg163 2.081 . S
O178 Mg159 1.986 1_565 S
O178 C165 1.307 . S
O179 C157 1.264 1_545 S
O179 Mg163 2.023 . S
O180 C156 1.244 . S
O180 Mg164 1.942 . S
O181 C157 1.273 . S
O181 Mg164 1.955 1_565 S
O182 C155 1.312 . S
O182 Mg158 2.291 . S
O182 Mg161 2.114 . S
O183 C155 1.208 . S
O183 Mg163 2.031 . S
C184 O169 1.264 . S
C184 O171 1.273 . S
C185 O166 1.191 . S
C185 O168 1.307 . S
C186 O213 1.312 . S
C186 O214 1.208 . S
C187 O208 1.331 . S
C187 O211 1.244 1_545 S
C188 O210 1.264 . S
C188 O212 1.273 . S
Mg189 O191 1.936 1_545 S
Mg189 O198 2.081 . S
Mg189 O200 2.023 . S
Mg189 O204 2.031 . S
Mg189 O213 2.291 . S
Mg190 O191 1.963 . S
Mg190 O201 1.942 . S
Mg190 O202 1.955 1_565 S
Mg190 O209 1.986 . S
O191 Mg189 1.936 1_565 S
O191 Mg190 1.963 . S
O191 Mg192 1.915 . S
Mg192 O191 1.915 . S
Mg192 O193 1.915 1_565 S
Mg192 O197 2.013 . S
Mg192 O203 2.114 1_565 S
Mg192 O207 2.013 . S
Mg192 O213 2.114 1_565 S
O193 Mg192 1.915 1_545 S
O193 Mg194 1.936 . S
O193 Mg195 1.963 1_545 S
Mg194 O193 1.936 . S
Mg194 O203 2.291 . S
Mg194 O208 2.081 . S
Mg194 O210 2.023 1_545 S
Mg194 O214 2.031 . S
Mg195 O193 1.963 1_565 S
Mg195 O199 1.986 . S
Mg195 O211 1.942 . S
Mg195 O212 1.955 . S
C196 O207 1.191 . S
C196 O209 1.307 . S
O197 Mg192 2.013 . S
O197 C216 1.191 . S
O198 Mg189 2.081 . S
O198 C206 1.331 1_545 S
O199 Mg195 1.986 . S
O199 C216 1.307 . S
O200 Mg189 2.023 . S
O200 C215 1.264 . S
O201 Mg190 1.942 . S
O201 C206 1.244 . S
O202 Mg190 1.955 1_545 S
O202 C215 1.273 . S
O203 Mg192 2.114 1_545 S
O203 Mg194 2.291 . S
O203 C205 1.312 . S
O204 Mg189 2.031 . S
O204 C205 1.208 . S
C205 O203 1.312 . S
C205 O204 1.208 . S
C206 O198 1.331 1_565 S
C206 O201 1.244 . S
O207 Mg192 2.013 . S
O207 C196 1.191 . S
O208 C187 1.331 . S
O208 Mg194 2.081 . S
O209 Mg190 1.986 . S
O209 C196 1.307 . S
O210 C188 1.264 . S
O210 Mg194 2.023 1_565 S
O211 C187 1.244 1_565 S
O211 Mg195 1.942 . S
O212 C188 1.273 . S
O212 Mg195 1.955 . S
O213 C186 1.312 . S
O213 Mg189 2.291 . S
O213 Mg192 2.114 1_545 S
O214 C186 1.208 . S
O214 Mg194 2.031 . S
C215 O200 1.264 . S
C215 O202 1.273 . S
C216 O197 1.191 . S
C216 O199 1.307 . S
C217 O244 1.312 1_556 S
C217 O245 1.208 . S
C218 O239 1.331 . S
C218 O242 1.244 . S
C219 O241 1.264 . S
C219 O243 1.273 . S
Mg220 O222 1.936 . S
Mg220 O229 2.081 . S
Mg220 O231 2.023 . S
Mg220 O235 2.031 . S
Mg220 O244 2.291 . S
Mg221 O222 1.963 . S
Mg221 O232 1.942 . S
Mg221 O233 1.955 . S
Mg221 O240 1.986 . S
O222 Mg220 1.936 . S
O222 Mg221 1.963 . S
O222 Mg223 1.911 1_554 S
Mg223 O222 1.911 1_556 S
Mg223 O224 1.919 . S
Mg223 O228 2.017 . S
Mg223 O234 2.110 1_556 S
Mg223 O238 2.013 . S
Mg223 O244 2.113 1_556 S
O224 Mg223 1.919 . S
O224 Mg225 1.936 . S
O224 Mg226 1.963 . S
Mg225 O224 1.936 . S
Mg225 O234 2.291 1_556 S
Mg225 O239 2.081 . S
Mg225 O241 2.023 . S
Mg225 O245 2.031 . S
Mg226 O224 1.963 . S
Mg226 O230 1.986 . S
Mg226 O242 1.942 . S
Mg226 O243 1.955 . S
C227 O238 1.190 1_554 S
C227 O240 1.307 . S
O228 Mg223 2.017 . S
O228 C247 1.191 . S
O229 Mg220 2.081 . S
O229 C237 1.331 . S
O230 Mg226 1.986 . S
O230 C247 1.307 . S
O231 Mg220 2.023 . S
O231 C246 1.264 . S
O232 Mg221 1.942 . S
O232 C237 1.244 . S
O233 Mg221 1.955 . S
O233 C246 1.273 . S
O234 Mg223 2.110 1_554 S
O234 Mg225 2.291 1_554 S
O234 C236 1.312 . S
O235 Mg220 2.031 . S
O235 C236 1.208 . S
C236 O234 1.312 . S
C236 O235 1.208 . S
C237 O229 1.331 . S
C237 O232 1.244 . S
O238 Mg223 2.013 . S
O238 C227 1.190 1_556 S
O239 C218 1.331 . S
O239 Mg225 2.081 . S
O240 Mg221 1.986 . S
O240 C227 1.307 . S
O241 C219 1.264 . S
O241 Mg225 2.023 . S
O242 C218 1.244 . S
O242 Mg226 1.942 . S
O243 C219 1.273 . S
O243 Mg226 1.955 . S
O244 C217 1.312 1_554 S
O244 Mg220 2.291 . S
O244 Mg223 2.113 1_554 S
O245 C217 1.208 . S
O245 Mg225 2.031 . S
C246 O231 1.264 . S
C246 O233 1.273 . S
C247 O228 1.191 . S
C247 O230 1.307 . S
C20 C41 1.796 1_565 S
C19 C82 2.201 1_545 S
C123 C32 1.796 . S
C62 C94 2.201 . S
C113 C154 1.795 . S
C156 C112 2.201 . S
C144 C30 1.795 . S
C174 C1 2.201 . S
C185 C206 1.795 1_545 S
C205 C125 2.201 1_545 S
C247 C175 1.795 . S
C218 C143 2.201 . S
C237 C72 1.796 . S
C51 C236 2.201 . S
C216 C63 1.796 . S
C187 C31 2.201 . S
C10 C0 1.422 1_454 S
C50 C61 1.422 . S
C81 C92 1.422 . S
C93 C103 1.422 1_665 S
C124 C134 1.422 . S
C155 C165 1.422 . S
C196 C186 1.422 . S
C217 C227 1.422 1_566 S
C219 C29 2.057 1_556 S
C2 C246 2.057 1_556 S
C33 C91 2.057 1_455 S
C188 C122 2.057 . S
C95 C215 2.057 . S
C157 C153 2.057 1_655 S
C184 C126 2.057 . S
C64 C60 2.057 . S
