# Generated by pormake.
# Topology uob, (4)-cn, num edge types: 1
# Building blocks:
#     Node 0, Type 0, BuildingBlock: QUQFOY_clean_sbu_3, # of connection points: 4
#     Node 1, Type 0, BuildingBlock: QUQFOY_clean_sbu_3, # of connection points: 4
#     Node 2, Type 0, BuildingBlock: QUQFOY_clean_sbu_3, # of connection points: 4
#     Node 3, Type 0, BuildingBlock: QUQFOY_clean_sbu_3, # of connection points: 4
#     Node 4, Type 0, BuildingBlock: QUQFOY_clean_sbu_3, # of connection points: 4
#     Node 5, Type 0, BuildingBlock: QUQFOY_clean_sbu_3, # of connection points: 4
#     Node 6, Type 0, BuildingBlock: QUQFOY_clean_sbu_3, # of connection points: 4
#     Node 7, Type 0, BuildingBlock: QUQFOY_clean_sbu_3, # of connection points: 4
#     Node 8, Type 0, BuildingBlock: QUQFOY_clean_sbu_3, # of connection points: 4
#     Node 9, Type 0, BuildingBlock: QUQFOY_clean_sbu_3, # of connection points: 4
#     Node 10, Type 0, BuildingBlock: QUQFOY_clean_sbu_3, # of connection points: 4
#     Node 11, Type 0, BuildingBlock: QUQFOY_clean_sbu_3, # of connection points: 4
#     Node 12, Type 0, BuildingBlock: QUQFOY_clean_sbu_3, # of connection points: 4
#     Node 13, Type 0, BuildingBlock: QUQFOY_clean_sbu_3, # of connection points: 4
#     Node 14, Type 0, BuildingBlock: QUQFOY_clean_sbu_3, # of connection points: 4
#     Node 15, Type 0, BuildingBlock: QUQFOY_clean_sbu_3, # of connection points: 4
#     Edge 16, Type (0, 0), BuildingBlock: AJUNOK_clean_linker_0, # of connection points: 2
#     Edge 17, Type (0, 0), BuildingBlock: AJUNOK_clean_linker_0, # of connection points: 2
#     Edge 18, Type (0, 0), BuildingBlock: AJUNOK_clean_linker_0, # of connection points: 2
#     Edge 19, Type (0, 0), BuildingBlock: AJUNOK_clean_linker_0, # of connection points: 2
#     Edge 20, Type (0, 0), BuildingBlock: AJUNOK_clean_linker_0, # of connection points: 2
#     Edge 21, Type (0, 0), BuildingBlock: AJUNOK_clean_linker_0, # of connection points: 2
#     Edge 22, Type (0, 0), BuildingBlock: AJUNOK_clean_linker_0, # of connection points: 2
#     Edge 23, Type (0, 0), BuildingBlock: AJUNOK_clean_linker_0, # of connection points: 2
#     Edge 24, Type (0, 0), BuildingBlock: AJUNOK_clean_linker_0, # of connection points: 2
#     Edge 25, Type (0, 0), BuildingBlock: AJUNOK_clean_linker_0, # of connection points: 2
#     Edge 26, Type (0, 0), BuildingBlock: AJUNOK_clean_linker_0, # of connection points: 2
#     Edge 27, Type (0, 0), BuildingBlock: AJUNOK_clean_linker_0, # of connection points: 2
#     Edge 28, Type (0, 0), BuildingBlock: AJUNOK_clean_linker_0, # of connection points: 2
#     Edge 29, Type (0, 0), BuildingBlock: AJUNOK_clean_linker_0, # of connection points: 2
#     Edge 30, Type (0, 0), BuildingBlock: AJUNOK_clean_linker_0, # of connection points: 2
#     Edge 31, Type (0, 0), BuildingBlock: AJUNOK_clean_linker_0, # of connection points: 2
#     Edge 32, Type (0, 0), BuildingBlock: AJUNOK_clean_linker_0, # of connection points: 2
#     Edge 33, Type (0, 0), BuildingBlock: AJUNOK_clean_linker_0, # of connection points: 2
#     Edge 34, Type (0, 0), BuildingBlock: AJUNOK_clean_linker_0, # of connection points: 2
#     Edge 35, Type (0, 0), BuildingBlock: AJUNOK_clean_linker_0, # of connection points: 2
#     Edge 36, Type (0, 0), BuildingBlock: AJUNOK_clean_linker_0, # of connection points: 2
#     Edge 37, Type (0, 0), BuildingBlock: AJUNOK_clean_linker_0, # of connection points: 2
#     Edge 38, Type (0, 0), BuildingBlock: AJUNOK_clean_linker_0, # of connection points: 2
#     Edge 39, Type (0, 0), BuildingBlock: AJUNOK_clean_linker_0, # of connection points: 2
#     Edge 40, Type (0, 0), BuildingBlock: AJUNOK_clean_linker_0, # of connection points: 2
#     Edge 41, Type (0, 0), BuildingBlock: AJUNOK_clean_linker_0, # of connection points: 2
#     Edge 42, Type (0, 0), BuildingBlock: AJUNOK_clean_linker_0, # of connection points: 2
#     Edge 43, Type (0, 0), BuildingBlock: AJUNOK_clean_linker_0, # of connection points: 2
#     Edge 44, Type (0, 0), BuildingBlock: AJUNOK_clean_linker_0, # of connection points: 2
#     Edge 45, Type (0, 0), BuildingBlock: AJUNOK_clean_linker_0, # of connection points: 2
#     Edge 46, Type (0, 0), BuildingBlock: AJUNOK_clean_linker_0, # of connection points: 2
#     Edge 47, Type (0, 0), BuildingBlock: AJUNOK_clean_linker_0, # of connection points: 2
# Relax obj value: 0.165
# Max RMSD: 0.201
# Mean RMSD: 0.201
data_MOF--net-uob--node1-QUQFOY_clean_sbu_3--edge1-AJUNOK_clean_linker_0
_symmetry_space_group_name_H-M    P1
_symmetry_Int_Tables_number       1
_symmetry_cell_setting            triclinic
loop_
_symmetry_equiv_pos_as_xyz
'x, y, z'
_cell_length_a     41.342337
_cell_length_b     41.269521
_cell_length_c     20.986807
_cell_angle_alpha  90.204959
_cell_angle_beta   89.958684
_cell_angle_gamma 89.948237
loop_
_atom_site_label
_atom_site_type_symbol
_atom_site_fract_x
_atom_site_fract_y
_atom_site_fract_z
_atom_type_partial_charge
C0 C 0.1164 0.11173 0.1507 0.0
O1 O 0.09807 0.12745 0.18817 0.0
Cd2 Cd 0.0798 0.10663 0.28716 0.0
O3 O 0.12895 0.08489 0.16803 0.0
Cd4 Cd 0.13274 0.04939 0.2631 0.0
C5 C 0.0545 0.03002 0.23675 0.0
O6 O 0.12534 0.08954 0.34678 0.0
O7 O 0.11505 0.03951 0.36938 0.0
O8 O 0.19141 0.05271 0.25699 0.0
C9 C 0.11777 0.06853 0.38815 0.0
O10 O 0.04867 0.05873 0.25623 0.0
C11 C 0.19673 0.02393 0.27529 0.0
O12 O 0.08346 0.01934 0.23186 0.0
O13 O 0.17222 0.00558 0.28117 0.0
C14 C 0.87408 0.62046 0.39425 0.0
O15 O 0.85717 0.60307 0.43123 0.0
Cd16 Cd 0.87379 0.58524 0.53363 0.0
O17 O 0.90104 0.63229 0.41274 0.0
Cd18 Cd 0.93451 0.63423 0.51157 0.0
C19 C 0.94934 0.55481 0.48887 0.0
O20 O 0.89307 0.62968 0.59319 0.0
O21 O 0.94177 0.61504 0.61713 0.0
O22 O 0.93391 0.69255 0.51106 0.0
C23 C 0.91304 0.62033 0.63517 0.0
O24 O 0.92044 0.55149 0.50897 0.0
C25 C 0.96231 0.69643 0.53275 0.0
O26 O 0.96157 0.583 0.48093 0.0
O27 O 0.97998 0.67122 0.53598 0.0
C28 C 0.37653 0.38596 0.63755 0.0
O29 O 0.39421 0.3692 0.67423 0.0
Cd30 Cd 0.41145 0.38671 0.77622 0.0
O31 O 0.36437 0.41281 0.65641 0.0
Cd32 Cd 0.36131 0.44627 0.75563 0.0
C33 C 0.43926 0.46398 0.73424 0.0
O34 O 0.36562 0.40354 0.8341 0.0
O35 O 0.38004 0.45181 0.86236 0.0
O36 O 0.30377 0.44288 0.7522 0.0
C37 C 0.37381 0.42291 0.87819 0.0
O38 O 0.44324 0.4348 0.75235 0.0
C39 C 0.29794 0.46975 0.77937 0.0
O40 O 0.41093 0.47594 0.72748 0.0
O41 O 0.32169 0.48917 0.78463 0.0
C42 C 0.61207 0.8856 0.90421 0.0
O43 O 0.62689 0.90413 0.94268 0.0
Cd44 Cd 0.61266 0.91318 0.05042 0.0
O45 O 0.58771 0.86889 0.92236 0.0
Cd46 Cd 0.55652 0.86218 0.0236 0.0
C47 C 0.53611 0.94174 0.01928 0.0
O48 O 0.60394 0.86018 0.09155 0.0
O49 O 0.55793 0.8685 0.13706 0.0
O50 O 0.54802 0.80405 0.01007 0.0
C51 C 0.58732 0.86039 0.14213 0.0
O52 O 0.56458 0.94718 0.03986 0.0
C53 C 0.52133 0.80377 0.04029 0.0
O54 O 0.52711 0.91293 0.00635 0.0
O55 O 0.5086 0.83109 0.05248 0.0
C56 C 0.11836 0.3958 0.11493 0.0
O57 O 0.10551 0.37469 0.07902 0.0
Cd58 Cd 0.08648 0.38672 -0.02493 0.0
O59 O 0.1264 0.4236 0.09392 0.0
Cd60 Cd 0.13071 0.45157 -0.01002 0.0
C61 C 0.05124 0.46277 0.00706 0.0
O62 O 0.12922 0.40695 0.9141 0.0
O63 O 0.11078 0.45359 0.8845 0.0
O64 O 0.1885 0.45097 -0.00512 0.0
C65 C 0.11847 0.42482 0.86983 0.0
O66 O 0.05035 0.43277 -0.00762 0.0
C67 C 0.19257 0.47648 0.96217 0.0
O68 O 0.07831 0.47738 0.01436 0.0
O69 O 0.16803 0.49481 0.95545 0.0
C70 C 0.60894 0.62181 0.3544 0.0
O71 O 0.62999 0.60989 0.31719 0.0
Cd72 Cd 0.61645 0.59251 0.21271 0.0
O73 O 0.58112 0.63034 0.3341 0.0
Cd74 Cd 0.55322 0.63531 0.22953 0.0
C75 C 0.5427 0.55525 0.24672 0.0
O76 O 0.5976 0.63711 0.15342 0.0
O77 O 0.55234 0.61589 0.12332 0.0
O78 O 0.54608 0.69396 0.23001 0.0
C79 C 0.57972 0.62723 0.10827 0.0
O80 O 0.57235 0.55389 0.23021 0.0
C81 C 0.5186 0.69338 0.20297 0.0
O82 O 0.52861 0.58262 0.25389 0.0
O83 O 0.50492 0.6659 0.19821 0.0
C84 C 0.36199 0.10069 0.63249 0.0
O85 O 0.38213 0.12044 0.60901 0.0
Cd86 Cd 0.40597 0.11414 0.50903 0.0
O87 O 0.35258 0.07618 0.60023 0.0
Cd88 Cd 0.36376 0.05848 0.48805 0.0
C89 C 0.43925 0.03727 0.51722 0.0
O90 O 0.36143 0.11131 0.43662 0.0
O91 O 0.39815 0.07796 0.40361 0.0
O92 O 0.30666 0.04392 0.47153 0.0
C93 C 0.38179 0.10346 0.3945 0.0
O94 O 0.44335 0.06777 0.51301 0.0
C95 C 0.31186 0.02535 0.42434 0.0
O96 O 0.41085 0.02532 0.51464 0.0
O97 O 0.34115 0.01966 0.41058 0.0
C98 C 0.87514 0.86616 0.87496 0.0
O99 O 0.85723 0.88417 0.8411 0.0
Cd100 Cd 0.87216 0.90789 0.74258 0.0
O101 O 0.90237 0.85622 0.85382 0.0
Cd102 Cd 0.93328 0.86039 0.7524 0.0
C103 C 0.94701 0.93874 0.78792 0.0
O104 O 0.89173 0.86818 0.67183 0.0
O105 O 0.93934 0.88794 0.65417 0.0
O106 O 0.93295 0.80318 0.73063 0.0
C107 C 0.91146 0.88112 0.6332 0.0
O108 O 0.91785 0.94245 0.7696 0.0
C109 C 0.96187 0.80132 0.71065 0.0
O110 O 0.95959 0.91044 0.79139 0.0
O111 O 0.97972 0.82602 0.71971 0.0
C112 C 0.62807 0.60083 0.62199 0.0
O113 O 0.61349 0.62229 0.65447 0.0
Cd114 Cd 0.59376 0.61559 0.75937 0.0
O115 O 0.63698 0.57399 0.64658 0.0
Cd116 Cd 0.63752 0.55018 0.75574 0.0
C117 C 0.55693 0.54073 0.73575 0.0
O118 O 0.6386 0.59915 0.82047 0.0
O119 O 0.61784 0.55608 0.86142 0.0
O120 O 0.695 0.53748 0.7634 0.0
C121 C 0.62806 0.58467 0.86927 0.0
O122 O 0.55476 0.57097 0.7479 0.0
C123 C 0.69076 0.51135 0.79418 0.0
O124 O 0.58451 0.52688 0.73228 0.0
O125 O 0.66198 0.50076 0.7976 0.0
C126 C 0.36609 0.10856 0.90234 0.0
O127 O 0.35184 0.09021 0.94169 0.0
Cd128 Cd 0.37227 0.08004 0.04526 0.0
O129 O 0.39182 0.12373 0.91789 0.0
Cd130 Cd 0.42691 0.12989 0.01275 0.0
C131 C 0.44837 0.0516 0.00589 0.0
O132 O 0.38518 0.13055 0.09461 0.0
O133 O 0.43389 0.11727 0.12165 0.0
O134 O 0.42752 0.18826 0.01233 0.0
C135 C 0.40625 0.12753 0.13803 0.0
O136 O 0.42 0.04658 0.02735 0.0
C137 C 0.4567 0.19115 0.03025 0.0
O138 O 0.45789 0.08017 -0.00745 0.0
O139 O 0.47406 0.16578 0.02731 0.0
C140 C 0.86665 0.87965 0.14572 0.0
O141 O 0.88365 0.86258 0.18307 0.0
Cd142 Cd 0.90289 0.87955 0.28474 0.0
O143 O 0.8562 0.90741 0.16331 0.0
Cd144 Cd 0.85691 0.94256 0.25968 0.0
C145 C 0.93749 0.95295 0.239 0.0
O146 O 0.85965 0.90196 0.34322 0.0
O147 O 0.87674 0.9503 0.36448 0.0
O148 O 0.79817 0.9461 0.25738 0.0
C149 C 0.87026 0.92209 0.38396 0.0
O150 O 0.93941 0.92427 0.2611 0.0
C151 C 0.79653 0.97467 0.27974 0.0
O152 O 0.90994 0.96602 0.22788 0.0
O153 O 0.823 0.99016 0.28451 0.0
C154 C 0.10137 0.37719 0.384 0.0
O155 O 0.12214 0.39082 0.41944 0.0
Cd156 Cd 0.10711 0.41014 0.52222 0.0
O157 O 0.07432 0.36756 0.40613 0.0
Cd158 Cd 0.04724 0.36077 0.51032 0.0
C159 C 0.02908 0.43868 0.48757 0.0
O160 O 0.09106 0.36625 0.58597 0.0
O161 O 0.04307 0.38108 0.61569 0.0
O162 O 0.05325 0.30349 0.50618 0.0
C163 C 0.07227 0.37548 0.63028 0.0
O164 O 0.05876 0.44301 0.50194 0.0
C165 C 0.02683 0.29647 0.53369 0.0
O166 O 0.01729 0.4101 0.4836 0.0
O167 O 0.0065 0.31946 0.54026 0.0
C168 C 0.6236 0.89376 0.63153 0.0
O169 O 0.60427 0.8745 0.60365 0.0
Cd170 Cd 0.58536 0.87685 0.49782 0.0
O171 O 0.63637 0.91745 0.60157 0.0
Cd172 Cd 0.63317 0.93745 0.4893 0.0
C173 C 0.55282 0.95345 0.50656 0.0
O174 O 0.63357 0.88383 0.43854 0.0
O175 O 0.61797 0.92465 0.38253 0.0
O176 O 0.69102 0.95071 0.48152 0.0
C177 C 0.62761 0.89561 0.38439 0.0
O178 O 0.54848 0.92321 0.49775 0.0
C179 C 0.68685 0.97439 0.4438 0.0
O180 O 0.58136 0.96512 0.5096 0.0
O181 O 0.65792 0.9836 0.43496 0.0
C182 C 0.10539 0.12135 0.88046 0.0
O183 O 0.12284 0.10204 0.84821 0.0
Cd184 Cd 0.10578 0.07715 0.7524 0.0
O185 O 0.07866 0.13172 0.85797 0.0
Cd186 Cd 0.04877 0.12833 0.75506 0.0
C187 C 0.02788 0.05299 0.79479 0.0
O188 O 0.09189 0.11774 0.67858 0.0
O189 O 0.04379 0.10117 0.65475 0.0
O190 O 0.05472 0.18537 0.74082 0.0
C191 C 0.07259 0.10646 0.63719 0.0
O192 O 0.05724 0.04684 0.78062 0.0
C193 C 0.0278 0.19006 0.71337 0.0
O194 O 0.01692 0.08195 0.79293 0.0
O195 O 0.00729 0.16713 0.71595 0.0
C196 C 0.86159 0.6078 0.12283 0.0
O197 O 0.87917 0.62553 0.0878 0.0
Cd198 Cd 0.89927 0.61281 -0.01537 0.0
O199 O 0.85046 0.58096 0.10168 0.0
Cd200 Cd 0.85159 0.55038 -0.00124 0.0
C201 C 0.93181 0.53725 0.01763 0.0
O202 O 0.85621 0.59394 0.92075 0.0
O203 O 0.87219 0.54592 0.89404 0.0
O204 O 0.79313 0.54412 -0.00677 0.0
C205 C 0.8669 0.57492 0.87799 0.0
O206 O 0.93533 0.56688 0.00215 0.0
C207 C 0.79382 0.51543 -0.02885 0.0
O208 O 0.90372 0.5248 0.02459 0.0
O209 O 0.82117 0.50137 -0.03012 0.0
C210 C 0.38844 0.37393 0.36632 0.0
O211 O 0.3714 0.39273 0.33246 0.0
Cd212 Cd 0.38565 0.4124 0.23052 0.0
O213 O 0.41444 0.36154 0.34401 0.0
Cd214 Cd 0.44362 0.36052 0.23966 0.0
C215 C 0.46449 0.43836 0.26102 0.0
O216 O 0.39908 0.36776 0.16562 0.0
O217 O 0.44682 0.38272 0.1356 0.0
O218 O 0.43959 0.30248 0.23487 0.0
C219 C 0.41762 0.37718 0.12131 0.0
O220 O 0.43489 0.4437 0.24765 0.0
C221 C 0.46647 0.29744 0.20732 0.0
O222 O 0.47532 0.40942 0.26597 0.0
O223 O 0.48557 0.32151 0.20349 0.0
C224 C 0.25681 0.00283 0.40299 0.0
C225 C 0.28541 0.01693 0.3801 0.0
C226 C 0.22888 0.00157 0.36498 0.0
C227 C 0.22832 0.01559 0.30386 0.0
H228 H 0.25557 0.99421 0.45163 0.0
H229 H 0.20682 0.99226 0.38592 0.0
S230 S 0.29769 0.0535 0.22075 0.0
N231 N 0.31241 0.04265 0.29067 0.0
N232 N 0.25943 0.04194 0.2207 0.0
C233 C 0.25729 0.02814 0.27925 0.0
C234 C 0.28598 0.02843 0.3171 0.0
C235 C 0.9891 0.75084 0.66822 0.0
C236 C 0.96903 0.77789 0.65926 0.0
C237 C 0.98992 0.72565 0.62261 0.0
C238 C 0.97047 0.72679 0.56726 0.0
H239 H 0.00252 0.74818 0.71219 0.0
H240 H 0.00368 0.70402 0.63348 0.0
S241 S 0.91804 0.79528 0.51818 0.0
N242 N 0.93267 0.80639 0.58806 0.0
N243 N 0.9341 0.75943 0.50296 0.0
C244 C 0.95271 0.7552 0.55568 0.0
C245 C 0.95193 0.78061 0.60172 0.0
C246 C 0.26182 0.50257 0.85274 0.0
C247 C 0.26781 0.47391 0.81757 0.0
C248 C 0.23716 0.504 0.89932 0.0
C249 C 0.21859 0.47645 0.91365 0.0
H250 H 0.27689 0.52371 0.84562 0.0
H251 H 0.23334 0.52632 0.92558 0.0
S252 S 0.2223 0.39655 0.83196 0.0
N253 N 0.2506 0.41834 0.79727 0.0
N254 N 0.20588 0.42071 0.88565 0.0
C255 C 0.22351 0.4482 0.87723 0.0
C256 C 0.24766 0.44701 0.82897 0.0
C257 C 0.50137 0.77744 0.13969 0.0
C258 C 0.51124 0.7744 0.07546 0.0
C259 C 0.50148 0.75063 0.18094 0.0
C260 C 0.5102 0.71975 0.1586 0.0
H261 H 0.49638 0.80115 0.15977 0.0
H262 H 0.49641 0.75438 0.23108 0.0
S263 S 0.53508 0.69844 -0.00615 0.0
N264 N 0.52818 0.73781 -0.00876 0.0
N265 N 0.52688 0.68725 0.06761 0.0
C266 C 0.51763 0.71602 0.09353 0.0
C267 C 0.51844 0.74337 0.05216 0.0
C268 C 0.74697 0.49455 0.8235 0.0
C269 C 0.71508 0.50161 0.84184 0.0
C270 C 0.77218 0.49479 0.86845 0.0
C271 C 0.76642 0.50353 0.9325 0.0
H272 H 0.75276 0.49084 0.77364 0.0
H273 H 0.79673 0.4914 0.85156 0.0
S274 S 0.68682 0.52202 0.00497 0.0
N275 N 0.67866 0.51464 0.92928 0.0
N276 N 0.72629 0.51708 0.0126 0.0
C277 C 0.7344 0.50868 0.95198 0.0
C278 C 0.70864 0.50725 0.90683 0.0
C279 C 0.44881 0.24185 0.17858 0.0
C280 C 0.47106 0.2672 0.16967 0.0
C281 C 0.44532 0.21721 0.13337 0.0
C282 C 0.46419 0.21647 0.07771 0.0
H283 H 0.43249 0.242 0.219 0.0
H284 H 0.42688 0.199 0.14123 0.0
S285 S 0.52945 0.27377 0.03557 0.0
N286 N 0.51485 0.28798 0.10351 0.0
N287 N 0.50855 0.24065 0.01918 0.0
C288 C 0.48845 0.23984 0.07032 0.0
C289 C 0.49188 0.26542 0.11631 0.0
C290 C 0.77037 0.99327 0.38003 0.0
C291 C 0.76726 0.98477 0.31519 0.0
C292 C 0.7437 0.99213 0.42159 0.0
C293 C 0.71283 0.9838 0.39909 0.0
H294 H 0.79409 -0.00222 0.4001 0.0
H295 H 0.74755 0.99611 0.47207 0.0
S296 S 0.69122 0.96316 0.2322 0.0
N297 N 0.7306 0.96982 0.22988 0.0
N298 N 0.68013 0.9696 0.30683 0.0
C299 C 0.70892 0.97808 0.33334 0.0
C300 C 0.73623 0.97811 0.2916 0.0
C301 C -0.00297 0.25954 0.60963 0.0
C302 C 0.02408 0.26571 0.57027 0.0
C303 C -0.00243 0.23457 0.65546 0.0
C304 C 0.02554 0.21575 0.66455 0.0
H305 H 0.9758 0.27486 0.60676 0.0
H306 H 0.97658 0.23083 0.68544 0.0
S307 S 0.10108 0.21893 0.56896 0.0
N308 N 0.07814 0.2479 0.53939 0.0
N309 N 0.07944 0.20247 0.62629 0.0
C310 C 0.05195 0.22058 0.62345 0.0
C311 C 0.05113 0.24512 0.57606 0.0
C312 C 0.02492 0.97916 0.2613 0.0
C313 C 0.02665 0.00823 0.22711 0.0
C314 C -0.0038 0.96116 0.26324 0.0
C315 C 0.96809 0.97145 0.2308 0.0
H316 H 0.04533 0.97118 0.28957 0.0
H317 H 0.99578 0.93961 0.29253 0.0
S318 S 0.96208 0.04361 0.12653 0.0
N319 N -0.00073 0.04509 0.15519 0.0
N320 N 0.94532 0.01096 0.15767 0.0
C321 C 0.97019 -0.00037 0.19354 0.0
C322 C -0.00055 0.01808 0.192 0.0
C323 C 0.00311 0.52701 0.47972 0.0
C324 C 0.96919 0.52515 0.4792 0.0
C325 C 0.02219 0.49891 0.4799 0.0
C326 C 0.00817 0.46772 0.47929 0.0
H327 H 0.01509 0.5503 0.48271 0.0
H328 H 0.04819 0.50178 0.48242 0.0
S329 S 0.92037 0.44963 0.46937 0.0
N330 N 0.92233 0.48955 0.47164 0.0
N331 N 0.95818 0.43688 0.47228 0.0
C332 C 0.9743 0.46555 0.47498 0.0
C333 C 0.95485 0.49418 0.47493 0.0
C334 C 0.46781 0.51743 0.73976 0.0
C335 C 0.46847 0.48419 0.72526 0.0
C336 C 0.49643 0.53569 0.74132 0.0
C337 C 0.52678 0.52144 0.72809 0.0
H338 H 0.44528 0.52911 0.75289 0.0
H339 H 0.49476 0.56097 0.755 0.0
S340 S 0.54065 0.43607 0.67837 0.0
N341 N 0.50133 0.43841 0.69103 0.0
N342 N 0.55496 0.47259 0.69361 0.0
C343 C 0.5274 0.48858 0.70997 0.0
C344 C 0.4983 0.47002 0.70862 0.0
C345 C 0.52467 0.00143 0.02076 0.0
C346 C 0.51359 0.96951 0.01041 0.0
C347 C 0.50379 0.0281 0.01596 0.0
C348 C 0.47093 0.02388 0.00134 0.0
H349 H 0.5496 0.00597 0.03381 0.0
H350 H 0.51319 0.05203 0.02639 0.0
S351 S 0.43026 0.94619 0.96246 0.0
N352 N 0.46788 0.9358 -0.02089 0.0
N353 N 0.4287 0.98594 -0.02897 0.0
C354 C 0.45974 0.99239 -0.01178 0.0
C355 C 0.48104 0.96522 -0.00752 0.0
C356 C 0.01955 0.51238 0.03834 0.0
C357 C 0.02012 0.48064 0.01361 0.0
C358 C 0.99062 0.53013 0.04175 0.0
C359 C 0.96108 0.51672 0.02128 0.0
H360 H 0.04167 0.52385 0.05434 0.0
H361 H 0.99145 0.55475 0.05975 0.0
S362 S 0.94917 0.43519 0.95055 0.0
N363 N 0.98816 0.43687 -0.03309 0.0
N364 N 0.9341 0.47024 -0.0257 0.0
C365 C 0.9611 0.48492 -0.00253 0.0
C366 C 0.99052 0.46691 -0.00665 0.0
C367 C 0.47349 0.49729 0.2816 0.0
C368 C 0.48639 0.46672 0.26554 0.0
C369 C 0.49209 0.52556 0.27714 0.0
C370 C 0.52437 0.52455 0.25596 0.0
H371 H 0.44847 0.49954 0.29637 0.0
H372 H 0.48073 0.54846 0.28902 0.0
S373 S 0.56997 0.45023 0.21002 0.0
N374 N 0.5337 0.43689 0.22965 0.0
N375 N 0.56882 0.48984 0.22092 0.0
C376 C 0.53794 0.4939 0.24181 0.0
C377 C 0.51895 0.46506 0.24677 0.0
C378 C 0.46582 0.98349 0.49841 0.0
C379 C 0.46798 0.01568 0.52019 0.0
C380 C 0.49329 0.96358 0.49478 0.0
C381 C 0.52409 0.97498 0.51294 0.0
H382 H 0.4429 0.97381 0.48217 0.0
H383 H 0.49035 0.93922 0.47634 0.0
S384 S 0.54208 0.05624 0.58066 0.0
N385 N 0.50296 0.05725 0.56516 0.0
N386 N 0.55449 0.01986 0.55858 0.0
C387 C 0.52636 0.00677 0.53707 0.0
C388 C 0.49837 0.02706 0.54067 0.0
C389 C 0.97396 0.02665 0.78292 0.0
C390 C 0.00587 0.02528 0.80544 0.0
C391 C 0.95478 -0.00127 0.7801 0.0
C392 C 0.96669 0.96829 0.79988 0.0
H393 H 0.96433 0.04902 0.76378 0.0
H394 H 0.93087 0.00091 0.75948 0.0
S395 S 0.04675 0.95327 0.87395 0.0
N396 N 0.04721 0.99217 0.85578 0.0
N397 N 0.01109 0.93964 0.85079 0.0
C398 C -0.00223 0.96714 0.8269 0.0
C399 C 0.01735 0.99563 0.82962 0.0
C400 C 0.11053 0.11202 0.54589 0.0
C401 C 0.08386 0.09646 0.57386 0.0
C402 C 0.12124 0.10318 0.48498 0.0
C403 C 0.10602 0.07805 0.45125 0.0
H404 H 0.12291 0.13141 0.57082 0.0
H405 H 0.14178 0.11572 0.46457 0.0
S406 S 0.03491 0.03014 0.5031 0.0
N407 N 0.0421 0.05524 0.56281 0.0
N408 N 0.0627 0.03821 0.44897 0.0
C409 C 0.07938 0.06231 0.47869 0.0
C410 C 0.06813 0.07166 0.53995 0.0
C411 C 0.87543 0.62411 0.72755 0.0
C412 C 0.90209 0.60928 0.69782 0.0
C413 C 0.86442 0.61334 0.78693 0.0
C414 C 0.87934 0.58698 0.81718 0.0
H415 H 0.86315 0.64422 0.70496 0.0
H416 H 0.84377 0.62523 0.80861 0.0
S417 S 0.95023 0.5401 0.75902 0.0
N418 N 0.94342 0.56729 0.7032 0.0
N419 N 0.92247 0.54675 0.81403 0.0
C420 C 0.90611 0.57207 0.78795 0.0
C421 C 0.9176 0.58333 0.72834 0.0
C422 C 0.41843 0.41625 0.03308 0.0
C423 C 0.40481 0.38853 0.06066 0.0
C424 C 0.40754 0.42758 -0.02539 0.0
C425 C 0.38313 0.41113 0.94115 0.0
H426 H 0.43761 0.42943 0.05697 0.0
H427 H 0.41893 0.44895 0.95487 0.0
S428 S 0.33936 0.33758 -0.00625 0.0
N429 N 0.36526 0.34522 0.05182 0.0
N430 N 0.34509 0.36617 0.93999 0.0
C431 C 0.36909 0.38346 -0.03167 0.0
C432 C 0.37983 0.37225 0.02877 0.0
C433 C 0.64316 0.88231 0.27499 0.0
C434 C 0.62382 0.87547 0.32815 0.0
C435 C 0.63279 0.87399 0.21381 0.0
C436 C 0.60248 0.85938 0.20486 0.0
H437 H 0.66494 0.89663 0.2803 0.0
H438 H 0.64698 0.88198 0.17339 0.0
S439 S 0.54636 0.83075 0.33024 0.0
N440 N 0.57602 0.84869 0.36955 0.0
N441 N 0.556 0.83337 0.25402 0.0
C442 C 0.58478 0.84916 0.25821 0.0
C443 C 0.59563 0.85718 0.32039 0.0
C444 C 0.07024 0.41388 0.72008 0.0
C445 C 0.08486 0.38686 0.6913 0.0
C446 C 0.08172 0.42607 0.77753 0.0
C447 C 0.10778 0.41125 0.80892 0.0
H448 H 0.05005 0.42608 0.6976 0.0
H449 H 0.06969 0.44704 0.79782 0.0
S450 S 0.15375 0.33925 0.75396 0.0
N451 N 0.12653 0.34541 0.69765 0.0
N452 N 0.1476 0.36783 0.80799 0.0
C453 C 0.12239 0.3839 0.78122 0.0
C454 C 0.11108 0.37185 0.72163 0.0
C455 C 0.6257 0.62162 0.03217 0.0
C456 C 0.59214 0.62273 0.04344 0.0
C457 C 0.63774 0.61146 -0.02698 0.0
C458 C 0.61644 0.60275 0.92403 0.0
H459 H 0.64269 0.62659 0.07023 0.0
H460 H 0.66361 0.60851 -0.03311 0.0
S461 S 0.52706 0.60629 0.92588 0.0
N462 N 0.53807 0.61762 -0.00182 0.0
N463 N 0.56103 0.59914 0.88698 0.0
C464 C 0.58312 0.60625 0.93294 0.0
C465 C 0.57083 0.61617 -0.00715 0.0
C466 C 0.36013 0.12078 0.29133 0.0
C467 C 0.38553 0.12118 0.33554 0.0
C468 C 0.36641 0.12569 0.22662 0.0
C469 C 0.39821 0.13105 0.20549 0.0
H470 H 0.33606 0.11342 0.30577 0.0
H471 H 0.34688 0.12245 0.19281 0.0
S472 S 0.47095 0.1429 0.30613 0.0
N473 N 0.44192 0.13319 0.35667 0.0
N474 N 0.45383 0.14343 0.23507 0.0
C475 C 0.42285 0.13571 0.25063 0.0
C476 C 0.41646 0.13045 0.31603 0.0
C477 C 0.87442 0.87731 0.54009 0.0
C478 C 0.90136 0.89169 0.56961 0.0
C479 C 0.86462 0.88695 0.47925 0.0
C480 C 0.88112 0.91166 0.44697 0.0
H481 H 0.86104 0.85829 0.56383 0.0
H482 H 0.84377 0.87538 0.45778 0.0
S483 S 0.95365 0.9564 0.50288 0.0
N484 N 0.94483 0.93131 0.56138 0.0
N485 N 0.9261 0.94969 0.44759 0.0
C486 C 0.90816 0.92613 0.47583 0.0
C487 C 0.9184 0.91604 0.53711 0.0
C488 C 0.13788 0.1076 -0.02344 0.0
C489 C 0.11361 0.12677 0.94837 0.0
C490 C 0.1405 0.10506 0.04269 0.0
C491 C 0.11919 0.12183 0.08327 0.0
H492 H 0.15351 0.09243 0.94764 0.0
H493 H 0.15801 0.08816 0.06188 0.0
S494 S 0.05735 0.18206 0.03349 0.0
N495 N 0.07216 0.16771 -0.03401 0.0
N496 N 0.07727 0.16329 0.09065 0.0
C497 C 0.09758 0.14427 0.05587 0.0
C498 C 0.09474 0.14664 -0.01173 0.0
C499 C 0.84638 0.59721 0.29914 0.0
C500 C 0.86489 0.62233 0.32628 0.0
C501 C 0.84328 0.59404 0.23302 0.0
C502 C 0.85835 0.61604 0.19149 0.0
H503 H 0.83602 0.57846 0.32883 0.0
H504 H 0.8306 0.57307 0.21452 0.0
S505 S 0.90292 0.69049 0.2396 0.0
N506 N 0.8939 0.67253 0.30747 0.0
N507 N 0.88762 0.6672 0.18307 0.0
C508 C 0.87399 0.64326 0.21838 0.0
C509 C 0.87743 0.64621 0.2858 0.0
C510 C 0.39968 0.35838 0.54213 0.0
C511 C 0.37451 0.37672 0.56961 0.0
C512 C 0.40266 0.35539 0.47597 0.0
C513 C 0.38044 0.37043 0.43485 0.0
H514 H 0.41859 0.34814 0.57157 0.0
H515 H 0.42368 0.34292 0.45715 0.0
S516 S 0.30562 0.41401 0.48395 0.0
N517 N 0.3239 0.40514 0.55158 0.0
N518 N 0.32894 0.39908 0.42706 0.0
C519 C 0.35314 0.38572 0.46207 0.0
C520 C 0.35035 0.38903 0.52951 0.0
C521 C 0.61654 0.86164 0.73078 0.0
C522 C 0.62765 0.89018 0.70122 0.0
C523 C 0.61309 0.85974 0.79689 0.0
C524 C 0.62104 0.88612 0.83612 0.0
H525 H 0.60888 0.84102 0.70248 0.0
H526 H 0.60303 0.83784 0.81718 0.0
S527 S 0.6547 0.96511 0.78347 0.0
N528 N 0.64925 0.94443 0.71688 0.0
N529 N 0.64323 0.94076 0.84146 0.0
C530 C 0.63454 0.91394 0.80777 0.0
C531 C 0.6378 0.91598 0.74021 0.0
C532 C 0.13224 0.36677 0.28349 0.0
C533 C 0.10527 0.38007 0.31502 0.0
C534 C 0.13682 0.37187 0.21793 0.0
C535 C 0.11516 0.39134 0.18355 0.0
H536 H 0.14964 0.35232 0.30951 0.0
H537 H 0.15736 0.36084 0.19422 0.0
S538 S 0.04212 0.43289 0.24528 0.0
N539 N 0.05726 0.41385 0.3076 0.0
N540 N 0.06651 0.42428 0.18519 0.0
C541 C 0.08854 0.40507 0.21489 0.0
C542 C 0.08344 0.39926 0.28066 0.0
C543 C 0.64448 0.62728 0.52026 0.0
C544 C 0.62621 0.60388 0.55278 0.0
C545 C 0.63885 0.63343 0.45539 0.0
C546 C 0.61383 0.61739 0.42283 0.0
H547 H 0.66293 0.64098 0.54518 0.0
H548 H 0.65369 0.65107 0.43091 0.0
S549 S 0.55921 0.55441 0.48748 0.0
N550 N 0.58267 0.56451 0.54803 0.0
N551 N 0.57121 0.57697 0.42708 0.0
C552 C 0.59544 0.59412 0.45512 0.0
C553 C 0.60182 0.58717 0.52008 0.0
C554 C 0.36203 0.13385 0.7313 0.0
C555 C 0.35334 0.10478 0.70035 0.0
C556 C 0.36344 0.1358 0.79757 0.0
C557 C 0.35564 0.10898 0.83532 0.0
H558 H 0.37013 0.15463 0.70424 0.0
H559 H 0.37263 0.15783 0.81921 0.0
S560 S 0.32426 0.02975 0.77837 0.0
N561 N 0.33161 0.05038 0.71266 0.0
N562 N 0.33366 0.05425 0.8379 0.0
C563 C 0.34301 0.08112 0.80546 0.0
C564 C 0.34194 0.07898 0.73763 0.0
C565 C 0.84307 0.88777 0.03764 0.0
C566 C 0.86299 0.86954 0.07826 0.0
C567 C 0.84493 0.88416 -0.0285 0.0
C568 C 0.86709 0.86246 0.94332 0.0
H569 H 0.82728 0.9064 0.05671 0.0
H570 H 0.8306 0.90038 0.94246 0.0
S571 S 0.91903 0.80358 0.02867 0.0
N572 N 0.90124 0.82467 0.08577 0.0
N573 N 0.90504 0.81839 0.96112 0.0
C574 C 0.88456 0.84161 -0.01663 0.0
C575 C 0.88242 0.84502 0.05096 0.0
loop_
_geom_bond_atom_site_label_1
_geom_bond_atom_site_label_2
_geom_bond_distance
_geom_bond_site_symmetry_2
_ccdc_geom_bond_type
C0 O1 1.306 . S
C0 O3 1.160 . S
O1 C0 1.306 . S
O1 Cd2 2.228 . S
Cd2 O1 2.228 . S
Cd2 O6 2.273 . S
Cd2 O10 2.277 . S
O3 C0 1.160 . S
O3 Cd4 2.203 . S
Cd4 O3 2.203 . S
Cd4 O6 2.411 . S
Cd4 O7 2.333 . S
Cd4 O8 2.352 . S
Cd4 O12 2.277 . S
Cd4 O13 2.356 . S
C5 O10 1.209 . S
C5 O12 1.226 . S
O6 Cd2 2.273 . S
O6 Cd4 2.411 . S
O6 C9 1.320 . S
O7 Cd4 2.333 . S
O7 C9 1.214 . S
O8 Cd4 2.352 . S
O8 C11 1.258 . S
C9 O6 1.320 . S
C9 O7 1.214 . S
O10 Cd2 2.277 . S
O10 C5 1.209 . S
C11 O8 1.258 . S
C11 O13 1.282 . S
O12 Cd4 2.277 . S
O12 C5 1.226 . S
O13 Cd4 2.356 . S
O13 C11 1.282 . S
C14 O15 1.306 . S
C14 O17 1.160 . S
O15 C14 1.306 . S
O15 Cd16 2.228 . S
Cd16 O15 2.228 . S
Cd16 O20 2.273 . S
Cd16 O24 2.277 . S
O17 C14 1.160 . S
O17 Cd18 2.203 . S
Cd18 O17 2.203 . S
Cd18 O20 2.411 . S
Cd18 O21 2.333 . S
Cd18 O22 2.352 . S
Cd18 O26 2.277 . S
Cd18 O27 2.356 . S
C19 O24 1.209 . S
C19 O26 1.226 . S
O20 Cd16 2.273 . S
O20 Cd18 2.411 . S
O20 C23 1.320 . S
O21 Cd18 2.333 . S
O21 C23 1.214 . S
O22 Cd18 2.352 . S
O22 C25 1.258 . S
C23 O20 1.320 . S
C23 O21 1.214 . S
O24 Cd16 2.277 . S
O24 C19 1.209 . S
C25 O22 1.258 . S
C25 O27 1.282 . S
O26 Cd18 2.277 . S
O26 C19 1.226 . S
O27 Cd18 2.356 . S
O27 C25 1.282 . S
C28 O29 1.306 . S
C28 O31 1.160 . S
O29 C28 1.306 . S
O29 Cd30 2.228 . S
Cd30 O29 2.228 . S
Cd30 O34 2.273 . S
Cd30 O38 2.277 . S
O31 C28 1.160 . S
O31 Cd32 2.203 . S
Cd32 O31 2.203 . S
Cd32 O34 2.411 . S
Cd32 O35 2.333 . S
Cd32 O36 2.352 . S
Cd32 O40 2.277 . S
Cd32 O41 2.356 . S
C33 O38 1.209 . S
C33 O40 1.226 . S
O34 Cd30 2.273 . S
O34 Cd32 2.411 . S
O34 C37 1.320 . S
O35 Cd32 2.333 . S
O35 C37 1.214 . S
O36 Cd32 2.352 . S
O36 C39 1.258 . S
C37 O34 1.320 . S
C37 O35 1.214 . S
O38 Cd30 2.277 . S
O38 C33 1.209 . S
C39 O36 1.258 . S
C39 O41 1.282 . S
O40 Cd32 2.277 . S
O40 C33 1.226 . S
O41 Cd32 2.356 . S
O41 C39 1.282 . S
C42 O43 1.306 . S
C42 O45 1.160 . S
O43 C42 1.306 . S
O43 Cd44 2.228 1_556 S
Cd44 O43 2.228 1_554 S
Cd44 O48 2.273 . S
Cd44 O52 2.277 . S
O45 C42 1.160 . S
O45 Cd46 2.203 1_556 S
Cd46 O45 2.203 1_554 S
Cd46 O48 2.411 . S
Cd46 O49 2.333 . S
Cd46 O50 2.352 . S
Cd46 O54 2.277 . S
Cd46 O55 2.356 . S
C47 O52 1.209 . S
C47 O54 1.226 . S
O48 Cd44 2.273 . S
O48 Cd46 2.411 . S
O48 C51 1.320 . S
O49 Cd46 2.333 . S
O49 C51 1.214 . S
O50 Cd46 2.352 . S
O50 C53 1.258 . S
C51 O48 1.320 . S
C51 O49 1.214 . S
O52 Cd44 2.277 . S
O52 C47 1.209 . S
C53 O50 1.258 . S
C53 O55 1.282 . S
O54 Cd46 2.277 . S
O54 C47 1.226 . S
O55 Cd46 2.356 . S
O55 C53 1.282 . S
C56 O57 1.306 . S
C56 O59 1.160 . S
O57 C56 1.306 . S
O57 Cd58 2.228 . S
Cd58 O57 2.228 . S
Cd58 O62 2.273 1_554 S
Cd58 O66 2.277 . S
O59 C56 1.160 . S
O59 Cd60 2.203 . S
Cd60 O59 2.203 . S
Cd60 O62 2.411 1_554 S
Cd60 O63 2.333 1_554 S
Cd60 O64 2.352 . S
Cd60 O68 2.277 . S
Cd60 O69 2.356 1_554 S
C61 O66 1.209 . S
C61 O68 1.226 . S
O62 Cd58 2.273 1_556 S
O62 Cd60 2.411 1_556 S
O62 C65 1.320 . S
O63 Cd60 2.333 1_556 S
O63 C65 1.214 . S
O64 Cd60 2.352 . S
O64 C67 1.255 1_554 S
C65 O62 1.320 . S
C65 O63 1.214 . S
O66 Cd58 2.277 . S
O66 C61 1.209 . S
C67 O64 1.255 1_556 S
C67 O69 1.282 . S
O68 Cd60 2.277 . S
O68 C61 1.226 . S
O69 Cd60 2.356 1_556 S
O69 C67 1.282 . S
C70 O71 1.306 . S
C70 O73 1.160 . S
O71 C70 1.306 . S
O71 Cd72 2.228 . S
Cd72 O71 2.228 . S
Cd72 O76 2.273 . S
Cd72 O80 2.277 . S
O73 C70 1.160 . S
O73 Cd74 2.203 . S
Cd74 O73 2.203 . S
Cd74 O76 2.411 . S
Cd74 O77 2.333 . S
Cd74 O78 2.352 . S
Cd74 O82 2.277 . S
Cd74 O83 2.356 . S
C75 O80 1.209 . S
C75 O82 1.226 . S
O76 Cd72 2.273 . S
O76 Cd74 2.411 . S
O76 C79 1.320 . S
O77 Cd74 2.333 . S
O77 C79 1.214 . S
O78 Cd74 2.352 . S
O78 C81 1.258 . S
C79 O76 1.320 . S
C79 O77 1.214 . S
O80 Cd72 2.277 . S
O80 C75 1.209 . S
C81 O78 1.258 . S
C81 O83 1.282 . S
O82 Cd74 2.277 . S
O82 C75 1.226 . S
O83 Cd74 2.356 . S
O83 C81 1.282 . S
C84 O85 1.306 . S
C84 O87 1.160 . S
O85 C84 1.306 . S
O85 Cd86 2.228 . S
Cd86 O85 2.228 . S
Cd86 O90 2.273 . S
Cd86 O94 2.277 . S
O87 C84 1.160 . S
O87 Cd88 2.203 . S
Cd88 O87 2.203 . S
Cd88 O90 2.411 . S
Cd88 O91 2.333 . S
Cd88 O92 2.352 . S
Cd88 O96 2.277 . S
Cd88 O97 2.356 . S
C89 O94 1.209 . S
C89 O96 1.226 . S
O90 Cd86 2.273 . S
O90 Cd88 2.411 . S
O90 C93 1.320 . S
O91 Cd88 2.333 . S
O91 C93 1.214 . S
O92 Cd88 2.352 . S
O92 C95 1.258 . S
C93 O90 1.320 . S
C93 O91 1.214 . S
O94 Cd86 2.277 . S
O94 C89 1.209 . S
C95 O92 1.258 . S
C95 O97 1.282 . S
O96 Cd88 2.277 . S
O96 C89 1.226 . S
O97 Cd88 2.356 . S
O97 C95 1.282 . S
C98 O99 1.306 . S
C98 O101 1.160 . S
O99 C98 1.306 . S
O99 Cd100 2.228 . S
Cd100 O99 2.228 . S
Cd100 O104 2.273 . S
Cd100 O108 2.277 . S
O101 C98 1.160 . S
O101 Cd102 2.203 . S
Cd102 O101 2.203 . S
Cd102 O104 2.411 . S
Cd102 O105 2.333 . S
Cd102 O106 2.352 . S
Cd102 O110 2.277 . S
Cd102 O111 2.356 . S
C103 O108 1.209 . S
C103 O110 1.226 . S
O104 Cd100 2.273 . S
O104 Cd102 2.411 . S
O104 C107 1.320 . S
O105 Cd102 2.333 . S
O105 C107 1.214 . S
O106 Cd102 2.352 . S
O106 C109 1.258 . S
C107 O104 1.320 . S
C107 O105 1.214 . S
O108 Cd100 2.277 . S
O108 C103 1.209 . S
C109 O106 1.258 . S
C109 O111 1.282 . S
O110 Cd102 2.277 . S
O110 C103 1.226 . S
O111 Cd102 2.356 . S
O111 C109 1.282 . S
C112 O113 1.306 . S
C112 O115 1.160 . S
O113 C112 1.306 . S
O113 Cd114 2.228 . S
Cd114 O113 2.228 . S
Cd114 O118 2.273 . S
Cd114 O122 2.277 . S
O115 C112 1.160 . S
O115 Cd116 2.203 . S
Cd116 O115 2.203 . S
Cd116 O118 2.411 . S
Cd116 O119 2.333 . S
Cd116 O120 2.352 . S
Cd116 O124 2.277 . S
Cd116 O125 2.356 . S
C117 O122 1.209 . S
C117 O124 1.226 . S
O118 Cd114 2.273 . S
O118 Cd116 2.411 . S
O118 C121 1.320 . S
O119 Cd116 2.333 . S
O119 C121 1.214 . S
O120 Cd116 2.352 . S
O120 C123 1.258 . S
C121 O118 1.320 . S
C121 O119 1.214 . S
O122 Cd114 2.277 . S
O122 C117 1.209 . S
C123 O120 1.258 . S
C123 O125 1.282 . S
O124 Cd116 2.277 . S
O124 C117 1.226 . S
O125 Cd116 2.356 . S
O125 C123 1.282 . S
C126 O127 1.306 . S
C126 O129 1.160 . S
O127 C126 1.306 . S
O127 Cd128 2.228 1_556 S
Cd128 O127 2.228 1_554 S
Cd128 O132 2.273 . S
Cd128 O136 2.277 . S
O129 C126 1.160 . S
O129 Cd130 2.203 1_556 S
Cd130 O129 2.203 1_554 S
Cd130 O132 2.411 . S
Cd130 O133 2.333 . S
Cd130 O134 2.352 . S
Cd130 O138 2.277 . S
Cd130 O139 2.356 . S
C131 O136 1.209 . S
C131 O138 1.226 . S
O132 Cd128 2.273 . S
O132 Cd130 2.411 . S
O132 C135 1.320 . S
O133 Cd130 2.333 . S
O133 C135 1.214 . S
O134 Cd130 2.352 . S
O134 C137 1.258 . S
C135 O132 1.320 . S
C135 O133 1.214 . S
O136 Cd128 2.277 . S
O136 C131 1.209 . S
C137 O134 1.258 . S
C137 O139 1.282 . S
O138 Cd130 2.277 . S
O138 C131 1.226 . S
O139 Cd130 2.356 . S
O139 C137 1.282 . S
C140 O141 1.306 . S
C140 O143 1.160 . S
O141 C140 1.306 . S
O141 Cd142 2.228 . S
Cd142 O141 2.228 . S
Cd142 O146 2.273 . S
Cd142 O150 2.277 . S
O143 C140 1.160 . S
O143 Cd144 2.203 . S
Cd144 O143 2.203 . S
Cd144 O146 2.411 . S
Cd144 O147 2.333 . S
Cd144 O148 2.352 . S
Cd144 O152 2.277 . S
Cd144 O153 2.356 . S
C145 O150 1.209 . S
C145 O152 1.226 . S
O146 Cd142 2.273 . S
O146 Cd144 2.411 . S
O146 C149 1.320 . S
O147 Cd144 2.333 . S
O147 C149 1.214 . S
O148 Cd144 2.352 . S
O148 C151 1.258 . S
C149 O146 1.320 . S
C149 O147 1.214 . S
O150 Cd142 2.277 . S
O150 C145 1.209 . S
C151 O148 1.258 . S
C151 O153 1.282 . S
O152 Cd144 2.277 . S
O152 C145 1.226 . S
O153 Cd144 2.356 . S
O153 C151 1.282 . S
C154 O155 1.306 . S
C154 O157 1.160 . S
O155 C154 1.306 . S
O155 Cd156 2.228 . S
Cd156 O155 2.228 . S
Cd156 O160 2.273 . S
Cd156 O164 2.277 . S
O157 C154 1.160 . S
O157 Cd158 2.203 . S
Cd158 O157 2.203 . S
Cd158 O160 2.411 . S
Cd158 O161 2.333 . S
Cd158 O162 2.352 . S
Cd158 O166 2.277 . S
Cd158 O167 2.356 . S
C159 O164 1.209 . S
C159 O166 1.226 . S
O160 Cd156 2.273 . S
O160 Cd158 2.411 . S
O160 C163 1.320 . S
O161 Cd158 2.333 . S
O161 C163 1.214 . S
O162 Cd158 2.352 . S
O162 C165 1.258 . S
C163 O160 1.320 . S
C163 O161 1.214 . S
O164 Cd156 2.277 . S
O164 C159 1.209 . S
C165 O162 1.258 . S
C165 O167 1.282 . S
O166 Cd158 2.277 . S
O166 C159 1.226 . S
O167 Cd158 2.356 . S
O167 C165 1.282 . S
C168 O169 1.306 . S
C168 O171 1.160 . S
O169 C168 1.306 . S
O169 Cd170 2.228 . S
Cd170 O169 2.228 . S
Cd170 O174 2.273 . S
Cd170 O178 2.277 . S
O171 C168 1.160 . S
O171 Cd172 2.203 . S
Cd172 O171 2.203 . S
Cd172 O174 2.411 . S
Cd172 O175 2.333 . S
Cd172 O176 2.352 . S
Cd172 O180 2.277 . S
Cd172 O181 2.356 . S
C173 O178 1.209 . S
C173 O180 1.226 . S
O174 Cd170 2.273 . S
O174 Cd172 2.411 . S
O174 C177 1.320 . S
O175 Cd172 2.333 . S
O175 C177 1.214 . S
O176 Cd172 2.352 . S
O176 C179 1.258 . S
C177 O174 1.320 . S
C177 O175 1.214 . S
O178 Cd170 2.277 . S
O178 C173 1.209 . S
C179 O176 1.258 . S
C179 O181 1.282 . S
O180 Cd172 2.277 . S
O180 C173 1.226 . S
O181 Cd172 2.356 . S
O181 C179 1.282 . S
C182 O183 1.306 . S
C182 O185 1.160 . S
O183 C182 1.306 . S
O183 Cd184 2.228 . S
Cd184 O183 2.228 . S
Cd184 O188 2.273 . S
Cd184 O192 2.277 . S
O185 C182 1.160 . S
O185 Cd186 2.203 . S
Cd186 O185 2.203 . S
Cd186 O188 2.411 . S
Cd186 O189 2.333 . S
Cd186 O190 2.352 . S
Cd186 O194 2.277 . S
Cd186 O195 2.356 . S
C187 O192 1.209 . S
C187 O194 1.226 . S
O188 Cd184 2.273 . S
O188 Cd186 2.411 . S
O188 C191 1.320 . S
O189 Cd186 2.333 . S
O189 C191 1.214 . S
O190 Cd186 2.352 . S
O190 C193 1.258 . S
C191 O188 1.320 . S
C191 O189 1.214 . S
O192 Cd184 2.277 . S
O192 C187 1.209 . S
C193 O190 1.258 . S
C193 O195 1.282 . S
O194 Cd186 2.277 . S
O194 C187 1.226 . S
O195 Cd186 2.356 . S
O195 C193 1.282 . S
C196 O197 1.306 . S
C196 O199 1.160 . S
O197 C196 1.306 . S
O197 Cd198 2.228 . S
Cd198 O197 2.228 . S
Cd198 O202 2.273 1_554 S
Cd198 O206 2.277 . S
O199 C196 1.160 . S
O199 Cd200 2.203 . S
Cd200 O199 2.203 . S
Cd200 O202 2.411 1_554 S
Cd200 O203 2.333 1_554 S
Cd200 O204 2.352 . S
Cd200 O208 2.277 . S
Cd200 O209 2.356 1_554 S
C201 O206 1.209 . S
C201 O208 1.226 . S
O202 Cd198 2.273 1_556 S
O202 Cd200 2.411 1_556 S
O202 C205 1.320 . S
O203 Cd200 2.333 1_556 S
O203 C205 1.214 . S
O204 Cd200 2.352 . S
O204 C207 1.255 1_554 S
C205 O202 1.320 . S
C205 O203 1.214 . S
O206 Cd198 2.277 . S
O206 C201 1.209 . S
C207 O204 1.255 1_556 S
C207 O209 1.282 . S
O208 Cd200 2.277 . S
O208 C201 1.226 . S
O209 Cd200 2.356 1_556 S
O209 C207 1.282 . S
C210 O211 1.306 . S
C210 O213 1.160 . S
O211 C210 1.306 . S
O211 Cd212 2.228 . S
Cd212 O211 2.228 . S
Cd212 O216 2.273 . S
Cd212 O220 2.277 . S
O213 C210 1.160 . S
O213 Cd214 2.203 . S
Cd214 O213 2.203 . S
Cd214 O216 2.411 . S
Cd214 O217 2.333 . S
Cd214 O218 2.352 . S
Cd214 O222 2.277 . S
Cd214 O223 2.356 . S
C215 O220 1.209 . S
C215 O222 1.226 . S
O216 Cd212 2.273 . S
O216 Cd214 2.411 . S
O216 C219 1.320 . S
O217 Cd214 2.333 . S
O217 C219 1.214 . S
O218 Cd214 2.352 . S
O218 C221 1.258 . S
C219 O216 1.320 . S
C219 O217 1.214 . S
O220 Cd212 2.277 . S
O220 C215 1.209 . S
C221 O218 1.258 . S
C221 O223 1.282 . S
O222 Cd214 2.277 . S
O222 C215 1.226 . S
O223 Cd214 2.356 . S
O223 C221 1.282 . S
C224 C225 1.369 . S
C224 C226 1.419 . S
C224 H228 0.930 . S
C225 C224 1.369 . S
C225 C234 1.429 . S
C226 C224 1.419 . S
C226 C227 1.363 . S
C226 H229 0.929 . S
C227 C226 1.363 . S
C227 C233 1.428 . S
H228 C224 0.930 . S
H229 C226 0.929 . S
S230 N231 1.613 . S
S230 N232 1.610 . S
N231 S230 1.613 . S
N231 C234 1.350 . S
N232 S230 1.610 . S
N232 C233 1.351 . S
C233 C227 1.428 . S
C233 N232 1.351 . S
C233 C234 1.434 . S
C234 C225 1.429 . S
C234 N231 1.350 . S
C234 C233 1.434 . S
C235 C236 1.369 . S
C235 C237 1.419 . S
C235 H239 0.930 . S
C236 C235 1.369 . S
C236 C245 1.429 . S
C237 C235 1.419 . S
C237 C238 1.363 . S
C237 H240 0.929 . S
C238 C237 1.363 . S
C238 C244 1.428 . S
H239 C235 0.930 . S
H240 C237 0.929 . S
S241 N242 1.613 . S
S241 N243 1.610 . S
N242 S241 1.613 . S
N242 C245 1.350 . S
N243 S241 1.610 . S
N243 C244 1.351 . S
C244 C238 1.428 . S
C244 N243 1.351 . S
C244 C245 1.434 . S
C245 C236 1.429 . S
C245 N242 1.350 . S
C245 C244 1.434 . S
C246 C247 1.369 . S
C246 C248 1.419 . S
C246 H250 0.930 . S
C247 C246 1.369 . S
C247 C256 1.429 . S
C248 C246 1.419 . S
C248 C249 1.363 . S
C248 H251 0.929 . S
C249 C248 1.363 . S
C249 C255 1.428 . S
H250 C246 0.930 . S
H251 C248 0.929 . S
S252 N253 1.613 . S
S252 N254 1.610 . S
N253 S252 1.613 . S
N253 C256 1.350 . S
N254 S252 1.610 . S
N254 C255 1.351 . S
C255 C249 1.428 . S
C255 N254 1.351 . S
C255 C256 1.434 . S
C256 C247 1.429 . S
C256 N253 1.350 . S
C256 C255 1.434 . S
C257 C258 1.369 . S
C257 C259 1.419 . S
C257 H261 0.930 . S
C258 C257 1.369 . S
C258 C267 1.429 . S
C259 C257 1.419 . S
C259 C260 1.363 . S
C259 H262 0.929 . S
C260 C259 1.363 . S
C260 C266 1.428 . S
H261 C257 0.930 . S
H262 C259 0.929 . S
S263 N264 1.613 . S
S263 N265 1.610 . S
N264 S263 1.613 . S
N264 C267 1.350 . S
N265 S263 1.610 . S
N265 C266 1.351 . S
C266 C260 1.428 . S
C266 N265 1.351 . S
C266 C267 1.434 . S
C267 C258 1.429 . S
C267 N264 1.350 . S
C267 C266 1.434 . S
C268 C269 1.369 . S
C268 C270 1.419 . S
C268 H272 0.930 . S
C269 C268 1.369 . S
C269 C278 1.429 . S
C270 C268 1.419 . S
C270 C271 1.363 . S
C270 H273 0.929 . S
C271 C270 1.363 . S
C271 C277 1.428 . S
H272 C268 0.930 . S
H273 C270 0.929 . S
S274 N275 1.613 1_554 S
S274 N276 1.610 . S
N275 S274 1.613 1_556 S
N275 C278 1.350 . S
N276 S274 1.610 . S
N276 C277 1.351 1_554 S
C277 C271 1.428 . S
C277 N276 1.351 1_556 S
C277 C278 1.434 . S
C278 C269 1.429 . S
C278 N275 1.350 . S
C278 C277 1.434 . S
C279 C280 1.369 . S
C279 C281 1.419 . S
C279 H283 0.930 . S
C280 C279 1.369 . S
C280 C289 1.429 . S
C281 C279 1.419 . S
C281 C282 1.363 . S
C281 H284 0.929 . S
C282 C281 1.363 . S
C282 C288 1.428 . S
H283 C279 0.930 . S
H284 C281 0.929 . S
S285 N286 1.613 . S
S285 N287 1.610 . S
N286 S285 1.613 . S
N286 C289 1.350 . S
N287 S285 1.610 . S
N287 C288 1.351 . S
C288 C282 1.428 . S
C288 N287 1.351 . S
C288 C289 1.434 . S
C289 C280 1.429 . S
C289 N286 1.350 . S
C289 C288 1.434 . S
C290 C291 1.369 . S
C290 C292 1.419 . S
C290 H294 0.930 . S
C291 C290 1.369 . S
C291 C300 1.429 . S
C292 C290 1.419 . S
C292 C293 1.363 . S
C292 H295 0.929 . S
C293 C292 1.363 . S
C293 C299 1.428 . S
H294 C290 0.930 . S
H295 C292 0.929 . S
S296 N297 1.613 . S
S296 N298 1.610 . S
N297 S296 1.613 . S
N297 C300 1.350 . S
N298 S296 1.610 . S
N298 C299 1.351 . S
C299 C293 1.428 . S
C299 N298 1.351 . S
C299 C300 1.434 . S
C300 C291 1.429 . S
C300 N297 1.350 . S
C300 C299 1.434 . S
C301 C302 1.369 . S
C301 C303 1.419 . S
C301 H305 0.930 . S
C302 C301 1.369 . S
C302 C311 1.429 . S
C303 C301 1.419 . S
C303 C304 1.363 . S
C303 H306 0.929 . S
C304 C303 1.363 . S
C304 C310 1.428 . S
H305 C301 0.930 . S
H306 C303 0.929 . S
S307 N308 1.613 . S
S307 N309 1.610 . S
N308 S307 1.613 . S
N308 C311 1.350 . S
N309 S307 1.610 . S
N309 C310 1.351 . S
C310 C304 1.428 . S
C310 N309 1.351 . S
C310 C311 1.434 . S
C311 C302 1.429 . S
C311 N308 1.350 . S
C311 C310 1.434 . S
C312 C313 1.369 . S
C312 C314 1.419 1_445 S
C312 H316 0.930 . S
C313 C312 1.369 . S
C313 C322 1.429 . S
C314 C312 1.419 1_665 S
C314 C315 1.363 . S
C314 H317 0.929 . S
C315 C314 1.363 . S
C315 C321 1.428 . S
H316 C312 0.930 . S
H317 C314 0.929 . S
S318 N319 1.613 1_655 S
S318 N320 1.610 1_545 S
N319 S318 1.613 1_455 S
N319 C322 1.350 . S
N320 S318 1.610 1_565 S
N320 C321 1.351 . S
C321 C315 1.428 . S
C321 N320 1.351 . S
C321 C322 1.434 1_665 S
C322 C313 1.429 . S
C322 N319 1.350 . S
C322 C321 1.434 1_445 S
C323 C324 1.369 1_455 S
C323 C325 1.419 . S
C323 H327 0.930 . S
C324 C323 1.369 1_655 S
C324 C333 1.429 . S
C325 C323 1.419 . S
C325 C326 1.363 . S
C325 H328 0.929 . S
C326 C325 1.363 . S
C326 C332 1.428 1_455 S
H327 C323 0.930 . S
H328 C325 0.929 . S
S329 N330 1.613 . S
S329 N331 1.610 . S
N330 S329 1.613 . S
N330 C333 1.350 . S
N331 S329 1.610 . S
N331 C332 1.351 . S
C332 C326 1.428 1_655 S
C332 N331 1.351 . S
C332 C333 1.434 . S
C333 C324 1.429 . S
C333 N330 1.350 . S
C333 C332 1.434 . S
C334 C335 1.369 . S
C334 C336 1.419 . S
C334 H338 0.930 . S
C335 C334 1.369 . S
C335 C344 1.429 . S
C336 C334 1.419 . S
C336 C337 1.363 . S
C336 H339 0.929 . S
C337 C336 1.363 . S
C337 C343 1.428 . S
H338 C334 0.930 . S
H339 C336 0.929 . S
S340 N341 1.613 . S
S340 N342 1.610 . S
N341 S340 1.613 . S
N341 C344 1.350 . S
N342 S340 1.610 . S
N342 C343 1.351 . S
C343 C337 1.428 . S
C343 N342 1.351 . S
C343 C344 1.434 . S
C344 C335 1.429 . S
C344 N341 1.350 . S
C344 C343 1.434 . S
C345 C346 1.369 . S
C345 C347 1.419 1_565 S
C345 H349 0.930 . S
C346 C345 1.369 . S
C346 C355 1.429 . S
C347 C345 1.419 1_545 S
C347 C348 1.363 . S
C347 H350 0.929 . S
C348 C347 1.363 . S
C348 C354 1.428 . S
H349 C345 0.930 . S
H350 C347 0.929 . S
S351 N352 1.613 . S
S351 N353 1.610 1_565 S
N352 S351 1.613 . S
N352 C355 1.350 1_556 S
N353 S351 1.610 1_545 S
N353 C354 1.351 1_556 S
C354 C348 1.428 . S
C354 N353 1.351 1_554 S
C354 C355 1.434 1_545 S
C355 C346 1.429 . S
C355 N352 1.350 1_554 S
C355 C354 1.434 1_565 S
C356 C357 1.369 . S
C356 C358 1.419 1_455 S
C356 H360 0.930 . S
C357 C356 1.369 . S
C357 C366 1.429 1_554 S
C358 C356 1.419 1_655 S
C358 C359 1.363 . S
C358 H361 0.929 . S
C359 C358 1.363 . S
C359 C365 1.428 1_554 S
H360 C356 0.930 . S
H361 C358 0.929 . S
S362 N363 1.613 1_655 S
S362 N364 1.610 . S
N363 S362 1.613 1_455 S
N363 C366 1.350 . S
N364 S362 1.610 . S
N364 C365 1.351 . S
C365 C359 1.428 1_556 S
C365 N364 1.351 . S
C365 C366 1.434 1_655 S
C366 C357 1.429 1_556 S
C366 N363 1.350 . S
C366 C365 1.434 1_455 S
C367 C368 1.369 . S
C367 C369 1.419 . S
C367 H371 0.930 . S
C368 C367 1.369 . S
C368 C377 1.429 . S
C369 C367 1.419 . S
C369 C370 1.363 . S
C369 H372 0.929 . S
C370 C369 1.363 . S
C370 C376 1.428 . S
H371 C367 0.930 . S
H372 C369 0.929 . S
S373 N374 1.613 . S
S373 N375 1.610 . S
N374 S373 1.613 . S
N374 C377 1.350 . S
N375 S373 1.610 . S
N375 C376 1.351 . S
C376 C370 1.428 . S
C376 N375 1.351 . S
C376 C377 1.434 . S
C377 C368 1.429 . S
C377 N374 1.350 . S
C377 C376 1.434 . S
C378 C379 1.369 1_565 S
C378 C380 1.419 . S
C378 H382 0.930 . S
C379 C378 1.369 1_545 S
C379 C388 1.429 . S
C380 C378 1.419 . S
C380 C381 1.363 . S
C380 H383 0.929 . S
C381 C380 1.363 . S
C381 C387 1.428 1_565 S
H382 C378 0.930 . S
H383 C380 0.929 . S
S384 N385 1.613 . S
S384 N386 1.610 . S
N385 S384 1.613 . S
N385 C388 1.350 . S
N386 S384 1.610 . S
N386 C387 1.351 . S
C387 C381 1.428 1_545 S
C387 N386 1.351 . S
C387 C388 1.434 . S
C388 C379 1.429 . S
C388 N385 1.350 . S
C388 C387 1.434 . S
C389 C390 1.369 . S
C389 C391 1.419 1_445 S
C389 H393 0.930 . S
C390 C389 1.369 . S
C390 C399 1.429 . S
C391 C389 1.419 1_665 S
C391 C392 1.363 . S
C391 H394 0.929 . S
C392 C391 1.363 . S
C392 C398 1.428 . S
H393 C389 0.930 . S
H394 C391 0.929 . S
S395 N396 1.613 1_565 S
S395 N397 1.610 1_455 S
N396 S395 1.613 1_545 S
N396 C399 1.350 . S
N397 S395 1.610 1_655 S
N397 C398 1.351 . S
C398 C392 1.428 . S
C398 N397 1.351 . S
C398 C399 1.434 1_665 S
C399 C390 1.429 . S
C399 N396 1.350 . S
C399 C398 1.434 1_445 S
C400 C401 1.369 . S
C400 C402 1.419 . S
C400 H404 0.930 . S
C401 C400 1.369 . S
C401 C410 1.429 . S
C402 C400 1.419 . S
C402 C403 1.363 . S
C402 H405 0.929 . S
C403 C402 1.363 . S
C403 C409 1.428 . S
H404 C400 0.930 . S
H405 C402 0.929 . S
S406 N407 1.613 . S
S406 N408 1.610 . S
N407 S406 1.613 . S
N407 C410 1.350 . S
N408 S406 1.610 . S
N408 C409 1.351 . S
C409 C403 1.428 . S
C409 N408 1.351 . S
C409 C410 1.434 . S
C410 C401 1.429 . S
C410 N407 1.350 . S
C410 C409 1.434 . S
C411 C412 1.369 . S
C411 C413 1.419 . S
C411 H415 0.930 . S
C412 C411 1.369 . S
C412 C421 1.429 . S
C413 C411 1.419 . S
C413 C414 1.363 . S
C413 H416 0.929 . S
C414 C413 1.363 . S
C414 C420 1.428 . S
H415 C411 0.930 . S
H416 C413 0.929 . S
S417 N418 1.613 . S
S417 N419 1.610 . S
N418 S417 1.613 . S
N418 C421 1.350 . S
N419 S417 1.610 . S
N419 C420 1.351 . S
C420 C414 1.428 . S
C420 N419 1.351 . S
C420 C421 1.434 . S
C421 C412 1.429 . S
C421 N418 1.350 . S
C421 C420 1.434 . S
C422 C423 1.369 . S
C422 C424 1.419 1_554 S
C422 H426 0.930 . S
C423 C422 1.369 . S
C423 C432 1.429 . S
C424 C422 1.419 1_556 S
C424 C425 1.363 . S
C424 H427 0.929 . S
C425 C424 1.363 . S
C425 C431 1.428 1_556 S
H426 C422 0.930 . S
H427 C424 0.929 . S
S428 N429 1.613 . S
S428 N430 1.610 1_554 S
N429 S428 1.613 . S
N429 C432 1.350 . S
N430 S428 1.610 1_556 S
N430 C431 1.351 1_556 S
C431 C425 1.428 1_554 S
C431 N430 1.351 1_554 S
C431 C432 1.434 . S
C432 C423 1.429 . S
C432 N429 1.350 . S
C432 C431 1.434 . S
C433 C434 1.369 . S
C433 C435 1.419 . S
C433 H437 0.930 . S
C434 C433 1.369 . S
C434 C443 1.429 . S
C435 C433 1.419 . S
C435 C436 1.363 . S
C435 H438 0.929 . S
C436 C435 1.363 . S
C436 C442 1.428 . S
H437 C433 0.930 . S
H438 C435 0.929 . S
S439 N440 1.613 . S
S439 N441 1.610 . S
N440 S439 1.613 . S
N440 C443 1.350 . S
N441 S439 1.610 . S
N441 C442 1.351 . S
C442 C436 1.428 . S
C442 N441 1.351 . S
C442 C443 1.434 . S
C443 C434 1.429 . S
C443 N440 1.350 . S
C443 C442 1.434 . S
C444 C445 1.369 . S
C444 C446 1.419 . S
C444 H448 0.930 . S
C445 C444 1.369 . S
C445 C454 1.429 . S
C446 C444 1.419 . S
C446 C447 1.363 . S
C446 H449 0.929 . S
C447 C446 1.363 . S
C447 C453 1.428 . S
H448 C444 0.930 . S
H449 C446 0.929 . S
S450 N451 1.613 . S
S450 N452 1.610 . S
N451 S450 1.613 . S
N451 C454 1.350 . S
N452 S450 1.610 . S
N452 C453 1.351 . S
C453 C447 1.428 . S
C453 N452 1.351 . S
C453 C454 1.434 . S
C454 C445 1.429 . S
C454 N451 1.350 . S
C454 C453 1.434 . S
C455 C456 1.369 . S
C455 C457 1.419 1_554 S
C455 H459 0.930 . S
C456 C455 1.369 . S
C456 C465 1.429 . S
C457 C455 1.419 1_556 S
C457 C458 1.363 . S
C457 H460 0.929 . S
C458 C457 1.363 . S
C458 C464 1.428 1_556 S
H459 C455 0.930 . S
H460 C457 0.929 . S
S461 N462 1.613 . S
S461 N463 1.610 . S
N462 S461 1.613 . S
N462 C465 1.350 . S
N463 S461 1.610 . S
N463 C464 1.351 . S
C464 C458 1.428 1_554 S
C464 N463 1.351 . S
C464 C465 1.434 . S
C465 C456 1.429 . S
C465 N462 1.350 . S
C465 C464 1.434 . S
C466 C467 1.369 . S
C466 C468 1.419 . S
C466 H470 0.930 . S
C467 C466 1.369 . S
C467 C476 1.429 . S
C468 C466 1.419 . S
C468 C469 1.363 . S
C468 H471 0.929 . S
C469 C468 1.363 . S
C469 C475 1.428 . S
H470 C466 0.930 . S
H471 C468 0.929 . S
S472 N473 1.613 . S
S472 N474 1.610 . S
N473 S472 1.613 . S
N473 C476 1.350 . S
N474 S472 1.610 . S
N474 C475 1.351 . S
C475 C469 1.428 . S
C475 N474 1.351 . S
C475 C476 1.434 . S
C476 C467 1.429 . S
C476 N473 1.350 . S
C476 C475 1.434 . S
C477 C478 1.369 . S
C477 C479 1.419 . S
C477 H481 0.930 . S
C478 C477 1.369 . S
C478 C487 1.429 . S
C479 C477 1.419 . S
C479 C480 1.363 . S
C479 H482 0.929 . S
C480 C479 1.363 . S
C480 C486 1.428 . S
H481 C477 0.930 . S
H482 C479 0.929 . S
S483 N484 1.613 . S
S483 N485 1.610 . S
N484 S483 1.613 . S
N484 C487 1.350 . S
N485 S483 1.610 . S
N485 C486 1.351 . S
C486 C480 1.428 . S
C486 N485 1.351 . S
C486 C487 1.434 . S
C487 C478 1.429 . S
C487 N484 1.350 . S
C487 C486 1.434 . S
C488 C489 1.369 . S
C488 C490 1.419 1_556 S
C488 H492 0.930 . S
C489 C488 1.369 . S
C489 C498 1.429 1_556 S
C490 C488 1.419 1_554 S
C490 C491 1.363 . S
C490 H493 0.929 . S
C491 C490 1.363 . S
C491 C497 1.428 . S
H492 C488 0.930 . S
H493 C490 0.929 . S
S494 N495 1.613 1_554 S
S494 N496 1.610 . S
N495 S494 1.613 1_556 S
N495 C498 1.350 1_556 S
N496 S494 1.610 . S
N496 C497 1.351 . S
C497 C491 1.428 . S
C497 N496 1.351 . S
C497 C498 1.434 . S
C498 C489 1.429 1_554 S
C498 N495 1.350 1_554 S
C498 C497 1.434 . S
C499 C500 1.369 . S
C499 C501 1.419 . S
C499 H503 0.930 . S
C500 C499 1.369 . S
C500 C509 1.429 . S
C501 C499 1.419 . S
C501 C502 1.363 . S
C501 H504 0.929 . S
C502 C501 1.363 . S
C502 C508 1.428 . S
H503 C499 0.930 . S
H504 C501 0.929 . S
S505 N506 1.613 . S
S505 N507 1.610 . S
N506 S505 1.613 . S
N506 C509 1.350 . S
N507 S505 1.610 . S
N507 C508 1.351 . S
C508 C502 1.428 . S
C508 N507 1.351 . S
C508 C509 1.434 . S
C509 C500 1.429 . S
C509 N506 1.350 . S
C509 C508 1.434 . S
C510 C511 1.369 . S
C510 C512 1.419 . S
C510 H514 0.930 . S
C511 C510 1.369 . S
C511 C520 1.429 . S
C512 C510 1.419 . S
C512 C513 1.363 . S
C512 H515 0.929 . S
C513 C512 1.363 . S
C513 C519 1.428 . S
H514 C510 0.930 . S
H515 C512 0.929 . S
S516 N517 1.613 . S
S516 N518 1.610 . S
N517 S516 1.613 . S
N517 C520 1.350 . S
N518 S516 1.610 . S
N518 C519 1.351 . S
C519 C513 1.428 . S
C519 N518 1.351 . S
C519 C520 1.434 . S
C520 C511 1.429 . S
C520 N517 1.350 . S
C520 C519 1.434 . S
C521 C522 1.369 . S
C521 C523 1.419 . S
C521 H525 0.930 . S
C522 C521 1.369 . S
C522 C531 1.429 . S
C523 C521 1.419 . S
C523 C524 1.363 . S
C523 H526 0.929 . S
C524 C523 1.363 . S
C524 C530 1.428 . S
H525 C521 0.930 . S
H526 C523 0.929 . S
S527 N528 1.613 . S
S527 N529 1.610 . S
N528 S527 1.613 . S
N528 C531 1.350 . S
N529 S527 1.610 . S
N529 C530 1.351 . S
C530 C524 1.428 . S
C530 N529 1.351 . S
C530 C531 1.434 . S
C531 C522 1.429 . S
C531 N528 1.350 . S
C531 C530 1.434 . S
C532 C533 1.369 . S
C532 C534 1.419 . S
C532 H536 0.930 . S
C533 C532 1.369 . S
C533 C542 1.429 . S
C534 C532 1.419 . S
C534 C535 1.363 . S
C534 H537 0.929 . S
C535 C534 1.363 . S
C535 C541 1.428 . S
H536 C532 0.930 . S
H537 C534 0.929 . S
S538 N539 1.613 . S
S538 N540 1.610 . S
N539 S538 1.613 . S
N539 C542 1.350 . S
N540 S538 1.610 . S
N540 C541 1.351 . S
C541 C535 1.428 . S
C541 N540 1.351 . S
C541 C542 1.434 . S
C542 C533 1.429 . S
C542 N539 1.350 . S
C542 C541 1.434 . S
C543 C544 1.369 . S
C543 C545 1.419 . S
C543 H547 0.930 . S
C544 C543 1.369 . S
C544 C553 1.429 . S
C545 C543 1.419 . S
C545 C546 1.363 . S
C545 H548 0.929 . S
C546 C545 1.363 . S
C546 C552 1.428 . S
H547 C543 0.930 . S
H548 C545 0.929 . S
S549 N550 1.613 . S
S549 N551 1.610 . S
N550 S549 1.613 . S
N550 C553 1.350 . S
N551 S549 1.610 . S
N551 C552 1.351 . S
C552 C546 1.428 . S
C552 N551 1.351 . S
C552 C553 1.434 . S
C553 C544 1.429 . S
C553 N550 1.350 . S
C553 C552 1.434 . S
C554 C555 1.369 . S
C554 C556 1.419 . S
C554 H558 0.930 . S
C555 C554 1.369 . S
C555 C564 1.429 . S
C556 C554 1.419 . S
C556 C557 1.363 . S
C556 H559 0.929 . S
C557 C556 1.363 . S
C557 C563 1.428 . S
H558 C554 0.930 . S
H559 C556 0.929 . S
S560 N561 1.613 . S
S560 N562 1.610 . S
N561 S560 1.613 . S
N561 C564 1.350 . S
N562 S560 1.610 . S
N562 C563 1.351 . S
C563 C557 1.428 . S
C563 N562 1.351 . S
C563 C564 1.434 . S
C564 C555 1.429 . S
C564 N561 1.350 . S
C564 C563 1.434 . S
C565 C566 1.369 . S
C565 C567 1.419 1_554 S
C565 H569 0.930 . S
C566 C565 1.369 . S
C566 C575 1.429 . S
C567 C565 1.419 1_556 S
C567 C568 1.363 . S
C567 H570 0.929 . S
C568 C567 1.363 . S
C568 C574 1.428 1_556 S
H569 C565 0.930 . S
H570 C567 0.929 . S
S571 N572 1.613 . S
S571 N573 1.610 1_554 S
N572 S571 1.613 . S
N572 C575 1.350 . S
N573 S571 1.610 1_556 S
N573 C574 1.351 1_556 S
C574 C568 1.428 1_554 S
C574 N573 1.351 1_554 S
C574 C575 1.434 . S
C575 C566 1.429 . S
C575 N572 1.350 . S
C575 C574 1.434 . S
C225 C95 1.535 . S
C227 C11 1.542 . S
C236 C109 1.539 . S
C238 C25 1.539 . S
C247 C39 1.541 . S
C249 C67 1.537 . S
C258 C53 1.543 . S
C260 C81 1.535 . S
C269 C123 1.534 . S
C271 C207 1.542 . S
C280 C221 1.534 . S
C282 C137 1.542 . S
C291 C151 1.543 . S
C293 C179 1.536 . S
C302 C165 1.541 . S
C304 C193 1.537 . S
C313 C5 1.470 . S
C315 C145 1.473 . S
C324 C19 1.467 . S
C326 C159 1.474 . S
C335 C33 1.468 . S
C337 C117 1.474 . S
C346 C47 1.474 . S
C348 C131 1.470 . S
C357 C61 1.470 . S
C359 C201 1.472 . S
C368 C215 1.475 . S
C370 C75 1.469 . S
C379 C89 1.469 . S
C381 C173 1.473 . S
C390 C187 1.470 . S
C392 C103 1.473 . S
C401 C191 0.796 . S
C403 C9 0.795 . S
C412 C23 0.807 . S
C414 C205 0.788 . S
C423 C219 0.788 . S
C425 C37 0.805 . S
C434 C177 0.810 . S
C436 C51 0.787 . S
C445 C163 0.794 . S
C447 C65 0.801 . S
C456 C79 0.784 . S
C458 C121 0.805 . S
C467 C93 0.810 . S
C469 C135 0.787 . S
C478 C107 0.805 . S
C480 C149 0.789 . S
C489 C182 1.529 . S
C491 C0 1.529 . S
C500 C14 1.530 . S
C502 C196 1.530 . S
C511 C28 1.529 . S
C513 C210 1.530 . S
C522 C168 1.526 . S
C524 C42 1.527 . S
C533 C154 1.525 . S
C535 C56 1.526 . S
C544 C112 1.525 . S
C546 C70 1.526 . S
C555 C84 1.528 . S
C557 C126 1.528 . S
C566 C140 1.529 . S
C568 C98 1.528 . S
