# Generated by pormake.
# Topology upb, (4)-cn, num edge types: 1
# Building blocks:
#     Node 0, Type 0, BuildingBlock: UXUYUI_clean_sbu_0, # of connection points: 4
#     Node 1, Type 0, BuildingBlock: UXUYUI_clean_sbu_0, # of connection points: 4
#     Node 2, Type 0, BuildingBlock: UXUYUI_clean_sbu_0, # of connection points: 4
#     Node 3, Type 0, BuildingBlock: UXUYUI_clean_sbu_0, # of connection points: 4
#     Node 4, Type 0, BuildingBlock: UXUYUI_clean_sbu_0, # of connection points: 4
#     Node 5, Type 0, BuildingBlock: UXUYUI_clean_sbu_0, # of connection points: 4
#     Node 6, Type 0, BuildingBlock: UXUYUI_clean_sbu_0, # of connection points: 4
#     Node 7, Type 0, BuildingBlock: UXUYUI_clean_sbu_0, # of connection points: 4
#     Node 8, Type 0, BuildingBlock: UXUYUI_clean_sbu_0, # of connection points: 4
#     Node 9, Type 0, BuildingBlock: UXUYUI_clean_sbu_0, # of connection points: 4
#     Node 10, Type 0, BuildingBlock: UXUYUI_clean_sbu_0, # of connection points: 4
#     Node 11, Type 0, BuildingBlock: UXUYUI_clean_sbu_0, # of connection points: 4
#     Node 12, Type 0, BuildingBlock: UXUYUI_clean_sbu_0, # of connection points: 4
#     Node 13, Type 0, BuildingBlock: UXUYUI_clean_sbu_0, # of connection points: 4
#     Node 14, Type 0, BuildingBlock: UXUYUI_clean_sbu_0, # of connection points: 4
#     Node 15, Type 0, BuildingBlock: UXUYUI_clean_sbu_0, # of connection points: 4
#     Edge 16, Type (0, 0), BuildingBlock: TEMPAE_clean_linker_10, # of connection points: 2
#     Edge 17, Type (0, 0), BuildingBlock: TEMPAE_clean_linker_10, # of connection points: 2
#     Edge 18, Type (0, 0), BuildingBlock: TEMPAE_clean_linker_10, # of connection points: 2
#     Edge 19, Type (0, 0), BuildingBlock: TEMPAE_clean_linker_10, # of connection points: 2
#     Edge 20, Type (0, 0), BuildingBlock: TEMPAE_clean_linker_10, # of connection points: 2
#     Edge 21, Type (0, 0), BuildingBlock: TEMPAE_clean_linker_10, # of connection points: 2
#     Edge 22, Type (0, 0), BuildingBlock: TEMPAE_clean_linker_10, # of connection points: 2
#     Edge 23, Type (0, 0), BuildingBlock: TEMPAE_clean_linker_10, # of connection points: 2
#     Edge 24, Type (0, 0), BuildingBlock: TEMPAE_clean_linker_10, # of connection points: 2
#     Edge 25, Type (0, 0), BuildingBlock: TEMPAE_clean_linker_10, # of connection points: 2
#     Edge 26, Type (0, 0), BuildingBlock: TEMPAE_clean_linker_10, # of connection points: 2
#     Edge 27, Type (0, 0), BuildingBlock: TEMPAE_clean_linker_10, # of connection points: 2
#     Edge 28, Type (0, 0), BuildingBlock: TEMPAE_clean_linker_10, # of connection points: 2
#     Edge 29, Type (0, 0), BuildingBlock: TEMPAE_clean_linker_10, # of connection points: 2
#     Edge 30, Type (0, 0), BuildingBlock: TEMPAE_clean_linker_10, # of connection points: 2
#     Edge 31, Type (0, 0), BuildingBlock: TEMPAE_clean_linker_10, # of connection points: 2
#     Edge 32, Type (0, 0), BuildingBlock: TEMPAE_clean_linker_10, # of connection points: 2
#     Edge 33, Type (0, 0), BuildingBlock: TEMPAE_clean_linker_10, # of connection points: 2
#     Edge 34, Type (0, 0), BuildingBlock: TEMPAE_clean_linker_10, # of connection points: 2
#     Edge 35, Type (0, 0), BuildingBlock: TEMPAE_clean_linker_10, # of connection points: 2
#     Edge 36, Type (0, 0), BuildingBlock: TEMPAE_clean_linker_10, # of connection points: 2
#     Edge 37, Type (0, 0), BuildingBlock: TEMPAE_clean_linker_10, # of connection points: 2
#     Edge 38, Type (0, 0), BuildingBlock: TEMPAE_clean_linker_10, # of connection points: 2
#     Edge 39, Type (0, 0), BuildingBlock: TEMPAE_clean_linker_10, # of connection points: 2
#     Edge 40, Type (0, 0), BuildingBlock: TEMPAE_clean_linker_10, # of connection points: 2
#     Edge 41, Type (0, 0), BuildingBlock: TEMPAE_clean_linker_10, # of connection points: 2
#     Edge 42, Type (0, 0), BuildingBlock: TEMPAE_clean_linker_10, # of connection points: 2
#     Edge 43, Type (0, 0), BuildingBlock: TEMPAE_clean_linker_10, # of connection points: 2
#     Edge 44, Type (0, 0), BuildingBlock: TEMPAE_clean_linker_10, # of connection points: 2
#     Edge 45, Type (0, 0), BuildingBlock: TEMPAE_clean_linker_10, # of connection points: 2
#     Edge 46, Type (0, 0), BuildingBlock: TEMPAE_clean_linker_10, # of connection points: 2
#     Edge 47, Type (0, 0), BuildingBlock: TEMPAE_clean_linker_10, # of connection points: 2
# Relax obj value: 0.322
# Max RMSD: 0.141
# Mean RMSD: 0.140
data_MOF--net-upb--node1-UXUYUI_clean_sbu_0--edge1-TEMPAE_clean_linker_10
_symmetry_space_group_name_H-M    P1
_symmetry_Int_Tables_number       1
_symmetry_cell_setting            triclinic
loop_
_symmetry_equiv_pos_as_xyz
'x, y, z'
_cell_length_a     51.866457
_cell_length_b     51.804739
_cell_length_c     73.049954
_cell_angle_alpha  90.010253
_cell_angle_beta   90.001843
_cell_angle_gamma 89.991915
loop_
_atom_site_label
_atom_site_type_symbol
_atom_site_fract_x
_atom_site_fract_y
_atom_site_fract_z
_atom_type_partial_charge
Li0 Li 0.01822 0.28091 0.34793 0.0
Li1 Li 0.9931 0.30779 0.37034 0.0
Li2 Li 0.97155 0.28683 0.34503 0.0
Li3 Li 0.99752 0.32391 0.34005 0.0
C4 C 0.97547 0.25142 0.37139 0.0
N5 N 0.94126 0.21367 0.38248 0.0
C6 C 0.95571 0.25743 0.38368 0.0
C7 C 0.97795 0.22619 0.36483 0.0
C8 C 0.93859 0.23807 0.38911 0.0
C9 C 0.96042 0.20739 0.37058 0.0
C10 C 0.04055 0.32416 0.3721 0.0
C11 C 0.05136 0.35603 0.39493 0.0
N12 N 0.0684 0.33921 0.40254 0.0
C13 C 0.05827 0.30724 0.38009 0.0
C14 C 0.03715 0.34882 0.3795 0.0
C15 C 0.07214 0.3152 0.39548 0.0
C16 C 0.06396 0.26294 0.33112 0.0
N17 N 0.04666 0.2585 0.34473 0.0
C18 C 0.07024 0.22152 0.35471 0.0
C19 C 0.04945 0.23841 0.3565 0.0
C20 C 0.08847 0.22547 0.34075 0.0
C21 C 0.08512 0.24654 0.32884 0.0
H22 H 0.0613 0.27925 0.32206 0.0
H23 H 0.03558 0.2356 0.36736 0.0
C24 C 0.98081 0.33669 0.40272 0.0
N25 N 0.9922 0.31516 0.39582 0.0
C26 C 0.98168 0.34168 0.42152 0.0
C27 C 0.00553 0.30199 0.42566 0.0
C28 C 0.0043 0.29786 0.40684 0.0
C29 C 0.99416 0.32415 0.43323 0.0
H30 H 0.97117 0.35004 0.39366 0.0
H31 H 0.01327 0.28095 0.40092 0.0
C32 C 0.98912 0.28053 0.31012 0.0
N33 N 0.97015 0.25882 0.2783 0.0
C34 C 0.9669 0.29052 0.30194 0.0
C35 C 0.00174 0.25954 0.3021 0.0
C36 C 0.95759 0.27925 0.28588 0.0
C37 C 0.99184 0.24883 0.28601 0.0
C38 C 0.9539 0.34409 0.34874 0.0
C39 C 0.93365 0.34304 0.33614 0.0
C40 C 0.96289 0.36805 0.35481 0.0
C41 C 0.92282 0.36602 0.32973 0.0
C42 C 0.95159 0.39059 0.34805 0.0
N43 N 0.93196 0.38912 0.33575 0.0
C44 C 0.91856 0.27376 0.34689 0.0
C45 C 0.94405 0.24443 0.32981 0.0
C46 C 0.89725 0.25736 0.3456 0.0
N47 N 0.94145 0.26696 0.33918 0.0
C48 C 0.92326 0.22756 0.32809 0.0
C49 C 0.89962 0.23364 0.33641 0.0
H50 H 0.91724 0.29129 0.35487 0.0
H51 H 0.96265 0.2388 0.32451 0.0
C52 C 0.02559 0.36756 0.3294 0.0
N53 N 0.00407 0.35375 0.32533 0.0
C54 C 0.03347 0.38772 0.31808 0.0
C55 C 0.99647 0.37972 0.2988 0.0
C56 C 0.98929 0.35966 0.31053 0.0
C57 C 0.01921 0.39359 0.30228 0.0
H58 H 0.03723 0.36233 0.34106 0.0
H59 H 0.97238 0.34834 0.30746 0.0
O60 O 0.99185 0.27032 0.36542 0.0
O61 O 0.02621 0.31642 0.35735 0.0
O62 O 0.99857 0.2912 0.32588 0.0
O63 O 0.96492 0.3218 0.35506 0.0
H64 H 0.95338 0.27692 0.38875 0.0
H65 H 0.99292 0.2213 0.35511 0.0
H66 H 0.9231 0.24247 0.39852 0.0
H67 H 0.96195 0.18784 0.36548 0.0
H68 H 0.04876 0.37497 0.40089 0.0
H69 H 0.06111 0.28807 0.3746 0.0
H70 H 0.02342 0.36211 0.37358 0.0
H71 H 0.08581 0.30225 0.40187 0.0
H72 H 0.07184 0.20539 0.36407 0.0
H73 H 0.09887 0.25052 0.31805 0.0
H74 H 0.97245 0.35886 0.42687 0.0
H75 H 0.0156 0.28816 0.43418 0.0
H76 H 0.95666 0.30643 0.30813 0.0
H77 H 0.01892 0.25151 0.30828 0.0
H78 H 0.94031 0.28668 0.27947 0.0
H79 H 0.00138 0.23255 0.27967 0.0
H80 H 0.92647 0.32471 0.33122 0.0
H81 H 0.9787 0.36925 0.36441 0.0
H82 H 0.90721 0.36549 0.31991 0.0
H83 H 0.95849 0.40925 0.35253 0.0
H84 H 0.87954 0.2626 0.35251 0.0
H85 H 0.92593 0.20955 0.3208 0.0
H86 H 0.051 0.3981 0.32135 0.0
H87 H 0.98507 0.38345 0.28666 0.0
Li88 Li 0.6758 0.99671 0.33869 0.0
Li89 Li 0.7122 0.02135 0.35112 0.0
Li90 Li 0.71335 0.97413 0.34895 0.0
Li91 Li 0.68549 0.99573 0.37133 0.0
C92 C 0.72942 0.99034 0.31733 0.0
N93 N 0.76777 0.96957 0.29561 0.0
C94 C 0.75404 0.00129 0.31726 0.0
C95 C 0.72426 0.9689 0.3063 0.0
C96 C 0.77318 0.9905 0.30618 0.0
C97 C 0.74393 0.95865 0.29544 0.0
C98 C 0.67212 0.05166 0.35512 0.0
C99 C 0.67823 0.09451 0.36731 0.0
N100 N 0.66849 0.10465 0.35159 0.0
C101 C 0.66215 0.06251 0.33909 0.0
C102 C 0.68017 0.06778 0.36937 0.0
C103 C 0.66046 0.08935 0.33758 0.0
C104 C 0.62428 0.00418 0.3276 0.0
N105 N 0.64836 0.99857 0.32141 0.0
C106 C 0.63429 0.00201 0.29038 0.0
C107 C 0.65358 0.99698 0.30322 0.0
C108 C 0.60947 0.00896 0.29634 0.0
C109 C 0.60442 0.00939 0.31524 0.0
H110 H 0.62081 0.0057 0.34216 0.0
H111 H 0.673 0.993 0.29868 0.0
C112 C 0.75132 0.0564 0.36132 0.0
N113 N 0.73253 0.05185 0.34877 0.0
C114 C 0.76698 0.07817 0.35984 0.0
C115 C 0.74398 0.09009 0.33233 0.0
C116 C 0.72876 0.06801 0.33435 0.0
C117 C 0.76343 0.09539 0.34519 0.0
H118 H 0.7545 0.04288 0.37232 0.0
H119 H 0.71404 0.06363 0.32434 0.0
C120 C 0.6547 0.95433 0.35056 0.0
N121 N 0.60828 0.93249 0.34042 0.0
C122 C 0.63312 0.95685 0.36187 0.0
C123 C 0.65274 0.9406 0.33415 0.0
C124 C 0.6098 0.94567 0.35649 0.0
C125 C 0.62907 0.92975 0.32924 0.0
C126 C 0.73136 0.99372 0.38737 0.0
C127 C 0.74065 0.96994 0.39358 0.0
C128 C 0.7289 0.01426 0.39968 0.0
C129 C 0.74725 0.96711 0.41202 0.0
C130 C 0.73561 0.01062 0.41802 0.0
N131 N 0.74457 0.98732 0.42376 0.0
C132 C 0.76192 0.95121 0.34823 0.0
C133 C 0.72831 0.92203 0.34075 0.0
C134 C 0.78023 0.93162 0.34675 0.0
N135 N 0.73654 0.94607 0.34541 0.0
C136 C 0.74605 0.90184 0.33894 0.0
C137 C 0.77234 0.90651 0.34221 0.0
H138 H 0.76788 0.97055 0.3519 0.0
H139 H 0.708 0.91847 0.33866 0.0
C140 C 0.65932 0.01425 0.40285 0.0
N141 N 0.67208 0.99377 0.39554 0.0
C142 C 0.65331 0.01461 0.42149 0.0
C143 C 0.67273 0.97236 0.42446 0.0
C144 C 0.67785 0.97258 0.40572 0.0
C145 C 0.66082 0.99381 0.43254 0.0
H146 H 0.65472 0.03071 0.39438 0.0
H147 H 0.68767 0.95643 0.39945 0.0
O148 O 0.71061 0.00019 0.32844 0.0
O149 O 0.67431 0.02544 0.35678 0.0
O150 O 0.67756 0.96552 0.35543 0.0
O151 O 0.72428 0.99674 0.36944 0.0
H152 H 0.75843 0.01777 0.3258 0.0
H153 H 0.70539 0.96 0.30636 0.0
H154 H 0.79235 0.99871 0.30604 0.0
H155 H 0.74027 0.94194 0.28695 0.0
H156 H 0.68452 0.1072 0.37819 0.0
H157 H 0.65606 0.05042 0.32784 0.0
H158 H 0.68811 0.05975 0.38182 0.0
H159 H 0.65287 0.098 0.32522 0.0
H160 H 0.63917 0.0019 0.27596 0.0
H161 H 0.58554 0.01456 0.32041 0.0
H162 H 0.78214 0.08113 0.36981 0.0
H163 H 0.74056 0.10285 0.32085 0.0
H164 H 0.6343 0.96748 0.3746 0.0
H165 H 0.66922 0.93867 0.32517 0.0
H166 H 0.59291 0.94753 0.36507 0.0
H167 H 0.62722 0.91923 0.31652 0.0
H168 H 0.74239 0.95371 0.38436 0.0
H169 H 0.72148 0.03271 0.39518 0.0
H170 H 0.75434 0.94878 0.41702 0.0
H171 H 0.73356 0.02628 0.42771 0.0
H172 H 0.80035 0.93606 0.34917 0.0
H173 H 0.73923 0.88268 0.33551 0.0
H174 H 0.64413 0.03145 0.42738 0.0
H175 H 0.67868 0.95599 0.43267 0.0
Li176 Li 0.98388 0.71726 0.34768 0.0
Li177 Li 0.00627 0.68867 0.37072 0.0
Li178 Li 0.03044 0.71699 0.34805 0.0
Li179 Li 0.00771 0.67966 0.33808 0.0
C180 C 0.99385 0.74707 0.37638 0.0
N181 N 0.96584 0.78667 0.39212 0.0
C182 C 0.98154 0.74334 0.39319 0.0
C183 C 0.99213 0.77104 0.36767 0.0
C184 C 0.96744 0.76358 0.40091 0.0
C185 C 0.9778 0.79078 0.37581 0.0
C186 C 0.96353 0.65985 0.34922 0.0
C187 C 0.95531 0.61411 0.35076 0.0
N188 N 0.93804 0.61644 0.33684 0.0
C189 C 0.94557 0.66187 0.33504 0.0
C190 C 0.96839 0.63585 0.35724 0.0
C191 C 0.93293 0.63966 0.32893 0.0
C192 C 0.95062 0.75136 0.32852 0.0
N193 N 0.95367 0.73759 0.34419 0.0
C194 C 0.91455 0.75484 0.35639 0.0
C195 C 0.93586 0.7385 0.35782 0.0
C196 C 0.91125 0.77003 0.34061 0.0
C197 C 0.92945 0.76776 0.32641 0.0
H198 H 0.96476 0.74983 0.31772 0.0
H199 H 0.93861 0.72704 0.37004 0.0
C200 C 0.02705 0.67842 0.40538 0.0
N201 N 0.00524 0.67678 0.39517 0.0
C202 C 0.02631 0.673 0.42409 0.0
C203 C 0.98077 0.66379 0.42129 0.0
C204 C 0.98242 0.66928 0.40261 0.0
C205 C 0.00282 0.66612 0.43237 0.0
H206 H 0.04486 0.68465 0.39906 0.0
H207 H 0.9653 0.66861 0.39416 0.0
C208 C 0.0213 0.72719 0.31381 0.0
N209 N 0.0508 0.75377 0.28856 0.0
C210 C 0.03655 0.71373 0.30124 0.0
C211 C 0.02099 0.75417 0.31348 0.0
C212 C 0.05131 0.72752 0.28857 0.0
C213 C 0.03608 0.76725 0.30064 0.0
C214 C 0.05119 0.65888 0.35213 0.0
C215 C 0.06588 0.65706 0.33614 0.0
C216 C 0.05111 0.63844 0.36461 0.0
C217 C 0.08013 0.63465 0.33283 0.0
C218 C 0.06567 0.61638 0.36083 0.0
N219 N 0.07973 0.61495 0.34514 0.0
C220 C 0.06146 0.75949 0.35717 0.0
C221 C 0.07966 0.73324 0.33398 0.0
C222 C 0.08222 0.77653 0.35616 0.0
N223 N 0.06036 0.73851 0.34603 0.0
C224 C 0.10075 0.7499 0.33241 0.0
C225 C 0.10216 0.77192 0.34359 0.0
H226 H 0.04619 0.76308 0.36687 0.0
H227 H 0.07866 0.71624 0.32548 0.0
C228 C 0.99427 0.65955 0.30427 0.0
N229 N 0.00528 0.65227 0.32033 0.0
C230 C 0.98863 0.64133 0.29085 0.0
C231 C 0.0059 0.60814 0.31055 0.0
C232 C 0.01103 0.62707 0.32371 0.0
C233 C 0.99429 0.61515 0.29389 0.0
H234 H 0.98889 0.67949 0.30216 0.0
H235 H 0.01865 0.6214 0.33684 0.0
O236 O 0.00736 0.72731 0.36843 0.0
O237 O 0.97673 0.68119 0.35496 0.0
O238 O 0.0069 0.71405 0.32645 0.0
O239 O 0.03731 0.68073 0.35573 0.0
H240 H 0.98272 0.725 0.40018 0.0
H241 H 0.00154 0.77428 0.35467 0.0
H242 H 0.95772 0.76092 0.41387 0.0
H243 H 0.97614 0.80934 0.36914 0.0
H244 H 0.95901 0.59536 0.35672 0.0
H245 H 0.9417 0.68035 0.32868 0.0
H246 H 0.9824 0.63398 0.36814 0.0
H247 H 0.91914 0.64087 0.31786 0.0
H248 H 0.90124 0.75608 0.36777 0.0
H249 H 0.92743 0.77862 0.31383 0.0
H250 H 0.04384 0.67471 0.43205 0.0
H251 H 0.9622 0.65892 0.42712 0.0
H252 H 0.0373 0.69288 0.30139 0.0
H253 H 0.0094 0.76492 0.32313 0.0
H254 H 0.06329 0.71735 0.27883 0.0
H255 H 0.03613 0.78813 0.30031 0.0
H256 H 0.066 0.67261 0.32629 0.0
H257 H 0.03982 0.63953 0.37704 0.0
H258 H 0.09146 0.6329 0.32046 0.0
H259 H 0.06573 0.60038 0.37033 0.0
H260 H 0.08243 0.79337 0.36495 0.0
H261 H 0.1159 0.74547 0.3227 0.0
H262 H 0.97888 0.64765 0.27853 0.0
H263 H 0.01049 0.5882 0.31356 0.0
Li264 Li 0.31749 0.00672 0.36921 0.0
Li265 Li 0.29 0.02729 0.34379 0.0
Li266 Li 0.29483 0.98056 0.34667 0.0
Li267 Li 0.33025 0.00547 0.33694 0.0
C268 C 0.25788 0.9918 0.3697 0.0
N269 N 0.21444 0.96358 0.37861 0.0
C270 C 0.23441 0.99691 0.36102 0.0
C271 C 0.25919 0.9725 0.38305 0.0
C272 C 0.21268 0.98239 0.36569 0.0
C273 C 0.23704 0.95841 0.38732 0.0
C274 C 0.34454 0.05155 0.34566 0.0
C275 C 0.35993 0.08246 0.32356 0.0
N276 N 0.38419 0.07982 0.33038 0.0
C277 C 0.36958 0.04919 0.35251 0.0
C278 C 0.3396 0.06833 0.33111 0.0
C279 C 0.38939 0.06363 0.34457 0.0
C280 C 0.35156 0.00896 0.40015 0.0
N281 N 0.32677 0.01049 0.39421 0.0
C282 C 0.31146 0.01501 0.42484 0.0
C283 C 0.30692 0.01382 0.40608 0.0
C284 C 0.33682 0.01335 0.43156 0.0
C285 C 0.35708 0.01052 0.41888 0.0
H286 H 0.36698 0.00618 0.39038 0.0
H287 H 0.2874 0.01506 0.40099 0.0
C288 C 0.24824 0.05182 0.32613 0.0
N289 N 0.26734 0.05486 0.33867 0.0
C290 C 0.22994 0.07128 0.32357 0.0
C291 C 0.25203 0.09695 0.34637 0.0
C292 C 0.26976 0.07692 0.34858 0.0
C293 C 0.23154 0.09407 0.33395 0.0
H294 H 0.2468 0.03396 0.31851 0.0
H295 H 0.28511 0.07865 0.35853 0.0
C296 C 0.33851 0.95395 0.36183 0.0
N297 N 0.35403 0.90666 0.3755 0.0
C298 C 0.35166 0.93648 0.35061 0.0
C299 C 0.3336 0.94748 0.38009 0.0
C300 C 0.35922 0.91263 0.35775 0.0
C301 C 0.34151 0.92345 0.38671 0.0
C302 C 0.299 0.98849 0.3084 0.0
C303 C 0.31174 0.96474 0.30834 0.0
C304 C 0.28914 0.99842 0.29205 0.0
C305 C 0.31454 0.95131 0.29188 0.0
C306 C 0.2923 0.9844 0.27586 0.0
N307 N 0.30485 0.96134 0.27611 0.0
C308 C 0.25444 0.95202 0.33127 0.0
C309 C 0.27835 0.92759 0.35276 0.0
C310 C 0.23694 0.93181 0.32902 0.0
N311 N 0.27456 0.94972 0.34311 0.0
C312 C 0.26133 0.90687 0.35092 0.0
C313 C 0.24008 0.90896 0.33911 0.0
H314 H 0.2515 0.96994 0.32397 0.0
H315 H 0.29389 0.92618 0.36244 0.0
C316 C 0.38062 0.99254 0.32532 0.0
N317 N 0.35888 0.00559 0.32062 0.0
C318 C 0.3998 0.98804 0.31229 0.0
C319 C 0.37447 0.01185 0.29021 0.0
C320 C 0.35593 0.01609 0.3037 0.0
C321 C 0.39631 0.99691 0.29429 0.0
H322 H 0.38245 0.98449 0.33892 0.0
H323 H 0.33852 0.02659 0.30041 0.0
O324 O 0.27957 0.0052 0.36484 0.0
O325 O 0.32504 0.03702 0.35286 0.0
O326 O 0.33144 0.97761 0.35515 0.0
O327 O 0.29653 0.0023 0.32427 0.0
H328 H 0.23305 0.0117 0.35063 0.0
H329 H 0.2772 0.96819 0.38984 0.0
H330 H 0.19445 0.98601 0.35898 0.0
H331 H 0.23784 0.94327 0.39751 0.0
H332 H 0.35644 0.09544 0.31223 0.0
H333 H 0.37371 0.03612 0.36368 0.0
H334 H 0.32033 0.0702 0.32558 0.0
H335 H 0.4089 0.06191 0.34965 0.0
H336 H 0.29508 0.01656 0.43395 0.0
H337 H 0.37695 0.00943 0.42334 0.0
H338 H 0.21453 0.06841 0.31377 0.0
H339 H 0.25377 0.11407 0.35478 0.0
H340 H 0.35613 0.94127 0.33655 0.0
H341 H 0.32348 0.96062 0.38902 0.0
H342 H 0.36932 0.89891 0.34919 0.0
H343 H 0.33766 0.91814 0.40077 0.0
H344 H 0.31938 0.9568 0.32087 0.0
H345 H 0.27929 0.01684 0.29186 0.0
H346 H 0.32443 0.93292 0.29165 0.0
H347 H 0.28483 0.99187 0.26309 0.0
H348 H 0.22091 0.9342 0.31967 0.0
H349 H 0.26424 0.88979 0.35921 0.0
H350 H 0.41629 0.97627 0.31591 0.0
H351 H 0.37123 0.01916 0.27651 0.0
Li352 Li 0.99365 0.67906 0.66345 0.0
Li353 Li 0.96945 0.71596 0.65503 0.0
Li354 Li 0.98965 0.69029 0.6313 0.0
Li355 Li 0.01651 0.71837 0.65332 0.0
C356 C 0.94155 0.66939 0.65764 0.0
N357 N 0.9006 0.64894 0.67699 0.0
C358 C 0.93646 0.67776 0.67546 0.0
C359 C 0.92578 0.65067 0.64963 0.0
C360 C 0.91568 0.66719 0.68502 0.0
C361 C 0.90517 0.64055 0.65964 0.0
C362 C 0.99412 0.72741 0.6907 0.0
C363 C 0.00272 0.76686 0.70716 0.0
N364 N 0.9932 0.75593 0.72267 0.0
C365 C 0.98466 0.71648 0.70686 0.0
C366 C 0.00346 0.75273 0.69088 0.0
C367 C 0.98425 0.73126 0.72286 0.0
C368 C 0.01593 0.65581 0.69352 0.0
N369 N 0.99814 0.65136 0.68026 0.0
C370 C 0.99212 0.60803 0.69077 0.0
C371 C 0.98607 0.62813 0.67869 0.0
C372 C 0.01106 0.61195 0.7042 0.0
C373 C 0.02281 0.63625 0.70563 0.0
H374 H 0.02535 0.6744 0.69431 0.0
H375 H 0.97229 0.62498 0.66782 0.0
C376 C 0.91815 0.7314 0.64855 0.0
N377 N 0.93911 0.73655 0.65915 0.0
C378 C 0.89649 0.74741 0.64923 0.0
C379 C 0.91793 0.7732 0.67218 0.0
C380 C 0.93922 0.75685 0.67095 0.0
C381 C 0.89635 0.76881 0.66102 0.0
H382 H 0.91864 0.71536 0.63909 0.0
H383 H 0.95611 0.76106 0.67893 0.0
C384 C 0.0355 0.66009 0.64816 0.0
N385 N 0.06155 0.61506 0.65632 0.0
C386 C 0.05754 0.66083 0.65915 0.0
C387 C 0.02683 0.63654 0.64117 0.0
C388 C 0.07041 0.63782 0.66316 0.0
C389 C 0.04024 0.61396 0.64549 0.0
C390 C 0.97754 0.74977 0.62886 0.0
C391 C 0.95861 0.74764 0.61533 0.0
C392 C 0.98195 0.77358 0.63729 0.0
C393 C 0.94409 0.76938 0.61064 0.0
C394 C 0.96702 0.79486 0.63221 0.0
N395 N 0.94853 0.79232 0.61913 0.0
C396 C 0.96568 0.67407 0.59833 0.0
C397 C 0.0113 0.67706 0.5977 0.0
C398 C 0.96515 0.66786 0.57971 0.0
N399 N 0.98853 0.67881 0.60679 0.0
C400 C 0.01169 0.67087 0.57912 0.0
C401 C 0.98838 0.66653 0.56981 0.0
H402 H 0.94787 0.67574 0.60595 0.0
H403 H 0.02913 0.68118 0.60482 0.0
C404 C 0.06117 0.73826 0.67075 0.0
N405 N 0.0465 0.73903 0.65533 0.0
C406 C 0.08278 0.7542 0.6724 0.0
C407 C 0.07411 0.77081 0.64207 0.0
C408 C 0.0526 0.7547 0.64107 0.0
C409 C 0.08944 0.77081 0.65794 0.0
H410 H 0.05587 0.72547 0.68184 0.0
H411 H 0.04056 0.75485 0.62898 0.0
O412 O 0.96187 0.6793 0.648 0.0
O413 O 0.99527 0.713 0.67501 0.0
O414 O 0.02206 0.68223 0.64466 0.0
O415 O 0.99129 0.72852 0.63411 0.0
H416 H 0.94831 0.69236 0.68178 0.0
H417 H 0.92948 0.644 0.63583 0.0
H418 H 0.91153 0.67352 0.69882 0.0
H419 H 0.89283 0.62601 0.65363 0.0
H420 H 0.00971 0.78653 0.70745 0.0
H421 H 0.97783 0.69675 0.70709 0.0
H422 H 0.01088 0.76151 0.67854 0.0
H423 H 0.9769 0.72307 0.73544 0.0
H424 H 0.9828 0.58945 0.68924 0.0
H425 H 0.03737 0.64001 0.71593 0.0
H426 H 0.88018 0.74331 0.64043 0.0
H427 H 0.91879 0.78974 0.68123 0.0
H428 H 0.06441 0.67893 0.66471 0.0
H429 H 0.0097 0.6357 0.63272 0.0
H430 H 0.08738 0.63804 0.67177 0.0
H431 H 0.03365 0.59555 0.6403 0.0
H432 H 0.95492 0.72931 0.60873 0.0
H433 H 0.99653 0.77552 0.64779 0.0
H434 H 0.92921 0.76797 0.60031 0.0
H435 H 0.97007 0.81336 0.63873 0.0
H436 H 0.94678 0.66447 0.57309 0.0
H437 H 0.02999 0.67046 0.57199 0.0
H438 H 0.09422 0.75347 0.68479 0.0
H439 H 0.0784 0.78353 0.6307 0.0
Li440 Li 0.2918 0.01861 0.65606 0.0
Li441 Li 0.32975 0.99244 0.66272 0.0
Li442 Li 0.31658 0.99542 0.63131 0.0
Li443 Li 0.29065 0.97164 0.65558 0.0
C444 C 0.34399 0.04159 0.65493 0.0
N445 N 0.37839 0.07466 0.6718 0.0
C446 C 0.33999 0.04927 0.67306 0.0
C447 C 0.36532 0.05094 0.64532 0.0
C448 C 0.35765 0.06593 0.68137 0.0
C449 C 0.38252 0.06762 0.6541 0.0
C450 C 0.28371 0.9837 0.69077 0.0
C451 C 0.27595 0.94762 0.71091 0.0
N452 N 0.25576 0.96053 0.71848 0.0
C453 C 0.26315 0.99677 0.69897 0.0
C454 C 0.29042 0.9591 0.69699 0.0
C455 C 0.24916 0.98467 0.71288 0.0
C456 C 0.24526 0.04398 0.66362 0.0
N457 N 0.27059 0.0483 0.65996 0.0
C458 C 0.26323 0.09385 0.65869 0.0
C459 C 0.2798 0.07263 0.65746 0.0
C460 C 0.2369 0.0899 0.66222 0.0
C461 C 0.22801 0.06456 0.66482 0.0
H462 H 0.23832 0.02441 0.66513 0.0
H463 H 0.29982 0.07558 0.65398 0.0
C464 C 0.38341 0.99776 0.66975 0.0
N465 N 0.36029 0.99183 0.67749 0.0
C466 C 0.40484 0.00276 0.68075 0.0
C467 C 0.37887 0.99331 0.70739 0.0
C468 C 0.35785 0.98887 0.69589 0.0
C469 C 0.40248 0.00126 0.69986 0.0
H470 H 0.38481 0.00021 0.65509 0.0
H471 H 0.33923 0.98453 0.70175 0.0
C472 C 0.26098 0.00987 0.6269 0.0
N473 N 0.22506 0.03964 0.60865 0.0
C474 C 0.23496 0.0029 0.62712 0.0
C475 C 0.26877 0.0319 0.61734 0.0
C476 C 0.21708 0.01823 0.61781 0.0
C477 C 0.25031 0.04672 0.60821 0.0
C478 C 0.34738 0.94974 0.64809 0.0
C479 C 0.36892 0.95395 0.63699 0.0
C480 C 0.34874 0.93158 0.6622 0.0
C481 C 0.39166 0.94034 0.64046 0.0
C482 C 0.37182 0.91836 0.66525 0.0
N483 N 0.39264 0.923 0.65442 0.0
C484 C 0.3489 0.00416 0.60025 0.0
C485 C 0.30676 0.98894 0.59397 0.0
C486 C 0.35461 0.00496 0.58154 0.0
N487 N 0.32528 0.99626 0.60604 0.0
C488 C 0.31141 0.98998 0.5752 0.0
C489 C 0.33565 0.99799 0.56866 0.0
H490 H 0.36335 0.00971 0.61015 0.0
H491 H 0.28819 0.98257 0.59892 0.0
C492 C 0.24296 0.94968 0.66456 0.0
N493 N 0.26724 0.9438 0.65895 0.0
C494 C 0.22437 0.93036 0.66614 0.0
C495 C 0.25611 0.89921 0.65615 0.0
C496 C 0.27416 0.91917 0.65485 0.0
C497 C 0.23071 0.90475 0.66166 0.0
H498 H 0.23795 0.9695 0.66755 0.0
H499 H 0.29351 0.91513 0.65015 0.0
O500 O 0.32745 0.02446 0.64683 0.0
O501 O 0.29746 0.99514 0.67697 0.0
O502 O 0.27869 0.99559 0.63639 0.0
O503 O 0.32506 0.96317 0.64503 0.0
H504 H 0.32361 0.04215 0.68072 0.0
H505 H 0.3687 0.04524 0.63128 0.0
H506 H 0.35493 0.07184 0.69544 0.0
H507 H 0.3992 0.07489 0.64686 0.0
H508 H 0.28079 0.92847 0.71571 0.0
H509 H 0.25817 0.01612 0.69478 0.0
H510 H 0.30651 0.9489 0.69105 0.0
H511 H 0.23312 0.99453 0.71926 0.0
H512 H 0.27076 0.11305 0.65631 0.0
H513 H 0.20788 0.06068 0.66764 0.0
H514 H 0.42273 0.00888 0.67446 0.0
H515 H 0.37618 0.99234 0.72208 0.0
H516 H 0.22862 0.98593 0.63448 0.0
H517 H 0.28883 0.03767 0.61718 0.0
H518 H 0.19686 0.01313 0.61791 0.0
H519 H 0.25603 0.0639 0.60084 0.0
H520 H 0.36818 0.96776 0.62594 0.0
H521 H 0.33215 0.92762 0.67068 0.0
H522 H 0.40853 0.94359 0.63207 0.0
H523 H 0.37316 0.90435 0.67619 0.0
H524 H 0.37371 0.01085 0.57728 0.0
H525 H 0.2959 0.98497 0.56594 0.0
H526 H 0.20517 0.93549 0.67069 0.0
H527 H 0.26176 0.87983 0.65231 0.0
Li528 Li 0.00846 0.3254 0.66384 0.0
Li529 Li 0.03291 0.28701 0.65544 0.0
Li530 Li 0.00783 0.31277 0.63218 0.0
Li531 Li 0.98501 0.28512 0.65421 0.0
C532 C 0.05305 0.34311 0.65326 0.0
N533 N 0.08149 0.38367 0.66719 0.0
C534 C 0.07251 0.33847 0.66608 0.0
C535 C 0.0482 0.36831 0.64739 0.0
C536 C 0.08665 0.35926 0.67298 0.0
C537 C 0.06274 0.38858 0.65464 0.0
C538 C 0.01136 0.27304 0.68972 0.0
C539 C 0.00925 0.22924 0.70086 0.0
N540 N 0.01865 0.23719 0.7173 0.0
C541 C 0.02066 0.28082 0.70682 0.0
C542 C 0.00532 0.24708 0.68681 0.0
C543 C 0.02435 0.2624 0.72054 0.0
C544 C 0.98901 0.37262 0.67722 0.0
N545 N 0.00709 0.35414 0.68029 0.0
C546 C 0.01966 0.37466 0.70825 0.0
C547 C 0.02275 0.35512 0.69521 0.0
C548 C 0.00055 0.39351 0.70567 0.0
C549 C 0.98555 0.39268 0.6897 0.0
H550 H 0.97659 0.37132 0.66543 0.0
H551 H 0.03719 0.34038 0.69724 0.0
C552 C 0.07384 0.25683 0.64308 0.0
N553 N 0.06341 0.26683 0.65861 0.0
C554 C 0.09483 0.24004 0.64403 0.0
C555 C 0.09495 0.24519 0.67691 0.0
C556 C 0.07385 0.26183 0.67531 0.0
C557 C 0.10547 0.2337 0.66114 0.0
H558 H 0.06533 0.26134 0.62995 0.0
H559 H 0.06575 0.27056 0.68742 0.0
C560 C 0.96155 0.33493 0.63642 0.0
N561 N 0.92931 0.36127 0.61278 0.0
C562 C 0.93738 0.3248 0.63196 0.0
C563 C 0.96918 0.35863 0.62903 0.0
C564 C 0.92139 0.33837 0.61994 0.0
C565 C 0.95265 0.37159 0.61705 0.0
C566 C 0.00802 0.25048 0.6281 0.0
C567 C 0.99795 0.24685 0.61053 0.0
C568 C 0.01649 0.22905 0.63807 0.0
C569 C 0.99581 0.22188 0.60347 0.0
C570 C 0.01409 0.20439 0.63054 0.0
N571 N 0.00383 0.20133 0.61355 0.0
C572 C 0.02639 0.33679 0.59956 0.0
C573 C 0.98598 0.31569 0.59721 0.0
C574 C 0.02578 0.34294 0.58092 0.0
N575 N 0.00673 0.32322 0.60722 0.0
C576 C 0.98451 0.32149 0.57863 0.0
C577 C 0.00469 0.33506 0.57018 0.0
H578 H 0.04273 0.34244 0.60785 0.0
H579 H 0.97075 0.30468 0.60361 0.0
C580 C 0.94479 0.25898 0.67362 0.0
N581 N 0.95519 0.26383 0.65688 0.0
C582 C 0.92352 0.24255 0.67528 0.0
C583 C 0.92334 0.23749 0.6424 0.0
C584 C 0.9446 0.2539 0.64139 0.0
C585 C 0.91271 0.23131 0.65953 0.0
H586 H 0.9532 0.26759 0.68571 0.0
H587 H 0.95252 0.25893 0.6282 0.0
O588 O 0.03866 0.32307 0.64663 0.0
O589 O 0.00777 0.29087 0.67609 0.0
O590 O 0.97759 0.32174 0.64801 0.0
O591 O 0.01032 0.27491 0.63518 0.0
H592 H 0.07646 0.31908 0.67078 0.0
H593 H 0.0333 0.3722 0.63741 0.0
H594 H 0.10166 0.35599 0.683 0.0
H595 H 0.05911 0.40821 0.65031 0.0
H596 H 0.00468 0.20908 0.69874 0.0
H597 H 0.02511 0.30083 0.70949 0.0
H598 H 0.99728 0.24078 0.67395 0.0
H599 H 0.03171 0.26816 0.73378 0.0
H600 H 0.03161 0.37469 0.72041 0.0
H601 H 0.97029 0.40659 0.68738 0.0
H602 H 0.10208 0.23149 0.63152 0.0
H603 H 0.10286 0.24128 0.69034 0.0
H604 H 0.931 0.30668 0.63771 0.0
H605 H 0.9878 0.36676 0.63233 0.0
H606 H 0.90268 0.3307 0.61632 0.0
H607 H 0.95841 0.38983 0.61112 0.0
H608 H 0.99169 0.26308 0.60242 0.0
H609 H 0.02526 0.23136 0.65136 0.0
H610 H 0.98783 0.21884 0.58996 0.0
H611 H 0.02054 0.18769 0.63816 0.0
H612 H 0.04169 0.35353 0.57494 0.0
H613 H 0.96813 0.3146 0.57084 0.0
H614 H 0.91598 0.2383 0.68877 0.0
H615 H 0.91521 0.22985 0.62986 0.0
Li616 Li 0.7119 0.0313 0.65471 0.0
Li617 Li 0.6844 0.00816 0.63158 0.0
Li618 Li 0.6727 0.0068 0.66403 0.0
Li619 Li 0.70936 0.98393 0.653 0.0
C620 C 0.65235 0.04934 0.65133 0.0
N621 N 0.60506 0.07022 0.66041 0.0
C622 C 0.63046 0.04298 0.64114 0.0
C623 C 0.65024 0.06632 0.66613 0.0
C624 C 0.60671 0.05376 0.64594 0.0
C625 C 0.62613 0.07666 0.6705 0.0
C626 C 0.73253 0.01132 0.61755 0.0
C627 C 0.74218 0.99466 0.58748 0.0
N628 N 0.75149 0.01819 0.58254 0.0
C629 C 0.74236 0.03529 0.61221 0.0
C630 C 0.73261 0.99078 0.60514 0.0
C631 C 0.75182 0.03838 0.59444 0.0
C632 C 0.75978 0.05409 0.66026 0.0
N633 N 0.73428 0.05965 0.65873 0.0
C634 C 0.74295 0.10485 0.66109 0.0
C635 C 0.72557 0.08439 0.65909 0.0
C636 C 0.76947 0.09967 0.66271 0.0
C637 C 0.77778 0.07386 0.66235 0.0
H638 H 0.76618 0.03427 0.6594 0.0
H639 H 0.7052 0.08827 0.65755 0.0
C640 C 0.65711 0.9903 0.60051 0.0
N641 N 0.67218 0.00967 0.60701 0.0
C642 C 0.65056 0.98939 0.58197 0.0
C643 C 0.6744 0.02893 0.57735 0.0
C644 C 0.67996 0.02935 0.59604 0.0
C645 C 0.65991 0.00845 0.56995 0.0
H646 H 0.65058 0.97524 0.60963 0.0
H647 H 0.69138 0.04488 0.60167 0.0
C648 C 0.71791 0.99134 0.68844 0.0
N649 N 0.73996 0.95964 0.71453 0.0
C650 C 0.70243 0.97514 0.69909 0.0
C651 C 0.74459 0.99149 0.69112 0.0
C652 C 0.71394 0.95927 0.71222 0.0
C653 C 0.75538 0.97527 0.70434 0.0
C654 C 0.67069 0.95215 0.64587 0.0
C655 C 0.65913 0.9391 0.66048 0.0
C656 C 0.68034 0.93812 0.63103 0.0
C657 C 0.6576 0.91218 0.66004 0.0
C658 C 0.6785 0.91122 0.63113 0.0
N659 N 0.66726 0.89891 0.64551 0.0
C660 C 0.62224 0.99464 0.67543 0.0
C661 C 0.64715 0.01677 0.69765 0.0
C662 C 0.60253 0.99058 0.68811 0.0
N663 N 0.64435 0.00666 0.6806 0.0
C664 C 0.62784 0.01331 0.71075 0.0
C665 C 0.60556 0.99917 0.70625 0.0
H666 H 0.62051 0.987 0.6617 0.0
H667 H 0.66488 0.02649 0.70129 0.0
C668 C 0.75351 0.95422 0.64584 0.0
N669 N 0.73114 0.95393 0.65554 0.0
C670 C 0.77061 0.93348 0.64679 0.0
C671 C 0.74175 0.91254 0.66804 0.0
C672 C 0.72514 0.93369 0.66662 0.0
C673 C 0.76487 0.91224 0.65801 0.0
H674 H 0.75822 0.97064 0.6374 0.0
H675 H 0.7076 0.93396 0.67454 0.0
O676 O 0.67558 0.03832 0.64721 0.0
O677 O 0.72292 0.00796 0.63484 0.0
O678 O 0.70703 0.00685 0.6754 0.0
O679 O 0.67236 0.97851 0.64602 0.0
H680 H 0.63175 0.02968 0.62975 0.0
H681 H 0.66695 0.07113 0.67431 0.0
H682 H 0.58958 0.04895 0.63822 0.0
H683 H 0.62416 0.08972 0.68197 0.0
H684 H 0.74219 0.97898 0.5777 0.0
H685 H 0.74241 0.05144 0.62159 0.0
H686 H 0.72525 0.97206 0.60908 0.0
H687 H 0.75934 0.05687 0.59009 0.0
H688 H 0.73575 0.12447 0.66133 0.0
H689 H 0.79807 0.06902 0.66313 0.0
H690 H 0.63866 0.97366 0.57711 0.0
H691 H 0.68229 0.04399 0.56876 0.0
H692 H 0.6818 0.97446 0.69705 0.0
H693 H 0.75688 0.00381 0.68298 0.0
H694 H 0.7022 0.94654 0.72048 0.0
H695 H 0.77601 0.97508 0.70648 0.0
H696 H 0.65179 0.94957 0.67217 0.0
H697 H 0.68924 0.94789 0.61959 0.0
H698 H 0.64885 0.90184 0.6713 0.0
H699 H 0.686 0.90012 0.61977 0.0
H700 H 0.58587 0.97938 0.68402 0.0
H701 H 0.63082 0.02067 0.72446 0.0
H702 H 0.78806 0.93403 0.63867 0.0
H703 H 0.73673 0.8968 0.67711 0.0
Li704 Li 0.51582 0.78077 0.84594 0.0
Li705 Li 0.49187 0.80786 0.86686 0.0
Li706 Li 0.46975 0.78366 0.84322 0.0
Li707 Li 0.4957 0.8203 0.8352 0.0
C708 C 0.48761 0.74365 0.8647 0.0
N709 N 0.48275 0.69056 0.86574 0.0
C710 C 0.48211 0.73119 0.8812 0.0
C711 C 0.4907 0.7291 0.84873 0.0
C712 C 0.47972 0.70433 0.88145 0.0
C713 C 0.48814 0.70229 0.84953 0.0
C714 C 0.5456 0.81719 0.86388 0.0
C715 C 0.5884 0.83324 0.86992 0.0
N716 N 0.58972 0.81804 0.88507 0.0
C717 C 0.54738 0.80173 0.8795 0.0
C718 C 0.56626 0.83309 0.85903 0.0
C719 C 0.56984 0.80243 0.89004 0.0
C720 C 0.55727 0.75652 0.82734 0.0
N721 N 0.54509 0.75866 0.84374 0.0
C722 C 0.57428 0.72856 0.85733 0.0
C723 C 0.55313 0.74508 0.8586 0.0
C724 C 0.58716 0.72563 0.84052 0.0
C725 C 0.57841 0.73998 0.82539 0.0
H726 H 0.5504 0.7675 0.81573 0.0
H727 H 0.54305 0.74696 0.87147 0.0
C728 C 0.47449 0.80507 0.90289 0.0
N729 N 0.48963 0.81925 0.89156 0.0
C730 C 0.47374 0.81051 0.92159 0.0
C731 C 0.50357 0.84566 0.91649 0.0
C732 C 0.50369 0.83956 0.89787 0.0
C733 C 0.48876 0.83077 0.92866 0.0
H734 H 0.46355 0.78904 0.89745 0.0
H735 H 0.51557 0.85056 0.88855 0.0
C736 C 0.48368 0.78815 0.80654 0.0
N737 N 0.45981 0.79302 0.7729 0.0
C738 C 0.46085 0.80233 0.80492 0.0
C739 C 0.49437 0.77648 0.79106 0.0
C740 C 0.44908 0.80456 0.78779 0.0
C741 C 0.48201 0.77915 0.77417 0.0
C742 C 0.45712 0.84477 0.85551 0.0
C743 C 0.43118 0.85151 0.85746 0.0
C744 C 0.47623 0.86321 0.85884 0.0
C745 C 0.42477 0.87665 0.86269 0.0
C746 C 0.46905 0.88813 0.86405 0.0
N747 N 0.44368 0.89428 0.86585 0.0
C748 C 0.42062 0.76468 0.85159 0.0
C749 C 0.43819 0.74688 0.82444 0.0
C750 C 0.3994 0.74813 0.8505 0.0
N751 N 0.43956 0.76358 0.83877 0.0
C752 C 0.41721 0.73019 0.82271 0.0
C753 C 0.39765 0.73029 0.83604 0.0
H754 H 0.4225 0.7778 0.86304 0.0
H755 H 0.45375 0.74585 0.81465 0.0
C756 C 0.52502 0.84856 0.81117 0.0
N757 N 0.50096 0.8479 0.81845 0.0
C758 C 0.53162 0.86751 0.79848 0.0
C759 C 0.48856 0.88506 0.80109 0.0
C760 C 0.48265 0.86545 0.81358 0.0
C761 C 0.5133 0.88607 0.79332 0.0
H762 H 0.53907 0.83422 0.81522 0.0
H763 H 0.46347 0.86421 0.8193 0.0
O764 O 0.4898 0.76998 0.86429 0.0
O765 O 0.52386 0.81685 0.85327 0.0
O766 O 0.4958 0.78583 0.8231 0.0
O767 O 0.46354 0.82014 0.85049 0.0
H768 H 0.4797 0.74216 0.8937 0.0
H769 H 0.49499 0.73835 0.83582 0.0
H770 H 0.47545 0.69443 0.89413 0.0
H771 H 0.49044 0.69081 0.83727 0.0
H772 H 0.60455 0.84545 0.86632 0.0
H773 H 0.53159 0.78931 0.88348 0.0
H774 H 0.56517 0.84518 0.84696 0.0
H775 H 0.57146 0.79056 0.90217 0.0
H776 H 0.58052 0.71829 0.86945 0.0
H777 H 0.58749 0.73813 0.81211 0.0
H778 H 0.46231 0.79834 0.93049 0.0
H779 H 0.51523 0.86158 0.92136 0.0
H780 H 0.45223 0.8115 0.81671 0.0
H781 H 0.51205 0.76547 0.79209 0.0
H782 H 0.43142 0.81547 0.78634 0.0
H783 H 0.49006 0.77021 0.76207 0.0
H784 H 0.41616 0.83743 0.85496 0.0
H785 H 0.4964 0.85844 0.85733 0.0
H786 H 0.40477 0.88213 0.86425 0.0
H787 H 0.48364 0.90259 0.86664 0.0
H788 H 0.38508 0.74865 0.86128 0.0
H789 H 0.41659 0.71701 0.81121 0.0
H790 H 0.55097 0.86781 0.7929 0.0
H791 H 0.47391 0.89896 0.7973 0.0
Li792 Li 0.16965 0.49549 0.83648 0.0
Li793 Li 0.20756 0.5186 0.8455 0.0
Li794 Li 0.20859 0.47043 0.84269 0.0
Li795 Li 0.18429 0.49298 0.86813 0.0
C796 C 0.20454 0.51149 0.80781 0.0
N797 N 0.20794 0.54186 0.77682 0.0
C798 C 0.188 0.53253 0.80553 0.0
C799 C 0.22282 0.50588 0.79434 0.0
C800 C 0.19001 0.54766 0.78977 0.0
C801 C 0.22423 0.52147 0.77876 0.0
C802 C 0.16889 0.54876 0.85934 0.0
C803 C 0.17866 0.58463 0.87922 0.0
N804 N 0.16373 0.60021 0.86863 0.0
C805 C 0.15343 0.56507 0.84876 0.0
C806 C 0.18142 0.55854 0.87478 0.0
C807 C 0.15114 0.59104 0.85364 0.0
C808 C 0.11803 0.50813 0.82904 0.0
N809 N 0.13942 0.49717 0.82164 0.0
C810 C 0.11912 0.49467 0.79233 0.0
C811 C 0.14006 0.48961 0.80383 0.0
C812 C 0.09735 0.50753 0.79931 0.0
C813 C 0.09662 0.51341 0.81809 0.0
H814 H 0.11803 0.51373 0.8433 0.0
H815 H 0.15732 0.48081 0.79833 0.0
C816 C 0.25406 0.54549 0.84785 0.0
N817 N 0.22912 0.54834 0.8425 0.0
C818 C 0.27115 0.56623 0.84693 0.0
C819 C 0.23697 0.59235 0.83421 0.0
C820 C 0.22043 0.57112 0.83555 0.0
C821 C 0.26262 0.59009 0.84015 0.0
H822 H 0.26073 0.52706 0.85289 0.0
H823 H 0.20068 0.57293 0.83111 0.0
C824 C 0.15105 0.45164 0.84759 0.0
N825 N 0.10513 0.42916 0.83707 0.0
C826 C 0.12862 0.45615 0.85769 0.0
C827 C 0.15022 0.43562 0.83221 0.0
C828 C 0.10556 0.44461 0.85212 0.0
C829 C 0.12679 0.42445 0.8271 0.0
C830 C 0.23696 0.49011 0.87768 0.0
C831 C 0.24769 0.46605 0.88183 0.0
C832 C 0.24185 0.51116 0.88914 0.0
C833 C 0.26274 0.46335 0.89757 0.0
C834 C 0.25698 0.50767 0.90476 0.0
N835 N 0.26701 0.48404 0.90863 0.0
C836 C 0.25307 0.44756 0.82873 0.0
C837 C 0.2243 0.41792 0.84267 0.0
C838 C 0.27136 0.42813 0.82619 0.0
N839 N 0.23027 0.44219 0.83704 0.0
C840 C 0.24208 0.39788 0.84045 0.0
C841 C 0.2662 0.40298 0.83242 0.0
H842 H 0.25732 0.46715 0.82458 0.0
H843 H 0.20613 0.41436 0.84949 0.0
C844 C 0.15671 0.5074 0.90001 0.0
N845 N 0.17489 0.491 0.8933 0.0
C846 C 0.15153 0.50814 0.91877 0.0
C847 C 0.18309 0.47438 0.92323 0.0
C848 C 0.18731 0.47398 0.90438 0.0
C849 C 0.16534 0.49194 0.93063 0.0
H850 H 0.14666 0.52033 0.89085 0.0
H851 H 0.20088 0.46043 0.89863 0.0
O852 O 0.20302 0.49645 0.82316 0.0
O853 O 0.17156 0.52331 0.85468 0.0
O854 O 0.17359 0.46337 0.85248 0.0
O855 O 0.2221 0.49308 0.86233 0.0
H856 H 0.17383 0.53718 0.81584 0.0
H857 H 0.23577 0.48964 0.7959 0.0
H858 H 0.17733 0.56402 0.78785 0.0
H859 H 0.23829 0.51736 0.76822 0.0
H860 H 0.18834 0.59246 0.8911 0.0
H861 H 0.14342 0.55782 0.83683 0.0
H862 H 0.19306 0.54611 0.88329 0.0
H863 H 0.13937 0.60392 0.84551 0.0
H864 H 0.12067 0.49001 0.77793 0.0
H865 H 0.0801 0.52298 0.82411 0.0
H866 H 0.29092 0.56355 0.85131 0.0
H867 H 0.22967 0.61045 0.82889 0.0
H868 H 0.12899 0.46864 0.86957 0.0
H869 H 0.16745 0.4321 0.82422 0.0
H870 H 0.088 0.44802 0.85974 0.0
H871 H 0.12579 0.41212 0.81517 0.0
H872 H 0.24423 0.44955 0.87311 0.0
H873 H 0.23423 0.53004 0.88595 0.0
H874 H 0.27101 0.4448 0.90101 0.0
H875 H 0.26083 0.52378 0.91378 0.0
H876 H 0.28953 0.43287 0.81971 0.0
H877 H 0.23742 0.37888 0.84567 0.0
H878 H 0.13762 0.52186 0.92403 0.0
H879 H 0.19375 0.46128 0.93197 0.0
Li880 Li 0.48039 0.21649 0.84275 0.0
Li881 Li 0.50486 0.18975 0.86566 0.0
Li882 Li 0.5275 0.21255 0.84157 0.0
Li883 Li 0.50371 0.17498 0.83481 0.0
C884 C 0.52046 0.24534 0.86959 0.0
N885 N 0.55256 0.2816 0.88537 0.0
C886 C 0.54063 0.23749 0.881 0.0
C887 C 0.51656 0.27161 0.86624 0.0
C888 C 0.55666 0.25613 0.88884 0.0
C889 C 0.53301 0.28965 0.87435 0.0
C890 C 0.4574 0.17123 0.86465 0.0
C891 C 0.44666 0.13932 0.88749 0.0
N892 N 0.42578 0.15359 0.89244 0.0
C893 C 0.43571 0.18546 0.86989 0.0
C894 C 0.4628 0.14785 0.87343 0.0
C895 C 0.42001 0.17625 0.88399 0.0
C896 C 0.43573 0.23587 0.82465 0.0
N897 N 0.45123 0.23816 0.83957 0.0
C898 C 0.42483 0.27188 0.85164 0.0
C899 C 0.44616 0.25559 0.85299 0.0
C900 C 0.40852 0.2702 0.83633 0.0
C901 C 0.4142 0.25191 0.82269 0.0
H902 H 0.44013 0.22162 0.81428 0.0
H903 H 0.45862 0.25669 0.86483 0.0
C904 C 0.52068 0.16504 0.89908 0.0
N905 N 0.50431 0.18224 0.89118 0.0
C906 C 0.51968 0.16066 0.91796 0.0
C907 C 0.48508 0.19181 0.92009 0.0
C908 C 0.48692 0.19574 0.90127 0.0
C909 C 0.50162 0.17411 0.92869 0.0
H910 H 0.53467 0.15493 0.89079 0.0
H911 H 0.47451 0.20968 0.89464 0.0
C912 C 0.51259 0.22304 0.80739 0.0
N913 N 0.53349 0.253 0.77981 0.0
C914 C 0.5356 0.21564 0.79891 0.0
C915 C 0.50015 0.24563 0.80175 0.0
C916 C 0.54588 0.23107 0.78503 0.0
C917 C 0.51103 0.26052 0.7878 0.0
C918 C 0.54593 0.15521 0.84519 0.0
C919 C 0.56437 0.15593 0.83124 0.0
C920 C 0.53857 0.13147 0.85262 0.0
C921 C 0.575 0.13284 0.82486 0.0
C922 C 0.54962 0.1088 0.84585 0.0
N923 N 0.56744 0.10994 0.83222 0.0
C924 C 0.58095 0.22498 0.84286 0.0
C925 C 0.55426 0.25794 0.83077 0.0
C926 C 0.60254 0.24104 0.84165 0.0
N927 N 0.55742 0.23361 0.8374 0.0
C928 C 0.57531 0.27453 0.82917 0.0
C929 C 0.59981 0.26622 0.83479 0.0
H930 H 0.58284 0.2059 0.8487 0.0
H931 H 0.53523 0.26483 0.82732 0.0
C932 C 0.48341 0.12649 0.82474 0.0
N933 N 0.50021 0.14517 0.81943 0.0
C934 C 0.47793 0.10576 0.81318 0.0
C935 C 0.50782 0.12329 0.79108 0.0
C936 C 0.51271 0.14372 0.80309 0.0
C937 C 0.4897 0.10432 0.7959 0.0
H938 H 0.47358 0.1281 0.83769 0.0
H939 H 0.52587 0.15882 0.7991 0.0
O940 O 0.50512 0.22733 0.8613 0.0
O941 O 0.47328 0.1802 0.85108 0.0
O942 O 0.50217 0.20824 0.82103 0.0
O943 O 0.5348 0.17757 0.85129 0.0
H944 H 0.54412 0.21722 0.88354 0.0
H945 H 0.50124 0.27797 0.85725 0.0
H946 H 0.57244 0.25034 0.89761 0.0
H947 H 0.53032 0.31004 0.87179 0.0
H948 H 0.45079 0.12141 0.89451 0.0
H949 H 0.43104 0.20346 0.86321 0.0
H950 H 0.47954 0.13662 0.86967 0.0
H951 H 0.40324 0.18714 0.88823 0.0
H952 H 0.42133 0.28587 0.86238 0.0
H953 H 0.40198 0.24981 0.81076 0.0
H954 H 0.5328 0.14689 0.9241 0.0
H955 H 0.47125 0.20296 0.9279 0.0
H956 H 0.5457 0.19846 0.80322 0.0
H957 H 0.48242 0.25178 0.80818 0.0
H958 H 0.56378 0.22566 0.77847 0.0
H959 H 0.50165 0.27809 0.78337 0.0
H960 H 0.57026 0.17408 0.82527 0.0
H961 H 0.52424 0.1305 0.86333 0.0
H962 H 0.58918 0.13311 0.81401 0.0
H963 H 0.54396 0.09028 0.85139 0.0
H964 H 0.62111 0.23395 0.84622 0.0
H965 H 0.57223 0.29402 0.82425 0.0
H966 H 0.46403 0.09141 0.81752 0.0
H967 H 0.51711 0.12308 0.77781 0.0
Li968 Li 0.78834 0.5263 0.84497 0.0
Li969 Li 0.81485 0.50371 0.8678 0.0
Li970 Li 0.8256 0.50245 0.83539 0.0
Li971 Li 0.78794 0.47907 0.84716 0.0
C972 C 0.84736 0.54426 0.84741 0.0
N973 N 0.89453 0.56462 0.83747 0.0
C974 C 0.86914 0.53955 0.85817 0.0
C975 C 0.84949 0.55944 0.83168 0.0
C976 C 0.89283 0.55001 0.85289 0.0
C977 C 0.87354 0.56952 0.82686 0.0
C978 C 0.76857 0.50867 0.88298 0.0
C979 C 0.76315 0.49436 0.91418 0.0
N980 N 0.75409 0.51813 0.91877 0.0
C981 C 0.75915 0.53295 0.88801 0.0
C982 C 0.77051 0.48918 0.89615 0.0
C983 C 0.75192 0.53734 0.90618 0.0
C984 C 0.74059 0.54987 0.83962 0.0
N985 N 0.76619 0.55508 0.84104 0.0
C986 C 0.75811 0.60036 0.83837 0.0
C987 C 0.77524 0.5797 0.84046 0.0
C988 C 0.73156 0.59547 0.83672 0.0
C989 C 0.72289 0.56982 0.83725 0.0
H990 H 0.73391 0.53014 0.84058 0.0
H991 H 0.79568 0.5833 0.84187 0.0
C992 C 0.84106 0.48463 0.89898 0.0
N993 N 0.82814 0.50523 0.89204 0.0
C994 C 0.84792 0.48407 0.91745 0.0
C995 C 0.82899 0.5264 0.92107 0.0
C996 C 0.82294 0.52632 0.90246 0.0
C997 C 0.84114 0.50479 0.92894 0.0
H998 H 0.84545 0.46835 0.89027 0.0
H999 H 0.81296 0.5426 0.89648 0.0
C1000 C 0.77387 0.51034 0.81233 0.0
N1001 N 0.73873 0.53157 0.78821 0.0
C1002 C 0.74975 0.49881 0.80985 0.0
C1003 C 0.78017 0.53258 0.80245 0.0
C1004 C 0.73225 0.50985 0.7976 0.0
C1005 C 0.76211 0.54305 0.79036 0.0
C1006 C 0.82609 0.44734 0.85169 0.0
C1007 C 0.83488 0.43601 0.83548 0.0
C1008 C 0.81736 0.43169 0.86599 0.0
C1009 C 0.83477 0.40914 0.83385 0.0
C1010 C 0.81749 0.4049 0.86381 0.0
N1011 N 0.82613 0.39427 0.84792 0.0
C1012 C 0.87694 0.49185 0.82533 0.0
C1013 C 0.85013 0.50445 0.80062 0.0
C1014 C 0.89731 0.48676 0.81334 0.0
N1015 N 0.85382 0.50007 0.81876 0.0
C1016 C 0.86997 0.49967 0.78816 0.0
C1017 C 0.89373 0.49003 0.79442 0.0
H1018 H 0.8792 0.48821 0.83982 0.0
H1019 H 0.83151 0.51074 0.79574 0.0
C1020 C 0.74883 0.4446 0.85805 0.0
N1021 N 0.76647 0.44928 0.84471 0.0
C1022 C 0.73218 0.42357 0.85669 0.0
C1023 C 0.75193 0.41253 0.82778 0.0
C1024 C 0.76833 0.43379 0.82974 0.0
C1025 C 0.73339 0.4073 0.84132 0.0
H1026 H 0.74744 0.45736 0.86966 0.0
H1027 H 0.78228 0.43819 0.81919 0.0
O1028 O 0.82415 0.53366 0.85209 0.0
O1029 O 0.7761 0.50411 0.8653 0.0
O1030 O 0.79111 0.50007 0.82449 0.0
O1031 O 0.82547 0.47363 0.85341 0.0
H1032 H 0.86782 0.52774 0.87034 0.0
H1033 H 0.83282 0.56317 0.82318 0.0
H1034 H 0.90989 0.54643 0.86102 0.0
H1035 H 0.87552 0.58118 0.81465 0.0
H1036 H 0.76478 0.47952 0.92453 0.0
H1037 H 0.75765 0.54833 0.87808 0.0
H1038 H 0.77809 0.47039 0.89258 0.0
H1039 H 0.7447 0.55605 0.91027 0.0
H1040 H 0.76549 0.61992 0.83806 0.0
H1041 H 0.70254 0.56529 0.83637 0.0
H1042 H 0.85792 0.4673 0.92273 0.0
H1043 H 0.82309 0.54274 0.92929 0.0
H1044 H 0.74447 0.4817 0.81745 0.0
H1045 H 0.79863 0.54191 0.80434 0.0
H1046 H 0.71347 0.50121 0.79561 0.0
H1047 H 0.76666 0.56037 0.78275 0.0
H1048 H 0.84142 0.44781 0.82419 0.0
H1049 H 0.81022 0.44014 0.87855 0.0
H1050 H 0.84143 0.40011 0.82137 0.0
H1051 H 0.81065 0.39256 0.87472 0.0
H1052 H 0.91515 0.47903 0.81875 0.0
H1053 H 0.86647 0.50269 0.7737 0.0
H1054 H 0.71845 0.42013 0.8676 0.0
H1055 H 0.75334 0.40072 0.81558 0.0
Li1056 Li 0.47297 0.21491 0.1549 0.0
Li1057 Li 0.49806 0.17734 0.16012 0.0
Li1058 Li 0.51984 0.21993 0.15246 0.0
Li1059 Li 0.49454 0.19358 0.12972 0.0
C1060 C 0.48938 0.22155 0.18968 0.0
N1061 N 0.46896 0.24481 0.22049 0.0
C1062 C 0.46687 0.21189 0.19764 0.0
C1063 C 0.50155 0.24302 0.19742 0.0
C1064 C 0.45682 0.22394 0.21319 0.0
C1065 C 0.49092 0.2545 0.21299 0.0
C1066 C 0.45456 0.15777 0.15076 0.0
C1067 C 0.45144 0.11131 0.15053 0.0
N1068 N 0.43228 0.1126 0.16321 0.0
C1069 C 0.43474 0.15864 0.16372 0.0
C1070 C 0.46288 0.13393 0.14402 0.0
C1071 C 0.42375 0.13559 0.16986 0.0
C1072 C 0.41992 0.22833 0.15325 0.0
N1073 N 0.44309 0.23543 0.16036 0.0
C1074 C 0.42542 0.27548 0.1707 0.0
C1075 C 0.44611 0.25846 0.16902 0.0
C1076 C 0.40142 0.26901 0.16307 0.0
C1077 C 0.39868 0.24486 0.15452 0.0
H1078 H 0.41823 0.21037 0.1458 0.0
H1079 H 0.4649 0.26426 0.17385 0.0
C1080 C 0.5248 0.13271 0.17066 0.0
N1081 N 0.50384 0.14728 0.17488 0.0
C1082 C 0.53256 0.1127 0.18218 0.0
C1083 C 0.49646 0.12228 0.20193 0.0
C1084 C 0.48937 0.14215 0.18999 0.0
C1085 C 0.51877 0.10775 0.19834 0.0
H1086 H 0.5362 0.13727 0.15874 0.0
H1087 H 0.47291 0.15403 0.19318 0.0
C1088 C 0.47857 0.25046 0.1286 0.0
N1089 N 0.44626 0.28958 0.11705 0.0
C1090 C 0.45828 0.24507 0.11661 0.0
C1091 C 0.48259 0.27576 0.1346 0.0
C1092 C 0.44212 0.26511 0.11095 0.0
C1093 C 0.46599 0.29527 0.12863 0.0
C1094 C 0.54174 0.17592 0.12852 0.0
C1095 C 0.56107 0.19171 0.12128 0.0
C1096 C 0.53706 0.15176 0.12067 0.0
C1097 C 0.57517 0.18318 0.10614 0.0
C1098 C 0.55154 0.14394 0.10553 0.0
N1099 N 0.57012 0.1597 0.09863 0.0
C1100 C 0.56414 0.2395 0.17054 0.0
C1101 C 0.55334 0.25991 0.14253 0.0
C1102 C 0.58532 0.25588 0.17279 0.0
N1103 N 0.54861 0.24197 0.15566 0.0
C1104 C 0.57437 0.27653 0.14414 0.0
C1105 C 0.59065 0.27477 0.15948 0.0
H1106 H 0.55994 0.22492 0.18071 0.0
H1107 H 0.54088 0.2611 0.13068 0.0
C1108 C 0.47975 0.16746 0.09658 0.0
N1109 N 0.49373 0.18693 0.10412 0.0
C1110 C 0.47997 0.16365 0.07761 0.0
C1111 C 0.50885 0.20005 0.07469 0.0
C1112 C 0.50801 0.20317 0.09363 0.0
C1113 C 0.4946 0.18016 0.06641 0.0
H1114 H 0.46831 0.15501 0.10523 0.0
H1115 H 0.51887 0.21854 0.10004 0.0
O1116 O 0.49954 0.21007 0.17442 0.0
O1117 O 0.46581 0.18011 0.14476 0.0
O1118 O 0.49402 0.23095 0.1348 0.0
O1119 O 0.52724 0.18424 0.14304 0.0
H1120 H 0.45697 0.19561 0.19169 0.0
H1121 H 0.51889 0.25087 0.19139 0.0
H1122 H 0.43931 0.21675 0.21942 0.0
H1123 H 0.5001 0.27117 0.21909 0.0
H1124 H 0.45783 0.09273 0.14552 0.0
H1125 H 0.42801 0.17688 0.16909 0.0
H1126 H 0.4782 0.13287 0.13403 0.0
H1127 H 0.40849 0.13599 0.17994 0.0
H1128 H 0.42841 0.29382 0.17749 0.0
H1129 H 0.38069 0.23929 0.14813 0.0
H1130 H 0.54971 0.10177 0.17877 0.0
H1131 H 0.4854 0.11927 0.21433 0.0
H1132 H 0.45482 0.22554 0.11195 0.0
H1133 H 0.49807 0.2802 0.14402 0.0
H1134 H 0.42621 0.2612 0.10179 0.0
H1135 H 0.46871 0.3149 0.13328 0.0
H1136 H 0.56504 0.21041 0.12717 0.0
H1137 H 0.52218 0.13928 0.12606 0.0
H1138 H 0.59008 0.19527 0.10034 0.0
H1139 H 0.54795 0.12539 0.09923 0.0
H1140 H 0.59718 0.25397 0.18491 0.0
H1141 H 0.578 0.29039 0.13335 0.0
H1142 H 0.46846 0.14827 0.07177 0.0
H1143 H 0.52068 0.21299 0.06664 0.0
Li1144 Li 0.78595 0.52248 0.15034 0.0
Li1145 Li 0.82533 0.50165 0.15943 0.0
Li1146 Li 0.81198 0.49684 0.12865 0.0
Li1147 Li 0.78958 0.47358 0.15322 0.0
C1148 C 0.8207 0.55062 0.1299 0.0
N1149 N 0.81935 0.5929 0.10685 0.0
C1150 C 0.83878 0.57043 0.13186 0.0
C1151 C 0.80201 0.55229 0.11619 0.0
C1152 C 0.83776 0.59166 0.12008 0.0
C1153 C 0.80162 0.5738 0.10468 0.0
C1154 C 0.79892 0.5015 0.19004 0.0
C1155 C 0.81468 0.48011 0.21711 0.0
N1156 N 0.81663 0.50337 0.22565 0.0
C1157 C 0.80083 0.52517 0.19911 0.0
C1158 C 0.80572 0.47875 0.1991 0.0
C1159 C 0.80993 0.52572 0.21711 0.0
C1160 C 0.73803 0.54801 0.15084 0.0
N1161 N 0.76371 0.55105 0.15372 0.0
C1162 C 0.75771 0.59548 0.16138 0.0
C1163 C 0.77375 0.57407 0.15908 0.0
C1164 C 0.73109 0.59315 0.15808 0.0
C1165 C 0.72133 0.56894 0.15278 0.0
H1166 H 0.73055 0.52933 0.14691 0.0
H1167 H 0.79424 0.57577 0.16158 0.0
C1168 C 0.86733 0.48922 0.18409 0.0
N1169 N 0.85342 0.50795 0.17555 0.0
C1170 C 0.88589 0.49594 0.19719 0.0
C1171 C 0.87569 0.54089 0.19194 0.0
C1172 C 0.85751 0.53336 0.17902 0.0
C1173 C 0.88981 0.5221 0.20148 0.0
H1174 H 0.86346 0.46912 0.18114 0.0
H1175 H 0.84591 0.54777 0.17219 0.0
C1176 C 0.75674 0.48783 0.12034 0.0
N1177 N 0.72049 0.47315 0.09456 0.0
C1178 C 0.75261 0.4617 0.11654 0.0
C1179 C 0.74217 0.50648 0.11111 0.0
C1180 C 0.73428 0.45467 0.10344 0.0
C1181 C 0.72403 0.49867 0.0981 0.0
C1182 C 0.85043 0.46332 0.13936 0.0
C1183 C 0.8681 0.48312 0.13592 0.0
C1184 C 0.85794 0.43764 0.13697 0.0
C1185 C 0.89299 0.47687 0.13012 0.0
C1186 C 0.88301 0.43217 0.13115 0.0
N1187 N 0.89987 0.45174 0.12787 0.0
C1188 C 0.8417 0.51018 0.09704 0.0
C1189 C 0.80978 0.47824 0.09216 0.0
C1190 C 0.84757 0.51061 0.07837 0.0
N1191 N 0.8225 0.49472 0.10347 0.0
C1192 C 0.81472 0.47831 0.07341 0.0
C1193 C 0.83345 0.49503 0.06629 0.0
H1194 H 0.8521 0.52267 0.1063 0.0
H1195 H 0.79556 0.46524 0.09762 0.0
C1196 C 0.74651 0.44827 0.16703 0.0
N1197 N 0.77003 0.44405 0.15943 0.0
C1198 C 0.72954 0.42776 0.1698 0.0
C1199 C 0.76162 0.39882 0.15727 0.0
C1200 C 0.77808 0.41991 0.15488 0.0
C1201 C 0.73683 0.40271 0.16454 0.0
H1202 H 0.74061 0.46777 0.1703 0.0
H1203 H 0.79683 0.41723 0.14869 0.0
O1204 O 0.82137 0.52984 0.14147 0.0
O1205 O 0.79096 0.50064 0.17222 0.0
O1206 O 0.77423 0.49507 0.13346 0.0
O1207 O 0.82586 0.46884 0.14499 0.0
H1208 H 0.85347 0.56942 0.14235 0.0
H1209 H 0.78817 0.53702 0.11434 0.0
H1210 H 0.85161 0.60715 0.12146 0.0
H1211 H 0.78726 0.57528 0.09399 0.0
H1212 H 0.8202 0.46269 0.22427 0.0
H1213 H 0.7957 0.54295 0.19222 0.0
H1214 H 0.80439 0.4603 0.1922 0.0
H1215 H 0.81177 0.54391 0.22426 0.0
H1216 H 0.76607 0.61358 0.16582 0.0
H1217 H 0.70104 0.56622 0.14986 0.0
H1218 H 0.89634 0.4809 0.20432 0.0
H1219 H 0.87838 0.56127 0.19465 0.0
H1220 H 0.76381 0.44697 0.1233 0.0
H1221 H 0.74468 0.5268 0.11397 0.0
H1222 H 0.73108 0.43452 0.1003 0.0
H1223 H 0.7127 0.51292 0.09086 0.0
H1224 H 0.86277 0.50312 0.13771 0.0
H1225 H 0.84451 0.42207 0.13957 0.0
H1226 H 0.90684 0.49201 0.12741 0.0
H1227 H 0.88907 0.41237 0.12924 0.0
H1228 H 0.86227 0.52366 0.07334 0.0
H1229 H 0.80384 0.4656 0.06451 0.0
H1230 H 0.71049 0.43164 0.17521 0.0
H1231 H 0.76798 0.37978 0.15313 0.0
Li1232 Li 0.50124 0.8253 0.15968 0.0
Li1233 Li 0.5287 0.7885 0.15294 0.0
Li1234 Li 0.5038 0.80997 0.12887 0.0
Li1235 Li 0.48248 0.78339 0.15198 0.0
C1236 C 0.54492 0.8453 0.15008 0.0
N1237 N 0.56893 0.88813 0.16479 0.0
C1238 C 0.56423 0.84231 0.16325 0.0
C1239 C 0.53788 0.87005 0.14432 0.0
C1240 C 0.57614 0.86422 0.17052 0.0
C1241 C 0.55022 0.89147 0.15195 0.0
C1242 C 0.4901 0.78098 0.18684 0.0
C1243 C 0.47575 0.7429 0.20288 0.0
N1244 N 0.45913 0.75764 0.21279 0.0
C1245 C 0.47283 0.79574 0.19716 0.0
C1246 C 0.49159 0.75434 0.18971 0.0
C1247 C 0.45737 0.78358 0.21023 0.0
C1248 C 0.48109 0.87377 0.17112 0.0
N1249 N 0.49777 0.85446 0.17535 0.0
C1250 C 0.50721 0.87396 0.20422 0.0
C1251 C 0.51114 0.85442 0.19136 0.0
C1252 C 0.48948 0.89374 0.20047 0.0
C1253 C 0.47677 0.89384 0.18349 0.0
H1254 H 0.47045 0.87314 0.15843 0.0
H1255 H 0.52418 0.83869 0.19439 0.0
C1256 C 0.57888 0.77251 0.14454 0.0
N1257 N 0.56046 0.77148 0.15775 0.0
C1258 C 0.60046 0.75651 0.14556 0.0
C1259 C 0.58485 0.74045 0.17461 0.0
C1260 C 0.56339 0.75656 0.17291 0.0
C1261 C 0.60323 0.73971 0.1605 0.0
H1262 H 0.57607 0.78474 0.13271 0.0
H1263 H 0.54855 0.75632 0.18328 0.0
C1264 C 0.45643 0.82668 0.12955 0.0
N1265 N 0.42611 0.84318 0.10072 0.0
C1266 C 0.43713 0.81065 0.12254 0.0
C1267 C 0.46026 0.85114 0.12192 0.0
C1268 C 0.422 0.81935 0.10796 0.0
C1269 C 0.44476 0.8591 0.10733 0.0
C1270 C 0.52348 0.75374 0.12686 0.0
C1271 C 0.53688 0.75749 0.11047 0.0
C1272 C 0.5276 0.73118 0.13698 0.0
C1273 C 0.55419 0.73861 0.10448 0.0
C1274 C 0.54514 0.71282 0.13056 0.0
N1275 N 0.55795 0.71687 0.11457 0.0
C1276 C 0.51595 0.83788 0.09598 0.0
C1277 C 0.48804 0.80185 0.09307 0.0
C1278 C 0.51478 0.84231 0.07711 0.0
N1279 N 0.5027 0.81787 0.10349 0.0
C1280 C 0.48635 0.80553 0.07424 0.0
C1281 C 0.5 0.82584 0.06598 0.0
H1282 H 0.52762 0.85018 0.10459 0.0
H1283 H 0.47782 0.78604 0.09946 0.0
C1284 C 0.43236 0.76909 0.16416 0.0
N1285 N 0.45423 0.76045 0.15591 0.0
C1286 C 0.4112 0.75263 0.16632 0.0
C1287 C 0.43567 0.71871 0.15168 0.0
C1288 C 0.45619 0.73584 0.14969 0.0
C1289 C 0.41263 0.72708 0.15989 0.0
H1290 H 0.4312 0.7889 0.16876 0.0
H1291 H 0.47358 0.72954 0.14294 0.0
O1292 O 0.53257 0.82414 0.14315 0.0
O1293 O 0.50497 0.79242 0.17366 0.0
O1294 O 0.47182 0.8183 0.14356 0.0
O1295 O 0.50687 0.77229 0.13319 0.0
H1296 H 0.56978 0.8233 0.16794 0.0
H1297 H 0.52279 0.8727 0.13428 0.0
H1298 H 0.59104 0.86221 0.18078 0.0
H1299 H 0.54485 0.91074 0.14773 0.0
H1300 H 0.47659 0.72228 0.20516 0.0
H1301 H 0.4711 0.8163 0.19495 0.0
H1302 H 0.50448 0.74253 0.18164 0.0
H1303 H 0.44387 0.79476 0.21827 0.0
H1304 H 0.51738 0.87326 0.21717 0.0
H1305 H 0.46265 0.90854 0.18022 0.0
H1306 H 0.61439 0.75665 0.13452 0.0
H1307 H 0.58632 0.7277 0.18631 0.0
H1308 H 0.43404 0.79157 0.1281 0.0
H1309 H 0.47541 0.86362 0.12693 0.0
H1310 H 0.40707 0.8071 0.10236 0.0
H1311 H 0.44766 0.87788 0.10121 0.0
H1312 H 0.53428 0.77491 0.10255 0.0
H1313 H 0.51787 0.72815 0.14989 0.0
H1314 H 0.56475 0.74132 0.09186 0.0
H1315 H 0.54871 0.69543 0.13835 0.0
H1316 H 0.52577 0.85804 0.07124 0.0
H1317 H 0.47445 0.7926 0.06621 0.0
H1318 H 0.39375 0.76005 0.17251 0.0
H1319 H 0.43785 0.69911 0.14678 0.0
Li1320 Li 0.21234 0.52709 0.15195 0.0
Li1321 Li 0.18509 0.50522 0.12931 0.0
Li1322 Li 0.17504 0.50401 0.1619 0.0
Li1323 Li 0.21191 0.47986 0.14961 0.0
C1324 C 0.15348 0.54621 0.14986 0.0
N1325 N 0.10664 0.56762 0.15951 0.0
C1326 C 0.13222 0.54371 0.13824 0.0
C1327 C 0.15099 0.55973 0.16633 0.0
C1328 C 0.10869 0.55467 0.14338 0.0
C1329 C 0.12711 0.57035 0.17099 0.0
C1330 C 0.23121 0.50828 0.11362 0.0
C1331 C 0.23616 0.49212 0.08283 0.0
N1332 N 0.24517 0.51558 0.07747 0.0
C1333 C 0.24054 0.53223 0.1078 0.0
C1334 C 0.22906 0.48803 0.10105 0.0
C1335 C 0.24751 0.53553 0.08947 0.0
C1336 C 0.2605 0.55065 0.15395 0.0
N1337 N 0.23493 0.55541 0.1561 0.0
C1338 C 0.24354 0.59932 0.16406 0.0
C1339 C 0.22616 0.57913 0.16105 0.0
C1340 C 0.27014 0.59501 0.16184 0.0
C1341 C 0.2785 0.57023 0.15671 0.0
H1342 H 0.26688 0.53159 0.14993 0.0
H1343 H 0.2057 0.58236 0.16267 0.0
C1344 C 0.15847 0.48627 0.09829 0.0
N1345 N 0.17168 0.50678 0.10508 0.0
C1346 C 0.15188 0.48537 0.07978 0.0
C1347 C 0.17164 0.52723 0.07579 0.0
C1348 C 0.17737 0.52753 0.09446 0.0
C1349 C 0.15928 0.50563 0.06807 0.0
H1350 H 0.1537 0.47026 0.10714 0.0
H1351 H 0.18755 0.54377 0.10031 0.0
C1352 C 0.22824 0.5107 0.1837 0.0
N1353 N 0.26598 0.5315 0.20594 0.0
C1354 C 0.25294 0.49993 0.18397 0.0
C1355 C 0.22269 0.53198 0.1948 0.0
C1356 C 0.27176 0.51073 0.19532 0.0
C1357 C 0.24205 0.54225 0.20592 0.0
C1358 C 0.17234 0.44909 0.14545 0.0
C1359 C 0.16248 0.43811 0.16146 0.0
C1360 C 0.18074 0.4331 0.13123 0.0
C1361 C 0.16126 0.41126 0.163 0.0
C1362 C 0.17926 0.40634 0.13332 0.0
N1363 N 0.16963 0.39606 0.14903 0.0
C1364 C 0.12337 0.49686 0.17298 0.0
C1365 C 0.15298 0.50334 0.19726 0.0
C1366 C 0.10346 0.49214 0.1854 0.0
N1367 N 0.14759 0.50198 0.1791 0.0
C1368 C 0.13369 0.49873 0.21016 0.0
C1369 C 0.10865 0.49247 0.20429 0.0
H1370 H 0.11975 0.49551 0.15843 0.0
H1371 H 0.1725 0.5069 0.20175 0.0
C1372 C 0.25114 0.44502 0.13922 0.0
N1373 N 0.23261 0.44956 0.15196 0.0
C1374 C 0.26703 0.4234 0.14064 0.0
C1375 C 0.24482 0.41163 0.1685 0.0
C1376 C 0.2293 0.43352 0.16651 0.0
C1377 C 0.264 0.40635 0.15544 0.0
H1378 H 0.25393 0.45843 0.1281 0.0
H1379 H 0.21472 0.43786 0.17664 0.0
O1380 O 0.17656 0.53527 0.14521 0.0
O1381 O 0.2239 0.50478 0.13146 0.0
O1382 O 0.20974 0.50084 0.17233 0.0
O1383 O 0.17412 0.47534 0.14379 0.0
H1384 H 0.13382 0.53327 0.12547 0.0
H1385 H 0.1672 0.56163 0.17555 0.0
H1386 H 0.09204 0.55281 0.13456 0.0
H1387 H 0.12484 0.58069 0.18375 0.0
H1388 H 0.23439 0.47668 0.07294 0.0
H1389 H 0.24207 0.54823 0.11724 0.0
H1390 H 0.22159 0.46946 0.10524 0.0
H1391 H 0.25466 0.55398 0.08476 0.0
H1392 H 0.23625 0.61803 0.16816 0.0
H1393 H 0.29871 0.56608 0.15447 0.0
H1394 H 0.14165 0.46866 0.07463 0.0
H1395 H 0.178 0.54325 0.06742 0.0
H1396 H 0.25764 0.48359 0.17538 0.0
H1397 H 0.20377 0.54077 0.19458 0.0
H1398 H 0.29099 0.50266 0.19561 0.0
H1399 H 0.23809 0.55883 0.21446 0.0
H1400 H 0.15609 0.45014 0.17268 0.0
H1401 H 0.18859 0.44126 0.1188 0.0
H1402 H 0.15376 0.4025 0.17534 0.0
H1403 H 0.18583 0.39374 0.12247 0.0
H1404 H 0.08442 0.48749 0.18029 0.0
H1405 H 0.13871 0.49868 0.22455 0.0
H1406 H 0.28196 0.42043 0.1305 0.0
H1407 H 0.24181 0.39898 0.1801 0.0
C1408 C 0.11889 0.19958 0.32127 0.0
C1409 C 0.11075 0.20763 0.33868 0.0
C1410 C 0.13924 0.18192 0.31923 0.0
C1411 C 0.15163 0.17197 0.33499 0.0
C1412 C 0.14382 0.18036 0.35258 0.0
C1413 C 0.12357 0.19815 0.3542 0.0
C1414 C 0.14714 0.17352 0.30025 0.0
C1415 C 0.15656 0.17019 0.36972 0.0
C1416 C 0.18509 0.1069 0.33301 0.0
C1417 C 0.21115 0.11409 0.33271 0.0
C1418 C 0.16551 0.12557 0.33332 0.0
C1419 C 0.17215 0.15208 0.33322 0.0
C1420 C 0.19841 0.15947 0.33236 0.0
C1421 C 0.21761 0.14036 0.3322 0.0
C1422 C 0.13774 0.11692 0.33439 0.0
C1423 C 0.20622 0.18754 0.33203 0.0
H1424 H 0.10894 0.2066 0.30921 0.0
H1425 H 0.11775 0.20464 0.36769 0.0
H1426 H 0.16814 0.17655 0.29829 0.0
H1427 H 0.14338 0.15258 0.29854 0.0
H1428 H 0.13659 0.18417 0.28939 0.0
H1429 H 0.14854 0.17905 0.38235 0.0
H1430 H 0.15399 0.14896 0.37056 0.0
H1431 H 0.17759 0.17402 0.36927 0.0
H1432 H 0.18 0.08662 0.33365 0.0
H1433 H 0.23774 0.14597 0.33179 0.0
H1434 H 0.12637 0.1258 0.32318 0.0
H1435 H 0.12916 0.12348 0.34751 0.0
H1436 H 0.13577 0.0956 0.33349 0.0
H1437 H 0.19611 0.19775 0.32077 0.0
H1438 H 0.22733 0.19004 0.3302 0.0
H1439 H 0.20043 0.19696 0.34503 0.0
C1440 C 0.85256 0.2223 0.33427 0.0
C1441 C 0.87826 0.21451 0.33663 0.0
C1442 C 0.83231 0.20431 0.33506 0.0
C1443 C 0.83792 0.17795 0.33828 0.0
C1444 C 0.86383 0.16997 0.34055 0.0
C1445 C 0.88363 0.18833 0.33977 0.0
C1446 C 0.80492 0.21351 0.33258 0.0
C1447 C 0.87062 0.14205 0.34408 0.0
C1448 C 0.78805 0.13259 0.35848 0.0
C1449 C 0.78066 0.11813 0.3431 0.0
C1450 C 0.80601 0.15273 0.35699 0.0
C1451 C 0.81681 0.15861 0.33969 0.0
C1452 C 0.80873 0.14475 0.324 0.0
C1453 C 0.79077 0.12466 0.3259 0.0
C1454 C 0.81405 0.16713 0.37403 0.0
C1455 C 0.81983 0.15047 0.30533 0.0
H1456 H 0.8483 0.24246 0.33172 0.0
H1457 H 0.90337 0.18222 0.34201 0.0
H1458 H 0.79575 0.20312 0.321 0.0
H1459 H 0.79348 0.20909 0.34502 0.0
H1460 H 0.80382 0.23459 0.3299 0.0
H1461 H 0.89177 0.13893 0.34508 0.0
H1462 H 0.86155 0.1355 0.35703 0.0
H1463 H 0.86294 0.12971 0.33293 0.0
H1464 H 0.77998 0.12794 0.37176 0.0
H1465 H 0.78536 0.11343 0.31398 0.0
H1466 H 0.81186 0.18823 0.37197 0.0
H1467 H 0.83473 0.16337 0.3769 0.0
H1468 H 0.80262 0.16133 0.38622 0.0
H1469 H 0.81825 0.17137 0.30224 0.0
H1470 H 0.81 0.13943 0.29431 0.0
H1471 H 0.84063 0.14546 0.30516 0.0
C1472 C 0.79196 0.86813 0.32656 0.0
C1473 C 0.79149 0.88527 0.34141 0.0
C1474 C 0.81061 0.8485 0.32549 0.0
C1475 C 0.82896 0.84582 0.33973 0.0
C1476 C 0.82823 0.8628 0.35491 0.0
C1477 C 0.80959 0.88239 0.35551 0.0
C1478 C 0.81098 0.83094 0.309 0.0
C1479 C 0.84724 0.86038 0.37048 0.0
C1480 C 0.86515 0.78273 0.34642 0.0
C1481 C 0.88955 0.78878 0.33927 0.0
C1482 C 0.84506 0.8009 0.34631 0.0
C1483 C 0.84935 0.82565 0.33868 0.0
C1484 C 0.87363 0.83162 0.33093 0.0
C1485 C 0.89346 0.81321 0.33142 0.0
C1486 C 0.81946 0.79385 0.35478 0.0
C1487 C 0.87891 0.85776 0.32257 0.0
H1488 H 0.77809 0.87045 0.31558 0.0
H1489 H 0.80904 0.8954 0.36713 0.0
H1490 H 0.82959 0.83303 0.30166 0.0
H1491 H 0.80943 0.8105 0.31339 0.0
H1492 H 0.79504 0.83521 0.2993 0.0
H1493 H 0.84359 0.87466 0.38152 0.0
H1494 H 0.84628 0.8407 0.37643 0.0
H1495 H 0.86715 0.86322 0.3653 0.0
H1496 H 0.86177 0.76378 0.35223 0.0
H1497 H 0.91229 0.81827 0.32611 0.0
H1498 H 0.80366 0.79693 0.34478 0.0
H1499 H 0.81558 0.80659 0.36668 0.0
H1500 H 0.8189 0.77347 0.35948 0.0
H1501 H 0.86398 0.86246 0.31222 0.0
H1502 H 0.89816 0.85871 0.31594 0.0
H1503 H 0.87797 0.87284 0.33333 0.0
C1504 C 0.13552 0.80034 0.35796 0.0
C1505 C 0.12408 0.79023 0.34211 0.0
C1506 C 0.15524 0.8188 0.35685 0.0
C1507 C 0.1637 0.8274 0.33947 0.0
C1508 C 0.15265 0.81685 0.3234 0.0
C1509 C 0.13297 0.79834 0.32491 0.0
C1510 C 0.16667 0.82945 0.3743 0.0
C1511 C 0.16112 0.82561 0.30463 0.0
C1512 C 0.19422 0.89394 0.33818 0.0
C1513 C 0.22061 0.88798 0.33809 0.0
C1514 C 0.17552 0.87439 0.33822 0.0
C1515 C 0.18337 0.84822 0.3382 0.0
C1516 C 0.20995 0.84204 0.33776 0.0
C1517 C 0.22826 0.86201 0.33772 0.0
C1518 C 0.14735 0.88177 0.33875 0.0
C1519 C 0.21904 0.81435 0.33767 0.0
H1520 H 0.12898 0.79385 0.37127 0.0
H1521 H 0.12402 0.79076 0.31263 0.0
H1522 H 0.1879 0.82683 0.37429 0.0
H1523 H 0.16286 0.85049 0.37519 0.0
H1524 H 0.15863 0.82002 0.38671 0.0
H1525 H 0.15157 0.81453 0.29351 0.0
H1526 H 0.15653 0.84638 0.30284 0.0
H1527 H 0.1823 0.8235 0.30319 0.0
H1528 H 0.18816 0.91395 0.33876 0.0
H1529 H 0.24862 0.85729 0.33744 0.0
H1530 H 0.13854 0.87477 0.35167 0.0
H1531 H 0.13687 0.87242 0.32729 0.0
H1532 H 0.14444 0.90297 0.33784 0.0
H1533 H 0.2128 0.80461 0.35045 0.0
H1534 H 0.24034 0.8128 0.33656 0.0
H1535 H 0.21017 0.80375 0.32608 0.0
C1536 C 0.1288 0.79171 0.6447 0.0
C1537 C 0.11182 0.78855 0.65947 0.0
C1538 C 0.14914 0.80953 0.64554 0.0
C1539 C 0.15248 0.82468 0.66149 0.0
C1540 C 0.13578 0.82115 0.67662 0.0
C1541 C 0.11569 0.80306 0.67545 0.0
C1542 C 0.16668 0.81257 0.62918 0.0
C1543 C 0.13862 0.83706 0.69382 0.0
C1544 C 0.21643 0.85932 0.66841 0.0
C1545 C 0.21065 0.88421 0.66201 0.0
C1546 C 0.19768 0.83975 0.66842 0.0
C1547 C 0.17254 0.84521 0.66194 0.0
C1548 C 0.16654 0.87031 0.65559 0.0
C1549 C 0.18567 0.88944 0.65563 0.0
C1550 C 0.20478 0.81319 0.67528 0.0
C1551 C 0.13996 0.87692 0.64855 0.0
H1552 H 0.1261 0.78028 0.63242 0.0
H1553 H 0.10247 0.80087 0.68683 0.0
H1554 H 0.16459 0.83227 0.62341 0.0
H1555 H 0.18711 0.81029 0.6334 0.0
H1556 H 0.16239 0.79832 0.61823 0.0
H1557 H 0.12501 0.83094 0.70473 0.0
H1558 H 0.15858 0.83557 0.69917 0.0
H1559 H 0.13503 0.8577 0.69065 0.0
H1560 H 0.2356 0.85519 0.67355 0.0
H1561 H 0.18113 0.90845 0.65035 0.0
H1562 H 0.20181 0.79875 0.66427 0.0
H1563 H 0.19204 0.80769 0.68684 0.0
H1564 H 0.22515 0.8121 0.67994 0.0
H1565 H 0.13531 0.86477 0.63649 0.0
H1566 H 0.13824 0.89753 0.64454 0.0
H1567 H 0.1253 0.87272 0.65921 0.0
C1568 C 0.22466 0.13471 0.67198 0.0
C1569 C 0.21858 0.11193 0.66255 0.0
C1570 C 0.20732 0.15554 0.67245 0.0
C1571 C 0.18345 0.15359 0.66313 0.0
C1572 C 0.17733 0.1307 0.65346 0.0
C1573 C 0.19493 0.11015 0.65333 0.0
C1574 C 0.21442 0.17956 0.68302 0.0
C1575 C 0.1522 0.12795 0.6432 0.0
C1576 C 0.12647 0.19571 0.67639 0.0
C1577 C 0.12668 0.21442 0.6625 0.0
C1578 C 0.1453 0.17626 0.67709 0.0
C1579 C 0.16473 0.17536 0.66349 0.0
C1580 C 0.16546 0.19454 0.6497 0.0
C1581 C 0.14649 0.21387 0.6494 0.0
C1582 C 0.14392 0.15619 0.69205 0.0
C1583 C 0.18587 0.19425 0.63496 0.0
H1584 H 0.24284 0.13608 0.67924 0.0
H1585 H 0.19032 0.09273 0.64578 0.0
H1586 H 0.21421 0.19657 0.6738 0.0
H1587 H 0.19996 0.18314 0.69392 0.0
H1588 H 0.23379 0.17808 0.68944 0.0
H1589 H 0.15046 0.10895 0.63625 0.0
H1590 H 0.13575 0.1302 0.65278 0.0
H1591 H 0.15051 0.14341 0.63277 0.0
H1592 H 0.11109 0.19574 0.68643 0.0
H1593 H 0.14705 0.22848 0.6388 0.0
H1594 H 0.16272 0.15477 0.69922 0.0
H1595 H 0.13983 0.137 0.68597 0.0
H1596 H 0.1287 0.16061 0.70228 0.0
H1597 H 0.20535 0.19402 0.64122 0.0
H1598 H 0.18444 0.21118 0.62569 0.0
H1599 H 0.184 0.17641 0.62665 0.0
C1600 C 0.87026 0.21752 0.673 0.0
C1601 C 0.89075 0.21293 0.66088 0.0
C1602 C 0.84946 0.20023 0.67426 0.0
C1603 C 0.84916 0.17785 0.66313 0.0
C1604 C 0.86979 0.17312 0.65089 0.0
C1605 C 0.89033 0.19066 0.64995 0.0
C1606 C 0.8278 0.20591 0.68746 0.0
C1607 C 0.87023 0.14944 0.63883 0.0
C1608 C 0.80959 0.11898 0.67606 0.0
C1609 C 0.78862 0.12093 0.66401 0.0
C1610 C 0.829 0.13785 0.67636 0.0
C1611 C 0.82744 0.15915 0.66428 0.0
C1612 C 0.8059 0.16168 0.65251 0.0
C1613 C 0.78673 0.14254 0.65252 0.0
C1614 C 0.85157 0.13455 0.68921 0.0
C1615 C 0.80359 0.18409 0.63939 0.0
H1616 H 0.87031 0.23483 0.68134 0.0
H1617 H 0.90628 0.18674 0.64078 0.0
H1618 H 0.8093 0.20749 0.67991 0.0
H1619 H 0.82573 0.18978 0.69735 0.0
H1620 H 0.83099 0.22407 0.69522 0.0
H1621 H 0.88753 0.14876 0.62988 0.0
H1622 H 0.86991 0.13177 0.6474 0.0
H1623 H 0.85277 0.14899 0.63005 0.0
H1624 H 0.81095 0.10251 0.68516 0.0
H1625 H 0.77071 0.14404 0.64305 0.0
H1626 H 0.85423 0.15222 0.69758 0.0
H1627 H 0.8695 0.1317 0.68118 0.0
H1628 H 0.84908 0.11781 0.69854 0.0
H1629 H 0.80581 0.20263 0.64683 0.0
H1630 H 0.7848 0.18422 0.63209 0.0
H1631 H 0.81928 0.18306 0.62909 0.0
C1632 C 0.77379 0.8646 0.65965 0.0
C1633 C 0.78302 0.89007 0.65927 0.0
C1634 C 0.79085 0.84355 0.66034 0.0
C1635 C 0.81777 0.84808 0.66057 0.0
C1636 C 0.82719 0.87372 0.66036 0.0
C1637 C 0.80972 0.89437 0.65979 0.0
C1638 C 0.7801 0.81648 0.66061 0.0
C1639 C 0.85576 0.87936 0.6606 0.0
C1640 C 0.86484 0.79723 0.67748 0.0
C1641 C 0.87458 0.78742 0.66098 0.0
C1642 C 0.8457 0.81639 0.67757 0.0
C1643 C 0.83623 0.82609 0.66074 0.0
C1644 C 0.84551 0.81577 0.64404 0.0
C1645 C 0.86454 0.7965 0.64436 0.0
C1646 C 0.83611 0.82673 0.69565 0.0
C1647 C 0.83604 0.82574 0.62582 0.0
H1648 H 0.75321 0.86109 0.65905 0.0
H1649 H 0.81702 0.91398 0.65985 0.0
H1650 H 0.78658 0.80584 0.64826 0.0
H1651 H 0.78753 0.80586 0.6727 0.0
H1652 H 0.75869 0.81625 0.66102 0.0
H1653 H 0.85994 0.90039 0.66043 0.0
H1654 H 0.86469 0.87083 0.673 0.0
H1655 H 0.86515 0.87034 0.64854 0.0
H1656 H 0.87239 0.79006 0.69035 0.0
H1657 H 0.87224 0.78922 0.63157 0.0
H1658 H 0.81476 0.82567 0.69624 0.0
H1659 H 0.84152 0.84736 0.69702 0.0
H1660 H 0.84419 0.81598 0.70749 0.0
H1661 H 0.81469 0.82479 0.62519 0.0
H1662 H 0.84409 0.81466 0.61412 0.0
H1663 H 0.84159 0.8463 0.62424 0.0
C1664 C 0.60901 0.68379 0.8482 0.0
C1665 C 0.60931 0.70745 0.83884 0.0
C1666 C 0.62987 0.66663 0.84715 0.0
C1667 C 0.65149 0.67303 0.83624 0.0
C1668 C 0.65185 0.69668 0.82654 0.0
C1669 C 0.63083 0.71367 0.82803 0.0
C1670 C 0.62877 0.64163 0.85778 0.0
C1671 C 0.67447 0.70404 0.81463 0.0
C1672 C 0.7135 0.63749 0.84771 0.0
C1673 C 0.71267 0.61686 0.83531 0.0
C1674 C 0.69411 0.65641 0.8478 0.0
C1675 C 0.67361 0.65479 0.83504 0.0
C1676 C 0.67333 0.63462 0.82196 0.0
C1677 C 0.69278 0.61579 0.82233 0.0
C1678 C 0.69494 0.67745 0.8621 0.0
C1679 C 0.65204 0.63244 0.80795 0.0
H1680 H 0.5923 0.6785 0.85628 0.0
H1681 H 0.63142 0.73201 0.82091 0.0
H1682 H 0.62997 0.62501 0.84824 0.0
H1683 H 0.64551 0.64032 0.86719 0.0
H1684 H 0.61079 0.63981 0.86594 0.0
H1685 H 0.67151 0.72284 0.80762 0.0
H1686 H 0.69223 0.70528 0.82305 0.0
H1687 H 0.67779 0.68894 0.80411 0.0
H1688 H 0.72874 0.63822 0.85786 0.0
H1689 H 0.69227 0.59999 0.81261 0.0
H1690 H 0.67839 0.6752 0.8716 0.0
H1691 H 0.69309 0.69668 0.85556 0.0
H1692 H 0.71305 0.67703 0.87022 0.0
H1693 H 0.63352 0.6282 0.81493 0.0
H1694 H 0.65582 0.61696 0.79777 0.0
H1695 H 0.64963 0.65101 0.80058 0.0
C1696 C 0.35126 0.71765 0.84076 0.0
C1697 C 0.3764 0.71095 0.83543 0.0
C1698 C 0.33146 0.69914 0.84118 0.0
C1699 C 0.33687 0.67337 0.836 0.0
C1700 C 0.36202 0.66661 0.83021 0.0
C1701 C 0.38148 0.68541 0.83011 0.0
C1702 C 0.3049 0.70703 0.84752 0.0
C1703 C 0.36855 0.63935 0.82451 0.0
C1704 C 0.29632 0.61818 0.85438 0.0
C1705 C 0.28055 0.61239 0.83934 0.0
C1706 C 0.31423 0.63843 0.85363 0.0
C1707 C 0.31661 0.65312 0.83737 0.0
C1708 C 0.30041 0.64767 0.82224 0.0
C1709 C 0.28246 0.62743 0.82344 0.0
C1710 C 0.33092 0.64382 0.87013 0.0
C1711 C 0.30256 0.66273 0.80462 0.0
H1712 H 0.34703 0.73738 0.84465 0.0
H1713 H 0.4009 0.67986 0.8263 0.0
H1714 H 0.29038 0.70219 0.83691 0.0
H1715 H 0.29969 0.69613 0.86006 0.0
H1716 H 0.30364 0.72801 0.85055 0.0
H1717 H 0.38862 0.63759 0.81935 0.0
H1718 H 0.36618 0.62613 0.83634 0.0
H1719 H 0.35513 0.63275 0.81364 0.0
H1720 H 0.29463 0.6068 0.86678 0.0
H1721 H 0.27043 0.62287 0.81175 0.0
H1722 H 0.32906 0.66435 0.87425 0.0
H1723 H 0.35147 0.64043 0.86666 0.0
H1724 H 0.32579 0.63146 0.88201 0.0
H1725 H 0.3005 0.68369 0.80735 0.0
H1726 H 0.28777 0.65689 0.79443 0.0
H1727 H 0.32194 0.65973 0.79853 0.0
C1728 C 0.3121 0.38869 0.83578 0.0
C1729 C 0.28642 0.38263 0.83151 0.0
C1730 C 0.33135 0.36968 0.83571 0.0
C1731 C 0.3248 0.34388 0.83134 0.0
C1732 C 0.299 0.33762 0.82682 0.0
C1733 C 0.28011 0.35708 0.82696 0.0
C1734 C 0.35863 0.37714 0.84066 0.0
C1735 C 0.29131 0.31033 0.82207 0.0
C1736 C 0.38044 0.29996 0.81796 0.0
C1737 C 0.38592 0.28768 0.83463 0.0
C1738 C 0.36012 0.3178 0.81654 0.0
C1739 C 0.34492 0.32342 0.83214 0.0
C1740 C 0.34989 0.3105 0.84885 0.0
C1741 C 0.37032 0.29282 0.84989 0.0
C1742 C 0.35547 0.33123 0.7985 0.0
C1743 C 0.33402 0.31584 0.86577 0.0
H1744 H 0.3171 0.40827 0.83964 0.0
H1745 H 0.26037 0.35229 0.82346 0.0
H1746 H 0.36465 0.36678 0.85325 0.0
H1747 H 0.37205 0.37134 0.82957 0.0
H1748 H 0.36072 0.39822 0.84305 0.0
H1749 H 0.2706 0.30877 0.81836 0.0
H1750 H 0.30307 0.3032 0.81043 0.0
H1751 H 0.29516 0.29742 0.83387 0.0
H1752 H 0.39255 0.29625 0.80616 0.0
H1753 H 0.3742 0.28306 0.86273 0.0
H1754 H 0.35943 0.35217 0.79999 0.0
H1755 H 0.33498 0.3292 0.79438 0.0
H1756 H 0.36785 0.32347 0.78738 0.0
H1757 H 0.33657 0.33625 0.87 0.0
H1758 H 0.33951 0.30321 0.87742 0.0
H1759 H 0.31324 0.31299 0.86279 0.0
C1760 C 0.72303 0.36149 0.83252 0.0
C1761 C 0.71492 0.38549 0.83935 0.0
C1762 C 0.70571 0.34074 0.83094 0.0
C1763 C 0.67972 0.34404 0.83639 0.0
C1764 C 0.67139 0.36824 0.84316 0.0
C1765 C 0.68903 0.38866 0.84447 0.0
C1766 C 0.71524 0.31523 0.82358 0.0
C1767 C 0.64383 0.37257 0.84911 0.0
C1768 C 0.62613 0.30034 0.81925 0.0
C1769 C 0.62195 0.28438 0.83447 0.0
C1770 C 0.64559 0.31917 0.81939 0.0
C1771 C 0.66109 0.32225 0.8352 0.0
C1772 C 0.65749 0.30564 0.85039 0.0
C1773 C 0.638 0.28686 0.84982 0.0
C1774 C 0.649 0.33633 0.80286 0.0
C1775 C 0.67348 0.30844 0.86754 0.0
H1776 H 0.74304 0.35879 0.82869 0.0
H1777 H 0.68245 0.40726 0.84941 0.0
H1778 H 0.71289 0.3 0.83413 0.0
H1779 H 0.70357 0.30938 0.81155 0.0
H1780 H 0.73585 0.31601 0.81947 0.0
H1781 H 0.64049 0.39252 0.85416 0.0
H1782 H 0.63056 0.36887 0.83749 0.0
H1783 H 0.63871 0.35881 0.86017 0.0
H1784 H 0.61395 0.29828 0.80728 0.0
H1785 H 0.63465 0.27477 0.86169 0.0
H1786 H 0.66946 0.33637 0.79843 0.0
H1787 H 0.64385 0.35649 0.80647 0.0
H1788 H 0.63679 0.33013 0.79116 0.0
H1789 H 0.69432 0.3082 0.86412 0.0
H1790 H 0.66953 0.29287 0.87762 0.0
H1791 H 0.6693 0.32731 0.8741 0.0
C1792 C 0.70197 0.37815 0.18072 0.0
C1793 C 0.71785 0.3813 0.16535 0.0
C1794 C 0.68225 0.3596 0.18088 0.0
C1795 C 0.67817 0.34402 0.16522 0.0
C1796 C 0.69467 0.34656 0.14988 0.0
C1797 C 0.71437 0.36512 0.15016 0.0
C1798 C 0.66524 0.35724 0.19757 0.0
C1799 C 0.69083 0.33045 0.13287 0.0
C1800 C 0.63669 0.28364 0.16829 0.0
C1801 C 0.61298 0.29259 0.16151 0.0
C1802 C 0.65801 0.30022 0.16984 0.0
C1803 C 0.65562 0.32631 0.16435 0.0
C1804 C 0.63172 0.33552 0.15766 0.0
C1805 C 0.61069 0.31861 0.15642 0.0
C1806 C 0.68316 0.28976 0.17714 0.0
C1807 C 0.62841 0.36322 0.15163 0.0
H1808 H 0.70479 0.39046 0.19256 0.0
H1809 H 0.72637 0.3677 0.13815 0.0
H1810 H 0.64531 0.36328 0.19409 0.0
H1811 H 0.66432 0.33685 0.20215 0.0
H1812 H 0.67219 0.36933 0.20913 0.0
H1813 H 0.70632 0.33359 0.1226 0.0
H1814 H 0.69026 0.30965 0.13643 0.0
H1815 H 0.67205 0.33536 0.12648 0.0
H1816 H 0.63875 0.26352 0.17206 0.0
H1817 H 0.59235 0.32584 0.1515 0.0
H1818 H 0.68972 0.3015 0.18896 0.0
H1819 H 0.69828 0.29115 0.16644 0.0
H1820 H 0.68155 0.2693 0.18154 0.0
H1821 H 0.63291 0.37645 0.16313 0.0
H1822 H 0.60853 0.36733 0.14677 0.0
H1823 H 0.64211 0.36766 0.1404 0.0
C1824 C 0.63892 0.7158 0.17625 0.0
C1825 C 0.62388 0.71997 0.16059 0.0
C1826 C 0.65762 0.69618 0.17663 0.0
C1827 C 0.66094 0.68016 0.16109 0.0
C1828 C 0.64588 0.68445 0.14522 0.0
C1829 C 0.62764 0.7044 0.14513 0.0
C1830 C 0.67359 0.69241 0.19369 0.0
C1831 C 0.64857 0.66755 0.12848 0.0
C1832 C 0.72169 0.64043 0.15415 0.0
C1833 C 0.71363 0.61584 0.15987 0.0
C1834 C 0.70502 0.66174 0.15504 0.0
C1835 C 0.67955 0.65833 0.16154 0.0
C1836 C 0.6714 0.63371 0.16762 0.0
C1837 C 0.68859 0.61283 0.16685 0.0
C1838 C 0.71446 0.68777 0.1486 0.0
C1839 C 0.64432 0.62927 0.17453 0.0
H1840 H 0.63606 0.72791 0.18818 0.0
H1841 H 0.61571 0.70735 0.13312 0.0
H1842 H 0.66969 0.67309 0.19963 0.0
H1843 H 0.69442 0.69311 0.19024 0.0
H1844 H 0.6695 0.70728 0.20426 0.0
H1845 H 0.6357 0.67374 0.11714 0.0
H1846 H 0.66877 0.66786 0.1235 0.0
H1847 H 0.64391 0.64726 0.13205 0.0
H1848 H 0.74085 0.64294 0.14852 0.0
H1849 H 0.68233 0.59407 0.17167 0.0
H1850 H 0.7109 0.70259 0.15926 0.0
H1851 H 0.70362 0.6937 0.1362 0.0
H1852 H 0.73536 0.68762 0.14527 0.0
H1853 H 0.64008 0.64249 0.18609 0.0
H1854 H 0.64121 0.60909 0.17918 0.0
H1855 H 0.63026 0.63363 0.16351 0.0
C1856 C 0.37441 0.70911 0.17689 0.0
C1857 C 0.39013 0.70934 0.16124 0.0
C1858 C 0.35352 0.69194 0.17835 0.0
C1859 C 0.34842 0.67445 0.16391 0.0
C1860 C 0.36401 0.6748 0.14801 0.0
C1861 C 0.38451 0.69234 0.14682 0.0
C1862 C 0.33714 0.69228 0.19543 0.0
C1863 C 0.35927 0.6564 0.13232 0.0
C1864 C 0.31328 0.61135 0.17219 0.0
C1865 C 0.28916 0.61627 0.1642 0.0
C1866 C 0.33244 0.63043 0.17279 0.0
C1867 C 0.32728 0.65517 0.16545 0.0
C1868 C 0.30256 0.66071 0.15823 0.0
C1869 C 0.28383 0.64115 0.1576 0.0
C1870 C 0.35858 0.62374 0.18057 0.0
C1871 C 0.29624 0.68696 0.15046 0.0
H1872 H 0.37871 0.72201 0.18816 0.0
H1873 H 0.39613 0.69276 0.1345 0.0
H1874 H 0.31653 0.69478 0.19175 0.0
H1875 H 0.33887 0.67354 0.20267 0.0
H1876 H 0.34279 0.70797 0.20499 0.0
H1877 H 0.3731 0.65924 0.12089 0.0
H1878 H 0.36089 0.63618 0.1372 0.0
H1879 H 0.33942 0.65898 0.12697 0.0
H1880 H 0.31737 0.59236 0.1777 0.0
H1881 H 0.26535 0.64512 0.15128 0.0
H1882 H 0.36432 0.63807 0.19109 0.0
H1883 H 0.37326 0.62445 0.16952 0.0
H1884 H 0.35896 0.6042 0.18683 0.0
H1885 H 0.30179 0.70235 0.16026 0.0
H1886 H 0.27541 0.689 0.14721 0.0
H1887 H 0.30745 0.69013 0.13773 0.0
C1888 C 0.29237 0.37776 0.1745 0.0
C1889 C 0.2815 0.38379 0.15744 0.0
C1890 C 0.3106 0.35786 0.17625 0.0
C1891 C 0.31811 0.34366 0.16057 0.0
C1892 C 0.30652 0.34904 0.14345 0.0
C1893 C 0.28836 0.36903 0.14209 0.0
C1894 C 0.32256 0.35273 0.19474 0.0
C1895 C 0.31391 0.33425 0.12642 0.0
C1896 C 0.38505 0.31418 0.15936 0.0
C1897 C 0.37996 0.28807 0.16299 0.0
C1898 C 0.36513 0.33245 0.15879 0.0
C1899 C 0.33938 0.32445 0.16177 0.0
C1900 C 0.33405 0.29816 0.16549 0.0
C1901 C 0.35441 0.28027 0.16606 0.0
C1902 C 0.37163 0.3603 0.15474 0.0
C1903 C 0.30682 0.28892 0.16871 0.0
H1904 H 0.28734 0.38923 0.18639 0.0
H1905 H 0.27971 0.37332 0.12893 0.0
H1906 H 0.32121 0.33191 0.19816 0.0
H1907 H 0.34333 0.3578 0.19436 0.0
H1908 H 0.31318 0.36404 0.20581 0.0
H1909 H 0.30191 0.33966 0.11442 0.0
H1910 H 0.33442 0.33802 0.12305 0.0
H1911 H 0.31193 0.31319 0.12881 0.0
H1912 H 0.40465 0.32031 0.15659 0.0
H1913 H 0.35035 0.26018 0.16902 0.0
H1914 H 0.36437 0.37291 0.16589 0.0
H1915 H 0.36198 0.36646 0.14191 0.0
H1916 H 0.39271 0.36348 0.15325 0.0
H1917 H 0.29815 0.29957 0.18037 0.0
H1918 H 0.30594 0.26791 0.17167 0.0
H1919 H 0.2948 0.29299 0.15649 0.0
C1920 C 0.01315 0.43001 0.2799 0.0
C1921 C 0.02941 0.41224 0.28866 0.0
C1922 C 0.02268 0.44651 0.26619 0.0
C1923 C 0.04896 0.44493 0.26107 0.0
C1924 C 0.06551 0.42737 0.27014 0.0
C1925 C 0.05554 0.41129 0.2838 0.0
C1926 C 0.00462 0.46529 0.257 0.0
C1927 C 0.09365 0.42495 0.26504 0.0
C1928 C 0.07473 0.4611 0.2141 0.0
C1929 C 0.08915 0.48343 0.21774 0.0
C1930 C 0.05977 0.44946 0.22778 0.0
C1931 C 0.05927 0.46037 0.24555 0.0
C1932 C 0.07208 0.48403 0.2489 0.0
C1933 C 0.08693 0.49526 0.23495 0.0
C1934 C 0.04629 0.4243 0.2236 0.0
C1935 C 0.07171 0.49647 0.26758 0.0
H1936 H 0.99298 0.43095 0.28373 0.0
H1937 H 0.06811 0.39729 0.29029 0.0
H1938 H 0.01265 0.4851 0.25779 0.0
H1939 H 0.00271 0.46036 0.24229 0.0
H1940 H 0.98512 0.46527 0.2633 0.0
H1941 H 0.1041 0.41101 0.2739 0.0
H1942 H 0.09539 0.41846 0.25061 0.0
H1943 H 0.10329 0.44401 0.2661 0.0
H1944 H 0.07645 0.4517 0.2009 0.0
H1945 H 0.09765 0.51279 0.23774 0.0
H1946 H 0.02629 0.42452 0.22898 0.0
H1947 H 0.05665 0.40824 0.23046 0.0
H1948 H 0.04563 0.42024 0.20868 0.0
H1949 H 0.05197 0.49626 0.27342 0.0
H1950 H 0.07872 0.51673 0.26715 0.0
H1951 H 0.08431 0.48536 0.27699 0.0
C1952 C 0.57661 0.0415 0.28663 0.0
C1953 C 0.5901 0.01859 0.28299 0.0
C1954 C 0.56158 0.05339 0.27309 0.0
C1955 C 0.55997 0.04211 0.25548 0.0
C1956 C 0.57193 0.01799 0.25214 0.0
C1957 C 0.58698 0.00656 0.26592 0.0
C1958 C 0.54904 0.07905 0.27725 0.0
C1959 C 0.57025 0.00511 0.23365 0.0
C1960 C 0.51287 0.07254 0.22176 0.0
C1961 C 0.52913 0.08947 0.21218 0.0
C1962 C 0.52263 0.05643 0.23564 0.0
C1963 C 0.54922 0.05741 0.24002 0.0
C1964 C 0.56572 0.07418 0.23019 0.0
C1965 C 0.55549 0.08995 0.21643 0.0
C1966 C 0.50456 0.03851 0.24565 0.0
C1967 C 0.59415 0.07606 0.23455 0.0
H1968 H 0.57907 0.05104 0.29972 0.0
H1969 H 0.59702 0.98863 0.26314 0.0
H1970 H 0.55934 0.09459 0.26977 0.0
H1971 H 0.52872 0.07917 0.27252 0.0
H1972 H 0.54944 0.08364 0.2921 0.0
H1973 H 0.57745 0.98492 0.23401 0.0
H1974 H 0.55005 0.00504 0.22864 0.0
H1975 H 0.58193 0.01612 0.22361 0.0
H1976 H 0.49252 0.07192 0.21842 0.0
H1977 H 0.56809 0.10333 0.20935 0.0
H1978 H 0.50615 0.04138 0.26066 0.0
H1979 H 0.51006 0.01823 0.24276 0.0
H1980 H 0.48414 0.04137 0.24153 0.0
H1981 H 0.59677 0.08286 0.24884 0.0
H1982 H 0.60446 0.08952 0.22525 0.0
H1983 H 0.60329 0.05675 0.23349 0.0
C1984 C 0.89978 0.5491 0.22876 0.0
C1985 C 0.90767 0.53018 0.21626 0.0
C1986 C 0.91689 0.55918 0.24172 0.0
C1987 C 0.94256 0.54991 0.24237 0.0
C1988 C 0.95033 0.52982 0.23041 0.0
C1989 C 0.93276 0.5202 0.21742 0.0
C1990 C 0.90771 0.58052 0.25424 0.0
C1991 C 0.97743 0.51925 0.23064 0.0
C1992 C 0.98685 0.60102 0.26149 0.0
C1993 C 0.986 0.59542 0.28028 0.0
C1994 C 0.97443 0.58515 0.2487 0.0
C1995 C 0.96125 0.56284 0.25479 0.0
C1996 C 0.96272 0.55556 0.27343 0.0
C1997 C 0.97482 0.57209 0.28602 0.0
C1998 C 0.9737 0.59336 0.22887 0.0
C1999 C 0.94998 0.5312 0.28024 0.0
H2000 H 0.88021 0.55643 0.22817 0.0
H2001 H 0.93895 0.50558 0.20776 0.0
H2002 H 0.91081 0.57502 0.26875 0.0
H2003 H 0.91904 0.59832 0.25165 0.0
H2004 H 0.88695 0.58503 0.25229 0.0
H2005 H 0.97795 0.49902 0.22559 0.0
H2006 H 0.98969 0.53105 0.22143 0.0
H2007 H 0.98597 0.51996 0.24454 0.0
H2008 H 0.99623 0.61853 0.25684 0.0
H2009 H 0.97411 0.56742 0.30047 0.0
H2010 H 0.95379 0.59926 0.22519 0.0
H2011 H 0.97908 0.57699 0.21987 0.0
H2012 H 0.98689 0.60978 0.22605 0.0
H2013 H 0.92874 0.53376 0.28019 0.0
H2014 H 0.95615 0.52624 0.29437 0.0
H2015 H 0.95455 0.51477 0.27104 0.0
C2016 C 0.44025 0.98789 0.28129 0.0
C2017 C 0.41334 0.98754 0.27943 0.0
C2018 C 0.45615 0.97606 0.26815 0.0
C2019 C 0.44474 0.96297 0.25317 0.0
C2020 C 0.41764 0.9635 0.2509 0.0
C2021 C 0.40231 0.97593 0.26398 0.0
C2022 C 0.48499 0.9766 0.27086 0.0
C2023 C 0.40466 0.94966 0.23519 0.0
C2024 C 0.47938 0.93882 0.21076 0.0
C2025 C 0.48204 0.91251 0.21484 0.0
C2026 C 0.46902 0.95605 0.22367 0.0
C2027 C 0.46052 0.94652 0.24081 0.0
C2028 C 0.46442 0.92022 0.2453 0.0
C2029 C 0.47528 0.90357 0.23229 0.0
C2030 C 0.4659 0.98406 0.21848 0.0
C2031 C 0.45556 0.90926 0.26339 0.0
H2032 H 0.44882 0.997 0.29319 0.0
H2033 H 0.38149 0.97534 0.26262 0.0
H2034 H 0.49103 0.95887 0.27822 0.0
H2035 H 0.49536 0.97713 0.25758 0.0
H2036 H 0.49099 0.99352 0.27918 0.0
H2037 H 0.38347 0.95279 0.235 0.0
H2038 H 0.41275 0.95634 0.22196 0.0
H2039 H 0.40841 0.92861 0.23623 0.0
H2040 H 0.48485 0.94583 0.19733 0.0
H2041 H 0.47711 0.8832 0.23543 0.0
H2042 H 0.46807 0.99687 0.23055 0.0
H2043 H 0.44633 0.98709 0.21276 0.0
H2044 H 0.48017 0.98987 0.20791 0.0
H2045 H 0.46361 0.92071 0.27487 0.0
H2046 H 0.46138 0.88877 0.26518 0.0
H2047 H 0.43423 0.91047 0.26431 0.0
C2048 C 0.06894 0.50344 0.77146 0.0
C2049 C 0.07732 0.51778 0.78667 0.0
C2050 C 0.05363 0.51487 0.7578 0.0
C2051 C 0.04689 0.54127 0.7593 0.0
C2052 C 0.05348 0.55513 0.77532 0.0
C2053 C 0.06864 0.54325 0.78877 0.0
C2054 C 0.04624 0.49918 0.7412 0.0
C2055 C 0.04634 0.58322 0.77762 0.0
C2056 C 0.04577 0.5854 0.71817 0.0
C2057 C 0.01945 0.59083 0.71646 0.0
C2058 C 0.05472 0.5679 0.73131 0.0
C2059 C 0.03689 0.55569 0.74318 0.0
C2060 C 0.0101 0.55992 0.74078 0.0
C2061 C 0.00166 0.57746 0.72735 0.0
C2062 C 0.08342 0.56366 0.73318 0.0
C2063 C 0.99042 0.54733 0.75307 0.0
H2064 H 0.07513 0.48358 0.76992 0.0
H2065 H 0.0751 0.55459 0.80036 0.0
H2066 H 0.02627 0.50368 0.73679 0.0
H2067 H 0.05932 0.5041 0.7297 0.0
H2068 H 0.04775 0.47812 0.74386 0.0
H2069 H 0.05015 0.5903 0.79171 0.0
H2070 H 0.05772 0.5951 0.76789 0.0
H2071 H 0.02565 0.58624 0.77443 0.0
H2072 H 0.05947 0.59545 0.70951 0.0
H2073 H 0.98127 0.58167 0.726 0.0
H2074 H 0.08786 0.54271 0.73331 0.0
H2075 H 0.09021 0.57186 0.74636 0.0
H2076 H 0.09447 0.57286 0.7219 0.0
H2077 H 0.99637 0.52752 0.7569 0.0
H2078 H 0.97116 0.54649 0.74646 0.0
H2079 H 0.98861 0.55875 0.76586 0.0
C2080 C 0.49877 0.07198 0.77094 0.0
C2081 C 0.48108 0.0848 0.7823 0.0
C2082 C 0.49028 0.05509 0.75711 0.0
C2083 C 0.46349 0.05137 0.75443 0.0
C2084 C 0.44564 0.06375 0.76619 0.0
C2085 C 0.45466 0.08021 0.77997 0.0
C2086 C 0.51001 0.04213 0.74503 0.0
C2087 C 0.41688 0.06049 0.76375 0.0
C2088 C 0.43253 0.03648 0.70886 0.0
C2089 C 0.42293 0.01158 0.71197 0.0
C2090 C 0.44766 0.049 0.72205 0.0
C2091 C 0.45353 0.03618 0.73865 0.0
C2092 C 0.44597 0.01014 0.74107 0.0
C2093 C 0.43041 0.99823 0.72779 0.0
C2094 C 0.45547 0.07672 0.71886 0.0
C2095 C 0.45271 0.99546 0.75825 0.0
H2096 H 0.51925 0.07533 0.77275 0.0
H2097 H 0.44086 0.09036 0.78848 0.0
H2098 H 0.50355 0.02266 0.74072 0.0
H2099 H 0.51287 0.05389 0.73251 0.0
H2100 H 0.52893 0.04035 0.75205 0.0
H2101 H 0.40564 0.07089 0.77439 0.0
H2102 H 0.41101 0.06788 0.75011 0.0
H2103 H 0.41168 0.03974 0.76429 0.0
H2104 H 0.42665 0.04692 0.69669 0.0
H2105 H 0.42326 0.97883 0.73011 0.0
H2106 H 0.47623 0.07941 0.72194 0.0
H2107 H 0.44443 0.08947 0.72822 0.0
H2108 H 0.45178 0.08299 0.70455 0.0
H2109 H 0.4726 1.00002 0.76277 0.0
H2110 H 0.45102 0.97427 0.75623 0.0
H2111 H 0.43937 0.00123 0.7694 0.0
C2112 C 0.9891 0.43802 0.71632 0.0
C2113 C 0.9938 0.41199 0.72039 0.0
C2114 C 0.97736 0.45435 0.72921 0.0
C2115 C 0.96961 0.44415 0.74633 0.0
C2116 C 0.97639 0.41852 0.75104 0.0
C2117 C 0.98855 0.40277 0.73803 0.0
C2118 C 0.97142 0.48186 0.72393 0.0
C2119 C 0.96868 0.40696 0.76921 0.0
C2120 C 0.93993 0.48485 0.78431 0.0
C2121 C 0.91351 0.48075 0.78124 0.0
C2122 C 0.95862 0.47398 0.77266 0.0
C2123 C 0.95062 0.45836 0.75779 0.0
C2124 C 0.92398 0.45481 0.75436 0.0
C2125 C 0.90582 0.46606 0.76608 0.0
C2126 C 0.98679 0.47839 0.77678 0.0
C2127 C 0.91457 0.43821 0.7387 0.0
H2128 H 0.99352 0.44529 0.70276 0.0
H2129 H 0.99212 0.38263 0.74121 0.0
H2130 H 0.95094 0.48329 0.71967 0.0
H2131 H 0.97427 0.49504 0.73573 0.0
H2132 H 0.98368 0.48848 0.71238 0.0
H2133 H 0.97797 0.38794 0.77162 0.0
H2134 H 0.97388 0.42013 0.78058 0.0
H2135 H 0.94745 0.4043 0.76955 0.0
H2136 H 0.94602 0.49632 0.79594 0.0
H2137 H 0.8855 0.4624 0.76378 0.0
H2138 H 0.99839 0.47965 0.76405 0.0
H2139 H 0.99426 0.46193 0.78491 0.0
H2140 H 0.98974 0.49628 0.7849 0.0
H2141 H 0.92262 0.44531 0.72557 0.0
H2142 H 0.8932 0.43801 0.73762 0.0
H2143 H 0.92136 0.41807 0.7406 0.0
C2144 C 0.59728 0.98117 0.73743 0.0
C2145 C 0.58745 0.99028 0.72074 0.0
C2146 C 0.58153 0.96804 0.74991 0.0
C2147 C 0.55529 0.96371 0.74558 0.0
C2148 C 0.54467 0.97474 0.72953 0.0
C2149 C 0.56091 0.98787 0.71726 0.0
C2150 C 0.59354 0.95694 0.76702 0.0
C2151 C 0.51664 0.97105 0.72464 0.0
C2152 C 0.53278 0.8992 0.76361 0.0
C2153 C 0.52038 0.90625 0.77988 0.0
C2154 C 0.54276 0.91792 0.75175 0.0
C2155 C 0.54049 0.94438 0.75636 0.0
C2156 C 0.52662 0.9517 0.77225 0.0
C2157 C 0.51664 0.93247 0.78384 0.0
C2158 C 0.55704 0.90926 0.7348 0.0
C2159 C 0.52377 0.97964 0.77768 0.0
H2160 H 0.61774 0.98269 0.74025 0.0
H2161 H 0.55302 0.99532 0.70458 0.0
H2162 H 0.58139 0.96121 0.77914 0.0
H2163 H 0.59487 0.93564 0.76572 0.0
H2164 H 0.61322 0.96467 0.76951 0.0
H2165 H 0.51012 0.98537 0.71431 0.0
H2166 H 0.51392 0.95144 0.71884 0.0
H2167 H 0.50419 0.97265 0.73694 0.0
H2168 H 0.5353 0.87891 0.76042 0.0
H2169 H 0.50706 0.93795 0.79645 0.0
H2170 H 0.57782 0.91399 0.73619 0.0
H2171 H 0.54969 0.91962 0.72258 0.0
H2172 H 0.55519 0.88816 0.73239 0.0
H2173 H 0.54157 0.98605 0.78476 0.0
H2174 H 0.50726 0.9825 0.78716 0.0
H2175 H 0.52107 0.99215 0.76553 0.0
C2176 C 0.99046 0.30836 0.46543 0.0
C2177 C 0.99526 0.32871 0.45327 0.0
C2178 C 0.99223 0.31195 0.4844 0.0
C2179 C 0.99902 0.33651 0.4914 0.0
C2180 C 0.00362 0.35725 0.47922 0.0
C2181 C 0.00163 0.35312 0.46026 0.0
C2182 C 0.98696 0.28937 0.49695 0.0
C2183 C 0.011 0.38366 0.4862 0.0
C2184 C 0.98125 0.34618 0.54125 0.0
C2185 C 0.00426 0.33927 0.55008 0.0
C2186 C 0.9796 0.34667 0.52208 0.0
C2187 C 0.00151 0.34012 0.51151 0.0
C2188 C 0.02518 0.33457 0.52033 0.0
C2189 C 0.02627 0.33419 0.53953 0.0
C2190 C 0.95406 0.35287 0.51319 0.0
C2191 C 0.04899 0.32757 0.50952 0.0
H2192 H 0.98516 0.28956 0.46009 0.0
H2193 H 0.0056 0.36884 0.45088 0.0
H2194 H 0.00431 0.28517 0.50533 0.0
H2195 H 0.97109 0.29423 0.50653 0.0
H2196 H 0.9816 0.27163 0.4893 0.0
H2197 H 0.01322 0.39792 0.47495 0.0
H2198 H 0.99618 0.39084 0.49589 0.0
H2199 H 0.02945 0.38247 0.49384 0.0
H2200 H 0.96429 0.35055 0.54935 0.0
H2201 H 0.04406 0.32863 0.54625 0.0
H2202 H 0.94622 0.33525 0.50659 0.0
H2203 H 0.95662 0.36759 0.50231 0.0
H2204 H 0.93966 0.3601 0.52321 0.0
H2205 H 0.04615 0.30852 0.50287 0.0
H2206 H 0.06646 0.3265 0.51829 0.0
H2207 H 0.05241 0.3419 0.49851 0.0
C2208 C 0.65358 0.02839 0.53881 0.0
C2209 C 0.65596 0.00623 0.54977 0.0
C2210 C 0.65263 0.0266 0.51965 0.0
C2211 C 0.65335 0.00202 0.51121 0.0
C2212 C 0.6544 0.97953 0.52216 0.0
C2213 C 0.65604 0.9819 0.54125 0.0
C2214 C 0.6519 0.05106 0.50842 0.0
C2215 C 0.65472 0.95294 0.51368 0.0
C2216 C 0.63433 0.99709 0.46102 0.0
C2217 C 0.65852 0.99551 0.45261 0.0
C2218 C 0.63226 0.99889 0.48016 0.0
C2219 C 0.65496 0.99986 0.49094 0.0
C2220 C 0.67943 0.99864 0.48237 0.0
C2221 C 0.68089 0.99615 0.4633 0.0
C2222 C 0.60587 0.9995 0.48885 0.0
C2223 C 0.70409 0.00018 0.49332 0.0
H2224 H 0.65288 0.04727 0.54518 0.0
H2225 H 0.65829 0.9646 0.54942 0.0
H2226 H 0.66973 0.05252 0.50008 0.0
H2227 H 0.63539 0.05063 0.49878 0.0
H2228 H 0.65031 0.06863 0.51707 0.0
H2229 H 0.65266 0.93743 0.52408 0.0
H2230 H 0.63892 0.95101 0.50353 0.0
H2231 H 0.67316 0.94996 0.50628 0.0
H2232 H 0.6171 0.99656 0.45263 0.0
H2233 H 0.69956 0.99519 0.45665 0.0
H2234 H 0.60336 0.01761 0.49675 0.0
H2235 H 0.6039 0.98325 0.49865 0.0
H2236 H 0.59016 0.99814 0.47856 0.0
H2237 H 0.70433 0.0182 0.50154 0.0
H2238 H 0.72151 0.99981 0.48448 0.0
H2239 H 0.70517 0.98378 0.50305 0.0
C2240 C 0.00723 0.64676 0.54143 0.0
C2241 C 0.98839 0.66234 0.54967 0.0
C2242 C 0.00913 0.64487 0.52231 0.0
C2243 C 0.99176 0.65891 0.51116 0.0
C2244 C 0.97202 0.67381 0.51939 0.0
C2245 C 0.97058 0.67536 0.53854 0.0
C2246 C 0.03035 0.62868 0.51404 0.0
C2247 C 0.95312 0.68907 0.50798 0.0
C2248 C 0.01378 0.68061 0.46412 0.0
C2249 C 0.00096 0.66318 0.45258 0.0
C2250 C 0.01128 0.6791 0.48319 0.0
C2251 C 0.99545 0.65974 0.49098 0.0
C2252 C 0.98271 0.64183 0.47947 0.0
C2253 C 0.98562 0.64376 0.46039 0.0
C2254 C 0.02516 0.69859 0.495 0.0
C2255 C 0.96573 0.6209 0.48729 0.0
H2256 H 0.02081 0.63635 0.54996 0.0
H2257 H 0.95615 0.68767 0.54478 0.0
H2258 H 0.02232 0.61526 0.50367 0.0
H2259 H 0.04434 0.64138 0.50692 0.0
H2260 H 0.04088 0.61726 0.52452 0.0
H2261 H 0.93768 0.69797 0.51642 0.0
H2262 H 0.96348 0.70464 0.50058 0.0
H2263 H 0.94405 0.67647 0.49752 0.0
H2264 H 0.02529 0.69596 0.45821 0.0
H2265 H 0.97585 0.63006 0.45157 0.0
H2266 H 0.03754 0.68855 0.50514 0.0
H2267 H 0.01093 0.71024 0.50278 0.0
H2268 H 0.0374 0.71189 0.48683 0.0
H2269 H 0.97676 0.60911 0.49726 0.0
H2270 H 0.95788 0.60795 0.47653 0.0
H2271 H 0.94937 0.62972 0.49482 0.0
C2272 C 0.32891 0.98196 0.53654 0.0
C2273 C 0.34068 0.99953 0.54857 0.0
C2274 C 0.33111 0.9847 0.51752 0.0
C2275 C 0.34622 0.005 0.51025 0.0
C2276 C 0.3595 0.02184 0.52223 0.0
C2277 C 0.35627 0.01916 0.54124 0.0
C2278 C 0.31635 0.96651 0.50521 0.0
C2279 C 0.37642 0.04324 0.51499 0.0
C2280 C 0.3608 0.99796 0.45953 0.0
C2281 C 0.34162 0.01362 0.4517 0.0
C2282 C 0.36358 0.99611 0.47862 0.0
C2283 C 0.34632 0.00966 0.49016 0.0
C2284 C 0.32761 0.02624 0.48238 0.0
C2285 C 0.32581 0.02836 0.46331 0.0
C2286 C 0.38431 0.97888 0.48643 0.0
C2287 C 0.30861 0.0408 0.49419 0.0
H2288 H 0.31751 0.9662 0.54197 0.0
H2289 H 0.36536 0.03302 0.55027 0.0
H2290 H 0.30213 0.97757 0.497 0.0
H2291 H 0.32965 0.95692 0.49547 0.0
H2292 H 0.30589 0.95139 0.51304 0.0
H2293 H 0.38822 0.05224 0.52596 0.0
H2294 H 0.38951 0.03578 0.50419 0.0
H2295 H 0.36427 0.05842 0.50867 0.0
H2296 H 0.37307 0.98635 0.45081 0.0
H2297 H 0.31149 0.04117 0.45748 0.0
H2298 H 0.37539 0.9613 0.49235 0.0
H2299 H 0.39475 0.98888 0.49763 0.0
H2300 H 0.39847 0.97282 0.47585 0.0
H2301 H 0.2965 0.02689 0.50192 0.0
H2302 H 0.29573 0.05348 0.48602 0.0
H2303 H 0.31895 0.05283 0.50436 0.0
C2304 C 0.51413 0.83904 0.95723 0.0
C2305 C 0.4902 0.83509 0.94873 0.0
C2306 C 0.51621 0.84024 0.97636 0.0
C2307 C 0.49381 0.83739 0.98724 0.0
C2308 C 0.46945 0.8346 0.97873 0.0
C2309 C 0.46794 0.83346 0.95957 0.0
C2310 C 0.54253 0.84323 0.98493 0.0
C2311 C 0.44511 0.83164 0.98987 0.0
C2312 C 0.50112 0.8076 0.03433 0.0
C2313 C 0.4992 0.82921 0.04581 0.0
C2314 C 0.49961 0.8101 0.01527 0.0
C2315 C 0.49612 0.83485 0.00745 0.0
C2316 C 0.49453 0.85683 0.01892 0.0
C2317 C 0.49613 0.85375 0.038 0.0
C2318 C 0.50156 0.78618 0.00351 0.0
C2319 C 0.4908 0.8835 0.01104 0.0
H2320 H 0.53145 0.84005 0.94896 0.0
H2321 H 0.44935 0.8308 0.95306 0.0
H2322 H 0.54227 0.85872 0.99542 0.0
H2323 H 0.54797 0.82504 0.99196 0.0
H2324 H 0.55761 0.84783 0.97463 0.0
H2325 H 0.42751 0.83196 0.98121 0.0
H2326 H 0.44565 0.81306 0.99742 0.0
H2327 H 0.44367 0.84729 0.00019 0.0
H2328 H 0.50396 0.78864 0.04029 0.0
H2329 H 0.49444 0.87049 0.04683 0.0
H2330 H 0.51778 0.78816 0.99371 0.0
H2331 H 0.48367 0.78382 0.99535 0.0
H2332 H 0.5046 0.76841 0.01175 0.0
H2333 H 0.50639 0.88789 0.00112 0.0
H2334 H 0.49067 0.89868 0.02178 0.0
H2335 H 0.4723 0.88436 0.00344 0.0
C2336 C 0.13782 0.49276 0.95879 0.0
C2337 C 0.16227 0.49417 0.95069 0.0
C2338 C 0.13496 0.49456 0.97788 0.0
C2339 C 0.15702 0.49843 0.98898 0.0
C2340 C 0.18168 0.50035 0.98076 0.0
C2341 C 0.18402 0.49793 0.96173 0.0
C2342 C 0.10845 0.49189 0.98619 0.0
C2343 C 0.20562 0.50495 0.99208 0.0
C2344 C 0.15113 0.52548 0.03712 0.0
C2345 C 0.15587 0.50349 0.04785 0.0
C2346 C 0.15075 0.52404 0.01793 0.0
C2347 C 0.15463 0.49993 0.00924 0.0
C2348 C 0.15812 0.47746 0.01995 0.0
C2349 C 0.15902 0.47955 0.03908 0.0
C2350 C 0.14727 0.54849 0.00695 0.0
C2351 C 0.16194 0.45132 0.0112 0.0
H2352 H 0.12104 0.48975 0.95021 0.0
H2353 H 0.20288 0.49934 0.9554 0.0
H2354 H 0.10809 0.47512 0.99564 0.0
H2355 H 0.10373 0.50927 0.9944 0.0
H2356 H 0.09325 0.48918 0.97565 0.0
H2357 H 0.22319 0.507 0.98349 0.0
H2358 H 0.2033 0.52271 0.00042 0.0
H2359 H 0.20858 0.48867 0.00171 0.0
H2360 H 0.14814 0.54398 0.0437 0.0
H2361 H 0.16315 0.46245 0.0471 0.0
H2362 H 0.13133 0.54617 0.99697 0.0
H2363 H 0.16507 0.55247 0.999 0.0
H2364 H 0.14309 0.56546 0.01575 0.0
H2365 H 0.14671 0.44767 0.00085 0.0
H2366 H 0.16162 0.43543 0.02141 0.0
H2367 H 0.18075 0.45085 0.00398 0.0
C2368 C 0.49647 0.15249 0.03815 0.0
C2369 C 0.49485 0.17706 0.04617 0.0
C2370 C 0.4974 0.14956 0.01903 0.0
C2371 C 0.49674 0.17173 0.0077 0.0
C2372 C 0.49484 0.19653 0.01572 0.0
C2373 C 0.49384 0.19888 0.03482 0.0
C2374 C 0.49934 0.12281 0.01096 0.0
C2375 C 0.494 0.22066 0.00411 0.0
C2376 C 0.52325 0.17087 0.95926 0.0
C2377 C 0.50054 0.17066 0.94885 0.0
C2378 C 0.52234 0.17024 0.97846 0.0
C2379 C 0.49815 0.16924 0.98744 0.0
C2380 C 0.47523 0.16789 0.97697 0.0
C2381 C 0.4767 0.16869 0.9578 0.0
C2382 C 0.54721 0.17183 0.98915 0.0
C2383 C 0.44909 0.16655 0.98602 0.0
H2384 H 0.49751 0.13557 0.04684 0.0
H2385 H 0.4921 0.2179 0.04089 0.0
H2386 H 0.48319 0.11945 0.00129 0.0
H2387 H 0.5175 0.12097 0.00304 0.0
H2388 H 0.49895 0.10752 0.02162 0.0
H2389 H 0.49257 0.2385 0.01249 0.0
H2390 H 0.51161 0.22188 0.99554 0.0
H2391 H 0.47723 0.2199 0.9947 0.0
H2392 H 0.54171 0.1726 0.95241 0.0
H2393 H 0.45912 0.16815 0.94977 0.0
H2394 H 0.5481 0.15617 0.99949 0.0
H2395 H 0.54801 0.19044 0.99666 0.0
H2396 H 0.56444 0.17044 0.98018 0.0
H2397 H 0.44865 0.1507 0.99623 0.0
H2398 H 0.43332 0.16341 0.97597 0.0
H2399 H 0.44527 0.18481 0.99347 0.0
C2400 C 0.85049 0.52533 0.95947 0.0
C2401 C 0.84493 0.50316 0.94914 0.0
C2402 C 0.85101 0.52451 0.97868 0.0
C2403 C 0.84638 0.50085 0.98778 0.0
C2404 C 0.84218 0.47814 0.97745 0.0
C2405 C 0.84122 0.47961 0.9583 0.0
C2406 C 0.85531 0.5492 0.98924 0.0
C2407 C 0.83751 0.45245 0.98665 0.0
C2408 C 0.86179 0.49459 0.03852 0.0
C2409 C 0.8372 0.49702 0.04628 0.0
C2410 C 0.86519 0.49586 0.01945 0.0
C2411 C 0.84354 0.50019 0.00803 0.0
C2412 C 0.81878 0.50324 0.0159 0.0
C2413 C 0.81589 0.50138 0.03492 0.0
C2414 C 0.89178 0.49205 0.0115 0.0
C2415 C 0.79527 0.50834 0.00423 0.0
H2416 H 0.85392 0.54352 0.95257 0.0
H2417 H 0.83651 0.46239 0.95057 0.0
H2418 H 0.83749 0.55431 0.99683 0.0
H2419 H 0.87085 0.54659 0.9995 0.0
H2420 H 0.8605 0.56561 0.98016 0.0
H2421 H 0.83754 0.43619 0.97673 0.0
H2422 H 0.85246 0.44875 0.99719 0.0
H2423 H 0.81857 0.45278 0.99371 0.0
H2424 H 0.87823 0.49112 0.04734 0.0
H2425 H 0.79694 0.50359 0.04098 0.0
H2426 H 0.89715 0.50885 0.0029 0.0
H2427 H 0.89186 0.47479 0.0025 0.0
H2428 H 0.90668 0.48946 0.02228 0.0
H2429 H 0.79845 0.52568 0.9956 0.0
H2430 H 0.77762 0.51138 0.01257 0.0
H2431 H 0.7919 0.49182 0.99488 0.0
loop_
_geom_bond_atom_site_label_1
_geom_bond_atom_site_label_2
_geom_bond_distance
_geom_bond_site_symmetry_2
_ccdc_geom_bond_type
Li0 N17 1.990 . S
Li0 O60 1.956 1_455 S
Li0 O61 1.970 . S
Li0 O62 1.961 . S
Li1 N25 1.990 . S
Li1 O60 1.970 1_455 S
Li1 O61 1.956 . S
Li1 O63 1.961 1_455 S
Li2 N47 1.990 . S
Li2 O60 1.961 . S
Li2 O62 1.956 1_655 S
Li2 O63 1.970 . S
Li3 N53 1.990 . S
Li3 O61 1.961 . S
Li3 O62 1.970 . S
Li3 O63 1.956 1_455 S
C4 C6 1.348 . S
C4 C7 1.356 . S
C4 O60 1.325 . S
N5 C8 1.314 . S
N5 C9 1.279 . S
C6 C4 1.348 . S
C6 C8 1.353 . S
C6 H64 0.929 1_655 S
C7 C4 1.356 . S
C7 C9 1.358 . S
C7 H65 0.930 . S
C8 N5 1.314 . S
C8 C6 1.353 . S
C8 H66 0.930 . S
C9 N5 1.279 . S
C9 C7 1.358 . S
C9 H67 0.930 . S
C10 C13 1.348 . S
C10 C14 1.356 . S
C10 O61 1.325 . S
C11 N12 1.279 . S
C11 C14 1.358 . S
C11 H68 0.930 . S
N12 C11 1.279 . S
N12 C15 1.314 . S
C13 C10 1.348 . S
C13 C15 1.353 . S
C13 H69 0.929 . S
C14 C10 1.356 . S
C14 C11 1.358 . S
C14 H70 0.930 . S
C15 N12 1.314 . S
C15 C13 1.353 . S
C15 H71 0.930 . S
C16 N17 1.314 . S
C16 C21 1.353 . S
C16 H22 0.930 . S
N17 Li0 1.990 . S
N17 C16 1.314 . S
N17 C19 1.279 . S
C18 C19 1.358 . S
C18 C20 1.356 . S
C18 H72 0.930 . S
C19 N17 1.279 . S
C19 C18 1.358 . S
C19 H23 0.930 . S
C20 C18 1.356 . S
C20 C21 1.348 . S
C21 C16 1.353 . S
C21 C20 1.348 . S
C21 H73 0.929 . S
H22 C16 0.930 . S
H23 C19 0.930 . S
C24 N25 1.314 1_655 S
C24 C26 1.353 . S
C24 H30 0.930 . S
N25 Li1 1.990 . S
N25 C24 1.314 1_455 S
N25 C28 1.279 . S
C26 C24 1.353 . S
C26 C29 1.348 . S
C26 H74 0.929 . S
C27 C28 1.358 . S
C27 C29 1.356 1_455 S
C27 H75 0.930 . S
C28 N25 1.279 . S
C28 C27 1.358 . S
C28 H31 0.930 . S
C29 C26 1.348 . S
C29 C27 1.356 1_655 S
H30 C24 0.930 . S
H31 C28 0.930 . S
C32 C34 1.348 . S
C32 C35 1.356 . S
C32 O62 1.325 . S
N33 C36 1.314 . S
N33 C37 1.279 . S
C34 C32 1.348 . S
C34 C36 1.353 . S
C34 H76 0.929 . S
C35 C32 1.356 . S
C35 C37 1.358 . S
C35 H77 0.930 . S
C36 N33 1.314 . S
C36 C34 1.353 . S
C36 H78 0.930 . S
C37 N33 1.279 . S
C37 C35 1.358 . S
C37 H79 0.930 . S
C38 C39 1.348 . S
C38 C40 1.356 . S
C38 O63 1.325 . S
C39 C38 1.348 . S
C39 C41 1.353 . S
C39 H80 0.929 . S
C40 C38 1.356 . S
C40 C42 1.358 . S
C40 H81 0.930 . S
C41 C39 1.353 . S
C41 N43 1.314 . S
C41 H82 0.930 . S
C42 C40 1.358 . S
C42 N43 1.279 . S
C42 H83 0.930 . S
N43 C41 1.314 . S
N43 C42 1.279 . S
C44 C46 1.353 . S
C44 N47 1.314 . S
C44 H50 0.930 . S
C45 N47 1.279 . S
C45 C48 1.358 . S
C45 H51 0.930 . S
C46 C44 1.353 . S
C46 C49 1.348 . S
C46 H84 0.929 . S
N47 Li2 1.990 . S
N47 C44 1.314 . S
N47 C45 1.279 . S
C48 C45 1.358 . S
C48 C49 1.356 . S
C48 H85 0.930 . S
C49 C46 1.348 . S
C49 C48 1.356 . S
H50 C44 0.930 . S
H51 C45 0.930 . S
C52 N53 1.314 . S
C52 C54 1.353 . S
C52 H58 0.930 . S
N53 Li3 1.990 . S
N53 C52 1.314 . S
N53 C56 1.279 1_455 S
C54 C52 1.353 . S
C54 C57 1.348 . S
C54 H86 0.929 . S
C55 C56 1.358 1_455 S
C55 C57 1.356 . S
C55 H87 0.930 1_455 S
C56 N53 1.279 1_655 S
C56 C55 1.358 1_655 S
C56 H59 0.930 . S
C57 C54 1.348 . S
C57 C55 1.356 . S
H58 C52 0.930 . S
H59 C56 0.930 . S
O60 Li0 1.956 1_655 S
O60 Li1 1.970 1_655 S
O60 Li2 1.961 . S
O60 C4 1.325 . S
O61 Li0 1.970 . S
O61 Li1 1.956 . S
O61 Li3 1.961 . S
O61 C10 1.325 . S
O62 Li0 1.961 . S
O62 Li2 1.956 1_455 S
O62 Li3 1.970 . S
O62 C32 1.325 . S
O63 Li1 1.961 1_655 S
O63 Li2 1.970 . S
O63 Li3 1.956 1_655 S
O63 C38 1.325 . S
H64 C6 0.929 1_455 S
H65 C7 0.930 . S
H66 C8 0.930 . S
H67 C9 0.930 . S
H68 C11 0.930 . S
H69 C13 0.929 . S
H70 C14 0.930 . S
H71 C15 0.930 . S
H72 C18 0.930 . S
H73 C21 0.929 . S
H74 C26 0.929 . S
H75 C27 0.930 . S
H76 C34 0.929 . S
H77 C35 0.930 . S
H78 C36 0.930 . S
H79 C37 0.930 . S
H80 C39 0.929 . S
H81 C40 0.930 . S
H82 C41 0.930 . S
H83 C42 0.930 . S
H84 C46 0.929 . S
H85 C48 0.930 . S
H86 C54 0.929 . S
H87 C55 0.930 1_655 S
Li88 N105 1.990 . S
Li88 O148 1.956 . S
Li88 O149 1.970 . S
Li88 O150 1.961 1_545 S
Li89 N113 1.990 . S
Li89 O148 1.970 . S
Li89 O149 1.956 . S
Li89 O151 1.961 1_545 S
Li90 N135 1.990 . S
Li90 O148 1.961 1_565 S
Li90 O150 1.956 . S
Li90 O151 1.970 . S
Li91 N141 1.990 . S
Li91 O149 1.961 . S
Li91 O150 1.970 1_545 S
Li91 O151 1.956 1_545 S
C92 C94 1.348 . S
C92 C95 1.356 1_545 S
C92 O148 1.325 . S
N93 C96 1.314 . S
N93 C97 1.279 1_545 S
C94 C92 1.348 . S
C94 C96 1.353 . S
C94 H152 0.929 . S
C95 C92 1.356 1_565 S
C95 C97 1.358 . S
C95 H153 0.930 . S
C96 N93 1.314 . S
C96 C94 1.353 . S
C96 H154 0.930 . S
C97 N93 1.279 1_565 S
C97 C95 1.358 . S
C97 H155 0.930 . S
C98 C101 1.348 . S
C98 C102 1.356 . S
C98 O149 1.325 . S
C99 N100 1.279 . S
C99 C102 1.358 . S
C99 H156 0.930 . S
N100 C99 1.279 . S
N100 C103 1.314 . S
C101 C98 1.348 . S
C101 C103 1.353 . S
C101 H157 0.929 . S
C102 C98 1.356 . S
C102 C99 1.358 . S
C102 H158 0.930 . S
C103 N100 1.314 . S
C103 C101 1.353 . S
C103 H159 0.930 . S
C104 N105 1.314 . S
C104 C109 1.353 . S
C104 H110 0.930 . S
N105 Li88 1.990 . S
N105 C104 1.314 . S
N105 C107 1.279 . S
C106 C107 1.358 . S
C106 C108 1.356 . S
C106 H160 0.930 . S
C107 N105 1.279 . S
C107 C106 1.358 . S
C107 H111 0.930 . S
C108 C106 1.356 . S
C108 C109 1.348 . S
C109 C104 1.353 . S
C109 C108 1.348 . S
C109 H161 0.929 . S
H110 C104 0.930 . S
H111 C107 0.930 . S
C112 N113 1.314 . S
C112 C114 1.353 . S
C112 H118 0.930 . S
N113 Li89 1.990 . S
N113 C112 1.314 . S
N113 C116 1.279 . S
C114 C112 1.353 . S
C114 C117 1.348 . S
C114 H162 0.929 . S
C115 C116 1.358 . S
C115 C117 1.356 . S
C115 H163 0.930 . S
C116 N113 1.279 . S
C116 C115 1.358 . S
C116 H119 0.930 . S
C117 C114 1.348 . S
C117 C115 1.356 . S
H118 C112 0.930 . S
H119 C116 0.930 . S
C120 C122 1.348 . S
C120 C123 1.356 . S
C120 O150 1.325 . S
N121 C124 1.314 . S
N121 C125 1.279 . S
C122 C120 1.348 . S
C122 C124 1.353 . S
C122 H164 0.929 . S
C123 C120 1.356 . S
C123 C125 1.358 . S
C123 H165 0.930 . S
C124 N121 1.314 . S
C124 C122 1.353 . S
C124 H166 0.930 . S
C125 N121 1.279 . S
C125 C123 1.358 . S
C125 H167 0.930 . S
C126 C127 1.348 . S
C126 C128 1.356 1_565 S
C126 O151 1.325 . S
C127 C126 1.348 . S
C127 C129 1.353 . S
C127 H168 0.929 . S
C128 C126 1.356 1_545 S
C128 C130 1.358 . S
C128 H169 0.930 . S
C129 C127 1.353 . S
C129 N131 1.314 . S
C129 H170 0.930 . S
C130 C128 1.358 . S
C130 N131 1.279 1_545 S
C130 H171 0.930 . S
N131 C129 1.314 . S
N131 C130 1.279 1_565 S
C132 C134 1.353 . S
C132 N135 1.314 . S
C132 H138 0.930 . S
C133 N135 1.279 . S
C133 C136 1.358 . S
C133 H139 0.930 . S
C134 C132 1.353 . S
C134 C137 1.348 . S
C134 H172 0.929 . S
N135 Li90 1.990 . S
N135 C132 1.314 . S
N135 C133 1.279 . S
C136 C133 1.358 . S
C136 C137 1.356 . S
C136 H173 0.930 . S
C137 C134 1.348 . S
C137 C136 1.356 . S
H138 C132 0.930 . S
H139 C133 0.930 . S
C140 N141 1.314 . S
C140 C142 1.353 . S
C140 H146 0.930 . S
N141 Li91 1.990 . S
N141 C140 1.314 . S
N141 C144 1.279 1_545 S
C142 C140 1.353 . S
C142 C145 1.348 1_545 S
C142 H174 0.929 . S
C143 C144 1.358 . S
C143 C145 1.356 . S
C143 H175 0.930 . S
C144 N141 1.279 1_565 S
C144 C143 1.358 . S
C144 H147 0.930 . S
C145 C142 1.348 1_565 S
C145 C143 1.356 . S
H146 C140 0.930 . S
H147 C144 0.930 . S
O148 Li88 1.956 . S
O148 Li89 1.970 . S
O148 Li90 1.961 1_545 S
O148 C92 1.325 . S
O149 Li88 1.970 . S
O149 Li89 1.956 . S
O149 Li91 1.961 . S
O149 C98 1.325 . S
O150 Li88 1.961 1_565 S
O150 Li90 1.956 . S
O150 Li91 1.970 1_565 S
O150 C120 1.325 . S
O151 Li89 1.961 1_565 S
O151 Li90 1.970 . S
O151 Li91 1.956 1_565 S
O151 C126 1.325 . S
H152 C94 0.929 . S
H153 C95 0.930 . S
H154 C96 0.930 . S
H155 C97 0.930 . S
H156 C99 0.930 . S
H157 C101 0.929 . S
H158 C102 0.930 . S
H159 C103 0.930 . S
H160 C106 0.930 . S
H161 C109 0.929 . S
H162 C114 0.929 . S
H163 C115 0.930 . S
H164 C122 0.929 . S
H165 C123 0.930 . S
H166 C124 0.930 . S
H167 C125 0.930 . S
H168 C127 0.929 . S
H169 C128 0.930 . S
H170 C129 0.930 . S
H171 C130 0.930 . S
H172 C134 0.929 . S
H173 C136 0.930 . S
H174 C142 0.929 . S
H175 C143 0.930 . S
Li176 N193 1.990 . S
Li176 O236 1.956 1_655 S
Li176 O237 1.970 . S
Li176 O238 1.961 . S
Li177 N201 1.990 . S
Li177 O236 1.970 1_655 S
Li177 O237 1.956 . S
Li177 O239 1.961 1_655 S
Li178 N223 1.990 . S
Li178 O236 1.961 . S
Li178 O238 1.956 1_455 S
Li178 O239 1.970 . S
Li179 N229 1.990 . S
Li179 O237 1.961 . S
Li179 O238 1.970 . S
Li179 O239 1.956 1_655 S
C180 C182 1.348 . S
C180 C183 1.356 . S
C180 O236 1.325 . S
N181 C184 1.314 . S
N181 C185 1.279 . S
C182 C180 1.348 . S
C182 C184 1.353 . S
C182 H240 0.929 1_455 S
C183 C180 1.356 . S
C183 C185 1.358 . S
C183 H241 0.930 . S
C184 N181 1.314 . S
C184 C182 1.353 . S
C184 H242 0.930 . S
C185 N181 1.279 . S
C185 C183 1.358 . S
C185 H243 0.930 . S
C186 C189 1.348 . S
C186 C190 1.356 . S
C186 O237 1.325 . S
C187 N188 1.279 . S
C187 C190 1.358 . S
C187 H244 0.930 . S
N188 C187 1.279 . S
N188 C191 1.314 . S
C189 C186 1.348 . S
C189 C191 1.353 . S
C189 H245 0.929 . S
C190 C186 1.356 . S
C190 C187 1.358 . S
C190 H246 0.930 . S
C191 N188 1.314 . S
C191 C189 1.353 . S
C191 H247 0.930 . S
C192 N193 1.314 . S
C192 C197 1.353 . S
C192 H198 0.930 . S
N193 Li176 1.990 . S
N193 C192 1.314 . S
N193 C195 1.279 . S
C194 C195 1.358 . S
C194 C196 1.356 . S
C194 H248 0.930 . S
C195 N193 1.279 . S
C195 C194 1.358 . S
C195 H199 0.930 . S
C196 C194 1.356 . S
C196 C197 1.348 . S
C197 C192 1.353 . S
C197 C196 1.348 . S
C197 H249 0.929 . S
H198 C192 0.930 . S
H199 C195 0.930 . S
C200 N201 1.314 1_455 S
C200 C202 1.353 . S
C200 H206 0.930 . S
N201 Li177 1.990 . S
N201 C200 1.314 1_655 S
N201 C204 1.279 . S
C202 C200 1.353 . S
C202 C205 1.348 . S
C202 H250 0.929 . S
C203 C204 1.358 . S
C203 C205 1.356 1_655 S
C203 H251 0.930 . S
C204 N201 1.279 . S
C204 C203 1.358 . S
C204 H207 0.930 . S
C205 C202 1.348 . S
C205 C203 1.356 1_455 S
H206 C200 0.930 . S
H207 C204 0.930 . S
C208 C210 1.348 . S
C208 C211 1.356 . S
C208 O238 1.325 . S
N209 C212 1.314 . S
N209 C213 1.279 . S
C210 C208 1.348 . S
C210 C212 1.353 . S
C210 H252 0.929 . S
C211 C208 1.356 . S
C211 C213 1.358 . S
C211 H253 0.930 . S
C212 N209 1.314 . S
C212 C210 1.353 . S
C212 H254 0.930 . S
C213 N209 1.279 . S
C213 C211 1.358 . S
C213 H255 0.930 . S
C214 C215 1.348 . S
C214 C216 1.356 . S
C214 O239 1.325 . S
C215 C214 1.348 . S
C215 C217 1.353 . S
C215 H256 0.929 . S
C216 C214 1.356 . S
C216 C218 1.358 . S
C216 H257 0.930 . S
C217 C215 1.353 . S
C217 N219 1.314 . S
C217 H258 0.930 . S
C218 C216 1.358 . S
C218 N219 1.279 . S
C218 H259 0.930 . S
N219 C217 1.314 . S
N219 C218 1.279 . S
C220 C222 1.353 . S
C220 N223 1.314 . S
C220 H226 0.930 . S
C221 N223 1.279 . S
C221 C224 1.358 . S
C221 H227 0.930 . S
C222 C220 1.353 . S
C222 C225 1.348 . S
C222 H260 0.929 . S
N223 Li178 1.990 . S
N223 C220 1.314 . S
N223 C221 1.279 . S
C224 C221 1.358 . S
C224 C225 1.356 . S
C224 H261 0.930 . S
C225 C222 1.348 . S
C225 C224 1.356 . S
H226 C220 0.930 . S
H227 C221 0.930 . S
C228 N229 1.314 . S
C228 C230 1.353 . S
C228 H234 0.930 . S
N229 Li179 1.990 . S
N229 C228 1.314 . S
N229 C232 1.279 1_655 S
C230 C228 1.353 . S
C230 C233 1.348 . S
C230 H262 0.929 . S
C231 C232 1.358 1_655 S
C231 C233 1.356 . S
C231 H263 0.930 1_655 S
C232 N229 1.279 1_455 S
C232 C231 1.358 1_455 S
C232 H235 0.930 . S
C233 C230 1.348 . S
C233 C231 1.356 . S
H234 C228 0.930 . S
H235 C232 0.930 . S
O236 Li176 1.956 1_455 S
O236 Li177 1.970 1_455 S
O236 Li178 1.961 . S
O236 C180 1.325 . S
O237 Li176 1.970 . S
O237 Li177 1.956 . S
O237 Li179 1.961 . S
O237 C186 1.325 . S
O238 Li176 1.961 . S
O238 Li178 1.956 1_655 S
O238 Li179 1.970 . S
O238 C208 1.325 . S
O239 Li177 1.961 1_455 S
O239 Li178 1.970 . S
O239 Li179 1.956 1_455 S
O239 C214 1.325 . S
H240 C182 0.929 1_655 S
H241 C183 0.930 . S
H242 C184 0.930 . S
H243 C185 0.930 . S
H244 C187 0.930 . S
H245 C189 0.929 . S
H246 C190 0.930 . S
H247 C191 0.930 . S
H248 C194 0.930 . S
H249 C197 0.929 . S
H250 C202 0.929 . S
H251 C203 0.930 . S
H252 C210 0.929 . S
H253 C211 0.930 . S
H254 C212 0.930 . S
H255 C213 0.930 . S
H256 C215 0.929 . S
H257 C216 0.930 . S
H258 C217 0.930 . S
H259 C218 0.930 . S
H260 C222 0.929 . S
H261 C224 0.930 . S
H262 C230 0.929 . S
H263 C231 0.930 1_455 S
Li264 N281 1.990 . S
Li264 O324 1.956 1_565 S
Li264 O325 1.970 1_565 S
Li264 O326 1.961 . S
Li265 N289 1.990 . S
Li265 O324 1.970 . S
Li265 O325 1.956 . S
Li265 O327 1.961 1_545 S
Li266 N311 1.990 . S
Li266 O324 1.961 1_565 S
Li266 O326 1.956 . S
Li266 O327 1.970 . S
Li267 N317 1.990 . S
Li267 O325 1.961 1_565 S
Li267 O326 1.970 . S
Li267 O327 1.956 . S
C268 C270 1.348 . S
C268 C271 1.356 1_545 S
C268 O324 1.325 . S
N269 C272 1.314 . S
N269 C273 1.279 1_545 S
C270 C268 1.348 . S
C270 C272 1.353 . S
C270 H328 0.929 . S
C271 C268 1.356 1_565 S
C271 C273 1.358 . S
C271 H329 0.930 . S
C272 N269 1.314 . S
C272 C270 1.353 . S
C272 H330 0.930 . S
C273 N269 1.279 1_565 S
C273 C271 1.358 . S
C273 H331 0.930 . S
C274 C277 1.348 . S
C274 C278 1.356 . S
C274 O325 1.325 . S
C275 N276 1.279 . S
C275 C278 1.358 . S
C275 H332 0.930 . S
N276 C275 1.279 . S
N276 C279 1.314 . S
C277 C274 1.348 . S
C277 C279 1.353 . S
C277 H333 0.929 . S
C278 C274 1.356 . S
C278 C275 1.358 . S
C278 H334 0.930 . S
C279 N276 1.314 . S
C279 C277 1.353 . S
C279 H335 0.930 . S
C280 N281 1.314 . S
C280 C285 1.353 . S
C280 H286 0.930 . S
N281 Li264 1.990 . S
N281 C280 1.314 . S
N281 C283 1.279 1_565 S
C282 C283 1.358 . S
C282 C284 1.356 . S
C282 H336 0.930 . S
C283 N281 1.279 1_545 S
C283 C282 1.358 . S
C283 H287 0.930 . S
C284 C282 1.356 . S
C284 C285 1.348 1_545 S
C285 C280 1.353 . S
C285 C284 1.348 1_565 S
C285 H337 0.929 . S
H286 C280 0.930 . S
H287 C283 0.930 . S
C288 N289 1.314 . S
C288 C290 1.353 . S
C288 H294 0.930 . S
N289 Li265 1.990 . S
N289 C288 1.314 . S
N289 C292 1.279 . S
C290 C288 1.353 . S
C290 C293 1.348 . S
C290 H338 0.929 . S
C291 C292 1.358 . S
C291 C293 1.356 . S
C291 H339 0.930 . S
C292 N289 1.279 . S
C292 C291 1.358 . S
C292 H295 0.930 . S
C293 C290 1.348 . S
C293 C291 1.356 . S
H294 C288 0.930 . S
H295 C292 0.930 . S
C296 C298 1.348 . S
C296 C299 1.356 . S
C296 O326 1.325 . S
N297 C300 1.314 . S
N297 C301 1.279 . S
C298 C296 1.348 . S
C298 C300 1.353 . S
C298 H340 0.929 . S
C299 C296 1.356 . S
C299 C301 1.358 . S
C299 H341 0.930 . S
C300 N297 1.314 . S
C300 C298 1.353 . S
C300 H342 0.930 . S
C301 N297 1.279 . S
C301 C299 1.358 . S
C301 H343 0.930 . S
C302 C303 1.348 . S
C302 C304 1.356 1_565 S
C302 O327 1.325 . S
C303 C302 1.348 . S
C303 C305 1.353 . S
C303 H344 0.929 . S
C304 C302 1.356 1_545 S
C304 C306 1.358 . S
C304 H345 0.930 . S
C305 C303 1.353 . S
C305 N307 1.314 . S
C305 H346 0.930 . S
C306 C304 1.358 . S
C306 N307 1.279 1_545 S
C306 H347 0.930 . S
N307 C305 1.314 . S
N307 C306 1.279 1_565 S
C308 C310 1.353 . S
C308 N311 1.314 . S
C308 H314 0.930 . S
C309 N311 1.279 . S
C309 C312 1.358 . S
C309 H315 0.930 . S
C310 C308 1.353 . S
C310 C313 1.348 . S
C310 H348 0.929 . S
N311 Li266 1.990 . S
N311 C308 1.314 . S
N311 C309 1.279 . S
C312 C309 1.358 . S
C312 C313 1.356 . S
C312 H349 0.930 . S
C313 C310 1.348 . S
C313 C312 1.356 . S
H314 C308 0.930 . S
H315 C309 0.930 . S
C316 N317 1.314 . S
C316 C318 1.353 . S
C316 H322 0.930 . S
N317 Li267 1.990 . S
N317 C316 1.314 . S
N317 C320 1.279 . S
C318 C316 1.353 . S
C318 C321 1.348 . S
C318 H350 0.929 . S
C319 C320 1.358 . S
C319 C321 1.356 . S
C319 H351 0.930 . S
C320 N317 1.279 . S
C320 C319 1.358 . S
C320 H323 0.930 . S
C321 C318 1.348 . S
C321 C319 1.356 . S
H322 C316 0.930 . S
H323 C320 0.930 . S
O324 Li264 1.956 1_545 S
O324 Li265 1.970 . S
O324 Li266 1.961 1_545 S
O324 C268 1.325 . S
O325 Li264 1.970 1_545 S
O325 Li265 1.956 . S
O325 Li267 1.961 1_545 S
O325 C274 1.325 . S
O326 Li264 1.961 . S
O326 Li266 1.956 . S
O326 Li267 1.970 . S
O326 C296 1.325 . S
O327 Li265 1.961 1_565 S
O327 Li266 1.970 . S
O327 Li267 1.956 . S
O327 C302 1.325 . S
H328 C270 0.929 . S
H329 C271 0.930 . S
H330 C272 0.930 . S
H331 C273 0.930 . S
H332 C275 0.930 . S
H333 C277 0.929 . S
H334 C278 0.930 . S
H335 C279 0.930 . S
H336 C282 0.930 . S
H337 C285 0.929 . S
H338 C290 0.929 . S
H339 C291 0.930 . S
H340 C298 0.929 . S
H341 C299 0.930 . S
H342 C300 0.930 . S
H343 C301 0.930 . S
H344 C303 0.929 . S
H345 C304 0.930 . S
H346 C305 0.930 . S
H347 C306 0.930 . S
H348 C310 0.929 . S
H349 C312 0.930 . S
H350 C318 0.929 . S
H351 C319 0.930 . S
Li352 N369 1.990 . S
Li352 O412 1.956 1_455 S
Li352 O413 1.970 . S
Li352 O414 1.961 . S
Li353 N377 1.990 . S
Li353 O412 1.970 . S
Li353 O413 1.956 1_655 S
Li353 O415 1.961 . S
Li354 N399 1.990 . S
Li354 O412 1.961 1_455 S
Li354 O414 1.956 . S
Li354 O415 1.970 1_455 S
Li355 N405 1.990 . S
Li355 O413 1.961 . S
Li355 O414 1.970 . S
Li355 O415 1.956 1_455 S
C356 C358 1.348 . S
C356 C359 1.356 . S
C356 O412 1.325 . S
N357 C360 1.314 . S
N357 C361 1.279 . S
C358 C356 1.348 . S
C358 C360 1.353 . S
C358 H416 0.929 . S
C359 C356 1.356 . S
C359 C361 1.358 . S
C359 H417 0.930 . S
C360 N357 1.314 . S
C360 C358 1.353 . S
C360 H418 0.930 . S
C361 N357 1.279 . S
C361 C359 1.358 . S
C361 H419 0.930 . S
C362 C365 1.348 . S
C362 C366 1.356 . S
C362 O413 1.325 . S
C363 N364 1.279 . S
C363 C366 1.358 . S
C363 H420 0.930 . S
N364 C363 1.279 . S
N364 C367 1.314 . S
C365 C362 1.348 . S
C365 C367 1.353 . S
C365 H421 0.929 . S
C366 C362 1.356 . S
C366 C363 1.358 . S
C366 H422 0.930 . S
C367 N364 1.314 . S
C367 C365 1.353 . S
C367 H423 0.930 . S
C368 N369 1.314 . S
C368 C373 1.353 . S
C368 H374 0.930 . S
N369 Li352 1.990 . S
N369 C368 1.314 . S
N369 C371 1.279 1_455 S
C370 C371 1.358 1_455 S
C370 C372 1.356 . S
C370 H424 0.930 1_455 S
C371 N369 1.279 1_655 S
C371 C370 1.358 1_655 S
C371 H375 0.930 . S
C372 C370 1.356 . S
C372 C373 1.348 . S
C373 C368 1.353 . S
C373 C372 1.348 . S
C373 H425 0.929 . S
H374 C368 0.930 . S
H375 C371 0.930 . S
C376 N377 1.314 . S
C376 C378 1.353 . S
C376 H382 0.930 . S
N377 Li353 1.990 . S
N377 C376 1.314 . S
N377 C380 1.279 . S
C378 C376 1.353 . S
C378 C381 1.348 . S
C378 H426 0.929 . S
C379 C380 1.358 . S
C379 C381 1.356 . S
C379 H427 0.930 . S
C380 N377 1.279 . S
C380 C379 1.358 . S
C380 H383 0.930 . S
C381 C378 1.348 . S
C381 C379 1.356 . S
H382 C376 0.930 . S
H383 C380 0.930 . S
C384 C386 1.348 . S
C384 C387 1.356 . S
C384 O414 1.325 . S
N385 C388 1.314 . S
N385 C389 1.279 . S
C386 C384 1.348 . S
C386 C388 1.353 . S
C386 H428 0.929 . S
C387 C384 1.356 . S
C387 C389 1.358 . S
C387 H429 0.930 . S
C388 N385 1.314 . S
C388 C386 1.353 . S
C388 H430 0.930 . S
C389 N385 1.279 . S
C389 C387 1.358 . S
C389 H431 0.930 . S
C390 C391 1.348 . S
C390 C392 1.356 . S
C390 O415 1.325 . S
C391 C390 1.348 . S
C391 C393 1.353 . S
C391 H432 0.929 1_655 S
C392 C390 1.356 . S
C392 C394 1.358 . S
C392 H433 0.930 . S
C393 C391 1.353 . S
C393 N395 1.314 . S
C393 H434 0.930 . S
C394 C392 1.358 . S
C394 N395 1.279 . S
C394 H435 0.930 . S
N395 C393 1.314 . S
N395 C394 1.279 . S
C396 C398 1.353 . S
C396 N399 1.314 1_655 S
C396 H402 0.930 . S
C397 N399 1.279 . S
C397 C400 1.358 . S
C397 H403 0.930 . S
C398 C396 1.353 . S
C398 C401 1.348 . S
C398 H436 0.929 . S
N399 Li354 1.990 . S
N399 C396 1.314 1_455 S
N399 C397 1.279 . S
C400 C397 1.358 . S
C400 C401 1.356 1_455 S
C400 H437 0.930 . S
C401 C398 1.348 . S
C401 C400 1.356 1_655 S
H402 C396 0.930 . S
H403 C397 0.930 . S
C404 N405 1.314 . S
C404 C406 1.353 . S
C404 H410 0.930 . S
N405 Li355 1.990 . S
N405 C404 1.314 . S
N405 C408 1.279 . S
C406 C404 1.353 . S
C406 C409 1.348 . S
C406 H438 0.929 . S
C407 C408 1.358 . S
C407 C409 1.356 . S
C407 H439 0.930 . S
C408 N405 1.279 . S
C408 C407 1.358 . S
C408 H411 0.930 . S
C409 C406 1.348 . S
C409 C407 1.356 . S
H410 C404 0.930 . S
H411 C408 0.930 . S
O412 Li352 1.956 1_655 S
O412 Li353 1.970 . S
O412 Li354 1.961 1_655 S
O412 C356 1.325 . S
O413 Li352 1.970 . S
O413 Li353 1.956 1_455 S
O413 Li355 1.961 . S
O413 C362 1.325 . S
O414 Li352 1.961 . S
O414 Li354 1.956 . S
O414 Li355 1.970 . S
O414 C384 1.325 . S
O415 Li353 1.961 . S
O415 Li354 1.970 1_655 S
O415 Li355 1.956 1_655 S
O415 C390 1.325 . S
H416 C358 0.929 . S
H417 C359 0.930 . S
H418 C360 0.930 . S
H419 C361 0.930 . S
H420 C363 0.930 . S
H421 C365 0.929 . S
H422 C366 0.930 . S
H423 C367 0.930 . S
H424 C370 0.930 1_655 S
H425 C373 0.929 . S
H426 C378 0.929 . S
H427 C379 0.930 . S
H428 C386 0.929 . S
H429 C387 0.930 . S
H430 C388 0.930 . S
H431 C389 0.930 . S
H432 C391 0.929 1_455 S
H433 C392 0.930 . S
H434 C393 0.930 . S
H435 C394 0.930 . S
H436 C398 0.929 . S
H437 C400 0.930 . S
H438 C406 0.929 . S
H439 C407 0.930 . S
Li440 N457 1.990 . S
Li440 O500 1.956 . S
Li440 O501 1.970 . S
Li440 O502 1.961 1_545 S
Li441 N465 1.990 . S
Li441 O500 1.970 . S
Li441 O501 1.956 . S
Li441 O503 1.961 1_545 S
Li442 N487 1.990 . S
Li442 O500 1.961 . S
Li442 O502 1.956 1_545 S
Li442 O503 1.970 1_545 S
Li443 N493 1.990 . S
Li443 O501 1.961 1_565 S
Li443 O502 1.970 . S
Li443 O503 1.956 . S
C444 C446 1.348 . S
C444 C447 1.356 . S
C444 O500 1.325 . S
N445 C448 1.314 . S
N445 C449 1.279 . S
C446 C444 1.348 . S
C446 C448 1.353 . S
C446 H504 0.929 . S
C447 C444 1.356 . S
C447 C449 1.358 . S
C447 H505 0.930 . S
C448 N445 1.314 . S
C448 C446 1.353 . S
C448 H506 0.930 . S
C449 N445 1.279 . S
C449 C447 1.358 . S
C449 H507 0.930 . S
C450 C453 1.348 . S
C450 C454 1.356 1_545 S
C450 O501 1.325 . S
C451 N452 1.279 1_565 S
C451 C454 1.358 . S
C451 H508 0.930 . S
N452 C451 1.279 1_545 S
N452 C455 1.314 . S
C453 C450 1.348 . S
C453 C455 1.353 . S
C453 H509 0.929 . S
C454 C450 1.356 1_565 S
C454 C451 1.358 . S
C454 H510 0.930 . S
C455 N452 1.314 . S
C455 C453 1.353 . S
C455 H511 0.930 . S
C456 N457 1.314 . S
C456 C461 1.353 . S
C456 H462 0.930 . S
N457 Li440 1.990 . S
N457 C456 1.314 . S
N457 C459 1.279 . S
C458 C459 1.358 . S
C458 C460 1.356 . S
C458 H512 0.930 . S
C459 N457 1.279 . S
C459 C458 1.358 . S
C459 H463 0.930 . S
C460 C458 1.356 . S
C460 C461 1.348 . S
C461 C456 1.353 . S
C461 C460 1.348 . S
C461 H513 0.929 . S
H462 C456 0.930 . S
H463 C459 0.930 . S
C464 N465 1.314 . S
C464 C466 1.353 . S
C464 H470 0.930 . S
N465 Li441 1.990 . S
N465 C464 1.314 . S
N465 C468 1.279 . S
C466 C464 1.353 . S
C466 C469 1.348 . S
C466 H514 0.929 . S
C467 C468 1.358 . S
C467 C469 1.356 . S
C467 H515 0.930 . S
C468 N465 1.279 . S
C468 C467 1.358 . S
C468 H471 0.930 . S
C469 C466 1.348 . S
C469 C467 1.356 . S
H470 C464 0.930 . S
H471 C468 0.930 . S
C472 C474 1.348 . S
C472 C475 1.356 1_565 S
C472 O502 1.325 . S
N473 C476 1.314 . S
N473 C477 1.279 1_565 S
C474 C472 1.348 . S
C474 C476 1.353 . S
C474 H516 0.929 . S
C475 C472 1.356 1_545 S
C475 C477 1.358 . S
C475 H517 0.930 . S
C476 N473 1.314 . S
C476 C474 1.353 . S
C476 H518 0.930 . S
C477 N473 1.279 1_545 S
C477 C475 1.358 . S
C477 H519 0.930 . S
C478 C479 1.348 . S
C478 C480 1.356 . S
C478 O503 1.325 . S
C479 C478 1.348 . S
C479 C481 1.353 . S
C479 H520 0.929 . S
C480 C478 1.356 . S
C480 C482 1.358 . S
C480 H521 0.930 . S
C481 C479 1.353 . S
C481 N483 1.314 . S
C481 H522 0.930 . S
C482 C480 1.358 . S
C482 N483 1.279 . S
C482 H523 0.930 . S
N483 C481 1.314 . S
N483 C482 1.279 . S
C484 C486 1.353 . S
C484 N487 1.314 . S
C484 H490 0.930 . S
C485 N487 1.279 1_565 S
C485 C488 1.358 . S
C485 H491 0.930 . S
C486 C484 1.353 . S
C486 C489 1.348 1_545 S
C486 H524 0.929 . S
N487 Li442 1.990 . S
N487 C484 1.314 . S
N487 C485 1.279 1_545 S
C488 C485 1.358 . S
C488 C489 1.356 . S
C488 H525 0.930 . S
C489 C486 1.348 1_565 S
C489 C488 1.356 . S
H490 C484 0.930 . S
H491 C485 0.930 . S
C492 N493 1.314 . S
C492 C494 1.353 . S
C492 H498 0.930 . S
N493 Li443 1.990 . S
N493 C492 1.314 . S
N493 C496 1.279 . S
C494 C492 1.353 . S
C494 C497 1.348 . S
C494 H526 0.929 . S
C495 C496 1.358 . S
C495 C497 1.356 . S
C495 H527 0.930 . S
C496 N493 1.279 . S
C496 C495 1.358 . S
C496 H499 0.930 . S
C497 C494 1.348 . S
C497 C495 1.356 . S
H498 C492 0.930 . S
H499 C496 0.930 . S
O500 Li440 1.956 . S
O500 Li441 1.970 . S
O500 Li442 1.961 . S
O500 C444 1.325 . S
O501 Li440 1.970 . S
O501 Li441 1.956 . S
O501 Li443 1.961 1_545 S
O501 C450 1.325 . S
O502 Li440 1.961 1_565 S
O502 Li442 1.956 1_565 S
O502 Li443 1.970 . S
O502 C472 1.325 . S
O503 Li441 1.961 1_565 S
O503 Li442 1.970 1_565 S
O503 Li443 1.956 . S
O503 C478 1.325 . S
H504 C446 0.929 . S
H505 C447 0.930 . S
H506 C448 0.930 . S
H507 C449 0.930 . S
H508 C451 0.930 . S
H509 C453 0.929 . S
H510 C454 0.930 . S
H511 C455 0.930 . S
H512 C458 0.930 . S
H513 C461 0.929 . S
H514 C466 0.929 . S
H515 C467 0.930 . S
H516 C474 0.929 . S
H517 C475 0.930 . S
H518 C476 0.930 . S
H519 C477 0.930 . S
H520 C479 0.929 . S
H521 C480 0.930 . S
H522 C481 0.930 . S
H523 C482 0.930 . S
H524 C486 0.929 . S
H525 C488 0.930 . S
H526 C494 0.929 . S
H527 C495 0.930 . S
Li528 N545 1.990 . S
Li528 O588 1.956 1_655 S
Li528 O589 1.970 . S
Li528 O590 1.961 . S
Li529 N553 1.990 . S
Li529 O588 1.970 . S
Li529 O589 1.956 1_455 S
Li529 O591 1.961 . S
Li530 N575 1.990 . S
Li530 O588 1.961 1_655 S
Li530 O590 1.956 . S
Li530 O591 1.970 1_655 S
Li531 N581 1.990 . S
Li531 O589 1.961 . S
Li531 O590 1.970 . S
Li531 O591 1.956 1_655 S
C532 C534 1.348 . S
C532 C535 1.356 . S
C532 O588 1.325 . S
N533 C536 1.314 . S
N533 C537 1.279 . S
C534 C532 1.348 . S
C534 C536 1.353 . S
C534 H592 0.929 . S
C535 C532 1.356 . S
C535 C537 1.358 . S
C535 H593 0.930 . S
C536 N533 1.314 . S
C536 C534 1.353 . S
C536 H594 0.930 . S
C537 N533 1.279 . S
C537 C535 1.358 . S
C537 H595 0.930 . S
C538 C541 1.348 . S
C538 C542 1.356 . S
C538 O589 1.325 . S
C539 N540 1.279 . S
C539 C542 1.358 . S
C539 H596 0.930 . S
N540 C539 1.279 . S
N540 C543 1.314 . S
C541 C538 1.348 . S
C541 C543 1.353 . S
C541 H597 0.929 . S
C542 C538 1.356 . S
C542 C539 1.358 . S
C542 H598 0.930 . S
C543 N540 1.314 . S
C543 C541 1.353 . S
C543 H599 0.930 . S
C544 N545 1.314 . S
C544 C549 1.353 . S
C544 H550 0.930 . S
N545 Li528 1.990 . S
N545 C544 1.314 . S
N545 C547 1.279 1_655 S
C546 C547 1.358 1_655 S
C546 C548 1.356 . S
C546 H600 0.930 1_655 S
C547 N545 1.279 1_455 S
C547 C546 1.358 1_455 S
C547 H551 0.930 . S
C548 C546 1.356 . S
C548 C549 1.348 . S
C549 C544 1.353 . S
C549 C548 1.348 . S
C549 H601 0.929 . S
H550 C544 0.930 . S
H551 C547 0.930 . S
C552 N553 1.314 . S
C552 C554 1.353 . S
C552 H558 0.930 . S
N553 Li529 1.990 . S
N553 C552 1.314 . S
N553 C556 1.279 . S
C554 C552 1.353 . S
C554 C557 1.348 . S
C554 H602 0.929 . S
C555 C556 1.358 . S
C555 C557 1.356 . S
C555 H603 0.930 . S
C556 N553 1.279 . S
C556 C555 1.358 . S
C556 H559 0.930 . S
C557 C554 1.348 . S
C557 C555 1.356 . S
H558 C552 0.930 . S
H559 C556 0.930 . S
C560 C562 1.348 . S
C560 C563 1.356 . S
C560 O590 1.325 . S
N561 C564 1.314 . S
N561 C565 1.279 . S
C562 C560 1.348 . S
C562 C564 1.353 . S
C562 H604 0.929 . S
C563 C560 1.356 . S
C563 C565 1.358 . S
C563 H605 0.930 . S
C564 N561 1.314 . S
C564 C562 1.353 . S
C564 H606 0.930 . S
C565 N561 1.279 . S
C565 C563 1.358 . S
C565 H607 0.930 . S
C566 C567 1.348 . S
C566 C568 1.356 . S
C566 O591 1.325 . S
C567 C566 1.348 . S
C567 C569 1.353 . S
C567 H608 0.929 1_455 S
C568 C566 1.356 . S
C568 C570 1.358 . S
C568 H609 0.930 . S
C569 C567 1.353 . S
C569 N571 1.314 . S
C569 H610 0.930 . S
C570 C568 1.358 . S
C570 N571 1.279 . S
C570 H611 0.930 . S
N571 C569 1.314 . S
N571 C570 1.279 . S
C572 C574 1.353 . S
C572 N575 1.314 1_455 S
C572 H578 0.930 . S
C573 N575 1.279 . S
C573 C576 1.358 . S
C573 H579 0.930 . S
C574 C572 1.353 . S
C574 C577 1.348 . S
C574 H612 0.929 . S
N575 Li530 1.990 . S
N575 C572 1.314 1_655 S
N575 C573 1.279 . S
C576 C573 1.358 . S
C576 C577 1.356 1_655 S
C576 H613 0.930 . S
C577 C574 1.348 . S
C577 C576 1.356 1_455 S
H578 C572 0.930 . S
H579 C573 0.930 . S
C580 N581 1.314 . S
C580 C582 1.353 . S
C580 H586 0.930 . S
N581 Li531 1.990 . S
N581 C580 1.314 . S
N581 C584 1.279 . S
C582 C580 1.353 . S
C582 C585 1.348 . S
C582 H614 0.929 . S
C583 C584 1.358 . S
C583 C585 1.356 . S
C583 H615 0.930 . S
C584 N581 1.279 . S
C584 C583 1.358 . S
C584 H587 0.930 . S
C585 C582 1.348 . S
C585 C583 1.356 . S
H586 C580 0.930 . S
H587 C584 0.930 . S
O588 Li528 1.956 1_455 S
O588 Li529 1.970 . S
O588 Li530 1.961 1_455 S
O588 C532 1.325 . S
O589 Li528 1.970 . S
O589 Li529 1.956 1_655 S
O589 Li531 1.961 . S
O589 C538 1.325 . S
O590 Li528 1.961 . S
O590 Li530 1.956 . S
O590 Li531 1.970 . S
O590 C560 1.325 . S
O591 Li529 1.961 . S
O591 Li530 1.970 1_455 S
O591 Li531 1.956 1_455 S
O591 C566 1.325 . S
H592 C534 0.929 . S
H593 C535 0.930 . S
H594 C536 0.930 . S
H595 C537 0.930 . S
H596 C539 0.930 . S
H597 C541 0.929 . S
H598 C542 0.930 . S
H599 C543 0.930 . S
H600 C546 0.930 1_455 S
H601 C549 0.929 . S
H602 C554 0.929 . S
H603 C555 0.930 . S
H604 C562 0.929 . S
H605 C563 0.930 . S
H606 C564 0.930 . S
H607 C565 0.930 . S
H608 C567 0.929 1_655 S
H609 C568 0.930 . S
H610 C569 0.930 . S
H611 C570 0.930 . S
H612 C574 0.929 . S
H613 C576 0.930 . S
H614 C582 0.929 . S
H615 C583 0.930 . S
Li616 N633 1.990 . S
Li616 O676 1.956 . S
Li616 O677 1.970 . S
Li616 O678 1.961 1_545 S
Li617 N641 1.990 . S
Li617 O676 1.970 1_565 S
Li617 O677 1.956 1_565 S
Li617 O679 1.961 . S
Li618 N663 1.990 . S
Li618 O676 1.961 1_565 S
Li618 O678 1.956 . S
Li618 O679 1.970 . S
Li619 N669 1.990 . S
Li619 O677 1.961 1_565 S
Li619 O678 1.970 . S
Li619 O679 1.956 . S
C620 C622 1.348 . S
C620 C623 1.356 . S
C620 O676 1.325 . S
N621 C624 1.314 . S
N621 C625 1.279 . S
C622 C620 1.348 . S
C622 C624 1.353 . S
C622 H680 0.929 . S
C623 C620 1.356 . S
C623 C625 1.358 . S
C623 H681 0.930 . S
C624 N621 1.314 . S
C624 C622 1.353 . S
C624 H682 0.930 . S
C625 N621 1.279 . S
C625 C623 1.358 . S
C625 H683 0.930 . S
C626 C629 1.348 . S
C626 C630 1.356 1_545 S
C626 O677 1.325 . S
C627 N628 1.279 1_565 S
C627 C630 1.358 . S
C627 H684 0.930 . S
N628 C627 1.279 1_545 S
N628 C631 1.314 . S
C629 C626 1.348 . S
C629 C631 1.353 . S
C629 H685 0.929 . S
C630 C626 1.356 1_565 S
C630 C627 1.358 . S
C630 H686 0.930 . S
C631 N628 1.314 . S
C631 C629 1.353 . S
C631 H687 0.930 . S
C632 N633 1.314 . S
C632 C637 1.353 . S
C632 H638 0.930 . S
N633 Li616 1.990 . S
N633 C632 1.314 . S
N633 C635 1.279 . S
C634 C635 1.358 . S
C634 C636 1.356 . S
C634 H688 0.930 . S
C635 N633 1.279 . S
C635 C634 1.358 . S
C635 H639 0.930 . S
C636 C634 1.356 . S
C636 C637 1.348 . S
C637 C632 1.353 . S
C637 C636 1.348 . S
C637 H689 0.929 . S
H638 C632 0.930 . S
H639 C635 0.930 . S
C640 N641 1.314 . S
C640 C642 1.353 . S
C640 H646 0.930 . S
N641 Li617 1.990 . S
N641 C640 1.314 . S
N641 C644 1.279 1_565 S
C642 C640 1.353 . S
C642 C645 1.348 1_565 S
C642 H690 0.929 . S
C643 C644 1.358 . S
C643 C645 1.356 . S
C643 H691 0.930 . S
C644 N641 1.279 1_545 S
C644 C643 1.358 . S
C644 H647 0.930 . S
C645 C642 1.348 1_545 S
C645 C643 1.356 . S
H646 C640 0.930 . S
H647 C644 0.930 . S
C648 C650 1.348 . S
C648 C651 1.356 1_565 S
C648 O678 1.325 . S
N649 C652 1.314 . S
N649 C653 1.279 1_565 S
C650 C648 1.348 . S
C650 C652 1.353 . S
C650 H692 0.929 . S
C651 C648 1.356 1_545 S
C651 C653 1.358 . S
C651 H693 0.930 . S
C652 N649 1.314 . S
C652 C650 1.353 . S
C652 H694 0.930 . S
C653 N649 1.279 1_545 S
C653 C651 1.358 . S
C653 H695 0.930 . S
C654 C655 1.348 . S
C654 C656 1.356 . S
C654 O679 1.325 . S
C655 C654 1.348 . S
C655 C657 1.353 . S
C655 H696 0.929 . S
C656 C654 1.356 . S
C656 C658 1.358 . S
C656 H697 0.930 . S
C657 C655 1.353 . S
C657 N659 1.314 . S
C657 H698 0.930 . S
C658 C656 1.358 . S
C658 N659 1.279 . S
C658 H699 0.930 . S
N659 C657 1.314 . S
N659 C658 1.279 . S
C660 C662 1.353 . S
C660 N663 1.314 . S
C660 H666 0.930 . S
C661 N663 1.279 . S
C661 C664 1.358 . S
C661 H667 0.930 . S
C662 C660 1.353 . S
C662 C665 1.348 . S
C662 H700 0.929 . S
N663 Li618 1.990 . S
N663 C660 1.314 . S
N663 C661 1.279 . S
C664 C661 1.358 . S
C664 C665 1.356 . S
C664 H701 0.930 . S
C665 C662 1.348 . S
C665 C664 1.356 . S
H666 C660 0.930 . S
H667 C661 0.930 . S
C668 N669 1.314 . S
C668 C670 1.353 . S
C668 H674 0.930 . S
N669 Li619 1.990 . S
N669 C668 1.314 . S
N669 C672 1.279 . S
C670 C668 1.353 . S
C670 C673 1.348 . S
C670 H702 0.929 . S
C671 C672 1.358 . S
C671 C673 1.356 . S
C671 H703 0.930 . S
C672 N669 1.279 . S
C672 C671 1.358 . S
C672 H675 0.930 . S
C673 C670 1.348 . S
C673 C671 1.356 . S
H674 C668 0.930 . S
H675 C672 0.930 . S
O676 Li616 1.956 . S
O676 Li617 1.970 1_545 S
O676 Li618 1.961 1_545 S
O676 C620 1.325 . S
O677 Li616 1.970 . S
O677 Li617 1.956 1_545 S
O677 Li619 1.961 1_545 S
O677 C626 1.325 . S
O678 Li616 1.961 1_565 S
O678 Li618 1.956 . S
O678 Li619 1.970 . S
O678 C648 1.325 . S
O679 Li617 1.961 . S
O679 Li618 1.970 . S
O679 Li619 1.956 . S
O679 C654 1.325 . S
H680 C622 0.929 . S
H681 C623 0.930 . S
H682 C624 0.930 . S
H683 C625 0.930 . S
H684 C627 0.930 . S
H685 C629 0.929 . S
H686 C630 0.930 . S
H687 C631 0.930 . S
H688 C634 0.930 . S
H689 C637 0.929 . S
H690 C642 0.929 . S
H691 C643 0.930 . S
H692 C650 0.929 . S
H693 C651 0.930 . S
H694 C652 0.930 . S
H695 C653 0.930 . S
H696 C655 0.929 . S
H697 C656 0.930 . S
H698 C657 0.930 . S
H699 C658 0.930 . S
H700 C662 0.929 . S
H701 C664 0.930 . S
H702 C670 0.929 . S
H703 C671 0.930 . S
Li704 N721 1.990 . S
Li704 O764 1.956 . S
Li704 O765 1.970 . S
Li704 O766 1.961 . S
Li705 N729 1.990 . S
Li705 O764 1.970 . S
Li705 O765 1.956 . S
Li705 O767 1.961 . S
Li706 N751 1.990 . S
Li706 O764 1.961 . S
Li706 O766 1.956 . S
Li706 O767 1.970 . S
Li707 N757 1.990 . S
Li707 O765 1.961 . S
Li707 O766 1.970 . S
Li707 O767 1.956 . S
C708 C710 1.348 . S
C708 C711 1.356 . S
C708 O764 1.325 . S
N709 C712 1.314 . S
N709 C713 1.279 . S
C710 C708 1.348 . S
C710 C712 1.353 . S
C710 H768 0.929 . S
C711 C708 1.356 . S
C711 C713 1.358 . S
C711 H769 0.930 . S
C712 N709 1.314 . S
C712 C710 1.353 . S
C712 H770 0.930 . S
C713 N709 1.279 . S
C713 C711 1.358 . S
C713 H771 0.930 . S
C714 C717 1.348 . S
C714 C718 1.356 . S
C714 O765 1.325 . S
C715 N716 1.279 . S
C715 C718 1.358 . S
C715 H772 0.930 . S
N716 C715 1.279 . S
N716 C719 1.314 . S
C717 C714 1.348 . S
C717 C719 1.353 . S
C717 H773 0.929 . S
C718 C714 1.356 . S
C718 C715 1.358 . S
C718 H774 0.930 . S
C719 N716 1.314 . S
C719 C717 1.353 . S
C719 H775 0.930 . S
C720 N721 1.314 . S
C720 C725 1.353 . S
C720 H726 0.930 . S
N721 Li704 1.990 . S
N721 C720 1.314 . S
N721 C723 1.279 . S
C722 C723 1.358 . S
C722 C724 1.356 . S
C722 H776 0.930 . S
C723 N721 1.279 . S
C723 C722 1.358 . S
C723 H727 0.930 . S
C724 C722 1.356 . S
C724 C725 1.348 . S
C725 C720 1.353 . S
C725 C724 1.348 . S
C725 H777 0.929 . S
H726 C720 0.930 . S
H727 C723 0.930 . S
C728 N729 1.314 . S
C728 C730 1.353 . S
C728 H734 0.930 . S
N729 Li705 1.990 . S
N729 C728 1.314 . S
N729 C732 1.279 . S
C730 C728 1.353 . S
C730 C733 1.348 . S
C730 H778 0.929 . S
C731 C732 1.358 . S
C731 C733 1.356 . S
C731 H779 0.930 . S
C732 N729 1.279 . S
C732 C731 1.358 . S
C732 H735 0.930 . S
C733 C730 1.348 . S
C733 C731 1.356 . S
H734 C728 0.930 . S
H735 C732 0.930 . S
C736 C738 1.348 . S
C736 C739 1.356 . S
C736 O766 1.325 . S
N737 C740 1.314 . S
N737 C741 1.279 . S
C738 C736 1.348 . S
C738 C740 1.353 . S
C738 H780 0.929 . S
C739 C736 1.356 . S
C739 C741 1.358 . S
C739 H781 0.930 . S
C740 N737 1.314 . S
C740 C738 1.353 . S
C740 H782 0.930 . S
C741 N737 1.279 . S
C741 C739 1.358 . S
C741 H783 0.930 . S
C742 C743 1.348 . S
C742 C744 1.356 . S
C742 O767 1.325 . S
C743 C742 1.348 . S
C743 C745 1.353 . S
C743 H784 0.929 . S
C744 C742 1.356 . S
C744 C746 1.358 . S
C744 H785 0.930 . S
C745 C743 1.353 . S
C745 N747 1.314 . S
C745 H786 0.930 . S
C746 C744 1.358 . S
C746 N747 1.279 . S
C746 H787 0.930 . S
N747 C745 1.314 . S
N747 C746 1.279 . S
C748 C750 1.353 . S
C748 N751 1.314 . S
C748 H754 0.930 . S
C749 N751 1.279 . S
C749 C752 1.358 . S
C749 H755 0.930 . S
C750 C748 1.353 . S
C750 C753 1.348 . S
C750 H788 0.929 . S
N751 Li706 1.990 . S
N751 C748 1.314 . S
N751 C749 1.279 . S
C752 C749 1.358 . S
C752 C753 1.356 . S
C752 H789 0.930 . S
C753 C750 1.348 . S
C753 C752 1.356 . S
H754 C748 0.930 . S
H755 C749 0.930 . S
C756 N757 1.314 . S
C756 C758 1.353 . S
C756 H762 0.930 . S
N757 Li707 1.990 . S
N757 C756 1.314 . S
N757 C760 1.279 . S
C758 C756 1.353 . S
C758 C761 1.348 . S
C758 H790 0.929 . S
C759 C760 1.358 . S
C759 C761 1.356 . S
C759 H791 0.930 . S
C760 N757 1.279 . S
C760 C759 1.358 . S
C760 H763 0.930 . S
C761 C758 1.348 . S
C761 C759 1.356 . S
H762 C756 0.930 . S
H763 C760 0.930 . S
O764 Li704 1.956 . S
O764 Li705 1.970 . S
O764 Li706 1.961 . S
O764 C708 1.325 . S
O765 Li704 1.970 . S
O765 Li705 1.956 . S
O765 Li707 1.961 . S
O765 C714 1.325 . S
O766 Li704 1.961 . S
O766 Li706 1.956 . S
O766 Li707 1.970 . S
O766 C736 1.325 . S
O767 Li705 1.961 . S
O767 Li706 1.970 . S
O767 Li707 1.956 . S
O767 C742 1.325 . S
H768 C710 0.929 . S
H769 C711 0.930 . S
H770 C712 0.930 . S
H771 C713 0.930 . S
H772 C715 0.930 . S
H773 C717 0.929 . S
H774 C718 0.930 . S
H775 C719 0.930 . S
H776 C722 0.930 . S
H777 C725 0.929 . S
H778 C730 0.929 . S
H779 C731 0.930 . S
H780 C738 0.929 . S
H781 C739 0.930 . S
H782 C740 0.930 . S
H783 C741 0.930 . S
H784 C743 0.929 . S
H785 C744 0.930 . S
H786 C745 0.930 . S
H787 C746 0.930 . S
H788 C750 0.929 . S
H789 C752 0.930 . S
H790 C758 0.929 . S
H791 C759 0.930 . S
Li792 N809 1.990 . S
Li792 O852 1.956 . S
Li792 O853 1.970 . S
Li792 O854 1.961 . S
Li793 N817 1.990 . S
Li793 O852 1.970 . S
Li793 O853 1.956 . S
Li793 O855 1.961 . S
Li794 N839 1.990 . S
Li794 O852 1.961 . S
Li794 O854 1.956 . S
Li794 O855 1.970 . S
Li795 N845 1.990 . S
Li795 O853 1.961 . S
Li795 O854 1.970 . S
Li795 O855 1.956 . S
C796 C798 1.348 . S
C796 C799 1.356 . S
C796 O852 1.325 . S
N797 C800 1.314 . S
N797 C801 1.279 . S
C798 C796 1.348 . S
C798 C800 1.353 . S
C798 H856 0.929 . S
C799 C796 1.356 . S
C799 C801 1.358 . S
C799 H857 0.930 . S
C800 N797 1.314 . S
C800 C798 1.353 . S
C800 H858 0.930 . S
C801 N797 1.279 . S
C801 C799 1.358 . S
C801 H859 0.930 . S
C802 C805 1.348 . S
C802 C806 1.356 . S
C802 O853 1.325 . S
C803 N804 1.279 . S
C803 C806 1.358 . S
C803 H860 0.930 . S
N804 C803 1.279 . S
N804 C807 1.314 . S
C805 C802 1.348 . S
C805 C807 1.353 . S
C805 H861 0.929 . S
C806 C802 1.356 . S
C806 C803 1.358 . S
C806 H862 0.930 . S
C807 N804 1.314 . S
C807 C805 1.353 . S
C807 H863 0.930 . S
C808 N809 1.314 . S
C808 C813 1.353 . S
C808 H814 0.930 . S
N809 Li792 1.990 . S
N809 C808 1.314 . S
N809 C811 1.279 . S
C810 C811 1.358 . S
C810 C812 1.356 . S
C810 H864 0.930 . S
C811 N809 1.279 . S
C811 C810 1.358 . S
C811 H815 0.930 . S
C812 C810 1.356 . S
C812 C813 1.348 . S
C813 C808 1.353 . S
C813 C812 1.348 . S
C813 H865 0.929 . S
H814 C808 0.930 . S
H815 C811 0.930 . S
C816 N817 1.314 . S
C816 C818 1.353 . S
C816 H822 0.930 . S
N817 Li793 1.990 . S
N817 C816 1.314 . S
N817 C820 1.279 . S
C818 C816 1.353 . S
C818 C821 1.348 . S
C818 H866 0.929 . S
C819 C820 1.358 . S
C819 C821 1.356 . S
C819 H867 0.930 . S
C820 N817 1.279 . S
C820 C819 1.358 . S
C820 H823 0.930 . S
C821 C818 1.348 . S
C821 C819 1.356 . S
H822 C816 0.930 . S
H823 C820 0.930 . S
C824 C826 1.348 . S
C824 C827 1.356 . S
C824 O854 1.325 . S
N825 C828 1.314 . S
N825 C829 1.279 . S
C826 C824 1.348 . S
C826 C828 1.353 . S
C826 H868 0.929 . S
C827 C824 1.356 . S
C827 C829 1.358 . S
C827 H869 0.930 . S
C828 N825 1.314 . S
C828 C826 1.353 . S
C828 H870 0.930 . S
C829 N825 1.279 . S
C829 C827 1.358 . S
C829 H871 0.930 . S
C830 C831 1.348 . S
C830 C832 1.356 . S
C830 O855 1.325 . S
C831 C830 1.348 . S
C831 C833 1.353 . S
C831 H872 0.929 . S
C832 C830 1.356 . S
C832 C834 1.358 . S
C832 H873 0.930 . S
C833 C831 1.353 . S
C833 N835 1.314 . S
C833 H874 0.930 . S
C834 C832 1.358 . S
C834 N835 1.279 . S
C834 H875 0.930 . S
N835 C833 1.314 . S
N835 C834 1.279 . S
C836 C838 1.353 . S
C836 N839 1.314 . S
C836 H842 0.930 . S
C837 N839 1.279 . S
C837 C840 1.358 . S
C837 H843 0.930 . S
C838 C836 1.353 . S
C838 C841 1.348 . S
C838 H876 0.929 . S
N839 Li794 1.990 . S
N839 C836 1.314 . S
N839 C837 1.279 . S
C840 C837 1.358 . S
C840 C841 1.356 . S
C840 H877 0.930 . S
C841 C838 1.348 . S
C841 C840 1.356 . S
H842 C836 0.930 . S
H843 C837 0.930 . S
C844 N845 1.314 . S
C844 C846 1.353 . S
C844 H850 0.930 . S
N845 Li795 1.990 . S
N845 C844 1.314 . S
N845 C848 1.279 . S
C846 C844 1.353 . S
C846 C849 1.348 . S
C846 H878 0.929 . S
C847 C848 1.358 . S
C847 C849 1.356 . S
C847 H879 0.930 . S
C848 N845 1.279 . S
C848 C847 1.358 . S
C848 H851 0.930 . S
C849 C846 1.348 . S
C849 C847 1.356 . S
H850 C844 0.930 . S
H851 C848 0.930 . S
O852 Li792 1.956 . S
O852 Li793 1.970 . S
O852 Li794 1.961 . S
O852 C796 1.325 . S
O853 Li792 1.970 . S
O853 Li793 1.956 . S
O853 Li795 1.961 . S
O853 C802 1.325 . S
O854 Li792 1.961 . S
O854 Li794 1.956 . S
O854 Li795 1.970 . S
O854 C824 1.325 . S
O855 Li793 1.961 . S
O855 Li794 1.970 . S
O855 Li795 1.956 . S
O855 C830 1.325 . S
H856 C798 0.929 . S
H857 C799 0.930 . S
H858 C800 0.930 . S
H859 C801 0.930 . S
H860 C803 0.930 . S
H861 C805 0.929 . S
H862 C806 0.930 . S
H863 C807 0.930 . S
H864 C810 0.930 . S
H865 C813 0.929 . S
H866 C818 0.929 . S
H867 C819 0.930 . S
H868 C826 0.929 . S
H869 C827 0.930 . S
H870 C828 0.930 . S
H871 C829 0.930 . S
H872 C831 0.929 . S
H873 C832 0.930 . S
H874 C833 0.930 . S
H875 C834 0.930 . S
H876 C838 0.929 . S
H877 C840 0.930 . S
H878 C846 0.929 . S
H879 C847 0.930 . S
Li880 N897 1.990 . S
Li880 O940 1.956 . S
Li880 O941 1.970 . S
Li880 O942 1.961 . S
Li881 N905 1.990 . S
Li881 O940 1.970 . S
Li881 O941 1.956 . S
Li881 O943 1.961 . S
Li882 N927 1.990 . S
Li882 O940 1.961 . S
Li882 O942 1.956 . S
Li882 O943 1.970 . S
Li883 N933 1.990 . S
Li883 O941 1.961 . S
Li883 O942 1.970 . S
Li883 O943 1.956 . S
C884 C886 1.348 . S
C884 C887 1.356 . S
C884 O940 1.325 . S
N885 C888 1.314 . S
N885 C889 1.279 . S
C886 C884 1.348 . S
C886 C888 1.353 . S
C886 H944 0.929 . S
C887 C884 1.356 . S
C887 C889 1.358 . S
C887 H945 0.930 . S
C888 N885 1.314 . S
C888 C886 1.353 . S
C888 H946 0.930 . S
C889 N885 1.279 . S
C889 C887 1.358 . S
C889 H947 0.930 . S
C890 C893 1.348 . S
C890 C894 1.356 . S
C890 O941 1.325 . S
C891 N892 1.279 . S
C891 C894 1.358 . S
C891 H948 0.930 . S
N892 C891 1.279 . S
N892 C895 1.314 . S
C893 C890 1.348 . S
C893 C895 1.353 . S
C893 H949 0.929 . S
C894 C890 1.356 . S
C894 C891 1.358 . S
C894 H950 0.930 . S
C895 N892 1.314 . S
C895 C893 1.353 . S
C895 H951 0.930 . S
C896 N897 1.314 . S
C896 C901 1.353 . S
C896 H902 0.930 . S
N897 Li880 1.990 . S
N897 C896 1.314 . S
N897 C899 1.279 . S
C898 C899 1.358 . S
C898 C900 1.356 . S
C898 H952 0.930 . S
C899 N897 1.279 . S
C899 C898 1.358 . S
C899 H903 0.930 . S
C900 C898 1.356 . S
C900 C901 1.348 . S
C901 C896 1.353 . S
C901 C900 1.348 . S
C901 H953 0.929 . S
H902 C896 0.930 . S
H903 C899 0.930 . S
C904 N905 1.314 . S
C904 C906 1.353 . S
C904 H910 0.930 . S
N905 Li881 1.990 . S
N905 C904 1.314 . S
N905 C908 1.279 . S
C906 C904 1.353 . S
C906 C909 1.348 . S
C906 H954 0.929 . S
C907 C908 1.358 . S
C907 C909 1.356 . S
C907 H955 0.930 . S
C908 N905 1.279 . S
C908 C907 1.358 . S
C908 H911 0.930 . S
C909 C906 1.348 . S
C909 C907 1.356 . S
H910 C904 0.930 . S
H911 C908 0.930 . S
C912 C914 1.348 . S
C912 C915 1.356 . S
C912 O942 1.325 . S
N913 C916 1.314 . S
N913 C917 1.279 . S
C914 C912 1.348 . S
C914 C916 1.353 . S
C914 H956 0.929 . S
C915 C912 1.356 . S
C915 C917 1.358 . S
C915 H957 0.930 . S
C916 N913 1.314 . S
C916 C914 1.353 . S
C916 H958 0.930 . S
C917 N913 1.279 . S
C917 C915 1.358 . S
C917 H959 0.930 . S
C918 C919 1.348 . S
C918 C920 1.356 . S
C918 O943 1.325 . S
C919 C918 1.348 . S
C919 C921 1.353 . S
C919 H960 0.929 . S
C920 C918 1.356 . S
C920 C922 1.358 . S
C920 H961 0.930 . S
C921 C919 1.353 . S
C921 N923 1.314 . S
C921 H962 0.930 . S
C922 C920 1.358 . S
C922 N923 1.279 . S
C922 H963 0.930 . S
N923 C921 1.314 . S
N923 C922 1.279 . S
C924 C926 1.353 . S
C924 N927 1.314 . S
C924 H930 0.930 . S
C925 N927 1.279 . S
C925 C928 1.358 . S
C925 H931 0.930 . S
C926 C924 1.353 . S
C926 C929 1.348 . S
C926 H964 0.929 . S
N927 Li882 1.990 . S
N927 C924 1.314 . S
N927 C925 1.279 . S
C928 C925 1.358 . S
C928 C929 1.356 . S
C928 H965 0.930 . S
C929 C926 1.348 . S
C929 C928 1.356 . S
H930 C924 0.930 . S
H931 C925 0.930 . S
C932 N933 1.314 . S
C932 C934 1.353 . S
C932 H938 0.930 . S
N933 Li883 1.990 . S
N933 C932 1.314 . S
N933 C936 1.279 . S
C934 C932 1.353 . S
C934 C937 1.348 . S
C934 H966 0.929 . S
C935 C936 1.358 . S
C935 C937 1.356 . S
C935 H967 0.930 . S
C936 N933 1.279 . S
C936 C935 1.358 . S
C936 H939 0.930 . S
C937 C934 1.348 . S
C937 C935 1.356 . S
H938 C932 0.930 . S
H939 C936 0.930 . S
O940 Li880 1.956 . S
O940 Li881 1.970 . S
O940 Li882 1.961 . S
O940 C884 1.325 . S
O941 Li880 1.970 . S
O941 Li881 1.956 . S
O941 Li883 1.961 . S
O941 C890 1.325 . S
O942 Li880 1.961 . S
O942 Li882 1.956 . S
O942 Li883 1.970 . S
O942 C912 1.325 . S
O943 Li881 1.961 . S
O943 Li882 1.970 . S
O943 Li883 1.956 . S
O943 C918 1.325 . S
H944 C886 0.929 . S
H945 C887 0.930 . S
H946 C888 0.930 . S
H947 C889 0.930 . S
H948 C891 0.930 . S
H949 C893 0.929 . S
H950 C894 0.930 . S
H951 C895 0.930 . S
H952 C898 0.930 . S
H953 C901 0.929 . S
H954 C906 0.929 . S
H955 C907 0.930 . S
H956 C914 0.929 . S
H957 C915 0.930 . S
H958 C916 0.930 . S
H959 C917 0.930 . S
H960 C919 0.929 . S
H961 C920 0.930 . S
H962 C921 0.930 . S
H963 C922 0.930 . S
H964 C926 0.929 . S
H965 C928 0.930 . S
H966 C934 0.929 . S
H967 C935 0.930 . S
Li968 N985 1.990 . S
Li968 O1028 1.956 . S
Li968 O1029 1.970 . S
Li968 O1030 1.961 . S
Li969 N993 1.990 . S
Li969 O1028 1.970 . S
Li969 O1029 1.956 . S
Li969 O1031 1.961 . S
Li970 N1015 1.990 . S
Li970 O1028 1.961 . S
Li970 O1030 1.956 . S
Li970 O1031 1.970 . S
Li971 N1021 1.990 . S
Li971 O1029 1.961 . S
Li971 O1030 1.970 . S
Li971 O1031 1.956 . S
C972 C974 1.348 . S
C972 C975 1.356 . S
C972 O1028 1.325 . S
N973 C976 1.314 . S
N973 C977 1.279 . S
C974 C972 1.348 . S
C974 C976 1.353 . S
C974 H1032 0.929 . S
C975 C972 1.356 . S
C975 C977 1.358 . S
C975 H1033 0.930 . S
C976 N973 1.314 . S
C976 C974 1.353 . S
C976 H1034 0.930 . S
C977 N973 1.279 . S
C977 C975 1.358 . S
C977 H1035 0.930 . S
C978 C981 1.348 . S
C978 C982 1.356 . S
C978 O1029 1.325 . S
C979 N980 1.279 . S
C979 C982 1.358 . S
C979 H1036 0.930 . S
N980 C979 1.279 . S
N980 C983 1.314 . S
C981 C978 1.348 . S
C981 C983 1.353 . S
C981 H1037 0.929 . S
C982 C978 1.356 . S
C982 C979 1.358 . S
C982 H1038 0.930 . S
C983 N980 1.314 . S
C983 C981 1.353 . S
C983 H1039 0.930 . S
C984 N985 1.314 . S
C984 C989 1.353 . S
C984 H990 0.930 . S
N985 Li968 1.990 . S
N985 C984 1.314 . S
N985 C987 1.279 . S
C986 C987 1.358 . S
C986 C988 1.356 . S
C986 H1040 0.930 . S
C987 N985 1.279 . S
C987 C986 1.358 . S
C987 H991 0.930 . S
C988 C986 1.356 . S
C988 C989 1.348 . S
C989 C984 1.353 . S
C989 C988 1.348 . S
C989 H1041 0.929 . S
H990 C984 0.930 . S
H991 C987 0.930 . S
C992 N993 1.314 . S
C992 C994 1.353 . S
C992 H998 0.930 . S
N993 Li969 1.990 . S
N993 C992 1.314 . S
N993 C996 1.279 . S
C994 C992 1.353 . S
C994 C997 1.348 . S
C994 H1042 0.929 . S
C995 C996 1.358 . S
C995 C997 1.356 . S
C995 H1043 0.930 . S
C996 N993 1.279 . S
C996 C995 1.358 . S
C996 H999 0.930 . S
C997 C994 1.348 . S
C997 C995 1.356 . S
H998 C992 0.930 . S
H999 C996 0.930 . S
C1000 C1002 1.348 . S
C1000 C1003 1.356 . S
C1000 O1030 1.325 . S
N1001 C1004 1.314 . S
N1001 C1005 1.279 . S
C1002 C1000 1.348 . S
C1002 C1004 1.353 . S
C1002 H1044 0.929 . S
C1003 C1000 1.356 . S
C1003 C1005 1.358 . S
C1003 H1045 0.930 . S
C1004 N1001 1.314 . S
C1004 C1002 1.353 . S
C1004 H1046 0.930 . S
C1005 N1001 1.279 . S
C1005 C1003 1.358 . S
C1005 H1047 0.930 . S
C1006 C1007 1.348 . S
C1006 C1008 1.356 . S
C1006 O1031 1.325 . S
C1007 C1006 1.348 . S
C1007 C1009 1.353 . S
C1007 H1048 0.929 . S
C1008 C1006 1.356 . S
C1008 C1010 1.358 . S
C1008 H1049 0.930 . S
C1009 C1007 1.353 . S
C1009 N1011 1.314 . S
C1009 H1050 0.930 . S
C1010 C1008 1.358 . S
C1010 N1011 1.279 . S
C1010 H1051 0.930 . S
N1011 C1009 1.314 . S
N1011 C1010 1.279 . S
C1012 C1014 1.353 . S
C1012 N1015 1.314 . S
C1012 H1018 0.930 . S
C1013 N1015 1.279 . S
C1013 C1016 1.358 . S
C1013 H1019 0.930 . S
C1014 C1012 1.353 . S
C1014 C1017 1.348 . S
C1014 H1052 0.929 . S
N1015 Li970 1.990 . S
N1015 C1012 1.314 . S
N1015 C1013 1.279 . S
C1016 C1013 1.358 . S
C1016 C1017 1.356 . S
C1016 H1053 0.930 . S
C1017 C1014 1.348 . S
C1017 C1016 1.356 . S
H1018 C1012 0.930 . S
H1019 C1013 0.930 . S
C1020 N1021 1.314 . S
C1020 C1022 1.353 . S
C1020 H1026 0.930 . S
N1021 Li971 1.990 . S
N1021 C1020 1.314 . S
N1021 C1024 1.279 . S
C1022 C1020 1.353 . S
C1022 C1025 1.348 . S
C1022 H1054 0.929 . S
C1023 C1024 1.358 . S
C1023 C1025 1.356 . S
C1023 H1055 0.930 . S
C1024 N1021 1.279 . S
C1024 C1023 1.358 . S
C1024 H1027 0.930 . S
C1025 C1022 1.348 . S
C1025 C1023 1.356 . S
H1026 C1020 0.930 . S
H1027 C1024 0.930 . S
O1028 Li968 1.956 . S
O1028 Li969 1.970 . S
O1028 Li970 1.961 . S
O1028 C972 1.325 . S
O1029 Li968 1.970 . S
O1029 Li969 1.956 . S
O1029 Li971 1.961 . S
O1029 C978 1.325 . S
O1030 Li968 1.961 . S
O1030 Li970 1.956 . S
O1030 Li971 1.970 . S
O1030 C1000 1.325 . S
O1031 Li969 1.961 . S
O1031 Li970 1.970 . S
O1031 Li971 1.956 . S
O1031 C1006 1.325 . S
H1032 C974 0.929 . S
H1033 C975 0.930 . S
H1034 C976 0.930 . S
H1035 C977 0.930 . S
H1036 C979 0.930 . S
H1037 C981 0.929 . S
H1038 C982 0.930 . S
H1039 C983 0.930 . S
H1040 C986 0.930 . S
H1041 C989 0.929 . S
H1042 C994 0.929 . S
H1043 C995 0.930 . S
H1044 C1002 0.929 . S
H1045 C1003 0.930 . S
H1046 C1004 0.930 . S
H1047 C1005 0.930 . S
H1048 C1007 0.929 . S
H1049 C1008 0.930 . S
H1050 C1009 0.930 . S
H1051 C1010 0.930 . S
H1052 C1014 0.929 . S
H1053 C1016 0.930 . S
H1054 C1022 0.929 . S
H1055 C1023 0.930 . S
Li1056 N1073 1.990 . S
Li1056 O1116 1.956 . S
Li1056 O1117 1.970 . S
Li1056 O1118 1.961 . S
Li1057 N1081 1.990 . S
Li1057 O1116 1.970 . S
Li1057 O1117 1.956 . S
Li1057 O1119 1.961 . S
Li1058 N1103 1.990 . S
Li1058 O1116 1.961 . S
Li1058 O1118 1.956 . S
Li1058 O1119 1.970 . S
Li1059 N1109 1.990 . S
Li1059 O1117 1.961 . S
Li1059 O1118 1.970 . S
Li1059 O1119 1.956 . S
C1060 C1062 1.348 . S
C1060 C1063 1.356 . S
C1060 O1116 1.325 . S
N1061 C1064 1.314 . S
N1061 C1065 1.279 . S
C1062 C1060 1.348 . S
C1062 C1064 1.353 . S
C1062 H1120 0.929 . S
C1063 C1060 1.356 . S
C1063 C1065 1.358 . S
C1063 H1121 0.930 . S
C1064 N1061 1.314 . S
C1064 C1062 1.353 . S
C1064 H1122 0.930 . S
C1065 N1061 1.279 . S
C1065 C1063 1.358 . S
C1065 H1123 0.930 . S
C1066 C1069 1.348 . S
C1066 C1070 1.356 . S
C1066 O1117 1.325 . S
C1067 N1068 1.279 . S
C1067 C1070 1.358 . S
C1067 H1124 0.930 . S
N1068 C1067 1.279 . S
N1068 C1071 1.314 . S
C1069 C1066 1.348 . S
C1069 C1071 1.353 . S
C1069 H1125 0.929 . S
C1070 C1066 1.356 . S
C1070 C1067 1.358 . S
C1070 H1126 0.930 . S
C1071 N1068 1.314 . S
C1071 C1069 1.353 . S
C1071 H1127 0.930 . S
C1072 N1073 1.314 . S
C1072 C1077 1.353 . S
C1072 H1078 0.930 . S
N1073 Li1056 1.990 . S
N1073 C1072 1.314 . S
N1073 C1075 1.279 . S
C1074 C1075 1.358 . S
C1074 C1076 1.356 . S
C1074 H1128 0.930 . S
C1075 N1073 1.279 . S
C1075 C1074 1.358 . S
C1075 H1079 0.930 . S
C1076 C1074 1.356 . S
C1076 C1077 1.348 . S
C1077 C1072 1.353 . S
C1077 C1076 1.348 . S
C1077 H1129 0.929 . S
H1078 C1072 0.930 . S
H1079 C1075 0.930 . S
C1080 N1081 1.314 . S
C1080 C1082 1.353 . S
C1080 H1086 0.930 . S
N1081 Li1057 1.990 . S
N1081 C1080 1.314 . S
N1081 C1084 1.279 . S
C1082 C1080 1.353 . S
C1082 C1085 1.348 . S
C1082 H1130 0.929 . S
C1083 C1084 1.358 . S
C1083 C1085 1.356 . S
C1083 H1131 0.930 . S
C1084 N1081 1.279 . S
C1084 C1083 1.358 . S
C1084 H1087 0.930 . S
C1085 C1082 1.348 . S
C1085 C1083 1.356 . S
H1086 C1080 0.930 . S
H1087 C1084 0.930 . S
C1088 C1090 1.348 . S
C1088 C1091 1.356 . S
C1088 O1118 1.325 . S
N1089 C1092 1.314 . S
N1089 C1093 1.279 . S
C1090 C1088 1.348 . S
C1090 C1092 1.353 . S
C1090 H1132 0.929 . S
C1091 C1088 1.356 . S
C1091 C1093 1.358 . S
C1091 H1133 0.930 . S
C1092 N1089 1.314 . S
C1092 C1090 1.353 . S
C1092 H1134 0.930 . S
C1093 N1089 1.279 . S
C1093 C1091 1.358 . S
C1093 H1135 0.930 . S
C1094 C1095 1.348 . S
C1094 C1096 1.356 . S
C1094 O1119 1.325 . S
C1095 C1094 1.348 . S
C1095 C1097 1.353 . S
C1095 H1136 0.929 . S
C1096 C1094 1.356 . S
C1096 C1098 1.358 . S
C1096 H1137 0.930 . S
C1097 C1095 1.353 . S
C1097 N1099 1.314 . S
C1097 H1138 0.930 . S
C1098 C1096 1.358 . S
C1098 N1099 1.279 . S
C1098 H1139 0.930 . S
N1099 C1097 1.314 . S
N1099 C1098 1.279 . S
C1100 C1102 1.353 . S
C1100 N1103 1.314 . S
C1100 H1106 0.930 . S
C1101 N1103 1.279 . S
C1101 C1104 1.358 . S
C1101 H1107 0.930 . S
C1102 C1100 1.353 . S
C1102 C1105 1.348 . S
C1102 H1140 0.929 . S
N1103 Li1058 1.990 . S
N1103 C1100 1.314 . S
N1103 C1101 1.279 . S
C1104 C1101 1.358 . S
C1104 C1105 1.356 . S
C1104 H1141 0.930 . S
C1105 C1102 1.348 . S
C1105 C1104 1.356 . S
H1106 C1100 0.930 . S
H1107 C1101 0.930 . S
C1108 N1109 1.314 . S
C1108 C1110 1.353 . S
C1108 H1114 0.930 . S
N1109 Li1059 1.990 . S
N1109 C1108 1.314 . S
N1109 C1112 1.279 . S
C1110 C1108 1.353 . S
C1110 C1113 1.348 . S
C1110 H1142 0.929 . S
C1111 C1112 1.358 . S
C1111 C1113 1.356 . S
C1111 H1143 0.930 . S
C1112 N1109 1.279 . S
C1112 C1111 1.358 . S
C1112 H1115 0.930 . S
C1113 C1110 1.348 . S
C1113 C1111 1.356 . S
H1114 C1108 0.930 . S
H1115 C1112 0.930 . S
O1116 Li1056 1.956 . S
O1116 Li1057 1.970 . S
O1116 Li1058 1.961 . S
O1116 C1060 1.325 . S
O1117 Li1056 1.970 . S
O1117 Li1057 1.956 . S
O1117 Li1059 1.961 . S
O1117 C1066 1.325 . S
O1118 Li1056 1.961 . S
O1118 Li1058 1.956 . S
O1118 Li1059 1.970 . S
O1118 C1088 1.325 . S
O1119 Li1057 1.961 . S
O1119 Li1058 1.970 . S
O1119 Li1059 1.956 . S
O1119 C1094 1.325 . S
H1120 C1062 0.929 . S
H1121 C1063 0.930 . S
H1122 C1064 0.930 . S
H1123 C1065 0.930 . S
H1124 C1067 0.930 . S
H1125 C1069 0.929 . S
H1126 C1070 0.930 . S
H1127 C1071 0.930 . S
H1128 C1074 0.930 . S
H1129 C1077 0.929 . S
H1130 C1082 0.929 . S
H1131 C1083 0.930 . S
H1132 C1090 0.929 . S
H1133 C1091 0.930 . S
H1134 C1092 0.930 . S
H1135 C1093 0.930 . S
H1136 C1095 0.929 . S
H1137 C1096 0.930 . S
H1138 C1097 0.930 . S
H1139 C1098 0.930 . S
H1140 C1102 0.929 . S
H1141 C1104 0.930 . S
H1142 C1110 0.929 . S
H1143 C1111 0.930 . S
Li1144 N1161 1.990 . S
Li1144 O1204 1.956 . S
Li1144 O1205 1.970 . S
Li1144 O1206 1.961 . S
Li1145 N1169 1.990 . S
Li1145 O1204 1.970 . S
Li1145 O1205 1.956 . S
Li1145 O1207 1.961 . S
Li1146 N1191 1.990 . S
Li1146 O1204 1.961 . S
Li1146 O1206 1.956 . S
Li1146 O1207 1.970 . S
Li1147 N1197 1.990 . S
Li1147 O1205 1.961 . S
Li1147 O1206 1.970 . S
Li1147 O1207 1.956 . S
C1148 C1150 1.348 . S
C1148 C1151 1.356 . S
C1148 O1204 1.325 . S
N1149 C1152 1.314 . S
N1149 C1153 1.279 . S
C1150 C1148 1.348 . S
C1150 C1152 1.353 . S
C1150 H1208 0.929 . S
C1151 C1148 1.356 . S
C1151 C1153 1.358 . S
C1151 H1209 0.930 . S
C1152 N1149 1.314 . S
C1152 C1150 1.353 . S
C1152 H1210 0.930 . S
C1153 N1149 1.279 . S
C1153 C1151 1.358 . S
C1153 H1211 0.930 . S
C1154 C1157 1.348 . S
C1154 C1158 1.356 . S
C1154 O1205 1.325 . S
C1155 N1156 1.279 . S
C1155 C1158 1.358 . S
C1155 H1212 0.930 . S
N1156 C1155 1.279 . S
N1156 C1159 1.314 . S
C1157 C1154 1.348 . S
C1157 C1159 1.353 . S
C1157 H1213 0.929 . S
C1158 C1154 1.356 . S
C1158 C1155 1.358 . S
C1158 H1214 0.930 . S
C1159 N1156 1.314 . S
C1159 C1157 1.353 . S
C1159 H1215 0.930 . S
C1160 N1161 1.314 . S
C1160 C1165 1.353 . S
C1160 H1166 0.930 . S
N1161 Li1144 1.990 . S
N1161 C1160 1.314 . S
N1161 C1163 1.279 . S
C1162 C1163 1.358 . S
C1162 C1164 1.356 . S
C1162 H1216 0.930 . S
C1163 N1161 1.279 . S
C1163 C1162 1.358 . S
C1163 H1167 0.930 . S
C1164 C1162 1.356 . S
C1164 C1165 1.348 . S
C1165 C1160 1.353 . S
C1165 C1164 1.348 . S
C1165 H1217 0.929 . S
H1166 C1160 0.930 . S
H1167 C1163 0.930 . S
C1168 N1169 1.314 . S
C1168 C1170 1.353 . S
C1168 H1174 0.930 . S
N1169 Li1145 1.990 . S
N1169 C1168 1.314 . S
N1169 C1172 1.279 . S
C1170 C1168 1.353 . S
C1170 C1173 1.348 . S
C1170 H1218 0.929 . S
C1171 C1172 1.358 . S
C1171 C1173 1.356 . S
C1171 H1219 0.930 . S
C1172 N1169 1.279 . S
C1172 C1171 1.358 . S
C1172 H1175 0.930 . S
C1173 C1170 1.348 . S
C1173 C1171 1.356 . S
H1174 C1168 0.930 . S
H1175 C1172 0.930 . S
C1176 C1178 1.348 . S
C1176 C1179 1.356 . S
C1176 O1206 1.325 . S
N1177 C1180 1.314 . S
N1177 C1181 1.279 . S
C1178 C1176 1.348 . S
C1178 C1180 1.353 . S
C1178 H1220 0.929 . S
C1179 C1176 1.356 . S
C1179 C1181 1.358 . S
C1179 H1221 0.930 . S
C1180 N1177 1.314 . S
C1180 C1178 1.353 . S
C1180 H1222 0.930 . S
C1181 N1177 1.279 . S
C1181 C1179 1.358 . S
C1181 H1223 0.930 . S
C1182 C1183 1.348 . S
C1182 C1184 1.356 . S
C1182 O1207 1.325 . S
C1183 C1182 1.348 . S
C1183 C1185 1.353 . S
C1183 H1224 0.929 . S
C1184 C1182 1.356 . S
C1184 C1186 1.358 . S
C1184 H1225 0.930 . S
C1185 C1183 1.353 . S
C1185 N1187 1.314 . S
C1185 H1226 0.930 . S
C1186 C1184 1.358 . S
C1186 N1187 1.279 . S
C1186 H1227 0.930 . S
N1187 C1185 1.314 . S
N1187 C1186 1.279 . S
C1188 C1190 1.353 . S
C1188 N1191 1.314 . S
C1188 H1194 0.930 . S
C1189 N1191 1.279 . S
C1189 C1192 1.358 . S
C1189 H1195 0.930 . S
C1190 C1188 1.353 . S
C1190 C1193 1.348 . S
C1190 H1228 0.929 . S
N1191 Li1146 1.990 . S
N1191 C1188 1.314 . S
N1191 C1189 1.279 . S
C1192 C1189 1.358 . S
C1192 C1193 1.356 . S
C1192 H1229 0.930 . S
C1193 C1190 1.348 . S
C1193 C1192 1.356 . S
H1194 C1188 0.930 . S
H1195 C1189 0.930 . S
C1196 N1197 1.314 . S
C1196 C1198 1.353 . S
C1196 H1202 0.930 . S
N1197 Li1147 1.990 . S
N1197 C1196 1.314 . S
N1197 C1200 1.279 . S
C1198 C1196 1.353 . S
C1198 C1201 1.348 . S
C1198 H1230 0.929 . S
C1199 C1200 1.358 . S
C1199 C1201 1.356 . S
C1199 H1231 0.930 . S
C1200 N1197 1.279 . S
C1200 C1199 1.358 . S
C1200 H1203 0.930 . S
C1201 C1198 1.348 . S
C1201 C1199 1.356 . S
H1202 C1196 0.930 . S
H1203 C1200 0.930 . S
O1204 Li1144 1.956 . S
O1204 Li1145 1.970 . S
O1204 Li1146 1.961 . S
O1204 C1148 1.325 . S
O1205 Li1144 1.970 . S
O1205 Li1145 1.956 . S
O1205 Li1147 1.961 . S
O1205 C1154 1.325 . S
O1206 Li1144 1.961 . S
O1206 Li1146 1.956 . S
O1206 Li1147 1.970 . S
O1206 C1176 1.325 . S
O1207 Li1145 1.961 . S
O1207 Li1146 1.970 . S
O1207 Li1147 1.956 . S
O1207 C1182 1.325 . S
H1208 C1150 0.929 . S
H1209 C1151 0.930 . S
H1210 C1152 0.930 . S
H1211 C1153 0.930 . S
H1212 C1155 0.930 . S
H1213 C1157 0.929 . S
H1214 C1158 0.930 . S
H1215 C1159 0.930 . S
H1216 C1162 0.930 . S
H1217 C1165 0.929 . S
H1218 C1170 0.929 . S
H1219 C1171 0.930 . S
H1220 C1178 0.929 . S
H1221 C1179 0.930 . S
H1222 C1180 0.930 . S
H1223 C1181 0.930 . S
H1224 C1183 0.929 . S
H1225 C1184 0.930 . S
H1226 C1185 0.930 . S
H1227 C1186 0.930 . S
H1228 C1190 0.929 . S
H1229 C1192 0.930 . S
H1230 C1198 0.929 . S
H1231 C1199 0.930 . S
Li1232 N1249 1.990 . S
Li1232 O1292 1.956 . S
Li1232 O1293 1.970 . S
Li1232 O1294 1.961 . S
Li1233 N1257 1.990 . S
Li1233 O1292 1.970 . S
Li1233 O1293 1.956 . S
Li1233 O1295 1.961 . S
Li1234 N1279 1.990 . S
Li1234 O1292 1.961 . S
Li1234 O1294 1.956 . S
Li1234 O1295 1.970 . S
Li1235 N1285 1.990 . S
Li1235 O1293 1.961 . S
Li1235 O1294 1.970 . S
Li1235 O1295 1.956 . S
C1236 C1238 1.348 . S
C1236 C1239 1.356 . S
C1236 O1292 1.325 . S
N1237 C1240 1.314 . S
N1237 C1241 1.279 . S
C1238 C1236 1.348 . S
C1238 C1240 1.353 . S
C1238 H1296 0.929 . S
C1239 C1236 1.356 . S
C1239 C1241 1.358 . S
C1239 H1297 0.930 . S
C1240 N1237 1.314 . S
C1240 C1238 1.353 . S
C1240 H1298 0.930 . S
C1241 N1237 1.279 . S
C1241 C1239 1.358 . S
C1241 H1299 0.930 . S
C1242 C1245 1.348 . S
C1242 C1246 1.356 . S
C1242 O1293 1.325 . S
C1243 N1244 1.279 . S
C1243 C1246 1.358 . S
C1243 H1300 0.930 . S
N1244 C1243 1.279 . S
N1244 C1247 1.314 . S
C1245 C1242 1.348 . S
C1245 C1247 1.353 . S
C1245 H1301 0.929 . S
C1246 C1242 1.356 . S
C1246 C1243 1.358 . S
C1246 H1302 0.930 . S
C1247 N1244 1.314 . S
C1247 C1245 1.353 . S
C1247 H1303 0.930 . S
C1248 N1249 1.314 . S
C1248 C1253 1.353 . S
C1248 H1254 0.930 . S
N1249 Li1232 1.990 . S
N1249 C1248 1.314 . S
N1249 C1251 1.279 . S
C1250 C1251 1.358 . S
C1250 C1252 1.356 . S
C1250 H1304 0.930 . S
C1251 N1249 1.279 . S
C1251 C1250 1.358 . S
C1251 H1255 0.930 . S
C1252 C1250 1.356 . S
C1252 C1253 1.348 . S
C1253 C1248 1.353 . S
C1253 C1252 1.348 . S
C1253 H1305 0.929 . S
H1254 C1248 0.930 . S
H1255 C1251 0.930 . S
C1256 N1257 1.314 . S
C1256 C1258 1.353 . S
C1256 H1262 0.930 . S
N1257 Li1233 1.990 . S
N1257 C1256 1.314 . S
N1257 C1260 1.279 . S
C1258 C1256 1.353 . S
C1258 C1261 1.348 . S
C1258 H1306 0.929 . S
C1259 C1260 1.358 . S
C1259 C1261 1.356 . S
C1259 H1307 0.930 . S
C1260 N1257 1.279 . S
C1260 C1259 1.358 . S
C1260 H1263 0.930 . S
C1261 C1258 1.348 . S
C1261 C1259 1.356 . S
H1262 C1256 0.930 . S
H1263 C1260 0.930 . S
C1264 C1266 1.348 . S
C1264 C1267 1.356 . S
C1264 O1294 1.325 . S
N1265 C1268 1.314 . S
N1265 C1269 1.279 . S
C1266 C1264 1.348 . S
C1266 C1268 1.353 . S
C1266 H1308 0.929 . S
C1267 C1264 1.356 . S
C1267 C1269 1.358 . S
C1267 H1309 0.930 . S
C1268 N1265 1.314 . S
C1268 C1266 1.353 . S
C1268 H1310 0.930 . S
C1269 N1265 1.279 . S
C1269 C1267 1.358 . S
C1269 H1311 0.930 . S
C1270 C1271 1.348 . S
C1270 C1272 1.356 . S
C1270 O1295 1.325 . S
C1271 C1270 1.348 . S
C1271 C1273 1.353 . S
C1271 H1312 0.929 . S
C1272 C1270 1.356 . S
C1272 C1274 1.358 . S
C1272 H1313 0.930 . S
C1273 C1271 1.353 . S
C1273 N1275 1.314 . S
C1273 H1314 0.930 . S
C1274 C1272 1.358 . S
C1274 N1275 1.279 . S
C1274 H1315 0.930 . S
N1275 C1273 1.314 . S
N1275 C1274 1.279 . S
C1276 C1278 1.353 . S
C1276 N1279 1.314 . S
C1276 H1282 0.930 . S
C1277 N1279 1.279 . S
C1277 C1280 1.358 . S
C1277 H1283 0.930 . S
C1278 C1276 1.353 . S
C1278 C1281 1.348 . S
C1278 H1316 0.929 . S
N1279 Li1234 1.990 . S
N1279 C1276 1.314 . S
N1279 C1277 1.279 . S
C1280 C1277 1.358 . S
C1280 C1281 1.356 . S
C1280 H1317 0.930 . S
C1281 C1278 1.348 . S
C1281 C1280 1.356 . S
H1282 C1276 0.930 . S
H1283 C1277 0.930 . S
C1284 N1285 1.314 . S
C1284 C1286 1.353 . S
C1284 H1290 0.930 . S
N1285 Li1235 1.990 . S
N1285 C1284 1.314 . S
N1285 C1288 1.279 . S
C1286 C1284 1.353 . S
C1286 C1289 1.348 . S
C1286 H1318 0.929 . S
C1287 C1288 1.358 . S
C1287 C1289 1.356 . S
C1287 H1319 0.930 . S
C1288 N1285 1.279 . S
C1288 C1287 1.358 . S
C1288 H1291 0.930 . S
C1289 C1286 1.348 . S
C1289 C1287 1.356 . S
H1290 C1284 0.930 . S
H1291 C1288 0.930 . S
O1292 Li1232 1.956 . S
O1292 Li1233 1.970 . S
O1292 Li1234 1.961 . S
O1292 C1236 1.325 . S
O1293 Li1232 1.970 . S
O1293 Li1233 1.956 . S
O1293 Li1235 1.961 . S
O1293 C1242 1.325 . S
O1294 Li1232 1.961 . S
O1294 Li1234 1.956 . S
O1294 Li1235 1.970 . S
O1294 C1264 1.325 . S
O1295 Li1233 1.961 . S
O1295 Li1234 1.970 . S
O1295 Li1235 1.956 . S
O1295 C1270 1.325 . S
H1296 C1238 0.929 . S
H1297 C1239 0.930 . S
H1298 C1240 0.930 . S
H1299 C1241 0.930 . S
H1300 C1243 0.930 . S
H1301 C1245 0.929 . S
H1302 C1246 0.930 . S
H1303 C1247 0.930 . S
H1304 C1250 0.930 . S
H1305 C1253 0.929 . S
H1306 C1258 0.929 . S
H1307 C1259 0.930 . S
H1308 C1266 0.929 . S
H1309 C1267 0.930 . S
H1310 C1268 0.930 . S
H1311 C1269 0.930 . S
H1312 C1271 0.929 . S
H1313 C1272 0.930 . S
H1314 C1273 0.930 . S
H1315 C1274 0.930 . S
H1316 C1278 0.929 . S
H1317 C1280 0.930 . S
H1318 C1286 0.929 . S
H1319 C1287 0.930 . S
Li1320 N1337 1.990 . S
Li1320 O1380 1.956 . S
Li1320 O1381 1.970 . S
Li1320 O1382 1.961 . S
Li1321 N1345 1.990 . S
Li1321 O1380 1.970 . S
Li1321 O1381 1.956 . S
Li1321 O1383 1.961 . S
Li1322 N1367 1.990 . S
Li1322 O1380 1.961 . S
Li1322 O1382 1.956 . S
Li1322 O1383 1.970 . S
Li1323 N1373 1.990 . S
Li1323 O1381 1.961 . S
Li1323 O1382 1.970 . S
Li1323 O1383 1.956 . S
C1324 C1326 1.348 . S
C1324 C1327 1.356 . S
C1324 O1380 1.325 . S
N1325 C1328 1.314 . S
N1325 C1329 1.279 . S
C1326 C1324 1.348 . S
C1326 C1328 1.353 . S
C1326 H1384 0.929 . S
C1327 C1324 1.356 . S
C1327 C1329 1.358 . S
C1327 H1385 0.930 . S
C1328 N1325 1.314 . S
C1328 C1326 1.353 . S
C1328 H1386 0.930 . S
C1329 N1325 1.279 . S
C1329 C1327 1.358 . S
C1329 H1387 0.930 . S
C1330 C1333 1.348 . S
C1330 C1334 1.356 . S
C1330 O1381 1.325 . S
C1331 N1332 1.279 . S
C1331 C1334 1.358 . S
C1331 H1388 0.930 . S
N1332 C1331 1.279 . S
N1332 C1335 1.314 . S
C1333 C1330 1.348 . S
C1333 C1335 1.353 . S
C1333 H1389 0.929 . S
C1334 C1330 1.356 . S
C1334 C1331 1.358 . S
C1334 H1390 0.930 . S
C1335 N1332 1.314 . S
C1335 C1333 1.353 . S
C1335 H1391 0.930 . S
C1336 N1337 1.314 . S
C1336 C1341 1.353 . S
C1336 H1342 0.930 . S
N1337 Li1320 1.990 . S
N1337 C1336 1.314 . S
N1337 C1339 1.279 . S
C1338 C1339 1.358 . S
C1338 C1340 1.356 . S
C1338 H1392 0.930 . S
C1339 N1337 1.279 . S
C1339 C1338 1.358 . S
C1339 H1343 0.930 . S
C1340 C1338 1.356 . S
C1340 C1341 1.348 . S
C1341 C1336 1.353 . S
C1341 C1340 1.348 . S
C1341 H1393 0.929 . S
H1342 C1336 0.930 . S
H1343 C1339 0.930 . S
C1344 N1345 1.314 . S
C1344 C1346 1.353 . S
C1344 H1350 0.930 . S
N1345 Li1321 1.990 . S
N1345 C1344 1.314 . S
N1345 C1348 1.279 . S
C1346 C1344 1.353 . S
C1346 C1349 1.348 . S
C1346 H1394 0.929 . S
C1347 C1348 1.358 . S
C1347 C1349 1.356 . S
C1347 H1395 0.930 . S
C1348 N1345 1.279 . S
C1348 C1347 1.358 . S
C1348 H1351 0.930 . S
C1349 C1346 1.348 . S
C1349 C1347 1.356 . S
H1350 C1344 0.930 . S
H1351 C1348 0.930 . S
C1352 C1354 1.348 . S
C1352 C1355 1.356 . S
C1352 O1382 1.325 . S
N1353 C1356 1.314 . S
N1353 C1357 1.279 . S
C1354 C1352 1.348 . S
C1354 C1356 1.353 . S
C1354 H1396 0.929 . S
C1355 C1352 1.356 . S
C1355 C1357 1.358 . S
C1355 H1397 0.930 . S
C1356 N1353 1.314 . S
C1356 C1354 1.353 . S
C1356 H1398 0.930 . S
C1357 N1353 1.279 . S
C1357 C1355 1.358 . S
C1357 H1399 0.930 . S
C1358 C1359 1.348 . S
C1358 C1360 1.356 . S
C1358 O1383 1.325 . S
C1359 C1358 1.348 . S
C1359 C1361 1.353 . S
C1359 H1400 0.929 . S
C1360 C1358 1.356 . S
C1360 C1362 1.358 . S
C1360 H1401 0.930 . S
C1361 C1359 1.353 . S
C1361 N1363 1.314 . S
C1361 H1402 0.930 . S
C1362 C1360 1.358 . S
C1362 N1363 1.279 . S
C1362 H1403 0.930 . S
N1363 C1361 1.314 . S
N1363 C1362 1.279 . S
C1364 C1366 1.353 . S
C1364 N1367 1.314 . S
C1364 H1370 0.930 . S
C1365 N1367 1.279 . S
C1365 C1368 1.358 . S
C1365 H1371 0.930 . S
C1366 C1364 1.353 . S
C1366 C1369 1.348 . S
C1366 H1404 0.929 . S
N1367 Li1322 1.990 . S
N1367 C1364 1.314 . S
N1367 C1365 1.279 . S
C1368 C1365 1.358 . S
C1368 C1369 1.356 . S
C1368 H1405 0.930 . S
C1369 C1366 1.348 . S
C1369 C1368 1.356 . S
H1370 C1364 0.930 . S
H1371 C1365 0.930 . S
C1372 N1373 1.314 . S
C1372 C1374 1.353 . S
C1372 H1378 0.930 . S
N1373 Li1323 1.990 . S
N1373 C1372 1.314 . S
N1373 C1376 1.279 . S
C1374 C1372 1.353 . S
C1374 C1377 1.348 . S
C1374 H1406 0.929 . S
C1375 C1376 1.358 . S
C1375 C1377 1.356 . S
C1375 H1407 0.930 . S
C1376 N1373 1.279 . S
C1376 C1375 1.358 . S
C1376 H1379 0.930 . S
C1377 C1374 1.348 . S
C1377 C1375 1.356 . S
H1378 C1372 0.930 . S
H1379 C1376 0.930 . S
O1380 Li1320 1.956 . S
O1380 Li1321 1.970 . S
O1380 Li1322 1.961 . S
O1380 C1324 1.325 . S
O1381 Li1320 1.970 . S
O1381 Li1321 1.956 . S
O1381 Li1323 1.961 . S
O1381 C1330 1.325 . S
O1382 Li1320 1.961 . S
O1382 Li1322 1.956 . S
O1382 Li1323 1.970 . S
O1382 C1352 1.325 . S
O1383 Li1321 1.961 . S
O1383 Li1322 1.970 . S
O1383 Li1323 1.956 . S
O1383 C1358 1.325 . S
H1384 C1326 0.929 . S
H1385 C1327 0.930 . S
H1386 C1328 0.930 . S
H1387 C1329 0.930 . S
H1388 C1331 0.930 . S
H1389 C1333 0.929 . S
H1390 C1334 0.930 . S
H1391 C1335 0.930 . S
H1392 C1338 0.930 . S
H1393 C1341 0.929 . S
H1394 C1346 0.929 . S
H1395 C1347 0.930 . S
H1396 C1354 0.929 . S
H1397 C1355 0.930 . S
H1398 C1356 0.930 . S
H1399 C1357 0.930 . S
H1400 C1359 0.929 . S
H1401 C1360 0.930 . S
H1402 C1361 0.930 . S
H1403 C1362 0.930 . S
H1404 C1366 0.929 . S
H1405 C1368 0.930 . S
H1406 C1374 0.929 . S
H1407 C1375 0.930 . S
C1408 C1409 1.391 . S
C1408 C1410 1.394 . S
C1408 H1424 0.931 . S
C1409 C1408 1.391 . S
C1409 C1413 1.376 . S
C1410 C1408 1.394 . S
C1410 C1411 1.369 . S
C1410 C1414 1.531 . S
C1411 C1410 1.369 . S
C1411 C1412 1.410 . S
C1411 C1419 1.503 . S
C1412 C1411 1.410 . S
C1412 C1413 1.392 . S
C1412 C1415 1.511 . S
C1413 C1409 1.376 . S
C1413 C1412 1.392 . S
C1413 H1425 0.929 . S
C1414 C1410 1.531 . S
C1414 H1426 0.960 . S
C1414 H1427 0.962 . S
C1414 H1428 0.960 . S
C1415 C1412 1.511 . S
C1415 H1429 0.961 . S
C1415 H1430 0.961 . S
C1415 H1431 0.961 . S
C1416 C1417 1.370 . S
C1416 C1418 1.363 . S
C1416 H1432 0.931 . S
C1417 C1416 1.370 . S
C1417 C1421 1.408 . S
C1418 C1416 1.363 . S
C1418 C1419 1.370 . S
C1418 C1422 1.524 . S
C1419 C1411 1.503 . S
C1419 C1418 1.370 . S
C1419 C1420 1.403 . S
C1420 C1419 1.403 . S
C1420 C1421 1.404 . S
C1420 C1423 1.539 . S
C1421 C1417 1.408 . S
C1421 C1420 1.404 . S
C1421 H1433 0.930 . S
C1422 C1418 1.524 . S
C1422 H1434 0.956 . S
C1422 H1435 0.961 . S
C1422 H1436 0.961 . S
C1423 C1420 1.539 . S
C1423 H1437 0.958 . S
C1423 H1438 0.961 . S
C1423 H1439 0.960 . S
H1424 C1408 0.931 . S
H1425 C1413 0.929 . S
H1426 C1414 0.960 . S
H1427 C1414 0.962 . S
H1428 C1414 0.960 . S
H1429 C1415 0.961 . S
H1430 C1415 0.961 . S
H1431 C1415 0.961 . S
H1432 C1416 0.931 . S
H1433 C1421 0.930 . S
H1434 C1422 0.956 . S
H1435 C1422 0.961 . S
H1436 C1422 0.961 . S
H1437 C1423 0.958 . S
H1438 C1423 0.961 . S
H1439 C1423 0.960 . S
C1440 C1441 1.391 . S
C1440 C1442 1.394 . S
C1440 H1456 0.931 . S
C1441 C1440 1.391 . S
C1441 C1445 1.376 . S
C1442 C1440 1.394 . S
C1442 C1443 1.369 . S
C1442 C1446 1.531 . S
C1443 C1442 1.369 . S
C1443 C1444 1.410 . S
C1443 C1451 1.503 . S
C1444 C1443 1.410 . S
C1444 C1445 1.392 . S
C1444 C1447 1.511 . S
C1445 C1441 1.376 . S
C1445 C1444 1.392 . S
C1445 H1457 0.929 . S
C1446 C1442 1.531 . S
C1446 H1458 0.960 . S
C1446 H1459 0.962 . S
C1446 H1460 0.960 . S
C1447 C1444 1.511 . S
C1447 H1461 0.961 . S
C1447 H1462 0.961 . S
C1447 H1463 0.961 . S
C1448 C1449 1.370 . S
C1448 C1450 1.363 . S
C1448 H1464 0.931 . S
C1449 C1448 1.370 . S
C1449 C1453 1.408 . S
C1450 C1448 1.363 . S
C1450 C1451 1.370 . S
C1450 C1454 1.524 . S
C1451 C1443 1.503 . S
C1451 C1450 1.370 . S
C1451 C1452 1.403 . S
C1452 C1451 1.403 . S
C1452 C1453 1.404 . S
C1452 C1455 1.539 . S
C1453 C1449 1.408 . S
C1453 C1452 1.404 . S
C1453 H1465 0.930 . S
C1454 C1450 1.524 . S
C1454 H1466 0.956 . S
C1454 H1467 0.961 . S
C1454 H1468 0.961 . S
C1455 C1452 1.539 . S
C1455 H1469 0.958 . S
C1455 H1470 0.961 . S
C1455 H1471 0.960 . S
H1456 C1440 0.931 . S
H1457 C1445 0.929 . S
H1458 C1446 0.960 . S
H1459 C1446 0.962 . S
H1460 C1446 0.960 . S
H1461 C1447 0.961 . S
H1462 C1447 0.961 . S
H1463 C1447 0.961 . S
H1464 C1448 0.931 . S
H1465 C1453 0.930 . S
H1466 C1454 0.956 . S
H1467 C1454 0.961 . S
H1468 C1454 0.961 . S
H1469 C1455 0.958 . S
H1470 C1455 0.961 . S
H1471 C1455 0.960 . S
C1472 C1473 1.391 . S
C1472 C1474 1.394 . S
C1472 H1488 0.931 . S
C1473 C1472 1.391 . S
C1473 C1477 1.376 . S
C1474 C1472 1.394 . S
C1474 C1475 1.369 . S
C1474 C1478 1.531 . S
C1475 C1474 1.369 . S
C1475 C1476 1.410 . S
C1475 C1483 1.503 . S
C1476 C1475 1.410 . S
C1476 C1477 1.392 . S
C1476 C1479 1.511 . S
C1477 C1473 1.376 . S
C1477 C1476 1.392 . S
C1477 H1489 0.929 . S
C1478 C1474 1.531 . S
C1478 H1490 0.960 . S
C1478 H1491 0.962 . S
C1478 H1492 0.960 . S
C1479 C1476 1.511 . S
C1479 H1493 0.961 . S
C1479 H1494 0.961 . S
C1479 H1495 0.961 . S
C1480 C1481 1.370 . S
C1480 C1482 1.363 . S
C1480 H1496 0.931 . S
C1481 C1480 1.370 . S
C1481 C1485 1.408 . S
C1482 C1480 1.363 . S
C1482 C1483 1.370 . S
C1482 C1486 1.524 . S
C1483 C1475 1.503 . S
C1483 C1482 1.370 . S
C1483 C1484 1.403 . S
C1484 C1483 1.403 . S
C1484 C1485 1.404 . S
C1484 C1487 1.539 . S
C1485 C1481 1.408 . S
C1485 C1484 1.404 . S
C1485 H1497 0.930 . S
C1486 C1482 1.524 . S
C1486 H1498 0.956 . S
C1486 H1499 0.961 . S
C1486 H1500 0.961 . S
C1487 C1484 1.539 . S
C1487 H1501 0.958 . S
C1487 H1502 0.961 . S
C1487 H1503 0.960 . S
H1488 C1472 0.931 . S
H1489 C1477 0.929 . S
H1490 C1478 0.960 . S
H1491 C1478 0.962 . S
H1492 C1478 0.960 . S
H1493 C1479 0.961 . S
H1494 C1479 0.961 . S
H1495 C1479 0.961 . S
H1496 C1480 0.931 . S
H1497 C1485 0.930 . S
H1498 C1486 0.956 . S
H1499 C1486 0.961 . S
H1500 C1486 0.961 . S
H1501 C1487 0.958 . S
H1502 C1487 0.961 . S
H1503 C1487 0.960 . S
C1504 C1505 1.391 . S
C1504 C1506 1.394 . S
C1504 H1520 0.931 . S
C1505 C1504 1.391 . S
C1505 C1509 1.376 . S
C1506 C1504 1.394 . S
C1506 C1507 1.369 . S
C1506 C1510 1.531 . S
C1507 C1506 1.369 . S
C1507 C1508 1.410 . S
C1507 C1515 1.503 . S
C1508 C1507 1.410 . S
C1508 C1509 1.392 . S
C1508 C1511 1.511 . S
C1509 C1505 1.376 . S
C1509 C1508 1.392 . S
C1509 H1521 0.929 . S
C1510 C1506 1.531 . S
C1510 H1522 0.960 . S
C1510 H1523 0.962 . S
C1510 H1524 0.960 . S
C1511 C1508 1.511 . S
C1511 H1525 0.961 . S
C1511 H1526 0.961 . S
C1511 H1527 0.961 . S
C1512 C1513 1.370 . S
C1512 C1514 1.363 . S
C1512 H1528 0.931 . S
C1513 C1512 1.370 . S
C1513 C1517 1.408 . S
C1514 C1512 1.363 . S
C1514 C1515 1.370 . S
C1514 C1518 1.524 . S
C1515 C1507 1.503 . S
C1515 C1514 1.370 . S
C1515 C1516 1.403 . S
C1516 C1515 1.403 . S
C1516 C1517 1.404 . S
C1516 C1519 1.539 . S
C1517 C1513 1.408 . S
C1517 C1516 1.404 . S
C1517 H1529 0.930 . S
C1518 C1514 1.524 . S
C1518 H1530 0.956 . S
C1518 H1531 0.961 . S
C1518 H1532 0.961 . S
C1519 C1516 1.539 . S
C1519 H1533 0.958 . S
C1519 H1534 0.961 . S
C1519 H1535 0.960 . S
H1520 C1504 0.931 . S
H1521 C1509 0.929 . S
H1522 C1510 0.960 . S
H1523 C1510 0.962 . S
H1524 C1510 0.960 . S
H1525 C1511 0.961 . S
H1526 C1511 0.961 . S
H1527 C1511 0.961 . S
H1528 C1512 0.931 . S
H1529 C1517 0.930 . S
H1530 C1518 0.956 . S
H1531 C1518 0.961 . S
H1532 C1518 0.961 . S
H1533 C1519 0.958 . S
H1534 C1519 0.961 . S
H1535 C1519 0.960 . S
C1536 C1537 1.391 . S
C1536 C1538 1.394 . S
C1536 H1552 0.931 . S
C1537 C1536 1.391 . S
C1537 C1541 1.376 . S
C1538 C1536 1.394 . S
C1538 C1539 1.369 . S
C1538 C1542 1.531 . S
C1539 C1538 1.369 . S
C1539 C1540 1.410 . S
C1539 C1547 1.503 . S
C1540 C1539 1.410 . S
C1540 C1541 1.392 . S
C1540 C1543 1.511 . S
C1541 C1537 1.376 . S
C1541 C1540 1.392 . S
C1541 H1553 0.929 . S
C1542 C1538 1.531 . S
C1542 H1554 0.960 . S
C1542 H1555 0.962 . S
C1542 H1556 0.960 . S
C1543 C1540 1.511 . S
C1543 H1557 0.961 . S
C1543 H1558 0.961 . S
C1543 H1559 0.961 . S
C1544 C1545 1.370 . S
C1544 C1546 1.363 . S
C1544 H1560 0.931 . S
C1545 C1544 1.370 . S
C1545 C1549 1.408 . S
C1546 C1544 1.363 . S
C1546 C1547 1.370 . S
C1546 C1550 1.524 . S
C1547 C1539 1.503 . S
C1547 C1546 1.370 . S
C1547 C1548 1.403 . S
C1548 C1547 1.403 . S
C1548 C1549 1.404 . S
C1548 C1551 1.539 . S
C1549 C1545 1.408 . S
C1549 C1548 1.404 . S
C1549 H1561 0.930 . S
C1550 C1546 1.524 . S
C1550 H1562 0.956 . S
C1550 H1563 0.961 . S
C1550 H1564 0.961 . S
C1551 C1548 1.539 . S
C1551 H1565 0.958 . S
C1551 H1566 0.961 . S
C1551 H1567 0.960 . S
H1552 C1536 0.931 . S
H1553 C1541 0.929 . S
H1554 C1542 0.960 . S
H1555 C1542 0.962 . S
H1556 C1542 0.960 . S
H1557 C1543 0.961 . S
H1558 C1543 0.961 . S
H1559 C1543 0.961 . S
H1560 C1544 0.931 . S
H1561 C1549 0.930 . S
H1562 C1550 0.956 . S
H1563 C1550 0.961 . S
H1564 C1550 0.961 . S
H1565 C1551 0.958 . S
H1566 C1551 0.961 . S
H1567 C1551 0.960 . S
C1568 C1569 1.391 . S
C1568 C1570 1.394 . S
C1568 H1584 0.931 . S
C1569 C1568 1.391 . S
C1569 C1573 1.376 . S
C1570 C1568 1.394 . S
C1570 C1571 1.369 . S
C1570 C1574 1.531 . S
C1571 C1570 1.369 . S
C1571 C1572 1.410 . S
C1571 C1579 1.503 . S
C1572 C1571 1.410 . S
C1572 C1573 1.392 . S
C1572 C1575 1.511 . S
C1573 C1569 1.376 . S
C1573 C1572 1.392 . S
C1573 H1585 0.929 . S
C1574 C1570 1.531 . S
C1574 H1586 0.960 . S
C1574 H1587 0.962 . S
C1574 H1588 0.960 . S
C1575 C1572 1.511 . S
C1575 H1589 0.961 . S
C1575 H1590 0.961 . S
C1575 H1591 0.961 . S
C1576 C1577 1.370 . S
C1576 C1578 1.363 . S
C1576 H1592 0.931 . S
C1577 C1576 1.370 . S
C1577 C1581 1.408 . S
C1578 C1576 1.363 . S
C1578 C1579 1.370 . S
C1578 C1582 1.524 . S
C1579 C1571 1.503 . S
C1579 C1578 1.370 . S
C1579 C1580 1.403 . S
C1580 C1579 1.403 . S
C1580 C1581 1.404 . S
C1580 C1583 1.539 . S
C1581 C1577 1.408 . S
C1581 C1580 1.404 . S
C1581 H1593 0.930 . S
C1582 C1578 1.524 . S
C1582 H1594 0.956 . S
C1582 H1595 0.961 . S
C1582 H1596 0.961 . S
C1583 C1580 1.539 . S
C1583 H1597 0.958 . S
C1583 H1598 0.961 . S
C1583 H1599 0.960 . S
H1584 C1568 0.931 . S
H1585 C1573 0.929 . S
H1586 C1574 0.960 . S
H1587 C1574 0.962 . S
H1588 C1574 0.960 . S
H1589 C1575 0.961 . S
H1590 C1575 0.961 . S
H1591 C1575 0.961 . S
H1592 C1576 0.931 . S
H1593 C1581 0.930 . S
H1594 C1582 0.956 . S
H1595 C1582 0.961 . S
H1596 C1582 0.961 . S
H1597 C1583 0.958 . S
H1598 C1583 0.961 . S
H1599 C1583 0.960 . S
C1600 C1601 1.391 . S
C1600 C1602 1.394 . S
C1600 H1616 0.931 . S
C1601 C1600 1.391 . S
C1601 C1605 1.376 . S
C1602 C1600 1.394 . S
C1602 C1603 1.369 . S
C1602 C1606 1.531 . S
C1603 C1602 1.369 . S
C1603 C1604 1.410 . S
C1603 C1611 1.503 . S
C1604 C1603 1.410 . S
C1604 C1605 1.392 . S
C1604 C1607 1.511 . S
C1605 C1601 1.376 . S
C1605 C1604 1.392 . S
C1605 H1617 0.929 . S
C1606 C1602 1.531 . S
C1606 H1618 0.960 . S
C1606 H1619 0.962 . S
C1606 H1620 0.960 . S
C1607 C1604 1.511 . S
C1607 H1621 0.961 . S
C1607 H1622 0.961 . S
C1607 H1623 0.961 . S
C1608 C1609 1.370 . S
C1608 C1610 1.363 . S
C1608 H1624 0.931 . S
C1609 C1608 1.370 . S
C1609 C1613 1.408 . S
C1610 C1608 1.363 . S
C1610 C1611 1.370 . S
C1610 C1614 1.524 . S
C1611 C1603 1.503 . S
C1611 C1610 1.370 . S
C1611 C1612 1.403 . S
C1612 C1611 1.403 . S
C1612 C1613 1.404 . S
C1612 C1615 1.539 . S
C1613 C1609 1.408 . S
C1613 C1612 1.404 . S
C1613 H1625 0.930 . S
C1614 C1610 1.524 . S
C1614 H1626 0.956 . S
C1614 H1627 0.961 . S
C1614 H1628 0.961 . S
C1615 C1612 1.539 . S
C1615 H1629 0.958 . S
C1615 H1630 0.961 . S
C1615 H1631 0.960 . S
H1616 C1600 0.931 . S
H1617 C1605 0.929 . S
H1618 C1606 0.960 . S
H1619 C1606 0.962 . S
H1620 C1606 0.960 . S
H1621 C1607 0.961 . S
H1622 C1607 0.961 . S
H1623 C1607 0.961 . S
H1624 C1608 0.931 . S
H1625 C1613 0.930 . S
H1626 C1614 0.956 . S
H1627 C1614 0.961 . S
H1628 C1614 0.961 . S
H1629 C1615 0.958 . S
H1630 C1615 0.961 . S
H1631 C1615 0.960 . S
C1632 C1633 1.391 . S
C1632 C1634 1.394 . S
C1632 H1648 0.931 . S
C1633 C1632 1.391 . S
C1633 C1637 1.376 . S
C1634 C1632 1.394 . S
C1634 C1635 1.369 . S
C1634 C1638 1.531 . S
C1635 C1634 1.369 . S
C1635 C1636 1.410 . S
C1635 C1643 1.503 . S
C1636 C1635 1.410 . S
C1636 C1637 1.392 . S
C1636 C1639 1.511 . S
C1637 C1633 1.376 . S
C1637 C1636 1.392 . S
C1637 H1649 0.929 . S
C1638 C1634 1.531 . S
C1638 H1650 0.960 . S
C1638 H1651 0.962 . S
C1638 H1652 0.960 . S
C1639 C1636 1.511 . S
C1639 H1653 0.961 . S
C1639 H1654 0.961 . S
C1639 H1655 0.961 . S
C1640 C1641 1.370 . S
C1640 C1642 1.363 . S
C1640 H1656 0.931 . S
C1641 C1640 1.370 . S
C1641 C1645 1.408 . S
C1642 C1640 1.363 . S
C1642 C1643 1.370 . S
C1642 C1646 1.524 . S
C1643 C1635 1.503 . S
C1643 C1642 1.370 . S
C1643 C1644 1.403 . S
C1644 C1643 1.403 . S
C1644 C1645 1.404 . S
C1644 C1647 1.539 . S
C1645 C1641 1.408 . S
C1645 C1644 1.404 . S
C1645 H1657 0.930 . S
C1646 C1642 1.524 . S
C1646 H1658 0.956 . S
C1646 H1659 0.961 . S
C1646 H1660 0.961 . S
C1647 C1644 1.539 . S
C1647 H1661 0.958 . S
C1647 H1662 0.961 . S
C1647 H1663 0.960 . S
H1648 C1632 0.931 . S
H1649 C1637 0.929 . S
H1650 C1638 0.960 . S
H1651 C1638 0.962 . S
H1652 C1638 0.960 . S
H1653 C1639 0.961 . S
H1654 C1639 0.961 . S
H1655 C1639 0.961 . S
H1656 C1640 0.931 . S
H1657 C1645 0.930 . S
H1658 C1646 0.956 . S
H1659 C1646 0.961 . S
H1660 C1646 0.961 . S
H1661 C1647 0.958 . S
H1662 C1647 0.961 . S
H1663 C1647 0.960 . S
C1664 C1665 1.391 . S
C1664 C1666 1.394 . S
C1664 H1680 0.931 . S
C1665 C1664 1.391 . S
C1665 C1669 1.376 . S
C1666 C1664 1.394 . S
C1666 C1667 1.369 . S
C1666 C1670 1.531 . S
C1667 C1666 1.369 . S
C1667 C1668 1.410 . S
C1667 C1675 1.503 . S
C1668 C1667 1.410 . S
C1668 C1669 1.392 . S
C1668 C1671 1.511 . S
C1669 C1665 1.376 . S
C1669 C1668 1.392 . S
C1669 H1681 0.929 . S
C1670 C1666 1.531 . S
C1670 H1682 0.960 . S
C1670 H1683 0.962 . S
C1670 H1684 0.960 . S
C1671 C1668 1.511 . S
C1671 H1685 0.961 . S
C1671 H1686 0.961 . S
C1671 H1687 0.961 . S
C1672 C1673 1.370 . S
C1672 C1674 1.363 . S
C1672 H1688 0.931 . S
C1673 C1672 1.370 . S
C1673 C1677 1.408 . S
C1674 C1672 1.363 . S
C1674 C1675 1.370 . S
C1674 C1678 1.524 . S
C1675 C1667 1.503 . S
C1675 C1674 1.370 . S
C1675 C1676 1.403 . S
C1676 C1675 1.403 . S
C1676 C1677 1.404 . S
C1676 C1679 1.539 . S
C1677 C1673 1.408 . S
C1677 C1676 1.404 . S
C1677 H1689 0.930 . S
C1678 C1674 1.524 . S
C1678 H1690 0.956 . S
C1678 H1691 0.961 . S
C1678 H1692 0.961 . S
C1679 C1676 1.539 . S
C1679 H1693 0.958 . S
C1679 H1694 0.961 . S
C1679 H1695 0.960 . S
H1680 C1664 0.931 . S
H1681 C1669 0.929 . S
H1682 C1670 0.960 . S
H1683 C1670 0.962 . S
H1684 C1670 0.960 . S
H1685 C1671 0.961 . S
H1686 C1671 0.961 . S
H1687 C1671 0.961 . S
H1688 C1672 0.931 . S
H1689 C1677 0.930 . S
H1690 C1678 0.956 . S
H1691 C1678 0.961 . S
H1692 C1678 0.961 . S
H1693 C1679 0.958 . S
H1694 C1679 0.961 . S
H1695 C1679 0.960 . S
C1696 C1697 1.391 . S
C1696 C1698 1.394 . S
C1696 H1712 0.931 . S
C1697 C1696 1.391 . S
C1697 C1701 1.376 . S
C1698 C1696 1.394 . S
C1698 C1699 1.369 . S
C1698 C1702 1.531 . S
C1699 C1698 1.369 . S
C1699 C1700 1.410 . S
C1699 C1707 1.503 . S
C1700 C1699 1.410 . S
C1700 C1701 1.392 . S
C1700 C1703 1.511 . S
C1701 C1697 1.376 . S
C1701 C1700 1.392 . S
C1701 H1713 0.929 . S
C1702 C1698 1.531 . S
C1702 H1714 0.960 . S
C1702 H1715 0.962 . S
C1702 H1716 0.960 . S
C1703 C1700 1.511 . S
C1703 H1717 0.961 . S
C1703 H1718 0.961 . S
C1703 H1719 0.961 . S
C1704 C1705 1.370 . S
C1704 C1706 1.363 . S
C1704 H1720 0.931 . S
C1705 C1704 1.370 . S
C1705 C1709 1.408 . S
C1706 C1704 1.363 . S
C1706 C1707 1.370 . S
C1706 C1710 1.524 . S
C1707 C1699 1.503 . S
C1707 C1706 1.370 . S
C1707 C1708 1.403 . S
C1708 C1707 1.403 . S
C1708 C1709 1.404 . S
C1708 C1711 1.539 . S
C1709 C1705 1.408 . S
C1709 C1708 1.404 . S
C1709 H1721 0.930 . S
C1710 C1706 1.524 . S
C1710 H1722 0.956 . S
C1710 H1723 0.961 . S
C1710 H1724 0.961 . S
C1711 C1708 1.539 . S
C1711 H1725 0.958 . S
C1711 H1726 0.961 . S
C1711 H1727 0.960 . S
H1712 C1696 0.931 . S
H1713 C1701 0.929 . S
H1714 C1702 0.960 . S
H1715 C1702 0.962 . S
H1716 C1702 0.960 . S
H1717 C1703 0.961 . S
H1718 C1703 0.961 . S
H1719 C1703 0.961 . S
H1720 C1704 0.931 . S
H1721 C1709 0.930 . S
H1722 C1710 0.956 . S
H1723 C1710 0.961 . S
H1724 C1710 0.961 . S
H1725 C1711 0.958 . S
H1726 C1711 0.961 . S
H1727 C1711 0.960 . S
C1728 C1729 1.391 . S
C1728 C1730 1.394 . S
C1728 H1744 0.931 . S
C1729 C1728 1.391 . S
C1729 C1733 1.376 . S
C1730 C1728 1.394 . S
C1730 C1731 1.369 . S
C1730 C1734 1.531 . S
C1731 C1730 1.369 . S
C1731 C1732 1.410 . S
C1731 C1739 1.503 . S
C1732 C1731 1.410 . S
C1732 C1733 1.392 . S
C1732 C1735 1.511 . S
C1733 C1729 1.376 . S
C1733 C1732 1.392 . S
C1733 H1745 0.929 . S
C1734 C1730 1.531 . S
C1734 H1746 0.960 . S
C1734 H1747 0.962 . S
C1734 H1748 0.960 . S
C1735 C1732 1.511 . S
C1735 H1749 0.961 . S
C1735 H1750 0.961 . S
C1735 H1751 0.961 . S
C1736 C1737 1.370 . S
C1736 C1738 1.363 . S
C1736 H1752 0.931 . S
C1737 C1736 1.370 . S
C1737 C1741 1.408 . S
C1738 C1736 1.363 . S
C1738 C1739 1.370 . S
C1738 C1742 1.524 . S
C1739 C1731 1.503 . S
C1739 C1738 1.370 . S
C1739 C1740 1.403 . S
C1740 C1739 1.403 . S
C1740 C1741 1.404 . S
C1740 C1743 1.539 . S
C1741 C1737 1.408 . S
C1741 C1740 1.404 . S
C1741 H1753 0.930 . S
C1742 C1738 1.524 . S
C1742 H1754 0.956 . S
C1742 H1755 0.961 . S
C1742 H1756 0.961 . S
C1743 C1740 1.539 . S
C1743 H1757 0.958 . S
C1743 H1758 0.961 . S
C1743 H1759 0.960 . S
H1744 C1728 0.931 . S
H1745 C1733 0.929 . S
H1746 C1734 0.960 . S
H1747 C1734 0.962 . S
H1748 C1734 0.960 . S
H1749 C1735 0.961 . S
H1750 C1735 0.961 . S
H1751 C1735 0.961 . S
H1752 C1736 0.931 . S
H1753 C1741 0.930 . S
H1754 C1742 0.956 . S
H1755 C1742 0.961 . S
H1756 C1742 0.961 . S
H1757 C1743 0.958 . S
H1758 C1743 0.961 . S
H1759 C1743 0.960 . S
C1760 C1761 1.391 . S
C1760 C1762 1.394 . S
C1760 H1776 0.931 . S
C1761 C1760 1.391 . S
C1761 C1765 1.376 . S
C1762 C1760 1.394 . S
C1762 C1763 1.369 . S
C1762 C1766 1.531 . S
C1763 C1762 1.369 . S
C1763 C1764 1.410 . S
C1763 C1771 1.503 . S
C1764 C1763 1.410 . S
C1764 C1765 1.392 . S
C1764 C1767 1.511 . S
C1765 C1761 1.376 . S
C1765 C1764 1.392 . S
C1765 H1777 0.929 . S
C1766 C1762 1.531 . S
C1766 H1778 0.960 . S
C1766 H1779 0.962 . S
C1766 H1780 0.960 . S
C1767 C1764 1.511 . S
C1767 H1781 0.961 . S
C1767 H1782 0.961 . S
C1767 H1783 0.961 . S
C1768 C1769 1.370 . S
C1768 C1770 1.363 . S
C1768 H1784 0.931 . S
C1769 C1768 1.370 . S
C1769 C1773 1.408 . S
C1770 C1768 1.363 . S
C1770 C1771 1.370 . S
C1770 C1774 1.524 . S
C1771 C1763 1.503 . S
C1771 C1770 1.370 . S
C1771 C1772 1.403 . S
C1772 C1771 1.403 . S
C1772 C1773 1.404 . S
C1772 C1775 1.539 . S
C1773 C1769 1.408 . S
C1773 C1772 1.404 . S
C1773 H1785 0.930 . S
C1774 C1770 1.524 . S
C1774 H1786 0.956 . S
C1774 H1787 0.961 . S
C1774 H1788 0.961 . S
C1775 C1772 1.539 . S
C1775 H1789 0.958 . S
C1775 H1790 0.961 . S
C1775 H1791 0.960 . S
H1776 C1760 0.931 . S
H1777 C1765 0.929 . S
H1778 C1766 0.960 . S
H1779 C1766 0.962 . S
H1780 C1766 0.960 . S
H1781 C1767 0.961 . S
H1782 C1767 0.961 . S
H1783 C1767 0.961 . S
H1784 C1768 0.931 . S
H1785 C1773 0.930 . S
H1786 C1774 0.956 . S
H1787 C1774 0.961 . S
H1788 C1774 0.961 . S
H1789 C1775 0.958 . S
H1790 C1775 0.961 . S
H1791 C1775 0.960 . S
C1792 C1793 1.391 . S
C1792 C1794 1.394 . S
C1792 H1808 0.931 . S
C1793 C1792 1.391 . S
C1793 C1797 1.376 . S
C1794 C1792 1.394 . S
C1794 C1795 1.369 . S
C1794 C1798 1.531 . S
C1795 C1794 1.369 . S
C1795 C1796 1.410 . S
C1795 C1803 1.503 . S
C1796 C1795 1.410 . S
C1796 C1797 1.392 . S
C1796 C1799 1.511 . S
C1797 C1793 1.376 . S
C1797 C1796 1.392 . S
C1797 H1809 0.929 . S
C1798 C1794 1.531 . S
C1798 H1810 0.960 . S
C1798 H1811 0.962 . S
C1798 H1812 0.960 . S
C1799 C1796 1.511 . S
C1799 H1813 0.961 . S
C1799 H1814 0.961 . S
C1799 H1815 0.961 . S
C1800 C1801 1.370 . S
C1800 C1802 1.363 . S
C1800 H1816 0.931 . S
C1801 C1800 1.370 . S
C1801 C1805 1.408 . S
C1802 C1800 1.363 . S
C1802 C1803 1.370 . S
C1802 C1806 1.524 . S
C1803 C1795 1.503 . S
C1803 C1802 1.370 . S
C1803 C1804 1.403 . S
C1804 C1803 1.403 . S
C1804 C1805 1.404 . S
C1804 C1807 1.539 . S
C1805 C1801 1.408 . S
C1805 C1804 1.404 . S
C1805 H1817 0.930 . S
C1806 C1802 1.524 . S
C1806 H1818 0.956 . S
C1806 H1819 0.961 . S
C1806 H1820 0.961 . S
C1807 C1804 1.539 . S
C1807 H1821 0.958 . S
C1807 H1822 0.961 . S
C1807 H1823 0.960 . S
H1808 C1792 0.931 . S
H1809 C1797 0.929 . S
H1810 C1798 0.960 . S
H1811 C1798 0.962 . S
H1812 C1798 0.960 . S
H1813 C1799 0.961 . S
H1814 C1799 0.961 . S
H1815 C1799 0.961 . S
H1816 C1800 0.931 . S
H1817 C1805 0.930 . S
H1818 C1806 0.956 . S
H1819 C1806 0.961 . S
H1820 C1806 0.961 . S
H1821 C1807 0.958 . S
H1822 C1807 0.961 . S
H1823 C1807 0.960 . S
C1824 C1825 1.391 . S
C1824 C1826 1.394 . S
C1824 H1840 0.931 . S
C1825 C1824 1.391 . S
C1825 C1829 1.376 . S
C1826 C1824 1.394 . S
C1826 C1827 1.369 . S
C1826 C1830 1.531 . S
C1827 C1826 1.369 . S
C1827 C1828 1.410 . S
C1827 C1835 1.503 . S
C1828 C1827 1.410 . S
C1828 C1829 1.392 . S
C1828 C1831 1.511 . S
C1829 C1825 1.376 . S
C1829 C1828 1.392 . S
C1829 H1841 0.929 . S
C1830 C1826 1.531 . S
C1830 H1842 0.960 . S
C1830 H1843 0.962 . S
C1830 H1844 0.960 . S
C1831 C1828 1.511 . S
C1831 H1845 0.961 . S
C1831 H1846 0.961 . S
C1831 H1847 0.961 . S
C1832 C1833 1.370 . S
C1832 C1834 1.363 . S
C1832 H1848 0.931 . S
C1833 C1832 1.370 . S
C1833 C1837 1.408 . S
C1834 C1832 1.363 . S
C1834 C1835 1.370 . S
C1834 C1838 1.524 . S
C1835 C1827 1.503 . S
C1835 C1834 1.370 . S
C1835 C1836 1.403 . S
C1836 C1835 1.403 . S
C1836 C1837 1.404 . S
C1836 C1839 1.539 . S
C1837 C1833 1.408 . S
C1837 C1836 1.404 . S
C1837 H1849 0.930 . S
C1838 C1834 1.524 . S
C1838 H1850 0.956 . S
C1838 H1851 0.961 . S
C1838 H1852 0.961 . S
C1839 C1836 1.539 . S
C1839 H1853 0.958 . S
C1839 H1854 0.961 . S
C1839 H1855 0.960 . S
H1840 C1824 0.931 . S
H1841 C1829 0.929 . S
H1842 C1830 0.960 . S
H1843 C1830 0.962 . S
H1844 C1830 0.960 . S
H1845 C1831 0.961 . S
H1846 C1831 0.961 . S
H1847 C1831 0.961 . S
H1848 C1832 0.931 . S
H1849 C1837 0.930 . S
H1850 C1838 0.956 . S
H1851 C1838 0.961 . S
H1852 C1838 0.961 . S
H1853 C1839 0.958 . S
H1854 C1839 0.961 . S
H1855 C1839 0.960 . S
C1856 C1857 1.391 . S
C1856 C1858 1.394 . S
C1856 H1872 0.931 . S
C1857 C1856 1.391 . S
C1857 C1861 1.376 . S
C1858 C1856 1.394 . S
C1858 C1859 1.369 . S
C1858 C1862 1.531 . S
C1859 C1858 1.369 . S
C1859 C1860 1.410 . S
C1859 C1867 1.503 . S
C1860 C1859 1.410 . S
C1860 C1861 1.392 . S
C1860 C1863 1.511 . S
C1861 C1857 1.376 . S
C1861 C1860 1.392 . S
C1861 H1873 0.929 . S
C1862 C1858 1.531 . S
C1862 H1874 0.960 . S
C1862 H1875 0.962 . S
C1862 H1876 0.960 . S
C1863 C1860 1.511 . S
C1863 H1877 0.961 . S
C1863 H1878 0.961 . S
C1863 H1879 0.961 . S
C1864 C1865 1.370 . S
C1864 C1866 1.363 . S
C1864 H1880 0.931 . S
C1865 C1864 1.370 . S
C1865 C1869 1.408 . S
C1866 C1864 1.363 . S
C1866 C1867 1.370 . S
C1866 C1870 1.524 . S
C1867 C1859 1.503 . S
C1867 C1866 1.370 . S
C1867 C1868 1.403 . S
C1868 C1867 1.403 . S
C1868 C1869 1.404 . S
C1868 C1871 1.539 . S
C1869 C1865 1.408 . S
C1869 C1868 1.404 . S
C1869 H1881 0.930 . S
C1870 C1866 1.524 . S
C1870 H1882 0.956 . S
C1870 H1883 0.961 . S
C1870 H1884 0.961 . S
C1871 C1868 1.539 . S
C1871 H1885 0.958 . S
C1871 H1886 0.961 . S
C1871 H1887 0.960 . S
H1872 C1856 0.931 . S
H1873 C1861 0.929 . S
H1874 C1862 0.960 . S
H1875 C1862 0.962 . S
H1876 C1862 0.960 . S
H1877 C1863 0.961 . S
H1878 C1863 0.961 . S
H1879 C1863 0.961 . S
H1880 C1864 0.931 . S
H1881 C1869 0.930 . S
H1882 C1870 0.956 . S
H1883 C1870 0.961 . S
H1884 C1870 0.961 . S
H1885 C1871 0.958 . S
H1886 C1871 0.961 . S
H1887 C1871 0.960 . S
C1888 C1889 1.391 . S
C1888 C1890 1.394 . S
C1888 H1904 0.931 . S
C1889 C1888 1.391 . S
C1889 C1893 1.376 . S
C1890 C1888 1.394 . S
C1890 C1891 1.369 . S
C1890 C1894 1.531 . S
C1891 C1890 1.369 . S
C1891 C1892 1.410 . S
C1891 C1899 1.503 . S
C1892 C1891 1.410 . S
C1892 C1893 1.392 . S
C1892 C1895 1.511 . S
C1893 C1889 1.376 . S
C1893 C1892 1.392 . S
C1893 H1905 0.929 . S
C1894 C1890 1.531 . S
C1894 H1906 0.960 . S
C1894 H1907 0.962 . S
C1894 H1908 0.960 . S
C1895 C1892 1.511 . S
C1895 H1909 0.961 . S
C1895 H1910 0.961 . S
C1895 H1911 0.961 . S
C1896 C1897 1.370 . S
C1896 C1898 1.363 . S
C1896 H1912 0.931 . S
C1897 C1896 1.370 . S
C1897 C1901 1.408 . S
C1898 C1896 1.363 . S
C1898 C1899 1.370 . S
C1898 C1902 1.524 . S
C1899 C1891 1.503 . S
C1899 C1898 1.370 . S
C1899 C1900 1.403 . S
C1900 C1899 1.403 . S
C1900 C1901 1.404 . S
C1900 C1903 1.539 . S
C1901 C1897 1.408 . S
C1901 C1900 1.404 . S
C1901 H1913 0.930 . S
C1902 C1898 1.524 . S
C1902 H1914 0.956 . S
C1902 H1915 0.961 . S
C1902 H1916 0.961 . S
C1903 C1900 1.539 . S
C1903 H1917 0.958 . S
C1903 H1918 0.961 . S
C1903 H1919 0.960 . S
H1904 C1888 0.931 . S
H1905 C1893 0.929 . S
H1906 C1894 0.960 . S
H1907 C1894 0.962 . S
H1908 C1894 0.960 . S
H1909 C1895 0.961 . S
H1910 C1895 0.961 . S
H1911 C1895 0.961 . S
H1912 C1896 0.931 . S
H1913 C1901 0.930 . S
H1914 C1902 0.956 . S
H1915 C1902 0.961 . S
H1916 C1902 0.961 . S
H1917 C1903 0.958 . S
H1918 C1903 0.961 . S
H1919 C1903 0.960 . S
C1920 C1921 1.391 . S
C1920 C1922 1.394 . S
C1920 H1936 0.931 . S
C1921 C1920 1.391 . S
C1921 C1925 1.376 . S
C1922 C1920 1.394 . S
C1922 C1923 1.369 . S
C1922 C1926 1.531 . S
C1923 C1922 1.369 . S
C1923 C1924 1.410 . S
C1923 C1931 1.503 . S
C1924 C1923 1.410 . S
C1924 C1925 1.392 . S
C1924 C1927 1.511 . S
C1925 C1921 1.376 . S
C1925 C1924 1.392 . S
C1925 H1937 0.929 . S
C1926 C1922 1.531 . S
C1926 H1938 0.960 . S
C1926 H1939 0.962 . S
C1926 H1940 0.960 . S
C1927 C1924 1.511 . S
C1927 H1941 0.961 . S
C1927 H1942 0.961 . S
C1927 H1943 0.961 . S
C1928 C1929 1.370 . S
C1928 C1930 1.363 . S
C1928 H1944 0.931 . S
C1929 C1928 1.370 . S
C1929 C1933 1.408 . S
C1930 C1928 1.363 . S
C1930 C1931 1.370 . S
C1930 C1934 1.524 . S
C1931 C1923 1.503 . S
C1931 C1930 1.370 . S
C1931 C1932 1.403 . S
C1932 C1931 1.403 . S
C1932 C1933 1.404 . S
C1932 C1935 1.539 . S
C1933 C1929 1.408 . S
C1933 C1932 1.404 . S
C1933 H1945 0.930 . S
C1934 C1930 1.524 . S
C1934 H1946 0.956 . S
C1934 H1947 0.961 . S
C1934 H1948 0.961 . S
C1935 C1932 1.539 . S
C1935 H1949 0.958 . S
C1935 H1950 0.961 . S
C1935 H1951 0.960 . S
H1936 C1920 0.931 . S
H1937 C1925 0.929 . S
H1938 C1926 0.960 . S
H1939 C1926 0.962 . S
H1940 C1926 0.960 . S
H1941 C1927 0.961 . S
H1942 C1927 0.961 . S
H1943 C1927 0.961 . S
H1944 C1928 0.931 . S
H1945 C1933 0.930 . S
H1946 C1934 0.956 . S
H1947 C1934 0.961 . S
H1948 C1934 0.961 . S
H1949 C1935 0.958 . S
H1950 C1935 0.961 . S
H1951 C1935 0.960 . S
C1952 C1953 1.391 . S
C1952 C1954 1.394 . S
C1952 H1968 0.931 . S
C1953 C1952 1.391 . S
C1953 C1957 1.376 . S
C1954 C1952 1.394 . S
C1954 C1955 1.369 . S
C1954 C1958 1.531 . S
C1955 C1954 1.369 . S
C1955 C1956 1.410 . S
C1955 C1963 1.503 . S
C1956 C1955 1.410 . S
C1956 C1957 1.392 . S
C1956 C1959 1.511 . S
C1957 C1953 1.376 . S
C1957 C1956 1.392 . S
C1957 H1969 0.929 . S
C1958 C1954 1.531 . S
C1958 H1970 0.960 . S
C1958 H1971 0.962 . S
C1958 H1972 0.960 . S
C1959 C1956 1.511 . S
C1959 H1973 0.961 . S
C1959 H1974 0.961 . S
C1959 H1975 0.961 . S
C1960 C1961 1.370 . S
C1960 C1962 1.363 . S
C1960 H1976 0.931 . S
C1961 C1960 1.370 . S
C1961 C1965 1.408 . S
C1962 C1960 1.363 . S
C1962 C1963 1.370 . S
C1962 C1966 1.524 . S
C1963 C1955 1.503 . S
C1963 C1962 1.370 . S
C1963 C1964 1.403 . S
C1964 C1963 1.403 . S
C1964 C1965 1.404 . S
C1964 C1967 1.539 . S
C1965 C1961 1.408 . S
C1965 C1964 1.404 . S
C1965 H1977 0.930 . S
C1966 C1962 1.524 . S
C1966 H1978 0.956 . S
C1966 H1979 0.961 . S
C1966 H1980 0.961 . S
C1967 C1964 1.539 . S
C1967 H1981 0.958 . S
C1967 H1982 0.961 . S
C1967 H1983 0.960 . S
H1968 C1952 0.931 . S
H1969 C1957 0.929 . S
H1970 C1958 0.960 . S
H1971 C1958 0.962 . S
H1972 C1958 0.960 . S
H1973 C1959 0.961 . S
H1974 C1959 0.961 . S
H1975 C1959 0.961 . S
H1976 C1960 0.931 . S
H1977 C1965 0.930 . S
H1978 C1966 0.956 . S
H1979 C1966 0.961 . S
H1980 C1966 0.961 . S
H1981 C1967 0.958 . S
H1982 C1967 0.961 . S
H1983 C1967 0.960 . S
C1984 C1985 1.391 . S
C1984 C1986 1.394 . S
C1984 H2000 0.931 . S
C1985 C1984 1.391 . S
C1985 C1989 1.376 . S
C1986 C1984 1.394 . S
C1986 C1987 1.369 . S
C1986 C1990 1.531 . S
C1987 C1986 1.369 . S
C1987 C1988 1.410 . S
C1987 C1995 1.503 . S
C1988 C1987 1.410 . S
C1988 C1989 1.392 . S
C1988 C1991 1.511 . S
C1989 C1985 1.376 . S
C1989 C1988 1.392 . S
C1989 H2001 0.929 . S
C1990 C1986 1.531 . S
C1990 H2002 0.960 . S
C1990 H2003 0.962 . S
C1990 H2004 0.960 . S
C1991 C1988 1.511 . S
C1991 H2005 0.961 . S
C1991 H2006 0.961 . S
C1991 H2007 0.961 . S
C1992 C1993 1.370 . S
C1992 C1994 1.363 . S
C1992 H2008 0.931 . S
C1993 C1992 1.370 . S
C1993 C1997 1.408 . S
C1994 C1992 1.363 . S
C1994 C1995 1.370 . S
C1994 C1998 1.524 . S
C1995 C1987 1.503 . S
C1995 C1994 1.370 . S
C1995 C1996 1.403 . S
C1996 C1995 1.403 . S
C1996 C1997 1.404 . S
C1996 C1999 1.539 . S
C1997 C1993 1.408 . S
C1997 C1996 1.404 . S
C1997 H2009 0.930 . S
C1998 C1994 1.524 . S
C1998 H2010 0.956 . S
C1998 H2011 0.961 . S
C1998 H2012 0.961 . S
C1999 C1996 1.539 . S
C1999 H2013 0.958 . S
C1999 H2014 0.961 . S
C1999 H2015 0.960 . S
H2000 C1984 0.931 . S
H2001 C1989 0.929 . S
H2002 C1990 0.960 . S
H2003 C1990 0.962 . S
H2004 C1990 0.960 . S
H2005 C1991 0.961 . S
H2006 C1991 0.961 . S
H2007 C1991 0.961 . S
H2008 C1992 0.931 . S
H2009 C1997 0.930 . S
H2010 C1998 0.956 . S
H2011 C1998 0.961 . S
H2012 C1998 0.961 . S
H2013 C1999 0.958 . S
H2014 C1999 0.961 . S
H2015 C1999 0.960 . S
C2016 C2017 1.391 . S
C2016 C2018 1.394 . S
C2016 H2032 0.904 1_565 S
C2017 C2016 1.391 . S
C2017 C2021 1.376 . S
C2018 C2016 1.394 . S
C2018 C2019 1.369 . S
C2018 C2022 1.531 . S
C2019 C2018 1.369 . S
C2019 C2020 1.410 . S
C2019 C2027 1.503 . S
C2020 C2019 1.410 . S
C2020 C2021 1.392 . S
C2020 C2023 1.511 . S
C2021 C2017 1.376 . S
C2021 C2020 1.392 . S
C2021 H2033 0.929 . S
C2022 C2018 1.531 . S
C2022 H2034 0.960 . S
C2022 H2035 0.962 . S
C2022 H2036 0.960 . S
C2023 C2020 1.511 . S
C2023 H2037 0.961 . S
C2023 H2038 0.961 . S
C2023 H2039 0.961 . S
C2024 C2025 1.370 . S
C2024 C2026 1.363 . S
C2024 H2040 0.931 . S
C2025 C2024 1.370 . S
C2025 C2029 1.408 . S
C2026 C2024 1.363 . S
C2026 C2027 1.370 . S
C2026 C2030 1.524 . S
C2027 C2019 1.503 . S
C2027 C2026 1.370 . S
C2027 C2028 1.403 . S
C2028 C2027 1.403 . S
C2028 C2029 1.404 . S
C2028 C2031 1.539 . S
C2029 C2025 1.408 . S
C2029 C2028 1.404 . S
C2029 H2041 0.930 . S
C2030 C2026 1.524 . S
C2030 H2042 0.956 . S
C2030 H2043 0.961 . S
C2030 H2044 0.961 . S
C2031 C2028 1.539 . S
C2031 H2045 0.958 . S
C2031 H2046 0.961 . S
C2031 H2047 0.960 . S
H2032 C2016 0.904 1_545 S
H2033 C2021 0.929 . S
H2034 C2022 0.960 . S
H2035 C2022 0.962 . S
H2036 C2022 0.960 . S
H2037 C2023 0.961 . S
H2038 C2023 0.961 . S
H2039 C2023 0.961 . S
H2040 C2024 0.931 . S
H2041 C2029 0.930 . S
H2042 C2030 0.956 . S
H2043 C2030 0.961 . S
H2044 C2030 0.961 . S
H2045 C2031 0.958 . S
H2046 C2031 0.961 . S
H2047 C2031 0.960 . S
C2048 C2049 1.391 . S
C2048 C2050 1.394 . S
C2048 H2064 0.931 . S
C2049 C2048 1.391 . S
C2049 C2053 1.376 . S
C2050 C2048 1.394 . S
C2050 C2051 1.369 . S
C2050 C2054 1.531 . S
C2051 C2050 1.369 . S
C2051 C2052 1.410 . S
C2051 C2059 1.503 . S
C2052 C2051 1.410 . S
C2052 C2053 1.392 . S
C2052 C2055 1.511 . S
C2053 C2049 1.376 . S
C2053 C2052 1.392 . S
C2053 H2065 0.929 . S
C2054 C2050 1.531 . S
C2054 H2066 0.960 . S
C2054 H2067 0.962 . S
C2054 H2068 0.960 . S
C2055 C2052 1.511 . S
C2055 H2069 0.961 . S
C2055 H2070 0.961 . S
C2055 H2071 0.961 . S
C2056 C2057 1.370 . S
C2056 C2058 1.363 . S
C2056 H2072 0.931 . S
C2057 C2056 1.370 . S
C2057 C2061 1.408 . S
C2058 C2056 1.363 . S
C2058 C2059 1.370 . S
C2058 C2062 1.524 . S
C2059 C2051 1.503 . S
C2059 C2058 1.370 . S
C2059 C2060 1.403 . S
C2060 C2059 1.403 . S
C2060 C2061 1.404 . S
C2060 C2063 1.539 . S
C2061 C2057 1.408 . S
C2061 C2060 1.404 . S
C2061 H2073 0.930 1_455 S
C2062 C2058 1.524 . S
C2062 H2074 0.956 . S
C2062 H2075 0.961 . S
C2062 H2076 0.961 . S
C2063 C2060 1.539 . S
C2063 H2077 0.958 . S
C2063 H2078 0.961 1_455 S
C2063 H2079 0.960 . S
H2064 C2048 0.931 . S
H2065 C2053 0.929 . S
H2066 C2054 0.960 . S
H2067 C2054 0.962 . S
H2068 C2054 0.960 . S
H2069 C2055 0.961 . S
H2070 C2055 0.961 . S
H2071 C2055 0.961 . S
H2072 C2056 0.931 . S
H2073 C2061 0.930 1_655 S
H2074 C2062 0.956 . S
H2075 C2062 0.961 . S
H2076 C2062 0.961 . S
H2077 C2063 0.958 . S
H2078 C2063 0.961 1_655 S
H2079 C2063 0.960 . S
C2080 C2081 1.391 . S
C2080 C2082 1.394 . S
C2080 H2096 0.931 . S
C2081 C2080 1.391 . S
C2081 C2085 1.376 . S
C2082 C2080 1.394 . S
C2082 C2083 1.369 . S
C2082 C2086 1.531 . S
C2083 C2082 1.369 . S
C2083 C2084 1.410 . S
C2083 C2091 1.503 . S
C2084 C2083 1.410 . S
C2084 C2085 1.392 . S
C2084 C2087 1.511 . S
C2085 C2081 1.376 . S
C2085 C2084 1.392 . S
C2085 H2097 0.929 . S
C2086 C2082 1.531 . S
C2086 H2098 0.960 . S
C2086 H2099 0.962 . S
C2086 H2100 0.960 . S
C2087 C2084 1.511 . S
C2087 H2101 0.961 . S
C2087 H2102 0.961 . S
C2087 H2103 0.961 . S
C2088 C2089 1.370 . S
C2088 C2090 1.363 . S
C2088 H2104 0.931 . S
C2089 C2088 1.370 . S
C2089 C2093 1.408 . S
C2090 C2088 1.363 . S
C2090 C2091 1.370 . S
C2090 C2094 1.524 . S
C2091 C2083 1.503 . S
C2091 C2090 1.370 . S
C2091 C2092 1.403 . S
C2092 C2091 1.403 . S
C2092 C2093 1.404 . S
C2092 C2095 1.539 . S
C2093 C2089 1.408 . S
C2093 C2092 1.404 . S
C2093 H2105 0.930 . S
C2094 C2090 1.524 . S
C2094 H2106 0.956 . S
C2094 H2107 0.961 . S
C2094 H2108 0.961 . S
C2095 C2092 1.539 . S
C2095 H2109 0.958 . S
C2095 H2110 0.961 . S
C2095 H2111 0.960 . S
H2096 C2080 0.931 . S
H2097 C2085 0.929 . S
H2098 C2086 0.960 . S
H2099 C2086 0.962 . S
H2100 C2086 0.960 . S
H2101 C2087 0.961 . S
H2102 C2087 0.961 . S
H2103 C2087 0.961 . S
H2104 C2088 0.931 . S
H2105 C2093 0.930 . S
H2106 C2094 0.956 . S
H2107 C2094 0.961 . S
H2108 C2094 0.961 . S
H2109 C2095 0.958 . S
H2110 C2095 0.961 . S
H2111 C2095 0.960 . S
C2112 C2113 1.391 . S
C2112 C2114 1.394 . S
C2112 H2128 0.931 . S
C2113 C2112 1.391 . S
C2113 C2117 1.376 . S
C2114 C2112 1.394 . S
C2114 C2115 1.369 . S
C2114 C2118 1.531 . S
C2115 C2114 1.369 . S
C2115 C2116 1.410 . S
C2115 C2123 1.503 . S
C2116 C2115 1.410 . S
C2116 C2117 1.392 . S
C2116 C2119 1.511 . S
C2117 C2113 1.376 . S
C2117 C2116 1.392 . S
C2117 H2129 0.929 . S
C2118 C2114 1.531 . S
C2118 H2130 0.960 . S
C2118 H2131 0.962 . S
C2118 H2132 0.960 . S
C2119 C2116 1.511 . S
C2119 H2133 0.961 . S
C2119 H2134 0.961 . S
C2119 H2135 0.961 . S
C2120 C2121 1.370 . S
C2120 C2122 1.363 . S
C2120 H2136 0.931 . S
C2121 C2120 1.370 . S
C2121 C2125 1.408 . S
C2122 C2120 1.363 . S
C2122 C2123 1.370 . S
C2122 C2126 1.524 . S
C2123 C2115 1.503 . S
C2123 C2122 1.370 . S
C2123 C2124 1.403 . S
C2124 C2123 1.403 . S
C2124 C2125 1.404 . S
C2124 C2127 1.539 . S
C2125 C2121 1.408 . S
C2125 C2124 1.404 . S
C2125 H2137 0.930 . S
C2126 C2122 1.524 . S
C2126 H2138 0.956 . S
C2126 H2139 0.961 . S
C2126 H2140 0.961 . S
C2127 C2124 1.539 . S
C2127 H2141 0.958 . S
C2127 H2142 0.961 . S
C2127 H2143 0.960 . S
H2128 C2112 0.931 . S
H2129 C2117 0.929 . S
H2130 C2118 0.960 . S
H2131 C2118 0.962 . S
H2132 C2118 0.960 . S
H2133 C2119 0.961 . S
H2134 C2119 0.961 . S
H2135 C2119 0.961 . S
H2136 C2120 0.931 . S
H2137 C2125 0.930 . S
H2138 C2126 0.956 . S
H2139 C2126 0.961 . S
H2140 C2126 0.961 . S
H2141 C2127 0.958 . S
H2142 C2127 0.961 . S
H2143 C2127 0.960 . S
C2144 C2145 1.391 . S
C2144 C2146 1.394 . S
C2144 H2160 0.931 . S
C2145 C2144 1.391 . S
C2145 C2149 1.376 . S
C2146 C2144 1.394 . S
C2146 C2147 1.369 . S
C2146 C2150 1.531 . S
C2147 C2146 1.369 . S
C2147 C2148 1.410 . S
C2147 C2155 1.503 . S
C2148 C2147 1.410 . S
C2148 C2149 1.392 . S
C2148 C2151 1.511 . S
C2149 C2145 1.376 . S
C2149 C2148 1.392 . S
C2149 H2161 0.929 . S
C2150 C2146 1.531 . S
C2150 H2162 0.960 . S
C2150 H2163 0.962 . S
C2150 H2164 0.960 . S
C2151 C2148 1.511 . S
C2151 H2165 0.961 . S
C2151 H2166 0.961 . S
C2151 H2167 0.961 . S
C2152 C2153 1.370 . S
C2152 C2154 1.363 . S
C2152 H2168 0.931 . S
C2153 C2152 1.370 . S
C2153 C2157 1.408 . S
C2154 C2152 1.363 . S
C2154 C2155 1.370 . S
C2154 C2158 1.524 . S
C2155 C2147 1.503 . S
C2155 C2154 1.370 . S
C2155 C2156 1.403 . S
C2156 C2155 1.403 . S
C2156 C2157 1.404 . S
C2156 C2159 1.539 . S
C2157 C2153 1.408 . S
C2157 C2156 1.404 . S
C2157 H2169 0.930 . S
C2158 C2154 1.524 . S
C2158 H2170 0.956 . S
C2158 H2171 0.961 . S
C2158 H2172 0.961 . S
C2159 C2156 1.539 . S
C2159 H2173 0.958 . S
C2159 H2174 0.961 . S
C2159 H2175 0.960 . S
H2160 C2144 0.931 . S
H2161 C2149 0.929 . S
H2162 C2150 0.960 . S
H2163 C2150 0.962 . S
H2164 C2150 0.960 . S
H2165 C2151 0.961 . S
H2166 C2151 0.961 . S
H2167 C2151 0.961 . S
H2168 C2152 0.931 . S
H2169 C2157 0.930 . S
H2170 C2158 0.956 . S
H2171 C2158 0.961 . S
H2172 C2158 0.961 . S
H2173 C2159 0.958 . S
H2174 C2159 0.961 . S
H2175 C2159 0.960 . S
C2176 C2177 1.391 . S
C2176 C2178 1.394 . S
C2176 H2192 0.931 . S
C2177 C2176 1.391 . S
C2177 C2181 1.376 1_655 S
C2178 C2176 1.394 . S
C2178 C2179 1.369 1_655 S
C2178 C2182 1.531 . S
C2179 C2178 1.369 1_455 S
C2179 C2180 1.410 . S
C2179 C2187 1.503 . S
C2180 C2179 1.410 . S
C2180 C2181 1.392 . S
C2180 C2183 1.511 . S
C2181 C2177 1.376 1_455 S
C2181 C2180 1.392 . S
C2181 H2193 0.929 . S
C2182 C2178 1.531 . S
C2182 H2194 0.960 . S
C2182 H2195 0.962 . S
C2182 H2196 0.960 . S
C2183 C2180 1.511 . S
C2183 H2197 0.961 . S
C2183 H2198 0.961 . S
C2183 H2199 0.961 . S
C2184 C2185 1.370 1_655 S
C2184 C2186 1.363 . S
C2184 H2200 0.931 . S
C2185 C2184 1.370 1_455 S
C2185 C2189 1.408 . S
C2186 C2184 1.363 . S
C2186 C2187 1.370 1_655 S
C2186 C2190 1.524 . S
C2187 C2179 1.503 . S
C2187 C2186 1.370 1_455 S
C2187 C2188 1.403 . S
C2188 C2187 1.403 . S
C2188 C2189 1.404 . S
C2188 C2191 1.539 . S
C2189 C2185 1.408 . S
C2189 C2188 1.404 . S
C2189 H2201 0.930 . S
C2190 C2186 1.524 . S
C2190 H2202 0.956 . S
C2190 H2203 0.961 . S
C2190 H2204 0.961 . S
C2191 C2188 1.539 . S
C2191 H2205 0.958 . S
C2191 H2206 0.961 . S
C2191 H2207 0.960 . S
H2192 C2176 0.931 . S
H2193 C2181 0.929 . S
H2194 C2182 0.960 . S
H2195 C2182 0.962 . S
H2196 C2182 0.960 . S
H2197 C2183 0.961 . S
H2198 C2183 0.961 . S
H2199 C2183 0.961 . S
H2200 C2184 0.931 . S
H2201 C2189 0.930 . S
H2202 C2190 0.956 . S
H2203 C2190 0.961 . S
H2204 C2190 0.961 . S
H2205 C2191 0.958 . S
H2206 C2191 0.961 . S
H2207 C2191 0.960 . S
C2208 C2209 1.391 . S
C2208 C2210 1.394 . S
C2208 H2224 0.931 . S
C2209 C2208 1.391 . S
C2209 C2213 1.376 1_545 S
C2210 C2208 1.394 . S
C2210 C2211 1.369 . S
C2210 C2214 1.531 . S
C2211 C2210 1.369 . S
C2211 C2212 1.410 1_545 S
C2211 C2219 1.503 . S
C2212 C2211 1.410 1_565 S
C2212 C2213 1.392 . S
C2212 C2215 1.511 . S
C2213 C2209 1.376 1_565 S
C2213 C2212 1.392 . S
C2213 H2225 0.929 . S
C2214 C2210 1.531 . S
C2214 H2226 0.960 . S
C2214 H2227 0.962 . S
C2214 H2228 0.960 . S
C2215 C2212 1.511 . S
C2215 H2229 0.961 . S
C2215 H2230 0.961 . S
C2215 H2231 0.961 . S
C2216 C2217 1.370 . S
C2216 C2218 1.363 . S
C2216 H2232 0.931 . S
C2217 C2216 1.370 . S
C2217 C2221 1.408 1_565 S
C2218 C2216 1.363 . S
C2218 C2219 1.370 1_565 S
C2218 C2222 1.524 . S
C2219 C2211 1.503 . S
C2219 C2218 1.370 1_545 S
C2219 C2220 1.403 . S
C2220 C2219 1.403 . S
C2220 C2221 1.404 . S
C2220 C2223 1.539 . S
C2221 C2217 1.408 1_545 S
C2221 C2220 1.404 . S
C2221 H2233 0.930 . S
C2222 C2218 1.524 . S
C2222 H2234 0.956 . S
C2222 H2235 0.961 . S
C2222 H2236 0.961 . S
C2223 C2220 1.539 . S
C2223 H2237 0.958 . S
C2223 H2238 0.961 . S
C2223 H2239 0.960 . S
H2224 C2208 0.931 . S
H2225 C2213 0.929 . S
H2226 C2214 0.960 . S
H2227 C2214 0.962 . S
H2228 C2214 0.960 . S
H2229 C2215 0.961 . S
H2230 C2215 0.961 . S
H2231 C2215 0.961 . S
H2232 C2216 0.931 . S
H2233 C2221 0.930 . S
H2234 C2222 0.956 . S
H2235 C2222 0.961 . S
H2236 C2222 0.961 . S
H2237 C2223 0.958 . S
H2238 C2223 0.961 . S
H2239 C2223 0.960 . S
C2240 C2241 1.391 1_455 S
C2240 C2242 1.394 . S
C2240 H2256 0.931 . S
C2241 C2240 1.391 1_655 S
C2241 C2245 1.376 . S
C2242 C2240 1.394 . S
C2242 C2243 1.369 1_455 S
C2242 C2246 1.531 . S
C2243 C2242 1.369 1_655 S
C2243 C2244 1.410 . S
C2243 C2251 1.503 . S
C2244 C2243 1.410 . S
C2244 C2245 1.392 . S
C2244 C2247 1.511 . S
C2245 C2241 1.376 . S
C2245 C2244 1.392 . S
C2245 H2257 0.929 . S
C2246 C2242 1.531 . S
C2246 H2258 0.960 . S
C2246 H2259 0.962 . S
C2246 H2260 0.960 . S
C2247 C2244 1.511 . S
C2247 H2261 0.961 . S
C2247 H2262 0.961 . S
C2247 H2263 0.961 . S
C2248 C2249 1.370 . S
C2248 C2250 1.363 . S
C2248 H2264 0.931 . S
C2249 C2248 1.370 . S
C2249 C2253 1.408 1_455 S
C2250 C2248 1.363 . S
C2250 C2251 1.370 1_455 S
C2250 C2254 1.524 . S
C2251 C2243 1.503 . S
C2251 C2250 1.370 1_655 S
C2251 C2252 1.403 . S
C2252 C2251 1.403 . S
C2252 C2253 1.404 . S
C2252 C2255 1.539 . S
C2253 C2249 1.408 1_655 S
C2253 C2252 1.404 . S
C2253 H2265 0.930 . S
C2254 C2250 1.524 . S
C2254 H2266 0.956 . S
C2254 H2267 0.961 . S
C2254 H2268 0.961 . S
C2255 C2252 1.539 . S
C2255 H2269 0.958 . S
C2255 H2270 0.961 . S
C2255 H2271 0.960 . S
H2256 C2240 0.931 . S
H2257 C2245 0.929 . S
H2258 C2246 0.960 . S
H2259 C2246 0.962 . S
H2260 C2246 0.960 . S
H2261 C2247 0.961 . S
H2262 C2247 0.961 . S
H2263 C2247 0.961 . S
H2264 C2248 0.931 . S
H2265 C2253 0.930 . S
H2266 C2254 0.956 . S
H2267 C2254 0.961 . S
H2268 C2254 0.961 . S
H2269 C2255 0.958 . S
H2270 C2255 0.961 . S
H2271 C2255 0.960 . S
C2272 C2273 1.391 . S
C2272 C2274 1.394 . S
C2272 H2288 0.931 . S
C2273 C2272 1.391 . S
C2273 C2277 1.376 1_565 S
C2274 C2272 1.394 . S
C2274 C2275 1.369 1_565 S
C2274 C2278 1.531 . S
C2275 C2274 1.369 1_545 S
C2275 C2276 1.410 . S
C2275 C2283 1.503 . S
C2276 C2275 1.410 . S
C2276 C2277 1.392 . S
C2276 C2279 1.511 . S
C2277 C2273 1.376 1_545 S
C2277 C2276 1.392 . S
C2277 H2289 0.929 . S
C2278 C2274 1.531 . S
C2278 H2290 0.960 . S
C2278 H2291 0.962 . S
C2278 H2292 0.960 . S
C2279 C2276 1.511 . S
C2279 H2293 0.961 . S
C2279 H2294 0.961 . S
C2279 H2295 0.961 . S
C2280 C2281 1.370 1_565 S
C2280 C2282 1.363 . S
C2280 H2296 0.931 . S
C2281 C2280 1.370 1_545 S
C2281 C2285 1.408 . S
C2282 C2280 1.363 . S
C2282 C2283 1.370 1_565 S
C2282 C2286 1.524 . S
C2283 C2275 1.503 . S
C2283 C2282 1.370 1_545 S
C2283 C2284 1.403 . S
C2284 C2283 1.403 . S
C2284 C2285 1.404 . S
C2284 C2287 1.539 . S
C2285 C2281 1.408 . S
C2285 C2284 1.404 . S
C2285 H2297 0.930 . S
C2286 C2282 1.524 . S
C2286 H2298 0.956 . S
C2286 H2299 0.961 . S
C2286 H2300 0.961 . S
C2287 C2284 1.539 . S
C2287 H2301 0.958 . S
C2287 H2302 0.961 . S
C2287 H2303 0.960 . S
H2288 C2272 0.931 . S
H2289 C2277 0.929 . S
H2290 C2278 0.960 . S
H2291 C2278 0.962 . S
H2292 C2278 0.960 . S
H2293 C2279 0.961 . S
H2294 C2279 0.961 . S
H2295 C2279 0.961 . S
H2296 C2280 0.931 . S
H2297 C2285 0.930 . S
H2298 C2286 0.956 . S
H2299 C2286 0.961 . S
H2300 C2286 0.961 . S
H2301 C2287 0.958 . S
H2302 C2287 0.961 . S
H2303 C2287 0.960 . S
C2304 C2305 1.391 . S
C2304 C2306 1.394 . S
C2304 H2320 0.931 . S
C2305 C2304 1.391 . S
C2305 C2309 1.376 . S
C2306 C2304 1.394 . S
C2306 C2307 1.369 . S
C2306 C2310 1.531 . S
C2307 C2306 1.369 . S
C2307 C2308 1.410 . S
C2307 C2315 1.503 1_556 S
C2308 C2307 1.410 . S
C2308 C2309 1.392 . S
C2308 C2311 1.511 . S
C2309 C2305 1.376 . S
C2309 C2308 1.392 . S
C2309 H2321 0.929 . S
C2310 C2306 1.531 . S
C2310 H2322 0.963 1_556 S
C2310 H2323 0.962 . S
C2310 H2324 0.960 . S
C2311 C2308 1.511 . S
C2311 H2325 0.961 . S
C2311 H2326 0.961 1_556 S
C2311 H2327 0.961 . S
C2312 C2313 1.370 . S
C2312 C2314 1.363 . S
C2312 H2328 0.931 . S
C2313 C2312 1.370 . S
C2313 C2317 1.408 . S
C2314 C2312 1.363 . S
C2314 C2315 1.370 . S
C2314 C2318 1.524 . S
C2315 C2307 1.503 1_554 S
C2315 C2314 1.370 . S
C2315 C2316 1.403 . S
C2316 C2315 1.403 . S
C2316 C2317 1.404 . S
C2316 C2319 1.539 . S
C2317 C2313 1.408 . S
C2317 C2316 1.404 . S
C2317 H2329 0.930 . S
C2318 C2314 1.524 . S
C2318 H2330 0.974 . S
C2318 H2331 0.948 1_554 S
C2318 H2332 0.961 . S
C2319 C2316 1.539 . S
C2319 H2333 0.958 . S
C2319 H2334 0.961 . S
C2319 H2335 0.972 . S
H2320 C2304 0.931 . S
H2321 C2309 0.929 . S
H2322 C2310 0.963 1_554 S
H2323 C2310 0.962 . S
H2324 C2310 0.960 . S
H2325 C2311 0.961 . S
H2326 C2311 0.961 1_554 S
H2327 C2311 0.961 . S
H2328 C2312 0.931 . S
H2329 C2317 0.930 . S
H2330 C2318 0.974 . S
H2331 C2318 0.948 1_556 S
H2332 C2318 0.961 . S
H2333 C2319 0.958 . S
H2334 C2319 0.961 . S
H2335 C2319 0.972 . S
C2336 C2337 1.391 . S
C2336 C2338 1.394 . S
C2336 H2352 0.931 . S
C2337 C2336 1.391 . S
C2337 C2341 1.376 . S
C2338 C2336 1.394 . S
C2338 C2339 1.369 . S
C2338 C2342 1.531 . S
C2339 C2338 1.369 . S
C2339 C2340 1.410 . S
C2339 C2347 1.503 1_556 S
C2340 C2339 1.410 . S
C2340 C2341 1.392 . S
C2340 C2343 1.511 . S
C2341 C2337 1.376 . S
C2341 C2340 1.392 . S
C2341 H2353 0.929 . S
C2342 C2338 1.531 . S
C2342 H2354 0.960 1_556 S
C2342 H2355 0.962 . S
C2342 H2356 0.960 . S
C2343 C2340 1.511 . S
C2343 H2357 0.961 . S
C2343 H2358 0.961 1_556 S
C2343 H2359 0.961 . S
C2344 C2345 1.370 . S
C2344 C2346 1.363 . S
C2344 H2360 0.931 . S
C2345 C2344 1.370 . S
C2345 C2349 1.408 . S
C2346 C2344 1.363 . S
C2346 C2347 1.370 . S
C2346 C2350 1.524 . S
C2347 C2339 1.503 1_554 S
C2347 C2346 1.370 . S
C2347 C2348 1.403 . S
C2348 C2347 1.403 . S
C2348 C2349 1.404 . S
C2348 C2351 1.539 . S
C2349 C2345 1.408 . S
C2349 C2348 1.404 . S
C2349 H2361 0.930 . S
C2350 C2346 1.524 . S
C2350 H2362 0.946 1_554 S
C2350 H2363 0.961 1_554 S
C2350 H2364 0.961 . S
C2351 C2348 1.539 . S
C2351 H2365 0.958 . S
C2351 H2366 0.961 . S
C2351 H2367 0.960 . S
H2352 C2336 0.931 . S
H2353 C2341 0.929 . S
H2354 C2342 0.960 1_554 S
H2355 C2342 0.962 . S
H2356 C2342 0.960 . S
H2357 C2343 0.961 . S
H2358 C2343 0.961 1_554 S
H2359 C2343 0.961 . S
H2360 C2344 0.931 . S
H2361 C2349 0.930 . S
H2362 C2350 0.946 1_556 S
H2363 C2350 0.961 1_556 S
H2364 C2350 0.961 . S
H2365 C2351 0.958 . S
H2366 C2351 0.961 . S
H2367 C2351 0.960 . S
C2368 C2369 1.391 . S
C2368 C2370 1.394 . S
C2368 H2384 0.931 . S
C2369 C2368 1.391 . S
C2369 C2373 1.376 . S
C2370 C2368 1.394 . S
C2370 C2371 1.369 . S
C2370 C2374 1.531 . S
C2371 C2370 1.369 . S
C2371 C2372 1.410 . S
C2371 C2379 1.503 1_554 S
C2372 C2371 1.410 . S
C2372 C2373 1.392 . S
C2372 C2375 1.511 . S
C2373 C2369 1.376 . S
C2373 C2372 1.392 . S
C2373 H2385 0.929 . S
C2374 C2370 1.531 . S
C2374 H2386 0.960 1_554 S
C2374 H2387 0.962 . S
C2374 H2388 0.960 . S
C2375 C2372 1.511 . S
C2375 H2389 0.961 . S
C2375 H2390 0.961 1_554 S
C2375 H2391 0.961 . S
C2376 C2377 1.370 . S
C2376 C2378 1.363 . S
C2376 H2392 0.931 . S
C2377 C2376 1.370 . S
C2377 C2381 1.408 . S
C2378 C2376 1.363 . S
C2378 C2379 1.370 . S
C2378 C2382 1.524 . S
C2379 C2371 1.503 1_556 S
C2379 C2378 1.370 . S
C2379 C2380 1.403 . S
C2380 C2379 1.403 . S
C2380 C2381 1.404 . S
C2380 C2383 1.539 . S
C2381 C2377 1.408 . S
C2381 C2380 1.404 . S
C2381 H2393 0.930 . S
C2382 C2378 1.524 . S
C2382 H2394 0.934 1_556 S
C2382 H2395 0.961 1_556 S
C2382 H2396 0.961 . S
C2383 C2380 1.539 . S
C2383 H2397 0.958 . S
C2383 H2398 0.961 . S
C2383 H2399 0.960 . S
H2384 C2368 0.931 . S
H2385 C2373 0.929 . S
H2386 C2374 0.960 1_556 S
H2387 C2374 0.962 . S
H2388 C2374 0.960 . S
H2389 C2375 0.961 . S
H2390 C2375 0.961 1_556 S
H2391 C2375 0.961 . S
H2392 C2376 0.931 . S
H2393 C2381 0.930 . S
H2394 C2382 0.934 1_554 S
H2395 C2382 0.961 1_554 S
H2396 C2382 0.961 . S
H2397 C2383 0.958 . S
H2398 C2383 0.961 . S
H2399 C2383 0.960 . S
C2400 C2401 1.391 . S
C2400 C2402 1.394 . S
C2400 H2416 0.931 . S
C2401 C2400 1.391 . S
C2401 C2405 1.376 . S
C2402 C2400 1.394 . S
C2402 C2403 1.369 . S
C2402 C2406 1.531 . S
C2403 C2402 1.369 . S
C2403 C2404 1.410 . S
C2403 C2411 1.503 1_556 S
C2404 C2403 1.410 . S
C2404 C2405 1.392 . S
C2404 C2407 1.511 . S
C2405 C2401 1.376 . S
C2405 C2404 1.392 . S
C2405 H2417 0.929 . S
C2406 C2402 1.531 . S
C2406 H2418 0.960 1_556 S
C2406 H2419 0.962 . S
C2406 H2420 0.960 . S
C2407 C2404 1.511 . S
C2407 H2421 0.961 . S
C2407 H2422 0.922 1_556 S
C2407 H2423 0.961 . S
C2408 C2409 1.370 . S
C2408 C2410 1.363 . S
C2408 H2424 0.931 . S
C2409 C2408 1.370 . S
C2409 C2413 1.408 . S
C2410 C2408 1.363 . S
C2410 C2411 1.370 . S
C2410 C2414 1.524 . S
C2411 C2403 1.503 1_554 S
C2411 C2410 1.370 . S
C2411 C2412 1.403 . S
C2412 C2411 1.403 . S
C2412 C2413 1.404 . S
C2412 C2415 1.539 . S
C2413 C2409 1.408 . S
C2413 C2412 1.404 . S
C2413 H2425 0.930 . S
C2414 C2410 1.524 . S
C2414 H2426 0.964 . S
C2414 H2427 0.961 1_554 S
C2414 H2428 0.961 . S
C2415 C2412 1.539 . S
C2415 H2429 0.958 . S
C2415 H2430 0.961 . S
C2415 H2431 0.960 . S
H2416 C2400 0.931 . S
H2417 C2405 0.929 . S
H2418 C2406 0.960 1_554 S
H2419 C2406 0.962 . S
H2420 C2406 0.960 . S
H2421 C2407 0.961 . S
H2422 C2407 0.922 1_554 S
H2423 C2407 0.961 . S
H2424 C2408 0.931 . S
H2425 C2413 0.930 . S
H2426 C2414 0.964 . S
H2427 C2414 0.961 1_556 S
H2428 C2414 0.961 . S
H2429 C2415 0.958 . S
H2430 C2415 0.961 . S
H2431 C2415 0.960 . S
C1409 C20 1.621 . S
C1417 C293 1.577 . S
C1441 C49 1.579 . S
C1449 C117 1.617 . S
C1473 C137 1.576 . S
C1481 C196 1.628 . S
C1505 C225 1.579 . S
C1513 C313 1.617 . S
C1537 C409 1.628 . S
C1545 C497 1.563 . S
C1569 C460 1.609 . S
C1577 C557 1.559 . S
C1601 C585 1.626 . S
C1609 C636 1.567 . S
C1633 C673 1.623 . S
C1641 C381 1.536 . S
C1665 C724 1.622 . S
C1673 C988 1.574 . S
C1697 C753 1.578 . S
C1705 C821 1.617 . S
C1729 C841 1.541 . S
C1737 C900 1.631 . S
C1761 C1025 1.624 . S
C1769 C929 1.536 . S
C1793 C1201 1.536 . S
C1801 C1105 1.632 . S
C1825 C1261 1.557 . S
C1833 C1164 1.620 . S
C1857 C1289 1.623 . S
C1865 C1340 1.572 . S
C1889 C1377 1.618 . S
C1897 C1076 1.542 . S
C1921 C57 0.817 . S
C1929 C1369 0.810 . S
C1953 C108 0.776 . S
C1961 C1085 0.805 . S
C1985 C1173 0.847 . S
C1993 C233 0.836 . S
C2017 C321 0.841 . S
C2025 C1252 0.822 . S
C2049 C812 0.862 . S
C2057 C372 0.834 . S
C2081 C937 0.814 . S
C2089 C469 0.809 . S
C2113 C548 0.781 . S
C2121 C1017 0.802 . S
C2145 C665 0.834 . S
C2153 C761 0.832 . S
C2177 C29 1.427 . S
C2185 C577 1.448 . S
C2209 C645 1.425 . S
C2217 C145 1.437 . S
C2241 C401 1.469 . S
C2249 C205 1.456 . S
C2273 C489 1.420 . S
C2281 C284 1.443 . S
C2305 C733 1.468 . S
C2313 C1281 1.460 . S
C2337 C849 1.442 . S
C2345 C1349 1.440 . S
C2369 C1113 1.464 . S
C2377 C909 1.452 . S
C2401 C997 1.428 . S
C2409 C1193 1.437 . S
