# Generated by pormake.
# Topology yfr, (5)-cn, num edge types: 1
# Building blocks:
#     Node 0, Type 0, BuildingBlock: XOMCOT_clean_sbu_1, # of connection points: 5
#     Node 1, Type 0, BuildingBlock: XOMCOT_clean_sbu_1, # of connection points: 5
#     Node 2, Type 0, BuildingBlock: XOMCOT_clean_sbu_1, # of connection points: 5
#     Node 3, Type 0, BuildingBlock: XOMCOT_clean_sbu_1, # of connection points: 5
#     Node 4, Type 0, BuildingBlock: XOMCOT_clean_sbu_1, # of connection points: 5
#     Node 5, Type 0, BuildingBlock: XOMCOT_clean_sbu_1, # of connection points: 5
#     Node 6, Type 0, BuildingBlock: XOMCOT_clean_sbu_1, # of connection points: 5
#     Node 7, Type 0, BuildingBlock: XOMCOT_clean_sbu_1, # of connection points: 5
#     Node 8, Type 0, BuildingBlock: XOMCOT_clean_sbu_1, # of connection points: 5
#     Node 9, Type 0, BuildingBlock: XOMCOT_clean_sbu_1, # of connection points: 5
#     Node 10, Type 0, BuildingBlock: XOMCOT_clean_sbu_1, # of connection points: 5
#     Node 11, Type 0, BuildingBlock: XOMCOT_clean_sbu_1, # of connection points: 5
#     Node 12, Type 0, BuildingBlock: XOMCOT_clean_sbu_1, # of connection points: 5
#     Node 13, Type 0, BuildingBlock: XOMCOT_clean_sbu_1, # of connection points: 5
#     Node 14, Type 0, BuildingBlock: XOMCOT_clean_sbu_1, # of connection points: 5
#     Node 15, Type 0, BuildingBlock: XOMCOT_clean_sbu_1, # of connection points: 5
#     Node 16, Type 0, BuildingBlock: XOMCOT_clean_sbu_1, # of connection points: 5
#     Node 17, Type 0, BuildingBlock: XOMCOT_clean_sbu_1, # of connection points: 5
#     Node 18, Type 0, BuildingBlock: XOMCOT_clean_sbu_1, # of connection points: 5
#     Node 19, Type 0, BuildingBlock: XOMCOT_clean_sbu_1, # of connection points: 5
#     Node 20, Type 0, BuildingBlock: XOMCOT_clean_sbu_1, # of connection points: 5
#     Node 21, Type 0, BuildingBlock: XOMCOT_clean_sbu_1, # of connection points: 5
#     Node 22, Type 0, BuildingBlock: XOMCOT_clean_sbu_1, # of connection points: 5
#     Node 23, Type 0, BuildingBlock: XOMCOT_clean_sbu_1, # of connection points: 5
#     Node 24, Type 0, BuildingBlock: XOMCOT_clean_sbu_1, # of connection points: 5
#     Node 25, Type 0, BuildingBlock: XOMCOT_clean_sbu_1, # of connection points: 5
#     Node 26, Type 0, BuildingBlock: XOMCOT_clean_sbu_1, # of connection points: 5
#     Node 27, Type 0, BuildingBlock: XOMCOT_clean_sbu_1, # of connection points: 5
#     Node 28, Type 0, BuildingBlock: XOMCOT_clean_sbu_1, # of connection points: 5
#     Node 29, Type 0, BuildingBlock: XOMCOT_clean_sbu_1, # of connection points: 5
#     Node 30, Type 0, BuildingBlock: XOMCOT_clean_sbu_1, # of connection points: 5
#     Node 31, Type 0, BuildingBlock: XOMCOT_clean_sbu_1, # of connection points: 5
#     Edge 32, Type (0, 0), BuildingBlock: OJICUG_clean_linker_0, # of connection points: 2
#     Edge 33, Type (0, 0), BuildingBlock: OJICUG_clean_linker_0, # of connection points: 2
#     Edge 34, Type (0, 0), BuildingBlock: OJICUG_clean_linker_0, # of connection points: 2
#     Edge 35, Type (0, 0), BuildingBlock: OJICUG_clean_linker_0, # of connection points: 2
#     Edge 36, Type (0, 0), BuildingBlock: OJICUG_clean_linker_0, # of connection points: 2
#     Edge 37, Type (0, 0), BuildingBlock: OJICUG_clean_linker_0, # of connection points: 2
#     Edge 38, Type (0, 0), BuildingBlock: OJICUG_clean_linker_0, # of connection points: 2
#     Edge 39, Type (0, 0), BuildingBlock: OJICUG_clean_linker_0, # of connection points: 2
#     Edge 40, Type (0, 0), BuildingBlock: OJICUG_clean_linker_0, # of connection points: 2
#     Edge 41, Type (0, 0), BuildingBlock: OJICUG_clean_linker_0, # of connection points: 2
#     Edge 42, Type (0, 0), BuildingBlock: OJICUG_clean_linker_0, # of connection points: 2
#     Edge 43, Type (0, 0), BuildingBlock: OJICUG_clean_linker_0, # of connection points: 2
#     Edge 44, Type (0, 0), BuildingBlock: OJICUG_clean_linker_0, # of connection points: 2
#     Edge 45, Type (0, 0), BuildingBlock: OJICUG_clean_linker_0, # of connection points: 2
#     Edge 46, Type (0, 0), BuildingBlock: OJICUG_clean_linker_0, # of connection points: 2
#     Edge 47, Type (0, 0), BuildingBlock: OJICUG_clean_linker_0, # of connection points: 2
#     Edge 48, Type (0, 0), BuildingBlock: OJICUG_clean_linker_0, # of connection points: 2
#     Edge 49, Type (0, 0), BuildingBlock: OJICUG_clean_linker_0, # of connection points: 2
#     Edge 50, Type (0, 0), BuildingBlock: OJICUG_clean_linker_0, # of connection points: 2
#     Edge 51, Type (0, 0), BuildingBlock: OJICUG_clean_linker_0, # of connection points: 2
#     Edge 52, Type (0, 0), BuildingBlock: OJICUG_clean_linker_0, # of connection points: 2
#     Edge 53, Type (0, 0), BuildingBlock: OJICUG_clean_linker_0, # of connection points: 2
#     Edge 54, Type (0, 0), BuildingBlock: OJICUG_clean_linker_0, # of connection points: 2
#     Edge 55, Type (0, 0), BuildingBlock: OJICUG_clean_linker_0, # of connection points: 2
#     Edge 56, Type (0, 0), BuildingBlock: OJICUG_clean_linker_0, # of connection points: 2
#     Edge 57, Type (0, 0), BuildingBlock: OJICUG_clean_linker_0, # of connection points: 2
#     Edge 58, Type (0, 0), BuildingBlock: OJICUG_clean_linker_0, # of connection points: 2
#     Edge 59, Type (0, 0), BuildingBlock: OJICUG_clean_linker_0, # of connection points: 2
#     Edge 60, Type (0, 0), BuildingBlock: OJICUG_clean_linker_0, # of connection points: 2
#     Edge 61, Type (0, 0), BuildingBlock: OJICUG_clean_linker_0, # of connection points: 2
#     Edge 62, Type (0, 0), BuildingBlock: OJICUG_clean_linker_0, # of connection points: 2
#     Edge 63, Type (0, 0), BuildingBlock: OJICUG_clean_linker_0, # of connection points: 2
#     Edge 64, Type (0, 0), BuildingBlock: OJICUG_clean_linker_0, # of connection points: 2
#     Edge 65, Type (0, 0), BuildingBlock: OJICUG_clean_linker_0, # of connection points: 2
#     Edge 66, Type (0, 0), BuildingBlock: OJICUG_clean_linker_0, # of connection points: 2
#     Edge 67, Type (0, 0), BuildingBlock: OJICUG_clean_linker_0, # of connection points: 2
#     Edge 68, Type (0, 0), BuildingBlock: OJICUG_clean_linker_0, # of connection points: 2
#     Edge 69, Type (0, 0), BuildingBlock: OJICUG_clean_linker_0, # of connection points: 2
#     Edge 70, Type (0, 0), BuildingBlock: OJICUG_clean_linker_0, # of connection points: 2
#     Edge 71, Type (0, 0), BuildingBlock: OJICUG_clean_linker_0, # of connection points: 2
#     Edge 72, Type (0, 0), BuildingBlock: OJICUG_clean_linker_0, # of connection points: 2
#     Edge 73, Type (0, 0), BuildingBlock: OJICUG_clean_linker_0, # of connection points: 2
#     Edge 74, Type (0, 0), BuildingBlock: OJICUG_clean_linker_0, # of connection points: 2
#     Edge 75, Type (0, 0), BuildingBlock: OJICUG_clean_linker_0, # of connection points: 2
#     Edge 76, Type (0, 0), BuildingBlock: OJICUG_clean_linker_0, # of connection points: 2
#     Edge 77, Type (0, 0), BuildingBlock: OJICUG_clean_linker_0, # of connection points: 2
#     Edge 78, Type (0, 0), BuildingBlock: OJICUG_clean_linker_0, # of connection points: 2
#     Edge 79, Type (0, 0), BuildingBlock: OJICUG_clean_linker_0, # of connection points: 2
#     Edge 80, Type (0, 0), BuildingBlock: OJICUG_clean_linker_0, # of connection points: 2
#     Edge 81, Type (0, 0), BuildingBlock: OJICUG_clean_linker_0, # of connection points: 2
#     Edge 82, Type (0, 0), BuildingBlock: OJICUG_clean_linker_0, # of connection points: 2
#     Edge 83, Type (0, 0), BuildingBlock: OJICUG_clean_linker_0, # of connection points: 2
#     Edge 84, Type (0, 0), BuildingBlock: OJICUG_clean_linker_0, # of connection points: 2
#     Edge 85, Type (0, 0), BuildingBlock: OJICUG_clean_linker_0, # of connection points: 2
#     Edge 86, Type (0, 0), BuildingBlock: OJICUG_clean_linker_0, # of connection points: 2
#     Edge 87, Type (0, 0), BuildingBlock: OJICUG_clean_linker_0, # of connection points: 2
#     Edge 88, Type (0, 0), BuildingBlock: OJICUG_clean_linker_0, # of connection points: 2
#     Edge 89, Type (0, 0), BuildingBlock: OJICUG_clean_linker_0, # of connection points: 2
#     Edge 90, Type (0, 0), BuildingBlock: OJICUG_clean_linker_0, # of connection points: 2
#     Edge 91, Type (0, 0), BuildingBlock: OJICUG_clean_linker_0, # of connection points: 2
#     Edge 92, Type (0, 0), BuildingBlock: OJICUG_clean_linker_0, # of connection points: 2
#     Edge 93, Type (0, 0), BuildingBlock: OJICUG_clean_linker_0, # of connection points: 2
#     Edge 94, Type (0, 0), BuildingBlock: OJICUG_clean_linker_0, # of connection points: 2
#     Edge 95, Type (0, 0), BuildingBlock: OJICUG_clean_linker_0, # of connection points: 2
#     Edge 96, Type (0, 0), BuildingBlock: OJICUG_clean_linker_0, # of connection points: 2
#     Edge 97, Type (0, 0), BuildingBlock: OJICUG_clean_linker_0, # of connection points: 2
#     Edge 98, Type (0, 0), BuildingBlock: OJICUG_clean_linker_0, # of connection points: 2
#     Edge 99, Type (0, 0), BuildingBlock: OJICUG_clean_linker_0, # of connection points: 2
#     Edge 100, Type (0, 0), BuildingBlock: OJICUG_clean_linker_0, # of connection points: 2
#     Edge 101, Type (0, 0), BuildingBlock: OJICUG_clean_linker_0, # of connection points: 2
#     Edge 102, Type (0, 0), BuildingBlock: OJICUG_clean_linker_0, # of connection points: 2
#     Edge 103, Type (0, 0), BuildingBlock: OJICUG_clean_linker_0, # of connection points: 2
#     Edge 104, Type (0, 0), BuildingBlock: OJICUG_clean_linker_0, # of connection points: 2
#     Edge 105, Type (0, 0), BuildingBlock: OJICUG_clean_linker_0, # of connection points: 2
#     Edge 106, Type (0, 0), BuildingBlock: OJICUG_clean_linker_0, # of connection points: 2
#     Edge 107, Type (0, 0), BuildingBlock: OJICUG_clean_linker_0, # of connection points: 2
#     Edge 108, Type (0, 0), BuildingBlock: OJICUG_clean_linker_0, # of connection points: 2
#     Edge 109, Type (0, 0), BuildingBlock: OJICUG_clean_linker_0, # of connection points: 2
#     Edge 110, Type (0, 0), BuildingBlock: OJICUG_clean_linker_0, # of connection points: 2
#     Edge 111, Type (0, 0), BuildingBlock: OJICUG_clean_linker_0, # of connection points: 2
# Relax obj value: 0.570
# Max RMSD: 0.322
# Mean RMSD: 0.322
data_MOF--net-yfr--node1-XOMCOT_clean_sbu_1--edge1-OJICUG_clean_linker_0
_symmetry_space_group_name_H-M    P1
_symmetry_Int_Tables_number       1
_symmetry_cell_setting            triclinic
loop_
_symmetry_equiv_pos_as_xyz
'x, y, z'
_cell_length_a     38.977708
_cell_length_b     39.334872
_cell_length_c     47.38623
_cell_angle_alpha  90.062124
_cell_angle_beta   90.101833
_cell_angle_gamma 90.002739
loop_
_atom_site_label
_atom_site_type_symbol
_atom_site_fract_x
_atom_site_fract_y
_atom_site_fract_z
_atom_type_partial_charge
C0 C 0.07859 0.08479 0.27786 0.0
C1 C 0.0583 0.07613 0.30021 0.0
N2 N 0.03507 0.10102 0.30418 0.0
N3 N 0.06831 0.11483 0.26726 0.0
C4 C 0.04167 0.12432 0.28373 0.0
H5 H 0.10072 0.07077 0.27055 0.0
Co6 Co 0.09519 0.13412 0.23925 0.0
C7 C 0.07227 0.20429 0.22765 0.0
O8 O 0.10516 0.21149 0.22825 0.0
N9 N 0.12386 0.15164 0.21028 0.0
C10 C 0.1672 0.17156 0.18458 0.0
C11 C 0.15729 0.16078 0.21096 0.0
C12 C 0.11434 0.15656 0.18307 0.0
N13 N 0.14015 0.1688 0.16704 0.0
O14 O 0.07297 0.1041 0.21278 0.0
H15 H 0.17373 0.15992 0.22927 0.0
H16 H 0.0887 0.15165 0.17525 0.0
O17 O 0.06243 0.17329 0.23212 0.0
C18 C 0.09371 0.07937 0.20879 0.0
O19 O 0.12582 0.08327 0.21663 0.0
N20 N 0.11802 0.15797 0.26778 0.0
C21 C 0.14099 0.16647 0.32313 0.0
C22 C 0.11416 0.18639 0.31243 0.0
C23 C 0.10234 0.18101 0.28514 0.0
C24 C 0.14548 0.13978 0.2773 0.0
C25 C 0.15746 0.14364 0.30489 0.0
H26 H 0.07836 0.1928 0.27965 0.0
H27 H 0.15583 0.11955 0.2644 0.0
H28 H 0.02865 0.14847 0.28164 0.0
H29 H 0.06213 0.0543 0.31372 0.0
H30 H 0.19258 0.1801 0.17863 0.0
H31 H 0.10092 0.20474 0.32552 0.0
H32 H 0.1779 0.12726 0.31227 0.0
C33 C 0.18438 0.84043 0.54253 0.0
C34 C 0.19954 0.82088 0.56282 0.0
N35 N 0.18461 0.78999 0.56251 0.0
N36 N 0.16003 0.82219 0.5292 0.0
C37 C 0.16066 0.79142 0.5417 0.0
H38 H 0.19147 0.86616 0.53701 0.0
Co39 Co 0.14054 0.84125 0.49754 0.0
C40 C 0.07203 0.81096 0.4867 0.0
O41 O 0.06252 0.84249 0.48211 0.0
N42 N 0.12359 0.86249 0.4644 0.0
C43 C 0.10474 0.89901 0.43192 0.0
C44 C 0.11019 0.89384 0.46023 0.0
C45 C 0.12581 0.84925 0.43807 0.0
N46 N 0.11484 0.87101 0.41792 0.0
O47 O 0.17303 0.81542 0.4761 0.0
H48 H 0.10489 0.91245 0.47629 0.0
H49 H 0.13582 0.82417 0.43369 0.0
O50 O 0.10375 0.80479 0.49317 0.0
C51 C 0.20246 0.82973 0.4758 0.0
O52 O 0.20329 0.86311 0.47699 0.0
N53 N 0.11219 0.86665 0.52178 0.0
C54 C 0.08542 0.89942 0.56884 0.0
C55 C 0.07715 0.86565 0.56327 0.0
C56 C 0.09141 0.84953 0.54019 0.0
C57 C 0.12133 0.89952 0.52746 0.0
C58 C 0.10739 0.91686 0.55061 0.0
H59 H 0.08796 0.82241 0.53893 0.0
H60 H 0.14096 0.91172 0.51494 0.0
H61 H 0.14408 0.77064 0.53553 0.0
H62 H 0.22032 0.82885 0.57645 0.0
H63 H 0.09553 0.92226 0.42234 0.0
H64 H 0.06101 0.85125 0.57755 0.0
H65 H 0.11495 0.94283 0.55498 0.0
C66 C 0.49458 0.93301 0.78963 0.0
C67 C 0.51881 0.93636 0.81037 0.0
N68 N 0.54053 0.90973 0.80882 0.0
N69 N 0.5008 0.90457 0.7747 0.0
C70 C 0.52919 0.89105 0.78659 0.0
H71 H 0.47235 0.94909 0.78691 0.0
Co72 Co 0.46937 0.88872 0.74834 0.0
C73 C 0.49116 0.82006 0.72992 0.0
O74 O 0.4584 0.81245 0.7312 0.0
N75 N 0.43657 0.87426 0.72109 0.0
C76 C 0.39011 0.85722 0.69755 0.0
C77 C 0.40324 0.86511 0.72368 0.0
C78 C 0.4427 0.87223 0.69301 0.0
N79 N 0.41497 0.86178 0.67829 0.0
O80 O 0.48681 0.92179 0.72217 0.0
H81 H 0.38887 0.864 0.74303 0.0
H82 H 0.46734 0.87777 0.68358 0.0
O83 O 0.50089 0.8508 0.73555 0.0
C84 C 0.46509 0.94593 0.72522 0.0
O85 O 0.43735 0.94027 0.74019 0.0
N86 N 0.45069 0.86157 0.77665 0.0
C87 C 0.42426 0.83583 0.82666 0.0
C88 C 0.45426 0.82221 0.81505 0.0
C89 C 0.46752 0.83596 0.79039 0.0
C90 C 0.42252 0.87621 0.78858 0.0
C91 C 0.40832 0.86325 0.81324 0.0
H92 H 0.49221 0.82697 0.78348 0.0
H93 H 0.41146 0.89874 0.77921 0.0
H94 H 0.53989 0.86692 0.78017 0.0
H95 H 0.51835 0.95541 0.82684 0.0
H96 H 0.36408 0.8493 0.69302 0.0
H97 H 0.46762 0.80127 0.82505 0.0
H98 H 0.38564 0.87506 0.82208 0.0
C99 C 0.33583 0.24162 0.03051 0.0
C100 C 0.32881 0.26602 0.05034 0.0
N101 N 0.35537 0.28798 0.05128 0.0
N102 N 0.36641 0.24822 0.01859 0.0
C103 C 0.37771 0.27668 0.03149 0.0
H104 H 0.3199 0.21998 0.02532 0.0
Co105 Co 0.3845 0.21956 -0.00844 0.0
C106 C 0.45607 0.24023 0.97997 0.0
O107 O 0.46339 0.20766 0.98109 0.0
N108 N 0.40103 0.18973 0.96343 0.0
C109 C 0.41564 0.14577 0.93628 0.0
C110 C 0.40798 0.15602 0.96334 0.0
C111 C 0.40512 0.19921 0.93627 0.0
N112 N 0.41344 0.17301 0.91925 0.0
O113 O 0.3568 0.24286 0.96452 0.0
H114 H 0.40648 0.13924 0.98123 0.0
H115 H 0.40099 0.22491 0.92892 0.0
O116 O 0.42486 0.25009 0.98403 0.0
C117 C 0.32807 0.22806 0.96047 0.0
O118 O 0.32771 0.19465 0.96103 0.0
N119 N 0.40753 0.19674 0.02043 0.0
C120 C 0.42742 0.16728 0.07112 0.0
C121 C 0.44172 0.19809 0.06238 0.0
C122 C 0.431 0.2127 0.03732 0.0
C123 C 0.39217 0.16747 0.02931 0.0
C124 C 0.40254 0.1516 0.05427 0.0
H125 H 0.44028 0.23784 0.03265 0.0
H126 H 0.3709 0.15703 0.01744 0.0
H127 H 0.4026 0.28774 0.0274 0.0
H128 H 0.30619 0.26676 0.0635 0.0
H129 H 0.4202 0.1199 0.92944 0.0
H130 H 0.46088 0.21108 0.07501 0.0
H131 H 0.39057 0.12803 0.06076 0.0
C132 C 0.09912 0.89569 0.16005 0.0
C133 C 0.07621 0.90694 0.14023 0.0
N134 N 0.04433 0.90374 0.15085 0.0
N135 N 0.08185 0.88489 0.18295 0.0
C136 C 0.04849 0.89014 0.17683 0.0
H137 H 0.12675 0.89665 0.15832 0.0
Co138 Co 0.10307 0.87548 0.21687 0.0
C139 C 0.06875 0.81494 0.24134 0.0
O140 O 0.09954 0.80584 0.24973 0.0
N141 N 0.1256 0.86804 0.25164 0.0
C142 C 0.16344 0.85777 0.2858 0.0
C143 C 0.15872 0.86028 0.25718 0.0
C144 C 0.11104 0.87102 0.27745 0.0
N145 N 0.13338 0.86435 0.29859 0.0
O146 O 0.08139 0.91577 0.23176 0.0
H147 H 0.17873 0.85682 0.24184 0.0
H148 H 0.08426 0.87717 0.28057 0.0
O149 O 0.06479 0.84401 0.22898 0.0
C150 C 0.10185 0.93893 0.22313 0.0
O151 O 0.13271 0.9295 0.21511 0.0
N152 N 0.1258 0.83921 0.19887 0.0
C153 C 0.15588 0.7983 0.15802 0.0
C154 C 0.12258 0.79187 0.16712 0.0
C155 C 0.10755 0.81342 0.18656 0.0
C156 C 0.1585 0.8458 0.19001 0.0
C157 C 0.17424 0.82543 0.16957 0.0
H158 H 0.0802 0.81122 0.18894 0.0
H159 H 0.17118 0.86892 0.1966 0.0
H160 H 0.0279 0.88545 0.1916 0.0
H161 H 0.08265 0.91648 0.11949 0.0
H162 H 0.18742 0.85217 0.29636 0.0
H163 H 0.10712 0.77226 0.15723 0.0
H164 H 0.19947 0.83196 0.16172 0.0
C165 C 0.31965 0.76136 0.45548 0.0
C166 C 0.31333 0.73667 0.43602 0.0
N167 N 0.34002 0.71497 0.43587 0.0
N168 N 0.34972 0.75523 0.46849 0.0
C169 C 0.36179 0.72673 0.45604 0.0
H170 H 0.30486 0.78432 0.45773 0.0
Co171 Co 0.36724 0.78792 0.4927 0.0
C172 C 0.44229 0.7763 0.50012 0.0
O173 O 0.44591 0.80925 0.49678 0.0
N174 N 0.38304 0.82199 0.51783 0.0
C175 C 0.39679 0.86998 0.54031 0.0
C176 C 0.3871 0.85598 0.51486 0.0
C177 C 0.3905 0.81623 0.54533 0.0
N178 N 0.39861 0.84487 0.55948 0.0
O179 O 0.34748 0.76382 0.52396 0.0
H180 H 0.38277 0.8703 0.49584 0.0
H181 H 0.38986 0.79133 0.55498 0.0
O182 O 0.41204 0.76301 0.49847 0.0
C183 C 0.31588 0.76085 0.53074 0.0
O184 O 0.3078 0.74073 0.55181 0.0
N185 N 0.38399 0.81073 0.4606 0.0
C186 C 0.39771 0.83855 0.40757 0.0
C187 C 0.41584 0.81017 0.41733 0.0
C188 C 0.40797 0.79616 0.44338 0.0
C189 C 0.36488 0.83737 0.45093 0.0
C190 C 0.37179 0.85219 0.4247 0.0
H191 H 0.4202 0.77249 0.44876 0.0
H192 H 0.34353 0.84658 0.46332 0.0
H193 H 0.38714 0.71657 0.46 0.0
H194 H 0.29269 0.73725 0.42071 0.0
H195 H 0.40073 0.89673 0.54464 0.0
H196 H 0.43591 0.79849 0.40487 0.0
H197 H 0.35643 0.87349 0.41764 0.0
C198 C 0.4185 0.12018 0.66334 0.0
C199 C 0.4387 0.10667 0.64271 0.0
N200 N 0.4717 0.11129 0.65013 0.0
N201 N 0.43844 0.134 0.68363 0.0
C202 C 0.47091 0.12822 0.67501 0.0
H203 H 0.39093 0.11796 0.66424 0.0
Co204 Co 0.42046 0.1453 0.71856 0.0
C205 C 0.45283 0.20989 0.73757 0.0
O206 O 0.42208 0.21881 0.74616 0.0
N207 N 0.40095 0.15441 0.75408 0.0
C208 C 0.36486 0.16632 0.78902 0.0
C209 C 0.36778 0.16073 0.76064 0.0
C210 C 0.41745 0.15522 0.77926 0.0
N211 N 0.39609 0.16302 0.80069 0.0
O212 O 0.44776 0.10935 0.73441 0.0
H213 H 0.34649 0.16138 0.74624 0.0
H214 H 0.44477 0.15119 0.78169 0.0
O215 O 0.45715 0.18035 0.72613 0.0
C216 C 0.43179 0.08216 0.72779 0.0
O217 O 0.39969 0.08492 0.71952 0.0
N218 N 0.39253 0.17754 0.70023 0.0
C219 C 0.3551 0.2094 0.65799 0.0
C220 C 0.3876 0.22126 0.66532 0.0
C221 C 0.40641 0.2042 0.68566 0.0
C222 C 0.36028 0.16632 0.69365 0.0
C223 C 0.34096 0.18198 0.6725 0.0
H224 H 0.43327 0.21027 0.68685 0.0
H225 H 0.35108 0.14265 0.7024 0.0
H226 H 0.49333 0.13452 0.68747 0.0
H227 H 0.42965 0.09424 0.62372 0.0
H228 H 0.34143 0.17206 0.80031 0.0
H229 H 0.39978 0.24134 0.6533 0.0
H230 H 0.31647 0.17135 0.66622 0.0
C231 C 0.20025 0.28982 0.93938 0.0
C232 C 0.19946 0.31531 0.91983 0.0
N233 N 0.17044 0.33339 0.92346 0.0
N234 N 0.17222 0.29176 0.95585 0.0
C235 C 0.15459 0.3188 0.94585 0.0
H236 H 0.21846 0.26919 0.93963 0.0
Co237 Co 0.16121 0.25684 0.98068 0.0
C238 C 0.08687 0.26128 -0.00727 0.0
O239 O 0.0849 0.22828 -0.01118 0.0
N240 N 0.15147 0.22081 0.00655 0.0
C241 C 0.14139 0.17134 0.02816 0.0
C242 C 0.14682 0.187 0.0026 0.0
C243 C 0.14869 0.22469 0.03493 0.0
N244 N 0.14278 0.19511 0.0485 0.0
O245 O 0.18068 0.28303 0.01084 0.0
H246 H 0.14706 0.17386 0.98269 0.0
H247 H 0.15058 0.2489 0.04564 0.0
O248 O 0.11574 0.27664 -0.01038 0.0
C249 C 0.2122 0.28996 0.0153 0.0
O250 O 0.22007 0.31097 0.03587 0.0
N251 N 0.14355 0.23261 0.9493 0.0
C252 C 0.12346 0.20218 0.89864 0.0
C253 C 0.10627 0.23074 0.90895 0.0
C254 C 0.117 0.24584 0.9339 0.0
C255 C 0.16244 0.2065 0.93836 0.0
C256 C 0.15211 0.19004 0.91348 0.0
H257 H 0.10427 0.26894 0.94011 0.0
H258 H 0.18549 0.19824 0.9491 0.0
H259 H 0.12936 0.32578 0.95333 0.0
H260 H 0.21704 0.31771 0.90229 0.0
H261 H 0.13758 0.1444 0.03155 0.0
H262 H 0.08426 0.24124 0.89802 0.0
H263 H 0.16652 0.1684 0.90579 0.0
C264 C 0.95519 0.92728 0.68723 0.0
C265 C 0.97507 0.94022 0.66608 0.0
N266 N 1.00341 0.92081 0.66378 0.0
N267 N 0.97081 0.89997 0.69852 0.0
C268 C 1.00027 0.89656 0.68394 0.0
H269 H 0.93073 0.93719 0.69414 0.0
Co270 Co 0.95005 0.87893 0.72857 0.0
C271 C 0.98053 0.81063 0.73713 0.0
O272 O 0.94865 0.80087 0.74068 0.0
N273 N 0.92692 0.85993 0.76043 0.0
C274 C 0.88813 0.83894 0.79028 0.0
C275 C 0.89611 0.84416 0.76245 0.0
C276 C 0.93706 0.86348 0.78766 0.0
N277 N 0.91375 0.85145 0.8062 0.0
O278 O 0.9743 0.91055 0.75228 0.0
H279 H 0.87974 0.83685 0.7452 0.0
H280 H 0.96085 0.87546 0.79391 0.0
O281 O 0.98685 0.84246 0.73237 0.0
C282 C 0.95477 0.93592 0.75709 0.0
O283 O 0.9219 0.93292 0.75144 0.0
N284 N 0.92565 0.85227 0.70246 0.0
C285 C 0.89163 0.82443 0.6564 0.0
C286 C 0.92628 0.81757 0.66091 0.0
C287 C 0.94297 0.83225 0.68365 0.0
C288 C 0.89236 0.8611 0.69715 0.0
C289 C 0.87431 0.84638 0.67469 0.0
H290 H 0.97036 0.82888 0.68493 0.0
H291 H 0.87992 0.88 0.7102 0.0
H292 H 0.01837 0.87616 0.68752 0.0
H293 H 0.96881 0.96212 0.6533 0.0
H294 H 0.86442 0.82823 0.79815 0.0
H295 H 0.94055 0.8014 0.64658 0.0
H296 H 0.84763 0.85281 0.67116 0.0
C297 C 0.86811 0.16307 0.43575 0.0
C298 C 0.86403 0.18114 0.41142 0.0
N299 N 0.88587 0.20754 0.4122 0.0
N300 N 0.89241 0.1779 0.45186 0.0
C301 C 0.90281 0.20529 0.43705 0.0
H302 H 0.85507 0.13969 0.441 0.0
Co303 Co 0.90458 0.15562 0.48427 0.0
C304 C 0.96618 0.18806 0.51042 0.0
O305 O 0.974 0.15717 0.51862 0.0
N306 N 0.91403 0.13087 0.51747 0.0
C307 C 0.9268 0.09131 0.54936 0.0
C308 C 0.92499 0.09857 0.52092 0.0
C309 C 0.90861 0.14232 0.54406 0.0
N310 N 0.91642 0.11891 0.56389 0.0
O311 O 0.86491 0.17625 0.50205 0.0
H312 H 0.93126 0.08123 0.50403 0.0
H313 H 0.89985 0.1678 0.54876 0.0
O314 O 0.9375 0.193 0.49709 0.0
C315 C 0.83977 0.15537 0.50146 0.0
O316 O 0.84598 0.12349 0.49496 0.0
N317 N 0.94013 0.13447 0.46316 0.0
C318 C 0.97009 0.11589 0.41172 0.0
C319 C 0.98282 0.14324 0.4273 0.0
C320 C 0.96692 0.15277 0.4522 0.0
C321 C 0.92971 0.10548 0.4497 0.0
C322 C 0.94431 0.0957 0.42383 0.0
H323 H 0.97366 0.1776 0.45958 0.0
H324 H 0.90716 0.09223 0.45715 0.0
H325 H 0.9235 0.22196 0.44349 0.0
H326 H 0.84706 0.17487 0.39406 0.0
H327 H 0.93465 0.06737 0.55858 0.0
H328 H 1.00304 0.15927 0.41902 0.0
H329 H 0.93359 0.07432 0.41243 0.0
C330 C 0.57457 0.12165 0.16125 0.0
C331 C 0.54865 0.11584 0.14237 0.0
N332 N 0.51929 0.1279 0.1535 0.0
N333 N 0.56167 0.13744 0.18412 0.0
C334 C 0.5279 0.14096 0.17889 0.0
H335 H 0.6012 0.11467 0.15862 0.0
Co336 Co 0.58742 0.14559 0.21587 0.0
C337 C 0.56158 0.2093 0.24187 0.0
O338 O 0.5935 0.21518 0.2493 0.0
N339 N 0.61445 0.15161 0.24856 0.0
C340 C 0.65593 0.15896 0.2804 0.0
C341 C 0.64791 0.15969 0.25212 0.0
C342 C 0.60295 0.14587 0.27506 0.0
N343 N 0.62759 0.15011 0.29479 0.0
O344 O 0.56338 0.10859 0.23357 0.0
H345 H 0.66588 0.16555 0.2356 0.0
H346 H 0.57672 0.13895 0.2798 0.0
O347 O 0.55398 0.18071 0.22997 0.0
C348 C 0.57698 0.0814 0.224 0.0
O349 O 0.60615 0.08393 0.21028 0.0
N350 N 0.61119 0.17908 0.19517 0.0
C351 C 0.63786 0.21445 0.14931 0.0
C352 C 0.60647 0.22375 0.16098 0.0
C353 C 0.59319 0.20531 0.18323 0.0
C354 C 0.64222 0.1699 0.18413 0.0
C355 C 0.65651 0.18782 0.16145 0.0
H356 H 0.56669 0.20998 0.18814 0.0
H357 H 0.65456 0.14681 0.19122 0.0
H358 H 0.51003 0.15269 0.19338 0.0
H359 H 0.55147 0.10489 0.12153 0.0
H360 H 0.68095 0.16366 0.28953 0.0
H361 H 0.59107 0.24376 0.15162 0.0
H362 H 0.68055 0.17951 0.15231 0.0
C363 C 0.68465 0.79374 0.95504 0.0
C364 C 0.69481 0.77054 0.9355 0.0
N365 N 0.67217 0.74473 0.9355 0.0
N366 N 0.65627 0.78261 0.96823 0.0
C367 C 0.64884 0.75266 0.95569 0.0
H368 H 0.69571 0.81865 0.95781 0.0
Co369 Co 0.6368 0.81189 -0.00604 0.0
C370 C 0.56248 0.79594 0.00071 0.0
O371 O 0.55739 0.82889 -0.00102 0.0
N372 N 0.61953 0.84307 0.02079 0.0
C373 C 0.60502 0.88884 0.04593 0.0
C374 C 0.61374 0.87697 0.01954 0.0
C375 C 0.61389 0.83516 0.04817 0.0
N376 N 0.60556 0.86246 0.06393 0.0
O377 O 0.65787 0.78612 0.02397 0.0
H378 H 0.61644 0.89271 0.00111 0.0
H379 H 0.61631 0.80978 0.05669 0.0
O380 O 0.59334 0.78416 -0.00152 0.0
C381 C 0.68914 0.77978 0.03028 0.0
O382 O 0.69541 0.75849 0.05099 0.0
N383 N 0.61824 0.83595 0.96289 0.0
C384 C 0.60371 0.863 0.9096 0.0
C385 C 0.58756 0.83337 0.91896 0.0
C386 C 0.59587 0.81982 0.94506 0.0
C387 C 0.63486 0.86454 0.95395 0.0
C388 C 0.62745 0.87897 0.92757 0.0
H389 H 0.5859 0.79493 0.94969 0.0
H390 H 0.65521 0.87526 0.96671 0.0
H391 H 0.6257 0.73831 0.95983 0.0
H392 H 0.71506 0.77435 0.92021 0.0
H393 H 0.60036 0.91507 0.05168 0.0
H394 H 0.56916 0.81998 0.90588 0.0
H395 H 0.64118 0.90147 0.92086 0.0
C396 C 0.98167 0.12252 0.81322 0.0
C397 C 1.00856 0.12401 0.83181 0.0
N398 N 0.03369 0.14272 0.82009 0.0
N399 N 0.9897 0.14005 0.78974 0.0
C400 C 0.0216 0.15224 0.79452 0.0
H401 H 0.95738 0.11007 0.81689 0.0
Co402 Co 0.95953 0.14297 0.75955 0.0
C403 C 0.98116 0.20132 0.72411 0.0
O404 O 0.94844 0.20489 0.71829 0.0
N405 N 0.92835 0.14364 0.72873 0.0
C406 C 0.88373 0.14712 0.69942 0.0
C407 C 0.89446 0.15063 0.727 0.0
C408 C 0.93724 0.13513 0.702 0.0
N409 N 0.91075 0.13738 0.68369 0.0
O410 O 0.97925 0.10124 0.74493 0.0
H411 H 0.87822 0.15805 0.74433 0.0
H412 H 0.96316 0.12855 0.69593 0.0
O413 O 0.99108 0.17502 0.73839 0.0
C414 C 0.9598 0.07915 0.75671 0.0
O415 O 0.93188 0.09012 0.76932 0.0
N416 N 0.93897 0.18041 0.77781 0.0
C417 C 0.91509 0.22515 0.81898 0.0
C418 C 0.94499 0.23236 0.80408 0.0
C419 C 0.95717 0.20913 0.78447 0.0
C420 C 0.90976 0.17295 0.79241 0.0
C421 C 0.89719 0.19512 0.81307 0.0
H422 H 0.98293 0.21305 0.77711 0.0
H423 H 0.89755 0.14851 0.78957 0.0
H424 H 0.03542 0.16823 0.77988 0.0
H425 H 1.00884 0.11366 0.85297 0.0
H426 H 0.85794 0.15122 0.69163 0.0
H427 H 0.96038 0.25448 0.80922 0.0
H428 H 0.87453 0.1883 0.82499 0.0
C429 C 0.65879 0.1604 0.5493 0.0
C430 C 0.66723 0.18328 0.56998 0.0
N431 N 0.65755 0.21445 0.56131 0.0
N432 N 0.64358 0.177 0.52782 0.0
C433 C 0.6433 0.20992 0.53557 0.0
H434 H 0.66358 0.13333 0.54975 0.0
Co435 Co 0.63173 0.156 0.49462 0.0
C436 C 0.56932 0.19082 0.4721 0.0
O437 O 0.55978 0.16038 0.46383 0.0
N438 N 0.62172 0.1337 0.46039 0.0
C439 C 0.60805 0.09746 0.42607 0.0
C440 C 0.61039 0.10191 0.4548 0.0
C441 C 0.62651 0.14775 0.43466 0.0
N442 N 0.61823 0.12636 0.41342 0.0
O443 O 0.67262 0.17612 0.47826 0.0
H444 H 0.60415 0.08282 0.47023 0.0
H445 H 0.63535 0.17357 0.43164 0.0
O446 O 0.59948 0.19463 0.48329 0.0
C447 C 0.69563 0.1542 0.48478 0.0
O448 O 0.68517 0.12376 0.49233 0.0
N449 N 0.5959 0.13449 0.51429 0.0
C450 C 0.5625 0.10882 0.56148 0.0
C451 C 0.55426 0.14088 0.55104 0.0
C452 C 0.57191 0.15366 0.52814 0.0
C453 C 0.60313 0.10235 0.52358 0.0
C454 C 0.58629 0.08871 0.5471 0.0
H455 H 0.56919 0.1805 0.52461 0.0
H456 H 0.62469 0.08868 0.51483 0.0
H457 H 0.63314 0.23009 0.5225 0.0
H458 H 0.67856 0.17719 0.59022 0.0
H459 H 0.60005 0.07447 0.41535 0.0
H460 H 0.53642 0.15727 0.56213 0.0
H461 H 0.59366 0.06401 0.55518 0.0
C462 C 0.5109 0.92332 0.29882 0.0
C463 C 0.48499 0.92329 0.31825 0.0
N464 N 0.46447 0.89641 0.3131 0.0
N465 N 0.50692 0.89675 0.28118 0.0
C466 C 0.47814 0.881 0.29014 0.0
H467 H 0.53258 0.94041 0.29887 0.0
Co468 Co 0.54006 0.88519 0.25471 0.0
C469 C 0.52198 0.81754 0.23129 0.0
O470 O 0.55512 0.81156 0.23202 0.0
N471 N 0.57411 0.87526 0.22742 0.0
C472 C 0.62119 0.86369 0.20259 0.0
C473 C 0.60796 0.86792 0.22928 0.0
C474 C 0.56773 0.87584 0.19934 0.0
N475 N 0.59578 0.86883 0.18383 0.0
O476 O 0.52221 0.92004 0.23037 0.0
H477 H 0.62261 0.86564 0.24848 0.0
H478 H 0.54263 0.88067 0.19042 0.0
O479 O 0.51078 0.84723 0.23865 0.0
C480 C 0.5417 0.94496 0.23719 0.0
O481 O 0.56765 0.93936 0.25427 0.0
N482 N 0.5591 0.85588 0.2814 0.0
C483 C 0.58478 0.82552 0.32988 0.0
C484 C 0.55512 0.81288 0.31695 0.0
C485 C 0.54229 0.82883 0.29306 0.0
C486 C 0.58708 0.86937 0.29459 0.0
C487 C 0.60098 0.85405 0.31849 0.0
H488 H 0.51784 0.82031 0.28518 0.0
H489 H 0.59809 0.89287 0.28703 0.0
H490 H 0.46864 0.85759 0.28107 0.0
H491 H 0.48338 0.94005 0.33633 0.0
H492 H 0.64756 0.85783 0.19738 0.0
H493 H 0.54165 0.79108 0.32544 0.0
H494 H 0.62347 0.86497 0.32844 0.0
C495 C 0.82976 0.83563 0.04849 0.0
C496 C 0.81978 0.81343 0.06915 0.0
N497 N 0.83971 0.78547 0.06752 0.0
N498 N 0.8557 0.82182 0.03371 0.0
C499 C 0.86113 0.79118 0.04554 0.0
H500 H 0.81869 0.86032 0.04428 0.0
Co501 Co 0.87357 0.84396 0.0029 0.0
C502 C 0.94075 0.81303 -0.01175 0.0
O503 O 0.951 0.84467 0.9854 0.0
N504 N 0.88925 0.86734 0.9707 0.0
C505 C 0.9057 0.9045 0.938 0.0
C506 C 0.89739 0.90024 0.96599 0.0
C507 C 0.89225 0.85244 0.94508 0.0
N508 N 0.90246 0.87431 0.92484 0.0
O509 O 0.83867 0.82192 0.98094 0.0
H510 H 0.89683 0.92039 0.98136 0.0
H511 H 0.88723 0.82573 0.94152 0.0
O512 O 0.90904 0.80708 -0.00515 0.0
C513 C 0.811 0.83939 0.98125 0.0
O514 O 0.81384 0.87243 0.98469 0.0
N515 N 0.90439 0.86615 0.02758 0.0
C516 C 0.93862 0.89462 0.0735 0.0
C517 C 0.94343 0.86058 0.06642 0.0
C518 C 0.92558 0.8467 0.04402 0.0
C519 C 0.89821 0.89918 0.03499 0.0
C520 C 0.91602 0.9144 0.05746 0.0
H521 H 0.9274 0.81959 0.04139 0.0
H522 H 0.87793 0.91321 0.0247 0.0
H523 H 0.88105 0.77398 0.03862 0.0
H524 H 0.7996 0.81793 0.08432 0.0
H525 H 0.91252 0.92828 0.92803 0.0
H526 H 0.96027 0.84437 0.07872 0.0
H527 H 0.91107 0.94066 0.06302 0.0
C528 C 0.60551 0.61253 0.80281 0.0
C529 C 0.58259 0.60648 0.82397 0.0
N530 N 0.55351 0.62339 0.81796 0.0
N531 N 0.59115 0.63327 0.78349 0.0
C532 C 0.55933 0.63969 0.79329 0.0
H533 H 0.63113 0.60216 0.80145 0.0
Co534 Co 0.6147 0.64282 0.75074 0.0
C535 C 0.58646 0.7059 0.72529 0.0
O536 O 0.61828 0.71281 0.71827 0.0
N537 N 0.6398 0.64989 0.71752 0.0
C538 C 0.6801 0.65673 0.68482 0.0
C539 C 0.67301 0.65829 0.71327 0.0
C540 C 0.62743 0.64326 0.69147 0.0
N541 N 0.65137 0.64695 0.67126 0.0
O542 O 0.59094 0.60514 0.7336 0.0
H543 H 0.69129 0.66458 0.72958 0.0
H544 H 0.60117 0.63577 0.68741 0.0
O545 O 0.57979 0.67754 0.73795 0.0
C546 C 0.61064 0.58011 0.73931 0.0
O547 O 0.6421 0.58683 0.74767 0.0
N548 N 0.63923 0.6758 0.77097 0.0
C549 C 0.65829 0.69496 0.82516 0.0
C550 C 0.63279 0.71288 0.8107 0.0
C551 C 0.62305 0.70246 0.78391 0.0
C552 C 0.66757 0.66157 0.78312 0.0
C553 C 0.67747 0.6706 0.81048 0.0
H554 H 0.59923 0.71268 0.77639 0.0
H555 H 0.67904 0.63926 0.77371 0.0
H556 H 0.54076 0.65545 0.78246 0.0
H557 H 0.58728 0.59146 0.84271 0.0
H558 H 0.70472 0.66136 0.67502 0.0
H559 H 0.61805 0.73262 0.82105 0.0
H560 H 0.69751 0.65625 0.82091 0.0
C561 C 0.65916 0.36251 0.04838 0.0
C562 C 0.6666 0.34072 0.06999 0.0
N563 N 0.6556 0.30951 0.06265 0.0
N564 N 0.64313 0.34536 0.02755 0.0
C565 C 0.64125 0.313 0.0368 0.0
H566 H 0.66629 0.38903 0.04747 0.0
Co567 Co 0.63433 0.36496 -0.00713 0.0
C568 C 0.57029 0.33481 0.97012 0.0
O569 O 0.56318 0.36548 0.96086 0.0
N570 N 0.62766 0.38559 0.9576 0.0
C571 C 0.61861 0.421 0.92183 0.0
C572 C 0.62008 0.41806 0.9507 0.0
C573 C 0.63121 0.36953 0.93255 0.0
N574 N 0.6256 0.3904 0.91047 0.0
O575 O 0.67159 0.33861 0.97808 0.0
H576 H 0.61567 0.43857 0.96534 0.0
H577 H 0.63694 0.34271 0.93061 0.0
O578 O 0.59901 0.32957 0.98302 0.0
C579 C 0.69749 0.35755 0.98302 0.0
O580 O 0.69183 0.38955 -0.01044 0.0
N581 N 0.60136 0.39236 0.01059 0.0
C582 C 0.57983 0.4204 0.06123 0.0
C583 C 0.56259 0.39255 0.04966 0.0
C584 C 0.57427 0.37832 0.02475 0.0
C585 C 0.6151 0.42244 0.01962 0.0
C586 C 0.60469 0.43702 0.04513 0.0
H587 H 0.56482 0.3533 0.02017 0.0
H588 H 0.63809 0.43213 0.00975 0.0
H589 H 0.63061 0.29232 0.0245 0.0
H590 H 0.67893 0.34745 0.0897 0.0
H591 H 0.61318 0.444 0.91014 0.0
H592 H 0.54281 0.37941 0.06145 0.0
H593 H 0.61858 0.45863 0.05355 0.0
C594 C 0.97313 0.40228 0.31206 0.0
C595 C 0.9995 0.40283 0.33116 0.0
N596 N 0.02557 0.38428 0.32069 0.0
N597 N 0.9824 0.38365 0.28946 0.0
C598 C 0.01454 0.3728 0.29532 0.0
H599 H 0.94833 0.41412 0.31479 0.0
Co600 Co 0.95296 0.37781 0.25907 0.0
C601 C 0.97927 0.32017 0.22504 0.0
O602 O 0.94697 0.31326 0.21965 0.0
N603 N 0.92237 0.37393 0.22808 0.0
C604 C 0.87822 0.36693 0.19873 0.0
C605 C 0.88914 0.36424 0.22629 0.0
C606 C 0.93067 0.38294 0.20138 0.0
N607 N 0.90441 0.37877 0.1831 0.0
O608 O 0.97017 0.42012 0.24383 0.0
H609 H 0.87344 0.35573 0.24358 0.0
H610 H 0.95594 0.39169 0.19536 0.0
O611 O 0.98681 0.34761 0.23882 0.0
C612 C 0.94873 0.44112 0.2546 0.0
O613 O 0.92092 0.42865 0.26638 0.0
N614 N 0.9346 0.33997 0.27781 0.0
C615 C 0.91217 0.29581 0.31966 0.0
C616 C 0.94257 0.2893 0.30518 0.0
C617 C 0.95399 0.31231 0.28514 0.0
C618 C 0.90498 0.34675 0.29205 0.0
C619 C 0.89309 0.32482 0.31303 0.0
H620 H 0.97992 0.30919 0.27788 0.0
H621 H 0.89173 0.37051 0.28853 0.0
H622 H 0.02928 0.35639 0.2816 0.0
H623 H 0.99883 0.4145 0.35186 0.0
H624 H 0.85279 0.36107 0.19091 0.0
H625 H 0.95877 0.26798 0.31091 0.0
H626 H 0.86998 0.33105 0.32459 0.0
C627 C 0.85126 0.68454 0.5482 0.0
C628 C 0.84102 0.7058 0.56948 0.0
N629 N 0.86041 0.73417 0.56848 0.0
N630 N 0.87686 0.69933 0.53371 0.0
C631 C 0.88191 0.72958 0.54636 0.0
H632 H 0.8405 0.65988 0.54332 0.0
Co633 Co 0.89455 0.67898 0.50208 0.0
C634 C 0.96213 0.70971 0.48886 0.0
O635 O 0.97166 0.67808 0.48462 0.0
N636 N 0.9103 0.65741 0.46896 0.0
C637 C 0.92596 0.62218 0.43452 0.0
C638 C 0.91981 0.62513 0.46298 0.0
C639 C 0.91084 0.67334 0.44371 0.0
N640 N 0.92009 0.65256 0.42243 0.0
O641 O 0.85943 0.70196 0.48086 0.0
H642 H 0.92142 0.6044 0.47771 0.0
H643 H 0.90411 0.69982 0.44101 0.0
O644 O 0.93055 0.71592 0.49578 0.0
C645 C 0.8349 0.6806 0.47858 0.0
O646 O 0.84068 0.64882 0.48565 0.0
N647 N 0.92462 0.65491 0.52554 0.0
C648 C 0.95912 0.62 0.56767 0.0
C649 C 0.96491 0.65462 0.56368 0.0
C650 C 0.94681 0.6718 0.54301 0.0
C651 C 0.9169 0.62162 0.53064 0.0
C652 C 0.93479 0.60317 0.55113 0.0
H653 H 0.94956 0.69904 0.54219 0.0
H654 H 0.89585 0.60967 0.51955 0.0
H655 H 0.90143 0.74739 0.53978 0.0
H656 H 0.82088 0.70049 0.5845 0.0
H657 H 0.93262 0.59902 0.42347 0.0
H658 H 0.98279 0.66847 0.57695 0.0
H659 H 0.92897 0.57658 0.55462 0.0
C660 C 0.57946 0.42454 0.6724 0.0
C661 C 0.55638 0.43493 0.65242 0.0
N662 N 0.52845 0.41476 0.65396 0.0
N663 N 0.56629 0.39813 0.68676 0.0
C664 C 0.53513 0.39275 0.67528 0.0
H665 H 0.60446 0.43553 0.67628 0.0
Co666 Co 0.59051 0.37956 0.71621 0.0
C667 C 0.5583 0.31495 0.73344 0.0
O668 O 0.59007 0.30404 0.73537 0.0
N669 N 0.61648 0.36315 0.74707 0.0
C670 C 0.65729 0.35002 0.7782 0.0
C671 C 0.64944 0.3529 0.74994 0.0
C672 C 0.60495 0.36569 0.77385 0.0
N673 N 0.6293 0.35863 0.79315 0.0
O674 O 0.57232 0.41534 0.7393 0.0
H675 H 0.66757 0.34941 0.73308 0.0
H676 H 0.57934 0.37414 0.77912 0.0
O677 O 0.55272 0.3463 0.72649 0.0
C678 C 0.59524 0.43844 0.74041 0.0
O679 O 0.62603 0.43155 0.73074 0.0
N680 N 0.60942 0.34828 0.69068 0.0
C681 C 0.6349 0.31409 0.64381 0.0
C682 C 0.6011 0.30913 0.65254 0.0
C683 C 0.58865 0.32699 0.67549 0.0
C684 C 0.64209 0.35446 0.68171 0.0
C685 C 0.65583 0.33675 0.65873 0.0
H686 H 0.56157 0.32505 0.67964 0.0
H687 H 0.65697 0.3745 0.69143 0.0
H688 H 0.51834 0.37243 0.68192 0.0
H689 H 0.56045 0.45544 0.63765 0.0
H690 H 0.68231 0.34445 0.78701 0.0
H691 H 0.58401 0.29217 0.6412 0.0
H692 H 0.68185 0.34182 0.65194 0.0
C693 C 0.86294 0.35719 0.93399 0.0
C694 C 0.86122 0.33906 0.90944 0.0
N695 N 0.88581 0.31516 0.91021 0.0
N696 N 0.88865 0.34504 0.95017 0.0
C697 C 0.90216 0.31908 0.93519 0.0
H698 H 0.84692 0.3786 0.93952 0.0
Co699 Co 0.89828 0.36729 0.9835 0.0
C700 C 0.96319 0.34076 0.00811 0.0
O701 O 0.96801 0.37137 0.0184 0.0
N702 N 0.90523 0.39135 0.01743 0.0
C703 C 0.91382 0.43103 0.0502 0.0
C704 C 0.91244 0.42456 0.02162 0.0
C705 C 0.90158 0.37845 0.04372 0.0
N706 N 0.90689 0.40193 0.06404 0.0
O707 O 0.86387 0.33986 0.00105 0.0
H708 H 0.91638 0.44304 0.00509 0.0
H709 H 0.89594 0.35198 0.04785 0.0
O710 O 0.93576 0.33448 -0.00628 0.0
C711 C 0.83625 0.35714 0.00157 0.0
O712 O 0.8377 0.38966 -0.00459 0.0
N713 N 0.92886 0.39502 0.96307 0.0
C714 C 0.94707 0.4139 0.90852 0.0
C715 C 0.96858 0.393 0.92455 0.0
C716 C 0.95878 0.38331 0.95151 0.0
C717 C 0.91082 0.41998 0.94964 0.0
C718 C 0.9191 0.42941 0.92199 0.0
H719 H 0.97337 0.36306 0.96058 0.0
H720 H 0.88668 0.42844 0.95842 0.0
H721 H 0.92421 0.30436 0.94183 0.0
H722 H 0.84354 0.34328 0.89214 0.0
H723 H 0.91896 0.45537 0.06001 0.0
H724 H 0.99136 0.38165 0.91546 0.0
H725 H 0.90188 0.44606 0.91057 0.0
C726 C 0.9359 0.58943 0.18686 0.0
C727 C 0.95357 0.57481 0.16512 0.0
N728 N 0.98181 0.59361 0.1603 0.0
N729 N 0.95282 0.61722 0.19591 0.0
C730 C 0.98093 0.61917 0.17949 0.0
H731 H 0.912 0.58042 0.19568 0.0
Co732 Co 0.93434 0.64008 0.22595 0.0
C733 C 0.9661 0.70755 0.2328 0.0
O734 O 0.93421 0.71805 0.2349 0.0
N735 N 0.91389 0.66069 0.25784 0.0
C736 C 0.87847 0.67965 0.29114 0.0
C737 C 0.88179 0.67224 0.26293 0.0
C738 C 0.92951 0.66196 0.2833 0.0
N739 N 0.90845 0.6727 0.30399 0.0
O740 O 0.95891 0.60883 0.24958 0.0
H741 H 0.86122 0.67397 0.24785 0.0
H742 H 0.95566 0.65379 0.2868 0.0
O743 O 0.97216 0.67556 0.22849 0.0
C744 C 0.93954 0.58458 0.25746 0.0
O745 O 0.90619 0.58829 0.25483 0.0
N746 N 0.90961 0.66677 0.20003 0.0
C747 C 0.87484 0.69496 0.15445 0.0
C748 C 0.91 0.70012 0.15773 0.0
C749 C 0.92699 0.68532 0.18026 0.0
C750 C 0.87569 0.65954 0.19596 0.0
C751 C 0.85734 0.67451 0.17379 0.0
H752 H 0.95454 0.68756 0.18079 0.0
H753 H 0.86308 0.6411 0.20929 0.0
H754 H 0.99957 0.63948 0.18093 0.0
H755 H 0.94589 0.55235 0.15352 0.0
H756 H 0.85504 0.68725 0.30163 0.0
H757 H 0.92441 0.71517 0.1427 0.0
H758 H 0.83025 0.66922 0.17118 0.0
C759 C 0.64945 0.68203 0.42211 0.0
C760 C 0.65034 0.70705 0.40213 0.0
N761 N 0.63234 0.73374 0.41195 0.0
N762 N 0.63108 0.69296 0.4444 0.0
C763 C 0.6208 0.72458 0.43764 0.0
H764 H 0.66103 0.65715 0.42036 0.0
Co765 Co 0.62594 0.66678 0.47595 0.0
C766 C 0.56591 0.69311 0.50826 0.0
O767 O 0.56086 0.66148 0.51601 0.0
N768 N 0.62313 0.63921 0.50802 0.0
C769 C 0.61902 0.59786 0.53983 0.0
C770 C 0.61533 0.60603 0.51169 0.0
C771 C 0.6319 0.65035 0.53399 0.0
N772 N 0.62965 0.62585 0.55369 0.0
O773 O 0.6668 0.68837 0.49095 0.0
H774 H 0.60758 0.58865 0.49526 0.0
H775 H 0.6391 0.67637 0.53847 0.0
O776 O 0.59303 0.70047 0.49377 0.0
C777 C 0.69121 0.66984 0.48156 0.0
O778 O 0.68321 0.64018 0.47055 0.0
N779 N 0.58923 0.64485 0.4575 0.0
C780 C 0.5526 0.62403 0.40991 0.0
C781 C 0.54163 0.65182 0.42585 0.0
C782 C 0.56086 0.66252 0.44878 0.0
C783 C 0.59869 0.61597 0.44352 0.0
C784 C 0.58059 0.60494 0.41964 0.0
H785 H 0.55506 0.68756 0.45636 0.0
H786 H 0.62267 0.60368 0.44879 0.0
H787 H 0.60495 0.74039 0.45101 0.0
H788 H 0.66189 0.70519 0.38143 0.0
H789 H 0.61474 0.57317 0.54925 0.0
H790 H 0.52003 0.66719 0.41916 0.0
H791 H 0.59015 0.58349 0.40766 0.0
C792 C 0.47314 0.45099 0.18568 0.0
C793 C 0.49673 0.46234 0.16674 0.0
N794 N 0.52456 0.44212 0.16823 0.0
N795 N 0.4859 0.42406 0.1997 0.0
C796 C 0.5174 0.41916 0.18875 0.0
H797 H 0.44718 0.46023 0.18764 0.0
Co798 Co 0.45808 0.40207 0.22519 0.0
C799 C 0.47506 0.32871 0.22655 0.0
O800 O 0.44189 0.32364 0.22372 0.0
N801 N 0.42889 0.38208 0.25199 0.0
C802 C 0.38658 0.36956 0.28174 0.0
C803 C 0.39446 0.38202 0.25539 0.0
C804 C 0.44108 0.36941 0.27651 0.0
N805 N 0.41609 0.36205 0.29508 0.0
O806 O 0.48538 0.42046 0.25547 0.0
H807 H 0.37593 0.39251 0.241 0.0
H808 H 0.46816 0.36718 0.28116 0.0
O809 O 0.48684 0.35941 0.2264 0.0
C810 C 0.49119 0.45121 0.26261 0.0
O811 O 0.51353 0.45721 0.28279 0.0
N812 N 0.43246 0.38544 0.19407 0.0
C813 C 0.39984 0.36718 0.14389 0.0
C814 C 0.43349 0.35697 0.14924 0.0
C815 C 0.44945 0.36678 0.17408 0.0
C816 C 0.40061 0.39802 0.18809 0.0
C817 C 0.38318 0.3881 0.1635 0.0
H818 H 0.47612 0.36015 0.17662 0.0
H819 H 0.38923 0.41696 0.20164 0.0
H820 H 0.53362 0.39789 0.19436 0.0
H821 H 0.49203 0.48164 0.15094 0.0
H822 H 0.3613 0.3689 0.29115 0.0
H823 H 0.44745 0.34134 0.13432 0.0
H824 H 0.35752 0.39747 0.15944 0.0
C825 C 0.35465 0.69839 0.92099 0.0
C826 C 0.35326 0.72394 0.90149 0.0
N827 N 0.37219 0.7501 0.91118 0.0
N828 N 0.37421 0.70845 0.94291 0.0
C829 C 0.38458 0.74013 0.93644 0.0
H830 H 0.34312 0.67353 0.91893 0.0
Co831 Co 0.38198 0.68051 0.9731 0.0
C832 C 0.44235 0.70718 0.00464 0.0
O833 O 0.44922 0.67514 0.00989 0.0
N834 N 0.38752 0.65114 0.004 0.0
C835 C 0.3951 0.60823 0.03392 0.0
C836 C 0.39697 0.61816 0.00611 0.0
C837 C 0.37956 0.66034 0.03067 0.0
N838 N 0.38398 0.63485 0.04924 0.0
O839 O 0.34023 0.69841 -0.0104 0.0
H840 H 0.40473 0.60202 -0.01112 0.0
H841 H 0.37137 0.6857 0.03643 0.0
O842 O 0.41396 0.71472 -0.00817 0.0
C843 C 0.31763 0.67761 0.98024 0.0
O844 O 0.32843 0.64879 0.96933 0.0
N845 N 0.41917 0.66195 0.95301 0.0
C846 C 0.45845 0.64271 0.90658 0.0
C847 C 0.46594 0.67249 0.92135 0.0
C848 C 0.44559 0.68208 0.9439 0.0
C849 C 0.41204 0.63231 0.93917 0.0
C850 C 0.43184 0.62179 0.91615 0.0
H851 H 0.44909 0.70763 0.9514 0.0
H852 H 0.38902 0.61829 0.94428 0.0
H853 H 0.40173 0.75511 0.94942 0.0
H854 H 0.3412 0.7225 0.88092 0.0
H855 H 0.40106 0.58325 0.04214 0.0
H856 H 0.48613 0.68947 0.91441 0.0
H857 H 0.42492 0.59888 0.90479 0.0
C858 C 0.11172 0.5964 0.66662 0.0
C859 C 0.09074 0.58385 0.6459 0.0
N860 N 0.05954 0.59818 0.64885 0.0
N861 N 0.09397 0.61858 0.68254 0.0
C862 C 0.06221 0.61915 0.67143 0.0
H863 H 0.13801 0.58897 0.67058 0.0
Co864 Co 0.11231 0.63452 0.71551 0.0
C865 C 0.08208 0.70166 0.72943 0.0
O866 O 0.11403 0.71037 0.73462 0.0
N867 N 0.13184 0.64791 0.74989 0.0
C868 C 0.16454 0.65979 0.78713 0.0
C869 C 0.16431 0.65428 0.75842 0.0
C870 C 0.11311 0.64943 0.77378 0.0
N871 N 0.13221 0.65654 0.79672 0.0
O872 O 0.08575 0.60032 0.73431 0.0
H873 H 0.18676 0.65396 0.74522 0.0
H874 H 0.08571 0.64512 0.77421 0.0
O875 O 0.07549 0.67082 0.72135 0.0
C876 C 0.10103 0.5716 0.73425 0.0
O877 O 0.13449 0.57145 0.73086 0.0
N878 N 0.13876 0.66502 0.69389 0.0
C879 C 0.17301 0.69748 0.65009 0.0
C880 C 0.13832 0.70352 0.65472 0.0
C881 C 0.12155 0.68647 0.67607 0.0
C882 C 0.17266 0.65814 0.68917 0.0
C883 C 0.19068 0.67484 0.66762 0.0
H884 H 0.094 0.68863 0.67643 0.0
H885 H 0.18513 0.63781 0.70053 0.0
H886 H 0.04161 0.63446 0.67989 0.0
H887 H 0.09796 0.56524 0.63017 0.0
H888 H 0.18702 0.6643 0.80005 0.0
H889 H 0.12378 0.72016 0.64093 0.0
H890 H 0.21741 0.66893 0.66383 0.0
C891 C 0.20423 0.25882 0.44648 0.0
C892 C 0.20836 0.23311 0.42755 0.0
N893 N 0.18202 0.21122 0.43041 0.0
N894 N 0.17606 0.25311 0.46211 0.0
C895 C 0.16296 0.22375 0.45196 0.0
H896 H 0.21868 0.28216 0.44651 0.0
Co897 Co 0.16043 0.28703 0.48577 0.0
C898 C 0.08599 0.2753 0.49675 0.0
O899 O 0.08151 0.30792 0.49218 0.0
N900 N 0.14643 0.32255 0.51047 0.0
C901 C 0.13139 0.37142 0.53103 0.0
C902 C 0.13903 0.35574 0.50586 0.0
C903 C 0.14311 0.31905 0.53881 0.0
N904 N 0.13425 0.3483 0.55172 0.0
O905 O 0.18262 0.2645 0.51688 0.0
H906 H 0.13885 0.3684 0.48576 0.0
H907 H 0.14668 0.29535 0.54996 0.0
O908 O 0.11638 0.26243 0.49469 0.0
C909 C 0.21434 0.25916 0.52221 0.0
O910 O 0.22229 0.24038 0.54417 0.0
N911 N 0.14069 0.30788 0.45358 0.0
C912 C 0.11813 0.33409 0.40202 0.0
C913 C 0.10415 0.30412 0.41285 0.0
C914 C 0.11618 0.29116 0.43821 0.0
C915 C 0.15676 0.33545 0.44215 0.0
C916 C 0.14509 0.34975 0.41679 0.0
H917 H 0.10618 0.26693 0.44481 0.0
H918 H 0.17865 0.3465 0.45283 0.0
H919 H 0.13833 0.21369 0.45833 0.0
H920 H 0.22671 0.23323 0.41043 0.0
H921 H 0.125 0.39798 0.53395 0.0
H922 H 0.08363 0.29085 0.40202 0.0
H923 H 0.15721 0.37251 0.40868 0.0
C924 C 0.42857 0.5852 0.28689 0.0
C925 C 0.4507 0.57828 0.30849 0.0
N926 N 0.47418 0.60335 0.30967 0.0
N927 N 0.43787 0.61441 0.27427 0.0
C928 C 0.46583 0.62508 0.28854 0.0
H929 H 0.40639 0.57024 0.28104 0.0
Co930 Co 0.41137 0.62915 0.24462 0.0
C931 C 0.43269 0.69852 0.22702 0.0
O932 O 0.39973 0.70428 0.22374 0.0
N933 N 0.3833 0.64109 0.21411 0.0
C934 C 0.3402 0.64876 0.1839 0.0
C935 C 0.34908 0.64603 0.21202 0.0
C936 C 0.3945 0.64108 0.1872 0.0
N937 N 0.36891 0.64515 0.16843 0.0
O938 O 0.43669 0.59834 0.22131 0.0
H939 H 0.33137 0.64621 0.22951 0.0
H940 H 0.42104 0.63718 0.18139 0.0
O941 O 0.4427 0.6688 0.23541 0.0
C942 C 0.4215 0.56962 0.2196 0.0
O943 O 0.38804 0.56913 0.22299 0.0
N944 N 0.38636 0.65527 0.27051 0.0
C945 C 0.3661 0.6678 0.32593 0.0
C946 C 0.39056 0.68842 0.31285 0.0
C947 C 0.40108 0.68117 0.28559 0.0
C948 C 0.35998 0.63712 0.28193 0.0
C949 C 0.3494 0.64292 0.30974 0.0
H950 H 0.42408 0.69371 0.27886 0.0
H951 H 0.35013 0.61515 0.27081 0.0
H952 H 0.47924 0.64849 0.2839 0.0
H953 H 0.44847 0.55729 0.32311 0.0
H954 H 0.3145 0.65128 0.17547 0.0
H955 H 0.40361 0.70844 0.32434 0.0
H956 H 0.33041 0.6263 0.31906 0.0
C957 C 0.15602 0.66663 0.03804 0.0
C958 C 0.17108 0.68188 0.06076 0.0
N959 N 0.15741 0.71309 0.06363 0.0
N960 N 0.13287 0.68791 0.02649 0.0
C961 C 0.13428 0.7163 0.0424 0.0
H962 H 0.16203 0.64164 0.0299 0.0
Co963 Co 0.11313 0.67333 -0.00642 0.0
C964 C 0.04722 0.70855 0.98309 0.0
O965 O 0.03633 0.67803 0.97632 0.0
N966 N 0.09594 0.65617 0.95907 0.0
C967 C 0.07879 0.62255 0.92395 0.0
C968 C 0.08138 0.62588 0.95271 0.0
C969 C 0.10132 0.67085 0.93367 0.0
N970 N 0.09184 0.6507 0.912 0.0
O971 O 0.14855 0.69811 0.97433 0.0
H972 H 0.07403 0.60653 0.96756 0.0
H973 H 0.11337 0.69539 0.93103 0.0
O974 O 0.07894 0.7125 -0.00923 0.0
C975 C 0.17334 0.67797 0.96899 0.0
O976 O 0.16797 0.64509 0.97105 0.0
N977 N 0.08245 0.64784 0.01551 0.0
C978 C 0.05494 0.6127 0.0609 0.0
C979 C 0.04678 0.64676 0.05658 0.0
C980 C 0.06154 0.66411 0.03437 0.0
C981 C 0.09074 0.61443 0.01959 0.0
C982 C 0.07669 0.59602 0.04203 0.0
H983 H 0.05873 0.69133 0.03447 0.0
H984 H 0.11028 0.60271 0.00663 0.0
H985 H 0.11868 0.7386 0.03859 0.0
H986 H 0.19086 0.67091 0.07396 0.0
H987 H 0.07012 0.60013 0.91276 0.0
H988 H 0.03096 0.66053 0.07153 0.0
H989 H 0.08423 0.56986 0.04554 0.0
C990 C 0.02972 0.45338 0.76839 0.0
C991 C 1.0065 0.45912 0.78929 0.0
N992 N 0.9897 0.42994 0.7945 0.0
N993 N 0.02743 0.42095 0.75948 0.0
C994 C 1.0027 0.40708 0.77584 0.0
H995 H 0.04976 0.4708 0.76261 0.0
Co996 Co 0.06146 0.40468 0.73559 0.0
C997 C 0.05562 0.32949 0.73015 0.0
O998 O 0.08905 0.32858 0.73364 0.0
N999 N 0.09658 0.39033 0.71076 0.0
C1000 C 0.14555 0.3786 0.68846 0.0
C1001 C 0.13108 0.38859 0.71369 0.0
C1002 C 0.09097 0.38134 0.68356 0.0
N1003 N 0.12016 0.37438 0.66954 0.0
O1004 O 0.03528 0.42067 0.70379 0.0
H1005 H 0.14526 0.39466 0.73258 0.0
H1006 H 0.06579 0.37984 0.67401 0.0
O1007 O 0.03979 0.35833 0.73137 0.0
C1008 C 0.03108 0.4508 0.69427 0.0
O1009 O 1.00953 0.45537 0.67328 0.0
N1010 N 0.08607 0.3915 0.76814 0.0
C1011 C 0.11303 0.38497 0.82263 0.0
C1012 C 0.08759 0.36282 0.81281 0.0
C1013 C 0.07391 0.36703 0.786 0.0
C1014 C 0.11053 0.41372 0.77741 0.0
C1015 C 0.12484 0.41059 0.80445 0.0
H1016 H 0.05196 0.35172 0.78074 0.0
H1017 H 0.11797 0.43486 0.76418 0.0
H1018 H 0.99653 0.38027 0.77574 0.0
H1019 H 1.00533 0.48194 0.80204 0.0
H1020 H 0.17266 0.37591 0.68409 0.0
H1021 H 0.07762 0.34258 0.82592 0.0
H1022 H 0.144 0.42872 0.81135 0.0
C1023 C 0.33933 0.32295 0.52866 0.0
C1024 C 0.3232 0.30686 0.55036 0.0
N1025 N 0.34051 0.27808 0.55598 0.0
N1026 N 0.3664 0.30434 0.52009 0.0
C1027 C 0.3666 0.2769 0.53711 0.0
H1028 H 0.33196 0.34708 0.51957 0.0
Co1029 Co 0.39039 0.32274 0.49053 0.0
C1030 C 0.45948 0.29134 0.48513 0.0
O1031 O 0.47014 0.32298 0.48449 0.0
N1032 N 0.41202 0.34374 0.45943 0.0
C1033 C 0.4378 0.37926 0.42963 0.0
C1034 C 0.42916 0.37359 0.45725 0.0
C1035 C 0.41082 0.33191 0.43263 0.0
N1036 N 0.42598 0.35312 0.41417 0.0
O1037 O 0.35985 0.29805 0.46611 0.0
H1038 H 0.43537 0.39066 0.47425 0.0
H1039 H 0.39865 0.30832 0.42654 0.0
O1040 O 0.42697 0.28528 0.48838 0.0
C1041 C 0.33138 0.31345 0.46204 0.0
O1042 O 0.33237 0.34674 0.45973 0.0
N1043 N 0.41603 0.34717 0.51727 0.0
C1044 C 0.44007 0.38061 0.56505 0.0
C1045 C 0.44667 0.34608 0.56112 0.0
C1046 C 0.43392 0.32973 0.53746 0.0
C1047 C 0.40759 0.38045 0.52169 0.0
C1048 C 0.4205 0.39816 0.54503 0.0
H1049 H 0.43686 0.30252 0.53645 0.0
H1050 H 0.39013 0.39309 0.50736 0.0
H1051 H 0.38626 0.25748 0.53658 0.0
H1052 H 0.301 0.31616 0.56167 0.0
H1053 H 0.4505 0.40162 0.42142 0.0
H1054 H 0.46124 0.33163 0.57648 0.0
H1055 H 0.41438 0.42479 0.5479 0.0
C1056 C 0.16028 0.20943 0.09729 0.0
C1057 C 0.14069 0.18961 0.07855 0.0
H1058 H 0.17551 0.21824 0.14016 0.0
C1059 C 0.12 0.16353 0.08957 0.0
H1060 H 0.17669 0.22949 0.08944 0.0
C1061 C 0.11919 0.1572 0.11864 0.0
C1062 C 0.13946 0.17647 0.13728 0.0
H1063 H 0.10445 0.14801 0.07567 0.0
H1064 H 0.10341 0.13662 0.12645 0.0
C1065 C 0.15986 0.20278 0.12629 0.0
C1066 C 0.14271 0.84596 0.37592 0.0
C1067 C 0.11751 0.86717 0.38771 0.0
H1068 H 0.1672 0.82814 0.33844 0.0
C1069 C 0.09633 0.88611 0.3695 0.0
H1070 H 0.15968 0.83123 0.38922 0.0
C1071 C 0.10096 0.88467 0.34025 0.0
C1072 C 0.12695 0.86433 0.32856 0.0
H1073 H 0.0764 0.90238 0.37785 0.0
H1074 H 0.08485 0.90026 0.32689 0.0
C1075 C 0.14736 0.84457 0.34673 0.0
C1076 C 0.43008 0.87769 0.62936 0.0
C1077 C 0.41215 0.85672 0.64828 0.0
H1078 H 0.43965 0.8904 0.58605 0.0
C1079 C 0.39062 0.8312 0.63746 0.0
H1080 H 0.44665 0.89772 0.63714 0.0
C1081 C 0.38679 0.82691 0.60838 0.0
C1082 C 0.40411 0.8483 0.58942 0.0
H1083 H 0.37674 0.81449 0.65154 0.0
H1084 H 0.36953 0.80739 0.60075 0.0
C1085 C 0.42588 0.87369 0.60019 0.0
C1086 C 0.38666 0.19293 0.84538 0.0
C1087 C 0.4041 0.16788 0.82998 0.0
H1088 H 0.37582 0.21415 0.8857 0.0
C1089 C 0.42721 0.14634 0.84399 0.0
H1090 H 0.36903 0.2101 0.83495 0.0
C1091 C 0.43126 0.14865 0.87332 0.0
C1092 C 0.41261 0.17287 0.88888 0.0
H1093 H 0.44088 0.1268 0.83248 0.0
H1094 H 0.44837 0.13111 0.88389 0.0
C1095 C 0.3909 0.19547 0.87445 0.0
C1096 C 0.8907 0.83943 0.88237 0.0
C1097 C 0.90722 0.86725 0.89519 0.0
H1098 H 0.88046 0.81219 0.84422 0.0
C1099 C 0.92779 0.8885 0.87839 0.0
H1100 H 0.87446 0.82261 0.89446 0.0
C1101 C 0.93089 0.88271 0.84939 0.0
C1102 C 0.91351 0.85548 0.83647 0.0
H1103 H 0.94132 0.90984 0.88757 0.0
H1104 H 0.94598 0.90028 0.837 0.0
C1105 C 0.89386 0.83361 0.85341 0.0
C1106 C 0.88905 0.14972 0.63559 0.0
C1107 C 0.91161 0.13201 0.65351 0.0
H1108 H 0.87278 0.15935 0.59316 0.0
C1109 C 0.9354 0.10943 0.6414 0.0
H1110 H 0.87061 0.1675 0.64415 0.0
C1111 C 0.9367 0.10481 0.6121 0.0
C1112 C 0.91445 0.1229 0.59417 0.0
H1113 H 0.95291 0.09514 0.65458 0.0
H1114 H 0.95557 0.08753 0.60347 0.0
C1115 C 0.89054 0.14532 0.6063 0.0
C1116 C 0.64624 0.16215 0.34372 0.0
C1117 C 0.62467 0.14476 0.32479 0.0
H1118 H 0.66127 0.16984 0.3867 0.0
C1119 C 0.60062 0.12156 0.3356 0.0
H1120 H 0.66482 0.1804 0.3361 0.0
C1121 C 0.59844 0.11565 0.36461 0.0
C1122 C 0.62015 0.13289 0.38353 0.0
H1123 H 0.58387 0.10745 0.32162 0.0
H1124 H 0.57958 0.09769 0.37222 0.0
C1125 C 0.64395 0.15636 0.37275 0.0
C1126 C 0.58018 0.88702 0.10714 0.0
C1127 C 0.60242 0.86369 0.09417 0.0
H1128 H 0.56056 0.90685 0.14606 0.0
C1129 C 0.62238 0.8421 0.1112 0.0
H1130 H 0.56451 0.90389 0.0945 0.0
C1131 C 0.62031 0.84393 0.14057 0.0
C1132 C 0.59796 0.8671 0.15356 0.0
H1133 H 0.64013 0.82421 0.10182 0.0
H1134 H 0.63596 0.82697 0.15315 0.0
C1135 C 0.57777 0.88853 0.13657 0.0
C1136 C 0.6609 0.65348 0.59282 0.0
C1137 C 0.63654 0.62966 0.58335 0.0
H1138 H 0.68465 0.67771 0.6283 0.0
C1139 C 0.61816 0.61065 0.60329 0.0
H1140 H 0.67582 0.66814 0.57792 0.0
C1141 C 0.62329 0.61609 0.63211 0.0
C1142 C 0.64709 0.64048 0.64158 0.0
H1143 H 0.59917 0.59223 0.59661 0.0
H1144 H 0.60862 0.60117 0.647 0.0
C1145 C 0.6662 0.65875 0.62164 0.0
C1146 C 0.60568 0.39972 0.86173 0.0
C1147 C 0.62612 0.38169 0.88097 0.0
H1148 H 0.59084 0.40676 0.81883 0.0
C1149 C 0.64712 0.35523 0.87094 0.0
H1150 H 0.58897 0.41997 0.86881 0.0
C1151 C 0.64794 0.34733 0.84216 0.0
C1152 C 0.62756 0.36554 0.82294 0.0
H1153 H 0.66339 0.34107 0.88524 0.0
H1154 H 0.66447 0.32702 0.83491 0.0
C1155 C 0.60636 0.39175 0.83309 0.0
C1156 C 0.8836 0.36599 0.13489 0.0
C1157 C 0.90458 0.38511 0.15311 0.0
H1158 H 0.86778 0.35645 0.09233 0.0
C1159 C 0.92593 0.4103 0.14153 0.0
H1160 H 0.86706 0.34625 0.14309 0.0
C1161 C 0.92637 0.41612 0.1124 0.0
C1162 C 0.90573 0.39667 0.09415 0.0
H1163 H 0.94212 0.42571 0.15501 0.0
H1164 H 0.94335 0.43545 0.10411 0.0
C1165 C 0.88427 0.3716 0.10576 0.0
C1166 C 0.93722 0.64612 0.34489 0.0
C1167 C 0.9143 0.67039 0.33394 0.0
H1168 H 0.95733 0.62175 0.38168 0.0
C1169 C 0.89518 0.6904 0.35276 0.0
H1170 H 0.95208 0.62994 0.33107 0.0
C1171 C 0.89787 0.68533 0.38183 0.0
C1172 C 0.91976 0.66009 0.39271 0.0
H1173 H 0.87756 0.70949 0.34497 0.0
H1174 H 0.88176 0.70029 0.39564 0.0
C1175 C 0.93991 0.64105 0.37394 0.0
C1176 C 0.45201 0.36592 0.36824 0.0
C1177 C 0.42551 0.35108 0.38392 0.0
H1178 H 0.46979 0.38129 0.32782 0.0
C1179 C 0.39722 0.33696 0.36968 0.0
H1180 H 0.47421 0.37667 0.37871 0.0
C1181 C 0.39468 0.33936 0.34033 0.0
C1182 C 0.42049 0.35567 0.32476 0.0
H1183 H 0.37628 0.32558 0.38129 0.0
H1184 H 0.37216 0.32926 0.32988 0.0
C1185 C 0.44957 0.36818 0.339 0.0
C1186 C 0.39972 0.61701 0.09736 0.0
C1187 C 0.37906 0.63646 0.07929 0.0
H1188 H 0.41251 0.60443 0.13991 0.0
C1189 C 0.35418 0.6582 0.09101 0.0
H1190 H 0.41919 0.60022 0.08896 0.0
C1191 C 0.35038 0.66071 0.12028 0.0
C1192 C 0.37169 0.64187 0.1383 0.0
H1193 H 0.33759 0.67317 0.07754 0.0
H1194 H 0.33133 0.67787 0.12884 0.0
C1195 C 0.39616 0.61977 0.12654 0.0
C1196 C 0.12922 0.67381 0.87453 0.0
C1197 C 0.10014 0.65504 0.88264 0.0
H1198 H 0.16206 0.68924 0.84076 0.0
C1199 C 0.08088 0.63829 0.86182 0.0
H1200 H 0.14494 0.68666 0.89006 0.0
C1201 C 0.09104 0.6393 0.83365 0.0
C1202 C 0.12069 0.65722 0.82559 0.0
H1203 H 0.05825 0.62385 0.86739 0.0
H1204 H 0.07617 0.62506 0.81841 0.0
C1205 C 0.13937 0.67489 0.8463 0.0
C1206 C 0.14852 0.34444 0.63004 0.0
C1207 C 0.12338 0.3671 0.63988 0.0
H1208 H 0.17134 0.3203 0.59404 0.0
C1209 C 0.10158 0.38302 0.62027 0.0
H1210 H 0.16552 0.33177 0.64475 0.0
C1211 C 0.10513 0.37679 0.59139 0.0
C1212 C 0.13014 0.35405 0.58153 0.0
H1213 H 0.08223 0.40088 0.62726 0.0
H1214 H 0.08817 0.38959 0.57674 0.0
C1215 C 0.15164 0.3377 0.60114 0.0
C1216 C 0.06653 0.99256 0.23077 0.0
C1217 C 0.09028 0.97357 0.21501 0.0
H1218 H 0.04662 0.04246 0.23956 0.0
C1219 C 0.10623 0.98913 0.19173 0.0
H1220 H 0.05335 0.9811 0.24846 0.0
C1221 C 0.10238 0.0238 0.18664 0.0
C1222 C 0.08237 0.04388 0.20461 0.0
H1223 H 0.12377 0.97497 0.17845 0.0
H1224 H 0.11809 0.03555 0.17052 0.0
C1225 C 0.06246 0.02761 0.22546 0.0
C1226 C 0.2306 0.77634 0.49414 0.0
C1227 C 0.2331 0.81072 0.48626 0.0
H1228 H 0.25465 0.73395 0.51468 0.0
C1229 C 0.26378 0.82828 0.49251 0.0
H1230 H 0.20729 0.76211 0.49018 0.0
C1231 C 0.2908 0.81217 0.5068 0.0
C1232 C 0.288 0.77799 0.51487 0.0
H1233 H 0.2666 0.85488 0.48714 0.0
H1234 H 0.31364 0.82658 0.51182 0.0
C1235 C 0.2576 0.76029 0.50849 0.0
C1236 C 0.47562 0.03717 0.74009 0.0
C1237 C 0.44978 0.04966 0.72228 0.0
H1238 H 0.5031 0.99281 0.75372 0.0
C1239 C 0.43835 0.02919 0.69976 0.0
H1240 H 0.48522 0.05257 0.75735 0.0
C1241 C 0.44907 0.99548 0.69731 0.0
C1242 C 0.47136 0.98147 0.71734 0.0
H1243 H 0.41914 0.03848 0.68512 0.0
H1244 H 0.43668 0.9793 0.68181 0.0
C1245 C 0.48629 1.00313 0.73766 0.0
C1246 C 0.29689 0.2804 0.97705 0.0
C1247 C 0.29609 0.246 0.96891 0.0
H1248 H 0.27106 0.32102 -0.0015 0.0
C1249 C 0.26595 0.22716 0.97394 0.0
H1250 H 0.31968 0.29563 0.97372 0.0
C1251 C 0.23837 0.2416 -0.01151 0.0
C1252 C 0.23994 0.2754 -0.0022 0.0
H1253 H 0.26429 0.2006 0.96807 0.0
H1254 H 0.21637 0.22594 -0.0068 0.0
C1255 C 0.26922 0.29483 -0.00843 0.0
C1256 C 0.98526 0.0237 0.73869 0.0
C1257 C 0.96813 0.04245 0.75961 0.0
H1258 H 0.99578 0.97378 0.72216 0.0
C1259 C 0.95436 0.02494 0.78292 0.0
H1260 H 0.99617 0.03645 0.72056 0.0
C1261 C 0.95402 0.98953 0.78379 0.0
C1262 C 0.96804 0.97061 0.76166 0.0
H1263 H 0.94162 0.03861 0.79978 0.0
H1264 H 0.94026 0.97694 0.80067 0.0
C1265 C 0.98522 0.98787 0.73975 0.0
C1266 C 0.78872 0.18386 0.47929 0.0
C1267 C 0.80338 0.1661 0.50221 0.0
H1268 H 0.74256 0.1944 0.45546 0.0
C1269 C 0.78155 0.14955 0.52114 0.0
H1270 H 0.80511 0.19606 0.46389 0.0
C1271 C 0.74625 0.14841 0.51625 0.0
C1272 C 0.73166 0.16344 0.49206 0.0
H1273 H 0.7921 0.13515 0.53861 0.0
H1274 H 0.73054 0.13377 0.53065 0.0
C1275 C 0.75298 0.18266 0.47428 0.0
C1276 C 0.53768 0.03826 0.24633 0.0
C1277 C 0.55911 0.04819 0.22409 0.0
H1278 H 0.51371 0.99623 0.26735 0.0
C1279 C 0.56602 0.02475 0.20232 0.0
H1280 H 0.53178 0.05584 0.26325 0.0
C1281 C 0.55487 0.99108 0.20422 0.0
C1282 C 0.53673 0.98017 0.22797 0.0
H1283 H 0.5819 0.0319 0.18454 0.0
H1284 H 0.56365 0.97284 0.18866 0.0
C1285 C 0.52685 1.00433 0.24838 0.0
C1286 C 0.77599 0.78802 -0.00509 0.0
C1287 C 0.77787 0.82308 -0.01063 0.0
H1288 H 0.74642 0.74705 0.01226 0.0
C1289 C 0.74915 0.84347 -0.00399 0.0
H1290 H 0.79765 0.7716 -0.00943 0.0
C1291 C 0.71995 0.82943 0.00878 0.0
C1292 C 0.71853 0.79457 0.01475 0.0
H1293 H 0.74965 0.87063 -0.00767 0.0
H1294 H 0.69872 0.84588 0.01434 0.0
C1295 C 0.74676 0.77401 0.00761 0.0
C1296 C 0.60723 0.49071 0.76673 0.0
C1297 C 0.58739 0.47426 0.74627 0.0
H1298 H 0.62945 0.53729 0.78062 0.0
C1299 C 0.56992 0.49387 0.72594 0.0
H1300 H 0.62136 0.4761 0.78227 0.0
C1301 C 0.57505 0.52926 0.72454 0.0
C1302 C 0.59789 0.54503 0.74337 0.0
H1303 H 0.55508 0.48153 0.70952 0.0
H1304 H 0.56354 0.54361 0.70748 0.0
C1305 C 0.6123 0.5257 0.76538 0.0
C1306 C 0.77949 0.35081 0.02293 0.0
C1307 C 0.80218 0.34129 0.00155 0.0
H1308 H 0.72786 0.36265 0.03363 0.0
C1309 C 0.78888 0.32867 0.97592 0.0
H1310 H 0.78914 0.36129 0.04257 0.0
C1311 C 0.75344 0.32991 0.9705 0.0
C1312 C 0.73126 0.34351 -0.00918 0.0
H1313 H 0.80602 0.32176 0.95891 0.0
H1314 H 0.74402 0.32373 0.94959 0.0
C1315 C 0.74434 0.35181 0.01764 0.0
C1316 C 0.97168 0.53355 0.23986 0.0
C1317 C 0.95261 0.54971 0.26132 0.0
H1318 H 0.98543 0.48577 0.22043 0.0
C1319 C 0.93786 0.52988 0.28251 0.0
H1320 H 0.98295 0.54839 0.22302 0.0
C1321 C 0.93936 0.49457 0.28107 0.0
C1322 C 0.95516 0.47807 0.25812 0.0
H1323 H 0.92289 0.54165 0.29912 0.0
H1324 H 0.92616 0.48015 0.29722 0.0
C1325 C 0.97291 0.49778 0.23822 0.0
C1326 C 0.74436 0.70102 0.49859 0.0
C1327 C 0.72694 0.68208 0.47791 0.0
H1328 H 0.79371 0.71666 0.51444 0.0
C1329 C 0.74529 0.67068 0.45415 0.0
H1330 H 0.73088 0.7101 0.51708 0.0
C1331 C 0.78077 0.67471 0.45249 0.0
C1332 C 0.79881 0.69054 0.47439 0.0
H1333 H 0.73249 0.65653 0.43756 0.0
H1334 H 0.79447 0.66269 0.43527 0.0
C1335 C 0.78023 0.70509 0.49688 0.0
C1336 C 0.42271 0.50727 0.23034 0.0
C1337 C 0.44076 0.53783 0.22571 0.0
H1338 H 0.42439 0.45609 0.24599 0.0
C1339 C 0.47609 0.53871 0.23172 0.0
H1340 H 0.39543 0.50564 0.22616 0.0
C1341 C 0.49254 0.51022 0.24318 0.0
C1342 C 0.47416 0.48017 0.24855 0.0
H1343 H 0.49072 0.56185 0.22883 0.0
H1344 H 0.51959 0.51187 0.2483 0.0
C1345 C 0.43916 0.47885 0.24186 0.0
C1346 C 0.26569 0.67455 0.95023 0.0
C1347 C 0.28129 0.68702 0.97499 0.0
H1348 H 0.2189 0.66303 0.92859 0.0
C1349 C 0.26081 0.70393 -0.00506 0.0
H1350 H 0.28077 0.66188 0.93417 0.0
C1351 C 0.22489 0.70507 -0.00867 0.0
C1352 C 0.20933 0.68945 0.96774 0.0
H1353 H 0.27212 0.71374 0.01419 0.0
H1354 H 0.20919 0.71529 0.00817 0.0
C1355 C 0.23022 0.67559 0.94673 0.0
C1356 C 0.03057 0.51174 0.70956 0.0
C1357 C 0.04847 0.48086 0.70671 0.0
H1358 H 0.03259 0.56436 0.72136 0.0
C1359 C 0.08307 0.47963 0.71486 0.0
H1360 H 1.00388 0.51349 0.7033 0.0
C1361 C 0.09944 0.50865 0.72554 0.0
C1362 C 0.08173 0.53977 0.72802 0.0
H1363 H 0.0977 0.45652 0.71249 0.0
H1364 H 0.12638 0.50694 0.73098 0.0
C1365 C 0.04691 0.54079 0.72026 0.0
C1366 C 0.2987 0.26397 0.48259 0.0
C1367 C 0.29912 0.29786 0.47314 0.0
H1368 H 0.27167 0.22548 0.50563 0.0
C1369 C 0.27015 0.31838 0.47868 0.0
H1370 H 0.32058 0.24753 0.47913 0.0
C1371 C 0.24227 0.30582 0.49422 0.0
C1372 C 0.24239 0.27223 0.50411 0.0
H1373 H 0.26953 0.34471 0.47206 0.0
H1374 H 0.22088 0.32249 0.49884 0.0
C1375 C 0.27081 0.25144 0.49805 0.0
C1376 C 0.0386 0.29516 0.23041 0.0
C1377 C 1.004 0.29122 0.22313 0.0
H1378 H 0.0869 0.27105 0.23754 0.0
C1379 C 0.99193 0.25808 0.21684 0.0
H1380 H 0.04875 0.32001 0.23568 0.0
C1381 C 1.01363 0.22965 0.21851 0.0
C1382 C 0.04815 0.23365 0.22597 0.0
H1383 H 0.9653 0.2538 0.21136 0.0
H1384 H 1.00341 0.20465 0.21389 0.0
C1385 C 0.06039 0.26685 0.2316 0.0
C1386 C 0.0515 0.74982 0.48852 0.0
C1387 C 0.04427 0.78468 0.48785 0.0
H1388 H 0.03153 0.69924 0.48916 0.0
C1389 C 1.00939 0.79487 0.48814 0.0
H1390 H 0.07782 0.74098 0.48843 0.0
C1391 C 0.98259 0.77097 0.48886 0.0
C1392 C 0.98983 0.7361 0.48892 0.0
H1393 H 1.0026 0.82156 0.48789 0.0
H1394 H 0.95627 0.7798 0.48901 0.0
C1395 C 0.02471 0.72592 0.48886 0.0
C1396 C 0.50401 0.75743 0.73157 0.0
C1397 C 0.51575 0.79111 0.72742 0.0
H1398 H 0.51671 0.70435 0.73444 0.0
C1399 C 0.55061 0.79614 0.72167 0.0
H1400 H 0.47731 0.75241 0.73628 0.0
C1401 C 0.57306 0.76828 0.7201 0.0
C1402 C 0.56142 0.73465 0.72479 0.0
H1403 H 0.56055 0.82154 0.71841 0.0
H1404 H 0.59986 0.77333 0.71583 0.0
C1405 C 0.52656 0.72966 0.73054 0.0
C1406 C 0.51903 0.25373 0.98251 0.0
C1407 C 0.48508 0.26461 0.97717 0.0
H1408 H 0.57246 0.26708 0.98471 0.0
C1409 C 0.4797 0.29838 0.96894 0.0
H1410 H 0.52417 0.22786 -0.01094 0.0
C1411 C 0.50756 0.32062 0.96592 0.0
C1412 C 0.54151 0.30988 0.97156 0.0
H1413 H 0.45403 0.30755 0.96461 0.0
H1414 H 0.50227 0.34655 0.95962 0.0
C1415 C 0.54685 0.27615 0.97999 0.0
C1416 C 0.02683 0.72709 0.24255 0.0
C1417 C 0.99329 0.7342 0.23375 0.0
H1418 H 0.07643 0.74695 0.25262 0.0
C1419 C 0.98458 0.76831 0.22762 0.0
H1420 H 0.03432 0.7013 0.24764 0.0
C1421 C 1.00864 0.79464 0.23033 0.0
C1422 C 0.04204 0.78771 0.23966 0.0
H1423 H 0.95893 0.7748 0.22064 0.0
H1424 H 1.00106 0.82038 0.22514 0.0
C1425 C 0.0508 0.75352 0.24568 0.0
C1426 C 0.53644 0.74928 0.49785 0.0
C1427 C 0.53524 0.7161 0.50866 0.0
H1428 H 0.50825 0.79411 0.48676 0.0
C1429 C 0.503 0.70315 0.51719 0.0
H1430 H 0.56052 0.76004 0.4908 0.0
C1431 C 0.47284 0.72231 0.51423 0.0
C1432 C 0.47401 0.7553 0.50319 0.0
H1433 H 0.50072 0.67762 0.5255 0.0
H1434 H 0.44862 0.71129 0.52066 0.0
C1435 C 0.50629 0.7687 0.49539 0.0
C1436 C 0.47113 0.27135 0.74012 0.0
C1437 C 0.47993 0.23668 0.73668 0.0
H1438 H 0.4885 0.32335 0.74137 0.0
C1439 C 0.51436 0.22844 0.73187 0.0
H1440 H 0.44473 0.27879 0.74359 0.0
C1441 C 0.53937 0.25401 0.731 0.0
C1442 C 0.53067 0.28869 0.73442 0.0
H1443 H 0.52206 0.2022 0.72898 0.0
H1444 H 0.56571 0.24645 0.72732 0.0
C1445 C 0.49614 0.29706 0.73873 0.0
C1446 C 0.02275 0.26728 -0.01025 0.0
C1447 C 0.05488 0.28061 -0.00211 0.0
H1448 H 0.96837 0.27574 0.98635 0.0
C1449 C 0.0561 0.31253 0.01087 0.0
H1450 H 0.02102 0.24264 0.97961 0.0
C1451 C 0.02599 0.33095 0.01537 0.0
C1452 C 0.99385 0.31834 0.00638 0.0
H1453 H 0.08036 0.32332 0.01758 0.0
H1454 H 0.02824 0.35571 0.02521 0.0
C1455 C 0.99254 0.28611 -0.00632 0.0
C1456 C 0.99654 0.74874 0.73286 0.0
C1457 C 1.00699 0.78319 0.73466 0.0
H1458 H 1.01146 0.6962 0.72945 0.0
C1459 C 0.04218 0.79029 0.73395 0.0
H1460 H 0.96959 0.74207 0.73307 0.0
C1461 C 0.06617 0.7637 0.73211 0.0
C1462 C 0.0557 0.72925 0.73055 0.0
H1463 H 0.05122 0.81629 0.73512 0.0
H1464 H 0.09314 0.77031 0.73186 0.0
C1465 C 0.0205 0.7222 0.73065 0.0
C1466 C 0.9929 0.24445 0.49591 0.0
C1467 C 0.99544 0.21276 0.50934 0.0
H1468 H 0.01942 0.289 0.48152 0.0
C1469 C 0.0281 0.20244 0.5193 0.0
H1470 H 0.96849 0.25315 0.48769 0.0
C1471 C 0.05741 0.22239 0.51504 0.0
C1472 C 0.05498 0.25376 0.50133 0.0
H1473 H 0.03145 0.17823 0.52981 0.0
H1474 H 0.08198 0.21325 0.52259 0.0
C1475 C 0.02226 0.26484 0.49222 0.0
C1476 C 0.53041 0.30119 0.24212 0.0
C1477 C 0.49748 0.29836 0.23046 0.0
H1478 H 0.57577 0.27546 0.25576 0.0
C1479 C 0.48499 0.2656 0.2238 0.0
H1480 H 0.54068 0.32587 0.24779 0.0
C1481 C 0.5051 0.23648 0.22826 0.0
C1482 C 0.53813 0.23928 0.23986 0.0
H1483 H 0.45963 0.26238 0.2148 0.0
H1484 H 0.49495 0.21189 0.22223 0.0
C1485 C 0.55035 0.27207 0.24694 0.0
C1486 C 0.53426 0.73972 0.01184 0.0
C1487 C 0.53165 0.77343 0.00262 0.0
H1488 H 0.50834 0.69318 0.02076 0.0
C1489 C 0.49874 0.78606 -0.00441 0.0
H1490 H 0.55896 0.72921 0.01765 0.0
C1491 C 0.4694 0.76529 -0.00296 0.0
C1492 C 0.47205 0.73141 0.00605 0.0
H1493 H 0.49565 0.81199 -0.01165 0.0
H1494 H 0.44483 0.77558 -0.00938 0.0
C1495 C 0.50491 0.71917 0.0138 0.0
C1496 C 0.03593 0.23446 0.73333 0.0
C1497 C 1.00248 0.23293 0.72241 0.0
H1498 H 0.07872 0.26599 0.74439 0.0
C1499 C 0.98714 0.26359 0.71312 0.0
H1500 H 0.04849 0.21167 0.74091 0.0
C1501 C 1.00404 0.29488 0.7158 0.0
C1502 C 0.03711 0.29647 0.72726 0.0
H1503 H 0.96136 0.26374 0.70458 0.0
H1504 H 0.99116 0.31783 0.7089 0.0
C1505 C 0.0531 0.26578 0.73551 0.0
C1506 C 0.48001 0.2319 0.47254 0.0
C1507 C 0.48665 0.26444 0.48327 0.0
H1508 H 0.50071 0.18389 0.45983 0.0
C1509 C 0.52103 0.27278 0.49011 0.0
H1510 H 0.45413 0.22466 0.46676 0.0
C1511 C 0.54797 0.24946 0.48623 0.0
C1512 C 0.54152 0.21711 0.47497 0.0
H1513 H 0.52728 0.29763 0.49854 0.0
H1514 H 0.57381 0.2568 0.49207 0.0
C1515 C 0.50705 0.2087 0.46828 0.0
C1516 C 0.51285 0.75422 0.22804 0.0
C1517 C 0.49883 0.78744 0.22814 0.0
H1518 H 0.50344 0.70032 0.22798 0.0
C1519 C 0.46309 0.79084 0.22693 0.0
H1520 H 0.54032 0.75037 0.22912 0.0
C1521 C 0.44202 0.76191 0.22587 0.0
C1522 C 0.45601 0.7287 0.22646 0.0
H1523 H 0.45136 0.8158 0.22712 0.0
H1524 H 0.41452 0.76574 0.22523 0.0
C1525 C 0.49175 0.72529 0.22746 0.0
C1526 C 0.02895 0.77036 0.98675 0.0
C1527 C 0.02055 0.73579 0.98536 0.0
H1528 H 1.01055 0.82155 -0.0116 0.0
C1529 C 0.98536 0.72671 0.98555 0.0
H1530 H 0.05555 0.77833 0.9867 0.0
C1531 C 0.95938 0.75139 0.9868 0.0
C1532 C 0.96774 0.78598 -0.0125 0.0
H1533 H 0.97767 0.70027 0.98479 0.0
H1534 H 0.9328 0.74336 0.98686 0.0
C1535 C 1.00292 0.7951 -0.0124 0.0
C1536 C 0.19518 0.17639 0.38875 0.0
C1537 C 0.17085 0.1893 0.40788 0.0
H1538 H 0.20522 0.16059 0.34649 0.0
C1539 C 0.13591 0.18725 0.40085 0.0
H1540 H 0.22224 0.17666 0.39395 0.0
C1541 C 0.12601 0.17702 0.37387 0.0
C1542 C 0.15087 0.16932 0.35329 0.0
H1543 H 0.11635 0.19641 0.41511 0.0
H1544 H 0.09894 0.17721 0.36868 0.0
C1545 C 0.18539 0.16704 0.36153 0.0
C1546 C 0.08113 0.90104 0.62077 0.0
C1547 C 0.07148 0.91465 0.59458 0.0
H1548 H 0.0672 0.89298 0.66381 0.0
C1549 C 0.04233 0.93516 0.59264 0.0
H1550 H 0.10353 0.88485 0.62248 0.0
C1551 C 0.02107 0.93919 0.61603 0.0
C1552 C 0.02872 0.92268 0.64171 0.0
H1553 H 0.03426 0.94534 0.57245 0.0
H1554 H 0.99736 0.95296 0.6131 0.0
C1555 C 0.05999 0.90518 0.64423 0.0
C1556 C 0.37416 0.81259 0.85268 0.0
C1557 C 0.40925 0.82046 0.8521 0.0
H1558 H 0.33454 0.78407 0.87289 0.0
C1559 C 0.43046 0.81 0.87445 0.0
H1560 H 0.35725 0.82047 0.83573 0.0
C1561 C 0.41747 0.78911 0.89559 0.0
C1562 C 0.38316 0.77839 0.89453 0.0
H1563 H 0.45749 0.81641 0.87473 0.0
H1564 H 0.43493 0.77919 0.91135 0.0
C1565 C 0.36122 0.79168 0.87379 0.0
C1566 C 0.47933 0.10967 0.11631 0.0
C1567 C 0.48766 0.13206 0.13843 0.0
H1568 H 0.45256 0.10344 0.07718 0.0
C1569 C 0.46837 0.16187 0.14198 0.0
H1570 H 0.49324 0.08606 0.11364 0.0
C1571 C 0.44487 0.17156 0.12135 0.0
C1572 C 0.44048 0.15151 0.09707 0.0
H1573 H 0.474 0.17946 0.15894 0.0
H1574 H 0.43277 0.19629 0.12296 0.0
C1575 C 0.45582 0.11938 0.09565 0.0
C1576 C 0.17438 0.72375 0.1129 0.0
C1577 C 0.16424 0.73631 0.08636 0.0
H1578 H 0.18065 0.73451 0.15689 0.0
C1579 C 0.1587 0.77134 0.08306 0.0
H1580 H 0.17858 0.69688 0.11626 0.0
C1581 C 0.16051 0.79292 0.10641 0.0
C1582 C 0.16773 0.77963 0.13324 0.0
H1583 H 0.15144 0.78175 0.06278 0.0
H1584 H 0.15333 0.81938 0.10399 0.0
C1585 C 0.17594 0.74525 0.13619 0.0
C1586 C 0.40941 0.88938 0.37724 0.0
C1587 C 0.40705 0.85395 0.38006 0.0
H1588 H 0.42839 0.93089 0.35285 0.0
C1589 C 0.41775 0.83325 0.35749 0.0
H1590 H 0.40111 0.9061 0.39407 0.0
C1591 C 0.43425 0.84738 0.3342 0.0
C1592 C 0.43999 0.8826 0.3328 0.0
H1593 H 0.41516 0.80586 0.35855 0.0
H1594 H 0.44459 0.83032 0.31845 0.0
C1595 C 0.42547 0.90356 0.35372 0.0
C1596 C 0.34733 0.22358 0.58095 0.0
C1597 C 0.3362 0.25748 0.58068 0.0
H1598 H 0.36068 0.18076 0.60663 0.0
C1599 C 0.32406 0.27228 0.60585 0.0
H1600 H 0.35633 0.21151 0.5618 0.0
C1601 C 0.32632 0.25473 0.63124 0.0
C1602 C 0.34023 0.22203 0.63174 0.0
H1603 H 0.31559 0.29845 0.60646 0.0
H1604 H 0.32005 0.26774 0.65074 0.0
C1605 C 0.34923 0.20587 0.60639 0.0
C1606 C 0.0786 0.13508 0.85614 0.0
C1607 C 0.06362 0.1549 0.83472 0.0
H1608 H 0.11011 0.13463 0.8932 0.0
C1609 C 0.07475 0.18852 0.83101 0.0
H1610 H 0.07092 0.10887 0.85906 0.0
C1611 C 0.09737 0.20317 0.85041 0.0
C1612 C 0.10924 0.18438 0.87372 0.0
H1613 H 0.06374 0.20437 0.81468 0.0
H1614 H 0.10351 0.22992 0.84841 0.0
C1615 C 0.1013 0.14969 0.87549 0.0
C1616 C 0.88638 0.81434 0.60509 0.0
C1617 C 0.87465 0.80784 0.6325 0.0
H1618 H 0.89001 0.79646 0.56274 0.0
C1619 C 0.85333 0.77995 0.63751 0.0
H1620 H 0.90302 0.83583 0.60097 0.0
C1621 C 0.84663 0.7568 0.6159 0.0
C1622 C 0.86115 0.76133 0.58893 0.0
H1623 H 0.84445 0.77441 0.65868 0.0
H1624 H 0.83226 0.7342 0.62115 0.0
C1625 C 0.8794 0.79143 0.58338 0.0
C1626 C 0.98931 0.0788 0.37138 0.0
C1627 C 0.98197 0.11117 0.38217 0.0
H1628 H 1.01092 0.05008 0.33751 0.0
C1629 C 0.9878 0.13978 0.36493 0.0
H1630 H 0.98468 0.05627 0.38392 0.0
C1631 C 1.00348 0.13641 0.33862 0.0
C1632 C 1.01331 0.10425 0.32869 0.0
H1633 H 0.98123 0.16508 0.37218 0.0
H1634 H 1.00939 0.1592 0.32686 0.0
C1635 C 1.00468 0.07538 0.34486 0.0
C1636 C 0.62991 0.25583 0.07874 0.0
C1637 C 0.65638 0.27989 0.08034 0.0
H1638 H 0.6038 0.21526 0.09968 0.0
C1639 C 0.68114 0.27697 0.10191 0.0
H1640 H 0.61055 0.25733 0.06239 0.0
C1641 C 0.67724 0.25289 0.1233 0.0
C1642 C 0.64863 0.23146 0.12321 0.0
H1643 H 0.70239 0.29462 0.10319 0.0
H1644 H 0.69489 0.25295 0.14099 0.0
C1645 C 0.62604 0.2318 0.10007 0.0
C1646 C 0.58903 0.85381 0.85868 0.0
C1647 C 0.59524 0.87641 0.88115 0.0
H1648 H 0.56673 0.84633 0.81816 0.0
C1649 C 0.58938 0.91121 0.87699 0.0
H1650 H 0.59451 0.82694 0.86082 0.0
C1651 C 0.57419 0.92263 0.85199 0.0
C1652 C 0.56399 0.8994 0.83088 0.0
H1653 H 0.59437 0.92936 0.89371 0.0
H1654 H 0.56873 0.94947 0.85 0.0
C1655 C 0.57337 0.86509 0.83393 0.0
C1656 C 0.90039 0.2824 0.83739 0.0
C1657 C 0.90522 0.24763 0.84242 0.0
H1658 H 0.89064 0.3313 0.85549 0.0
C1659 C 0.90434 0.23528 0.87022 0.0
H1660 H 0.90151 0.29244 0.81613 0.0
C1661 C 0.89896 0.25763 0.89277 0.0
C1662 C 0.89376 0.29234 0.88762 0.0
H1663 H 0.90872 0.20858 0.87451 0.0
H1664 H 0.89827 0.24787 0.91412 0.0
C1665 C 0.8944 0.30452 0.85979 0.0
C1666 C 0.55414 0.12076 0.61205 0.0
C1667 C 0.54805 0.09925 0.58888 0.0
H1668 H 0.5339 0.14176 0.6501 0.0
C1669 C 0.52123 0.07573 0.58997 0.0
H1670 H 0.57493 0.13905 0.61148 0.0
C1671 C 0.49788 0.07707 0.61222 0.0
C1672 C 0.50088 0.10235 0.6332 0.0
H1673 H 0.51624 0.05892 0.57231 0.0
H1674 H 0.4759 0.06028 0.61164 0.0
C1675 C 0.53061 0.12239 0.6341 0.0
C1676 C 0.57703 0.79751 0.37651 0.0
C1677 C 0.5989 0.80814 0.35472 0.0
H1678 H 0.57096 0.76523 0.41241 0.0
C1679 C 0.63351 0.7985 0.35509 0.0
H1680 H 0.55032 0.80514 0.37681 0.0
C1681 C 0.64527 0.77586 0.37546 0.0
C1682 C 0.62262 0.76279 0.39572 0.0
H1683 H 0.65082 0.80649 0.33851 0.0
H1684 H 0.67155 0.76701 0.37445 0.0
C1685 C 0.58888 0.77502 0.39699 0.0
C1686 C 1.01244 0.93158 0.11214 0.0
C1687 C 1.01277 0.9102 0.13599 0.0
H1688 H 0.98722 0.94395 0.07324 0.0
C1689 C 0.98313 0.89157 0.14255 0.0
H1690 H 0.03437 0.94728 0.10708 0.0
C1691 C 0.95582 0.89053 0.12356 0.0
C1692 C 0.95792 0.90793 0.09775 0.0
H1693 H 0.98227 0.87516 0.16083 0.0
H1694 H 0.93483 0.87312 0.12755 0.0
C1695 C 0.98518 0.93032 0.09302 0.0
C1696 C 0.63271 0.70467 0.87279 0.0
C1697 C 0.66207 0.69983 0.85596 0.0
H1698 H 0.61285 0.72263 0.91201 0.0
C1699 C 0.69455 0.70172 0.86853 0.0
H1700 H 0.60721 0.70177 0.86397 0.0
C1701 C 0.69767 0.71237 0.8965 0.0
C1702 C 0.66843 0.72191 0.91204 0.0
H1703 H 0.71758 0.6974 0.85629 0.0
H1704 H 0.7231 0.71613 0.90519 0.0
C1705 C 0.63585 0.71582 0.90057 0.0
C1706 C 0.56106 0.40671 0.13788 0.0
C1707 C 0.54907 0.43897 0.14575 0.0
H1708 H 0.58082 0.37585 0.10464 0.0
C1709 C 0.55508 0.46672 0.12759 0.0
H1710 H 0.55748 0.38482 0.15135 0.0
C1711 C 0.56753 0.46136 0.10035 0.0
C1712 C 0.57473 0.42826 0.09131 0.0
H1713 H 0.54725 0.49214 0.13354 0.0
H1714 H 0.56893 0.48253 0.0858 0.0
C1715 C 0.5739 0.40146 0.11089 0.0
C1716 C 0.89386 0.21713 0.36163 0.0
C1717 C 0.89238 0.23011 0.38921 0.0
H1718 H 0.90112 0.22815 0.31784 0.0
C1719 C 0.8961 0.26512 0.39378 0.0
H1720 H 0.89138 0.1901 0.35776 0.0
C1721 C 0.90097 0.28695 0.37089 0.0
C1722 C 0.90279 0.27377 0.34337 0.0
H1723 H 0.89484 0.27545 0.41495 0.0
H1724 H 0.9043 0.31392 0.3747 0.0
C1725 C 0.89929 0.23876 0.33891 0.0
C1726 C 0.99804 0.60609 0.63807 0.0
C1727 C 0.03077 0.59471 0.62999 0.0
H1728 H 0.94849 0.62244 0.62392 0.0
C1729 C 0.03581 0.58354 0.60204 0.0
H1730 H 0.99284 0.61381 0.65955 0.0
C1731 C 1.01004 0.58757 0.58194 0.0
C1732 C 0.97899 0.60277 0.58952 0.0
H1733 H 0.06049 0.57445 0.59493 0.0
H1734 H 0.01563 0.58207 0.56001 0.0
C1735 C 0.97238 0.61039 0.61787 0.0
C1736 C 0.62691 0.29457 0.59448 0.0
C1737 C 0.64717 0.2953 0.61899 0.0
H1738 H 0.61419 0.26791 0.55675 0.0
C1739 C 0.67518 0.27322 0.62143 0.0
H1740 H 0.60537 0.31177 0.5921 0.0
C1741 C 0.68043 0.24813 0.60106 0.0
C1742 C 0.65764 0.24485 0.57813 0.0
H1743 H 0.6912 0.27352 0.64015 0.0
H1744 H 0.70101 0.23005 0.60417 0.0
C1745 C 0.63207 0.26952 0.57419 0.0
C1746 C 0.94688 0.44746 0.86335 0.0
C1747 C 0.9526 0.41675 0.87759 0.0
H1748 H 0.95259 0.47514 0.82489 0.0
C1749 C 0.96458 0.38852 0.86211 0.0
H1750 H 0.93713 0.46953 0.8744 0.0
C1751 C 0.97422 0.39192 0.83392 0.0
C1752 C 0.97151 0.42352 0.82041 0.0
H1753 H 0.96773 0.36393 0.87206 0.0
H1754 H 0.98583 0.37037 0.82343 0.0
C1755 C 0.95591 0.45068 0.83497 0.0
C1756 C 0.82713 0.76175 0.1148 0.0
C1757 C 0.84149 0.75806 0.08767 0.0
H1758 H 0.8261 0.74364 0.15744 0.0
C1759 C 0.86084 0.72873 0.08174 0.0
H1760 H 0.8119 0.7837 0.12035 0.0
C1761 C 0.86902 0.70594 0.10321 0.0
C1762 C 0.85745 0.71173 0.13079 0.0
H1763 H 0.87134 0.72427 0.06096 0.0
H1764 H 0.88632 0.68506 0.09872 0.0
C1765 C 0.83503 0.73869 0.13618 0.0
C1766 C 0.52853 0.58485 0.37305 0.0
C1767 C 0.53672 0.61782 0.38199 0.0
H1768 H 0.50303 0.55427 0.34223 0.0
C1769 C 0.52825 0.64554 0.36452 0.0
H1770 H 0.53517 0.56302 0.38586 0.0
C1771 C 0.50933 0.64069 0.33989 0.0
C1772 C 0.49883 0.60795 0.33199 0.0
H1773 H 0.53532 0.67124 0.37036 0.0
H1774 H 0.50149 0.66278 0.32794 0.0
C1775 C 0.50987 0.57995 0.3482 0.0
C1776 C 0.39928 0.357 0.09203 0.0
C1777 C 0.38273 0.35442 0.11823 0.0
H1778 H 0.40284 0.33873 0.04975 0.0
C1779 C 0.35348 0.33402 0.12064 0.0
H1780 H 0.42178 0.37293 0.08969 0.0
C1781 C 0.343 0.31378 0.09799 0.0
C1782 C 0.36156 0.31375 0.07244 0.0
H1783 H 0.34045 0.33154 0.14072 0.0
H1784 H 0.32186 0.29653 0.10141 0.0
C1785 C 0.38864 0.33706 0.06928 0.0
C1786 C 0.50649 0.65662 0.83871 0.0
C1787 C 0.52434 0.62586 0.83625 0.0
H1788 H 0.47099 0.68587 0.86303 0.0
C1789 C 0.51622 0.59884 0.85451 0.0
H1790 H 0.51222 0.67779 0.82492 0.0
C1791 C 0.49289 0.60348 0.87646 0.0
C1792 C 0.47746 0.63525 0.88044 0.0
H1793 H 0.52918 0.5746 0.85261 0.0
H1794 H 0.48861 0.58299 0.8913 0.0
C1795 C 0.48323 0.66129 0.86067 0.0
C1796 C 0.20472 0.74594 0.63046 0.0
C1797 C 0.18875 0.71461 0.62593 0.0
H1798 H 0.21553 0.79489 0.61395 0.0
C1799 C 0.17748 0.70594 0.5987 0.0
H1800 H 0.21296 0.75325 0.65147 0.0
C1801 C 0.17854 0.7299 0.57702 0.0
C1802 C 0.19067 0.76291 0.58239 0.0
H1803 H 0.1647 0.68188 0.59497 0.0
H1804 H 0.16778 0.72322 0.5567 0.0
C1805 C 0.20572 0.76993 0.60886 0.0
C1806 C 0.09181 0.32888 0.35394 0.0
C1807 C 0.10237 0.34954 0.37662 0.0
H1808 H 0.05882 0.32392 0.31801 0.0
C1809 C 0.09236 0.38377 0.37712 0.0
H1810 H 0.09964 0.30248 0.3528 0.0
C1811 C 0.06916 0.39605 0.3571 0.0
C1812 C 0.05565 0.37434 0.33625 0.0
H1813 H 0.10012 0.40029 0.39429 0.0
H1814 H 0.06008 0.42196 0.35899 0.0
C1815 C 0.06864 0.34119 0.33388 0.0
C1816 C 0.38754 0.67951 0.37481 0.0
C1817 C 0.36002 0.67158 0.35664 0.0
H1818 H 0.4029 0.69959 0.4147 0.0
C1819 C 0.32676 0.6701 0.36775 0.0
H1820 H 0.41375 0.67926 0.36724 0.0
C1821 C 0.32073 0.68043 0.39549 0.0
C1822 C 0.34769 0.69317 0.4123 0.0
H1823 H 0.30511 0.6634 0.35452 0.0
H1824 H 0.29452 0.68119 0.40298 0.0
C1825 C 0.38143 0.69048 0.40231 0.0
C1826 C 0.03735 0.60499 0.13742 0.0
C1827 C 1.00454 0.59035 0.13661 0.0
H1828 H 0.08016 0.62248 0.1132 0.0
C1829 C 0.99273 0.57577 0.1112 0.0
H1830 H 0.04741 0.61573 0.15677 0.0
C1831 C 1.01169 0.57917 0.08647 0.0
C1832 C 0.04271 0.59693 0.08691 0.0
H1833 H 0.96755 0.56436 0.10974 0.0
H1834 H 1.0006 0.57087 0.06663 0.0
C1835 C 0.05632 0.6083 0.11267 0.0
C1836 C 0.16258 0.3826 0.85646 0.0
C1837 C 0.12716 0.38024 0.8515 0.0
H1838 H 0.20414 0.37089 0.88422 0.0
C1839 C 0.10574 0.36917 0.87355 0.0
H1840 H 0.17979 0.39145 0.84012 0.0
C1841 C 0.11973 0.35647 0.89852 0.0
C1842 C 0.15549 0.35506 0.90216 0.0
H1843 H 0.07815 0.36832 0.87084 0.0
H1844 H 0.10251 0.34542 0.91384 0.0
C1845 C 0.17655 0.37044 0.88167 0.0
C1846 C 0.48027 0.42231 0.58586 0.0
C1847 C 0.4551 0.39747 0.58977 0.0
H1848 H 0.5236 0.44744 0.60314 0.0
C1849 C 0.45007 0.38352 0.61667 0.0
H1850 H 0.48453 0.43329 0.5652 0.0
C1851 C 0.47244 0.39152 0.63866 0.0
C1852 C 0.50056 0.41317 0.63392 0.0
H1853 H 0.4304 0.36449 0.62008 0.0
H1854 H 0.46879 0.37901 0.65872 0.0
C1855 C 0.50288 0.43012 0.60775 0.0
loop_
_geom_bond_atom_site_label_1
_geom_bond_atom_site_label_2
_geom_bond_distance
_geom_bond_site_symmetry_2
_ccdc_geom_bond_type
C0 C1 1.351 . S
C0 N3 1.368 . S
C0 H5 0.931 . S
C1 C0 1.351 . S
C1 N2 1.373 1_455 S
C1 H29 0.930 . S
N2 C1 1.373 1_655 S
N2 C4 1.340 1_655 S
N3 C0 1.368 . S
N3 C4 1.321 . S
N3 Co6 2.135 . S
C4 N2 1.340 1_455 S
C4 N3 1.321 . S
C4 H28 0.930 1_455 S
H5 C0 0.931 . S
Co6 N3 2.135 . S
Co6 N9 2.121 . S
Co6 O14 2.055 . S
Co6 O17 2.039 . S
Co6 N20 2.140 . S
C7 O8 1.227 . S
C7 O17 1.265 . S
O8 C7 1.227 . S
N9 Co6 2.121 . S
N9 C11 1.375 . S
N9 C12 1.313 . S
C10 C11 1.338 . S
C10 N13 1.377 . S
C10 H30 0.930 . S
C11 N9 1.375 . S
C11 C10 1.338 . S
C11 H15 0.931 . S
C12 N9 1.313 . S
C12 N13 1.344 . S
C12 H16 0.930 . S
N13 C10 1.377 . S
N13 C12 1.344 . S
O14 Co6 2.055 . S
O14 C18 1.253 . S
H15 C11 0.931 . S
H16 C12 0.930 . S
O17 Co6 2.039 . S
O17 C7 1.265 . S
C18 O14 1.253 . S
C18 O19 1.227 . S
O19 C18 1.227 . S
N20 Co6 2.140 . S
N20 C23 1.346 . S
N20 C24 1.345 . S
C21 C22 1.387 . S
C21 C25 1.391 . S
C22 C21 1.387 . S
C22 C23 1.369 . S
C22 H31 0.929 . S
C23 N20 1.346 . S
C23 C22 1.369 . S
C23 H26 0.928 . S
C24 N20 1.345 . S
C24 C25 1.371 . S
C24 H27 0.931 . S
C25 C21 1.391 . S
C25 C24 1.371 . S
C25 H32 0.930 . S
H26 C23 0.928 . S
H27 C24 0.931 . S
H28 C4 0.930 1_655 S
H29 C1 0.930 . S
H30 C10 0.930 . S
H31 C22 0.929 . S
H32 C25 0.930 . S
C33 C34 1.351 . S
C33 N36 1.368 . S
C33 H38 0.931 . S
C34 C33 1.351 . S
C34 N35 1.373 . S
C34 H62 0.930 . S
N35 C34 1.373 . S
N35 C37 1.340 . S
N36 C33 1.368 . S
N36 C37 1.321 . S
N36 Co39 2.135 . S
C37 N35 1.340 . S
C37 N36 1.321 . S
C37 H61 0.930 . S
H38 C33 0.931 . S
Co39 N36 2.135 . S
Co39 N42 2.121 . S
Co39 O47 2.055 . S
Co39 O50 2.039 . S
Co39 N53 2.140 . S
C40 O41 1.227 . S
C40 O50 1.265 . S
O41 C40 1.227 . S
N42 Co39 2.121 . S
N42 C44 1.375 . S
N42 C45 1.313 . S
C43 C44 1.338 . S
C43 N46 1.377 . S
C43 H63 0.930 . S
C44 N42 1.375 . S
C44 C43 1.338 . S
C44 H48 0.931 . S
C45 N42 1.313 . S
C45 N46 1.344 . S
C45 H49 0.930 . S
N46 C43 1.377 . S
N46 C45 1.344 . S
O47 Co39 2.055 . S
O47 C51 1.253 . S
H48 C44 0.931 . S
H49 C45 0.930 . S
O50 Co39 2.039 . S
O50 C40 1.265 . S
C51 O47 1.253 . S
C51 O52 1.227 . S
O52 C51 1.227 . S
N53 Co39 2.140 . S
N53 C56 1.346 . S
N53 C57 1.345 . S
C54 C55 1.387 . S
C54 C58 1.391 . S
C55 C54 1.387 . S
C55 C56 1.369 . S
C55 H64 0.929 . S
C56 N53 1.346 . S
C56 C55 1.369 . S
C56 H59 0.928 . S
C57 N53 1.345 . S
C57 C58 1.371 . S
C57 H60 0.931 . S
C58 C54 1.391 . S
C58 C57 1.371 . S
C58 H65 0.930 . S
H59 C56 0.928 . S
H60 C57 0.931 . S
H61 C37 0.930 . S
H62 C34 0.930 . S
H63 C43 0.930 . S
H64 C55 0.929 . S
H65 C58 0.930 . S
C66 C67 1.351 . S
C66 N69 1.368 . S
C66 H71 0.931 . S
C67 C66 1.351 . S
C67 N68 1.373 . S
C67 H95 0.930 . S
N68 C67 1.373 . S
N68 C70 1.340 . S
N69 C66 1.368 . S
N69 C70 1.321 . S
N69 Co72 2.135 . S
C70 N68 1.340 . S
C70 N69 1.321 . S
C70 H94 0.930 . S
H71 C66 0.931 . S
Co72 N69 2.135 . S
Co72 N75 2.121 . S
Co72 O80 2.055 . S
Co72 O83 2.039 . S
Co72 N86 2.140 . S
C73 O74 1.227 . S
C73 O83 1.265 . S
O74 C73 1.227 . S
N75 Co72 2.121 . S
N75 C77 1.375 . S
N75 C78 1.313 . S
C76 C77 1.338 . S
C76 N79 1.377 . S
C76 H96 0.930 . S
C77 N75 1.375 . S
C77 C76 1.338 . S
C77 H81 0.931 . S
C78 N75 1.313 . S
C78 N79 1.344 . S
C78 H82 0.930 . S
N79 C76 1.377 . S
N79 C78 1.344 . S
O80 Co72 2.055 . S
O80 C84 1.253 . S
H81 C77 0.931 . S
H82 C78 0.930 . S
O83 Co72 2.039 . S
O83 C73 1.265 . S
C84 O80 1.253 . S
C84 O85 1.227 . S
O85 C84 1.227 . S
N86 Co72 2.140 . S
N86 C89 1.346 . S
N86 C90 1.345 . S
C87 C88 1.387 . S
C87 C91 1.391 . S
C88 C87 1.387 . S
C88 C89 1.369 . S
C88 H97 0.929 . S
C89 N86 1.346 . S
C89 C88 1.369 . S
C89 H92 0.928 . S
C90 N86 1.345 . S
C90 C91 1.371 . S
C90 H93 0.931 . S
C91 C87 1.391 . S
C91 C90 1.371 . S
C91 H98 0.930 . S
H92 C89 0.928 . S
H93 C90 0.931 . S
H94 C70 0.930 . S
H95 C67 0.930 . S
H96 C76 0.930 . S
H97 C88 0.929 . S
H98 C91 0.930 . S
C99 C100 1.351 . S
C99 N102 1.368 . S
C99 H104 0.931 . S
C100 C99 1.351 . S
C100 N101 1.373 . S
C100 H128 0.930 . S
N101 C100 1.373 . S
N101 C103 1.340 . S
N102 C99 1.368 . S
N102 C103 1.321 . S
N102 Co105 2.135 . S
C103 N101 1.340 . S
C103 N102 1.321 . S
C103 H127 0.930 . S
H104 C99 0.931 . S
Co105 N102 2.135 . S
Co105 N108 2.121 1_554 S
Co105 O113 2.054 1_554 S
Co105 O116 2.039 . S
Co105 N119 2.140 . S
C106 O107 1.227 . S
C106 O116 1.265 . S
O107 C106 1.227 . S
N108 Co105 2.121 1_556 S
N108 C110 1.375 . S
N108 C111 1.313 . S
C109 C110 1.338 . S
C109 N112 1.377 . S
C109 H129 0.930 . S
C110 N108 1.375 . S
C110 C109 1.338 . S
C110 H114 0.931 . S
C111 N108 1.313 . S
C111 N112 1.344 . S
C111 H115 0.930 . S
N112 C109 1.377 . S
N112 C111 1.344 . S
O113 Co105 2.054 1_556 S
O113 C117 1.252 1_556 S
H114 C110 0.931 . S
H115 C111 0.930 . S
O116 Co105 2.039 . S
O116 C106 1.265 . S
C117 O113 1.252 1_554 S
C117 O118 1.227 . S
O118 C117 1.227 . S
N119 Co105 2.140 . S
N119 C122 1.346 . S
N119 C123 1.345 . S
C120 C121 1.387 . S
C120 C124 1.391 . S
C121 C120 1.387 . S
C121 C122 1.369 . S
C121 H130 0.929 . S
C122 N119 1.346 . S
C122 C121 1.369 . S
C122 H125 0.928 . S
C123 N119 1.345 . S
C123 C124 1.371 . S
C123 H126 0.931 . S
C124 C120 1.391 . S
C124 C123 1.371 . S
C124 H131 0.930 . S
H125 C122 0.928 . S
H126 C123 0.931 . S
H127 C103 0.930 . S
H128 C100 0.930 . S
H129 C109 0.930 . S
H130 C121 0.929 . S
H131 C124 0.930 . S
C132 C133 1.351 . S
C132 N135 1.368 . S
C132 H137 0.931 . S
C133 C132 1.351 . S
C133 N134 1.373 1_455 S
C133 H161 0.930 . S
N134 C133 1.373 1_655 S
N134 C136 1.340 1_655 S
N135 C132 1.368 . S
N135 C136 1.321 . S
N135 Co138 2.135 . S
C136 N134 1.340 1_455 S
C136 N135 1.321 . S
C136 H160 0.930 1_455 S
H137 C132 0.931 . S
Co138 N135 2.135 . S
Co138 N141 2.121 . S
Co138 O146 2.055 . S
Co138 O149 2.039 . S
Co138 N152 2.140 . S
C139 O140 1.227 . S
C139 O149 1.265 . S
O140 C139 1.227 . S
N141 Co138 2.121 . S
N141 C143 1.375 . S
N141 C144 1.313 . S
C142 C143 1.338 . S
C142 N145 1.377 . S
C142 H162 0.930 . S
C143 N141 1.375 . S
C143 C142 1.338 . S
C143 H147 0.931 . S
C144 N141 1.313 . S
C144 N145 1.344 . S
C144 H148 0.930 . S
N145 C142 1.377 . S
N145 C144 1.344 . S
O146 Co138 2.055 . S
O146 C150 1.253 . S
H147 C143 0.931 . S
H148 C144 0.930 . S
O149 Co138 2.039 . S
O149 C139 1.265 . S
C150 O146 1.253 . S
C150 O151 1.227 . S
O151 C150 1.227 . S
N152 Co138 2.140 . S
N152 C155 1.346 . S
N152 C156 1.345 . S
C153 C154 1.387 . S
C153 C157 1.391 . S
C154 C153 1.387 . S
C154 C155 1.369 . S
C154 H163 0.929 . S
C155 N152 1.346 . S
C155 C154 1.369 . S
C155 H158 0.928 . S
C156 N152 1.345 . S
C156 C157 1.371 . S
C156 H159 0.931 . S
C157 C153 1.391 . S
C157 C156 1.371 . S
C157 H164 0.930 . S
H158 C155 0.928 . S
H159 C156 0.931 . S
H160 C136 0.930 1_655 S
H161 C133 0.930 . S
H162 C142 0.930 . S
H163 C154 0.929 . S
H164 C157 0.930 . S
C165 C166 1.351 . S
C165 N168 1.368 . S
C165 H170 0.931 . S
C166 C165 1.351 . S
C166 N167 1.373 . S
C166 H194 0.930 . S
N167 C166 1.373 . S
N167 C169 1.340 . S
N168 C165 1.368 . S
N168 C169 1.321 . S
N168 Co171 2.135 . S
C169 N167 1.340 . S
C169 N168 1.321 . S
C169 H193 0.930 . S
H170 C165 0.931 . S
Co171 N168 2.135 . S
Co171 N174 2.121 . S
Co171 O179 2.055 . S
Co171 O182 2.039 . S
Co171 N185 2.140 . S
C172 O173 1.227 . S
C172 O182 1.265 . S
O173 C172 1.227 . S
N174 Co171 2.121 . S
N174 C176 1.375 . S
N174 C177 1.313 . S
C175 C176 1.338 . S
C175 N178 1.377 . S
C175 H195 0.930 . S
C176 N174 1.375 . S
C176 C175 1.338 . S
C176 H180 0.931 . S
C177 N174 1.313 . S
C177 N178 1.344 . S
C177 H181 0.930 . S
N178 C175 1.377 . S
N178 C177 1.344 . S
O179 Co171 2.055 . S
O179 C183 1.253 . S
H180 C176 0.931 . S
H181 C177 0.930 . S
O182 Co171 2.039 . S
O182 C172 1.265 . S
C183 O179 1.253 . S
C183 O184 1.227 . S
O184 C183 1.227 . S
N185 Co171 2.140 . S
N185 C188 1.346 . S
N185 C189 1.345 . S
C186 C187 1.387 . S
C186 C190 1.391 . S
C187 C186 1.387 . S
C187 C188 1.369 . S
C187 H196 0.929 . S
C188 N185 1.346 . S
C188 C187 1.369 . S
C188 H191 0.928 . S
C189 N185 1.345 . S
C189 C190 1.371 . S
C189 H192 0.931 . S
C190 C186 1.391 . S
C190 C189 1.371 . S
C190 H197 0.930 . S
H191 C188 0.928 . S
H192 C189 0.931 . S
H193 C169 0.930 . S
H194 C166 0.930 . S
H195 C175 0.930 . S
H196 C187 0.929 . S
H197 C190 0.930 . S
C198 C199 1.351 . S
C198 N201 1.368 . S
C198 H203 0.931 . S
C199 C198 1.351 . S
C199 N200 1.373 . S
C199 H227 0.930 . S
N200 C199 1.373 . S
N200 C202 1.340 . S
N201 C198 1.368 . S
N201 C202 1.321 . S
N201 Co204 2.135 . S
C202 N200 1.340 . S
C202 N201 1.321 . S
C202 H226 0.930 . S
H203 C198 0.931 . S
Co204 N201 2.135 . S
Co204 N207 2.121 . S
Co204 O212 2.055 . S
Co204 O215 2.039 . S
Co204 N218 2.140 . S
C205 O206 1.227 . S
C205 O215 1.265 . S
O206 C205 1.227 . S
N207 Co204 2.121 . S
N207 C209 1.375 . S
N207 C210 1.313 . S
C208 C209 1.338 . S
C208 N211 1.377 . S
C208 H228 0.930 . S
C209 N207 1.375 . S
C209 C208 1.338 . S
C209 H213 0.931 . S
C210 N207 1.313 . S
C210 N211 1.344 . S
C210 H214 0.930 . S
N211 C208 1.377 . S
N211 C210 1.344 . S
O212 Co204 2.055 . S
O212 C216 1.253 . S
H213 C209 0.931 . S
H214 C210 0.930 . S
O215 Co204 2.039 . S
O215 C205 1.265 . S
C216 O212 1.253 . S
C216 O217 1.227 . S
O217 C216 1.227 . S
N218 Co204 2.140 . S
N218 C221 1.346 . S
N218 C222 1.345 . S
C219 C220 1.387 . S
C219 C223 1.391 . S
C220 C219 1.387 . S
C220 C221 1.369 . S
C220 H229 0.929 . S
C221 N218 1.346 . S
C221 C220 1.369 . S
C221 H224 0.928 . S
C222 N218 1.345 . S
C222 C223 1.371 . S
C222 H225 0.931 . S
C223 C219 1.391 . S
C223 C222 1.371 . S
C223 H230 0.930 . S
H224 C221 0.928 . S
H225 C222 0.931 . S
H226 C202 0.930 . S
H227 C199 0.930 . S
H228 C208 0.930 . S
H229 C220 0.929 . S
H230 C223 0.930 . S
C231 C232 1.351 . S
C231 N234 1.368 . S
C231 H236 0.931 . S
C232 C231 1.351 . S
C232 N233 1.373 . S
C232 H260 0.930 . S
N233 C232 1.373 . S
N233 C235 1.340 . S
N234 C231 1.368 . S
N234 C235 1.321 . S
N234 Co237 2.135 . S
C235 N233 1.340 . S
C235 N234 1.321 . S
C235 H259 0.930 . S
H236 C231 0.931 . S
Co237 N234 2.135 . S
Co237 N240 2.121 1_556 S
Co237 O245 2.054 1_556 S
Co237 O248 2.039 . S
Co237 N251 2.140 . S
C238 O239 1.227 . S
C238 O248 1.265 . S
O239 C238 1.227 . S
N240 Co237 2.121 1_554 S
N240 C242 1.375 . S
N240 C243 1.313 . S
C241 C242 1.338 . S
C241 N244 1.377 . S
C241 H261 0.930 . S
C242 N240 1.375 . S
C242 C241 1.338 . S
C242 H246 0.931 . S
C243 N240 1.313 . S
C243 N244 1.344 . S
C243 H247 0.930 . S
N244 C241 1.377 . S
N244 C243 1.344 . S
O245 Co237 2.054 1_554 S
O245 C249 1.252 1_554 S
H246 C242 0.931 . S
H247 C243 0.930 . S
O248 Co237 2.039 . S
O248 C238 1.265 . S
C249 O245 1.252 1_556 S
C249 O250 1.227 . S
O250 C249 1.227 . S
N251 Co237 2.140 . S
N251 C254 1.346 . S
N251 C255 1.345 . S
C252 C253 1.387 . S
C252 C256 1.391 . S
C253 C252 1.387 . S
C253 C254 1.369 . S
C253 H262 0.929 . S
C254 N251 1.346 . S
C254 C253 1.369 . S
C254 H257 0.928 . S
C255 N251 1.345 . S
C255 C256 1.371 . S
C255 H258 0.931 . S
C256 C252 1.391 . S
C256 C255 1.371 . S
C256 H263 0.930 . S
H257 C254 0.928 . S
H258 C255 0.931 . S
H259 C235 0.930 . S
H260 C232 0.930 . S
H261 C241 0.930 . S
H262 C253 0.929 . S
H263 C256 0.930 . S
C264 C265 1.351 . S
C264 N267 1.368 . S
C264 H269 0.931 . S
C265 C264 1.351 . S
C265 N266 1.373 1_655 S
C265 H293 0.930 . S
N266 C265 1.373 1_455 S
N266 C268 1.340 1_455 S
N267 C264 1.368 . S
N267 C268 1.321 . S
N267 Co270 2.135 . S
C268 N266 1.340 1_655 S
C268 N267 1.321 . S
C268 H292 0.930 1_655 S
H269 C264 0.931 . S
Co270 N267 2.135 . S
Co270 N273 2.121 . S
Co270 O278 2.055 . S
Co270 O281 2.039 . S
Co270 N284 2.140 . S
C271 O272 1.227 . S
C271 O281 1.265 . S
O272 C271 1.227 . S
N273 Co270 2.121 . S
N273 C275 1.375 . S
N273 C276 1.313 . S
C274 C275 1.338 . S
C274 N277 1.377 . S
C274 H294 0.930 . S
C275 N273 1.375 . S
C275 C274 1.338 . S
C275 H279 0.931 . S
C276 N273 1.313 . S
C276 N277 1.344 . S
C276 H280 0.930 . S
N277 C274 1.377 . S
N277 C276 1.344 . S
O278 Co270 2.055 . S
O278 C282 1.253 . S
H279 C275 0.931 . S
H280 C276 0.930 . S
O281 Co270 2.039 . S
O281 C271 1.265 . S
C282 O278 1.253 . S
C282 O283 1.227 . S
O283 C282 1.227 . S
N284 Co270 2.140 . S
N284 C287 1.346 . S
N284 C288 1.345 . S
C285 C286 1.387 . S
C285 C289 1.391 . S
C286 C285 1.387 . S
C286 C287 1.369 . S
C286 H295 0.929 . S
C287 N284 1.346 . S
C287 C286 1.369 . S
C287 H290 0.928 . S
C288 N284 1.345 . S
C288 C289 1.371 . S
C288 H291 0.931 . S
C289 C285 1.391 . S
C289 C288 1.371 . S
C289 H296 0.930 . S
H290 C287 0.928 . S
H291 C288 0.931 . S
H292 C268 0.930 1_455 S
H293 C265 0.930 . S
H294 C274 0.930 . S
H295 C286 0.929 . S
H296 C289 0.930 . S
C297 C298 1.351 . S
C297 N300 1.368 . S
C297 H302 0.931 . S
C298 C297 1.351 . S
C298 N299 1.373 . S
C298 H326 0.930 . S
N299 C298 1.373 . S
N299 C301 1.340 . S
N300 C297 1.368 . S
N300 C301 1.321 . S
N300 Co303 2.135 . S
C301 N299 1.340 . S
C301 N300 1.321 . S
C301 H325 0.930 . S
H302 C297 0.931 . S
Co303 N300 2.135 . S
Co303 N306 2.121 . S
Co303 O311 2.055 . S
Co303 O314 2.039 . S
Co303 N317 2.140 . S
C304 O305 1.227 . S
C304 O314 1.265 . S
O305 C304 1.227 . S
N306 Co303 2.121 . S
N306 C308 1.375 . S
N306 C309 1.313 . S
C307 C308 1.338 . S
C307 N310 1.377 . S
C307 H327 0.930 . S
C308 N306 1.375 . S
C308 C307 1.338 . S
C308 H312 0.931 . S
C309 N306 1.313 . S
C309 N310 1.344 . S
C309 H313 0.930 . S
N310 C307 1.377 . S
N310 C309 1.344 . S
O311 Co303 2.055 . S
O311 C315 1.253 . S
H312 C308 0.931 . S
H313 C309 0.930 . S
O314 Co303 2.039 . S
O314 C304 1.265 . S
C315 O311 1.253 . S
C315 O316 1.227 . S
O316 C315 1.227 . S
N317 Co303 2.140 . S
N317 C320 1.346 . S
N317 C321 1.345 . S
C318 C319 1.387 . S
C318 C322 1.391 . S
C319 C318 1.387 . S
C319 C320 1.369 . S
C319 H328 0.929 . S
C320 N317 1.346 . S
C320 C319 1.369 . S
C320 H323 0.928 . S
C321 N317 1.345 . S
C321 C322 1.371 . S
C321 H324 0.931 . S
C322 C318 1.391 . S
C322 C321 1.371 . S
C322 H329 0.930 . S
H323 C320 0.928 . S
H324 C321 0.931 . S
H325 C301 0.930 . S
H326 C298 0.930 . S
H327 C307 0.930 . S
H328 C319 0.929 . S
H329 C322 0.930 . S
C330 C331 1.351 . S
C330 N333 1.368 . S
C330 H335 0.931 . S
C331 C330 1.351 . S
C331 N332 1.373 . S
C331 H359 0.930 . S
N332 C331 1.373 . S
N332 C334 1.340 . S
N333 C330 1.368 . S
N333 C334 1.321 . S
N333 Co336 2.135 . S
C334 N332 1.340 . S
C334 N333 1.321 . S
C334 H358 0.930 . S
H335 C330 0.931 . S
Co336 N333 2.135 . S
Co336 N339 2.121 . S
Co336 O344 2.055 . S
Co336 O347 2.039 . S
Co336 N350 2.140 . S
C337 O338 1.227 . S
C337 O347 1.265 . S
O338 C337 1.227 . S
N339 Co336 2.121 . S
N339 C341 1.375 . S
N339 C342 1.313 . S
C340 C341 1.338 . S
C340 N343 1.377 . S
C340 H360 0.930 . S
C341 N339 1.375 . S
C341 C340 1.338 . S
C341 H345 0.931 . S
C342 N339 1.313 . S
C342 N343 1.344 . S
C342 H346 0.930 . S
N343 C340 1.377 . S
N343 C342 1.344 . S
O344 Co336 2.055 . S
O344 C348 1.253 . S
H345 C341 0.931 . S
H346 C342 0.930 . S
O347 Co336 2.039 . S
O347 C337 1.265 . S
C348 O344 1.253 . S
C348 O349 1.227 . S
O349 C348 1.227 . S
N350 Co336 2.140 . S
N350 C353 1.346 . S
N350 C354 1.345 . S
C351 C352 1.387 . S
C351 C355 1.391 . S
C352 C351 1.387 . S
C352 C353 1.369 . S
C352 H361 0.929 . S
C353 N350 1.346 . S
C353 C352 1.369 . S
C353 H356 0.928 . S
C354 N350 1.345 . S
C354 C355 1.371 . S
C354 H357 0.931 . S
C355 C351 1.391 . S
C355 C354 1.371 . S
C355 H362 0.930 . S
H356 C353 0.928 . S
H357 C354 0.931 . S
H358 C334 0.930 . S
H359 C331 0.930 . S
H360 C340 0.930 . S
H361 C352 0.929 . S
H362 C355 0.930 . S
C363 C364 1.351 . S
C363 N366 1.368 . S
C363 H368 0.931 . S
C364 C363 1.351 . S
C364 N365 1.373 . S
C364 H392 0.930 . S
N365 C364 1.373 . S
N365 C367 1.340 . S
N366 C363 1.368 . S
N366 C367 1.321 . S
N366 Co369 2.135 . S
C367 N365 1.340 . S
C367 N366 1.321 . S
C367 H391 0.930 . S
H368 C363 0.931 . S
Co369 N366 2.135 . S
Co369 N372 2.121 1_556 S
Co369 O377 2.054 1_556 S
Co369 O380 2.039 . S
Co369 N383 2.140 . S
C370 O371 1.227 . S
C370 O380 1.265 . S
O371 C370 1.227 . S
N372 Co369 2.121 1_554 S
N372 C374 1.375 . S
N372 C375 1.313 . S
C373 C374 1.338 . S
C373 N376 1.377 . S
C373 H393 0.930 . S
C374 N372 1.375 . S
C374 C373 1.338 . S
C374 H378 0.931 . S
C375 N372 1.313 . S
C375 N376 1.344 . S
C375 H379 0.930 . S
N376 C373 1.377 . S
N376 C375 1.344 . S
O377 Co369 2.054 1_554 S
O377 C381 1.252 1_554 S
H378 C374 0.931 . S
H379 C375 0.930 . S
O380 Co369 2.039 . S
O380 C370 1.265 . S
C381 O377 1.252 1_556 S
C381 O382 1.227 . S
O382 C381 1.227 . S
N383 Co369 2.140 . S
N383 C386 1.346 . S
N383 C387 1.345 . S
C384 C385 1.387 . S
C384 C388 1.391 . S
C385 C384 1.387 . S
C385 C386 1.369 . S
C385 H394 0.929 . S
C386 N383 1.346 . S
C386 C385 1.369 . S
C386 H389 0.928 . S
C387 N383 1.345 . S
C387 C388 1.371 . S
C387 H390 0.931 . S
C388 C384 1.391 . S
C388 C387 1.371 . S
C388 H395 0.930 . S
H389 C386 0.928 . S
H390 C387 0.931 . S
H391 C367 0.930 . S
H392 C364 0.930 . S
H393 C373 0.930 . S
H394 C385 0.929 . S
H395 C388 0.930 . S
C396 C397 1.351 . S
C396 N399 1.368 . S
C396 H401 0.931 . S
C397 C396 1.351 . S
C397 N398 1.373 1_655 S
C397 H425 0.930 . S
N398 C397 1.373 1_455 S
N398 C400 1.340 1_455 S
N399 C396 1.368 . S
N399 C400 1.321 . S
N399 Co402 2.135 . S
C400 N398 1.340 1_655 S
C400 N399 1.321 . S
C400 H424 0.930 1_655 S
H401 C396 0.931 . S
Co402 N399 2.135 . S
Co402 N405 2.121 . S
Co402 O410 2.055 . S
Co402 O413 2.039 . S
Co402 N416 2.140 . S
C403 O404 1.227 . S
C403 O413 1.265 . S
O404 C403 1.227 . S
N405 Co402 2.121 . S
N405 C407 1.375 . S
N405 C408 1.313 . S
C406 C407 1.338 . S
C406 N409 1.377 . S
C406 H426 0.930 . S
C407 N405 1.375 . S
C407 C406 1.338 . S
C407 H411 0.931 . S
C408 N405 1.313 . S
C408 N409 1.344 . S
C408 H412 0.930 . S
N409 C406 1.377 . S
N409 C408 1.344 . S
O410 Co402 2.055 . S
O410 C414 1.253 . S
H411 C407 0.931 . S
H412 C408 0.930 . S
O413 Co402 2.039 . S
O413 C403 1.265 . S
C414 O410 1.253 . S
C414 O415 1.227 . S
O415 C414 1.227 . S
N416 Co402 2.140 . S
N416 C419 1.346 . S
N416 C420 1.345 . S
C417 C418 1.387 . S
C417 C421 1.391 . S
C418 C417 1.387 . S
C418 C419 1.369 . S
C418 H427 0.929 . S
C419 N416 1.346 . S
C419 C418 1.369 . S
C419 H422 0.928 . S
C420 N416 1.345 . S
C420 C421 1.371 . S
C420 H423 0.931 . S
C421 C417 1.391 . S
C421 C420 1.371 . S
C421 H428 0.930 . S
H422 C419 0.928 . S
H423 C420 0.931 . S
H424 C400 0.930 1_455 S
H425 C397 0.930 . S
H426 C406 0.930 . S
H427 C418 0.929 . S
H428 C421 0.930 . S
C429 C430 1.351 . S
C429 N432 1.368 . S
C429 H434 0.931 . S
C430 C429 1.351 . S
C430 N431 1.373 . S
C430 H458 0.930 . S
N431 C430 1.373 . S
N431 C433 1.340 . S
N432 C429 1.368 . S
N432 C433 1.321 . S
N432 Co435 2.135 . S
C433 N431 1.340 . S
C433 N432 1.321 . S
C433 H457 0.930 . S
H434 C429 0.931 . S
Co435 N432 2.135 . S
Co435 N438 2.121 . S
Co435 O443 2.055 . S
Co435 O446 2.039 . S
Co435 N449 2.140 . S
C436 O437 1.227 . S
C436 O446 1.265 . S
O437 C436 1.227 . S
N438 Co435 2.121 . S
N438 C440 1.375 . S
N438 C441 1.313 . S
C439 C440 1.338 . S
C439 N442 1.377 . S
C439 H459 0.930 . S
C440 N438 1.375 . S
C440 C439 1.338 . S
C440 H444 0.931 . S
C441 N438 1.313 . S
C441 N442 1.344 . S
C441 H445 0.930 . S
N442 C439 1.377 . S
N442 C441 1.344 . S
O443 Co435 2.055 . S
O443 C447 1.253 . S
H444 C440 0.931 . S
H445 C441 0.930 . S
O446 Co435 2.039 . S
O446 C436 1.265 . S
C447 O443 1.253 . S
C447 O448 1.227 . S
O448 C447 1.227 . S
N449 Co435 2.140 . S
N449 C452 1.346 . S
N449 C453 1.345 . S
C450 C451 1.387 . S
C450 C454 1.391 . S
C451 C450 1.387 . S
C451 C452 1.369 . S
C451 H460 0.929 . S
C452 N449 1.346 . S
C452 C451 1.369 . S
C452 H455 0.928 . S
C453 N449 1.345 . S
C453 C454 1.371 . S
C453 H456 0.931 . S
C454 C450 1.391 . S
C454 C453 1.371 . S
C454 H461 0.930 . S
H455 C452 0.928 . S
H456 C453 0.931 . S
H457 C433 0.930 . S
H458 C430 0.930 . S
H459 C439 0.930 . S
H460 C451 0.929 . S
H461 C454 0.930 . S
C462 C463 1.351 . S
C462 N465 1.368 . S
C462 H467 0.931 . S
C463 C462 1.351 . S
C463 N464 1.373 . S
C463 H491 0.930 . S
N464 C463 1.373 . S
N464 C466 1.340 . S
N465 C462 1.368 . S
N465 C466 1.321 . S
N465 Co468 2.135 . S
C466 N464 1.340 . S
C466 N465 1.321 . S
C466 H490 0.930 . S
H467 C462 0.931 . S
Co468 N465 2.135 . S
Co468 N471 2.121 . S
Co468 O476 2.055 . S
Co468 O479 2.039 . S
Co468 N482 2.140 . S
C469 O470 1.227 . S
C469 O479 1.265 . S
O470 C469 1.227 . S
N471 Co468 2.121 . S
N471 C473 1.375 . S
N471 C474 1.313 . S
C472 C473 1.338 . S
C472 N475 1.377 . S
C472 H492 0.930 . S
C473 N471 1.375 . S
C473 C472 1.338 . S
C473 H477 0.931 . S
C474 N471 1.313 . S
C474 N475 1.344 . S
C474 H478 0.930 . S
N475 C472 1.377 . S
N475 C474 1.344 . S
O476 Co468 2.055 . S
O476 C480 1.253 . S
H477 C473 0.931 . S
H478 C474 0.930 . S
O479 Co468 2.039 . S
O479 C469 1.265 . S
C480 O476 1.253 . S
C480 O481 1.227 . S
O481 C480 1.227 . S
N482 Co468 2.140 . S
N482 C485 1.346 . S
N482 C486 1.345 . S
C483 C484 1.387 . S
C483 C487 1.391 . S
C484 C483 1.387 . S
C484 C485 1.369 . S
C484 H493 0.929 . S
C485 N482 1.346 . S
C485 C484 1.369 . S
C485 H488 0.928 . S
C486 N482 1.345 . S
C486 C487 1.371 . S
C486 H489 0.931 . S
C487 C483 1.391 . S
C487 C486 1.371 . S
C487 H494 0.930 . S
H488 C485 0.928 . S
H489 C486 0.931 . S
H490 C466 0.930 . S
H491 C463 0.930 . S
H492 C472 0.930 . S
H493 C484 0.929 . S
H494 C487 0.930 . S
C495 C496 1.351 . S
C495 N498 1.368 . S
C495 H500 0.931 . S
C496 C495 1.351 . S
C496 N497 1.373 . S
C496 H524 0.930 . S
N497 C496 1.373 . S
N497 C499 1.340 . S
N498 C495 1.368 . S
N498 C499 1.321 . S
N498 Co501 2.135 . S
C499 N497 1.340 . S
C499 N498 1.321 . S
C499 H523 0.930 . S
H500 C495 0.931 . S
Co501 N498 2.135 . S
Co501 N504 2.121 1_554 S
Co501 O509 2.054 1_554 S
Co501 O512 2.039 . S
Co501 N515 2.140 . S
C502 O503 1.227 . S
C502 O512 1.265 . S
O503 C502 1.227 . S
N504 Co501 2.121 1_556 S
N504 C506 1.375 . S
N504 C507 1.313 . S
C505 C506 1.338 . S
C505 N508 1.377 . S
C505 H525 0.930 . S
C506 N504 1.375 . S
C506 C505 1.338 . S
C506 H510 0.931 . S
C507 N504 1.313 . S
C507 N508 1.344 . S
C507 H511 0.930 . S
N508 C505 1.377 . S
N508 C507 1.344 . S
O509 Co501 2.054 1_556 S
O509 C513 1.252 1_556 S
H510 C506 0.931 . S
H511 C507 0.930 . S
O512 Co501 2.039 . S
O512 C502 1.265 . S
C513 O509 1.252 1_554 S
C513 O514 1.227 . S
O514 C513 1.227 . S
N515 Co501 2.140 . S
N515 C518 1.346 . S
N515 C519 1.345 . S
C516 C517 1.387 . S
C516 C520 1.391 . S
C517 C516 1.387 . S
C517 C518 1.369 . S
C517 H526 0.929 . S
C518 N515 1.346 . S
C518 C517 1.369 . S
C518 H521 0.928 . S
C519 N515 1.345 . S
C519 C520 1.371 . S
C519 H522 0.931 . S
C520 C516 1.391 . S
C520 C519 1.371 . S
C520 H527 0.930 . S
H521 C518 0.928 . S
H522 C519 0.931 . S
H523 C499 0.930 . S
H524 C496 0.930 . S
H525 C505 0.930 . S
H526 C517 0.929 . S
H527 C520 0.930 . S
C528 C529 1.351 . S
C528 N531 1.368 . S
C528 H533 0.931 . S
C529 C528 1.351 . S
C529 N530 1.373 . S
C529 H557 0.930 . S
N530 C529 1.373 . S
N530 C532 1.340 . S
N531 C528 1.368 . S
N531 C532 1.321 . S
N531 Co534 2.135 . S
C532 N530 1.340 . S
C532 N531 1.321 . S
C532 H556 0.930 . S
H533 C528 0.931 . S
Co534 N531 2.135 . S
Co534 N537 2.121 . S
Co534 O542 2.055 . S
Co534 O545 2.039 . S
Co534 N548 2.140 . S
C535 O536 1.227 . S
C535 O545 1.265 . S
O536 C535 1.227 . S
N537 Co534 2.121 . S
N537 C539 1.375 . S
N537 C540 1.313 . S
C538 C539 1.338 . S
C538 N541 1.377 . S
C538 H558 0.930 . S
C539 N537 1.375 . S
C539 C538 1.338 . S
C539 H543 0.931 . S
C540 N537 1.313 . S
C540 N541 1.344 . S
C540 H544 0.930 . S
N541 C538 1.377 . S
N541 C540 1.344 . S
O542 Co534 2.055 . S
O542 C546 1.253 . S
H543 C539 0.931 . S
H544 C540 0.930 . S
O545 Co534 2.039 . S
O545 C535 1.265 . S
C546 O542 1.253 . S
C546 O547 1.227 . S
O547 C546 1.227 . S
N548 Co534 2.140 . S
N548 C551 1.346 . S
N548 C552 1.345 . S
C549 C550 1.387 . S
C549 C553 1.391 . S
C550 C549 1.387 . S
C550 C551 1.369 . S
C550 H559 0.929 . S
C551 N548 1.346 . S
C551 C550 1.369 . S
C551 H554 0.928 . S
C552 N548 1.345 . S
C552 C553 1.371 . S
C552 H555 0.931 . S
C553 C549 1.391 . S
C553 C552 1.371 . S
C553 H560 0.930 . S
H554 C551 0.928 . S
H555 C552 0.931 . S
H556 C532 0.930 . S
H557 C529 0.930 . S
H558 C538 0.930 . S
H559 C550 0.929 . S
H560 C553 0.930 . S
C561 C562 1.351 . S
C561 N564 1.368 . S
C561 H566 0.931 . S
C562 C561 1.351 . S
C562 N563 1.373 . S
C562 H590 0.930 . S
N563 C562 1.373 . S
N563 C565 1.340 . S
N564 C561 1.368 . S
N564 C565 1.321 . S
N564 Co567 2.135 . S
C565 N563 1.340 . S
C565 N564 1.321 . S
C565 H589 0.930 . S
H566 C561 0.931 . S
Co567 N564 2.135 . S
Co567 N570 2.121 1_554 S
Co567 O575 2.054 1_554 S
Co567 O578 2.039 . S
Co567 N581 2.140 . S
C568 O569 1.227 . S
C568 O578 1.265 . S
O569 C568 1.227 . S
N570 Co567 2.121 1_556 S
N570 C572 1.375 . S
N570 C573 1.313 . S
C571 C572 1.338 . S
C571 N574 1.377 . S
C571 H591 0.930 . S
C572 N570 1.375 . S
C572 C571 1.338 . S
C572 H576 0.931 . S
C573 N570 1.313 . S
C573 N574 1.344 . S
C573 H577 0.930 . S
N574 C571 1.377 . S
N574 C573 1.344 . S
O575 Co567 2.054 1_556 S
O575 C579 1.252 1_556 S
H576 C572 0.931 . S
H577 C573 0.930 . S
O578 Co567 2.039 . S
O578 C568 1.265 . S
C579 O575 1.252 1_554 S
C579 O580 1.227 . S
O580 C579 1.227 . S
N581 Co567 2.140 . S
N581 C584 1.346 . S
N581 C585 1.345 . S
C582 C583 1.387 . S
C582 C586 1.391 . S
C583 C582 1.387 . S
C583 C584 1.369 . S
C583 H592 0.929 . S
C584 N581 1.346 . S
C584 C583 1.369 . S
C584 H587 0.928 . S
C585 N581 1.345 . S
C585 C586 1.371 . S
C585 H588 0.931 . S
C586 C582 1.391 . S
C586 C585 1.371 . S
C586 H593 0.930 . S
H587 C584 0.928 . S
H588 C585 0.931 . S
H589 C565 0.930 . S
H590 C562 0.930 . S
H591 C571 0.930 . S
H592 C583 0.929 . S
H593 C586 0.930 . S
C594 C595 1.351 . S
C594 N597 1.368 . S
C594 H599 0.931 . S
C595 C594 1.351 . S
C595 N596 1.373 1_655 S
C595 H623 0.930 . S
N596 C595 1.373 1_455 S
N596 C598 1.340 1_455 S
N597 C594 1.368 . S
N597 C598 1.321 . S
N597 Co600 2.135 . S
C598 N596 1.340 1_655 S
C598 N597 1.321 . S
C598 H622 0.930 1_655 S
H599 C594 0.931 . S
Co600 N597 2.135 . S
Co600 N603 2.121 . S
Co600 O608 2.055 . S
Co600 O611 2.039 . S
Co600 N614 2.140 . S
C601 O602 1.227 . S
C601 O611 1.265 . S
O602 C601 1.227 . S
N603 Co600 2.121 . S
N603 C605 1.375 . S
N603 C606 1.313 . S
C604 C605 1.338 . S
C604 N607 1.377 . S
C604 H624 0.930 . S
C605 N603 1.375 . S
C605 C604 1.338 . S
C605 H609 0.931 . S
C606 N603 1.313 . S
C606 N607 1.344 . S
C606 H610 0.930 . S
N607 C604 1.377 . S
N607 C606 1.344 . S
O608 Co600 2.055 . S
O608 C612 1.253 . S
H609 C605 0.931 . S
H610 C606 0.930 . S
O611 Co600 2.039 . S
O611 C601 1.265 . S
C612 O608 1.253 . S
C612 O613 1.227 . S
O613 C612 1.227 . S
N614 Co600 2.140 . S
N614 C617 1.346 . S
N614 C618 1.345 . S
C615 C616 1.387 . S
C615 C619 1.391 . S
C616 C615 1.387 . S
C616 C617 1.369 . S
C616 H625 0.929 . S
C617 N614 1.346 . S
C617 C616 1.369 . S
C617 H620 0.928 . S
C618 N614 1.345 . S
C618 C619 1.371 . S
C618 H621 0.931 . S
C619 C615 1.391 . S
C619 C618 1.371 . S
C619 H626 0.930 . S
H620 C617 0.928 . S
H621 C618 0.931 . S
H622 C598 0.930 1_455 S
H623 C595 0.930 . S
H624 C604 0.930 . S
H625 C616 0.929 . S
H626 C619 0.930 . S
C627 C628 1.351 . S
C627 N630 1.368 . S
C627 H632 0.931 . S
C628 C627 1.351 . S
C628 N629 1.373 . S
C628 H656 0.930 . S
N629 C628 1.373 . S
N629 C631 1.340 . S
N630 C627 1.368 . S
N630 C631 1.321 . S
N630 Co633 2.135 . S
C631 N629 1.340 . S
C631 N630 1.321 . S
C631 H655 0.930 . S
H632 C627 0.931 . S
Co633 N630 2.135 . S
Co633 N636 2.121 . S
Co633 O641 2.055 . S
Co633 O644 2.039 . S
Co633 N647 2.140 . S
C634 O635 1.227 . S
C634 O644 1.265 . S
O635 C634 1.227 . S
N636 Co633 2.121 . S
N636 C638 1.375 . S
N636 C639 1.313 . S
C637 C638 1.338 . S
C637 N640 1.377 . S
C637 H657 0.930 . S
C638 N636 1.375 . S
C638 C637 1.338 . S
C638 H642 0.931 . S
C639 N636 1.313 . S
C639 N640 1.344 . S
C639 H643 0.930 . S
N640 C637 1.377 . S
N640 C639 1.344 . S
O641 Co633 2.055 . S
O641 C645 1.253 . S
H642 C638 0.931 . S
H643 C639 0.930 . S
O644 Co633 2.039 . S
O644 C634 1.265 . S
C645 O641 1.253 . S
C645 O646 1.227 . S
O646 C645 1.227 . S
N647 Co633 2.140 . S
N647 C650 1.346 . S
N647 C651 1.345 . S
C648 C649 1.387 . S
C648 C652 1.391 . S
C649 C648 1.387 . S
C649 C650 1.369 . S
C649 H658 0.929 . S
C650 N647 1.346 . S
C650 C649 1.369 . S
C650 H653 0.928 . S
C651 N647 1.345 . S
C651 C652 1.371 . S
C651 H654 0.931 . S
C652 C648 1.391 . S
C652 C651 1.371 . S
C652 H659 0.930 . S
H653 C650 0.928 . S
H654 C651 0.931 . S
H655 C631 0.930 . S
H656 C628 0.930 . S
H657 C637 0.930 . S
H658 C649 0.929 . S
H659 C652 0.930 . S
C660 C661 1.351 . S
C660 N663 1.368 . S
C660 H665 0.931 . S
C661 C660 1.351 . S
C661 N662 1.373 . S
C661 H689 0.930 . S
N662 C661 1.373 . S
N662 C664 1.340 . S
N663 C660 1.368 . S
N663 C664 1.321 . S
N663 Co666 2.135 . S
C664 N662 1.340 . S
C664 N663 1.321 . S
C664 H688 0.930 . S
H665 C660 0.931 . S
Co666 N663 2.135 . S
Co666 N669 2.121 . S
Co666 O674 2.055 . S
Co666 O677 2.039 . S
Co666 N680 2.140 . S
C667 O668 1.227 . S
C667 O677 1.265 . S
O668 C667 1.227 . S
N669 Co666 2.121 . S
N669 C671 1.375 . S
N669 C672 1.313 . S
C670 C671 1.338 . S
C670 N673 1.377 . S
C670 H690 0.930 . S
C671 N669 1.375 . S
C671 C670 1.338 . S
C671 H675 0.931 . S
C672 N669 1.313 . S
C672 N673 1.344 . S
C672 H676 0.930 . S
N673 C670 1.377 . S
N673 C672 1.344 . S
O674 Co666 2.055 . S
O674 C678 1.253 . S
H675 C671 0.931 . S
H676 C672 0.930 . S
O677 Co666 2.039 . S
O677 C667 1.265 . S
C678 O674 1.253 . S
C678 O679 1.227 . S
O679 C678 1.227 . S
N680 Co666 2.140 . S
N680 C683 1.346 . S
N680 C684 1.345 . S
C681 C682 1.387 . S
C681 C685 1.391 . S
C682 C681 1.387 . S
C682 C683 1.369 . S
C682 H691 0.929 . S
C683 N680 1.346 . S
C683 C682 1.369 . S
C683 H686 0.928 . S
C684 N680 1.345 . S
C684 C685 1.371 . S
C684 H687 0.931 . S
C685 C681 1.391 . S
C685 C684 1.371 . S
C685 H692 0.930 . S
H686 C683 0.928 . S
H687 C684 0.931 . S
H688 C664 0.930 . S
H689 C661 0.930 . S
H690 C670 0.930 . S
H691 C682 0.929 . S
H692 C685 0.930 . S
C693 C694 1.351 . S
C693 N696 1.368 . S
C693 H698 0.931 . S
C694 C693 1.351 . S
C694 N695 1.373 . S
C694 H722 0.930 . S
N695 C694 1.373 . S
N695 C697 1.340 . S
N696 C693 1.368 . S
N696 C697 1.321 . S
N696 Co699 2.135 . S
C697 N695 1.340 . S
C697 N696 1.321 . S
C697 H721 0.930 . S
H698 C693 0.931 . S
Co699 N696 2.135 . S
Co699 N702 2.121 1_556 S
Co699 O707 2.054 1_556 S
Co699 O710 2.039 . S
Co699 N713 2.140 . S
C700 O701 1.227 . S
C700 O710 1.265 . S
O701 C700 1.227 . S
N702 Co699 2.121 1_554 S
N702 C704 1.375 . S
N702 C705 1.313 . S
C703 C704 1.338 . S
C703 N706 1.377 . S
C703 H723 0.930 . S
C704 N702 1.375 . S
C704 C703 1.338 . S
C704 H708 0.931 . S
C705 N702 1.313 . S
C705 N706 1.344 . S
C705 H709 0.930 . S
N706 C703 1.377 . S
N706 C705 1.344 . S
O707 Co699 2.054 1_554 S
O707 C711 1.252 1_554 S
H708 C704 0.931 . S
H709 C705 0.930 . S
O710 Co699 2.039 . S
O710 C700 1.265 . S
C711 O707 1.252 1_556 S
C711 O712 1.227 . S
O712 C711 1.227 . S
N713 Co699 2.140 . S
N713 C716 1.346 . S
N713 C717 1.345 . S
C714 C715 1.387 . S
C714 C718 1.391 . S
C715 C714 1.387 . S
C715 C716 1.369 . S
C715 H724 0.929 . S
C716 N713 1.346 . S
C716 C715 1.369 . S
C716 H719 0.928 . S
C717 N713 1.345 . S
C717 C718 1.371 . S
C717 H720 0.931 . S
C718 C714 1.391 . S
C718 C717 1.371 . S
C718 H725 0.930 . S
H719 C716 0.928 . S
H720 C717 0.931 . S
H721 C697 0.930 . S
H722 C694 0.930 . S
H723 C703 0.930 . S
H724 C715 0.929 . S
H725 C718 0.930 . S
C726 C727 1.351 . S
C726 N729 1.368 . S
C726 H731 0.931 . S
C727 C726 1.351 . S
C727 N728 1.373 1_655 S
C727 H755 0.930 . S
N728 C727 1.373 1_455 S
N728 C730 1.340 1_455 S
N729 C726 1.368 . S
N729 C730 1.321 . S
N729 Co732 2.135 . S
C730 N728 1.340 1_655 S
C730 N729 1.321 . S
C730 H754 0.930 1_655 S
H731 C726 0.931 . S
Co732 N729 2.135 . S
Co732 N735 2.121 . S
Co732 O740 2.055 . S
Co732 O743 2.039 . S
Co732 N746 2.140 . S
C733 O734 1.227 . S
C733 O743 1.265 . S
O734 C733 1.227 . S
N735 Co732 2.121 . S
N735 C737 1.375 . S
N735 C738 1.313 . S
C736 C737 1.338 . S
C736 N739 1.377 . S
C736 H756 0.930 . S
C737 N735 1.375 . S
C737 C736 1.338 . S
C737 H741 0.931 . S
C738 N735 1.313 . S
C738 N739 1.344 . S
C738 H742 0.930 . S
N739 C736 1.377 . S
N739 C738 1.344 . S
O740 Co732 2.055 . S
O740 C744 1.253 . S
H741 C737 0.931 . S
H742 C738 0.930 . S
O743 Co732 2.039 . S
O743 C733 1.265 . S
C744 O740 1.253 . S
C744 O745 1.227 . S
O745 C744 1.227 . S
N746 Co732 2.140 . S
N746 C749 1.346 . S
N746 C750 1.345 . S
C747 C748 1.387 . S
C747 C751 1.391 . S
C748 C747 1.387 . S
C748 C749 1.369 . S
C748 H757 0.929 . S
C749 N746 1.346 . S
C749 C748 1.369 . S
C749 H752 0.928 . S
C750 N746 1.345 . S
C750 C751 1.371 . S
C750 H753 0.931 . S
C751 C747 1.391 . S
C751 C750 1.371 . S
C751 H758 0.930 . S
H752 C749 0.928 . S
H753 C750 0.931 . S
H754 C730 0.930 1_455 S
H755 C727 0.930 . S
H756 C736 0.930 . S
H757 C748 0.929 . S
H758 C751 0.930 . S
C759 C760 1.351 . S
C759 N762 1.368 . S
C759 H764 0.931 . S
C760 C759 1.351 . S
C760 N761 1.373 . S
C760 H788 0.930 . S
N761 C760 1.373 . S
N761 C763 1.340 . S
N762 C759 1.368 . S
N762 C763 1.321 . S
N762 Co765 2.135 . S
C763 N761 1.340 . S
C763 N762 1.321 . S
C763 H787 0.930 . S
H764 C759 0.931 . S
Co765 N762 2.135 . S
Co765 N768 2.121 . S
Co765 O773 2.055 . S
Co765 O776 2.039 . S
Co765 N779 2.140 . S
C766 O767 1.227 . S
C766 O776 1.265 . S
O767 C766 1.227 . S
N768 Co765 2.121 . S
N768 C770 1.375 . S
N768 C771 1.313 . S
C769 C770 1.338 . S
C769 N772 1.377 . S
C769 H789 0.930 . S
C770 N768 1.375 . S
C770 C769 1.338 . S
C770 H774 0.931 . S
C771 N768 1.313 . S
C771 N772 1.344 . S
C771 H775 0.930 . S
N772 C769 1.377 . S
N772 C771 1.344 . S
O773 Co765 2.055 . S
O773 C777 1.253 . S
H774 C770 0.931 . S
H775 C771 0.930 . S
O776 Co765 2.039 . S
O776 C766 1.265 . S
C777 O773 1.253 . S
C777 O778 1.227 . S
O778 C777 1.227 . S
N779 Co765 2.140 . S
N779 C782 1.346 . S
N779 C783 1.345 . S
C780 C781 1.387 . S
C780 C784 1.391 . S
C781 C780 1.387 . S
C781 C782 1.369 . S
C781 H790 0.929 . S
C782 N779 1.346 . S
C782 C781 1.369 . S
C782 H785 0.928 . S
C783 N779 1.345 . S
C783 C784 1.371 . S
C783 H786 0.931 . S
C784 C780 1.391 . S
C784 C783 1.371 . S
C784 H791 0.930 . S
H785 C782 0.928 . S
H786 C783 0.931 . S
H787 C763 0.930 . S
H788 C760 0.930 . S
H789 C769 0.930 . S
H790 C781 0.929 . S
H791 C784 0.930 . S
C792 C793 1.351 . S
C792 N795 1.368 . S
C792 H797 0.931 . S
C793 C792 1.351 . S
C793 N794 1.373 . S
C793 H821 0.930 . S
N794 C793 1.373 . S
N794 C796 1.340 . S
N795 C792 1.368 . S
N795 C796 1.321 . S
N795 Co798 2.135 . S
C796 N794 1.340 . S
C796 N795 1.321 . S
C796 H820 0.930 . S
H797 C792 0.931 . S
Co798 N795 2.135 . S
Co798 N801 2.121 . S
Co798 O806 2.055 . S
Co798 O809 2.039 . S
Co798 N812 2.140 . S
C799 O800 1.227 . S
C799 O809 1.265 . S
O800 C799 1.227 . S
N801 Co798 2.121 . S
N801 C803 1.375 . S
N801 C804 1.313 . S
C802 C803 1.338 . S
C802 N805 1.377 . S
C802 H822 0.930 . S
C803 N801 1.375 . S
C803 C802 1.338 . S
C803 H807 0.931 . S
C804 N801 1.313 . S
C804 N805 1.344 . S
C804 H808 0.930 . S
N805 C802 1.377 . S
N805 C804 1.344 . S
O806 Co798 2.055 . S
O806 C810 1.253 . S
H807 C803 0.931 . S
H808 C804 0.930 . S
O809 Co798 2.039 . S
O809 C799 1.265 . S
C810 O806 1.253 . S
C810 O811 1.227 . S
O811 C810 1.227 . S
N812 Co798 2.140 . S
N812 C815 1.346 . S
N812 C816 1.345 . S
C813 C814 1.387 . S
C813 C817 1.391 . S
C814 C813 1.387 . S
C814 C815 1.369 . S
C814 H823 0.929 . S
C815 N812 1.346 . S
C815 C814 1.369 . S
C815 H818 0.928 . S
C816 N812 1.345 . S
C816 C817 1.371 . S
C816 H819 0.931 . S
C817 C813 1.391 . S
C817 C816 1.371 . S
C817 H824 0.930 . S
H818 C815 0.928 . S
H819 C816 0.931 . S
H820 C796 0.930 . S
H821 C793 0.930 . S
H822 C802 0.930 . S
H823 C814 0.929 . S
H824 C817 0.930 . S
C825 C826 1.351 . S
C825 N828 1.368 . S
C825 H830 0.931 . S
C826 C825 1.351 . S
C826 N827 1.373 . S
C826 H854 0.930 . S
N827 C826 1.373 . S
N827 C829 1.340 . S
N828 C825 1.368 . S
N828 C829 1.321 . S
N828 Co831 2.135 . S
C829 N827 1.340 . S
C829 N828 1.321 . S
C829 H853 0.930 . S
H830 C825 0.931 . S
Co831 N828 2.135 . S
Co831 N834 2.121 1_556 S
Co831 O839 2.054 1_556 S
Co831 O842 2.039 . S
Co831 N845 2.140 . S
C832 O833 1.227 . S
C832 O842 1.265 . S
O833 C832 1.227 . S
N834 Co831 2.121 1_554 S
N834 C836 1.375 . S
N834 C837 1.313 . S
C835 C836 1.338 . S
C835 N838 1.377 . S
C835 H855 0.930 . S
C836 N834 1.375 . S
C836 C835 1.338 . S
C836 H840 0.931 . S
C837 N834 1.313 . S
C837 N838 1.344 . S
C837 H841 0.930 . S
N838 C835 1.377 . S
N838 C837 1.344 . S
O839 Co831 2.054 1_554 S
O839 C843 1.252 1_554 S
H840 C836 0.931 . S
H841 C837 0.930 . S
O842 Co831 2.039 . S
O842 C832 1.265 . S
C843 O839 1.252 1_556 S
C843 O844 1.227 . S
O844 C843 1.227 . S
N845 Co831 2.140 . S
N845 C848 1.346 . S
N845 C849 1.345 . S
C846 C847 1.387 . S
C846 C850 1.391 . S
C847 C846 1.387 . S
C847 C848 1.369 . S
C847 H856 0.929 . S
C848 N845 1.346 . S
C848 C847 1.369 . S
C848 H851 0.928 . S
C849 N845 1.345 . S
C849 C850 1.371 . S
C849 H852 0.931 . S
C850 C846 1.391 . S
C850 C849 1.371 . S
C850 H857 0.930 . S
H851 C848 0.928 . S
H852 C849 0.931 . S
H853 C829 0.930 . S
H854 C826 0.930 . S
H855 C835 0.930 . S
H856 C847 0.929 . S
H857 C850 0.930 . S
C858 C859 1.351 . S
C858 N861 1.368 . S
C858 H863 0.931 . S
C859 C858 1.351 . S
C859 N860 1.373 1_455 S
C859 H887 0.930 . S
N860 C859 1.373 1_655 S
N860 C862 1.340 1_655 S
N861 C858 1.368 . S
N861 C862 1.321 . S
N861 Co864 2.135 . S
C862 N860 1.340 1_455 S
C862 N861 1.321 . S
C862 H886 0.930 1_455 S
H863 C858 0.931 . S
Co864 N861 2.135 . S
Co864 N867 2.121 . S
Co864 O872 2.055 . S
Co864 O875 2.039 . S
Co864 N878 2.140 . S
C865 O866 1.227 . S
C865 O875 1.265 . S
O866 C865 1.227 . S
N867 Co864 2.121 . S
N867 C869 1.375 . S
N867 C870 1.313 . S
C868 C869 1.338 . S
C868 N871 1.377 . S
C868 H888 0.930 . S
C869 N867 1.375 . S
C869 C868 1.338 . S
C869 H873 0.931 . S
C870 N867 1.313 . S
C870 N871 1.344 . S
C870 H874 0.930 . S
N871 C868 1.377 . S
N871 C870 1.344 . S
O872 Co864 2.055 . S
O872 C876 1.253 . S
H873 C869 0.931 . S
H874 C870 0.930 . S
O875 Co864 2.039 . S
O875 C865 1.265 . S
C876 O872 1.253 . S
C876 O877 1.227 . S
O877 C876 1.227 . S
N878 Co864 2.140 . S
N878 C881 1.346 . S
N878 C882 1.345 . S
C879 C880 1.387 . S
C879 C883 1.391 . S
C880 C879 1.387 . S
C880 C881 1.369 . S
C880 H889 0.929 . S
C881 N878 1.346 . S
C881 C880 1.369 . S
C881 H884 0.928 . S
C882 N878 1.345 . S
C882 C883 1.371 . S
C882 H885 0.931 . S
C883 C879 1.391 . S
C883 C882 1.371 . S
C883 H890 0.930 . S
H884 C881 0.928 . S
H885 C882 0.931 . S
H886 C862 0.930 1_655 S
H887 C859 0.930 . S
H888 C868 0.930 . S
H889 C880 0.929 . S
H890 C883 0.930 . S
C891 C892 1.351 . S
C891 N894 1.368 . S
C891 H896 0.931 . S
C892 C891 1.351 . S
C892 N893 1.373 . S
C892 H920 0.930 . S
N893 C892 1.373 . S
N893 C895 1.340 . S
N894 C891 1.368 . S
N894 C895 1.321 . S
N894 Co897 2.135 . S
C895 N893 1.340 . S
C895 N894 1.321 . S
C895 H919 0.930 . S
H896 C891 0.931 . S
Co897 N894 2.135 . S
Co897 N900 2.121 . S
Co897 O905 2.055 . S
Co897 O908 2.039 . S
Co897 N911 2.140 . S
C898 O899 1.227 . S
C898 O908 1.265 . S
O899 C898 1.227 . S
N900 Co897 2.121 . S
N900 C902 1.375 . S
N900 C903 1.313 . S
C901 C902 1.338 . S
C901 N904 1.377 . S
C901 H921 0.930 . S
C902 N900 1.375 . S
C902 C901 1.338 . S
C902 H906 0.931 . S
C903 N900 1.313 . S
C903 N904 1.344 . S
C903 H907 0.930 . S
N904 C901 1.377 . S
N904 C903 1.344 . S
O905 Co897 2.055 . S
O905 C909 1.253 . S
H906 C902 0.931 . S
H907 C903 0.930 . S
O908 Co897 2.039 . S
O908 C898 1.265 . S
C909 O905 1.253 . S
C909 O910 1.227 . S
O910 C909 1.227 . S
N911 Co897 2.140 . S
N911 C914 1.346 . S
N911 C915 1.345 . S
C912 C913 1.387 . S
C912 C916 1.391 . S
C913 C912 1.387 . S
C913 C914 1.369 . S
C913 H922 0.929 . S
C914 N911 1.346 . S
C914 C913 1.369 . S
C914 H917 0.928 . S
C915 N911 1.345 . S
C915 C916 1.371 . S
C915 H918 0.931 . S
C916 C912 1.391 . S
C916 C915 1.371 . S
C916 H923 0.930 . S
H917 C914 0.928 . S
H918 C915 0.931 . S
H919 C895 0.930 . S
H920 C892 0.930 . S
H921 C901 0.930 . S
H922 C913 0.929 . S
H923 C916 0.930 . S
C924 C925 1.351 . S
C924 N927 1.368 . S
C924 H929 0.931 . S
C925 C924 1.351 . S
C925 N926 1.373 . S
C925 H953 0.930 . S
N926 C925 1.373 . S
N926 C928 1.340 . S
N927 C924 1.368 . S
N927 C928 1.321 . S
N927 Co930 2.135 . S
C928 N926 1.340 . S
C928 N927 1.321 . S
C928 H952 0.930 . S
H929 C924 0.931 . S
Co930 N927 2.135 . S
Co930 N933 2.121 . S
Co930 O938 2.055 . S
Co930 O941 2.039 . S
Co930 N944 2.140 . S
C931 O932 1.227 . S
C931 O941 1.265 . S
O932 C931 1.227 . S
N933 Co930 2.121 . S
N933 C935 1.375 . S
N933 C936 1.313 . S
C934 C935 1.338 . S
C934 N937 1.377 . S
C934 H954 0.930 . S
C935 N933 1.375 . S
C935 C934 1.338 . S
C935 H939 0.931 . S
C936 N933 1.313 . S
C936 N937 1.344 . S
C936 H940 0.930 . S
N937 C934 1.377 . S
N937 C936 1.344 . S
O938 Co930 2.055 . S
O938 C942 1.253 . S
H939 C935 0.931 . S
H940 C936 0.930 . S
O941 Co930 2.039 . S
O941 C931 1.265 . S
C942 O938 1.253 . S
C942 O943 1.227 . S
O943 C942 1.227 . S
N944 Co930 2.140 . S
N944 C947 1.346 . S
N944 C948 1.345 . S
C945 C946 1.387 . S
C945 C949 1.391 . S
C946 C945 1.387 . S
C946 C947 1.369 . S
C946 H955 0.929 . S
C947 N944 1.346 . S
C947 C946 1.369 . S
C947 H950 0.928 . S
C948 N944 1.345 . S
C948 C949 1.371 . S
C948 H951 0.931 . S
C949 C945 1.391 . S
C949 C948 1.371 . S
C949 H956 0.930 . S
H950 C947 0.928 . S
H951 C948 0.931 . S
H952 C928 0.930 . S
H953 C925 0.930 . S
H954 C934 0.930 . S
H955 C946 0.929 . S
H956 C949 0.930 . S
C957 C958 1.351 . S
C957 N960 1.368 . S
C957 H962 0.931 . S
C958 C957 1.351 . S
C958 N959 1.373 . S
C958 H986 0.930 . S
N959 C958 1.373 . S
N959 C961 1.340 . S
N960 C957 1.368 . S
N960 C961 1.321 . S
N960 Co963 2.135 . S
C961 N959 1.340 . S
C961 N960 1.321 . S
C961 H985 0.930 . S
H962 C957 0.931 . S
Co963 N960 2.135 . S
Co963 N966 2.121 1_554 S
Co963 O971 2.054 1_554 S
Co963 O974 2.039 . S
Co963 N977 2.140 . S
C964 O965 1.227 . S
C964 O974 1.265 . S
O965 C964 1.227 . S
N966 Co963 2.121 1_556 S
N966 C968 1.375 . S
N966 C969 1.313 . S
C967 C968 1.338 . S
C967 N970 1.377 . S
C967 H987 0.930 . S
C968 N966 1.375 . S
C968 C967 1.338 . S
C968 H972 0.931 . S
C969 N966 1.313 . S
C969 N970 1.344 . S
C969 H973 0.930 . S
N970 C967 1.377 . S
N970 C969 1.344 . S
O971 Co963 2.054 1_556 S
O971 C975 1.252 1_556 S
H972 C968 0.931 . S
H973 C969 0.930 . S
O974 Co963 2.039 . S
O974 C964 1.265 . S
C975 O971 1.252 1_554 S
C975 O976 1.227 . S
O976 C975 1.227 . S
N977 Co963 2.140 . S
N977 C980 1.346 . S
N977 C981 1.345 . S
C978 C979 1.387 . S
C978 C982 1.391 . S
C979 C978 1.387 . S
C979 C980 1.369 . S
C979 H988 0.929 . S
C980 N977 1.346 . S
C980 C979 1.369 . S
C980 H983 0.928 . S
C981 N977 1.345 . S
C981 C982 1.371 . S
C981 H984 0.931 . S
C982 C978 1.391 . S
C982 C981 1.371 . S
C982 H989 0.930 . S
H983 C980 0.928 . S
H984 C981 0.931 . S
H985 C961 0.930 . S
H986 C958 0.930 . S
H987 C967 0.930 . S
H988 C979 0.929 . S
H989 C982 0.930 . S
C990 C991 1.351 . S
C990 N993 1.368 . S
C990 H995 0.931 . S
C991 C990 1.351 . S
C991 N992 1.373 1_455 S
C991 H1019 0.930 . S
N992 C991 1.373 1_655 S
N992 C994 1.340 1_655 S
N993 C990 1.368 . S
N993 C994 1.321 . S
N993 Co996 2.135 . S
C994 N992 1.340 1_455 S
C994 N993 1.321 . S
C994 H1018 0.930 1_455 S
H995 C990 0.931 . S
Co996 N993 2.135 . S
Co996 N999 2.121 . S
Co996 O1004 2.055 . S
Co996 O1007 2.039 . S
Co996 N1010 2.140 . S
C997 O998 1.227 . S
C997 O1007 1.265 . S
O998 C997 1.227 . S
N999 Co996 2.121 . S
N999 C1001 1.375 . S
N999 C1002 1.313 . S
C1000 C1001 1.338 . S
C1000 N1003 1.377 . S
C1000 H1020 0.930 . S
C1001 N999 1.375 . S
C1001 C1000 1.338 . S
C1001 H1005 0.931 . S
C1002 N999 1.313 . S
C1002 N1003 1.344 . S
C1002 H1006 0.930 . S
N1003 C1000 1.377 . S
N1003 C1002 1.344 . S
O1004 Co996 2.055 . S
O1004 C1008 1.253 . S
H1005 C1001 0.931 . S
H1006 C1002 0.930 . S
O1007 Co996 2.039 . S
O1007 C997 1.265 . S
C1008 O1004 1.253 . S
C1008 O1009 1.227 . S
O1009 C1008 1.227 . S
N1010 Co996 2.140 . S
N1010 C1013 1.346 . S
N1010 C1014 1.345 . S
C1011 C1012 1.387 . S
C1011 C1015 1.391 . S
C1012 C1011 1.387 . S
C1012 C1013 1.369 . S
C1012 H1021 0.929 . S
C1013 N1010 1.346 . S
C1013 C1012 1.369 . S
C1013 H1016 0.928 . S
C1014 N1010 1.345 . S
C1014 C1015 1.371 . S
C1014 H1017 0.931 . S
C1015 C1011 1.391 . S
C1015 C1014 1.371 . S
C1015 H1022 0.930 . S
H1016 C1013 0.928 . S
H1017 C1014 0.931 . S
H1018 C994 0.930 1_655 S
H1019 C991 0.930 . S
H1020 C1000 0.930 . S
H1021 C1012 0.929 . S
H1022 C1015 0.930 . S
C1023 C1024 1.351 . S
C1023 N1026 1.368 . S
C1023 H1028 0.931 . S
C1024 C1023 1.351 . S
C1024 N1025 1.373 . S
C1024 H1052 0.930 . S
N1025 C1024 1.373 . S
N1025 C1027 1.340 . S
N1026 C1023 1.368 . S
N1026 C1027 1.321 . S
N1026 Co1029 2.135 . S
C1027 N1025 1.340 . S
C1027 N1026 1.321 . S
C1027 H1051 0.930 . S
H1028 C1023 0.931 . S
Co1029 N1026 2.135 . S
Co1029 N1032 2.121 . S
Co1029 O1037 2.055 . S
Co1029 O1040 2.039 . S
Co1029 N1043 2.140 . S
C1030 O1031 1.227 . S
C1030 O1040 1.265 . S
O1031 C1030 1.227 . S
N1032 Co1029 2.121 . S
N1032 C1034 1.375 . S
N1032 C1035 1.313 . S
C1033 C1034 1.338 . S
C1033 N1036 1.377 . S
C1033 H1053 0.930 . S
C1034 N1032 1.375 . S
C1034 C1033 1.338 . S
C1034 H1038 0.931 . S
C1035 N1032 1.313 . S
C1035 N1036 1.344 . S
C1035 H1039 0.930 . S
N1036 C1033 1.377 . S
N1036 C1035 1.344 . S
O1037 Co1029 2.055 . S
O1037 C1041 1.253 . S
H1038 C1034 0.931 . S
H1039 C1035 0.930 . S
O1040 Co1029 2.039 . S
O1040 C1030 1.265 . S
C1041 O1037 1.253 . S
C1041 O1042 1.227 . S
O1042 C1041 1.227 . S
N1043 Co1029 2.140 . S
N1043 C1046 1.346 . S
N1043 C1047 1.345 . S
C1044 C1045 1.387 . S
C1044 C1048 1.391 . S
C1045 C1044 1.387 . S
C1045 C1046 1.369 . S
C1045 H1054 0.929 . S
C1046 N1043 1.346 . S
C1046 C1045 1.369 . S
C1046 H1049 0.928 . S
C1047 N1043 1.345 . S
C1047 C1048 1.371 . S
C1047 H1050 0.931 . S
C1048 C1044 1.391 . S
C1048 C1047 1.371 . S
C1048 H1055 0.930 . S
H1049 C1046 0.928 . S
H1050 C1047 0.931 . S
H1051 C1027 0.930 . S
H1052 C1024 0.930 . S
H1053 C1033 0.930 . S
H1054 C1045 0.929 . S
H1055 C1048 0.930 . S
C1056 C1057 1.387 . S
C1056 H1060 0.950 . S
C1056 C1065 1.390 . S
C1057 C1056 1.387 . S
C1057 C1059 1.387 . S
H1058 C1065 0.950 . S
C1059 C1057 1.387 . S
C1059 C1061 1.390 . S
C1059 H1063 0.950 . S
H1060 C1056 0.950 . S
C1061 C1059 1.390 . S
C1061 C1062 1.387 . S
C1061 H1064 0.950 . S
C1062 C1061 1.387 . S
C1062 C1065 1.387 . S
H1063 C1059 0.950 . S
H1064 C1061 0.950 . S
C1065 C1056 1.390 . S
C1065 H1058 0.950 . S
C1065 C1062 1.387 . S
C1066 C1067 1.387 . S
C1066 H1070 0.950 . S
C1066 C1075 1.390 . S
C1067 C1066 1.387 . S
C1067 C1069 1.387 . S
H1068 C1075 0.950 . S
C1069 C1067 1.387 . S
C1069 C1071 1.390 . S
C1069 H1073 0.950 . S
H1070 C1066 0.950 . S
C1071 C1069 1.390 . S
C1071 C1072 1.387 . S
C1071 H1074 0.950 . S
C1072 C1071 1.387 . S
C1072 C1075 1.387 . S
H1073 C1069 0.950 . S
H1074 C1071 0.950 . S
C1075 C1066 1.390 . S
C1075 H1068 0.950 . S
C1075 C1072 1.387 . S
C1076 C1077 1.387 . S
C1076 H1080 0.950 . S
C1076 C1085 1.390 . S
C1077 C1076 1.387 . S
C1077 C1079 1.387 . S
H1078 C1085 0.950 . S
C1079 C1077 1.387 . S
C1079 C1081 1.390 . S
C1079 H1083 0.950 . S
H1080 C1076 0.950 . S
C1081 C1079 1.390 . S
C1081 C1082 1.387 . S
C1081 H1084 0.950 . S
C1082 C1081 1.387 . S
C1082 C1085 1.387 . S
H1083 C1079 0.950 . S
H1084 C1081 0.950 . S
C1085 C1076 1.390 . S
C1085 H1078 0.950 . S
C1085 C1082 1.387 . S
C1086 C1087 1.387 . S
C1086 H1090 0.950 . S
C1086 C1095 1.390 . S
C1087 C1086 1.387 . S
C1087 C1089 1.387 . S
H1088 C1095 0.950 . S
C1089 C1087 1.387 . S
C1089 C1091 1.390 . S
C1089 H1093 0.950 . S
H1090 C1086 0.950 . S
C1091 C1089 1.390 . S
C1091 C1092 1.387 . S
C1091 H1094 0.950 . S
C1092 C1091 1.387 . S
C1092 C1095 1.387 . S
H1093 C1089 0.950 . S
H1094 C1091 0.950 . S
C1095 C1086 1.390 . S
C1095 H1088 0.950 . S
C1095 C1092 1.387 . S
C1096 C1097 1.387 . S
C1096 H1100 0.950 . S
C1096 C1105 1.390 . S
C1097 C1096 1.387 . S
C1097 C1099 1.387 . S
H1098 C1105 0.950 . S
C1099 C1097 1.387 . S
C1099 C1101 1.390 . S
C1099 H1103 0.950 . S
H1100 C1096 0.950 . S
C1101 C1099 1.390 . S
C1101 C1102 1.387 . S
C1101 H1104 0.950 . S
C1102 C1101 1.387 . S
C1102 C1105 1.387 . S
H1103 C1099 0.950 . S
H1104 C1101 0.950 . S
C1105 C1096 1.390 . S
C1105 H1098 0.950 . S
C1105 C1102 1.387 . S
C1106 C1107 1.387 . S
C1106 H1110 0.950 . S
C1106 C1115 1.390 . S
C1107 C1106 1.387 . S
C1107 C1109 1.387 . S
H1108 C1115 0.950 . S
C1109 C1107 1.387 . S
C1109 C1111 1.390 . S
C1109 H1113 0.950 . S
H1110 C1106 0.950 . S
C1111 C1109 1.390 . S
C1111 C1112 1.387 . S
C1111 H1114 0.950 . S
C1112 C1111 1.387 . S
C1112 C1115 1.387 . S
H1113 C1109 0.950 . S
H1114 C1111 0.950 . S
C1115 C1106 1.390 . S
C1115 H1108 0.950 . S
C1115 C1112 1.387 . S
C1116 C1117 1.387 . S
C1116 H1120 0.950 . S
C1116 C1125 1.390 . S
C1117 C1116 1.387 . S
C1117 C1119 1.387 . S
H1118 C1125 0.950 . S
C1119 C1117 1.387 . S
C1119 C1121 1.390 . S
C1119 H1123 0.950 . S
H1120 C1116 0.950 . S
C1121 C1119 1.390 . S
C1121 C1122 1.387 . S
C1121 H1124 0.950 . S
C1122 C1121 1.387 . S
C1122 C1125 1.387 . S
H1123 C1119 0.950 . S
H1124 C1121 0.950 . S
C1125 C1116 1.390 . S
C1125 H1118 0.950 . S
C1125 C1122 1.387 . S
C1126 C1127 1.387 . S
C1126 H1130 0.950 . S
C1126 C1135 1.390 . S
C1127 C1126 1.387 . S
C1127 C1129 1.387 . S
H1128 C1135 0.950 . S
C1129 C1127 1.387 . S
C1129 C1131 1.390 . S
C1129 H1133 0.950 . S
H1130 C1126 0.950 . S
C1131 C1129 1.390 . S
C1131 C1132 1.387 . S
C1131 H1134 0.950 . S
C1132 C1131 1.387 . S
C1132 C1135 1.387 . S
H1133 C1129 0.950 . S
H1134 C1131 0.950 . S
C1135 C1126 1.390 . S
C1135 H1128 0.950 . S
C1135 C1132 1.387 . S
C1136 C1137 1.387 . S
C1136 H1140 0.950 . S
C1136 C1145 1.390 . S
C1137 C1136 1.387 . S
C1137 C1139 1.387 . S
H1138 C1145 0.950 . S
C1139 C1137 1.387 . S
C1139 C1141 1.390 . S
C1139 H1143 0.950 . S
H1140 C1136 0.950 . S
C1141 C1139 1.390 . S
C1141 C1142 1.387 . S
C1141 H1144 0.950 . S
C1142 C1141 1.387 . S
C1142 C1145 1.387 . S
H1143 C1139 0.950 . S
H1144 C1141 0.950 . S
C1145 C1136 1.390 . S
C1145 H1138 0.950 . S
C1145 C1142 1.387 . S
C1146 C1147 1.387 . S
C1146 H1150 0.950 . S
C1146 C1155 1.390 . S
C1147 C1146 1.387 . S
C1147 C1149 1.387 . S
H1148 C1155 0.950 . S
C1149 C1147 1.387 . S
C1149 C1151 1.390 . S
C1149 H1153 0.950 . S
H1150 C1146 0.950 . S
C1151 C1149 1.390 . S
C1151 C1152 1.387 . S
C1151 H1154 0.950 . S
C1152 C1151 1.387 . S
C1152 C1155 1.387 . S
H1153 C1149 0.950 . S
H1154 C1151 0.950 . S
C1155 C1146 1.390 . S
C1155 H1148 0.950 . S
C1155 C1152 1.387 . S
C1156 C1157 1.387 . S
C1156 H1160 0.950 . S
C1156 C1165 1.390 . S
C1157 C1156 1.387 . S
C1157 C1159 1.387 . S
H1158 C1165 0.950 . S
C1159 C1157 1.387 . S
C1159 C1161 1.390 . S
C1159 H1163 0.950 . S
H1160 C1156 0.950 . S
C1161 C1159 1.390 . S
C1161 C1162 1.387 . S
C1161 H1164 0.950 . S
C1162 C1161 1.387 . S
C1162 C1165 1.387 . S
H1163 C1159 0.950 . S
H1164 C1161 0.950 . S
C1165 C1156 1.390 . S
C1165 H1158 0.950 . S
C1165 C1162 1.387 . S
C1166 C1167 1.387 . S
C1166 H1170 0.950 . S
C1166 C1175 1.390 . S
C1167 C1166 1.387 . S
C1167 C1169 1.387 . S
H1168 C1175 0.950 . S
C1169 C1167 1.387 . S
C1169 C1171 1.390 . S
C1169 H1173 0.950 . S
H1170 C1166 0.950 . S
C1171 C1169 1.390 . S
C1171 C1172 1.387 . S
C1171 H1174 0.950 . S
C1172 C1171 1.387 . S
C1172 C1175 1.387 . S
H1173 C1169 0.950 . S
H1174 C1171 0.950 . S
C1175 C1166 1.390 . S
C1175 H1168 0.950 . S
C1175 C1172 1.387 . S
C1176 C1177 1.387 . S
C1176 H1180 0.950 . S
C1176 C1185 1.390 . S
C1177 C1176 1.387 . S
C1177 C1179 1.387 . S
H1178 C1185 0.950 . S
C1179 C1177 1.387 . S
C1179 C1181 1.390 . S
C1179 H1183 0.950 . S
H1180 C1176 0.950 . S
C1181 C1179 1.390 . S
C1181 C1182 1.387 . S
C1181 H1184 0.950 . S
C1182 C1181 1.387 . S
C1182 C1185 1.387 . S
H1183 C1179 0.950 . S
H1184 C1181 0.950 . S
C1185 C1176 1.390 . S
C1185 H1178 0.950 . S
C1185 C1182 1.387 . S
C1186 C1187 1.387 . S
C1186 H1190 0.950 . S
C1186 C1195 1.390 . S
C1187 C1186 1.387 . S
C1187 C1189 1.387 . S
H1188 C1195 0.950 . S
C1189 C1187 1.387 . S
C1189 C1191 1.390 . S
C1189 H1193 0.950 . S
H1190 C1186 0.950 . S
C1191 C1189 1.390 . S
C1191 C1192 1.387 . S
C1191 H1194 0.950 . S
C1192 C1191 1.387 . S
C1192 C1195 1.387 . S
H1193 C1189 0.950 . S
H1194 C1191 0.950 . S
C1195 C1186 1.390 . S
C1195 H1188 0.950 . S
C1195 C1192 1.387 . S
C1196 C1197 1.387 . S
C1196 H1200 0.950 . S
C1196 C1205 1.390 . S
C1197 C1196 1.387 . S
C1197 C1199 1.387 . S
H1198 C1205 0.950 . S
C1199 C1197 1.387 . S
C1199 C1201 1.390 . S
C1199 H1203 0.950 . S
H1200 C1196 0.950 . S
C1201 C1199 1.390 . S
C1201 C1202 1.387 . S
C1201 H1204 0.950 . S
C1202 C1201 1.387 . S
C1202 C1205 1.387 . S
H1203 C1199 0.950 . S
H1204 C1201 0.950 . S
C1205 C1196 1.390 . S
C1205 H1198 0.950 . S
C1205 C1202 1.387 . S
C1206 C1207 1.387 . S
C1206 H1210 0.950 . S
C1206 C1215 1.390 . S
C1207 C1206 1.387 . S
C1207 C1209 1.387 . S
H1208 C1215 0.950 . S
C1209 C1207 1.387 . S
C1209 C1211 1.390 . S
C1209 H1213 0.950 . S
H1210 C1206 0.950 . S
C1211 C1209 1.390 . S
C1211 C1212 1.387 . S
C1211 H1214 0.950 . S
C1212 C1211 1.387 . S
C1212 C1215 1.387 . S
H1213 C1209 0.950 . S
H1214 C1211 0.950 . S
C1215 C1206 1.390 . S
C1215 H1208 0.950 . S
C1215 C1212 1.387 . S
C1216 C1217 1.387 . S
C1216 H1220 0.950 . S
C1216 C1225 1.390 1_565 S
C1217 C1216 1.387 . S
C1217 C1219 1.387 . S
H1218 C1225 0.950 . S
C1219 C1217 1.387 . S
C1219 C1221 1.390 1_565 S
C1219 H1223 0.950 . S
H1220 C1216 0.950 . S
C1221 C1219 1.390 1_545 S
C1221 C1222 1.387 . S
C1221 H1224 0.950 . S
C1222 C1221 1.387 . S
C1222 C1225 1.387 . S
H1223 C1219 0.950 . S
H1224 C1221 0.950 . S
C1225 C1216 1.390 1_545 S
C1225 H1218 0.950 . S
C1225 C1222 1.387 . S
C1226 C1227 1.387 . S
C1226 H1230 0.950 . S
C1226 C1235 1.390 . S
C1227 C1226 1.387 . S
C1227 C1229 1.387 . S
H1228 C1235 0.950 . S
C1229 C1227 1.387 . S
C1229 C1231 1.390 . S
C1229 H1233 0.950 . S
H1230 C1226 0.950 . S
C1231 C1229 1.390 . S
C1231 C1232 1.387 . S
C1231 H1234 0.950 . S
C1232 C1231 1.387 . S
C1232 C1235 1.387 . S
H1233 C1229 0.950 . S
H1234 C1231 0.950 . S
C1235 C1226 1.390 . S
C1235 H1228 0.950 . S
C1235 C1232 1.387 . S
C1236 C1237 1.387 . S
C1236 H1240 0.950 . S
C1236 C1245 1.390 1_545 S
C1237 C1236 1.387 . S
C1237 C1239 1.387 . S
H1238 C1245 0.950 . S
C1239 C1237 1.387 . S
C1239 C1241 1.390 1_545 S
C1239 H1243 0.950 . S
H1240 C1236 0.950 . S
C1241 C1239 1.390 1_565 S
C1241 C1242 1.387 . S
C1241 H1244 0.950 . S
C1242 C1241 1.387 . S
C1242 C1245 1.387 . S
H1243 C1239 0.950 . S
H1244 C1241 0.950 . S
C1245 C1236 1.390 1_565 S
C1245 H1238 0.950 . S
C1245 C1242 1.387 . S
C1246 C1247 1.389 . S
C1246 H1250 0.951 . S
C1246 C1255 1.388 1_554 S
C1247 C1246 1.389 . S
C1247 C1249 1.389 . S
H1248 C1255 0.951 . S
C1249 C1247 1.389 . S
C1249 C1251 1.388 1_554 S
C1249 H1253 0.951 . S
H1250 C1246 0.951 . S
C1251 C1249 1.388 1_556 S
C1251 C1252 1.389 . S
C1251 H1254 0.951 . S
C1252 C1251 1.389 . S
C1252 C1255 1.389 . S
H1253 C1249 0.951 . S
H1254 C1251 0.951 . S
C1255 C1246 1.388 1_556 S
C1255 H1248 0.951 . S
C1255 C1252 1.389 . S
C1256 C1257 1.387 . S
C1256 H1260 0.950 . S
C1256 C1265 1.390 1_545 S
C1257 C1256 1.387 . S
C1257 C1259 1.387 . S
H1258 C1265 0.950 . S
C1259 C1257 1.387 . S
C1259 C1261 1.390 1_545 S
C1259 H1263 0.950 . S
H1260 C1256 0.950 . S
C1261 C1259 1.390 1_565 S
C1261 C1262 1.387 . S
C1261 H1264 0.950 . S
C1262 C1261 1.387 . S
C1262 C1265 1.387 . S
H1263 C1259 0.950 . S
H1264 C1261 0.950 . S
C1265 C1256 1.390 1_565 S
C1265 H1258 0.950 . S
C1265 C1262 1.387 . S
C1266 C1267 1.387 . S
C1266 H1270 0.950 . S
C1266 C1275 1.390 . S
C1267 C1266 1.387 . S
C1267 C1269 1.387 . S
H1268 C1275 0.950 . S
C1269 C1267 1.387 . S
C1269 C1271 1.390 . S
C1269 H1273 0.950 . S
H1270 C1266 0.950 . S
C1271 C1269 1.390 . S
C1271 C1272 1.387 . S
C1271 H1274 0.950 . S
C1272 C1271 1.387 . S
C1272 C1275 1.387 . S
H1273 C1269 0.950 . S
H1274 C1271 0.950 . S
C1275 C1266 1.390 . S
C1275 H1268 0.950 . S
C1275 C1272 1.387 . S
C1276 C1277 1.387 . S
C1276 H1280 0.950 . S
C1276 C1285 1.390 1_545 S
C1277 C1276 1.387 . S
C1277 C1279 1.387 . S
H1278 C1285 0.950 . S
C1279 C1277 1.387 . S
C1279 C1281 1.390 1_545 S
C1279 H1283 0.950 . S
H1280 C1276 0.950 . S
C1281 C1279 1.390 1_565 S
C1281 C1282 1.387 . S
C1281 H1284 0.950 . S
C1282 C1281 1.387 . S
C1282 C1285 1.387 . S
H1283 C1279 0.950 . S
H1284 C1281 0.950 . S
C1285 C1276 1.390 1_565 S
C1285 H1278 0.950 . S
C1285 C1282 1.387 . S
C1286 C1287 1.388 . S
C1286 H1290 0.950 . S
C1286 C1295 1.389 1_554 S
C1287 C1286 1.388 . S
C1287 C1289 1.388 . S
H1288 C1295 0.950 . S
C1289 C1287 1.388 . S
C1289 C1291 1.389 1_554 S
C1289 H1293 0.950 . S
H1290 C1286 0.950 . S
C1291 C1289 1.389 1_556 S
C1291 C1292 1.388 . S
C1291 H1294 0.950 . S
C1292 C1291 1.388 . S
C1292 C1295 1.388 . S
H1293 C1289 0.950 . S
H1294 C1291 0.950 . S
C1295 C1286 1.389 1_556 S
C1295 H1288 0.950 . S
C1295 C1292 1.388 . S
C1296 C1297 1.387 . S
C1296 H1300 0.950 . S
C1296 C1305 1.390 . S
C1297 C1296 1.387 . S
C1297 C1299 1.387 . S
H1298 C1305 0.950 . S
C1299 C1297 1.387 . S
C1299 C1301 1.390 . S
C1299 H1303 0.950 . S
H1300 C1296 0.950 . S
C1301 C1299 1.390 . S
C1301 C1302 1.387 . S
C1301 H1304 0.950 . S
C1302 C1301 1.387 . S
C1302 C1305 1.387 . S
H1303 C1299 0.950 . S
H1304 C1301 0.950 . S
C1305 C1296 1.390 . S
C1305 H1298 0.950 . S
C1305 C1302 1.387 . S
C1306 C1307 1.388 . S
C1306 H1310 0.950 . S
C1306 C1315 1.389 1_556 S
C1307 C1306 1.388 . S
C1307 C1309 1.388 . S
H1308 C1315 0.950 . S
C1309 C1307 1.388 . S
C1309 C1311 1.389 1_556 S
C1309 H1313 0.950 . S
H1310 C1306 0.950 . S
C1311 C1309 1.389 1_554 S
C1311 C1312 1.388 . S
C1311 H1314 0.950 . S
C1312 C1311 1.388 . S
C1312 C1315 1.388 . S
H1313 C1309 0.950 . S
H1314 C1311 0.950 . S
C1315 C1306 1.389 1_554 S
C1315 H1308 0.950 . S
C1315 C1312 1.388 . S
C1316 C1317 1.387 . S
C1316 H1320 0.950 . S
C1316 C1325 1.390 . S
C1317 C1316 1.387 . S
C1317 C1319 1.387 . S
H1318 C1325 0.950 . S
C1319 C1317 1.387 . S
C1319 C1321 1.390 . S
C1319 H1323 0.950 . S
H1320 C1316 0.950 . S
C1321 C1319 1.390 . S
C1321 C1322 1.387 . S
C1321 H1324 0.950 . S
C1322 C1321 1.387 . S
C1322 C1325 1.387 . S
H1323 C1319 0.950 . S
H1324 C1321 0.950 . S
C1325 C1316 1.390 . S
C1325 H1318 0.950 . S
C1325 C1322 1.387 . S
C1326 C1327 1.387 . S
C1326 H1330 0.950 . S
C1326 C1335 1.390 . S
C1327 C1326 1.387 . S
C1327 C1329 1.387 . S
H1328 C1335 0.950 . S
C1329 C1327 1.387 . S
C1329 C1331 1.390 . S
C1329 H1333 0.950 . S
H1330 C1326 0.950 . S
C1331 C1329 1.390 . S
C1331 C1332 1.387 . S
C1331 H1334 0.950 . S
C1332 C1331 1.387 . S
C1332 C1335 1.387 . S
H1333 C1329 0.950 . S
H1334 C1331 0.950 . S
C1335 C1326 1.390 . S
C1335 H1328 0.950 . S
C1335 C1332 1.387 . S
C1336 C1337 1.387 . S
C1336 H1340 0.950 . S
C1336 C1345 1.390 . S
C1337 C1336 1.387 . S
C1337 C1339 1.387 . S
H1338 C1345 0.950 . S
C1339 C1337 1.387 . S
C1339 C1341 1.390 . S
C1339 H1343 0.950 . S
H1340 C1336 0.950 . S
C1341 C1339 1.390 . S
C1341 C1342 1.387 . S
C1341 H1344 0.950 . S
C1342 C1341 1.387 . S
C1342 C1345 1.387 . S
H1343 C1339 0.950 . S
H1344 C1341 0.950 . S
C1345 C1336 1.390 . S
C1345 H1338 0.950 . S
C1345 C1342 1.387 . S
C1346 C1347 1.389 . S
C1346 H1350 0.951 . S
C1346 C1355 1.388 1_556 S
C1347 C1346 1.389 . S
C1347 C1349 1.389 . S
H1348 C1355 0.951 . S
C1349 C1347 1.389 . S
C1349 C1351 1.388 1_556 S
C1349 H1353 0.951 . S
H1350 C1346 0.951 . S
C1351 C1349 1.388 1_554 S
C1351 C1352 1.389 . S
C1351 H1354 0.951 . S
C1352 C1351 1.389 . S
C1352 C1355 1.389 . S
H1353 C1349 0.951 . S
H1354 C1351 0.951 . S
C1355 C1346 1.388 1_554 S
C1355 H1348 0.951 . S
C1355 C1352 1.389 . S
C1356 C1357 1.387 . S
C1356 H1360 0.950 . S
C1356 C1365 1.390 . S
C1357 C1356 1.387 . S
C1357 C1359 1.387 . S
H1358 C1365 0.950 . S
C1359 C1357 1.387 . S
C1359 C1361 1.390 . S
C1359 H1363 0.950 . S
H1360 C1356 0.950 . S
C1361 C1359 1.390 . S
C1361 C1362 1.387 . S
C1361 H1364 0.950 . S
C1362 C1361 1.387 . S
C1362 C1365 1.387 . S
H1363 C1359 0.950 . S
H1364 C1361 0.950 . S
C1365 C1356 1.390 . S
C1365 H1358 0.950 . S
C1365 C1362 1.387 . S
C1366 C1367 1.387 . S
C1366 H1370 0.950 . S
C1366 C1375 1.390 . S
C1367 C1366 1.387 . S
C1367 C1369 1.387 . S
H1368 C1375 0.950 . S
C1369 C1367 1.387 . S
C1369 C1371 1.390 . S
C1369 H1373 0.950 . S
H1370 C1366 0.950 . S
C1371 C1369 1.390 . S
C1371 C1372 1.387 . S
C1371 H1374 0.950 . S
C1372 C1371 1.387 . S
C1372 C1375 1.387 . S
H1373 C1369 0.950 . S
H1374 C1371 0.950 . S
C1375 C1366 1.390 . S
C1375 H1368 0.950 . S
C1375 C1372 1.387 . S
C1376 C1377 1.387 . S
C1376 H1380 0.950 . S
C1376 C1385 1.390 1_655 S
C1377 C1376 1.387 . S
C1377 C1379 1.387 . S
H1378 C1385 0.950 . S
C1379 C1377 1.387 . S
C1379 C1381 1.390 1_655 S
C1379 H1383 0.950 . S
H1380 C1376 0.950 . S
C1381 C1379 1.390 1_455 S
C1381 C1382 1.387 . S
C1381 H1384 0.950 . S
C1382 C1381 1.387 . S
C1382 C1385 1.387 . S
H1383 C1379 0.950 . S
H1384 C1381 0.950 . S
C1385 C1376 1.390 1_455 S
C1385 H1378 0.950 . S
C1385 C1382 1.387 . S
C1386 C1387 1.387 . S
C1386 H1390 0.950 . S
C1386 C1395 1.390 1_455 S
C1387 C1386 1.387 . S
C1387 C1389 1.387 . S
H1388 C1395 0.950 . S
C1389 C1387 1.387 . S
C1389 C1391 1.390 1_455 S
C1389 H1393 0.950 . S
H1390 C1386 0.950 . S
C1391 C1389 1.390 1_655 S
C1391 C1392 1.387 . S
C1391 H1394 0.950 . S
C1392 C1391 1.387 . S
C1392 C1395 1.387 . S
H1393 C1389 0.950 . S
H1394 C1391 0.950 . S
C1395 C1386 1.390 1_655 S
C1395 H1388 0.950 . S
C1395 C1392 1.387 . S
C1396 C1397 1.387 . S
C1396 H1400 0.950 . S
C1396 C1405 1.390 . S
C1397 C1396 1.387 . S
C1397 C1399 1.387 . S
H1398 C1405 0.950 . S
C1399 C1397 1.387 . S
C1399 C1401 1.390 . S
C1399 H1403 0.950 . S
H1400 C1396 0.950 . S
C1401 C1399 1.390 . S
C1401 C1402 1.387 . S
C1401 H1404 0.950 . S
C1402 C1401 1.387 . S
C1402 C1405 1.387 . S
H1403 C1399 0.950 . S
H1404 C1401 0.950 . S
C1405 C1396 1.390 . S
C1405 H1398 0.950 . S
C1405 C1402 1.387 . S
C1406 C1407 1.387 . S
C1406 H1410 0.950 . S
C1406 C1415 1.390 . S
C1407 C1406 1.387 . S
C1407 C1409 1.387 1_554 S
H1408 C1415 0.950 . S
C1409 C1407 1.387 1_556 S
C1409 C1411 1.390 . S
C1409 H1413 0.950 . S
H1410 C1406 0.950 . S
C1411 C1409 1.390 . S
C1411 C1412 1.387 1_556 S
C1411 H1414 0.950 . S
C1412 C1411 1.387 1_554 S
C1412 C1415 1.387 . S
H1413 C1409 0.950 . S
H1414 C1411 0.950 . S
C1415 C1406 1.390 . S
C1415 H1408 0.950 . S
C1415 C1412 1.387 . S
C1416 C1417 1.388 . S
C1416 H1420 0.950 . S
C1416 C1425 1.389 1_655 S
C1417 C1416 1.388 . S
C1417 C1419 1.388 . S
H1418 C1425 0.950 . S
C1419 C1417 1.388 . S
C1419 C1421 1.389 1_655 S
C1419 H1423 0.950 . S
H1420 C1416 0.950 . S
C1421 C1419 1.389 1_455 S
C1421 C1422 1.388 . S
C1421 H1424 0.950 . S
C1422 C1421 1.388 . S
C1422 C1425 1.388 . S
H1423 C1419 0.950 . S
H1424 C1421 0.950 . S
C1425 C1416 1.389 1_455 S
C1425 H1418 0.950 . S
C1425 C1422 1.388 . S
C1426 C1427 1.387 . S
C1426 H1430 0.950 . S
C1426 C1435 1.390 . S
C1427 C1426 1.387 . S
C1427 C1429 1.387 . S
H1428 C1435 0.950 . S
C1429 C1427 1.387 . S
C1429 C1431 1.390 . S
C1429 H1433 0.950 . S
H1430 C1426 0.950 . S
C1431 C1429 1.390 . S
C1431 C1432 1.387 . S
C1431 H1434 0.950 . S
C1432 C1431 1.387 . S
C1432 C1435 1.387 . S
H1433 C1429 0.950 . S
H1434 C1431 0.950 . S
C1435 C1426 1.390 . S
C1435 H1428 0.950 . S
C1435 C1432 1.387 . S
C1436 C1437 1.387 . S
C1436 H1440 0.950 . S
C1436 C1445 1.390 . S
C1437 C1436 1.387 . S
C1437 C1439 1.387 . S
H1438 C1445 0.950 . S
C1439 C1437 1.387 . S
C1439 C1441 1.390 . S
C1439 H1443 0.950 . S
H1440 C1436 0.950 . S
C1441 C1439 1.390 . S
C1441 C1442 1.387 . S
C1441 H1444 0.950 . S
C1442 C1441 1.387 . S
C1442 C1445 1.387 . S
H1443 C1439 0.950 . S
H1444 C1441 0.950 . S
C1445 C1436 1.390 . S
C1445 H1438 0.950 . S
C1445 C1442 1.387 . S
C1446 C1447 1.387 . S
C1446 H1450 0.950 . S
C1446 C1455 1.390 1_455 S
C1447 C1446 1.387 . S
C1447 C1449 1.387 1_556 S
H1448 C1455 0.950 . S
C1449 C1447 1.387 1_554 S
C1449 C1451 1.390 1_455 S
C1449 H1453 0.950 . S
H1450 C1446 0.950 . S
C1451 C1449 1.390 1_655 S
C1451 C1452 1.387 1_554 S
C1451 H1454 0.950 . S
C1452 C1451 1.387 1_556 S
C1452 C1455 1.387 . S
H1453 C1449 0.950 . S
H1454 C1451 0.950 . S
C1455 C1446 1.390 1_655 S
C1455 H1448 0.950 . S
C1455 C1452 1.387 . S
C1456 C1457 1.387 . S
C1456 H1460 0.950 . S
C1456 C1465 1.390 1_655 S
C1457 C1456 1.387 . S
C1457 C1459 1.387 . S
H1458 C1465 0.950 . S
C1459 C1457 1.387 . S
C1459 C1461 1.390 1_655 S
C1459 H1463 0.950 . S
H1460 C1456 0.950 . S
C1461 C1459 1.390 1_455 S
C1461 C1462 1.387 . S
C1461 H1464 0.950 . S
C1462 C1461 1.387 . S
C1462 C1465 1.387 . S
H1463 C1459 0.950 . S
H1464 C1461 0.950 . S
C1465 C1456 1.390 1_455 S
C1465 H1458 0.950 . S
C1465 C1462 1.387 . S
C1466 C1467 1.387 . S
C1466 H1470 0.950 . S
C1466 C1475 1.390 1_655 S
C1467 C1466 1.387 . S
C1467 C1469 1.387 . S
H1468 C1475 0.950 . S
C1469 C1467 1.387 . S
C1469 C1471 1.390 1_655 S
C1469 H1473 0.950 . S
H1470 C1466 0.950 . S
C1471 C1469 1.390 1_455 S
C1471 C1472 1.387 . S
C1471 H1474 0.950 . S
C1472 C1471 1.387 . S
C1472 C1475 1.387 . S
H1473 C1469 0.950 . S
H1474 C1471 0.950 . S
C1475 C1466 1.390 1_455 S
C1475 H1468 0.950 . S
C1475 C1472 1.387 . S
C1476 C1477 1.387 . S
C1476 H1480 0.950 . S
C1476 C1485 1.390 . S
C1477 C1476 1.387 . S
C1477 C1479 1.387 . S
H1478 C1485 0.950 . S
C1479 C1477 1.387 . S
C1479 C1481 1.390 . S
C1479 H1483 0.950 . S
H1480 C1476 0.950 . S
C1481 C1479 1.390 . S
C1481 C1482 1.387 . S
C1481 H1484 0.950 . S
C1482 C1481 1.387 . S
C1482 C1485 1.387 . S
H1483 C1479 0.950 . S
H1484 C1481 0.950 . S
C1485 C1476 1.390 . S
C1485 H1478 0.950 . S
C1485 C1482 1.387 . S
C1486 C1487 1.387 1_554 S
C1486 H1490 0.950 . S
C1486 C1495 1.390 . S
C1487 C1486 1.387 1_556 S
C1487 C1489 1.387 . S
H1488 C1495 0.950 . S
C1489 C1487 1.387 . S
C1489 C1491 1.390 . S
C1489 H1493 0.950 . S
H1490 C1486 0.950 . S
C1491 C1489 1.390 . S
C1491 C1492 1.387 . S
C1491 H1494 0.950 . S
C1492 C1491 1.387 . S
C1492 C1495 1.387 1_556 S
H1493 C1489 0.950 . S
H1494 C1491 0.950 . S
C1495 C1486 1.390 . S
C1495 H1488 0.950 . S
C1495 C1492 1.387 1_554 S
C1496 C1497 1.388 . S
C1496 H1500 0.950 . S
C1496 C1505 1.389 1_655 S
C1497 C1496 1.388 . S
C1497 C1499 1.388 . S
H1498 C1505 0.950 . S
C1499 C1497 1.388 . S
C1499 C1501 1.389 1_655 S
C1499 H1503 0.950 . S
H1500 C1496 0.950 . S
C1501 C1499 1.389 1_455 S
C1501 C1502 1.388 . S
C1501 H1504 0.950 . S
C1502 C1501 1.388 . S
C1502 C1505 1.388 . S
H1503 C1499 0.950 . S
H1504 C1501 0.950 . S
C1505 C1496 1.389 1_455 S
C1505 H1498 0.950 . S
C1505 C1502 1.388 . S
C1506 C1507 1.387 . S
C1506 H1510 0.950 . S
C1506 C1515 1.390 . S
C1507 C1506 1.387 . S
C1507 C1509 1.387 . S
H1508 C1515 0.950 . S
C1509 C1507 1.387 . S
C1509 C1511 1.390 . S
C1509 H1513 0.950 . S
H1510 C1506 0.950 . S
C1511 C1509 1.390 . S
C1511 C1512 1.387 . S
C1511 H1514 0.950 . S
C1512 C1511 1.387 . S
C1512 C1515 1.387 . S
H1513 C1509 0.950 . S
H1514 C1511 0.950 . S
C1515 C1506 1.390 . S
C1515 H1508 0.950 . S
C1515 C1512 1.387 . S
C1516 C1517 1.387 . S
C1516 H1520 0.950 . S
C1516 C1525 1.390 . S
C1517 C1516 1.387 . S
C1517 C1519 1.387 . S
H1518 C1525 0.950 . S
C1519 C1517 1.387 . S
C1519 C1521 1.390 . S
C1519 H1523 0.950 . S
H1520 C1516 0.950 . S
C1521 C1519 1.390 . S
C1521 C1522 1.387 . S
C1521 H1524 0.950 . S
C1522 C1521 1.387 . S
C1522 C1525 1.387 . S
H1523 C1519 0.950 . S
H1524 C1521 0.950 . S
C1525 C1516 1.390 . S
C1525 H1518 0.950 . S
C1525 C1522 1.387 . S
C1526 C1527 1.387 1_556 S
C1526 H1530 0.950 . S
C1526 C1535 1.390 1_455 S
C1527 C1526 1.387 1_554 S
C1527 C1529 1.387 . S
H1528 C1535 0.950 . S
C1529 C1527 1.387 . S
C1529 C1531 1.390 1_455 S
C1529 H1533 0.950 . S
H1530 C1526 0.950 . S
C1531 C1529 1.390 1_655 S
C1531 C1532 1.387 . S
C1531 H1534 0.950 . S
C1532 C1531 1.387 . S
C1532 C1535 1.387 1_554 S
H1533 C1529 0.950 . S
H1534 C1531 0.950 . S
C1535 C1526 1.390 1_655 S
C1535 H1528 0.950 . S
C1535 C1532 1.387 1_556 S
C1536 C1537 1.387 . S
C1536 H1540 0.950 . S
C1536 C1545 1.390 . S
C1537 C1536 1.387 . S
C1537 C1539 1.387 . S
H1538 C1545 0.950 . S
C1539 C1537 1.387 . S
C1539 C1541 1.390 . S
C1539 H1543 0.950 . S
H1540 C1536 0.950 . S
C1541 C1539 1.390 . S
C1541 C1542 1.387 . S
C1541 H1544 0.950 . S
C1542 C1541 1.387 . S
C1542 C1545 1.387 . S
H1543 C1539 0.950 . S
H1544 C1541 0.950 . S
C1545 C1536 1.390 . S
C1545 H1538 0.950 . S
C1545 C1542 1.387 . S
C1546 C1547 1.387 . S
C1546 H1550 0.950 . S
C1546 C1555 1.390 . S
C1547 C1546 1.387 . S
C1547 C1549 1.387 . S
H1548 C1555 0.950 . S
C1549 C1547 1.387 . S
C1549 C1551 1.390 . S
C1549 H1553 0.950 . S
H1550 C1546 0.950 . S
C1551 C1549 1.390 . S
C1551 C1552 1.387 . S
C1551 H1554 0.950 . S
C1552 C1551 1.387 . S
C1552 C1555 1.387 . S
H1553 C1549 0.950 . S
H1554 C1551 0.950 . S
C1555 C1546 1.390 . S
C1555 H1548 0.950 . S
C1555 C1552 1.387 . S
C1556 C1557 1.387 . S
C1556 H1560 0.950 . S
C1556 C1565 1.390 . S
C1557 C1556 1.387 . S
C1557 C1559 1.387 . S
H1558 C1565 0.950 . S
C1559 C1557 1.387 . S
C1559 C1561 1.390 . S
C1559 H1563 0.950 . S
H1560 C1556 0.950 . S
C1561 C1559 1.390 . S
C1561 C1562 1.387 . S
C1561 H1564 0.950 . S
C1562 C1561 1.387 . S
C1562 C1565 1.387 . S
H1563 C1559 0.950 . S
H1564 C1561 0.950 . S
C1565 C1556 1.390 . S
C1565 H1558 0.950 . S
C1565 C1562 1.387 . S
C1566 C1567 1.387 . S
C1566 H1570 0.950 . S
C1566 C1575 1.390 . S
C1567 C1566 1.387 . S
C1567 C1569 1.387 . S
H1568 C1575 0.950 . S
C1569 C1567 1.387 . S
C1569 C1571 1.390 . S
C1569 H1573 0.950 . S
H1570 C1566 0.950 . S
C1571 C1569 1.390 . S
C1571 C1572 1.387 . S
C1571 H1574 0.950 . S
C1572 C1571 1.387 . S
C1572 C1575 1.387 . S
H1573 C1569 0.950 . S
H1574 C1571 0.950 . S
C1575 C1566 1.390 . S
C1575 H1568 0.950 . S
C1575 C1572 1.387 . S
C1576 C1577 1.387 . S
C1576 H1580 0.950 . S
C1576 C1585 1.390 . S
C1577 C1576 1.387 . S
C1577 C1579 1.387 . S
H1578 C1585 0.950 . S
C1579 C1577 1.387 . S
C1579 C1581 1.390 . S
C1579 H1583 0.950 . S
H1580 C1576 0.950 . S
C1581 C1579 1.390 . S
C1581 C1582 1.387 . S
C1581 H1584 0.950 . S
C1582 C1581 1.387 . S
C1582 C1585 1.387 . S
H1583 C1579 0.950 . S
H1584 C1581 0.950 . S
C1585 C1576 1.390 . S
C1585 H1578 0.950 . S
C1585 C1582 1.387 . S
C1586 C1587 1.387 . S
C1586 H1590 0.950 . S
C1586 C1595 1.390 . S
C1587 C1586 1.387 . S
C1587 C1589 1.387 . S
H1588 C1595 0.950 . S
C1589 C1587 1.387 . S
C1589 C1591 1.390 . S
C1589 H1593 0.950 . S
H1590 C1586 0.950 . S
C1591 C1589 1.390 . S
C1591 C1592 1.387 . S
C1591 H1594 0.950 . S
C1592 C1591 1.387 . S
C1592 C1595 1.387 . S
H1593 C1589 0.950 . S
H1594 C1591 0.950 . S
C1595 C1586 1.390 . S
C1595 H1588 0.950 . S
C1595 C1592 1.387 . S
C1596 C1597 1.387 . S
C1596 H1600 0.950 . S
C1596 C1605 1.390 . S
C1597 C1596 1.387 . S
C1597 C1599 1.387 . S
H1598 C1605 0.950 . S
C1599 C1597 1.387 . S
C1599 C1601 1.390 . S
C1599 H1603 0.950 . S
H1600 C1596 0.950 . S
C1601 C1599 1.390 . S
C1601 C1602 1.387 . S
C1601 H1604 0.950 . S
C1602 C1601 1.387 . S
C1602 C1605 1.387 . S
H1603 C1599 0.950 . S
H1604 C1601 0.950 . S
C1605 C1596 1.390 . S
C1605 H1598 0.950 . S
C1605 C1602 1.387 . S
C1606 C1607 1.387 . S
C1606 H1610 0.950 . S
C1606 C1615 1.390 . S
C1607 C1606 1.387 . S
C1607 C1609 1.387 . S
H1608 C1615 0.950 . S
C1609 C1607 1.387 . S
C1609 C1611 1.390 . S
C1609 H1613 0.950 . S
H1610 C1606 0.950 . S
C1611 C1609 1.390 . S
C1611 C1612 1.387 . S
C1611 H1614 0.950 . S
C1612 C1611 1.387 . S
C1612 C1615 1.387 . S
H1613 C1609 0.950 . S
H1614 C1611 0.950 . S
C1615 C1606 1.390 . S
C1615 H1608 0.950 . S
C1615 C1612 1.387 . S
C1616 C1617 1.387 . S
C1616 H1620 0.950 . S
C1616 C1625 1.390 . S
C1617 C1616 1.387 . S
C1617 C1619 1.387 . S
H1618 C1625 0.950 . S
C1619 C1617 1.387 . S
C1619 C1621 1.390 . S
C1619 H1623 0.950 . S
H1620 C1616 0.950 . S
C1621 C1619 1.390 . S
C1621 C1622 1.387 . S
C1621 H1624 0.950 . S
C1622 C1621 1.387 . S
C1622 C1625 1.387 . S
H1623 C1619 0.950 . S
H1624 C1621 0.950 . S
C1625 C1616 1.390 . S
C1625 H1618 0.950 . S
C1625 C1622 1.387 . S
C1626 C1627 1.387 . S
C1626 H1630 0.950 . S
C1626 C1635 1.390 . S
C1627 C1626 1.387 . S
C1627 C1629 1.387 . S
H1628 C1635 0.950 . S
C1629 C1627 1.387 . S
C1629 C1631 1.390 . S
C1629 H1633 0.950 . S
H1630 C1626 0.950 . S
C1631 C1629 1.390 . S
C1631 C1632 1.387 . S
C1631 H1634 0.950 . S
C1632 C1631 1.387 . S
C1632 C1635 1.387 . S
H1633 C1629 0.950 . S
H1634 C1631 0.950 . S
C1635 C1626 1.390 . S
C1635 H1628 0.950 . S
C1635 C1632 1.387 . S
C1636 C1637 1.387 . S
C1636 H1640 0.950 . S
C1636 C1645 1.390 . S
C1637 C1636 1.387 . S
C1637 C1639 1.387 . S
H1638 C1645 0.950 . S
C1639 C1637 1.387 . S
C1639 C1641 1.390 . S
C1639 H1643 0.950 . S
H1640 C1636 0.950 . S
C1641 C1639 1.390 . S
C1641 C1642 1.387 . S
C1641 H1644 0.950 . S
C1642 C1641 1.387 . S
C1642 C1645 1.387 . S
H1643 C1639 0.950 . S
H1644 C1641 0.950 . S
C1645 C1636 1.390 . S
C1645 H1638 0.950 . S
C1645 C1642 1.387 . S
C1646 C1647 1.387 . S
C1646 H1650 0.950 . S
C1646 C1655 1.390 . S
C1647 C1646 1.387 . S
C1647 C1649 1.387 . S
H1648 C1655 0.950 . S
C1649 C1647 1.387 . S
C1649 C1651 1.390 . S
C1649 H1653 0.950 . S
H1650 C1646 0.950 . S
C1651 C1649 1.390 . S
C1651 C1652 1.387 . S
C1651 H1654 0.950 . S
C1652 C1651 1.387 . S
C1652 C1655 1.387 . S
H1653 C1649 0.950 . S
H1654 C1651 0.950 . S
C1655 C1646 1.390 . S
C1655 H1648 0.950 . S
C1655 C1652 1.387 . S
C1656 C1657 1.387 . S
C1656 H1660 0.950 . S
C1656 C1665 1.390 . S
C1657 C1656 1.387 . S
C1657 C1659 1.387 . S
H1658 C1665 0.950 . S
C1659 C1657 1.387 . S
C1659 C1661 1.390 . S
C1659 H1663 0.950 . S
H1660 C1656 0.950 . S
C1661 C1659 1.390 . S
C1661 C1662 1.387 . S
C1661 H1664 0.950 . S
C1662 C1661 1.387 . S
C1662 C1665 1.387 . S
H1663 C1659 0.950 . S
H1664 C1661 0.950 . S
C1665 C1656 1.390 . S
C1665 H1658 0.950 . S
C1665 C1662 1.387 . S
C1666 C1667 1.387 . S
C1666 H1670 0.950 . S
C1666 C1675 1.390 . S
C1667 C1666 1.387 . S
C1667 C1669 1.387 . S
H1668 C1675 0.950 . S
C1669 C1667 1.387 . S
C1669 C1671 1.390 . S
C1669 H1673 0.950 . S
H1670 C1666 0.950 . S
C1671 C1669 1.390 . S
C1671 C1672 1.387 . S
C1671 H1674 0.950 . S
C1672 C1671 1.387 . S
C1672 C1675 1.387 . S
H1673 C1669 0.950 . S
H1674 C1671 0.950 . S
C1675 C1666 1.390 . S
C1675 H1668 0.950 . S
C1675 C1672 1.387 . S
C1676 C1677 1.387 . S
C1676 H1680 0.950 . S
C1676 C1685 1.390 . S
C1677 C1676 1.387 . S
C1677 C1679 1.387 . S
H1678 C1685 0.950 . S
C1679 C1677 1.387 . S
C1679 C1681 1.390 . S
C1679 H1683 0.950 . S
H1680 C1676 0.950 . S
C1681 C1679 1.390 . S
C1681 C1682 1.387 . S
C1681 H1684 0.950 . S
C1682 C1681 1.387 . S
C1682 C1685 1.387 . S
H1683 C1679 0.950 . S
H1684 C1681 0.950 . S
C1685 C1676 1.390 . S
C1685 H1678 0.950 . S
C1685 C1682 1.387 . S
C1686 C1687 1.387 . S
C1686 H1690 0.950 . S
C1686 C1695 1.390 . S
C1687 C1686 1.387 . S
C1687 C1689 1.387 . S
H1688 C1695 0.950 . S
C1689 C1687 1.387 . S
C1689 C1691 1.390 . S
C1689 H1693 0.950 . S
H1690 C1686 0.950 . S
C1691 C1689 1.390 . S
C1691 C1692 1.387 . S
C1691 H1694 0.950 . S
C1692 C1691 1.387 . S
C1692 C1695 1.387 . S
H1693 C1689 0.950 . S
H1694 C1691 0.950 . S
C1695 C1686 1.390 . S
C1695 H1688 0.950 . S
C1695 C1692 1.387 . S
C1696 C1697 1.387 . S
C1696 H1700 0.950 . S
C1696 C1705 1.390 . S
C1697 C1696 1.387 . S
C1697 C1699 1.387 . S
H1698 C1705 0.950 . S
C1699 C1697 1.387 . S
C1699 C1701 1.390 . S
C1699 H1703 0.950 . S
H1700 C1696 0.950 . S
C1701 C1699 1.390 . S
C1701 C1702 1.387 . S
C1701 H1704 0.950 . S
C1702 C1701 1.387 . S
C1702 C1705 1.387 . S
H1703 C1699 0.950 . S
H1704 C1701 0.950 . S
C1705 C1696 1.390 . S
C1705 H1698 0.950 . S
C1705 C1702 1.387 . S
C1706 C1707 1.387 . S
C1706 H1710 0.950 . S
C1706 C1715 1.390 . S
C1707 C1706 1.387 . S
C1707 C1709 1.387 . S
H1708 C1715 0.950 . S
C1709 C1707 1.387 . S
C1709 C1711 1.390 . S
C1709 H1713 0.950 . S
H1710 C1706 0.950 . S
C1711 C1709 1.390 . S
C1711 C1712 1.387 . S
C1711 H1714 0.950 . S
C1712 C1711 1.387 . S
C1712 C1715 1.387 . S
H1713 C1709 0.950 . S
H1714 C1711 0.950 . S
C1715 C1706 1.390 . S
C1715 H1708 0.950 . S
C1715 C1712 1.387 . S
C1716 C1717 1.387 . S
C1716 H1720 0.950 . S
C1716 C1725 1.390 . S
C1717 C1716 1.387 . S
C1717 C1719 1.387 . S
H1718 C1725 0.950 . S
C1719 C1717 1.387 . S
C1719 C1721 1.390 . S
C1719 H1723 0.950 . S
H1720 C1716 0.950 . S
C1721 C1719 1.390 . S
C1721 C1722 1.387 . S
C1721 H1724 0.950 . S
C1722 C1721 1.387 . S
C1722 C1725 1.387 . S
H1723 C1719 0.950 . S
H1724 C1721 0.950 . S
C1725 C1716 1.390 . S
C1725 H1718 0.950 . S
C1725 C1722 1.387 . S
C1726 C1727 1.387 . S
C1726 H1730 0.950 . S
C1726 C1735 1.390 . S
C1727 C1726 1.387 . S
C1727 C1729 1.387 . S
H1728 C1735 0.950 . S
C1729 C1727 1.387 . S
C1729 C1731 1.390 . S
C1729 H1733 0.950 . S
H1730 C1726 0.950 . S
C1731 C1729 1.390 . S
C1731 C1732 1.387 . S
C1731 H1734 0.950 . S
C1732 C1731 1.387 . S
C1732 C1735 1.387 . S
H1733 C1729 0.950 . S
H1734 C1731 0.950 . S
C1735 C1726 1.390 . S
C1735 H1728 0.950 . S
C1735 C1732 1.387 . S
C1736 C1737 1.387 . S
C1736 H1740 0.950 . S
C1736 C1745 1.390 . S
C1737 C1736 1.387 . S
C1737 C1739 1.387 . S
H1738 C1745 0.950 . S
C1739 C1737 1.387 . S
C1739 C1741 1.390 . S
C1739 H1743 0.950 . S
H1740 C1736 0.950 . S
C1741 C1739 1.390 . S
C1741 C1742 1.387 . S
C1741 H1744 0.950 . S
C1742 C1741 1.387 . S
C1742 C1745 1.387 . S
H1743 C1739 0.950 . S
H1744 C1741 0.950 . S
C1745 C1736 1.390 . S
C1745 H1738 0.950 . S
C1745 C1742 1.387 . S
C1746 C1747 1.387 . S
C1746 H1750 0.950 . S
C1746 C1755 1.390 . S
C1747 C1746 1.387 . S
C1747 C1749 1.387 . S
H1748 C1755 0.950 . S
C1749 C1747 1.387 . S
C1749 C1751 1.390 . S
C1749 H1753 0.950 . S
H1750 C1746 0.950 . S
C1751 C1749 1.390 . S
C1751 C1752 1.387 . S
C1751 H1754 0.950 . S
C1752 C1751 1.387 . S
C1752 C1755 1.387 . S
H1753 C1749 0.950 . S
H1754 C1751 0.950 . S
C1755 C1746 1.390 . S
C1755 H1748 0.950 . S
C1755 C1752 1.387 . S
C1756 C1757 1.387 . S
C1756 H1760 0.950 . S
C1756 C1765 1.390 . S
C1757 C1756 1.387 . S
C1757 C1759 1.387 . S
H1758 C1765 0.950 . S
C1759 C1757 1.387 . S
C1759 C1761 1.390 . S
C1759 H1763 0.950 . S
H1760 C1756 0.950 . S
C1761 C1759 1.390 . S
C1761 C1762 1.387 . S
C1761 H1764 0.950 . S
C1762 C1761 1.387 . S
C1762 C1765 1.387 . S
H1763 C1759 0.950 . S
H1764 C1761 0.950 . S
C1765 C1756 1.390 . S
C1765 H1758 0.950 . S
C1765 C1762 1.387 . S
C1766 C1767 1.387 . S
C1766 H1770 0.950 . S
C1766 C1775 1.390 . S
C1767 C1766 1.387 . S
C1767 C1769 1.387 . S
H1768 C1775 0.950 . S
C1769 C1767 1.387 . S
C1769 C1771 1.390 . S
C1769 H1773 0.950 . S
H1770 C1766 0.950 . S
C1771 C1769 1.390 . S
C1771 C1772 1.387 . S
C1771 H1774 0.950 . S
C1772 C1771 1.387 . S
C1772 C1775 1.387 . S
H1773 C1769 0.950 . S
H1774 C1771 0.950 . S
C1775 C1766 1.390 . S
C1775 H1768 0.950 . S
C1775 C1772 1.387 . S
C1776 C1777 1.387 . S
C1776 H1780 0.950 . S
C1776 C1785 1.390 . S
C1777 C1776 1.387 . S
C1777 C1779 1.387 . S
H1778 C1785 0.950 . S
C1779 C1777 1.387 . S
C1779 C1781 1.390 . S
C1779 H1783 0.950 . S
H1780 C1776 0.950 . S
C1781 C1779 1.390 . S
C1781 C1782 1.387 . S
C1781 H1784 0.950 . S
C1782 C1781 1.387 . S
C1782 C1785 1.387 . S
H1783 C1779 0.950 . S
H1784 C1781 0.950 . S
C1785 C1776 1.390 . S
C1785 H1778 0.950 . S
C1785 C1782 1.387 . S
C1786 C1787 1.387 . S
C1786 H1790 0.950 . S
C1786 C1795 1.390 . S
C1787 C1786 1.387 . S
C1787 C1789 1.387 . S
H1788 C1795 0.950 . S
C1789 C1787 1.387 . S
C1789 C1791 1.390 . S
C1789 H1793 0.950 . S
H1790 C1786 0.950 . S
C1791 C1789 1.390 . S
C1791 C1792 1.387 . S
C1791 H1794 0.950 . S
C1792 C1791 1.387 . S
C1792 C1795 1.387 . S
H1793 C1789 0.950 . S
H1794 C1791 0.950 . S
C1795 C1786 1.390 . S
C1795 H1788 0.950 . S
C1795 C1792 1.387 . S
C1796 C1797 1.387 . S
C1796 H1800 0.950 . S
C1796 C1805 1.390 . S
C1797 C1796 1.387 . S
C1797 C1799 1.387 . S
H1798 C1805 0.950 . S
C1799 C1797 1.387 . S
C1799 C1801 1.390 . S
C1799 H1803 0.950 . S
H1800 C1796 0.950 . S
C1801 C1799 1.390 . S
C1801 C1802 1.387 . S
C1801 H1804 0.950 . S
C1802 C1801 1.387 . S
C1802 C1805 1.387 . S
H1803 C1799 0.950 . S
H1804 C1801 0.950 . S
C1805 C1796 1.390 . S
C1805 H1798 0.950 . S
C1805 C1802 1.387 . S
C1806 C1807 1.387 . S
C1806 H1810 0.950 . S
C1806 C1815 1.390 . S
C1807 C1806 1.387 . S
C1807 C1809 1.387 . S
H1808 C1815 0.950 . S
C1809 C1807 1.387 . S
C1809 C1811 1.390 . S
C1809 H1813 0.950 . S
H1810 C1806 0.950 . S
C1811 C1809 1.390 . S
C1811 C1812 1.387 . S
C1811 H1814 0.950 1_455 S
C1812 C1811 1.387 . S
C1812 C1815 1.387 . S
H1813 C1809 0.950 . S
H1814 C1811 0.950 1_655 S
C1815 C1806 1.390 . S
C1815 H1808 0.950 . S
C1815 C1812 1.387 . S
C1816 C1817 1.387 . S
C1816 H1820 0.950 . S
C1816 C1825 1.390 . S
C1817 C1816 1.387 . S
C1817 C1819 1.387 . S
H1818 C1825 0.950 . S
C1819 C1817 1.387 . S
C1819 C1821 1.390 . S
C1819 H1823 0.950 . S
H1820 C1816 0.950 . S
C1821 C1819 1.390 . S
C1821 C1822 1.387 . S
C1821 H1824 0.950 . S
C1822 C1821 1.387 . S
C1822 C1825 1.387 . S
H1823 C1819 0.950 . S
H1824 C1821 0.950 . S
C1825 C1816 1.390 . S
C1825 H1818 0.950 . S
C1825 C1822 1.387 . S
C1826 C1827 1.387 . S
C1826 H1830 0.950 . S
C1826 C1835 1.390 . S
C1827 C1826 1.387 . S
C1827 C1829 1.387 . S
H1828 C1835 0.950 . S
C1829 C1827 1.387 . S
C1829 C1831 1.390 . S
C1829 H1833 0.950 . S
H1830 C1826 0.950 . S
C1831 C1829 1.390 . S
C1831 C1832 1.387 . S
C1831 H1834 0.950 . S
C1832 C1831 1.387 . S
C1832 C1835 1.387 . S
H1833 C1829 0.950 . S
H1834 C1831 0.950 . S
C1835 C1826 1.390 . S
C1835 H1828 0.950 . S
C1835 C1832 1.387 . S
C1836 C1837 1.387 . S
C1836 H1840 0.950 . S
C1836 C1845 1.390 . S
C1837 C1836 1.387 . S
C1837 C1839 1.387 . S
H1838 C1845 0.950 . S
C1839 C1837 1.387 . S
C1839 C1841 1.390 . S
C1839 H1843 0.950 . S
H1840 C1836 0.950 . S
C1841 C1839 1.390 . S
C1841 C1842 1.387 . S
C1841 H1844 0.950 . S
C1842 C1841 1.387 . S
C1842 C1845 1.387 . S
H1843 C1839 0.950 . S
H1844 C1841 0.950 . S
C1845 C1836 1.390 . S
C1845 H1838 0.950 . S
C1845 C1842 1.387 . S
C1846 C1847 1.387 . S
C1846 H1850 0.950 . S
C1846 C1855 1.390 . S
C1847 C1846 1.387 . S
C1847 C1849 1.387 . S
H1848 C1855 0.950 . S
C1849 C1847 1.387 . S
C1849 C1851 1.390 . S
C1849 H1853 0.950 . S
H1850 C1846 0.950 . S
C1851 C1849 1.390 . S
C1851 C1852 1.387 . S
C1851 H1854 0.950 . S
C1852 C1851 1.387 . S
C1852 C1855 1.387 . S
H1853 C1849 0.950 . S
H1854 C1851 0.950 . S
C1855 C1846 1.390 . S
C1855 H1848 0.950 . S
C1855 C1852 1.387 . S
C1057 N244 1.788 . S
C1062 N13 1.786 . S
C1067 N46 1.787 . S
C1072 N145 1.785 . S
C1077 N79 1.788 . S
C1082 N178 1.786 . S
C1087 N211 1.785 . S
C1092 N112 1.787 . S
C1097 N508 1.786 . S
C1102 N277 1.788 . S
C1107 N409 1.788 . S
C1112 N310 1.786 . S
C1117 N343 1.788 . S
C1122 N442 1.786 . S
C1127 N376 1.787 . S
C1132 N475 1.785 . S
C1137 N772 1.787 . S
C1142 N541 1.786 . S
C1147 N574 1.786 . S
C1152 N673 1.788 . S
C1157 N607 1.785 . S
C1162 N706 1.788 . S
C1167 N739 1.788 . S
C1172 N640 1.786 . S
C1177 N1036 1.787 . S
C1182 N805 1.785 . S
C1187 N838 1.787 . S
C1192 N937 1.785 . S
C1197 N970 1.785 . S
C1202 N871 1.788 . S
C1207 N1003 1.788 . S
C1212 N904 1.785 . S
C1217 C150 1.085 . S
C1222 C18 1.085 . S
C1227 C51 1.085 . S
C1232 C183 1.085 . S
C1237 C216 1.085 . S
C1242 C84 1.085 . S
C1247 C117 1.085 . S
C1252 C249 1.085 . S
C1257 C414 1.087 . S
C1262 C282 1.087 . S
C1267 C315 1.087 . S
C1272 C447 1.087 . S
C1277 C348 1.087 . S
C1282 C480 1.087 . S
C1287 C513 1.086 . S
C1292 C381 1.086 . S
C1297 C678 1.087 . S
C1302 C546 1.087 . S
C1307 C711 1.086 . S
C1312 C579 1.086 . S
C1317 C744 1.085 . S
C1322 C612 1.085 . S
C1327 C777 1.085 . S
C1332 C645 1.085 . S
C1337 C942 1.085 . S
C1342 C810 1.085 . S
C1347 C843 1.085 . S
C1352 C975 1.085 . S
C1357 C1008 1.087 . S
C1362 C876 1.087 . S
C1367 C1041 1.087 . S
C1372 C909 1.087 . S
C1377 C601 1.427 . S
C1382 C7 1.427 . S
C1387 C40 1.411 . S
C1392 C634 1.411 . S
C1397 C73 1.415 . S
C1402 C535 1.415 . S
C1407 C106 1.415 . S
C1412 C568 1.415 . S
C1417 C733 1.411 . S
C1422 C139 1.411 . S
C1427 C766 1.415 . S
C1432 C172 1.415 . S
C1437 C205 1.414 . S
C1442 C667 1.414 . S
C1447 C238 1.415 . S
C1452 C700 1.415 . S
C1457 C271 1.427 . S
C1462 C865 1.427 . S
C1467 C304 1.411 . S
C1472 C898 1.411 . S
C1477 C799 1.415 . S
C1482 C337 1.415 . S
C1487 C370 1.415 . S
C1492 C832 1.415 . S
C1497 C403 1.411 . S
C1502 C997 1.411 . S
C1507 C1030 1.415 . S
C1512 C436 1.415 . S
C1517 C469 1.414 . S
C1522 C931 1.414 . S
C1527 C964 1.415 . S
C1532 C502 1.415 . S
C1537 N893 1.103 . S
C1542 C21 0.990 . S
C1547 C54 0.988 . S
C1552 N266 1.102 . S
C1557 C87 0.993 . S
C1562 N827 1.105 . S
C1567 N332 1.103 . S
C1572 C120 0.991 . S
C1577 N959 1.105 . S
C1582 C153 0.993 . S
C1587 C186 0.991 . S
C1592 N464 1.103 . S
C1597 N1025 1.102 . S
C1602 C219 0.989 . S
C1607 N398 1.102 . S
C1612 C252 0.989 . S
C1617 C285 0.993 . S
C1622 N629 1.105 . S
C1627 C318 0.989 . S
C1632 N2 1.102 . S
C1637 N563 1.104 . S
C1642 C351 0.993 . S
C1647 C384 0.990 . S
C1652 N68 1.103 . S
C1657 C417 0.985 . S
C1662 N695 1.100 . S
C1667 C450 0.991 . S
C1672 N200 1.103 . S
C1677 C483 0.993 . S
C1682 N761 1.105 . S
C1687 N134 1.102 . S
C1692 C516 0.989 . S
C1697 C549 0.987 . S
C1702 N365 1.101 . S
C1707 N794 1.101 . S
C1712 C582 0.988 . S
C1717 N299 1.104 . S
C1722 C615 0.992 . S
C1727 N860 1.102 . S
C1732 C648 0.989 . S
C1737 C681 0.986 . S
C1742 N431 1.100 . S
C1747 C714 0.990 . S
C1752 N992 1.103 . S
C1757 N497 1.104 . S
C1762 C747 0.992 . S
C1767 C780 0.993 . S
C1772 N926 1.105 . S
C1777 C813 0.990 . S
C1782 N101 1.103 . S
C1787 N530 1.103 . S
C1792 C846 0.990 . S
C1797 C879 0.986 . S
C1802 N35 1.101 . S
C1807 C912 0.993 . S
C1812 N596 1.105 . S
C1817 C945 0.994 . S
C1822 N167 1.105 . S
C1827 N728 1.103 . S
C1832 C978 0.990 . S
C1837 C1011 0.986 . S
C1842 N233 1.101 . S
C1847 C1044 0.989 . S
C1852 N662 1.102 . S
