# Generated by pormake.
# Topology ukt, (4)-cn, num edge types: 1
# Building blocks:
#     Node 0, Type 0, BuildingBlock: UXUYUI_clean_sbu_0, # of connection points: 4
#     Node 1, Type 0, BuildingBlock: UXUYUI_clean_sbu_0, # of connection points: 4
#     Node 2, Type 0, BuildingBlock: UXUYUI_clean_sbu_0, # of connection points: 4
#     Node 3, Type 0, BuildingBlock: UXUYUI_clean_sbu_0, # of connection points: 4
#     Node 4, Type 0, BuildingBlock: UXUYUI_clean_sbu_0, # of connection points: 4
#     Node 5, Type 0, BuildingBlock: UXUYUI_clean_sbu_0, # of connection points: 4
#     Node 6, Type 0, BuildingBlock: UXUYUI_clean_sbu_0, # of connection points: 4
#     Node 7, Type 0, BuildingBlock: UXUYUI_clean_sbu_0, # of connection points: 4
#     Node 8, Type 0, BuildingBlock: UXUYUI_clean_sbu_0, # of connection points: 4
#     Node 9, Type 0, BuildingBlock: UXUYUI_clean_sbu_0, # of connection points: 4
#     Node 10, Type 0, BuildingBlock: UXUYUI_clean_sbu_0, # of connection points: 4
#     Node 11, Type 0, BuildingBlock: UXUYUI_clean_sbu_0, # of connection points: 4
#     Node 12, Type 0, BuildingBlock: UXUYUI_clean_sbu_0, # of connection points: 4
#     Node 13, Type 0, BuildingBlock: UXUYUI_clean_sbu_0, # of connection points: 4
#     Node 14, Type 0, BuildingBlock: UXUYUI_clean_sbu_0, # of connection points: 4
#     Node 15, Type 0, BuildingBlock: UXUYUI_clean_sbu_0, # of connection points: 4
#     Edge 16, Type (0, 0), BuildingBlock: OJICUG_clean_linker_0, # of connection points: 2
#     Edge 17, Type (0, 0), BuildingBlock: OJICUG_clean_linker_0, # of connection points: 2
#     Edge 18, Type (0, 0), BuildingBlock: OJICUG_clean_linker_0, # of connection points: 2
#     Edge 19, Type (0, 0), BuildingBlock: OJICUG_clean_linker_0, # of connection points: 2
#     Edge 20, Type (0, 0), BuildingBlock: OJICUG_clean_linker_0, # of connection points: 2
#     Edge 21, Type (0, 0), BuildingBlock: OJICUG_clean_linker_0, # of connection points: 2
#     Edge 22, Type (0, 0), BuildingBlock: OJICUG_clean_linker_0, # of connection points: 2
#     Edge 23, Type (0, 0), BuildingBlock: OJICUG_clean_linker_0, # of connection points: 2
#     Edge 24, Type (0, 0), BuildingBlock: OJICUG_clean_linker_0, # of connection points: 2
#     Edge 25, Type (0, 0), BuildingBlock: OJICUG_clean_linker_0, # of connection points: 2
#     Edge 26, Type (0, 0), BuildingBlock: OJICUG_clean_linker_0, # of connection points: 2
#     Edge 27, Type (0, 0), BuildingBlock: OJICUG_clean_linker_0, # of connection points: 2
#     Edge 28, Type (0, 0), BuildingBlock: OJICUG_clean_linker_0, # of connection points: 2
#     Edge 29, Type (0, 0), BuildingBlock: OJICUG_clean_linker_0, # of connection points: 2
#     Edge 30, Type (0, 0), BuildingBlock: OJICUG_clean_linker_0, # of connection points: 2
#     Edge 31, Type (0, 0), BuildingBlock: OJICUG_clean_linker_0, # of connection points: 2
#     Edge 32, Type (0, 0), BuildingBlock: OJICUG_clean_linker_0, # of connection points: 2
#     Edge 33, Type (0, 0), BuildingBlock: OJICUG_clean_linker_0, # of connection points: 2
#     Edge 34, Type (0, 0), BuildingBlock: OJICUG_clean_linker_0, # of connection points: 2
#     Edge 35, Type (0, 0), BuildingBlock: OJICUG_clean_linker_0, # of connection points: 2
#     Edge 36, Type (0, 0), BuildingBlock: OJICUG_clean_linker_0, # of connection points: 2
#     Edge 37, Type (0, 0), BuildingBlock: OJICUG_clean_linker_0, # of connection points: 2
#     Edge 38, Type (0, 0), BuildingBlock: OJICUG_clean_linker_0, # of connection points: 2
#     Edge 39, Type (0, 0), BuildingBlock: OJICUG_clean_linker_0, # of connection points: 2
#     Edge 40, Type (0, 0), BuildingBlock: OJICUG_clean_linker_0, # of connection points: 2
#     Edge 41, Type (0, 0), BuildingBlock: OJICUG_clean_linker_0, # of connection points: 2
#     Edge 42, Type (0, 0), BuildingBlock: OJICUG_clean_linker_0, # of connection points: 2
#     Edge 43, Type (0, 0), BuildingBlock: OJICUG_clean_linker_0, # of connection points: 2
#     Edge 44, Type (0, 0), BuildingBlock: OJICUG_clean_linker_0, # of connection points: 2
#     Edge 45, Type (0, 0), BuildingBlock: OJICUG_clean_linker_0, # of connection points: 2
#     Edge 46, Type (0, 0), BuildingBlock: OJICUG_clean_linker_0, # of connection points: 2
#     Edge 47, Type (0, 0), BuildingBlock: OJICUG_clean_linker_0, # of connection points: 2
# Relax obj value: 0.433
# Max RMSD: 0.238
# Mean RMSD: 0.238
data_MOF--net-ukt--node1-UXUYUI_clean_sbu_0--edge1-OJICUG_clean_linker_0
_symmetry_space_group_name_H-M    P1
_symmetry_Int_Tables_number       1
_symmetry_cell_setting            triclinic
loop_
_symmetry_equiv_pos_as_xyz
'x, y, z'
_cell_length_a     49.651661
_cell_length_b     49.641914
_cell_length_c     44.702508
_cell_angle_alpha  89.993718
_cell_angle_beta   90.022281
_cell_angle_gamma 90.006105
loop_
_atom_site_label
_atom_site_type_symbol
_atom_site_fract_x
_atom_site_fract_y
_atom_site_fract_z
_atom_type_partial_charge
Li0 Li 0.55091 0.14934 0.12168 0.0
Li1 Li 0.54384 0.11351 0.08499 0.0
Li2 Li 0.58854 0.12825 0.09888 0.0
Li3 Li 0.55861 0.15853 0.06979 0.0
C4 C 0.57694 0.09294 0.14037 0.0
N5 N 0.60978 0.05704 0.17043 0.0
C6 C 0.57242 0.06524 0.13799 0.0
C7 C 0.59786 0.10239 0.15849 0.0
C8 C 0.58931 0.04741 0.15326 0.0
C9 C 0.61435 0.08392 0.17335 0.0
C10 C 0.49826 0.14375 0.09836 0.0
C11 C 0.45023 0.15021 0.0948 0.0
N12 N 0.44671 0.13381 0.11886 0.0
C13 C 0.49418 0.12695 0.12307 0.0
C14 C 0.47613 0.15549 0.08411 0.0
C15 C 0.46796 0.12219 0.13308 0.0
C16 C 0.52058 0.18761 0.15442 0.0
N17 N 0.539 0.16745 0.15715 0.0
C18 C 0.54875 0.18069 0.20738 0.0
C19 C 0.55232 0.16314 0.1833 0.0
C20 C 0.53084 0.20238 0.20464 0.0
C21 C 0.51595 0.20529 0.1782 0.0
H22 H 0.51075 0.19104 0.13317 0.0
H23 H 0.56704 0.14722 0.18481 0.0
C24 C 0.54493 0.06249 0.06289 0.0
N25 N 0.5268 0.08215 0.06934 0.0
C26 C 0.5375 0.04035 0.04574 0.0
C27 C 0.49227 0.05821 0.04316 0.0
C28 C 0.50073 0.08039 0.06013 0.0
C29 C 0.51103 0.03826 0.03519 0.0
H30 H 0.5656 0.06474 0.06987 0.0
H31 H 0.48686 0.09664 0.06464 0.0
C32 C 0.5856 0.18977 0.12057 0.0
N33 N 0.58931 0.23507 0.15628 0.0
C34 C 0.57106 0.21298 0.11334 0.0
C35 C 0.6022 0.18967 0.14584 0.0
C36 C 0.57317 0.23566 0.13171 0.0
C37 C 0.60375 0.21275 0.16365 0.0
C38 C 0.568 0.11677 0.02937 0.0
C39 C 0.58671 0.10237 0.01238 0.0
C40 C 0.54318 0.12378 0.01681 0.0
C41 C 0.58026 0.09518 0.98302 0.0
C42 C 0.53749 0.11621 0.98739 0.0
N43 N 0.55598 0.10218 0.97125 0.0
C44 C 0.62672 0.09019 0.08627 0.0
C45 C 0.64609 0.12877 0.10884 0.0
C46 C 0.65205 0.07941 0.08061 0.0
N47 N 0.62422 0.11467 0.09943 0.0
C48 C 0.67198 0.11854 0.104 0.0
C49 C 0.67524 0.0939 0.08877 0.0
H50 H 0.60897 0.07963 0.07876 0.0
H51 H 0.64353 0.14836 0.11897 0.0
C52 C 0.53759 0.2018 0.03557 0.0
N53 N 0.5585 0.18441 0.03891 0.0
C54 C 0.5394 0.22292 0.01502 0.0
C55 C 0.5835 0.20671 0.00066 0.0
C56 C 0.58093 0.1861 0.02164 0.0
C57 C 0.56287 0.22588 0.99774 0.0
H58 H 0.52005 0.19993 0.04976 0.0
H59 H 0.59726 0.17199 0.02502 0.0
O60 O 0.56071 0.11069 0.12538 0.0
O61 O 0.52368 0.14881 0.08795 0.0
O62 O 0.58324 0.16714 0.10327 0.0
O63 O 0.57374 0.12327 0.05843 0.0
H64 H 0.55593 0.05756 0.1247 0.0
H65 H 0.60176 0.12373 0.16048 0.0
H66 H 0.5861 0.02591 0.15152 0.0
H67 H 0.63082 0.09097 0.18712 0.0
H68 H 0.43291 0.15915 0.08397 0.0
H69 H 0.51097 0.1177 0.13448 0.0
H70 H 0.47896 0.16851 0.06494 0.0
H71 H 0.46451 0.10925 0.15217 0.0
H72 H 0.56059 0.17798 0.22752 0.0
H73 H 0.50221 0.22203 0.1753 0.0
H74 H 0.55247 0.02525 0.04028 0.0
H75 H 0.47168 0.05729 0.0352 0.0
H76 H 0.55797 0.21338 0.09403 0.0
H77 H 0.61341 0.17184 0.15196 0.0
H78 H 0.56186 0.25369 0.1265 0.0
H79 H 0.61632 0.21287 0.18342 0.0
H80 H 0.60597 0.09669 0.02182 0.0
H81 H 0.52835 0.13474 0.0297 0.0
H82 H 0.59453 0.08398 0.96962 0.0
H83 H 0.51833 0.12142 0.97741 0.0
H84 H 0.65326 0.0607 0.06827 0.0
H85 H 0.6892 0.13029 0.1111 0.0
H86 H 0.52304 0.23727 0.01334 0.0
H87 H 0.60208 0.20851 0.98813 0.0
Li88 Li 0.35111 0.54837 0.12563 0.0
Li89 Li 0.38878 0.5422 0.091 0.0
Li90 Li 0.3708 0.58584 0.09706 0.0
Li91 Li 0.34408 0.55062 0.07055 0.0
C92 C 0.39838 0.58291 0.14692 0.0
N93 N 0.41864 0.62365 0.18251 0.0
C94 C 0.42603 0.5845 0.15254 0.0
C95 C 0.38101 0.6019 0.1596 0.0
C96 C 0.43588 0.60529 0.17055 0.0
C97 C 0.39166 0.62239 0.17746 0.0
C98 C 0.36165 0.49498 0.10832 0.0
C99 C 0.35759 0.44665 0.11141 0.0
N100 N 0.3737 0.44671 0.13602 0.0
C101 C 0.37816 0.49458 0.13366 0.0
C102 C 0.35125 0.47086 0.0971 0.0
C103 C 0.38402 0.46996 0.14733 0.0
C104 C 0.30833 0.52465 0.1555 0.0
N105 N 0.33134 0.53883 0.16034 0.0
C106 C 0.31918 0.54625 0.21136 0.0
C107 C 0.33746 0.54891 0.18778 0.0
C108 C 0.29466 0.53278 0.20661 0.0
C109 C 0.28968 0.52115 0.17854 0.0
H110 H 0.30386 0.51724 0.13329 0.0
H111 H 0.35587 0.56012 0.19103 0.0
C112 C 0.44263 0.54492 0.07957 0.0
N113 N 0.42246 0.52652 0.08114 0.0
C114 C 0.46636 0.53893 0.06441 0.0
C115 C 0.44923 0.49412 0.05523 0.0
C116 C 0.42546 0.50122 0.07006 0.0
C117 C 0.46969 0.51349 0.05112 0.0
H118 H 0.43928 0.56511 0.08774 0.0
H119 H 0.40886 0.48715 0.07096 0.0
C120 C 0.31142 0.59304 0.10411 0.0
N121 N 0.26763 0.62722 0.10782 0.0
C122 C 0.30049 0.60439 0.07818 0.0
C123 C 0.30009 0.5991 0.13193 0.0
C124 C 0.27834 0.6216 0.08053 0.0
C125 C 0.27797 0.61644 0.13334 0.0
C126 C 0.39287 0.56093 0.03456 0.0
C127 C 0.41337 0.57795 0.02447 0.0
C128 C 0.38831 0.53638 0.0201 0.0
C129 C 0.42922 0.56995 1.00023 0.0
C130 C 0.40462 0.5291 0.99595 0.0
N131 N 0.42458 0.54588 0.98663 0.0
C132 C 0.40778 0.627 0.09067 0.0
C133 C 0.36285 0.64302 0.09149 0.0
C134 C 0.41721 0.65218 0.08178 0.0
N135 N 0.38098 0.62269 0.09442 0.0
C136 C 0.37136 0.66852 0.08228 0.0
C137 C 0.39878 0.67302 0.07613 0.0
H138 H 0.42172 0.61041 0.09285 0.0
H139 H 0.34166 0.63917 0.09451 0.0
C140 C 0.29354 0.53571 0.04971 0.0
N141 N 0.31739 0.54648 0.04092 0.0
C142 C 0.27069 0.53886 0.0319 0.0
C143 C 0.29789 0.56245 0.99544 0.0
C144 C 0.32022 0.55891 0.014 0.0
C145 C 0.27252 0.55339 0.00499 0.0
H146 H 0.29188 0.52645 0.07155 0.0
H147 H 0.33924 0.56803 0.00803 0.0
O148 O 0.38842 0.56295 0.12897 0.0
O149 O 0.35558 0.51876 0.0944 0.0
O150 O 0.3328 0.57574 0.10228 0.0
O151 O 0.3778 0.56789 0.05898 0.0
H152 H 0.43972 0.56984 0.14309 0.0
H153 H 0.35958 0.60102 0.15535 0.0
H154 H 0.45724 0.60681 0.17502 0.0
H155 H 0.37847 0.63732 0.18726 0.0
H156 H 0.34969 0.42782 0.10295 0.0
H157 H 0.38639 0.51299 0.14273 0.0
H158 H 0.33843 0.47087 0.0775 0.0
H159 H 0.39677 0.46934 0.16695 0.0
H160 H 0.32377 0.55532 0.2328 0.0
H161 H 0.27089 0.51085 0.17397 0.0
H162 H 0.48102 0.55484 0.06149 0.0
H163 H 0.451 0.47403 0.04603 0.0
H164 H 0.3092 0.60023 0.05652 0.0
H165 H 0.30827 0.59053 0.15223 0.0
H166 H 0.26969 0.63053 0.06064 0.0
H167 H 0.26901 0.62131 0.15472 0.0
H168 H 0.41717 0.59701 0.03541 0.0
H169 H 0.37263 0.5229 0.02779 0.0
H170 H 0.44529 0.58282 0.99231 0.0
H171 H 0.40148 0.51006 0.98473 0.0
H172 H 0.43856 0.65486 0.07786 0.0
H173 H 0.35637 0.68388 0.07802 0.0
H174 H 0.2515 0.53144 0.03994 0.0
H175 H 0.30006 0.5741 0.97509 0.0
Li176 Li 0.96027 0.37739 0.08707 0.0
Li177 Li 0.95295 0.33852 0.12015 0.0
Li178 Li 0.94545 0.33525 0.06713 0.0
Li179 Li 0.91544 0.36366 0.09642 0.0
C180 C 0.00518 0.34512 0.09939 0.0
N181 N 0.0558 0.35075 0.12433 0.0
C182 C 0.00951 0.36374 0.12237 0.0
C183 C 0.02659 0.32936 0.08914 0.0
C184 C 0.03525 0.36629 0.13467 0.0
C185 C 0.05203 0.33251 0.10203 0.0
C186 C 0.92442 0.3859 0.14788 0.0
C187 C 0.88802 0.37695 0.1822 0.0
N188 N 0.88721 0.40355 0.18943 0.0
C189 C 0.92334 0.41311 0.15579 0.0
C190 C 0.90673 0.36762 0.1613 0.0
C191 C 0.90435 0.42165 0.1768 0.0
C192 C 0.96529 0.43266 0.08125 0.0
N193 N 0.97905 0.40939 0.07658 0.0
C194 C 0.00937 0.43168 0.04331 0.0
C195 C 0.00124 0.4086 0.0588 0.0
C196 C 0.99456 0.45566 0.0464 0.0
C197 C 0.97287 0.45622 0.06652 0.0
H198 H 0.94703 0.43237 0.09436 0.0
H199 H 0.01126 0.38961 0.05468 0.0
C200 C 0.97334 0.29221 0.14712 0.0
N201 N 0.96443 0.31746 0.15348 0.0
C202 C 0.97854 0.27391 0.17014 0.0
C203 C 0.96713 0.30854 0.20596 0.0
C204 C 0.96194 0.32613 0.18219 0.0
C205 C 0.97486 0.2818 0.20003 0.0
H206 H 0.97549 0.28601 0.12405 0.0
H207 H 0.9551 0.3464 0.18668 0.0
C208 C 0.93853 0.38518 0.03265 0.0
N209 N 0.95421 0.41542 0.98374 0.0
C210 C 0.92497 0.40902 0.02557 0.0
C211 C 0.95997 0.37664 0.01473 0.0
C212 C 0.93325 0.42406 0.00081 0.0
C213 C 0.96758 0.39221 0.99011 0.0
C214 C 0.90757 0.30269 0.08785 0.0
C215 C 0.88859 0.30658 0.06515 0.0
C216 C 0.91398 0.27652 0.09694 0.0
C217 C 0.87653 0.28421 0.05171 0.0
C218 C 0.90152 0.25466 0.08291 0.0
N219 N 0.88323 0.25893 0.06075 0.0
C220 C 0.96013 0.28685 0.03986 0.0
C221 C 0.93008 0.31346 0.01105 0.0
C222 C 0.95617 0.26492 0.02087 0.0
N223 N 0.94635 0.31009 0.03524 0.0
C224 C 0.92549 0.29202 0.99151 0.0
C225 C 0.93772 0.26701 0.99711 0.0
H226 H 0.97272 0.28476 0.05948 0.0
H227 H 0.91898 0.33203 0.00831 0.0
C228 C 0.87815 0.4049 0.0935 0.0
N229 N 0.88008 0.37799 0.09847 0.0
C230 C 0.85335 0.4164 0.08648 0.0
C231 C 0.83266 0.37263 0.09234 0.0
C232 C 0.85788 0.36204 0.09965 0.0
C233 C 0.83044 0.39991 0.08412 0.0
H234 H 0.8962 0.41709 0.093 0.0
H235 H 0.85997 0.34076 0.10416 0.0
O236 O 0.98019 0.34199 0.08697 0.0
O237 O 0.9425 0.37719 0.1269 0.0
O238 O 0.93134 0.37066 0.05744 0.0
O239 O 0.9202 0.32435 0.10065 0.0
H240 H 0.99329 0.37616 0.13065 0.0
H241 H 0.02353 0.31481 0.07141 0.0
H242 H 0.03889 0.38063 0.15244 0.0
H243 H 0.06878 0.32043 0.09431 0.0
H244 H 0.87411 0.36305 0.19263 0.0
H245 H 0.93705 0.4275 0.1459 0.0
H246 H 0.90726 0.34648 0.15543 0.0
H247 H 0.90324 0.44266 0.18307 0.0
H248 H 0.02627 0.43048 0.02805 0.0
H249 H 0.96066 0.47415 0.06915 0.0
H250 H 0.98487 0.25364 0.16459 0.0
H251 H 0.96394 0.31544 0.22866 0.0
H252 H 0.90837 0.41598 0.03917 0.0
H253 H 0.97099 0.35848 0.02014 0.0
H254 H 0.92305 0.44264 0.9952 0.0
H255 H 0.98427 0.38595 0.9762 0.0
H256 H 0.88374 0.32666 0.05742 0.0
H257 H 0.92845 0.27306 0.11457 0.0
H258 H 0.86203 0.28695 0.0339 0.0
H259 H 0.90642 0.2343 0.0896 0.0
H260 H 0.96625 0.24608 0.02573 0.0
H261 H 0.91087 0.29441 0.97372 0.0
H262 H 0.85247 0.43766 0.08111 0.0
H263 H 0.8156 0.35911 0.09086 0.0
Li264 Li 0.11396 0.95958 0.08994 0.0
Li265 Li 0.15525 0.95235 0.12431 0.0
Li266 Li 0.15726 0.94425 0.0719 0.0
Li267 Li 0.13024 0.91394 0.10111 0.0
C268 C 0.16154 0.99779 0.07367 0.0
N269 N 0.1873 0.03427 0.03676 0.0
C270 C 0.18243 0.01378 0.08482 0.0
C271 C 0.15351 0.00064 0.04387 0.0
C272 C 0.19527 0.03204 0.06577 0.0
C273 C 0.16685 0.01909 0.02553 0.0
C274 C 0.10542 0.92491 0.15154 0.0
C275 C 0.11108 0.89026 0.18882 0.0
N276 N 0.08394 0.88965 0.19295 0.0
C277 C 0.07761 0.92404 0.15623 0.0
C278 C 0.12233 0.90798 0.16801 0.0
C279 C 0.06714 0.90604 0.17725 0.0
C280 C 0.05991 0.96063 0.07849 0.0
N281 N 0.08182 0.97699 0.07867 0.0
C282 C 0.05929 0.00916 0.04787 0.0
C283 C 0.08173 0.00128 0.06463 0.0
C284 C 0.03692 0.99188 0.0459 0.0
C285 C 0.037 0.96783 0.06238 0.0
H286 H 0.06104 0.941 0.08886 0.0
H287 H 0.09969 0.01358 0.0646 0.0
C288 C 0.20254 0.96963 0.15005 0.0
N289 N 0.17659 0.96381 0.15716 0.0
C290 C 0.22147 0.97429 0.17247 0.0
C291 C 0.18631 0.96842 0.2093 0.0
C292 C 0.16801 0.96364 0.18604 0.0
C293 C 0.21359 0.97309 0.20257 0.0
H294 H 0.20876 0.96956 0.12687 0.0
H295 H 0.14726 0.95881 0.19108 0.0
C296 C 0.11148 0.92205 0.036 0.0
N297 N 0.09007 0.90565 0.98185 0.0
C298 C 0.11185 0.89481 0.02795 0.0
C299 C 0.1002 0.94091 0.01642 0.0
C300 C 0.10095 0.88694 0.00051 0.0
C301 C 0.08948 0.93223 0.98919 0.0
C302 C 0.1904 0.90603 0.09215 0.0
C303 C 0.18602 0.88926 0.0675 0.0
C304 C 0.21654 0.90929 0.10323 0.0
C305 C 0.20792 0.87651 0.05393 0.0
C306 C 0.23791 0.89617 0.08906 0.0
N307 N 0.2332 0.88023 0.06487 0.0
C308 C 0.20749 0.95555 0.04763 0.0
C309 C 0.17825 0.93488 0.01255 0.0
C310 C 0.22921 0.95272 0.02823 0.0
N311 N 0.18283 0.94592 0.03993 0.0
C312 C 0.19949 0.93152 0.99243 0.0
C313 C 0.22555 0.93957 0.00074 0.0
H314 H 0.21066 0.96392 0.06968 0.0
H315 H 0.15863 0.9271 0.00694 0.0
C316 C 0.08938 0.87585 0.09932 0.0
N317 N 0.11631 0.87844 0.10382 0.0
C318 C 0.07828 0.85069 0.09306 0.0
C319 C 0.12265 0.83111 0.09783 0.0
C320 C 0.13282 0.85664 0.10455 0.0
C321 C 0.09519 0.82808 0.09067 0.0
H322 H 0.07681 0.89361 0.09854 0.0
H323 H 0.15416 0.85929 0.1082 0.0
O324 O 0.14892 0.97961 0.09192 0.0
O325 O 0.11606 0.94192 0.1306 0.0
O326 O 0.12169 0.93008 0.06305 0.0
O327 O 0.16928 0.91946 0.10506 0.0
H328 H 0.18864 0.01217 0.10794 0.0
H329 H 0.13742 0.98842 0.03489 0.0
H330 H 0.21154 0.04446 0.07407 0.0
H331 H 0.16099 0.02131 0.00235 0.0
H332 H 0.12391 0.87694 0.20162 0.0
H333 H 0.06425 0.93709 0.14375 0.0
H334 H 0.1439 0.90833 0.1645 0.0
H335 H 0.04564 0.90508 0.18106 0.0
H336 H 0.05986 0.02794 0.03556 0.0
H337 H 0.02033 0.9538 0.06108 0.0
H338 H 0.24223 0.97812 0.16634 0.0
H339 H 0.17949 0.96715 0.23227 0.0
H340 H 0.12045 0.87984 0.04266 0.0
H341 H 0.09964 0.96203 0.02211 0.0
H342 H 0.1011 0.86594 0.99406 0.0
H343 H 0.08066 0.94664 0.97389 0.0
H344 H 0.16599 0.88658 0.05856 0.0
H345 H 0.22034 0.92181 0.12254 0.0
H346 H 0.20481 0.86377 0.0346 0.0
H347 H 0.25825 0.89867 0.09728 0.0
H348 H 0.24894 0.95948 0.03534 0.0
H349 H 0.19589 0.92105 0.97155 0.0
H350 H 0.05692 0.84928 0.08845 0.0
H351 H 0.13658 0.81442 0.09611 0.0
Li352 Li 0.58584 0.36112 0.40132 0.0
Li353 Li 0.55473 0.3366 0.43209 0.0
Li354 Li 0.54751 0.33976 0.37762 0.0
Li355 Li 0.54309 0.38173 0.41185 0.0
C356 C 0.59463 0.30267 0.39319 0.0
N357 N 0.63053 0.26177 0.38015 0.0
C358 C 0.6067 0.28799 0.41629 0.0
C359 C 0.60059 0.2963 0.36346 0.0
C360 C 0.62487 0.26747 0.40924 0.0
C361 C 0.61884 0.27562 0.35733 0.0
C362 C 0.5924 0.37744 0.45855 0.0
C363 C 0.62006 0.40957 0.48494 0.0
N364 N 0.6373 0.38944 0.49263 0.0
C365 C 0.61028 0.35705 0.46693 0.0
C366 C 0.59722 0.40391 0.46779 0.0
C367 C 0.6329 0.36352 0.48408 0.0
C368 C 0.62731 0.3988 0.40082 0.0
N369 N 0.62294 0.3718 0.39913 0.0
C370 C 0.66912 0.36295 0.41044 0.0
C371 C 0.64346 0.35392 0.40249 0.0
C372 C 0.6736 0.39062 0.41492 0.0
C373 C 0.65264 0.4087 0.40849 0.0
H374 H 0.61056 0.41258 0.39881 0.0
H375 H 0.63958 0.33259 0.4016 0.0
C376 C 0.54667 0.28642 0.45927 0.0
N377 N 0.55157 0.31282 0.46505 0.0
C378 C 0.54888 0.26739 0.48208 0.0
C379 C 0.55951 0.30337 0.51664 0.0
C380 C 0.55681 0.32173 0.49321 0.0
C381 C 0.55642 0.27574 0.51093 0.0
H382 H 0.54255 0.28002 0.43659 0.0
H383 H 0.56017 0.34293 0.4972 0.0
C384 C 0.57745 0.39 0.35154 0.0
N385 N 0.61194 0.41462 0.31147 0.0
C386 C 0.57567 0.41771 0.34639 0.0
C387 C 0.5965 0.37476 0.33596 0.0
C388 C 0.59335 0.4298 0.32613 0.0
C389 C 0.61384 0.38759 0.31591 0.0
C390 C 0.50224 0.33643 0.42971 0.0
C391 C 0.48621 0.31481 0.42054 0.0
C392 C 0.49993 0.34623 0.45892 0.0
C393 C 0.46831 0.30315 0.44088 0.0
C394 C 0.48182 0.334 0.4786 0.0
N395 N 0.46653 0.31289 0.46925 0.0
C396 C 0.52731 0.29379 0.34965 0.0
C397 C 0.54102 0.32784 0.3157 0.0
C398 C 0.52317 0.27572 0.32616 0.0
N399 N 0.53625 0.31918 0.34406 0.0
C400 C 0.53775 0.31022 0.29157 0.0
C401 C 0.52909 0.28371 0.29681 0.0
H402 H 0.52475 0.28713 0.3725 0.0
H403 H 0.54863 0.34796 0.31194 0.0
C404 C 0.54373 0.43677 0.42159 0.0
N405 N 0.52711 0.41503 0.42221 0.0
C406 C 0.53659 0.46043 0.43641 0.0
C407 C 0.49478 0.43925 0.45116 0.0
C408 C 0.50259 0.41609 0.43567 0.0
C409 C 0.51231 0.46145 0.45242 0.0
H410 H 0.56346 0.43503 0.41155 0.0
H411 H 0.48983 0.39847 0.43597 0.0
O412 O 0.57656 0.32265 0.3997 0.0
O413 O 0.57059 0.37159 0.4409 0.0
O414 O 0.56042 0.37785 0.37148 0.0
O415 O 0.52029 0.34779 0.41033 0.0
H416 H 0.60219 0.29239 0.43943 0.0
H417 H 0.59115 0.30704 0.34525 0.0
H418 H 0.63444 0.25604 0.4269 0.0
H419 H 0.62365 0.27052 0.33442 0.0
H420 H 0.62413 0.43 0.49207 0.0
H421 H 0.60696 0.33652 0.45985 0.0
H422 H 0.58359 0.41996 0.46169 0.0
H423 H 0.64702 0.34795 0.49047 0.0
H424 H 0.68458 0.34824 0.41544 0.0
H425 H 0.65529 0.43021 0.41127 0.0
H426 H 0.54665 0.24624 0.47671 0.0
H427 H 0.56516 0.31053 0.53865 0.0
H428 H 0.5607 0.42975 0.3578 0.0
H429 H 0.59812 0.35332 0.33963 0.0
H430 H 0.59226 0.45125 0.32202 0.0
H431 H 0.62883 0.37605 0.3039 0.0
H432 H 0.48746 0.30719 0.39793 0.0
H433 H 0.5124 0.36277 0.46648 0.0
H434 H 0.45582 0.28637 0.4341 0.0
H435 H 0.48001 0.34123 0.50133 0.0
H436 H 0.51695 0.25527 0.33103 0.0
H437 H 0.54264 0.31695 0.26917 0.0
H438 H 0.55075 0.47702 0.43714 0.0
H439 H 0.47577 0.43944 0.46303 0.0
Li440 Li 0.12528 0.58668 0.40143 0.0
Li441 Li 0.15505 0.55549 0.42706 0.0
Li442 Li 0.15025 0.55086 0.37393 0.0
Li443 Li 0.1123 0.54106 0.40813 0.0
C444 C 0.18869 0.59184 0.40483 0.0
N445 N 0.23801 0.60937 0.42591 0.0
C446 C 0.18996 0.61133 0.42737 0.0
C447 C 0.21252 0.58143 0.39286 0.0
C448 C 0.21509 0.61988 0.43777 0.0
C449 C 0.23725 0.59052 0.40385 0.0
C450 C 0.10683 0.5593 0.4644 0.0
C451 C 0.10206 0.52688 0.50425 0.0
N452 N 0.07922 0.53956 0.51339 0.0
C453 C 0.0834 0.57211 0.4743 0.0
C454 C 0.11631 0.53655 0.47954 0.0
C455 C 0.0697 0.56179 0.49907 0.0
C456 C 0.08397 0.62368 0.40886 0.0
N457 N 0.11071 0.62192 0.40278 0.0
C458 C 0.11617 0.66924 0.40983 0.0
C459 C 0.12666 0.64413 0.40192 0.0
C460 C 0.08903 0.67134 0.41856 0.0
C461 C 0.0726 0.64836 0.41667 0.0
H462 H 0.07181 0.60561 0.4092 0.0
H463 H 0.14782 0.64213 0.39673 0.0
C464 C 0.20414 0.53921 0.45166 0.0
N465 N 0.18141 0.55343 0.45759 0.0
C466 C 0.22694 0.54264 0.46948 0.0
C467 C 0.20167 0.5735 0.50056 0.0
C468 C 0.17937 0.56955 0.48205 0.0
C469 C 0.22616 0.56086 0.49352 0.0
H470 H 0.20516 0.52679 0.4318 0.0
H471 H 0.16114 0.58098 0.48582 0.0
C472 C 0.09777 0.57859 0.35147 0.0
N473 N 0.07053 0.61435 0.31499 0.0
C474 C 0.07066 0.57425 0.34456 0.0
C475 C 0.1111 0.60095 0.33956 0.0
C476 C 0.05723 0.59259 0.32613 0.0
C477 C 0.09695 0.61886 0.32126 0.0
C478 C 0.14403 0.49712 0.39222 0.0
C479 C 0.12757 0.49458 0.36698 0.0
C480 C 0.15671 0.47434 0.40401 0.0
C481 C 0.12411 0.46923 0.35396 0.0
C482 C 0.15273 0.44935 0.39034 0.0
N483 N 0.13665 0.44734 0.36581 0.0
C484 C 0.18981 0.52222 0.34144 0.0
C485 C 0.16992 0.55843 0.31486 0.0
C486 C 0.20877 0.51847 0.31872 0.0
N487 N 0.17111 0.54218 0.33931 0.0
C488 C 0.18873 0.55564 0.29185 0.0
C489 C 0.2088 0.53581 0.29395 0.0
H490 H 0.19101 0.51014 0.3615 0.0
H491 H 0.15519 0.57434 0.31377 0.0
C492 C 0.05765 0.53586 0.41734 0.0
N493 N 0.08087 0.52144 0.41847 0.0
C494 C 0.03478 0.52688 0.43241 0.0
C495 C 0.05981 0.48767 0.44845 0.0
C496 C 0.08223 0.49738 0.43292 0.0
C497 C 0.03597 0.50296 0.44911 0.0
H498 H 0.05757 0.55551 0.40694 0.0
H499 H 0.1012 0.4868 0.4344 0.0
O500 O 0.16427 0.58268 0.3949 0.0
O501 O 0.11985 0.56839 0.43938 0.0
O502 O 0.11117 0.56095 0.36971 0.0
O503 O 0.14784 0.52164 0.40557 0.0
H504 H 0.17173 0.6193 0.43724 0.0
H505 H 0.21195 0.56633 0.37545 0.0
H506 H 0.21636 0.63472 0.45543 0.0
H507 H 0.25584 0.58251 0.39492 0.0
H508 H 0.10904 0.50916 0.51601 0.0
H509 H 0.07571 0.58966 0.46278 0.0
H510 H 0.13417 0.52612 0.47191 0.0
H511 H 0.05144 0.57138 0.50684 0.0
H512 H 0.12963 0.68636 0.41109 0.0
H513 H 0.05147 0.64915 0.42264 0.0
H514 H 0.24541 0.53237 0.46349 0.0
H515 H 0.20034 0.58795 0.51865 0.0
H516 H 0.06014 0.55681 0.35314 0.0
H517 H 0.132 0.60479 0.34494 0.0
H518 H 0.03623 0.58951 0.32063 0.0
H519 H 0.10696 0.63639 0.31215 0.0
H520 H 0.11758 0.51188 0.35744 0.0
H521 H 0.1695 0.476 0.42355 0.0
H522 H 0.11145 0.46697 0.33442 0.0
H523 H 0.16243 0.43156 0.39924 0.0
H524 H 0.22416 0.50317 0.32131 0.0
H525 H 0.18805 0.56931 0.27298 0.0
H526 H 0.01704 0.53956 0.43278 0.0
H527 H 0.0615 0.46905 0.46093 0.0
Li528 Li 0.93541 0.16233 0.43433 0.0
Li529 Li 0.90853 0.13442 0.40277 0.0
Li530 Li 0.95134 0.11716 0.42151 0.0
Li531 Li 0.9482 0.15576 0.38235 0.0
C532 C 0.90164 0.12985 0.46722 0.0
N533 N 0.86538 0.13466 0.51378 0.0
C534 C 0.8791 0.14648 0.46431 0.0
C535 C 0.90577 0.11566 0.49384 0.0
C536 C 0.86098 0.14863 0.48807 0.0
C537 C 0.88721 0.11837 0.51713 0.0
C538 C 0.89592 0.18717 0.38402 0.0
C539 C 0.87433 0.20224 0.33862 0.0
N540 N 0.85587 0.2159 0.35518 0.0
C541 C 0.87684 0.20158 0.40057 0.0
C542 C 0.89475 0.18766 0.35277 0.0
C543 C 0.8567 0.21587 0.38559 0.0
C544 C 0.92756 0.2139 0.45661 0.0
N545 N 0.93381 0.18847 0.46532 0.0
C546 C 0.93109 0.20103 0.51687 0.0
C547 C 0.9364 0.18186 0.49474 0.0
C548 C 0.92282 0.22693 0.50838 0.0
C549 C 0.92174 0.23351 0.47789 0.0
H550 H 0.92616 0.21868 0.43308 0.0
H551 H 0.9417 0.16151 0.50102 0.0
C552 C 0.86948 0.09704 0.41229 0.0
N553 N 0.87277 0.12068 0.39747 0.0
C554 C 0.84387 0.08692 0.41777 0.0
C555 C 0.82524 0.12427 0.39002 0.0
C556 C 0.85141 0.13379 0.38518 0.0
C557 C 0.82119 0.10117 0.40772 0.0
H558 H 0.88675 0.08704 0.42185 0.0
H559 H 0.85432 0.15234 0.37311 0.0
C560 C 0.98704 0.16528 0.44001 0.0
N561 N 0.0154 0.19296 0.48338 0.0
C562 C 0.99483 0.19196 0.43508 0.0
C563 C 0.99375 0.15262 0.46692 0.0
C564 C 0.00913 0.20563 0.45731 0.0
C565 C 0.0081 0.16697 0.48858 0.0
C566 C 0.92252 0.10001 0.36134 0.0
C567 C 0.91967 0.07282 0.36879 0.0
C568 C 0.9093 0.11022 0.33617 0.0
C569 C 0.90319 0.05638 0.35122 0.0
C570 C 0.893 0.09314 0.31917 0.0
N571 N 0.89028 0.0668 0.327 0.0
C572 C 0.94702 0.06857 0.44886 0.0
C573 C 0.99298 0.07903 0.44077 0.0
C574 C 0.95383 0.04529 0.46436 0.0
N575 N 0.9664 0.08502 0.43766 0.0
C576 C 0.0008 0.05564 0.45614 0.0
C577 C 0.98101 0.0385 0.4684 0.0
H578 H 0.92608 0.07395 0.44641 0.0
H579 H 0.00804 0.09263 0.43196 0.0
C580 C 0.96308 0.2019 0.35252 0.0
N581 N 0.9626 0.17472 0.34901 0.0
C582 C 0.96884 0.21867 0.32835 0.0
C583 C 0.97452 0.17915 0.29742 0.0
C584 C 0.9685 0.16306 0.3223 0.0
C585 C 0.97419 0.20745 0.30011 0.0
H586 H 0.95752 0.2106 0.37381 0.0
H587 H 0.96749 0.14139 0.32001 0.0
O588 O 0.91973 0.12752 0.44425 0.0
O589 O 0.91602 0.17335 0.39837 0.0
O590 O 0.97239 0.15177 0.4189 0.0
O591 O 0.93805 0.11658 0.37869 0.0
H592 H 0.87558 0.15752 0.44388 0.0
H593 H 0.92322 0.10284 0.49656 0.0
H594 H 0.84342 0.1614 0.48607 0.0
H595 H 0.89017 0.10756 0.53788 0.0
H596 H 0.87318 0.20271 0.31446 0.0
H597 H 0.87754 0.20182 0.42475 0.0
H598 H 0.9094 0.17696 0.3395 0.0
H599 H 0.84177 0.22701 0.39814 0.0
H600 H 0.93218 0.19536 0.54024 0.0
H601 H 0.91581 0.25347 0.4706 0.0
H602 H 0.842 0.06926 0.43184 0.0
H603 H 0.80835 0.13565 0.38133 0.0
H604 H 0.98973 0.20206 0.4144 0.0
H605 H 0.9876 0.13207 0.47121 0.0
H606 H 0.01519 0.22633 0.45387 0.0
H607 H 0.01331 0.15748 0.50959 0.0
H608 H 0.92993 0.06452 0.38802 0.0
H609 H 0.91154 0.1311 0.32988 0.0
H610 H 0.90065 0.03534 0.35685 0.0
H611 H 0.88252 0.10082 0.29974 0.0
H612 H 0.93783 0.03321 0.47389 0.0
H613 H 0.02202 0.05112 0.45852 0.0
H614 H 0.96769 0.24026 0.33151 0.0
H615 H 0.97874 0.16956 0.27618 0.0
Li616 Li 0.34362 0.94307 0.43184 0.0
Li617 Li 0.37362 0.91463 0.40236 0.0
Li618 Li 0.38543 0.95973 0.41358 0.0
Li619 Li 0.34774 0.95191 0.37943 0.0
C620 C 0.39319 0.93654 0.46738 0.0
N621 N 0.4224 0.95166 0.51726 0.0
C622 C 0.41737 0.92352 0.47428 0.0
C623 C 0.38377 0.95712 0.48598 0.0
C624 C 0.43188 0.93151 0.49955 0.0
C625 C 0.39883 0.96447 0.51109 0.0
C626 C 0.31377 0.90366 0.41033 0.0
C627 C 0.26646 0.89377 0.41603 0.0
N628 N 0.27252 0.87538 0.43756 0.0
C629 C 0.31951 0.88457 0.43244 0.0
C630 C 0.28702 0.9082 0.40194 0.0
C631 C 0.29839 0.87048 0.44592 0.0
C632 C 0.29542 0.95847 0.4584 0.0
N633 N 0.31776 0.94324 0.46288 0.0
C634 C 0.29807 0.92252 0.50578 0.0
C635 C 0.31992 0.92625 0.4866 0.0
C636 C 0.27397 0.93663 0.50053 0.0
C637 C 0.27324 0.95564 0.47722 0.0
H638 H 0.29436 0.97174 0.43924 0.0
H639 H 0.33791 0.91422 0.48937 0.0
C640 C 0.4163 0.87865 0.40354 0.0
N641 N 0.38935 0.87997 0.39863 0.0
C642 C 0.4288 0.85381 0.40782 0.0
C643 C 0.38583 0.83206 0.39988 0.0
C644 C 0.37427 0.85735 0.39519 0.0
C645 C 0.41325 0.83014 0.40765 0.0
H646 H 0.42782 0.89703 0.40574 0.0
H647 H 0.35296 0.85897 0.39066 0.0
C648 C 0.35213 0.00382 0.40166 0.0
N649 N 0.35665 0.05521 0.37843 0.0
C650 C 0.37061 0.00916 0.37881 0.0
C651 C 0.33595 0.02461 0.41265 0.0
C652 C 0.37259 0.03528 0.36738 0.0
C653 C 0.33854 0.05046 0.40063 0.0
C654 C 0.39619 0.92636 0.35132 0.0
C655 C 0.42361 0.92595 0.34432 0.0
C656 C 0.37846 0.90936 0.33601 0.0
C657 C 0.43289 0.90835 0.32222 0.0
C658 C 0.38852 0.89207 0.31406 0.0
N659 N 0.4153 0.89191 0.30769 0.0
C660 C 0.44008 0.96655 0.42174 0.0
C661 C 0.41404 0.00149 0.44346 0.0
C662 C 0.46271 0.97459 0.43786 0.0
N663 N 0.41624 0.97951 0.4255 0.0
C664 C 0.43621 0.01021 0.46011 0.0
C665 C 0.46066 0.996 0.45827 0.0
H666 H 0.44093 0.94855 0.4082 0.0
H667 H 0.39458 0.01077 0.44688 0.0
C668 C 0.30074 0.96879 0.35185 0.0
N669 N 0.32706 0.96346 0.3461 0.0
C670 C 0.28278 0.97355 0.32844 0.0
C671 C 0.31985 0.96954 0.29371 0.0
C672 C 0.33706 0.96451 0.31784 0.0
C673 C 0.29209 0.97331 0.29873 0.0
H674 H 0.29352 0.96831 0.37467 0.0
H675 H 0.3582 0.9607 0.31394 0.0
O676 O 0.3792 0.92968 0.44212 0.0
O677 O 0.33417 0.91818 0.39748 0.0
O678 O 0.34954 0.97844 0.41324 0.0
O679 O 0.38676 0.94296 0.37338 0.0
H680 H 0.425 0.90759 0.46013 0.0
H681 H 0.36531 0.9677 0.48075 0.0
H682 H 0.45073 0.92176 0.50502 0.0
H683 H 0.39189 0.98051 0.52553 0.0
H684 H 0.24567 0.89719 0.40985 0.0
H685 H 0.34003 0.88114 0.43965 0.0
H686 H 0.28213 0.92268 0.38475 0.0
H687 H 0.30257 0.85584 0.46324 0.0
H688 H 0.29948 0.90745 0.52321 0.0
H689 H 0.25529 0.96734 0.4727 0.0
H690 H 0.45014 0.85333 0.41281 0.0
H691 H 0.37291 0.8145 0.39952 0.0
H692 H 0.38334 0.99345 0.36995 0.0
H693 H 0.32152 0.02077 0.4303 0.0
H694 H 0.3868 0.0397 0.34971 0.0
H695 H 0.32614 0.06673 0.40893 0.0
H696 H 0.4376 0.93906 0.35581 0.0
H697 H 0.35718 0.90934 0.34125 0.0
H698 H 0.45407 0.90777 0.31661 0.0
H699 H 0.37505 0.87871 0.30214 0.0
H700 H 0.48125 0.9633 0.43548 0.0
H701 H 0.43366 0.02662 0.47582 0.0
H702 H 0.26164 0.97615 0.3336 0.0
H703 H 0.32815 0.96988 0.27132 0.0
Li704 Li 0.44499 0.87533 0.91246 0.0
Li705 Li 0.39829 0.86441 0.90301 0.0
Li706 Li 0.42611 0.83012 0.9268 0.0
Li707 Li 0.43139 0.84224 0.87257 0.0
C708 C 0.40447 0.88361 0.96002 0.0
N709 N 0.37712 0.91944 0.99626 0.0
C710 C 0.40306 0.91087 0.9523 0.0
C711 C 0.39211 0.8746 0.98626 0.0
C712 C 0.38913 0.92866 0.97091 0.0
C713 C 0.37832 0.89302 0.00425 0.0
C714 C 0.41195 0.89985 0.85646 0.0
C715 C 0.38553 0.90951 0.81245 0.0
N716 N 0.38706 0.93628 0.81871 0.0
C717 C 0.41342 0.92749 0.86235 0.0
C718 C 0.39807 0.8908 0.8312 0.0
C719 C 0.40066 0.94557 0.84303 0.0
C720 C 0.47431 0.92545 0.91377 0.0
N721 N 0.46728 0.90261 0.92863 0.0
C722 C 0.47988 0.92198 0.97541 0.0
C723 C 0.47089 0.90015 0.95863 0.0
C724 C 0.48553 0.94645 0.96108 0.0
C725 C 0.48375 0.94781 0.92972 0.0
H726 H 0.4711 0.92686 0.8899 0.0
H727 H 0.46494 0.88176 0.96981 0.0
C728 C 0.34891 0.86328 0.92932 0.0
N729 N 0.36258 0.87813 0.90879 0.0
C730 C 0.32514 0.87288 0.9417 0.0
C731 C 0.32871 0.91237 0.91034 0.0
C732 C 0.35263 0.90196 0.89851 0.0
C733 C 0.31531 0.89815 0.93302 0.0
H734 H 0.35745 0.84468 0.9375 0.0
H735 H 0.36379 0.91369 0.88253 0.0
C736 C 0.47497 0.81525 0.89961 0.0
N737 N 0.50394 0.76867 0.88918 0.0
C738 C 0.46159 0.7913 0.89245 0.0
C739 C 0.50306 0.81549 0.90148 0.0
C740 C 0.47661 0.76798 0.88724 0.0
C741 C 0.51735 0.79173 0.89613 0.0
C742 C 0.37585 0.8148 0.88724 0.0
C743 C 0.36807 0.79031 0.90001 0.0
C744 C 0.35813 0.82825 0.86803 0.0
C745 C 0.34253 0.77992 0.89378 0.0
C746 C 0.33276 0.81722 0.86237 0.0
N747 N 0.32553 0.79349 0.87528 0.0
C748 C 0.40137 0.79855 0.96961 0.0
C749 C 0.44848 0.79115 0.96728 0.0
C750 C 0.3987 0.77929 0.99207 0.0
N751 N 0.42584 0.80369 0.95733 0.0
C752 C 0.44673 0.77156 0.98964 0.0
C753 C 0.42152 0.76525 0.00208 0.0
H754 H 0.38382 0.80925 0.96165 0.0
H755 H 0.46786 0.7962 0.95786 0.0
C756 C 0.46449 0.82154 0.82452 0.0
N757 N 0.43899 0.82608 0.83453 0.0
C758 C 0.46879 0.80612 0.79868 0.0
C759 C 0.4206 0.8015 0.79339 0.0
C760 C 0.41728 0.8166 0.81933 0.0
C761 C 0.44659 0.79574 0.78293 0.0
H762 H 0.4815 0.82915 0.83705 0.0
H763 H 0.3973 0.82014 0.82773 0.0
O764 O 0.41732 0.86573 0.9416 0.0
O765 O 0.4247 0.88188 0.87485 0.0
O766 O 0.46079 0.83846 0.90451 0.0
O767 O 0.40074 0.82534 0.89349 0.0
H768 H 0.41232 0.91813 0.93196 0.0
H769 H 0.39297 0.85358 0.99254 0.0
H770 H 0.38777 0.94977 0.96512 0.0
H771 H 0.36852 0.88631 0.02453 0.0
H772 H 0.37463 0.90275 0.79289 0.0
H773 H 0.42399 0.93494 0.88179 0.0
H774 H 0.397 0.86959 0.82605 0.0
H775 H 0.4015 0.96698 0.84742 0.0
H776 H 0.48143 0.92007 0.99949 0.0
H777 H 0.48802 0.96639 0.91794 0.0
H778 H 0.31518 0.86117 0.9589 0.0
H779 H 0.32173 0.93202 0.9032 0.0
H780 H 0.43988 0.79067 0.89088 0.0
H781 H 0.5137 0.83388 0.90695 0.0
H782 H 0.46653 0.74932 0.88166 0.0
H783 H 0.5391 0.79162 0.89748 0.0
H784 H 0.3817 0.7793 0.91439 0.0
H785 H 0.36381 0.84714 0.85779 0.0
H786 H 0.33625 0.76101 0.90359 0.0
H787 H 0.31881 0.82754 0.84773 0.0
H788 H 0.37884 0.77487 0.00081 0.0
H789 H 0.46486 0.76142 0.99705 0.0
H790 H 0.48917 0.80218 0.79126 0.0
H791 H 0.40291 0.79357 0.78225 0.0
Li792 Li 0.63707 0.40465 0.91323 0.0
Li793 Li 0.62924 0.45173 0.922 0.0
Li794 Li 0.66094 0.43627 0.88241 0.0
Li795 Li 0.67278 0.43172 0.93702 0.0
C796 C 0.6031 0.41825 0.86686 0.0
N797 N 0.56643 0.39229 0.8303 0.0
C798 C 0.57635 0.41512 0.87604 0.0
C799 C 0.61109 0.40844 0.83893 0.0
C800 C 0.55815 0.40188 0.85728 0.0
C801 C 0.59229 0.39529 0.82082 0.0
C802 C 0.61866 0.42276 0.97388 0.0
C803 C 0.60698 0.42921 0.02573 0.0
N804 N 0.58096 0.42286 0.01929 0.0
C805 C 0.59187 0.41606 0.96782 0.0
C806 C 0.62636 0.42922 0.00308 0.0
C807 C 0.57309 0.41632 0.99107 0.0
C808 C 0.62734 0.3602 0.94697 0.0
N809 N 0.62114 0.36982 0.91935 0.0
C810 C 0.59314 0.33148 0.90985 0.0
C811 C 0.60493 0.35567 0.90042 0.0
C812 C 0.59801 0.3222 0.939 0.0
C813 C 0.61573 0.33656 0.95741 0.0
H814 H 0.64102 0.37125 0.96121 0.0
H815 H 0.60099 0.36303 0.87817 0.0
C816 C 0.57841 0.47818 0.92434 0.0
N817 N 0.60308 0.47588 0.93716 0.0
C818 C 0.55676 0.4881 0.94099 0.0
C819 C 0.58688 0.49461 0.98285 0.0
C820 C 0.608 0.48526 0.96515 0.0
C821 C 0.56052 0.49508 0.97127 0.0
H822 H 0.57513 0.47072 0.90192 0.0
H823 H 0.62786 0.48295 0.97477 0.0
C824 C 0.68191 0.37819 0.89961 0.0
N825 N 0.69178 0.32388 0.89139 0.0
C826 C 0.70092 0.36493 0.91735 0.0
C827 C 0.66831 0.3639 0.87729 0.0
C828 C 0.70554 0.33745 0.91294 0.0
C829 C 0.67344 0.33644 0.8736 0.0
C830 C 0.68999 0.47903 0.9084 0.0
C831 C 0.71311 0.4645 0.90071 0.0
C832 C 0.69115 0.50711 0.91017 0.0
C833 C 0.73703 0.47836 0.89491 0.0
C834 C 0.71547 0.52022 0.90424 0.0
N835 N 0.7377 0.5057 0.89678 0.0
C836 C 0.68042 0.46962 0.83487 0.0
C837 C 0.68758 0.42273 0.82879 0.0
C838 C 0.69576 0.47509 0.80932 0.0
N839 N 0.6771 0.44377 0.84439 0.0
C840 C 0.70236 0.42722 0.80276 0.0
C841 C 0.70702 0.45367 0.79312 0.0
H842 H 0.67198 0.48604 0.84769 0.0
H843 H 0.68507 0.40246 0.83694 0.0
C844 C 0.70081 0.40782 0.98368 0.0
N845 N 0.69875 0.4313 0.96825 0.0
C846 C 0.72012 0.40491 0.00612 0.0
C847 C 0.73358 0.4511 0.99785 0.0
C848 C 0.71399 0.4531 0.97556 0.0
C849 C 0.73725 0.42656 0.01298 0.0
H850 H 0.68775 0.39112 0.9781 0.0
H851 H 0.7112 0.47198 0.96403 0.0
O852 O 0.62113 0.43163 0.88462 0.0
O853 O 0.63723 0.42345 0.95127 0.0
O854 O 0.67691 0.40507 0.90384 0.0
O855 O 0.66616 0.46602 0.91369 0.0
H856 H 0.56969 0.42271 0.89744 0.0
H857 H 0.63156 0.41094 0.83127 0.0
H858 H 0.53744 0.3992 0.86417 0.0
H859 H 0.59824 0.38751 0.79922 0.0
H860 H 0.6126 0.43434 0.0484 0.0
H861 H 0.58565 0.41089 0.94539 0.0
H862 H 0.64704 0.43448 0.0081 0.0
H863 H 0.55224 0.41137 0.98666 0.0
H864 H 0.57986 0.32057 0.89493 0.0
H865 H 0.62046 0.32959 0.97978 0.0
H866 H 0.53709 0.48902 0.93061 0.0
H867 H 0.59106 0.49944 0.00599 0.0
H868 H 0.71226 0.37577 0.9341 0.0
H869 H 0.65358 0.37381 0.86328 0.0
H870 H 0.72015 0.32694 0.9266 0.0
H871 H 0.6628 0.3251 0.85665 0.0
H872 H 0.71266 0.44278 0.89918 0.0
H873 H 0.6734 0.51864 0.91601 0.0
H874 H 0.75505 0.46739 0.8889 0.0
H875 H 0.71665 0.54195 0.90552 0.0
H876 H 0.699 0.49576 0.80243 0.0
H877 H 0.71099 0.41024 0.79093 0.0
H878 H 0.72227 0.38559 0.01711 0.0
H879 H 0.74596 0.46848 0.00292 0.0
Li880 Li 0.0616 0.65974 0.89512 0.0
Li881 Li 0.0637 0.6679 0.94869 0.0
Li882 Li 0.09731 0.63643 0.92211 0.0
Li883 Li 0.04904 0.62463 0.92811 0.0
C884 C 0.10974 0.69392 0.90802 0.0
N885 N 0.14722 0.73107 0.88834 0.0
C886 C 0.10726 0.72106 0.91593 0.0
C887 C 0.13161 0.6856 0.89064 0.0
C888 C 0.12633 0.73954 0.90561 0.0
C889 C 0.15024 0.70471 0.88073 0.0
C890 C 0.01571 0.68318 0.92245 0.0
C891 C 0.97303 0.7063 0.92442 0.0
N892 N 0.98581 0.73002 0.9189 0.0
C893 C 0.02841 0.70779 0.91684 0.0
C894 C 0.98779 0.6824 0.9263 0.0
C895 C 0.01296 0.73124 0.9151 0.0
C896 C 0.03058 0.68624 0.84841 0.0
N897 N 0.05546 0.67782 0.85725 0.0
C898 C 0.07543 0.6982 0.81413 0.0
C899 C 0.07753 0.68291 0.84018 0.0
C900 C 0.0503 0.70848 0.80541 0.0
C901 C 0.02758 0.70203 0.82266 0.0
H902 H 0.01305 0.68119 0.86155 0.0
H903 H 0.0969 0.67526 0.84688 0.0
C904 C 0.08805 0.69848 0.99199 0.0
N905 N 0.06329 0.69284 0.98072 0.0
C906 C 0.09113 0.71811 0.01401 0.0
C907 C 0.04296 0.7253 0.01304 0.0
C908 C 0.04077 0.70522 0.99125 0.0
C909 C 0.06846 0.7322 0.02433 0.0
H910 H 0.10555 0.68821 0.98317 0.0
H911 H 0.02123 0.70003 0.98231 0.0
C912 C 0.06977 0.61688 0.86257 0.0
N913 N 0.06407 0.61109 0.80147 0.0
C914 C 0.04417 0.61381 0.85003 0.0
C915 C 0.09249 0.61675 0.84415 0.0
C916 C 0.04171 0.61099 0.81906 0.0
C917 C 0.08918 0.61385 0.81327 0.0
C918 C 0.07253 0.61413 0.98208 0.0
C919 C 0.08586 0.58934 0.98179 0.0
C920 C 0.05449 0.62007 0.00514 0.0
C921 C 0.08058 0.57066 0.00443 0.0
C922 C 0.04978 0.60086 0.02738 0.0
N923 N 0.06278 0.57675 0.02653 0.0
C924 C 0.14774 0.63663 0.94695 0.0
C925 C 0.14045 0.59915 0.91501 0.0
C926 C 0.17172 0.62549 0.95726 0.0
N927 N 0.13247 0.62311 0.92675 0.0
C928 C 0.1645 0.58727 0.92462 0.0
C929 C 0.17991 0.60013 0.94677 0.0
H930 H 0.14051 0.65541 0.95623 0.0
H931 H 0.12743 0.58857 0.89955 0.0
C932 C 0.00849 0.59554 0.9588 0.0
N933 N 0.02899 0.59367 0.9388 0.0
C934 C -0.00014 0.57264 0.97426 0.0
C935 C 0.0324 0.54624 0.94669 0.0
C936 C 0.04033 0.56959 0.93173 0.0
C937 C 0.01264 0.54775 0.96914 0.0
H938 H 0.00037 0.61511 0.96449 0.0
H939 H 0.05716 0.56892 0.9164 0.0
O940 O 0.09165 0.67538 0.91853 0.0
O941 O 0.03035 0.6599 0.9245 0.0
O942 O 0.07252 0.62029 0.89273 0.0
O943 O 0.07675 0.63232 0.95961 0.0
H944 H 0.09092 0.72779 0.93008 0.0
H945 H 0.13404 0.66463 0.88462 0.0
H946 H 0.12459 0.76062 0.91145 0.0
H947 H 0.16712 0.69858 0.86705 0.0
H948 H 0.95141 0.70599 0.92735 0.0
H949 H 0.0499 0.70872 0.9136 0.0
H950 H 0.97766 0.6635 0.93074 0.0
H951 H 0.02255 0.7504 0.91069 0.0
H952 H 0.09348 0.70262 0.80145 0.0
H953 H 0.00775 0.70914 0.81635 0.0
H954 H 0.11117 0.72307 0.02184 0.0
H955 H 0.025 0.73565 0.02062 0.0
H956 H 0.02641 0.61392 0.86408 0.0
H957 H 0.11243 0.61921 0.85357 0.0
H958 H 0.02202 0.60879 0.80898 0.0
H959 H 0.10655 0.6139 0.79869 0.0
H960 H 0.09983 0.58443 0.96403 0.0
H961 H 0.04398 0.63917 0.0056 0.0
H962 H 0.09055 0.55129 0.00434 0.0
H963 H 0.03568 0.60506 0.04522 0.0
H964 H 0.18323 0.6361 0.97416 0.0
H965 H 0.17011 0.56758 0.91624 0.0
H966 H 0.98428 0.57466 0.99105 0.0
H967 H 0.04308 0.52766 0.94223 0.0
Li968 Li 0.8564 0.0898 0.91715 0.0
Li969 Li 0.87189 0.04391 0.92305 0.0
Li970 Li 0.83288 0.05321 0.89016 0.0
Li971 Li 0.82967 0.05579 0.94535 0.0
C972 C 0.87458 0.07832 0.85828 0.0
N973 N 0.87992 0.10263 0.803 0.0
C974 C 0.89434 0.0695 0.83831 0.0
C975 C 0.85761 0.09954 0.85019 0.0
C976 C 0.89671 0.08205 0.81045 0.0
C977 C 0.8606 0.11157 0.82215 0.0
C978 C 0.88585 0.06955 0.97397 0.0
C979 C 0.90824 0.04865 0.01589 0.0
N980 N 0.92923 0.06599 0.01255 0.0
C981 C 0.90758 0.08728 0.97108 0.0
C982 C 0.88609 0.05018 0.99667 0.0
C983 C 0.92933 0.08513 0.99078 0.0
C984 C 0.85766 0.13826 0.94549 0.0
N985 N 0.86765 0.12618 0.92063 0.0
C986 C 0.89922 0.16206 0.91369 0.0
C987 C 0.88784 0.13763 0.9044 0.0
C988 C 0.89002 0.17422 0.94015 0.0
C989 C 0.86838 0.16248 0.95553 0.0
H990 H 0.84266 0.12807 0.9588 0.0
H991 H 0.89635 0.12706 0.88551 0.0
C992 C 0.90343 0.00199 0.94747 0.0
N993 N 0.90416 0.02498 0.93104 0.0
C994 C 0.92631 0.99358 0.96302 0.0
C995 C 0.95071 0.03134 0.94218 0.0
C996 C 0.92742 0.03888 0.92686 0.0
C997 C 0.94994 0.0092 0.96176 0.0
H998 H 0.88459 0.99147 0.95054 0.0
H999 H 0.92715 0.05743 0.91414 0.0
C1000 C 0.7997 0.10301 0.91512 0.0
N1001 N 0.76361 0.14546 0.91569 0.0
C1002 C 0.79113 0.11408 0.94226 0.0
C1003 C 0.78956 0.11334 0.88827 0.0
C1004 C 0.773 0.13558 0.94209 0.0
C1005 C 0.77143 0.13485 0.88903 0.0
C1006 C 0.82121 0.00424 0.93221 0.0
C1007 C 0.79958 0.99385 0.91585 0.0
C1008 C 0.82588 0.99506 0.96132 0.0
C1009 C 0.78271 0.97474 0.92908 0.0
C1010 C 0.80854 0.97595 0.97377 0.0
N1011 N 0.78748 0.96628 0.95753 0.0
C1012 C 0.82186 0.04006 0.82826 0.0
C1013 C 0.78462 0.04802 0.86022 0.0
C1014 C 0.80468 0.03778 0.80354 0.0
N1015 N 0.81158 0.04565 0.85577 0.0
C1016 C 0.76679 0.04601 0.83624 0.0
C1017 C 0.77679 0.0414 0.80733 0.0
H1018 H 0.84339 0.03815 0.82533 0.0
H1019 H 0.77701 0.05222 0.8824 0.0
C1020 C 0.81387 0.06577 0.00434 0.0
N1021 N 0.80601 0.05355 0.97854 0.0
C1022 C 0.79554 0.06947 0.02759 0.0
C1023 C 0.7618 0.04657 0.99797 0.0
C1024 C 0.78064 0.04378 0.97503 0.0
C1025 C 0.76905 0.06026 0.02424 0.0
H1026 H 0.83384 0.07423 0.00614 0.0
H1027 H 0.77463 0.03509 0.95389 0.0
O1028 O 0.87172 0.06585 0.88538 0.0
O1029 O 0.86452 0.07105 0.95459 0.0
O1030 O 0.81713 0.08159 0.91486 0.0
O1031 O 0.83791 0.02301 0.91963 0.0
H1032 H 0.90762 0.05305 0.84425 0.0
H1033 H 0.84256 0.10684 0.86556 0.0
H1034 H 0.91188 0.07539 0.79473 0.0
H1035 H 0.8476 0.12805 0.81563 0.0
H1036 H 0.90877 0.03362 0.03339 0.0
H1037 H 0.90788 0.1023 0.95358 0.0
H1038 H 0.86946 0.03632 0.99928 0.0
H1039 H 0.94636 0.09859 0.98866 0.0
H1040 H 0.91613 0.17037 0.90149 0.0
H1041 H 0.86066 0.17129 0.97597 0.0
H1042 H 0.92502 0.97599 0.97726 0.0
H1043 H 0.96833 0.04411 0.94065 0.0
H1044 H 0.7985 0.10631 0.96329 0.0
H1045 H 0.79544 0.10479 0.86701 0.0
H1046 H 0.76636 0.1444 0.96295 0.0
H1047 H 0.7635 0.14306 0.8684 0.0
H1048 H 0.7959 0.00039 0.89315 0.0
H1049 H 0.84247 0.0029 0.97434 0.0
H1050 H 0.76584 0.9666 0.9167 0.0
H1051 H 0.81178 0.96885 0.99637 0.0
H1052 H 0.8132 0.03437 0.78157 0.0
H1053 H 0.74542 0.04854 0.84021 0.0
H1054 H 0.80164 0.08043 0.04743 0.0
H1055 H 0.74132 0.03975 0.99442 0.0
Li1056 Li 0.43991 0.66388 0.60094 0.0
Li1057 Li 0.44088 0.67005 0.54697 0.0
Li1058 Li 0.40531 0.64023 0.57266 0.0
Li1059 Li 0.45357 0.62767 0.57047 0.0
C1060 C 0.39276 0.69845 0.58097 0.0
N1061 N 0.35399 0.73718 0.59181 0.0
C1062 C 0.39639 0.7248 0.57066 0.0
C1063 C 0.3692 0.69173 0.59638 0.0
C1064 C 0.37661 0.74411 0.57648 0.0
C1065 C 0.34991 0.71162 0.60178 0.0
C1066 C 0.48731 0.68591 0.57608 0.0
C1067 C 0.5302 0.70875 0.57614 0.0
N1068 N 0.51733 0.73265 0.58023 0.0
C1069 C 0.47453 0.71071 0.58028 0.0
C1070 C 0.51538 0.6849 0.574 0.0
C1071 C 0.49004 0.7341 0.58234 0.0
C1072 C 0.46938 0.68975 0.64892 0.0
N1073 N 0.44458 0.68364 0.63778 0.0
C1074 C 0.42347 0.71076 0.67515 0.0
C1075 C 0.42186 0.69299 0.65112 0.0
C1076 C 0.44876 0.71898 0.68581 0.0
C1077 C 0.47196 0.70758 0.67302 0.0
H1078 H 0.48721 0.68155 0.63849 0.0
H1079 H 0.40241 0.68697 0.64284 0.0
C1080 C 0.41956 0.6987 0.50035 0.0
N1081 N 0.44349 0.69376 0.514 0.0
C1082 C 0.41774 0.71809 0.47793 0.0
C1083 C 0.46556 0.72618 0.48308 0.0
C1084 C 0.4665 0.70634 0.50524 0.0
C1085 C 0.4408 0.73264 0.46964 0.0
H1086 H 0.40165 0.68827 0.50781 0.0
H1087 H 0.4854 0.70168 0.51604 0.0
C1088 C 0.42903 0.62347 0.63501 0.0
N1089 N 0.43105 0.62226 0.69671 0.0
C1090 C 0.45355 0.61919 0.64961 0.0
C1091 C 0.40551 0.62696 0.65171 0.0
C1092 C 0.45415 0.6187 0.68085 0.0
C1093 C 0.40696 0.62632 0.68291 0.0
C1094 C 0.43284 0.61561 0.51526 0.0
C1095 C 0.41809 0.59164 0.51446 0.0
C1096 C 0.45311 0.62013 0.49417 0.0
C1097 C 0.42421 0.57232 0.49277 0.0
C1098 C 0.45862 0.6003 0.47286 0.0
N1099 N 0.4442 0.57699 0.47263 0.0
C1100 C 0.35692 0.63915 0.54327 0.0
C1101 C 0.35975 0.60598 0.58138 0.0
C1102 C 0.33266 0.62844 0.5332 0.0
N1103 N 0.37006 0.62756 0.56657 0.0
C1104 C 0.3353 0.59467 0.57215 0.0
C1105 C 0.32192 0.60554 0.54723 0.0
H1106 H 0.36593 0.65606 0.53175 0.0
H1107 H 0.37105 0.59685 0.59942 0.0
C1108 C 0.4965 0.59825 0.54513 0.0
N1109 N 0.47393 0.59651 0.56217 0.0
C1110 C 0.50598 0.57553 0.53 0.0
C1111 C 0.46982 0.54956 0.55197 0.0
C1112 C 0.4612 0.57268 0.56683 0.0
C1113 C 0.49182 0.55104 0.53224 0.0
H1114 H 0.50573 0.61768 0.54125 0.0
H1115 H 0.44279 0.57221 0.57977 0.0
O1116 O 0.41162 0.67909 0.57492 0.0
O1117 O 0.47266 0.66264 0.57391 0.0
O1118 O 0.42817 0.62469 0.6045 0.0
O1119 O 0.4277 0.63442 0.53684 0.0
H1120 H 0.41421 0.7303 0.55815 0.0
H1121 H 0.36597 0.67141 0.60438 0.0
H1122 H 0.37921 0.76458 0.56871 0.0
H1123 H 0.33169 0.70673 0.61387 0.0
H1124 H 0.55193 0.70825 0.57455 0.0
H1125 H 0.45292 0.71187 0.58218 0.0
H1126 H 0.52558 0.66585 0.57073 0.0
H1127 H 0.48039 0.75341 0.58565 0.0
H1128 H 0.40503 0.71829 0.68502 0.0
H1129 H 0.49186 0.71318 0.68075 0.0
H1130 H 0.39821 0.72271 0.46843 0.0
H1131 H 0.4838 0.73688 0.47712 0.0
H1132 H 0.47193 0.61656 0.63691 0.0
H1133 H 0.38642 0.63047 0.64068 0.0
H1134 H 0.473 0.61557 0.69249 0.0
H1135 H 0.38896 0.62915 0.69616 0.0
H1136 H 0.40234 0.58787 0.53067 0.0
H1137 H 0.46471 0.6386 0.49457 0.0
H1138 H 0.41314 0.55356 0.49204 0.0
H1139 H 0.47444 0.60338 0.45658 0.0
H1140 H 0.32276 0.63751 0.51409 0.0
H1141 H 0.32768 0.57688 0.58333 0.0
H1142 H 0.5233 0.5775 0.51547 0.0
H1143 H 0.458 0.53133 0.55414 0.0
Li1144 Li 0.85979 0.40043 0.5964 0.0
Li1145 Li 0.87338 0.44448 0.57971 0.0
Li1146 Li 0.83674 0.43871 0.61507 0.0
Li1147 Li 0.82945 0.42762 0.56308 0.0
C1148 C 0.89156 0.41592 0.64036 0.0
N1149 N 0.92407 0.38685 0.67882 0.0
C1150 C 0.91919 0.42118 0.64176 0.0
C1151 C 0.88041 0.39627 0.65899 0.0
C1152 C 0.93531 0.40617 0.66123 0.0
C1153 C 0.89718 0.38166 0.67813 0.0
C1154 C 0.87709 0.41593 0.52773 0.0
C1155 C 0.88206 0.44058 0.48157 0.0
N1156 N 0.9024 0.42377 0.4734 0.0
C1157 C 0.89799 0.39885 0.51887 0.0
C1158 C 0.86898 0.43693 0.50893 0.0
C1159 C 0.91054 0.40316 0.49131 0.0
C1160 C 0.85488 0.34433 0.60137 0.0
N1161 N 0.87287 0.3649 0.60001 0.0
C1162 C 0.90836 0.33473 0.58695 0.0
C1163 C 0.89937 0.36054 0.59417 0.0
C1164 C 0.88975 0.31347 0.58541 0.0
C1165 C 0.863 0.3182 0.59428 0.0
H1166 H 0.83384 0.34856 0.60547 0.0
H1167 H 0.913 0.37747 0.59248 0.0
C1168 C 0.90277 0.48526 0.54803 0.0
N1169 N 0.90432 0.462 0.564 0.0
C1170 C 0.92467 0.49368 0.53073 0.0
C1171 C 0.94939 0.45448 0.54734 0.0
C1172 C 0.92707 0.4468 0.56419 0.0
C1173 C 0.94817 0.47788 0.52978 0.0
H1174 H 0.88409 0.49641 0.54727 0.0
H1175 H 0.92719 0.42768 0.57575 0.0
C1176 C 0.79678 0.40253 0.61363 0.0
N1177 N 0.74911 0.39854 0.64524 0.0
C1178 C 0.773 0.41325 0.60183 0.0
C1179 C 0.7962 0.38939 0.64128 0.0
C1180 C 0.74912 0.41109 0.61819 0.0
C1181 C 0.77195 0.38774 0.657 0.0
C1182 C 0.84054 0.48973 0.58917 0.0
C1183 C 0.86059 0.49636 0.6099 0.0
C1184 C 0.82327 0.5098 0.57856 0.0
C1185 C 0.86306 0.52301 0.61954 0.0
C1186 C 0.82639 0.53622 0.58877 0.0
N1187 N 0.84606 0.54222 0.60887 0.0
C1188 C 0.82535 0.44699 0.67697 0.0
C1189 C 0.79309 0.46412 0.64279 0.0
C1190 C 0.80798 0.45188 0.70096 0.0
N1191 N 0.81728 0.45238 0.64854 0.0
C1192 C 0.7749 0.46883 0.66599 0.0
C1193 C 0.78205 0.462 0.69538 0.0
H1194 H 0.84465 0.4376 0.68091 0.0
H1195 H 0.78722 0.46815 0.61992 0.0
C1196 C 0.80102 0.39979 0.51935 0.0
N1197 N 0.80499 0.42476 0.53094 0.0
C1198 C 0.78176 0.39574 0.49708 0.0
C1199 C 0.77161 0.44339 0.49857 0.0
C1200 C 0.79111 0.4465 0.52083 0.0
C1201 C 0.76642 0.41764 0.48675 0.0
H1202 H 0.81237 0.38291 0.52804 0.0
H1203 H 0.79478 0.46611 0.53052 0.0
O1204 O 0.87548 0.43035 0.62132 0.0
O1205 O 0.86529 0.4127 0.55514 0.0
O1206 O 0.82048 0.40499 0.59823 0.0
O1207 O 0.83747 0.46375 0.57949 0.0
H1208 H 0.92808 0.43687 0.6282 0.0
H1209 H 0.85906 0.39214 0.65841 0.0
H1210 H 0.95674 0.40996 0.66243 0.0
H1211 H 0.88882 0.36621 0.69244 0.0
H1212 H 0.87615 0.45687 0.46691 0.0
H1213 H 0.9046 0.3826 0.53322 0.0
H1214 H 0.85315 0.45061 0.51568 0.0
H1215 H 0.92682 0.39017 0.48421 0.0
H1216 H 0.92905 0.33204 0.57987 0.0
H1217 H 0.8481 0.30227 0.59351 0.0
H1218 H 0.92293 0.51191 0.51756 0.0
H1219 H 0.96682 0.44138 0.54675 0.0
H1220 H 0.77302 0.42352 0.58051 0.0
H1221 H 0.81429 0.38067 0.6506 0.0
H1222 H 0.73064 0.41952 0.60946 0.0
H1223 H 0.77127 0.37786 0.67856 0.0
H1224 H 0.87419 0.48122 0.61842 0.0
H1225 H 0.80757 0.50501 0.56264 0.0
H1226 H 0.87851 0.52842 0.63552 0.0
H1227 H 0.81316 0.55194 0.58072 0.0
H1228 H 0.81408 0.44621 0.72336 0.0
H1229 H 0.75508 0.47673 0.66091 0.0
H1230 H 0.77817 0.37551 0.48897 0.0
H1231 H 0.76041 0.46084 0.49105 0.0
Li1232 Li 0.0951 0.86169 0.58928 0.0
Li1233 Li 0.04809 0.8723 0.58504 0.0
Li1234 Li 0.06453 0.83758 0.62119 0.0
Li1235 Li 0.06465 0.82861 0.56578 0.0
C1236 C 0.08637 0.89268 0.64009 0.0
N1237 N 0.11607 0.92396 0.67923 0.0
C1238 C 0.09002 0.92017 0.63449 0.0
C1239 C 0.09766 0.88119 0.66574 0.0
C1240 C 0.10512 0.93562 0.65453 0.0
C1241 C 0.11268 0.8973 0.68519 0.0
C1242 C 0.075 0.885 0.53259 0.0
C1243 C 0.06746 0.90199 0.48277 0.0
N1244 N 0.07558 0.92685 0.49189 0.0
C1245 C 0.08346 0.91064 0.54143 0.0
C1246 C 0.06705 0.88055 0.50302 0.0
C1247 C 0.08354 0.93156 0.52053 0.0
C1248 C 0.13857 0.86862 0.55345 0.0
N1249 N 0.1302 0.87602 0.58117 0.0
C1250 C 0.16961 0.90313 0.58777 0.0
C1251 C 0.14553 0.89232 0.59878 0.0
C1252 C 0.17788 0.89687 0.55852 0.0
C1253 C 0.16237 0.87878 0.54166 0.0
H1254 H 0.12637 0.8551 0.5402 0.0
H1255 H 0.13916 0.89723 0.62114 0.0
C1256 C 0.02562 0.92517 0.58617 0.0
N1257 N 0.02468 0.90054 0.57298 0.0
C1258 C 0.01611 0.94783 0.57088 0.0
C1259 C 0.00305 0.91892 0.52986 0.0
C1260 C 0.01259 0.89686 0.54602 0.0
C1261 C 0.00569 0.94501 0.54176 0.0
H1262 H 0.03525 0.9275 0.60767 0.0
H1263 H 0.01264 0.87708 0.53586 0.0
C1264 C 0.12001 0.81476 0.59718 0.0
N1265 N 0.17402 0.80127 0.59921 0.0
C1266 C 0.13047 0.79569 0.57733 0.0
C1267 C 0.13696 0.82649 0.61851 0.0
C1268 C 0.15784 0.78925 0.5786 0.0
C1269 C 0.16422 0.81957 0.61904 0.0
C1270 C 0.01851 0.81236 0.59773 0.0
C1271 C 0.03219 0.78814 0.60279 0.0
C1272 C 0.99039 0.81283 0.59872 0.0
C1273 C 0.01744 0.76478 0.60871 0.0
C1274 C 0.97637 0.78902 0.60467 0.0
N1275 N 0.99007 0.7657 0.60951 0.0
C1276 C 0.03523 0.81733 0.67239 0.0
C1277 C 0.08078 0.80384 0.66781 0.0
C1278 C 0.03162 0.7998 0.69668 0.0
N1279 N 0.05948 0.81869 0.65826 0.0
C1280 C 0.07815 0.78633 0.69195 0.0
C1281 C 0.05318 0.78358 0.70635 0.0
H1282 H 0.01843 0.82901 0.66408 0.0
H1283 H 0.09972 0.80497 0.65618 0.0
C1284 C 0.08425 0.8022 0.51592 0.0
N1285 N 0.06194 0.80397 0.53338 0.0
C1286 C 0.08575 0.78301 0.49323 0.0
C1287 C 0.04031 0.76928 0.50519 0.0
C1288 C 0.03974 0.78875 0.52772 0.0
C1289 C 0.06385 0.76568 0.48818 0.0
H1290 H 0.10132 0.81511 0.52039 0.0
H1291 H 0.02175 0.79126 0.54096 0.0
O1292 O 0.07107 0.87733 0.62115 0.0
O1293 O 0.07382 0.86445 0.55294 0.0
O1294 O 0.09327 0.82156 0.59602 0.0
O1295 O 0.03245 0.83566 0.59249 0.0
H1296 H 0.08161 0.92948 0.61475 0.0
H1297 H 0.09485 0.86007 0.67064 0.0
H1298 H 0.10822 0.95686 0.65038 0.0
H1299 H 0.12159 0.88863 0.70506 0.0
H1300 H 0.06122 0.8989 0.45984 0.0
H1301 H 0.08962 0.91439 0.56424 0.0
H1302 H 0.06037 0.86081 0.4959 0.0
H1303 H 0.08984 0.95156 0.52711 0.0
H1304 H 0.18116 0.9168 0.60162 0.0
H1305 H 0.1684 0.87271 0.51938 0.0
H1306 H 0.01791 0.96745 0.58128 0.0
H1307 H 0.99545 0.91566 0.50745 0.0
H1308 H 0.11758 0.78569 0.56136 0.0
H1309 H 0.12921 0.8411 0.63423 0.0
H1310 H 0.16619 0.7746 0.56328 0.0
H1311 H 0.17757 0.82877 0.6352 0.0
H1312 H 0.05393 0.78733 0.60215 0.0
H1313 H 0.97952 0.83144 0.59499 0.0
H1314 H 0.02776 0.74593 0.61268 0.0
H1315 H 0.9546 0.78909 0.6055 0.0
H1316 H 0.01196 0.79826 0.70701 0.0
H1317 H 0.09553 0.77476 0.69898 0.0
H1318 H 0.10436 0.78093 0.48083 0.0
H1319 H 0.02273 0.75678 0.50156 0.0
Li1320 Li 0.66877 0.07145 0.5589 0.0
Li1321 Li 0.66253 0.06736 0.61311 0.0
Li1322 Li 0.62607 0.05571 0.57875 0.0
Li1323 Li 0.6395 0.10275 0.58709 0.0
C1324 C 0.679 0.01969 0.57051 0.0
N1325 N 0.715 0.98379 0.54534 0.0
C1326 C 0.70163 0.01127 0.58661 0.0
C1327 C 0.6747 0.00985 0.5416 0.0
C1328 C 0.71957 0.99308 0.57351 0.0
C1329 C 0.69314 0.99174 0.52926 0.0
C1330 C 0.68915 0.12294 0.59021 0.0
C1331 C 0.69216 0.1675 0.61158 0.0
N1332 N 0.70825 0.17524 0.58852 0.0
C1333 C 0.70585 0.13134 0.56682 0.0
C1334 C 0.68237 0.14114 0.61289 0.0
C1335 C 0.71525 0.15786 0.56634 0.0
C1336 C 0.68493 0.08395 0.50059 0.0
N1337 N 0.69283 0.07077 0.52579 0.0
C1338 C 0.73612 0.06213 0.50463 0.0
C1339 C 0.71793 0.06007 0.52829 0.0
C1340 C 0.72864 0.07608 0.4786 0.0
C1341 C 0.70265 0.08693 0.4766 0.0
H1342 H 0.66523 0.09313 0.49955 0.0
H1343 H 0.72419 0.05081 0.54901 0.0
C1344 C 0.68053 0.03432 0.66247 0.0
N1345 N 0.68057 0.0593 0.6499 0.0
C1346 C 0.69498 0.02949 0.68887 0.0
C1347 C 0.70841 0.07628 0.68919 0.0
C1348 C 0.69413 0.08007 0.66273 0.0
C1349 C 0.70909 0.05073 0.70252 0.0
H1350 H 0.66953 0.01813 0.65183 0.0
H1351 H 0.69404 0.09961 0.65229 0.0
C1352 C 0.61264 0.08244 0.52857 0.0
N1353 N 0.57039 0.07712 0.48873 0.0
C1354 C 0.5896 0.09839 0.53166 0.0
C1355 C 0.61427 0.06395 0.50505 0.0
C1356 C 0.56844 0.09537 0.51132 0.0
C1357 C 0.59266 0.06151 0.4852 0.0
C1358 C 0.61952 0.07191 0.64525 0.0
C1359 C 0.61117 0.04617 0.65381 0.0
C1360 C 0.6249 0.09136 0.66705 0.0
C1361 C 0.60852 0.04022 0.68422 0.0
C1362 C 0.62206 0.0846 0.69722 0.0
N1363 N 0.61401 0.05938 0.70511 0.0
C1364 C 0.59613 0.0136 0.55101 0.0
C1365 C 0.57099 0.04811 0.57476 0.0
C1366 C 0.57315 0.00463 0.53598 0.0
N1367 N 0.59479 0.03566 0.56892 0.0
C1368 C 0.54757 0.03988 0.56017 0.0
C1369 C 0.54874 0.01862 0.5395 0.0
H1370 H 0.61533 0.00424 0.54657 0.0
H1371 H 0.57067 0.06586 0.58878 0.0
C1372 C 0.63539 0.15391 0.56322 0.0
N1373 N 0.62555 0.13812 0.58548 0.0
C1374 C 0.62402 0.17897 0.55755 0.0
C1375 C 0.59176 0.17077 0.5971 0.0
C1376 C 0.60432 0.14602 0.6026 0.0
C1377 C 0.60165 0.18739 0.57421 0.0
H1378 H 0.65147 0.14656 0.54911 0.0
H1379 H 0.59641 0.1326 0.61951 0.0
O1380 O 0.66113 0.03739 0.58303 0.0
O1381 O 0.67963 0.09705 0.59097 0.0
O1382 O 0.63331 0.0846 0.5487 0.0
O1383 O 0.62303 0.07785 0.61568 0.0
H1384 H 0.70547 0.01884 0.60887 0.0
H1385 H 0.65761 0.01649 0.52859 0.0
H1386 H 0.73719 0.98644 0.58569 0.0
H1387 H 0.69014 0.9841 0.50684 0.0
H1388 H 0.68686 0.18183 0.62883 0.0
H1389 H 0.71153 0.11758 0.54919 0.0
H1390 H 0.66919 0.13516 0.63098 0.0
H1391 H 0.72812 0.16462 0.54832 0.0
H1392 H 0.75629 0.05413 0.50725 0.0
H1393 H 0.69635 0.09812 0.45701 0.0
H1394 H 0.69496 0.00951 0.69861 0.0
H1395 H 0.71928 0.0931 0.69882 0.0
H1396 H 0.58787 0.11267 0.54981 0.0
H1397 H 0.63192 0.05142 0.50234 0.0
H1398 H 0.55042 0.10743 0.51359 0.0
H1399 H 0.59357 0.04713 0.46705 0.0
H1400 H 0.60705 0.03089 0.63714 0.0
H1401 H 0.63149 0.11134 0.66071 0.0
H1402 H 0.6022 0.02034 0.69122 0.0
H1403 H 0.62632 0.09937 0.71437 0.0
H1404 H 0.57497 0.98821 0.52017 0.0
H1405 H 0.52905 0.05093 0.56386 0.0
H1406 H 0.63168 0.19102 0.53922 0.0
H1407 H 0.57424 0.17658 0.60999 0.0
C1408 C 0.58002 0.24917 0.95155 0.0
C1409 C 0.56749 0.25052 0.97975 0.0
H1410 H 0.59919 0.27121 0.91608 0.0
C1411 C 0.56227 0.27586 0.99244 0.0
H1412 H 0.58413 0.22988 0.94121 0.0
C1413 C 0.57098 0.29928 0.97822 0.0
C1414 C 0.58482 0.29784 0.95091 0.0
H1415 H 0.55294 0.27756 0.01426 0.0
H1416 H 0.56789 0.3185 0.98917 0.0
C1417 C 0.58847 0.27273 0.93711 0.0
C1418 C 0.22354 0.57448 0.94399 0.0
C1419 C 0.20299 0.58636 0.96107 0.0
H1420 H 0.26192 0.55452 0.94457 0.0
C1421 C 0.20461 0.5855 0.99241 0.0
H1422 H 0.22267 0.57486 0.91978 0.0
C1423 C 0.22671 0.57379 0.00647 0.0
C1424 C 0.2478 0.5627 0.98954 0.0
H1425 H 0.18884 0.59417 0.00611 0.0
H1426 H 0.22774 0.57435 0.03067 0.0
C1427 C 0.24593 0.56293 0.95813 0.0
C1428 C 0.91068 0.19695 0.98417 0.0
C1429 C 0.90427 0.19745 0.95358 0.0
H1430 H 0.92608 0.21844 0.02174 0.0
C1431 C 0.91093 0.22032 0.9366 0.0
H1432 H 0.9062 0.17941 0.9977 0.0
C1433 C 0.92268 0.24278 0.9504 0.0
C1434 C 0.92828 0.24252 0.98128 0.0
H1435 H 0.90625 0.22114 0.91295 0.0
H1436 H 0.92701 0.26047 0.93707 0.0
C1437 C 0.92248 0.21919 0.99785 0.0
C1438 C 0.29306 0.90961 0.98115 0.0
C1439 C 0.29276 0.91038 0.94977 0.0
H1440 H 0.27205 0.91801 0.02165 0.0
C1441 C 0.27087 0.92238 0.93499 0.0
H1442 H 0.30991 0.90086 0.99312 0.0
C1443 C 0.24911 0.93252 0.95145 0.0
C1444 C 0.2492 0.93113 0.98288 0.0
H1445 H 0.27026 0.92324 0.91079 0.0
H1446 H 0.23216 0.94122 0.93964 0.0
C1447 C 0.27153 0.9198 0.99751 0.0
C1448 C 0.54997 0.23189 0.53786 0.0
C1449 C 0.56502 0.2555 0.53325 0.0
H1450 H 0.54981 0.19169 0.55548 0.0
C1451 C 0.5905 0.25794 0.54669 0.0
H1452 H 0.53026 0.22958 0.52777 0.0
C1453 C 0.60168 0.2363 0.56224 0.0
C1454 C 0.58741 0.21206 0.565 0.0
H1455 H 0.60267 0.27579 0.54324 0.0
H1456 H 0.62212 0.23792 0.57056 0.0
C1457 C 0.56103 0.21036 0.55384 0.0
C1458 C 0.29682 0.58733 0.50343 0.0
C1459 C 0.29794 0.59218 0.53434 0.0
H1460 H 0.27336 0.57355 0.46648 0.0
C1461 C 0.27593 0.58483 0.55232 0.0
H1462 H 0.31365 0.59249 0.48912 0.0
C1463 C 0.25273 0.57385 0.53931 0.0
C1464 C 0.25142 0.56964 0.50823 0.0
H1465 H 0.27636 0.58837 0.57623 0.0
H1466 H 0.2357 0.56898 0.55345 0.0
C1467 C 0.27387 0.57615 0.49053 0.0
C1468 C 0.87984 0.27913 0.54638 0.0
C1469 C 0.89693 0.28844 0.56921 0.0
H1470 H 0.87485 0.2524 0.50928 0.0
C1471 C 0.922 0.27577 0.57347 0.0
H1472 H 0.86062 0.28873 0.54214 0.0
C1473 C 0.93014 0.25482 0.55451 0.0
C1474 C 0.91352 0.24668 0.53076 0.0
H1475 H 0.93556 0.28258 0.59089 0.0
H1476 H 0.94983 0.24583 0.55756 0.0
C1477 C 0.88809 0.25857 0.5273 0.0
C1478 C 0.2014 0.91773 0.51496 0.0
C1479 C 0.20209 0.90939 0.54498 0.0
H1480 H 0.22339 0.93231 0.47743 0.0
C1481 C 0.22619 0.91214 0.56119 0.0
H1482 H 0.183 0.91636 0.50201 0.0
C1483 C 0.24943 0.92194 0.54718 0.0
C1484 C 0.24894 0.92922 0.51675 0.0
H1485 H 0.22734 0.90586 0.58436 0.0
H1486 H 0.26787 0.92338 0.56003 0.0
C1487 C 0.22452 0.92734 0.50099 0.0
C1488 C 0.43161 0.71828 0.01865 0.0
C1489 C 0.41854 0.74291 0.0238 0.0
H1490 H 0.43536 0.67693 0.0308 0.0
C1491 C 0.40091 0.74517 0.04829 0.0
H1492 H 0.44501 0.7158 0.99974 0.0
C1493 C 0.39547 0.72285 0.06637 0.0
C1494 C 0.40748 0.69781 0.06024 0.0
H1495 H 0.39086 0.76405 0.05304 0.0
H1496 H 0.38136 0.72503 0.08467 0.0
C1497 C 0.4261 0.69598 0.03659 0.0
C1498 C 0.75745 0.40723 0.05999 0.0
C1499 C 0.76019 0.42279 0.03386 0.0
H1500 H 0.7774 0.38837 0.09701 0.0
C1501 C 0.78569 0.43292 0.02632 0.0
H1502 H 0.73797 0.39946 0.06662 0.0
C1503 C 0.80817 0.42656 0.04359 0.0
C1504 C 0.80576 0.40997 0.06897 0.0
H1505 H 0.7886 0.44458 0.0061 0.0
H1506 H 0.82769 0.43346 0.03596 0.0
C1507 C 0.78002 0.40091 0.0774 0.0
C1508 C 0.08949 0.75424 0.06916 0.0
C1509 C 0.072 0.75561 0.04449 0.0
H1510 H 0.10979 0.77583 0.10395 0.0
C1511 C 0.06003 0.78035 0.03722 0.0
H1512 H 0.09879 0.73531 0.0754 0.0
C1513 C 0.06663 0.80359 0.05316 0.0
C1514 C 0.08514 0.80261 0.07703 0.0
H1515 H 0.04678 0.78208 0.01806 0.0
H1516 H 0.05834 0.82256 0.04554 0.0
C1517 C 0.09586 0.77747 0.0854 0.0
C1518 C 0.72099 0.10386 0.06761 0.0
C1519 C 0.70211 0.08486 0.0779 0.0
H1520 H 0.75719 0.11073 0.04279 0.0
C1521 C 0.7077 0.05725 0.07391 0.0
H1522 H 0.71735 0.12527 0.0698 0.0
C1523 C 0.73026 0.04902 0.05763 0.0
C1524 C 0.74805 0.06818 0.04585 0.0
H1525 H 0.69404 0.04199 0.0822 0.0
H1526 H 0.73333 0.02775 0.05339 0.0
C1527 C 0.74382 0.09557 0.05193 0.0
C1528 C 0.42176 0.75564 0.42431 0.0
C1529 C 0.43808 0.75649 0.44998 0.0
H1530 H 0.40193 0.77812 0.3899 0.0
C1531 C 0.44901 0.78123 0.45907 0.0
H1532 H 0.41332 0.73673 0.41665 0.0
C1533 C 0.44217 0.80493 0.44415 0.0
C1534 C 0.42444 0.80444 0.41955 0.0
H1535 H 0.46135 0.78256 0.47901 0.0
H1536 H 0.44942 0.82378 0.45329 0.0
C1537 C 0.41515 0.77936 0.40912 0.0
C1538 C 0.746 0.39469 0.44195 0.0
C1539 C 0.74373 0.41315 0.46569 0.0
H1540 H 0.72577 0.37351 0.40671 0.0
C1541 C 0.71884 0.42581 0.47071 0.0
H1542 H 0.76501 0.38486 0.43728 0.0
C1543 C 0.69647 0.41934 0.45327 0.0
C1544 C 0.6984 0.40007 0.4303 0.0
H1545 H 0.71625 0.43977 0.48911 0.0
H1546 H 0.67733 0.42848 0.45889 0.0
C1547 C 0.72356 0.38821 0.42443 0.0
C1548 C 0.06323 0.69415 0.45935 0.0
C1549 C 0.07902 0.69619 0.43334 0.0
H1550 H 0.04625 0.71434 0.49701 0.0
C1551 C 0.08736 0.72184 0.42374 0.0
H1552 H 0.05686 0.6747 0.46776 0.0
C1553 C 0.08124 0.74473 0.44066 0.0
C1554 C 0.06669 0.74242 0.46754 0.0
H1555 H 0.09925 0.72412 0.40359 0.0
H1556 H 0.08853 0.76414 0.43314 0.0
C1557 C 0.05712 0.71696 0.47621 0.0
C1558 C 0.76531 0.06105 0.4441 0.0
C1559 C 0.74895 0.08174 0.45529 0.0
H1560 H 0.80027 0.05078 0.41863 0.0
C1561 C 0.75405 0.10844 0.44664 0.0
H1562 H 0.76151 0.04026 0.45018 0.0
C1563 C 0.7765 0.11459 0.42914 0.0
C1564 C 0.79413 0.09409 0.41966 0.0
H1565 H 0.74179 0.12477 0.45517 0.0
H1566 H 0.78104 0.13559 0.42498 0.0
C1567 C 0.78751 0.06713 0.42614 0.0
C1568 C 0.5138 0.98701 0.97249 0.0
C1569 C 0.49152 0.97071 0.97914 0.0
H1570 H 0.53746 0.02125 0.98525 0.0
C1571 C 0.47494 0.97749 0.00351 0.0
H1572 H 0.52684 0.98222 0.95381 0.0
C1573 C 0.48081 -0.0001 0.02127 0.0
C1574 C 0.50358 0.01568 0.01522 0.0
H1575 H 0.4574 0.96542 0.00884 0.0
H1576 H 0.46796 0.00447 0.04019 0.0
C1577 C 0.51991 0.00919 0.99053 0.0
C1578 C 0.49061 0.49145 0.00597 0.0
C1579 C 0.49324 0.50816 0.03122 0.0
H1580 H 0.50951 0.47363 0.96803 0.0
C1581 C 0.51816 0.52094 0.03622 0.0
H1582 H 0.47169 0.48167 0.0008 0.0
C1583 C 0.53959 0.51746 0.01636 0.0
C1584 C 0.53706 0.50049 0.99131 0.0
H1585 H 0.52128 0.53368 0.05556 0.0
H1586 H 0.55813 0.52822 0.02075 0.0
C1587 C 0.51226 0.4874 0.98655 0.0
C1588 C 0.00364 0.52764 0.01977 0.0
C1589 C 0.00728 0.52413 0.98878 0.0
H1590 H 0.99718 0.50878 0.0623 0.0
C1591 C 0.0072 0.49783 0.9771 0.0
H1592 H 0.00423 0.54754 0.02968 0.0
C1593 C 0.00363 0.47562 0.99591 0.0
C1594 C -7e-05 0.47919 0.02683 0.0
H1595 H 0.00966 0.49438 0.95334 0.0
H1596 H 0.00319 0.45565 0.98616 0.0
C1597 C -0.00013 0.50544 0.03854 0.0
C1598 C 0.02025 0.00495 0.99506 0.0
C1599 C 0.01465 0.99745 0.02473 0.0
H1600 H 0.00434 0.01367 0.9516 0.0
C1601 C 0.98778 0.99353 0.03341 0.0
H1602 H 0.04084 0.00758 0.98761 0.0
C1603 C 0.9669 0.99704 0.01287 0.0
C1604 C 0.97242 0.00429 0.98305 0.0
H1605 H 0.98291 0.98789 0.05619 0.0
H1606 H 0.94638 0.99451 0.02056 0.0
C1607 C -0.00064 0.00827 0.97441 0.0
C1608 C 0.50558 0.53263 0.48212 0.0
C1609 C 0.49812 0.52803 0.51208 0.0
H1610 H 0.51569 0.51518 0.43969 0.0
C1611 C 0.49511 0.50131 0.52199 0.0
H1612 H 0.50745 0.55291 0.47344 0.0
C1613 C 0.49918 0.47978 0.50239 0.0
C1614 C 0.50664 0.48445 0.47254 0.0
H1615 H 0.48973 0.49696 0.54496 0.0
H1616 H 0.49701 0.45941 0.51077 0.0
C1617 C 0.51 0.51106 0.46263 0.0
C1618 C 0.98653 0.49862 0.46007 0.0
C1619 C 0.01342 0.49558 0.4693 0.0
H1620 H 0.94487 0.49524 0.47183 0.0
C1621 C 0.01868 0.48698 0.49869 0.0
H1622 H 0.98183 0.50506 0.43751 0.0
C1623 C 0.99754 0.48155 0.5184 0.0
C1624 C 0.97065 0.48465 0.5092 0.0
H1625 H 0.03917 0.48505 0.50673 0.0
H1626 H 0.00227 0.47525 0.541 0.0
C1627 C 0.96537 0.49319 0.47979 0.0
C1628 C 0.97761 0.96863 0.50293 0.0
C1629 C -0.00068 0.96905 0.5231 0.0
H1630 H 0.95546 0.98956 0.46922 0.0
C1631 C 0.01563 0.99224 0.52434 0.0
H1632 H 0.96453 0.95122 0.50139 0.0
C1633 C 0.0101 0.01455 0.5062 0.0
C1634 C 0.98822 0.01418 0.48625 0.0
H1635 H 0.0329 0.9931 0.53911 0.0
H1636 H 0.02268 0.03227 0.50829 0.0
C1637 C 0.97224 0.99079 0.48464 0.0
C1638 C 0.5109 0.03393 0.50646 0.0
C1639 C 0.52546 0.01273 0.51972 0.0
H1640 H 0.4794 0.04533 0.47626 0.0
C1641 C 0.51847 0.98607 0.51269 0.0
H1642 H 0.51612 0.05472 0.51098 0.0
C1643 C 0.49748 0.98072 0.49275 0.0
C1644 C 0.48312 0.00191 0.47921 0.0
H1645 H 0.52913 0.96933 0.52276 0.0
H1646 H 0.49229 0.95992 0.48821 0.0
C1647 C 0.48994 0.02858 0.48645 0.0
C1648 C 0.50559 0.24847 0.26612 0.0
C1649 C 0.52881 0.26367 0.27233 0.0
H1650 H 0.4879 0.21725 0.23912 0.0
C1651 C 0.55246 0.25868 0.25604 0.0
H1652 H 0.48717 0.25196 0.2785 0.0
C1653 C 0.55305 0.23853 0.23427 0.0
C1654 C 0.52986 0.22339 0.22798 0.0
H1655 H 0.57068 0.26995 0.26068 0.0
H1656 H 0.5716 0.23483 0.22219 0.0
C1657 C 0.506 0.2287 0.24375 0.0
C1658 C 0.24479 0.55826 0.26392 0.0
C1659 C 0.23084 0.53465 0.27165 0.0
H1660 H 0.27612 0.57601 0.23759 0.0
C1661 C 0.2385 0.51012 0.25848 0.0
H1662 H 0.23949 0.57738 0.27401 0.0
C1663 C 0.2594 0.50935 0.23747 0.0
C1664 C 0.27335 0.53301 0.22981 0.0
H1665 H 0.22805 0.49164 0.26411 0.0
H1666 H 0.26474 0.49029 0.22729 0.0
C1667 C 0.26593 0.55742 0.24337 0.0
C1668 C 0.96555 0.23616 0.22184 0.0
C1669 C 0.97722 0.26184 0.22472 0.0
H1670 H 0.95511 0.1991 0.24327 0.0
C1671 C 0.98973 0.26871 0.25186 0.0
H1672 H 0.95544 0.23036 0.20136 0.0
C1673 C 0.98984 0.25061 0.27587 0.0
C1674 C 0.97717 0.22531 0.27345 0.0
H1675 H 0.99922 0.28819 0.25463 0.0
H1676 H -0.00048 0.25665 0.29652 0.0
C1677 C 0.96545 0.21815 0.24591 0.0
C1678 C 0.27691 0.95955 0.24731 0.0
C1679 C 0.27272 0.97501 0.27328 0.0
H1680 H 0.26155 0.94681 0.20492 0.0
C1681 C 0.24911 0.99067 0.27529 0.0
H1682 H 0.29443 0.94672 0.24512 0.0
C1683 C 0.22994 0.9903 0.25231 0.0
C1684 C 0.23414 0.97459 0.22662 0.0
H1685 H 0.24533 0.00316 0.29469 0.0
H1686 H 0.21186 0.00234 0.25458 0.0
C1687 C 0.25795 0.95946 0.22425 0.0
C1688 C 0.43303 0.78116 0.73155 0.0
C1689 C 0.44996 0.77797 0.75647 0.0
H1690 H 0.41973 0.76532 0.68965 0.0
C1691 C 0.46822 0.75631 0.75694 0.0
H1692 H 0.4191 0.79792 0.73029 0.0
C1693 C 0.46851 0.73745 0.7336 0.0
C1694 C 0.45052 0.73995 0.70945 0.0
H1695 H 0.48138 0.75324 0.77597 0.0
H1696 H 0.482 0.72036 0.73507 0.0
C1697 C 0.43332 0.76241 0.70834 0.0
C1698 C 0.76714 0.47515 0.74699 0.0
C1699 C 0.76168 0.46254 0.71952 0.0
H1700 H 0.75349 0.48274 0.79179 0.0
C1701 C 0.73728 0.44861 0.71581 0.0
H1702 H 0.78586 0.48594 0.75034 0.0
C1703 C 0.7191 0.4464 0.73953 0.0
C1704 C 0.72476 0.45857 0.76715 0.0
H1705 H 0.73277 0.43847 0.69493 0.0
H1706 H 0.70085 0.43475 0.7365 0.0
C1707 C 0.74864 0.47344 0.77054 0.0
C1708 C 0.06293 0.73826 0.72873 0.0
C1709 C 0.04995 0.76339 0.73076 0.0
H1710 H 0.07292 0.70117 0.75049 0.0
C1711 C 0.03499 0.76929 0.75666 0.0
H1712 H 0.07399 0.73268 0.7088 0.0
C1713 C 0.03414 0.75097 0.78051 0.0
C1714 C 0.04831 0.72647 0.77894 0.0
H1715 H 0.02483 0.78847 0.75901 0.0
H1716 H 0.02337 0.75647 0.80067 0.0
C1717 C 0.06223 0.7201 0.75256 0.0
C1718 C 0.72255 0.06513 0.75394 0.0
C1719 C 0.72487 0.04664 0.73031 0.0
H1720 H 0.73716 0.07797 0.79658 0.0
C1721 C 0.74361 0.02552 0.73267 0.0
H1722 H 0.70819 0.08153 0.75276 0.0
C1723 C 0.76036 0.02352 0.7578 0.0
C1724 C 0.75836 0.04237 0.78118 0.0
H1725 H 0.74591 0.01112 0.71465 0.0
H1726 H 0.77496 0.00734 0.7589 0.0
C1727 C 0.73903 0.06297 0.7791 0.0
loop_
_geom_bond_atom_site_label_1
_geom_bond_atom_site_label_2
_geom_bond_distance
_geom_bond_site_symmetry_2
_ccdc_geom_bond_type
Li0 N17 1.990 . S
Li0 O60 1.956 . S
Li0 O61 1.970 . S
Li0 O62 1.961 . S
Li1 N25 1.990 . S
Li1 O60 1.970 . S
Li1 O61 1.956 . S
Li1 O63 1.961 . S
Li2 N47 1.990 . S
Li2 O60 1.961 . S
Li2 O62 1.956 . S
Li2 O63 1.970 . S
Li3 N53 1.990 . S
Li3 O61 1.961 . S
Li3 O62 1.970 . S
Li3 O63 1.956 . S
C4 C6 1.348 . S
C4 C7 1.356 . S
C4 O60 1.325 . S
N5 C8 1.314 . S
N5 C9 1.279 . S
C6 C4 1.348 . S
C6 C8 1.353 . S
C6 H64 0.929 . S
C7 C4 1.356 . S
C7 C9 1.358 . S
C7 H65 0.930 . S
C8 N5 1.314 . S
C8 C6 1.353 . S
C8 H66 0.930 . S
C9 N5 1.279 . S
C9 C7 1.358 . S
C9 H67 0.930 . S
C10 C13 1.348 . S
C10 C14 1.356 . S
C10 O61 1.325 . S
C11 N12 1.279 . S
C11 C14 1.358 . S
C11 H68 0.930 . S
N12 C11 1.279 . S
N12 C15 1.314 . S
C13 C10 1.348 . S
C13 C15 1.353 . S
C13 H69 0.929 . S
C14 C10 1.356 . S
C14 C11 1.358 . S
C14 H70 0.930 . S
C15 N12 1.314 . S
C15 C13 1.353 . S
C15 H71 0.930 . S
C16 N17 1.314 . S
C16 C21 1.353 . S
C16 H22 0.930 . S
N17 Li0 1.990 . S
N17 C16 1.314 . S
N17 C19 1.279 . S
C18 C19 1.358 . S
C18 C20 1.356 . S
C18 H72 0.930 . S
C19 N17 1.279 . S
C19 C18 1.358 . S
C19 H23 0.930 . S
C20 C18 1.356 . S
C20 C21 1.348 . S
C21 C16 1.353 . S
C21 C20 1.348 . S
C21 H73 0.929 . S
H22 C16 0.930 . S
H23 C19 0.930 . S
C24 N25 1.314 . S
C24 C26 1.353 . S
C24 H30 0.930 . S
N25 Li1 1.990 . S
N25 C24 1.314 . S
N25 C28 1.279 . S
C26 C24 1.353 . S
C26 C29 1.348 . S
C26 H74 0.929 . S
C27 C28 1.358 . S
C27 C29 1.356 . S
C27 H75 0.930 . S
C28 N25 1.279 . S
C28 C27 1.358 . S
C28 H31 0.930 . S
C29 C26 1.348 . S
C29 C27 1.356 . S
H30 C24 0.930 . S
H31 C28 0.930 . S
C32 C34 1.348 . S
C32 C35 1.356 . S
C32 O62 1.325 . S
N33 C36 1.314 . S
N33 C37 1.279 . S
C34 C32 1.348 . S
C34 C36 1.353 . S
C34 H76 0.929 . S
C35 C32 1.356 . S
C35 C37 1.358 . S
C35 H77 0.930 . S
C36 N33 1.314 . S
C36 C34 1.353 . S
C36 H78 0.930 . S
C37 N33 1.279 . S
C37 C35 1.358 . S
C37 H79 0.930 . S
C38 C39 1.348 1_554 S
C38 C40 1.356 1_554 S
C38 O63 1.325 . S
C39 C38 1.348 1_556 S
C39 C41 1.353 . S
C39 H80 0.929 1_556 S
C40 C38 1.356 1_556 S
C40 C42 1.358 . S
C40 H81 0.930 1_556 S
C41 C39 1.353 . S
C41 N43 1.314 . S
C41 H82 0.930 . S
C42 C40 1.358 . S
C42 N43 1.279 . S
C42 H83 0.930 . S
N43 C41 1.314 . S
N43 C42 1.279 . S
C44 C46 1.353 . S
C44 N47 1.314 . S
C44 H50 0.930 . S
C45 N47 1.279 . S
C45 C48 1.358 . S
C45 H51 0.930 . S
C46 C44 1.353 . S
C46 C49 1.348 . S
C46 H84 0.929 . S
N47 Li2 1.990 . S
N47 C44 1.314 . S
N47 C45 1.279 . S
C48 C45 1.358 . S
C48 C49 1.356 . S
C48 H85 0.930 . S
C49 C46 1.348 . S
C49 C48 1.356 . S
H50 C44 0.930 . S
H51 C45 0.930 . S
C52 N53 1.314 . S
C52 C54 1.353 . S
C52 H58 0.930 . S
N53 Li3 1.990 . S
N53 C52 1.314 . S
N53 C56 1.279 . S
C54 C52 1.353 . S
C54 C57 1.364 . S
C54 H86 0.929 . S
C55 C56 1.358 1_556 S
C55 C57 1.349 1_556 S
C55 H87 0.930 . S
C56 N53 1.279 . S
C56 C55 1.358 1_554 S
C56 H59 0.930 1_554 S
C57 C54 1.364 . S
C57 C55 1.349 1_554 S
H58 C52 0.930 . S
H59 C56 0.930 1_556 S
O60 Li0 1.956 . S
O60 Li1 1.970 . S
O60 Li2 1.961 . S
O60 C4 1.325 . S
O61 Li0 1.970 . S
O61 Li1 1.956 . S
O61 Li3 1.961 . S
O61 C10 1.325 . S
O62 Li0 1.961 . S
O62 Li2 1.956 . S
O62 Li3 1.970 . S
O62 C32 1.325 . S
O63 Li1 1.961 . S
O63 Li2 1.970 . S
O63 Li3 1.956 . S
O63 C38 1.325 . S
H64 C6 0.929 . S
H65 C7 0.930 . S
H66 C8 0.930 . S
H67 C9 0.930 . S
H68 C11 0.930 . S
H69 C13 0.929 . S
H70 C14 0.930 . S
H71 C15 0.930 . S
H72 C18 0.930 . S
H73 C21 0.929 . S
H74 C26 0.929 . S
H75 C27 0.930 . S
H76 C34 0.929 . S
H77 C35 0.930 . S
H78 C36 0.930 . S
H79 C37 0.930 . S
H80 C39 0.929 1_554 S
H81 C40 0.930 1_554 S
H82 C41 0.930 . S
H83 C42 0.930 . S
H84 C46 0.929 . S
H85 C48 0.930 . S
H86 C54 0.929 . S
H87 C55 0.930 . S
Li88 N105 1.990 . S
Li88 O148 1.956 . S
Li88 O149 1.970 . S
Li88 O150 1.961 . S
Li89 N113 1.990 . S
Li89 O148 1.970 . S
Li89 O149 1.956 . S
Li89 O151 1.961 . S
Li90 N135 1.990 . S
Li90 O148 1.961 . S
Li90 O150 1.956 . S
Li90 O151 1.970 . S
Li91 N141 1.990 . S
Li91 O149 1.961 . S
Li91 O150 1.970 . S
Li91 O151 1.956 . S
C92 C94 1.348 . S
C92 C95 1.356 . S
C92 O148 1.325 . S
N93 C96 1.314 . S
N93 C97 1.279 . S
C94 C92 1.348 . S
C94 C96 1.353 . S
C94 H152 0.929 . S
C95 C92 1.356 . S
C95 C97 1.358 . S
C95 H153 0.930 . S
C96 N93 1.314 . S
C96 C94 1.353 . S
C96 H154 0.930 . S
C97 N93 1.279 . S
C97 C95 1.358 . S
C97 H155 0.930 . S
C98 C101 1.348 . S
C98 C102 1.356 . S
C98 O149 1.325 . S
C99 N100 1.279 . S
C99 C102 1.358 . S
C99 H156 0.930 . S
N100 C99 1.279 . S
N100 C103 1.314 . S
C101 C98 1.348 . S
C101 C103 1.353 . S
C101 H157 0.929 . S
C102 C98 1.356 . S
C102 C99 1.358 . S
C102 H158 0.930 . S
C103 N100 1.314 . S
C103 C101 1.353 . S
C103 H159 0.930 . S
C104 N105 1.314 . S
C104 C109 1.353 . S
C104 H110 0.930 . S
N105 Li88 1.990 . S
N105 C104 1.314 . S
N105 C107 1.279 . S
C106 C107 1.358 . S
C106 C108 1.356 . S
C106 H160 0.930 . S
C107 N105 1.279 . S
C107 C106 1.358 . S
C107 H111 0.930 . S
C108 C106 1.356 . S
C108 C109 1.348 . S
C109 C104 1.353 . S
C109 C108 1.348 . S
C109 H161 0.929 . S
H110 C104 0.930 . S
H111 C107 0.930 . S
C112 N113 1.314 . S
C112 C114 1.353 . S
C112 H118 0.930 . S
N113 Li89 1.990 . S
N113 C112 1.314 . S
N113 C116 1.279 . S
C114 C112 1.353 . S
C114 C117 1.348 . S
C114 H162 0.929 . S
C115 C116 1.358 . S
C115 C117 1.356 . S
C115 H163 0.930 . S
C116 N113 1.279 . S
C116 C115 1.358 . S
C116 H119 0.930 . S
C117 C114 1.348 . S
C117 C115 1.356 . S
H118 C112 0.930 . S
H119 C116 0.930 . S
C120 C122 1.348 . S
C120 C123 1.356 . S
C120 O150 1.325 . S
N121 C124 1.314 . S
N121 C125 1.279 . S
C122 C120 1.348 . S
C122 C124 1.353 . S
C122 H164 0.929 . S
C123 C120 1.356 . S
C123 C125 1.358 . S
C123 H165 0.930 . S
C124 N121 1.314 . S
C124 C122 1.353 . S
C124 H166 0.930 . S
C125 N121 1.279 . S
C125 C123 1.358 . S
C125 H167 0.930 . S
C126 C127 1.348 1_554 S
C126 C128 1.356 1_554 S
C126 O151 1.325 . S
C127 C126 1.348 1_556 S
C127 C129 1.353 . S
C127 H168 0.929 1_556 S
C128 C126 1.356 1_556 S
C128 C130 1.358 . S
C128 H169 0.930 1_556 S
C129 C127 1.353 . S
C129 N131 1.314 . S
C129 H170 0.930 . S
C130 C128 1.358 . S
C130 N131 1.279 . S
C130 H171 0.930 . S
N131 C129 1.314 . S
N131 C130 1.279 . S
C132 C134 1.353 . S
C132 N135 1.314 . S
C132 H138 0.930 . S
C133 N135 1.279 . S
C133 C136 1.358 . S
C133 H139 0.930 . S
C134 C132 1.353 . S
C134 C137 1.348 . S
C134 H172 0.929 . S
N135 Li90 1.990 . S
N135 C132 1.314 . S
N135 C133 1.279 . S
C136 C133 1.358 . S
C136 C137 1.356 . S
C136 H173 0.930 . S
C137 C134 1.348 . S
C137 C136 1.356 . S
H138 C132 0.930 . S
H139 C133 0.930 . S
C140 N141 1.314 . S
C140 C142 1.353 . S
C140 H146 0.930 . S
N141 Li91 1.990 . S
N141 C140 1.314 . S
N141 C144 1.279 . S
C142 C140 1.353 . S
C142 C145 1.364 . S
C142 H174 0.929 . S
C143 C144 1.358 1_556 S
C143 C145 1.349 1_556 S
C143 H175 0.930 . S
C144 N141 1.279 . S
C144 C143 1.358 1_554 S
C144 H147 0.930 1_554 S
C145 C142 1.364 . S
C145 C143 1.349 1_554 S
H146 C140 0.930 . S
H147 C144 0.930 1_556 S
O148 Li88 1.956 . S
O148 Li89 1.970 . S
O148 Li90 1.961 . S
O148 C92 1.325 . S
O149 Li88 1.970 . S
O149 Li89 1.956 . S
O149 Li91 1.961 . S
O149 C98 1.325 . S
O150 Li88 1.961 . S
O150 Li90 1.956 . S
O150 Li91 1.970 . S
O150 C120 1.325 . S
O151 Li89 1.961 . S
O151 Li90 1.970 . S
O151 Li91 1.956 . S
O151 C126 1.325 . S
H152 C94 0.929 . S
H153 C95 0.930 . S
H154 C96 0.930 . S
H155 C97 0.930 . S
H156 C99 0.930 . S
H157 C101 0.929 . S
H158 C102 0.930 . S
H159 C103 0.930 . S
H160 C106 0.930 . S
H161 C109 0.929 . S
H162 C114 0.929 . S
H163 C115 0.930 . S
H164 C122 0.929 . S
H165 C123 0.930 . S
H166 C124 0.930 . S
H167 C125 0.930 . S
H168 C127 0.929 1_554 S
H169 C128 0.930 1_554 S
H170 C129 0.930 . S
H171 C130 0.930 . S
H172 C134 0.929 . S
H173 C136 0.930 . S
H174 C142 0.929 . S
H175 C143 0.930 . S
Li176 N193 1.990 . S
Li176 O236 1.956 . S
Li176 O237 1.970 . S
Li176 O238 1.961 . S
Li177 N201 1.990 . S
Li177 O236 1.970 . S
Li177 O237 1.956 . S
Li177 O239 1.961 . S
Li178 N223 1.990 . S
Li178 O236 1.961 . S
Li178 O238 1.956 . S
Li178 O239 1.970 . S
Li179 N229 1.990 . S
Li179 O237 1.961 . S
Li179 O238 1.970 . S
Li179 O239 1.956 . S
C180 C182 1.348 . S
C180 C183 1.356 . S
C180 O236 1.325 . S
N181 C184 1.314 . S
N181 C185 1.279 . S
C182 C180 1.348 . S
C182 C184 1.353 1_655 S
C182 H240 0.929 . S
C183 C180 1.356 . S
C183 C185 1.358 1_655 S
C183 H241 0.930 . S
C184 N181 1.314 . S
C184 C182 1.353 1_455 S
C184 H242 0.930 . S
C185 N181 1.279 . S
C185 C183 1.358 1_455 S
C185 H243 0.930 . S
C186 C189 1.348 . S
C186 C190 1.356 . S
C186 O237 1.325 . S
C187 N188 1.279 . S
C187 C190 1.358 . S
C187 H244 0.930 . S
N188 C187 1.279 . S
N188 C191 1.314 . S
C189 C186 1.348 . S
C189 C191 1.353 . S
C189 H245 0.929 . S
C190 C186 1.356 . S
C190 C187 1.358 . S
C190 H246 0.930 . S
C191 N188 1.314 . S
C191 C189 1.353 . S
C191 H247 0.930 . S
C192 N193 1.314 . S
C192 C197 1.353 . S
C192 H198 0.930 . S
N193 Li176 1.990 . S
N193 C192 1.314 . S
N193 C195 1.279 . S
C194 C195 1.358 1_455 S
C194 C196 1.356 . S
C194 H248 0.930 . S
C195 N193 1.279 . S
C195 C194 1.358 1_655 S
C195 H199 0.935 . S
C196 C194 1.356 . S
C196 C197 1.348 1_455 S
C197 C192 1.353 . S
C197 C196 1.348 1_655 S
C197 H249 0.929 . S
H198 C192 0.930 . S
H199 C195 0.935 . S
C200 N201 1.314 . S
C200 C202 1.353 . S
C200 H206 0.930 . S
N201 Li177 1.990 . S
N201 C200 1.314 . S
N201 C204 1.279 . S
C202 C200 1.353 . S
C202 C205 1.348 . S
C202 H250 0.929 . S
C203 C204 1.358 . S
C203 C205 1.356 . S
C203 H251 0.930 . S
C204 N201 1.279 . S
C204 C203 1.358 . S
C204 H207 0.930 . S
C205 C202 1.348 . S
C205 C203 1.356 . S
H206 C200 0.930 . S
H207 C204 0.930 . S
C208 C210 1.348 1_554 S
C208 C211 1.356 1_554 S
C208 O238 1.325 . S
N209 C212 1.314 . S
N209 C213 1.279 . S
C210 C208 1.348 1_556 S
C210 C212 1.353 . S
C210 H252 0.929 1_556 S
C211 C208 1.356 1_556 S
C211 C213 1.358 . S
C211 H253 0.930 1_556 S
C212 N209 1.314 . S
C212 C210 1.353 . S
C212 H254 0.930 . S
C213 N209 1.279 . S
C213 C211 1.358 . S
C213 H255 0.930 . S
C214 C215 1.348 . S
C214 C216 1.356 . S
C214 O239 1.325 . S
C215 C214 1.348 . S
C215 C217 1.353 . S
C215 H256 0.929 . S
C216 C214 1.356 . S
C216 C218 1.358 . S
C216 H257 0.930 . S
C217 C215 1.353 . S
C217 N219 1.314 . S
C217 H258 0.930 . S
C218 C216 1.358 . S
C218 N219 1.279 . S
C218 H259 0.930 . S
N219 C217 1.314 . S
N219 C218 1.279 . S
C220 C222 1.353 . S
C220 N223 1.314 . S
C220 H226 0.930 . S
C221 N223 1.279 . S
C221 C224 1.358 1_554 S
C221 H227 0.930 1_554 S
C222 C220 1.353 . S
C222 C225 1.364 . S
C222 H260 0.929 . S
N223 Li178 1.990 . S
N223 C220 1.314 . S
N223 C221 1.279 . S
C224 C221 1.358 1_556 S
C224 C225 1.349 1_556 S
C224 H261 0.930 . S
C225 C222 1.364 . S
C225 C224 1.349 1_554 S
H226 C220 0.930 . S
H227 C221 0.930 1_556 S
C228 N229 1.314 . S
C228 C230 1.353 . S
C228 H234 0.930 . S
N229 Li179 1.990 . S
N229 C228 1.314 . S
N229 C232 1.279 . S
C230 C228 1.353 . S
C230 C233 1.348 . S
C230 H262 0.929 . S
C231 C232 1.358 . S
C231 C233 1.356 . S
C231 H263 0.930 . S
C232 N229 1.279 . S
C232 C231 1.358 . S
C232 H235 0.930 . S
C233 C230 1.348 . S
C233 C231 1.356 . S
H234 C228 0.930 . S
H235 C232 0.930 . S
O236 Li176 1.956 . S
O236 Li177 1.970 . S
O236 Li178 1.961 . S
O236 C180 1.325 . S
O237 Li176 1.970 . S
O237 Li177 1.956 . S
O237 Li179 1.961 . S
O237 C186 1.325 . S
O238 Li176 1.961 . S
O238 Li178 1.956 . S
O238 Li179 1.970 . S
O238 C208 1.325 . S
O239 Li177 1.961 . S
O239 Li178 1.970 . S
O239 Li179 1.956 . S
O239 C214 1.325 . S
H240 C182 0.929 . S
H241 C183 0.930 . S
H242 C184 0.930 . S
H243 C185 0.930 . S
H244 C187 0.930 . S
H245 C189 0.929 . S
H246 C190 0.930 . S
H247 C191 0.930 . S
H248 C194 0.930 . S
H249 C197 0.929 . S
H250 C202 0.929 . S
H251 C203 0.930 . S
H252 C210 0.929 1_554 S
H253 C211 0.930 1_554 S
H254 C212 0.930 . S
H255 C213 0.930 . S
H256 C215 0.929 . S
H257 C216 0.930 . S
H258 C217 0.930 . S
H259 C218 0.930 . S
H260 C222 0.929 . S
H261 C224 0.930 . S
H262 C230 0.929 . S
H263 C231 0.930 . S
Li264 N281 1.990 . S
Li264 O324 1.956 . S
Li264 O325 1.970 . S
Li264 O326 1.961 . S
Li265 N289 1.990 . S
Li265 O324 1.970 . S
Li265 O325 1.956 . S
Li265 O327 1.961 . S
Li266 N311 1.990 . S
Li266 O324 1.961 . S
Li266 O326 1.956 . S
Li266 O327 1.970 . S
Li267 N317 1.990 . S
Li267 O325 1.961 . S
Li267 O326 1.970 . S
Li267 O327 1.956 . S
C268 C270 1.348 . S
C268 C271 1.356 . S
C268 O324 1.325 . S
N269 C272 1.314 . S
N269 C273 1.279 . S
C270 C268 1.348 . S
C270 C272 1.353 1_565 S
C270 H328 0.929 . S
C271 C268 1.356 . S
C271 C273 1.358 1_565 S
C271 H329 0.930 . S
C272 N269 1.314 . S
C272 C270 1.353 1_545 S
C272 H330 0.930 . S
C273 N269 1.279 . S
C273 C271 1.358 1_545 S
C273 H331 0.930 . S
C274 C277 1.348 . S
C274 C278 1.356 . S
C274 O325 1.325 . S
C275 N276 1.279 . S
C275 C278 1.358 . S
C275 H332 0.930 . S
N276 C275 1.279 . S
N276 C279 1.314 . S
C277 C274 1.348 . S
C277 C279 1.353 . S
C277 H333 0.929 . S
C278 C274 1.356 . S
C278 C275 1.358 . S
C278 H334 0.930 . S
C279 N276 1.314 . S
C279 C277 1.353 . S
C279 H335 0.930 . S
C280 N281 1.314 . S
C280 C285 1.353 . S
C280 H286 0.930 . S
N281 Li264 1.990 . S
N281 C280 1.314 . S
N281 C283 1.279 . S
C282 C283 1.358 1_545 S
C282 C284 1.356 . S
C282 H336 0.930 . S
C283 N281 1.279 . S
C283 C282 1.358 1_565 S
C283 H287 0.935 . S
C284 C282 1.356 . S
C284 C285 1.348 1_545 S
C285 C280 1.353 . S
C285 C284 1.348 1_565 S
C285 H337 0.929 . S
H286 C280 0.930 . S
H287 C283 0.935 . S
C288 N289 1.314 . S
C288 C290 1.353 . S
C288 H294 0.930 . S
N289 Li265 1.990 . S
N289 C288 1.314 . S
N289 C292 1.279 . S
C290 C288 1.353 . S
C290 C293 1.348 . S
C290 H338 0.929 . S
C291 C292 1.358 . S
C291 C293 1.356 . S
C291 H339 0.930 . S
C292 N289 1.279 . S
C292 C291 1.358 . S
C292 H295 0.930 . S
C293 C290 1.348 . S
C293 C291 1.356 . S
H294 C288 0.930 . S
H295 C292 0.930 . S
C296 C298 1.348 1_554 S
C296 C299 1.356 1_554 S
C296 O326 1.325 . S
N297 C300 1.314 . S
N297 C301 1.279 . S
C298 C296 1.348 1_556 S
C298 C300 1.353 . S
C298 H340 0.929 1_556 S
C299 C296 1.356 1_556 S
C299 C301 1.358 . S
C299 H341 0.930 1_556 S
C300 N297 1.314 . S
C300 C298 1.353 . S
C300 H342 0.930 . S
C301 N297 1.279 . S
C301 C299 1.358 . S
C301 H343 0.930 . S
C302 C303 1.348 . S
C302 C304 1.356 . S
C302 O327 1.325 . S
C303 C302 1.348 . S
C303 C305 1.353 . S
C303 H344 0.929 . S
C304 C302 1.356 . S
C304 C306 1.358 . S
C304 H345 0.930 . S
C305 C303 1.353 . S
C305 N307 1.314 . S
C305 H346 0.930 . S
C306 C304 1.358 . S
C306 N307 1.279 . S
C306 H347 0.930 . S
N307 C305 1.314 . S
N307 C306 1.279 . S
C308 C310 1.353 . S
C308 N311 1.314 . S
C308 H314 0.930 . S
C309 N311 1.279 . S
C309 C312 1.358 1_554 S
C309 H315 0.930 1_554 S
C310 C308 1.353 . S
C310 C313 1.364 . S
C310 H348 0.929 . S
N311 Li266 1.990 . S
N311 C308 1.314 . S
N311 C309 1.279 . S
C312 C309 1.358 1_556 S
C312 C313 1.349 1_556 S
C312 H349 0.930 . S
C313 C310 1.364 . S
C313 C312 1.349 1_554 S
H314 C308 0.930 . S
H315 C309 0.930 1_556 S
C316 N317 1.314 . S
C316 C318 1.353 . S
C316 H322 0.930 . S
N317 Li267 1.990 . S
N317 C316 1.314 . S
N317 C320 1.279 . S
C318 C316 1.353 . S
C318 C321 1.348 . S
C318 H350 0.929 . S
C319 C320 1.358 . S
C319 C321 1.356 . S
C319 H351 0.930 . S
C320 N317 1.279 . S
C320 C319 1.358 . S
C320 H323 0.930 . S
C321 C318 1.348 . S
C321 C319 1.356 . S
H322 C316 0.930 . S
H323 C320 0.930 . S
O324 Li264 1.956 . S
O324 Li265 1.970 . S
O324 Li266 1.961 . S
O324 C268 1.325 . S
O325 Li264 1.970 . S
O325 Li265 1.956 . S
O325 Li267 1.961 . S
O325 C274 1.325 . S
O326 Li264 1.961 . S
O326 Li266 1.956 . S
O326 Li267 1.970 . S
O326 C296 1.325 . S
O327 Li265 1.961 . S
O327 Li266 1.970 . S
O327 Li267 1.956 . S
O327 C302 1.325 . S
H328 C270 0.929 . S
H329 C271 0.930 . S
H330 C272 0.930 . S
H331 C273 0.930 . S
H332 C275 0.930 . S
H333 C277 0.929 . S
H334 C278 0.930 . S
H335 C279 0.930 . S
H336 C282 0.930 . S
H337 C285 0.929 . S
H338 C290 0.929 . S
H339 C291 0.930 . S
H340 C298 0.929 1_554 S
H341 C299 0.930 1_554 S
H342 C300 0.930 . S
H343 C301 0.930 . S
H344 C303 0.929 . S
H345 C304 0.930 . S
H346 C305 0.930 . S
H347 C306 0.930 . S
H348 C310 0.929 . S
H349 C312 0.930 . S
H350 C318 0.929 . S
H351 C319 0.930 . S
Li352 N369 1.990 . S
Li352 O412 1.956 . S
Li352 O413 1.970 . S
Li352 O414 1.961 . S
Li353 N377 1.990 . S
Li353 O412 1.970 . S
Li353 O413 1.956 . S
Li353 O415 1.961 . S
Li354 N399 1.990 . S
Li354 O412 1.961 . S
Li354 O414 1.956 . S
Li354 O415 1.970 . S
Li355 N405 1.990 . S
Li355 O413 1.961 . S
Li355 O414 1.970 . S
Li355 O415 1.956 . S
C356 C358 1.348 . S
C356 C359 1.356 . S
C356 O412 1.325 . S
N357 C360 1.314 . S
N357 C361 1.279 . S
C358 C356 1.348 . S
C358 C360 1.353 . S
C358 H416 0.929 . S
C359 C356 1.356 . S
C359 C361 1.358 . S
C359 H417 0.930 . S
C360 N357 1.314 . S
C360 C358 1.353 . S
C360 H418 0.930 . S
C361 N357 1.279 . S
C361 C359 1.358 . S
C361 H419 0.930 . S
C362 C365 1.348 . S
C362 C366 1.356 . S
C362 O413 1.325 . S
C363 N364 1.279 . S
C363 C366 1.358 . S
C363 H420 0.930 . S
N364 C363 1.279 . S
N364 C367 1.314 . S
C365 C362 1.348 . S
C365 C367 1.353 . S
C365 H421 0.929 . S
C366 C362 1.356 . S
C366 C363 1.358 . S
C366 H422 0.930 . S
C367 N364 1.314 . S
C367 C365 1.353 . S
C367 H423 0.930 . S
C368 N369 1.314 . S
C368 C373 1.353 . S
C368 H374 0.930 . S
N369 Li352 1.990 . S
N369 C368 1.314 . S
N369 C371 1.279 . S
C370 C371 1.358 . S
C370 C372 1.356 . S
C370 H424 0.930 . S
C371 N369 1.279 . S
C371 C370 1.358 . S
C371 H375 0.930 . S
C372 C370 1.356 . S
C372 C373 1.348 . S
C373 C368 1.353 . S
C373 C372 1.348 . S
C373 H425 0.929 . S
H374 C368 0.930 . S
H375 C371 0.930 . S
C376 N377 1.314 . S
C376 C378 1.353 . S
C376 H382 0.930 . S
N377 Li353 1.990 . S
N377 C376 1.314 . S
N377 C380 1.279 . S
C378 C376 1.353 . S
C378 C381 1.348 . S
C378 H426 0.929 . S
C379 C380 1.358 . S
C379 C381 1.356 . S
C379 H427 0.930 . S
C380 N377 1.279 . S
C380 C379 1.358 . S
C380 H383 0.930 . S
C381 C378 1.348 . S
C381 C379 1.356 . S
H382 C376 0.930 . S
H383 C380 0.930 . S
C384 C386 1.348 . S
C384 C387 1.356 . S
C384 O414 1.325 . S
N385 C388 1.314 . S
N385 C389 1.279 . S
C386 C384 1.348 . S
C386 C388 1.353 . S
C386 H428 0.929 . S
C387 C384 1.356 . S
C387 C389 1.358 . S
C387 H429 0.930 . S
C388 N385 1.314 . S
C388 C386 1.353 . S
C388 H430 0.930 . S
C389 N385 1.279 . S
C389 C387 1.358 . S
C389 H431 0.930 . S
C390 C391 1.348 . S
C390 C392 1.356 . S
C390 O415 1.325 . S
C391 C390 1.348 . S
C391 C393 1.353 . S
C391 H432 0.929 . S
C392 C390 1.356 . S
C392 C394 1.358 . S
C392 H433 0.930 . S
C393 C391 1.353 . S
C393 N395 1.314 . S
C393 H434 0.930 . S
C394 C392 1.358 . S
C394 N395 1.279 . S
C394 H435 0.930 . S
N395 C393 1.314 . S
N395 C394 1.279 . S
C396 C398 1.353 . S
C396 N399 1.314 . S
C396 H402 0.930 . S
C397 N399 1.279 . S
C397 C400 1.358 . S
C397 H403 0.930 . S
C398 C396 1.353 . S
C398 C401 1.348 . S
C398 H436 0.929 . S
N399 Li354 1.990 . S
N399 C396 1.314 . S
N399 C397 1.279 . S
C400 C397 1.358 . S
C400 C401 1.356 . S
C400 H437 0.930 . S
C401 C398 1.348 . S
C401 C400 1.356 . S
H402 C396 0.930 . S
H403 C397 0.930 . S
C404 N405 1.314 . S
C404 C406 1.353 . S
C404 H410 0.930 . S
N405 Li355 1.990 . S
N405 C404 1.314 . S
N405 C408 1.279 . S
C406 C404 1.353 . S
C406 C409 1.348 . S
C406 H438 0.929 . S
C407 C408 1.358 . S
C407 C409 1.356 . S
C407 H439 0.930 . S
C408 N405 1.279 . S
C408 C407 1.358 . S
C408 H411 0.930 . S
C409 C406 1.348 . S
C409 C407 1.356 . S
H410 C404 0.930 . S
H411 C408 0.930 . S
O412 Li352 1.956 . S
O412 Li353 1.970 . S
O412 Li354 1.961 . S
O412 C356 1.325 . S
O413 Li352 1.970 . S
O413 Li353 1.956 . S
O413 Li355 1.961 . S
O413 C362 1.325 . S
O414 Li352 1.961 . S
O414 Li354 1.956 . S
O414 Li355 1.970 . S
O414 C384 1.325 . S
O415 Li353 1.961 . S
O415 Li354 1.970 . S
O415 Li355 1.956 . S
O415 C390 1.325 . S
H416 C358 0.929 . S
H417 C359 0.930 . S
H418 C360 0.930 . S
H419 C361 0.930 . S
H420 C363 0.930 . S
H421 C365 0.929 . S
H422 C366 0.930 . S
H423 C367 0.930 . S
H424 C370 0.930 . S
H425 C373 0.929 . S
H426 C378 0.929 . S
H427 C379 0.930 . S
H428 C386 0.929 . S
H429 C387 0.930 . S
H430 C388 0.930 . S
H431 C389 0.930 . S
H432 C391 0.929 . S
H433 C392 0.930 . S
H434 C393 0.930 . S
H435 C394 0.930 . S
H436 C398 0.929 . S
H437 C400 0.930 . S
H438 C406 0.929 . S
H439 C407 0.930 . S
Li440 N457 1.990 . S
Li440 O500 1.956 . S
Li440 O501 1.970 . S
Li440 O502 1.961 . S
Li441 N465 1.990 . S
Li441 O500 1.970 . S
Li441 O501 1.956 . S
Li441 O503 1.961 . S
Li442 N487 1.990 . S
Li442 O500 1.961 . S
Li442 O502 1.956 . S
Li442 O503 1.970 . S
Li443 N493 1.990 . S
Li443 O501 1.961 . S
Li443 O502 1.970 . S
Li443 O503 1.956 . S
C444 C446 1.348 . S
C444 C447 1.356 . S
C444 O500 1.325 . S
N445 C448 1.314 . S
N445 C449 1.279 . S
C446 C444 1.348 . S
C446 C448 1.353 . S
C446 H504 0.929 . S
C447 C444 1.356 . S
C447 C449 1.358 . S
C447 H505 0.930 . S
C448 N445 1.314 . S
C448 C446 1.353 . S
C448 H506 0.930 . S
C449 N445 1.279 . S
C449 C447 1.358 . S
C449 H507 0.930 . S
C450 C453 1.348 . S
C450 C454 1.356 . S
C450 O501 1.325 . S
C451 N452 1.279 . S
C451 C454 1.358 . S
C451 H508 0.930 . S
N452 C451 1.279 . S
N452 C455 1.314 . S
C453 C450 1.348 . S
C453 C455 1.353 . S
C453 H509 0.929 . S
C454 C450 1.356 . S
C454 C451 1.358 . S
C454 H510 0.930 . S
C455 N452 1.314 . S
C455 C453 1.353 . S
C455 H511 0.930 . S
C456 N457 1.314 . S
C456 C461 1.353 . S
C456 H462 0.930 . S
N457 Li440 1.990 . S
N457 C456 1.314 . S
N457 C459 1.279 . S
C458 C459 1.358 . S
C458 C460 1.356 . S
C458 H512 0.930 . S
C459 N457 1.279 . S
C459 C458 1.358 . S
C459 H463 0.930 . S
C460 C458 1.356 . S
C460 C461 1.348 . S
C461 C456 1.353 . S
C461 C460 1.348 . S
C461 H513 0.929 . S
H462 C456 0.930 . S
H463 C459 0.930 . S
C464 N465 1.314 . S
C464 C466 1.353 . S
C464 H470 0.930 . S
N465 Li441 1.990 . S
N465 C464 1.314 . S
N465 C468 1.279 . S
C466 C464 1.353 . S
C466 C469 1.348 . S
C466 H514 0.929 . S
C467 C468 1.358 . S
C467 C469 1.356 . S
C467 H515 0.930 . S
C468 N465 1.279 . S
C468 C467 1.358 . S
C468 H471 0.930 . S
C469 C466 1.348 . S
C469 C467 1.356 . S
H470 C464 0.930 . S
H471 C468 0.930 . S
C472 C474 1.348 . S
C472 C475 1.356 . S
C472 O502 1.325 . S
N473 C476 1.314 . S
N473 C477 1.279 . S
C474 C472 1.348 . S
C474 C476 1.353 . S
C474 H516 0.929 . S
C475 C472 1.356 . S
C475 C477 1.358 . S
C475 H517 0.930 . S
C476 N473 1.314 . S
C476 C474 1.353 . S
C476 H518 0.930 . S
C477 N473 1.279 . S
C477 C475 1.358 . S
C477 H519 0.930 . S
C478 C479 1.348 . S
C478 C480 1.356 . S
C478 O503 1.325 . S
C479 C478 1.348 . S
C479 C481 1.353 . S
C479 H520 0.929 . S
C480 C478 1.356 . S
C480 C482 1.358 . S
C480 H521 0.930 . S
C481 C479 1.353 . S
C481 N483 1.314 . S
C481 H522 0.930 . S
C482 C480 1.358 . S
C482 N483 1.279 . S
C482 H523 0.930 . S
N483 C481 1.314 . S
N483 C482 1.279 . S
C484 C486 1.353 . S
C484 N487 1.314 . S
C484 H490 0.930 . S
C485 N487 1.279 . S
C485 C488 1.358 . S
C485 H491 0.930 . S
C486 C484 1.353 . S
C486 C489 1.348 . S
C486 H524 0.929 . S
N487 Li442 1.990 . S
N487 C484 1.314 . S
N487 C485 1.279 . S
C488 C485 1.358 . S
C488 C489 1.356 . S
C488 H525 0.930 . S
C489 C486 1.348 . S
C489 C488 1.356 . S
H490 C484 0.930 . S
H491 C485 0.930 . S
C492 N493 1.314 . S
C492 C494 1.353 . S
C492 H498 0.930 . S
N493 Li443 1.990 . S
N493 C492 1.314 . S
N493 C496 1.279 . S
C494 C492 1.353 . S
C494 C497 1.348 . S
C494 H526 0.929 . S
C495 C496 1.358 . S
C495 C497 1.356 . S
C495 H527 0.930 . S
C496 N493 1.279 . S
C496 C495 1.358 . S
C496 H499 0.930 . S
C497 C494 1.348 . S
C497 C495 1.356 . S
H498 C492 0.930 . S
H499 C496 0.930 . S
O500 Li440 1.956 . S
O500 Li441 1.970 . S
O500 Li442 1.961 . S
O500 C444 1.325 . S
O501 Li440 1.970 . S
O501 Li441 1.956 . S
O501 Li443 1.961 . S
O501 C450 1.325 . S
O502 Li440 1.961 . S
O502 Li442 1.956 . S
O502 Li443 1.970 . S
O502 C472 1.325 . S
O503 Li441 1.961 . S
O503 Li442 1.970 . S
O503 Li443 1.956 . S
O503 C478 1.325 . S
H504 C446 0.929 . S
H505 C447 0.930 . S
H506 C448 0.930 . S
H507 C449 0.930 . S
H508 C451 0.930 . S
H509 C453 0.929 . S
H510 C454 0.930 . S
H511 C455 0.930 . S
H512 C458 0.930 . S
H513 C461 0.929 . S
H514 C466 0.929 . S
H515 C467 0.930 . S
H516 C474 0.929 . S
H517 C475 0.930 . S
H518 C476 0.930 . S
H519 C477 0.930 . S
H520 C479 0.929 . S
H521 C480 0.930 . S
H522 C481 0.930 . S
H523 C482 0.930 . S
H524 C486 0.929 . S
H525 C488 0.930 . S
H526 C494 0.929 . S
H527 C495 0.930 . S
Li528 N545 1.990 . S
Li528 O588 1.956 . S
Li528 O589 1.970 . S
Li528 O590 1.961 . S
Li529 N553 1.990 . S
Li529 O588 1.970 . S
Li529 O589 1.956 . S
Li529 O591 1.961 . S
Li530 N575 1.990 . S
Li530 O588 1.961 . S
Li530 O590 1.956 . S
Li530 O591 1.970 . S
Li531 N581 1.990 . S
Li531 O589 1.961 . S
Li531 O590 1.970 . S
Li531 O591 1.956 . S
C532 C534 1.348 . S
C532 C535 1.356 . S
C532 O588 1.325 . S
N533 C536 1.314 . S
N533 C537 1.279 . S
C534 C532 1.348 . S
C534 C536 1.353 . S
C534 H592 0.929 . S
C535 C532 1.356 . S
C535 C537 1.358 . S
C535 H593 0.930 . S
C536 N533 1.314 . S
C536 C534 1.353 . S
C536 H594 0.930 . S
C537 N533 1.279 . S
C537 C535 1.358 . S
C537 H595 0.930 . S
C538 C541 1.348 . S
C538 C542 1.356 . S
C538 O589 1.325 . S
C539 N540 1.279 . S
C539 C542 1.358 . S
C539 H596 0.930 . S
N540 C539 1.279 . S
N540 C543 1.314 . S
C541 C538 1.348 . S
C541 C543 1.353 . S
C541 H597 0.929 . S
C542 C538 1.356 . S
C542 C539 1.358 . S
C542 H598 0.930 . S
C543 N540 1.314 . S
C543 C541 1.353 . S
C543 H599 0.930 . S
C544 N545 1.314 . S
C544 C549 1.353 . S
C544 H550 0.930 . S
N545 Li528 1.990 . S
N545 C544 1.314 . S
N545 C547 1.279 . S
C546 C547 1.358 . S
C546 C548 1.356 . S
C546 H600 0.930 . S
C547 N545 1.279 . S
C547 C546 1.358 . S
C547 H551 0.930 . S
C548 C546 1.356 . S
C548 C549 1.348 . S
C549 C544 1.353 . S
C549 C548 1.348 . S
C549 H601 0.929 . S
H550 C544 0.930 . S
H551 C547 0.930 . S
C552 N553 1.314 . S
C552 C554 1.353 . S
C552 H558 0.930 . S
N553 Li529 1.990 . S
N553 C552 1.314 . S
N553 C556 1.279 . S
C554 C552 1.353 . S
C554 C557 1.348 . S
C554 H602 0.929 . S
C555 C556 1.358 . S
C555 C557 1.356 . S
C555 H603 0.930 . S
C556 N553 1.279 . S
C556 C555 1.358 . S
C556 H559 0.930 . S
C557 C554 1.348 . S
C557 C555 1.356 . S
H558 C552 0.930 . S
H559 C556 0.930 . S
C560 C562 1.348 . S
C560 C563 1.356 . S
C560 O590 1.325 . S
N561 C564 1.314 . S
N561 C565 1.279 . S
C562 C560 1.348 . S
C562 C564 1.353 1_655 S
C562 H604 0.929 . S
C563 C560 1.356 . S
C563 C565 1.358 1_655 S
C563 H605 0.930 . S
C564 N561 1.314 . S
C564 C562 1.353 1_455 S
C564 H606 0.930 . S
C565 N561 1.279 . S
C565 C563 1.358 1_455 S
C565 H607 0.930 . S
C566 C567 1.348 . S
C566 C568 1.356 . S
C566 O591 1.325 . S
C567 C566 1.348 . S
C567 C569 1.353 . S
C567 H608 0.929 . S
C568 C566 1.356 . S
C568 C570 1.358 . S
C568 H609 0.930 . S
C569 C567 1.353 . S
C569 N571 1.314 . S
C569 H610 0.930 . S
C570 C568 1.358 . S
C570 N571 1.279 . S
C570 H611 0.930 . S
N571 C569 1.314 . S
N571 C570 1.279 . S
C572 C574 1.353 . S
C572 N575 1.314 . S
C572 H578 0.930 . S
C573 N575 1.279 . S
C573 C576 1.358 1_655 S
C573 H579 0.935 . S
C574 C572 1.353 . S
C574 C577 1.348 1_655 S
C574 H612 0.929 . S
N575 Li530 1.990 . S
N575 C572 1.314 . S
N575 C573 1.279 . S
C576 C573 1.358 1_455 S
C576 C577 1.356 . S
C576 H613 0.930 . S
C577 C574 1.348 1_455 S
C577 C576 1.356 . S
H578 C572 0.930 . S
H579 C573 0.935 . S
C580 N581 1.314 . S
C580 C582 1.353 . S
C580 H586 0.930 . S
N581 Li531 1.990 . S
N581 C580 1.314 . S
N581 C584 1.279 . S
C582 C580 1.353 . S
C582 C585 1.348 . S
C582 H614 0.929 . S
C583 C584 1.358 . S
C583 C585 1.356 . S
C583 H615 0.930 . S
C584 N581 1.279 . S
C584 C583 1.358 . S
C584 H587 0.930 . S
C585 C582 1.348 . S
C585 C583 1.356 . S
H586 C580 0.930 . S
H587 C584 0.930 . S
O588 Li528 1.956 . S
O588 Li529 1.970 . S
O588 Li530 1.961 . S
O588 C532 1.325 . S
O589 Li528 1.970 . S
O589 Li529 1.956 . S
O589 Li531 1.961 . S
O589 C538 1.325 . S
O590 Li528 1.961 . S
O590 Li530 1.956 . S
O590 Li531 1.970 . S
O590 C560 1.325 . S
O591 Li529 1.961 . S
O591 Li530 1.970 . S
O591 Li531 1.956 . S
O591 C566 1.325 . S
H592 C534 0.929 . S
H593 C535 0.930 . S
H594 C536 0.930 . S
H595 C537 0.930 . S
H596 C539 0.930 . S
H597 C541 0.929 . S
H598 C542 0.930 . S
H599 C543 0.930 . S
H600 C546 0.930 . S
H601 C549 0.929 . S
H602 C554 0.929 . S
H603 C555 0.930 . S
H604 C562 0.929 . S
H605 C563 0.930 . S
H606 C564 0.930 . S
H607 C565 0.930 . S
H608 C567 0.929 . S
H609 C568 0.930 . S
H610 C569 0.930 . S
H611 C570 0.930 . S
H612 C574 0.929 . S
H613 C576 0.930 . S
H614 C582 0.929 . S
H615 C583 0.930 . S
Li616 N633 1.990 . S
Li616 O676 1.956 . S
Li616 O677 1.970 . S
Li616 O678 1.961 . S
Li617 N641 1.990 . S
Li617 O676 1.970 . S
Li617 O677 1.956 . S
Li617 O679 1.961 . S
Li618 N663 1.990 . S
Li618 O676 1.961 . S
Li618 O678 1.956 . S
Li618 O679 1.970 . S
Li619 N669 1.990 . S
Li619 O677 1.961 . S
Li619 O678 1.970 . S
Li619 O679 1.956 . S
C620 C622 1.348 . S
C620 C623 1.356 . S
C620 O676 1.325 . S
N621 C624 1.314 . S
N621 C625 1.279 . S
C622 C620 1.348 . S
C622 C624 1.353 . S
C622 H680 0.929 . S
C623 C620 1.356 . S
C623 C625 1.358 . S
C623 H681 0.930 . S
C624 N621 1.314 . S
C624 C622 1.353 . S
C624 H682 0.930 . S
C625 N621 1.279 . S
C625 C623 1.358 . S
C625 H683 0.930 . S
C626 C629 1.348 . S
C626 C630 1.356 . S
C626 O677 1.325 . S
C627 N628 1.279 . S
C627 C630 1.358 . S
C627 H684 0.930 . S
N628 C627 1.279 . S
N628 C631 1.314 . S
C629 C626 1.348 . S
C629 C631 1.353 . S
C629 H685 0.929 . S
C630 C626 1.356 . S
C630 C627 1.358 . S
C630 H686 0.930 . S
C631 N628 1.314 . S
C631 C629 1.353 . S
C631 H687 0.930 . S
C632 N633 1.314 . S
C632 C637 1.353 . S
C632 H638 0.930 . S
N633 Li616 1.990 . S
N633 C632 1.314 . S
N633 C635 1.279 . S
C634 C635 1.358 . S
C634 C636 1.356 . S
C634 H688 0.930 . S
C635 N633 1.279 . S
C635 C634 1.358 . S
C635 H639 0.930 . S
C636 C634 1.356 . S
C636 C637 1.348 . S
C637 C632 1.353 . S
C637 C636 1.348 . S
C637 H689 0.929 . S
H638 C632 0.930 . S
H639 C635 0.930 . S
C640 N641 1.314 . S
C640 C642 1.353 . S
C640 H646 0.930 . S
N641 Li617 1.990 . S
N641 C640 1.314 . S
N641 C644 1.279 . S
C642 C640 1.353 . S
C642 C645 1.348 . S
C642 H690 0.929 . S
C643 C644 1.358 . S
C643 C645 1.356 . S
C643 H691 0.930 . S
C644 N641 1.279 . S
C644 C643 1.358 . S
C644 H647 0.930 . S
C645 C642 1.348 . S
C645 C643 1.356 . S
H646 C640 0.930 . S
H647 C644 0.930 . S
C648 C650 1.348 . S
C648 C651 1.356 . S
C648 O678 1.325 . S
N649 C652 1.314 . S
N649 C653 1.279 . S
C650 C648 1.348 . S
C650 C652 1.353 1_565 S
C650 H692 0.929 . S
C651 C648 1.356 . S
C651 C653 1.358 1_565 S
C651 H693 0.930 . S
C652 N649 1.314 . S
C652 C650 1.353 1_545 S
C652 H694 0.930 . S
C653 N649 1.279 . S
C653 C651 1.358 1_545 S
C653 H695 0.930 . S
C654 C655 1.348 . S
C654 C656 1.356 . S
C654 O679 1.325 . S
C655 C654 1.348 . S
C655 C657 1.353 . S
C655 H696 0.929 . S
C656 C654 1.356 . S
C656 C658 1.358 . S
C656 H697 0.930 . S
C657 C655 1.353 . S
C657 N659 1.314 . S
C657 H698 0.930 . S
C658 C656 1.358 . S
C658 N659 1.279 . S
C658 H699 0.930 . S
N659 C657 1.314 . S
N659 C658 1.279 . S
C660 C662 1.353 . S
C660 N663 1.314 . S
C660 H666 0.930 . S
C661 N663 1.279 . S
C661 C664 1.358 1_565 S
C661 H667 0.935 . S
C662 C660 1.353 . S
C662 C665 1.348 1_565 S
C662 H700 0.929 . S
N663 Li618 1.990 . S
N663 C660 1.314 . S
N663 C661 1.279 . S
C664 C661 1.358 1_545 S
C664 C665 1.356 . S
C664 H701 0.930 . S
C665 C662 1.348 1_545 S
C665 C664 1.356 . S
H666 C660 0.930 . S
H667 C661 0.935 . S
C668 N669 1.314 . S
C668 C670 1.353 . S
C668 H674 0.930 . S
N669 Li619 1.990 . S
N669 C668 1.314 . S
N669 C672 1.279 . S
C670 C668 1.353 . S
C670 C673 1.348 . S
C670 H702 0.929 . S
C671 C672 1.358 . S
C671 C673 1.356 . S
C671 H703 0.930 . S
C672 N669 1.279 . S
C672 C671 1.358 . S
C672 H675 0.930 . S
C673 C670 1.348 . S
C673 C671 1.356 . S
H674 C668 0.930 . S
H675 C672 0.930 . S
O676 Li616 1.956 . S
O676 Li617 1.970 . S
O676 Li618 1.961 . S
O676 C620 1.325 . S
O677 Li616 1.970 . S
O677 Li617 1.956 . S
O677 Li619 1.961 . S
O677 C626 1.325 . S
O678 Li616 1.961 . S
O678 Li618 1.956 . S
O678 Li619 1.970 . S
O678 C648 1.325 . S
O679 Li617 1.961 . S
O679 Li618 1.970 . S
O679 Li619 1.956 . S
O679 C654 1.325 . S
H680 C622 0.929 . S
H681 C623 0.930 . S
H682 C624 0.930 . S
H683 C625 0.930 . S
H684 C627 0.930 . S
H685 C629 0.929 . S
H686 C630 0.930 . S
H687 C631 0.930 . S
H688 C634 0.930 . S
H689 C637 0.929 . S
H690 C642 0.929 . S
H691 C643 0.930 . S
H692 C650 0.929 . S
H693 C651 0.930 . S
H694 C652 0.930 . S
H695 C653 0.930 . S
H696 C655 0.929 . S
H697 C656 0.930 . S
H698 C657 0.930 . S
H699 C658 0.930 . S
H700 C662 0.929 . S
H701 C664 0.930 . S
H702 C670 0.929 . S
H703 C671 0.930 . S
Li704 N721 1.990 . S
Li704 O764 1.956 . S
Li704 O765 1.970 . S
Li704 O766 1.961 . S
Li705 N729 1.990 . S
Li705 O764 1.970 . S
Li705 O765 1.956 . S
Li705 O767 1.961 . S
Li706 N751 1.990 . S
Li706 O764 1.961 . S
Li706 O766 1.956 . S
Li706 O767 1.970 . S
Li707 N757 1.990 . S
Li707 O765 1.961 . S
Li707 O766 1.970 . S
Li707 O767 1.956 . S
C708 C710 1.348 . S
C708 C711 1.356 1_556 S
C708 O764 1.325 . S
N709 C712 1.314 . S
N709 C713 1.279 . S
C710 C708 1.348 . S
C710 C712 1.353 1_556 S
C710 H768 0.929 . S
C711 C708 1.356 1_554 S
C711 C713 1.358 . S
C711 H769 0.938 . S
C712 N709 1.314 . S
C712 C710 1.353 1_554 S
C712 H770 0.930 . S
C713 N709 1.279 . S
C713 C711 1.358 . S
C713 H771 0.930 . S
C714 C717 1.348 . S
C714 C718 1.356 . S
C714 O765 1.325 . S
C715 N716 1.279 . S
C715 C718 1.358 . S
C715 H772 0.930 . S
N716 C715 1.279 . S
N716 C719 1.314 . S
C717 C714 1.348 . S
C717 C719 1.353 . S
C717 H773 0.929 . S
C718 C714 1.356 . S
C718 C715 1.358 . S
C718 H774 0.930 . S
C719 N716 1.314 . S
C719 C717 1.353 . S
C719 H775 0.930 . S
C720 N721 1.314 . S
C720 C725 1.353 . S
C720 H726 0.930 . S
N721 Li704 1.990 . S
N721 C720 1.314 . S
N721 C723 1.279 . S
C722 C723 1.358 . S
C722 C724 1.356 . S
C722 H776 0.930 . S
C723 N721 1.279 . S
C723 C722 1.358 . S
C723 H727 0.930 . S
C724 C722 1.356 . S
C724 C725 1.348 . S
C725 C720 1.353 . S
C725 C724 1.348 . S
C725 H777 0.929 . S
H726 C720 0.930 . S
H727 C723 0.930 . S
C728 N729 1.314 . S
C728 C730 1.353 . S
C728 H734 0.930 . S
N729 Li705 1.990 . S
N729 C728 1.314 . S
N729 C732 1.279 . S
C730 C728 1.353 . S
C730 C733 1.348 . S
C730 H778 0.929 . S
C731 C732 1.358 . S
C731 C733 1.356 . S
C731 H779 0.930 . S
C732 N729 1.279 . S
C732 C731 1.358 . S
C732 H735 0.930 . S
C733 C730 1.348 . S
C733 C731 1.356 . S
H734 C728 0.930 . S
H735 C732 0.930 . S
C736 C738 1.348 . S
C736 C739 1.356 . S
C736 O766 1.325 . S
N737 C740 1.314 . S
N737 C741 1.279 . S
C738 C736 1.348 . S
C738 C740 1.353 . S
C738 H780 0.929 . S
C739 C736 1.356 . S
C739 C741 1.358 . S
C739 H781 0.930 . S
C740 N737 1.314 . S
C740 C738 1.353 . S
C740 H782 0.930 . S
C741 N737 1.279 . S
C741 C739 1.358 . S
C741 H783 0.930 . S
C742 C743 1.348 . S
C742 C744 1.356 . S
C742 O767 1.325 . S
C743 C742 1.348 . S
C743 C745 1.353 . S
C743 H784 0.929 . S
C744 C742 1.356 . S
C744 C746 1.358 . S
C744 H785 0.930 . S
C745 C743 1.353 . S
C745 N747 1.314 . S
C745 H786 0.930 . S
C746 C744 1.358 . S
C746 N747 1.279 . S
C746 H787 0.930 . S
N747 C745 1.314 . S
N747 C746 1.279 . S
C748 C750 1.353 1_556 S
C748 N751 1.314 . S
C748 H754 0.930 . S
C749 N751 1.279 . S
C749 C752 1.358 . S
C749 H755 0.930 . S
C750 C748 1.353 1_554 S
C750 C753 1.344 1_554 S
C750 H788 0.929 . S
N751 Li706 1.990 . S
N751 C748 1.314 . S
N751 C749 1.279 . S
C752 C749 1.358 . S
C752 C753 1.371 . S
C752 H789 0.930 . S
C753 C750 1.344 1_556 S
C753 C752 1.371 . S
H754 C748 0.930 . S
H755 C749 0.930 . S
C756 N757 1.314 . S
C756 C758 1.353 . S
C756 H762 0.930 . S
N757 Li707 1.990 . S
N757 C756 1.314 . S
N757 C760 1.279 . S
C758 C756 1.353 . S
C758 C761 1.348 . S
C758 H790 0.929 . S
C759 C760 1.358 . S
C759 C761 1.356 . S
C759 H791 0.930 . S
C760 N757 1.279 . S
C760 C759 1.358 . S
C760 H763 0.930 . S
C761 C758 1.348 . S
C761 C759 1.356 . S
H762 C756 0.930 . S
H763 C760 0.930 . S
O764 Li704 1.956 . S
O764 Li705 1.970 . S
O764 Li706 1.961 . S
O764 C708 1.325 . S
O765 Li704 1.970 . S
O765 Li705 1.956 . S
O765 Li707 1.961 . S
O765 C714 1.325 . S
O766 Li704 1.961 . S
O766 Li706 1.956 . S
O766 Li707 1.970 . S
O766 C736 1.325 . S
O767 Li705 1.961 . S
O767 Li706 1.970 . S
O767 Li707 1.956 . S
O767 C742 1.325 . S
H768 C710 0.929 . S
H769 C711 0.938 . S
H770 C712 0.930 . S
H771 C713 0.930 . S
H772 C715 0.930 . S
H773 C717 0.929 . S
H774 C718 0.930 . S
H775 C719 0.930 . S
H776 C722 0.930 . S
H777 C725 0.929 . S
H778 C730 0.929 . S
H779 C731 0.930 . S
H780 C738 0.929 . S
H781 C739 0.930 . S
H782 C740 0.930 . S
H783 C741 0.930 . S
H784 C743 0.929 . S
H785 C744 0.930 . S
H786 C745 0.930 . S
H787 C746 0.930 . S
H788 C750 0.929 . S
H789 C752 0.930 . S
H790 C758 0.929 . S
H791 C759 0.930 . S
Li792 N809 1.990 . S
Li792 O852 1.956 . S
Li792 O853 1.970 . S
Li792 O854 1.961 . S
Li793 N817 1.990 . S
Li793 O852 1.970 . S
Li793 O853 1.956 . S
Li793 O855 1.961 . S
Li794 N839 1.990 . S
Li794 O852 1.961 . S
Li794 O854 1.956 . S
Li794 O855 1.970 . S
Li795 N845 1.990 . S
Li795 O853 1.961 . S
Li795 O854 1.970 . S
Li795 O855 1.956 . S
C796 C798 1.348 . S
C796 C799 1.356 . S
C796 O852 1.325 . S
N797 C800 1.314 . S
N797 C801 1.279 . S
C798 C796 1.348 . S
C798 C800 1.353 . S
C798 H856 0.929 . S
C799 C796 1.356 . S
C799 C801 1.358 . S
C799 H857 0.930 . S
C800 N797 1.314 . S
C800 C798 1.353 . S
C800 H858 0.930 . S
C801 N797 1.279 . S
C801 C799 1.358 . S
C801 H859 0.930 . S
C802 C805 1.348 . S
C802 C806 1.356 1_556 S
C802 O853 1.325 . S
C803 N804 1.279 . S
C803 C806 1.358 . S
C803 H860 0.930 . S
N804 C803 1.279 . S
N804 C807 1.314 . S
C805 C802 1.348 . S
C805 C807 1.353 1_556 S
C805 H861 0.929 . S
C806 C802 1.356 1_554 S
C806 C803 1.358 . S
C806 H862 0.938 . S
C807 N804 1.314 . S
C807 C805 1.353 1_554 S
C807 H863 0.930 . S
C808 N809 1.314 . S
C808 C813 1.353 . S
C808 H814 0.930 . S
N809 Li792 1.990 . S
N809 C808 1.314 . S
N809 C811 1.279 . S
C810 C811 1.358 . S
C810 C812 1.356 . S
C810 H864 0.930 . S
C811 N809 1.279 . S
C811 C810 1.358 . S
C811 H815 0.930 . S
C812 C810 1.356 . S
C812 C813 1.348 . S
C813 C808 1.353 . S
C813 C812 1.348 . S
C813 H865 0.929 . S
H814 C808 0.930 . S
H815 C811 0.930 . S
C816 N817 1.314 . S
C816 C818 1.353 . S
C816 H822 0.930 . S
N817 Li793 1.990 . S
N817 C816 1.314 . S
N817 C820 1.279 . S
C818 C816 1.353 . S
C818 C821 1.348 . S
C818 H866 0.929 . S
C819 C820 1.358 . S
C819 C821 1.356 . S
C819 H867 0.930 . S
C820 N817 1.279 . S
C820 C819 1.358 . S
C820 H823 0.930 . S
C821 C818 1.348 . S
C821 C819 1.356 . S
H822 C816 0.930 . S
H823 C820 0.930 . S
C824 C826 1.348 . S
C824 C827 1.356 . S
C824 O854 1.325 . S
N825 C828 1.314 . S
N825 C829 1.279 . S
C826 C824 1.348 . S
C826 C828 1.353 . S
C826 H868 0.929 . S
C827 C824 1.356 . S
C827 C829 1.358 . S
C827 H869 0.930 . S
C828 N825 1.314 . S
C828 C826 1.353 . S
C828 H870 0.930 . S
C829 N825 1.279 . S
C829 C827 1.358 . S
C829 H871 0.930 . S
C830 C831 1.348 . S
C830 C832 1.356 . S
C830 O855 1.325 . S
C831 C830 1.348 . S
C831 C833 1.353 . S
C831 H872 0.929 . S
C832 C830 1.356 . S
C832 C834 1.358 . S
C832 H873 0.930 . S
C833 C831 1.353 . S
C833 N835 1.314 . S
C833 H874 0.930 . S
C834 C832 1.358 . S
C834 N835 1.279 . S
C834 H875 0.930 . S
N835 C833 1.314 . S
N835 C834 1.279 . S
C836 C838 1.353 . S
C836 N839 1.314 . S
C836 H842 0.930 . S
C837 N839 1.279 . S
C837 C840 1.358 . S
C837 H843 0.930 . S
C838 C836 1.353 . S
C838 C841 1.348 . S
C838 H876 0.929 . S
N839 Li794 1.990 . S
N839 C836 1.314 . S
N839 C837 1.279 . S
C840 C837 1.358 . S
C840 C841 1.356 . S
C840 H877 0.930 . S
C841 C838 1.348 . S
C841 C840 1.356 . S
H842 C836 0.930 . S
H843 C837 0.930 . S
C844 N845 1.314 . S
C844 C846 1.353 1_556 S
C844 H850 0.930 . S
N845 Li795 1.990 . S
N845 C844 1.314 . S
N845 C848 1.279 . S
C846 C844 1.353 1_554 S
C846 C849 1.344 1_554 S
C846 H878 0.929 . S
C847 C848 1.358 . S
C847 C849 1.371 . S
C847 H879 0.930 . S
C848 N845 1.279 . S
C848 C847 1.358 . S
C848 H851 0.930 . S
C849 C846 1.344 1_556 S
C849 C847 1.371 . S
H850 C844 0.930 . S
H851 C848 0.930 . S
O852 Li792 1.956 . S
O852 Li793 1.970 . S
O852 Li794 1.961 . S
O852 C796 1.325 . S
O853 Li792 1.970 . S
O853 Li793 1.956 . S
O853 Li795 1.961 . S
O853 C802 1.325 . S
O854 Li792 1.961 . S
O854 Li794 1.956 . S
O854 Li795 1.970 . S
O854 C824 1.325 . S
O855 Li793 1.961 . S
O855 Li794 1.970 . S
O855 Li795 1.956 . S
O855 C830 1.325 . S
H856 C798 0.929 . S
H857 C799 0.930 . S
H858 C800 0.930 . S
H859 C801 0.930 . S
H860 C803 0.930 . S
H861 C805 0.929 . S
H862 C806 0.938 . S
H863 C807 0.930 . S
H864 C810 0.930 . S
H865 C813 0.929 . S
H866 C818 0.929 . S
H867 C819 0.930 . S
H868 C826 0.929 . S
H869 C827 0.930 . S
H870 C828 0.930 . S
H871 C829 0.930 . S
H872 C831 0.929 . S
H873 C832 0.930 . S
H874 C833 0.930 . S
H875 C834 0.930 . S
H876 C838 0.929 . S
H877 C840 0.930 . S
H878 C846 0.929 . S
H879 C847 0.930 . S
Li880 N897 1.990 . S
Li880 O940 1.956 . S
Li880 O941 1.970 . S
Li880 O942 1.961 . S
Li881 N905 1.990 . S
Li881 O940 1.970 . S
Li881 O941 1.956 . S
Li881 O943 1.961 . S
Li882 N927 1.990 . S
Li882 O940 1.961 . S
Li882 O942 1.956 . S
Li882 O943 1.970 . S
Li883 N933 1.990 . S
Li883 O941 1.961 . S
Li883 O942 1.970 . S
Li883 O943 1.956 . S
C884 C886 1.348 . S
C884 C887 1.356 . S
C884 O940 1.325 . S
N885 C888 1.314 . S
N885 C889 1.279 . S
C886 C884 1.348 . S
C886 C888 1.353 . S
C886 H944 0.929 . S
C887 C884 1.356 . S
C887 C889 1.358 . S
C887 H945 0.930 . S
C888 N885 1.314 . S
C888 C886 1.353 . S
C888 H946 0.930 . S
C889 N885 1.279 . S
C889 C887 1.358 . S
C889 H947 0.930 . S
C890 C893 1.348 . S
C890 C894 1.356 . S
C890 O941 1.325 . S
C891 N892 1.279 . S
C891 C894 1.358 1_655 S
C891 H948 0.930 . S
N892 C891 1.279 . S
N892 C895 1.314 . S
C893 C890 1.348 . S
C893 C895 1.353 1_455 S
C893 H949 0.929 . S
C894 C890 1.356 . S
C894 C891 1.358 1_455 S
C894 H950 0.930 . S
C895 N892 1.314 . S
C895 C893 1.353 1_655 S
C895 H951 0.930 . S
C896 N897 1.314 . S
C896 C901 1.353 . S
C896 H902 0.930 . S
N897 Li880 1.990 . S
N897 C896 1.314 . S
N897 C899 1.279 . S
C898 C899 1.358 . S
C898 C900 1.356 . S
C898 H952 0.930 . S
C899 N897 1.279 . S
C899 C898 1.358 . S
C899 H903 0.930 . S
C900 C898 1.356 . S
C900 C901 1.348 . S
C901 C896 1.353 . S
C901 C900 1.348 . S
C901 H953 0.929 . S
H902 C896 0.930 . S
H903 C899 0.930 . S
C904 N905 1.314 . S
C904 C906 1.353 1_556 S
C904 H910 0.930 . S
N905 Li881 1.990 . S
N905 C904 1.314 . S
N905 C908 1.279 . S
C906 C904 1.353 1_554 S
C906 C909 1.344 1_554 S
C906 H954 0.929 . S
C907 C908 1.358 . S
C907 C909 1.371 . S
C907 H955 0.930 . S
C908 N905 1.279 . S
C908 C907 1.358 . S
C908 H911 0.930 . S
C909 C906 1.344 1_556 S
C909 C907 1.371 . S
H910 C904 0.930 . S
H911 C908 0.930 . S
C912 C914 1.348 . S
C912 C915 1.356 . S
C912 O942 1.325 . S
N913 C916 1.314 . S
N913 C917 1.279 . S
C914 C912 1.348 . S
C914 C916 1.353 . S
C914 H956 0.929 . S
C915 C912 1.356 . S
C915 C917 1.358 . S
C915 H957 0.930 . S
C916 N913 1.314 . S
C916 C914 1.353 . S
C916 H958 0.930 . S
C917 N913 1.279 . S
C917 C915 1.358 . S
C917 H959 0.930 . S
C918 C919 1.348 . S
C918 C920 1.356 1_556 S
C918 O943 1.325 . S
C919 C918 1.348 . S
C919 C921 1.353 1_556 S
C919 H960 0.929 . S
C920 C918 1.356 1_554 S
C920 C922 1.358 . S
C920 H961 0.938 . S
C921 C919 1.353 1_554 S
C921 N923 1.314 . S
C921 H962 0.930 . S
C922 C920 1.358 . S
C922 N923 1.279 . S
C922 H963 0.930 . S
N923 C921 1.314 . S
N923 C922 1.279 . S
C924 C926 1.353 . S
C924 N927 1.314 . S
C924 H930 0.930 . S
C925 N927 1.279 . S
C925 C928 1.358 . S
C925 H931 0.930 . S
C926 C924 1.353 . S
C926 C929 1.348 . S
C926 H964 0.929 . S
N927 Li882 1.990 . S
N927 C924 1.314 . S
N927 C925 1.279 . S
C928 C925 1.358 . S
C928 C929 1.356 . S
C928 H965 0.930 . S
C929 C926 1.348 . S
C929 C928 1.356 . S
H930 C924 0.930 . S
H931 C925 0.930 . S
C932 N933 1.314 . S
C932 C934 1.353 1_455 S
C932 H938 0.930 . S
N933 Li883 1.990 . S
N933 C932 1.314 . S
N933 C936 1.279 . S
C934 C932 1.353 1_655 S
C934 C937 1.348 . S
C934 H966 0.929 . S
C935 C936 1.358 . S
C935 C937 1.356 1_455 S
C935 H967 0.930 . S
C936 N933 1.279 . S
C936 C935 1.358 . S
C936 H939 0.930 . S
C937 C934 1.348 . S
C937 C935 1.356 1_655 S
H938 C932 0.930 . S
H939 C936 0.930 . S
O940 Li880 1.956 . S
O940 Li881 1.970 . S
O940 Li882 1.961 . S
O940 C884 1.325 . S
O941 Li880 1.970 . S
O941 Li881 1.956 . S
O941 Li883 1.961 . S
O941 C890 1.325 . S
O942 Li880 1.961 . S
O942 Li882 1.956 . S
O942 Li883 1.970 . S
O942 C912 1.325 . S
O943 Li881 1.961 . S
O943 Li882 1.970 . S
O943 Li883 1.956 . S
O943 C918 1.325 . S
H944 C886 0.929 . S
H945 C887 0.930 . S
H946 C888 0.930 . S
H947 C889 0.930 . S
H948 C891 0.930 . S
H949 C893 0.929 . S
H950 C894 0.930 . S
H951 C895 0.930 . S
H952 C898 0.930 . S
H953 C901 0.929 . S
H954 C906 0.929 . S
H955 C907 0.930 . S
H956 C914 0.929 . S
H957 C915 0.930 . S
H958 C916 0.930 . S
H959 C917 0.930 . S
H960 C919 0.929 . S
H961 C920 0.938 . S
H962 C921 0.930 . S
H963 C922 0.930 . S
H964 C926 0.929 . S
H965 C928 0.930 . S
H966 C934 0.929 . S
H967 C935 0.930 . S
Li968 N985 1.990 . S
Li968 O1028 1.956 . S
Li968 O1029 1.970 . S
Li968 O1030 1.961 . S
Li969 N993 1.990 . S
Li969 O1028 1.970 . S
Li969 O1029 1.956 . S
Li969 O1031 1.961 . S
Li970 N1015 1.990 . S
Li970 O1028 1.961 . S
Li970 O1030 1.956 . S
Li970 O1031 1.970 . S
Li971 N1021 1.990 . S
Li971 O1029 1.961 . S
Li971 O1030 1.970 . S
Li971 O1031 1.956 . S
C972 C974 1.348 . S
C972 C975 1.356 . S
C972 O1028 1.325 . S
N973 C976 1.314 . S
N973 C977 1.279 . S
C974 C972 1.348 . S
C974 C976 1.353 . S
C974 H1032 0.929 . S
C975 C972 1.356 . S
C975 C977 1.358 . S
C975 H1033 0.930 . S
C976 N973 1.314 . S
C976 C974 1.353 . S
C976 H1034 0.930 . S
C977 N973 1.279 . S
C977 C975 1.358 . S
C977 H1035 0.930 . S
C978 C981 1.348 . S
C978 C982 1.356 1_556 S
C978 O1029 1.325 . S
C979 N980 1.279 . S
C979 C982 1.358 . S
C979 H1036 0.930 . S
N980 C979 1.279 . S
N980 C983 1.314 . S
C981 C978 1.348 . S
C981 C983 1.353 1_556 S
C981 H1037 0.929 . S
C982 C978 1.356 1_554 S
C982 C979 1.358 . S
C982 H1038 0.938 . S
C983 N980 1.314 . S
C983 C981 1.353 1_554 S
C983 H1039 0.930 . S
C984 N985 1.314 . S
C984 C989 1.353 . S
C984 H990 0.930 . S
N985 Li968 1.990 . S
N985 C984 1.314 . S
N985 C987 1.279 . S
C986 C987 1.358 . S
C986 C988 1.356 . S
C986 H1040 0.930 . S
C987 N985 1.279 . S
C987 C986 1.358 . S
C987 H991 0.930 . S
C988 C986 1.356 . S
C988 C989 1.348 . S
C989 C984 1.353 . S
C989 C988 1.348 . S
C989 H1041 0.929 . S
H990 C984 0.930 . S
H991 C987 0.930 . S
C992 N993 1.314 . S
C992 C994 1.353 1_545 S
C992 H998 0.930 . S
N993 Li969 1.990 . S
N993 C992 1.314 . S
N993 C996 1.279 . S
C994 C992 1.353 1_565 S
C994 C997 1.348 . S
C994 H1042 0.929 . S
C995 C996 1.358 . S
C995 C997 1.356 1_545 S
C995 H1043 0.930 . S
C996 N993 1.279 . S
C996 C995 1.358 . S
C996 H999 0.930 . S
C997 C994 1.348 . S
C997 C995 1.356 1_565 S
H998 C992 0.930 . S
H999 C996 0.930 . S
C1000 C1002 1.348 . S
C1000 C1003 1.356 . S
C1000 O1030 1.325 . S
N1001 C1004 1.314 . S
N1001 C1005 1.279 . S
C1002 C1000 1.348 . S
C1002 C1004 1.353 . S
C1002 H1044 0.929 . S
C1003 C1000 1.356 . S
C1003 C1005 1.358 . S
C1003 H1045 0.930 . S
C1004 N1001 1.314 . S
C1004 C1002 1.353 . S
C1004 H1046 0.930 . S
C1005 N1001 1.279 . S
C1005 C1003 1.358 . S
C1005 H1047 0.930 . S
C1006 C1007 1.348 . S
C1006 C1008 1.356 . S
C1006 O1031 1.325 . S
C1007 C1006 1.348 . S
C1007 C1009 1.353 1_545 S
C1007 H1048 0.929 . S
C1008 C1006 1.356 . S
C1008 C1010 1.358 1_545 S
C1008 H1049 0.930 . S
C1009 C1007 1.353 1_565 S
C1009 N1011 1.314 . S
C1009 H1050 0.930 . S
C1010 C1008 1.358 1_565 S
C1010 N1011 1.279 . S
C1010 H1051 0.930 . S
N1011 C1009 1.314 . S
N1011 C1010 1.279 . S
C1012 C1014 1.353 . S
C1012 N1015 1.314 . S
C1012 H1018 0.930 . S
C1013 N1015 1.279 . S
C1013 C1016 1.358 . S
C1013 H1019 0.930 . S
C1014 C1012 1.353 . S
C1014 C1017 1.348 . S
C1014 H1052 0.929 . S
N1015 Li970 1.990 . S
N1015 C1012 1.314 . S
N1015 C1013 1.279 . S
C1016 C1013 1.358 . S
C1016 C1017 1.356 . S
C1016 H1053 0.930 . S
C1017 C1014 1.348 . S
C1017 C1016 1.356 . S
H1018 C1012 0.930 . S
H1019 C1013 0.930 . S
C1020 N1021 1.314 . S
C1020 C1022 1.353 1_556 S
C1020 H1026 0.930 . S
N1021 Li971 1.990 . S
N1021 C1020 1.314 . S
N1021 C1024 1.279 . S
C1022 C1020 1.353 1_554 S
C1022 C1025 1.344 1_554 S
C1022 H1054 0.929 . S
C1023 C1024 1.358 . S
C1023 C1025 1.371 . S
C1023 H1055 0.930 . S
C1024 N1021 1.279 . S
C1024 C1023 1.358 . S
C1024 H1027 0.930 . S
C1025 C1022 1.344 1_556 S
C1025 C1023 1.371 . S
H1026 C1020 0.930 . S
H1027 C1024 0.930 . S
O1028 Li968 1.956 . S
O1028 Li969 1.970 . S
O1028 Li970 1.961 . S
O1028 C972 1.325 . S
O1029 Li968 1.970 . S
O1029 Li969 1.956 . S
O1029 Li971 1.961 . S
O1029 C978 1.325 . S
O1030 Li968 1.961 . S
O1030 Li970 1.956 . S
O1030 Li971 1.970 . S
O1030 C1000 1.325 . S
O1031 Li969 1.961 . S
O1031 Li970 1.970 . S
O1031 Li971 1.956 . S
O1031 C1006 1.325 . S
H1032 C974 0.929 . S
H1033 C975 0.930 . S
H1034 C976 0.930 . S
H1035 C977 0.930 . S
H1036 C979 0.930 . S
H1037 C981 0.929 . S
H1038 C982 0.938 . S
H1039 C983 0.930 . S
H1040 C986 0.930 . S
H1041 C989 0.929 . S
H1042 C994 0.929 . S
H1043 C995 0.930 . S
H1044 C1002 0.929 . S
H1045 C1003 0.930 . S
H1046 C1004 0.930 . S
H1047 C1005 0.930 . S
H1048 C1007 0.929 . S
H1049 C1008 0.930 . S
H1050 C1009 0.930 . S
H1051 C1010 0.930 . S
H1052 C1014 0.929 . S
H1053 C1016 0.930 . S
H1054 C1022 0.929 . S
H1055 C1023 0.930 . S
Li1056 N1073 1.990 . S
Li1056 O1116 1.956 . S
Li1056 O1117 1.970 . S
Li1056 O1118 1.961 . S
Li1057 N1081 1.990 . S
Li1057 O1116 1.970 . S
Li1057 O1117 1.956 . S
Li1057 O1119 1.961 . S
Li1058 N1103 1.990 . S
Li1058 O1116 1.961 . S
Li1058 O1118 1.956 . S
Li1058 O1119 1.970 . S
Li1059 N1109 1.990 . S
Li1059 O1117 1.961 . S
Li1059 O1118 1.970 . S
Li1059 O1119 1.956 . S
C1060 C1062 1.348 . S
C1060 C1063 1.356 . S
C1060 O1116 1.325 . S
N1061 C1064 1.314 . S
N1061 C1065 1.279 . S
C1062 C1060 1.348 . S
C1062 C1064 1.353 . S
C1062 H1120 0.929 . S
C1063 C1060 1.356 . S
C1063 C1065 1.358 . S
C1063 H1121 0.930 . S
C1064 N1061 1.314 . S
C1064 C1062 1.353 . S
C1064 H1122 0.930 . S
C1065 N1061 1.279 . S
C1065 C1063 1.358 . S
C1065 H1123 0.930 . S
C1066 C1069 1.348 . S
C1066 C1070 1.356 . S
C1066 O1117 1.325 . S
C1067 N1068 1.279 . S
C1067 C1070 1.358 . S
C1067 H1124 0.930 . S
N1068 C1067 1.279 . S
N1068 C1071 1.314 . S
C1069 C1066 1.348 . S
C1069 C1071 1.353 . S
C1069 H1125 0.929 . S
C1070 C1066 1.356 . S
C1070 C1067 1.358 . S
C1070 H1126 0.930 . S
C1071 N1068 1.314 . S
C1071 C1069 1.353 . S
C1071 H1127 0.930 . S
C1072 N1073 1.314 . S
C1072 C1077 1.353 . S
C1072 H1078 0.930 . S
N1073 Li1056 1.990 . S
N1073 C1072 1.314 . S
N1073 C1075 1.279 . S
C1074 C1075 1.358 . S
C1074 C1076 1.356 . S
C1074 H1128 0.930 . S
C1075 N1073 1.279 . S
C1075 C1074 1.358 . S
C1075 H1079 0.930 . S
C1076 C1074 1.356 . S
C1076 C1077 1.348 . S
C1077 C1072 1.353 . S
C1077 C1076 1.348 . S
C1077 H1129 0.929 . S
H1078 C1072 0.930 . S
H1079 C1075 0.930 . S
C1080 N1081 1.314 . S
C1080 C1082 1.353 . S
C1080 H1086 0.930 . S
N1081 Li1057 1.990 . S
N1081 C1080 1.314 . S
N1081 C1084 1.279 . S
C1082 C1080 1.353 . S
C1082 C1085 1.348 . S
C1082 H1130 0.929 . S
C1083 C1084 1.358 . S
C1083 C1085 1.356 . S
C1083 H1131 0.930 . S
C1084 N1081 1.279 . S
C1084 C1083 1.358 . S
C1084 H1087 0.930 . S
C1085 C1082 1.348 . S
C1085 C1083 1.356 . S
H1086 C1080 0.930 . S
H1087 C1084 0.930 . S
C1088 C1090 1.348 . S
C1088 C1091 1.356 . S
C1088 O1118 1.325 . S
N1089 C1092 1.314 . S
N1089 C1093 1.279 . S
C1090 C1088 1.348 . S
C1090 C1092 1.353 . S
C1090 H1132 0.929 . S
C1091 C1088 1.356 . S
C1091 C1093 1.358 . S
C1091 H1133 0.930 . S
C1092 N1089 1.314 . S
C1092 C1090 1.353 . S
C1092 H1134 0.930 . S
C1093 N1089 1.279 . S
C1093 C1091 1.358 . S
C1093 H1135 0.930 . S
C1094 C1095 1.348 . S
C1094 C1096 1.356 . S
C1094 O1119 1.325 . S
C1095 C1094 1.348 . S
C1095 C1097 1.353 . S
C1095 H1136 0.929 . S
C1096 C1094 1.356 . S
C1096 C1098 1.358 . S
C1096 H1137 0.930 . S
C1097 C1095 1.353 . S
C1097 N1099 1.314 . S
C1097 H1138 0.930 . S
C1098 C1096 1.358 . S
C1098 N1099 1.279 . S
C1098 H1139 0.930 . S
N1099 C1097 1.314 . S
N1099 C1098 1.279 . S
C1100 C1102 1.353 . S
C1100 N1103 1.314 . S
C1100 H1106 0.930 . S
C1101 N1103 1.279 . S
C1101 C1104 1.358 . S
C1101 H1107 0.930 . S
C1102 C1100 1.353 . S
C1102 C1105 1.348 . S
C1102 H1140 0.929 . S
N1103 Li1058 1.990 . S
N1103 C1100 1.314 . S
N1103 C1101 1.279 . S
C1104 C1101 1.358 . S
C1104 C1105 1.356 . S
C1104 H1141 0.930 . S
C1105 C1102 1.348 . S
C1105 C1104 1.356 . S
H1106 C1100 0.930 . S
H1107 C1101 0.930 . S
C1108 N1109 1.314 . S
C1108 C1110 1.353 . S
C1108 H1114 0.930 . S
N1109 Li1059 1.990 . S
N1109 C1108 1.314 . S
N1109 C1112 1.279 . S
C1110 C1108 1.353 . S
C1110 C1113 1.348 . S
C1110 H1142 0.929 . S
C1111 C1112 1.358 . S
C1111 C1113 1.356 . S
C1111 H1143 0.930 . S
C1112 N1109 1.279 . S
C1112 C1111 1.358 . S
C1112 H1115 0.930 . S
C1113 C1110 1.348 . S
C1113 C1111 1.356 . S
H1114 C1108 0.930 . S
H1115 C1112 0.930 . S
O1116 Li1056 1.956 . S
O1116 Li1057 1.970 . S
O1116 Li1058 1.961 . S
O1116 C1060 1.325 . S
O1117 Li1056 1.970 . S
O1117 Li1057 1.956 . S
O1117 Li1059 1.961 . S
O1117 C1066 1.325 . S
O1118 Li1056 1.961 . S
O1118 Li1058 1.956 . S
O1118 Li1059 1.970 . S
O1118 C1088 1.325 . S
O1119 Li1057 1.961 . S
O1119 Li1058 1.970 . S
O1119 Li1059 1.956 . S
O1119 C1094 1.325 . S
H1120 C1062 0.929 . S
H1121 C1063 0.930 . S
H1122 C1064 0.930 . S
H1123 C1065 0.930 . S
H1124 C1067 0.930 . S
H1125 C1069 0.929 . S
H1126 C1070 0.930 . S
H1127 C1071 0.930 . S
H1128 C1074 0.930 . S
H1129 C1077 0.929 . S
H1130 C1082 0.929 . S
H1131 C1083 0.930 . S
H1132 C1090 0.929 . S
H1133 C1091 0.930 . S
H1134 C1092 0.930 . S
H1135 C1093 0.930 . S
H1136 C1095 0.929 . S
H1137 C1096 0.930 . S
H1138 C1097 0.930 . S
H1139 C1098 0.930 . S
H1140 C1102 0.929 . S
H1141 C1104 0.930 . S
H1142 C1110 0.929 . S
H1143 C1111 0.930 . S
Li1144 N1161 1.990 . S
Li1144 O1204 1.956 . S
Li1144 O1205 1.970 . S
Li1144 O1206 1.961 . S
Li1145 N1169 1.990 . S
Li1145 O1204 1.970 . S
Li1145 O1205 1.956 . S
Li1145 O1207 1.961 . S
Li1146 N1191 1.990 . S
Li1146 O1204 1.961 . S
Li1146 O1206 1.956 . S
Li1146 O1207 1.970 . S
Li1147 N1197 1.990 . S
Li1147 O1205 1.961 . S
Li1147 O1206 1.970 . S
Li1147 O1207 1.956 . S
C1148 C1150 1.348 . S
C1148 C1151 1.356 . S
C1148 O1204 1.325 . S
N1149 C1152 1.314 . S
N1149 C1153 1.279 . S
C1150 C1148 1.348 . S
C1150 C1152 1.353 . S
C1150 H1208 0.929 . S
C1151 C1148 1.356 . S
C1151 C1153 1.358 . S
C1151 H1209 0.930 . S
C1152 N1149 1.314 . S
C1152 C1150 1.353 . S
C1152 H1210 0.930 . S
C1153 N1149 1.279 . S
C1153 C1151 1.358 . S
C1153 H1211 0.930 . S
C1154 C1157 1.348 . S
C1154 C1158 1.356 . S
C1154 O1205 1.325 . S
C1155 N1156 1.279 . S
C1155 C1158 1.358 . S
C1155 H1212 0.930 . S
N1156 C1155 1.279 . S
N1156 C1159 1.314 . S
C1157 C1154 1.348 . S
C1157 C1159 1.353 . S
C1157 H1213 0.929 . S
C1158 C1154 1.356 . S
C1158 C1155 1.358 . S
C1158 H1214 0.930 . S
C1159 N1156 1.314 . S
C1159 C1157 1.353 . S
C1159 H1215 0.930 . S
C1160 N1161 1.314 . S
C1160 C1165 1.353 . S
C1160 H1166 0.930 . S
N1161 Li1144 1.990 . S
N1161 C1160 1.314 . S
N1161 C1163 1.279 . S
C1162 C1163 1.358 . S
C1162 C1164 1.356 . S
C1162 H1216 0.930 . S
C1163 N1161 1.279 . S
C1163 C1162 1.358 . S
C1163 H1167 0.930 . S
C1164 C1162 1.356 . S
C1164 C1165 1.348 . S
C1165 C1160 1.353 . S
C1165 C1164 1.348 . S
C1165 H1217 0.929 . S
H1166 C1160 0.930 . S
H1167 C1163 0.930 . S
C1168 N1169 1.314 . S
C1168 C1170 1.353 . S
C1168 H1174 0.930 . S
N1169 Li1145 1.990 . S
N1169 C1168 1.314 . S
N1169 C1172 1.279 . S
C1170 C1168 1.353 . S
C1170 C1173 1.348 . S
C1170 H1218 0.929 . S
C1171 C1172 1.358 . S
C1171 C1173 1.356 . S
C1171 H1219 0.930 . S
C1172 N1169 1.279 . S
C1172 C1171 1.358 . S
C1172 H1175 0.930 . S
C1173 C1170 1.348 . S
C1173 C1171 1.356 . S
H1174 C1168 0.930 . S
H1175 C1172 0.930 . S
C1176 C1178 1.348 . S
C1176 C1179 1.356 . S
C1176 O1206 1.325 . S
N1177 C1180 1.314 . S
N1177 C1181 1.279 . S
C1178 C1176 1.348 . S
C1178 C1180 1.353 . S
C1178 H1220 0.929 . S
C1179 C1176 1.356 . S
C1179 C1181 1.358 . S
C1179 H1221 0.930 . S
C1180 N1177 1.314 . S
C1180 C1178 1.353 . S
C1180 H1222 0.930 . S
C1181 N1177 1.279 . S
C1181 C1179 1.358 . S
C1181 H1223 0.930 . S
C1182 C1183 1.348 . S
C1182 C1184 1.356 . S
C1182 O1207 1.325 . S
C1183 C1182 1.348 . S
C1183 C1185 1.353 . S
C1183 H1224 0.929 . S
C1184 C1182 1.356 . S
C1184 C1186 1.358 . S
C1184 H1225 0.930 . S
C1185 C1183 1.353 . S
C1185 N1187 1.314 . S
C1185 H1226 0.930 . S
C1186 C1184 1.358 . S
C1186 N1187 1.279 . S
C1186 H1227 0.930 . S
N1187 C1185 1.314 . S
N1187 C1186 1.279 . S
C1188 C1190 1.353 . S
C1188 N1191 1.314 . S
C1188 H1194 0.930 . S
C1189 N1191 1.279 . S
C1189 C1192 1.358 . S
C1189 H1195 0.930 . S
C1190 C1188 1.353 . S
C1190 C1193 1.348 . S
C1190 H1228 0.929 . S
N1191 Li1146 1.990 . S
N1191 C1188 1.314 . S
N1191 C1189 1.279 . S
C1192 C1189 1.358 . S
C1192 C1193 1.356 . S
C1192 H1229 0.930 . S
C1193 C1190 1.348 . S
C1193 C1192 1.356 . S
H1194 C1188 0.930 . S
H1195 C1189 0.930 . S
C1196 N1197 1.314 . S
C1196 C1198 1.353 . S
C1196 H1202 0.930 . S
N1197 Li1147 1.990 . S
N1197 C1196 1.314 . S
N1197 C1200 1.279 . S
C1198 C1196 1.353 . S
C1198 C1201 1.348 . S
C1198 H1230 0.929 . S
C1199 C1200 1.358 . S
C1199 C1201 1.356 . S
C1199 H1231 0.930 . S
C1200 N1197 1.279 . S
C1200 C1199 1.358 . S
C1200 H1203 0.930 . S
C1201 C1198 1.348 . S
C1201 C1199 1.356 . S
H1202 C1196 0.930 . S
H1203 C1200 0.930 . S
O1204 Li1144 1.956 . S
O1204 Li1145 1.970 . S
O1204 Li1146 1.961 . S
O1204 C1148 1.325 . S
O1205 Li1144 1.970 . S
O1205 Li1145 1.956 . S
O1205 Li1147 1.961 . S
O1205 C1154 1.325 . S
O1206 Li1144 1.961 . S
O1206 Li1146 1.956 . S
O1206 Li1147 1.970 . S
O1206 C1176 1.325 . S
O1207 Li1145 1.961 . S
O1207 Li1146 1.970 . S
O1207 Li1147 1.956 . S
O1207 C1182 1.325 . S
H1208 C1150 0.929 . S
H1209 C1151 0.930 . S
H1210 C1152 0.930 . S
H1211 C1153 0.930 . S
H1212 C1155 0.930 . S
H1213 C1157 0.929 . S
H1214 C1158 0.930 . S
H1215 C1159 0.930 . S
H1216 C1162 0.930 . S
H1217 C1165 0.929 . S
H1218 C1170 0.929 . S
H1219 C1171 0.930 . S
H1220 C1178 0.929 . S
H1221 C1179 0.930 . S
H1222 C1180 0.930 . S
H1223 C1181 0.930 . S
H1224 C1183 0.929 . S
H1225 C1184 0.930 . S
H1226 C1185 0.930 . S
H1227 C1186 0.930 . S
H1228 C1190 0.929 . S
H1229 C1192 0.930 . S
H1230 C1198 0.929 . S
H1231 C1199 0.930 . S
Li1232 N1249 1.990 . S
Li1232 O1292 1.956 . S
Li1232 O1293 1.970 . S
Li1232 O1294 1.961 . S
Li1233 N1257 1.990 . S
Li1233 O1292 1.970 . S
Li1233 O1293 1.956 . S
Li1233 O1295 1.961 . S
Li1234 N1279 1.990 . S
Li1234 O1292 1.961 . S
Li1234 O1294 1.956 . S
Li1234 O1295 1.970 . S
Li1235 N1285 1.990 . S
Li1235 O1293 1.961 . S
Li1235 O1294 1.970 . S
Li1235 O1295 1.956 . S
C1236 C1238 1.348 . S
C1236 C1239 1.356 . S
C1236 O1292 1.325 . S
N1237 C1240 1.314 . S
N1237 C1241 1.279 . S
C1238 C1236 1.348 . S
C1238 C1240 1.353 . S
C1238 H1296 0.929 . S
C1239 C1236 1.356 . S
C1239 C1241 1.358 . S
C1239 H1297 0.930 . S
C1240 N1237 1.314 . S
C1240 C1238 1.353 . S
C1240 H1298 0.930 . S
C1241 N1237 1.279 . S
C1241 C1239 1.358 . S
C1241 H1299 0.930 . S
C1242 C1245 1.348 . S
C1242 C1246 1.356 . S
C1242 O1293 1.325 . S
C1243 N1244 1.279 . S
C1243 C1246 1.358 . S
C1243 H1300 0.930 . S
N1244 C1243 1.279 . S
N1244 C1247 1.314 . S
C1245 C1242 1.348 . S
C1245 C1247 1.353 . S
C1245 H1301 0.929 . S
C1246 C1242 1.356 . S
C1246 C1243 1.358 . S
C1246 H1302 0.930 . S
C1247 N1244 1.314 . S
C1247 C1245 1.353 . S
C1247 H1303 0.930 . S
C1248 N1249 1.314 . S
C1248 C1253 1.353 . S
C1248 H1254 0.930 . S
N1249 Li1232 1.990 . S
N1249 C1248 1.314 . S
N1249 C1251 1.279 . S
C1250 C1251 1.358 . S
C1250 C1252 1.356 . S
C1250 H1304 0.930 . S
C1251 N1249 1.279 . S
C1251 C1250 1.358 . S
C1251 H1255 0.930 . S
C1252 C1250 1.356 . S
C1252 C1253 1.348 . S
C1253 C1248 1.353 . S
C1253 C1252 1.348 . S
C1253 H1305 0.929 . S
H1254 C1248 0.930 . S
H1255 C1251 0.930 . S
C1256 N1257 1.314 . S
C1256 C1258 1.353 1_455 S
C1256 H1262 0.930 . S
N1257 Li1233 1.990 . S
N1257 C1256 1.314 . S
N1257 C1260 1.279 . S
C1258 C1256 1.353 1_655 S
C1258 C1261 1.348 . S
C1258 H1306 0.929 . S
C1259 C1260 1.358 . S
C1259 C1261 1.356 1_455 S
C1259 H1307 0.930 . S
C1260 N1257 1.279 . S
C1260 C1259 1.358 . S
C1260 H1263 0.930 . S
C1261 C1258 1.348 . S
C1261 C1259 1.356 1_655 S
H1262 C1256 0.930 . S
H1263 C1260 0.930 . S
C1264 C1266 1.348 . S
C1264 C1267 1.356 . S
C1264 O1294 1.325 . S
N1265 C1268 1.314 . S
N1265 C1269 1.279 . S
C1266 C1264 1.348 . S
C1266 C1268 1.353 . S
C1266 H1308 0.929 . S
C1267 C1264 1.356 . S
C1267 C1269 1.358 . S
C1267 H1309 0.930 . S
C1268 N1265 1.314 . S
C1268 C1266 1.353 . S
C1268 H1310 0.930 . S
C1269 N1265 1.279 . S
C1269 C1267 1.358 . S
C1269 H1311 0.930 . S
C1270 C1271 1.348 . S
C1270 C1272 1.356 . S
C1270 O1295 1.325 . S
C1271 C1270 1.348 . S
C1271 C1273 1.353 1_455 S
C1271 H1312 0.929 . S
C1272 C1270 1.356 . S
C1272 C1274 1.358 1_455 S
C1272 H1313 0.930 . S
C1273 C1271 1.353 1_655 S
C1273 N1275 1.314 . S
C1273 H1314 0.930 . S
C1274 C1272 1.358 1_655 S
C1274 N1275 1.279 . S
C1274 H1315 0.930 . S
N1275 C1273 1.314 . S
N1275 C1274 1.279 . S
C1276 C1278 1.353 . S
C1276 N1279 1.314 . S
C1276 H1282 0.930 . S
C1277 N1279 1.279 . S
C1277 C1280 1.358 . S
C1277 H1283 0.930 . S
C1278 C1276 1.353 . S
C1278 C1281 1.348 . S
C1278 H1316 0.929 . S
N1279 Li1234 1.990 . S
N1279 C1276 1.314 . S
N1279 C1277 1.279 . S
C1280 C1277 1.358 . S
C1280 C1281 1.356 . S
C1280 H1317 0.930 . S
C1281 C1278 1.348 . S
C1281 C1280 1.356 . S
H1282 C1276 0.930 . S
H1283 C1277 0.930 . S
C1284 N1285 1.314 . S
C1284 C1286 1.353 . S
C1284 H1290 0.930 . S
N1285 Li1235 1.990 . S
N1285 C1284 1.314 . S
N1285 C1288 1.279 . S
C1286 C1284 1.353 . S
C1286 C1289 1.348 . S
C1286 H1318 0.929 . S
C1287 C1288 1.358 . S
C1287 C1289 1.356 . S
C1287 H1319 0.930 . S
C1288 N1285 1.279 . S
C1288 C1287 1.358 . S
C1288 H1291 0.930 . S
C1289 C1286 1.348 . S
C1289 C1287 1.356 . S
H1290 C1284 0.930 . S
H1291 C1288 0.930 . S
O1292 Li1232 1.956 . S
O1292 Li1233 1.970 . S
O1292 Li1234 1.961 . S
O1292 C1236 1.325 . S
O1293 Li1232 1.970 . S
O1293 Li1233 1.956 . S
O1293 Li1235 1.961 . S
O1293 C1242 1.325 . S
O1294 Li1232 1.961 . S
O1294 Li1234 1.956 . S
O1294 Li1235 1.970 . S
O1294 C1264 1.325 . S
O1295 Li1233 1.961 . S
O1295 Li1234 1.970 . S
O1295 Li1235 1.956 . S
O1295 C1270 1.325 . S
H1296 C1238 0.929 . S
H1297 C1239 0.930 . S
H1298 C1240 0.930 . S
H1299 C1241 0.930 . S
H1300 C1243 0.930 . S
H1301 C1245 0.929 . S
H1302 C1246 0.930 . S
H1303 C1247 0.930 . S
H1304 C1250 0.930 . S
H1305 C1253 0.929 . S
H1306 C1258 0.929 . S
H1307 C1259 0.930 . S
H1308 C1266 0.929 . S
H1309 C1267 0.930 . S
H1310 C1268 0.930 . S
H1311 C1269 0.930 . S
H1312 C1271 0.929 . S
H1313 C1272 0.930 . S
H1314 C1273 0.930 . S
H1315 C1274 0.930 . S
H1316 C1278 0.929 . S
H1317 C1280 0.930 . S
H1318 C1286 0.929 . S
H1319 C1287 0.930 . S
Li1320 N1337 1.990 . S
Li1320 O1380 1.956 . S
Li1320 O1381 1.970 . S
Li1320 O1382 1.961 . S
Li1321 N1345 1.990 . S
Li1321 O1380 1.970 . S
Li1321 O1381 1.956 . S
Li1321 O1383 1.961 . S
Li1322 N1367 1.990 . S
Li1322 O1380 1.961 . S
Li1322 O1382 1.956 . S
Li1322 O1383 1.970 . S
Li1323 N1373 1.990 . S
Li1323 O1381 1.961 . S
Li1323 O1382 1.970 . S
Li1323 O1383 1.956 . S
C1324 C1326 1.348 . S
C1324 C1327 1.356 . S
C1324 O1380 1.325 . S
N1325 C1328 1.314 . S
N1325 C1329 1.279 . S
C1326 C1324 1.348 . S
C1326 C1328 1.353 1_545 S
C1326 H1384 0.929 . S
C1327 C1324 1.356 . S
C1327 C1329 1.358 1_545 S
C1327 H1385 0.930 . S
C1328 N1325 1.314 . S
C1328 C1326 1.353 1_565 S
C1328 H1386 0.930 . S
C1329 N1325 1.279 . S
C1329 C1327 1.358 1_565 S
C1329 H1387 0.930 . S
C1330 C1333 1.348 . S
C1330 C1334 1.356 . S
C1330 O1381 1.325 . S
C1331 N1332 1.279 . S
C1331 C1334 1.358 . S
C1331 H1388 0.930 . S
N1332 C1331 1.279 . S
N1332 C1335 1.314 . S
C1333 C1330 1.348 . S
C1333 C1335 1.353 . S
C1333 H1389 0.929 . S
C1334 C1330 1.356 . S
C1334 C1331 1.358 . S
C1334 H1390 0.930 . S
C1335 N1332 1.314 . S
C1335 C1333 1.353 . S
C1335 H1391 0.930 . S
C1336 N1337 1.314 . S
C1336 C1341 1.353 . S
C1336 H1342 0.930 . S
N1337 Li1320 1.990 . S
N1337 C1336 1.314 . S
N1337 C1339 1.279 . S
C1338 C1339 1.358 . S
C1338 C1340 1.356 . S
C1338 H1392 0.930 . S
C1339 N1337 1.279 . S
C1339 C1338 1.358 . S
C1339 H1343 0.930 . S
C1340 C1338 1.356 . S
C1340 C1341 1.348 . S
C1341 C1336 1.353 . S
C1341 C1340 1.348 . S
C1341 H1393 0.929 . S
H1342 C1336 0.930 . S
H1343 C1339 0.930 . S
C1344 N1345 1.314 . S
C1344 C1346 1.353 . S
C1344 H1350 0.930 . S
N1345 Li1321 1.990 . S
N1345 C1344 1.314 . S
N1345 C1348 1.279 . S
C1346 C1344 1.353 . S
C1346 C1349 1.348 . S
C1346 H1394 0.929 . S
C1347 C1348 1.358 . S
C1347 C1349 1.356 . S
C1347 H1395 0.930 . S
C1348 N1345 1.279 . S
C1348 C1347 1.358 . S
C1348 H1351 0.930 . S
C1349 C1346 1.348 . S
C1349 C1347 1.356 . S
H1350 C1344 0.930 . S
H1351 C1348 0.930 . S
C1352 C1354 1.348 . S
C1352 C1355 1.356 . S
C1352 O1382 1.325 . S
N1353 C1356 1.314 . S
N1353 C1357 1.279 . S
C1354 C1352 1.348 . S
C1354 C1356 1.353 . S
C1354 H1396 0.929 . S
C1355 C1352 1.356 . S
C1355 C1357 1.358 . S
C1355 H1397 0.930 . S
C1356 N1353 1.314 . S
C1356 C1354 1.353 . S
C1356 H1398 0.930 . S
C1357 N1353 1.279 . S
C1357 C1355 1.358 . S
C1357 H1399 0.930 . S
C1358 C1359 1.348 . S
C1358 C1360 1.356 . S
C1358 O1383 1.325 . S
C1359 C1358 1.348 . S
C1359 C1361 1.353 . S
C1359 H1400 0.929 . S
C1360 C1358 1.356 . S
C1360 C1362 1.358 . S
C1360 H1401 0.930 . S
C1361 C1359 1.353 . S
C1361 N1363 1.314 . S
C1361 H1402 0.930 . S
C1362 C1360 1.358 . S
C1362 N1363 1.279 . S
C1362 H1403 0.930 . S
N1363 C1361 1.314 . S
N1363 C1362 1.279 . S
C1364 C1366 1.353 1_545 S
C1364 N1367 1.314 . S
C1364 H1370 0.930 . S
C1365 N1367 1.279 . S
C1365 C1368 1.358 . S
C1365 H1371 0.930 . S
C1366 C1364 1.353 1_565 S
C1366 C1369 1.348 . S
C1366 H1404 0.929 . S
N1367 Li1322 1.990 . S
N1367 C1364 1.314 . S
N1367 C1365 1.279 . S
C1368 C1365 1.358 . S
C1368 C1369 1.356 1_545 S
C1368 H1405 0.930 . S
C1369 C1366 1.348 . S
C1369 C1368 1.356 1_565 S
H1370 C1364 0.930 . S
H1371 C1365 0.930 . S
C1372 N1373 1.314 . S
C1372 C1374 1.353 . S
C1372 H1378 0.930 . S
N1373 Li1323 1.990 . S
N1373 C1372 1.314 . S
N1373 C1376 1.279 . S
C1374 C1372 1.353 . S
C1374 C1377 1.348 . S
C1374 H1406 0.929 . S
C1375 C1376 1.358 . S
C1375 C1377 1.356 . S
C1375 H1407 0.930 . S
C1376 N1373 1.279 . S
C1376 C1375 1.358 . S
C1376 H1379 0.930 . S
C1377 C1374 1.348 . S
C1377 C1375 1.356 . S
H1378 C1372 0.930 . S
H1379 C1376 0.930 . S
O1380 Li1320 1.956 . S
O1380 Li1321 1.970 . S
O1380 Li1322 1.961 . S
O1380 C1324 1.325 . S
O1381 Li1320 1.970 . S
O1381 Li1321 1.956 . S
O1381 Li1323 1.961 . S
O1381 C1330 1.325 . S
O1382 Li1320 1.961 . S
O1382 Li1322 1.956 . S
O1382 Li1323 1.970 . S
O1382 C1352 1.325 . S
O1383 Li1321 1.961 . S
O1383 Li1322 1.970 . S
O1383 Li1323 1.956 . S
O1383 C1358 1.325 . S
H1384 C1326 0.929 . S
H1385 C1327 0.930 . S
H1386 C1328 0.930 . S
H1387 C1329 0.930 . S
H1388 C1331 0.930 . S
H1389 C1333 0.929 . S
H1390 C1334 0.930 . S
H1391 C1335 0.930 . S
H1392 C1338 0.930 . S
H1393 C1341 0.929 . S
H1394 C1346 0.929 . S
H1395 C1347 0.930 . S
H1396 C1354 0.929 . S
H1397 C1355 0.930 . S
H1398 C1356 0.930 . S
H1399 C1357 0.930 . S
H1400 C1359 0.929 . S
H1401 C1360 0.930 . S
H1402 C1361 0.930 . S
H1403 C1362 0.930 . S
H1404 C1366 0.929 . S
H1405 C1368 0.930 . S
H1406 C1374 0.929 . S
H1407 C1375 0.930 . S
C1408 C1409 1.387 . S
C1408 H1412 0.950 . S
C1408 C1417 1.390 . S
C1409 C1408 1.387 . S
C1409 C1411 1.380 1_556 S
H1410 C1417 0.950 . S
C1411 C1409 1.380 1_554 S
C1411 C1413 1.368 1_554 S
C1411 H1415 0.979 . S
H1412 C1408 0.950 . S
C1413 C1411 1.368 1_556 S
C1413 C1414 1.387 . S
C1413 H1416 0.950 . S
C1414 C1413 1.387 . S
C1414 C1417 1.387 . S
H1415 C1411 0.979 . S
H1416 C1413 0.950 . S
C1417 C1408 1.390 . S
C1417 H1410 0.950 . S
C1417 C1414 1.387 . S
C1418 C1419 1.387 . S
C1418 H1422 0.950 . S
C1418 C1427 1.390 . S
C1419 C1418 1.387 . S
C1419 C1421 1.387 . S
H1420 C1427 0.950 . S
C1421 C1419 1.387 . S
C1421 C1423 1.378 1_556 S
C1421 H1425 0.950 . S
H1422 C1418 0.950 . S
C1423 C1421 1.378 1_554 S
C1423 C1424 1.384 1_554 S
C1423 H1426 0.966 . S
C1424 C1423 1.384 1_556 S
C1424 C1427 1.387 . S
H1425 C1421 0.950 . S
H1426 C1423 0.966 . S
C1427 C1418 1.390 . S
C1427 H1420 0.950 . S
C1427 C1424 1.387 . S
C1428 C1429 1.387 . S
C1428 H1432 0.950 . S
C1428 C1437 1.372 1_556 S
C1429 C1428 1.387 . S
C1429 C1431 1.387 . S
H1430 C1437 0.974 . S
C1431 C1429 1.387 . S
C1431 C1433 1.390 . S
C1431 H1435 0.950 . S
H1432 C1428 0.950 . S
C1433 C1431 1.390 . S
C1433 C1434 1.387 . S
C1433 H1436 0.950 . S
C1434 C1433 1.387 . S
C1434 C1437 1.382 1_556 S
H1435 C1431 0.950 . S
H1436 C1433 0.950 . S
C1437 C1428 1.372 1_554 S
C1437 H1430 0.974 . S
C1437 C1434 1.382 1_554 S
C1438 C1439 1.387 . S
C1438 H1442 0.950 . S
C1438 C1447 1.390 . S
C1439 C1438 1.387 . S
C1439 C1441 1.387 . S
H1440 C1447 0.950 1_554 S
C1441 C1439 1.387 . S
C1441 C1443 1.390 . S
C1441 H1445 0.950 . S
H1442 C1438 0.950 . S
C1443 C1441 1.390 . S
C1443 C1444 1.387 . S
C1443 H1446 0.950 . S
C1444 C1443 1.387 . S
C1444 C1447 1.387 . S
H1445 C1441 0.950 . S
H1446 C1443 0.950 . S
C1447 C1438 1.390 . S
C1447 H1440 0.950 1_556 S
C1447 C1444 1.387 . S
C1448 C1449 1.387 . S
C1448 H1452 0.950 . S
C1448 C1457 1.390 . S
C1449 C1448 1.387 . S
C1449 C1451 1.387 . S
H1450 C1457 0.950 . S
C1451 C1449 1.387 . S
C1451 C1453 1.390 . S
C1451 H1455 0.950 . S
H1452 C1448 0.950 . S
C1453 C1451 1.390 . S
C1453 C1454 1.387 . S
C1453 H1456 0.950 . S
C1454 C1453 1.387 . S
C1454 C1457 1.387 . S
H1455 C1451 0.950 . S
H1456 C1453 0.950 . S
C1457 C1448 1.390 . S
C1457 H1450 0.950 . S
C1457 C1454 1.387 . S
C1458 C1459 1.387 . S
C1458 H1462 0.950 . S
C1458 C1467 1.390 . S
C1459 C1458 1.387 . S
C1459 C1461 1.387 . S
H1460 C1467 0.950 . S
C1461 C1459 1.387 . S
C1461 C1463 1.390 . S
C1461 H1465 0.950 . S
H1462 C1458 0.950 . S
C1463 C1461 1.390 . S
C1463 C1464 1.387 . S
C1463 H1466 0.950 . S
C1464 C1463 1.387 . S
C1464 C1467 1.387 . S
H1465 C1461 0.950 . S
H1466 C1463 0.950 . S
C1467 C1458 1.390 . S
C1467 H1460 0.950 . S
C1467 C1464 1.387 . S
C1468 C1469 1.387 . S
C1468 H1472 0.950 . S
C1468 C1477 1.390 . S
C1469 C1468 1.387 . S
C1469 C1471 1.387 . S
H1470 C1477 0.950 . S
C1471 C1469 1.387 . S
C1471 C1473 1.390 . S
C1471 H1475 0.950 . S
H1472 C1468 0.950 . S
C1473 C1471 1.390 . S
C1473 C1474 1.387 . S
C1473 H1476 0.950 . S
C1474 C1473 1.387 . S
C1474 C1477 1.387 . S
H1475 C1471 0.950 . S
H1476 C1473 0.950 . S
C1477 C1468 1.390 . S
C1477 H1470 0.950 . S
C1477 C1474 1.387 . S
C1478 C1479 1.387 . S
C1478 H1482 0.950 . S
C1478 C1487 1.390 . S
C1479 C1478 1.387 . S
C1479 C1481 1.387 . S
H1480 C1487 0.950 . S
C1481 C1479 1.387 . S
C1481 C1483 1.390 . S
C1481 H1485 0.950 . S
H1482 C1478 0.950 . S
C1483 C1481 1.390 . S
C1483 C1484 1.387 . S
C1483 H1486 0.950 . S
C1484 C1483 1.387 . S
C1484 C1487 1.387 . S
H1485 C1481 0.950 . S
H1486 C1483 0.950 . S
C1487 C1478 1.390 . S
C1487 H1480 0.950 . S
C1487 C1484 1.387 . S
C1488 C1489 1.387 . S
C1488 H1492 0.950 1_554 S
C1488 C1497 1.390 . S
C1489 C1488 1.387 . S
C1489 C1491 1.387 . S
H1490 C1497 0.950 . S
C1491 C1489 1.387 . S
C1491 C1493 1.390 . S
C1491 H1495 0.950 . S
H1492 C1488 0.950 1_556 S
C1493 C1491 1.390 . S
C1493 C1494 1.387 . S
C1493 H1496 0.950 . S
C1494 C1493 1.387 . S
C1494 C1497 1.387 . S
H1495 C1491 0.950 . S
H1496 C1493 0.950 . S
C1497 C1488 1.390 . S
C1497 H1490 0.950 . S
C1497 C1494 1.387 . S
C1498 C1499 1.387 . S
C1498 H1502 0.950 . S
C1498 C1507 1.390 . S
C1499 C1498 1.387 . S
C1499 C1501 1.387 . S
H1500 C1507 0.950 . S
C1501 C1499 1.387 . S
C1501 C1503 1.390 . S
C1501 H1505 0.950 1_554 S
H1502 C1498 0.950 . S
C1503 C1501 1.390 . S
C1503 C1504 1.387 . S
C1503 H1506 0.950 . S
C1504 C1503 1.387 . S
C1504 C1507 1.387 . S
H1505 C1501 0.950 1_556 S
H1506 C1503 0.950 . S
C1507 C1498 1.390 . S
C1507 H1500 0.950 . S
C1507 C1504 1.387 . S
C1508 C1509 1.387 . S
C1508 H1512 0.950 . S
C1508 C1517 1.390 . S
C1509 C1508 1.387 . S
C1509 C1511 1.387 . S
H1510 C1517 0.950 . S
C1511 C1509 1.387 . S
C1511 C1513 1.390 . S
C1511 H1515 0.950 1_554 S
H1512 C1508 0.950 . S
C1513 C1511 1.390 . S
C1513 C1514 1.387 . S
C1513 H1516 0.950 . S
C1514 C1513 1.387 . S
C1514 C1517 1.387 . S
H1515 C1511 0.950 1_556 S
H1516 C1513 0.950 . S
C1517 C1508 1.390 . S
C1517 H1510 0.950 . S
C1517 C1514 1.387 . S
C1518 C1519 1.387 . S
C1518 H1522 0.950 . S
C1518 C1527 1.390 . S
C1519 C1518 1.387 . S
C1519 C1521 1.387 . S
H1520 C1527 0.950 1_556 S
C1521 C1519 1.387 . S
C1521 C1523 1.390 . S
C1521 H1525 0.950 . S
H1522 C1518 0.950 . S
C1523 C1521 1.390 . S
C1523 C1524 1.387 . S
C1523 H1526 0.950 . S
C1524 C1523 1.387 . S
C1524 C1527 1.387 . S
H1525 C1521 0.950 . S
H1526 C1523 0.950 . S
C1527 C1518 1.390 . S
C1527 H1520 0.950 1_554 S
C1527 C1524 1.387 . S
C1528 C1529 1.387 . S
C1528 H1532 0.950 . S
C1528 C1537 1.390 . S
C1529 C1528 1.387 . S
C1529 C1531 1.387 . S
H1530 C1537 0.950 . S
C1531 C1529 1.387 . S
C1531 C1533 1.390 . S
C1531 H1535 0.950 . S
H1532 C1528 0.950 . S
C1533 C1531 1.390 . S
C1533 C1534 1.387 . S
C1533 H1536 0.950 . S
C1534 C1533 1.387 . S
C1534 C1537 1.387 . S
H1535 C1531 0.950 . S
H1536 C1533 0.950 . S
C1537 C1528 1.390 . S
C1537 H1530 0.950 . S
C1537 C1534 1.387 . S
C1538 C1539 1.387 . S
C1538 H1542 0.950 . S
C1538 C1547 1.390 . S
C1539 C1538 1.387 . S
C1539 C1541 1.387 . S
H1540 C1547 0.950 . S
C1541 C1539 1.387 . S
C1541 C1543 1.390 . S
C1541 H1545 0.950 . S
H1542 C1538 0.950 . S
C1543 C1541 1.390 . S
C1543 C1544 1.387 . S
C1543 H1546 0.950 . S
C1544 C1543 1.387 . S
C1544 C1547 1.387 . S
H1545 C1541 0.950 . S
H1546 C1543 0.950 . S
C1547 C1538 1.390 . S
C1547 H1540 0.950 . S
C1547 C1544 1.387 . S
C1548 C1549 1.387 . S
C1548 H1552 0.950 . S
C1548 C1557 1.390 . S
C1549 C1548 1.387 . S
C1549 C1551 1.387 . S
H1550 C1557 0.950 . S
C1551 C1549 1.387 . S
C1551 C1553 1.390 . S
C1551 H1555 0.950 . S
H1552 C1548 0.950 . S
C1553 C1551 1.390 . S
C1553 C1554 1.387 . S
C1553 H1556 0.950 . S
C1554 C1553 1.387 . S
C1554 C1557 1.387 . S
H1555 C1551 0.950 . S
H1556 C1553 0.950 . S
C1557 C1548 1.390 . S
C1557 H1550 0.950 . S
C1557 C1554 1.387 . S
C1558 C1559 1.387 . S
C1558 H1562 0.950 . S
C1558 C1567 1.390 . S
C1559 C1558 1.387 . S
C1559 C1561 1.387 . S
H1560 C1567 0.950 . S
C1561 C1559 1.387 . S
C1561 C1563 1.390 . S
C1561 H1565 0.950 . S
H1562 C1558 0.950 . S
C1563 C1561 1.390 . S
C1563 C1564 1.387 . S
C1563 H1566 0.950 . S
C1564 C1563 1.387 . S
C1564 C1567 1.387 . S
H1565 C1561 0.950 . S
H1566 C1563 0.950 . S
C1567 C1558 1.390 . S
C1567 H1560 0.950 . S
C1567 C1564 1.387 . S
C1568 C1569 1.387 1_545 S
C1568 H1572 0.950 . S
C1568 C1577 1.390 1_556 S
C1569 C1568 1.387 1_565 S
C1569 C1571 1.387 . S
H1570 C1577 0.950 . S
C1571 C1569 1.387 . S
C1571 C1573 1.390 1_556 S
C1571 H1575 0.950 . S
H1572 C1568 0.950 . S
C1573 C1571 1.390 1_554 S
C1573 C1574 1.387 1_565 S
C1573 H1576 0.950 . S
C1574 C1573 1.387 1_545 S
C1574 C1577 1.387 . S
H1575 C1571 0.950 . S
H1576 C1573 0.950 . S
C1577 C1568 1.390 1_554 S
C1577 H1570 0.950 . S
C1577 C1574 1.387 . S
C1578 C1579 1.387 . S
C1578 H1582 0.950 . S
C1578 C1587 1.390 1_554 S
C1579 C1578 1.387 . S
C1579 C1581 1.387 . S
H1580 C1587 0.950 . S
C1581 C1579 1.387 . S
C1581 C1583 1.390 1_554 S
C1581 H1585 0.950 . S
H1582 C1578 0.950 . S
C1583 C1581 1.390 1_556 S
C1583 C1584 1.387 . S
C1583 H1586 0.950 . S
C1584 C1583 1.387 . S
C1584 C1587 1.387 . S
H1585 C1581 0.950 . S
H1586 C1583 0.950 . S
C1587 C1578 1.390 1_556 S
C1587 H1580 0.950 . S
C1587 C1584 1.387 . S
C1588 C1589 1.387 1_554 S
C1588 H1592 0.950 . S
C1588 C1597 1.390 1_655 S
C1589 C1588 1.387 1_556 S
C1589 C1591 1.387 . S
H1590 C1597 0.950 . S
C1591 C1589 1.387 . S
C1591 C1593 1.390 1_655 S
C1591 H1595 0.950 . S
H1592 C1588 0.950 . S
C1593 C1591 1.390 1_455 S
C1593 C1594 1.387 1_556 S
C1593 H1596 0.950 . S
C1594 C1593 1.387 1_554 S
C1594 C1597 1.387 . S
H1595 C1591 0.950 . S
H1596 C1593 0.950 . S
C1597 C1588 1.390 1_455 S
C1597 H1590 0.950 . S
C1597 C1594 1.387 . S
C1598 C1599 1.387 1_556 S
C1598 H1602 0.950 . S
C1598 C1607 1.390 1_455 S
C1599 C1598 1.387 1_554 S
C1599 C1601 1.387 1_545 S
H1600 C1607 0.950 . S
C1601 C1599 1.387 1_565 S
C1601 C1603 1.390 1_455 S
C1601 H1605 0.950 . S
H1602 C1598 0.950 . S
C1603 C1601 1.390 1_655 S
C1603 C1604 1.387 1_554 S
C1603 H1606 0.950 . S
C1604 C1603 1.387 1_556 S
C1604 C1607 1.387 1_565 S
H1605 C1601 0.950 . S
H1606 C1603 0.950 . S
C1607 C1598 1.390 1_655 S
C1607 H1600 0.950 . S
C1607 C1604 1.387 1_545 S
C1608 C1609 1.387 . S
C1608 H1612 0.950 . S
C1608 C1617 1.390 . S
C1609 C1608 1.387 . S
C1609 C1611 1.387 . S
H1610 C1617 0.950 . S
C1611 C1609 1.387 . S
C1611 C1613 1.390 . S
C1611 H1615 0.950 . S
H1612 C1608 0.950 . S
C1613 C1611 1.390 . S
C1613 C1614 1.387 . S
C1613 H1616 0.950 . S
C1614 C1613 1.387 . S
C1614 C1617 1.387 . S
H1615 C1611 0.950 . S
H1616 C1613 0.950 . S
C1617 C1608 1.390 . S
C1617 H1610 0.950 . S
C1617 C1614 1.387 . S
C1618 C1619 1.387 . S
C1618 H1622 0.950 . S
C1618 C1627 1.390 1_455 S
C1619 C1618 1.387 . S
C1619 C1621 1.387 . S
H1620 C1627 0.950 . S
C1621 C1619 1.387 . S
C1621 C1623 1.390 1_455 S
C1621 H1625 0.950 . S
H1622 C1618 0.950 . S
C1623 C1621 1.390 1_655 S
C1623 C1624 1.387 . S
C1623 H1626 0.950 . S
C1624 C1623 1.387 . S
C1624 C1627 1.387 . S
H1625 C1621 0.950 . S
H1626 C1623 0.950 . S
C1627 C1618 1.390 1_655 S
C1627 H1620 0.950 . S
C1627 C1624 1.387 . S
C1628 C1629 1.387 . S
C1628 H1632 0.950 . S
C1628 C1637 1.390 1_565 S
C1629 C1628 1.387 . S
C1629 C1631 1.387 1_655 S
H1630 C1637 0.950 . S
C1631 C1629 1.387 1_455 S
C1631 C1633 1.390 1_565 S
C1631 H1635 0.950 . S
H1632 C1628 0.950 . S
C1633 C1631 1.390 1_545 S
C1633 C1634 1.387 . S
C1633 H1636 0.950 . S
C1634 C1633 1.387 . S
C1634 C1637 1.387 1_455 S
H1635 C1631 0.950 . S
H1636 C1633 0.950 . S
C1637 C1628 1.390 1_545 S
C1637 H1630 0.950 . S
C1637 C1634 1.387 1_655 S
C1638 C1639 1.387 1_545 S
C1638 H1642 0.950 . S
C1638 C1647 1.390 . S
C1639 C1638 1.387 1_565 S
C1639 C1641 1.387 . S
H1640 C1647 0.950 . S
C1641 C1639 1.387 . S
C1641 C1643 1.390 . S
C1641 H1645 0.950 . S
H1642 C1638 0.950 . S
C1643 C1641 1.390 . S
C1643 C1644 1.387 1_565 S
C1643 H1646 0.950 . S
C1644 C1643 1.387 1_545 S
C1644 C1647 1.387 . S
H1645 C1641 0.950 . S
H1646 C1643 0.950 . S
C1647 C1638 1.390 . S
C1647 H1640 0.950 . S
C1647 C1644 1.387 . S
C1648 C1649 1.387 . S
C1648 H1652 0.950 . S
C1648 C1657 1.390 . S
C1649 C1648 1.387 . S
C1649 C1651 1.387 . S
H1650 C1657 0.950 . S
C1651 C1649 1.387 . S
C1651 C1653 1.390 . S
C1651 H1655 0.950 . S
H1652 C1648 0.950 . S
C1653 C1651 1.390 . S
C1653 C1654 1.387 . S
C1653 H1656 0.950 . S
C1654 C1653 1.387 . S
C1654 C1657 1.387 . S
H1655 C1651 0.950 . S
H1656 C1653 0.950 . S
C1657 C1648 1.390 . S
C1657 H1650 0.950 . S
C1657 C1654 1.387 . S
C1658 C1659 1.387 . S
C1658 H1662 0.950 . S
C1658 C1667 1.390 . S
C1659 C1658 1.387 . S
C1659 C1661 1.387 . S
H1660 C1667 0.950 . S
C1661 C1659 1.387 . S
C1661 C1663 1.390 . S
C1661 H1665 0.950 . S
H1662 C1658 0.950 . S
C1663 C1661 1.390 . S
C1663 C1664 1.387 . S
C1663 H1666 0.950 . S
C1664 C1663 1.387 . S
C1664 C1667 1.387 . S
H1665 C1661 0.950 . S
H1666 C1663 0.950 . S
C1667 C1658 1.390 . S
C1667 H1660 0.950 . S
C1667 C1664 1.387 . S
C1668 C1669 1.387 . S
C1668 H1672 0.950 . S
C1668 C1677 1.390 . S
C1669 C1668 1.387 . S
C1669 C1671 1.387 . S
H1670 C1677 0.950 . S
C1671 C1669 1.387 . S
C1671 C1673 1.390 . S
C1671 H1675 0.950 . S
H1672 C1668 0.950 . S
C1673 C1671 1.390 . S
C1673 C1674 1.387 . S
C1673 H1676 0.950 . S
C1674 C1673 1.387 . S
C1674 C1677 1.387 . S
H1675 C1671 0.950 . S
H1676 C1673 0.950 . S
C1677 C1668 1.390 . S
C1677 H1670 0.950 . S
C1677 C1674 1.387 . S
C1678 C1679 1.387 . S
C1678 H1682 0.950 . S
C1678 C1687 1.390 . S
C1679 C1678 1.387 . S
C1679 C1681 1.387 . S
H1680 C1687 0.950 . S
C1681 C1679 1.387 . S
C1681 C1683 1.390 . S
C1681 H1685 0.950 . S
H1682 C1678 0.950 . S
C1683 C1681 1.390 . S
C1683 C1684 1.387 . S
C1683 H1686 0.950 . S
C1684 C1683 1.387 . S
C1684 C1687 1.387 . S
H1685 C1681 0.950 . S
H1686 C1683 0.950 . S
C1687 C1678 1.390 . S
C1687 H1680 0.950 . S
C1687 C1684 1.387 . S
C1688 C1689 1.387 . S
C1688 H1692 0.950 . S
C1688 C1697 1.390 . S
C1689 C1688 1.387 . S
C1689 C1691 1.387 . S
H1690 C1697 0.950 . S
C1691 C1689 1.387 . S
C1691 C1693 1.390 . S
C1691 H1695 0.950 . S
H1692 C1688 0.950 . S
C1693 C1691 1.390 . S
C1693 C1694 1.387 . S
C1693 H1696 0.950 . S
C1694 C1693 1.387 . S
C1694 C1697 1.387 . S
H1695 C1691 0.950 . S
H1696 C1693 0.950 . S
C1697 C1688 1.390 . S
C1697 H1690 0.950 . S
C1697 C1694 1.387 . S
C1698 C1699 1.387 . S
C1698 H1702 0.950 . S
C1698 C1707 1.390 . S
C1699 C1698 1.387 . S
C1699 C1701 1.387 . S
H1700 C1707 0.950 . S
C1701 C1699 1.387 . S
C1701 C1703 1.390 . S
C1701 H1705 0.950 . S
H1702 C1698 0.950 . S
C1703 C1701 1.390 . S
C1703 C1704 1.387 . S
C1703 H1706 0.950 . S
C1704 C1703 1.387 . S
C1704 C1707 1.387 . S
H1705 C1701 0.950 . S
H1706 C1703 0.950 . S
C1707 C1698 1.390 . S
C1707 H1700 0.950 . S
C1707 C1704 1.387 . S
C1708 C1709 1.387 . S
C1708 H1712 0.950 . S
C1708 C1717 1.390 . S
C1709 C1708 1.387 . S
C1709 C1711 1.387 . S
H1710 C1717 0.950 . S
C1711 C1709 1.387 . S
C1711 C1713 1.390 . S
C1711 H1715 0.950 . S
H1712 C1708 0.950 . S
C1713 C1711 1.390 . S
C1713 C1714 1.387 . S
C1713 H1716 0.950 . S
C1714 C1713 1.387 . S
C1714 C1717 1.387 . S
H1715 C1711 0.950 . S
H1716 C1713 0.950 . S
C1717 C1708 1.390 . S
C1717 H1710 0.950 . S
C1717 C1714 1.387 . S
C1718 C1719 1.387 . S
C1718 H1722 0.950 . S
C1718 C1727 1.390 . S
C1719 C1718 1.387 . S
C1719 C1721 1.387 . S
H1720 C1727 0.950 . S
C1721 C1719 1.387 . S
C1721 C1723 1.390 . S
C1721 H1725 0.950 . S
H1722 C1718 0.950 . S
C1723 C1721 1.390 . S
C1723 C1724 1.387 . S
C1723 H1726 0.950 . S
C1724 C1723 1.387 . S
C1724 C1727 1.387 . S
H1725 C1721 0.950 . S
H1726 C1723 0.950 . S
C1727 C1718 1.390 . S
C1727 H1720 0.950 . S
C1727 C1724 1.387 . S
C1409 C57 0.672 1_556 S
C1414 C812 0.674 . S
C1419 C929 0.675 . S
C1424 C145 0.672 1_556 S
C1429 C988 0.681 . S
C1434 C225 0.681 1_556 S
C1439 C733 0.682 . S
C1444 C313 0.680 1_556 S
C1449 C381 0.686 . S
C1454 C1377 0.675 . S
C1459 C1105 0.680 . S
C1464 C469 0.689 . S
C1469 C1164 0.682 . S
C1474 C548 0.688 . S
C1479 C1252 0.678 . S
C1484 C636 0.689 . S
C1489 C753 0.666 1_554 S
C1494 C137 0.672 . S
C1499 C849 0.673 1_554 S
C1504 C233 0.672 . S
C1509 C909 0.672 1_554 S
C1514 C321 0.671 . S
C1519 C49 0.667 . S
C1524 C1025 0.667 1_554 S
C1529 C1085 0.682 . S
C1534 C645 0.671 . S
C1539 C1201 0.683 . S
C1544 C372 0.676 . S
C1549 C460 0.672 . S
C1554 C1289 0.676 . S
C1559 C1340 0.681 . S
C1564 C557 0.676 . S
C1569 C724 2.070 . S
C1574 C29 2.084 . S
C1579 C117 2.084 . S
C1584 C821 2.070 . S
C1589 C937 2.068 . S
C1594 C196 2.082 . S
C1599 C284 2.085 . S
C1604 C997 2.071 . S
C1609 C1113 2.068 . S
C1614 C409 2.082 . S
C1619 C497 2.083 . S
C1624 C1173 2.068 . S
C1629 C1261 2.069 . S
C1634 C577 2.083 . S
C1639 C1369 2.068 . S
C1644 C665 2.082 . S
C1649 C401 2.682 . S
C1654 C20 2.682 . S
C1659 C489 2.685 . S
C1664 C108 2.685 . S
C1669 C205 2.685 . S
C1674 C585 2.685 . S
C1679 C673 2.685 . S
C1684 C293 2.685 . S
C1689 C761 2.678 . S
C1694 C1076 2.678 . S
C1699 C1193 2.681 . S
C1704 C841 2.681 . S
C1709 C1281 2.678 . S
C1714 C900 2.678 . S
C1719 C1349 2.678 . S
C1724 C1017 2.678 . S
