# Generated by pormake.
# Topology smd, (6)-cn, num edge types: 1
# Building blocks:
#     Node 0, Type 0, BuildingBlock: FUNLAD_clean_sbu_0, # of connection points: 6
#     Node 1, Type 0, BuildingBlock: FUNLAD_clean_sbu_0, # of connection points: 6
#     Node 2, Type 0, BuildingBlock: FUNLAD_clean_sbu_0, # of connection points: 6
#     Node 3, Type 0, BuildingBlock: FUNLAD_clean_sbu_0, # of connection points: 6
#     Node 4, Type 0, BuildingBlock: FUNLAD_clean_sbu_0, # of connection points: 6
#     Node 5, Type 0, BuildingBlock: FUNLAD_clean_sbu_0, # of connection points: 6
#     Node 6, Type 0, BuildingBlock: FUNLAD_clean_sbu_0, # of connection points: 6
#     Node 7, Type 0, BuildingBlock: FUNLAD_clean_sbu_0, # of connection points: 6
#     Node 8, Type 0, BuildingBlock: FUNLAD_clean_sbu_0, # of connection points: 6
#     Node 9, Type 0, BuildingBlock: FUNLAD_clean_sbu_0, # of connection points: 6
#     Node 10, Type 0, BuildingBlock: FUNLAD_clean_sbu_0, # of connection points: 6
#     Node 11, Type 0, BuildingBlock: FUNLAD_clean_sbu_0, # of connection points: 6
#     Node 12, Type 0, BuildingBlock: FUNLAD_clean_sbu_0, # of connection points: 6
#     Node 13, Type 0, BuildingBlock: FUNLAD_clean_sbu_0, # of connection points: 6
#     Node 14, Type 0, BuildingBlock: FUNLAD_clean_sbu_0, # of connection points: 6
#     Node 15, Type 0, BuildingBlock: FUNLAD_clean_sbu_0, # of connection points: 6
#     Node 16, Type 0, BuildingBlock: FUNLAD_clean_sbu_0, # of connection points: 6
#     Node 17, Type 0, BuildingBlock: FUNLAD_clean_sbu_0, # of connection points: 6
#     Edge 18, Type (0, 0), BuildingBlock: OJICUG_clean_linker_0, # of connection points: 2
#     Edge 19, Type (0, 0), BuildingBlock: OJICUG_clean_linker_0, # of connection points: 2
#     Edge 20, Type (0, 0), BuildingBlock: OJICUG_clean_linker_0, # of connection points: 2
#     Edge 21, Type (0, 0), BuildingBlock: OJICUG_clean_linker_0, # of connection points: 2
#     Edge 22, Type (0, 0), BuildingBlock: OJICUG_clean_linker_0, # of connection points: 2
#     Edge 23, Type (0, 0), BuildingBlock: OJICUG_clean_linker_0, # of connection points: 2
#     Edge 24, Type (0, 0), BuildingBlock: OJICUG_clean_linker_0, # of connection points: 2
#     Edge 25, Type (0, 0), BuildingBlock: OJICUG_clean_linker_0, # of connection points: 2
#     Edge 26, Type (0, 0), BuildingBlock: OJICUG_clean_linker_0, # of connection points: 2
#     Edge 27, Type (0, 0), BuildingBlock: OJICUG_clean_linker_0, # of connection points: 2
#     Edge 28, Type (0, 0), BuildingBlock: OJICUG_clean_linker_0, # of connection points: 2
#     Edge 29, Type (0, 0), BuildingBlock: OJICUG_clean_linker_0, # of connection points: 2
#     Edge 30, Type (0, 0), BuildingBlock: OJICUG_clean_linker_0, # of connection points: 2
#     Edge 31, Type (0, 0), BuildingBlock: OJICUG_clean_linker_0, # of connection points: 2
#     Edge 32, Type (0, 0), BuildingBlock: OJICUG_clean_linker_0, # of connection points: 2
#     Edge 33, Type (0, 0), BuildingBlock: OJICUG_clean_linker_0, # of connection points: 2
#     Edge 34, Type (0, 0), BuildingBlock: OJICUG_clean_linker_0, # of connection points: 2
#     Edge 35, Type (0, 0), BuildingBlock: OJICUG_clean_linker_0, # of connection points: 2
#     Edge 36, Type (0, 0), BuildingBlock: OJICUG_clean_linker_0, # of connection points: 2
#     Edge 37, Type (0, 0), BuildingBlock: OJICUG_clean_linker_0, # of connection points: 2
#     Edge 38, Type (0, 0), BuildingBlock: OJICUG_clean_linker_0, # of connection points: 2
#     Edge 39, Type (0, 0), BuildingBlock: OJICUG_clean_linker_0, # of connection points: 2
#     Edge 40, Type (0, 0), BuildingBlock: OJICUG_clean_linker_0, # of connection points: 2
#     Edge 41, Type (0, 0), BuildingBlock: OJICUG_clean_linker_0, # of connection points: 2
#     Edge 42, Type (0, 0), BuildingBlock: OJICUG_clean_linker_0, # of connection points: 2
#     Edge 43, Type (0, 0), BuildingBlock: OJICUG_clean_linker_0, # of connection points: 2
#     Edge 44, Type (0, 0), BuildingBlock: OJICUG_clean_linker_0, # of connection points: 2
#     Edge 45, Type (0, 0), BuildingBlock: OJICUG_clean_linker_0, # of connection points: 2
#     Edge 46, Type (0, 0), BuildingBlock: OJICUG_clean_linker_0, # of connection points: 2
#     Edge 47, Type (0, 0), BuildingBlock: OJICUG_clean_linker_0, # of connection points: 2
#     Edge 48, Type (0, 0), BuildingBlock: OJICUG_clean_linker_0, # of connection points: 2
#     Edge 49, Type (0, 0), BuildingBlock: OJICUG_clean_linker_0, # of connection points: 2
#     Edge 50, Type (0, 0), BuildingBlock: OJICUG_clean_linker_0, # of connection points: 2
#     Edge 51, Type (0, 0), BuildingBlock: OJICUG_clean_linker_0, # of connection points: 2
#     Edge 52, Type (0, 0), BuildingBlock: OJICUG_clean_linker_0, # of connection points: 2
#     Edge 53, Type (0, 0), BuildingBlock: OJICUG_clean_linker_0, # of connection points: 2
#     Edge 54, Type (0, 0), BuildingBlock: OJICUG_clean_linker_0, # of connection points: 2
#     Edge 55, Type (0, 0), BuildingBlock: OJICUG_clean_linker_0, # of connection points: 2
#     Edge 56, Type (0, 0), BuildingBlock: OJICUG_clean_linker_0, # of connection points: 2
#     Edge 57, Type (0, 0), BuildingBlock: OJICUG_clean_linker_0, # of connection points: 2
#     Edge 58, Type (0, 0), BuildingBlock: OJICUG_clean_linker_0, # of connection points: 2
#     Edge 59, Type (0, 0), BuildingBlock: OJICUG_clean_linker_0, # of connection points: 2
#     Edge 60, Type (0, 0), BuildingBlock: OJICUG_clean_linker_0, # of connection points: 2
#     Edge 61, Type (0, 0), BuildingBlock: OJICUG_clean_linker_0, # of connection points: 2
#     Edge 62, Type (0, 0), BuildingBlock: OJICUG_clean_linker_0, # of connection points: 2
#     Edge 63, Type (0, 0), BuildingBlock: OJICUG_clean_linker_0, # of connection points: 2
#     Edge 64, Type (0, 0), BuildingBlock: OJICUG_clean_linker_0, # of connection points: 2
#     Edge 65, Type (0, 0), BuildingBlock: OJICUG_clean_linker_0, # of connection points: 2
#     Edge 66, Type (0, 0), BuildingBlock: OJICUG_clean_linker_0, # of connection points: 2
#     Edge 67, Type (0, 0), BuildingBlock: OJICUG_clean_linker_0, # of connection points: 2
#     Edge 68, Type (0, 0), BuildingBlock: OJICUG_clean_linker_0, # of connection points: 2
#     Edge 69, Type (0, 0), BuildingBlock: OJICUG_clean_linker_0, # of connection points: 2
#     Edge 70, Type (0, 0), BuildingBlock: OJICUG_clean_linker_0, # of connection points: 2
#     Edge 71, Type (0, 0), BuildingBlock: OJICUG_clean_linker_0, # of connection points: 2
# Relax obj value: 0.302
# Max RMSD: 0.207
# Mean RMSD: 0.207
data_MOF--net-smd--node1-FUNLAD_clean_sbu_0--edge1-OJICUG_clean_linker_0
_symmetry_space_group_name_H-M    P1
_symmetry_Int_Tables_number       1
_symmetry_cell_setting            triclinic
loop_
_symmetry_equiv_pos_as_xyz
'x, y, z'
_cell_length_a     66.191641
_cell_length_b     66.119304
_cell_length_c     11.231196
_cell_angle_alpha  90.084557
_cell_angle_beta   90.078752
_cell_angle_gamma 120.11642
loop_
_atom_site_label
_atom_site_type_symbol
_atom_site_fract_x
_atom_site_fract_y
_atom_site_fract_z
_atom_type_partial_charge
C0 C 0.04653 0.25688 0.27373 0.0
N1 N 0.08755 0.24264 0.50731 0.0
C2 C 0.08598 0.22651 0.42646 0.0
C3 C 0.10509 0.2232 0.40748 0.0
C4 C 0.12576 0.23675 0.47216 0.0
C5 C 0.12633 0.25217 0.55946 0.0
C6 C 0.107 0.25487 0.57561 0.0
Zn7 Zn 0.06364 0.25364 0.51758 0.0
C8 C 0.08634 0.30471 0.47715 0.0
N9 N 0.01598 0.27969 0.54099 0.0
C10 C 0.99361 0.27098 0.50162 0.0
C11 C 0.02606 0.2987 0.61411 0.0
C12 C 0.01404 0.30976 0.64995 0.0
C13 C 0.99122 0.30169 0.6098 0.0
C14 C 0.98078 0.28184 0.53526 0.0
Zn15 Zn 0.0375 0.26563 0.51692 0.0
O16 O 0.05979 0.25168 0.33186 0.0
C17 C 0.01383 0.21452 0.54017 0.0
O18 O 0.03359 0.26294 0.32934 0.0
H19 H 0.04353 0.30524 0.64796 0.0
H20 H 0.07044 0.21714 0.37227 0.0
H21 H 0.98565 0.25559 0.44548 0.0
O22 O 0.03474 0.21839 0.53365 0.0
O23 O 1.0101 0.23161 0.53715 0.0
H24 H 0.10811 0.26784 0.63806 0.0
O25 O 0.04172 0.26782 0.70303 0.0
O26 O 0.0669 0.25566 0.70603 0.0
O27 O 0.06522 0.29928 0.48933 0.0
O28 O 0.09203 0.28922 0.49392 0.0
C29 C 0.05449 0.26221 0.76165 0.0
H30 H 0.10423 0.21134 0.33848 0.0
H31 H 0.14209 0.26296 0.61042 0.0
H32 H 0.02263 0.32455 0.71005 0.0
H33 H 0.96314 0.27501 0.50254 0.0
C34 C 0.83888 0.83184 0.2428 0.0
N35 N 0.84863 0.88547 0.47977 0.0
C36 C 0.86459 0.90149 0.4033 0.0
C37 C 0.86654 0.92352 0.39088 0.0
C38 C 0.85174 0.92876 0.45702 0.0
C39 C 0.83639 0.91234 0.53922 0.0
C40 C 0.83506 0.89077 0.54896 0.0
Zn41 Zn 0.84026 0.85117 0.48613 0.0
C42 C 0.78947 0.81986 0.44172 0.0
N43 N 0.81923 0.77841 0.5081 0.0
C44 C 0.83081 0.76704 0.47577 0.0
C45 C 0.79936 0.76739 0.57423 0.0
C46 C 0.79017 0.74432 0.60856 0.0
C47 C 0.80139 0.73201 0.57606 0.0
C48 C 0.82212 0.74357 0.50943 0.0
Zn49 Zn 0.83055 0.81359 0.48639 0.0
O50 O 0.84273 0.85001 0.30049 0.0
C51 C 0.88146 0.84408 0.51355 0.0
O52 O 0.83409 0.81318 0.29885 0.0
H53 H 0.79075 0.77665 0.60428 0.0
H54 H 0.87508 0.89684 0.34845 0.0
H55 H 0.8469 0.7762 0.42592 0.0
O56 O 0.87635 0.86025 0.50422 0.0
O57 O 0.86524 0.8228 0.51081 0.0
H58 H 0.82231 0.87781 0.60826 0.0
O59 O 0.8273 0.81465 0.67224 0.0
O60 O 0.83782 0.85167 0.67471 0.0
O61 O 0.79616 0.80512 0.4548 0.0
O62 O 0.80395 0.84136 0.4602 0.0
C63 C 0.83207 0.83289 0.73061 0.0
H64 H 0.87856 0.9358 0.32633 0.0
H65 H 0.82488 0.91585 0.5928 0.0
H66 H 0.77438 0.73618 0.66161 0.0
H67 H 0.83125 0.73454 0.48295 0.0
C68 C 0.266 0.04899 0.27752 0.0
N69 N 0.2104 0.00923 0.51016 0.0
C70 C 0.19578 0.00953 0.42548 0.0
C71 C 0.1737 0.98974 0.40685 0.0
C72 C 0.16695 0.9696 0.47545 0.0
C73 C 0.18178 0.97042 0.56683 0.0
C74 C 0.20347 0.9904 0.58244 0.0
Zn75 Zn 0.24536 0.03368 0.51953 0.0
C76 C 0.27347 0.00972 0.49733 0.0
N77 N 0.31938 0.08128 0.54566 0.0
C78 C 0.33212 0.10365 0.50468 0.0
C79 C 0.32908 0.07244 0.62136 0.0
C80 C 0.35213 0.08576 0.6576 0.0
C81 C 0.36589 0.10866 0.61615 0.0
C82 C 0.35566 0.11781 0.53926 0.0
Zn83 Zn 0.28389 0.05885 0.52229 0.0
O84 O 0.24715 0.03671 0.33464 0.0
C85 C 0.2565 0.08335 0.53323 0.0
O86 O 0.28518 0.06105 0.33395 0.0
H87 H 0.31877 0.05506 0.65738 0.0
H88 H 0.20171 0.02457 0.36802 0.0
H89 H 0.32402 0.11064 0.44691 0.0
O90 O 0.23902 0.06257 0.53101 0.0
O91 O 0.27709 0.08645 0.53129 0.0
H92 H 0.21536 0.9902 0.64783 0.0
O93 O 0.28183 0.05636 0.70759 0.0
O94 O 0.24436 0.0313 0.70853 0.0
O95 O 0.28994 0.03061 0.50931 0.0
O96 O 0.25249 1.00537 0.50067 0.0
C97 C 0.26328 0.04374 0.76507 0.0
H98 H 0.1627 0.98967 0.33522 0.0
H99 H 0.17708 0.95531 0.62229 0.0
H100 H 0.35911 0.07815 0.71892 0.0
H101 H 0.36577 0.13546 0.50548 0.0
C102 C 0.04549 0.83254 0.17387 0.0
N103 N 0.08183 0.81253 0.39496 0.0
C104 C 0.07293 0.79466 0.31457 0.0
C105 C 0.08532 0.78381 0.28146 0.0
C106 C 0.10721 0.79088 0.33201 0.0
C107 C 0.11645 0.80959 0.41384 0.0
C108 C 0.10332 0.82028 0.44436 0.0
Zn109 Zn 0.06033 0.82662 0.4172 0.0
C110 C 0.08542 0.87845 0.40822 0.0
N111 N 0.01182 0.85159 0.4282 0.0
C112 C 0.9927 0.83992 0.35707 0.0
C113 C 0.01304 0.86715 0.51178 0.0
C114 C 0.99386 0.87033 0.53072 0.0
C115 C 0.97349 0.85726 0.46315 0.0
C116 C 0.97332 0.84253 0.37306 0.0
Zn117 Zn 0.03542 0.84017 0.41898 0.0
O118 O 0.05824 0.82682 0.23172 0.0
C119 C 0.01085 0.78815 0.43892 0.0
O120 O 0.03287 0.83876 0.23004 0.0
H121 H 0.02831 0.87606 0.56826 0.0
H122 H 0.05614 0.78884 0.27349 0.0
H123 H 0.99182 0.82735 0.29263 0.0
O124 O 0.03165 0.79249 0.42668 0.0
O125 O 1.00665 0.8049 0.4374 0.0
H126 H 0.11033 0.83474 0.50661 0.0
O127 O 0.03851 0.84142 0.60395 0.0
O128 O 0.06217 0.82702 0.60557 0.0
O129 O 0.06469 0.87516 0.40796 0.0
O130 O 0.08848 0.86092 0.41142 0.0
C131 C 0.05042 0.83447 0.66154 0.0
H132 H 0.07771 0.76991 0.21583 0.0
H133 H 0.13334 0.81559 0.45483 0.0
H134 H 0.9944 0.88167 0.60183 0.0
H135 H 0.95779 0.83211 0.31981 0.0
C136 C 0.26619 0.26097 0.19281 0.0
N137 N 0.27896 0.31554 0.41497 0.0
C138 C 0.29798 0.32684 0.34311 0.0
C139 C 0.3065 0.34992 0.31095 0.0
C140 C 0.29542 0.36184 0.35175 0.0
C141 C 0.27562 0.35006 0.4246 0.0
C142 C 0.26758 0.32659 0.45557 0.0
Zn143 Zn 0.2686 0.28069 0.43671 0.0
C144 C 0.21754 0.24949 0.41668 0.0
N145 N 0.25135 0.209 0.44627 0.0
C146 C 0.2649 0.2034 0.37883 0.0
C147 C 0.23544 0.19333 0.52416 0.0
C148 C 0.23353 0.17139 0.5401 0.0
C149 C 0.24832 0.16582 0.47604 0.0
C150 C 0.26364 0.18188 0.39222 0.0
Zn151 Zn 0.25925 0.2432 0.43726 0.0
O152 O 0.27058 0.27912 0.25105 0.0
C153 C 0.31059 0.27569 0.46867 0.0
O154 O 0.26104 0.24232 0.24866 0.0
H155 H 0.22495 0.1982 0.57751 0.0
H156 H 0.30652 0.31786 0.30794 0.0
H157 H 0.27753 0.21607 0.31796 0.0
O158 O 0.30346 0.29013 0.45871 0.0
O159 O 0.29595 0.25398 0.45747 0.0
H160 H 0.25222 0.31723 0.51064 0.0
O161 O 0.25747 0.24467 0.62262 0.0
O162 O 0.26625 0.28152 0.62466 0.0
O163 O 0.22284 0.23343 0.42342 0.0
O164 O 0.23365 0.27081 0.41926 0.0
C165 C 0.26148 0.26285 0.68047 0.0
H166 H 0.32176 0.35847 0.25423 0.0
H167 H 0.26676 0.35891 0.45799 0.0
H168 H 0.22154 0.15945 0.60585 0.0
H169 H 0.27512 0.17811 0.34002 0.0
C170 C 0.83539 0.0508 0.20011 0.0
N171 N 0.77981 0.01259 0.42161 0.0
C172 C 0.76867 0.02153 0.35722 0.0
C173 C 0.74608 1.00724 0.31584 0.0
C174 C 0.73463 0.98309 0.33666 0.0
C175 C 0.74596 0.97422 0.40755 0.0
C176 C 0.76875 0.98939 0.44926 0.0
Zn177 Zn 0.81529 0.03533 0.44287 0.0
C178 C 0.84293 0.01106 0.425 0.0
N179 N 0.88871 0.0845 0.45329 0.0
C180 C 0.89564 0.10359 0.38299 0.0
C181 C 0.90349 0.08357 0.53484 0.0
C182 C 0.92582 0.10301 0.55253 0.0
C183 C 0.93261 0.12339 0.48617 0.0
C184 C 0.91757 0.12324 0.3979 0.0
Zn185 Zn 0.85382 0.06034 0.44549 0.0
O186 O 0.81674 0.03836 0.25749 0.0
C187 C 0.82587 0.08431 0.47203 0.0
O188 O 0.85439 0.06287 0.25676 0.0
H189 H 0.89754 0.06829 0.59054 0.0
H190 H 0.77764 0.03967 0.33123 0.0
H191 H 0.88362 0.10419 0.3199 0.0
O192 O 0.8093 0.06346 0.46067 0.0
O193 O 0.84681 0.08862 0.46691 0.0
H194 H 0.77793 0.98241 0.49858 0.0
O195 O 0.85237 0.05712 0.63075 0.0
O196 O 0.81439 0.03261 0.63096 0.0
O197 O 0.86033 0.0318 0.43036 0.0
O198 O 0.82232 0.00786 0.42826 0.0
C199 C 0.83352 0.04467 0.68768 0.0
H200 H 0.73791 0.0151 0.26477 0.0
H201 H 0.73774 0.9557 0.42624 0.0
H202 H 0.93702 0.10264 0.62184 0.0
H203 H 0.92232 0.13866 0.34479 0.0
C204 C 0.711 0.59033 0.56993 0.0
N205 N 0.75419 0.57965 0.8066 0.0
C206 C 0.75416 0.56382 0.72855 0.0
C207 C 0.77426 0.56198 0.7146 0.0
C208 C 0.79439 0.57675 0.78086 0.0
C209 C 0.7934 0.5919 0.86489 0.0
C210 C 0.77313 0.5931 0.8762 0.0
Zn211 Zn 0.72856 0.58842 0.81333 0.0
C212 C 0.74894 0.63955 0.77196 0.0
N213 N 0.67783 0.61055 0.83469 0.0
C214 C 0.65506 0.59943 0.79851 0.0
C215 C 0.68669 0.63022 0.90301 0.0
C216 C 0.67301 0.63968 0.93575 0.0
C217 C 0.6497 0.62897 0.89902 0.0
C218 C 0.6405 0.60843 0.83026 0.0
Zn219 Zn 0.7013 0.59887 0.8136 0.0
O220 O 0.72498 0.58603 0.62755 0.0
C221 C 0.67979 0.54777 0.83912 0.0
O222 O 0.69746 0.59553 0.62605 0.0
H223 H 0.70444 0.6385 0.93542 0.0
H224 H 0.73899 0.55345 0.67323 0.0
H225 H 0.64813 0.58351 0.74666 0.0
O226 O 0.70091 0.55232 0.83054 0.0
O227 O 0.67538 0.56439 0.83602 0.0
H228 H 0.77303 0.60579 0.93656 0.0
O229 O 0.70547 0.60189 -0.00032 0.0
O230 O 0.73146 0.59079 0.00185 0.0
O231 O 0.72757 0.63314 0.78448 0.0
O232 O 0.75558 0.62477 0.7889 0.0
C233 C 0.71869 0.59681 0.05789 0.0
H234 H 0.77449 0.55015 0.64852 0.0
H235 H 0.80855 0.60345 0.9181 0.0
H236 H 0.68065 0.65533 -0.00961 0.0
H237 H 0.62251 0.59971 0.80041 0.0
C238 C 0.50949 0.16382 0.59958 0.0
N239 N 0.51919 0.21747 0.83504 0.0
C240 C 0.5356 0.23331 0.75965 0.0
C241 C 0.53794 0.25548 0.74544 0.0
C242 C 0.52308 0.26101 0.80878 0.0
C243 C 0.50725 0.24477 0.89021 0.0
C244 C 0.50556 0.22306 0.90184 0.0
Zn245 Zn 0.51069 0.18318 0.84304 0.0
C246 C 0.46001 0.15127 0.80205 0.0
N247 N 0.49037 0.11071 0.86532 0.0
C248 C 0.50069 0.09856 0.82547 0.0
C249 C 0.47114 0.10026 0.93633 0.0
C250 C 0.46129 0.07701 0.96807 0.0
C251 C 0.47111 0.0639 0.92732 0.0
C252 C 0.49123 0.07482 0.85592 0.0
Zn253 Zn 0.50187 0.14588 0.84305 0.0
O254 O 0.5132 0.1819 0.65758 0.0
C255 C 0.55242 0.1765 0.86974 0.0
O256 O 0.50486 0.14517 0.65532 0.0
H257 H 0.46335 0.11001 -0.02921 0.0
H258 H 0.54616 0.22844 0.70689 0.0
H259 H 0.51621 0.10723 0.771 0.0
O260 O 0.54695 0.19243 0.86178 0.0
O261 O 0.5365 0.15512 0.86504 0.0
H262 H 0.49252 0.21023 0.96058 0.0
O263 O 0.49931 0.14735 0.02894 0.0
O264 O 0.50822 0.18393 0.03157 0.0
O265 O 0.46745 0.13716 0.81523 0.0
O266 O 0.4741 0.17299 0.81733 0.0
C267 C 0.50331 0.16535 0.08738 0.0
H268 H 0.55028 0.2676 0.68141 0.0
H269 H 0.49562 0.24852 0.94123 0.0
H270 H 0.44591 0.06925 0.02422 0.0
H271 H 0.4992 0.06509 0.82279 0.0
C272 C 0.93621 0.39109 0.57454 0.0
N273 N 0.88373 0.34631 0.81327 0.0
C274 C 0.86677 0.34526 0.74017 0.0
C275 C 0.84495 0.32464 0.73259 0.0
C276 C 0.8408 0.30503 0.80001 0.0
C277 C 0.85833 0.30706 0.87781 0.0
C278 C 0.87966 0.32783 0.88289 0.0
Zn279 Zn 0.91753 0.37393 0.81671 0.0
C280 C 0.95152 0.35664 0.78546 0.0
N281 N 0.98936 0.42884 0.83518 0.0
C282 C 1.00628 0.42673 0.77762 0.0
C283 C 0.99492 0.44476 0.92465 0.0
C284 C 0.01786 0.45759 0.96723 0.0
C285 C 0.03511 0.45378 0.91796 0.0
C286 C 0.02937 0.439 0.81825 0.0
Zn287 Zn 0.95493 0.4026 0.81955 0.0
O288 O 0.91797 0.37671 0.63113 0.0
C289 C 0.92226 0.42108 0.83991 0.0
O290 O 0.95474 0.40506 0.63159 0.0
H291 H 0.98125 0.44604 -0.02945 0.0
H292 H 0.87039 0.36009 0.685 0.0
H293 H 1.00161 0.41407 0.70662 0.0
O294 O 0.90637 0.3996 0.83241 0.0
O295 O 0.94359 0.42656 0.83624 0.0
H296 H 0.8933 0.32887 0.94006 0.0
O297 O 0.95451 0.39952 0.00521 0.0
O298 O 0.91782 0.37186 0.00513 0.0
O299 O 0.96575 0.37825 0.80008 0.0
O300 O 0.92973 0.34914 0.79464 0.0
C301 C 0.93633 0.38547 0.06218 0.0
H302 H 0.83188 0.32374 0.67124 0.0
H303 H 0.85575 0.29249 0.93272 0.0
H304 H 0.02157 0.46875 0.04449 0.0
H305 H 0.04231 0.43582 0.77701 0.0
C306 C 0.71745 0.16595 0.55682 0.0
N307 N 0.75529 0.14818 0.77741 0.0
C308 C 0.7458 0.12753 0.71689 0.0
C309 C 0.75982 0.11952 0.66913 0.0
C310 C 0.78416 0.13306 0.67904 0.0
C311 C 0.7937 0.1537 0.74733 0.0
C312 C 0.77882 0.16102 0.79598 0.0
Zn313 Zn 0.73279 0.16118 0.8001 0.0
C314 C 0.75762 0.2134 0.78265 0.0
N315 N 0.68404 0.18595 0.80827 0.0
C316 C 0.66528 0.1741 0.73501 0.0
C317 C 0.68466 0.20141 0.89071 0.0
C318 C 0.66524 0.20436 0.90592 0.0
C319 C 0.64527 0.19118 0.83572 0.0
C320 C 0.64571 0.17651 0.74711 0.0
Zn321 Zn 0.70806 0.17501 0.80187 0.0
O322 O 0.72959 0.15943 0.61464 0.0
C323 C 0.68358 0.1228 0.82811 0.0
O324 O 0.70569 0.17321 0.61306 0.0
H325 H 0.69963 0.21045 0.94898 0.0
H326 H 0.72739 0.11775 0.69716 0.0
H327 H 0.66481 0.16156 0.67169 0.0
O328 O 0.70438 0.12702 0.81845 0.0
O329 O 0.67944 0.13956 0.82181 0.0
H330 H 0.78625 0.17759 0.84224 0.0
O331 O 0.71122 0.17664 -0.01269 0.0
O332 O 0.73566 0.16313 -0.01186 0.0
O333 O 0.73698 0.21024 0.788 0.0
O334 O 0.76051 0.19578 0.78538 0.0
C335 C 0.72363 0.17021 0.04453 0.0
H336 H 0.75154 0.10314 0.62044 0.0
H337 H 0.81242 0.16463 0.7579 0.0
H338 H 0.66528 0.21564 -0.02391 0.0
H339 H 0.63049 0.16598 0.69205 0.0
C340 C 0.93558 0.59894 0.52812 0.0
N341 N 0.9498 0.65407 0.74829 0.0
C342 C 0.97069 0.66601 0.69107 0.0
C343 C 0.97802 0.68785 0.64197 0.0
C344 C 0.96359 0.69769 0.64743 0.0
C345 C 0.94268 0.68583 0.71254 0.0
C346 C 0.93603 0.66383 0.76236 0.0
Zn347 Zn 0.93824 0.61874 0.77221 0.0
C348 C 0.88672 0.58909 0.7467 0.0
N349 N 0.91707 0.54586 0.77969 0.0
C350 C 0.93004 0.53944 0.71272 0.0
C351 C 0.90027 0.53042 0.85497 0.0
C352 C 0.89681 0.5078 0.86879 0.0
C353 C 0.9109 0.50135 0.8049 0.0
C354 C 0.92725 0.51723 0.72413 0.0
Zn355 Zn 0.9268 0.5806 0.77212 0.0
O356 O 0.94124 0.61742 0.58661 0.0
C357 C 0.97834 0.61082 0.81046 0.0
O358 O 0.92897 0.57994 0.58378 0.0
H359 H 0.89026 0.53595 0.90796 0.0
H360 H 0.98123 0.65808 0.67496 0.0
H361 H 0.94339 0.55194 0.65407 0.0
O362 O 0.97253 0.62629 0.80066 0.0
O363 O 0.96285 0.58949 0.79518 0.0
H364 H 0.91927 0.65407 0.80583 0.0
O365 O 0.92473 0.58212 0.95795 0.0
O366 O 0.93505 0.61944 0.95979 0.0
O367 O 0.89107 0.57242 0.75527 0.0
O368 O 0.90349 0.61011 0.74953 0.0
C369 C 0.92946 0.60055 0.01573 0.0
H370 H 0.9946 0.69656 0.5957 0.0
H371 H 0.93107 0.69287 0.71959 0.0
H372 H 0.88423 0.49599 0.93292 0.0
H373 H 0.93848 0.51281 0.67398 0.0
C374 C 0.50205 0.37914 0.5331 0.0
N375 N 0.44788 0.33875 0.76017 0.0
C376 C 0.44202 0.32134 0.67866 0.0
C377 C 0.41895 0.30775 0.63941 0.0
C378 C 0.40185 0.31233 0.68332 0.0
C379 C 0.40799 0.32907 0.77427 0.0
C380 C 0.43122 0.34209 0.81198 0.0
Zn381 Zn 0.48261 0.36392 0.77509 0.0
C382 C 0.51304 0.34228 0.76411 0.0
N383 N 0.55507 0.4161 0.78377 0.0
C384 C 0.56059 0.43508 0.71495 0.0
C385 C 0.57106 0.41579 0.85923 0.0
C386 C 0.59331 0.43565 0.87142 0.0
C387 C 0.59879 0.45583 0.80605 0.0
C388 C 0.58238 0.45516 0.72475 0.0
Zn389 Zn 0.52072 0.39019 0.77904 0.0
O390 O 0.48359 0.36569 0.58974 0.0
C391 C 0.48951 0.4113 0.79795 0.0
O392 O 0.52071 0.39227 0.59038 0.0
H393 H 0.56625 0.40055 0.9136 0.0
H394 H 0.45549 0.31914 0.63679 0.0
H395 H 0.54767 0.43508 0.65601 0.0
O396 O 0.47368 0.3902 0.78223 0.0
O397 O 0.5108 0.41652 0.79929 0.0
H398 H 0.43615 0.35597 0.87643 0.0
O399 O 0.52002 0.38753 0.96417 0.0
O400 O 0.48216 0.36264 0.96348 0.0
O401 O 0.52987 0.36335 0.76527 0.0
O402 O 0.49217 0.33826 0.7691 0.0
C403 C 0.50116 0.37495 0.02063 0.0
H404 H 0.41494 0.29512 0.56868 0.0
H405 H 0.39517 0.33293 0.8111 0.0
H406 H 0.60556 0.43567 0.93549 0.0
H407 H 0.58608 0.4704 0.67249 0.0
C408 C 0.37438 0.92285 0.91307 0.0
N409 N 0.41715 0.91129 0.15232 0.0
C410 C 0.41812 0.89648 0.0709 0.0
C411 C 0.43852 0.89504 0.05969 0.0
C412 C 0.45792 0.90917 0.13219 0.0
C413 C 0.45583 0.92317 0.21927 0.0
C414 C 0.43537 0.92407 0.22744 0.0
Zn415 Zn 0.39164 0.92042 0.15677 0.0
C416 C 0.4136 0.97165 0.11331 0.0
N417 N 0.34216 0.94468 0.17952 0.0
C418 C 0.31844 0.93082 0.1739 0.0
C419 C 0.35195 0.96645 0.22886 0.0
C420 C 0.3382 0.97461 0.2786 0.0
C421 C 0.3139 0.96018 0.28254 0.0
C422 C 0.30387 0.93831 0.22505 0.0
Zn423 Zn 0.36536 0.93232 0.15652 0.0
O424 O 0.38834 0.91844 0.97039 0.0
C425 C 0.34264 0.88072 0.18401 0.0
O426 O 0.36094 0.92815 0.96947 0.0
H427 H 0.37058 0.97718 0.2389 0.0
H428 H 0.4036 0.88671 0.01082 0.0
H429 H 0.31077 0.91341 0.13672 0.0
O430 O 0.36349 0.88459 0.17233 0.0
O431 O 0.33896 0.89784 0.18351 0.0
H432 H 0.43468 0.93615 0.28981 0.0
O433 O 0.37016 0.9364 0.34245 0.0
O434 O 0.39387 0.92243 0.34512 0.0
O435 O 0.39237 0.96607 0.1217 0.0
O436 O 0.41934 0.95637 0.13489 0.0
C437 C 0.38228 0.92992 0.40092 0.0
H438 H 0.43956 0.88407 -0.00885 0.0
H439 H 0.47033 0.93415 0.27757 0.0
H440 H 0.34676 0.99186 0.31869 0.0
H441 H 0.28514 0.92665 0.22529 0.0
C442 C 0.17323 0.49489 0.93809 0.0
N443 N 0.18548 0.5492 0.17463 0.0
C444 C 0.2024 0.56469 0.10006 0.0
C445 C 0.20598 0.58736 0.087 0.0
C446 C 0.19193 0.5938 0.15117 0.0
C447 C 0.17543 0.57787 0.23113 0.0
C448 C 0.17249 0.55559 0.24167 0.0
Zn449 Zn 0.17594 0.51459 0.18154 0.0
C450 C 0.12433 0.4839 0.14593 0.0
N451 N 0.15377 0.44163 0.20252 0.0
C452 C 0.16604 0.43099 0.16995 0.0
C453 C 0.13395 0.43005 0.26861 0.0
C454 C 0.12558 0.40709 0.30314 0.0
C455 C 0.13775 0.39568 0.27159 0.0
C456 C 0.15828 0.40776 0.20426 0.0
Zn457 Zn 0.16495 0.4767 0.18173 0.0
O458 O 0.17795 0.5133 -0.00416 0.0
C459 C 0.21634 0.5065 0.20417 0.0
O460 O 0.16771 0.47603 -0.00595 0.0
H461 H 0.12485 0.43882 0.29882 0.0
H462 H 0.21243 0.55918 0.04713 0.0
H463 H 0.18206 0.4406 0.11994 0.0
O464 O 0.21178 0.52305 0.19718 0.0
O465 O 0.1997 0.48543 0.20138 0.0
H466 H 0.15905 0.54304 0.29977 0.0
O467 O 0.16247 0.47797 0.36753 0.0
O468 O 0.17386 0.51525 0.36987 0.0
O469 O 0.13036 0.4686 0.15662 0.0
O470 O 0.13972 0.50533 0.15931 0.0
C471 C 0.16774 0.49638 0.42576 0.0
H472 H 0.21866 0.59923 0.02339 0.0
H473 H 0.16419 0.5823 0.28121 0.0
H474 H 0.10978 0.39835 0.35593 0.0
H475 H 0.16803 0.39934 0.17821 0.0
C476 C 0.59897 0.72037 0.8801 0.0
N477 N 0.54484 0.67691 0.11633 0.0
C478 C 0.52879 0.67645 0.03849 0.0
C479 C 0.50678 0.65617 0.02699 0.0
C480 C 0.50166 0.6364 0.09541 0.0
C481 C 0.51811 0.63789 0.17865 0.0
C482 C 0.5396 0.65829 0.18752 0.0
Zn483 Zn 0.57929 0.70277 0.12311 0.0
C484 C 0.60994 0.68249 0.08299 0.0
N485 N 0.65238 0.75362 0.14874 0.0
C486 C 0.6645 0.77675 0.11914 0.0
C487 C 0.66254 0.74406 0.21638 0.0
C488 C 0.68538 0.75732 0.25527 0.0
C489 C 0.69846 0.781 0.2258 0.0
C490 C 0.68783 0.79094 0.15736 0.0
Zn491 Zn 0.61705 0.73033 0.12378 0.0
O492 O 0.58073 0.70618 0.93743 0.0
C493 C 0.58742 0.75165 0.14737 0.0
O494 O 0.6177 0.73418 0.9364 0.0
H495 H 0.6527 0.7261 0.24504 0.0
H496 H 0.53338 0.69135 -0.01815 0.0
H497 H 0.65602 0.7843 0.06841 0.0
O498 O 0.5709 0.73043 0.13834 0.0
O499 O 0.60853 0.75627 0.14612 0.0
H500 H 0.55257 0.65873 0.24764 0.0
O501 O 0.61569 0.72611 0.30973 0.0
O502 O 0.57854 0.70013 0.31167 0.0
O503 O 0.62483 0.70397 0.09393 0.0
O504 O 0.58853 0.67572 0.10063 0.0
C505 C 0.59738 0.71294 0.36783 0.0
H506 H 0.49445 0.65554 0.96148 0.0
H507 H 0.51469 0.62304 0.23352 0.0
H508 H 0.69269 0.74908 0.31008 0.0
H509 H 0.69742 0.80925 0.13332 0.0
C510 C 0.38076 0.49463 0.86861 0.0
N511 N 0.42086 0.47949 0.08951 0.0
C512 C 0.41054 0.45769 0.04041 0.0
C513 C 0.4238 0.44861 -0.00545 0.0
C514 C 0.44821 0.46221 -0.00646 0.0
C515 C 0.45872 0.48428 0.04931 0.0
C516 C 0.44461 0.49266 0.09697 0.0
Zn517 Zn 0.39832 0.49259 0.11336 0.0
C518 C 0.42108 0.54385 0.08169 0.0
N519 N 0.34747 0.51455 0.12055 0.0
C520 C 0.32834 0.50199 0.05064 0.0
C521 C 0.34824 0.53028 0.2017 0.0
C522 C 0.32863 0.5328 0.21919 0.0
C523 C 0.30825 0.51883 0.15303 0.0
C524 C 0.30853 0.50391 0.06534 0.0
Zn525 Zn 0.37199 0.50434 0.11231 0.0
O526 O 0.39304 0.48838 0.92746 0.0
C527 C 0.34977 0.4535 0.15905 0.0
O528 O 0.36902 0.50201 0.9241 0.0
H529 H 0.36355 0.53992 0.2572 0.0
H530 H 0.3919 0.44754 0.02855 0.0
H531 H 0.32784 0.48933 -0.01199 0.0
O532 O 0.37099 0.45906 0.1505 0.0
O533 O 0.34397 0.4687 0.13639 0.0
H534 H 0.4527 0.51014 0.13362 0.0
O535 O 0.37583 0.50657 0.29872 0.0
O536 O 0.40322 0.49688 0.3004 0.0
O537 O 0.40021 0.53977 0.09397 0.0
O538 O 0.42507 0.52693 0.08401 0.0
C539 C 0.38977 0.50222 0.35651 0.0
H540 H 0.41478 0.43123 0.95602 0.0
H541 H 0.47753 0.49539 0.05104 0.0
H542 H 0.32889 0.5444 0.28817 0.0
H543 H 0.2931 0.49291 0.01258 0.0
C544 C 0.59816 0.92843 0.88863 0.0
N545 N 0.61537 0.98506 0.10417 0.0
C546 C 0.63538 0.99554 0.03879 0.0
C547 C 0.64407 0.01793 -0.00603 0.0
C548 C 0.63188 0.02994 0.01201 0.0
C549 C 0.61166 0.01927 0.08325 0.0
C550 C 0.60362 0.99663 0.1285 0.0
Zn551 Zn 0.60245 0.94957 0.13255 0.0
C552 C 0.55052 0.92124 0.11046 0.0
N553 N 0.57876 0.87594 0.14961 0.0
C554 C 0.56677 0.8598 0.06305 0.0
C555 C 0.5872 0.87023 0.2467 0.0
C556 C 0.58478 0.84818 0.25696 0.0
C557 C 0.57416 0.83179 0.16505 0.0
C558 C 0.56426 0.83744 0.06902 0.0
Zn559 Zn 0.5894 0.91097 0.13248 0.0
O560 O 0.60357 0.9468 0.94753 0.0
C561 C 0.64123 0.93945 0.1611 0.0
O562 O 0.59182 0.90938 0.94382 0.0
H563 H 0.59715 0.88319 0.31371 0.0
H564 H 0.64422 0.98617 0.01488 0.0
H565 H 0.56029 0.86464 -0.01384 0.0
O566 O 0.63669 0.95581 0.15066 0.0
O567 O 0.62477 0.91837 0.15561 0.0
H568 H 0.58748 0.98798 0.17826 0.0
O569 O 0.58715 0.91377 0.3176 0.0
O570 O 0.60111 0.95178 0.32091 0.0
O571 O 0.55426 0.90411 0.11362 0.0
O572 O 0.56769 0.94206 0.11741 0.0
C573 C 0.59368 0.93249 0.3762 0.0
H574 H 0.66007 0.02553 0.9428 0.0
H575 H 0.60169 0.02788 0.09983 0.0
H576 H 0.59237 0.84446 0.33343 0.0
H577 H 0.55602 0.82531 -0.0041 0.0
C578 C 0.16511 0.70845 0.89995 0.0
N579 N 0.11235 0.66455 0.12701 0.0
C580 C 0.10696 0.64876 0.03702 0.0
C581 C 0.08407 0.63591 -0.0061 0.0
C582 C 0.06673 0.63956 0.04329 0.0
C583 C 0.07228 0.65411 0.14383 0.0
C584 C 0.09532 0.66642 0.18492 0.0
Zn585 Zn 0.14657 0.69106 0.14264 0.0
C586 C 0.17974 0.67338 0.12184 0.0
N587 N 0.21736 0.74783 0.14972 0.0
C588 C 0.22147 0.76667 0.08303 0.0
C589 C 0.23435 0.74839 0.22077 0.0
C590 C 0.25624 0.76885 0.22953 0.0
C591 C 0.2604 0.78882 0.16558 0.0
C592 C 0.24286 0.78734 0.0897 0.0
Zn593 Zn 0.18369 0.72018 0.1453 0.0
O594 O 0.14706 0.69412 0.95698 0.0
C595 C 0.14912 0.73672 0.17482 0.0
O596 O 0.18351 0.72238 0.95694 0.0
H597 H 0.2307 0.73324 0.27339 0.0
H598 H 0.12072 0.64768 -0.00902 0.0
H599 H 0.20782 0.76594 0.02706 0.0
O600 O 0.13526 0.71501 0.16093 0.0
O601 O 0.171 0.74462 0.16691 0.0
H602 H 0.09988 0.67898 0.25628 0.0
O603 O 0.18324 0.71737 0.33086 0.0
O604 O 0.14668 0.68863 0.33063 0.0
O605 O 0.19533 0.69495 0.12936 0.0
O606 O 0.15831 0.66747 0.12625 0.0
C607 C 0.16512 0.70281 0.38758 0.0
H608 H 0.08048 0.62493 0.91599 0.0
H609 H 0.05925 0.65716 0.18503 0.0
H610 H 0.26936 0.76938 0.28929 0.0
H611 H 0.24549 0.80228 0.03784 0.0
C612 C 0.13808 0.36405 0.39509 0.0
C613 C 0.12766 0.37096 0.30676 0.0
H614 H 0.13309 0.33712 0.52011 0.0
C615 C 0.10502 0.35506 0.26778 0.0
H616 H 0.15548 0.37623 0.4273 0.0
C617 C 0.0923 0.33335 0.32166 0.0
C618 C 0.10191 0.32686 0.41554 0.0
H619 H 0.09665 0.36001 0.2 0.0
H620 H 0.07451 0.32183 0.292 0.0
C621 C 0.12527 0.3419 0.44879 0.0
C622 C 0.75835 0.79257 0.30526 0.0
C623 C 0.76675 0.81195 0.382 0.0
H624 H 0.73092 0.76859 0.19164 0.0
C625 C 0.75375 0.82336 0.39464 0.0
H626 H 0.76825 0.78381 0.28987 0.0
C627 C 0.73188 0.81433 0.33776 0.0
C628 C 0.72314 0.79413 0.26621 0.0
H629 H 0.76005 0.83861 0.45141 0.0
H630 H 0.72139 0.82242 0.354 0.0
C631 C 0.73704 0.78396 0.24752 0.0
C632 C 0.29898 0.99239 0.51245 0.0
C633 C 0.27937 0.99184 0.46172 0.0
H634 H 0.32449 0.98183 0.49878 0.0
C635 C 0.2688 0.97765 0.36119 0.0
H636 H 0.3074 1.00316 0.58999 0.0
C637 C 0.27908 0.96595 0.30589 0.0
C638 C 0.29992 0.96817 0.35128 0.0
H639 H 0.25381 0.97721 0.31961 0.0
H640 H 0.27166 0.95658 0.2235 0.0
C641 C 0.30891 0.98041 0.45901 0.0
C642 C 0.40144 0.14425 0.70292 0.0
C643 C 0.3909 0.12175 0.65164 0.0
H644 H 0.43184 0.17154 0.79272 0.0
C645 C 0.4037 0.11015 0.64557 0.0
H646 H 0.39189 0.15355 0.7089 0.0
C647 C 0.42583 0.11994 0.69537 0.0
C648 C 0.43623 0.14195 0.75143 0.0
H649 H 0.39627 0.09301 0.60466 0.0
H650 H 0.4348 0.11005 0.6895 0.0
C651 C 0.4241 0.15438 0.75205 0.0
C652 C 0.94695 0.31707 0.73534 0.0
C653 C 0.96064 0.34162 0.74088 0.0
H654 H 0.94587 0.28487 0.68922 0.0
C655 C 0.9834 0.35253 0.6945 0.0
H656 H 0.92921 0.3082 0.7685 0.0
C657 C 0.9925 0.33943 0.64648 0.0
C658 C 0.97943 0.31489 0.64556 0.0
H659 H 0.99431 0.37139 0.69379 0.0
H660 H 1.01011 0.34863 0.61142 0.0
C661 C 0.95635 0.30376 0.68856 0.0
C662 C 0.80126 0.69839 0.6843 0.0
C663 C 0.79016 0.70703 0.60998 0.0
H664 H 0.79687 0.66984 0.79566 0.0
C665 C 0.76645 0.69259 0.58271 0.0
H666 H 0.81954 0.70931 0.70713 0.0
C667 C 0.75361 0.67074 0.63496 0.0
C668 C 0.76412 0.66245 0.71496 0.0
H669 H 0.75753 0.69872 0.52483 0.0
H670 H 0.73517 0.66042 0.61363 0.0
C671 C 0.7883 0.67602 0.73589 0.0
C672 C 0.99273 0.74528 0.41686 0.0
C673 C 0.99299 0.76429 0.47349 0.0
H674 H 0.98219 0.70908 0.42469 0.0
C675 C 0.98015 0.76048 0.579 0.0
H676 H 1.00253 0.74781 0.33561 0.0
C677 C 0.96909 0.73834 0.63292 0.0
C678 C 0.97061 0.71976 0.58121 0.0
H679 H 0.98043 0.77501 0.6252 0.0
H680 H 0.96088 0.73625 0.71887 0.0
C681 C 0.98136 0.7232 0.46908 0.0
C682 C 0.34298 0.26933 0.54462 0.0
C683 C 0.3349 0.2845 0.5101 0.0
H684 H 0.37068 0.26624 0.62741 0.0
C685 C 0.34947 0.30868 0.52882 0.0
H686 H 0.33215 0.25063 0.53204 0.0
C687 C 0.371 0.31741 0.58531 0.0
C688 C 0.3788 0.30231 0.62345 0.0
H689 H 0.34398 0.32098 0.50307 0.0
H690 H 0.38161 0.33612 0.59922 0.0
C691 C 0.36489 0.27822 0.6 0.0
C692 C 0.8184 0.12618 0.66806 0.0
C693 C 0.79884 0.12545 0.61424 0.0
H694 H 0.84292 0.1139 0.66205 0.0
C695 C 0.79171 0.11502 0.50098 0.0
H696 H 0.82437 0.13412 0.75492 0.0
C697 C 0.80198 0.1032 0.44944 0.0
C698 C 0.82017 0.10226 0.50778 0.0
H699 H 0.77723 0.11484 0.4549 0.0
H700 H 0.79484 0.09369 0.367 0.0
C701 C 0.82908 0.11472 0.61471 0.0
C702 C 0.68369 0.96257 0.12393 0.0
C703 C 0.66525 0.94559 0.19149 0.0
H704 H 0.72025 0.98672 0.11379 0.0
C705 C 0.67008 0.93836 0.30015 0.0
H706 H 0.68031 0.96841 0.03999 0.0
C707 C 0.69296 0.94952 0.34534 0.0
C708 C 0.71125 0.96786 0.28158 0.0
H709 H 0.65597 0.92549 0.35443 0.0
H710 H 0.69601 0.94488 0.43328 0.0
C711 C 0.70649 0.97327 0.16737 0.0
C712 C 0.14308 0.789 0.26942 0.0
C713 C 0.11925 0.77774 0.29993 0.0
H714 H 0.17144 0.78493 0.20386 0.0
C715 C 0.10595 0.75328 0.29085 0.0
H716 H 0.15375 0.80785 0.27522 0.0
C717 C 0.11573 0.74043 0.24767 0.0
C718 C 0.13934 0.7515 0.2142 0.0
H719 H 0.0877 0.74396 0.31613 0.0
H720 H 0.10462 0.72162 0.24185 0.0
C721 C 0.1531 0.77594 0.22717 0.0
C722 C 0.34265 0.42363 0.31005 0.0
C723 C 0.33366 0.43118 0.21783 0.0
H724 H 0.33695 0.39597 0.42801 0.0
C725 C 0.31016 0.41711 0.18401 0.0
H726 H 0.36053 0.43439 0.34021 0.0
C727 C 0.29654 0.39483 0.23509 0.0
C728 C 0.30625 0.38686 0.32188 0.0
H729 H 0.30281 0.42273 0.11404 0.0
H730 H 0.27904 0.38336 0.20188 0.0
C731 C 0.32908 0.40181 0.36177 0.0
C732 C 0.0719 0.48554 0.01617 0.0
C733 C 0.05771 0.46209 -0.01937 0.0
H734 H 0.10435 0.51107 0.0967 0.0
C735 C 0.06471 0.44589 0.00934 0.0
H736 H 0.06673 0.49833 -0.00381 0.0
C737 C 0.08569 0.45294 0.0689 0.0
C738 C 0.10053 0.47653 0.10018 0.0
H739 H 0.05387 0.4276 -0.01419 0.0
H740 H 0.09056 0.43986 0.08713 0.0
C741 C 0.09329 0.49277 0.07442 0.0
C742 C 0.64631 0.66448 0.90446 0.0
C743 C 0.63627 0.64063 0.93008 0.0
H744 H 0.646 0.69607 0.93375 0.0
C745 C 0.61587 0.62967 -0.00018 0.0
H746 H 0.66187 0.6733 0.85001 0.0
C747 C 0.60652 0.64288 0.04853 0.0
C748 C 0.61778 0.66715 0.02923 0.0
H749 H 0.60792 0.61127 0.02128 0.0
H750 H 0.5912 0.63438 0.10471 0.0
C751 C 0.63732 0.67755 0.95383 0.0
C752 C 0.43509 0.02542 0.92458 0.0
C753 C 0.45872 0.03871 0.95624 0.0
H754 H 0.40257 0.99423 0.95098 0.0
C755 C 0.46836 0.029 0.03338 0.0
H756 H 0.42728 0.03252 0.86526 0.0
C757 C 0.45405 1.00672 0.0832 0.0
C758 C 0.42998 0.99433 0.05794 0.0
H759 H 0.48652 0.03912 0.06002 0.0
H760 H 0.46152 0.99972 0.1452 0.0
C761 C 0.4209 1.00364 -0.02472 0.0
C762 C 0.66367 0.08002 0.79553 0.0
C763 C 0.66533 0.09893 0.85996 0.0
H764 H 0.65061 0.04328 0.78949 0.0
C765 C 0.65302 0.09468 0.96754 0.0
H766 H 0.67305 0.0829 0.71251 0.0
C767 C 0.64083 0.07197 0.01478 0.0
C768 C 0.64062 0.05321 0.95425 0.0
H769 H 0.6544 0.10913 0.01962 0.0
H770 H 0.63296 0.06943 0.10195 0.0
C771 C 0.65109 0.05739 0.84091 0.0
C772 C 0.03771 0.64804 0.95034 0.0
C773 C 0.04434 0.63157 -0.02063 0.0
H774 H 0.01234 0.6546 0.87112 0.0
C775 C 0.03003 0.60822 0.94279 0.0
H776 H 0.04868 0.66627 -0.02536 0.0
C777 C 1.00884 0.60133 0.88326 0.0
C778 C 1.00195 0.61782 0.85732 0.0
H779 H 0.03495 0.59524 0.96294 0.0
H780 H 0.99766 0.58308 0.86019 0.0
C781 C 0.01694 0.64133 0.88954 0.0
C782 C 0.4828 0.45583 -0.02174 0.0
C783 C 0.46189 0.45309 0.93072 0.0
H784 H 0.5084 0.44493 -0.02908 0.0
C785 C 0.45277 0.43962 0.82631 0.0
H786 H 0.49035 0.4661 0.05816 0.0
C787 C 0.46276 0.42721 0.77836 0.0
C788 C 0.4826 0.42859 0.83087 0.0
H789 H 0.43721 0.43779 0.78423 0.0
H790 H 0.45438 0.41576 0.7029 0.0
C791 C 0.49317 0.44376 0.92813 0.0
C792 C 0.16618 0.25905 0.39702 0.0
C793 C 0.14785 0.23782 0.43934 0.0
H794 H 0.20233 0.27912 0.3546 0.0
C795 C 0.15179 0.21918 0.46133 0.0
H796 H 0.16344 0.27359 0.37876 0.0
C797 C 0.17431 0.22233 0.44803 0.0
C798 C 0.193 0.24417 0.41273 0.0
H799 H 0.13782 0.20268 0.4944 0.0
H800 H 0.17731 0.20814 0.47101 0.0
C801 C 0.18845 0.26218 0.38358 0.0
C802 C 0.82641 0.96801 0.4104 0.0
C803 C 0.84613 0.99045 0.42063 0.0
H804 H 0.81293 0.93115 0.41218 0.0
C805 C 0.86831 0.99259 0.43273 0.0
H806 H 0.80909 0.96565 0.3995 0.0
C807 C 0.87048 0.97257 0.43974 0.0
C808 C 0.8505 0.95021 0.43558 0.0
H809 H 0.88385 0.00966 0.44035 0.0
H810 H 0.88758 0.97453 0.45318 0.0
C811 C 0.82857 0.94819 0.41787 0.0
C812 C 0.10383 0.92238 0.42087 0.0
C813 C 0.10608 0.90234 0.41261 0.0
H814 H 0.12153 0.9597 0.4466 0.0
C815 C 0.12854 0.90507 0.41595 0.0
H816 H 0.08676 0.92086 0.41827 0.0
C817 C 0.14815 0.92705 0.43269 0.0
C818 C 0.14592 0.94694 0.44606 0.0
H819 H 0.13104 0.89013 0.40879 0.0
H820 H 0.16517 0.92844 0.43724 0.0
C821 C 0.12366 0.94457 0.43688 0.0
C822 C 0.27141 0.1464 0.51934 0.0
C823 C 0.2495 0.14443 0.50173 0.0
H824 H 0.29069 0.1289 0.54467 0.0
C825 C 0.22939 0.12214 0.50421 0.0
H826 H 0.28717 0.16339 0.52026 0.0
C827 C 0.23137 0.10208 0.51806 0.0
C828 C 0.25349 0.10411 0.53073 0.0
H829 H 0.21228 0.12018 0.49114 0.0
H830 H 0.21571 0.08504 0.51557 0.0
C831 C 0.27338 0.12656 0.53385 0.0
C832 C 0.95143 0.16517 0.54282 0.0
C833 C 0.9538 0.14574 0.51609 0.0
H834 H 0.96843 0.20188 0.57341 0.0
C835 C 0.97622 0.14849 0.50963 0.0
H836 H 0.93428 0.16338 0.54989 0.0
C837 C 0.99605 0.17077 0.52252 0.0
C838 C 0.99358 0.19045 0.54276 0.0
H839 H 0.97838 0.13367 0.48924 0.0
H840 H 0.01319 0.17271 0.51198 0.0
C841 C 0.97104 0.18722 0.55633 0.0
C842 C 0.93277 0.83442 0.53381 0.0
C843 C 0.95125 0.85592 0.49525 0.0
H844 H 0.89644 0.81405 0.57199 0.0
C845 C 0.94736 0.87467 0.4758 0.0
H846 H 0.93547 0.81979 0.54998 0.0
C847 C 0.92478 0.87139 0.48779 0.0
C848 C 0.90597 0.84933 0.5193 0.0
H849 H 0.96145 0.89138 0.4456 0.0
H850 H 0.92187 0.88571 0.46675 0.0
C851 C 0.91043 0.83117 0.54604 0.0
C852 C 0.843 0.56224 0.75845 0.0
C853 C 0.86247 0.58467 0.74039 0.0
H854 H 0.80578 0.542 0.78473 0.0
C855 C 0.85879 0.60365 0.72393 0.0
H856 H 0.84527 0.54727 0.77103 0.0
C857 C 0.83648 0.60063 0.73208 0.0
C858 C 0.81719 0.57855 0.7564 0.0
H859 H 0.87328 0.62112 0.7083 0.0
H860 H 0.83435 0.61576 0.72256 0.0
C861 C 0.82045 0.5592 0.76604 0.0
C862 C 0.49771 0.29958 0.74536 0.0
C863 C 0.51698 0.32214 0.76168 0.0
H864 H 0.4848 0.26282 0.74612 0.0
C865 C 0.53912 0.32468 0.78252 0.0
H866 H 0.48046 0.29692 0.72727 0.0
C867 C 0.54158 0.30484 0.79292 0.0
C868 C 0.52191 0.28234 0.78321 0.0
H869 H 0.5543 0.34186 0.79501 0.0
H870 H 0.55856 0.30703 0.81349 0.0
C871 C 0.50015 0.27998 0.75615 0.0
C872 C 0.77665 0.25751 0.78428 0.0
C873 C 0.77847 0.23721 0.77773 0.0
H874 H 0.79503 0.29508 0.79605 0.0
C875 C 0.80081 0.23969 0.77088 0.0
H876 H 0.7597 0.25621 0.78929 0.0
C877 C 0.8208 0.26172 0.77489 0.0
C878 C 0.81912 0.28198 0.78574 0.0
H879 H 0.80297 0.22453 0.76445 0.0
H880 H 0.83771 0.26288 0.77067 0.0
C881 C 0.79683 0.27974 0.78777 0.0
C882 C 0.89287 0.45749 0.79983 0.0
C883 C 0.91132 0.47971 0.83199 0.0
H884 H 0.88173 0.42099 0.77742 0.0
C885 C 0.93185 0.48178 0.8794 0.0
H886 H 0.8769 0.4556 0.7627 0.0
C887 C 0.93459 0.46232 0.88796 0.0
C888 C 0.9169 0.44025 0.84867 0.0
H889 H 0.94621 0.49873 0.90552 0.0
H890 H 0.95106 0.46481 0.92132 0.0
C891 C 0.89564 0.43779 0.80824 0.0
C892 C 0.61789 0.49776 0.86005 0.0
C893 C 0.62019 0.47844 0.82986 0.0
H894 H 0.63481 0.53449 0.88876 0.0
C895 C 0.64263 0.48151 0.81458 0.0
H896 H 0.60078 0.49576 0.87402 0.0
C897 C 0.66243 0.50397 0.82234 0.0
C898 C 0.6599 0.5235 0.84617 0.0
H899 H 0.64476 0.46678 0.79141 0.0
H900 H 0.6795 0.50615 0.80512 0.0
C901 C 0.63745 0.51996 0.86844 0.0
C902 C 0.60428 0.16797 0.90149 0.0
C903 C 0.62273 0.18955 0.86373 0.0
H904 H 0.5678 0.14713 0.93475 0.0
C905 C 0.61855 0.20799 0.8403 0.0
H906 H 0.60719 0.15356 0.92052 0.0
C907 C 0.59576 0.20432 0.84787 0.0
C908 C 0.57703 0.18216 0.87864 0.0
H909 H 0.63261 0.22475 0.81048 0.0
H910 H 0.59265 0.2184 0.8241 0.0
C911 C 0.58173 0.16432 0.9091 0.0
C912 C 0.50667 0.89478 0.10786 0.0
C913 C 0.52645 0.91737 0.10372 0.0
H914 H 0.46916 0.87433 0.11921 0.0
C915 C 0.52315 0.93675 0.09844 0.0
H916 H 0.50862 0.87948 0.11138 0.0
C917 C 0.50081 0.93378 0.10291 0.0
C918 C 0.48109 0.91136 0.11262 0.0
H919 H 0.5379 0.95439 0.09373 0.0
H920 H 0.49895 0.94916 0.10135 0.0
C921 C 0.48411 0.8918 0.11186 0.0
C922 C 0.20653 0.65706 0.1562 0.0
C923 C 0.18558 0.65462 0.11109 0.0
H924 H 0.22513 0.63925 0.20441 0.0
C925 C 0.16853 0.63284 0.06538 0.0
H926 H 0.21992 0.67365 0.19204 0.0
C927 C 0.17152 0.61352 0.07229 0.0
C928 C 0.19163 0.61548 0.12462 0.0
H929 H 0.15234 0.63046 0.02841 0.0
H930 H 0.15758 0.59671 0.04149 0.0
C931 C 0.20952 0.63749 0.16324 0.0
C932 C 0.48293 0.59391 0.05338 0.0
C933 C 0.48043 0.61343 0.07516 0.0
H934 H 0.46628 0.55687 0.03711 0.0
C935 C 0.45792 0.61028 0.08799 0.0
H936 H 0.50011 0.59594 0.04175 0.0
C937 C 0.4383 0.58767 0.086 0.0
C938 C 0.44101 0.56802 0.07053 0.0
H939 H 0.45562 0.62513 0.10502 0.0
H940 H 0.42118 0.58555 0.1008 0.0
C941 C 0.46351 0.57152 0.0509 0.0
C942 C 0.561 0.76888 0.128 0.0
C943 C 0.58281 0.77132 0.157 0.0
H944 H 0.54104 0.78623 0.10684 0.0
C945 C 0.60119 0.79345 0.1904 0.0
H946 H 0.54655 0.75206 0.10122 0.0
C947 C 0.59807 0.81272 0.1935 0.0
C948 C 0.57645 0.81054 0.16354 0.0
H949 H 0.61825 0.79605 0.21318 0.0
H950 H 0.6129 0.82955 0.21707 0.0
C951 C 0.55789 0.78842 0.13041 0.0
C952 C 0.29991 0.85371 0.20941 0.0
C953 C 0.32228 0.85667 0.19185 0.0
H954 H 0.26313 0.83005 0.21605 0.0
C955 C 0.32438 0.8367 0.17516 0.0
H956 H 0.29754 0.86859 0.22404 0.0
C957 C 0.30436 0.81434 0.17108 0.0
C958 C 0.28201 0.81173 0.18263 0.0
H959 H 0.34136 0.83839 0.16171 0.0
H960 H 0.30627 0.79925 0.15428 0.0
C961 C 0.2801 0.83159 0.2046 0.0
C962 C 0.28239 0.5365 0.17291 0.0
C963 C 0.28576 0.51722 0.18288 0.0
H964 H 0.25746 0.5483 0.17164 0.0
C965 C 0.26677 0.49529 0.2122 0.0
H966 H 0.29686 0.55358 0.15035 0.0
C967 C 0.24452 0.49227 0.22474 0.0
C968 C 0.24065 0.5111 0.20766 0.0
H969 H 0.26904 0.48024 0.22179 0.0
H970 H 0.23021 0.47488 0.24385 0.0
C971 C 0.2599 0.53345 0.18494 0.0
C972 C 0.06232 0.25082 0.08344 0.0
C973 C 0.04788 0.25759 0.14244 0.0
H974 H 0.076 0.24724 0.91717 0.0
C975 C 0.03612 0.26639 0.07537 0.0
H976 H 0.07175 0.24407 0.13262 0.0
C977 C 0.03873 0.26837 0.95188 0.0
C978 C 0.05314 0.26155 0.89291 0.0
H979 H 0.02507 0.27197 0.11821 0.0
H980 H 0.02931 0.27513 0.90261 0.0
C981 C 0.06493 0.25279 0.95999 0.0
C982 C 0.84315 0.85292 0.05165 0.0
C983 C 0.83792 0.83215 0.11144 0.0
H984 H 0.84508 0.8694 0.88485 0.0
C985 C 0.8302 0.81155 0.04512 0.0
H986 H 0.84901 0.8691 0.1002 0.0
C987 C 0.82776 0.81172 0.92166 0.0
C988 C 0.83302 0.8325 0.86193 0.0
H989 H 0.82581 0.79524 0.08857 0.0
H990 H 0.8219 0.79555 0.873 0.0
C991 C 0.84072 0.85309 0.92825 0.0
C992 C 0.24406 0.03415 0.08646 0.0
C993 C 0.26538 0.04807 0.14635 0.0
H994 H 0.22667 0.02167 0.91901 0.0
C995 C 0.28597 0.06024 0.07991 0.0
H996 H 0.22786 0.02445 0.1352 0.0
C997 C 0.28525 0.05854 0.95603 0.0
C998 C 0.26392 0.04463 0.89619 0.0
H999 H 0.30265 0.07099 0.12346 0.0
H1000 H 0.30145 0.06821 0.90722 0.0
C1001 C 0.24334 0.03243 0.9626 0.0
C1002 C 0.03573 0.8418 0.852 0.0
C1003 C 0.04952 0.83426 0.79267 0.0
H1004 H 0.02346 0.847 0.01903 0.0
C1005 C 0.06167 0.82589 0.85963 0.0
H1006 H 0.02605 0.84828 0.80283 0.0
C1007 C 0.06009 0.82511 -0.0165 0.0
C1008 C 0.04633 0.83268 0.04279 0.0
H1009 H 0.07233 0.81986 0.81652 0.0
H1010 H 0.06974 0.81861 0.03273 0.0
C1011 C 0.03413 0.84099 -0.02414 0.0
C1012 C 0.27077 0.28231 0.00236 0.0
C1013 C 0.26557 0.2615 0.06161 0.0
H1014 H 0.27331 0.29904 0.83559 0.0
C1015 C 0.25863 0.24113 -0.00531 0.0
H1016 H 0.27609 0.29833 0.05154 0.0
C1017 C 0.2569 0.24154 0.87102 0.0
C1018 C 0.26209 0.26235 0.81172 0.0
H1019 H 0.25437 0.22481 0.03777 0.0
H1020 H 0.25158 0.22552 0.82192 0.0
C1021 C 0.26903 0.28273 0.87866 0.0
C1022 C 0.81369 0.03586 0.00836 0.0
C1023 C 0.83491 0.0498 0.06891 0.0
H1024 H 0.7966 0.02307 0.8405 0.0
C1025 C 0.85564 0.06169 0.00324 0.0
H1026 H 0.79739 0.02639 0.05656 0.0
C1027 C 0.85517 0.05964 0.87951 0.0
C1028 C 0.83395 0.04568 0.81892 0.0
H1029 H 0.87226 0.07244 0.04735 0.0
H1030 H 0.87148 0.06913 0.8314 0.0
C1031 C 0.81322 0.03382 0.8846 0.0
C1032 C 0.70219 0.60156 0.24912 0.0
C1033 C 0.71739 0.59593 0.18917 0.0
H1034 H 0.68796 0.6039 0.41619 0.0
C1035 C 0.73002 0.58796 0.25523 0.0
H1036 H 0.69209 0.60764 0.20065 0.0
C1037 C 0.72748 0.58564 0.37861 0.0
C1038 C 0.71225 0.59124 0.43861 0.0
H1039 H 0.74172 0.58331 0.21163 0.0
H1040 H 0.73759 0.57956 0.42698 0.0
C1041 C 0.69963 0.59922 0.37256 0.0
C1042 C 0.51354 0.185 0.40902 0.0
C1043 C 0.50865 0.16427 0.46825 0.0
H1044 H 0.51539 0.20156 0.24254 0.0
C1045 C 0.50147 0.14384 0.40135 0.0
H1046 H 0.519 0.20105 0.45806 0.0
C1047 C 0.49923 0.14413 0.27784 0.0
C1048 C 0.50415 0.16487 0.21865 0.0
H1049 H 0.49736 0.12756 0.44434 0.0
H1050 H 0.49377 0.12808 0.22872 0.0
C1051 C 0.51131 0.18529 0.28554 0.0
C1052 C 0.95677 0.40245 0.25501 0.0
C1053 C 0.93643 0.38639 0.19339 0.0
H1054 H 0.97261 0.41675 0.42368 0.0
C1055 C 0.91596 0.37224 0.25793 0.0
H1056 H 0.97281 0.41372 0.20769 0.0
C1057 C 0.91582 0.37413 0.38161 0.0
C1058 C 0.93615 0.39019 0.44328 0.0
H1059 H 0.89999 0.35981 0.21298 0.0
H1060 H 0.89977 0.36287 0.42883 0.0
C1061 C 0.95663 0.40434 0.37872 0.0
C1062 C 0.70881 0.17703 0.23599 0.0
C1063 C 0.72262 0.16963 0.17576 0.0
H1064 H 0.69611 0.18143 0.40348 0.0
C1065 C 0.73432 0.16062 0.24175 0.0
H1066 H 0.69945 0.18397 0.18765 0.0
C1067 C 0.73226 0.15904 0.36547 0.0
C1068 C 0.71847 0.16647 0.42564 0.0
H1069 H 0.74494 0.15463 0.19793 0.0
H1070 H 0.7416 0.1521 0.41392 0.0
C1071 C 0.70675 0.17545 0.35966 0.0
C1072 C 0.92422 0.57913 0.20676 0.0
C1073 C 0.9303 0.60014 0.14713 0.0
H1074 H 0.92142 0.5623 0.3735 0.0
C1075 C 0.93863 0.6208 0.21368 0.0
H1076 H 0.91786 0.56289 0.15805 0.0
C1077 C 0.94085 0.62046 0.33722 0.0
C1078 C 0.93475 0.59944 0.39679 0.0
H1079 H 0.94366 0.63729 0.17037 0.0
H1080 H 0.94721 0.63669 0.38606 0.0
C1081 C 0.92643 0.57879 0.33024 0.0
C1082 C 0.48073 0.3624 0.21649 0.0
C1083 C 0.50138 0.37568 0.15178 0.0
H1084 H 0.46474 0.35322 0.38788 0.0
C1085 C 0.52224 0.39041 0.21337 0.0
H1086 H 0.46438 0.35098 0.17156 0.0
C1087 C 0.52245 0.39183 0.33729 0.0
C1088 C 0.50181 0.3785 0.40199 0.0
H1089 H 0.53846 0.40097 0.16595 0.0
H1090 H 0.53879 0.40326 0.38226 0.0
C1091 C 0.48095 0.36378 0.34042 0.0
C1092 C 0.39305 0.92032 0.59779 0.0
C1093 C 0.38093 0.92894 0.53226 0.0
H1094 H 0.40017 0.91125 0.76894 0.0
C1095 C 0.36613 0.93504 0.59275 0.0
H1096 H 0.40444 0.9153 0.55383 0.0
C1097 C 0.36348 0.93251 0.71618 0.0
C1098 C 0.37562 0.92388 0.78166 0.0
H1099 H 0.3564 0.9416 0.5447 0.0
H1100 H 0.35213 0.93756 0.76028 0.0
C1101 C 0.39044 0.91782 0.72108 0.0
C1102 C 0.17835 0.51622 0.74698 0.0
C1103 C 0.17248 0.49529 0.80679 0.0
H1104 H 0.18118 0.53296 0.57994 0.0
C1105 C 0.16458 0.47467 0.74039 0.0
H1106 H 0.18439 0.53242 0.79563 0.0
C1107 C 0.16258 0.47498 0.61677 0.0
C1108 C 0.16847 0.49593 0.55701 0.0
H1109 H 0.15974 0.45824 0.78386 0.0
H1110 H 0.15654 0.45879 0.56803 0.0
C1111 C 0.17636 0.51654 0.62339 0.0
C1112 C 0.61911 0.73198 0.68269 0.0
C1113 C 0.59855 0.71916 0.74877 0.0
H1114 H 0.63493 0.73976 0.51058 0.0
C1115 C 0.57766 0.70385 0.6887 0.0
H1116 H 0.6355 0.74373 0.72638 0.0
C1117 C 0.57733 0.70141 0.56518 0.0
C1118 C 0.59788 0.71423 0.49909 0.0
H1119 H 0.5615 0.6936 0.73709 0.0
H1120 H 0.56094 0.68963 0.52153 0.0
C1121 C 0.61878 0.72953 0.5591 0.0
C1122 C 0.37052 0.50457 0.67097 0.0
C1123 C 0.38231 0.49567 0.73718 0.0
H1124 H 0.364 0.51404 0.49946 0.0
C1125 C 0.39712 0.48948 0.67742 0.0
H1126 H 0.35916 0.5097 0.7143 0.0
C1127 C 0.40011 0.49219 0.55414 0.0
C1128 C 0.38832 0.50111 0.48798 0.0
H1129 H 0.40661 0.48271 0.72595 0.0
H1130 H 0.41144 0.48704 0.51066 0.0
C1131 C 0.37349 0.50726 0.54782 0.0
C1132 C 0.58842 0.90894 0.6887 0.0
C1133 C 0.5977 0.9294 0.7573 0.0
H1134 H 0.57951 0.89384 0.5149 0.0
C1135 C 0.60529 0.95096 0.69972 0.0
H1136 H 0.58225 0.89208 0.73036 0.0
C1137 C 0.60359 0.95202 0.5762 0.0
C1138 C 0.59425 0.93154 0.50759 0.0
H1139 H 0.61249 0.96711 0.75013 0.0
H1140 H 0.60976 0.96888 0.53457 0.0
C1141 C 0.58669 0.90999 0.5652 0.0
C1142 C 0.18545 0.72005 0.58029 0.0
C1143 C 0.16522 0.70373 0.51884 0.0
H1144 H 0.20123 0.73457 0.74877 0.0
C1145 C 0.14486 0.68932 0.58361 0.0
H1146 H 0.20142 0.73152 0.53289 0.0
C1147 C 0.14474 0.6912 0.70733 0.0
C1148 C 0.16498 0.70752 0.76874 0.0
H1149 H 0.12895 0.6767 0.53882 0.0
H1150 H 0.12878 0.67972 0.75481 0.0
C1151 C 0.18533 0.72194 0.70398 0.0
loop_
_geom_bond_atom_site_label_1
_geom_bond_atom_site_label_2
_geom_bond_distance
_geom_bond_site_symmetry_2
_ccdc_geom_bond_type
C0 O16 1.251 . S
C0 O18 1.254 . S
N1 C2 1.333 . S
N1 C6 1.307 . S
N1 Zn7 2.020 . S
C2 N1 1.333 . S
C2 C3 1.379 . S
C2 H20 0.952 . S
C3 C2 1.379 . S
C3 C4 1.390 . S
C3 H30 0.949 . S
C4 C3 1.390 . S
C4 C5 1.357 . S
C5 C4 1.357 . S
C5 C6 1.370 . S
C5 H31 0.950 . S
C6 N1 1.307 . S
C6 C5 1.370 . S
C6 H24 0.948 . S
Zn7 N1 2.020 . S
Zn7 O16 2.039 . S
Zn7 O22 2.034 . S
Zn7 O26 2.025 . S
Zn7 O28 2.024 . S
C8 O27 1.246 . S
C8 O28 1.249 . S
N9 C10 1.307 . S
N9 C11 1.333 . S
N9 Zn15 2.020 1_655 S
C10 N9 1.307 . S
C10 C14 1.370 . S
C10 H21 0.948 . S
C11 N9 1.333 . S
C11 C12 1.379 . S
C11 H19 0.952 1_655 S
C12 C11 1.379 . S
C12 C13 1.390 . S
C12 H32 0.949 . S
C13 C12 1.390 . S
C13 C14 1.357 . S
C14 C10 1.370 . S
C14 C13 1.357 . S
C14 H33 0.950 . S
Zn15 N9 2.020 1_455 S
Zn15 O18 2.025 . S
Zn15 O23 2.030 . S
Zn15 O25 2.039 . S
Zn15 O27 2.034 . S
O16 C0 1.251 . S
O16 Zn7 2.039 . S
C17 O22 1.246 . S
C17 O23 1.287 . S
O18 C0 1.254 . S
O18 Zn15 2.025 . S
H19 C11 0.952 1_455 S
H20 C2 0.952 . S
H21 C10 0.948 . S
O22 Zn7 2.034 . S
O22 C17 1.246 . S
O23 Zn15 2.030 . S
O23 C17 1.287 . S
H24 C6 0.948 . S
O25 Zn15 2.039 . S
O25 C29 1.251 . S
O26 Zn7 2.025 . S
O26 C29 1.254 . S
O27 C8 1.246 . S
O27 Zn15 2.034 . S
O28 Zn7 2.024 . S
O28 C8 1.249 . S
C29 O25 1.251 . S
C29 O26 1.254 . S
H30 C3 0.949 . S
H31 C5 0.950 . S
H32 C12 0.949 . S
H33 C14 0.950 . S
C34 O50 1.251 . S
C34 O52 1.254 . S
N35 C36 1.333 . S
N35 C40 1.307 . S
N35 Zn41 2.020 . S
C36 N35 1.333 . S
C36 C37 1.379 . S
C36 H54 0.952 . S
C37 C36 1.379 . S
C37 C38 1.390 . S
C37 H64 0.949 . S
C38 C37 1.390 . S
C38 C39 1.357 . S
C39 C38 1.357 . S
C39 C40 1.370 . S
C39 H65 0.950 . S
C40 N35 1.307 . S
C40 C39 1.370 . S
C40 H58 0.948 . S
Zn41 N35 2.020 . S
Zn41 O50 2.039 . S
Zn41 O56 2.034 . S
Zn41 O60 2.025 . S
Zn41 O62 2.024 . S
C42 O61 1.246 . S
C42 O62 1.249 . S
N43 C44 1.307 . S
N43 C45 1.333 . S
N43 Zn49 2.020 . S
C44 N43 1.307 . S
C44 C48 1.370 . S
C44 H55 0.948 . S
C45 N43 1.333 . S
C45 C46 1.379 . S
C45 H53 0.952 . S
C46 C45 1.379 . S
C46 C47 1.390 . S
C46 H66 0.949 . S
C47 C46 1.390 . S
C47 C48 1.357 . S
C48 C44 1.370 . S
C48 C47 1.357 . S
C48 H67 0.950 . S
Zn49 N43 2.020 . S
Zn49 O52 2.025 . S
Zn49 O57 2.024 . S
Zn49 O59 2.039 . S
Zn49 O61 2.034 . S
O50 C34 1.251 . S
O50 Zn41 2.039 . S
C51 O56 1.246 . S
C51 O57 1.249 . S
O52 C34 1.254 . S
O52 Zn49 2.025 . S
H53 C45 0.952 . S
H54 C36 0.952 . S
H55 C44 0.948 . S
O56 Zn41 2.034 . S
O56 C51 1.246 . S
O57 Zn49 2.024 . S
O57 C51 1.249 . S
H58 C40 0.948 . S
O59 Zn49 2.039 . S
O59 C63 1.251 . S
O60 Zn41 2.025 . S
O60 C63 1.254 . S
O61 C42 1.246 . S
O61 Zn49 2.034 . S
O62 Zn41 2.024 . S
O62 C42 1.249 . S
C63 O59 1.251 . S
C63 O60 1.254 . S
H64 C37 0.949 . S
H65 C39 0.950 . S
H66 C46 0.949 . S
H67 C48 0.950 . S
C68 O84 1.251 . S
C68 O86 1.254 . S
N69 C70 1.333 . S
N69 C74 1.307 . S
N69 Zn75 2.020 1_565 S
C70 N69 1.333 . S
C70 C71 1.379 . S
C70 H88 0.952 1_565 S
C71 C70 1.379 . S
C71 C72 1.390 . S
C71 H98 0.949 . S
C72 C71 1.390 . S
C72 C73 1.357 . S
C73 C72 1.357 . S
C73 C74 1.370 . S
C73 H99 0.950 . S
C74 N69 1.307 . S
C74 C73 1.370 . S
C74 H92 0.948 . S
Zn75 N69 2.020 1_545 S
Zn75 O84 2.039 . S
Zn75 O90 2.034 . S
Zn75 O94 2.025 . S
Zn75 O96 2.061 . S
C76 O95 1.246 . S
C76 O96 1.244 . S
N77 C78 1.307 . S
N77 C79 1.333 . S
N77 Zn83 2.020 . S
C78 N77 1.307 . S
C78 C82 1.370 . S
C78 H89 0.948 . S
C79 N77 1.333 . S
C79 C80 1.379 . S
C79 H87 0.952 . S
C80 C79 1.379 . S
C80 C81 1.390 . S
C80 H100 0.949 . S
C81 C80 1.390 . S
C81 C82 1.357 . S
C82 C78 1.370 . S
C82 C81 1.357 . S
C82 H101 0.950 . S
Zn83 N77 2.020 . S
Zn83 O86 2.025 . S
Zn83 O91 2.024 . S
Zn83 O93 2.039 . S
Zn83 O95 2.034 . S
O84 C68 1.251 . S
O84 Zn75 2.039 . S
C85 O90 1.246 . S
C85 O91 1.249 . S
O86 C68 1.254 . S
O86 Zn83 2.025 . S
H87 C79 0.952 . S
H88 C70 0.952 1_545 S
H89 C78 0.948 . S
O90 Zn75 2.034 . S
O90 C85 1.246 . S
O91 Zn83 2.024 . S
O91 C85 1.249 . S
H92 C74 0.948 . S
O93 Zn83 2.039 . S
O93 C97 1.251 . S
O94 Zn75 2.025 . S
O94 C97 1.254 . S
O95 C76 1.246 . S
O95 Zn83 2.034 . S
O96 Zn75 2.061 . S
O96 C76 1.244 . S
C97 O93 1.251 . S
C97 O94 1.254 . S
H98 C71 0.949 . S
H99 C73 0.950 . S
H100 C80 0.949 . S
H101 C82 0.950 . S
C102 O118 1.251 . S
C102 O120 1.254 . S
N103 C104 1.333 . S
N103 C108 1.307 . S
N103 Zn109 2.020 . S
C104 N103 1.333 . S
C104 C105 1.379 . S
C104 H122 0.952 . S
C105 C104 1.379 . S
C105 C106 1.390 . S
C105 H132 0.949 . S
C106 C105 1.390 . S
C106 C107 1.357 . S
C107 C106 1.357 . S
C107 C108 1.370 . S
C107 H133 0.950 . S
C108 N103 1.307 . S
C108 C107 1.370 . S
C108 H126 0.948 . S
Zn109 N103 2.020 . S
Zn109 O118 2.039 . S
Zn109 O124 2.034 . S
Zn109 O128 2.025 . S
Zn109 O130 2.024 . S
C110 O129 1.246 . S
C110 O130 1.249 . S
N111 C112 1.307 . S
N111 C113 1.333 . S
N111 Zn117 2.020 1_655 S
C112 N111 1.307 . S
C112 C116 1.370 . S
C112 H123 0.948 . S
C113 N111 1.333 . S
C113 C114 1.379 . S
C113 H121 0.952 1_655 S
C114 C113 1.379 . S
C114 C115 1.390 . S
C114 H134 0.949 . S
C115 C114 1.390 . S
C115 C116 1.357 . S
C116 C112 1.370 . S
C116 C115 1.357 . S
C116 H135 0.950 . S
Zn117 N111 2.020 1_455 S
Zn117 O120 2.025 . S
Zn117 O125 2.024 . S
Zn117 O127 2.039 . S
Zn117 O129 2.034 . S
O118 C102 1.251 . S
O118 Zn109 2.039 . S
C119 O124 1.246 . S
C119 O125 1.249 . S
O120 C102 1.254 . S
O120 Zn117 2.025 . S
H121 C113 0.952 1_455 S
H122 C104 0.952 . S
H123 C112 0.948 . S
O124 Zn109 2.034 . S
O124 C119 1.246 . S
O125 Zn117 2.024 . S
O125 C119 1.249 . S
H126 C108 0.948 . S
O127 Zn117 2.039 . S
O127 C131 1.251 . S
O128 Zn109 2.025 . S
O128 C131 1.254 . S
O129 C110 1.246 . S
O129 Zn117 2.034 . S
O130 Zn109 2.024 . S
O130 C110 1.249 . S
C131 O127 1.251 . S
C131 O128 1.254 . S
H132 C105 0.949 . S
H133 C107 0.950 . S
H134 C114 0.949 . S
H135 C116 0.950 . S
C136 O152 1.251 . S
C136 O154 1.254 . S
N137 C138 1.333 . S
N137 C142 1.307 . S
N137 Zn143 2.020 . S
C138 N137 1.333 . S
C138 C139 1.379 . S
C138 H156 0.952 . S
C139 C138 1.379 . S
C139 C140 1.390 . S
C139 H166 0.949 . S
C140 C139 1.390 . S
C140 C141 1.357 . S
C141 C140 1.357 . S
C141 C142 1.370 . S
C141 H167 0.950 . S
C142 N137 1.307 . S
C142 C141 1.370 . S
C142 H160 0.948 . S
Zn143 N137 2.020 . S
Zn143 O152 2.039 . S
Zn143 O158 2.034 . S
Zn143 O162 2.025 . S
Zn143 O164 2.024 . S
C144 O163 1.246 . S
C144 O164 1.249 . S
N145 C146 1.307 . S
N145 C147 1.333 . S
N145 Zn151 2.020 . S
C146 N145 1.307 . S
C146 C150 1.370 . S
C146 H157 0.948 . S
C147 N145 1.333 . S
C147 C148 1.379 . S
C147 H155 0.952 . S
C148 C147 1.379 . S
C148 C149 1.390 . S
C148 H168 0.949 . S
C149 C148 1.390 . S
C149 C150 1.357 . S
C150 C146 1.370 . S
C150 C149 1.357 . S
C150 H169 0.950 . S
Zn151 N145 2.020 . S
Zn151 O154 2.025 . S
Zn151 O159 2.024 . S
Zn151 O161 2.039 . S
Zn151 O163 2.034 . S
O152 C136 1.251 . S
O152 Zn143 2.039 . S
C153 O158 1.246 . S
C153 O159 1.249 . S
O154 C136 1.254 . S
O154 Zn151 2.025 . S
H155 C147 0.952 . S
H156 C138 0.952 . S
H157 C146 0.948 . S
O158 Zn143 2.034 . S
O158 C153 1.246 . S
O159 Zn151 2.024 . S
O159 C153 1.249 . S
H160 C142 0.948 . S
O161 Zn151 2.039 . S
O161 C165 1.251 . S
O162 Zn143 2.025 . S
O162 C165 1.254 . S
O163 C144 1.246 . S
O163 Zn151 2.034 . S
O164 Zn143 2.024 . S
O164 C144 1.249 . S
C165 O161 1.251 . S
C165 O162 1.254 . S
H166 C139 0.949 . S
H167 C141 0.950 . S
H168 C148 0.949 . S
H169 C150 0.950 . S
C170 O186 1.251 . S
C170 O188 1.254 . S
N171 C172 1.333 . S
N171 C176 1.307 . S
N171 Zn177 2.020 1_565 S
C172 N171 1.333 . S
C172 C173 1.379 . S
C172 H190 0.952 1_565 S
C173 C172 1.379 . S
C173 C174 1.390 . S
C173 H200 0.949 . S
C174 C173 1.390 . S
C174 C175 1.357 . S
C175 C174 1.357 . S
C175 C176 1.370 . S
C175 H201 0.950 . S
C176 N171 1.307 . S
C176 C175 1.370 . S
C176 H194 0.948 . S
Zn177 N171 2.020 1_545 S
Zn177 O186 2.039 . S
Zn177 O192 2.034 . S
Zn177 O196 2.025 . S
Zn177 O198 2.035 . S
C178 O197 1.246 . S
C178 O198 1.247 . S
N179 C180 1.307 . S
N179 C181 1.333 . S
N179 Zn185 2.020 . S
C180 N179 1.307 . S
C180 C184 1.370 . S
C180 H191 0.948 . S
C181 N179 1.333 . S
C181 C182 1.379 . S
C181 H189 0.952 . S
C182 C181 1.379 . S
C182 C183 1.390 . S
C182 H202 0.949 . S
C183 C182 1.390 . S
C183 C184 1.357 . S
C184 C180 1.370 . S
C184 C183 1.357 . S
C184 H203 0.950 . S
Zn185 N179 2.020 . S
Zn185 O188 2.025 . S
Zn185 O193 2.024 . S
Zn185 O195 2.039 . S
Zn185 O197 2.034 . S
O186 C170 1.251 . S
O186 Zn177 2.039 . S
C187 O192 1.246 . S
C187 O193 1.249 . S
O188 C170 1.254 . S
O188 Zn185 2.025 . S
H189 C181 0.952 . S
H190 C172 0.952 1_545 S
H191 C180 0.948 . S
O192 Zn177 2.034 . S
O192 C187 1.246 . S
O193 Zn185 2.024 . S
O193 C187 1.249 . S
H194 C176 0.948 . S
O195 Zn185 2.039 . S
O195 C199 1.251 . S
O196 Zn177 2.025 . S
O196 C199 1.254 . S
O197 C178 1.246 . S
O197 Zn185 2.034 . S
O198 Zn177 2.035 . S
O198 C178 1.247 . S
C199 O195 1.251 . S
C199 O196 1.254 . S
H200 C173 0.949 . S
H201 C175 0.950 . S
H202 C182 0.949 . S
H203 C184 0.950 . S
C204 O220 1.251 . S
C204 O222 1.254 . S
N205 C206 1.333 . S
N205 C210 1.307 . S
N205 Zn211 2.020 . S
C206 N205 1.333 . S
C206 C207 1.379 . S
C206 H224 0.952 . S
C207 C206 1.379 . S
C207 C208 1.390 . S
C207 H234 0.949 . S
C208 C207 1.390 . S
C208 C209 1.357 . S
C209 C208 1.357 . S
C209 C210 1.370 . S
C209 H235 0.950 . S
C210 N205 1.307 . S
C210 C209 1.370 . S
C210 H228 0.948 . S
Zn211 N205 2.020 . S
Zn211 O220 2.039 . S
Zn211 O226 2.034 . S
Zn211 O230 2.025 1_556 S
Zn211 O232 2.024 . S
C212 O231 1.246 . S
C212 O232 1.249 . S
N213 C214 1.307 . S
N213 C215 1.333 . S
N213 Zn219 2.020 . S
C214 N213 1.307 . S
C214 C218 1.370 . S
C214 H225 0.948 . S
C215 N213 1.333 . S
C215 C216 1.379 . S
C215 H223 0.952 . S
C216 C215 1.379 . S
C216 C217 1.390 . S
C216 H236 0.949 1_556 S
C217 C216 1.390 . S
C217 C218 1.357 . S
C218 C214 1.370 . S
C218 C217 1.357 . S
C218 H237 0.950 . S
Zn219 N213 2.020 . S
Zn219 O222 2.025 . S
Zn219 O227 2.024 . S
Zn219 O229 2.039 1_556 S
Zn219 O231 2.034 . S
O220 C204 1.251 . S
O220 Zn211 2.039 . S
C221 O226 1.246 . S
C221 O227 1.249 . S
O222 C204 1.254 . S
O222 Zn219 2.025 . S
H223 C215 0.952 . S
H224 C206 0.952 . S
H225 C214 0.948 . S
O226 Zn211 2.034 . S
O226 C221 1.246 . S
O227 Zn219 2.024 . S
O227 C221 1.249 . S
H228 C210 0.948 . S
O229 Zn219 2.039 1_554 S
O229 C233 1.251 . S
O230 Zn211 2.025 1_554 S
O230 C233 1.254 . S
O231 C212 1.246 . S
O231 Zn219 2.034 . S
O232 Zn211 2.024 . S
O232 C212 1.249 . S
C233 O229 1.251 . S
C233 O230 1.254 . S
H234 C207 0.949 . S
H235 C209 0.950 . S
H236 C216 0.949 1_554 S
H237 C218 0.950 . S
C238 O254 1.251 . S
C238 O256 1.254 . S
N239 C240 1.333 . S
N239 C244 1.307 . S
N239 Zn245 2.020 . S
C240 N239 1.333 . S
C240 C241 1.379 . S
C240 H258 0.952 . S
C241 C240 1.379 . S
C241 C242 1.390 . S
C241 H268 0.949 . S
C242 C241 1.390 . S
C242 C243 1.357 . S
C243 C242 1.357 . S
C243 C244 1.370 . S
C243 H269 0.950 . S
C244 N239 1.307 . S
C244 C243 1.370 . S
C244 H262 0.948 . S
Zn245 N239 2.020 . S
Zn245 O254 2.039 . S
Zn245 O260 2.034 . S
Zn245 O264 2.025 1_556 S
Zn245 O266 2.024 . S
C246 O265 1.246 . S
C246 O266 1.249 . S
N247 C248 1.307 . S
N247 C249 1.333 . S
N247 Zn253 2.020 . S
C248 N247 1.307 . S
C248 C252 1.370 . S
C248 H259 0.948 . S
C249 N247 1.333 . S
C249 C250 1.379 . S
C249 H257 0.952 . S
C250 C249 1.379 . S
C250 C251 1.390 . S
C250 H270 0.949 1_556 S
C251 C250 1.390 . S
C251 C252 1.357 . S
C252 C248 1.370 . S
C252 C251 1.357 . S
C252 H271 0.950 . S
Zn253 N247 2.020 . S
Zn253 O256 2.025 . S
Zn253 O261 2.024 . S
Zn253 O263 2.039 1_556 S
Zn253 O265 2.034 . S
O254 C238 1.251 . S
O254 Zn245 2.039 . S
C255 O260 1.246 . S
C255 O261 1.249 . S
O256 C238 1.254 . S
O256 Zn253 2.025 . S
H257 C249 0.952 . S
H258 C240 0.952 . S
H259 C248 0.948 . S
O260 Zn245 2.034 . S
O260 C255 1.246 . S
O261 Zn253 2.024 . S
O261 C255 1.249 . S
H262 C244 0.948 . S
O263 Zn253 2.039 1_554 S
O263 C267 1.251 . S
O264 Zn245 2.025 1_554 S
O264 C267 1.254 . S
O265 C246 1.246 . S
O265 Zn253 2.034 . S
O266 Zn245 2.024 . S
O266 C246 1.249 . S
C267 O263 1.251 . S
C267 O264 1.254 . S
H268 C241 0.949 . S
H269 C243 0.950 . S
H270 C250 0.949 1_554 S
H271 C252 0.950 . S
C272 O288 1.251 . S
C272 O290 1.254 . S
N273 C274 1.333 . S
N273 C278 1.307 . S
N273 Zn279 2.020 . S
C274 N273 1.333 . S
C274 C275 1.379 . S
C274 H292 0.952 . S
C275 C274 1.379 . S
C275 C276 1.390 . S
C275 H302 0.949 . S
C276 C275 1.390 . S
C276 C277 1.357 . S
C277 C276 1.357 . S
C277 C278 1.370 . S
C277 H303 0.950 . S
C278 N273 1.307 . S
C278 C277 1.370 . S
C278 H296 0.948 . S
Zn279 N273 2.020 . S
Zn279 O288 2.039 . S
Zn279 O294 2.034 . S
Zn279 O298 2.025 1_556 S
Zn279 O300 2.024 . S
C280 O299 1.246 . S
C280 O300 1.249 . S
N281 C282 1.307 . S
N281 C283 1.333 . S
N281 Zn287 2.020 . S
C282 N281 1.307 . S
C282 C286 1.370 1_655 S
C282 H293 0.948 . S
C283 N281 1.333 . S
C283 C284 1.379 1_655 S
C283 H291 0.952 . S
C284 C283 1.379 1_455 S
C284 C285 1.390 . S
C284 H304 0.949 1_556 S
C285 C284 1.390 . S
C285 C286 1.357 . S
C286 C282 1.370 1_455 S
C286 C285 1.357 . S
C286 H305 0.950 . S
Zn287 N281 2.020 . S
Zn287 O290 2.025 . S
Zn287 O295 2.024 . S
Zn287 O297 2.039 1_556 S
Zn287 O299 2.034 . S
O288 C272 1.251 . S
O288 Zn279 2.039 . S
C289 O294 1.246 . S
C289 O295 1.249 . S
O290 C272 1.254 . S
O290 Zn287 2.025 . S
H291 C283 0.952 . S
H292 C274 0.952 . S
H293 C282 0.948 . S
O294 Zn279 2.034 . S
O294 C289 1.246 . S
O295 Zn287 2.024 . S
O295 C289 1.249 . S
H296 C278 0.948 . S
O297 Zn287 2.039 1_554 S
O297 C301 1.251 . S
O298 Zn279 2.025 1_554 S
O298 C301 1.254 . S
O299 C280 1.246 . S
O299 Zn287 2.034 . S
O300 Zn279 2.024 . S
O300 C280 1.249 . S
C301 O297 1.251 . S
C301 O298 1.254 . S
H302 C275 0.949 . S
H303 C277 0.950 . S
H304 C284 0.949 1_554 S
H305 C286 0.950 . S
C306 O322 1.251 . S
C306 O324 1.254 . S
N307 C308 1.333 . S
N307 C312 1.307 . S
N307 Zn313 2.020 . S
C308 N307 1.333 . S
C308 C309 1.379 . S
C308 H326 0.952 . S
C309 C308 1.379 . S
C309 C310 1.390 . S
C309 H336 0.949 . S
C310 C309 1.390 . S
C310 C311 1.357 . S
C311 C310 1.357 . S
C311 C312 1.370 . S
C311 H337 0.950 . S
C312 N307 1.307 . S
C312 C311 1.370 . S
C312 H330 0.948 . S
Zn313 N307 2.020 . S
Zn313 O322 2.039 . S
Zn313 O328 2.034 . S
Zn313 O332 2.025 1_556 S
Zn313 O334 2.024 . S
C314 O333 1.246 . S
C314 O334 1.249 . S
N315 C316 1.307 . S
N315 C317 1.333 . S
N315 Zn321 2.020 . S
C316 N315 1.307 . S
C316 C320 1.370 . S
C316 H327 0.948 . S
C317 N315 1.333 . S
C317 C318 1.379 . S
C317 H325 0.952 1_556 S
C318 C317 1.379 . S
C318 C319 1.390 . S
C318 H338 0.949 1_556 S
C319 C318 1.390 . S
C319 C320 1.357 . S
C320 C316 1.370 . S
C320 C319 1.357 . S
C320 H339 0.950 . S
Zn321 N315 2.020 . S
Zn321 O324 2.025 . S
Zn321 O329 2.024 . S
Zn321 O331 2.039 1_556 S
Zn321 O333 2.034 . S
O322 C306 1.251 . S
O322 Zn313 2.039 . S
C323 O328 1.246 . S
C323 O329 1.249 . S
O324 C306 1.254 . S
O324 Zn321 2.025 . S
H325 C317 0.952 1_554 S
H326 C308 0.952 . S
H327 C316 0.948 . S
O328 Zn313 2.034 . S
O328 C323 1.246 . S
O329 Zn321 2.024 . S
O329 C323 1.249 . S
H330 C312 0.948 . S
O331 Zn321 2.039 1_554 S
O331 C335 1.251 . S
O332 Zn313 2.025 1_554 S
O332 C335 1.254 . S
O333 C314 1.246 . S
O333 Zn321 2.034 . S
O334 Zn313 2.024 . S
O334 C314 1.249 . S
C335 O331 1.251 . S
C335 O332 1.254 . S
H336 C309 0.949 . S
H337 C311 0.950 . S
H338 C318 0.949 1_554 S
H339 C320 0.950 . S
C340 O356 1.251 . S
C340 O358 1.254 . S
N341 C342 1.333 . S
N341 C346 1.307 . S
N341 Zn347 2.020 . S
C342 N341 1.333 . S
C342 C343 1.379 . S
C342 H360 0.952 . S
C343 C342 1.379 . S
C343 C344 1.390 . S
C343 H370 0.949 . S
C344 C343 1.390 . S
C344 C345 1.357 . S
C345 C344 1.357 . S
C345 C346 1.370 . S
C345 H371 0.950 . S
C346 N341 1.307 . S
C346 C345 1.370 . S
C346 H364 0.948 . S
Zn347 N341 2.020 . S
Zn347 O356 2.039 . S
Zn347 O362 2.034 . S
Zn347 O366 2.025 1_556 S
Zn347 O368 2.024 . S
C348 O367 1.246 . S
C348 O368 1.249 . S
N349 C350 1.307 . S
N349 C351 1.333 . S
N349 Zn355 2.020 . S
C350 N349 1.307 . S
C350 C354 1.370 . S
C350 H361 0.948 . S
C351 N349 1.333 . S
C351 C352 1.379 . S
C351 H359 0.952 1_556 S
C352 C351 1.379 . S
C352 C353 1.390 . S
C352 H372 0.949 1_556 S
C353 C352 1.390 . S
C353 C354 1.357 . S
C354 C350 1.370 . S
C354 C353 1.357 . S
C354 H373 0.950 . S
Zn355 N349 2.020 . S
Zn355 O358 2.025 . S
Zn355 O363 2.024 . S
Zn355 O365 2.039 1_556 S
Zn355 O367 2.034 . S
O356 C340 1.251 . S
O356 Zn347 2.039 . S
C357 O362 1.246 . S
C357 O363 1.249 . S
O358 C340 1.254 . S
O358 Zn355 2.025 . S
H359 C351 0.952 1_554 S
H360 C342 0.952 . S
H361 C350 0.948 . S
O362 Zn347 2.034 . S
O362 C357 1.246 . S
O363 Zn355 2.024 . S
O363 C357 1.249 . S
H364 C346 0.948 . S
O365 Zn355 2.039 1_554 S
O365 C369 1.251 . S
O366 Zn347 2.025 1_554 S
O366 C369 1.254 . S
O367 C348 1.246 . S
O367 Zn355 2.034 . S
O368 Zn347 2.024 . S
O368 C348 1.249 . S
C369 O365 1.251 . S
C369 O366 1.254 . S
H370 C343 0.949 . S
H371 C345 0.950 . S
H372 C352 0.949 1_554 S
H373 C354 0.950 . S
C374 O390 1.251 . S
C374 O392 1.254 . S
N375 C376 1.333 . S
N375 C380 1.307 . S
N375 Zn381 2.020 . S
C376 N375 1.333 . S
C376 C377 1.379 . S
C376 H394 0.952 . S
C377 C376 1.379 . S
C377 C378 1.390 . S
C377 H404 0.949 . S
C378 C377 1.390 . S
C378 C379 1.357 . S
C379 C378 1.357 . S
C379 C380 1.370 . S
C379 H405 0.950 . S
C380 N375 1.307 . S
C380 C379 1.370 . S
C380 H398 0.948 . S
Zn381 N375 2.020 . S
Zn381 O390 2.039 . S
Zn381 O396 2.034 . S
Zn381 O400 2.025 1_556 S
Zn381 O402 2.024 . S
C382 O401 1.246 . S
C382 O402 1.249 . S
N383 C384 1.307 . S
N383 C385 1.333 . S
N383 Zn389 2.020 . S
C384 N383 1.307 . S
C384 C388 1.370 . S
C384 H395 0.948 . S
C385 N383 1.333 . S
C385 C386 1.379 . S
C385 H393 0.952 1_556 S
C386 C385 1.379 . S
C386 C387 1.390 . S
C386 H406 0.949 1_556 S
C387 C386 1.390 . S
C387 C388 1.357 . S
C388 C384 1.370 . S
C388 C387 1.357 . S
C388 H407 0.950 . S
Zn389 N383 2.020 . S
Zn389 O392 2.025 . S
Zn389 O397 2.024 . S
Zn389 O399 2.039 1_556 S
Zn389 O401 2.034 . S
O390 C374 1.251 . S
O390 Zn381 2.039 . S
C391 O396 1.246 . S
C391 O397 1.249 . S
O392 C374 1.254 . S
O392 Zn389 2.025 . S
H393 C385 0.952 1_554 S
H394 C376 0.952 . S
H395 C384 0.948 . S
O396 Zn381 2.034 . S
O396 C391 1.246 . S
O397 Zn389 2.024 . S
O397 C391 1.249 . S
H398 C380 0.948 . S
O399 Zn389 2.039 1_554 S
O399 C403 1.251 . S
O400 Zn381 2.025 1_554 S
O400 C403 1.254 . S
O401 C382 1.246 . S
O401 Zn389 2.034 . S
O402 Zn381 2.024 . S
O402 C382 1.249 . S
C403 O399 1.251 . S
C403 O400 1.254 . S
H404 C377 0.949 . S
H405 C379 0.950 . S
H406 C386 0.949 1_554 S
H407 C388 0.950 . S
C408 O424 1.251 . S
C408 O426 1.254 . S
N409 C410 1.333 . S
N409 C414 1.307 . S
N409 Zn415 2.020 . S
C410 N409 1.333 . S
C410 C411 1.379 . S
C410 H428 0.952 1_554 S
C411 C410 1.379 . S
C411 C412 1.390 . S
C411 H438 0.949 1_554 S
C412 C411 1.390 . S
C412 C413 1.357 . S
C413 C412 1.357 . S
C413 C414 1.370 . S
C413 H439 0.950 . S
C414 N409 1.307 . S
C414 C413 1.370 . S
C414 H432 0.948 . S
Zn415 N409 2.020 . S
Zn415 O424 2.039 1_554 S
Zn415 O430 2.034 . S
Zn415 O434 2.025 . S
Zn415 O436 2.024 . S
C416 O435 1.246 . S
C416 O436 1.249 . S
N417 C418 1.307 . S
N417 C419 1.333 . S
N417 Zn423 2.020 . S
C418 N417 1.307 . S
C418 C422 1.370 . S
C418 H429 0.948 . S
C419 N417 1.333 . S
C419 C420 1.379 . S
C419 H427 0.952 . S
C420 C419 1.379 . S
C420 C421 1.390 . S
C420 H440 0.949 . S
C421 C420 1.390 . S
C421 C422 1.357 . S
C422 C418 1.370 . S
C422 C421 1.357 . S
C422 H441 0.950 . S
Zn423 N417 2.020 . S
Zn423 O426 2.025 1_554 S
Zn423 O431 2.024 . S
Zn423 O433 2.039 . S
Zn423 O435 2.034 . S
O424 C408 1.251 . S
O424 Zn415 2.039 1_556 S
C425 O430 1.246 . S
C425 O431 1.249 . S
O426 C408 1.254 . S
O426 Zn423 2.025 1_556 S
H427 C419 0.952 . S
H428 C410 0.952 1_556 S
H429 C418 0.948 . S
O430 Zn415 2.034 . S
O430 C425 1.246 . S
O431 Zn423 2.024 . S
O431 C425 1.249 . S
H432 C414 0.948 . S
O433 Zn423 2.039 . S
O433 C437 1.251 . S
O434 Zn415 2.025 . S
O434 C437 1.254 . S
O435 C416 1.246 . S
O435 Zn423 2.034 . S
O436 Zn415 2.024 . S
O436 C416 1.249 . S
C437 O433 1.251 . S
C437 O434 1.254 . S
H438 C411 0.949 1_556 S
H439 C413 0.950 . S
H440 C420 0.949 . S
H441 C422 0.950 . S
C442 O458 1.251 . S
C442 O460 1.254 . S
N443 C444 1.333 . S
N443 C448 1.307 . S
N443 Zn449 2.020 . S
C444 N443 1.333 . S
C444 C445 1.379 . S
C444 H462 0.952 1_554 S
C445 C444 1.379 . S
C445 C446 1.390 . S
C445 H472 0.949 1_554 S
C446 C445 1.390 . S
C446 C447 1.357 . S
C447 C446 1.357 . S
C447 C448 1.370 . S
C447 H473 0.950 . S
C448 N443 1.307 . S
C448 C447 1.370 . S
C448 H466 0.948 . S
Zn449 N443 2.020 . S
Zn449 O458 2.039 1_554 S
Zn449 O464 2.034 . S
Zn449 O468 2.025 . S
Zn449 O470 2.024 . S
C450 O469 1.246 . S
C450 O470 1.249 . S
N451 C452 1.307 . S
N451 C453 1.333 . S
N451 Zn457 2.020 . S
C452 N451 1.307 . S
C452 C456 1.370 . S
C452 H463 0.948 . S
C453 N451 1.333 . S
C453 C454 1.379 . S
C453 H461 0.952 . S
C454 C453 1.379 . S
C454 C455 1.390 . S
C454 H474 0.949 . S
C455 C454 1.390 . S
C455 C456 1.357 . S
C456 C452 1.370 . S
C456 C455 1.357 . S
C456 H475 0.950 . S
Zn457 N451 2.020 . S
Zn457 O460 2.025 1_554 S
Zn457 O465 2.024 . S
Zn457 O467 2.039 . S
Zn457 O469 2.034 . S
O458 C442 1.251 . S
O458 Zn449 2.039 1_556 S
C459 O464 1.246 . S
C459 O465 1.249 . S
O460 C442 1.254 . S
O460 Zn457 2.025 1_556 S
H461 C453 0.952 . S
H462 C444 0.952 1_556 S
H463 C452 0.948 . S
O464 Zn449 2.034 . S
O464 C459 1.246 . S
O465 Zn457 2.024 . S
O465 C459 1.249 . S
H466 C448 0.948 . S
O467 Zn457 2.039 . S
O467 C471 1.251 . S
O468 Zn449 2.025 . S
O468 C471 1.254 . S
O469 C450 1.246 . S
O469 Zn457 2.034 . S
O470 Zn449 2.024 . S
O470 C450 1.249 . S
C471 O467 1.251 . S
C471 O468 1.254 . S
H472 C445 0.949 1_556 S
H473 C447 0.950 . S
H474 C454 0.949 . S
H475 C456 0.950 . S
C476 O492 1.251 . S
C476 O494 1.254 . S
N477 C478 1.333 . S
N477 C482 1.307 . S
N477 Zn483 2.020 . S
C478 N477 1.333 . S
C478 C479 1.379 . S
C478 H496 0.952 1_554 S
C479 C478 1.379 . S
C479 C480 1.390 . S
C479 H506 0.949 1_554 S
C480 C479 1.390 . S
C480 C481 1.357 . S
C481 C480 1.357 . S
C481 C482 1.370 . S
C481 H507 0.950 . S
C482 N477 1.307 . S
C482 C481 1.370 . S
C482 H500 0.948 . S
Zn483 N477 2.020 . S
Zn483 O492 2.039 1_554 S
Zn483 O498 2.034 . S
Zn483 O502 2.025 . S
Zn483 O504 2.024 . S
C484 O503 1.246 . S
C484 O504 1.249 . S
N485 C486 1.307 . S
N485 C487 1.333 . S
N485 Zn491 2.020 . S
C486 N485 1.307 . S
C486 C490 1.370 . S
C486 H497 0.948 . S
C487 N485 1.333 . S
C487 C488 1.379 . S
C487 H495 0.952 . S
C488 C487 1.379 . S
C488 C489 1.390 . S
C488 H508 0.949 . S
C489 C488 1.390 . S
C489 C490 1.357 . S
C490 C486 1.370 . S
C490 C489 1.357 . S
C490 H509 0.950 . S
Zn491 N485 2.020 . S
Zn491 O494 2.025 1_554 S
Zn491 O499 2.024 . S
Zn491 O501 2.039 . S
Zn491 O503 2.034 . S
O492 C476 1.251 . S
O492 Zn483 2.039 1_556 S
C493 O498 1.246 . S
C493 O499 1.249 . S
O494 C476 1.254 . S
O494 Zn491 2.025 1_556 S
H495 C487 0.952 . S
H496 C478 0.952 1_556 S
H497 C486 0.948 . S
O498 Zn483 2.034 . S
O498 C493 1.246 . S
O499 Zn491 2.024 . S
O499 C493 1.249 . S
H500 C482 0.948 . S
O501 Zn491 2.039 . S
O501 C505 1.251 . S
O502 Zn483 2.025 . S
O502 C505 1.254 . S
O503 C484 1.246 . S
O503 Zn491 2.034 . S
O504 Zn483 2.024 . S
O504 C484 1.249 . S
C505 O501 1.251 . S
C505 O502 1.254 . S
H506 C479 0.949 1_556 S
H507 C481 0.950 . S
H508 C488 0.949 . S
H509 C490 0.950 . S
C510 O526 1.251 . S
C510 O528 1.254 . S
N511 C512 1.333 . S
N511 C516 1.307 . S
N511 Zn517 2.020 . S
C512 N511 1.333 . S
C512 C513 1.379 . S
C512 H530 0.952 . S
C513 C512 1.379 . S
C513 C514 1.390 . S
C513 H540 0.949 1_554 S
C514 C513 1.390 . S
C514 C515 1.357 . S
C515 C514 1.357 . S
C515 C516 1.370 . S
C515 H541 0.950 . S
C516 N511 1.307 . S
C516 C515 1.370 . S
C516 H534 0.948 . S
Zn517 N511 2.020 . S
Zn517 O526 2.039 1_554 S
Zn517 O532 2.034 . S
Zn517 O536 2.025 . S
Zn517 O538 2.024 . S
C518 O537 1.246 . S
C518 O538 1.249 . S
N519 C520 1.307 . S
N519 C521 1.333 . S
N519 Zn525 2.020 . S
C520 N519 1.307 . S
C520 C524 1.370 . S
C520 H531 0.948 . S
C521 N519 1.333 . S
C521 C522 1.379 . S
C521 H529 0.952 . S
C522 C521 1.379 . S
C522 C523 1.390 . S
C522 H542 0.949 . S
C523 C522 1.390 . S
C523 C524 1.357 . S
C524 C520 1.370 . S
C524 C523 1.357 . S
C524 H543 0.950 . S
Zn525 N519 2.020 . S
Zn525 O528 2.025 1_554 S
Zn525 O533 2.024 . S
Zn525 O535 2.039 . S
Zn525 O537 2.034 . S
O526 C510 1.251 . S
O526 Zn517 2.039 1_556 S
C527 O532 1.246 . S
C527 O533 1.249 . S
O528 C510 1.254 . S
O528 Zn525 2.025 1_556 S
H529 C521 0.952 . S
H530 C512 0.952 . S
H531 C520 0.948 . S
O532 Zn517 2.034 . S
O532 C527 1.246 . S
O533 Zn525 2.024 . S
O533 C527 1.249 . S
H534 C516 0.948 . S
O535 Zn525 2.039 . S
O535 C539 1.251 . S
O536 Zn517 2.025 . S
O536 C539 1.254 . S
O537 C518 1.246 . S
O537 Zn525 2.034 . S
O538 Zn517 2.024 . S
O538 C518 1.249 . S
C539 O535 1.251 . S
C539 O536 1.254 . S
H540 C513 0.949 1_556 S
H541 C515 0.950 . S
H542 C522 0.949 . S
H543 C524 0.950 . S
C544 O560 1.251 . S
C544 O562 1.254 . S
N545 C546 1.333 . S
N545 C550 1.307 . S
N545 Zn551 2.020 . S
C546 N545 1.333 . S
C546 C547 1.379 1_565 S
C546 H564 0.952 . S
C547 C546 1.379 1_545 S
C547 C548 1.390 . S
C547 H574 0.949 1_554 S
C548 C547 1.390 . S
C548 C549 1.357 . S
C549 C548 1.357 . S
C549 C550 1.370 1_545 S
C549 H575 0.950 . S
C550 N545 1.307 . S
C550 C549 1.370 1_565 S
C550 H568 0.948 . S
Zn551 N545 2.020 . S
Zn551 O560 2.039 1_554 S
Zn551 O566 2.034 . S
Zn551 O570 2.025 . S
Zn551 O572 2.024 . S
C552 O571 1.246 . S
C552 O572 1.249 . S
N553 C554 1.307 . S
N553 C555 1.333 . S
N553 Zn559 2.020 . S
C554 N553 1.307 . S
C554 C558 1.370 . S
C554 H565 0.948 . S
C555 N553 1.333 . S
C555 C556 1.379 . S
C555 H563 0.952 . S
C556 C555 1.379 . S
C556 C557 1.390 . S
C556 H576 0.949 . S
C557 C556 1.390 . S
C557 C558 1.357 . S
C558 C554 1.370 . S
C558 C557 1.357 . S
C558 H577 0.950 . S
Zn559 N553 2.020 . S
Zn559 O562 2.025 1_554 S
Zn559 O567 2.024 . S
Zn559 O569 2.039 . S
Zn559 O571 2.034 . S
O560 C544 1.251 . S
O560 Zn551 2.039 1_556 S
C561 O566 1.246 . S
C561 O567 1.249 . S
O562 C544 1.254 . S
O562 Zn559 2.025 1_556 S
H563 C555 0.952 . S
H564 C546 0.952 . S
H565 C554 0.948 . S
O566 Zn551 2.034 . S
O566 C561 1.246 . S
O567 Zn559 2.024 . S
O567 C561 1.249 . S
H568 C550 0.948 . S
O569 Zn559 2.039 . S
O569 C573 1.251 . S
O570 Zn551 2.025 . S
O570 C573 1.254 . S
O571 C552 1.246 . S
O571 Zn559 2.034 . S
O572 Zn551 2.024 . S
O572 C552 1.249 . S
C573 O569 1.251 . S
C573 O570 1.254 . S
H574 C547 0.949 1_556 S
H575 C549 0.950 . S
H576 C556 0.949 . S
H577 C558 0.950 . S
C578 O594 1.251 . S
C578 O596 1.254 . S
N579 C580 1.333 . S
N579 C584 1.307 . S
N579 Zn585 2.020 . S
C580 N579 1.333 . S
C580 C581 1.379 . S
C580 H598 0.952 . S
C581 C580 1.379 . S
C581 C582 1.390 . S
C581 H608 0.949 1_554 S
C582 C581 1.390 . S
C582 C583 1.357 . S
C583 C582 1.357 . S
C583 C584 1.370 . S
C583 H609 0.950 . S
C584 N579 1.307 . S
C584 C583 1.370 . S
C584 H602 0.948 . S
Zn585 N579 2.020 . S
Zn585 O594 2.039 1_554 S
Zn585 O600 2.034 . S
Zn585 O604 2.025 . S
Zn585 O606 2.024 . S
C586 O605 1.246 . S
C586 O606 1.249 . S
N587 C588 1.307 . S
N587 C589 1.333 . S
N587 Zn593 2.020 . S
C588 N587 1.307 . S
C588 C592 1.370 . S
C588 H599 0.948 . S
C589 N587 1.333 . S
C589 C590 1.379 . S
C589 H597 0.952 . S
C590 C589 1.379 . S
C590 C591 1.390 . S
C590 H610 0.949 . S
C591 C590 1.390 . S
C591 C592 1.357 . S
C592 C588 1.370 . S
C592 C591 1.357 . S
C592 H611 0.950 . S
Zn593 N587 2.020 . S
Zn593 O596 2.025 1_554 S
Zn593 O601 2.024 . S
Zn593 O603 2.039 . S
Zn593 O605 2.034 . S
O594 C578 1.251 . S
O594 Zn585 2.039 1_556 S
C595 O600 1.246 . S
C595 O601 1.249 . S
O596 C578 1.254 . S
O596 Zn593 2.025 1_556 S
H597 C589 0.952 . S
H598 C580 0.952 . S
H599 C588 0.948 . S
O600 Zn585 2.034 . S
O600 C595 1.246 . S
O601 Zn593 2.024 . S
O601 C595 1.249 . S
H602 C584 0.948 . S
O603 Zn593 2.039 . S
O603 C607 1.251 . S
O604 Zn585 2.025 . S
O604 C607 1.254 . S
O605 C586 1.246 . S
O605 Zn593 2.034 . S
O606 Zn585 2.024 . S
O606 C586 1.249 . S
C607 O603 1.251 . S
C607 O604 1.254 . S
H608 C581 0.949 1_556 S
H609 C583 0.950 . S
H610 C590 0.949 . S
H611 C592 0.950 . S
C612 C613 1.387 . S
C612 H616 0.950 . S
C612 C621 1.390 . S
C613 C612 1.387 . S
C613 C615 1.387 . S
H614 C621 0.950 . S
C615 C613 1.387 . S
C615 C617 1.390 . S
C615 H619 0.950 . S
H616 C612 0.950 . S
C617 C615 1.390 . S
C617 C618 1.387 . S
C617 H620 0.950 . S
C618 C617 1.387 . S
C618 C621 1.387 . S
H619 C615 0.950 . S
H620 C617 0.950 . S
C621 C612 1.390 . S
C621 H614 0.950 . S
C621 C618 1.387 . S
C622 C623 1.387 . S
C622 H626 0.950 . S
C622 C631 1.390 . S
C623 C622 1.387 . S
C623 C625 1.387 . S
H624 C631 0.950 . S
C625 C623 1.387 . S
C625 C627 1.390 . S
C625 H629 0.950 . S
H626 C622 0.950 . S
C627 C625 1.390 . S
C627 C628 1.387 . S
C627 H630 0.950 . S
C628 C627 1.387 . S
C628 C631 1.387 . S
H629 C625 0.950 . S
H630 C627 0.950 . S
C631 C622 1.390 . S
C631 H624 0.950 . S
C631 C628 1.387 . S
C632 C633 1.387 . S
C632 H636 0.950 . S
C632 C641 1.390 . S
C633 C632 1.387 . S
C633 C635 1.387 . S
H634 C641 0.950 . S
C635 C633 1.387 . S
C635 C637 1.390 . S
C635 H639 0.950 . S
H636 C632 0.950 . S
C637 C635 1.390 . S
C637 C638 1.387 . S
C637 H640 0.950 . S
C638 C637 1.387 . S
C638 C641 1.387 . S
H639 C635 0.950 . S
H640 C637 0.950 . S
C641 C632 1.390 . S
C641 H634 0.950 . S
C641 C638 1.387 . S
C642 C643 1.387 . S
C642 H646 0.950 . S
C642 C651 1.390 . S
C643 C642 1.387 . S
C643 C645 1.387 . S
H644 C651 0.950 . S
C645 C643 1.387 . S
C645 C647 1.390 . S
C645 H649 0.950 . S
H646 C642 0.950 . S
C647 C645 1.390 . S
C647 C648 1.387 . S
C647 H650 0.950 . S
C648 C647 1.387 . S
C648 C651 1.387 . S
H649 C645 0.950 . S
H650 C647 0.950 . S
C651 C642 1.390 . S
C651 H644 0.950 . S
C651 C648 1.387 . S
C652 C653 1.387 . S
C652 H656 0.950 . S
C652 C661 1.390 . S
C653 C652 1.387 . S
C653 C655 1.387 . S
H654 C661 0.950 . S
C655 C653 1.387 . S
C655 C657 1.390 . S
C655 H659 0.950 . S
H656 C652 0.950 . S
C657 C655 1.390 . S
C657 C658 1.387 . S
C657 H660 0.950 . S
C658 C657 1.387 . S
C658 C661 1.387 . S
H659 C655 0.950 . S
H660 C657 0.950 . S
C661 C652 1.390 . S
C661 H654 0.950 . S
C661 C658 1.387 . S
C662 C663 1.387 . S
C662 H666 0.950 . S
C662 C671 1.390 . S
C663 C662 1.387 . S
C663 C665 1.387 . S
H664 C671 0.950 . S
C665 C663 1.387 . S
C665 C667 1.390 . S
C665 H669 0.950 . S
H666 C662 0.950 . S
C667 C665 1.390 . S
C667 C668 1.387 . S
C667 H670 0.950 . S
C668 C667 1.387 . S
C668 C671 1.387 . S
H669 C665 0.950 . S
H670 C667 0.950 . S
C671 C662 1.390 . S
C671 H664 0.950 . S
C671 C668 1.387 . S
C672 C673 1.387 . S
C672 H676 0.950 . S
C672 C681 1.390 . S
C673 C672 1.387 . S
C673 C675 1.387 . S
H674 C681 0.950 . S
C675 C673 1.387 . S
C675 C677 1.390 . S
C675 H679 0.950 . S
H676 C672 0.950 . S
C677 C675 1.390 . S
C677 C678 1.387 . S
C677 H680 0.950 . S
C678 C677 1.387 . S
C678 C681 1.387 . S
H679 C675 0.950 . S
H680 C677 0.950 . S
C681 C672 1.390 . S
C681 H674 0.950 . S
C681 C678 1.387 . S
C682 C683 1.387 . S
C682 H686 0.950 . S
C682 C691 1.390 . S
C683 C682 1.387 . S
C683 C685 1.387 . S
H684 C691 0.950 . S
C685 C683 1.387 . S
C685 C687 1.390 . S
C685 H689 0.950 . S
H686 C682 0.950 . S
C687 C685 1.390 . S
C687 C688 1.387 . S
C687 H690 0.950 . S
C688 C687 1.387 . S
C688 C691 1.387 . S
H689 C685 0.950 . S
H690 C687 0.950 . S
C691 C682 1.390 . S
C691 H684 0.950 . S
C691 C688 1.387 . S
C692 C693 1.387 . S
C692 H696 0.950 . S
C692 C701 1.390 . S
C693 C692 1.387 . S
C693 C695 1.387 . S
H694 C701 0.950 . S
C695 C693 1.387 . S
C695 C697 1.390 . S
C695 H699 0.950 . S
H696 C692 0.950 . S
C697 C695 1.390 . S
C697 C698 1.387 . S
C697 H700 0.950 . S
C698 C697 1.387 . S
C698 C701 1.387 . S
H699 C695 0.950 . S
H700 C697 0.950 . S
C701 C692 1.390 . S
C701 H694 0.950 . S
C701 C698 1.387 . S
C702 C703 1.387 . S
C702 H706 0.950 . S
C702 C711 1.390 . S
C703 C702 1.387 . S
C703 C705 1.387 . S
H704 C711 0.950 . S
C705 C703 1.387 . S
C705 C707 1.390 . S
C705 H709 0.950 . S
H706 C702 0.950 . S
C707 C705 1.390 . S
C707 C708 1.387 . S
C707 H710 0.950 . S
C708 C707 1.387 . S
C708 C711 1.387 . S
H709 C705 0.950 . S
H710 C707 0.950 . S
C711 C702 1.390 . S
C711 H704 0.950 . S
C711 C708 1.387 . S
C712 C713 1.387 . S
C712 H716 0.950 . S
C712 C721 1.390 . S
C713 C712 1.387 . S
C713 C715 1.387 . S
H714 C721 0.950 . S
C715 C713 1.387 . S
C715 C717 1.390 . S
C715 H719 0.950 . S
H716 C712 0.950 . S
C717 C715 1.390 . S
C717 C718 1.387 . S
C717 H720 0.950 . S
C718 C717 1.387 . S
C718 C721 1.387 . S
H719 C715 0.950 . S
H720 C717 0.950 . S
C721 C712 1.390 . S
C721 H714 0.950 . S
C721 C718 1.387 . S
C722 C723 1.387 . S
C722 H726 0.950 . S
C722 C731 1.390 . S
C723 C722 1.387 . S
C723 C725 1.387 . S
H724 C731 0.950 . S
C725 C723 1.387 . S
C725 C727 1.390 . S
C725 H729 0.950 . S
H726 C722 0.950 . S
C727 C725 1.390 . S
C727 C728 1.387 . S
C727 H730 0.950 . S
C728 C727 1.387 . S
C728 C731 1.387 . S
H729 C725 0.950 . S
H730 C727 0.950 . S
C731 C722 1.390 . S
C731 H724 0.950 . S
C731 C728 1.387 . S
C732 C733 1.387 . S
C732 H736 0.950 . S
C732 C741 1.390 . S
C733 C732 1.387 . S
C733 C735 1.387 1_556 S
H734 C741 0.950 . S
C735 C733 1.387 1_554 S
C735 C737 1.390 . S
C735 H739 0.950 . S
H736 C732 0.950 . S
C737 C735 1.390 . S
C737 C738 1.387 . S
C737 H740 0.950 . S
C738 C737 1.387 . S
C738 C741 1.387 1_554 S
H739 C735 0.950 . S
H740 C737 0.950 . S
C741 C732 1.390 . S
C741 H734 0.950 . S
C741 C738 1.387 1_556 S
C742 C743 1.387 . S
C742 H746 0.950 . S
C742 C751 1.390 . S
C743 C742 1.387 . S
C743 C745 1.387 . S
H744 C751 0.950 . S
C745 C743 1.387 . S
C745 C747 1.390 1_556 S
C745 H749 0.950 . S
H746 C742 0.950 . S
C747 C745 1.390 1_554 S
C747 C748 1.387 . S
C747 H750 0.950 . S
C748 C747 1.387 . S
C748 C751 1.387 1_554 S
H749 C745 0.950 . S
H750 C747 0.950 . S
C751 C742 1.390 . S
C751 H744 0.950 . S
C751 C748 1.387 1_556 S
C752 C753 1.387 . S
C752 H756 0.950 . S
C752 C761 1.390 1_545 S
C753 C752 1.387 . S
C753 C755 1.387 1_556 S
H754 C761 0.950 . S
C755 C753 1.387 1_554 S
C755 C757 1.390 . S
C755 H759 0.950 . S
H756 C752 0.950 . S
C757 C755 1.390 . S
C757 C758 1.387 1_545 S
C757 H760 0.945 1_545 S
C758 C757 1.387 1_565 S
C758 C761 1.387 1_554 S
H759 C755 0.950 . S
H760 C757 0.945 1_565 S
C761 C752 1.390 1_565 S
C761 H754 0.950 . S
C761 C758 1.387 1_556 S
C762 C763 1.387 . S
C762 H766 0.950 . S
C762 C771 1.390 . S
C763 C762 1.387 . S
C763 C765 1.387 1_556 S
H764 C771 0.950 . S
C765 C763 1.387 1_554 S
C765 C767 1.390 . S
C765 H769 0.950 . S
H766 C762 0.950 . S
C767 C765 1.390 . S
C767 C768 1.387 . S
C767 H770 0.950 . S
C768 C767 1.387 . S
C768 C771 1.387 1_554 S
H769 C765 0.950 . S
H770 C767 0.950 . S
C771 C762 1.390 . S
C771 H764 0.950 . S
C771 C768 1.387 1_556 S
C772 C773 1.387 1_556 S
C772 H776 0.950 . S
C772 C781 1.390 . S
C773 C772 1.387 1_554 S
C773 C775 1.387 . S
H774 C781 0.950 . S
C775 C773 1.387 . S
C775 C777 1.390 1_455 S
C775 H779 0.950 . S
H776 C772 0.950 . S
C777 C775 1.390 1_655 S
C777 C778 1.387 1_554 S
C777 H780 0.950 . S
C778 C777 1.387 1_556 S
C778 C781 1.387 1_655 S
H779 C775 0.950 . S
H780 C777 0.950 . S
C781 C772 1.390 . S
C781 H774 0.950 . S
C781 C778 1.387 1_455 S
C782 C783 1.387 . S
C782 H786 0.950 . S
C782 C791 1.390 . S
C783 C782 1.387 . S
C783 C785 1.387 1_554 S
H784 C791 0.950 . S
C785 C783 1.387 1_556 S
C785 C787 1.390 . S
C785 H789 0.950 . S
H786 C782 0.950 . S
C787 C785 1.390 . S
C787 C788 1.387 . S
C787 H790 0.950 . S
C788 C787 1.387 . S
C788 C791 1.387 1_556 S
H789 C785 0.950 . S
H790 C787 0.950 . S
C791 C782 1.390 . S
C791 H784 0.950 . S
C791 C788 1.387 1_554 S
C792 C793 1.387 . S
C792 H796 0.950 . S
C792 C801 1.390 . S
C793 C792 1.387 . S
C793 C795 1.387 . S
H794 C801 0.950 . S
C795 C793 1.387 . S
C795 C797 1.390 . S
C795 H799 0.950 . S
H796 C792 0.950 . S
C797 C795 1.390 . S
C797 C798 1.387 . S
C797 H800 0.950 . S
C798 C797 1.387 . S
C798 C801 1.387 . S
H799 C795 0.950 . S
H800 C797 0.950 . S
C801 C792 1.390 . S
C801 H794 0.950 . S
C801 C798 1.387 . S
C802 C803 1.387 . S
C802 H806 0.950 . S
C802 C811 1.390 . S
C803 C802 1.387 . S
C803 C805 1.387 . S
H804 C811 0.950 . S
C805 C803 1.387 . S
C805 C807 1.390 . S
C805 H809 0.950 . S
H806 C802 0.950 . S
C807 C805 1.390 . S
C807 C808 1.387 . S
C807 H810 0.950 . S
C808 C807 1.387 . S
C808 C811 1.387 . S
H809 C805 0.950 . S
H810 C807 0.950 . S
C811 C802 1.390 . S
C811 H804 0.950 . S
C811 C808 1.387 . S
C812 C813 1.387 . S
C812 H816 0.950 . S
C812 C821 1.390 . S
C813 C812 1.387 . S
C813 C815 1.387 . S
H814 C821 0.950 . S
C815 C813 1.387 . S
C815 C817 1.390 . S
C815 H819 0.950 . S
H816 C812 0.950 . S
C817 C815 1.390 . S
C817 C818 1.387 . S
C817 H820 0.950 . S
C818 C817 1.387 . S
C818 C821 1.387 . S
H819 C815 0.950 . S
H820 C817 0.950 . S
C821 C812 1.390 . S
C821 H814 0.950 . S
C821 C818 1.387 . S
C822 C823 1.387 . S
C822 H826 0.950 . S
C822 C831 1.390 . S
C823 C822 1.387 . S
C823 C825 1.387 . S
H824 C831 0.950 . S
C825 C823 1.387 . S
C825 C827 1.390 . S
C825 H829 0.950 . S
H826 C822 0.950 . S
C827 C825 1.390 . S
C827 C828 1.387 . S
C827 H830 0.950 . S
C828 C827 1.387 . S
C828 C831 1.387 . S
H829 C825 0.950 . S
H830 C827 0.950 . S
C831 C822 1.390 . S
C831 H824 0.950 . S
C831 C828 1.387 . S
C832 C833 1.387 . S
C832 H836 0.950 . S
C832 C841 1.390 . S
C833 C832 1.387 . S
C833 C835 1.387 . S
H834 C841 0.950 . S
C835 C833 1.387 . S
C835 C837 1.390 . S
C835 H839 0.950 . S
H836 C832 0.950 . S
C837 C835 1.390 . S
C837 C838 1.387 . S
C837 H840 0.950 1_655 S
C838 C837 1.387 . S
C838 C841 1.387 . S
H839 C835 0.950 . S
H840 C837 0.950 1_455 S
C841 C832 1.390 . S
C841 H834 0.950 . S
C841 C838 1.387 . S
C842 C843 1.387 . S
C842 H846 0.950 . S
C842 C851 1.390 . S
C843 C842 1.387 . S
C843 C845 1.387 . S
H844 C851 0.950 . S
C845 C843 1.387 . S
C845 C847 1.390 . S
C845 H849 0.950 . S
H846 C842 0.950 . S
C847 C845 1.390 . S
C847 C848 1.387 . S
C847 H850 0.950 . S
C848 C847 1.387 . S
C848 C851 1.387 . S
H849 C845 0.950 . S
H850 C847 0.950 . S
C851 C842 1.390 . S
C851 H844 0.950 . S
C851 C848 1.387 . S
C852 C853 1.387 . S
C852 H856 0.950 . S
C852 C861 1.390 . S
C853 C852 1.387 . S
C853 C855 1.387 . S
H854 C861 0.950 . S
C855 C853 1.387 . S
C855 C857 1.390 . S
C855 H859 0.950 . S
H856 C852 0.950 . S
C857 C855 1.390 . S
C857 C858 1.387 . S
C857 H860 0.950 . S
C858 C857 1.387 . S
C858 C861 1.387 . S
H859 C855 0.950 . S
H860 C857 0.950 . S
C861 C852 1.390 . S
C861 H854 0.950 . S
C861 C858 1.387 . S
C862 C863 1.387 . S
C862 H866 0.950 . S
C862 C871 1.390 . S
C863 C862 1.387 . S
C863 C865 1.387 . S
H864 C871 0.950 . S
C865 C863 1.387 . S
C865 C867 1.390 . S
C865 H869 0.950 . S
H866 C862 0.950 . S
C867 C865 1.390 . S
C867 C868 1.387 . S
C867 H870 0.950 . S
C868 C867 1.387 . S
C868 C871 1.387 . S
H869 C865 0.950 . S
H870 C867 0.950 . S
C871 C862 1.390 . S
C871 H864 0.950 . S
C871 C868 1.387 . S
C872 C873 1.387 . S
C872 H876 0.950 . S
C872 C881 1.390 . S
C873 C872 1.387 . S
C873 C875 1.387 . S
H874 C881 0.950 . S
C875 C873 1.387 . S
C875 C877 1.390 . S
C875 H879 0.950 . S
H876 C872 0.950 . S
C877 C875 1.390 . S
C877 C878 1.387 . S
C877 H880 0.950 . S
C878 C877 1.387 . S
C878 C881 1.387 . S
H879 C875 0.950 . S
H880 C877 0.950 . S
C881 C872 1.390 . S
C881 H874 0.950 . S
C881 C878 1.387 . S
C882 C883 1.387 . S
C882 H886 0.950 . S
C882 C891 1.390 . S
C883 C882 1.387 . S
C883 C885 1.387 1_556 S
H884 C891 0.950 . S
C885 C883 1.387 1_554 S
C885 C887 1.390 1_554 S
C885 H889 0.950 . S
H886 C882 0.950 . S
C887 C885 1.390 1_556 S
C887 C888 1.387 . S
C887 H890 0.950 1_556 S
C888 C887 1.387 . S
C888 C891 1.387 . S
H889 C885 0.950 . S
H890 C887 0.950 1_554 S
C891 C882 1.390 . S
C891 H884 0.950 . S
C891 C888 1.387 . S
C892 C893 1.387 1_554 S
C892 H896 0.950 . S
C892 C901 1.390 1_554 S
C893 C892 1.387 1_556 S
C893 C895 1.387 . S
H894 C901 0.950 1_554 S
C895 C893 1.387 . S
C895 C897 1.390 . S
C895 H899 0.950 . S
H896 C892 0.950 . S
C897 C895 1.390 . S
C897 C898 1.387 . S
C897 H900 0.950 . S
C898 C897 1.387 . S
C898 C901 1.387 . S
H899 C895 0.950 . S
H900 C897 0.950 . S
C901 C892 1.390 1_556 S
C901 H894 0.950 1_556 S
C901 C898 1.387 . S
C902 C903 1.387 . S
C902 H906 0.950 1_556 S
C902 C911 1.390 . S
C903 C902 1.387 . S
C903 C905 1.387 . S
H904 C911 0.950 1_554 S
C905 C903 1.387 . S
C905 C907 1.390 . S
C905 H909 0.950 . S
H906 C902 0.950 1_554 S
C907 C905 1.390 . S
C907 C908 1.387 . S
C907 H910 0.950 . S
C908 C907 1.387 . S
C908 C911 1.387 . S
H909 C905 0.950 . S
H910 C907 0.950 . S
C911 C902 1.390 . S
C911 H904 0.950 1_556 S
C911 C908 1.387 . S
C912 C913 1.387 . S
C912 H916 0.950 . S
C912 C921 1.390 . S
C913 C912 1.387 . S
C913 C915 1.387 . S
H914 C921 0.950 . S
C915 C913 1.387 . S
C915 C917 1.390 . S
C915 H919 0.950 1_554 S
H916 C912 0.950 . S
C917 C915 1.390 . S
C917 C918 1.387 . S
C917 H920 0.950 1_554 S
C918 C917 1.387 . S
C918 C921 1.387 . S
H919 C915 0.950 1_556 S
H920 C917 0.950 1_556 S
C921 C912 1.390 . S
C921 H914 0.950 . S
C921 C918 1.387 . S
C922 C923 1.387 . S
C922 H926 0.950 . S
C922 C931 1.390 . S
C923 C922 1.387 . S
C923 C925 1.387 . S
H924 C931 0.950 . S
C925 C923 1.387 . S
C925 C927 1.390 1_554 S
C925 H929 0.950 1_554 S
H926 C922 0.950 . S
C927 C925 1.390 1_556 S
C927 C928 1.387 1_556 S
C927 H930 0.950 . S
C928 C927 1.387 1_554 S
C928 C931 1.387 . S
H929 C925 0.950 1_556 S
H930 C927 0.950 . S
C931 C922 1.390 . S
C931 H924 0.950 . S
C931 C928 1.387 . S
C932 C933 1.387 1_556 S
C932 H936 0.950 . S
C932 C941 1.390 1_556 S
C933 C932 1.387 1_554 S
C933 C935 1.387 . S
H934 C941 0.950 1_556 S
C935 C933 1.387 . S
C935 C937 1.390 . S
C935 H939 0.950 . S
H936 C932 0.950 . S
C937 C935 1.390 . S
C937 C938 1.387 . S
C937 H940 0.950 . S
C938 C937 1.387 . S
C938 C941 1.387 . S
H939 C935 0.950 . S
H940 C937 0.950 . S
C941 C932 1.390 1_554 S
C941 H934 0.950 1_554 S
C941 C938 1.387 . S
C942 C943 1.387 . S
C942 H946 0.950 . S
C942 C951 1.390 . S
C943 C942 1.387 . S
C943 C945 1.387 . S
H944 C951 0.950 . S
C945 C943 1.387 . S
C945 C947 1.390 . S
C945 H949 0.950 . S
H946 C942 0.950 . S
C947 C945 1.390 . S
C947 C948 1.387 . S
C947 H950 0.950 . S
C948 C947 1.387 . S
C948 C951 1.387 . S
H949 C945 0.950 . S
H950 C947 0.950 . S
C951 C942 1.390 . S
C951 H944 0.950 . S
C951 C948 1.387 . S
C952 C953 1.387 . S
C952 H956 0.950 . S
C952 C961 1.390 . S
C953 C952 1.387 . S
C953 C955 1.387 . S
H954 C961 0.950 . S
C955 C953 1.387 . S
C955 C957 1.390 . S
C955 H959 0.950 . S
H956 C952 0.950 . S
C957 C955 1.390 . S
C957 C958 1.387 . S
C957 H960 0.950 . S
C958 C957 1.387 . S
C958 C961 1.387 . S
H959 C955 0.950 . S
H960 C957 0.950 . S
C961 C952 1.390 . S
C961 H954 0.950 . S
C961 C958 1.387 . S
C962 C963 1.387 . S
C962 H966 0.950 . S
C962 C971 1.390 . S
C963 C962 1.387 . S
C963 C965 1.387 . S
H964 C971 0.950 . S
C965 C963 1.387 . S
C965 C967 1.390 . S
C965 H969 0.950 . S
H966 C962 0.950 . S
C967 C965 1.390 . S
C967 C968 1.387 . S
C967 H970 0.950 . S
C968 C967 1.387 . S
C968 C971 1.387 . S
H969 C965 0.950 . S
H970 C967 0.950 . S
C971 C962 1.390 . S
C971 H964 0.950 . S
C971 C968 1.387 . S
C972 C973 1.387 . S
C972 H976 0.950 . S
C972 C981 1.390 1_554 S
C973 C972 1.387 . S
C973 C975 1.387 . S
H974 C981 0.950 . S
C975 C973 1.387 . S
C975 C977 1.390 1_554 S
C975 H979 0.950 . S
H976 C972 0.950 . S
C977 C975 1.390 1_556 S
C977 C978 1.387 . S
C977 H980 0.950 . S
C978 C977 1.387 . S
C978 C981 1.387 . S
H979 C975 0.950 . S
H980 C977 0.950 . S
C981 C972 1.390 1_556 S
C981 H974 0.950 . S
C981 C978 1.387 . S
C982 C983 1.387 . S
C982 H986 0.950 . S
C982 C991 1.390 1_554 S
C983 C982 1.387 . S
C983 C985 1.387 . S
H984 C991 0.950 . S
C985 C983 1.387 . S
C985 C987 1.390 1_554 S
C985 H989 0.950 . S
H986 C982 0.950 . S
C987 C985 1.390 1_556 S
C987 C988 1.387 . S
C987 H990 0.950 . S
C988 C987 1.387 . S
C988 C991 1.387 . S
H989 C985 0.950 . S
H990 C987 0.950 . S
C991 C982 1.390 1_556 S
C991 H984 0.950 . S
C991 C988 1.387 . S
C992 C993 1.387 . S
C992 H996 0.950 . S
C992 C1001 1.390 1_554 S
C993 C992 1.387 . S
C993 C995 1.387 . S
H994 C1001 0.950 . S
C995 C993 1.387 . S
C995 C997 1.390 1_554 S
C995 H999 0.950 . S
H996 C992 0.950 . S
C997 C995 1.390 1_556 S
C997 C998 1.387 . S
C997 H1000 0.950 . S
C998 C997 1.387 . S
C998 C1001 1.387 . S
H999 C995 0.950 . S
H1000 C997 0.950 . S
C1001 C992 1.390 1_556 S
C1001 H994 0.950 . S
C1001 C998 1.387 . S
C1002 C1003 1.387 . S
C1002 H1006 0.950 . S
C1002 C1011 1.390 1_556 S
C1003 C1002 1.387 . S
C1003 C1005 1.387 . S
H1004 C1011 0.950 . S
C1005 C1003 1.387 . S
C1005 C1007 1.390 1_556 S
C1005 H1009 0.950 . S
H1006 C1002 0.950 . S
C1007 C1005 1.390 1_554 S
C1007 C1008 1.387 . S
C1007 H1010 0.950 . S
C1008 C1007 1.387 . S
C1008 C1011 1.387 . S
H1009 C1005 0.950 . S
H1010 C1007 0.950 . S
C1011 C1002 1.390 1_554 S
C1011 H1004 0.950 . S
C1011 C1008 1.387 . S
C1012 C1013 1.387 . S
C1012 H1016 0.950 . S
C1012 C1021 1.390 1_554 S
C1013 C1012 1.387 . S
C1013 C1015 1.387 . S
H1014 C1021 0.950 . S
C1015 C1013 1.387 . S
C1015 C1017 1.390 1_554 S
C1015 H1019 0.950 . S
H1016 C1012 0.950 . S
C1017 C1015 1.390 1_556 S
C1017 C1018 1.387 . S
C1017 H1020 0.950 . S
C1018 C1017 1.387 . S
C1018 C1021 1.387 . S
H1019 C1015 0.950 . S
H1020 C1017 0.950 . S
C1021 C1012 1.390 1_556 S
C1021 H1014 0.950 . S
C1021 C1018 1.387 . S
C1022 C1023 1.387 . S
C1022 H1026 0.950 . S
C1022 C1031 1.390 1_554 S
C1023 C1022 1.387 . S
C1023 C1025 1.387 . S
H1024 C1031 0.950 . S
C1025 C1023 1.387 . S
C1025 C1027 1.390 1_554 S
C1025 H1029 0.950 . S
H1026 C1022 0.950 . S
C1027 C1025 1.390 1_556 S
C1027 C1028 1.387 . S
C1027 H1030 0.950 . S
C1028 C1027 1.387 . S
C1028 C1031 1.387 . S
H1029 C1025 0.950 . S
H1030 C1027 0.950 . S
C1031 C1022 1.390 1_556 S
C1031 H1024 0.950 . S
C1031 C1028 1.387 . S
C1032 C1033 1.387 . S
C1032 H1036 0.950 . S
C1032 C1041 1.390 . S
C1033 C1032 1.387 . S
C1033 C1035 1.387 . S
H1034 C1041 0.950 . S
C1035 C1033 1.387 . S
C1035 C1037 1.390 . S
C1035 H1039 0.950 . S
H1036 C1032 0.950 . S
C1037 C1035 1.390 . S
C1037 C1038 1.387 . S
C1037 H1040 0.950 . S
C1038 C1037 1.387 . S
C1038 C1041 1.387 . S
H1039 C1035 0.950 . S
H1040 C1037 0.950 . S
C1041 C1032 1.390 . S
C1041 H1034 0.950 . S
C1041 C1038 1.387 . S
C1042 C1043 1.387 . S
C1042 H1046 0.950 . S
C1042 C1051 1.390 . S
C1043 C1042 1.387 . S
C1043 C1045 1.387 . S
H1044 C1051 0.950 . S
C1045 C1043 1.387 . S
C1045 C1047 1.390 . S
C1045 H1049 0.950 . S
H1046 C1042 0.950 . S
C1047 C1045 1.390 . S
C1047 C1048 1.387 . S
C1047 H1050 0.950 . S
C1048 C1047 1.387 . S
C1048 C1051 1.387 . S
H1049 C1045 0.950 . S
H1050 C1047 0.950 . S
C1051 C1042 1.390 . S
C1051 H1044 0.950 . S
C1051 C1048 1.387 . S
C1052 C1053 1.387 . S
C1052 H1056 0.950 . S
C1052 C1061 1.390 . S
C1053 C1052 1.387 . S
C1053 C1055 1.387 . S
H1054 C1061 0.950 . S
C1055 C1053 1.387 . S
C1055 C1057 1.390 . S
C1055 H1059 0.950 . S
H1056 C1052 0.950 . S
C1057 C1055 1.390 . S
C1057 C1058 1.387 . S
C1057 H1060 0.950 . S
C1058 C1057 1.387 . S
C1058 C1061 1.387 . S
H1059 C1055 0.950 . S
H1060 C1057 0.950 . S
C1061 C1052 1.390 . S
C1061 H1054 0.950 . S
C1061 C1058 1.387 . S
C1062 C1063 1.387 . S
C1062 H1066 0.950 . S
C1062 C1071 1.390 . S
C1063 C1062 1.387 . S
C1063 C1065 1.387 . S
H1064 C1071 0.950 . S
C1065 C1063 1.387 . S
C1065 C1067 1.390 . S
C1065 H1069 0.950 . S
H1066 C1062 0.950 . S
C1067 C1065 1.390 . S
C1067 C1068 1.387 . S
C1067 H1070 0.950 . S
C1068 C1067 1.387 . S
C1068 C1071 1.387 . S
H1069 C1065 0.950 . S
H1070 C1067 0.950 . S
C1071 C1062 1.390 . S
C1071 H1064 0.950 . S
C1071 C1068 1.387 . S
C1072 C1073 1.387 . S
C1072 H1076 0.950 . S
C1072 C1081 1.390 . S
C1073 C1072 1.387 . S
C1073 C1075 1.387 . S
H1074 C1081 0.950 . S
C1075 C1073 1.387 . S
C1075 C1077 1.390 . S
C1075 H1079 0.950 . S
H1076 C1072 0.950 . S
C1077 C1075 1.390 . S
C1077 C1078 1.387 . S
C1077 H1080 0.950 . S
C1078 C1077 1.387 . S
C1078 C1081 1.387 . S
H1079 C1075 0.950 . S
H1080 C1077 0.950 . S
C1081 C1072 1.390 . S
C1081 H1074 0.950 . S
C1081 C1078 1.387 . S
C1082 C1083 1.387 . S
C1082 H1086 0.950 . S
C1082 C1091 1.390 . S
C1083 C1082 1.387 . S
C1083 C1085 1.387 . S
H1084 C1091 0.950 . S
C1085 C1083 1.387 . S
C1085 C1087 1.390 . S
C1085 H1089 0.950 . S
H1086 C1082 0.950 . S
C1087 C1085 1.390 . S
C1087 C1088 1.387 . S
C1087 H1090 0.950 . S
C1088 C1087 1.387 . S
C1088 C1091 1.387 . S
H1089 C1085 0.950 . S
H1090 C1087 0.950 . S
C1091 C1082 1.390 . S
C1091 H1084 0.950 . S
C1091 C1088 1.387 . S
C1092 C1093 1.387 . S
C1092 H1096 0.950 . S
C1092 C1101 1.390 . S
C1093 C1092 1.387 . S
C1093 C1095 1.387 . S
H1094 C1101 0.950 . S
C1095 C1093 1.387 . S
C1095 C1097 1.390 . S
C1095 H1099 0.950 . S
H1096 C1092 0.950 . S
C1097 C1095 1.390 . S
C1097 C1098 1.387 . S
C1097 H1100 0.950 . S
C1098 C1097 1.387 . S
C1098 C1101 1.387 . S
H1099 C1095 0.950 . S
H1100 C1097 0.950 . S
C1101 C1092 1.390 . S
C1101 H1094 0.950 . S
C1101 C1098 1.387 . S
C1102 C1103 1.387 . S
C1102 H1106 0.950 . S
C1102 C1111 1.390 . S
C1103 C1102 1.387 . S
C1103 C1105 1.387 . S
H1104 C1111 0.950 . S
C1105 C1103 1.387 . S
C1105 C1107 1.390 . S
C1105 H1109 0.950 . S
H1106 C1102 0.950 . S
C1107 C1105 1.390 . S
C1107 C1108 1.387 . S
C1107 H1110 0.950 . S
C1108 C1107 1.387 . S
C1108 C1111 1.387 . S
H1109 C1105 0.950 . S
H1110 C1107 0.950 . S
C1111 C1102 1.390 . S
C1111 H1104 0.950 . S
C1111 C1108 1.387 . S
C1112 C1113 1.387 . S
C1112 H1116 0.950 . S
C1112 C1121 1.390 . S
C1113 C1112 1.387 . S
C1113 C1115 1.387 . S
H1114 C1121 0.950 . S
C1115 C1113 1.387 . S
C1115 C1117 1.390 . S
C1115 H1119 0.950 . S
H1116 C1112 0.950 . S
C1117 C1115 1.390 . S
C1117 C1118 1.387 . S
C1117 H1120 0.950 . S
C1118 C1117 1.387 . S
C1118 C1121 1.387 . S
H1119 C1115 0.950 . S
H1120 C1117 0.950 . S
C1121 C1112 1.390 . S
C1121 H1114 0.950 . S
C1121 C1118 1.387 . S
C1122 C1123 1.387 . S
C1122 H1126 0.950 . S
C1122 C1131 1.390 . S
C1123 C1122 1.387 . S
C1123 C1125 1.387 . S
H1124 C1131 0.950 . S
C1125 C1123 1.387 . S
C1125 C1127 1.390 . S
C1125 H1129 0.950 . S
H1126 C1122 0.950 . S
C1127 C1125 1.390 . S
C1127 C1128 1.387 . S
C1127 H1130 0.950 . S
C1128 C1127 1.387 . S
C1128 C1131 1.387 . S
H1129 C1125 0.950 . S
H1130 C1127 0.950 . S
C1131 C1122 1.390 . S
C1131 H1124 0.950 . S
C1131 C1128 1.387 . S
C1132 C1133 1.387 . S
C1132 H1136 0.950 . S
C1132 C1141 1.390 . S
C1133 C1132 1.387 . S
C1133 C1135 1.387 . S
H1134 C1141 0.950 . S
C1135 C1133 1.387 . S
C1135 C1137 1.390 . S
C1135 H1139 0.950 . S
H1136 C1132 0.950 . S
C1137 C1135 1.390 . S
C1137 C1138 1.387 . S
C1137 H1140 0.950 . S
C1138 C1137 1.387 . S
C1138 C1141 1.387 . S
H1139 C1135 0.950 . S
H1140 C1137 0.950 . S
C1141 C1132 1.390 . S
C1141 H1134 0.950 . S
C1141 C1138 1.387 . S
C1142 C1143 1.387 . S
C1142 H1146 0.950 . S
C1142 C1151 1.390 . S
C1143 C1142 1.387 . S
C1143 C1145 1.387 . S
H1144 C1151 0.950 . S
C1145 C1143 1.387 . S
C1145 C1147 1.390 . S
C1145 H1149 0.950 . S
H1146 C1142 0.950 . S
C1147 C1145 1.390 . S
C1147 C1148 1.387 . S
C1147 H1150 0.950 . S
C1148 C1147 1.387 . S
C1148 C1151 1.387 . S
H1149 C1145 0.950 . S
H1150 C1147 0.950 . S
C1151 C1142 1.390 . S
C1151 H1144 0.950 . S
C1151 C1148 1.387 . S
C613 C455 1.731 . S
C618 C8 1.775 . S
C623 C42 1.774 . S
C628 C489 1.729 . S
C633 C76 1.774 1_565 S
C638 C421 1.730 . S
C643 C81 1.730 . S
C648 C246 1.775 . S
C653 C280 1.775 . S
C658 C13 1.731 . S
C663 C47 1.731 . S
C668 C212 1.775 . S
C673 C119 1.775 1_655 S
C678 C344 1.729 . S
C683 C153 1.774 . S
C688 C378 1.730 . S
C693 C310 1.730 . S
C698 C187 1.775 . S
C703 C561 1.775 . S
C708 C174 1.728 . S
C713 C106 1.728 . S
C718 C595 1.774 . S
C723 C527 1.775 . S
C728 C140 1.731 . S
C733 C285 1.730 . S
C738 C450 1.776 . S
C743 C217 1.729 . S
C748 C484 1.774 . S
C753 C251 1.728 . S
C758 C416 1.774 . S
C763 C323 1.775 . S
C768 C548 1.729 . S
C773 C582 1.730 . S
C778 C357 1.776 . S
C783 C514 1.731 . S
C788 C391 1.775 . S
C793 C4 1.566 . S
C798 C144 1.634 . S
C803 C178 1.635 1_565 S
C808 C38 1.565 . S
C813 C110 1.635 . S
C818 C72 1.563 . S
C823 C149 1.563 . S
C828 C85 1.635 . S
C833 C183 1.564 . S
C838 C17 1.635 1_655 S
C843 C115 1.563 . S
C848 C51 1.635 . S
C853 C348 1.635 . S
C858 C208 1.563 . S
C863 C382 1.634 . S
C868 C242 1.566 . S
C873 C314 1.635 . S
C878 C276 1.563 . S
C883 C353 1.565 . S
C888 C289 1.634 . S
C893 C387 1.563 . S
C898 C221 1.635 . S
C903 C319 1.563 . S
C908 C255 1.635 . S
C913 C552 1.635 . S
C918 C412 1.563 . S
C923 C586 1.635 . S
C928 C446 1.563 . S
C933 C480 1.566 . S
C938 C518 1.635 . S
C943 C493 1.635 . S
C948 C557 1.564 . S
C953 C425 1.635 . S
C958 C591 1.563 . S
C963 C523 1.566 . S
C968 C459 1.634 . S
C973 C0 1.326 . S
C978 C29 1.326 . S
C983 C34 1.326 . S
C988 C63 1.326 . S
C993 C68 1.326 . S
C998 C97 1.326 . S
C1003 C131 1.326 . S
C1008 C102 1.326 . S
C1013 C136 1.326 . S
C1018 C165 1.326 . S
C1023 C170 1.326 . S
C1028 C199 1.326 . S
C1033 C233 1.326 . S
C1038 C204 1.326 . S
C1043 C238 1.326 . S
C1048 C267 1.326 . S
C1053 C301 1.326 . S
C1058 C272 1.326 . S
C1063 C335 1.326 . S
C1068 C306 1.326 . S
C1073 C369 1.326 . S
C1078 C340 1.326 . S
C1083 C403 1.326 . S
C1088 C374 1.326 . S
C1093 C437 1.326 . S
C1098 C408 1.326 . S
C1103 C442 1.326 . S
C1108 C471 1.326 . S
C1113 C476 1.326 . S
C1118 C505 1.326 . S
C1123 C510 1.326 . S
C1128 C539 1.326 . S
C1133 C544 1.326 . S
C1138 C573 1.326 . S
C1143 C607 1.326 . S
C1148 C578 1.326 . S
