# Generated by pormake.
# Topology gsi, (4)-cn, num edge types: 1
# Building blocks:
#     Node 0, Type 0, BuildingBlock: QUQFOY_clean_sbu_3, # of connection points: 4
#     Node 1, Type 0, BuildingBlock: QUQFOY_clean_sbu_3, # of connection points: 4
#     Node 2, Type 0, BuildingBlock: QUQFOY_clean_sbu_3, # of connection points: 4
#     Node 3, Type 0, BuildingBlock: QUQFOY_clean_sbu_3, # of connection points: 4
#     Node 4, Type 0, BuildingBlock: QUQFOY_clean_sbu_3, # of connection points: 4
#     Node 5, Type 0, BuildingBlock: QUQFOY_clean_sbu_3, # of connection points: 4
#     Node 6, Type 0, BuildingBlock: QUQFOY_clean_sbu_3, # of connection points: 4
#     Node 7, Type 0, BuildingBlock: QUQFOY_clean_sbu_3, # of connection points: 4
#     Node 8, Type 0, BuildingBlock: QUQFOY_clean_sbu_3, # of connection points: 4
#     Node 9, Type 0, BuildingBlock: QUQFOY_clean_sbu_3, # of connection points: 4
#     Node 10, Type 0, BuildingBlock: QUQFOY_clean_sbu_3, # of connection points: 4
#     Node 11, Type 0, BuildingBlock: QUQFOY_clean_sbu_3, # of connection points: 4
#     Node 12, Type 0, BuildingBlock: QUQFOY_clean_sbu_3, # of connection points: 4
#     Node 13, Type 0, BuildingBlock: QUQFOY_clean_sbu_3, # of connection points: 4
#     Node 14, Type 0, BuildingBlock: QUQFOY_clean_sbu_3, # of connection points: 4
#     Node 15, Type 0, BuildingBlock: QUQFOY_clean_sbu_3, # of connection points: 4
#     Edge 16, Type (0, 0), BuildingBlock: KIFKEQ_clean_linker_1, # of connection points: 2
#     Edge 17, Type (0, 0), BuildingBlock: KIFKEQ_clean_linker_1, # of connection points: 2
#     Edge 18, Type (0, 0), BuildingBlock: KIFKEQ_clean_linker_1, # of connection points: 2
#     Edge 19, Type (0, 0), BuildingBlock: KIFKEQ_clean_linker_1, # of connection points: 2
#     Edge 20, Type (0, 0), BuildingBlock: KIFKEQ_clean_linker_1, # of connection points: 2
#     Edge 21, Type (0, 0), BuildingBlock: KIFKEQ_clean_linker_1, # of connection points: 2
#     Edge 22, Type (0, 0), BuildingBlock: KIFKEQ_clean_linker_1, # of connection points: 2
#     Edge 23, Type (0, 0), BuildingBlock: KIFKEQ_clean_linker_1, # of connection points: 2
#     Edge 24, Type (0, 0), BuildingBlock: KIFKEQ_clean_linker_1, # of connection points: 2
#     Edge 25, Type (0, 0), BuildingBlock: KIFKEQ_clean_linker_1, # of connection points: 2
#     Edge 26, Type (0, 0), BuildingBlock: KIFKEQ_clean_linker_1, # of connection points: 2
#     Edge 27, Type (0, 0), BuildingBlock: KIFKEQ_clean_linker_1, # of connection points: 2
#     Edge 28, Type (0, 0), BuildingBlock: KIFKEQ_clean_linker_1, # of connection points: 2
#     Edge 29, Type (0, 0), BuildingBlock: KIFKEQ_clean_linker_1, # of connection points: 2
#     Edge 30, Type (0, 0), BuildingBlock: KIFKEQ_clean_linker_1, # of connection points: 2
#     Edge 31, Type (0, 0), BuildingBlock: KIFKEQ_clean_linker_1, # of connection points: 2
#     Edge 32, Type (0, 0), BuildingBlock: KIFKEQ_clean_linker_1, # of connection points: 2
#     Edge 33, Type (0, 0), BuildingBlock: KIFKEQ_clean_linker_1, # of connection points: 2
#     Edge 34, Type (0, 0), BuildingBlock: KIFKEQ_clean_linker_1, # of connection points: 2
#     Edge 35, Type (0, 0), BuildingBlock: KIFKEQ_clean_linker_1, # of connection points: 2
#     Edge 36, Type (0, 0), BuildingBlock: KIFKEQ_clean_linker_1, # of connection points: 2
#     Edge 37, Type (0, 0), BuildingBlock: KIFKEQ_clean_linker_1, # of connection points: 2
#     Edge 38, Type (0, 0), BuildingBlock: KIFKEQ_clean_linker_1, # of connection points: 2
#     Edge 39, Type (0, 0), BuildingBlock: KIFKEQ_clean_linker_1, # of connection points: 2
#     Edge 40, Type (0, 0), BuildingBlock: KIFKEQ_clean_linker_1, # of connection points: 2
#     Edge 41, Type (0, 0), BuildingBlock: KIFKEQ_clean_linker_1, # of connection points: 2
#     Edge 42, Type (0, 0), BuildingBlock: KIFKEQ_clean_linker_1, # of connection points: 2
#     Edge 43, Type (0, 0), BuildingBlock: KIFKEQ_clean_linker_1, # of connection points: 2
#     Edge 44, Type (0, 0), BuildingBlock: KIFKEQ_clean_linker_1, # of connection points: 2
#     Edge 45, Type (0, 0), BuildingBlock: KIFKEQ_clean_linker_1, # of connection points: 2
#     Edge 46, Type (0, 0), BuildingBlock: KIFKEQ_clean_linker_1, # of connection points: 2
#     Edge 47, Type (0, 0), BuildingBlock: KIFKEQ_clean_linker_1, # of connection points: 2
# Relax obj value: 0.139
# Max RMSD: 0.122
# Mean RMSD: 0.120
data_MOF--net-gsi--node1-QUQFOY_clean_sbu_3--edge1-KIFKEQ_clean_linker_1
_symmetry_space_group_name_H-M    P1
_symmetry_Int_Tables_number       1
_symmetry_cell_setting            triclinic
loop_
_symmetry_equiv_pos_as_xyz
'x, y, z'
_cell_length_a     47.01189
_cell_length_b     38.040517
_cell_length_c     46.386547
_cell_angle_alpha  89.994771
_cell_angle_beta   90.011011
_cell_angle_gamma 89.947637
loop_
_atom_site_label
_atom_site_type_symbol
_atom_site_fract_x
_atom_site_fract_y
_atom_site_fract_z
_atom_type_partial_charge
C0 C 0.07252 0.19271 0.11845 0.0
O1 O 0.07255 0.2015 0.14481 0.0
Cd2 Cd 0.10912 0.19273 0.17929 0.0
O3 O 0.09338 0.17628 0.10725 0.0
Cd4 Cd 0.13912 0.15357 0.1272 0.0
C5 C 0.11121 0.10281 0.18008 0.0
O6 O 0.15296 0.20454 0.15575 0.0
O7 O 0.17573 0.15631 0.16421 0.0
O8 O 0.17042 0.17091 0.08864 0.0
C9 C 0.17351 0.18918 0.16816 0.0
O10 O 0.10635 0.13145 0.1934 0.0
C11 C 0.17626 0.14015 0.07998 0.0
O12 O 0.12143 0.103 0.15463 0.0
O13 O 0.16348 0.1148 0.09219 0.0
C14 C 0.89152 0.29233 0.11871 0.0
O15 O 0.88762 0.27828 0.1432 0.0
Cd16 Cd 0.85249 0.29483 0.17748 0.0
O17 O 0.87533 0.31669 0.10943 0.0
Cd18 Cd 0.83051 0.34501 0.12654 0.0
C19 C 0.86323 0.38456 0.1825 0.0
O20 O 0.80985 0.29417 0.15028 0.0
O21 O 0.78926 0.34365 0.15892 0.0
O22 O 0.81255 0.33397 0.07892 0.0
C23 C 0.78949 0.31056 0.16202 0.0
O24 O 0.86357 0.35425 0.19419 0.0
C25 C 0.80233 0.36437 0.0746 0.0
O26 O 0.85396 0.38869 0.15688 0.0
O27 O 0.80634 0.38715 0.09424 0.0
C28 C 0.08048 0.80399 0.36789 0.0
O29 O 0.08399 0.79049 0.34313 0.0
Cd30 Cd 0.12396 0.79651 0.31209 0.0
O31 O 0.09899 0.82424 0.37909 0.0
Cd32 Cd 0.14581 0.84741 0.3629 0.0
C33 C 0.12018 0.88537 0.30184 0.0
O34 O 0.16352 0.79174 0.34386 0.0
O35 O 0.18934 0.83723 0.33551 0.0
O36 O 0.15951 0.84743 0.41356 0.0
C37 C 0.1863 0.80427 0.33364 0.0
O38 O 0.11954 0.8548 0.29069 0.0
C39 C 0.17267 0.87654 0.4124 0.0
O40 O 0.1268 0.88961 0.32825 0.0
O41 O 0.17217 0.89288 0.38856 0.0
C42 C 0.90179 0.69698 0.36354 0.0
O43 O 0.89977 0.70773 0.33775 0.0
Cd44 Cd 0.86477 0.69038 0.30379 0.0
O45 O 0.88388 0.67548 0.37417 0.0
Cd46 Cd 0.83898 0.64764 0.35702 0.0
C47 C 0.87053 0.5999 0.30467 0.0
O48 O 0.82152 0.6972 0.32945 0.0
O49 O 0.79883 0.64854 0.32321 0.0
O50 O 0.81676 0.667 0.40055 0.0
C51 C 0.80051 0.6813 0.3185 0.0
O52 O 0.8731 0.62903 0.2914 0.0
C53 C 0.80766 0.63733 0.40879 0.0
O54 O 0.86018 0.59879 0.33006 0.0
O55 O 0.81433 0.61086 0.39346 0.0
C56 C 0.39194 0.7905 0.6181 0.0
O57 O 0.3859 0.77723 0.64246 0.0
Cd58 Cd 0.34799 0.79367 0.6734 0.0
O59 O 0.3772 0.81556 0.60757 0.0
Cd60 Cd 0.33291 0.84668 0.62268 0.0
C61 C 0.36047 0.88199 0.68316 0.0
O62 O 0.30939 0.79428 0.64063 0.0
O63 O 0.28859 0.84276 0.65109 0.0
O64 O 0.32095 0.84712 0.57161 0.0
C65 C 0.28816 0.8095 0.65166 0.0
O66 O 0.35717 0.85174 0.69446 0.0
C67 C 0.30906 0.87708 0.57204 0.0
O68 O 0.35589 0.88687 0.65639 0.0
O69 O 0.3096 0.89378 0.5957 0.0
C70 C 0.88993 0.77992 0.8749 0.0
O71 O 0.87195 0.75534 0.87203 0.0
Cd72 Cd 0.82422 0.76399 0.85834 0.0
O73 O 0.88346 0.81165 0.86865 0.0
Cd74 Cd 0.84195 0.84431 0.8478 0.0
C75 C 0.80453 0.82828 0.90769 0.0
O76 O 0.82745 0.79791 0.81565 0.0
O77 O 0.79614 0.83842 0.82218 0.0
O78 O 0.87303 0.87188 0.81253 0.0
C79 C 0.80385 0.81116 0.80853 0.0
O80 O 0.80434 0.79686 0.89828 0.0
C81 C 0.86449 0.90308 0.81677 0.0
O82 O 0.81725 0.85269 0.89402 0.0
O83 O 0.84662 0.90756 0.83701 0.0
C84 C 0.09458 0.7192 0.87497 0.0
O85 O 0.1126 0.74349 0.87082 0.0
Cd86 Cd 0.15936 0.7334 0.85461 0.0
O87 O 0.10061 0.68722 0.86913 0.0
Cd88 Cd 0.14115 0.65347 0.84751 0.0
C89 C 0.1813 0.67211 0.90524 0.0
O90 O 0.15217 0.69845 0.81281 0.0
O91 O 0.18439 0.65862 0.81712 0.0
O92 O 0.10702 0.62345 0.81674 0.0
C93 C 0.1748 0.68487 0.80334 0.0
O94 O 0.18131 0.70303 0.89479 0.0
C95 C 0.117 0.59282 0.82048 0.0
O96 O 0.16787 0.6473 0.89285 0.0
O97 O 0.13711 0.5898 0.83864 0.0
C98 C 0.89908 0.21258 0.6062 0.0
O99 O 0.88174 0.23808 0.60781 0.0
Cd100 Cd 0.83499 0.23479 0.62634 0.0
O101 O 0.89224 0.18208 0.61538 0.0
Cd102 Cd 0.84973 0.15396 0.63826 0.0
C103 C 0.80894 0.1711 0.58025 0.0
O104 O 0.83884 0.20274 0.67014 0.0
O105 O 0.80608 0.16343 0.66606 0.0
O106 O 0.87988 0.124 0.67317 0.0
C107 C 0.81538 0.19048 0.67891 0.0
O108 O 0.81022 0.20269 0.58915 0.0
C109 C 0.86963 0.09358 0.66911 0.0
O110 O 0.82208 0.14651 0.59335 0.0
O111 O 0.85133 0.09056 0.64909 0.0
C112 C 0.09902 0.28715 0.60347 0.0
O113 O 0.11903 0.26475 0.6024 0.0
Cd114 Cd 0.1644 0.27289 0.62453 0.0
O115 O 0.10272 0.31676 0.61583 0.0
Cd116 Cd 0.1419 0.34767 0.64101 0.0
C117 C 0.18913 0.34314 0.58645 0.0
O118 O 0.15399 0.29738 0.67054 0.0
O119 O 0.18432 0.3398 0.67148 0.0
O120 O 0.10874 0.37331 0.67566 0.0
C121 C 0.1756 0.31108 0.68216 0.0
O122 O 0.19282 0.31145 0.59437 0.0
C123 C 0.11738 0.40467 0.67273 0.0
O124 O 0.16967 0.36203 0.59762 0.0
O125 O 0.13618 0.41003 0.65357 0.0
C126 C 0.58481 0.20784 0.3831 0.0
O127 O 0.60153 0.23398 0.38229 0.0
Cd128 Cd 0.6489 0.23236 0.36523 0.0
O129 O 0.59289 0.17766 0.37426 0.0
Cd130 Cd 0.63751 0.15189 0.35357 0.0
C131 C 0.67588 0.17101 0.41266 0.0
O132 O 0.64742 0.2007 0.32093 0.0
O133 O 0.68148 0.16351 0.32691 0.0
O134 O 0.60731 0.11712 0.32138 0.0
C135 C 0.67154 0.18947 0.31309 0.0
O136 O 0.67433 0.20238 0.40328 0.0
C137 C 0.62188 0.08915 0.32351 0.0
O138 O 0.66329 0.14598 0.39963 0.0
O139 O 0.64243 0.08961 0.34128 0.0
C140 C 0.57762 0.70474 0.62034 0.0
O141 O 0.57974 0.71455 0.6464 0.0
Cd142 Cd 0.61319 0.6948 0.68088 0.0
O143 O 0.59491 0.6825 0.60956 0.0
Cd144 Cd 0.63945 0.65369 0.62728 0.0
C145 C 0.60763 0.60432 0.67838 0.0
O146 O 0.65646 0.7025 0.65579 0.0
O147 O 0.67837 0.65346 0.66282 0.0
O148 O 0.66646 0.67192 0.58609 0.0
C149 C 0.67696 0.68628 0.66737 0.0
O150 O 0.60452 0.63297 0.69224 0.0
C151 C 0.67317 0.64149 0.57734 0.0
O152 O 0.61844 0.60423 0.65318 0.0
O153 O 0.66282 0.61551 0.59099 0.0
C154 C 0.58857 0.2879 0.85282 0.0
O155 O 0.59634 0.27543 0.8287 0.0
Cd156 Cd 0.63447 0.29675 0.80043 0.0
O157 O 0.60211 0.31315 0.86461 0.0
Cd158 Cd 0.64705 0.34605 0.85458 0.0
C159 C 0.61887 0.38551 0.79617 0.0
O160 O 0.67224 0.29667 0.8343 0.0
O161 O 0.69251 0.34649 0.82751 0.0
O162 O 0.65716 0.337 0.90501 0.0
C163 C 0.69358 0.31335 0.8251 0.0
O164 O 0.62163 0.35585 0.78372 0.0
C165 C 0.66727 0.36735 0.90977 0.0
O166 O 0.62506 0.38912 0.82274 0.0
O167 O 0.66669 0.38905 0.88895 0.0
C168 C 0.39769 0.19977 0.85449 0.0
O169 O 0.38993 0.21128 0.83005 0.0
Cd170 Cd 0.3498 0.19203 0.80371 0.0
O171 O 0.3832 0.17649 0.86773 0.0
Cd172 Cd 0.33627 0.14731 0.85965 0.0
C173 C 0.35928 0.10173 0.80226 0.0
O174 O 0.31309 0.19739 0.83817 0.0
O175 O 0.29102 0.14857 0.83213 0.0
O176 O 0.32484 0.16344 0.90831 0.0
C177 C 0.29105 0.18174 0.82951 0.0
O178 O 0.3572 0.13097 0.78901 0.0
C179 C 0.31441 0.13414 0.91584 0.0
O180 O 0.35499 0.09989 0.82935 0.0
O181 O 0.31577 0.10928 0.89757 0.0
C182 C 0.38272 0.28011 0.38254 0.0
O183 O 0.36237 0.25828 0.38407 0.0
Cd184 Cd 0.31571 0.26994 0.36583 0.0
O185 O 0.37886 0.31045 0.3715 0.0
Cd186 Cd 0.33937 0.34417 0.34939 0.0
C187 C 0.2961 0.34063 0.40693 0.0
O188 O 0.32246 0.29616 0.31977 0.0
O189 O 0.294 0.34045 0.32309 0.0
O190 O 0.37133 0.36752 0.31275 0.0
C191 C 0.30034 0.31168 0.31088 0.0
O192 O 0.2911 0.30931 0.39874 0.0
C193 C 0.36462 0.39949 0.31645 0.0
O194 O 0.3153 0.35906 0.39484 0.0
O195 O 0.3474 0.40613 0.33684 0.0
C196 C 0.38444 0.7149 0.1168 0.0
O197 O 0.36609 0.73887 0.12083 0.0
Cd198 Cd 0.31962 0.72783 0.13797 0.0
O199 O 0.37878 0.68287 0.12275 0.0
Cd200 Cd 0.33858 0.6476 0.14301 0.0
C201 C 0.29834 0.66825 0.08573 0.0
O202 O 0.32641 0.69088 0.17883 0.0
O203 O 0.29488 0.65052 0.17249 0.0
O204 O 0.37329 0.61759 0.17298 0.0
C205 C 0.30382 0.6762 0.18736 0.0
O206 O 0.29777 0.69862 0.09722 0.0
C207 C 0.36382 0.58684 0.16872 0.0
O208 O 0.31229 0.64318 0.09722 0.0
O209 O 0.34364 0.58382 0.15064 0.0
C210 C 0.58652 0.78611 0.10993 0.0
O211 O 0.60363 0.76031 0.11063 0.0
Cd212 Cd 0.65129 0.76305 0.1267 0.0
O213 O 0.5943 0.81659 0.11832 0.0
Cd214 Cd 0.63847 0.84424 0.13796 0.0
C215 C 0.67634 0.8251 0.07862 0.0
O216 O 0.65006 0.79589 0.1703 0.0
O217 O 0.68324 0.83399 0.16349 0.0
O218 O 0.60828 0.87822 0.17072 0.0
C219 C 0.67427 0.80755 0.17734 0.0
O220 O 0.67547 0.79382 0.0883 0.0
C221 C 0.62206 0.90668 0.16803 0.0
O222 O 0.6634 0.85 0.0915 0.0
O223 O 0.64216 0.90679 0.14974 0.0
H224 H 0.21166 0.16055 0.20554 0.0
H225 H 0.17714 0.25993 0.17694 0.0
H226 H 0.24183 0.19115 0.2399 0.0
H227 H 0.20816 0.29079 0.21065 0.0
H228 H 0.24603 0.33021 0.2961 0.0
H229 H 0.21506 0.30096 0.26131 0.0
H230 H 0.2827 0.22791 0.24106 0.0
H231 H 0.31308 0.25624 0.27646 0.0
C232 C 0.21071 0.18898 0.20645 0.0
C233 C 0.19208 0.20788 0.18859 0.0
C234 C 0.22812 0.20656 0.22602 0.0
C235 C 0.22751 0.24344 0.22792 0.0
C236 C 0.20887 0.26234 0.20998 0.0
C237 C 0.19124 0.2447 0.19056 0.0
C238 C 0.2542 0.30792 0.28415 0.0
C239 C 0.28183 0.29528 0.28912 0.0
C240 C 0.23655 0.29129 0.26412 0.0
C241 C 0.24635 0.26195 0.24855 0.0
C242 C 0.27426 0.24994 0.25313 0.0
C243 C 0.29174 0.2663 0.27331 0.0
H244 H 0.7505 0.3405 0.19815 0.0
H245 H 0.78456 0.24017 0.17125 0.0
H246 H 0.72123 0.31097 0.23412 0.0
H247 H 0.75472 0.21056 0.20659 0.0
H248 H 0.7258 0.17525 0.2959 0.0
H249 H 0.75297 0.20459 0.25826 0.0
H250 H 0.68109 0.27205 0.24022 0.0
H251 H 0.65419 0.24333 0.27847 0.0
C252 C 0.75145 0.31211 0.19967 0.0
C253 C 0.76996 0.29265 0.18206 0.0
C254 C 0.73459 0.29517 0.22019 0.0
C255 C 0.73582 0.25844 0.22335 0.0
C256 C 0.75371 0.23895 0.20508 0.0
C257 C 0.77065 0.25589 0.1847 0.0
C258 C 0.71582 0.19636 0.28391 0.0
C259 C 0.68792 0.20707 0.29017 0.0
C260 C 0.7313 0.213 0.26219 0.0
C261 C 0.71915 0.24057 0.24617 0.0
C262 C 0.69118 0.25118 0.2524 0.0
C263 C 0.67573 0.23464 0.27422 0.0
H264 H 0.24823 0.66399 0.20181 0.0
H265 H 0.32323 0.72117 0.2281 0.0
H266 H 0.22098 0.69267 0.24002 0.0
H267 H 0.29647 0.74871 0.26682 0.0
H268 H 0.18399 0.73343 0.32401 0.0
H269 H 0.21379 0.69903 0.29137 0.0
H270 H 0.26078 0.79293 0.26937 0.0
H271 H 0.23177 0.82684 0.30253 0.0
C272 C 0.25895 0.68227 0.21603 0.0
C273 C 0.28768 0.6908 0.21177 0.0
C274 C 0.24343 0.69852 0.23802 0.0
C275 C 0.25651 0.72326 0.25627 0.0
C276 C 0.2856 0.73042 0.25272 0.0
C277 C 0.30096 0.71454 0.23061 0.0
C278 C 0.20093 0.74655 0.31242 0.0
C279 C 0.20553 0.78282 0.31574 0.0
C280 C 0.21785 0.72691 0.2936 0.0
C281 C 0.2396 0.74323 0.27772 0.0
C282 C 0.24452 0.77938 0.2816 0.0
C283 C 0.22776 0.79891 0.3005 0.0
H284 H 0.79672 0.75164 0.30917 0.0
H285 H 0.75974 0.65235 0.28386 0.0
H286 H 0.76524 0.78227 0.27599 0.0
H287 H 0.72877 0.68295 0.24988 0.0
H288 H 0.72975 0.82065 0.19044 0.0
H289 H 0.75959 0.78959 0.22497 0.0
H290 H 0.68873 0.72259 0.24742 0.0
H291 H 0.65913 0.75299 0.21218 0.0
C292 C 0.78191 0.73635 0.29642 0.0
C293 C 0.78074 0.69961 0.29898 0.0
C294 C 0.76399 0.75389 0.27728 0.0
C295 C 0.74467 0.73503 0.26013 0.0
C296 C 0.74322 0.69827 0.26301 0.0
C297 C 0.76104 0.68072 0.28235 0.0
C298 C 0.72056 0.79929 0.20276 0.0
C299 C 0.69216 0.78919 0.19861 0.0
C300 C 0.73759 0.78163 0.22267 0.0
C301 C 0.72649 0.75368 0.239 0.0
C302 C 0.69801 0.7437 0.2349 0.0
C303 C 0.68102 0.76123 0.21484 0.0
H304 H 0.28382 0.73852 0.65784 0.0
H305 H 0.24796 0.83659 0.68779 0.0
H306 H 0.25473 0.70649 0.69249 0.0
H307 H 0.21949 0.8047 0.72294 0.0
H308 H 0.15542 0.73624 0.76783 0.0
H309 H 0.18045 0.76451 0.72831 0.0
H310 H 0.25375 0.69866 0.74439 0.0
H311 H 0.22825 0.66954 0.78355 0.0
C312 C 0.26956 0.7532 0.6717 0.0
C313 C 0.26825 0.79006 0.67025 0.0
C314 C 0.25309 0.73487 0.69168 0.0
C315 C 0.23502 0.75307 0.71063 0.0
C316 C 0.23299 0.78986 0.70844 0.0
C317 C 0.24936 0.80817 0.68838 0.0
C318 C 0.17685 0.72768 0.76287 0.0
C319 C 0.19001 0.70087 0.77889 0.0
C320 C 0.19121 0.74399 0.74029 0.0
C321 C 0.21913 0.73401 0.73334 0.0
C322 C 0.23212 0.70667 0.74901 0.0
C323 C 0.21763 0.69015 0.77154 0.0
H324 H 0.68068 0.75654 0.67694 0.0
H325 H 0.71628 0.65687 0.70349 0.0
H326 H 0.71155 0.78693 0.7108 0.0
H327 H 0.74662 0.68724 0.73813 0.0
H328 H 0.81748 0.75594 0.7741 0.0
H329 H 0.78709 0.72585 0.73962 0.0
H330 H 0.71761 0.79529 0.76183 0.0
H331 H 0.7484 0.82618 0.79575 0.0
C332 C 0.69503 0.74111 0.69014 0.0
C333 C 0.6961 0.70434 0.68762 0.0
C334 C 0.71257 0.75852 0.70968 0.0
C335 C 0.73142 0.7395 0.72724 0.0
C336 C 0.73256 0.70267 0.72463 0.0
C337 C 0.71512 0.68525 0.70491 0.0
C338 C 0.79572 0.76482 0.77159 0.0
C339 C 0.78526 0.79339 0.78758 0.0
C340 C 0.77826 0.74741 0.75198 0.0
C341 C 0.74992 0.75808 0.74808 0.0
C342 C 0.73947 0.78673 0.76408 0.0
C343 C 0.75703 0.80432 0.78359 0.0
H344 H 0.73269 0.34349 0.78914 0.0
H345 H 0.7025 0.24313 0.82018 0.0
H346 H 0.76356 0.31339 0.75478 0.0
H347 H 0.73389 0.21306 0.78653 0.0
H348 H 0.76202 0.17455 0.69783 0.0
H349 H 0.73475 0.20451 0.7351 0.0
H350 H 0.80484 0.27591 0.74935 0.0
H351 H 0.83181 0.24654 0.71146 0.0
C352 C 0.73306 0.31502 0.78898 0.0
C353 C 0.715 0.29563 0.80707 0.0
C354 C 0.75078 0.29776 0.76937 0.0
C355 C 0.75088 0.26084 0.7677 0.0
C356 C 0.7338 0.24154 0.78683 0.0
C357 C 0.71599 0.25875 0.80624 0.0
C358 C 0.77159 0.19663 0.70893 0.0
C359 C 0.79897 0.20828 0.70169 0.0
C360 C 0.75607 0.21363 0.73044 0.0
C361 C 0.76771 0.24249 0.74527 0.0
C362 C 0.79518 0.25401 0.7381 0.0
C363 C 0.81065 0.2371 0.71649 0.0
H364 H 0.22753 0.32734 0.70484 0.0
H365 H 0.15786 0.25388 0.71231 0.0
H366 H 0.25307 0.29593 0.74262 0.0
H367 H 0.1829 0.22319 0.75075 0.0
H368 H 0.28245 0.2521 0.82691 0.0
H369 H 0.25232 0.28414 0.79329 0.0
H370 H 0.22345 0.18571 0.75703 0.0
H371 H 0.2529 0.15367 0.79147 0.0
C372 C 0.21759 0.30468 0.71476 0.0
C373 C 0.19083 0.29292 0.70556 0.0
C374 C 0.23209 0.28682 0.73654 0.0
C375 C 0.21997 0.25707 0.74974 0.0
C376 C 0.19299 0.24568 0.74075 0.0
C377 C 0.17861 0.26336 0.71882 0.0
C378 C 0.26935 0.23734 0.812 0.0
C379 C 0.27013 0.20045 0.81159 0.0
C380 C 0.25228 0.25568 0.7926 0.0
C381 C 0.23584 0.2375 0.77219 0.0
C382 C 0.2357 0.20051 0.77263 0.0
C383 C 0.25261 0.18213 0.79228 0.0
H384 H 0.12255 0.95462 0.3173 0.0
H385 H 0.10496 0.8865 0.24484 0.0
H386 H 0.11652 0.00571 0.28645 0.0
H387 H 0.09831 0.93784 0.21408 0.0
H388 H 0.12943 0.03716 0.16421 0.0
H389 H 0.12801 0.98364 0.19312 0.0
H390 H 0.08159 0.03889 0.25956 0.0
H391 H 0.08357 0.09249 0.23106 0.0
C392 C 0.11703 0.95052 0.29488 0.0
C393 C 0.11438 0.91644 0.28354 0.0
C394 C 0.11339 0.97986 0.2772 0.0
C395 C 0.10692 0.97584 0.24779 0.0
C396 C 0.10361 0.94179 0.23657 0.0
C397 C 0.10729 0.91239 0.25426 0.0
C398 C 0.11856 0.03774 0.18479 0.0
C399 C 0.10693 0.06919 0.19548 0.0
C400 C 0.11766 0.00703 0.20133 0.0
C401 C 0.10499 0.00715 0.2288 0.0
C402 C 0.09204 0.03814 0.23876 0.0
C403 C 0.09305 0.06882 0.22233 0.0
H404 H 0.86048 0.45391 0.16703 0.0
H405 H 0.88434 0.38554 0.23749 0.0
H406 H 0.86798 0.50485 0.19775 0.0
H407 H 0.8924 0.43666 0.26804 0.0
H408 H 0.89784 0.59291 0.25304 0.0
H409 H 0.90224 0.54007 0.22381 0.0
H410 H 0.86167 0.47965 0.29109 0.0
H411 H 0.85781 0.53237 0.32065 0.0
C412 C 0.86784 0.44974 0.1889 0.0
C413 C 0.8715 0.4156 0.19985 0.0
C414 C 0.87231 0.479 0.2065 0.0
C415 C 0.88062 0.47481 0.23544 0.0
C416 C 0.88557 0.44074 0.24599 0.0
C417 C 0.88108 0.41146 0.2284 0.0
C418 C 0.89025 0.56825 0.26182 0.0
C419 C 0.87714 0.56695 0.28906 0.0
C420 C 0.89266 0.538 0.24498 0.0
C421 C 0.88195 0.50575 0.25492 0.0
C422 C 0.87034 0.50403 0.28285 0.0
C423 C 0.86802 0.5343 0.29977 0.0
H424 H 0.29144 0.07477 0.94055 0.0
H425 H 0.30058 0.18684 0.95236 0.0
H426 H 0.26056 0.07221 0.983 0.0
H427 H 0.26884 0.18484 0.99303 0.0
H428 H 0.22542 0.17574 0.07591 0.0
H429 H 0.26264 0.16931 0.04013 0.0
H430 H 0.2143 0.08684 -0.00145 0.0
H431 H 0.17798 0.09167 0.03624 0.0
C432 C 0.28705 0.09874 0.95234 0.0
C433 C 0.29853 0.13096 0.94319 0.0
C434 C 0.26912 0.09738 0.97647 0.0
C435 C 0.26208 0.1283 0.99161 0.0
C436 C 0.27418 0.16026 0.98258 0.0
C437 C 0.29236 0.16149 0.95897 0.0
C438 C 0.22289 0.15609 0.05919 0.0
C439 C 0.19872 0.1346 0.05842 0.0
C440 C 0.24415 0.15248 0.03853 0.0
C441 C 0.2413 0.12814 0.01588 0.0
C442 C 0.21741 0.10573 0.01571 0.0
C443 C 0.19645 0.10865 0.03707 0.0
H444 H 0.77208 0.42425 0.0613 0.0
H445 H 0.79125 0.31953 0.03064 0.0
H446 H 0.73666 0.43087 0.02264 0.0
H447 H 0.75608 0.32616 0.99271 0.0
H448 H 0.70118 0.42395 0.92272 0.0
H449 H 0.73411 0.42861 0.96361 0.0
H450 H 0.70063 0.33201 -0.00144 0.0
H451 H 0.6679 0.32726 0.95815 0.0
C452 C 0.76907 0.40295 0.04612 0.0
C453 C 0.78422 0.37123 0.04918 0.0
C454 C 0.74883 0.40674 0.02412 0.0
C455 C 0.74335 0.37873 0.00522 0.0
C456 C 0.75954 0.34786 0.00744 0.0
C457 C 0.77979 0.34418 0.02908 0.0
C458 C 0.70035 0.40426 0.93956 0.0
C459 C 0.68231 0.37492 0.93701 0.0
C460 C 0.71918 0.40696 0.96288 0.0
C461 C 0.72018 0.38028 0.98377 0.0
C462 C 0.70055 0.35257 0.98239 0.0
C463 C 0.68177 0.34995 0.95929 0.0
H464 H 0.316 0.86022 0.51543 0.0
H465 H 0.26303 0.92039 0.57339 0.0
H466 H 0.28211 0.8709 0.47634 0.0
H467 H 0.22869 0.92996 0.53443 0.0
H468 H 0.16633 0.86119 0.46938 0.0
H469 H 0.20068 0.87234 0.50795 0.0
H470 H 0.25466 0.92773 0.44806 0.0
H471 H 0.21988 0.9177 0.40958 0.0
C472 C 0.29748 0.87641 0.51959 0.0
C473 C 0.29205 0.88941 0.54737 0.0
C474 C 0.27819 0.88259 0.49727 0.0
C475 C 0.25292 0.90115 0.50259 0.0
C476 C 0.24815 0.91569 0.52994 0.0
C477 C 0.26781 0.91029 0.5521 0.0
C478 C 0.18513 0.8766 0.46467 0.0
C479 C 0.19053 0.88851 0.43656 0.0
C480 C 0.20467 0.88308 0.4867 0.0
C481 C 0.23015 0.90086 0.48078 0.0
C482 C 0.23502 0.91412 0.45302 0.0
C483 C 0.21513 0.90843 0.43113 0.0
H484 H 0.67888 0.58635 0.53931 0.0
H485 H 0.71446 0.68697 0.56272 0.0
H486 H 0.71216 0.58266 0.49858 0.0
H487 H 0.74841 0.68253 0.52372 0.0
H488 H 0.77885 0.69065 0.43354 0.0
H489 H 0.74648 0.68856 0.47383 0.0
H490 H 0.76098 0.57675 0.48233 0.0
H491 H 0.79277 0.57869 0.44033 0.0
C492 C 0.694 0.60742 0.53588 0.0
C493 C 0.69374 0.6373 0.55365 0.0
C494 C 0.71316 0.60523 0.51276 0.0
C495 C 0.73261 0.63264 0.5075 0.0
C496 C 0.73312 0.66151 0.52641 0.0
C497 C 0.7137 0.66402 0.54889 0.0
C498 C 0.77533 0.66556 0.44401 0.0
C499 C 0.78864 0.63489 0.43401 0.0
C500 C 0.75681 0.66438 0.46731 0.0
C501 C 0.7515 0.6326 0.48179 0.0
C502 C 0.76454 0.60165 0.47162 0.0
C503 C 0.78287 0.60276 0.44775 0.0
H504 H 0.89626 0.22933 0.09252 0.0
H505 H 0.94078 0.32655 0.10766 0.0
H506 H 0.94044 0.20179 0.07643 0.0
H507 H 0.98534 0.29888 0.09315 0.0
H508 H 0.06513 0.24414 0.07835 0.0
H509 H 0.01903 0.26823 0.06322 0.0
H510 H 0.97658 0.18405 0.10883 0.0
H511 H 0.02228 0.1603 0.12314 0.0
C512 C 0.91545 0.24504 0.09145 0.0
C513 C 0.91545 0.27981 0.10136 0.0
C514 C 0.94075 0.2293 0.08244 0.0
C515 C 0.9666 0.24781 0.08418 0.0
C516 C 0.9659 0.28381 0.09133 0.0
C517 C 0.94042 0.29972 0.0998 0.0
C518 C 0.04583 0.23011 0.08384 0.0
C519 C 0.04692 0.20043 0.10171 0.0
C520 C 0.01949 0.244 0.07547 0.0
C521 C -0.00596 0.22838 0.08507 0.0
C522 C -0.00443 0.19665 0.10063 0.0
C523 C 0.02177 0.18298 0.109 0.0
H524 H 0.95196 0.66562 0.37597 0.0
H525 H 0.90374 0.76074 0.38866 0.0
H526 H -0.00479 0.69593 0.39092 0.0
H527 H 0.94674 0.79115 0.40462 0.0
H528 H 0.02948 0.8336 0.35856 0.0
H529 H 0.9837 0.80862 0.37157 0.0
H530 H 0.02618 0.72944 0.42287 0.0
H531 H 0.07225 0.7547 0.40925 0.0
C532 C 0.95051 0.69258 0.38337 0.0
C533 C 0.92486 0.71106 0.38119 0.0
C534 C 0.97521 0.71 0.39206 0.0
C535 C 0.97449 0.74618 0.39854 0.0
C536 C 0.94804 0.76346 0.39933 0.0
C537 C 0.92345 0.74609 0.39039 0.0
C538 C 0.02885 0.81183 0.37363 0.0
C539 C 0.05405 0.79604 0.38308 0.0
C540 C 0.00265 0.79749 0.38122 0.0
C541 C 0.00127 0.76678 0.39811 0.0
C542 C 0.02659 0.7529 0.40965 0.0
C543 C 0.05287 0.76744 0.40209 0.0
H544 H 0.55973 0.77196 0.6198 0.0
H545 H 0.54237 0.67001 0.5831 0.0
H546 H 0.51385 0.79319 0.60331 0.0
H547 H 0.49582 0.69122 0.56657 0.0
H548 H 0.41143 0.7237 0.61875 0.0
H549 H 0.45776 0.7032 0.60308 0.0
H550 H 0.47564 0.80559 0.56707 0.0
H551 H 0.42868 0.82618 0.58282 0.0
C552 C 0.54638 0.75449 0.60726 0.0
C553 C 0.55413 0.71924 0.60319 0.0
C554 C 0.5202 0.76674 0.5975 0.0
C555 C 0.50107 0.74372 0.58397 0.0
C556 C 0.51015 0.70943 0.57712 0.0
C557 C 0.5367 0.69729 0.58654 0.0
C558 C 0.42492 0.74155 0.60675 0.0
C559 C 0.4169 0.77673 0.60262 0.0
C560 C 0.45134 0.72966 0.59738 0.0
C561 C 0.47046 0.7529 0.58407 0.0
C562 C 0.46132 0.78721 0.57741 0.0
C563 C 0.43455 0.799 0.58646 0.0
H564 H 0.85612 0.02398 0.66307 0.0
H565 H 0.89688 0.09739 0.72089 0.0
H566 H 0.86041 0.97788 0.69959 0.0
H567 H 0.90074 0.05141 0.75744 0.0
H568 H 0.85443 0.97363 0.82279 0.0
H569 H 0.86125 0.01934 0.78634 0.0
H570 H 0.89804 0.9428 0.72865 0.0
H571 H 0.89165 0.89719 0.7651 0.0
C572 C 0.86643 0.0301 0.68335 0.0
C573 C 0.87608 0.06432 0.68911 0.0
C574 C 0.86893 0.00372 0.70421 0.0
C575 C 0.88074 0.01121 0.73138 0.0
C576 C 0.89136 0.04505 0.73675 0.0
C577 C 0.88929 0.07126 0.71573 0.0
C578 C 0.86449 0.96672 0.80257 0.0
C579 C 0.8724 0.9318 0.79681 0.0
C580 C 0.86845 0.99288 0.78174 0.0
C581 C 0.88 0.98449 0.75463 0.0
C582 C 0.8889 0.94988 0.74929 0.0
C583 C 0.88537 0.92386 0.77025 0.0
H584 H 0.13053 0.52311 0.82595 0.0
H585 H 0.08487 0.59624 0.77166 0.0
H586 H 0.1237 0.47702 0.78985 0.0
H587 H 0.07851 0.55029 0.7355 0.0
H588 H 0.0913 0.39659 0.7248 0.0
H589 H 0.08478 0.44127 0.76212 0.0
H590 H 0.11786 0.52027 0.70441 0.0
H591 H 0.12489 0.47558 0.66722 0.0
C592 C 0.11853 0.52913 0.80664 0.0
C593 C 0.1084 0.56334 0.8016 0.0
C594 C 0.11456 0.50275 0.78601 0.0
C595 C 0.10078 0.51026 0.75982 0.0
C596 C 0.08938 0.54393 0.75543 0.0
C597 C 0.09292 0.57014 0.77623 0.0
C598 C 0.09663 0.42363 0.71985 0.0
C599 C 0.10874 0.43259 0.69312 0.0
C600 C 0.09303 0.44909 0.74128 0.0
C601 C 0.10092 0.48411 0.73616 0.0
C602 C 0.11141 0.49348 0.70884 0.0
C603 C 0.11551 0.46791 0.68759 0.0
H604 H 0.6879 0.77823 0.03663 0.0
H605 H 0.70245 0.88637 0.06093 0.0
H606 H 0.72011 0.78477 -0.00372 0.0
H607 H 0.73567 0.89279 0.02021 0.0
H608 H 0.77211 0.88578 0.92249 0.0
H609 H 0.74011 0.89013 0.96441 0.0
H610 H 0.77232 0.79093 -0.00407 0.0
H611 H 0.80318 0.78619 0.95417 0.0
C612 C 0.69797 0.80352 0.03327 0.0
C613 C 0.69305 0.83161 0.05222 0.0
C614 C 0.71654 0.80722 0.0102 0.0
C615 C 0.73101 0.83899 0.0056 0.0
C616 C 0.72492 0.86793 0.02344 0.0
C617 C 0.70596 0.86427 0.04665 0.0
C618 C 0.77263 0.8654 0.93879 0.0
C619 C 0.78963 0.83535 0.93498 0.0
C620 C 0.75438 0.86787 0.96268 0.0
C621 C 0.75323 0.8404 0.98296 0.0
C622 C 0.77213 0.81198 0.9802 0.0
C623 C 0.7899 0.80934 0.95638 0.0
H624 H 0.18662 0.71848 0.94865 0.0
H625 H 0.20952 0.61276 0.92397 0.0
H626 H 0.21474 0.71304 0.99214 0.0
H627 H 0.23914 0.60765 0.96755 0.0
H628 H 0.27046 0.60961 0.06516 0.0
H629 H 0.24085 0.60639 0.02144 0.0
H630 H 0.26483 0.71294 0.00012 0.0
H631 H 0.29293 0.71648 0.04375 0.0
C632 C 0.19781 0.69402 0.95256 0.0
C633 C 0.19632 0.66627 0.93274 0.0
C634 C 0.21409 0.69094 0.97743 0.0
C635 C 0.22989 0.66029 0.9829 0.0
C636 C 0.22731 0.63166 0.96384 0.0
C637 C 0.21045 0.63458 0.93894 0.0
C638 C 0.26944 0.63209 0.05087 0.0
C639 C 0.28343 0.66353 0.05804 0.0
C640 C 0.25259 0.63026 0.02589 0.0
C641 C 0.24988 0.65975 0.00773 0.0
C642 C 0.26557 0.69018 0.01414 0.0
C643 C 0.28184 0.69216 0.03908 0.0
H644 H 0.70483 0.11105 0.42891 0.0
H645 H 0.68486 0.21688 0.45596 0.0
H646 H 0.73845 0.10562 0.46944 0.0
H647 H 0.71742 0.21125 0.49618 0.0
H648 H 0.80259 0.21471 0.5351 0.0
H649 H 0.77001 0.20917 0.49488 0.0
H650 H 0.74389 0.10698 0.52558 0.0
H651 H 0.77758 0.11225 0.5661 0.0
C652 C 0.70721 0.13279 0.44379 0.0
C653 C 0.69272 0.16464 0.43901 0.0
C654 C 0.72637 0.12968 0.46691 0.0
C655 C 0.73105 0.15835 0.48547 0.0
C656 C 0.71491 0.18908 0.48172 0.0
C657 C 0.69617 0.19228 0.45872 0.0
C658 C 0.79017 0.19083 0.53317 0.0
C659 C 0.7922 0.16418 0.55397 0.0
C660 C 0.77142 0.18771 0.51019 0.0
C661 C 0.75383 0.15808 0.50757 0.0
C662 C 0.7571 0.13019 0.52724 0.0
C663 C 0.77631 0.1332 0.55033 0.0
H664 H 0.24476 0.32941 0.57622 0.0
H665 H 0.17253 0.3862 0.54245 0.0
H666 H 0.27132 0.34176 0.53215 0.0
H667 H 0.19896 0.39769 0.49777 0.0
H668 H 0.24018 0.33111 0.41792 0.0
H669 H 0.2148 0.34482 0.46242 0.0
H670 H 0.29052 0.39323 0.4969 0.0
H671 H 0.31581 0.38043 0.4517 0.0
C672 C 0.23485 0.34525 0.55959 0.0
C673 C 0.20659 0.35666 0.56254 0.0
C674 C 0.2501 0.35253 0.53451 0.0
C675 C 0.23712 0.37064 0.51166 0.0
C676 C 0.2094 0.38382 0.51522 0.0
C677 C 0.19435 0.37728 0.5407 0.0
C678 C 0.25114 0.34556 0.4347 0.0
C679 C 0.27993 0.35455 0.43158 0.0
C680 C 0.23658 0.35364 0.46003 0.0
C681 C 0.25075 0.3701 0.48297 0.0
C682 C 0.27917 0.38069 0.47937 0.0
C683 C 0.29357 0.37341 0.45362 0.0
H684 H 0.06987 0.78353 0.87118 0.0
H685 H 0.05363 0.67688 0.89861 0.0
H686 H 0.02039 0.79819 0.87833 0.0
H687 H 0.00401 0.6921 0.90768 0.0
H688 H 0.9151 0.71587 0.87148 0.0
H689 H 0.96464 0.70166 0.87888 0.0
H690 H 0.98066 0.80855 0.90642 0.0
H691 H 0.93097 0.82326 0.89711 0.0
C692 C 0.05582 0.76341 0.87954 0.0
C693 C 0.06551 0.72888 0.88386 0.0
C694 C 0.02735 0.77193 0.88394 0.0
C695 C 0.00793 0.74628 0.89332 0.0
C696 C 0.01816 0.71232 0.89969 0.0
C697 C 0.04661 0.70358 0.89467 0.0
C698 C 0.92911 0.73629 0.87944 0.0
C699 C 0.91927 0.77084 0.88328 0.0
C700 C 0.9576 0.72802 0.88401 0.0
C701 C 0.97691 0.75397 0.89308 0.0
C702 C 0.96659 0.78807 0.89874 0.0
C703 C 0.93811 0.79653 0.89355 0.0
H704 H 0.0825 0.22467 0.57944 0.0
H705 H 0.05046 0.32652 0.60522 0.0
H706 H 0.03395 0.20452 0.57126 0.0
H707 H 0.00215 0.30617 0.59762 0.0
H708 H 0.91702 0.26869 0.57467 0.0
H709 H 0.96589 0.2859 0.56473 0.0
H710 H -0.00416 0.19028 0.60493 0.0
H711 H 0.94687 0.17262 0.61422 0.0
C712 C 0.06517 0.24297 0.58289 0.0
C713 C 0.07033 0.27706 0.59342 0.0
C714 C 0.03737 0.23132 0.57833 0.0
C715 C 0.01421 0.25357 0.58411 0.0
C716 C 0.0195 0.28842 0.5927 0.0
C717 C 0.04725 0.30006 0.59725 0.0
C718 C 0.93402 0.25102 0.58091 0.0
C719 C 0.92817 0.2196 0.59572 0.0
C720 C 0.962 0.26093 0.57526 0.0
C721 C 0.98473 0.23977 0.58448 0.0
C722 C 0.9788 0.2071 0.59737 0.0
C723 C 0.95074 0.19703 0.60285 0.0
H724 H 0.53816 0.1672 0.37146 0.0
H725 H 0.5643 0.26231 0.41492 0.0
H726 H 0.48844 0.18354 0.37842 0.0
H727 H 0.51472 0.27814 0.42255 0.0
H728 H 0.3998 0.21578 0.40279 0.0
H729 H 0.44847 0.19559 0.41059 0.0
H730 H 0.4797 0.29898 0.38858 0.0
H731 H 0.43129 0.31931 0.38137 0.0
C732 C 0.53329 0.19108 0.38319 0.0
C733 C 0.55509 0.2138 0.39214 0.0
C734 C 0.5048 0.2004 0.38729 0.0
C735 C 0.49767 0.23246 0.40062 0.0
C736 C 0.51954 0.2537 0.41161 0.0
C737 C 0.54794 0.24455 0.40731 0.0
C738 C 0.41704 0.23437 0.40011 0.0
C739 C 0.41168 0.2691 0.39116 0.0
C740 C 0.44492 0.22271 0.40445 0.0
C741 C 0.46795 0.24558 0.40004 0.0
C742 C 0.46245 0.28075 0.39253 0.0
C743 C 0.43465 0.29239 0.38818 0.0
H744 H 0.57929 0.59445 0.7292 0.0
H745 H 0.62243 0.53799 0.66116 0.0
H746 H 0.57573 0.54037 0.75705 0.0
H747 H 0.61964 0.48421 0.68935 0.0
H748 H 0.61797 0.45433 0.81318 0.0
H749 H 0.60946 0.5058 0.78339 0.0
H750 H 0.59115 0.43874 0.71051 0.0
H751 H 0.6005 0.38712 0.74016 0.0
C752 C 0.58774 0.57042 0.72002 0.0
C753 C 0.60145 0.57063 0.69308 0.0
C754 C 0.58585 0.53946 0.73609 0.0
C755 C 0.59777 0.50803 0.72566 0.0
C756 C 0.61 0.50784 0.69798 0.0
C757 C 0.61173 0.53877 0.68182 0.0
C758 C 0.61178 0.45049 0.79091 0.0
C759 C 0.61024 0.41658 0.779 0.0
C760 C 0.60669 0.48006 0.77382 0.0
C761 C 0.59975 0.47645 0.74446 0.0
C762 C 0.59692 0.44247 0.73291 0.0
C763 C 0.60215 0.41288 0.74996 0.0
H764 H 0.37627 0.03703 0.82214 0.0
H765 H 0.35494 0.09334 0.74419 0.0
H766 H 0.38277 0.9833 0.79411 0.0
H767 H 0.35988 0.03978 0.71654 0.0
H768 H 0.38371 0.94488 0.66727 0.0
H769 H 0.38939 0.99726 0.6969 0.0
H770 H 0.35576 0.94079 0.77031 0.0
H771 H 0.35174 0.88809 0.74104 0.0
C772 C 0.37299 0.03793 0.79903 0.0
C773 C 0.36503 0.06943 0.78542 0.0
C774 C 0.37654 0.00708 0.78295 0.0
C775 C 0.37177 0.00695 0.75295 0.0
C776 C 0.36437 0.03876 0.73941 0.0
C777 C 0.36128 0.06959 0.75537 0.0
C778 C 0.378 0.94359 0.68987 0.0
C779 C 0.36708 0.91247 0.70177 0.0
C780 C 0.38102 0.9737 0.70685 0.0
C781 C 0.37259 0.97363 0.736 0.0
C782 C 0.36282 0.94194 0.74812 0.0
C783 C 0.36034 0.91166 0.73126 0.0
H784 H 0.4178 0.26589 0.84914 0.0
H785 H 0.43681 0.16543 0.888 0.0
H786 H 0.46492 0.28705 0.86178 0.0
H787 H 0.48459 0.18662 0.90045 0.0
H788 H 0.56934 0.22106 0.84901 0.0
H789 H 0.52248 0.19955 0.86233 0.0
H790 H 0.50242 0.30038 0.90004 0.0
H791 H 0.54981 0.32196 0.88684 0.0
C792 C 0.43193 0.24862 0.86099 0.0
C793 C 0.424 0.21386 0.86714 0.0
C794 C 0.45879 0.26088 0.86856 0.0
C795 C 0.47841 0.23842 0.88201 0.0
C796 C 0.46978 0.20441 0.89007 0.0
C797 C 0.44256 0.1923 0.88293 0.0
C798 C 0.5552 0.23834 0.86084 0.0
C799 C 0.56286 0.27335 0.8664 0.0
C800 C 0.5285 0.22588 0.86879 0.0
C801 C 0.50879 0.24839 0.88205 0.0
C802 C 0.51728 0.28258 0.88976 0.0
C803 C 0.5443 0.2949 0.8822 0.0
H804 H 0.39795 0.5895 0.21617 0.0
H805 H 0.34969 0.51731 0.16345 0.0
H806 H 0.40506 0.54339 0.25202 0.0
H807 H 0.35719 0.4711 0.19928 0.0
H808 H 0.38862 0.38992 0.26351 0.0
H809 H 0.39534 0.43412 0.22589 0.0
H810 H 0.36696 0.51493 0.28456 0.0
H811 H 0.35983 0.47076 0.3221 0.0
C812 C 0.38947 0.56356 0.21186 0.0
C813 C 0.37301 0.55712 0.18708 0.0
C814 C 0.39346 0.53726 0.23248 0.0
C815 C 0.38147 0.50385 0.22852 0.0
C816 C 0.36679 0.49662 0.20279 0.0
C817 C 0.36244 0.52308 0.18232 0.0
C818 C 0.38438 0.41722 0.26859 0.0
C819 C 0.37352 0.42688 0.29572 0.0
C820 C 0.3881 0.44243 0.24699 0.0
C821 C 0.38154 0.47784 0.25229 0.0
C822 C 0.37238 0.48781 0.27996 0.0
C823 C 0.36821 0.46254 0.30142 0.0
H824 H 0.57632 0.07673 0.2881 0.0
H825 H 0.65844 0.03526 0.31264 0.0
H826 H 0.57335 0.03311 0.24927 0.0
H827 H 0.6556 0.99241 0.2736 0.0
H828 H 0.6575 0.962 0.17763 0.0
H829 H 0.65464 0.00495 0.2166 0.0
H830 H 0.57414 0.96146 0.24332 0.0
H831 H 0.57714 0.91775 0.20455 0.0
C832 C 0.59348 0.05798 0.28552 0.0
C833 C 0.61765 0.05947 0.30338 0.0
C834 C 0.59177 0.03314 0.2633 0.0
C835 C 0.61444 0.0099 0.2583 0.0
C836 C 0.63802 0.01042 0.27686 0.0
C837 C 0.63951 0.03474 0.29934 0.0
C838 C 0.63892 0.96192 0.19144 0.0
C839 C 0.6176 0.93638 0.1881 0.0
C840 C 0.63743 0.98631 0.21387 0.0
C841 C 0.61437 0.98608 0.23309 0.0
C842 C 0.59216 0.96202 0.22877 0.0
C843 C 0.59389 0.93713 0.2066 0.0
H844 H 0.53995 0.82671 0.1217 0.0
H845 H 0.56564 0.73008 0.08017 0.0
H846 H 0.49028 0.80986 0.11643 0.0
H847 H 0.51597 0.7137 0.07409 0.0
H848 H 0.43248 0.67441 0.11677 0.0
H849 H 0.48097 0.69376 0.10798 0.0
H850 H 0.45013 0.79743 0.08592 0.0
H851 H 0.40163 0.77832 0.0955 0.0
C852 C 0.53496 0.80234 0.11074 0.0
C853 C 0.55666 0.77944 0.10182 0.0
C854 C 0.50647 0.7927 0.10759 0.0
C855 C 0.49918 0.76015 0.09521 0.0
C856 C 0.52091 0.73855 0.08432 0.0
C857 C 0.54935 0.74803 0.0877 0.0
C858 C 0.43599 0.70115 0.10959 0.0
C859 C 0.41327 0.72495 0.10726 0.0
C860 C 0.4638 0.71224 0.10436 0.0
C861 C 0.46944 0.74727 0.09648 0.0
C862 C 0.44653 0.77047 0.09248 0.0
C863 C 0.41874 0.75945 0.09788 0.0
loop_
_geom_bond_atom_site_label_1
_geom_bond_atom_site_label_2
_geom_bond_distance
_geom_bond_site_symmetry_2
_ccdc_geom_bond_type
C0 O1 1.306 . S
C0 O3 1.160 . S
O1 C0 1.306 . S
O1 Cd2 2.228 . S
Cd2 O1 2.228 . S
Cd2 O6 2.273 . S
Cd2 O10 2.277 . S
O3 C0 1.160 . S
O3 Cd4 2.203 . S
Cd4 O3 2.203 . S
Cd4 O6 2.411 . S
Cd4 O7 2.333 . S
Cd4 O8 2.352 . S
Cd4 O12 2.277 . S
Cd4 O13 2.356 . S
C5 O10 1.209 . S
C5 O12 1.226 . S
O6 Cd2 2.273 . S
O6 Cd4 2.411 . S
O6 C9 1.320 . S
O7 Cd4 2.333 . S
O7 C9 1.214 . S
O8 Cd4 2.352 . S
O8 C11 1.258 . S
C9 O6 1.320 . S
C9 O7 1.214 . S
O10 Cd2 2.277 . S
O10 C5 1.209 . S
C11 O8 1.258 . S
C11 O13 1.282 . S
O12 Cd4 2.277 . S
O12 C5 1.226 . S
O13 Cd4 2.356 . S
O13 C11 1.282 . S
C14 O15 1.306 . S
C14 O17 1.160 . S
O15 C14 1.306 . S
O15 Cd16 2.228 . S
Cd16 O15 2.228 . S
Cd16 O20 2.273 . S
Cd16 O24 2.277 . S
O17 C14 1.160 . S
O17 Cd18 2.203 . S
Cd18 O17 2.203 . S
Cd18 O20 2.411 . S
Cd18 O21 2.333 . S
Cd18 O22 2.352 . S
Cd18 O26 2.277 . S
Cd18 O27 2.356 . S
C19 O24 1.209 . S
C19 O26 1.226 . S
O20 Cd16 2.273 . S
O20 Cd18 2.411 . S
O20 C23 1.320 . S
O21 Cd18 2.333 . S
O21 C23 1.214 . S
O22 Cd18 2.352 . S
O22 C25 1.258 . S
C23 O20 1.320 . S
C23 O21 1.214 . S
O24 Cd16 2.277 . S
O24 C19 1.209 . S
C25 O22 1.258 . S
C25 O27 1.282 . S
O26 Cd18 2.277 . S
O26 C19 1.226 . S
O27 Cd18 2.356 . S
O27 C25 1.282 . S
C28 O29 1.306 . S
C28 O31 1.160 . S
O29 C28 1.306 . S
O29 Cd30 2.228 . S
Cd30 O29 2.228 . S
Cd30 O34 2.273 . S
Cd30 O38 2.277 . S
O31 C28 1.160 . S
O31 Cd32 2.203 . S
Cd32 O31 2.203 . S
Cd32 O34 2.411 . S
Cd32 O35 2.333 . S
Cd32 O36 2.352 . S
Cd32 O40 2.277 . S
Cd32 O41 2.356 . S
C33 O38 1.209 . S
C33 O40 1.226 . S
O34 Cd30 2.273 . S
O34 Cd32 2.411 . S
O34 C37 1.320 . S
O35 Cd32 2.333 . S
O35 C37 1.214 . S
O36 Cd32 2.352 . S
O36 C39 1.258 . S
C37 O34 1.320 . S
C37 O35 1.214 . S
O38 Cd30 2.277 . S
O38 C33 1.209 . S
C39 O36 1.258 . S
C39 O41 1.282 . S
O40 Cd32 2.277 . S
O40 C33 1.226 . S
O41 Cd32 2.356 . S
O41 C39 1.282 . S
C42 O43 1.306 . S
C42 O45 1.160 . S
O43 C42 1.306 . S
O43 Cd44 2.228 . S
Cd44 O43 2.228 . S
Cd44 O48 2.273 . S
Cd44 O52 2.277 . S
O45 C42 1.160 . S
O45 Cd46 2.203 . S
Cd46 O45 2.203 . S
Cd46 O48 2.411 . S
Cd46 O49 2.333 . S
Cd46 O50 2.352 . S
Cd46 O54 2.277 . S
Cd46 O55 2.356 . S
C47 O52 1.209 . S
C47 O54 1.226 . S
O48 Cd44 2.273 . S
O48 Cd46 2.411 . S
O48 C51 1.320 . S
O49 Cd46 2.333 . S
O49 C51 1.214 . S
O50 Cd46 2.352 . S
O50 C53 1.258 . S
C51 O48 1.320 . S
C51 O49 1.214 . S
O52 Cd44 2.277 . S
O52 C47 1.209 . S
C53 O50 1.258 . S
C53 O55 1.282 . S
O54 Cd46 2.277 . S
O54 C47 1.226 . S
O55 Cd46 2.356 . S
O55 C53 1.282 . S
C56 O57 1.306 . S
C56 O59 1.160 . S
O57 C56 1.306 . S
O57 Cd58 2.228 . S
Cd58 O57 2.228 . S
Cd58 O62 2.273 . S
Cd58 O66 2.277 . S
O59 C56 1.160 . S
O59 Cd60 2.203 . S
Cd60 O59 2.203 . S
Cd60 O62 2.411 . S
Cd60 O63 2.333 . S
Cd60 O64 2.352 . S
Cd60 O68 2.277 . S
Cd60 O69 2.356 . S
C61 O66 1.209 . S
C61 O68 1.226 . S
O62 Cd58 2.273 . S
O62 Cd60 2.411 . S
O62 C65 1.320 . S
O63 Cd60 2.333 . S
O63 C65 1.214 . S
O64 Cd60 2.352 . S
O64 C67 1.258 . S
C65 O62 1.320 . S
C65 O63 1.214 . S
O66 Cd58 2.277 . S
O66 C61 1.209 . S
C67 O64 1.258 . S
C67 O69 1.282 . S
O68 Cd60 2.277 . S
O68 C61 1.226 . S
O69 Cd60 2.356 . S
O69 C67 1.282 . S
C70 O71 1.306 . S
C70 O73 1.160 . S
O71 C70 1.306 . S
O71 Cd72 2.228 . S
Cd72 O71 2.228 . S
Cd72 O76 2.273 . S
Cd72 O80 2.277 . S
O73 C70 1.160 . S
O73 Cd74 2.203 . S
Cd74 O73 2.203 . S
Cd74 O76 2.411 . S
Cd74 O77 2.333 . S
Cd74 O78 2.352 . S
Cd74 O82 2.277 . S
Cd74 O83 2.356 . S
C75 O80 1.209 . S
C75 O82 1.226 . S
O76 Cd72 2.273 . S
O76 Cd74 2.411 . S
O76 C79 1.320 . S
O77 Cd74 2.333 . S
O77 C79 1.214 . S
O78 Cd74 2.352 . S
O78 C81 1.258 . S
C79 O76 1.320 . S
C79 O77 1.214 . S
O80 Cd72 2.277 . S
O80 C75 1.209 . S
C81 O78 1.258 . S
C81 O83 1.282 . S
O82 Cd74 2.277 . S
O82 C75 1.226 . S
O83 Cd74 2.356 . S
O83 C81 1.282 . S
C84 O85 1.306 . S
C84 O87 1.160 . S
O85 C84 1.306 . S
O85 Cd86 2.228 . S
Cd86 O85 2.228 . S
Cd86 O90 2.273 . S
Cd86 O94 2.277 . S
O87 C84 1.160 . S
O87 Cd88 2.203 . S
Cd88 O87 2.203 . S
Cd88 O90 2.411 . S
Cd88 O91 2.333 . S
Cd88 O92 2.352 . S
Cd88 O96 2.277 . S
Cd88 O97 2.356 . S
C89 O94 1.209 . S
C89 O96 1.226 . S
O90 Cd86 2.273 . S
O90 Cd88 2.411 . S
O90 C93 1.320 . S
O91 Cd88 2.333 . S
O91 C93 1.214 . S
O92 Cd88 2.352 . S
O92 C95 1.258 . S
C93 O90 1.320 . S
C93 O91 1.214 . S
O94 Cd86 2.277 . S
O94 C89 1.209 . S
C95 O92 1.258 . S
C95 O97 1.282 . S
O96 Cd88 2.277 . S
O96 C89 1.226 . S
O97 Cd88 2.356 . S
O97 C95 1.282 . S
C98 O99 1.306 . S
C98 O101 1.160 . S
O99 C98 1.306 . S
O99 Cd100 2.228 . S
Cd100 O99 2.228 . S
Cd100 O104 2.273 . S
Cd100 O108 2.277 . S
O101 C98 1.160 . S
O101 Cd102 2.203 . S
Cd102 O101 2.203 . S
Cd102 O104 2.411 . S
Cd102 O105 2.333 . S
Cd102 O106 2.352 . S
Cd102 O110 2.277 . S
Cd102 O111 2.356 . S
C103 O108 1.209 . S
C103 O110 1.226 . S
O104 Cd100 2.273 . S
O104 Cd102 2.411 . S
O104 C107 1.320 . S
O105 Cd102 2.333 . S
O105 C107 1.214 . S
O106 Cd102 2.352 . S
O106 C109 1.258 . S
C107 O104 1.320 . S
C107 O105 1.214 . S
O108 Cd100 2.277 . S
O108 C103 1.209 . S
C109 O106 1.258 . S
C109 O111 1.282 . S
O110 Cd102 2.277 . S
O110 C103 1.226 . S
O111 Cd102 2.356 . S
O111 C109 1.282 . S
C112 O113 1.306 . S
C112 O115 1.160 . S
O113 C112 1.306 . S
O113 Cd114 2.228 . S
Cd114 O113 2.228 . S
Cd114 O118 2.273 . S
Cd114 O122 2.277 . S
O115 C112 1.160 . S
O115 Cd116 2.203 . S
Cd116 O115 2.203 . S
Cd116 O118 2.411 . S
Cd116 O119 2.333 . S
Cd116 O120 2.352 . S
Cd116 O124 2.277 . S
Cd116 O125 2.356 . S
C117 O122 1.209 . S
C117 O124 1.226 . S
O118 Cd114 2.273 . S
O118 Cd116 2.411 . S
O118 C121 1.320 . S
O119 Cd116 2.333 . S
O119 C121 1.214 . S
O120 Cd116 2.352 . S
O120 C123 1.258 . S
C121 O118 1.320 . S
C121 O119 1.214 . S
O122 Cd114 2.277 . S
O122 C117 1.209 . S
C123 O120 1.258 . S
C123 O125 1.282 . S
O124 Cd116 2.277 . S
O124 C117 1.226 . S
O125 Cd116 2.356 . S
O125 C123 1.282 . S
C126 O127 1.306 . S
C126 O129 1.160 . S
O127 C126 1.306 . S
O127 Cd128 2.228 . S
Cd128 O127 2.228 . S
Cd128 O132 2.273 . S
Cd128 O136 2.277 . S
O129 C126 1.160 . S
O129 Cd130 2.203 . S
Cd130 O129 2.203 . S
Cd130 O132 2.411 . S
Cd130 O133 2.333 . S
Cd130 O134 2.352 . S
Cd130 O138 2.277 . S
Cd130 O139 2.356 . S
C131 O136 1.209 . S
C131 O138 1.226 . S
O132 Cd128 2.273 . S
O132 Cd130 2.411 . S
O132 C135 1.320 . S
O133 Cd130 2.333 . S
O133 C135 1.214 . S
O134 Cd130 2.352 . S
O134 C137 1.258 . S
C135 O132 1.320 . S
C135 O133 1.214 . S
O136 Cd128 2.277 . S
O136 C131 1.209 . S
C137 O134 1.258 . S
C137 O139 1.282 . S
O138 Cd130 2.277 . S
O138 C131 1.226 . S
O139 Cd130 2.356 . S
O139 C137 1.282 . S
C140 O141 1.306 . S
C140 O143 1.160 . S
O141 C140 1.306 . S
O141 Cd142 2.228 . S
Cd142 O141 2.228 . S
Cd142 O146 2.273 . S
Cd142 O150 2.277 . S
O143 C140 1.160 . S
O143 Cd144 2.203 . S
Cd144 O143 2.203 . S
Cd144 O146 2.411 . S
Cd144 O147 2.333 . S
Cd144 O148 2.352 . S
Cd144 O152 2.277 . S
Cd144 O153 2.356 . S
C145 O150 1.209 . S
C145 O152 1.226 . S
O146 Cd142 2.273 . S
O146 Cd144 2.411 . S
O146 C149 1.320 . S
O147 Cd144 2.333 . S
O147 C149 1.214 . S
O148 Cd144 2.352 . S
O148 C151 1.258 . S
C149 O146 1.320 . S
C149 O147 1.214 . S
O150 Cd142 2.277 . S
O150 C145 1.209 . S
C151 O148 1.258 . S
C151 O153 1.282 . S
O152 Cd144 2.277 . S
O152 C145 1.226 . S
O153 Cd144 2.356 . S
O153 C151 1.282 . S
C154 O155 1.306 . S
C154 O157 1.160 . S
O155 C154 1.306 . S
O155 Cd156 2.228 . S
Cd156 O155 2.228 . S
Cd156 O160 2.273 . S
Cd156 O164 2.277 . S
O157 C154 1.160 . S
O157 Cd158 2.203 . S
Cd158 O157 2.203 . S
Cd158 O160 2.411 . S
Cd158 O161 2.333 . S
Cd158 O162 2.352 . S
Cd158 O166 2.277 . S
Cd158 O167 2.356 . S
C159 O164 1.209 . S
C159 O166 1.226 . S
O160 Cd156 2.273 . S
O160 Cd158 2.411 . S
O160 C163 1.320 . S
O161 Cd158 2.333 . S
O161 C163 1.214 . S
O162 Cd158 2.352 . S
O162 C165 1.258 . S
C163 O160 1.320 . S
C163 O161 1.214 . S
O164 Cd156 2.277 . S
O164 C159 1.209 . S
C165 O162 1.258 . S
C165 O167 1.282 . S
O166 Cd158 2.277 . S
O166 C159 1.226 . S
O167 Cd158 2.356 . S
O167 C165 1.282 . S
C168 O169 1.306 . S
C168 O171 1.160 . S
O169 C168 1.306 . S
O169 Cd170 2.228 . S
Cd170 O169 2.228 . S
Cd170 O174 2.273 . S
Cd170 O178 2.277 . S
O171 C168 1.160 . S
O171 Cd172 2.203 . S
Cd172 O171 2.203 . S
Cd172 O174 2.411 . S
Cd172 O175 2.333 . S
Cd172 O176 2.352 . S
Cd172 O180 2.277 . S
Cd172 O181 2.356 . S
C173 O178 1.209 . S
C173 O180 1.226 . S
O174 Cd170 2.273 . S
O174 Cd172 2.411 . S
O174 C177 1.320 . S
O175 Cd172 2.333 . S
O175 C177 1.214 . S
O176 Cd172 2.352 . S
O176 C179 1.258 . S
C177 O174 1.320 . S
C177 O175 1.214 . S
O178 Cd170 2.277 . S
O178 C173 1.209 . S
C179 O176 1.258 . S
C179 O181 1.282 . S
O180 Cd172 2.277 . S
O180 C173 1.226 . S
O181 Cd172 2.356 . S
O181 C179 1.282 . S
C182 O183 1.306 . S
C182 O185 1.160 . S
O183 C182 1.306 . S
O183 Cd184 2.228 . S
Cd184 O183 2.228 . S
Cd184 O188 2.273 . S
Cd184 O192 2.277 . S
O185 C182 1.160 . S
O185 Cd186 2.203 . S
Cd186 O185 2.203 . S
Cd186 O188 2.411 . S
Cd186 O189 2.333 . S
Cd186 O190 2.352 . S
Cd186 O194 2.277 . S
Cd186 O195 2.356 . S
C187 O192 1.209 . S
C187 O194 1.226 . S
O188 Cd184 2.273 . S
O188 Cd186 2.411 . S
O188 C191 1.320 . S
O189 Cd186 2.333 . S
O189 C191 1.214 . S
O190 Cd186 2.352 . S
O190 C193 1.258 . S
C191 O188 1.320 . S
C191 O189 1.214 . S
O192 Cd184 2.277 . S
O192 C187 1.209 . S
C193 O190 1.258 . S
C193 O195 1.282 . S
O194 Cd186 2.277 . S
O194 C187 1.226 . S
O195 Cd186 2.356 . S
O195 C193 1.282 . S
C196 O197 1.306 . S
C196 O199 1.160 . S
O197 C196 1.306 . S
O197 Cd198 2.228 . S
Cd198 O197 2.228 . S
Cd198 O202 2.273 . S
Cd198 O206 2.277 . S
O199 C196 1.160 . S
O199 Cd200 2.203 . S
Cd200 O199 2.203 . S
Cd200 O202 2.411 . S
Cd200 O203 2.333 . S
Cd200 O204 2.352 . S
Cd200 O208 2.277 . S
Cd200 O209 2.356 . S
C201 O206 1.209 . S
C201 O208 1.226 . S
O202 Cd198 2.273 . S
O202 Cd200 2.411 . S
O202 C205 1.320 . S
O203 Cd200 2.333 . S
O203 C205 1.214 . S
O204 Cd200 2.352 . S
O204 C207 1.258 . S
C205 O202 1.320 . S
C205 O203 1.214 . S
O206 Cd198 2.277 . S
O206 C201 1.209 . S
C207 O204 1.258 . S
C207 O209 1.282 . S
O208 Cd200 2.277 . S
O208 C201 1.226 . S
O209 Cd200 2.356 . S
O209 C207 1.282 . S
C210 O211 1.306 . S
C210 O213 1.160 . S
O211 C210 1.306 . S
O211 Cd212 2.228 . S
Cd212 O211 2.228 . S
Cd212 O216 2.273 . S
Cd212 O220 2.277 . S
O213 C210 1.160 . S
O213 Cd214 2.203 . S
Cd214 O213 2.203 . S
Cd214 O216 2.411 . S
Cd214 O217 2.333 . S
Cd214 O218 2.352 . S
Cd214 O222 2.277 . S
Cd214 O223 2.356 . S
C215 O220 1.209 . S
C215 O222 1.226 . S
O216 Cd212 2.273 . S
O216 Cd214 2.411 . S
O216 C219 1.320 . S
O217 Cd214 2.333 . S
O217 C219 1.214 . S
O218 Cd214 2.352 . S
O218 C221 1.258 . S
C219 O216 1.320 . S
C219 O217 1.214 . S
O220 Cd212 2.277 . S
O220 C215 1.209 . S
C221 O218 1.258 . S
C221 O223 1.282 . S
O222 Cd214 2.277 . S
O222 C215 1.226 . S
O223 Cd214 2.356 . S
O223 C221 1.282 . S
H224 C232 0.950 . S
H225 C237 0.950 . S
H226 C234 0.950 . S
H227 C236 0.950 . S
H228 C238 0.950 . S
H229 C240 0.950 . S
H230 C242 0.950 . S
H231 C243 0.950 . S
C232 H224 0.950 . S
C232 C233 1.386 . S
C232 C234 1.391 . S
C233 C232 1.386 . S
C233 C237 1.393 . S
C234 H226 0.950 . S
C234 C232 1.391 . S
C234 C235 1.400 . S
C235 C234 1.400 . S
C235 C236 1.398 . S
C235 C241 1.491 . S
C236 H227 0.950 . S
C236 C235 1.398 . S
C236 C237 1.391 . S
C237 H225 0.950 . S
C237 C233 1.393 . S
C237 C236 1.391 . S
C238 H228 0.950 . S
C238 C239 1.386 . S
C238 C240 1.391 . S
C239 C238 1.386 . S
C239 C243 1.393 . S
C240 H229 0.950 . S
C240 C238 1.391 . S
C240 C241 1.400 . S
C241 C235 1.491 . S
C241 C240 1.400 . S
C241 C242 1.398 . S
C242 H230 0.950 . S
C242 C241 1.398 . S
C242 C243 1.391 . S
C243 H231 0.950 . S
C243 C239 1.393 . S
C243 C242 1.391 . S
H244 C252 0.950 . S
H245 C257 0.950 . S
H246 C254 0.950 . S
H247 C256 0.950 . S
H248 C258 0.950 . S
H249 C260 0.950 . S
H250 C262 0.950 . S
H251 C263 0.950 . S
C252 H244 0.950 . S
C252 C253 1.386 . S
C252 C254 1.391 . S
C253 C252 1.386 . S
C253 C257 1.393 . S
C254 H246 0.950 . S
C254 C252 1.391 . S
C254 C255 1.400 . S
C255 C254 1.400 . S
C255 C256 1.398 . S
C255 C261 1.491 . S
C256 H247 0.950 . S
C256 C255 1.398 . S
C256 C257 1.391 . S
C257 H245 0.950 . S
C257 C253 1.393 . S
C257 C256 1.391 . S
C258 H248 0.950 . S
C258 C259 1.386 . S
C258 C260 1.391 . S
C259 C258 1.386 . S
C259 C263 1.393 . S
C260 H249 0.950 . S
C260 C258 1.391 . S
C260 C261 1.400 . S
C261 C255 1.491 . S
C261 C260 1.400 . S
C261 C262 1.398 . S
C262 H250 0.950 . S
C262 C261 1.398 . S
C262 C263 1.391 . S
C263 H251 0.950 . S
C263 C259 1.393 . S
C263 C262 1.391 . S
H264 C272 0.950 . S
H265 C277 0.950 . S
H266 C274 0.950 . S
H267 C276 0.950 . S
H268 C278 0.950 . S
H269 C280 0.950 . S
H270 C282 0.950 . S
H271 C283 0.950 . S
C272 H264 0.950 . S
C272 C273 1.386 . S
C272 C274 1.391 . S
C273 C272 1.386 . S
C273 C277 1.393 . S
C274 H266 0.950 . S
C274 C272 1.391 . S
C274 C275 1.400 . S
C275 C274 1.400 . S
C275 C276 1.398 . S
C275 C281 1.491 . S
C276 H267 0.950 . S
C276 C275 1.398 . S
C276 C277 1.391 . S
C277 H265 0.950 . S
C277 C273 1.393 . S
C277 C276 1.391 . S
C278 H268 0.950 . S
C278 C279 1.386 . S
C278 C280 1.391 . S
C279 C278 1.386 . S
C279 C283 1.393 . S
C280 H269 0.950 . S
C280 C278 1.391 . S
C280 C281 1.400 . S
C281 C275 1.491 . S
C281 C280 1.400 . S
C281 C282 1.398 . S
C282 H270 0.950 . S
C282 C281 1.398 . S
C282 C283 1.391 . S
C283 H271 0.950 . S
C283 C279 1.393 . S
C283 C282 1.391 . S
H284 C292 0.950 . S
H285 C297 0.950 . S
H286 C294 0.950 . S
H287 C296 0.950 . S
H288 C298 0.950 . S
H289 C300 0.950 . S
H290 C302 0.950 . S
H291 C303 0.950 . S
C292 H284 0.950 . S
C292 C293 1.386 . S
C292 C294 1.391 . S
C293 C292 1.386 . S
C293 C297 1.393 . S
C294 H286 0.950 . S
C294 C292 1.391 . S
C294 C295 1.400 . S
C295 C294 1.400 . S
C295 C296 1.398 . S
C295 C301 1.491 . S
C296 H287 0.950 . S
C296 C295 1.398 . S
C296 C297 1.391 . S
C297 H285 0.950 . S
C297 C293 1.393 . S
C297 C296 1.391 . S
C298 H288 0.950 . S
C298 C299 1.386 . S
C298 C300 1.391 . S
C299 C298 1.386 . S
C299 C303 1.393 . S
C300 H289 0.950 . S
C300 C298 1.391 . S
C300 C301 1.400 . S
C301 C295 1.491 . S
C301 C300 1.400 . S
C301 C302 1.398 . S
C302 H290 0.950 . S
C302 C301 1.398 . S
C302 C303 1.391 . S
C303 H291 0.950 . S
C303 C299 1.393 . S
C303 C302 1.391 . S
H304 C312 0.950 . S
H305 C317 0.950 . S
H306 C314 0.950 . S
H307 C316 0.950 . S
H308 C318 0.950 . S
H309 C320 0.950 . S
H310 C322 0.950 . S
H311 C323 0.950 . S
C312 H304 0.950 . S
C312 C313 1.386 . S
C312 C314 1.391 . S
C313 C312 1.386 . S
C313 C317 1.393 . S
C314 H306 0.950 . S
C314 C312 1.391 . S
C314 C315 1.400 . S
C315 C314 1.400 . S
C315 C316 1.398 . S
C315 C321 1.491 . S
C316 H307 0.950 . S
C316 C315 1.398 . S
C316 C317 1.391 . S
C317 H305 0.950 . S
C317 C313 1.393 . S
C317 C316 1.391 . S
C318 H308 0.950 . S
C318 C319 1.386 . S
C318 C320 1.391 . S
C319 C318 1.386 . S
C319 C323 1.393 . S
C320 H309 0.950 . S
C320 C318 1.391 . S
C320 C321 1.400 . S
C321 C315 1.491 . S
C321 C320 1.400 . S
C321 C322 1.398 . S
C322 H310 0.950 . S
C322 C321 1.398 . S
C322 C323 1.391 . S
C323 H311 0.950 . S
C323 C319 1.393 . S
C323 C322 1.391 . S
H324 C332 0.950 . S
H325 C337 0.950 . S
H326 C334 0.950 . S
H327 C336 0.950 . S
H328 C338 0.950 . S
H329 C340 0.950 . S
H330 C342 0.950 . S
H331 C343 0.950 . S
C332 H324 0.950 . S
C332 C333 1.386 . S
C332 C334 1.391 . S
C333 C332 1.386 . S
C333 C337 1.393 . S
C334 H326 0.950 . S
C334 C332 1.391 . S
C334 C335 1.400 . S
C335 C334 1.400 . S
C335 C336 1.398 . S
C335 C341 1.491 . S
C336 H327 0.950 . S
C336 C335 1.398 . S
C336 C337 1.391 . S
C337 H325 0.950 . S
C337 C333 1.393 . S
C337 C336 1.391 . S
C338 H328 0.950 . S
C338 C339 1.386 . S
C338 C340 1.391 . S
C339 C338 1.386 . S
C339 C343 1.393 . S
C340 H329 0.950 . S
C340 C338 1.391 . S
C340 C341 1.400 . S
C341 C335 1.491 . S
C341 C340 1.400 . S
C341 C342 1.398 . S
C342 H330 0.950 . S
C342 C341 1.398 . S
C342 C343 1.391 . S
C343 H331 0.950 . S
C343 C339 1.393 . S
C343 C342 1.391 . S
H344 C352 0.950 . S
H345 C357 0.950 . S
H346 C354 0.950 . S
H347 C356 0.950 . S
H348 C358 0.950 . S
H349 C360 0.950 . S
H350 C362 0.950 . S
H351 C363 0.950 . S
C352 H344 0.950 . S
C352 C353 1.386 . S
C352 C354 1.391 . S
C353 C352 1.386 . S
C353 C357 1.393 . S
C354 H346 0.950 . S
C354 C352 1.391 . S
C354 C355 1.400 . S
C355 C354 1.400 . S
C355 C356 1.398 . S
C355 C361 1.491 . S
C356 H347 0.950 . S
C356 C355 1.398 . S
C356 C357 1.391 . S
C357 H345 0.950 . S
C357 C353 1.393 . S
C357 C356 1.391 . S
C358 H348 0.950 . S
C358 C359 1.386 . S
C358 C360 1.391 . S
C359 C358 1.386 . S
C359 C363 1.393 . S
C360 H349 0.950 . S
C360 C358 1.391 . S
C360 C361 1.400 . S
C361 C355 1.491 . S
C361 C360 1.400 . S
C361 C362 1.398 . S
C362 H350 0.950 . S
C362 C361 1.398 . S
C362 C363 1.391 . S
C363 H351 0.950 . S
C363 C359 1.393 . S
C363 C362 1.391 . S
H364 C372 0.950 . S
H365 C377 0.950 . S
H366 C374 0.950 . S
H367 C376 0.950 . S
H368 C378 0.950 . S
H369 C380 0.950 . S
H370 C382 0.950 . S
H371 C383 0.950 . S
C372 H364 0.950 . S
C372 C373 1.386 . S
C372 C374 1.391 . S
C373 C372 1.386 . S
C373 C377 1.393 . S
C374 H366 0.950 . S
C374 C372 1.391 . S
C374 C375 1.400 . S
C375 C374 1.400 . S
C375 C376 1.398 . S
C375 C381 1.491 . S
C376 H367 0.950 . S
C376 C375 1.398 . S
C376 C377 1.391 . S
C377 H365 0.950 . S
C377 C373 1.393 . S
C377 C376 1.391 . S
C378 H368 0.950 . S
C378 C379 1.386 . S
C378 C380 1.391 . S
C379 C378 1.386 . S
C379 C383 1.393 . S
C380 H369 0.950 . S
C380 C378 1.391 . S
C380 C381 1.400 . S
C381 C375 1.491 . S
C381 C380 1.400 . S
C381 C382 1.398 . S
C382 H370 0.950 . S
C382 C381 1.398 . S
C382 C383 1.391 . S
C383 H371 0.950 . S
C383 C379 1.393 . S
C383 C382 1.391 . S
H384 C392 0.950 . S
H385 C397 0.950 . S
H386 C394 0.950 1_545 S
H387 C396 0.950 . S
H388 C398 0.950 . S
H389 C400 0.950 1_565 S
H390 C402 0.950 . S
H391 C403 0.950 . S
C392 H384 0.950 . S
C392 C393 1.386 . S
C392 C394 1.391 . S
C393 C392 1.386 . S
C393 C397 1.393 . S
C394 H386 0.950 1_565 S
C394 C392 1.391 . S
C394 C395 1.400 . S
C395 C394 1.400 . S
C395 C396 1.398 . S
C395 C401 1.491 1_565 S
C396 H387 0.950 . S
C396 C395 1.398 . S
C396 C397 1.391 . S
C397 H385 0.950 . S
C397 C393 1.393 . S
C397 C396 1.391 . S
C398 H388 0.950 . S
C398 C399 1.386 . S
C398 C400 1.391 . S
C399 C398 1.386 . S
C399 C403 1.393 . S
C400 H389 0.950 1_545 S
C400 C398 1.391 . S
C400 C401 1.400 . S
C401 C395 1.491 1_545 S
C401 C400 1.400 . S
C401 C402 1.398 . S
C402 H390 0.950 . S
C402 C401 1.398 . S
C402 C403 1.391 . S
C403 H391 0.950 . S
C403 C399 1.393 . S
C403 C402 1.391 . S
H404 C412 0.950 . S
H405 C417 0.950 . S
H406 C414 0.950 . S
H407 C416 0.950 . S
H408 C418 0.950 . S
H409 C420 0.950 . S
H410 C422 0.950 . S
H411 C423 0.950 . S
C412 H404 0.950 . S
C412 C413 1.386 . S
C412 C414 1.391 . S
C413 C412 1.386 . S
C413 C417 1.393 . S
C414 H406 0.950 . S
C414 C412 1.391 . S
C414 C415 1.400 . S
C415 C414 1.400 . S
C415 C416 1.398 . S
C415 C421 1.491 . S
C416 H407 0.950 . S
C416 C415 1.398 . S
C416 C417 1.391 . S
C417 H405 0.950 . S
C417 C413 1.393 . S
C417 C416 1.391 . S
C418 H408 0.950 . S
C418 C419 1.386 . S
C418 C420 1.391 . S
C419 C418 1.386 . S
C419 C423 1.393 . S
C420 H409 0.950 . S
C420 C418 1.391 . S
C420 C421 1.400 . S
C421 C415 1.491 . S
C421 C420 1.400 . S
C421 C422 1.398 . S
C422 H410 0.950 . S
C422 C421 1.398 . S
C422 C423 1.391 . S
C423 H411 0.950 . S
C423 C419 1.393 . S
C423 C422 1.391 . S
H424 C432 0.950 . S
H425 C437 0.950 . S
H426 C434 0.950 . S
H427 C436 0.950 1_554 S
H428 C438 0.950 . S
H429 C440 0.950 . S
H430 C442 0.950 1_556 S
H431 C443 0.950 . S
C432 H424 0.950 . S
C432 C433 1.386 . S
C432 C434 1.391 . S
C433 C432 1.386 . S
C433 C437 1.393 . S
C434 H426 0.950 . S
C434 C432 1.391 . S
C434 C435 1.400 . S
C435 C434 1.400 . S
C435 C436 1.398 . S
C435 C441 1.491 1_556 S
C436 H427 0.950 1_556 S
C436 C435 1.398 . S
C436 C437 1.391 . S
C437 H425 0.950 . S
C437 C433 1.393 . S
C437 C436 1.391 . S
C438 H428 0.950 . S
C438 C439 1.386 . S
C438 C440 1.391 . S
C439 C438 1.386 . S
C439 C443 1.393 . S
C440 H429 0.950 . S
C440 C438 1.391 . S
C440 C441 1.400 . S
C441 C435 1.491 1_554 S
C441 C440 1.400 . S
C441 C442 1.398 . S
C442 H430 0.950 1_554 S
C442 C441 1.398 . S
C442 C443 1.391 . S
C443 H431 0.950 . S
C443 C439 1.393 . S
C443 C442 1.391 . S
H444 C452 0.950 . S
H445 C457 0.950 . S
H446 C454 0.950 . S
H447 C456 0.950 1_556 S
H448 C458 0.950 . S
H449 C460 0.950 . S
H450 C462 0.950 1_554 S
H451 C463 0.950 . S
C452 H444 0.950 . S
C452 C453 1.386 . S
C452 C454 1.391 . S
C453 C452 1.386 . S
C453 C457 1.393 . S
C454 H446 0.950 . S
C454 C452 1.391 . S
C454 C455 1.400 . S
C455 C454 1.400 . S
C455 C456 1.398 . S
C455 C461 1.491 1_554 S
C456 H447 0.950 1_554 S
C456 C455 1.398 . S
C456 C457 1.391 . S
C457 H445 0.950 . S
C457 C453 1.393 . S
C457 C456 1.391 . S
C458 H448 0.950 . S
C458 C459 1.386 . S
C458 C460 1.391 . S
C459 C458 1.386 . S
C459 C463 1.393 . S
C460 H449 0.950 . S
C460 C458 1.391 . S
C460 C461 1.400 . S
C461 C455 1.491 1_556 S
C461 C460 1.400 . S
C461 C462 1.398 . S
C462 H450 0.950 1_556 S
C462 C461 1.398 . S
C462 C463 1.391 . S
C463 H451 0.950 . S
C463 C459 1.393 . S
C463 C462 1.391 . S
H464 C472 0.950 . S
H465 C477 0.950 . S
H466 C474 0.950 . S
H467 C476 0.950 . S
H468 C478 0.950 . S
H469 C480 0.950 . S
H470 C482 0.950 . S
H471 C483 0.950 . S
C472 H464 0.950 . S
C472 C473 1.386 . S
C472 C474 1.391 . S
C473 C472 1.386 . S
C473 C477 1.393 . S
C474 H466 0.950 . S
C474 C472 1.391 . S
C474 C475 1.400 . S
C475 C474 1.400 . S
C475 C476 1.398 . S
C475 C481 1.491 . S
C476 H467 0.950 . S
C476 C475 1.398 . S
C476 C477 1.391 . S
C477 H465 0.950 . S
C477 C473 1.393 . S
C477 C476 1.391 . S
C478 H468 0.950 . S
C478 C479 1.386 . S
C478 C480 1.391 . S
C479 C478 1.386 . S
C479 C483 1.393 . S
C480 H469 0.950 . S
C480 C478 1.391 . S
C480 C481 1.400 . S
C481 C475 1.491 . S
C481 C480 1.400 . S
C481 C482 1.398 . S
C482 H470 0.950 . S
C482 C481 1.398 . S
C482 C483 1.391 . S
C483 H471 0.950 . S
C483 C479 1.393 . S
C483 C482 1.391 . S
H484 C492 0.950 . S
H485 C497 0.950 . S
H486 C494 0.950 . S
H487 C496 0.950 . S
H488 C498 0.950 . S
H489 C500 0.950 . S
H490 C502 0.950 . S
H491 C503 0.950 . S
C492 H484 0.950 . S
C492 C493 1.386 . S
C492 C494 1.391 . S
C493 C492 1.386 . S
C493 C497 1.393 . S
C494 H486 0.950 . S
C494 C492 1.391 . S
C494 C495 1.400 . S
C495 C494 1.400 . S
C495 C496 1.398 . S
C495 C501 1.491 . S
C496 H487 0.950 . S
C496 C495 1.398 . S
C496 C497 1.391 . S
C497 H485 0.950 . S
C497 C493 1.393 . S
C497 C496 1.391 . S
C498 H488 0.950 . S
C498 C499 1.386 . S
C498 C500 1.391 . S
C499 C498 1.386 . S
C499 C503 1.393 . S
C500 H489 0.950 . S
C500 C498 1.391 . S
C500 C501 1.400 . S
C501 C495 1.491 . S
C501 C500 1.400 . S
C501 C502 1.398 . S
C502 H490 0.950 . S
C502 C501 1.398 . S
C502 C503 1.391 . S
C503 H491 0.950 . S
C503 C499 1.393 . S
C503 C502 1.391 . S
H504 C512 0.950 . S
H505 C517 0.950 . S
H506 C514 0.950 . S
H507 C516 0.950 1_455 S
H508 C518 0.950 . S
H509 C520 0.950 . S
H510 C522 0.950 1_655 S
H511 C523 0.950 . S
C512 H504 0.950 . S
C512 C513 1.386 . S
C512 C514 1.391 . S
C513 C512 1.386 . S
C513 C517 1.393 . S
C514 H506 0.950 . S
C514 C512 1.391 . S
C514 C515 1.400 . S
C515 C514 1.400 . S
C515 C516 1.398 . S
C515 C521 1.491 1_655 S
C516 H507 0.950 1_655 S
C516 C515 1.398 . S
C516 C517 1.391 . S
C517 H505 0.950 . S
C517 C513 1.393 . S
C517 C516 1.391 . S
C518 H508 0.950 . S
C518 C519 1.386 . S
C518 C520 1.391 . S
C519 C518 1.386 . S
C519 C523 1.393 . S
C520 H509 0.950 . S
C520 C518 1.391 . S
C520 C521 1.400 . S
C521 C515 1.491 1_455 S
C521 C520 1.400 . S
C521 C522 1.398 . S
C522 H510 0.950 1_455 S
C522 C521 1.398 . S
C522 C523 1.391 . S
C523 H511 0.950 . S
C523 C519 1.393 . S
C523 C522 1.391 . S
H524 C532 0.950 . S
H525 C537 0.950 . S
H526 C534 0.950 1_455 S
H527 C536 0.950 . S
H528 C538 0.950 . S
H529 C540 0.950 1_655 S
H530 C542 0.950 . S
H531 C543 0.950 . S
C532 H524 0.950 . S
C532 C533 1.386 . S
C532 C534 1.391 . S
C533 C532 1.386 . S
C533 C537 1.393 . S
C534 H526 0.950 1_655 S
C534 C532 1.391 . S
C534 C535 1.400 . S
C535 C534 1.400 . S
C535 C536 1.398 . S
C535 C541 1.491 1_655 S
C536 H527 0.950 . S
C536 C535 1.398 . S
C536 C537 1.391 . S
C537 H525 0.950 . S
C537 C533 1.393 . S
C537 C536 1.391 . S
C538 H528 0.950 . S
C538 C539 1.386 . S
C538 C540 1.391 . S
C539 C538 1.386 . S
C539 C543 1.393 . S
C540 H529 0.950 1_455 S
C540 C538 1.391 . S
C540 C541 1.400 . S
C541 C535 1.491 1_455 S
C541 C540 1.400 . S
C541 C542 1.398 . S
C542 H530 0.950 . S
C542 C541 1.398 . S
C542 C543 1.391 . S
C543 H531 0.950 . S
C543 C539 1.393 . S
C543 C542 1.391 . S
H544 C552 0.950 . S
H545 C557 0.950 . S
H546 C554 0.950 . S
H547 C556 0.950 . S
H548 C558 0.950 . S
H549 C560 0.950 . S
H550 C562 0.950 . S
H551 C563 0.950 . S
C552 H544 0.950 . S
C552 C553 1.386 . S
C552 C554 1.391 . S
C553 C552 1.386 . S
C553 C557 1.393 . S
C554 H546 0.950 . S
C554 C552 1.391 . S
C554 C555 1.400 . S
C555 C554 1.400 . S
C555 C556 1.398 . S
C555 C561 1.491 . S
C556 H547 0.950 . S
C556 C555 1.398 . S
C556 C557 1.391 . S
C557 H545 0.950 . S
C557 C553 1.393 . S
C557 C556 1.391 . S
C558 H548 0.950 . S
C558 C559 1.386 . S
C558 C560 1.391 . S
C559 C558 1.386 . S
C559 C563 1.393 . S
C560 H549 0.950 . S
C560 C558 1.391 . S
C560 C561 1.400 . S
C561 C555 1.491 . S
C561 C560 1.400 . S
C561 C562 1.398 . S
C562 H550 0.950 . S
C562 C561 1.398 . S
C562 C563 1.391 . S
C563 H551 0.950 . S
C563 C559 1.393 . S
C563 C562 1.391 . S
H564 C572 0.950 . S
H565 C577 0.950 . S
H566 C574 0.950 1_565 S
H567 C576 0.950 . S
H568 C578 0.950 . S
H569 C580 0.950 1_545 S
H570 C582 0.950 . S
H571 C583 0.950 . S
C572 H564 0.950 . S
C572 C573 1.386 . S
C572 C574 1.391 . S
C573 C572 1.386 . S
C573 C577 1.393 . S
C574 H566 0.950 1_545 S
C574 C572 1.391 . S
C574 C575 1.400 . S
C575 C574 1.400 . S
C575 C576 1.398 . S
C575 C581 1.491 1_545 S
C576 H567 0.950 . S
C576 C575 1.398 . S
C576 C577 1.391 . S
C577 H565 0.950 . S
C577 C573 1.393 . S
C577 C576 1.391 . S
C578 H568 0.950 . S
C578 C579 1.386 . S
C578 C580 1.391 . S
C579 C578 1.386 . S
C579 C583 1.393 . S
C580 H569 0.950 1_565 S
C580 C578 1.391 . S
C580 C581 1.400 . S
C581 C575 1.491 1_565 S
C581 C580 1.400 . S
C581 C582 1.398 . S
C582 H570 0.950 . S
C582 C581 1.398 . S
C582 C583 1.391 . S
C583 H571 0.950 . S
C583 C579 1.393 . S
C583 C582 1.391 . S
H584 C592 0.950 . S
H585 C597 0.950 . S
H586 C594 0.950 . S
H587 C596 0.950 . S
H588 C598 0.950 . S
H589 C600 0.950 . S
H590 C602 0.950 . S
H591 C603 0.950 . S
C592 H584 0.950 . S
C592 C593 1.386 . S
C592 C594 1.391 . S
C593 C592 1.386 . S
C593 C597 1.393 . S
C594 H586 0.950 . S
C594 C592 1.391 . S
C594 C595 1.400 . S
C595 C594 1.400 . S
C595 C596 1.398 . S
C595 C601 1.491 . S
C596 H587 0.950 . S
C596 C595 1.398 . S
C596 C597 1.391 . S
C597 H585 0.950 . S
C597 C593 1.393 . S
C597 C596 1.391 . S
C598 H588 0.950 . S
C598 C599 1.386 . S
C598 C600 1.391 . S
C599 C598 1.386 . S
C599 C603 1.393 . S
C600 H589 0.950 . S
C600 C598 1.391 . S
C600 C601 1.400 . S
C601 C595 1.491 . S
C601 C600 1.400 . S
C601 C602 1.398 . S
C602 H590 0.950 . S
C602 C601 1.398 . S
C602 C603 1.391 . S
C603 H591 0.950 . S
C603 C599 1.393 . S
C603 C602 1.391 . S
H604 C612 0.950 . S
H605 C617 0.950 . S
H606 C614 0.950 . S
H607 C616 0.950 . S
H608 C618 0.950 . S
H609 C620 0.950 . S
H610 C622 0.950 . S
H611 C623 0.950 . S
C612 H604 0.950 . S
C612 C613 1.386 . S
C612 C614 1.391 . S
C613 C612 1.386 . S
C613 C617 1.393 . S
C614 H606 0.950 . S
C614 C612 1.391 . S
C614 C615 1.400 . S
C615 C614 1.400 . S
C615 C616 1.398 . S
C615 C621 1.491 1_554 S
C616 H607 0.950 . S
C616 C615 1.398 . S
C616 C617 1.391 . S
C617 H605 0.950 . S
C617 C613 1.393 . S
C617 C616 1.391 . S
C618 H608 0.950 . S
C618 C619 1.386 . S
C618 C620 1.391 . S
C619 C618 1.386 . S
C619 C623 1.393 . S
C620 H609 0.950 . S
C620 C618 1.391 . S
C620 C621 1.400 . S
C621 C615 1.491 1_556 S
C621 C620 1.400 . S
C621 C622 1.398 . S
C622 H610 0.950 . S
C622 C621 1.398 . S
C622 C623 1.391 . S
C623 H611 0.950 . S
C623 C619 1.393 . S
C623 C622 1.391 . S
H624 C632 0.950 . S
H625 C637 0.950 . S
H626 C634 0.950 . S
H627 C636 0.950 . S
H628 C638 0.950 . S
H629 C640 0.950 . S
H630 C642 0.950 . S
H631 C643 0.950 . S
C632 H624 0.950 . S
C632 C633 1.386 . S
C632 C634 1.391 . S
C633 C632 1.386 . S
C633 C637 1.393 . S
C634 H626 0.950 . S
C634 C632 1.391 . S
C634 C635 1.400 . S
C635 C634 1.400 . S
C635 C636 1.398 . S
C635 C641 1.491 1_556 S
C636 H627 0.950 . S
C636 C635 1.398 . S
C636 C637 1.391 . S
C637 H625 0.950 . S
C637 C633 1.393 . S
C637 C636 1.391 . S
C638 H628 0.950 . S
C638 C639 1.386 . S
C638 C640 1.391 . S
C639 C638 1.386 . S
C639 C643 1.393 . S
C640 H629 0.950 . S
C640 C638 1.391 . S
C640 C641 1.400 . S
C641 C635 1.491 1_554 S
C641 C640 1.400 . S
C641 C642 1.398 . S
C642 H630 0.950 . S
C642 C641 1.398 . S
C642 C643 1.391 . S
C643 H631 0.950 . S
C643 C639 1.393 . S
C643 C642 1.391 . S
H644 C652 0.950 . S
H645 C657 0.950 . S
H646 C654 0.950 . S
H647 C656 0.950 . S
H648 C658 0.950 . S
H649 C660 0.950 . S
H650 C662 0.950 . S
H651 C663 0.950 . S
C652 H644 0.950 . S
C652 C653 1.386 . S
C652 C654 1.391 . S
C653 C652 1.386 . S
C653 C657 1.393 . S
C654 H646 0.950 . S
C654 C652 1.391 . S
C654 C655 1.400 . S
C655 C654 1.400 . S
C655 C656 1.398 . S
C655 C661 1.491 . S
C656 H647 0.950 . S
C656 C655 1.398 . S
C656 C657 1.391 . S
C657 H645 0.950 . S
C657 C653 1.393 . S
C657 C656 1.391 . S
C658 H648 0.950 . S
C658 C659 1.386 . S
C658 C660 1.391 . S
C659 C658 1.386 . S
C659 C663 1.393 . S
C660 H649 0.950 . S
C660 C658 1.391 . S
C660 C661 1.400 . S
C661 C655 1.491 . S
C661 C660 1.400 . S
C661 C662 1.398 . S
C662 H650 0.950 . S
C662 C661 1.398 . S
C662 C663 1.391 . S
C663 H651 0.950 . S
C663 C659 1.393 . S
C663 C662 1.391 . S
H664 C672 0.950 . S
H665 C677 0.950 . S
H666 C674 0.950 . S
H667 C676 0.950 . S
H668 C678 0.950 . S
H669 C680 0.950 . S
H670 C682 0.950 . S
H671 C683 0.950 . S
C672 H664 0.950 . S
C672 C673 1.386 . S
C672 C674 1.391 . S
C673 C672 1.386 . S
C673 C677 1.393 . S
C674 H666 0.950 . S
C674 C672 1.391 . S
C674 C675 1.400 . S
C675 C674 1.400 . S
C675 C676 1.398 . S
C675 C681 1.491 . S
C676 H667 0.950 . S
C676 C675 1.398 . S
C676 C677 1.391 . S
C677 H665 0.950 . S
C677 C673 1.393 . S
C677 C676 1.391 . S
C678 H668 0.950 . S
C678 C679 1.386 . S
C678 C680 1.391 . S
C679 C678 1.386 . S
C679 C683 1.393 . S
C680 H669 0.950 . S
C680 C678 1.391 . S
C680 C681 1.400 . S
C681 C675 1.491 . S
C681 C680 1.400 . S
C681 C682 1.398 . S
C682 H670 0.950 . S
C682 C681 1.398 . S
C682 C683 1.391 . S
C683 H671 0.950 . S
C683 C679 1.393 . S
C683 C682 1.391 . S
H684 C692 0.950 . S
H685 C697 0.950 . S
H686 C694 0.950 . S
H687 C696 0.950 . S
H688 C698 0.950 . S
H689 C700 0.950 . S
H690 C702 0.950 . S
H691 C703 0.950 . S
C692 H684 0.950 . S
C692 C693 1.386 . S
C692 C694 1.391 . S
C693 C692 1.386 . S
C693 C697 1.393 . S
C694 H686 0.950 . S
C694 C692 1.391 . S
C694 C695 1.400 . S
C695 C694 1.400 . S
C695 C696 1.398 . S
C695 C701 1.491 1_455 S
C696 H687 0.950 . S
C696 C695 1.398 . S
C696 C697 1.391 . S
C697 H685 0.950 . S
C697 C693 1.393 . S
C697 C696 1.391 . S
C698 H688 0.950 . S
C698 C699 1.386 . S
C698 C700 1.391 . S
C699 C698 1.386 . S
C699 C703 1.393 . S
C700 H689 0.950 . S
C700 C698 1.391 . S
C700 C701 1.400 . S
C701 C695 1.491 1_655 S
C701 C700 1.400 . S
C701 C702 1.398 . S
C702 H690 0.950 . S
C702 C701 1.398 . S
C702 C703 1.391 . S
C703 H691 0.950 . S
C703 C699 1.393 . S
C703 C702 1.391 . S
H704 C712 0.950 . S
H705 C717 0.950 . S
H706 C714 0.950 . S
H707 C716 0.983 . S
H708 C718 0.950 . S
H709 C720 0.950 . S
H710 C722 0.983 . S
H711 C723 0.950 . S
C712 H704 0.950 . S
C712 C713 1.386 . S
C712 C714 1.391 . S
C713 C712 1.386 . S
C713 C717 1.393 . S
C714 H706 0.950 . S
C714 C712 1.391 . S
C714 C715 1.400 . S
C715 C714 1.400 . S
C715 C716 1.398 . S
C715 C721 1.491 1_455 S
C716 H707 0.983 . S
C716 C715 1.398 . S
C716 C717 1.391 . S
C717 H705 0.950 . S
C717 C713 1.393 . S
C717 C716 1.391 . S
C718 H708 0.950 . S
C718 C719 1.386 . S
C718 C720 1.391 . S
C719 C718 1.386 . S
C719 C723 1.393 . S
C720 H709 0.950 . S
C720 C718 1.391 . S
C720 C721 1.400 . S
C721 C715 1.491 1_655 S
C721 C720 1.400 . S
C721 C722 1.398 . S
C722 H710 0.983 . S
C722 C721 1.398 . S
C722 C723 1.391 . S
C723 H711 0.950 . S
C723 C719 1.393 . S
C723 C722 1.391 . S
H724 C732 0.950 . S
H725 C737 0.950 . S
H726 C734 0.950 . S
H727 C736 0.950 . S
H728 C738 0.950 . S
H729 C740 0.950 . S
H730 C742 0.950 . S
H731 C743 0.950 . S
C732 H724 0.950 . S
C732 C733 1.386 . S
C732 C734 1.391 . S
C733 C732 1.386 . S
C733 C737 1.393 . S
C734 H726 0.950 . S
C734 C732 1.391 . S
C734 C735 1.400 . S
C735 C734 1.400 . S
C735 C736 1.398 . S
C735 C741 1.491 . S
C736 H727 0.950 . S
C736 C735 1.398 . S
C736 C737 1.391 . S
C737 H725 0.950 . S
C737 C733 1.393 . S
C737 C736 1.391 . S
C738 H728 0.950 . S
C738 C739 1.386 . S
C738 C740 1.391 . S
C739 C738 1.386 . S
C739 C743 1.393 . S
C740 H729 0.950 . S
C740 C738 1.391 . S
C740 C741 1.400 . S
C741 C735 1.491 . S
C741 C740 1.400 . S
C741 C742 1.398 . S
C742 H730 0.950 . S
C742 C741 1.398 . S
C742 C743 1.391 . S
C743 H731 0.950 . S
C743 C739 1.393 . S
C743 C742 1.391 . S
H744 C752 0.950 . S
H745 C757 0.950 . S
H746 C754 0.950 . S
H747 C756 0.950 . S
H748 C758 0.950 . S
H749 C760 0.950 . S
H750 C762 0.950 . S
H751 C763 0.950 . S
C752 H744 0.950 . S
C752 C753 1.386 . S
C752 C754 1.391 . S
C753 C752 1.386 . S
C753 C757 1.393 . S
C754 H746 0.950 . S
C754 C752 1.391 . S
C754 C755 1.400 . S
C755 C754 1.400 . S
C755 C756 1.398 . S
C755 C761 1.491 . S
C756 H747 0.950 . S
C756 C755 1.398 . S
C756 C757 1.391 . S
C757 H745 0.950 . S
C757 C753 1.393 . S
C757 C756 1.391 . S
C758 H748 0.950 . S
C758 C759 1.386 . S
C758 C760 1.391 . S
C759 C758 1.386 . S
C759 C763 1.393 . S
C760 H749 0.950 . S
C760 C758 1.391 . S
C760 C761 1.400 . S
C761 C755 1.491 . S
C761 C760 1.400 . S
C761 C762 1.398 . S
C762 H750 0.950 . S
C762 C761 1.398 . S
C762 C763 1.391 . S
C763 H751 0.950 . S
C763 C759 1.393 . S
C763 C762 1.391 . S
H764 C772 0.950 . S
H765 C777 0.950 . S
H766 C774 0.950 . S
H767 C776 0.950 . S
H768 C778 0.950 . S
H769 C780 0.950 . S
H770 C782 0.950 . S
H771 C783 0.950 . S
C772 H764 0.950 . S
C772 C773 1.386 . S
C772 C774 1.391 . S
C773 C772 1.386 . S
C773 C777 1.393 . S
C774 H766 0.950 . S
C774 C772 1.391 . S
C774 C775 1.400 . S
C775 C774 1.400 . S
C775 C776 1.398 . S
C775 C781 1.491 1_545 S
C776 H767 0.950 . S
C776 C775 1.398 . S
C776 C777 1.391 . S
C777 H765 0.950 . S
C777 C773 1.393 . S
C777 C776 1.391 . S
C778 H768 0.950 . S
C778 C779 1.386 . S
C778 C780 1.391 . S
C779 C778 1.386 . S
C779 C783 1.393 . S
C780 H769 0.950 . S
C780 C778 1.391 . S
C780 C781 1.400 . S
C781 C775 1.491 1_565 S
C781 C780 1.400 . S
C781 C782 1.398 . S
C782 H770 0.950 . S
C782 C781 1.398 . S
C782 C783 1.391 . S
C783 H771 0.950 . S
C783 C779 1.393 . S
C783 C782 1.391 . S
H784 C792 0.950 . S
H785 C797 0.950 . S
H786 C794 0.950 . S
H787 C796 0.950 . S
H788 C798 0.950 . S
H789 C800 0.950 . S
H790 C802 0.950 . S
H791 C803 0.950 . S
C792 H784 0.950 . S
C792 C793 1.386 . S
C792 C794 1.391 . S
C793 C792 1.386 . S
C793 C797 1.393 . S
C794 H786 0.950 . S
C794 C792 1.391 . S
C794 C795 1.400 . S
C795 C794 1.400 . S
C795 C796 1.398 . S
C795 C801 1.491 . S
C796 H787 0.950 . S
C796 C795 1.398 . S
C796 C797 1.391 . S
C797 H785 0.950 . S
C797 C793 1.393 . S
C797 C796 1.391 . S
C798 H788 0.950 . S
C798 C799 1.386 . S
C798 C800 1.391 . S
C799 C798 1.386 . S
C799 C803 1.393 . S
C800 H789 0.950 . S
C800 C798 1.391 . S
C800 C801 1.400 . S
C801 C795 1.491 . S
C801 C800 1.400 . S
C801 C802 1.398 . S
C802 H790 0.950 . S
C802 C801 1.398 . S
C802 C803 1.391 . S
C803 H791 0.950 . S
C803 C799 1.393 . S
C803 C802 1.391 . S
H804 C812 0.950 . S
H805 C817 0.950 . S
H806 C814 0.950 . S
H807 C816 0.950 . S
H808 C818 0.950 . S
H809 C820 0.950 . S
H810 C822 0.950 . S
H811 C823 0.950 . S
C812 H804 0.950 . S
C812 C813 1.386 . S
C812 C814 1.391 . S
C813 C812 1.386 . S
C813 C817 1.393 . S
C814 H806 0.950 . S
C814 C812 1.391 . S
C814 C815 1.400 . S
C815 C814 1.400 . S
C815 C816 1.398 . S
C815 C821 1.491 . S
C816 H807 0.950 . S
C816 C815 1.398 . S
C816 C817 1.391 . S
C817 H805 0.950 . S
C817 C813 1.393 . S
C817 C816 1.391 . S
C818 H808 0.950 . S
C818 C819 1.386 . S
C818 C820 1.391 . S
C819 C818 1.386 . S
C819 C823 1.393 . S
C820 H809 0.950 . S
C820 C818 1.391 . S
C820 C821 1.400 . S
C821 C815 1.491 . S
C821 C820 1.400 . S
C821 C822 1.398 . S
C822 H810 0.950 . S
C822 C821 1.398 . S
C822 C823 1.391 . S
C823 H811 0.950 . S
C823 C819 1.393 . S
C823 C822 1.391 . S
H824 C832 0.950 . S
H825 C837 0.950 . S
H826 C834 0.950 . S
H827 C836 0.950 . S
H828 C838 0.950 . S
H829 C840 0.950 . S
H830 C842 0.950 . S
H831 C843 0.950 . S
C832 H824 0.950 . S
C832 C833 1.386 . S
C832 C834 1.391 . S
C833 C832 1.386 . S
C833 C837 1.393 . S
C834 H826 0.950 . S
C834 C832 1.391 . S
C834 C835 1.400 . S
C835 C834 1.400 . S
C835 C836 1.398 . S
C835 C841 1.491 1_545 S
C836 H827 0.950 . S
C836 C835 1.398 . S
C836 C837 1.391 . S
C837 H825 0.950 . S
C837 C833 1.393 . S
C837 C836 1.391 . S
C838 H828 0.950 . S
C838 C839 1.386 . S
C838 C840 1.391 . S
C839 C838 1.386 . S
C839 C843 1.393 . S
C840 H829 0.950 . S
C840 C838 1.391 . S
C840 C841 1.400 . S
C841 C835 1.491 1_565 S
C841 C840 1.400 . S
C841 C842 1.398 . S
C842 H830 0.950 . S
C842 C841 1.398 . S
C842 C843 1.391 . S
C843 H831 0.950 . S
C843 C839 1.393 . S
C843 C842 1.391 . S
H844 C852 0.950 . S
H845 C857 0.950 . S
H846 C854 0.950 . S
H847 C856 0.950 . S
H848 C858 0.950 . S
H849 C860 0.950 . S
H850 C862 0.950 . S
H851 C863 0.950 . S
C852 H844 0.950 . S
C852 C853 1.386 . S
C852 C854 1.391 . S
C853 C852 1.386 . S
C853 C857 1.393 . S
C854 H846 0.950 . S
C854 C852 1.391 . S
C854 C855 1.400 . S
C855 C854 1.400 . S
C855 C856 1.398 . S
C855 C861 1.491 . S
C856 H847 0.950 . S
C856 C855 1.398 . S
C856 C857 1.391 . S
C857 H845 0.950 . S
C857 C853 1.393 . S
C857 C856 1.391 . S
C858 H848 0.950 . S
C858 C859 1.386 . S
C858 C860 1.391 . S
C859 C858 1.386 . S
C859 C863 1.393 . S
C860 H849 0.950 . S
C860 C858 1.391 . S
C860 C861 1.400 . S
C861 C855 1.491 . S
C861 C860 1.400 . S
C861 C862 1.398 . S
C862 H850 0.950 . S
C862 C861 1.398 . S
C862 C863 1.391 . S
C863 H851 0.950 . S
C863 C859 1.393 . S
C863 C862 1.391 . S
C233 C9 1.067 . S
C239 C191 1.065 . S
C253 C23 1.065 . S
C259 C135 1.062 . S
C273 C205 1.049 . S
C279 C37 1.061 . S
C293 C51 1.067 . S
C299 C219 1.059 . S
C313 C65 1.061 . S
C319 C93 1.044 . S
C333 C149 1.062 . S
C339 C79 1.045 . S
C353 C163 1.065 . S
C359 C107 1.061 . S
C373 C121 1.046 . S
C379 C177 1.060 . S
C393 C33 1.643 . S
C399 C5 1.650 . S
C413 C19 1.646 . S
C419 C47 1.646 . S
C433 C179 1.753 . S
C439 C11 1.759 . S
C453 C25 1.749 . S
C459 C165 1.757 . S
C473 C67 1.752 . S
C479 C39 1.745 . S
C493 C151 1.757 . S
C499 C53 1.750 . S
C513 C14 1.416 . S
C519 C0 1.398 . S
C533 C42 1.400 . S
C539 C28 1.417 . S
C553 C140 1.417 . S
C559 C56 1.406 . S
C573 C109 1.581 . S
C579 C81 1.572 . S
C593 C95 1.579 . S
C599 C123 1.575 . S
C613 C215 1.821 . S
C619 C75 1.822 . S
C633 C89 1.820 . S
C639 C201 1.822 . S
C653 C131 1.810 . S
C659 C103 1.810 . S
C673 C117 1.819 . S
C679 C187 1.816 . S
C693 C84 1.479 . S
C699 C70 1.483 . S
C713 C112 1.475 . S
C719 C98 1.481 . S
C733 C126 1.482 . S
C739 C182 1.482 . S
C753 C145 1.648 . S
C759 C159 1.650 . S
C773 C173 1.646 . S
C779 C61 1.651 . S
C793 C168 1.417 . S
C799 C154 1.405 . S
C813 C207 1.571 . S
C819 C193 1.582 . S
C833 C137 1.575 . S
C839 C221 1.578 . S
C853 C210 1.480 . S
C859 C196 1.473 . S
