# Generated by pormake.
# Topology wlk, (5)-cn, num edge types: 1
# Building blocks:
#     Node 0, Type 0, BuildingBlock: BEQFEK_clean_sbu_0, # of connection points: 5
#     Node 1, Type 0, BuildingBlock: BEQFEK_clean_sbu_0, # of connection points: 5
#     Node 2, Type 0, BuildingBlock: BEQFEK_clean_sbu_0, # of connection points: 5
#     Node 3, Type 0, BuildingBlock: BEQFEK_clean_sbu_0, # of connection points: 5
#     Node 4, Type 0, BuildingBlock: BEQFEK_clean_sbu_0, # of connection points: 5
#     Node 5, Type 0, BuildingBlock: BEQFEK_clean_sbu_0, # of connection points: 5
#     Node 6, Type 0, BuildingBlock: BEQFEK_clean_sbu_0, # of connection points: 5
#     Node 7, Type 0, BuildingBlock: BEQFEK_clean_sbu_0, # of connection points: 5
#     Node 8, Type 0, BuildingBlock: BEQFEK_clean_sbu_0, # of connection points: 5
#     Node 9, Type 0, BuildingBlock: BEQFEK_clean_sbu_0, # of connection points: 5
#     Node 10, Type 0, BuildingBlock: BEQFEK_clean_sbu_0, # of connection points: 5
#     Node 11, Type 0, BuildingBlock: BEQFEK_clean_sbu_0, # of connection points: 5
#     Node 12, Type 0, BuildingBlock: BEQFEK_clean_sbu_0, # of connection points: 5
#     Node 13, Type 0, BuildingBlock: BEQFEK_clean_sbu_0, # of connection points: 5
#     Node 14, Type 0, BuildingBlock: BEQFEK_clean_sbu_0, # of connection points: 5
#     Node 15, Type 0, BuildingBlock: BEQFEK_clean_sbu_0, # of connection points: 5
#     Node 16, Type 0, BuildingBlock: BEQFEK_clean_sbu_0, # of connection points: 5
#     Node 17, Type 0, BuildingBlock: BEQFEK_clean_sbu_0, # of connection points: 5
#     Edge 18, Type (0, 0), BuildingBlock: TEMPAE_clean_linker_10, # of connection points: 2
#     Edge 19, Type (0, 0), BuildingBlock: TEMPAE_clean_linker_10, # of connection points: 2
#     Edge 20, Type (0, 0), BuildingBlock: TEMPAE_clean_linker_10, # of connection points: 2
#     Edge 21, Type (0, 0), BuildingBlock: TEMPAE_clean_linker_10, # of connection points: 2
#     Edge 22, Type (0, 0), BuildingBlock: TEMPAE_clean_linker_10, # of connection points: 2
#     Edge 23, Type (0, 0), BuildingBlock: TEMPAE_clean_linker_10, # of connection points: 2
#     Edge 24, Type (0, 0), BuildingBlock: TEMPAE_clean_linker_10, # of connection points: 2
#     Edge 25, Type (0, 0), BuildingBlock: TEMPAE_clean_linker_10, # of connection points: 2
#     Edge 26, Type (0, 0), BuildingBlock: TEMPAE_clean_linker_10, # of connection points: 2
#     Edge 27, Type (0, 0), BuildingBlock: TEMPAE_clean_linker_10, # of connection points: 2
#     Edge 28, Type (0, 0), BuildingBlock: TEMPAE_clean_linker_10, # of connection points: 2
#     Edge 29, Type (0, 0), BuildingBlock: TEMPAE_clean_linker_10, # of connection points: 2
#     Edge 30, Type (0, 0), BuildingBlock: TEMPAE_clean_linker_10, # of connection points: 2
#     Edge 31, Type (0, 0), BuildingBlock: TEMPAE_clean_linker_10, # of connection points: 2
#     Edge 32, Type (0, 0), BuildingBlock: TEMPAE_clean_linker_10, # of connection points: 2
#     Edge 33, Type (0, 0), BuildingBlock: TEMPAE_clean_linker_10, # of connection points: 2
#     Edge 34, Type (0, 0), BuildingBlock: TEMPAE_clean_linker_10, # of connection points: 2
#     Edge 35, Type (0, 0), BuildingBlock: TEMPAE_clean_linker_10, # of connection points: 2
#     Edge 36, Type (0, 0), BuildingBlock: TEMPAE_clean_linker_10, # of connection points: 2
#     Edge 37, Type (0, 0), BuildingBlock: TEMPAE_clean_linker_10, # of connection points: 2
#     Edge 38, Type (0, 0), BuildingBlock: TEMPAE_clean_linker_10, # of connection points: 2
#     Edge 39, Type (0, 0), BuildingBlock: TEMPAE_clean_linker_10, # of connection points: 2
#     Edge 40, Type (0, 0), BuildingBlock: TEMPAE_clean_linker_10, # of connection points: 2
#     Edge 41, Type (0, 0), BuildingBlock: TEMPAE_clean_linker_10, # of connection points: 2
#     Edge 42, Type (0, 0), BuildingBlock: TEMPAE_clean_linker_10, # of connection points: 2
#     Edge 43, Type (0, 0), BuildingBlock: TEMPAE_clean_linker_10, # of connection points: 2
#     Edge 44, Type (0, 0), BuildingBlock: TEMPAE_clean_linker_10, # of connection points: 2
#     Edge 45, Type (0, 0), BuildingBlock: TEMPAE_clean_linker_10, # of connection points: 2
#     Edge 46, Type (0, 0), BuildingBlock: TEMPAE_clean_linker_10, # of connection points: 2
#     Edge 47, Type (0, 0), BuildingBlock: TEMPAE_clean_linker_10, # of connection points: 2
#     Edge 48, Type (0, 0), BuildingBlock: TEMPAE_clean_linker_10, # of connection points: 2
#     Edge 49, Type (0, 0), BuildingBlock: TEMPAE_clean_linker_10, # of connection points: 2
#     Edge 50, Type (0, 0), BuildingBlock: TEMPAE_clean_linker_10, # of connection points: 2
#     Edge 51, Type (0, 0), BuildingBlock: TEMPAE_clean_linker_10, # of connection points: 2
#     Edge 52, Type (0, 0), BuildingBlock: TEMPAE_clean_linker_10, # of connection points: 2
#     Edge 53, Type (0, 0), BuildingBlock: TEMPAE_clean_linker_10, # of connection points: 2
#     Edge 54, Type (0, 0), BuildingBlock: TEMPAE_clean_linker_10, # of connection points: 2
#     Edge 55, Type (0, 0), BuildingBlock: TEMPAE_clean_linker_10, # of connection points: 2
#     Edge 56, Type (0, 0), BuildingBlock: TEMPAE_clean_linker_10, # of connection points: 2
#     Edge 57, Type (0, 0), BuildingBlock: TEMPAE_clean_linker_10, # of connection points: 2
#     Edge 58, Type (0, 0), BuildingBlock: TEMPAE_clean_linker_10, # of connection points: 2
#     Edge 59, Type (0, 0), BuildingBlock: TEMPAE_clean_linker_10, # of connection points: 2
#     Edge 60, Type (0, 0), BuildingBlock: TEMPAE_clean_linker_10, # of connection points: 2
#     Edge 61, Type (0, 0), BuildingBlock: TEMPAE_clean_linker_10, # of connection points: 2
#     Edge 62, Type (0, 0), BuildingBlock: TEMPAE_clean_linker_10, # of connection points: 2
# Relax obj value: 0.045
# Max RMSD: 0.100
# Mean RMSD: 0.100
data_MOF--net-wlk--node1-BEQFEK_clean_sbu_0--edge1-TEMPAE_clean_linker_10
_symmetry_space_group_name_H-M    P1
_symmetry_Int_Tables_number       1
_symmetry_cell_setting            triclinic
loop_
_symmetry_equiv_pos_as_xyz
'x, y, z'
_cell_length_a     65.830453
_cell_length_b     65.825497
_cell_length_c     31.603992
_cell_angle_alpha  90.015236
_cell_angle_beta   89.981855
_cell_angle_gamma 120.00228
loop_
_atom_site_label
_atom_site_type_symbol
_atom_site_fract_x
_atom_site_fract_y
_atom_site_fract_z
_atom_type_partial_charge
Co0 Co 0.21931 0.26667 0.15841 0.0
Co1 Co 0.18008 0.26452 0.09951 0.0
C2 C 0.19275 0.22658 0.09929 0.0
O3 O 0.20759 0.2365 0.12879 0.0
O4 O 0.18097 0.23551 0.08454 0.0
C5 C 0.23827 0.25049 0.22239 0.0
O6 O 0.21847 0.23069 0.21707 0.0
C7 C 0.13291 0.24505 0.06346 0.0
C8 C 0.13472 0.27629 0.03379 0.0
C9 C 0.11993 0.25244 0.04006 0.0
N10 N 0.15431 0.26365 0.07046 0.0
N11 N 0.1553 0.28225 0.05252 0.0
C12 C 0.12497 0.22113 0.08099 0.0
H13 H 0.1349 0.22244 0.11024 0.0
H14 H 0.10588 0.21186 0.08785 0.0
H15 H 0.1285 0.21079 0.05738 0.0
C16 C 0.19426 0.27876 0.22133 0.0
N17 N 0.19504 0.26998 0.1833 0.0
N18 N 0.17856 0.26935 0.15884 0.0
C19 C 0.16685 0.27795 0.18062 0.0
C20 C 0.17658 0.28444 0.22091 0.0
C21 C 0.21178 0.28389 0.25579 0.0
H22 H 0.22945 0.29741 0.24474 0.0
H23 H 0.21237 0.26774 0.26316 0.0
H24 H 0.20724 0.29001 0.28511 0.0
O25 O 0.23689 0.2928 0.11791 0.0
O26 O 0.20889 0.29141 0.0767 0.0
H27 H 0.15905 0.29729 0.13567 0.0
H28 H 0.14233 0.2909 0.18389 0.0
C29 C 0.14989 0.28392 0.16063 0.0
H30 H 0.1355 0.26803 0.1455 0.0
H31 H 0.17004 0.29902 0.05308 0.0
O32 O 0.24197 0.26843 0.20121 0.0
C33 C 0.23041 0.3007 0.08705 0.0
Co34 Co 0.73389 0.95568 0.1641 0.0
Co35 Co 0.73929 0.91939 0.10717 0.0
C36 C 0.77561 0.97054 0.10753 0.0
O37 O 0.76383 0.97464 0.13458 0.0
O38 O 0.76851 0.94978 0.09422 0.0
C39 C 0.74954 0.99018 0.22852 0.0
O40 O 0.76903 0.98951 0.22375 0.0
C41 C 0.75708 0.89267 0.05785 0.0
C42 C 0.72525 0.85766 0.05634 0.0
C43 C 0.74863 0.86963 0.04421 0.0
N44 N 0.7397 0.89377 0.07846 0.0
N45 N 0.72063 0.87289 0.0764 0.0
C46 C 0.78 0.91386 0.04676 0.0
H47 H 0.77731 0.92885 0.04029 0.0
H48 H 0.79233 0.91846 0.07372 0.0
H49 H 0.78779 0.91095 0.01793 0.0
C50 C 0.72317 0.91972 0.22849 0.0
N51 N 0.73155 0.92876 0.18999 0.0
N52 N 0.73396 0.91333 0.1672 0.0
C53 C 0.72744 0.894 0.19128 0.0
C54 C 0.71983 0.89721 0.23055 0.0
C55 C 0.71672 0.93184 0.26153 0.0
H56 H 0.70363 0.93607 0.24843 0.0
H57 H 0.73258 0.94848 0.27045 0.0
H58 H 0.70966 0.92111 0.29058 0.0
O59 O 0.70805 0.94618 0.1233 0.0
O60 O 0.71234 0.92106 0.08259 0.0
H61 H 0.70838 0.86081 0.16047 0.0
H62 H 0.72722 0.86148 0.20189 0.0
C63 C 0.72572 0.87176 0.17559 0.0
H64 H 0.73987 0.87571 0.15249 0.0
H65 H 0.70438 0.86903 0.08876 0.0
O66 O 0.73171 0.97658 0.20644 0.0
C67 C 0.70169 0.93216 0.09195 0.0
Co68 Co 0.04726 0.7776 0.16047 0.0
Co69 Co 0.08336 0.8199 0.10534 0.0
C70 C 0.03258 0.80514 0.1049 0.0
O71 O 0.02831 0.78932 0.13222 0.0
O72 O 0.05326 0.81849 0.09106 0.0
C73 C 0.01529 0.75944 0.22888 0.0
O74 O 0.01861 0.78085 0.22908 0.0
C75 C 0.1103 0.86712 0.06758 0.0
C76 C 0.14287 0.86767 0.04854 0.0
C77 C 0.13194 0.88102 0.04832 0.0
N78 N 0.10861 0.84656 0.07849 0.0
N79 N 0.1281 0.84701 0.06688 0.0
C80 C 0.0921 0.8736 0.07793 0.0
H81 H 0.08268 0.86459 0.10734 0.0
H82 H 0.10014 0.89286 0.08184 0.0
H83 H 0.07914 0.86778 0.05177 0.0
C84 C 0.08386 0.80202 0.22484 0.0
N85 N 0.07425 0.80163 0.18703 0.0
N86 N 0.08895 0.82012 0.16488 0.0
C87 C 0.10819 0.83333 0.18864 0.0
C88 C 0.10574 0.8222 0.22737 0.0
C89 C 0.07409 0.78146 0.25437 0.0
H90 H 0.06508 0.76485 0.23619 0.0
H91 H 0.06114 0.78229 0.27571 0.0
H92 H 0.088 0.7813 0.27389 0.0
O93 O 0.05678 0.7618 0.11849 0.0
O94 O 0.08241 0.79185 0.07951 0.0
H95 H 0.13981 0.85128 0.15265 0.0
H96 H 0.13996 0.86613 0.20079 0.0
C97 C 0.12902 0.85558 0.17374 0.0
H98 H 0.12314 0.86611 0.15559 0.0
H99 H 0.13135 0.83319 0.07162 0.0
O100 O 0.02626 0.75412 0.20208 0.0
C101 C 0.07116 0.76995 0.0877 0.0
Co102 Co 0.77734 0.73126 0.84114 0.0
Co103 Co 0.8205 0.73771 0.89461 0.0
C104 C 0.80516 0.77331 0.89686 0.0
O105 O 0.789 0.76169 0.87017 0.0
O106 O 0.81885 0.76617 0.90962 0.0
C107 C 0.75851 0.74595 0.77545 0.0
O108 O 0.77973 0.76435 0.77623 0.0
C109 C 0.86477 0.75541 0.94411 0.0
C110 C 0.87147 0.72595 0.93612 0.0
C111 C 0.88081 0.74811 0.95388 0.0
N112 N 0.84745 0.73869 0.92036 0.0
N113 N 0.85135 0.72094 0.91668 0.0
C114 C 0.86406 0.77622 0.96143 0.0
H115 H 0.8457 0.7715 0.96815 0.0
H116 H 0.87142 0.79057 0.93771 0.0
H117 H 0.87405 0.78246 0.9914 0.0
C118 C 0.80162 0.72029 0.7748 0.0
N119 N 0.80134 0.7288 0.8134 0.0
N120 N 0.82041 0.7332 0.83429 0.0
C121 C 0.83405 0.7287 0.80841 0.0
C122 C 0.8224 0.71992 0.77016 0.0
C123 C 0.78074 0.70925 0.74603 0.0
H124 H 0.76433 0.70116 0.76485 0.0
H125 H 0.78095 0.723 0.72543 0.0
H126 H 0.78081 0.69554 0.72572 0.0
O127 O 0.76208 0.70567 0.88244 0.0
O128 O 0.79256 0.7102 0.92022 0.0
H129 H 0.8568 0.71698 0.83272 0.0
H130 H 0.86905 0.7377 0.79036 0.0
C131 C 0.85804 0.7331 0.81928 0.0
H132 H 0.86654 0.74757 0.84257 0.0
H133 H 0.84018 0.70533 0.90094 0.0
O134 O 0.75353 0.72901 0.80051 0.0
C135 C 0.77059 0.69939 0.91251 0.0
Co136 Co 0.26861 0.04638 0.83628 0.0
Co137 Co 0.26185 0.08181 0.89345 0.0
C138 C 0.22656 0.03036 0.89258 0.0
O139 O 0.23881 0.02677 0.86579 0.0
O140 O 0.233 0.05099 0.90585 0.0
C141 C 0.25409 0.01159 0.77239 0.0
O142 O 0.23409 0.01125 0.77715 0.0
C143 C 0.24273 0.10802 0.94098 0.0
C144 C 0.27454 0.14294 0.94503 0.0
C145 C 0.25088 0.13091 0.95521 0.0
N146 N 0.26061 0.10706 0.92202 0.0
N147 N 0.27963 0.1279 0.92551 0.0
C148 C 0.21939 0.08681 0.94972 0.0
H149 H 0.22163 0.07155 0.95605 0.0
H150 H 0.20787 0.0829 0.92169 0.0
H151 H 0.21088 0.08935 0.97792 0.0
C152 C 0.27831 0.08211 0.77206 0.0
N153 N 0.27007 0.07293 0.81052 0.0
N154 N 0.26733 0.08808 0.8335 0.0
C155 C 0.27357 0.10743 0.80967 0.0
C156 C 0.28125 0.10448 0.77027 0.0
C157 C 0.28506 0.07033 0.73886 0.0
H158 H 0.26952 0.0533 0.73055 0.0
H159 H 0.2915 0.08096 0.70957 0.0
H160 H 0.29876 0.06688 0.75156 0.0
O161 O 0.29451 0.05663 0.87704 0.0
O162 O 0.28912 0.08082 0.91846 0.0
H163 H 0.29219 0.14014 0.84214 0.0
H164 H 0.27423 0.14025 0.79974 0.0
C165 C 0.27515 0.12953 0.82585 0.0
H166 H 0.26061 0.12533 0.8482 0.0
H167 H 0.29614 0.13187 0.91443 0.0
O168 O 0.27173 0.02593 0.79412 0.0
C169 C 0.30039 0.07037 0.90872 0.0
Co170 Co 0.9536 0.22303 0.83867 0.0
Co171 Co 0.91758 0.18106 0.89454 0.0
C172 C 0.9681 0.19514 0.89397 0.0
O173 O 0.97215 0.21117 0.86728 0.0
O174 O 0.94745 0.18159 0.90775 0.0
C175 C 0.98693 0.24094 0.77236 0.0
O176 O 0.98421 0.21978 0.77417 0.0
C177 C 0.89024 0.1338 0.93172 0.0
C178 C 0.85898 0.13444 0.9553 0.0
C179 C 0.86915 0.12042 0.95306 0.0
N180 N 0.89236 0.1547 0.92213 0.0
N181 N 0.87363 0.15495 0.93638 0.0
C182 C 0.90749 0.12659 0.91819 0.0
H183 H 0.9165 0.13593 0.88873 0.0
H184 H 0.89865 0.10736 0.91295 0.0
H185 H 0.92093 0.13144 0.9433 0.0
C186 C 0.91672 0.19879 0.77503 0.0
N187 N 0.92642 0.19905 0.81264 0.0
N188 N 0.91156 0.18081 0.83516 0.0
C189 C 0.89203 0.16793 0.8119 0.0
C190 C 0.89452 0.179 0.77306 0.0
C191 C 0.92686 0.21927 0.74527 0.0
H192 H 0.9359 0.2359 0.76338 0.0
H193 H 0.93994 0.21825 0.72455 0.0
H194 H 0.91321 0.21957 0.72521 0.0
O195 O 0.94445 0.23921 0.88019 0.0
O196 O 0.91922 0.20953 0.92034 0.0
H197 H 0.86096 0.15112 0.8496 0.0
H198 H 0.85926 0.13588 0.80098 0.0
C199 C 0.87089 0.14618 0.82754 0.0
H200 H 0.87642 0.13514 0.84494 0.0
H201 H 0.87087 0.16917 0.93322 0.0
O202 O 0.97492 0.24616 0.79687 0.0
C203 C 0.93041 0.23137 0.91148 0.0
Co204 Co 0.88719 0.60149 0.49516 0.0
Co205 Co 0.84704 0.59645 0.4352 0.0
C206 C 0.86065 0.55937 0.43932 0.0
O207 O 0.8761 0.57103 0.46714 0.0
O208 O 0.84766 0.56685 0.42424 0.0
C209 C 0.90619 0.58707 0.56192 0.0
O210 O 0.88626 0.56726 0.55794 0.0
C211 C 0.79962 0.5763 0.39924 0.0
C212 C 0.8017 0.60701 0.3668 0.0
C213 C 0.78669 0.58338 0.37484 0.0
N214 N 0.82117 0.59488 0.40517 0.0
N215 N 0.82232 0.61314 0.38554 0.0
C216 C 0.79147 0.55278 0.41877 0.0
H217 H 0.80158 0.55465 0.44805 0.0
H218 H 0.77245 0.54395 0.42611 0.0
H219 H 0.79457 0.5417 0.39618 0.0
C220 C 0.86167 0.61419 0.55588 0.0
N221 N 0.86258 0.6047 0.51873 0.0
N222 N 0.84579 0.60302 0.49382 0.0
C223 C 0.83376 0.61167 0.51441 0.0
C224 C 0.84359 0.61926 0.55436 0.0
C225 C 0.87931 0.62037 0.59054 0.0
H226 H 0.89691 0.6337 0.57887 0.0
H227 H 0.88007 0.60452 0.59969 0.0
H228 H 0.87477 0.62715 0.61901 0.0
O229 O 0.90428 0.62677 0.4533 0.0
O230 O 0.87581 0.62278 0.41031 0.0
H231 H 0.82486 0.62921 0.46745 0.0
H232 H 0.80845 0.62367 0.51588 0.0
C233 C 0.81618 0.61644 0.49348 0.0
H234 H 0.80197 0.59996 0.4796 0.0
H235 H 0.83718 0.62983 0.38505 0.0
O236 O 0.91003 0.60441 0.53877 0.0
C237 C 0.89739 0.63312 0.42084 0.0
Co238 Co 0.39609 0.28733 0.49138 0.0
Co239 Co 0.40349 0.25219 0.43571 0.0
C240 C 0.43915 0.30283 0.43694 0.0
O241 O 0.42668 0.30646 0.46322 0.0
O242 O 0.43263 0.2823 0.42318 0.0
C243 C 0.41004 0.31869 0.56055 0.0
O244 O 0.42783 0.31489 0.56052 0.0
C245 C 0.42369 0.2253 0.3974 0.0
C246 C 0.39169 0.1935 0.37572 0.0
C247 C 0.41593 0.20405 0.37662 0.0
N248 N 0.40488 0.22715 0.408 0.0
N249 N 0.38583 0.2081 0.39486 0.0
C250 C 0.44829 0.24296 0.40948 0.0
H251 H 0.44833 0.25203 0.4391 0.0
H252 H 0.45907 0.23447 0.41381 0.0
H253 H 0.4562 0.25628 0.38401 0.0
C254 C 0.38335 0.25007 0.55437 0.0
N255 N 0.39312 0.26018 0.51717 0.0
N256 N 0.39747 0.24589 0.49493 0.0
C257 C 0.39132 0.22644 0.5181 0.0
C258 C 0.38191 0.22828 0.55651 0.0
C259 C 0.37178 0.25926 0.58338 0.0
H260 H 0.36489 0.26886 0.56503 0.0
H261 H 0.38491 0.27156 0.60638 0.0
H262 H 0.35702 0.24492 0.60107 0.0
O263 O 0.3709 0.27797 0.44958 0.0
O264 O 0.3766 0.25352 0.40947 0.0
H265 H 0.37874 0.19523 0.48119 0.0
H266 H 0.39309 0.19502 0.52977 0.0
C267 C 0.39348 0.20607 0.50291 0.0
H268 H 0.41015 0.21248 0.48531 0.0
H269 H 0.36881 0.20508 0.39899 0.0
O270 O 0.39374 0.30816 0.5336 0.0
C271 C 0.36536 0.26415 0.41806 0.0
Co272 Co 0.71379 0.11344 0.49525 0.0
Co273 Co 0.74877 0.15445 0.43654 0.0
C274 C 0.69761 0.13756 0.43428 0.0
O275 O 0.69431 0.12218 0.46188 0.0
O276 O 0.71822 0.15259 0.42217 0.0
C277 C 0.67844 0.07037 0.53088 0.0
O278 O 0.6776 0.06252 0.49232 0.0
C279 C 0.77589 0.20162 0.39904 0.0
C280 C 0.80597 0.20017 0.37146 0.0
C281 C 0.79651 0.2147 0.37624 0.0
N282 N 0.77339 0.18043 0.40717 0.0
N283 N 0.79138 0.17966 0.39042 0.0
C284 C 0.75941 0.20932 0.41496 0.0
H285 H 0.75048 0.1995 0.44412 0.0
H286 H 0.7689 0.22846 0.42145 0.0
H287 H 0.74583 0.20546 0.39056 0.0
C288 C 0.74928 0.14076 0.55844 0.0
N289 N 0.73986 0.13937 0.5201 0.0
N290 N 0.75531 0.15628 0.49583 0.0
C291 C 0.7754 0.16874 0.51797 0.0
C292 C 0.77233 0.1591 0.55838 0.0
C293 C 0.73713 0.12313 0.59289 0.0
H294 H 0.71923 0.12041 0.59748 0.0
H295 H 0.74682 0.12899 0.62327 0.0
H296 H 0.73543 0.10612 0.58342 0.0
O297 O 0.72471 0.09698 0.45731 0.0
O298 O 0.74783 0.1259 0.41371 0.0
H299 H 0.81252 0.19461 0.52163 0.0
H300 H 0.79595 0.20013 0.48232 0.0
C301 C 0.79815 0.18632 0.49816 0.0
H302 H 0.80311 0.17746 0.4738 0.0
H303 H 0.79372 0.16513 0.39206 0.0
O304 O 0.69308 0.09166 0.53932 0.0
C305 C 0.73807 0.10446 0.42502 0.0
Co306 Co 0.44608 0.06735 0.16861 0.0
Co307 Co 0.48627 0.07335 0.22924 0.0
C308 C 0.47198 0.10983 0.22382 0.0
O309 O 0.45643 0.09771 0.1965 0.0
O310 O 0.48537 0.10283 0.23882 0.0
C311 C 0.42741 0.08229 0.10262 0.0
O312 O 0.4471 0.10215 0.10826 0.0
C313 C 0.53459 0.09335 0.2606 0.0
C314 C 0.52943 0.07001 0.31474 0.0
C315 C 0.54608 0.09001 0.29419 0.0
N316 N 0.51203 0.0761 0.2613 0.0
N317 N 0.50914 0.06209 0.29351 0.0
C318 C 0.54434 0.11366 0.23076 0.0
H319 H 0.5311 0.1113 0.20657 0.0
H320 H 0.56022 0.11539 0.21507 0.0
H321 H 0.54973 0.13005 0.2488 0.0
C322 C 0.47256 0.05546 0.10848 0.0
N323 N 0.47122 0.06466 0.14566 0.0
N324 N 0.48782 0.0663 0.17105 0.0
C325 C 0.49998 0.05764 0.15096 0.0
C326 C 0.4906 0.05032 0.11058 0.0
C327 C 0.45557 0.04998 0.0729 0.0
H328 H 0.4379 0.03595 0.08291 0.0
H329 H 0.45447 0.06582 0.06524 0.0
H330 H 0.461 0.04439 0.04396 0.0
O331 O 0.42892 0.04188 0.21043 0.0
O332 O 0.45753 0.04709 0.25421 0.0
H333 H 0.51028 0.04445 0.20378 0.0
H334 H 0.52147 0.04117 0.15354 0.0
C335 C 0.51733 0.05278 0.17263 0.0
H336 H 0.53372 0.06962 0.17835 0.0
H337 H 0.4931 0.0476 0.30198 0.0
O338 O 0.42354 0.06447 0.12439 0.0
C339 C 0.43599 0.03617 0.24348 0.0
Co340 Co 0.93449 0.38044 0.17203 0.0
Co341 Co 0.92859 0.4163 0.22838 0.0
C342 C 0.89204 0.36572 0.22736 0.0
O343 O 0.90397 0.36169 0.20047 0.0
O344 O 0.89922 0.38636 0.2413 0.0
C345 C 0.91988 0.34776 0.10443 0.0
O346 O 0.90148 0.35057 0.10521 0.0
C347 C 0.90874 0.44359 0.26617 0.0
C348 C 0.94073 0.47491 0.2893 0.0
C349 C 0.91653 0.46472 0.28742 0.0
N350 N 0.92748 0.44146 0.25627 0.0
N351 N 0.94652 0.46023 0.27027 0.0
C352 C 0.88422 0.42632 0.25298 0.0
H353 H 0.88442 0.41729 0.22344 0.0
H354 H 0.8738 0.43515 0.248 0.0
H355 H 0.87575 0.4129 0.27815 0.0
C356 C 0.94696 0.41747 0.10852 0.0
N357 N 0.93776 0.40774 0.14626 0.0
N358 N 0.9344 0.42254 0.16903 0.0
C359 C 0.94083 0.44205 0.14583 0.0
C360 C 0.9492 0.4396 0.10672 0.0
C361 C 0.95713 0.4074 0.07825 0.0
H362 H 0.96485 0.39834 0.09592 0.0
H363 H 0.94295 0.39439 0.05762 0.0
H364 H 0.97098 0.42112 0.05809 0.0
O365 O 0.95971 0.38937 0.21368 0.0
O366 O 0.95535 0.41453 0.2542 0.0
H367 H 0.95504 0.47313 0.18348 0.0
H368 H 0.94118 0.47466 0.13517 0.0
C369 C 0.94009 0.46309 0.16166 0.0
H370 H 0.92358 0.45744 0.17936 0.0
H371 H 0.96349 0.463 0.2668 0.0
O372 O 0.93663 0.35939 0.13006 0.0
C373 C 0.96592 0.40328 0.24516 0.0
Co374 Co 0.62139 0.55438 0.17245 0.0
Co375 Co 0.58455 0.51457 0.23096 0.0
C376 C 0.63489 0.5268 0.22981 0.0
O377 O 0.63952 0.54239 0.20185 0.0
O378 O 0.61416 0.51432 0.24417 0.0
C379 C 0.65664 0.57306 0.10876 0.0
O380 O 0.65629 0.5531 0.11416 0.0
C381 C 0.55624 0.46752 0.26774 0.0
C382 C 0.52682 0.46988 0.29611 0.0
C383 C 0.53567 0.45485 0.29081 0.0
N384 N 0.55934 0.48897 0.25996 0.0
N385 N 0.54174 0.49029 0.27716 0.0
C386 C 0.57214 0.4592 0.25135 0.0
H387 H 0.58079 0.46864 0.22173 0.0
H388 H 0.56226 0.44001 0.24546 0.0
H389 H 0.58598 0.46305 0.2752 0.0
C390 C 0.58439 0.52943 0.10931 0.0
N391 N 0.5938 0.53022 0.14747 0.0
N392 N 0.57792 0.51365 0.17176 0.0
C393 C 0.55768 0.50194 0.14978 0.0
C394 C 0.56105 0.51173 0.10947 0.0
C395 C 0.59709 0.5467 0.07462 0.0
H396 H 0.6012 0.56446 0.08503 0.0
H397 H 0.61386 0.54719 0.06803 0.0
H398 H 0.5867 0.54198 0.04498 0.0
O399 O 0.61305 0.57186 0.21329 0.0
O400 O 0.5873 0.54359 0.25518 0.0
H401 H 0.53038 0.49377 0.19456 0.0
H402 H 0.52024 0.4772 0.14622 0.0
C403 C 0.53474 0.48477 0.16953 0.0
H404 H 0.53634 0.47041 0.18454 0.0
H405 H 0.53993 0.50515 0.27594 0.0
O406 O 0.64253 0.57703 0.12978 0.0
C407 C 0.59918 0.56517 0.24492 0.0
Co408 Co 0.55658 0.9334 0.82809 0.0
Co409 Co 0.51441 0.92764 0.773 0.0
C410 C 0.52667 0.88972 0.77729 0.0
O411 O 0.54312 0.90182 0.80324 0.0
O412 O 0.51367 0.89733 0.7628 0.0
C413 C 0.57483 0.92019 0.89727 0.0
O414 O 0.55331 0.90229 0.89832 0.0
C415 C 0.46714 0.90812 0.73574 0.0
C416 C 0.46814 0.94026 0.71253 0.0
C417 C 0.45396 0.91608 0.71445 0.0
N418 N 0.4881 0.92675 0.74559 0.0
N419 N 0.48857 0.94588 0.73157 0.0
C420 C 0.45967 0.88353 0.74883 0.0
H421 H 0.46846 0.88361 0.77885 0.0
H422 H 0.44036 0.87309 0.75294 0.0
H423 H 0.465 0.87517 0.72405 0.0
C424 C 0.53404 0.94878 0.89114 0.0
N425 N 0.53382 0.93883 0.85378 0.0
N426 N 0.51546 0.93547 0.83166 0.0
C427 C 0.50305 0.94272 0.85489 0.0
C428 C 0.51447 0.95155 0.89336 0.0
C429 C 0.55448 0.95874 0.92093 0.0
H430 H 0.5711 0.96577 0.90292 0.0
H431 H 0.55293 0.9446 0.94212 0.0
H432 H 0.5552 0.97305 0.94056 0.0
O433 O 0.57275 0.95642 0.78275 0.0
O434 O 0.5429 0.95267 0.74398 0.0
H435 H 0.48586 0.95675 0.81773 0.0
H436 H 0.47107 0.94342 0.86675 0.0
C437 C 0.48114 0.94198 0.83989 0.0
H438 H 0.46996 0.92532 0.82278 0.0
H439 H 0.50288 0.96279 0.73491 0.0
O440 O 0.58016 0.93611 0.8697 0.0
C441 C 0.56488 0.96218 0.75092 0.0
Co442 Co 0.06688 0.62114 0.82573 0.0
Co443 Co 0.07054 0.58457 0.76743 0.0
C444 C 0.10833 0.63503 0.76885 0.0
O445 O 0.0971 0.63953 0.79647 0.0
O446 O 0.10037 0.6143 0.75468 0.0
C447 C 0.08298 0.65611 0.88991 0.0
O448 O 0.10263 0.6558 0.88477 0.0
C449 C 0.08959 0.55649 0.73052 0.0
C450 C 0.05786 0.52695 0.70226 0.0
C451 C 0.08176 0.53593 0.70741 0.0
N452 N 0.07116 0.55945 0.73844 0.0
N453 N 0.05228 0.54178 0.72131 0.0
C454 C 0.1138 0.57251 0.74677 0.0
H455 H 0.11299 0.58113 0.77642 0.0
H456 H 0.12323 0.56274 0.75254 0.0
H457 H 0.12368 0.58638 0.72289 0.0
C458 C 0.05479 0.58409 0.88883 0.0
N459 N 0.06356 0.59359 0.85078 0.0
N460 N 0.06453 0.57781 0.82658 0.0
C461 C 0.05603 0.55756 0.84853 0.0
C462 C 0.04934 0.5608 0.8887 0.0
C463 C 0.04992 0.59664 0.92338 0.0
H464 H 0.03633 0.60076 0.91264 0.0
H465 H 0.06613 0.6134 0.93036 0.0
H466 H 0.04405 0.58616 0.95291 0.0
O467 O 0.04111 0.61258 0.78468 0.0
O468 O 0.04433 0.58725 0.7427 0.0
H469 H 0.03721 0.53014 0.80382 0.0
H470 H 0.04384 0.52023 0.8522 0.0
C471 C 0.05061 0.5347 0.82885 0.0
H472 H 0.06667 0.53654 0.81385 0.0
H473 H 0.03556 0.53985 0.72262 0.0
O474 O 0.06504 0.64212 0.86844 0.0
C475 C 0.03432 0.59886 0.75283 0.0
Co476 Co 0.38004 0.44562 0.82803 0.0
Co477 Co 0.4161 0.48658 0.77054 0.0
C478 C 0.36541 0.47265 0.77132 0.0
O479 O 0.3611 0.45734 0.79974 0.0
O480 O 0.38601 0.48533 0.75657 0.0
C481 C 0.34907 0.42826 0.89845 0.0
O482 O 0.35274 0.4498 0.89928 0.0
C483 C 0.44315 0.53339 0.73161 0.0
C484 C 0.47458 0.53276 0.70902 0.0
C485 C 0.46428 0.54668 0.71038 0.0
N486 N 0.44112 0.51264 0.74204 0.0
N487 N 0.45994 0.51237 0.72833 0.0
C488 C 0.4258 0.54064 0.74434 0.0
H489 H 0.41671 0.5315 0.77389 0.0
H490 H 0.43458 0.5599 0.74907 0.0
H491 H 0.41245 0.53557 0.71901 0.0
C492 C 0.41748 0.47058 0.8909 0.0
N493 N 0.40757 0.46975 0.85319 0.0
N494 N 0.42231 0.48769 0.82994 0.0
C495 C 0.44192 0.50096 0.85278 0.0
C496 C 0.43961 0.49048 0.89215 0.0
C497 C 0.40769 0.45054 0.92161 0.0
H498 H 0.39826 0.43364 0.90441 0.0
H499 H 0.39513 0.45205 0.94297 0.0
H500 H 0.42165 0.45043 0.94105 0.0
O501 O 0.38864 0.42887 0.78644 0.0
O502 O 0.41454 0.45798 0.74613 0.0
H503 H 0.47286 0.5174 0.81473 0.0
H504 H 0.47462 0.53326 0.86254 0.0
C505 C 0.46294 0.52255 0.83634 0.0
H506 H 0.45727 0.5333 0.8183 0.0
H507 H 0.4628 0.49826 0.73225 0.0
O508 O 0.35938 0.42271 0.87066 0.0
C509 C 0.40285 0.43623 0.75534 0.0
Co510 Co 0.11043 0.39743 0.50481 0.0
Co511 Co 0.15347 0.40493 0.55986 0.0
C512 C 0.13793 0.44035 0.55942 0.0
O513 O 0.12171 0.42783 0.53339 0.0
O514 O 0.15217 0.43397 0.57257 0.0
C515 C 0.09202 0.41181 0.43789 0.0
O516 O 0.11326 0.43018 0.43879 0.0
C517 C 0.19763 0.42285 0.60998 0.0
C518 C 0.20386 0.39299 0.60408 0.0
C519 C 0.21343 0.4154 0.62081 0.0
N520 N 0.18021 0.40594 0.58668 0.0
N521 N 0.18384 0.38798 0.58423 0.0
C522 C 0.19721 0.44406 0.62591 0.0
H523 H 0.1789 0.43962 0.63209 0.0
H524 H 0.2048 0.45808 0.60159 0.0
H525 H 0.20713 0.45059 0.6559 0.0
C526 C 0.13525 0.38615 0.44013 0.0
N527 N 0.13469 0.39493 0.4783 0.0
N528 N 0.15365 0.39956 0.49983 0.0
C529 C 0.16746 0.39486 0.4748 0.0
C530 C 0.15608 0.3858 0.43645 0.0
C531 C 0.11459 0.37492 0.41089 0.0
H532 H 0.09804 0.3669 0.42931 0.0
H533 H 0.11492 0.38854 0.38978 0.0
H534 H 0.11485 0.36113 0.39111 0.0
O535 O 0.09501 0.3722 0.54637 0.0
O536 O 0.12523 0.37771 0.58602 0.0
H537 H 0.18994 0.38325 0.50081 0.0
H538 H 0.20255 0.40358 0.45795 0.0
C539 C 0.19135 0.39928 0.48657 0.0
H540 H 0.19975 0.41396 0.50948 0.0
H541 H 0.17256 0.37222 0.56898 0.0
O542 O 0.08689 0.39496 0.4633 0.0
C543 C 0.10334 0.3665 0.57757 0.0
Co544 Co 0.6024 0.71359 0.5061 0.0
Co545 Co 0.59477 0.7483 0.56269 0.0
C546 C 0.55904 0.69755 0.55969 0.0
O547 O 0.57158 0.69412 0.53324 0.0
O548 O 0.56558 0.71799 0.57406 0.0
C549 C 0.58983 0.6831 0.43538 0.0
O550 O 0.57194 0.68674 0.4342 0.0
C551 C 0.574 0.77462 0.60137 0.0
C552 C 0.60571 0.80625 0.62448 0.0
C553 C 0.58147 0.79563 0.62289 0.0
N554 N 0.59297 0.77299 0.59104 0.0
N555 N 0.61184 0.79193 0.60503 0.0
C556 C 0.54954 0.75702 0.58842 0.0
H557 H 0.54983 0.74825 0.5586 0.0
H558 H 0.53874 0.76549 0.58405 0.0
H559 H 0.54144 0.74344 0.61343 0.0
C560 C 0.61568 0.75147 0.44422 0.0
N561 N 0.60566 0.74104 0.48108 0.0
N562 N 0.60127 0.75519 0.50369 0.0
C563 C 0.60764 0.77488 0.48107 0.0
C564 C 0.61722 0.77331 0.44265 0.0
C565 C 0.62741 0.7425 0.41507 0.0
H566 H 0.63423 0.7328 0.43326 0.0
H567 H 0.61439 0.73037 0.39175 0.0
H568 H 0.64224 0.75697 0.39776 0.0
O569 O 0.62708 0.72241 0.5487 0.0
O570 O 0.62152 0.74677 0.58931 0.0
H571 H 0.62019 0.80573 0.51896 0.0
H572 H 0.60622 0.80655 0.47028 0.0
C573 C 0.60556 0.79519 0.49681 0.0
H574 H 0.58879 0.78872 0.51411 0.0
H575 H 0.62892 0.79507 0.60129 0.0
O576 O 0.60546 0.6933 0.46358 0.0
C577 C 0.63259 0.73599 0.58057 0.0
Co578 Co 0.28889 0.88762 0.5038 0.0
Co579 Co 0.25348 0.84677 0.56256 0.0
C580 C 0.3043 0.86085 0.55956 0.0
O581 O 0.30819 0.87656 0.53221 0.0
O582 O 0.28371 0.84749 0.5739 0.0
C583 C 0.32295 0.90767 0.43791 0.0
O584 O 0.32361 0.88815 0.44214 0.0
C585 C 0.22582 0.79923 0.59864 0.0
C586 C 0.19667 0.80133 0.62889 0.0
C587 C 0.20543 0.78633 0.62215 0.0
N588 N 0.22885 0.82077 0.59196 0.0
N589 N 0.21142 0.82192 0.61032 0.0
C590 C 0.24154 0.79108 0.58073 0.0
H591 H 0.25021 0.80107 0.55156 0.0
H592 H 0.23151 0.77202 0.57365 0.0
H593 H 0.25538 0.79434 0.60423 0.0
C594 C 0.25139 0.86209 0.4418 0.0
N595 N 0.26139 0.86296 0.47937 0.0
N596 N 0.2461 0.84598 0.50377 0.0
C597 C 0.22566 0.83391 0.48247 0.0
C598 C 0.22827 0.8439 0.44252 0.0
C599 C 0.26324 0.87973 0.40725 0.0
H600 H 0.28005 0.88064 0.39919 0.0
H601 H 0.25236 0.87504 0.3782 0.0
H602 H 0.26715 0.89729 0.41852 0.0
O603 O 0.28011 0.90426 0.54572 0.0
O604 O 0.25575 0.87532 0.58806 0.0
H605 H 0.19864 0.82462 0.5284 0.0
H606 H 0.18844 0.80828 0.47981 0.0
C607 C 0.20316 0.8161 0.50268 0.0
H608 H 0.20547 0.80198 0.51686 0.0
H609 H 0.20957 0.83676 0.61003 0.0
O610 O 0.30888 0.91087 0.46069 0.0
C611 C 0.26678 0.89697 0.57806 0.0
C612 C 0.27869 0.27181 0.25273 0.0
C613 C 0.25622 0.25189 0.25222 0.0
C614 C 0.29613 0.27321 0.28 0.0
C615 C 0.29091 0.25435 0.30775 0.0
C616 C 0.26821 0.23429 0.30773 0.0
C617 C 0.25115 0.23324 0.27977 0.0
C618 C 0.32021 0.29483 0.27891 0.0
C619 C 0.26196 0.21396 0.33725 0.0
C620 C 0.34227 0.24981 0.35093 0.0
C621 C 0.3457 0.26069 0.39052 0.0
C622 C 0.3243 0.24735 0.32384 0.0
C623 C 0.30925 0.25575 0.33688 0.0
C624 C 0.31226 0.26625 0.37718 0.0
C625 C 0.33052 0.26871 0.40343 0.0
C626 C 0.32173 0.23624 0.2809 0.0
C627 C 0.29638 0.27518 0.39234 0.0
H628 H 0.28278 0.28626 0.23141 0.0
H629 H 0.2338 0.21783 0.27964 0.0
H630 H 0.3246 0.30336 0.31046 0.0
H631 H 0.3336 0.28983 0.27141 0.0
H632 H 0.32148 0.30784 0.25512 0.0
H633 H 0.24343 0.19976 0.33363 0.0
H634 H 0.27356 0.20654 0.33119 0.0
H635 H 0.26482 0.22013 0.37055 0.0
H636 H 0.35394 0.2436 0.34068 0.0
H637 H 0.33292 0.27698 0.4341 0.0
H638 H 0.32445 0.24912 0.25575 0.0
H639 H 0.30372 0.22115 0.27701 0.0
H640 H 0.33445 0.23003 0.27603 0.0
H641 H 0.29825 0.28954 0.37138 0.0
H642 H 0.30036 0.28189 0.42531 0.0
H643 H 0.27778 0.26096 0.39072 0.0
C644 C 0.76661 0.01876 0.28827 0.0
C645 C 0.74824 0.00628 0.25957 0.0
C646 C 0.76576 0.03444 0.31734 0.0
C647 C 0.74617 0.03786 0.31733 0.0
C648 C 0.72749 0.02517 0.28868 0.0
C649 C 0.72869 0.00944 0.26029 0.0
C650 C 0.78589 0.04751 0.34775 0.0
C651 C 0.7064 0.0285 0.28752 0.0
C652 C 0.73262 0.06446 0.41216 0.0
C653 C 0.7415 0.08773 0.39887 0.0
C654 C 0.73458 0.04815 0.38641 0.0
C655 C 0.74547 0.05525 0.34632 0.0
C656 C 0.75489 0.0788 0.33309 0.0
C657 C 0.75289 0.09478 0.35961 0.0
C658 C 0.72457 0.02322 0.40173 0.0
C659 C 0.76651 0.08698 0.29041 0.0
H660 H 0.78171 0.01631 0.28806 0.0
H661 H 0.71443 0.99987 0.23817 0.0
H662 H 0.79438 0.06664 0.3418 0.0
H663 H 0.77929 0.04443 0.38078 0.0
H664 H 0.79936 0.04213 0.34487 0.0
H665 H 0.69319 0.017 0.26377 0.0
H666 H 0.69789 0.02473 0.31907 0.0
H667 H 0.71204 0.04703 0.27983 0.0
H668 H 0.7239 0.05888 0.44254 0.0
H669 H 0.7598 0.11271 0.34902 0.0
H670 H 0.73814 0.01794 0.40022 0.0
H671 H 0.70995 0.01115 0.38079 0.0
H672 H 0.71789 0.02086 0.43469 0.0
H673 H 0.78104 0.08315 0.28704 0.0
H674 H 0.77363 0.10607 0.28548 0.0
H675 H 0.75363 0.07727 0.26497 0.0
C676 C 0.98736 0.74764 0.28979 0.0
C677 C 0.99871 0.7416 0.25889 0.0
C678 C 0.97111 0.7307 0.31765 0.0
C679 C 0.96605 0.70718 0.31434 0.0
C680 C 0.97762 0.70102 0.2835 0.0
C681 C 0.99386 0.71832 0.25622 0.0
C682 C 0.95919 0.73791 0.35036 0.0
C683 C 0.97261 0.67609 0.27894 0.0
C684 C 0.93846 0.6654 0.40677 0.0
C685 C 0.91484 0.65264 0.39435 0.0
C686 C 0.95526 0.68349 0.38137 0.0
C687 C 0.94831 0.68885 0.34254 0.0
C688 C 0.92449 0.67625 0.33004 0.0
C689 C 0.90803 0.65835 0.35614 0.0
C690 C 0.9805 0.69666 0.39583 0.0
C691 C 0.91645 0.68143 0.28873 0.0
H692 H 0.99107 0.7656 0.29215 0.0
H693 H 0.00256 0.7135 0.23244 0.0
H694 H 0.93997 0.72831 0.34494 0.0
H695 H 0.96224 0.73317 0.38248 0.0
H696 H 0.96557 0.75704 0.34958 0.0
H697 H 0.98337 0.67427 0.25374 0.0
H698 H 0.97614 0.66993 0.30926 0.0
H699 H 0.95381 0.66434 0.27134 0.0
H700 H 0.94389 0.66121 0.43632 0.0
H701 H 0.88984 0.64861 0.34624 0.0
H702 H 0.98685 0.71576 0.39694 0.0
H703 H 0.99171 0.69399 0.37286 0.0
H704 H 0.98289 0.69091 0.42757 0.0
H705 H 0.92124 0.70015 0.28753 0.0
H706 H 0.8972 0.6704 0.28409 0.0
H707 H 0.92546 0.67833 0.26193 0.0
C708 C 0.66581 0.72904 0.59674 0.0
C709 C 0.65198 0.73887 0.60835 0.0
C710 C 0.68373 0.73087 0.62322 0.0
C711 C 0.68786 0.7427 0.66238 0.0
C712 C 0.67422 0.75295 0.6741 0.0
C713 C 0.65648 0.75098 0.64687 0.0
C714 C 0.69803 0.71985 0.60953 0.0
C715 C 0.67809 0.76563 0.71574 0.0
C716 C 0.71735 0.72641 0.74831 0.0
C717 C 0.74052 0.74511 0.74631 0.0
C718 C 0.7 0.72554 0.7214 0.0
C719 C 0.70601 0.74372 0.6916 0.0
C720 C 0.72936 0.7626 0.6893 0.0
C721 C 0.74634 0.7631 0.71678 0.0
C722 C 0.67525 0.70514 0.72484 0.0
C723 C 0.73641 0.78221 0.65769 0.0
H724 H 0.66259 0.71976 0.56694 0.0
H725 H 0.6459 0.75863 0.65612 0.0
H726 H 0.71698 0.73317 0.60965 0.0
H727 H 0.69548 0.70592 0.63223 0.0
H728 H 0.69317 0.71201 0.5774 0.0
H729 H 0.66643 0.7732 0.71962 0.0
H730 H 0.67483 0.75334 0.74228 0.0
H731 H 0.69658 0.77999 0.71827 0.0
H732 H 0.71269 0.71246 0.77111 0.0
H733 H 0.76421 0.77759 0.71501 0.0
H734 H 0.66983 0.69553 0.69434 0.0
H735 H 0.66295 0.71167 0.73151 0.0
H736 H 0.67339 0.69263 0.75017 0.0
H737 H 0.73282 0.775 0.62508 0.0
H738 H 0.75528 0.79569 0.66011 0.0
H739 H 0.72581 0.79085 0.66264 0.0
C740 C 0.27619 0.99332 0.74179 0.0
C741 C 0.25609 0.99557 0.74207 0.0
C742 C 0.278 0.97761 0.71422 0.0
C743 C 0.25939 0.96401 0.68598 0.0
C744 C 0.23925 0.96652 0.68554 0.0
C745 C 0.23779 0.98219 0.71377 0.0
C746 C 0.29967 0.97526 0.71584 0.0
C747 C 0.21917 0.95248 0.65552 0.0
C748 C 0.273 0.93721 0.59148 0.0
C749 C 0.26437 0.91403 0.6051 0.0
C750 C 0.27119 0.9536 0.61723 0.0
C751 C 0.26074 0.94671 0.65771 0.0
C752 C 0.25191 0.92334 0.67156 0.0
C753 C 0.25371 0.90724 0.64501 0.0
C754 C 0.28057 0.97833 0.60125 0.0
C755 C 0.24084 0.9154 0.71471 0.0
H756 H 0.29039 0.00358 0.76362 0.0
H757 H 0.22227 0.98394 0.71366 0.0
H758 H 0.29473 0.957 0.72434 0.0
H759 H 0.3081 0.9789 0.68423 0.0
H760 H 0.31273 0.98737 0.73919 0.0
H761 H 0.20516 0.95715 0.65802 0.0
H762 H 0.22566 0.9554 0.62243 0.0
H763 H 0.21137 0.93348 0.66223 0.0
H764 H 0.28115 0.94257 0.56061 0.0
H765 H 0.24706 0.8894 0.65587 0.0
H766 H 0.29481 0.99089 0.62231 0.0
H767 H 0.26651 0.98294 0.60183 0.0
H768 H 0.28755 0.98069 0.5685 0.0
H769 H 0.25369 0.92596 0.73963 0.0
H770 H 0.23468 0.89656 0.72058 0.0
H771 H 0.2257 0.9183 0.71793 0.0
C772 C 0.0167 0.25273 0.7145 0.0
C773 C 0.00423 0.25871 0.74308 0.0
C774 C 0.0334 0.26954 0.68703 0.0
C775 C 0.03778 0.29289 0.68838 0.0
C776 C 0.02531 0.29905 0.71724 0.0
C777 C 0.00863 0.28187 0.74415 0.0
C778 C 0.04626 0.26232 0.65643 0.0
C779 C 0.02955 0.3238 0.71966 0.0
C780 C 0.09456 0.3426 0.64386 0.0
C781 C 0.08701 0.34683 0.60505 0.0
C782 C 0.07881 0.3248 0.67105 0.0
C783 C 0.05501 0.31084 0.65898 0.0
C784 C 0.04742 0.3146 0.6194 0.0
C785 C 0.06348 0.33258 0.59299 0.0
C786 C 0.08749 0.32131 0.71314 0.0
C787 C 0.02222 0.29994 0.60529 0.0
H788 H 0.01339 0.23487 0.71347 0.0
H789 H 0.99913 0.28667 0.76622 0.0
H790 H 0.04279 0.26554 0.62346 0.0
H791 H 0.06545 0.27308 0.66167 0.0
H792 H 0.04098 0.24351 0.65964 0.0
H793 H 0.01874 0.32582 0.74447 0.0
H794 H 0.04832 0.33621 0.72646 0.0
H795 H 0.02547 0.3289 0.68874 0.0
H796 H 0.11269 0.35351 0.65345 0.0
H797 H 0.05749 0.33558 0.56294 0.0
H798 H 0.08332 0.30284 0.71645 0.0
H799 H 0.07839 0.32486 0.73921 0.0
H800 H 0.10671 0.333 0.71706 0.0
H801 H 0.01675 0.28104 0.60633 0.0
H802 H 0.0194 0.30438 0.57271 0.0
H803 H 0.0106 0.30262 0.62722 0.0
C804 C 0.91902 0.57108 0.62154 0.0
C805 C 0.92418 0.58907 0.59234 0.0
C806 C 0.93621 0.57242 0.64949 0.0
C807 C 0.95914 0.5921 0.64785 0.0
C808 C 0.96438 0.61044 0.61881 0.0
C809 C 0.9468 0.60876 0.59156 0.0
C810 C 0.92994 0.55265 0.68039 0.0
C811 C 0.98869 0.63161 0.6159 0.0
C812 C 0.00081 0.60601 0.74047 0.0
C813 C 0.01465 0.5966 0.7266 0.0
C814 C 0.9824 0.60433 0.71548 0.0
C815 C 0.97791 0.5932 0.67552 0.0
C816 C 0.99171 0.58355 0.66144 0.0
C817 C 0.00982 0.58525 0.68724 0.0
C818 C 0.96787 0.6146 0.7317 0.0
C819 C 0.98757 0.57173 0.61881 0.0
H820 H 0.90155 0.55587 0.62248 0.0
H821 H 0.95094 0.62272 0.56904 0.0
H822 H 0.94046 0.54413 0.67353 0.0
H823 H 0.93424 0.55963 0.71312 0.0
H824 H 0.91104 0.53912 0.679 0.0
H825 H 0.98976 0.64458 0.59221 0.0
H826 H 0.99413 0.6404 0.64714 0.0
H827 H 0.00147 0.62601 0.60706 0.0
H828 H 0.00432 0.61469 0.77095 0.0
H829 H 0.02044 0.57798 0.67619 0.0
H830 H 0.94904 0.60094 0.73208 0.0
H831 H 0.96973 0.62875 0.7102 0.0
H832 H 0.9731 0.62195 0.7641 0.0
H833 H 0.96927 0.55694 0.6167 0.0
H834 H 0.99969 0.5649 0.61276 0.0
H835 H 0.98992 0.58434 0.59338 0.0
C836 C 0.39401 0.39527 0.74011 0.0
C837 C 0.40527 0.41905 0.72865 0.0
C838 C 0.39528 0.37863 0.71423 0.0
C839 C 0.40802 0.38592 0.67585 0.0
C840 C 0.41977 0.40992 0.66441 0.0
C841 C 0.41832 0.42622 0.69101 0.0
C842 C 0.38267 0.35319 0.7276 0.0
C843 C 0.43345 0.41832 0.62361 0.0
C844 C 0.42657 0.34618 0.62202 0.0
C845 C 0.40923 0.33542 0.59082 0.0
C846 C 0.4263 0.36253 0.65019 0.0
C847 C 0.40835 0.36831 0.6469 0.0
C848 C 0.39072 0.3574 0.61568 0.0
C849 C 0.39133 0.34103 0.5881 0.0
C850 C 0.44529 0.37372 0.68331 0.0
C851 C 0.37132 0.36318 0.61113 0.0
H852 H 0.38399 0.38956 0.76923 0.0
H853 H 0.42708 0.44454 0.68186 0.0
H854 H 0.3688 0.34252 0.70423 0.0
H855 H 0.39508 0.34642 0.7283 0.0
H856 H 0.37441 0.35056 0.75929 0.0
H857 H 0.44221 0.43767 0.61999 0.0
H858 H 0.44698 0.41299 0.62222 0.0
H859 H 0.42151 0.41001 0.59631 0.0
H860 H 0.44042 0.34189 0.6244 0.0
H861 H 0.37788 0.33281 0.56407 0.0
H862 H 0.43734 0.3704 0.71532 0.0
H863 H 0.45528 0.39301 0.67872 0.0
H864 H 0.45775 0.36698 0.68219 0.0
H865 H 0.36136 0.35943 0.64118 0.0
H866 H 0.35889 0.35305 0.58532 0.0
H867 H 0.37893 0.38217 0.60448 0.0
C868 C 0.57413 0.98938 0.68927 0.0
C869 C 0.58169 0.97936 0.72021 0.0
C870 C 0.58977 0.00482 0.65884 0.0
C871 C 0.61342 0.01008 0.65904 0.0
C872 C 0.6212 0.0002 0.69039 0.0
C873 C 0.60529 0.98509 0.72076 0.0
C874 C 0.58094 0.01533 0.62624 0.0
C875 C 0.64623 0.0052 0.69134 0.0
C876 C 0.64804 0.03073 0.55664 0.0
C877 C 0.66196 0.05491 0.56377 0.0
C878 C 0.63216 0.01593 0.58742 0.0
C879 C 0.62998 0.0256 0.62601 0.0
C880 C 0.64389 0.05001 0.63331 0.0
C881 C 0.65983 0.06436 0.60221 0.0
C882 C 0.61783 0.98992 0.57875 0.0
C883 C 0.64188 0.06098 0.67392 0.0
H884 H 0.55595 0.98512 0.68876 0.0
H885 H 0.61127 0.97732 0.74437 0.0
H886 H 0.59171 0.03475 0.62699 0.0
H887 H 0.58269 0.00959 0.59411 0.0
H888 H 0.56228 0.01018 0.63143 0.0
H889 H 0.64954 0.99631 0.71812 0.0
H890 H 0.65036 0.99927 0.66134 0.0
H891 H 0.65849 0.02435 0.69396 0.0
H892 H 0.64964 0.0233 0.52707 0.0
H893 H 0.67045 0.08305 0.60788 0.0
H894 H 0.59885 0.98408 0.58033 0.0
H895 H 0.62139 0.98008 0.60335 0.0
H896 H 0.62168 0.98517 0.54722 0.0
H897 H 0.62353 0.057 0.67842 0.0
H898 H 0.6536 0.08033 0.6743 0.0
H899 H 0.64635 0.0534 0.70128 0.0
C900 C 0.38729 0.06086 0.07087 0.0
C901 C 0.40968 0.08086 0.07216 0.0
C902 C 0.36996 0.05965 0.0435 0.0
C903 C 0.37523 0.07881 0.01648 0.0
C904 C 0.39791 0.09889 0.01708 0.0
C905 C 0.41485 0.09972 0.04507 0.0
C906 C 0.34591 0.038 0.04392 0.0
C907 C 0.40422 0.11954 0.98835 0.0
C908 C 0.33542 0.06583 0.92141 0.0
C909 C 0.32031 0.0737 0.93543 0.0
C910 C 0.35374 0.06791 0.94708 0.0
C911 C 0.35686 0.07786 0.98791 0.0
C912 C 0.34192 0.08618 0.00202 0.0
C913 C 0.32389 0.08412 0.9755 0.0
C914 C 0.36953 0.05912 0.93077 0.0
C915 C 0.34462 0.09674 0.04552 0.0
H916 H 0.38314 0.04623 0.09177 0.0
H917 H 0.43214 0.1152 0.04578 0.0
H918 H 0.33252 0.04285 0.05238 0.0
H919 H 0.34148 0.03002 0.01193 0.0
H920 H 0.34468 0.0246 0.06676 0.0
H921 H 0.42283 0.13356 0.99189 0.0
H922 H 0.40109 0.11371 0.95486 0.0
H923 H 0.39284 0.1271 0.99539 0.0
H924 H 0.3329 0.05793 0.89036 0.0
H925 H 0.31227 0.0902 0.98662 0.0
H926 H 0.3676 0.04442 0.95081 0.0
H927 H 0.38815 0.07325 0.93268 0.0
H928 H 0.3655 0.05293 0.8975 0.0
H929 H 0.34189 0.08351 0.06998 0.0
H930 H 0.33198 0.10296 0.05125 0.0
H931 H 0.36267 0.11172 0.04968 0.0
C932 C 0.90319 0.319 0.04478 0.0
C933 C 0.92091 0.33085 0.07492 0.0
C934 C 0.90379 0.30258 0.01722 0.0
C935 C 0.92247 0.29784 0.02009 0.0
C936 C 0.94043 0.30977 0.05039 0.0
C937 C 0.93947 0.32619 0.07734 0.0
C938 C 0.88444 0.2903 0.98504 0.0
C939 C 0.9606 0.30511 0.05449 0.0
C940 C 0.91487 0.24068 0.9766 0.0
C941 C 0.92742 0.2481 0.93848 0.0
C942 C 0.91282 0.25663 0.00322 0.0
C943 C 0.92343 0.28051 0.99127 0.0
C944 C 0.93567 0.28802 0.95244 0.0
C945 C 0.93758 0.27175 0.92658 0.0
C946 C 0.89971 0.24802 0.04453 0.0
C947 C 0.94707 0.31333 0.93852 0.0
H948 H 0.88882 0.32254 0.04266 0.0
H949 H 0.95321 0.33523 0.1006 0.0
H950 H 0.89196 0.29374 0.95267 0.0
H951 H 0.8754 0.27106 0.99011 0.0
H952 H 0.87123 0.29608 0.98672 0.0
H953 H 0.97305 0.31574 0.07993 0.0
H954 H 0.95382 0.28627 0.06141 0.0
H955 H 0.97036 0.3091 0.02417 0.0
H956 H 0.90696 0.22246 0.98607 0.0
H957 H 0.94719 0.27765 0.89708 0.0
H958 H 0.88555 0.25246 0.04637 0.0
H959 H 0.91182 0.25694 0.07136 0.0
H960 H 0.89183 0.22877 0.04854 0.0
H961 H 0.93394 0.31921 0.93814 0.0
H962 H 0.95507 0.31612 0.90657 0.0
H963 H 0.96094 0.32464 0.96139 0.0
C964 C 0.67648 0.61352 0.07844 0.0
C965 C 0.67336 0.59082 0.07883 0.0
C966 C 0.69266 0.63075 0.051 0.0
C967 C 0.70584 0.62507 0.02293 0.0
C968 C 0.70263 0.60215 0.02286 0.0
C969 C 0.68651 0.58531 0.051 0.0
C970 C 0.69574 0.65508 0.05222 0.0
C971 C 0.7162 0.59541 0.99298 0.0
C972 C 0.73115 0.66462 0.92719 0.0
C973 C 0.75446 0.67951 0.93976 0.0
C974 C 0.7153 0.64641 0.95349 0.0
C975 C 0.72288 0.64318 0.99353 0.0
C976 C 0.74647 0.65786 0.00614 0.0
C977 C 0.76203 0.67578 0.97897 0.0
C978 C 0.69034 0.63091 0.93876 0.0
C979 C 0.75511 0.65504 0.04879 0.0
H980 H 0.66646 0.61794 0.09998 0.0
H981 H 0.68413 0.56778 0.05104 0.0
H982 H 0.71429 0.66816 0.05931 0.0
H983 H 0.69156 0.65958 0.02082 0.0
H984 H 0.68437 0.65672 0.07635 0.0
H985 H 0.71148 0.57677 0.99662 0.0
H986 H 0.7128 0.59833 0.95978 0.0
H987 H 0.7353 0.60669 0.99864 0.0
H988 H 0.7252 0.66726 0.89679 0.0
H989 H 0.77999 0.68724 0.98897 0.0
H990 H 0.67817 0.63321 0.95987 0.0
H991 H 0.68554 0.6122 0.94053 0.0
H992 H 0.6876 0.6349 0.9058 0.0
H993 H 0.74539 0.65819 0.07425 0.0
H994 H 0.77417 0.66736 0.05321 0.0
H995 H 0.75168 0.63685 0.05264 0.0
C996 C 0.58669 0.90474 0.95914 0.0
C997 C 0.59273 0.92169 0.92738 0.0
C998 C 0.60365 0.90574 0.9873 0.0
C999 C 0.6272 0.92406 0.98343 0.0
C1000 C 0.63338 0.9413 0.95161 0.0
C1001 C 0.61606 0.93994 0.92404 0.0
C1002 C 0.59641 0.88713 0.02103 0.0
C1003 C 0.65834 0.96107 0.94644 0.0
C1004 C 0.66899 0.94009 0.07628 0.0
C1005 C 0.6819 0.92918 0.06518 0.0
C1006 C 0.65083 0.93819 0.05037 0.0
C1007 C 0.6455 0.92516 0.01235 0.0
C1008 C 0.65817 0.91379 0.00125 0.0
C1009 C 0.67618 0.91588 0.02785 0.0
C1010 C 0.63758 0.95044 0.06333 0.0
C1011 C 0.65302 0.89979 0.96085 0.0
H1012 H 0.56869 0.89061 0.962 0.0
H1013 H 0.62089 0.95311 0.89958 0.0
H1014 H 0.60611 0.8775 0.01679 0.0
H1015 H 0.60102 0.89542 0.05278 0.0
H1016 H 0.5773 0.8743 0.0203 0.0
H1017 H 0.66022 0.97315 0.92025 0.0
H1018 H 0.66449 0.97135 0.97617 0.0
H1019 H 0.67006 0.95383 0.94002 0.0
H1020 H 0.67319 0.95032 0.10514 0.0
H1021 H 0.68602 0.90738 0.01897 0.0
H1022 H 0.61849 0.9377 0.06451 0.0
H1023 H 0.6403 0.96395 0.03948 0.0
H1024 H 0.64323 0.95908 0.09472 0.0
H1025 H 0.63428 0.8859 0.9599 0.0
H1026 H 0.664 0.89143 0.95745 0.0
H1027 H 0.65623 0.91141 0.93321 0.0
C1028 C 0.1002 0.68553 0.94842 0.0
C1029 C 0.08171 0.67258 0.92019 0.0
C1030 C 0.09932 0.70145 0.97687 0.0
C1031 C 0.07959 0.70465 0.97671 0.0
C1032 C 0.06088 0.69161 0.9483 0.0
C1033 C 0.0621 0.67564 0.92055 0.0
C1034 C 0.11948 0.71486 0.00707 0.0
C1035 C 0.03964 0.6947 0.94696 0.0
C1036 C 0.06558 0.73015 0.07259 0.0
C1037 C 0.07433 0.75354 0.06017 0.0
C1038 C 0.06766 0.71417 0.04612 0.0
C1039 C 0.0785 0.7217 0.00609 0.0
C1040 C 0.08765 0.74533 0.99355 0.0
C1041 C 0.08558 0.76101 0.02086 0.0
C1042 C 0.05795 0.68916 0.06076 0.0
C1043 C 0.09914 0.75393 0.95091 0.0
H1044 H 0.11537 0.68319 0.94843 0.0
H1045 H 0.04778 0.66575 0.89872 0.0
H1046 H 0.12746 0.73398 0.00143 0.0
H1047 H 0.113 0.71147 0.04017 0.0
H1048 H 0.13334 0.71003 0.00372 0.0
H1049 H 0.02665 0.68332 0.92281 0.0
H1050 H 0.03091 0.69056 0.97833 0.0
H1051 H 0.04513 0.71325 0.93979 0.0
H1052 H 0.05702 0.72426 0.10303 0.0
H1053 H 0.09234 0.77903 0.01095 0.0
H1054 H 0.0718 0.68426 0.0593 0.0
H1055 H 0.04359 0.67708 0.03939 0.0
H1056 H 0.05103 0.68639 0.09359 0.0
H1057 H 0.11395 0.75054 0.94722 0.0
H1058 H 0.10586 0.77298 0.94638 0.0
H1059 H 0.08634 0.74416 0.92541 0.0
C1060 C 0.24173 0.32781 0.02502 0.0
C1061 C 0.24825 0.32071 0.062 0.0
C1062 C 0.2585 0.34606 0.99993 0.0
C1063 C 0.28235 0.35762 0.01224 0.0
C1064 C 0.28903 0.35094 0.04998 0.0
C1065 C 0.2719 0.33251 0.07436 0.0
C1066 C 0.25074 0.35263 0.95974 0.0
C1067 C 0.3143 0.36301 0.0642 0.0
C1068 C 0.32722 0.38701 0.92494 0.0
C1069 C 0.33279 0.41047 0.92885 0.0
C1070 C 0.31109 0.36971 0.95231 0.0
C1071 C 0.30039 0.37604 0.98457 0.0
C1072 C 0.30631 0.39976 0.98933 0.0
C1073 C 0.32241 0.41671 0.96129 0.0
C1074 C 0.30513 0.34456 0.94614 0.0
C1075 C 0.29536 0.40715 0.02361 0.0
H1076 H 0.22352 0.31884 0.01517 0.0
H1077 H 0.2771 0.32724 0.10299 0.0
H1078 H 0.25635 0.37157 0.96005 0.0
H1079 H 0.25921 0.34954 0.93205 0.0
H1080 H 0.23141 0.3424 0.95534 0.0
H1081 H 0.31643 0.35652 0.09539 0.0
H1082 H 0.32505 0.36012 0.04052 0.0
H1083 H 0.32141 0.38222 0.0664 0.0
H1084 H 0.33518 0.38204 0.89999 0.0
H1085 H 0.32672 0.43482 0.96465 0.0
H1086 H 0.28621 0.3335 0.93858 0.0
H1087 H 0.3084 0.33763 0.97579 0.0
H1088 H 0.31548 0.34266 0.92027 0.0
H1089 H 0.27614 0.39853 0.01857 0.0
H1090 H 0.30266 0.42645 0.02432 0.0
H1091 H 0.29817 0.40142 0.05499 0.0
C1092 C 0.9905 0.41818 0.3107 0.0
C1093 C 0.98548 0.40595 0.27224 0.0
C1094 C 0.00832 0.41988 0.3374 0.0
C1095 C 0.02152 0.40923 0.32519 0.0
C1096 C 0.01689 0.3973 0.28604 0.0
C1097 C 0.99889 0.39574 0.26011 0.0
C1098 C 0.01271 0.43266 0.37905 0.0
C1099 C 0.03073 0.38588 0.27182 0.0
C1100 C 0.0801 0.42892 0.37877 0.0
C1101 C 0.07413 0.41099 0.40852 0.0
C1102 C 0.06316 0.42857 0.35136 0.0
C1103 C 0.0397 0.40992 0.35395 0.0
C1104 C 0.03357 0.39175 0.38384 0.0
C1105 C 0.05088 0.39247 0.41067 0.0
C1106 C 0.07035 0.44815 0.31963 0.0
C1107 C 0.00871 0.3716 0.38761 0.0
H1108 H 0.98024 0.42612 0.32036 0.0
H1109 H 0.99526 0.38637 0.23034 0.0
H1110 H 0.00942 0.42034 0.40556 0.0
H1111 H 0.03132 0.44678 0.38119 0.0
H1112 H 0.00136 0.44055 0.38333 0.0
H1113 H 0.02557 0.37807 0.23972 0.0
H1114 H 0.04976 0.39895 0.27162 0.0
H1115 H 0.02806 0.37185 0.2944 0.0
H1116 H 0.09803 0.44327 0.37686 0.0
H1117 H 0.04611 0.37856 0.43362 0.0
H1118 H 0.06017 0.45719 0.32499 0.0
H1119 H 0.06633 0.44085 0.28709 0.0
H1120 H 0.08934 0.46131 0.32152 0.0
H1121 H 0.99668 0.37839 0.39477 0.0
H1122 H 0.0068 0.35898 0.41276 0.0
H1123 H 0.00298 0.36205 0.35709 0.0
C1124 C 0.60951 0.66148 0.40894 0.0
C1125 C 0.59149 0.66685 0.40507 0.0
C1126 C 0.6108 0.64537 0.38163 0.0
C1127 C 0.59372 0.63447 0.34952 0.0
C1128 C 0.57574 0.64015 0.34487 0.0
C1129 C 0.5748 0.65624 0.3728 0.0
C1130 C 0.63019 0.6397 0.38764 0.0
C1131 C 0.55732 0.62896 0.31079 0.0
C1132 C 0.6088 0.60654 0.25877 0.0
C1133 C 0.59713 0.58284 0.2708 0.0
C1134 C 0.6075 0.62351 0.2837 0.0
C1135 C 0.59433 0.61662 0.32165 0.0
C1136 C 0.58228 0.59271 0.33372 0.0
C1137 C 0.58376 0.57611 0.30811 0.0
C1138 C 0.62047 0.64884 0.26972 0.0
C1139 C 0.56812 0.58472 0.37409 0.0
H1140 H 0.62249 0.66961 0.43377 0.0
H1141 H 0.56088 0.66037 0.3695 0.0
H1142 H 0.62254 0.6208 0.39511 0.0
H1143 H 0.64038 0.64312 0.35795 0.0
H1144 H 0.64241 0.65013 0.4135 0.0
H1145 H 0.54506 0.63595 0.31035 0.0
H1146 H 0.5658 0.63196 0.2793 0.0
H1147 H 0.54702 0.60972 0.31578 0.0
H1148 H 0.61908 0.61192 0.22992 0.0
H1149 H 0.57467 0.55785 0.3177 0.0
H1150 H 0.63399 0.65964 0.29352 0.0
H1151 H 0.60817 0.6557 0.26756 0.0
H1152 H 0.62919 0.65118 0.23856 0.0
H1153 H 0.57973 0.59332 0.40167 0.0
H1154 H 0.55933 0.56541 0.37843 0.0
H1155 H 0.55456 0.59002 0.37409 0.0
C1156 C 0.35194 0.92124 0.37846 0.0
C1157 C 0.33843 0.92579 0.40715 0.0
C1158 C 0.36721 0.93854 0.35002 0.0
C1159 C 0.36918 0.96096 0.3506 0.0
C1160 C 0.35538 0.96555 0.3791 0.0
C1161 C 0.34008 0.94788 0.40689 0.0
C1162 C 0.3815 0.93293 0.31977 0.0
C1163 C 0.35713 0.98931 0.38087 0.0
C1164 C 0.42562 0.01282 0.31042 0.0
C1165 C 0.41889 0.01664 0.27041 0.0
C1166 C 0.40962 0.99472 0.33673 0.0
C1167 C 0.38635 0.97992 0.32259 0.0
C1168 C 0.37948 0.98347 0.28209 0.0
C1169 C 0.3958 0.00188 0.25655 0.0
C1170 C 0.41755 0.99161 0.37989 0.0
C1171 C 0.35487 0.96788 0.26583 0.0
H1172 H 0.35066 0.90418 0.37829 0.0
H1173 H 0.32972 0.95154 0.42897 0.0
H1174 H 0.37858 0.93664 0.28678 0.0
H1175 H 0.40046 0.94431 0.32667 0.0
H1176 H 0.37708 0.91432 0.32188 0.0
H1177 H 0.34472 0.98985 0.40406 0.0
H1178 H 0.37523 0.00287 0.38975 0.0
H1179 H 0.35351 0.99409 0.34924 0.0
H1180 H 0.44339 0.02417 0.32151 0.0
H1181 H 0.39047 0.00462 0.22562 0.0
H1182 H 0.41506 0.97371 0.38282 0.0
H1183 H 0.4067 0.99348 0.40478 0.0
H1184 H 0.43628 0.00457 0.38606 0.0
H1185 H 0.35061 0.9493 0.26597 0.0
H1186 H 0.35247 0.97261 0.23321 0.0
H1187 H 0.34208 0.96912 0.28699 0.0
C1188 C 0.15933 0.37672 0.36064 0.0
C1189 C 0.1618 0.3733 0.40366 0.0
C1190 C 0.16196 0.36295 0.32951 0.0
C1191 C 0.16745 0.34556 0.34177 0.0
C1192 C 0.17069 0.34257 0.38514 0.0
C1193 C 0.16766 0.35636 0.41557 0.0
C1194 C 0.15829 0.36662 0.28362 0.0
C1195 C 0.17676 0.32436 0.39953 0.0
C1196 C 0.15214 0.29358 0.26944 0.0
C1197 C 0.17389 0.30021 0.25097 0.0
C1198 C 0.14967 0.30838 0.2985 0.0
C1199 C 0.1695 0.3302 0.30943 0.0
C1200 C 0.19144 0.33704 0.29036 0.0
C1201 C 0.19332 0.32202 0.26112 0.0
C1202 C 0.12592 0.30056 0.31788 0.0
C1203 C 0.21302 0.36006 0.30129 0.0
H1204 H 0.15479 0.38982 0.35144 0.0
H1205 H 0.16901 0.35324 0.44881 0.0
H1206 H 0.17404 0.37043 0.26483 0.0
H1207 H 0.14336 0.35033 0.27059 0.0
H1208 H 0.15462 0.38123 0.27926 0.0
H1209 H 0.17984 0.32506 0.43419 0.0
H1210 H 0.16228 0.30658 0.39126 0.0
H1211 H 0.19273 0.32692 0.38295 0.0
H1212 H 0.13713 0.27671 0.26144 0.0
H1213 H 0.21008 0.3273 0.24624 0.0
H1214 H 0.12076 0.31402 0.31242 0.0
H1215 H 0.12676 0.29866 0.35262 0.0
H1216 H 0.11209 0.28358 0.30471 0.0
H1217 H 0.20989 0.37483 0.2948 0.0
H1218 H 0.22869 0.36292 0.28316 0.0
H1219 H 0.21687 0.36053 0.33557 0.0
C1220 C 0.62815 0.78668 0.36778 0.0
C1221 C 0.63051 0.79207 0.41105 0.0
C1222 C 0.64259 0.80339 0.33771 0.0
C1223 C 0.65929 0.8263 0.35113 0.0
C1224 C 0.66112 0.83212 0.39464 0.0
C1225 C 0.64698 0.81483 0.42414 0.0
C1226 C 0.6404 0.79634 0.29173 0.0
C1227 C 0.67825 0.85652 0.41012 0.0
C1228 C 0.71212 0.86501 0.28189 0.0
C1229 C 0.70447 0.87872 0.26101 0.0
C1230 C 0.69741 0.84752 0.31074 0.0
C1231 C 0.67484 0.84421 0.31967 0.0
C1232 C 0.66714 0.85814 0.29874 0.0
C1233 C 0.68189 0.87491 0.26914 0.0
C1234 C 0.70602 0.83262 0.33167 0.0
C1235 C 0.64345 0.85557 0.30802 0.0
H1236 H 0.61534 0.76914 0.35756 0.0
H1237 H 0.64932 0.81899 0.45757 0.0
H1238 H 0.63588 0.80756 0.27234 0.0
H1239 H 0.65748 0.79905 0.28001 0.0
H1240 H 0.62682 0.7777 0.28661 0.0
H1241 H 0.67641 0.85861 0.44455 0.0
H1242 H 0.69647 0.86054 0.40381 0.0
H1243 H 0.67561 0.86966 0.39271 0.0
H1244 H 0.72965 0.8681 0.27593 0.0
H1245 H 0.67581 0.88528 0.25249 0.0
H1246 H 0.69332 0.81376 0.32626 0.0
H1247 H 0.70731 0.83557 0.36635 0.0
H1248 H 0.72347 0.83655 0.3196 0.0
H1249 H 0.62933 0.83756 0.30015 0.0
H1250 H 0.64041 0.86826 0.28989 0.0
H1251 H 0.64197 0.85828 0.34229 0.0
C1252 C 0.14656 0.83261 0.24786 0.0
C1253 C 0.12398 0.82743 0.25989 0.0
C1254 C 0.1634 0.83565 0.27826 0.0
C1255 C 0.15733 0.83292 0.32171 0.0
C1256 C 0.13458 0.82785 0.33406 0.0
C1257 C 0.11826 0.82541 0.30298 0.0
C1258 C 0.18758 0.84144 0.26383 0.0
C1259 C 0.12734 0.82452 0.38 0.0
C1260 C 0.19449 0.81868 0.39482 0.0
C1261 C 0.20944 0.84062 0.41284 0.0
C1262 C 0.17704 0.81576 0.36578 0.0
C1263 C 0.17483 0.83537 0.35414 0.0
C1264 C 0.18977 0.85751 0.37271 0.0
C1265 C 0.20669 0.85979 0.4022 0.0
C1266 C 0.16117 0.79179 0.34721 0.0
C1267 C 0.18819 0.8789 0.36084 0.0
H1268 H 0.15091 0.83363 0.21458 0.0
H1269 H 0.1008 0.82143 0.3123 0.0
H1270 H 0.20109 0.85759 0.27983 0.0
H1271 H 0.19087 0.82704 0.27276 0.0
H1272 H 0.18984 0.8441 0.22906 0.0
H1273 H 0.10896 0.82056 0.38432 0.0
H1274 H 0.12906 0.80992 0.39366 0.0
H1275 H 0.1391 0.84055 0.39829 0.0
H1276 H 0.19664 0.80388 0.40311 0.0
H1277 H 0.218 0.87669 0.41675 0.0
H1278 H 0.16397 0.79221 0.31253 0.0
H1279 H 0.14253 0.78667 0.35236 0.0
H1280 H 0.16432 0.77813 0.36124 0.0
H1281 H 0.19138 0.88231 0.3264 0.0
H1282 H 0.20107 0.89483 0.37832 0.0
H1283 H 0.17031 0.87581 0.36741 0.0
C1284 C 0.82493 0.71102 0.6939 0.0
C1285 C 0.82784 0.70754 0.73671 0.0
C1286 C 0.82742 0.69742 0.66225 0.0
C1287 C 0.83327 0.68017 0.67375 0.0
C1288 C 0.8369 0.6771 0.71688 0.0
C1289 C 0.83394 0.69068 0.74783 0.0
C1290 C 0.82325 0.7011 0.61665 0.0
C1291 C 0.8434 0.65908 0.73045 0.0
C1292 C 0.8186 0.62826 0.60172 0.0
C1293 C 0.8404 0.6352 0.58316 0.0
C1294 C 0.81583 0.64304 0.63039 0.0
C1295 C 0.83542 0.66512 0.64091 0.0
C1296 C 0.85736 0.67235 0.62146 0.0
C1297 C 0.85952 0.65737 0.59255 0.0
C1298 C 0.79208 0.63483 0.65009 0.0
C1299 C 0.8787 0.69563 0.632 0.0
H1300 H 0.8202 0.72406 0.6853 0.0
H1301 H 0.83558 0.68746 0.78091 0.0
H1302 H 0.83893 0.70527 0.59732 0.0
H1303 H 0.80841 0.68471 0.60372 0.0
H1304 H 0.81919 0.71548 0.61291 0.0
H1305 H 0.84671 0.65967 0.76502 0.0
H1306 H 0.82906 0.64125 0.72213 0.0
H1307 H 0.85936 0.66196 0.71339 0.0
H1308 H 0.80384 0.61113 0.59429 0.0
H1309 H 0.8763 0.66288 0.57758 0.0
H1310 H 0.78672 0.6482 0.6454 0.0
H1311 H 0.79303 0.63262 0.6847 0.0
H1312 H 0.77834 0.61791 0.63656 0.0
H1313 H 0.87504 0.71012 0.62628 0.0
H1314 H 0.89429 0.69894 0.61309 0.0
H1315 H 0.88299 0.6961 0.66607 0.0
C1316 C 0.28827 0.13657 0.71921 0.0
C1317 C 0.29632 0.12313 0.73984 0.0
C1318 C 0.30267 0.15415 0.69024 0.0
C1319 C 0.32535 0.15784 0.68096 0.0
C1320 C 0.33347 0.14421 0.70171 0.0
C1321 C 0.31901 0.12732 0.73141 0.0
C1322 C 0.2936 0.16871 0.66949 0.0
C1323 C 0.35729 0.14719 0.69208 0.0
C1324 C 0.35239 0.18685 0.57587 0.0
C1325 C 0.36877 0.20972 0.58851 0.0
C1326 C 0.33851 0.16966 0.60571 0.0
C1327 C 0.34051 0.1757 0.64913 0.0
C1328 C 0.35706 0.19876 0.66209 0.0
C1329 C 0.37126 0.21537 0.63167 0.0
C1330 C 0.3215 0.14511 0.59071 0.0
C1331 C 0.35941 0.20603 0.70795 0.0
H1332 H 0.27066 0.13319 0.72545 0.0
H1333 H 0.3254 0.11716 0.74787 0.0
H1334 H 0.30615 0.18765 0.67457 0.0
H1335 H 0.29211 0.16562 0.63485 0.0
H1336 H 0.27617 0.16458 0.68196 0.0
H1337 H 0.36074 0.1348 0.7103 0.0
H1338 H 0.35863 0.14434 0.65781 0.0
H1339 H 0.37123 0.16535 0.69953 0.0
H1340 H 0.34993 0.18249 0.54253 0.0
H1341 H 0.38399 0.23302 0.64154 0.0
H1342 H 0.30326 0.14086 0.59749 0.0
H1343 H 0.32453 0.13221 0.60807 0.0
H1344 H 0.32312 0.14291 0.55624 0.0
H1345 H 0.34229 0.20306 0.71998 0.0
H1346 H 0.37277 0.22479 0.71268 0.0
H1347 H 0.36434 0.19514 0.72738 0.0
C1348 C 0.80612 0.18415 0.60634 0.0
C1349 C 0.79089 0.16219 0.58862 0.0
C1350 C 0.82345 0.1869 0.63551 0.0
C1351 C 0.82523 0.1671 0.64768 0.0
C1352 C 0.80991 0.14493 0.62962 0.0
C1353 C 0.79316 0.14282 0.59991 0.0
C1354 C 0.83976 0.21091 0.65349 0.0
C1355 C 0.81098 0.12333 0.64211 0.0
C1356 C 0.88156 0.17579 0.69776 0.0
C1357 C 0.87619 0.17417 0.74097 0.0
C1358 C 0.86524 0.17374 0.66701 0.0
C1359 C 0.84281 0.16943 0.67982 0.0
C1360 C 0.83707 0.16712 0.72341 0.0
C1361 C 0.85393 0.16981 0.75347 0.0
C1362 C 0.87214 0.17662 0.62091 0.0
C1363 C 0.8132 0.16209 0.73833 0.0
H1364 H 0.80433 0.1991 0.59758 0.0
H1365 H 0.7817 0.12591 0.58556 0.0
H1366 H 0.83722 0.21079 0.68821 0.0
H1367 H 0.85827 0.21566 0.648 0.0
H1368 H 0.83683 0.22467 0.63927 0.0
H1369 H 0.79762 0.10734 0.62543 0.0
H1370 H 0.8286 0.12586 0.63498 0.0
H1371 H 0.80818 0.12041 0.67672 0.0
H1372 H 0.89878 0.17915 0.68807 0.0
H1373 H 0.84987 0.1691 0.78684 0.0
H1374 H 0.87059 0.19126 0.60699 0.0
H1375 H 0.86007 0.16051 0.6031 0.0
H1376 H 0.89039 0.18025 0.61625 0.0
H1377 H 0.81029 0.17669 0.7291 0.0
H1378 H 0.81118 0.15978 0.77319 0.0
H1379 H 0.7993 0.14594 0.72291 0.0
C1380 C 0.4755 0.01353 0.06826 0.0
C1381 C 0.49451 0.03507 0.08106 0.0
C1382 C 0.47837 0.99937 0.03847 0.0
C1383 C 0.50092 0.00669 0.02166 0.0
C1384 C 0.52037 0.02807 0.03562 0.0
C1385 C 0.5169 0.04208 0.06511 0.0
C1386 C 0.45717 0.97679 0.02437 0.0
C1387 C 0.54474 0.0363 0.01892 0.0
C1388 C 0.51101 0.96042 0.96916 0.0
C1389 C 0.5096 0.96472 0.92613 0.0
C1390 C 0.50843 0.97405 0.00062 0.0
C1391 C 0.50398 0.9922 0.98873 0.0
C1392 C 0.50208 0.99631 0.94529 0.0
C1393 C 0.5051 0.98265 0.91452 0.0
C1394 C 0.51074 0.9692 0.04653 0.0
C1395 C 0.49707 0.01531 0.9313 0.0
H1396 H 0.45825 0.00785 0.08133 0.0
H1397 H 0.5316 0.05869 0.07522 0.0
H1398 H 0.45458 0.97739 0.98979 0.0
H1399 H 0.45995 0.96176 0.03035 0.0
H1400 H 0.44089 0.9735 0.04086 0.0
H1401 H 0.55814 0.05271 0.0345 0.0
H1402 H 0.54952 0.02253 0.0238 0.0
H1403 H 0.54524 0.03947 0.98436 0.0
H1404 H 0.51444 0.94652 0.97816 0.0
H1405 H 0.50449 0.98637 0.8813 0.0
H1406 H 0.4943 0.9646 0.06376 0.0
H1407 H 0.52502 0.9852 0.06163 0.0
H1408 H 0.51456 0.95467 0.05046 0.0
H1409 H 0.4805 0.01245 0.94585 0.0
H1410 H 0.49555 0.01587 0.89637 0.0
H1411 H 0.51129 0.03265 0.94226 0.0
C1412 C 0.04078 0.52722 0.93701 0.0
C1413 C 0.03401 0.54244 0.91939 0.0
C1414 C 0.02641 0.51011 0.96669 0.0
C1415 C 0.005 0.50851 0.97946 0.0
C1416 C 0.99809 0.5238 0.96148 0.0
C1417 C 0.01254 0.54037 0.9313 0.0
C1418 C 0.0342 0.49384 0.9846 0.0
C1419 C 0.97558 0.5229 0.97456 0.0
C1420 C 0.958 0.45231 0.03112 0.0
C1421 C 0.96221 0.45787 0.07422 0.0
C1422 C 0.97183 0.46857 0.99991 0.0
C1423 C 0.98999 0.49111 0.01211 0.0
C1424 C 0.99385 0.49705 0.05559 0.0
C1425 C 0.98008 0.48026 0.08613 0.0
C1426 C 0.96733 0.46146 0.95393 0.0
C1427 C 0.01276 0.52102 0.0699 0.0
H1428 H 0.0574 0.52886 0.9278 0.0
H1429 H 0.0071 0.55188 0.9171 0.0
H1430 H 0.03689 0.49657 0.01924 0.0
H1431 H 0.02036 0.47532 0.97955 0.0
H1432 H 0.05076 0.49665 0.96998 0.0
H1433 H 0.97284 0.53616 0.95778 0.0
H1434 H 0.9604 0.50525 0.96806 0.0
H1435 H 0.9758 0.52598 0.00913 0.0
H1436 H 0.94415 0.435 0.02189 0.0
H1437 H 0.98376 0.48448 0.11939 0.0
H1438 H 0.98334 0.46281 0.93954 0.0
H1439 H 0.96326 0.47353 0.93624 0.0
H1440 H 0.95259 0.44323 0.94973 0.0
H1441 H 0.03021 0.52389 0.06027 0.0
H1442 H 0.01274 0.52323 0.10475 0.0
H1443 H 0.01039 0.53482 0.05441 0.0
C1444 C 0.4803 0.50022 0.91229 0.0
C1445 C 0.45802 0.49593 0.92442 0.0
C1446 C 0.49717 0.50331 0.94268 0.0
C1447 C 0.49142 0.50154 0.98622 0.0
C1448 C 0.469 0.49742 0.99863 0.0
C1449 C 0.45266 0.49491 0.96755 0.0
C1450 C 0.52102 0.50808 0.92816 0.0
C1451 C 0.46209 0.49513 0.04469 0.0
C1452 C 0.52737 0.48675 0.06138 0.0
C1453 C 0.54278 0.50877 0.07868 0.0
C1454 C 0.51026 0.48404 0.03175 0.0
C1455 C 0.50886 0.50392 0.01871 0.0
C1456 C 0.52437 0.52617 0.03632 0.0
C1457 C 0.54093 0.52825 0.06647 0.0
C1458 C 0.49377 0.45995 0.01422 0.0
C1459 C 0.52368 0.54783 0.02293 0.0
H1460 H 0.48436 0.50048 0.87901 0.0
H1461 H 0.43542 0.49161 0.97694 0.0
H1462 H 0.53497 0.52426 0.94338 0.0
H1463 H 0.52376 0.49344 0.93791 0.0
H1464 H 0.52312 0.51015 0.89327 0.0
H1465 H 0.44396 0.49189 0.04905 0.0
H1466 H 0.4633 0.48044 0.05927 0.0
H1467 H 0.47437 0.51132 0.06209 0.0
H1468 H 0.52884 0.47171 0.07085 0.0
H1469 H 0.55259 0.54524 0.08043 0.0
H1470 H 0.49633 0.45979 0.97956 0.0
H1471 H 0.47531 0.45545 0.01948 0.0
H1472 H 0.49648 0.44616 0.02896 0.0
H1473 H 0.52661 0.55047 0.9883 0.0
H1474 H 0.53712 0.56388 0.03939 0.0
H1475 H 0.50613 0.5456 0.02961 0.0
C1476 C 0.19578 0.20807 0.03309 0.0
C1477 C 0.19271 0.20689 0.07705 0.0
C1478 C 0.20221 0.1933 0.01224 0.0
C1479 C 0.2047 0.17636 0.03582 0.0
C1480 C 0.19935 0.17364 0.0796 0.0
C1481 C 0.19399 0.18935 0.09994 0.0
C1482 C 0.20854 0.19741 0.96589 0.0
C1483 C 0.20074 0.15511 0.10548 0.0
C1484 C 0.21407 0.13249 0.97234 0.0
C1485 C 0.23833 0.14157 0.9769 0.0
C1486 C 0.20264 0.14297 0.99283 0.0
C1487 C 0.21599 0.16391 0.0161 0.0
C1488 C 0.24056 0.17361 0.01964 0.0
C1489 C 0.25131 0.16214 0.00068 0.0
C1490 C 0.17633 0.13172 0.98922 0.0
C1491 C 0.25565 0.1964 0.04285 0.0
H1492 H 0.19516 0.22191 0.01554 0.0
H1493 H 0.19163 0.18849 0.13398 0.0
H1494 H 0.22779 0.20519 0.96234 0.0
H1495 H 0.20008 0.18065 0.94814 0.0
H1496 H 0.20336 0.20949 0.95124 0.0
H1497 H 0.19205 0.1525 0.13674 0.0
H1498 H 0.19246 0.13812 0.08829 0.0
H1499 H 0.21939 0.1604 0.11093 0.0
H1500 H 0.20392 0.11754 0.95207 0.0
H1501 H 0.27009 0.16955 0.00408 0.0
H1502 H 0.17183 0.14265 0.96892 0.0
H1503 H 0.16844 0.13054 0.02082 0.0
H1504 H 0.16821 0.11385 0.97531 0.0
H1505 H 0.25286 0.21043 0.02955 0.0
H1506 H 0.27463 0.2022 0.04082 0.0
H1507 H 0.25059 0.19442 0.07671 0.0
C1508 C 0.83445 0.08207 0.97212 0.0
C1509 C 0.85889 0.09654 0.97137 0.0
C1510 C 0.82386 0.06042 0.99313 0.0
C1511 C 0.83805 0.05303 0.01419 0.0
C1512 C 0.86278 0.06714 0.01229 0.0
C1513 C 0.87293 0.08884 0.99111 0.0
C1514 C 0.79741 0.04593 0.9943 0.0
C1515 C 0.8785 0.05988 0.03427 0.0
C1516 C 0.80537 0.01318 0.10598 0.0
C1517 C 0.79593 0.99091 0.08733 0.0
C1518 C 0.82062 0.03354 0.08348 0.0
C1519 C 0.82664 0.03164 0.04125 0.0
C1520 C 0.81888 0.00916 0.02356 0.0
C1521 C 0.80359 0.98901 0.04685 0.0
C1522 C 0.82866 0.05713 0.10379 0.0
C1523 C 0.82522 0.0064 0.97888 0.0
H1524 H 0.82352 0.08791 0.95687 0.0
H1525 H 0.89178 0.10017 0.99176 0.0
H1526 H 0.79148 0.02777 0.98352 0.0
H1527 H 0.79117 0.04485 0.02729 0.0
H1528 H 0.78897 0.05345 0.97412 0.0
H1529 H 0.89713 0.07087 0.02453 0.0
H1530 H 0.87738 0.06158 0.069 0.0
H1531 H 0.87273 0.04123 0.02751 0.0
H1532 H 0.79983 0.01482 0.13749 0.0
H1533 H 0.79645 0.97192 0.03216 0.0
H1534 H 0.81956 0.06559 0.08861 0.0
H1535 H 0.84776 0.06888 0.09908 0.0
H1536 H 0.82485 0.05562 0.13827 0.0
H1537 H 0.81503 0.01074 0.95633 0.0
H1538 H 0.82129 0.9882 0.97241 0.0
H1539 H 0.84409 0.01866 0.97267 0.0
C1540 C 0.99239 0.79992 0.10739 0.0
C1541 C 0.01246 0.80496 0.08404 0.0
C1542 C 0.97134 0.79456 0.08696 0.0
C1543 C 0.97015 0.79319 0.04222 0.0
C1544 C 0.99077 0.79957 0.01852 0.0
C1545 C 0.01181 0.80581 0.0398 0.0
C1546 C 0.95003 0.78888 0.11332 0.0
C1547 C 0.99018 0.79766 0.97088 0.0
C1548 C 0.9121 0.74672 0.99615 0.0
C1549 C 0.90328 0.76018 0.97789 0.0
C1550 C 0.93384 0.7573 0.01685 0.0
C1551 C 0.94693 0.78203 0.02065 0.0
C1552 C 0.93806 0.79579 0.00297 0.0
C1553 C 0.9167 0.78474 0.98069 0.0
C1554 C 0.94297 0.74195 0.03403 0.0
C1555 C 0.95121 0.82217 0.00721 0.0
H1556 H 0.99292 0.79932 0.14165 0.0
H1557 H 0.02727 0.80941 0.02172 0.0
H1558 H 0.94051 0.79731 0.09979 0.0
H1559 H 0.93782 0.76965 0.11325 0.0
H1560 H 0.95476 0.79471 0.14666 0.0
H1561 H 0.00805 0.80566 0.957 0.0
H1562 H 0.9803 0.77887 0.9617 0.0
H1563 H 0.98096 0.80623 0.95681 0.0
H1564 H 0.9021 0.72776 0.99385 0.0
H1565 H 0.91095 0.79551 0.96477 0.0
H1566 H 0.94504 0.74399 0.06886 0.0
H1567 H 0.96053 0.74743 0.02048 0.0
H1568 H 0.93113 0.72309 0.02674 0.0
H1569 H 0.95644 0.8273 0.04063 0.0
H1570 H 0.9406 0.83003 0.99645 0.0
H1571 H 0.96751 0.82975 0.98811 0.0
C1572 C 0.74719 0.8378 0.99909 0.0
C1573 C 0.76069 0.85878 0.0215 0.0
C1574 C 0.75756 0.82616 0.97935 0.0
C1575 C 0.78223 0.83612 0.9806 0.0
C1576 C 0.79608 0.85748 0.00244 0.0
C1577 C 0.78508 0.8681 0.02386 0.0
C1578 C 0.74199 0.80293 0.95783 0.0
C1579 C 0.82249 0.869 0.00355 0.0
C1580 C 0.80304 0.7925 0.96274 0.0
C1581 C 0.80495 0.79297 0.91859 0.0
C1582 C 0.79669 0.80727 0.98379 0.0
C1583 C 0.79315 0.82353 0.96012 0.0
C1584 C 0.79725 0.82551 0.9159 0.0
C1585 C 0.80249 0.80974 0.89546 0.0
C1586 C 0.79163 0.80389 0.03066 0.0
C1587 C 0.79475 0.84334 0.88984 0.0
H1588 H 0.72832 0.83019 0.99742 0.0
H1589 H 0.79569 0.88338 0.04313 0.0
H1590 H 0.74603 0.80434 0.92353 0.0
H1591 H 0.74537 0.78926 0.97101 0.0
H1592 H 0.72306 0.79698 0.96167 0.0
H1593 H 0.83083 0.88712 0.01643 0.0
H1594 H 0.82773 0.85858 0.0236 0.0
H1595 H 0.82946 0.86967 0.97128 0.0
H1596 H 0.80457 0.77921 0.98047 0.0
H1597 H 0.80394 0.81001 0.86125 0.0
H1598 H 0.77248 0.7961 0.0359 0.0
H1599 H 0.80048 0.82094 0.04747 0.0
H1600 H 0.7973 0.79213 0.04502 0.0
H1601 H 0.7759 0.8377 0.88616 0.0
H1602 H 0.80251 0.84545 0.85781 0.0
H1603 H 0.80332 0.86064 0.90596 0.0
C1604 C 0.19888 0.98719 0.89574 0.0
C1605 C 0.20635 0.00963 0.91233 0.0
C1606 C 0.18352 0.96692 0.91833 0.0
C1607 C 0.1752 0.96906 0.95844 0.0
C1608 C 0.18101 0.99156 0.97373 0.0
C1609 C 0.19659 0.01163 0.95052 0.0
C1610 C 0.1777 0.94329 0.90066 0.0
C1611 C 0.17214 0.99455 0.01598 0.0
C1612 C 0.12832 0.91136 0.00589 0.0
C1613 C 0.14206 0.9048 0.02983 0.0
C1614 C 0.13864 0.9329 0.98416 0.0
C1615 C 0.16324 0.94804 0.98626 0.0
C1616 C 0.17698 0.94188 0.01188 0.0
C1617 C 0.16623 0.9203 0.03313 0.0
C1618 C 0.1234 0.93883 0.95722 0.0
C1619 C 0.20325 0.95754 0.01523 0.0
H1620 H 0.20603 0.98539 0.86597 0.0
H1621 H 0.20212 0.02883 0.96357 0.0
H1622 H 0.18652 0.93584 0.9199 0.0
H1623 H 0.15855 0.93086 0.90238 0.0
H1624 H 0.18345 0.94444 0.86726 0.0
H1625 H 0.17479 0.01248 0.01994 0.0
H1626 H 0.15322 0.9816 0.01976 0.0
H1627 H 0.18169 0.99137 0.04169 0.0
H1628 H 0.10971 0.89923 0.00238 0.0
H1629 H 0.17688 0.91531 0.05172 0.0
H1630 H 0.12648 0.93692 0.92332 0.0
H1631 H 0.12795 0.95731 0.96228 0.0
H1632 H 0.10444 0.92718 0.96406 0.0
H1633 H 0.21146 0.95856 0.98404 0.0
H1634 H 0.21111 0.95106 0.03897 0.0
H1635 H 0.20768 0.97561 0.02406 0.0
C1636 C 0.08722 0.21623 0.00635 0.0
C1637 C 0.09572 0.23872 0.02347 0.0
C1638 C 0.06516 0.2044 0.98647 0.0
C1639 C 0.05147 0.21544 0.98348 0.0
C1640 C 0.05966 0.23778 0.00213 0.0
C1641 C 0.08172 0.24916 0.02166 0.0
C1642 C 0.05709 0.18066 0.96687 0.0
C1643 C 0.04558 0.25015 0.99989 0.0
C1644 C 0.01038 0.20673 0.89318 0.0
C1645 C 0.98847 0.1949 0.9133 0.0
C1646 C 0.03098 0.21183 0.91476 0.0
C1647 C 0.02966 0.20501 0.9576 0.0
C1648 C 0.00745 0.19118 0.97686 0.0
C1649 C 0.98703 0.1862 0.95438 0.0
C1650 C 0.05427 0.22629 0.89274 0.0
C1651 C 0.0053 0.18335 0.02231 0.0
H1652 H 0.09819 0.2083 0.00665 0.0
H1653 H 0.08823 0.26653 0.03494 0.0
H1654 H 0.03847 0.16832 0.97487 0.0
H1655 H 0.05831 0.1824 0.93192 0.0
H1656 H 0.0679 0.17298 0.97741 0.0
H1657 H 0.05366 0.26666 0.01857 0.0
H1658 H 0.04414 0.25446 0.96648 0.0
H1659 H 0.02752 0.23852 0.01179 0.0
H1660 H 0.01158 0.21321 0.86119 0.0
H1661 H 0.97015 0.17696 0.97011 0.0
H1662 H 0.0658 0.21874 0.8982 0.0
H1663 H 0.06329 0.24433 0.90597 0.0
H1664 H 0.05219 0.22747 0.8581 0.0
H1665 H 0.01743 0.17663 0.02901 0.0
H1666 H 0.98713 0.16949 0.0302 0.0
H1667 H 0.01024 0.19857 0.04348 0.0
C1668 C 0.8508 0.53062 0.37988 0.0
C1669 C 0.86061 0.53879 0.42004 0.0
C1670 C 0.8556 0.51512 0.35714 0.0
C1671 C 0.87048 0.50764 0.37508 0.0
C1672 C 0.8786 0.51413 0.4171 0.0
C1673 C 0.87355 0.52959 0.43905 0.0
C1674 C 0.84628 0.50829 0.31268 0.0
C1675 C 0.89431 0.50637 0.43769 0.0
C1676 C 0.88138 0.4611 0.32598 0.0
C1677 C 0.90299 0.47505 0.30576 0.0
C1678 C 0.86989 0.47134 0.34709 0.0
C1679 C 0.88044 0.49608 0.34837 0.0
C1680 C 0.90189 0.51016 0.32685 0.0
C1681 C 0.9129 0.49948 0.30597 0.0
C1682 C 0.84706 0.45573 0.36961 0.0
C1683 C 0.91377 0.53662 0.32731 0.0
H1684 H 0.84066 0.5375 0.36499 0.0
H1685 H 0.88093 0.53552 0.47033 0.0
H1686 H 0.86068 0.51829 0.28979 0.0
H1687 H 0.83971 0.48936 0.30711 0.0
H1688 H 0.83192 0.51206 0.30609 0.0
H1689 H 0.89667 0.51045 0.47206 0.0
H1690 H 0.88704 0.48725 0.43348 0.0
H1691 H 0.91181 0.51543 0.42232 0.0
H1692 H 0.8739 0.44225 0.32701 0.0
H1693 H 0.92958 0.51034 0.29035 0.0
H1694 H 0.83406 0.46134 0.36276 0.0
H1695 H 0.85007 0.45718 0.40428 0.0
H1696 H 0.83945 0.43702 0.36041 0.0
H1697 H 0.90143 0.54238 0.3164 0.0
H1698 H 0.92963 0.54495 0.3069 0.0
H1699 H 0.91904 0.54315 0.36013 0.0
C1700 C 0.50034 0.41681 0.30865 0.0
C1701 C 0.52482 0.43073 0.30793 0.0
C1702 C 0.48929 0.39483 0.32846 0.0
C1703 C 0.50306 0.38664 0.34861 0.0
C1704 C 0.52784 0.40028 0.34688 0.0
C1705 C 0.53846 0.42223 0.32658 0.0
C1706 C 0.46281 0.38079 0.32925 0.0
C1707 C 0.5431 0.39223 0.36818 0.0
C1708 C 0.46916 0.34539 0.43798 0.0
C1709 C 0.45973 0.32347 0.41807 0.0
C1710 C 0.48486 0.36606 0.41674 0.0
C1711 C 0.49119 0.36481 0.37441 0.0
C1712 C 0.48332 0.34262 0.35539 0.0
C1713 C 0.46772 0.32214 0.37756 0.0
C1714 C 0.49314 0.38933 0.4385 0.0
C1715 C 0.48982 0.34054 0.31045 0.0
H1716 H 0.48977 0.42333 0.2942 0.0
H1717 H 0.55737 0.43316 0.32707 0.0
H1718 H 0.45656 0.36269 0.3177 0.0
H1719 H 0.45648 0.37942 0.36225 0.0
H1720 H 0.45474 0.38884 0.30953 0.0
H1721 H 0.56184 0.40316 0.35904 0.0
H1722 H 0.54173 0.39326 0.40302 0.0
H1723 H 0.5371 0.37366 0.36019 0.0
H1724 H 0.46332 0.34653 0.46953 0.0
H1725 H 0.46057 0.30526 0.36197 0.0
H1726 H 0.48429 0.39825 0.42419 0.0
H1727 H 0.5123 0.40095 0.43411 0.0
H1728 H 0.48923 0.38723 0.47295 0.0
H1729 H 0.47996 0.34555 0.28838 0.0
H1730 H 0.48562 0.32237 0.30279 0.0
H1731 H 0.50878 0.35265 0.30478 0.0
C1732 C 0.57474 0.11531 0.34856 0.0
C1733 C 0.57043 0.10497 0.30846 0.0
C1734 C 0.59725 0.12582 0.36639 0.0
C1735 C 0.61558 0.12518 0.34408 0.0
C1736 C 0.61158 0.11617 0.30225 0.0
C1737 C 0.58899 0.10632 0.28474 0.0
C1738 C 0.60085 0.13575 0.41058 0.0
C1739 C 0.63047 0.11474 0.27761 0.0
C1740 C 0.67764 0.15422 0.38951 0.0
C1741 C 0.67674 0.13556 0.41254 0.0
C1742 C 0.65778 0.15137 0.36739 0.0
C1743 C 0.63692 0.12922 0.36746 0.0
C1744 C 0.63608 0.11038 0.39047 0.0
C1745 C 0.65582 0.11387 0.41304 0.0
C1746 C 0.65907 0.17199 0.34411 0.0
C1747 C 0.61437 0.08631 0.39089 0.0
H1748 H 0.56027 0.11428 0.3667 0.0
H1749 H 0.58546 0.09813 0.25378 0.0
H1750 H 0.60113 0.12306 0.43334 0.0
H1751 H 0.61791 0.15231 0.41312 0.0
H1752 H 0.58659 0.13919 0.42004 0.0
H1753 H 0.6259 0.11101 0.24357 0.0
H1754 H 0.64749 0.13128 0.28041 0.0
H1755 H 0.63285 0.10045 0.29084 0.0
H1756 H 0.69377 0.171 0.38899 0.0
H1757 H 0.65501 0.09923 0.43023 0.0
H1758 H 0.64521 0.17546 0.35591 0.0
H1759 H 0.65575 0.1679 0.3099 0.0
H1760 H 0.67639 0.18816 0.3479 0.0
H1761 H 0.59952 0.08728 0.40532 0.0
H1762 H 0.61699 0.07331 0.40891 0.0
H1763 H 0.60923 0.07978 0.35804 0.0
C1764 C 0.45817 0.1389 0.22411 0.0
C1765 C 0.47178 0.13036 0.24271 0.0
C1766 C 0.4531 0.15438 0.24596 0.0
C1767 C 0.46188 0.16154 0.28745 0.0
C1768 C 0.47739 0.15471 0.30488 0.0
C1769 C 0.48219 0.13919 0.28226 0.0
C1770 C 0.43671 0.16143 0.22593 0.0
C1771 C 0.48739 0.16226 0.34876 0.0
C1772 C 0.45071 0.20793 0.33637 0.0
C1773 C 0.42952 0.1939 0.35782 0.0
C1774 C 0.46216 0.19779 0.31482 0.0
C1775 C 0.45201 0.17308 0.31439 0.0
C1776 C 0.43102 0.15895 0.33716 0.0
C1777 C 0.42004 0.16953 0.35843 0.0
C1778 C 0.48449 0.21344 0.29095 0.0
C1779 C 0.4196 0.13253 0.33767 0.0
H1780 H 0.45032 0.13246 0.1933 0.0
H1781 H 0.49285 0.13282 0.29683 0.0
H1782 H 0.41948 0.15228 0.24223 0.0
H1783 H 0.4437 0.18055 0.22948 0.0
H1784 H 0.43385 0.15691 0.19176 0.0
H1785 H 0.50209 0.15892 0.35479 0.0
H1786 H 0.49372 0.18119 0.35364 0.0
H1787 H 0.47344 0.15238 0.37248 0.0
H1788 H 0.45784 0.22672 0.33476 0.0
H1789 H 0.40368 0.15863 0.37502 0.0
H1790 H 0.48089 0.21148 0.25646 0.0
H1791 H 0.49787 0.20827 0.29728 0.0
H1792 H 0.49191 0.23222 0.29945 0.0
H1793 H 0.41386 0.12556 0.30522 0.0
H1794 H 0.40409 0.1242 0.35895 0.0
H1795 H 0.43237 0.12724 0.3481 0.0
C1796 C 0.8315 0.25295 0.35819 0.0
C1797 C 0.80704 0.23883 0.35915 0.0
C1798 C 0.84232 0.27485 0.33806 0.0
C1799 C 0.82834 0.28279 0.31795 0.0
C1800 C 0.80358 0.26901 0.32012 0.0
C1801 C 0.79319 0.24711 0.34063 0.0
C1802 C 0.8688 0.28901 0.33677 0.0
C1803 C 0.78808 0.27683 0.299 0.0
C1804 C 0.86368 0.34704 0.28732 0.0
C1805 C 0.8714 0.34535 0.24677 0.0
C1806 C 0.84807 0.32677 0.31001 0.0
C1807 C 0.83998 0.30441 0.29153 0.0
C1808 C 0.846 0.3028 0.24915 0.0
C1809 C 0.86166 0.32327 0.22734 0.0
C1810 C 0.84184 0.32924 0.35493 0.0
C1811 C 0.83752 0.27935 0.22795 0.0
H1812 H 0.84226 0.24664 0.37257 0.0
H1813 H 0.77429 0.23606 0.34033 0.0
H1814 H 0.87494 0.29021 0.30368 0.0
H1815 H 0.87501 0.30715 0.348 0.0
H1816 H 0.87706 0.28115 0.3565 0.0
H1817 H 0.76946 0.26603 0.30894 0.0
H1818 H 0.79419 0.2955 0.30631 0.0
H1819 H 0.78901 0.27534 0.26418 0.0
H1820 H 0.87104 0.36403 0.30254 0.0
H1821 H 0.86726 0.32183 0.19575 0.0
H1822 H 0.85191 0.32452 0.37706 0.0
H1823 H 0.82293 0.31712 0.36108 0.0
H1824 H 0.84601 0.34746 0.36204 0.0
H1825 H 0.84642 0.27049 0.24236 0.0
H1826 H 0.84121 0.28116 0.19343 0.0
H1827 H 0.81838 0.2678 0.23277 0.0
C1828 C 0.65328 0.51823 0.29164 0.0
C1829 C 0.65484 0.526 0.2498 0.0
C1830 C 0.67358 0.523 0.31433 0.0
C1831 C 0.6958 0.53568 0.29453 0.0
C1832 C 0.69714 0.54144 0.25109 0.0
C1833 C 0.67666 0.53656 0.22929 0.0
C1834 C 0.67138 0.51626 0.36042 0.0
C1835 C 0.72042 0.55467 0.22849 0.0
C1836 C 0.74876 0.58056 0.35578 0.0
C1837 C 0.76228 0.56964 0.3591 0.0
C1838 C 0.72657 0.56914 0.33674 0.0
C1839 C 0.71771 0.54624 0.32018 0.0
C1840 C 0.73088 0.53473 0.32484 0.0
C1841 C 0.75311 0.54662 0.34414 0.0
C1842 C 0.71309 0.58207 0.33267 0.0
C1843 C 0.72207 0.51036 0.30758 0.0
H1844 H 0.63647 0.50996 0.30769 0.0
H1845 H 0.67795 0.5423 0.19674 0.0
H1846 H 0.68312 0.50923 0.3683 0.0
H1847 H 0.67678 0.53207 0.38023 0.0
H1848 H 0.65309 0.50297 0.36894 0.0
H1849 H 0.71825 0.55501 0.19368 0.0
H1850 H 0.73001 0.57303 0.24014 0.0
H1851 H 0.73146 0.5467 0.23521 0.0
H1852 H 0.75576 0.59832 0.36741 0.0
H1853 H 0.76368 0.53827 0.34563 0.0
H1854 H 0.69503 0.57116 0.34514 0.0
H1855 H 0.71161 0.58555 0.29878 0.0
H1856 H 0.72166 0.59907 0.34985 0.0
H1857 H 0.70336 0.49869 0.31592 0.0
H1858 H 0.73243 0.50246 0.31963 0.0
H1859 H 0.72331 0.51112 0.27255 0.0
C1860 C 0.57713 0.82988 0.6422 0.0
C1861 C 0.56763 0.8055 0.64175 0.0
C1862 C 0.56596 0.84018 0.66373 0.0
C1863 C 0.54474 0.82577 0.68568 0.0
C1864 C 0.53455 0.80107 0.68409 0.0
C1865 C 0.54621 0.79121 0.66232 0.0
C1866 C 0.57745 0.86662 0.66445 0.0
C1867 C 0.51196 0.78511 0.70699 0.0
C1868 C 0.53864 0.85924 0.77716 0.0
C1869 C 0.52566 0.86854 0.75864 0.0
C1870 C 0.54329 0.84359 0.75494 0.0
C1871 C 0.53473 0.837 0.71317 0.0
C1872 C 0.51963 0.8444 0.69598 0.0
C1873 C 0.51523 0.8601 0.71897 0.0
C1874 C 0.55922 0.83589 0.77478 0.0
C1875 C 0.50979 0.83742 0.65187 0.0
H1876 H 0.59366 0.841 0.62628 0.0
H1877 H 0.53904 0.7724 0.66313 0.0
H1878 H 0.56481 0.87211 0.65413 0.0
H1879 H 0.58289 0.8731 0.69725 0.0
H1880 H 0.59315 0.87521 0.64369 0.0
H1881 H 0.50441 0.76652 0.69705 0.0
H1882 H 0.5153 0.78621 0.74155 0.0
H1883 H 0.49879 0.79064 0.70134 0.0
H1884 H 0.54646 0.86537 0.80809 0.0
H1885 H 0.50504 0.86705 0.70448 0.0
H1886 H 0.57664 0.84513 0.75912 0.0
H1887 H 0.55206 0.8168 0.77023 0.0
H1888 H 0.56175 0.83984 0.80918 0.0
H1889 H 0.52383 0.84764 0.62848 0.0
H1890 H 0.49512 0.84086 0.64621 0.0
H1891 H 0.50348 0.81857 0.64612 0.0
C1892 C 0.17 0.74842 0.64023 0.0
C1893 C 0.1945 0.76197 0.63826 0.0
C1894 C 0.1589 0.72634 0.6597 0.0
C1895 C 0.17263 0.71761 0.67812 0.0
C1896 C 0.1974 0.73079 0.67481 0.0
C1897 C 0.20807 0.7529 0.65499 0.0
C1898 C 0.13243 0.71285 0.66223 0.0
C1899 C 0.21264 0.72212 0.69408 0.0
C1900 C 0.13984 0.67706 0.76895 0.0
C1901 C 0.12911 0.65507 0.74902 0.0
C1902 C 0.15565 0.69745 0.74711 0.0
C1903 C 0.16083 0.69585 0.70417 0.0
C1904 C 0.15174 0.6735 0.68505 0.0
C1905 C 0.136 0.65331 0.70778 0.0
C1906 C 0.16519 0.72087 0.76899 0.0
C1907 C 0.15707 0.67104 0.63952 0.0
H1908 H 0.15945 0.75534 0.62721 0.0
H1909 H 0.22702 0.76349 0.6545 0.0
H1910 H 0.12553 0.6947 0.6504 0.0
H1911 H 0.12684 0.71161 0.69571 0.0
H1912 H 0.12431 0.72127 0.64366 0.0
H1913 H 0.23112 0.73248 0.68316 0.0
H1914 H 0.21239 0.72348 0.72904 0.0
H1915 H 0.20581 0.70339 0.6862 0.0
H1916 H 0.13488 0.67854 0.80104 0.0
H1917 H 0.12787 0.63638 0.69217 0.0
H1918 H 0.15659 0.73032 0.75583 0.0
H1919 H 0.18431 0.73193 0.76332 0.0
H1920 H 0.16202 0.71894 0.80367 0.0
H1921 H 0.14701 0.67631 0.6185 0.0
H1922 H 0.15223 0.6527 0.63172 0.0
H1923 H 0.17597 0.68275 0.63254 0.0
C1924 C 0.24448 0.41412 0.66408 0.0
C1925 C 0.23591 0.42756 0.64482 0.0
C1926 C 0.26624 0.42473 0.68469 0.0
C1927 C 0.27963 0.44949 0.68738 0.0
C1928 C 0.27099 0.46324 0.66877 0.0
C1929 C 0.24959 0.45214 0.64662 0.0
C1930 C 0.2751 0.40936 0.7029 0.0
C1931 C 0.28447 0.48967 0.6718 0.0
C1932 C 0.32544 0.46805 0.77368 0.0
C1933 C 0.34532 0.47246 0.75029 0.0
C1934 C 0.30438 0.4627 0.7533 0.0
C1935 C 0.30295 0.46068 0.70863 0.0
C1936 C 0.32338 0.46641 0.68484 0.0
C1937 C 0.34446 0.47267 0.70601 0.0
C1938 C 0.28329 0.45773 0.77971 0.0
C1939 C 0.32252 0.4638 0.6373 0.0
H1940 H 0.23427 0.39514 0.66259 0.0
H1941 H 0.24403 0.46286 0.62997 0.0
H1942 H 0.29253 0.41437 0.68929 0.0
H1943 H 0.27735 0.41193 0.73762 0.0
H1944 H 0.263 0.39044 0.69654 0.0
H1945 H 0.27396 0.49759 0.66068 0.0
H1946 H 0.28997 0.49524 0.70497 0.0
H1947 H 0.30061 0.49679 0.65233 0.0
H1948 H 0.32614 0.46796 0.80796 0.0
H1949 H 0.35974 0.47577 0.6879 0.0
H1950 H 0.27086 0.43856 0.78056 0.0
H1951 H 0.27392 0.46619 0.76561 0.0
H1952 H 0.28824 0.46404 0.81277 0.0
H1953 H 0.31231 0.44489 0.62901 0.0
H1954 H 0.34031 0.47129 0.62321 0.0
H1955 H 0.31352 0.47245 0.62268 0.0
C1956 C 0.08461 0.50072 0.68905 0.0
C1957 C 0.09512 0.5252 0.69008 0.0
C1958 C 0.09559 0.48978 0.66899 0.0
C1959 C 0.11756 0.50366 0.64892 0.0
C1960 C 0.12865 0.52843 0.65096 0.0
C1961 C 0.11726 0.53894 0.67148 0.0
C1962 C 0.08319 0.4633 0.66785 0.0
C1963 C 0.15198 0.54381 0.62978 0.0
C1964 C 0.14692 0.46858 0.61934 0.0
C1965 C 0.13775 0.46078 0.57869 0.0
C1966 C 0.14193 0.48403 0.64178 0.0
C1967 C 0.1276 0.49192 0.62292 0.0
C1968 C 0.12012 0.48577 0.5805 0.0
C1969 C 0.12523 0.47024 0.55897 0.0
C1970 C 0.1504 0.49033 0.6868 0.0
C1971 C 0.1051 0.49406 0.55891 0.0
H1972 H 0.06752 0.49006 0.70345 0.0
H1973 H 0.12522 0.55785 0.67121 0.0
H1974 H 0.07829 0.45711 0.63477 0.0
H1975 H 0.09504 0.45704 0.67928 0.0
H1976 H 0.06702 0.45512 0.68749 0.0
H1977 H 0.15972 0.56252 0.63906 0.0
H1978 H 0.16458 0.53785 0.63774 0.0
H1979 H 0.14963 0.54251 0.59493 0.0
H1980 H 0.15662 0.46139 0.63483 0.0
H1981 H 0.11834 0.46454 0.52733 0.0
H1982 H 0.13548 0.48035 0.70874 0.0
H1983 H 0.15721 0.50926 0.69275 0.0
H1984 H 0.16437 0.48612 0.69438 0.0
H1985 H 0.08731 0.48512 0.57318 0.0
H1986 H 0.10334 0.49028 0.52442 0.0
H1987 H 0.11258 0.5132 0.56353 0.0
C1988 C 0.49894 0.58523 0.69241 0.0
C1989 C 0.47456 0.57048 0.69184 0.0
C1990 C 0.50961 0.60691 0.67152 0.0
C1991 C 0.49556 0.61399 0.64911 0.0
C1992 C 0.47084 0.59953 0.64952 0.0
C1993 C 0.46061 0.57785 0.67076 0.0
C1994 C 0.53604 0.62181 0.67207 0.0
C1995 C 0.45527 0.60643 0.62595 0.0
C1996 C 0.52959 0.67821 0.61791 0.0
C1997 C 0.53845 0.67677 0.57831 0.0
C1998 C 0.51404 0.6578 0.64029 0.0
C1999 C 0.50718 0.63553 0.6225 0.0
C2000 C 0.51436 0.63407 0.58093 0.0
C2001 C 0.52991 0.65469 0.55938 0.0
C2002 C 0.50651 0.6601 0.68429 0.0
C2003 C 0.50723 0.6107 0.5605 0.0
H2004 H 0.50979 0.57961 0.70871 0.0
H2005 H 0.4418 0.56629 0.6692 0.0
H2006 H 0.54301 0.62313 0.63958 0.0
H2007 H 0.54141 0.63986 0.68274 0.0
H2008 H 0.5443 0.6145 0.69316 0.0
H2009 H 0.43648 0.59506 0.63432 0.0
H2010 H 0.46048 0.62495 0.63269 0.0
H2011 H 0.45726 0.60498 0.5914 0.0
H2012 H 0.53598 0.6952 0.63273 0.0
H2013 H 0.53638 0.65341 0.52852 0.0
H2014 H 0.51637 0.65589 0.70783 0.0
H2015 H 0.48758 0.64751 0.68913 0.0
H2016 H 0.5099 0.67813 0.69066 0.0
H2017 H 0.51635 0.6025 0.57651 0.0
H2018 H 0.51174 0.6125 0.52631 0.0
H2019 H 0.4881 0.59859 0.56402 0.0
C2020 C 0.3229 0.85078 0.6192 0.0
C2021 C 0.32479 0.86089 0.57923 0.0
C2022 C 0.34306 0.85555 0.64237 0.0
C2023 C 0.36553 0.8707 0.62507 0.0
C2024 C 0.36744 0.87917 0.58325 0.0
C2025 C 0.34708 0.87416 0.56087 0.0
C2026 C 0.34027 0.84588 0.6866 0.0
C2027 C 0.39104 0.89516 0.56334 0.0
C2028 C 0.41565 0.91257 0.69562 0.0
C2029 C 0.43018 0.90267 0.69574 0.0
C2030 C 0.39408 0.90171 0.67433 0.0
C2031 C 0.38687 0.88045 0.65224 0.0
C2032 C 0.40107 0.86991 0.6534 0.0
C2033 C 0.42265 0.88122 0.67498 0.0
C2034 C 0.37947 0.91356 0.67405 0.0
C2035 C 0.39402 0.84728 0.63025 0.0
H2036 H 0.30577 0.84041 0.63361 0.0
H2037 H 0.34872 0.88177 0.52975 0.0
H2038 H 0.35262 0.83931 0.69219 0.0
H2039 H 0.34448 0.86009 0.70984 0.0
H2040 H 0.32211 0.83143 0.69269 0.0
H2041 H 0.38958 0.89786 0.52902 0.0
H2042 H 0.39931 0.9125 0.57927 0.0
H2043 H 0.40292 0.88791 0.56747 0.0
H2044 H 0.42138 0.92913 0.71164 0.0
H2045 H 0.43405 0.87377 0.67389 0.0
H2046 H 0.3613 0.90109 0.68441 0.0
H2047 H 0.37848 0.91917 0.64138 0.0
H2048 H 0.38683 0.9292 0.69499 0.0
H2049 H 0.3754 0.83419 0.63671 0.0
H2050 H 0.40512 0.83965 0.63925 0.0
H2051 H 0.39574 0.8506 0.59566 0.0
loop_
_geom_bond_atom_site_label_1
_geom_bond_atom_site_label_2
_geom_bond_distance
_geom_bond_site_symmetry_2
_ccdc_geom_bond_type
Co0 O3 1.970 . S
Co0 N17 1.989 . S
Co0 O25 1.967 . S
Co0 O32 1.920 . S
Co1 O4 1.966 . S
Co1 N10 2.022 . S
Co1 N18 1.993 . S
Co1 O26 1.941 . S
C2 O3 1.258 . S
C2 O4 1.263 . S
O3 Co0 1.970 . S
O3 C2 1.258 . S
O4 Co1 1.966 . S
O4 C2 1.263 . S
C5 O6 1.235 . S
C5 O32 1.289 . S
O6 C5 1.235 . S
C7 C9 1.400 . S
C7 N10 1.351 . S
C7 C12 1.501 . S
C8 C9 1.387 . S
C8 N11 1.341 . S
C9 C7 1.400 . S
C9 C8 1.387 . S
N10 Co1 2.022 . S
N10 C7 1.351 . S
N10 N11 1.365 . S
N11 C8 1.341 . S
N11 N10 1.365 . S
N11 H31 0.862 . S
C12 C7 1.501 . S
C12 H13 0.961 . S
C12 H14 0.961 . S
C12 H15 0.960 . S
H13 C12 0.961 . S
H14 C12 0.961 . S
H15 C12 0.960 . S
C16 N17 1.342 . S
C16 C20 1.401 . S
C16 C21 1.499 . S
N17 Co0 1.989 . S
N17 C16 1.342 . S
N17 N18 1.388 . S
N18 Co1 1.993 . S
N18 N17 1.388 . S
N18 C19 1.346 . S
C19 N18 1.346 . S
C19 C20 1.396 . S
C19 C29 1.510 . S
C20 C16 1.401 . S
C20 C19 1.396 . S
C21 C16 1.499 . S
C21 H22 0.959 . S
C21 H23 0.960 . S
C21 H24 0.961 . S
H22 C21 0.959 . S
H23 C21 0.960 . S
H24 C21 0.961 . S
O25 Co0 1.967 . S
O25 C33 1.258 . S
O26 Co1 1.941 . S
O26 C33 1.266 . S
H27 C29 0.959 . S
H28 C29 0.961 . S
C29 C19 1.510 . S
C29 H27 0.959 . S
C29 H28 0.961 . S
C29 H30 0.960 . S
H30 C29 0.960 . S
H31 N11 0.862 . S
O32 Co0 1.920 . S
O32 C5 1.289 . S
C33 O25 1.258 . S
C33 O26 1.266 . S
Co34 O37 1.970 . S
Co34 N51 1.989 . S
Co34 O59 1.967 . S
Co34 O66 1.920 . S
Co35 O38 1.966 . S
Co35 N44 2.022 . S
Co35 N52 1.993 . S
Co35 O60 1.941 . S
C36 O37 1.258 . S
C36 O38 1.263 . S
O37 Co34 1.970 . S
O37 C36 1.258 . S
O38 Co35 1.966 . S
O38 C36 1.263 . S
C39 O40 1.235 . S
C39 O66 1.289 . S
O40 C39 1.235 . S
C41 C43 1.400 . S
C41 N44 1.351 . S
C41 C46 1.501 . S
C42 C43 1.387 . S
C42 N45 1.341 . S
C43 C41 1.400 . S
C43 C42 1.387 . S
N44 Co35 2.022 . S
N44 C41 1.351 . S
N44 N45 1.365 . S
N45 C42 1.341 . S
N45 N44 1.365 . S
N45 H65 0.862 . S
C46 C41 1.501 . S
C46 H47 0.961 . S
C46 H48 0.961 . S
C46 H49 0.960 . S
H47 C46 0.961 . S
H48 C46 0.961 . S
H49 C46 0.960 . S
C50 N51 1.342 . S
C50 C54 1.401 . S
C50 C55 1.499 . S
N51 Co34 1.989 . S
N51 C50 1.342 . S
N51 N52 1.388 . S
N52 Co35 1.993 . S
N52 N51 1.388 . S
N52 C53 1.346 . S
C53 N52 1.346 . S
C53 C54 1.396 . S
C53 C63 1.510 . S
C54 C50 1.401 . S
C54 C53 1.396 . S
C55 C50 1.499 . S
C55 H56 0.959 . S
C55 H57 0.960 . S
C55 H58 0.961 . S
H56 C55 0.959 . S
H57 C55 0.960 . S
H58 C55 0.961 . S
O59 Co34 1.967 . S
O59 C67 1.258 . S
O60 Co35 1.941 . S
O60 C67 1.266 . S
H61 C63 0.959 . S
H62 C63 0.961 . S
C63 C53 1.510 . S
C63 H61 0.959 . S
C63 H62 0.961 . S
C63 H64 0.960 . S
H64 C63 0.960 . S
H65 N45 0.862 . S
O66 Co34 1.920 . S
O66 C39 1.289 . S
C67 O59 1.258 . S
C67 O60 1.266 . S
Co68 O71 1.970 . S
Co68 N85 1.989 . S
Co68 O93 1.967 . S
Co68 O100 1.920 . S
Co69 O72 1.966 . S
Co69 N78 2.022 . S
Co69 N86 1.993 . S
Co69 O94 1.941 . S
C70 O71 1.258 . S
C70 O72 1.263 . S
O71 Co68 1.970 . S
O71 C70 1.258 . S
O72 Co69 1.966 . S
O72 C70 1.263 . S
C73 O74 1.235 . S
C73 O100 1.289 . S
O74 C73 1.235 . S
C75 C77 1.400 . S
C75 N78 1.351 . S
C75 C80 1.501 . S
C76 C77 1.387 . S
C76 N79 1.341 . S
C77 C75 1.400 . S
C77 C76 1.387 . S
N78 Co69 2.022 . S
N78 C75 1.351 . S
N78 N79 1.365 . S
N79 C76 1.341 . S
N79 N78 1.365 . S
N79 H99 0.862 . S
C80 C75 1.501 . S
C80 H81 0.961 . S
C80 H82 0.961 . S
C80 H83 0.960 . S
H81 C80 0.961 . S
H82 C80 0.961 . S
H83 C80 0.960 . S
C84 N85 1.342 . S
C84 C88 1.401 . S
C84 C89 1.499 . S
N85 Co68 1.989 . S
N85 C84 1.342 . S
N85 N86 1.388 . S
N86 Co69 1.993 . S
N86 N85 1.388 . S
N86 C87 1.346 . S
C87 N86 1.346 . S
C87 C88 1.396 . S
C87 C97 1.510 . S
C88 C84 1.401 . S
C88 C87 1.396 . S
C89 C84 1.499 . S
C89 H90 0.959 . S
C89 H91 0.960 . S
C89 H92 0.961 . S
H90 C89 0.959 . S
H91 C89 0.960 . S
H92 C89 0.961 . S
O93 Co68 1.967 . S
O93 C101 1.258 . S
O94 Co69 1.941 . S
O94 C101 1.266 . S
H95 C97 0.959 . S
H96 C97 0.961 . S
C97 C87 1.510 . S
C97 H95 0.959 . S
C97 H96 0.961 . S
C97 H98 0.960 . S
H98 C97 0.960 . S
H99 N79 0.862 . S
O100 Co68 1.920 . S
O100 C73 1.289 . S
C101 O93 1.258 . S
C101 O94 1.266 . S
Co102 O105 1.970 . S
Co102 N119 1.989 . S
Co102 O127 1.967 . S
Co102 O134 1.920 . S
Co103 O106 1.966 . S
Co103 N112 2.022 . S
Co103 N120 1.993 . S
Co103 O128 1.941 . S
C104 O105 1.258 . S
C104 O106 1.263 . S
O105 Co102 1.970 . S
O105 C104 1.258 . S
O106 Co103 1.966 . S
O106 C104 1.263 . S
C107 O108 1.235 . S
C107 O134 1.289 . S
O108 C107 1.235 . S
C109 C111 1.400 . S
C109 N112 1.351 . S
C109 C114 1.501 . S
C110 C111 1.387 . S
C110 N113 1.341 . S
C111 C109 1.400 . S
C111 C110 1.387 . S
N112 Co103 2.022 . S
N112 C109 1.351 . S
N112 N113 1.365 . S
N113 C110 1.341 . S
N113 N112 1.365 . S
N113 H133 0.862 . S
C114 C109 1.501 . S
C114 H115 0.961 . S
C114 H116 0.961 . S
C114 H117 0.960 . S
H115 C114 0.961 . S
H116 C114 0.961 . S
H117 C114 0.960 . S
C118 N119 1.342 . S
C118 C122 1.401 . S
C118 C123 1.499 . S
N119 Co102 1.989 . S
N119 C118 1.342 . S
N119 N120 1.388 . S
N120 Co103 1.993 . S
N120 N119 1.388 . S
N120 C121 1.346 . S
C121 N120 1.346 . S
C121 C122 1.396 . S
C121 C131 1.510 . S
C122 C118 1.401 . S
C122 C121 1.396 . S
C123 C118 1.499 . S
C123 H124 0.959 . S
C123 H125 0.960 . S
C123 H126 0.961 . S
H124 C123 0.959 . S
H125 C123 0.960 . S
H126 C123 0.961 . S
O127 Co102 1.967 . S
O127 C135 1.258 . S
O128 Co103 1.941 . S
O128 C135 1.266 . S
H129 C131 0.959 . S
H130 C131 0.961 . S
C131 C121 1.510 . S
C131 H129 0.959 . S
C131 H130 0.961 . S
C131 H132 0.960 . S
H132 C131 0.960 . S
H133 N113 0.862 . S
O134 Co102 1.920 . S
O134 C107 1.289 . S
C135 O127 1.258 . S
C135 O128 1.266 . S
Co136 O139 1.970 . S
Co136 N153 1.989 . S
Co136 O161 1.967 . S
Co136 O168 1.920 . S
Co137 O140 1.966 . S
Co137 N146 2.022 . S
Co137 N154 1.993 . S
Co137 O162 1.941 . S
C138 O139 1.258 . S
C138 O140 1.263 . S
O139 Co136 1.970 . S
O139 C138 1.258 . S
O140 Co137 1.966 . S
O140 C138 1.263 . S
C141 O142 1.235 . S
C141 O168 1.289 . S
O142 C141 1.235 . S
C143 C145 1.400 . S
C143 N146 1.351 . S
C143 C148 1.501 . S
C144 C145 1.387 . S
C144 N147 1.341 . S
C145 C143 1.400 . S
C145 C144 1.387 . S
N146 Co137 2.022 . S
N146 C143 1.351 . S
N146 N147 1.365 . S
N147 C144 1.341 . S
N147 N146 1.365 . S
N147 H167 0.862 . S
C148 C143 1.501 . S
C148 H149 0.961 . S
C148 H150 0.961 . S
C148 H151 0.960 . S
H149 C148 0.961 . S
H150 C148 0.961 . S
H151 C148 0.960 . S
C152 N153 1.342 . S
C152 C156 1.401 . S
C152 C157 1.499 . S
N153 Co136 1.989 . S
N153 C152 1.342 . S
N153 N154 1.388 . S
N154 Co137 1.993 . S
N154 N153 1.388 . S
N154 C155 1.346 . S
C155 N154 1.346 . S
C155 C156 1.396 . S
C155 C165 1.510 . S
C156 C152 1.401 . S
C156 C155 1.396 . S
C157 C152 1.499 . S
C157 H158 0.959 . S
C157 H159 0.960 . S
C157 H160 0.961 . S
H158 C157 0.959 . S
H159 C157 0.960 . S
H160 C157 0.961 . S
O161 Co136 1.967 . S
O161 C169 1.258 . S
O162 Co137 1.941 . S
O162 C169 1.266 . S
H163 C165 0.959 . S
H164 C165 0.961 . S
C165 C155 1.510 . S
C165 H163 0.959 . S
C165 H164 0.961 . S
C165 H166 0.960 . S
H166 C165 0.960 . S
H167 N147 0.862 . S
O168 Co136 1.920 . S
O168 C141 1.289 . S
C169 O161 1.258 . S
C169 O162 1.266 . S
Co170 O173 1.970 . S
Co170 N187 1.989 . S
Co170 O195 1.967 . S
Co170 O202 1.920 . S
Co171 O174 1.966 . S
Co171 N180 2.022 . S
Co171 N188 1.993 . S
Co171 O196 1.941 . S
C172 O173 1.258 . S
C172 O174 1.263 . S
O173 Co170 1.970 . S
O173 C172 1.258 . S
O174 Co171 1.966 . S
O174 C172 1.263 . S
C175 O176 1.235 . S
C175 O202 1.289 . S
O176 C175 1.235 . S
C177 C179 1.400 . S
C177 N180 1.351 . S
C177 C182 1.501 . S
C178 C179 1.387 . S
C178 N181 1.341 . S
C179 C177 1.400 . S
C179 C178 1.387 . S
N180 Co171 2.022 . S
N180 C177 1.351 . S
N180 N181 1.365 . S
N181 C178 1.341 . S
N181 N180 1.365 . S
N181 H201 0.862 . S
C182 C177 1.501 . S
C182 H183 0.961 . S
C182 H184 0.961 . S
C182 H185 0.960 . S
H183 C182 0.961 . S
H184 C182 0.961 . S
H185 C182 0.960 . S
C186 N187 1.342 . S
C186 C190 1.401 . S
C186 C191 1.499 . S
N187 Co170 1.989 . S
N187 C186 1.342 . S
N187 N188 1.388 . S
N188 Co171 1.993 . S
N188 N187 1.388 . S
N188 C189 1.346 . S
C189 N188 1.346 . S
C189 C190 1.396 . S
C189 C199 1.510 . S
C190 C186 1.401 . S
C190 C189 1.396 . S
C191 C186 1.499 . S
C191 H192 0.959 . S
C191 H193 0.960 . S
C191 H194 0.961 . S
H192 C191 0.959 . S
H193 C191 0.960 . S
H194 C191 0.961 . S
O195 Co170 1.967 . S
O195 C203 1.258 . S
O196 Co171 1.941 . S
O196 C203 1.266 . S
H197 C199 0.959 . S
H198 C199 0.961 . S
C199 C189 1.510 . S
C199 H197 0.959 . S
C199 H198 0.961 . S
C199 H200 0.960 . S
H200 C199 0.960 . S
H201 N181 0.862 . S
O202 Co170 1.920 . S
O202 C175 1.289 . S
C203 O195 1.258 . S
C203 O196 1.266 . S
Co204 O207 1.970 . S
Co204 N221 1.989 . S
Co204 O229 1.967 . S
Co204 O236 1.920 . S
Co205 O208 1.966 . S
Co205 N214 2.022 . S
Co205 N222 1.993 . S
Co205 O230 1.941 . S
C206 O207 1.258 . S
C206 O208 1.263 . S
O207 Co204 1.970 . S
O207 C206 1.258 . S
O208 Co205 1.966 . S
O208 C206 1.263 . S
C209 O210 1.235 . S
C209 O236 1.289 . S
O210 C209 1.235 . S
C211 C213 1.400 . S
C211 N214 1.351 . S
C211 C216 1.501 . S
C212 C213 1.387 . S
C212 N215 1.341 . S
C213 C211 1.400 . S
C213 C212 1.387 . S
N214 Co205 2.022 . S
N214 C211 1.351 . S
N214 N215 1.365 . S
N215 C212 1.341 . S
N215 N214 1.365 . S
N215 H235 0.862 . S
C216 C211 1.501 . S
C216 H217 0.961 . S
C216 H218 0.961 . S
C216 H219 0.960 . S
H217 C216 0.961 . S
H218 C216 0.961 . S
H219 C216 0.960 . S
C220 N221 1.342 . S
C220 C224 1.401 . S
C220 C225 1.499 . S
N221 Co204 1.989 . S
N221 C220 1.342 . S
N221 N222 1.388 . S
N222 Co205 1.993 . S
N222 N221 1.388 . S
N222 C223 1.346 . S
C223 N222 1.346 . S
C223 C224 1.396 . S
C223 C233 1.510 . S
C224 C220 1.401 . S
C224 C223 1.396 . S
C225 C220 1.499 . S
C225 H226 0.959 . S
C225 H227 0.960 . S
C225 H228 0.961 . S
H226 C225 0.959 . S
H227 C225 0.960 . S
H228 C225 0.961 . S
O229 Co204 1.967 . S
O229 C237 1.258 . S
O230 Co205 1.941 . S
O230 C237 1.266 . S
H231 C233 0.959 . S
H232 C233 0.961 . S
C233 C223 1.510 . S
C233 H231 0.959 . S
C233 H232 0.961 . S
C233 H234 0.960 . S
H234 C233 0.960 . S
H235 N215 0.862 . S
O236 Co204 1.920 . S
O236 C209 1.289 . S
C237 O229 1.258 . S
C237 O230 1.266 . S
Co238 O241 1.970 . S
Co238 N255 1.989 . S
Co238 O263 1.967 . S
Co238 O270 1.920 . S
Co239 O242 1.966 . S
Co239 N248 2.022 . S
Co239 N256 1.993 . S
Co239 O264 1.941 . S
C240 O241 1.258 . S
C240 O242 1.263 . S
O241 Co238 1.970 . S
O241 C240 1.258 . S
O242 Co239 1.966 . S
O242 C240 1.263 . S
C243 O244 1.235 . S
C243 O270 1.289 . S
O244 C243 1.235 . S
C245 C247 1.400 . S
C245 N248 1.351 . S
C245 C250 1.501 . S
C246 C247 1.387 . S
C246 N249 1.341 . S
C247 C245 1.400 . S
C247 C246 1.387 . S
N248 Co239 2.022 . S
N248 C245 1.351 . S
N248 N249 1.365 . S
N249 C246 1.341 . S
N249 N248 1.365 . S
N249 H269 0.862 . S
C250 C245 1.501 . S
C250 H251 0.961 . S
C250 H252 0.961 . S
C250 H253 0.960 . S
H251 C250 0.961 . S
H252 C250 0.961 . S
H253 C250 0.960 . S
C254 N255 1.342 . S
C254 C258 1.401 . S
C254 C259 1.499 . S
N255 Co238 1.989 . S
N255 C254 1.342 . S
N255 N256 1.388 . S
N256 Co239 1.993 . S
N256 N255 1.388 . S
N256 C257 1.346 . S
C257 N256 1.346 . S
C257 C258 1.396 . S
C257 C267 1.510 . S
C258 C254 1.401 . S
C258 C257 1.396 . S
C259 C254 1.499 . S
C259 H260 0.959 . S
C259 H261 0.960 . S
C259 H262 0.961 . S
H260 C259 0.959 . S
H261 C259 0.960 . S
H262 C259 0.961 . S
O263 Co238 1.967 . S
O263 C271 1.258 . S
O264 Co239 1.941 . S
O264 C271 1.266 . S
H265 C267 0.959 . S
H266 C267 0.961 . S
C267 C257 1.510 . S
C267 H265 0.959 . S
C267 H266 0.961 . S
C267 H268 0.960 . S
H268 C267 0.960 . S
H269 N249 0.862 . S
O270 Co238 1.920 . S
O270 C243 1.289 . S
C271 O263 1.258 . S
C271 O264 1.266 . S
Co272 O275 1.970 . S
Co272 N289 1.989 . S
Co272 O297 1.967 . S
Co272 O304 1.920 . S
Co273 O276 1.966 . S
Co273 N282 2.022 . S
Co273 N290 1.993 . S
Co273 O298 1.941 . S
C274 O275 1.258 . S
C274 O276 1.263 . S
O275 Co272 1.970 . S
O275 C274 1.258 . S
O276 Co273 1.966 . S
O276 C274 1.263 . S
C277 O278 1.235 . S
C277 O304 1.289 . S
O278 C277 1.235 . S
C279 C281 1.400 . S
C279 N282 1.351 . S
C279 C284 1.501 . S
C280 C281 1.387 . S
C280 N283 1.341 . S
C281 C279 1.400 . S
C281 C280 1.387 . S
N282 Co273 2.022 . S
N282 C279 1.351 . S
N282 N283 1.365 . S
N283 C280 1.341 . S
N283 N282 1.365 . S
N283 H303 0.862 . S
C284 C279 1.501 . S
C284 H285 0.961 . S
C284 H286 0.961 . S
C284 H287 0.960 . S
H285 C284 0.961 . S
H286 C284 0.961 . S
H287 C284 0.960 . S
C288 N289 1.342 . S
C288 C292 1.401 . S
C288 C293 1.499 . S
N289 Co272 1.989 . S
N289 C288 1.342 . S
N289 N290 1.388 . S
N290 Co273 1.993 . S
N290 N289 1.388 . S
N290 C291 1.346 . S
C291 N290 1.346 . S
C291 C292 1.396 . S
C291 C301 1.510 . S
C292 C288 1.401 . S
C292 C291 1.396 . S
C293 C288 1.499 . S
C293 H294 0.959 . S
C293 H295 0.960 . S
C293 H296 0.961 . S
H294 C293 0.959 . S
H295 C293 0.960 . S
H296 C293 0.961 . S
O297 Co272 1.967 . S
O297 C305 1.258 . S
O298 Co273 1.941 . S
O298 C305 1.266 . S
H299 C301 0.959 . S
H300 C301 0.961 . S
C301 C291 1.510 . S
C301 H299 0.959 . S
C301 H300 0.961 . S
C301 H302 0.960 . S
H302 C301 0.960 . S
H303 N283 0.862 . S
O304 Co272 1.920 . S
O304 C277 1.289 . S
C305 O297 1.258 . S
C305 O298 1.266 . S
Co306 O309 1.970 . S
Co306 N323 1.989 . S
Co306 O331 1.967 . S
Co306 O338 1.920 . S
Co307 O310 1.966 . S
Co307 N316 2.022 . S
Co307 N324 1.993 . S
Co307 O332 1.941 . S
C308 O309 1.258 . S
C308 O310 1.263 . S
O309 Co306 1.970 . S
O309 C308 1.258 . S
O310 Co307 1.966 . S
O310 C308 1.263 . S
C311 O312 1.235 . S
C311 O338 1.289 . S
O312 C311 1.235 . S
C313 C315 1.400 . S
C313 N316 1.351 . S
C313 C318 1.501 . S
C314 C315 1.387 . S
C314 N317 1.341 . S
C315 C313 1.400 . S
C315 C314 1.387 . S
N316 Co307 2.022 . S
N316 C313 1.351 . S
N316 N317 1.365 . S
N317 C314 1.341 . S
N317 N316 1.365 . S
N317 H337 0.862 . S
C318 C313 1.501 . S
C318 H319 0.961 . S
C318 H320 0.961 . S
C318 H321 0.960 . S
H319 C318 0.961 . S
H320 C318 0.961 . S
H321 C318 0.960 . S
C322 N323 1.342 . S
C322 C326 1.401 . S
C322 C327 1.499 . S
N323 Co306 1.989 . S
N323 C322 1.342 . S
N323 N324 1.388 . S
N324 Co307 1.993 . S
N324 N323 1.388 . S
N324 C325 1.346 . S
C325 N324 1.346 . S
C325 C326 1.396 . S
C325 C335 1.510 . S
C326 C322 1.401 . S
C326 C325 1.396 . S
C327 C322 1.499 . S
C327 H328 0.959 . S
C327 H329 0.960 . S
C327 H330 0.961 . S
H328 C327 0.959 . S
H329 C327 0.960 . S
H330 C327 0.961 . S
O331 Co306 1.967 . S
O331 C339 1.258 . S
O332 Co307 1.941 . S
O332 C339 1.266 . S
H333 C335 0.959 . S
H334 C335 0.961 . S
C335 C325 1.510 . S
C335 H333 0.959 . S
C335 H334 0.961 . S
C335 H336 0.960 . S
H336 C335 0.960 . S
H337 N317 0.862 . S
O338 Co306 1.920 . S
O338 C311 1.289 . S
C339 O331 1.258 . S
C339 O332 1.266 . S
Co340 O343 1.970 . S
Co340 N357 1.989 . S
Co340 O365 1.967 . S
Co340 O372 1.920 . S
Co341 O344 1.966 . S
Co341 N350 2.022 . S
Co341 N358 1.993 . S
Co341 O366 1.941 . S
C342 O343 1.258 . S
C342 O344 1.263 . S
O343 Co340 1.970 . S
O343 C342 1.258 . S
O344 Co341 1.966 . S
O344 C342 1.263 . S
C345 O346 1.235 . S
C345 O372 1.289 . S
O346 C345 1.235 . S
C347 C349 1.400 . S
C347 N350 1.351 . S
C347 C352 1.501 . S
C348 C349 1.387 . S
C348 N351 1.341 . S
C349 C347 1.400 . S
C349 C348 1.387 . S
N350 Co341 2.022 . S
N350 C347 1.351 . S
N350 N351 1.365 . S
N351 C348 1.341 . S
N351 N350 1.365 . S
N351 H371 0.862 . S
C352 C347 1.501 . S
C352 H353 0.961 . S
C352 H354 0.961 . S
C352 H355 0.960 . S
H353 C352 0.961 . S
H354 C352 0.961 . S
H355 C352 0.960 . S
C356 N357 1.342 . S
C356 C360 1.401 . S
C356 C361 1.499 . S
N357 Co340 1.989 . S
N357 C356 1.342 . S
N357 N358 1.388 . S
N358 Co341 1.993 . S
N358 N357 1.388 . S
N358 C359 1.346 . S
C359 N358 1.346 . S
C359 C360 1.396 . S
C359 C369 1.510 . S
C360 C356 1.401 . S
C360 C359 1.396 . S
C361 C356 1.499 . S
C361 H362 0.959 . S
C361 H363 0.960 . S
C361 H364 0.961 . S
H362 C361 0.959 . S
H363 C361 0.960 . S
H364 C361 0.961 . S
O365 Co340 1.967 . S
O365 C373 1.258 . S
O366 Co341 1.941 . S
O366 C373 1.266 . S
H367 C369 0.959 . S
H368 C369 0.961 . S
C369 C359 1.510 . S
C369 H367 0.959 . S
C369 H368 0.961 . S
C369 H370 0.960 . S
H370 C369 0.960 . S
H371 N351 0.862 . S
O372 Co340 1.920 . S
O372 C345 1.289 . S
C373 O365 1.258 . S
C373 O366 1.266 . S
Co374 O377 1.970 . S
Co374 N391 1.989 . S
Co374 O399 1.967 . S
Co374 O406 1.920 . S
Co375 O378 1.966 . S
Co375 N384 2.022 . S
Co375 N392 1.993 . S
Co375 O400 1.941 . S
C376 O377 1.258 . S
C376 O378 1.263 . S
O377 Co374 1.970 . S
O377 C376 1.258 . S
O378 Co375 1.966 . S
O378 C376 1.263 . S
C379 O380 1.235 . S
C379 O406 1.289 . S
O380 C379 1.235 . S
C381 C383 1.400 . S
C381 N384 1.351 . S
C381 C386 1.501 . S
C382 C383 1.387 . S
C382 N385 1.341 . S
C383 C381 1.400 . S
C383 C382 1.387 . S
N384 Co375 2.022 . S
N384 C381 1.351 . S
N384 N385 1.365 . S
N385 C382 1.341 . S
N385 N384 1.365 . S
N385 H405 0.862 . S
C386 C381 1.501 . S
C386 H387 0.961 . S
C386 H388 0.961 . S
C386 H389 0.960 . S
H387 C386 0.961 . S
H388 C386 0.961 . S
H389 C386 0.960 . S
C390 N391 1.342 . S
C390 C394 1.401 . S
C390 C395 1.499 . S
N391 Co374 1.989 . S
N391 C390 1.342 . S
N391 N392 1.388 . S
N392 Co375 1.993 . S
N392 N391 1.388 . S
N392 C393 1.346 . S
C393 N392 1.346 . S
C393 C394 1.396 . S
C393 C403 1.510 . S
C394 C390 1.401 . S
C394 C393 1.396 . S
C395 C390 1.499 . S
C395 H396 0.959 . S
C395 H397 0.960 . S
C395 H398 0.961 . S
H396 C395 0.959 . S
H397 C395 0.960 . S
H398 C395 0.961 . S
O399 Co374 1.967 . S
O399 C407 1.258 . S
O400 Co375 1.941 . S
O400 C407 1.266 . S
H401 C403 0.959 . S
H402 C403 0.961 . S
C403 C393 1.510 . S
C403 H401 0.959 . S
C403 H402 0.961 . S
C403 H404 0.960 . S
H404 C403 0.960 . S
H405 N385 0.862 . S
O406 Co374 1.920 . S
O406 C379 1.289 . S
C407 O399 1.258 . S
C407 O400 1.266 . S
Co408 O411 1.970 . S
Co408 N425 1.989 . S
Co408 O433 1.967 . S
Co408 O440 1.920 . S
Co409 O412 1.966 . S
Co409 N418 2.022 . S
Co409 N426 1.993 . S
Co409 O434 1.941 . S
C410 O411 1.258 . S
C410 O412 1.263 . S
O411 Co408 1.970 . S
O411 C410 1.258 . S
O412 Co409 1.966 . S
O412 C410 1.263 . S
C413 O414 1.235 . S
C413 O440 1.289 . S
O414 C413 1.235 . S
C415 C417 1.400 . S
C415 N418 1.351 . S
C415 C420 1.501 . S
C416 C417 1.387 . S
C416 N419 1.341 . S
C417 C415 1.400 . S
C417 C416 1.387 . S
N418 Co409 2.022 . S
N418 C415 1.351 . S
N418 N419 1.365 . S
N419 C416 1.341 . S
N419 N418 1.365 . S
N419 H439 0.862 . S
C420 C415 1.501 . S
C420 H421 0.961 . S
C420 H422 0.961 . S
C420 H423 0.960 . S
H421 C420 0.961 . S
H422 C420 0.961 . S
H423 C420 0.960 . S
C424 N425 1.342 . S
C424 C428 1.401 . S
C424 C429 1.499 . S
N425 Co408 1.989 . S
N425 C424 1.342 . S
N425 N426 1.388 . S
N426 Co409 1.993 . S
N426 N425 1.388 . S
N426 C427 1.346 . S
C427 N426 1.346 . S
C427 C428 1.396 . S
C427 C437 1.510 . S
C428 C424 1.401 . S
C428 C427 1.396 . S
C429 C424 1.499 . S
C429 H430 0.959 . S
C429 H431 0.960 . S
C429 H432 0.961 . S
H430 C429 0.959 . S
H431 C429 0.960 . S
H432 C429 0.961 . S
O433 Co408 1.967 . S
O433 C441 1.258 . S
O434 Co409 1.941 . S
O434 C441 1.266 . S
H435 C437 0.959 . S
H436 C437 0.961 . S
C437 C427 1.510 . S
C437 H435 0.959 . S
C437 H436 0.961 . S
C437 H438 0.960 . S
H438 C437 0.960 . S
H439 N419 0.862 . S
O440 Co408 1.920 . S
O440 C413 1.289 . S
C441 O433 1.258 . S
C441 O434 1.266 . S
Co442 O445 1.970 . S
Co442 N459 1.989 . S
Co442 O467 1.967 . S
Co442 O474 1.920 . S
Co443 O446 1.966 . S
Co443 N452 2.022 . S
Co443 N460 1.993 . S
Co443 O468 1.941 . S
C444 O445 1.258 . S
C444 O446 1.263 . S
O445 Co442 1.970 . S
O445 C444 1.258 . S
O446 Co443 1.966 . S
O446 C444 1.263 . S
C447 O448 1.235 . S
C447 O474 1.289 . S
O448 C447 1.235 . S
C449 C451 1.400 . S
C449 N452 1.351 . S
C449 C454 1.501 . S
C450 C451 1.387 . S
C450 N453 1.341 . S
C451 C449 1.400 . S
C451 C450 1.387 . S
N452 Co443 2.022 . S
N452 C449 1.351 . S
N452 N453 1.365 . S
N453 C450 1.341 . S
N453 N452 1.365 . S
N453 H473 0.862 . S
C454 C449 1.501 . S
C454 H455 0.961 . S
C454 H456 0.961 . S
C454 H457 0.960 . S
H455 C454 0.961 . S
H456 C454 0.961 . S
H457 C454 0.960 . S
C458 N459 1.342 . S
C458 C462 1.401 . S
C458 C463 1.499 . S
N459 Co442 1.989 . S
N459 C458 1.342 . S
N459 N460 1.388 . S
N460 Co443 1.993 . S
N460 N459 1.388 . S
N460 C461 1.346 . S
C461 N460 1.346 . S
C461 C462 1.396 . S
C461 C471 1.510 . S
C462 C458 1.401 . S
C462 C461 1.396 . S
C463 C458 1.499 . S
C463 H464 0.959 . S
C463 H465 0.960 . S
C463 H466 0.961 . S
H464 C463 0.959 . S
H465 C463 0.960 . S
H466 C463 0.961 . S
O467 Co442 1.967 . S
O467 C475 1.258 . S
O468 Co443 1.941 . S
O468 C475 1.266 . S
H469 C471 0.959 . S
H470 C471 0.961 . S
C471 C461 1.510 . S
C471 H469 0.959 . S
C471 H470 0.961 . S
C471 H472 0.960 . S
H472 C471 0.960 . S
H473 N453 0.862 . S
O474 Co442 1.920 . S
O474 C447 1.289 . S
C475 O467 1.258 . S
C475 O468 1.266 . S
Co476 O479 1.970 . S
Co476 N493 1.989 . S
Co476 O501 1.967 . S
Co476 O508 1.920 . S
Co477 O480 1.966 . S
Co477 N486 2.022 . S
Co477 N494 1.993 . S
Co477 O502 1.941 . S
C478 O479 1.258 . S
C478 O480 1.263 . S
O479 Co476 1.970 . S
O479 C478 1.258 . S
O480 Co477 1.966 . S
O480 C478 1.263 . S
C481 O482 1.235 . S
C481 O508 1.289 . S
O482 C481 1.235 . S
C483 C485 1.400 . S
C483 N486 1.351 . S
C483 C488 1.501 . S
C484 C485 1.387 . S
C484 N487 1.341 . S
C485 C483 1.400 . S
C485 C484 1.387 . S
N486 Co477 2.022 . S
N486 C483 1.351 . S
N486 N487 1.365 . S
N487 C484 1.341 . S
N487 N486 1.365 . S
N487 H507 0.862 . S
C488 C483 1.501 . S
C488 H489 0.961 . S
C488 H490 0.961 . S
C488 H491 0.960 . S
H489 C488 0.961 . S
H490 C488 0.961 . S
H491 C488 0.960 . S
C492 N493 1.342 . S
C492 C496 1.401 . S
C492 C497 1.499 . S
N493 Co476 1.989 . S
N493 C492 1.342 . S
N493 N494 1.388 . S
N494 Co477 1.993 . S
N494 N493 1.388 . S
N494 C495 1.346 . S
C495 N494 1.346 . S
C495 C496 1.396 . S
C495 C505 1.510 . S
C496 C492 1.401 . S
C496 C495 1.396 . S
C497 C492 1.499 . S
C497 H498 0.959 . S
C497 H499 0.960 . S
C497 H500 0.961 . S
H498 C497 0.959 . S
H499 C497 0.960 . S
H500 C497 0.961 . S
O501 Co476 1.967 . S
O501 C509 1.258 . S
O502 Co477 1.941 . S
O502 C509 1.266 . S
H503 C505 0.959 . S
H504 C505 0.961 . S
C505 C495 1.510 . S
C505 H503 0.959 . S
C505 H504 0.961 . S
C505 H506 0.960 . S
H506 C505 0.960 . S
H507 N487 0.862 . S
O508 Co476 1.920 . S
O508 C481 1.289 . S
C509 O501 1.258 . S
C509 O502 1.266 . S
Co510 O513 1.970 . S
Co510 N527 1.989 . S
Co510 O535 1.967 . S
Co510 O542 1.920 . S
Co511 O514 1.966 . S
Co511 N520 2.022 . S
Co511 N528 1.993 . S
Co511 O536 1.941 . S
C512 O513 1.258 . S
C512 O514 1.263 . S
O513 Co510 1.970 . S
O513 C512 1.258 . S
O514 Co511 1.966 . S
O514 C512 1.263 . S
C515 O516 1.235 . S
C515 O542 1.289 . S
O516 C515 1.235 . S
C517 C519 1.400 . S
C517 N520 1.351 . S
C517 C522 1.501 . S
C518 C519 1.387 . S
C518 N521 1.341 . S
C519 C517 1.400 . S
C519 C518 1.387 . S
N520 Co511 2.022 . S
N520 C517 1.351 . S
N520 N521 1.365 . S
N521 C518 1.341 . S
N521 N520 1.365 . S
N521 H541 0.862 . S
C522 C517 1.501 . S
C522 H523 0.961 . S
C522 H524 0.961 . S
C522 H525 0.960 . S
H523 C522 0.961 . S
H524 C522 0.961 . S
H525 C522 0.960 . S
C526 N527 1.342 . S
C526 C530 1.401 . S
C526 C531 1.499 . S
N527 Co510 1.989 . S
N527 C526 1.342 . S
N527 N528 1.388 . S
N528 Co511 1.993 . S
N528 N527 1.388 . S
N528 C529 1.346 . S
C529 N528 1.346 . S
C529 C530 1.396 . S
C529 C539 1.510 . S
C530 C526 1.401 . S
C530 C529 1.396 . S
C531 C526 1.499 . S
C531 H532 0.959 . S
C531 H533 0.960 . S
C531 H534 0.961 . S
H532 C531 0.959 . S
H533 C531 0.960 . S
H534 C531 0.961 . S
O535 Co510 1.967 . S
O535 C543 1.258 . S
O536 Co511 1.941 . S
O536 C543 1.266 . S
H537 C539 0.959 . S
H538 C539 0.961 . S
C539 C529 1.510 . S
C539 H537 0.959 . S
C539 H538 0.961 . S
C539 H540 0.960 . S
H540 C539 0.960 . S
H541 N521 0.862 . S
O542 Co510 1.920 . S
O542 C515 1.289 . S
C543 O535 1.258 . S
C543 O536 1.266 . S
Co544 O547 1.970 . S
Co544 N561 1.989 . S
Co544 O569 1.967 . S
Co544 O576 1.920 . S
Co545 O548 1.966 . S
Co545 N554 2.022 . S
Co545 N562 1.993 . S
Co545 O570 1.941 . S
C546 O547 1.258 . S
C546 O548 1.263 . S
O547 Co544 1.970 . S
O547 C546 1.258 . S
O548 Co545 1.966 . S
O548 C546 1.263 . S
C549 O550 1.235 . S
C549 O576 1.289 . S
O550 C549 1.235 . S
C551 C553 1.400 . S
C551 N554 1.351 . S
C551 C556 1.501 . S
C552 C553 1.387 . S
C552 N555 1.341 . S
C553 C551 1.400 . S
C553 C552 1.387 . S
N554 Co545 2.022 . S
N554 C551 1.351 . S
N554 N555 1.365 . S
N555 C552 1.341 . S
N555 N554 1.365 . S
N555 H575 0.862 . S
C556 C551 1.501 . S
C556 H557 0.961 . S
C556 H558 0.961 . S
C556 H559 0.960 . S
H557 C556 0.961 . S
H558 C556 0.961 . S
H559 C556 0.960 . S
C560 N561 1.342 . S
C560 C564 1.401 . S
C560 C565 1.499 . S
N561 Co544 1.989 . S
N561 C560 1.342 . S
N561 N562 1.388 . S
N562 Co545 1.993 . S
N562 N561 1.388 . S
N562 C563 1.346 . S
C563 N562 1.346 . S
C563 C564 1.396 . S
C563 C573 1.510 . S
C564 C560 1.401 . S
C564 C563 1.396 . S
C565 C560 1.499 . S
C565 H566 0.959 . S
C565 H567 0.960 . S
C565 H568 0.961 . S
H566 C565 0.959 . S
H567 C565 0.960 . S
H568 C565 0.961 . S
O569 Co544 1.967 . S
O569 C577 1.258 . S
O570 Co545 1.941 . S
O570 C577 1.266 . S
H571 C573 0.959 . S
H572 C573 0.961 . S
C573 C563 1.510 . S
C573 H571 0.959 . S
C573 H572 0.961 . S
C573 H574 0.960 . S
H574 C573 0.960 . S
H575 N555 0.862 . S
O576 Co544 1.920 . S
O576 C549 1.289 . S
C577 O569 1.258 . S
C577 O570 1.266 . S
Co578 O581 1.970 . S
Co578 N595 1.989 . S
Co578 O603 1.967 . S
Co578 O610 1.920 . S
Co579 O582 1.966 . S
Co579 N588 2.022 . S
Co579 N596 1.993 . S
Co579 O604 1.941 . S
C580 O581 1.258 . S
C580 O582 1.263 . S
O581 Co578 1.970 . S
O581 C580 1.258 . S
O582 Co579 1.966 . S
O582 C580 1.263 . S
C583 O584 1.235 . S
C583 O610 1.289 . S
O584 C583 1.235 . S
C585 C587 1.400 . S
C585 N588 1.351 . S
C585 C590 1.501 . S
C586 C587 1.387 . S
C586 N589 1.341 . S
C587 C585 1.400 . S
C587 C586 1.387 . S
N588 Co579 2.022 . S
N588 C585 1.351 . S
N588 N589 1.365 . S
N589 C586 1.341 . S
N589 N588 1.365 . S
N589 H609 0.862 . S
C590 C585 1.501 . S
C590 H591 0.961 . S
C590 H592 0.961 . S
C590 H593 0.960 . S
H591 C590 0.961 . S
H592 C590 0.961 . S
H593 C590 0.960 . S
C594 N595 1.342 . S
C594 C598 1.401 . S
C594 C599 1.499 . S
N595 Co578 1.989 . S
N595 C594 1.342 . S
N595 N596 1.388 . S
N596 Co579 1.993 . S
N596 N595 1.388 . S
N596 C597 1.346 . S
C597 N596 1.346 . S
C597 C598 1.396 . S
C597 C607 1.510 . S
C598 C594 1.401 . S
C598 C597 1.396 . S
C599 C594 1.499 . S
C599 H600 0.959 . S
C599 H601 0.960 . S
C599 H602 0.961 . S
H600 C599 0.959 . S
H601 C599 0.960 . S
H602 C599 0.961 . S
O603 Co578 1.967 . S
O603 C611 1.258 . S
O604 Co579 1.941 . S
O604 C611 1.266 . S
H605 C607 0.959 . S
H606 C607 0.961 . S
C607 C597 1.510 . S
C607 H605 0.959 . S
C607 H606 0.961 . S
C607 H608 0.960 . S
H608 C607 0.960 . S
H609 N589 0.862 . S
O610 Co578 1.920 . S
O610 C583 1.289 . S
C611 O603 1.258 . S
C611 O604 1.266 . S
C612 C613 1.391 . S
C612 C614 1.394 . S
C612 H628 0.931 . S
C613 C612 1.391 . S
C613 C617 1.376 . S
C614 C612 1.394 . S
C614 C615 1.369 . S
C614 C618 1.531 . S
C615 C614 1.369 . S
C615 C616 1.410 . S
C615 C623 1.503 . S
C616 C615 1.410 . S
C616 C617 1.392 . S
C616 C619 1.511 . S
C617 C613 1.376 . S
C617 C616 1.392 . S
C617 H629 0.929 . S
C618 C614 1.531 . S
C618 H630 0.960 . S
C618 H631 0.962 . S
C618 H632 0.960 . S
C619 C616 1.511 . S
C619 H633 0.961 . S
C619 H634 0.961 . S
C619 H635 0.961 . S
C620 C621 1.370 . S
C620 C622 1.363 . S
C620 H636 0.931 . S
C621 C620 1.370 . S
C621 C625 1.408 . S
C622 C620 1.363 . S
C622 C623 1.370 . S
C622 C626 1.524 . S
C623 C615 1.503 . S
C623 C622 1.370 . S
C623 C624 1.403 . S
C624 C623 1.403 . S
C624 C625 1.404 . S
C624 C627 1.539 . S
C625 C621 1.408 . S
C625 C624 1.404 . S
C625 H637 0.930 . S
C626 C622 1.524 . S
C626 H638 0.956 . S
C626 H639 0.961 . S
C626 H640 0.961 . S
C627 C624 1.539 . S
C627 H641 0.958 . S
C627 H642 0.961 . S
C627 H643 0.960 . S
H628 C612 0.931 . S
H629 C617 0.929 . S
H630 C618 0.960 . S
H631 C618 0.962 . S
H632 C618 0.960 . S
H633 C619 0.961 . S
H634 C619 0.961 . S
H635 C619 0.961 . S
H636 C620 0.931 . S
H637 C625 0.930 . S
H638 C626 0.956 . S
H639 C626 0.961 . S
H640 C626 0.961 . S
H641 C627 0.958 . S
H642 C627 0.961 . S
H643 C627 0.960 . S
C644 C645 1.385 1_565 S
C644 C646 1.394 1_565 S
C644 H660 0.931 . S
C645 C644 1.385 1_545 S
C645 C649 1.411 . S
C646 C644 1.394 1_545 S
C646 C647 1.369 . S
C646 C650 1.531 . S
C647 C646 1.369 . S
C647 C648 1.410 . S
C647 C655 1.503 . S
C648 C647 1.410 . S
C648 C649 1.392 . S
C648 C651 1.511 . S
C649 C645 1.411 . S
C649 C648 1.392 . S
C649 H661 0.929 . S
C650 C646 1.531 . S
C650 H662 0.960 . S
C650 H663 0.962 . S
C650 H664 0.960 1_545 S
C651 C648 1.511 . S
C651 H665 0.961 . S
C651 H666 0.961 . S
C651 H667 0.961 . S
C652 C653 1.370 . S
C652 C654 1.363 . S
C652 H668 0.931 . S
C653 C652 1.370 . S
C653 C657 1.408 . S
C654 C652 1.363 . S
C654 C655 1.370 . S
C654 C658 1.524 . S
C655 C647 1.503 . S
C655 C654 1.370 . S
C655 C656 1.403 . S
C656 C655 1.403 . S
C656 C657 1.404 . S
C656 C659 1.539 . S
C657 C653 1.408 . S
C657 C656 1.404 . S
C657 H669 0.930 . S
C658 C654 1.524 . S
C658 H670 0.956 . S
C658 H671 0.961 . S
C658 H672 0.961 . S
C659 C656 1.539 . S
C659 H673 0.958 . S
C659 H674 0.961 . S
C659 H675 0.960 . S
H660 C644 0.931 . S
H661 C649 0.929 . S
H662 C650 0.960 . S
H663 C650 0.962 . S
H664 C650 0.960 1_565 S
H665 C651 0.961 . S
H666 C651 0.961 . S
H667 C651 0.961 . S
H668 C652 0.931 . S
H669 C657 0.930 . S
H670 C658 0.956 . S
H671 C658 0.961 . S
H672 C658 0.961 . S
H673 C659 0.958 . S
H674 C659 0.961 . S
H675 C659 0.960 . S
C676 C677 1.427 . S
C676 C678 1.394 . S
C676 H692 0.931 . S
C677 C676 1.427 . S
C677 C681 1.355 1_655 S
C678 C676 1.394 . S
C678 C679 1.369 . S
C678 C682 1.531 . S
C679 C678 1.369 . S
C679 C680 1.410 . S
C679 C687 1.503 . S
C680 C679 1.410 . S
C680 C681 1.392 1_655 S
C680 C683 1.511 . S
C681 C677 1.355 1_455 S
C681 C680 1.392 1_455 S
C681 H693 0.929 . S
C682 C678 1.531 . S
C682 H694 0.960 . S
C682 H695 0.962 . S
C682 H696 0.960 . S
C683 C680 1.511 . S
C683 H697 0.961 1_655 S
C683 H698 0.961 . S
C683 H699 0.961 . S
C684 C685 1.370 . S
C684 C686 1.363 . S
C684 H700 0.931 . S
C685 C684 1.370 . S
C685 C689 1.408 . S
C686 C684 1.363 . S
C686 C687 1.370 . S
C686 C690 1.524 . S
C687 C679 1.503 . S
C687 C686 1.370 . S
C687 C688 1.403 . S
C688 C687 1.403 . S
C688 C689 1.404 . S
C688 C691 1.539 . S
C689 C685 1.408 . S
C689 C688 1.404 . S
C689 H701 0.930 . S
C690 C686 1.524 . S
C690 H702 0.956 . S
C690 H703 0.961 . S
C690 H704 0.961 . S
C691 C688 1.539 . S
C691 H705 0.958 . S
C691 H706 0.961 . S
C691 H707 0.960 . S
H692 C676 0.931 . S
H693 C681 0.929 . S
H694 C682 0.960 . S
H695 C682 0.962 . S
H696 C682 0.960 . S
H697 C683 0.961 1_455 S
H698 C683 0.961 . S
H699 C683 0.961 . S
H700 C684 0.931 . S
H701 C689 0.930 . S
H702 C690 0.956 . S
H703 C690 0.961 . S
H704 C690 0.961 . S
H705 C691 0.958 . S
H706 C691 0.961 . S
H707 C691 0.960 . S
C708 C709 1.391 . S
C708 C710 1.394 . S
C708 H724 0.931 . S
C709 C708 1.391 . S
C709 C713 1.376 . S
C710 C708 1.394 . S
C710 C711 1.369 . S
C710 C714 1.531 . S
C711 C710 1.369 . S
C711 C712 1.410 . S
C711 C719 1.503 . S
C712 C711 1.410 . S
C712 C713 1.392 . S
C712 C715 1.511 . S
C713 C709 1.376 . S
C713 C712 1.392 . S
C713 H725 0.929 . S
C714 C710 1.531 . S
C714 H726 0.960 . S
C714 H727 0.962 . S
C714 H728 0.960 . S
C715 C712 1.511 . S
C715 H729 0.961 . S
C715 H730 0.961 . S
C715 H731 0.961 . S
C716 C717 1.370 . S
C716 C718 1.363 . S
C716 H732 0.931 . S
C717 C716 1.370 . S
C717 C721 1.408 . S
C718 C716 1.363 . S
C718 C719 1.370 . S
C718 C722 1.524 . S
C719 C711 1.503 . S
C719 C718 1.370 . S
C719 C720 1.403 . S
C720 C719 1.403 . S
C720 C721 1.404 . S
C720 C723 1.539 . S
C721 C717 1.408 . S
C721 C720 1.404 . S
C721 H733 0.930 . S
C722 C718 1.524 . S
C722 H734 0.956 . S
C722 H735 0.961 . S
C722 H736 0.961 . S
C723 C720 1.539 . S
C723 H737 0.958 . S
C723 H738 0.961 . S
C723 H739 0.960 . S
H724 C708 0.931 . S
H725 C713 0.929 . S
H726 C714 0.960 . S
H727 C714 0.962 . S
H728 C714 0.960 . S
H729 C715 0.961 . S
H730 C715 0.961 . S
H731 C715 0.961 . S
H732 C716 0.931 . S
H733 C721 0.930 . S
H734 C722 0.956 . S
H735 C722 0.961 . S
H736 C722 0.961 . S
H737 C723 0.958 . S
H738 C723 0.961 . S
H739 C723 0.960 . S
C740 C741 1.391 . S
C740 C742 1.394 . S
C740 H756 0.931 . S
C741 C740 1.391 . S
C741 C745 1.376 . S
C742 C740 1.394 . S
C742 C743 1.369 . S
C742 C746 1.531 . S
C743 C742 1.369 . S
C743 C744 1.410 . S
C743 C751 1.503 . S
C744 C743 1.410 . S
C744 C745 1.392 . S
C744 C747 1.511 . S
C745 C741 1.376 . S
C745 C744 1.392 . S
C745 H757 0.929 1_565 S
C746 C742 1.531 . S
C746 H758 0.960 . S
C746 H759 0.962 . S
C746 H760 0.960 . S
C747 C744 1.511 . S
C747 H761 0.961 . S
C747 H762 0.961 . S
C747 H763 0.961 . S
C748 C749 1.370 . S
C748 C750 1.363 . S
C748 H764 0.931 . S
C749 C748 1.370 . S
C749 C753 1.408 . S
C750 C748 1.363 . S
C750 C751 1.370 . S
C750 C754 1.524 . S
C751 C743 1.503 . S
C751 C750 1.370 . S
C751 C752 1.403 . S
C752 C751 1.403 . S
C752 C753 1.404 . S
C752 C755 1.539 . S
C753 C749 1.408 . S
C753 C752 1.404 . S
C753 H765 0.930 . S
C754 C750 1.524 . S
C754 H766 0.956 . S
C754 H767 0.961 . S
C754 H768 0.961 . S
C755 C752 1.539 . S
C755 H769 0.958 . S
C755 H770 0.961 . S
C755 H771 0.960 . S
H756 C740 0.931 . S
H757 C745 0.929 1_545 S
H758 C746 0.960 . S
H759 C746 0.962 . S
H760 C746 0.960 . S
H761 C747 0.961 . S
H762 C747 0.961 . S
H763 C747 0.961 . S
H764 C748 0.931 . S
H765 C753 0.930 . S
H766 C754 0.956 . S
H767 C754 0.961 . S
H768 C754 0.961 . S
H769 C755 0.958 . S
H770 C755 0.961 . S
H771 C755 0.960 . S
C772 C773 1.391 1_455 S
C772 C774 1.394 . S
C772 H788 0.931 . S
C773 C772 1.391 1_655 S
C773 C777 1.376 . S
C774 C772 1.394 . S
C774 C775 1.369 . S
C774 C778 1.531 . S
C775 C774 1.369 . S
C775 C776 1.410 . S
C775 C783 1.503 . S
C776 C775 1.410 . S
C776 C777 1.392 1_455 S
C776 C779 1.511 . S
C777 C773 1.376 . S
C777 C776 1.392 1_655 S
C777 H789 0.929 . S
C778 C774 1.531 . S
C778 H790 0.960 . S
C778 H791 0.962 . S
C778 H792 0.960 . S
C779 C776 1.511 . S
C779 H793 0.961 . S
C779 H794 0.961 . S
C779 H795 0.958 . S
C780 C781 1.370 . S
C780 C782 1.363 . S
C780 H796 0.931 . S
C781 C780 1.370 . S
C781 C785 1.408 . S
C782 C780 1.363 . S
C782 C783 1.370 . S
C782 C786 1.524 . S
C783 C775 1.503 . S
C783 C782 1.370 . S
C783 C784 1.403 . S
C784 C783 1.403 . S
C784 C785 1.404 . S
C784 C787 1.539 . S
C785 C781 1.408 . S
C785 C784 1.404 . S
C785 H797 0.930 . S
C786 C782 1.524 . S
C786 H798 0.956 . S
C786 H799 0.961 . S
C786 H800 0.961 . S
C787 C784 1.539 . S
C787 H801 0.958 . S
C787 H802 0.961 . S
C787 H803 0.960 . S
H788 C772 0.931 . S
H789 C777 0.929 . S
H790 C778 0.960 . S
H791 C778 0.962 . S
H792 C778 0.960 . S
H793 C779 0.961 . S
H794 C779 0.961 . S
H795 C779 0.958 . S
H796 C780 0.931 . S
H797 C785 0.930 . S
H798 C786 0.956 . S
H799 C786 0.961 . S
H800 C786 0.961 . S
H801 C787 0.958 . S
H802 C787 0.961 . S
H803 C787 0.960 . S
C804 C805 1.391 . S
C804 C806 1.394 . S
C804 H820 0.931 . S
C805 C804 1.391 . S
C805 C809 1.376 . S
C806 C804 1.394 . S
C806 C807 1.369 . S
C806 C810 1.531 . S
C807 C806 1.369 . S
C807 C808 1.410 . S
C807 C815 1.503 . S
C808 C807 1.410 . S
C808 C809 1.392 . S
C808 C811 1.518 . S
C809 C805 1.376 . S
C809 C808 1.392 . S
C809 H821 0.929 . S
C810 C806 1.531 . S
C810 H822 0.960 . S
C810 H823 0.962 . S
C810 H824 0.960 . S
C811 C808 1.518 . S
C811 H825 0.967 . S
C811 H826 0.956 1_655 S
C811 H827 0.952 1_655 S
C812 C813 1.370 . S
C812 C814 1.363 1_455 S
C812 H828 0.938 . S
C813 C812 1.370 . S
C813 C817 1.408 . S
C814 C812 1.363 1_655 S
C814 C815 1.370 . S
C814 C818 1.524 . S
C815 C807 1.503 . S
C815 C814 1.370 . S
C815 C816 1.403 1_655 S
C816 C815 1.403 1_455 S
C816 C817 1.404 . S
C816 C819 1.539 . S
C817 C813 1.408 . S
C817 C816 1.404 . S
C817 H829 0.930 . S
C818 C814 1.524 . S
C818 H830 0.956 . S
C818 H831 0.961 . S
C818 H832 0.961 . S
C819 C816 1.539 . S
C819 H833 0.958 1_455 S
C819 H834 0.961 . S
C819 H835 0.931 1_455 S
H820 C804 0.931 . S
H821 C809 0.929 . S
H822 C810 0.960 . S
H823 C810 0.962 . S
H824 C810 0.960 . S
H825 C811 0.967 . S
H826 C811 0.956 1_455 S
H827 C811 0.952 1_455 S
H828 C812 0.938 . S
H829 C817 0.930 . S
H830 C818 0.956 . S
H831 C818 0.961 . S
H832 C818 0.961 . S
H833 C819 0.958 1_655 S
H834 C819 0.961 . S
H835 C819 0.931 1_655 S
C836 C837 1.391 . S
C836 C838 1.394 . S
C836 H852 0.931 . S
C837 C836 1.391 . S
C837 C841 1.376 . S
C838 C836 1.394 . S
C838 C839 1.369 . S
C838 C842 1.531 . S
C839 C838 1.369 . S
C839 C840 1.410 . S
C839 C847 1.503 . S
C840 C839 1.410 . S
C840 C841 1.392 . S
C840 C843 1.511 . S
C841 C837 1.376 . S
C841 C840 1.392 . S
C841 H853 0.929 . S
C842 C838 1.531 . S
C842 H854 0.960 . S
C842 H855 0.962 . S
C842 H856 0.960 . S
C843 C840 1.511 . S
C843 H857 0.961 . S
C843 H858 0.961 . S
C843 H859 0.961 . S
C844 C845 1.370 . S
C844 C846 1.363 . S
C844 H860 0.931 . S
C845 C844 1.370 . S
C845 C849 1.408 . S
C846 C844 1.363 . S
C846 C847 1.370 . S
C846 C850 1.524 . S
C847 C839 1.503 . S
C847 C846 1.370 . S
C847 C848 1.403 . S
C848 C847 1.403 . S
C848 C849 1.404 . S
C848 C851 1.539 . S
C849 C845 1.408 . S
C849 C848 1.404 . S
C849 H861 0.930 . S
C850 C846 1.524 . S
C850 H862 0.956 . S
C850 H863 0.961 . S
C850 H864 0.961 . S
C851 C848 1.539 . S
C851 H865 0.958 . S
C851 H866 0.961 . S
C851 H867 0.960 . S
H852 C836 0.931 . S
H853 C841 0.929 . S
H854 C842 0.960 . S
H855 C842 0.962 . S
H856 C842 0.960 . S
H857 C843 0.961 . S
H858 C843 0.961 . S
H859 C843 0.961 . S
H860 C844 0.931 . S
H861 C849 0.930 . S
H862 C850 0.956 . S
H863 C850 0.961 . S
H864 C850 0.961 . S
H865 C851 0.958 . S
H866 C851 0.961 . S
H867 C851 0.960 . S
C868 C869 1.391 1_545 S
C868 C870 1.394 . S
C868 H884 0.931 . S
C869 C868 1.391 1_565 S
C869 C873 1.376 . S
C870 C868 1.394 . S
C870 C871 1.369 . S
C870 C874 1.531 . S
C871 C870 1.369 . S
C871 C872 1.410 1_545 S
C871 C879 1.503 . S
C872 C871 1.410 1_565 S
C872 C873 1.392 . S
C872 C875 1.511 . S
C873 C869 1.376 . S
C873 C872 1.392 . S
C873 H885 0.929 . S
C874 C870 1.531 . S
C874 H886 0.960 . S
C874 H887 0.962 . S
C874 H888 0.960 . S
C875 C872 1.511 . S
C875 H889 0.961 . S
C875 H890 0.961 . S
C875 H891 0.961 . S
C876 C877 1.370 . S
C876 C878 1.363 . S
C876 H892 0.931 . S
C877 C876 1.370 . S
C877 C881 1.408 . S
C878 C876 1.363 . S
C878 C879 1.370 . S
C878 C882 1.524 . S
C879 C871 1.503 . S
C879 C878 1.370 . S
C879 C880 1.403 . S
C880 C879 1.403 . S
C880 C881 1.404 . S
C880 C883 1.539 . S
C881 C877 1.408 . S
C881 C880 1.404 . S
C881 H893 0.930 . S
C882 C878 1.524 . S
C882 H894 0.956 . S
C882 H895 0.961 . S
C882 H896 0.961 . S
C883 C880 1.539 . S
C883 H897 0.958 . S
C883 H898 0.961 . S
C883 H899 0.960 . S
H884 C868 0.931 . S
H885 C873 0.929 . S
H886 C874 0.960 . S
H887 C874 0.962 . S
H888 C874 0.960 . S
H889 C875 0.961 . S
H890 C875 0.961 . S
H891 C875 0.961 . S
H892 C876 0.931 . S
H893 C881 0.930 . S
H894 C882 0.956 . S
H895 C882 0.961 . S
H896 C882 0.961 . S
H897 C883 0.958 . S
H898 C883 0.961 . S
H899 C883 0.960 . S
C900 C901 1.391 . S
C900 C902 1.394 . S
C900 H916 0.931 . S
C901 C900 1.391 . S
C901 C905 1.376 . S
C902 C900 1.394 . S
C902 C903 1.369 . S
C902 C906 1.531 . S
C903 C902 1.369 . S
C903 C904 1.410 . S
C903 C911 1.503 . S
C904 C903 1.410 . S
C904 C905 1.392 . S
C904 C907 1.511 . S
C905 C901 1.376 . S
C905 C904 1.392 . S
C905 H917 0.929 . S
C906 C902 1.531 . S
C906 H918 0.963 . S
C906 H919 0.962 1_554 S
C906 H920 0.960 . S
C907 C904 1.511 . S
C907 H921 0.961 . S
C907 H922 0.961 . S
C907 H923 0.961 . S
C908 C909 1.370 . S
C908 C910 1.363 . S
C908 H924 0.931 . S
C909 C908 1.370 . S
C909 C913 1.408 . S
C910 C908 1.363 . S
C910 C911 1.370 1_556 S
C910 C914 1.524 . S
C911 C903 1.503 . S
C911 C910 1.370 1_554 S
C911 C912 1.403 . S
C912 C911 1.403 . S
C912 C913 1.404 1_554 S
C912 C915 1.539 . S
C913 C909 1.408 . S
C913 C912 1.404 1_556 S
C913 H925 0.930 . S
C914 C910 1.524 . S
C914 H926 0.956 . S
C914 H927 0.961 . S
C914 H928 0.961 . S
C915 C912 1.539 . S
C915 H929 0.958 . S
C915 H930 0.961 . S
C915 H931 0.960 . S
H916 C900 0.931 . S
H917 C905 0.929 . S
H918 C906 0.963 . S
H919 C906 0.962 1_556 S
H920 C906 0.960 . S
H921 C907 0.961 . S
H922 C907 0.961 . S
H923 C907 0.961 . S
H924 C908 0.931 . S
H925 C913 0.930 . S
H926 C914 0.956 . S
H927 C914 0.961 . S
H928 C914 0.961 . S
H929 C915 0.958 . S
H930 C915 0.961 . S
H931 C915 0.960 . S
C932 C933 1.391 . S
C932 C934 1.394 . S
C932 H948 0.931 . S
C933 C932 1.391 . S
C933 C937 1.376 . S
C934 C932 1.394 . S
C934 C935 1.369 . S
C934 C938 1.531 1_554 S
C935 C934 1.369 . S
C935 C936 1.410 . S
C935 C943 1.495 1_554 S
C936 C935 1.410 . S
C936 C937 1.392 . S
C936 C939 1.511 . S
C937 C933 1.376 . S
C937 C936 1.392 . S
C937 H949 0.929 . S
C938 C934 1.531 1_556 S
C938 H950 0.960 . S
C938 H951 0.962 . S
C938 H952 0.960 . S
C939 C936 1.511 . S
C939 H953 0.961 . S
C939 H954 0.961 . S
C939 H955 0.961 . S
C940 C941 1.370 . S
C940 C942 1.363 1_556 S
C940 H956 0.931 . S
C941 C940 1.370 . S
C941 C945 1.408 . S
C942 C940 1.363 1_554 S
C942 C943 1.369 1_554 S
C942 C946 1.524 . S
C943 C935 1.495 1_556 S
C943 C942 1.369 1_556 S
C943 C944 1.412 . S
C944 C943 1.412 . S
C944 C945 1.404 . S
C944 C947 1.539 . S
C945 C941 1.408 . S
C945 C944 1.404 . S
C945 H957 0.930 . S
C946 C942 1.524 . S
C946 H958 0.956 . S
C946 H959 0.961 . S
C946 H960 0.961 . S
C947 C944 1.539 . S
C947 H961 0.958 . S
C947 H962 0.961 . S
C947 H963 0.960 . S
H948 C932 0.931 . S
H949 C937 0.929 . S
H950 C938 0.960 . S
H951 C938 0.962 . S
H952 C938 0.960 . S
H953 C939 0.961 . S
H954 C939 0.961 . S
H955 C939 0.961 . S
H956 C940 0.931 . S
H957 C945 0.930 . S
H958 C946 0.956 . S
H959 C946 0.961 . S
H960 C946 0.961 . S
H961 C947 0.958 . S
H962 C947 0.961 . S
H963 C947 0.960 . S
C964 C965 1.391 . S
C964 C966 1.394 . S
C964 H980 0.931 . S
C965 C964 1.391 . S
C965 C969 1.376 . S
C966 C964 1.394 . S
C966 C967 1.369 . S
C966 C970 1.531 . S
C967 C966 1.369 . S
C967 C968 1.410 . S
C967 C975 1.503 . S
C968 C967 1.410 . S
C968 C969 1.392 . S
C968 C971 1.511 . S
C969 C965 1.376 . S
C969 C968 1.392 . S
C969 H981 0.929 . S
C970 C966 1.531 . S
C970 H982 0.960 . S
C970 H983 0.962 . S
C970 H984 0.960 . S
C971 C968 1.511 . S
C971 H985 0.961 . S
C971 H986 0.961 1_554 S
C971 H987 0.961 . S
C972 C973 1.370 . S
C972 C974 1.363 . S
C972 H988 0.931 . S
C973 C972 1.370 . S
C973 C977 1.408 . S
C974 C972 1.363 . S
C974 C975 1.370 1_556 S
C974 C978 1.524 . S
C975 C967 1.503 . S
C975 C974 1.370 1_554 S
C975 C976 1.403 . S
C976 C975 1.403 . S
C976 C977 1.404 1_554 S
C976 C979 1.539 . S
C977 C973 1.408 . S
C977 C976 1.404 1_556 S
C977 H989 0.935 . S
C978 C974 1.524 . S
C978 H990 0.956 . S
C978 H991 0.961 . S
C978 H992 0.961 . S
C979 C976 1.539 . S
C979 H993 0.958 . S
C979 H994 0.961 . S
C979 H995 0.960 . S
H980 C964 0.931 . S
H981 C969 0.929 . S
H982 C970 0.960 . S
H983 C970 0.962 . S
H984 C970 0.960 . S
H985 C971 0.961 . S
H986 C971 0.961 1_556 S
H987 C971 0.961 . S
H988 C972 0.931 . S
H989 C977 0.935 . S
H990 C978 0.956 . S
H991 C978 0.961 . S
H992 C978 0.961 . S
H993 C979 0.958 . S
H994 C979 0.961 . S
H995 C979 0.960 . S
C996 C997 1.391 . S
C996 C998 1.394 . S
C996 H1012 0.931 . S
C997 C996 1.391 . S
C997 C1001 1.376 . S
C998 C996 1.394 . S
C998 C999 1.369 . S
C998 C1002 1.531 . S
C999 C998 1.369 . S
C999 C1000 1.410 . S
C999 C1007 1.503 . S
C1000 C999 1.410 . S
C1000 C1001 1.392 . S
C1000 C1003 1.511 . S
C1001 C997 1.376 . S
C1001 C1000 1.392 . S
C1001 H1013 0.929 . S
C1002 C998 1.531 . S
C1002 H1014 0.960 . S
C1002 H1015 0.962 1_556 S
C1002 H1016 0.960 . S
C1003 C1000 1.511 . S
C1003 H1017 0.961 . S
C1003 H1018 0.961 . S
C1003 H1019 0.961 . S
C1004 C1005 1.370 . S
C1004 C1006 1.363 . S
C1004 H1020 0.931 . S
C1005 C1004 1.370 . S
C1005 C1009 1.408 . S
C1006 C1004 1.363 . S
C1006 C1007 1.370 1_554 S
C1006 C1010 1.524 . S
C1007 C999 1.503 . S
C1007 C1006 1.370 1_556 S
C1007 C1008 1.403 . S
C1008 C1007 1.403 . S
C1008 C1009 1.404 1_556 S
C1008 C1011 1.539 . S
C1009 C1005 1.408 . S
C1009 C1008 1.404 1_554 S
C1009 H1021 0.930 . S
C1010 C1006 1.524 . S
C1010 H1022 0.956 . S
C1010 H1023 0.961 . S
C1010 H1024 0.961 . S
C1011 C1008 1.539 . S
C1011 H1025 0.958 . S
C1011 H1026 0.961 . S
C1011 H1027 0.960 . S
H1012 C996 0.931 . S
H1013 C1001 0.929 . S
H1014 C1002 0.960 . S
H1015 C1002 0.962 1_554 S
H1016 C1002 0.960 . S
H1017 C1003 0.961 . S
H1018 C1003 0.961 . S
H1019 C1003 0.961 . S
H1020 C1004 0.931 . S
H1021 C1009 0.930 . S
H1022 C1010 0.956 . S
H1023 C1010 0.961 . S
H1024 C1010 0.961 . S
H1025 C1011 0.958 . S
H1026 C1011 0.961 . S
H1027 C1011 0.960 . S
C1028 C1029 1.391 . S
C1028 C1030 1.394 . S
C1028 H1044 0.931 . S
C1029 C1028 1.391 . S
C1029 C1033 1.376 . S
C1030 C1028 1.394 . S
C1030 C1031 1.369 . S
C1030 C1034 1.531 . S
C1031 C1030 1.369 . S
C1031 C1032 1.410 . S
C1031 C1039 1.503 . S
C1032 C1031 1.410 . S
C1032 C1033 1.392 . S
C1032 C1035 1.511 . S
C1033 C1029 1.376 . S
C1033 C1032 1.392 . S
C1033 H1045 0.929 . S
C1034 C1030 1.531 . S
C1034 H1046 0.960 . S
C1034 H1047 0.962 . S
C1034 H1048 0.960 . S
C1035 C1032 1.511 . S
C1035 H1049 0.961 . S
C1035 H1050 0.961 1_556 S
C1035 H1051 0.961 . S
C1036 C1037 1.370 . S
C1036 C1038 1.363 . S
C1036 H1052 0.931 . S
C1037 C1036 1.370 . S
C1037 C1041 1.408 . S
C1038 C1036 1.363 . S
C1038 C1039 1.370 1_554 S
C1038 C1042 1.524 . S
C1039 C1031 1.503 . S
C1039 C1038 1.370 1_556 S
C1039 C1040 1.403 . S
C1040 C1039 1.403 . S
C1040 C1041 1.404 1_556 S
C1040 C1043 1.539 . S
C1041 C1037 1.408 . S
C1041 C1040 1.404 1_554 S
C1041 H1053 0.936 . S
C1042 C1038 1.524 . S
C1042 H1054 0.956 . S
C1042 H1055 0.961 . S
C1042 H1056 0.961 . S
C1043 C1040 1.539 . S
C1043 H1057 0.958 . S
C1043 H1058 0.961 . S
C1043 H1059 0.960 . S
H1044 C1028 0.931 . S
H1045 C1033 0.929 . S
H1046 C1034 0.960 . S
H1047 C1034 0.962 . S
H1048 C1034 0.960 . S
H1049 C1035 0.961 . S
H1050 C1035 0.961 1_554 S
H1051 C1035 0.961 . S
H1052 C1036 0.931 . S
H1053 C1041 0.936 . S
H1054 C1042 0.956 . S
H1055 C1042 0.961 . S
H1056 C1042 0.961 . S
H1057 C1043 0.958 . S
H1058 C1043 0.961 . S
H1059 C1043 0.960 . S
C1060 C1061 1.391 . S
C1060 C1062 1.394 1_554 S
C1060 H1076 0.931 . S
C1061 C1060 1.391 . S
C1061 C1065 1.376 . S
C1062 C1060 1.394 1_556 S
C1062 C1063 1.369 1_556 S
C1062 C1066 1.531 . S
C1063 C1062 1.369 1_554 S
C1063 C1064 1.410 . S
C1063 C1071 1.503 1_554 S
C1064 C1063 1.410 . S
C1064 C1065 1.392 . S
C1064 C1067 1.511 . S
C1065 C1061 1.376 . S
C1065 C1064 1.392 . S
C1065 H1077 0.929 . S
C1066 C1062 1.531 . S
C1066 H1078 0.960 . S
C1066 H1079 0.962 . S
C1066 H1080 0.960 . S
C1067 C1064 1.511 . S
C1067 H1081 0.961 . S
C1067 H1082 0.961 . S
C1067 H1083 0.961 . S
C1068 C1069 1.370 . S
C1068 C1070 1.363 . S
C1068 H1084 0.931 . S
C1069 C1068 1.370 . S
C1069 C1073 1.408 . S
C1070 C1068 1.363 . S
C1070 C1071 1.370 . S
C1070 C1074 1.524 . S
C1071 C1063 1.503 1_556 S
C1071 C1070 1.370 . S
C1071 C1072 1.403 . S
C1072 C1071 1.403 . S
C1072 C1073 1.404 . S
C1072 C1075 1.539 1_556 S
C1073 C1069 1.408 . S
C1073 C1072 1.404 . S
C1073 H1085 0.930 . S
C1074 C1070 1.524 . S
C1074 H1086 0.956 . S
C1074 H1087 0.961 . S
C1074 H1088 0.961 . S
C1075 C1072 1.539 1_554 S
C1075 H1089 0.952 1_554 S
C1075 H1090 0.961 . S
C1075 H1091 0.960 . S
H1076 C1060 0.931 . S
H1077 C1065 0.929 . S
H1078 C1066 0.960 . S
H1079 C1066 0.962 . S
H1080 C1066 0.960 . S
H1081 C1067 0.961 . S
H1082 C1067 0.961 . S
H1083 C1067 0.961 . S
H1084 C1068 0.931 . S
H1085 C1073 0.930 . S
H1086 C1074 0.956 . S
H1087 C1074 0.961 . S
H1088 C1074 0.961 . S
H1089 C1075 0.952 1_556 S
H1090 C1075 0.961 . S
H1091 C1075 0.960 . S
C1092 C1093 1.391 . S
C1092 C1094 1.394 . S
C1092 H1108 0.931 . S
C1093 C1092 1.391 . S
C1093 C1097 1.376 1_655 S
C1094 C1092 1.394 . S
C1094 C1095 1.369 1_655 S
C1094 C1098 1.531 . S
C1095 C1094 1.369 1_455 S
C1095 C1096 1.410 . S
C1095 C1103 1.503 . S
C1096 C1095 1.410 . S
C1096 C1097 1.392 . S
C1096 C1099 1.511 . S
C1097 C1093 1.376 1_455 S
C1097 C1096 1.392 . S
C1097 H1109 0.929 . S
C1098 C1094 1.531 . S
C1098 H1110 0.960 . S
C1098 H1111 0.962 . S
C1098 H1112 0.960 . S
C1099 C1096 1.511 . S
C1099 H1113 0.961 . S
C1099 H1114 0.961 . S
C1099 H1115 0.961 . S
C1100 C1101 1.370 . S
C1100 C1102 1.363 . S
C1100 H1116 0.931 . S
C1101 C1100 1.370 . S
C1101 C1105 1.408 . S
C1102 C1100 1.363 . S
C1102 C1103 1.370 . S
C1102 C1106 1.524 . S
C1103 C1095 1.503 . S
C1103 C1102 1.370 . S
C1103 C1104 1.403 . S
C1104 C1103 1.403 . S
C1104 C1105 1.404 . S
C1104 C1107 1.539 . S
C1105 C1101 1.408 . S
C1105 C1104 1.404 . S
C1105 H1117 0.930 . S
C1106 C1102 1.524 . S
C1106 H1118 0.956 . S
C1106 H1119 0.961 . S
C1106 H1120 0.961 . S
C1107 C1104 1.539 . S
C1107 H1121 0.958 . S
C1107 H1122 0.961 . S
C1107 H1123 0.960 . S
H1108 C1092 0.931 . S
H1109 C1097 0.929 . S
H1110 C1098 0.960 . S
H1111 C1098 0.962 . S
H1112 C1098 0.960 . S
H1113 C1099 0.961 . S
H1114 C1099 0.961 . S
H1115 C1099 0.961 . S
H1116 C1100 0.931 . S
H1117 C1105 0.930 . S
H1118 C1106 0.956 . S
H1119 C1106 0.961 . S
H1120 C1106 0.961 . S
H1121 C1107 0.958 . S
H1122 C1107 0.961 . S
H1123 C1107 0.960 . S
C1124 C1125 1.391 . S
C1124 C1126 1.394 . S
C1124 H1140 0.931 . S
C1125 C1124 1.391 . S
C1125 C1129 1.376 . S
C1126 C1124 1.394 . S
C1126 C1127 1.369 . S
C1126 C1130 1.531 . S
C1127 C1126 1.369 . S
C1127 C1128 1.410 . S
C1127 C1135 1.503 . S
C1128 C1127 1.410 . S
C1128 C1129 1.392 . S
C1128 C1131 1.511 . S
C1129 C1125 1.376 . S
C1129 C1128 1.392 . S
C1129 H1141 0.929 . S
C1130 C1126 1.531 . S
C1130 H1142 0.960 . S
C1130 H1143 0.962 . S
C1130 H1144 0.960 . S
C1131 C1128 1.511 . S
C1131 H1145 0.961 . S
C1131 H1146 0.961 . S
C1131 H1147 0.961 . S
C1132 C1133 1.370 . S
C1132 C1134 1.363 . S
C1132 H1148 0.931 . S
C1133 C1132 1.370 . S
C1133 C1137 1.408 . S
C1134 C1132 1.363 . S
C1134 C1135 1.370 . S
C1134 C1138 1.524 . S
C1135 C1127 1.503 . S
C1135 C1134 1.370 . S
C1135 C1136 1.403 . S
C1136 C1135 1.403 . S
C1136 C1137 1.404 . S
C1136 C1139 1.539 . S
C1137 C1133 1.408 . S
C1137 C1136 1.404 . S
C1137 H1149 0.930 . S
C1138 C1134 1.524 . S
C1138 H1150 0.956 . S
C1138 H1151 0.961 . S
C1138 H1152 0.961 . S
C1139 C1136 1.539 . S
C1139 H1153 0.958 . S
C1139 H1154 0.961 . S
C1139 H1155 0.960 . S
H1140 C1124 0.931 . S
H1141 C1129 0.929 . S
H1142 C1130 0.960 . S
H1143 C1130 0.962 . S
H1144 C1130 0.960 . S
H1145 C1131 0.961 . S
H1146 C1131 0.961 . S
H1147 C1131 0.961 . S
H1148 C1132 0.931 . S
H1149 C1137 0.930 . S
H1150 C1138 0.956 . S
H1151 C1138 0.961 . S
H1152 C1138 0.961 . S
H1153 C1139 0.958 . S
H1154 C1139 0.961 . S
H1155 C1139 0.960 . S
C1156 C1157 1.391 . S
C1156 C1158 1.394 . S
C1156 H1172 0.931 . S
C1157 C1156 1.391 . S
C1157 C1161 1.376 . S
C1158 C1156 1.394 . S
C1158 C1159 1.369 . S
C1158 C1162 1.531 . S
C1159 C1158 1.369 . S
C1159 C1160 1.410 . S
C1159 C1167 1.503 . S
C1160 C1159 1.410 . S
C1160 C1161 1.392 . S
C1160 C1163 1.477 1_565 S
C1161 C1157 1.376 . S
C1161 C1160 1.392 . S
C1161 H1173 0.929 . S
C1162 C1158 1.531 . S
C1162 H1174 0.960 . S
C1162 H1175 0.962 . S
C1162 H1176 0.960 . S
C1163 C1160 1.477 1_545 S
C1163 H1177 0.961 . S
C1163 H1178 0.961 . S
C1163 H1179 1.001 . S
C1164 C1165 1.370 . S
C1164 C1166 1.363 1_545 S
C1164 H1180 0.931 . S
C1165 C1164 1.370 . S
C1165 C1169 1.408 . S
C1166 C1164 1.363 1_565 S
C1166 C1167 1.370 . S
C1166 C1170 1.524 . S
C1167 C1159 1.503 . S
C1167 C1166 1.370 . S
C1167 C1168 1.378 1_565 S
C1168 C1167 1.378 1_545 S
C1168 C1169 1.415 . S
C1168 C1171 1.535 . S
C1169 C1165 1.408 . S
C1169 C1168 1.415 . S
C1169 H1181 0.930 . S
C1170 C1166 1.524 . S
C1170 H1182 0.956 . S
C1170 H1183 0.961 . S
C1170 H1184 0.961 . S
C1171 C1168 1.535 . S
C1171 H1185 0.944 1_545 S
C1171 H1186 1.000 . S
C1171 H1187 0.956 1_545 S
H1172 C1156 0.931 . S
H1173 C1161 0.929 . S
H1174 C1162 0.960 . S
H1175 C1162 0.962 . S
H1176 C1162 0.960 . S
H1177 C1163 0.961 . S
H1178 C1163 0.961 . S
H1179 C1163 1.001 . S
H1180 C1164 0.931 . S
H1181 C1169 0.930 . S
H1182 C1170 0.956 . S
H1183 C1170 0.961 . S
H1184 C1170 0.961 . S
H1185 C1171 0.944 1_565 S
H1186 C1171 1.000 . S
H1187 C1171 0.956 1_565 S
C1188 C1189 1.391 . S
C1188 C1190 1.394 . S
C1188 H1204 0.931 . S
C1189 C1188 1.391 . S
C1189 C1193 1.376 . S
C1190 C1188 1.394 . S
C1190 C1191 1.369 . S
C1190 C1194 1.531 . S
C1191 C1190 1.369 . S
C1191 C1192 1.410 . S
C1191 C1199 1.503 . S
C1192 C1191 1.410 . S
C1192 C1193 1.392 . S
C1192 C1195 1.511 . S
C1193 C1189 1.376 . S
C1193 C1192 1.392 . S
C1193 H1205 0.929 . S
C1194 C1190 1.531 . S
C1194 H1206 0.960 . S
C1194 H1207 0.962 . S
C1194 H1208 0.960 . S
C1195 C1192 1.511 . S
C1195 H1209 0.961 . S
C1195 H1210 0.961 . S
C1195 H1211 0.961 . S
C1196 C1197 1.370 . S
C1196 C1198 1.363 . S
C1196 H1212 0.931 . S
C1197 C1196 1.370 . S
C1197 C1201 1.408 . S
C1198 C1196 1.363 . S
C1198 C1199 1.370 . S
C1198 C1202 1.524 . S
C1199 C1191 1.503 . S
C1199 C1198 1.370 . S
C1199 C1200 1.403 . S
C1200 C1199 1.403 . S
C1200 C1201 1.404 . S
C1200 C1203 1.539 . S
C1201 C1197 1.408 . S
C1201 C1200 1.404 . S
C1201 H1213 0.930 . S
C1202 C1198 1.524 . S
C1202 H1214 0.956 . S
C1202 H1215 0.961 . S
C1202 H1216 0.961 . S
C1203 C1200 1.539 . S
C1203 H1217 0.958 . S
C1203 H1218 0.961 . S
C1203 H1219 0.960 . S
H1204 C1188 0.931 . S
H1205 C1193 0.929 . S
H1206 C1194 0.960 . S
H1207 C1194 0.962 . S
H1208 C1194 0.960 . S
H1209 C1195 0.961 . S
H1210 C1195 0.961 . S
H1211 C1195 0.961 . S
H1212 C1196 0.931 . S
H1213 C1201 0.930 . S
H1214 C1202 0.956 . S
H1215 C1202 0.961 . S
H1216 C1202 0.961 . S
H1217 C1203 0.958 . S
H1218 C1203 0.961 . S
H1219 C1203 0.960 . S
C1220 C1221 1.391 . S
C1220 C1222 1.394 . S
C1220 H1236 0.931 . S
C1221 C1220 1.391 . S
C1221 C1225 1.376 . S
C1222 C1220 1.394 . S
C1222 C1223 1.369 . S
C1222 C1226 1.531 . S
C1223 C1222 1.369 . S
C1223 C1224 1.410 . S
C1223 C1231 1.503 . S
C1224 C1223 1.410 . S
C1224 C1225 1.392 . S
C1224 C1227 1.511 . S
C1225 C1221 1.376 . S
C1225 C1224 1.392 . S
C1225 H1237 0.929 . S
C1226 C1222 1.531 . S
C1226 H1238 0.960 . S
C1226 H1239 0.962 . S
C1226 H1240 0.960 . S
C1227 C1224 1.511 . S
C1227 H1241 0.961 . S
C1227 H1242 0.961 . S
C1227 H1243 0.961 . S
C1228 C1229 1.370 . S
C1228 C1230 1.363 . S
C1228 H1244 0.931 . S
C1229 C1228 1.370 . S
C1229 C1233 1.408 . S
C1230 C1228 1.363 . S
C1230 C1231 1.370 . S
C1230 C1234 1.524 . S
C1231 C1223 1.503 . S
C1231 C1230 1.370 . S
C1231 C1232 1.403 . S
C1232 C1231 1.403 . S
C1232 C1233 1.404 . S
C1232 C1235 1.539 . S
C1233 C1229 1.408 . S
C1233 C1232 1.404 . S
C1233 H1245 0.930 . S
C1234 C1230 1.524 . S
C1234 H1246 0.956 . S
C1234 H1247 0.961 . S
C1234 H1248 0.961 . S
C1235 C1232 1.539 . S
C1235 H1249 0.958 . S
C1235 H1250 0.961 . S
C1235 H1251 0.960 . S
H1236 C1220 0.931 . S
H1237 C1225 0.929 . S
H1238 C1226 0.960 . S
H1239 C1226 0.962 . S
H1240 C1226 0.960 . S
H1241 C1227 0.961 . S
H1242 C1227 0.961 . S
H1243 C1227 0.961 . S
H1244 C1228 0.931 . S
H1245 C1233 0.930 . S
H1246 C1234 0.956 . S
H1247 C1234 0.961 . S
H1248 C1234 0.961 . S
H1249 C1235 0.958 . S
H1250 C1235 0.961 . S
H1251 C1235 0.960 . S
C1252 C1253 1.391 . S
C1252 C1254 1.394 . S
C1252 H1268 0.931 . S
C1253 C1252 1.391 . S
C1253 C1257 1.376 . S
C1254 C1252 1.394 . S
C1254 C1255 1.369 . S
C1254 C1258 1.531 . S
C1255 C1254 1.369 . S
C1255 C1256 1.410 . S
C1255 C1263 1.503 . S
C1256 C1255 1.410 . S
C1256 C1257 1.392 . S
C1256 C1259 1.511 . S
C1257 C1253 1.376 . S
C1257 C1256 1.392 . S
C1257 H1269 0.929 . S
C1258 C1254 1.531 . S
C1258 H1270 0.960 . S
C1258 H1271 0.962 . S
C1258 H1272 0.960 . S
C1259 C1256 1.511 . S
C1259 H1273 0.961 . S
C1259 H1274 0.961 . S
C1259 H1275 0.961 . S
C1260 C1261 1.370 . S
C1260 C1262 1.363 . S
C1260 H1276 0.931 . S
C1261 C1260 1.370 . S
C1261 C1265 1.408 . S
C1262 C1260 1.363 . S
C1262 C1263 1.370 . S
C1262 C1266 1.524 . S
C1263 C1255 1.503 . S
C1263 C1262 1.370 . S
C1263 C1264 1.403 . S
C1264 C1263 1.403 . S
C1264 C1265 1.404 . S
C1264 C1267 1.539 . S
C1265 C1261 1.408 . S
C1265 C1264 1.404 . S
C1265 H1277 0.930 . S
C1266 C1262 1.524 . S
C1266 H1278 0.956 . S
C1266 H1279 0.961 . S
C1266 H1280 0.961 . S
C1267 C1264 1.539 . S
C1267 H1281 0.958 . S
C1267 H1282 0.961 . S
C1267 H1283 0.960 . S
H1268 C1252 0.931 . S
H1269 C1257 0.929 . S
H1270 C1258 0.960 . S
H1271 C1258 0.962 . S
H1272 C1258 0.960 . S
H1273 C1259 0.961 . S
H1274 C1259 0.961 . S
H1275 C1259 0.961 . S
H1276 C1260 0.931 . S
H1277 C1265 0.930 . S
H1278 C1266 0.956 . S
H1279 C1266 0.961 . S
H1280 C1266 0.961 . S
H1281 C1267 0.958 . S
H1282 C1267 0.961 . S
H1283 C1267 0.960 . S
C1284 C1285 1.391 . S
C1284 C1286 1.394 . S
C1284 H1300 0.931 . S
C1285 C1284 1.391 . S
C1285 C1289 1.376 . S
C1286 C1284 1.394 . S
C1286 C1287 1.369 . S
C1286 C1290 1.531 . S
C1287 C1286 1.369 . S
C1287 C1288 1.410 . S
C1287 C1295 1.503 . S
C1288 C1287 1.410 . S
C1288 C1289 1.392 . S
C1288 C1291 1.511 . S
C1289 C1285 1.376 . S
C1289 C1288 1.392 . S
C1289 H1301 0.929 . S
C1290 C1286 1.531 . S
C1290 H1302 0.960 . S
C1290 H1303 0.962 . S
C1290 H1304 0.960 . S
C1291 C1288 1.511 . S
C1291 H1305 0.961 . S
C1291 H1306 0.961 . S
C1291 H1307 0.961 . S
C1292 C1293 1.370 . S
C1292 C1294 1.363 . S
C1292 H1308 0.931 . S
C1293 C1292 1.370 . S
C1293 C1297 1.408 . S
C1294 C1292 1.363 . S
C1294 C1295 1.370 . S
C1294 C1298 1.524 . S
C1295 C1287 1.503 . S
C1295 C1294 1.370 . S
C1295 C1296 1.403 . S
C1296 C1295 1.403 . S
C1296 C1297 1.404 . S
C1296 C1299 1.539 . S
C1297 C1293 1.408 . S
C1297 C1296 1.404 . S
C1297 H1309 0.930 . S
C1298 C1294 1.524 . S
C1298 H1310 0.956 . S
C1298 H1311 0.961 . S
C1298 H1312 0.961 . S
C1299 C1296 1.539 . S
C1299 H1313 0.958 . S
C1299 H1314 0.961 . S
C1299 H1315 0.960 . S
H1300 C1284 0.931 . S
H1301 C1289 0.929 . S
H1302 C1290 0.960 . S
H1303 C1290 0.962 . S
H1304 C1290 0.960 . S
H1305 C1291 0.961 . S
H1306 C1291 0.961 . S
H1307 C1291 0.961 . S
H1308 C1292 0.931 . S
H1309 C1297 0.930 . S
H1310 C1298 0.956 . S
H1311 C1298 0.961 . S
H1312 C1298 0.961 . S
H1313 C1299 0.958 . S
H1314 C1299 0.961 . S
H1315 C1299 0.960 . S
C1316 C1317 1.391 . S
C1316 C1318 1.394 . S
C1316 H1332 0.931 . S
C1317 C1316 1.391 . S
C1317 C1321 1.376 . S
C1318 C1316 1.394 . S
C1318 C1319 1.369 . S
C1318 C1322 1.531 . S
C1319 C1318 1.369 . S
C1319 C1320 1.410 . S
C1319 C1327 1.503 . S
C1320 C1319 1.410 . S
C1320 C1321 1.392 . S
C1320 C1323 1.511 . S
C1321 C1317 1.376 . S
C1321 C1320 1.392 . S
C1321 H1333 0.929 . S
C1322 C1318 1.531 . S
C1322 H1334 0.960 . S
C1322 H1335 0.962 . S
C1322 H1336 0.960 . S
C1323 C1320 1.511 . S
C1323 H1337 0.961 . S
C1323 H1338 0.961 . S
C1323 H1339 0.961 . S
C1324 C1325 1.370 . S
C1324 C1326 1.363 . S
C1324 H1340 0.931 . S
C1325 C1324 1.370 . S
C1325 C1329 1.408 . S
C1326 C1324 1.363 . S
C1326 C1327 1.370 . S
C1326 C1330 1.524 . S
C1327 C1319 1.503 . S
C1327 C1326 1.370 . S
C1327 C1328 1.403 . S
C1328 C1327 1.403 . S
C1328 C1329 1.404 . S
C1328 C1331 1.539 . S
C1329 C1325 1.408 . S
C1329 C1328 1.404 . S
C1329 H1341 0.930 . S
C1330 C1326 1.524 . S
C1330 H1342 0.956 . S
C1330 H1343 0.961 . S
C1330 H1344 0.961 . S
C1331 C1328 1.539 . S
C1331 H1345 0.958 . S
C1331 H1346 0.961 . S
C1331 H1347 0.960 . S
H1332 C1316 0.931 . S
H1333 C1321 0.929 . S
H1334 C1322 0.960 . S
H1335 C1322 0.962 . S
H1336 C1322 0.960 . S
H1337 C1323 0.961 . S
H1338 C1323 0.961 . S
H1339 C1323 0.961 . S
H1340 C1324 0.931 . S
H1341 C1329 0.930 . S
H1342 C1330 0.956 . S
H1343 C1330 0.961 . S
H1344 C1330 0.961 . S
H1345 C1331 0.958 . S
H1346 C1331 0.961 . S
H1347 C1331 0.960 . S
C1348 C1349 1.391 . S
C1348 C1350 1.394 . S
C1348 H1364 0.931 . S
C1349 C1348 1.391 . S
C1349 C1353 1.376 . S
C1350 C1348 1.394 . S
C1350 C1351 1.369 . S
C1350 C1354 1.531 . S
C1351 C1350 1.369 . S
C1351 C1352 1.410 . S
C1351 C1359 1.503 . S
C1352 C1351 1.410 . S
C1352 C1353 1.392 . S
C1352 C1355 1.511 . S
C1353 C1349 1.376 . S
C1353 C1352 1.392 . S
C1353 H1365 0.929 . S
C1354 C1350 1.531 . S
C1354 H1366 0.960 . S
C1354 H1367 0.962 . S
C1354 H1368 0.960 . S
C1355 C1352 1.511 . S
C1355 H1369 0.961 . S
C1355 H1370 0.961 . S
C1355 H1371 0.961 . S
C1356 C1357 1.370 . S
C1356 C1358 1.363 . S
C1356 H1372 0.931 . S
C1357 C1356 1.370 . S
C1357 C1361 1.408 . S
C1358 C1356 1.363 . S
C1358 C1359 1.370 . S
C1358 C1362 1.524 . S
C1359 C1351 1.503 . S
C1359 C1358 1.370 . S
C1359 C1360 1.403 . S
C1360 C1359 1.403 . S
C1360 C1361 1.404 . S
C1360 C1363 1.539 . S
C1361 C1357 1.408 . S
C1361 C1360 1.404 . S
C1361 H1373 0.930 . S
C1362 C1358 1.524 . S
C1362 H1374 0.956 . S
C1362 H1375 0.961 . S
C1362 H1376 0.961 . S
C1363 C1360 1.539 . S
C1363 H1377 0.958 . S
C1363 H1378 0.961 . S
C1363 H1379 0.960 . S
H1364 C1348 0.931 . S
H1365 C1353 0.929 . S
H1366 C1354 0.960 . S
H1367 C1354 0.962 . S
H1368 C1354 0.960 . S
H1369 C1355 0.961 . S
H1370 C1355 0.961 . S
H1371 C1355 0.961 . S
H1372 C1356 0.931 . S
H1373 C1361 0.930 . S
H1374 C1362 0.956 . S
H1375 C1362 0.961 . S
H1376 C1362 0.961 . S
H1377 C1363 0.958 . S
H1378 C1363 0.961 . S
H1379 C1363 0.960 . S
C1380 C1381 1.391 . S
C1380 C1382 1.394 1_545 S
C1380 H1396 0.931 . S
C1381 C1380 1.391 . S
C1381 C1385 1.376 . S
C1382 C1380 1.394 1_565 S
C1382 C1383 1.369 1_565 S
C1382 C1386 1.531 . S
C1383 C1382 1.369 1_545 S
C1383 C1384 1.410 . S
C1383 C1391 1.503 1_544 S
C1384 C1383 1.410 . S
C1384 C1385 1.392 . S
C1384 C1387 1.511 1_554 S
C1385 C1381 1.376 . S
C1385 C1384 1.392 . S
C1385 H1397 0.929 . S
C1386 C1382 1.531 . S
C1386 H1398 0.960 . S
C1386 H1399 0.962 . S
C1386 H1400 0.960 . S
C1387 C1384 1.511 1_556 S
C1387 H1401 0.961 . S
C1387 H1402 0.961 . S
C1387 H1403 0.961 . S
C1388 C1389 1.370 . S
C1388 C1390 1.363 . S
C1388 H1404 0.931 . S
C1389 C1388 1.370 . S
C1389 C1393 1.408 . S
C1390 C1388 1.363 . S
C1390 C1391 1.370 . S
C1390 C1394 1.524 1_556 S
C1391 C1383 1.503 1_566 S
C1391 C1390 1.370 . S
C1391 C1392 1.403 . S
C1392 C1391 1.403 . S
C1392 C1393 1.404 . S
C1392 C1395 1.539 . S
C1393 C1389 1.408 . S
C1393 C1392 1.404 . S
C1393 H1405 0.930 . S
C1394 C1390 1.524 1_554 S
C1394 H1406 0.956 . S
C1394 H1407 0.961 1_565 S
C1394 H1408 0.961 . S
C1395 C1392 1.539 . S
C1395 H1409 0.958 . S
C1395 H1410 0.961 . S
C1395 H1411 0.960 1_565 S
H1396 C1380 0.931 . S
H1397 C1385 0.929 . S
H1398 C1386 0.960 . S
H1399 C1386 0.962 . S
H1400 C1386 0.960 . S
H1401 C1387 0.961 . S
H1402 C1387 0.961 . S
H1403 C1387 0.961 . S
H1404 C1388 0.931 . S
H1405 C1393 0.930 . S
H1406 C1394 0.956 . S
H1407 C1394 0.961 1_545 S
H1408 C1394 0.961 . S
H1409 C1395 0.958 . S
H1410 C1395 0.961 . S
H1411 C1395 0.960 1_545 S
C1412 C1413 1.391 . S
C1412 C1414 1.394 . S
C1412 H1428 0.931 . S
C1413 C1412 1.391 . S
C1413 C1417 1.376 . S
C1414 C1412 1.394 . S
C1414 C1415 1.369 . S
C1414 C1418 1.531 1_556 S
C1415 C1414 1.369 . S
C1415 C1416 1.410 1_455 S
C1415 C1423 1.503 1_456 S
C1416 C1415 1.410 1_655 S
C1416 C1417 1.392 1_655 S
C1416 C1419 1.511 . S
C1417 C1413 1.376 . S
C1417 C1416 1.392 1_455 S
C1417 H1429 0.929 . S
C1418 C1414 1.531 1_554 S
C1418 H1430 0.960 . S
C1418 H1431 0.962 . S
C1418 H1432 0.960 . S
C1419 C1416 1.511 . S
C1419 H1433 0.961 . S
C1419 H1434 0.961 . S
C1419 H1435 0.961 . S
C1420 C1421 1.370 . S
C1420 C1422 1.363 . S
C1420 H1436 0.931 . S
C1421 C1420 1.370 . S
C1421 C1425 1.408 . S
C1422 C1420 1.363 . S
C1422 C1423 1.370 . S
C1422 C1426 1.524 1_554 S
C1423 C1415 1.503 1_654 S
C1423 C1422 1.370 . S
C1423 C1424 1.403 . S
C1424 C1423 1.403 . S
C1424 C1425 1.404 . S
C1424 C1427 1.539 . S
C1425 C1421 1.408 . S
C1425 C1424 1.404 . S
C1425 H1437 0.930 . S
C1426 C1422 1.524 1_556 S
C1426 H1438 0.956 1_655 S
C1426 H1439 0.961 . S
C1426 H1440 0.961 . S
C1427 C1424 1.539 . S
C1427 H1441 0.941 1_655 S
C1427 H1442 0.961 . S
C1427 H1443 0.960 . S
H1428 C1412 0.931 . S
H1429 C1417 0.929 . S
H1430 C1418 0.960 . S
H1431 C1418 0.962 . S
H1432 C1418 0.960 . S
H1433 C1419 0.961 . S
H1434 C1419 0.961 . S
H1435 C1419 0.961 . S
H1436 C1420 0.931 . S
H1437 C1425 0.930 . S
H1438 C1426 0.956 1_455 S
H1439 C1426 0.961 . S
H1440 C1426 0.961 . S
H1441 C1427 0.941 1_455 S
H1442 C1427 0.961 . S
H1443 C1427 0.960 . S
C1444 C1445 1.391 . S
C1444 C1446 1.394 . S
C1444 H1460 0.931 . S
C1445 C1444 1.391 . S
C1445 C1449 1.376 . S
C1446 C1444 1.394 . S
C1446 C1447 1.369 . S
C1446 C1450 1.531 . S
C1447 C1446 1.369 . S
C1447 C1448 1.410 . S
C1447 C1455 1.503 1_556 S
C1448 C1447 1.410 . S
C1448 C1449 1.392 . S
C1448 C1451 1.511 1_556 S
C1449 C1445 1.376 . S
C1449 C1448 1.392 . S
C1449 H1461 0.929 . S
C1450 C1446 1.531 . S
C1450 H1462 0.960 . S
C1450 H1463 0.962 . S
C1450 H1464 0.960 . S
C1451 C1448 1.511 1_554 S
C1451 H1465 0.961 . S
C1451 H1466 0.961 . S
C1451 H1467 0.961 . S
C1452 C1453 1.370 . S
C1452 C1454 1.363 . S
C1452 H1468 0.931 . S
C1453 C1452 1.370 . S
C1453 C1457 1.408 . S
C1454 C1452 1.363 . S
C1454 C1455 1.370 . S
C1454 C1458 1.524 1_554 S
C1455 C1447 1.503 1_554 S
C1455 C1454 1.370 . S
C1455 C1456 1.403 . S
C1456 C1455 1.403 . S
C1456 C1457 1.404 . S
C1456 C1459 1.539 . S
C1457 C1453 1.408 . S
C1457 C1456 1.404 . S
C1457 H1469 0.930 . S
C1458 C1454 1.524 1_556 S
C1458 H1470 0.956 . S
C1458 H1471 0.961 . S
C1458 H1472 0.961 . S
C1459 C1456 1.539 . S
C1459 H1473 0.958 . S
C1459 H1474 0.961 . S
C1459 H1475 0.960 . S
H1460 C1444 0.931 . S
H1461 C1449 0.929 . S
H1462 C1450 0.960 . S
H1463 C1450 0.962 . S
H1464 C1450 0.960 . S
H1465 C1451 0.961 . S
H1466 C1451 0.961 . S
H1467 C1451 0.961 . S
H1468 C1452 0.931 . S
H1469 C1457 0.930 . S
H1470 C1458 0.956 . S
H1471 C1458 0.961 . S
H1472 C1458 0.961 . S
H1473 C1459 0.958 . S
H1474 C1459 0.961 . S
H1475 C1459 0.960 . S
C1476 C1477 1.391 . S
C1476 C1478 1.394 . S
C1476 H1492 0.931 . S
C1477 C1476 1.391 . S
C1477 C1481 1.376 . S
C1478 C1476 1.394 . S
C1478 C1479 1.369 . S
C1478 C1482 1.531 1_554 S
C1479 C1478 1.369 . S
C1479 C1480 1.410 . S
C1479 C1487 1.503 . S
C1480 C1479 1.410 . S
C1480 C1481 1.392 . S
C1480 C1483 1.511 . S
C1481 C1477 1.376 . S
C1481 C1480 1.392 . S
C1481 H1493 0.929 . S
C1482 C1478 1.531 1_556 S
C1482 H1494 0.960 . S
C1482 H1495 0.962 . S
C1482 H1496 0.960 . S
C1483 C1480 1.511 . S
C1483 H1497 0.961 . S
C1483 H1498 0.961 . S
C1483 H1499 0.961 . S
C1484 C1485 1.370 . S
C1484 C1486 1.363 . S
C1484 H1500 0.931 . S
C1485 C1484 1.370 . S
C1485 C1489 1.408 . S
C1486 C1484 1.363 . S
C1486 C1487 1.370 1_556 S
C1486 C1490 1.524 1_556 S
C1487 C1479 1.503 . S
C1487 C1486 1.370 1_554 S
C1487 C1488 1.403 . S
C1488 C1487 1.403 . S
C1488 C1489 1.404 1_554 S
C1488 C1491 1.539 . S
C1489 C1485 1.408 . S
C1489 C1488 1.404 1_556 S
C1489 H1501 0.930 . S
C1490 C1486 1.524 1_554 S
C1490 H1502 0.956 1_554 S
C1490 H1503 0.961 . S
C1490 H1504 0.961 1_554 S
C1491 C1488 1.539 . S
C1491 H1505 0.958 1_554 S
C1491 H1506 0.961 . S
C1491 H1507 0.960 . S
H1492 C1476 0.931 . S
H1493 C1481 0.929 . S
H1494 C1482 0.960 . S
H1495 C1482 0.962 . S
H1496 C1482 0.960 . S
H1497 C1483 0.961 . S
H1498 C1483 0.961 . S
H1499 C1483 0.961 . S
H1500 C1484 0.931 . S
H1501 C1489 0.930 . S
H1502 C1490 0.956 1_556 S
H1503 C1490 0.961 . S
H1504 C1490 0.961 1_556 S
H1505 C1491 0.958 1_556 S
H1506 C1491 0.961 . S
H1507 C1491 0.960 . S
C1508 C1509 1.391 . S
C1508 C1510 1.394 . S
C1508 H1524 0.931 . S
C1509 C1508 1.391 . S
C1509 C1513 1.376 1_556 S
C1510 C1508 1.394 . S
C1510 C1511 1.369 1_556 S
C1510 C1514 1.531 . S
C1511 C1510 1.369 1_554 S
C1511 C1512 1.410 . S
C1511 C1519 1.503 . S
C1512 C1511 1.410 . S
C1512 C1513 1.392 . S
C1512 C1515 1.511 . S
C1513 C1509 1.376 1_554 S
C1513 C1512 1.392 . S
C1513 H1525 0.929 . S
C1514 C1510 1.531 . S
C1514 H1526 0.960 . S
C1514 H1527 0.962 . S
C1514 H1528 0.960 . S
C1515 C1512 1.511 . S
C1515 H1529 0.961 . S
C1515 H1530 0.961 . S
C1515 H1531 0.961 . S
C1516 C1517 1.370 1_545 S
C1516 C1518 1.363 . S
C1516 H1532 0.931 . S
C1517 C1516 1.370 1_565 S
C1517 C1521 1.408 . S
C1518 C1516 1.363 . S
C1518 C1519 1.370 . S
C1518 C1522 1.524 . S
C1519 C1511 1.503 . S
C1519 C1518 1.370 . S
C1519 C1520 1.403 . S
C1520 C1519 1.403 . S
C1520 C1521 1.404 1_545 S
C1520 C1523 1.539 . S
C1521 C1517 1.408 . S
C1521 C1520 1.404 1_565 S
C1521 H1533 0.930 . S
C1522 C1518 1.524 . S
C1522 H1534 0.956 . S
C1522 H1535 0.961 . S
C1522 H1536 0.961 . S
C1523 C1520 1.539 . S
C1523 H1537 0.958 1_554 S
C1523 H1538 0.961 . S
C1523 H1539 0.960 . S
H1524 C1508 0.931 . S
H1525 C1513 0.929 . S
H1526 C1514 0.960 . S
H1527 C1514 0.962 . S
H1528 C1514 0.960 . S
H1529 C1515 0.961 . S
H1530 C1515 0.961 . S
H1531 C1515 0.961 . S
H1532 C1516 0.931 . S
H1533 C1521 0.930 . S
H1534 C1522 0.956 . S
H1535 C1522 0.961 . S
H1536 C1522 0.961 . S
H1537 C1523 0.958 1_556 S
H1538 C1523 0.961 . S
H1539 C1523 0.960 . S
C1540 C1541 1.391 1_655 S
C1540 C1542 1.394 . S
C1540 H1556 0.931 . S
C1541 C1540 1.391 1_455 S
C1541 C1545 1.376 . S
C1542 C1540 1.394 . S
C1542 C1543 1.369 . S
C1542 C1546 1.531 . S
C1543 C1542 1.369 . S
C1543 C1544 1.410 . S
C1543 C1551 1.503 . S
C1544 C1543 1.410 . S
C1544 C1545 1.392 1_655 S
C1544 C1547 1.511 1_554 S
C1545 C1541 1.376 . S
C1545 C1544 1.392 1_455 S
C1545 H1557 0.929 . S
C1546 C1542 1.531 . S
C1546 H1558 0.960 . S
C1546 H1559 0.962 . S
C1546 H1560 0.960 . S
C1547 C1544 1.511 1_556 S
C1547 H1561 0.961 . S
C1547 H1562 0.961 . S
C1547 H1563 0.961 . S
C1548 C1549 1.370 . S
C1548 C1550 1.363 1_556 S
C1548 H1564 0.934 . S
C1549 C1548 1.370 . S
C1549 C1553 1.408 . S
C1550 C1548 1.363 1_554 S
C1550 C1551 1.370 . S
C1550 C1554 1.524 . S
C1551 C1543 1.503 . S
C1551 C1550 1.370 . S
C1551 C1552 1.403 1_554 S
C1552 C1551 1.403 1_556 S
C1552 C1553 1.404 . S
C1552 C1555 1.539 . S
C1553 C1549 1.408 . S
C1553 C1552 1.404 . S
C1553 H1565 0.930 . S
C1554 C1550 1.524 . S
C1554 H1566 0.956 . S
C1554 H1567 0.961 . S
C1554 H1568 0.961 . S
C1555 C1552 1.539 . S
C1555 H1569 0.958 . S
C1555 H1570 0.961 . S
C1555 H1571 0.960 . S
H1556 C1540 0.931 . S
H1557 C1545 0.929 . S
H1558 C1546 0.960 . S
H1559 C1546 0.962 . S
H1560 C1546 0.960 . S
H1561 C1547 0.961 . S
H1562 C1547 0.961 . S
H1563 C1547 0.961 . S
H1564 C1548 0.934 . S
H1565 C1553 0.930 . S
H1566 C1554 0.956 . S
H1567 C1554 0.961 . S
H1568 C1554 0.961 . S
H1569 C1555 0.958 . S
H1570 C1555 0.961 . S
H1571 C1555 0.960 . S
C1572 C1573 1.390 . S
C1572 C1574 1.394 1_554 S
C1572 H1588 0.931 1_554 S
C1573 C1572 1.390 . S
C1573 C1577 1.376 . S
C1574 C1572 1.394 1_556 S
C1574 C1575 1.369 . S
C1574 C1578 1.531 . S
C1575 C1574 1.369 . S
C1575 C1576 1.410 1_556 S
C1575 C1583 1.503 . S
C1576 C1575 1.410 1_554 S
C1576 C1577 1.392 . S
C1576 C1579 1.511 . S
C1577 C1573 1.376 . S
C1577 C1576 1.392 . S
C1577 H1589 0.929 . S
C1578 C1574 1.531 . S
C1578 H1590 0.960 . S
C1578 H1591 0.962 . S
C1578 H1592 0.960 . S
C1579 C1576 1.511 . S
C1579 H1593 0.961 . S
C1579 H1594 0.961 . S
C1579 H1595 0.961 1_554 S
C1580 C1581 1.370 . S
C1580 C1582 1.363 . S
C1580 H1596 0.931 . S
C1581 C1580 1.370 . S
C1581 C1585 1.408 . S
C1582 C1580 1.363 . S
C1582 C1583 1.370 . S
C1582 C1586 1.524 1_556 S
C1583 C1575 1.503 . S
C1583 C1582 1.370 . S
C1583 C1584 1.403 . S
C1584 C1583 1.403 . S
C1584 C1585 1.404 . S
C1584 C1587 1.539 . S
C1585 C1581 1.408 . S
C1585 C1584 1.404 . S
C1585 H1597 0.930 . S
C1586 C1582 1.524 1_554 S
C1586 H1598 0.956 . S
C1586 H1599 0.961 . S
C1586 H1600 0.961 . S
C1587 C1584 1.539 . S
C1587 H1601 0.958 . S
C1587 H1602 0.961 . S
C1587 H1603 0.960 . S
H1588 C1572 0.931 1_556 S
H1589 C1577 0.929 . S
H1590 C1578 0.960 . S
H1591 C1578 0.962 . S
H1592 C1578 0.960 . S
H1593 C1579 0.961 . S
H1594 C1579 0.961 . S
H1595 C1579 0.961 1_556 S
H1596 C1580 0.931 . S
H1597 C1585 0.930 . S
H1598 C1586 0.956 . S
H1599 C1586 0.961 . S
H1600 C1586 0.961 . S
H1601 C1587 0.958 . S
H1602 C1587 0.961 . S
H1603 C1587 0.960 . S
C1604 C1605 1.391 . S
C1604 C1606 1.394 1_545 S
C1604 H1620 0.931 . S
C1605 C1604 1.391 . S
C1605 C1609 1.376 . S
C1606 C1604 1.394 1_565 S
C1606 C1607 1.369 . S
C1606 C1610 1.531 1_556 S
C1607 C1606 1.369 . S
C1607 C1608 1.410 . S
C1607 C1615 1.503 . S
C1608 C1607 1.410 . S
C1608 C1609 1.392 1_565 S
C1608 C1611 1.511 . S
C1609 C1605 1.376 . S
C1609 C1608 1.392 1_545 S
C1609 H1621 0.929 . S
C1610 C1606 1.531 1_554 S
C1610 H1622 0.960 . S
C1610 H1623 0.962 1_554 S
C1610 H1624 0.960 . S
C1611 C1608 1.511 . S
C1611 H1625 0.961 . S
C1611 H1626 0.961 . S
C1611 H1627 0.961 . S
C1612 C1613 1.370 1_556 S
C1612 C1614 1.363 . S
C1612 H1628 0.931 . S
C1613 C1612 1.370 1_554 S
C1613 C1617 1.408 . S
C1614 C1612 1.363 . S
C1614 C1615 1.370 . S
C1614 C1618 1.524 . S
C1615 C1607 1.503 . S
C1615 C1614 1.370 . S
C1615 C1616 1.403 1_556 S
C1616 C1615 1.403 1_554 S
C1616 C1617 1.404 . S
C1616 C1619 1.539 . S
C1617 C1613 1.408 . S
C1617 C1616 1.404 . S
C1617 H1629 0.930 . S
C1618 C1614 1.524 . S
C1618 H1630 0.956 . S
C1618 H1631 0.961 . S
C1618 H1632 0.961 . S
C1619 C1616 1.539 . S
C1619 H1633 0.958 . S
C1619 H1634 0.961 . S
C1619 H1635 0.960 . S
H1620 C1604 0.931 . S
H1621 C1609 0.929 . S
H1622 C1610 0.960 . S
H1623 C1610 0.962 1_556 S
H1624 C1610 0.960 . S
H1625 C1611 0.961 . S
H1626 C1611 0.961 . S
H1627 C1611 0.961 . S
H1628 C1612 0.931 . S
H1629 C1617 0.930 . S
H1630 C1618 0.956 . S
H1631 C1618 0.961 . S
H1632 C1618 0.961 . S
H1633 C1619 0.958 . S
H1634 C1619 0.961 . S
H1635 C1619 0.960 . S
C1636 C1637 1.391 . S
C1636 C1638 1.394 1_554 S
C1636 H1652 0.931 . S
C1637 C1636 1.391 . S
C1637 C1641 1.376 . S
C1638 C1636 1.394 1_556 S
C1638 C1639 1.369 . S
C1638 C1642 1.531 . S
C1639 C1638 1.369 . S
C1639 C1640 1.410 1_556 S
C1639 C1647 1.503 . S
C1640 C1639 1.410 1_554 S
C1640 C1641 1.392 . S
C1640 C1643 1.511 . S
C1641 C1637 1.376 . S
C1641 C1640 1.392 . S
C1641 H1653 0.929 . S
C1642 C1638 1.531 . S
C1642 H1654 0.960 . S
C1642 H1655 0.962 . S
C1642 H1656 0.960 . S
C1643 C1640 1.511 . S
C1643 H1657 0.961 . S
C1643 H1658 0.961 . S
C1643 H1659 0.961 . S
C1644 C1645 1.370 1_455 S
C1644 C1646 1.363 . S
C1644 H1660 0.931 . S
C1645 C1644 1.370 1_655 S
C1645 C1649 1.408 . S
C1646 C1644 1.363 . S
C1646 C1647 1.370 . S
C1646 C1650 1.524 . S
C1647 C1639 1.503 . S
C1647 C1646 1.370 . S
C1647 C1648 1.403 . S
C1648 C1647 1.403 . S
C1648 C1649 1.404 1_455 S
C1648 C1651 1.539 1_556 S
C1649 C1645 1.408 . S
C1649 C1648 1.404 1_655 S
C1649 H1661 0.930 . S
C1650 C1646 1.524 . S
C1650 H1662 0.956 . S
C1650 H1663 0.961 . S
C1650 H1664 0.961 . S
C1651 C1648 1.539 1_554 S
C1651 H1665 0.958 . S
C1651 H1666 0.961 1_455 S
C1651 H1667 0.960 . S
H1652 C1636 0.931 . S
H1653 C1641 0.929 . S
H1654 C1642 0.960 . S
H1655 C1642 0.962 . S
H1656 C1642 0.960 . S
H1657 C1643 0.961 . S
H1658 C1643 0.961 . S
H1659 C1643 0.961 . S
H1660 C1644 0.931 . S
H1661 C1649 0.930 . S
H1662 C1650 0.956 . S
H1663 C1650 0.961 . S
H1664 C1650 0.961 . S
H1665 C1651 0.958 . S
H1666 C1651 0.961 1_655 S
H1667 C1651 0.960 . S
C1668 C1669 1.391 . S
C1668 C1670 1.394 . S
C1668 H1684 0.931 . S
C1669 C1668 1.391 . S
C1669 C1673 1.376 . S
C1670 C1668 1.394 . S
C1670 C1671 1.369 . S
C1670 C1674 1.531 . S
C1671 C1670 1.369 . S
C1671 C1672 1.410 . S
C1671 C1679 1.503 . S
C1672 C1671 1.410 . S
C1672 C1673 1.392 . S
C1672 C1675 1.511 . S
C1673 C1669 1.376 . S
C1673 C1672 1.392 . S
C1673 H1685 0.929 . S
C1674 C1670 1.531 . S
C1674 H1686 0.960 . S
C1674 H1687 0.962 . S
C1674 H1688 0.960 . S
C1675 C1672 1.511 . S
C1675 H1689 0.961 . S
C1675 H1690 0.961 . S
C1675 H1691 0.961 . S
C1676 C1677 1.370 . S
C1676 C1678 1.363 . S
C1676 H1692 0.931 . S
C1677 C1676 1.370 . S
C1677 C1681 1.408 . S
C1678 C1676 1.363 . S
C1678 C1679 1.370 . S
C1678 C1682 1.524 . S
C1679 C1671 1.503 . S
C1679 C1678 1.370 . S
C1679 C1680 1.403 . S
C1680 C1679 1.403 . S
C1680 C1681 1.404 . S
C1680 C1683 1.539 . S
C1681 C1677 1.408 . S
C1681 C1680 1.404 . S
C1681 H1693 0.930 . S
C1682 C1678 1.524 . S
C1682 H1694 0.956 . S
C1682 H1695 0.961 . S
C1682 H1696 0.961 . S
C1683 C1680 1.539 . S
C1683 H1697 0.958 . S
C1683 H1698 0.961 . S
C1683 H1699 0.960 . S
H1684 C1668 0.931 . S
H1685 C1673 0.929 . S
H1686 C1674 0.960 . S
H1687 C1674 0.962 . S
H1688 C1674 0.960 . S
H1689 C1675 0.961 . S
H1690 C1675 0.961 . S
H1691 C1675 0.961 . S
H1692 C1676 0.931 . S
H1693 C1681 0.930 . S
H1694 C1682 0.956 . S
H1695 C1682 0.961 . S
H1696 C1682 0.961 . S
H1697 C1683 0.958 . S
H1698 C1683 0.961 . S
H1699 C1683 0.960 . S
C1700 C1701 1.391 . S
C1700 C1702 1.394 . S
C1700 H1716 0.931 . S
C1701 C1700 1.391 . S
C1701 C1705 1.376 . S
C1702 C1700 1.394 . S
C1702 C1703 1.369 . S
C1702 C1706 1.531 . S
C1703 C1702 1.369 . S
C1703 C1704 1.410 . S
C1703 C1711 1.503 . S
C1704 C1703 1.410 . S
C1704 C1705 1.392 . S
C1704 C1707 1.511 . S
C1705 C1701 1.376 . S
C1705 C1704 1.392 . S
C1705 H1717 0.929 . S
C1706 C1702 1.531 . S
C1706 H1718 0.960 . S
C1706 H1719 0.962 . S
C1706 H1720 0.960 . S
C1707 C1704 1.511 . S
C1707 H1721 0.961 . S
C1707 H1722 0.961 . S
C1707 H1723 0.961 . S
C1708 C1709 1.370 . S
C1708 C1710 1.363 . S
C1708 H1724 0.931 . S
C1709 C1708 1.370 . S
C1709 C1713 1.408 . S
C1710 C1708 1.363 . S
C1710 C1711 1.370 . S
C1710 C1714 1.524 . S
C1711 C1703 1.503 . S
C1711 C1710 1.370 . S
C1711 C1712 1.403 . S
C1712 C1711 1.403 . S
C1712 C1713 1.404 . S
C1712 C1715 1.539 . S
C1713 C1709 1.408 . S
C1713 C1712 1.404 . S
C1713 H1725 0.930 . S
C1714 C1710 1.524 . S
C1714 H1726 0.956 . S
C1714 H1727 0.961 . S
C1714 H1728 0.961 . S
C1715 C1712 1.539 . S
C1715 H1729 0.958 . S
C1715 H1730 0.961 . S
C1715 H1731 0.960 . S
H1716 C1700 0.931 . S
H1717 C1705 0.929 . S
H1718 C1706 0.960 . S
H1719 C1706 0.962 . S
H1720 C1706 0.960 . S
H1721 C1707 0.961 . S
H1722 C1707 0.961 . S
H1723 C1707 0.961 . S
H1724 C1708 0.931 . S
H1725 C1713 0.930 . S
H1726 C1714 0.956 . S
H1727 C1714 0.961 . S
H1728 C1714 0.961 . S
H1729 C1715 0.958 . S
H1730 C1715 0.961 . S
H1731 C1715 0.960 . S
C1732 C1733 1.391 . S
C1732 C1734 1.394 . S
C1732 H1748 0.931 . S
C1733 C1732 1.391 . S
C1733 C1737 1.376 . S
C1734 C1732 1.394 . S
C1734 C1735 1.369 . S
C1734 C1738 1.531 . S
C1735 C1734 1.369 . S
C1735 C1736 1.410 . S
C1735 C1743 1.503 . S
C1736 C1735 1.410 . S
C1736 C1737 1.392 . S
C1736 C1739 1.511 . S
C1737 C1733 1.376 . S
C1737 C1736 1.392 . S
C1737 H1749 0.929 . S
C1738 C1734 1.531 . S
C1738 H1750 0.960 . S
C1738 H1751 0.962 . S
C1738 H1752 0.960 . S
C1739 C1736 1.511 . S
C1739 H1753 0.961 . S
C1739 H1754 0.961 . S
C1739 H1755 0.961 . S
C1740 C1741 1.370 . S
C1740 C1742 1.363 . S
C1740 H1756 0.931 . S
C1741 C1740 1.370 . S
C1741 C1745 1.408 . S
C1742 C1740 1.363 . S
C1742 C1743 1.370 . S
C1742 C1746 1.524 . S
C1743 C1735 1.503 . S
C1743 C1742 1.370 . S
C1743 C1744 1.403 . S
C1744 C1743 1.403 . S
C1744 C1745 1.404 . S
C1744 C1747 1.539 . S
C1745 C1741 1.408 . S
C1745 C1744 1.404 . S
C1745 H1757 0.930 . S
C1746 C1742 1.524 . S
C1746 H1758 0.956 . S
C1746 H1759 0.961 . S
C1746 H1760 0.961 . S
C1747 C1744 1.539 . S
C1747 H1761 0.958 . S
C1747 H1762 0.961 . S
C1747 H1763 0.960 . S
H1748 C1732 0.931 . S
H1749 C1737 0.929 . S
H1750 C1738 0.960 . S
H1751 C1738 0.962 . S
H1752 C1738 0.960 . S
H1753 C1739 0.961 . S
H1754 C1739 0.961 . S
H1755 C1739 0.961 . S
H1756 C1740 0.931 . S
H1757 C1745 0.930 . S
H1758 C1746 0.956 . S
H1759 C1746 0.961 . S
H1760 C1746 0.961 . S
H1761 C1747 0.958 . S
H1762 C1747 0.961 . S
H1763 C1747 0.960 . S
C1764 C1765 1.391 . S
C1764 C1766 1.394 . S
C1764 H1780 0.931 . S
C1765 C1764 1.391 . S
C1765 C1769 1.376 . S
C1766 C1764 1.394 . S
C1766 C1767 1.369 . S
C1766 C1770 1.531 . S
C1767 C1766 1.369 . S
C1767 C1768 1.410 . S
C1767 C1775 1.503 . S
C1768 C1767 1.410 . S
C1768 C1769 1.392 . S
C1768 C1771 1.511 . S
C1769 C1765 1.376 . S
C1769 C1768 1.392 . S
C1769 H1781 0.929 . S
C1770 C1766 1.531 . S
C1770 H1782 0.960 . S
C1770 H1783 0.962 . S
C1770 H1784 0.960 . S
C1771 C1768 1.511 . S
C1771 H1785 0.961 . S
C1771 H1786 0.961 . S
C1771 H1787 0.961 . S
C1772 C1773 1.370 . S
C1772 C1774 1.363 . S
C1772 H1788 0.931 . S
C1773 C1772 1.370 . S
C1773 C1777 1.408 . S
C1774 C1772 1.363 . S
C1774 C1775 1.370 . S
C1774 C1778 1.524 . S
C1775 C1767 1.503 . S
C1775 C1774 1.370 . S
C1775 C1776 1.403 . S
C1776 C1775 1.403 . S
C1776 C1777 1.404 . S
C1776 C1779 1.539 . S
C1777 C1773 1.408 . S
C1777 C1776 1.404 . S
C1777 H1789 0.930 . S
C1778 C1774 1.524 . S
C1778 H1790 0.956 . S
C1778 H1791 0.961 . S
C1778 H1792 0.961 . S
C1779 C1776 1.539 . S
C1779 H1793 0.958 . S
C1779 H1794 0.961 . S
C1779 H1795 0.960 . S
H1780 C1764 0.931 . S
H1781 C1769 0.929 . S
H1782 C1770 0.960 . S
H1783 C1770 0.962 . S
H1784 C1770 0.960 . S
H1785 C1771 0.961 . S
H1786 C1771 0.961 . S
H1787 C1771 0.961 . S
H1788 C1772 0.931 . S
H1789 C1777 0.930 . S
H1790 C1778 0.956 . S
H1791 C1778 0.961 . S
H1792 C1778 0.961 . S
H1793 C1779 0.958 . S
H1794 C1779 0.961 . S
H1795 C1779 0.960 . S
C1796 C1797 1.391 . S
C1796 C1798 1.394 . S
C1796 H1812 0.931 . S
C1797 C1796 1.391 . S
C1797 C1801 1.376 . S
C1798 C1796 1.394 . S
C1798 C1799 1.369 . S
C1798 C1802 1.531 . S
C1799 C1798 1.369 . S
C1799 C1800 1.410 . S
C1799 C1807 1.503 . S
C1800 C1799 1.410 . S
C1800 C1801 1.392 . S
C1800 C1803 1.511 . S
C1801 C1797 1.376 . S
C1801 C1800 1.392 . S
C1801 H1813 0.929 . S
C1802 C1798 1.531 . S
C1802 H1814 0.960 . S
C1802 H1815 0.962 . S
C1802 H1816 0.960 . S
C1803 C1800 1.511 . S
C1803 H1817 0.961 . S
C1803 H1818 0.961 . S
C1803 H1819 0.961 . S
C1804 C1805 1.370 . S
C1804 C1806 1.363 . S
C1804 H1820 0.931 . S
C1805 C1804 1.370 . S
C1805 C1809 1.408 . S
C1806 C1804 1.363 . S
C1806 C1807 1.370 . S
C1806 C1810 1.524 . S
C1807 C1799 1.503 . S
C1807 C1806 1.370 . S
C1807 C1808 1.403 . S
C1808 C1807 1.403 . S
C1808 C1809 1.404 . S
C1808 C1811 1.539 . S
C1809 C1805 1.408 . S
C1809 C1808 1.404 . S
C1809 H1821 0.930 . S
C1810 C1806 1.524 . S
C1810 H1822 0.956 . S
C1810 H1823 0.961 . S
C1810 H1824 0.961 . S
C1811 C1808 1.539 . S
C1811 H1825 0.958 . S
C1811 H1826 0.961 . S
C1811 H1827 0.960 . S
H1812 C1796 0.931 . S
H1813 C1801 0.929 . S
H1814 C1802 0.960 . S
H1815 C1802 0.962 . S
H1816 C1802 0.960 . S
H1817 C1803 0.961 . S
H1818 C1803 0.961 . S
H1819 C1803 0.961 . S
H1820 C1804 0.931 . S
H1821 C1809 0.930 . S
H1822 C1810 0.956 . S
H1823 C1810 0.961 . S
H1824 C1810 0.961 . S
H1825 C1811 0.958 . S
H1826 C1811 0.961 . S
H1827 C1811 0.960 . S
C1828 C1829 1.391 . S
C1828 C1830 1.394 . S
C1828 H1844 0.931 . S
C1829 C1828 1.391 . S
C1829 C1833 1.376 . S
C1830 C1828 1.394 . S
C1830 C1831 1.369 . S
C1830 C1834 1.531 . S
C1831 C1830 1.369 . S
C1831 C1832 1.410 . S
C1831 C1839 1.503 . S
C1832 C1831 1.410 . S
C1832 C1833 1.392 . S
C1832 C1835 1.511 . S
C1833 C1829 1.376 . S
C1833 C1832 1.392 . S
C1833 H1845 0.929 . S
C1834 C1830 1.531 . S
C1834 H1846 0.960 . S
C1834 H1847 0.962 . S
C1834 H1848 0.960 . S
C1835 C1832 1.511 . S
C1835 H1849 0.961 . S
C1835 H1850 0.961 . S
C1835 H1851 0.961 . S
C1836 C1837 1.370 . S
C1836 C1838 1.363 . S
C1836 H1852 0.931 . S
C1837 C1836 1.370 . S
C1837 C1841 1.408 . S
C1838 C1836 1.363 . S
C1838 C1839 1.370 . S
C1838 C1842 1.524 . S
C1839 C1831 1.503 . S
C1839 C1838 1.370 . S
C1839 C1840 1.403 . S
C1840 C1839 1.403 . S
C1840 C1841 1.404 . S
C1840 C1843 1.539 . S
C1841 C1837 1.408 . S
C1841 C1840 1.404 . S
C1841 H1853 0.930 . S
C1842 C1838 1.524 . S
C1842 H1854 0.956 . S
C1842 H1855 0.961 . S
C1842 H1856 0.961 . S
C1843 C1840 1.539 . S
C1843 H1857 0.958 . S
C1843 H1858 0.961 . S
C1843 H1859 0.960 . S
H1844 C1828 0.931 . S
H1845 C1833 0.929 . S
H1846 C1834 0.960 . S
H1847 C1834 0.962 . S
H1848 C1834 0.960 . S
H1849 C1835 0.961 . S
H1850 C1835 0.961 . S
H1851 C1835 0.961 . S
H1852 C1836 0.931 . S
H1853 C1841 0.930 . S
H1854 C1842 0.956 . S
H1855 C1842 0.961 . S
H1856 C1842 0.961 . S
H1857 C1843 0.958 . S
H1858 C1843 0.961 . S
H1859 C1843 0.960 . S
C1860 C1861 1.391 . S
C1860 C1862 1.394 . S
C1860 H1876 0.931 . S
C1861 C1860 1.391 . S
C1861 C1865 1.376 . S
C1862 C1860 1.394 . S
C1862 C1863 1.369 . S
C1862 C1866 1.531 . S
C1863 C1862 1.369 . S
C1863 C1864 1.410 . S
C1863 C1871 1.503 . S
C1864 C1863 1.410 . S
C1864 C1865 1.392 . S
C1864 C1867 1.511 . S
C1865 C1861 1.376 . S
C1865 C1864 1.392 . S
C1865 H1877 0.929 . S
C1866 C1862 1.531 . S
C1866 H1878 0.960 . S
C1866 H1879 0.962 . S
C1866 H1880 0.960 . S
C1867 C1864 1.511 . S
C1867 H1881 0.961 . S
C1867 H1882 0.961 . S
C1867 H1883 0.961 . S
C1868 C1869 1.370 . S
C1868 C1870 1.363 . S
C1868 H1884 0.931 . S
C1869 C1868 1.370 . S
C1869 C1873 1.408 . S
C1870 C1868 1.363 . S
C1870 C1871 1.370 . S
C1870 C1874 1.524 . S
C1871 C1863 1.503 . S
C1871 C1870 1.370 . S
C1871 C1872 1.403 . S
C1872 C1871 1.403 . S
C1872 C1873 1.404 . S
C1872 C1875 1.539 . S
C1873 C1869 1.408 . S
C1873 C1872 1.404 . S
C1873 H1885 0.930 . S
C1874 C1870 1.524 . S
C1874 H1886 0.956 . S
C1874 H1887 0.961 . S
C1874 H1888 0.961 . S
C1875 C1872 1.539 . S
C1875 H1889 0.958 . S
C1875 H1890 0.961 . S
C1875 H1891 0.960 . S
H1876 C1860 0.931 . S
H1877 C1865 0.929 . S
H1878 C1866 0.960 . S
H1879 C1866 0.962 . S
H1880 C1866 0.960 . S
H1881 C1867 0.961 . S
H1882 C1867 0.961 . S
H1883 C1867 0.961 . S
H1884 C1868 0.931 . S
H1885 C1873 0.930 . S
H1886 C1874 0.956 . S
H1887 C1874 0.961 . S
H1888 C1874 0.961 . S
H1889 C1875 0.958 . S
H1890 C1875 0.961 . S
H1891 C1875 0.960 . S
C1892 C1893 1.391 . S
C1892 C1894 1.394 . S
C1892 H1908 0.931 . S
C1893 C1892 1.391 . S
C1893 C1897 1.376 . S
C1894 C1892 1.394 . S
C1894 C1895 1.369 . S
C1894 C1898 1.531 . S
C1895 C1894 1.369 . S
C1895 C1896 1.410 . S
C1895 C1903 1.503 . S
C1896 C1895 1.410 . S
C1896 C1897 1.392 . S
C1896 C1899 1.511 . S
C1897 C1893 1.376 . S
C1897 C1896 1.392 . S
C1897 H1909 0.929 . S
C1898 C1894 1.531 . S
C1898 H1910 0.960 . S
C1898 H1911 0.962 . S
C1898 H1912 0.960 . S
C1899 C1896 1.511 . S
C1899 H1913 0.961 . S
C1899 H1914 0.961 . S
C1899 H1915 0.961 . S
C1900 C1901 1.370 . S
C1900 C1902 1.363 . S
C1900 H1916 0.931 . S
C1901 C1900 1.370 . S
C1901 C1905 1.408 . S
C1902 C1900 1.363 . S
C1902 C1903 1.370 . S
C1902 C1906 1.524 . S
C1903 C1895 1.503 . S
C1903 C1902 1.370 . S
C1903 C1904 1.403 . S
C1904 C1903 1.403 . S
C1904 C1905 1.404 . S
C1904 C1907 1.539 . S
C1905 C1901 1.408 . S
C1905 C1904 1.404 . S
C1905 H1917 0.930 . S
C1906 C1902 1.524 . S
C1906 H1918 0.956 . S
C1906 H1919 0.961 . S
C1906 H1920 0.961 . S
C1907 C1904 1.539 . S
C1907 H1921 0.958 . S
C1907 H1922 0.961 . S
C1907 H1923 0.960 . S
H1908 C1892 0.931 . S
H1909 C1897 0.929 . S
H1910 C1898 0.960 . S
H1911 C1898 0.962 . S
H1912 C1898 0.960 . S
H1913 C1899 0.961 . S
H1914 C1899 0.961 . S
H1915 C1899 0.961 . S
H1916 C1900 0.931 . S
H1917 C1905 0.930 . S
H1918 C1906 0.956 . S
H1919 C1906 0.961 . S
H1920 C1906 0.961 . S
H1921 C1907 0.958 . S
H1922 C1907 0.961 . S
H1923 C1907 0.960 . S
C1924 C1925 1.391 . S
C1924 C1926 1.394 . S
C1924 H1940 0.931 . S
C1925 C1924 1.391 . S
C1925 C1929 1.376 . S
C1926 C1924 1.394 . S
C1926 C1927 1.369 . S
C1926 C1930 1.531 . S
C1927 C1926 1.369 . S
C1927 C1928 1.410 . S
C1927 C1935 1.503 . S
C1928 C1927 1.410 . S
C1928 C1929 1.392 . S
C1928 C1931 1.511 . S
C1929 C1925 1.376 . S
C1929 C1928 1.392 . S
C1929 H1941 0.929 . S
C1930 C1926 1.531 . S
C1930 H1942 0.960 . S
C1930 H1943 0.962 . S
C1930 H1944 0.960 . S
C1931 C1928 1.511 . S
C1931 H1945 0.961 . S
C1931 H1946 0.961 . S
C1931 H1947 0.961 . S
C1932 C1933 1.370 . S
C1932 C1934 1.363 . S
C1932 H1948 0.931 . S
C1933 C1932 1.370 . S
C1933 C1937 1.408 . S
C1934 C1932 1.363 . S
C1934 C1935 1.370 . S
C1934 C1938 1.524 . S
C1935 C1927 1.503 . S
C1935 C1934 1.370 . S
C1935 C1936 1.403 . S
C1936 C1935 1.403 . S
C1936 C1937 1.404 . S
C1936 C1939 1.539 . S
C1937 C1933 1.408 . S
C1937 C1936 1.404 . S
C1937 H1949 0.930 . S
C1938 C1934 1.524 . S
C1938 H1950 0.956 . S
C1938 H1951 0.961 . S
C1938 H1952 0.961 . S
C1939 C1936 1.539 . S
C1939 H1953 0.958 . S
C1939 H1954 0.961 . S
C1939 H1955 0.960 . S
H1940 C1924 0.931 . S
H1941 C1929 0.929 . S
H1942 C1930 0.960 . S
H1943 C1930 0.962 . S
H1944 C1930 0.960 . S
H1945 C1931 0.961 . S
H1946 C1931 0.961 . S
H1947 C1931 0.961 . S
H1948 C1932 0.931 . S
H1949 C1937 0.930 . S
H1950 C1938 0.956 . S
H1951 C1938 0.961 . S
H1952 C1938 0.961 . S
H1953 C1939 0.958 . S
H1954 C1939 0.961 . S
H1955 C1939 0.960 . S
C1956 C1957 1.391 . S
C1956 C1958 1.394 . S
C1956 H1972 0.931 . S
C1957 C1956 1.391 . S
C1957 C1961 1.376 . S
C1958 C1956 1.394 . S
C1958 C1959 1.369 . S
C1958 C1962 1.531 . S
C1959 C1958 1.369 . S
C1959 C1960 1.410 . S
C1959 C1967 1.503 . S
C1960 C1959 1.410 . S
C1960 C1961 1.392 . S
C1960 C1963 1.511 . S
C1961 C1957 1.376 . S
C1961 C1960 1.392 . S
C1961 H1973 0.929 . S
C1962 C1958 1.531 . S
C1962 H1974 0.960 . S
C1962 H1975 0.962 . S
C1962 H1976 0.960 . S
C1963 C1960 1.511 . S
C1963 H1977 0.961 . S
C1963 H1978 0.961 . S
C1963 H1979 0.961 . S
C1964 C1965 1.370 . S
C1964 C1966 1.363 . S
C1964 H1980 0.931 . S
C1965 C1964 1.370 . S
C1965 C1969 1.408 . S
C1966 C1964 1.363 . S
C1966 C1967 1.370 . S
C1966 C1970 1.524 . S
C1967 C1959 1.503 . S
C1967 C1966 1.370 . S
C1967 C1968 1.403 . S
C1968 C1967 1.403 . S
C1968 C1969 1.404 . S
C1968 C1971 1.539 . S
C1969 C1965 1.408 . S
C1969 C1968 1.404 . S
C1969 H1981 0.930 . S
C1970 C1966 1.524 . S
C1970 H1982 0.956 . S
C1970 H1983 0.961 . S
C1970 H1984 0.961 . S
C1971 C1968 1.539 . S
C1971 H1985 0.958 . S
C1971 H1986 0.961 . S
C1971 H1987 0.960 . S
H1972 C1956 0.931 . S
H1973 C1961 0.929 . S
H1974 C1962 0.960 . S
H1975 C1962 0.962 . S
H1976 C1962 0.960 . S
H1977 C1963 0.961 . S
H1978 C1963 0.961 . S
H1979 C1963 0.961 . S
H1980 C1964 0.931 . S
H1981 C1969 0.930 . S
H1982 C1970 0.956 . S
H1983 C1970 0.961 . S
H1984 C1970 0.961 . S
H1985 C1971 0.958 . S
H1986 C1971 0.961 . S
H1987 C1971 0.960 . S
C1988 C1989 1.391 . S
C1988 C1990 1.394 . S
C1988 H2004 0.931 . S
C1989 C1988 1.391 . S
C1989 C1993 1.376 . S
C1990 C1988 1.394 . S
C1990 C1991 1.369 . S
C1990 C1994 1.531 . S
C1991 C1990 1.369 . S
C1991 C1992 1.410 . S
C1991 C1999 1.503 . S
C1992 C1991 1.410 . S
C1992 C1993 1.392 . S
C1992 C1995 1.511 . S
C1993 C1989 1.376 . S
C1993 C1992 1.392 . S
C1993 H2005 0.929 . S
C1994 C1990 1.531 . S
C1994 H2006 0.960 . S
C1994 H2007 0.962 . S
C1994 H2008 0.960 . S
C1995 C1992 1.511 . S
C1995 H2009 0.961 . S
C1995 H2010 0.961 . S
C1995 H2011 0.961 . S
C1996 C1997 1.370 . S
C1996 C1998 1.363 . S
C1996 H2012 0.931 . S
C1997 C1996 1.370 . S
C1997 C2001 1.408 . S
C1998 C1996 1.363 . S
C1998 C1999 1.370 . S
C1998 C2002 1.524 . S
C1999 C1991 1.503 . S
C1999 C1998 1.370 . S
C1999 C2000 1.403 . S
C2000 C1999 1.403 . S
C2000 C2001 1.404 . S
C2000 C2003 1.539 . S
C2001 C1997 1.408 . S
C2001 C2000 1.404 . S
C2001 H2013 0.930 . S
C2002 C1998 1.524 . S
C2002 H2014 0.956 . S
C2002 H2015 0.961 . S
C2002 H2016 0.961 . S
C2003 C2000 1.539 . S
C2003 H2017 0.958 . S
C2003 H2018 0.961 . S
C2003 H2019 0.960 . S
H2004 C1988 0.931 . S
H2005 C1993 0.929 . S
H2006 C1994 0.960 . S
H2007 C1994 0.962 . S
H2008 C1994 0.960 . S
H2009 C1995 0.961 . S
H2010 C1995 0.961 . S
H2011 C1995 0.961 . S
H2012 C1996 0.931 . S
H2013 C2001 0.930 . S
H2014 C2002 0.956 . S
H2015 C2002 0.961 . S
H2016 C2002 0.961 . S
H2017 C2003 0.958 . S
H2018 C2003 0.961 . S
H2019 C2003 0.960 . S
C2020 C2021 1.391 . S
C2020 C2022 1.394 . S
C2020 H2036 0.931 . S
C2021 C2020 1.391 . S
C2021 C2025 1.376 . S
C2022 C2020 1.394 . S
C2022 C2023 1.369 . S
C2022 C2026 1.531 . S
C2023 C2022 1.369 . S
C2023 C2024 1.410 . S
C2023 C2031 1.503 . S
C2024 C2023 1.410 . S
C2024 C2025 1.392 . S
C2024 C2027 1.511 . S
C2025 C2021 1.376 . S
C2025 C2024 1.392 . S
C2025 H2037 0.929 . S
C2026 C2022 1.531 . S
C2026 H2038 0.960 . S
C2026 H2039 0.962 . S
C2026 H2040 0.960 . S
C2027 C2024 1.511 . S
C2027 H2041 0.961 . S
C2027 H2042 0.961 . S
C2027 H2043 0.961 . S
C2028 C2029 1.370 . S
C2028 C2030 1.363 . S
C2028 H2044 0.931 . S
C2029 C2028 1.370 . S
C2029 C2033 1.408 . S
C2030 C2028 1.363 . S
C2030 C2031 1.370 . S
C2030 C2034 1.524 . S
C2031 C2023 1.503 . S
C2031 C2030 1.370 . S
C2031 C2032 1.403 . S
C2032 C2031 1.403 . S
C2032 C2033 1.404 . S
C2032 C2035 1.539 . S
C2033 C2029 1.408 . S
C2033 C2032 1.404 . S
C2033 H2045 0.930 . S
C2034 C2030 1.524 . S
C2034 H2046 0.956 . S
C2034 H2047 0.961 . S
C2034 H2048 0.961 . S
C2035 C2032 1.539 . S
C2035 H2049 0.958 . S
C2035 H2050 0.961 . S
C2035 H2051 0.960 . S
H2036 C2020 0.931 . S
H2037 C2025 0.929 . S
H2038 C2026 0.960 . S
H2039 C2026 0.962 . S
H2040 C2026 0.960 . S
H2041 C2027 0.961 . S
H2042 C2027 0.961 . S
H2043 C2027 0.961 . S
H2044 C2028 0.931 . S
H2045 C2033 0.930 . S
H2046 C2034 0.956 . S
H2047 C2034 0.961 . S
H2048 C2034 0.961 . S
H2049 C2035 0.958 . S
H2050 C2035 0.961 . S
H2051 C2035 0.960 . S
C613 C5 1.338 . S
C621 C271 1.371 . S
C645 C39 1.294 1_545 S
C653 C305 1.368 . S
C677 C73 1.352 1_655 S
C685 C237 1.365 . S
C709 C577 1.370 . S
C717 C107 1.341 . S
C741 C141 1.332 1_565 S
C749 C611 1.368 . S
C773 C175 1.340 . S
C781 C543 1.371 . S
C805 C209 1.349 . S
C813 C475 1.365 . S
C837 C509 1.367 . S
C845 C243 1.357 . S
C869 C441 1.369 . S
C877 C277 1.354 . S
C901 C311 1.365 . S
C909 C169 1.365 . S
C933 C345 1.360 . S
C941 C203 1.368 . S
C965 C379 1.350 . S
C973 C135 1.365 . S
C997 C413 1.344 . S
C1005 C67 1.366 . S
C1029 C447 1.360 . S
C1037 C101 1.365 . S
C1061 C33 1.370 . S
C1069 C481 1.342 . S
C1093 C373 1.368 . S
C1101 C515 1.354 . S
C1125 C549 1.328 . S
C1133 C407 1.368 . S
C1157 C583 1.363 . S
C1165 C339 1.368 . S
C1189 C530 1.641 . S
C1197 C20 1.622 . S
C1221 C564 1.641 . S
C1229 C54 1.622 . S
C1253 C88 1.641 . S
C1261 C598 1.622 . S
C1285 C122 1.640 . S
C1293 C224 1.622 . S
C1317 C156 1.615 . S
C1325 C258 1.634 . S
C1349 C292 1.636 . S
C1357 C190 1.625 . S
C1381 C326 1.619 . S
C1389 C428 1.630 . S
C1413 C462 1.615 . S
C1421 C360 1.634 . S
C1445 C496 1.638 . S
C1453 C394 1.624 . S
C1477 C2 1.442 . S
C1485 C145 1.413 . S
C1509 C179 1.455 . S
C1517 C36 1.474 . S
C1541 C70 1.479 . S
C1549 C111 1.441 . S
C1573 C43 1.426 . S
C1581 C104 1.471 . S
C1605 C138 1.470 . S
C1613 C77 1.440 . S
C1637 C9 1.451 . S
C1645 C172 1.468 . S
C1669 C206 1.446 . S
C1677 C349 1.420 . S
C1701 C383 1.456 . S
C1709 C240 1.474 . S
C1733 C315 1.399 . S
C1741 C274 1.458 . S
C1765 C308 1.463 . S
C1773 C247 1.437 . S
C1797 C281 1.407 . S
C1805 C342 1.467 . S
C1829 C376 1.466 . S
C1837 C213 1.421 . S
C1861 C553 1.452 . S
C1869 C410 1.470 . S
C1893 C587 1.423 . S
C1901 C444 1.462 . S
C1925 C519 1.435 . S
C1933 C478 1.465 . S
C1957 C451 1.392 . S
C1965 C512 1.461 . S
C1989 C485 1.410 . S
C1997 C546 1.467 . S
C2021 C580 1.457 . S
C2029 C417 1.416 . S
