# Generated by pormake.
# Topology hcp, (12)-cn, num edge types: 1
# Building blocks:
#     Node 0, Type 0, BuildingBlock: UKIBUN_clean_sbu_0, # of connection points: 12
#     Node 1, Type 0, BuildingBlock: UKIBUN_clean_sbu_0, # of connection points: 12
#     Edge 2, Type (0, 0), BuildingBlock: EZIPEK_clean_linker_0, # of connection points: 2
#     Edge 3, Type (0, 0), BuildingBlock: EZIPEK_clean_linker_0, # of connection points: 2
#     Edge 4, Type (0, 0), BuildingBlock: EZIPEK_clean_linker_0, # of connection points: 2
#     Edge 5, Type (0, 0), BuildingBlock: EZIPEK_clean_linker_0, # of connection points: 2
#     Edge 6, Type (0, 0), BuildingBlock: EZIPEK_clean_linker_0, # of connection points: 2
#     Edge 7, Type (0, 0), BuildingBlock: EZIPEK_clean_linker_0, # of connection points: 2
#     Edge 8, Type (0, 0), BuildingBlock: EZIPEK_clean_linker_0, # of connection points: 2
#     Edge 9, Type (0, 0), BuildingBlock: EZIPEK_clean_linker_0, # of connection points: 2
#     Edge 10, Type (0, 0), BuildingBlock: EZIPEK_clean_linker_0, # of connection points: 2
#     Edge 11, Type (0, 0), BuildingBlock: EZIPEK_clean_linker_0, # of connection points: 2
#     Edge 12, Type (0, 0), BuildingBlock: EZIPEK_clean_linker_0, # of connection points: 2
#     Edge 13, Type (0, 0), BuildingBlock: EZIPEK_clean_linker_0, # of connection points: 2
# Relax obj value: 0.181
# Max RMSD: 0.266
# Mean RMSD: 0.266
data_MOF--net-hcp--node1-UKIBUN_clean_sbu_0--edge1-EZIPEK_clean_linker_0
_symmetry_space_group_name_H-M    P1
_symmetry_Int_Tables_number       1
_symmetry_cell_setting            triclinic
loop_
_symmetry_equiv_pos_as_xyz
'x, y, z'
_cell_length_a     14.247086
_cell_length_b     14.227085
_cell_length_c     23.059231
_cell_angle_alpha  89.586449
_cell_angle_beta   90.457539
_cell_angle_gamma 119.73916
loop_
_atom_site_label
_atom_site_type_symbol
_atom_site_fract_x
_atom_site_fract_y
_atom_site_fract_z
_atom_type_partial_charge
C0 C 0.98043 0.60823 0.26668 0.0
C1 C 0.93145 0.28991 0.26796 0.0
O2 O 0.74766 0.47628 0.29529 0.0
O3 O 0.6499 0.33106 0.1773 0.0
O4 O 0.60349 0.43039 0.23816 0.0
O5 O 0.79045 0.37464 0.2413 0.0
Hf6 Hf 0.75437 0.48431 0.20562 0.0
O7 O 0.64682 0.33166 0.354 0.0
Hf8 Hf 0.80085 0.378 0.33033 0.0
O9 O 0.50181 0.28736 0.29249 0.0
Hf10 Hf 0.59919 0.43738 0.32737 0.0
O11 O 0.69222 0.23094 0.29656 0.0
Hf12 Hf 0.49612 0.28472 0.20257 0.0
Hf13 Hf 0.69633 0.22432 0.20734 0.0
O14 O 0.55017 0.18974 0.23915 0.0
Hf15 Hf 0.53989 0.17922 0.3279 0.0
C16 C 0.49176 0.11226 0.11559 0.0
C17 C 0.78955 0.51809 0.43095 0.0
C18 C 0.36426 0.37059 0.26385 0.0
C19 C 0.69048 0.65674 0.26203 0.0
O20 O 0.72998 0.62807 0.21921 0.0
O21 O 0.85946 0.45874 0.13962 0.0
C22 C 0.85885 0.37488 0.1153 0.0
O23 O 0.56625 0.03675 0.31839 0.0
O24 O 0.34339 0.12548 0.22031 0.0
O25 O 0.51812 0.40397 0.12851 0.0
O26 O 0.44623 0.20145 0.4032 0.0
O27 O 0.7712 0.25978 0.40683 0.0
O28 O 0.95507 0.53521 0.30764 0.0
O29 O 0.86241 0.24821 0.22544 0.0
O30 O 0.5807 0.12036 0.13676 0.0
C31 C 0.44868 0.28768 0.42552 0.0
O32 O 0.42983 0.40791 0.30849 0.0
O33 O 0.70339 0.51682 0.40895 0.0
C34 C 0.60652 0.00712 0.27662 0.0
O35 O 0.58852 0.14146 0.40828 0.0
O36 O 0.69907 0.5282 0.12676 0.0
O37 O 0.91504 0.60642 0.2281 0.0
O38 O 0.38802 0.05228 0.29669 0.0
O39 O 0.64716 0.05938 0.22976 0.0
O40 O 0.50254 0.38279 0.40447 0.0
C41 C 0.3232 0.04739 0.25686 0.0
O42 O 0.65272 0.6043 0.30905 0.0
O43 O 0.83836 0.47359 0.40771 0.0
O44 O 0.79072 0.27738 0.12834 0.0
O45 O 0.37889 0.33138 0.21798 0.0
O46 O 0.4502 0.16895 0.13241 0.0
O47 O 0.91995 0.33274 0.31346 0.0
C48 C 0.68302 0.17817 0.42901 0.0
C49 C 0.60244 0.49096 0.1076 0.0
C50 C 0.53523 0.70108 0.91482 0.0
C51 C 0.30324 0.82094 0.92417 0.0
O52 O 0.46534 0.7001 0.78911 0.0
O53 O 0.21968 0.51778 0.79184 0.0
O54 O 0.35815 0.55856 0.73563 0.0
O55 O 0.32618 0.66316 0.85069 0.0
Hf56 Hf 0.36453 0.54962 0.82478 0.0
O57 O 0.41697 0.80186 0.73275 0.0
Hf58 Hf 0.43529 0.81514 0.82139 0.0
O59 O 0.3131 0.65538 0.67425 0.0
Hf60 Hf 0.46921 0.70397 0.69992 0.0
O61 O 0.28056 0.76138 0.79101 0.0
Hf62 Hf 0.20591 0.5025 0.70277 0.0
Hf63 Hf 0.17112 0.61791 0.82715 0.0
O64 O 0.17053 0.61244 0.7379 0.0
Hf65 Hf 0.26493 0.76093 0.70211 0.0
C66 C 0.00068 0.36708 0.78033 0.0
C67 C 0.66131 0.93003 0.75951 0.0
C68 C 0.36879 0.49674 0.61084 0.0
C69 C 0.58304 0.58324 0.75484 0.0
O70 O 0.51265 0.53797 0.7969 0.0
O71 O 0.26253 0.48526 0.91097 0.0
C72 C 0.16979 0.47649 0.9287 0.0
O73 O 0.08803 0.71172 0.7164 0.0
O74 O 0.09691 0.51926 0.63394 0.0
O75 O 0.21538 0.35185 0.721 0.0
O76 O 0.37999 0.86528 0.63051 0.0
O77 O 0.42353 0.96609 0.79862 0.0
O78 O 0.53308 0.78766 0.89508 0.0
O79 O 0.21498 0.73523 0.90474 0.0
O80 O 0.0293 0.44388 0.81891 0.0
C81 C 0.46621 0.86968 0.60789 0.0
O82 O 0.45182 0.58408 0.63088 0.0
O83 O 0.62924 0.85815 0.71803 0.0
C84 C 0.02779 0.68609 0.76266 0.0
O85 O 0.28839 0.91363 0.73083 0.0
O86 O 0.29755 0.37897 0.80935 0.0
O87 O 0.47636 0.60618 0.8951 0.0
O88 O 0.15774 0.70119 0.62691 0.0
O89 O 0.06453 0.68386 0.8124 0.0
O90 O 0.50634 0.81051 0.62433 0.0
C91 C 0.09423 0.60304 0.6112 0.0
O92 O 0.58291 0.65161 0.71906 0.0
O93 O 0.6019 0.92831 0.80102 0.0
O94 O 0.11698 0.51016 0.89912 0.0
O95 O 0.27074 0.45949 0.62771 0.0
O96 O 0.04917 0.37751 0.73223 0.0
O97 O 0.39345 0.86605 0.89862 0.0
C98 C 0.35955 0.98379 0.76454 0.0
C99 C 0.24973 0.32011 0.76526 0.0
C100 C 0.37382 0.85248 0.0278 0.0
C101 C 0.31422 0.87032 0.983 0.0
C102 C 0.36632 0.04597 0.02686 0.0
C103 C 0.4263 0.02725 0.07114 0.0
N104 N 0.43264 0.88766 0.1282 0.0
N105 N 0.2216 0.96484 0.9548 0.0
C106 C 0.41169 0.92184 0.07667 0.0
C107 C 0.29847 0.96018 0.98818 0.0
N108 N 0.40034 0.77339 0.02252 0.0
N109 N 0.37881 0.14678 0.01914 0.0
H110 H 0.17468 0.90404 0.92512 0.0
H111 H 0.19563 0.02032 0.96229 0.0
H112 H 0.4417 0.21627 0.0377 0.0
H113 H 0.33333 0.1637 0.99001 0.0
H114 H 0.42655 0.74519 0.05714 0.0
H115 H 0.39742 0.73692 0.98304 0.0
H116 H 0.41402 0.80804 0.13591 0.0
H117 H 0.45407 0.93453 0.16568 0.0
C118 C 0.43127 0.36496 0.57877 0.0
C119 C 0.38348 0.43022 0.56517 0.0
C120 C 0.32116 0.33278 0.47323 0.0
C121 C 0.38992 0.28841 0.47968 0.0
N122 N 0.49262 0.2427 0.5432 0.0
N123 N 0.28659 0.47852 0.49583 0.0
C124 C 0.43874 0.29789 0.53439 0.0
C125 C 0.32922 0.41448 0.51131 0.0
N126 N 0.46737 0.36592 0.63397 0.0
N127 N 0.24335 0.29082 0.43191 0.0
H128 H 0.29225 0.54054 0.52213 0.0
H129 H 0.25471 0.47637 0.45469 0.0
H130 H 0.22838 0.21934 0.41209 0.0
H131 H 0.18531 0.31424 0.42584 0.0
H132 H 0.49814 0.31716 0.64841 0.0
H133 H 0.46153 0.41263 0.66686 0.0
H134 H 0.5351 0.24872 0.58077 0.0
H135 H 0.49271 0.18982 0.51209 0.0
C136 C -0.0104 0.48786 0.03841 0.0
C137 C 0.94349 0.39141 0.0701 0.0
C138 C 0.06487 0.34294 1.01396 0.0
C139 C 0.11987 0.4482 0.98975 0.0
N140 N 0.15675 0.62835 1.00576 0.0
N141 N 0.9581 0.23072 0.09435 0.0
C142 C 0.08932 0.52229 1.01183 0.0
C143 C -0.0135 0.31894 0.05985 0.0
N144 N 0.93767 0.5461 0.03092 0.0
N145 N 0.08706 0.2665 0.99371 0.0
H146 H 0.90564 0.20944 0.12902 0.0
H147 H -0.0046 0.18376 0.09178 0.0
H148 H 0.1483 0.28583 0.96353 0.0
H149 H 0.0419 0.18483 1.00483 0.0
H150 H 0.96911 0.61531 1.00483 0.0
H151 H 0.85773 0.51723 0.04338 0.0
H152 H 0.14264 0.68769 0.02311 0.0
H153 H 0.22991 0.64971 0.9876 0.0
C154 C 0.58882 0.06615 0.57686 0.0
C155 C 0.53322 0.95399 0.56266 0.0
C156 C 0.63722 0.00015 0.47132 0.0
C157 C 0.67861 0.11213 0.48115 0.0
N158 N 0.71951 0.25227 0.54826 0.0
N159 N 0.50121 0.81454 0.49367 0.0
C160 C 0.66151 0.14495 0.53568 0.0
C161 C 0.55794 0.92104 0.50939 0.0
N162 N 0.57457 0.09659 0.63057 0.0
N163 N 0.6744 0.9707 0.42451 0.0
H164 H 0.44015 0.75535 0.51928 0.0
H165 H 0.50768 0.78611 0.45328 0.0
H166 H 0.73375 0.02915 0.39779 0.0
H167 H 0.65555 0.89152 0.4158 0.0
H168 H 0.59816 0.1754 0.6423 0.0
H169 H 0.5393 0.04171 0.66463 0.0
H170 H 0.71694 0.28506 0.58771 0.0
H171 H 0.77583 0.30764 0.5191 0.0
C172 C 0.58595 0.65205 0.06755 0.0
C173 C 0.59428 0.55692 0.05729 0.0
C174 C 0.64175 0.62083 0.95633 0.0
C175 C 0.60579 0.69679 0.96349 0.0
N176 N 0.61843 0.82774 0.03045 0.0
N177 N 0.64019 0.45774 0.98981 0.0
C178 C 0.59866 0.72523 0.02071 0.0
C179 C 0.62692 0.54453 1.00115 0.0
N180 N 0.56418 0.6716 0.12196 0.0
N181 N 0.6929 0.62466 0.90618 0.0
H182 H 0.62985 0.40034 0.02129 0.0
H183 H 0.6535 0.43849 0.94831 0.0
H184 H 0.70326 0.67997 0.87331 0.0
H185 H 0.73669 0.58467 0.90156 0.0
H186 H 0.54861 0.73379 0.13203 0.0
H187 H 0.55568 0.62016 0.15608 0.0
H188 H 0.62822 0.8609 0.0717 0.0
H189 H 0.63197 0.88112 0.99601 0.0
C190 C 0.81551 0.52077 0.53919 0.0
C191 C 0.8467 0.57573 0.48576 0.0
C192 C 0.03724 0.66216 0.51831 0.0
C193 C 0.00767 0.5908 0.56727 0.0
N194 N 0.861 0.48618 0.63383 0.0
N195 N 0.97761 0.73265 0.43706 0.0
C196 C 0.89506 0.53027 0.58055 0.0
C197 C 0.95502 0.65868 0.48013 0.0
N198 N 0.70861 0.46407 0.552 0.0
N199 N 0.14403 0.73135 0.5075 0.0
H200 H 0.91762 0.7271 0.40857 0.0
H201 H 0.04976 0.80477 0.43434 0.0
H202 H 0.20619 0.72372 0.52704 0.0
H203 H 0.17174 0.79603 0.47897 0.0
H204 H 0.6807 0.42798 0.59244 0.0
H205 H 0.65075 0.46131 0.52294 0.0
H206 H 0.91387 0.49711 0.66791 0.0
H207 H 0.91387 0.49711 0.66791 0.0
C208 C 0.73366 0.93663 0.27835 0.0
C209 C 0.625 0.91487 0.28347 0.0
C210 C 0.56133 0.72637 0.2635 0.0
C211 C 0.67037 0.74855 0.25696 0.0
N212 N 0.86087 0.87216 0.26525 0.0
N213 N 0.43461 0.79211 0.27435 0.0
C214 C 0.75688 0.85352 0.26529 0.0
C215 C 0.53837 0.81011 0.2752 0.0
N216 N 0.81518 0.0399 0.28337 0.0
N217 N 0.47936 0.6228 0.26045 0.0
H218 H 0.41516 0.85141 0.2853 0.0
H219 H 0.36822 0.72053 0.26006 0.0
H220 H 0.4933 0.56355 0.24381 0.0
H221 H 0.40171 0.59671 0.27576 0.0
H222 H 0.8911 0.0666 0.26551 0.0
H223 H 0.80157 0.09801 0.30244 0.0
H224 H 0.92736 0.94399 0.2792 0.0
H225 H 0.88063 0.81343 0.2535 0.0
C226 C 0.86787 0.68272 0.71271 0.0
C227 C 0.90733 0.64439 0.75833 0.0
C228 C 0.71547 0.52095 0.78833 0.0
C229 C 0.68252 0.57214 0.74763 0.0
N230 N 0.71779 0.63385 0.6481 0.0
N231 N 0.85997 0.51761 0.84115 0.0
C232 C 0.7557 0.63106 0.70222 0.0
C233 C 0.82888 0.55947 0.79619 0.0
N234 N 0.93534 0.77339 0.68167 0.0
N235 N 0.63814 0.42975 0.8154 0.0
H236 H 0.93746 0.5338 0.85013 0.0
H237 H 0.80786 0.46856 0.87348 0.0
H238 H 0.55619 0.39643 0.80546 0.0
H239 H 0.65427 0.37901 0.84112 0.0
H240 H 0.9067 0.80701 0.65072 0.0
H241 H 0.01659 0.82349 0.69207 0.0
H242 H 0.76868 0.6705 0.6128 0.0
H243 H 0.63623 0.58632 0.63734 0.0
C244 C 0.19297 0.88283 0.31073 0.0
C245 C 0.22192 0.93896 0.25633 0.0
C246 C 0.1197 0.76388 0.20763 0.0
C247 C 0.08799 0.71012 0.26261 0.0
N248 N 0.14886 0.71523 0.35983 0.0
N249 N 0.19539 0.93167 0.15261 0.0
C250 C 0.14021 0.76827 0.31257 0.0
C251 C 0.18101 0.8792 0.20444 0.0
N252 N 0.21752 0.94073 0.36101 0.0
N253 N 0.09457 0.70295 0.1585 0.0
H254 H 0.23208 0.01526 0.14883 0.0
H255 H 0.15997 0.89296 0.11382 0.0
H256 H 0.0529 0.61878 0.15986 0.0
H257 H 0.12426 0.7344 0.11764 0.0
H258 H 0.20923 0.90724 0.40197 0.0
H259 H 0.24309 0.02332 0.36139 0.0
H260 H 0.20469 0.75604 0.39262 0.0
H261 H 0.11694 0.63161 0.36081 0.0
C262 C 0.26053 0.17073 0.71196 0.0
C263 C 0.25379 0.21668 0.76452 0.0
C264 C 0.34545 0.13197 0.81599 0.0
C265 C 0.35444 0.08674 0.76362 0.0
N266 N 0.34266 0.08549 0.65867 0.0
N267 N 0.24394 0.19817 0.86822 0.0
C268 C 0.31922 0.114 0.71065 0.0
C269 C 0.28248 0.18398 0.81706 0.0
N270 N 0.2022 0.17168 0.66484 0.0
N271 N 0.40119 0.13105 0.86408 0.0
H272 H 0.18863 0.22591 0.86976 0.0
H273 H 0.25681 0.17124 0.90773 0.0
H274 H 0.45397 0.10038 0.86432 0.0
H275 H 0.40804 0.17625 0.90073 0.0
H276 H 0.19725 0.13283 0.62594 0.0
H277 H 0.14459 0.19623 0.66742 0.0
H278 H 0.32908 0.11098 0.61867 0.0
H279 H 0.38423 0.04325 0.65569 0.0
C280 C 0.17654 0.26278 0.29528 0.0
C281 C 0.25559 0.3549 0.26576 0.0
C282 C 0.11466 0.38665 0.2259 0.0
C283 C 0.03926 0.30389 0.26281 0.0
N284 N 0.01184 0.19138 0.34799 0.0
N285 N 0.28952 0.46855 0.18061 0.0
C286 C 0.07343 0.24958 0.30187 0.0
C287 C 0.22215 0.40702 0.22434 0.0
N288 N 0.19589 0.1818 0.31204 0.0
N289 N 0.08653 0.45262 0.19647 0.0
H290 H 0.36778 0.4823 0.17568 0.0
H291 H 0.26416 0.49615 0.14515 0.0
H292 H 0.01011 0.44455 0.19921 0.0
H293 H 0.14194 0.52208 0.17444 0.0
H294 H 0.13399 0.10633 0.32573 0.0
H295 H 0.27205 0.18865 0.31027 0.0
H296 H 0.03783 0.15394 0.37805 0.0
H297 H 0.94068 0.18954 0.35988 0.0
C298 C 0.90763 0.17523 0.82304 0.0
C299 C 0.90459 0.25561 0.78735 0.0
C300 C 0.78616 0.1125 0.72045 0.0
C301 C 0.76983 0.03088 0.76024 0.0
N302 N 0.81592 0.98571 0.85311 0.0
N303 N 0.80841 0.29148 0.71418 0.0
C304 C 0.83126 0.06281 0.81291 0.0
C305 C 0.83273 0.22048 0.74003 0.0
N306 N -0.01541 0.20538 0.86508 0.0
N307 N 0.76273 0.08864 0.66353 0.0
H308 H 0.82895 0.36469 0.73434 0.0
H309 H 0.75744 0.27106 0.67863 0.0
H310 H 0.73169 0.01004 0.64785 0.0
H311 H 0.78808 0.15001 0.63247 0.0
H312 H -0.00296 0.15007 0.88896 0.0
H313 H 0.03942 0.28642 0.87333 0.0
H314 H 0.84869 0.00401 0.8948 0.0
H315 H 0.76647 0.90321 0.84479 0.0
loop_
_geom_bond_atom_site_label_1
_geom_bond_atom_site_label_2
_geom_bond_distance
_geom_bond_site_symmetry_2
_ccdc_geom_bond_type
C0 O28 1.281 1_455 S
C0 O37 1.281 1_455 S
C1 O29 1.281 . S
C1 O47 1.281 . S
O2 Hf6 2.202 . S
O2 Hf8 2.202 . S
O2 Hf10 2.202 . S
O3 Hf6 2.202 . S
O3 Hf12 2.202 . S
O3 Hf13 2.202 . S
O4 Hf6 2.072 . S
O4 Hf10 2.072 . S
O4 Hf12 2.072 . S
O5 Hf6 2.072 . S
O5 Hf8 2.072 . S
O5 Hf13 2.072 . S
Hf6 O2 2.202 . S
Hf6 O3 2.202 . S
Hf6 O4 2.072 . S
Hf6 O5 2.072 . S
Hf6 O20 2.209 . S
Hf6 O21 2.209 . S
Hf6 O36 2.209 . S
Hf6 O37 2.209 . S
O7 Hf8 2.072 . S
O7 Hf10 2.072 . S
O7 Hf15 2.072 . S
Hf8 O2 2.202 . S
Hf8 O5 2.072 . S
Hf8 O7 2.072 . S
Hf8 O11 2.202 . S
Hf8 O27 2.209 . S
Hf8 O28 2.209 . S
Hf8 O43 2.209 . S
Hf8 O47 2.209 . S
O9 Hf10 2.202 . S
O9 Hf12 2.202 . S
O9 Hf15 2.202 . S
Hf10 O2 2.202 . S
Hf10 O4 2.072 . S
Hf10 O7 2.072 . S
Hf10 O9 2.202 . S
Hf10 O32 2.209 . S
Hf10 O33 2.209 . S
Hf10 O40 2.209 . S
Hf10 O42 2.209 . S
O11 Hf8 2.202 . S
O11 Hf13 2.202 . S
O11 Hf15 2.202 . S
Hf12 O3 2.202 . S
Hf12 O4 2.072 . S
Hf12 O9 2.202 . S
Hf12 O14 2.072 . S
Hf12 O24 2.209 . S
Hf12 O25 2.209 . S
Hf12 O45 2.209 . S
Hf12 O46 2.209 . S
Hf13 O3 2.202 . S
Hf13 O5 2.072 . S
Hf13 O11 2.202 . S
Hf13 O14 2.072 . S
Hf13 O29 2.209 . S
Hf13 O30 2.209 . S
Hf13 O39 2.209 . S
Hf13 O44 2.209 . S
O14 Hf12 2.072 . S
O14 Hf13 2.072 . S
O14 Hf15 2.072 . S
Hf15 O7 2.072 . S
Hf15 O9 2.202 . S
Hf15 O11 2.202 . S
Hf15 O14 2.072 . S
Hf15 O23 2.209 . S
Hf15 O26 2.209 . S
Hf15 O35 2.209 . S
Hf15 O38 2.209 . S
C16 O30 1.281 . S
C16 O46 1.281 . S
C17 O33 1.281 . S
C17 O43 1.281 . S
C18 O32 1.281 . S
C18 O45 1.281 . S
C19 O20 1.281 . S
C19 O42 1.281 . S
O20 Hf6 2.209 . S
O20 C19 1.281 . S
O21 Hf6 2.209 . S
O21 C22 1.281 . S
C22 O21 1.281 . S
C22 O44 1.281 . S
O23 Hf15 2.209 . S
O23 C34 1.281 1_545 S
O24 Hf12 2.209 . S
O24 C41 1.281 . S
O25 Hf12 2.209 . S
O25 C49 1.281 . S
O26 Hf15 2.209 . S
O26 C31 1.281 . S
O27 Hf8 2.209 . S
O27 C48 1.281 . S
O28 C0 1.281 1_655 S
O28 Hf8 2.209 . S
O29 C1 1.281 . S
O29 Hf13 2.209 . S
O30 Hf13 2.209 . S
O30 C16 1.281 . S
C31 O26 1.281 . S
C31 O40 1.281 . S
O32 Hf10 2.209 . S
O32 C18 1.281 . S
O33 Hf10 2.209 . S
O33 C17 1.281 . S
C34 O23 1.281 1_565 S
C34 O39 1.281 1_565 S
O35 Hf15 2.209 . S
O35 C48 1.281 . S
O36 Hf6 2.209 . S
O36 C49 1.281 . S
O37 C0 1.281 1_655 S
O37 Hf6 2.209 . S
O38 Hf15 2.209 . S
O38 C41 1.281 . S
O39 Hf13 2.209 . S
O39 C34 1.281 1_545 S
O40 Hf10 2.209 . S
O40 C31 1.281 . S
C41 O24 1.281 . S
C41 O38 1.281 . S
O42 Hf10 2.209 . S
O42 C19 1.281 . S
O43 Hf8 2.209 . S
O43 C17 1.281 . S
O44 Hf13 2.209 . S
O44 C22 1.281 . S
O45 Hf12 2.209 . S
O45 C18 1.281 . S
O46 Hf12 2.209 . S
O46 C16 1.281 . S
O47 C1 1.281 . S
O47 Hf8 2.209 . S
C48 O27 1.281 . S
C48 O35 1.281 . S
C49 O25 1.281 . S
C49 O36 1.281 . S
C50 O78 1.281 . S
C50 O87 1.281 . S
C51 O79 1.281 . S
C51 O97 1.281 . S
O52 Hf56 2.202 . S
O52 Hf58 2.202 . S
O52 Hf60 2.202 . S
O53 Hf56 2.202 . S
O53 Hf62 2.202 . S
O53 Hf63 2.202 . S
O54 Hf56 2.072 . S
O54 Hf60 2.072 . S
O54 Hf62 2.072 . S
O55 Hf56 2.072 . S
O55 Hf58 2.072 . S
O55 Hf63 2.072 . S
Hf56 O52 2.202 . S
Hf56 O53 2.202 . S
Hf56 O54 2.072 . S
Hf56 O55 2.072 . S
Hf56 O70 2.209 . S
Hf56 O71 2.209 . S
Hf56 O86 2.209 . S
Hf56 O87 2.209 . S
O57 Hf58 2.072 . S
O57 Hf60 2.072 . S
O57 Hf65 2.072 . S
Hf58 O52 2.202 . S
Hf58 O55 2.072 . S
Hf58 O57 2.072 . S
Hf58 O61 2.202 . S
Hf58 O77 2.209 . S
Hf58 O78 2.209 . S
Hf58 O93 2.209 . S
Hf58 O97 2.209 . S
O59 Hf60 2.202 . S
O59 Hf62 2.202 . S
O59 Hf65 2.202 . S
Hf60 O52 2.202 . S
Hf60 O54 2.072 . S
Hf60 O57 2.072 . S
Hf60 O59 2.202 . S
Hf60 O82 2.209 . S
Hf60 O83 2.209 . S
Hf60 O90 2.209 . S
Hf60 O92 2.209 . S
O61 Hf58 2.202 . S
O61 Hf63 2.202 . S
O61 Hf65 2.202 . S
Hf62 O53 2.202 . S
Hf62 O54 2.072 . S
Hf62 O59 2.202 . S
Hf62 O64 2.072 . S
Hf62 O74 2.209 . S
Hf62 O75 2.209 . S
Hf62 O95 2.209 . S
Hf62 O96 2.209 . S
Hf63 O53 2.202 . S
Hf63 O55 2.072 . S
Hf63 O61 2.202 . S
Hf63 O64 2.072 . S
Hf63 O79 2.209 . S
Hf63 O80 2.209 . S
Hf63 O89 2.209 . S
Hf63 O94 2.209 . S
O64 Hf62 2.072 . S
O64 Hf63 2.072 . S
O64 Hf65 2.072 . S
Hf65 O57 2.072 . S
Hf65 O59 2.202 . S
Hf65 O61 2.202 . S
Hf65 O64 2.072 . S
Hf65 O73 2.209 . S
Hf65 O76 2.209 . S
Hf65 O85 2.209 . S
Hf65 O88 2.209 . S
C66 O80 1.281 1_655 S
C66 O96 1.281 1_655 S
C67 O83 1.281 . S
C67 O93 1.281 . S
C68 O82 1.281 . S
C68 O95 1.281 . S
C69 O70 1.281 . S
C69 O92 1.281 . S
O70 Hf56 2.209 . S
O70 C69 1.281 . S
O71 Hf56 2.209 . S
O71 C72 1.281 . S
C72 O71 1.281 . S
C72 O94 1.281 . S
O73 Hf65 2.209 . S
O73 C84 1.281 . S
O74 Hf62 2.209 . S
O74 C91 1.281 . S
O75 Hf62 2.209 . S
O75 C99 1.281 . S
O76 Hf65 2.209 . S
O76 C81 1.281 . S
O77 Hf58 2.209 . S
O77 C98 1.281 1_565 S
O78 C50 1.281 . S
O78 Hf58 2.209 . S
O79 C51 1.281 . S
O79 Hf63 2.209 . S
O80 Hf63 2.209 . S
O80 C66 1.281 1_455 S
C81 O76 1.281 . S
C81 O90 1.281 . S
O82 Hf60 2.209 . S
O82 C68 1.281 . S
O83 Hf60 2.209 . S
O83 C67 1.281 . S
C84 O73 1.281 . S
C84 O89 1.281 . S
O85 Hf65 2.209 . S
O85 C98 1.281 1_565 S
O86 Hf56 2.209 . S
O86 C99 1.281 . S
O87 C50 1.281 . S
O87 Hf56 2.209 . S
O88 Hf65 2.209 . S
O88 C91 1.281 . S
O89 Hf63 2.209 . S
O89 C84 1.281 . S
O90 Hf60 2.209 . S
O90 C81 1.281 . S
C91 O74 1.281 . S
C91 O88 1.281 . S
O92 Hf60 2.209 . S
O92 C69 1.281 . S
O93 Hf58 2.209 . S
O93 C67 1.281 . S
O94 Hf63 2.209 . S
O94 C72 1.281 . S
O95 Hf62 2.209 . S
O95 C68 1.281 . S
O96 Hf62 2.209 . S
O96 C66 1.281 1_455 S
O97 C51 1.281 . S
O97 Hf58 2.209 . S
C98 O77 1.281 1_545 S
C98 O85 1.281 1_545 S
C99 O75 1.281 . S
C99 O86 1.281 . S
C100 C101 1.357 1_554 S
C100 C106 1.386 . S
C100 N108 1.353 1_554 S
C101 C100 1.357 1_556 S
C101 C107 1.363 . S
C102 C103 1.363 . S
C102 C107 1.379 1_544 S
C102 N109 1.356 . S
C103 C102 1.363 . S
C103 C106 1.363 1_545 S
N104 C106 1.356 . S
N104 H116 0.984 . S
N104 H117 0.985 . S
N105 C107 1.356 . S
N105 H110 0.984 . S
N105 H111 0.985 1_565 S
C106 C100 1.386 . S
C106 C103 1.363 1_565 S
C106 N104 1.356 . S
C107 C101 1.363 . S
C107 C102 1.379 1_566 S
C107 N105 1.356 . S
N108 C100 1.353 1_556 S
N108 H114 0.975 1_556 S
N108 H115 0.984 . S
N109 C102 1.356 . S
N109 H112 0.984 . S
N109 H113 0.985 . S
H110 N105 0.984 . S
H111 N105 0.985 1_545 S
H112 N109 0.984 . S
H113 N109 0.985 . S
H114 N108 0.975 1_554 S
H115 N108 0.984 . S
H116 N104 0.984 . S
H117 N104 0.985 . S
C118 C119 1.363 . S
C118 C124 1.379 . S
C118 N126 1.356 . S
C119 C118 1.363 . S
C119 C125 1.363 . S
C120 C121 1.363 . S
C120 C125 1.379 . S
C120 N127 1.356 . S
C121 C120 1.363 . S
C121 C124 1.363 . S
N122 C124 1.356 . S
N122 H134 0.984 . S
N122 H135 0.985 . S
N123 C125 1.356 . S
N123 H128 0.984 . S
N123 H129 0.985 . S
C124 C118 1.379 . S
C124 C121 1.363 . S
C124 N122 1.356 . S
C125 C119 1.363 . S
C125 C120 1.379 . S
C125 N123 1.356 . S
N126 C118 1.356 . S
N126 H132 0.984 . S
N126 H133 0.984 . S
N127 C120 1.356 . S
N127 H130 0.984 . S
N127 H131 0.985 . S
H128 N123 0.984 . S
H129 N123 0.985 . S
H130 N127 0.984 . S
H131 N127 0.985 . S
H132 N126 0.984 . S
H133 N126 0.984 . S
H134 N122 0.984 . S
H135 N122 0.985 . S
C136 C137 1.363 1_455 S
C136 C142 1.379 1_554 S
C136 N144 1.356 1_455 S
C137 C136 1.363 1_655 S
C137 C143 1.363 1_655 S
C138 C139 1.363 1_554 S
C138 C143 1.379 . S
C138 N145 1.356 1_554 S
C139 C138 1.363 1_556 S
C139 C142 1.363 . S
N140 C142 1.356 . S
N140 H152 0.984 . S
N140 H153 0.985 . S
N141 C143 1.356 1_655 S
N141 H146 0.984 . S
N141 H147 0.985 . S
C142 C136 1.379 1_556 S
C142 C139 1.363 . S
C142 N140 1.356 . S
C143 C137 1.363 1_455 S
C143 C138 1.379 . S
C143 N141 1.356 1_455 S
N144 C136 1.356 1_655 S
N144 H150 0.984 1_654 S
N144 H151 0.984 . S
N145 C138 1.356 1_556 S
N145 H148 0.984 . S
N145 H149 0.985 1_556 S
H146 N141 0.984 . S
H147 N141 0.985 . S
H148 N145 0.984 . S
H149 N145 0.985 1_554 S
H150 N144 0.984 1_456 S
H151 N144 0.984 . S
H152 N140 0.984 . S
H153 N140 0.985 . S
C154 C155 1.363 1_545 S
C154 C160 1.379 . S
C154 N162 1.356 . S
C155 C154 1.363 1_565 S
C155 C161 1.363 . S
C156 C157 1.363 . S
C156 C161 1.379 1_545 S
C156 N163 1.356 . S
C157 C156 1.363 . S
C157 C160 1.363 . S
N158 C160 1.356 . S
N158 H170 0.984 . S
N158 H171 0.985 . S
N159 C161 1.356 . S
N159 H164 0.984 . S
N159 H165 0.985 . S
C160 C154 1.379 . S
C160 C157 1.363 . S
C160 N158 1.356 . S
C161 C155 1.363 . S
C161 C156 1.379 1_565 S
C161 N159 1.356 . S
N162 C154 1.356 . S
N162 H168 0.984 . S
N162 H169 0.984 . S
N163 C156 1.356 . S
N163 H166 0.984 . S
N163 H167 0.985 1_545 S
H164 N159 0.984 . S
H165 N159 0.985 . S
H166 N163 0.984 . S
H167 N163 0.985 1_565 S
H168 N162 0.984 . S
H169 N162 0.984 . S
H170 N158 0.984 . S
H171 N158 0.985 . S
C172 C173 1.363 . S
C172 C178 1.379 . S
C172 N180 1.356 . S
C173 C172 1.363 . S
C173 C179 1.363 1_554 S
C174 C175 1.363 . S
C174 C179 1.379 . S
C174 N181 1.356 . S
C175 C174 1.363 . S
C175 C178 1.363 1_556 S
N176 C178 1.356 . S
N176 H188 0.984 . S
N176 H189 0.985 1_554 S
N177 C179 1.356 . S
N177 H182 0.984 1_556 S
N177 H183 0.985 . S
C178 C172 1.379 . S
C178 C175 1.363 1_554 S
C178 N176 1.356 . S
C179 C173 1.363 1_556 S
C179 C174 1.379 . S
C179 N177 1.356 . S
N180 C172 1.356 . S
N180 H186 0.984 . S
N180 H187 0.984 . S
N181 C174 1.356 . S
N181 H184 0.984 . S
N181 H185 0.985 . S
H182 N177 0.984 1_554 S
H183 N177 0.985 . S
H184 N181 0.984 . S
H185 N181 0.985 . S
H186 N180 0.984 . S
H187 N180 0.984 . S
H188 N176 0.984 . S
H189 N176 0.985 1_556 S
C190 C191 1.363 . S
C190 C196 1.379 . S
C190 N198 1.356 . S
C191 C190 1.363 . S
C191 C197 1.363 . S
C192 C193 1.363 . S
C192 C197 1.379 1_455 S
C192 N199 1.356 . S
C193 C192 1.363 . S
C193 C196 1.363 1_455 S
N194 C196 1.356 . S
N194 H206 0.984 . S
N194 H207 0.985 . S
N195 C197 1.356 . S
N195 H200 0.984 . S
N195 H201 0.985 1_655 S
C196 C190 1.379 . S
C196 C193 1.363 1_655 S
C196 N194 1.356 . S
C197 C191 1.363 . S
C197 C192 1.379 1_655 S
C197 N195 1.356 . S
N198 C190 1.356 . S
N198 H204 0.984 . S
N198 H205 0.984 . S
N199 C192 1.356 . S
N199 H202 0.984 . S
N199 H203 0.985 . S
H200 N195 0.984 . S
H201 N195 0.985 1_455 S
H202 N199 0.984 . S
H203 N199 0.985 . S
H204 N198 0.984 . S
H205 N198 0.984 . S
H206 N194 0.984 . S
H207 N194 0.985 . S
C208 C209 1.363 . S
C208 C214 1.379 . S
C208 N216 1.356 . S
C209 C208 1.363 . S
C209 C215 1.363 . S
C210 C211 1.363 . S
C210 C215 1.379 . S
C210 N217 1.356 . S
C211 C210 1.363 . S
C211 C214 1.363 . S
N212 C214 1.356 . S
N212 H224 0.984 . S
N212 H225 0.985 . S
N213 C215 1.356 . S
N213 H218 0.984 . S
N213 H219 0.985 . S
C214 C208 1.379 . S
C214 C211 1.363 . S
C214 N212 1.356 . S
C215 C209 1.363 . S
C215 C210 1.379 . S
C215 N213 1.356 . S
N216 C208 1.356 . S
N216 H222 0.984 1_565 S
N216 H223 0.984 1_565 S
N217 C210 1.356 . S
N217 H220 0.984 . S
N217 H221 0.985 . S
H218 N213 0.984 . S
H219 N213 0.985 . S
H220 N217 0.984 . S
H221 N217 0.985 . S
H222 N216 0.984 1_545 S
H223 N216 0.984 1_545 S
H224 N212 0.984 . S
H225 N212 0.985 . S
C226 C227 1.363 . S
C226 C232 1.379 . S
C226 N234 1.356 . S
C227 C226 1.363 . S
C227 C233 1.363 . S
C228 C229 1.363 . S
C228 C233 1.379 . S
C228 N235 1.356 . S
C229 C228 1.363 . S
C229 C232 1.363 . S
N230 C232 1.356 . S
N230 H242 0.984 . S
N230 H243 0.985 . S
N231 C233 1.356 . S
N231 H236 0.984 1_655 S
N231 H237 0.985 . S
C232 C226 1.379 . S
C232 C229 1.363 . S
C232 N230 1.356 . S
C233 C227 1.363 . S
C233 C228 1.379 . S
C233 N231 1.356 . S
N234 C226 1.356 . S
N234 H240 0.984 . S
N234 H241 0.984 1_655 S
N235 C228 1.356 . S
N235 H238 0.984 . S
N235 H239 0.985 . S
H236 N231 0.984 1_455 S
H237 N231 0.985 . S
H238 N235 0.984 . S
H239 N235 0.985 . S
H240 N234 0.984 . S
H241 N234 0.984 1_455 S
H242 N230 0.984 . S
H243 N230 0.985 . S
C244 C245 1.363 . S
C244 C250 1.379 . S
C244 N252 1.356 . S
C245 C244 1.363 . S
C245 C251 1.363 . S
C246 C247 1.363 . S
C246 C251 1.379 . S
C246 N253 1.356 . S
C247 C246 1.363 . S
C247 C250 1.363 . S
N248 C250 1.356 . S
N248 H260 0.984 . S
N248 H261 0.985 . S
N249 C251 1.356 . S
N249 H254 0.984 1_565 S
N249 H255 0.985 . S
C250 C244 1.379 . S
C250 C247 1.363 . S
C250 N248 1.356 . S
C251 C245 1.363 . S
C251 C246 1.379 . S
C251 N249 1.356 . S
N252 C244 1.356 . S
N252 H258 0.984 . S
N252 H259 0.984 1_565 S
N253 C246 1.356 . S
N253 H256 0.984 1_455 S
N253 H257 0.985 1_455 S
H254 N249 0.984 1_545 S
H255 N249 0.985 . S
H256 N253 0.984 1_655 S
H257 N253 0.985 1_655 S
H258 N252 0.984 . S
H259 N252 0.984 1_545 S
H260 N248 0.984 . S
H261 N248 0.985 . S
C262 C263 1.363 . S
C262 C268 1.379 . S
C262 N270 1.356 . S
C263 C262 1.363 . S
C263 C269 1.363 . S
C264 C265 1.363 . S
C264 C269 1.379 . S
C264 N271 1.356 . S
C265 C264 1.363 . S
C265 C268 1.363 . S
N266 C268 1.356 . S
N266 H278 0.984 1_545 S
N266 H279 0.985 1_545 S
N267 C269 1.356 . S
N267 H272 0.984 . S
N267 H273 0.985 . S
C268 C262 1.379 . S
C268 C265 1.363 . S
C268 N266 1.356 . S
C269 C263 1.363 . S
C269 C264 1.379 . S
C269 N267 1.356 . S
N270 C262 1.356 . S
N270 H276 0.984 . S
N270 H277 0.984 . S
N271 C264 1.356 . S
N271 H274 0.984 . S
N271 H275 0.985 . S
H272 N267 0.984 . S
H273 N267 0.985 . S
H274 N271 0.984 . S
H275 N271 0.985 . S
H276 N270 0.984 . S
H277 N270 0.984 . S
H278 N266 0.984 1_565 S
H279 N266 0.985 1_565 S
C280 C281 1.363 . S
C280 C286 1.379 . S
C280 N288 1.356 . S
C281 C280 1.363 . S
C281 C287 1.363 . S
C282 C283 1.363 . S
C282 C287 1.379 . S
C282 N289 1.356 . S
C283 C282 1.363 . S
C283 C286 1.363 . S
N284 C286 1.356 . S
N284 H296 0.984 . S
N284 H297 0.985 1_455 S
N285 C287 1.356 . S
N285 H290 0.984 . S
N285 H291 0.985 . S
C286 C280 1.379 . S
C286 C283 1.363 . S
C286 N284 1.356 . S
C287 C281 1.363 . S
C287 C282 1.379 . S
C287 N285 1.356 . S
N288 C280 1.356 . S
N288 H294 0.984 . S
N288 H295 0.984 . S
N289 C282 1.356 . S
N289 H292 0.984 1_455 S
N289 H293 0.985 . S
H290 N285 0.984 . S
H291 N285 0.985 . S
H292 N289 0.984 1_655 S
H293 N289 0.985 . S
H294 N288 0.984 . S
H295 N288 0.984 . S
H296 N284 0.984 . S
H297 N284 0.985 1_655 S
C298 C299 1.363 . S
C298 C304 1.379 . S
C298 N306 1.356 . S
C299 C298 1.363 . S
C299 C305 1.363 . S
C300 C301 1.363 . S
C300 C305 1.379 . S
C300 N307 1.356 . S
C301 C300 1.363 . S
C301 C304 1.363 . S
N302 C304 1.356 . S
N302 H314 0.984 . S
N302 H315 0.985 1_545 S
N303 C305 1.356 . S
N303 H308 0.984 . S
N303 H309 0.985 . S
C304 C298 1.379 . S
C304 C301 1.363 . S
C304 N302 1.356 . S
C305 C299 1.363 . S
C305 C300 1.379 . S
C305 N303 1.356 . S
N306 C298 1.356 . S
N306 H312 0.984 1_655 S
N306 H313 0.984 1_655 S
N307 C300 1.356 . S
N307 H310 0.984 1_545 S
N307 H311 0.985 . S
H308 N303 0.984 . S
H309 N303 0.985 . S
H310 N307 0.984 1_565 S
H311 N307 0.985 . S
H312 N306 0.984 1_455 S
H313 N306 0.984 1_455 S
H314 N302 0.984 . S
H315 N302 0.985 1_565 S
C101 C51 1.761 . S
C103 C16 1.921 . S
C119 C68 1.921 . S
C121 C31 1.761 . S
C137 C22 1.921 . S
C139 C72 1.761 . S
C155 C81 1.921 . S
C157 C48 1.761 . S
C173 C49 1.921 . S
C175 C50 1.761 . S
C191 C17 1.761 . S
C193 C91 1.921 . S
C209 C34 1.254 . S
C211 C19 1.267 . S
C227 C84 1.267 1_655 S
C229 C69 1.254 . S
C245 C41 1.267 1_565 S
C247 C0 1.254 . S
C263 C99 1.267 . S
C265 C98 1.254 . S
C281 C18 1.254 . S
C283 C1 1.267 1_455 S
C299 C66 1.254 . S
C301 C67 1.267 1_545 S
