# Generated by pormake.
# Topology une, (4)-cn, num edge types: 1
# Building blocks:
#     Node 0, Type 0, BuildingBlock: QUQFOY_clean_sbu_1, # of connection points: 4
#     Node 1, Type 0, BuildingBlock: QUQFOY_clean_sbu_1, # of connection points: 4
#     Node 2, Type 0, BuildingBlock: QUQFOY_clean_sbu_1, # of connection points: 4
#     Node 3, Type 0, BuildingBlock: QUQFOY_clean_sbu_1, # of connection points: 4
#     Node 4, Type 0, BuildingBlock: QUQFOY_clean_sbu_1, # of connection points: 4
#     Node 5, Type 0, BuildingBlock: QUQFOY_clean_sbu_1, # of connection points: 4
#     Node 6, Type 0, BuildingBlock: QUQFOY_clean_sbu_1, # of connection points: 4
#     Node 7, Type 0, BuildingBlock: QUQFOY_clean_sbu_1, # of connection points: 4
#     Node 8, Type 0, BuildingBlock: QUQFOY_clean_sbu_1, # of connection points: 4
#     Node 9, Type 0, BuildingBlock: QUQFOY_clean_sbu_1, # of connection points: 4
#     Node 10, Type 0, BuildingBlock: QUQFOY_clean_sbu_1, # of connection points: 4
#     Node 11, Type 0, BuildingBlock: QUQFOY_clean_sbu_1, # of connection points: 4
#     Node 12, Type 0, BuildingBlock: QUQFOY_clean_sbu_1, # of connection points: 4
#     Node 13, Type 0, BuildingBlock: QUQFOY_clean_sbu_1, # of connection points: 4
#     Node 14, Type 0, BuildingBlock: QUQFOY_clean_sbu_1, # of connection points: 4
#     Node 15, Type 0, BuildingBlock: QUQFOY_clean_sbu_1, # of connection points: 4
#     Node 16, Type 0, BuildingBlock: QUQFOY_clean_sbu_1, # of connection points: 4
#     Node 17, Type 0, BuildingBlock: QUQFOY_clean_sbu_1, # of connection points: 4
#     Edge 18, Type (0, 0), BuildingBlock: XUDNAN_clean_linker_2, # of connection points: 2
#     Edge 19, Type (0, 0), BuildingBlock: XUDNAN_clean_linker_2, # of connection points: 2
#     Edge 20, Type (0, 0), BuildingBlock: XUDNAN_clean_linker_2, # of connection points: 2
#     Edge 21, Type (0, 0), BuildingBlock: XUDNAN_clean_linker_2, # of connection points: 2
#     Edge 22, Type (0, 0), BuildingBlock: XUDNAN_clean_linker_2, # of connection points: 2
#     Edge 23, Type (0, 0), BuildingBlock: XUDNAN_clean_linker_2, # of connection points: 2
#     Edge 24, Type (0, 0), BuildingBlock: XUDNAN_clean_linker_2, # of connection points: 2
#     Edge 25, Type (0, 0), BuildingBlock: XUDNAN_clean_linker_2, # of connection points: 2
#     Edge 26, Type (0, 0), BuildingBlock: XUDNAN_clean_linker_2, # of connection points: 2
#     Edge 27, Type (0, 0), BuildingBlock: XUDNAN_clean_linker_2, # of connection points: 2
#     Edge 28, Type (0, 0), BuildingBlock: XUDNAN_clean_linker_2, # of connection points: 2
#     Edge 29, Type (0, 0), BuildingBlock: XUDNAN_clean_linker_2, # of connection points: 2
#     Edge 30, Type (0, 0), BuildingBlock: XUDNAN_clean_linker_2, # of connection points: 2
#     Edge 31, Type (0, 0), BuildingBlock: XUDNAN_clean_linker_2, # of connection points: 2
#     Edge 32, Type (0, 0), BuildingBlock: XUDNAN_clean_linker_2, # of connection points: 2
#     Edge 33, Type (0, 0), BuildingBlock: XUDNAN_clean_linker_2, # of connection points: 2
#     Edge 34, Type (0, 0), BuildingBlock: XUDNAN_clean_linker_2, # of connection points: 2
#     Edge 35, Type (0, 0), BuildingBlock: XUDNAN_clean_linker_2, # of connection points: 2
#     Edge 36, Type (0, 0), BuildingBlock: XUDNAN_clean_linker_2, # of connection points: 2
#     Edge 37, Type (0, 0), BuildingBlock: XUDNAN_clean_linker_2, # of connection points: 2
#     Edge 38, Type (0, 0), BuildingBlock: XUDNAN_clean_linker_2, # of connection points: 2
#     Edge 39, Type (0, 0), BuildingBlock: XUDNAN_clean_linker_2, # of connection points: 2
#     Edge 40, Type (0, 0), BuildingBlock: XUDNAN_clean_linker_2, # of connection points: 2
#     Edge 41, Type (0, 0), BuildingBlock: XUDNAN_clean_linker_2, # of connection points: 2
#     Edge 42, Type (0, 0), BuildingBlock: XUDNAN_clean_linker_2, # of connection points: 2
#     Edge 43, Type (0, 0), BuildingBlock: XUDNAN_clean_linker_2, # of connection points: 2
#     Edge 44, Type (0, 0), BuildingBlock: XUDNAN_clean_linker_2, # of connection points: 2
#     Edge 45, Type (0, 0), BuildingBlock: XUDNAN_clean_linker_2, # of connection points: 2
#     Edge 46, Type (0, 0), BuildingBlock: XUDNAN_clean_linker_2, # of connection points: 2
#     Edge 47, Type (0, 0), BuildingBlock: XUDNAN_clean_linker_2, # of connection points: 2
#     Edge 48, Type (0, 0), BuildingBlock: XUDNAN_clean_linker_2, # of connection points: 2
#     Edge 49, Type (0, 0), BuildingBlock: XUDNAN_clean_linker_2, # of connection points: 2
#     Edge 50, Type (0, 0), BuildingBlock: XUDNAN_clean_linker_2, # of connection points: 2
#     Edge 51, Type (0, 0), BuildingBlock: XUDNAN_clean_linker_2, # of connection points: 2
#     Edge 52, Type (0, 0), BuildingBlock: XUDNAN_clean_linker_2, # of connection points: 2
#     Edge 53, Type (0, 0), BuildingBlock: XUDNAN_clean_linker_2, # of connection points: 2
# Relax obj value: 0.132
# Max RMSD: 0.153
# Mean RMSD: 0.148
data_MOF--net-une--node1-QUQFOY_clean_sbu_1--edge1-XUDNAN_clean_linker_2
_symmetry_space_group_name_H-M    P1
_symmetry_Int_Tables_number       1
_symmetry_cell_setting            triclinic
loop_
_symmetry_equiv_pos_as_xyz
'x, y, z'
_cell_length_a     40.319735
_cell_length_b     40.24474
_cell_length_c     60.59833
_cell_angle_alpha  89.977833
_cell_angle_beta   90.00594
_cell_angle_gamma 120.06325
loop_
_atom_site_label
_atom_site_type_symbol
_atom_site_fract_x
_atom_site_fract_y
_atom_site_fract_z
_atom_type_partial_charge
O0 O 0.32306 0.1047 0.03703 0.0
Cd1 Cd 0.30732 0.07303 0.06563 0.0
Cd2 Cd 0.34109 0.03551 0.04442 0.0
O3 O 0.34216 0.06974 0.01874 0.0
O4 O 0.29917 0.10366 0.08858 0.0
O5 O 0.34579 0.08971 0.09011 0.0
C6 C 0.32881 0.10673 0.09861 0.0
C7 C 0.39062 0.02137 0.04394 0.0
C8 C 0.33522 0.09717 0.01948 0.0
C9 C 0.25928 0.9885 0.06016 0.0
O10 O 0.28963 0.98967 0.0535 0.0
O11 O 0.25884 0.01909 0.06465 0.0
O12 O 0.3639 0.00797 0.02937 0.0
O13 O 0.3897 0.04357 0.05899 0.0
O14 O 0.89165 0.2294 0.03417 0.0
Cd15 Cd 0.93038 0.25736 0.05905 0.0
Cd16 Cd 0.95909 0.31438 0.02473 0.0
O17 O 0.91528 0.27122 0.00676 0.0
O18 O 0.90729 0.22088 0.08427 0.0
O19 O 0.91457 0.27903 0.08435 0.0
C20 C 0.90225 0.24636 0.0941 0.0
C21 C 0.97067 0.3769 0.02069 0.0
C22 C 0.89045 0.23869 0.01427 0.0
C23 C 0.01113 0.28715 0.04318 0.0
O24 O 0.00653 0.30968 0.03055 0.0
O25 O 0.98429 0.26367 0.0557 0.0
O26 O 0.97903 0.36029 0.00529 0.0
O27 O 0.95486 0.35758 0.03844 0.0
O28 O 0.77465 0.64836 0.04466 0.0
Cd29 Cd 0.75006 0.65131 0.07406 0.0
Cd30 Cd 0.68369 0.59836 0.04571 0.0
O31 O 0.72713 0.59646 0.02925 0.0
O32 O 0.79601 0.68463 0.0925 0.0
O33 O 0.75414 0.62498 0.10165 0.0
C34 C 0.78536 0.65652 0.10609 0.0
C35 C 0.62123 0.54823 0.0383 0.0
C36 C 0.76194 0.62302 0.02954 0.0
C37 C 0.69851 0.67849 0.05855 0.0
O38 O 0.68435 0.64968 0.04575 0.0
O39 O 0.7221 0.68228 0.07356 0.0
O40 O 0.64223 0.57226 0.0234 0.0
O41 O 0.63622 0.5513 0.05753 0.0
O42 O 0.65935 0.87733 0.97539 0.0
Cd43 Cd 0.6553 0.9097 0.95018 0.0
Cd44 Cd 0.61999 0.92837 0.9893 0.0
O45 O 0.63026 0.88806 0.00319 0.0
O46 O 0.67069 0.89139 0.92363 0.0
O47 O 0.61245 0.8826 0.92821 0.0
C48 C 0.63611 0.87719 0.91649 0.0
C49 C 0.57378 0.93785 0.00699 0.0
C50 C 0.6473 0.87153 0.9952 0.0
C51 C 0.69016 0.99173 0.96432 0.0
O52 O 0.66541 0.97957 0.97964 0.0
O53 O 0.69085 0.96879 0.95016 0.0
O54 O 0.60577 0.94659 0.01626 0.0
O55 O 0.56707 0.92217 0.98771 0.0
O56 O 0.08221 0.7894 0.95534 0.0
Cd57 Cd 0.05562 0.76294 0.92643 0.0
Cd58 Cd 0.045 0.69154 0.95531 0.0
O59 O 0.07947 0.74029 0.97352 0.0
O60 O 0.06681 0.80635 0.90607 0.0
O61 O 0.08712 0.76543 0.89985 0.0
C62 C 0.08572 0.7955 0.8938 0.0
C63 C 0.03812 0.63641 0.97338 0.0
C64 C 0.08983 0.77571 0.97222 0.0
C65 C 0.97664 0.69715 0.93523 0.0
O66 O 0.99172 0.68004 0.94495 0.0
O67 O -0.00317 0.73073 0.92739 0.0
O68 O 0.02567 0.65739 0.98164 0.0
O69 O 0.05547 0.64678 0.95463 0.0
O70 O 0.22039 0.2841 0.9484 0.0
Cd71 Cd 0.25425 0.29789 0.92073 0.0
Cd72 Cd 0.31073 0.34686 0.95536 0.0
O73 O 0.2584 0.33708 0.96701 0.0
O74 O 0.21978 0.28614 0.89479 0.0
O75 O 0.26502 0.34504 0.90382 0.0
C76 C 0.23679 0.32263 0.89111 0.0
C77 C 0.36297 0.38905 0.97757 0.0
C78 C 0.22619 0.30674 0.9644 0.0
C79 C 0.31026 0.27635 0.93218 0.0
O80 O 0.31927 0.3022 0.94673 0.0
O81 O 0.28556 0.27084 0.91753 0.0
O82 O 0.33645 0.35646 0.98467 0.0
O83 O 0.35931 0.39902 0.95789 0.0
O84 O 0.02129 0.4236 0.38281 0.0
Cd85 Cd -0.00209 0.38399 0.40783 0.0
Cd86 Cd 0.02434 0.34326 0.37398 0.0
O87 O 0.03384 0.39197 0.35734 0.0
O88 O 0.98044 0.41084 0.42853 0.0
O89 O 0.02304 0.39434 0.43792 0.0
C90 C 0.00314 0.4102 0.44321 0.0
C91 C 0.05962 0.31628 0.35923 0.0
C92 C 0.03235 0.42134 0.36352 0.0
C93 C 0.94164 0.30418 0.39103 0.0
O94 O 0.96889 0.30278 0.38141 0.0
O95 O 0.94719 0.33413 0.40123 0.0
O96 O 0.03161 0.31561 0.34879 0.0
O97 O 0.068 0.33236 0.3784 0.0
O98 O 0.54398 0.58746 0.37094 0.0
Cd99 Cd 0.5843 0.60152 0.39536 0.0
Cd100 Cd 0.62837 0.66461 0.36123 0.0
O101 O 0.58084 0.62488 0.34394 0.0
O102 O 0.55563 0.56018 0.41761 0.0
O103 O 0.57836 0.62155 0.42483 0.0
C104 C 0.56001 0.5863 0.43145 0.0
C105 C 0.65594 0.72682 0.34637 0.0
C106 C 0.54892 0.59792 0.35086 0.0
C107 C 0.66329 0.6196 0.38055 0.0
O108 O 0.66782 0.64997 0.3714 0.0
O109 O 0.63138 0.59532 0.38903 0.0
O110 O 0.65797 0.69968 0.33648 0.0
O111 O 0.63823 0.7189 0.36505 0.0
O112 O 0.42653 0.97831 0.36694 0.0
Cd113 Cd 0.41172 -0.00027 0.39366 0.0
Cd114 Cd 0.34377 0.97289 0.36819 0.0
O115 O 0.37723 0.96512 0.3454 0.0
O116 O 0.45321 0.01192 0.41563 0.0
O117 O 0.39238 0.96937 0.42183 0.0
C118 C 0.42746 0.98717 0.42867 0.0
C119 C 0.27882 0.92602 0.36851 0.0
C120 C 0.40952 0.96756 0.34846 0.0
C121 C 0.38661 0.05628 0.38121 0.0
O122 O 0.35615 0.02821 0.37351 0.0
O123 O 0.41293 0.05129 0.38922 0.0
O124 O 0.29371 0.95008 0.35251 0.0
O125 O 0.3009 0.92856 0.38464 0.0
O126 O 0.39884 0.27881 0.28984 0.0
Cd127 Cd 0.38765 0.30172 0.26244 0.0
Cd128 Cd 0.32199 0.28831 0.29035 0.0
O129 O 0.34293 0.25737 0.30641 0.0
O130 O 0.41729 0.29506 0.23832 0.0
O131 O 0.3539 0.26606 0.23858 0.0
C132 C 0.38501 0.27135 0.22922 0.0
C133 C 0.25983 0.27266 0.301 0.0
C134 C 0.37546 0.25965 0.30511 0.0
C135 C 0.38465 0.37041 0.27585 0.0
O136 O 0.35518 0.34699 0.28674 0.0
O137 O 0.40234 0.35848 0.26384 0.0
O138 O 0.28842 0.28877 0.31426 0.0
O139 O 0.26597 0.26379 0.28157 0.0
O140 O 0.72881 0.12164 0.28523 0.0
Cd141 Cd 0.70672 0.09324 0.25584 0.0
Cd142 Cd 0.70901 0.03253 0.2822 0.0
O143 O 0.74405 0.08098 0.30021 0.0
O144 O 0.7176 0.13544 0.23469 0.0
O145 O 0.74272 0.09785 0.23138 0.0
C146 C 0.74017 0.1268 0.22431 0.0
C147 C 0.71544 0.97915 0.29106 0.0
C148 C 0.74498 0.11297 0.30034 0.0
C149 C 0.63232 0.02612 0.26728 0.0
O150 O 0.65198 0.01589 0.27882 0.0
O151 O 0.64862 0.05547 0.25489 0.0
O152 O 0.70191 0.99358 0.30479 0.0
O153 O 0.7267 0.99572 0.27212 0.0
O154 O 0.88211 0.60511 0.29998 0.0
Cd155 Cd 0.9228 0.6193 0.27567 0.0
Cd156 Cd 0.97073 0.66965 0.31186 0.0
O157 O 0.91618 0.65431 0.32217 0.0
O158 O 0.89301 0.6009 0.24768 0.0
O159 O 0.93334 0.66223 0.25475 0.0
C160 C 0.90855 0.63633 0.24165 0.0
C161 C 0.02048 0.72405 0.32922 0.0
C162 C 0.88452 0.62518 0.31672 0.0
C163 C 0.98094 0.60315 0.29387 0.0
O164 O 0.98635 0.62844 0.30818 0.0
O165 O 0.95815 0.59632 0.27783 0.0
O166 O -0.00099 0.69284 0.3398 0.0
O167 O 0.0129 0.72526 0.30865 0.0
O168 O 0.60015 0.72389 0.72209 0.0
Cd169 Cd 0.60846 0.6985 0.74949 0.0
Cd170 Cd 0.67171 0.70807 0.71999 0.0
O171 O 0.65633 0.74492 0.70585 0.0
O172 O 0.57447 0.70225 0.77202 0.0
O173 O 0.63745 0.73163 0.77552 0.0
C174 C 0.60472 0.72493 0.78314 0.0
C175 C 0.7319 0.71764 0.70935 0.0
C176 C 0.62437 0.74382 0.70731 0.0
C177 C 0.60424 0.62778 0.73279 0.0
O178 O 0.63275 0.65012 0.7209 0.0
O179 O 0.5913 0.64111 0.74727 0.0
O180 O 0.70392 0.706 0.69571 0.0
O181 O 0.72649 0.72565 0.72917 0.0
O182 O 0.25366 0.88788 0.70448 0.0
Cd183 Cd 0.2771 0.92922 0.72875 0.0
Cd184 Cd 0.2752 0.97507 0.69191 0.0
O185 O 0.23701 0.91997 0.68174 0.0
O186 O 0.26309 0.90047 0.75723 0.0
O187 O 0.24209 0.93967 0.74732 0.0
C188 C 0.2421 0.91556 0.76143 0.0
C189 C 0.27076 0.02387 0.67318 0.0
C190 C 0.23596 0.88909 0.68744 0.0
C191 C 0.35175 0.9876 0.71153 0.0
O192 O 0.33208 0.99163 0.69649 0.0
O193 O 0.33542 0.96566 0.72789 0.0
O194 O 0.28093 0.00212 0.66339 0.0
O195 O 0.2614 0.01711 0.69374 0.0
O196 O 0.1068 0.39313 0.71333 0.0
Cd197 Cd 0.07167 0.37746 0.74061 0.0
Cd198 Cd 0.01972 0.31964 0.70557 0.0
O199 O 0.07472 0.33935 0.69424 0.0
O200 O 0.10789 0.40714 0.76485 0.0
O201 O 0.07672 0.34375 0.76343 0.0
C202 C 0.10162 0.37501 0.77313 0.0
C203 C 0.97252 0.26694 0.68562 0.0
C204 C 0.10471 0.37164 0.69743 0.0
C205 C 0.00399 0.38163 0.72644 0.0
O206 O -0.00039 0.35666 0.71215 0.0
O207 O 0.02978 0.39231 0.74114 0.0
O208 O 0.99292 0.30013 0.6768 0.0
O209 O 0.97965 0.2628 0.70588 0.0
O210 O 0.95576 0.54215 0.63332 0.0
Cd211 Cd 0.98309 0.57629 0.60645 0.0
Cd212 Cd 0.95191 0.62429 0.63673 0.0
O213 O 0.94189 0.57742 0.65547 0.0
O214 O 0.00953 0.54871 0.59544 0.0
O215 O 0.9678 0.5551 0.57522 0.0
C216 C 0.99119 0.54218 0.57717 0.0
C217 C 0.91947 0.65469 0.65104 0.0
C218 C 0.94323 0.54714 0.65153 0.0
C219 C 0.03474 0.66104 0.61918 0.0
O220 O 0.0069 0.66315 0.62742 0.0
O221 O 0.03063 0.62972 0.61167 0.0
O222 O 0.94797 0.6556 0.66102 0.0
O223 O 0.90897 0.63647 0.63253 0.0
O224 O 0.44335 0.43433 0.62948 0.0
Cd225 Cd 0.40709 0.42753 0.60374 0.0
Cd226 Cd 0.36458 0.35009 0.62753 0.0
O227 O 0.40919 0.38131 0.64899 0.0
O228 O 0.43512 0.47999 0.59045 0.0
O229 O 0.42332 0.42816 0.57191 0.0
C230 C 0.43815 0.46498 0.5724 0.0
C231 C 0.34108 0.28369 0.62832 0.0
C232 C 0.43882 0.41409 0.64653 0.0
C233 C 0.32474 0.39613 0.61925 0.0
O234 O 0.32307 0.36501 0.62505 0.0
O235 O 0.35534 0.42387 0.61138 0.0
O236 O 0.33629 0.30135 0.64457 0.0
O237 O 0.35937 0.30375 0.61127 0.0
O238 O 0.56793 0.01766 0.6263 0.0
Cd239 Cd 0.58114 0.99008 0.60222 0.0
Cd240 Cd 0.65296 0.02779 0.63184 0.0
O241 O 0.61653 0.03943 0.64974 0.0
O242 O 0.53028 0.96218 0.58717 0.0
O243 O 0.58236 0.00493 0.56995 0.0
C244 C 0.54601 0.98087 0.5694 0.0
C245 C 0.71831 0.07332 0.63469 0.0
C246 C 0.58384 0.03416 0.6443 0.0
C247 C 0.61264 0.94199 0.6227 0.0
O248 O 0.64078 0.97193 0.63082 0.0
O249 O 0.58682 0.94375 0.61159 0.0
O250 O 0.69946 0.05136 0.65092 0.0
O251 O 0.69998 0.06968 0.61656 0.0
H252 H 0.40267 0.98204 0.01136 0.0
H253 H 0.44661 0.03689 0.07475 0.0
H254 H 0.49608 0.01764 0.07323 0.0
H255 H 0.4171 0.90135 0.01949 0.0
H256 H 0.43116 0.90123 0.99127 0.0
H257 H 0.39853 0.91811 0.99779 0.0
H258 H 0.44358 0.98294 0.97851 0.0
H259 H 0.47619 0.96618 0.9718 0.0
H260 H 0.49305 0.01033 0.98692 0.0
H261 H 0.54117 0.99336 0.06428 0.0
H262 H 0.58108 0.96934 0.04784 0.0
H263 H 0.50743 0.93096 0.99009 0.0
C264 C 0.42255 0.9899 0.02502 0.0
C265 C 0.42077 0.01084 0.04324 0.0
C266 C 0.44752 0.02085 0.06064 0.0
C267 C 0.47555 0.0099 0.05996 0.0
C268 C 0.47631 0.98908 0.04175 0.0
C269 C 0.45064 0.97939 0.02455 0.0
C270 C 0.45837 0.95823 0.00647 0.0
C271 C 0.42426 0.9173 0.0036 0.0
C272 C 0.4684 0.98078 0.98464 0.0
C273 C 0.49271 0.95775 0.01607 0.0
C274 C 0.50241 0.97541 0.03651 0.0
C275 C 0.53376 0.97936 0.04834 0.0
C276 C 0.5562 0.96557 0.03885 0.0
C277 C 0.5473 0.9482 0.01769 0.0
C278 C 0.51477 0.94378 0.00636 0.0
H279 H 0.00196 0.4232 0.98456 0.0
H280 H 0.96023 0.42159 0.05085 0.0
H281 H 0.97662 0.48919 0.04647 0.0
H282 H 0.08165 0.52077 0.98593 0.0
H283 H 0.07576 0.53038 0.95757 0.0
H284 H 0.06181 0.48221 0.96609 0.0
H285 H 0.99338 0.45788 0.95087 0.0
H286 H 0.00716 0.50588 0.9422 0.0
H287 H 0.96652 0.47999 0.9602 0.0
H288 H -0.00414 0.55585 0.03464 0.0
H289 H 0.01446 0.61691 0.01581 0.0
H290 H 0.04411 0.57562 0.95706 0.0
C291 C -0.00366 0.43705 0.99821 0.0
C292 C 0.97983 0.41714 0.01809 0.0
C293 C 0.97282 0.43627 0.03549 0.0
C294 C 0.98216 0.47467 0.03318 0.0
C295 C -0.00148 0.49346 0.01339 0.0
C296 C 0.00546 0.47531 0.99618 0.0
C297 C 0.02227 0.50169 0.97642 0.0
C298 C 0.06278 0.5092 0.9712 0.0
C299 C -0.00426 0.48538 0.95624 0.0
C300 C 0.02335 0.53748 0.98513 0.0
C301 C 0.00971 0.53209 0.00654 0.0
C302 C 0.00675 0.56047 0.01793 0.0
C303 C 0.01739 0.59506 0.00705 0.0
C304 C 0.03083 0.60106 0.98497 0.0
C305 C 0.03436 0.57203 0.97401 0.0
H306 H 0.43206 0.45012 0.96456 0.0
H307 H 0.37224 0.37911 0.02117 0.0
H308 H 0.43166 0.41204 0.04308 0.0
H309 H 0.51852 0.44962 0.97272 0.0
H310 H 0.54935 0.49866 0.96419 0.0
H311 H 0.50148 0.47163 0.95329 0.0
H312 H 0.48654 0.52382 0.96687 0.0
H313 H 0.53456 0.55127 0.97754 0.0
H314 H 0.49415 0.53806 0.99547 0.0
H315 H 0.49854 0.45061 0.05839 0.0
H316 H 0.56736 0.49437 0.06626 0.0
H317 H 0.58325 0.53898 0.99948 0.0
C318 C 0.43129 0.44205 0.98168 0.0
C319 C 0.39748 0.4122 0.99118 0.0
C320 C 0.39781 0.40199 0.01355 0.0
C321 C 0.43143 0.42047 0.02614 0.0
C322 C 0.46454 0.4491 0.01614 0.0
C323 C 0.46469 0.46006 0.99447 0.0
C324 C 0.50441 0.49079 0.98747 0.0
C325 C 0.5193 0.47682 0.96828 0.0
C326 C 0.50493 0.5282 0.98149 0.0
C327 C 0.5265 0.49516 0.0085 0.0
C328 C 0.50305 0.47094 0.02487 0.0
C329 C 0.5172 0.46984 0.04572 0.0
C330 C 0.55631 0.49463 0.05002 0.0
C331 C 0.58069 0.52 0.03351 0.0
C332 C 0.56544 0.51987 0.01247 0.0
H333 H 0.12636 0.32105 0.37404 0.0
H334 H 0.04322 0.27571 0.32081 0.0
H335 H 0.08226 0.25311 0.30178 0.0
H336 H 0.2075 0.35726 0.34083 0.0
H337 H 0.23504 0.34546 0.35937 0.0
H338 H 0.19834 0.35391 0.37011 0.0
H339 H 0.16562 0.28708 0.38897 0.0
H340 H 0.20232 0.27843 0.37826 0.0
H341 H 0.15258 0.24484 0.37265 0.0
H342 H 0.13344 0.24128 0.28665 0.0
H343 H 0.19325 0.24176 0.27675 0.0
H344 H 0.24223 0.29395 0.33998 0.0
C345 C 0.116 0.30569 0.35861 0.0
C346 C 0.08171 0.30008 0.34896 0.0
C347 C 0.06941 0.28034 0.32856 0.0
C348 C 0.0913 0.26722 0.31764 0.0
C349 C 0.12533 0.27382 0.32737 0.0
C350 C 0.13754 0.29241 0.34746 0.0
C351 C 0.1765 0.29829 0.35358 0.0
C352 C 0.20608 0.34127 0.35611 0.0
C353 C 0.17409 0.27581 0.37461 0.0
C354 C 0.18475 0.28123 0.33351 0.0
C355 C 0.15474 0.26683 0.31867 0.0
C356 C 0.15693 0.25191 0.29828 0.0
C357 C 0.19097 0.2523 0.29279 0.0
C358 C 0.2223 0.26767 0.30761 0.0
C359 C 0.21866 0.28157 0.32837 0.0
H360 H 0.65152 0.78924 0.36086 0.0
H361 H 0.69757 0.75092 0.30829 0.0
H362 H 0.72222 0.81331 0.28959 0.0
H363 H 0.61938 0.83817 0.3269 0.0
H364 H 0.63153 0.87701 0.34594 0.0
H365 H 0.62037 0.83057 0.35616 0.0
H366 H 0.68569 0.86126 0.37649 0.0
H367 H 0.69704 0.90787 0.36633 0.0
H368 H 0.72929 0.88994 0.36118 0.0
H369 H 0.73768 0.87817 0.2751 0.0
H370 H 0.74273 0.94065 0.2663 0.0
H371 H 0.68736 0.93648 0.3285 0.0
C372 C 0.66727 0.79418 0.34559 0.0
C373 C 0.67265 0.76522 0.33608 0.0
C374 C 0.69309 0.77268 0.31593 0.0
C375 C 0.70731 0.80808 0.30518 0.0
C376 C 0.70107 0.83585 0.31482 0.0
C377 C 0.68169 0.82938 0.33462 0.0
C378 C 0.67719 0.86328 0.34092 0.0
C379 C 0.63459 0.85154 0.34256 0.0
C380 C 0.69859 0.88167 0.36251 0.0
C381 C 0.69634 0.8894 0.32137 0.0
C382 C 0.71019 0.87325 0.30655 0.0
C383 C 0.72736 0.89135 0.28671 0.0
C384 C 0.73009 0.92677 0.28184 0.0
C385 C 0.71566 0.94354 0.29674 0.0
C386 C 0.69905 0.92467 0.31684 0.0
H387 H 0.07847 0.7898 0.31039 0.0
H388 H 0.03968 0.72916 0.37274 0.0
H389 H 0.09998 0.77696 0.39035 0.0
H390 H 0.17309 0.81139 0.31469 0.0
H391 H 0.19405 0.8585 0.30249 0.0
H392 H 0.14604 0.82234 0.29525 0.0
H393 H 0.12076 0.86755 0.30702 0.0
H394 H 0.16884 0.90408 0.31411 0.0
H395 H 0.1311 0.88807 0.33433 0.0
H396 H 0.16723 0.8268 0.4002 0.0
H397 H 0.23541 0.87773 0.40193 0.0
H398 H 0.22987 0.90659 0.33351 0.0
C399 C 0.08227 0.78713 0.32786 0.0
C400 C 0.05431 0.75579 0.34018 0.0
C401 C 0.06065 0.75297 0.36295 0.0
C402 C 0.09482 0.78 0.37314 0.0
C403 C 0.1223 0.8099 0.3604 0.0
C404 C 0.11626 0.81394 0.33833 0.0
C405 C 0.15131 0.84747 0.32808 0.0
C406 C 0.16704 0.8341 0.30901 0.0
C407 C 0.14247 0.87864 0.32044 0.0
C408 C 0.17826 0.86088 0.34767 0.0
C409 C 0.16096 0.83898 0.36619 0.0
C410 C 0.18094 0.84457 0.38591 0.0
C411 C 0.21966 0.87341 0.38672 0.0
C412 C 0.23784 0.89624 0.36793 0.0
C413 C 0.21665 0.88993 0.34825 0.0
H414 H 0.85311 0.65183 0.637 0.0
H415 H 0.93983 0.69842 0.68833 0.0
H416 H 0.90417 0.725 0.70722 0.0
H417 H 0.83204 0.73145 0.63676 0.0
H418 H 0.78153 0.69949 0.63238 0.0
H419 H 0.81583 0.68738 0.62165 0.0
H420 H 0.78132 0.62238 0.64246 0.0
H421 H 0.74702 0.6343 0.65324 0.0
H422 H 0.77415 0.62207 0.67184 0.0
H423 H 0.85607 0.74098 0.72258 0.0
H424 H 0.79912 0.74575 0.73272 0.0
H425 H 0.74472 0.69018 0.67111 0.0
C426 C 0.86493 0.66822 0.65199 0.0
C427 C 0.89926 0.67305 0.66115 0.0
C428 C 0.91355 0.6943 0.68096 0.0
C429 C 0.89358 0.70965 0.69182 0.0
C430 C 0.85947 0.7038 0.68259 0.0
C431 C 0.84535 0.68382 0.66305 0.0
C432 C 0.80689 0.67966 0.65736 0.0
C433 C 0.80923 0.70077 0.63576 0.0
C434 C 0.77551 0.63708 0.65617 0.0
C435 C 0.80121 0.69948 0.67704 0.0
C436 C 0.83195 0.71348 0.69134 0.0
C437 C 0.83205 0.73069 0.71135 0.0
C438 C 0.79961 0.73324 0.717 0.0
C439 C 0.76766 0.71866 0.70265 0.0
C440 C 0.76892 0.70216 0.68229 0.0
H441 H 0.31113 0.23766 0.66448 0.0
H442 H 0.33883 0.23558 0.59546 0.0
H443 H 0.31649 0.1662 0.59862 0.0
H444 H 0.3445 0.17766 0.68344 0.0
H445 H 0.30777 0.15399 0.70407 0.0
H446 H 0.32192 0.20216 0.69568 0.0
H447 H 0.25143 0.18053 0.68576 0.0
H448 H 0.23706 0.13215 0.69405 0.0
H449 H 0.22585 0.14135 0.66674 0.0
H450 H 0.29562 0.09862 0.61002 0.0
H451 H 0.28126 0.03875 0.62906 0.0
H452 H 0.26783 0.08524 0.69087 0.0
C453 C 0.31197 0.22254 0.64991 0.0
C454 C 0.32652 0.24195 0.62966 0.0
C455 C 0.3277 0.22124 0.6111 0.0
C456 C 0.3149 0.18183 0.61272 0.0
C457 C 0.30099 0.16366 0.633 0.0
C458 C 0.29954 0.18338 0.65127 0.0
C459 C 0.28612 0.15796 0.67156 0.0
C460 C 0.31692 0.17389 0.68975 0.0
C461 C 0.24783 0.15269 0.68002 0.0
C462 C 0.28112 0.121 0.66199 0.0
C463 C 0.28931 0.12476 0.63965 0.0
C464 C 0.28877 0.09522 0.62744 0.0
C465 C 0.28058 0.06132 0.63843 0.0
C466 C 0.27327 0.05727 0.66145 0.0
C467 C 0.27271 0.08724 0.67322 0.0
H468 H 0.76167 0.08994 0.67209 0.0
H469 H 0.7679 0.1215 0.60307 0.0
H470 H 0.83626 0.17037 0.60792 0.0
H471 H 0.81827 0.18349 0.69246 0.0
H472 H 0.84117 0.17052 0.7136 0.0
H473 H 0.794 0.13586 0.70412 0.0
H474 H 0.81799 0.08862 0.69471 0.0
H475 H 0.86537 0.12328 0.70408 0.0
H476 H 0.85853 0.10387 0.67658 0.0
H477 H 0.90221 0.21854 0.62093 0.0
H478 H 0.96026 0.26431 0.6413 0.0
H479 H 0.91103 0.20116 0.70192 0.0
C480 C 0.77748 0.10676 0.65789 0.0
C481 C 0.7595 0.10183 0.63715 0.0
C482 C 0.78112 0.12474 0.61908 0.0
C483 C 0.81997 0.15243 0.62166 0.0
C484 C 0.83671 0.15667 0.64239 0.0
C485 C 0.81614 0.13449 0.66019 0.0
C486 C 0.84013 0.14632 0.68103 0.0
C487 C 0.82233 0.15986 0.69884 0.0
C488 C 0.84584 0.11357 0.6896 0.0
C489 C 0.87725 0.17928 0.6723 0.0
C490 C 0.87479 0.18448 0.64992 0.0
C491 C 0.90462 0.21447 0.63839 0.0
C492 C 0.93747 0.24033 0.65013 0.0
C493 C 0.94024 0.23614 0.67317 0.0
C494 C 0.91002 0.20469 0.68426 0.0
H495 H 0.29144 0.13217 0.12547 0.0
H496 H 0.39989 0.13533 0.11704 0.0
H497 H 0.42624 0.17873 0.14915 0.0
H498 H 0.32922 0.22979 0.14153 0.0
H499 H 0.29262 0.21961 0.1618 0.0
H500 H 0.28203 0.18854 0.13828 0.0
H501 H 0.26026 0.13002 0.16423 0.0
H502 H 0.27047 0.16086 0.18783 0.0
H503 H 0.29237 0.13145 0.18539 0.0
H504 H 0.44172 0.22425 0.18086 0.0
H505 H 0.44365 0.26386 0.2124 0.0
H506 H 0.32408 0.22873 0.20143 0.0
C507 C 0.32068 0.14186 0.13044 0.0
C508 C 0.3437 0.1305 0.11873 0.0
C509 C 0.38172 0.14357 0.12583 0.0
C510 C 0.39698 0.16835 0.14397 0.0
C511 C 0.37368 0.17939 0.15498 0.0
C512 C 0.33618 0.16616 0.14869 0.0
C513 C 0.31701 0.18179 0.16362 0.0
C514 C 0.30449 0.20639 0.15052 0.0
C515 C 0.28302 0.14908 0.176 0.0
C516 C 0.34972 0.20618 0.17918 0.0
C517 C 0.38223 0.20464 0.17375 0.0
C518 C 0.41638 0.22546 0.18537 0.0
C519 C 0.41721 0.24803 0.2032 0.0
C520 C 0.38399 0.24933 0.20942 0.0
C521 C 0.34988 0.22819 0.19714 0.0
H522 H 0.87948 0.18277 0.12002 0.0
H523 H 0.8757 0.28848 0.11551 0.0
H524 H 0.83446 0.26964 0.14867 0.0
H525 H 0.78342 0.12246 0.13621 0.0
H526 H 0.79349 0.09398 0.15506 0.0
H527 H 0.82442 0.11662 0.13175 0.0
H528 H 0.88302 0.15082 0.15782 0.0
H529 H 0.85233 0.12797 0.18121 0.0
H530 H 0.88185 0.17952 0.18031 0.0
H531 H 0.79004 0.23711 0.18065 0.0
H532 H 0.74959 0.1958 0.21097 0.0
H533 H 0.78368 0.1119 0.19524 0.0
C534 C 0.87039 0.20222 0.12614 0.0
C535 C 0.88082 0.23714 0.11516 0.0
C536 C 0.86823 0.2617 0.1237 0.0
C537 C 0.8447 0.25117 0.14248 0.0
C538 C 0.83433 0.21618 0.15262 0.0
C539 C 0.84716 0.1923 0.14492 0.0
C540 C 0.8315 0.15603 0.15867 0.0
C541 C 0.80674 0.12016 0.14458 0.0
C542 C 0.86412 0.15345 0.17019 0.0
C543 C 0.80735 0.16295 0.17514 0.0
C544 C 0.80932 0.19777 0.17131 0.0
C545 C 0.78856 0.20997 0.18393 0.0
C546 C 0.76551 0.18617 0.20106 0.0
C547 C 0.76349 0.15062 0.20553 0.0
C548 C 0.78474 0.13896 0.19232 0.0
H549 H 0.84969 0.58904 0.21411 0.0
H550 H 0.94056 0.70732 0.2222 0.0
H551 H 0.91917 0.72502 0.1882 0.0
H552 H 0.85314 0.58599 0.15447 0.0
H553 H 0.80191 0.5565 0.15161 0.0
H554 H 0.82527 0.55298 0.17611 0.0
H555 H 0.78083 0.56729 0.20023 0.0
H556 H 0.75745 0.57103 0.17581 0.0
H557 H 0.77852 0.61024 0.19519 0.0
H558 H 0.88742 0.72992 0.15366 0.0
H559 H 0.84754 0.72208 0.12108 0.0
H560 H 0.77621 0.60071 0.13589 0.0
C561 C 0.86536 0.61862 0.20865 0.0
C562 C 0.89697 0.6468 0.22077 0.0
C563 C 0.91636 0.68524 0.21316 0.0
C564 C 0.90441 0.69556 0.19387 0.0
C565 C 0.87294 0.66713 0.18244 0.0
C566 C 0.85366 0.62945 0.18954 0.0
C567 C 0.82013 0.60461 0.17454 0.0
C568 C 0.82545 0.57317 0.16353 0.0
C569 C 0.78198 0.58728 0.1872 0.0
C570 C 0.82349 0.63423 0.15788 0.0
C571 C 0.85424 0.67006 0.16272 0.0
C572 C 0.86329 0.70201 0.14971 0.0
C573 C 0.84041 0.69721 0.13122 0.0
C574 C 0.80867 0.66078 0.12592 0.0
C575 C 0.80016 0.62894 0.13953 0.0
H576 H 0.68084 0.86389 0.88793 0.0
H577 H 0.56363 0.83714 0.89909 0.0
H578 H 0.54284 0.79474 0.86637 0.0
H579 H 0.67765 0.86562 0.82822 0.0
H580 H 0.7074 0.84428 0.82487 0.0
H581 H 0.71293 0.87305 0.84885 0.0
H582 H 0.70207 0.81645 0.87409 0.0
H583 H 0.69619 0.78739 0.8502 0.0
H584 H 0.65913 0.77046 0.87089 0.0
H585 H 0.53464 0.7536 0.83323 0.0
H586 H 0.53986 0.71949 0.80083 0.0
H587 H 0.66273 0.77373 0.81106 0.0
C588 C 0.65081 0.84936 0.88343 0.0
C589 C 0.62383 0.85385 0.89608 0.0
C590 C 0.58483 0.83425 0.88962 0.0
C591 C 0.57274 0.81002 0.8711 0.0
C592 C 0.60004 0.80585 0.8592 0.0
C593 C 0.63831 0.82521 0.865 0.0
C594 C 0.66187 0.81573 0.84947 0.0
C595 C 0.69172 0.85182 0.83712 0.0
C596 C 0.68093 0.79635 0.86191 0.0
C597 C 0.63085 0.78784 0.83405 0.0
C598 C 0.59538 0.78244 0.84001 0.0
C599 C 0.56228 0.75773 0.82837 0.0
C600 C 0.56556 0.73838 0.81001 0.0
C601 C 0.60171 0.74391 0.80337 0.0
C602 C 0.63469 0.76886 0.8157 0.0
H603 H 0.13597 0.78652 0.86705 0.0
H604 H 0.08107 0.85496 0.87537 0.0
H605 H 0.11559 0.89359 0.8428 0.0
H606 H 0.22787 0.8643 0.85051 0.0
H607 H 0.23662 0.83622 0.83067 0.0
H608 H 0.20701 0.81327 0.85442 0.0
H609 H 0.15165 0.76639 0.82889 0.0
H610 H 0.18117 0.78907 0.80507 0.0
H611 H 0.13487 0.78538 0.80743 0.0
H612 H 0.15595 0.92485 0.8092 0.0
H613 H 0.19919 0.94617 0.77688 0.0
H614 H 0.22885 0.85841 0.79087 0.0
C615 C 0.13106 0.80949 0.86195 0.0
C616 C 0.10572 0.81763 0.87376 0.0
C617 C 0.10031 0.84814 0.86661 0.0
C618 C 0.11981 0.87029 0.84812 0.0
C619 C 0.14478 0.86174 0.83695 0.0
C620 C 0.15048 0.83208 0.84357 0.0
C621 C 0.17919 0.82915 0.82875 0.0
C622 C 0.21478 0.83616 0.84188 0.0
C623 C 0.1606 0.79019 0.81683 0.0
C624 C 0.18865 0.86172 0.81279 0.0
C625 C 0.16846 0.88012 0.81778 0.0
C626 C 0.17201 0.91073 0.80516 0.0
C627 C 0.19666 0.92266 0.78685 0.0
C628 C 0.21756 0.90413 0.78139 0.0
C629 C 0.21354 0.87341 0.79468 0.0
H630 H 0.17924 0.28227 0.86122 0.0
H631 H 0.26198 0.39822 0.88171 0.0
H632 H 0.23531 0.42401 0.85432 0.0
H633 H 0.18102 0.30323 0.80295 0.0
H634 H 0.13049 0.27039 0.79928 0.0
H635 H 0.15662 0.26128 0.82024 0.0
H636 H 0.10861 0.25808 0.84976 0.0
H637 H 0.08255 0.26757 0.82893 0.0
H638 H 0.10061 0.29808 0.85288 0.0
H639 H 0.19845 0.43705 0.82551 0.0
H640 H 0.15686 0.43684 0.79563 0.0
H641 H 0.09832 0.31228 0.79363 0.0
C642 C 0.19198 0.31311 0.85986 0.0
C643 C 0.22276 0.33825 0.87362 0.0
C644 C 0.23851 0.37841 0.87131 0.0
C645 C 0.22345 0.39332 0.85586 0.0
C646 C 0.19274 0.36771 0.8428 0.0
C647 C 0.17739 0.32847 0.8445 0.0
C648 C 0.14453 0.30719 0.82844 0.0
C649 C 0.15373 0.28417 0.81174 0.0
C650 C 0.10685 0.2812 0.84075 0.0
C651 C 0.14372 0.3406 0.81747 0.0
C652 C 0.17167 0.37523 0.82607 0.0
C653 C 0.17654 0.41012 0.81861 0.0
C654 C 0.15265 0.40966 0.80166 0.0
C655 C 0.12425 0.37454 0.79227 0.0
C656 C 0.11962 0.33959 0.8005 0.0
H657 H 0.96584 0.44718 0.45786 0.0
H658 H 0.04729 0.41252 0.47832 0.0
H659 H 0.05247 0.44207 0.51487 0.0
H660 H 0.01125 0.53847 0.48511 0.0
H661 H 0.96683 0.53596 0.49272 0.0
H662 H 0.96909 0.51159 0.46834 0.0
H663 H 0.91316 0.44748 0.48312 0.0
H664 H 0.91069 0.47165 0.50755 0.0
H665 H 0.91704 0.43054 0.51001 0.0
H666 H 0.04912 0.47577 0.54894 0.0
H667 H 0.03787 0.51129 0.57828 0.0
H668 H 0.95851 0.52428 0.53565 0.0
C669 C 0.98473 0.44568 0.47003 0.0
C670 C 0.00617 0.42747 0.46523 0.0
C671 C 0.03059 0.42627 0.48161 0.0
C672 C 0.03371 0.44297 0.50241 0.0
C673 C 0.01221 0.46074 0.50654 0.0
C674 C 0.9882 0.4622 0.49082 0.0
C675 C 0.96847 0.48331 0.49938 0.0
C676 C 0.97959 0.51948 0.48557 0.0
C677 C 0.92475 0.45665 0.50006 0.0
C678 C 0.98519 0.49359 0.52241 0.0
C679 C 0.01032 0.48024 0.52619 0.0
C680 C 0.02949 0.48632 0.54618 0.0
C681 C 0.02288 0.50658 0.56275 0.0
C682 C -0.00272 0.52063 0.5593 0.0
C683 C 0.97819 0.51391 0.53882 0.0
H684 H 0.52074 0.51421 0.44941 0.0
H685 H 0.56367 0.63435 0.4647 0.0
H686 H 0.5371 0.61619 0.50241 0.0
H687 H 0.43249 0.47649 0.47956 0.0
H688 H 0.43323 0.43428 0.48879 0.0
H689 H 0.45576 0.45678 0.4631 0.0
H690 H 0.51969 0.46323 0.47664 0.0
H691 H 0.49737 0.44075 0.50237 0.0
H692 H 0.54013 0.48734 0.50236 0.0
H693 H 0.50576 0.58487 0.5383 0.0
H694 H 0.47213 0.543 0.56997 0.0
H695 H 0.44961 0.44301 0.53128 0.0
C696 C 0.5246 0.53677 0.46066 0.0
C697 C 0.5443 0.57577 0.45409 0.0
C698 C 0.5487 0.60433 0.46935 0.0
C699 C 0.53371 0.59428 0.4908 0.0
C700 C 0.51444 0.55556 0.4967 0.0
C701 C 0.50986 0.52726 0.48208 0.0
C702 C 0.48798 0.48777 0.49253 0.0
C703 C 0.45012 0.46234 0.48026 0.0
C704 C 0.51278 0.46866 0.49354 0.0
C705 C 0.48089 0.49824 0.51535 0.0
C706 C 0.4964 0.5375 0.51738 0.0
C707 C 0.49352 0.55411 0.53689 0.0
C708 C 0.47432 0.53001 0.5548 0.0
C709 C 0.45819 0.48966 0.55314 0.0
C710 C 0.4616 0.47369 0.53309 0.0
H711 H 0.56859 0.01884 0.52945 0.0
H712 H 0.46979 0.92991 0.56434 0.0
H713 H 0.42913 0.92112 0.53205 0.0
H714 H 0.51935 0.06073 0.50266 0.0
H715 H 0.54574 0.07057 0.47719 0.0
H716 H 0.56768 0.06914 0.50279 0.0
H717 H 0.58134 0.01761 0.48657 0.0
H718 H 0.55952 0.01897 0.46089 0.0
H719 H 0.54239 0.97407 0.47525 0.0
H720 H 0.39847 0.92301 0.49646 0.0
H721 H 0.3804 0.93509 0.45961 0.0
H722 H 0.49879 0.02251 0.44769 0.0
C723 C 0.53847 0.99734 0.53022 0.0
C724 C 0.52245 0.97505 0.54945 0.0
C725 C 0.48281 0.94735 0.54983 0.0
C726 C 0.4594 0.9421 0.53155 0.0
C727 C 0.47596 0.9647 0.51295 0.0
C728 C 0.51458 0.9917 0.51208 0.0
C729 C 0.52494 0.01262 0.49015 0.0
C730 C 0.54033 0.05582 0.4934 0.0
C731 C 0.55375 0.00537 0.47747 0.0
C732 C 0.48608 0.99333 0.47895 0.0
C733 C 0.45824 0.96574 0.49237 0.0
C734 C 0.42005 0.94445 0.48575 0.0
C735 C 0.41004 0.95154 0.4648 0.0
C736 C 0.43812 0.97968 0.45074 0.0
C737 C 0.47662 0.00072 0.458 0.0
H738 H 0.19845 0.97408 0.03508 0.0
H739 H 0.24365 0.92044 0.07806 0.0
H740 H 0.19565 0.85665 0.06389 0.0
H741 H 0.09382 0.88991 0.03234 0.0
H742 H 0.09167 0.8993 0.00344 0.0
H743 H 0.11994 0.93843 0.02204 0.0
H744 H 0.17901 0.95904 0.99691 0.0
H745 H 0.15155 0.91949 0.97864 0.0
H746 H 0.19475 0.92518 0.99102 0.0
H747 H 0.15412 0.80186 0.03968 0.0
H748 H 0.11989 0.75929 0.00836 0.0
H749 H 0.10482 0.84933 0.97903 0.0
C750 C 0.19634 0.9486 0.0425 0.0
C751 C 0.2236 0.9517 0.05813 0.0
C752 C 0.22205 0.91822 0.06656 0.0
C753 C 0.19501 0.88197 0.05852 0.0
C754 C 0.17011 0.87992 0.04192 0.0
C755 C 0.17016 0.91233 0.03417 0.0
C756 C 0.14568 0.90341 0.01363 0.0
C757 C 0.11069 0.90802 0.01814 0.0
C758 C 0.16917 0.92825 0.99391 0.0
C759 C 0.13388 0.86168 0.01029 0.0
C760 C 0.14737 0.8484 0.0271 0.0
C761 C 0.14263 0.81165 0.0267 0.0
C762 C 0.12342 0.78779 0.00873 0.0
C763 C 0.10976 0.801 0.9912 0.0
C764 C 0.11488 0.83836 0.99218 0.0
H765 H 0.08199 0.34518 0.03212 0.0
H766 H 0.01805 0.22332 0.0465 0.0
H767 H 0.07118 0.21619 0.03159 0.0
H768 H 0.11479 0.33992 0.98271 0.0
H769 H 0.16213 0.38133 0.98474 0.0
H770 H 0.12369 0.37899 1.0009 0.0
H771 H 0.16221 0.38879 0.03688 0.0
H772 H 0.20141 0.39219 0.02079 0.0
H773 H 0.18122 0.35766 0.04286 0.0
H774 H 0.12263 0.21982 0.007 0.0
H775 H 0.17491 0.23593 0.98023 0.0
H776 H 0.20801 0.35616 0.98425 0.0
C777 C 0.07998 0.31734 0.033 0.0
C778 C 0.04616 0.28481 0.04047 0.0
C779 C 0.04403 0.24866 0.04112 0.0
C780 C 0.07397 0.24434 0.03257 0.0
C781 C 0.10608 0.27665 0.02409 0.0
C782 C 0.10985 0.31273 0.02492 0.0
C783 C 0.14564 0.34222 0.01306 0.0
C784 C 0.13595 0.36172 0.99424 0.0
C785 C 0.17432 0.37197 0.02937 0.0
C786 C 0.16009 0.3167 0.0042 0.0
C787 C 0.13697 0.27898 0.01079 0.0
C788 C 0.14173 0.24941 0.00236 0.0
C789 C 0.17113 0.25872 0.98701 0.0
C790 C 0.19552 0.29727 0.98051 0.0
C791 C 0.1902 0.32659 0.98942 0.0
H792 H 0.67856 0.69562 0.01937 0.0
H793 H 0.69965 0.73123 0.08794 0.0
H794 H 0.6859 0.78355 0.0796 0.0
H795 H 0.72521 0.78939 0.99705 0.0
H796 H 0.69235 0.77728 0.97429 0.0
H797 H 0.70078 0.7412 0.9862 0.0
H798 H 0.62791 0.69762 0.99322 0.0
H799 H 0.61922 0.73355 0.98128 0.0
H800 H 0.60252 0.71607 0.00877 0.0
H801 H 0.66903 0.83149 0.06329 0.0
H802 H 0.65644 0.87457 0.04 0.0
H803 H 0.65176 0.80928 0.98197 0.0
C804 C 0.67977 0.71406 0.03275 0.0
C805 C 0.68959 0.70919 0.05436 0.0
C806 C 0.69192 0.73449 0.07129 0.0
C807 C 0.68406 0.7641 0.06671 0.0
C808 C 0.67456 0.76813 0.04511 0.0
C809 C 0.67284 0.74399 0.02839 0.0
C810 C 0.66451 0.75561 0.0063 0.0
C811 C 0.69769 0.76653 0.99001 0.0
C812 C 0.62626 0.72382 0.99685 0.0
C813 C 0.66185 0.79025 0.01311 0.0
C814 C 0.6671 0.79673 0.03559 0.0
C815 C 0.66509 0.82679 0.04567 0.0
C816 C 0.65785 0.85098 0.03235 0.0
C817 C 0.65349 0.84529 0.00922 0.0
C818 C 0.65545 0.8145 0.99957 0.0
H819 H 0.70096 0.04365 0.99605 0.0
H820 H 0.74708 0.03269 0.9335 0.0
H821 H 0.79959 0.10035 0.93674 0.0
H822 H 0.72803 0.14569 0.99152 0.0
H823 H 0.73978 0.15361 0.02046 0.0
H824 H 0.70267 0.10725 0.01103 0.0
H825 H 0.73764 0.07523 0.02955 0.0
H826 H 0.77472 0.12129 0.039 0.0
H827 H 0.78693 0.09167 0.02253 0.0
H828 H 0.8506 0.16763 0.94916 0.0
H829 H 0.89724 0.22433 0.97077 0.0
H830 H 0.81764 0.18723 0.0256 0.0
C831 C 0.72144 0.05553 0.98266 0.0
C832 C 0.71971 0.03292 0.96441 0.0
C833 C 0.7477 0.04958 0.94757 0.0
C834 C 0.77747 0.088 0.94923 0.0
C835 C 0.77867 0.10915 0.9678 0.0
C836 C 0.75128 0.09325 0.98421 0.0
C837 C 0.761 0.11964 0.00381 0.0
C838 C 0.73109 0.1323 0.00687 0.0
C839 C 0.76535 0.10084 0.02495 0.0
C840 C 0.79889 0.15259 0.99629 0.0
C841 C 0.80833 0.14669 0.97526 0.0
C842 C 0.84322 0.17268 0.9655 0.0
C843 C 0.86944 0.20481 0.97782 0.0
C844 C 0.86077 0.2099 0.99975 0.0
C845 C 0.82476 0.18398 0.00879 0.0
H846 H 0.82166 0.6889 0.01343 0.0
H847 H 0.7582 0.56564 0.00345 0.0
H848 H 0.80066 0.57271 0.97208 0.0
H849 H 0.83972 0.71466 0.95405 0.0
H850 H 0.88667 0.75495 0.95956 0.0
H851 H 0.84906 0.74036 0.97976 0.0
H852 H 0.89177 0.73336 0.00931 0.0
H853 H 0.92957 0.74871 0.98936 0.0
H854 H 0.91237 0.70356 0.00347 0.0
H855 H 0.85608 0.5925 0.94626 0.0
H856 H 0.91989 0.62329 0.92851 0.0
H857 H 0.94264 0.7341 0.95233 0.0
C858 C 0.81659 0.66341 0.00456 0.0
C859 C 0.78705 0.62668 0.01093 0.0
C860 C 0.78086 0.59402 0.9988 0.0
C861 C 0.80461 0.59782 0.9809 0.0
C862 C 0.83356 0.63455 0.97501 0.0
C863 C 0.83932 0.66679 0.98638 0.0
C864 C 0.87369 0.70278 0.97768 0.0
C865 C 0.86154 0.72978 0.96713 0.0
C866 C 0.9036 0.72327 0.99604 0.0
C867 C 0.88774 0.68559 0.96042 0.0
C868 C 0.86398 0.6462 0.95893 0.0
C869 C 0.87419 0.62341 0.94664 0.0
C870 C 0.91032 0.64108 0.9365 0.0
C871 C 0.93535 0.68111 0.93848 0.0
C872 C 0.92315 0.70375 0.94968 0.0
H873 H 0.36282 0.28213 0.96202 0.0
H874 H 0.28788 0.20807 0.91032 0.0
H875 H 0.29892 0.15611 0.92322 0.0
H876 H 0.42735 0.23824 0.96764 0.0
H877 H 0.42791 0.24375 0.99718 0.0
H878 H 0.42532 0.27833 0.9794 0.0
H879 H 0.36408 0.26679 0.99991 0.0
H880 H 0.36588 0.23183 0.01738 0.0
H881 H 0.32341 0.21881 0.00137 0.0
H882 H 0.30695 0.10869 0.94645 0.0
H883 H 0.30837 0.07048 0.97818 0.0
H884 H 0.3713 0.17452 0.01652 0.0
C885 C 0.34995 0.25555 0.95276 0.0
C886 C 0.32449 0.24916 0.93516 0.0
C887 C 0.30781 0.21376 0.92372 0.0
C888 C 0.31396 0.18408 0.93095 0.0
C889 C 0.33695 0.19045 0.94952 0.0
C890 C 0.35494 0.2256 0.96014 0.0
C891 C 0.37171 0.22349 0.98206 0.0
C892 C 0.41569 0.24736 0.98153 0.0
C893 C 0.35525 0.23593 0.00128 0.0
C894 C 0.35809 0.18111 0.98292 0.0
C895 C 0.33954 0.16272 0.96365 0.0
C896 C 0.32208 0.12294 0.9614 0.0
C897 C 0.32293 0.10149 0.97945 0.0
C898 C 0.33995 0.11988 0.99958 0.0
C899 C 0.35836 0.16008 1.00116 0.0
H900 H 0.91928 0.23032 0.38016 0.0
H901 H 0.87606 0.30844 0.39043 0.0
H902 H 0.81532 0.26232 0.37237 0.0
H903 H 0.8891 0.20575 0.32886 0.0
H904 H 0.87531 0.15572 0.33025 0.0
H905 H 0.91108 0.18944 0.34877 0.0
H906 H 0.87167 0.14984 0.38251 0.0
H907 H 0.83599 0.11523 0.36407 0.0
H908 H 0.82225 0.13746 0.38523 0.0
H909 H 0.76757 0.21643 0.3453 0.0
H910 H 0.73174 0.16906 0.316 0.0
H911 H 0.80458 0.1193 0.32476 0.0
C912 C 0.89635 0.23692 0.37949 0.0
C913 C 0.90227 0.27284 0.38668 0.0
C914 C 0.87193 0.28085 0.38527 0.0
C915 C 0.83737 0.25488 0.37494 0.0
C916 C 0.83341 0.22075 0.36667 0.0
C917 C 0.86166 0.21117 0.36945 0.0
C918 C 0.85225 0.17484 0.35707 0.0
C919 C 0.8838 0.18191 0.34025 0.0
C920 C 0.8451 0.14242 0.37319 0.0
C921 C 0.81563 0.16689 0.34571 0.0
C922 C 0.80499 0.19344 0.35158 0.0
C923 C 0.77484 0.19471 0.34112 0.0
C924 C 0.75494 0.16801 0.32436 0.0
C925 C 0.76522 0.14037 0.31834 0.0
C926 C 0.79559 0.13958 0.3294 0.0
H927 H 0.86932 0.67374 0.34008 0.0
H928 H 0.8215 0.55397 0.32235 0.0
H929 H 0.76256 0.53778 0.34325 0.0
H930 H 0.82417 0.65935 0.39542 0.0
H931 H 0.81552 0.69877 0.39151 0.0
H932 H 0.85638 0.69983 0.37867 0.0
H933 H 0.83388 0.70976 0.34038 0.0
H934 H 0.79333 0.70908 0.35311 0.0
H935 H 0.78611 0.67608 0.33105 0.0
H936 H 0.70699 0.53564 0.36339 0.0
H937 H 0.65649 0.54885 0.37619 0.0
H938 H 0.73972 0.67052 0.37858 0.0
C939 C 0.8468 0.64398 0.34107 0.0
C940 C 0.84999 0.615 0.32989 0.0
C941 C 0.81954 0.57654 0.33092 0.0
C942 C 0.78617 0.56705 0.34291 0.0
C943 C 0.78373 0.59642 0.35361 0.0
C944 C 0.81311 0.63419 0.35257 0.0
C945 C 0.80151 0.66111 0.36279 0.0
C946 C 0.82584 0.68092 0.38332 0.0
C947 C 0.80382 0.69072 0.34582 0.0
C948 C 0.76053 0.63279 0.36903 0.0
C949 C 0.75113 0.59548 0.36427 0.0
C950 C 0.71414 0.56467 0.36744 0.0
C951 C 0.68569 0.5724 0.37482 0.0
C952 C 0.69437 0.61067 0.37838 0.0
C953 C 0.73247 0.64098 0.37613 0.0
H954 H 0.32637 0.19632 0.32878 0.0
H955 H 0.44724 0.2745 0.31684 0.0
H956 H 0.46353 0.23596 0.34164 0.0
H957 H 0.33445 0.17034 0.38704 0.0
H958 H 0.29803 0.12098 0.38272 0.0
H959 H 0.29615 0.1587 0.36772 0.0
H960 H 0.29441 0.12546 0.33074 0.0
H961 H 0.29605 0.08769 0.34559 0.0
H962 H 0.33163 0.11436 0.32482 0.0
H963 H 0.46634 0.18525 0.36426 0.0
H964 H 0.45544 0.12328 0.37889 0.0
H965 H 0.33265 0.07706 0.37447 0.0
C966 C 0.35629 0.20594 0.33189 0.0
C967 C 0.38557 0.23856 0.32113 0.0
C968 C 0.42438 0.24962 0.32503 0.0
C969 C 0.4339 0.22813 0.33923 0.0
C970 C 0.40426 0.19565 0.34931 0.0
C971 C 0.36621 0.18449 0.34569 0.0
C972 C 0.33969 0.14571 0.35585 0.0
C973 C 0.31567 0.14916 0.37444 0.0
C974 C 0.31397 0.11661 0.3382 0.0
C975 C 0.36872 0.13599 0.36494 0.0
C976 C 0.40581 0.16562 0.36163 0.0
C977 C 0.43744 0.16207 0.36724 0.0
C978 C 0.43098 0.12681 0.37561 0.0
C979 C 0.3932 0.09544 0.3778 0.0
C980 C 0.36183 0.10066 0.37312 0.0
H981 H 0.55603 0.56653 0.31304 0.0
H982 H 0.47328 0.57527 0.35442 0.0
H983 H 0.42063 0.52682 0.33141 0.0
H984 H 0.4981 0.53791 0.25887 0.0
H985 H 0.51388 0.50421 0.2527 0.0
H986 H 0.54513 0.54801 0.26731 0.0
H987 H 0.55201 0.50842 0.29887 0.0
H988 H 0.52091 0.46479 0.28447 0.0
H989 H 0.50951 0.47151 0.31229 0.0
H990 H 0.3778 0.46995 0.30968 0.0
H991 H 0.34784 0.405 0.29399 0.0
H992 H 0.45788 0.42891 0.26798 0.0
C993 C 0.52685 0.5595 0.31645 0.0
C994 C 0.51841 0.57507 0.335 0.0
C995 C 0.48004 0.564 0.33995 0.0
C996 C 0.45009 0.53674 0.32688 0.0
C997 C 0.45911 0.52057 0.30914 0.0
C998 C 0.49663 0.53145 0.30394 0.0
C999 C 0.49841 0.50428 0.28729 0.0
C1000 C 0.51485 0.52484 0.26523 0.0
C1001 C 0.52154 0.48618 0.29629 0.0
C1002 C 0.45621 0.47492 0.28515 0.0
C1003 C 0.43401 0.48579 0.29717 0.0
C1004 C 0.39475 0.46149 0.29984 0.0
C1005 C 0.378 0.42453 0.29093 0.0
C1006 C 0.4006 0.4119 0.2798 0.0
C1007 C 0.43982 0.43805 0.27603 0.0
H1008 H 0.59305 0.97724 0.30067 0.0
H1009 H 0.57764 0.03277 0.24339 0.0
H1010 H 0.51049 0.00923 0.25461 0.0
H1011 H 0.49067 0.89463 0.30591 0.0
H1012 H 0.49355 0.89882 0.33555 0.0
H1013 H 0.53564 0.9097 0.31968 0.0
H1014 H 0.57199 0.97699 0.33784 0.0
H1015 H 0.53022 0.96653 0.35356 0.0
H1016 H 0.55219 0.00835 0.33604 0.0
H1017 H 0.44967 0.9898 0.27542 0.0
H1018 H 0.40436 0.98242 0.30503 0.0
H1019 H 0.4625 0.94463 0.34992 0.0
C1020 C 0.57518 0.98317 0.28992 0.0
C1021 C 0.59047 0.0065 0.27102 0.0
C1022 C 0.56641 0.01462 0.25783 0.0
C1023 C 0.52817 0.00117 0.26403 0.0
C1024 C 0.51456 0.97972 0.28342 0.0
C1025 C 0.53749 0.97078 0.29615 0.0
C1026 C 0.51917 0.95387 0.31819 0.0
C1027 C 0.50915 0.91175 0.31992 0.0
C1028 C 0.54491 0.97789 0.33752 0.0
C1029 C 0.48342 0.95692 0.31652 0.0
C1030 C 0.4804 0.97038 0.29603 0.0
C1031 C 0.45137 0.97855 0.29134 0.0
C1032 C 0.42572 0.97422 0.30825 0.0
C1033 C 0.43008 0.96293 0.32969 0.0
C1034 C 0.45845 0.95298 0.33359 0.0
H1035 H 0.01881 0.60146 0.33055 0.0
H1036 H 0.98241 0.55005 0.26573 0.0
H1037 H 0.00522 0.50479 0.2745 0.0
H1038 H 0.1028 0.58564 0.33746 0.0
H1039 H 0.0918 0.57452 0.36628 0.0
H1040 H 0.08155 0.60846 0.35297 0.0
H1041 H 0.01067 0.56855 0.36548 0.0
H1042 H 0.02063 0.53464 0.37873 0.0
H1043 H 0.98329 0.51841 0.35824 0.0
H1044 H 0.02258 0.45923 0.29244 0.0
H1045 H 0.02727 0.41461 0.31851 0.0
H1046 H 0.04918 0.49463 0.37198 0.0
C1047 C 0.01676 0.58158 0.31785 0.0
C1048 C -0.00091 0.57948 0.29738 0.0
C1049 C -0.00392 0.55233 0.28148 0.0
C1050 C 0.00919 0.5267 0.28628 0.0
C1051 C 0.0253 0.52875 0.30698 0.0
C1052 C 0.02913 0.55562 0.32249 0.0
C1053 C 0.04164 0.54839 0.34463 0.0
C1054 C 0.08185 0.58121 0.35068 0.0
C1055 C 0.0123 0.5421 0.36282 0.0
C1056 C 0.0422 0.51194 0.33956 0.0
C1057 C 0.03399 0.50171 0.3176 0.0
C1058 C 0.02973 0.46734 0.30956 0.0
C1059 C 0.0325 0.44219 0.32449 0.0
C1060 C 0.03856 0.45124 0.34726 0.0
C1061 C 0.0448 0.48714 0.35464 0.0
H1062 H 0.51426 0.46824 0.644 0.0
H1063 H 0.4233 0.40137 0.69057 0.0
H1064 H 0.46334 0.44316 0.72089 0.0
H1065 H 0.5978 0.49483 0.68483 0.0
H1066 H 0.62457 0.5416 0.67229 0.0
H1067 H 0.59322 0.50051 0.65567 0.0
H1068 H 0.55812 0.53594 0.64227 0.0
H1069 H 0.58882 0.5767 0.65893 0.0
H1070 H 0.53758 0.5535 0.66235 0.0
H1071 H 0.50473 0.50177 0.74333 0.0
H1072 H 0.54674 0.56823 0.75647 0.0
H1073 H 0.61291 0.59438 0.69605 0.0
C1074 C 0.50355 0.46143 0.66075 0.0
C1075 C 0.46587 0.43173 0.66501 0.0
C1076 C 0.45236 0.42377 0.68702 0.0
C1077 C 0.47491 0.4474 0.70435 0.0
C1078 C 0.51124 0.47802 0.69943 0.0
C1079 C 0.52595 0.48433 0.67821 0.0
C1080 C 0.56356 0.52168 0.67663 0.0
C1081 C 0.59675 0.51419 0.67209 0.0
C1082 C 0.56186 0.5485 0.65903 0.0
C1083 C 0.56603 0.537 0.6997 0.0
C1084 C 0.53604 0.51123 0.7128 0.0
C1085 C 0.52915 0.52164 0.73355 0.0
C1086 C 0.553 0.55951 0.74084 0.0
C1087 C 0.58332 0.58638 0.72739 0.0
C1088 C 0.59056 0.57433 0.70698 0.0
H1089 H 0.52893 0.0521 0.63476 0.0
H1090 H 0.58628 0.03238 0.68937 0.0
H1091 H 0.53726 0.02965 0.71499 0.0
H1092 H 0.49199 0.10831 0.66774 0.0
H1093 H 0.44828 0.08647 0.6519 0.0
H1094 H 0.4927 0.09622 0.63917 0.0
H1095 H 0.46135 0.02477 0.6276 0.0
H1096 H 0.41723 0.01467 0.64047 0.0
H1097 H 0.44022 0.98794 0.64845 0.0
H1098 H 0.47408 0.01309 0.73244 0.0
H1099 H 0.40586 0.9904 0.7406 0.0
H1100 H 0.39212 0.02462 0.67486 0.0
C1101 C 0.532 0.04883 0.65225 0.0
C1102 C 0.56126 0.04252 0.66015 0.0
C1103 C 0.56428 0.03777 0.68307 0.0
C1104 C 0.53651 0.0361 0.69772 0.0
C1105 C 0.50666 0.04031 0.68921 0.0
C1106 C 0.50491 0.04765 0.66705 0.0
C1107 C 0.46796 0.04677 0.66147 0.0
C1108 C 0.47571 0.08684 0.65468 0.0
C1109 C 0.44539 0.01675 0.64346 0.0
C1110 C 0.44796 0.03504 0.68355 0.0
C1111 C 0.4708 0.03197 0.69949 0.0
C1112 C 0.45637 0.0166 0.72031 0.0
C1113 C 0.41754 0.00359 0.72477 0.0
C1114 C 0.3937 0.006 0.70845 0.0
C1115 C 0.40965 0.02301 0.68788 0.0
H1116 H 0.9551 0.37218 0.69308 0.0
H1117 H 0.00422 0.4374 0.75304 0.0
H1118 H 0.97716 0.47881 0.74373 0.0
H1119 H 0.98382 0.44679 0.66069 0.0
H1120 H 0.94303 0.42727 0.64244 0.0
H1121 H 0.95444 0.39559 0.65702 0.0
H1122 H 0.88624 0.36015 0.67396 0.0
H1123 H 0.87446 0.39183 0.65923 0.0
H1124 H 0.86858 0.387 0.68876 0.0
H1125 H 0.9573 0.52077 0.7243 0.0
H1126 H 0.95216 0.56178 0.69581 0.0
H1127 H 0.92003 0.47131 0.64754 0.0
C1128 C 0.9589 0.39415 0.70477 0.0
C1129 C 0.98165 0.40144 0.72384 0.0
C1130 C 0.98665 0.43109 0.73841 0.0
C1131 C 0.97116 0.45461 0.73329 0.0
C1132 C 0.95064 0.44794 0.71365 0.0
C1133 C 0.94435 0.41818 0.69967 0.0
C1134 C 0.92825 0.42122 0.6777 0.0
C1135 C 0.95394 0.42286 0.65836 0.0
C1136 C 0.88692 0.38808 0.67475 0.0
C1137 C 0.9293 0.45896 0.68078 0.0
C1138 C 0.94063 0.47314 0.70194 0.0
C1139 C 0.94755 0.50954 0.70788 0.0
C1140 C 0.94452 0.53265 0.69158 0.0
C1141 C 0.93571 0.51956 0.66952 0.0
C1142 C 0.92644 0.48174 0.66436 0.0
H1143 H 0.17188 0.86963 0.66324 0.0
H1144 H 0.24996 0.82982 0.68185 0.0
H1145 H 0.21195 0.7708 0.65985 0.0
H1146 H 0.08948 0.7817 0.67012 0.0
H1147 H 0.06346 0.78745 0.64766 0.0
H1148 H 0.10049 0.82902 0.66147 0.0
H1149 H 0.13466 0.85561 0.62396 0.0
H1150 H 0.09779 0.81371 0.61007 0.0
H1151 H 0.14734 0.82671 0.60713 0.0
H1152 H 0.16287 0.71424 0.63832 0.0
H1153 H 0.10197 0.6608 0.62418 0.0
H1154 H 0.0542 0.73625 0.62167 0.0
C1155 C 0.18141 0.84884 0.66226 0.0
C1156 C 0.21399 0.85431 0.67397 0.0
C1157 C 0.22505 0.82607 0.6729 0.0
C1158 C 0.20391 0.79272 0.66028 0.0
C1159 C 0.17169 0.78803 0.649 0.0
C1160 C 0.16022 0.81513 0.65013 0.0
C1161 C 0.12181 0.80102 0.6391 0.0
C1162 C 0.09207 0.7997 0.65557 0.0
C1163 C 0.12565 0.82574 0.61886 0.0
C1164 C 0.11277 0.76119 0.6323 0.0
C1165 C 0.14242 0.75467 0.63749 0.0
C1166 C 0.13964 0.71914 0.63394 0.0
C1167 C 0.10502 0.689 0.62579 0.0
C1168 C 0.07349 0.69451 0.62184 0.0
C1169 C 0.07799 0.7314 0.62441 0.0
H1170 H 0.12246 0.3259 0.67295 0.0
H1171 H 0.16217 0.44506 0.68899 0.0
H1172 H 0.21895 0.46513 0.66519 0.0
H1173 H 0.2115 0.33325 0.67695 0.0
H1174 H 0.20378 0.29995 0.65497 0.0
H1175 H 0.16363 0.29577 0.6702 0.0
H1176 H 0.13245 0.30012 0.63368 0.0
H1177 H 0.17279 0.3046 0.61833 0.0
H1178 H 0.15886 0.34054 0.61555 0.0
H1179 H 0.2737 0.47167 0.64207 0.0
H1180 H 0.32531 0.46383 0.62544 0.0
H1181 H 0.25066 0.34015 0.62615 0.0
C1182 C 0.14267 0.35627 0.67106 0.0
C1183 C 0.13783 0.38398 0.68259 0.0
C1184 C 0.16538 0.42339 0.68021 0.0
C1185 C 0.1975 0.43506 0.6666 0.0
C1186 C 0.20163 0.40692 0.6556 0.0
C1187 C 0.17509 0.36831 0.65786 0.0
C1188 C 0.18834 0.34352 0.64655 0.0
C1189 C 0.19205 0.31656 0.66316 0.0
C1190 C 0.16151 0.32086 0.62739 0.0
C1191 C 0.22704 0.37414 0.63816 0.0
C1192 C 0.2338 0.41057 0.64301 0.0
C1193 C 0.26857 0.44331 0.63797 0.0
C1194 C 0.29766 0.43859 0.62844 0.0
C1195 C 0.29193 0.40138 0.62452 0.0
C1196 C 0.25577 0.36894 0.62885 0.0
H1197 H 0.67452 0.81083 0.68687 0.0
H1198 H 0.55357 0.72689 0.69258 0.0
H1199 H 0.53829 0.76461 0.66649 0.0
H1200 H 0.66241 0.89072 0.68838 0.0
H1201 H 0.70087 0.91916 0.66947 0.0
H1202 H 0.70242 0.88271 0.68583 0.0
H1203 H 0.7097 0.85118 0.65023 0.0
H1204 H 0.70782 0.88748 0.63372 0.0
H1205 H 0.6746 0.83741 0.62855 0.0
H1206 H 0.53602 0.81325 0.64155 0.0
H1207 H 0.54588 0.87289 0.62395 0.0
H1208 H 0.66802 0.92655 0.63642 0.0
C1209 C 0.6449 0.80005 0.68227 0.0
C1210 C 0.61522 0.76584 0.69148 0.0
C1211 C 0.57669 0.75308 0.68562 0.0
C1212 C 0.5678 0.77409 0.67069 0.0
C1213 C 0.59776 0.8079 0.66196 0.0
C1214 C 0.6355 0.82104 0.66776 0.0
C1215 C 0.66191 0.86036 0.65817 0.0
C1216 C 0.68312 0.88997 0.67656 0.0
C1217 C 0.69017 0.859 0.64169 0.0
C1218 C 0.63303 0.86776 0.64655 0.0
C1219 C 0.59631 0.83675 0.64841 0.0
C1220 C 0.56467 0.83759 0.63982 0.0
C1221 C 0.57057 0.87153 0.62976 0.0
C1222 C 0.60771 0.90429 0.62884 0.0
C1223 C 0.63934 0.90188 0.63681 0.0
loop_
_geom_bond_atom_site_label_1
_geom_bond_atom_site_label_2
_geom_bond_distance
_geom_bond_site_symmetry_2
_ccdc_geom_bond_type
O0 Cd1 2.223 . S
O0 C8 1.315 . S
Cd1 O0 2.223 . S
Cd1 O4 2.297 . S
Cd1 O5 2.439 . S
Cd1 O11 2.240 . S
Cd2 O3 2.240 . S
Cd2 O10 2.223 . S
Cd2 O12 2.297 . S
Cd2 O13 2.439 . S
O3 Cd2 2.240 . S
O3 C8 1.279 . S
O4 Cd1 2.297 . S
O4 C6 1.247 . S
O5 Cd1 2.439 . S
O5 C6 1.208 . S
C6 O4 1.247 . S
C6 O5 1.208 . S
C7 O12 1.247 . S
C7 O13 1.208 . S
C8 O0 1.315 . S
C8 O3 1.279 . S
C9 O10 1.315 . S
C9 O11 1.279 . S
O10 Cd2 2.223 . S
O10 C9 1.315 . S
O11 Cd1 2.240 . S
O11 C9 1.279 . S
O12 Cd2 2.297 . S
O12 C7 1.247 . S
O13 Cd2 2.439 . S
O13 C7 1.208 . S
O14 Cd15 2.223 . S
O14 C22 1.315 . S
Cd15 O14 2.223 . S
Cd15 O18 2.297 . S
Cd15 O19 2.439 . S
Cd15 O25 2.240 . S
Cd16 O17 2.240 . S
Cd16 O24 2.223 . S
Cd16 O26 2.297 . S
Cd16 O27 2.439 . S
O17 Cd16 2.240 . S
O17 C22 1.279 . S
O18 Cd15 2.297 . S
O18 C20 1.247 . S
O19 Cd15 2.439 . S
O19 C20 1.208 . S
C20 O18 1.247 . S
C20 O19 1.208 . S
C21 O26 1.247 . S
C21 O27 1.208 . S
C22 O14 1.315 . S
C22 O17 1.279 . S
C23 O24 1.315 . S
C23 O25 1.279 . S
O24 Cd16 2.223 . S
O24 C23 1.315 . S
O25 Cd15 2.240 . S
O25 C23 1.279 . S
O26 Cd16 2.297 . S
O26 C21 1.247 . S
O27 Cd16 2.439 . S
O27 C21 1.208 . S
O28 Cd29 2.223 . S
O28 C36 1.315 . S
Cd29 O28 2.223 . S
Cd29 O32 2.297 . S
Cd29 O33 2.439 . S
Cd29 O39 2.240 . S
Cd30 O31 2.240 . S
Cd30 O38 2.223 . S
Cd30 O40 2.297 . S
Cd30 O41 2.439 . S
O31 Cd30 2.240 . S
O31 C36 1.279 . S
O32 Cd29 2.297 . S
O32 C34 1.247 . S
O33 Cd29 2.439 . S
O33 C34 1.208 . S
C34 O32 1.247 . S
C34 O33 1.208 . S
C35 O40 1.247 . S
C35 O41 1.208 . S
C36 O28 1.315 . S
C36 O31 1.279 . S
C37 O38 1.315 . S
C37 O39 1.279 . S
O38 Cd30 2.223 . S
O38 C37 1.315 . S
O39 Cd29 2.240 . S
O39 C37 1.279 . S
O40 Cd30 2.297 . S
O40 C35 1.247 . S
O41 Cd30 2.439 . S
O41 C35 1.208 . S
O42 Cd43 2.223 . S
O42 C50 1.315 . S
Cd43 O42 2.223 . S
Cd43 O46 2.297 . S
Cd43 O47 2.439 . S
Cd43 O53 2.240 . S
Cd44 O45 2.240 . S
Cd44 O52 2.223 . S
Cd44 O54 2.297 . S
Cd44 O55 2.439 . S
O45 Cd44 2.240 . S
O45 C50 1.279 . S
O46 Cd43 2.297 . S
O46 C48 1.247 . S
O47 Cd43 2.439 . S
O47 C48 1.208 . S
C48 O46 1.247 . S
C48 O47 1.208 . S
C49 O54 1.247 . S
C49 O55 1.208 . S
C50 O42 1.315 . S
C50 O45 1.279 . S
C51 O52 1.315 . S
C51 O53 1.279 . S
O52 Cd44 2.223 . S
O52 C51 1.315 . S
O53 Cd43 2.240 . S
O53 C51 1.279 . S
O54 Cd44 2.297 . S
O54 C49 1.247 . S
O55 Cd44 2.439 . S
O55 C49 1.208 . S
O56 Cd57 2.223 . S
O56 C64 1.315 . S
Cd57 O56 2.223 . S
Cd57 O60 2.297 . S
Cd57 O61 2.439 . S
Cd57 O67 2.240 . S
Cd58 O59 2.240 . S
Cd58 O66 2.223 . S
Cd58 O68 2.297 . S
Cd58 O69 2.439 . S
O59 Cd58 2.240 . S
O59 C64 1.279 . S
O60 Cd57 2.297 . S
O60 C62 1.247 . S
O61 Cd57 2.439 . S
O61 C62 1.208 . S
C62 O60 1.247 . S
C62 O61 1.208 . S
C63 O68 1.247 . S
C63 O69 1.208 . S
C64 O56 1.315 . S
C64 O59 1.279 . S
C65 O66 1.315 . S
C65 O67 1.279 . S
O66 Cd58 2.223 . S
O66 C65 1.315 . S
O67 Cd57 2.240 . S
O67 C65 1.279 . S
O68 Cd58 2.297 . S
O68 C63 1.247 . S
O69 Cd58 2.439 . S
O69 C63 1.208 . S
O70 Cd71 2.223 . S
O70 C78 1.315 . S
Cd71 O70 2.223 . S
Cd71 O74 2.297 . S
Cd71 O75 2.439 . S
Cd71 O81 2.240 . S
Cd72 O73 2.240 . S
Cd72 O80 2.223 . S
Cd72 O82 2.297 . S
Cd72 O83 2.439 . S
O73 Cd72 2.240 . S
O73 C78 1.279 . S
O74 Cd71 2.297 . S
O74 C76 1.247 . S
O75 Cd71 2.439 . S
O75 C76 1.208 . S
C76 O74 1.247 . S
C76 O75 1.208 . S
C77 O82 1.247 . S
C77 O83 1.208 . S
C78 O70 1.315 . S
C78 O73 1.279 . S
C79 O80 1.315 . S
C79 O81 1.279 . S
O80 Cd72 2.223 . S
O80 C79 1.315 . S
O81 Cd71 2.240 . S
O81 C79 1.279 . S
O82 Cd72 2.297 . S
O82 C77 1.247 . S
O83 Cd72 2.439 . S
O83 C77 1.208 . S
O84 Cd85 2.223 . S
O84 C92 1.315 . S
Cd85 O84 2.223 . S
Cd85 O88 2.297 . S
Cd85 O89 2.439 1_655 S
Cd85 O95 2.240 . S
Cd86 O87 2.240 . S
Cd86 O94 2.223 1_455 S
Cd86 O96 2.297 . S
Cd86 O97 2.439 . S
O87 Cd86 2.240 . S
O87 C92 1.279 1_455 S
O88 Cd85 2.297 . S
O88 C90 1.247 1_655 S
O89 Cd85 2.439 1_455 S
O89 C90 1.208 . S
C90 O88 1.247 1_455 S
C90 O89 1.208 . S
C91 O96 1.247 . S
C91 O97 1.208 . S
C92 O84 1.315 . S
C92 O87 1.279 1_655 S
C93 O94 1.315 . S
C93 O95 1.279 . S
O94 Cd86 2.223 1_655 S
O94 C93 1.315 . S
O95 Cd85 2.240 . S
O95 C93 1.279 . S
O96 Cd86 2.297 . S
O96 C91 1.247 . S
O97 Cd86 2.439 . S
O97 C91 1.208 . S
O98 Cd99 2.223 . S
O98 C106 1.315 . S
Cd99 O98 2.223 . S
Cd99 O102 2.297 . S
Cd99 O103 2.439 . S
Cd99 O109 2.240 . S
Cd100 O101 2.240 . S
Cd100 O108 2.223 . S
Cd100 O110 2.297 . S
Cd100 O111 2.439 . S
O101 Cd100 2.240 . S
O101 C106 1.279 . S
O102 Cd99 2.297 . S
O102 C104 1.247 . S
O103 Cd99 2.439 . S
O103 C104 1.208 . S
C104 O102 1.247 . S
C104 O103 1.208 . S
C105 O110 1.247 . S
C105 O111 1.208 . S
C106 O98 1.315 . S
C106 O101 1.279 . S
C107 O108 1.315 . S
C107 O109 1.279 . S
O108 Cd100 2.223 . S
O108 C107 1.315 . S
O109 Cd99 2.240 . S
O109 C107 1.279 . S
O110 Cd100 2.297 . S
O110 C105 1.247 . S
O111 Cd100 2.439 . S
O111 C105 1.208 . S
O112 Cd113 2.223 . S
O112 C120 1.315 . S
Cd113 O112 2.223 . S
Cd113 O116 2.297 . S
Cd113 O117 2.439 1_545 S
Cd113 O123 2.240 . S
Cd114 O115 2.240 . S
Cd114 O122 2.223 1_565 S
Cd114 O124 2.297 . S
Cd114 O125 2.439 . S
O115 Cd114 2.240 . S
O115 C120 1.279 1_565 S
O116 Cd113 2.297 . S
O116 C118 1.247 1_545 S
O117 Cd113 2.439 1_565 S
O117 C118 1.208 . S
C118 O116 1.247 1_565 S
C118 O117 1.208 . S
C119 O124 1.247 . S
C119 O125 1.208 . S
C120 O112 1.315 . S
C120 O115 1.279 1_545 S
C121 O122 1.315 . S
C121 O123 1.279 . S
O122 Cd114 2.223 1_545 S
O122 C121 1.315 . S
O123 Cd113 2.240 . S
O123 C121 1.279 . S
O124 Cd114 2.297 . S
O124 C119 1.247 . S
O125 Cd114 2.439 . S
O125 C119 1.208 . S
O126 Cd127 2.223 . S
O126 C134 1.315 . S
Cd127 O126 2.223 . S
Cd127 O130 2.297 . S
Cd127 O131 2.439 . S
Cd127 O137 2.240 . S
Cd128 O129 2.240 . S
Cd128 O136 2.223 . S
Cd128 O138 2.297 . S
Cd128 O139 2.439 . S
O129 Cd128 2.240 . S
O129 C134 1.279 . S
O130 Cd127 2.297 . S
O130 C132 1.247 . S
O131 Cd127 2.439 . S
O131 C132 1.208 . S
C132 O130 1.247 . S
C132 O131 1.208 . S
C133 O138 1.247 . S
C133 O139 1.208 . S
C134 O126 1.315 . S
C134 O129 1.279 . S
C135 O136 1.315 . S
C135 O137 1.279 . S
O136 Cd128 2.223 . S
O136 C135 1.315 . S
O137 Cd127 2.240 . S
O137 C135 1.279 . S
O138 Cd128 2.297 . S
O138 C133 1.247 . S
O139 Cd128 2.439 . S
O139 C133 1.208 . S
O140 Cd141 2.223 . S
O140 C148 1.315 . S
Cd141 O140 2.223 . S
Cd141 O144 2.297 . S
Cd141 O145 2.439 . S
Cd141 O151 2.240 . S
Cd142 O143 2.240 . S
Cd142 O150 2.223 . S
Cd142 O152 2.297 1_545 S
Cd142 O153 2.439 1_545 S
O143 Cd142 2.240 . S
O143 C148 1.279 . S
O144 Cd141 2.297 . S
O144 C146 1.247 . S
O145 Cd141 2.439 . S
O145 C146 1.208 . S
C146 O144 1.247 . S
C146 O145 1.208 . S
C147 O152 1.247 . S
C147 O153 1.208 . S
C148 O140 1.315 . S
C148 O143 1.279 . S
C149 O150 1.315 . S
C149 O151 1.279 . S
O150 Cd142 2.223 . S
O150 C149 1.315 . S
O151 Cd141 2.240 . S
O151 C149 1.279 . S
O152 Cd142 2.297 1_565 S
O152 C147 1.247 . S
O153 Cd142 2.439 1_565 S
O153 C147 1.208 . S
O154 Cd155 2.223 . S
O154 C162 1.315 . S
Cd155 O154 2.223 . S
Cd155 O158 2.297 . S
Cd155 O159 2.439 . S
Cd155 O165 2.240 . S
Cd156 O157 2.240 . S
Cd156 O164 2.223 . S
Cd156 O166 2.297 1_655 S
Cd156 O167 2.439 1_655 S
O157 Cd156 2.240 . S
O157 C162 1.279 . S
O158 Cd155 2.297 . S
O158 C160 1.247 . S
O159 Cd155 2.439 . S
O159 C160 1.208 . S
C160 O158 1.247 . S
C160 O159 1.208 . S
C161 O166 1.247 . S
C161 O167 1.208 . S
C162 O154 1.315 . S
C162 O157 1.279 . S
C163 O164 1.315 . S
C163 O165 1.279 . S
O164 Cd156 2.223 . S
O164 C163 1.315 . S
O165 Cd155 2.240 . S
O165 C163 1.279 . S
O166 Cd156 2.297 1_455 S
O166 C161 1.247 . S
O167 Cd156 2.439 1_455 S
O167 C161 1.208 . S
O168 Cd169 2.223 . S
O168 C176 1.315 . S
Cd169 O168 2.223 . S
Cd169 O172 2.297 . S
Cd169 O173 2.439 . S
Cd169 O179 2.240 . S
Cd170 O171 2.240 . S
Cd170 O178 2.223 . S
Cd170 O180 2.297 . S
Cd170 O181 2.439 . S
O171 Cd170 2.240 . S
O171 C176 1.279 . S
O172 Cd169 2.297 . S
O172 C174 1.247 . S
O173 Cd169 2.439 . S
O173 C174 1.208 . S
C174 O172 1.247 . S
C174 O173 1.208 . S
C175 O180 1.247 . S
C175 O181 1.208 . S
C176 O168 1.315 . S
C176 O171 1.279 . S
C177 O178 1.315 . S
C177 O179 1.279 . S
O178 Cd170 2.223 . S
O178 C177 1.315 . S
O179 Cd169 2.240 . S
O179 C177 1.279 . S
O180 Cd170 2.297 . S
O180 C175 1.247 . S
O181 Cd170 2.439 . S
O181 C175 1.208 . S
O182 Cd183 2.223 . S
O182 C190 1.315 . S
Cd183 O182 2.223 . S
Cd183 O186 2.297 . S
Cd183 O187 2.439 . S
Cd183 O193 2.240 . S
Cd184 O185 2.240 . S
Cd184 O192 2.223 . S
Cd184 O194 2.297 1_565 S
Cd184 O195 2.439 1_565 S
O185 Cd184 2.240 . S
O185 C190 1.279 . S
O186 Cd183 2.297 . S
O186 C188 1.247 . S
O187 Cd183 2.439 . S
O187 C188 1.208 . S
C188 O186 1.247 . S
C188 O187 1.208 . S
C189 O194 1.247 . S
C189 O195 1.208 . S
C190 O182 1.315 . S
C190 O185 1.279 . S
C191 O192 1.315 . S
C191 O193 1.279 . S
O192 Cd184 2.223 . S
O192 C191 1.315 . S
O193 Cd183 2.240 . S
O193 C191 1.279 . S
O194 Cd184 2.297 1_545 S
O194 C189 1.247 . S
O195 Cd184 2.439 1_545 S
O195 C189 1.208 . S
O196 Cd197 2.223 . S
O196 C204 1.315 . S
Cd197 O196 2.223 . S
Cd197 O200 2.297 . S
Cd197 O201 2.439 . S
Cd197 O207 2.240 . S
Cd198 O199 2.240 . S
Cd198 O206 2.223 . S
Cd198 O208 2.297 1_455 S
Cd198 O209 2.439 1_455 S
O199 Cd198 2.240 . S
O199 C204 1.279 . S
O200 Cd197 2.297 . S
O200 C202 1.247 . S
O201 Cd197 2.439 . S
O201 C202 1.208 . S
C202 O200 1.247 . S
C202 O201 1.208 . S
C203 O208 1.247 . S
C203 O209 1.208 . S
C204 O196 1.315 . S
C204 O199 1.279 . S
C205 O206 1.315 . S
C205 O207 1.279 . S
O206 Cd198 2.223 . S
O206 C205 1.315 . S
O207 Cd197 2.240 . S
O207 C205 1.279 . S
O208 Cd198 2.297 1_655 S
O208 C203 1.247 . S
O209 Cd198 2.439 1_655 S
O209 C203 1.208 . S
O210 Cd211 2.223 . S
O210 C218 1.315 . S
Cd211 O210 2.223 . S
Cd211 O214 2.297 . S
Cd211 O215 2.439 1_455 S
Cd211 O221 2.240 . S
Cd212 O213 2.240 . S
Cd212 O220 2.223 1_655 S
Cd212 O222 2.297 . S
Cd212 O223 2.439 . S
O213 Cd212 2.240 . S
O213 C218 1.279 1_655 S
O214 Cd211 2.297 . S
O214 C216 1.247 1_455 S
O215 Cd211 2.439 1_655 S
O215 C216 1.208 . S
C216 O214 1.247 1_655 S
C216 O215 1.208 . S
C217 O222 1.247 . S
C217 O223 1.208 . S
C218 O210 1.315 . S
C218 O213 1.279 1_455 S
C219 O220 1.315 . S
C219 O221 1.279 . S
O220 Cd212 2.223 1_455 S
O220 C219 1.315 . S
O221 Cd211 2.240 . S
O221 C219 1.279 . S
O222 Cd212 2.297 . S
O222 C217 1.247 . S
O223 Cd212 2.439 . S
O223 C217 1.208 . S
O224 Cd225 2.223 . S
O224 C232 1.315 . S
Cd225 O224 2.223 . S
Cd225 O228 2.297 . S
Cd225 O229 2.439 . S
Cd225 O235 2.240 . S
Cd226 O227 2.240 . S
Cd226 O234 2.223 . S
Cd226 O236 2.297 . S
Cd226 O237 2.439 . S
O227 Cd226 2.240 . S
O227 C232 1.279 . S
O228 Cd225 2.297 . S
O228 C230 1.247 . S
O229 Cd225 2.439 . S
O229 C230 1.208 . S
C230 O228 1.247 . S
C230 O229 1.208 . S
C231 O236 1.247 . S
C231 O237 1.208 . S
C232 O224 1.315 . S
C232 O227 1.279 . S
C233 O234 1.315 . S
C233 O235 1.279 . S
O234 Cd226 2.223 . S
O234 C233 1.315 . S
O235 Cd225 2.240 . S
O235 C233 1.279 . S
O236 Cd226 2.297 . S
O236 C231 1.247 . S
O237 Cd226 2.439 . S
O237 C231 1.208 . S
O238 Cd239 2.223 . S
O238 C246 1.315 . S
Cd239 O238 2.223 . S
Cd239 O242 2.297 . S
Cd239 O243 2.439 1_565 S
Cd239 O249 2.240 . S
Cd240 O241 2.240 . S
Cd240 O248 2.223 1_545 S
Cd240 O250 2.297 . S
Cd240 O251 2.439 . S
O241 Cd240 2.240 . S
O241 C246 1.279 1_545 S
O242 Cd239 2.297 . S
O242 C244 1.247 1_565 S
O243 Cd239 2.439 1_545 S
O243 C244 1.208 . S
C244 O242 1.247 1_545 S
C244 O243 1.208 . S
C245 O250 1.247 . S
C245 O251 1.208 . S
C246 O238 1.315 . S
C246 O241 1.279 1_565 S
C247 O248 1.315 . S
C247 O249 1.279 . S
O248 Cd240 2.223 1_565 S
O248 C247 1.315 . S
O249 Cd239 2.240 . S
O249 C247 1.279 . S
O250 Cd240 2.297 . S
O250 C245 1.247 . S
O251 Cd240 2.439 . S
O251 C245 1.208 . S
H252 C264 0.930 . S
H253 C266 0.930 . S
H254 C267 0.930 . S
H255 C271 0.959 . S
H256 C271 0.959 . S
H257 C271 0.961 . S
H258 C272 0.960 . S
H259 C272 0.961 . S
H260 C272 0.959 1_554 S
H261 C275 0.929 . S
H262 C276 0.931 . S
H263 C278 0.930 . S
C264 H252 0.930 . S
C264 C265 1.399 . S
C264 C269 1.399 . S
C265 C264 1.399 . S
C265 C266 1.376 1_545 S
C266 H253 0.930 . S
C266 C265 1.376 1_565 S
C266 C267 1.388 . S
C267 H254 0.930 . S
C267 C266 1.388 . S
C267 C268 1.390 . S
C268 C267 1.390 . S
C268 C269 1.394 1_565 S
C268 C274 1.465 . S
C269 C264 1.399 . S
C269 C268 1.394 1_545 S
C269 C270 1.516 1_554 S
C270 C269 1.516 1_556 S
C270 C271 1.502 . S
C270 C272 1.561 . S
C270 C273 1.526 . S
C271 H255 0.959 . S
C271 H256 0.959 . S
C271 H257 0.961 . S
C271 C270 1.502 . S
C272 H258 0.960 . S
C272 H259 0.961 . S
C272 H260 0.959 1_556 S
C272 C270 1.561 . S
C273 C270 1.526 . S
C273 C274 1.396 1_546 S
C273 C278 1.390 . S
C274 C268 1.465 . S
C274 C273 1.396 1_564 S
C274 C275 1.399 . S
C275 H261 0.929 . S
C275 C274 1.399 . S
C275 C276 1.385 1_554 S
C276 H262 0.931 . S
C276 C275 1.385 1_556 S
C276 C277 1.389 . S
C277 C276 1.389 . S
C277 C278 1.387 1_565 S
C278 H263 0.930 . S
C278 C273 1.390 . S
C278 C277 1.387 1_545 S
H279 C291 0.909 1_556 S
H280 C293 0.930 . S
H281 C294 0.930 . S
H282 C298 0.959 1_455 S
H283 C298 0.959 . S
H284 C298 0.961 . S
H285 C299 0.960 . S
H286 C299 0.961 . S
H287 C299 0.959 . S
H288 C302 0.929 . S
H289 C303 0.941 . S
H290 C305 0.930 . S
C291 H279 0.909 1_554 S
C291 C292 1.399 . S
C291 C296 1.399 . S
C292 C291 1.399 . S
C292 C293 1.376 1_655 S
C293 H280 0.930 . S
C293 C292 1.376 1_455 S
C293 C294 1.388 . S
C294 H281 0.930 . S
C294 C293 1.388 . S
C294 C295 1.390 . S
C295 C294 1.390 . S
C295 C296 1.394 1_455 S
C295 C301 1.465 . S
C296 C291 1.399 . S
C296 C295 1.394 1_655 S
C296 C297 1.516 1_554 S
C297 C296 1.516 1_556 S
C297 C298 1.502 . S
C297 C299 1.561 . S
C297 C300 1.526 . S
C298 H282 0.959 1_655 S
C298 H283 0.959 . S
C298 H284 0.961 . S
C298 C297 1.502 . S
C299 H285 0.960 . S
C299 H286 0.961 . S
C299 H287 0.959 . S
C299 C297 1.561 . S
C300 C297 1.526 . S
C300 C301 1.396 1_656 S
C300 C305 1.390 . S
C301 C295 1.465 . S
C301 C300 1.396 1_454 S
C301 C302 1.399 . S
C302 H288 0.929 . S
C302 C301 1.399 . S
C302 C303 1.385 1_554 S
C303 H289 0.941 . S
C303 C302 1.385 1_556 S
C303 C304 1.389 . S
C304 C303 1.389 . S
C304 C305 1.387 1_455 S
C305 H290 0.930 . S
C305 C300 1.390 . S
C305 C304 1.387 1_655 S
H306 C318 0.930 . S
H307 C320 0.915 1_554 S
H308 C321 0.930 . S
H309 C325 0.959 . S
H310 C325 0.959 . S
H311 C325 0.961 . S
H312 C326 0.960 . S
H313 C326 0.961 . S
H314 C326 0.959 . S
H315 C329 0.929 . S
H316 C330 0.931 . S
H317 C332 0.930 1_556 S
C318 H306 0.930 . S
C318 C319 1.399 . S
C318 C323 1.399 . S
C319 C318 1.399 . S
C319 C320 1.376 . S
C320 H307 0.915 1_556 S
C320 C319 1.376 . S
C320 C321 1.388 1_556 S
C321 H308 0.930 . S
C321 C320 1.388 1_554 S
C321 C322 1.390 . S
C322 C321 1.390 . S
C322 C323 1.394 1_554 S
C322 C328 1.465 . S
C323 C318 1.399 . S
C323 C322 1.394 1_556 S
C323 C324 1.516 . S
C324 C323 1.516 . S
C324 C325 1.502 . S
C324 C326 1.561 . S
C324 C327 1.530 . S
C325 H309 0.959 . S
C325 H310 0.959 . S
C325 H311 0.961 . S
C325 C324 1.502 . S
C326 H312 0.960 . S
C326 H313 0.961 . S
C326 H314 0.959 . S
C326 C324 1.561 . S
C327 C324 1.530 . S
C327 C328 1.393 1_556 S
C327 C332 1.388 1_556 S
C328 C322 1.465 . S
C328 C327 1.393 1_554 S
C328 C329 1.399 . S
C329 H315 0.929 . S
C329 C328 1.399 . S
C329 C330 1.385 . S
C330 H316 0.931 . S
C330 C329 1.385 . S
C330 C331 1.389 . S
C331 C330 1.389 . S
C331 C332 1.387 . S
C332 H317 0.930 1_554 S
C332 C327 1.388 1_554 S
C332 C331 1.387 . S
H333 C345 0.930 . S
H334 C347 0.930 . S
H335 C348 0.930 . S
H336 C352 0.959 . S
H337 C352 0.959 . S
H338 C352 0.961 . S
H339 C353 0.960 . S
H340 C353 0.961 . S
H341 C353 0.959 . S
H342 C356 0.929 . S
H343 C357 0.931 . S
H344 C359 0.930 . S
C345 H333 0.930 . S
C345 C346 1.399 . S
C345 C350 1.399 . S
C346 C345 1.399 . S
C346 C347 1.376 . S
C347 H334 0.930 . S
C347 C346 1.376 . S
C347 C348 1.388 . S
C348 H335 0.930 . S
C348 C347 1.388 . S
C348 C349 1.390 . S
C349 C348 1.390 . S
C349 C350 1.394 . S
C349 C355 1.465 . S
C350 C345 1.399 . S
C350 C349 1.394 . S
C350 C351 1.516 . S
C351 C350 1.516 . S
C351 C352 1.502 . S
C351 C353 1.561 . S
C351 C354 1.526 . S
C352 H336 0.959 . S
C352 H337 0.959 . S
C352 H338 0.961 . S
C352 C351 1.502 . S
C353 H339 0.960 . S
C353 H340 0.961 . S
C353 H341 0.959 . S
C353 C351 1.561 . S
C354 C351 1.526 . S
C354 C355 1.396 . S
C354 C359 1.390 . S
C355 C349 1.465 . S
C355 C354 1.396 . S
C355 C356 1.399 . S
C356 H342 0.929 . S
C356 C355 1.399 . S
C356 C357 1.385 . S
C357 H343 0.931 . S
C357 C356 1.385 . S
C357 C358 1.389 . S
C358 C357 1.389 . S
C358 C359 1.387 . S
C359 H344 0.930 . S
C359 C354 1.390 . S
C359 C358 1.387 . S
H360 C372 0.930 . S
H361 C374 0.930 . S
H362 C375 0.930 . S
H363 C379 0.959 . S
H364 C379 0.959 . S
H365 C379 0.961 . S
H366 C380 0.960 . S
H367 C380 0.961 . S
H368 C380 0.959 . S
H369 C383 0.929 . S
H370 C384 0.931 . S
H371 C386 0.930 . S
C372 H360 0.930 . S
C372 C373 1.399 . S
C372 C377 1.399 . S
C373 C372 1.399 . S
C373 C374 1.376 . S
C374 H361 0.930 . S
C374 C373 1.376 . S
C374 C375 1.388 . S
C375 H362 0.930 . S
C375 C374 1.388 . S
C375 C376 1.390 . S
C376 C375 1.390 . S
C376 C377 1.394 . S
C376 C382 1.465 . S
C377 C372 1.399 . S
C377 C376 1.394 . S
C377 C378 1.516 . S
C378 C377 1.516 . S
C378 C379 1.502 . S
C378 C380 1.561 . S
C378 C381 1.526 . S
C379 H363 0.959 . S
C379 H364 0.959 . S
C379 H365 0.961 . S
C379 C378 1.502 . S
C380 H366 0.960 . S
C380 H367 0.961 . S
C380 H368 0.959 . S
C380 C378 1.561 . S
C381 C378 1.526 . S
C381 C382 1.396 . S
C381 C386 1.390 . S
C382 C376 1.465 . S
C382 C381 1.396 . S
C382 C383 1.399 . S
C383 H369 0.929 . S
C383 C382 1.399 . S
C383 C384 1.385 . S
C384 H370 0.931 . S
C384 C383 1.385 . S
C384 C385 1.389 . S
C385 C384 1.389 . S
C385 C386 1.387 . S
C386 H371 0.930 . S
C386 C381 1.390 . S
C386 C385 1.387 . S
H387 C399 0.930 . S
H388 C401 0.930 . S
H389 C402 0.930 . S
H390 C406 0.959 . S
H391 C406 0.959 . S
H392 C406 0.961 . S
H393 C407 0.960 . S
H394 C407 0.961 . S
H395 C407 0.959 . S
H396 C410 0.929 . S
H397 C411 0.931 . S
H398 C413 0.930 . S
C399 H387 0.930 . S
C399 C400 1.399 . S
C399 C404 1.399 . S
C400 C399 1.399 . S
C400 C401 1.376 . S
C401 H388 0.930 . S
C401 C400 1.376 . S
C401 C402 1.388 . S
C402 H389 0.930 . S
C402 C401 1.388 . S
C402 C403 1.390 . S
C403 C402 1.390 . S
C403 C404 1.394 . S
C403 C409 1.465 . S
C404 C399 1.399 . S
C404 C403 1.394 . S
C404 C405 1.516 . S
C405 C404 1.516 . S
C405 C406 1.502 . S
C405 C407 1.561 . S
C405 C408 1.526 . S
C406 H390 0.959 . S
C406 H391 0.959 . S
C406 H392 0.961 . S
C406 C405 1.502 . S
C407 H393 0.960 . S
C407 H394 0.961 . S
C407 H395 0.959 . S
C407 C405 1.561 . S
C408 C405 1.526 . S
C408 C409 1.396 . S
C408 C413 1.390 . S
C409 C403 1.465 . S
C409 C408 1.396 . S
C409 C410 1.399 . S
C410 H396 0.929 . S
C410 C409 1.399 . S
C410 C411 1.385 . S
C411 H397 0.931 . S
C411 C410 1.385 . S
C411 C412 1.389 . S
C412 C411 1.389 . S
C412 C413 1.387 . S
C413 H398 0.930 . S
C413 C408 1.390 . S
C413 C412 1.387 . S
H414 C426 0.930 . S
H415 C428 0.930 . S
H416 C429 0.930 . S
H417 C433 0.959 . S
H418 C433 0.959 . S
H419 C433 0.961 . S
H420 C434 0.960 . S
H421 C434 0.961 . S
H422 C434 0.959 . S
H423 C437 0.929 . S
H424 C438 0.931 . S
H425 C440 0.930 . S
C426 H414 0.930 . S
C426 C427 1.399 . S
C426 C431 1.399 . S
C427 C426 1.399 . S
C427 C428 1.376 . S
C428 H415 0.930 . S
C428 C427 1.376 . S
C428 C429 1.388 . S
C429 H416 0.930 . S
C429 C428 1.388 . S
C429 C430 1.390 . S
C430 C429 1.390 . S
C430 C431 1.394 . S
C430 C436 1.465 . S
C431 C426 1.399 . S
C431 C430 1.394 . S
C431 C432 1.516 . S
C432 C431 1.516 . S
C432 C433 1.502 . S
C432 C434 1.561 . S
C432 C435 1.526 . S
C433 H417 0.959 . S
C433 H418 0.959 . S
C433 H419 0.961 . S
C433 C432 1.502 . S
C434 H420 0.960 . S
C434 H421 0.961 . S
C434 H422 0.959 . S
C434 C432 1.561 . S
C435 C432 1.526 . S
C435 C436 1.396 . S
C435 C440 1.390 . S
C436 C430 1.465 . S
C436 C435 1.396 . S
C436 C437 1.399 . S
C437 H423 0.929 . S
C437 C436 1.399 . S
C437 C438 1.385 . S
C438 H424 0.931 . S
C438 C437 1.385 . S
C438 C439 1.389 . S
C439 C438 1.389 . S
C439 C440 1.387 . S
C440 H425 0.930 . S
C440 C435 1.390 . S
C440 C439 1.387 . S
H441 C453 0.930 . S
H442 C455 0.930 . S
H443 C456 0.930 . S
H444 C460 0.959 . S
H445 C460 0.959 . S
H446 C460 0.961 . S
H447 C461 0.960 . S
H448 C461 0.961 . S
H449 C461 0.959 . S
H450 C464 0.929 . S
H451 C465 0.931 . S
H452 C467 0.930 . S
C453 H441 0.930 . S
C453 C454 1.399 . S
C453 C458 1.399 . S
C454 C453 1.399 . S
C454 C455 1.376 . S
C455 H442 0.930 . S
C455 C454 1.376 . S
C455 C456 1.388 . S
C456 H443 0.930 . S
C456 C455 1.388 . S
C456 C457 1.390 . S
C457 C456 1.390 . S
C457 C458 1.394 . S
C457 C463 1.465 . S
C458 C453 1.399 . S
C458 C457 1.394 . S
C458 C459 1.516 . S
C459 C458 1.516 . S
C459 C460 1.502 . S
C459 C461 1.561 . S
C459 C462 1.526 . S
C460 H444 0.959 . S
C460 H445 0.959 . S
C460 H446 0.961 . S
C460 C459 1.502 . S
C461 H447 0.960 . S
C461 H448 0.961 . S
C461 H449 0.959 . S
C461 C459 1.561 . S
C462 C459 1.526 . S
C462 C463 1.396 . S
C462 C467 1.390 . S
C463 C457 1.465 . S
C463 C462 1.396 . S
C463 C464 1.399 . S
C464 H450 0.929 . S
C464 C463 1.399 . S
C464 C465 1.385 . S
C465 H451 0.931 . S
C465 C464 1.385 . S
C465 C466 1.389 . S
C466 C465 1.389 . S
C466 C467 1.387 . S
C467 H452 0.930 . S
C467 C462 1.390 . S
C467 C466 1.387 . S
H468 C480 0.930 . S
H469 C482 0.930 . S
H470 C483 0.930 . S
H471 C487 0.959 . S
H472 C487 0.959 . S
H473 C487 0.961 . S
H474 C488 0.960 . S
H475 C488 0.961 . S
H476 C488 0.959 . S
H477 C491 0.929 . S
H478 C492 0.931 . S
H479 C494 0.930 . S
C480 H468 0.930 . S
C480 C481 1.399 . S
C480 C485 1.399 . S
C481 C480 1.399 . S
C481 C482 1.376 . S
C482 H469 0.930 . S
C482 C481 1.376 . S
C482 C483 1.388 . S
C483 H470 0.930 . S
C483 C482 1.388 . S
C483 C484 1.390 . S
C484 C483 1.390 . S
C484 C485 1.394 . S
C484 C490 1.465 . S
C485 C480 1.399 . S
C485 C484 1.394 . S
C485 C486 1.516 . S
C486 C485 1.516 . S
C486 C487 1.502 . S
C486 C488 1.561 . S
C486 C489 1.526 . S
C487 H471 0.959 . S
C487 H472 0.959 . S
C487 H473 0.961 . S
C487 C486 1.502 . S
C488 H474 0.960 . S
C488 H475 0.961 . S
C488 H476 0.959 . S
C488 C486 1.561 . S
C489 C486 1.526 . S
C489 C490 1.396 . S
C489 C494 1.390 . S
C490 C484 1.465 . S
C490 C489 1.396 . S
C490 C491 1.399 . S
C491 H477 0.929 . S
C491 C490 1.399 . S
C491 C492 1.385 . S
C492 H478 0.931 . S
C492 C491 1.385 . S
C492 C493 1.389 . S
C493 C492 1.389 . S
C493 C494 1.387 . S
C494 H479 0.930 . S
C494 C489 1.390 . S
C494 C493 1.387 . S
H495 C507 0.930 . S
H496 C509 0.930 . S
H497 C510 0.930 . S
H498 C514 0.959 . S
H499 C514 0.959 . S
H500 C514 0.961 . S
H501 C515 0.960 . S
H502 C515 0.961 . S
H503 C515 0.959 . S
H504 C518 0.929 . S
H505 C519 0.931 . S
H506 C521 0.930 . S
C507 H495 0.930 . S
C507 C508 1.399 . S
C507 C512 1.399 . S
C508 C507 1.399 . S
C508 C509 1.376 . S
C509 H496 0.930 . S
C509 C508 1.376 . S
C509 C510 1.388 . S
C510 H497 0.930 . S
C510 C509 1.388 . S
C510 C511 1.390 . S
C511 C510 1.390 . S
C511 C512 1.394 . S
C511 C517 1.465 . S
C512 C507 1.399 . S
C512 C511 1.394 . S
C512 C513 1.516 . S
C513 C512 1.516 . S
C513 C514 1.502 . S
C513 C515 1.561 . S
C513 C516 1.526 . S
C514 H498 0.959 . S
C514 H499 0.959 . S
C514 H500 0.961 . S
C514 C513 1.502 . S
C515 H501 0.960 . S
C515 H502 0.961 . S
C515 H503 0.959 . S
C515 C513 1.561 . S
C516 C513 1.526 . S
C516 C517 1.396 . S
C516 C521 1.390 . S
C517 C511 1.465 . S
C517 C516 1.396 . S
C517 C518 1.399 . S
C518 H504 0.929 . S
C518 C517 1.399 . S
C518 C519 1.385 . S
C519 H505 0.931 . S
C519 C518 1.385 . S
C519 C520 1.389 . S
C520 C519 1.389 . S
C520 C521 1.387 . S
C521 H506 0.930 . S
C521 C516 1.390 . S
C521 C520 1.387 . S
H522 C534 0.930 . S
H523 C536 0.930 . S
H524 C537 0.930 . S
H525 C541 0.959 . S
H526 C541 0.959 . S
H527 C541 0.961 . S
H528 C542 0.960 . S
H529 C542 0.961 . S
H530 C542 0.959 . S
H531 C545 0.929 . S
H532 C546 0.931 . S
H533 C548 0.930 . S
C534 H522 0.930 . S
C534 C535 1.399 . S
C534 C539 1.399 . S
C535 C534 1.399 . S
C535 C536 1.376 . S
C536 H523 0.930 . S
C536 C535 1.376 . S
C536 C537 1.388 . S
C537 H524 0.930 . S
C537 C536 1.388 . S
C537 C538 1.390 . S
C538 C537 1.390 . S
C538 C539 1.394 . S
C538 C544 1.465 . S
C539 C534 1.399 . S
C539 C538 1.394 . S
C539 C540 1.516 . S
C540 C539 1.516 . S
C540 C541 1.502 . S
C540 C542 1.561 . S
C540 C543 1.526 . S
C541 H525 0.959 . S
C541 H526 0.959 . S
C541 H527 0.961 . S
C541 C540 1.502 . S
C542 H528 0.960 . S
C542 H529 0.961 . S
C542 H530 0.959 . S
C542 C540 1.561 . S
C543 C540 1.526 . S
C543 C544 1.396 . S
C543 C548 1.390 . S
C544 C538 1.465 . S
C544 C543 1.396 . S
C544 C545 1.399 . S
C545 H531 0.929 . S
C545 C544 1.399 . S
C545 C546 1.385 . S
C546 H532 0.931 . S
C546 C545 1.385 . S
C546 C547 1.389 . S
C547 C546 1.389 . S
C547 C548 1.387 . S
C548 H533 0.930 . S
C548 C543 1.390 . S
C548 C547 1.387 . S
H549 C561 0.930 . S
H550 C563 0.930 . S
H551 C564 0.930 . S
H552 C568 0.959 . S
H553 C568 0.959 . S
H554 C568 0.961 . S
H555 C569 0.960 . S
H556 C569 0.961 . S
H557 C569 0.959 . S
H558 C572 0.929 . S
H559 C573 0.931 . S
H560 C575 0.930 . S
C561 H549 0.930 . S
C561 C562 1.399 . S
C561 C566 1.399 . S
C562 C561 1.399 . S
C562 C563 1.376 . S
C563 H550 0.930 . S
C563 C562 1.376 . S
C563 C564 1.388 . S
C564 H551 0.930 . S
C564 C563 1.388 . S
C564 C565 1.390 . S
C565 C564 1.390 . S
C565 C566 1.394 . S
C565 C571 1.465 . S
C566 C561 1.399 . S
C566 C565 1.394 . S
C566 C567 1.516 . S
C567 C566 1.516 . S
C567 C568 1.502 . S
C567 C569 1.561 . S
C567 C570 1.526 . S
C568 H552 0.959 . S
C568 H553 0.959 . S
C568 H554 0.961 . S
C568 C567 1.502 . S
C569 H555 0.960 . S
C569 H556 0.961 . S
C569 H557 0.959 . S
C569 C567 1.561 . S
C570 C567 1.526 . S
C570 C571 1.396 . S
C570 C575 1.390 . S
C571 C565 1.465 . S
C571 C570 1.396 . S
C571 C572 1.399 . S
C572 H558 0.929 . S
C572 C571 1.399 . S
C572 C573 1.385 . S
C573 H559 0.931 . S
C573 C572 1.385 . S
C573 C574 1.389 . S
C574 C573 1.389 . S
C574 C575 1.387 . S
C575 H560 0.930 . S
C575 C570 1.390 . S
C575 C574 1.387 . S
H576 C588 0.930 . S
H577 C590 0.930 . S
H578 C591 0.930 . S
H579 C595 0.959 . S
H580 C595 0.959 . S
H581 C595 0.961 . S
H582 C596 0.960 . S
H583 C596 0.961 . S
H584 C596 0.959 . S
H585 C599 0.929 . S
H586 C600 0.931 . S
H587 C602 0.930 . S
C588 H576 0.930 . S
C588 C589 1.399 . S
C588 C593 1.399 . S
C589 C588 1.399 . S
C589 C590 1.376 . S
C590 H577 0.930 . S
C590 C589 1.376 . S
C590 C591 1.388 . S
C591 H578 0.930 . S
C591 C590 1.388 . S
C591 C592 1.390 . S
C592 C591 1.390 . S
C592 C593 1.394 . S
C592 C598 1.465 . S
C593 C588 1.399 . S
C593 C592 1.394 . S
C593 C594 1.516 . S
C594 C593 1.516 . S
C594 C595 1.502 . S
C594 C596 1.561 . S
C594 C597 1.526 . S
C595 H579 0.959 . S
C595 H580 0.959 . S
C595 H581 0.961 . S
C595 C594 1.502 . S
C596 H582 0.960 . S
C596 H583 0.961 . S
C596 H584 0.959 . S
C596 C594 1.561 . S
C597 C594 1.526 . S
C597 C598 1.396 . S
C597 C602 1.390 . S
C598 C592 1.465 . S
C598 C597 1.396 . S
C598 C599 1.399 . S
C599 H585 0.929 . S
C599 C598 1.399 . S
C599 C600 1.385 . S
C600 H586 0.931 . S
C600 C599 1.385 . S
C600 C601 1.389 . S
C601 C600 1.389 . S
C601 C602 1.387 . S
C602 H587 0.930 . S
C602 C597 1.390 . S
C602 C601 1.387 . S
H603 C615 0.930 . S
H604 C617 0.930 . S
H605 C618 0.930 . S
H606 C622 0.959 . S
H607 C622 0.959 . S
H608 C622 0.961 . S
H609 C623 0.960 . S
H610 C623 0.961 . S
H611 C623 0.959 . S
H612 C626 0.929 . S
H613 C627 0.931 . S
H614 C629 0.930 . S
C615 H603 0.930 . S
C615 C616 1.399 . S
C615 C620 1.399 . S
C616 C615 1.399 . S
C616 C617 1.376 . S
C617 H604 0.930 . S
C617 C616 1.376 . S
C617 C618 1.388 . S
C618 H605 0.930 . S
C618 C617 1.388 . S
C618 C619 1.390 . S
C619 C618 1.390 . S
C619 C620 1.394 . S
C619 C625 1.465 . S
C620 C615 1.399 . S
C620 C619 1.394 . S
C620 C621 1.516 . S
C621 C620 1.516 . S
C621 C622 1.502 . S
C621 C623 1.561 . S
C621 C624 1.526 . S
C622 H606 0.959 . S
C622 H607 0.959 . S
C622 H608 0.961 . S
C622 C621 1.502 . S
C623 H609 0.960 . S
C623 H610 0.961 . S
C623 H611 0.959 . S
C623 C621 1.561 . S
C624 C621 1.526 . S
C624 C625 1.396 . S
C624 C629 1.390 . S
C625 C619 1.465 . S
C625 C624 1.396 . S
C625 C626 1.399 . S
C626 H612 0.929 . S
C626 C625 1.399 . S
C626 C627 1.385 . S
C627 H613 0.931 . S
C627 C626 1.385 . S
C627 C628 1.389 . S
C628 C627 1.389 . S
C628 C629 1.387 . S
C629 H614 0.930 . S
C629 C624 1.390 . S
C629 C628 1.387 . S
H630 C642 0.930 . S
H631 C644 0.930 . S
H632 C645 0.930 . S
H633 C649 0.959 . S
H634 C649 0.959 . S
H635 C649 0.961 . S
H636 C650 0.960 . S
H637 C650 0.961 . S
H638 C650 0.959 . S
H639 C653 0.929 . S
H640 C654 0.931 . S
H641 C656 0.930 . S
C642 H630 0.930 . S
C642 C643 1.399 . S
C642 C647 1.399 . S
C643 C642 1.399 . S
C643 C644 1.376 . S
C644 H631 0.930 . S
C644 C643 1.376 . S
C644 C645 1.388 . S
C645 H632 0.930 . S
C645 C644 1.388 . S
C645 C646 1.390 . S
C646 C645 1.390 . S
C646 C647 1.394 . S
C646 C652 1.465 . S
C647 C642 1.399 . S
C647 C646 1.394 . S
C647 C648 1.516 . S
C648 C647 1.516 . S
C648 C649 1.502 . S
C648 C650 1.561 . S
C648 C651 1.526 . S
C649 H633 0.959 . S
C649 H634 0.959 . S
C649 H635 0.961 . S
C649 C648 1.502 . S
C650 H636 0.960 . S
C650 H637 0.961 . S
C650 H638 0.959 . S
C650 C648 1.561 . S
C651 C648 1.526 . S
C651 C652 1.396 . S
C651 C656 1.390 . S
C652 C646 1.465 . S
C652 C651 1.396 . S
C652 C653 1.399 . S
C653 H639 0.929 . S
C653 C652 1.399 . S
C653 C654 1.385 . S
C654 H640 0.931 . S
C654 C653 1.385 . S
C654 C655 1.389 . S
C655 C654 1.389 . S
C655 C656 1.387 . S
C656 H641 0.930 . S
C656 C651 1.390 . S
C656 C655 1.387 . S
H657 C669 0.930 . S
H658 C671 0.930 . S
H659 C672 0.930 . S
H660 C676 0.959 . S
H661 C676 0.959 . S
H662 C676 0.961 . S
H663 C677 0.960 . S
H664 C677 0.961 . S
H665 C677 0.959 . S
H666 C680 0.929 . S
H667 C681 0.931 . S
H668 C683 0.930 . S
C669 H657 0.930 . S
C669 C670 1.399 1_655 S
C669 C674 1.399 . S
C670 C669 1.399 1_455 S
C670 C671 1.376 . S
C671 H658 0.930 . S
C671 C670 1.376 . S
C671 C672 1.388 . S
C672 H659 0.930 . S
C672 C671 1.388 . S
C672 C673 1.390 . S
C673 C672 1.390 . S
C673 C674 1.394 1_455 S
C673 C679 1.465 . S
C674 C669 1.399 . S
C674 C673 1.394 1_655 S
C674 C675 1.516 . S
C675 C674 1.516 . S
C675 C676 1.502 . S
C675 C677 1.561 . S
C675 C678 1.526 . S
C676 H660 0.959 . S
C676 H661 0.959 . S
C676 H662 0.961 . S
C676 C675 1.502 . S
C677 H663 0.960 . S
C677 H664 0.961 . S
C677 H665 0.959 . S
C677 C675 1.561 . S
C678 C675 1.526 . S
C678 C679 1.396 1_655 S
C678 C683 1.390 . S
C679 C673 1.465 . S
C679 C678 1.396 1_455 S
C679 C680 1.399 . S
C680 H666 0.929 . S
C680 C679 1.399 . S
C680 C681 1.385 . S
C681 H667 0.931 . S
C681 C680 1.385 . S
C681 C682 1.389 1_455 S
C682 C681 1.389 1_655 S
C682 C683 1.387 . S
C683 H668 0.930 . S
C683 C678 1.390 . S
C683 C682 1.387 . S
H684 C696 0.930 . S
H685 C698 0.930 . S
H686 C699 0.930 . S
H687 C703 0.959 . S
H688 C703 0.959 . S
H689 C703 0.961 . S
H690 C704 0.960 . S
H691 C704 0.961 . S
H692 C704 0.959 . S
H693 C707 0.929 . S
H694 C708 0.931 . S
H695 C710 0.930 . S
C696 H684 0.930 . S
C696 C697 1.399 . S
C696 C701 1.399 . S
C697 C696 1.399 . S
C697 C698 1.376 . S
C698 H685 0.930 . S
C698 C697 1.376 . S
C698 C699 1.388 . S
C699 H686 0.930 . S
C699 C698 1.388 . S
C699 C700 1.390 . S
C700 C699 1.390 . S
C700 C701 1.394 . S
C700 C706 1.465 . S
C701 C696 1.399 . S
C701 C700 1.394 . S
C701 C702 1.516 . S
C702 C701 1.516 . S
C702 C703 1.502 . S
C702 C704 1.561 . S
C702 C705 1.526 . S
C703 H687 0.959 . S
C703 H688 0.959 . S
C703 H689 0.961 . S
C703 C702 1.502 . S
C704 H690 0.960 . S
C704 H691 0.961 . S
C704 H692 0.959 . S
C704 C702 1.561 . S
C705 C702 1.526 . S
C705 C706 1.396 . S
C705 C710 1.390 . S
C706 C700 1.465 . S
C706 C705 1.396 . S
C706 C707 1.399 . S
C707 H693 0.929 . S
C707 C706 1.399 . S
C707 C708 1.385 . S
C708 H694 0.931 . S
C708 C707 1.385 . S
C708 C709 1.389 . S
C709 C708 1.389 . S
C709 C710 1.387 . S
C710 H695 0.930 . S
C710 C705 1.390 . S
C710 C709 1.387 . S
H711 C723 0.930 . S
H712 C725 0.930 . S
H713 C726 0.930 . S
H714 C730 0.959 . S
H715 C730 0.959 . S
H716 C730 0.961 . S
H717 C731 0.960 . S
H718 C731 0.961 . S
H719 C731 0.959 . S
H720 C734 0.929 . S
H721 C735 0.931 . S
H722 C737 0.930 . S
C723 H711 0.930 . S
C723 C724 1.399 . S
C723 C728 1.399 . S
C724 C723 1.399 . S
C724 C725 1.376 1_545 S
C725 H712 0.930 . S
C725 C724 1.376 1_565 S
C725 C726 1.388 . S
C726 H713 0.930 . S
C726 C725 1.388 . S
C726 C727 1.390 . S
C727 C726 1.390 . S
C727 C728 1.394 1_565 S
C727 C733 1.465 . S
C728 C723 1.399 . S
C728 C727 1.394 1_545 S
C728 C729 1.516 . S
C729 C728 1.516 . S
C729 C730 1.502 . S
C729 C731 1.561 . S
C729 C732 1.526 . S
C730 H714 0.959 . S
C730 H715 0.959 . S
C730 H716 0.961 . S
C730 C729 1.502 . S
C731 H717 0.960 . S
C731 H718 0.961 . S
C731 H719 0.959 . S
C731 C729 1.561 . S
C732 C729 1.526 . S
C732 C733 1.396 1_545 S
C732 C737 1.390 . S
C733 C727 1.465 . S
C733 C732 1.396 1_565 S
C733 C734 1.399 . S
C734 H720 0.929 . S
C734 C733 1.399 . S
C734 C735 1.385 . S
C735 H721 0.931 . S
C735 C734 1.385 . S
C735 C736 1.389 . S
C736 C735 1.389 . S
C736 C737 1.387 1_565 S
C737 H722 0.930 . S
C737 C732 1.390 . S
C737 C736 1.387 1_545 S
H738 C750 0.930 . S
H739 C752 0.939 . S
H740 C753 0.930 . S
H741 C757 0.959 . S
H742 C757 0.959 . S
H743 C757 0.961 . S
H744 C758 0.960 . S
H745 C758 0.961 . S
H746 C758 0.959 . S
H747 C761 0.929 . S
H748 C762 0.931 . S
H749 C764 0.930 1_554 S
C750 H738 0.930 . S
C750 C751 1.399 . S
C750 C755 1.399 . S
C751 C750 1.399 . S
C751 C752 1.352 1_554 S
C752 H739 0.939 . S
C752 C751 1.352 1_556 S
C752 C753 1.404 . S
C753 H740 0.930 . S
C753 C752 1.404 . S
C753 C754 1.390 . S
C754 C753 1.390 . S
C754 C755 1.394 1_556 S
C754 C760 1.465 . S
C755 C750 1.399 . S
C755 C754 1.394 1_554 S
C755 C756 1.516 . S
C756 C755 1.516 . S
C756 C757 1.502 . S
C756 C758 1.561 . S
C756 C759 1.526 1_554 S
C757 H741 0.959 . S
C757 H742 0.959 . S
C757 H743 0.961 . S
C757 C756 1.502 . S
C758 H744 0.960 . S
C758 H745 0.961 . S
C758 H746 0.959 . S
C758 C756 1.561 . S
C759 C756 1.526 1_556 S
C759 C760 1.396 . S
C759 C764 1.390 . S
C760 C754 1.465 . S
C760 C759 1.396 . S
C760 C761 1.399 . S
C761 H747 0.929 . S
C761 C760 1.399 . S
C761 C762 1.385 . S
C762 H748 0.931 . S
C762 C761 1.385 . S
C762 C763 1.389 . S
C763 C762 1.389 . S
C763 C764 1.387 . S
C764 H749 0.930 1_556 S
C764 C759 1.390 . S
C764 C763 1.387 . S
H765 C777 0.930 . S
H766 C779 0.930 1_655 S
H767 C780 0.930 . S
H768 C784 0.959 . S
H769 C784 0.959 . S
H770 C784 0.961 . S
H771 C785 0.960 . S
H772 C785 0.961 . S
H773 C785 0.959 . S
H774 C788 0.929 . S
H775 C789 0.931 . S
H776 C791 0.930 1_554 S
C777 H765 0.930 . S
C777 C778 1.399 . S
C777 C782 1.399 . S
C778 C777 1.399 . S
C778 C779 1.376 1_554 S
C779 H766 0.930 1_455 S
C779 C778 1.376 1_556 S
C779 C780 1.388 . S
C780 H767 0.930 . S
C780 C779 1.388 . S
C780 C781 1.390 . S
C781 C780 1.390 . S
C781 C782 1.394 1_556 S
C781 C787 1.465 . S
C782 C777 1.399 . S
C782 C781 1.394 1_554 S
C782 C783 1.516 . S
C783 C782 1.516 . S
C783 C784 1.502 . S
C783 C785 1.561 . S
C783 C786 1.510 1_554 S
C784 H768 0.959 . S
C784 H769 0.959 . S
C784 H770 0.961 . S
C784 C783 1.502 . S
C785 H771 0.960 . S
C785 H772 0.961 . S
C785 H773 0.959 . S
C785 C783 1.561 . S
C786 C783 1.510 1_556 S
C786 C787 1.409 . S
C786 C791 1.394 . S
C787 C781 1.465 . S
C787 C786 1.409 . S
C787 C788 1.399 . S
C788 H774 0.929 . S
C788 C787 1.399 . S
C788 C789 1.385 . S
C789 H775 0.931 . S
C789 C788 1.385 . S
C789 C790 1.389 . S
C790 C789 1.389 . S
C790 C791 1.387 . S
C791 H776 0.930 1_556 S
C791 C786 1.394 . S
C791 C790 1.387 . S
H792 C804 0.930 1_556 S
H793 C806 0.930 . S
H794 C807 0.930 . S
H795 C811 0.959 . S
H796 C811 0.959 . S
H797 C811 0.961 . S
H798 C812 0.960 . S
H799 C812 0.961 . S
H800 C812 0.959 . S
H801 C815 0.929 . S
H802 C816 0.931 1_554 S
H803 C818 0.930 . S
C804 H792 0.930 1_554 S
C804 C805 1.399 . S
C804 C809 1.395 1_554 S
C805 C804 1.399 . S
C805 C806 1.376 . S
C806 H793 0.930 . S
C806 C805 1.376 . S
C806 C807 1.388 . S
C807 H794 0.930 . S
C807 C806 1.388 . S
C807 C808 1.390 . S
C808 C807 1.390 . S
C808 C809 1.383 1_554 S
C808 C814 1.465 . S
C809 C804 1.395 1_556 S
C809 C808 1.383 1_556 S
C809 C810 1.530 . S
C810 C809 1.530 . S
C810 C811 1.502 . S
C810 C812 1.561 . S
C810 C813 1.526 . S
C811 H795 0.959 . S
C811 H796 0.959 . S
C811 H797 0.961 . S
C811 C810 1.502 . S
C812 H798 0.960 . S
C812 H799 0.961 . S
C812 H800 0.959 . S
C812 C810 1.561 . S
C813 C810 1.526 . S
C813 C814 1.396 1_556 S
C813 C818 1.390 . S
C814 C808 1.465 . S
C814 C813 1.396 1_554 S
C814 C815 1.399 . S
C815 H801 0.929 . S
C815 C814 1.399 . S
C815 C816 1.385 1_554 S
C816 H802 0.931 1_556 S
C816 C815 1.385 1_556 S
C816 C817 1.389 . S
C817 C816 1.389 . S
C817 C818 1.387 . S
C818 H803 0.930 . S
C818 C813 1.390 . S
C818 C817 1.387 . S
H819 C831 0.930 1_554 S
H820 C833 0.930 . S
H821 C834 0.930 . S
H822 C838 0.959 . S
H823 C838 0.959 . S
H824 C838 0.961 . S
H825 C839 0.960 . S
H826 C839 0.961 . S
H827 C839 0.959 . S
H828 C842 0.929 . S
H829 C843 0.944 . S
H830 C845 0.930 . S
C831 H819 0.930 1_556 S
C831 C832 1.399 . S
C831 C836 1.399 1_556 S
C832 C831 1.399 . S
C832 C833 1.376 . S
C833 H820 0.930 . S
C833 C832 1.376 . S
C833 C834 1.388 . S
C834 H821 0.930 . S
C834 C833 1.388 . S
C834 C835 1.390 . S
C835 C834 1.390 . S
C835 C836 1.394 1_556 S
C835 C841 1.465 . S
C836 C831 1.399 1_554 S
C836 C835 1.394 1_554 S
C836 C837 1.516 . S
C837 C836 1.516 . S
C837 C838 1.502 . S
C837 C839 1.561 . S
C837 C840 1.526 . S
C838 H822 0.959 . S
C838 H823 0.959 . S
C838 H824 0.961 . S
C838 C837 1.502 . S
C839 H825 0.960 . S
C839 H826 0.961 . S
C839 H827 0.959 . S
C839 C837 1.561 . S
C840 C837 1.526 . S
C840 C841 1.396 1_554 S
C840 C845 1.390 . S
C841 C835 1.465 . S
C841 C840 1.396 1_556 S
C841 C842 1.399 . S
C842 H828 0.929 . S
C842 C841 1.399 . S
C842 C843 1.404 . S
C843 H829 0.944 . S
C843 C842 1.404 . S
C843 C844 1.359 1_556 S
C844 C843 1.359 1_554 S
C844 C845 1.387 . S
C845 H830 0.930 . S
C845 C840 1.390 . S
C845 C844 1.387 . S
H846 C858 0.930 . S
H847 C860 0.930 . S
H848 C861 0.930 . S
H849 C865 0.959 . S
H850 C865 0.959 . S
H851 C865 0.961 . S
H852 C866 0.960 . S
H853 C866 0.951 1_556 S
H854 C866 0.959 . S
H855 C869 0.929 . S
H856 C870 0.931 . S
H857 C872 0.930 . S
C858 H846 0.930 . S
C858 C859 1.399 . S
C858 C863 1.399 . S
C859 C858 1.399 . S
C859 C860 1.376 . S
C860 H847 0.930 . S
C860 C859 1.376 . S
C860 C861 1.388 . S
C861 H848 0.930 . S
C861 C860 1.388 . S
C861 C862 1.390 . S
C862 C861 1.390 . S
C862 C863 1.394 . S
C862 C868 1.465 . S
C863 C858 1.399 . S
C863 C862 1.394 . S
C863 C864 1.516 1_554 S
C864 C863 1.516 1_556 S
C864 C865 1.502 . S
C864 C866 1.561 1_556 S
C864 C867 1.526 . S
C865 H849 0.959 . S
C865 H850 0.959 . S
C865 H851 0.961 . S
C865 C864 1.502 . S
C866 H852 0.960 . S
C866 H853 0.951 1_554 S
C866 H854 0.959 . S
C866 C864 1.561 1_554 S
C867 C864 1.526 . S
C867 C868 1.396 1_556 S
C867 C872 1.390 . S
C868 C862 1.465 . S
C868 C867 1.396 1_554 S
C868 C869 1.399 . S
C869 H855 0.929 . S
C869 C868 1.399 . S
C869 C870 1.385 1_554 S
C870 H856 0.931 . S
C870 C869 1.385 1_556 S
C870 C871 1.389 . S
C871 C870 1.389 . S
C871 C872 1.387 . S
C872 H857 0.930 . S
C872 C867 1.390 . S
C872 C871 1.387 . S
H873 C885 0.930 . S
H874 C887 0.930 . S
H875 C888 0.930 . S
H876 C892 0.959 . S
H877 C892 0.963 . S
H878 C892 0.961 . S
H879 C893 0.960 . S
H880 C893 0.961 . S
H881 C893 0.959 . S
H882 C896 0.929 . S
H883 C897 0.931 . S
H884 C899 0.930 . S
C885 H873 0.930 . S
C885 C886 1.399 . S
C885 C890 1.399 . S
C886 C885 1.399 . S
C886 C887 1.376 . S
C887 H874 0.930 . S
C887 C886 1.376 . S
C887 C888 1.388 . S
C888 H875 0.930 . S
C888 C887 1.388 . S
C888 C889 1.390 . S
C889 C888 1.390 . S
C889 C890 1.394 . S
C889 C895 1.465 1_556 S
C890 C885 1.399 . S
C890 C889 1.394 . S
C890 C891 1.516 1_556 S
C891 C890 1.516 1_554 S
C891 C892 1.502 1_554 S
C891 C893 1.561 . S
C891 C894 1.526 . S
C892 H876 0.959 . S
C892 H877 0.963 . S
C892 H878 0.961 . S
C892 C891 1.502 1_556 S
C893 H879 0.960 . S
C893 H880 0.961 . S
C893 H881 0.959 . S
C893 C891 1.561 . S
C894 C891 1.526 . S
C894 C895 1.396 . S
C894 C899 1.390 . S
C895 C889 1.465 1_554 S
C895 C894 1.396 . S
C895 C896 1.399 . S
C896 H882 0.929 . S
C896 C895 1.399 . S
C896 C897 1.385 . S
C897 H883 0.931 . S
C897 C896 1.385 . S
C897 C898 1.389 . S
C898 C897 1.389 . S
C898 C899 1.387 . S
C899 H884 0.930 . S
C899 C894 1.390 . S
C899 C898 1.387 . S
H900 C912 0.930 . S
H901 C914 0.930 . S
H902 C915 0.930 . S
H903 C919 0.959 . S
H904 C919 0.959 . S
H905 C919 0.961 . S
H906 C920 0.960 . S
H907 C920 0.961 . S
H908 C920 0.959 . S
H909 C923 0.929 . S
H910 C924 0.931 . S
H911 C926 0.930 . S
C912 H900 0.930 . S
C912 C913 1.399 . S
C912 C917 1.399 . S
C913 C912 1.399 . S
C913 C914 1.376 . S
C914 H901 0.930 . S
C914 C913 1.376 . S
C914 C915 1.388 . S
C915 H902 0.930 . S
C915 C914 1.388 . S
C915 C916 1.390 . S
C916 C915 1.390 . S
C916 C917 1.394 . S
C916 C922 1.465 . S
C917 C912 1.399 . S
C917 C916 1.394 . S
C917 C918 1.516 . S
C918 C917 1.516 . S
C918 C919 1.502 . S
C918 C920 1.561 . S
C918 C921 1.526 . S
C919 H903 0.959 . S
C919 H904 0.959 . S
C919 H905 0.961 . S
C919 C918 1.502 . S
C920 H906 0.960 . S
C920 H907 0.961 . S
C920 H908 0.959 . S
C920 C918 1.561 . S
C921 C918 1.526 . S
C921 C922 1.396 . S
C921 C926 1.390 . S
C922 C916 1.465 . S
C922 C921 1.396 . S
C922 C923 1.399 . S
C923 H909 0.929 . S
C923 C922 1.399 . S
C923 C924 1.385 . S
C924 H910 0.931 . S
C924 C923 1.385 . S
C924 C925 1.389 . S
C925 C924 1.389 . S
C925 C926 1.387 . S
C926 H911 0.930 . S
C926 C921 1.390 . S
C926 C925 1.387 . S
H927 C939 0.930 . S
H928 C941 0.930 . S
H929 C942 0.930 . S
H930 C946 0.959 . S
H931 C946 0.959 . S
H932 C946 0.961 . S
H933 C947 0.960 . S
H934 C947 0.961 . S
H935 C947 0.959 . S
H936 C950 0.929 . S
H937 C951 0.931 . S
H938 C953 0.930 . S
C939 H927 0.930 . S
C939 C940 1.399 . S
C939 C944 1.399 . S
C940 C939 1.399 . S
C940 C941 1.376 . S
C941 H928 0.930 . S
C941 C940 1.376 . S
C941 C942 1.388 . S
C942 H929 0.930 . S
C942 C941 1.388 . S
C942 C943 1.390 . S
C943 C942 1.390 . S
C943 C944 1.394 . S
C943 C949 1.465 . S
C944 C939 1.399 . S
C944 C943 1.394 . S
C944 C945 1.516 . S
C945 C944 1.516 . S
C945 C946 1.502 . S
C945 C947 1.561 . S
C945 C948 1.526 . S
C946 H930 0.959 . S
C946 H931 0.959 . S
C946 H932 0.961 . S
C946 C945 1.502 . S
C947 H933 0.960 . S
C947 H934 0.961 . S
C947 H935 0.959 . S
C947 C945 1.561 . S
C948 C945 1.526 . S
C948 C949 1.396 . S
C948 C953 1.390 . S
C949 C943 1.465 . S
C949 C948 1.396 . S
C949 C950 1.399 . S
C950 H936 0.929 . S
C950 C949 1.399 . S
C950 C951 1.385 . S
C951 H937 0.931 . S
C951 C950 1.385 . S
C951 C952 1.389 . S
C952 C951 1.389 . S
C952 C953 1.387 . S
C953 H938 0.930 . S
C953 C948 1.390 . S
C953 C952 1.387 . S
H954 C966 0.930 . S
H955 C968 0.930 . S
H956 C969 0.930 . S
H957 C973 0.959 . S
H958 C973 0.959 . S
H959 C973 0.961 . S
H960 C974 0.960 . S
H961 C974 0.961 . S
H962 C974 0.959 . S
H963 C977 0.929 . S
H964 C978 0.931 . S
H965 C980 0.930 . S
C966 H954 0.930 . S
C966 C967 1.399 . S
C966 C971 1.399 . S
C967 C966 1.399 . S
C967 C968 1.376 . S
C968 H955 0.930 . S
C968 C967 1.376 . S
C968 C969 1.388 . S
C969 H956 0.930 . S
C969 C968 1.388 . S
C969 C970 1.390 . S
C970 C969 1.390 . S
C970 C971 1.394 . S
C970 C976 1.465 . S
C971 C966 1.399 . S
C971 C970 1.394 . S
C971 C972 1.516 . S
C972 C971 1.516 . S
C972 C973 1.502 . S
C972 C974 1.561 . S
C972 C975 1.526 . S
C973 H957 0.959 . S
C973 H958 0.959 . S
C973 H959 0.961 . S
C973 C972 1.502 . S
C974 H960 0.960 . S
C974 H961 0.961 . S
C974 H962 0.959 . S
C974 C972 1.561 . S
C975 C972 1.526 . S
C975 C976 1.396 . S
C975 C980 1.390 . S
C976 C970 1.465 . S
C976 C975 1.396 . S
C976 C977 1.399 . S
C977 H963 0.929 . S
C977 C976 1.399 . S
C977 C978 1.385 . S
C978 H964 0.931 . S
C978 C977 1.385 . S
C978 C979 1.389 . S
C979 C978 1.389 . S
C979 C980 1.387 . S
C980 H965 0.930 . S
C980 C975 1.390 . S
C980 C979 1.387 . S
H981 C993 0.930 . S
H982 C995 0.930 . S
H983 C996 0.930 . S
H984 C1000 0.959 . S
H985 C1000 0.959 . S
H986 C1000 0.961 . S
H987 C1001 0.960 . S
H988 C1001 0.961 . S
H989 C1001 0.959 . S
H990 C1004 0.929 . S
H991 C1005 0.931 . S
H992 C1007 0.930 . S
C993 H981 0.930 . S
C993 C994 1.399 . S
C993 C998 1.399 . S
C994 C993 1.399 . S
C994 C995 1.376 . S
C995 H982 0.930 . S
C995 C994 1.376 . S
C995 C996 1.388 . S
C996 H983 0.930 . S
C996 C995 1.388 . S
C996 C997 1.390 . S
C997 C996 1.390 . S
C997 C998 1.394 . S
C997 C1003 1.465 . S
C998 C993 1.399 . S
C998 C997 1.394 . S
C998 C999 1.516 . S
C999 C998 1.516 . S
C999 C1000 1.502 . S
C999 C1001 1.561 . S
C999 C1002 1.526 . S
C1000 H984 0.959 . S
C1000 H985 0.959 . S
C1000 H986 0.961 . S
C1000 C999 1.502 . S
C1001 H987 0.960 . S
C1001 H988 0.961 . S
C1001 H989 0.959 . S
C1001 C999 1.561 . S
C1002 C999 1.526 . S
C1002 C1003 1.396 . S
C1002 C1007 1.390 . S
C1003 C997 1.465 . S
C1003 C1002 1.396 . S
C1003 C1004 1.399 . S
C1004 H990 0.929 . S
C1004 C1003 1.399 . S
C1004 C1005 1.385 . S
C1005 H991 0.931 . S
C1005 C1004 1.385 . S
C1005 C1006 1.389 . S
C1006 C1005 1.389 . S
C1006 C1007 1.387 . S
C1007 H992 0.930 . S
C1007 C1002 1.390 . S
C1007 C1006 1.387 . S
H1008 C1020 0.930 . S
H1009 C1022 0.930 . S
H1010 C1023 0.930 . S
H1011 C1027 0.959 1_545 S
H1012 C1027 0.959 . S
H1013 C1027 0.961 . S
H1014 C1028 0.960 . S
H1015 C1028 0.961 . S
H1016 C1028 0.959 . S
H1017 C1031 0.929 . S
H1018 C1032 0.931 . S
H1019 C1034 0.930 1_565 S
C1020 H1008 0.930 . S
C1020 C1021 1.399 . S
C1020 C1025 1.399 . S
C1021 C1020 1.399 . S
C1021 C1022 1.376 . S
C1022 H1009 0.930 . S
C1022 C1021 1.376 . S
C1022 C1023 1.388 . S
C1023 H1010 0.930 . S
C1023 C1022 1.388 . S
C1023 C1024 1.390 . S
C1024 C1023 1.390 . S
C1024 C1025 1.394 . S
C1024 C1030 1.465 . S
C1025 C1020 1.399 . S
C1025 C1024 1.394 . S
C1025 C1026 1.516 . S
C1026 C1025 1.516 . S
C1026 C1027 1.502 1_545 S
C1026 C1028 1.561 1_545 S
C1026 C1029 1.526 . S
C1027 H1011 0.959 1_565 S
C1027 H1012 0.959 . S
C1027 H1013 0.961 . S
C1027 C1026 1.502 1_565 S
C1028 H1014 0.960 . S
C1028 H1015 0.961 . S
C1028 H1016 0.959 . S
C1028 C1026 1.561 1_565 S
C1029 C1026 1.526 . S
C1029 C1030 1.396 . S
C1029 C1034 1.390 . S
C1030 C1024 1.465 . S
C1030 C1029 1.396 . S
C1030 C1031 1.399 . S
C1031 H1017 0.929 . S
C1031 C1030 1.399 . S
C1031 C1032 1.385 . S
C1032 H1018 0.931 . S
C1032 C1031 1.385 . S
C1032 C1033 1.389 . S
C1033 C1032 1.389 . S
C1033 C1034 1.387 . S
C1034 H1019 0.930 1_545 S
C1034 C1029 1.390 . S
C1034 C1033 1.387 . S
H1035 C1047 0.930 . S
H1036 C1049 0.930 . S
H1037 C1050 0.930 . S
H1038 C1054 0.959 . S
H1039 C1054 0.959 . S
H1040 C1054 0.961 . S
H1041 C1055 0.960 . S
H1042 C1055 0.961 . S
H1043 C1055 0.959 . S
H1044 C1058 0.929 . S
H1045 C1059 0.931 . S
H1046 C1061 0.930 . S
C1047 H1035 0.930 . S
C1047 C1048 1.399 . S
C1047 C1052 1.399 . S
C1048 C1047 1.399 . S
C1048 C1049 1.376 . S
C1049 H1036 0.930 . S
C1049 C1048 1.376 . S
C1049 C1050 1.388 . S
C1050 H1037 0.930 . S
C1050 C1049 1.388 . S
C1050 C1051 1.390 . S
C1051 C1050 1.390 . S
C1051 C1052 1.394 . S
C1051 C1057 1.465 . S
C1052 C1047 1.399 . S
C1052 C1051 1.394 . S
C1052 C1053 1.516 . S
C1053 C1052 1.516 . S
C1053 C1054 1.502 1_655 S
C1053 C1055 1.561 . S
C1053 C1056 1.526 . S
C1054 H1038 0.959 . S
C1054 H1039 0.959 . S
C1054 H1040 0.961 . S
C1054 C1053 1.502 1_455 S
C1055 H1041 0.960 . S
C1055 H1042 0.961 . S
C1055 H1043 0.959 . S
C1055 C1053 1.561 . S
C1056 C1053 1.526 . S
C1056 C1057 1.396 . S
C1056 C1061 1.390 . S
C1057 C1051 1.465 . S
C1057 C1056 1.396 . S
C1057 C1058 1.399 . S
C1058 H1044 0.929 . S
C1058 C1057 1.399 . S
C1058 C1059 1.385 . S
C1059 H1045 0.931 . S
C1059 C1058 1.385 . S
C1059 C1060 1.389 . S
C1060 C1059 1.389 . S
C1060 C1061 1.387 . S
C1061 H1046 0.930 . S
C1061 C1056 1.390 . S
C1061 C1060 1.387 . S
H1062 C1074 0.930 . S
H1063 C1076 0.930 . S
H1064 C1077 0.930 . S
H1065 C1081 0.959 . S
H1066 C1081 0.959 . S
H1067 C1081 0.961 . S
H1068 C1082 0.960 . S
H1069 C1082 0.961 . S
H1070 C1082 0.959 . S
H1071 C1085 0.929 . S
H1072 C1086 0.931 . S
H1073 C1088 0.930 . S
C1074 H1062 0.930 . S
C1074 C1075 1.399 . S
C1074 C1079 1.399 . S
C1075 C1074 1.399 . S
C1075 C1076 1.376 . S
C1076 H1063 0.930 . S
C1076 C1075 1.376 . S
C1076 C1077 1.388 . S
C1077 H1064 0.930 . S
C1077 C1076 1.388 . S
C1077 C1078 1.390 . S
C1078 C1077 1.390 . S
C1078 C1079 1.394 . S
C1078 C1084 1.465 . S
C1079 C1074 1.399 . S
C1079 C1078 1.394 . S
C1079 C1080 1.516 . S
C1080 C1079 1.516 . S
C1080 C1081 1.502 . S
C1080 C1082 1.561 . S
C1080 C1083 1.526 . S
C1081 H1065 0.959 . S
C1081 H1066 0.959 . S
C1081 H1067 0.961 . S
C1081 C1080 1.502 . S
C1082 H1068 0.960 . S
C1082 H1069 0.961 . S
C1082 H1070 0.959 . S
C1082 C1080 1.561 . S
C1083 C1080 1.526 . S
C1083 C1084 1.396 . S
C1083 C1088 1.390 . S
C1084 C1078 1.465 . S
C1084 C1083 1.396 . S
C1084 C1085 1.399 . S
C1085 H1071 0.929 . S
C1085 C1084 1.399 . S
C1085 C1086 1.385 . S
C1086 H1072 0.931 . S
C1086 C1085 1.385 . S
C1086 C1087 1.389 . S
C1087 C1086 1.389 . S
C1087 C1088 1.387 . S
C1088 H1073 0.930 . S
C1088 C1083 1.390 . S
C1088 C1087 1.387 . S
H1089 C1101 0.930 . S
H1090 C1103 0.930 . S
H1091 C1104 0.930 . S
H1092 C1108 0.959 . S
H1093 C1108 0.959 . S
H1094 C1108 0.961 . S
H1095 C1109 0.960 . S
H1096 C1109 0.961 . S
H1097 C1109 0.959 . S
H1098 C1112 0.929 1_545 S
H1099 C1113 0.931 . S
H1100 C1115 0.930 . S
C1101 H1089 0.930 . S
C1101 C1102 1.399 . S
C1101 C1106 1.399 . S
C1102 C1101 1.399 . S
C1102 C1103 1.376 1_565 S
C1103 H1090 0.930 . S
C1103 C1102 1.376 1_545 S
C1103 C1104 1.388 . S
C1104 H1091 0.930 . S
C1104 C1103 1.388 . S
C1104 C1105 1.390 1_545 S
C1105 C1104 1.390 1_565 S
C1105 C1106 1.394 . S
C1105 C1111 1.465 . S
C1106 C1101 1.399 . S
C1106 C1105 1.394 . S
C1106 C1107 1.516 . S
C1107 C1106 1.516 . S
C1107 C1108 1.502 . S
C1107 C1109 1.561 . S
C1107 C1110 1.526 . S
C1108 H1092 0.959 . S
C1108 H1093 0.959 . S
C1108 H1094 0.961 . S
C1108 C1107 1.502 . S
C1109 H1095 0.960 . S
C1109 H1096 0.961 . S
C1109 H1097 0.959 . S
C1109 C1107 1.561 . S
C1110 C1107 1.526 . S
C1110 C1111 1.396 . S
C1110 C1115 1.390 . S
C1111 C1105 1.465 . S
C1111 C1110 1.396 . S
C1111 C1112 1.399 . S
C1112 H1098 0.929 1_565 S
C1112 C1111 1.399 . S
C1112 C1113 1.385 . S
C1113 H1099 0.931 . S
C1113 C1112 1.385 . S
C1113 C1114 1.389 . S
C1114 C1113 1.389 . S
C1114 C1115 1.387 . S
C1115 H1100 0.930 . S
C1115 C1110 1.390 . S
C1115 C1114 1.387 . S
H1116 C1128 0.930 . S
H1117 C1130 0.930 . S
H1118 C1131 0.930 . S
H1119 C1135 0.959 . S
H1120 C1135 0.959 . S
H1121 C1135 0.961 . S
H1122 C1136 0.960 . S
H1123 C1136 0.961 . S
H1124 C1136 0.959 . S
H1125 C1139 0.929 . S
H1126 C1140 0.931 . S
H1127 C1142 0.930 . S
C1128 H1116 0.930 . S
C1128 C1129 1.399 . S
C1128 C1133 1.399 . S
C1129 C1128 1.399 . S
C1129 C1130 1.376 . S
C1130 H1117 0.930 . S
C1130 C1129 1.376 . S
C1130 C1131 1.388 . S
C1131 H1118 0.930 . S
C1131 C1130 1.388 . S
C1131 C1132 1.390 . S
C1132 C1131 1.390 . S
C1132 C1133 1.394 . S
C1132 C1138 1.465 . S
C1133 C1128 1.399 . S
C1133 C1132 1.394 . S
C1133 C1134 1.516 . S
C1134 C1133 1.516 . S
C1134 C1135 1.502 . S
C1134 C1136 1.561 1_455 S
C1134 C1137 1.526 . S
C1135 H1119 0.959 . S
C1135 H1120 0.959 . S
C1135 H1121 0.961 . S
C1135 C1134 1.502 . S
C1136 H1122 0.960 . S
C1136 H1123 0.961 . S
C1136 H1124 0.959 . S
C1136 C1134 1.561 1_655 S
C1137 C1134 1.526 . S
C1137 C1138 1.396 . S
C1137 C1142 1.390 . S
C1138 C1132 1.465 . S
C1138 C1137 1.396 . S
C1138 C1139 1.399 . S
C1139 H1125 0.929 . S
C1139 C1138 1.399 . S
C1139 C1140 1.385 . S
C1140 H1126 0.931 . S
C1140 C1139 1.385 . S
C1140 C1141 1.389 . S
C1141 C1140 1.389 . S
C1141 C1142 1.387 . S
C1142 H1127 0.930 . S
C1142 C1137 1.390 . S
C1142 C1141 1.387 . S
H1143 C1155 0.930 . S
H1144 C1157 0.930 . S
H1145 C1158 0.930 . S
H1146 C1162 0.959 . S
H1147 C1162 0.959 . S
H1148 C1162 0.961 . S
H1149 C1163 0.960 . S
H1150 C1163 0.961 . S
H1151 C1163 0.959 . S
H1152 C1166 0.929 . S
H1153 C1167 0.931 . S
H1154 C1169 0.930 . S
C1155 H1143 0.930 . S
C1155 C1156 1.399 . S
C1155 C1160 1.399 . S
C1156 C1155 1.399 . S
C1156 C1157 1.376 . S
C1157 H1144 0.930 . S
C1157 C1156 1.376 . S
C1157 C1158 1.388 . S
C1158 H1145 0.930 . S
C1158 C1157 1.388 . S
C1158 C1159 1.390 . S
C1159 C1158 1.390 . S
C1159 C1160 1.394 . S
C1159 C1165 1.465 . S
C1160 C1155 1.399 . S
C1160 C1159 1.394 . S
C1160 C1161 1.516 . S
C1161 C1160 1.516 . S
C1161 C1162 1.502 . S
C1161 C1163 1.561 . S
C1161 C1164 1.526 . S
C1162 H1146 0.959 . S
C1162 H1147 0.959 . S
C1162 H1148 0.961 . S
C1162 C1161 1.502 . S
C1163 H1149 0.960 . S
C1163 H1150 0.961 . S
C1163 H1151 0.959 . S
C1163 C1161 1.561 . S
C1164 C1161 1.526 . S
C1164 C1165 1.396 . S
C1164 C1169 1.390 . S
C1165 C1159 1.465 . S
C1165 C1164 1.396 . S
C1165 C1166 1.399 . S
C1166 H1152 0.929 . S
C1166 C1165 1.399 . S
C1166 C1167 1.385 . S
C1167 H1153 0.931 . S
C1167 C1166 1.385 . S
C1167 C1168 1.389 . S
C1168 C1167 1.389 . S
C1168 C1169 1.387 . S
C1169 H1154 0.930 . S
C1169 C1164 1.390 . S
C1169 C1168 1.387 . S
H1170 C1182 0.930 . S
H1171 C1184 0.930 . S
H1172 C1185 0.930 . S
H1173 C1189 0.959 . S
H1174 C1189 0.959 . S
H1175 C1189 0.961 . S
H1176 C1190 0.960 . S
H1177 C1190 0.961 . S
H1178 C1190 0.959 . S
H1179 C1193 0.929 . S
H1180 C1194 0.931 . S
H1181 C1196 0.930 . S
C1182 H1170 0.930 . S
C1182 C1183 1.399 . S
C1182 C1187 1.399 . S
C1183 C1182 1.399 . S
C1183 C1184 1.376 . S
C1184 H1171 0.930 . S
C1184 C1183 1.376 . S
C1184 C1185 1.388 . S
C1185 H1172 0.930 . S
C1185 C1184 1.388 . S
C1185 C1186 1.390 . S
C1186 C1185 1.390 . S
C1186 C1187 1.394 . S
C1186 C1192 1.465 . S
C1187 C1182 1.399 . S
C1187 C1186 1.394 . S
C1187 C1188 1.516 . S
C1188 C1187 1.516 . S
C1188 C1189 1.502 . S
C1188 C1190 1.561 . S
C1188 C1191 1.526 . S
C1189 H1173 0.959 . S
C1189 H1174 0.959 . S
C1189 H1175 0.961 . S
C1189 C1188 1.502 . S
C1190 H1176 0.960 . S
C1190 H1177 0.961 . S
C1190 H1178 0.959 . S
C1190 C1188 1.561 . S
C1191 C1188 1.526 . S
C1191 C1192 1.396 . S
C1191 C1196 1.390 . S
C1192 C1186 1.465 . S
C1192 C1191 1.396 . S
C1192 C1193 1.399 . S
C1193 H1179 0.929 . S
C1193 C1192 1.399 . S
C1193 C1194 1.385 . S
C1194 H1180 0.931 . S
C1194 C1193 1.385 . S
C1194 C1195 1.389 . S
C1195 C1194 1.389 . S
C1195 C1196 1.387 . S
C1196 H1181 0.930 . S
C1196 C1191 1.390 . S
C1196 C1195 1.387 . S
H1197 C1209 0.930 . S
H1198 C1211 0.930 . S
H1199 C1212 0.930 . S
H1200 C1216 0.959 . S
H1201 C1216 0.959 . S
H1202 C1216 0.961 . S
H1203 C1217 0.960 . S
H1204 C1217 0.961 . S
H1205 C1217 0.959 . S
H1206 C1220 0.929 . S
H1207 C1221 0.931 . S
H1208 C1223 0.930 . S
C1209 H1197 0.930 . S
C1209 C1210 1.399 . S
C1209 C1214 1.399 . S
C1210 C1209 1.399 . S
C1210 C1211 1.376 . S
C1211 H1198 0.930 . S
C1211 C1210 1.376 . S
C1211 C1212 1.388 . S
C1212 H1199 0.930 . S
C1212 C1211 1.388 . S
C1212 C1213 1.390 . S
C1213 C1212 1.390 . S
C1213 C1214 1.394 . S
C1213 C1219 1.465 . S
C1214 C1209 1.399 . S
C1214 C1213 1.394 . S
C1214 C1215 1.516 . S
C1215 C1214 1.516 . S
C1215 C1216 1.502 . S
C1215 C1217 1.561 . S
C1215 C1218 1.526 . S
C1216 H1200 0.959 . S
C1216 H1201 0.959 . S
C1216 H1202 0.961 . S
C1216 C1215 1.502 . S
C1217 H1203 0.960 . S
C1217 H1204 0.961 . S
C1217 H1205 0.959 . S
C1217 C1215 1.561 . S
C1218 C1215 1.526 . S
C1218 C1219 1.396 . S
C1218 C1223 1.390 . S
C1219 C1213 1.465 . S
C1219 C1218 1.396 . S
C1219 C1220 1.399 . S
C1220 H1206 0.929 . S
C1220 C1219 1.399 . S
C1220 C1221 1.385 . S
C1221 H1207 0.931 . S
C1221 C1220 1.385 . S
C1221 C1222 1.389 . S
C1222 C1221 1.389 . S
C1222 C1223 1.387 . S
C1223 H1208 0.930 . S
C1223 C1218 1.390 . S
C1223 C1222 1.387 . S
C265 C7 1.943 . S
C277 C49 1.875 . S
C292 C21 1.952 . S
C304 C63 1.880 . S
C319 C77 1.876 . S
C331 C35 1.944 . S
C346 C91 1.849 . S
C358 C133 1.920 . S
C373 C105 1.921 . S
C385 C147 1.912 . S
C400 C161 1.839 . S
C412 C119 1.910 . S
C427 C217 1.873 . S
C439 C175 1.888 . S
C454 C231 1.944 . S
C466 C189 1.883 . S
C481 C245 1.912 . S
C493 C203 1.839 . S
C508 C6 1.492 . S
C520 C132 1.451 . S
C535 C20 1.464 . S
C547 C146 1.465 . S
C562 C160 1.505 . S
C574 C34 1.441 . S
C589 C48 1.490 . S
C601 C174 1.432 . S
C616 C62 1.429 . S
C628 C188 1.512 . S
C643 C76 1.495 . S
C655 C202 1.449 . S
C670 C90 1.511 . S
C682 C216 1.451 . S
C697 C104 1.475 . S
C709 C230 1.461 . S
C724 C244 1.445 . S
C736 C118 1.492 . S
C751 C9 0.868 1_565 S
C763 C64 0.859 . S
C778 C23 0.872 1_455 S
C790 C78 0.849 . S
C805 C37 0.928 . S
C817 C50 0.936 . S
C832 C51 0.935 1_545 S
C844 C22 0.938 . S
C859 C36 0.857 . S
C871 C65 0.853 1_655 S
C886 C79 0.917 . S
C898 C8 0.899 . S
C913 C93 0.980 . S
C925 C148 0.983 . S
C940 C162 0.858 . S
C952 C107 0.898 . S
C967 C134 0.898 . S
C979 C121 0.934 . S
C994 C106 0.865 . S
C1006 C135 0.884 . S
C1021 C149 0.898 . S
C1033 C120 0.873 . S
C1048 C163 0.912 . S
C1060 C92 0.906 . S
C1075 C232 0.920 . S
C1087 C177 0.937 . S
C1102 C246 0.938 . S
C1114 C191 0.892 . S
C1129 C205 0.897 . S
C1141 C218 0.910 . S
C1156 C190 0.929 . S
C1168 C219 0.952 . S
C1183 C204 0.927 . S
C1195 C233 0.931 . S
C1210 C176 0.898 . S
C1222 C247 0.920 . S
