# Generated by pormake.
# Topology bcs, (6)-cn, num edge types: 1
# Building blocks:
#     Node 0, Type 0, BuildingBlock: CUKXOW_clean_sbu_0, # of connection points: 6
#     Node 1, Type 0, BuildingBlock: CUKXOW_clean_sbu_0, # of connection points: 6
#     Node 2, Type 0, BuildingBlock: CUKXOW_clean_sbu_0, # of connection points: 6
#     Node 3, Type 0, BuildingBlock: CUKXOW_clean_sbu_0, # of connection points: 6
#     Node 4, Type 0, BuildingBlock: CUKXOW_clean_sbu_0, # of connection points: 6
#     Node 5, Type 0, BuildingBlock: CUKXOW_clean_sbu_0, # of connection points: 6
#     Node 6, Type 0, BuildingBlock: CUKXOW_clean_sbu_0, # of connection points: 6
#     Node 7, Type 0, BuildingBlock: CUKXOW_clean_sbu_0, # of connection points: 6
#     Node 8, Type 0, BuildingBlock: CUKXOW_clean_sbu_0, # of connection points: 6
#     Node 9, Type 0, BuildingBlock: CUKXOW_clean_sbu_0, # of connection points: 6
#     Node 10, Type 0, BuildingBlock: CUKXOW_clean_sbu_0, # of connection points: 6
#     Node 11, Type 0, BuildingBlock: CUKXOW_clean_sbu_0, # of connection points: 6
#     Node 12, Type 0, BuildingBlock: CUKXOW_clean_sbu_0, # of connection points: 6
#     Node 13, Type 0, BuildingBlock: CUKXOW_clean_sbu_0, # of connection points: 6
#     Node 14, Type 0, BuildingBlock: CUKXOW_clean_sbu_0, # of connection points: 6
#     Node 15, Type 0, BuildingBlock: CUKXOW_clean_sbu_0, # of connection points: 6
#     Edge 16, Type (0, 0), BuildingBlock: KIFKEQ_clean_linker_1, # of connection points: 2
#     Edge 17, Type (0, 0), BuildingBlock: KIFKEQ_clean_linker_1, # of connection points: 2
#     Edge 18, Type (0, 0), BuildingBlock: KIFKEQ_clean_linker_1, # of connection points: 2
#     Edge 19, Type (0, 0), BuildingBlock: KIFKEQ_clean_linker_1, # of connection points: 2
#     Edge 20, Type (0, 0), BuildingBlock: KIFKEQ_clean_linker_1, # of connection points: 2
#     Edge 21, Type (0, 0), BuildingBlock: KIFKEQ_clean_linker_1, # of connection points: 2
#     Edge 22, Type (0, 0), BuildingBlock: KIFKEQ_clean_linker_1, # of connection points: 2
#     Edge 23, Type (0, 0), BuildingBlock: KIFKEQ_clean_linker_1, # of connection points: 2
#     Edge 24, Type (0, 0), BuildingBlock: KIFKEQ_clean_linker_1, # of connection points: 2
#     Edge 25, Type (0, 0), BuildingBlock: KIFKEQ_clean_linker_1, # of connection points: 2
#     Edge 26, Type (0, 0), BuildingBlock: KIFKEQ_clean_linker_1, # of connection points: 2
#     Edge 27, Type (0, 0), BuildingBlock: KIFKEQ_clean_linker_1, # of connection points: 2
#     Edge 28, Type (0, 0), BuildingBlock: KIFKEQ_clean_linker_1, # of connection points: 2
#     Edge 29, Type (0, 0), BuildingBlock: KIFKEQ_clean_linker_1, # of connection points: 2
#     Edge 30, Type (0, 0), BuildingBlock: KIFKEQ_clean_linker_1, # of connection points: 2
#     Edge 31, Type (0, 0), BuildingBlock: KIFKEQ_clean_linker_1, # of connection points: 2
#     Edge 32, Type (0, 0), BuildingBlock: KIFKEQ_clean_linker_1, # of connection points: 2
#     Edge 33, Type (0, 0), BuildingBlock: KIFKEQ_clean_linker_1, # of connection points: 2
#     Edge 34, Type (0, 0), BuildingBlock: KIFKEQ_clean_linker_1, # of connection points: 2
#     Edge 35, Type (0, 0), BuildingBlock: KIFKEQ_clean_linker_1, # of connection points: 2
#     Edge 36, Type (0, 0), BuildingBlock: KIFKEQ_clean_linker_1, # of connection points: 2
#     Edge 37, Type (0, 0), BuildingBlock: KIFKEQ_clean_linker_1, # of connection points: 2
#     Edge 38, Type (0, 0), BuildingBlock: KIFKEQ_clean_linker_1, # of connection points: 2
#     Edge 39, Type (0, 0), BuildingBlock: KIFKEQ_clean_linker_1, # of connection points: 2
#     Edge 40, Type (0, 0), BuildingBlock: KIFKEQ_clean_linker_1, # of connection points: 2
#     Edge 41, Type (0, 0), BuildingBlock: KIFKEQ_clean_linker_1, # of connection points: 2
#     Edge 42, Type (0, 0), BuildingBlock: KIFKEQ_clean_linker_1, # of connection points: 2
#     Edge 43, Type (0, 0), BuildingBlock: KIFKEQ_clean_linker_1, # of connection points: 2
#     Edge 44, Type (0, 0), BuildingBlock: KIFKEQ_clean_linker_1, # of connection points: 2
#     Edge 45, Type (0, 0), BuildingBlock: KIFKEQ_clean_linker_1, # of connection points: 2
#     Edge 46, Type (0, 0), BuildingBlock: KIFKEQ_clean_linker_1, # of connection points: 2
#     Edge 47, Type (0, 0), BuildingBlock: KIFKEQ_clean_linker_1, # of connection points: 2
#     Edge 48, Type (0, 0), BuildingBlock: KIFKEQ_clean_linker_1, # of connection points: 2
#     Edge 49, Type (0, 0), BuildingBlock: KIFKEQ_clean_linker_1, # of connection points: 2
#     Edge 50, Type (0, 0), BuildingBlock: KIFKEQ_clean_linker_1, # of connection points: 2
#     Edge 51, Type (0, 0), BuildingBlock: KIFKEQ_clean_linker_1, # of connection points: 2
#     Edge 52, Type (0, 0), BuildingBlock: KIFKEQ_clean_linker_1, # of connection points: 2
#     Edge 53, Type (0, 0), BuildingBlock: KIFKEQ_clean_linker_1, # of connection points: 2
#     Edge 54, Type (0, 0), BuildingBlock: KIFKEQ_clean_linker_1, # of connection points: 2
#     Edge 55, Type (0, 0), BuildingBlock: KIFKEQ_clean_linker_1, # of connection points: 2
#     Edge 56, Type (0, 0), BuildingBlock: KIFKEQ_clean_linker_1, # of connection points: 2
#     Edge 57, Type (0, 0), BuildingBlock: KIFKEQ_clean_linker_1, # of connection points: 2
#     Edge 58, Type (0, 0), BuildingBlock: KIFKEQ_clean_linker_1, # of connection points: 2
#     Edge 59, Type (0, 0), BuildingBlock: KIFKEQ_clean_linker_1, # of connection points: 2
#     Edge 60, Type (0, 0), BuildingBlock: KIFKEQ_clean_linker_1, # of connection points: 2
#     Edge 61, Type (0, 0), BuildingBlock: KIFKEQ_clean_linker_1, # of connection points: 2
#     Edge 62, Type (0, 0), BuildingBlock: KIFKEQ_clean_linker_1, # of connection points: 2
#     Edge 63, Type (0, 0), BuildingBlock: KIFKEQ_clean_linker_1, # of connection points: 2
# Relax obj value: 0.164
# Max RMSD: 0.217
# Mean RMSD: 0.179
data_MOF--net-bcs--node1-CUKXOW_clean_sbu_0--edge1-KIFKEQ_clean_linker_1
_symmetry_space_group_name_H-M    P1
_symmetry_Int_Tables_number       1
_symmetry_cell_setting            triclinic
loop_
_symmetry_equiv_pos_as_xyz
'x, y, z'
_cell_length_a     33.195586
_cell_length_b     38.323208
_cell_length_c     36.90066
_cell_angle_alpha  95.312903
_cell_angle_beta   96.338989
_cell_angle_gamma 91.112297
loop_
_atom_site_label
_atom_site_type_symbol
_atom_site_fract_x
_atom_site_fract_y
_atom_site_fract_z
_atom_type_partial_charge
Tb0 Tb 0.02302 0.98519 0.97435 0.0
C1 C 0.0793 0.05355 0.98579 0.0
Tb2 Tb 1.01382 0.03664 0.03686 0.0
O3 O 0.9875 1.00724 0.92844 0.0
O4 O 0.99185 0.03416 0.97973 0.0
O5 O 0.07472 0.02058 0.97153 0.0
C6 C 0.9813 0.08623 0.07729 0.0
O7 O 0.05611 0.06702 0.01014 0.0
C8 C 0.05968 0.98573 0.06469 0.0
C9 C 0.95644 0.9691 0.02494 0.0
O10 O 0.01992 0.08075 0.07923 0.0
O11 O 0.96154 0.06436 0.05256 0.0
O12 O 0.04954 0.01431 0.0826 0.0
O13 O 0.0448 0.98769 0.03137 0.0
O14 O 0.96172 1.00202 0.03912 0.0
O15 O 0.97942 0.95529 1.00052 0.0
C16 C 0.05694 0.93491 0.93607 0.0
O17 O 0.01831 0.94051 0.93259 0.0
O18 O 0.07588 0.95723 0.96083 0.0
C19 C 0.97706 0.0358 0.94627 0.0
Tb20 Tb 0.23033 0.75119 0.26406 0.0
C21 C 0.25065 0.71105 0.19405 0.0
Tb22 Tb 0.29427 0.76427 0.24747 0.0
O23 O 0.20208 0.80117 0.25382 0.0
O24 O 0.23919 0.7808 0.2164 0.0
O25 O 0.23633 0.70587 0.22479 0.0
C26 C 0.3653 0.79149 0.23442 0.0
O27 O 0.27152 0.74013 0.19351 0.0
C28 C 0.30769 0.70923 0.28826 0.0
C29 C 0.27455 0.80683 0.31586 0.0
O30 O 0.34835 0.76262 0.21876 0.0
O31 O 0.34173 0.80556 0.25677 0.0
O32 O 0.3205 0.71338 0.25724 0.0
O33 O 0.28539 0.73524 0.29542 0.0
O34 O 0.28961 0.81058 0.28517 0.0
O35 O 0.25279 0.77824 0.31728 0.0
C36 C 0.16045 0.71987 0.27481 0.0
O37 O 0.17574 0.74868 0.29227 0.0
O38 O 0.18504 0.70815 0.25228 0.0
C39 C 0.21589 0.80616 0.22338 0.0
Tb40 Tb 0.50926 0.02814 0.47522 0.0
C41 C 0.44799 0.96883 0.4854 0.0
Tb42 Tb 0.52635 0.99294 0.53327 0.0
O43 O 0.53958 1.00405 0.43029 0.0
O44 O 0.54698 0.98126 0.47986 0.0
O45 O 0.45145 0.99975 0.4732 0.0
C46 C 0.55721 0.94773 0.57828 0.0
O47 O 0.47805 0.9574 0.50677 0.0
C48 C 0.47944 0.04229 0.56177 0.0
C49 C 0.58837 0.05183 0.52266 0.0
O50 O 0.52529 0.94176 0.55486 0.0
O51 O 0.57154 0.97907 0.57656 0.0
O52 O 0.49625 0.0172 0.57827 0.0
O53 O 0.48854 0.03971 0.52862 0.0
O54 O 0.58414 0.02151 0.53596 0.0
O55 O 0.55898 0.06295 0.5003 0.0
C56 C 0.47834 0.07401 0.43102 0.0
O57 O 0.50716 0.08087 0.45746 0.0
O58 O 0.46713 0.04132 0.42919 0.0
C59 C 0.55607 0.97874 0.4467 0.0
Tb60 Tb 0.27337 0.28455 0.73152 0.0
C61 C 0.33555 0.27389 0.79869 0.0
Tb62 Tb 0.25639 0.22931 0.77295 0.0
O63 O 0.24171 0.32955 0.75525 0.0
O64 O 0.23755 0.28274 0.7784 0.0
O65 O 0.3302 0.28593 0.7663 0.0
C66 C 0.23071 0.18681 0.82041 0.0
O67 O 0.3079 0.2531 0.80956 0.0
C68 C 0.29393 0.20452 0.71414 0.0
C69 C 0.19216 0.24502 0.7105 0.0
O70 O 0.2648 0.20461 0.82502 0.0
O71 O 0.21208 0.19232 0.78899 0.0
O72 O 0.26617 0.18861 0.72895 0.0
O73 O 0.30126 0.23367 0.73397 0.0
O74 O 0.19682 0.238 0.74488 0.0
O75 O 0.22256 0.25907 0.69643 0.0
C76 C 0.30253 0.32203 0.68193 0.0
O77 O 0.28062 0.29331 0.67449 0.0
O78 O 0.30746 0.32972 0.71709 0.0
C79 C 0.22668 0.31477 0.7811 0.0
Tb80 Tb 0.99404 0.99427 0.53736 0.0
C81 C 1.00803 0.94811 0.46342 0.0
Tb82 Tb 0.03979 0.02631 0.47827 0.0
O83 O 0.94412 0.0289 0.5264 0.0
O84 O 0.97987 0.01171 0.48529 0.0
O85 O 1.00211 0.94858 0.4986 0.0
C86 C 0.07398 0.0617 0.43028 0.0
O87 O 0.01807 0.97677 0.44819 0.0
C88 C 0.08151 0.98936 0.52311 0.0
C89 C 0.02438 0.07276 0.55145 0.0
O90 O 0.03651 0.05005 0.42614 0.0
O91 O 0.09154 0.054 0.46152 0.0
O92 O 0.08904 0.99085 0.48958 0.0
O93 O 0.05367 1.00937 0.53037 0.0
O94 O 0.02947 0.07223 0.51605 0.0
O95 O 1.01572 0.04396 0.56706 0.0
C96 C 0.96377 0.95821 0.58704 0.0
O97 O 1.00186 0.96678 0.58719 0.0
O98 O 0.94313 0.96962 0.5589 0.0
C99 C 0.95181 0.03143 0.49303 0.0
Tb100 Tb 0.24655 0.78188 0.72831 0.0
C101 C 0.21911 0.70775 0.74162 0.0
Tb102 Tb 0.29666 0.74566 0.78475 0.0
O103 O 0.25888 0.74187 0.68551 0.0
O104 O 0.30181 0.75595 0.73057 0.0
O105 O 0.20544 0.73903 0.73528 0.0
C106 C 0.34849 0.70725 0.8201 0.0
O107 O 0.25646 0.70389 0.75694 0.0
C108 C 0.2317 0.77349 0.8067 0.0
C109 C 0.3248 0.8213 0.7708 0.0
O110 O 0.33208 0.69942 0.78679 0.0
O111 O 0.33668 0.73744 0.83341 0.0
O112 O 0.24795 0.74634 0.82004 0.0
O113 O 0.25425 0.7856 0.78564 0.0
O114 O 0.3356 0.79198 0.78537 0.0
O115 O 0.28993 0.82389 0.75004 0.0
C116 C 0.20634 0.82333 0.6866 0.0
O117 O 0.24347 0.8147 0.6842 0.0
O118 O 0.19141 0.80887 0.71285 0.0
C119 C 0.29377 0.7353 0.70227 0.0
Tb120 Tb 0.53125 0.03835 0.98139 0.0
C121 C 0.57384 0.02448 0.05838 0.0
Tb122 Tb 0.49284 0.98322 0.02324 0.0
O123 O 0.47871 0.07147 0.98715 0.0
O124 O 0.49781 0.03766 0.02601 0.0
O125 O 0.57842 0.03749 0.02691 0.0
C126 C 0.47017 0.94513 0.07307 0.0
O127 O 0.5412 1.00591 0.06364 0.0
C128 C 0.53157 0.95877 0.9702 0.0
C129 C 0.45058 0.99914 0.94733 0.0
O130 O 0.50556 0.94484 0.06153 0.0
O131 O 0.44644 0.9665 0.05604 0.0
O132 O 0.50147 0.94192 0.98075 0.0
O133 O 0.54107 0.98579 0.99137 0.0
O134 O 0.44383 0.99089 0.98044 0.0
O135 O 0.48554 0.01309 0.94073 0.0
C136 C 0.57112 0.07811 0.94235 0.0
O137 O 0.56297 0.04486 0.93401 0.0
O138 O 0.55824 0.08851 0.97339 0.0
C139 C 0.47074 0.05793 0.01648 0.0
Tb140 Tb 0.28935 0.23737 0.23173 0.0
C141 C 0.32158 0.31504 0.23959 0.0
Tb142 Tb 0.25171 0.2886 0.28271 0.0
O143 O 0.2669 0.26501 0.185 0.0
O144 O 0.2344 0.26364 0.23014 0.0
O145 O 0.33137 0.28191 0.23203 0.0
C146 C 0.20815 0.33763 0.31098 0.0
O147 O 0.28877 0.32345 0.25559 0.0
C148 C 0.3055 0.25084 0.31545 0.0
C149 C 0.22233 0.21065 0.27789 0.0
O150 O 0.24622 0.33374 0.3215 0.0
O151 O 0.19498 0.31429 0.28463 0.0
O152 O 0.27608 0.26472 0.33157 0.0
O153 O 0.30651 0.26194 0.28458 0.0
O154 O 0.21172 0.24353 0.28437 0.0
O155 O 0.25532 0.20242 0.26204 0.0
C156 C 0.31968 0.18551 0.19361 0.0
O157 O 0.28149 0.19185 0.1923 0.0
O158 O 0.34106 0.20827 0.21642 0.0
C159 C 0.23583 0.27637 0.2002 0.0
Tb160 Tb 0.48799 0.49912 0.03649 0.0
C161 C 0.49404 0.4467 0.96652 0.0
Tb162 Tb 0.54313 0.5206 0.97849 0.0
O163 O 0.43397 0.51205 1.00063 0.0
O164 O 0.48998 0.53665 0.99951 0.0
O165 O 0.48646 0.4503 1.00129 0.0
C166 C 0.57131 0.54358 0.91987 0.0
O167 O 0.5131 0.47161 0.95117 0.0
C168 C 0.57775 0.48855 0.03158 0.0
C169 C 0.53887 0.57173 0.05033 0.0
O170 O 0.53331 0.54161 0.92512 0.0
O171 O 0.59323 0.532 0.9473 0.0
O172 O 0.5975 0.50961 0.01373 0.0
O173 O 0.5423 0.48339 0.01643 0.0
O174 O 0.54685 0.56865 0.01561 0.0
O175 O 0.51928 0.54674 0.06497 0.0
C176 C 0.45598 0.47849 0.09425 0.0
O177 O 0.43582 0.48444 0.06342 0.0
O178 O 0.49435 0.48463 0.09284 0.0
C179 C 0.45485 0.53309 0.98387 0.0
Tb180 Tb 0.74957 0.27647 0.22944 0.0
C181 C 0.72237 0.19709 0.23055 0.0
Tb182 Tb 0.78278 0.23774 0.29025 0.0
O183 O 0.80701 0.2771 0.20677 0.0
O184 O 0.79066 0.23523 0.23427 0.0
O185 O 0.71275 0.22766 0.21809 0.0
C186 C 0.82742 0.20528 0.33873 0.0
O187 O 0.7538 0.19411 0.25527 0.0
C188 C 0.71268 0.26533 0.29828 0.0
C189 C 0.80586 0.31767 0.2928 0.0
O190 O 0.78956 0.21193 0.33989 0.0
O191 O 0.8406 0.21702 0.31029 0.0
O192 O 0.72404 0.23673 0.31198 0.0
O193 O 0.7417 0.27832 0.28476 0.0
O194 O 0.81786 0.28707 0.30322 0.0
O195 O 0.7739 0.31978 0.26843 0.0
C196 C 0.70975 0.31277 0.18142 0.0
O197 O 0.74859 0.31352 0.18918 0.0
O198 O 0.6926 0.29098 0.20026 0.0
C199 C 0.81905 0.24858 0.21995 0.0
Tb200 Tb 0.02954 0.5332 0.47952 0.0
C201 C 0.09427 0.53657 0.54875 0.0
Tb202 Tb 1.01456 0.48726 0.54202 0.0
O203 O 0.97614 0.56294 0.48994 0.0
O204 O 1.01051 0.54007 0.53185 0.0
O205 O 0.08594 0.54556 0.51481 0.0
C206 C 1.00588 0.46302 0.60541 0.0
O207 O 0.06996 0.51618 0.56462 0.0
C208 C 0.04187 0.45584 0.48521 0.0
C209 C 0.95069 0.48558 0.47338 0.0
O210 O 0.03519 0.45551 0.58578 0.0
O211 O 0.98085 0.48373 0.58901 0.0
O212 O 0.01979 0.43955 0.50559 0.0
O213 O 0.05031 0.48638 0.49907 0.0
O214 O 0.95571 0.48278 0.50917 0.0
O215 O 0.9791 0.49878 0.45548 0.0
C216 C 0.04706 0.56599 0.4236 0.0
O217 O 0.04457 0.53206 0.42334 0.0
O218 O 0.04181 0.58107 0.4556 0.0
C219 C 0.97909 0.55627 0.5238 0.0
Tb220 Tb 0.77982 0.7907 0.23662 0.0
C221 C 0.84208 0.77546 0.30042 0.0
Tb222 Tb 0.76057 0.73542 0.27788 0.0
O223 O 0.76956 0.83119 0.28062 0.0
O224 O 0.73348 0.78643 0.27429 0.0
O225 O 0.83871 0.78272 0.26608 0.0
C226 C 0.72992 0.69776 0.32664 0.0
O227 O 0.81112 0.76105 0.31357 0.0
C228 C 0.80934 0.70518 0.23025 0.0
C229 C 0.69854 0.74903 0.21062 0.0
O230 O 0.75011 0.72735 0.33449 0.0
O231 O 0.72735 0.6895 0.29161 0.0
O232 O 0.79318 0.6904 0.25551 0.0
O233 O 0.79832 0.73717 0.23261 0.0
O234 O 0.70463 0.73368 0.24122 0.0
O235 O 0.72513 0.77186 0.20163 0.0
C236 C 0.80332 0.83085 0.1862 0.0
O237 O 0.78429 0.8008 0.17944 0.0
O238 O 0.80825 0.83871 0.22129 0.0
C239 C 0.74075 0.8155 0.29439 0.0
Tb240 Tb 0.73913 0.25376 0.76189 0.0
C241 C 0.76124 0.21244 0.69353 0.0
Tb242 Tb 0.80353 0.26887 0.74632 0.0
O243 O 0.7125 0.30453 0.75214 0.0
O244 O 0.74827 0.28324 0.71427 0.0
O245 O 0.74508 0.20822 0.72362 0.0
C246 C 0.87111 0.30561 0.73881 0.0
O247 O 0.78293 0.24128 0.69282 0.0
C248 C 0.819 0.2137 0.78647 0.0
C249 C 0.78068 0.3064 0.81706 0.0
O250 O 0.86004 0.27558 0.72123 0.0
O251 O 0.84379 0.31513 0.75947 0.0
O252 O 0.83374 0.21977 0.75669 0.0
O253 O 0.79465 0.23835 0.79323 0.0
O254 O 0.7949 0.31281 0.78661 0.0
O255 O 0.76081 0.27668 0.81666 0.0
C256 C 0.6675 0.22707 0.77409 0.0
O257 O 0.68376 0.25662 0.78851 0.0
O258 O 0.69229 0.21175 0.75366 0.0
C259 C 0.72536 0.30885 0.7212 0.0
Tb260 Tb 0.77583 0.72966 0.72751 0.0
C261 C 0.82069 0.80456 0.73892 0.0
Tb262 Tb 0.7512 0.78214 0.7837 0.0
O263 O 0.72171 0.73692 0.68974 0.0
O264 O 0.74714 0.77771 0.72658 0.0
O265 O 0.8227 0.77096 0.72677 0.0
C266 C 0.70751 0.82771 0.81696 0.0
O267 O 0.79112 0.81586 0.75803 0.0
C268 C 0.81067 0.74446 0.80726 0.0
C269 C 0.70855 0.706 0.77372 0.0
O270 O 0.7451 0.82223 0.82787 0.0
O271 O 0.69444 0.80718 0.78811 0.0
O272 O 0.8051 0.77588 0.82178 0.0
O273 O 0.78074 0.73451 0.78477 0.0
O274 O 0.70581 0.73959 0.78576 0.0
O275 O 0.73822 0.69538 0.7545 0.0
C276 C 0.81438 0.68348 0.68956 0.0
O277 O 0.77582 0.68813 0.68389 0.0
O278 O 0.83146 0.70516 0.71603 0.0
C279 C 0.71708 0.76847 0.70408 0.0
Tb280 Tb 0.51842 0.48447 0.47334 0.0
C281 C 0.57182 0.55393 0.48132 0.0
Tb282 Tb 0.51304 0.53142 0.53503 0.0
O283 O 0.47868 0.50367 0.4288 0.0
O284 O 0.48508 0.53292 0.47965 0.0
O285 O 0.56685 0.52137 0.46624 0.0
C286 C 0.47675 0.57454 0.58001 0.0
O287 O 0.55164 0.56558 0.5086 0.0
C288 C 0.56265 0.48353 0.56212 0.0
C289 C 0.45562 0.46434 0.52407 0.0
O290 O 0.514 0.57913 0.57319 0.0
O291 O 0.46071 0.54671 0.56129 0.0
O292 O 0.55297 0.51247 0.5795 0.0
O293 O 0.5465 0.48306 0.52877 0.0
O294 O 0.46058 0.49725 0.53779 0.0
O295 O 0.47848 0.45137 0.49949 0.0
C296 C 0.55025 0.43614 0.43038 0.0
O297 O 0.51216 0.43685 0.43532 0.0
O298 O 0.56992 0.4623 0.44946 0.0
C299 C 0.46896 0.53258 0.4463 0.0
Tb300 Tb 1.00608 0.52335 0.97804 0.0
C301 C 0.949 0.46261 0.99196 0.0
Tb302 Tb 0.02783 0.49274 0.03528 0.0
O303 O 0.02993 0.4972 0.93072 0.0
O304 O 0.04519 0.4767 0.98118 0.0
O305 O 0.95101 0.49164 0.97605 0.0
C306 C 0.06503 0.45299 0.0832 0.0
O307 O 0.97966 0.45432 0.01471 0.0
C308 C 0.98379 0.54292 0.06623 0.0
C309 C 0.08551 0.55148 0.01969 0.0
O310 O 0.03109 0.44472 0.06314 0.0
O311 O 0.07793 0.48344 0.0763 0.0
O312 O 1.00257 0.51851 0.08222 0.0
O313 O 0.98916 0.53957 0.03207 0.0
O314 O 0.0847 0.52046 0.03176 0.0
O315 O 0.05283 0.56196 1.00118 0.0
C316 C 0.96849 0.5656 0.93316 0.0
O317 O 1.00735 0.56537 0.94175 0.0
O318 O 0.95103 0.5421 0.94947 0.0
C319 C 0.04992 0.4734 0.94681 0.0
H320 H 0.26701 0.16893 0.8864 0.0
H321 H 0.15332 0.16201 0.81657 0.0
H322 H 0.2347 0.13908 0.93257 0.0
H323 H 0.12115 0.13339 0.86281 0.0
H324 H 0.06952 0.12169 0.97191 0.0
H325 H 0.10996 0.15578 0.93514 0.0
H326 H 0.1941 0.07181 0.92761 0.0
H327 H 0.15292 0.0371 0.96333 0.0
C328 C 0.23526 0.16099 0.88095 0.0
C329 C 0.2127 0.16761 0.84792 0.0
C330 C 0.21682 0.14408 0.90732 0.0
C331 C 0.17537 0.13436 0.90132 0.0
C332 C 0.153 0.14103 0.86827 0.0
C333 C 0.17152 0.15718 0.84174 0.0
C334 C 0.09719 0.11086 0.96322 0.0
C335 C 0.10801 0.07668 0.97036 0.0
C336 C 0.12018 0.1303 0.94206 0.0
C337 C 0.15504 0.11633 0.92855 0.0
C338 C 0.16748 0.0832 0.93788 0.0
C339 C 0.14387 0.06336 0.95819 0.0
H340 H 0.0854 0.98614 0.13715 0.0
H341 H 0.09028 0.91999 0.03699 0.0
H342 H 0.12298 0.94449 0.17147 0.0
H343 H 0.1282 0.87669 0.0722 0.0
H344 H 0.22345 0.81455 0.1482 0.0
H345 H 0.18729 0.85513 0.10839 0.0
H346 H 0.12287 0.89393 0.1984 0.0
H347 H 0.15915 0.85485 0.23739 0.0
C348 C 0.09427 0.96244 0.1221 0.0
C349 C 0.08395 0.95721 0.0837 0.0
C350 C 0.11597 0.93781 0.14231 0.0
C351 C 0.12898 0.90585 0.12567 0.0
C352 C 0.11929 0.90055 0.08687 0.0
C353 C 0.09713 0.92556 0.06636 0.0
C354 C 0.20176 0.83194 0.15958 0.0
C355 C 0.19503 0.83098 0.19681 0.0
C356 C 0.1805 0.85534 0.13643 0.0
C357 C 0.15164 0.87909 0.14937 0.0
C358 C 0.14504 0.87749 0.18651 0.0
C359 C 0.16603 0.85438 0.20934 0.0
H360 H 0.43867 0.89774 0.48735 0.0
H361 H 0.37456 0.9887 0.45455 0.0
H362 H 0.38423 0.85969 0.45422 0.0
H363 H 0.31974 0.95073 0.42227 0.0
H364 H 0.29523 0.875 0.31444 0.0
H365 H 0.32619 0.91527 0.3647 0.0
H366 H 0.31182 0.83733 0.44014 0.0
H367 H 0.28025 0.79657 0.38898 0.0
C368 C 0.41244 0.90965 0.47396 0.0
C369 C 0.41152 0.94618 0.47252 0.0
C370 C 0.38102 0.88782 0.45522 0.0
C371 C 0.34806 0.90217 0.43491 0.0
C372 C 0.34519 0.93885 0.43693 0.0
C373 C 0.37667 0.9606 0.45534 0.0
C374 C 0.29771 0.8667 0.34186 0.0
C375 C 0.28568 0.83262 0.3478 0.0
C376 C 0.3152 0.88993 0.37083 0.0
C377 C 0.32164 0.87955 0.40652 0.0
C378 C 0.30744 0.84603 0.41291 0.0
C379 C 0.28922 0.8228 0.38375 0.0
H380 H 0.35851 0.22684 0.67569 0.0
H381 H 0.29494 0.13328 0.69703 0.0
H382 H 0.40172 0.19054 0.6375 0.0
H383 H 0.33757 0.09762 0.65998 0.0
H384 H 0.44489 0.03561 0.62465 0.0
H385 H 0.40331 0.07497 0.65889 0.0
H386 H 0.40903 0.14989 0.57935 0.0
H387 H 0.45114 0.10943 0.54424 0.0
C388 C 0.3536 0.19866 0.67258 0.0
C389 C 0.32261 0.18361 0.69032 0.0
C390 C 0.37847 0.17758 0.65022 0.0
C391 C 0.37415 0.14035 0.64508 0.0
C392 C 0.34315 0.12572 0.66296 0.0
C393 C 0.31812 0.1466 0.68452 0.0
C394 C 0.43734 0.06032 0.6139 0.0
C395 C 0.45186 0.06846 0.58093 0.0
C396 C 0.4129 0.08326 0.63385 0.0
C397 C 0.40166 0.11636 0.62259 0.0
C398 C 0.41656 0.12502 0.58967 0.0
C399 C 0.44073 0.10148 0.56911 0.0
H400 H 0.11721 0.92955 0.50221 0.0
H401 H 0.07974 0.99144 0.59601 0.0
H402 H 0.14296 0.88554 0.54181 0.0
H403 H 0.10548 0.94741 0.63569 0.0
H404 H 0.12895 0.84436 0.68757 0.0
H405 H 0.09381 0.883 0.64591 0.0
H406 H 0.20183 0.89134 0.59113 0.0
H407 H 0.2364 0.85277 0.63194 0.0
C408 C 0.11456 0.93355 0.53129 0.0
C409 C 0.0969 0.96344 0.54648 0.0
C410 C 0.12889 0.90849 0.55373 0.0
C411 C 0.12577 0.91341 0.59141 0.0
C412 C 0.10741 0.94307 0.60649 0.0
C413 C 0.0931 0.96815 0.58402 0.0
C414 C 0.14479 0.85445 0.66642 0.0
C415 C 0.18495 0.84591 0.66251 0.0
C416 C 0.12491 0.87633 0.64284 0.0
C417 C 0.14528 0.88939 0.6154 0.0
C418 C 0.18547 0.88077 0.61172 0.0
C419 C 0.20522 0.85906 0.63515 0.0
H420 H 0.30739 0.88813 0.75496 0.0
H421 H 0.39679 0.82808 0.81486 0.0
H422 H 0.33399 0.94167 0.79172 0.0
H423 H 0.42319 0.88171 0.85091 0.0
H424 H 0.45322 0.01309 0.87646 0.0
H425 H 0.42363 0.97555 0.82267 0.0
H426 H 0.35466 0.91814 0.89118 0.0
H427 H 0.38463 0.95486 0.94528 0.0
C428 C 0.3335 0.88644 0.77504 0.0
C429 C 0.34896 0.85371 0.78315 0.0
C430 C 0.34862 0.9171 0.79587 0.0
C431 C 0.37964 0.91515 0.8244 0.0
C432 C 0.3987 0.88333 0.82917 0.0
C433 C 0.38356 0.85273 0.80857 0.0
C434 C 0.43073 0.99319 0.88 0.0
C435 C 0.42225 0.98604 0.91524 0.0
C436 C 0.41382 0.97193 0.84916 0.0
C437 C 0.3878 0.9439 0.85337 0.0
C438 C 0.37514 0.93967 0.88778 0.0
C439 C 0.39219 0.96072 0.91863 0.0
H440 H 0.41168 0.10424 1.0025 0.0
H441 H 0.46151 0.03598 0.08215 0.0
H442 H 0.3678 0.12941 0.04675 0.0
H443 H 0.41786 0.06094 0.12582 0.0
H444 H 0.39731 0.16637 0.19768 0.0
H445 H 0.42769 0.12827 0.15224 0.0
H446 H 0.31044 0.10975 0.08896 0.0
H447 H 0.27974 0.14775 0.13467 0.0
C448 C 0.41237 0.09414 0.02903 0.0
C449 C 0.43986 0.06874 0.03939 0.0
C450 C 0.38734 0.10822 0.05403 0.0
C451 C 0.39013 0.09685 0.08923 0.0
C452 C 0.41565 0.06981 0.09863 0.0
C453 C 0.4404 0.05568 0.07372 0.0
C454 C 0.37804 0.15358 0.17442 0.0
C455 C 0.33653 0.15959 0.16929 0.0
C456 C 0.39524 0.13189 0.14868 0.0
C457 C 0.37093 0.11641 0.11767 0.0
C458 C 0.32925 0.12165 0.11297 0.0
C459 C 0.31192 0.14306 0.13899 0.0
H460 H 0.15294 0.0831 0.43648 0.0
H461 H 0.04163 0.07963 0.36349 0.0
H462 H 0.18752 0.11343 0.39304 0.0
H463 H 0.07643 0.11003 0.31964 0.0
H464 H 0.14282 0.21219 0.28955 0.0
H465 H 0.10575 0.1712 0.32134 0.0
H466 H 0.21028 0.10589 0.33016 0.0
H467 H 0.24752 0.14704 0.29818 0.0
C468 C 0.13595 0.08864 0.41097 0.0
C469 C 0.09455 0.07937 0.40338 0.0
C470 C 0.15587 0.10567 0.38593 0.0
C471 C 0.13475 0.11395 0.35285 0.0
C472 C 0.09341 0.1041 0.345 0.0
C473 C 0.07351 0.08681 0.37003 0.0
C474 C 0.15767 0.18877 0.29771 0.0
C475 C 0.19819 0.18298 0.29173 0.0
C476 C 0.13632 0.16516 0.31567 0.0
C477 C 0.1552 0.13548 0.32845 0.0
C478 C 0.19508 0.12873 0.32084 0.0
C479 C 0.2163 0.15215 0.30237 0.0
H480 H 0.84644 0.18653 0.24086 0.0
H481 H 0.85996 0.26298 0.16345 0.0
H482 H 0.89105 0.1473 0.2086 0.0
H483 H 0.90326 0.22331 0.13092 0.0
H484 H 0.90609 0.10942 0.06338 0.0
H485 H 0.87097 0.15052 0.10256 0.0
H486 H 0.97625 0.16009 0.18308 0.0
H487 H 1.01222 0.11923 0.14334 0.0
C488 C 0.85971 0.19518 0.21757 0.0
C489 C 0.85022 0.22764 0.20462 0.0
C490 C 0.88496 0.17288 0.19928 0.0
C491 C 0.90018 0.18287 0.16779 0.0
C492 C 0.8918 0.21566 0.15551 0.0
C493 C 0.86724 0.23818 0.1741 0.0
C494 C 0.92179 0.12046 0.08935 0.0
C495 C 0.96175 0.11175 0.10049 0.0
C496 C 0.90176 0.14371 0.11159 0.0
C497 C 0.92135 0.15791 0.14537 0.0
C498 C 0.96108 0.14903 0.15691 0.0
C499 C 0.9815 0.12613 0.13426 0.0
H500 H 1.00779 0.62466 0.40996 0.0
H501 H 0.08805 0.54925 0.36488 0.0
H502 H 1.01568 0.66128 0.36059 0.0
H503 H 0.09861 0.58691 0.31675 0.0
H504 H 0.12666 0.6587 0.24016 0.0
H505 H 0.08096 0.61903 0.2655 0.0
H506 H 0.07241 0.69716 0.3567 0.0
H507 H 0.11611 0.73674 0.33052 0.0
C508 C 0.02707 0.61601 0.38922 0.0
C509 C 0.04851 0.58503 0.39145 0.0
C510 C 0.03145 0.63682 0.36093 0.0
C511 C 0.05861 0.62757 0.33531 0.0
C512 C 0.07728 0.59485 0.3359 0.0
C513 C 0.07185 0.57347 0.36369 0.0
C514 C 0.11374 0.6676 0.26498 0.0
C515 C 0.12558 0.70016 0.28417 0.0
C516 C 0.08776 0.64492 0.27952 0.0
C517 C 0.07397 0.65448 0.31361 0.0
C518 C 0.08225 0.68878 0.33034 0.0
C519 C 0.10771 0.7115 0.31558 0.0
H520 H 0.62927 0.95573 0.62017 0.0
H521 H 0.52988 0.8816 0.58462 0.0
H522 H 0.66574 0.91128 0.65199 0.0
H523 H 0.56544 0.83727 0.61813 0.0
H524 H 0.66331 0.75741 0.64276 0.0
H525 H 0.62213 0.80134 0.61382 0.0
H526 H 0.66655 0.87902 0.70273 0.0
H527 H 0.70972 0.83594 0.72976 0.0
C528 C 0.61498 0.93002 0.61984 0.0
C529 C 0.57695 0.92186 0.60017 0.0
C530 C 0.63569 0.90462 0.63822 0.0
C531 C 0.61834 0.8708 0.63766 0.0
C532 C 0.57975 0.86297 0.61861 0.0
C533 C 0.55926 0.88833 0.59978 0.0
C534 C 0.66386 0.78385 0.65606 0.0
C535 C 0.68925 0.79341 0.68847 0.0
C536 C 0.64017 0.80892 0.63973 0.0
C537 C 0.64116 0.84364 0.65602 0.0
C538 C 0.66564 0.85267 0.68918 0.0
C539 C 0.6899 0.82787 0.70498 0.0
H540 H 0.52614 0.41601 0.90645 0.0
H541 H 0.43497 0.4008 0.97882 0.0
H542 H 0.50192 0.36225 0.86895 0.0
H543 H 0.40928 0.34871 0.94075 0.0
H544 H 0.3576 0.26 0.87 0.0
H545 H 0.40949 0.29172 0.9135 0.0
H546 H 0.44616 0.34935 0.82656 0.0
H547 H 0.39662 0.31663 0.78345 0.0
C548 C 0.50091 0.40117 0.91428 0.0
C549 C 0.48184 0.41301 0.94501 0.0
C550 C 0.48701 0.37031 0.89288 0.0
C551 C 0.45302 0.35121 0.90126 0.0
C552 C 0.43575 0.36215 0.9334 0.0
C553 C 0.45015 0.39249 0.9551 0.0
C554 C 0.37755 0.27881 0.86015 0.0
C555 C 0.37195 0.2867 0.82358 0.0
C556 C 0.40719 0.29718 0.88509 0.0
C557 C 0.4312 0.32417 0.87399 0.0
C558 C 0.42842 0.32903 0.83652 0.0
C559 C 0.39935 0.31042 0.81165 0.0
H560 H 0.85086 0.78287 0.37513 0.0
H561 H 0.9154 0.79756 0.28201 0.0
H562 H 0.90316 0.81699 0.41497 0.0
H563 H 0.96898 0.83057 0.32222 0.0
H564 H 0.99784 0.9394 0.38867 0.0
H565 H 0.96909 0.8885 0.35005 0.0
H566 H 0.96902 0.83032 0.44501 0.0
H567 H 0.99658 0.88204 0.48401 0.0
C568 C 0.87693 0.79242 0.36332 0.0
C569 C 0.87843 0.78833 0.32529 0.0
C570 C 0.90724 0.81188 0.38628 0.0
C571 C 0.93998 0.82738 0.37176 0.0
C572 C 0.94359 0.81998 0.3342 0.0
C573 C 0.91297 0.8009 0.31115 0.0
C574 C 0.99249 0.91558 0.40132 0.0
C575 C 0.99855 0.9151 0.43954 0.0
C576 C 0.97623 0.88611 0.37904 0.0
C577 C 0.96593 0.8553 0.3944 0.0
C578 C 0.97554 0.85386 0.43233 0.0
C579 C 0.99146 0.8835 0.45469 0.0
H580 H 0.40336 0.55936 0.59848 0.0
H581 H 0.499 0.63943 0.61494 0.0
H582 H 0.36064 0.59723 0.63256 0.0
H583 H 0.4552 0.67823 0.64889 0.0
H584 H 0.37104 0.72544 0.73072 0.0
H585 H 0.41876 0.6848 0.70519 0.0
H586 H 0.32693 0.65026 0.61588 0.0
H587 H 0.27914 0.68982 0.64196 0.0
C588 C 0.41533 0.5851 0.60971 0.0
C589 C 0.45413 0.5969 0.60392 0.0
C590 C 0.39081 0.60672 0.62907 0.0
C591 C 0.40459 0.64062 0.64272 0.0
C592 C 0.44419 0.652 0.63857 0.0
C593 C 0.46903 0.63007 0.61916 0.0
C594 C 0.36117 0.7088 0.70584 0.0
C595 C 0.32176 0.7104 0.6881 0.0
C596 C 0.38842 0.68592 0.6912 0.0
C597 C 0.3763 0.66458 0.65879 0.0
C598 C 0.3367 0.66617 0.64127 0.0
C599 C 0.30951 0.68885 0.65597 0.0
H600 H 0.5419 0.14261 0.93723 0.0
H601 H 0.61541 0.06526 0.88564 0.0
H602 H 0.54607 0.17894 0.88712 0.0
H603 H 0.62282 0.10275 0.83688 0.0
H604 H 0.63124 0.16379 0.74863 0.0
H605 H 0.59343 0.12752 0.78502 0.0
H606 H 0.59375 0.21508 0.86818 0.0
H607 H 0.62818 0.25138 0.8307 0.0
C608 C 0.55989 0.13394 0.91549 0.0
C609 C 0.57916 0.10173 0.91528 0.0
C610 C 0.56198 0.15454 0.88665 0.0
C611 C 0.58456 0.14377 0.8578 0.0
C612 C 0.60412 0.11147 0.85802 0.0
C613 C 0.60088 0.09036 0.88631 0.0
C614 C 0.62144 0.17545 0.77396 0.0
C615 C 0.63367 0.20972 0.7878 0.0
C616 C 0.60028 0.1547 0.79496 0.0
C617 C 0.59243 0.1679 0.83027 0.0
C618 C 0.59954 0.20378 0.84134 0.0
C619 C 0.61962 0.22468 0.81992 0.0
H620 H 0.14073 0.46503 0.11798 0.0
H621 H 0.04081 0.38915 0.10047 0.0
H622 H 0.18202 0.42404 0.1515 0.0
H623 H 0.08228 0.34794 0.13372 0.0
H624 H 0.16067 0.29208 0.21785 0.0
H625 H 0.11798 0.33853 0.19511 0.0
H626 H 0.21129 0.36805 0.12976 0.0
H627 H 0.25408 0.32245 0.15322 0.0
C628 C 0.12749 0.43976 0.12183 0.0
C629 C 0.08784 0.42996 0.10669 0.0
C630 C 0.15109 0.41635 0.1408 0.0
C631 C 0.13522 0.38296 0.14495 0.0
C632 C 0.09494 0.37374 0.13115 0.0
C633 C 0.07138 0.39714 0.11202 0.0
C634 C 0.17205 0.30896 0.19907 0.0
C635 C 0.21035 0.30406 0.18717 0.0
C636 C 0.14769 0.33522 0.18594 0.0
C637 C 0.16159 0.35679 0.16092 0.0
C638 C 0.20021 0.35205 0.14949 0.0
C639 C 0.22442 0.32579 0.1625 0.0
H640 H 0.64992 0.54842 0.90669 0.0
H641 H 0.52964 0.57968 0.86825 0.0
H642 H 0.67857 0.58462 0.86437 0.0
H643 H 0.5584 0.61612 0.82569 0.0
H644 H 0.64002 0.71582 0.80838 0.0
H645 H 0.6028 0.67211 0.83698 0.0
H646 H 0.68066 0.59166 0.79739 0.0
H647 H 0.71779 0.63506 0.76876 0.0
C648 C 0.62958 0.56253 0.88863 0.0
C649 C 0.58765 0.56139 0.89073 0.0
C650 C 0.64594 0.58315 0.8643 0.0
C651 C 0.62073 0.6033 0.84179 0.0
C652 C 0.57855 0.60108 0.84292 0.0
C653 C 0.56212 0.58012 0.86707 0.0
C654 C 0.64881 0.68873 0.80531 0.0
C655 C 0.68226 0.67911 0.78674 0.0
C656 C 0.6273 0.66365 0.82146 0.0
C657 C 0.63907 0.62853 0.81966 0.0
C658 C 0.67118 0.6186 0.79953 0.0
C659 C 0.69236 0.64353 0.78305 0.0
H660 H 0.63615 0.30529 0.14128 0.0
H661 H 0.73734 0.37759 0.17647 0.0
H662 H 0.60358 0.34907 0.1049 0.0
H663 H 0.70372 0.42239 0.14369 0.0
H664 H 0.65791 0.48185 0.05017 0.0
H665 H 0.68932 0.43772 0.08589 0.0
H666 H 0.57055 0.40072 0.10692 0.0
H667 H 0.53967 0.44144 0.06684 0.0
C668 C 0.65093 0.33077 0.14139 0.0
C669 C 0.6891 0.33833 0.16065 0.0
C670 C 0.63232 0.35594 0.12108 0.0
C671 C 0.65128 0.38918 0.12122 0.0
C672 C 0.68893 0.39676 0.14193 0.0
C673 C 0.70804 0.37126 0.16092 0.0
C674 C 0.63877 0.46433 0.0627 0.0
C675 C 0.59658 0.4654 0.05677 0.0
C676 C 0.65662 0.43922 0.08338 0.0
C677 C 0.63239 0.41585 0.09954 0.0
C678 C 0.59007 0.41788 0.09438 0.0
C679 C 0.57232 0.44192 0.07235 0.0
H680 H 0.91544 0.50697 0.40988 0.0
H681 H 0.90363 0.43019 0.48696 0.0
H682 H 0.86769 0.47267 0.36477 0.0
H683 H 0.85641 0.39555 0.44171 0.0
H684 H 0.7728 0.33728 0.35363 0.0
H685 H 0.79371 0.38677 0.399 0.0
H686 H 0.88599 0.41655 0.33267 0.0
H687 H 0.86437 0.36718 0.28719 0.0
C688 C 0.90178 0.48317 0.41742 0.0
C689 C 0.91395 0.47054 0.45132 0.0
C690 C 0.87452 0.46361 0.39166 0.0
C691 C 0.85933 0.43105 0.39942 0.0
C692 C 0.86773 0.42057 0.43496 0.0
C693 C 0.89487 0.44031 0.46087 0.0
C694 C 0.79725 0.35484 0.34883 0.0
C695 C 0.81762 0.34865 0.31771 0.0
C696 C 0.80903 0.38308 0.37455 0.0
C697 C 0.84141 0.40545 0.36936 0.0
C698 C 0.86049 0.40003 0.33709 0.0
C699 C 0.84863 0.37168 0.31134 0.0
H700 H 0.56086 0.56212 0.4099 0.0
H701 H 0.63429 0.60114 0.50964 0.0
H702 H 0.59952 0.59858 0.37511 0.0
H703 H 0.67529 0.63684 0.4743 0.0
H704 H 0.7174 0.71814 0.39766 0.0
H705 H 0.6794 0.68565 0.43776 0.0
H706 H 0.66282 0.59849 0.35374 0.0
H707 H 0.69875 0.63151 0.31367 0.0
C708 C 0.58572 0.57843 0.4243 0.0
C709 C 0.595 0.57846 0.46227 0.0
C710 C 0.60819 0.5992 0.40432 0.0
C711 C 0.64144 0.62008 0.42158 0.0
C712 C 0.64995 0.62111 0.46002 0.0
C713 C 0.62665 0.60064 0.48029 0.0
C714 C 0.70564 0.69196 0.38804 0.0
C715 C 0.71055 0.67745 0.35247 0.0
C716 C 0.684 0.67326 0.41101 0.0
C717 C 0.66717 0.6396 0.39886 0.0
C718 C 0.674 0.62474 0.36377 0.0
C719 C 0.695 0.64353 0.3408 0.0
H720 H 0.78721 0.29001 0.88815 0.0
H721 H 0.79961 0.37557 0.82151 0.0
H722 H 0.81763 0.32743 0.9424 0.0
H723 H 0.82909 0.41272 0.87506 0.0
H724 H 0.94518 0.39083 0.99003 0.0
H725 H 0.89142 0.35214 0.95628 0.0
H726 H 0.81839 0.44192 0.9367 0.0
H727 H 0.87227 0.48049 0.96961 0.0
C728 C 0.79534 0.31706 0.88535 0.0
C729 C 0.79143 0.32995 0.85073 0.0
C730 C 0.81283 0.33836 0.91629 0.0
C731 C 0.8257 0.37301 0.913 0.0
C732 C 0.819 0.38634 0.87868 0.0
C733 C 0.80238 0.36499 0.84788 0.0
C734 C 0.91709 0.40213 0.97955 0.0
C735 C 0.91334 0.43868 0.98134 0.0
C736 C 0.88619 0.37997 0.96041 0.0
C737 C 0.85114 0.39415 0.94312 0.0
C738 C 0.84545 0.43036 0.94908 0.0
C739 C 0.87635 0.45242 0.9678 0.0
H740 H 0.84138 0.89498 0.19789 0.0
H741 H 0.80521 0.81135 0.11334 0.0
H742 H 0.8736 0.92676 0.15398 0.0
H743 H 0.83764 0.84324 0.06908 0.0
H744 H 0.95058 0.89686 0.02248 0.0
H745 H 0.90921 0.86246 0.05833 0.0
H746 H 0.85364 0.95714 0.09843 0.0
H747 H 0.8946 0.99129 0.06307 0.0
C748 C 0.83998 0.88359 0.16978 0.0
C749 C 0.82059 0.85086 0.15893 0.0
C750 C 0.85832 0.90181 0.14455 0.0
C751 C 0.858 0.88764 0.10792 0.0
C752 C 0.83854 0.85481 0.09708 0.0
C753 C 0.81978 0.8367 0.12232 0.0
C754 C 0.92886 0.91019 0.03829 0.0
C755 C 0.9264 0.94694 0.0403 0.0
C756 C 0.90518 0.89048 0.05885 0.0
C757 C 0.8787 0.90719 0.08179 0.0
C758 C 0.87439 0.94356 0.08172 0.0
C759 C 0.89783 0.96313 0.06126 0.0
H760 H 0.8772 0.16618 0.77306 0.0
H761 H 0.81047 0.20454 0.86133 0.0
H762 H 0.91387 0.1275 0.81229 0.0
H763 H 0.8471 0.16441 0.90138 0.0
H764 H 0.94503 0.10104 0.97366 0.0
H765 H 0.90662 0.14389 0.93819 0.0
H766 H 0.91435 0.07666 0.83899 0.0
H767 H 0.95235 0.03542 0.87359 0.0
C768 C 0.86987 0.16631 0.80095 0.0
C769 C 0.84006 0.18905 0.81314 0.0
C770 C 0.89111 0.14344 0.82392 0.0
C771 C 0.884 0.14145 0.86088 0.0
C772 C 0.85431 0.16452 0.8735 0.0
C773 C 0.83278 0.18767 0.85019 0.0
C774 C 0.93865 0.0955 0.94426 0.0
C775 C 0.95263 0.06412 0.92703 0.0
C776 C 0.91618 0.12025 0.92359 0.0
C777 C 0.90701 0.11496 0.88474 0.0
C778 C 0.92089 0.0833 0.8682 0.0
C779 C 0.94286 0.05892 0.88856 0.0
H780 H 0.74214 0.14384 0.69391 0.0
H781 H 0.75562 0.22367 0.62063 0.0
H782 H 0.71137 0.10399 0.64324 0.0
H783 H 0.72435 0.18331 0.56901 0.0
H784 H 0.66176 0.03159 0.55315 0.0
H785 H 0.71679 0.06925 0.58557 0.0
H786 H 0.65256 0.16071 0.55444 0.0
H787 H 0.59801 0.12294 0.52104 0.0
C788 C 0.73944 0.15253 0.66664 0.0
C789 C 0.75093 0.18689 0.66122 0.0
C790 C 0.72205 0.12954 0.63742 0.0
C791 C 0.71517 0.14041 0.60196 0.0
C792 C 0.729 0.17421 0.59604 0.0
C793 C 0.74711 0.19721 0.62547 0.0
C794 C 0.65978 0.05972 0.55254 0.0
C795 C 0.62499 0.07432 0.53548 0.0
C796 C 0.69137 0.08131 0.57106 0.0
C797 C 0.68862 0.11802 0.5734 0.0
C798 C 0.6557 0.13256 0.55321 0.0
C799 C 0.62422 0.11089 0.53429 0.0
H800 H 0.59132 0.98553 0.38418 0.0
H801 H 0.58324 0.91116 0.46377 0.0
H802 H 0.63262 0.94593 0.34988 0.0
H803 H 0.62502 0.87046 0.42859 0.0
H804 H 0.6752 0.79353 0.33196 0.0
H805 H 0.63214 0.83006 0.37012 0.0
H806 H 0.69812 0.92254 0.34907 0.0
H807 H 0.7406 0.88667 0.31209 0.0
C808 C 0.5984 0.96065 0.39473 0.0
C809 C 0.58347 0.95243 0.4275 0.0
C810 C 0.62267 0.93756 0.37475 0.0
C811 C 0.63329 0.90423 0.38576 0.0
C812 C 0.61797 0.8955 0.41847 0.0
C813 C 0.594 0.91918 0.43907 0.0
C814 C 0.68054 0.82167 0.33536 0.0
C815 C 0.712 0.83654 0.31804 0.0
C816 C 0.65575 0.84288 0.35771 0.0
C817 C 0.66064 0.88006 0.36325 0.0
C818 C 0.6921 0.89451 0.34578 0.0
C819 C 0.71704 0.87349 0.32425 0.0
H820 H 0.90562 0.18636 0.33804 0.0
H821 H 0.79878 0.1754 0.3939 0.0
H822 H 0.94109 0.14605 0.37751 0.0
H823 H 0.83348 0.13486 0.43227 0.0
H824 H 0.9155 0.08976 0.5171 0.0
H825 H 0.89082 0.13648 0.48094 0.0
H826 H 0.93132 0.0816 0.38433 0.0
H827 H 0.95649 0.03487 0.42082 0.0
C828 C 0.89009 0.1756 0.35902 0.0
C829 C 0.84994 0.18387 0.36351 0.0
C830 C 0.91012 0.1526 0.38125 0.0
C831 C 0.8899 0.13796 0.4079 0.0
C832 C 0.84985 0.1466 0.41241 0.0
C833 C 0.83002 0.16958 0.39042 0.0
C834 C 0.91913 0.08784 0.48816 0.0
C835 C 0.93739 0.05905 0.47135 0.0
C836 C 0.90533 0.11449 0.46765 0.0
C837 C 0.90936 0.11231 0.43012 0.0
C838 C 0.92857 0.08387 0.41344 0.0
C839 C 0.94258 0.05722 0.43408 0.0
H840 H 0.74784 0.13012 0.23237 0.0
H841 H 0.6473 0.19119 0.19162 0.0
H842 H 0.71558 0.0773 0.19816 0.0
H843 H 0.61487 0.13795 0.15833 0.0
H844 H 0.56202 0.02366 0.13012 0.0
H845 H 0.60055 0.05857 0.18157 0.0
H846 H 0.68915 0.08603 0.11112 0.0
H847 H 0.65028 0.0521 0.05914 0.0
C848 C 0.71846 0.13214 0.21685 0.0
C849 C 0.70033 0.16485 0.21403 0.0
C850 C 0.70009 0.10191 0.19759 0.0
C851 C 0.66296 0.10398 0.17616 0.0
C852 C 0.64348 0.13608 0.17521 0.0
C853 C 0.66215 0.16643 0.19387 0.0
C854 C 0.59045 0.03611 0.12579 0.0
C855 C 0.60273 0.03601 0.09047 0.0
C856 C 0.61242 0.0559 0.15528 0.0
C857 C 0.64735 0.07478 0.14981 0.0
C858 C 0.66223 0.07131 0.11562 0.0
C859 C 0.63991 0.05215 0.08597 0.0
H860 H 0.72867 0.86901 0.8798 0.0
H861 H 0.63129 0.84268 0.79294 0.0
H862 H 0.68387 0.90735 0.91204 0.0
H863 H 0.5869 0.88161 0.82457 0.0
H864 H 0.51429 0.90054 0.92431 0.0
H865 H 0.55797 0.87371 0.8817 0.0
H866 H 0.64411 0.961 0.90871 0.0
H867 H 0.60112 0.98706 0.95271 0.0
C868 C 0.69793 0.87206 0.86745 0.0
C869 C 0.68281 0.85298 0.83449 0.0
C870 C 0.67257 0.89411 0.88554 0.0
C871 C 0.63225 0.89717 0.87047 0.0
C872 C 0.61792 0.8793 0.83657 0.0
C873 C 0.64314 0.85715 0.81866 0.0
C874 C 0.54228 0.91413 0.92064 0.0
C875 C 0.55481 0.94553 0.94148 0.0
C876 C 0.56696 0.89907 0.89612 0.0
C877 C 0.60403 0.91563 0.89211 0.0
C878 C 0.61557 0.94795 0.91169 0.0
C879 C 0.59102 0.96284 0.93649 0.0
H880 H 0.884 0.94599 0.59178 0.0
H881 H 1.00351 0.92706 0.64384 0.0
H882 H 0.85374 0.91248 0.63542 0.0
H883 H 0.97304 0.89306 0.68769 0.0
H884 H 0.89315 0.79336 0.71145 0.0
H885 H 0.93153 0.8342 0.68019 0.0
H886 H 0.84715 0.91517 0.70401 0.0
H887 H 0.80894 0.87462 0.73549 0.0
C888 C 0.90377 0.93481 0.61276 0.0
C889 C 0.94605 0.9389 0.61443 0.0
C890 C 0.88644 0.91587 0.63792 0.0
C891 C 0.91103 0.90032 0.66505 0.0
C892 C 0.95341 0.90473 0.66698 0.0
C893 C 0.9708 0.92412 0.64199 0.0
C894 C 0.88324 0.82006 0.71062 0.0
C895 C 0.84773 0.83059 0.72555 0.0
C896 C 0.90536 0.84349 0.69292 0.0
C897 C 0.89206 0.87771 0.68939 0.0
C898 C 0.85786 0.88882 0.70608 0.0
C899 C 0.8361 0.8656 0.72424 0.0
H900 H 0.19357 0.75933 0.86501 0.0
H901 H 0.19809 0.83193 0.78244 0.0
H902 H 0.14533 0.79655 0.89466 0.0
H903 H 0.14884 0.86837 0.81151 0.0
H904 H 0.03003 0.90004 0.86974 0.0
H905 H 0.06824 0.85722 0.83424 0.0
H906 H 0.16727 0.86733 0.9212 0.0
H907 H 0.13004 0.91029 0.95605 0.0
C908 C 0.18341 0.7827 0.85275 0.0
C909 C 0.19914 0.79292 0.82156 0.0
C910 C 0.15597 0.80376 0.86957 0.0
C911 C 0.14361 0.83471 0.85484 0.0
C912 C 0.15778 0.84415 0.8227 0.0
C913 C 0.18579 0.82342 0.80624 0.0
C914 C 0.05978 0.8927 0.88117 0.0
C915 C 0.07731 0.90795 0.91541 0.0
C916 C 0.08145 0.86858 0.861 0.0
C917 C 0.12005 0.85923 0.87557 0.0
C918 C 0.13721 0.87415 0.90995 0.0
C919 C 0.11605 0.89862 0.92967 0.0
H920 H 0.05221 0.41447 0.63744 0.0
H921 H 0.94437 0.47431 0.64726 0.0
H922 H 0.0328 0.37749 0.68356 0.0
H923 H 0.925 0.43754 0.69324 0.0
H924 H 0.8933 0.36963 0.77365 0.0
H925 H 0.94009 0.41227 0.7541 0.0
H926 H 0.97235 0.33467 0.67046 0.0
H927 H 0.92581 0.29209 0.69014 0.0
C928 C 0.02496 0.42026 0.65025 0.0
C929 C 0.99915 0.4465 0.63843 0.0
C930 C 1.01398 0.39921 0.67661 0.0
C931 C 0.97727 0.40446 0.69157 0.0
C932 C 0.95365 0.43307 0.68233 0.0
C933 C 0.96448 0.45393 0.6558 0.0
C934 C 0.91128 0.36148 0.75175 0.0
C935 C 0.90544 0.32801 0.73264 0.0
C936 C 0.93806 0.3858 0.74072 0.0
C937 C 0.95934 0.37684 0.71057 0.0
C938 C 0.95651 0.34219 0.69399 0.0
C939 C 0.92964 0.31791 0.70496 0.0
H940 H 0.49137 0.14437 0.44091 0.0
H941 H 0.41752 0.06229 0.3757 0.0
H942 H 0.45094 0.18853 0.41129 0.0
H943 H 0.37705 0.10646 0.3462 0.0
H944 H 0.33983 0.19709 0.27918 0.0
H945 H 0.38565 0.15459 0.30491 0.0
H946 H 0.37717 0.20514 0.41338 0.0
H947 H 0.33166 0.24803 0.38706 0.0
C948 C 0.46688 0.13588 0.41987 0.0
C949 C 0.45737 0.10017 0.41037 0.0
C950 C 0.4437 0.16102 0.40322 0.0
C951 C 0.41105 0.15065 0.37675 0.0
C952 C 0.40241 0.11492 0.36638 0.0
C953 C 0.42541 0.08978 0.38321 0.0
C954 C 0.34869 0.19955 0.30824 0.0
C955 C 0.33335 0.226 0.33109 0.0
C956 C 0.3743 0.17505 0.32304 0.0
C957 C 0.38502 0.17701 0.36097 0.0
C958 C 0.36967 0.20359 0.38393 0.0
C959 C 0.34362 0.22784 0.36903 0.0
H960 H 0.54996 0.5831 0.12476 0.0
H961 H 0.5534 0.63573 0.02655 0.0
H962 H 0.57675 0.63589 0.16153 0.0
H963 H 0.57866 0.68937 0.06347 0.0
H964 H 0.69228 0.74298 0.13622 0.0
H965 H 0.64204 0.70721 0.09538 0.0
H966 H 0.57261 0.69416 0.18601 0.0
H967 H 0.62442 0.72833 0.22714 0.0
C968 C 0.5556 0.60626 0.1111 0.0
C969 C 0.55049 0.60504 0.07279 0.0
C970 C 0.57059 0.63681 0.13222 0.0
C971 C 0.58033 0.66703 0.11552 0.0
C972 C 0.57242 0.66643 0.07723 0.0
C973 C 0.55798 0.63567 0.05607 0.0
C974 C 0.66564 0.73334 0.14712 0.0
C975 C 0.66268 0.73752 0.18487 0.0
C976 C 0.63661 0.71285 0.12368 0.0
C977 C 0.60384 0.6967 0.13761 0.0
C978 C 0.59827 0.70501 0.17463 0.0
C979 C 0.62775 0.72481 0.19815 0.0
H980 H 0.17999 0.2389 0.63588 0.0
H981 H 0.11995 0.22293 0.73131 0.0
H982 H 0.12627 0.20538 0.5973 0.0
H983 H 0.06481 0.1906 0.69241 0.0
H984 H 0.03556 0.08179 0.62612 0.0
H985 H 0.06381 0.13309 0.66422 0.0
H986 H 0.06027 0.19123 0.56896 0.0
H987 H 0.0333 0.13902 0.53042 0.0
C988 C 0.15459 0.22919 0.64851 0.0
C989 C 0.15484 0.23263 0.68674 0.0
C990 C 0.12341 0.2101 0.62627 0.0
C991 C 0.09154 0.19435 0.64176 0.0
C992 C 0.08954 0.20133 0.67965 0.0
C993 C 0.12106 0.22001 0.70196 0.0
C994 C 0.04 0.10567 0.61329 0.0
C995 C 0.03323 0.10599 0.57509 0.0
C996 C 0.05595 0.1354 0.6353 0.0
C997 C 0.06521 0.16632 0.61968 0.0
C998 C 0.05463 0.16761 0.58183 0.0
C999 C 0.03906 0.13768 0.55972 0.0
H1000 H 0.69554 0.33023 0.2801 0.0
H1001 H 0.65789 0.2492 0.34445 0.0
H1002 H 0.65127 0.37109 0.30918 0.0
H1003 H 0.61286 0.29043 0.37342 0.0
H1004 H 0.51665 0.37458 0.39606 0.0
H1005 H 0.55094 0.33037 0.35888 0.0
H1006 H 0.66049 0.39537 0.37661 0.0
H1007 H 0.62667 0.43909 0.41339 0.0
C1008 C 0.67709 0.32098 0.29992 0.0
C1009 C 0.68025 0.28684 0.31052 0.0
C1010 C 0.65191 0.34435 0.31651 0.0
C1011 C 0.62919 0.33371 0.34353 0.0
C1012 C 0.63012 0.2989 0.35239 0.0
C1013 C 0.65575 0.27547 0.33595 0.0
C1014 C 0.54795 0.37929 0.39168 0.0
C1015 C 0.5692 0.40997 0.40727 0.0
C1016 C 0.56743 0.35414 0.3707 0.0
C1017 C 0.60794 0.35992 0.36489 0.0
C1018 C 0.62896 0.39075 0.38036 0.0
C1019 C 0.60972 0.41557 0.40148 0.0
H1020 H 0.39788 0.91368 0.07972 0.0
H1021 H 0.52092 0.93097 0.13109 0.0
H1022 H 0.38504 0.87336 0.12543 0.0
H1023 H 0.50765 0.89147 0.17733 0.0
H1024 H 0.40333 0.77035 0.17569 0.0
H1025 H 0.43764 0.8095 0.13973 0.0
H1026 H 0.43461 0.89395 0.22515 0.0
H1027 H 0.39932 0.85503 0.2611 0.0
C1028 C 0.42173 0.90927 0.10118 0.0
C1029 C 0.46026 0.92487 0.10225 0.0
C1030 C 0.41462 0.88623 0.12691 0.0
C1031 C 0.44575 0.87945 0.15409 0.0
C1032 C 0.48366 0.89633 0.15618 0.0
C1033 C 0.49104 0.91874 0.12998 0.0
C1034 C 0.41151 0.79683 0.18747 0.0
C1035 C 0.39801 0.81017 0.22052 0.0
C1036 C 0.43102 0.81907 0.16694 0.0
C1037 C 0.43788 0.8544 0.17988 0.0
C1038 C 0.42934 0.86659 0.21505 0.0
C1039 C 0.40927 0.84444 0.23543 0.0
H1040 H 0.89176 0.58534 0.9379 0.0
H1041 H 0.99719 0.60361 0.88236 0.0
H1042 H 0.85616 0.63088 0.90593 0.0
H1043 H 0.96073 0.64861 0.84949 0.0
H1044 H 0.82645 0.67974 0.77804 0.0
H1045 H 0.86822 0.63617 0.80727 0.0
H1046 H 0.8958 0.70903 0.9036 0.0
H1047 H 0.85532 0.75346 0.87387 0.0
C1048 C 0.90701 0.59884 0.9185 0.0
C1049 C 0.94697 0.59125 0.9123 0.0
C1050 C 0.88682 0.62479 0.90054 0.0
C1051 C 0.90624 0.64276 0.87578 0.0
C1052 C 0.94577 0.63479 0.86883 0.0
C1053 C 0.96635 0.60928 0.88743 0.0
C1054 C 0.84236 0.68678 0.80501 0.0
C1055 C 0.83844 0.71993 0.82363 0.0
C1056 C 0.86589 0.66191 0.82163 0.0
C1057 C 0.8849 0.66986 0.85721 0.0
C1058 C 0.8814 0.70297 0.87585 0.0
C1059 C 0.85851 0.72816 0.85892 0.0
H1060 H 0.37635 0.46686 0.09993 0.0
H1061 H 0.49624 0.45196 0.15357 0.0
H1062 H 0.34712 0.43166 0.1427 0.0
H1063 H 0.46689 0.41653 0.19669 0.0
H1064 H 0.39617 0.31105 0.21429 0.0
H1065 H 0.43145 0.35636 0.18638 0.0
H1066 H 0.33724 0.42872 0.20873 0.0
H1067 H 0.30184 0.38362 0.2365 0.0
C1068 C 0.39634 0.45663 0.12142 0.0
C1069 C 0.43847 0.46193 0.12349 0.0
C1070 C 0.37962 0.43662 0.14601 0.0
C1071 C 0.40475 0.42129 0.17297 0.0
C1072 C 0.44687 0.42786 0.17601 0.0
C1073 C 0.4636 0.44823 0.15153 0.0
C1074 C 0.38329 0.33677 0.21376 0.0
C1075 C 0.34594 0.34353 0.22721 0.0
C1076 C 0.40369 0.3628 0.19806 0.0
C1077 C 0.38694 0.39598 0.19523 0.0
C1078 C 0.35066 0.40328 0.21031 0.0
C1079 C 0.33048 0.37741 0.2263 0.0
H1080 H 0.49379 0.58972 0.96578 0.0
H1081 H 0.38068 0.52945 0.94353 0.0
H1082 H 0.46839 0.63119 0.92417 0.0
H1083 H 0.35471 0.57215 0.90147 0.0
H1084 H 0.35353 0.63829 0.80018 0.0
H1085 H 0.37766 0.59369 0.83971 0.0
H1086 H 0.40946 0.67428 0.92879 0.0
H1087 H 0.38501 0.71902 0.8894 0.0
C1088 C 0.46353 0.58519 0.95171 0.0
C1089 C 0.439 0.55647 0.95752 0.0
C1090 C 0.44904 0.60908 0.9282 0.0
C1091 C 0.40981 0.60463 0.91028 0.0
C1092 C 0.38525 0.57563 0.91531 0.0
C1093 C 0.39986 0.55153 0.93918 0.0
C1094 C 0.36628 0.64643 0.82806 0.0
C1095 C 0.3681 0.68181 0.842 0.0
C1096 C 0.37937 0.621 0.85059 0.0
C1097 C 0.39478 0.63096 0.88691 0.0
C1098 C 0.39749 0.6664 0.90063 0.0
C1099 C 0.38394 0.69181 0.87823 0.0
H1100 H 0.13267 0.51459 0.61098 0.0
H1101 H 0.1308 0.59965 0.54166 0.0
H1102 H 0.16519 0.55338 0.66222 0.0
H1103 H 0.16449 0.6382 0.59282 0.0
H1104 H 0.14811 0.70548 0.69617 0.0
H1105 H 0.12765 0.65962 0.6472 0.0
H1106 H 0.22224 0.59418 0.69052 0.0
H1107 H 0.24245 0.63971 0.7401 0.0
C1108 C 0.14066 0.54124 0.60635 0.0
C1109 C 0.12787 0.55459 0.5729 0.0
C1110 C 0.15925 0.56339 0.6357 0.0
C1111 C 0.16553 0.59899 0.63168 0.0
C1112 C 0.15841 0.611 0.59674 0.0
C1113 C 0.13972 0.58883 0.56736 0.0
C1114 C 0.16391 0.68101 0.69592 0.0
C1115 C 0.19776 0.67668 0.72129 0.0
C1116 C 0.15267 0.65504 0.6675 0.0
C1117 C 0.17482 0.62428 0.66422 0.0
C1118 C 0.20543 0.61812 0.692 0.0
C1119 C 0.2167 0.64411 0.72051 0.0
H1120 H 0.30462 0.3038 0.60867 0.0
H1121 H 0.34236 0.38508 0.69536 0.0
H1122 H 0.33733 0.3368 0.56532 0.0
H1123 H 0.3748 0.41785 0.65249 0.0
H1124 H 0.39508 0.48552 0.56428 0.0
H1125 H 0.35434 0.45012 0.59865 0.0
H1126 H 0.40873 0.35643 0.55446 0.0
H1127 H 0.44973 0.39207 0.51948 0.0
C1128 C 0.31967 0.3288 0.61833 0.0
C1129 C 0.32081 0.34204 0.65525 0.0
C1130 C 0.33854 0.34756 0.59362 0.0
C1131 C 0.35836 0.3801 0.60538 0.0
C1132 C 0.3592 0.39319 0.64237 0.0
C1133 C 0.34078 0.37435 0.667 0.0
C1134 C 0.3981 0.45733 0.56138 0.0
C1135 C 0.42617 0.44172 0.53948 0.0
C1136 C 0.37478 0.43704 0.58125 0.0
C1137 C 0.37883 0.40054 0.57984 0.0
C1138 C 0.40491 0.38451 0.55609 0.0
C1139 C 0.4284 0.40493 0.53608 0.0
H1140 H 0.22972 0.64235 0.19174 0.0
H1141 H 0.24663 0.72489 0.1223 0.0
H1142 H 0.20177 0.60371 0.13868 0.0
H1143 H 0.21769 0.68603 0.06861 0.0
H1144 H 0.09024 0.62306 0.02016 0.0
H1145 H 0.14347 0.66198 0.05405 0.0
H1146 H 0.21503 0.57238 0.078 0.0
H1147 H 0.16176 0.53347 0.04461 0.0
C1148 C 0.22819 0.65195 0.16493 0.0
C1149 C 0.23999 0.68658 0.16107 0.0
C1150 C 0.21251 0.62974 0.13443 0.0
C1151 C 0.2076 0.64183 0.09944 0.0
C1152 C 0.2212 0.67606 0.09526 0.0
C1153 C 0.23776 0.69819 0.12589 0.0
C1154 C 0.11788 0.61176 0.03166 0.0
C1155 C 0.12129 0.5752 0.03088 0.0
C1156 C 0.14852 0.63408 0.05085 0.0
C1157 C 0.18292 0.62009 0.06936 0.0
C1158 C 0.18843 0.58378 0.06458 0.0
C1159 C 0.15784 0.56153 0.04561 0.0
H1160 H 0.6701 0.3584 0.73623 0.0
H1161 H 0.72953 0.31498 0.64512 0.0
H1162 H 0.63225 0.39658 0.69728 0.0
H1163 H 0.69177 0.35464 0.60532 0.0
H1164 H 0.59132 0.41709 0.53562 0.0
H1165 H 0.63082 0.37489 0.57098 0.0
H1166 H 0.63174 0.44631 0.66855 0.0
H1167 H 0.59257 0.48698 0.63404 0.0
C1168 C 0.67559 0.35707 0.70775 0.0
C1169 C 0.70371 0.33312 0.69463 0.0
C1170 C 0.65368 0.37962 0.68496 0.0
C1171 C 0.65845 0.38 0.64731 0.0
C1172 C 0.68643 0.35573 0.63379 0.0
C1173 C 0.70862 0.33288 0.65691 0.0
C1174 C 0.59994 0.42371 0.56464 0.0
C1175 C 0.58804 0.45604 0.58149 0.0
C1176 C 0.62298 0.39936 0.5852 0.0
C1177 C 0.63484 0.40607 0.62358 0.0
C1178 C 0.62308 0.43868 0.63975 0.0
C1179 C 0.60048 0.4627 0.61945 0.0
H1180 H 0.83129 0.63706 0.23009 0.0
H1181 H 0.8466 0.72526 0.16821 0.0
H1182 H 0.87015 0.60124 0.19017 0.0
H1183 H 0.8872 0.68886 0.12757 0.0
H1184 H 0.93776 0.60096 0.04311 0.0
H1185 H 0.89704 0.64122 0.07977 0.0
H1186 H 0.93213 0.58618 0.1745 0.0
H1187 H 0.97121 0.54663 0.1384 0.0
C1188 C 0.84322 0.64924 0.20801 0.0
C1189 C 0.83526 0.6848 0.20341 0.0
C1190 C 0.86631 0.6283 0.18473 0.0
C1191 C 0.8834 0.64133 0.15494 0.0
C1192 C 0.87508 0.67701 0.14973 0.0
C1193 C 0.85172 0.69827 0.17344 0.0
C1194 C 0.93669 0.5974 0.07176 0.0
C1195 C 0.95826 0.56968 0.08713 0.0
C1196 C 0.9132 0.62084 0.09316 0.0
C1197 C 0.90983 0.61755 0.1309 0.0
C1198 C 0.93205 0.59003 0.14583 0.0
C1199 C 0.9553 0.56701 0.12475 0.0
H1200 H 0.98946 0.55253 0.5967 0.0
H1201 H 0.90595 0.58339 0.50767 0.0
H1202 H 0.94425 0.57475 0.64046 0.0
H1203 H 0.86178 0.60744 0.55154 0.0
H1204 H 0.78138 0.63397 0.63747 0.0
H1205 H 0.81843 0.59365 0.59913 0.0
H1206 H 0.93181 0.63701 0.65643 0.0
H1207 H 0.8949 0.67628 0.69528 0.0
C1208 C 0.96098 0.56342 0.58659 0.0
C1209 C 0.95068 0.5665 0.54923 0.0
C1210 C 0.93544 0.57622 0.61148 0.0
C1211 C 0.89995 0.59266 0.59907 0.0
C1212 C 0.88881 0.59427 0.5615 0.0
C1213 C 0.91415 0.58105 0.53657 0.0
C1214 C 0.8142 0.63429 0.64205 0.0
C1215 C 0.83574 0.65796 0.66872 0.0
C1216 C 0.83517 0.61139 0.62033 0.0
C1217 C 0.87761 0.61241 0.62521 0.0
C1218 C 0.89896 0.63538 0.65282 0.0
C1219 C 0.87801 0.65801 0.67467 0.0
H1220 H 0.44086 0.59915 0.47311 0.0
H1221 H 0.43899 0.52963 0.37438 0.0
H1222 H 0.40176 0.64177 0.43804 0.0
H1223 H 0.40015 0.5707 0.34013 0.0
H1224 H 0.36201 0.65894 0.27282 0.0
H1225 H 0.39951 0.62033 0.31147 0.0
H1226 H 0.34138 0.66301 0.40398 0.0
H1227 H 0.30399 0.70313 0.36446 0.0
C1228 C 0.43217 0.59269 0.44407 0.0
C1229 C 0.44378 0.56032 0.42706 0.0
C1230 C 0.40935 0.61731 0.42367 0.0
C1231 C 0.3974 0.61084 0.38528 0.0
C1232 C 0.40888 0.57818 0.36895 0.0
C1233 C 0.43129 0.55392 0.38909 0.0
C1234 C 0.35675 0.66036 0.30136 0.0
C1235 C 0.32913 0.68468 0.3147 0.0
C1236 C 0.37846 0.63753 0.32399 0.0
C1237 C 0.37398 0.6372 0.36171 0.0
C1238 C 0.3465 0.66184 0.37545 0.0
C1239 C 0.32452 0.68496 0.35249 0.0
H1240 H 0.1905 0.29406 0.84342 0.0
H1241 H 0.20341 0.38266 0.7816 0.0
H1242 H 0.14953 0.32966 0.88439 0.0
H1243 H 0.16404 0.41772 0.82182 0.0
H1244 H 0.0621 0.47037 0.87452 0.0
H1245 H 0.10189 0.43179 0.83805 0.0
H1246 H 0.13907 0.37686 0.9324 0.0
H1247 H 0.0977 0.41615 0.96945 0.0
C1248 C 0.18481 0.32099 0.83829 0.0
C1249 C 0.20074 0.33481 0.80824 0.0
C1250 C 0.1612 0.34179 0.8622 0.0
C1251 C 0.15205 0.37734 0.85711 0.0
C1252 C 0.16858 0.39073 0.82721 0.0
C1253 C 0.19196 0.37025 0.80375 0.0
C1254 C 0.07862 0.45022 0.88802 0.0
C1255 C 0.07602 0.44728 0.92566 0.0
C1256 C 0.10229 0.42777 0.86671 0.0
C1257 C 0.12529 0.40056 0.88141 0.0
C1258 C 0.12231 0.39701 0.91917 0.0
C1259 C 0.09844 0.4199 0.9408 0.0
H1260 H 0.23075 0.38768 0.3661 0.0
H1261 H 0.12675 0.33519 0.30107 0.0
H1262 H 0.18581 0.41784 0.4057 0.0
H1263 H 0.08183 0.36552 0.34053 0.0
H1264 H 0.03256 0.38866 0.45435 0.0
H1265 H 0.07165 0.36168 0.40718 0.0
H1266 H 0.13182 0.46171 0.40079 0.0
H1267 H 0.09486 0.48791 0.44876 0.0
C1268 C 0.19826 0.3833 0.35996 0.0
C1269 C 0.1818 0.35961 0.33082 0.0
C1270 C 0.1727 0.40039 0.38242 0.0
C1271 C 0.1307 0.39368 0.37576 0.0
C1272 C 0.11424 0.37071 0.34597 0.0
C1273 C 0.13978 0.35381 0.32338 0.0
C1274 C 0.05378 0.40471 0.44234 0.0
C1275 C 0.06075 0.44015 0.45458 0.0
C1276 C 0.07579 0.38951 0.41546 0.0
C1277 C 0.1044 0.40994 0.40081 0.0
C1278 C 0.10998 0.44565 0.41209 0.0
C1279 C 0.0885 0.46062 0.43909 0.0
loop_
_geom_bond_atom_site_label_1
_geom_bond_atom_site_label_2
_geom_bond_distance
_geom_bond_site_symmetry_2
_ccdc_geom_bond_type
Tb0 O3 2.453 1_565 S
Tb0 O4 2.596 1_565 S
Tb0 O5 2.374 1_665 S
Tb0 O13 2.343 1_656 S
Tb0 O15 2.353 . S
Tb0 O17 2.427 1_655 S
Tb0 O18 2.513 1_655 S
C1 O5 1.251 . S
C1 O7 1.263 1_556 S
Tb2 O4 2.343 1_454 S
Tb2 O7 2.353 . S
Tb2 O10 2.427 1_455 S
Tb2 O11 2.513 1_455 S
Tb2 O12 2.453 1_545 S
Tb2 O13 2.596 1_545 S
Tb2 O14 2.374 1_445 S
O3 Tb0 2.453 1_545 S
O3 C19 1.245 . S
O4 Tb0 2.596 1_545 S
O4 Tb2 2.343 1_656 S
O4 C19 1.259 . S
O5 Tb0 2.374 1_445 S
O5 C1 1.251 . S
C6 O10 1.275 . S
C6 O11 1.246 . S
O7 C1 1.263 1_554 S
O7 Tb2 2.353 . S
C8 O12 1.245 . S
C8 O13 1.259 . S
C9 O14 1.250 . S
C9 O15 1.263 1_554 S
O10 Tb2 2.427 1_655 S
O10 C6 1.275 . S
O11 Tb2 2.513 1_655 S
O11 C6 1.246 . S
O12 Tb2 2.453 1_565 S
O12 C8 1.245 . S
O13 Tb0 2.343 1_454 S
O13 Tb2 2.596 1_565 S
O13 C8 1.259 . S
O14 Tb2 2.374 1_665 S
O14 C9 1.250 . S
O15 Tb0 2.353 . S
O15 C9 1.263 1_556 S
C16 O17 1.275 . S
C16 O18 1.246 . S
O17 Tb0 2.427 1_455 S
O17 C16 1.275 . S
O18 Tb0 2.513 1_455 S
O18 C16 1.246 . S
C19 O3 1.245 . S
C19 O4 1.259 . S
Tb20 O23 2.453 . S
Tb20 O24 2.596 . S
Tb20 O25 2.374 . S
Tb20 O33 2.343 . S
Tb20 O35 2.353 . S
Tb20 O37 2.427 . S
Tb20 O38 2.513 . S
C21 O25 1.251 . S
C21 O27 1.263 . S
Tb22 O24 2.343 . S
Tb22 O27 2.353 . S
Tb22 O30 2.427 . S
Tb22 O31 2.513 . S
Tb22 O32 2.453 . S
Tb22 O33 2.596 . S
Tb22 O34 2.374 . S
O23 Tb20 2.453 . S
O23 C39 1.245 . S
O24 Tb20 2.596 . S
O24 Tb22 2.343 . S
O24 C39 1.259 . S
O25 Tb20 2.374 . S
O25 C21 1.251 . S
C26 O30 1.275 . S
C26 O31 1.246 . S
O27 C21 1.263 . S
O27 Tb22 2.353 . S
C28 O32 1.245 . S
C28 O33 1.259 . S
C29 O34 1.250 . S
C29 O35 1.263 . S
O30 Tb22 2.427 . S
O30 C26 1.275 . S
O31 Tb22 2.513 . S
O31 C26 1.246 . S
O32 Tb22 2.453 . S
O32 C28 1.245 . S
O33 Tb20 2.343 . S
O33 Tb22 2.596 . S
O33 C28 1.259 . S
O34 Tb22 2.374 . S
O34 C29 1.250 . S
O35 Tb20 2.353 . S
O35 C29 1.263 . S
C36 O37 1.275 . S
C36 O38 1.246 . S
O37 Tb20 2.427 . S
O37 C36 1.275 . S
O38 Tb20 2.513 . S
O38 C36 1.246 . S
C39 O23 1.245 . S
C39 O24 1.259 . S
Tb40 O43 2.453 1_545 S
Tb40 O44 2.596 1_545 S
Tb40 O45 2.374 1_545 S
Tb40 O53 2.343 . S
Tb40 O55 2.353 . S
Tb40 O57 2.427 . S
Tb40 O58 2.513 . S
C41 O45 1.251 . S
C41 O47 1.263 . S
Tb42 O44 2.343 . S
Tb42 O47 2.353 . S
Tb42 O50 2.427 . S
Tb42 O51 2.513 . S
Tb42 O52 2.453 1_565 S
Tb42 O53 2.596 1_565 S
Tb42 O54 2.374 1_565 S
O43 Tb40 2.453 1_565 S
O43 C59 1.245 . S
O44 Tb40 2.596 1_565 S
O44 Tb42 2.343 . S
O44 C59 1.259 . S
O45 Tb40 2.374 1_565 S
O45 C41 1.251 . S
C46 O50 1.275 . S
C46 O51 1.246 . S
O47 C41 1.263 . S
O47 Tb42 2.353 . S
C48 O52 1.245 . S
C48 O53 1.259 . S
C49 O54 1.250 . S
C49 O55 1.263 . S
O50 Tb42 2.427 . S
O50 C46 1.275 . S
O51 Tb42 2.513 . S
O51 C46 1.246 . S
O52 Tb42 2.453 1_545 S
O52 C48 1.245 . S
O53 Tb40 2.343 . S
O53 Tb42 2.596 1_545 S
O53 C48 1.259 . S
O54 Tb42 2.374 1_545 S
O54 C49 1.250 . S
O55 Tb40 2.353 . S
O55 C49 1.263 . S
C56 O57 1.275 . S
C56 O58 1.246 . S
O57 Tb40 2.427 . S
O57 C56 1.275 . S
O58 Tb40 2.513 . S
O58 C56 1.246 . S
C59 O43 1.245 . S
C59 O44 1.259 . S
Tb60 O63 2.453 . S
Tb60 O64 2.596 . S
Tb60 O65 2.374 . S
Tb60 O73 2.343 . S
Tb60 O75 2.353 . S
Tb60 O77 2.427 . S
Tb60 O78 2.513 . S
C61 O65 1.251 . S
C61 O67 1.263 . S
Tb62 O64 2.343 . S
Tb62 O67 2.353 . S
Tb62 O70 2.427 . S
Tb62 O71 2.513 . S
Tb62 O72 2.453 . S
Tb62 O73 2.596 . S
Tb62 O74 2.374 . S
O63 Tb60 2.453 . S
O63 C79 1.245 . S
O64 Tb60 2.596 . S
O64 Tb62 2.343 . S
O64 C79 1.259 . S
O65 Tb60 2.374 . S
O65 C61 1.251 . S
C66 O70 1.275 . S
C66 O71 1.246 . S
O67 C61 1.263 . S
O67 Tb62 2.353 . S
C68 O72 1.245 . S
C68 O73 1.259 . S
C69 O74 1.250 . S
C69 O75 1.263 . S
O70 Tb62 2.427 . S
O70 C66 1.275 . S
O71 Tb62 2.513 . S
O71 C66 1.246 . S
O72 Tb62 2.453 . S
O72 C68 1.245 . S
O73 Tb60 2.343 . S
O73 Tb62 2.596 . S
O73 C68 1.259 . S
O74 Tb62 2.374 . S
O74 C69 1.250 . S
O75 Tb60 2.353 . S
O75 C69 1.263 . S
C76 O77 1.275 . S
C76 O78 1.246 . S
O77 Tb60 2.427 . S
O77 C76 1.275 . S
O78 Tb60 2.513 . S
O78 C76 1.246 . S
C79 O63 1.245 . S
C79 O64 1.259 . S
Tb80 O83 2.453 1_565 S
Tb80 O84 2.596 1_565 S
Tb80 O85 2.374 . S
Tb80 O93 2.343 1_655 S
Tb80 O95 2.353 1_665 S
Tb80 O97 2.427 . S
Tb80 O98 2.513 . S
C81 O85 1.251 . S
C81 O87 1.263 . S
Tb82 O84 2.343 1_455 S
Tb82 O87 2.353 1_445 S
Tb82 O90 2.427 . S
Tb82 O91 2.513 . S
Tb82 O92 2.453 1_545 S
Tb82 O93 2.596 1_545 S
Tb82 O94 2.374 . S
O83 Tb80 2.453 1_545 S
O83 C99 1.245 . S
O84 Tb80 2.596 1_545 S
O84 Tb82 2.343 1_655 S
O84 C99 1.259 . S
O85 Tb80 2.374 . S
O85 C81 1.251 . S
C86 O90 1.275 . S
C86 O91 1.246 . S
O87 C81 1.263 . S
O87 Tb82 2.353 1_665 S
C88 O92 1.245 . S
C88 O93 1.259 . S
C89 O94 1.250 . S
C89 O95 1.263 . S
O90 Tb82 2.427 . S
O90 C86 1.275 . S
O91 Tb82 2.513 . S
O91 C86 1.246 . S
O92 Tb82 2.453 1_565 S
O92 C88 1.245 . S
O93 Tb80 2.343 1_455 S
O93 Tb82 2.596 1_565 S
O93 C88 1.259 . S
O94 Tb82 2.374 . S
O94 C89 1.250 . S
O95 Tb80 2.353 1_445 S
O95 C89 1.263 . S
C96 O97 1.275 . S
C96 O98 1.246 . S
O97 Tb80 2.427 . S
O97 C96 1.275 . S
O98 Tb80 2.513 . S
O98 C96 1.246 . S
C99 O83 1.245 . S
C99 O84 1.259 . S
Tb100 O103 2.453 . S
Tb100 O104 2.596 . S
Tb100 O105 2.374 . S
Tb100 O113 2.343 . S
Tb100 O115 2.353 . S
Tb100 O117 2.427 . S
Tb100 O118 2.513 . S
C101 O105 1.251 . S
C101 O107 1.263 . S
Tb102 O104 2.343 . S
Tb102 O107 2.353 . S
Tb102 O110 2.427 . S
Tb102 O111 2.513 . S
Tb102 O112 2.453 . S
Tb102 O113 2.596 . S
Tb102 O114 2.374 . S
O103 Tb100 2.453 . S
O103 C119 1.245 . S
O104 Tb100 2.596 . S
O104 Tb102 2.343 . S
O104 C119 1.259 . S
O105 Tb100 2.374 . S
O105 C101 1.251 . S
C106 O110 1.275 . S
C106 O111 1.246 . S
O107 C101 1.263 . S
O107 Tb102 2.353 . S
C108 O112 1.245 . S
C108 O113 1.259 . S
C109 O114 1.250 . S
C109 O115 1.263 . S
O110 Tb102 2.427 . S
O110 C106 1.275 . S
O111 Tb102 2.513 . S
O111 C106 1.246 . S
O112 Tb102 2.453 . S
O112 C108 1.245 . S
O113 Tb100 2.343 . S
O113 Tb102 2.596 . S
O113 C108 1.259 . S
O114 Tb102 2.374 . S
O114 C109 1.250 . S
O115 Tb100 2.353 . S
O115 C109 1.263 . S
C116 O117 1.275 . S
C116 O118 1.246 . S
O117 Tb100 2.427 . S
O117 C116 1.275 . S
O118 Tb100 2.513 . S
O118 C116 1.246 . S
C119 O103 1.245 . S
C119 O104 1.259 . S
Tb120 O123 2.453 1_556 S
Tb120 O124 2.596 1_556 S
Tb120 O125 2.374 1_556 S
Tb120 O133 2.343 1_545 S
Tb120 O135 2.353 1_545 S
Tb120 O137 2.427 . S
Tb120 O138 2.513 . S
C121 O125 1.251 . S
C121 O127 1.263 . S
Tb122 O124 2.343 1_565 S
Tb122 O127 2.353 1_565 S
Tb122 O130 2.427 . S
Tb122 O131 2.513 . S
Tb122 O132 2.453 1_554 S
Tb122 O133 2.596 1_554 S
Tb122 O134 2.374 1_554 S
O123 Tb120 2.453 1_554 S
O123 C139 1.245 . S
O124 Tb120 2.596 1_554 S
O124 Tb122 2.343 1_545 S
O124 C139 1.259 . S
O125 Tb120 2.374 1_554 S
O125 C121 1.251 . S
C126 O130 1.275 . S
C126 O131 1.246 . S
O127 C121 1.263 . S
O127 Tb122 2.353 1_545 S
C128 O132 1.245 . S
C128 O133 1.259 . S
C129 O134 1.250 . S
C129 O135 1.263 . S
O130 Tb122 2.427 . S
O130 C126 1.275 . S
O131 Tb122 2.513 . S
O131 C126 1.246 . S
O132 Tb122 2.453 1_556 S
O132 C128 1.245 . S
O133 Tb120 2.343 1_565 S
O133 Tb122 2.596 1_556 S
O133 C128 1.259 . S
O134 Tb122 2.374 1_556 S
O134 C129 1.250 . S
O135 Tb120 2.353 1_565 S
O135 C129 1.263 . S
C136 O137 1.275 . S
C136 O138 1.246 . S
O137 Tb120 2.427 . S
O137 C136 1.275 . S
O138 Tb120 2.513 . S
O138 C136 1.246 . S
C139 O123 1.245 . S
C139 O124 1.259 . S
Tb140 O143 2.453 . S
Tb140 O144 2.596 . S
Tb140 O145 2.374 . S
Tb140 O153 2.343 . S
Tb140 O155 2.353 . S
Tb140 O157 2.427 . S
Tb140 O158 2.513 . S
C141 O145 1.251 . S
C141 O147 1.263 . S
Tb142 O144 2.343 . S
Tb142 O147 2.353 . S
Tb142 O150 2.427 . S
Tb142 O151 2.513 . S
Tb142 O152 2.453 . S
Tb142 O153 2.596 . S
Tb142 O154 2.374 . S
O143 Tb140 2.453 . S
O143 C159 1.245 . S
O144 Tb140 2.596 . S
O144 Tb142 2.343 . S
O144 C159 1.259 . S
O145 Tb140 2.374 . S
O145 C141 1.251 . S
C146 O150 1.275 . S
C146 O151 1.246 . S
O147 C141 1.263 . S
O147 Tb142 2.353 . S
C148 O152 1.245 . S
C148 O153 1.259 . S
C149 O154 1.250 . S
C149 O155 1.263 . S
O150 Tb142 2.427 . S
O150 C146 1.275 . S
O151 Tb142 2.513 . S
O151 C146 1.246 . S
O152 Tb142 2.453 . S
O152 C148 1.245 . S
O153 Tb140 2.343 . S
O153 Tb142 2.596 . S
O153 C148 1.259 . S
O154 Tb142 2.374 . S
O154 C149 1.250 . S
O155 Tb140 2.353 . S
O155 C149 1.263 . S
C156 O157 1.275 . S
C156 O158 1.246 . S
O157 Tb140 2.427 . S
O157 C156 1.275 . S
O158 Tb140 2.513 . S
O158 C156 1.246 . S
C159 O143 1.245 . S
C159 O144 1.259 . S
Tb160 O163 2.453 1_554 S
Tb160 O164 2.596 1_554 S
Tb160 O165 2.374 1_554 S
Tb160 O173 2.343 . S
Tb160 O175 2.353 . S
Tb160 O177 2.427 . S
Tb160 O178 2.513 . S
C161 O165 1.251 . S
C161 O167 1.263 . S
Tb162 O164 2.343 . S
Tb162 O167 2.353 . S
Tb162 O170 2.427 . S
Tb162 O171 2.513 . S
Tb162 O172 2.453 1_556 S
Tb162 O173 2.596 1_556 S
Tb162 O174 2.374 1_556 S
O163 Tb160 2.453 1_556 S
O163 C179 1.245 . S
O164 Tb160 2.596 1_556 S
O164 Tb162 2.343 . S
O164 C179 1.259 . S
O165 Tb160 2.374 1_556 S
O165 C161 1.251 . S
C166 O170 1.275 . S
C166 O171 1.246 . S
O167 C161 1.263 . S
O167 Tb162 2.353 . S
C168 O172 1.245 . S
C168 O173 1.259 . S
C169 O174 1.250 . S
C169 O175 1.263 . S
O170 Tb162 2.427 . S
O170 C166 1.275 . S
O171 Tb162 2.513 . S
O171 C166 1.246 . S
O172 Tb162 2.453 1_554 S
O172 C168 1.245 . S
O173 Tb160 2.343 . S
O173 Tb162 2.596 1_554 S
O173 C168 1.259 . S
O174 Tb162 2.374 1_554 S
O174 C169 1.250 . S
O175 Tb160 2.353 . S
O175 C169 1.263 . S
C176 O177 1.275 . S
C176 O178 1.246 . S
O177 Tb160 2.427 . S
O177 C176 1.275 . S
O178 Tb160 2.513 . S
O178 C176 1.246 . S
C179 O163 1.245 . S
C179 O164 1.259 . S
Tb180 O183 2.453 . S
Tb180 O184 2.596 . S
Tb180 O185 2.374 . S
Tb180 O193 2.343 . S
Tb180 O195 2.353 . S
Tb180 O197 2.427 . S
Tb180 O198 2.513 . S
C181 O185 1.251 . S
C181 O187 1.263 . S
Tb182 O184 2.343 . S
Tb182 O187 2.353 . S
Tb182 O190 2.427 . S
Tb182 O191 2.513 . S
Tb182 O192 2.453 . S
Tb182 O193 2.596 . S
Tb182 O194 2.374 . S
O183 Tb180 2.453 . S
O183 C199 1.245 . S
O184 Tb180 2.596 . S
O184 Tb182 2.343 . S
O184 C199 1.259 . S
O185 Tb180 2.374 . S
O185 C181 1.251 . S
C186 O190 1.275 . S
C186 O191 1.246 . S
O187 C181 1.263 . S
O187 Tb182 2.353 . S
C188 O192 1.245 . S
C188 O193 1.259 . S
C189 O194 1.250 . S
C189 O195 1.263 . S
O190 Tb182 2.427 . S
O190 C186 1.275 . S
O191 Tb182 2.513 . S
O191 C186 1.246 . S
O192 Tb182 2.453 . S
O192 C188 1.245 . S
O193 Tb180 2.343 . S
O193 Tb182 2.596 . S
O193 C188 1.259 . S
O194 Tb182 2.374 . S
O194 C189 1.250 . S
O195 Tb180 2.353 . S
O195 C189 1.263 . S
C196 O197 1.275 . S
C196 O198 1.246 . S
O197 Tb180 2.427 . S
O197 C196 1.275 . S
O198 Tb180 2.513 . S
O198 C196 1.246 . S
C199 O183 1.245 . S
C199 O184 1.259 . S
Tb200 O203 2.453 . S
Tb200 O204 2.596 . S
Tb200 O205 2.374 1_655 S
Tb200 O213 2.343 1_655 S
Tb200 O215 2.353 . S
Tb200 O217 2.427 1_655 S
Tb200 O218 2.513 1_655 S
C201 O205 1.251 . S
C201 O207 1.263 . S
Tb202 O204 2.343 1_455 S
Tb202 O207 2.353 . S
Tb202 O210 2.427 1_455 S
Tb202 O211 2.513 1_455 S
Tb202 O212 2.453 . S
Tb202 O213 2.596 . S
Tb202 O214 2.374 1_455 S
O203 Tb200 2.453 . S
O203 C219 1.245 . S
O204 Tb200 2.596 . S
O204 Tb202 2.343 1_655 S
O204 C219 1.259 . S
O205 Tb200 2.374 1_455 S
O205 C201 1.251 . S
C206 O210 1.275 . S
C206 O211 1.246 . S
O207 C201 1.263 . S
O207 Tb202 2.353 . S
C208 O212 1.245 . S
C208 O213 1.259 . S
C209 O214 1.250 . S
C209 O215 1.263 . S
O210 Tb202 2.427 1_655 S
O210 C206 1.275 . S
O211 Tb202 2.513 1_655 S
O211 C206 1.246 . S
O212 Tb202 2.453 . S
O212 C208 1.245 . S
O213 Tb200 2.343 1_455 S
O213 Tb202 2.596 . S
O213 C208 1.259 . S
O214 Tb202 2.374 1_655 S
O214 C209 1.250 . S
O215 Tb200 2.353 . S
O215 C209 1.263 . S
C216 O217 1.275 . S
C216 O218 1.246 . S
O217 Tb200 2.427 1_455 S
O217 C216 1.275 . S
O218 Tb200 2.513 1_455 S
O218 C216 1.246 . S
C219 O203 1.245 . S
C219 O204 1.259 . S
Tb220 O223 2.453 . S
Tb220 O224 2.596 . S
Tb220 O225 2.374 . S
Tb220 O233 2.343 . S
Tb220 O235 2.353 . S
Tb220 O237 2.427 . S
Tb220 O238 2.513 . S
C221 O225 1.251 . S
C221 O227 1.263 . S
Tb222 O224 2.343 . S
Tb222 O227 2.353 . S
Tb222 O230 2.427 . S
Tb222 O231 2.513 . S
Tb222 O232 2.453 . S
Tb222 O233 2.596 . S
Tb222 O234 2.374 . S
O223 Tb220 2.453 . S
O223 C239 1.245 . S
O224 Tb220 2.596 . S
O224 Tb222 2.343 . S
O224 C239 1.259 . S
O225 Tb220 2.374 . S
O225 C221 1.251 . S
C226 O230 1.275 . S
C226 O231 1.246 . S
O227 C221 1.263 . S
O227 Tb222 2.353 . S
C228 O232 1.245 . S
C228 O233 1.259 . S
C229 O234 1.250 . S
C229 O235 1.263 . S
O230 Tb222 2.427 . S
O230 C226 1.275 . S
O231 Tb222 2.513 . S
O231 C226 1.246 . S
O232 Tb222 2.453 . S
O232 C228 1.245 . S
O233 Tb220 2.343 . S
O233 Tb222 2.596 . S
O233 C228 1.259 . S
O234 Tb222 2.374 . S
O234 C229 1.250 . S
O235 Tb220 2.353 . S
O235 C229 1.263 . S
C236 O237 1.275 . S
C236 O238 1.246 . S
O237 Tb220 2.427 . S
O237 C236 1.275 . S
O238 Tb220 2.513 . S
O238 C236 1.246 . S
C239 O223 1.245 . S
C239 O224 1.259 . S
Tb240 O243 2.453 . S
Tb240 O244 2.596 . S
Tb240 O245 2.374 . S
Tb240 O253 2.343 . S
Tb240 O255 2.353 . S
Tb240 O257 2.427 . S
Tb240 O258 2.513 . S
C241 O245 1.251 . S
C241 O247 1.263 . S
Tb242 O244 2.343 . S
Tb242 O247 2.353 . S
Tb242 O250 2.427 . S
Tb242 O251 2.513 . S
Tb242 O252 2.453 . S
Tb242 O253 2.596 . S
Tb242 O254 2.374 . S
O243 Tb240 2.453 . S
O243 C259 1.245 . S
O244 Tb240 2.596 . S
O244 Tb242 2.343 . S
O244 C259 1.259 . S
O245 Tb240 2.374 . S
O245 C241 1.251 . S
C246 O250 1.275 . S
C246 O251 1.246 . S
O247 C241 1.263 . S
O247 Tb242 2.353 . S
C248 O252 1.245 . S
C248 O253 1.259 . S
C249 O254 1.250 . S
C249 O255 1.263 . S
O250 Tb242 2.427 . S
O250 C246 1.275 . S
O251 Tb242 2.513 . S
O251 C246 1.246 . S
O252 Tb242 2.453 . S
O252 C248 1.245 . S
O253 Tb240 2.343 . S
O253 Tb242 2.596 . S
O253 C248 1.259 . S
O254 Tb242 2.374 . S
O254 C249 1.250 . S
O255 Tb240 2.353 . S
O255 C249 1.263 . S
C256 O257 1.275 . S
C256 O258 1.246 . S
O257 Tb240 2.427 . S
O257 C256 1.275 . S
O258 Tb240 2.513 . S
O258 C256 1.246 . S
C259 O243 1.245 . S
C259 O244 1.259 . S
Tb260 O263 2.453 . S
Tb260 O264 2.596 . S
Tb260 O265 2.374 . S
Tb260 O273 2.343 . S
Tb260 O275 2.353 . S
Tb260 O277 2.427 . S
Tb260 O278 2.513 . S
C261 O265 1.251 . S
C261 O267 1.263 . S
Tb262 O264 2.343 . S
Tb262 O267 2.353 . S
Tb262 O270 2.427 . S
Tb262 O271 2.513 . S
Tb262 O272 2.453 . S
Tb262 O273 2.596 . S
Tb262 O274 2.374 . S
O263 Tb260 2.453 . S
O263 C279 1.245 . S
O264 Tb260 2.596 . S
O264 Tb262 2.343 . S
O264 C279 1.259 . S
O265 Tb260 2.374 . S
O265 C261 1.251 . S
C266 O270 1.275 . S
C266 O271 1.246 . S
O267 C261 1.263 . S
O267 Tb262 2.353 . S
C268 O272 1.245 . S
C268 O273 1.259 . S
C269 O274 1.250 . S
C269 O275 1.263 . S
O270 Tb262 2.427 . S
O270 C266 1.275 . S
O271 Tb262 2.513 . S
O271 C266 1.246 . S
O272 Tb262 2.453 . S
O272 C268 1.245 . S
O273 Tb260 2.343 . S
O273 Tb262 2.596 . S
O273 C268 1.259 . S
O274 Tb262 2.374 . S
O274 C269 1.250 . S
O275 Tb260 2.353 . S
O275 C269 1.263 . S
C276 O277 1.275 . S
C276 O278 1.246 . S
O277 Tb260 2.427 . S
O277 C276 1.275 . S
O278 Tb260 2.513 . S
O278 C276 1.246 . S
C279 O263 1.245 . S
C279 O264 1.259 . S
Tb280 O283 2.453 . S
Tb280 O284 2.596 . S
Tb280 O285 2.374 . S
Tb280 O293 2.343 . S
Tb280 O295 2.353 . S
Tb280 O297 2.427 . S
Tb280 O298 2.513 . S
C281 O285 1.251 . S
C281 O287 1.263 . S
Tb282 O284 2.343 . S
Tb282 O287 2.353 . S
Tb282 O290 2.427 . S
Tb282 O291 2.513 . S
Tb282 O292 2.453 . S
Tb282 O293 2.596 . S
Tb282 O294 2.374 . S
O283 Tb280 2.453 . S
O283 C299 1.245 . S
O284 Tb280 2.596 . S
O284 Tb282 2.343 . S
O284 C299 1.259 . S
O285 Tb280 2.374 . S
O285 C281 1.251 . S
C286 O290 1.275 . S
C286 O291 1.246 . S
O287 C281 1.263 . S
O287 Tb282 2.353 . S
C288 O292 1.245 . S
C288 O293 1.259 . S
C289 O294 1.250 . S
C289 O295 1.263 . S
O290 Tb282 2.427 . S
O290 C286 1.275 . S
O291 Tb282 2.513 . S
O291 C286 1.246 . S
O292 Tb282 2.453 . S
O292 C288 1.245 . S
O293 Tb280 2.343 . S
O293 Tb282 2.596 . S
O293 C288 1.259 . S
O294 Tb282 2.374 . S
O294 C289 1.250 . S
O295 Tb280 2.353 . S
O295 C289 1.263 . S
C296 O297 1.275 . S
C296 O298 1.246 . S
O297 Tb280 2.427 . S
O297 C296 1.275 . S
O298 Tb280 2.513 . S
O298 C296 1.246 . S
C299 O283 1.245 . S
C299 O284 1.259 . S
Tb300 O303 2.453 . S
Tb300 O304 2.596 . S
Tb300 O305 2.374 1_455 S
Tb300 O313 2.343 1_456 S
Tb300 O315 2.353 1_556 S
Tb300 O317 2.427 1_455 S
Tb300 O318 2.513 1_455 S
C301 O305 1.251 . S
C301 O307 1.263 . S
Tb302 O304 2.343 1_654 S
Tb302 O307 2.353 1_554 S
Tb302 O310 2.427 1_655 S
Tb302 O311 2.513 1_655 S
Tb302 O312 2.453 . S
Tb302 O313 2.596 . S
Tb302 O314 2.374 1_655 S
O303 Tb300 2.453 . S
O303 C319 1.245 . S
O304 Tb300 2.596 . S
O304 Tb302 2.343 1_456 S
O304 C319 1.259 . S
O305 Tb300 2.374 1_655 S
O305 C301 1.251 . S
C306 O310 1.275 . S
C306 O311 1.246 . S
O307 C301 1.263 . S
O307 Tb302 2.353 1_556 S
C308 O312 1.245 . S
C308 O313 1.259 . S
C309 O314 1.250 . S
C309 O315 1.263 . S
O310 Tb302 2.427 1_455 S
O310 C306 1.275 . S
O311 Tb302 2.513 1_455 S
O311 C306 1.246 . S
O312 Tb302 2.453 . S
O312 C308 1.245 . S
O313 Tb300 2.343 1_654 S
O313 Tb302 2.596 . S
O313 C308 1.259 . S
O314 Tb302 2.374 1_455 S
O314 C309 1.250 . S
O315 Tb300 2.353 1_554 S
O315 C309 1.263 . S
C316 O317 1.275 . S
C316 O318 1.246 . S
O317 Tb300 2.427 1_655 S
O317 C316 1.275 . S
O318 Tb300 2.513 1_655 S
O318 C316 1.246 . S
C319 O303 1.245 . S
C319 O304 1.259 . S
H320 C328 0.950 . S
H321 C333 0.950 . S
H322 C330 0.950 . S
H323 C332 0.950 . S
H324 C334 0.950 . S
H325 C336 0.950 . S
H326 C338 0.950 . S
H327 C339 0.950 . S
C328 H320 0.950 . S
C328 C329 1.386 . S
C328 C330 1.391 . S
C329 C328 1.386 . S
C329 C333 1.393 . S
C330 H322 0.950 . S
C330 C328 1.391 . S
C330 C331 1.400 . S
C331 C330 1.400 . S
C331 C332 1.398 . S
C331 C337 1.491 . S
C332 H323 0.950 . S
C332 C331 1.398 . S
C332 C333 1.391 . S
C333 H321 0.950 . S
C333 C329 1.393 . S
C333 C332 1.391 . S
C334 H324 0.950 . S
C334 C335 1.386 . S
C334 C336 1.391 . S
C335 C334 1.386 . S
C335 C339 1.393 . S
C336 H325 0.950 . S
C336 C334 1.391 . S
C336 C337 1.400 . S
C337 C331 1.491 . S
C337 C336 1.400 . S
C337 C338 1.398 . S
C338 H326 0.950 . S
C338 C337 1.398 . S
C338 C339 1.391 . S
C339 H327 0.950 . S
C339 C335 1.393 . S
C339 C338 1.391 . S
H340 C348 0.950 . S
H341 C353 0.950 . S
H342 C350 0.950 . S
H343 C352 0.950 . S
H344 C354 0.950 . S
H345 C356 0.950 . S
H346 C358 0.950 . S
H347 C359 0.950 . S
C348 H340 0.950 . S
C348 C349 1.386 . S
C348 C350 1.391 . S
C349 C348 1.386 . S
C349 C353 1.393 . S
C350 H342 0.950 . S
C350 C348 1.391 . S
C350 C351 1.400 . S
C351 C350 1.400 . S
C351 C352 1.398 . S
C351 C357 1.491 . S
C352 H343 0.950 . S
C352 C351 1.398 . S
C352 C353 1.391 . S
C353 H341 0.950 . S
C353 C349 1.393 . S
C353 C352 1.391 . S
C354 H344 0.950 . S
C354 C355 1.386 . S
C354 C356 1.391 . S
C355 C354 1.386 . S
C355 C359 1.393 . S
C356 H345 0.950 . S
C356 C354 1.391 . S
C356 C357 1.400 . S
C357 C351 1.491 . S
C357 C356 1.400 . S
C357 C358 1.398 . S
C358 H346 0.950 . S
C358 C357 1.398 . S
C358 C359 1.391 . S
C359 H347 0.950 . S
C359 C355 1.393 . S
C359 C358 1.391 . S
H360 C368 0.950 . S
H361 C373 0.950 . S
H362 C370 0.950 . S
H363 C372 0.950 . S
H364 C374 0.950 . S
H365 C376 0.950 . S
H366 C378 0.950 . S
H367 C379 0.950 . S
C368 H360 0.950 . S
C368 C369 1.386 . S
C368 C370 1.391 . S
C369 C368 1.386 . S
C369 C373 1.393 . S
C370 H362 0.950 . S
C370 C368 1.391 . S
C370 C371 1.400 . S
C371 C370 1.400 . S
C371 C372 1.398 . S
C371 C377 1.491 . S
C372 H363 0.950 . S
C372 C371 1.398 . S
C372 C373 1.391 . S
C373 H361 0.950 . S
C373 C369 1.393 . S
C373 C372 1.391 . S
C374 H364 0.950 . S
C374 C375 1.386 . S
C374 C376 1.391 . S
C375 C374 1.386 . S
C375 C379 1.393 . S
C376 H365 0.950 . S
C376 C374 1.391 . S
C376 C377 1.400 . S
C377 C371 1.491 . S
C377 C376 1.400 . S
C377 C378 1.398 . S
C378 H366 0.950 . S
C378 C377 1.398 . S
C378 C379 1.391 . S
C379 H367 0.950 . S
C379 C375 1.393 . S
C379 C378 1.391 . S
H380 C388 0.950 . S
H381 C393 0.950 . S
H382 C390 0.950 . S
H383 C392 0.950 . S
H384 C394 0.950 . S
H385 C396 0.950 . S
H386 C398 0.950 . S
H387 C399 0.950 . S
C388 H380 0.950 . S
C388 C389 1.386 . S
C388 C390 1.391 . S
C389 C388 1.386 . S
C389 C393 1.393 . S
C390 H382 0.950 . S
C390 C388 1.391 . S
C390 C391 1.400 . S
C391 C390 1.400 . S
C391 C392 1.398 . S
C391 C397 1.491 . S
C392 H383 0.950 . S
C392 C391 1.398 . S
C392 C393 1.391 . S
C393 H381 0.950 . S
C393 C389 1.393 . S
C393 C392 1.391 . S
C394 H384 0.950 . S
C394 C395 1.386 . S
C394 C396 1.391 . S
C395 C394 1.386 . S
C395 C399 1.393 . S
C396 H385 0.950 . S
C396 C394 1.391 . S
C396 C397 1.400 . S
C397 C391 1.491 . S
C397 C396 1.400 . S
C397 C398 1.398 . S
C398 H386 0.950 . S
C398 C397 1.398 . S
C398 C399 1.391 . S
C399 H387 0.950 . S
C399 C395 1.393 . S
C399 C398 1.391 . S
H400 C408 0.950 . S
H401 C413 0.950 . S
H402 C410 0.950 . S
H403 C412 0.950 . S
H404 C414 0.950 . S
H405 C416 0.950 . S
H406 C418 0.950 . S
H407 C419 0.950 . S
C408 H400 0.950 . S
C408 C409 1.386 . S
C408 C410 1.391 . S
C409 C408 1.386 . S
C409 C413 1.393 . S
C410 H402 0.950 . S
C410 C408 1.391 . S
C410 C411 1.400 . S
C411 C410 1.400 . S
C411 C412 1.398 . S
C411 C417 1.491 . S
C412 H403 0.950 . S
C412 C411 1.398 . S
C412 C413 1.391 . S
C413 H401 0.950 . S
C413 C409 1.393 . S
C413 C412 1.391 . S
C414 H404 0.950 . S
C414 C415 1.386 . S
C414 C416 1.391 . S
C415 C414 1.386 . S
C415 C419 1.393 . S
C416 H405 0.950 . S
C416 C414 1.391 . S
C416 C417 1.400 . S
C417 C411 1.491 . S
C417 C416 1.400 . S
C417 C418 1.398 . S
C418 H406 0.950 . S
C418 C417 1.398 . S
C418 C419 1.391 . S
C419 H407 0.950 . S
C419 C415 1.393 . S
C419 C418 1.391 . S
H420 C428 0.950 . S
H421 C433 0.950 . S
H422 C430 0.950 . S
H423 C432 0.950 . S
H424 C434 0.950 . S
H425 C436 0.950 . S
H426 C438 0.950 . S
H427 C439 0.950 . S
C428 H420 0.950 . S
C428 C429 1.386 . S
C428 C430 1.391 . S
C429 C428 1.386 . S
C429 C433 1.393 . S
C430 H422 0.950 . S
C430 C428 1.391 . S
C430 C431 1.400 . S
C431 C430 1.400 . S
C431 C432 1.398 . S
C431 C437 1.491 . S
C432 H423 0.950 . S
C432 C431 1.398 . S
C432 C433 1.391 . S
C433 H421 0.950 . S
C433 C429 1.393 . S
C433 C432 1.391 . S
C434 H424 0.950 . S
C434 C435 1.386 . S
C434 C436 1.391 . S
C435 C434 1.386 . S
C435 C439 1.393 . S
C436 H425 0.950 . S
C436 C434 1.391 . S
C436 C437 1.400 . S
C437 C431 1.491 . S
C437 C436 1.400 . S
C437 C438 1.398 . S
C438 H426 0.950 . S
C438 C437 1.398 . S
C438 C439 1.391 . S
C439 H427 0.950 . S
C439 C435 1.393 . S
C439 C438 1.391 . S
H440 C448 0.950 . S
H441 C453 0.950 . S
H442 C450 0.950 . S
H443 C452 0.950 . S
H444 C454 0.950 . S
H445 C456 0.950 . S
H446 C458 0.950 . S
H447 C459 0.950 . S
C448 H440 0.950 . S
C448 C449 1.386 . S
C448 C450 1.391 . S
C449 C448 1.386 . S
C449 C453 1.393 . S
C450 H442 0.950 . S
C450 C448 1.391 . S
C450 C451 1.400 . S
C451 C450 1.400 . S
C451 C452 1.398 . S
C451 C457 1.491 . S
C452 H443 0.950 . S
C452 C451 1.398 . S
C452 C453 1.391 . S
C453 H441 0.950 . S
C453 C449 1.393 . S
C453 C452 1.391 . S
C454 H444 0.950 . S
C454 C455 1.386 . S
C454 C456 1.391 . S
C455 C454 1.386 . S
C455 C459 1.393 . S
C456 H445 0.950 . S
C456 C454 1.391 . S
C456 C457 1.400 . S
C457 C451 1.491 . S
C457 C456 1.400 . S
C457 C458 1.398 . S
C458 H446 0.950 . S
C458 C457 1.398 . S
C458 C459 1.391 . S
C459 H447 0.950 . S
C459 C455 1.393 . S
C459 C458 1.391 . S
H460 C468 0.950 . S
H461 C473 0.950 . S
H462 C470 0.950 . S
H463 C472 0.950 . S
H464 C474 0.950 . S
H465 C476 0.950 . S
H466 C478 0.950 . S
H467 C479 0.950 . S
C468 H460 0.950 . S
C468 C469 1.386 . S
C468 C470 1.391 . S
C469 C468 1.386 . S
C469 C473 1.393 . S
C470 H462 0.950 . S
C470 C468 1.391 . S
C470 C471 1.400 . S
C471 C470 1.400 . S
C471 C472 1.398 . S
C471 C477 1.491 . S
C472 H463 0.950 . S
C472 C471 1.398 . S
C472 C473 1.391 . S
C473 H461 0.950 . S
C473 C469 1.393 . S
C473 C472 1.391 . S
C474 H464 0.950 . S
C474 C475 1.386 . S
C474 C476 1.391 . S
C475 C474 1.386 . S
C475 C479 1.393 . S
C476 H465 0.950 . S
C476 C474 1.391 . S
C476 C477 1.400 . S
C477 C471 1.491 . S
C477 C476 1.400 . S
C477 C478 1.398 . S
C478 H466 0.950 . S
C478 C477 1.398 . S
C478 C479 1.391 . S
C479 H467 0.950 . S
C479 C475 1.393 . S
C479 C478 1.391 . S
H480 C488 0.950 . S
H481 C493 0.950 . S
H482 C490 0.950 . S
H483 C492 0.950 . S
H484 C494 0.950 . S
H485 C496 0.950 . S
H486 C498 0.950 . S
H487 C499 0.950 . S
C488 H480 0.950 . S
C488 C489 1.386 . S
C488 C490 1.391 . S
C489 C488 1.386 . S
C489 C493 1.393 . S
C490 H482 0.950 . S
C490 C488 1.391 . S
C490 C491 1.400 . S
C491 C490 1.400 . S
C491 C492 1.398 . S
C491 C497 1.491 . S
C492 H483 0.950 . S
C492 C491 1.398 . S
C492 C493 1.391 . S
C493 H481 0.950 . S
C493 C489 1.393 . S
C493 C492 1.391 . S
C494 H484 0.950 . S
C494 C495 1.386 . S
C494 C496 1.391 . S
C495 C494 1.386 . S
C495 C499 1.393 . S
C496 H485 0.950 . S
C496 C494 1.391 . S
C496 C497 1.400 . S
C497 C491 1.491 . S
C497 C496 1.400 . S
C497 C498 1.398 . S
C498 H486 0.950 . S
C498 C497 1.398 . S
C498 C499 1.391 . S
C499 H487 0.950 . S
C499 C495 1.393 . S
C499 C498 1.391 . S
H500 C508 0.950 . S
H501 C513 0.950 . S
H502 C510 0.950 . S
H503 C512 0.950 . S
H504 C514 0.950 . S
H505 C516 0.950 . S
H506 C518 0.950 . S
H507 C519 0.950 . S
C508 H500 0.950 . S
C508 C509 1.386 . S
C508 C510 1.391 . S
C509 C508 1.386 . S
C509 C513 1.393 . S
C510 H502 0.950 . S
C510 C508 1.391 . S
C510 C511 1.400 . S
C511 C510 1.400 . S
C511 C512 1.398 . S
C511 C517 1.491 . S
C512 H503 0.950 . S
C512 C511 1.398 . S
C512 C513 1.391 . S
C513 H501 0.950 . S
C513 C509 1.393 . S
C513 C512 1.391 . S
C514 H504 0.950 . S
C514 C515 1.386 . S
C514 C516 1.391 . S
C515 C514 1.386 . S
C515 C519 1.393 . S
C516 H505 0.950 . S
C516 C514 1.391 . S
C516 C517 1.400 . S
C517 C511 1.491 . S
C517 C516 1.400 . S
C517 C518 1.398 . S
C518 H506 0.950 . S
C518 C517 1.398 . S
C518 C519 1.391 . S
C519 H507 0.950 . S
C519 C515 1.393 . S
C519 C518 1.391 . S
H520 C528 0.950 . S
H521 C533 0.950 . S
H522 C530 0.950 . S
H523 C532 0.950 . S
H524 C534 0.950 . S
H525 C536 0.950 . S
H526 C538 0.950 . S
H527 C539 0.950 . S
C528 H520 0.950 . S
C528 C529 1.386 . S
C528 C530 1.391 . S
C529 C528 1.386 . S
C529 C533 1.393 . S
C530 H522 0.950 . S
C530 C528 1.391 . S
C530 C531 1.400 . S
C531 C530 1.400 . S
C531 C532 1.398 . S
C531 C537 1.491 . S
C532 H523 0.950 . S
C532 C531 1.398 . S
C532 C533 1.391 . S
C533 H521 0.950 . S
C533 C529 1.393 . S
C533 C532 1.391 . S
C534 H524 0.950 . S
C534 C535 1.386 . S
C534 C536 1.391 . S
C535 C534 1.386 . S
C535 C539 1.393 . S
C536 H525 0.950 . S
C536 C534 1.391 . S
C536 C537 1.400 . S
C537 C531 1.491 . S
C537 C536 1.400 . S
C537 C538 1.398 . S
C538 H526 0.950 . S
C538 C537 1.398 . S
C538 C539 1.391 . S
C539 H527 0.950 . S
C539 C535 1.393 . S
C539 C538 1.391 . S
H540 C548 0.950 . S
H541 C553 0.950 . S
H542 C550 0.950 . S
H543 C552 0.950 . S
H544 C554 0.950 . S
H545 C556 0.950 . S
H546 C558 0.950 . S
H547 C559 0.950 . S
C548 H540 0.950 . S
C548 C549 1.386 . S
C548 C550 1.391 . S
C549 C548 1.386 . S
C549 C553 1.393 . S
C550 H542 0.950 . S
C550 C548 1.391 . S
C550 C551 1.400 . S
C551 C550 1.400 . S
C551 C552 1.398 . S
C551 C557 1.491 . S
C552 H543 0.950 . S
C552 C551 1.398 . S
C552 C553 1.391 . S
C553 H541 0.950 . S
C553 C549 1.393 . S
C553 C552 1.391 . S
C554 H544 0.950 . S
C554 C555 1.386 . S
C554 C556 1.391 . S
C555 C554 1.386 . S
C555 C559 1.393 . S
C556 H545 0.950 . S
C556 C554 1.391 . S
C556 C557 1.400 . S
C557 C551 1.491 . S
C557 C556 1.400 . S
C557 C558 1.398 . S
C558 H546 0.950 . S
C558 C557 1.398 . S
C558 C559 1.391 . S
C559 H547 0.950 . S
C559 C555 1.393 . S
C559 C558 1.391 . S
H560 C568 0.950 . S
H561 C573 0.950 . S
H562 C570 0.950 . S
H563 C572 0.950 . S
H564 C574 0.950 . S
H565 C576 0.950 . S
H566 C578 0.950 . S
H567 C579 0.950 . S
C568 H560 0.950 . S
C568 C569 1.386 . S
C568 C570 1.391 . S
C569 C568 1.386 . S
C569 C573 1.393 . S
C570 H562 0.950 . S
C570 C568 1.391 . S
C570 C571 1.400 . S
C571 C570 1.400 . S
C571 C572 1.398 . S
C571 C577 1.491 . S
C572 H563 0.950 . S
C572 C571 1.398 . S
C572 C573 1.391 . S
C573 H561 0.950 . S
C573 C569 1.393 . S
C573 C572 1.391 . S
C574 H564 0.950 . S
C574 C575 1.386 . S
C574 C576 1.391 . S
C575 C574 1.386 . S
C575 C579 1.393 . S
C576 H565 0.950 . S
C576 C574 1.391 . S
C576 C577 1.400 . S
C577 C571 1.491 . S
C577 C576 1.400 . S
C577 C578 1.398 . S
C578 H566 0.950 . S
C578 C577 1.398 . S
C578 C579 1.391 . S
C579 H567 0.950 . S
C579 C575 1.393 . S
C579 C578 1.391 . S
H580 C588 0.950 . S
H581 C593 0.950 . S
H582 C590 0.950 . S
H583 C592 0.950 . S
H584 C594 0.950 . S
H585 C596 0.950 . S
H586 C598 0.950 . S
H587 C599 0.950 . S
C588 H580 0.950 . S
C588 C589 1.386 . S
C588 C590 1.391 . S
C589 C588 1.386 . S
C589 C593 1.393 . S
C590 H582 0.950 . S
C590 C588 1.391 . S
C590 C591 1.400 . S
C591 C590 1.400 . S
C591 C592 1.398 . S
C591 C597 1.491 . S
C592 H583 0.950 . S
C592 C591 1.398 . S
C592 C593 1.391 . S
C593 H581 0.950 . S
C593 C589 1.393 . S
C593 C592 1.391 . S
C594 H584 0.950 . S
C594 C595 1.386 . S
C594 C596 1.391 . S
C595 C594 1.386 . S
C595 C599 1.393 . S
C596 H585 0.950 . S
C596 C594 1.391 . S
C596 C597 1.400 . S
C597 C591 1.491 . S
C597 C596 1.400 . S
C597 C598 1.398 . S
C598 H586 0.950 . S
C598 C597 1.398 . S
C598 C599 1.391 . S
C599 H587 0.950 . S
C599 C595 1.393 . S
C599 C598 1.391 . S
H600 C608 0.950 . S
H601 C613 0.950 . S
H602 C610 0.950 . S
H603 C612 0.950 . S
H604 C614 0.950 . S
H605 C616 0.950 . S
H606 C618 0.950 . S
H607 C619 0.950 . S
C608 H600 0.950 . S
C608 C609 1.386 . S
C608 C610 1.391 . S
C609 C608 1.386 . S
C609 C613 1.393 . S
C610 H602 0.950 . S
C610 C608 1.391 . S
C610 C611 1.400 . S
C611 C610 1.400 . S
C611 C612 1.398 . S
C611 C617 1.491 . S
C612 H603 0.950 . S
C612 C611 1.398 . S
C612 C613 1.391 . S
C613 H601 0.950 . S
C613 C609 1.393 . S
C613 C612 1.391 . S
C614 H604 0.950 . S
C614 C615 1.386 . S
C614 C616 1.391 . S
C615 C614 1.386 . S
C615 C619 1.393 . S
C616 H605 0.950 . S
C616 C614 1.391 . S
C616 C617 1.400 . S
C617 C611 1.491 . S
C617 C616 1.400 . S
C617 C618 1.398 . S
C618 H606 0.950 . S
C618 C617 1.398 . S
C618 C619 1.391 . S
C619 H607 0.950 . S
C619 C615 1.393 . S
C619 C618 1.391 . S
H620 C628 0.950 . S
H621 C633 0.950 . S
H622 C630 0.950 . S
H623 C632 0.950 . S
H624 C634 0.950 . S
H625 C636 0.950 . S
H626 C638 0.950 . S
H627 C639 0.950 . S
C628 H620 0.950 . S
C628 C629 1.386 . S
C628 C630 1.391 . S
C629 C628 1.386 . S
C629 C633 1.393 . S
C630 H622 0.950 . S
C630 C628 1.391 . S
C630 C631 1.400 . S
C631 C630 1.400 . S
C631 C632 1.398 . S
C631 C637 1.491 . S
C632 H623 0.950 . S
C632 C631 1.398 . S
C632 C633 1.391 . S
C633 H621 0.950 . S
C633 C629 1.393 . S
C633 C632 1.391 . S
C634 H624 0.950 . S
C634 C635 1.386 . S
C634 C636 1.391 . S
C635 C634 1.386 . S
C635 C639 1.393 . S
C636 H625 0.950 . S
C636 C634 1.391 . S
C636 C637 1.400 . S
C637 C631 1.491 . S
C637 C636 1.400 . S
C637 C638 1.398 . S
C638 H626 0.950 . S
C638 C637 1.398 . S
C638 C639 1.391 . S
C639 H627 0.950 . S
C639 C635 1.393 . S
C639 C638 1.391 . S
H640 C648 0.950 . S
H641 C653 0.950 . S
H642 C650 0.950 . S
H643 C652 0.950 . S
H644 C654 0.950 . S
H645 C656 0.950 . S
H646 C658 0.950 . S
H647 C659 0.950 . S
C648 H640 0.950 . S
C648 C649 1.386 . S
C648 C650 1.391 . S
C649 C648 1.386 . S
C649 C653 1.393 . S
C650 H642 0.950 . S
C650 C648 1.391 . S
C650 C651 1.400 . S
C651 C650 1.400 . S
C651 C652 1.398 . S
C651 C657 1.491 . S
C652 H643 0.950 . S
C652 C651 1.398 . S
C652 C653 1.391 . S
C653 H641 0.950 . S
C653 C649 1.393 . S
C653 C652 1.391 . S
C654 H644 0.950 . S
C654 C655 1.386 . S
C654 C656 1.391 . S
C655 C654 1.386 . S
C655 C659 1.393 . S
C656 H645 0.950 . S
C656 C654 1.391 . S
C656 C657 1.400 . S
C657 C651 1.491 . S
C657 C656 1.400 . S
C657 C658 1.398 . S
C658 H646 0.950 . S
C658 C657 1.398 . S
C658 C659 1.391 . S
C659 H647 0.950 . S
C659 C655 1.393 . S
C659 C658 1.391 . S
H660 C668 0.950 . S
H661 C673 0.950 . S
H662 C670 0.950 . S
H663 C672 0.950 . S
H664 C674 0.950 . S
H665 C676 0.950 . S
H666 C678 0.950 . S
H667 C679 0.950 . S
C668 H660 0.950 . S
C668 C669 1.386 . S
C668 C670 1.391 . S
C669 C668 1.386 . S
C669 C673 1.393 . S
C670 H662 0.950 . S
C670 C668 1.391 . S
C670 C671 1.400 . S
C671 C670 1.400 . S
C671 C672 1.398 . S
C671 C677 1.491 . S
C672 H663 0.950 . S
C672 C671 1.398 . S
C672 C673 1.391 . S
C673 H661 0.950 . S
C673 C669 1.393 . S
C673 C672 1.391 . S
C674 H664 0.950 . S
C674 C675 1.386 . S
C674 C676 1.391 . S
C675 C674 1.386 . S
C675 C679 1.393 . S
C676 H665 0.950 . S
C676 C674 1.391 . S
C676 C677 1.400 . S
C677 C671 1.491 . S
C677 C676 1.400 . S
C677 C678 1.398 . S
C678 H666 0.950 . S
C678 C677 1.398 . S
C678 C679 1.391 . S
C679 H667 0.950 . S
C679 C675 1.393 . S
C679 C678 1.391 . S
H680 C688 0.950 . S
H681 C693 0.950 . S
H682 C690 0.950 . S
H683 C692 0.950 . S
H684 C694 0.950 . S
H685 C696 0.950 . S
H686 C698 0.950 . S
H687 C699 0.950 . S
C688 H680 0.950 . S
C688 C689 1.386 . S
C688 C690 1.391 . S
C689 C688 1.386 . S
C689 C693 1.393 . S
C690 H682 0.950 . S
C690 C688 1.391 . S
C690 C691 1.400 . S
C691 C690 1.400 . S
C691 C692 1.398 . S
C691 C697 1.491 . S
C692 H683 0.950 . S
C692 C691 1.398 . S
C692 C693 1.391 . S
C693 H681 0.950 . S
C693 C689 1.393 . S
C693 C692 1.391 . S
C694 H684 0.950 . S
C694 C695 1.386 . S
C694 C696 1.391 . S
C695 C694 1.386 . S
C695 C699 1.393 . S
C696 H685 0.950 . S
C696 C694 1.391 . S
C696 C697 1.400 . S
C697 C691 1.491 . S
C697 C696 1.400 . S
C697 C698 1.398 . S
C698 H686 0.950 . S
C698 C697 1.398 . S
C698 C699 1.391 . S
C699 H687 0.950 . S
C699 C695 1.393 . S
C699 C698 1.391 . S
H700 C708 0.950 . S
H701 C713 0.950 . S
H702 C710 0.950 . S
H703 C712 0.950 . S
H704 C714 0.950 . S
H705 C716 0.950 . S
H706 C718 0.950 . S
H707 C719 0.950 . S
C708 H700 0.950 . S
C708 C709 1.386 . S
C708 C710 1.391 . S
C709 C708 1.386 . S
C709 C713 1.393 . S
C710 H702 0.950 . S
C710 C708 1.391 . S
C710 C711 1.400 . S
C711 C710 1.400 . S
C711 C712 1.398 . S
C711 C717 1.491 . S
C712 H703 0.950 . S
C712 C711 1.398 . S
C712 C713 1.391 . S
C713 H701 0.950 . S
C713 C709 1.393 . S
C713 C712 1.391 . S
C714 H704 0.950 . S
C714 C715 1.386 . S
C714 C716 1.391 . S
C715 C714 1.386 . S
C715 C719 1.393 . S
C716 H705 0.950 . S
C716 C714 1.391 . S
C716 C717 1.400 . S
C717 C711 1.491 . S
C717 C716 1.400 . S
C717 C718 1.398 . S
C718 H706 0.950 . S
C718 C717 1.398 . S
C718 C719 1.391 . S
C719 H707 0.950 . S
C719 C715 1.393 . S
C719 C718 1.391 . S
H720 C728 0.950 . S
H721 C733 0.950 . S
H722 C730 0.950 . S
H723 C732 0.950 . S
H724 C734 0.950 . S
H725 C736 0.950 . S
H726 C738 0.950 . S
H727 C739 0.950 . S
C728 H720 0.950 . S
C728 C729 1.386 . S
C728 C730 1.391 . S
C729 C728 1.386 . S
C729 C733 1.393 . S
C730 H722 0.950 . S
C730 C728 1.391 . S
C730 C731 1.400 . S
C731 C730 1.400 . S
C731 C732 1.398 . S
C731 C737 1.491 . S
C732 H723 0.950 . S
C732 C731 1.398 . S
C732 C733 1.391 . S
C733 H721 0.950 . S
C733 C729 1.393 . S
C733 C732 1.391 . S
C734 H724 0.950 . S
C734 C735 1.386 . S
C734 C736 1.391 . S
C735 C734 1.386 . S
C735 C739 1.393 . S
C736 H725 0.950 . S
C736 C734 1.391 . S
C736 C737 1.400 . S
C737 C731 1.491 . S
C737 C736 1.400 . S
C737 C738 1.398 . S
C738 H726 0.950 . S
C738 C737 1.398 . S
C738 C739 1.391 . S
C739 H727 0.950 . S
C739 C735 1.393 . S
C739 C738 1.391 . S
H740 C748 0.950 . S
H741 C753 0.950 . S
H742 C750 0.950 . S
H743 C752 0.950 . S
H744 C754 0.950 . S
H745 C756 0.950 . S
H746 C758 0.950 . S
H747 C759 0.950 . S
C748 H740 0.950 . S
C748 C749 1.386 . S
C748 C750 1.391 . S
C749 C748 1.386 . S
C749 C753 1.393 . S
C750 H742 0.950 . S
C750 C748 1.391 . S
C750 C751 1.400 . S
C751 C750 1.400 . S
C751 C752 1.398 . S
C751 C757 1.491 . S
C752 H743 0.950 . S
C752 C751 1.398 . S
C752 C753 1.391 . S
C753 H741 0.950 . S
C753 C749 1.393 . S
C753 C752 1.391 . S
C754 H744 0.950 . S
C754 C755 1.386 . S
C754 C756 1.391 . S
C755 C754 1.386 . S
C755 C759 1.393 . S
C756 H745 0.950 . S
C756 C754 1.391 . S
C756 C757 1.400 . S
C757 C751 1.491 . S
C757 C756 1.400 . S
C757 C758 1.398 . S
C758 H746 0.950 . S
C758 C757 1.398 . S
C758 C759 1.391 . S
C759 H747 0.950 . S
C759 C755 1.393 . S
C759 C758 1.391 . S
H760 C768 0.950 . S
H761 C773 0.950 . S
H762 C770 0.950 . S
H763 C772 0.950 . S
H764 C774 0.950 . S
H765 C776 0.950 . S
H766 C778 0.950 . S
H767 C779 0.950 . S
C768 H760 0.950 . S
C768 C769 1.386 . S
C768 C770 1.391 . S
C769 C768 1.386 . S
C769 C773 1.393 . S
C770 H762 0.950 . S
C770 C768 1.391 . S
C770 C771 1.400 . S
C771 C770 1.400 . S
C771 C772 1.398 . S
C771 C777 1.491 . S
C772 H763 0.950 . S
C772 C771 1.398 . S
C772 C773 1.391 . S
C773 H761 0.950 . S
C773 C769 1.393 . S
C773 C772 1.391 . S
C774 H764 0.950 . S
C774 C775 1.386 . S
C774 C776 1.391 . S
C775 C774 1.386 . S
C775 C779 1.393 . S
C776 H765 0.950 . S
C776 C774 1.391 . S
C776 C777 1.400 . S
C777 C771 1.491 . S
C777 C776 1.400 . S
C777 C778 1.398 . S
C778 H766 0.950 . S
C778 C777 1.398 . S
C778 C779 1.391 . S
C779 H767 0.950 . S
C779 C775 1.393 . S
C779 C778 1.391 . S
H780 C788 0.950 . S
H781 C793 0.950 . S
H782 C790 0.950 . S
H783 C792 0.950 . S
H784 C794 0.950 . S
H785 C796 0.950 . S
H786 C798 0.950 . S
H787 C799 0.950 . S
C788 H780 0.950 . S
C788 C789 1.386 . S
C788 C790 1.391 . S
C789 C788 1.386 . S
C789 C793 1.393 . S
C790 H782 0.950 . S
C790 C788 1.391 . S
C790 C791 1.400 . S
C791 C790 1.400 . S
C791 C792 1.398 . S
C791 C797 1.491 . S
C792 H783 0.950 . S
C792 C791 1.398 . S
C792 C793 1.391 . S
C793 H781 0.950 . S
C793 C789 1.393 . S
C793 C792 1.391 . S
C794 H784 0.950 . S
C794 C795 1.386 . S
C794 C796 1.391 . S
C795 C794 1.386 . S
C795 C799 1.393 . S
C796 H785 0.950 . S
C796 C794 1.391 . S
C796 C797 1.400 . S
C797 C791 1.491 . S
C797 C796 1.400 . S
C797 C798 1.398 . S
C798 H786 0.950 . S
C798 C797 1.398 . S
C798 C799 1.391 . S
C799 H787 0.950 . S
C799 C795 1.393 . S
C799 C798 1.391 . S
H800 C808 0.950 . S
H801 C813 0.950 . S
H802 C810 0.950 . S
H803 C812 0.950 . S
H804 C814 0.950 . S
H805 C816 0.950 . S
H806 C818 0.950 . S
H807 C819 0.950 . S
C808 H800 0.950 . S
C808 C809 1.386 . S
C808 C810 1.391 . S
C809 C808 1.386 . S
C809 C813 1.393 . S
C810 H802 0.950 . S
C810 C808 1.391 . S
C810 C811 1.400 . S
C811 C810 1.400 . S
C811 C812 1.398 . S
C811 C817 1.491 . S
C812 H803 0.950 . S
C812 C811 1.398 . S
C812 C813 1.391 . S
C813 H801 0.950 . S
C813 C809 1.393 . S
C813 C812 1.391 . S
C814 H804 0.950 . S
C814 C815 1.386 . S
C814 C816 1.391 . S
C815 C814 1.386 . S
C815 C819 1.393 . S
C816 H805 0.950 . S
C816 C814 1.391 . S
C816 C817 1.400 . S
C817 C811 1.491 . S
C817 C816 1.400 . S
C817 C818 1.398 . S
C818 H806 0.950 . S
C818 C817 1.398 . S
C818 C819 1.391 . S
C819 H807 0.950 . S
C819 C815 1.393 . S
C819 C818 1.391 . S
H820 C828 0.950 . S
H821 C833 0.950 . S
H822 C830 0.950 . S
H823 C832 0.950 . S
H824 C834 0.950 . S
H825 C836 0.950 . S
H826 C838 0.950 . S
H827 C839 0.950 . S
C828 H820 0.950 . S
C828 C829 1.386 . S
C828 C830 1.391 . S
C829 C828 1.386 . S
C829 C833 1.393 . S
C830 H822 0.950 . S
C830 C828 1.391 . S
C830 C831 1.400 . S
C831 C830 1.400 . S
C831 C832 1.398 . S
C831 C837 1.491 . S
C832 H823 0.950 . S
C832 C831 1.398 . S
C832 C833 1.391 . S
C833 H821 0.950 . S
C833 C829 1.393 . S
C833 C832 1.391 . S
C834 H824 0.950 . S
C834 C835 1.386 . S
C834 C836 1.391 . S
C835 C834 1.386 . S
C835 C839 1.393 . S
C836 H825 0.950 . S
C836 C834 1.391 . S
C836 C837 1.400 . S
C837 C831 1.491 . S
C837 C836 1.400 . S
C837 C838 1.398 . S
C838 H826 0.950 . S
C838 C837 1.398 . S
C838 C839 1.391 . S
C839 H827 0.950 . S
C839 C835 1.393 . S
C839 C838 1.391 . S
H840 C848 0.950 . S
H841 C853 0.950 . S
H842 C850 0.950 . S
H843 C852 0.950 . S
H844 C854 0.950 . S
H845 C856 0.950 . S
H846 C858 0.950 . S
H847 C859 0.950 . S
C848 H840 0.950 . S
C848 C849 1.386 . S
C848 C850 1.391 . S
C849 C848 1.386 . S
C849 C853 1.393 . S
C850 H842 0.950 . S
C850 C848 1.391 . S
C850 C851 1.400 . S
C851 C850 1.400 . S
C851 C852 1.398 . S
C851 C857 1.491 . S
C852 H843 0.950 . S
C852 C851 1.398 . S
C852 C853 1.391 . S
C853 H841 0.950 . S
C853 C849 1.393 . S
C853 C852 1.391 . S
C854 H844 0.950 . S
C854 C855 1.386 . S
C854 C856 1.391 . S
C855 C854 1.386 . S
C855 C859 1.393 . S
C856 H845 0.950 . S
C856 C854 1.391 . S
C856 C857 1.400 . S
C857 C851 1.491 . S
C857 C856 1.400 . S
C857 C858 1.398 . S
C858 H846 0.950 . S
C858 C857 1.398 . S
C858 C859 1.391 . S
C859 H847 0.950 . S
C859 C855 1.393 . S
C859 C858 1.391 . S
H860 C868 0.950 . S
H861 C873 0.950 . S
H862 C870 0.950 . S
H863 C872 0.950 . S
H864 C874 0.950 . S
H865 C876 0.950 . S
H866 C878 0.950 . S
H867 C879 0.950 . S
C868 H860 0.950 . S
C868 C869 1.386 . S
C868 C870 1.391 . S
C869 C868 1.386 . S
C869 C873 1.393 . S
C870 H862 0.950 . S
C870 C868 1.391 . S
C870 C871 1.400 . S
C871 C870 1.400 . S
C871 C872 1.398 . S
C871 C877 1.491 . S
C872 H863 0.950 . S
C872 C871 1.398 . S
C872 C873 1.391 . S
C873 H861 0.950 . S
C873 C869 1.393 . S
C873 C872 1.391 . S
C874 H864 0.950 . S
C874 C875 1.386 . S
C874 C876 1.391 . S
C875 C874 1.386 . S
C875 C879 1.393 . S
C876 H865 0.950 . S
C876 C874 1.391 . S
C876 C877 1.400 . S
C877 C871 1.491 . S
C877 C876 1.400 . S
C877 C878 1.398 . S
C878 H866 0.950 . S
C878 C877 1.398 . S
C878 C879 1.391 . S
C879 H867 0.950 . S
C879 C875 1.393 . S
C879 C878 1.391 . S
H880 C888 0.950 . S
H881 C893 0.950 . S
H882 C890 0.950 . S
H883 C892 0.950 . S
H884 C894 0.950 . S
H885 C896 0.950 . S
H886 C898 0.950 . S
H887 C899 0.950 . S
C888 H880 0.950 . S
C888 C889 1.386 . S
C888 C890 1.391 . S
C889 C888 1.386 . S
C889 C893 1.393 . S
C890 H882 0.950 . S
C890 C888 1.391 . S
C890 C891 1.400 . S
C891 C890 1.400 . S
C891 C892 1.398 . S
C891 C897 1.491 . S
C892 H883 0.950 . S
C892 C891 1.398 . S
C892 C893 1.391 . S
C893 H881 0.950 . S
C893 C889 1.393 . S
C893 C892 1.391 . S
C894 H884 0.950 . S
C894 C895 1.386 . S
C894 C896 1.391 . S
C895 C894 1.386 . S
C895 C899 1.393 . S
C896 H885 0.950 . S
C896 C894 1.391 . S
C896 C897 1.400 . S
C897 C891 1.491 . S
C897 C896 1.400 . S
C897 C898 1.398 . S
C898 H886 0.950 . S
C898 C897 1.398 . S
C898 C899 1.391 . S
C899 H887 0.950 . S
C899 C895 1.393 . S
C899 C898 1.391 . S
H900 C908 0.950 . S
H901 C913 0.950 . S
H902 C910 0.950 . S
H903 C912 0.950 . S
H904 C914 0.950 . S
H905 C916 0.950 . S
H906 C918 0.950 . S
H907 C919 0.950 . S
C908 H900 0.950 . S
C908 C909 1.386 . S
C908 C910 1.391 . S
C909 C908 1.386 . S
C909 C913 1.393 . S
C910 H902 0.950 . S
C910 C908 1.391 . S
C910 C911 1.400 . S
C911 C910 1.400 . S
C911 C912 1.398 . S
C911 C917 1.491 . S
C912 H903 0.950 . S
C912 C911 1.398 . S
C912 C913 1.391 . S
C913 H901 0.950 . S
C913 C909 1.393 . S
C913 C912 1.391 . S
C914 H904 0.950 . S
C914 C915 1.386 . S
C914 C916 1.391 . S
C915 C914 1.386 . S
C915 C919 1.393 . S
C916 H905 0.950 . S
C916 C914 1.391 . S
C916 C917 1.400 . S
C917 C911 1.491 . S
C917 C916 1.400 . S
C917 C918 1.398 . S
C918 H906 0.950 . S
C918 C917 1.398 . S
C918 C919 1.391 . S
C919 H907 0.950 . S
C919 C915 1.393 . S
C919 C918 1.391 . S
H920 C928 0.950 . S
H921 C933 0.950 . S
H922 C930 0.950 . S
H923 C932 0.950 . S
H924 C934 0.950 . S
H925 C936 0.950 . S
H926 C938 0.950 . S
H927 C939 0.950 . S
C928 H920 0.950 . S
C928 C929 1.386 . S
C928 C930 1.391 . S
C929 C928 1.386 . S
C929 C933 1.393 . S
C930 H922 0.950 . S
C930 C928 1.391 . S
C930 C931 1.400 . S
C931 C930 1.400 . S
C931 C932 1.398 . S
C931 C937 1.491 . S
C932 H923 0.950 . S
C932 C931 1.398 . S
C932 C933 1.391 . S
C933 H921 0.950 . S
C933 C929 1.393 . S
C933 C932 1.391 . S
C934 H924 0.950 . S
C934 C935 1.386 . S
C934 C936 1.391 . S
C935 C934 1.386 . S
C935 C939 1.393 . S
C936 H925 0.950 . S
C936 C934 1.391 . S
C936 C937 1.400 . S
C937 C931 1.491 . S
C937 C936 1.400 . S
C937 C938 1.398 . S
C938 H926 0.950 . S
C938 C937 1.398 . S
C938 C939 1.391 . S
C939 H927 0.950 . S
C939 C935 1.393 . S
C939 C938 1.391 . S
H940 C948 0.950 . S
H941 C953 0.950 . S
H942 C950 0.950 . S
H943 C952 0.950 . S
H944 C954 0.950 . S
H945 C956 0.950 . S
H946 C958 0.950 . S
H947 C959 0.950 . S
C948 H940 0.950 . S
C948 C949 1.386 . S
C948 C950 1.391 . S
C949 C948 1.386 . S
C949 C953 1.393 . S
C950 H942 0.950 . S
C950 C948 1.391 . S
C950 C951 1.400 . S
C951 C950 1.400 . S
C951 C952 1.398 . S
C951 C957 1.491 . S
C952 H943 0.950 . S
C952 C951 1.398 . S
C952 C953 1.391 . S
C953 H941 0.950 . S
C953 C949 1.393 . S
C953 C952 1.391 . S
C954 H944 0.950 . S
C954 C955 1.386 . S
C954 C956 1.391 . S
C955 C954 1.386 . S
C955 C959 1.393 . S
C956 H945 0.950 . S
C956 C954 1.391 . S
C956 C957 1.400 . S
C957 C951 1.491 . S
C957 C956 1.400 . S
C957 C958 1.398 . S
C958 H946 0.950 . S
C958 C957 1.398 . S
C958 C959 1.391 . S
C959 H947 0.950 . S
C959 C955 1.393 . S
C959 C958 1.391 . S
H960 C968 0.950 . S
H961 C973 0.950 . S
H962 C970 0.950 . S
H963 C972 0.950 . S
H964 C974 0.950 . S
H965 C976 0.950 . S
H966 C978 0.950 . S
H967 C979 0.950 . S
C968 H960 0.950 . S
C968 C969 1.386 . S
C968 C970 1.391 . S
C969 C968 1.386 . S
C969 C973 1.393 . S
C970 H962 0.950 . S
C970 C968 1.391 . S
C970 C971 1.400 . S
C971 C970 1.400 . S
C971 C972 1.398 . S
C971 C977 1.491 . S
C972 H963 0.950 . S
C972 C971 1.398 . S
C972 C973 1.391 . S
C973 H961 0.950 . S
C973 C969 1.393 . S
C973 C972 1.391 . S
C974 H964 0.950 . S
C974 C975 1.386 . S
C974 C976 1.391 . S
C975 C974 1.386 . S
C975 C979 1.393 . S
C976 H965 0.950 . S
C976 C974 1.391 . S
C976 C977 1.400 . S
C977 C971 1.491 . S
C977 C976 1.400 . S
C977 C978 1.398 . S
C978 H966 0.950 . S
C978 C977 1.398 . S
C978 C979 1.391 . S
C979 H967 0.950 . S
C979 C975 1.393 . S
C979 C978 1.391 . S
H980 C988 0.950 . S
H981 C993 0.950 . S
H982 C990 0.950 . S
H983 C992 0.950 . S
H984 C994 0.950 . S
H985 C996 0.950 . S
H986 C998 0.950 . S
H987 C999 0.950 . S
C988 H980 0.950 . S
C988 C989 1.386 . S
C988 C990 1.391 . S
C989 C988 1.386 . S
C989 C993 1.393 . S
C990 H982 0.950 . S
C990 C988 1.391 . S
C990 C991 1.400 . S
C991 C990 1.400 . S
C991 C992 1.398 . S
C991 C997 1.491 . S
C992 H983 0.950 . S
C992 C991 1.398 . S
C992 C993 1.391 . S
C993 H981 0.950 . S
C993 C989 1.393 . S
C993 C992 1.391 . S
C994 H984 0.950 . S
C994 C995 1.386 . S
C994 C996 1.391 . S
C995 C994 1.386 . S
C995 C999 1.393 . S
C996 H985 0.950 . S
C996 C994 1.391 . S
C996 C997 1.400 . S
C997 C991 1.491 . S
C997 C996 1.400 . S
C997 C998 1.398 . S
C998 H986 0.950 . S
C998 C997 1.398 . S
C998 C999 1.391 . S
C999 H987 0.950 . S
C999 C995 1.393 . S
C999 C998 1.391 . S
H1000 C1008 0.950 . S
H1001 C1013 0.950 . S
H1002 C1010 0.950 . S
H1003 C1012 0.950 . S
H1004 C1014 0.950 . S
H1005 C1016 0.950 . S
H1006 C1018 0.950 . S
H1007 C1019 0.950 . S
C1008 H1000 0.950 . S
C1008 C1009 1.386 . S
C1008 C1010 1.391 . S
C1009 C1008 1.386 . S
C1009 C1013 1.393 . S
C1010 H1002 0.950 . S
C1010 C1008 1.391 . S
C1010 C1011 1.400 . S
C1011 C1010 1.400 . S
C1011 C1012 1.398 . S
C1011 C1017 1.491 . S
C1012 H1003 0.950 . S
C1012 C1011 1.398 . S
C1012 C1013 1.391 . S
C1013 H1001 0.950 . S
C1013 C1009 1.393 . S
C1013 C1012 1.391 . S
C1014 H1004 0.950 . S
C1014 C1015 1.386 . S
C1014 C1016 1.391 . S
C1015 C1014 1.386 . S
C1015 C1019 1.393 . S
C1016 H1005 0.950 . S
C1016 C1014 1.391 . S
C1016 C1017 1.400 . S
C1017 C1011 1.491 . S
C1017 C1016 1.400 . S
C1017 C1018 1.398 . S
C1018 H1006 0.950 . S
C1018 C1017 1.398 . S
C1018 C1019 1.391 . S
C1019 H1007 0.950 . S
C1019 C1015 1.393 . S
C1019 C1018 1.391 . S
H1020 C1028 0.950 . S
H1021 C1033 0.950 . S
H1022 C1030 0.950 . S
H1023 C1032 0.950 . S
H1024 C1034 0.950 . S
H1025 C1036 0.950 . S
H1026 C1038 0.950 . S
H1027 C1039 0.950 . S
C1028 H1020 0.950 . S
C1028 C1029 1.386 . S
C1028 C1030 1.391 . S
C1029 C1028 1.386 . S
C1029 C1033 1.393 . S
C1030 H1022 0.950 . S
C1030 C1028 1.391 . S
C1030 C1031 1.400 . S
C1031 C1030 1.400 . S
C1031 C1032 1.398 . S
C1031 C1037 1.491 . S
C1032 H1023 0.950 . S
C1032 C1031 1.398 . S
C1032 C1033 1.391 . S
C1033 H1021 0.950 . S
C1033 C1029 1.393 . S
C1033 C1032 1.391 . S
C1034 H1024 0.950 . S
C1034 C1035 1.386 . S
C1034 C1036 1.391 . S
C1035 C1034 1.386 . S
C1035 C1039 1.393 . S
C1036 H1025 0.950 . S
C1036 C1034 1.391 . S
C1036 C1037 1.400 . S
C1037 C1031 1.491 . S
C1037 C1036 1.400 . S
C1037 C1038 1.398 . S
C1038 H1026 0.950 . S
C1038 C1037 1.398 . S
C1038 C1039 1.391 . S
C1039 H1027 0.950 . S
C1039 C1035 1.393 . S
C1039 C1038 1.391 . S
H1040 C1048 0.950 . S
H1041 C1053 0.950 . S
H1042 C1050 0.950 . S
H1043 C1052 0.950 . S
H1044 C1054 0.950 . S
H1045 C1056 0.950 . S
H1046 C1058 0.950 . S
H1047 C1059 0.950 . S
C1048 H1040 0.950 . S
C1048 C1049 1.386 . S
C1048 C1050 1.391 . S
C1049 C1048 1.386 . S
C1049 C1053 1.393 . S
C1050 H1042 0.950 . S
C1050 C1048 1.391 . S
C1050 C1051 1.400 . S
C1051 C1050 1.400 . S
C1051 C1052 1.398 . S
C1051 C1057 1.491 . S
C1052 H1043 0.950 . S
C1052 C1051 1.398 . S
C1052 C1053 1.391 . S
C1053 H1041 0.950 . S
C1053 C1049 1.393 . S
C1053 C1052 1.391 . S
C1054 H1044 0.950 . S
C1054 C1055 1.386 . S
C1054 C1056 1.391 . S
C1055 C1054 1.386 . S
C1055 C1059 1.393 . S
C1056 H1045 0.950 . S
C1056 C1054 1.391 . S
C1056 C1057 1.400 . S
C1057 C1051 1.491 . S
C1057 C1056 1.400 . S
C1057 C1058 1.398 . S
C1058 H1046 0.950 . S
C1058 C1057 1.398 . S
C1058 C1059 1.391 . S
C1059 H1047 0.950 . S
C1059 C1055 1.393 . S
C1059 C1058 1.391 . S
H1060 C1068 0.950 . S
H1061 C1073 0.950 . S
H1062 C1070 0.950 . S
H1063 C1072 0.950 . S
H1064 C1074 0.950 . S
H1065 C1076 0.950 . S
H1066 C1078 0.950 . S
H1067 C1079 0.950 . S
C1068 H1060 0.950 . S
C1068 C1069 1.386 . S
C1068 C1070 1.391 . S
C1069 C1068 1.386 . S
C1069 C1073 1.393 . S
C1070 H1062 0.950 . S
C1070 C1068 1.391 . S
C1070 C1071 1.400 . S
C1071 C1070 1.400 . S
C1071 C1072 1.398 . S
C1071 C1077 1.491 . S
C1072 H1063 0.950 . S
C1072 C1071 1.398 . S
C1072 C1073 1.391 . S
C1073 H1061 0.950 . S
C1073 C1069 1.393 . S
C1073 C1072 1.391 . S
C1074 H1064 0.950 . S
C1074 C1075 1.386 . S
C1074 C1076 1.391 . S
C1075 C1074 1.386 . S
C1075 C1079 1.393 . S
C1076 H1065 0.950 . S
C1076 C1074 1.391 . S
C1076 C1077 1.400 . S
C1077 C1071 1.491 . S
C1077 C1076 1.400 . S
C1077 C1078 1.398 . S
C1078 H1066 0.950 . S
C1078 C1077 1.398 . S
C1078 C1079 1.391 . S
C1079 H1067 0.950 . S
C1079 C1075 1.393 . S
C1079 C1078 1.391 . S
H1080 C1088 0.950 . S
H1081 C1093 0.950 . S
H1082 C1090 0.950 . S
H1083 C1092 0.950 . S
H1084 C1094 0.950 . S
H1085 C1096 0.950 . S
H1086 C1098 0.950 . S
H1087 C1099 0.950 . S
C1088 H1080 0.950 . S
C1088 C1089 1.386 . S
C1088 C1090 1.391 . S
C1089 C1088 1.386 . S
C1089 C1093 1.393 . S
C1090 H1082 0.950 . S
C1090 C1088 1.391 . S
C1090 C1091 1.400 . S
C1091 C1090 1.400 . S
C1091 C1092 1.398 . S
C1091 C1097 1.491 . S
C1092 H1083 0.950 . S
C1092 C1091 1.398 . S
C1092 C1093 1.391 . S
C1093 H1081 0.950 . S
C1093 C1089 1.393 . S
C1093 C1092 1.391 . S
C1094 H1084 0.950 . S
C1094 C1095 1.386 . S
C1094 C1096 1.391 . S
C1095 C1094 1.386 . S
C1095 C1099 1.393 . S
C1096 H1085 0.950 . S
C1096 C1094 1.391 . S
C1096 C1097 1.400 . S
C1097 C1091 1.491 . S
C1097 C1096 1.400 . S
C1097 C1098 1.398 . S
C1098 H1086 0.950 . S
C1098 C1097 1.398 . S
C1098 C1099 1.391 . S
C1099 H1087 0.950 . S
C1099 C1095 1.393 . S
C1099 C1098 1.391 . S
H1100 C1108 0.950 . S
H1101 C1113 0.950 . S
H1102 C1110 0.950 . S
H1103 C1112 0.950 . S
H1104 C1114 0.950 . S
H1105 C1116 0.950 . S
H1106 C1118 0.950 . S
H1107 C1119 0.950 . S
C1108 H1100 0.950 . S
C1108 C1109 1.386 . S
C1108 C1110 1.391 . S
C1109 C1108 1.386 . S
C1109 C1113 1.393 . S
C1110 H1102 0.950 . S
C1110 C1108 1.391 . S
C1110 C1111 1.400 . S
C1111 C1110 1.400 . S
C1111 C1112 1.398 . S
C1111 C1117 1.491 . S
C1112 H1103 0.950 . S
C1112 C1111 1.398 . S
C1112 C1113 1.391 . S
C1113 H1101 0.950 . S
C1113 C1109 1.393 . S
C1113 C1112 1.391 . S
C1114 H1104 0.950 . S
C1114 C1115 1.386 . S
C1114 C1116 1.391 . S
C1115 C1114 1.386 . S
C1115 C1119 1.393 . S
C1116 H1105 0.950 . S
C1116 C1114 1.391 . S
C1116 C1117 1.400 . S
C1117 C1111 1.491 . S
C1117 C1116 1.400 . S
C1117 C1118 1.398 . S
C1118 H1106 0.950 . S
C1118 C1117 1.398 . S
C1118 C1119 1.391 . S
C1119 H1107 0.950 . S
C1119 C1115 1.393 . S
C1119 C1118 1.391 . S
H1120 C1128 0.950 . S
H1121 C1133 0.950 . S
H1122 C1130 0.950 . S
H1123 C1132 0.950 . S
H1124 C1134 0.950 . S
H1125 C1136 0.950 . S
H1126 C1138 0.950 . S
H1127 C1139 0.950 . S
C1128 H1120 0.950 . S
C1128 C1129 1.386 . S
C1128 C1130 1.391 . S
C1129 C1128 1.386 . S
C1129 C1133 1.393 . S
C1130 H1122 0.950 . S
C1130 C1128 1.391 . S
C1130 C1131 1.400 . S
C1131 C1130 1.400 . S
C1131 C1132 1.398 . S
C1131 C1137 1.491 . S
C1132 H1123 0.950 . S
C1132 C1131 1.398 . S
C1132 C1133 1.391 . S
C1133 H1121 0.950 . S
C1133 C1129 1.393 . S
C1133 C1132 1.391 . S
C1134 H1124 0.950 . S
C1134 C1135 1.386 . S
C1134 C1136 1.391 . S
C1135 C1134 1.386 . S
C1135 C1139 1.393 . S
C1136 H1125 0.950 . S
C1136 C1134 1.391 . S
C1136 C1137 1.400 . S
C1137 C1131 1.491 . S
C1137 C1136 1.400 . S
C1137 C1138 1.398 . S
C1138 H1126 0.950 . S
C1138 C1137 1.398 . S
C1138 C1139 1.391 . S
C1139 H1127 0.950 . S
C1139 C1135 1.393 . S
C1139 C1138 1.391 . S
H1140 C1148 0.950 . S
H1141 C1153 0.950 . S
H1142 C1150 0.950 . S
H1143 C1152 0.950 . S
H1144 C1154 0.950 . S
H1145 C1156 0.950 . S
H1146 C1158 0.950 . S
H1147 C1159 0.950 . S
C1148 H1140 0.950 . S
C1148 C1149 1.386 . S
C1148 C1150 1.391 . S
C1149 C1148 1.386 . S
C1149 C1153 1.393 . S
C1150 H1142 0.950 . S
C1150 C1148 1.391 . S
C1150 C1151 1.400 . S
C1151 C1150 1.400 . S
C1151 C1152 1.398 . S
C1151 C1157 1.491 . S
C1152 H1143 0.950 . S
C1152 C1151 1.398 . S
C1152 C1153 1.391 . S
C1153 H1141 0.950 . S
C1153 C1149 1.393 . S
C1153 C1152 1.391 . S
C1154 H1144 0.950 . S
C1154 C1155 1.386 . S
C1154 C1156 1.391 . S
C1155 C1154 1.386 . S
C1155 C1159 1.393 . S
C1156 H1145 0.950 . S
C1156 C1154 1.391 . S
C1156 C1157 1.400 . S
C1157 C1151 1.491 . S
C1157 C1156 1.400 . S
C1157 C1158 1.398 . S
C1158 H1146 0.950 . S
C1158 C1157 1.398 . S
C1158 C1159 1.391 . S
C1159 H1147 0.950 . S
C1159 C1155 1.393 . S
C1159 C1158 1.391 . S
H1160 C1168 0.950 . S
H1161 C1173 0.950 . S
H1162 C1170 0.950 . S
H1163 C1172 0.950 . S
H1164 C1174 0.950 . S
H1165 C1176 0.950 . S
H1166 C1178 0.950 . S
H1167 C1179 0.950 . S
C1168 H1160 0.950 . S
C1168 C1169 1.386 . S
C1168 C1170 1.391 . S
C1169 C1168 1.386 . S
C1169 C1173 1.393 . S
C1170 H1162 0.950 . S
C1170 C1168 1.391 . S
C1170 C1171 1.400 . S
C1171 C1170 1.400 . S
C1171 C1172 1.398 . S
C1171 C1177 1.491 . S
C1172 H1163 0.950 . S
C1172 C1171 1.398 . S
C1172 C1173 1.391 . S
C1173 H1161 0.950 . S
C1173 C1169 1.393 . S
C1173 C1172 1.391 . S
C1174 H1164 0.950 . S
C1174 C1175 1.386 . S
C1174 C1176 1.391 . S
C1175 C1174 1.386 . S
C1175 C1179 1.393 . S
C1176 H1165 0.950 . S
C1176 C1174 1.391 . S
C1176 C1177 1.400 . S
C1177 C1171 1.491 . S
C1177 C1176 1.400 . S
C1177 C1178 1.398 . S
C1178 H1166 0.950 . S
C1178 C1177 1.398 . S
C1178 C1179 1.391 . S
C1179 H1167 0.950 . S
C1179 C1175 1.393 . S
C1179 C1178 1.391 . S
H1180 C1188 0.950 . S
H1181 C1193 0.950 . S
H1182 C1190 0.950 . S
H1183 C1192 0.950 . S
H1184 C1194 0.950 . S
H1185 C1196 0.950 . S
H1186 C1198 0.950 . S
H1187 C1199 0.950 . S
C1188 H1180 0.950 . S
C1188 C1189 1.386 . S
C1188 C1190 1.391 . S
C1189 C1188 1.386 . S
C1189 C1193 1.393 . S
C1190 H1182 0.950 . S
C1190 C1188 1.391 . S
C1190 C1191 1.400 . S
C1191 C1190 1.400 . S
C1191 C1192 1.398 . S
C1191 C1197 1.491 . S
C1192 H1183 0.950 . S
C1192 C1191 1.398 . S
C1192 C1193 1.391 . S
C1193 H1181 0.950 . S
C1193 C1189 1.393 . S
C1193 C1192 1.391 . S
C1194 H1184 0.950 . S
C1194 C1195 1.386 . S
C1194 C1196 1.391 . S
C1195 C1194 1.386 . S
C1195 C1199 1.393 . S
C1196 H1185 0.950 . S
C1196 C1194 1.391 . S
C1196 C1197 1.400 . S
C1197 C1191 1.491 . S
C1197 C1196 1.400 . S
C1197 C1198 1.398 . S
C1198 H1186 0.950 . S
C1198 C1197 1.398 . S
C1198 C1199 1.391 . S
C1199 H1187 0.950 . S
C1199 C1195 1.393 . S
C1199 C1198 1.391 . S
H1200 C1208 0.950 . S
H1201 C1213 0.950 . S
H1202 C1210 0.950 . S
H1203 C1212 0.950 . S
H1204 C1214 0.950 . S
H1205 C1216 0.950 . S
H1206 C1218 0.950 . S
H1207 C1219 0.950 . S
C1208 H1200 0.950 . S
C1208 C1209 1.386 . S
C1208 C1210 1.391 . S
C1209 C1208 1.386 . S
C1209 C1213 1.393 . S
C1210 H1202 0.950 . S
C1210 C1208 1.391 . S
C1210 C1211 1.400 . S
C1211 C1210 1.400 . S
C1211 C1212 1.398 . S
C1211 C1217 1.491 . S
C1212 H1203 0.950 . S
C1212 C1211 1.398 . S
C1212 C1213 1.391 . S
C1213 H1201 0.950 . S
C1213 C1209 1.393 . S
C1213 C1212 1.391 . S
C1214 H1204 0.950 . S
C1214 C1215 1.386 . S
C1214 C1216 1.391 . S
C1215 C1214 1.386 . S
C1215 C1219 1.393 . S
C1216 H1205 0.950 . S
C1216 C1214 1.391 . S
C1216 C1217 1.400 . S
C1217 C1211 1.491 . S
C1217 C1216 1.400 . S
C1217 C1218 1.398 . S
C1218 H1206 0.950 . S
C1218 C1217 1.398 . S
C1218 C1219 1.391 . S
C1219 H1207 0.950 . S
C1219 C1215 1.393 . S
C1219 C1218 1.391 . S
H1220 C1228 0.950 . S
H1221 C1233 0.950 . S
H1222 C1230 0.950 . S
H1223 C1232 0.950 . S
H1224 C1234 0.950 . S
H1225 C1236 0.950 . S
H1226 C1238 0.950 . S
H1227 C1239 0.950 . S
C1228 H1220 0.950 . S
C1228 C1229 1.386 . S
C1228 C1230 1.391 . S
C1229 C1228 1.386 . S
C1229 C1233 1.393 . S
C1230 H1222 0.950 . S
C1230 C1228 1.391 . S
C1230 C1231 1.400 . S
C1231 C1230 1.400 . S
C1231 C1232 1.398 . S
C1231 C1237 1.491 . S
C1232 H1223 0.950 . S
C1232 C1231 1.398 . S
C1232 C1233 1.391 . S
C1233 H1221 0.950 . S
C1233 C1229 1.393 . S
C1233 C1232 1.391 . S
C1234 H1224 0.950 . S
C1234 C1235 1.386 . S
C1234 C1236 1.391 . S
C1235 C1234 1.386 . S
C1235 C1239 1.393 . S
C1236 H1225 0.950 . S
C1236 C1234 1.391 . S
C1236 C1237 1.400 . S
C1237 C1231 1.491 . S
C1237 C1236 1.400 . S
C1237 C1238 1.398 . S
C1238 H1226 0.950 . S
C1238 C1237 1.398 . S
C1238 C1239 1.391 . S
C1239 H1227 0.950 . S
C1239 C1235 1.393 . S
C1239 C1238 1.391 . S
H1240 C1248 0.950 . S
H1241 C1253 0.950 . S
H1242 C1250 0.950 . S
H1243 C1252 0.950 . S
H1244 C1254 0.950 . S
H1245 C1256 0.950 . S
H1246 C1258 0.950 . S
H1247 C1259 0.950 . S
C1248 H1240 0.950 . S
C1248 C1249 1.386 . S
C1248 C1250 1.391 . S
C1249 C1248 1.386 . S
C1249 C1253 1.393 . S
C1250 H1242 0.950 . S
C1250 C1248 1.391 . S
C1250 C1251 1.400 . S
C1251 C1250 1.400 . S
C1251 C1252 1.398 . S
C1251 C1257 1.491 . S
C1252 H1243 0.950 . S
C1252 C1251 1.398 . S
C1252 C1253 1.391 . S
C1253 H1241 0.950 . S
C1253 C1249 1.393 . S
C1253 C1252 1.391 . S
C1254 H1244 0.950 . S
C1254 C1255 1.386 . S
C1254 C1256 1.391 . S
C1255 C1254 1.386 . S
C1255 C1259 1.393 . S
C1256 H1245 0.950 . S
C1256 C1254 1.391 . S
C1256 C1257 1.400 . S
C1257 C1251 1.491 . S
C1257 C1256 1.400 . S
C1257 C1258 1.398 . S
C1258 H1246 0.950 . S
C1258 C1257 1.398 . S
C1258 C1259 1.391 . S
C1259 H1247 0.950 . S
C1259 C1255 1.393 . S
C1259 C1258 1.391 . S
H1260 C1268 0.950 . S
H1261 C1273 0.950 . S
H1262 C1270 0.950 . S
H1263 C1272 0.950 . S
H1264 C1274 0.950 . S
H1265 C1276 0.950 . S
H1266 C1278 0.950 . S
H1267 C1279 0.950 . S
C1268 H1260 0.950 . S
C1268 C1269 1.386 . S
C1268 C1270 1.391 . S
C1269 C1268 1.386 . S
C1269 C1273 1.393 . S
C1270 H1262 0.950 . S
C1270 C1268 1.391 . S
C1270 C1271 1.400 . S
C1271 C1270 1.400 . S
C1271 C1272 1.398 . S
C1271 C1277 1.491 . S
C1272 H1263 0.950 . S
C1272 C1271 1.398 . S
C1272 C1273 1.391 . S
C1273 H1261 0.950 . S
C1273 C1269 1.393 . S
C1273 C1272 1.391 . S
C1274 H1264 0.950 . S
C1274 C1275 1.386 . S
C1274 C1276 1.391 . S
C1275 C1274 1.386 . S
C1275 C1279 1.393 . S
C1276 H1265 0.950 . S
C1276 C1274 1.391 . S
C1276 C1277 1.400 . S
C1277 C1271 1.491 . S
C1277 C1276 1.400 . S
C1277 C1278 1.398 . S
C1278 H1266 0.950 . S
C1278 C1277 1.398 . S
C1278 C1279 1.391 . S
C1279 H1267 0.950 . S
C1279 C1275 1.393 . S
C1279 C1278 1.391 . S
C329 C66 1.314 . S
C335 C1 1.356 . S
C349 C8 2.344 . S
C355 C39 2.356 . S
C369 C41 0.793 . S
C375 C29 0.817 . S
C389 C68 2.316 . S
C395 C48 2.343 . S
C409 C88 1.568 . S
C415 C116 1.543 . S
C429 C109 0.794 . S
C435 C129 0.815 . S
C449 C139 1.602 . S
C455 C156 1.563 . S
C469 C86 1.283 . S
C475 C149 1.303 . S
C489 C199 1.573 . S
C495 C6 1.590 . S
C509 C216 0.762 . S
C515 C36 0.769 . S
C529 C46 1.574 . S
C535 C279 1.569 . S
C549 C161 0.818 . S
C555 C61 0.830 . S
C569 C221 0.846 . S
C575 C81 0.857 . S
C589 C286 1.571 . S
C595 C119 1.547 . S
C609 C136 0.818 . S
C615 C256 0.792 . S
C629 C306 1.565 . S
C635 C159 1.548 . S
C649 C166 1.298 . S
C655 C269 1.313 . S
C669 C196 1.564 . S
C675 C168 1.561 . S
C689 C209 0.807 . S
C695 C189 0.815 . S
C709 C281 1.361 . S
C715 C226 1.305 . S
C729 C249 0.822 . S
C735 C301 0.799 . S
C749 C236 1.323 . S
C755 C9 1.350 . S
C769 C248 2.354 . S
C775 C19 2.339 . S
C789 C241 0.817 . S
C795 C49 0.809 . S
C809 C59 2.347 . S
C815 C239 2.316 . S
C829 C186 1.541 . S
C835 C99 1.570 . S
C849 C181 0.814 . S
C855 C121 0.794 . S
C869 C266 1.588 . S
C875 C128 1.587 . S
C889 C96 1.295 . S
C895 C261 1.327 . S
C909 C108 1.570 . S
C915 C16 1.590 . S
C929 C206 0.812 . S
C935 C246 0.816 . S
C949 C56 1.567 . S
C955 C148 1.556 . S
C969 C169 0.850 . S
C975 C229 0.839 . S
C989 C69 0.854 . S
C995 C89 0.836 . S
C1009 C188 1.576 . S
C1015 C296 1.598 . S
C1029 C126 0.775 . S
C1035 C26 0.764 . S
C1049 C316 1.584 . S
C1055 C268 1.579 . S
C1069 C176 1.280 . S
C1075 C141 1.307 . S
C1089 C179 1.566 . S
C1095 C106 1.545 . S
C1109 C201 0.788 . S
C1115 C101 0.805 . S
C1129 C76 1.297 . S
C1135 C289 1.363 . S
C1149 C21 0.791 . S
C1155 C309 0.803 . S
C1169 C259 2.358 . S
C1175 C288 2.343 . S
C1189 C228 2.321 . S
C1195 C308 2.339 . S
C1209 C219 1.584 . S
C1215 C276 1.587 . S
C1229 C299 2.339 . S
C1235 C28 2.359 . S
C1249 C79 2.328 . S
C1255 C319 2.333 . S
C1269 C146 1.586 . S
C1275 C208 1.584 . S
