# Generated by pormake.
# Topology fnl, (5)-cn, num edge types: 1
# Building blocks:
#     Node 0, Type 0, BuildingBlock: BEQFEK_clean_sbu_0, # of connection points: 5
#     Node 1, Type 0, BuildingBlock: BEQFEK_clean_sbu_0, # of connection points: 5
#     Node 2, Type 0, BuildingBlock: BEQFEK_clean_sbu_0, # of connection points: 5
#     Node 3, Type 0, BuildingBlock: BEQFEK_clean_sbu_0, # of connection points: 5
#     Node 4, Type 0, BuildingBlock: BEQFEK_clean_sbu_0, # of connection points: 5
#     Node 5, Type 0, BuildingBlock: BEQFEK_clean_sbu_0, # of connection points: 5
#     Node 6, Type 0, BuildingBlock: BEQFEK_clean_sbu_0, # of connection points: 5
#     Node 7, Type 0, BuildingBlock: BEQFEK_clean_sbu_0, # of connection points: 5
#     Node 8, Type 0, BuildingBlock: BEQFEK_clean_sbu_0, # of connection points: 5
#     Node 9, Type 0, BuildingBlock: BEQFEK_clean_sbu_0, # of connection points: 5
#     Node 10, Type 0, BuildingBlock: BEQFEK_clean_sbu_0, # of connection points: 5
#     Node 11, Type 0, BuildingBlock: BEQFEK_clean_sbu_0, # of connection points: 5
#     Node 12, Type 0, BuildingBlock: BEQFEK_clean_sbu_0, # of connection points: 5
#     Node 13, Type 0, BuildingBlock: BEQFEK_clean_sbu_0, # of connection points: 5
#     Node 14, Type 0, BuildingBlock: BEQFEK_clean_sbu_0, # of connection points: 5
#     Node 15, Type 0, BuildingBlock: BEQFEK_clean_sbu_0, # of connection points: 5
#     Edge 16, Type (0, 0), BuildingBlock: KIFKEQ_clean_linker_1, # of connection points: 2
#     Edge 17, Type (0, 0), BuildingBlock: KIFKEQ_clean_linker_1, # of connection points: 2
#     Edge 18, Type (0, 0), BuildingBlock: KIFKEQ_clean_linker_1, # of connection points: 2
#     Edge 19, Type (0, 0), BuildingBlock: KIFKEQ_clean_linker_1, # of connection points: 2
#     Edge 20, Type (0, 0), BuildingBlock: KIFKEQ_clean_linker_1, # of connection points: 2
#     Edge 21, Type (0, 0), BuildingBlock: KIFKEQ_clean_linker_1, # of connection points: 2
#     Edge 22, Type (0, 0), BuildingBlock: KIFKEQ_clean_linker_1, # of connection points: 2
#     Edge 23, Type (0, 0), BuildingBlock: KIFKEQ_clean_linker_1, # of connection points: 2
#     Edge 24, Type (0, 0), BuildingBlock: KIFKEQ_clean_linker_1, # of connection points: 2
#     Edge 25, Type (0, 0), BuildingBlock: KIFKEQ_clean_linker_1, # of connection points: 2
#     Edge 26, Type (0, 0), BuildingBlock: KIFKEQ_clean_linker_1, # of connection points: 2
#     Edge 27, Type (0, 0), BuildingBlock: KIFKEQ_clean_linker_1, # of connection points: 2
#     Edge 28, Type (0, 0), BuildingBlock: KIFKEQ_clean_linker_1, # of connection points: 2
#     Edge 29, Type (0, 0), BuildingBlock: KIFKEQ_clean_linker_1, # of connection points: 2
#     Edge 30, Type (0, 0), BuildingBlock: KIFKEQ_clean_linker_1, # of connection points: 2
#     Edge 31, Type (0, 0), BuildingBlock: KIFKEQ_clean_linker_1, # of connection points: 2
#     Edge 32, Type (0, 0), BuildingBlock: KIFKEQ_clean_linker_1, # of connection points: 2
#     Edge 33, Type (0, 0), BuildingBlock: KIFKEQ_clean_linker_1, # of connection points: 2
#     Edge 34, Type (0, 0), BuildingBlock: KIFKEQ_clean_linker_1, # of connection points: 2
#     Edge 35, Type (0, 0), BuildingBlock: KIFKEQ_clean_linker_1, # of connection points: 2
#     Edge 36, Type (0, 0), BuildingBlock: KIFKEQ_clean_linker_1, # of connection points: 2
#     Edge 37, Type (0, 0), BuildingBlock: KIFKEQ_clean_linker_1, # of connection points: 2
#     Edge 38, Type (0, 0), BuildingBlock: KIFKEQ_clean_linker_1, # of connection points: 2
#     Edge 39, Type (0, 0), BuildingBlock: KIFKEQ_clean_linker_1, # of connection points: 2
#     Edge 40, Type (0, 0), BuildingBlock: KIFKEQ_clean_linker_1, # of connection points: 2
#     Edge 41, Type (0, 0), BuildingBlock: KIFKEQ_clean_linker_1, # of connection points: 2
#     Edge 42, Type (0, 0), BuildingBlock: KIFKEQ_clean_linker_1, # of connection points: 2
#     Edge 43, Type (0, 0), BuildingBlock: KIFKEQ_clean_linker_1, # of connection points: 2
#     Edge 44, Type (0, 0), BuildingBlock: KIFKEQ_clean_linker_1, # of connection points: 2
#     Edge 45, Type (0, 0), BuildingBlock: KIFKEQ_clean_linker_1, # of connection points: 2
#     Edge 46, Type (0, 0), BuildingBlock: KIFKEQ_clean_linker_1, # of connection points: 2
#     Edge 47, Type (0, 0), BuildingBlock: KIFKEQ_clean_linker_1, # of connection points: 2
#     Edge 48, Type (0, 0), BuildingBlock: KIFKEQ_clean_linker_1, # of connection points: 2
#     Edge 49, Type (0, 0), BuildingBlock: KIFKEQ_clean_linker_1, # of connection points: 2
#     Edge 50, Type (0, 0), BuildingBlock: KIFKEQ_clean_linker_1, # of connection points: 2
#     Edge 51, Type (0, 0), BuildingBlock: KIFKEQ_clean_linker_1, # of connection points: 2
#     Edge 52, Type (0, 0), BuildingBlock: KIFKEQ_clean_linker_1, # of connection points: 2
#     Edge 53, Type (0, 0), BuildingBlock: KIFKEQ_clean_linker_1, # of connection points: 2
#     Edge 54, Type (0, 0), BuildingBlock: KIFKEQ_clean_linker_1, # of connection points: 2
#     Edge 55, Type (0, 0), BuildingBlock: KIFKEQ_clean_linker_1, # of connection points: 2
# Relax obj value: 0.389
# Max RMSD: 0.230
# Mean RMSD: 0.230
data_MOF--net-fnl--node1-BEQFEK_clean_sbu_0--edge1-KIFKEQ_clean_linker_1
_symmetry_space_group_name_H-M    P1
_symmetry_Int_Tables_number       1
_symmetry_cell_setting            triclinic
loop_
_symmetry_equiv_pos_as_xyz
'x, y, z'
_cell_length_a     36.436307
_cell_length_b     36.412308
_cell_length_c     103.33298
_cell_angle_alpha  89.906238
_cell_angle_beta   89.913769
_cell_angle_gamma 89.98871
loop_
_atom_site_label
_atom_site_type_symbol
_atom_site_fract_x
_atom_site_fract_y
_atom_site_fract_z
_atom_type_partial_charge
Co0 Co 0.95079 0.09459 0.09295 0.0
Co1 Co 0.98646 0.1681 0.10168 0.0
C2 C 0.91634 0.13758 0.11364 0.0
O3 O 0.91431 0.113 0.10502 0.0
O4 O 0.94327 0.16 0.11393 0.0
C5 C 0.89942 0.04983 0.07861 0.0
O6 O 0.88278 0.08049 0.07539 0.0
C7 C 0.98767 0.24886 0.10319 0.0
C8 C 0.04692 0.26032 0.10508 0.0
C9 C 0.01315 0.27746 0.10364 0.0
N10 N 0.00577 0.21672 0.10399 0.0
N11 N 0.04113 0.2238 0.10529 0.0
C12 C 0.94676 0.25148 0.10222 0.0
H13 H 0.93369 0.22705 0.10666 0.0
H14 H 0.93863 0.25228 0.09189 0.0
H15 H 0.93658 0.27667 0.10708 0.0
C16 C 0.96557 0.12465 0.06708 0.0
N17 N 0.96358 0.12834 0.08001 0.0
N18 N 0.97704 0.16045 0.08339 0.0
C19 C 0.98719 0.17858 0.07246 0.0
C20 C 0.97949 0.15654 0.06178 0.0
C21 C 0.96057 0.08927 0.05995 0.0
H22 H 0.9661 0.06549 0.06634 0.0
H23 H 0.93215 0.08821 0.05623 0.0
H24 H 0.97937 0.0876 0.05151 0.0
O25 O -0.00464 0.07974 0.10258 0.0
O26 O 0.02423 0.13169 0.10752 0.0
H27 H 0.03111 0.21382 0.07825 0.0
H28 H 0.01337 0.2235 0.06224 0.0
C29 C 0.00597 0.21508 0.07223 0.0
H30 H 0.98748 0.23611 0.0764 0.0
H31 H 0.06145 0.20368 0.1059 0.0
O32 O 0.92817 0.05058 0.08556 0.0
C33 C 0.02249 0.09664 0.1076 0.0
Co34 Co 0.32985 0.9407 0.32147 0.0
Co35 Co 0.24723 0.9306 0.32695 0.0
C36 C 0.30025 0.87399 0.33594 0.0
O37 O 0.32613 0.89297 0.33093 0.0
O38 O 0.26685 0.88471 0.33531 0.0
C39 C 0.40086 0.92405 0.31047 0.0
O40 O 0.39145 0.88923 0.31035 0.0
C41 C 0.16902 0.91839 0.33446 0.0
C42 C 0.14192 0.95536 0.32042 0.0
C43 C 0.13495 0.93177 0.33063 0.0
N44 N 0.19485 0.93341 0.32676 0.0
N45 N 0.17836 0.95566 0.31849 0.0
C46 C 0.17701 0.8918 0.34513 0.0
H47 H 0.19904 0.87263 0.34211 0.0
H48 H 0.15216 0.87592 0.34784 0.0
H49 H 0.18688 0.90717 0.35371 0.0
C50 C 0.3058 0.94317 0.2946 0.0
N51 N 0.2982 0.94224 0.30733 0.0
N52 N 0.26381 0.93283 0.30912 0.0
C53 C 0.24906 0.92496 0.29738 0.0
C54 C 0.2754 0.93132 0.28781 0.0
C55 C 0.34145 0.95578 0.28891 0.0
H56 H 0.35352 0.97773 0.29497 0.0
H57 H 0.36074 0.93231 0.28834 0.0
H58 H 0.33735 0.96659 0.27896 0.0
O59 O 0.32158 0.98146 0.33305 0.0
O60 O 0.26301 0.97431 0.33803 0.0
H61 H 0.19223 0.92821 0.29255 0.0
H62 H 0.21413 0.88653 0.28751 0.0
C63 C 0.21256 0.90704 0.29543 0.0
H64 H 0.20318 0.89346 0.30446 0.0
H65 H 0.19212 0.97171 0.31167 0.0
O66 O 0.37931 0.94789 0.31514 0.0
C67 C 0.29335 0.9915 0.33925 0.0
Co68 Co 0.51817 0.21393 0.58439 0.0
Co69 Co 0.50453 0.14138 0.59925 0.0
C70 C 0.57053 0.19082 0.60459 0.0
O71 O 0.56133 0.21258 0.59552 0.0
O72 O 0.55157 0.16207 0.6071 0.0
C73 C 0.54905 0.26696 0.56625 0.0
O74 O 0.58153 0.25204 0.56793 0.0
C75 C 0.51565 0.06271 0.60372 0.0
C76 C 0.4635 0.04714 0.61319 0.0
C77 C 0.49574 0.03261 0.60822 0.0
N78 N 0.49558 0.09315 0.60566 0.0
N79 N 0.46472 0.08374 0.61151 0.0
C80 C 0.55338 0.06328 0.59796 0.0
H81 H 0.56707 0.08974 0.60018 0.0
H82 H 0.55153 0.06096 0.58729 0.0
H83 H 0.5701 0.04015 0.60173 0.0
C84 C 0.50863 0.16676 0.5617 0.0
N85 N 0.51227 0.17106 0.57457 0.0
N86 N 0.50332 0.14038 0.58051 0.0
C87 C 0.49204 0.11592 0.57143 0.0
C88 C 0.49574 0.1319 0.55923 0.0
C89 C 0.51405 0.19649 0.55184 0.0
H90 H 0.49509 0.21956 0.55389 0.0
H91 H 0.54278 0.20623 0.5523 0.0
H92 H 0.50893 0.18684 0.54183 0.0
O93 O 0.47412 0.2241 0.59515 0.0
O94 O 0.46422 0.17247 0.606 0.0
H95 H 0.45761 0.08198 0.58336 0.0
H96 H 0.45581 0.07151 0.56623 0.0
C97 C 0.4739 0.07999 0.57432 0.0
H98 H 0.49517 0.05854 0.57561 0.0
H99 H 0.44381 0.10214 0.61389 0.0
O100 O 0.52161 0.25534 0.57261 0.0
C101 C 0.45582 0.20557 0.60338 0.0
Co102 Co 0.17897 0.38944 0.83173 0.0
Co103 Co 0.26298 0.39204 0.83508 0.0
C104 C 0.21732 0.45397 0.84449 0.0
O105 O 0.1894 0.43683 0.8402 0.0
O106 O 0.24959 0.44037 0.84354 0.0
C107 C 0.10862 0.40733 0.81985 0.0
O108 O 0.12385 0.43523 0.81381 0.0
C109 C 0.34316 0.39623 0.84072 0.0
C110 C 0.36358 0.35482 0.82685 0.0
C111 C 0.37498 0.37838 0.83655 0.0
N112 N 0.31472 0.3839 0.83364 0.0
N113 N 0.32722 0.35902 0.82545 0.0
C114 C 0.33881 0.42109 0.85213 0.0
H115 H 0.31036 0.41962 0.85594 0.0
H116 H 0.34431 0.44979 0.84907 0.0
H117 H 0.35842 0.41357 0.85991 0.0
C118 C 0.19761 0.37916 0.80437 0.0
N119 N 0.20728 0.38304 0.81684 0.0
N120 N 0.24258 0.38989 0.81766 0.0
C121 C 0.25589 0.39355 0.80544 0.0
C122 C 0.22763 0.38685 0.79664 0.0
C123 C 0.16146 0.36442 0.79984 0.0
H124 H 0.14766 0.3488 0.80768 0.0
H125 H 0.14364 0.38725 0.7966 0.0
H126 H 0.16562 0.34605 0.7914 0.0
O127 O 0.18574 0.34875 0.84338 0.0
O128 O 0.24561 0.34997 0.84678 0.0
H129 H 0.31095 0.38349 0.7993 0.0
H130 H 0.29238 0.42636 0.79386 0.0
C131 C 0.29354 0.4071 0.80219 0.0
H132 H 0.3061 0.42104 0.81063 0.0
H133 H 0.31065 0.3439 0.81919 0.0
O134 O 0.12741 0.38763 0.82748 0.0
C135 C 0.21404 0.33584 0.8488 0.0
Co136 Co 0.02873 0.22523 0.93516 0.0
Co137 Co 0.02776 0.14448 0.92593 0.0
C138 C 0.96668 0.19467 0.91855 0.0
O139 O 0.98264 0.22015 0.92489 0.0
O140 O 0.98045 0.16237 0.91797 0.0
C141 C 0.00475 0.28664 0.9509 0.0
O142 O 0.97312 0.26989 0.95247 0.0
C143 C 0.02053 0.06655 0.91681 0.0
C144 C 0.06871 0.04298 0.92681 0.0
C145 C 0.04028 0.03407 0.91852 0.0
N146 N 0.03667 0.09309 0.92388 0.0
N147 N 0.06545 0.07869 0.92976 0.0
C148 C 0.98896 0.0732 0.90788 0.0
H149 H 0.98912 0.10206 0.90443 0.0
H150 H 0.96293 0.06834 0.9132 0.0
H151 H 0.99012 0.05439 0.89945 0.0
C152 C 0.03526 0.19051 0.96079 0.0
N153 N 0.03339 0.18861 0.9478 0.0
N154 N 0.02829 0.15436 0.94429 0.0
C155 C 0.02417 0.13372 0.95513 0.0
C156 C 0.0288 0.15613 0.96592 0.0
C157 C 0.04273 0.22455 0.96844 0.0
H158 H 0.06049 0.24362 0.9629 0.0
H159 H 0.01638 0.23807 0.97091 0.0
H160 H 0.05659 0.21754 0.97769 0.0
O161 O 0.07112 0.22557 0.92372 0.0
O162 O 0.07033 0.16861 0.91635 0.0
H163 H 0.03777 0.07679 0.95554 0.0
H164 H -0.00387 0.08801 0.96396 0.0
C165 C 0.01284 0.09427 0.95523 0.0
H166 H -0.00294 0.08758 0.94637 0.0
H167 H 0.08317 0.09349 0.93572 0.0
O168 O 0.02926 0.27263 0.94371 0.0
C169 C 0.08448 0.20068 0.91656 0.0
Co170 Co 0.20537 0.85597 0.16661 0.0
Co171 Co 0.27254 0.88951 0.1526 0.0
C172 C 0.23047 0.82046 0.14323 0.0
O173 O 0.21038 0.81908 0.15326 0.0
O174 O 0.25439 0.84594 0.14168 0.0
C175 C 0.14697 0.81501 0.17984 0.0
O176 O 0.15181 0.78738 0.17186 0.0
C177 C 0.3518 0.88691 0.14938 0.0
C178 C 0.36461 0.94251 0.14213 0.0
C179 C 0.38092 0.91048 0.14661 0.0
N180 N 0.32018 0.90464 0.14701 0.0
N181 N 0.32799 0.93763 0.14245 0.0
C182 C 0.35322 0.84811 0.15417 0.0
H183 H 0.35259 0.84785 0.1649 0.0
H184 H 0.37862 0.83424 0.1508 0.0
H185 H 0.32879 0.83276 0.15074 0.0
C186 C 0.25362 0.85803 0.18893 0.0
N187 N 0.24838 0.86143 0.17612 0.0
N188 N 0.27514 0.88065 0.17099 0.0
C189 C 0.29703 0.89255 0.18072 0.0
C190 C 0.28428 0.87803 0.19239 0.0
C191 C 0.22661 0.84076 0.19801 0.0
H192 H 0.21423 0.81615 0.19348 0.0
H193 H 0.23969 0.83241 0.20723 0.0
H194 H 0.20486 0.86105 0.20025 0.0
O195 O 0.18948 0.90321 0.15845 0.0
O196 O 0.23756 0.92983 0.1492 0.0
H197 H 0.33005 0.93711 0.18804 0.0
H198 H 0.35321 0.90618 0.1773 0.0
C199 C 0.32684 0.92047 0.17913 0.0
H200 H 0.32084 0.93874 0.1708 0.0
H201 H 0.30832 0.95755 0.14023 0.0
O202 O 0.16597 0.84395 0.17862 0.0
C203 C 0.20359 0.92978 0.1521 0.0
Co204 Co 0.46584 0.08376 0.43108 0.0
Co205 Co 0.46697 0.16671 0.42494 0.0
C206 C 0.53156 0.11965 0.41839 0.0
O207 O 0.51548 0.09216 0.42354 0.0
O208 O 0.51615 0.15116 0.41781 0.0
C209 C 0.48225 0.01644 0.44529 0.0
O210 O 0.51223 0.03169 0.44985 0.0
C211 C 0.47465 0.24483 0.41676 0.0
C212 C 0.43055 0.26997 0.42847 0.0
C213 C 0.45714 0.27816 0.41932 0.0
N214 N 0.45935 0.21868 0.42426 0.0
N215 N 0.4328 0.23393 0.43111 0.0
C216 C 0.50223 0.23677 0.4064 0.0
H217 H 0.49996 0.20775 0.40326 0.0
H218 H 0.53023 0.24121 0.4103 0.0
H219 H 0.49813 0.25505 0.39792 0.0
C220 C 0.44858 0.10992 0.45739 0.0
N221 N 0.45553 0.11601 0.44476 0.0
N222 N 0.46194 0.15109 0.44285 0.0
C223 C 0.46272 0.16784 0.45457 0.0
C224 C 0.45357 0.14229 0.46412 0.0
C225 C 0.43863 0.07345 0.46312 0.0
H226 H 0.42457 0.05611 0.45587 0.0
H227 H 0.4638 0.05968 0.46669 0.0
H228 H 0.41993 0.07673 0.47149 0.0
O229 O 0.42797 0.08689 0.41793 0.0
O230 O 0.42694 0.14613 0.41327 0.0
H231 H 0.44933 0.22397 0.45818 0.0
H232 H 0.49096 0.20901 0.46567 0.0
C233 C 0.47415 0.20678 0.45676 0.0
H234 H 0.49002 0.21732 0.44838 0.0
H235 H 0.41552 0.21949 0.43735 0.0
O236 O 0.4623 0.03373 0.43731 0.0
C237 C 0.41474 0.11363 0.41162 0.0
Co238 Co 0.3047 0.43623 0.67416 0.0
Co239 Co 0.23201 0.41874 0.66006 0.0
C240 C 0.27983 0.4849 0.65303 0.0
O241 O 0.30256 0.47724 0.66196 0.0
O242 O 0.25116 0.46522 0.65124 0.0
C243 C 0.36187 0.47171 0.68925 0.0
O244 O 0.3523 0.50321 0.68404 0.0
C245 C 0.1524 0.42444 0.65589 0.0
C246 C 0.14167 0.37435 0.64444 0.0
C247 C 0.12455 0.40392 0.65029 0.0
N248 N 0.18444 0.40733 0.65365 0.0
N249 N 0.17787 0.37763 0.64669 0.0
C250 C 0.1491 0.46057 0.66268 0.0
H251 H 0.13921 0.45631 0.6727 0.0
H252 H 0.12883 0.47826 0.65762 0.0
H253 H 0.17618 0.47449 0.66309 0.0
C254 C 0.25798 0.43262 0.69712 0.0
N255 N 0.2619 0.43224 0.68419 0.0
N256 N 0.23139 0.42066 0.67878 0.0
C257 C 0.20776 0.411 0.68839 0.0
C258 C 0.22379 0.41914 0.70027 0.0
C259 C 0.28784 0.44202 0.70647 0.0
H260 H 0.30919 0.42041 0.70604 0.0
H261 H 0.30007 0.46882 0.7038 0.0
H262 H 0.27767 0.44374 0.71657 0.0
O263 O 0.31564 0.39023 0.66449 0.0
O264 O 0.26389 0.37826 0.65413 0.0
H265 H 0.17186 0.37743 0.6768 0.0
H266 H 0.17008 0.36857 0.69402 0.0
C267 C 0.17278 0.39024 0.6865 0.0
H268 H 0.14919 0.40915 0.68769 0.0
H269 H 0.19801 0.35908 0.64372 0.0
O270 O 0.3459 0.44231 0.68591 0.0
C271 C 0.29706 0.37048 0.65674 0.0
Co272 Co 0.66389 0.42643 0.68084 0.0
Co273 Co 0.74349 0.42441 0.67055 0.0
C274 C 0.69237 0.36354 0.66416 0.0
O275 O 0.66751 0.37984 0.67072 0.0
O276 O 0.72458 0.37716 0.66309 0.0
C277 C 0.60085 0.40075 0.69542 0.0
O278 O 0.61239 0.36695 0.69365 0.0
C279 C 0.82339 0.41191 0.66516 0.0
C280 C 0.83954 0.46934 0.66105 0.0
C281 C 0.85293 0.43387 0.66157 0.0
N282 N 0.79381 0.43368 0.66665 0.0
N283 N 0.80387 0.46791 0.66425 0.0
C284 C 0.82285 0.371 0.6664 0.0
H285 H 0.79427 0.36058 0.66664 0.0
H286 H 0.83671 0.3629 0.67551 0.0
H287 H 0.83817 0.35836 0.65825 0.0
C288 C 0.70084 0.43121 0.70583 0.0
N289 N 0.70214 0.4309 0.69284 0.0
N290 N 0.73611 0.42573 0.68901 0.0
C291 C 0.75726 0.42046 0.69964 0.0
C292 C 0.73527 0.42354 0.71066 0.0
C293 C 0.66697 0.43774 0.71369 0.0
H294 H 0.64989 0.45901 0.70896 0.0
H295 H 0.65127 0.41179 0.71456 0.0
H296 H 0.67403 0.44716 0.72359 0.0
O297 O 0.66178 0.46851 0.66925 0.0
O298 O 0.71786 0.46607 0.6612 0.0
H299 H 0.81247 0.42843 0.69321 0.0
H300 H 0.80853 0.40731 0.70907 0.0
C301 C 0.79654 0.40878 0.69921 0.0
H302 H 0.79836 0.3814 0.69457 0.0
H303 H 0.78621 0.49041 0.66467 0.0
O304 O 0.61797 0.4275 0.69039 0.0
C305 C 0.68618 0.48084 0.66165 0.0
Co306 Co 0.83934 0.89595 0.18621 0.0
Co307 Co 0.75615 0.90039 0.18039 0.0
C308 C 0.80641 0.96227 0.17305 0.0
O309 O 0.83353 0.94537 0.17814 0.0
O310 O 0.77423 0.94818 0.17282 0.0
C311 C 0.91326 0.90973 0.19667 0.0
O312 O 0.90772 0.94538 0.19662 0.0
C313 C 0.67743 0.91247 0.1733 0.0
C314 C 0.65153 0.87036 0.18576 0.0
C315 C 0.64375 0.89711 0.17665 0.0
N316 N 0.70381 0.89555 0.18023 0.0
N317 N 0.68803 0.87023 0.18754 0.0
C318 C 0.6845 0.94298 0.16393 0.0
H319 H 0.70464 0.96249 0.16808 0.0
H320 H 0.65886 0.95787 0.16148 0.0
H321 H 0.69662 0.93139 0.15496 0.0
C322 C 0.81432 0.8889 0.21289 0.0
N323 N 0.80716 0.89033 0.20014 0.0
N324 N 0.77209 0.89666 0.19829 0.0
C325 C 0.75615 0.90163 0.21005 0.0
C326 C 0.78259 0.89684 0.21968 0.0
C327 C 0.85112 0.88034 0.21856 0.0
H328 H 0.86467 0.85852 0.21283 0.0
H329 H 0.86838 0.9054 0.21842 0.0
H330 H 0.84858 0.87073 0.22872 0.0
O331 O 0.83343 0.85714 0.17349 0.0
O332 O 0.77433 0.85877 0.16882 0.0
H333 H 0.69939 0.89211 0.2139 0.0
H334 H 0.71678 0.93401 0.22062 0.0
C335 C 0.71798 0.91567 0.21205 0.0
H336 H 0.70836 0.93076 0.20336 0.0
H337 H 0.70232 0.85251 0.19367 0.0
O338 O 0.88883 0.88811 0.19248 0.0
C339 C 0.8062 0.84493 0.16724 0.0
Co340 Co 0.82305 0.34662 0.8311 0.0
Co341 Co 0.75263 0.37198 0.84544 0.0
C342 C 0.79844 0.30588 0.85426 0.0
O343 O 0.81972 0.30936 0.84458 0.0
O344 O 0.77125 0.32773 0.85591 0.0
C345 C 0.87643 0.30412 0.81583 0.0
O346 O 0.86376 0.27329 0.82072 0.0
C347 C 0.67294 0.37112 0.85098 0.0
C348 C 0.66481 0.42786 0.85799 0.0
C349 C 0.64606 0.39605 0.85481 0.0
N350 N 0.70584 0.38777 0.85173 0.0
N351 N 0.70077 0.42143 0.85615 0.0
C352 C 0.66746 0.33354 0.84548 0.0
H353 H 0.69243 0.32436 0.84024 0.0
H354 H 0.64341 0.33319 0.8389 0.0
H355 H 0.66205 0.314 0.85351 0.0
C356 C 0.77564 0.35002 0.80849 0.0
N357 N 0.77998 0.35108 0.8214 0.0
N358 N 0.75037 0.36467 0.82687 0.0
C359 C 0.72662 0.37426 0.81734 0.0
C360 C 0.74174 0.3645 0.80542 0.0
C361 C 0.80576 0.34093 0.79914 0.0
H362 H 0.82864 0.36057 0.8005 0.0
H363 H 0.81565 0.31268 0.80104 0.0
H364 H 0.79694 0.34264 0.78891 0.0
O365 O 0.83698 0.39422 0.83911 0.0
O366 O 0.78672 0.41314 0.84916 0.0
H367 H 0.69569 0.41542 0.82746 0.0
H368 H 0.68412 0.41078 0.81048 0.0
C369 C 0.69211 0.39573 0.81939 0.0
H370 H 0.66956 0.37658 0.82191 0.0
H371 H 0.72171 0.44065 0.85735 0.0
O372 O 0.86338 0.33472 0.81947 0.0
C373 C 0.82015 0.41783 0.846 0.0
Co374 Co 0.69477 0.95859 0.34099 0.0
Co375 Co 0.76546 0.93628 0.35564 0.0
C376 C 0.71814 0.00238 0.36336 0.0
O377 O 0.69685 -0.00219 0.35378 0.0
O378 O 0.74536 0.98088 0.36537 0.0
C379 C 0.63918 -0.00171 0.32656 0.0
O380 O 0.64813 0.02788 0.33309 0.0
C381 C 0.84432 0.94377 0.35952 0.0
C382 C 0.85924 0.88924 0.36728 0.0
C383 C 0.87429 0.92181 0.36274 0.0
N384 N 0.81345 0.92454 0.36168 0.0
N385 N 0.82249 0.89227 0.36658 0.0
C386 C 0.84427 0.98243 0.35457 0.0
H387 H 0.84333 0.98238 0.34385 0.0
H388 H 0.86921 -0.00268 0.35779 0.0
H389 H 0.81938 -0.00301 0.35804 0.0
C390 C 0.74321 0.95633 0.31853 0.0
N391 N 0.73818 0.95498 0.33141 0.0
N392 N 0.76755 0.94139 0.337 0.0
C393 C 0.79153 0.93144 0.32756 0.0
C394 C 0.777 0.94142 0.31559 0.0
C395 C 0.71407 0.96663 0.30901 0.0
H396 H 0.70149 0.99309 0.31186 0.0
H397 H 0.72493 0.96936 0.29903 0.0
H398 H 0.69286 0.94485 0.30902 0.0
O399 O 0.68249 0.91125 0.34977 0.0
O400 O 0.73295 0.89485 0.36031 0.0
H401 H 0.83124 0.89151 0.32114 0.0
H402 H 0.84914 0.92748 0.3311 0.0
C403 C 0.82536 0.90896 0.32969 0.0
H404 H 0.82218 0.89138 0.33838 0.0
H405 H 0.80368 0.87153 0.36876 0.0
O406 O 0.65477 0.9679 0.32896 0.0
C407 C 0.69969 0.88908 0.35715 0.0
Co408 Co 0.50356 0.57279 0.57411 0.0
Co409 Co 0.49754 0.65576 0.5795 0.0
C410 C 0.43869 0.60615 0.58872 0.0
O411 O 0.45651 0.57961 0.58365 0.0
O412 O 0.45061 0.63916 0.58804 0.0
C413 C 0.48563 0.50699 0.55993 0.0
O414 O 0.4554 0.52335 0.55608 0.0
C415 C 0.49365 0.73444 0.58732 0.0
C416 C 0.53469 0.75736 0.57375 0.0
C417 C 0.51203 0.76669 0.58399 0.0
N418 N 0.50496 0.70761 0.57929 0.0
N419 N 0.52953 0.7216 0.57127 0.0
C420 C 0.46946 0.72797 0.5988 0.0
H421 H 0.47063 0.69871 0.60179 0.0
H422 H 0.44071 0.73464 0.59616 0.0
H423 H 0.47774 0.74575 0.60701 0.0
C424 C 0.51173 0.59753 0.54725 0.0
N425 N 0.50784 0.60444 0.55996 0.0
N426 N 0.49946 0.63913 0.56168 0.0
C427 C 0.49487 0.65476 0.54986 0.0
C428 C 0.5025 0.62869 0.54036 0.0
C429 C 0.52772 0.56309 0.54168 0.0
H430 H 0.54455 0.54847 0.54898 0.0
H431 H 0.50545 0.54497 0.53817 0.0
H432 H 0.54527 0.5698 0.5332 0.0
O433 O 0.54481 0.57841 0.58563 0.0
O434 O 0.54003 0.63729 0.59054 0.0
H435 H 0.50286 0.71116 0.54494 0.0
H436 H 0.46029 0.69228 0.53943 0.0
C437 C 0.47999 0.69251 0.54762 0.0
H438 H 0.46622 0.70303 0.55645 0.0
H439 H 0.54406 0.70631 0.56444 0.0
O440 O 0.50681 0.52288 0.56786 0.0
C441 C 0.55594 0.60627 0.59179 0.0
Co442 Co 0.97645 0.7429 0.07437 0.0
Co443 Co 0.9782 0.66041 0.0822 0.0
C444 C 0.04247 0.71035 0.08754 0.0
O445 O 0.02627 0.73714 0.08195 0.0
O446 O 0.02724 0.67879 0.08871 0.0
C447 C 0.98556 0.81652 0.06143 0.0
O448 O 0.02112 0.81322 0.05965 0.0
C449 C 0.99382 0.5805 0.08731 0.0
C450 C 0.94101 0.55728 0.08069 0.0
C451 C 0.97496 0.54761 0.0856 0.0
N452 N 0.97181 0.60827 0.08351 0.0
N453 N 0.94026 0.59405 0.07971 0.0
C454 C 0.03258 0.58542 0.09169 0.0
H455 H 0.04608 0.60717 0.08585 0.0
H456 H 0.04831 0.55942 0.09088 0.0
H457 H 0.03253 0.59445 0.10194 0.0
C458 C 0.96623 0.71264 0.04845 0.0
N459 N 0.96869 0.70827 0.06134 0.0
N460 N 0.97244 0.67326 0.06412 0.0
C461 C 0.97404 0.6543 0.05284 0.0
C462 C 0.9702 0.67886 0.04255 0.0
C463 C 0.96131 0.74879 0.04175 0.0
H464 H 0.94027 0.76526 0.04686 0.0
H465 H 0.98775 0.76384 0.04176 0.0
H466 H 0.95235 0.74508 0.03157 0.0
O467 O 0.93895 0.73993 0.08782 0.0
O468 O 0.93837 0.68171 0.0938 0.0
H469 H 0.95796 0.59802 0.05336 0.0
H470 H 0.99458 0.60767 0.04215 0.0
C471 C 0.98328 0.61439 0.05184 0.0
H472 H 0.00339 0.60671 0.05943 0.0
H473 H 0.91834 0.60956 0.0762 0.0
O474 O 0.96764 0.79152 0.06717 0.0
C475 C 0.92613 0.71439 0.09482 0.0
Co476 Co 0.46104 0.72229 0.41906 0.0
Co477 Co 0.47928 0.65092 0.40402 0.0
C478 C 0.41397 0.69931 0.39713 0.0
O479 O 0.42095 0.72068 0.40652 0.0
O480 O 0.43374 0.67089 0.39496 0.0
C481 C 0.42401 0.77311 0.43658 0.0
O482 O 0.39254 0.75725 0.43391 0.0
C483 C 0.4727 0.57192 0.39834 0.0
C484 C 0.52871 0.55959 0.39136 0.0
C485 C 0.49566 0.54325 0.39466 0.0
N486 N 0.49162 0.60353 0.39742 0.0
N487 N 0.52479 0.59602 0.39296 0.0
C488 C 0.43502 0.56919 0.40403 0.0
H489 H 0.4277 0.59493 0.40917 0.0
H490 H 0.43319 0.54544 0.41075 0.0
H491 H 0.41496 0.56477 0.39612 0.0
C492 C 0.46599 0.67355 0.44155 0.0
N493 N 0.4657 0.67886 0.42865 0.0
N494 N 0.47565 0.64846 0.42274 0.0
C495 C 0.48373 0.623 0.43194 0.0
C496 C 0.47709 0.63813 0.44408 0.0
C497 C 0.45923 0.70279 0.45146 0.0
H498 H 0.47773 0.72638 0.44963 0.0
H499 H 0.43031 0.71192 0.45079 0.0
H500 H 0.46406 0.69292 0.46147 0.0
O501 O 0.50734 0.73429 0.40996 0.0
O502 O 0.52035 0.68392 0.39884 0.0
H503 H 0.51983 0.58819 0.42101 0.0
H504 H 0.51601 0.57643 0.438 0.0
C505 C 0.50084 0.58641 0.42938 0.0
H506 H 0.479 0.56622 0.42716 0.0
H507 H 0.54548 0.61552 0.39172 0.0
O508 O 0.45319 0.76275 0.43096 0.0
C509 C 0.52775 0.71679 0.4021 0.0
Co510 Co 0.02967 0.58269 0.92001 0.0
Co511 Co 0.01462 0.65704 0.90632 0.0
C512 C 0.08623 0.61431 0.90288 0.0
O513 O 0.07672 0.59086 0.91138 0.0
O514 O 0.06498 0.64094 0.89981 0.0
C515 C 0.05678 0.52938 0.93879 0.0
O516 O 0.08713 0.54858 0.93991 0.0
C517 C 0.02442 0.7365 0.90162 0.0
C518 C 0.96852 0.75236 0.89551 0.0
C519 C 0.00268 0.76675 0.8985 0.0
N520 N 0.00365 0.70604 0.90084 0.0
N521 N 0.97047 0.7157 0.89698 0.0
C522 C 0.06441 0.73602 0.90493 0.0
H523 H 0.0772 0.71018 0.90153 0.0
H524 H 0.06781 0.73727 0.91558 0.0
H525 H 0.07883 0.75973 0.90047 0.0
C526 C 0.00805 0.62432 0.94313 0.0
N527 N 0.01482 0.62224 0.93035 0.0
N528 N 0.00954 0.6546 0.92498 0.0
C529 C -0.00015 0.67856 0.93446 0.0
C530 C -0.00106 0.65992 0.94622 0.0
C531 C 0.00865 0.59263 0.95239 0.0
H532 H 0.99473 0.56863 0.94803 0.0
H533 H 0.0375 0.58564 0.95469 0.0
H534 H 0.99448 0.59934 0.96159 0.0
O535 O 0.99305 0.57122 0.9068 0.0
O536 O 0.97788 0.62403 0.89757 0.0
H537 H 0.97105 0.721 0.92434 0.0
H538 H 0.97917 0.73065 0.94128 0.0
C539 C 0.99092 0.71819 0.93239 0.0
H540 H 0.01625 0.73325 0.92975 0.0
H541 H 0.94868 0.69737 0.89584 0.0
O542 O 0.03235 0.53902 0.93075 0.0
C543 C 0.97426 0.58932 0.89864 0.0
H544 H 0.00745 0.51871 0.10728 0.0
H545 H 0.96755 0.4902 0.06934 0.0
H546 H 0.01748 0.45358 0.11207 0.0
H547 H 0.97913 0.42565 0.07373 0.0
H548 H 0.96035 0.31301 0.08912 0.0
H549 H 0.95339 0.37808 0.08552 0.0
H550 H 0.05073 0.39877 0.10823 0.0
H551 H 0.05578 0.33321 0.1128 0.0
C552 C 0.0018 0.49852 0.09986 0.0
C553 C 0.98675 0.50934 0.08795 0.0
C554 C 0.00748 0.46118 0.10258 0.0
C555 C -0.00147 0.43403 0.09338 0.0
C556 C 0.98525 0.44542 0.08124 0.0
C557 C 0.97901 0.4825 0.07863 0.0
C558 C 0.97948 0.33124 0.09382 0.0
C559 C 0.00788 0.31764 0.10166 0.0
C560 C 0.97611 0.36885 0.09143 0.0
C561 C 0.00167 0.39402 0.09647 0.0
C562 C 0.0302 0.38044 0.1043 0.0
C563 C 0.03324 0.34275 0.10685 0.0
H564 H 0.11504 0.93057 0.35628 0.0
H565 H 0.07184 0.92116 0.31757 0.0
H566 H 0.05254 0.92928 0.36501 0.0
H567 H 0.00973 0.91901 0.3262 0.0
H568 H 0.90457 0.95965 0.34227 0.0
H569 H 0.96814 0.9615 0.33572 0.0
H570 H -0.00274 0.8925 0.36817 0.0
H571 H 0.93322 0.89256 0.37527 0.0
C572 C 0.09223 0.92718 0.34968 0.0
C573 C 0.09818 0.92566 0.33626 0.0
C574 C 0.05644 0.92665 0.35467 0.0
C575 C 0.02606 0.92463 0.34629 0.0
C576 C 0.03237 0.92159 0.33291 0.0
C577 C 0.06796 0.92243 0.32796 0.0
C578 C 0.92442 0.94612 0.34838 0.0
C579 C 0.91369 0.92676 0.35953 0.0
C580 C 0.96101 0.94639 0.34441 0.0
C581 C 0.98782 0.9267 0.35131 0.0
C582 C 0.97738 0.90814 0.36267 0.0
C583 C 0.94067 0.90809 0.36671 0.0
H584 H 0.53155 -0.00162 0.58817 0.0
H585 H 0.47285 0.97655 0.62371 0.0
H586 H 0.53752 0.93304 0.58438 0.0
H587 H 0.47798 0.91052 0.61966 0.0
H588 H 0.45363 0.80288 0.59524 0.0
H589 H 0.45253 0.86638 0.60292 0.0
H590 H 0.56755 0.87742 0.59358 0.0
H591 H 0.56881 0.81417 0.58606 0.0
C592 C 0.52106 0.97978 0.59543 0.0
C593 C 0.50276 0.99285 0.60648 0.0
C594 C 0.52411 0.94215 0.59317 0.0
C595 C 0.50843 0.91666 0.60177 0.0
C596 C 0.49024 0.92958 0.61285 0.0
C597 C 0.48749 0.96731 0.61518 0.0
C598 C 0.47889 0.81849 0.59518 0.0
C599 C 0.51133 0.80343 0.59009 0.0
C600 C 0.47823 0.85491 0.59953 0.0
C601 C 0.50992 0.87689 0.59875 0.0
C602 C 0.5426 0.86131 0.59412 0.0
C603 C 0.54328 0.82506 0.58983 0.0
H604 H 0.4266 0.32475 0.83592 0.0
H605 H 0.41101 0.43777 0.84734 0.0
H606 H 0.49107 0.32892 0.84147 0.0
H607 H 0.47515 0.44124 0.85375 0.0
H608 H 0.59914 0.44882 0.84662 0.0
H609 H 0.53314 0.4446 0.84369 0.0
H610 H 0.53525 0.33307 0.85812 0.0
H611 H 0.60173 0.3372 0.86069 0.0
C612 C 0.43675 0.35035 0.83986 0.0
C613 C 0.41334 0.38079 0.84131 0.0
C614 C 0.47377 0.3526 0.84319 0.0
C615 C 0.4885 0.38537 0.84811 0.0
C616 C 0.46489 0.41562 0.84987 0.0
C617 C 0.4278 0.41344 0.84642 0.0
C618 C 0.58546 0.42345 0.84923 0.0
C619 C 0.60568 0.39312 0.85367 0.0
C620 C 0.5475 0.4211 0.84764 0.0
C621 C 0.52867 0.38847 0.85063 0.0
C622 C 0.54888 0.35841 0.85545 0.0
C623 C 0.58701 0.36068 0.85691 0.0
H624 H 0.04836 0.80106 0.91587 0.0
H625 H 0.97263 0.82294 0.88467 0.0
H626 H 0.05802 0.86646 0.91866 0.0
H627 H 0.98136 0.889 0.88785 0.0
H628 H 0.97507 -0.00084 0.91262 0.0
H629 H 0.96716 0.93518 0.90603 0.0
H630 H 0.08467 0.92024 0.90637 0.0
H631 H 0.09271 0.98412 0.91265 0.0
C632 C 0.03469 0.81963 0.9093 0.0
C633 C 0.01075 0.80655 0.89971 0.0
C634 C 0.03987 0.85729 0.91102 0.0
C635 C 0.02068 0.88282 0.90339 0.0
C636 C -0.00351 0.86991 0.89387 0.0
C637 C 0.99165 0.83214 0.89203 0.0
C638 C -0.00075 0.98265 0.91087 0.0
C639 C 0.03455 -0.00309 0.91304 0.0
C640 C 0.99469 0.9459 0.90718 0.0
C641 C 0.02532 0.92272 0.90577 0.0
C642 C 0.06057 0.93735 0.90753 0.0
C643 C 0.06511 0.97396 0.91111 0.0
H644 H 0.43905 0.94312 0.13456 0.0
H645 H 0.41237 0.87202 0.16672 0.0
H646 H 0.50327 0.94338 0.14136 0.0
H647 H 0.47614 0.87009 0.17289 0.0
H648 H 0.5817 0.90478 0.19065 0.0
H649 H 0.51896 0.90919 0.18278 0.0
H650 H 0.55883 0.90786 0.14335 0.0
H651 H 0.62197 0.90474 0.15138 0.0
C652 C 0.44696 0.92684 0.14288 0.0
C653 C 0.42048 0.90679 0.14986 0.0
C654 C 0.48381 0.92686 0.14675 0.0
C655 C 0.49498 0.90694 0.15773 0.0
C656 C 0.46857 0.88626 0.1645 0.0
C657 C 0.43183 0.88653 0.16072 0.0
C658 C 0.57701 0.90602 0.1803 0.0
C659 C 0.60659 0.90473 0.17162 0.0
C660 C 0.54104 0.90812 0.17577 0.0
C661 C 0.53366 0.90817 0.16241 0.0
C662 C 0.56345 0.90813 0.1537 0.0
C663 C 0.59963 0.90648 0.15828 0.0
H664 H 0.40688 0.33282 0.41715 0.0
H665 H 0.52087 0.30857 0.40937 0.0
H666 H 0.41627 0.39559 0.41007 0.0
H667 H 0.5296 0.37059 0.40126 0.0
H668 H 0.5442 0.49485 0.40475 0.0
H669 H 0.53511 0.43006 0.40933 0.0
H670 H 0.4262 0.43626 0.39285 0.0
H671 H 0.43509 0.50177 0.38877 0.0
C672 C 0.43383 0.34062 0.41366 0.0
C673 C 0.46295 0.31526 0.41367 0.0
C674 C 0.43911 0.37666 0.40944 0.0
C675 C 0.47368 0.38839 0.40501 0.0
C676 C 0.50265 0.36276 0.40472 0.0
C677 C 0.49745 0.32676 0.40913 0.0
C678 C 0.5184 0.48225 0.40202 0.0
C679 C 0.49016 0.50338 0.39655 0.0
C680 C 0.51324 0.44496 0.40457 0.0
C681 C 0.47986 0.42766 0.40149 0.0
C682 C 0.45199 0.44871 0.39561 0.0
C683 C 0.45702 0.48625 0.39325 0.0
H684 H 0.89474 0.45852 0.64178 0.0
H685 H 0.89789 0.38832 0.67546 0.0
H686 H 0.96054 0.44951 0.63859 0.0
H687 H 0.9639 0.3792 0.67226 0.0
H688 H 0.08507 0.42032 0.67196 0.0
H689 H 0.01838 0.42372 0.67407 0.0
H690 H 0.00694 0.3987 0.63344 0.0
H691 H 0.07386 0.39552 0.63133 0.0
C692 C 0.90947 0.4406 0.64835 0.0
C693 C 0.89128 0.42376 0.65877 0.0
C694 C 0.94703 0.4354 0.64651 0.0
C695 C 0.96723 0.41379 0.6552 0.0
C696 C 0.94888 0.39614 0.66546 0.0
C697 C 0.9111 0.40093 0.66719 0.0
C698 C 0.06835 0.4164 0.66343 0.0
C699 C 0.08451 0.40864 0.65141 0.0
C700 C 0.03021 0.41762 0.66469 0.0
C701 C 0.0076 0.41135 0.65392 0.0
C702 C 0.0238 0.4038 0.64187 0.0
C703 C 0.06195 0.40205 0.64066 0.0
H704 H 0.04459 0.17132 0.04932 0.0
H705 H 0.9295 0.15171 0.04273 0.0
H706 H 0.05586 0.16874 0.0259 0.0
H707 H 0.94053 0.1475 0.01957 0.0
H708 H 0.06965 0.12308 0.98483 0.0
H709 H 0.05785 0.12524 0.00825 0.0
H710 H 0.95536 0.18143 1.00096 0.0
H711 H 0.96688 0.17795 0.97779 0.0
C712 C 0.02164 0.16734 0.04282 0.0
C713 C 0.98609 0.16238 0.04777 0.0
C714 C 0.02812 0.16506 0.02944 0.0
C715 C -0.00084 0.15759 0.02078 0.0
C716 C 0.96349 0.15374 0.02583 0.0
C717 C 0.95708 0.15622 0.03912 0.0
C718 C 0.04413 0.13471 0.98833 0.0
C719 C 0.01873 0.14957 0.97959 0.0
C720 C 0.03765 0.13667 1.00171 0.0
C721 C 0.00574 0.15379 0.00656 0.0
C722 C 0.97995 0.16758 0.99766 0.0
C723 C 0.98639 0.16546 0.98436 0.0
H724 H 0.22656 0.95139 0.26882 0.0
H725 H 0.32466 0.88802 0.27552 0.0
H726 H 0.23236 0.94004 0.24548 0.0
H727 H 0.33193 0.87848 0.25244 0.0
H728 H 0.31266 0.83574 0.21142 0.0
H729 H 0.30901 0.84723 0.2346 0.0
H730 H 0.26815 0.95665 0.22695 0.0
H731 H 0.27047 0.94404 0.20369 0.0
C732 C 0.24917 0.93487 0.26529 0.0
C733 C 0.27535 0.92093 0.27393 0.0
C734 C 0.25293 0.92884 0.25192 0.0
C735 C 0.28298 0.90874 0.24697 0.0
C736 C 0.30833 0.89386 0.25578 0.0
C737 C 0.30436 0.8996 0.26905 0.0
C738 C 0.30407 0.86262 0.21474 0.0
C739 C 0.29246 0.88921 0.20583 0.0
C740 C 0.3017 0.86924 0.22804 0.0
C741 C 0.28786 0.90282 0.23275 0.0
C742 C 0.2782 0.93022 0.22373 0.0
C743 C 0.28032 0.9234 0.2104 0.0
H744 H 0.42975 0.14663 0.54853 0.0
H745 H 0.53383 0.09514 0.54081 0.0
H746 H 0.41756 0.15062 0.52538 0.0
H747 H 0.5214 0.09752 0.51758 0.0
H748 H 0.51512 0.15308 0.47845 0.0
H749 H 0.5219 0.14464 0.50179 0.0
H750 H 0.40533 0.1243 0.50504 0.0
H751 H 0.39872 0.13471 0.4818 0.0
C752 C 0.44907 0.13429 0.54185 0.0
C753 C 0.48238 0.11993 0.54642 0.0
C754 C 0.44236 0.13695 0.52854 0.0
C755 C 0.46886 0.12519 0.5195 0.0
C756 C 0.50079 0.10785 0.5242 0.0
C757 C 0.50758 0.10551 0.53752 0.0
C758 C 0.49089 0.14797 0.48427 0.0
C759 C 0.45636 0.14498 0.47839 0.0
C760 C 0.49479 0.14224 0.4976 0.0
C761 C 0.46428 0.13293 0.50536 0.0
C762 C 0.42947 0.13148 0.49947 0.0
C763 C 0.4256 0.13756 0.48616 0.0
H764 H 0.19501 0.46577 0.7178 0.0
H765 H 0.23105 0.35405 0.71289 0.0
H766 H 0.1959 0.45804 0.74122 0.0
H767 H 0.231 0.34544 0.73642 0.0
H768 H 0.1783 0.42704 0.78306 0.0
H769 H 0.17056 0.43082 0.75978 0.0
H770 H 0.26798 0.3647 0.75448 0.0
H771 H 0.2743 0.35925 0.77807 0.0
C772 C 0.20137 0.43897 0.72178 0.0
C773 C 0.21203 0.41023 0.71359 0.0
C774 C 0.20227 0.43453 0.73523 0.0
C775 C 0.21395 0.40117 0.7408 0.0
C776 C 0.22253 0.3717 0.73251 0.0
C777 C 0.22173 0.37627 0.71904 0.0
C778 C 0.19786 0.41294 0.77693 0.0
C779 C 0.22656 0.39232 0.78238 0.0
C780 C 0.19366 0.41545 0.76354 0.0
C781 C 0.21841 0.39784 0.75515 0.0
C782 C 0.24789 0.378 0.76062 0.0
C783 C 0.25194 0.37532 0.77411 0.0
H784 H 0.73848 0.43241 0.7943 0.0
H785 H 0.72361 0.3173 0.78643 0.0
H786 H 0.73838 0.44551 0.77106 0.0
H787 H 0.72582 0.32941 0.76333 0.0
H788 H 0.70421 0.36488 0.72207 0.0
H789 H 0.69969 0.3522 0.74503 0.0
H790 H 0.77599 0.44055 0.75276 0.0
H791 H 0.77814 0.45464 0.72954 0.0
C792 C 0.73399 0.41011 0.78756 0.0
C793 C 0.7303 0.37397 0.7921 0.0
C794 C 0.73495 0.41737 0.77423 0.0
C795 C 0.73283 0.38851 0.76516 0.0
C796 C 0.7271 0.35258 0.76985 0.0
C797 C 0.72552 0.34552 0.78314 0.0
C798 C 0.72061 0.38107 0.72869 0.0
C799 C 0.7417 0.41057 0.72406 0.0
C800 C 0.71803 0.37385 0.74191 0.0
C801 C 0.73713 0.3955 0.75094 0.0
C802 C 0.76007 0.4238 0.74619 0.0
C803 C 0.7621 0.43143 0.73287 0.0
H804 H 0.82645 0.94348 0.23295 0.0
H805 H 0.73528 0.86943 0.23805 0.0
H806 H 0.83127 0.95113 0.25621 0.0
H807 H 0.73849 0.87861 0.26157 0.0
H808 H 0.77284 0.87495 0.30367 0.0
H809 H 0.77442 0.86414 0.28027 0.0
H810 H 0.80375 0.97795 0.27418 0.0
H811 H 0.80344 0.98782 0.29748 0.0
C812 C 0.8071 0.92913 0.23911 0.0
C813 C 0.7808 0.90547 0.23372 0.0
C814 C 0.80967 0.93371 0.25248 0.0
C815 C 0.78553 0.91525 0.26089 0.0
C816 C 0.75814 0.89264 0.25544 0.0
C817 C 0.7558 0.88781 0.24197 0.0
C818 C 0.78118 0.89706 0.29728 0.0
C819 C 0.78892 0.93196 0.30232 0.0
C820 C 0.78123 0.8912 0.28387 0.0
C821 C 0.78869 0.92027 0.27523 0.0
C822 C 0.79831 0.9547 0.28043 0.0
C823 C 0.79848 0.9604 0.29381 0.0
H824 H 0.54127 0.6399 0.45734 0.0
H825 H 0.42754 0.60908 0.46056 0.0
H826 H 0.54747 0.63703 0.48093 0.0
H827 H 0.43308 0.60683 0.48407 0.0
H828 H 0.46181 0.58205 0.52597 0.0
H829 H 0.4588 0.57743 0.50253 0.0
H830 H 0.52652 0.67441 0.49906 0.0
H831 H 0.53067 0.67792 0.52276 0.0
C832 C 0.51806 0.63096 0.4631 0.0
C833 C 0.48421 0.62368 0.45718 0.0
C834 C 0.52129 0.63019 0.47662 0.0
C835 C 0.49063 0.62227 0.48445 0.0
C836 C 0.45738 0.61273 0.47839 0.0
C837 C 0.45421 0.61355 0.46491 0.0
C838 C 0.4761 0.60237 0.52019 0.0
C839 C 0.49679 0.63014 0.52615 0.0
C840 C 0.47419 0.59986 0.50673 0.0
C841 C 0.49273 0.62527 0.49884 0.0
C842 C 0.51252 0.65389 0.50484 0.0
C843 C 0.51446 0.65634 0.51839 0.0
H844 H 0.05268 0.67422 0.96324 0.0
H845 H 0.93508 0.67106 0.95942 0.0
H846 H 0.0468 0.67687 0.98669 0.0
H847 H 0.92861 0.67492 0.98302 0.0
H848 H 0.93178 0.63627 0.02539 0.0
H849 H 0.93816 0.63604 1.00171 0.0
H850 H 0.02912 0.71177 0.00475 0.0
H851 H 0.02345 0.71058 0.0282 0.0
C852 C 0.02549 0.67582 0.96747 0.0
C853 C 0.99433 0.67349 0.95957 0.0
C854 C 0.02201 0.67699 0.98092 0.0
C855 C 0.98719 0.6758 0.98683 0.0
C856 C 0.95587 0.67527 0.97884 0.0
C857 C 0.95944 0.67394 0.96532 0.0
C858 C 0.95356 0.6521 0.02092 0.0
C859 C 0.97715 0.67337 0.02855 0.0
C860 C 0.95688 0.65255 0.00737 0.0
C861 C 0.98389 0.6743 1.00125 0.0
C862 C 0.00819 0.69449 0.00904 0.0
C863 C 0.00495 0.69386 0.0225 0.0
H864 H 0.13013 0.93786 0.15647 0.0
H865 H 0.22132 0.98823 0.13635 0.0
H866 H 0.08824 0.98088 0.14621 0.0
H867 H 0.17892 0.03137 0.12599 0.0
H868 H 0.08751 0.12044 0.1184 0.0
H869 H 0.13294 0.08339 0.1301 0.0
H870 H 0.06782 0.98631 0.12332 0.0
H871 H 0.02281 0.02274 0.11176 0.0
C872 C 0.14137 0.95833 0.14996 0.0
C873 C 0.17913 0.95922 0.14713 0.0
C874 C 0.11726 0.98291 0.14403 0.0
C875 C 0.13021 0.00913 0.13514 0.0
C876 C 0.16816 0.01147 0.13281 0.0
C877 C 0.1924 0.98668 0.13872 0.0
C878 C 0.08301 0.09117 0.11937 0.0
C879 C 0.05138 0.07466 0.11416 0.0
C880 C 0.10906 0.06999 0.12604 0.0
C881 C 0.1037 0.03203 0.12776 0.0
C882 C 0.07241 0.01559 0.12237 0.0
C883 C 0.0467 0.03654 0.11564 0.0
H884 H 0.2563 0.00181 0.3622 0.0
H885 H 0.34264 0.04728 0.33845 0.0
H886 H 0.27614 0.0406 0.38024 0.0
H887 H 0.36277 0.08525 0.35635 0.0
H888 H 0.39517 0.15367 0.38999 0.0
H889 H 0.35508 0.13346 0.37232 0.0
H890 H 0.33036 0.03418 0.39356 0.0
H891 H 0.36952 0.05444 0.41108 0.0
C892 C 0.27873 0.02088 0.3607 0.0
C893 C 0.29822 0.02109 0.34896 0.0
C894 C 0.29036 0.04288 0.37106 0.0
C895 C 0.3215 0.06567 0.36984 0.0
C896 C 0.33864 0.0683 0.35769 0.0
C897 C 0.32721 0.04625 0.34741 0.0
C898 C 0.38041 0.128 0.39098 0.0
C899 C 0.38598 0.10544 0.40185 0.0
C900 C 0.35759 0.11629 0.38084 0.0
C901 C 0.33961 0.08201 0.38145 0.0
C902 C 0.3433 0.06086 0.39276 0.0
C903 C 0.36619 0.07236 0.40278 0.0
H904 H 0.42958 0.18734 0.62734 0.0
H905 H 0.41643 0.26618 0.59639 0.0
H906 H 0.38707 0.22284 0.64078 0.0
H907 H 0.37347 0.3011 0.60975 0.0
H908 H 0.2753 0.33785 0.63425 0.0
H909 H 0.30944 0.29336 0.62126 0.0
H910 H 0.39427 0.28984 0.65033 0.0
H911 H 0.36057 0.33486 0.66326 0.0
C912 C 0.41705 0.2118 0.62331 0.0
C913 C 0.42645 0.22408 0.61082 0.0
C914 C 0.39292 0.23215 0.63103 0.0
C915 C 0.37712 0.26468 0.62629 0.0
C916 C 0.38511 0.27598 0.61359 0.0
C917 C 0.40979 0.25607 0.60598 0.0
C918 C 0.30095 0.32719 0.63798 0.0
C919 C 0.31536 0.34005 0.64976 0.0
C920 C 0.32051 0.30186 0.63051 0.0
C921 C 0.35446 0.2883 0.63479 0.0
C922 C 0.36801 0.29971 0.64686 0.0
C923 C 0.34881 0.32558 0.65422 0.0
H924 H 0.12951 0.26013 0.91835 0.0
H925 H 0.10838 0.16493 0.89462 0.0
H926 H 0.17108 0.28402 0.90203 0.0
H927 H 0.15087 0.18872 0.87825 0.0
H928 H 0.16521 0.28053 0.84651 0.0
H929 H 0.14353 0.23967 0.86342 0.0
H930 H 0.22705 0.28119 0.88918 0.0
H931 H 0.2486 0.32282 0.87205 0.0
C932 C 0.13437 0.24383 0.90975 0.0
C933 C 0.11504 0.21088 0.9077 0.0
C934 C 0.15863 0.25742 0.90042 0.0
C935 C 0.16417 0.23854 0.88873 0.0
C936 C 0.14687 0.20423 0.88707 0.0
C937 C 0.12264 0.19047 0.89648 0.0
C938 C 0.17966 0.28023 0.85567 0.0
C939 C 0.20836 0.30513 0.85801 0.0
C940 C 0.16735 0.25655 0.86538 0.0
C941 C 0.18322 0.25731 0.87775 0.0
C942 C 0.21391 0.28022 0.8798 0.0
C943 C 0.22652 0.30382 0.86997 0.0
H944 H 0.92775 0.25884 0.91919 0.0
H945 H 0.92961 0.15274 0.90056 0.0
H946 H 0.87899 0.27865 0.90485 0.0
H947 H 0.87978 0.17241 0.8863 0.0
H948 H 0.84152 0.24532 0.85146 0.0
H949 H 0.87508 0.21318 0.86827 0.0
H950 H 0.81687 0.27513 0.89743 0.0
H951 H 0.78373 0.30819 0.88042 0.0
C952 C 0.91731 0.23939 0.91218 0.0
C953 C 0.93313 0.20426 0.91097 0.0
C954 C 0.88891 0.25073 0.90399 0.0
C955 C 0.87533 0.22732 0.8943 0.0
C956 C 0.88982 0.19145 0.89351 0.0
C957 C 0.91832 0.18005 0.90175 0.0
C958 C 0.83509 0.25148 0.86147 0.0
C959 C 0.81014 0.27969 0.86456 0.0
C960 C 0.85435 0.23283 0.87117 0.0
C961 C 0.8493 0.24184 0.88428 0.0
C962 C 0.82207 0.26793 0.88743 0.0
C963 C 0.80263 0.28659 0.87768 0.0
H964 H 0.57939 0.17427 0.63035 0.0
H965 H 0.62656 0.23802 0.59924 0.0
H966 H 0.61602 0.20889 0.64597 0.0
H967 H 0.66256 0.27278 0.61475 0.0
H968 H 0.73099 0.32821 0.6449 0.0
H969 H 0.70983 0.27755 0.63129 0.0
H970 H 0.60921 0.27208 0.65334 0.0
H971 H 0.63037 0.32205 0.66696 0.0
C972 C 0.59844 0.19478 0.62679 0.0
C973 C 0.59976 0.20357 0.61355 0.0
C974 C 0.61913 0.21497 0.63576 0.0
C975 C 0.64182 0.24413 0.63166 0.0
C976 C 0.64558 0.25052 0.61831 0.0
C977 C 0.62478 0.23058 0.60938 0.0
C978 C 0.70466 0.31573 0.64699 0.0
C979 C 0.68226 0.32958 0.65696 0.0
C980 C 0.69244 0.28676 0.63914 0.0
C981 C 0.65769 0.27074 0.64115 0.0
C982 C 0.63627 0.28332 0.65157 0.0
C983 C 0.64833 0.31234 0.65934 0.0
H984 H 0.6987 0.07408 0.36017 0.0
H985 H 0.70637 0.98828 0.38876 0.0
H986 H 0.66188 0.11087 0.37495 0.0
H987 H 0.66679 0.02276 0.40313 0.0
H988 H 0.59143 0.08488 0.42828 0.0
H989 H 0.64631 0.06535 0.41673 0.0
H990 H 0.60412 0.11607 0.38182 0.0
H991 H 0.55148 0.13839 0.39388 0.0
C992 C 0.69312 0.06352 0.36979 0.0
C993 C 0.70572 0.02854 0.37338 0.0
C994 C 0.67119 0.08423 0.37822 0.0
C995 C 0.65986 0.0698 0.39027 0.0
C996 C 0.67475 0.03562 0.39412 0.0
C997 C 0.69773 0.01555 0.38585 0.0
C998 C 0.59467 0.09265 0.41821 0.0
C999 C 0.56733 0.1132 0.41197 0.0
C1000 C 0.62595 0.08094 0.41147 0.0
C1001 C 0.63001 0.08807 0.3981 0.0
C1002 C 0.60303 0.11016 0.39207 0.0
C1003 C 0.57243 0.12297 0.39897 0.0
H1004 H 0.7805 0.98586 0.14976 0.0
H1005 H 0.8493 0.01842 0.18159 0.0
H1006 H 0.8014 0.03844 0.13732 0.0
H1007 H 0.86788 0.07323 0.1698 0.0
H1008 H 0.93859 0.12772 0.13829 0.0
H1009 H 0.90631 0.09175 0.15434 0.0
H1010 H 0.80778 0.09689 0.131 0.0
H1011 H 0.84189 0.13002 0.1144 0.0
C1012 C 0.7992 0.00512 0.15425 0.0
C1013 C 0.8136 -0.00214 0.16656 0.0
C1014 C 0.81116 0.03572 0.14714 0.0
C1015 C 0.83707 0.06057 0.15233 0.0
C1016 C 0.84908 0.05448 0.16514 0.0
C1017 C 0.83808 0.02319 0.17203 0.0
C1018 C 0.9096 0.12246 0.13686 0.0
C1019 C 0.89278 0.13174 0.12511 0.0
C1020 C 0.89081 0.10142 0.1461 0.0
C1021 C 0.85428 0.08991 0.14397 0.0
C1022 C 0.83622 0.10348 0.13287 0.0
C1023 C 0.85546 0.12345 0.12344 0.0
H1024 H 0.7234 0.50422 0.63998 0.0
H1025 H 0.6255 0.52467 0.66249 0.0
H1026 H 0.70057 0.54546 0.6231 0.0
H1027 H 0.60263 0.56516 0.64565 0.0
H1028 H 0.56708 0.64181 0.6149 0.0
H1029 H 0.6071 0.62118 0.63255 0.0
H1030 H 0.65059 0.53601 0.60783 0.0
H1031 H 0.61121 0.5567 0.59036 0.0
C1032 C 0.69741 0.51805 0.64146 0.0
C1033 C 0.67601 0.51061 0.65249 0.0
C1034 C 0.68426 0.54159 0.63177 0.0
C1035 C 0.64957 0.55836 0.63295 0.0
C1036 C 0.62956 0.55304 0.64443 0.0
C1037 C 0.64257 0.52943 0.65406 0.0
C1038 C 0.58611 0.61949 0.61316 0.0
C1039 C 0.58572 0.60058 0.60132 0.0
C1040 C 0.60881 0.60747 0.62328 0.0
C1041 C 0.63177 0.57663 0.62167 0.0
C1042 C 0.63355 0.55995 0.60943 0.0
C1043 C 0.61072 0.57168 0.59942 0.0
H1044 H 0.91573 0.61422 0.88399 0.0
H1045 H 0.97829 0.51675 0.8932 0.0
H1046 H 0.8767 0.57745 0.86947 0.0
H1047 H 0.94015 0.48091 0.87879 0.0
H1048 H 0.89303 0.43329 0.84291 0.0
H1049 H 0.92899 0.47948 0.85423 0.0
H1050 H 0.83082 0.5205 0.87259 0.0
H1051 H 0.79441 0.47407 0.86127 0.0
C1052 C 0.92122 0.58516 0.8829 0.0
C1053 C 0.95 0.56842 0.8898 0.0
C1054 C 0.89891 0.56419 0.87464 0.0
C1055 C 0.90571 0.52645 0.87293 0.0
C1056 C 0.93459 0.51001 0.87977 0.0
C1057 C 0.95626 0.5306 0.88813 0.0
C1058 C 0.87886 0.45245 0.84918 0.0
C1059 C 0.84085 0.44951 0.85133 0.0
C1060 C 0.89953 0.47891 0.85567 0.0
C1061 C 0.88271 0.50328 0.86438 0.0
C1062 C 0.84442 0.50212 0.86589 0.0
C1063 C 0.82367 0.47537 0.85946 0.0
H1064 H 0.90953 0.67898 0.11772 0.0
H1065 H 0.88047 0.77344 0.0946 0.0
H1066 H 0.87183 0.70279 0.13552 0.0
H1067 H 0.84341 0.79719 0.11225 0.0
H1068 H 0.86054 0.79397 0.16764 0.0
H1069 H 0.88131 0.75513 0.15001 0.0
H1070 H 0.79011 0.79177 0.12666 0.0
H1071 H 0.76933 0.83121 0.14447 0.0
C1072 C 0.89447 0.70432 0.11632 0.0
C1073 C 0.89838 0.72448 0.10479 0.0
C1074 C 0.87305 0.71812 0.12654 0.0
C1075 C 0.85473 0.75211 0.12538 0.0
C1076 C 0.85673 0.77083 0.1135 0.0
C1077 C 0.87833 0.7573 0.10338 0.0
C1078 C 0.84438 0.79319 0.15885 0.0
C1079 C 0.81345 0.816 0.15742 0.0
C1080 C 0.85619 0.77063 0.14874 0.0
C1081 C 0.83762 0.77044 0.13684 0.0
C1082 C 0.80529 0.79154 0.13566 0.0
C1083 C 0.79318 0.81392 0.14589 0.0
H1084 H 0.71599 0.85223 0.37947 0.0
H1085 H 0.63753 0.85576 0.34818 0.0
H1086 H 0.67857 0.8059 0.39048 0.0
H1087 H 0.60064 0.80891 0.3591 0.0
H1088 H 0.55972 0.70246 0.37868 0.0
H1089 H 0.60554 0.73987 0.36733 0.0
H1090 H 0.61167 0.8125 0.40021 0.0
H1091 H 0.56542 0.77574 0.41146 0.0
C1092 C 0.69117 0.84261 0.37482 0.0
C1093 C 0.67961 0.85778 0.36298 0.0
C1094 C 0.66974 0.81623 0.38115 0.0
C1095 C 0.63677 0.80392 0.37563 0.0
C1096 C 0.62609 0.81776 0.36351 0.0
C1097 C 0.64711 0.84468 0.3573 0.0
C1098 C 0.57129 0.72608 0.38356 0.0
C1099 C 0.55887 0.73627 0.39594 0.0
C1100 C 0.59733 0.74752 0.37704 0.0
C1101 C 0.61203 0.77902 0.38291 0.0
C1102 C 0.60094 0.78819 0.39552 0.0
C1103 C 0.57437 0.76724 0.40192 0.0
H1104 H 0.41161 0.68535 0.37103 0.0
H1105 H 0.35545 0.74429 0.40138 0.0
H1106 H 0.37766 0.72065 0.3548 0.0
H1107 H 0.32193 0.77961 0.38527 0.0
H1108 H 0.2584 0.83515 0.35348 0.0
H1109 H 0.27824 0.78402 0.36724 0.0
H1110 H 0.3845 0.78548 0.34869 0.0
H1111 H 0.36478 0.83602 0.33498 0.0
C1112 C 0.39114 0.70488 0.37425 0.0
C1113 C 0.38649 0.71218 0.38751 0.0
C1114 C 0.37197 0.72546 0.36495 0.0
C1115 C 0.34747 0.75346 0.36871 0.0
C1116 C 0.34041 0.75827 0.38198 0.0
C1117 C 0.35976 0.73801 0.39125 0.0
C1118 C 0.28576 0.8241 0.35219 0.0
C1119 C 0.31008 0.84001 0.3432 0.0
C1120 C 0.29719 0.79488 0.36011 0.0
C1121 C 0.33303 0.7806 0.35911 0.0
C1122 C 0.35659 0.79535 0.34965 0.0
C1123 C 0.34534 0.82467 0.34185 0.0
H1124 H 0.21747 0.74678 0.14349 0.0
H1125 H 0.21429 0.84217 0.11883 0.0
H1126 H 0.18021 0.71293 0.12803 0.0
H1127 H 0.17442 0.81014 0.1039 0.0
H1128 H 0.09879 0.75135 0.0779 0.0
H1129 H 0.15448 0.77039 0.08899 0.0
H1130 H 0.12077 0.70784 0.12266 0.0
H1131 H 0.0671 0.68649 0.11099 0.0
C1132 C 0.20954 0.76014 0.13455 0.0
C1133 C 0.21907 0.79696 0.1323 0.0
C1134 C 0.18736 0.74105 0.12577 0.0
C1135 C 0.17282 0.75878 0.11475 0.0
C1136 C 0.1849 0.7949 0.11209 0.0
C1137 C 0.20808 0.81353 0.12067 0.0
C1138 C 0.10394 0.74106 0.08758 0.0
C1139 C 0.0786 0.71753 0.0936 0.0
C1140 C 0.13575 0.75235 0.09406 0.0
C1141 C 0.14244 0.74155 0.10696 0.0
C1142 C 0.11754 0.71661 0.11273 0.0
C1143 C 0.08636 0.70438 0.10606 0.0
H1144 H 0.14223 0.56756 0.90891 0.0
H1145 H 0.10418 0.63989 0.87861 0.0
H1146 H 0.18403 0.5383 0.89383 0.0
H1147 H 0.14702 0.61111 0.86349 0.0
H1148 H 0.16236 0.50229 0.83993 0.0
H1149 H 0.14142 0.55162 0.85379 0.0
H1150 H 0.23485 0.53472 0.87882 0.0
H1151 H 0.25568 0.48438 0.86482 0.0
C1152 C 0.14369 0.57815 0.89912 0.0
C1153 C 0.11917 0.60557 0.89492 0.0
C1154 C 0.16797 0.56141 0.89044 0.0
C1155 C 0.16842 0.57169 0.87732 0.0
C1156 C 0.14681 0.60191 0.87346 0.0
C1157 C 0.12246 0.61871 0.88217 0.0
C1158 C 0.17899 0.50962 0.84822 0.0
C1159 C 0.21042 0.48908 0.85137 0.0
C1160 C 0.16712 0.53827 0.85615 0.0
C1161 C 0.18619 0.54714 0.86754 0.0
C1162 C 0.21923 0.52836 0.8702 0.0
C1163 C 0.23136 0.49971 0.86214 0.0
H1164 H 0.32807 0.54119 0.65664 0.0
H1165 H 0.25782 0.49273 0.62772 0.0
H1166 H 0.35838 0.57758 0.64004 0.0
H1167 H 0.28799 0.52975 0.61102 0.0
H1168 H 0.39633 0.54479 0.58689 0.0
H1169 H 0.34928 0.52369 0.6018 0.0
H1170 H 0.35839 0.62497 0.62326 0.0
H1171 H 0.40616 0.64611 0.60826 0.0
C1172 C 0.31831 0.5391 0.64677 0.0
C1173 C 0.29076 0.51365 0.64351 0.0
C1174 C 0.33565 0.56019 0.63723 0.0
C1175 C 0.32607 0.5563 0.62412 0.0
C1176 C 0.29647 0.53303 0.62099 0.0
C1177 C 0.27889 0.51205 0.63058 0.0
C1178 C 0.38787 0.56296 0.59463 0.0
C1179 C 0.40537 0.59702 0.59644 0.0
C1180 C 0.36056 0.55093 0.60316 0.0
C1181 C 0.35005 0.57247 0.61382 0.0
C1182 C 0.36605 0.6075 0.61522 0.0
C1183 C 0.39326 0.61974 0.60658 0.0
H1184 H 0.89672 0.03767 0.05259 0.0
H1185 H 0.88633 0.98456 0.08978 0.0
H1186 H 0.91112 0.97834 0.0426 0.0
H1187 H 0.89768 0.92522 0.07967 0.0
H1188 H 0.01286 0.88443 0.05494 0.0
H1189 H 0.97721 0.94141 0.05387 0.0
H1190 H 0.87685 0.8797 0.05796 0.0
H1191 H 0.91185 0.82293 0.05874 0.0
C1192 C 0.89568 0.01314 0.05849 0.0
C1193 C 0.89125 0.01542 0.07197 0.0
C1194 C 0.90382 0.97936 0.05276 0.0
C1195 C 0.90568 0.94768 0.06044 0.0
C1196 C 0.89615 0.94945 0.07359 0.0
C1197 C 0.88951 0.98325 0.07936 0.0
C1198 C 0.98318 0.88294 0.05507 0.0
C1199 C 0.96522 0.8495 0.05736 0.0
C1200 C 0.96279 0.91541 0.05433 0.0
C1201 C 0.92446 0.91453 0.05589 0.0
C1202 C 0.90635 0.8808 0.05668 0.0
C1203 C 0.92656 0.84847 0.05731 0.0
H1204 H 0.46408 0.88448 0.30834 0.0
H1205 H 0.41767 0.99194 0.30146 0.0
H1206 H 0.52533 0.90982 0.30559 0.0
H1207 H 0.47879 0.01716 0.29831 0.0
H1208 H 0.5782 0.04148 0.32693 0.0
H1209 H 0.52066 0.0274 0.31614 0.0
H1210 H 0.57433 0.94148 0.29433 0.0
H1211 H 0.63131 0.95469 0.3055 0.0
C1212 C 0.46697 0.91318 0.30576 0.0
C1213 C 0.43648 0.93649 0.30554 0.0
C1214 C 0.50202 0.92776 0.30405 0.0
C1215 C 0.50681 0.96575 0.30199 0.0
C1216 C 0.4759 0.98801 0.30016 0.0
C1217 C 0.44098 0.97353 0.30201 0.0
C1218 C 0.57795 0.02057 0.31948 0.0
C1219 C 0.60871 -0.0016 0.31733 0.0
C1220 C 0.54505 0.01257 0.31321 0.0
C1221 C 0.54287 0.98258 0.30464 0.0
C1222 C 0.57508 0.96408 0.30113 0.0
C1223 C 0.6077 0.9717 0.30754 0.0
H1224 H 0.60054 0.3087 0.55347 0.0
H1225 H 0.4837 0.29123 0.5572 0.0
H1226 H 0.58868 0.3672 0.54264 0.0
H1227 H 0.47191 0.34958 0.54722 0.0
H1228 H 0.44966 0.46263 0.54253 0.0
H1229 H 0.47034 0.40269 0.53469 0.0
H1230 H 0.57216 0.41653 0.55569 0.0
H1231 H 0.55237 0.47566 0.5629 0.0
C1232 C 0.57241 0.31696 0.55174 0.0
C1233 C 0.54309 0.2967 0.55685 0.0
C1234 C 0.56555 0.35035 0.5455 0.0
C1235 C 0.52941 0.36407 0.54471 0.0
C1236 C 0.50017 0.34057 0.54785 0.0
C1237 C 0.50698 0.3072 0.55388 0.0
C1238 C 0.47667 0.45287 0.54523 0.0
C1239 C 0.49865 0.47294 0.55381 0.0
C1240 C 0.48868 0.41876 0.54067 0.0
C1241 C 0.52256 0.4042 0.5448 0.0
C1242 C 0.54596 0.42644 0.5522 0.0
C1243 C 0.53413 0.46029 0.55666 0.0
H1244 H 0.07605 0.41215 0.79594 0.0
H1245 H 0.06316 0.36633 0.83428 0.0
H1246 H 0.02372 0.37526 0.78843 0.0
H1247 H 0.01175 0.33012 0.82693 0.0
H1248 H 0.93483 0.25726 0.81681 0.0
H1249 H -0.00244 0.27709 0.8124 0.0
H1250 H 0.95634 0.37458 0.79351 0.0
H1251 H 0.89409 0.3542 0.79747 0.0
C1252 C 0.06169 0.3947 0.80277 0.0
C1253 C 0.07344 0.39198 0.81568 0.0
C1254 C 0.03237 0.37314 0.79843 0.0
C1255 C 0.01478 0.34867 0.80696 0.0
C1256 C 0.02583 0.34735 0.81996 0.0
C1257 C 0.05474 0.36875 0.82426 0.0
C1258 C 0.9392 0.2817 0.81101 0.0
C1259 C 0.91 0.30518 0.80801 0.0
C1260 C 0.97507 0.29317 0.80853 0.0
C1261 C 0.98152 0.32825 0.80323 0.0
C1262 C 0.95217 0.3478 0.79785 0.0
C1263 C 0.91643 0.33621 0.80022 0.0
H1264 H 0.07166 0.3178 0.95371 0.0
H1265 H 0.95742 0.33315 0.96357 0.0
H1266 H 0.08427 0.3808 0.95889 0.0
H1267 H 0.97046 0.39673 0.96954 0.0
H1268 H 0.99098 0.49612 0.94187 0.0
H1269 H 0.97795 0.44029 0.95323 0.0
H1270 H 0.0887 0.4387 0.96834 0.0
H1271 H 0.10229 0.495 0.95628 0.0
C1272 C 0.04933 0.33452 0.95735 0.0
C1273 C 0.01311 0.32137 0.9575 0.0
C1274 C 0.05676 0.37071 0.96062 0.0
C1275 C 0.02804 0.39445 0.96411 0.0
C1276 C 0.99292 0.37945 0.96637 0.0
C1277 C 0.98537 0.34312 0.96293 0.0
C1278 C 0.01261 0.48422 0.94771 0.0
C1279 C 0.04824 0.4989 0.94767 0.0
C1280 C 0.00482 0.45238 0.95454 0.0
C1281 C 0.03253 0.43426 0.9615 0.0
C1282 C 0.06701 0.45147 0.96277 0.0
C1283 C 0.0749 0.48353 0.95582 0.0
H1284 H 0.08183 0.77852 0.17791 0.0
H1285 H 0.1413 0.85541 0.20178 0.0
H1286 H 0.02478 0.79743 0.1882 0.0
H1287 H 0.08448 0.87385 0.21222 0.0
H1288 H 0.98029 0.94307 0.1985 0.0
H1289 H 0.03921 0.91186 0.20045 0.0
H1290 H 0.9834 0.80858 0.20667 0.0
H1291 H 0.92472 0.83954 0.20447 0.0
C1292 C 0.08292 0.79819 0.18576 0.0
C1293 C 0.11568 0.81629 0.18879 0.0
C1294 C 0.05027 0.80901 0.1917 0.0
C1295 C 0.05023 0.83784 0.20078 0.0
C1296 C 0.08373 0.85218 0.20505 0.0
C1297 C 0.11623 0.84153 0.19907 0.0
C1298 C 0.98067 0.91396 0.20068 0.0
C1299 C 0.94812 0.89358 0.20097 0.0
C1300 C 0.01436 0.89605 0.2019 0.0
C1301 C 0.01575 0.85762 0.20351 0.0
C1302 C 0.98305 0.83805 0.20522 0.0
C1303 C 0.94951 0.85586 0.20393 0.0
H1304 H 0.36853 0.81519 0.44683 0.0
H1305 H 0.48578 0.79793 0.44813 0.0
H1306 H 0.37663 0.8745 0.45747 0.0
H1307 H 0.49411 0.85708 0.45793 0.0
H1308 H 0.51307 0.97133 0.46374 0.0
H1309 H 0.4911 0.91053 0.47028 0.0
H1310 H 0.39765 0.92329 0.44483 0.0
H1311 H 0.4185 0.98323 0.43885 0.0
C1312 C 0.39585 0.82365 0.44966 0.0
C1313 C 0.4267 0.80313 0.44601 0.0
C1314 C 0.40057 0.85754 0.45576 0.0
C1315 C 0.43617 0.87143 0.45792 0.0
C1316 C 0.46629 0.84788 0.45624 0.0
C1317 C 0.46156 0.81402 0.45033 0.0
C1318 C 0.48756 0.96113 0.45975 0.0
C1319 C 0.4683 0.98137 0.45041 0.0
C1320 C 0.4748 0.92651 0.46356 0.0
C1321 C 0.4429 0.91158 0.45793 0.0
C1322 C 0.42209 0.9336 0.44952 0.0
C1323 C 0.43462 0.96796 0.44582 0.0
H1324 H 0.58553 0.46243 0.70906 0.0
H1325 H 0.5404 0.35739 0.69806 0.0
H1326 H 0.52518 0.48321 0.71578 0.0
H1327 H 0.47962 0.37862 0.70422 0.0
H1328 H 0.42149 0.51661 0.69057 0.0
H1329 H 0.48038 0.49997 0.69982 0.0
H1330 H 0.43149 0.40384 0.71744 0.0
H1331 H 0.37305 0.41978 0.7077 0.0
C1332 C 0.56282 0.44339 0.70842 0.0
C1333 C 0.56721 0.40869 0.70269 0.0
C1334 C 0.52828 0.45534 0.71228 0.0
C1335 C 0.49752 0.43308 0.71016 0.0
C1336 C 0.50275 0.39658 0.70599 0.0
C1337 C 0.53753 0.38438 0.70234 0.0
C1338 C 0.42308 0.49272 0.69681 0.0
C1339 C 0.39323 0.46883 0.69806 0.0
C1340 C 0.45678 0.48322 0.70223 0.0
C1341 C 0.46074 0.4499 0.70907 0.0
C1342 C 0.42942 0.4291 0.71193 0.0
C1343 C 0.39596 0.43829 0.70634 0.0
loop_
_geom_bond_atom_site_label_1
_geom_bond_atom_site_label_2
_geom_bond_distance
_geom_bond_site_symmetry_2
_ccdc_geom_bond_type
Co0 O3 1.970 1_455 S
Co0 N17 1.989 . S
Co0 O25 1.967 . S
Co0 O32 1.920 . S
Co1 O4 1.966 1_455 S
Co1 N10 2.022 . S
Co1 N18 1.993 . S
Co1 O26 1.941 . S
C2 O3 1.258 . S
C2 O4 1.263 . S
O3 Co0 1.970 1_655 S
O3 C2 1.258 . S
O4 Co1 1.966 1_655 S
O4 C2 1.263 . S
C5 O6 1.235 . S
C5 O32 1.289 1_655 S
O6 C5 1.235 . S
C7 C9 1.400 . S
C7 N10 1.351 1_655 S
C7 C12 1.501 . S
C8 C9 1.387 1_455 S
C8 N11 1.341 . S
C9 C7 1.400 . S
C9 C8 1.387 1_655 S
N10 Co1 2.022 . S
N10 C7 1.351 1_455 S
N10 N11 1.365 . S
N11 C8 1.341 . S
N11 N10 1.365 . S
N11 H31 0.862 . S
C12 C7 1.501 . S
C12 H13 0.961 . S
C12 H14 0.961 . S
C12 H15 0.960 . S
H13 C12 0.961 . S
H14 C12 0.961 . S
H15 C12 0.960 . S
C16 N17 1.342 . S
C16 C20 1.401 . S
C16 C21 1.499 . S
N17 Co0 1.989 . S
N17 C16 1.342 . S
N17 N18 1.388 . S
N18 Co1 1.993 . S
N18 N17 1.388 . S
N18 C19 1.346 . S
C19 N18 1.346 . S
C19 C20 1.396 . S
C19 C29 1.510 . S
C20 C16 1.401 . S
C20 C19 1.396 . S
C21 C16 1.499 . S
C21 H22 0.959 . S
C21 H23 0.953 1_455 S
C21 H24 0.961 . S
H22 C21 0.959 . S
H23 C21 0.953 1_655 S
H24 C21 0.961 . S
O25 Co0 1.967 . S
O25 C33 1.258 . S
O26 Co1 1.941 . S
O26 C33 1.266 . S
H27 C29 0.959 . S
H28 C29 0.961 1_655 S
C29 C19 1.510 . S
C29 H27 0.959 . S
C29 H28 0.961 1_455 S
C29 H30 0.960 . S
H30 C29 0.960 . S
H31 N11 0.862 . S
O32 Co0 1.920 . S
O32 C5 1.289 1_455 S
C33 O25 1.258 . S
C33 O26 1.266 . S
Co34 O37 1.970 . S
Co34 N51 1.989 . S
Co34 O59 1.967 . S
Co34 O66 1.920 . S
Co35 O38 1.966 . S
Co35 N44 2.022 . S
Co35 N52 1.993 . S
Co35 O60 1.941 . S
C36 O37 1.258 . S
C36 O38 1.263 . S
O37 Co34 1.970 . S
O37 C36 1.258 . S
O38 Co35 1.966 . S
O38 C36 1.263 . S
C39 O40 1.235 . S
C39 O66 1.289 . S
O40 C39 1.235 . S
C41 C43 1.400 . S
C41 N44 1.351 . S
C41 C46 1.501 . S
C42 C43 1.387 . S
C42 N45 1.341 . S
C43 C41 1.400 . S
C43 C42 1.387 . S
N44 Co35 2.022 . S
N44 C41 1.351 . S
N44 N45 1.365 . S
N45 C42 1.341 . S
N45 N44 1.365 . S
N45 H65 0.862 . S
C46 C41 1.501 . S
C46 H47 0.961 . S
C46 H48 0.961 . S
C46 H49 0.960 . S
H47 C46 0.961 . S
H48 C46 0.961 . S
H49 C46 0.960 . S
C50 N51 1.342 . S
C50 C54 1.401 . S
C50 C55 1.499 . S
N51 Co34 1.989 . S
N51 C50 1.342 . S
N51 N52 1.388 . S
N52 Co35 1.993 . S
N52 N51 1.388 . S
N52 C53 1.346 . S
C53 N52 1.346 . S
C53 C54 1.396 . S
C53 C63 1.510 . S
C54 C50 1.401 . S
C54 C53 1.396 . S
C55 C50 1.499 . S
C55 H56 0.959 . S
C55 H57 0.960 . S
C55 H58 0.961 . S
H56 C55 0.959 . S
H57 C55 0.960 . S
H58 C55 0.961 . S
O59 Co34 1.967 . S
O59 C67 1.258 . S
O60 Co35 1.941 . S
O60 C67 1.266 . S
H61 C63 0.959 . S
H62 C63 0.961 . S
C63 C53 1.510 . S
C63 H61 0.959 . S
C63 H62 0.961 . S
C63 H64 0.960 . S
H64 C63 0.960 . S
H65 N45 0.862 . S
O66 Co34 1.920 . S
O66 C39 1.289 . S
C67 O59 1.258 . S
C67 O60 1.266 . S
Co68 O71 1.970 . S
Co68 N85 1.989 . S
Co68 O93 1.967 . S
Co68 O100 1.920 . S
Co69 O72 1.966 . S
Co69 N78 2.022 . S
Co69 N86 1.993 . S
Co69 O94 1.941 . S
C70 O71 1.258 . S
C70 O72 1.263 . S
O71 Co68 1.970 . S
O71 C70 1.258 . S
O72 Co69 1.966 . S
O72 C70 1.263 . S
C73 O74 1.235 . S
C73 O100 1.289 . S
O74 C73 1.235 . S
C75 C77 1.400 . S
C75 N78 1.351 . S
C75 C80 1.501 . S
C76 C77 1.387 . S
C76 N79 1.341 . S
C77 C75 1.400 . S
C77 C76 1.387 . S
N78 Co69 2.022 . S
N78 C75 1.351 . S
N78 N79 1.365 . S
N79 C76 1.341 . S
N79 N78 1.365 . S
N79 H99 0.862 . S
C80 C75 1.501 . S
C80 H81 0.961 . S
C80 H82 0.961 . S
C80 H83 0.960 . S
H81 C80 0.961 . S
H82 C80 0.961 . S
H83 C80 0.960 . S
C84 N85 1.342 . S
C84 C88 1.401 . S
C84 C89 1.499 . S
N85 Co68 1.989 . S
N85 C84 1.342 . S
N85 N86 1.388 . S
N86 Co69 1.993 . S
N86 N85 1.388 . S
N86 C87 1.346 . S
C87 N86 1.346 . S
C87 C88 1.396 . S
C87 C97 1.510 . S
C88 C84 1.401 . S
C88 C87 1.396 . S
C89 C84 1.499 . S
C89 H90 0.959 . S
C89 H91 0.960 . S
C89 H92 0.961 . S
H90 C89 0.959 . S
H91 C89 0.960 . S
H92 C89 0.961 . S
O93 Co68 1.967 . S
O93 C101 1.258 . S
O94 Co69 1.941 . S
O94 C101 1.266 . S
H95 C97 0.959 . S
H96 C97 0.961 . S
C97 C87 1.510 . S
C97 H95 0.959 . S
C97 H96 0.961 . S
C97 H98 0.960 . S
H98 C97 0.960 . S
H99 N79 0.862 . S
O100 Co68 1.920 . S
O100 C73 1.289 . S
C101 O93 1.258 . S
C101 O94 1.266 . S
Co102 O105 1.970 . S
Co102 N119 1.989 . S
Co102 O127 1.967 . S
Co102 O134 1.920 . S
Co103 O106 1.966 . S
Co103 N112 2.022 . S
Co103 N120 1.993 . S
Co103 O128 1.941 . S
C104 O105 1.258 . S
C104 O106 1.263 . S
O105 Co102 1.970 . S
O105 C104 1.258 . S
O106 Co103 1.966 . S
O106 C104 1.263 . S
C107 O108 1.235 . S
C107 O134 1.289 . S
O108 C107 1.235 . S
C109 C111 1.400 . S
C109 N112 1.351 . S
C109 C114 1.501 . S
C110 C111 1.387 . S
C110 N113 1.341 . S
C111 C109 1.400 . S
C111 C110 1.387 . S
N112 Co103 2.022 . S
N112 C109 1.351 . S
N112 N113 1.365 . S
N113 C110 1.341 . S
N113 N112 1.365 . S
N113 H133 0.862 . S
C114 C109 1.501 . S
C114 H115 0.961 . S
C114 H116 0.961 . S
C114 H117 0.960 . S
H115 C114 0.961 . S
H116 C114 0.961 . S
H117 C114 0.960 . S
C118 N119 1.342 . S
C118 C122 1.401 . S
C118 C123 1.499 . S
N119 Co102 1.989 . S
N119 C118 1.342 . S
N119 N120 1.388 . S
N120 Co103 1.993 . S
N120 N119 1.388 . S
N120 C121 1.346 . S
C121 N120 1.346 . S
C121 C122 1.396 . S
C121 C131 1.510 . S
C122 C118 1.401 . S
C122 C121 1.396 . S
C123 C118 1.499 . S
C123 H124 0.959 . S
C123 H125 0.960 . S
C123 H126 0.961 . S
H124 C123 0.959 . S
H125 C123 0.960 . S
H126 C123 0.961 . S
O127 Co102 1.967 . S
O127 C135 1.258 . S
O128 Co103 1.941 . S
O128 C135 1.266 . S
H129 C131 0.959 . S
H130 C131 0.961 . S
C131 C121 1.510 . S
C131 H129 0.959 . S
C131 H130 0.961 . S
C131 H132 0.960 . S
H132 C131 0.960 . S
H133 N113 0.862 . S
O134 Co102 1.920 . S
O134 C107 1.289 . S
C135 O127 1.258 . S
C135 O128 1.266 . S
Co136 O139 1.970 1_455 S
Co136 N153 1.989 . S
Co136 O161 1.967 . S
Co136 O168 1.920 . S
Co137 O140 1.966 1_455 S
Co137 N146 2.022 . S
Co137 N154 1.993 . S
Co137 O162 1.941 . S
C138 O139 1.258 . S
C138 O140 1.263 . S
O139 Co136 1.970 1_655 S
O139 C138 1.258 . S
O140 Co137 1.966 1_655 S
O140 C138 1.263 . S
C141 O142 1.235 . S
C141 O168 1.289 1_655 S
O142 C141 1.235 . S
C143 C145 1.400 . S
C143 N146 1.351 1_655 S
C143 C148 1.501 . S
C144 C145 1.387 1_455 S
C144 N147 1.341 . S
C145 C143 1.400 . S
C145 C144 1.387 1_655 S
N146 Co137 2.022 . S
N146 C143 1.351 1_455 S
N146 N147 1.365 . S
N147 C144 1.341 . S
N147 N146 1.365 . S
N147 H167 0.862 . S
C148 C143 1.501 . S
C148 H149 0.961 . S
C148 H150 0.961 . S
C148 H151 0.960 . S
H149 C148 0.961 . S
H150 C148 0.961 . S
H151 C148 0.960 . S
C152 N153 1.342 . S
C152 C156 1.401 . S
C152 C157 1.499 . S
N153 Co136 1.989 . S
N153 C152 1.342 . S
N153 N154 1.388 . S
N154 Co137 1.993 . S
N154 N153 1.388 . S
N154 C155 1.346 . S
C155 N154 1.346 . S
C155 C156 1.396 . S
C155 C165 1.510 . S
C156 C152 1.401 . S
C156 C155 1.396 . S
C157 C152 1.499 . S
C157 H158 0.959 . S
C157 H159 0.953 1_455 S
C157 H160 0.961 . S
H158 C157 0.959 . S
H159 C157 0.953 1_655 S
H160 C157 0.961 . S
O161 Co136 1.967 . S
O161 C169 1.258 . S
O162 Co137 1.941 . S
O162 C169 1.266 . S
H163 C165 0.959 . S
H164 C165 0.961 1_655 S
C165 C155 1.510 . S
C165 H163 0.959 . S
C165 H164 0.961 1_455 S
C165 H166 0.960 . S
H166 C165 0.960 . S
H167 N147 0.862 . S
O168 Co136 1.920 . S
O168 C141 1.289 1_455 S
C169 O161 1.258 . S
C169 O162 1.266 . S
Co170 O173 1.970 . S
Co170 N187 1.989 . S
Co170 O195 1.967 . S
Co170 O202 1.920 . S
Co171 O174 1.966 . S
Co171 N180 2.022 . S
Co171 N188 1.993 . S
Co171 O196 1.941 . S
C172 O173 1.258 . S
C172 O174 1.263 . S
O173 Co170 1.970 . S
O173 C172 1.258 . S
O174 Co171 1.966 . S
O174 C172 1.263 . S
C175 O176 1.235 . S
C175 O202 1.289 . S
O176 C175 1.235 . S
C177 C179 1.400 . S
C177 N180 1.351 . S
C177 C182 1.501 . S
C178 C179 1.387 . S
C178 N181 1.341 . S
C179 C177 1.400 . S
C179 C178 1.387 . S
N180 Co171 2.022 . S
N180 C177 1.351 . S
N180 N181 1.365 . S
N181 C178 1.341 . S
N181 N180 1.365 . S
N181 H201 0.862 . S
C182 C177 1.501 . S
C182 H183 0.961 . S
C182 H184 0.961 . S
C182 H185 0.960 . S
H183 C182 0.961 . S
H184 C182 0.961 . S
H185 C182 0.960 . S
C186 N187 1.342 . S
C186 C190 1.401 . S
C186 C191 1.499 . S
N187 Co170 1.989 . S
N187 C186 1.342 . S
N187 N188 1.388 . S
N188 Co171 1.993 . S
N188 N187 1.388 . S
N188 C189 1.346 . S
C189 N188 1.346 . S
C189 C190 1.396 . S
C189 C199 1.510 . S
C190 C186 1.401 . S
C190 C189 1.396 . S
C191 C186 1.499 . S
C191 H192 0.959 . S
C191 H193 0.960 . S
C191 H194 0.961 . S
H192 C191 0.959 . S
H193 C191 0.960 . S
H194 C191 0.961 . S
O195 Co170 1.967 . S
O195 C203 1.258 . S
O196 Co171 1.941 . S
O196 C203 1.266 . S
H197 C199 0.959 . S
H198 C199 0.961 . S
C199 C189 1.510 . S
C199 H197 0.959 . S
C199 H198 0.961 . S
C199 H200 0.960 . S
H200 C199 0.960 . S
H201 N181 0.862 . S
O202 Co170 1.920 . S
O202 C175 1.289 . S
C203 O195 1.258 . S
C203 O196 1.266 . S
Co204 O207 1.970 . S
Co204 N221 1.989 . S
Co204 O229 1.967 . S
Co204 O236 1.920 . S
Co205 O208 1.966 . S
Co205 N214 2.022 . S
Co205 N222 1.993 . S
Co205 O230 1.941 . S
C206 O207 1.258 . S
C206 O208 1.263 . S
O207 Co204 1.970 . S
O207 C206 1.258 . S
O208 Co205 1.966 . S
O208 C206 1.263 . S
C209 O210 1.235 . S
C209 O236 1.289 . S
O210 C209 1.235 . S
C211 C213 1.400 . S
C211 N214 1.351 . S
C211 C216 1.501 . S
C212 C213 1.387 . S
C212 N215 1.341 . S
C213 C211 1.400 . S
C213 C212 1.387 . S
N214 Co205 2.022 . S
N214 C211 1.351 . S
N214 N215 1.365 . S
N215 C212 1.341 . S
N215 N214 1.365 . S
N215 H235 0.862 . S
C216 C211 1.501 . S
C216 H217 0.961 . S
C216 H218 0.961 . S
C216 H219 0.960 . S
H217 C216 0.961 . S
H218 C216 0.961 . S
H219 C216 0.960 . S
C220 N221 1.342 . S
C220 C224 1.401 . S
C220 C225 1.499 . S
N221 Co204 1.989 . S
N221 C220 1.342 . S
N221 N222 1.388 . S
N222 Co205 1.993 . S
N222 N221 1.388 . S
N222 C223 1.346 . S
C223 N222 1.346 . S
C223 C224 1.396 . S
C223 C233 1.510 . S
C224 C220 1.401 . S
C224 C223 1.396 . S
C225 C220 1.499 . S
C225 H226 0.959 . S
C225 H227 0.960 . S
C225 H228 0.961 . S
H226 C225 0.959 . S
H227 C225 0.960 . S
H228 C225 0.961 . S
O229 Co204 1.967 . S
O229 C237 1.258 . S
O230 Co205 1.941 . S
O230 C237 1.266 . S
H231 C233 0.959 . S
H232 C233 0.961 . S
C233 C223 1.510 . S
C233 H231 0.959 . S
C233 H232 0.961 . S
C233 H234 0.960 . S
H234 C233 0.960 . S
H235 N215 0.862 . S
O236 Co204 1.920 . S
O236 C209 1.289 . S
C237 O229 1.258 . S
C237 O230 1.266 . S
Co238 O241 1.970 . S
Co238 N255 1.989 . S
Co238 O263 1.967 . S
Co238 O270 1.920 . S
Co239 O242 1.966 . S
Co239 N248 2.022 . S
Co239 N256 1.993 . S
Co239 O264 1.941 . S
C240 O241 1.258 . S
C240 O242 1.263 . S
O241 Co238 1.970 . S
O241 C240 1.258 . S
O242 Co239 1.966 . S
O242 C240 1.263 . S
C243 O244 1.235 . S
C243 O270 1.289 . S
O244 C243 1.235 . S
C245 C247 1.400 . S
C245 N248 1.351 . S
C245 C250 1.501 . S
C246 C247 1.387 . S
C246 N249 1.341 . S
C247 C245 1.400 . S
C247 C246 1.387 . S
N248 Co239 2.022 . S
N248 C245 1.351 . S
N248 N249 1.365 . S
N249 C246 1.341 . S
N249 N248 1.365 . S
N249 H269 0.862 . S
C250 C245 1.501 . S
C250 H251 0.961 . S
C250 H252 0.961 . S
C250 H253 0.960 . S
H251 C250 0.961 . S
H252 C250 0.961 . S
H253 C250 0.960 . S
C254 N255 1.342 . S
C254 C258 1.401 . S
C254 C259 1.499 . S
N255 Co238 1.989 . S
N255 C254 1.342 . S
N255 N256 1.388 . S
N256 Co239 1.993 . S
N256 N255 1.388 . S
N256 C257 1.346 . S
C257 N256 1.346 . S
C257 C258 1.396 . S
C257 C267 1.510 . S
C258 C254 1.401 . S
C258 C257 1.396 . S
C259 C254 1.499 . S
C259 H260 0.959 . S
C259 H261 0.960 . S
C259 H262 0.961 . S
H260 C259 0.959 . S
H261 C259 0.960 . S
H262 C259 0.961 . S
O263 Co238 1.967 . S
O263 C271 1.258 . S
O264 Co239 1.941 . S
O264 C271 1.266 . S
H265 C267 0.959 . S
H266 C267 0.961 . S
C267 C257 1.510 . S
C267 H265 0.959 . S
C267 H266 0.961 . S
C267 H268 0.960 . S
H268 C267 0.960 . S
H269 N249 0.862 . S
O270 Co238 1.920 . S
O270 C243 1.289 . S
C271 O263 1.258 . S
C271 O264 1.266 . S
Co272 O275 1.970 . S
Co272 N289 1.989 . S
Co272 O297 1.967 . S
Co272 O304 1.920 . S
Co273 O276 1.966 . S
Co273 N282 2.022 . S
Co273 N290 1.993 . S
Co273 O298 1.941 . S
C274 O275 1.258 . S
C274 O276 1.263 . S
O275 Co272 1.970 . S
O275 C274 1.258 . S
O276 Co273 1.966 . S
O276 C274 1.263 . S
C277 O278 1.235 . S
C277 O304 1.289 . S
O278 C277 1.235 . S
C279 C281 1.400 . S
C279 N282 1.351 . S
C279 C284 1.501 . S
C280 C281 1.387 . S
C280 N283 1.341 . S
C281 C279 1.400 . S
C281 C280 1.387 . S
N282 Co273 2.022 . S
N282 C279 1.351 . S
N282 N283 1.365 . S
N283 C280 1.341 . S
N283 N282 1.365 . S
N283 H303 0.862 . S
C284 C279 1.501 . S
C284 H285 0.961 . S
C284 H286 0.961 . S
C284 H287 0.960 . S
H285 C284 0.961 . S
H286 C284 0.961 . S
H287 C284 0.960 . S
C288 N289 1.342 . S
C288 C292 1.401 . S
C288 C293 1.499 . S
N289 Co272 1.989 . S
N289 C288 1.342 . S
N289 N290 1.388 . S
N290 Co273 1.993 . S
N290 N289 1.388 . S
N290 C291 1.346 . S
C291 N290 1.346 . S
C291 C292 1.396 . S
C291 C301 1.510 . S
C292 C288 1.401 . S
C292 C291 1.396 . S
C293 C288 1.499 . S
C293 H294 0.959 . S
C293 H295 0.960 . S
C293 H296 0.961 . S
H294 C293 0.959 . S
H295 C293 0.960 . S
H296 C293 0.961 . S
O297 Co272 1.967 . S
O297 C305 1.258 . S
O298 Co273 1.941 . S
O298 C305 1.266 . S
H299 C301 0.959 . S
H300 C301 0.961 . S
C301 C291 1.510 . S
C301 H299 0.959 . S
C301 H300 0.961 . S
C301 H302 0.960 . S
H302 C301 0.960 . S
H303 N283 0.862 . S
O304 Co272 1.920 . S
O304 C277 1.289 . S
C305 O297 1.258 . S
C305 O298 1.266 . S
Co306 O309 1.970 . S
Co306 N323 1.989 . S
Co306 O331 1.967 . S
Co306 O338 1.920 . S
Co307 O310 1.966 . S
Co307 N316 2.022 . S
Co307 N324 1.993 . S
Co307 O332 1.941 . S
C308 O309 1.258 . S
C308 O310 1.263 . S
O309 Co306 1.970 . S
O309 C308 1.258 . S
O310 Co307 1.966 . S
O310 C308 1.263 . S
C311 O312 1.235 . S
C311 O338 1.289 . S
O312 C311 1.235 . S
C313 C315 1.400 . S
C313 N316 1.351 . S
C313 C318 1.501 . S
C314 C315 1.387 . S
C314 N317 1.341 . S
C315 C313 1.400 . S
C315 C314 1.387 . S
N316 Co307 2.022 . S
N316 C313 1.351 . S
N316 N317 1.365 . S
N317 C314 1.341 . S
N317 N316 1.365 . S
N317 H337 0.862 . S
C318 C313 1.501 . S
C318 H319 0.961 . S
C318 H320 0.961 . S
C318 H321 0.960 . S
H319 C318 0.961 . S
H320 C318 0.961 . S
H321 C318 0.960 . S
C322 N323 1.342 . S
C322 C326 1.401 . S
C322 C327 1.499 . S
N323 Co306 1.989 . S
N323 C322 1.342 . S
N323 N324 1.388 . S
N324 Co307 1.993 . S
N324 N323 1.388 . S
N324 C325 1.346 . S
C325 N324 1.346 . S
C325 C326 1.396 . S
C325 C335 1.510 . S
C326 C322 1.401 . S
C326 C325 1.396 . S
C327 C322 1.499 . S
C327 H328 0.959 . S
C327 H329 0.960 . S
C327 H330 0.961 . S
H328 C327 0.959 . S
H329 C327 0.960 . S
H330 C327 0.961 . S
O331 Co306 1.967 . S
O331 C339 1.258 . S
O332 Co307 1.941 . S
O332 C339 1.266 . S
H333 C335 0.959 . S
H334 C335 0.961 . S
C335 C325 1.510 . S
C335 H333 0.959 . S
C335 H334 0.961 . S
C335 H336 0.960 . S
H336 C335 0.960 . S
H337 N317 0.862 . S
O338 Co306 1.920 . S
O338 C311 1.289 . S
C339 O331 1.258 . S
C339 O332 1.266 . S
Co340 O343 1.970 . S
Co340 N357 1.989 . S
Co340 O365 1.967 . S
Co340 O372 1.920 . S
Co341 O344 1.966 . S
Co341 N350 2.022 . S
Co341 N358 1.993 . S
Co341 O366 1.941 . S
C342 O343 1.258 . S
C342 O344 1.263 . S
O343 Co340 1.970 . S
O343 C342 1.258 . S
O344 Co341 1.966 . S
O344 C342 1.263 . S
C345 O346 1.235 . S
C345 O372 1.289 . S
O346 C345 1.235 . S
C347 C349 1.400 . S
C347 N350 1.351 . S
C347 C352 1.501 . S
C348 C349 1.387 . S
C348 N351 1.341 . S
C349 C347 1.400 . S
C349 C348 1.387 . S
N350 Co341 2.022 . S
N350 C347 1.351 . S
N350 N351 1.365 . S
N351 C348 1.341 . S
N351 N350 1.365 . S
N351 H371 0.862 . S
C352 C347 1.501 . S
C352 H353 0.961 . S
C352 H354 0.961 . S
C352 H355 0.960 . S
H353 C352 0.961 . S
H354 C352 0.961 . S
H355 C352 0.960 . S
C356 N357 1.342 . S
C356 C360 1.401 . S
C356 C361 1.499 . S
N357 Co340 1.989 . S
N357 C356 1.342 . S
N357 N358 1.388 . S
N358 Co341 1.993 . S
N358 N357 1.388 . S
N358 C359 1.346 . S
C359 N358 1.346 . S
C359 C360 1.396 . S
C359 C369 1.510 . S
C360 C356 1.401 . S
C360 C359 1.396 . S
C361 C356 1.499 . S
C361 H362 0.959 . S
C361 H363 0.960 . S
C361 H364 0.961 . S
H362 C361 0.959 . S
H363 C361 0.960 . S
H364 C361 0.961 . S
O365 Co340 1.967 . S
O365 C373 1.258 . S
O366 Co341 1.941 . S
O366 C373 1.266 . S
H367 C369 0.959 . S
H368 C369 0.961 . S
C369 C359 1.510 . S
C369 H367 0.959 . S
C369 H368 0.961 . S
C369 H370 0.960 . S
H370 C369 0.960 . S
H371 N351 0.862 . S
O372 Co340 1.920 . S
O372 C345 1.289 . S
C373 O365 1.258 . S
C373 O366 1.266 . S
Co374 O377 1.970 . S
Co374 N391 1.989 . S
Co374 O399 1.967 . S
Co374 O406 1.920 . S
Co375 O378 1.966 . S
Co375 N384 2.022 . S
Co375 N392 1.993 . S
Co375 O400 1.941 . S
C376 O377 1.258 . S
C376 O378 1.263 . S
O377 Co374 1.970 . S
O377 C376 1.258 . S
O378 Co375 1.966 . S
O378 C376 1.263 . S
C379 O380 1.235 . S
C379 O406 1.289 . S
O380 C379 1.235 . S
C381 C383 1.400 . S
C381 N384 1.351 . S
C381 C386 1.501 . S
C382 C383 1.387 . S
C382 N385 1.341 . S
C383 C381 1.400 . S
C383 C382 1.387 . S
N384 Co375 2.022 . S
N384 C381 1.351 . S
N384 N385 1.365 . S
N385 C382 1.341 . S
N385 N384 1.365 . S
N385 H405 0.862 . S
C386 C381 1.501 . S
C386 H387 0.961 . S
C386 H388 0.961 . S
C386 H389 0.960 . S
H387 C386 0.961 . S
H388 C386 0.961 . S
H389 C386 0.960 . S
C390 N391 1.342 . S
C390 C394 1.401 . S
C390 C395 1.499 . S
N391 Co374 1.989 . S
N391 C390 1.342 . S
N391 N392 1.388 . S
N392 Co375 1.993 . S
N392 N391 1.388 . S
N392 C393 1.346 . S
C393 N392 1.346 . S
C393 C394 1.396 . S
C393 C403 1.510 . S
C394 C390 1.401 . S
C394 C393 1.396 . S
C395 C390 1.499 . S
C395 H396 0.959 . S
C395 H397 0.960 . S
C395 H398 0.961 . S
H396 C395 0.959 . S
H397 C395 0.960 . S
H398 C395 0.961 . S
O399 Co374 1.967 . S
O399 C407 1.258 . S
O400 Co375 1.941 . S
O400 C407 1.266 . S
H401 C403 0.959 . S
H402 C403 0.961 . S
C403 C393 1.510 . S
C403 H401 0.959 . S
C403 H402 0.961 . S
C403 H404 0.960 . S
H404 C403 0.960 . S
H405 N385 0.862 . S
O406 Co374 1.920 . S
O406 C379 1.289 . S
C407 O399 1.258 . S
C407 O400 1.266 . S
Co408 O411 1.970 . S
Co408 N425 1.989 . S
Co408 O433 1.967 . S
Co408 O440 1.920 . S
Co409 O412 1.966 . S
Co409 N418 2.022 . S
Co409 N426 1.993 . S
Co409 O434 1.941 . S
C410 O411 1.258 . S
C410 O412 1.263 . S
O411 Co408 1.970 . S
O411 C410 1.258 . S
O412 Co409 1.966 . S
O412 C410 1.263 . S
C413 O414 1.235 . S
C413 O440 1.289 . S
O414 C413 1.235 . S
C415 C417 1.400 . S
C415 N418 1.351 . S
C415 C420 1.501 . S
C416 C417 1.387 . S
C416 N419 1.341 . S
C417 C415 1.400 . S
C417 C416 1.387 . S
N418 Co409 2.022 . S
N418 C415 1.351 . S
N418 N419 1.365 . S
N419 C416 1.341 . S
N419 N418 1.365 . S
N419 H439 0.862 . S
C420 C415 1.501 . S
C420 H421 0.961 . S
C420 H422 0.961 . S
C420 H423 0.960 . S
H421 C420 0.961 . S
H422 C420 0.961 . S
H423 C420 0.960 . S
C424 N425 1.342 . S
C424 C428 1.401 . S
C424 C429 1.499 . S
N425 Co408 1.989 . S
N425 C424 1.342 . S
N425 N426 1.388 . S
N426 Co409 1.993 . S
N426 N425 1.388 . S
N426 C427 1.346 . S
C427 N426 1.346 . S
C427 C428 1.396 . S
C427 C437 1.510 . S
C428 C424 1.401 . S
C428 C427 1.396 . S
C429 C424 1.499 . S
C429 H430 0.959 . S
C429 H431 0.960 . S
C429 H432 0.961 . S
H430 C429 0.959 . S
H431 C429 0.960 . S
H432 C429 0.961 . S
O433 Co408 1.967 . S
O433 C441 1.258 . S
O434 Co409 1.941 . S
O434 C441 1.266 . S
H435 C437 0.959 . S
H436 C437 0.961 . S
C437 C427 1.510 . S
C437 H435 0.959 . S
C437 H436 0.961 . S
C437 H438 0.960 . S
H438 C437 0.960 . S
H439 N419 0.862 . S
O440 Co408 1.920 . S
O440 C413 1.289 . S
C441 O433 1.258 . S
C441 O434 1.266 . S
Co442 O445 1.970 . S
Co442 N459 1.989 1_455 S
Co442 O467 1.967 1_455 S
Co442 O474 1.920 1_455 S
Co443 O446 1.966 1_655 S
Co443 N452 2.022 . S
Co443 N460 1.993 . S
Co443 O468 1.941 . S
C444 O445 1.258 . S
C444 O446 1.263 . S
O445 Co442 1.970 . S
O445 C444 1.258 . S
O446 Co443 1.966 1_455 S
O446 C444 1.263 . S
C447 O448 1.235 . S
C447 O474 1.289 1_455 S
O448 C447 1.235 . S
C449 C451 1.400 . S
C449 N452 1.351 1_455 S
C449 C454 1.501 . S
C450 C451 1.387 1_655 S
C450 N453 1.341 . S
C451 C449 1.400 . S
C451 C450 1.387 1_455 S
N452 Co443 2.022 . S
N452 C449 1.351 1_655 S
N452 N453 1.365 . S
N453 C450 1.341 . S
N453 N452 1.365 . S
N453 H473 0.862 . S
C454 C449 1.501 . S
C454 H455 0.961 . S
C454 H456 0.961 . S
C454 H457 0.960 . S
H455 C454 0.961 . S
H456 C454 0.961 . S
H457 C454 0.960 . S
C458 N459 1.342 . S
C458 C462 1.401 . S
C458 C463 1.499 . S
N459 Co442 1.989 1_655 S
N459 C458 1.342 . S
N459 N460 1.388 . S
N460 Co443 1.993 . S
N460 N459 1.388 . S
N460 C461 1.346 . S
C461 N460 1.346 . S
C461 C462 1.396 . S
C461 C471 1.510 . S
C462 C458 1.401 . S
C462 C461 1.396 . S
C463 C458 1.499 . S
C463 H464 0.959 . S
C463 H465 0.960 1_655 S
C463 H466 0.961 . S
H464 C463 0.959 . S
H465 C463 0.960 1_455 S
H466 C463 0.961 . S
O467 Co442 1.967 1_655 S
O467 C475 1.258 . S
O468 Co443 1.941 . S
O468 C475 1.266 . S
H469 C471 0.959 . S
H470 C471 0.961 1_455 S
C471 C461 1.510 . S
C471 H469 0.959 . S
C471 H470 0.961 1_655 S
C471 H472 0.960 . S
H472 C471 0.960 . S
H473 N453 0.862 . S
O474 Co442 1.920 1_655 S
O474 C447 1.289 1_655 S
C475 O467 1.258 . S
C475 O468 1.266 . S
Co476 O479 1.970 . S
Co476 N493 1.989 . S
Co476 O501 1.967 . S
Co476 O508 1.920 . S
Co477 O480 1.966 . S
Co477 N486 2.022 . S
Co477 N494 1.993 . S
Co477 O502 1.941 . S
C478 O479 1.258 . S
C478 O480 1.263 . S
O479 Co476 1.970 . S
O479 C478 1.258 . S
O480 Co477 1.966 . S
O480 C478 1.263 . S
C481 O482 1.235 . S
C481 O508 1.289 . S
O482 C481 1.235 . S
C483 C485 1.400 . S
C483 N486 1.351 . S
C483 C488 1.501 . S
C484 C485 1.387 . S
C484 N487 1.341 . S
C485 C483 1.400 . S
C485 C484 1.387 . S
N486 Co477 2.022 . S
N486 C483 1.351 . S
N486 N487 1.365 . S
N487 C484 1.341 . S
N487 N486 1.365 . S
N487 H507 0.862 . S
C488 C483 1.501 . S
C488 H489 0.961 . S
C488 H490 0.961 . S
C488 H491 0.960 . S
H489 C488 0.961 . S
H490 C488 0.961 . S
H491 C488 0.960 . S
C492 N493 1.342 . S
C492 C496 1.401 . S
C492 C497 1.499 . S
N493 Co476 1.989 . S
N493 C492 1.342 . S
N493 N494 1.388 . S
N494 Co477 1.993 . S
N494 N493 1.388 . S
N494 C495 1.346 . S
C495 N494 1.346 . S
C495 C496 1.396 . S
C495 C505 1.510 . S
C496 C492 1.401 . S
C496 C495 1.396 . S
C497 C492 1.499 . S
C497 H498 0.959 . S
C497 H499 0.960 . S
C497 H500 0.961 . S
H498 C497 0.959 . S
H499 C497 0.960 . S
H500 C497 0.961 . S
O501 Co476 1.967 . S
O501 C509 1.258 . S
O502 Co477 1.941 . S
O502 C509 1.266 . S
H503 C505 0.959 . S
H504 C505 0.961 . S
C505 C495 1.510 . S
C505 H503 0.959 . S
C505 H504 0.961 . S
C505 H506 0.960 . S
H506 C505 0.960 . S
H507 N487 0.862 . S
O508 Co476 1.920 . S
O508 C481 1.289 . S
C509 O501 1.258 . S
C509 O502 1.266 . S
Co510 O513 1.970 . S
Co510 N527 1.989 1_455 S
Co510 O535 1.967 1_455 S
Co510 O542 1.920 1_455 S
Co511 O514 1.966 1_655 S
Co511 N520 2.022 . S
Co511 N528 1.993 . S
Co511 O536 1.941 . S
C512 O513 1.258 . S
C512 O514 1.263 . S
O513 Co510 1.970 . S
O513 C512 1.258 . S
O514 Co511 1.966 1_455 S
O514 C512 1.263 . S
C515 O516 1.235 . S
C515 O542 1.289 1_455 S
O516 C515 1.235 . S
C517 C519 1.400 . S
C517 N520 1.351 1_455 S
C517 C522 1.501 . S
C518 C519 1.387 1_655 S
C518 N521 1.341 . S
C519 C517 1.400 . S
C519 C518 1.387 1_455 S
N520 Co511 2.022 . S
N520 C517 1.351 1_655 S
N520 N521 1.365 . S
N521 C518 1.341 . S
N521 N520 1.365 . S
N521 H541 0.862 . S
C522 C517 1.501 . S
C522 H523 0.961 . S
C522 H524 0.961 . S
C522 H525 0.960 . S
H523 C522 0.961 . S
H524 C522 0.961 . S
H525 C522 0.960 . S
C526 N527 1.342 . S
C526 C530 1.401 . S
C526 C531 1.499 . S
N527 Co510 1.989 1_655 S
N527 C526 1.342 . S
N527 N528 1.388 . S
N528 Co511 1.993 . S
N528 N527 1.388 . S
N528 C529 1.346 . S
C529 N528 1.346 . S
C529 C530 1.396 . S
C529 C539 1.510 . S
C530 C526 1.401 . S
C530 C529 1.396 . S
C531 C526 1.499 . S
C531 H532 0.959 . S
C531 H533 0.960 1_655 S
C531 H534 0.961 . S
H532 C531 0.959 . S
H533 C531 0.960 1_455 S
H534 C531 0.961 . S
O535 Co510 1.967 1_655 S
O535 C543 1.258 . S
O536 Co511 1.941 . S
O536 C543 1.266 . S
H537 C539 0.959 . S
H538 C539 0.961 1_455 S
C539 C529 1.510 . S
C539 H537 0.959 . S
C539 H538 0.961 1_655 S
C539 H540 0.960 . S
H540 C539 0.960 . S
H541 N521 0.862 . S
O542 Co510 1.920 1_655 S
O542 C515 1.289 1_655 S
C543 O535 1.258 . S
C543 O536 1.266 . S
H544 C552 0.950 . S
H545 C557 0.950 . S
H546 C554 0.950 . S
H547 C556 0.950 . S
H548 C558 0.950 . S
H549 C560 0.950 . S
H550 C562 0.950 . S
H551 C563 0.950 . S
C552 H544 0.950 . S
C552 C553 1.386 . S
C552 C554 1.391 . S
C553 C552 1.386 . S
C553 C557 1.393 1_455 S
C554 H546 0.950 . S
C554 C552 1.391 . S
C554 C555 1.400 . S
C555 C554 1.400 . S
C555 C556 1.398 1_455 S
C555 C561 1.490 . S
C556 H547 0.950 . S
C556 C555 1.398 1_655 S
C556 C557 1.391 . S
C557 H545 0.950 . S
C557 C553 1.393 1_655 S
C557 C556 1.391 . S
C558 H548 0.950 . S
C558 C559 1.386 . S
C558 C560 1.391 . S
C559 C558 1.386 . S
C559 C563 1.393 1_655 S
C560 H549 0.950 . S
C560 C558 1.391 . S
C560 C561 1.401 1_655 S
C561 C555 1.490 . S
C561 C560 1.401 1_455 S
C561 C562 1.398 . S
C562 H550 0.950 . S
C562 C561 1.398 . S
C562 C563 1.391 . S
C563 H551 0.950 . S
C563 C559 1.393 1_455 S
C563 C562 1.391 . S
H564 C572 0.950 . S
H565 C577 0.950 . S
H566 C574 0.950 . S
H567 C576 0.950 . S
H568 C578 0.950 . S
H569 C580 0.950 . S
H570 C582 0.950 . S
H571 C583 0.950 . S
C572 H564 0.950 . S
C572 C573 1.386 . S
C572 C574 1.391 . S
C573 C572 1.386 . S
C573 C577 1.393 . S
C574 H566 0.950 . S
C574 C572 1.391 . S
C574 C575 1.400 . S
C575 C574 1.400 . S
C575 C576 1.398 . S
C575 C581 1.491 1_455 S
C576 H567 0.950 . S
C576 C575 1.398 . S
C576 C577 1.391 . S
C577 H565 0.950 . S
C577 C573 1.393 . S
C577 C576 1.391 . S
C578 H568 0.950 . S
C578 C579 1.386 . S
C578 C580 1.391 . S
C579 C578 1.386 . S
C579 C583 1.393 . S
C580 H569 0.950 . S
C580 C578 1.391 . S
C580 C581 1.400 . S
C581 C575 1.491 1_655 S
C581 C580 1.400 . S
C581 C582 1.398 . S
C582 H570 0.950 . S
C582 C581 1.398 . S
C582 C583 1.391 . S
C583 H571 0.950 . S
C583 C579 1.393 . S
C583 C582 1.391 . S
H584 C592 0.950 . S
H585 C597 0.950 1_545 S
H586 C594 0.950 . S
H587 C596 0.950 . S
H588 C598 0.950 . S
H589 C600 0.950 . S
H590 C602 0.950 . S
H591 C603 0.950 . S
C592 H584 0.950 . S
C592 C593 1.386 1_565 S
C592 C594 1.391 . S
C593 C592 1.386 1_545 S
C593 C597 1.393 1_545 S
C594 H586 0.950 . S
C594 C592 1.391 . S
C594 C595 1.400 . S
C595 C594 1.400 . S
C595 C596 1.398 . S
C595 C601 1.491 . S
C596 H587 0.950 . S
C596 C595 1.398 . S
C596 C597 1.391 . S
C597 H585 0.950 1_565 S
C597 C593 1.393 1_565 S
C597 C596 1.391 . S
C598 H588 0.950 . S
C598 C599 1.386 . S
C598 C600 1.391 . S
C599 C598 1.386 . S
C599 C603 1.393 . S
C600 H589 0.950 . S
C600 C598 1.391 . S
C600 C601 1.400 . S
C601 C595 1.491 . S
C601 C600 1.400 . S
C601 C602 1.398 . S
C602 H590 0.950 . S
C602 C601 1.398 . S
C602 C603 1.391 . S
C603 H591 0.950 . S
C603 C599 1.393 . S
C603 C602 1.391 . S
H604 C612 0.950 . S
H605 C617 0.950 . S
H606 C614 0.950 . S
H607 C616 0.950 . S
H608 C618 0.950 . S
H609 C620 0.950 . S
H610 C622 0.950 . S
H611 C623 0.950 . S
C612 H604 0.950 . S
C612 C613 1.386 . S
C612 C614 1.391 . S
C613 C612 1.386 . S
C613 C617 1.393 . S
C614 H606 0.950 . S
C614 C612 1.391 . S
C614 C615 1.400 . S
C615 C614 1.400 . S
C615 C616 1.398 . S
C615 C621 1.491 . S
C616 H607 0.950 . S
C616 C615 1.398 . S
C616 C617 1.391 . S
C617 H605 0.950 . S
C617 C613 1.393 . S
C617 C616 1.391 . S
C618 H608 0.950 . S
C618 C619 1.386 . S
C618 C620 1.391 . S
C619 C618 1.386 . S
C619 C623 1.393 . S
C620 H609 0.950 . S
C620 C618 1.391 . S
C620 C621 1.400 . S
C621 C615 1.491 . S
C621 C620 1.400 . S
C621 C622 1.398 . S
C622 H610 0.950 . S
C622 C621 1.398 . S
C622 C623 1.391 . S
C623 H611 0.950 . S
C623 C619 1.393 . S
C623 C622 1.391 . S
H624 C632 0.950 . S
H625 C637 0.950 . S
H626 C634 0.950 . S
H627 C636 0.950 . S
H628 C638 0.950 . S
H629 C640 0.950 . S
H630 C642 0.950 . S
H631 C643 0.950 1_545 S
C632 H624 0.950 . S
C632 C633 1.386 . S
C632 C634 1.391 . S
C633 C632 1.386 . S
C633 C637 1.393 1_455 S
C634 H626 0.950 . S
C634 C632 1.391 . S
C634 C635 1.400 . S
C635 C634 1.400 . S
C635 C636 1.398 1_455 S
C635 C641 1.489 1_455 S
C636 H627 0.950 . S
C636 C635 1.398 1_655 S
C636 C637 1.391 . S
C637 H625 0.950 . S
C637 C633 1.393 1_655 S
C637 C636 1.391 . S
C638 H628 0.950 . S
C638 C639 1.386 1_565 S
C638 C640 1.391 . S
C639 C638 1.386 1_545 S
C639 C643 1.393 1_645 S
C640 H629 0.950 . S
C640 C638 1.391 . S
C640 C641 1.409 . S
C641 C635 1.489 1_655 S
C641 C640 1.409 . S
C641 C642 1.391 1_655 S
C642 H630 0.950 . S
C642 C641 1.391 1_455 S
C642 C643 1.391 . S
C643 H631 0.950 1_565 S
C643 C639 1.393 1_465 S
C643 C642 1.391 . S
H644 C652 0.950 . S
H645 C657 0.950 . S
H646 C654 0.950 . S
H647 C656 0.950 . S
H648 C658 0.950 . S
H649 C660 0.950 . S
H650 C662 0.950 . S
H651 C663 0.950 . S
C652 H644 0.950 . S
C652 C653 1.386 . S
C652 C654 1.391 . S
C653 C652 1.386 . S
C653 C657 1.393 . S
C654 H646 0.950 . S
C654 C652 1.391 . S
C654 C655 1.400 . S
C655 C654 1.400 . S
C655 C656 1.398 . S
C655 C661 1.491 . S
C656 H647 0.950 . S
C656 C655 1.398 . S
C656 C657 1.391 . S
C657 H645 0.950 . S
C657 C653 1.393 . S
C657 C656 1.391 . S
C658 H648 0.950 . S
C658 C659 1.386 . S
C658 C660 1.391 . S
C659 C658 1.386 . S
C659 C663 1.393 . S
C660 H649 0.950 . S
C660 C658 1.391 . S
C660 C661 1.400 . S
C661 C655 1.491 . S
C661 C660 1.400 . S
C661 C662 1.398 . S
C662 H650 0.950 . S
C662 C661 1.398 . S
C662 C663 1.391 . S
C663 H651 0.950 . S
C663 C659 1.393 . S
C663 C662 1.391 . S
H664 C672 0.950 . S
H665 C677 0.950 . S
H666 C674 0.950 . S
H667 C676 0.950 . S
H668 C678 0.950 . S
H669 C680 0.950 . S
H670 C682 0.950 . S
H671 C683 0.950 . S
C672 H664 0.950 . S
C672 C673 1.386 . S
C672 C674 1.391 . S
C673 C672 1.386 . S
C673 C677 1.393 . S
C674 H666 0.950 . S
C674 C672 1.391 . S
C674 C675 1.400 . S
C675 C674 1.400 . S
C675 C676 1.398 . S
C675 C681 1.491 . S
C676 H667 0.950 . S
C676 C675 1.398 . S
C676 C677 1.391 . S
C677 H665 0.950 . S
C677 C673 1.393 . S
C677 C676 1.391 . S
C678 H668 0.950 . S
C678 C679 1.386 . S
C678 C680 1.391 . S
C679 C678 1.386 . S
C679 C683 1.393 . S
C680 H669 0.950 . S
C680 C678 1.391 . S
C680 C681 1.400 . S
C681 C675 1.491 . S
C681 C680 1.400 . S
C681 C682 1.398 . S
C682 H670 0.950 . S
C682 C681 1.398 . S
C682 C683 1.391 . S
C683 H671 0.950 . S
C683 C679 1.393 . S
C683 C682 1.391 . S
H684 C692 0.950 . S
H685 C697 0.950 . S
H686 C694 0.950 . S
H687 C696 0.950 . S
H688 C698 0.950 . S
H689 C700 0.950 . S
H690 C702 0.950 . S
H691 C703 0.950 . S
C692 H684 0.950 . S
C692 C693 1.386 . S
C692 C694 1.391 . S
C693 C692 1.386 . S
C693 C697 1.393 . S
C694 H686 0.950 . S
C694 C692 1.391 . S
C694 C695 1.400 . S
C695 C694 1.400 . S
C695 C696 1.398 . S
C695 C701 1.491 1_655 S
C696 H687 0.950 . S
C696 C695 1.398 . S
C696 C697 1.391 . S
C697 H685 0.950 . S
C697 C693 1.393 . S
C697 C696 1.391 . S
C698 H688 0.950 . S
C698 C699 1.386 . S
C698 C700 1.391 . S
C699 C698 1.386 . S
C699 C703 1.393 . S
C700 H689 0.950 . S
C700 C698 1.391 . S
C700 C701 1.400 . S
C701 C695 1.491 1_455 S
C701 C700 1.400 . S
C701 C702 1.398 . S
C702 H690 0.950 . S
C702 C701 1.398 . S
C702 C703 1.391 . S
C703 H691 0.950 . S
C703 C699 1.393 . S
C703 C702 1.391 . S
H704 C712 0.950 . S
H705 C717 0.950 . S
H706 C714 0.950 . S
H707 C716 0.950 . S
H708 C718 0.950 . S
H709 C720 0.950 . S
H710 C722 0.950 . S
H711 C723 0.950 . S
C712 H704 0.950 . S
C712 C713 1.386 . S
C712 C714 1.391 . S
C713 C712 1.386 . S
C713 C717 1.393 . S
C714 H706 0.950 . S
C714 C712 1.391 . S
C714 C715 1.400 . S
C715 C714 1.400 . S
C715 C716 1.398 . S
C715 C721 1.491 1_554 S
C716 H707 0.950 . S
C716 C715 1.398 . S
C716 C717 1.391 . S
C717 H705 0.950 . S
C717 C713 1.393 . S
C717 C716 1.391 . S
C718 H708 0.950 . S
C718 C719 1.386 . S
C718 C720 1.391 . S
C719 C718 1.386 . S
C719 C723 1.393 . S
C720 H709 0.950 . S
C720 C718 1.391 . S
C720 C721 1.400 . S
C721 C715 1.491 1_556 S
C721 C720 1.400 . S
C721 C722 1.398 . S
C722 H710 0.950 . S
C722 C721 1.398 . S
C722 C723 1.391 . S
C723 H711 0.950 . S
C723 C719 1.393 . S
C723 C722 1.391 . S
H724 C732 0.950 . S
H725 C737 0.950 . S
H726 C734 0.950 . S
H727 C736 0.950 . S
H728 C738 0.950 . S
H729 C740 0.950 . S
H730 C742 0.950 . S
H731 C743 0.950 . S
C732 H724 0.950 . S
C732 C733 1.386 . S
C732 C734 1.391 . S
C733 C732 1.386 . S
C733 C737 1.393 . S
C734 H726 0.950 . S
C734 C732 1.391 . S
C734 C735 1.400 . S
C735 C734 1.400 . S
C735 C736 1.398 . S
C735 C741 1.491 . S
C736 H727 0.950 . S
C736 C735 1.398 . S
C736 C737 1.391 . S
C737 H725 0.950 . S
C737 C733 1.393 . S
C737 C736 1.391 . S
C738 H728 0.950 . S
C738 C739 1.386 . S
C738 C740 1.391 . S
C739 C738 1.386 . S
C739 C743 1.393 . S
C740 H729 0.950 . S
C740 C738 1.391 . S
C740 C741 1.400 . S
C741 C735 1.491 . S
C741 C740 1.400 . S
C741 C742 1.398 . S
C742 H730 0.950 . S
C742 C741 1.398 . S
C742 C743 1.391 . S
C743 H731 0.950 . S
C743 C739 1.393 . S
C743 C742 1.391 . S
H744 C752 0.950 . S
H745 C757 0.950 . S
H746 C754 0.950 . S
H747 C756 0.950 . S
H748 C758 0.950 . S
H749 C760 0.950 . S
H750 C762 0.950 . S
H751 C763 0.950 . S
C752 H744 0.950 . S
C752 C753 1.386 . S
C752 C754 1.391 . S
C753 C752 1.386 . S
C753 C757 1.393 . S
C754 H746 0.950 . S
C754 C752 1.391 . S
C754 C755 1.400 . S
C755 C754 1.400 . S
C755 C756 1.398 . S
C755 C761 1.491 . S
C756 H747 0.950 . S
C756 C755 1.398 . S
C756 C757 1.391 . S
C757 H745 0.950 . S
C757 C753 1.393 . S
C757 C756 1.391 . S
C758 H748 0.950 . S
C758 C759 1.386 . S
C758 C760 1.391 . S
C759 C758 1.386 . S
C759 C763 1.393 . S
C760 H749 0.950 . S
C760 C758 1.391 . S
C760 C761 1.400 . S
C761 C755 1.491 . S
C761 C760 1.400 . S
C761 C762 1.398 . S
C762 H750 0.950 . S
C762 C761 1.398 . S
C762 C763 1.391 . S
C763 H751 0.950 . S
C763 C759 1.393 . S
C763 C762 1.391 . S
H764 C772 0.950 . S
H765 C777 0.950 . S
H766 C774 0.950 . S
H767 C776 0.950 . S
H768 C778 0.950 . S
H769 C780 0.950 . S
H770 C782 0.950 . S
H771 C783 0.950 . S
C772 H764 0.950 . S
C772 C773 1.386 . S
C772 C774 1.391 . S
C773 C772 1.386 . S
C773 C777 1.393 . S
C774 H766 0.950 . S
C774 C772 1.391 . S
C774 C775 1.400 . S
C775 C774 1.400 . S
C775 C776 1.398 . S
C775 C781 1.491 . S
C776 H767 0.950 . S
C776 C775 1.398 . S
C776 C777 1.391 . S
C777 H765 0.950 . S
C777 C773 1.393 . S
C777 C776 1.391 . S
C778 H768 0.950 . S
C778 C779 1.386 . S
C778 C780 1.391 . S
C779 C778 1.386 . S
C779 C783 1.393 . S
C780 H769 0.950 . S
C780 C778 1.391 . S
C780 C781 1.400 . S
C781 C775 1.491 . S
C781 C780 1.400 . S
C781 C782 1.398 . S
C782 H770 0.950 . S
C782 C781 1.398 . S
C782 C783 1.391 . S
C783 H771 0.950 . S
C783 C779 1.393 . S
C783 C782 1.391 . S
H784 C792 0.950 . S
H785 C797 0.950 . S
H786 C794 0.950 . S
H787 C796 0.950 . S
H788 C798 0.950 . S
H789 C800 0.950 . S
H790 C802 0.950 . S
H791 C803 0.950 . S
C792 H784 0.950 . S
C792 C793 1.386 . S
C792 C794 1.391 . S
C793 C792 1.386 . S
C793 C797 1.393 . S
C794 H786 0.950 . S
C794 C792 1.391 . S
C794 C795 1.400 . S
C795 C794 1.400 . S
C795 C796 1.398 . S
C795 C801 1.491 . S
C796 H787 0.950 . S
C796 C795 1.398 . S
C796 C797 1.391 . S
C797 H785 0.950 . S
C797 C793 1.393 . S
C797 C796 1.391 . S
C798 H788 0.950 . S
C798 C799 1.386 . S
C798 C800 1.391 . S
C799 C798 1.386 . S
C799 C803 1.393 . S
C800 H789 0.950 . S
C800 C798 1.391 . S
C800 C801 1.400 . S
C801 C795 1.491 . S
C801 C800 1.400 . S
C801 C802 1.398 . S
C802 H790 0.950 . S
C802 C801 1.398 . S
C802 C803 1.391 . S
C803 H791 0.950 . S
C803 C799 1.393 . S
C803 C802 1.391 . S
H804 C812 0.950 . S
H805 C817 0.950 . S
H806 C814 0.950 . S
H807 C816 0.950 . S
H808 C818 0.950 . S
H809 C820 0.950 . S
H810 C822 0.950 . S
H811 C823 0.950 . S
C812 H804 0.950 . S
C812 C813 1.386 . S
C812 C814 1.391 . S
C813 C812 1.386 . S
C813 C817 1.393 . S
C814 H806 0.950 . S
C814 C812 1.391 . S
C814 C815 1.400 . S
C815 C814 1.400 . S
C815 C816 1.398 . S
C815 C821 1.491 . S
C816 H807 0.950 . S
C816 C815 1.398 . S
C816 C817 1.391 . S
C817 H805 0.950 . S
C817 C813 1.393 . S
C817 C816 1.391 . S
C818 H808 0.950 . S
C818 C819 1.386 . S
C818 C820 1.391 . S
C819 C818 1.386 . S
C819 C823 1.393 . S
C820 H809 0.950 . S
C820 C818 1.391 . S
C820 C821 1.400 . S
C821 C815 1.491 . S
C821 C820 1.400 . S
C821 C822 1.398 . S
C822 H810 0.950 . S
C822 C821 1.398 . S
C822 C823 1.391 . S
C823 H811 0.950 . S
C823 C819 1.393 . S
C823 C822 1.391 . S
H824 C832 0.950 . S
H825 C837 0.950 . S
H826 C834 0.950 . S
H827 C836 0.950 . S
H828 C838 0.950 . S
H829 C840 0.950 . S
H830 C842 0.950 . S
H831 C843 0.950 . S
C832 H824 0.950 . S
C832 C833 1.386 . S
C832 C834 1.391 . S
C833 C832 1.386 . S
C833 C837 1.393 . S
C834 H826 0.950 . S
C834 C832 1.391 . S
C834 C835 1.400 . S
C835 C834 1.400 . S
C835 C836 1.398 . S
C835 C841 1.491 . S
C836 H827 0.950 . S
C836 C835 1.398 . S
C836 C837 1.391 . S
C837 H825 0.950 . S
C837 C833 1.393 . S
C837 C836 1.391 . S
C838 H828 0.950 . S
C838 C839 1.386 . S
C838 C840 1.391 . S
C839 C838 1.386 . S
C839 C843 1.393 . S
C840 H829 0.950 . S
C840 C838 1.391 . S
C840 C841 1.400 . S
C841 C835 1.491 . S
C841 C840 1.400 . S
C841 C842 1.398 . S
C842 H830 0.950 . S
C842 C841 1.398 . S
C842 C843 1.391 . S
C843 H831 0.950 . S
C843 C839 1.393 . S
C843 C842 1.391 . S
H844 C852 0.950 . S
H845 C857 0.950 . S
H846 C854 0.950 . S
H847 C856 0.950 . S
H848 C858 0.950 . S
H849 C860 0.950 . S
H850 C862 0.950 . S
H851 C863 0.950 . S
C852 H844 0.950 . S
C852 C853 1.386 1_455 S
C852 C854 1.391 . S
C853 C852 1.386 1_655 S
C853 C857 1.393 . S
C854 H846 0.950 . S
C854 C852 1.391 . S
C854 C855 1.400 1_455 S
C855 C854 1.400 1_655 S
C855 C856 1.398 . S
C855 C861 1.491 1_556 S
C856 H847 0.950 . S
C856 C855 1.398 . S
C856 C857 1.391 . S
C857 H845 0.950 . S
C857 C853 1.393 . S
C857 C856 1.391 . S
C858 H848 0.950 . S
C858 C859 1.386 . S
C858 C860 1.391 . S
C859 C858 1.386 . S
C859 C863 1.393 1_655 S
C860 H849 0.950 . S
C860 C858 1.391 . S
C860 C861 1.400 . S
C861 C855 1.491 1_554 S
C861 C860 1.400 . S
C861 C862 1.398 1_655 S
C862 H850 0.950 . S
C862 C861 1.398 1_455 S
C862 C863 1.391 . S
C863 H851 0.950 . S
C863 C859 1.393 1_455 S
C863 C862 1.391 . S
H864 C872 0.950 1_565 S
H865 C877 0.950 . S
H866 C874 0.950 . S
H867 C876 0.950 . S
H868 C878 0.950 . S
H869 C880 0.950 . S
H870 C882 0.950 . S
H871 C883 0.950 . S
C872 H864 0.950 1_545 S
C872 C873 1.386 1_545 S
C872 C874 1.391 . S
C873 C872 1.386 1_565 S
C873 C877 1.393 1_565 S
C874 H866 0.950 . S
C874 C872 1.391 . S
C874 C875 1.400 . S
C875 C874 1.400 . S
C875 C876 1.398 . S
C875 C881 1.491 . S
C876 H867 0.950 . S
C876 C875 1.398 . S
C876 C877 1.391 . S
C877 H865 0.950 . S
C877 C873 1.393 1_545 S
C877 C876 1.391 . S
C878 H868 0.950 . S
C878 C879 1.386 . S
C878 C880 1.391 . S
C879 C878 1.386 . S
C879 C883 1.393 . S
C880 H869 0.950 . S
C880 C878 1.391 . S
C880 C881 1.400 . S
C881 C875 1.491 . S
C881 C880 1.400 . S
C881 C882 1.398 . S
C882 H870 0.950 . S
C882 C881 1.398 . S
C882 C883 1.391 . S
C883 H871 0.950 . S
C883 C879 1.393 . S
C883 C882 1.391 . S
H884 C892 0.940 1_565 S
H885 C897 0.950 1_565 S
H886 C894 0.950 . S
H887 C896 0.950 . S
H888 C898 0.950 . S
H889 C900 0.950 . S
H890 C902 0.950 . S
H891 C903 0.950 . S
C892 H884 0.940 1_545 S
C892 C893 1.379 1_545 S
C892 C894 1.409 . S
C893 C892 1.379 1_565 S
C893 C897 1.393 1_565 S
C894 H886 0.950 . S
C894 C892 1.409 . S
C894 C895 1.400 . S
C895 C894 1.400 . S
C895 C896 1.398 . S
C895 C901 1.491 . S
C896 H887 0.950 . S
C896 C895 1.398 . S
C896 C897 1.391 . S
C897 H885 0.950 1_545 S
C897 C893 1.393 1_545 S
C897 C896 1.391 . S
C898 H888 0.950 . S
C898 C899 1.386 . S
C898 C900 1.391 . S
C899 C898 1.386 . S
C899 C903 1.393 . S
C900 H889 0.950 . S
C900 C898 1.391 . S
C900 C901 1.400 . S
C901 C895 1.491 . S
C901 C900 1.400 . S
C901 C902 1.398 . S
C902 H890 0.950 . S
C902 C901 1.398 . S
C902 C903 1.391 . S
C903 H891 0.950 . S
C903 C899 1.393 . S
C903 C902 1.391 . S
H904 C912 0.950 . S
H905 C917 0.950 . S
H906 C914 0.950 . S
H907 C916 0.950 . S
H908 C918 0.950 . S
H909 C920 0.950 . S
H910 C922 0.950 . S
H911 C923 0.950 . S
C912 H904 0.950 . S
C912 C913 1.386 . S
C912 C914 1.391 . S
C913 C912 1.386 . S
C913 C917 1.393 . S
C914 H906 0.950 . S
C914 C912 1.391 . S
C914 C915 1.400 . S
C915 C914 1.400 . S
C915 C916 1.398 . S
C915 C921 1.491 . S
C916 H907 0.950 . S
C916 C915 1.398 . S
C916 C917 1.391 . S
C917 H905 0.950 . S
C917 C913 1.393 . S
C917 C916 1.391 . S
C918 H908 0.950 . S
C918 C919 1.386 . S
C918 C920 1.391 . S
C919 C918 1.386 . S
C919 C923 1.393 . S
C920 H909 0.950 . S
C920 C918 1.391 . S
C920 C921 1.400 . S
C921 C915 1.491 . S
C921 C920 1.400 . S
C921 C922 1.398 . S
C922 H910 0.950 . S
C922 C921 1.398 . S
C922 C923 1.391 . S
C923 H911 0.950 . S
C923 C919 1.393 . S
C923 C922 1.391 . S
H924 C932 0.950 . S
H925 C937 0.950 . S
H926 C934 0.950 . S
H927 C936 0.950 . S
H928 C938 0.950 . S
H929 C940 0.950 . S
H930 C942 0.950 . S
H931 C943 0.950 . S
C932 H924 0.950 . S
C932 C933 1.386 . S
C932 C934 1.391 . S
C933 C932 1.386 . S
C933 C937 1.393 . S
C934 H926 0.950 . S
C934 C932 1.391 . S
C934 C935 1.400 . S
C935 C934 1.400 . S
C935 C936 1.398 . S
C935 C941 1.491 . S
C936 H927 0.950 . S
C936 C935 1.398 . S
C936 C937 1.391 . S
C937 H925 0.950 . S
C937 C933 1.393 . S
C937 C936 1.391 . S
C938 H928 0.950 . S
C938 C939 1.386 . S
C938 C940 1.391 . S
C939 C938 1.386 . S
C939 C943 1.393 . S
C940 H929 0.950 . S
C940 C938 1.391 . S
C940 C941 1.400 . S
C941 C935 1.491 . S
C941 C940 1.400 . S
C941 C942 1.398 . S
C942 H930 0.950 . S
C942 C941 1.398 . S
C942 C943 1.391 . S
C943 H931 0.950 . S
C943 C939 1.393 . S
C943 C942 1.391 . S
H944 C952 0.950 . S
H945 C957 0.950 . S
H946 C954 0.950 . S
H947 C956 0.950 . S
H948 C958 0.950 . S
H949 C960 0.950 . S
H950 C962 0.950 . S
H951 C963 0.950 . S
C952 H944 0.950 . S
C952 C953 1.386 . S
C952 C954 1.391 . S
C953 C952 1.386 . S
C953 C957 1.393 . S
C954 H946 0.950 . S
C954 C952 1.391 . S
C954 C955 1.400 . S
C955 C954 1.400 . S
C955 C956 1.398 . S
C955 C961 1.491 . S
C956 H947 0.950 . S
C956 C955 1.398 . S
C956 C957 1.391 . S
C957 H945 0.950 . S
C957 C953 1.393 . S
C957 C956 1.391 . S
C958 H948 0.950 . S
C958 C959 1.386 . S
C958 C960 1.391 . S
C959 C958 1.386 . S
C959 C963 1.393 . S
C960 H949 0.950 . S
C960 C958 1.391 . S
C960 C961 1.400 . S
C961 C955 1.491 . S
C961 C960 1.400 . S
C961 C962 1.398 . S
C962 H950 0.950 . S
C962 C961 1.398 . S
C962 C963 1.391 . S
C963 H951 0.950 . S
C963 C959 1.393 . S
C963 C962 1.391 . S
H964 C972 0.950 . S
H965 C977 0.950 . S
H966 C974 0.950 . S
H967 C976 0.950 . S
H968 C978 0.950 . S
H969 C980 0.950 . S
H970 C982 0.950 . S
H971 C983 0.950 . S
C972 H964 0.950 . S
C972 C973 1.386 . S
C972 C974 1.391 . S
C973 C972 1.386 . S
C973 C977 1.393 . S
C974 H966 0.950 . S
C974 C972 1.391 . S
C974 C975 1.400 . S
C975 C974 1.400 . S
C975 C976 1.398 . S
C975 C981 1.491 . S
C976 H967 0.950 . S
C976 C975 1.398 . S
C976 C977 1.391 . S
C977 H965 0.950 . S
C977 C973 1.393 . S
C977 C976 1.391 . S
C978 H968 0.950 . S
C978 C979 1.386 . S
C978 C980 1.391 . S
C979 C978 1.386 . S
C979 C983 1.393 . S
C980 H969 0.950 . S
C980 C978 1.391 . S
C980 C981 1.400 . S
C981 C975 1.491 . S
C981 C980 1.400 . S
C981 C982 1.398 . S
C982 H970 0.950 . S
C982 C981 1.398 . S
C982 C983 1.391 . S
C983 H971 0.950 . S
C983 C979 1.393 . S
C983 C982 1.391 . S
H984 C992 0.950 . S
H985 C997 0.950 . S
H986 C994 0.950 . S
H987 C996 0.950 1_565 S
H988 C998 0.950 . S
H989 C1000 0.950 . S
H990 C1002 0.950 . S
H991 C1003 0.950 . S
C992 H984 0.950 . S
C992 C993 1.386 1_545 S
C992 C994 1.391 . S
C993 C992 1.386 1_565 S
C993 C997 1.393 . S
C994 H986 0.950 . S
C994 C992 1.391 . S
C994 C995 1.400 . S
C995 C994 1.400 . S
C995 C996 1.400 . S
C995 C1001 1.491 . S
C996 H987 0.950 1_545 S
C996 C995 1.400 . S
C996 C997 1.389 1_545 S
C997 H985 0.950 . S
C997 C993 1.393 . S
C997 C996 1.389 1_565 S
C998 H988 0.950 . S
C998 C999 1.386 . S
C998 C1000 1.391 . S
C999 C998 1.386 . S
C999 C1003 1.393 . S
C1000 H989 0.950 . S
C1000 C998 1.391 . S
C1000 C1001 1.400 . S
C1001 C995 1.491 . S
C1001 C1000 1.400 . S
C1001 C1002 1.398 . S
C1002 H990 0.950 . S
C1002 C1001 1.398 . S
C1002 C1003 1.391 . S
C1003 H991 0.950 . S
C1003 C999 1.393 . S
C1003 C1002 1.391 . S
H1004 C1012 0.950 . S
H1005 C1017 0.950 1_565 S
H1006 C1014 0.950 . S
H1007 C1016 0.950 . S
H1008 C1018 0.950 . S
H1009 C1020 0.950 . S
H1010 C1022 0.950 . S
H1011 C1023 0.950 . S
C1012 H1004 0.950 . S
C1012 C1013 1.386 . S
C1012 C1014 1.391 1_565 S
C1013 C1012 1.386 . S
C1013 C1017 1.393 1_565 S
C1014 H1006 0.950 . S
C1014 C1012 1.391 1_545 S
C1014 C1015 1.400 . S
C1015 C1014 1.400 . S
C1015 C1016 1.398 . S
C1015 C1021 1.491 . S
C1016 H1007 0.950 . S
C1016 C1015 1.398 . S
C1016 C1017 1.391 . S
C1017 H1005 0.950 1_545 S
C1017 C1013 1.393 1_545 S
C1017 C1016 1.391 . S
C1018 H1008 0.950 . S
C1018 C1019 1.386 . S
C1018 C1020 1.391 . S
C1019 C1018 1.386 . S
C1019 C1023 1.393 . S
C1020 H1009 0.950 . S
C1020 C1018 1.391 . S
C1020 C1021 1.400 . S
C1021 C1015 1.491 . S
C1021 C1020 1.400 . S
C1021 C1022 1.398 . S
C1022 H1010 0.950 . S
C1022 C1021 1.398 . S
C1022 C1023 1.391 . S
C1023 H1011 0.950 . S
C1023 C1019 1.393 . S
C1023 C1022 1.391 . S
H1024 C1032 0.950 . S
H1025 C1037 0.950 . S
H1026 C1034 0.950 . S
H1027 C1036 0.950 . S
H1028 C1038 0.950 . S
H1029 C1040 0.950 . S
H1030 C1042 0.950 . S
H1031 C1043 0.950 . S
C1032 H1024 0.950 . S
C1032 C1033 1.386 . S
C1032 C1034 1.391 . S
C1033 C1032 1.386 . S
C1033 C1037 1.393 . S
C1034 H1026 0.950 . S
C1034 C1032 1.391 . S
C1034 C1035 1.400 . S
C1035 C1034 1.400 . S
C1035 C1036 1.398 . S
C1035 C1041 1.491 . S
C1036 H1027 0.950 . S
C1036 C1035 1.398 . S
C1036 C1037 1.391 . S
C1037 H1025 0.950 . S
C1037 C1033 1.393 . S
C1037 C1036 1.391 . S
C1038 H1028 0.950 . S
C1038 C1039 1.386 . S
C1038 C1040 1.391 . S
C1039 C1038 1.386 . S
C1039 C1043 1.393 . S
C1040 H1029 0.950 . S
C1040 C1038 1.391 . S
C1040 C1041 1.400 . S
C1041 C1035 1.491 . S
C1041 C1040 1.400 . S
C1041 C1042 1.398 . S
C1042 H1030 0.950 . S
C1042 C1041 1.398 . S
C1042 C1043 1.391 . S
C1043 H1031 0.950 . S
C1043 C1039 1.393 . S
C1043 C1042 1.391 . S
H1044 C1052 0.950 . S
H1045 C1057 0.950 . S
H1046 C1054 0.950 . S
H1047 C1056 0.950 . S
H1048 C1058 0.950 . S
H1049 C1060 0.950 . S
H1050 C1062 0.950 . S
H1051 C1063 0.950 . S
C1052 H1044 0.950 . S
C1052 C1053 1.386 . S
C1052 C1054 1.391 . S
C1053 C1052 1.386 . S
C1053 C1057 1.393 . S
C1054 H1046 0.950 . S
C1054 C1052 1.391 . S
C1054 C1055 1.400 . S
C1055 C1054 1.400 . S
C1055 C1056 1.398 . S
C1055 C1061 1.491 . S
C1056 H1047 0.950 . S
C1056 C1055 1.398 . S
C1056 C1057 1.391 . S
C1057 H1045 0.950 . S
C1057 C1053 1.393 . S
C1057 C1056 1.391 . S
C1058 H1048 0.950 . S
C1058 C1059 1.386 . S
C1058 C1060 1.391 . S
C1059 C1058 1.386 . S
C1059 C1063 1.393 . S
C1060 H1049 0.950 . S
C1060 C1058 1.391 . S
C1060 C1061 1.400 . S
C1061 C1055 1.491 . S
C1061 C1060 1.400 . S
C1061 C1062 1.398 . S
C1062 H1050 0.950 . S
C1062 C1061 1.398 . S
C1062 C1063 1.391 . S
C1063 H1051 0.950 . S
C1063 C1059 1.393 . S
C1063 C1062 1.391 . S
H1064 C1072 0.950 . S
H1065 C1077 0.950 . S
H1066 C1074 0.950 . S
H1067 C1076 0.950 . S
H1068 C1078 0.950 . S
H1069 C1080 0.950 . S
H1070 C1082 0.950 . S
H1071 C1083 0.950 . S
C1072 H1064 0.950 . S
C1072 C1073 1.386 . S
C1072 C1074 1.391 . S
C1073 C1072 1.386 . S
C1073 C1077 1.393 . S
C1074 H1066 0.950 . S
C1074 C1072 1.391 . S
C1074 C1075 1.400 . S
C1075 C1074 1.400 . S
C1075 C1076 1.398 . S
C1075 C1081 1.491 . S
C1076 H1067 0.950 . S
C1076 C1075 1.398 . S
C1076 C1077 1.391 . S
C1077 H1065 0.950 . S
C1077 C1073 1.393 . S
C1077 C1076 1.391 . S
C1078 H1068 0.950 . S
C1078 C1079 1.386 . S
C1078 C1080 1.391 . S
C1079 C1078 1.386 . S
C1079 C1083 1.393 . S
C1080 H1069 0.950 . S
C1080 C1078 1.391 . S
C1080 C1081 1.400 . S
C1081 C1075 1.491 . S
C1081 C1080 1.400 . S
C1081 C1082 1.398 . S
C1082 H1070 0.950 . S
C1082 C1081 1.398 . S
C1082 C1083 1.391 . S
C1083 H1071 0.950 . S
C1083 C1079 1.393 . S
C1083 C1082 1.391 . S
H1084 C1092 0.950 . S
H1085 C1097 0.950 . S
H1086 C1094 0.950 . S
H1087 C1096 0.950 . S
H1088 C1098 0.950 . S
H1089 C1100 0.950 . S
H1090 C1102 0.950 . S
H1091 C1103 0.950 . S
C1092 H1084 0.950 . S
C1092 C1093 1.386 . S
C1092 C1094 1.391 . S
C1093 C1092 1.386 . S
C1093 C1097 1.393 . S
C1094 H1086 0.950 . S
C1094 C1092 1.391 . S
C1094 C1095 1.400 . S
C1095 C1094 1.400 . S
C1095 C1096 1.398 . S
C1095 C1101 1.491 . S
C1096 H1087 0.950 . S
C1096 C1095 1.398 . S
C1096 C1097 1.391 . S
C1097 H1085 0.950 . S
C1097 C1093 1.393 . S
C1097 C1096 1.391 . S
C1098 H1088 0.950 . S
C1098 C1099 1.386 . S
C1098 C1100 1.391 . S
C1099 C1098 1.386 . S
C1099 C1103 1.393 . S
C1100 H1089 0.950 . S
C1100 C1098 1.391 . S
C1100 C1101 1.400 . S
C1101 C1095 1.491 . S
C1101 C1100 1.400 . S
C1101 C1102 1.398 . S
C1102 H1090 0.950 . S
C1102 C1101 1.398 . S
C1102 C1103 1.391 . S
C1103 H1091 0.950 . S
C1103 C1099 1.393 . S
C1103 C1102 1.391 . S
H1104 C1112 0.950 . S
H1105 C1117 0.950 . S
H1106 C1114 0.950 . S
H1107 C1116 0.950 . S
H1108 C1118 0.950 . S
H1109 C1120 0.950 . S
H1110 C1122 0.950 . S
H1111 C1123 0.950 . S
C1112 H1104 0.950 . S
C1112 C1113 1.386 . S
C1112 C1114 1.391 . S
C1113 C1112 1.386 . S
C1113 C1117 1.393 . S
C1114 H1106 0.950 . S
C1114 C1112 1.391 . S
C1114 C1115 1.400 . S
C1115 C1114 1.400 . S
C1115 C1116 1.398 . S
C1115 C1121 1.491 . S
C1116 H1107 0.950 . S
C1116 C1115 1.398 . S
C1116 C1117 1.391 . S
C1117 H1105 0.950 . S
C1117 C1113 1.393 . S
C1117 C1116 1.391 . S
C1118 H1108 0.950 . S
C1118 C1119 1.386 . S
C1118 C1120 1.391 . S
C1119 C1118 1.386 . S
C1119 C1123 1.393 . S
C1120 H1109 0.950 . S
C1120 C1118 1.391 . S
C1120 C1121 1.400 . S
C1121 C1115 1.491 . S
C1121 C1120 1.400 . S
C1121 C1122 1.398 . S
C1122 H1110 0.950 . S
C1122 C1121 1.398 . S
C1122 C1123 1.391 . S
C1123 H1111 0.950 . S
C1123 C1119 1.393 . S
C1123 C1122 1.391 . S
H1124 C1132 0.950 . S
H1125 C1137 0.950 . S
H1126 C1134 0.950 . S
H1127 C1136 0.950 . S
H1128 C1138 0.950 . S
H1129 C1140 0.950 . S
H1130 C1142 0.950 . S
H1131 C1143 0.950 . S
C1132 H1124 0.950 . S
C1132 C1133 1.386 . S
C1132 C1134 1.391 . S
C1133 C1132 1.386 . S
C1133 C1137 1.393 . S
C1134 H1126 0.950 . S
C1134 C1132 1.391 . S
C1134 C1135 1.400 . S
C1135 C1134 1.400 . S
C1135 C1136 1.398 . S
C1135 C1141 1.491 . S
C1136 H1127 0.950 . S
C1136 C1135 1.398 . S
C1136 C1137 1.391 . S
C1137 H1125 0.950 . S
C1137 C1133 1.393 . S
C1137 C1136 1.391 . S
C1138 H1128 0.950 . S
C1138 C1139 1.386 . S
C1138 C1140 1.391 . S
C1139 C1138 1.386 . S
C1139 C1143 1.393 . S
C1140 H1129 0.950 . S
C1140 C1138 1.391 . S
C1140 C1141 1.400 . S
C1141 C1135 1.491 . S
C1141 C1140 1.400 . S
C1141 C1142 1.398 . S
C1142 H1130 0.950 . S
C1142 C1141 1.398 . S
C1142 C1143 1.391 . S
C1143 H1131 0.950 . S
C1143 C1139 1.393 . S
C1143 C1142 1.391 . S
H1144 C1152 0.950 . S
H1145 C1157 0.950 . S
H1146 C1154 0.950 . S
H1147 C1156 0.950 . S
H1148 C1158 0.950 . S
H1149 C1160 0.950 . S
H1150 C1162 0.950 . S
H1151 C1163 0.950 . S
C1152 H1144 0.950 . S
C1152 C1153 1.386 . S
C1152 C1154 1.391 . S
C1153 C1152 1.386 . S
C1153 C1157 1.393 . S
C1154 H1146 0.950 . S
C1154 C1152 1.391 . S
C1154 C1155 1.400 . S
C1155 C1154 1.400 . S
C1155 C1156 1.398 . S
C1155 C1161 1.491 . S
C1156 H1147 0.950 . S
C1156 C1155 1.398 . S
C1156 C1157 1.391 . S
C1157 H1145 0.950 . S
C1157 C1153 1.393 . S
C1157 C1156 1.391 . S
C1158 H1148 0.950 . S
C1158 C1159 1.386 . S
C1158 C1160 1.391 . S
C1159 C1158 1.386 . S
C1159 C1163 1.393 . S
C1160 H1149 0.950 . S
C1160 C1158 1.391 . S
C1160 C1161 1.400 . S
C1161 C1155 1.491 . S
C1161 C1160 1.400 . S
C1161 C1162 1.398 . S
C1162 H1150 0.950 . S
C1162 C1161 1.398 . S
C1162 C1163 1.391 . S
C1163 H1151 0.950 . S
C1163 C1159 1.393 . S
C1163 C1162 1.391 . S
H1164 C1172 0.950 . S
H1165 C1177 0.950 . S
H1166 C1174 0.950 . S
H1167 C1176 0.950 . S
H1168 C1178 0.950 . S
H1169 C1180 0.950 . S
H1170 C1182 0.950 . S
H1171 C1183 0.950 . S
C1172 H1164 0.950 . S
C1172 C1173 1.386 . S
C1172 C1174 1.391 . S
C1173 C1172 1.386 . S
C1173 C1177 1.393 . S
C1174 H1166 0.950 . S
C1174 C1172 1.391 . S
C1174 C1175 1.400 . S
C1175 C1174 1.400 . S
C1175 C1176 1.398 . S
C1175 C1181 1.491 . S
C1176 H1167 0.950 . S
C1176 C1175 1.398 . S
C1176 C1177 1.391 . S
C1177 H1165 0.950 . S
C1177 C1173 1.393 . S
C1177 C1176 1.391 . S
C1178 H1168 0.950 . S
C1178 C1179 1.386 . S
C1178 C1180 1.391 . S
C1179 C1178 1.386 . S
C1179 C1183 1.393 . S
C1180 H1169 0.950 . S
C1180 C1178 1.391 . S
C1180 C1181 1.400 . S
C1181 C1175 1.491 . S
C1181 C1180 1.400 . S
C1181 C1182 1.398 . S
C1182 H1170 0.950 . S
C1182 C1181 1.398 . S
C1182 C1183 1.391 . S
C1183 H1171 0.950 . S
C1183 C1179 1.393 . S
C1183 C1182 1.391 . S
H1184 C1192 0.950 . S
H1185 C1197 0.950 1_445 S
H1186 C1194 0.950 . S
H1187 C1196 0.950 . S
H1188 C1198 0.950 . S
H1189 C1200 0.950 . S
H1190 C1202 0.940 1_655 S
H1191 C1203 0.950 . S
C1192 H1184 0.950 . S
C1192 C1193 1.386 1_565 S
C1192 C1194 1.391 . S
C1193 C1192 1.386 1_545 S
C1193 C1197 1.393 1_545 S
C1194 H1186 0.950 . S
C1194 C1192 1.391 . S
C1194 C1195 1.399 1_655 S
C1195 C1194 1.399 1_455 S
C1195 C1196 1.399 . S
C1195 C1201 1.491 . S
C1196 H1187 0.950 . S
C1196 C1195 1.399 . S
C1196 C1197 1.391 1_455 S
C1197 H1185 0.950 1_665 S
C1197 C1193 1.393 1_565 S
C1197 C1196 1.391 1_655 S
C1198 H1188 0.950 . S
C1198 C1199 1.386 . S
C1198 C1200 1.391 . S
C1199 C1198 1.386 . S
C1199 C1203 1.393 . S
C1200 H1189 0.950 . S
C1200 C1198 1.391 . S
C1200 C1201 1.400 . S
C1201 C1195 1.491 . S
C1201 C1200 1.400 . S
C1201 C1202 1.403 . S
C1202 H1190 0.940 1_455 S
C1202 C1201 1.403 . S
C1202 C1203 1.397 . S
C1203 H1191 0.950 . S
C1203 C1199 1.393 . S
C1203 C1202 1.397 . S
H1204 C1212 0.950 . S
H1205 C1217 0.950 . S
H1206 C1214 0.950 . S
H1207 C1216 0.950 . S
H1208 C1218 0.950 . S
H1209 C1220 0.950 . S
H1210 C1222 0.950 . S
H1211 C1223 0.950 . S
C1212 H1204 0.950 . S
C1212 C1213 1.386 . S
C1212 C1214 1.391 . S
C1213 C1212 1.386 . S
C1213 C1217 1.393 . S
C1214 H1206 0.950 . S
C1214 C1212 1.391 . S
C1214 C1215 1.400 . S
C1215 C1214 1.400 . S
C1215 C1216 1.398 . S
C1215 C1221 1.491 . S
C1216 H1207 0.950 . S
C1216 C1215 1.398 . S
C1216 C1217 1.391 . S
C1217 H1205 0.950 . S
C1217 C1213 1.393 . S
C1217 C1216 1.391 . S
C1218 H1208 0.950 . S
C1218 C1219 1.386 . S
C1218 C1220 1.391 . S
C1219 C1218 1.386 . S
C1219 C1223 1.393 . S
C1220 H1209 0.950 . S
C1220 C1218 1.391 . S
C1220 C1221 1.400 . S
C1221 C1215 1.491 . S
C1221 C1220 1.400 . S
C1221 C1222 1.398 . S
C1222 H1210 0.950 . S
C1222 C1221 1.398 . S
C1222 C1223 1.391 . S
C1223 H1211 0.950 . S
C1223 C1219 1.393 . S
C1223 C1222 1.391 . S
H1224 C1232 0.950 . S
H1225 C1237 0.950 . S
H1226 C1234 0.950 . S
H1227 C1236 0.950 . S
H1228 C1238 0.950 . S
H1229 C1240 0.950 . S
H1230 C1242 0.950 . S
H1231 C1243 0.950 . S
C1232 H1224 0.950 . S
C1232 C1233 1.386 . S
C1232 C1234 1.391 . S
C1233 C1232 1.386 . S
C1233 C1237 1.393 . S
C1234 H1226 0.950 . S
C1234 C1232 1.391 . S
C1234 C1235 1.400 . S
C1235 C1234 1.400 . S
C1235 C1236 1.398 . S
C1235 C1241 1.491 . S
C1236 H1227 0.950 . S
C1236 C1235 1.398 . S
C1236 C1237 1.391 . S
C1237 H1225 0.950 . S
C1237 C1233 1.393 . S
C1237 C1236 1.391 . S
C1238 H1228 0.950 . S
C1238 C1239 1.386 . S
C1238 C1240 1.391 . S
C1239 C1238 1.386 . S
C1239 C1243 1.393 . S
C1240 H1229 0.950 . S
C1240 C1238 1.391 . S
C1240 C1241 1.400 . S
C1241 C1235 1.491 . S
C1241 C1240 1.400 . S
C1241 C1242 1.398 . S
C1242 H1230 0.950 . S
C1242 C1241 1.398 . S
C1242 C1243 1.391 . S
C1243 H1231 0.950 . S
C1243 C1239 1.393 . S
C1243 C1242 1.391 . S
H1244 C1252 0.950 . S
H1245 C1257 0.950 . S
H1246 C1254 0.950 . S
H1247 C1256 0.950 . S
H1248 C1258 0.950 . S
H1249 C1260 0.950 . S
H1250 C1262 0.950 . S
H1251 C1263 0.950 . S
C1252 H1244 0.950 . S
C1252 C1253 1.386 . S
C1252 C1254 1.391 . S
C1253 C1252 1.386 . S
C1253 C1257 1.393 . S
C1254 H1246 0.950 . S
C1254 C1252 1.391 . S
C1254 C1255 1.400 . S
C1255 C1254 1.400 . S
C1255 C1256 1.398 . S
C1255 C1261 1.491 1_455 S
C1256 H1247 0.950 . S
C1256 C1255 1.398 . S
C1256 C1257 1.391 . S
C1257 H1245 0.950 . S
C1257 C1253 1.393 . S
C1257 C1256 1.391 . S
C1258 H1248 0.950 . S
C1258 C1259 1.386 . S
C1258 C1260 1.391 . S
C1259 C1258 1.386 . S
C1259 C1263 1.393 . S
C1260 H1249 0.950 . S
C1260 C1258 1.391 . S
C1260 C1261 1.400 . S
C1261 C1255 1.491 1_655 S
C1261 C1260 1.400 . S
C1261 C1262 1.398 . S
C1262 H1250 0.950 . S
C1262 C1261 1.398 . S
C1262 C1263 1.391 . S
C1263 H1251 0.950 . S
C1263 C1259 1.393 . S
C1263 C1262 1.391 . S
H1264 C1272 0.950 . S
H1265 C1277 0.950 . S
H1266 C1274 0.950 . S
H1267 C1276 0.950 . S
H1268 C1278 0.950 . S
H1269 C1280 0.950 . S
H1270 C1282 0.950 . S
H1271 C1283 0.950 . S
C1272 H1264 0.950 . S
C1272 C1273 1.386 1_455 S
C1272 C1274 1.391 . S
C1273 C1272 1.386 1_655 S
C1273 C1277 1.393 . S
C1274 H1266 0.950 . S
C1274 C1272 1.391 . S
C1274 C1275 1.383 1_455 S
C1275 C1274 1.383 1_655 S
C1275 C1276 1.422 . S
C1275 C1281 1.484 1_655 S
C1276 H1267 0.950 . S
C1276 C1275 1.422 . S
C1276 C1277 1.391 . S
C1277 H1265 0.950 . S
C1277 C1273 1.393 . S
C1277 C1276 1.391 . S
C1278 H1268 0.950 . S
C1278 C1279 1.386 1_655 S
C1278 C1280 1.391 . S
C1279 C1278 1.386 1_455 S
C1279 C1283 1.393 . S
C1280 H1269 0.950 . S
C1280 C1278 1.391 . S
C1280 C1281 1.400 1_655 S
C1281 C1275 1.484 1_455 S
C1281 C1280 1.400 1_455 S
C1281 C1282 1.398 . S
C1282 H1270 0.950 . S
C1282 C1281 1.398 . S
C1282 C1283 1.391 . S
C1283 H1271 0.950 . S
C1283 C1279 1.393 . S
C1283 C1282 1.391 . S
H1284 C1292 0.950 . S
H1285 C1297 0.950 . S
H1286 C1294 0.950 . S
H1287 C1296 0.950 . S
H1288 C1298 0.950 . S
H1289 C1300 0.950 . S
H1290 C1302 0.950 . S
H1291 C1303 0.950 . S
C1292 H1284 0.950 . S
C1292 C1293 1.386 . S
C1292 C1294 1.391 . S
C1293 C1292 1.386 . S
C1293 C1297 1.393 . S
C1294 H1286 0.950 . S
C1294 C1292 1.391 . S
C1294 C1295 1.400 . S
C1295 C1294 1.400 . S
C1295 C1296 1.398 . S
C1295 C1301 1.491 1_455 S
C1296 H1287 0.950 . S
C1296 C1295 1.398 . S
C1296 C1297 1.391 . S
C1297 H1285 0.950 . S
C1297 C1293 1.393 . S
C1297 C1296 1.391 . S
C1298 H1288 0.950 . S
C1298 C1299 1.386 . S
C1298 C1300 1.391 . S
C1299 C1298 1.386 . S
C1299 C1303 1.393 . S
C1300 H1289 0.950 . S
C1300 C1298 1.391 . S
C1300 C1301 1.400 . S
C1301 C1295 1.491 1_655 S
C1301 C1300 1.400 . S
C1301 C1302 1.398 . S
C1302 H1290 0.950 . S
C1302 C1301 1.398 . S
C1302 C1303 1.391 . S
C1303 H1291 0.950 . S
C1303 C1299 1.393 . S
C1303 C1302 1.391 . S
H1304 C1312 0.950 . S
H1305 C1317 0.950 . S
H1306 C1314 0.950 . S
H1307 C1316 0.950 . S
H1308 C1318 0.950 . S
H1309 C1320 0.950 . S
H1310 C1322 0.950 . S
H1311 C1323 0.950 1_545 S
C1312 H1304 0.950 . S
C1312 C1313 1.386 . S
C1312 C1314 1.391 . S
C1313 C1312 1.386 . S
C1313 C1317 1.393 . S
C1314 H1306 0.950 . S
C1314 C1312 1.391 . S
C1314 C1315 1.400 . S
C1315 C1314 1.400 . S
C1315 C1316 1.398 . S
C1315 C1321 1.491 . S
C1316 H1307 0.950 . S
C1316 C1315 1.398 . S
C1316 C1317 1.391 . S
C1317 H1305 0.950 . S
C1317 C1313 1.393 . S
C1317 C1316 1.391 . S
C1318 H1308 0.950 . S
C1318 C1319 1.386 1_565 S
C1318 C1320 1.391 . S
C1319 C1318 1.386 1_545 S
C1319 C1323 1.393 1_545 S
C1320 H1309 0.950 . S
C1320 C1318 1.391 . S
C1320 C1321 1.400 . S
C1321 C1315 1.491 . S
C1321 C1320 1.400 . S
C1321 C1322 1.398 . S
C1322 H1310 0.950 . S
C1322 C1321 1.398 . S
C1322 C1323 1.391 . S
C1323 H1311 0.950 1_565 S
C1323 C1319 1.393 1_565 S
C1323 C1322 1.391 . S
H1324 C1332 0.950 . S
H1325 C1337 0.950 . S
H1326 C1334 0.950 . S
H1327 C1336 0.950 . S
H1328 C1338 0.950 . S
H1329 C1340 0.950 . S
H1330 C1342 0.950 . S
H1331 C1343 0.950 . S
C1332 H1324 0.950 . S
C1332 C1333 1.386 . S
C1332 C1334 1.391 . S
C1333 C1332 1.386 . S
C1333 C1337 1.393 . S
C1334 H1326 0.950 . S
C1334 C1332 1.391 . S
C1334 C1335 1.400 . S
C1335 C1334 1.400 . S
C1335 C1336 1.398 . S
C1335 C1341 1.491 . S
C1336 H1327 0.950 . S
C1336 C1335 1.398 . S
C1336 C1337 1.391 . S
C1337 H1325 0.950 . S
C1337 C1333 1.393 . S
C1337 C1336 1.391 . S
C1338 H1328 0.950 . S
C1338 C1339 1.386 . S
C1338 C1340 1.391 . S
C1339 C1338 1.386 . S
C1339 C1343 1.393 . S
C1340 H1329 0.950 . S
C1340 C1338 1.391 . S
C1340 C1341 1.400 . S
C1341 C1335 1.491 . S
C1341 C1340 1.400 . S
C1341 C1342 1.398 . S
C1342 H1330 0.950 . S
C1342 C1341 1.398 . S
C1342 C1343 1.391 . S
C1343 H1331 0.950 . S
C1343 C1339 1.393 . S
C1343 C1342 1.391 . S
C553 C451 1.092 . S
C559 C9 1.091 . S
C573 C43 1.089 . S
C579 C383 1.089 . S
C593 C77 1.107 . S
C599 C417 1.106 . S
C613 C111 1.106 . S
C619 C349 1.107 . S
C633 C519 1.109 . S
C639 C145 1.108 . S
C653 C179 1.093 . S
C659 C315 1.094 . S
C673 C213 1.103 . S
C679 C485 1.104 . S
C693 C281 1.088 . S
C699 C247 1.088 . S
C713 C20 1.639 . S
C719 C156 1.629 . S
C733 C54 1.637 . S
C739 C190 1.628 . S
C753 C88 1.631 . S
C759 C224 1.630 . S
C773 C258 1.630 . S
C779 C122 1.639 . S
C793 C360 1.628 . S
C799 C292 1.634 . S
C813 C326 1.632 . S
C819 C394 1.641 . S
C833 C496 1.632 . S
C839 C428 1.629 . S
C853 C530 1.636 . S
C859 C462 1.641 . S
C873 C203 1.047 . S
C879 C33 1.023 . S
C893 C67 1.022 . S
C899 C237 1.048 . S
C913 C101 1.028 . S
C919 C271 1.040 . S
C933 C169 1.036 . S
C939 C135 1.033 . S
C953 C138 1.336 . S
C959 C342 1.344 . S
C973 C70 1.365 . S
C979 C274 1.350 . S
C993 C376 1.336 . S
C999 C206 1.359 . S
C1013 C308 1.357 . S
C1019 C2 1.335 . S
C1033 C305 1.027 . S
C1039 C441 1.042 . S
C1053 C543 1.047 . S
C1059 C373 1.024 . S
C1073 C475 1.022 . S
C1079 C339 1.048 . S
C1093 C407 1.030 . S
C1099 C509 1.039 . S
C1113 C478 1.365 . S
C1119 C36 1.347 . S
C1133 C172 1.336 . S
C1139 C444 1.359 . S
C1153 C512 1.360 . S
C1159 C104 1.359 . S
C1173 C240 1.335 . S
C1179 C410 1.346 . S
C1193 C5 0.330 . S
C1199 C447 0.325 . S
C1213 C39 0.342 . S
C1219 C379 0.315 . S
C1233 C73 0.350 . S
C1239 C413 0.317 . S
C1253 C107 0.326 . S
C1259 C345 0.329 . S
C1273 C141 0.321 . S
C1279 C515 0.348 . S
C1293 C175 0.350 . S
C1299 C311 0.314 . S
C1313 C481 0.345 . S
C1319 C209 0.326 . S
C1333 C277 0.332 . S
C1339 C243 0.323 . S
