# Generated by pormake.
# Topology upa, (4)-cn, num edge types: 1
# Building blocks:
#     Node 0, Type 0, BuildingBlock: QUQFOY_clean_sbu_3, # of connection points: 4
#     Node 1, Type 0, BuildingBlock: QUQFOY_clean_sbu_3, # of connection points: 4
#     Node 2, Type 0, BuildingBlock: QUQFOY_clean_sbu_3, # of connection points: 4
#     Node 3, Type 0, BuildingBlock: QUQFOY_clean_sbu_3, # of connection points: 4
#     Node 4, Type 0, BuildingBlock: QUQFOY_clean_sbu_3, # of connection points: 4
#     Node 5, Type 0, BuildingBlock: QUQFOY_clean_sbu_3, # of connection points: 4
#     Node 6, Type 0, BuildingBlock: QUQFOY_clean_sbu_3, # of connection points: 4
#     Node 7, Type 0, BuildingBlock: QUQFOY_clean_sbu_3, # of connection points: 4
#     Edge 8, Type (0, 0), BuildingBlock: UVAHIK_clean_linker_0, # of connection points: 2
#     Edge 9, Type (0, 0), BuildingBlock: UVAHIK_clean_linker_0, # of connection points: 2
#     Edge 10, Type (0, 0), BuildingBlock: UVAHIK_clean_linker_0, # of connection points: 2
#     Edge 11, Type (0, 0), BuildingBlock: UVAHIK_clean_linker_0, # of connection points: 2
#     Edge 12, Type (0, 0), BuildingBlock: UVAHIK_clean_linker_0, # of connection points: 2
#     Edge 13, Type (0, 0), BuildingBlock: UVAHIK_clean_linker_0, # of connection points: 2
#     Edge 14, Type (0, 0), BuildingBlock: UVAHIK_clean_linker_0, # of connection points: 2
#     Edge 15, Type (0, 0), BuildingBlock: UVAHIK_clean_linker_0, # of connection points: 2
#     Edge 16, Type (0, 0), BuildingBlock: UVAHIK_clean_linker_0, # of connection points: 2
#     Edge 17, Type (0, 0), BuildingBlock: UVAHIK_clean_linker_0, # of connection points: 2
#     Edge 18, Type (0, 0), BuildingBlock: UVAHIK_clean_linker_0, # of connection points: 2
#     Edge 19, Type (0, 0), BuildingBlock: UVAHIK_clean_linker_0, # of connection points: 2
#     Edge 20, Type (0, 0), BuildingBlock: UVAHIK_clean_linker_0, # of connection points: 2
#     Edge 21, Type (0, 0), BuildingBlock: UVAHIK_clean_linker_0, # of connection points: 2
#     Edge 22, Type (0, 0), BuildingBlock: UVAHIK_clean_linker_0, # of connection points: 2
#     Edge 23, Type (0, 0), BuildingBlock: UVAHIK_clean_linker_0, # of connection points: 2
# Relax obj value: 0.209
# Max RMSD: 0.130
# Mean RMSD: 0.130
data_MOF--net-upa--node1-QUQFOY_clean_sbu_3--edge1-UVAHIK_clean_linker_0
_symmetry_space_group_name_H-M    P1
_symmetry_Int_Tables_number       1
_symmetry_cell_setting            triclinic
loop_
_symmetry_equiv_pos_as_xyz
'x, y, z'
_cell_length_a     35.013409
_cell_length_b     34.788175
_cell_length_c     58.951396
_cell_angle_alpha  89.799856
_cell_angle_beta   89.747187
_cell_angle_gamma 90.002533
loop_
_atom_site_label
_atom_site_type_symbol
_atom_site_fract_x
_atom_site_fract_y
_atom_site_fract_z
_atom_type_partial_charge
C0 C 0.08185 0.26706 0.30962 0.0
O1 O 0.07562 0.27463 0.33038 0.0
Cd2 Cd 0.11088 0.24753 0.36152 0.0
O3 O 0.11142 0.24805 0.3037 0.0
Cd4 Cd 0.16882 0.2185 0.32193 0.0
C5 C 0.10504 0.15399 0.34268 0.0
O6 O 0.17734 0.25716 0.3562 0.0
O7 O 0.20366 0.20104 0.35608 0.0
O8 O 0.21815 0.24757 0.29783 0.0
C9 C 0.19818 0.23262 0.36626 0.0
O10 O 0.09646 0.17913 0.35754 0.0
C11 C 0.231 0.2159 0.29026 0.0
O12 O 0.12905 0.16128 0.32691 0.0
O13 O 0.21368 0.18552 0.29652 0.0
C14 C 0.20891 0.58364 0.8104 0.0
O15 O 0.19966 0.57786 0.831 0.0
Cd16 Cd 0.2244 0.61352 0.86252 0.0
O17 O 0.22846 0.61318 0.80473 0.0
Cd18 Cd 0.25587 0.67159 0.82355 0.0
C19 C 0.31845 0.60736 0.84535 0.0
O20 O 0.21406 0.68018 0.85664 0.0
O21 O 0.26946 0.707 0.85819 0.0
O22 O 0.23027 0.71769 0.79579 0.0
C23 C 0.23722 0.7013 0.86746 0.0
O24 O 0.2927 0.59893 0.8599 0.0
C25 C 0.26225 0.73373 0.79174 0.0
O26 O 0.31206 0.63137 0.82943 0.0
O27 O 0.29124 0.71965 0.80166 0.0
C28 C 0.88413 0.70933 0.3086 0.0
O29 O 0.88959 0.70198 0.32946 0.0
Cd30 Cd 0.85371 0.72965 0.3602 0.0
O31 O 0.85494 0.72856 0.30232 0.0
Cd32 Cd 0.79716 0.75867 0.32018 0.0
C33 C 0.8605 0.82307 0.34095 0.0
O34 O 0.78741 0.72039 0.35468 0.0
O35 O 0.76171 0.77674 0.35414 0.0
O36 O 0.74791 0.72999 0.29614 0.0
C37 C 0.76665 0.74519 0.36456 0.0
O38 O 0.86855 0.79795 0.35598 0.0
C39 C 0.73566 0.76178 0.28832 0.0
O40 O 0.83699 0.8158 0.32507 0.0
O41 O 0.75331 0.79194 0.2944 0.0
C42 C 0.76278 0.3903 0.81021 0.0
O43 O 0.77051 0.39645 0.83092 0.0
Cd44 Cd 0.74416 0.36072 0.86225 0.0
O45 O 0.74378 0.3606 0.80444 0.0
Cd46 Cd 0.71493 0.30272 0.82318 0.0
C47 C 0.65066 0.36582 0.84446 0.0
O48 O 0.75434 0.2939 0.85695 0.0
O49 O 0.69862 0.26758 0.8579 0.0
O50 O 0.74359 0.25331 0.79902 0.0
C51 C 0.73043 0.27308 0.86758 0.0
O52 O 0.67594 0.37463 0.85905 0.0
C53 C 0.71208 0.24023 0.79169 0.0
O54 O 0.65779 0.34196 0.82862 0.0
O55 O 0.6819 0.25739 0.79816 0.0
C56 C 0.58301 0.20805 0.16452 0.0
O57 O 0.57722 0.20029 0.14377 0.0
Cd58 Cd 0.61297 0.22738 0.11263 0.0
O59 O 0.61241 0.22722 0.17043 0.0
Cd60 Cd 0.67007 0.25681 0.15224 0.0
C61 C 0.60651 0.32101 0.13133 0.0
O62 O 0.67943 0.21828 0.11795 0.0
O63 O 0.70535 0.27459 0.11815 0.0
O64 O 0.71904 0.22773 0.17632 0.0
C65 C 0.70025 0.24302 0.10792 0.0
O66 O 0.5983 0.29574 0.11651 0.0
C67 C 0.73172 0.25939 0.18394 0.0
O68 O 0.63023 0.3139 0.14716 0.0
O69 O 0.71445 0.28977 0.17772 0.0
C70 C 0.26313 0.08177 0.65989 0.0
O71 O 0.26702 0.07691 0.63866 0.0
Cd72 Cd 0.24126 0.11613 0.60902 0.0
O73 O 0.24684 0.11196 0.66755 0.0
Cd74 Cd 0.21649 0.17104 0.65066 0.0
C75 C 0.14929 0.11117 0.6291 0.0
O76 O 0.25458 0.18157 0.61639 0.0
O77 O 0.19936 0.20861 0.61682 0.0
O78 O 0.24579 0.21953 0.67521 0.0
C79 C 0.23083 0.20343 0.60656 0.0
O80 O 0.17301 0.10394 0.61322 0.0
C81 C 0.21441 0.23218 0.68314 0.0
O82 O 0.15839 0.13268 0.6457 0.0
O83 O 0.18419 0.21503 0.67693 0.0
C84 C 0.38529 0.76589 0.16286 0.0
O85 O 0.39095 0.77306 0.14197 0.0
Cd86 Cd 0.35524 0.74504 0.11142 0.0
O87 O 0.35601 0.74675 0.16925 0.0
Cd88 Cd 0.29843 0.71657 0.15158 0.0
C89 C 0.36189 0.65187 0.13107 0.0
O90 O 0.28876 0.75446 0.11692 0.0
O91 O 0.26338 0.69793 0.11779 0.0
O92 O 0.24891 0.74546 0.17559 0.0
C93 C 0.26805 0.72944 0.10727 0.0
O94 O 0.37008 0.67677 0.11589 0.0
C95 C 0.23654 0.71374 0.18349 0.0
O96 O 0.33823 0.65939 0.14694 0.0
O97 O 0.25424 0.68352 0.17747 0.0
C98 C 0.70578 0.8905 0.66327 0.0
O99 O 0.69763 0.89724 0.64266 0.0
Cd100 Cd 0.72421 0.86279 0.61102 0.0
O101 O 0.72512 0.86077 0.66869 0.0
Cd102 Cd 0.75438 0.80362 0.64962 0.0
C103 C 0.81764 0.86876 0.62903 0.0
O104 O 0.71493 0.79572 0.61581 0.0
O105 O 0.77091 0.76985 0.61472 0.0
O106 O 0.72646 0.75328 0.67368 0.0
C107 C 0.73906 0.77538 0.60508 0.0
O108 O 0.79221 0.87777 0.61454 0.0
C109 C 0.75822 0.7405 0.68086 0.0
O110 O 0.81093 0.84398 0.64454 0.0
O111 O 0.7881 0.75817 0.67432 0.0
C112 C 0.06721 0.10347 0.36286 0.0
C113 C 0.08401 0.11722 0.34275 0.0
C114 C 0.04363 0.07114 0.36256 0.0
C115 C 0.01281 -0.01107 0.32643 0.0
H116 H 0.92522 -0.00997 0.36698 0.0
C117 C 0.88797 0.88022 0.32082 0.0
C118 C 0.88126 0.85999 0.34113 0.0
C119 C 0.91155 0.91266 0.32064 0.0
C120 C 0.9496 -0.01058 0.3556 0.0
H121 H 0.08997 0.10754 0.30661 0.0
H122 H 0.0477 0.05199 0.30586 0.0
H123 H 0.97011 0.04354 0.36733 0.0
H124 H 0.89246 0.85872 0.37728 0.0
H125 H 0.93267 0.91614 0.37702 0.0
H126 H -0.0088 0.93513 0.31432 0.0
C127 C 0.05346 0.06541 0.32203 0.0
C128 C 0.97558 0.01985 0.35591 0.0
C129 C 0.07767 0.09735 0.32242 0.0
C130 C 0.89721 0.87372 0.36138 0.0
C131 C 0.9201 0.90656 0.36126 0.0
C132 C -0.0136 0.95883 0.32587 0.0
C133 C 0.0356 0.05225 0.34205 0.0
C134 C 0.00778 0.01986 0.34149 0.0
C135 C 0.92807 0.92584 0.34083 0.0
C136 C 0.95478 0.9587 0.34057 0.0
H137 H 0.07191 0.11803 0.37882 0.0
H138 H 0.03136 0.06126 0.37843 0.0
H139 H 0.03747 -0.01245 0.31533 0.0
H140 H 0.87625 0.87013 0.30494 0.0
H141 H 0.91717 0.92726 0.30471 0.0
C142 C 0.36773 0.56931 0.86616 0.0
C143 C 0.35499 0.58623 0.84591 0.0
C144 C 0.40021 0.54602 0.86626 0.0
C145 C 0.48423 0.51688 0.83098 0.0
H146 H 0.48349 0.42854 0.87133 0.0
C147 C 0.59314 0.39232 0.82488 0.0
C148 C 0.6137 0.38618 0.84499 0.0
C149 C 0.56059 0.41558 0.82495 0.0
C150 C 0.48399 0.45314 0.86002 0.0
H151 H 0.36644 0.59253 0.80994 0.0
H152 H 0.42211 0.55074 0.80985 0.0
H153 H 0.42951 0.47279 0.87148 0.0
H154 H 0.61546 0.398 0.88107 0.0
H155 H 0.55776 0.43763 0.88126 0.0
H156 H 0.53831 0.49606 0.81906 0.0
C157 C 0.40789 0.55624 0.82585 0.0
C158 C 0.45328 0.47877 0.86021 0.0
C159 C 0.37584 0.58016 0.82585 0.0
C160 C 0.6002 0.40232 0.86532 0.0
C161 C 0.56721 0.42488 0.86546 0.0
C162 C 0.51456 0.49082 0.8305 0.0
C163 C 0.42024 0.53843 0.84601 0.0
C164 C 0.45308 0.51117 0.8458 0.0
C165 C 0.54764 0.43233 0.8452 0.0
C166 C 0.51475 0.45889 0.84509 0.0
H167 H 0.35236 0.57378 0.88192 0.0
H168 H 0.40937 0.53374 0.88224 0.0
H169 H 0.48554 0.54177 0.81993 0.0
H170 H 0.60303 0.38043 0.80895 0.0
H171 H 0.54574 0.42082 0.80915 0.0
C172 C 0.56913 0.3713 0.11089 0.0
C173 C 0.58542 0.35773 0.13109 0.0
C174 C 0.54551 0.40361 0.111 0.0
C175 C 0.5138 0.48614 0.14674 0.0
H176 H 0.42722 0.48462 0.1059 0.0
C177 C 0.38895 0.59499 0.15151 0.0
C178 C 0.38268 0.61497 0.13109 0.0
C179 C 0.4125 0.56254 0.15189 0.0
C180 C 0.45131 0.48535 0.11736 0.0
H181 H 0.59048 0.3677 0.16722 0.0
H182 H 0.54814 0.42323 0.16766 0.0
H183 H 0.47208 0.43109 0.10592 0.0
H184 H 0.39467 0.61578 0.09497 0.0
H185 H 0.43487 0.55835 0.09558 0.0
H186 H 0.49194 0.54009 0.15857 0.0
C187 C 0.55431 0.40968 0.15155 0.0
C188 C 0.47728 0.4549 0.11726 0.0
C189 C 0.57856 0.37775 0.15134 0.0
C190 C 0.39907 0.60098 0.11095 0.0
C191 C 0.42196 0.56813 0.11127 0.0
C192 C 0.4874 0.51626 0.1471 0.0
C193 C 0.53696 0.42266 0.13143 0.0
C194 C 0.50912 0.45504 0.13179 0.0
C195 C 0.42946 0.54911 0.1318 0.0
C196 C 0.45615 0.51624 0.13228 0.0
H197 H 0.57424 0.35663 0.09498 0.0
H198 H 0.53364 0.41335 0.09506 0.0
H199 H 0.53819 0.48763 0.15793 0.0
H200 H 0.37687 0.60526 0.16731 0.0
H201 H 0.41775 0.54813 0.16789 0.0
C202 C 0.09344 0.08236 0.64958 0.0
C203 C 0.1121 0.09119 0.62909 0.0
C204 C 0.06116 0.05869 0.64974 0.0
C205 C 0.01261 0.986 0.61377 0.0
H206 H 0.93123 -0.00321 0.6581 0.0
C207 C 0.86692 0.90817 0.60885 0.0
C208 C 0.85424 0.88985 0.62879 0.0
C209 C 0.89956 0.93121 0.60907 0.0
C210 C 0.95398 -0.00667 0.64576 0.0
H211 H 0.11035 0.08431 0.59259 0.0
H212 H 0.05306 0.04476 0.59268 0.0
H213 H 0.98383 0.04284 0.65772 0.0
H214 H 0.86605 0.88083 0.66451 0.0
H215 H 0.92284 0.92191 0.66492 0.0
H216 H 0.98177 0.93722 0.60138 0.0
C217 C 0.06412 0.05459 0.60878 0.0
C218 C 0.98418 0.01962 0.64555 0.0
C219 C 0.09675 0.07761 0.60867 0.0
C220 C 0.87529 0.8944 0.64885 0.0
C221 C 0.90755 0.91808 0.64915 0.0
C222 C 0.98211 0.96017 0.61376 0.0
C223 C 0.04648 0.0439 0.62935 0.0
C224 C 0.01392 0.01633 0.62952 0.0
C225 C 0.91972 0.93693 0.6293 0.0
C226 C 0.95258 0.96358 0.62977 0.0
H227 H 0.10484 0.09216 0.66561 0.0
H228 H 0.04869 0.05084 0.66594 0.0
H229 H 0.03538 0.98184 0.60154 0.0
H230 H 0.8513 0.90514 0.59314 0.0
H231 H 0.90835 0.94558 0.59357 0.0
C232 C 0.19042 0.26329 0.40444 0.0
C233 C 0.20939 0.23707 0.39026 0.0
C234 C 0.19804 0.26402 0.42773 0.0
C235 C 0.23711 0.20117 0.47301 0.0
H236 H 0.22908 0.29329 0.50955 0.0
C237 C 0.26455 0.198 0.56913 0.0
C238 C 0.2354 0.21438 0.58241 0.0
C239 C 0.26597 0.2046 0.54573 0.0
C240 C 0.23138 0.26736 0.49953 0.0
H241 H 0.25282 0.19275 0.38901 0.0
H242 H 0.26721 0.19499 0.42934 0.0
H243 H 0.2239 0.29801 0.4683 0.0
H244 H 0.18615 0.25215 0.5818 0.0
H245 H 0.18888 0.26393 0.54095 0.0
H246 H 0.24461 0.17058 0.50421 0.0
C247 C 0.24545 0.21407 0.42276 0.0
C248 C 0.22825 0.26998 0.4759 0.0
C249 C 0.23743 0.21297 0.39959 0.0
C250 C 0.20887 0.23902 0.572 0.0
C251 C 0.21054 0.24593 0.54863 0.0
C252 C 0.24064 0.19864 0.49654 0.0
C253 C 0.22515 0.23887 0.43728 0.0
C254 C 0.2307 0.23683 0.46233 0.0
C255 C 0.23855 0.22805 0.53518 0.0
C256 C 0.23745 0.23161 0.51008 0.0
H257 H 0.16852 0.28209 0.39774 0.0
H258 H 0.18153 0.28323 0.43834 0.0
H259 H 0.23827 0.17485 0.46328 0.0
H260 H 0.28546 0.17893 0.57665 0.0
H261 H 0.28813 0.19078 0.53581 0.0
C262 C 0.20207 0.69351 0.90437 0.0
C263 C 0.23081 0.71162 0.89151 0.0
C264 C 0.19942 0.6997 0.92777 0.0
C265 C 0.2297 0.7637 0.97437 0.0
H266 H 0.22737 0.67059 0.01064 0.0
C267 C 0.2734 0.76048 0.06892 0.0
C268 C 0.25599 0.73343 0.08336 0.0
C269 C 0.26498 0.76104 0.04572 0.0
C270 C 0.22722 0.69703 0.0009 0.0
H271 H 0.27793 0.752 0.89282 0.0
H272 H 0.27304 0.76306 0.93357 0.0
H273 H 0.2209 0.66646 0.96971 0.0
H274 H 0.21446 0.68732 0.08517 0.0
H275 H 0.19871 0.68916 0.045 0.0
H276 H 0.23617 0.79431 0.00556 0.0
C277 C 0.25264 0.74403 0.92562 0.0
C278 C 0.22358 0.69459 0.97737 0.0
C279 C 0.25556 0.73752 0.9023 0.0
C280 C 0.22866 0.70822 0.07439 0.0
C281 C 0.21986 0.70911 0.0513 0.0
C282 C 0.23295 0.7662 -0.00202 0.0
C283 C 0.22513 0.72449 0.9387 0.0
C284 C 0.22532 0.72781 0.96381 0.0
C285 C 0.23859 0.73486 0.03653 0.0
C286 C 0.2323 0.73283 0.01155 0.0
H287 H 0.18258 0.67339 0.89654 0.0
H288 H 0.1777 0.68453 0.93741 0.0
H289 H 0.23081 0.78983 0.96434 0.0
H290 H 0.29472 0.78016 0.07533 0.0
H291 H 0.28033 0.781 0.0349 0.0
C292 C 0.70446 0.78235 0.56813 0.0
C293 C 0.73369 0.76525 0.58094 0.0
C294 C 0.70217 0.77602 0.54476 0.0
C295 C 0.73386 0.7124 0.49831 0.0
H296 H 0.72806 0.80474 0.4615 0.0
C297 C 0.77386 0.71477 0.40293 0.0
C298 C 0.75536 0.74123 0.38866 0.0
C299 C 0.76635 0.71445 0.42628 0.0
C300 C 0.72889 0.77848 0.4714 0.0
H301 H 0.78225 0.72664 0.57951 0.0
H302 H 0.77797 0.7153 0.53876 0.0
H303 H 0.72266 0.80945 0.5025 0.0
H304 H 0.71288 0.78646 0.38738 0.0
H305 H 0.69868 0.78494 0.42784 0.0
H306 H 0.74008 0.68136 0.46721 0.0
C307 C 0.75692 0.73365 0.54677 0.0
C308 C 0.72589 0.78127 0.49497 0.0
C309 C 0.75948 0.74033 0.57008 0.0
C310 C 0.72789 0.76601 0.39801 0.0
C311 C 0.71998 0.76533 0.42126 0.0
C312 C 0.73643 0.70953 0.47467 0.0
C313 C 0.72875 0.75208 0.53378 0.0
C314 C 0.72881 0.74835 0.50869 0.0
C315 C 0.73982 0.74025 0.43582 0.0
C316 C 0.73446 0.74261 0.4609 0.0
H317 H 0.68414 0.80169 0.57601 0.0
H318 H 0.67994 0.79032 0.53519 0.0
H319 H 0.73588 0.6865 0.50848 0.0
H320 H 0.79534 0.69544 0.39623 0.0
H321 H 0.78255 0.69499 0.43692 0.0
C322 C 0.70986 0.23759 0.90251 0.0
C323 C 0.73573 0.26262 0.8917 0.0
C324 C 0.71222 0.23075 0.92584 0.0
C325 C 0.74273 0.27832 0.97756 0.0
H326 H 0.72775 0.17852 0.00572 0.0
C327 C 0.73956 0.26334 0.07454 0.0
C328 C 0.71176 0.23881 0.08389 0.0
C329 C 0.74776 0.26249 0.05134 0.0
C330 C 0.73163 0.20666 -0.00185 0.0
H331 H 0.78527 0.29902 0.8967 0.0
H332 H 0.78913 0.28731 0.93755 0.0
H333 H 0.73254 0.18357 0.96445 0.0
H334 H 0.67157 0.19325 0.07643 0.0
H335 H 0.68492 0.19252 0.0358 0.0
H336 H 0.74023 0.30186 0.0109 0.0
C337 C 0.76699 0.27308 0.92794 0.0
C338 C 0.73454 0.20948 0.97451 0.0
C339 C 0.76489 0.2796 0.90455 0.0
C340 C 0.69328 0.2124 0.06971 0.0
C341 C 0.70109 0.2119 0.0464 0.0
C342 C 0.73942 0.27559 0.00112 0.0
C343 C 0.74028 0.24911 0.93888 0.0
C344 C 0.73987 0.24539 0.96398 0.0
C345 C 0.72792 0.23749 0.03684 0.0
C346 C 0.73357 0.23976 0.01177 0.0
H347 H 0.68717 0.224 0.89306 0.0
H348 H 0.69107 0.21237 0.93382 0.0
H349 H 0.74616 0.30648 0.96992 0.0
H350 H 0.75457 0.28372 0.08512 0.0
H351 H 0.76929 0.28192 0.04474 0.0
C352 C 0.54795 0.22426 0.20033 0.0
C353 C 0.55194 0.20063 0.18116 0.0
C354 C 0.51449 0.2232 0.21338 0.0
C355 C 0.4297 0.16756 0.22877 0.0
H356 H 0.37875 0.26634 0.23213 0.0
C357 C 0.27582 0.1809 0.26417 0.0
C358 C 0.26627 0.21423 0.27632 0.0
C359 C 0.31059 0.17842 0.25243 0.0
C360 C 0.39271 0.23859 0.23181 0.0
H361 H 0.52507 0.15543 0.16164 0.0
H362 H 0.46713 0.15271 0.185 0.0
H363 H 0.44127 0.26168 0.2142 0.0
H364 H 0.28572 0.27107 0.28574 0.0
H365 H 0.34673 0.26633 0.26622 0.0
H366 H 0.38197 0.14446 0.24698 0.0
C367 C 0.48972 0.17241 0.18965 0.0
C368 C 0.42857 0.23597 0.22141 0.0
C369 C 0.52288 0.17399 0.17631 0.0
C370 C 0.29203 0.24516 0.27631 0.0
C371 C 0.32708 0.24243 0.26496 0.0
C372 C 0.39412 0.17026 0.23961 0.0
C373 C 0.48469 0.19794 0.20782 0.0
C374 C 0.44736 0.20045 0.21973 0.0
C375 C 0.33704 0.20895 0.25291 0.0
C376 C 0.37498 0.20583 0.24123 0.0
H377 H 0.56963 0.24528 0.20447 0.0
H378 H 0.51139 0.24297 0.22743 0.0
H379 H 0.44369 0.13984 0.22772 0.0
H380 H 0.25646 0.15662 0.26381 0.0
H381 H 0.31662 0.15249 0.24298 0.0
C382 C 0.29921 0.79045 0.77717 0.0
C383 C 0.26537 0.76865 0.77735 0.0
C384 C 0.30142 0.82494 0.76495 0.0
C385 C 0.25893 0.87735 0.71722 0.0
H386 H 0.30116 0.96811 0.74586 0.0
C387 C 0.28804 0.01515 0.66632 0.0
C388 C 0.27259 0.04924 0.67532 0.0
C389 C 0.29049 0.98188 0.67954 0.0
C390 C 0.28927 0.94301 0.73768 0.0
H391 H 0.20753 0.76569 0.76449 0.0
H392 H 0.21166 0.82561 0.7428 0.0
H393 H 0.29775 0.90742 0.76703 0.0
H394 H 0.24992 0.07549 0.70587 0.0
H395 H 0.25478 0.01724 0.72911 0.0
H396 H 0.25038 0.91274 0.68791 0.0
C397 C 0.23642 0.81601 0.7522 0.0
C398 C 0.28756 0.90824 0.74971 0.0
C399 C 0.23404 0.78174 0.76465 0.0
C400 C 0.26198 0.04981 0.69837 0.0
C401 C 0.26472 0.01643 0.71169 0.0
C402 C 0.26109 0.91191 0.70512 0.0
C403 C 0.27001 0.83819 0.75241 0.0
C404 C 0.27224 0.87506 0.73962 0.0
C405 C 0.27786 0.98181 0.70217 0.0
C406 C 0.27625 0.94514 0.7152 0.0
H407 H 0.32384 0.78126 0.78683 0.0
H408 H 0.32782 0.84117 0.76523 0.0
H409 H 0.24719 0.85225 0.70895 0.0
H410 H 0.29681 0.01359 0.6487 0.0
H411 H 0.30143 0.95584 0.67186 0.0
C412 C 0.69169 0.79745 0.26211 0.0
C413 C 0.70064 0.76388 0.27433 0.0
C414 C 0.65708 0.80045 0.2504 0.0
C415 C 0.55891 0.76617 0.25151 0.0
H416 H 0.5554 0.79461 0.18795 0.0
C417 C 0.42138 0.7508 0.19836 0.0
C418 C 0.41631 0.77427 0.17917 0.0
C419 C 0.45482 0.75324 0.21121 0.0
C420 C 0.55556 0.78749 0.20583 0.0
H421 H 0.68041 0.70707 0.28374 0.0
H422 H 0.61965 0.71272 0.26369 0.0
H423 H 0.61669 0.79122 0.20724 0.0
H424 H 0.44105 0.82069 0.15941 0.0
H425 H 0.49826 0.82656 0.1825 0.0
H426 H 0.49796 0.76338 0.2505 0.0
C427 C 0.63957 0.73655 0.26306 0.0
C428 C 0.59086 0.78525 0.21681 0.0
C429 C 0.67446 0.73323 0.27438 0.0
C430 C 0.44423 0.80201 0.17402 0.0
C431 C 0.47733 0.80498 0.18713 0.0
C432 C 0.52353 0.76912 0.24068 0.0
C433 C 0.63042 0.77027 0.25109 0.0
C434 C 0.59291 0.77407 0.23966 0.0
C435 C 0.48378 0.77972 0.20545 0.0
C436 C 0.52129 0.77933 0.21757 0.0
H437 H 0.71125 0.82157 0.26178 0.0
H438 H 0.65069 0.82678 0.24132 0.0
H439 H 0.55969 0.75799 0.26925 0.0
H440 H 0.40064 0.72882 0.20265 0.0
H441 H 0.45862 0.7329 0.22495 0.0
C442 C 0.74142 0.17936 0.77738 0.0
C443 C 0.71045 0.20498 0.7777 0.0
C444 C 0.73888 0.14438 0.76587 0.0
C445 C 0.66755 0.07692 0.7405 0.0
H446 H 0.75847 0.03154 0.71407 0.0
C447 C 0.67147 0.95002 0.676 0.0
C448 C 0.69843 0.92092 0.6803 0.0
C449 C 0.6698 0.98277 0.6897 0.0
C450 C 0.73291 0.04374 0.72157 0.0
H451 H 0.6529 0.21461 0.76561 0.0
H452 H 0.64905 0.15459 0.74451 0.0
H453 H 0.76269 0.09383 0.73251 0.0
H454 H 0.74358 0.90269 0.70301 0.0
H455 H 0.74108 0.96026 0.72662 0.0
H456 H 0.6377 0.02713 0.72839 0.0
C457 C 0.67491 0.16066 0.75383 0.0
C458 C 0.73528 0.07945 0.73226 0.0
C459 C 0.67721 0.19535 0.76574 0.0
C460 C 0.72232 0.9244 0.6993 0.0
C461 C 0.72115 0.95749 0.71271 0.0
C462 C 0.66509 0.04149 0.72938 0.0
C463 C 0.70553 0.13437 0.75397 0.0
C464 C 0.70269 0.09656 0.74204 0.0
C465 C 0.69553 -0.01262 0.7077 0.0
C466 C 0.69782 0.02446 0.71996 0.0
H467 H 0.76728 0.18573 0.78667 0.0
H468 H 0.76285 0.12482 0.76686 0.0
H469 H 0.6419 0.08858 0.74814 0.0
H470 H 0.65271 0.94821 0.66148 0.0
H471 H 0.64982 0.00544 0.68546 0.0
C472 C 0.04742 0.25096 0.27376 0.0
C473 C 0.05108 0.27454 0.29297 0.0
C474 C 0.01417 0.25204 0.2607 0.0
C475 C 0.92957 0.30767 0.24536 0.0
H476 H 0.87871 0.20887 0.24193 0.0
C477 C 0.77616 0.29434 0.21005 0.0
C478 C 0.76679 0.26104 0.19787 0.0
C479 C 0.81077 0.2968 0.22177 0.0
C480 C 0.89266 0.23663 0.24227 0.0
H481 H 0.02387 0.31966 0.31251 0.0
H482 H 0.96632 0.32242 0.28914 0.0
H483 H 0.94099 0.21351 0.25984 0.0
H484 H 0.78641 0.20424 0.18836 0.0
H485 H 0.84716 0.20897 0.20785 0.0
H486 H 0.88206 0.33079 0.2272 0.0
C487 C -0.01101 0.30275 0.28447 0.0
C488 C 0.92837 0.23923 0.25266 0.0
C489 C 0.02193 0.30115 0.29783 0.0
C490 C 0.79258 0.23013 0.19783 0.0
C491 C 0.82747 0.23285 0.20915 0.0
C492 C 0.89413 0.30498 0.23453 0.0
C493 C -0.01573 0.27726 0.26627 0.0
C494 C 0.94712 0.27476 0.25436 0.0
C495 C 0.83725 0.26629 0.22124 0.0
C496 C 0.87503 0.2694 0.23289 0.0
H497 H 0.06917 0.22996 0.26962 0.0
H498 H 0.0113 0.23231 0.24663 0.0
H499 H 0.94352 0.33539 0.24643 0.0
H500 H 0.75678 0.3186 0.21045 0.0
H501 H 0.81666 0.3227 0.23125 0.0
C502 C 0.24387 0.29279 0.69782 0.0
C503 C 0.21281 0.26718 0.69739 0.0
C504 C 0.24105 0.32781 0.70931 0.0
C505 C 0.19131 0.37746 0.75511 0.0
H506 H 0.21795 0.47079 0.72255 0.0
C507 C 0.17346 0.52492 0.79785 0.0
C508 C 0.20194 0.55258 0.79376 0.0
C509 C 0.17128 0.49176 0.78455 0.0
C510 C 0.21086 0.44508 0.73206 0.0
H511 H 0.15488 0.25771 0.70928 0.0
H512 H 0.15045 0.31848 0.72998 0.0
H513 H 0.22314 0.40878 0.7036 0.0
H514 H 0.24965 0.56773 0.77197 0.0
H515 H 0.24683 0.50954 0.74933 0.0
H516 H 0.18058 0.41304 0.78387 0.0
C517 C 0.17677 0.31154 0.72118 0.0
C518 C 0.21372 0.40953 0.72112 0.0
C519 C 0.17931 0.27681 0.70933 0.0
C520 C 0.22708 0.54718 0.77541 0.0
C521 C 0.22539 0.51365 0.76238 0.0
C522 C 0.18909 0.41289 0.7662 0.0
C523 C 0.20738 0.33767 0.72096 0.0
C524 C 0.20404 0.37537 0.73255 0.0
C525 C 0.19805 0.48495 0.76711 0.0
C526 C 0.19887 0.44731 0.75487 0.0
H527 H 0.27 0.28632 0.6887 0.0
H528 H 0.26521 0.34728 0.70905 0.0
H529 H 0.18398 0.35152 0.76438 0.0
H530 H 0.15349 0.52837 0.81178 0.0
H531 H 0.14906 0.47105 0.78835 0.0
C532 C 0.19209 0.67815 0.20968 0.0
C533 C 0.20132 0.71172 0.19748 0.0
C534 C 0.15726 0.67518 0.22132 0.0
C535 C 0.05917 0.70972 0.22009 0.0
H536 H 0.05436 0.68055 0.28352 0.0
C537 C 0.92074 0.72476 0.27316 0.0
C538 C 0.91529 0.70102 0.29223 0.0
C539 C 0.95436 0.72241 0.26031 0.0
C540 C 0.05489 0.68788 0.26567 0.0
H541 H 0.18136 0.76858 0.18807 0.0
H542 H 0.12022 0.76299 0.20803 0.0
H543 H 0.11603 0.68405 0.26435 0.0
H544 H 0.93953 0.6542 0.31174 0.0
H545 H -0.00292 0.64848 0.28865 0.0
H546 H -0.00179 0.71263 0.221 0.0
C547 C 0.14009 0.73914 0.20867 0.0
C548 C 0.0904 0.69019 0.25476 0.0
C549 C 0.1752 0.74242 0.19741 0.0
C550 C 0.94301 0.67309 0.29723 0.0
C551 C 0.9763 0.6702 0.28412 0.0
C552 C 0.02357 0.70673 0.23084 0.0
C553 C 0.13066 0.7054 0.2206 0.0
C554 C 0.09292 0.70161 0.23196 0.0
C555 C 0.98314 0.69574 0.26596 0.0
C556 C 0.02087 0.69623 0.2539 0.0
H557 H 0.21161 0.654 0.21001 0.0
H558 H 0.15065 0.64884 0.23037 0.0
H559 H 0.06031 0.71809 0.20238 0.0
H560 H 0.90014 0.7469 0.26899 0.0
H561 H 0.95847 0.74294 0.24669 0.0
C562 C 0.79865 0.44907 0.79772 0.0
C563 C 0.77068 0.42111 0.7934 0.0
C564 C 0.80148 0.48199 0.78412 0.0
C565 C 0.7647 0.52742 0.73051 0.0
H566 H 0.78862 0.62177 0.76232 0.0
C567 C 0.72985 0.67907 0.69544 0.0
C568 C 0.76053 0.70514 0.69486 0.0
C569 C 0.73312 0.64404 0.707 0.0
C570 C 0.78214 0.5956 0.7532 0.0
H571 H 0.72461 0.40516 0.77089 0.0
H572 H 0.72846 0.46291 0.74773 0.0
H573 H 0.79182 0.56058 0.78241 0.0
H574 H 0.81829 0.7154 0.70649 0.0
H575 H 0.82346 0.65461 0.72737 0.0
H576 H 0.75329 0.56319 0.70159 0.0
C577 C 0.74907 0.45923 0.76119 0.0
C578 C 0.78426 0.56036 0.76463 0.0
C579 C 0.74676 0.42595 0.77454 0.0
C580 C 0.79416 0.69591 0.70664 0.0
C581 C 0.79713 0.66119 0.7186 0.0
C582 C 0.76189 0.56277 0.71922 0.0
C583 C 0.77585 0.48825 0.76612 0.0
C584 C 0.77547 0.52567 0.75349 0.0
C585 C 0.76685 0.63468 0.7186 0.0
C586 C 0.77047 0.59719 0.73048 0.0
H587 H 0.81767 0.44604 0.81206 0.0
H588 H 0.82328 0.50295 0.7881 0.0
H589 H 0.75844 0.5015 0.72113 0.0
H590 H 0.70364 0.68524 0.68644 0.0
H591 H 0.70924 0.62424 0.70692 0.0
loop_
_geom_bond_atom_site_label_1
_geom_bond_atom_site_label_2
_geom_bond_distance
_geom_bond_site_symmetry_2
_ccdc_geom_bond_type
C0 O1 1.306 . S
C0 O3 1.160 . S
O1 C0 1.306 . S
O1 Cd2 2.228 . S
Cd2 O1 2.228 . S
Cd2 O6 2.273 . S
Cd2 O10 2.277 . S
O3 C0 1.160 . S
O3 Cd4 2.203 . S
Cd4 O3 2.203 . S
Cd4 O6 2.411 . S
Cd4 O7 2.333 . S
Cd4 O8 2.352 . S
Cd4 O12 2.277 . S
Cd4 O13 2.356 . S
C5 O10 1.209 . S
C5 O12 1.226 . S
O6 Cd2 2.273 . S
O6 Cd4 2.411 . S
O6 C9 1.320 . S
O7 Cd4 2.333 . S
O7 C9 1.214 . S
O8 Cd4 2.352 . S
O8 C11 1.258 . S
C9 O6 1.320 . S
C9 O7 1.214 . S
O10 Cd2 2.277 . S
O10 C5 1.209 . S
C11 O8 1.258 . S
C11 O13 1.282 . S
O12 Cd4 2.277 . S
O12 C5 1.226 . S
O13 Cd4 2.356 . S
O13 C11 1.282 . S
C14 O15 1.306 . S
C14 O17 1.160 . S
O15 C14 1.306 . S
O15 Cd16 2.228 . S
Cd16 O15 2.228 . S
Cd16 O20 2.273 . S
Cd16 O24 2.277 . S
O17 C14 1.160 . S
O17 Cd18 2.203 . S
Cd18 O17 2.203 . S
Cd18 O20 2.411 . S
Cd18 O21 2.333 . S
Cd18 O22 2.352 . S
Cd18 O26 2.277 . S
Cd18 O27 2.356 . S
C19 O24 1.209 . S
C19 O26 1.226 . S
O20 Cd16 2.273 . S
O20 Cd18 2.411 . S
O20 C23 1.320 . S
O21 Cd18 2.333 . S
O21 C23 1.214 . S
O22 Cd18 2.352 . S
O22 C25 1.258 . S
C23 O20 1.320 . S
C23 O21 1.214 . S
O24 Cd16 2.277 . S
O24 C19 1.209 . S
C25 O22 1.258 . S
C25 O27 1.282 . S
O26 Cd18 2.277 . S
O26 C19 1.226 . S
O27 Cd18 2.356 . S
O27 C25 1.282 . S
C28 O29 1.306 . S
C28 O31 1.160 . S
O29 C28 1.306 . S
O29 Cd30 2.228 . S
Cd30 O29 2.228 . S
Cd30 O34 2.273 . S
Cd30 O38 2.277 . S
O31 C28 1.160 . S
O31 Cd32 2.203 . S
Cd32 O31 2.203 . S
Cd32 O34 2.411 . S
Cd32 O35 2.333 . S
Cd32 O36 2.352 . S
Cd32 O40 2.277 . S
Cd32 O41 2.356 . S
C33 O38 1.209 . S
C33 O40 1.226 . S
O34 Cd30 2.273 . S
O34 Cd32 2.411 . S
O34 C37 1.320 . S
O35 Cd32 2.333 . S
O35 C37 1.214 . S
O36 Cd32 2.352 . S
O36 C39 1.258 . S
C37 O34 1.320 . S
C37 O35 1.214 . S
O38 Cd30 2.277 . S
O38 C33 1.209 . S
C39 O36 1.258 . S
C39 O41 1.282 . S
O40 Cd32 2.277 . S
O40 C33 1.226 . S
O41 Cd32 2.356 . S
O41 C39 1.282 . S
C42 O43 1.306 . S
C42 O45 1.160 . S
O43 C42 1.306 . S
O43 Cd44 2.228 . S
Cd44 O43 2.228 . S
Cd44 O48 2.273 . S
Cd44 O52 2.277 . S
O45 C42 1.160 . S
O45 Cd46 2.203 . S
Cd46 O45 2.203 . S
Cd46 O48 2.411 . S
Cd46 O49 2.333 . S
Cd46 O50 2.352 . S
Cd46 O54 2.277 . S
Cd46 O55 2.356 . S
C47 O52 1.209 . S
C47 O54 1.226 . S
O48 Cd44 2.273 . S
O48 Cd46 2.411 . S
O48 C51 1.320 . S
O49 Cd46 2.333 . S
O49 C51 1.214 . S
O50 Cd46 2.352 . S
O50 C53 1.258 . S
C51 O48 1.320 . S
C51 O49 1.214 . S
O52 Cd44 2.277 . S
O52 C47 1.209 . S
C53 O50 1.258 . S
C53 O55 1.282 . S
O54 Cd46 2.277 . S
O54 C47 1.226 . S
O55 Cd46 2.356 . S
O55 C53 1.282 . S
C56 O57 1.306 . S
C56 O59 1.160 . S
O57 C56 1.306 . S
O57 Cd58 2.228 . S
Cd58 O57 2.228 . S
Cd58 O62 2.273 . S
Cd58 O66 2.277 . S
O59 C56 1.160 . S
O59 Cd60 2.203 . S
Cd60 O59 2.203 . S
Cd60 O62 2.411 . S
Cd60 O63 2.333 . S
Cd60 O64 2.352 . S
Cd60 O68 2.277 . S
Cd60 O69 2.356 . S
C61 O66 1.209 . S
C61 O68 1.226 . S
O62 Cd58 2.273 . S
O62 Cd60 2.411 . S
O62 C65 1.320 . S
O63 Cd60 2.333 . S
O63 C65 1.214 . S
O64 Cd60 2.352 . S
O64 C67 1.258 . S
C65 O62 1.320 . S
C65 O63 1.214 . S
O66 Cd58 2.277 . S
O66 C61 1.209 . S
C67 O64 1.258 . S
C67 O69 1.282 . S
O68 Cd60 2.277 . S
O68 C61 1.226 . S
O69 Cd60 2.356 . S
O69 C67 1.282 . S
C70 O71 1.306 . S
C70 O73 1.160 . S
O71 C70 1.306 . S
O71 Cd72 2.228 . S
Cd72 O71 2.228 . S
Cd72 O76 2.273 . S
Cd72 O80 2.277 . S
O73 C70 1.160 . S
O73 Cd74 2.203 . S
Cd74 O73 2.203 . S
Cd74 O76 2.411 . S
Cd74 O77 2.333 . S
Cd74 O78 2.352 . S
Cd74 O82 2.277 . S
Cd74 O83 2.356 . S
C75 O80 1.209 . S
C75 O82 1.226 . S
O76 Cd72 2.273 . S
O76 Cd74 2.411 . S
O76 C79 1.320 . S
O77 Cd74 2.333 . S
O77 C79 1.214 . S
O78 Cd74 2.352 . S
O78 C81 1.258 . S
C79 O76 1.320 . S
C79 O77 1.214 . S
O80 Cd72 2.277 . S
O80 C75 1.209 . S
C81 O78 1.258 . S
C81 O83 1.282 . S
O82 Cd74 2.277 . S
O82 C75 1.226 . S
O83 Cd74 2.356 . S
O83 C81 1.282 . S
C84 O85 1.306 . S
C84 O87 1.160 . S
O85 C84 1.306 . S
O85 Cd86 2.228 . S
Cd86 O85 2.228 . S
Cd86 O90 2.273 . S
Cd86 O94 2.277 . S
O87 C84 1.160 . S
O87 Cd88 2.203 . S
Cd88 O87 2.203 . S
Cd88 O90 2.411 . S
Cd88 O91 2.333 . S
Cd88 O92 2.352 . S
Cd88 O96 2.277 . S
Cd88 O97 2.356 . S
C89 O94 1.209 . S
C89 O96 1.226 . S
O90 Cd86 2.273 . S
O90 Cd88 2.411 . S
O90 C93 1.320 . S
O91 Cd88 2.333 . S
O91 C93 1.214 . S
O92 Cd88 2.352 . S
O92 C95 1.258 . S
C93 O90 1.320 . S
C93 O91 1.214 . S
O94 Cd86 2.277 . S
O94 C89 1.209 . S
C95 O92 1.258 . S
C95 O97 1.282 . S
O96 Cd88 2.277 . S
O96 C89 1.226 . S
O97 Cd88 2.356 . S
O97 C95 1.282 . S
C98 O99 1.306 . S
C98 O101 1.160 . S
O99 C98 1.306 . S
O99 Cd100 2.228 . S
Cd100 O99 2.228 . S
Cd100 O104 2.273 . S
Cd100 O108 2.277 . S
O101 C98 1.160 . S
O101 Cd102 2.203 . S
Cd102 O101 2.203 . S
Cd102 O104 2.411 . S
Cd102 O105 2.333 . S
Cd102 O106 2.352 . S
Cd102 O110 2.277 . S
Cd102 O111 2.356 . S
C103 O108 1.209 . S
C103 O110 1.226 . S
O104 Cd100 2.273 . S
O104 Cd102 2.411 . S
O104 C107 1.320 . S
O105 Cd102 2.333 . S
O105 C107 1.214 . S
O106 Cd102 2.352 . S
O106 C109 1.258 . S
C107 O104 1.320 . S
C107 O105 1.214 . S
O108 Cd100 2.277 . S
O108 C103 1.209 . S
C109 O106 1.258 . S
C109 O111 1.282 . S
O110 Cd102 2.277 . S
O110 C103 1.226 . S
O111 Cd102 2.356 . S
O111 C109 1.282 . S
C112 C113 1.349 . S
C112 C114 1.327 . S
C112 H137 0.950 . S
C113 C112 1.349 . S
C113 C129 1.349 . S
C114 C112 1.327 . S
C114 C133 1.429 . S
C114 H138 0.950 . S
C115 C132 1.574 1_545 S
C115 C134 1.368 . S
C115 H139 0.949 . S
H116 C120 0.949 . S
C117 C118 1.349 . S
C117 C119 1.327 . S
C117 H140 0.950 . S
C118 C117 1.349 . S
C118 C130 1.349 . S
C119 C117 1.327 . S
C119 C135 1.429 . S
C119 H141 0.950 . S
C120 H116 0.949 . S
C120 C128 1.574 1_565 S
C120 C136 1.368 . S
H121 C129 0.950 . S
H122 C127 0.950 . S
H123 C128 0.949 . S
H124 C130 0.950 . S
H125 C131 0.950 . S
H126 C132 0.949 . S
C127 H122 0.950 . S
C127 C129 1.327 . S
C127 C133 1.429 . S
C128 C120 1.574 1_545 S
C128 H123 0.949 . S
C128 C134 1.368 1_655 S
C129 C113 1.349 . S
C129 H121 0.950 . S
C129 C127 1.327 . S
C130 C118 1.349 . S
C130 H124 0.950 . S
C130 C131 1.327 . S
C131 H125 0.950 . S
C131 C130 1.327 . S
C131 C135 1.429 . S
C132 C115 1.574 1_565 S
C132 H126 0.949 . S
C132 C136 1.368 1_455 S
C133 C114 1.429 . S
C133 C127 1.429 . S
C133 C134 1.523 . S
C134 C115 1.368 . S
C134 C128 1.368 1_455 S
C134 C133 1.523 . S
C135 C119 1.429 . S
C135 C131 1.429 . S
C135 C136 1.523 . S
C136 C120 1.368 . S
C136 C132 1.368 1_655 S
C136 C135 1.523 . S
H137 C112 0.950 . S
H138 C114 0.950 . S
H139 C115 0.949 . S
H140 C117 0.950 . S
H141 C119 0.950 . S
C142 C143 1.349 . S
C142 C144 1.327 . S
C142 H167 0.950 . S
C143 C142 1.349 . S
C143 C159 1.349 . S
C144 C142 1.327 . S
C144 C163 1.429 . S
C144 H168 0.950 . S
C145 C162 1.574 . S
C145 C164 1.368 . S
C145 H169 0.949 . S
H146 C150 0.949 . S
C147 C148 1.349 . S
C147 C149 1.327 . S
C147 H170 0.950 . S
C148 C147 1.349 . S
C148 C160 1.349 . S
C149 C147 1.327 . S
C149 C165 1.429 . S
C149 H171 0.950 . S
C150 H146 0.949 . S
C150 C158 1.574 . S
C150 C166 1.368 . S
H151 C159 0.950 . S
H152 C157 0.950 . S
H153 C158 0.949 . S
H154 C160 0.950 . S
H155 C161 0.950 . S
H156 C162 0.949 . S
C157 H152 0.950 . S
C157 C159 1.327 . S
C157 C163 1.429 . S
C158 C150 1.574 . S
C158 H153 0.949 . S
C158 C164 1.368 . S
C159 C143 1.349 . S
C159 H151 0.950 . S
C159 C157 1.327 . S
C160 C148 1.349 . S
C160 H154 0.950 . S
C160 C161 1.327 . S
C161 H155 0.950 . S
C161 C160 1.327 . S
C161 C165 1.429 . S
C162 C145 1.574 . S
C162 H156 0.949 . S
C162 C166 1.368 . S
C163 C144 1.429 . S
C163 C157 1.429 . S
C163 C164 1.523 . S
C164 C145 1.368 . S
C164 C158 1.368 . S
C164 C163 1.523 . S
C165 C149 1.429 . S
C165 C161 1.429 . S
C165 C166 1.523 . S
C166 C150 1.368 . S
C166 C162 1.368 . S
C166 C165 1.523 . S
H167 C142 0.950 . S
H168 C144 0.950 . S
H169 C145 0.949 . S
H170 C147 0.950 . S
H171 C149 0.950 . S
C172 C173 1.349 . S
C172 C174 1.327 . S
C172 H197 0.950 . S
C173 C172 1.349 . S
C173 C189 1.349 . S
C174 C172 1.327 . S
C174 C193 1.429 . S
C174 H198 0.950 . S
C175 C192 1.574 . S
C175 C194 1.368 . S
C175 H199 0.949 . S
H176 C180 0.949 . S
C177 C178 1.349 . S
C177 C179 1.327 . S
C177 H200 0.950 . S
C178 C177 1.349 . S
C178 C190 1.349 . S
C179 C177 1.327 . S
C179 C195 1.429 . S
C179 H201 0.950 . S
C180 H176 0.949 . S
C180 C188 1.574 . S
C180 C196 1.368 . S
H181 C189 0.950 . S
H182 C187 0.950 . S
H183 C188 0.949 . S
H184 C190 0.950 . S
H185 C191 0.950 . S
H186 C192 0.949 . S
C187 H182 0.950 . S
C187 C189 1.327 . S
C187 C193 1.429 . S
C188 C180 1.574 . S
C188 H183 0.949 . S
C188 C194 1.368 . S
C189 C173 1.349 . S
C189 H181 0.950 . S
C189 C187 1.327 . S
C190 C178 1.349 . S
C190 H184 0.950 . S
C190 C191 1.327 . S
C191 H185 0.950 . S
C191 C190 1.327 . S
C191 C195 1.429 . S
C192 C175 1.574 . S
C192 H186 0.949 . S
C192 C196 1.368 . S
C193 C174 1.429 . S
C193 C187 1.429 . S
C193 C194 1.523 . S
C194 C175 1.368 . S
C194 C188 1.368 . S
C194 C193 1.523 . S
C195 C179 1.429 . S
C195 C191 1.429 . S
C195 C196 1.523 . S
C196 C180 1.368 . S
C196 C192 1.368 . S
C196 C195 1.523 . S
H197 C172 0.950 . S
H198 C174 0.950 . S
H199 C175 0.949 . S
H200 C177 0.950 . S
H201 C179 0.950 . S
C202 C203 1.349 . S
C202 C204 1.327 . S
C202 H227 0.950 . S
C203 C202 1.349 . S
C203 C219 1.349 . S
C204 C202 1.327 . S
C204 C223 1.429 . S
C204 H228 0.950 . S
C205 C222 1.574 1_455 S
C205 C224 1.368 1_565 S
C205 H229 0.949 . S
H206 C210 0.949 . S
C207 C208 1.349 . S
C207 C209 1.327 . S
C207 H230 0.950 . S
C208 C207 1.349 . S
C208 C220 1.349 . S
C209 C207 1.327 . S
C209 C225 1.429 . S
C209 H231 0.950 . S
C210 H206 0.949 . S
C210 C218 1.574 1_655 S
C210 C226 1.368 1_545 S
H211 C219 0.950 . S
H212 C217 0.950 . S
H213 C218 0.949 . S
H214 C220 0.950 . S
H215 C221 0.950 . S
H216 C222 0.949 . S
C217 H212 0.950 . S
C217 C219 1.327 . S
C217 C223 1.429 . S
C218 C210 1.574 1_455 S
C218 H213 0.949 . S
C218 C224 1.368 . S
C219 C203 1.349 . S
C219 H211 0.950 . S
C219 C217 1.327 . S
C220 C208 1.349 . S
C220 H214 0.950 . S
C220 C221 1.327 . S
C221 H215 0.950 . S
C221 C220 1.327 . S
C221 C225 1.429 . S
C222 C205 1.574 1_655 S
C222 H216 0.949 . S
C222 C226 1.368 . S
C223 C204 1.429 . S
C223 C217 1.429 . S
C223 C224 1.523 . S
C224 C205 1.368 1_545 S
C224 C218 1.368 . S
C224 C223 1.523 . S
C225 C209 1.429 . S
C225 C221 1.429 . S
C225 C226 1.523 . S
C226 C210 1.368 1_565 S
C226 C222 1.368 . S
C226 C225 1.523 . S
H227 C202 0.950 . S
H228 C204 0.950 . S
H229 C205 0.949 . S
H230 C207 0.950 . S
H231 C209 0.950 . S
C232 C233 1.349 . S
C232 C234 1.327 . S
C232 H257 0.950 . S
C233 C232 1.349 . S
C233 C249 1.349 . S
C234 C232 1.327 . S
C234 C253 1.429 . S
C234 H258 0.950 . S
C235 C252 1.574 . S
C235 C254 1.368 . S
C235 H259 0.949 . S
H236 C240 0.949 . S
C237 C238 1.349 . S
C237 C239 1.327 . S
C237 H260 0.950 . S
C238 C237 1.349 . S
C238 C250 1.349 . S
C239 C237 1.327 . S
C239 C255 1.429 . S
C239 H261 0.950 . S
C240 H236 0.949 . S
C240 C248 1.574 . S
C240 C256 1.368 . S
H241 C249 0.950 . S
H242 C247 0.950 . S
H243 C248 0.949 . S
H244 C250 0.950 . S
H245 C251 0.950 . S
H246 C252 0.949 . S
C247 H242 0.950 . S
C247 C249 1.327 . S
C247 C253 1.429 . S
C248 C240 1.574 . S
C248 H243 0.949 . S
C248 C254 1.368 . S
C249 C233 1.349 . S
C249 H241 0.950 . S
C249 C247 1.327 . S
C250 C238 1.349 . S
C250 H244 0.950 . S
C250 C251 1.327 . S
C251 H245 0.950 . S
C251 C250 1.327 . S
C251 C255 1.429 . S
C252 C235 1.574 . S
C252 H246 0.949 . S
C252 C256 1.368 . S
C253 C234 1.429 . S
C253 C247 1.429 . S
C253 C254 1.523 . S
C254 C235 1.368 . S
C254 C248 1.368 . S
C254 C253 1.523 . S
C255 C239 1.429 . S
C255 C251 1.429 . S
C255 C256 1.523 . S
C256 C240 1.368 . S
C256 C252 1.368 . S
C256 C255 1.523 . S
H257 C232 0.950 . S
H258 C234 0.950 . S
H259 C235 0.949 . S
H260 C237 0.950 . S
H261 C239 0.950 . S
C262 C263 1.349 . S
C262 C264 1.327 . S
C262 H287 0.950 . S
C263 C262 1.349 . S
C263 C279 1.349 . S
C264 C262 1.327 . S
C264 C283 1.429 . S
C264 H288 0.950 . S
C265 C282 1.574 1_556 S
C265 C284 1.368 . S
C265 H289 0.949 . S
H266 C270 0.949 . S
C267 C268 1.349 . S
C267 C269 1.327 . S
C267 H290 0.950 . S
C268 C267 1.349 . S
C268 C280 1.349 . S
C269 C267 1.327 . S
C269 C285 1.429 . S
C269 H291 0.950 . S
C270 H266 0.949 . S
C270 C278 1.574 1_554 S
C270 C286 1.368 . S
H271 C279 0.950 . S
H272 C277 0.950 . S
H273 C278 0.949 . S
H274 C280 0.950 . S
H275 C281 0.950 . S
H276 C282 0.949 . S
C277 H272 0.950 . S
C277 C279 1.327 . S
C277 C283 1.429 . S
C278 C270 1.574 1_556 S
C278 H273 0.949 . S
C278 C284 1.368 . S
C279 C263 1.349 . S
C279 H271 0.950 . S
C279 C277 1.327 . S
C280 C268 1.349 . S
C280 H274 0.950 . S
C280 C281 1.327 . S
C281 H275 0.950 . S
C281 C280 1.327 . S
C281 C285 1.429 . S
C282 C265 1.574 1_554 S
C282 H276 0.949 . S
C282 C286 1.368 . S
C283 C264 1.429 . S
C283 C277 1.429 . S
C283 C284 1.523 . S
C284 C265 1.368 . S
C284 C278 1.368 . S
C284 C283 1.523 . S
C285 C269 1.429 . S
C285 C281 1.429 . S
C285 C286 1.523 . S
C286 C270 1.368 . S
C286 C282 1.368 . S
C286 C285 1.523 . S
H287 C262 0.950 . S
H288 C264 0.950 . S
H289 C265 0.949 . S
H290 C267 0.950 . S
H291 C269 0.950 . S
C292 C293 1.349 . S
C292 C294 1.327 . S
C292 H317 0.950 . S
C293 C292 1.349 . S
C293 C309 1.349 . S
C294 C292 1.327 . S
C294 C313 1.429 . S
C294 H318 0.950 . S
C295 C312 1.574 . S
C295 C314 1.368 . S
C295 H319 0.949 . S
H296 C300 0.949 . S
C297 C298 1.349 . S
C297 C299 1.327 . S
C297 H320 0.950 . S
C298 C297 1.349 . S
C298 C310 1.349 . S
C299 C297 1.327 . S
C299 C315 1.429 . S
C299 H321 0.950 . S
C300 H296 0.949 . S
C300 C308 1.574 . S
C300 C316 1.368 . S
H301 C309 0.950 . S
H302 C307 0.950 . S
H303 C308 0.949 . S
H304 C310 0.950 . S
H305 C311 0.950 . S
H306 C312 0.949 . S
C307 H302 0.950 . S
C307 C309 1.327 . S
C307 C313 1.429 . S
C308 C300 1.574 . S
C308 H303 0.949 . S
C308 C314 1.368 . S
C309 C293 1.349 . S
C309 H301 0.950 . S
C309 C307 1.327 . S
C310 C298 1.349 . S
C310 H304 0.950 . S
C310 C311 1.327 . S
C311 H305 0.950 . S
C311 C310 1.327 . S
C311 C315 1.429 . S
C312 C295 1.574 . S
C312 H306 0.949 . S
C312 C316 1.368 . S
C313 C294 1.429 . S
C313 C307 1.429 . S
C313 C314 1.523 . S
C314 C295 1.368 . S
C314 C308 1.368 . S
C314 C313 1.523 . S
C315 C299 1.429 . S
C315 C311 1.429 . S
C315 C316 1.523 . S
C316 C300 1.368 . S
C316 C312 1.368 . S
C316 C315 1.523 . S
H317 C292 0.950 . S
H318 C294 0.950 . S
H319 C295 0.949 . S
H320 C297 0.950 . S
H321 C299 0.950 . S
C322 C323 1.349 . S
C322 C324 1.327 . S
C322 H347 0.950 . S
C323 C322 1.349 . S
C323 C339 1.349 . S
C324 C322 1.327 . S
C324 C343 1.429 . S
C324 H348 0.950 . S
C325 C342 1.574 1_556 S
C325 C344 1.368 . S
C325 H349 0.949 . S
H326 C330 0.949 . S
C327 C328 1.349 . S
C327 C329 1.327 . S
C327 H350 0.950 . S
C328 C327 1.349 . S
C328 C340 1.349 . S
C329 C327 1.327 . S
C329 C345 1.429 . S
C329 H351 0.950 . S
C330 H326 0.949 . S
C330 C338 1.574 1_554 S
C330 C346 1.368 . S
H331 C339 0.950 . S
H332 C337 0.950 . S
H333 C338 0.949 . S
H334 C340 0.950 . S
H335 C341 0.950 . S
H336 C342 0.949 . S
C337 H332 0.950 . S
C337 C339 1.327 . S
C337 C343 1.429 . S
C338 C330 1.574 1_556 S
C338 H333 0.949 . S
C338 C344 1.368 . S
C339 C323 1.349 . S
C339 H331 0.950 . S
C339 C337 1.327 . S
C340 C328 1.349 . S
C340 H334 0.950 . S
C340 C341 1.327 . S
C341 H335 0.950 . S
C341 C340 1.327 . S
C341 C345 1.429 . S
C342 C325 1.574 1_554 S
C342 H336 0.949 . S
C342 C346 1.368 . S
C343 C324 1.429 . S
C343 C337 1.429 . S
C343 C344 1.523 . S
C344 C325 1.368 . S
C344 C338 1.368 . S
C344 C343 1.523 . S
C345 C329 1.429 . S
C345 C341 1.429 . S
C345 C346 1.523 . S
C346 C330 1.368 . S
C346 C342 1.368 . S
C346 C345 1.523 . S
H347 C322 0.950 . S
H348 C324 0.950 . S
H349 C325 0.949 . S
H350 C327 0.950 . S
H351 C329 0.950 . S
C352 C353 1.349 . S
C352 C354 1.327 . S
C352 H377 0.950 . S
C353 C352 1.349 . S
C353 C369 1.349 . S
C354 C352 1.327 . S
C354 C373 1.429 . S
C354 H378 0.950 . S
C355 C372 1.574 . S
C355 C374 1.368 . S
C355 H379 0.949 . S
H356 C360 0.949 . S
C357 C358 1.349 . S
C357 C359 1.327 . S
C357 H380 0.950 . S
C358 C357 1.349 . S
C358 C370 1.349 . S
C359 C357 1.327 . S
C359 C375 1.429 . S
C359 H381 0.950 . S
C360 H356 0.949 . S
C360 C368 1.574 . S
C360 C376 1.368 . S
H361 C369 0.950 . S
H362 C367 0.950 . S
H363 C368 0.949 . S
H364 C370 0.950 . S
H365 C371 0.950 . S
H366 C372 0.949 . S
C367 H362 0.950 . S
C367 C369 1.327 . S
C367 C373 1.429 . S
C368 C360 1.574 . S
C368 H363 0.949 . S
C368 C374 1.368 . S
C369 C353 1.349 . S
C369 H361 0.950 . S
C369 C367 1.327 . S
C370 C358 1.349 . S
C370 H364 0.950 . S
C370 C371 1.327 . S
C371 H365 0.950 . S
C371 C370 1.327 . S
C371 C375 1.429 . S
C372 C355 1.574 . S
C372 H366 0.949 . S
C372 C376 1.368 . S
C373 C354 1.429 . S
C373 C367 1.429 . S
C373 C374 1.523 . S
C374 C355 1.368 . S
C374 C368 1.368 . S
C374 C373 1.523 . S
C375 C359 1.429 . S
C375 C371 1.429 . S
C375 C376 1.523 . S
C376 C360 1.368 . S
C376 C372 1.368 . S
C376 C375 1.523 . S
H377 C352 0.950 . S
H378 C354 0.950 . S
H379 C355 0.949 . S
H380 C357 0.950 . S
H381 C359 0.950 . S
C382 C383 1.349 . S
C382 C384 1.327 . S
C382 H407 0.950 . S
C383 C382 1.349 . S
C383 C399 1.349 . S
C384 C382 1.327 . S
C384 C403 1.429 . S
C384 H408 0.950 . S
C385 C402 1.574 . S
C385 C404 1.368 . S
C385 H409 0.949 . S
H386 C390 0.949 . S
C387 C388 1.349 1_565 S
C387 C389 1.327 . S
C387 H410 0.950 . S
C388 C387 1.349 1_545 S
C388 C400 1.349 . S
C389 C387 1.327 . S
C389 C405 1.429 . S
C389 H411 0.950 . S
C390 H386 0.949 . S
C390 C398 1.574 . S
C390 C406 1.368 . S
H391 C399 0.950 . S
H392 C397 0.950 . S
H393 C398 0.949 . S
H394 C400 0.950 . S
H395 C401 0.949 1_545 S
H396 C402 0.949 . S
C397 H392 0.950 . S
C397 C399 1.327 . S
C397 C403 1.429 . S
C398 C390 1.574 . S
C398 H393 0.949 . S
C398 C404 1.368 . S
C399 C383 1.349 . S
C399 H391 0.950 . S
C399 C397 1.327 . S
C400 C388 1.349 . S
C400 H394 0.950 . S
C400 C401 1.325 1_545 S
C401 H395 0.949 1_565 S
C401 C400 1.325 1_565 S
C401 C405 1.431 . S
C402 C385 1.574 . S
C402 H396 0.949 . S
C402 C406 1.368 . S
C403 C384 1.429 . S
C403 C397 1.429 . S
C403 C404 1.523 . S
C404 C385 1.368 . S
C404 C398 1.368 . S
C404 C403 1.523 . S
C405 C389 1.429 . S
C405 C401 1.431 . S
C405 C406 1.523 . S
C406 C390 1.368 . S
C406 C402 1.368 . S
C406 C405 1.523 . S
H407 C382 0.950 . S
H408 C384 0.950 . S
H409 C385 0.949 . S
H410 C387 0.950 . S
H411 C389 0.950 . S
C412 C413 1.349 . S
C412 C414 1.327 . S
C412 H437 0.950 . S
C413 C412 1.349 . S
C413 C429 1.349 . S
C414 C412 1.327 . S
C414 C433 1.429 . S
C414 H438 0.950 . S
C415 C432 1.574 . S
C415 C434 1.368 . S
C415 H439 0.949 . S
H416 C420 0.949 . S
C417 C418 1.349 . S
C417 C419 1.327 . S
C417 H440 0.950 . S
C418 C417 1.349 . S
C418 C430 1.349 . S
C419 C417 1.327 . S
C419 C435 1.429 . S
C419 H441 0.950 . S
C420 H416 0.949 . S
C420 C428 1.574 . S
C420 C436 1.368 . S
H421 C429 0.950 . S
H422 C427 0.950 . S
H423 C428 0.949 . S
H424 C430 0.950 . S
H425 C431 0.950 . S
H426 C432 0.949 . S
C427 H422 0.950 . S
C427 C429 1.327 . S
C427 C433 1.429 . S
C428 C420 1.574 . S
C428 H423 0.949 . S
C428 C434 1.368 . S
C429 C413 1.349 . S
C429 H421 0.950 . S
C429 C427 1.327 . S
C430 C418 1.349 . S
C430 H424 0.950 . S
C430 C431 1.327 . S
C431 H425 0.950 . S
C431 C430 1.327 . S
C431 C435 1.429 . S
C432 C415 1.574 . S
C432 H426 0.949 . S
C432 C436 1.368 . S
C433 C414 1.429 . S
C433 C427 1.429 . S
C433 C434 1.523 . S
C434 C415 1.368 . S
C434 C428 1.368 . S
C434 C433 1.523 . S
C435 C419 1.429 . S
C435 C431 1.429 . S
C435 C436 1.523 . S
C436 C420 1.368 . S
C436 C432 1.368 . S
C436 C435 1.523 . S
H437 C412 0.950 . S
H438 C414 0.950 . S
H439 C415 0.949 . S
H440 C417 0.950 . S
H441 C419 0.950 . S
C442 C443 1.349 . S
C442 C444 1.327 . S
C442 H467 0.950 . S
C443 C442 1.349 . S
C443 C459 1.349 . S
C444 C442 1.327 . S
C444 C463 1.429 . S
C444 H468 0.950 . S
C445 C462 1.574 . S
C445 C464 1.368 . S
C445 H469 0.949 . S
H446 C450 0.949 . S
C447 C448 1.349 . S
C447 C449 1.327 1_565 S
C447 H470 0.950 . S
C448 C447 1.349 . S
C448 C460 1.349 . S
C449 C447 1.327 1_545 S
C449 C465 1.429 . S
C449 H471 0.950 . S
C450 H446 0.949 . S
C450 C458 1.574 . S
C450 C466 1.368 . S
H451 C459 0.950 . S
H452 C457 0.950 . S
H453 C458 0.949 . S
H454 C460 0.950 . S
H455 C461 0.950 . S
H456 C462 0.949 . S
C457 H452 0.950 . S
C457 C459 1.327 . S
C457 C463 1.429 . S
C458 C450 1.574 . S
C458 H453 0.949 . S
C458 C464 1.368 . S
C459 C443 1.349 . S
C459 H451 0.950 . S
C459 C457 1.327 . S
C460 C448 1.349 . S
C460 H454 0.950 . S
C460 C461 1.327 1_565 S
C461 H455 0.950 . S
C461 C460 1.327 1_545 S
C461 C465 1.429 . S
C462 C445 1.574 . S
C462 H456 0.949 . S
C462 C466 1.368 . S
C463 C444 1.429 . S
C463 C457 1.429 . S
C463 C464 1.523 . S
C464 C445 1.368 . S
C464 C458 1.368 . S
C464 C463 1.523 . S
C465 C449 1.429 . S
C465 C461 1.429 . S
C465 C466 1.523 . S
C466 C450 1.368 . S
C466 C462 1.368 . S
C466 C465 1.523 . S
H467 C442 0.950 . S
H468 C444 0.950 . S
H469 C445 0.949 . S
H470 C447 0.950 . S
H471 C449 0.950 . S
C472 C473 1.349 . S
C472 C474 1.327 1_455 S
C472 H497 0.950 . S
C473 C472 1.349 . S
C473 C489 1.349 . S
C474 C472 1.327 1_655 S
C474 C493 1.429 . S
C474 H498 0.950 . S
C475 C492 1.574 . S
C475 C494 1.368 . S
C475 H499 0.949 . S
H476 C480 0.949 . S
C477 C478 1.349 . S
C477 C479 1.327 . S
C477 H500 0.950 . S
C478 C477 1.349 . S
C478 C490 1.349 . S
C479 C477 1.327 . S
C479 C495 1.429 . S
C479 H501 0.950 . S
C480 H476 0.949 . S
C480 C488 1.574 . S
C480 C496 1.368 . S
H481 C489 0.950 . S
H482 C487 0.950 . S
H483 C488 0.949 . S
H484 C490 0.950 . S
H485 C491 0.950 . S
H486 C492 0.949 . S
C487 H482 0.950 . S
C487 C489 1.327 1_655 S
C487 C493 1.429 . S
C488 C480 1.574 . S
C488 H483 0.949 . S
C488 C494 1.368 . S
C489 C473 1.349 . S
C489 H481 0.950 . S
C489 C487 1.327 1_455 S
C490 C478 1.349 . S
C490 H484 0.950 . S
C490 C491 1.327 . S
C491 H485 0.950 . S
C491 C490 1.327 . S
C491 C495 1.429 . S
C492 C475 1.574 . S
C492 H486 0.949 . S
C492 C496 1.368 . S
C493 C474 1.429 . S
C493 C487 1.429 . S
C493 C494 1.523 . S
C494 C475 1.368 . S
C494 C488 1.368 . S
C494 C493 1.523 . S
C495 C479 1.429 . S
C495 C491 1.429 . S
C495 C496 1.523 . S
C496 C480 1.368 . S
C496 C492 1.368 . S
C496 C495 1.523 . S
H497 C472 0.950 . S
H498 C474 0.950 . S
H499 C475 0.949 . S
H500 C477 0.950 . S
H501 C479 0.950 . S
C502 C503 1.349 . S
C502 C504 1.327 . S
C502 H527 0.950 . S
C503 C502 1.349 . S
C503 C519 1.349 . S
C504 C502 1.327 . S
C504 C523 1.429 . S
C504 H528 0.950 . S
C505 C522 1.574 . S
C505 C524 1.368 . S
C505 H529 0.949 . S
H506 C510 0.949 . S
C507 C508 1.349 . S
C507 C509 1.327 . S
C507 H530 0.950 . S
C508 C507 1.349 . S
C508 C520 1.349 . S
C509 C507 1.327 . S
C509 C525 1.429 . S
C509 H531 0.950 . S
C510 H506 0.949 . S
C510 C518 1.574 . S
C510 C526 1.368 . S
H511 C519 0.950 . S
H512 C517 0.950 . S
H513 C518 0.949 . S
H514 C520 0.950 . S
H515 C521 0.950 . S
H516 C522 0.949 . S
C517 H512 0.950 . S
C517 C519 1.327 . S
C517 C523 1.429 . S
C518 C510 1.574 . S
C518 H513 0.949 . S
C518 C524 1.368 . S
C519 C503 1.349 . S
C519 H511 0.950 . S
C519 C517 1.327 . S
C520 C508 1.349 . S
C520 H514 0.950 . S
C520 C521 1.327 . S
C521 H515 0.950 . S
C521 C520 1.327 . S
C521 C525 1.429 . S
C522 C505 1.574 . S
C522 H516 0.949 . S
C522 C526 1.368 . S
C523 C504 1.429 . S
C523 C517 1.429 . S
C523 C524 1.523 . S
C524 C505 1.368 . S
C524 C518 1.368 . S
C524 C523 1.523 . S
C525 C509 1.429 . S
C525 C521 1.429 . S
C525 C526 1.523 . S
C526 C510 1.368 . S
C526 C522 1.368 . S
C526 C525 1.523 . S
H527 C502 0.950 . S
H528 C504 0.950 . S
H529 C505 0.949 . S
H530 C507 0.950 . S
H531 C509 0.950 . S
C532 C533 1.349 . S
C532 C534 1.327 . S
C532 H557 0.950 . S
C533 C532 1.349 . S
C533 C549 1.349 . S
C534 C532 1.327 . S
C534 C553 1.429 . S
C534 H558 0.950 . S
C535 C552 1.574 . S
C535 C554 1.368 . S
C535 H559 0.949 . S
H536 C540 0.949 . S
C537 C538 1.349 . S
C537 C539 1.327 1_655 S
C537 H560 0.950 . S
C538 C537 1.349 . S
C538 C550 1.349 . S
C539 C537 1.327 1_455 S
C539 C555 1.429 . S
C539 H561 0.950 . S
C540 H536 0.949 . S
C540 C548 1.574 . S
C540 C556 1.368 . S
H541 C549 0.950 . S
H542 C547 0.950 . S
H543 C548 0.949 . S
H544 C550 0.950 . S
H545 C551 0.950 . S
H546 C552 0.949 . S
C547 H542 0.950 . S
C547 C549 1.327 . S
C547 C553 1.429 . S
C548 C540 1.574 . S
C548 H543 0.949 . S
C548 C554 1.368 . S
C549 C533 1.349 . S
C549 H541 0.950 . S
C549 C547 1.327 . S
C550 C538 1.349 . S
C550 H544 0.950 . S
C550 C551 1.327 1_655 S
C551 H545 0.950 . S
C551 C550 1.327 1_455 S
C551 C555 1.429 . S
C552 C535 1.574 . S
C552 H546 0.949 . S
C552 C556 1.368 . S
C553 C534 1.429 . S
C553 C547 1.429 . S
C553 C554 1.523 . S
C554 C535 1.368 . S
C554 C548 1.368 . S
C554 C553 1.523 . S
C555 C539 1.429 . S
C555 C551 1.429 . S
C555 C556 1.523 . S
C556 C540 1.368 . S
C556 C552 1.368 . S
C556 C555 1.523 . S
H557 C532 0.950 . S
H558 C534 0.950 . S
H559 C535 0.949 . S
H560 C537 0.950 . S
H561 C539 0.950 . S
C562 C563 1.349 . S
C562 C564 1.327 . S
C562 H587 0.950 . S
C563 C562 1.349 . S
C563 C579 1.349 . S
C564 C562 1.327 . S
C564 C583 1.429 . S
C564 H588 0.950 . S
C565 C582 1.574 . S
C565 C584 1.368 . S
C565 H589 0.949 . S
H566 C570 0.949 . S
C567 C568 1.349 . S
C567 C569 1.327 . S
C567 H590 0.950 . S
C568 C567 1.349 . S
C568 C580 1.349 . S
C569 C567 1.327 . S
C569 C585 1.429 . S
C569 H591 0.950 . S
C570 H566 0.949 . S
C570 C578 1.574 . S
C570 C586 1.368 . S
H571 C579 0.950 . S
H572 C577 0.950 . S
H573 C578 0.949 . S
H574 C580 0.950 . S
H575 C581 0.950 . S
H576 C582 0.949 . S
C577 H572 0.950 . S
C577 C579 1.327 . S
C577 C583 1.429 . S
C578 C570 1.574 . S
C578 H573 0.949 . S
C578 C584 1.368 . S
C579 C563 1.349 . S
C579 H571 0.950 . S
C579 C577 1.327 . S
C580 C568 1.349 . S
C580 H574 0.950 . S
C580 C581 1.327 . S
C581 H575 0.950 . S
C581 C580 1.327 . S
C581 C585 1.429 . S
C582 C565 1.574 . S
C582 H576 0.949 . S
C582 C586 1.368 . S
C583 C564 1.429 . S
C583 C577 1.429 . S
C583 C584 1.523 . S
C584 C565 1.368 . S
C584 C578 1.368 . S
C584 C583 1.523 . S
C585 C569 1.429 . S
C585 C581 1.429 . S
C585 C586 1.523 . S
C586 C570 1.368 . S
C586 C582 1.368 . S
C586 C585 1.523 . S
H587 C562 0.950 . S
H588 C564 0.950 . S
H589 C565 0.949 . S
H590 C567 0.950 . S
H591 C569 0.950 . S
C113 C5 0.216 . S
C118 C33 0.216 . S
C143 C19 0.216 . S
C148 C47 0.216 . S
C173 C61 0.216 . S
C178 C89 0.216 . S
C203 C75 0.216 . S
C208 C103 0.216 . S
C233 C9 1.320 . S
C238 C79 1.320 . S
C263 C23 1.320 . S
C268 C93 1.320 . S
C293 C107 1.320 . S
C298 C37 1.320 . S
C323 C51 1.320 . S
C328 C65 1.320 . S
C353 C56 1.694 . S
C358 C11 1.739 . S
C383 C25 1.739 . S
C388 C70 1.694 . S
C413 C39 1.739 . S
C418 C84 1.694 . S
C443 C53 1.739 . S
C448 C98 1.694 . S
C473 C0 1.694 . S
C478 C67 1.739 . S
C503 C81 1.739 . S
C508 C14 1.694 . S
C533 C95 1.739 . S
C538 C28 1.694 . S
C563 C42 1.694 . S
C568 C109 1.739 . S
