# Generated by pormake.
# Topology fcd, (5)-cn, num edge types: 1
# Building blocks:
#     Node 0, Type 0, BuildingBlock: XOMCOT_clean_sbu_1, # of connection points: 5
#     Node 1, Type 0, BuildingBlock: XOMCOT_clean_sbu_1, # of connection points: 5
#     Node 2, Type 0, BuildingBlock: XOMCOT_clean_sbu_1, # of connection points: 5
#     Node 3, Type 0, BuildingBlock: XOMCOT_clean_sbu_1, # of connection points: 5
#     Node 4, Type 0, BuildingBlock: XOMCOT_clean_sbu_1, # of connection points: 5
#     Node 5, Type 0, BuildingBlock: XOMCOT_clean_sbu_1, # of connection points: 5
#     Node 6, Type 0, BuildingBlock: XOMCOT_clean_sbu_1, # of connection points: 5
#     Node 7, Type 0, BuildingBlock: XOMCOT_clean_sbu_1, # of connection points: 5
#     Node 8, Type 0, BuildingBlock: XOMCOT_clean_sbu_1, # of connection points: 5
#     Node 9, Type 0, BuildingBlock: XOMCOT_clean_sbu_1, # of connection points: 5
#     Node 10, Type 0, BuildingBlock: XOMCOT_clean_sbu_1, # of connection points: 5
#     Node 11, Type 0, BuildingBlock: XOMCOT_clean_sbu_1, # of connection points: 5
#     Node 12, Type 0, BuildingBlock: XOMCOT_clean_sbu_1, # of connection points: 5
#     Node 13, Type 0, BuildingBlock: XOMCOT_clean_sbu_1, # of connection points: 5
#     Node 14, Type 0, BuildingBlock: XOMCOT_clean_sbu_1, # of connection points: 5
#     Node 15, Type 0, BuildingBlock: XOMCOT_clean_sbu_1, # of connection points: 5
#     Node 16, Type 0, BuildingBlock: XOMCOT_clean_sbu_1, # of connection points: 5
#     Node 17, Type 0, BuildingBlock: XOMCOT_clean_sbu_1, # of connection points: 5
#     Node 18, Type 0, BuildingBlock: XOMCOT_clean_sbu_1, # of connection points: 5
#     Node 19, Type 0, BuildingBlock: XOMCOT_clean_sbu_1, # of connection points: 5
#     Node 20, Type 0, BuildingBlock: XOMCOT_clean_sbu_1, # of connection points: 5
#     Node 21, Type 0, BuildingBlock: XOMCOT_clean_sbu_1, # of connection points: 5
#     Node 22, Type 0, BuildingBlock: XOMCOT_clean_sbu_1, # of connection points: 5
#     Node 23, Type 0, BuildingBlock: XOMCOT_clean_sbu_1, # of connection points: 5
#     Node 24, Type 0, BuildingBlock: XOMCOT_clean_sbu_1, # of connection points: 5
#     Node 25, Type 0, BuildingBlock: XOMCOT_clean_sbu_1, # of connection points: 5
#     Node 26, Type 0, BuildingBlock: XOMCOT_clean_sbu_1, # of connection points: 5
#     Node 27, Type 0, BuildingBlock: XOMCOT_clean_sbu_1, # of connection points: 5
#     Node 28, Type 0, BuildingBlock: XOMCOT_clean_sbu_1, # of connection points: 5
#     Node 29, Type 0, BuildingBlock: XOMCOT_clean_sbu_1, # of connection points: 5
#     Node 30, Type 0, BuildingBlock: XOMCOT_clean_sbu_1, # of connection points: 5
#     Node 31, Type 0, BuildingBlock: XOMCOT_clean_sbu_1, # of connection points: 5
#     Node 32, Type 0, BuildingBlock: XOMCOT_clean_sbu_1, # of connection points: 5
#     Node 33, Type 0, BuildingBlock: XOMCOT_clean_sbu_1, # of connection points: 5
#     Node 34, Type 0, BuildingBlock: XOMCOT_clean_sbu_1, # of connection points: 5
#     Node 35, Type 0, BuildingBlock: XOMCOT_clean_sbu_1, # of connection points: 5
#     Node 36, Type 0, BuildingBlock: XOMCOT_clean_sbu_1, # of connection points: 5
#     Node 37, Type 0, BuildingBlock: XOMCOT_clean_sbu_1, # of connection points: 5
#     Node 38, Type 0, BuildingBlock: XOMCOT_clean_sbu_1, # of connection points: 5
#     Node 39, Type 0, BuildingBlock: XOMCOT_clean_sbu_1, # of connection points: 5
#     Node 40, Type 0, BuildingBlock: XOMCOT_clean_sbu_1, # of connection points: 5
#     Node 41, Type 0, BuildingBlock: XOMCOT_clean_sbu_1, # of connection points: 5
#     Node 42, Type 0, BuildingBlock: XOMCOT_clean_sbu_1, # of connection points: 5
#     Node 43, Type 0, BuildingBlock: XOMCOT_clean_sbu_1, # of connection points: 5
#     Node 44, Type 0, BuildingBlock: XOMCOT_clean_sbu_1, # of connection points: 5
#     Node 45, Type 0, BuildingBlock: XOMCOT_clean_sbu_1, # of connection points: 5
#     Node 46, Type 0, BuildingBlock: XOMCOT_clean_sbu_1, # of connection points: 5
#     Node 47, Type 0, BuildingBlock: XOMCOT_clean_sbu_1, # of connection points: 5
#     Edge 48, Type (0, 0), BuildingBlock: CIFDUS_clean_linker_0, # of connection points: 2
#     Edge 49, Type (0, 0), BuildingBlock: CIFDUS_clean_linker_0, # of connection points: 2
#     Edge 50, Type (0, 0), BuildingBlock: CIFDUS_clean_linker_0, # of connection points: 2
#     Edge 51, Type (0, 0), BuildingBlock: CIFDUS_clean_linker_0, # of connection points: 2
#     Edge 52, Type (0, 0), BuildingBlock: CIFDUS_clean_linker_0, # of connection points: 2
#     Edge 53, Type (0, 0), BuildingBlock: CIFDUS_clean_linker_0, # of connection points: 2
#     Edge 54, Type (0, 0), BuildingBlock: CIFDUS_clean_linker_0, # of connection points: 2
#     Edge 55, Type (0, 0), BuildingBlock: CIFDUS_clean_linker_0, # of connection points: 2
#     Edge 56, Type (0, 0), BuildingBlock: CIFDUS_clean_linker_0, # of connection points: 2
#     Edge 57, Type (0, 0), BuildingBlock: CIFDUS_clean_linker_0, # of connection points: 2
#     Edge 58, Type (0, 0), BuildingBlock: CIFDUS_clean_linker_0, # of connection points: 2
#     Edge 59, Type (0, 0), BuildingBlock: CIFDUS_clean_linker_0, # of connection points: 2
#     Edge 60, Type (0, 0), BuildingBlock: CIFDUS_clean_linker_0, # of connection points: 2
#     Edge 61, Type (0, 0), BuildingBlock: CIFDUS_clean_linker_0, # of connection points: 2
#     Edge 62, Type (0, 0), BuildingBlock: CIFDUS_clean_linker_0, # of connection points: 2
#     Edge 63, Type (0, 0), BuildingBlock: CIFDUS_clean_linker_0, # of connection points: 2
#     Edge 64, Type (0, 0), BuildingBlock: CIFDUS_clean_linker_0, # of connection points: 2
#     Edge 65, Type (0, 0), BuildingBlock: CIFDUS_clean_linker_0, # of connection points: 2
#     Edge 66, Type (0, 0), BuildingBlock: CIFDUS_clean_linker_0, # of connection points: 2
#     Edge 67, Type (0, 0), BuildingBlock: CIFDUS_clean_linker_0, # of connection points: 2
#     Edge 68, Type (0, 0), BuildingBlock: CIFDUS_clean_linker_0, # of connection points: 2
#     Edge 69, Type (0, 0), BuildingBlock: CIFDUS_clean_linker_0, # of connection points: 2
#     Edge 70, Type (0, 0), BuildingBlock: CIFDUS_clean_linker_0, # of connection points: 2
#     Edge 71, Type (0, 0), BuildingBlock: CIFDUS_clean_linker_0, # of connection points: 2
#     Edge 72, Type (0, 0), BuildingBlock: CIFDUS_clean_linker_0, # of connection points: 2
#     Edge 73, Type (0, 0), BuildingBlock: CIFDUS_clean_linker_0, # of connection points: 2
#     Edge 74, Type (0, 0), BuildingBlock: CIFDUS_clean_linker_0, # of connection points: 2
#     Edge 75, Type (0, 0), BuildingBlock: CIFDUS_clean_linker_0, # of connection points: 2
#     Edge 76, Type (0, 0), BuildingBlock: CIFDUS_clean_linker_0, # of connection points: 2
#     Edge 77, Type (0, 0), BuildingBlock: CIFDUS_clean_linker_0, # of connection points: 2
#     Edge 78, Type (0, 0), BuildingBlock: CIFDUS_clean_linker_0, # of connection points: 2
#     Edge 79, Type (0, 0), BuildingBlock: CIFDUS_clean_linker_0, # of connection points: 2
#     Edge 80, Type (0, 0), BuildingBlock: CIFDUS_clean_linker_0, # of connection points: 2
#     Edge 81, Type (0, 0), BuildingBlock: CIFDUS_clean_linker_0, # of connection points: 2
#     Edge 82, Type (0, 0), BuildingBlock: CIFDUS_clean_linker_0, # of connection points: 2
#     Edge 83, Type (0, 0), BuildingBlock: CIFDUS_clean_linker_0, # of connection points: 2
#     Edge 84, Type (0, 0), BuildingBlock: CIFDUS_clean_linker_0, # of connection points: 2
#     Edge 85, Type (0, 0), BuildingBlock: CIFDUS_clean_linker_0, # of connection points: 2
#     Edge 86, Type (0, 0), BuildingBlock: CIFDUS_clean_linker_0, # of connection points: 2
#     Edge 87, Type (0, 0), BuildingBlock: CIFDUS_clean_linker_0, # of connection points: 2
#     Edge 88, Type (0, 0), BuildingBlock: CIFDUS_clean_linker_0, # of connection points: 2
#     Edge 89, Type (0, 0), BuildingBlock: CIFDUS_clean_linker_0, # of connection points: 2
#     Edge 90, Type (0, 0), BuildingBlock: CIFDUS_clean_linker_0, # of connection points: 2
#     Edge 91, Type (0, 0), BuildingBlock: CIFDUS_clean_linker_0, # of connection points: 2
#     Edge 92, Type (0, 0), BuildingBlock: CIFDUS_clean_linker_0, # of connection points: 2
#     Edge 93, Type (0, 0), BuildingBlock: CIFDUS_clean_linker_0, # of connection points: 2
#     Edge 94, Type (0, 0), BuildingBlock: CIFDUS_clean_linker_0, # of connection points: 2
#     Edge 95, Type (0, 0), BuildingBlock: CIFDUS_clean_linker_0, # of connection points: 2
#     Edge 96, Type (0, 0), BuildingBlock: CIFDUS_clean_linker_0, # of connection points: 2
#     Edge 97, Type (0, 0), BuildingBlock: CIFDUS_clean_linker_0, # of connection points: 2
#     Edge 98, Type (0, 0), BuildingBlock: CIFDUS_clean_linker_0, # of connection points: 2
#     Edge 99, Type (0, 0), BuildingBlock: CIFDUS_clean_linker_0, # of connection points: 2
#     Edge 100, Type (0, 0), BuildingBlock: CIFDUS_clean_linker_0, # of connection points: 2
#     Edge 101, Type (0, 0), BuildingBlock: CIFDUS_clean_linker_0, # of connection points: 2
#     Edge 102, Type (0, 0), BuildingBlock: CIFDUS_clean_linker_0, # of connection points: 2
#     Edge 103, Type (0, 0), BuildingBlock: CIFDUS_clean_linker_0, # of connection points: 2
#     Edge 104, Type (0, 0), BuildingBlock: CIFDUS_clean_linker_0, # of connection points: 2
#     Edge 105, Type (0, 0), BuildingBlock: CIFDUS_clean_linker_0, # of connection points: 2
#     Edge 106, Type (0, 0), BuildingBlock: CIFDUS_clean_linker_0, # of connection points: 2
#     Edge 107, Type (0, 0), BuildingBlock: CIFDUS_clean_linker_0, # of connection points: 2
#     Edge 108, Type (0, 0), BuildingBlock: CIFDUS_clean_linker_0, # of connection points: 2
#     Edge 109, Type (0, 0), BuildingBlock: CIFDUS_clean_linker_0, # of connection points: 2
#     Edge 110, Type (0, 0), BuildingBlock: CIFDUS_clean_linker_0, # of connection points: 2
#     Edge 111, Type (0, 0), BuildingBlock: CIFDUS_clean_linker_0, # of connection points: 2
#     Edge 112, Type (0, 0), BuildingBlock: CIFDUS_clean_linker_0, # of connection points: 2
#     Edge 113, Type (0, 0), BuildingBlock: CIFDUS_clean_linker_0, # of connection points: 2
#     Edge 114, Type (0, 0), BuildingBlock: CIFDUS_clean_linker_0, # of connection points: 2
#     Edge 115, Type (0, 0), BuildingBlock: CIFDUS_clean_linker_0, # of connection points: 2
#     Edge 116, Type (0, 0), BuildingBlock: CIFDUS_clean_linker_0, # of connection points: 2
#     Edge 117, Type (0, 0), BuildingBlock: CIFDUS_clean_linker_0, # of connection points: 2
#     Edge 118, Type (0, 0), BuildingBlock: CIFDUS_clean_linker_0, # of connection points: 2
#     Edge 119, Type (0, 0), BuildingBlock: CIFDUS_clean_linker_0, # of connection points: 2
#     Edge 120, Type (0, 0), BuildingBlock: CIFDUS_clean_linker_0, # of connection points: 2
#     Edge 121, Type (0, 0), BuildingBlock: CIFDUS_clean_linker_0, # of connection points: 2
#     Edge 122, Type (0, 0), BuildingBlock: CIFDUS_clean_linker_0, # of connection points: 2
#     Edge 123, Type (0, 0), BuildingBlock: CIFDUS_clean_linker_0, # of connection points: 2
#     Edge 124, Type (0, 0), BuildingBlock: CIFDUS_clean_linker_0, # of connection points: 2
#     Edge 125, Type (0, 0), BuildingBlock: CIFDUS_clean_linker_0, # of connection points: 2
#     Edge 126, Type (0, 0), BuildingBlock: CIFDUS_clean_linker_0, # of connection points: 2
#     Edge 127, Type (0, 0), BuildingBlock: CIFDUS_clean_linker_0, # of connection points: 2
#     Edge 128, Type (0, 0), BuildingBlock: CIFDUS_clean_linker_0, # of connection points: 2
#     Edge 129, Type (0, 0), BuildingBlock: CIFDUS_clean_linker_0, # of connection points: 2
#     Edge 130, Type (0, 0), BuildingBlock: CIFDUS_clean_linker_0, # of connection points: 2
#     Edge 131, Type (0, 0), BuildingBlock: CIFDUS_clean_linker_0, # of connection points: 2
#     Edge 132, Type (0, 0), BuildingBlock: CIFDUS_clean_linker_0, # of connection points: 2
#     Edge 133, Type (0, 0), BuildingBlock: CIFDUS_clean_linker_0, # of connection points: 2
#     Edge 134, Type (0, 0), BuildingBlock: CIFDUS_clean_linker_0, # of connection points: 2
#     Edge 135, Type (0, 0), BuildingBlock: CIFDUS_clean_linker_0, # of connection points: 2
#     Edge 136, Type (0, 0), BuildingBlock: CIFDUS_clean_linker_0, # of connection points: 2
#     Edge 137, Type (0, 0), BuildingBlock: CIFDUS_clean_linker_0, # of connection points: 2
#     Edge 138, Type (0, 0), BuildingBlock: CIFDUS_clean_linker_0, # of connection points: 2
#     Edge 139, Type (0, 0), BuildingBlock: CIFDUS_clean_linker_0, # of connection points: 2
#     Edge 140, Type (0, 0), BuildingBlock: CIFDUS_clean_linker_0, # of connection points: 2
#     Edge 141, Type (0, 0), BuildingBlock: CIFDUS_clean_linker_0, # of connection points: 2
#     Edge 142, Type (0, 0), BuildingBlock: CIFDUS_clean_linker_0, # of connection points: 2
#     Edge 143, Type (0, 0), BuildingBlock: CIFDUS_clean_linker_0, # of connection points: 2
#     Edge 144, Type (0, 0), BuildingBlock: CIFDUS_clean_linker_0, # of connection points: 2
#     Edge 145, Type (0, 0), BuildingBlock: CIFDUS_clean_linker_0, # of connection points: 2
#     Edge 146, Type (0, 0), BuildingBlock: CIFDUS_clean_linker_0, # of connection points: 2
#     Edge 147, Type (0, 0), BuildingBlock: CIFDUS_clean_linker_0, # of connection points: 2
#     Edge 148, Type (0, 0), BuildingBlock: CIFDUS_clean_linker_0, # of connection points: 2
#     Edge 149, Type (0, 0), BuildingBlock: CIFDUS_clean_linker_0, # of connection points: 2
#     Edge 150, Type (0, 0), BuildingBlock: CIFDUS_clean_linker_0, # of connection points: 2
#     Edge 151, Type (0, 0), BuildingBlock: CIFDUS_clean_linker_0, # of connection points: 2
#     Edge 152, Type (0, 0), BuildingBlock: CIFDUS_clean_linker_0, # of connection points: 2
#     Edge 153, Type (0, 0), BuildingBlock: CIFDUS_clean_linker_0, # of connection points: 2
#     Edge 154, Type (0, 0), BuildingBlock: CIFDUS_clean_linker_0, # of connection points: 2
#     Edge 155, Type (0, 0), BuildingBlock: CIFDUS_clean_linker_0, # of connection points: 2
#     Edge 156, Type (0, 0), BuildingBlock: CIFDUS_clean_linker_0, # of connection points: 2
#     Edge 157, Type (0, 0), BuildingBlock: CIFDUS_clean_linker_0, # of connection points: 2
#     Edge 158, Type (0, 0), BuildingBlock: CIFDUS_clean_linker_0, # of connection points: 2
#     Edge 159, Type (0, 0), BuildingBlock: CIFDUS_clean_linker_0, # of connection points: 2
#     Edge 160, Type (0, 0), BuildingBlock: CIFDUS_clean_linker_0, # of connection points: 2
#     Edge 161, Type (0, 0), BuildingBlock: CIFDUS_clean_linker_0, # of connection points: 2
#     Edge 162, Type (0, 0), BuildingBlock: CIFDUS_clean_linker_0, # of connection points: 2
#     Edge 163, Type (0, 0), BuildingBlock: CIFDUS_clean_linker_0, # of connection points: 2
#     Edge 164, Type (0, 0), BuildingBlock: CIFDUS_clean_linker_0, # of connection points: 2
#     Edge 165, Type (0, 0), BuildingBlock: CIFDUS_clean_linker_0, # of connection points: 2
#     Edge 166, Type (0, 0), BuildingBlock: CIFDUS_clean_linker_0, # of connection points: 2
#     Edge 167, Type (0, 0), BuildingBlock: CIFDUS_clean_linker_0, # of connection points: 2
# Relax obj value: 0.324
# Max RMSD: 0.263
# Mean RMSD: 0.263
data_MOF--net-fcd--node1-XOMCOT_clean_sbu_1--edge1-CIFDUS_clean_linker_0
_symmetry_space_group_name_H-M    P1
_symmetry_Int_Tables_number       1
_symmetry_cell_setting            triclinic
loop_
_symmetry_equiv_pos_as_xyz
'x, y, z'
_cell_length_a     61.591535
_cell_length_b     61.610472
_cell_length_c     61.592604
_cell_angle_alpha  89.963427
_cell_angle_beta   90.009616
_cell_angle_gamma 89.999444
loop_
_atom_site_label
_atom_site_type_symbol
_atom_site_fract_x
_atom_site_fract_y
_atom_site_fract_z
_atom_type_partial_charge
C0 C 0.06146 0.17581 0.41465 0.0
C1 C 0.04417 0.18779 0.42223 0.0
N2 N 0.04656 0.20839 0.41527 0.0
N3 N 0.07458 0.18879 0.4029 0.0
C4 C 0.06518 0.20857 0.40373 0.0
H5 H 0.06386 0.15855 0.41675 0.0
Co6 Co 0.09792 0.17908 0.38658 0.0
C7 C 0.11233 0.21759 0.36141 0.0
O8 O 0.11507 0.20605 0.3437 0.0
N9 N 0.12204 0.16864 0.37018 0.0
C10 C 0.14342 0.15012 0.3475 0.0
C11 C 0.1225 0.15665 0.35174 0.0
C12 C 0.14319 0.1697 0.37624 0.0
N13 N 0.15636 0.15825 0.36304 0.0
O14 O 0.11578 0.1819 0.41166 0.0
H15 H 0.10867 0.15234 0.34194 0.0
H16 H 0.14889 0.17784 0.39069 0.0
O17 O 0.1053 0.20859 0.3787 0.0
C18 C 0.11838 0.16448 0.42243 0.0
O19 O 0.10977 0.14646 0.41491 0.0
N20 N 0.07873 0.17516 0.3633 0.0
C21 C 0.04114 0.16447 0.34053 0.0
C22 C 0.04804 0.1861 0.34183 0.0
C23 C 0.06699 0.19116 0.35331 0.0
C24 C 0.07221 0.15406 0.36196 0.0
C25 C 0.05381 0.14828 0.35016 0.0
H26 H 0.07087 0.20804 0.35578 0.0
H27 H 0.08075 0.14177 0.37116 0.0
H28 H 0.07104 0.22257 0.39491 0.0
H29 H 0.03062 0.18169 0.43161 0.0
H30 H 0.14863 0.1398 0.33428 0.0
H31 H 0.03819 0.19905 0.33515 0.0
H32 H 0.04855 0.13149 0.3501 0.0
C33 C 0.93408 0.32392 0.41169 0.0
C34 C 0.95127 0.31199 0.41954 0.0
N35 N 0.94872 0.29124 0.41312 0.0
N36 N 0.92082 0.31077 0.40033 0.0
C37 C 0.93004 0.29093 0.40165 0.0
H38 H 0.93175 0.34122 0.41348 0.0
Co39 Co 0.89704 0.32042 0.38455 0.0
C40 C 0.88572 0.28191 0.35726 0.0
O41 O 0.88539 0.2932 0.33919 0.0
N42 N 0.87249 0.33086 0.36866 0.0
C43 C 0.85016 0.34418 0.34322 0.0
C44 C 0.8708 0.33665 0.34746 0.0
C45 C 0.8525 0.33518 0.37675 0.0
N46 N 0.83887 0.34341 0.36181 0.0
O47 O 0.87952 0.31543 0.40959 0.0
H48 H 0.8837 0.33569 0.33563 0.0
H49 H 0.84755 0.33234 0.39329 0.0
O50 O 0.89062 0.29106 0.37519 0.0
C51 C 0.87751 0.3316 0.42228 0.0
O52 O 0.88584 0.35038 0.41654 0.0
N53 N 0.9158 0.32639 0.36142 0.0
C54 C 0.95333 0.34108 0.34094 0.0
C55 C 0.9485 0.31884 0.34154 0.0
C56 C 0.92966 0.31176 0.35213 0.0
C57 C 0.91953 0.3481 0.35954 0.0
C58 C 0.93803 0.35581 0.3491 0.0
H59 H 0.92756 0.29457 0.35474 0.0
H60 H 0.90899 0.35944 0.36782 0.0
H61 H 0.92392 0.27674 0.39332 0.0
H62 H 0.96482 0.31822 0.42883 0.0
H63 H 0.84412 0.35031 0.32789 0.0
H64 H 0.96015 0.30698 0.33583 0.0
H65 H 0.94122 0.3731 0.34899 0.0
C66 C 0.06556 0.83936 0.09877 0.0
C67 C 0.04796 0.82776 0.09136 0.0
N68 N 0.05095 0.80675 0.09663 0.0
N69 N 0.07946 0.82574 0.10875 0.0
C70 C 0.07024 0.80593 0.10699 0.0
H71 H 0.06761 0.85677 0.09792 0.0
Co72 Co 0.1031 0.83508 0.12485 0.0
C73 C 0.1191 0.79649 0.14847 0.0
O74 O 0.12181 0.80821 0.16608 0.0
N75 N 0.12738 0.84527 0.14091 0.0
C76 C 0.1497 0.86401 0.16239 0.0
C77 C 0.12842 0.85866 0.1583 0.0
C78 C 0.14842 0.84235 0.13521 0.0
N79 N 0.16223 0.85383 0.14773 0.0
O80 O 0.12027 0.8341 0.09911 0.0
H81 H 0.1148 0.86483 0.16736 0.0
H82 H 0.15355 0.83281 0.1214 0.0
O83 O 0.11137 0.80525 0.13131 0.0
C84 C 0.12197 0.85252 0.08993 0.0
O85 O 0.11333 0.86949 0.09956 0.0
N86 N 0.08449 0.83741 0.14879 0.0
C87 C 0.04499 0.84573 0.16906 0.0
C88 C 0.05295 0.82448 0.16776 0.0
C89 C 0.0729 0.82062 0.15761 0.0
C90 C 0.07716 0.85819 0.15068 0.0
C91 C 0.05775 0.86279 0.16127 0.0
H92 H 0.07747 0.80399 0.15465 0.0
H93 H 0.08547 0.87111 0.14216 0.0
H94 H 0.07674 0.79141 0.11443 0.0
H95 H 0.03382 0.83435 0.08327 0.0
H96 H 0.15546 0.87495 0.17487 0.0
H97 H 0.04305 0.8109 0.17296 0.0
H98 H 0.05168 0.8793 0.16133 0.0
C99 C 0.93944 0.69107 0.08257 0.0
C100 C 0.95649 0.70462 0.07771 0.0
N101 N 0.95376 0.72328 0.08876 0.0
N102 N 0.92602 0.70112 0.0966 0.0
C103 C 0.93507 0.7208 0.09994 0.0
H104 H 0.93742 0.67456 0.07697 0.0
Co105 Co 0.90305 0.68719 0.11014 0.0
C106 C 0.87937 0.72024 0.13589 0.0
O107 O 0.87494 0.70588 0.15102 0.0
N108 N 0.87985 0.6722 0.12309 0.0
C109 C 0.85852 0.64778 0.13914 0.0
C110 C 0.87968 0.65411 0.13553 0.0
C111 C 0.85865 0.67635 0.11923 0.0
N112 N 0.84541 0.66194 0.12894 0.0
O113 O 0.88683 0.68918 0.08382 0.0
H114 H 0.89384 0.64555 0.14126 0.0
H115 H 0.853 0.68952 0.10905 0.0
O116 O 0.8909 0.71502 0.11941 0.0
C117 C 0.88709 0.67205 0.07233 0.0
O118 O 0.89728 0.65489 0.07989 0.0
N119 N 0.92043 0.68451 0.13501 0.0
C120 C 0.95871 0.68065 0.15864 0.0
C121 C 0.94647 0.69973 0.15972 0.0
C122 C 0.92723 0.70134 0.14784 0.0
C123 C 0.93165 0.66546 0.1348 0.0
C124 C 0.95063 0.66301 0.14687 0.0
H125 H 0.91954 0.71699 0.14719 0.0
H126 H 0.92702 0.65282 0.12352 0.0
H127 H 0.9289 0.73255 0.11138 0.0
H128 H 0.9701 0.70081 0.06728 0.0
H129 H 0.8532 0.63382 0.14839 0.0
H130 H 0.95263 0.71383 0.16823 0.0
H131 H 0.96006 0.64825 0.14518 0.0
C132 C 0.41615 0.06485 0.17639 0.0
C133 C 0.42229 0.04564 0.18593 0.0
N134 N 0.41472 0.04544 0.20644 0.0
N135 N 0.40468 0.07667 0.19076 0.0
C136 C 0.40434 0.06458 0.20906 0.0
H137 H 0.4188 0.06943 0.15964 0.0
Co138 Co 0.38956 0.10144 0.18272 0.0
C139 C 0.36091 0.11058 0.22063 0.0
O140 O 0.34353 0.11173 0.20836 0.0
N141 N 0.37442 0.12701 0.17364 0.0
C142 C 0.34983 0.15028 0.16044 0.0
C143 C 0.35365 0.12917 0.16665 0.0
C144 C 0.38275 0.14726 0.17134 0.0
N145 N 0.36829 0.1615 0.16322 0.0
O146 O 0.4146 0.11805 0.19004 0.0
H147 H 0.34179 0.11627 0.16586 0.0
H148 H 0.39908 0.1519 0.17556 0.0
O149 O 0.37926 0.10576 0.21226 0.0
C150 C 0.42807 0.12153 0.17479 0.0
O151 O 0.42312 0.1156 0.15491 0.0
N152 N 0.36638 0.08351 0.17457 0.0
C153 C 0.34977 0.04538 0.15697 0.0
C154 C 0.3486 0.04916 0.1794 0.0
C155 C 0.35704 0.06844 0.18794 0.0
C156 C 0.36554 0.08104 0.15263 0.0
C157 C 0.35687 0.06229 0.14346 0.0
H158 H 0.35853 0.06976 0.20534 0.0
H159 H 0.37369 0.09265 0.14227 0.0
H160 H 0.39525 0.06889 0.22346 0.0
H161 H 0.43098 0.03251 0.17814 0.0
H162 H 0.33488 0.15673 0.15382 0.0
H163 H 0.34348 0.03648 0.19045 0.0
H164 H 0.35774 0.06019 0.12602 0.0
C165 C 0.57455 0.44228 0.18353 0.0
C166 C 0.56812 0.46008 0.19535 0.0
N167 N 0.57708 0.45868 0.21526 0.0
N168 N 0.58755 0.42975 0.19588 0.0
C169 C 0.58861 0.44003 0.21523 0.0
H170 H 0.57087 0.4392 0.16665 0.0
Co171 Co 0.60291 0.40617 0.185 0.0
C172 C 0.63661 0.39814 0.21842 0.0
O173 O 0.65197 0.39841 0.20367 0.0
N174 N 0.61834 0.38177 0.17327 0.0
C175 C 0.64186 0.36062 0.15554 0.0
C176 C 0.6378 0.38121 0.16304 0.0
C177 C 0.61121 0.36098 0.17189 0.0
N178 N 0.62498 0.3479 0.16096 0.0
O179 O 0.57954 0.38791 0.1937 0.0
H180 H 0.64859 0.39486 0.16086 0.0
H181 H 0.59585 0.35544 0.17816 0.0
O182 O 0.61689 0.40151 0.21295 0.0
C183 C 0.56637 0.38608 0.17788 0.0
O184 O 0.57156 0.39505 0.15921 0.0
N185 N 0.62384 0.42565 0.17498 0.0
C186 C 0.63823 0.46379 0.15559 0.0
C187 C 0.64163 0.46019 0.17783 0.0
C188 C 0.63408 0.44098 0.18733 0.0
C189 C 0.62183 0.42834 0.15312 0.0
C190 C 0.62929 0.44709 0.14304 0.0
H191 H 0.63437 0.43965 0.2048 0.0
H192 H 0.61267 0.41666 0.14374 0.0
H193 H 0.59881 0.43481 0.22855 0.0
H194 H 0.5582 0.47336 0.18952 0.0
H195 H 0.65613 0.35555 0.14663 0.0
H196 H 0.6481 0.4729 0.18811 0.0
H197 H 0.62648 0.44922 0.1258 0.0
C198 C 0.4182 0.94013 0.3318 0.0
C199 C 0.42503 0.95868 0.32147 0.0
N200 N 0.41498 0.95981 0.3021 0.0
N201 N 0.4039 0.9296 0.31902 0.0
C202 C 0.4024 0.9419 0.30091 0.0
H203 H 0.4224 0.93529 0.34814 0.0
Co204 Co 0.38697 0.90676 0.32894 0.0
C205 C 0.36739 0.88522 0.29007 0.0
O206 O 0.35173 0.87675 0.30178 0.0
N207 N 0.37018 0.88369 0.34041 0.0
C208 C 0.3483 0.86466 0.3621 0.0
C209 C 0.35306 0.88496 0.35412 0.0
C210 C 0.37525 0.86229 0.34016 0.0
N211 N 0.36233 0.85048 0.35333 0.0
O212 O 0.4124 0.88902 0.32993 0.0
H213 H 0.34499 0.89968 0.35904 0.0
H214 H 0.38892 0.85558 0.33141 0.0
O215 O 0.38171 0.89737 0.29895 0.0
C216 C 0.42092 0.88707 0.34865 0.0
O217 O 0.41085 0.89572 0.36536 0.0
N218 N 0.36312 0.92561 0.329 0.0
C219 C 0.34067 0.96465 0.33135 0.0
C220 C 0.34049 0.95249 0.31215 0.0
C221 C 0.35167 0.93275 0.31135 0.0
C222 C 0.3624 0.93676 0.34808 0.0
C223 C 0.3509 0.95612 0.34974 0.0
H224 H 0.35281 0.92469 0.2959 0.0
H225 H 0.37223 0.93137 0.36161 0.0
H226 H 0.3911 0.93875 0.28786 0.0
H227 H 0.43592 0.97082 0.32804 0.0
H228 H 0.33594 0.86075 0.37396 0.0
H229 H 0.33306 0.9589 0.29755 0.0
H230 H 0.35177 0.96536 0.36468 0.0
C231 C 0.58416 0.57915 0.32254 0.0
C232 C 0.57578 0.5614 0.31185 0.0
N233 N 0.58295 0.56186 0.2912 0.0
N234 N 0.59669 0.59059 0.30872 0.0
C235 C 0.59545 0.57978 0.28969 0.0
H236 H 0.58215 0.58293 0.33956 0.0
Co237 Co 0.61452 0.61336 0.31712 0.0
C238 C 0.64193 0.62246 0.27842 0.0
O239 O 0.65964 0.62423 0.29016 0.0
N240 N 0.6326 0.63689 0.32629 0.0
C241 C 0.65744 0.65678 0.34368 0.0
C242 C 0.65159 0.63621 0.3374 0.0
C243 C 0.62787 0.65839 0.3254 0.0
N244 N 0.64241 0.67068 0.33621 0.0
O245 O 0.591 0.63257 0.31179 0.0
H246 H 0.66066 0.62175 0.34134 0.0
H247 H 0.61344 0.66503 0.31796 0.0
O248 O 0.62393 0.61763 0.28746 0.0
C249 C 0.58023 0.63802 0.32853 0.0
O250 O 0.58746 0.63239 0.3478 0.0
N251 N 0.63581 0.59287 0.32372 0.0
C252 C 0.64875 0.55245 0.33908 0.0
C253 C 0.65152 0.5578 0.31711 0.0
C254 C 0.64474 0.57823 0.30963 0.0
C255 C 0.6347 0.58841 0.34535 0.0
C256 C 0.64141 0.56845 0.35342 0.0
H257 H 0.64431 0.58105 0.29235 0.0
H258 H 0.62653 0.59965 0.35608 0.0
H259 H 0.60468 0.58405 0.27537 0.0
H260 H 0.5657 0.54882 0.31886 0.0
H261 H 0.67137 0.66114 0.35348 0.0
H262 H 0.65675 0.54565 0.30554 0.0
H263 H 0.63898 0.56486 0.37048 0.0
C264 C 0.1768 0.42463 0.06399 0.0
C265 C 0.18822 0.42815 0.04516 0.0
N266 N 0.20546 0.41471 0.04497 0.0
N267 N 0.18675 0.40904 0.07568 0.0
C268 C 0.20437 0.40348 0.0638 0.0
H269 H 0.16149 0.43203 0.06831 0.0
Co270 Co 0.17343 0.39593 0.09936 0.0
C271 C 0.20563 0.36712 0.12047 0.0
O272 O 0.19021 0.35359 0.12624 0.0
N273 N 0.15887 0.38319 0.1234 0.0
C274 C 0.13675 0.36407 0.14488 0.0
C275 C 0.1439 0.36707 0.12389 0.0
C276 C 0.16037 0.38965 0.14436 0.0
N277 N 0.14703 0.37848 0.15757 0.0
O278 O 0.17901 0.42146 0.11598 0.0
H279 H 0.13821 0.35804 0.10999 0.0
H280 H 0.17101 0.40239 0.15006 0.0
O281 O 0.20118 0.38392 0.10908 0.0
C282 C 0.16269 0.43391 0.11818 0.0
O283 O 0.144 0.42788 0.10981 0.0
N284 N 0.1671 0.37229 0.0815 0.0
C285 C 0.15902 0.35416 0.04114 0.0
C286 C 0.17803 0.34887 0.0524 0.0
C287 C 0.18178 0.35807 0.07282 0.0
C288 C 0.14768 0.37588 0.07155 0.0
C289 C 0.14322 0.36682 0.05136 0.0
H290 H 0.19756 0.35584 0.08002 0.0
H291 H 0.13665 0.38782 0.07821 0.0
H292 H 0.21526 0.39037 0.06804 0.0
H293 H 0.18374 0.43922 0.03226 0.0
H294 H 0.12443 0.35276 0.15028 0.0
H295 H 0.19071 0.33949 0.04463 0.0
H296 H 0.12855 0.3715 0.04284 0.0
C297 C 0.18613 0.5709 0.43703 0.0
C298 C 0.19816 0.56294 0.45413 0.0
N299 N 0.21714 0.57378 0.45473 0.0
N300 N 0.19745 0.58676 0.42709 0.0
C301 C 0.21634 0.58805 0.43814 0.0
H302 H 0.16978 0.56618 0.4327 0.0
Co303 Co 0.18628 0.60493 0.40595 0.0
C304 C 0.22264 0.63392 0.39304 0.0
O305 O 0.20952 0.65064 0.39116 0.0
N306 N 0.17446 0.6231 0.38433 0.0
C307 C 0.1515 0.64278 0.36454 0.0
C308 C 0.15657 0.63579 0.38513 0.0
C309 C 0.18009 0.62299 0.36309 0.0
N310 N 0.16627 0.63459 0.35071 0.0
O311 O 0.19026 0.5823 0.38497 0.0
H312 H 0.14689 0.63886 0.39938 0.0
H313 H 0.19318 0.61324 0.35657 0.0
O314 O 0.21525 0.6156 0.39935 0.0
C315 C 0.17312 0.57374 0.37723 0.0
O316 O 0.15408 0.58132 0.38316 0.0
N317 N 0.18104 0.62555 0.42767 0.0
C318 C 0.16895 0.64406 0.4671 0.0
C319 C 0.18953 0.64818 0.45833 0.0
C320 C 0.19547 0.6384 0.43864 0.0
C321 C 0.1608 0.62201 0.43583 0.0
C322 C 0.15435 0.63126 0.45537 0.0
H323 H 0.21208 0.63985 0.43341 0.0
H324 H 0.15003 0.61081 0.42765 0.0
H325 H 0.2287 0.60014 0.43505 0.0
H326 H 0.19314 0.55058 0.46558 0.0
H327 H 0.13743 0.65227 0.35995 0.0
H328 H 0.20141 0.65747 0.46737 0.0
H329 H 0.13843 0.62746 0.46184 0.0
C330 C 0.82666 0.91616 0.42749 0.0
C331 C 0.81656 0.92245 0.44637 0.0
N332 N 0.79795 0.91112 0.44827 0.0
N333 N 0.81454 0.90089 0.41762 0.0
C334 C 0.79695 0.89837 0.43047 0.0
H335 H 0.8425 0.92135 0.42197 0.0
Co336 Co 0.8251 0.88428 0.395 0.0
C337 C 0.7892 0.85607 0.38029 0.0
O338 O 0.803 0.83993 0.37827 0.0
N339 N 0.83671 0.86801 0.37187 0.0
C340 C 0.86039 0.85209 0.3497 0.0
C341 C 0.85538 0.85651 0.37103 0.0
C342 C 0.83053 0.86994 0.35089 0.0
N343 N 0.84474 0.86067 0.33711 0.0
O344 O 0.82135 0.90867 0.37601 0.0
H345 H 0.86571 0.85287 0.38469 0.0
H346 H 0.81685 0.87967 0.34566 0.0
O347 O 0.79575 0.8744 0.38756 0.0
C348 C 0.83843 0.91794 0.36897 0.0
O349 O 0.85752 0.90985 0.37399 0.0
N350 N 0.83 0.86174 0.41507 0.0
C351 C 0.83927 0.84417 0.45568 0.0
C352 C 0.81887 0.84102 0.44625 0.0
C353 C 0.81448 0.85 0.42585 0.0
C354 C 0.8503 0.86377 0.42365 0.0
C355 C 0.85537 0.85488 0.44383 0.0
H356 H 0.79791 0.8496 0.42035 0.0
H357 H 0.86194 0.87438 0.41588 0.0
H358 H 0.78453 0.88625 0.42779 0.0
H359 H 0.82282 0.93381 0.45821 0.0
H360 H 0.87499 0.84426 0.34384 0.0
H361 H 0.80588 0.83348 0.4554 0.0
H362 H 0.87108 0.8582 0.45103 0.0
C363 C 0.3249 0.57426 0.57435 0.0
C364 C 0.31366 0.56578 0.55701 0.0
N365 N 0.2931 0.57318 0.55792 0.0
N366 N 0.31153 0.58708 0.58596 0.0
C367 C 0.29217 0.58588 0.57573 0.0
H368 H 0.34205 0.57231 0.57758 0.0
Co369 Co 0.32119 0.60558 0.60753 0.0
C370 C 0.28303 0.63109 0.62154 0.0
O371 O 0.29497 0.64874 0.62251 0.0
N372 N 0.33173 0.62421 0.6298 0.0
C373 C 0.34981 0.64916 0.64879 0.0
C374 C 0.34427 0.64219 0.62834 0.0
C375 C 0.32966 0.62095 0.65148 0.0
N376 N 0.34079 0.63562 0.66334 0.0
O377 O 0.31973 0.58186 0.62751 0.0
H378 H 0.34967 0.64977 0.61352 0.0
H379 H 0.32044 0.60779 0.65855 0.0
O380 O 0.29146 0.61322 0.61521 0.0
C381 C 0.33738 0.57329 0.63398 0.0
O382 O 0.35596 0.58207 0.62829 0.0
N383 N 0.32369 0.62738 0.58625 0.0
C384 C 0.33144 0.64618 0.54582 0.0
C385 C 0.31044 0.64581 0.55447 0.0
C386 C 0.30685 0.6363 0.5748 0.0
C387 C 0.34427 0.62812 0.57812 0.0
C388 C 0.34859 0.63785 0.55813 0.0
H389 H 0.29029 0.63427 0.58 0.0
H390 H 0.3572 0.61975 0.58658 0.0
H391 H 0.27813 0.59546 0.58014 0.0
H392 H 0.32028 0.55573 0.54421 0.0
H393 H 0.36054 0.66254 0.65258 0.0
H394 H 0.29676 0.65144 0.54495 0.0
H395 H 0.36489 0.63724 0.55156 0.0
C396 C 0.93744 0.81963 0.58502 0.0
C397 C 0.95695 0.81071 0.57876 0.0
N398 N 0.95803 0.79035 0.58668 0.0
N399 N 0.92628 0.80498 0.59683 0.0
C400 C 0.93918 0.78724 0.59742 0.0
H401 H 0.93224 0.83615 0.58218 0.0
Co402 Co 0.90139 0.81124 0.61269 0.0
C403 C 0.88089 0.76925 0.61884 0.0
O404 O 0.86313 0.77774 0.61062 0.0
N405 N 0.87637 0.81789 0.62907 0.0
C406 C 0.85248 0.81777 0.65618 0.0
C407 C 0.87339 0.81282 0.65021 0.0
C408 C 0.85703 0.82619 0.62268 0.0
N409 N 0.84216 0.82606 0.63879 0.0
O410 O 0.88455 0.80675 0.58697 0.0
H411 H 0.88531 0.805 0.66044 0.0
H412 H 0.85332 0.83097 0.60624 0.0
O413 O 0.89798 0.78086 0.62059 0.0
C414 C 0.88159 0.82344 0.57517 0.0
O415 O 0.8884 0.84238 0.58221 0.0
N416 N 0.91902 0.817 0.63656 0.0
C417 C 0.95579 0.83055 0.65868 0.0
C418 C 0.94968 0.80864 0.65905 0.0
C419 C 0.9311 0.80209 0.64772 0.0
C420 C 0.92348 0.83856 0.63803 0.0
C421 C 0.94188 0.84573 0.64902 0.0
H422 H 0.92776 0.78496 0.64628 0.0
H423 H 0.91394 0.85001 0.62872 0.0
H424 H 0.9356 0.77288 0.60687 0.0
H425 H 0.96963 0.81884 0.56971 0.0
H426 H 0.84525 0.8148 0.67191 0.0
H427 H 0.96023 0.79651 0.66619 0.0
H428 H 0.9462 0.86277 0.64838 0.0
C429 C 0.06515 0.66636 0.589 0.0
C430 C 0.04644 0.67595 0.58154 0.0
N431 N 0.04552 0.6963 0.58947 0.0
N432 N 0.07599 0.68054 0.60162 0.0
C433 C 0.06378 0.69879 0.60137 0.0
H434 H 0.06993 0.64967 0.58645 0.0
Co435 Co 0.09939 0.67232 0.61873 0.0
C436 C 0.11439 0.71163 0.64134 0.0
O437 O 0.11688 0.70005 0.65909 0.0
N438 N 0.12338 0.66312 0.63562 0.0
C439 C 0.14623 0.64331 0.6555 0.0
C440 C 0.12476 0.64738 0.6509 0.0
C441 C 0.1443 0.66852 0.63158 0.0
N442 N 0.15847 0.65657 0.64323 0.0
O443 O 0.11744 0.67222 0.59341 0.0
H444 H 0.11134 0.63841 0.65761 0.0
H445 H 0.14915 0.67999 0.61917 0.0
O446 O 0.10699 0.70268 0.62412 0.0
C447 C 0.12041 0.65305 0.58631 0.0
O448 O 0.11182 0.6368 0.59717 0.0
N449 N 0.08026 0.67068 0.64248 0.0
C450 C 0.04239 0.66254 0.66588 0.0
C451 C 0.05022 0.68376 0.66371 0.0
C452 C 0.06929 0.68754 0.65194 0.0
C453 C 0.07286 0.64997 0.6448 0.0
C454 C 0.05432 0.64546 0.65691 0.0
H455 H 0.07373 0.70414 0.64878 0.0
H456 H 0.08048 0.637 0.63575 0.0
H457 H 0.06733 0.71303 0.611 0.0
H458 H 0.03404 0.66825 0.57175 0.0
H459 H 0.15238 0.63093 0.66636 0.0
H460 H 0.04093 0.69738 0.66982 0.0
H461 H 0.04828 0.62895 0.65754 0.0
C462 C 0.92779 0.18553 0.92354 0.0
C463 C 0.94681 0.19548 0.92966 0.0
N464 N 0.94975 0.21303 0.91694 0.0
N465 N 0.91888 0.19667 0.90696 0.0
C466 C 0.93246 0.21354 0.90347 0.0
H467 H 0.92149 0.17041 0.92985 0.0
Co468 Co 0.89614 0.18585 0.89056 0.0
C469 C 0.88617 0.21898 0.85752 0.0
O470 O 0.88443 0.20373 0.84271 0.0
N471 N 0.87271 0.17418 0.8743 0.0
C472 C 0.85112 0.15156 0.85615 0.0
C473 C 0.87226 0.15649 0.86132 0.0
C474 C 0.85157 0.17999 0.87617 0.0
N475 N 0.83812 0.16625 0.8657 0.0
O476 O 0.87679 0.19389 0.91337 0.0
H477 H 0.88612 0.14693 0.85657 0.0
H478 H 0.84596 0.19316 0.88635 0.0
O479 O 0.89155 0.21403 0.87695 0.0
C480 C 0.86954 0.17816 0.92463 0.0
O481 O 0.87393 0.15818 0.91858 0.0
N482 N 0.91666 0.1766 0.87013 0.0
C483 C 0.95744 0.16111 0.85843 0.0
C484 C 0.95053 0.18162 0.85141 0.0
C485 C 0.93003 0.18925 0.85768 0.0
C486 C 0.92266 0.15604 0.8756 0.0
C487 C 0.94281 0.14785 0.86966 0.0
H488 H 0.92631 0.20606 0.85462 0.0
H489 H 0.91255 0.1467 0.88653 0.0
H490 H 0.93065 0.225 0.89027 0.0
H491 H 0.95803 0.18982 0.94196 0.0
H492 H 0.84567 0.13767 0.84687 0.0
H493 H 0.96162 0.19244 0.84309 0.0
H494 H 0.94761 0.13193 0.87541 0.0
C495 C 0.06335 0.33039 0.91118 0.0
C496 C 0.04357 0.32201 0.91719 0.0
N497 N 0.04199 0.30179 0.90908 0.0
N498 N 0.07409 0.3156 0.8992 0.0
C499 C 0.06079 0.29817 0.89841 0.0
H500 H 0.06906 0.34671 0.9142 0.0
Co501 Co 0.09878 0.3229 0.88375 0.0
C502 C 0.1128 0.28352 0.86023 0.0
O503 O 0.11735 0.2952 0.84295 0.0
N504 N 0.12406 0.33138 0.86856 0.0
C505 C 0.14848 0.35124 0.85072 0.0
C506 C 0.12671 0.34788 0.85431 0.0
C507 C 0.14457 0.32478 0.87302 0.0
N508 N 0.15965 0.33675 0.8626 0.0
O509 O 0.11533 0.31921 0.90958 0.0
H510 H 0.11395 0.35783 0.84767 0.0
H511 H 0.14845 0.3124 0.88488 0.0
O512 O 0.10447 0.29256 0.87694 0.0
C513 C 0.12204 0.33586 0.91974 0.0
O514 O 0.1188 0.35517 0.91126 0.0
N515 N 0.08097 0.32746 0.85943 0.0
C516 C 0.0428 0.33817 0.83775 0.0
C517 C 0.0503 0.31675 0.83783 0.0
C518 C 0.06955 0.31167 0.84874 0.0
C519 C 0.07419 0.34851 0.85865 0.0
C520 C 0.0554 0.35431 0.84749 0.0
H521 H 0.07351 0.29476 0.85061 0.0
H522 H 0.08226 0.36055 0.86856 0.0
H523 H 0.06403 0.28378 0.88886 0.0
H524 H 0.03099 0.33039 0.92616 0.0
H525 H 0.15558 0.36392 0.84082 0.0
H526 H 0.04049 0.30383 0.83104 0.0
H527 H 0.04962 0.3709 0.84835 0.0
C528 C 0.56621 0.92389 0.80801 0.0
C529 C 0.55797 0.94095 0.79617 0.0
N530 N 0.57209 0.94557 0.78013 0.0
N531 N 0.58532 0.91768 0.79936 0.0
C532 C 0.58841 0.9311 0.78229 0.0
H533 H 0.5591 0.9169 0.82246 0.0
Co534 Co 0.60326 0.89683 0.81158 0.0
C535 C 0.63168 0.88082 0.77608 0.0
O536 O 0.64814 0.87837 0.78942 0.0
N537 N 0.62094 0.8754 0.82483 0.0
C538 C 0.64108 0.85781 0.84919 0.0
C539 C 0.63523 0.87785 0.84131 0.0
C540 C 0.61889 0.85359 0.82273 0.0
N541 N 0.63057 0.84256 0.83765 0.0
O542 O 0.58028 0.87635 0.80805 0.0
H543 H 0.64033 0.89309 0.84821 0.0
H544 H 0.60776 0.84592 0.81152 0.0
O545 O 0.61375 0.88865 0.78296 0.0
C546 C 0.56985 0.86901 0.82428 0.0
O547 O 0.57645 0.87368 0.84402 0.0
N548 N 0.62444 0.91843 0.81569 0.0
C549 C 0.64335 0.95868 0.82363 0.0
C550 C 0.64706 0.94799 0.80396 0.0
C551 C 0.63751 0.92772 0.80029 0.0
C552 C 0.62127 0.9285 0.83513 0.0
C553 C 0.63089 0.94847 0.8396 0.0
H554 H 0.63906 0.92088 0.78432 0.0
H555 H 0.61008 0.92151 0.84674 0.0
H556 H 0.60255 0.93062 0.7719 0.0
H557 H 0.54331 0.94995 0.79973 0.0
H558 H 0.6515 0.85477 0.86302 0.0
H559 H 0.65609 0.95584 0.79107 0.0
H560 H 0.62725 0.95662 0.85476 0.0
C561 C 0.41641 0.55315 0.82651 0.0
C562 C 0.42397 0.53632 0.81401 0.0
N563 N 0.41779 0.53983 0.79332 0.0
N564 N 0.40563 0.56731 0.81378 0.0
C565 C 0.40684 0.55881 0.79361 0.0
H566 H 0.41776 0.55444 0.84396 0.0
Co567 Co 0.3898 0.59059 0.82452 0.0
C568 C 0.37584 0.61362 0.7855 0.0
O569 O 0.38329 0.6316 0.79423 0.0
N570 N 0.37394 0.61376 0.83592 0.0
C571 C 0.34755 0.63732 0.84286 0.0
C572 C 0.3524 0.61735 0.83413 0.0
C573 C 0.38174 0.6315 0.84617 0.0
N574 N 0.36609 0.64625 0.85031 0.0
O575 O 0.41346 0.60959 0.81757 0.0
H576 H 0.34109 0.60657 0.82612 0.0
H577 H 0.39877 0.63418 0.84939 0.0
O578 O 0.3771 0.59581 0.79603 0.0
C579 C 0.4298 0.60848 0.83014 0.0
O580 O 0.42913 0.5956 0.8471 0.0
N581 N 0.36788 0.5712 0.83221 0.0
C582 C 0.34805 0.53333 0.84661 0.0
C583 C 0.34624 0.53968 0.82482 0.0
C584 C 0.35647 0.55873 0.81784 0.0
C585 C 0.36807 0.5663 0.85374 0.0
C586 C 0.35823 0.54739 0.86132 0.0
H587 H 0.35682 0.56226 0.80067 0.0
H588 H 0.3776 0.5761 0.86476 0.0
H589 H 0.39867 0.56562 0.77964 0.0
H590 H 0.4327 0.52224 0.81987 0.0
H591 H 0.33173 0.64495 0.84303 0.0
H592 H 0.33872 0.52909 0.81297 0.0
H593 H 0.3599 0.54302 0.87828 0.0
C594 C 0.57937 0.07105 0.67806 0.0
C595 C 0.57254 0.05283 0.68913 0.0
N596 N 0.58621 0.04944 0.70588 0.0
N597 N 0.59719 0.07908 0.68786 0.0
C598 C 0.60076 0.06578 0.70491 0.0
H599 H 0.57253 0.07737 0.66317 0.0
Co600 Co 0.61486 0.10083 0.67685 0.0
C601 C 0.64742 0.10941 0.71099 0.0
O602 O 0.66299 0.10987 0.69643 0.0
N603 N 0.63273 0.12325 0.66542 0.0
C604 C 0.65635 0.14322 0.6465 0.0
C605 C 0.64905 0.1225 0.6507 0.0
C606 C 0.63076 0.14464 0.67004 0.0
N607 N 0.6446 0.15704 0.65857 0.0
O608 O 0.59267 0.12144 0.68392 0.0
H609 H 0.65521 0.10801 0.64304 0.0
H610 H 0.61908 0.15127 0.68134 0.0
O611 O 0.62791 0.10528 0.70527 0.0
C612 C 0.58226 0.12882 0.66764 0.0
O613 O 0.58845 0.1233 0.648 0.0
N614 N 0.63455 0.07928 0.66834 0.0
C615 C 0.64615 0.03863 0.65243 0.0
C616 C 0.65247 0.04499 0.67336 0.0
C617 C 0.64631 0.06545 0.68116 0.0
C618 C 0.62979 0.07384 0.64746 0.0
C619 C 0.63567 0.05375 0.63908 0.0
H620 H 0.64901 0.06892 0.69809 0.0
H621 H 0.61967 0.08452 0.63784 0.0
H622 H 0.61432 0.06748 0.71591 0.0
H623 H 0.55936 0.04221 0.68442 0.0
H624 H 0.66853 0.14787 0.63471 0.0
H625 H 0.66024 0.03356 0.68424 0.0
H626 H 0.63056 0.04944 0.62281 0.0
C627 C 0.41574 0.42898 0.67628 0.0
C628 C 0.42365 0.44602 0.68836 0.0
N629 N 0.41689 0.44344 0.709 0.0
N630 N 0.40399 0.41586 0.68924 0.0
C631 C 0.40514 0.42497 0.70911 0.0
H632 H 0.41766 0.42673 0.65897 0.0
Co633 Co 0.3876 0.39279 0.67931 0.0
C634 C 0.3625 0.37739 0.71733 0.0
O635 O 0.34493 0.37542 0.70539 0.0
N636 N 0.37147 0.36907 0.66856 0.0
C637 C 0.35308 0.34632 0.64729 0.0
C638 C 0.3576 0.36775 0.65158 0.0
C639 C 0.3748 0.34816 0.67443 0.0
N640 N 0.364 0.33405 0.66166 0.0
O641 O 0.41274 0.37482 0.68129 0.0
H642 H 0.35182 0.38117 0.64197 0.0
H643 H 0.38611 0.34326 0.68697 0.0
O644 O 0.38005 0.38454 0.70888 0.0
C645 C 0.42323 0.37258 0.66367 0.0
O646 O 0.41518 0.38119 0.64587 0.0
N647 N 0.36407 0.41202 0.67633 0.0
C648 C 0.3413 0.45025 0.66793 0.0
C649 C 0.34282 0.44218 0.68912 0.0
C650 C 0.35433 0.423 0.69303 0.0
C651 C 0.36253 0.41974 0.65564 0.0
C652 C 0.35072 0.43846 0.65098 0.0
H653 H 0.35713 0.41847 0.70968 0.0
H654 H 0.37205 0.41232 0.6429 0.0
H655 H 0.39643 0.41898 0.72315 0.0
H656 H 0.43316 0.45951 0.68233 0.0
H657 H 0.34323 0.34019 0.63409 0.0
H658 H 0.33639 0.45136 0.70266 0.0
H659 H 0.35063 0.44473 0.63454 0.0
C660 C 0.82216 0.58685 0.925 0.0
C661 C 0.80961 0.58022 0.94227 0.0
N662 N 0.79037 0.59057 0.94109 0.0
N663 N 0.81093 0.60137 0.91312 0.0
C664 C 0.79154 0.60316 0.9232 0.0
H665 H 0.83873 0.58203 0.92172 0.0
Co666 Co 0.82266 0.6169 0.89018 0.0
C667 C 0.78982 0.65068 0.88033 0.0
O668 O 0.80473 0.66589 0.87961 0.0
N669 N 0.83517 0.6325 0.86636 0.0
C670 C 0.85646 0.65348 0.84581 0.0
C671 C 0.84907 0.64955 0.8665 0.0
C672 C 0.83384 0.62709 0.84506 0.0
N673 N 0.84697 0.63918 0.83237 0.0
O674 O 0.81402 0.59388 0.87148 0.0
H675 H 0.8541 0.65854 0.88066 0.0
H676 H 0.82425 0.6138 0.83886 0.0
O677 O 0.79509 0.63116 0.88488 0.0
C678 C 0.82924 0.58072 0.86685 0.0
O679 O 0.84916 0.5853 0.87294 0.0
N680 N 0.83227 0.63743 0.91031 0.0
C681 C 0.84929 0.65006 0.95024 0.0
C682 C 0.82779 0.65523 0.94472 0.0
C683 C 0.81946 0.64856 0.92462 0.0
C684 C 0.85356 0.63365 0.91494 0.0
C685 C 0.86251 0.64024 0.93457 0.0
H686 H 0.80224 0.65017 0.92185 0.0
H687 H 0.86316 0.62376 0.90406 0.0
H688 H 0.77896 0.61439 0.9183 0.0
H689 H 0.81441 0.569 0.95491 0.0
H690 H 0.8683 0.66559 0.8411 0.0
H691 H 0.81696 0.66242 0.95656 0.0
H692 H 0.87922 0.63605 0.93815 0.0
C693 C 0.8385 0.39424 0.55826 0.0
C694 C 0.82739 0.40144 0.54027 0.0
N695 N 0.80599 0.39886 0.54397 0.0
N696 N 0.8242 0.38703 0.57315 0.0
C697 C 0.80448 0.39025 0.56408 0.0
H698 H 0.85595 0.39338 0.56003 0.0
Co699 Co 0.83244 0.37231 0.59811 0.0
C700 C 0.7925 0.35215 0.61524 0.0
O701 O 0.80331 0.33419 0.61923 0.0
N702 N 0.84153 0.35785 0.62362 0.0
C703 C 0.86093 0.34045 0.64874 0.0
C704 C 0.85744 0.34305 0.62682 0.0
C705 C 0.83549 0.36371 0.64392 0.0
N706 N 0.84712 0.35352 0.65941 0.0
O707 O 0.83305 0.39918 0.6134 0.0
H708 H 0.86685 0.33523 0.61434 0.0
H709 H 0.82366 0.37626 0.64729 0.0
O710 O 0.80218 0.36831 0.60654 0.0
C711 C 0.852 0.40732 0.6143 0.0
O712 O 0.86817 0.39635 0.60574 0.0
N713 N 0.83327 0.34679 0.58149 0.0
C714 C 0.83984 0.32308 0.54357 0.0
C715 C 0.81881 0.32647 0.55148 0.0
C716 C 0.81582 0.33839 0.57056 0.0
C717 C 0.85382 0.34273 0.57436 0.0
C718 C 0.8575 0.33039 0.55579 0.0
H719 H 0.79947 0.34307 0.57465 0.0
H720 H 0.86735 0.35129 0.58155 0.0
H721 H 0.78936 0.38519 0.57145 0.0
H722 H 0.8345 0.40768 0.52546 0.0
H723 H 0.87317 0.33031 0.65624 0.0
H724 H 0.80481 0.32172 0.54196 0.0
H725 H 0.87392 0.32887 0.54964 0.0
C726 C 0.17706 0.07279 0.57 0.0
C727 C 0.1859 0.06653 0.55045 0.0
N728 N 0.20485 0.07712 0.54786 0.0
N729 N 0.1903 0.08738 0.57949 0.0
C730 C 0.20726 0.08945 0.56577 0.0
H731 H 0.16123 0.0683 0.57615 0.0
Co732 Co 0.18189 0.105 0.60227 0.0
C733 C 0.22048 0.13179 0.61336 0.0
O734 O 0.20849 0.14908 0.61682 0.0
N735 N 0.17262 0.12266 0.6255 0.0
C736 C 0.15238 0.14374 0.64675 0.0
C737 C 0.15635 0.13739 0.62575 0.0
C738 C 0.17854 0.12075 0.64658 0.0
N739 N 0.16626 0.13311 0.65982 0.0
O740 O 0.18721 0.0814 0.62166 0.0
H741 H 0.14702 0.14256 0.61187 0.0
H742 H 0.1906 0.10934 0.65233 0.0
O743 O 0.21171 0.11421 0.60676 0.0
C744 C 0.17148 0.07159 0.63074 0.0
O745 O 0.15169 0.0792 0.62844 0.0
N746 N 0.17556 0.12659 0.58186 0.0
C747 C 0.16303 0.14102 0.541 0.0
C748 C 0.18378 0.14586 0.54895 0.0
C749 C 0.18987 0.13832 0.56954 0.0
C750 C 0.15482 0.12336 0.57489 0.0
C751 C 0.14816 0.13058 0.55459 0.0
H752 H 0.20666 0.13979 0.57415 0.0
H753 H 0.14406 0.11312 0.58428 0.0
H754 H 0.22012 0.10124 0.56782 0.0
H755 H 0.17849 0.0559 0.53859 0.0
H756 H 0.13961 0.15456 0.65209 0.0
H757 H 0.19577 0.15347 0.53857 0.0
H758 H 0.1321 0.12634 0.54878 0.0
C759 C 0.69113 0.42371 0.43321 0.0
C760 C 0.70569 0.42748 0.44973 0.0
N761 N 0.72223 0.41333 0.44765 0.0
N762 N 0.69845 0.40729 0.42078 0.0
C763 C 0.71751 0.40138 0.42991 0.0
H764 H 0.67569 0.43176 0.431 0.0
Co765 Co 0.6822 0.39397 0.39918 0.0
C766 C 0.71297 0.36713 0.37303 0.0
O767 O 0.69755 0.35377 0.36686 0.0
N768 N 0.66482 0.38103 0.37745 0.0
C769 C 0.63811 0.36418 0.35981 0.0
C770 C 0.64796 0.36713 0.37962 0.0
C771 C 0.66485 0.38614 0.35606 0.0
N772 N 0.64874 0.37621 0.34503 0.0
O773 O 0.68473 0.41963 0.38192 0.0
H774 H 0.64254 0.35992 0.39462 0.0
H775 H 0.67605 0.39754 0.34878 0.0
O776 O 0.70871 0.38283 0.38591 0.0
C777 C 0.66821 0.432 0.38242 0.0
O778 O 0.65123 0.42581 0.39377 0.0
N779 N 0.67903 0.36995 0.41755 0.0
C780 C 0.67469 0.34555 0.45526 0.0
C781 C 0.69253 0.34235 0.44157 0.0
C782 C 0.69433 0.35463 0.42252 0.0
C783 C 0.66126 0.37261 0.43043 0.0
C784 C 0.65853 0.36026 0.44914 0.0
H785 H 0.709 0.3531 0.41314 0.0
H786 H 0.64981 0.38543 0.42679 0.0
H787 H 0.72703 0.38765 0.4246 0.0
H788 H 0.70394 0.43931 0.46259 0.0
H789 H 0.62401 0.35419 0.35662 0.0
H790 H 0.70555 0.33148 0.44621 0.0
H791 H 0.64483 0.36349 0.45969 0.0
C792 C 0.57334 0.67698 0.91204 0.0
C793 C 0.55369 0.68529 0.91849 0.0
N794 N 0.54931 0.70278 0.90615 0.0
N795 N 0.58128 0.6891 0.89566 0.0
C796 C 0.56637 0.70491 0.89253 0.0
H797 H 0.58085 0.66229 0.91807 0.0
Co798 Co 0.60483 0.68001 0.8794 0.0
C799 C 0.61439 0.71484 0.84775 0.0
O800 O 0.61797 0.70024 0.83264 0.0
N801 N 0.62918 0.66962 0.86316 0.0
C802 C 0.65004 0.64932 0.84158 0.0
C803 C 0.62917 0.6555 0.8463 0.0
C804 C 0.65059 0.67217 0.86781 0.0
N805 N 0.66349 0.65963 0.85529 0.0
O806 O 0.6233 0.68858 0.90281 0.0
H807 H 0.61502 0.64936 0.83804 0.0
H808 H 0.6567 0.68201 0.88097 0.0
O809 O 0.60826 0.7089 0.86669 0.0
C810 C 0.6302 0.67346 0.91511 0.0
O811 O 0.62647 0.65317 0.90972 0.0
N812 N 0.5852 0.67043 0.85827 0.0
C813 C 0.54951 0.65147 0.83775 0.0
C814 C 0.55489 0.67329 0.83388 0.0
C815 C 0.57268 0.68259 0.84455 0.0
C816 C 0.58028 0.64922 0.86203 0.0
C817 C 0.56275 0.63935 0.85177 0.0
H818 H 0.57522 0.6998 0.84284 0.0
H819 H 0.58959 0.64017 0.87387 0.0
H820 H 0.56723 0.71678 0.8796 0.0
H821 H 0.5431 0.67863 0.93084 0.0
H822 H 0.65489 0.63753 0.82949 0.0
H823 H 0.54491 0.68333 0.82345 0.0
H824 H 0.55888 0.62271 0.8559 0.0
C825 C 0.43075 0.81434 0.91676 0.0
C826 C 0.45055 0.80546 0.92175 0.0
N827 N 0.45221 0.78628 0.91147 0.0
N828 N 0.41991 0.80089 0.90335 0.0
C829 C 0.43328 0.78366 0.90069 0.0
H830 H 0.42541 0.83045 0.92116 0.0
Co831 Co 0.396 0.81062 0.88768 0.0
C832 C 0.37732 0.77362 0.86381 0.0
O833 O 0.37312 0.78671 0.84752 0.0
N834 N 0.37175 0.82182 0.87221 0.0
C835 C 0.35016 0.83862 0.84842 0.0
C836 C 0.37128 0.83355 0.85359 0.0
C837 C 0.3506 0.82032 0.87808 0.0
N838 N 0.33726 0.83039 0.86394 0.0
O839 O 0.37897 0.80887 0.91355 0.0
H840 H 0.38521 0.83814 0.84404 0.0
H841 H 0.34489 0.81186 0.89237 0.0
O842 O 0.38744 0.7807 0.88053 0.0
C843 C 0.37732 0.82654 0.92408 0.0
O844 O 0.38549 0.84432 0.91554 0.0
N845 N 0.41427 0.81337 0.86346 0.0
C846 C 0.45337 0.82013 0.842 0.0
C847 C 0.44341 0.79973 0.84148 0.0
C848 C 0.42364 0.79668 0.85219 0.0
C849 C 0.42316 0.83361 0.86288 0.0
C850 C 0.44254 0.83746 0.85188 0.0
H851 H 0.41757 0.78034 0.85342 0.0
H852 H 0.41612 0.8464 0.87262 0.0
H853 H 0.43017 0.77049 0.8895 0.0
H854 H 0.4633 0.81311 0.93112 0.0
H855 H 0.34472 0.84808 0.83464 0.0
H856 H 0.45164 0.78593 0.83435 0.0
H857 H 0.45006 0.85332 0.85298 0.0
C858 C 0.57084 0.31575 0.57798 0.0
C859 C 0.55339 0.30305 0.57205 0.0
N860 N 0.5552 0.28381 0.58229 0.0
N861 N 0.58339 0.30462 0.59203 0.0
C862 C 0.57353 0.28517 0.59418 0.0
H863 H 0.57375 0.33236 0.57308 0.0
Co864 Co 0.60674 0.31619 0.60718 0.0
C865 C 0.6211 0.28167 0.63837 0.0
O866 O 0.6294 0.2955 0.65229 0.0
N867 N 0.63062 0.32848 0.62214 0.0
C868 C 0.65291 0.35152 0.63892 0.0
C869 C 0.63161 0.3469 0.63405 0.0
C870 C 0.6516 0.32215 0.6203 0.0
N871 N 0.66544 0.33594 0.63019 0.0
O872 O 0.62522 0.30795 0.5837 0.0
H873 H 0.61799 0.357 0.63836 0.0
H874 H 0.65677 0.3082 0.61097 0.0
O875 O 0.6119 0.28824 0.62099 0.0
C876 C 0.63282 0.32329 0.57214 0.0
O877 O 0.62928 0.34349 0.57798 0.0
N878 N 0.58716 0.32523 0.62846 0.0
C879 C 0.54601 0.33845 0.64147 0.0
C880 C 0.55438 0.31847 0.64849 0.0
C881 C 0.57512 0.31202 0.64165 0.0
C882 C 0.57993 0.34545 0.62323 0.0
C883 C 0.55955 0.35251 0.62981 0.0
H884 H 0.58015 0.29558 0.64492 0.0
H885 H 0.58904 0.3552 0.61181 0.0
H886 H 0.57892 0.27259 0.60514 0.0
H887 H 0.54023 0.30772 0.56138 0.0
H888 H 0.65878 0.36555 0.64772 0.0
H889 H 0.54424 0.3071 0.65727 0.0
H890 H 0.55364 0.36806 0.6241 0.0
C891 C 0.44339 0.16785 0.59126 0.0
C892 C 0.46075 0.17972 0.58378 0.0
N893 N 0.45777 0.2006 0.58953 0.0
N894 N 0.42957 0.18115 0.60172 0.0
C895 C 0.43866 0.20106 0.60027 0.0
H896 H 0.44133 0.15048 0.58988 0.0
Co897 Co 0.40554 0.17129 0.61689 0.0
C898 C 0.38779 0.20937 0.63973 0.0
O899 O 0.38502 0.19752 0.65727 0.0
N900 N 0.38087 0.16063 0.63171 0.0
C901 C 0.35699 0.13967 0.64902 0.0
C902 C 0.37869 0.14391 0.64579 0.0
C903 C 0.36018 0.16635 0.6269 0.0
N904 N 0.34542 0.15379 0.63706 0.0
O905 O 0.3893 0.1716 0.59055 0.0
H906 H 0.39173 0.13447 0.65262 0.0
H907 H 0.356 0.17867 0.61508 0.0
O908 O 0.39627 0.20095 0.62278 0.0
C909 C 0.38856 0.15305 0.58152 0.0
O910 O 0.39772 0.13655 0.5915 0.0
N911 N 0.42313 0.16961 0.6418 0.0
C912 C 0.46017 0.1625 0.66693 0.0
C913 C 0.45192 0.18352 0.66422 0.0
C914 C 0.43336 0.18678 0.65151 0.0
C915 C 0.43088 0.14909 0.64464 0.0
C916 C 0.44897 0.14509 0.65762 0.0
H917 H 0.42884 0.20326 0.6478 0.0
H918 H 0.4242 0.13592 0.63515 0.0
H919 H 0.43207 0.21541 0.60795 0.0
H920 H 0.47469 0.17339 0.57516 0.0
H921 H 0.35025 0.12671 0.6588 0.0
H922 H 0.46062 0.19742 0.67057 0.0
H923 H 0.45538 0.12873 0.65855 0.0
C924 C 0.92702 0.56498 0.67748 0.0
C925 C 0.9346 0.54711 0.68851 0.0
N926 N 0.92164 0.54374 0.70579 0.0
N927 N 0.9093 0.57272 0.68769 0.0
C928 C 0.90655 0.55961 0.70507 0.0
H929 H 0.93314 0.57113 0.66221 0.0
Co930 Co 0.89089 0.59286 0.6752 0.0
C931 C 0.85861 0.60492 0.70853 0.0
O932 O 0.84324 0.60487 0.69373 0.0
N933 N 0.87248 0.61353 0.6617 0.0
C934 C 0.85009 0.63054 0.63892 0.0
C935 C 0.85755 0.61068 0.64584 0.0
C936 C 0.87341 0.63533 0.66429 0.0
N937 N 0.86034 0.64602 0.65037 0.0
O938 O 0.91242 0.61472 0.68021 0.0
H939 H 0.85276 0.59532 0.63896 0.0
H940 H 0.88403 0.64338 0.67573 0.0
O941 O 0.878 0.59956 0.70341 0.0
C942 C 0.92245 0.62182 0.66359 0.0
O943 O 0.91658 0.61508 0.64422 0.0
N944 N 0.87163 0.57012 0.66908 0.0
C945 C 0.85614 0.52947 0.65671 0.0
C946 C 0.85033 0.53835 0.67684 0.0
C947 C 0.85857 0.55865 0.68293 0.0
C948 C 0.87669 0.56195 0.64918 0.0
C949 C 0.86894 0.54182 0.64256 0.0
H950 H 0.85585 0.564 0.69934 0.0
H951 H 0.88784 0.57074 0.63882 0.0
H952 H 0.8928 0.56056 0.71596 0.0
H953 H 0.94801 0.53682 0.6837 0.0
H954 H 0.839 0.63338 0.62558 0.0
H955 H 0.84092 0.52899 0.68838 0.0
H956 H 0.87382 0.53549 0.6269 0.0
C957 C 0.08235 0.93163 0.68082 0.0
C958 C 0.07537 0.94937 0.69242 0.0
N959 N 0.08227 0.94718 0.71306 0.0
N960 N 0.09365 0.91838 0.69406 0.0
C961 C 0.09308 0.92813 0.71368 0.0
H962 H 0.08045 0.92918 0.66354 0.0
Co963 Co 0.11016 0.89529 0.68412 0.0
C964 C 0.13295 0.87779 0.72259 0.0
O965 O 0.15058 0.87513 0.71087 0.0
N966 N 0.1264 0.87171 0.67324 0.0
C967 C 0.14508 0.84952 0.65163 0.0
C968 C 0.1407 0.87086 0.6566 0.0
C969 C 0.1226 0.85064 0.67819 0.0
N970 N 0.13361 0.83688 0.66523 0.0
O971 O 0.08458 0.87779 0.68347 0.0
H972 H 0.14686 0.8846 0.6477 0.0
H973 H 0.11088 0.84546 0.69022 0.0
O974 O 0.11591 0.88587 0.7139 0.0
C975 C 0.07635 0.87714 0.66453 0.0
O976 O 0.08675 0.8869 0.64865 0.0
N977 N 0.13418 0.91415 0.68333 0.0
C978 C 0.1547 0.95416 0.6783 0.0
C979 C 0.15353 0.94433 0.69875 0.0
C980 C 0.14323 0.92423 0.70096 0.0
C981 C 0.13616 0.92317 0.66321 0.0
C982 C 0.14681 0.9429 0.66024 0.0
H983 H 0.14039 0.91844 0.7172 0.0
H984 H 0.12735 0.91623 0.64971 0.0
H985 H 0.10186 0.92233 0.72775 0.0
H986 H 0.06666 0.96321 0.68598 0.0
H987 H 0.15532 0.84374 0.63858 0.0
H988 H 0.15896 0.9529 0.71312 0.0
H989 H 0.14677 0.95036 0.6443 0.0
C990 C 0.91823 0.43401 0.82687 0.0
C991 C 0.92543 0.45283 0.8173 0.0
N992 N 0.91708 0.45385 0.79714 0.0
N993 N 0.90524 0.42334 0.81288 0.0
C994 C 0.90511 0.43565 0.79471 0.0
H995 H 0.92089 0.42919 0.84355 0.0
Co996 Co 0.8874 0.40105 0.82217 0.0
C997 C 0.86541 0.38311 0.78354 0.0
O998 O 0.84745 0.3807 0.7948 0.0
N999 N 0.86965 0.37832 0.83282 0.0
C1000 C 0.84762 0.35901 0.85403 0.0
C1001 C 0.85295 0.37951 0.84703 0.0
C1002 C 0.8737 0.35677 0.83111 0.0
N1003 N 0.86086 0.34475 0.84417 0.0
O1004 O 0.91213 0.38236 0.82269 0.0
H1005 H 0.84569 0.39422 0.85307 0.0
H1006 H 0.88694 0.35008 0.82171 0.0
O1007 O 0.88209 0.3918 0.79234 0.0
C1008 C 0.92053 0.3764 0.84058 0.0
O1009 O 0.91115 0.38196 0.85891 0.0
N1010 N 0.86424 0.42101 0.82243 0.0
C1011 C 0.84411 0.46135 0.82574 0.0
C1012 C 0.84458 0.45037 0.80588 0.0
C1013 C 0.85469 0.43011 0.80453 0.0
C1014 C 0.86289 0.43111 0.84207 0.0
C1015 C 0.8525 0.4511 0.84419 0.0
H1016 H 0.85686 0.42336 0.78859 0.0
H1017 H 0.87159 0.42446 0.85581 0.0
H1018 H 0.89493 0.43244 0.78076 0.0
H1019 H 0.93504 0.46539 0.82496 0.0
H1020 H 0.83562 0.35501 0.86624 0.0
H1021 H 0.83874 0.45814 0.79121 0.0
H1022 H 0.85296 0.45942 0.85968 0.0
C1023 C 0.08481 0.06439 0.8238 0.0
C1024 C 0.07752 0.04694 0.81196 0.0
N1025 N 0.0859 0.04835 0.79181 0.0
N1026 N 0.09776 0.0767 0.81119 0.0
C1027 C 0.09796 0.06665 0.79171 0.0
H1028 H 0.08165 0.06746 0.84079 0.0
Co1029 Co 0.11389 0.09973 0.82174 0.0
C1030 C 0.13946 0.1162 0.78462 0.0
O1031 O 0.1566 0.11856 0.79712 0.0
N1032 N 0.12962 0.12333 0.83316 0.0
C1033 C 0.14641 0.14605 0.85572 0.0
C1034 C 0.14222 0.12459 0.85109 0.0
C1035 C 0.12665 0.14424 0.82713 0.0
N1036 N 0.13654 0.15833 0.84061 0.0
O1037 O 0.0888 0.11768 0.81957 0.0
H1038 H 0.14713 0.1111 0.8611 0.0
H1039 H 0.11612 0.14914 0.81393 0.0
O1040 O 0.12191 0.10836 0.79244 0.0
C1041 C 0.07828 0.12024 0.83712 0.0
O1042 O 0.08605 0.11159 0.85502 0.0
N1043 N 0.13749 0.08056 0.82483 0.0
C1044 C 0.1578 0.04075 0.83196 0.0
C1045 C 0.15791 0.05019 0.8113 0.0
C1046 C 0.14766 0.07016 0.80802 0.0
C1047 C 0.13816 0.07194 0.84521 0.0
C1048 C 0.14867 0.05229 0.84924 0.0
H1049 H 0.14582 0.07557 0.79152 0.0
H1050 H 0.12849 0.07912 0.85797 0.0
H1051 H 0.1078 0.07186 0.77813 0.0
H1052 H 0.06728 0.03395 0.81789 0.0
H1053 H 0.15525 0.15218 0.86962 0.0
H1054 H 0.16428 0.04137 0.79748 0.0
H1055 H 0.1476 0.04511 0.86527 0.0
C1056 C 0.67672 0.90866 0.55776 0.0
C1057 C 0.68598 0.91446 0.53833 0.0
N1058 N 0.70599 0.90574 0.53747 0.0
N1059 N 0.69079 0.89628 0.56906 0.0
C1060 C 0.70864 0.89496 0.55638 0.0
H1061 H 0.66025 0.91206 0.56275 0.0
Co1062 Co 0.68212 0.88084 0.59335 0.0
C1063 C 0.72025 0.857 0.60998 0.0
O1064 O 0.70754 0.8408 0.61552 0.0
N1065 N 0.67207 0.86565 0.61813 0.0
C1066 C 0.65182 0.84606 0.64084 0.0
C1067 C 0.65682 0.8499 0.61945 0.0
C1068 C 0.67627 0.8708 0.63911 0.0
N1069 N 0.66401 0.8593 0.65316 0.0
O1070 O 0.68483 0.90666 0.61023 0.0
H1071 H 0.64896 0.84208 0.60593 0.0
H1072 H 0.68723 0.88361 0.64402 0.0
O1073 O 0.71229 0.87359 0.60036 0.0
C1074 C 0.66723 0.91705 0.61312 0.0
O1075 O 0.6491 0.90865 0.60562 0.0
N1076 N 0.67837 0.85658 0.5753 0.0
C1077 C 0.66934 0.83369 0.53741 0.0
C1078 C 0.69037 0.83379 0.54601 0.0
C1079 C 0.69459 0.84529 0.56512 0.0
C1080 C 0.65771 0.85591 0.56741 0.0
C1081 C 0.65272 0.84413 0.54878 0.0
H1082 H 0.71127 0.84691 0.57006 0.0
H1083 H 0.64535 0.86604 0.57471 0.0
H1084 H 0.72259 0.88493 0.56008 0.0
H1085 H 0.6783 0.92365 0.52546 0.0
H1086 H 0.63965 0.83491 0.64686 0.0
H1087 H 0.70368 0.82642 0.53719 0.0
H1088 H 0.63643 0.84497 0.54218 0.0
C1089 C 0.67189 0.08153 0.9313 0.0
C1090 C 0.68284 0.075 0.94968 0.0
N1091 N 0.70322 0.0828 0.94858 0.0
N1092 N 0.68527 0.09357 0.91886 0.0
C1093 C 0.70434 0.09383 0.9297 0.0
H1094 H 0.65489 0.07882 0.92782 0.0
Co1095 Co 0.67605 0.11006 0.89538 0.0
C1096 C 0.71339 0.13885 0.88497 0.0
O1097 O 0.70076 0.15582 0.88231 0.0
N1098 N 0.6661 0.12682 0.87123 0.0
C1099 C 0.64787 0.15017 0.85031 0.0
C1100 C 0.6539 0.14513 0.87118 0.0
C1101 C 0.66782 0.12167 0.84989 0.0
N1102 N 0.65653 0.13528 0.83697 0.0
O1103 O 0.68228 0.08601 0.87697 0.0
H1104 H 0.64911 0.15431 0.88529 0.0
H1105 H 0.67633 0.10759 0.84381 0.0
O1106 O 0.70527 0.12066 0.89066 0.0
C1107 C 0.66584 0.07479 0.87144 0.0
O1108 O 0.64635 0.08158 0.87682 0.0
N1109 N 0.66857 0.13182 0.91503 0.0
C1110 C 0.65275 0.14611 0.95478 0.0
C1111 C 0.67453 0.14968 0.94916 0.0
C1112 C 0.68226 0.14219 0.9291 0.0
C1113 C 0.64706 0.1298 0.91971 0.0
C1114 C 0.63874 0.13714 0.93932 0.0
H1115 H 0.69953 0.14249 0.9262 0.0
H1116 H 0.63671 0.12052 0.90897 0.0
H1117 H 0.71831 0.10329 0.92478 0.0
H1118 H 0.67614 0.06589 0.96314 0.0
H1119 H 0.6375 0.16348 0.84538 0.0
H1120 H 0.68586 0.15617 0.96094 0.0
H1121 H 0.62185 0.13403 0.94316 0.0
C1122 C 0.33176 0.39863 0.94232 0.0
C1123 C 0.32227 0.40425 0.96168 0.0
N1124 N 0.30119 0.39851 0.96091 0.0
N1125 N 0.31681 0.38936 0.92934 0.0
C1126 C 0.2982 0.38972 0.94101 0.0
H1127 H 0.34881 0.40006 0.93841 0.0
Co1128 Co 0.32468 0.37505 0.90398 0.0
C1129 C 0.28507 0.35484 0.88659 0.0
O1130 O 0.2963 0.33718 0.88245 0.0
N1131 N 0.33364 0.36095 0.8782 0.0
C1132 C 0.35223 0.34212 0.85354 0.0
C1133 C 0.34848 0.34501 0.87534 0.0
C1134 C 0.3285 0.36724 0.85775 0.0
N1135 N 0.3397 0.35617 0.84253 0.0
O1136 O 0.32499 0.40229 0.88909 0.0
H1137 H 0.35682 0.33633 0.88802 0.0
H1138 H 0.31753 0.38047 0.85409 0.0
O1139 O 0.29428 0.37103 0.89576 0.0
C1140 C 0.34389 0.41061 0.88835 0.0
O1141 O 0.36025 0.39926 0.89603 0.0
N1142 N 0.32587 0.34927 0.92025 0.0
C1143 C 0.33279 0.32497 0.95773 0.0
C1144 C 0.31179 0.32756 0.94945 0.0
C1145 C 0.30863 0.3398 0.9306 0.0
C1146 C 0.34646 0.34588 0.92763 0.0
C1147 C 0.35034 0.3333 0.94601 0.0
H1148 H 0.29216 0.34376 0.92629 0.0
H1149 H 0.35977 0.35492 0.9206 0.0
H1150 H 0.28318 0.3823 0.93572 0.0
H1151 H 0.3304 0.41139 0.97552 0.0
H1152 H 0.36369 0.33091 0.84635 0.0
H1153 H 0.29784 0.32195 0.95857 0.0
H1154 H 0.36671 0.33232 0.95241 0.0
C1155 C 0.81061 0.08362 0.06869 0.0
C1156 C 0.79822 0.07649 0.05159 0.0
N1157 N 0.77922 0.08732 0.05189 0.0
N1158 N 0.79955 0.09893 0.07969 0.0
C1159 C 0.78033 0.10068 0.06925 0.0
H1160 H 0.82704 0.07867 0.07241 0.0
Co1161 Co 0.81255 0.11489 0.10151 0.0
C1162 C 0.77989 0.14461 0.11944 0.0
O1163 O 0.79508 0.15955 0.12054 0.0
N1164 N 0.82677 0.1303 0.12399 0.0
C1165 C 0.85223 0.14533 0.14485 0.0
C1166 C 0.8458 0.14126 0.12382 0.0
C1167 C 0.82192 0.12826 0.14534 0.0
N1168 N 0.83719 0.13704 0.15831 0.0
O1169 O 0.80951 0.09047 0.12044 0.0
H1170 H 0.8553 0.14496 0.10961 0.0
H1171 H 0.80821 0.11903 0.15132 0.0
O1172 O 0.7843 0.12597 0.11138 0.0
C1173 C 0.82697 0.08074 0.12562 0.0
O1174 O 0.84564 0.08824 0.11854 0.0
N1175 N 0.81647 0.1376 0.08141 0.0
C1176 C 0.82347 0.15822 0.04173 0.0
C1177 C 0.80328 0.15964 0.05198 0.0
C1178 C 0.80006 0.14919 0.07186 0.0
C1179 C 0.83637 0.13664 0.07178 0.0
C1180 C 0.84039 0.14726 0.05218 0.0
H1181 H 0.78373 0.14866 0.07804 0.0
H1182 H 0.84863 0.1259 0.0783 0.0
H1183 H 0.76793 0.1124 0.07343 0.0
H1184 H 0.80302 0.06465 0.03953 0.0
H1185 H 0.86727 0.15293 0.14985 0.0
H1186 H 0.78968 0.16736 0.04392 0.0
H1187 H 0.85595 0.14514 0.04426 0.0
C1188 C 0.42344 0.32535 0.08494 0.0
C1189 C 0.44258 0.31562 0.07898 0.0
N1190 N 0.44519 0.29762 0.09112 0.0
N1191 N 0.41399 0.31359 0.10077 0.0
C1192 C 0.42751 0.29662 0.10408 0.0
H1193 H 0.41726 0.34062 0.07888 0.0
Co1194 Co 0.39022 0.32404 0.11594 0.0
C1195 C 0.37317 0.28866 0.14363 0.0
O1196 O 0.36673 0.30286 0.15814 0.0
N1197 N 0.3659 0.33588 0.1308 0.0
C1198 C 0.34426 0.35709 0.1507 0.0
C1199 C 0.36535 0.35056 0.14717 0.0
C1200 C 0.3448 0.33361 0.12503 0.0
N1201 N 0.33151 0.34643 0.13665 0.0
O1202 O 0.37273 0.31863 0.09092 0.0
H1203 H 0.3793 0.35702 0.15554 0.0
H1204 H 0.33914 0.32348 0.11186 0.0
O1205 O 0.38342 0.29485 0.12665 0.0
C1206 C 0.36733 0.33507 0.07964 0.0
O1207 O 0.37282 0.35455 0.08635 0.0
N1208 N 0.40882 0.33031 0.13902 0.0
C1209 C 0.44858 0.34095 0.15724 0.0
C1210 C 0.43914 0.32075 0.16155 0.0
C1211 C 0.41905 0.31566 0.15222 0.0
C1212 C 0.41705 0.35063 0.13627 0.0
C1213 C 0.43686 0.35639 0.14543 0.0
H1214 H 0.41335 0.29919 0.15361 0.0
H1215 H 0.40923 0.36167 0.12506 0.0
H1216 H 0.42519 0.28456 0.11665 0.0
H1217 H 0.45398 0.32163 0.06703 0.0
H1218 H 0.33889 0.36972 0.16167 0.0
H1219 H 0.44815 0.30832 0.17014 0.0
H1220 H 0.44397 0.37198 0.14145 0.0
C1221 C 0.55628 0.17722 0.09053 0.0
C1222 C 0.53603 0.1854 0.08601 0.0
N1223 N 0.5358 0.20656 0.09146 0.0
N1224 N 0.56887 0.19312 0.09871 0.0
C1225 C 0.55601 0.21091 0.09885 0.0
H1226 H 0.56092 0.16034 0.08954 0.0
Co1227 Co 0.59495 0.1876 0.11299 0.0
C1228 C 0.61746 0.22911 0.111 0.0
O1229 O 0.63341 0.21914 0.10095 0.0
N1230 N 0.62087 0.18154 0.12765 0.0
C1231 C 0.64781 0.18283 0.15161 0.0
C1232 C 0.62718 0.18991 0.14689 0.0
C1233 C 0.6378 0.16918 0.12118 0.0
N1234 N 0.65452 0.16986 0.13534 0.0
O1235 O 0.60972 0.18803 0.08563 0.0
H1236 H 0.61764 0.20104 0.15655 0.0
H1237 H 0.63837 0.16061 0.10592 0.0
O1238 O 0.60056 0.21852 0.11672 0.0
C1239 C 0.61023 0.17058 0.07463 0.0
O1240 O 0.60159 0.15295 0.08299 0.0
N1241 N 0.57945 0.18588 0.13892 0.0
C1242 C 0.54198 0.17797 0.16249 0.0
C1243 C 0.5496 0.19925 0.15987 0.0
C1244 C 0.56865 0.20291 0.14813 0.0
C1245 C 0.57388 0.16506 0.14376 0.0
C1246 C 0.55515 0.1607 0.15571 0.0
H1247 H 0.57295 0.21944 0.1443 0.0
H1248 H 0.58244 0.15183 0.13602 0.0
H1249 H 0.56066 0.22623 0.10607 0.0
H1250 H 0.52224 0.17621 0.08017 0.0
H1251 H 0.65728 0.18728 0.16573 0.0
H1252 H 0.53985 0.21297 0.16498 0.0
H1253 H 0.54972 0.14405 0.15728 0.0
C1254 C 0.43704 0.69194 0.42495 0.0
C1255 C 0.45491 0.70404 0.43058 0.0
N1256 N 0.4533 0.72351 0.42079 0.0
N1257 N 0.42437 0.70365 0.4115 0.0
C1258 C 0.43451 0.723 0.40952 0.0
H1259 H 0.43419 0.67511 0.42908 0.0
Co1260 Co 0.40232 0.69089 0.39565 0.0
C1261 C 0.38491 0.7242 0.3662 0.0
O1262 O 0.3839 0.70935 0.35092 0.0
N1263 N 0.37981 0.677 0.38011 0.0
C1264 C 0.35953 0.65257 0.36282 0.0
C1265 C 0.38038 0.65908 0.36745 0.0
C1266 C 0.35837 0.68116 0.38261 0.0
N1267 N 0.34573 0.66645 0.37248 0.0
O1268 O 0.38365 0.69355 0.4204 0.0
H1269 H 0.39478 0.65042 0.36261 0.0
H1270 H 0.35211 0.69397 0.39287 0.0
O1271 O 0.39234 0.71922 0.38498 0.0
C1272 C 0.37944 0.67602 0.43053 0.0
O1273 O 0.38679 0.65758 0.42275 0.0
N1274 N 0.42233 0.68731 0.37275 0.0
C1275 C 0.46235 0.68077 0.35276 0.0
C1276 C 0.45201 0.70088 0.35131 0.0
C1277 C 0.43197 0.70388 0.36147 0.0
C1278 C 0.43207 0.66745 0.37368 0.0
C1279 C 0.45187 0.66368 0.36338 0.0
H1280 H 0.42583 0.7202 0.36216 0.0
H1281 H 0.42542 0.65503 0.38416 0.0
H1282 H 0.42932 0.73573 0.39859 0.0
H1283 H 0.46856 0.69861 0.44024 0.0
H1284 H 0.35487 0.63826 0.35375 0.0
H1285 H 0.46014 0.71461 0.34389 0.0
H1286 H 0.45988 0.64815 0.36548 0.0
C1287 C 0.57626 0.82753 0.4161 0.0
C1288 C 0.5589 0.81553 0.42338 0.0
N1289 N 0.55769 0.79732 0.41137 0.0
N1290 N 0.58583 0.81698 0.39951 0.0
C1291 C 0.57428 0.79849 0.3971 0.0
H1292 H 0.58104 0.84343 0.4218 0.0
Co1293 Co 0.60696 0.82965 0.38239 0.0
C1294 C 0.61972 0.79688 0.3498 0.0
O1295 O 0.62072 0.81203 0.33481 0.0
N1296 N 0.62872 0.84337 0.36542 0.0
C1297 C 0.64764 0.86836 0.34738 0.0
C1298 C 0.62717 0.86118 0.35268 0.0
C1299 C 0.65036 0.83977 0.367 0.0
N1300 N 0.66223 0.85502 0.35666 0.0
O1301 O 0.62766 0.82381 0.40477 0.0
H1302 H 0.61233 0.8694 0.34838 0.0
H1303 H 0.65738 0.82719 0.37705 0.0
O1304 O 0.61386 0.80172 0.36911 0.0
C1305 C 0.63442 0.84007 0.41558 0.0
O1306 O 0.62824 0.85967 0.40989 0.0
N1307 N 0.58515 0.83644 0.36224 0.0
C1308 C 0.54414 0.84823 0.3472 0.0
C1309 C 0.55325 0.82827 0.34124 0.0
C1310 C 0.57371 0.82245 0.34931 0.0
C1311 C 0.5768 0.85629 0.36725 0.0
C1312 C 0.55645 0.86259 0.35976 0.0
H1313 H 0.57905 0.80601 0.34678 0.0
H1314 H 0.58537 0.86664 0.37855 0.0
H1315 H 0.57706 0.7868 0.38429 0.0
H1316 H 0.54771 0.82007 0.43614 0.0
H1317 H 0.65146 0.88291 0.33829 0.0
H1318 H 0.54389 0.81655 0.33207 0.0
H1319 H 0.54981 0.87806 0.36487 0.0
C1320 C 0.08116 0.44082 0.32092 0.0
C1321 C 0.0764 0.45916 0.30911 0.0
N1322 N 0.08941 0.45958 0.29155 0.0
N1323 N 0.09695 0.42958 0.31078 0.0
C1324 C 0.10165 0.44143 0.29289 0.0
H1325 H 0.07404 0.43639 0.33633 0.0
Co1326 Co 0.11015 0.40476 0.32193 0.0
C1327 C 0.13333 0.38374 0.28528 0.0
O1328 O 0.14856 0.37655 0.29836 0.0
N1329 N 0.12292 0.37953 0.33393 0.0
C1330 C 0.13982 0.35592 0.35551 0.0
C1331 C 0.13691 0.37753 0.35075 0.0
C1332 C 0.11757 0.35881 0.32888 0.0
N1333 N 0.12764 0.34419 0.34171 0.0
O1334 O 0.083 0.38972 0.31983 0.0
H1335 H 0.14424 0.39073 0.35958 0.0
H1336 H 0.10599 0.35453 0.31637 0.0
O1337 O 0.11783 0.39549 0.29253 0.0
C1338 C 0.07351 0.38964 0.33819 0.0
O1339 O 0.08374 0.3982 0.35486 0.0
N1340 N 0.13569 0.42087 0.32565 0.0
C1341 C 0.1635 0.45512 0.33537 0.0
C1342 C 0.16363 0.44578 0.31463 0.0
C1343 C 0.14965 0.4284 0.31009 0.0
C1344 C 0.13574 0.4297 0.34592 0.0
C1345 C 0.14987 0.44644 0.35129 0.0
H1346 H 0.14885 0.42257 0.29363 0.0
H1347 H 0.12375 0.42448 0.35765 0.0
H1348 H 0.11407 0.43712 0.28128 0.0
H1349 H 0.06496 0.47171 0.31361 0.0
H1350 H 0.14994 0.34934 0.3683 0.0
H1351 H 0.17351 0.45263 0.30179 0.0
H1352 H 0.14886 0.45376 0.36725 0.0
C1353 C 0.91713 0.06382 0.32626 0.0
C1354 C 0.92437 0.04527 0.31614 0.0
N1355 N 0.91571 0.04462 0.29606 0.0
N1356 N 0.90391 0.0747 0.31266 0.0
C1357 C 0.90356 0.06276 0.29428 0.0
H1358 H 0.92034 0.06853 0.34286 0.0
Co1359 Co 0.88698 0.09795 0.3212 0.0
C1360 C 0.86256 0.11219 0.28239 0.0
O1361 O 0.84515 0.115 0.29441 0.0
N1362 N 0.87019 0.12183 0.33059 0.0
C1363 C 0.85121 0.14493 0.3509 0.0
C1364 C 0.85607 0.12344 0.34733 0.0
C1365 C 0.87327 0.1426 0.3241 0.0
N1366 N 0.86217 0.15693 0.33633 0.0
O1367 O 0.91199 0.11633 0.31907 0.0
H1368 H 0.8505 0.11021 0.35733 0.0
H1369 H 0.88477 0.14727 0.31165 0.0
O1370 O 0.87995 0.10477 0.29099 0.0
C1371 C 0.91998 0.12383 0.33658 0.0
O1372 O 0.9104 0.11943 0.35513 0.0
N1373 N 0.86361 0.07856 0.32456 0.0
C1374 C 0.84076 0.04067 0.33418 0.0
C1375 C 0.84178 0.0484 0.31282 0.0
C1376 C 0.85331 0.06744 0.3083 0.0
C1377 C 0.86239 0.0713 0.34543 0.0
C1378 C 0.8506 0.05272 0.3507 0.0
H1379 H 0.85555 0.07176 0.29152 0.0
H1380 H 0.87204 0.07908 0.35787 0.0
H1381 H 0.8934 0.06644 0.28043 0.0
H1382 H 0.9346 0.03287 0.32325 0.0
H1383 H 0.84121 0.15131 0.36387 0.0
H1384 H 0.83491 0.03907 0.29959 0.0
H1385 H 0.85082 0.0468 0.36726 0.0
C1386 C 0.07424 0.58526 0.18773 0.0
C1387 C 0.06597 0.56727 0.19811 0.0
N1388 N 0.08013 0.56123 0.21364 0.0
N1389 N 0.09339 0.59063 0.19684 0.0
C1390 C 0.09655 0.5757 0.21261 0.0
H1391 H 0.06692 0.59374 0.1742 0.0
Co1392 Co 0.11105 0.61317 0.18749 0.0
C1393 C 0.13954 0.62366 0.22508 0.0
O1394 O 0.15623 0.62825 0.21261 0.0
N1395 N 0.12851 0.6363 0.17746 0.0
C1396 C 0.14725 0.658 0.15544 0.0
C1397 C 0.14138 0.63688 0.15969 0.0
C1398 C 0.12726 0.65727 0.18392 0.0
N1399 N 0.13819 0.67081 0.1706 0.0
O1400 O 0.08814 0.63281 0.19423 0.0
H1401 H 0.14526 0.62319 0.14951 0.0
H1402 H 0.11706 0.66276 0.19713 0.0
O1403 O 0.12182 0.61694 0.21673 0.0
C1404 C 0.07791 0.64204 0.17886 0.0
O1405 O 0.08501 0.63995 0.15885 0.0
N1406 N 0.13196 0.59261 0.17977 0.0
C1407 C 0.14572 0.55192 0.1662 0.0
C1408 C 0.15218 0.55995 0.18646 0.0
C1409 C 0.14502 0.58051 0.19307 0.0
C1410 C 0.12715 0.58561 0.15937 0.0
C1411 C 0.13402 0.56538 0.15217 0.0
H1412 H 0.14797 0.58526 0.20962 0.0
H1413 H 0.11601 0.5949 0.14945 0.0
H1414 H 0.11058 0.5754 0.22316 0.0
H1415 H 0.051 0.55895 0.19419 0.0
H1416 H 0.15655 0.66361 0.14161 0.0
H1417 H 0.16082 0.54967 0.19783 0.0
H1418 H 0.12851 0.5595 0.13653 0.0
C1419 C 0.91455 0.94234 0.16821 0.0
C1420 C 0.92135 0.96114 0.17809 0.0
N1421 N 0.91376 0.96122 0.1986 0.0
N1422 N 0.90266 0.93068 0.18237 0.0
C1423 C 0.90265 0.94245 0.20086 0.0
H1424 H 0.91722 0.93787 0.15144 0.0
Co1425 Co 0.88727 0.90628 0.17414 0.0
C1426 C 0.86479 0.89004 0.21322 0.0
O1427 O 0.84731 0.88623 0.20162 0.0
N1428 N 0.87184 0.88115 0.16486 0.0
C1429 C 0.84901 0.85782 0.14896 0.0
C1430 C 0.85252 0.8792 0.15445 0.0
C1431 C 0.87936 0.86053 0.16578 0.0
N1432 N 0.86612 0.84628 0.1559 0.0
O1433 O 0.9136 0.89 0.17601 0.0
H1434 H 0.84158 0.89231 0.1506 0.0
H1435 H 0.89455 0.85578 0.17317 0.0
O1436 O 0.88139 0.8988 0.20436 0.0
C1437 C 0.92364 0.88511 0.15864 0.0
O1438 O 0.9151 0.89044 0.13983 0.0
N1439 N 0.86258 0.92385 0.17134 0.0
C1440 C 0.83628 0.95945 0.1622 0.0
C1441 C 0.83901 0.95235 0.18363 0.0
C1442 C 0.85229 0.93446 0.18791 0.0
C1443 C 0.85961 0.93031 0.15039 0.0
C1444 C 0.84611 0.94776 0.14539 0.0
H1445 H 0.85574 0.93065 0.20462 0.0
H1446 H 0.86881 0.92258 0.13758 0.0
H1447 H 0.89354 0.93809 0.21524 0.0
H1448 H 0.93062 0.97405 0.17059 0.0
H1449 H 0.83554 0.85145 0.13965 0.0
H1450 H 0.83213 0.96142 0.19702 0.0
H1451 H 0.8449 0.9532 0.1287 0.0
C1452 C 0.31967 0.08352 0.43204 0.0
C1453 C 0.31057 0.07562 0.4508 0.0
N1454 N 0.29207 0.08663 0.45451 0.0
N1455 N 0.30707 0.09953 0.4241 0.0
C1456 C 0.29018 0.10096 0.43803 0.0
H1457 H 0.33507 0.07867 0.42512 0.0
Co1458 Co 0.31635 0.11669 0.40139 0.0
C1459 C 0.2816 0.1481 0.39202 0.0
O1460 O 0.2962 0.16353 0.39008 0.0
N1461 N 0.32675 0.13356 0.37787 0.0
C1462 C 0.34915 0.15099 0.35546 0.0
C1463 C 0.34458 0.14633 0.3768 0.0
C1464 C 0.32042 0.13142 0.35692 0.0
N1465 N 0.33406 0.14135 0.34298 0.0
O1466 O 0.3087 0.09375 0.38207 0.0
H1467 H 0.35471 0.15089 0.39031 0.0
H1468 H 0.3072 0.12107 0.35178 0.0
O1469 O 0.28738 0.12891 0.39746 0.0
C1470 C 0.32385 0.08291 0.37317 0.0
O1471 O 0.34408 0.08922 0.3757 0.0
N1472 N 0.32496 0.1375 0.42189 0.0
C1473 C 0.34086 0.15355 0.46109 0.0
C1474 C 0.3196 0.15824 0.45452 0.0
C1475 C 0.31177 0.1497 0.43496 0.0
C1476 C 0.34595 0.13371 0.42772 0.0
C1477 C 0.35433 0.14182 0.44706 0.0
H1478 H 0.29465 0.15114 0.43175 0.0
H1479 H 0.35577 0.12282 0.41805 0.0
H1480 H 0.27757 0.11315 0.43695 0.0
H1481 H 0.31732 0.06324 0.46128 0.0
H1482 H 0.36326 0.15962 0.34951 0.0
H1483 H 0.30856 0.1667 0.46528 0.0
H1484 H 0.37079 0.13767 0.45169 0.0
C1485 C 0.32691 0.91035 0.07082 0.0
C1486 C 0.31493 0.91788 0.05357 0.0
N1487 N 0.2941 0.91195 0.0566 0.0
N1488 N 0.31374 0.89966 0.08464 0.0
C1489 C 0.29376 0.90113 0.07567 0.0
H1490 H 0.34434 0.91155 0.0726 0.0
Co1491 Co 0.32405 0.88343 0.10796 0.0
C1492 C 0.28761 0.85328 0.11736 0.0
O1493 O 0.3005 0.83639 0.11584 0.0
N1494 N 0.33513 0.86714 0.13198 0.0
C1495 C 0.34837 0.84097 0.1534 0.0
C1496 C 0.34251 0.8464 0.13256 0.0
C1497 C 0.33712 0.87392 0.15285 0.0
N1498 N 0.34509 0.85838 0.16605 0.0
O1499 O 0.31845 0.90774 0.12632 0.0
H1500 H 0.34322 0.83547 0.11888 0.0
H1501 H 0.33233 0.88975 0.15865 0.0
O1502 O 0.29501 0.87237 0.11405 0.0
C1503 C 0.33476 0.92043 0.12585 0.0
O1504 O 0.35239 0.9138 0.11581 0.0
N1505 N 0.33097 0.86138 0.08819 0.0
C1506 C 0.34639 0.84655 0.04838 0.0
C1507 C 0.32421 0.84531 0.0533 0.0
C1508 C 0.31674 0.85304 0.07331 0.0
C1509 C 0.35274 0.86092 0.0843 0.0
C1510 C 0.36083 0.85328 0.06463 0.0
H1511 H 0.29944 0.85472 0.07556 0.0
H1512 H 0.36373 0.86859 0.09564 0.0
H1513 H 0.27952 0.89309 0.0821 0.0
H1514 H 0.32119 0.92635 0.0395 0.0
H1515 H 0.35456 0.82545 0.15887 0.0
H1516 H 0.31253 0.84062 0.04101 0.0
H1517 H 0.37809 0.85447 0.06145 0.0
C1518 C 0.67741 0.59215 0.05613 0.0
C1519 C 0.68894 0.58509 0.03837 0.0
N1520 N 0.7098 0.5911 0.04095 0.0
N1521 N 0.69092 0.60263 0.06977 0.0
C1522 C 0.71062 0.60152 0.0602 0.0
H1523 H 0.66005 0.59081 0.05841 0.0
Co1524 Co 0.68128 0.61865 0.09332 0.0
C1525 C 0.71973 0.64117 0.11084 0.0
O1526 O 0.70821 0.65887 0.11388 0.0
N1527 N 0.67076 0.63434 0.11738 0.0
C1528 C 0.64994 0.65293 0.14036 0.0
C1529 C 0.65425 0.64873 0.11883 0.0
C1530 C 0.67625 0.63026 0.13828 0.0
N1531 N 0.6638 0.64124 0.15253 0.0
O1532 O 0.68184 0.5931 0.11053 0.0
H1533 H 0.6451 0.65514 0.10536 0.0
H1534 H 0.68839 0.61847 0.14302 0.0
O1535 O 0.71095 0.62448 0.10225 0.0
C1536 C 0.66399 0.58285 0.11159 0.0
O1537 O 0.6469 0.59103 0.10177 0.0
N1538 N 0.6798 0.64293 0.0748 0.0
C1539 C 0.67471 0.66273 0.03442 0.0
C1540 C 0.69513 0.66193 0.04435 0.0
C1541 C 0.69738 0.65196 0.0646 0.0
C1542 C 0.65963 0.64492 0.06591 0.0
C1543 C 0.65664 0.65516 0.04592 0.0
H1544 H 0.71364 0.64918 0.07033 0.0
H1545 H 0.64614 0.63623 0.07303 0.0
H1546 H 0.72497 0.60956 0.06636 0.0
H1547 H 0.68235 0.57686 0.02432 0.0
H1548 H 0.63715 0.66324 0.14659 0.0
H1549 H 0.7095 0.66718 0.03566 0.0
H1550 H 0.64071 0.65489 0.03844 0.0
C1551 C 0.18111 0.91909 0.94089 0.0
C1552 C 0.19362 0.92531 0.95836 0.0
N1553 N 0.21223 0.91386 0.95781 0.0
N1554 N 0.19175 0.9037 0.92955 0.0
C1555 C 0.21069 0.90094 0.94021 0.0
H1556 H 0.16498 0.92487 0.93705 0.0
Co1557 Co 0.17992 0.88837 0.90653 0.0
C1558 C 0.21446 0.8578 0.89084 0.0
O1559 O 0.20038 0.84421 0.88242 0.0
N1560 N 0.16703 0.87333 0.88302 0.0
C1561 C 0.14313 0.85602 0.86209 0.0
C1562 C 0.14892 0.86092 0.88309 0.0
C1563 C 0.17197 0.87552 0.86169 0.0
N1564 N 0.15763 0.86529 0.84866 0.0
O1565 O 0.18746 0.91191 0.88781 0.0
H1566 H 0.13978 0.8563 0.89729 0.0
H1567 H 0.18531 0.88529 0.85574 0.0
O1568 O 0.2081 0.8749 0.9007 0.0
C1569 C 0.172 0.92372 0.88088 0.0
O1570 O 0.15187 0.91815 0.8852 0.0
N1571 N 0.17165 0.8669 0.92631 0.0
C1572 C 0.15927 0.85014 0.96635 0.0
C1573 C 0.17869 0.84338 0.95662 0.0
C1574 C 0.18477 0.85218 0.93653 0.0
C1575 C 0.15202 0.87229 0.9349 0.0
C1576 C 0.14542 0.86397 0.95481 0.0
H1577 H 0.20081 0.84866 0.93052 0.0
H1578 H 0.14228 0.88465 0.92709 0.0
H1579 H 0.22271 0.88898 0.93588 0.0
H1580 H 0.1893 0.93712 0.97062 0.0
H1581 H 0.12904 0.8468 0.85707 0.0
H1582 H 0.18992 0.83299 0.96531 0.0
H1583 H 0.13033 0.86959 0.96189 0.0
H1584 H 0.1267 0.31789 0.37643 0.0
H1585 H 0.12225 0.31847 0.30664 0.0
H1586 H 0.11768 0.27895 0.30636 0.0
H1587 H 0.11481 0.24426 0.32616 0.0
H1588 H 0.11765 0.24427 0.39619 0.0
H1589 H 0.12314 0.28348 0.39621 0.0
C1590 C 0.12491 0.3093 0.36118 0.0
C1591 C 0.12494 0.32099 0.34157 0.0
C1592 C 0.12201 0.28671 0.36121 0.0
C1593 C 0.12216 0.30978 0.32192 0.0
C1594 C 0.11963 0.28721 0.32177 0.0
C1595 C 0.11675 0.25284 0.34141 0.0
C1596 C 0.11596 0.24133 0.36113 0.0
C1597 C 0.11952 0.2755 0.34133 0.0
C1598 C 0.1182 0.25273 0.38077 0.0
C1599 C 0.12136 0.27516 0.38081 0.0
H1600 H 0.86496 0.18258 0.37139 0.0
H1601 H 0.86668 0.18304 0.30149 0.0
H1602 H 0.87386 0.22218 0.30165 0.0
H1603 H 0.88035 0.25601 0.32183 0.0
H1604 H 0.88003 0.25494 0.39194 0.0
H1605 H 0.87156 0.21627 0.39156 0.0
C1606 C 0.86657 0.19135 0.35622 0.0
C1607 C 0.86506 0.18009 0.33644 0.0
C1608 C 0.8711 0.21366 0.3565 0.0
C1609 C 0.86776 0.19147 0.31687 0.0
C1610 C 0.87187 0.21379 0.31698 0.0
C1611 C 0.87838 0.24734 0.33703 0.0
C1612 C 0.88078 0.2584 0.35688 0.0
C1613 C 0.87372 0.22502 0.33672 0.0
C1614 C 0.87831 0.24685 0.37642 0.0
C1615 C 0.87342 0.22473 0.37624 0.0
H1616 H 0.13435 0.69601 0.13519 0.0
H1617 H 0.1376 0.69785 0.20502 0.0
H1618 H 0.13268 0.73735 0.20441 0.0
H1619 H 0.12647 0.7711 0.18393 0.0
H1620 H 0.12149 0.76873 0.11405 0.0
H1621 H 0.12819 0.72967 0.11472 0.0
C1622 C 0.13433 0.70512 0.15023 0.0
C1623 C 0.13656 0.69413 0.17013 0.0
C1624 C 0.13106 0.72767 0.14972 0.0
C1625 C 0.13592 0.70603 0.18955 0.0
C1626 C 0.13311 0.72856 0.18917 0.0
C1627 C 0.12697 0.76207 0.16883 0.0
C1628 C 0.12354 0.77287 0.14896 0.0
C1629 C 0.1305 0.73953 0.16935 0.0
C1630 C 0.12404 0.76085 0.12957 0.0
C1631 C 0.1279 0.73851 0.12993 0.0
H1632 H 0.90331 0.75608 0.128 0.0
H1633 H 0.84113 0.73487 0.15202 0.0
H1634 H 0.83083 0.77257 0.15947 0.0
H1635 H 0.84019 0.81162 0.16017 0.0
H1636 H 0.90373 0.83198 0.13936 0.0
H1637 H 0.91302 0.79462 0.12962 0.0
C1638 C 0.88744 0.75978 0.13462 0.0
C1639 C 0.87288 0.74292 0.13927 0.0
C1640 C 0.88201 0.7813 0.13959 0.0
C1641 C 0.85253 0.74775 0.14832 0.0
C1642 C 0.84667 0.76923 0.15258 0.0
C1643 C 0.85598 0.80771 0.15344 0.0
C1644 C 0.8713 0.82428 0.15045 0.0
C1645 C 0.86136 0.78614 0.14846 0.0
C1646 C 0.89184 0.81929 0.14193 0.0
C1647 C 0.89709 0.79802 0.1363 0.0
H1648 H 0.32446 0.11972 0.24397 0.0
H1649 H 0.39402 0.11307 0.25003 0.0
H1650 H 0.39185 0.12313 0.28826 0.0
H1651 H 0.37027 0.1336 0.32004 0.0
H1652 H 0.30077 0.13912 0.31464 0.0
H1653 H 0.3028 0.12979 0.27597 0.0
C1654 C 0.33916 0.12042 0.25364 0.0
C1655 C 0.35938 0.11568 0.24408 0.0
C1656 C 0.33781 0.12616 0.27568 0.0
C1657 C 0.37823 0.11661 0.25693 0.0
C1658 C 0.37703 0.12243 0.2788 0.0
C1659 C 0.35563 0.13312 0.31029 0.0
C1660 C 0.33541 0.13736 0.32 0.0
C1661 C 0.35693 0.12733 0.2883 0.0
C1662 C 0.31648 0.13603 0.30738 0.0
C1663 C 0.31766 0.13065 0.28536 0.0
H1664 H 0.6092 0.38994 0.25211 0.0
H1665 H 0.67703 0.39822 0.23649 0.0
H1666 H 0.68678 0.39211 0.27438 0.0
H1667 H 0.67612 0.38423 0.31199 0.0
H1668 H 0.60846 0.37533 0.32756 0.0
H1669 H 0.5986 0.38158 0.28966 0.0
C1670 C 0.62611 0.39046 0.257 0.0
C1671 C 0.64234 0.39458 0.24148 0.0
C1672 C 0.63166 0.38669 0.2788 0.0
C1673 C 0.66419 0.39504 0.24808 0.0
C1674 C 0.66981 0.39156 0.26976 0.0
C1675 C 0.65922 0.38378 0.30708 0.0
C1676 C 0.64306 0.37933 0.32256 0.0
C1677 C 0.65369 0.38736 0.28526 0.0
C1678 C 0.62124 0.37846 0.31591 0.0
C1679 C 0.61557 0.38218 0.29427 0.0
H1680 H 0.3499 0.85192 0.26746 0.0
H1681 H 0.38318 0.91294 0.25914 0.0
H1682 H 0.37886 0.91023 0.21976 0.0
H1683 H 0.36441 0.89092 0.18761 0.0
H1684 H 0.33341 0.82885 0.19596 0.0
H1685 H 0.33797 0.83145 0.23539 0.0
C1686 C 0.3563 0.86456 0.257 0.0
C1687 C 0.36667 0.88269 0.2662 0.0
C1688 C 0.35405 0.86272 0.23439 0.0
C1689 C 0.37516 0.89881 0.25247 0.0
C1690 C 0.3726 0.89732 0.22995 0.0
C1691 C 0.3587 0.87804 0.19817 0.0
C1692 C 0.34844 0.85981 0.18909 0.0
C1693 C 0.36185 0.87946 0.22074 0.0
C1694 C 0.34138 0.84298 0.20272 0.0
C1695 C 0.34394 0.8445 0.2252 0.0
H1696 H 0.67765 0.62574 0.25238 0.0
H1697 H 0.60757 0.62756 0.25102 0.0
H1698 H 0.60824 0.63445 0.21205 0.0
H1699 H 0.62861 0.63963 0.17818 0.0
H1700 H 0.69844 0.6362 0.17886 0.0
H1701 H 0.69804 0.63028 0.21822 0.0
C1702 C 0.66253 0.62767 0.24356 0.0
C1703 C 0.64261 0.6262 0.25466 0.0
C1704 C 0.66299 0.63138 0.22102 0.0
C1705 C 0.62316 0.62857 0.24292 0.0
C1706 C 0.6235 0.63257 0.22061 0.0
C1707 C 0.64372 0.63784 0.18702 0.0
C1708 C 0.66353 0.63855 0.17575 0.0
C1709 C 0.6433 0.63403 0.2095 0.0
C1710 C 0.68301 0.63569 0.18727 0.0
C1711 C 0.68277 0.63233 0.20973 0.0
H1712 H 0.24248 0.37726 0.09847 0.0
H1713 H 0.21915 0.34595 0.1566 0.0
H1714 H 0.25637 0.33731 0.16732 0.0
H1715 H 0.29581 0.33824 0.15987 0.0
H1716 H 0.31887 0.36712 0.1007 0.0
H1717 H 0.28167 0.37714 0.09047 0.0
C1718 C 0.24562 0.36866 0.11352 0.0
C1719 C 0.2282 0.36234 0.12679 0.0
C1720 C 0.26701 0.36324 0.11929 0.0
C1721 C 0.23237 0.35091 0.1461 0.0
C1722 C 0.25362 0.34599 0.15226 0.0
C1723 C 0.29248 0.34674 0.14482 0.0
C1724 C 0.30969 0.35204 0.13097 0.0
C1725 C 0.27107 0.352 0.13896 0.0
C1726 C 0.30557 0.36289 0.11139 0.0
C1727 C 0.28441 0.36863 0.10564 0.0
H1728 H 0.24496 0.67147 0.38623 0.0
H1729 H 0.25317 0.60198 0.39024 0.0
H1730 H 0.29194 0.60592 0.38317 0.0
H1731 H 0.32367 0.6291 0.37665 0.0
H1732 H 0.316 0.69855 0.37405 0.0
H1733 H 0.27681 0.69469 0.37978 0.0
C1734 C 0.25521 0.65718 0.38549 0.0
C1735 C 0.24614 0.63646 0.38872 0.0
C1736 C 0.27757 0.65957 0.38166 0.0
C1737 C 0.2597 0.61813 0.38785 0.0
C1738 C 0.28189 0.62035 0.38377 0.0
C1739 C 0.31335 0.64335 0.37703 0.0
C1740 C 0.32261 0.66408 0.37474 0.0
C1741 C 0.29099 0.64098 0.3807 0.0
C1742 C 0.30917 0.68245 0.3758 0.0
C1743 C 0.28681 0.68023 0.37905 0.0
H1744 H 0.75773 0.88648 0.37371 0.0
H1745 H 0.76848 0.81728 0.37577 0.0
H1746 H 0.7302 0.81081 0.36797 0.0
H1747 H 0.69342 0.82474 0.36107 0.0
H1748 H 0.68276 0.89385 0.35834 0.0
H1749 H 0.72117 0.90038 0.36548 0.0
C1750 C 0.75168 0.86999 0.37247 0.0
C1751 C 0.76594 0.85241 0.37544 0.0
C1752 C 0.72965 0.86634 0.36768 0.0
C1753 C 0.75788 0.83114 0.37355 0.0
C1754 C 0.73596 0.82739 0.3691 0.0
C1755 C 0.69955 0.84121 0.362 0.0
C1756 C 0.68522 0.85874 0.35913 0.0
C1757 C 0.72168 0.84486 0.36619 0.0
C1758 C 0.69344 0.88002 0.36015 0.0
C1759 C 0.7154 0.88379 0.36444 0.0
H1760 H 0.18315 0.62067 0.64231 0.0
H1761 H 0.18552 0.69031 0.63674 0.0
H1762 H 0.22473 0.6887 0.63002 0.0
H1763 H 0.25807 0.66732 0.6251 0.0
H1764 H 0.25519 0.59741 0.62883 0.0
H1765 H 0.21641 0.59924 0.63696 0.0
C1766 C 0.19235 0.63548 0.63992 0.0
C1767 C 0.18161 0.65561 0.64024 0.0
C1768 C 0.21471 0.63434 0.63562 0.0
C1769 C 0.19354 0.67467 0.63656 0.0
C1770 C 0.21589 0.67373 0.63274 0.0
C1771 C 0.24899 0.65248 0.62778 0.0
C1772 C 0.25954 0.63226 0.62645 0.0
C1773 C 0.22662 0.65363 0.63212 0.0
C1774 C 0.24746 0.61318 0.62973 0.0
C1775 C 0.22529 0.61421 0.63442 0.0
H1776 H 0.84642 0.74193 0.62003 0.0
H1777 H 0.9148 0.74543 0.63512 0.0
H1778 H 0.91414 0.70771 0.6475 0.0
H1779 H 0.89434 0.6734 0.65281 0.0
H1780 H 0.82622 0.66995 0.63707 0.0
H1781 H 0.82655 0.70814 0.62619 0.0
C1782 C 0.86121 0.7345 0.62604 0.0
C1783 C 0.88065 0.7465 0.62657 0.0
C1784 C 0.86073 0.71285 0.63306 0.0
C1785 C 0.89962 0.73658 0.63451 0.0
C1786 C 0.89925 0.71501 0.64161 0.0
C1787 C 0.8795 0.68113 0.64737 0.0
C1788 C 0.86023 0.66893 0.64582 0.0
C1789 C 0.87991 0.70298 0.64087 0.0
C1790 C 0.84123 0.67902 0.63829 0.0
C1791 C 0.84143 0.70081 0.63208 0.0
H1792 H 0.11933 0.73689 0.67704 0.0
H1793 H 0.11868 0.73952 0.60702 0.0
H1794 H 0.12564 0.77861 0.60824 0.0
H1795 H 0.13126 0.81218 0.62933 0.0
H1796 H 0.12997 0.80966 0.69921 0.0
H1797 H 0.12442 0.77031 0.698 0.0
C1798 C 0.1208 0.74597 0.66202 0.0
C1799 C 0.1186 0.73528 0.64196 0.0
C1800 C 0.12445 0.76845 0.66286 0.0
C1801 C 0.1203 0.74736 0.62267 0.0
C1802 C 0.12431 0.7697 0.62336 0.0
C1803 C 0.13002 0.80291 0.64425 0.0
C1804 C 0.1312 0.81367 0.66436 0.0
C1805 C 0.12638 0.78041 0.64337 0.0
C1806 C 0.12907 0.80165 0.6836 0.0
C1807 C 0.12593 0.77921 0.68288 0.0
H1808 H 0.87226 0.31234 0.81723 0.0
H1809 H 0.85664 0.32671 0.88389 0.0
H1810 H 0.86366 0.28908 0.89407 0.0
H1811 H 0.87469 0.25209 0.88415 0.0
H1812 H 0.88883 0.23711 0.81723 0.0
H1813 H 0.88216 0.27489 0.80704 0.0
C1814 C 0.87038 0.30715 0.83394 0.0
C1815 C 0.86386 0.32224 0.84975 0.0
C1816 C 0.87432 0.2854 0.83966 0.0
C1817 C 0.86131 0.31533 0.87136 0.0
C1818 C 0.8655 0.29385 0.87723 0.0
C1819 C 0.8764 0.25714 0.86736 0.0
C1820 C 0.88237 0.24189 0.8515 0.0
C1821 C 0.87209 0.27876 0.86154 0.0
C1822 C 0.88423 0.24856 0.82975 0.0
C1823 C 0.88043 0.27015 0.8239 0.0
H1824 H 0.12965 0.18351 0.87548 0.0
H1825 H 0.13659 0.18492 0.80593 0.0
H1826 H 0.13012 0.22418 0.80576 0.0
H1827 H 0.12191 0.25789 0.82546 0.0
H1828 H 0.11312 0.25602 0.89497 0.0
H1829 H 0.12085 0.21714 0.89514 0.0
C1830 C 0.13001 0.19252 0.86036 0.0
C1831 C 0.13381 0.1815 0.84075 0.0
C1832 C 0.12579 0.21492 0.8604 0.0
C1833 C 0.13372 0.19318 0.82118 0.0
C1834 C 0.13002 0.21556 0.8211 0.0
C1835 C 0.12171 0.24899 0.84066 0.0
C1836 C 0.11699 0.25987 0.86018 0.0
C1837 C 0.12591 0.22658 0.84061 0.0
C1838 C 0.11663 0.24804 0.8797 0.0
C1839 C 0.12112 0.22581 0.87983 0.0
H1840 H 0.66936 0.87814 0.75316 0.0
H1841 H 0.59979 0.87286 0.74658 0.0
H1842 H 0.6038 0.86488 0.70796 0.0
H1843 H 0.62699 0.85992 0.67595 0.0
H1844 H 0.69627 0.86724 0.6817 0.0
H1845 H 0.69256 0.87399 0.72079 0.0
C1846 C 0.6551 0.87514 0.74328 0.0
C1847 C 0.63432 0.87598 0.75273 0.0
C1848 C 0.6575 0.87097 0.72097 0.0
C1849 C 0.61596 0.87235 0.73968 0.0
C1850 C 0.61824 0.86774 0.71761 0.0
C1851 C 0.64126 0.86276 0.68585 0.0
C1852 C 0.6619 0.86286 0.67613 0.0
C1853 C 0.6389 0.86704 0.70809 0.0
C1854 C 0.68026 0.8671 0.68894 0.0
C1855 C 0.67812 0.87091 0.71123 0.0
H1856 H 0.34275 0.6003 0.68929 0.0
H1857 H 0.34854 0.67007 0.68926 0.0
H1858 H 0.35914 0.66943 0.72746 0.0
H1859 H 0.36849 0.64901 0.76025 0.0
H1860 H 0.36293 0.57916 0.76048 0.0
H1861 H 0.35024 0.57991 0.72288 0.0
C1862 C 0.34592 0.61539 0.69775 0.0
C1863 C 0.3449 0.63523 0.6864 0.0
C1864 C 0.35218 0.61488 0.7197 0.0
C1865 C 0.34944 0.6546 0.69754 0.0
C1866 C 0.35546 0.65424 0.7194 0.0
C1867 C 0.36441 0.63392 0.75216 0.0
C1868 C 0.36683 0.61405 0.76317 0.0
C1869 C 0.35722 0.63446 0.73053 0.0
C1870 C 0.3613 0.59469 0.75241 0.0
C1871 C 0.35405 0.5951 0.73088 0.0
H1872 H 0.6839 0.12075 0.80621 0.0
H1873 H 0.61845 0.14306 0.81683 0.0
H1874 H 0.60962 0.13649 0.77874 0.0
H1875 H 0.62037 0.12396 0.74246 0.0
H1876 H 0.68631 0.10329 0.7312 0.0
H1877 H 0.69508 0.10945 0.76943 0.0
C1878 C 0.66774 0.12415 0.8001 0.0
C1879 C 0.65187 0.13239 0.81425 0.0
C1880 C 0.66285 0.12052 0.77811 0.0
C1881 C 0.63102 0.13697 0.80617 0.0
C1882 C 0.62592 0.13307 0.78444 0.0
C1883 C 0.63663 0.12074 0.74842 0.0
C1884 C 0.65263 0.11306 0.7341 0.0
C1885 C 0.64167 0.12477 0.77028 0.0
C1886 C 0.67372 0.10924 0.74193 0.0
C1887 C 0.67874 0.11274 0.76378 0.0
H1888 H 0.37481 0.35612 0.81682 0.0
H1889 H 0.30557 0.3658 0.8168 0.0
H1890 H 0.30629 0.37273 0.77757 0.0
H1891 H 0.32683 0.37607 0.74336 0.0
H1892 H 0.39647 0.36837 0.74411 0.0
H1893 H 0.39544 0.36052 0.78297 0.0
C1894 C 0.35988 0.35956 0.80814 0.0
C1895 C 0.34012 0.36024 0.81953 0.0
C1896 C 0.36054 0.36389 0.78578 0.0
C1897 C 0.32093 0.36523 0.80828 0.0
C1898 C 0.32137 0.36912 0.7859 0.0
C1899 C 0.34176 0.37257 0.75203 0.0
C1900 C 0.36168 0.37265 0.74085 0.0
C1901 C 0.34109 0.36849 0.77448 0.0
C1902 C 0.38093 0.36841 0.75235 0.0
C1903 C 0.38035 0.36389 0.77456 0.0
H1904 H 0.75746 0.62313 0.86911 0.0
H1905 H 0.77049 0.69059 0.88251 0.0
H1906 H 0.73227 0.69947 0.87614 0.0
H1907 H 0.69493 0.68788 0.8667 0.0
H1908 H 0.68285 0.6206 0.85182 0.0
H1909 H 0.72084 0.61185 0.85866 0.0
C1910 C 0.75194 0.63978 0.87068 0.0
C1911 C 0.76676 0.65615 0.87637 0.0
C1912 C 0.73009 0.64481 0.86661 0.0
C1913 C 0.7594 0.67768 0.87811 0.0
C1914 C 0.73754 0.68276 0.8745 0.0
C1915 C 0.70071 0.67135 0.86497 0.0
C1916 C 0.68615 0.65494 0.85866 0.0
C1917 C 0.72272 0.66645 0.86873 0.0
C1918 C 0.69381 0.63357 0.85632 0.0
C1919 C 0.7155 0.62852 0.86038 0.0
H1920 H 0.76541 0.31819 0.62302 0.0
H1921 H 0.76623 0.38785 0.61541 0.0
H1922 H 0.72689 0.38905 0.62045 0.0
H1923 H 0.69211 0.37018 0.62591 0.0
H1924 H 0.69106 0.3005 0.63174 0.0
H1925 H 0.73068 0.29937 0.62847 0.0
C1926 C 0.75702 0.33366 0.6226 0.0
C1927 C 0.76876 0.35291 0.61892 0.0
C1928 C 0.73436 0.3342 0.62513 0.0
C1929 C 0.75758 0.37279 0.6182 0.0
C1930 C 0.73509 0.37349 0.62109 0.0
C1931 C 0.70063 0.3548 0.62674 0.0
C1932 C 0.68877 0.33545 0.6292 0.0
C1933 C 0.72331 0.35429 0.62445 0.0
C1934 C 0.6999 0.31557 0.62977 0.0
C1935 C 0.72251 0.31494 0.62795 0.0
H1936 H 0.32032 0.11855 0.63249 0.0
H1937 H 0.31905 0.18842 0.63245 0.0
H1938 H 0.27989 0.18797 0.62513 0.0
H1939 H 0.24608 0.1675 0.61874 0.0
H1940 H 0.24812 0.09748 0.61702 0.0
H1941 H 0.28691 0.09815 0.62499 0.0
C1942 C 0.31138 0.13364 0.63109 0.0
C1943 C 0.32238 0.15349 0.63325 0.0
C1944 C 0.28907 0.1332 0.62646 0.0
C1945 C 0.3108 0.17298 0.63087 0.0
C1946 C 0.28848 0.1727 0.62671 0.0
C1947 C 0.25502 0.1524 0.62011 0.0
C1948 C 0.24417 0.13248 0.61738 0.0
C1949 C 0.27744 0.15289 0.62444 0.0
C1950 C 0.25605 0.11305 0.619 0.0
C1951 C 0.27823 0.1134 0.62362 0.0
H1952 H 0.74955 0.37886 0.39455 0.0
H1953 H 0.72721 0.3449 0.33757 0.0
H1954 H 0.76468 0.33575 0.32806 0.0
H1955 H 0.80383 0.33602 0.33698 0.0
H1956 H 0.8254 0.36733 0.39563 0.0
H1957 H 0.78825 0.37891 0.40359 0.0
C1958 C 0.75287 0.36959 0.37999 0.0
C1959 C 0.73566 0.36258 0.36678 0.0
C1960 C 0.77434 0.36384 0.37502 0.0
C1961 C 0.74022 0.3504 0.34804 0.0
C1962 C 0.76162 0.34518 0.34259 0.0
C1963 C 0.80028 0.34557 0.35134 0.0
C1964 C 0.81715 0.35091 0.36569 0.0
C1965 C 0.7788 0.35161 0.35609 0.0
C1966 C 0.81253 0.36299 0.38446 0.0
C1967 C 0.79135 0.36962 0.38897 0.0
H1968 H 0.62022 0.74851 0.87572 0.0
H1969 H 0.61403 0.73341 0.8076 0.0
H1970 H 0.61858 0.77168 0.79837 0.0
H1971 H 0.62455 0.80959 0.80962 0.0
H1972 H 0.63195 0.82441 0.87761 0.0
H1973 H 0.62702 0.78623 0.88687 0.0
C1974 C 0.61977 0.75363 0.85887 0.0
C1975 C 0.6167 0.73815 0.8424 0.0
C1976 C 0.62282 0.77563 0.85362 0.0
C1977 C 0.61641 0.74499 0.82061 0.0
C1978 C 0.61901 0.76689 0.8153 0.0
C1979 C 0.62507 0.80441 0.82643 0.0
C1980 C 0.62872 0.81982 0.84285 0.0
C1981 C 0.62229 0.78236 0.83165 0.0
C1982 C 0.62954 0.81286 0.8646 0.0
C1983 C 0.62653 0.79103 0.86994 0.0
H1984 H 0.34323 0.68119 0.83785 0.0
H1985 H 0.39665 0.66105 0.87831 0.0
H1986 H 0.40418 0.69898 0.88762 0.0
H1987 H 0.39672 0.73819 0.88238 0.0
H1988 H 0.34407 0.75749 0.84033 0.0
H1989 H 0.33486 0.71961 0.83383 0.0
C1990 C 0.35623 0.68502 0.84906 0.0
C1991 C 0.3693 0.66831 0.85742 0.0
C1992 C 0.36066 0.70678 0.85399 0.0
C1993 C 0.38644 0.67365 0.87154 0.0
C1994 C 0.39072 0.69532 0.87689 0.0
C1995 C 0.38308 0.73402 0.87204 0.0
C1996 C 0.37114 0.75057 0.86178 0.0
C1997 C 0.37813 0.71208 0.86793 0.0
C1998 C 0.35363 0.74502 0.84825 0.0
C1999 C 0.34832 0.72337 0.84454 0.0
H2000 H 0.6092 0.18126 0.65287 0.0
H2001 H 0.67868 0.18447 0.65919 0.0
H2002 H 0.67752 0.22413 0.65489 0.0
H2003 H 0.65647 0.25773 0.64832 0.0
H2004 H 0.58732 0.25356 0.63857 0.0
H2005 H 0.58837 0.21442 0.64525 0.0
C2006 C 0.624 0.19077 0.6535 0.0
C2007 C 0.64397 0.18024 0.65659 0.0
C2008 C 0.62318 0.21328 0.65031 0.0
C2009 C 0.66318 0.19244 0.65689 0.0
C2010 C 0.66248 0.21501 0.65445 0.0
C2011 C 0.64169 0.24817 0.64783 0.0
C2012 C 0.62184 0.25831 0.64305 0.0
C2013 C 0.64256 0.22559 0.65103 0.0
C2014 C 0.60276 0.24593 0.64208 0.0
C2015 C 0.60336 0.22362 0.64596 0.0
H2016 H 0.38044 0.23457 0.67515 0.0
H2017 H 0.38334 0.23672 0.60516 0.0
H2018 H 0.37495 0.27548 0.60578 0.0
H2019 H 0.36782 0.30898 0.62626 0.0
H2020 H 0.36695 0.30734 0.69616 0.0
H2021 H 0.3735 0.26809 0.69561 0.0
C2022 C 0.37912 0.24349 0.66002 0.0
C2023 C 0.38244 0.23276 0.64014 0.0
C2024 C 0.37467 0.26584 0.66051 0.0
C2025 C 0.3809 0.24461 0.62069 0.0
C2026 C 0.37607 0.26676 0.62102 0.0
C2027 C 0.36876 0.29993 0.64133 0.0
C2028 C 0.36671 0.31088 0.66124 0.0
C2029 C 0.37301 0.27755 0.64084 0.0
C2030 C 0.36849 0.29914 0.68069 0.0
C2031 C 0.37222 0.27677 0.68035 0.0
H2032 H 0.88562 0.62011 0.73998 0.0
H2033 H 0.81898 0.60225 0.72785 0.0
H2034 H 0.80935 0.61168 0.76512 0.0
H2035 H 0.81986 0.62491 0.80128 0.0
H2036 H 0.88612 0.644 0.81312 0.0
H2037 H 0.89583 0.63458 0.77584 0.0
C2038 C 0.86902 0.61821 0.74556 0.0
C2039 C 0.85308 0.61037 0.73124 0.0
C2040 C 0.86348 0.62409 0.76691 0.0
C2041 C 0.83157 0.60827 0.73856 0.0
C2042 C 0.82603 0.61366 0.75987 0.0
C2043 C 0.8364 0.627 0.79566 0.0
C2044 C 0.85222 0.63513 0.80994 0.0
C2045 C 0.84184 0.62159 0.77418 0.0
C2046 C 0.87357 0.63804 0.80237 0.0
C2047 C 0.87918 0.63247 0.78111 0.0
H2048 H 0.12163 0.86749 0.82402 0.0
H2049 H 0.19149 0.86562 0.82088 0.0
H2050 H 0.19002 0.86839 0.78125 0.0
H2051 H 0.16884 0.87217 0.74767 0.0
H2052 H 0.09893 0.87572 0.75097 0.0
H2053 H 0.1004 0.87124 0.79039 0.0
C2054 C 0.1365 0.86741 0.81462 0.0
C2055 C 0.15665 0.86623 0.82531 0.0
C2056 C 0.13549 0.86934 0.79191 0.0
C2057 C 0.17582 0.86663 0.81298 0.0
C2058 C 0.17496 0.86814 0.79035 0.0
C2059 C 0.1539 0.87179 0.75697 0.0
C2060 C 0.13379 0.87417 0.74636 0.0
C2061 C 0.15489 0.86963 0.77966 0.0
C2062 C 0.11461 0.8739 0.75872 0.0
C2063 C 0.11544 0.87136 0.78126 0.0
H2064 H 0.83074 0.37674 0.75709 0.0
H2065 H 0.90081 0.37638 0.75774 0.0
H2066 H 0.9013 0.36617 0.71938 0.0
H2067 H 0.88175 0.35775 0.68551 0.0
H2068 H 0.81189 0.3602 0.68435 0.0
H2069 H 0.81128 0.36918 0.72312 0.0
C2070 C 0.84613 0.37435 0.74886 0.0
C2071 C 0.86571 0.3772 0.76027 0.0
C2072 C 0.84628 0.36885 0.72675 0.0
C2073 C 0.88551 0.37432 0.74931 0.0
C2074 C 0.8858 0.36843 0.7274 0.0
C2075 C 0.86643 0.36003 0.69387 0.0
C2076 C 0.84686 0.35811 0.68228 0.0
C2077 C 0.86629 0.36565 0.71596 0.0
C2078 C 0.8271 0.36159 0.69306 0.0
C2079 C 0.82678 0.3667 0.71516 0.0
H2080 H 0.1761 0.1207 0.76039 0.0
H2081 H 0.10615 0.12178 0.75612 0.0
H2082 H 0.10839 0.12843 0.7171 0.0
H2083 H 0.13015 0.13263 0.68406 0.0
H2084 H 0.19991 0.12955 0.68763 0.0
H2085 H 0.19792 0.12496 0.72716 0.0
C2086 C 0.16136 0.12255 0.75094 0.0
C2087 C 0.14099 0.12081 0.76113 0.0
C2088 C 0.16276 0.12596 0.72843 0.0
C2089 C 0.12202 0.12299 0.74864 0.0
C2090 C 0.12329 0.12682 0.72634 0.0
C2091 C 0.1449 0.13131 0.69356 0.0
C2092 C 0.16517 0.13167 0.68309 0.0
C2093 C 0.14355 0.1282 0.71607 0.0
C2094 C 0.18417 0.12934 0.69545 0.0
C2095 C 0.18301 0.12672 0.71798 0.0
H2096 H 0.74054 0.82978 0.63773 0.0
H2097 H 0.75309 0.88 0.59053 0.0
H2098 H 0.79225 0.87515 0.59556 0.0
H2099 H 0.82297 0.85573 0.61279 0.0
H2100 H 0.80965 0.80593 0.66022 0.0
H2101 H 0.77079 0.81168 0.65585 0.0
C2102 C 0.75182 0.8397 0.62853 0.0
C2103 C 0.74392 0.85509 0.61365 0.0
C2104 C 0.77421 0.83693 0.63161 0.0
C2105 C 0.75876 0.86802 0.60209 0.0
C2106 C 0.78115 0.86521 0.60492 0.0
C2107 C 0.81152 0.84617 0.62213 0.0
C2108 C 0.81924 0.83044 0.63683 0.0
C2109 C 0.78907 0.84957 0.61952 0.0
C2110 C 0.80422 0.81834 0.64904 0.0
C2111 C 0.78196 0.82151 0.64643 0.0
H2112 H 0.81437 0.13002 0.87001 0.0
H2113 H 0.80982 0.19973 0.86738 0.0
H2114 H 0.77043 0.19759 0.87295 0.0
H2115 H 0.7374 0.17567 0.87893 0.0
H2116 H 0.74279 0.10589 0.88296 0.0
H2117 H 0.78173 0.10827 0.87643 0.0
C2118 C 0.8047 0.14472 0.87034 0.0
C2119 C 0.81488 0.165 0.86801 0.0
C2120 C 0.78225 0.14333 0.87393 0.0
C2121 C 0.80227 0.18396 0.86909 0.0
C2122 C 0.77979 0.18271 0.87227 0.0
C2123 C 0.74708 0.16099 0.87835 0.0
C2124 C 0.73712 0.14064 0.88137 0.0
C2125 C 0.76961 0.16246 0.8748 0.0
C2126 C 0.74998 0.12178 0.88072 0.0
C2127 C 0.77228 0.1231 0.87694 0.0
H2128 H 0.25855 0.32027 0.88015 0.0
H2129 H 0.25866 0.39026 0.88301 0.0
H2130 H 0.21976 0.39082 0.87496 0.0
H2131 H 0.18567 0.37135 0.8674 0.0
H2132 H 0.18512 0.30146 0.86665 0.0
H2133 H 0.22433 0.30083 0.87362 0.0
C2134 C 0.25008 0.33566 0.87894 0.0
C2135 C 0.2615 0.35521 0.88202 0.0
C2136 C 0.22769 0.33583 0.87469 0.0
C2137 C 0.25023 0.37499 0.88071 0.0
C2138 C 0.22802 0.37533 0.87607 0.0
C2139 C 0.19424 0.35603 0.86854 0.0
C2140 C 0.18271 0.33646 0.86626 0.0
C2141 C 0.2166 0.35585 0.87301 0.0
C2142 C 0.19378 0.31667 0.86832 0.0
C2143 C 0.21613 0.31634 0.87228 0.0
H2144 H 0.74188 0.12454 0.10813 0.0
H2145 H 0.7678 0.17786 0.14549 0.0
H2146 H 0.73122 0.18963 0.15469 0.0
H2147 H 0.69204 0.18622 0.15048 0.0
H2148 H 0.66541 0.13367 0.11273 0.0
H2149 H 0.70205 0.12026 0.10521 0.0
C2150 C 0.73948 0.13859 0.11846 0.0
C2151 C 0.75754 0.15036 0.12602 0.0
C2152 C 0.71829 0.14552 0.12348 0.0
C2153 C 0.75419 0.16861 0.13929 0.0
C2154 C 0.73327 0.17536 0.1446 0.0
C2155 C 0.69417 0.1716 0.14095 0.0
C2156 C 0.67597 0.16099 0.13221 0.0
C2157 C 0.71522 0.16413 0.13656 0.0
C2158 C 0.67915 0.1423 0.11948 0.0
C2159 C 0.70009 0.13457 0.11523 0.0
H2160 H 0.39901 0.2542 0.13377 0.0
H2161 H 0.33763 0.27143 0.16268 0.0
H2162 H 0.33019 0.23328 0.17057 0.0
H2163 H 0.34151 0.19503 0.17006 0.0
H2164 H 0.40405 0.17788 0.14402 0.0
H2165 H 0.41084 0.21586 0.13429 0.0
C2166 C 0.38396 0.2495 0.14164 0.0
C2167 C 0.3688 0.26547 0.14753 0.0
C2168 C 0.3801 0.22758 0.14676 0.0
C2169 C 0.34953 0.25934 0.15805 0.0
C2170 C 0.34526 0.23756 0.16255 0.0
C2171 C 0.35653 0.19969 0.16215 0.0
C2172 C 0.37222 0.18382 0.15766 0.0
C2173 C 0.36047 0.22156 0.1571 0.0
C2174 C 0.39182 0.18995 0.14772 0.0
C2175 C 0.39565 0.2116 0.14209 0.0
H2176 H 0.59769 0.25097 0.14398 0.0
H2177 H 0.64371 0.25881 0.09175 0.0
H2178 H 0.65013 0.29634 0.10263 0.0
H2179 H 0.64297 0.32672 0.12705 0.0
H2180 H 0.59846 0.31851 0.18057 0.0
H2181 H 0.59101 0.28145 0.16896 0.0
C2182 C 0.60894 0.26098 0.13486 0.0
C2183 C 0.62011 0.25216 0.11702 0.0
C2184 C 0.61289 0.28245 0.14147 0.0
C2185 C 0.63491 0.26521 0.10556 0.0
C2186 C 0.63862 0.28667 0.11178 0.0
C2187 C 0.63186 0.31682 0.1364 0.0
C2188 C 0.62131 0.32559 0.15468 0.0
C2189 C 0.62784 0.2954 0.12981 0.0
C2190 C 0.60663 0.31244 0.16628 0.0
C2191 C 0.60241 0.29114 0.1597 0.0
H2192 H 0.37449 0.75751 0.39338 0.0
H2193 H 0.38575 0.74221 0.32595 0.0
H2194 H 0.3799 0.78004 0.31598 0.0
H2195 H 0.37199 0.81776 0.32639 0.0
H2196 H 0.35877 0.83295 0.39332 0.0
H2197 H 0.3648 0.79502 0.40354 0.0
C2198 C 0.37562 0.7625 0.37653 0.0
C2199 C 0.3806 0.7471 0.36047 0.0
C2200 C 0.37184 0.78428 0.37081 0.0
C2201 C 0.38183 0.75372 0.33864 0.0
C2202 C 0.37856 0.77538 0.3329 0.0
C2203 C 0.37045 0.81267 0.34317 0.0
C2204 C 0.365 0.82801 0.35908 0.0
C2205 C 0.37362 0.79082 0.34884 0.0
C2206 C 0.36276 0.82131 0.38078 0.0
C2207 C 0.36632 0.79968 0.38663 0.0
H2208 H 0.63353 0.76408 0.37581 0.0
H2209 H 0.61412 0.77841 0.31007 0.0
H2210 H 0.61933 0.74041 0.29994 0.0
H2211 H 0.6291 0.70284 0.30992 0.0
H2212 H 0.65063 0.68907 0.37501 0.0
H2213 H 0.64511 0.72702 0.38526 0.0
C2214 C 0.63044 0.75884 0.35928 0.0
C2215 C 0.62335 0.77396 0.34374 0.0
C2216 C 0.63395 0.73707 0.35345 0.0
C2217 C 0.61966 0.76706 0.32231 0.0
C2218 C 0.62258 0.74533 0.31651 0.0
C2219 C 0.6326 0.70826 0.32629 0.0
C2220 C 0.64025 0.69328 0.34169 0.0
C2221 C 0.62969 0.73017 0.33195 0.0
C2222 C 0.64496 0.70041 0.36284 0.0
C2223 C 0.64167 0.72206 0.36873 0.0
H2224 H 0.14721 0.34937 0.18983 0.0
H2225 H 0.13827 0.41715 0.17556 0.0
H2226 H 0.13146 0.42476 0.21405 0.0
H2227 H 0.12902 0.41206 0.25195 0.0
H2228 H 0.14195 0.34493 0.26669 0.0
H2229 H 0.14613 0.3369 0.22796 0.0
C2230 C 0.14366 0.36572 0.19529 0.0
C2231 C 0.14309 0.38269 0.18013 0.0
C2232 C 0.14049 0.37 0.21747 0.0
C2233 C 0.13882 0.40394 0.18715 0.0
C2234 C 0.13489 0.40824 0.20907 0.0
C2235 C 0.13255 0.39568 0.24657 0.0
C2236 C 0.13496 0.37903 0.26194 0.0
C2237 C 0.13578 0.39141 0.2244 0.0
C2238 C 0.14 0.35793 0.25499 0.0
C2239 C 0.14239 0.35336 0.23291 0.0
H2240 H 0.82709 0.12327 0.25859 0.0
H2241 H 0.89597 0.11143 0.2531 0.0
H2242 H 0.89437 0.11923 0.21422 0.0
H2243 H 0.8732 0.12867 0.18159 0.0
H2244 H 0.80426 0.13915 0.18694 0.0
H2245 H 0.80605 0.13267 0.22613 0.0
C2246 C 0.84179 0.12243 0.24893 0.0
C2247 C 0.86163 0.1168 0.25879 0.0
C2248 C 0.84072 0.12674 0.22657 0.0
C2249 C 0.88047 0.1157 0.24595 0.0
C2250 C 0.87958 0.12019 0.22371 0.0
C2251 C 0.85867 0.12984 0.19143 0.0
C2252 C 0.83864 0.13456 0.1815 0.0
C2253 C 0.8598 0.1257 0.21384 0.0
C2254 C 0.81981 0.13552 0.1943 0.0
C2255 C 0.82085 0.13182 0.21666 0.0
H2256 H 0.17611 0.62951 0.24943 0.0
H2257 H 0.10648 0.62285 0.25434 0.0
H2258 H 0.1086 0.62679 0.29364 0.0
H2259 H 0.13015 0.63137 0.32671 0.0
H2260 H 0.19976 0.63637 0.32253 0.0
H2261 H 0.1978 0.63385 0.28282 0.0
C2262 C 0.16141 0.62898 0.2591 0.0
C2263 C 0.14117 0.62592 0.24893 0.0
C2264 C 0.16274 0.63099 0.2818 0.0
C2265 C 0.12228 0.62512 0.26173 0.0
C2266 C 0.12345 0.62742 0.28422 0.0
C2267 C 0.14484 0.63225 0.31705 0.0
C2268 C 0.16505 0.63432 0.3274 0.0
C2269 C 0.14357 0.63034 0.29441 0.0
C2270 C 0.18404 0.63483 0.31481 0.0
C2271 C 0.1829 0.63338 0.29217 0.0
H2272 H 0.87961 0.87058 0.31289 0.0
H2273 H 0.81084 0.85842 0.30972 0.0
H2274 H 0.81097 0.86617 0.27069 0.0
H2275 H 0.83055 0.87724 0.23786 0.0
H2276 H 0.89919 0.89106 0.24131 0.0
H2277 H 0.89926 0.88186 0.27992 0.0
C2278 C 0.86477 0.8693 0.30353 0.0
C2279 C 0.84527 0.86369 0.31398 0.0
C2280 C 0.86494 0.87427 0.28127 0.0
C2281 C 0.82599 0.86264 0.30188 0.0
C2282 C 0.82609 0.8671 0.27965 0.0
C2283 C 0.84556 0.87821 0.24701 0.0
C2284 C 0.86484 0.88479 0.23668 0.0
C2285 C 0.84544 0.8731 0.26922 0.0
C2286 C 0.8841 0.88608 0.24886 0.0
C2287 C 0.88417 0.88077 0.27093 0.0
H2288 H 0.18695 0.18515 0.37862 0.0
H2289 H 0.17623 0.11989 0.35594 0.0
H2290 H 0.21401 0.11058 0.36383 0.0
H2291 H 0.25015 0.121 0.37736 0.0
H2292 H 0.26145 0.18689 0.39804 0.0
H2293 H 0.22343 0.19594 0.39103 0.0
C2294 C 0.19296 0.16892 0.37545 0.0
C2295 C 0.17889 0.15324 0.36671 0.0
C2296 C 0.21476 0.16378 0.3798 0.0
C2297 C 0.18685 0.1323 0.36241 0.0
C2298 C 0.20839 0.12693 0.36707 0.0
C2299 C 0.24421 0.13728 0.38045 0.0
C2300 C 0.25848 0.15322 0.38835 0.0
C2301 C 0.22248 0.14252 0.37582 0.0
C2302 C 0.25073 0.17436 0.39195 0.0
C2303 C 0.22901 0.17954 0.38794 0.0
H2304 H 0.25873 0.88292 0.1327 0.0
H2305 H 0.26429 0.81601 0.11277 0.0
H2306 H 0.22588 0.81018 0.12061 0.0
H2307 H 0.19059 0.82411 0.13306 0.0
H2308 H 0.18528 0.89059 0.15412 0.0
H2309 H 0.2237 0.89651 0.14622 0.0
C2310 C 0.2515 0.86709 0.13003 0.0
C2311 C 0.26431 0.84997 0.12208 0.0
C2312 C 0.22947 0.86373 0.13492 0.0
C2313 C 0.25479 0.82947 0.11892 0.0
C2314 C 0.23282 0.82611 0.12338 0.0
C2315 C 0.19789 0.83987 0.13588 0.0
C2316 C 0.18514 0.85686 0.14415 0.0
C2317 C 0.22 0.84311 0.13139 0.0
C2318 C 0.19482 0.87716 0.14802 0.0
C2319 C 0.21674 0.8806 0.14335 0.0
H2320 H 0.74529 0.67605 0.11911 0.0
H2321 H 0.74702 0.60631 0.11262 0.0
H2322 H 0.78618 0.60646 0.11896 0.0
H2323 H 0.8202 0.62662 0.12499 0.0
H2324 H 0.81857 0.69637 0.12963 0.0
H2325 H 0.77907 0.69607 0.12541 0.0
C2326 C 0.7542 0.66086 0.11923 0.0
C2327 C 0.74326 0.64121 0.11542 0.0
C2328 C 0.77673 0.6611 0.12249 0.0
C2329 C 0.75508 0.62168 0.11545 0.0
C2330 C 0.77746 0.62174 0.11909 0.0
C2331 C 0.81109 0.64167 0.12533 0.0
C2332 C 0.82214 0.66148 0.12762 0.0
C2333 C 0.78848 0.64137 0.12246 0.0
C2334 C 0.81032 0.68097 0.1277 0.0
C2335 C 0.78779 0.68079 0.12534 0.0
H2336 H 0.31531 0.84183 0.89964 0.0
H2337 H 0.30777 0.82569 0.83209 0.0
H2338 H 0.2685 0.83179 0.83464 0.0
H2339 H 0.23646 0.8427 0.85605 0.0
H2340 H 0.24461 0.86148 0.92293 0.0
H2341 H 0.28342 0.8535 0.92084 0.0
C2342 C 0.30494 0.83948 0.88561 0.0
C2343 C 0.31419 0.83317 0.86576 0.0
C2344 C 0.28257 0.84367 0.88708 0.0
C2345 C 0.30084 0.83055 0.84749 0.0
C2346 C 0.27846 0.83402 0.84897 0.0
C2347 C 0.2468 0.84495 0.87014 0.0
C2348 C 0.23782 0.8528 0.88956 0.0
C2349 C 0.26917 0.84074 0.86865 0.0
C2350 C 0.25128 0.85585 0.9077 0.0
C2351 C 0.27343 0.85113 0.90655 0.0
H2352 H 0.00297 0.20516 0.41694 0.0
H2353 H 0.0557 0.25117 0.41735 0.0
H2354 H 0.0298 0.28123 0.41774 0.0
H2355 H 0.99224 0.29434 0.41616 0.0
H2356 H 0.93944 0.24839 0.41524 0.0
H2357 H 0.96529 0.21832 0.4169 0.0
C2358 C 0.00877 0.22175 0.41749 0.0
C2359 C 0.03122 0.22594 0.41714 0.0
C2360 C 0.99378 0.23893 0.41747 0.0
C2361 C 0.0385 0.24755 0.41742 0.0
C2362 C 0.02371 0.26473 0.4177 0.0
C2363 C 0.98636 0.27778 0.4167 0.0
C2364 C 0.96393 0.27363 0.41558 0.0
C2365 C 0.00132 0.2606 0.41748 0.0
C2366 C 0.95662 0.25201 0.41586 0.0
C2367 C 0.97139 0.23482 0.41689 0.0
H2368 H 0.99727 0.72103 0.08586 0.0
H2369 H 0.94415 0.76557 0.09553 0.0
H2370 H 0.96977 0.79578 0.09855 0.0
H2371 H 0.00736 0.8094 0.09858 0.0
H2372 H 0.06038 0.76465 0.08944 0.0
H2373 H 0.03471 0.73456 0.08595 0.0
C2374 C 0.99128 0.73738 0.08832 0.0
C2375 C 0.96883 0.7411 0.09024 0.0
C2376 C 0.00609 0.75459 0.09015 0.0
C2377 C 0.96136 0.76231 0.09405 0.0
C2378 C 0.97599 0.77957 0.09569 0.0
C2379 C 0.01324 0.7931 0.09553 0.0
C2380 C 0.03571 0.78924 0.09406 0.0
C2381 C 0.99839 0.7759 0.09374 0.0
C2382 C 0.04316 0.76796 0.09069 0.0
C2383 C 0.0285 0.7508 0.08864 0.0
H2384 H 0.41672 0.04738 0.24998 0.0
H2385 H 0.41278 0.00284 0.19618 0.0
H2386 H 0.41227 0.9721 0.22123 0.0
H2387 H 0.41285 0.95782 0.25861 0.0
H2388 H 0.41747 0.00232 0.31234 0.0
H2389 H 0.41771 0.0331 0.2873 0.0
C2390 C 0.4157 0.03093 0.24381 0.0
C2391 C 0.41489 0.02739 0.2213 0.0
C2392 C 0.41554 0.01333 0.25831 0.0
C2393 C 0.41377 0.00599 0.21344 0.0
C2394 C 0.41333 0.98841 0.22776 0.0
C2395 C 0.41386 0.97428 0.26475 0.0
C2396 C 0.41527 0.97782 0.28722 0.0
C2397 C 0.41421 0.99188 0.25023 0.0
C2398 C 0.41672 0.9992 0.29507 0.0
C2399 C 0.41674 0.01679 0.28077 0.0
H2400 H 0.58086 0.51868 0.29755 0.0
H2401 H 0.57946 0.56814 0.24806 0.0
H2402 H 0.57667 0.54029 0.21989 0.0
H2403 H 0.57585 0.50191 0.20937 0.0
H2404 H 0.57848 0.45227 0.25863 0.0
H2405 H 0.5796 0.48012 0.28697 0.0
C2406 C 0.57963 0.52332 0.28061 0.0
C2407 C 0.58023 0.54541 0.27485 0.0
C2408 C 0.57838 0.5072 0.26453 0.0
C2409 C 0.57911 0.55122 0.25283 0.0
C2410 C 0.57748 0.53532 0.23676 0.0
C2411 C 0.57633 0.49719 0.22631 0.0
C2412 C 0.57692 0.47506 0.23193 0.0
C2413 C 0.57725 0.51327 0.24242 0.0
C2414 C 0.5781 0.4692 0.25394 0.0
C2415 C 0.57868 0.48511 0.27012 0.0
H2416 H 0.25829 0.40615 0.95811 0.0
H2417 H 0.30983 0.39284 0.00351 0.0
H2418 H 0.28443 0.39581 0.03382 0.0
H2419 H 0.24766 0.40362 0.04757 0.0
H2420 H 0.19633 0.41783 0.00216 0.0
H2421 H 0.22135 0.4131 0.97182 0.0
C2422 C 0.26385 0.40375 0.97464 0.0
C2423 C 0.28589 0.39947 0.97858 0.0
C2424 C 0.24919 0.4058 0.99202 0.0
C2425 C 0.29298 0.39652 1.00009 0.0
C2426 C 0.27846 0.39813 0.01743 0.0
C2427 C 0.24199 0.40553 0.03102 0.0
C2428 C 0.22025 0.41128 0.02716 0.0
C2429 C 0.25655 0.40301 0.01362 0.0
C2430 C 0.21309 0.41382 0.00561 0.0
C2431 C 0.22736 0.41099 0.98822 0.0
H2432 H 0.2112 0.56821 0.49758 0.0
H2433 H 0.26028 0.57697 0.44853 0.0
H2434 H 0.28865 0.57641 0.47639 0.0
H2435 H 0.29928 0.57463 0.51485 0.0
H2436 H 0.25012 0.56815 0.56413 0.0
H2437 H 0.22186 0.56652 0.53613 0.0
C2438 C 0.22815 0.56968 0.49304 0.0
C2439 C 0.23375 0.57244 0.47109 0.0
C2440 C 0.24425 0.56981 0.50919 0.0
C2441 C 0.25568 0.57486 0.46537 0.0
C2442 C 0.27185 0.5745 0.48126 0.0
C2443 C 0.2824 0.57253 0.51937 0.0
C2444 C 0.27671 0.57123 0.54143 0.0
C2445 C 0.26631 0.57213 0.50323 0.0
C2446 C 0.25477 0.56912 0.54721 0.0
C2447 C 0.23868 0.56819 0.53123 0.0
H2448 H 0.75476 0.90538 0.44807 0.0
H2449 H 0.80971 0.91467 0.49036 0.0
H2450 H 0.786 0.91302 0.52212 0.0
H2451 H 0.74936 0.90948 0.53791 0.0
H2452 H 0.69433 0.90131 0.49555 0.0
H2453 H 0.71818 0.90177 0.46381 0.0
C2454 C 0.76147 0.90697 0.46426 0.0
C2455 C 0.78386 0.91031 0.46688 0.0
C2456 C 0.7477 0.90621 0.48242 0.0
C2457 C 0.79244 0.91248 0.48793 0.0
C2458 C 0.77892 0.91139 0.5061 0.0
C2459 C 0.74272 0.90772 0.5217 0.0
C2460 C 0.72021 0.90554 0.51898 0.0
C2461 C 0.75651 0.90837 0.50354 0.0
C2462 C 0.71163 0.90337 0.49795 0.0
C2463 C 0.72525 0.90354 0.47984 0.0
H2464 H 0.95704 0.74674 0.5867 0.0
H2465 H 0.00057 0.80153 0.58598 0.0
H2466 H 0.03182 0.7771 0.58666 0.0
H2467 H 0.04683 0.73996 0.58811 0.0
H2468 H 0.00309 0.68534 0.58871 0.0
H2469 H 0.97194 0.70978 0.58756 0.0
C2470 C 0.97337 0.7533 0.58675 0.0
C2471 C 0.97645 0.7759 0.58625 0.0
C2472 C 0.99125 0.73916 0.58714 0.0
C2473 C 0.99773 0.78419 0.58605 0.0
C2474 C 0.01562 0.77023 0.5866 0.0
C2475 C 0.03046 0.73349 0.588 0.0
C2476 C 0.02728 0.7109 0.58835 0.0
C2477 C 0.01258 0.74768 0.58723 0.0
C2478 C 0.00599 0.70266 0.58807 0.0
C2479 C 0.98816 0.71663 0.58755 0.0
H2480 H 0.95102 0.25587 0.90909 0.0
H2481 H 0.99131 0.20019 0.92205 0.0
H2482 H 0.02387 0.22279 0.91998 0.0
H2483 H 0.04092 0.25869 0.91492 0.0
H2484 H 0.00055 0.31461 0.90357 0.0
H2485 H 0.96803 0.29181 0.90438 0.0
C2486 C 0.96697 0.24877 0.91138 0.0
C2487 C 0.9688 0.22649 0.91584 0.0
C2488 C 0.98558 0.26193 0.91045 0.0
C2489 C 0.98951 0.21739 0.91895 0.0
C2490 C 0.00812 0.23027 0.91763 0.0
C2491 C 0.02497 0.26574 0.91256 0.0
C2492 C 0.02303 0.2882 0.9093 0.0
C2493 C 0.00636 0.25258 0.91348 0.0
C2494 C 0.00233 0.29735 0.9064 0.0
C2495 C 0.98378 0.28433 0.90678 0.0
H2496 H 0.55247 0.02512 0.71946 0.0
H2497 H 0.62213 0.03121 0.7235 0.0
H2498 H 0.62391 0.99919 0.74668 0.0
H2499 H 0.60575 0.96941 0.76591 0.0
H2500 H 0.53617 0.96307 0.76211 0.0
H2501 H 0.53426 0.99507 0.73859 0.0
C2502 C 0.56802 0.01935 0.72533 0.0
C2503 C 0.58708 0.03068 0.71986 0.0
C2504 C 0.56896 0.00081 0.73861 0.0
C2505 C 0.60714 0.02311 0.72778 0.0
C2506 C 0.60821 0.00466 0.74089 0.0
C2507 C 0.59022 0.97487 0.75966 0.0
C2508 C 0.57114 0.96382 0.76556 0.0
C2509 C 0.58925 0.99337 0.74639 0.0
C2510 C 0.55105 0.97138 0.75781 0.0
C2511 C 0.54997 0.98963 0.74437 0.0
H2512 H 0.41992 0.49624 0.7956 0.0
H2513 H 0.41925 0.54987 0.75055 0.0
H2514 H 0.4199 0.5245 0.72004 0.0
H2515 H 0.41911 0.48702 0.70631 0.0
H2516 H 0.41952 0.4336 0.75157 0.0
H2517 H 0.42075 0.459 0.78199 0.0
C2518 C 0.42034 0.50244 0.77914 0.0
C2519 C 0.41959 0.52495 0.77538 0.0
C2520 C 0.42059 0.48778 0.76175 0.0
C2521 C 0.41962 0.53262 0.75388 0.0
C2522 C 0.42007 0.51813 0.73645 0.0
C2523 C 0.41985 0.48096 0.72282 0.0
C2524 C 0.41924 0.45847 0.72672 0.0
C2525 C 0.42035 0.49567 0.7402 0.0
C2526 C 0.41978 0.45084 0.74821 0.0
C2527 C 0.42054 0.46535 0.76557 0.0
H2528 H 0.79422 0.58534 0.98431 0.0
H2529 H 0.74753 0.59518 0.93309 0.0
H2530 H 0.71807 0.59575 0.95971 0.0
H2531 H 0.70574 0.59409 0.9976 0.0
H2532 H 0.75244 0.58516 0.04894 0.0
H2533 H 0.78186 0.58351 0.02224 0.0
C2534 C 0.77757 0.5873 0.97897 0.0
C2535 C 0.77303 0.59008 0.95676 0.0
C2536 C 0.76078 0.58782 0.99439 0.0
C2537 C 0.75142 0.59312 0.95011 0.0
C2538 C 0.73459 0.59337 0.96531 0.0
C2539 C 0.72232 0.59146 0.00289 0.0
C2540 C 0.72695 0.58952 0.02517 0.0
C2541 C 0.73909 0.5908 0.98748 0.0
C2542 C 0.74856 0.58673 0.03187 0.0
C2543 C 0.76533 0.58574 0.01662 0.0
H2544 H 0.72135 0.41885 0.49097 0.0
H2545 H 0.76279 0.39976 0.43791 0.0
H2546 H 0.7928 0.39364 0.46326 0.0
H2547 H 0.80716 0.39375 0.50058 0.0
H2548 H 0.76541 0.41214 0.55363 0.0
H2549 H 0.73553 0.41855 0.52823 0.0
C2550 C 0.73703 0.41362 0.48494 0.0
C2551 C 0.73993 0.40999 0.46258 0.0
C2552 C 0.75409 0.40997 0.49961 0.0
C2553 C 0.76017 0.40263 0.45506 0.0
C2554 C 0.77733 0.3992 0.46952 0.0
C2555 C 0.79158 0.39939 0.50652 0.0
C2556 C 0.78851 0.40268 0.52892 0.0
C2557 C 0.77447 0.40286 0.49183 0.0
C2558 C 0.7681 0.40945 0.53647 0.0
C2559 C 0.75107 0.41318 0.52196 0.0
H2560 H 0.24856 0.08575 0.45611 0.0
H2561 H 0.30616 0.08428 0.4957 0.0
H2562 H 0.28402 0.0813 0.52855 0.0
H2563 H 0.24817 0.07887 0.54597 0.0
H2564 H 0.19049 0.07841 0.50647 0.0
H2565 H 0.21254 0.08221 0.4736 0.0
C2566 C 0.25611 0.08485 0.47199 0.0
C2567 C 0.27883 0.08522 0.47363 0.0
C2568 C 0.24327 0.08264 0.49073 0.0
C2569 C 0.28865 0.08383 0.49417 0.0
C2570 C 0.27602 0.08218 0.5129 0.0
C2571 C 0.24054 0.07957 0.53012 0.0
C2572 C 0.21786 0.07827 0.52854 0.0
C2573 C 0.25333 0.08148 0.51137 0.0
C2574 C 0.20799 0.07906 0.50798 0.0
C2575 C 0.22057 0.08139 0.48923 0.0
H2576 H 0.45567 0.74284 0.9116 0.0
H2577 H 0.49259 0.80187 0.9054 0.0
H2578 H 0.52615 0.78105 0.90178 0.0
H2579 H 0.54528 0.74591 0.90183 0.0
H2580 H 0.50875 0.68693 0.91031 0.0
H2581 H 0.47486 0.70761 0.91159 0.0
C2582 C 0.4711 0.75101 0.90937 0.0
C2583 C 0.47175 0.77377 0.90893 0.0
C2584 C 0.49041 0.73892 0.90782 0.0
C2585 C 0.4918 0.78433 0.90615 0.0
C2586 C 0.51096 0.77245 0.90397 0.0
C2587 C 0.52984 0.73768 0.90379 0.0
C2588 C 0.52943 0.71503 0.90606 0.0
C2589 C 0.51051 0.74973 0.90502 0.0
C2590 C 0.50941 0.70443 0.9088 0.0
C2591 C 0.49005 0.71622 0.90946 0.0
H2592 H 0.50132 0.19785 0.58931 0.0
H2593 H 0.4482 0.2431 0.58414 0.0
H2594 H 0.47391 0.2732 0.58051 0.0
H2595 H 0.51162 0.28664 0.57964 0.0
H2596 H 0.56452 0.24122 0.5857 0.0
H2597 H 0.5388 0.21111 0.588 0.0
C2598 C 0.49537 0.21426 0.58708 0.0
C2599 C 0.47289 0.21824 0.58685 0.0
C2600 C 0.51022 0.23142 0.5852 0.0
C2601 C 0.46543 0.23966 0.58449 0.0
C2602 C 0.48012 0.25684 0.58233 0.0
C2603 C 0.51747 0.27012 0.58114 0.0
C2604 C 0.53993 0.26612 0.5824 0.0
C2605 C 0.50256 0.25292 0.58274 0.0
C2606 C 0.54731 0.24468 0.58482 0.0
C2607 C 0.53262 0.22748 0.58609 0.0
H2608 H 0.92362 0.45394 0.75414 0.0
H2609 H 0.91046 0.49537 0.80882 0.0
H2610 H 0.91008 0.52726 0.7851 0.0
H2611 H 0.9139 0.54339 0.74863 0.0
H2612 H 0.92917 0.50223 0.69425 0.0
H2613 H 0.92851 0.47024 0.71781 0.0
C2614 C 0.9207 0.47 0.76072 0.0
C2615 C 0.91717 0.47245 0.78308 0.0
C2616 C 0.921 0.48827 0.74704 0.0
C2617 C 0.9135 0.49325 0.79164 0.0
C2618 C 0.91319 0.51143 0.77809 0.0
C2619 C 0.91706 0.52738 0.74205 0.0
C2620 C 0.92166 0.5251 0.71985 0.0
C2621 C 0.91701 0.50915 0.75577 0.0
C2622 C 0.92589 0.50435 0.71139 0.0
C2623 C 0.92539 0.48607 0.72481 0.0
H2624 H 0.08198 0.0051 0.79668 0.0
H2625 H 0.08705 0.05573 0.74858 0.0
H2626 H 0.08582 0.02864 0.71959 0.0
H2627 H 0.08396 0.99053 0.70805 0.0
H2628 H 0.07941 0.93988 0.75615 0.0
H2629 H 0.07966 0.96704 0.78513 0.0
C2630 C 0.08248 0.01023 0.77986 0.0
C2631 C 0.08445 0.03241 0.77477 0.0
C2632 C 0.08189 0.99457 0.76333 0.0
C2633 C 0.08564 0.03875 0.75289 0.0
C2634 C 0.08486 0.02329 0.73633 0.0
C2635 C 0.08266 0.98547 0.72486 0.0
C2636 C 0.08145 0.96325 0.72998 0.0
C2637 C 0.08303 0.00115 0.74137 0.0
C2638 C 0.0804 0.9569 0.75186 0.0
C2639 C 0.0805 0.97241 0.76839 0.0
H2640 H 0.785 0.08194 0.00906 0.0
H2641 H 0.73598 0.09156 0.05801 0.0
H2642 H 0.70757 0.09018 0.03013 0.0
H2643 H 0.69688 0.08648 0.99164 0.0
H2644 H 0.74626 0.07847 0.94277 0.0
H2645 H 0.77447 0.07879 0.97079 0.0
C2646 C 0.76808 0.08348 0.01363 0.0
C2647 C 0.76252 0.08659 0.03555 0.0
C2648 C 0.75198 0.08293 0.99753 0.0
C2649 C 0.74059 0.08917 0.04121 0.0
C2650 C 0.72439 0.0883 0.0253 0.0
C2651 C 0.71381 0.08453 0.98724 0.0
C2652 C 0.71956 0.08221 0.96526 0.0
C2653 C 0.72991 0.08517 0.0034 0.0
C2654 C 0.74155 0.08026 0.95962 0.0
C2655 C 0.75762 0.08043 0.97561 0.0
H2656 H 0.53513 0.24991 0.08637 0.0
H2657 H 0.49422 0.19463 0.09931 0.0
H2658 H 0.4624 0.21813 0.10111 0.0
H2659 H 0.44595 0.25453 0.09827 0.0
H2660 H 0.48686 0.3097 0.08496 0.0
H2661 H 0.51883 0.28629 0.08416 0.0
C2662 C 0.51926 0.24307 0.08967 0.0
C2663 C 0.51706 0.22055 0.09248 0.0
C2664 C 0.50098 0.2567 0.09058 0.0
C2665 C 0.49634 0.21186 0.09662 0.0
C2666 C 0.47812 0.22531 0.09783 0.0
C2667 C 0.4619 0.26137 0.09535 0.0
C2668 C 0.46401 0.28375 0.09148 0.0
C2669 C 0.48022 0.24776 0.0947 0.0
C2670 C 0.48476 0.29246 0.08759 0.0
C2671 C 0.50307 0.2791 0.08723 0.0
H2672 H 0.51513 0.80431 0.41751 0.0
H2673 H 0.56258 0.75414 0.40656 0.0
H2674 H 0.53412 0.72639 0.4088 0.0
H2675 H 0.49577 0.71654 0.41452 0.0
H2676 H 0.44799 0.76678 0.42325 0.0
H2677 H 0.47649 0.79457 0.42132 0.0
C2678 C 0.51918 0.78728 0.41579 0.0
C2679 C 0.54088 0.78115 0.41219 0.0
C2680 C 0.50271 0.77155 0.41675 0.0
C2681 C 0.54595 0.75912 0.40938 0.0
C2682 C 0.52973 0.74332 0.41073 0.0
C2683 C 0.49171 0.73359 0.41615 0.0
C2684 C 0.46998 0.73974 0.41938 0.0
C2685 C 0.50809 0.74935 0.41455 0.0
C2686 C 0.46469 0.76183 0.42087 0.0
C2687 C 0.48095 0.77763 0.4198 0.0
H2688 H 0.11256 0.53524 0.22712 0.0
H2689 H 0.04356 0.54572 0.2319 0.0
H2690 H 0.04021 0.51455 0.2563 0.0
H2691 H 0.05702 0.48468 0.27672 0.0
H2692 H 0.12591 0.47362 0.27151 0.0
H2693 H 0.12926 0.50448 0.2467 0.0
C2694 C 0.09686 0.53073 0.23366 0.0
C2695 C 0.07834 0.54281 0.22791 0.0
C2696 C 0.09505 0.51264 0.24747 0.0
C2697 C 0.05799 0.53658 0.23607 0.0
C2698 C 0.05609 0.51883 0.25005 0.0
C2699 C 0.07275 0.48908 0.27016 0.0
C2700 C 0.09118 0.47694 0.27597 0.0
C2701 C 0.07451 0.50679 0.25591 0.0
C2702 C 0.11144 0.48257 0.2671 0.0
C2703 C 0.11338 0.50031 0.25304 0.0
H2704 H 0.91614 0.95817 0.24209 0.0
H2705 H 0.91342 0.00405 0.18929 0.0
H2706 H 0.91419 0.03419 0.21499 0.0
H2707 H 0.91504 0.04755 0.25258 0.0
H2708 H 0.91805 0.0018 0.30545 0.0
H2709 H 0.91787 0.9716 0.27975 0.0
C2710 C 0.91569 0.97478 0.23629 0.0
C2711 C 0.9148 0.97888 0.21386 0.0
C2712 C 0.91625 0.99205 0.25117 0.0
C2713 C 0.91443 0.00047 0.20647 0.0
C2714 C 0.91474 0.01772 0.22116 0.0
C2715 C 0.91564 0.03096 0.25841 0.0
C2716 C 0.9166 0.02691 0.28084 0.0
C2717 C 0.91558 0.0137 0.24354 0.0
C2718 C 0.91762 0.00534 0.28825 0.0
C2719 C 0.91736 0.98806 0.27356 0.0
H2720 H 0.20878 0.91888 0.0011 0.0
H2721 H 0.25483 0.90906 0.94936 0.0
H2722 H 0.28461 0.90828 0.97558 0.0
H2723 H 0.29741 0.90954 0.01323 0.0
H2724 H 0.25153 0.9179 0.06535 0.0
H2725 H 0.22171 0.92008 0.03905 0.0
C2726 C 0.22537 0.91684 0.99562 0.0
C2727 C 0.22967 0.91416 0.97335 0.0
C2728 C 0.24236 0.91606 0.01085 0.0
C2729 C 0.25117 0.91105 0.96644 0.0
C2730 C 0.26818 0.91066 0.9814 0.0
C2731 C 0.28092 0.91215 0.0188 0.0
C2732 C 0.27665 0.91379 0.04115 0.0
C2733 C 0.26395 0.91305 0.00364 0.0
C2734 C 0.25515 0.91657 0.0482 0.0
C2735 C 0.23815 0.91787 0.03318 0.0
H2736 H 0.13142 0.12938 0.44512 0.0
H2737 H 0.13121 0.19937 0.447 0.0
H2738 H 0.14689 0.19858 0.48357 0.0
H2739 H 0.15789 0.1776 0.51632 0.0
H2740 H 0.15701 0.10769 0.51374 0.0
H2741 H 0.14473 0.10879 0.47609 0.0
C2742 C 0.13492 0.1445 0.45343 0.0
C2743 C 0.12991 0.16438 0.44348 0.0
C2744 C 0.1437 0.1439 0.4744 0.0
C2745 C 0.13484 0.18382 0.45437 0.0
C2746 C 0.14375 0.18338 0.4753 0.0
C2747 C 0.15524 0.16272 0.5073 0.0
C2748 C 0.15805 0.1426 0.51765 0.0
C2749 C 0.14784 0.16349 0.48567 0.0
C2750 C 0.15466 0.12332 0.506 0.0
C2751 C 0.14765 0.12394 0.48454 0.0
H2752 H 0.87944 0.29989 0.45271 0.0
H2753 H 0.84764 0.36016 0.43685 0.0
H2754 H 0.8297 0.36044 0.47226 0.0
H2755 H 0.82691 0.34611 0.5092 0.0
H2756 H 0.86235 0.28856 0.52707 0.0
H2757 H 0.87484 0.28428 0.48945 0.0
C2758 C 0.86824 0.3128 0.45696 0.0
C2759 C 0.8648 0.33 0.4424 0.0
C2760 C 0.85877 0.31332 0.47773 0.0
C2761 C 0.85056 0.34687 0.448 0.0
C2762 C 0.84033 0.34701 0.46819 0.0
C2763 C 0.83681 0.33226 0.50462 0.0
C2764 C 0.84346 0.31742 0.52059 0.0
C2765 C 0.84481 0.33067 0.48339 0.0
C2766 C 0.85685 0.29993 0.51483 0.0
C2767 C 0.8641 0.29763 0.49342 0.0
H2768 H 0.15329 0.88027 0.99696 0.0
H2769 H 0.15606 0.81105 0.98772 0.0
H2770 H 0.14618 0.80537 0.02604 0.0
H2771 H 0.13428 0.82056 0.06146 0.0
H2772 H 0.13178 0.89018 0.06947 0.0
H2773 H 0.14416 0.89524 0.03236 0.0
C2774 C 0.15172 0.86393 0.00338 0.0
C2775 C 0.15493 0.84608 0.98961 0.0
C2776 C 0.14607 0.86091 0.02516 0.0
C2777 C 0.15345 0.82499 0.9981 0.0
C2778 C 0.14777 0.82179 0.01993 0.0
C2779 C 0.1367 0.83681 0.05513 0.0
C2780 C 0.13187 0.85496 0.06818 0.0
C2781 C 0.14369 0.83967 0.03354 0.0
C2782 C 0.13514 0.87592 0.05976 0.0
C2783 C 0.14222 0.87886 0.03851 0.0
H2784 H 0.84536 0.68395 0.97898 0.0
H2785 H 0.86976 0.61855 0.9729 0.0
H2786 H 0.88287 0.61951 0.01008 0.0
H2787 H 0.8881 0.63875 0.044 0.0
H2788 H 0.86443 0.70425 0.05121 0.0
H2789 H 0.85014 0.70334 0.01407 0.0
C2790 C 0.85353 0.66997 0.98588 0.0
C2791 C 0.85696 0.65138 0.97304 0.0
C2792 C 0.86109 0.67058 0.00747 0.0
C2793 C 0.86744 0.63328 0.98221 0.0
C2794 C 0.8748 0.63372 0.00355 0.0
C2795 C 0.87975 0.65285 0.03755 0.0
C2796 C 0.87739 0.67154 0.05035 0.0
C2797 C 0.87185 0.65229 0.01625 0.0
C2798 C 0.8665 0.68964 0.04167 0.0
C2799 C 0.85836 0.68914 0.02042 0.0
H2800 H 0.44312 0.15682 0.15403 0.0
H2801 H 0.45882 0.11112 0.20457 0.0
H2802 H 0.49562 0.12621 0.2072 0.0
H2803 H 0.52443 0.14965 0.19178 0.0
H2804 H 0.50767 0.19639 0.14239 0.0
H2805 H 0.47007 0.18408 0.14292 0.0
C2806 C 0.45456 0.15049 0.16585 0.0
C2807 C 0.44862 0.13283 0.1789 0.0
C2808 C 0.47542 0.15944 0.16745 0.0
C2809 C 0.46325 0.12477 0.19439 0.0
C2810 C 0.48425 0.13332 0.19581 0.0
C2811 C 0.51236 0.15746 0.18159 0.0
C2812 C 0.51876 0.17384 0.16705 0.0
C2813 C 0.4907 0.15027 0.18198 0.0
C2814 C 0.50306 0.1839 0.15389 0.0
C2815 C 0.4816 0.17672 0.15401 0.0
H2816 H 0.47118 0.35238 0.19376 0.0
H2817 H 0.47813 0.33696 0.12586 0.0
H2818 H 0.51632 0.34745 0.12691 0.0
H2819 H 0.5463 0.36468 0.14591 0.0
H2820 H 0.54048 0.38069 0.21374 0.0
H2821 H 0.50341 0.36592 0.21423 0.0
C2822 C 0.4813 0.35098 0.17943 0.0
C2823 C 0.47209 0.34414 0.15973 0.0
C2824 C 0.50328 0.35725 0.18012 0.0
C2825 C 0.48509 0.34232 0.14112 0.0
C2826 C 0.50683 0.34834 0.1417 0.0
C2827 C 0.537 0.36469 0.16088 0.0
C2828 C 0.54583 0.37401 0.17966 0.0
C2829 C 0.51588 0.35642 0.16092 0.0
C2830 C 0.53388 0.3736 0.19907 0.0
C2831 C 0.51269 0.36531 0.19929 0.0
H2832 H 0.51416 0.85717 0.37739 0.0
H2833 H 0.52222 0.84918 0.3084 0.0
H2834 H 0.48399 0.85919 0.30259 0.0
H2835 H 0.44896 0.87245 0.31736 0.0
H2836 H 0.44181 0.87982 0.38674 0.0
H2837 H 0.47896 0.86766 0.39219 0.0
C2838 C 0.50751 0.85765 0.36108 0.0
C2839 C 0.52092 0.85289 0.3433 0.0
C2840 C 0.48572 0.86329 0.35797 0.0
C2841 C 0.51211 0.85298 0.32228 0.0
C2842 C 0.49033 0.85872 0.319 0.0
C2843 C 0.45548 0.87116 0.33366 0.0
C2844 C 0.44266 0.87728 0.35159 0.0
C2845 C 0.47705 0.86423 0.33673 0.0
C2846 C 0.45132 0.87542 0.37263 0.0
C2847 C 0.47261 0.86849 0.37579 0.0
H2848 H 0.56308 0.6685 0.3547 0.0
H2849 H 0.54921 0.62954 0.29832 0.0
H2850 H 0.51105 0.64073 0.29959 0.0
H2851 H 0.48088 0.6582 0.31968 0.0
H2852 H 0.49543 0.69845 0.37497 0.0
H2853 H 0.53413 0.69042 0.37119 0.0
C2854 C 0.55173 0.66285 0.34247 0.0
C2855 C 0.55871 0.64813 0.32659 0.0
C2856 C 0.52997 0.66946 0.34324 0.0
C2857 C 0.54408 0.64099 0.31064 0.0
C2858 C 0.52227 0.64724 0.31147 0.0
C2859 C 0.49268 0.66551 0.33052 0.0
C2860 C 0.48558 0.67876 0.3476 0.0
C2861 C 0.51491 0.66095 0.3281 0.0
C2862 C 0.50077 0.68825 0.36167 0.0
C2863 C 0.52281 0.68358 0.35958 0.0
H2864 H 0.18137 0.52724 0.15641 0.0
H2865 H 0.11195 0.52468 0.16495 0.0
H2866 H 0.11131 0.48715 0.15236 0.0
H2867 H 0.12981 0.45639 0.13597 0.0
H2868 H 0.19917 0.458 0.1267 0.0
H2869 H 0.20066 0.49444 0.14271 0.0
C2870 C 0.16626 0.51823 0.15578 0.0
C2871 C 0.1467 0.52855 0.16131 0.0
C2872 C 0.16598 0.49664 0.14823 0.0
C2873 C 0.12712 0.51693 0.16052 0.0
C2874 C 0.12674 0.49555 0.15332 0.0
C2875 C 0.14529 0.46465 0.13755 0.0
C2876 C 0.16429 0.45473 0.12988 0.0
C2877 C 0.14596 0.48546 0.14661 0.0
C2878 C 0.18429 0.46542 0.13242 0.0
C2879 C 0.18513 0.48626 0.1415 0.0
H2880 H 0.15145 0.49356 0.31923 0.0
H2881 H 0.19729 0.46359 0.36264 0.0
H2882 H 0.20744 0.49928 0.37709 0.0
H2883 H 0.19858 0.53813 0.38149 0.0
H2884 H 0.149 0.56679 0.34129 0.0
H2885 H 0.1451 0.53279 0.32119 0.0
C2886 C 0.16422 0.49503 0.33129 0.0
C2887 C 0.17391 0.47622 0.3397 0.0
C2888 C 0.16896 0.51539 0.34032 0.0
C2889 C 0.18994 0.47802 0.35578 0.0
C2890 C 0.19554 0.49837 0.36416 0.0
C2891 C 0.18739 0.53699 0.36793 0.0
C2892 C 0.17407 0.55477 0.36279 0.0
C2893 C 0.18451 0.51706 0.35718 0.0
C2894 C 0.15932 0.55317 0.34549 0.0
C2895 C 0.15707 0.53376 0.33406 0.0
H2896 H 0.81209 0.95236 0.3764 0.0
H2897 H 0.86301 0.9292 0.33439 0.0
H2898 H 0.86562 0.96493 0.31724 0.0
H2899 H 0.85673 0.00372 0.31752 0.0
H2900 H 0.80903 0.02806 0.36245 0.0
H2901 H 0.80155 0.99102 0.37504 0.0
C2902 C 0.82335 0.9551 0.36313 0.0
C2903 C 0.83731 0.93832 0.35655 0.0
C2904 C 0.82542 0.97595 0.35405 0.0
C2905 C 0.85217 0.94201 0.33968 0.0
C2906 C 0.85368 0.9624 0.32993 0.0
C2907 C 0.84427 0.00077 0.32963 0.0
C2908 C 0.83322 0.0184 0.33891 0.0
C2909 C 0.84087 0.97964 0.33743 0.0
C2910 C 0.81754 0.0146 0.35501 0.0
C2911 C 0.81339 0.99348 0.36226 0.0
H2912 H 0.35883 0.48695 0.68353 0.0
H2913 H 0.30794 0.46324 0.64187 0.0
H2914 H 0.29996 0.50041 0.62995 0.0
H2915 H 0.31064 0.53895 0.62812 0.0
H2916 H 0.3645 0.5616 0.66662 0.0
H2917 H 0.36808 0.52572 0.68333 0.0
C2918 C 0.34562 0.49009 0.67229 0.0
C2919 C 0.33375 0.47261 0.66374 0.0
C2920 C 0.34189 0.51128 0.66481 0.0
C2921 C 0.31707 0.4766 0.64875 0.0
C2922 C 0.31263 0.49778 0.64188 0.0
C2923 C 0.32282 0.53607 0.64052 0.0
C2924 C 0.33729 0.55275 0.64622 0.0
C2925 C 0.32537 0.51517 0.64932 0.0
C2926 C 0.35328 0.54887 0.66199 0.0
C2927 C 0.35533 0.5284 0.67149 0.0
H2928 H 0.85556 0.80902 0.47723 0.0
H2929 H 0.83004 0.87348 0.48633 0.0
H2930 H 0.83938 0.87219 0.52489 0.0
H2931 H 0.85786 0.85412 0.55506 0.0
H2932 H 0.88275 0.78926 0.54693 0.0
H2933 H 0.87041 0.78904 0.50906 0.0
C2934 C 0.85177 0.82252 0.48786 0.0
C2935 C 0.84226 0.84134 0.47921 0.0
C2936 C 0.8572 0.82163 0.51005 0.0
C2937 C 0.83737 0.85887 0.49287 0.0
C2938 C 0.84276 0.85816 0.51483 0.0
C2939 C 0.86034 0.83985 0.54504 0.0
C2940 C 0.87139 0.82185 0.55357 0.0
C2941 C 0.85316 0.83986 0.52345 0.0
C2942 C 0.87425 0.80331 0.54063 0.0
C2943 C 0.86731 0.80324 0.51897 0.0
H2944 H 0.15994 0.61679 0.49958 0.0
H2945 H 0.16568 0.68485 0.4848 0.0
H2946 H 0.15232 0.69407 0.52132 0.0
H2947 H 0.13627 0.68228 0.55649 0.0
H2948 H 0.13104 0.61366 0.57007 0.0
H2949 H 0.14702 0.60517 0.53509 0.0
C2950 C 0.1584 0.63365 0.50448 0.0
C2951 C 0.16346 0.65015 0.48964 0.0
C2952 C 0.15069 0.63869 0.52523 0.0
C2953 C 0.16178 0.67193 0.49608 0.0
C2954 C 0.15406 0.67715 0.51687 0.0
C2955 C 0.13885 0.66551 0.55184 0.0
C2956 C 0.13217 0.64865 0.56581 0.0
C2957 C 0.14804 0.66063 0.53146 0.0
C2958 C 0.13576 0.62698 0.5596 0.0
C2959 C 0.14492 0.62206 0.53956 0.0
H2960 H 0.83537 0.15651 0.94101 0.0
H2961 H 0.88115 0.20729 0.95567 0.0
H2962 H 0.86949 0.20719 0.99373 0.0
H2963 H 0.84966 0.18888 0.02363 0.0
H2964 H 0.80284 0.13923 0.00826 0.0
H2965 H 0.81127 0.14272 0.96963 0.0
C2966 C 0.84236 0.1679 0.95249 0.0
C2967 C 0.85913 0.18175 0.94578 0.0
C2968 C 0.83553 0.16776 0.9742 0.0
C2969 C 0.86809 0.19657 0.96058 0.0
C2970 C 0.86157 0.19637 0.98234 0.0
C2971 C 0.841 0.17929 0.01168 0.0
C2972 C 0.82574 0.16382 0.01857 0.0
C2973 C 0.84583 0.1815 0.98947 0.0
C2974 C 0.81454 0.15135 0.00314 0.0
C2975 C 0.81945 0.15323 0.98112 0.0
H2976 H 0.14667 0.36525 0.94104 0.0
H2977 H 0.11782 0.30182 0.94787 0.0
H2978 H 0.12855 0.30074 0.98609 0.0
H2979 H 0.14279 0.31974 0.01862 0.0
H2980 H 0.17175 0.38293 0.01123 0.0
H2981 H 0.16456 0.38221 0.97219 0.0
C2982 C 0.14296 0.35108 0.95084 0.0
C2983 C 0.13122 0.3338 0.94178 0.0
C2984 C 0.14914 0.3506 0.97274 0.0
C2985 C 0.1268 0.31539 0.95453 0.0
C2986 C 0.13283 0.31479 0.97641 0.0
C2987 C 0.14787 0.33304 0.00826 0.0
C2988 C 0.15772 0.35135 0.01749 0.0
C2989 C 0.14352 0.33255 0.98584 0.0
C2990 C 0.1642 0.36868 0.0042 0.0
C2991 C 0.16 0.36831 0.98198 0.0
H2992 H 0.47148 0.84663 0.81175 0.0
H2993 H 0.4869 0.79962 0.86118 0.0
H2994 H 0.52532 0.80943 0.85912 0.0
H2995 H 0.5536 0.83478 0.84643 0.0
H2996 H 0.53873 0.88018 0.7953 0.0
H2997 H 0.5011 0.86748 0.79449 0.0
C2998 C 0.48342 0.83819 0.82157 0.0
C2999 C 0.47657 0.82256 0.83665 0.0
C3000 C 0.50548 0.84379 0.82012 0.0
C3001 C 0.492 0.81164 0.8494 0.0
C3002 C 0.51389 0.81736 0.84834 0.0
C3003 C 0.54216 0.84153 0.83485 0.0
C3004 C 0.54868 0.85848 0.82113 0.0
C3005 C 0.52069 0.83392 0.83427 0.0
C3006 C 0.53395 0.86705 0.80598 0.0
C3007 C 0.51243 0.85989 0.80561 0.0
H3008 H 0.50963 0.67069 0.83474 0.0
H3009 H 0.54311 0.61034 0.82249 0.0
H3010 H 0.50848 0.59202 0.81687 0.0
H3011 H 0.46877 0.59212 0.82043 0.0
H3012 H 0.43499 0.65229 0.83137 0.0
H3013 H 0.46969 0.67194 0.83208 0.0
C3014 C 0.50943 0.6537 0.83016 0.0
C3015 C 0.52897 0.64181 0.82951 0.0
C3016 C 0.48941 0.64323 0.82692 0.0
C3017 C 0.5283 0.61975 0.82365 0.0
C3018 C 0.50851 0.60926 0.82039 0.0
C3019 C 0.46909 0.60962 0.82241 0.0
C3020 C 0.44964 0.62087 0.82591 0.0
C3021 C 0.48899 0.62065 0.8228 0.0
C3022 C 0.44994 0.64347 0.82851 0.0
C3023 C 0.46974 0.65461 0.82906 0.0
H3024 H 0.54884 0.12156 0.69525 0.0
H3025 H 0.57124 0.16467 0.6449 0.0
H3026 H 0.53561 0.1821 0.64343 0.0
H3027 H 0.49685 0.18094 0.65217 0.0
H3028 H 0.47315 0.1348 0.69908 0.0
H3029 H 0.51038 0.12281 0.70652 0.0
C3030 C 0.546 0.1352 0.68447 0.0
C3031 C 0.56251 0.14197 0.67027 0.0
C3032 C 0.52513 0.14437 0.68294 0.0
C3033 C 0.55867 0.1593 0.65598 0.0
C3034 C 0.53831 0.16918 0.65508 0.0
C3035 C 0.49996 0.16878 0.66454 0.0
C3036 C 0.48242 0.15886 0.67522 0.0
C3037 C 0.52121 0.16128 0.66787 0.0
C3038 C 0.4865 0.14271 0.6908 0.0
C3039 C 0.50774 0.13578 0.69492 0.0
H3040 H 0.44878 0.36634 0.62866 0.0
H3041 H 0.44705 0.35688 0.69804 0.0
H3042 H 0.48477 0.34421 0.69742 0.0
H3043 H 0.5192 0.33813 0.67713 0.0
H3044 H 0.52002 0.34884 0.6079 0.0
H3045 H 0.48177 0.3587 0.60851 0.0
C3046 C 0.45654 0.36137 0.64367 0.0
C3047 C 0.44515 0.36272 0.66337 0.0
C3048 C 0.4782 0.3545 0.64323 0.0
C3049 C 0.45547 0.35605 0.68263 0.0
C3050 C 0.47707 0.34888 0.6823 0.0
C3051 C 0.51088 0.34252 0.66224 0.0
C3052 C 0.52247 0.34321 0.64258 0.0
C3053 C 0.48875 0.3484 0.66271 0.0
C3054 C 0.51153 0.34872 0.62332 0.0
C3055 C 0.48964 0.35425 0.62361 0.0
H3056 H 0.81333 0.48206 0.84975 0.0
H3057 H 0.86526 0.49293 0.80413 0.0
H3058 H 0.86375 0.53194 0.81109 0.0
H3059 H 0.85104 0.56208 0.83396 0.0
H3060 H 0.79794 0.55194 0.87831 0.0
H3061 H 0.7961 0.51358 0.86783 0.0
C3062 C 0.82384 0.49313 0.84096 0.0
C3063 C 0.83942 0.48481 0.82656 0.0
C3064 C 0.82276 0.51556 0.84495 0.0
C3065 C 0.85306 0.49912 0.8152 0.0
C3066 C 0.85231 0.52137 0.81928 0.0
C3067 C 0.83873 0.55152 0.84086 0.0
C3068 C 0.82475 0.55954 0.85692 0.0
C3069 C 0.83773 0.52965 0.83466 0.0
C3070 C 0.80875 0.54597 0.86579 0.0
C3071 C 0.80785 0.52405 0.85994 0.0
H3072 H 0.8224 0.43577 0.63157 0.0
H3073 H 0.89074 0.42788 0.61783 0.0
H3074 H 0.89785 0.46453 0.63046 0.0
H3075 H 0.88481 0.49932 0.64385 0.0
H3076 H 0.81691 0.50827 0.65805 0.0
H3077 H 0.80947 0.47064 0.64705 0.0
C3078 C 0.83884 0.44205 0.63148 0.0
C3079 C 0.85596 0.42912 0.62356 0.0
C3080 C 0.8429 0.46333 0.63877 0.0
C3081 C 0.87721 0.43746 0.62368 0.0
C3082 C 0.88134 0.45846 0.6309 0.0
C3083 C 0.86835 0.49304 0.64444 0.0
C3084 C 0.85135 0.50655 0.65133 0.0
C3085 C 0.8643 0.47161 0.63815 0.0
C3086 C 0.83021 0.49812 0.65265 0.0
C3087 C 0.82598 0.47668 0.64632 0.0
H3088 H 0.18517 0.97309 0.65256 0.0
H3089 H 0.13436 0.98734 0.6985 0.0
H3090 H 0.13631 0.02587 0.68923 0.0
H3091 H 0.14923 0.05459 0.6646 0.0
H3092 H 0.20105 0.04079 0.61964 0.0
H3093 H 0.20222 0.00311 0.63211 0.0
C3094 C 0.17498 0.98479 0.66089 0.0
C3095 C 0.15966 0.97752 0.67613 0.0
C3096 C 0.1762 0.00691 0.65546 0.0
C3097 C 0.14644 0.99268 0.68687 0.0
C3098 C 0.1474 0.01466 0.68142 0.0
C3099 C 0.16102 0.04338 0.65785 0.0
C3100 C 0.17483 0.05027 0.64108 0.0
C3101 C 0.16171 0.02183 0.66523 0.0
C3102 C 0.19026 0.03579 0.6326 0.0
C3103 C 0.19085 0.01422 0.63963 0.0
H3104 H 0.68198 0.52284 0.33589 0.0
H3105 H 0.6162 0.5309 0.35856 0.0
H3106 H 0.61617 0.49412 0.37297 0.0
H3107 H 0.63502 0.46044 0.38064 0.0
H3108 H 0.70105 0.4514 0.35911 0.0
H3109 H 0.70078 0.48765 0.34264 0.0
C3110 C 0.66768 0.51639 0.34389 0.0
C3111 C 0.64926 0.52962 0.34652 0.0
C3112 C 0.66782 0.49513 0.35239 0.0
C3113 C 0.63072 0.52113 0.35678 0.0
C3114 C 0.63065 0.50009 0.36494 0.0
C3115 C 0.64938 0.46629 0.37229 0.0
C3116 C 0.66806 0.45328 0.37125 0.0
C3117 C 0.64917 0.48708 0.36312 0.0
C3118 C 0.68645 0.46113 0.36022 0.0
C3119 C 0.68632 0.48187 0.35082 0.0
H3120 H 0.66372 0.65261 0.93396 0.0
H3121 H 0.6181 0.70467 0.94384 0.0
H3122 H 0.62932 0.70763 0.98192 0.0
H3123 H 0.64892 0.69199 0.01341 0.0
H3124 H 0.69562 0.64097 0.00272 0.0
H3125 H 0.68748 0.64116 0.96392 0.0
C3126 C 0.65661 0.66489 0.94439 0.0
C3127 C 0.64003 0.67827 0.93634 0.0
C3128 C 0.66326 0.66657 0.96612 0.0
C3129 C 0.63099 0.69428 0.94979 0.0
C3130 C 0.63727 0.69584 0.97157 0.0
C3131 C 0.65764 0.68135 0.00242 0.0
C3132 C 0.6728 0.6665 0.01079 0.0
C3133 C 0.65292 0.68161 0.98007 0.0
C3134 C 0.68404 0.6527 0.99653 0.0
C3135 C 0.67926 0.65267 0.9744 0.0
H3136 H 0.33767 0.81479 0.01833 0.0
H3137 H 0.37148 0.87552 0.02712 0.0
H3138 H 0.38317 0.87496 0.98942 0.0
H3139 H 0.38402 0.85752 0.9541 0.0
H3140 H 0.35176 0.79616 0.94446 0.0
H3141 H 0.33907 0.79672 0.98223 0.0
C3142 C 0.34766 0.8278 0.01192 0.0
C3143 C 0.35398 0.84499 0.02558 0.0
C3144 C 0.35447 0.82736 0.99008 0.0
C3145 C 0.36683 0.86184 0.0171 0.0
C3146 C 0.37337 0.86165 0.99548 0.0
C3147 C 0.37407 0.84431 0.96016 0.0
C3148 C 0.36871 0.82691 0.94648 0.0
C3149 C 0.3673 0.84453 0.98186 0.0
C3150 C 0.35607 0.80977 0.95471 0.0
C3151 C 0.34885 0.81008 0.97629 0.0
H3152 H 0.6692 0.34109 0.55577 0.0
H3153 H 0.61737 0.29665 0.54071 0.0
H3154 H 0.62778 0.29706 0.50231 0.0
H3155 H 0.64783 0.31518 0.47253 0.0
H3156 H 0.70047 0.35853 0.48801 0.0
H3157 H 0.69394 0.35319 0.52682 0.0
C3158 C 0.66065 0.33103 0.54411 0.0
C3159 C 0.6425 0.31903 0.5508 0.0
C3160 C 0.66679 0.33131 0.52219 0.0
C3161 C 0.63149 0.30592 0.53578 0.0
C3162 C 0.63732 0.30631 0.51384 0.0
C3163 C 0.65829 0.32278 0.48449 0.0
C3164 C 0.67455 0.3372 0.47766 0.0
C3165 C 0.65439 0.31964 0.50675 0.0
C3166 C 0.68799 0.3472 0.49308 0.0
C3167 C 0.68413 0.34432 0.51522 0.0
H3168 H 0.36933 0.18347 0.55524 0.0
H3169 H 0.38628 0.1155 0.55875 0.0
H3170 H 0.37286 0.10995 0.52211 0.0
H3171 H 0.35735 0.12422 0.4887 0.0
H3172 H 0.33951 0.19169 0.48422 0.0
H3173 H 0.35208 0.19763 0.52165 0.0
C3174 C 0.36997 0.16745 0.548 0.0
C3175 C 0.37895 0.14997 0.55972 0.0
C3176 C 0.36217 0.16429 0.52673 0.0
C3177 C 0.37956 0.12928 0.55014 0.0
C3178 C 0.37191 0.12605 0.52913 0.0
C3179 C 0.35639 0.14028 0.49587 0.0
C3180 C 0.34797 0.15761 0.48369 0.0
C3181 C 0.36344 0.14345 0.51722 0.0
C3182 C 0.34615 0.17818 0.49332 0.0
C3183 C 0.35333 0.18154 0.51466 0.0
H3184 H 0.95491 0.61867 0.693 0.0
H3185 H 0.9328 0.65611 0.63816 0.0
H3186 H 0.96747 0.67545 0.63693 0.0
H3187 H 0.00572 0.67748 0.64777 0.0
H3188 H 0.02939 0.63675 0.69946 0.0
H3189 H 0.99255 0.6231 0.70597 0.0
C3190 C 0.95757 0.63149 0.6812 0.0
C3191 C 0.94149 0.63605 0.66569 0.0
C3192 C 0.97792 0.64175 0.67995 0.0
C3193 C 0.94509 0.65236 0.65019 0.0
C3194 C 0.96489 0.66335 0.64946 0.0
C3195 C 0.0026 0.66616 0.66092 0.0
C3196 C 0.02002 0.65825 0.67332 0.0
C3197 C 0.98168 0.65761 0.66373 0.0
C3198 C 0.01606 0.64314 0.68991 0.0
C3199 C 0.99507 0.63525 0.69349 0.0
H3200 H 0.9847 0.84709 0.63111 0.0
H3201 H 0.97713 0.82777 0.69786 0.0
H3202 H 0.01446 0.83979 0.70575 0.0
H3203 H 0.04878 0.85719 0.69345 0.0
H3204 H 0.05539 0.87521 0.62594 0.0
H3205 H 0.01897 0.86218 0.61854 0.0
C3206 C 0.99125 0.84562 0.64742 0.0
C3207 C 0.97825 0.83703 0.66401 0.0
C3208 C 0.01253 0.85227 0.65164 0.0
C3209 C 0.98692 0.83459 0.68494 0.0
C3210 C 0.00819 0.84145 0.6894 0.0
C3211 C 0.04228 0.85811 0.67712 0.0
C3212 C 0.0548 0.86736 0.66034 0.0
C3213 C 0.02111 0.85051 0.67287 0.0
C3214 C 0.04616 0.86831 0.63923 0.0
C3215 C 0.02527 0.86089 0.63493 0.0
H3216 H 0.95313 0.37875 0.81113 0.0
H3217 H 0.93439 0.34762 0.87101 0.0
H3218 H 0.9701 0.33043 0.87358 0.0
H3219 H 0.00769 0.32718 0.86069 0.0
H3220 H 0.02778 0.36136 0.80311 0.0
H3221 H 0.99048 0.37432 0.79745 0.0
C3222 C 0.9568 0.36792 0.82454 0.0
C3223 C 0.94125 0.36443 0.84088 0.0
C3224 C 0.97761 0.35875 0.82629 0.0
C3225 C 0.94621 0.35062 0.85833 0.0
C3226 C 0.96659 0.3408 0.85979 0.0
C3227 C 0.00367 0.33706 0.84665 0.0
C3228 C 0.02012 0.34311 0.83209 0.0
C3229 C 0.98254 0.34514 0.84414 0.0
C3230 C 0.01513 0.35635 0.81427 0.0
C3231 C 0.99391 0.36383 0.81116 0.0
H3232 H 0.05261 0.12712 0.87192 0.0
H3233 H 0.05564 0.1374 0.80269 0.0
H3234 H 0.0187 0.15215 0.80309 0.0
H3235 H 0.98455 0.1601 0.82312 0.0
H3236 H 0.9823 0.14862 0.89218 0.0
H3237 H 0.01989 0.1364 0.89183 0.0
C3238 C 0.0453 0.1327 0.85689 0.0
C3239 C 0.05681 0.13101 0.8373 0.0
C3240 C 0.02407 0.14081 0.8572 0.0
C3241 C 0.04709 0.13846 0.81802 0.0
C3242 C 0.02594 0.14685 0.81822 0.0
C3243 C 0.99242 0.15501 0.83803 0.0
C3244 C 0.98062 0.15482 0.85756 0.0
C3245 C 0.01412 0.14778 0.8377 0.0
C3246 C 0.99095 0.14838 0.87686 0.0
C3247 C 0.01246 0.14151 0.87671 0.0
H3248 H 0.68104 0.01089 0.65297 0.0
H3249 H 0.61289 0.01466 0.63716 0.0
H3250 H 0.61326 0.97717 0.62475 0.0
H3251 H 0.63288 0.9439 0.61711 0.0
H3252 H 0.70128 0.93931 0.63154 0.0
H3253 H 0.70086 0.97641 0.64593 0.0
C3254 C 0.66633 0.00339 0.64686 0.0
C3255 C 0.64706 0.01559 0.64563 0.0
C3256 C 0.66668 0.98172 0.63952 0.0
C3257 C 0.62803 0.00572 0.63781 0.0
C3258 C 0.62818 0.98425 0.63083 0.0
C3259 C 0.64772 0.95089 0.62351 0.0
C3260 C 0.66708 0.93886 0.62319 0.0
C3261 C 0.64743 0.9722 0.63139 0.0
C3262 C 0.68614 0.94826 0.63156 0.0
C3263 C 0.68592 0.96948 0.63976 0.0
H3264 H 0.64119 0.05884 0.83911 0.0
H3265 H 0.69567 0.04344 0.88018 0.0
H3266 H 0.69501 0.00574 0.86742 0.0
H3267 H 0.67569 0.97628 0.84792 0.0
H3268 H 0.62234 0.99242 0.80566 0.0
H3269 H 0.62584 0.03081 0.81524 0.0
C3270 C 0.65316 0.04727 0.84489 0.0
C3271 C 0.66829 0.05365 0.86066 0.0
C3272 C 0.65275 0.0258 0.83736 0.0
C3273 C 0.68392 0.03876 0.86796 0.0
C3274 C 0.68343 0.01722 0.86079 0.0
C3275 C 0.66527 0.98838 0.84048 0.0
C3276 C 0.64877 0.98179 0.82622 0.0
C3277 C 0.66749 0.01041 0.84599 0.0
C3278 C 0.6352 0.99735 0.81661 0.0
C3279 C 0.63712 0.01921 0.82218 0.0
H3280 H 0.31521 0.43815 0.86805 0.0
H3281 H 0.38097 0.43389 0.89213 0.0
H3282 H 0.38751 0.47138 0.88192 0.0
H3283 H 0.37491 0.50546 0.86645 0.0
H3284 H 0.31008 0.51053 0.84071 0.0
H3285 H 0.30279 0.47269 0.85121 0.0
C3286 C 0.33096 0.44545 0.87099 0.0
C3287 C 0.34753 0.43318 0.88091 0.0
C3288 C 0.33475 0.46719 0.86489 0.0
C3289 C 0.3679 0.44285 0.8845 0.0
C3290 C 0.37168 0.46436 0.87873 0.0
C3291 C 0.35908 0.49835 0.86338 0.0
C3292 C 0.34289 0.51079 0.85325 0.0
C3293 C 0.35524 0.47668 0.86905 0.0
C3294 C 0.32269 0.50124 0.84871 0.0
C3295 C 0.31857 0.47965 0.85468 0.0
H3296 H 0.80202 0.04522 0.1193 0.0
H3297 H 0.85208 0.0717 0.16035 0.0
H3298 H 0.85654 0.03653 0.17828 0.0
H3299 H 0.84988 0.99739 0.17854 0.0
H3300 H 0.80327 0.96971 0.13437 0.0
H3301 H 0.79346 0.0061 0.12147 0.0
C3302 C 0.81347 0.04329 0.13255 0.0
C3303 C 0.82668 0.06082 0.13866 0.0
C3304 C 0.81665 0.02277 0.14201 0.0
C3305 C 0.84181 0.05827 0.15549 0.0
C3306 C 0.84438 0.03821 0.16566 0.0
C3307 C 0.83711 0.99944 0.16656 0.0
C3308 C 0.8271 0.98108 0.15752 0.0
C3309 C 0.83241 0.0202 0.15855 0.0
C3310 C 0.81102 0.98374 0.1416 0.0
C3311 C 0.80553 0.00449 0.13417 0.0
H3312 H 0.3172 0.34633 0.99201 0.0
H3313 H 0.35738 0.29193 0.97439 0.0
H3314 H 0.36936 0.28817 0.01223 0.0
H3315 H 0.37212 0.30379 0.04909 0.0
H3316 H 0.33555 0.36138 0.06464 0.0
H3317 H 0.3181 0.36039 0.02908 0.0
C3318 C 0.32802 0.33322 0.99667 0.0
C3319 C 0.33617 0.31917 0.98071 0.0
C3320 C 0.33569 0.33201 0.01803 0.0
C3321 C 0.35073 0.30267 0.98661 0.0
C3322 C 0.35769 0.30068 0.00815 0.0
C3323 C 0.36001 0.31582 0.04474 0.0
C3324 C 0.35504 0.33262 0.05933 0.0
C3325 C 0.35086 0.31575 0.02384 0.0
C3326 C 0.33961 0.34836 0.05357 0.0
C3327 C 0.32968 0.34782 0.03324 0.0
H3328 H 0.61289 0.13594 0.04802 0.0
H3329 H 0.63069 0.20352 0.05247 0.0
H3330 H 0.64648 0.20193 0.01598 0.0
H3331 H 0.65409 0.18129 0.98207 0.0
H3332 H 0.63519 0.11397 0.97851 0.0
H3333 H 0.62109 0.11548 0.0154 0.0
C3334 C 0.62027 0.15035 0.04111 0.0
C3335 C 0.62052 0.16982 0.05293 0.0
C3336 C 0.62909 0.14936 0.02019 0.0
C3337 C 0.63022 0.18831 0.04367 0.0
C3338 C 0.63925 0.18742 0.0228 0.0
C3339 C 0.64696 0.16702 0.98951 0.0
C3340 C 0.64535 0.14766 0.97756 0.0
C3341 C 0.63862 0.16805 0.01081 0.0
C3342 C 0.6362 0.12917 0.98731 0.0
C3343 C 0.62821 0.12998 0.00841 0.0
H3344 H 0.35361 0.64458 0.4466 0.0
H3345 H 0.38 0.70759 0.46165 0.0
H3346 H 0.366 0.70481 0.49882 0.0
H3347 H 0.3495 0.68246 0.52809 0.0
H3348 H 0.32203 0.62017 0.51215 0.0
H3349 H 0.33305 0.6246 0.47424 0.0
C3350 C 0.35601 0.65782 0.45796 0.0
C3351 C 0.368 0.67613 0.45158 0.0
C3352 C 0.34783 0.65614 0.47915 0.0
C3353 C 0.37078 0.69334 0.46626 0.0
C3354 C 0.36291 0.69168 0.48753 0.0
C3355 C 0.3456 0.67016 0.51612 0.0
C3356 C 0.33504 0.65104 0.52267 0.0
C3357 C 0.35189 0.6729 0.49432 0.0
C3358 C 0.33006 0.63505 0.50725 0.0
C3359 C 0.33644 0.63753 0.48567 0.0
H3360 H 0.62833 0.8104 0.44735 0.0
H3361 H 0.66883 0.86418 0.42831 0.0
H3362 H 0.68634 0.86408 0.46397 0.0
H3363 H 0.68625 0.85221 0.50195 0.0
H3364 H 0.64239 0.80182 0.52255 0.0
H3365 H 0.63019 0.7967 0.48496 0.0
C3366 C 0.6414 0.82167 0.45092 0.0
C3367 C 0.64743 0.83723 0.43538 0.0
C3368 C 0.65059 0.82218 0.4718 0.0
C3369 C 0.664 0.8521 0.44016 0.0
C3370 C 0.67394 0.85207 0.46052 0.0
C3371 C 0.67452 0.83966 0.49801 0.0
C3372 C 0.66539 0.82716 0.51473 0.0
C3373 C 0.66684 0.83768 0.47667 0.0
C3374 C 0.64975 0.81138 0.50975 0.0
C3375 C 0.6427 0.8086 0.48834 0.0
H3376 H 0.04894 0.36459 0.31049 0.0
H3377 H 0.04727 0.39758 0.37236 0.0
H3378 H 0.01007 0.38604 0.37796 0.0
H3379 H 0.97814 0.36645 0.36598 0.0
H3380 H 0.97873 0.33184 0.30523 0.0
H3381 H 0.0162 0.34399 0.29852 0.0
C3382 C 0.04037 0.36923 0.32514 0.0
C3383 C 0.05093 0.38195 0.34096 0.0
C3384 C 0.0188 0.36229 0.32847 0.0
C3385 C 0.03966 0.38773 0.35994 0.0
C3386 C 0.01831 0.38119 0.36319 0.0
C3387 C 0.98634 0.36182 0.35108 0.0
C3388 C 0.97561 0.34867 0.3359 0.0
C3389 C 0.00775 0.36852 0.34761 0.0
C3390 C 0.98666 0.34216 0.31705 0.0
C3391 C 0.00804 0.34909 0.31325 0.0
H3392 H 0.00346 0.1784 0.35736 0.0
H3393 H 0.02992 0.13701 0.30766 0.0
H3394 H 0.99357 0.12267 0.29986 0.0
H3395 H 0.95506 0.11886 0.31038 0.0
H3396 H 0.92992 0.15744 0.36305 0.0
H3397 H 0.96476 0.17614 0.36644 0.0
C3398 C 0.00108 0.16668 0.34442 0.0
C3399 C 0.01911 0.15892 0.33286 0.0
C3400 C 0.98041 0.15783 0.34082 0.0
C3401 C 0.01611 0.14331 0.31655 0.0
C3402 C 0.9954 0.13504 0.31222 0.0
C3403 C 0.95717 0.13166 0.32229 0.0
C3404 C 0.94008 0.1368 0.33649 0.0
C3405 C 0.97753 0.14172 0.3247 0.0
C3406 C 0.94297 0.15316 0.35207 0.0
C3407 C 0.96286 0.16384 0.354 0.0
H3408 H 0.97788 0.65493 0.18891 0.0
H3409 H 0.99073 0.70546 0.14225 0.0
H3410 H 0.0298 0.69973 0.14622 0.0
H3411 H 0.05977 0.67657 0.15892 0.0
H3412 H 0.04727 0.62701 0.20672 0.0
H3413 H 0.00866 0.63632 0.20675 0.0
C3414 C 0.98934 0.66505 0.18016 0.0
C3415 C 0.98166 0.68052 0.16532 0.0
C3416 C 0.01177 0.66168 0.18257 0.0
C3417 C 0.99646 0.69358 0.15391 0.0
C3418 C 0.01874 0.69018 0.15603 0.0
C3419 C 0.04861 0.66823 0.16971 0.0
C3420 C 0.05614 0.65103 0.18259 0.0
C3421 C 0.02652 0.67374 0.16971 0.0
C3422 C 0.04174 0.64037 0.1967 0.0
C3423 C 0.01966 0.64556 0.19659 0.0
H3424 H 0.01148 0.83532 0.14358 0.0
H3425 H 0.02756 0.86709 0.20371 0.0
H3426 H 0.99008 0.88029 0.20706 0.0
H3427 H 0.95398 0.88603 0.1906 0.0
H3428 H 0.9396 0.85737 0.12836 0.0
H3429 H 0.97506 0.83958 0.12803 0.0
C3430 C 0.00651 0.84464 0.15769 0.0
C3431 C 0.02191 0.84997 0.17362 0.0
C3432 C 0.98537 0.85299 0.15887 0.0
C3433 C 0.01571 0.86257 0.19152 0.0
C3434 C 0.9944 0.87024 0.19329 0.0
C3435 C 0.95856 0.87565 0.17714 0.0
C3436 C 0.94433 0.87308 0.15947 0.0
C3437 C 0.97927 0.86606 0.17674 0.0
C3438 C 0.95043 0.85976 0.14202 0.0
C3439 C 0.97065 0.84955 0.14185 0.0
H3440 H 0.34387 0.06527 0.33843 0.0
H3441 H 0.29425 0.05299 0.38621 0.0
H3442 H 0.2927 0.01484 0.37526 0.0
H3443 H 0.30984 0.98407 0.35608 0.0
H3444 H 0.35864 0.9967 0.30758 0.0
H3445 H 0.35592 0.03569 0.31445 0.0
C3446 C 0.33237 0.05429 0.34603 0.0
C3447 C 0.31941 0.06169 0.36323 0.0
C3448 C 0.33154 0.03247 0.3396 0.0
C3449 C 0.30436 0.04755 0.37289 0.0
C3450 C 0.30359 0.02573 0.36675 0.0
C3451 C 0.31929 0.99551 0.34658 0.0
C3452 C 0.3344 0.98773 0.33141 0.0
C3453 C 0.31769 0.01786 0.3507 0.0
C3454 C 0.34674 0.00249 0.31918 0.0
C3455 C 0.34536 0.02472 0.32326 0.0
H3456 H 0.31971 0.01367 0.16681 0.0
H3457 H 0.37697 0.02627 0.12827 0.0
H3458 H 0.37711 0.98906 0.11561 0.0
H3459 H 0.36209 0.95284 0.11604 0.0
H3460 H 0.3048 0.93867 0.15371 0.0
H3461 H 0.30372 0.9765 0.16637 0.0
C3462 C 0.33209 0.00824 0.15554 0.0
C3463 C 0.34807 0.02294 0.14825 0.0
C3464 C 0.33227 0.98651 0.14837 0.0
C3465 C 0.36408 0.01561 0.1337 0.0
C3466 C 0.36437 0.9942 0.12662 0.0
C3467 C 0.34937 0.95791 0.12713 0.0
C3468 C 0.33369 0.94293 0.13412 0.0
C3469 C 0.3487 0.97952 0.13397 0.0
C3470 C 0.31714 0.94992 0.14818 0.0
C3471 C 0.31651 0.97153 0.15538 0.0
H3472 H 0.67218 0.49231 0.15956 0.0
H3473 H 0.60858 0.48487 0.13107 0.0
H3474 H 0.6108 0.5211 0.11559 0.0
H3475 H 0.63061 0.55466 0.10976 0.0
H3476 H 0.69449 0.56292 0.13729 0.0
H3477 H 0.69229 0.52674 0.1537 0.0
C3478 C 0.65888 0.4987 0.14996 0.0
C3479 C 0.64042 0.4858 0.14616 0.0
C3480 C 0.66024 0.51969 0.14102 0.0
C3481 C 0.6232 0.49426 0.13377 0.0
C3482 C 0.62436 0.51505 0.12505 0.0
C3483 C 0.64404 0.54864 0.11944 0.0
C3484 C 0.66265 0.56145 0.12232 0.0
C3485 C 0.64279 0.52785 0.1285 0.0
C3486 C 0.67996 0.55333 0.13481 0.0
C3487 C 0.67872 0.53265 0.14417 0.0
H3488 H 0.15127 0.9405 0.84625 0.0
H3489 H 0.20185 0.95398 0.89263 0.0
H3490 H 0.20363 0.99173 0.88012 0.0
H3491 H 0.18722 0.02188 0.85909 0.0
H3492 H 0.13788 0.00757 0.81157 0.0
H3493 H 0.13934 0.96911 0.82109 0.0
C3494 C 0.16298 0.95165 0.85323 0.0
C3495 C 0.17626 0.94472 0.87039 0.0
C3496 C 0.16402 0.97316 0.84583 0.0
C3497 C 0.19155 0.95908 0.8793 0.0
C3498 C 0.19244 0.98066 0.87227 0.0
C3499 C 0.17725 0.01017 0.85051 0.0
C3500 C 0.16246 0.0174 0.83472 0.0
C3501 C 0.17827 0.98804 0.85601 0.0
C3502 C 0.14952 0.00225 0.82365 0.0
C3503 C 0.15022 0.98031 0.82921 0.0
loop_
_geom_bond_atom_site_label_1
_geom_bond_atom_site_label_2
_geom_bond_distance
_geom_bond_site_symmetry_2
_ccdc_geom_bond_type
C0 C1 1.351 . S
C0 N3 1.368 . S
C0 H5 0.931 . S
C1 C0 1.351 . S
C1 N2 1.373 . S
C1 H29 0.930 . S
N2 C1 1.373 . S
N2 C4 1.340 . S
N3 C0 1.368 . S
N3 C4 1.321 . S
N3 Co6 2.135 . S
C4 N2 1.340 . S
C4 N3 1.321 . S
C4 H28 0.930 . S
H5 C0 0.931 . S
Co6 N3 2.135 . S
Co6 N9 2.121 . S
Co6 O14 2.055 . S
Co6 O17 2.039 . S
Co6 N20 2.140 . S
C7 O8 1.227 . S
C7 O17 1.265 . S
O8 C7 1.227 . S
N9 Co6 2.121 . S
N9 C11 1.375 . S
N9 C12 1.313 . S
C10 C11 1.338 . S
C10 N13 1.377 . S
C10 H30 0.930 . S
C11 N9 1.375 . S
C11 C10 1.338 . S
C11 H15 0.931 . S
C12 N9 1.313 . S
C12 N13 1.344 . S
C12 H16 0.930 . S
N13 C10 1.377 . S
N13 C12 1.344 . S
O14 Co6 2.055 . S
O14 C18 1.253 . S
H15 C11 0.931 . S
H16 C12 0.930 . S
O17 Co6 2.039 . S
O17 C7 1.265 . S
C18 O14 1.253 . S
C18 O19 1.227 . S
O19 C18 1.227 . S
N20 Co6 2.140 . S
N20 C23 1.346 . S
N20 C24 1.345 . S
C21 C22 1.387 . S
C21 C25 1.391 . S
C22 C21 1.387 . S
C22 C23 1.369 . S
C22 H31 0.929 . S
C23 N20 1.346 . S
C23 C22 1.369 . S
C23 H26 0.928 . S
C24 N20 1.345 . S
C24 C25 1.371 . S
C24 H27 0.931 . S
C25 C21 1.391 . S
C25 C24 1.371 . S
C25 H32 0.930 . S
H26 C23 0.928 . S
H27 C24 0.931 . S
H28 C4 0.930 . S
H29 C1 0.930 . S
H30 C10 0.930 . S
H31 C22 0.929 . S
H32 C25 0.930 . S
C33 C34 1.351 . S
C33 N36 1.368 . S
C33 H38 0.931 . S
C34 C33 1.351 . S
C34 N35 1.373 . S
C34 H62 0.930 . S
N35 C34 1.373 . S
N35 C37 1.340 . S
N36 C33 1.368 . S
N36 C37 1.321 . S
N36 Co39 2.135 . S
C37 N35 1.340 . S
C37 N36 1.321 . S
C37 H61 0.930 . S
H38 C33 0.931 . S
Co39 N36 2.135 . S
Co39 N42 2.121 . S
Co39 O47 2.055 . S
Co39 O50 2.039 . S
Co39 N53 2.140 . S
C40 O41 1.227 . S
C40 O50 1.265 . S
O41 C40 1.227 . S
N42 Co39 2.121 . S
N42 C44 1.375 . S
N42 C45 1.313 . S
C43 C44 1.338 . S
C43 N46 1.377 . S
C43 H63 0.930 . S
C44 N42 1.375 . S
C44 C43 1.338 . S
C44 H48 0.931 . S
C45 N42 1.313 . S
C45 N46 1.344 . S
C45 H49 0.930 . S
N46 C43 1.377 . S
N46 C45 1.344 . S
O47 Co39 2.055 . S
O47 C51 1.253 . S
H48 C44 0.931 . S
H49 C45 0.930 . S
O50 Co39 2.039 . S
O50 C40 1.265 . S
C51 O47 1.253 . S
C51 O52 1.227 . S
O52 C51 1.227 . S
N53 Co39 2.140 . S
N53 C56 1.346 . S
N53 C57 1.345 . S
C54 C55 1.387 . S
C54 C58 1.391 . S
C55 C54 1.387 . S
C55 C56 1.369 . S
C55 H64 0.929 . S
C56 N53 1.346 . S
C56 C55 1.369 . S
C56 H59 0.928 . S
C57 N53 1.345 . S
C57 C58 1.371 . S
C57 H60 0.931 . S
C58 C54 1.391 . S
C58 C57 1.371 . S
C58 H65 0.930 . S
H59 C56 0.928 . S
H60 C57 0.931 . S
H61 C37 0.930 . S
H62 C34 0.930 . S
H63 C43 0.930 . S
H64 C55 0.929 . S
H65 C58 0.930 . S
C66 C67 1.351 . S
C66 N69 1.368 . S
C66 H71 0.931 . S
C67 C66 1.351 . S
C67 N68 1.373 . S
C67 H95 0.930 . S
N68 C67 1.373 . S
N68 C70 1.340 . S
N69 C66 1.368 . S
N69 C70 1.321 . S
N69 Co72 2.135 . S
C70 N68 1.340 . S
C70 N69 1.321 . S
C70 H94 0.930 . S
H71 C66 0.931 . S
Co72 N69 2.135 . S
Co72 N75 2.121 . S
Co72 O80 2.055 . S
Co72 O83 2.039 . S
Co72 N86 2.140 . S
C73 O74 1.227 . S
C73 O83 1.265 . S
O74 C73 1.227 . S
N75 Co72 2.121 . S
N75 C77 1.375 . S
N75 C78 1.313 . S
C76 C77 1.338 . S
C76 N79 1.377 . S
C76 H96 0.930 . S
C77 N75 1.375 . S
C77 C76 1.338 . S
C77 H81 0.931 . S
C78 N75 1.313 . S
C78 N79 1.344 . S
C78 H82 0.930 . S
N79 C76 1.377 . S
N79 C78 1.344 . S
O80 Co72 2.055 . S
O80 C84 1.253 . S
H81 C77 0.931 . S
H82 C78 0.930 . S
O83 Co72 2.039 . S
O83 C73 1.265 . S
C84 O80 1.253 . S
C84 O85 1.227 . S
O85 C84 1.227 . S
N86 Co72 2.140 . S
N86 C89 1.346 . S
N86 C90 1.345 . S
C87 C88 1.387 . S
C87 C91 1.391 . S
C88 C87 1.387 . S
C88 C89 1.369 . S
C88 H97 0.929 . S
C89 N86 1.346 . S
C89 C88 1.369 . S
C89 H92 0.928 . S
C90 N86 1.345 . S
C90 C91 1.371 . S
C90 H93 0.931 . S
C91 C87 1.391 . S
C91 C90 1.371 . S
C91 H98 0.930 . S
H92 C89 0.928 . S
H93 C90 0.931 . S
H94 C70 0.930 . S
H95 C67 0.930 . S
H96 C76 0.930 . S
H97 C88 0.929 . S
H98 C91 0.930 . S
C99 C100 1.351 . S
C99 N102 1.368 . S
C99 H104 0.931 . S
C100 C99 1.351 . S
C100 N101 1.373 . S
C100 H128 0.930 . S
N101 C100 1.373 . S
N101 C103 1.340 . S
N102 C99 1.368 . S
N102 C103 1.321 . S
N102 Co105 2.135 . S
C103 N101 1.340 . S
C103 N102 1.321 . S
C103 H127 0.930 . S
H104 C99 0.931 . S
Co105 N102 2.135 . S
Co105 N108 2.121 . S
Co105 O113 2.055 . S
Co105 O116 2.039 . S
Co105 N119 2.140 . S
C106 O107 1.227 . S
C106 O116 1.265 . S
O107 C106 1.227 . S
N108 Co105 2.121 . S
N108 C110 1.375 . S
N108 C111 1.313 . S
C109 C110 1.338 . S
C109 N112 1.377 . S
C109 H129 0.930 . S
C110 N108 1.375 . S
C110 C109 1.338 . S
C110 H114 0.931 . S
C111 N108 1.313 . S
C111 N112 1.344 . S
C111 H115 0.930 . S
N112 C109 1.377 . S
N112 C111 1.344 . S
O113 Co105 2.055 . S
O113 C117 1.253 . S
H114 C110 0.931 . S
H115 C111 0.930 . S
O116 Co105 2.039 . S
O116 C106 1.265 . S
C117 O113 1.253 . S
C117 O118 1.227 . S
O118 C117 1.227 . S
N119 Co105 2.140 . S
N119 C122 1.346 . S
N119 C123 1.345 . S
C120 C121 1.387 . S
C120 C124 1.391 . S
C121 C120 1.387 . S
C121 C122 1.369 . S
C121 H130 0.929 . S
C122 N119 1.346 . S
C122 C121 1.369 . S
C122 H125 0.928 . S
C123 N119 1.345 . S
C123 C124 1.371 . S
C123 H126 0.931 . S
C124 C120 1.391 . S
C124 C123 1.371 . S
C124 H131 0.930 . S
H125 C122 0.928 . S
H126 C123 0.931 . S
H127 C103 0.930 . S
H128 C100 0.930 . S
H129 C109 0.930 . S
H130 C121 0.929 . S
H131 C124 0.930 . S
C132 C133 1.351 . S
C132 N135 1.368 . S
C132 H137 0.931 . S
C133 C132 1.351 . S
C133 N134 1.373 . S
C133 H161 0.930 . S
N134 C133 1.373 . S
N134 C136 1.340 . S
N135 C132 1.368 . S
N135 C136 1.321 . S
N135 Co138 2.135 . S
C136 N134 1.340 . S
C136 N135 1.321 . S
C136 H160 0.930 . S
H137 C132 0.931 . S
Co138 N135 2.135 . S
Co138 N141 2.121 . S
Co138 O146 2.055 . S
Co138 O149 2.039 . S
Co138 N152 2.140 . S
C139 O140 1.227 . S
C139 O149 1.265 . S
O140 C139 1.227 . S
N141 Co138 2.121 . S
N141 C143 1.375 . S
N141 C144 1.313 . S
C142 C143 1.338 . S
C142 N145 1.377 . S
C142 H162 0.930 . S
C143 N141 1.375 . S
C143 C142 1.338 . S
C143 H147 0.931 . S
C144 N141 1.313 . S
C144 N145 1.344 . S
C144 H148 0.930 . S
N145 C142 1.377 . S
N145 C144 1.344 . S
O146 Co138 2.055 . S
O146 C150 1.253 . S
H147 C143 0.931 . S
H148 C144 0.930 . S
O149 Co138 2.039 . S
O149 C139 1.265 . S
C150 O146 1.253 . S
C150 O151 1.227 . S
O151 C150 1.227 . S
N152 Co138 2.140 . S
N152 C155 1.346 . S
N152 C156 1.345 . S
C153 C154 1.387 . S
C153 C157 1.391 . S
C154 C153 1.387 . S
C154 C155 1.369 . S
C154 H163 0.929 . S
C155 N152 1.346 . S
C155 C154 1.369 . S
C155 H158 0.928 . S
C156 N152 1.345 . S
C156 C157 1.371 . S
C156 H159 0.931 . S
C157 C153 1.391 . S
C157 C156 1.371 . S
C157 H164 0.930 . S
H158 C155 0.928 . S
H159 C156 0.931 . S
H160 C136 0.930 . S
H161 C133 0.930 . S
H162 C142 0.930 . S
H163 C154 0.929 . S
H164 C157 0.930 . S
C165 C166 1.351 . S
C165 N168 1.368 . S
C165 H170 0.931 . S
C166 C165 1.351 . S
C166 N167 1.373 . S
C166 H194 0.930 . S
N167 C166 1.373 . S
N167 C169 1.340 . S
N168 C165 1.368 . S
N168 C169 1.321 . S
N168 Co171 2.135 . S
C169 N167 1.340 . S
C169 N168 1.321 . S
C169 H193 0.930 . S
H170 C165 0.931 . S
Co171 N168 2.135 . S
Co171 N174 2.121 . S
Co171 O179 2.055 . S
Co171 O182 2.039 . S
Co171 N185 2.140 . S
C172 O173 1.227 . S
C172 O182 1.265 . S
O173 C172 1.227 . S
N174 Co171 2.121 . S
N174 C176 1.375 . S
N174 C177 1.313 . S
C175 C176 1.338 . S
C175 N178 1.377 . S
C175 H195 0.930 . S
C176 N174 1.375 . S
C176 C175 1.338 . S
C176 H180 0.931 . S
C177 N174 1.313 . S
C177 N178 1.344 . S
C177 H181 0.930 . S
N178 C175 1.377 . S
N178 C177 1.344 . S
O179 Co171 2.055 . S
O179 C183 1.253 . S
H180 C176 0.931 . S
H181 C177 0.930 . S
O182 Co171 2.039 . S
O182 C172 1.265 . S
C183 O179 1.253 . S
C183 O184 1.227 . S
O184 C183 1.227 . S
N185 Co171 2.140 . S
N185 C188 1.346 . S
N185 C189 1.345 . S
C186 C187 1.387 . S
C186 C190 1.391 . S
C187 C186 1.387 . S
C187 C188 1.369 . S
C187 H196 0.929 . S
C188 N185 1.346 . S
C188 C187 1.369 . S
C188 H191 0.928 . S
C189 N185 1.345 . S
C189 C190 1.371 . S
C189 H192 0.931 . S
C190 C186 1.391 . S
C190 C189 1.371 . S
C190 H197 0.930 . S
H191 C188 0.928 . S
H192 C189 0.931 . S
H193 C169 0.930 . S
H194 C166 0.930 . S
H195 C175 0.930 . S
H196 C187 0.929 . S
H197 C190 0.930 . S
C198 C199 1.351 . S
C198 N201 1.368 . S
C198 H203 0.931 . S
C199 C198 1.351 . S
C199 N200 1.373 . S
C199 H227 0.930 . S
N200 C199 1.373 . S
N200 C202 1.340 . S
N201 C198 1.368 . S
N201 C202 1.321 . S
N201 Co204 2.135 . S
C202 N200 1.340 . S
C202 N201 1.321 . S
C202 H226 0.930 . S
H203 C198 0.931 . S
Co204 N201 2.135 . S
Co204 N207 2.121 . S
Co204 O212 2.055 . S
Co204 O215 2.039 . S
Co204 N218 2.140 . S
C205 O206 1.227 . S
C205 O215 1.265 . S
O206 C205 1.227 . S
N207 Co204 2.121 . S
N207 C209 1.375 . S
N207 C210 1.313 . S
C208 C209 1.338 . S
C208 N211 1.377 . S
C208 H228 0.930 . S
C209 N207 1.375 . S
C209 C208 1.338 . S
C209 H213 0.931 . S
C210 N207 1.313 . S
C210 N211 1.344 . S
C210 H214 0.930 . S
N211 C208 1.377 . S
N211 C210 1.344 . S
O212 Co204 2.055 . S
O212 C216 1.253 . S
H213 C209 0.931 . S
H214 C210 0.930 . S
O215 Co204 2.039 . S
O215 C205 1.265 . S
C216 O212 1.253 . S
C216 O217 1.227 . S
O217 C216 1.227 . S
N218 Co204 2.140 . S
N218 C221 1.346 . S
N218 C222 1.345 . S
C219 C220 1.387 . S
C219 C223 1.391 . S
C220 C219 1.387 . S
C220 C221 1.369 . S
C220 H229 0.929 . S
C221 N218 1.346 . S
C221 C220 1.369 . S
C221 H224 0.928 . S
C222 N218 1.345 . S
C222 C223 1.371 . S
C222 H225 0.931 . S
C223 C219 1.391 . S
C223 C222 1.371 . S
C223 H230 0.930 . S
H224 C221 0.928 . S
H225 C222 0.931 . S
H226 C202 0.930 . S
H227 C199 0.930 . S
H228 C208 0.930 . S
H229 C220 0.929 . S
H230 C223 0.930 . S
C231 C232 1.351 . S
C231 N234 1.368 . S
C231 H236 0.931 . S
C232 C231 1.351 . S
C232 N233 1.373 . S
C232 H260 0.930 . S
N233 C232 1.373 . S
N233 C235 1.340 . S
N234 C231 1.368 . S
N234 C235 1.321 . S
N234 Co237 2.135 . S
C235 N233 1.340 . S
C235 N234 1.321 . S
C235 H259 0.930 . S
H236 C231 0.931 . S
Co237 N234 2.135 . S
Co237 N240 2.121 . S
Co237 O245 2.055 . S
Co237 O248 2.039 . S
Co237 N251 2.140 . S
C238 O239 1.227 . S
C238 O248 1.265 . S
O239 C238 1.227 . S
N240 Co237 2.121 . S
N240 C242 1.375 . S
N240 C243 1.313 . S
C241 C242 1.338 . S
C241 N244 1.377 . S
C241 H261 0.930 . S
C242 N240 1.375 . S
C242 C241 1.338 . S
C242 H246 0.931 . S
C243 N240 1.313 . S
C243 N244 1.344 . S
C243 H247 0.930 . S
N244 C241 1.377 . S
N244 C243 1.344 . S
O245 Co237 2.055 . S
O245 C249 1.253 . S
H246 C242 0.931 . S
H247 C243 0.930 . S
O248 Co237 2.039 . S
O248 C238 1.265 . S
C249 O245 1.253 . S
C249 O250 1.227 . S
O250 C249 1.227 . S
N251 Co237 2.140 . S
N251 C254 1.346 . S
N251 C255 1.345 . S
C252 C253 1.387 . S
C252 C256 1.391 . S
C253 C252 1.387 . S
C253 C254 1.369 . S
C253 H262 0.929 . S
C254 N251 1.346 . S
C254 C253 1.369 . S
C254 H257 0.928 . S
C255 N251 1.345 . S
C255 C256 1.371 . S
C255 H258 0.931 . S
C256 C252 1.391 . S
C256 C255 1.371 . S
C256 H263 0.930 . S
H257 C254 0.928 . S
H258 C255 0.931 . S
H259 C235 0.930 . S
H260 C232 0.930 . S
H261 C241 0.930 . S
H262 C253 0.929 . S
H263 C256 0.930 . S
C264 C265 1.351 . S
C264 N267 1.368 . S
C264 H269 0.931 . S
C265 C264 1.351 . S
C265 N266 1.373 . S
C265 H293 0.930 . S
N266 C265 1.373 . S
N266 C268 1.340 . S
N267 C264 1.368 . S
N267 C268 1.321 . S
N267 Co270 2.135 . S
C268 N266 1.340 . S
C268 N267 1.321 . S
C268 H292 0.930 . S
H269 C264 0.931 . S
Co270 N267 2.135 . S
Co270 N273 2.121 . S
Co270 O278 2.055 . S
Co270 O281 2.039 . S
Co270 N284 2.140 . S
C271 O272 1.227 . S
C271 O281 1.265 . S
O272 C271 1.227 . S
N273 Co270 2.121 . S
N273 C275 1.375 . S
N273 C276 1.313 . S
C274 C275 1.338 . S
C274 N277 1.377 . S
C274 H294 0.930 . S
C275 N273 1.375 . S
C275 C274 1.338 . S
C275 H279 0.931 . S
C276 N273 1.313 . S
C276 N277 1.344 . S
C276 H280 0.930 . S
N277 C274 1.377 . S
N277 C276 1.344 . S
O278 Co270 2.055 . S
O278 C282 1.253 . S
H279 C275 0.931 . S
H280 C276 0.930 . S
O281 Co270 2.039 . S
O281 C271 1.265 . S
C282 O278 1.253 . S
C282 O283 1.227 . S
O283 C282 1.227 . S
N284 Co270 2.140 . S
N284 C287 1.346 . S
N284 C288 1.345 . S
C285 C286 1.387 . S
C285 C289 1.391 . S
C286 C285 1.387 . S
C286 C287 1.369 . S
C286 H295 0.929 . S
C287 N284 1.346 . S
C287 C286 1.369 . S
C287 H290 0.928 . S
C288 N284 1.345 . S
C288 C289 1.371 . S
C288 H291 0.931 . S
C289 C285 1.391 . S
C289 C288 1.371 . S
C289 H296 0.930 . S
H290 C287 0.928 . S
H291 C288 0.931 . S
H292 C268 0.930 . S
H293 C265 0.930 . S
H294 C274 0.930 . S
H295 C286 0.929 . S
H296 C289 0.930 . S
C297 C298 1.351 . S
C297 N300 1.368 . S
C297 H302 0.931 . S
C298 C297 1.351 . S
C298 N299 1.373 . S
C298 H326 0.930 . S
N299 C298 1.373 . S
N299 C301 1.340 . S
N300 C297 1.368 . S
N300 C301 1.321 . S
N300 Co303 2.135 . S
C301 N299 1.340 . S
C301 N300 1.321 . S
C301 H325 0.930 . S
H302 C297 0.931 . S
Co303 N300 2.135 . S
Co303 N306 2.121 . S
Co303 O311 2.055 . S
Co303 O314 2.039 . S
Co303 N317 2.140 . S
C304 O305 1.227 . S
C304 O314 1.265 . S
O305 C304 1.227 . S
N306 Co303 2.121 . S
N306 C308 1.375 . S
N306 C309 1.313 . S
C307 C308 1.338 . S
C307 N310 1.377 . S
C307 H327 0.930 . S
C308 N306 1.375 . S
C308 C307 1.338 . S
C308 H312 0.931 . S
C309 N306 1.313 . S
C309 N310 1.344 . S
C309 H313 0.930 . S
N310 C307 1.377 . S
N310 C309 1.344 . S
O311 Co303 2.055 . S
O311 C315 1.253 . S
H312 C308 0.931 . S
H313 C309 0.930 . S
O314 Co303 2.039 . S
O314 C304 1.265 . S
C315 O311 1.253 . S
C315 O316 1.227 . S
O316 C315 1.227 . S
N317 Co303 2.140 . S
N317 C320 1.346 . S
N317 C321 1.345 . S
C318 C319 1.387 . S
C318 C322 1.391 . S
C319 C318 1.387 . S
C319 C320 1.369 . S
C319 H328 0.929 . S
C320 N317 1.346 . S
C320 C319 1.369 . S
C320 H323 0.928 . S
C321 N317 1.345 . S
C321 C322 1.371 . S
C321 H324 0.931 . S
C322 C318 1.391 . S
C322 C321 1.371 . S
C322 H329 0.930 . S
H323 C320 0.928 . S
H324 C321 0.931 . S
H325 C301 0.930 . S
H326 C298 0.930 . S
H327 C307 0.930 . S
H328 C319 0.929 . S
H329 C322 0.930 . S
C330 C331 1.351 . S
C330 N333 1.368 . S
C330 H335 0.931 . S
C331 C330 1.351 . S
C331 N332 1.373 . S
C331 H359 0.930 . S
N332 C331 1.373 . S
N332 C334 1.340 . S
N333 C330 1.368 . S
N333 C334 1.321 . S
N333 Co336 2.135 . S
C334 N332 1.340 . S
C334 N333 1.321 . S
C334 H358 0.930 . S
H335 C330 0.931 . S
Co336 N333 2.135 . S
Co336 N339 2.121 . S
Co336 O344 2.055 . S
Co336 O347 2.039 . S
Co336 N350 2.140 . S
C337 O338 1.227 . S
C337 O347 1.265 . S
O338 C337 1.227 . S
N339 Co336 2.121 . S
N339 C341 1.375 . S
N339 C342 1.313 . S
C340 C341 1.338 . S
C340 N343 1.377 . S
C340 H360 0.930 . S
C341 N339 1.375 . S
C341 C340 1.338 . S
C341 H345 0.931 . S
C342 N339 1.313 . S
C342 N343 1.344 . S
C342 H346 0.930 . S
N343 C340 1.377 . S
N343 C342 1.344 . S
O344 Co336 2.055 . S
O344 C348 1.253 . S
H345 C341 0.931 . S
H346 C342 0.930 . S
O347 Co336 2.039 . S
O347 C337 1.265 . S
C348 O344 1.253 . S
C348 O349 1.227 . S
O349 C348 1.227 . S
N350 Co336 2.140 . S
N350 C353 1.346 . S
N350 C354 1.345 . S
C351 C352 1.387 . S
C351 C355 1.391 . S
C352 C351 1.387 . S
C352 C353 1.369 . S
C352 H361 0.929 . S
C353 N350 1.346 . S
C353 C352 1.369 . S
C353 H356 0.928 . S
C354 N350 1.345 . S
C354 C355 1.371 . S
C354 H357 0.931 . S
C355 C351 1.391 . S
C355 C354 1.371 . S
C355 H362 0.930 . S
H356 C353 0.928 . S
H357 C354 0.931 . S
H358 C334 0.930 . S
H359 C331 0.930 . S
H360 C340 0.930 . S
H361 C352 0.929 . S
H362 C355 0.930 . S
C363 C364 1.351 . S
C363 N366 1.368 . S
C363 H368 0.931 . S
C364 C363 1.351 . S
C364 N365 1.373 . S
C364 H392 0.930 . S
N365 C364 1.373 . S
N365 C367 1.340 . S
N366 C363 1.368 . S
N366 C367 1.321 . S
N366 Co369 2.135 . S
C367 N365 1.340 . S
C367 N366 1.321 . S
C367 H391 0.930 . S
H368 C363 0.931 . S
Co369 N366 2.135 . S
Co369 N372 2.121 . S
Co369 O377 2.055 . S
Co369 O380 2.039 . S
Co369 N383 2.140 . S
C370 O371 1.227 . S
C370 O380 1.265 . S
O371 C370 1.227 . S
N372 Co369 2.121 . S
N372 C374 1.375 . S
N372 C375 1.313 . S
C373 C374 1.338 . S
C373 N376 1.377 . S
C373 H393 0.930 . S
C374 N372 1.375 . S
C374 C373 1.338 . S
C374 H378 0.931 . S
C375 N372 1.313 . S
C375 N376 1.344 . S
C375 H379 0.930 . S
N376 C373 1.377 . S
N376 C375 1.344 . S
O377 Co369 2.055 . S
O377 C381 1.253 . S
H378 C374 0.931 . S
H379 C375 0.930 . S
O380 Co369 2.039 . S
O380 C370 1.265 . S
C381 O377 1.253 . S
C381 O382 1.227 . S
O382 C381 1.227 . S
N383 Co369 2.140 . S
N383 C386 1.346 . S
N383 C387 1.345 . S
C384 C385 1.387 . S
C384 C388 1.391 . S
C385 C384 1.387 . S
C385 C386 1.369 . S
C385 H394 0.929 . S
C386 N383 1.346 . S
C386 C385 1.369 . S
C386 H389 0.928 . S
C387 N383 1.345 . S
C387 C388 1.371 . S
C387 H390 0.931 . S
C388 C384 1.391 . S
C388 C387 1.371 . S
C388 H395 0.930 . S
H389 C386 0.928 . S
H390 C387 0.931 . S
H391 C367 0.930 . S
H392 C364 0.930 . S
H393 C373 0.930 . S
H394 C385 0.929 . S
H395 C388 0.930 . S
C396 C397 1.351 . S
C396 N399 1.368 . S
C396 H401 0.931 . S
C397 C396 1.351 . S
C397 N398 1.373 . S
C397 H425 0.930 . S
N398 C397 1.373 . S
N398 C400 1.340 . S
N399 C396 1.368 . S
N399 C400 1.321 . S
N399 Co402 2.135 . S
C400 N398 1.340 . S
C400 N399 1.321 . S
C400 H424 0.930 . S
H401 C396 0.931 . S
Co402 N399 2.135 . S
Co402 N405 2.121 . S
Co402 O410 2.055 . S
Co402 O413 2.039 . S
Co402 N416 2.140 . S
C403 O404 1.227 . S
C403 O413 1.265 . S
O404 C403 1.227 . S
N405 Co402 2.121 . S
N405 C407 1.375 . S
N405 C408 1.313 . S
C406 C407 1.338 . S
C406 N409 1.377 . S
C406 H426 0.930 . S
C407 N405 1.375 . S
C407 C406 1.338 . S
C407 H411 0.931 . S
C408 N405 1.313 . S
C408 N409 1.344 . S
C408 H412 0.930 . S
N409 C406 1.377 . S
N409 C408 1.344 . S
O410 Co402 2.055 . S
O410 C414 1.253 . S
H411 C407 0.931 . S
H412 C408 0.930 . S
O413 Co402 2.039 . S
O413 C403 1.265 . S
C414 O410 1.253 . S
C414 O415 1.227 . S
O415 C414 1.227 . S
N416 Co402 2.140 . S
N416 C419 1.346 . S
N416 C420 1.345 . S
C417 C418 1.387 . S
C417 C421 1.391 . S
C418 C417 1.387 . S
C418 C419 1.369 . S
C418 H427 0.929 . S
C419 N416 1.346 . S
C419 C418 1.369 . S
C419 H422 0.928 . S
C420 N416 1.345 . S
C420 C421 1.371 . S
C420 H423 0.931 . S
C421 C417 1.391 . S
C421 C420 1.371 . S
C421 H428 0.930 . S
H422 C419 0.928 . S
H423 C420 0.931 . S
H424 C400 0.930 . S
H425 C397 0.930 . S
H426 C406 0.930 . S
H427 C418 0.929 . S
H428 C421 0.930 . S
C429 C430 1.351 . S
C429 N432 1.368 . S
C429 H434 0.931 . S
C430 C429 1.351 . S
C430 N431 1.373 . S
C430 H458 0.930 . S
N431 C430 1.373 . S
N431 C433 1.340 . S
N432 C429 1.368 . S
N432 C433 1.321 . S
N432 Co435 2.135 . S
C433 N431 1.340 . S
C433 N432 1.321 . S
C433 H457 0.930 . S
H434 C429 0.931 . S
Co435 N432 2.135 . S
Co435 N438 2.121 . S
Co435 O443 2.055 . S
Co435 O446 2.039 . S
Co435 N449 2.140 . S
C436 O437 1.227 . S
C436 O446 1.265 . S
O437 C436 1.227 . S
N438 Co435 2.121 . S
N438 C440 1.375 . S
N438 C441 1.313 . S
C439 C440 1.338 . S
C439 N442 1.377 . S
C439 H459 0.930 . S
C440 N438 1.375 . S
C440 C439 1.338 . S
C440 H444 0.931 . S
C441 N438 1.313 . S
C441 N442 1.344 . S
C441 H445 0.930 . S
N442 C439 1.377 . S
N442 C441 1.344 . S
O443 Co435 2.055 . S
O443 C447 1.253 . S
H444 C440 0.931 . S
H445 C441 0.930 . S
O446 Co435 2.039 . S
O446 C436 1.265 . S
C447 O443 1.253 . S
C447 O448 1.227 . S
O448 C447 1.227 . S
N449 Co435 2.140 . S
N449 C452 1.346 . S
N449 C453 1.345 . S
C450 C451 1.387 . S
C450 C454 1.391 . S
C451 C450 1.387 . S
C451 C452 1.369 . S
C451 H460 0.929 . S
C452 N449 1.346 . S
C452 C451 1.369 . S
C452 H455 0.928 . S
C453 N449 1.345 . S
C453 C454 1.371 . S
C453 H456 0.931 . S
C454 C450 1.391 . S
C454 C453 1.371 . S
C454 H461 0.930 . S
H455 C452 0.928 . S
H456 C453 0.931 . S
H457 C433 0.930 . S
H458 C430 0.930 . S
H459 C439 0.930 . S
H460 C451 0.929 . S
H461 C454 0.930 . S
C462 C463 1.351 . S
C462 N465 1.368 . S
C462 H467 0.931 . S
C463 C462 1.351 . S
C463 N464 1.373 . S
C463 H491 0.930 . S
N464 C463 1.373 . S
N464 C466 1.340 . S
N465 C462 1.368 . S
N465 C466 1.321 . S
N465 Co468 2.135 . S
C466 N464 1.340 . S
C466 N465 1.321 . S
C466 H490 0.930 . S
H467 C462 0.931 . S
Co468 N465 2.135 . S
Co468 N471 2.121 . S
Co468 O476 2.055 . S
Co468 O479 2.039 . S
Co468 N482 2.140 . S
C469 O470 1.227 . S
C469 O479 1.265 . S
O470 C469 1.227 . S
N471 Co468 2.121 . S
N471 C473 1.375 . S
N471 C474 1.313 . S
C472 C473 1.338 . S
C472 N475 1.377 . S
C472 H492 0.930 . S
C473 N471 1.375 . S
C473 C472 1.338 . S
C473 H477 0.931 . S
C474 N471 1.313 . S
C474 N475 1.344 . S
C474 H478 0.930 . S
N475 C472 1.377 . S
N475 C474 1.344 . S
O476 Co468 2.055 . S
O476 C480 1.253 . S
H477 C473 0.931 . S
H478 C474 0.930 . S
O479 Co468 2.039 . S
O479 C469 1.265 . S
C480 O476 1.253 . S
C480 O481 1.227 . S
O481 C480 1.227 . S
N482 Co468 2.140 . S
N482 C485 1.346 . S
N482 C486 1.345 . S
C483 C484 1.387 . S
C483 C487 1.391 . S
C484 C483 1.387 . S
C484 C485 1.369 . S
C484 H493 0.929 . S
C485 N482 1.346 . S
C485 C484 1.369 . S
C485 H488 0.928 . S
C486 N482 1.345 . S
C486 C487 1.371 . S
C486 H489 0.931 . S
C487 C483 1.391 . S
C487 C486 1.371 . S
C487 H494 0.930 . S
H488 C485 0.928 . S
H489 C486 0.931 . S
H490 C466 0.930 . S
H491 C463 0.930 . S
H492 C472 0.930 . S
H493 C484 0.929 . S
H494 C487 0.930 . S
C495 C496 1.351 . S
C495 N498 1.368 . S
C495 H500 0.931 . S
C496 C495 1.351 . S
C496 N497 1.373 . S
C496 H524 0.930 . S
N497 C496 1.373 . S
N497 C499 1.340 . S
N498 C495 1.368 . S
N498 C499 1.321 . S
N498 Co501 2.135 . S
C499 N497 1.340 . S
C499 N498 1.321 . S
C499 H523 0.930 . S
H500 C495 0.931 . S
Co501 N498 2.135 . S
Co501 N504 2.121 . S
Co501 O509 2.055 . S
Co501 O512 2.039 . S
Co501 N515 2.140 . S
C502 O503 1.227 . S
C502 O512 1.265 . S
O503 C502 1.227 . S
N504 Co501 2.121 . S
N504 C506 1.375 . S
N504 C507 1.313 . S
C505 C506 1.338 . S
C505 N508 1.377 . S
C505 H525 0.930 . S
C506 N504 1.375 . S
C506 C505 1.338 . S
C506 H510 0.931 . S
C507 N504 1.313 . S
C507 N508 1.344 . S
C507 H511 0.930 . S
N508 C505 1.377 . S
N508 C507 1.344 . S
O509 Co501 2.055 . S
O509 C513 1.253 . S
H510 C506 0.931 . S
H511 C507 0.930 . S
O512 Co501 2.039 . S
O512 C502 1.265 . S
C513 O509 1.253 . S
C513 O514 1.227 . S
O514 C513 1.227 . S
N515 Co501 2.140 . S
N515 C518 1.346 . S
N515 C519 1.345 . S
C516 C517 1.387 . S
C516 C520 1.391 . S
C517 C516 1.387 . S
C517 C518 1.369 . S
C517 H526 0.929 . S
C518 N515 1.346 . S
C518 C517 1.369 . S
C518 H521 0.928 . S
C519 N515 1.345 . S
C519 C520 1.371 . S
C519 H522 0.931 . S
C520 C516 1.391 . S
C520 C519 1.371 . S
C520 H527 0.930 . S
H521 C518 0.928 . S
H522 C519 0.931 . S
H523 C499 0.930 . S
H524 C496 0.930 . S
H525 C505 0.930 . S
H526 C517 0.929 . S
H527 C520 0.930 . S
C528 C529 1.351 . S
C528 N531 1.368 . S
C528 H533 0.931 . S
C529 C528 1.351 . S
C529 N530 1.373 . S
C529 H557 0.930 . S
N530 C529 1.373 . S
N530 C532 1.340 . S
N531 C528 1.368 . S
N531 C532 1.321 . S
N531 Co534 2.135 . S
C532 N530 1.340 . S
C532 N531 1.321 . S
C532 H556 0.930 . S
H533 C528 0.931 . S
Co534 N531 2.135 . S
Co534 N537 2.121 . S
Co534 O542 2.055 . S
Co534 O545 2.039 . S
Co534 N548 2.140 . S
C535 O536 1.227 . S
C535 O545 1.265 . S
O536 C535 1.227 . S
N537 Co534 2.121 . S
N537 C539 1.375 . S
N537 C540 1.313 . S
C538 C539 1.338 . S
C538 N541 1.377 . S
C538 H558 0.930 . S
C539 N537 1.375 . S
C539 C538 1.338 . S
C539 H543 0.931 . S
C540 N537 1.313 . S
C540 N541 1.344 . S
C540 H544 0.930 . S
N541 C538 1.377 . S
N541 C540 1.344 . S
O542 Co534 2.055 . S
O542 C546 1.253 . S
H543 C539 0.931 . S
H544 C540 0.930 . S
O545 Co534 2.039 . S
O545 C535 1.265 . S
C546 O542 1.253 . S
C546 O547 1.227 . S
O547 C546 1.227 . S
N548 Co534 2.140 . S
N548 C551 1.346 . S
N548 C552 1.345 . S
C549 C550 1.387 . S
C549 C553 1.391 . S
C550 C549 1.387 . S
C550 C551 1.369 . S
C550 H559 0.929 . S
C551 N548 1.346 . S
C551 C550 1.369 . S
C551 H554 0.928 . S
C552 N548 1.345 . S
C552 C553 1.371 . S
C552 H555 0.931 . S
C553 C549 1.391 . S
C553 C552 1.371 . S
C553 H560 0.930 . S
H554 C551 0.928 . S
H555 C552 0.931 . S
H556 C532 0.930 . S
H557 C529 0.930 . S
H558 C538 0.930 . S
H559 C550 0.929 . S
H560 C553 0.930 . S
C561 C562 1.351 . S
C561 N564 1.368 . S
C561 H566 0.931 . S
C562 C561 1.351 . S
C562 N563 1.373 . S
C562 H590 0.930 . S
N563 C562 1.373 . S
N563 C565 1.340 . S
N564 C561 1.368 . S
N564 C565 1.321 . S
N564 Co567 2.135 . S
C565 N563 1.340 . S
C565 N564 1.321 . S
C565 H589 0.930 . S
H566 C561 0.931 . S
Co567 N564 2.135 . S
Co567 N570 2.121 . S
Co567 O575 2.055 . S
Co567 O578 2.039 . S
Co567 N581 2.140 . S
C568 O569 1.227 . S
C568 O578 1.265 . S
O569 C568 1.227 . S
N570 Co567 2.121 . S
N570 C572 1.375 . S
N570 C573 1.313 . S
C571 C572 1.338 . S
C571 N574 1.377 . S
C571 H591 0.930 . S
C572 N570 1.375 . S
C572 C571 1.338 . S
C572 H576 0.931 . S
C573 N570 1.313 . S
C573 N574 1.344 . S
C573 H577 0.930 . S
N574 C571 1.377 . S
N574 C573 1.344 . S
O575 Co567 2.055 . S
O575 C579 1.253 . S
H576 C572 0.931 . S
H577 C573 0.930 . S
O578 Co567 2.039 . S
O578 C568 1.265 . S
C579 O575 1.253 . S
C579 O580 1.227 . S
O580 C579 1.227 . S
N581 Co567 2.140 . S
N581 C584 1.346 . S
N581 C585 1.345 . S
C582 C583 1.387 . S
C582 C586 1.391 . S
C583 C582 1.387 . S
C583 C584 1.369 . S
C583 H592 0.929 . S
C584 N581 1.346 . S
C584 C583 1.369 . S
C584 H587 0.928 . S
C585 N581 1.345 . S
C585 C586 1.371 . S
C585 H588 0.931 . S
C586 C582 1.391 . S
C586 C585 1.371 . S
C586 H593 0.930 . S
H587 C584 0.928 . S
H588 C585 0.931 . S
H589 C565 0.930 . S
H590 C562 0.930 . S
H591 C571 0.930 . S
H592 C583 0.929 . S
H593 C586 0.930 . S
C594 C595 1.351 . S
C594 N597 1.368 . S
C594 H599 0.931 . S
C595 C594 1.351 . S
C595 N596 1.373 . S
C595 H623 0.930 . S
N596 C595 1.373 . S
N596 C598 1.340 . S
N597 C594 1.368 . S
N597 C598 1.321 . S
N597 Co600 2.135 . S
C598 N596 1.340 . S
C598 N597 1.321 . S
C598 H622 0.930 . S
H599 C594 0.931 . S
Co600 N597 2.135 . S
Co600 N603 2.121 . S
Co600 O608 2.055 . S
Co600 O611 2.039 . S
Co600 N614 2.140 . S
C601 O602 1.227 . S
C601 O611 1.265 . S
O602 C601 1.227 . S
N603 Co600 2.121 . S
N603 C605 1.375 . S
N603 C606 1.313 . S
C604 C605 1.338 . S
C604 N607 1.377 . S
C604 H624 0.930 . S
C605 N603 1.375 . S
C605 C604 1.338 . S
C605 H609 0.931 . S
C606 N603 1.313 . S
C606 N607 1.344 . S
C606 H610 0.930 . S
N607 C604 1.377 . S
N607 C606 1.344 . S
O608 Co600 2.055 . S
O608 C612 1.253 . S
H609 C605 0.931 . S
H610 C606 0.930 . S
O611 Co600 2.039 . S
O611 C601 1.265 . S
C612 O608 1.253 . S
C612 O613 1.227 . S
O613 C612 1.227 . S
N614 Co600 2.140 . S
N614 C617 1.346 . S
N614 C618 1.345 . S
C615 C616 1.387 . S
C615 C619 1.391 . S
C616 C615 1.387 . S
C616 C617 1.369 . S
C616 H625 0.929 . S
C617 N614 1.346 . S
C617 C616 1.369 . S
C617 H620 0.928 . S
C618 N614 1.345 . S
C618 C619 1.371 . S
C618 H621 0.931 . S
C619 C615 1.391 . S
C619 C618 1.371 . S
C619 H626 0.930 . S
H620 C617 0.928 . S
H621 C618 0.931 . S
H622 C598 0.930 . S
H623 C595 0.930 . S
H624 C604 0.930 . S
H625 C616 0.929 . S
H626 C619 0.930 . S
C627 C628 1.351 . S
C627 N630 1.368 . S
C627 H632 0.931 . S
C628 C627 1.351 . S
C628 N629 1.373 . S
C628 H656 0.930 . S
N629 C628 1.373 . S
N629 C631 1.340 . S
N630 C627 1.368 . S
N630 C631 1.321 . S
N630 Co633 2.135 . S
C631 N629 1.340 . S
C631 N630 1.321 . S
C631 H655 0.930 . S
H632 C627 0.931 . S
Co633 N630 2.135 . S
Co633 N636 2.121 . S
Co633 O641 2.055 . S
Co633 O644 2.039 . S
Co633 N647 2.140 . S
C634 O635 1.227 . S
C634 O644 1.265 . S
O635 C634 1.227 . S
N636 Co633 2.121 . S
N636 C638 1.375 . S
N636 C639 1.313 . S
C637 C638 1.338 . S
C637 N640 1.377 . S
C637 H657 0.930 . S
C638 N636 1.375 . S
C638 C637 1.338 . S
C638 H642 0.931 . S
C639 N636 1.313 . S
C639 N640 1.344 . S
C639 H643 0.930 . S
N640 C637 1.377 . S
N640 C639 1.344 . S
O641 Co633 2.055 . S
O641 C645 1.253 . S
H642 C638 0.931 . S
H643 C639 0.930 . S
O644 Co633 2.039 . S
O644 C634 1.265 . S
C645 O641 1.253 . S
C645 O646 1.227 . S
O646 C645 1.227 . S
N647 Co633 2.140 . S
N647 C650 1.346 . S
N647 C651 1.345 . S
C648 C649 1.387 . S
C648 C652 1.391 . S
C649 C648 1.387 . S
C649 C650 1.369 . S
C649 H658 0.929 . S
C650 N647 1.346 . S
C650 C649 1.369 . S
C650 H653 0.928 . S
C651 N647 1.345 . S
C651 C652 1.371 . S
C651 H654 0.931 . S
C652 C648 1.391 . S
C652 C651 1.371 . S
C652 H659 0.930 . S
H653 C650 0.928 . S
H654 C651 0.931 . S
H655 C631 0.930 . S
H656 C628 0.930 . S
H657 C637 0.930 . S
H658 C649 0.929 . S
H659 C652 0.930 . S
C660 C661 1.351 . S
C660 N663 1.368 . S
C660 H665 0.931 . S
C661 C660 1.351 . S
C661 N662 1.373 . S
C661 H689 0.930 . S
N662 C661 1.373 . S
N662 C664 1.340 . S
N663 C660 1.368 . S
N663 C664 1.321 . S
N663 Co666 2.135 . S
C664 N662 1.340 . S
C664 N663 1.321 . S
C664 H688 0.930 . S
H665 C660 0.931 . S
Co666 N663 2.135 . S
Co666 N669 2.121 . S
Co666 O674 2.055 . S
Co666 O677 2.039 . S
Co666 N680 2.140 . S
C667 O668 1.227 . S
C667 O677 1.265 . S
O668 C667 1.227 . S
N669 Co666 2.121 . S
N669 C671 1.375 . S
N669 C672 1.313 . S
C670 C671 1.338 . S
C670 N673 1.377 . S
C670 H690 0.930 . S
C671 N669 1.375 . S
C671 C670 1.338 . S
C671 H675 0.931 . S
C672 N669 1.313 . S
C672 N673 1.344 . S
C672 H676 0.930 . S
N673 C670 1.377 . S
N673 C672 1.344 . S
O674 Co666 2.055 . S
O674 C678 1.253 . S
H675 C671 0.931 . S
H676 C672 0.930 . S
O677 Co666 2.039 . S
O677 C667 1.265 . S
C678 O674 1.253 . S
C678 O679 1.227 . S
O679 C678 1.227 . S
N680 Co666 2.140 . S
N680 C683 1.346 . S
N680 C684 1.345 . S
C681 C682 1.387 . S
C681 C685 1.391 . S
C682 C681 1.387 . S
C682 C683 1.369 . S
C682 H691 0.929 . S
C683 N680 1.346 . S
C683 C682 1.369 . S
C683 H686 0.928 . S
C684 N680 1.345 . S
C684 C685 1.371 . S
C684 H687 0.931 . S
C685 C681 1.391 . S
C685 C684 1.371 . S
C685 H692 0.930 . S
H686 C683 0.928 . S
H687 C684 0.931 . S
H688 C664 0.930 . S
H689 C661 0.930 . S
H690 C670 0.930 . S
H691 C682 0.929 . S
H692 C685 0.930 . S
C693 C694 1.351 . S
C693 N696 1.368 . S
C693 H698 0.931 . S
C694 C693 1.351 . S
C694 N695 1.373 . S
C694 H722 0.930 . S
N695 C694 1.373 . S
N695 C697 1.340 . S
N696 C693 1.368 . S
N696 C697 1.321 . S
N696 Co699 2.135 . S
C697 N695 1.340 . S
C697 N696 1.321 . S
C697 H721 0.930 . S
H698 C693 0.931 . S
Co699 N696 2.135 . S
Co699 N702 2.121 . S
Co699 O707 2.055 . S
Co699 O710 2.039 . S
Co699 N713 2.140 . S
C700 O701 1.227 . S
C700 O710 1.265 . S
O701 C700 1.227 . S
N702 Co699 2.121 . S
N702 C704 1.375 . S
N702 C705 1.313 . S
C703 C704 1.338 . S
C703 N706 1.377 . S
C703 H723 0.930 . S
C704 N702 1.375 . S
C704 C703 1.338 . S
C704 H708 0.931 . S
C705 N702 1.313 . S
C705 N706 1.344 . S
C705 H709 0.930 . S
N706 C703 1.377 . S
N706 C705 1.344 . S
O707 Co699 2.055 . S
O707 C711 1.253 . S
H708 C704 0.931 . S
H709 C705 0.930 . S
O710 Co699 2.039 . S
O710 C700 1.265 . S
C711 O707 1.253 . S
C711 O712 1.227 . S
O712 C711 1.227 . S
N713 Co699 2.140 . S
N713 C716 1.346 . S
N713 C717 1.345 . S
C714 C715 1.387 . S
C714 C718 1.391 . S
C715 C714 1.387 . S
C715 C716 1.369 . S
C715 H724 0.929 . S
C716 N713 1.346 . S
C716 C715 1.369 . S
C716 H719 0.928 . S
C717 N713 1.345 . S
C717 C718 1.371 . S
C717 H720 0.931 . S
C718 C714 1.391 . S
C718 C717 1.371 . S
C718 H725 0.930 . S
H719 C716 0.928 . S
H720 C717 0.931 . S
H721 C697 0.930 . S
H722 C694 0.930 . S
H723 C703 0.930 . S
H724 C715 0.929 . S
H725 C718 0.930 . S
C726 C727 1.351 . S
C726 N729 1.368 . S
C726 H731 0.931 . S
C727 C726 1.351 . S
C727 N728 1.373 . S
C727 H755 0.930 . S
N728 C727 1.373 . S
N728 C730 1.340 . S
N729 C726 1.368 . S
N729 C730 1.321 . S
N729 Co732 2.135 . S
C730 N728 1.340 . S
C730 N729 1.321 . S
C730 H754 0.930 . S
H731 C726 0.931 . S
Co732 N729 2.135 . S
Co732 N735 2.121 . S
Co732 O740 2.055 . S
Co732 O743 2.039 . S
Co732 N746 2.140 . S
C733 O734 1.227 . S
C733 O743 1.265 . S
O734 C733 1.227 . S
N735 Co732 2.121 . S
N735 C737 1.375 . S
N735 C738 1.313 . S
C736 C737 1.338 . S
C736 N739 1.377 . S
C736 H756 0.930 . S
C737 N735 1.375 . S
C737 C736 1.338 . S
C737 H741 0.931 . S
C738 N735 1.313 . S
C738 N739 1.344 . S
C738 H742 0.930 . S
N739 C736 1.377 . S
N739 C738 1.344 . S
O740 Co732 2.055 . S
O740 C744 1.253 . S
H741 C737 0.931 . S
H742 C738 0.930 . S
O743 Co732 2.039 . S
O743 C733 1.265 . S
C744 O740 1.253 . S
C744 O745 1.227 . S
O745 C744 1.227 . S
N746 Co732 2.140 . S
N746 C749 1.346 . S
N746 C750 1.345 . S
C747 C748 1.387 . S
C747 C751 1.391 . S
C748 C747 1.387 . S
C748 C749 1.369 . S
C748 H757 0.929 . S
C749 N746 1.346 . S
C749 C748 1.369 . S
C749 H752 0.928 . S
C750 N746 1.345 . S
C750 C751 1.371 . S
C750 H753 0.931 . S
C751 C747 1.391 . S
C751 C750 1.371 . S
C751 H758 0.930 . S
H752 C749 0.928 . S
H753 C750 0.931 . S
H754 C730 0.930 . S
H755 C727 0.930 . S
H756 C736 0.930 . S
H757 C748 0.929 . S
H758 C751 0.930 . S
C759 C760 1.351 . S
C759 N762 1.368 . S
C759 H764 0.931 . S
C760 C759 1.351 . S
C760 N761 1.373 . S
C760 H788 0.930 . S
N761 C760 1.373 . S
N761 C763 1.340 . S
N762 C759 1.368 . S
N762 C763 1.321 . S
N762 Co765 2.135 . S
C763 N761 1.340 . S
C763 N762 1.321 . S
C763 H787 0.930 . S
H764 C759 0.931 . S
Co765 N762 2.135 . S
Co765 N768 2.121 . S
Co765 O773 2.055 . S
Co765 O776 2.039 . S
Co765 N779 2.140 . S
C766 O767 1.227 . S
C766 O776 1.265 . S
O767 C766 1.227 . S
N768 Co765 2.121 . S
N768 C770 1.375 . S
N768 C771 1.313 . S
C769 C770 1.338 . S
C769 N772 1.377 . S
C769 H789 0.930 . S
C770 N768 1.375 . S
C770 C769 1.338 . S
C770 H774 0.931 . S
C771 N768 1.313 . S
C771 N772 1.344 . S
C771 H775 0.930 . S
N772 C769 1.377 . S
N772 C771 1.344 . S
O773 Co765 2.055 . S
O773 C777 1.253 . S
H774 C770 0.931 . S
H775 C771 0.930 . S
O776 Co765 2.039 . S
O776 C766 1.265 . S
C777 O773 1.253 . S
C777 O778 1.227 . S
O778 C777 1.227 . S
N779 Co765 2.140 . S
N779 C782 1.346 . S
N779 C783 1.345 . S
C780 C781 1.387 . S
C780 C784 1.391 . S
C781 C780 1.387 . S
C781 C782 1.369 . S
C781 H790 0.929 . S
C782 N779 1.346 . S
C782 C781 1.369 . S
C782 H785 0.928 . S
C783 N779 1.345 . S
C783 C784 1.371 . S
C783 H786 0.931 . S
C784 C780 1.391 . S
C784 C783 1.371 . S
C784 H791 0.930 . S
H785 C782 0.928 . S
H786 C783 0.931 . S
H787 C763 0.930 . S
H788 C760 0.930 . S
H789 C769 0.930 . S
H790 C781 0.929 . S
H791 C784 0.930 . S
C792 C793 1.351 . S
C792 N795 1.368 . S
C792 H797 0.931 . S
C793 C792 1.351 . S
C793 N794 1.373 . S
C793 H821 0.930 . S
N794 C793 1.373 . S
N794 C796 1.340 . S
N795 C792 1.368 . S
N795 C796 1.321 . S
N795 Co798 2.135 . S
C796 N794 1.340 . S
C796 N795 1.321 . S
C796 H820 0.930 . S
H797 C792 0.931 . S
Co798 N795 2.135 . S
Co798 N801 2.121 . S
Co798 O806 2.055 . S
Co798 O809 2.039 . S
Co798 N812 2.140 . S
C799 O800 1.227 . S
C799 O809 1.265 . S
O800 C799 1.227 . S
N801 Co798 2.121 . S
N801 C803 1.375 . S
N801 C804 1.313 . S
C802 C803 1.338 . S
C802 N805 1.377 . S
C802 H822 0.930 . S
C803 N801 1.375 . S
C803 C802 1.338 . S
C803 H807 0.931 . S
C804 N801 1.313 . S
C804 N805 1.344 . S
C804 H808 0.930 . S
N805 C802 1.377 . S
N805 C804 1.344 . S
O806 Co798 2.055 . S
O806 C810 1.253 . S
H807 C803 0.931 . S
H808 C804 0.930 . S
O809 Co798 2.039 . S
O809 C799 1.265 . S
C810 O806 1.253 . S
C810 O811 1.227 . S
O811 C810 1.227 . S
N812 Co798 2.140 . S
N812 C815 1.346 . S
N812 C816 1.345 . S
C813 C814 1.387 . S
C813 C817 1.391 . S
C814 C813 1.387 . S
C814 C815 1.369 . S
C814 H823 0.929 . S
C815 N812 1.346 . S
C815 C814 1.369 . S
C815 H818 0.928 . S
C816 N812 1.345 . S
C816 C817 1.371 . S
C816 H819 0.931 . S
C817 C813 1.391 . S
C817 C816 1.371 . S
C817 H824 0.930 . S
H818 C815 0.928 . S
H819 C816 0.931 . S
H820 C796 0.930 . S
H821 C793 0.930 . S
H822 C802 0.930 . S
H823 C814 0.929 . S
H824 C817 0.930 . S
C825 C826 1.351 . S
C825 N828 1.368 . S
C825 H830 0.931 . S
C826 C825 1.351 . S
C826 N827 1.373 . S
C826 H854 0.930 . S
N827 C826 1.373 . S
N827 C829 1.340 . S
N828 C825 1.368 . S
N828 C829 1.321 . S
N828 Co831 2.135 . S
C829 N827 1.340 . S
C829 N828 1.321 . S
C829 H853 0.930 . S
H830 C825 0.931 . S
Co831 N828 2.135 . S
Co831 N834 2.121 . S
Co831 O839 2.055 . S
Co831 O842 2.039 . S
Co831 N845 2.140 . S
C832 O833 1.227 . S
C832 O842 1.265 . S
O833 C832 1.227 . S
N834 Co831 2.121 . S
N834 C836 1.375 . S
N834 C837 1.313 . S
C835 C836 1.338 . S
C835 N838 1.377 . S
C835 H855 0.930 . S
C836 N834 1.375 . S
C836 C835 1.338 . S
C836 H840 0.931 . S
C837 N834 1.313 . S
C837 N838 1.344 . S
C837 H841 0.930 . S
N838 C835 1.377 . S
N838 C837 1.344 . S
O839 Co831 2.055 . S
O839 C843 1.253 . S
H840 C836 0.931 . S
H841 C837 0.930 . S
O842 Co831 2.039 . S
O842 C832 1.265 . S
C843 O839 1.253 . S
C843 O844 1.227 . S
O844 C843 1.227 . S
N845 Co831 2.140 . S
N845 C848 1.346 . S
N845 C849 1.345 . S
C846 C847 1.387 . S
C846 C850 1.391 . S
C847 C846 1.387 . S
C847 C848 1.369 . S
C847 H856 0.929 . S
C848 N845 1.346 . S
C848 C847 1.369 . S
C848 H851 0.928 . S
C849 N845 1.345 . S
C849 C850 1.371 . S
C849 H852 0.931 . S
C850 C846 1.391 . S
C850 C849 1.371 . S
C850 H857 0.930 . S
H851 C848 0.928 . S
H852 C849 0.931 . S
H853 C829 0.930 . S
H854 C826 0.930 . S
H855 C835 0.930 . S
H856 C847 0.929 . S
H857 C850 0.930 . S
C858 C859 1.351 . S
C858 N861 1.368 . S
C858 H863 0.931 . S
C859 C858 1.351 . S
C859 N860 1.373 . S
C859 H887 0.930 . S
N860 C859 1.373 . S
N860 C862 1.340 . S
N861 C858 1.368 . S
N861 C862 1.321 . S
N861 Co864 2.135 . S
C862 N860 1.340 . S
C862 N861 1.321 . S
C862 H886 0.930 . S
H863 C858 0.931 . S
Co864 N861 2.135 . S
Co864 N867 2.121 . S
Co864 O872 2.055 . S
Co864 O875 2.039 . S
Co864 N878 2.140 . S
C865 O866 1.227 . S
C865 O875 1.265 . S
O866 C865 1.227 . S
N867 Co864 2.121 . S
N867 C869 1.375 . S
N867 C870 1.313 . S
C868 C869 1.338 . S
C868 N871 1.377 . S
C868 H888 0.930 . S
C869 N867 1.375 . S
C869 C868 1.338 . S
C869 H873 0.931 . S
C870 N867 1.313 . S
C870 N871 1.344 . S
C870 H874 0.930 . S
N871 C868 1.377 . S
N871 C870 1.344 . S
O872 Co864 2.055 . S
O872 C876 1.253 . S
H873 C869 0.931 . S
H874 C870 0.930 . S
O875 Co864 2.039 . S
O875 C865 1.265 . S
C876 O872 1.253 . S
C876 O877 1.227 . S
O877 C876 1.227 . S
N878 Co864 2.140 . S
N878 C881 1.346 . S
N878 C882 1.345 . S
C879 C880 1.387 . S
C879 C883 1.391 . S
C880 C879 1.387 . S
C880 C881 1.369 . S
C880 H889 0.929 . S
C881 N878 1.346 . S
C881 C880 1.369 . S
C881 H884 0.928 . S
C882 N878 1.345 . S
C882 C883 1.371 . S
C882 H885 0.931 . S
C883 C879 1.391 . S
C883 C882 1.371 . S
C883 H890 0.930 . S
H884 C881 0.928 . S
H885 C882 0.931 . S
H886 C862 0.930 . S
H887 C859 0.930 . S
H888 C868 0.930 . S
H889 C880 0.929 . S
H890 C883 0.930 . S
C891 C892 1.351 . S
C891 N894 1.368 . S
C891 H896 0.931 . S
C892 C891 1.351 . S
C892 N893 1.373 . S
C892 H920 0.930 . S
N893 C892 1.373 . S
N893 C895 1.340 . S
N894 C891 1.368 . S
N894 C895 1.321 . S
N894 Co897 2.135 . S
C895 N893 1.340 . S
C895 N894 1.321 . S
C895 H919 0.930 . S
H896 C891 0.931 . S
Co897 N894 2.135 . S
Co897 N900 2.121 . S
Co897 O905 2.055 . S
Co897 O908 2.039 . S
Co897 N911 2.140 . S
C898 O899 1.227 . S
C898 O908 1.265 . S
O899 C898 1.227 . S
N900 Co897 2.121 . S
N900 C902 1.375 . S
N900 C903 1.313 . S
C901 C902 1.338 . S
C901 N904 1.377 . S
C901 H921 0.930 . S
C902 N900 1.375 . S
C902 C901 1.338 . S
C902 H906 0.931 . S
C903 N900 1.313 . S
C903 N904 1.344 . S
C903 H907 0.930 . S
N904 C901 1.377 . S
N904 C903 1.344 . S
O905 Co897 2.055 . S
O905 C909 1.253 . S
H906 C902 0.931 . S
H907 C903 0.930 . S
O908 Co897 2.039 . S
O908 C898 1.265 . S
C909 O905 1.253 . S
C909 O910 1.227 . S
O910 C909 1.227 . S
N911 Co897 2.140 . S
N911 C914 1.346 . S
N911 C915 1.345 . S
C912 C913 1.387 . S
C912 C916 1.391 . S
C913 C912 1.387 . S
C913 C914 1.369 . S
C913 H922 0.929 . S
C914 N911 1.346 . S
C914 C913 1.369 . S
C914 H917 0.928 . S
C915 N911 1.345 . S
C915 C916 1.371 . S
C915 H918 0.931 . S
C916 C912 1.391 . S
C916 C915 1.371 . S
C916 H923 0.930 . S
H917 C914 0.928 . S
H918 C915 0.931 . S
H919 C895 0.930 . S
H920 C892 0.930 . S
H921 C901 0.930 . S
H922 C913 0.929 . S
H923 C916 0.930 . S
C924 C925 1.351 . S
C924 N927 1.368 . S
C924 H929 0.931 . S
C925 C924 1.351 . S
C925 N926 1.373 . S
C925 H953 0.930 . S
N926 C925 1.373 . S
N926 C928 1.340 . S
N927 C924 1.368 . S
N927 C928 1.321 . S
N927 Co930 2.135 . S
C928 N926 1.340 . S
C928 N927 1.321 . S
C928 H952 0.930 . S
H929 C924 0.931 . S
Co930 N927 2.135 . S
Co930 N933 2.121 . S
Co930 O938 2.055 . S
Co930 O941 2.039 . S
Co930 N944 2.140 . S
C931 O932 1.227 . S
C931 O941 1.265 . S
O932 C931 1.227 . S
N933 Co930 2.121 . S
N933 C935 1.375 . S
N933 C936 1.313 . S
C934 C935 1.338 . S
C934 N937 1.377 . S
C934 H954 0.930 . S
C935 N933 1.375 . S
C935 C934 1.338 . S
C935 H939 0.931 . S
C936 N933 1.313 . S
C936 N937 1.344 . S
C936 H940 0.930 . S
N937 C934 1.377 . S
N937 C936 1.344 . S
O938 Co930 2.055 . S
O938 C942 1.253 . S
H939 C935 0.931 . S
H940 C936 0.930 . S
O941 Co930 2.039 . S
O941 C931 1.265 . S
C942 O938 1.253 . S
C942 O943 1.227 . S
O943 C942 1.227 . S
N944 Co930 2.140 . S
N944 C947 1.346 . S
N944 C948 1.345 . S
C945 C946 1.387 . S
C945 C949 1.391 . S
C946 C945 1.387 . S
C946 C947 1.369 . S
C946 H955 0.929 . S
C947 N944 1.346 . S
C947 C946 1.369 . S
C947 H950 0.928 . S
C948 N944 1.345 . S
C948 C949 1.371 . S
C948 H951 0.931 . S
C949 C945 1.391 . S
C949 C948 1.371 . S
C949 H956 0.930 . S
H950 C947 0.928 . S
H951 C948 0.931 . S
H952 C928 0.930 . S
H953 C925 0.930 . S
H954 C934 0.930 . S
H955 C946 0.929 . S
H956 C949 0.930 . S
C957 C958 1.351 . S
C957 N960 1.368 . S
C957 H962 0.931 . S
C958 C957 1.351 . S
C958 N959 1.373 . S
C958 H986 0.930 . S
N959 C958 1.373 . S
N959 C961 1.340 . S
N960 C957 1.368 . S
N960 C961 1.321 . S
N960 Co963 2.135 . S
C961 N959 1.340 . S
C961 N960 1.321 . S
C961 H985 0.930 . S
H962 C957 0.931 . S
Co963 N960 2.135 . S
Co963 N966 2.121 . S
Co963 O971 2.055 . S
Co963 O974 2.039 . S
Co963 N977 2.140 . S
C964 O965 1.227 . S
C964 O974 1.265 . S
O965 C964 1.227 . S
N966 Co963 2.121 . S
N966 C968 1.375 . S
N966 C969 1.313 . S
C967 C968 1.338 . S
C967 N970 1.377 . S
C967 H987 0.930 . S
C968 N966 1.375 . S
C968 C967 1.338 . S
C968 H972 0.931 . S
C969 N966 1.313 . S
C969 N970 1.344 . S
C969 H973 0.930 . S
N970 C967 1.377 . S
N970 C969 1.344 . S
O971 Co963 2.055 . S
O971 C975 1.253 . S
H972 C968 0.931 . S
H973 C969 0.930 . S
O974 Co963 2.039 . S
O974 C964 1.265 . S
C975 O971 1.253 . S
C975 O976 1.227 . S
O976 C975 1.227 . S
N977 Co963 2.140 . S
N977 C980 1.346 . S
N977 C981 1.345 . S
C978 C979 1.387 . S
C978 C982 1.391 . S
C979 C978 1.387 . S
C979 C980 1.369 . S
C979 H988 0.929 . S
C980 N977 1.346 . S
C980 C979 1.369 . S
C980 H983 0.928 . S
C981 N977 1.345 . S
C981 C982 1.371 . S
C981 H984 0.931 . S
C982 C978 1.391 . S
C982 C981 1.371 . S
C982 H989 0.930 . S
H983 C980 0.928 . S
H984 C981 0.931 . S
H985 C961 0.930 . S
H986 C958 0.930 . S
H987 C967 0.930 . S
H988 C979 0.929 . S
H989 C982 0.930 . S
C990 C991 1.351 . S
C990 N993 1.368 . S
C990 H995 0.931 . S
C991 C990 1.351 . S
C991 N992 1.373 . S
C991 H1019 0.930 . S
N992 C991 1.373 . S
N992 C994 1.340 . S
N993 C990 1.368 . S
N993 C994 1.321 . S
N993 Co996 2.135 . S
C994 N992 1.340 . S
C994 N993 1.321 . S
C994 H1018 0.930 . S
H995 C990 0.931 . S
Co996 N993 2.135 . S
Co996 N999 2.121 . S
Co996 O1004 2.055 . S
Co996 O1007 2.039 . S
Co996 N1010 2.140 . S
C997 O998 1.227 . S
C997 O1007 1.265 . S
O998 C997 1.227 . S
N999 Co996 2.121 . S
N999 C1001 1.375 . S
N999 C1002 1.313 . S
C1000 C1001 1.338 . S
C1000 N1003 1.377 . S
C1000 H1020 0.930 . S
C1001 N999 1.375 . S
C1001 C1000 1.338 . S
C1001 H1005 0.931 . S
C1002 N999 1.313 . S
C1002 N1003 1.344 . S
C1002 H1006 0.930 . S
N1003 C1000 1.377 . S
N1003 C1002 1.344 . S
O1004 Co996 2.055 . S
O1004 C1008 1.253 . S
H1005 C1001 0.931 . S
H1006 C1002 0.930 . S
O1007 Co996 2.039 . S
O1007 C997 1.265 . S
C1008 O1004 1.253 . S
C1008 O1009 1.227 . S
O1009 C1008 1.227 . S
N1010 Co996 2.140 . S
N1010 C1013 1.346 . S
N1010 C1014 1.345 . S
C1011 C1012 1.387 . S
C1011 C1015 1.391 . S
C1012 C1011 1.387 . S
C1012 C1013 1.369 . S
C1012 H1021 0.929 . S
C1013 N1010 1.346 . S
C1013 C1012 1.369 . S
C1013 H1016 0.928 . S
C1014 N1010 1.345 . S
C1014 C1015 1.371 . S
C1014 H1017 0.931 . S
C1015 C1011 1.391 . S
C1015 C1014 1.371 . S
C1015 H1022 0.930 . S
H1016 C1013 0.928 . S
H1017 C1014 0.931 . S
H1018 C994 0.930 . S
H1019 C991 0.930 . S
H1020 C1000 0.930 . S
H1021 C1012 0.929 . S
H1022 C1015 0.930 . S
C1023 C1024 1.351 . S
C1023 N1026 1.368 . S
C1023 H1028 0.931 . S
C1024 C1023 1.351 . S
C1024 N1025 1.373 . S
C1024 H1052 0.930 . S
N1025 C1024 1.373 . S
N1025 C1027 1.340 . S
N1026 C1023 1.368 . S
N1026 C1027 1.321 . S
N1026 Co1029 2.135 . S
C1027 N1025 1.340 . S
C1027 N1026 1.321 . S
C1027 H1051 0.930 . S
H1028 C1023 0.931 . S
Co1029 N1026 2.135 . S
Co1029 N1032 2.121 . S
Co1029 O1037 2.055 . S
Co1029 O1040 2.039 . S
Co1029 N1043 2.140 . S
C1030 O1031 1.227 . S
C1030 O1040 1.265 . S
O1031 C1030 1.227 . S
N1032 Co1029 2.121 . S
N1032 C1034 1.375 . S
N1032 C1035 1.313 . S
C1033 C1034 1.338 . S
C1033 N1036 1.377 . S
C1033 H1053 0.930 . S
C1034 N1032 1.375 . S
C1034 C1033 1.338 . S
C1034 H1038 0.931 . S
C1035 N1032 1.313 . S
C1035 N1036 1.344 . S
C1035 H1039 0.930 . S
N1036 C1033 1.377 . S
N1036 C1035 1.344 . S
O1037 Co1029 2.055 . S
O1037 C1041 1.253 . S
H1038 C1034 0.931 . S
H1039 C1035 0.930 . S
O1040 Co1029 2.039 . S
O1040 C1030 1.265 . S
C1041 O1037 1.253 . S
C1041 O1042 1.227 . S
O1042 C1041 1.227 . S
N1043 Co1029 2.140 . S
N1043 C1046 1.346 . S
N1043 C1047 1.345 . S
C1044 C1045 1.387 . S
C1044 C1048 1.391 . S
C1045 C1044 1.387 . S
C1045 C1046 1.369 . S
C1045 H1054 0.929 . S
C1046 N1043 1.346 . S
C1046 C1045 1.369 . S
C1046 H1049 0.928 . S
C1047 N1043 1.345 . S
C1047 C1048 1.371 . S
C1047 H1050 0.931 . S
C1048 C1044 1.391 . S
C1048 C1047 1.371 . S
C1048 H1055 0.930 . S
H1049 C1046 0.928 . S
H1050 C1047 0.931 . S
H1051 C1027 0.930 . S
H1052 C1024 0.930 . S
H1053 C1033 0.930 . S
H1054 C1045 0.929 . S
H1055 C1048 0.930 . S
C1056 C1057 1.351 . S
C1056 N1059 1.368 . S
C1056 H1061 0.931 . S
C1057 C1056 1.351 . S
C1057 N1058 1.373 . S
C1057 H1085 0.930 . S
N1058 C1057 1.373 . S
N1058 C1060 1.340 . S
N1059 C1056 1.368 . S
N1059 C1060 1.321 . S
N1059 Co1062 2.135 . S
C1060 N1058 1.340 . S
C1060 N1059 1.321 . S
C1060 H1084 0.930 . S
H1061 C1056 0.931 . S
Co1062 N1059 2.135 . S
Co1062 N1065 2.121 . S
Co1062 O1070 2.055 . S
Co1062 O1073 2.039 . S
Co1062 N1076 2.140 . S
C1063 O1064 1.227 . S
C1063 O1073 1.265 . S
O1064 C1063 1.227 . S
N1065 Co1062 2.121 . S
N1065 C1067 1.375 . S
N1065 C1068 1.313 . S
C1066 C1067 1.338 . S
C1066 N1069 1.377 . S
C1066 H1086 0.930 . S
C1067 N1065 1.375 . S
C1067 C1066 1.338 . S
C1067 H1071 0.931 . S
C1068 N1065 1.313 . S
C1068 N1069 1.344 . S
C1068 H1072 0.930 . S
N1069 C1066 1.377 . S
N1069 C1068 1.344 . S
O1070 Co1062 2.055 . S
O1070 C1074 1.253 . S
H1071 C1067 0.931 . S
H1072 C1068 0.930 . S
O1073 Co1062 2.039 . S
O1073 C1063 1.265 . S
C1074 O1070 1.253 . S
C1074 O1075 1.227 . S
O1075 C1074 1.227 . S
N1076 Co1062 2.140 . S
N1076 C1079 1.346 . S
N1076 C1080 1.345 . S
C1077 C1078 1.387 . S
C1077 C1081 1.391 . S
C1078 C1077 1.387 . S
C1078 C1079 1.369 . S
C1078 H1087 0.929 . S
C1079 N1076 1.346 . S
C1079 C1078 1.369 . S
C1079 H1082 0.928 . S
C1080 N1076 1.345 . S
C1080 C1081 1.371 . S
C1080 H1083 0.931 . S
C1081 C1077 1.391 . S
C1081 C1080 1.371 . S
C1081 H1088 0.930 . S
H1082 C1079 0.928 . S
H1083 C1080 0.931 . S
H1084 C1060 0.930 . S
H1085 C1057 0.930 . S
H1086 C1066 0.930 . S
H1087 C1078 0.929 . S
H1088 C1081 0.930 . S
C1089 C1090 1.351 . S
C1089 N1092 1.368 . S
C1089 H1094 0.931 . S
C1090 C1089 1.351 . S
C1090 N1091 1.373 . S
C1090 H1118 0.930 . S
N1091 C1090 1.373 . S
N1091 C1093 1.340 . S
N1092 C1089 1.368 . S
N1092 C1093 1.321 . S
N1092 Co1095 2.135 . S
C1093 N1091 1.340 . S
C1093 N1092 1.321 . S
C1093 H1117 0.930 . S
H1094 C1089 0.931 . S
Co1095 N1092 2.135 . S
Co1095 N1098 2.121 . S
Co1095 O1103 2.055 . S
Co1095 O1106 2.039 . S
Co1095 N1109 2.140 . S
C1096 O1097 1.227 . S
C1096 O1106 1.265 . S
O1097 C1096 1.227 . S
N1098 Co1095 2.121 . S
N1098 C1100 1.375 . S
N1098 C1101 1.313 . S
C1099 C1100 1.338 . S
C1099 N1102 1.377 . S
C1099 H1119 0.930 . S
C1100 N1098 1.375 . S
C1100 C1099 1.338 . S
C1100 H1104 0.931 . S
C1101 N1098 1.313 . S
C1101 N1102 1.344 . S
C1101 H1105 0.930 . S
N1102 C1099 1.377 . S
N1102 C1101 1.344 . S
O1103 Co1095 2.055 . S
O1103 C1107 1.253 . S
H1104 C1100 0.931 . S
H1105 C1101 0.930 . S
O1106 Co1095 2.039 . S
O1106 C1096 1.265 . S
C1107 O1103 1.253 . S
C1107 O1108 1.227 . S
O1108 C1107 1.227 . S
N1109 Co1095 2.140 . S
N1109 C1112 1.346 . S
N1109 C1113 1.345 . S
C1110 C1111 1.387 . S
C1110 C1114 1.391 . S
C1111 C1110 1.387 . S
C1111 C1112 1.369 . S
C1111 H1120 0.929 . S
C1112 N1109 1.346 . S
C1112 C1111 1.369 . S
C1112 H1115 0.928 . S
C1113 N1109 1.345 . S
C1113 C1114 1.371 . S
C1113 H1116 0.931 . S
C1114 C1110 1.391 . S
C1114 C1113 1.371 . S
C1114 H1121 0.930 . S
H1115 C1112 0.928 . S
H1116 C1113 0.931 . S
H1117 C1093 0.930 . S
H1118 C1090 0.930 . S
H1119 C1099 0.930 . S
H1120 C1111 0.929 . S
H1121 C1114 0.930 . S
C1122 C1123 1.351 . S
C1122 N1125 1.368 . S
C1122 H1127 0.931 . S
C1123 C1122 1.351 . S
C1123 N1124 1.373 . S
C1123 H1151 0.930 . S
N1124 C1123 1.373 . S
N1124 C1126 1.340 . S
N1125 C1122 1.368 . S
N1125 C1126 1.321 . S
N1125 Co1128 2.135 . S
C1126 N1124 1.340 . S
C1126 N1125 1.321 . S
C1126 H1150 0.930 . S
H1127 C1122 0.931 . S
Co1128 N1125 2.135 . S
Co1128 N1131 2.121 . S
Co1128 O1136 2.055 . S
Co1128 O1139 2.039 . S
Co1128 N1142 2.140 . S
C1129 O1130 1.227 . S
C1129 O1139 1.265 . S
O1130 C1129 1.227 . S
N1131 Co1128 2.121 . S
N1131 C1133 1.375 . S
N1131 C1134 1.313 . S
C1132 C1133 1.338 . S
C1132 N1135 1.377 . S
C1132 H1152 0.930 . S
C1133 N1131 1.375 . S
C1133 C1132 1.338 . S
C1133 H1137 0.931 . S
C1134 N1131 1.313 . S
C1134 N1135 1.344 . S
C1134 H1138 0.930 . S
N1135 C1132 1.377 . S
N1135 C1134 1.344 . S
O1136 Co1128 2.055 . S
O1136 C1140 1.253 . S
H1137 C1133 0.931 . S
H1138 C1134 0.930 . S
O1139 Co1128 2.039 . S
O1139 C1129 1.265 . S
C1140 O1136 1.253 . S
C1140 O1141 1.227 . S
O1141 C1140 1.227 . S
N1142 Co1128 2.140 . S
N1142 C1145 1.346 . S
N1142 C1146 1.345 . S
C1143 C1144 1.387 . S
C1143 C1147 1.391 . S
C1144 C1143 1.387 . S
C1144 C1145 1.369 . S
C1144 H1153 0.929 . S
C1145 N1142 1.346 . S
C1145 C1144 1.369 . S
C1145 H1148 0.928 . S
C1146 N1142 1.345 . S
C1146 C1147 1.371 . S
C1146 H1149 0.931 . S
C1147 C1143 1.391 . S
C1147 C1146 1.371 . S
C1147 H1154 0.930 . S
H1148 C1145 0.928 . S
H1149 C1146 0.931 . S
H1150 C1126 0.930 . S
H1151 C1123 0.930 . S
H1152 C1132 0.930 . S
H1153 C1144 0.929 . S
H1154 C1147 0.930 . S
C1155 C1156 1.351 . S
C1155 N1158 1.368 . S
C1155 H1160 0.931 . S
C1156 C1155 1.351 . S
C1156 N1157 1.373 . S
C1156 H1184 0.930 . S
N1157 C1156 1.373 . S
N1157 C1159 1.340 . S
N1158 C1155 1.368 . S
N1158 C1159 1.321 . S
N1158 Co1161 2.135 . S
C1159 N1157 1.340 . S
C1159 N1158 1.321 . S
C1159 H1183 0.930 . S
H1160 C1155 0.931 . S
Co1161 N1158 2.135 . S
Co1161 N1164 2.121 . S
Co1161 O1169 2.055 . S
Co1161 O1172 2.039 . S
Co1161 N1175 2.140 . S
C1162 O1163 1.227 . S
C1162 O1172 1.265 . S
O1163 C1162 1.227 . S
N1164 Co1161 2.121 . S
N1164 C1166 1.375 . S
N1164 C1167 1.313 . S
C1165 C1166 1.338 . S
C1165 N1168 1.377 . S
C1165 H1185 0.930 . S
C1166 N1164 1.375 . S
C1166 C1165 1.338 . S
C1166 H1170 0.931 . S
C1167 N1164 1.313 . S
C1167 N1168 1.344 . S
C1167 H1171 0.930 . S
N1168 C1165 1.377 . S
N1168 C1167 1.344 . S
O1169 Co1161 2.055 . S
O1169 C1173 1.253 . S
H1170 C1166 0.931 . S
H1171 C1167 0.930 . S
O1172 Co1161 2.039 . S
O1172 C1162 1.265 . S
C1173 O1169 1.253 . S
C1173 O1174 1.227 . S
O1174 C1173 1.227 . S
N1175 Co1161 2.140 . S
N1175 C1178 1.346 . S
N1175 C1179 1.345 . S
C1176 C1177 1.387 . S
C1176 C1180 1.391 . S
C1177 C1176 1.387 . S
C1177 C1178 1.369 . S
C1177 H1186 0.929 . S
C1178 N1175 1.346 . S
C1178 C1177 1.369 . S
C1178 H1181 0.928 . S
C1179 N1175 1.345 . S
C1179 C1180 1.371 . S
C1179 H1182 0.931 . S
C1180 C1176 1.391 . S
C1180 C1179 1.371 . S
C1180 H1187 0.930 . S
H1181 C1178 0.928 . S
H1182 C1179 0.931 . S
H1183 C1159 0.930 . S
H1184 C1156 0.930 . S
H1185 C1165 0.930 . S
H1186 C1177 0.929 . S
H1187 C1180 0.930 . S
C1188 C1189 1.351 . S
C1188 N1191 1.368 . S
C1188 H1193 0.931 . S
C1189 C1188 1.351 . S
C1189 N1190 1.373 . S
C1189 H1217 0.930 . S
N1190 C1189 1.373 . S
N1190 C1192 1.340 . S
N1191 C1188 1.368 . S
N1191 C1192 1.321 . S
N1191 Co1194 2.135 . S
C1192 N1190 1.340 . S
C1192 N1191 1.321 . S
C1192 H1216 0.930 . S
H1193 C1188 0.931 . S
Co1194 N1191 2.135 . S
Co1194 N1197 2.121 . S
Co1194 O1202 2.055 . S
Co1194 O1205 2.039 . S
Co1194 N1208 2.140 . S
C1195 O1196 1.227 . S
C1195 O1205 1.265 . S
O1196 C1195 1.227 . S
N1197 Co1194 2.121 . S
N1197 C1199 1.375 . S
N1197 C1200 1.313 . S
C1198 C1199 1.338 . S
C1198 N1201 1.377 . S
C1198 H1218 0.930 . S
C1199 N1197 1.375 . S
C1199 C1198 1.338 . S
C1199 H1203 0.931 . S
C1200 N1197 1.313 . S
C1200 N1201 1.344 . S
C1200 H1204 0.930 . S
N1201 C1198 1.377 . S
N1201 C1200 1.344 . S
O1202 Co1194 2.055 . S
O1202 C1206 1.253 . S
H1203 C1199 0.931 . S
H1204 C1200 0.930 . S
O1205 Co1194 2.039 . S
O1205 C1195 1.265 . S
C1206 O1202 1.253 . S
C1206 O1207 1.227 . S
O1207 C1206 1.227 . S
N1208 Co1194 2.140 . S
N1208 C1211 1.346 . S
N1208 C1212 1.345 . S
C1209 C1210 1.387 . S
C1209 C1213 1.391 . S
C1210 C1209 1.387 . S
C1210 C1211 1.369 . S
C1210 H1219 0.929 . S
C1211 N1208 1.346 . S
C1211 C1210 1.369 . S
C1211 H1214 0.928 . S
C1212 N1208 1.345 . S
C1212 C1213 1.371 . S
C1212 H1215 0.931 . S
C1213 C1209 1.391 . S
C1213 C1212 1.371 . S
C1213 H1220 0.930 . S
H1214 C1211 0.928 . S
H1215 C1212 0.931 . S
H1216 C1192 0.930 . S
H1217 C1189 0.930 . S
H1218 C1198 0.930 . S
H1219 C1210 0.929 . S
H1220 C1213 0.930 . S
C1221 C1222 1.351 . S
C1221 N1224 1.368 . S
C1221 H1226 0.931 . S
C1222 C1221 1.351 . S
C1222 N1223 1.373 . S
C1222 H1250 0.930 . S
N1223 C1222 1.373 . S
N1223 C1225 1.340 . S
N1224 C1221 1.368 . S
N1224 C1225 1.321 . S
N1224 Co1227 2.135 . S
C1225 N1223 1.340 . S
C1225 N1224 1.321 . S
C1225 H1249 0.930 . S
H1226 C1221 0.931 . S
Co1227 N1224 2.135 . S
Co1227 N1230 2.121 . S
Co1227 O1235 2.055 . S
Co1227 O1238 2.039 . S
Co1227 N1241 2.140 . S
C1228 O1229 1.227 . S
C1228 O1238 1.265 . S
O1229 C1228 1.227 . S
N1230 Co1227 2.121 . S
N1230 C1232 1.375 . S
N1230 C1233 1.313 . S
C1231 C1232 1.338 . S
C1231 N1234 1.377 . S
C1231 H1251 0.930 . S
C1232 N1230 1.375 . S
C1232 C1231 1.338 . S
C1232 H1236 0.931 . S
C1233 N1230 1.313 . S
C1233 N1234 1.344 . S
C1233 H1237 0.930 . S
N1234 C1231 1.377 . S
N1234 C1233 1.344 . S
O1235 Co1227 2.055 . S
O1235 C1239 1.253 . S
H1236 C1232 0.931 . S
H1237 C1233 0.930 . S
O1238 Co1227 2.039 . S
O1238 C1228 1.265 . S
C1239 O1235 1.253 . S
C1239 O1240 1.227 . S
O1240 C1239 1.227 . S
N1241 Co1227 2.140 . S
N1241 C1244 1.346 . S
N1241 C1245 1.345 . S
C1242 C1243 1.387 . S
C1242 C1246 1.391 . S
C1243 C1242 1.387 . S
C1243 C1244 1.369 . S
C1243 H1252 0.929 . S
C1244 N1241 1.346 . S
C1244 C1243 1.369 . S
C1244 H1247 0.928 . S
C1245 N1241 1.345 . S
C1245 C1246 1.371 . S
C1245 H1248 0.931 . S
C1246 C1242 1.391 . S
C1246 C1245 1.371 . S
C1246 H1253 0.930 . S
H1247 C1244 0.928 . S
H1248 C1245 0.931 . S
H1249 C1225 0.930 . S
H1250 C1222 0.930 . S
H1251 C1231 0.930 . S
H1252 C1243 0.929 . S
H1253 C1246 0.930 . S
C1254 C1255 1.351 . S
C1254 N1257 1.368 . S
C1254 H1259 0.931 . S
C1255 C1254 1.351 . S
C1255 N1256 1.373 . S
C1255 H1283 0.930 . S
N1256 C1255 1.373 . S
N1256 C1258 1.340 . S
N1257 C1254 1.368 . S
N1257 C1258 1.321 . S
N1257 Co1260 2.135 . S
C1258 N1256 1.340 . S
C1258 N1257 1.321 . S
C1258 H1282 0.930 . S
H1259 C1254 0.931 . S
Co1260 N1257 2.135 . S
Co1260 N1263 2.121 . S
Co1260 O1268 2.055 . S
Co1260 O1271 2.039 . S
Co1260 N1274 2.140 . S
C1261 O1262 1.227 . S
C1261 O1271 1.265 . S
O1262 C1261 1.227 . S
N1263 Co1260 2.121 . S
N1263 C1265 1.375 . S
N1263 C1266 1.313 . S
C1264 C1265 1.338 . S
C1264 N1267 1.377 . S
C1264 H1284 0.930 . S
C1265 N1263 1.375 . S
C1265 C1264 1.338 . S
C1265 H1269 0.931 . S
C1266 N1263 1.313 . S
C1266 N1267 1.344 . S
C1266 H1270 0.930 . S
N1267 C1264 1.377 . S
N1267 C1266 1.344 . S
O1268 Co1260 2.055 . S
O1268 C1272 1.253 . S
H1269 C1265 0.931 . S
H1270 C1266 0.930 . S
O1271 Co1260 2.039 . S
O1271 C1261 1.265 . S
C1272 O1268 1.253 . S
C1272 O1273 1.227 . S
O1273 C1272 1.227 . S
N1274 Co1260 2.140 . S
N1274 C1277 1.346 . S
N1274 C1278 1.345 . S
C1275 C1276 1.387 . S
C1275 C1279 1.391 . S
C1276 C1275 1.387 . S
C1276 C1277 1.369 . S
C1276 H1285 0.929 . S
C1277 N1274 1.346 . S
C1277 C1276 1.369 . S
C1277 H1280 0.928 . S
C1278 N1274 1.345 . S
C1278 C1279 1.371 . S
C1278 H1281 0.931 . S
C1279 C1275 1.391 . S
C1279 C1278 1.371 . S
C1279 H1286 0.930 . S
H1280 C1277 0.928 . S
H1281 C1278 0.931 . S
H1282 C1258 0.930 . S
H1283 C1255 0.930 . S
H1284 C1264 0.930 . S
H1285 C1276 0.929 . S
H1286 C1279 0.930 . S
C1287 C1288 1.351 . S
C1287 N1290 1.368 . S
C1287 H1292 0.931 . S
C1288 C1287 1.351 . S
C1288 N1289 1.373 . S
C1288 H1316 0.930 . S
N1289 C1288 1.373 . S
N1289 C1291 1.340 . S
N1290 C1287 1.368 . S
N1290 C1291 1.321 . S
N1290 Co1293 2.135 . S
C1291 N1289 1.340 . S
C1291 N1290 1.321 . S
C1291 H1315 0.930 . S
H1292 C1287 0.931 . S
Co1293 N1290 2.135 . S
Co1293 N1296 2.121 . S
Co1293 O1301 2.055 . S
Co1293 O1304 2.039 . S
Co1293 N1307 2.140 . S
C1294 O1295 1.227 . S
C1294 O1304 1.265 . S
O1295 C1294 1.227 . S
N1296 Co1293 2.121 . S
N1296 C1298 1.375 . S
N1296 C1299 1.313 . S
C1297 C1298 1.338 . S
C1297 N1300 1.377 . S
C1297 H1317 0.930 . S
C1298 N1296 1.375 . S
C1298 C1297 1.338 . S
C1298 H1302 0.931 . S
C1299 N1296 1.313 . S
C1299 N1300 1.344 . S
C1299 H1303 0.930 . S
N1300 C1297 1.377 . S
N1300 C1299 1.344 . S
O1301 Co1293 2.055 . S
O1301 C1305 1.253 . S
H1302 C1298 0.931 . S
H1303 C1299 0.930 . S
O1304 Co1293 2.039 . S
O1304 C1294 1.265 . S
C1305 O1301 1.253 . S
C1305 O1306 1.227 . S
O1306 C1305 1.227 . S
N1307 Co1293 2.140 . S
N1307 C1310 1.346 . S
N1307 C1311 1.345 . S
C1308 C1309 1.387 . S
C1308 C1312 1.391 . S
C1309 C1308 1.387 . S
C1309 C1310 1.369 . S
C1309 H1318 0.929 . S
C1310 N1307 1.346 . S
C1310 C1309 1.369 . S
C1310 H1313 0.928 . S
C1311 N1307 1.345 . S
C1311 C1312 1.371 . S
C1311 H1314 0.931 . S
C1312 C1308 1.391 . S
C1312 C1311 1.371 . S
C1312 H1319 0.930 . S
H1313 C1310 0.928 . S
H1314 C1311 0.931 . S
H1315 C1291 0.930 . S
H1316 C1288 0.930 . S
H1317 C1297 0.930 . S
H1318 C1309 0.929 . S
H1319 C1312 0.930 . S
C1320 C1321 1.351 . S
C1320 N1323 1.368 . S
C1320 H1325 0.931 . S
C1321 C1320 1.351 . S
C1321 N1322 1.373 . S
C1321 H1349 0.930 . S
N1322 C1321 1.373 . S
N1322 C1324 1.340 . S
N1323 C1320 1.368 . S
N1323 C1324 1.321 . S
N1323 Co1326 2.135 . S
C1324 N1322 1.340 . S
C1324 N1323 1.321 . S
C1324 H1348 0.930 . S
H1325 C1320 0.931 . S
Co1326 N1323 2.135 . S
Co1326 N1329 2.121 . S
Co1326 O1334 2.055 . S
Co1326 O1337 2.039 . S
Co1326 N1340 2.140 . S
C1327 O1328 1.227 . S
C1327 O1337 1.265 . S
O1328 C1327 1.227 . S
N1329 Co1326 2.121 . S
N1329 C1331 1.375 . S
N1329 C1332 1.313 . S
C1330 C1331 1.338 . S
C1330 N1333 1.377 . S
C1330 H1350 0.930 . S
C1331 N1329 1.375 . S
C1331 C1330 1.338 . S
C1331 H1335 0.931 . S
C1332 N1329 1.313 . S
C1332 N1333 1.344 . S
C1332 H1336 0.930 . S
N1333 C1330 1.377 . S
N1333 C1332 1.344 . S
O1334 Co1326 2.055 . S
O1334 C1338 1.253 . S
H1335 C1331 0.931 . S
H1336 C1332 0.930 . S
O1337 Co1326 2.039 . S
O1337 C1327 1.265 . S
C1338 O1334 1.253 . S
C1338 O1339 1.227 . S
O1339 C1338 1.227 . S
N1340 Co1326 2.140 . S
N1340 C1343 1.346 . S
N1340 C1344 1.345 . S
C1341 C1342 1.387 . S
C1341 C1345 1.391 . S
C1342 C1341 1.387 . S
C1342 C1343 1.369 . S
C1342 H1351 0.929 . S
C1343 N1340 1.346 . S
C1343 C1342 1.369 . S
C1343 H1346 0.928 . S
C1344 N1340 1.345 . S
C1344 C1345 1.371 . S
C1344 H1347 0.931 . S
C1345 C1341 1.391 . S
C1345 C1344 1.371 . S
C1345 H1352 0.930 . S
H1346 C1343 0.928 . S
H1347 C1344 0.931 . S
H1348 C1324 0.930 . S
H1349 C1321 0.930 . S
H1350 C1330 0.930 . S
H1351 C1342 0.929 . S
H1352 C1345 0.930 . S
C1353 C1354 1.351 . S
C1353 N1356 1.368 . S
C1353 H1358 0.931 . S
C1354 C1353 1.351 . S
C1354 N1355 1.373 . S
C1354 H1382 0.930 . S
N1355 C1354 1.373 . S
N1355 C1357 1.340 . S
N1356 C1353 1.368 . S
N1356 C1357 1.321 . S
N1356 Co1359 2.135 . S
C1357 N1355 1.340 . S
C1357 N1356 1.321 . S
C1357 H1381 0.930 . S
H1358 C1353 0.931 . S
Co1359 N1356 2.135 . S
Co1359 N1362 2.121 . S
Co1359 O1367 2.055 . S
Co1359 O1370 2.039 . S
Co1359 N1373 2.140 . S
C1360 O1361 1.227 . S
C1360 O1370 1.265 . S
O1361 C1360 1.227 . S
N1362 Co1359 2.121 . S
N1362 C1364 1.375 . S
N1362 C1365 1.313 . S
C1363 C1364 1.338 . S
C1363 N1366 1.377 . S
C1363 H1383 0.930 . S
C1364 N1362 1.375 . S
C1364 C1363 1.338 . S
C1364 H1368 0.931 . S
C1365 N1362 1.313 . S
C1365 N1366 1.344 . S
C1365 H1369 0.930 . S
N1366 C1363 1.377 . S
N1366 C1365 1.344 . S
O1367 Co1359 2.055 . S
O1367 C1371 1.253 . S
H1368 C1364 0.931 . S
H1369 C1365 0.930 . S
O1370 Co1359 2.039 . S
O1370 C1360 1.265 . S
C1371 O1367 1.253 . S
C1371 O1372 1.227 . S
O1372 C1371 1.227 . S
N1373 Co1359 2.140 . S
N1373 C1376 1.346 . S
N1373 C1377 1.345 . S
C1374 C1375 1.387 . S
C1374 C1378 1.391 . S
C1375 C1374 1.387 . S
C1375 C1376 1.369 . S
C1375 H1384 0.929 . S
C1376 N1373 1.346 . S
C1376 C1375 1.369 . S
C1376 H1379 0.928 . S
C1377 N1373 1.345 . S
C1377 C1378 1.371 . S
C1377 H1380 0.931 . S
C1378 C1374 1.391 . S
C1378 C1377 1.371 . S
C1378 H1385 0.930 . S
H1379 C1376 0.928 . S
H1380 C1377 0.931 . S
H1381 C1357 0.930 . S
H1382 C1354 0.930 . S
H1383 C1363 0.930 . S
H1384 C1375 0.929 . S
H1385 C1378 0.930 . S
C1386 C1387 1.351 . S
C1386 N1389 1.368 . S
C1386 H1391 0.931 . S
C1387 C1386 1.351 . S
C1387 N1388 1.373 . S
C1387 H1415 0.930 . S
N1388 C1387 1.373 . S
N1388 C1390 1.340 . S
N1389 C1386 1.368 . S
N1389 C1390 1.321 . S
N1389 Co1392 2.135 . S
C1390 N1388 1.340 . S
C1390 N1389 1.321 . S
C1390 H1414 0.930 . S
H1391 C1386 0.931 . S
Co1392 N1389 2.135 . S
Co1392 N1395 2.121 . S
Co1392 O1400 2.055 . S
Co1392 O1403 2.039 . S
Co1392 N1406 2.140 . S
C1393 O1394 1.227 . S
C1393 O1403 1.265 . S
O1394 C1393 1.227 . S
N1395 Co1392 2.121 . S
N1395 C1397 1.375 . S
N1395 C1398 1.313 . S
C1396 C1397 1.338 . S
C1396 N1399 1.377 . S
C1396 H1416 0.930 . S
C1397 N1395 1.375 . S
C1397 C1396 1.338 . S
C1397 H1401 0.931 . S
C1398 N1395 1.313 . S
C1398 N1399 1.344 . S
C1398 H1402 0.930 . S
N1399 C1396 1.377 . S
N1399 C1398 1.344 . S
O1400 Co1392 2.055 . S
O1400 C1404 1.253 . S
H1401 C1397 0.931 . S
H1402 C1398 0.930 . S
O1403 Co1392 2.039 . S
O1403 C1393 1.265 . S
C1404 O1400 1.253 . S
C1404 O1405 1.227 . S
O1405 C1404 1.227 . S
N1406 Co1392 2.140 . S
N1406 C1409 1.346 . S
N1406 C1410 1.345 . S
C1407 C1408 1.387 . S
C1407 C1411 1.391 . S
C1408 C1407 1.387 . S
C1408 C1409 1.369 . S
C1408 H1417 0.929 . S
C1409 N1406 1.346 . S
C1409 C1408 1.369 . S
C1409 H1412 0.928 . S
C1410 N1406 1.345 . S
C1410 C1411 1.371 . S
C1410 H1413 0.931 . S
C1411 C1407 1.391 . S
C1411 C1410 1.371 . S
C1411 H1418 0.930 . S
H1412 C1409 0.928 . S
H1413 C1410 0.931 . S
H1414 C1390 0.930 . S
H1415 C1387 0.930 . S
H1416 C1396 0.930 . S
H1417 C1408 0.929 . S
H1418 C1411 0.930 . S
C1419 C1420 1.351 . S
C1419 N1422 1.368 . S
C1419 H1424 0.931 . S
C1420 C1419 1.351 . S
C1420 N1421 1.373 . S
C1420 H1448 0.930 . S
N1421 C1420 1.373 . S
N1421 C1423 1.340 . S
N1422 C1419 1.368 . S
N1422 C1423 1.321 . S
N1422 Co1425 2.135 . S
C1423 N1421 1.340 . S
C1423 N1422 1.321 . S
C1423 H1447 0.930 . S
H1424 C1419 0.931 . S
Co1425 N1422 2.135 . S
Co1425 N1428 2.121 . S
Co1425 O1433 2.055 . S
Co1425 O1436 2.039 . S
Co1425 N1439 2.140 . S
C1426 O1427 1.227 . S
C1426 O1436 1.265 . S
O1427 C1426 1.227 . S
N1428 Co1425 2.121 . S
N1428 C1430 1.375 . S
N1428 C1431 1.313 . S
C1429 C1430 1.338 . S
C1429 N1432 1.377 . S
C1429 H1449 0.930 . S
C1430 N1428 1.375 . S
C1430 C1429 1.338 . S
C1430 H1434 0.931 . S
C1431 N1428 1.313 . S
C1431 N1432 1.344 . S
C1431 H1435 0.930 . S
N1432 C1429 1.377 . S
N1432 C1431 1.344 . S
O1433 Co1425 2.055 . S
O1433 C1437 1.253 . S
H1434 C1430 0.931 . S
H1435 C1431 0.930 . S
O1436 Co1425 2.039 . S
O1436 C1426 1.265 . S
C1437 O1433 1.253 . S
C1437 O1438 1.227 . S
O1438 C1437 1.227 . S
N1439 Co1425 2.140 . S
N1439 C1442 1.346 . S
N1439 C1443 1.345 . S
C1440 C1441 1.387 . S
C1440 C1444 1.391 . S
C1441 C1440 1.387 . S
C1441 C1442 1.369 . S
C1441 H1450 0.929 . S
C1442 N1439 1.346 . S
C1442 C1441 1.369 . S
C1442 H1445 0.928 . S
C1443 N1439 1.345 . S
C1443 C1444 1.371 . S
C1443 H1446 0.931 . S
C1444 C1440 1.391 . S
C1444 C1443 1.371 . S
C1444 H1451 0.930 . S
H1445 C1442 0.928 . S
H1446 C1443 0.931 . S
H1447 C1423 0.930 . S
H1448 C1420 0.930 . S
H1449 C1429 0.930 . S
H1450 C1441 0.929 . S
H1451 C1444 0.930 . S
C1452 C1453 1.351 . S
C1452 N1455 1.368 . S
C1452 H1457 0.931 . S
C1453 C1452 1.351 . S
C1453 N1454 1.373 . S
C1453 H1481 0.930 . S
N1454 C1453 1.373 . S
N1454 C1456 1.340 . S
N1455 C1452 1.368 . S
N1455 C1456 1.321 . S
N1455 Co1458 2.135 . S
C1456 N1454 1.340 . S
C1456 N1455 1.321 . S
C1456 H1480 0.930 . S
H1457 C1452 0.931 . S
Co1458 N1455 2.135 . S
Co1458 N1461 2.121 . S
Co1458 O1466 2.055 . S
Co1458 O1469 2.039 . S
Co1458 N1472 2.140 . S
C1459 O1460 1.227 . S
C1459 O1469 1.265 . S
O1460 C1459 1.227 . S
N1461 Co1458 2.121 . S
N1461 C1463 1.375 . S
N1461 C1464 1.313 . S
C1462 C1463 1.338 . S
C1462 N1465 1.377 . S
C1462 H1482 0.930 . S
C1463 N1461 1.375 . S
C1463 C1462 1.338 . S
C1463 H1467 0.931 . S
C1464 N1461 1.313 . S
C1464 N1465 1.344 . S
C1464 H1468 0.930 . S
N1465 C1462 1.377 . S
N1465 C1464 1.344 . S
O1466 Co1458 2.055 . S
O1466 C1470 1.253 . S
H1467 C1463 0.931 . S
H1468 C1464 0.930 . S
O1469 Co1458 2.039 . S
O1469 C1459 1.265 . S
C1470 O1466 1.253 . S
C1470 O1471 1.227 . S
O1471 C1470 1.227 . S
N1472 Co1458 2.140 . S
N1472 C1475 1.346 . S
N1472 C1476 1.345 . S
C1473 C1474 1.387 . S
C1473 C1477 1.391 . S
C1474 C1473 1.387 . S
C1474 C1475 1.369 . S
C1474 H1483 0.929 . S
C1475 N1472 1.346 . S
C1475 C1474 1.369 . S
C1475 H1478 0.928 . S
C1476 N1472 1.345 . S
C1476 C1477 1.371 . S
C1476 H1479 0.931 . S
C1477 C1473 1.391 . S
C1477 C1476 1.371 . S
C1477 H1484 0.930 . S
H1478 C1475 0.928 . S
H1479 C1476 0.931 . S
H1480 C1456 0.930 . S
H1481 C1453 0.930 . S
H1482 C1462 0.930 . S
H1483 C1474 0.929 . S
H1484 C1477 0.930 . S
C1485 C1486 1.351 . S
C1485 N1488 1.368 . S
C1485 H1490 0.931 . S
C1486 C1485 1.351 . S
C1486 N1487 1.373 . S
C1486 H1514 0.930 . S
N1487 C1486 1.373 . S
N1487 C1489 1.340 . S
N1488 C1485 1.368 . S
N1488 C1489 1.321 . S
N1488 Co1491 2.135 . S
C1489 N1487 1.340 . S
C1489 N1488 1.321 . S
C1489 H1513 0.930 . S
H1490 C1485 0.931 . S
Co1491 N1488 2.135 . S
Co1491 N1494 2.121 . S
Co1491 O1499 2.055 . S
Co1491 O1502 2.039 . S
Co1491 N1505 2.140 . S
C1492 O1493 1.227 . S
C1492 O1502 1.265 . S
O1493 C1492 1.227 . S
N1494 Co1491 2.121 . S
N1494 C1496 1.375 . S
N1494 C1497 1.313 . S
C1495 C1496 1.338 . S
C1495 N1498 1.377 . S
C1495 H1515 0.930 . S
C1496 N1494 1.375 . S
C1496 C1495 1.338 . S
C1496 H1500 0.931 . S
C1497 N1494 1.313 . S
C1497 N1498 1.344 . S
C1497 H1501 0.930 . S
N1498 C1495 1.377 . S
N1498 C1497 1.344 . S
O1499 Co1491 2.055 . S
O1499 C1503 1.253 . S
H1500 C1496 0.931 . S
H1501 C1497 0.930 . S
O1502 Co1491 2.039 . S
O1502 C1492 1.265 . S
C1503 O1499 1.253 . S
C1503 O1504 1.227 . S
O1504 C1503 1.227 . S
N1505 Co1491 2.140 . S
N1505 C1508 1.346 . S
N1505 C1509 1.345 . S
C1506 C1507 1.387 . S
C1506 C1510 1.391 . S
C1507 C1506 1.387 . S
C1507 C1508 1.369 . S
C1507 H1516 0.929 . S
C1508 N1505 1.346 . S
C1508 C1507 1.369 . S
C1508 H1511 0.928 . S
C1509 N1505 1.345 . S
C1509 C1510 1.371 . S
C1509 H1512 0.931 . S
C1510 C1506 1.391 . S
C1510 C1509 1.371 . S
C1510 H1517 0.930 . S
H1511 C1508 0.928 . S
H1512 C1509 0.931 . S
H1513 C1489 0.930 . S
H1514 C1486 0.930 . S
H1515 C1495 0.930 . S
H1516 C1507 0.929 . S
H1517 C1510 0.930 . S
C1518 C1519 1.351 . S
C1518 N1521 1.368 . S
C1518 H1523 0.931 . S
C1519 C1518 1.351 . S
C1519 N1520 1.373 . S
C1519 H1547 0.930 . S
N1520 C1519 1.373 . S
N1520 C1522 1.340 . S
N1521 C1518 1.368 . S
N1521 C1522 1.321 . S
N1521 Co1524 2.135 . S
C1522 N1520 1.340 . S
C1522 N1521 1.321 . S
C1522 H1546 0.930 . S
H1523 C1518 0.931 . S
Co1524 N1521 2.135 . S
Co1524 N1527 2.121 . S
Co1524 O1532 2.055 . S
Co1524 O1535 2.039 . S
Co1524 N1538 2.140 . S
C1525 O1526 1.227 . S
C1525 O1535 1.265 . S
O1526 C1525 1.227 . S
N1527 Co1524 2.121 . S
N1527 C1529 1.375 . S
N1527 C1530 1.313 . S
C1528 C1529 1.338 . S
C1528 N1531 1.377 . S
C1528 H1548 0.930 . S
C1529 N1527 1.375 . S
C1529 C1528 1.338 . S
C1529 H1533 0.931 . S
C1530 N1527 1.313 . S
C1530 N1531 1.344 . S
C1530 H1534 0.930 . S
N1531 C1528 1.377 . S
N1531 C1530 1.344 . S
O1532 Co1524 2.055 . S
O1532 C1536 1.253 . S
H1533 C1529 0.931 . S
H1534 C1530 0.930 . S
O1535 Co1524 2.039 . S
O1535 C1525 1.265 . S
C1536 O1532 1.253 . S
C1536 O1537 1.227 . S
O1537 C1536 1.227 . S
N1538 Co1524 2.140 . S
N1538 C1541 1.346 . S
N1538 C1542 1.345 . S
C1539 C1540 1.387 . S
C1539 C1543 1.391 . S
C1540 C1539 1.387 . S
C1540 C1541 1.369 . S
C1540 H1549 0.929 . S
C1541 N1538 1.346 . S
C1541 C1540 1.369 . S
C1541 H1544 0.928 . S
C1542 N1538 1.345 . S
C1542 C1543 1.371 . S
C1542 H1545 0.931 . S
C1543 C1539 1.391 . S
C1543 C1542 1.371 . S
C1543 H1550 0.930 . S
H1544 C1541 0.928 . S
H1545 C1542 0.931 . S
H1546 C1522 0.930 . S
H1547 C1519 0.930 . S
H1548 C1528 0.930 . S
H1549 C1540 0.929 . S
H1550 C1543 0.930 . S
C1551 C1552 1.351 . S
C1551 N1554 1.368 . S
C1551 H1556 0.931 . S
C1552 C1551 1.351 . S
C1552 N1553 1.373 . S
C1552 H1580 0.930 . S
N1553 C1552 1.373 . S
N1553 C1555 1.340 . S
N1554 C1551 1.368 . S
N1554 C1555 1.321 . S
N1554 Co1557 2.135 . S
C1555 N1553 1.340 . S
C1555 N1554 1.321 . S
C1555 H1579 0.930 . S
H1556 C1551 0.931 . S
Co1557 N1554 2.135 . S
Co1557 N1560 2.121 . S
Co1557 O1565 2.055 . S
Co1557 O1568 2.039 . S
Co1557 N1571 2.140 . S
C1558 O1559 1.227 . S
C1558 O1568 1.265 . S
O1559 C1558 1.227 . S
N1560 Co1557 2.121 . S
N1560 C1562 1.375 . S
N1560 C1563 1.313 . S
C1561 C1562 1.338 . S
C1561 N1564 1.377 . S
C1561 H1581 0.930 . S
C1562 N1560 1.375 . S
C1562 C1561 1.338 . S
C1562 H1566 0.931 . S
C1563 N1560 1.313 . S
C1563 N1564 1.344 . S
C1563 H1567 0.930 . S
N1564 C1561 1.377 . S
N1564 C1563 1.344 . S
O1565 Co1557 2.055 . S
O1565 C1569 1.253 . S
H1566 C1562 0.931 . S
H1567 C1563 0.930 . S
O1568 Co1557 2.039 . S
O1568 C1558 1.265 . S
C1569 O1565 1.253 . S
C1569 O1570 1.227 . S
O1570 C1569 1.227 . S
N1571 Co1557 2.140 . S
N1571 C1574 1.346 . S
N1571 C1575 1.345 . S
C1572 C1573 1.387 . S
C1572 C1576 1.391 . S
C1573 C1572 1.387 . S
C1573 C1574 1.369 . S
C1573 H1582 0.929 . S
C1574 N1571 1.346 . S
C1574 C1573 1.369 . S
C1574 H1577 0.928 . S
C1575 N1571 1.345 . S
C1575 C1576 1.371 . S
C1575 H1578 0.931 . S
C1576 C1572 1.391 . S
C1576 C1575 1.371 . S
C1576 H1583 0.930 . S
H1577 C1574 0.928 . S
H1578 C1575 0.931 . S
H1579 C1555 0.930 . S
H1580 C1552 0.930 . S
H1581 C1561 0.930 . S
H1582 C1573 0.929 . S
H1583 C1576 0.930 . S
H1584 C1590 0.930 . S
H1585 C1593 0.930 . S
H1586 C1594 0.930 . S
H1587 C1595 0.930 . S
H1588 C1598 0.930 . S
H1589 C1599 0.930 . S
C1590 H1584 0.930 . S
C1590 C1591 1.355 . S
C1590 C1592 1.415 . S
C1591 C1590 1.355 . S
C1591 C1593 1.419 . S
C1592 C1590 1.415 . S
C1592 C1597 1.425 . S
C1592 C1599 1.409 . S
C1593 H1585 0.930 . S
C1593 C1591 1.419 . S
C1593 C1594 1.362 . S
C1594 H1586 0.930 . S
C1594 C1593 1.362 . S
C1594 C1597 1.409 . S
C1595 H1587 0.930 . S
C1595 C1596 1.355 . S
C1595 C1597 1.415 . S
C1596 C1595 1.355 . S
C1596 C1598 1.419 . S
C1597 C1592 1.425 . S
C1597 C1594 1.409 . S
C1597 C1595 1.415 . S
C1598 H1588 0.930 . S
C1598 C1596 1.419 . S
C1598 C1599 1.362 . S
C1599 H1589 0.930 . S
C1599 C1592 1.409 . S
C1599 C1598 1.362 . S
H1600 C1606 0.930 . S
H1601 C1609 0.930 . S
H1602 C1610 0.930 . S
H1603 C1611 0.930 . S
H1604 C1614 0.930 . S
H1605 C1615 0.930 . S
C1606 H1600 0.930 . S
C1606 C1607 1.355 . S
C1606 C1608 1.415 . S
C1607 C1606 1.355 . S
C1607 C1609 1.419 . S
C1608 C1606 1.415 . S
C1608 C1613 1.425 . S
C1608 C1615 1.409 . S
C1609 H1601 0.930 . S
C1609 C1607 1.419 . S
C1609 C1610 1.362 . S
C1610 H1602 0.930 . S
C1610 C1609 1.362 . S
C1610 C1613 1.409 . S
C1611 H1603 0.930 . S
C1611 C1612 1.355 . S
C1611 C1613 1.415 . S
C1612 C1611 1.355 . S
C1612 C1614 1.419 . S
C1613 C1608 1.425 . S
C1613 C1610 1.409 . S
C1613 C1611 1.415 . S
C1614 H1604 0.930 . S
C1614 C1612 1.419 . S
C1614 C1615 1.362 . S
C1615 H1605 0.930 . S
C1615 C1608 1.409 . S
C1615 C1614 1.362 . S
H1616 C1622 0.930 . S
H1617 C1625 0.930 . S
H1618 C1626 0.930 . S
H1619 C1627 0.930 . S
H1620 C1630 0.930 . S
H1621 C1631 0.930 . S
C1622 H1616 0.930 . S
C1622 C1623 1.355 . S
C1622 C1624 1.415 . S
C1623 C1622 1.355 . S
C1623 C1625 1.419 . S
C1624 C1622 1.415 . S
C1624 C1629 1.425 . S
C1624 C1631 1.409 . S
C1625 H1617 0.930 . S
C1625 C1623 1.419 . S
C1625 C1626 1.362 . S
C1626 H1618 0.930 . S
C1626 C1625 1.362 . S
C1626 C1629 1.409 . S
C1627 H1619 0.930 . S
C1627 C1628 1.355 . S
C1627 C1629 1.415 . S
C1628 C1627 1.355 . S
C1628 C1630 1.419 . S
C1629 C1624 1.425 . S
C1629 C1626 1.409 . S
C1629 C1627 1.415 . S
C1630 H1620 0.930 . S
C1630 C1628 1.419 . S
C1630 C1631 1.362 . S
C1631 H1621 0.930 . S
C1631 C1624 1.409 . S
C1631 C1630 1.362 . S
H1632 C1638 0.930 . S
H1633 C1641 0.930 . S
H1634 C1642 0.930 . S
H1635 C1643 0.930 . S
H1636 C1646 0.930 . S
H1637 C1647 0.930 . S
C1638 H1632 0.930 . S
C1638 C1639 1.355 . S
C1638 C1640 1.415 . S
C1639 C1638 1.355 . S
C1639 C1641 1.419 . S
C1640 C1638 1.415 . S
C1640 C1645 1.425 . S
C1640 C1647 1.409 . S
C1641 H1633 0.930 . S
C1641 C1639 1.419 . S
C1641 C1642 1.362 . S
C1642 H1634 0.930 . S
C1642 C1641 1.362 . S
C1642 C1645 1.409 . S
C1643 H1635 0.930 . S
C1643 C1644 1.355 . S
C1643 C1645 1.415 . S
C1644 C1643 1.355 . S
C1644 C1646 1.419 . S
C1645 C1640 1.425 . S
C1645 C1642 1.409 . S
C1645 C1643 1.415 . S
C1646 H1636 0.930 . S
C1646 C1644 1.419 . S
C1646 C1647 1.362 . S
C1647 H1637 0.930 . S
C1647 C1640 1.409 . S
C1647 C1646 1.362 . S
H1648 C1654 0.930 . S
H1649 C1657 0.930 . S
H1650 C1658 0.930 . S
H1651 C1659 0.930 . S
H1652 C1662 0.930 . S
H1653 C1663 0.930 . S
C1654 H1648 0.930 . S
C1654 C1655 1.355 . S
C1654 C1656 1.415 . S
C1655 C1654 1.355 . S
C1655 C1657 1.419 . S
C1656 C1654 1.415 . S
C1656 C1661 1.425 . S
C1656 C1663 1.409 . S
C1657 H1649 0.930 . S
C1657 C1655 1.419 . S
C1657 C1658 1.362 . S
C1658 H1650 0.930 . S
C1658 C1657 1.362 . S
C1658 C1661 1.409 . S
C1659 H1651 0.930 . S
C1659 C1660 1.355 . S
C1659 C1661 1.415 . S
C1660 C1659 1.355 . S
C1660 C1662 1.419 . S
C1661 C1656 1.425 . S
C1661 C1658 1.409 . S
C1661 C1659 1.415 . S
C1662 H1652 0.930 . S
C1662 C1660 1.419 . S
C1662 C1663 1.362 . S
C1663 H1653 0.930 . S
C1663 C1656 1.409 . S
C1663 C1662 1.362 . S
H1664 C1670 0.930 . S
H1665 C1673 0.930 . S
H1666 C1674 0.930 . S
H1667 C1675 0.930 . S
H1668 C1678 0.930 . S
H1669 C1679 0.930 . S
C1670 H1664 0.930 . S
C1670 C1671 1.355 . S
C1670 C1672 1.415 . S
C1671 C1670 1.355 . S
C1671 C1673 1.419 . S
C1672 C1670 1.415 . S
C1672 C1677 1.425 . S
C1672 C1679 1.409 . S
C1673 H1665 0.930 . S
C1673 C1671 1.419 . S
C1673 C1674 1.362 . S
C1674 H1666 0.930 . S
C1674 C1673 1.362 . S
C1674 C1677 1.409 . S
C1675 H1667 0.930 . S
C1675 C1676 1.355 . S
C1675 C1677 1.415 . S
C1676 C1675 1.355 . S
C1676 C1678 1.419 . S
C1677 C1672 1.425 . S
C1677 C1674 1.409 . S
C1677 C1675 1.415 . S
C1678 H1668 0.930 . S
C1678 C1676 1.419 . S
C1678 C1679 1.362 . S
C1679 H1669 0.930 . S
C1679 C1672 1.409 . S
C1679 C1678 1.362 . S
H1680 C1686 0.930 . S
H1681 C1689 0.930 . S
H1682 C1690 0.930 . S
H1683 C1691 0.930 . S
H1684 C1694 0.930 . S
H1685 C1695 0.930 . S
C1686 H1680 0.930 . S
C1686 C1687 1.355 . S
C1686 C1688 1.415 . S
C1687 C1686 1.355 . S
C1687 C1689 1.419 . S
C1688 C1686 1.415 . S
C1688 C1693 1.425 . S
C1688 C1695 1.409 . S
C1689 H1681 0.930 . S
C1689 C1687 1.419 . S
C1689 C1690 1.362 . S
C1690 H1682 0.930 . S
C1690 C1689 1.362 . S
C1690 C1693 1.409 . S
C1691 H1683 0.930 . S
C1691 C1692 1.355 . S
C1691 C1693 1.415 . S
C1692 C1691 1.355 . S
C1692 C1694 1.419 . S
C1693 C1688 1.425 . S
C1693 C1690 1.409 . S
C1693 C1691 1.415 . S
C1694 H1684 0.930 . S
C1694 C1692 1.419 . S
C1694 C1695 1.362 . S
C1695 H1685 0.930 . S
C1695 C1688 1.409 . S
C1695 C1694 1.362 . S
H1696 C1702 0.930 . S
H1697 C1705 0.930 . S
H1698 C1706 0.930 . S
H1699 C1707 0.930 . S
H1700 C1710 0.930 . S
H1701 C1711 0.930 . S
C1702 H1696 0.930 . S
C1702 C1703 1.355 . S
C1702 C1704 1.415 . S
C1703 C1702 1.355 . S
C1703 C1705 1.419 . S
C1704 C1702 1.415 . S
C1704 C1709 1.425 . S
C1704 C1711 1.409 . S
C1705 H1697 0.930 . S
C1705 C1703 1.419 . S
C1705 C1706 1.362 . S
C1706 H1698 0.930 . S
C1706 C1705 1.362 . S
C1706 C1709 1.409 . S
C1707 H1699 0.930 . S
C1707 C1708 1.355 . S
C1707 C1709 1.415 . S
C1708 C1707 1.355 . S
C1708 C1710 1.419 . S
C1709 C1704 1.425 . S
C1709 C1706 1.409 . S
C1709 C1707 1.415 . S
C1710 H1700 0.930 . S
C1710 C1708 1.419 . S
C1710 C1711 1.362 . S
C1711 H1701 0.930 . S
C1711 C1704 1.409 . S
C1711 C1710 1.362 . S
H1712 C1718 0.930 . S
H1713 C1721 0.930 . S
H1714 C1722 0.930 . S
H1715 C1723 0.930 . S
H1716 C1726 0.930 . S
H1717 C1727 0.930 . S
C1718 H1712 0.930 . S
C1718 C1719 1.355 . S
C1718 C1720 1.415 . S
C1719 C1718 1.355 . S
C1719 C1721 1.419 . S
C1720 C1718 1.415 . S
C1720 C1725 1.425 . S
C1720 C1727 1.409 . S
C1721 H1713 0.930 . S
C1721 C1719 1.419 . S
C1721 C1722 1.362 . S
C1722 H1714 0.930 . S
C1722 C1721 1.362 . S
C1722 C1725 1.409 . S
C1723 H1715 0.930 . S
C1723 C1724 1.355 . S
C1723 C1725 1.415 . S
C1724 C1723 1.355 . S
C1724 C1726 1.419 . S
C1725 C1720 1.425 . S
C1725 C1722 1.409 . S
C1725 C1723 1.415 . S
C1726 H1716 0.930 . S
C1726 C1724 1.419 . S
C1726 C1727 1.362 . S
C1727 H1717 0.930 . S
C1727 C1720 1.409 . S
C1727 C1726 1.362 . S
H1728 C1734 0.930 . S
H1729 C1737 0.930 . S
H1730 C1738 0.930 . S
H1731 C1739 0.930 . S
H1732 C1742 0.930 . S
H1733 C1743 0.930 . S
C1734 H1728 0.930 . S
C1734 C1735 1.355 . S
C1734 C1736 1.415 . S
C1735 C1734 1.355 . S
C1735 C1737 1.419 . S
C1736 C1734 1.415 . S
C1736 C1741 1.425 . S
C1736 C1743 1.409 . S
C1737 H1729 0.930 . S
C1737 C1735 1.419 . S
C1737 C1738 1.362 . S
C1738 H1730 0.930 . S
C1738 C1737 1.362 . S
C1738 C1741 1.409 . S
C1739 H1731 0.930 . S
C1739 C1740 1.355 . S
C1739 C1741 1.415 . S
C1740 C1739 1.355 . S
C1740 C1742 1.419 . S
C1741 C1736 1.425 . S
C1741 C1738 1.409 . S
C1741 C1739 1.415 . S
C1742 H1732 0.930 . S
C1742 C1740 1.419 . S
C1742 C1743 1.362 . S
C1743 H1733 0.930 . S
C1743 C1736 1.409 . S
C1743 C1742 1.362 . S
H1744 C1750 0.930 . S
H1745 C1753 0.930 . S
H1746 C1754 0.930 . S
H1747 C1755 0.930 . S
H1748 C1758 0.930 . S
H1749 C1759 0.930 . S
C1750 H1744 0.930 . S
C1750 C1751 1.355 . S
C1750 C1752 1.415 . S
C1751 C1750 1.355 . S
C1751 C1753 1.419 . S
C1752 C1750 1.415 . S
C1752 C1757 1.425 . S
C1752 C1759 1.409 . S
C1753 H1745 0.930 . S
C1753 C1751 1.419 . S
C1753 C1754 1.362 . S
C1754 H1746 0.930 . S
C1754 C1753 1.362 . S
C1754 C1757 1.409 . S
C1755 H1747 0.930 . S
C1755 C1756 1.355 . S
C1755 C1757 1.415 . S
C1756 C1755 1.355 . S
C1756 C1758 1.419 . S
C1757 C1752 1.425 . S
C1757 C1754 1.409 . S
C1757 C1755 1.415 . S
C1758 H1748 0.930 . S
C1758 C1756 1.419 . S
C1758 C1759 1.362 . S
C1759 H1749 0.930 . S
C1759 C1752 1.409 . S
C1759 C1758 1.362 . S
H1760 C1766 0.930 . S
H1761 C1769 0.930 . S
H1762 C1770 0.930 . S
H1763 C1771 0.930 . S
H1764 C1774 0.930 . S
H1765 C1775 0.930 . S
C1766 H1760 0.930 . S
C1766 C1767 1.355 . S
C1766 C1768 1.415 . S
C1767 C1766 1.355 . S
C1767 C1769 1.419 . S
C1768 C1766 1.415 . S
C1768 C1773 1.425 . S
C1768 C1775 1.409 . S
C1769 H1761 0.930 . S
C1769 C1767 1.419 . S
C1769 C1770 1.362 . S
C1770 H1762 0.930 . S
C1770 C1769 1.362 . S
C1770 C1773 1.409 . S
C1771 H1763 0.930 . S
C1771 C1772 1.355 . S
C1771 C1773 1.415 . S
C1772 C1771 1.355 . S
C1772 C1774 1.419 . S
C1773 C1768 1.425 . S
C1773 C1770 1.409 . S
C1773 C1771 1.415 . S
C1774 H1764 0.930 . S
C1774 C1772 1.419 . S
C1774 C1775 1.362 . S
C1775 H1765 0.930 . S
C1775 C1768 1.409 . S
C1775 C1774 1.362 . S
H1776 C1782 0.930 . S
H1777 C1785 0.930 . S
H1778 C1786 0.930 . S
H1779 C1787 0.930 . S
H1780 C1790 0.930 . S
H1781 C1791 0.930 . S
C1782 H1776 0.930 . S
C1782 C1783 1.355 . S
C1782 C1784 1.415 . S
C1783 C1782 1.355 . S
C1783 C1785 1.419 . S
C1784 C1782 1.415 . S
C1784 C1789 1.425 . S
C1784 C1791 1.409 . S
C1785 H1777 0.930 . S
C1785 C1783 1.419 . S
C1785 C1786 1.362 . S
C1786 H1778 0.930 . S
C1786 C1785 1.362 . S
C1786 C1789 1.409 . S
C1787 H1779 0.930 . S
C1787 C1788 1.355 . S
C1787 C1789 1.415 . S
C1788 C1787 1.355 . S
C1788 C1790 1.419 . S
C1789 C1784 1.425 . S
C1789 C1786 1.409 . S
C1789 C1787 1.415 . S
C1790 H1780 0.930 . S
C1790 C1788 1.419 . S
C1790 C1791 1.362 . S
C1791 H1781 0.930 . S
C1791 C1784 1.409 . S
C1791 C1790 1.362 . S
H1792 C1798 0.930 . S
H1793 C1801 0.930 . S
H1794 C1802 0.930 . S
H1795 C1803 0.930 . S
H1796 C1806 0.930 . S
H1797 C1807 0.930 . S
C1798 H1792 0.930 . S
C1798 C1799 1.355 . S
C1798 C1800 1.415 . S
C1799 C1798 1.355 . S
C1799 C1801 1.419 . S
C1800 C1798 1.415 . S
C1800 C1805 1.425 . S
C1800 C1807 1.409 . S
C1801 H1793 0.930 . S
C1801 C1799 1.419 . S
C1801 C1802 1.362 . S
C1802 H1794 0.930 . S
C1802 C1801 1.362 . S
C1802 C1805 1.409 . S
C1803 H1795 0.930 . S
C1803 C1804 1.355 . S
C1803 C1805 1.415 . S
C1804 C1803 1.355 . S
C1804 C1806 1.419 . S
C1805 C1800 1.425 . S
C1805 C1802 1.409 . S
C1805 C1803 1.415 . S
C1806 H1796 0.930 . S
C1806 C1804 1.419 . S
C1806 C1807 1.362 . S
C1807 H1797 0.930 . S
C1807 C1800 1.409 . S
C1807 C1806 1.362 . S
H1808 C1814 0.930 . S
H1809 C1817 0.930 . S
H1810 C1818 0.930 . S
H1811 C1819 0.930 . S
H1812 C1822 0.930 . S
H1813 C1823 0.930 . S
C1814 H1808 0.930 . S
C1814 C1815 1.355 . S
C1814 C1816 1.415 . S
C1815 C1814 1.355 . S
C1815 C1817 1.419 . S
C1816 C1814 1.415 . S
C1816 C1821 1.425 . S
C1816 C1823 1.409 . S
C1817 H1809 0.930 . S
C1817 C1815 1.419 . S
C1817 C1818 1.362 . S
C1818 H1810 0.930 . S
C1818 C1817 1.362 . S
C1818 C1821 1.409 . S
C1819 H1811 0.930 . S
C1819 C1820 1.355 . S
C1819 C1821 1.415 . S
C1820 C1819 1.355 . S
C1820 C1822 1.419 . S
C1821 C1816 1.425 . S
C1821 C1818 1.409 . S
C1821 C1819 1.415 . S
C1822 H1812 0.930 . S
C1822 C1820 1.419 . S
C1822 C1823 1.362 . S
C1823 H1813 0.930 . S
C1823 C1816 1.409 . S
C1823 C1822 1.362 . S
H1824 C1830 0.930 . S
H1825 C1833 0.930 . S
H1826 C1834 0.930 . S
H1827 C1835 0.930 . S
H1828 C1838 0.930 . S
H1829 C1839 0.930 . S
C1830 H1824 0.930 . S
C1830 C1831 1.355 . S
C1830 C1832 1.415 . S
C1831 C1830 1.355 . S
C1831 C1833 1.419 . S
C1832 C1830 1.415 . S
C1832 C1837 1.425 . S
C1832 C1839 1.409 . S
C1833 H1825 0.930 . S
C1833 C1831 1.419 . S
C1833 C1834 1.362 . S
C1834 H1826 0.930 . S
C1834 C1833 1.362 . S
C1834 C1837 1.409 . S
C1835 H1827 0.930 . S
C1835 C1836 1.355 . S
C1835 C1837 1.415 . S
C1836 C1835 1.355 . S
C1836 C1838 1.419 . S
C1837 C1832 1.425 . S
C1837 C1834 1.409 . S
C1837 C1835 1.415 . S
C1838 H1828 0.930 . S
C1838 C1836 1.419 . S
C1838 C1839 1.362 . S
C1839 H1829 0.930 . S
C1839 C1832 1.409 . S
C1839 C1838 1.362 . S
H1840 C1846 0.930 . S
H1841 C1849 0.930 . S
H1842 C1850 0.930 . S
H1843 C1851 0.930 . S
H1844 C1854 0.930 . S
H1845 C1855 0.930 . S
C1846 H1840 0.930 . S
C1846 C1847 1.355 . S
C1846 C1848 1.415 . S
C1847 C1846 1.355 . S
C1847 C1849 1.419 . S
C1848 C1846 1.415 . S
C1848 C1853 1.425 . S
C1848 C1855 1.409 . S
C1849 H1841 0.930 . S
C1849 C1847 1.419 . S
C1849 C1850 1.362 . S
C1850 H1842 0.930 . S
C1850 C1849 1.362 . S
C1850 C1853 1.409 . S
C1851 H1843 0.930 . S
C1851 C1852 1.355 . S
C1851 C1853 1.415 . S
C1852 C1851 1.355 . S
C1852 C1854 1.419 . S
C1853 C1848 1.425 . S
C1853 C1850 1.409 . S
C1853 C1851 1.415 . S
C1854 H1844 0.930 . S
C1854 C1852 1.419 . S
C1854 C1855 1.362 . S
C1855 H1845 0.930 . S
C1855 C1848 1.409 . S
C1855 C1854 1.362 . S
H1856 C1862 0.930 . S
H1857 C1865 0.930 . S
H1858 C1866 0.930 . S
H1859 C1867 0.930 . S
H1860 C1870 0.930 . S
H1861 C1871 0.930 . S
C1862 H1856 0.930 . S
C1862 C1863 1.355 . S
C1862 C1864 1.415 . S
C1863 C1862 1.355 . S
C1863 C1865 1.419 . S
C1864 C1862 1.415 . S
C1864 C1869 1.425 . S
C1864 C1871 1.409 . S
C1865 H1857 0.930 . S
C1865 C1863 1.419 . S
C1865 C1866 1.362 . S
C1866 H1858 0.930 . S
C1866 C1865 1.362 . S
C1866 C1869 1.409 . S
C1867 H1859 0.930 . S
C1867 C1868 1.355 . S
C1867 C1869 1.415 . S
C1868 C1867 1.355 . S
C1868 C1870 1.419 . S
C1869 C1864 1.425 . S
C1869 C1866 1.409 . S
C1869 C1867 1.415 . S
C1870 H1860 0.930 . S
C1870 C1868 1.419 . S
C1870 C1871 1.362 . S
C1871 H1861 0.930 . S
C1871 C1864 1.409 . S
C1871 C1870 1.362 . S
H1872 C1878 0.930 . S
H1873 C1881 0.930 . S
H1874 C1882 0.930 . S
H1875 C1883 0.930 . S
H1876 C1886 0.930 . S
H1877 C1887 0.930 . S
C1878 H1872 0.930 . S
C1878 C1879 1.355 . S
C1878 C1880 1.415 . S
C1879 C1878 1.355 . S
C1879 C1881 1.419 . S
C1880 C1878 1.415 . S
C1880 C1885 1.425 . S
C1880 C1887 1.409 . S
C1881 H1873 0.930 . S
C1881 C1879 1.419 . S
C1881 C1882 1.362 . S
C1882 H1874 0.930 . S
C1882 C1881 1.362 . S
C1882 C1885 1.409 . S
C1883 H1875 0.930 . S
C1883 C1884 1.355 . S
C1883 C1885 1.415 . S
C1884 C1883 1.355 . S
C1884 C1886 1.419 . S
C1885 C1880 1.425 . S
C1885 C1882 1.409 . S
C1885 C1883 1.415 . S
C1886 H1876 0.930 . S
C1886 C1884 1.419 . S
C1886 C1887 1.362 . S
C1887 H1877 0.930 . S
C1887 C1880 1.409 . S
C1887 C1886 1.362 . S
H1888 C1894 0.930 . S
H1889 C1897 0.930 . S
H1890 C1898 0.930 . S
H1891 C1899 0.930 . S
H1892 C1902 0.930 . S
H1893 C1903 0.930 . S
C1894 H1888 0.930 . S
C1894 C1895 1.355 . S
C1894 C1896 1.415 . S
C1895 C1894 1.355 . S
C1895 C1897 1.419 . S
C1896 C1894 1.415 . S
C1896 C1901 1.425 . S
C1896 C1903 1.409 . S
C1897 H1889 0.930 . S
C1897 C1895 1.419 . S
C1897 C1898 1.362 . S
C1898 H1890 0.930 . S
C1898 C1897 1.362 . S
C1898 C1901 1.409 . S
C1899 H1891 0.930 . S
C1899 C1900 1.355 . S
C1899 C1901 1.415 . S
C1900 C1899 1.355 . S
C1900 C1902 1.419 . S
C1901 C1896 1.425 . S
C1901 C1898 1.409 . S
C1901 C1899 1.415 . S
C1902 H1892 0.930 . S
C1902 C1900 1.419 . S
C1902 C1903 1.362 . S
C1903 H1893 0.930 . S
C1903 C1896 1.409 . S
C1903 C1902 1.362 . S
H1904 C1910 0.930 . S
H1905 C1913 0.930 . S
H1906 C1914 0.930 . S
H1907 C1915 0.930 . S
H1908 C1918 0.930 . S
H1909 C1919 0.930 . S
C1910 H1904 0.930 . S
C1910 C1911 1.355 . S
C1910 C1912 1.415 . S
C1911 C1910 1.355 . S
C1911 C1913 1.419 . S
C1912 C1910 1.415 . S
C1912 C1917 1.425 . S
C1912 C1919 1.409 . S
C1913 H1905 0.930 . S
C1913 C1911 1.419 . S
C1913 C1914 1.362 . S
C1914 H1906 0.930 . S
C1914 C1913 1.362 . S
C1914 C1917 1.409 . S
C1915 H1907 0.930 . S
C1915 C1916 1.355 . S
C1915 C1917 1.415 . S
C1916 C1915 1.355 . S
C1916 C1918 1.419 . S
C1917 C1912 1.425 . S
C1917 C1914 1.409 . S
C1917 C1915 1.415 . S
C1918 H1908 0.930 . S
C1918 C1916 1.419 . S
C1918 C1919 1.362 . S
C1919 H1909 0.930 . S
C1919 C1912 1.409 . S
C1919 C1918 1.362 . S
H1920 C1926 0.930 . S
H1921 C1929 0.930 . S
H1922 C1930 0.930 . S
H1923 C1931 0.930 . S
H1924 C1934 0.930 . S
H1925 C1935 0.930 . S
C1926 H1920 0.930 . S
C1926 C1927 1.355 . S
C1926 C1928 1.415 . S
C1927 C1926 1.355 . S
C1927 C1929 1.419 . S
C1928 C1926 1.415 . S
C1928 C1933 1.425 . S
C1928 C1935 1.409 . S
C1929 H1921 0.930 . S
C1929 C1927 1.419 . S
C1929 C1930 1.362 . S
C1930 H1922 0.930 . S
C1930 C1929 1.362 . S
C1930 C1933 1.409 . S
C1931 H1923 0.930 . S
C1931 C1932 1.355 . S
C1931 C1933 1.415 . S
C1932 C1931 1.355 . S
C1932 C1934 1.419 . S
C1933 C1928 1.425 . S
C1933 C1930 1.409 . S
C1933 C1931 1.415 . S
C1934 H1924 0.930 . S
C1934 C1932 1.419 . S
C1934 C1935 1.362 . S
C1935 H1925 0.930 . S
C1935 C1928 1.409 . S
C1935 C1934 1.362 . S
H1936 C1942 0.930 . S
H1937 C1945 0.930 . S
H1938 C1946 0.930 . S
H1939 C1947 0.930 . S
H1940 C1950 0.930 . S
H1941 C1951 0.930 . S
C1942 H1936 0.930 . S
C1942 C1943 1.355 . S
C1942 C1944 1.415 . S
C1943 C1942 1.355 . S
C1943 C1945 1.419 . S
C1944 C1942 1.415 . S
C1944 C1949 1.425 . S
C1944 C1951 1.409 . S
C1945 H1937 0.930 . S
C1945 C1943 1.419 . S
C1945 C1946 1.362 . S
C1946 H1938 0.930 . S
C1946 C1945 1.362 . S
C1946 C1949 1.409 . S
C1947 H1939 0.930 . S
C1947 C1948 1.355 . S
C1947 C1949 1.415 . S
C1948 C1947 1.355 . S
C1948 C1950 1.419 . S
C1949 C1944 1.425 . S
C1949 C1946 1.409 . S
C1949 C1947 1.415 . S
C1950 H1940 0.930 . S
C1950 C1948 1.419 . S
C1950 C1951 1.362 . S
C1951 H1941 0.930 . S
C1951 C1944 1.409 . S
C1951 C1950 1.362 . S
H1952 C1958 0.930 . S
H1953 C1961 0.930 . S
H1954 C1962 0.930 . S
H1955 C1963 0.930 . S
H1956 C1966 0.930 . S
H1957 C1967 0.930 . S
C1958 H1952 0.930 . S
C1958 C1959 1.355 . S
C1958 C1960 1.415 . S
C1959 C1958 1.355 . S
C1959 C1961 1.419 . S
C1960 C1958 1.415 . S
C1960 C1965 1.425 . S
C1960 C1967 1.409 . S
C1961 H1953 0.930 . S
C1961 C1959 1.419 . S
C1961 C1962 1.362 . S
C1962 H1954 0.930 . S
C1962 C1961 1.362 . S
C1962 C1965 1.409 . S
C1963 H1955 0.930 . S
C1963 C1964 1.355 . S
C1963 C1965 1.415 . S
C1964 C1963 1.355 . S
C1964 C1966 1.419 . S
C1965 C1960 1.425 . S
C1965 C1962 1.409 . S
C1965 C1963 1.415 . S
C1966 H1956 0.930 . S
C1966 C1964 1.419 . S
C1966 C1967 1.362 . S
C1967 H1957 0.930 . S
C1967 C1960 1.409 . S
C1967 C1966 1.362 . S
H1968 C1974 0.930 . S
H1969 C1977 0.930 . S
H1970 C1978 0.930 . S
H1971 C1979 0.930 . S
H1972 C1982 0.930 . S
H1973 C1983 0.930 . S
C1974 H1968 0.930 . S
C1974 C1975 1.355 . S
C1974 C1976 1.415 . S
C1975 C1974 1.355 . S
C1975 C1977 1.419 . S
C1976 C1974 1.415 . S
C1976 C1981 1.425 . S
C1976 C1983 1.409 . S
C1977 H1969 0.930 . S
C1977 C1975 1.419 . S
C1977 C1978 1.362 . S
C1978 H1970 0.930 . S
C1978 C1977 1.362 . S
C1978 C1981 1.409 . S
C1979 H1971 0.930 . S
C1979 C1980 1.355 . S
C1979 C1981 1.415 . S
C1980 C1979 1.355 . S
C1980 C1982 1.419 . S
C1981 C1976 1.425 . S
C1981 C1978 1.409 . S
C1981 C1979 1.415 . S
C1982 H1972 0.930 . S
C1982 C1980 1.419 . S
C1982 C1983 1.362 . S
C1983 H1973 0.930 . S
C1983 C1976 1.409 . S
C1983 C1982 1.362 . S
H1984 C1990 0.930 . S
H1985 C1993 0.930 . S
H1986 C1994 0.930 . S
H1987 C1995 0.930 . S
H1988 C1998 0.930 . S
H1989 C1999 0.930 . S
C1990 H1984 0.930 . S
C1990 C1991 1.355 . S
C1990 C1992 1.415 . S
C1991 C1990 1.355 . S
C1991 C1993 1.419 . S
C1992 C1990 1.415 . S
C1992 C1997 1.425 . S
C1992 C1999 1.409 . S
C1993 H1985 0.930 . S
C1993 C1991 1.419 . S
C1993 C1994 1.362 . S
C1994 H1986 0.930 . S
C1994 C1993 1.362 . S
C1994 C1997 1.409 . S
C1995 H1987 0.930 . S
C1995 C1996 1.355 . S
C1995 C1997 1.415 . S
C1996 C1995 1.355 . S
C1996 C1998 1.419 . S
C1997 C1992 1.425 . S
C1997 C1994 1.409 . S
C1997 C1995 1.415 . S
C1998 H1988 0.930 . S
C1998 C1996 1.419 . S
C1998 C1999 1.362 . S
C1999 H1989 0.930 . S
C1999 C1992 1.409 . S
C1999 C1998 1.362 . S
H2000 C2006 0.930 . S
H2001 C2009 0.930 . S
H2002 C2010 0.930 . S
H2003 C2011 0.930 . S
H2004 C2014 0.930 . S
H2005 C2015 0.930 . S
C2006 H2000 0.930 . S
C2006 C2007 1.355 . S
C2006 C2008 1.415 . S
C2007 C2006 1.355 . S
C2007 C2009 1.419 . S
C2008 C2006 1.415 . S
C2008 C2013 1.425 . S
C2008 C2015 1.409 . S
C2009 H2001 0.930 . S
C2009 C2007 1.419 . S
C2009 C2010 1.362 . S
C2010 H2002 0.930 . S
C2010 C2009 1.362 . S
C2010 C2013 1.409 . S
C2011 H2003 0.930 . S
C2011 C2012 1.355 . S
C2011 C2013 1.415 . S
C2012 C2011 1.355 . S
C2012 C2014 1.419 . S
C2013 C2008 1.425 . S
C2013 C2010 1.409 . S
C2013 C2011 1.415 . S
C2014 H2004 0.930 . S
C2014 C2012 1.419 . S
C2014 C2015 1.362 . S
C2015 H2005 0.930 . S
C2015 C2008 1.409 . S
C2015 C2014 1.362 . S
H2016 C2022 0.930 . S
H2017 C2025 0.930 . S
H2018 C2026 0.930 . S
H2019 C2027 0.930 . S
H2020 C2030 0.930 . S
H2021 C2031 0.930 . S
C2022 H2016 0.930 . S
C2022 C2023 1.355 . S
C2022 C2024 1.415 . S
C2023 C2022 1.355 . S
C2023 C2025 1.419 . S
C2024 C2022 1.415 . S
C2024 C2029 1.425 . S
C2024 C2031 1.409 . S
C2025 H2017 0.930 . S
C2025 C2023 1.419 . S
C2025 C2026 1.362 . S
C2026 H2018 0.930 . S
C2026 C2025 1.362 . S
C2026 C2029 1.409 . S
C2027 H2019 0.930 . S
C2027 C2028 1.355 . S
C2027 C2029 1.415 . S
C2028 C2027 1.355 . S
C2028 C2030 1.419 . S
C2029 C2024 1.425 . S
C2029 C2026 1.409 . S
C2029 C2027 1.415 . S
C2030 H2020 0.930 . S
C2030 C2028 1.419 . S
C2030 C2031 1.362 . S
C2031 H2021 0.930 . S
C2031 C2024 1.409 . S
C2031 C2030 1.362 . S
H2032 C2038 0.930 . S
H2033 C2041 0.930 . S
H2034 C2042 0.930 . S
H2035 C2043 0.930 . S
H2036 C2046 0.930 . S
H2037 C2047 0.930 . S
C2038 H2032 0.930 . S
C2038 C2039 1.355 . S
C2038 C2040 1.415 . S
C2039 C2038 1.355 . S
C2039 C2041 1.419 . S
C2040 C2038 1.415 . S
C2040 C2045 1.425 . S
C2040 C2047 1.409 . S
C2041 H2033 0.930 . S
C2041 C2039 1.419 . S
C2041 C2042 1.362 . S
C2042 H2034 0.930 . S
C2042 C2041 1.362 . S
C2042 C2045 1.409 . S
C2043 H2035 0.930 . S
C2043 C2044 1.355 . S
C2043 C2045 1.415 . S
C2044 C2043 1.355 . S
C2044 C2046 1.419 . S
C2045 C2040 1.425 . S
C2045 C2042 1.409 . S
C2045 C2043 1.415 . S
C2046 H2036 0.930 . S
C2046 C2044 1.419 . S
C2046 C2047 1.362 . S
C2047 H2037 0.930 . S
C2047 C2040 1.409 . S
C2047 C2046 1.362 . S
H2048 C2054 0.930 . S
H2049 C2057 0.930 . S
H2050 C2058 0.930 . S
H2051 C2059 0.930 . S
H2052 C2062 0.930 . S
H2053 C2063 0.930 . S
C2054 H2048 0.930 . S
C2054 C2055 1.355 . S
C2054 C2056 1.415 . S
C2055 C2054 1.355 . S
C2055 C2057 1.419 . S
C2056 C2054 1.415 . S
C2056 C2061 1.425 . S
C2056 C2063 1.409 . S
C2057 H2049 0.930 . S
C2057 C2055 1.419 . S
C2057 C2058 1.362 . S
C2058 H2050 0.930 . S
C2058 C2057 1.362 . S
C2058 C2061 1.409 . S
C2059 H2051 0.930 . S
C2059 C2060 1.355 . S
C2059 C2061 1.415 . S
C2060 C2059 1.355 . S
C2060 C2062 1.419 . S
C2061 C2056 1.425 . S
C2061 C2058 1.409 . S
C2061 C2059 1.415 . S
C2062 H2052 0.930 . S
C2062 C2060 1.419 . S
C2062 C2063 1.362 . S
C2063 H2053 0.930 . S
C2063 C2056 1.409 . S
C2063 C2062 1.362 . S
H2064 C2070 0.930 . S
H2065 C2073 0.930 . S
H2066 C2074 0.930 . S
H2067 C2075 0.930 . S
H2068 C2078 0.930 . S
H2069 C2079 0.930 . S
C2070 H2064 0.930 . S
C2070 C2071 1.355 . S
C2070 C2072 1.415 . S
C2071 C2070 1.355 . S
C2071 C2073 1.419 . S
C2072 C2070 1.415 . S
C2072 C2077 1.425 . S
C2072 C2079 1.409 . S
C2073 H2065 0.930 . S
C2073 C2071 1.419 . S
C2073 C2074 1.362 . S
C2074 H2066 0.930 . S
C2074 C2073 1.362 . S
C2074 C2077 1.409 . S
C2075 H2067 0.930 . S
C2075 C2076 1.355 . S
C2075 C2077 1.415 . S
C2076 C2075 1.355 . S
C2076 C2078 1.419 . S
C2077 C2072 1.425 . S
C2077 C2074 1.409 . S
C2077 C2075 1.415 . S
C2078 H2068 0.930 . S
C2078 C2076 1.419 . S
C2078 C2079 1.362 . S
C2079 H2069 0.930 . S
C2079 C2072 1.409 . S
C2079 C2078 1.362 . S
H2080 C2086 0.930 . S
H2081 C2089 0.930 . S
H2082 C2090 0.930 . S
H2083 C2091 0.930 . S
H2084 C2094 0.930 . S
H2085 C2095 0.930 . S
C2086 H2080 0.930 . S
C2086 C2087 1.355 . S
C2086 C2088 1.415 . S
C2087 C2086 1.355 . S
C2087 C2089 1.419 . S
C2088 C2086 1.415 . S
C2088 C2093 1.425 . S
C2088 C2095 1.409 . S
C2089 H2081 0.930 . S
C2089 C2087 1.419 . S
C2089 C2090 1.362 . S
C2090 H2082 0.930 . S
C2090 C2089 1.362 . S
C2090 C2093 1.409 . S
C2091 H2083 0.930 . S
C2091 C2092 1.355 . S
C2091 C2093 1.415 . S
C2092 C2091 1.355 . S
C2092 C2094 1.419 . S
C2093 C2088 1.425 . S
C2093 C2090 1.409 . S
C2093 C2091 1.415 . S
C2094 H2084 0.930 . S
C2094 C2092 1.419 . S
C2094 C2095 1.362 . S
C2095 H2085 0.930 . S
C2095 C2088 1.409 . S
C2095 C2094 1.362 . S
H2096 C2102 0.930 . S
H2097 C2105 0.930 . S
H2098 C2106 0.930 . S
H2099 C2107 0.930 . S
H2100 C2110 0.930 . S
H2101 C2111 0.930 . S
C2102 H2096 0.930 . S
C2102 C2103 1.355 . S
C2102 C2104 1.415 . S
C2103 C2102 1.355 . S
C2103 C2105 1.419 . S
C2104 C2102 1.415 . S
C2104 C2109 1.425 . S
C2104 C2111 1.409 . S
C2105 H2097 0.930 . S
C2105 C2103 1.419 . S
C2105 C2106 1.362 . S
C2106 H2098 0.930 . S
C2106 C2105 1.362 . S
C2106 C2109 1.409 . S
C2107 H2099 0.930 . S
C2107 C2108 1.355 . S
C2107 C2109 1.415 . S
C2108 C2107 1.355 . S
C2108 C2110 1.419 . S
C2109 C2104 1.425 . S
C2109 C2106 1.409 . S
C2109 C2107 1.415 . S
C2110 H2100 0.930 . S
C2110 C2108 1.419 . S
C2110 C2111 1.362 . S
C2111 H2101 0.930 . S
C2111 C2104 1.409 . S
C2111 C2110 1.362 . S
H2112 C2118 0.930 . S
H2113 C2121 0.930 . S
H2114 C2122 0.930 . S
H2115 C2123 0.930 . S
H2116 C2126 0.930 . S
H2117 C2127 0.930 . S
C2118 H2112 0.930 . S
C2118 C2119 1.355 . S
C2118 C2120 1.415 . S
C2119 C2118 1.355 . S
C2119 C2121 1.419 . S
C2120 C2118 1.415 . S
C2120 C2125 1.425 . S
C2120 C2127 1.409 . S
C2121 H2113 0.930 . S
C2121 C2119 1.419 . S
C2121 C2122 1.362 . S
C2122 H2114 0.930 . S
C2122 C2121 1.362 . S
C2122 C2125 1.409 . S
C2123 H2115 0.930 . S
C2123 C2124 1.355 . S
C2123 C2125 1.415 . S
C2124 C2123 1.355 . S
C2124 C2126 1.419 . S
C2125 C2120 1.425 . S
C2125 C2122 1.409 . S
C2125 C2123 1.415 . S
C2126 H2116 0.930 . S
C2126 C2124 1.419 . S
C2126 C2127 1.362 . S
C2127 H2117 0.930 . S
C2127 C2120 1.409 . S
C2127 C2126 1.362 . S
H2128 C2134 0.930 . S
H2129 C2137 0.930 . S
H2130 C2138 0.930 . S
H2131 C2139 0.930 . S
H2132 C2142 0.930 . S
H2133 C2143 0.930 . S
C2134 H2128 0.930 . S
C2134 C2135 1.355 . S
C2134 C2136 1.415 . S
C2135 C2134 1.355 . S
C2135 C2137 1.419 . S
C2136 C2134 1.415 . S
C2136 C2141 1.425 . S
C2136 C2143 1.409 . S
C2137 H2129 0.930 . S
C2137 C2135 1.419 . S
C2137 C2138 1.362 . S
C2138 H2130 0.930 . S
C2138 C2137 1.362 . S
C2138 C2141 1.409 . S
C2139 H2131 0.930 . S
C2139 C2140 1.355 . S
C2139 C2141 1.415 . S
C2140 C2139 1.355 . S
C2140 C2142 1.419 . S
C2141 C2136 1.425 . S
C2141 C2138 1.409 . S
C2141 C2139 1.415 . S
C2142 H2132 0.930 . S
C2142 C2140 1.419 . S
C2142 C2143 1.362 . S
C2143 H2133 0.930 . S
C2143 C2136 1.409 . S
C2143 C2142 1.362 . S
H2144 C2150 0.930 . S
H2145 C2153 0.930 . S
H2146 C2154 0.930 . S
H2147 C2155 0.930 . S
H2148 C2158 0.930 . S
H2149 C2159 0.930 . S
C2150 H2144 0.930 . S
C2150 C2151 1.355 . S
C2150 C2152 1.415 . S
C2151 C2150 1.355 . S
C2151 C2153 1.419 . S
C2152 C2150 1.415 . S
C2152 C2157 1.425 . S
C2152 C2159 1.409 . S
C2153 H2145 0.930 . S
C2153 C2151 1.419 . S
C2153 C2154 1.362 . S
C2154 H2146 0.930 . S
C2154 C2153 1.362 . S
C2154 C2157 1.409 . S
C2155 H2147 0.930 . S
C2155 C2156 1.355 . S
C2155 C2157 1.415 . S
C2156 C2155 1.355 . S
C2156 C2158 1.419 . S
C2157 C2152 1.425 . S
C2157 C2154 1.409 . S
C2157 C2155 1.415 . S
C2158 H2148 0.930 . S
C2158 C2156 1.419 . S
C2158 C2159 1.362 . S
C2159 H2149 0.930 . S
C2159 C2152 1.409 . S
C2159 C2158 1.362 . S
H2160 C2166 0.930 . S
H2161 C2169 0.930 . S
H2162 C2170 0.930 . S
H2163 C2171 0.930 . S
H2164 C2174 0.930 . S
H2165 C2175 0.930 . S
C2166 H2160 0.930 . S
C2166 C2167 1.355 . S
C2166 C2168 1.415 . S
C2167 C2166 1.355 . S
C2167 C2169 1.419 . S
C2168 C2166 1.415 . S
C2168 C2173 1.425 . S
C2168 C2175 1.409 . S
C2169 H2161 0.930 . S
C2169 C2167 1.419 . S
C2169 C2170 1.362 . S
C2170 H2162 0.930 . S
C2170 C2169 1.362 . S
C2170 C2173 1.409 . S
C2171 H2163 0.930 . S
C2171 C2172 1.355 . S
C2171 C2173 1.415 . S
C2172 C2171 1.355 . S
C2172 C2174 1.419 . S
C2173 C2168 1.425 . S
C2173 C2170 1.409 . S
C2173 C2171 1.415 . S
C2174 H2164 0.930 . S
C2174 C2172 1.419 . S
C2174 C2175 1.362 . S
C2175 H2165 0.930 . S
C2175 C2168 1.409 . S
C2175 C2174 1.362 . S
H2176 C2182 0.930 . S
H2177 C2185 0.930 . S
H2178 C2186 0.930 . S
H2179 C2187 0.930 . S
H2180 C2190 0.930 . S
H2181 C2191 0.930 . S
C2182 H2176 0.930 . S
C2182 C2183 1.355 . S
C2182 C2184 1.415 . S
C2183 C2182 1.355 . S
C2183 C2185 1.419 . S
C2184 C2182 1.415 . S
C2184 C2189 1.425 . S
C2184 C2191 1.409 . S
C2185 H2177 0.930 . S
C2185 C2183 1.419 . S
C2185 C2186 1.362 . S
C2186 H2178 0.930 . S
C2186 C2185 1.362 . S
C2186 C2189 1.409 . S
C2187 H2179 0.930 . S
C2187 C2188 1.355 . S
C2187 C2189 1.415 . S
C2188 C2187 1.355 . S
C2188 C2190 1.419 . S
C2189 C2184 1.425 . S
C2189 C2186 1.409 . S
C2189 C2187 1.415 . S
C2190 H2180 0.930 . S
C2190 C2188 1.419 . S
C2190 C2191 1.362 . S
C2191 H2181 0.930 . S
C2191 C2184 1.409 . S
C2191 C2190 1.362 . S
H2192 C2198 0.930 . S
H2193 C2201 0.930 . S
H2194 C2202 0.930 . S
H2195 C2203 0.930 . S
H2196 C2206 0.930 . S
H2197 C2207 0.930 . S
C2198 H2192 0.930 . S
C2198 C2199 1.355 . S
C2198 C2200 1.415 . S
C2199 C2198 1.355 . S
C2199 C2201 1.419 . S
C2200 C2198 1.415 . S
C2200 C2205 1.425 . S
C2200 C2207 1.409 . S
C2201 H2193 0.930 . S
C2201 C2199 1.419 . S
C2201 C2202 1.362 . S
C2202 H2194 0.930 . S
C2202 C2201 1.362 . S
C2202 C2205 1.409 . S
C2203 H2195 0.930 . S
C2203 C2204 1.355 . S
C2203 C2205 1.415 . S
C2204 C2203 1.355 . S
C2204 C2206 1.419 . S
C2205 C2200 1.425 . S
C2205 C2202 1.409 . S
C2205 C2203 1.415 . S
C2206 H2196 0.930 . S
C2206 C2204 1.419 . S
C2206 C2207 1.362 . S
C2207 H2197 0.930 . S
C2207 C2200 1.409 . S
C2207 C2206 1.362 . S
H2208 C2214 0.930 . S
H2209 C2217 0.930 . S
H2210 C2218 0.930 . S
H2211 C2219 0.930 . S
H2212 C2222 0.930 . S
H2213 C2223 0.930 . S
C2214 H2208 0.930 . S
C2214 C2215 1.355 . S
C2214 C2216 1.415 . S
C2215 C2214 1.355 . S
C2215 C2217 1.419 . S
C2216 C2214 1.415 . S
C2216 C2221 1.425 . S
C2216 C2223 1.409 . S
C2217 H2209 0.930 . S
C2217 C2215 1.419 . S
C2217 C2218 1.362 . S
C2218 H2210 0.930 . S
C2218 C2217 1.362 . S
C2218 C2221 1.409 . S
C2219 H2211 0.930 . S
C2219 C2220 1.355 . S
C2219 C2221 1.415 . S
C2220 C2219 1.355 . S
C2220 C2222 1.419 . S
C2221 C2216 1.425 . S
C2221 C2218 1.409 . S
C2221 C2219 1.415 . S
C2222 H2212 0.930 . S
C2222 C2220 1.419 . S
C2222 C2223 1.362 . S
C2223 H2213 0.930 . S
C2223 C2216 1.409 . S
C2223 C2222 1.362 . S
H2224 C2230 0.930 . S
H2225 C2233 0.930 . S
H2226 C2234 0.930 . S
H2227 C2235 0.930 . S
H2228 C2238 0.930 . S
H2229 C2239 0.930 . S
C2230 H2224 0.930 . S
C2230 C2231 1.355 . S
C2230 C2232 1.415 . S
C2231 C2230 1.355 . S
C2231 C2233 1.419 . S
C2232 C2230 1.415 . S
C2232 C2237 1.425 . S
C2232 C2239 1.409 . S
C2233 H2225 0.930 . S
C2233 C2231 1.419 . S
C2233 C2234 1.362 . S
C2234 H2226 0.930 . S
C2234 C2233 1.362 . S
C2234 C2237 1.409 . S
C2235 H2227 0.930 . S
C2235 C2236 1.355 . S
C2235 C2237 1.415 . S
C2236 C2235 1.355 . S
C2236 C2238 1.419 . S
C2237 C2232 1.425 . S
C2237 C2234 1.409 . S
C2237 C2235 1.415 . S
C2238 H2228 0.930 . S
C2238 C2236 1.419 . S
C2238 C2239 1.362 . S
C2239 H2229 0.930 . S
C2239 C2232 1.409 . S
C2239 C2238 1.362 . S
H2240 C2246 0.930 . S
H2241 C2249 0.930 . S
H2242 C2250 0.930 . S
H2243 C2251 0.930 . S
H2244 C2254 0.930 . S
H2245 C2255 0.930 . S
C2246 H2240 0.930 . S
C2246 C2247 1.355 . S
C2246 C2248 1.415 . S
C2247 C2246 1.355 . S
C2247 C2249 1.419 . S
C2248 C2246 1.415 . S
C2248 C2253 1.425 . S
C2248 C2255 1.409 . S
C2249 H2241 0.930 . S
C2249 C2247 1.419 . S
C2249 C2250 1.362 . S
C2250 H2242 0.930 . S
C2250 C2249 1.362 . S
C2250 C2253 1.409 . S
C2251 H2243 0.930 . S
C2251 C2252 1.355 . S
C2251 C2253 1.415 . S
C2252 C2251 1.355 . S
C2252 C2254 1.419 . S
C2253 C2248 1.425 . S
C2253 C2250 1.409 . S
C2253 C2251 1.415 . S
C2254 H2244 0.930 . S
C2254 C2252 1.419 . S
C2254 C2255 1.362 . S
C2255 H2245 0.930 . S
C2255 C2248 1.409 . S
C2255 C2254 1.362 . S
H2256 C2262 0.930 . S
H2257 C2265 0.930 . S
H2258 C2266 0.930 . S
H2259 C2267 0.930 . S
H2260 C2270 0.930 . S
H2261 C2271 0.930 . S
C2262 H2256 0.930 . S
C2262 C2263 1.355 . S
C2262 C2264 1.415 . S
C2263 C2262 1.355 . S
C2263 C2265 1.419 . S
C2264 C2262 1.415 . S
C2264 C2269 1.425 . S
C2264 C2271 1.409 . S
C2265 H2257 0.930 . S
C2265 C2263 1.419 . S
C2265 C2266 1.362 . S
C2266 H2258 0.930 . S
C2266 C2265 1.362 . S
C2266 C2269 1.409 . S
C2267 H2259 0.930 . S
C2267 C2268 1.355 . S
C2267 C2269 1.415 . S
C2268 C2267 1.355 . S
C2268 C2270 1.419 . S
C2269 C2264 1.425 . S
C2269 C2266 1.409 . S
C2269 C2267 1.415 . S
C2270 H2260 0.930 . S
C2270 C2268 1.419 . S
C2270 C2271 1.362 . S
C2271 H2261 0.930 . S
C2271 C2264 1.409 . S
C2271 C2270 1.362 . S
H2272 C2278 0.930 . S
H2273 C2281 0.930 . S
H2274 C2282 0.930 . S
H2275 C2283 0.930 . S
H2276 C2286 0.930 . S
H2277 C2287 0.930 . S
C2278 H2272 0.930 . S
C2278 C2279 1.355 . S
C2278 C2280 1.415 . S
C2279 C2278 1.355 . S
C2279 C2281 1.419 . S
C2280 C2278 1.415 . S
C2280 C2285 1.425 . S
C2280 C2287 1.409 . S
C2281 H2273 0.930 . S
C2281 C2279 1.419 . S
C2281 C2282 1.362 . S
C2282 H2274 0.930 . S
C2282 C2281 1.362 . S
C2282 C2285 1.409 . S
C2283 H2275 0.930 . S
C2283 C2284 1.355 . S
C2283 C2285 1.415 . S
C2284 C2283 1.355 . S
C2284 C2286 1.419 . S
C2285 C2280 1.425 . S
C2285 C2282 1.409 . S
C2285 C2283 1.415 . S
C2286 H2276 0.930 . S
C2286 C2284 1.419 . S
C2286 C2287 1.362 . S
C2287 H2277 0.930 . S
C2287 C2280 1.409 . S
C2287 C2286 1.362 . S
H2288 C2294 0.930 . S
H2289 C2297 0.930 . S
H2290 C2298 0.930 . S
H2291 C2299 0.930 . S
H2292 C2302 0.930 . S
H2293 C2303 0.930 . S
C2294 H2288 0.930 . S
C2294 C2295 1.355 . S
C2294 C2296 1.415 . S
C2295 C2294 1.355 . S
C2295 C2297 1.419 . S
C2296 C2294 1.415 . S
C2296 C2301 1.425 . S
C2296 C2303 1.409 . S
C2297 H2289 0.930 . S
C2297 C2295 1.419 . S
C2297 C2298 1.362 . S
C2298 H2290 0.930 . S
C2298 C2297 1.362 . S
C2298 C2301 1.409 . S
C2299 H2291 0.930 . S
C2299 C2300 1.355 . S
C2299 C2301 1.415 . S
C2300 C2299 1.355 . S
C2300 C2302 1.419 . S
C2301 C2296 1.425 . S
C2301 C2298 1.409 . S
C2301 C2299 1.415 . S
C2302 H2292 0.930 . S
C2302 C2300 1.419 . S
C2302 C2303 1.362 . S
C2303 H2293 0.930 . S
C2303 C2296 1.409 . S
C2303 C2302 1.362 . S
H2304 C2310 0.930 . S
H2305 C2313 0.930 . S
H2306 C2314 0.930 . S
H2307 C2315 0.930 . S
H2308 C2318 0.930 . S
H2309 C2319 0.930 . S
C2310 H2304 0.930 . S
C2310 C2311 1.355 . S
C2310 C2312 1.415 . S
C2311 C2310 1.355 . S
C2311 C2313 1.419 . S
C2312 C2310 1.415 . S
C2312 C2317 1.425 . S
C2312 C2319 1.409 . S
C2313 H2305 0.930 . S
C2313 C2311 1.419 . S
C2313 C2314 1.362 . S
C2314 H2306 0.930 . S
C2314 C2313 1.362 . S
C2314 C2317 1.409 . S
C2315 H2307 0.930 . S
C2315 C2316 1.355 . S
C2315 C2317 1.415 . S
C2316 C2315 1.355 . S
C2316 C2318 1.419 . S
C2317 C2312 1.425 . S
C2317 C2314 1.409 . S
C2317 C2315 1.415 . S
C2318 H2308 0.930 . S
C2318 C2316 1.419 . S
C2318 C2319 1.362 . S
C2319 H2309 0.930 . S
C2319 C2312 1.409 . S
C2319 C2318 1.362 . S
H2320 C2326 0.930 . S
H2321 C2329 0.930 . S
H2322 C2330 0.930 . S
H2323 C2331 0.930 . S
H2324 C2334 0.930 . S
H2325 C2335 0.930 . S
C2326 H2320 0.930 . S
C2326 C2327 1.355 . S
C2326 C2328 1.415 . S
C2327 C2326 1.355 . S
C2327 C2329 1.419 . S
C2328 C2326 1.415 . S
C2328 C2333 1.425 . S
C2328 C2335 1.409 . S
C2329 H2321 0.930 . S
C2329 C2327 1.419 . S
C2329 C2330 1.362 . S
C2330 H2322 0.930 . S
C2330 C2329 1.362 . S
C2330 C2333 1.409 . S
C2331 H2323 0.930 . S
C2331 C2332 1.355 . S
C2331 C2333 1.415 . S
C2332 C2331 1.355 . S
C2332 C2334 1.419 . S
C2333 C2328 1.425 . S
C2333 C2330 1.409 . S
C2333 C2331 1.415 . S
C2334 H2324 0.930 . S
C2334 C2332 1.419 . S
C2334 C2335 1.362 . S
C2335 H2325 0.930 . S
C2335 C2328 1.409 . S
C2335 C2334 1.362 . S
H2336 C2342 0.930 . S
H2337 C2345 0.930 . S
H2338 C2346 0.930 . S
H2339 C2347 0.930 . S
H2340 C2350 0.930 . S
H2341 C2351 0.930 . S
C2342 H2336 0.930 . S
C2342 C2343 1.355 . S
C2342 C2344 1.415 . S
C2343 C2342 1.355 . S
C2343 C2345 1.419 . S
C2344 C2342 1.415 . S
C2344 C2349 1.425 . S
C2344 C2351 1.409 . S
C2345 H2337 0.930 . S
C2345 C2343 1.419 . S
C2345 C2346 1.362 . S
C2346 H2338 0.930 . S
C2346 C2345 1.362 . S
C2346 C2349 1.409 . S
C2347 H2339 0.930 . S
C2347 C2348 1.355 . S
C2347 C2349 1.415 . S
C2348 C2347 1.355 . S
C2348 C2350 1.419 . S
C2349 C2344 1.425 . S
C2349 C2346 1.409 . S
C2349 C2347 1.415 . S
C2350 H2340 0.930 . S
C2350 C2348 1.419 . S
C2350 C2351 1.362 . S
C2351 H2341 0.930 . S
C2351 C2344 1.409 . S
C2351 C2350 1.362 . S
H2352 C2358 0.930 . S
H2353 C2361 0.930 . S
H2354 C2362 0.930 . S
H2355 C2363 0.930 . S
H2356 C2366 0.930 . S
H2357 C2367 0.930 . S
C2358 H2352 0.930 . S
C2358 C2359 1.355 . S
C2358 C2360 1.415 1_455 S
C2359 C2358 1.355 . S
C2359 C2361 1.419 . S
C2360 C2358 1.415 1_655 S
C2360 C2365 1.425 1_655 S
C2360 C2367 1.409 . S
C2361 H2353 0.930 . S
C2361 C2359 1.419 . S
C2361 C2362 1.362 . S
C2362 H2354 0.930 . S
C2362 C2361 1.362 . S
C2362 C2365 1.409 . S
C2363 H2355 0.930 . S
C2363 C2364 1.355 . S
C2363 C2365 1.415 1_655 S
C2364 C2363 1.355 . S
C2364 C2366 1.419 . S
C2365 C2360 1.425 1_455 S
C2365 C2362 1.409 . S
C2365 C2363 1.415 1_455 S
C2366 H2356 0.930 . S
C2366 C2364 1.419 . S
C2366 C2367 1.362 . S
C2367 H2357 0.930 . S
C2367 C2360 1.409 . S
C2367 C2366 1.362 . S
H2368 C2374 0.930 . S
H2369 C2377 0.930 . S
H2370 C2378 0.930 . S
H2371 C2379 0.930 . S
H2372 C2382 0.930 . S
H2373 C2383 0.930 . S
C2374 H2368 0.930 . S
C2374 C2375 1.355 . S
C2374 C2376 1.415 1_655 S
C2375 C2374 1.355 . S
C2375 C2377 1.419 . S
C2376 C2374 1.415 1_455 S
C2376 C2381 1.425 1_455 S
C2376 C2383 1.409 . S
C2377 H2369 0.930 . S
C2377 C2375 1.419 . S
C2377 C2378 1.362 . S
C2378 H2370 0.930 . S
C2378 C2377 1.362 . S
C2378 C2381 1.409 . S
C2379 H2371 0.930 . S
C2379 C2380 1.355 . S
C2379 C2381 1.415 1_455 S
C2380 C2379 1.355 . S
C2380 C2382 1.419 . S
C2381 C2376 1.425 1_655 S
C2381 C2378 1.409 . S
C2381 C2379 1.415 1_655 S
C2382 H2372 0.930 . S
C2382 C2380 1.419 . S
C2382 C2383 1.362 . S
C2383 H2373 0.930 . S
C2383 C2376 1.409 . S
C2383 C2382 1.362 . S
H2384 C2390 0.930 . S
H2385 C2393 0.930 . S
H2386 C2394 0.930 . S
H2387 C2395 0.930 . S
H2388 C2398 0.930 . S
H2389 C2399 0.930 . S
C2390 H2384 0.930 . S
C2390 C2391 1.355 . S
C2390 C2392 1.415 . S
C2391 C2390 1.355 . S
C2391 C2393 1.419 . S
C2392 C2390 1.415 . S
C2392 C2397 1.425 1_545 S
C2392 C2399 1.409 . S
C2393 H2385 0.930 . S
C2393 C2391 1.419 . S
C2393 C2394 1.362 1_545 S
C2394 H2386 0.930 . S
C2394 C2393 1.362 1_565 S
C2394 C2397 1.409 . S
C2395 H2387 0.930 . S
C2395 C2396 1.355 . S
C2395 C2397 1.415 . S
C2396 C2395 1.355 . S
C2396 C2398 1.419 . S
C2397 C2392 1.425 1_565 S
C2397 C2394 1.409 . S
C2397 C2395 1.415 . S
C2398 H2388 0.930 . S
C2398 C2396 1.419 . S
C2398 C2399 1.362 1_565 S
C2399 H2389 0.930 . S
C2399 C2392 1.409 . S
C2399 C2398 1.362 1_545 S
H2400 C2406 0.930 . S
H2401 C2409 0.930 . S
H2402 C2410 0.930 . S
H2403 C2411 0.930 . S
H2404 C2414 0.930 . S
H2405 C2415 0.930 . S
C2406 H2400 0.930 . S
C2406 C2407 1.355 . S
C2406 C2408 1.415 . S
C2407 C2406 1.355 . S
C2407 C2409 1.419 . S
C2408 C2406 1.415 . S
C2408 C2413 1.425 . S
C2408 C2415 1.409 . S
C2409 H2401 0.930 . S
C2409 C2407 1.419 . S
C2409 C2410 1.362 . S
C2410 H2402 0.930 . S
C2410 C2409 1.362 . S
C2410 C2413 1.409 . S
C2411 H2403 0.930 . S
C2411 C2412 1.355 . S
C2411 C2413 1.415 . S
C2412 C2411 1.355 . S
C2412 C2414 1.419 . S
C2413 C2408 1.425 . S
C2413 C2410 1.409 . S
C2413 C2411 1.415 . S
C2414 H2404 0.930 . S
C2414 C2412 1.419 . S
C2414 C2415 1.362 . S
C2415 H2405 0.930 . S
C2415 C2408 1.409 . S
C2415 C2414 1.362 . S
H2416 C2422 0.930 . S
H2417 C2425 0.930 . S
H2418 C2426 0.930 . S
H2419 C2427 0.930 . S
H2420 C2430 0.930 . S
H2421 C2431 0.930 . S
C2422 H2416 0.930 . S
C2422 C2423 1.355 . S
C2422 C2424 1.415 . S
C2423 C2422 1.355 . S
C2423 C2425 1.419 . S
C2424 C2422 1.415 . S
C2424 C2429 1.425 1_556 S
C2424 C2431 1.409 . S
C2425 H2417 0.930 . S
C2425 C2423 1.419 . S
C2425 C2426 1.362 1_556 S
C2426 H2418 0.930 . S
C2426 C2425 1.362 1_554 S
C2426 C2429 1.409 . S
C2427 H2419 0.930 . S
C2427 C2428 1.355 . S
C2427 C2429 1.415 . S
C2428 C2427 1.355 . S
C2428 C2430 1.419 . S
C2429 C2424 1.425 1_554 S
C2429 C2426 1.409 . S
C2429 C2427 1.415 . S
C2430 H2420 0.930 . S
C2430 C2428 1.419 . S
C2430 C2431 1.362 1_554 S
C2431 H2421 0.930 . S
C2431 C2424 1.409 . S
C2431 C2430 1.362 1_556 S
H2432 C2438 0.930 . S
H2433 C2441 0.930 . S
H2434 C2442 0.930 . S
H2435 C2443 0.930 . S
H2436 C2446 0.930 . S
H2437 C2447 0.930 . S
C2438 H2432 0.930 . S
C2438 C2439 1.355 . S
C2438 C2440 1.415 . S
C2439 C2438 1.355 . S
C2439 C2441 1.419 . S
C2440 C2438 1.415 . S
C2440 C2445 1.425 . S
C2440 C2447 1.409 . S
C2441 H2433 0.930 . S
C2441 C2439 1.419 . S
C2441 C2442 1.362 . S
C2442 H2434 0.930 . S
C2442 C2441 1.362 . S
C2442 C2445 1.409 . S
C2443 H2435 0.930 . S
C2443 C2444 1.355 . S
C2443 C2445 1.415 . S
C2444 C2443 1.355 . S
C2444 C2446 1.419 . S
C2445 C2440 1.425 . S
C2445 C2442 1.409 . S
C2445 C2443 1.415 . S
C2446 H2436 0.930 . S
C2446 C2444 1.419 . S
C2446 C2447 1.362 . S
C2447 H2437 0.930 . S
C2447 C2440 1.409 . S
C2447 C2446 1.362 . S
H2448 C2454 0.930 . S
H2449 C2457 0.930 . S
H2450 C2458 0.930 . S
H2451 C2459 0.930 . S
H2452 C2462 0.930 . S
H2453 C2463 0.930 . S
C2454 H2448 0.930 . S
C2454 C2455 1.355 . S
C2454 C2456 1.415 . S
C2455 C2454 1.355 . S
C2455 C2457 1.419 . S
C2456 C2454 1.415 . S
C2456 C2461 1.425 . S
C2456 C2463 1.409 . S
C2457 H2449 0.930 . S
C2457 C2455 1.419 . S
C2457 C2458 1.362 . S
C2458 H2450 0.930 . S
C2458 C2457 1.362 . S
C2458 C2461 1.409 . S
C2459 H2451 0.930 . S
C2459 C2460 1.355 . S
C2459 C2461 1.415 . S
C2460 C2459 1.355 . S
C2460 C2462 1.419 . S
C2461 C2456 1.425 . S
C2461 C2458 1.409 . S
C2461 C2459 1.415 . S
C2462 H2452 0.930 . S
C2462 C2460 1.419 . S
C2462 C2463 1.362 . S
C2463 H2453 0.930 . S
C2463 C2456 1.409 . S
C2463 C2462 1.362 . S
H2464 C2470 0.930 . S
H2465 C2473 0.930 . S
H2466 C2474 0.930 . S
H2467 C2475 0.930 . S
H2468 C2478 0.930 . S
H2469 C2479 0.930 . S
C2470 H2464 0.930 . S
C2470 C2471 1.355 . S
C2470 C2472 1.415 . S
C2471 C2470 1.355 . S
C2471 C2473 1.419 . S
C2472 C2470 1.415 . S
C2472 C2477 1.425 1_655 S
C2472 C2479 1.409 . S
C2473 H2465 0.930 . S
C2473 C2471 1.419 . S
C2473 C2474 1.362 1_655 S
C2474 H2466 0.930 . S
C2474 C2473 1.362 1_455 S
C2474 C2477 1.409 . S
C2475 H2467 0.930 . S
C2475 C2476 1.355 . S
C2475 C2477 1.415 . S
C2476 C2475 1.355 . S
C2476 C2478 1.419 . S
C2477 C2472 1.425 1_455 S
C2477 C2474 1.409 . S
C2477 C2475 1.415 . S
C2478 H2468 0.930 . S
C2478 C2476 1.419 . S
C2478 C2479 1.362 1_455 S
C2479 H2469 0.930 . S
C2479 C2472 1.409 . S
C2479 C2478 1.362 1_655 S
H2480 C2486 0.930 . S
H2481 C2489 0.930 . S
H2482 C2490 0.930 . S
H2483 C2491 0.930 . S
H2484 C2494 0.930 . S
H2485 C2495 0.930 . S
C2486 H2480 0.930 . S
C2486 C2487 1.355 . S
C2486 C2488 1.415 . S
C2487 C2486 1.355 . S
C2487 C2489 1.419 . S
C2488 C2486 1.415 . S
C2488 C2493 1.425 1_655 S
C2488 C2495 1.409 . S
C2489 H2481 0.930 . S
C2489 C2487 1.419 . S
C2489 C2490 1.362 1_655 S
C2490 H2482 0.930 . S
C2490 C2489 1.362 1_455 S
C2490 C2493 1.409 . S
C2491 H2483 0.930 . S
C2491 C2492 1.355 . S
C2491 C2493 1.415 . S
C2492 C2491 1.355 . S
C2492 C2494 1.419 . S
C2493 C2488 1.425 1_455 S
C2493 C2490 1.409 . S
C2493 C2491 1.415 . S
C2494 H2484 0.930 . S
C2494 C2492 1.419 . S
C2494 C2495 1.362 1_455 S
C2495 H2485 0.930 . S
C2495 C2488 1.409 . S
C2495 C2494 1.362 1_655 S
H2496 C2502 0.930 . S
H2497 C2505 0.930 . S
H2498 C2506 0.930 1_565 S
H2499 C2507 0.930 . S
H2500 C2510 0.930 . S
H2501 C2511 0.930 1_545 S
C2502 H2496 0.930 . S
C2502 C2503 1.355 . S
C2502 C2504 1.415 . S
C2503 C2502 1.355 . S
C2503 C2505 1.419 . S
C2504 C2502 1.415 . S
C2504 C2509 1.425 1_545 S
C2504 C2511 1.409 1_545 S
C2505 H2497 0.930 . S
C2505 C2503 1.419 . S
C2505 C2506 1.362 . S
C2506 H2498 0.930 1_545 S
C2506 C2505 1.362 . S
C2506 C2509 1.409 1_545 S
C2507 H2499 0.930 . S
C2507 C2508 1.355 . S
C2507 C2509 1.415 . S
C2508 C2507 1.355 . S
C2508 C2510 1.419 . S
C2509 C2504 1.425 1_565 S
C2509 C2506 1.409 1_565 S
C2509 C2507 1.415 . S
C2510 H2500 0.930 . S
C2510 C2508 1.419 . S
C2510 C2511 1.362 . S
C2511 H2501 0.930 1_565 S
C2511 C2504 1.409 1_565 S
C2511 C2510 1.362 . S
H2512 C2518 0.930 . S
H2513 C2521 0.930 . S
H2514 C2522 0.930 . S
H2515 C2523 0.930 . S
H2516 C2526 0.930 . S
H2517 C2527 0.930 . S
C2518 H2512 0.930 . S
C2518 C2519 1.355 . S
C2518 C2520 1.415 . S
C2519 C2518 1.355 . S
C2519 C2521 1.419 . S
C2520 C2518 1.415 . S
C2520 C2525 1.425 . S
C2520 C2527 1.409 . S
C2521 H2513 0.930 . S
C2521 C2519 1.419 . S
C2521 C2522 1.362 . S
C2522 H2514 0.930 . S
C2522 C2521 1.362 . S
C2522 C2525 1.409 . S
C2523 H2515 0.930 . S
C2523 C2524 1.355 . S
C2523 C2525 1.415 . S
C2524 C2523 1.355 . S
C2524 C2526 1.419 . S
C2525 C2520 1.425 . S
C2525 C2522 1.409 . S
C2525 C2523 1.415 . S
C2526 H2516 0.930 . S
C2526 C2524 1.419 . S
C2526 C2527 1.362 . S
C2527 H2517 0.930 . S
C2527 C2520 1.409 . S
C2527 C2526 1.362 . S
H2528 C2534 0.930 . S
H2529 C2537 0.930 . S
H2530 C2538 0.930 . S
H2531 C2539 0.930 . S
H2532 C2542 0.930 . S
H2533 C2543 0.930 . S
C2534 H2528 0.930 . S
C2534 C2535 1.355 . S
C2534 C2536 1.415 1_556 S
C2535 C2534 1.355 . S
C2535 C2537 1.419 . S
C2536 C2534 1.415 1_554 S
C2536 C2541 1.425 1_554 S
C2536 C2543 1.409 . S
C2537 H2529 0.930 . S
C2537 C2535 1.419 . S
C2537 C2538 1.362 . S
C2538 H2530 0.930 . S
C2538 C2537 1.362 . S
C2538 C2541 1.409 . S
C2539 H2531 0.930 . S
C2539 C2540 1.355 . S
C2539 C2541 1.415 1_554 S
C2540 C2539 1.355 . S
C2540 C2542 1.419 . S
C2541 C2536 1.425 1_556 S
C2541 C2538 1.409 . S
C2541 C2539 1.415 1_556 S
C2542 H2532 0.930 . S
C2542 C2540 1.419 . S
C2542 C2543 1.362 . S
C2543 H2533 0.930 . S
C2543 C2536 1.409 . S
C2543 C2542 1.362 . S
H2544 C2550 0.930 . S
H2545 C2553 0.930 . S
H2546 C2554 0.930 . S
H2547 C2555 0.930 . S
H2548 C2558 0.930 . S
H2549 C2559 0.930 . S
C2550 H2544 0.930 . S
C2550 C2551 1.355 . S
C2550 C2552 1.415 . S
C2551 C2550 1.355 . S
C2551 C2553 1.419 . S
C2552 C2550 1.415 . S
C2552 C2557 1.425 . S
C2552 C2559 1.409 . S
C2553 H2545 0.930 . S
C2553 C2551 1.419 . S
C2553 C2554 1.362 . S
C2554 H2546 0.930 . S
C2554 C2553 1.362 . S
C2554 C2557 1.409 . S
C2555 H2547 0.930 . S
C2555 C2556 1.355 . S
C2555 C2557 1.415 . S
C2556 C2555 1.355 . S
C2556 C2558 1.419 . S
C2557 C2552 1.425 . S
C2557 C2554 1.409 . S
C2557 C2555 1.415 . S
C2558 H2548 0.930 . S
C2558 C2556 1.419 . S
C2558 C2559 1.362 . S
C2559 H2549 0.930 . S
C2559 C2552 1.409 . S
C2559 C2558 1.362 . S
H2560 C2566 0.930 . S
H2561 C2569 0.930 . S
H2562 C2570 0.930 . S
H2563 C2571 0.930 . S
H2564 C2574 0.930 . S
H2565 C2575 0.930 . S
C2566 H2560 0.930 . S
C2566 C2567 1.355 . S
C2566 C2568 1.415 . S
C2567 C2566 1.355 . S
C2567 C2569 1.419 . S
C2568 C2566 1.415 . S
C2568 C2573 1.425 . S
C2568 C2575 1.409 . S
C2569 H2561 0.930 . S
C2569 C2567 1.419 . S
C2569 C2570 1.362 . S
C2570 H2562 0.930 . S
C2570 C2569 1.362 . S
C2570 C2573 1.409 . S
C2571 H2563 0.930 . S
C2571 C2572 1.355 . S
C2571 C2573 1.415 . S
C2572 C2571 1.355 . S
C2572 C2574 1.419 . S
C2573 C2568 1.425 . S
C2573 C2570 1.409 . S
C2573 C2571 1.415 . S
C2574 H2564 0.930 . S
C2574 C2572 1.419 . S
C2574 C2575 1.362 . S
C2575 H2565 0.930 . S
C2575 C2568 1.409 . S
C2575 C2574 1.362 . S
H2576 C2582 0.930 . S
H2577 C2585 0.930 . S
H2578 C2586 0.930 . S
H2579 C2587 0.930 . S
H2580 C2590 0.930 . S
H2581 C2591 0.930 . S
C2582 H2576 0.930 . S
C2582 C2583 1.355 . S
C2582 C2584 1.415 . S
C2583 C2582 1.355 . S
C2583 C2585 1.419 . S
C2584 C2582 1.415 . S
C2584 C2589 1.425 . S
C2584 C2591 1.409 . S
C2585 H2577 0.930 . S
C2585 C2583 1.419 . S
C2585 C2586 1.362 . S
C2586 H2578 0.930 . S
C2586 C2585 1.362 . S
C2586 C2589 1.409 . S
C2587 H2579 0.930 . S
C2587 C2588 1.355 . S
C2587 C2589 1.415 . S
C2588 C2587 1.355 . S
C2588 C2590 1.419 . S
C2589 C2584 1.425 . S
C2589 C2586 1.409 . S
C2589 C2587 1.415 . S
C2590 H2580 0.930 . S
C2590 C2588 1.419 . S
C2590 C2591 1.362 . S
C2591 H2581 0.930 . S
C2591 C2584 1.409 . S
C2591 C2590 1.362 . S
H2592 C2598 0.930 . S
H2593 C2601 0.930 . S
H2594 C2602 0.930 . S
H2595 C2603 0.930 . S
H2596 C2606 0.930 . S
H2597 C2607 0.930 . S
C2598 H2592 0.930 . S
C2598 C2599 1.355 . S
C2598 C2600 1.415 . S
C2599 C2598 1.355 . S
C2599 C2601 1.419 . S
C2600 C2598 1.415 . S
C2600 C2605 1.425 . S
C2600 C2607 1.409 . S
C2601 H2593 0.930 . S
C2601 C2599 1.419 . S
C2601 C2602 1.362 . S
C2602 H2594 0.930 . S
C2602 C2601 1.362 . S
C2602 C2605 1.409 . S
C2603 H2595 0.930 . S
C2603 C2604 1.355 . S
C2603 C2605 1.415 . S
C2604 C2603 1.355 . S
C2604 C2606 1.419 . S
C2605 C2600 1.425 . S
C2605 C2602 1.409 . S
C2605 C2603 1.415 . S
C2606 H2596 0.930 . S
C2606 C2604 1.419 . S
C2606 C2607 1.362 . S
C2607 H2597 0.930 . S
C2607 C2600 1.409 . S
C2607 C2606 1.362 . S
H2608 C2614 0.930 . S
H2609 C2617 0.930 . S
H2610 C2618 0.930 . S
H2611 C2619 0.930 . S
H2612 C2622 0.930 . S
H2613 C2623 0.930 . S
C2614 H2608 0.930 . S
C2614 C2615 1.355 . S
C2614 C2616 1.415 . S
C2615 C2614 1.355 . S
C2615 C2617 1.419 . S
C2616 C2614 1.415 . S
C2616 C2621 1.425 . S
C2616 C2623 1.409 . S
C2617 H2609 0.930 . S
C2617 C2615 1.419 . S
C2617 C2618 1.362 . S
C2618 H2610 0.930 . S
C2618 C2617 1.362 . S
C2618 C2621 1.409 . S
C2619 H2611 0.930 . S
C2619 C2620 1.355 . S
C2619 C2621 1.415 . S
C2620 C2619 1.355 . S
C2620 C2622 1.419 . S
C2621 C2616 1.425 . S
C2621 C2618 1.409 . S
C2621 C2619 1.415 . S
C2622 H2612 0.930 . S
C2622 C2620 1.419 . S
C2622 C2623 1.362 . S
C2623 H2613 0.930 . S
C2623 C2616 1.409 . S
C2623 C2622 1.362 . S
H2624 C2630 0.930 . S
H2625 C2633 0.930 . S
H2626 C2634 0.930 . S
H2627 C2635 0.930 . S
H2628 C2638 0.930 . S
H2629 C2639 0.930 . S
C2630 H2624 0.930 . S
C2630 C2631 1.355 . S
C2630 C2632 1.415 1_545 S
C2631 C2630 1.355 . S
C2631 C2633 1.419 . S
C2632 C2630 1.415 1_565 S
C2632 C2637 1.425 1_565 S
C2632 C2639 1.409 . S
C2633 H2625 0.930 . S
C2633 C2631 1.419 . S
C2633 C2634 1.362 . S
C2634 H2626 0.930 . S
C2634 C2633 1.362 . S
C2634 C2637 1.409 . S
C2635 H2627 0.930 . S
C2635 C2636 1.355 . S
C2635 C2637 1.415 1_565 S
C2636 C2635 1.355 . S
C2636 C2638 1.419 . S
C2637 C2632 1.425 1_545 S
C2637 C2634 1.409 . S
C2637 C2635 1.415 1_545 S
C2638 H2628 0.930 . S
C2638 C2636 1.419 . S
C2638 C2639 1.362 . S
C2639 H2629 0.930 . S
C2639 C2632 1.409 . S
C2639 C2638 1.362 . S
H2640 C2646 0.930 . S
H2641 C2649 0.930 . S
H2642 C2650 0.930 . S
H2643 C2651 0.930 . S
H2644 C2654 0.930 . S
H2645 C2655 0.930 . S
C2646 H2640 0.930 . S
C2646 C2647 1.355 . S
C2646 C2648 1.375 1_554 S
C2647 C2646 1.355 . S
C2647 C2649 1.419 . S
C2648 C2646 1.375 1_556 S
C2648 C2653 1.420 1_556 S
C2648 C2655 1.455 . S
C2649 H2641 0.930 . S
C2649 C2647 1.419 . S
C2649 C2650 1.362 . S
C2650 H2642 0.930 . S
C2650 C2649 1.362 . S
C2650 C2653 1.455 . S
C2651 H2643 0.930 . S
C2651 C2652 1.355 . S
C2651 C2653 1.375 1_556 S
C2652 C2651 1.355 . S
C2652 C2654 1.419 . S
C2653 C2648 1.420 1_554 S
C2653 C2650 1.455 . S
C2653 C2651 1.375 1_554 S
C2654 H2644 0.930 . S
C2654 C2652 1.419 . S
C2654 C2655 1.362 . S
C2655 H2645 0.930 . S
C2655 C2648 1.455 . S
C2655 C2654 1.362 . S
H2656 C2662 0.930 . S
H2657 C2665 0.930 . S
H2658 C2666 0.930 . S
H2659 C2667 0.930 . S
H2660 C2670 0.930 . S
H2661 C2671 0.930 . S
C2662 H2656 0.930 . S
C2662 C2663 1.355 . S
C2662 C2664 1.415 . S
C2663 C2662 1.355 . S
C2663 C2665 1.419 . S
C2664 C2662 1.415 . S
C2664 C2669 1.425 . S
C2664 C2671 1.409 . S
C2665 H2657 0.930 . S
C2665 C2663 1.419 . S
C2665 C2666 1.362 . S
C2666 H2658 0.930 . S
C2666 C2665 1.362 . S
C2666 C2669 1.409 . S
C2667 H2659 0.930 . S
C2667 C2668 1.355 . S
C2667 C2669 1.415 . S
C2668 C2667 1.355 . S
C2668 C2670 1.419 . S
C2669 C2664 1.425 . S
C2669 C2666 1.409 . S
C2669 C2667 1.415 . S
C2670 H2660 0.930 . S
C2670 C2668 1.419 . S
C2670 C2671 1.362 . S
C2671 H2661 0.930 . S
C2671 C2664 1.409 . S
C2671 C2670 1.362 . S
H2672 C2678 0.930 . S
H2673 C2681 0.930 . S
H2674 C2682 0.930 . S
H2675 C2683 0.930 . S
H2676 C2686 0.930 . S
H2677 C2687 0.930 . S
C2678 H2672 0.930 . S
C2678 C2679 1.355 . S
C2678 C2680 1.415 . S
C2679 C2678 1.355 . S
C2679 C2681 1.419 . S
C2680 C2678 1.415 . S
C2680 C2685 1.425 . S
C2680 C2687 1.409 . S
C2681 H2673 0.930 . S
C2681 C2679 1.419 . S
C2681 C2682 1.362 . S
C2682 H2674 0.930 . S
C2682 C2681 1.362 . S
C2682 C2685 1.409 . S
C2683 H2675 0.930 . S
C2683 C2684 1.355 . S
C2683 C2685 1.415 . S
C2684 C2683 1.355 . S
C2684 C2686 1.419 . S
C2685 C2680 1.425 . S
C2685 C2682 1.409 . S
C2685 C2683 1.415 . S
C2686 H2676 0.930 . S
C2686 C2684 1.419 . S
C2686 C2687 1.362 . S
C2687 H2677 0.930 . S
C2687 C2680 1.409 . S
C2687 C2686 1.362 . S
H2688 C2694 0.930 . S
H2689 C2697 0.930 . S
H2690 C2698 0.930 . S
H2691 C2699 0.930 . S
H2692 C2702 0.930 . S
H2693 C2703 0.930 . S
C2694 H2688 0.930 . S
C2694 C2695 1.355 . S
C2694 C2696 1.415 . S
C2695 C2694 1.355 . S
C2695 C2697 1.419 . S
C2696 C2694 1.415 . S
C2696 C2701 1.425 . S
C2696 C2703 1.409 . S
C2697 H2689 0.930 . S
C2697 C2695 1.419 . S
C2697 C2698 1.362 . S
C2698 H2690 0.930 . S
C2698 C2697 1.362 . S
C2698 C2701 1.409 . S
C2699 H2691 0.930 . S
C2699 C2700 1.355 . S
C2699 C2701 1.415 . S
C2700 C2699 1.355 . S
C2700 C2702 1.419 . S
C2701 C2696 1.425 . S
C2701 C2698 1.409 . S
C2701 C2699 1.415 . S
C2702 H2692 0.930 . S
C2702 C2700 1.419 . S
C2702 C2703 1.362 . S
C2703 H2693 0.930 . S
C2703 C2696 1.409 . S
C2703 C2702 1.362 . S
H2704 C2710 0.930 . S
H2705 C2713 0.930 . S
H2706 C2714 0.930 . S
H2707 C2715 0.930 . S
H2708 C2718 0.930 . S
H2709 C2719 0.930 . S
C2710 H2704 0.930 . S
C2710 C2711 1.355 . S
C2710 C2712 1.415 . S
C2711 C2710 1.355 . S
C2711 C2713 1.419 . S
C2712 C2710 1.415 . S
C2712 C2717 1.425 1_565 S
C2712 C2719 1.409 . S
C2713 H2705 0.930 . S
C2713 C2711 1.419 . S
C2713 C2714 1.362 1_565 S
C2714 H2706 0.930 . S
C2714 C2713 1.362 1_545 S
C2714 C2717 1.409 . S
C2715 H2707 0.930 . S
C2715 C2716 1.355 . S
C2715 C2717 1.415 . S
C2716 C2715 1.355 . S
C2716 C2718 1.419 . S
C2717 C2712 1.425 1_545 S
C2717 C2714 1.409 . S
C2717 C2715 1.415 . S
C2718 H2708 0.930 . S
C2718 C2716 1.419 . S
C2718 C2719 1.362 1_545 S
C2719 H2709 0.930 . S
C2719 C2712 1.409 . S
C2719 C2718 1.362 1_565 S
H2720 C2726 0.930 . S
H2721 C2729 0.930 . S
H2722 C2730 0.930 . S
H2723 C2731 0.930 . S
H2724 C2734 0.930 . S
H2725 C2735 0.930 . S
C2726 H2720 0.930 . S
C2726 C2727 1.355 . S
C2726 C2728 1.415 1_556 S
C2727 C2726 1.355 . S
C2727 C2729 1.419 . S
C2728 C2726 1.415 1_554 S
C2728 C2733 1.425 1_554 S
C2728 C2735 1.409 . S
C2729 H2721 0.930 . S
C2729 C2727 1.419 . S
C2729 C2730 1.362 . S
C2730 H2722 0.930 . S
C2730 C2729 1.362 . S
C2730 C2733 1.409 . S
C2731 H2723 0.930 . S
C2731 C2732 1.355 . S
C2731 C2733 1.415 1_554 S
C2732 C2731 1.355 . S
C2732 C2734 1.419 . S
C2733 C2728 1.425 1_556 S
C2733 C2730 1.409 . S
C2733 C2731 1.415 1_556 S
C2734 H2724 0.930 . S
C2734 C2732 1.419 . S
C2734 C2735 1.362 . S
C2735 H2725 0.930 . S
C2735 C2728 1.409 . S
C2735 C2734 1.362 . S
H2736 C2742 0.930 . S
H2737 C2745 0.930 . S
H2738 C2746 0.930 . S
H2739 C2747 0.930 . S
H2740 C2750 0.930 . S
H2741 C2751 0.930 . S
C2742 H2736 0.930 . S
C2742 C2743 1.355 . S
C2742 C2744 1.415 . S
C2743 C2742 1.355 . S
C2743 C2745 1.419 . S
C2744 C2742 1.415 . S
C2744 C2749 1.425 . S
C2744 C2751 1.409 . S
C2745 H2737 0.930 . S
C2745 C2743 1.419 . S
C2745 C2746 1.362 . S
C2746 H2738 0.930 . S
C2746 C2745 1.362 . S
C2746 C2749 1.409 . S
C2747 H2739 0.930 . S
C2747 C2748 1.355 . S
C2747 C2749 1.415 . S
C2748 C2747 1.355 . S
C2748 C2750 1.419 . S
C2749 C2744 1.425 . S
C2749 C2746 1.409 . S
C2749 C2747 1.415 . S
C2750 H2740 0.930 . S
C2750 C2748 1.419 . S
C2750 C2751 1.362 . S
C2751 H2741 0.930 . S
C2751 C2744 1.409 . S
C2751 C2750 1.362 . S
H2752 C2758 0.930 . S
H2753 C2761 0.930 . S
H2754 C2762 0.930 . S
H2755 C2763 0.930 . S
H2756 C2766 0.930 . S
H2757 C2767 0.930 . S
C2758 H2752 0.930 . S
C2758 C2759 1.355 . S
C2758 C2760 1.415 . S
C2759 C2758 1.355 . S
C2759 C2761 1.419 . S
C2760 C2758 1.415 . S
C2760 C2765 1.425 . S
C2760 C2767 1.409 . S
C2761 H2753 0.930 . S
C2761 C2759 1.419 . S
C2761 C2762 1.362 . S
C2762 H2754 0.930 . S
C2762 C2761 1.362 . S
C2762 C2765 1.409 . S
C2763 H2755 0.930 . S
C2763 C2764 1.355 . S
C2763 C2765 1.415 . S
C2764 C2763 1.355 . S
C2764 C2766 1.419 . S
C2765 C2760 1.425 . S
C2765 C2762 1.409 . S
C2765 C2763 1.415 . S
C2766 H2756 0.930 . S
C2766 C2764 1.419 . S
C2766 C2767 1.362 . S
C2767 H2757 0.930 . S
C2767 C2760 1.409 . S
C2767 C2766 1.362 . S
H2768 C2774 0.930 . S
H2769 C2777 0.930 . S
H2770 C2778 0.930 1_554 S
H2771 C2779 0.930 . S
H2772 C2782 0.930 . S
H2773 C2783 0.930 1_556 S
C2774 H2768 0.930 . S
C2774 C2775 1.355 . S
C2774 C2776 1.415 . S
C2775 C2774 1.355 . S
C2775 C2777 1.419 . S
C2776 C2774 1.415 . S
C2776 C2781 1.425 1_556 S
C2776 C2783 1.409 1_556 S
C2777 H2769 0.930 . S
C2777 C2775 1.419 . S
C2777 C2778 1.362 . S
C2778 H2770 0.930 1_556 S
C2778 C2777 1.362 . S
C2778 C2781 1.409 1_556 S
C2779 H2771 0.930 . S
C2779 C2780 1.355 . S
C2779 C2781 1.415 . S
C2780 C2779 1.355 . S
C2780 C2782 1.419 . S
C2781 C2776 1.425 1_554 S
C2781 C2778 1.409 1_554 S
C2781 C2779 1.415 . S
C2782 H2772 0.930 . S
C2782 C2780 1.419 . S
C2782 C2783 1.362 . S
C2783 H2773 0.930 1_554 S
C2783 C2776 1.409 1_554 S
C2783 C2782 1.362 . S
H2784 C2790 0.930 . S
H2785 C2793 0.930 . S
H2786 C2794 0.930 1_554 S
H2787 C2795 0.930 . S
H2788 C2798 0.930 . S
H2789 C2799 0.930 1_556 S
C2790 H2784 0.930 . S
C2790 C2791 1.355 . S
C2790 C2792 1.415 . S
C2791 C2790 1.355 . S
C2791 C2793 1.419 . S
C2792 C2790 1.415 . S
C2792 C2797 1.425 1_556 S
C2792 C2799 1.409 1_556 S
C2793 H2785 0.930 . S
C2793 C2791 1.419 . S
C2793 C2794 1.362 . S
C2794 H2786 0.930 1_556 S
C2794 C2793 1.362 . S
C2794 C2797 1.409 1_556 S
C2795 H2787 0.930 . S
C2795 C2796 1.355 . S
C2795 C2797 1.415 . S
C2796 C2795 1.355 . S
C2796 C2798 1.419 . S
C2797 C2792 1.425 1_554 S
C2797 C2794 1.409 1_554 S
C2797 C2795 1.415 . S
C2798 H2788 0.930 . S
C2798 C2796 1.419 . S
C2798 C2799 1.362 . S
C2799 H2789 0.930 1_554 S
C2799 C2792 1.409 1_554 S
C2799 C2798 1.362 . S
H2800 C2806 0.930 . S
H2801 C2809 0.930 . S
H2802 C2810 0.930 . S
H2803 C2811 0.930 . S
H2804 C2814 0.930 . S
H2805 C2815 0.930 . S
C2806 H2800 0.930 . S
C2806 C2807 1.355 . S
C2806 C2808 1.415 . S
C2807 C2806 1.355 . S
C2807 C2809 1.419 . S
C2808 C2806 1.415 . S
C2808 C2813 1.425 . S
C2808 C2815 1.409 . S
C2809 H2801 0.930 . S
C2809 C2807 1.419 . S
C2809 C2810 1.362 . S
C2810 H2802 0.930 . S
C2810 C2809 1.362 . S
C2810 C2813 1.409 . S
C2811 H2803 0.930 . S
C2811 C2812 1.355 . S
C2811 C2813 1.415 . S
C2812 C2811 1.355 . S
C2812 C2814 1.419 . S
C2813 C2808 1.425 . S
C2813 C2810 1.409 . S
C2813 C2811 1.415 . S
C2814 H2804 0.930 . S
C2814 C2812 1.419 . S
C2814 C2815 1.362 . S
C2815 H2805 0.930 . S
C2815 C2808 1.409 . S
C2815 C2814 1.362 . S
H2816 C2822 0.930 . S
H2817 C2825 0.930 . S
H2818 C2826 0.930 . S
H2819 C2827 0.930 . S
H2820 C2830 0.930 . S
H2821 C2831 0.930 . S
C2822 H2816 0.930 . S
C2822 C2823 1.355 . S
C2822 C2824 1.415 . S
C2823 C2822 1.355 . S
C2823 C2825 1.419 . S
C2824 C2822 1.415 . S
C2824 C2829 1.425 . S
C2824 C2831 1.409 . S
C2825 H2817 0.930 . S
C2825 C2823 1.419 . S
C2825 C2826 1.362 . S
C2826 H2818 0.930 . S
C2826 C2825 1.362 . S
C2826 C2829 1.409 . S
C2827 H2819 0.930 . S
C2827 C2828 1.355 . S
C2827 C2829 1.415 . S
C2828 C2827 1.355 . S
C2828 C2830 1.419 . S
C2829 C2824 1.425 . S
C2829 C2826 1.409 . S
C2829 C2827 1.415 . S
C2830 H2820 0.930 . S
C2830 C2828 1.419 . S
C2830 C2831 1.362 . S
C2831 H2821 0.930 . S
C2831 C2824 1.409 . S
C2831 C2830 1.362 . S
H2832 C2838 0.930 . S
H2833 C2841 0.930 . S
H2834 C2842 0.930 . S
H2835 C2843 0.930 . S
H2836 C2846 0.930 . S
H2837 C2847 0.930 . S
C2838 H2832 0.930 . S
C2838 C2839 1.355 . S
C2838 C2840 1.415 . S
C2839 C2838 1.355 . S
C2839 C2841 1.419 . S
C2840 C2838 1.415 . S
C2840 C2845 1.425 . S
C2840 C2847 1.409 . S
C2841 H2833 0.930 . S
C2841 C2839 1.419 . S
C2841 C2842 1.362 . S
C2842 H2834 0.930 . S
C2842 C2841 1.362 . S
C2842 C2845 1.409 . S
C2843 H2835 0.930 . S
C2843 C2844 1.355 . S
C2843 C2845 1.415 . S
C2844 C2843 1.355 . S
C2844 C2846 1.419 . S
C2845 C2840 1.425 . S
C2845 C2842 1.409 . S
C2845 C2843 1.415 . S
C2846 H2836 0.930 . S
C2846 C2844 1.419 . S
C2846 C2847 1.362 . S
C2847 H2837 0.930 . S
C2847 C2840 1.409 . S
C2847 C2846 1.362 . S
H2848 C2854 0.930 . S
H2849 C2857 0.930 . S
H2850 C2858 0.930 . S
H2851 C2859 0.930 . S
H2852 C2862 0.930 . S
H2853 C2863 0.930 . S
C2854 H2848 0.930 . S
C2854 C2855 1.355 . S
C2854 C2856 1.415 . S
C2855 C2854 1.355 . S
C2855 C2857 1.419 . S
C2856 C2854 1.415 . S
C2856 C2861 1.425 . S
C2856 C2863 1.409 . S
C2857 H2849 0.930 . S
C2857 C2855 1.419 . S
C2857 C2858 1.362 . S
C2858 H2850 0.930 . S
C2858 C2857 1.362 . S
C2858 C2861 1.409 . S
C2859 H2851 0.930 . S
C2859 C2860 1.355 . S
C2859 C2861 1.415 . S
C2860 C2859 1.355 . S
C2860 C2862 1.419 . S
C2861 C2856 1.425 . S
C2861 C2858 1.409 . S
C2861 C2859 1.415 . S
C2862 H2852 0.930 . S
C2862 C2860 1.419 . S
C2862 C2863 1.362 . S
C2863 H2853 0.930 . S
C2863 C2856 1.409 . S
C2863 C2862 1.362 . S
H2864 C2870 0.930 . S
H2865 C2873 0.930 . S
H2866 C2874 0.930 . S
H2867 C2875 0.930 . S
H2868 C2878 0.930 . S
H2869 C2879 0.930 . S
C2870 H2864 0.930 . S
C2870 C2871 1.355 . S
C2870 C2872 1.415 . S
C2871 C2870 1.355 . S
C2871 C2873 1.419 . S
C2872 C2870 1.415 . S
C2872 C2877 1.425 . S
C2872 C2879 1.409 . S
C2873 H2865 0.930 . S
C2873 C2871 1.419 . S
C2873 C2874 1.362 . S
C2874 H2866 0.930 . S
C2874 C2873 1.362 . S
C2874 C2877 1.409 . S
C2875 H2867 0.930 . S
C2875 C2876 1.355 . S
C2875 C2877 1.415 . S
C2876 C2875 1.355 . S
C2876 C2878 1.419 . S
C2877 C2872 1.425 . S
C2877 C2874 1.409 . S
C2877 C2875 1.415 . S
C2878 H2868 0.930 . S
C2878 C2876 1.419 . S
C2878 C2879 1.362 . S
C2879 H2869 0.930 . S
C2879 C2872 1.409 . S
C2879 C2878 1.362 . S
H2880 C2886 0.930 . S
H2881 C2889 0.930 . S
H2882 C2890 0.930 . S
H2883 C2891 0.930 . S
H2884 C2894 0.930 . S
H2885 C2895 0.930 . S
C2886 H2880 0.930 . S
C2886 C2887 1.355 . S
C2886 C2888 1.415 . S
C2887 C2886 1.355 . S
C2887 C2889 1.419 . S
C2888 C2886 1.415 . S
C2888 C2893 1.425 . S
C2888 C2895 1.409 . S
C2889 H2881 0.930 . S
C2889 C2887 1.419 . S
C2889 C2890 1.362 . S
C2890 H2882 0.930 . S
C2890 C2889 1.362 . S
C2890 C2893 1.409 . S
C2891 H2883 0.930 . S
C2891 C2892 1.355 . S
C2891 C2893 1.415 . S
C2892 C2891 1.355 . S
C2892 C2894 1.419 . S
C2893 C2888 1.425 . S
C2893 C2890 1.409 . S
C2893 C2891 1.415 . S
C2894 H2884 0.930 . S
C2894 C2892 1.419 . S
C2894 C2895 1.362 . S
C2895 H2885 0.930 . S
C2895 C2888 1.409 . S
C2895 C2894 1.362 . S
H2896 C2902 0.930 . S
H2897 C2905 0.930 . S
H2898 C2906 0.930 . S
H2899 C2907 0.930 . S
H2900 C2910 0.930 . S
H2901 C2911 0.930 . S
C2902 H2896 0.930 . S
C2902 C2903 1.355 . S
C2902 C2904 1.422 . S
C2903 C2902 1.355 . S
C2903 C2905 1.419 . S
C2904 C2902 1.422 . S
C2904 C2909 1.425 1_565 S
C2904 C2911 1.402 1_565 S
C2905 H2897 0.930 . S
C2905 C2903 1.419 . S
C2905 C2906 1.362 . S
C2906 H2898 0.930 . S
C2906 C2905 1.362 . S
C2906 C2909 1.388 1_565 S
C2907 H2899 0.930 . S
C2907 C2908 1.355 . S
C2907 C2909 1.436 . S
C2908 C2907 1.355 . S
C2908 C2910 1.419 . S
C2909 C2904 1.425 1_545 S
C2909 C2906 1.388 1_545 S
C2909 C2907 1.436 . S
C2910 H2900 0.930 . S
C2910 C2908 1.419 . S
C2910 C2911 1.362 . S
C2911 H2901 0.930 . S
C2911 C2904 1.402 1_545 S
C2911 C2910 1.362 . S
H2912 C2918 0.930 . S
H2913 C2921 0.930 . S
H2914 C2922 0.930 . S
H2915 C2923 0.930 . S
H2916 C2926 0.930 . S
H2917 C2927 0.930 . S
C2918 H2912 0.930 . S
C2918 C2919 1.355 . S
C2918 C2920 1.415 . S
C2919 C2918 1.355 . S
C2919 C2921 1.419 . S
C2920 C2918 1.415 . S
C2920 C2925 1.425 . S
C2920 C2927 1.409 . S
C2921 H2913 0.930 . S
C2921 C2919 1.419 . S
C2921 C2922 1.362 . S
C2922 H2914 0.930 . S
C2922 C2921 1.362 . S
C2922 C2925 1.409 . S
C2923 H2915 0.930 . S
C2923 C2924 1.355 . S
C2923 C2925 1.415 . S
C2924 C2923 1.355 . S
C2924 C2926 1.419 . S
C2925 C2920 1.425 . S
C2925 C2922 1.409 . S
C2925 C2923 1.415 . S
C2926 H2916 0.930 . S
C2926 C2924 1.419 . S
C2926 C2927 1.362 . S
C2927 H2917 0.930 . S
C2927 C2920 1.409 . S
C2927 C2926 1.362 . S
H2928 C2934 0.930 . S
H2929 C2937 0.930 . S
H2930 C2938 0.930 . S
H2931 C2939 0.930 . S
H2932 C2942 0.930 . S
H2933 C2943 0.930 . S
C2934 H2928 0.930 . S
C2934 C2935 1.355 . S
C2934 C2936 1.415 . S
C2935 C2934 1.355 . S
C2935 C2937 1.419 . S
C2936 C2934 1.415 . S
C2936 C2941 1.425 . S
C2936 C2943 1.409 . S
C2937 H2929 0.930 . S
C2937 C2935 1.419 . S
C2937 C2938 1.362 . S
C2938 H2930 0.930 . S
C2938 C2937 1.362 . S
C2938 C2941 1.409 . S
C2939 H2931 0.930 . S
C2939 C2940 1.355 . S
C2939 C2941 1.415 . S
C2940 C2939 1.355 . S
C2940 C2942 1.419 . S
C2941 C2936 1.425 . S
C2941 C2938 1.409 . S
C2941 C2939 1.415 . S
C2942 H2932 0.930 . S
C2942 C2940 1.419 . S
C2942 C2943 1.362 . S
C2943 H2933 0.930 . S
C2943 C2936 1.409 . S
C2943 C2942 1.362 . S
H2944 C2950 0.930 . S
H2945 C2953 0.930 . S
H2946 C2954 0.930 . S
H2947 C2955 0.930 . S
H2948 C2958 0.930 . S
H2949 C2959 0.930 . S
C2950 H2944 0.930 . S
C2950 C2951 1.355 . S
C2950 C2952 1.415 . S
C2951 C2950 1.355 . S
C2951 C2953 1.419 . S
C2952 C2950 1.415 . S
C2952 C2957 1.425 . S
C2952 C2959 1.409 . S
C2953 H2945 0.930 . S
C2953 C2951 1.419 . S
C2953 C2954 1.362 . S
C2954 H2946 0.930 . S
C2954 C2953 1.362 . S
C2954 C2957 1.409 . S
C2955 H2947 0.930 . S
C2955 C2956 1.355 . S
C2955 C2957 1.415 . S
C2956 C2955 1.355 . S
C2956 C2958 1.419 . S
C2957 C2952 1.425 . S
C2957 C2954 1.409 . S
C2957 C2955 1.415 . S
C2958 H2948 0.930 . S
C2958 C2956 1.419 . S
C2958 C2959 1.362 . S
C2959 H2949 0.930 . S
C2959 C2952 1.409 . S
C2959 C2958 1.362 . S
H2960 C2966 0.930 . S
H2961 C2969 0.930 . S
H2962 C2970 0.899 1_554 S
H2963 C2971 0.930 . S
H2964 C2974 0.930 . S
H2965 C2975 0.930 1_556 S
C2966 H2960 0.930 . S
C2966 C2967 1.355 . S
C2966 C2968 1.415 . S
C2967 C2966 1.355 . S
C2967 C2969 1.419 . S
C2968 C2966 1.415 . S
C2968 C2973 1.425 1_556 S
C2968 C2975 1.409 1_556 S
C2969 H2961 0.930 . S
C2969 C2967 1.419 . S
C2969 C2970 1.413 . S
C2970 H2962 0.899 1_556 S
C2970 C2969 1.413 . S
C2970 C2973 1.391 1_556 S
C2971 H2963 0.930 . S
C2971 C2972 1.355 . S
C2971 C2973 1.415 . S
C2972 C2971 1.355 . S
C2972 C2974 1.419 . S
C2973 C2968 1.425 1_554 S
C2973 C2970 1.391 1_554 S
C2973 C2971 1.415 . S
C2974 H2964 0.930 . S
C2974 C2972 1.419 . S
C2974 C2975 1.362 . S
C2975 H2965 0.930 1_554 S
C2975 C2968 1.409 1_554 S
C2975 C2974 1.362 . S
H2976 C2982 0.930 . S
H2977 C2985 0.930 . S
H2978 C2986 0.930 . S
H2979 C2987 0.930 . S
H2980 C2990 0.930 . S
H2981 C2991 0.930 . S
C2982 H2976 0.930 . S
C2982 C2983 1.355 . S
C2982 C2984 1.415 . S
C2983 C2982 1.355 . S
C2983 C2985 1.419 . S
C2984 C2982 1.415 . S
C2984 C2989 1.425 1_556 S
C2984 C2991 1.409 1_556 S
C2985 H2977 0.930 . S
C2985 C2983 1.419 . S
C2985 C2986 1.362 . S
C2986 H2978 0.930 . S
C2986 C2985 1.362 . S
C2986 C2989 1.409 1_556 S
C2987 H2979 0.930 . S
C2987 C2988 1.355 . S
C2987 C2989 1.415 . S
C2988 C2987 1.355 . S
C2988 C2990 1.419 . S
C2989 C2984 1.425 1_554 S
C2989 C2986 1.409 1_554 S
C2989 C2987 1.415 . S
C2990 H2980 0.930 . S
C2990 C2988 1.419 . S
C2990 C2991 1.362 . S
C2991 H2981 0.930 . S
C2991 C2984 1.409 1_554 S
C2991 C2990 1.362 . S
H2992 C2998 0.930 . S
H2993 C3001 0.930 . S
H2994 C3002 0.930 . S
H2995 C3003 0.930 . S
H2996 C3006 0.930 . S
H2997 C3007 0.930 . S
C2998 H2992 0.930 . S
C2998 C2999 1.355 . S
C2998 C3000 1.415 . S
C2999 C2998 1.355 . S
C2999 C3001 1.419 . S
C3000 C2998 1.415 . S
C3000 C3005 1.425 . S
C3000 C3007 1.409 . S
C3001 H2993 0.930 . S
C3001 C2999 1.419 . S
C3001 C3002 1.362 . S
C3002 H2994 0.930 . S
C3002 C3001 1.362 . S
C3002 C3005 1.409 . S
C3003 H2995 0.930 . S
C3003 C3004 1.355 . S
C3003 C3005 1.415 . S
C3004 C3003 1.355 . S
C3004 C3006 1.419 . S
C3005 C3000 1.425 . S
C3005 C3002 1.409 . S
C3005 C3003 1.415 . S
C3006 H2996 0.930 . S
C3006 C3004 1.419 . S
C3006 C3007 1.362 . S
C3007 H2997 0.930 . S
C3007 C3000 1.409 . S
C3007 C3006 1.362 . S
H3008 C3014 0.930 . S
H3009 C3017 0.930 . S
H3010 C3018 0.930 . S
H3011 C3019 0.930 . S
H3012 C3022 0.930 . S
H3013 C3023 0.930 . S
C3014 H3008 0.930 . S
C3014 C3015 1.355 . S
C3014 C3016 1.415 . S
C3015 C3014 1.355 . S
C3015 C3017 1.419 . S
C3016 C3014 1.415 . S
C3016 C3021 1.425 . S
C3016 C3023 1.409 . S
C3017 H3009 0.930 . S
C3017 C3015 1.419 . S
C3017 C3018 1.362 . S
C3018 H3010 0.930 . S
C3018 C3017 1.362 . S
C3018 C3021 1.409 . S
C3019 H3011 0.930 . S
C3019 C3020 1.355 . S
C3019 C3021 1.415 . S
C3020 C3019 1.355 . S
C3020 C3022 1.419 . S
C3021 C3016 1.425 . S
C3021 C3018 1.409 . S
C3021 C3019 1.415 . S
C3022 H3012 0.930 . S
C3022 C3020 1.419 . S
C3022 C3023 1.362 . S
C3023 H3013 0.930 . S
C3023 C3016 1.409 . S
C3023 C3022 1.362 . S
H3024 C3030 0.930 . S
H3025 C3033 0.930 . S
H3026 C3034 0.930 . S
H3027 C3035 0.930 . S
H3028 C3038 0.930 . S
H3029 C3039 0.930 . S
C3030 H3024 0.930 . S
C3030 C3031 1.355 . S
C3030 C3032 1.415 . S
C3031 C3030 1.355 . S
C3031 C3033 1.419 . S
C3032 C3030 1.415 . S
C3032 C3037 1.425 . S
C3032 C3039 1.409 . S
C3033 H3025 0.930 . S
C3033 C3031 1.419 . S
C3033 C3034 1.362 . S
C3034 H3026 0.930 . S
C3034 C3033 1.362 . S
C3034 C3037 1.409 . S
C3035 H3027 0.930 . S
C3035 C3036 1.355 . S
C3035 C3037 1.415 . S
C3036 C3035 1.355 . S
C3036 C3038 1.419 . S
C3037 C3032 1.425 . S
C3037 C3034 1.409 . S
C3037 C3035 1.415 . S
C3038 H3028 0.930 . S
C3038 C3036 1.419 . S
C3038 C3039 1.362 . S
C3039 H3029 0.930 . S
C3039 C3032 1.409 . S
C3039 C3038 1.362 . S
H3040 C3046 0.930 . S
H3041 C3049 0.930 . S
H3042 C3050 0.930 . S
H3043 C3051 0.930 . S
H3044 C3054 0.930 . S
H3045 C3055 0.930 . S
C3046 H3040 0.930 . S
C3046 C3047 1.355 . S
C3046 C3048 1.415 . S
C3047 C3046 1.355 . S
C3047 C3049 1.419 . S
C3048 C3046 1.415 . S
C3048 C3053 1.425 . S
C3048 C3055 1.409 . S
C3049 H3041 0.930 . S
C3049 C3047 1.419 . S
C3049 C3050 1.362 . S
C3050 H3042 0.930 . S
C3050 C3049 1.362 . S
C3050 C3053 1.409 . S
C3051 H3043 0.930 . S
C3051 C3052 1.355 . S
C3051 C3053 1.415 . S
C3052 C3051 1.355 . S
C3052 C3054 1.419 . S
C3053 C3048 1.425 . S
C3053 C3050 1.409 . S
C3053 C3051 1.415 . S
C3054 H3044 0.930 . S
C3054 C3052 1.419 . S
C3054 C3055 1.362 . S
C3055 H3045 0.930 . S
C3055 C3048 1.409 . S
C3055 C3054 1.362 . S
H3056 C3062 0.930 . S
H3057 C3065 0.930 . S
H3058 C3066 0.930 . S
H3059 C3067 0.930 . S
H3060 C3070 0.930 . S
H3061 C3071 0.930 . S
C3062 H3056 0.930 . S
C3062 C3063 1.355 . S
C3062 C3064 1.415 . S
C3063 C3062 1.355 . S
C3063 C3065 1.419 . S
C3064 C3062 1.415 . S
C3064 C3069 1.425 . S
C3064 C3071 1.409 . S
C3065 H3057 0.930 . S
C3065 C3063 1.419 . S
C3065 C3066 1.362 . S
C3066 H3058 0.930 . S
C3066 C3065 1.362 . S
C3066 C3069 1.409 . S
C3067 H3059 0.930 . S
C3067 C3068 1.355 . S
C3067 C3069 1.415 . S
C3068 C3067 1.355 . S
C3068 C3070 1.419 . S
C3069 C3064 1.425 . S
C3069 C3066 1.409 . S
C3069 C3067 1.415 . S
C3070 H3060 0.930 . S
C3070 C3068 1.419 . S
C3070 C3071 1.362 . S
C3071 H3061 0.930 . S
C3071 C3064 1.409 . S
C3071 C3070 1.362 . S
H3072 C3078 0.930 . S
H3073 C3081 0.930 . S
H3074 C3082 0.930 . S
H3075 C3083 0.930 . S
H3076 C3086 0.930 . S
H3077 C3087 0.930 . S
C3078 H3072 0.930 . S
C3078 C3079 1.355 . S
C3078 C3080 1.415 . S
C3079 C3078 1.355 . S
C3079 C3081 1.419 . S
C3080 C3078 1.415 . S
C3080 C3085 1.425 . S
C3080 C3087 1.409 . S
C3081 H3073 0.930 . S
C3081 C3079 1.419 . S
C3081 C3082 1.362 . S
C3082 H3074 0.930 . S
C3082 C3081 1.362 . S
C3082 C3085 1.409 . S
C3083 H3075 0.930 . S
C3083 C3084 1.355 . S
C3083 C3085 1.415 . S
C3084 C3083 1.355 . S
C3084 C3086 1.419 . S
C3085 C3080 1.425 . S
C3085 C3082 1.409 . S
C3085 C3083 1.415 . S
C3086 H3076 0.930 . S
C3086 C3084 1.419 . S
C3086 C3087 1.362 . S
C3087 H3077 0.930 . S
C3087 C3080 1.409 . S
C3087 C3086 1.362 . S
H3088 C3094 0.930 . S
H3089 C3097 0.930 . S
H3090 C3098 0.930 1_545 S
H3091 C3099 0.930 . S
H3092 C3102 0.930 . S
H3093 C3103 0.902 1_565 S
C3094 H3088 0.930 . S
C3094 C3095 1.355 . S
C3094 C3096 1.415 . S
C3095 C3094 1.355 . S
C3095 C3097 1.419 . S
C3096 C3094 1.415 . S
C3096 C3101 1.425 1_565 S
C3096 C3103 1.393 1_565 S
C3097 H3089 0.930 . S
C3097 C3095 1.419 . S
C3097 C3098 1.362 . S
C3098 H3090 0.930 1_565 S
C3098 C3097 1.362 . S
C3098 C3101 1.409 1_565 S
C3099 H3091 0.930 . S
C3099 C3100 1.355 . S
C3099 C3101 1.415 . S
C3100 C3099 1.355 . S
C3100 C3102 1.419 . S
C3101 C3096 1.425 1_545 S
C3101 C3098 1.409 1_545 S
C3101 C3099 1.415 . S
C3102 H3092 0.930 . S
C3102 C3100 1.419 . S
C3102 C3103 1.408 . S
C3103 H3093 0.902 1_545 S
C3103 C3096 1.393 1_545 S
C3103 C3102 1.408 . S
H3104 C3110 0.930 . S
H3105 C3113 0.930 . S
H3106 C3114 0.930 . S
H3107 C3115 0.930 . S
H3108 C3118 0.930 . S
H3109 C3119 0.930 . S
C3110 H3104 0.930 . S
C3110 C3111 1.355 . S
C3110 C3112 1.415 . S
C3111 C3110 1.355 . S
C3111 C3113 1.419 . S
C3112 C3110 1.415 . S
C3112 C3117 1.425 . S
C3112 C3119 1.409 . S
C3113 H3105 0.930 . S
C3113 C3111 1.419 . S
C3113 C3114 1.362 . S
C3114 H3106 0.930 . S
C3114 C3113 1.362 . S
C3114 C3117 1.409 . S
C3115 H3107 0.930 . S
C3115 C3116 1.355 . S
C3115 C3117 1.415 . S
C3116 C3115 1.355 . S
C3116 C3118 1.419 . S
C3117 C3112 1.425 . S
C3117 C3114 1.409 . S
C3117 C3115 1.415 . S
C3118 H3108 0.930 . S
C3118 C3116 1.419 . S
C3118 C3119 1.362 . S
C3119 H3109 0.930 . S
C3119 C3112 1.409 . S
C3119 C3118 1.362 . S
H3120 C3126 0.930 . S
H3121 C3129 0.930 . S
H3122 C3130 0.930 1_554 S
H3123 C3131 0.930 . S
H3124 C3134 0.930 . S
H3125 C3135 0.930 1_556 S
C3126 H3120 0.930 . S
C3126 C3127 1.355 . S
C3126 C3128 1.415 . S
C3127 C3126 1.355 . S
C3127 C3129 1.419 . S
C3128 C3126 1.415 . S
C3128 C3133 1.425 1_556 S
C3128 C3135 1.409 1_556 S
C3129 H3121 0.930 . S
C3129 C3127 1.419 . S
C3129 C3130 1.362 . S
C3130 H3122 0.930 1_556 S
C3130 C3129 1.362 . S
C3130 C3133 1.409 1_556 S
C3131 H3123 0.930 . S
C3131 C3132 1.355 . S
C3131 C3133 1.415 . S
C3132 C3131 1.355 . S
C3132 C3134 1.419 . S
C3133 C3128 1.425 1_554 S
C3133 C3130 1.409 1_554 S
C3133 C3131 1.415 . S
C3134 H3124 0.930 . S
C3134 C3132 1.419 . S
C3134 C3135 1.362 . S
C3135 H3125 0.930 1_554 S
C3135 C3128 1.409 1_554 S
C3135 C3134 1.362 . S
H3136 C3142 0.930 . S
H3137 C3145 0.930 . S
H3138 C3146 0.930 . S
H3139 C3147 0.930 . S
H3140 C3150 0.930 . S
H3141 C3151 0.930 . S
C3142 H3136 0.930 . S
C3142 C3143 1.355 . S
C3142 C3144 1.415 . S
C3143 C3142 1.355 . S
C3143 C3145 1.419 . S
C3144 C3142 1.415 . S
C3144 C3149 1.425 1_554 S
C3144 C3151 1.409 1_554 S
C3145 H3137 0.930 . S
C3145 C3143 1.419 . S
C3145 C3146 1.362 . S
C3146 H3138 0.930 . S
C3146 C3145 1.362 . S
C3146 C3149 1.409 1_554 S
C3147 H3139 0.930 . S
C3147 C3148 1.355 . S
C3147 C3149 1.415 . S
C3148 C3147 1.355 . S
C3148 C3150 1.419 . S
C3149 C3144 1.425 1_556 S
C3149 C3146 1.409 1_556 S
C3149 C3147 1.415 . S
C3150 H3140 0.930 . S
C3150 C3148 1.419 . S
C3150 C3151 1.362 . S
C3151 H3141 0.930 . S
C3151 C3144 1.409 1_556 S
C3151 C3150 1.362 . S
H3152 C3158 0.930 . S
H3153 C3161 0.930 . S
H3154 C3162 0.930 . S
H3155 C3163 0.930 . S
H3156 C3166 0.930 . S
H3157 C3167 0.930 . S
C3158 H3152 0.930 . S
C3158 C3159 1.355 . S
C3158 C3160 1.415 . S
C3159 C3158 1.355 . S
C3159 C3161 1.419 . S
C3160 C3158 1.415 . S
C3160 C3165 1.425 . S
C3160 C3167 1.409 . S
C3161 H3153 0.930 . S
C3161 C3159 1.419 . S
C3161 C3162 1.362 . S
C3162 H3154 0.930 . S
C3162 C3161 1.362 . S
C3162 C3165 1.409 . S
C3163 H3155 0.930 . S
C3163 C3164 1.355 . S
C3163 C3165 1.415 . S
C3164 C3163 1.355 . S
C3164 C3166 1.419 . S
C3165 C3160 1.425 . S
C3165 C3162 1.409 . S
C3165 C3163 1.415 . S
C3166 H3156 0.930 . S
C3166 C3164 1.419 . S
C3166 C3167 1.362 . S
C3167 H3157 0.930 . S
C3167 C3160 1.409 . S
C3167 C3166 1.362 . S
H3168 C3174 0.930 . S
H3169 C3177 0.930 . S
H3170 C3178 0.930 . S
H3171 C3179 0.930 . S
H3172 C3182 0.930 . S
H3173 C3183 0.930 . S
C3174 H3168 0.930 . S
C3174 C3175 1.355 . S
C3174 C3176 1.415 . S
C3175 C3174 1.355 . S
C3175 C3177 1.419 . S
C3176 C3174 1.415 . S
C3176 C3181 1.425 . S
C3176 C3183 1.409 . S
C3177 H3169 0.930 . S
C3177 C3175 1.419 . S
C3177 C3178 1.362 . S
C3178 H3170 0.930 . S
C3178 C3177 1.362 . S
C3178 C3181 1.409 . S
C3179 H3171 0.930 . S
C3179 C3180 1.355 . S
C3179 C3181 1.415 . S
C3180 C3179 1.355 . S
C3180 C3182 1.419 . S
C3181 C3176 1.425 . S
C3181 C3178 1.409 . S
C3181 C3179 1.415 . S
C3182 H3172 0.930 . S
C3182 C3180 1.419 . S
C3182 C3183 1.362 . S
C3183 H3173 0.930 . S
C3183 C3176 1.409 . S
C3183 C3182 1.362 . S
H3184 C3190 0.930 . S
H3185 C3193 0.930 . S
H3186 C3194 0.930 . S
H3187 C3195 0.930 . S
H3188 C3198 0.930 . S
H3189 C3199 0.930 . S
C3190 H3184 0.930 . S
C3190 C3191 1.355 . S
C3190 C3192 1.415 . S
C3191 C3190 1.355 . S
C3191 C3193 1.419 . S
C3192 C3190 1.415 . S
C3192 C3197 1.425 1_655 S
C3192 C3199 1.409 1_655 S
C3193 H3185 0.930 . S
C3193 C3191 1.419 . S
C3193 C3194 1.362 . S
C3194 H3186 0.930 . S
C3194 C3193 1.362 . S
C3194 C3197 1.409 1_655 S
C3195 H3187 0.930 . S
C3195 C3196 1.355 . S
C3195 C3197 1.415 . S
C3196 C3195 1.355 . S
C3196 C3198 1.419 . S
C3197 C3192 1.425 1_455 S
C3197 C3194 1.409 1_455 S
C3197 C3195 1.415 . S
C3198 H3188 0.930 . S
C3198 C3196 1.419 . S
C3198 C3199 1.362 . S
C3199 H3189 0.930 . S
C3199 C3192 1.409 1_455 S
C3199 C3198 1.362 . S
H3200 C3206 0.930 . S
H3201 C3209 0.930 . S
H3202 C3210 0.930 . S
H3203 C3211 0.930 . S
H3204 C3214 0.930 . S
H3205 C3215 0.930 . S
C3206 H3200 0.930 . S
C3206 C3207 1.355 . S
C3206 C3208 1.439 . S
C3207 C3206 1.355 . S
C3207 C3209 1.419 . S
C3208 C3206 1.439 . S
C3208 C3213 1.424 1_655 S
C3208 C3215 1.386 1_655 S
C3209 H3201 0.930 . S
C3209 C3207 1.419 . S
C3209 C3210 1.362 . S
C3210 H3202 0.930 . S
C3210 C3209 1.362 . S
C3210 C3213 1.399 1_655 S
C3211 H3203 0.930 . S
C3211 C3212 1.355 . S
C3211 C3213 1.425 . S
C3212 C3211 1.355 . S
C3212 C3214 1.419 . S
C3213 C3208 1.424 1_455 S
C3213 C3210 1.399 1_455 S
C3213 C3211 1.425 . S
C3214 H3204 0.930 . S
C3214 C3212 1.419 . S
C3214 C3215 1.362 . S
C3215 H3205 0.930 . S
C3215 C3208 1.386 1_455 S
C3215 C3214 1.362 . S
H3216 C3222 0.930 . S
H3217 C3225 0.930 . S
H3218 C3226 0.930 . S
H3219 C3227 0.930 . S
H3220 C3230 0.930 . S
H3221 C3231 0.930 . S
C3222 H3216 0.930 . S
C3222 C3223 1.355 . S
C3222 C3224 1.403 1_655 S
C3223 C3222 1.355 . S
C3223 C3225 1.419 . S
C3224 C3222 1.403 1_455 S
C3224 C3229 1.425 1_455 S
C3224 C3231 1.421 . S
C3225 H3217 0.930 . S
C3225 C3223 1.419 . S
C3225 C3226 1.362 . S
C3226 H3218 0.930 . S
C3226 C3225 1.362 . S
C3226 C3229 1.407 . S
C3227 H3219 0.930 . S
C3227 C3228 1.355 . S
C3227 C3229 1.417 1_455 S
C3228 C3227 1.355 . S
C3228 C3230 1.419 . S
C3229 C3224 1.425 1_655 S
C3229 C3226 1.407 . S
C3229 C3227 1.417 1_655 S
C3230 H3220 0.930 . S
C3230 C3228 1.419 . S
C3230 C3231 1.362 . S
C3231 H3221 0.930 . S
C3231 C3224 1.421 . S
C3231 C3230 1.362 . S
H3232 C3238 0.930 . S
H3233 C3241 0.930 . S
H3234 C3242 0.930 1_655 S
H3235 C3243 0.930 . S
H3236 C3246 0.930 . S
H3237 C3247 0.930 1_455 S
C3238 H3232 0.930 . S
C3238 C3239 1.355 . S
C3238 C3240 1.415 . S
C3239 C3238 1.355 . S
C3239 C3241 1.419 . S
C3240 C3238 1.415 . S
C3240 C3245 1.425 1_455 S
C3240 C3247 1.409 1_455 S
C3241 H3233 0.930 . S
C3241 C3239 1.419 . S
C3241 C3242 1.362 . S
C3242 H3234 0.930 1_455 S
C3242 C3241 1.362 . S
C3242 C3245 1.409 1_455 S
C3243 H3235 0.930 . S
C3243 C3244 1.355 . S
C3243 C3245 1.415 . S
C3244 C3243 1.355 . S
C3244 C3246 1.419 . S
C3245 C3240 1.425 1_655 S
C3245 C3242 1.409 1_655 S
C3245 C3243 1.415 . S
C3246 H3236 0.930 . S
C3246 C3244 1.419 . S
C3246 C3247 1.362 . S
C3247 H3237 0.930 1_655 S
C3247 C3240 1.409 1_655 S
C3247 C3246 1.362 . S
H3248 C3254 0.930 . S
H3249 C3257 0.930 . S
H3250 C3258 0.930 1_565 S
H3251 C3259 0.930 . S
H3252 C3262 0.930 . S
H3253 C3263 0.930 1_545 S
C3254 H3248 0.930 . S
C3254 C3255 1.355 . S
C3254 C3256 1.415 . S
C3255 C3254 1.355 . S
C3255 C3257 1.419 . S
C3256 C3254 1.415 . S
C3256 C3261 1.425 1_545 S
C3256 C3263 1.409 1_545 S
C3257 H3249 0.930 . S
C3257 C3255 1.419 . S
C3257 C3258 1.362 . S
C3258 H3250 0.930 1_545 S
C3258 C3257 1.362 . S
C3258 C3261 1.409 1_545 S
C3259 H3251 0.930 . S
C3259 C3260 1.355 . S
C3259 C3261 1.415 . S
C3260 C3259 1.355 . S
C3260 C3262 1.419 . S
C3261 C3256 1.425 1_565 S
C3261 C3258 1.409 1_565 S
C3261 C3259 1.415 . S
C3262 H3252 0.930 . S
C3262 C3260 1.419 . S
C3262 C3263 1.362 . S
C3263 H3253 0.930 1_565 S
C3263 C3256 1.409 1_565 S
C3263 C3262 1.362 . S
H3264 C3270 0.930 . S
H3265 C3273 0.930 . S
H3266 C3274 0.930 1_565 S
H3267 C3275 0.930 . S
H3268 C3278 0.930 . S
H3269 C3279 0.930 1_545 S
C3270 H3264 0.930 . S
C3270 C3271 1.355 . S
C3270 C3272 1.415 . S
C3271 C3270 1.355 . S
C3271 C3273 1.419 . S
C3272 C3270 1.415 . S
C3272 C3277 1.425 1_545 S
C3272 C3279 1.409 1_545 S
C3273 H3265 0.930 . S
C3273 C3271 1.419 . S
C3273 C3274 1.362 . S
C3274 H3266 0.930 1_545 S
C3274 C3273 1.362 . S
C3274 C3277 1.409 1_545 S
C3275 H3267 0.930 . S
C3275 C3276 1.355 . S
C3275 C3277 1.415 . S
C3276 C3275 1.355 . S
C3276 C3278 1.419 . S
C3277 C3272 1.425 1_565 S
C3277 C3274 1.409 1_565 S
C3277 C3275 1.415 . S
C3278 H3268 0.930 . S
C3278 C3276 1.419 . S
C3278 C3279 1.362 . S
C3279 H3269 0.930 1_565 S
C3279 C3272 1.409 1_565 S
C3279 C3278 1.362 . S
H3280 C3286 0.930 . S
H3281 C3289 0.930 . S
H3282 C3290 0.930 . S
H3283 C3291 0.930 . S
H3284 C3294 0.930 . S
H3285 C3295 0.930 . S
C3286 H3280 0.930 . S
C3286 C3287 1.355 . S
C3286 C3288 1.415 . S
C3287 C3286 1.355 . S
C3287 C3289 1.419 . S
C3288 C3286 1.415 . S
C3288 C3293 1.425 . S
C3288 C3295 1.409 . S
C3289 H3281 0.930 . S
C3289 C3287 1.419 . S
C3289 C3290 1.362 . S
C3290 H3282 0.930 . S
C3290 C3289 1.362 . S
C3290 C3293 1.409 . S
C3291 H3283 0.930 . S
C3291 C3292 1.355 . S
C3291 C3293 1.415 . S
C3292 C3291 1.355 . S
C3292 C3294 1.419 . S
C3293 C3288 1.425 . S
C3293 C3290 1.409 . S
C3293 C3291 1.415 . S
C3294 H3284 0.930 . S
C3294 C3292 1.419 . S
C3294 C3295 1.362 . S
C3295 H3285 0.930 . S
C3295 C3288 1.409 . S
C3295 C3294 1.362 . S
H3296 C3302 0.930 . S
H3297 C3305 0.930 . S
H3298 C3306 0.930 . S
H3299 C3307 0.930 . S
H3300 C3310 0.930 . S
H3301 C3311 0.930 . S
C3302 H3296 0.930 . S
C3302 C3303 1.355 . S
C3302 C3304 1.404 1_545 S
C3303 C3302 1.355 . S
C3303 C3305 1.419 . S
C3304 C3302 1.404 1_565 S
C3304 C3309 1.425 1_565 S
C3304 C3311 1.420 . S
C3305 H3297 0.930 . S
C3305 C3303 1.419 . S
C3305 C3306 1.362 . S
C3306 H3298 0.930 . S
C3306 C3305 1.362 . S
C3306 C3309 1.406 . S
C3307 H3299 0.930 . S
C3307 C3308 1.355 . S
C3307 C3309 1.417 1_565 S
C3308 C3307 1.355 . S
C3308 C3310 1.419 . S
C3309 C3304 1.425 1_545 S
C3309 C3306 1.406 . S
C3309 C3307 1.417 1_545 S
C3310 H3300 0.930 . S
C3310 C3308 1.419 . S
C3310 C3311 1.362 . S
C3311 H3301 0.930 . S
C3311 C3304 1.420 . S
C3311 C3310 1.362 . S
H3312 C3318 0.930 . S
H3313 C3321 0.930 . S
H3314 C3322 0.930 . S
H3315 C3323 0.930 . S
H3316 C3326 0.930 . S
H3317 C3327 0.930 . S
C3318 H3312 0.930 . S
C3318 C3319 1.355 . S
C3318 C3320 1.416 . S
C3319 C3318 1.355 . S
C3319 C3321 1.419 . S
C3320 C3318 1.416 . S
C3320 C3325 1.425 . S
C3320 C3327 1.408 1_556 S
C3321 H3313 0.930 . S
C3321 C3319 1.419 . S
C3321 C3322 1.362 . S
C3322 H3314 0.930 . S
C3322 C3321 1.362 . S
C3322 C3325 1.411 . S
C3323 H3315 0.930 . S
C3323 C3324 1.355 . S
C3323 C3325 1.413 1_554 S
C3324 C3323 1.355 . S
C3324 C3326 1.419 . S
C3325 C3320 1.425 . S
C3325 C3322 1.411 . S
C3325 C3323 1.413 1_556 S
C3326 H3316 0.930 . S
C3326 C3324 1.419 . S
C3326 C3327 1.362 . S
C3327 H3317 0.930 . S
C3327 C3320 1.408 1_554 S
C3327 C3326 1.362 . S
H3328 C3334 0.930 . S
H3329 C3337 0.930 . S
H3330 C3338 0.930 . S
H3331 C3339 0.930 . S
H3332 C3342 0.930 . S
H3333 C3343 0.930 . S
C3334 H3328 0.930 . S
C3334 C3335 1.355 . S
C3334 C3336 1.450 . S
C3335 C3334 1.355 . S
C3335 C3337 1.419 . S
C3336 C3334 1.450 . S
C3336 C3341 1.423 1_554 S
C3336 C3343 1.376 1_554 S
C3337 H3329 0.930 . S
C3337 C3335 1.419 . S
C3337 C3338 1.362 . S
C3338 H3330 0.930 . S
C3338 C3337 1.362 . S
C3338 C3341 1.409 1_554 S
C3339 H3331 0.930 . S
C3339 C3340 1.355 . S
C3339 C3341 1.415 . S
C3340 C3339 1.355 . S
C3340 C3342 1.419 . S
C3341 C3336 1.423 1_556 S
C3341 C3338 1.409 1_556 S
C3341 C3339 1.415 . S
C3342 H3332 0.930 . S
C3342 C3340 1.419 . S
C3342 C3343 1.362 . S
C3343 H3333 0.930 . S
C3343 C3336 1.376 1_556 S
C3343 C3342 1.362 . S
H3344 C3350 0.930 . S
H3345 C3353 0.930 . S
H3346 C3354 0.930 . S
H3347 C3355 0.930 . S
H3348 C3358 0.930 . S
H3349 C3359 0.930 . S
C3350 H3344 0.930 . S
C3350 C3351 1.355 . S
C3350 C3352 1.415 . S
C3351 C3350 1.355 . S
C3351 C3353 1.419 . S
C3352 C3350 1.415 . S
C3352 C3357 1.425 . S
C3352 C3359 1.409 . S
C3353 H3345 0.930 . S
C3353 C3351 1.419 . S
C3353 C3354 1.362 . S
C3354 H3346 0.930 . S
C3354 C3353 1.362 . S
C3354 C3357 1.409 . S
C3355 H3347 0.930 . S
C3355 C3356 1.355 . S
C3355 C3357 1.415 . S
C3356 C3355 1.355 . S
C3356 C3358 1.419 . S
C3357 C3352 1.425 . S
C3357 C3354 1.409 . S
C3357 C3355 1.415 . S
C3358 H3348 0.930 . S
C3358 C3356 1.419 . S
C3358 C3359 1.362 . S
C3359 H3349 0.930 . S
C3359 C3352 1.409 . S
C3359 C3358 1.362 . S
H3360 C3366 0.930 . S
H3361 C3369 0.930 . S
H3362 C3370 0.930 . S
H3363 C3371 0.930 . S
H3364 C3374 0.930 . S
H3365 C3375 0.930 . S
C3366 H3360 0.930 . S
C3366 C3367 1.355 . S
C3366 C3368 1.415 . S
C3367 C3366 1.355 . S
C3367 C3369 1.419 . S
C3368 C3366 1.415 . S
C3368 C3373 1.425 . S
C3368 C3375 1.409 . S
C3369 H3361 0.930 . S
C3369 C3367 1.419 . S
C3369 C3370 1.362 . S
C3370 H3362 0.930 . S
C3370 C3369 1.362 . S
C3370 C3373 1.409 . S
C3371 H3363 0.930 . S
C3371 C3372 1.355 . S
C3371 C3373 1.415 . S
C3372 C3371 1.355 . S
C3372 C3374 1.419 . S
C3373 C3368 1.425 . S
C3373 C3370 1.409 . S
C3373 C3371 1.415 . S
C3374 H3364 0.930 . S
C3374 C3372 1.419 . S
C3374 C3375 1.362 . S
C3375 H3365 0.930 . S
C3375 C3368 1.409 . S
C3375 C3374 1.362 . S
H3376 C3382 0.930 . S
H3377 C3385 0.930 . S
H3378 C3386 0.930 . S
H3379 C3387 0.930 . S
H3380 C3390 0.930 . S
H3381 C3391 0.930 . S
C3382 H3376 0.930 . S
C3382 C3383 1.355 . S
C3382 C3384 1.444 . S
C3383 C3382 1.355 . S
C3383 C3385 1.419 . S
C3384 C3382 1.444 . S
C3384 C3389 1.422 1_455 S
C3384 C3391 1.382 1_455 S
C3385 H3377 0.930 . S
C3385 C3383 1.419 . S
C3385 C3386 1.362 . S
C3386 H3378 0.930 . S
C3386 C3385 1.362 . S
C3386 C3389 1.370 1_455 S
C3387 H3379 0.930 . S
C3387 C3388 1.355 . S
C3387 C3389 1.458 . S
C3388 C3387 1.355 . S
C3388 C3390 1.419 . S
C3389 C3384 1.422 1_655 S
C3389 C3386 1.370 1_655 S
C3389 C3387 1.458 . S
C3390 H3380 0.930 . S
C3390 C3388 1.419 . S
C3390 C3391 1.362 . S
C3391 H3381 0.930 . S
C3391 C3384 1.382 1_655 S
C3391 C3390 1.362 . S
H3392 C3398 0.930 . S
H3393 C3401 0.930 . S
H3394 C3402 0.930 . S
H3395 C3403 0.930 . S
H3396 C3406 0.930 . S
H3397 C3407 0.930 . S
C3398 H3392 0.930 . S
C3398 C3399 1.355 . S
C3398 C3400 1.421 . S
C3399 C3398 1.355 . S
C3399 C3401 1.419 . S
C3400 C3398 1.421 . S
C3400 C3405 1.425 . S
C3400 C3407 1.403 1_455 S
C3401 H3393 0.930 . S
C3401 C3399 1.419 . S
C3401 C3402 1.362 . S
C3402 H3394 0.930 . S
C3402 C3401 1.362 . S
C3402 C3405 1.406 . S
C3403 H3395 0.930 . S
C3403 C3404 1.355 . S
C3403 C3405 1.418 1_655 S
C3404 C3403 1.355 . S
C3404 C3406 1.419 . S
C3405 C3400 1.425 . S
C3405 C3402 1.406 . S
C3405 C3403 1.418 1_455 S
C3406 H3396 0.930 . S
C3406 C3404 1.419 . S
C3406 C3407 1.362 . S
C3407 H3397 0.930 . S
C3407 C3400 1.403 1_655 S
C3407 C3406 1.362 . S
H3408 C3414 0.930 . S
H3409 C3417 0.930 . S
H3410 C3418 0.930 1_455 S
H3411 C3419 0.930 . S
H3412 C3422 0.930 . S
H3413 C3423 0.930 1_655 S
C3414 H3408 0.930 . S
C3414 C3415 1.355 . S
C3414 C3416 1.415 . S
C3415 C3414 1.355 . S
C3415 C3417 1.419 . S
C3416 C3414 1.415 . S
C3416 C3421 1.425 1_655 S
C3416 C3423 1.409 1_655 S
C3417 H3409 0.930 . S
C3417 C3415 1.419 . S
C3417 C3418 1.362 . S
C3418 H3410 0.930 1_655 S
C3418 C3417 1.362 . S
C3418 C3421 1.409 1_655 S
C3419 H3411 0.930 . S
C3419 C3420 1.355 . S
C3419 C3421 1.415 . S
C3420 C3419 1.355 . S
C3420 C3422 1.419 . S
C3421 C3416 1.425 1_455 S
C3421 C3418 1.409 1_455 S
C3421 C3419 1.415 . S
C3422 H3412 0.930 . S
C3422 C3420 1.419 . S
C3422 C3423 1.362 . S
C3423 H3413 0.930 1_455 S
C3423 C3416 1.409 1_455 S
C3423 C3422 1.362 . S
H3424 C3430 0.930 . S
H3425 C3433 0.930 . S
H3426 C3434 0.930 . S
H3427 C3435 0.930 . S
H3428 C3438 0.930 . S
H3429 C3439 0.930 . S
C3430 H3424 0.930 . S
C3430 C3431 1.355 . S
C3430 C3432 1.422 . S
C3431 C3430 1.355 . S
C3431 C3433 1.419 . S
C3432 C3430 1.422 . S
C3432 C3437 1.425 . S
C3432 C3439 1.402 1_455 S
C3433 H3425 0.930 . S
C3433 C3431 1.419 . S
C3433 C3434 1.362 . S
C3434 H3426 0.930 . S
C3434 C3433 1.362 . S
C3434 C3437 1.404 . S
C3435 H3427 0.930 . S
C3435 C3436 1.355 . S
C3435 C3437 1.419 1_655 S
C3436 C3435 1.355 . S
C3436 C3438 1.419 . S
C3437 C3432 1.425 . S
C3437 C3434 1.404 . S
C3437 C3435 1.419 1_455 S
C3438 H3428 0.930 . S
C3438 C3436 1.419 . S
C3438 C3439 1.362 . S
C3439 H3429 0.930 . S
C3439 C3432 1.402 1_655 S
C3439 C3438 1.362 . S
H3440 C3446 0.930 . S
H3441 C3449 0.930 . S
H3442 C3450 0.930 . S
H3443 C3451 0.930 . S
H3444 C3454 0.930 . S
H3445 C3455 0.930 . S
C3446 H3440 0.930 . S
C3446 C3447 1.355 . S
C3446 C3448 1.415 . S
C3447 C3446 1.355 . S
C3447 C3449 1.419 . S
C3448 C3446 1.415 . S
C3448 C3453 1.425 1_545 S
C3448 C3455 1.409 1_545 S
C3449 H3441 0.930 . S
C3449 C3447 1.419 . S
C3449 C3450 1.362 . S
C3450 H3442 0.930 . S
C3450 C3449 1.362 . S
C3450 C3453 1.409 1_545 S
C3451 H3443 0.930 . S
C3451 C3452 1.355 . S
C3451 C3453 1.415 . S
C3452 C3451 1.355 . S
C3452 C3454 1.419 . S
C3453 C3448 1.425 1_565 S
C3453 C3450 1.409 1_565 S
C3453 C3451 1.415 . S
C3454 H3444 0.930 . S
C3454 C3452 1.419 . S
C3454 C3455 1.362 . S
C3455 H3445 0.930 . S
C3455 C3448 1.409 1_565 S
C3455 C3454 1.362 . S
H3456 C3462 0.930 . S
H3457 C3465 0.930 . S
H3458 C3466 0.930 1_565 S
H3459 C3467 0.930 . S
H3460 C3470 0.930 . S
H3461 C3471 0.930 1_545 S
C3462 H3456 0.930 . S
C3462 C3463 1.355 . S
C3462 C3464 1.415 . S
C3463 C3462 1.355 . S
C3463 C3465 1.419 . S
C3464 C3462 1.415 . S
C3464 C3469 1.425 1_545 S
C3464 C3471 1.409 1_545 S
C3465 H3457 0.930 . S
C3465 C3463 1.419 . S
C3465 C3466 1.362 . S
C3466 H3458 0.930 1_545 S
C3466 C3465 1.362 . S
C3466 C3469 1.409 1_545 S
C3467 H3459 0.930 . S
C3467 C3468 1.355 . S
C3467 C3469 1.415 . S
C3468 C3467 1.355 . S
C3468 C3470 1.419 . S
C3469 C3464 1.425 1_565 S
C3469 C3466 1.409 1_565 S
C3469 C3467 1.415 . S
C3470 H3460 0.930 . S
C3470 C3468 1.419 . S
C3470 C3471 1.362 . S
C3471 H3461 0.930 1_565 S
C3471 C3464 1.409 1_565 S
C3471 C3470 1.362 . S
H3472 C3478 0.930 . S
H3473 C3481 0.930 . S
H3474 C3482 0.930 . S
H3475 C3483 0.930 . S
H3476 C3486 0.930 . S
H3477 C3487 0.930 . S
C3478 H3472 0.930 . S
C3478 C3479 1.355 . S
C3478 C3480 1.415 . S
C3479 C3478 1.355 . S
C3479 C3481 1.419 . S
C3480 C3478 1.415 . S
C3480 C3485 1.425 . S
C3480 C3487 1.409 . S
C3481 H3473 0.930 . S
C3481 C3479 1.419 . S
C3481 C3482 1.362 . S
C3482 H3474 0.930 . S
C3482 C3481 1.362 . S
C3482 C3485 1.409 . S
C3483 H3475 0.930 . S
C3483 C3484 1.355 . S
C3483 C3485 1.415 . S
C3484 C3483 1.355 . S
C3484 C3486 1.419 . S
C3485 C3480 1.425 . S
C3485 C3482 1.409 . S
C3485 C3483 1.415 . S
C3486 H3476 0.930 . S
C3486 C3484 1.419 . S
C3486 C3487 1.362 . S
C3487 H3477 0.930 . S
C3487 C3480 1.409 . S
C3487 C3486 1.362 . S
H3488 C3494 0.930 . S
H3489 C3497 0.930 . S
H3490 C3498 0.901 1_545 S
H3491 C3499 0.930 . S
H3492 C3502 0.930 . S
H3493 C3503 0.930 1_565 S
C3494 H3488 0.930 . S
C3494 C3495 1.355 . S
C3494 C3496 1.415 . S
C3495 C3494 1.355 . S
C3495 C3497 1.419 . S
C3496 C3494 1.415 . S
C3496 C3501 1.425 1_565 S
C3496 C3503 1.409 1_565 S
C3497 H3489 0.930 . S
C3497 C3495 1.419 . S
C3497 C3498 1.409 . S
C3498 H3490 0.901 1_565 S
C3498 C3497 1.409 . S
C3498 C3501 1.392 1_565 S
C3499 H3491 0.930 . S
C3499 C3500 1.355 . S
C3499 C3501 1.415 . S
C3500 C3499 1.355 . S
C3500 C3502 1.419 . S
C3501 C3496 1.425 1_545 S
C3501 C3498 1.392 1_545 S
C3501 C3499 1.415 . S
C3502 H3492 0.930 . S
C3502 C3500 1.419 . S
C3502 C3503 1.362 . S
C3503 H3493 0.930 1_545 S
C3503 C3496 1.409 1_545 S
C3503 C3502 1.362 . S
C1591 N1333 1.385 . S
C1596 C7 1.424 . S
C1607 N1366 1.387 . S
C1612 C40 1.393 . S
C1623 N1399 1.374 . S
C1628 C73 1.396 . S
C1639 C106 1.453 . S
C1644 N1432 1.431 . S
C1655 C139 1.437 . S
C1660 N1465 1.400 . S
C1671 C172 1.428 . S
C1676 N772 1.437 . S
C1687 C205 1.397 . S
C1692 N1498 1.373 . S
C1703 C238 1.412 . S
C1708 N1531 1.377 . S
C1719 C271 1.453 . S
C1724 N1201 1.436 . S
C1735 C304 1.411 . S
C1740 N1267 1.376 . S
C1751 C337 1.452 . S
C1756 N1300 1.428 . S
C1767 N442 1.388 . S
C1772 C370 1.393 . S
C1783 C403 1.401 . S
C1788 N937 1.407 . S
C1799 C436 1.395 . S
C1804 N970 1.375 . S
C1815 N1003 1.404 . S
C1820 C469 1.399 . S
C1831 N1036 1.390 . S
C1836 C502 1.429 . S
C1847 C535 1.406 . S
C1852 N1069 1.374 . S
C1863 N376 1.377 . S
C1868 C568 1.393 . S
C1879 N1102 1.432 . S
C1884 C601 1.422 . S
C1895 N1135 1.374 . S
C1900 C634 1.407 . S
C1911 C667 1.431 . S
C1916 N805 1.439 . S
C1927 C700 1.406 . S
C1932 N871 1.374 . S
C1943 N904 1.373 . S
C1948 C733 1.398 . S
C1959 C766 1.453 . S
C1964 N46 1.436 . S
C1975 C799 1.423 . S
C1980 N541 1.433 . S
C1991 N574 1.409 . S
C1996 C832 1.443 . S
C2007 N607 1.386 . S
C2012 C865 1.393 . S
C2023 C898 1.450 . S
C2028 N640 1.423 . S
C2039 C931 1.401 . S
C2044 N673 1.406 . S
C2055 N1564 1.373 . S
C2060 C964 1.403 . S
C2071 C997 1.413 . S
C2076 N706 1.377 . S
C2087 C1030 1.414 . S
C2092 N739 1.377 . S
C2103 C1063 1.393 . S
C2108 N409 1.382 . S
C2119 N475 1.377 . S
C2124 C1096 1.394 . S
C2135 C1129 1.413 . S
C2140 N508 1.377 . S
C2151 C1162 1.422 . S
C2156 N1234 1.433 . S
C2167 C1195 1.445 . S
C2172 N145 1.411 . S
C2183 C1228 1.442 . S
C2188 N178 1.407 . S
C2199 C1261 1.426 . S
C2204 N211 1.436 . S
C2215 C1294 1.431 . S
C2220 N244 1.439 . S
C2231 N277 1.439 . S
C2236 C1327 1.453 . S
C2247 C1360 1.435 . S
C2252 N1168 1.397 . S
C2263 C1393 1.421 . S
C2268 N310 1.383 . S
C2279 N343 1.397 . S
C2284 C1426 1.435 . S
C2295 N13 1.431 . S
C2300 C1459 1.421 . S
C2311 C1492 1.444 . S
C2316 N79 1.444 . S
C2327 C1525 1.418 . S
C2332 N112 1.381 . S
C2343 N838 1.376 . S
C2348 C1558 1.394 . S
C2359 N2 0.464 . S
C2364 N35 0.460 . S
C2375 N101 0.458 . S
C2380 N68 0.465 . S
C2391 N134 0.389 . S
C2396 N200 0.458 . S
C2407 N233 0.471 . S
C2412 N167 0.452 . S
C2423 N1124 0.399 . S
C2428 N266 0.431 . S
C2439 N299 0.482 . S
C2444 N365 0.413 . S
C2455 N332 0.424 . S
C2460 N1058 0.404 . S
C2471 N398 0.428 . S
C2476 N431 0.401 . S
C2487 N464 0.413 . S
C2492 N497 0.413 . S
C2503 N596 0.472 . S
C2508 N530 0.393 . S
C2519 N563 0.482 . S
C2524 N629 0.411 . S
C2535 N662 0.440 . S
C2540 N1520 0.477 . S
C2551 N761 0.457 . S
C2556 N695 0.467 . S
C2567 N1454 0.461 . S
C2572 N728 0.389 . S
C2583 N827 0.400 . S
C2588 N794 0.430 . S
C2599 N893 0.478 . S
C2604 N860 0.439 . S
C2615 N992 0.398 . S
C2620 N926 0.432 . S
C2631 N1025 0.481 . S
C2636 N959 0.430 . S
C2647 N1157 0.482 . S
C2652 N1091 0.410 . S
C2663 N1223 0.459 . S
C2668 N1190 0.389 . S
C2679 N1289 0.445 . S
C2684 N1256 0.475 . S
C2695 N1388 0.389 . S
C2700 N1322 0.462 . S
C2711 N1421 0.413 . S
C2716 N1355 0.413 . S
C2727 N1553 0.421 . S
C2732 N1487 0.482 . S
C2743 C18 1.185 . S
C2748 C747 1.083 . S
C2759 C51 1.188 . S
C2764 C714 1.163 . S
C2775 C1572 1.086 . S
C2780 C84 1.185 . S
C2791 C681 1.091 . S
C2796 C117 1.188 . S
C2807 C150 1.184 . S
C2812 C1242 1.096 . S
C2823 C1209 1.157 . S
C2828 C183 1.188 . S
C2839 C1308 1.091 . S
C2844 C216 1.184 . S
C2855 C249 1.184 . S
C2860 C1275 1.093 . S
C2871 C1407 1.152 . S
C2876 C282 1.188 . S
C2887 C1341 1.164 . S
C2892 C315 1.183 . S
C2903 C348 1.184 . S
C2908 C1374 1.183 . S
C2919 C648 1.184 . S
C2924 C381 1.185 . S
C2935 C351 1.161 . S
C2940 C414 1.188 . S
C2951 C318 1.152 . S
C2956 C447 1.183 . S
C2967 C480 1.187 . S
C2972 C1176 1.089 . S
C2983 C513 1.188 . S
C2988 C285 1.156 . S
C2999 C846 1.095 . S
C3004 C546 1.184 . S
C3015 C813 1.170 . S
C3020 C579 1.188 . S
C3031 C612 1.184 . S
C3036 C912 1.176 . S
C3047 C645 1.187 . S
C3052 C879 1.181 . S
C3063 C1011 1.134 . S
C3068 C678 1.189 . S
C3079 C711 1.183 . S
C3084 C945 1.150 . S
C3095 C978 1.082 . S
C3100 C744 1.185 . S
C3111 C252 1.095 . S
C3116 C777 1.188 . S
C3127 C810 1.184 . S
C3132 C1539 1.098 . S
C3143 C1506 1.174 . S
C3148 C843 1.187 . S
C3159 C876 1.185 . S
C3164 C780 1.082 . S
C3175 C909 1.183 . S
C3180 C1473 1.150 . S
C3191 C942 1.183 . S
C3196 C450 1.167 . S
C3207 C417 1.162 . S
C3212 C975 1.183 . S
C3223 C1008 1.186 . S
C3228 C516 1.184 . S
C3239 C1041 1.187 . S
C3244 C483 1.083 . S
C3255 C615 1.126 . S
C3260 C1074 1.189 . S
C3271 C1107 1.184 . S
C3276 C549 1.090 . S
C3287 C1140 1.185 . S
C3292 C582 1.185 . S
C3303 C1173 1.187 . S
C3308 C1440 1.182 . S
C3319 C1143 1.185 . S
C3324 C1206 1.185 . S
C3335 C1239 1.186 . S
C3340 C1110 1.182 . S
C3351 C1272 1.188 . S
C3356 C384 1.096 . S
C3367 C1305 1.184 . S
C3372 C1077 1.176 . S
C3383 C1338 1.183 . S
C3388 C54 1.156 . S
C3399 C21 1.175 . S
C3404 C1371 1.187 . S
C3415 C120 1.099 . S
C3420 C1404 1.183 . S
C3431 C87 1.175 . S
C3436 C1437 1.187 . S
C3447 C1470 1.187 . S
C3452 C219 1.179 . S
C3463 C153 1.089 . S
C3468 C1503 1.187 . S
C3479 C186 1.086 . S
C3484 C1536 1.187 . S
C3495 C1569 1.187 . S
C3500 C1044 1.087 . S
