# Generated by pormake.
# Topology ooa, (5)-cn, num edge types: 1
# Building blocks:
#     Node 0, Type 0, BuildingBlock: XOMCOT_clean_sbu_1, # of connection points: 5
#     Node 1, Type 0, BuildingBlock: XOMCOT_clean_sbu_1, # of connection points: 5
#     Node 2, Type 0, BuildingBlock: XOMCOT_clean_sbu_1, # of connection points: 5
#     Node 3, Type 0, BuildingBlock: XOMCOT_clean_sbu_1, # of connection points: 5
#     Node 4, Type 0, BuildingBlock: XOMCOT_clean_sbu_1, # of connection points: 5
#     Node 5, Type 0, BuildingBlock: XOMCOT_clean_sbu_1, # of connection points: 5
#     Node 6, Type 0, BuildingBlock: XOMCOT_clean_sbu_1, # of connection points: 5
#     Node 7, Type 0, BuildingBlock: XOMCOT_clean_sbu_1, # of connection points: 5
#     Edge 8, Type (0, 0), None
#     Edge 9, Type (0, 0), None
#     Edge 10, Type (0, 0), None
#     Edge 11, Type (0, 0), None
#     Edge 12, Type (0, 0), None
#     Edge 13, Type (0, 0), None
#     Edge 14, Type (0, 0), None
#     Edge 15, Type (0, 0), None
#     Edge 16, Type (0, 0), None
#     Edge 17, Type (0, 0), None
#     Edge 18, Type (0, 0), None
#     Edge 19, Type (0, 0), None
#     Edge 20, Type (0, 0), None
#     Edge 21, Type (0, 0), None
#     Edge 22, Type (0, 0), None
#     Edge 23, Type (0, 0), None
#     Edge 24, Type (0, 0), None
#     Edge 25, Type (0, 0), None
#     Edge 26, Type (0, 0), None
#     Edge 27, Type (0, 0), None
# Relax obj value: 0.429
# Max RMSD: 0.225
# Mean RMSD: 0.225
data_MOF--net-ooa--node1-XOMCOT_clean_sbu_1--edge1-none
_symmetry_space_group_name_H-M    P1
_symmetry_Int_Tables_number       1
_symmetry_cell_setting            triclinic
loop_
_symmetry_equiv_pos_as_xyz
'x, y, z'
_cell_length_a     12.865182
_cell_length_b     16.527512
_cell_length_c     27.28086
_cell_angle_alpha  90.001836
_cell_angle_beta   90.000093
_cell_angle_gamma 89.992681
loop_
_atom_site_label
_atom_site_type_symbol
_atom_site_fract_x
_atom_site_fract_y
_atom_site_fract_z
_atom_type_partial_charge
C0 C 0.15633 0.03473 0.12339 0.0
C1 C 0.23511 -0.01462 0.13973 0.0
N2 N 0.30802 -0.01576 0.10468 0.0
N3 N 0.18205 0.06554 0.07901 0.0
C4 C 0.27482 0.0322 0.06824 0.0
H5 H 1.08433 0.04646 0.14245 0.0
Co6 Co 1.10268 0.13603 0.04117 0.0
C7 C 0.28607 0.24997 0.01148 0.0
O8 O 0.25274 0.3183 0.03032 0.0
N9 N 1.01798 0.20562 0.00366 0.0
C10 C 0.93664 0.31316 0.97268 0.0
C11 C 1.02021 0.28707 -0.00021 0.0
C12 C 0.92965 0.18389 -0.02009 0.0
N13 N 0.8789 0.24832 0.96063 0.0
O14 O 0.11406 0.0639 -0.01235 0.0
H15 H 1.07337 0.32638 0.01852 0.0
H16 H 0.90153 0.12223 -0.02171 0.0
O17 O 0.23207 0.18544 0.01601 0.0
C18 C 1.08678 -0.00956 -0.00784 0.0
O19 O 1.03525 -0.03309 0.0312 0.0
N20 N 1.09036 0.20304 0.09553 0.0
C21 C 1.07563 0.21596 0.19684 0.0
C22 C 0.16771 0.2375 0.17231 0.0
C23 C 0.1745 0.22837 0.12175 0.0
C24 C 0.99591 0.19453 0.11755 0.0
C25 C 0.98692 0.19957 0.16851 0.0
H26 H 0.25079 0.22992 0.10561 0.0
H27 H 0.93088 0.17175 0.09654 0.0
H28 H 0.31668 0.04205 0.03439 0.0
H29 H 0.23747 0.95114 0.17353 0.0
H30 H 0.91673 0.37556 0.96493 0.0
H31 H 0.23715 0.25461 0.19216 0.0
H32 H 0.91374 0.18325 0.18536 0.0
C33 C 0.55031 0.887 0.12341 0.0
C34 C 0.47158 0.93641 0.13974 0.0
N35 N 0.39871 0.93762 0.10468 0.0
N36 N 0.52459 0.85621 0.07902 0.0
C37 C 0.43186 0.88962 0.06824 0.0
H38 H 0.62228 0.87523 0.14248 0.0
Co39 Co 0.60393 0.78571 0.04118 0.0
C40 C 0.42054 0.67178 0.01149 0.0
O41 O 0.45386 0.60345 0.03033 0.0
N42 N 0.68862 0.71611 0.00367 0.0
C43 C 0.76996 0.60856 0.97269 0.0
C44 C 0.68638 0.63466 -0.00021 0.0
C45 C 0.77696 0.73783 -0.02008 0.0
N46 N 0.8277 0.67339 0.96064 0.0
O47 O 0.59256 0.85784 -0.01235 0.0
H48 H 0.63323 0.59535 0.01852 0.0
H49 H 0.80508 0.79948 -0.0217 0.0
O50 O 0.47453 0.73631 0.01602 0.0
C51 C 0.61983 0.9313 -0.00784 0.0
O52 O 0.67136 0.95484 0.0312 0.0
N53 N 0.61625 0.7187 0.09554 0.0
C54 C 0.63098 0.70578 0.19684 0.0
C55 C 0.53889 0.68425 0.17232 0.0
C56 C 0.5321 0.69339 0.12176 0.0
C57 C 0.7107 0.7272 0.11756 0.0
C58 C 0.71969 0.72216 0.16852 0.0
H59 H 0.45581 0.69185 0.10562 0.0
H60 H 0.77573 0.74997 0.09655 0.0
H61 H 0.38999 0.87978 0.03439 0.0
H62 H 0.46923 -0.02937 0.17355 0.0
H63 H 0.78986 0.54616 0.96494 0.0
H64 H 0.46945 0.66714 0.19217 0.0
H65 H 0.79288 0.73847 0.18536 0.0
C66 C 0.15635 0.38701 0.3246 0.0
C67 C 0.23511 0.43636 0.30826 0.0
N68 N 0.30803 0.4375 0.3433 0.0
N69 N 0.18209 0.3562 0.36898 0.0
C70 C 0.27485 0.38954 0.37975 0.0
H71 H 1.08435 0.37528 0.30554 0.0
Co72 Co 1.10275 0.2857 0.40682 0.0
C73 C 0.28621 0.17177 0.43648 0.0
O74 O 0.25296 0.10345 0.41759 0.0
N75 N 1.01808 0.21612 0.44433 0.0
C76 C 0.93685 0.10859 0.47537 0.0
C77 C 1.02041 0.13468 0.44826 0.0
C78 C 0.92972 0.23784 0.46807 0.0
N79 N 0.87904 0.17341 0.48738 0.0
O80 O 0.11413 0.35784 0.46035 0.0
H81 H 1.07364 0.09537 0.42957 0.0
H82 H 0.90154 0.29949 0.46966 0.0
O83 O 0.23216 0.23629 0.43197 0.0
C84 C 1.0868 0.43129 0.45584 0.0
O85 O 1.03523 0.4548 0.4168 0.0
N86 N 1.09044 0.2187 0.35246 0.0
C87 C 1.07565 0.20581 0.25115 0.0
C88 C 0.16776 0.18429 0.27566 0.0
C89 C 0.17458 0.19341 0.32623 0.0
C90 C 0.99597 0.2272 0.33045 0.0
C91 C 0.98695 0.22217 0.27949 0.0
H92 H 0.25088 0.19188 0.34235 0.0
H93 H 0.93094 0.24996 0.35147 0.0
H94 H 0.31673 0.37968 0.41359 0.0
H95 H 0.23745 0.47061 0.27446 0.0
H96 H 0.91703 0.04619 0.48316 0.0
H97 H 0.23721 0.16719 0.2558 0.0
H98 H 0.91374 0.23847 0.26266 0.0
C99 C 0.55029 0.53474 0.32459 0.0
C100 C 0.47157 0.48534 0.30825 0.0
N101 N 0.3987 0.48412 0.34331 0.0
N102 N 0.52455 0.56553 0.36898 0.0
C103 C 0.43182 0.53212 0.37975 0.0
H104 H 0.62227 0.54652 0.30552 0.0
Co105 Co 0.60386 0.63603 0.40682 0.0
C106 C 0.42039 0.74995 0.43648 0.0
O107 O 0.45364 0.81827 0.4176 0.0
N108 N 0.68851 0.70563 0.44434 0.0
C109 C 0.76974 0.81316 0.47538 0.0
C110 C 0.68618 0.78707 0.44827 0.0
C111 C 0.77688 0.68391 0.46807 0.0
N112 N 0.82756 0.74833 0.48738 0.0
O113 O 0.59249 0.56389 0.46035 0.0
H114 H 0.63295 0.82638 0.42959 0.0
H115 H 0.80507 0.62226 0.46965 0.0
O116 O 0.47444 0.68543 0.43198 0.0
C117 C 0.61981 0.49044 0.45584 0.0
O118 O 0.67138 0.46692 0.4168 0.0
N119 N 0.61617 0.70305 0.35246 0.0
C120 C 0.63096 0.71594 0.25116 0.0
C121 C 0.53884 0.73746 0.27567 0.0
C122 C 0.53203 0.72833 0.32623 0.0
C123 C 0.71064 0.69456 0.33046 0.0
C124 C 0.71966 0.69959 0.2795 0.0
H125 H 0.45572 0.72984 0.34236 0.0
H126 H 0.77568 0.67181 0.35148 0.0
H127 H 0.38995 0.54196 0.41359 0.0
H128 H 0.46924 0.45111 0.27445 0.0
H129 H 0.78957 0.87556 0.48318 0.0
H130 H 0.4694 0.75455 0.25581 0.0
H131 H 0.79287 0.6833 0.26267 0.0
C132 C 1.05027 0.88699 0.8246 0.0
C133 C 0.97149 0.93635 0.80826 0.0
N134 N 0.89858 0.93749 0.84331 0.0
N135 N 1.02455 0.85619 0.86898 0.0
C136 C 0.93178 0.88953 0.87975 0.0
H137 H 0.12227 0.87526 0.80554 0.0
Co138 Co 0.10392 0.78569 0.90682 0.0
C139 C 0.92053 0.67175 0.93651 0.0
O140 O 0.95385 0.60342 0.91767 0.0
N141 N 0.18863 0.71611 0.94433 0.0
C142 C 0.26997 0.60857 -0.02469 0.0
C143 C 0.18638 0.63466 0.94821 0.0
C144 C 0.27697 0.73784 0.96807 0.0
N145 N 0.32773 0.67341 -0.01266 0.0
O146 O 1.09253 0.85783 0.96035 0.0
H147 H 0.13321 0.59535 0.9295 0.0
H148 H 0.30509 0.7995 0.96969 0.0
O149 O 0.97453 0.73629 0.93198 0.0
C150 C 0.11981 0.93129 0.95584 0.0
O151 O 0.17135 0.95482 0.91679 0.0
N152 N 0.11624 0.71869 0.85246 0.0
C153 C 0.13099 0.70577 0.75115 0.0
C154 C 1.0389 0.68423 0.77568 0.0
C155 C 1.03211 0.69336 0.82624 0.0
C156 C 0.2107 0.7272 0.83044 0.0
C157 C 0.21969 0.72216 0.77948 0.0
H158 H 0.95582 0.69181 0.84238 0.0
H159 H 0.27572 0.74999 0.85145 0.0
H160 H 0.88992 0.87968 0.9136 0.0
H161 H 0.96913 -0.02941 0.77446 0.0
H162 H 0.28986 0.54617 -0.01693 0.0
H163 H 0.96946 0.66711 0.75583 0.0
H164 H 0.29287 0.73848 0.76264 0.0
C165 C 0.6563 0.03474 0.82458 0.0
C166 C 0.73503 -0.01467 0.80825 0.0
N167 N 0.80789 -0.01589 0.84331 0.0
N168 N 0.68202 0.06552 0.86897 0.0
C169 C 0.77475 0.03211 0.87975 0.0
H170 H 0.58432 0.04651 0.80551 0.0
Co171 Co 0.60267 0.13603 0.90681 0.0
C172 C 0.78608 0.24996 0.9365 0.0
O173 O 0.75275 0.31829 0.91765 0.0
N174 N 0.51798 0.20563 0.94432 0.0
C175 C 0.43664 0.31317 -0.0247 0.0
C176 C 0.52023 0.28708 0.94821 0.0
C177 C 0.42963 0.18391 0.96806 0.0
N178 N 0.37887 0.24834 -0.01268 0.0
O179 O 0.61406 0.0639 0.96034 0.0
H180 H 0.5734 0.32639 0.9295 0.0
H181 H 0.40151 0.12225 0.96967 0.0
O182 O 0.73208 0.18543 0.93197 0.0
C183 C 0.58678 -0.00956 0.95583 0.0
O184 O 0.53525 -0.0331 0.91679 0.0
N185 N 0.59035 0.20304 0.85245 0.0
C186 C 0.57561 0.21595 0.75115 0.0
C187 C 0.6677 0.23749 0.77567 0.0
C188 C 0.67449 0.22835 0.82623 0.0
C189 C 0.4959 0.19453 0.83043 0.0
C190 C 0.48691 0.19957 0.77947 0.0
H191 H 0.75078 0.22989 0.84237 0.0
H192 H 0.43087 0.17176 0.85144 0.0
H193 H 0.81661 0.04195 0.9136 0.0
H194 H 0.73738 0.9511 0.77444 0.0
H195 H 0.41675 0.37557 -0.01694 0.0
H196 H 0.73714 0.2546 0.75582 0.0
H197 H 0.41372 0.18326 0.76263 0.0
C198 C 1.05025 0.53473 0.62339 0.0
C199 C 0.97149 0.48537 0.63973 0.0
N200 N 0.89857 0.48424 0.60469 0.0
N201 N 1.02451 0.56554 0.57901 0.0
C202 C 0.93175 0.5322 0.56824 0.0
H203 H 0.12225 0.54645 0.64245 0.0
Co204 Co 0.10384 0.63604 0.54117 0.0
C205 C 0.92038 0.74997 0.51152 0.0
O206 O 0.95364 0.81829 0.53041 0.0
N207 N 0.18852 0.70562 0.50366 0.0
C208 C 0.26976 0.81315 0.47262 0.0
C209 C 0.18618 0.78706 0.49972 0.0
C210 C 0.27689 0.6839 0.47993 0.0
N211 N 0.32759 0.74832 0.46064 0.0
O212 O 1.09246 0.5639 0.48764 0.0
H213 H 0.13293 0.82637 0.51839 0.0
H214 H 0.30507 0.62224 0.47835 0.0
O215 O 0.97443 0.68545 0.51602 0.0
C216 C 0.1198 0.49045 0.49215 0.0
O217 O 0.17137 0.46694 0.53119 0.0
N218 N 0.11617 0.70304 0.59554 0.0
C219 C 0.13096 0.71593 0.69684 0.0
C220 C 1.03885 0.73745 0.67233 0.0
C221 C 1.03203 0.72833 0.62176 0.0
C222 C 0.21064 0.69453 0.61754 0.0
C223 C 0.21966 0.69956 0.6685 0.0
H224 H 0.95573 0.72986 0.60564 0.0
H225 H 0.27567 0.67177 0.59652 0.0
H226 H 0.88987 0.54206 0.5344 0.0
H227 H 0.96915 0.45112 0.67353 0.0
H228 H 0.28957 0.87554 0.46482 0.0
H229 H 0.96941 0.75455 0.69219 0.0
H230 H 0.29287 0.68326 0.68533 0.0
C231 C 0.65632 0.38699 0.6234 0.0
C232 C 0.73503 0.43639 0.63974 0.0
N233 N 0.80791 0.43761 0.60468 0.0
N234 N 0.68206 0.3562 0.57901 0.0
C235 C 0.77478 0.38961 0.56824 0.0
H236 H 0.58434 0.37521 0.64247 0.0
Co237 Co 0.60275 0.28569 0.54117 0.0
C238 C 0.78623 0.17178 0.51152 0.0
O239 O 0.75297 0.10346 0.5304 0.0
N240 N 0.51809 0.2161 0.50365 0.0
C241 C 0.43685 0.10857 0.47261 0.0
C242 C 0.52043 0.13466 0.49971 0.0
C243 C 0.42971 0.23782 0.47993 0.0
N244 N 0.37901 0.1734 0.46063 0.0
O245 O 0.61412 0.35783 0.48764 0.0
H246 H 0.57368 0.09535 0.51838 0.0
H247 H 0.40152 0.29947 0.47835 0.0
O248 O 0.73217 0.2363 0.51602 0.0
C249 C 0.5868 0.43129 0.49215 0.0
O250 O 0.53523 0.45481 0.53119 0.0
N251 N 0.59043 0.21869 0.59553 0.0
C252 C 0.57563 0.20579 0.69683 0.0
C253 C 0.66775 0.18427 0.67232 0.0
C254 C 0.67457 0.1934 0.62176 0.0
C255 C 0.49595 0.22717 0.61753 0.0
C256 C 0.48694 0.22214 0.66849 0.0
H257 H 0.75088 0.19188 0.60564 0.0
H258 H 0.43092 0.24993 0.59651 0.0
H259 H 0.81666 0.37977 0.5344 0.0
H260 H 0.73736 0.47062 0.67354 0.0
H261 H 0.41704 0.04618 0.4648 0.0
H262 H 0.73719 0.16718 0.69218 0.0
H263 H 0.41372 0.23844 0.68532 0.0
loop_
_geom_bond_atom_site_label_1
_geom_bond_atom_site_label_2
_geom_bond_distance
_geom_bond_site_symmetry_2
_ccdc_geom_bond_type
C0 C1 1.351 1_545 S
C0 N3 1.368 . S
C0 H5 0.931 1_545 S
C1 C0 1.351 1_565 S
C1 N2 1.373 1_565 S
C1 H29 0.930 . S
N2 C1 1.373 1_545 S
N2 C4 1.340 . S
N3 C0 1.368 . S
N3 C4 1.321 . S
N3 Co6 2.135 . S
C4 N2 1.340 . S
C4 N3 1.321 . S
C4 H28 0.930 . S
H5 C0 0.931 1_565 S
Co6 N3 2.135 . S
Co6 N9 2.121 1_455 S
Co6 O14 2.055 1_554 S
Co6 O17 2.039 1_554 S
Co6 N20 2.140 . S
C7 O8 1.227 . S
C7 O17 1.265 1_554 S
O8 C7 1.227 . S
N9 Co6 2.121 1_655 S
N9 C11 1.375 . S
N9 C12 1.313 1_554 S
C10 C11 1.338 . S
C10 N13 1.377 1_554 S
C10 H30 0.930 . S
C11 N9 1.375 . S
C11 C10 1.338 . S
C11 H15 0.931 1_655 S
C12 N9 1.313 1_556 S
C12 N13 1.344 . S
C12 H16 0.930 . S
N13 C10 1.377 1_556 S
N13 C12 1.344 . S
O14 Co6 2.055 1_556 S
O14 C18 1.253 1_456 S
H15 C11 0.931 1_455 S
H16 C12 0.930 . S
O17 Co6 2.039 1_556 S
O17 C7 1.265 1_556 S
C18 O14 1.253 1_654 S
C18 O19 1.227 . S
O19 C18 1.227 . S
N20 Co6 2.140 . S
N20 C23 1.346 . S
N20 C24 1.345 1_455 S
C21 C22 1.387 . S
C21 C25 1.391 1_455 S
C22 C21 1.387 . S
C22 C23 1.369 . S
C22 H31 0.929 . S
C23 N20 1.346 . S
C23 C22 1.369 . S
C23 H26 0.928 . S
C24 N20 1.345 1_655 S
C24 C25 1.371 . S
C24 H27 0.931 . S
C25 C21 1.391 1_655 S
C25 C24 1.371 . S
C25 H32 0.930 . S
H26 C23 0.928 . S
H27 C24 0.931 . S
H28 C4 0.930 . S
H29 C1 0.930 . S
H30 C10 0.930 . S
H31 C22 0.929 . S
H32 C25 0.930 . S
C33 C34 1.351 1_565 S
C33 N36 1.368 . S
C33 H38 0.931 1_565 S
C34 C33 1.351 1_545 S
C34 N35 1.373 1_545 S
C34 H62 0.930 . S
N35 C34 1.373 1_565 S
N35 C37 1.340 . S
N36 C33 1.368 . S
N36 C37 1.321 . S
N36 Co39 2.135 . S
C37 N35 1.340 . S
C37 N36 1.321 . S
C37 H61 0.930 . S
H38 C33 0.931 1_545 S
Co39 N36 2.135 . S
Co39 N42 2.121 . S
Co39 O47 2.055 1_554 S
Co39 O50 2.039 1_554 S
Co39 N53 2.140 . S
C40 O41 1.227 . S
C40 O50 1.265 1_554 S
O41 C40 1.227 . S
N42 Co39 2.121 . S
N42 C44 1.375 . S
N42 C45 1.313 1_554 S
C43 C44 1.338 . S
C43 N46 1.377 1_554 S
C43 H63 0.930 . S
C44 N42 1.375 . S
C44 C43 1.338 . S
C44 H48 0.931 . S
C45 N42 1.313 1_556 S
C45 N46 1.344 . S
C45 H49 0.930 . S
N46 C43 1.377 1_556 S
N46 C45 1.344 . S
O47 Co39 2.055 1_556 S
O47 C51 1.253 1_556 S
H48 C44 0.931 . S
H49 C45 0.930 . S
O50 Co39 2.039 1_556 S
O50 C40 1.265 1_556 S
C51 O47 1.253 1_554 S
C51 O52 1.227 . S
O52 C51 1.227 . S
N53 Co39 2.140 . S
N53 C56 1.346 . S
N53 C57 1.345 . S
C54 C55 1.387 . S
C54 C58 1.391 . S
C55 C54 1.387 . S
C55 C56 1.369 . S
C55 H64 0.929 . S
C56 N53 1.346 . S
C56 C55 1.369 . S
C56 H59 0.928 . S
C57 N53 1.345 . S
C57 C58 1.371 . S
C57 H60 0.931 . S
C58 C54 1.391 . S
C58 C57 1.371 . S
C58 H65 0.930 . S
H59 C56 0.928 . S
H60 C57 0.931 . S
H61 C37 0.930 . S
H62 C34 0.930 . S
H63 C43 0.930 . S
H64 C55 0.929 . S
H65 C58 0.930 . S
C66 C67 1.351 . S
C66 N69 1.368 . S
C66 H71 0.931 . S
C67 C66 1.351 . S
C67 N68 1.373 . S
C67 H95 0.930 . S
N68 C67 1.373 . S
N68 C70 1.340 . S
N69 C66 1.368 . S
N69 C70 1.321 . S
N69 Co72 2.135 . S
C70 N68 1.340 . S
C70 N69 1.321 . S
C70 H94 0.930 . S
H71 C66 0.931 . S
Co72 N69 2.135 . S
Co72 N75 2.121 1_455 S
Co72 O80 2.055 . S
Co72 O83 2.039 . S
Co72 N86 2.140 . S
C73 O74 1.227 . S
C73 O83 1.265 . S
O74 C73 1.227 . S
N75 Co72 2.121 1_655 S
N75 C77 1.375 . S
N75 C78 1.313 . S
C76 C77 1.338 . S
C76 N79 1.377 . S
C76 H96 0.930 . S
C77 N75 1.375 . S
C77 C76 1.338 . S
C77 H81 0.931 1_655 S
C78 N75 1.313 . S
C78 N79 1.344 . S
C78 H82 0.930 . S
N79 C76 1.377 . S
N79 C78 1.344 . S
O80 Co72 2.055 . S
O80 C84 1.253 1_455 S
H81 C77 0.931 1_455 S
H82 C78 0.930 . S
O83 Co72 2.039 . S
O83 C73 1.265 . S
C84 O80 1.253 1_655 S
C84 O85 1.227 . S
O85 C84 1.227 . S
N86 Co72 2.140 . S
N86 C89 1.346 . S
N86 C90 1.345 1_455 S
C87 C88 1.387 . S
C87 C91 1.391 1_455 S
C88 C87 1.387 . S
C88 C89 1.369 . S
C88 H97 0.929 . S
C89 N86 1.346 . S
C89 C88 1.369 . S
C89 H92 0.928 . S
C90 N86 1.345 1_655 S
C90 C91 1.371 . S
C90 H93 0.931 . S
C91 C87 1.391 1_655 S
C91 C90 1.371 . S
C91 H98 0.930 . S
H92 C89 0.928 . S
H93 C90 0.931 . S
H94 C70 0.930 . S
H95 C67 0.930 . S
H96 C76 0.930 . S
H97 C88 0.929 . S
H98 C91 0.930 . S
C99 C100 1.351 . S
C99 N102 1.368 . S
C99 H104 0.931 . S
C100 C99 1.351 . S
C100 N101 1.373 . S
C100 H128 0.930 . S
N101 C100 1.373 . S
N101 C103 1.340 . S
N102 C99 1.368 . S
N102 C103 1.321 . S
N102 Co105 2.135 . S
C103 N101 1.340 . S
C103 N102 1.321 . S
C103 H127 0.930 . S
H104 C99 0.931 . S
Co105 N102 2.135 . S
Co105 N108 2.121 . S
Co105 O113 2.055 . S
Co105 O116 2.039 . S
Co105 N119 2.140 . S
C106 O107 1.227 . S
C106 O116 1.265 . S
O107 C106 1.227 . S
N108 Co105 2.121 . S
N108 C110 1.375 . S
N108 C111 1.313 . S
C109 C110 1.338 . S
C109 N112 1.377 . S
C109 H129 0.930 . S
C110 N108 1.375 . S
C110 C109 1.338 . S
C110 H114 0.931 . S
C111 N108 1.313 . S
C111 N112 1.344 . S
C111 H115 0.930 . S
N112 C109 1.377 . S
N112 C111 1.344 . S
O113 Co105 2.055 . S
O113 C117 1.253 . S
H114 C110 0.931 . S
H115 C111 0.930 . S
O116 Co105 2.039 . S
O116 C106 1.265 . S
C117 O113 1.253 . S
C117 O118 1.227 . S
O118 C117 1.227 . S
N119 Co105 2.140 . S
N119 C122 1.346 . S
N119 C123 1.345 . S
C120 C121 1.387 . S
C120 C124 1.391 . S
C121 C120 1.387 . S
C121 C122 1.369 . S
C121 H130 0.929 . S
C122 N119 1.346 . S
C122 C121 1.369 . S
C122 H125 0.928 . S
C123 N119 1.345 . S
C123 C124 1.371 . S
C123 H126 0.931 . S
C124 C120 1.391 . S
C124 C123 1.371 . S
C124 H131 0.930 . S
H125 C122 0.928 . S
H126 C123 0.931 . S
H127 C103 0.930 . S
H128 C100 0.930 . S
H129 C109 0.930 . S
H130 C121 0.929 . S
H131 C124 0.930 . S
C132 C133 1.351 1_565 S
C132 N135 1.368 . S
C132 H137 0.931 1_565 S
C133 C132 1.351 1_545 S
C133 N134 1.373 1_545 S
C133 H161 0.930 . S
N134 C133 1.373 1_565 S
N134 C136 1.340 . S
N135 C132 1.368 . S
N135 C136 1.321 . S
N135 Co138 2.135 . S
C136 N134 1.340 . S
C136 N135 1.321 . S
C136 H160 0.930 . S
H137 C132 0.931 1_545 S
Co138 N135 2.135 . S
Co138 N141 2.121 1_655 S
Co138 O146 2.055 1_556 S
Co138 O149 2.039 1_556 S
Co138 N152 2.140 . S
C139 O140 1.227 . S
C139 O149 1.265 1_556 S
O140 C139 1.227 . S
N141 Co138 2.121 1_455 S
N141 C143 1.375 . S
N141 C144 1.313 1_556 S
C142 C143 1.338 . S
C142 N145 1.377 1_556 S
C142 H162 0.930 . S
C143 N141 1.375 . S
C143 C142 1.338 . S
C143 H147 0.931 1_455 S
C144 N141 1.313 1_554 S
C144 N145 1.344 . S
C144 H148 0.930 . S
N145 C142 1.377 1_554 S
N145 C144 1.344 . S
O146 Co138 2.055 1_554 S
O146 C150 1.253 1_654 S
H147 C143 0.931 1_655 S
H148 C144 0.930 . S
O149 Co138 2.039 1_554 S
O149 C139 1.265 1_554 S
C150 O146 1.253 1_456 S
C150 O151 1.227 . S
O151 C150 1.227 . S
N152 Co138 2.140 . S
N152 C155 1.346 . S
N152 C156 1.345 1_655 S
C153 C154 1.387 . S
C153 C157 1.391 1_655 S
C154 C153 1.387 . S
C154 C155 1.369 . S
C154 H163 0.929 . S
C155 N152 1.346 . S
C155 C154 1.369 . S
C155 H158 0.928 . S
C156 N152 1.345 1_455 S
C156 C157 1.371 . S
C156 H159 0.931 . S
C157 C153 1.391 1_455 S
C157 C156 1.371 . S
C157 H164 0.930 . S
H158 C155 0.928 . S
H159 C156 0.931 . S
H160 C136 0.930 . S
H161 C133 0.930 . S
H162 C142 0.930 . S
H163 C154 0.929 . S
H164 C157 0.930 . S
C165 C166 1.351 1_545 S
C165 N168 1.368 . S
C165 H170 0.931 1_545 S
C166 C165 1.351 1_565 S
C166 N167 1.373 1_565 S
C166 H194 0.930 . S
N167 C166 1.373 1_545 S
N167 C169 1.340 . S
N168 C165 1.368 . S
N168 C169 1.321 . S
N168 Co171 2.135 . S
C169 N167 1.340 . S
C169 N168 1.321 . S
C169 H193 0.930 . S
H170 C165 0.931 1_565 S
Co171 N168 2.135 . S
Co171 N174 2.121 . S
Co171 O179 2.055 1_556 S
Co171 O182 2.039 1_556 S
Co171 N185 2.140 . S
C172 O173 1.227 . S
C172 O182 1.265 1_556 S
O173 C172 1.227 . S
N174 Co171 2.121 . S
N174 C176 1.375 . S
N174 C177 1.313 1_556 S
C175 C176 1.338 . S
C175 N178 1.377 1_556 S
C175 H195 0.930 . S
C176 N174 1.375 . S
C176 C175 1.338 . S
C176 H180 0.931 . S
C177 N174 1.313 1_554 S
C177 N178 1.344 . S
C177 H181 0.930 . S
N178 C175 1.377 1_554 S
N178 C177 1.344 . S
O179 Co171 2.055 1_554 S
O179 C183 1.253 1_554 S
H180 C176 0.931 . S
H181 C177 0.930 . S
O182 Co171 2.039 1_554 S
O182 C172 1.265 1_554 S
C183 O179 1.253 1_556 S
C183 O184 1.227 . S
O184 C183 1.227 . S
N185 Co171 2.140 . S
N185 C188 1.346 . S
N185 C189 1.345 . S
C186 C187 1.387 . S
C186 C190 1.391 . S
C187 C186 1.387 . S
C187 C188 1.369 . S
C187 H196 0.929 . S
C188 N185 1.346 . S
C188 C187 1.369 . S
C188 H191 0.928 . S
C189 N185 1.345 . S
C189 C190 1.371 . S
C189 H192 0.931 . S
C190 C186 1.391 . S
C190 C189 1.371 . S
C190 H197 0.930 . S
H191 C188 0.928 . S
H192 C189 0.931 . S
H193 C169 0.930 . S
H194 C166 0.930 . S
H195 C175 0.930 . S
H196 C187 0.929 . S
H197 C190 0.930 . S
C198 C199 1.351 . S
C198 N201 1.368 . S
C198 H203 0.931 . S
C199 C198 1.351 . S
C199 N200 1.373 . S
C199 H227 0.930 . S
N200 C199 1.373 . S
N200 C202 1.340 . S
N201 C198 1.368 . S
N201 C202 1.321 . S
N201 Co204 2.135 . S
C202 N200 1.340 . S
C202 N201 1.321 . S
C202 H226 0.930 . S
H203 C198 0.931 . S
Co204 N201 2.135 . S
Co204 N207 2.121 1_655 S
Co204 O212 2.055 . S
Co204 O215 2.039 . S
Co204 N218 2.140 . S
C205 O206 1.227 . S
C205 O215 1.265 . S
O206 C205 1.227 . S
N207 Co204 2.121 1_455 S
N207 C209 1.375 . S
N207 C210 1.313 . S
C208 C209 1.338 . S
C208 N211 1.377 . S
C208 H228 0.930 . S
C209 N207 1.375 . S
C209 C208 1.338 . S
C209 H213 0.931 1_455 S
C210 N207 1.313 . S
C210 N211 1.344 . S
C210 H214 0.930 . S
N211 C208 1.377 . S
N211 C210 1.344 . S
O212 Co204 2.055 . S
O212 C216 1.253 1_655 S
H213 C209 0.931 1_655 S
H214 C210 0.930 . S
O215 Co204 2.039 . S
O215 C205 1.265 . S
C216 O212 1.253 1_455 S
C216 O217 1.227 . S
O217 C216 1.227 . S
N218 Co204 2.140 . S
N218 C221 1.346 . S
N218 C222 1.345 1_655 S
C219 C220 1.387 . S
C219 C223 1.391 1_655 S
C220 C219 1.387 . S
C220 C221 1.369 . S
C220 H229 0.929 . S
C221 N218 1.346 . S
C221 C220 1.369 . S
C221 H224 0.928 . S
C222 N218 1.345 1_455 S
C222 C223 1.371 . S
C222 H225 0.931 . S
C223 C219 1.391 1_455 S
C223 C222 1.371 . S
C223 H230 0.930 . S
H224 C221 0.928 . S
H225 C222 0.931 . S
H226 C202 0.930 . S
H227 C199 0.930 . S
H228 C208 0.930 . S
H229 C220 0.929 . S
H230 C223 0.930 . S
C231 C232 1.351 . S
C231 N234 1.368 . S
C231 H236 0.931 . S
C232 C231 1.351 . S
C232 N233 1.373 . S
C232 H260 0.930 . S
N233 C232 1.373 . S
N233 C235 1.340 . S
N234 C231 1.368 . S
N234 C235 1.321 . S
N234 Co237 2.135 . S
C235 N233 1.340 . S
C235 N234 1.321 . S
C235 H259 0.930 . S
H236 C231 0.931 . S
Co237 N234 2.135 . S
Co237 N240 2.121 . S
Co237 O245 2.055 . S
Co237 O248 2.039 . S
Co237 N251 2.140 . S
C238 O239 1.227 . S
C238 O248 1.265 . S
O239 C238 1.227 . S
N240 Co237 2.121 . S
N240 C242 1.375 . S
N240 C243 1.313 . S
C241 C242 1.338 . S
C241 N244 1.377 . S
C241 H261 0.930 . S
C242 N240 1.375 . S
C242 C241 1.338 . S
C242 H246 0.931 . S
C243 N240 1.313 . S
C243 N244 1.344 . S
C243 H247 0.930 . S
N244 C241 1.377 . S
N244 C243 1.344 . S
O245 Co237 2.055 . S
O245 C249 1.253 . S
H246 C242 0.931 . S
H247 C243 0.930 . S
O248 Co237 2.039 . S
O248 C238 1.265 . S
C249 O245 1.253 . S
C249 O250 1.227 . S
O250 C249 1.227 . S
N251 Co237 2.140 . S
N251 C254 1.346 . S
N251 C255 1.345 . S
C252 C253 1.387 . S
C252 C256 1.391 . S
C253 C252 1.387 . S
C253 C254 1.369 . S
C253 H262 0.929 . S
C254 N251 1.346 . S
C254 C253 1.369 . S
C254 H257 0.928 . S
C255 N251 1.345 . S
C255 C256 1.371 . S
C255 H258 0.931 . S
C256 C252 1.391 . S
C256 C255 1.371 . S
C256 H263 0.930 . S
H257 C254 0.928 . S
H258 C255 0.931 . S
H259 C235 0.930 . S
H260 C232 0.930 . S
H261 C241 0.930 . S
H262 C253 0.929 . S
H263 C256 0.930 . S
C18 C150 2.475 1_644 S
C183 C51 2.475 1_546 S
C216 C84 2.475 1_455 S
C117 C249 2.475 . S
N35 N2 0.769 1_565 S
N68 N101 0.769 . S
N134 N167 0.769 1_565 S
N233 N200 0.769 . S
C7 N178 2.558 . S
N145 C40 2.558 . S
N244 C73 2.558 . S
N211 C106 2.558 . S
N46 C139 2.558 . S
C172 N13 2.558 . S
C205 N112 2.558 . S
N79 C238 2.558 . S
C87 C21 1.818 . S
C54 C120 1.819 . S
C219 C153 1.818 . S
C252 C186 1.819 . S
