# Generated by pormake.
# Topology bcg, (8)-cn, num edge types: 1
# Building blocks:
#     Node 0, Type 0, BuildingBlock: EYACOX_clean_sbu_0, # of connection points: 8
#     Node 1, Type 0, BuildingBlock: EYACOX_clean_sbu_0, # of connection points: 8
#     Node 2, Type 0, BuildingBlock: EYACOX_clean_sbu_0, # of connection points: 8
#     Node 3, Type 0, BuildingBlock: EYACOX_clean_sbu_0, # of connection points: 8
#     Edge 4, Type (0, 0), BuildingBlock: XIVTED_clean_linker_0, # of connection points: 2
#     Edge 5, Type (0, 0), BuildingBlock: XIVTED_clean_linker_0, # of connection points: 2
#     Edge 6, Type (0, 0), BuildingBlock: XIVTED_clean_linker_0, # of connection points: 2
#     Edge 7, Type (0, 0), BuildingBlock: XIVTED_clean_linker_0, # of connection points: 2
#     Edge 8, Type (0, 0), BuildingBlock: XIVTED_clean_linker_0, # of connection points: 2
#     Edge 9, Type (0, 0), BuildingBlock: XIVTED_clean_linker_0, # of connection points: 2
#     Edge 10, Type (0, 0), BuildingBlock: XIVTED_clean_linker_0, # of connection points: 2
#     Edge 11, Type (0, 0), BuildingBlock: XIVTED_clean_linker_0, # of connection points: 2
#     Edge 12, Type (0, 0), BuildingBlock: XIVTED_clean_linker_0, # of connection points: 2
#     Edge 13, Type (0, 0), BuildingBlock: XIVTED_clean_linker_0, # of connection points: 2
#     Edge 14, Type (0, 0), BuildingBlock: XIVTED_clean_linker_0, # of connection points: 2
#     Edge 15, Type (0, 0), BuildingBlock: XIVTED_clean_linker_0, # of connection points: 2
#     Edge 16, Type (0, 0), BuildingBlock: XIVTED_clean_linker_0, # of connection points: 2
#     Edge 17, Type (0, 0), BuildingBlock: XIVTED_clean_linker_0, # of connection points: 2
#     Edge 18, Type (0, 0), BuildingBlock: XIVTED_clean_linker_0, # of connection points: 2
#     Edge 19, Type (0, 0), BuildingBlock: XIVTED_clean_linker_0, # of connection points: 2
# Relax obj value: 0.109
# Max RMSD: 0.202
# Mean RMSD: 0.202
data_MOF--net-bcg--node1-EYACOX_clean_sbu_0--edge1-XIVTED_clean_linker_0
_symmetry_space_group_name_H-M    P1
_symmetry_Int_Tables_number       1
_symmetry_cell_setting            triclinic
loop_
_symmetry_equiv_pos_as_xyz
'x, y, z'
_cell_length_a     22.089558
_cell_length_b     19.692832
_cell_length_c     32.747782
_cell_angle_alpha  89.586227
_cell_angle_beta   118.98004
_cell_angle_gamma 89.754945
loop_
_atom_site_label
_atom_site_type_symbol
_atom_site_fract_x
_atom_site_fract_y
_atom_site_fract_z
_atom_type_partial_charge
Eu0 Eu 0.26201 0.17034 0.9105 0.0
Eu1 Eu 0.18716 0.28155 0.95427 0.0
O2 O 0.26602 0.1268 0.85003 0.0
O3 O 0.34732 0.104 0.91995 0.0
O4 O 0.13265 0.18308 0.94467 0.0
O5 O 0.16472 0.11753 0.89921 0.0
O6 O 0.28576 0.12793 0.98069 0.0
O7 O 0.27552 0.22731 0.01416 0.0
C8 C 0.37994 0.1065 0.86044 0.0
C9 C 0.4848 0.11432 0.83561 0.0
C10 C 0.48802 0.15577 0.87087 0.0
C11 C 0.43571 0.15198 0.88355 0.0
C12 C 0.43125 0.06808 0.81269 0.0
C13 C 0.37782 0.06507 0.82456 0.0
C14 C 0.32653 0.09821 0.87548 0.0
C15 C 0.12679 0.12913 0.91962 0.0
O16 O 0.17426 0.3162 0.01302 0.0
O17 O 0.11813 0.36693 0.94612 0.0
C18 C 0.2959 0.16375 0.01714 0.0
O19 O 0.27052 0.3397 0.9482 0.0
O20 O 0.33895 0.24792 0.95351 0.0
O21 O 0.12082 0.27466 0.87682 0.0
O22 O 0.20909 0.25759 0.86058 0.0
C23 C 0.06535 0.36485 -0.00463 0.0
C24 C 1.01824 0.38125 0.04857 0.0
C25 C 0.07518 0.37849 0.04057 0.0
C26 C 0.95174 0.37397 0.01125 0.0
C27 C 0.94057 0.35754 0.96683 0.0
C28 C 0.99751 0.35245 0.95865 0.0
C29 C 0.12709 0.36144 -0.01158 0.0
C30 C 0.32965 0.31336 0.95507 0.0
C31 C 0.14543 0.27709 0.84764 0.0
H32 H 0.52519 0.11838 0.82588 0.0
H33 H 0.43907 0.18298 0.91166 0.0
H34 H 0.33583 0.02961 0.80684 0.0
H35 H 0.12696 0.38445 0.0696 0.0
H36 H 0.90807 0.3753 0.01789 0.0
H37 H 0.98915 0.33805 0.92445 0.0
Eu38 Eu 0.87906 0.62418 0.01455 0.0
Eu39 Eu 0.80523 0.73028 0.06052 0.0
O40 O 0.88164 0.57617 0.9549 0.0
O41 O 0.9611 0.55239 0.02524 0.0
O42 O 0.77204 0.62418 0.06347 0.0
O43 O 0.78071 0.57476 0.00306 0.0
O44 O 0.91941 0.59852 0.09053 0.0
O45 O 0.91418 0.7063 0.1147 0.0
C46 C 0.99313 0.54289 0.96525 0.0
C47 C 0.09397 0.52773 0.93716 0.0
C48 C 0.11387 0.54907 -0.01764 0.0
C49 C 0.06354 0.55663 -0.00338 0.0
C50 C 1.02459 0.51784 0.90469 0.0
C51 C 0.97388 0.52519 0.9187 0.0
C52 C 0.93996 0.54429 0.98089 0.0
C53 C 0.75262 0.57913 0.03032 0.0
O54 O 0.79511 0.75843 0.12152 0.0
O55 O 0.73364 0.81111 0.05591 0.0
C56 C 0.93993 0.64458 0.12317 0.0
O57 O 0.86394 0.79719 0.03576 0.0
O58 O 0.94253 0.71882 0.03613 0.0
O59 O 0.73033 0.71762 -0.01582 0.0
O60 O 0.80992 0.69959 0.95921 0.0
C61 C 0.68364 0.79588 0.10571 0.0
C62 C 0.62853 0.8183 0.15368 0.0
C63 C 0.68512 0.8257 0.14545 0.0
C64 C 0.57046 0.78318 0.1216 0.0
C65 C 0.56807 0.75279 0.08257 0.0
C66 C 0.62487 0.75848 0.07453 0.0
C67 C 0.74489 0.80176 0.09855 0.0
C68 C 0.91941 0.78151 0.03229 0.0
C69 C 0.74837 0.71996 0.95141 0.0
H70 H 0.13256 0.52516 0.92569 0.0
H71 H 0.07928 0.57348 0.03176 0.0
H72 H 0.9199 0.51769 0.8935 0.0
H73 H 0.7306 0.85274 0.17035 0.0
H74 H 0.52667 0.7777 0.12784 0.0
H75 H 0.62342 0.73407 0.04452 0.0
Eu76 Eu 0.3013 0.69965 0.55665 0.0
Eu77 Eu 0.37583 0.81072 0.51338 0.0
O78 O 0.29793 0.65609 0.61755 0.0
O79 O 0.21568 0.63547 0.54799 0.0
O80 O 0.42955 0.71109 0.5222 0.0
O81 O 0.39926 0.64629 0.56923 0.0
O82 O 0.28058 0.65538 0.48812 0.0
O83 O 0.29381 0.75269 0.45315 0.0
C84 C 0.18385 0.64599 0.60738 0.0
C85 C 0.08482 0.67448 0.6352 0.0
C86 C 0.08015 0.70713 0.59594 0.0
C87 C 0.12956 0.69307 0.58183 0.0
C88 C 0.13704 0.62705 0.66068 0.0
C89 C 0.18675 0.61231 0.64669 0.0
C90 C 0.23632 0.63067 0.59257 0.0
C91 C 0.43621 0.65712 0.54805 0.0
O92 O 0.38179 0.85833 0.45443 0.0
O93 O 0.45432 0.88632 0.52494 0.0
C94 C 0.27281 0.68969 0.45125 0.0
O95 O 0.29218 0.86827 0.52027 0.0
O96 O 0.22375 0.77589 0.50993 0.0
O97 O 0.44142 0.80179 0.59098 0.0
O98 O 0.35193 0.78642 0.60575 0.0
C99 C 0.49393 0.89472 0.46871 0.0
C100 C 0.53167 0.91548 0.41059 0.0
C101 C 0.47819 0.90815 0.42201 0.0
C102 C 0.6003 0.91014 0.44582 0.0
C103 C 0.61704 0.8927 0.49139 0.0
C104 C 0.56404 0.885 0.50311 0.0
C105 C 0.43716 0.89279 0.48104 0.0
C106 C 0.23241 0.84157 0.51115 0.0
C107 C 0.41628 0.80331 0.61984 0.0
H108 H 0.04544 0.68464 0.64524 0.0
H109 H 0.12529 0.71789 0.55098 0.0
H110 H 0.22737 0.57541 0.66625 0.0
H111 H 0.42478 0.91245 0.39469 0.0
H112 H 0.64147 0.91305 0.43674 0.0
H113 H 0.57747 0.87101 0.53858 0.0
Eu114 Eu 0.67861 0.15673 0.45413 0.0
Eu115 Eu 0.75071 0.26113 0.40491 0.0
O116 O 0.67653 0.1135 0.51561 0.0
O117 O 0.59546 0.08937 0.44654 0.0
O118 O 0.79672 0.15802 0.41192 0.0
O119 O 0.77998 0.10686 0.46955 0.0
O120 O 0.64709 0.12071 0.38159 0.0
O121 O 0.64754 0.22478 0.34958 0.0
C122 C 0.56371 0.09528 0.50635 0.0
C123 C 0.46282 0.11377 0.53389 0.0
C124 C 0.45889 0.15188 0.49677 0.0
C125 C 0.50899 0.14264 0.48257 0.0
C126 C 0.51394 0.06429 0.55662 0.0
C127 C 0.56581 0.05593 0.54356 0.0
C128 C 0.61666 0.08458 0.4912 0.0
C129 C 0.81356 0.11328 0.44566 0.0
O130 O 0.76767 0.284 0.34563 0.0
O131 O 0.81079 0.34967 0.40573 0.0
C132 C 0.6276 0.16136 0.34537 0.0
O133 O 0.68651 0.32708 0.42505 0.0
O134 O 0.60921 0.2478 0.42356 0.0
O135 O 0.82462 0.25224 0.48182 0.0
O136 O 0.74318 0.23679 0.50543 0.0
C137 C 0.87065 0.34289 0.36147 0.0
C138 C 0.92436 0.37759 0.31455 0.0
C139 C 0.86484 0.3675 0.31904 0.0
C140 C 0.98916 0.36323 0.35247 0.0
C141 C 0.99599 0.3348 0.39366 0.0
C142 C 0.93666 0.32441 0.39843 0.0
C143 C 0.80688 0.33614 0.36556 0.0
C144 C 0.63006 0.31082 0.42672 0.0
C145 C 0.8053 0.25536 0.51391 0.0
H146 H 0.42343 0.12139 0.54427 0.0
H147 H 0.50495 0.1714 0.45302 0.0
H148 H 0.60625 0.01814 0.56127 0.0
H149 H 0.81426 0.37816 0.28953 0.0
H150 H 0.03489 0.36833 0.34836 0.0
H151 H 0.94172 0.30156 0.43015 0.0
H152 H 0.61439 0.11593 0.93816 0.0
H153 H 0.82201 0.43342 0.9225 0.0
H154 H 0.50385 0.28825 0.85222 0.0
H155 H 0.8995 0.22791 0.94403 0.0
H156 H 0.70659 0.39017 0.90208 0.0
H157 H 0.72366 0.16797 0.9534 0.0
C158 C 0.61348 0.16625 0.92424 0.0
C159 C 0.55027 0.19849 0.89466 0.0
C160 C 0.74839 0.35454 0.90989 0.0
C161 C 0.67476 0.257 0.91005 0.0
C162 C 0.81378 0.37907 0.92052 0.0
C163 C 0.87003 0.33401 0.93409 0.0
C164 C 0.73985 0.28467 0.91393 0.0
C165 C 0.85729 0.2642 0.93281 0.0
C166 C 0.67563 0.19515 0.93194 0.0
C167 C 0.5517 0.26258 0.87605 0.0
N168 N 0.794 0.24174 0.924 0.0
N169 N 0.61306 0.28975 0.88383 0.0
H170 H 0.15461 0.67851 0.00794 0.0
H171 H 0.55146 0.61615 0.08369 0.0
H172 H 0.2342 0.47666 0.01312 0.0
H173 H 0.44163 0.80249 0.02144 0.0
H174 H 0.44091 0.56178 0.06426 0.0
H175 H 0.26754 0.72473 0.02592 0.0
C176 C 0.19681 0.64384 0.01483 0.0
C177 C 0.18556 0.57376 0.00974 0.0
C178 C 0.44087 0.61402 0.0537 0.0
C179 C 0.31377 0.62608 0.0283 0.0
C180 C 0.50368 0.64451 0.06379 0.0
C181 C 0.50528 0.71343 0.05327 0.0
C182 C 0.37981 0.65329 0.03374 0.0
C183 C 0.44225 0.74886 0.02923 0.0
C184 C 0.26069 0.6702 0.02394 0.0
C185 C 0.24137 0.531 0.01751 0.0
N186 N 0.38223 0.71881 0.02105 0.0
N187 N 0.30307 0.55783 0.02614 0.0
H188 H 0.73158 -0.0276 0.53465 0.0
H189 H 0.95983 0.66889 0.52254 0.0
H190 H 0.6655 0.76422 0.51094 0.0
H191 H 0.05819 0.83775 0.61308 0.0
H192 H 0.84664 0.71791 0.5025 0.0
H193 H 0.84977 0.93482 0.55599 0.0
C194 C 0.74279 0.91858 0.53597 0.0
C195 C 0.68933 0.87105 0.52212 0.0
C196 C 0.89298 0.74512 0.52592 0.0
C197 C 0.82206 0.8286 0.54258 0.0
C198 C 0.95741 0.71804 0.53638 0.0
C199 C 1.01811 0.74989 0.56894 0.0
C200 C 0.88933 0.80464 0.54803 0.0
C201 C 1.01232 0.81241 0.58721 0.0
C202 C 0.80964 0.89737 0.54707 0.0
C203 C 0.70569 0.80216 0.52251 0.0
N204 N 0.9489 0.83764 0.57684 0.0
N205 N 0.77025 0.7831 0.53159 0.0
H206 H 0.11155 0.40551 0.45118 0.0
H207 H 0.33929 0.11655 0.4217 0.0
H208 H 0.03789 0.20377 0.40383 0.0
H209 H 0.43486 0.2778 0.52005 0.0
H210 H 0.22533 0.16048 0.40426 0.0
H211 H 0.22961 0.36747 0.47342 0.0
C212 C 0.12093 0.35236 0.44771 0.0
C213 C 0.06525 0.30734 0.42638 0.0
C214 C 0.27116 0.18724 0.4289 0.0
C215 C 0.19871 0.26481 0.44857 0.0
C216 C 0.33603 0.1633 0.43782 0.0
C217 C 0.39628 0.19451 0.47157 0.0
C218 C 0.26655 0.24303 0.45379 0.0
C219 C 0.38941 0.25338 0.49298 0.0
C220 C 0.18792 0.33108 0.45937 0.0
C221 C 0.07961 0.23964 0.42096 0.0
N222 N 0.32563 0.27556 0.48403 0.0
N223 N 0.14469 0.22075 0.431 0.0
H224 H 0.71051 0.4624 0.97975 0.0
H225 H 0.34549 0.45108 0.97305 0.0
H226 H 0.65518 0.60452 0.05646 0.0
H227 H 0.45036 0.27356 0.95989 0.0
H228 H 0.44868 0.51827 -0.0101 0.0
H229 H 0.60352 0.40078 0.95854 0.0
C230 C 0.67611 0.48031 -0.00768 0.0
C231 C 0.69187 0.53803 0.02023 0.0
C232 C 0.44845 0.46445 -0.01659 0.0
C233 C 0.56951 0.46929 -0.00461 0.0
C234 C 0.38979 0.42633 0.97362 0.0
C235 C 0.38929 0.35663 0.96507 0.0
C236 C 0.5059 0.4324 -0.01592 0.0
C237 C 0.44804 0.32704 0.96611 0.0
C238 C 0.61517 0.44542 0.98014 0.0
C239 C 0.64533 0.55962 0.03535 0.0
N240 N 0.50379 0.36507 0.97533 0.0
N241 N 0.58585 0.52535 0.02249 0.0
H242 H 0.5216 0.29466 0.4443 0.0
H243 H 0.5542 0.66929 0.54266 0.0
H244 H 0.66601 0.44384 0.44641 0.0
H245 H 0.41283 0.52099 0.54521 0.0
H246 H 0.60399 0.58267 0.51483 0.0
H247 H 0.48352 0.3748 0.48378 0.0
C248 C 0.54468 0.34453 0.45245 0.0
C249 C 0.59729 0.36246 0.44211 0.0
C250 C 0.56285 0.56859 0.52216 0.0
C251 C 0.55488 0.45373 0.48811 0.0
C252 C 0.53497 0.61784 0.5385 0.0
C253 C 0.47916 0.60207 0.5458 0.0
C254 C 0.53395 0.50347 0.51248 0.0
C255 C 0.45605 0.53491 0.54007 0.0
C256 C 0.52342 0.38995 0.47548 0.0
C257 C 0.62531 0.42774 0.45362 0.0
N258 N 0.48281 0.48808 0.52285 0.0
N259 N 0.60393 0.47089 0.47619 0.0
H260 H 1.0088 0.1454 0.92495 0.0
H261 H 0.03095 0.7671 0.01806 0.0
H262 H 0.14504 -0.00813 0.92007 0.0
H263 H 0.87825 0.91402 0.00804 0.0
H264 H 0.07169 0.84829 0.98073 0.0
H265 H 0.95412 0.05922 0.94965 0.0
C266 C 1.02601 0.09306 0.92801 0.0
C267 C 0.08183 0.07556 0.92094 0.0
C268 C 1.02932 0.86282 -0.01327 0.0
C269 C 1.02101 -0.02275 0.95044 0.0
C270 C 1.00641 0.81673 0.00854 0.0
C271 C 0.95108 0.8338 0.01637 0.0
C272 C 0.99698 0.92663 0.97279 0.0
C273 C 0.92128 0.89876 0.00299 0.0
C274 C 0.99515 0.04401 0.94244 0.0
C275 C 0.10203 0.00726 0.92512 0.0
N276 N 0.94461 0.94283 0.98179 0.0
N277 N 0.07235 0.96059 0.94046 0.0
H278 H 0.92562 0.15602 0.44048 0.0
H279 H 0.10522 0.79783 0.49233 0.0
H280 H 0.84776 -0.0154 0.48332 0.0
H281 H 0.22229 -0.01852 0.51186 0.0
H282 H 1.00775 0.86488 0.48361 0.0
H283 H 0.03168 0.0927 0.46117 0.0
C284 C 0.93088 0.10477 0.45418 0.0
C285 C 0.87762 0.07474 0.45962 0.0
C286 C 0.05482 0.89058 0.49011 0.0
C287 C 0.9988 0.00258 0.48342 0.0
C288 C 0.11082 0.8524 0.49509 0.0
C289 C 0.1726 0.88405 0.50332 0.0
C290 C 0.05955 0.96128 0.49204 0.0
C291 C 0.17569 0.95505 0.50549 0.0
C292 C 0.9917 0.06912 0.4664 0.0
C293 C 0.88762 0.00913 0.47849 0.0
N294 N 0.11945 -0.00844 0.49945 0.0
N295 N 0.94697 -0.02535 0.4892 0.0
H296 H 0.65208 0.1569 0.27223 0.0
H297 H 0.26908 0.17151 0.08926 0.0
H298 H 0.4977 0.11204 0.31271 0.0
H299 H 0.41774 0.09351 0.05156 0.0
H300 H 0.34998 0.14584 0.17127 0.0
H301 H 0.56809 0.13102 0.1911 0.0
C302 C 0.6007 0.14028 0.26391 0.0
C303 C 0.58116 0.13635 0.29858 0.0
C304 C 0.36423 0.13263 0.14498 0.0
C305 C 0.48513 0.10819 0.20659 0.0
C306 C 0.31829 0.14745 0.09835 0.0
C307 C 0.3374 0.13488 0.0641 0.0
C308 C 0.43046 0.10742 0.15735 0.0
C309 C 0.40145 0.10376 0.07724 0.0
C310 C 0.55308 0.12519 0.21788 0.0
C311 C 0.51431 0.11506 0.2866 0.0
N312 N 0.44675 0.09267 0.1232 0.0
N313 N 0.46795 0.10298 0.24123 0.0
H314 H 0.62595 0.94932 0.18218 0.0
H315 H 0.47427 0.81733 0.3454 0.0
H316 H 0.62169 0.7395 0.21886 0.0
H317 H 0.57144 0.01259 0.369 0.0
H318 H 0.50063 0.79855 0.28176 0.0
H319 H 0.5891 -0.01757 0.23956 0.0
C320 C 0.61943 0.91056 0.20333 0.0
C321 C 0.62774 0.84165 0.19636 0.0
C322 C 0.5147 0.84634 0.30011 0.0
C323 C 0.58153 0.87864 0.25913 0.0
C324 C 0.49819 0.85765 0.33567 0.0
C325 C 0.52022 0.91692 0.36212 0.0
C326 C 0.55315 0.89483 0.29081 0.0
C327 C 0.553 0.96671 0.34891 0.0
C328 C 0.5972 0.92933 0.23529 0.0
C329 C 0.61657 0.79319 0.22361 0.0
N330 N 0.56937 0.95434 0.31454 0.0
N331 N 0.5931 0.81247 0.25317 0.0
H332 H 0.55368 0.8344 0.66199 0.0
H333 H 0.61113 0.75192 0.91739 0.0
H334 H 0.38666 0.79685 0.69201 0.0
H335 H 0.77316 0.75122 0.87947 0.0
H336 H 0.5294 0.79209 0.83859 0.0
H337 H 0.63516 0.83065 0.74541 0.0
C338 C 0.53399 0.82607 0.68614 0.0
C339 C 0.46351 0.814 0.66997 0.0
C340 C 0.58297 0.78355 0.84772 0.0
C341 C 0.5566 0.80914 0.76544 0.0
C342 C 0.62963 0.76051 0.89262 0.0
C343 C 0.69884 0.74708 0.90478 0.0
C344 C 0.60584 0.79344 0.81491 0.0
C345 C 0.72006 0.75977 0.87143 0.0
C346 C 0.5806 0.82386 0.73377 0.0
C347 C 0.44078 0.80508 0.70292 0.0
N348 N 0.67363 0.78182 0.82795 0.0
N349 N 0.4874 0.80178 0.74916 0.0
H350 H 0.32983 0.05489 0.72167 0.0
H351 H 0.40307 -0.00773 0.54635 0.0
H352 H 0.53863 -0.00815 0.81815 0.0
H353 H 0.60882 0.04868 0.65005 0.0
H354 H 0.37659 0.96143 0.60804 0.0
H355 H 0.34948 0.02376 0.65691 0.0
C356 C 0.37878 0.03172 0.72923 0.0
C357 C 0.43288 0.02695 0.77526 0.0
C358 C 0.42789 -0.02047 0.6175 0.0
C359 C 0.45683 -0.00741 0.70141 0.0
C360 C 0.44372 -0.00431 0.5823 0.0
C361 C 0.50841 0.02323 0.59302 0.0
C362 C 0.47668 -0.00806 0.66405 0.0
C363 C 0.5585 0.02751 0.6402 0.0
C364 C 0.39038 0.0142 0.6922 0.0
C365 C 0.49583 -0.00262 0.78301 0.0
N366 N 0.54116 0.01325 0.67407 0.0
N367 N 0.50685 -0.01655 0.74652 0.0
H368 H 0.16602 0.59963 0.42119 0.0
H369 H 0.07799 0.64058 0.155 0.0
H370 H 0.29098 0.71139 0.37599 0.0
H371 H 0.92323 0.61267 0.19757 0.0
H372 H 0.16863 0.6292 0.23697 0.0
H373 H 0.0893 0.5669 0.33991 0.0
C374 C 0.17815 0.61587 0.39432 0.0
C375 C 0.23395 0.65917 0.40488 0.0
C376 C 0.11486 0.62435 0.22821 0.0
C377 C 0.14746 0.62182 0.31275 0.0
C378 C 0.06354 0.63081 0.18173 0.0
C379 C 0.99392 0.62791 0.17034 0.0
C380 C 0.09586 0.61506 0.26307 0.0
C381 C 0.97683 0.61542 0.2056 0.0
C382 C 0.13434 0.59748 0.3481 0.0
C383 C 0.24763 0.67893 0.36898 0.0
N384 N 1.02765 0.60989 0.25069 0.0
N385 N 0.20429 0.66052 0.32437 0.0
H386 H 0.86557 0.30075 0.23659 0.0
H387 H 0.05193 0.48712 0.11027 0.0
H388 H 0.98474 0.48224 0.29252 0.0
H389 H 0.99141 0.27709 0.09066 0.0
H390 H 1.02374 0.49214 0.17448 0.0
H391 H 0.89674 0.30191 0.17433 0.0
C392 C 0.89604 0.34235 0.23462 0.0
C393 C 0.92206 0.3918 0.26936 0.0
C394 C 1.01716 0.44516 0.15616 0.0
C395 C 0.96049 0.39204 0.19955 0.0
C396 C 0.03464 0.4418 0.12037 0.0
C397 C 1.02442 0.38142 0.09557 0.0
C398 C 0.98728 0.38867 0.16583 0.0
C399 C 1.0005 0.32441 0.10933 0.0
C400 C 0.91518 0.34221 0.19975 0.0
C401 C 0.96315 0.44358 0.266 0.0
N402 N 0.98156 0.32973 0.14288 0.0
N403 N 0.98161 0.44211 0.23194 0.0
H404 H 0.17635 0.28685 0.77617 0.0
H405 H 0.77859 0.28953 0.58426 0.0
H406 H 1.00759 0.30796 0.80662 0.0
H407 H 0.94519 0.2723 0.55138 0.0
H408 H 0.86274 0.31442 0.66479 0.0
H409 H 0.094 0.29985 0.69307 0.0
C410 C 0.12215 0.2951 0.76547 0.0
C411 C 0.09862 0.29506 0.79831 0.0
C412 C 0.88097 0.30588 0.63992 0.0
C413 C 1.00429 0.30961 0.70345 0.0
C414 C 0.83291 0.29142 0.59392 0.0
C415 C 0.85508 0.27761 0.5613 0.0
C416 C 0.95182 0.30576 0.65356 0.0
C417 C 0.92594 0.28196 0.57556 0.0
C418 C 0.07518 0.3025 0.71802 0.0
C419 C 1.02801 0.30677 0.78253 0.0
N420 N 0.97199 0.29473 0.62087 0.0
N421 N 0.98326 0.31275 0.73618 0.0
H422 H 0.10939 0.49392 0.67153 0.0
H423 H 0.96829 0.61685 0.83945 0.0
H424 H 0.15179 0.68907 0.73802 0.0
H425 H 0.05407 0.41473 0.86094 0.0
H426 H 0.99904 0.63497 0.77779 0.0
H427 H 0.0651 0.45498 0.72408 0.0
C428 C 0.11189 0.52753 0.69833 0.0
C429 C 0.13505 0.59455 0.70096 0.0
C430 C 1.00918 0.58584 0.79507 0.0
C431 C 0.08052 0.5522 0.75817 0.0
C432 C 0.99009 0.57494 0.82943 0.0
C433 C 1.00879 0.51429 0.85538 0.0
C434 C 0.04635 0.53541 0.78621 0.0
C435 C 0.03878 0.46217 0.84165 0.0
C436 C 0.08546 0.50577 0.72752 0.0
C437 C 0.13512 0.63686 0.73527 0.0
N438 N 0.05791 0.47423 0.80848 0.0
N439 N 0.10696 0.6155 0.76179 0.0
loop_
_geom_bond_atom_site_label_1
_geom_bond_atom_site_label_2
_geom_bond_distance
_geom_bond_site_symmetry_2
_ccdc_geom_bond_type
Eu0 O2 2.472 . S
Eu0 O3 2.507 1_556 S
Eu0 O5 2.336 1_556 S
Eu0 O6 2.389 1_556 S
Eu0 C14 2.835 . S
Eu0 O20 2.396 1_556 S
Eu0 O22 2.323 . S
Eu1 O4 2.396 1_554 S
Eu1 O7 2.323 . S
Eu1 O16 2.472 . S
Eu1 O17 2.507 1_554 S
Eu1 O19 2.336 1_554 S
Eu1 O21 2.389 1_554 S
Eu1 C29 2.835 . S
O2 Eu0 2.472 . S
O2 C14 1.258 . S
O3 Eu0 2.507 1_554 S
O3 C14 1.246 1_554 S
O4 Eu1 2.396 1_556 S
O4 C15 1.216 1_556 S
O5 Eu0 2.336 1_554 S
O5 C15 1.279 . S
O6 Eu0 2.389 1_554 S
O6 C18 1.239 . S
O7 Eu1 2.323 . S
O7 C18 1.249 . S
C8 C11 1.390 . S
C8 C13 1.370 . S
C8 C14 1.489 . S
C9 C10 1.344 . S
C9 C12 1.413 . S
C9 H32 0.931 . S
C10 C9 1.344 . S
C10 C11 1.423 . S
C11 C8 1.390 . S
C11 C10 1.423 . S
C11 H33 0.930 1_556 S
C12 C9 1.413 . S
C12 C13 1.397 . S
C13 C8 1.370 . S
C13 C12 1.397 . S
C13 H34 0.932 . S
C14 Eu0 2.835 . S
C14 O2 1.258 . S
C14 O3 1.246 1_556 S
C14 C8 1.489 . S
C15 O4 1.216 1_554 S
C15 O5 1.279 . S
O16 Eu1 2.472 . S
O16 C29 1.258 . S
O17 Eu1 2.507 1_556 S
O17 C29 1.246 1_556 S
C18 O6 1.239 . S
C18 O7 1.249 . S
O19 Eu1 2.336 1_556 S
O19 C30 1.290 1_556 S
O20 Eu0 2.396 1_554 S
O20 C30 1.210 . S
O21 Eu1 2.389 1_556 S
O21 C31 1.239 . S
O22 Eu0 2.323 . S
O22 C31 1.249 . S
C23 C25 1.370 . S
C23 C28 1.390 1_455 S
C23 C29 1.489 . S
C24 C25 1.397 . S
C24 C26 1.413 1_455 S
C25 C23 1.370 . S
C25 C24 1.397 . S
C25 H35 0.932 . S
C26 C24 1.413 1_655 S
C26 C27 1.344 . S
C26 H36 0.931 . S
C27 C26 1.344 . S
C27 C28 1.423 . S
C28 C23 1.390 1_655 S
C28 C27 1.423 . S
C28 H37 0.930 1_554 S
C29 Eu1 2.835 . S
C29 O16 1.258 . S
C29 O17 1.246 1_554 S
C29 C23 1.489 . S
C30 O19 1.290 1_554 S
C30 O20 1.210 . S
C31 O21 1.239 . S
C31 O22 1.249 . S
H32 C9 0.931 . S
H33 C11 0.930 1_554 S
H34 C13 0.932 . S
H35 C25 0.932 . S
H36 C26 0.931 . S
H37 C28 0.930 1_556 S
Eu38 O40 2.472 . S
Eu38 O41 2.507 1_556 S
Eu38 O43 2.336 1_556 S
Eu38 O44 2.389 1_556 S
Eu38 C52 2.835 . S
Eu38 O58 2.396 1_556 S
Eu38 O60 2.323 . S
Eu39 O42 2.396 1_554 S
Eu39 O45 2.323 . S
Eu39 O54 2.472 . S
Eu39 O55 2.507 1_554 S
Eu39 O57 2.336 1_554 S
Eu39 O59 2.389 1_554 S
Eu39 C67 2.835 . S
O40 Eu38 2.472 . S
O40 C52 1.258 . S
O41 Eu38 2.507 1_554 S
O41 C52 1.246 1_554 S
O42 Eu39 2.396 1_556 S
O42 C53 1.216 1_556 S
O43 Eu38 2.336 1_554 S
O43 C53 1.279 . S
O44 Eu38 2.389 1_554 S
O44 C56 1.239 . S
O45 Eu39 2.323 . S
O45 C56 1.249 . S
C46 C49 1.390 1_655 S
C46 C51 1.370 . S
C46 C52 1.489 . S
C47 C48 1.344 . S
C47 C50 1.413 1_455 S
C47 H70 0.931 . S
C48 C47 1.344 . S
C48 C49 1.423 . S
C49 C46 1.390 1_455 S
C49 C48 1.423 . S
C49 H71 0.930 1_556 S
C50 C47 1.413 1_655 S
C50 C51 1.397 . S
C51 C46 1.370 . S
C51 C50 1.397 . S
C51 H72 0.932 . S
C52 Eu38 2.835 . S
C52 O40 1.258 . S
C52 O41 1.246 1_556 S
C52 C46 1.489 . S
C53 O42 1.216 1_554 S
C53 O43 1.279 . S
O54 Eu39 2.472 . S
O54 C67 1.258 . S
O55 Eu39 2.507 1_556 S
O55 C67 1.246 1_556 S
C56 O44 1.239 . S
C56 O45 1.249 . S
O57 Eu39 2.336 1_556 S
O57 C68 1.290 1_556 S
O58 Eu38 2.396 1_554 S
O58 C68 1.210 . S
O59 Eu39 2.389 1_556 S
O59 C69 1.239 . S
O60 Eu38 2.323 . S
O60 C69 1.249 . S
C61 C63 1.370 . S
C61 C66 1.390 . S
C61 C67 1.489 . S
C62 C63 1.397 . S
C62 C64 1.413 . S
C63 C61 1.370 . S
C63 C62 1.397 . S
C63 H73 0.932 . S
C64 C62 1.413 . S
C64 C65 1.344 . S
C64 H74 0.931 . S
C65 C64 1.344 . S
C65 C66 1.423 . S
C66 C61 1.390 . S
C66 C65 1.423 . S
C66 H75 0.930 1_554 S
C67 Eu39 2.835 . S
C67 O54 1.258 . S
C67 O55 1.246 1_554 S
C67 C61 1.489 . S
C68 O57 1.290 1_554 S
C68 O58 1.210 . S
C69 O59 1.239 . S
C69 O60 1.249 . S
H70 C47 0.931 . S
H71 C49 0.930 1_554 S
H72 C51 0.932 . S
H73 C63 0.932 . S
H74 C64 0.931 . S
H75 C66 0.930 1_556 S
Eu76 O78 2.472 . S
Eu76 O79 2.507 . S
Eu76 O81 2.336 . S
Eu76 O82 2.389 . S
Eu76 C90 2.835 . S
Eu76 O96 2.396 . S
Eu76 O98 2.323 . S
Eu77 O80 2.396 . S
Eu77 O83 2.323 . S
Eu77 O92 2.472 . S
Eu77 O93 2.507 . S
Eu77 O95 2.336 . S
Eu77 O97 2.389 . S
Eu77 C105 2.835 . S
O78 Eu76 2.472 . S
O78 C90 1.258 . S
O79 Eu76 2.507 . S
O79 C90 1.246 . S
O80 Eu77 2.396 . S
O80 C91 1.216 . S
O81 Eu76 2.336 . S
O81 C91 1.279 . S
O82 Eu76 2.389 . S
O82 C94 1.239 . S
O83 Eu77 2.323 . S
O83 C94 1.249 . S
C84 C87 1.390 1_455 S
C84 C89 1.370 . S
C84 C90 1.489 . S
C85 C86 1.344 . S
C85 C88 1.413 1_655 S
C85 H108 0.931 . S
C86 C85 1.344 . S
C86 C87 1.423 . S
C87 C84 1.390 1_655 S
C87 C86 1.423 . S
C87 H109 0.930 . S
C88 C85 1.413 1_455 S
C88 C89 1.397 . S
C89 C84 1.370 . S
C89 C88 1.397 . S
C89 H110 0.932 . S
C90 Eu76 2.835 . S
C90 O78 1.258 . S
C90 O79 1.246 . S
C90 C84 1.489 . S
C91 O80 1.216 . S
C91 O81 1.279 . S
O92 Eu77 2.472 . S
O92 C105 1.258 . S
O93 Eu77 2.507 . S
O93 C105 1.246 . S
C94 O82 1.239 . S
C94 O83 1.249 . S
O95 Eu77 2.336 . S
O95 C106 1.279 . S
O96 Eu76 2.396 . S
O96 C106 1.216 . S
O97 Eu77 2.389 . S
O97 C107 1.239 . S
O98 Eu76 2.323 . S
O98 C107 1.249 . S
C99 C101 1.370 . S
C99 C104 1.390 . S
C99 C105 1.489 . S
C100 C101 1.397 . S
C100 C102 1.413 . S
C101 C99 1.370 . S
C101 C100 1.397 . S
C101 H111 0.932 . S
C102 C100 1.413 . S
C102 C103 1.344 . S
C102 H112 0.931 . S
C103 C102 1.344 . S
C103 C104 1.423 . S
C104 C99 1.390 . S
C104 C103 1.423 . S
C104 H113 0.930 . S
C105 Eu77 2.835 . S
C105 O92 1.258 . S
C105 O93 1.246 . S
C105 C99 1.489 . S
C106 O95 1.279 . S
C106 O96 1.216 . S
C107 O97 1.239 . S
C107 O98 1.249 . S
H108 C85 0.931 . S
H109 C87 0.930 . S
H110 C89 0.932 . S
H111 C101 0.932 . S
H112 C102 0.931 . S
H113 C104 0.930 . S
Eu114 O116 2.472 . S
Eu114 O117 2.507 . S
Eu114 O119 2.336 . S
Eu114 O120 2.389 . S
Eu114 C128 2.835 . S
Eu114 O134 2.396 . S
Eu114 O136 2.323 . S
Eu115 O118 2.396 . S
Eu115 O121 2.323 . S
Eu115 O130 2.472 . S
Eu115 O131 2.507 . S
Eu115 O133 2.336 . S
Eu115 O135 2.389 . S
Eu115 C143 2.835 . S
O116 Eu114 2.472 . S
O116 C128 1.258 . S
O117 Eu114 2.507 . S
O117 C128 1.246 . S
O118 Eu115 2.396 . S
O118 C129 1.216 . S
O119 Eu114 2.336 . S
O119 C129 1.279 . S
O120 Eu114 2.389 . S
O120 C132 1.239 . S
O121 Eu115 2.323 . S
O121 C132 1.249 . S
C122 C125 1.390 . S
C122 C127 1.370 . S
C122 C128 1.489 . S
C123 C124 1.344 . S
C123 C126 1.413 . S
C123 H146 0.931 . S
C124 C123 1.344 . S
C124 C125 1.423 . S
C125 C122 1.390 . S
C125 C124 1.423 . S
C125 H147 0.930 . S
C126 C123 1.413 . S
C126 C127 1.397 . S
C127 C122 1.370 . S
C127 C126 1.397 . S
C127 H148 0.932 . S
C128 Eu114 2.835 . S
C128 O116 1.258 . S
C128 O117 1.246 . S
C128 C122 1.489 . S
C129 O118 1.216 . S
C129 O119 1.279 . S
O130 Eu115 2.472 . S
O130 C143 1.258 . S
O131 Eu115 2.507 . S
O131 C143 1.246 . S
C132 O120 1.239 . S
C132 O121 1.249 . S
O133 Eu115 2.336 . S
O133 C144 1.279 . S
O134 Eu114 2.396 . S
O134 C144 1.216 . S
O135 Eu115 2.389 . S
O135 C145 1.239 . S
O136 Eu114 2.323 . S
O136 C145 1.249 . S
C137 C139 1.370 . S
C137 C142 1.390 1_655 S
C137 C143 1.489 . S
C138 C139 1.397 . S
C138 C140 1.413 1_655 S
C139 C137 1.370 . S
C139 C138 1.397 . S
C139 H149 0.932 . S
C140 C138 1.413 1_455 S
C140 C141 1.344 . S
C140 H150 0.931 . S
C141 C140 1.344 . S
C141 C142 1.423 . S
C142 C137 1.390 1_455 S
C142 C141 1.423 . S
C142 H151 0.930 . S
C143 Eu115 2.835 . S
C143 O130 1.258 . S
C143 O131 1.246 . S
C143 C137 1.489 . S
C144 O133 1.279 . S
C144 O134 1.216 . S
C145 O135 1.239 . S
C145 O136 1.249 . S
H146 C123 0.931 . S
H147 C125 0.930 . S
H148 C127 0.932 . S
H149 C139 0.932 . S
H150 C140 0.931 . S
H151 C142 0.930 . S
H152 C158 0.930 . S
H153 C162 0.930 . S
H154 C167 0.929 . S
H155 C165 0.929 . S
H156 C160 0.929 . S
H157 C166 0.929 . S
C158 H152 0.930 . S
C158 C159 1.367 . S
C158 C166 1.378 . S
C159 C158 1.367 . S
C159 C167 1.433 1_556 S
C160 H156 0.929 . S
C160 C162 1.378 . S
C160 C164 1.350 . S
C161 C164 1.463 1_556 S
C161 C166 1.350 . S
C161 N169 1.427 1_556 S
C162 H153 0.930 . S
C162 C160 1.378 . S
C162 C163 1.367 . S
C163 C162 1.367 . S
C163 C165 1.433 1_554 S
C164 C160 1.350 . S
C164 C161 1.463 1_554 S
C164 N168 1.427 1_554 S
C165 H155 0.929 . S
C165 C163 1.433 1_556 S
C165 N168 1.384 . S
C166 H157 0.929 . S
C166 C158 1.378 . S
C166 C161 1.350 . S
C167 H154 0.929 . S
C167 C159 1.433 1_554 S
C167 N169 1.384 . S
N168 C164 1.427 1_556 S
N168 C165 1.384 . S
N169 C161 1.427 1_554 S
N169 C167 1.384 . S
H170 C176 0.930 . S
H171 C180 0.930 . S
H172 C185 0.929 . S
H173 C183 0.929 . S
H174 C178 0.929 . S
H175 C184 0.929 . S
C176 H170 0.930 . S
C176 C177 1.367 . S
C176 C184 1.378 . S
C177 C176 1.367 . S
C177 C185 1.433 1_556 S
C178 H174 0.929 . S
C178 C180 1.378 . S
C178 C182 1.350 . S
C179 C182 1.463 1_556 S
C179 C184 1.350 . S
C179 N187 1.427 1_556 S
C180 H171 0.930 . S
C180 C178 1.378 . S
C180 C181 1.367 . S
C181 C180 1.367 . S
C181 C183 1.433 1_554 S
C182 C178 1.350 . S
C182 C179 1.463 1_554 S
C182 N186 1.427 1_554 S
C183 H173 0.929 . S
C183 C181 1.433 1_556 S
C183 N186 1.384 . S
C184 H175 0.929 . S
C184 C176 1.378 . S
C184 C179 1.350 . S
C185 H172 0.929 . S
C185 C177 1.433 1_554 S
C185 N187 1.384 . S
N186 C182 1.427 1_556 S
N186 C183 1.384 . S
N187 C179 1.427 1_554 S
N187 C185 1.384 . S
H188 C194 0.930 . S
H189 C198 0.930 . S
H190 C203 0.929 . S
H191 C201 0.929 . S
H192 C196 0.929 . S
H193 C202 0.929 . S
C194 H188 0.930 . S
C194 C195 1.367 . S
C194 C202 1.378 . S
C195 C194 1.367 . S
C195 C203 1.433 . S
C196 H192 0.929 . S
C196 C198 1.378 . S
C196 C200 1.350 . S
C197 C200 1.463 . S
C197 C202 1.350 . S
C197 N205 1.427 . S
C198 H189 0.930 . S
C198 C196 1.378 . S
C198 C199 1.367 . S
C199 C198 1.367 . S
C199 C201 1.433 . S
C200 C196 1.350 . S
C200 C197 1.463 . S
C200 N204 1.427 . S
C201 H191 0.929 . S
C201 C199 1.433 . S
C201 N204 1.384 . S
C202 H193 0.929 . S
C202 C194 1.378 . S
C202 C197 1.350 . S
C203 H190 0.929 . S
C203 C195 1.433 . S
C203 N205 1.384 . S
N204 C200 1.427 . S
N204 C201 1.384 . S
N205 C197 1.427 . S
N205 C203 1.384 . S
H206 C212 0.930 . S
H207 C216 0.930 . S
H208 C221 0.929 . S
H209 C219 0.929 . S
H210 C214 0.929 . S
H211 C220 0.929 . S
C212 H206 0.930 . S
C212 C213 1.367 . S
C212 C220 1.378 . S
C213 C212 1.367 . S
C213 C221 1.433 . S
C214 H210 0.929 . S
C214 C216 1.378 . S
C214 C218 1.350 . S
C215 C218 1.463 . S
C215 C220 1.350 . S
C215 N223 1.427 . S
C216 H207 0.930 . S
C216 C214 1.378 . S
C216 C217 1.367 . S
C217 C216 1.367 . S
C217 C219 1.433 . S
C218 C214 1.350 . S
C218 C215 1.463 . S
C218 N222 1.427 . S
C219 H209 0.929 . S
C219 C217 1.433 . S
C219 N222 1.384 . S
C220 H211 0.929 . S
C220 C212 1.378 . S
C220 C215 1.350 . S
C221 H208 0.929 . S
C221 C213 1.433 . S
C221 N223 1.384 . S
N222 C218 1.427 . S
N222 C219 1.384 . S
N223 C215 1.427 . S
N223 C221 1.384 . S
H224 C230 0.930 . S
H225 C234 0.930 . S
H226 C239 0.929 . S
H227 C237 0.929 . S
H228 C232 0.929 . S
H229 C238 0.929 . S
C230 H224 0.930 . S
C230 C231 1.367 1_554 S
C230 C238 1.378 . S
C231 C230 1.367 1_556 S
C231 C239 1.433 . S
C232 H228 0.929 . S
C232 C234 1.378 . S
C232 C236 1.350 1_556 S
C233 C236 1.463 . S
C233 C238 1.350 . S
C233 N241 1.427 1_554 S
C234 H225 0.930 . S
C234 C232 1.378 . S
C234 C235 1.367 1_556 S
C235 C234 1.367 1_554 S
C235 C237 1.433 . S
C236 C232 1.350 1_554 S
C236 C233 1.463 . S
C236 N240 1.427 . S
C237 H227 0.929 . S
C237 C235 1.433 . S
C237 N240 1.384 . S
C238 H229 0.929 . S
C238 C230 1.378 . S
C238 C233 1.350 . S
C239 H226 0.929 . S
C239 C231 1.433 . S
C239 N241 1.384 . S
N240 C236 1.427 . S
N240 C237 1.384 . S
N241 C233 1.427 1_556 S
N241 C239 1.384 . S
H242 C248 0.930 . S
H243 C252 0.930 . S
H244 C257 0.929 . S
H245 C255 0.929 . S
H246 C250 0.929 . S
H247 C256 0.929 . S
C248 H242 0.930 . S
C248 C249 1.367 . S
C248 C256 1.378 . S
C249 C248 1.367 . S
C249 C257 1.433 . S
C250 H246 0.929 . S
C250 C252 1.378 . S
C250 C254 1.350 . S
C251 C254 1.463 . S
C251 C256 1.350 . S
C251 N259 1.427 . S
C252 H243 0.930 . S
C252 C250 1.378 . S
C252 C253 1.367 . S
C253 C252 1.367 . S
C253 C255 1.433 . S
C254 C250 1.350 . S
C254 C251 1.463 . S
C254 N258 1.427 . S
C255 H245 0.929 . S
C255 C253 1.433 . S
C255 N258 1.384 . S
C256 H247 0.929 . S
C256 C248 1.378 . S
C256 C251 1.350 . S
C257 H244 0.929 . S
C257 C249 1.433 . S
C257 N259 1.384 . S
N258 C254 1.427 . S
N258 C255 1.384 . S
N259 C251 1.427 . S
N259 C257 1.384 . S
H260 C266 0.930 . S
H261 C270 0.930 . S
H262 C275 0.929 1_565 S
H263 C273 0.929 1_545 S
H264 C268 0.929 . S
H265 C274 0.929 . S
C266 H260 0.930 . S
C266 C267 1.367 1_554 S
C266 C274 1.378 . S
C267 C266 1.367 1_556 S
C267 C275 1.433 . S
C268 H264 0.929 . S
C268 C270 1.378 . S
C268 C272 1.350 1_556 S
C269 C272 1.472 1_445 S
C269 C274 1.351 . S
C269 N277 1.417 1_544 S
C270 H261 0.930 . S
C270 C268 1.378 . S
C270 C271 1.367 1_556 S
C271 C270 1.367 1_554 S
C271 C273 1.433 . S
C272 C268 1.350 1_554 S
C272 C269 1.472 1_665 S
C272 N276 1.427 1_565 S
C273 H263 0.929 1_565 S
C273 C271 1.433 . S
C273 N276 1.384 1_565 S
C274 H265 0.929 . S
C274 C266 1.378 . S
C274 C269 1.351 . S
C275 H262 0.929 1_545 S
C275 C267 1.433 . S
C275 N277 1.384 1_545 S
N276 C272 1.427 1_545 S
N276 C273 1.384 1_545 S
N277 C269 1.417 1_566 S
N277 C275 1.384 1_565 S
H278 C284 0.930 1_565 S
H279 C288 0.930 1_545 S
H280 C293 0.929 . S
H281 C291 0.929 . S
H282 C286 0.929 . S
H283 C292 0.929 . S
C284 H278 0.930 1_545 S
C284 C285 1.367 . S
C284 C292 1.378 1_545 S
C285 C284 1.367 . S
C285 C293 1.433 . S
C286 H282 0.929 . S
C286 C288 1.378 1_545 S
C286 C290 1.350 1_545 S
C287 C290 1.463 1_645 S
C287 C292 1.350 1_545 S
C287 N295 1.427 . S
C288 H279 0.930 1_565 S
C288 C286 1.378 1_565 S
C288 C289 1.367 . S
C289 C288 1.367 . S
C289 C291 1.433 . S
C290 C286 1.350 1_565 S
C290 C287 1.463 1_465 S
C290 N294 1.427 . S
C291 H281 0.929 . S
C291 C289 1.433 . S
C291 N294 1.384 . S
C292 H283 0.929 . S
C292 C284 1.378 1_565 S
C292 C287 1.350 1_565 S
C293 H280 0.929 . S
C293 C285 1.433 . S
C293 N295 1.384 . S
N294 C290 1.427 . S
N294 C291 1.384 . S
N295 C287 1.427 . S
N295 C293 1.384 . S
H296 C302 0.930 . S
H297 C306 0.930 . S
H298 C311 0.929 . S
H299 C309 0.929 . S
H300 C304 0.929 . S
H301 C310 0.929 . S
C302 H296 0.930 . S
C302 C303 1.367 . S
C302 C310 1.378 . S
C303 C302 1.367 . S
C303 C311 1.433 . S
C304 H300 0.929 . S
C304 C306 1.378 . S
C304 C308 1.350 . S
C305 C308 1.463 . S
C305 C310 1.350 . S
C305 N313 1.427 . S
C306 H297 0.930 . S
C306 C304 1.378 . S
C306 C307 1.367 . S
C307 C306 1.367 . S
C307 C309 1.433 . S
C308 C304 1.350 . S
C308 C305 1.463 . S
C308 N312 1.427 . S
C309 H299 0.929 . S
C309 C307 1.433 . S
C309 N312 1.384 . S
C310 H301 0.929 . S
C310 C302 1.378 . S
C310 C305 1.350 . S
C311 H298 0.929 . S
C311 C303 1.433 . S
C311 N313 1.384 . S
N312 C308 1.427 . S
N312 C309 1.384 . S
N313 C305 1.427 . S
N313 C311 1.384 . S
H314 C320 0.930 . S
H315 C324 0.930 . S
H316 C329 0.929 . S
H317 C327 0.929 . S
H318 C322 0.929 . S
H319 C328 0.929 . S
C320 H314 0.930 . S
C320 C321 1.367 . S
C320 C328 1.378 . S
C321 C320 1.367 . S
C321 C329 1.433 . S
C322 H318 0.929 . S
C322 C324 1.378 . S
C322 C326 1.350 . S
C323 C326 1.463 . S
C323 C328 1.350 . S
C323 N331 1.427 . S
C324 H315 0.930 . S
C324 C322 1.378 . S
C324 C325 1.367 . S
C325 C324 1.367 . S
C325 C327 1.433 . S
C326 C322 1.350 . S
C326 C323 1.463 . S
C326 N330 1.427 . S
C327 H317 0.929 . S
C327 C325 1.433 . S
C327 N330 1.384 . S
C328 H319 0.929 . S
C328 C320 1.378 . S
C328 C323 1.350 . S
C329 H316 0.929 . S
C329 C321 1.433 . S
C329 N331 1.384 . S
N330 C326 1.427 . S
N330 C327 1.384 . S
N331 C323 1.427 . S
N331 C329 1.384 . S
H332 C338 0.930 . S
H333 C342 0.930 . S
H334 C347 0.929 . S
H335 C345 0.929 . S
H336 C340 0.929 . S
H337 C346 0.929 . S
C338 H332 0.930 . S
C338 C339 1.367 . S
C338 C346 1.378 . S
C339 C338 1.367 . S
C339 C347 1.433 . S
C340 H336 0.929 . S
C340 C342 1.378 . S
C340 C344 1.350 . S
C341 C344 1.463 . S
C341 C346 1.350 . S
C341 N349 1.427 . S
C342 H333 0.930 . S
C342 C340 1.378 . S
C342 C343 1.367 . S
C343 C342 1.367 . S
C343 C345 1.433 . S
C344 C340 1.350 . S
C344 C341 1.463 . S
C344 N348 1.427 . S
C345 H335 0.929 . S
C345 C343 1.433 . S
C345 N348 1.384 . S
C346 H337 0.929 . S
C346 C338 1.378 . S
C346 C341 1.350 . S
C347 H334 0.929 . S
C347 C339 1.433 . S
C347 N349 1.384 . S
N348 C344 1.427 . S
N348 C345 1.384 . S
N349 C341 1.427 . S
N349 C347 1.384 . S
H350 C356 0.930 . S
H351 C360 0.930 . S
H352 C365 0.929 . S
H353 C363 0.929 . S
H354 C358 0.929 . S
H355 C364 0.929 . S
C356 H350 0.930 . S
C356 C357 1.367 . S
C356 C364 1.378 . S
C357 C356 1.367 . S
C357 C365 1.433 . S
C358 H354 0.929 . S
C358 C360 1.378 . S
C358 C362 1.350 . S
C359 C362 1.463 . S
C359 C364 1.350 . S
C359 N367 1.427 . S
C360 H351 0.930 . S
C360 C358 1.378 . S
C360 C361 1.367 . S
C361 C360 1.367 . S
C361 C363 1.433 . S
C362 C358 1.350 . S
C362 C359 1.463 . S
C362 N366 1.427 . S
C363 H353 0.929 . S
C363 C361 1.433 . S
C363 N366 1.384 . S
C364 H355 0.929 . S
C364 C356 1.378 . S
C364 C359 1.350 . S
C365 H352 0.929 . S
C365 C357 1.433 . S
C365 N367 1.384 . S
N366 C362 1.427 . S
N366 C363 1.384 . S
N367 C359 1.427 . S
N367 C365 1.384 . S
H368 C374 0.930 . S
H369 C378 0.930 . S
H370 C383 0.929 . S
H371 C381 0.929 . S
H372 C376 0.929 . S
H373 C382 0.929 . S
C374 H368 0.930 . S
C374 C375 1.367 . S
C374 C382 1.378 . S
C375 C374 1.367 . S
C375 C383 1.433 . S
C376 H372 0.929 . S
C376 C378 1.378 . S
C376 C380 1.350 . S
C377 C380 1.463 1_455 S
C377 C382 1.350 . S
C377 N385 1.427 . S
C378 H369 0.930 . S
C378 C376 1.378 . S
C378 C379 1.367 . S
C379 C378 1.367 . S
C379 C381 1.433 . S
C380 C376 1.350 . S
C380 C377 1.463 1_655 S
C380 N384 1.427 . S
C381 H371 0.929 . S
C381 C379 1.433 . S
C381 N384 1.384 . S
C382 H373 0.929 . S
C382 C374 1.378 . S
C382 C377 1.350 . S
C383 H370 0.929 . S
C383 C375 1.433 . S
C383 N385 1.384 . S
N384 C380 1.427 . S
N384 C381 1.384 . S
N385 C377 1.427 . S
N385 C383 1.384 . S
H386 C392 0.930 1_455 S
H387 C396 0.930 1_655 S
H388 C401 0.929 . S
H389 C399 0.929 . S
H390 C394 0.929 . S
H391 C400 0.929 . S
C392 H386 0.930 1_655 S
C392 C393 1.367 . S
C392 C400 1.378 1_655 S
C393 C392 1.367 . S
C393 C401 1.433 . S
C394 H390 0.929 . S
C394 C396 1.378 1_655 S
C394 C398 1.350 1_655 S
C395 C398 1.463 1_655 S
C395 C400 1.350 1_655 S
C395 N403 1.427 . S
C396 H387 0.930 1_455 S
C396 C394 1.378 1_455 S
C396 C397 1.367 . S
C397 C396 1.367 . S
C397 C399 1.433 . S
C398 C394 1.350 1_455 S
C398 C395 1.463 1_455 S
C398 N402 1.427 . S
C399 H389 0.929 . S
C399 C397 1.433 . S
C399 N402 1.384 . S
C400 H391 0.929 . S
C400 C392 1.378 1_455 S
C400 C395 1.350 1_455 S
C401 H388 0.929 . S
C401 C393 1.433 . S
C401 N403 1.384 . S
N402 C398 1.427 . S
N402 C399 1.384 . S
N403 C395 1.427 . S
N403 C401 1.384 . S
H404 C410 0.930 . S
H405 C414 0.930 . S
H406 C419 0.929 . S
H407 C417 0.929 . S
H408 C412 0.929 . S
H409 C418 0.929 . S
C410 H404 0.930 . S
C410 C411 1.367 . S
C410 C418 1.378 . S
C411 C410 1.367 . S
C411 C419 1.433 . S
C412 H408 0.929 . S
C412 C414 1.378 . S
C412 C416 1.350 . S
C413 C416 1.463 1_455 S
C413 C418 1.350 . S
C413 N421 1.427 . S
C414 H405 0.930 . S
C414 C412 1.378 . S
C414 C415 1.367 . S
C415 C414 1.367 . S
C415 C417 1.433 . S
C416 C412 1.350 . S
C416 C413 1.463 1_655 S
C416 N420 1.427 . S
C417 H407 0.929 . S
C417 C415 1.433 . S
C417 N420 1.384 . S
C418 H409 0.929 . S
C418 C410 1.378 . S
C418 C413 1.350 . S
C419 H406 0.929 . S
C419 C411 1.433 . S
C419 N421 1.384 . S
N420 C416 1.427 . S
N420 C417 1.384 . S
N421 C413 1.427 . S
N421 C419 1.384 . S
H422 C428 0.930 . S
H423 C432 0.930 . S
H424 C437 0.929 . S
H425 C435 0.929 . S
H426 C430 0.929 . S
H427 C436 0.929 . S
C428 H422 0.930 . S
C428 C429 1.367 . S
C428 C436 1.378 . S
C429 C428 1.367 . S
C429 C437 1.433 1_455 S
C430 H426 0.929 . S
C430 C432 1.378 . S
C430 C434 1.350 . S
C431 C434 1.463 1_455 S
C431 C436 1.350 . S
C431 N439 1.427 1_455 S
C432 H423 0.930 . S
C432 C430 1.378 . S
C432 C433 1.367 . S
C433 C432 1.367 . S
C433 C435 1.433 1_655 S
C434 C430 1.350 . S
C434 C431 1.463 1_655 S
C434 N438 1.427 1_655 S
C435 H425 0.929 . S
C435 C433 1.433 1_455 S
C435 N438 1.384 . S
C436 H427 0.929 . S
C436 C428 1.378 . S
C436 C431 1.350 . S
C437 H424 0.929 . S
C437 C429 1.433 1_655 S
C437 N439 1.384 . S
N438 C434 1.427 1_455 S
N438 C435 1.384 . S
N439 C431 1.427 1_655 S
N439 C437 1.384 . S
C159 C10 0.950 . S
C163 C27 0.950 . S
C177 C48 0.942 . S
C181 C65 0.942 . S
C195 C103 0.965 . S
C199 C86 0.965 . S
C213 C141 0.967 . S
C217 C124 0.967 . S
C231 C53 1.688 1_556 S
C235 C30 1.676 . S
C249 C144 1.690 . S
C253 C91 1.690 . S
C267 C15 1.676 1_556 S
C271 C68 1.664 . S
C285 C129 1.691 . S
C289 C106 1.691 . S
C303 C132 0.954 . S
C307 C18 0.952 . S
C321 C62 1.817 . S
C325 C100 1.817 . S
C339 C107 0.951 . S
C343 C69 0.949 . S
C357 C12 1.823 . S
C361 C126 1.823 . S
C375 C94 0.958 . S
C379 C56 0.959 . S
C393 C138 1.820 . S
C397 C24 1.820 . S
C411 C31 0.961 . S
C415 C145 0.962 . S
C429 C88 1.834 . S
C433 C50 1.834 . S
