# Generated by pormake.
# Topology lcy-e, (6)-cn, num edge types: 1
# Building blocks:
#     Node 0, Type 0, BuildingBlock: INOVEN_clean_sbu_0, # of connection points: 6
#     Node 1, Type 0, BuildingBlock: INOVEN_clean_sbu_0, # of connection points: 6
#     Node 2, Type 0, BuildingBlock: INOVEN_clean_sbu_0, # of connection points: 6
#     Node 3, Type 0, BuildingBlock: INOVEN_clean_sbu_0, # of connection points: 6
#     Node 4, Type 0, BuildingBlock: INOVEN_clean_sbu_0, # of connection points: 6
#     Node 5, Type 0, BuildingBlock: INOVEN_clean_sbu_0, # of connection points: 6
#     Node 6, Type 0, BuildingBlock: INOVEN_clean_sbu_0, # of connection points: 6
#     Node 7, Type 0, BuildingBlock: INOVEN_clean_sbu_0, # of connection points: 6
#     Node 8, Type 0, BuildingBlock: INOVEN_clean_sbu_0, # of connection points: 6
#     Node 9, Type 0, BuildingBlock: INOVEN_clean_sbu_0, # of connection points: 6
#     Node 10, Type 0, BuildingBlock: INOVEN_clean_sbu_0, # of connection points: 6
#     Node 11, Type 0, BuildingBlock: INOVEN_clean_sbu_0, # of connection points: 6
#     Edge 12, Type (0, 0), BuildingBlock: KIFKEQ_clean_linker_1, # of connection points: 2
#     Edge 13, Type (0, 0), BuildingBlock: KIFKEQ_clean_linker_1, # of connection points: 2
#     Edge 14, Type (0, 0), BuildingBlock: KIFKEQ_clean_linker_1, # of connection points: 2
#     Edge 15, Type (0, 0), BuildingBlock: KIFKEQ_clean_linker_1, # of connection points: 2
#     Edge 16, Type (0, 0), BuildingBlock: KIFKEQ_clean_linker_1, # of connection points: 2
#     Edge 17, Type (0, 0), BuildingBlock: KIFKEQ_clean_linker_1, # of connection points: 2
#     Edge 18, Type (0, 0), BuildingBlock: KIFKEQ_clean_linker_1, # of connection points: 2
#     Edge 19, Type (0, 0), BuildingBlock: KIFKEQ_clean_linker_1, # of connection points: 2
#     Edge 20, Type (0, 0), BuildingBlock: KIFKEQ_clean_linker_1, # of connection points: 2
#     Edge 21, Type (0, 0), BuildingBlock: KIFKEQ_clean_linker_1, # of connection points: 2
#     Edge 22, Type (0, 0), BuildingBlock: KIFKEQ_clean_linker_1, # of connection points: 2
#     Edge 23, Type (0, 0), BuildingBlock: KIFKEQ_clean_linker_1, # of connection points: 2
#     Edge 24, Type (0, 0), BuildingBlock: KIFKEQ_clean_linker_1, # of connection points: 2
#     Edge 25, Type (0, 0), BuildingBlock: KIFKEQ_clean_linker_1, # of connection points: 2
#     Edge 26, Type (0, 0), BuildingBlock: KIFKEQ_clean_linker_1, # of connection points: 2
#     Edge 27, Type (0, 0), BuildingBlock: KIFKEQ_clean_linker_1, # of connection points: 2
#     Edge 28, Type (0, 0), BuildingBlock: KIFKEQ_clean_linker_1, # of connection points: 2
#     Edge 29, Type (0, 0), BuildingBlock: KIFKEQ_clean_linker_1, # of connection points: 2
#     Edge 30, Type (0, 0), BuildingBlock: KIFKEQ_clean_linker_1, # of connection points: 2
#     Edge 31, Type (0, 0), BuildingBlock: KIFKEQ_clean_linker_1, # of connection points: 2
#     Edge 32, Type (0, 0), BuildingBlock: KIFKEQ_clean_linker_1, # of connection points: 2
#     Edge 33, Type (0, 0), BuildingBlock: KIFKEQ_clean_linker_1, # of connection points: 2
#     Edge 34, Type (0, 0), BuildingBlock: KIFKEQ_clean_linker_1, # of connection points: 2
#     Edge 35, Type (0, 0), BuildingBlock: KIFKEQ_clean_linker_1, # of connection points: 2
#     Edge 36, Type (0, 0), BuildingBlock: KIFKEQ_clean_linker_1, # of connection points: 2
#     Edge 37, Type (0, 0), BuildingBlock: KIFKEQ_clean_linker_1, # of connection points: 2
#     Edge 38, Type (0, 0), BuildingBlock: KIFKEQ_clean_linker_1, # of connection points: 2
#     Edge 39, Type (0, 0), BuildingBlock: KIFKEQ_clean_linker_1, # of connection points: 2
#     Edge 40, Type (0, 0), BuildingBlock: KIFKEQ_clean_linker_1, # of connection points: 2
#     Edge 41, Type (0, 0), BuildingBlock: KIFKEQ_clean_linker_1, # of connection points: 2
#     Edge 42, Type (0, 0), BuildingBlock: KIFKEQ_clean_linker_1, # of connection points: 2
#     Edge 43, Type (0, 0), BuildingBlock: KIFKEQ_clean_linker_1, # of connection points: 2
#     Edge 44, Type (0, 0), BuildingBlock: KIFKEQ_clean_linker_1, # of connection points: 2
#     Edge 45, Type (0, 0), BuildingBlock: KIFKEQ_clean_linker_1, # of connection points: 2
#     Edge 46, Type (0, 0), BuildingBlock: KIFKEQ_clean_linker_1, # of connection points: 2
#     Edge 47, Type (0, 0), BuildingBlock: KIFKEQ_clean_linker_1, # of connection points: 2
# Relax obj value: 0.185
# Max RMSD: 0.306
# Mean RMSD: 0.289
data_MOF--net-lcy-e--node1-INOVEN_clean_sbu_0--edge1-KIFKEQ_clean_linker_1
_symmetry_space_group_name_H-M    P1
_symmetry_Int_Tables_number       1
_symmetry_cell_setting            triclinic
loop_
_symmetry_equiv_pos_as_xyz
'x, y, z'
_cell_length_a     45.671271
_cell_length_b     43.466572
_cell_length_c     44.649291
_cell_angle_alpha  89.396931
_cell_angle_beta   90.499754
_cell_angle_gamma 88.190918
loop_
_atom_site_label
_atom_site_type_symbol
_atom_site_fract_x
_atom_site_fract_y
_atom_site_fract_z
_atom_type_partial_charge
Gd0 Gd 0.1542 0.23109 0.52561 0.0
Gd1 Gd 0.13619 0.27434 0.47498 0.0
C2 C 0.09948 0.21423 0.48106 0.0
C3 C 0.15608 0.19415 0.57146 0.0
C4 C 0.14024 0.16664 0.58087 0.0
C5 C 0.13465 0.14277 0.5608 0.0
C6 C 0.1301 0.16446 0.61035 0.0
C7 C 0.10992 0.11441 0.60001 0.0
C8 C 0.11501 0.13865 0.61982 0.0
C9 C 0.1198 0.11681 0.57035 0.0
C10 C 0.19113 0.2291 0.47918 0.0
C11 C 0.1866 0.2947 0.51992 0.0
C12 C 0.13271 0.30828 0.4269 0.0
C13 C 0.15044 0.32109 0.40235 0.0
C14 C 0.1655 0.34856 0.40573 0.0
C15 C 0.14982 0.30726 0.37403 0.0
C16 C 0.17691 0.34925 0.35239 0.0
C17 C 0.16297 0.32108 0.3494 0.0
C18 C 0.17865 0.36244 0.38101 0.0
C19 C 0.10462 0.28077 0.52652 0.0
O20 O 0.11363 0.20863 0.50663 0.0
O21 O 0.1065 0.23696 0.46321 0.0
O22 O 0.17359 0.1912 0.54856 0.0
O23 O 0.14069 0.22001 0.57081 0.0
O24 O 0.19916 0.2268 0.50704 0.0
O25 O 0.16337 0.23089 0.47653 0.0
O26 O 0.17846 0.29401 0.49145 0.0
O27 O 0.17669 0.27438 0.53948 0.0
O28 O 0.13509 0.31971 0.45382 0.0
O29 O 0.12981 0.27847 0.42718 0.0
O30 O 0.0933 0.28548 0.50004 0.0
O31 O 0.13147 0.27561 0.52384 0.0
H32 H 0.14183 0.14409 0.53778 0.0
H33 H 0.13401 0.18268 0.62613 0.0
H34 H 0.10796 0.13734 0.64289 0.0
H35 H 0.11595 0.09863 0.55452 0.0
H36 H 0.16633 0.35988 0.4272 0.0
H37 H 0.13809 0.28629 0.37057 0.0
H38 H 0.16079 0.31047 0.32769 0.0
H39 H 0.18953 0.38397 0.38416 0.0
Gd40 Gd 0.99504 0.87558 0.73319 0.0
Gd41 Gd 0.04699 0.89489 0.77237 0.0
C42 C 0.03703 0.93095 0.71079 0.0
C43 C 0.94674 0.87393 0.7027 0.0
C44 C 0.9329 0.88825 0.67573 0.0
C45 C 0.94751 0.8897 0.64817 0.0
C46 C 0.90403 0.89992 0.67749 0.0
C47 C 0.90376 0.91275 0.6242 0.0
C48 C 0.88965 0.91212 0.6521 0.0
C49 C 0.93306 0.90181 0.62264 0.0
C50 C 0.04284 0.83866 0.72923 0.0
C51 C 1.00682 0.84031 0.79527 0.0
C52 C 0.09493 0.89939 0.80336 0.0
C53 C 0.11845 0.88154 0.81942 0.0
C54 C 0.12606 0.89005 0.8486 0.0
C55 C 0.13538 0.85841 0.80524 0.0
C56 C 0.16783 0.85364 0.84888 0.0
C57 C 0.15985 0.84465 0.81981 0.0
C58 C 0.15038 0.87626 0.86319 0.0
C59 C 0.99499 0.92632 0.77969 0.0
O60 O 1.01156 0.9174 0.70809 0.0
O61 O 0.05574 0.92398 0.73257 0.0
O62 O 0.96897 0.85467 0.69871 0.0
O63 O 0.95016 0.89186 0.72578 0.0
O64 O 1.01623 0.82922 0.72688 0.0
O65 O 0.04316 0.8677 0.73106 0.0
O66 O 0.03404 0.84977 0.79339 0.0
O67 O 0.98609 0.8507 0.77641 0.0
O68 O 0.06889 0.90104 0.81538 0.0
O69 O 0.09408 0.89735 0.77416 0.0
O70 O 0.02006 0.93953 0.78153 0.0
O71 O 0.99937 0.89826 0.77587 0.0
H72 H 0.9699 0.88103 0.64622 0.0
H73 H 0.89241 0.89926 0.69854 0.0
H74 H 0.86735 0.92095 0.65433 0.0
H75 H 0.94455 0.9018 0.60153 0.0
H76 H 0.11363 0.90808 0.85987 0.0
H77 H 0.13012 0.85138 0.78268 0.0
H78 H 0.17258 0.82705 0.80829 0.0
H79 H 0.15605 0.88406 0.88539 0.0
Gd80 Gd 0.37696 0.79094 0.02428 0.0
Gd81 Gd 0.3991 0.75118 0.9731 0.0
C82 C 0.43113 0.81338 0.98217 0.0
C83 C 0.37015 0.82682 0.06993 0.0
C84 C 0.38525 0.85281 0.08345 0.0
C85 C 0.37016 0.87169 0.10373 0.0
C86 C 0.41419 0.85947 0.07595 0.0
C87 C 0.41251 0.90422 0.10855 0.0
C88 C 0.42772 0.88494 0.0884 0.0
C89 C 0.38363 0.89705 0.11621 0.0
C90 C 0.34111 0.79157 0.97632 0.0
C91 C 0.3487 0.72533 0.01553 0.0
C92 C 0.405 0.71939 0.92455 0.0
C93 C 0.38753 0.70568 0.90021 0.0
C94 C 0.37075 0.67954 0.90496 0.0
C95 C 0.38933 0.7179 0.87103 0.0
C96 C 0.35948 0.6771 0.85143 0.0
C97 C 0.37541 0.70389 0.84698 0.0
C98 C 0.35687 0.66542 0.88083 0.0
C99 C 0.42995 0.74539 0.0258 0.0
O100 O 0.4181 0.81486 1.00854 0.0
O101 O 0.42434 0.79253 0.96245 0.0
O102 O 0.35775 0.83226 0.04383 0.0
O103 O 0.38374 0.79991 0.07147 0.0
O104 O 0.33234 0.7923 1.00381 0.0
O105 O 0.36884 0.7922 0.97492 0.0
O106 O 0.35849 0.72723 0.98779 0.0
O107 O 0.35562 0.74602 0.03593 0.0
O108 O 0.40454 0.70685 0.95134 0.0
O109 O 0.4051 0.74943 0.92516 0.0
O110 O 0.44217 0.74272 0.99973 0.0
O111 O 0.40293 0.74847 0.02206 0.0
H112 H 0.34786 0.86686 0.10988 0.0
H113 H 0.42624 0.84512 0.06036 0.0
H114 H 0.44988 0.88983 0.08184 0.0
H115 H 0.37141 0.91094 0.13209 0.0
H116 H 0.36887 0.66955 0.92716 0.0
H117 H 0.40231 0.73787 0.86663 0.0
H118 H 0.37829 0.71328 0.82468 0.0
H119 H 0.34452 0.64499 0.88511 0.0
Gd120 Gd 0.53286 0.14025 0.24086 0.0
Gd121 Gd 0.48614 0.12074 0.28505 0.0
C122 C 0.49194 0.08114 0.2259 0.0
C123 C 0.57829 0.14129 0.20657 0.0
C124 C 0.58762 0.12901 0.1773 0.0
C125 C 0.60539 0.14671 0.1589 0.0
C126 C 0.57958 0.09974 0.16766 0.0
C127 C 0.60748 0.10595 0.12171 0.0
C128 C 0.58947 0.08829 0.14017 0.0
C129 C 0.61521 0.13535 0.13143 0.0
C130 C 0.48292 0.17379 0.23579 0.0
C131 C 0.52229 0.18019 0.29938 0.0
C132 C 0.44146 0.11622 0.32027 0.0
C133 C 0.417 0.13393 0.33419 0.0
C134 C 0.40903 0.12647 0.36356 0.0
C135 C 0.39991 0.15605 0.31806 0.0
C136 C 0.36667 0.16212 0.36039 0.0
C137 C 0.37496 0.16996 0.33102 0.0
C138 C 0.38423 0.14035 0.37651 0.0
C139 C 0.541 0.09419 0.29312 0.0
O140 O 0.51506 0.09736 0.21888 0.0
O141 O 0.47628 0.08697 0.24987 0.0
O142 O 0.55761 0.16284 0.20608 0.0
O143 O 0.57529 0.12122 0.22835 0.0
O144 O 0.50872 0.18435 0.23083 0.0
O145 O 0.48417 0.14493 0.24082 0.0
O146 O 0.49575 0.16901 0.29867 0.0
O147 O 0.54302 0.16925 0.28133 0.0
O148 O 0.46808 0.1205 0.33013 0.0
O149 O 0.44018 0.1125 0.29128 0.0
O150 O 0.51708 0.07976 0.29848 0.0
O151 O 0.53419 0.12129 0.28594 0.0
H152 H 0.61195 0.16927 0.16594 0.0
H153 H 0.56583 0.08564 0.18145 0.0
H154 H 0.58286 0.0657 0.13329 0.0
H155 H 0.6294 0.14941 0.11808 0.0
H156 H 0.42163 0.10923 0.37631 0.0
H157 H 0.40553 0.16222 0.29529 0.0
H158 H 0.3622 0.18687 0.31806 0.0
H159 H 0.37839 0.13334 0.39896 0.0
Gd160 Gd 0.62622 0.24752 0.55522 0.0
Gd161 Gd 0.64056 0.30768 0.52351 0.0
C162 C 0.67664 0.2921 0.58238 0.0
C163 C 0.62927 0.19504 0.58304 0.0
C164 C 0.6418 0.18315 0.61181 0.0
C165 C 0.63273 0.19509 0.63954 0.0
C166 C 0.66304 0.15914 0.61157 0.0
C167 C 0.66516 0.15827 0.66624 0.0
C168 C 0.67467 0.14695 0.63839 0.0
C169 C 0.64426 0.18276 0.66644 0.0
C170 C 0.58899 0.29441 0.56688 0.0
C171 C 0.59288 0.26334 0.4935 0.0
C172 C 0.64016 0.36219 0.49923 0.0
C173 C 0.62495 0.38365 0.47774 0.0
C174 C 0.63777 0.38997 0.44996 0.0
C175 C 0.59965 0.40074 0.486 0.0
C176 C 0.60085 0.43051 0.43945 0.0
C177 C 0.58773 0.42387 0.46705 0.0
C178 C 0.62583 0.41301 0.43101 0.0
C179 C 0.67354 0.25685 0.50901 0.0
O180 O 0.6656 0.26431 0.58138 0.0
O181 O 0.66781 0.31437 0.564 0.0
O182 O 0.60654 0.21409 0.58442 0.0
O183 O 0.64803 0.20291 0.5625 0.0
O184 O 0.58146 0.26601 0.5647 0.0
O185 O 0.6165 0.29671 0.56493 0.0
O186 O 0.60111 0.29202 0.49737 0.0
O187 O 0.60284 0.24051 0.51121 0.0
O188 O 0.65524 0.33869 0.4886 0.0
O189 O 0.62679 0.3557 0.52422 0.0
O190 O 0.68462 0.28392 0.51149 0.0
O191 O 0.64663 0.25888 0.51318 0.0
H192 H 0.61647 0.21373 0.64054 0.0
H193 H 0.67056 0.14965 0.59054 0.0
H194 H 0.69115 0.12855 0.63726 0.0
H195 H 0.63623 0.1919 0.68739 0.0
H196 H 0.65761 0.37769 0.4432 0.0
H197 H 0.58937 0.39678 0.50741 0.0
H198 H 0.56829 0.43666 0.47409 0.0
H199 H 0.63677 0.41775 0.41012 0.0
Gd200 Gd 0.98373 0.39463 0.73501 0.0
Gd201 Gd 0.02587 0.37361 0.78338 0.0
C202 C 0.96788 0.33593 0.77864 0.0
C203 C 0.94806 0.39719 0.68969 0.0
C204 C 0.91923 0.3844 0.68349 0.0
C205 C 0.9001 0.37741 0.70689 0.0
C206 C 0.91138 0.37752 0.65398 0.0
C207 C 0.86533 0.35704 0.67114 0.0
C208 C 0.88468 0.36394 0.64784 0.0
C209 C 0.87329 0.364 0.70075 0.0
C210 C 0.98098 0.43013 0.78384 0.0
C211 C 0.04326 0.42963 0.74143 0.0
C212 C 0.06069 0.36903 0.82941 0.0
C213 C 0.07441 0.38856 0.85228 0.0
C214 C 0.10245 0.40018 0.84793 0.0
C215 C 0.06054 0.39352 0.8799 0.0
C216 C 0.10307 0.41972 0.89893 0.0
C217 C 0.07464 0.40899 0.90288 0.0
C218 C 0.11658 0.41567 0.87097 0.0
C219 C 0.03159 0.34366 0.73006 0.0
O220 O 0.96139 0.35263 0.75435 0.0
O221 O 0.99112 0.3412 0.79512 0.0
O222 O 0.949 0.41867 0.70997 0.0
O223 O 0.96965 0.37686 0.6923 0.0
O224 O 0.97774 0.44032 0.75657 0.0
O225 O 0.98387 0.40094 0.78454 0.0
O226 O 0.04236 0.41999 0.76953 0.0
O227 O 0.02468 0.41901 0.7213 0.0
O228 O 0.07007 0.37081 0.80184 0.0
O229 O 0.0323 0.36635 0.83089 0.0
O230 O 0.03616 0.33026 0.75587 0.0
O231 O 0.02656 0.37168 0.73418 0.0
H232 H 0.906 0.38209 0.72992 0.0
H233 H 0.92599 0.38251 0.63569 0.0
H234 H 0.87902 0.35919 0.62477 0.0
H235 H 0.85896 0.35869 0.71917 0.0
H236 H 0.11383 0.39663 0.827 0.0
H237 H 0.03908 0.38457 0.88417 0.0
H238 H 0.06375 0.41126 0.92423 0.0
H239 H 0.13836 0.42395 0.86708 0.0
Gd240 Gd 0.89781 0.77067 0.05164 0.0
Gd241 Gd 0.88321 0.7187 1.00888 0.0
C242 C 0.8448 0.72424 0.0676 0.0
C243 C 0.89685 0.81877 0.08537 0.0
C244 C 0.88349 0.82928 0.11354 0.0
C245 C 0.87855 0.8089 0.13747 0.0
C246 C 0.87575 0.86051 0.11652 0.0
C247 C 0.85986 0.85147 0.16775 0.0
C248 C 0.864 0.8715 0.14328 0.0
C249 C 0.86686 0.81991 0.16438 0.0
C250 C 0.93461 0.7217 0.05613 0.0
C251 C 0.93455 0.76371 0.99167 0.0
C252 C 0.88047 0.67036 0.97538 0.0
C253 C 0.89605 0.6463 0.95799 0.0
C254 C 0.88002 0.62995 0.93689 0.0
C255 C 0.92546 0.63746 0.96369 0.0
C256 C 0.92199 0.59527 0.92807 0.0
C257 C 0.93838 0.61224 0.9487 0.0
C258 C 0.89276 0.60476 0.92213 0.0
C259 C 0.85175 0.77303 1.0014 0.0
O260 O 0.8576 0.75052 0.07312 0.0
O261 O 0.85279 0.70644 0.04528 0.0
O262 O 0.91709 0.79683 0.08736 0.0
O263 O 0.8789 0.81544 0.06276 0.0
O264 O 0.94228 0.7499 0.05964 0.0
O265 O 0.90711 0.72005 0.0524 0.0
O266 O 0.92664 0.73469 0.99191 0.0
O267 O 0.92258 0.78405 1.01026 0.0
O268 O 0.87874 0.69849 0.96461 0.0
O269 O 0.88357 0.66923 1.00451 0.0
O270 O 0.84057 0.74626 0.99731 0.0
O271 O 0.87837 0.76918 1.00728 0.0
H272 H 0.88411 0.78459 0.13551 0.0
H273 H 0.87906 0.87653 0.09819 0.0
H274 H 0.85827 0.8958 0.14482 0.0
H275 H 0.86409 0.80388 0.18279 0.0
H276 H 0.85727 0.63629 0.93224 0.0
H277 H 0.93819 0.64962 0.98009 0.0
H278 H 0.96092 0.60554 0.95383 0.0
H279 H 0.87966 0.59268 0.906 0.0
Gd280 Gd 0.54061 0.62928 0.23898 0.0
Gd281 Gd 0.50074 0.65331 0.28777 0.0
C282 C 0.56019 0.68718 0.28075 0.0
C283 C 0.57475 0.62309 0.19328 0.0
C284 C 0.60254 0.63578 0.1829 0.0
C285 C 0.62616 0.64014 0.20263 0.0
C286 C 0.60541 0.64373 0.15261 0.0
C287 C 0.65571 0.65887 0.1614 0.0
C288 C 0.63164 0.65524 0.14197 0.0
C289 C 0.65252 0.65149 0.19196 0.0
C290 C 0.54291 0.59475 0.28907 0.0
C291 C 0.48005 0.59677 0.24878 0.0
C292 C 0.4668 0.66125 0.33348 0.0
C293 C 0.4506 0.6435 0.35586 0.0
C294 C 0.42576 0.65719 0.36896 0.0
C295 C 0.46046 0.61413 0.36574 0.0
C296 C 0.42129 0.61305 0.4026 0.0
C297 C 0.44596 0.59906 0.38898 0.0
C298 C 0.41125 0.64218 0.39204 0.0
C299 C 0.49553 0.68262 0.23342 0.0
O300 O 0.56384 0.67185 0.25547 0.0
O301 O 0.53855 0.68164 0.29899 0.0
O302 O 0.57606 0.60473 0.21668 0.0
O303 O 0.55222 0.64236 0.19369 0.0
O304 O 0.54492 0.58385 0.26223 0.0
O305 O 0.5415 0.62397 0.28868 0.0
O306 O 0.48182 0.60789 0.2761 0.0
O307 O 0.49877 0.60502 0.22779 0.0
O308 O 0.45707 0.66124 0.30584 0.0
O309 O 0.49538 0.65936 0.33537 0.0
O310 O 0.49298 0.69687 0.25873 0.0
O311 O 0.49888 0.65443 0.23853 0.0
H312 H 0.62437 0.63447 0.22621 0.0
H313 H 0.58734 0.64091 0.13709 0.0
H314 H 0.63302 0.66129 0.11845 0.0
H315 H 0.67061 0.65375 0.20753 0.0
H316 H 0.41794 0.67991 0.3618 0.0
H317 H 0.47962 0.6031 0.35587 0.0
H318 H 0.4541 0.57654 0.39634 0.0
H319 H 0.39266 0.6539 0.40225 0.0
Gd320 Gd 0.2321 0.52714 0.13868 0.0
Gd321 Gd 0.27191 0.46705 0.12303 0.0
C322 C 0.21376 0.4809 0.08446 0.0
C323 C 0.20633 0.58045 0.13393 0.0
C324 C 0.17586 0.59062 0.12683 0.0
C325 C 0.15185 0.57506 0.13846 0.0
C326 C 0.17075 0.61459 0.10601 0.0
C327 C 0.11813 0.60695 0.10789 0.0
C328 C 0.14222 0.62264 0.09659 0.0
C329 C 0.12322 0.58332 0.12924 0.0
C330 C 0.2138 0.47692 0.16921 0.0
C331 C 0.29133 0.51107 0.177 0.0
C332 C 0.30037 0.41469 0.12093 0.0
C333 C 0.31552 0.3898 0.13826 0.0
C334 C 0.33513 0.37002 0.12329 0.0
C335 C 0.30934 0.38396 0.1685 0.0
C336 C 0.34151 0.33797 0.16815 0.0
C337 C 0.32226 0.35828 0.18335 0.0
C338 C 0.34801 0.34444 0.13802 0.0
C339 C 0.28104 0.52032 0.09231 0.0
O340 O 0.21147 0.5087 0.09636 0.0
O341 O 0.23314 0.4597 0.09384 0.0
O342 O 0.21118 0.56656 0.15991 0.0
O343 O 0.22041 0.56732 0.11173 0.0
O344 O 0.20158 0.50416 0.1713 0.0
O345 O 0.23392 0.47836 0.15029 0.0
O346 O 0.29062 0.48245 0.16699 0.0
O347 O 0.27254 0.53321 0.16746 0.0
O348 O 0.31317 0.44118 0.1185 0.0
O349 O 0.27186 0.41741 0.1238 0.0
O350 O 0.28436 0.49333 0.08022 0.0
O351 O 0.2749 0.51701 0.1193 0.0
H352 H 0.15521 0.55612 0.15419 0.0
H353 H 0.18893 0.62673 0.09656 0.0
H354 H 0.13901 0.64124 0.08044 0.0
H355 H 0.10515 0.5707 0.13822 0.0
H356 H 0.34017 0.3741 0.09994 0.0
H357 H 0.29425 0.39891 0.18048 0.0
H358 H 0.31671 0.35399 0.20652 0.0
H359 H 0.36323 0.32981 0.12578 0.0
Gd360 Gd 0.73407 0.98593 0.88313 0.0
Gd361 Gd 0.77323 0.03864 0.90006 0.0
C362 C 0.71519 0.03348 0.93751 0.0
C363 C 0.7017 0.93798 0.88489 0.0
C364 C 0.67294 0.92976 0.8972 0.0
C365 C 0.64901 0.9509 0.89732 0.0
C366 C 0.66951 0.90025 0.90942 0.0
C367 C 0.61837 0.91266 0.921 0.0
C368 C 0.64258 0.89179 0.92123 0.0
C369 C 0.62196 0.94238 0.90895 0.0
C370 C 0.72791 0.03479 0.84653 0.0
C371 C 0.79343 0.99434 0.84718 0.0
C372 C 0.80557 0.08669 0.90156 0.0
C373 C 0.82214 0.10821 0.88266 0.0
C374 C 0.85023 0.11631 0.89202 0.0
C375 C 0.80967 0.12282 0.8571 0.0
C376 C 0.85273 0.15438 0.85157 0.0
C377 C 0.82479 0.14571 0.84176 0.0
C378 C 0.86534 0.13904 0.8767 0.0
C379 C 0.78199 0.98455 0.93136 0.0
O380 O 0.71072 1.00738 0.92328 0.0
O381 O 0.73715 0.05109 0.93089 0.0
O382 O 0.70163 0.95746 0.86231 0.0
O383 O 0.7223 0.94307 0.90458 0.0
O384 O 0.72579 1.0065 0.83803 0.0
O385 O 0.7311 0.03653 0.87476 0.0
O386 O 0.79045 0.02332 0.85548 0.0
O387 O 0.77601 0.97316 0.85835 0.0
O388 O 0.81618 0.05854 0.90505 0.0
O389 O 0.77697 0.08811 0.89941 0.0
O390 O 0.78454 1.01142 0.94344 0.0
O391 O 0.77685 0.9882 0.90404 0.0
H392 H 0.65118 0.97397 0.88838 0.0
H393 H 0.68769 0.88361 0.90969 0.0
H394 H 0.64057 0.86862 0.92997 0.0
H395 H 0.6039 0.95914 0.90872 0.0
H396 H 0.8602 0.10564 0.91181 0.0
H397 H 0.78801 0.11704 0.84932 0.0
H398 H 0.81453 0.15672 0.82231 0.0
H399 H 0.88657 0.14533 0.88525 0.0
Gd400 Gd 0.74162 0.98565 0.40024 0.0
Gd401 Gd 0.7983 0.02071 0.39 0.0
C402 C 0.79083 0.95691 0.35498 0.0
C403 C 0.69511 0.95363 0.39659 0.0
C404 C 0.68359 0.92973 0.37671 0.0
C405 C 0.70135 0.90453 0.3677 0.0
C406 C 0.65392 0.93091 0.36836 0.0
C407 C 0.65914 0.88045 0.34507 0.0
C408 C 0.64184 0.90661 0.35261 0.0
C409 C 0.68925 0.88013 0.35214 0.0
C410 C 0.78063 0.98254 0.44591 0.0
C411 C 0.7488 0.05268 0.42923 0.0
C412 C 0.8522 0.03744 0.38956 0.0
C413 C 0.87403 0.06053 0.39712 0.0
C414 C 0.89963 0.06142 0.38012 0.0
C415 C 0.87178 0.07854 0.42299 0.0
C416 C 0.9214 0.09661 0.41559 0.0
C417 C 0.89522 0.09647 0.4321 0.0
C418 C 0.92304 0.07915 0.38923 0.0
C419 C 0.75065 0.03906 0.35639 0.0
O420 O 0.76447 0.95451 0.36672 0.0
O421 O 0.80785 0.97999 0.36118 0.0
O422 O 0.71807 0.94547 0.41294 0.0
O423 O 0.69626 0.98172 0.3857 0.0
O424 O 0.75252 0.98481 0.44933 0.0
O425 O 0.78684 0.98105 0.41844 0.0
O426 O 0.7774 0.04808 0.42651 0.0
O427 O 0.72976 0.03362 0.41726 0.0
O428 O 0.83422 0.04264 0.36687 0.0
O429 O 0.84028 0.02292 0.41199 0.0
O430 O 0.76953 0.05812 0.36696 0.0
O431 O 0.75891 1.01204 0.36313 0.0
H432 H 0.72441 0.9031 0.3736 0.0
H433 H 0.63987 0.95022 0.37481 0.0
H434 H 0.61873 0.90805 0.34695 0.0
H435 H 0.70327 0.86039 0.34693 0.0
H436 H 0.90203 0.04733 0.36036 0.0
H437 H 0.85227 0.07806 0.4366 0.0
H438 H 0.89293 0.10996 0.45224 0.0
H439 H 0.94288 0.07818 0.37612 0.0
Gd440 Gd 0.29921 0.496 0.64272 0.0
Gd441 Gd 0.25666 0.55326 0.62542 0.0
C442 C 0.31531 0.54252 0.58766 0.0
C443 C 0.32705 0.44369 0.6429 0.0
C444 C 0.35831 0.43503 0.6417 0.0
C445 C 0.37901 0.45732 0.63522 0.0
C446 C 0.36747 0.40421 0.64533 0.0
C447 C 0.41773 0.41763 0.63444 0.0
C448 C 0.39695 0.39556 0.64179 0.0
C449 C 0.40849 0.44868 0.63152 0.0
C450 C 0.31495 0.54657 0.67375 0.0
C451 C 0.23813 0.50766 0.6782 0.0
C452 C 0.22635 0.60431 0.62142 0.0
C453 C 0.21294 0.62903 0.63921 0.0
C454 C 0.19878 0.65368 0.6241 0.0
C455 C 0.21516 0.62928 0.67056 0.0
C456 C 0.18916 0.67916 0.67143 0.0
C457 C 0.20332 0.65421 0.6866 0.0
C458 C 0.18694 0.67845 0.63999 0.0
C459 C 0.2503 0.50006 0.59459 0.0
O460 O 0.31905 0.51482 0.60011 0.0
O461 O 0.29507 0.56261 0.59668 0.0
O462 O 0.31816 0.4571 0.66758 0.0
O463 O 0.31646 0.45699 0.61842 0.0
O464 O 0.32845 0.51996 0.67569 0.0
O465 O 0.29465 0.54472 0.6547 0.0
O466 O 0.23829 0.53683 0.66926 0.0
O467 O 0.25768 0.48683 0.66837 0.0
O468 O 0.21436 0.5773 0.62253 0.0
O469 O 0.25504 0.60275 0.62146 0.0
O470 O 0.2445 0.52704 0.58275 0.0
O471 O 0.25651 0.5033 0.62158 0.0
H472 H 0.37222 0.48129 0.63235 0.0
H473 H 0.35172 0.38674 0.65016 0.0
H474 H 0.40326 0.37138 0.6437 0.0
H475 H 0.42398 0.4662 0.62606 0.0
H476 H 0.19693 0.65382 0.59988 0.0
H477 H 0.22611 0.61036 0.68254 0.0
H478 H 0.20544 0.65406 0.71077 0.0
H479 H 0.17556 0.69682 0.62761 0.0
H480 H 0.21483 0.33742 0.48621 0.0
H481 H 0.1924 0.31464 0.57739 0.0
H482 H 0.23339 0.3865 0.50273 0.0
H483 H 0.20983 0.36393 0.59375 0.0
H484 H 0.26023 0.44457 0.62113 0.0
H485 H 0.25024 0.39408 0.60209 0.0
H486 H 0.21615 0.43558 0.52 0.0
H487 H 0.2281 0.48659 0.53872 0.0
C488 C 0.21418 0.34272 0.50985 0.0
C489 C 0.20221 0.322 0.5305 0.0
C490 C 0.22452 0.37106 0.51928 0.0
C491 C 0.22298 0.37949 0.54957 0.0
C492 C 0.21189 0.35822 0.5703 0.0
C493 C 0.20183 0.3298 0.56093 0.0
C494 C 0.25119 0.44299 0.59873 0.0
C495 C 0.24519 0.4696 0.58132 0.0
C496 C 0.24503 0.41391 0.58794 0.0
C497 C 0.232 0.41052 0.55961 0.0
C498 C 0.22648 0.43717 0.54182 0.0
C499 C 0.23312 0.46645 0.55255 0.0
H500 H 0.8107 0.93732 0.826 0.0
H501 H 0.83773 0.03151 0.83087 0.0
H502 H 0.85855 0.92232 0.80602 0.0
H503 H 0.88577 0.0164 0.81307 0.0
H504 H 0.96935 0.98329 0.76681 0.0
H505 H 0.91864 0.99998 0.7772 0.0
H506 H 0.90543 0.91378 0.82381 0.0
H507 H 0.95488 0.89696 0.81187 0.0
C508 C 0.8267 0.95486 0.82258 0.0
C509 C 0.82031 0.98551 0.83034 0.0
C510 C 0.85439 0.94625 0.81151 0.0
C511 C 0.87661 0.96797 0.80852 0.0
C512 C 0.8695 0.99891 0.81475 0.0
C513 C 0.84173 1.00758 0.82523 0.0
C514 C 0.95548 0.96822 0.77945 0.0
C515 C 0.96598 0.93894 0.78859 0.0
C516 C 0.92638 0.97764 0.78541 0.0
C517 C 0.90744 0.95812 0.80109 0.0
C518 C 0.91864 0.92918 0.81084 0.0
C519 C 0.94729 0.91965 0.80438 0.0
H520 H 0.31445 0.71545 0.0649 0.0
H521 H 0.34881 0.67076 0.9862 0.0
H522 H 0.29373 0.66707 0.08113 0.0
H523 H 0.33021 0.6222 1.00319 0.0
H524 H 0.28287 0.53756 0.03273 0.0
H525 H 0.29381 0.58847 1.01243 0.0
H526 H 0.30748 0.62118 0.10258 0.0
H527 H 0.29469 0.57151 0.12229 0.0
C528 C 0.31753 0.69531 0.05106 0.0
C529 C 0.33334 0.69704 0.02433 0.0
C530 C 0.30594 0.66734 0.06048 0.0
C531 C 0.31058 0.64015 0.04384 0.0
C532 C 0.32563 0.64236 0.01658 0.0
C533 C 0.33656 0.6704 1.00686 0.0
C534 C 0.28807 0.55584 0.048 0.0
C535 C 0.28794 0.55056 0.07903 0.0
C536 C 0.2945 0.58507 0.03647 0.0
C537 C 0.30158 0.60943 0.05574 0.0
C538 C 0.30143 0.6037 0.08681 0.0
C539 C 0.2944 0.57489 0.09822 0.0
H540 H 0.58952 0.12801 0.28809 0.0
H541 H 0.56199 0.03842 0.31678 0.0
H542 H 0.63962 0.11447 0.30218 0.0
H543 H 0.61274 0.02484 0.33185 0.0
H544 H 0.7124 1.00193 0.32829 0.0
H545 H 0.66173 0.01382 0.31308 0.0
H546 H 0.66994 0.10653 0.3454 0.0
H547 H 0.72072 0.09456 0.36022 0.0
C548 C 0.59415 0.10528 0.29742 0.0
C549 C 0.57161 0.08427 0.3012 0.0
C550 C 0.62302 0.09761 0.30584 0.0
C551 C 0.63044 0.06865 0.3185 0.0
C552 C 0.60796 0.04732 0.32198 0.0
C553 C 0.57883 0.05507 0.31346 0.0
C554 C 0.70336 0.02491 0.33199 0.0
C555 C 0.72059 0.04735 0.34537 0.0
C556 C 0.6742 0.03166 0.32349 0.0
C557 C 0.66149 0.06114 0.32797 0.0
C558 C 0.67896 0.08368 0.34113 0.0
C559 C 0.70814 0.07689 0.34965 0.0
H560 H 0.72913 0.23193 0.51884 0.0
H561 H 0.64832 0.21824 0.47083 0.0
H562 H 0.74774 0.18135 0.50222 0.0
H563 H 0.66696 0.16908 0.45304 0.0
H564 H 0.69315 0.06937 0.44732 0.0
H565 H 0.67661 0.11858 0.46802 0.0
H566 H 0.76471 0.15163 0.46215 0.0
H567 H 0.78134 0.10218 0.44312 0.0
C568 C 0.7157 0.2184 0.5042 0.0
C569 C 0.68737 0.2289 0.49613 0.0
C570 C 0.72622 0.18938 0.49468 0.0
C571 C 0.7087 0.17064 0.47657 0.0
C572 C 0.68081 0.18209 0.4677 0.0
C573 C 0.67023 0.21059 0.47759 0.0
C574 C 0.70898 0.08705 0.45078 0.0
C575 C 0.73852 0.08172 0.44353 0.0
C576 C 0.69951 0.11547 0.46241 0.0
C577 C 0.71923 0.13949 0.46651 0.0
C578 C 0.74888 0.13379 0.45977 0.0
C579 C 0.75839 0.1053 0.44863 0.0
H580 H 0.07718 0.46632 0.77575 0.0
H581 H 0.06868 0.43057 0.68631 0.0
H582 H 0.125 0.4865 0.76296 0.0
H583 H 0.11668 0.45031 0.67378 0.0
H584 H 0.21748 0.44943 0.67954 0.0
H585 H 0.16895 0.43383 0.69478 0.0
H586 H 0.14883 0.5259 0.72518 0.0
H587 H 0.19738 0.5419 0.70942 0.0
C588 C 0.08526 0.46331 0.75319 0.0
C589 C 0.06911 0.44693 0.732 0.0
C590 C 0.11265 0.47479 0.74594 0.0
C591 C 0.12469 0.46958 0.71754 0.0
C592 C 0.10803 0.45432 0.69597 0.0
C593 C 0.0804 0.44336 0.70303 0.0
C594 C 0.20305 0.46627 0.69006 0.0
C595 C 0.2114 0.49694 0.69329 0.0
C596 C 0.17509 0.45738 0.69842 0.0
C597 C 0.15499 0.47879 0.71069 0.0
C598 C 0.16387 0.50898 0.71564 0.0
C599 C 0.1917 0.51807 0.70675 0.0
H600 H 0.77831 0.92905 0.90468 0.0
H601 H 0.80193 0.97026 0.98868 0.0
H602 H 0.79068 0.8782 0.92508 0.0
H603 H 0.81563 0.91879 1.0089 0.0
H604 H 0.87726 0.82831 1.00592 0.0
H605 H 0.85692 0.87922 0.99357 0.0
H606 H 0.77567 0.83923 0.96669 0.0
H607 H 0.79581 0.7877 0.98043 0.0
C608 C 0.78568 0.92725 0.92775 0.0
C609 C 0.78872 0.9538 0.94518 0.0
C610 C 0.79277 0.89797 0.93942 0.0
C611 C 0.80389 0.89437 0.96866 0.0
C612 C 0.80697 0.92086 0.98628 0.0
C613 C 0.79917 0.95029 0.97475 0.0
C614 C 0.85475 0.83026 0.9982 0.0
C615 C 0.83801 0.80385 0.99464 0.0
C616 C 0.84312 0.85958 0.9911 0.0
C617 C 0.81462 0.86336 0.97942 0.0
C618 C 0.7977 0.83703 0.9758 0.0
C619 C 0.80919 0.80756 0.98361 0.0
H620 H 0.46806 0.56579 0.19681 0.0
H621 H 0.43236 0.58792 0.28366 0.0
H622 H 0.42187 0.54188 0.18318 0.0
H623 H 0.38647 0.56486 0.26965 0.0
H624 H 0.30069 0.56464 0.20719 0.0
H625 H 0.34747 0.58201 0.22698 0.0
H626 H 0.38909 0.49534 0.2032 0.0
H627 H 0.34251 0.47752 0.18415 0.0
C628 C 0.45062 0.56522 0.21307 0.0
C629 C 0.45397 0.57881 0.24125 0.0
C630 C 0.42424 0.55158 0.20529 0.0
C631 C 0.40064 0.55181 0.22536 0.0
C632 C 0.40426 0.56461 0.25374 0.0
C633 C 0.43069 0.57766 0.26173 0.0
C634 C 0.31963 0.54902 0.20683 0.0
C635 C 0.31775 0.51971 0.19409 0.0
C636 C 0.34639 0.55899 0.21806 0.0
C637 C 0.37185 0.54008 0.21622 0.0
C638 C 0.36981 0.51042 0.20457 0.0
C639 C 0.343 0.5002 0.19393 0.0
H640 H 0.487 0.19722 0.34567 0.0
H641 H 0.57464 0.20729 0.31167 0.0
H642 H 0.50148 0.22066 0.39252 0.0
H643 H 0.58872 0.23171 0.35871 0.0
H644 H 0.59051 0.2972 0.44174 0.0
H645 H 0.57176 0.28157 0.39297 0.0
H646 H 0.54219 0.19714 0.43237 0.0
H647 H 0.56166 0.21224 0.48117 0.0
C648 C 0.50919 0.20506 0.34782 0.0
C649 C 0.52978 0.2001 0.3249 0.0
C650 C 0.51742 0.21836 0.37478 0.0
C651 C 0.5462 0.22764 0.37921 0.0
C652 C 0.56634 0.2247 0.3557 0.0
C653 C 0.55827 0.21079 0.32881 0.0
C654 C 0.57957 0.27552 0.44018 0.0
C655 C 0.57746 0.25593 0.46535 0.0
C656 C 0.56909 0.26655 0.4122 0.0
C657 C 0.55568 0.2382 0.40903 0.0
C658 C 0.55238 0.21921 0.43437 0.0
C659 C 0.56347 0.22784 0.46224 0.0
H660 H 0.1307 0.27745 0.58127 0.0
H661 H 0.04742 0.29914 0.53841 0.0
H662 H 0.10958 0.28798 0.62996 0.0
H663 H 0.02637 0.31119 0.58771 0.0
H664 H 0.05515 0.28643 0.71609 0.0
H665 H 0.06977 0.26811 0.66629 0.0
H666 H 0.03783 0.35388 0.62677 0.0
H667 H 0.02437 0.37248 0.67615 0.0
C668 C 0.10767 0.28391 0.58225 0.0
C669 C 0.09061 0.28688 0.5559 0.0
C670 C 0.09559 0.29002 0.61028 0.0
C671 C 0.06625 0.30009 0.61278 0.0
C672 C 0.04906 0.30329 0.58646 0.0
C673 C 0.06106 0.29645 0.55828 0.0
C674 C 0.051 0.30117 0.69671 0.0
C675 C 0.03839 0.3308 0.7001 0.0
C676 C 0.05934 0.29072 0.66823 0.0
C677 C 0.0547 0.30949 0.64256 0.0
C678 C 0.04123 0.33867 0.64596 0.0
C679 C 0.03352 0.34931 0.67435 0.0
H680 H 0.04254 0.80856 0.83536 0.0
H681 H 0.95187 0.83458 0.81736 0.0
H682 H 0.02886 0.78875 0.88481 0.0
H683 H 0.93862 0.81545 0.86673 0.0
H684 H 0.93631 0.82198 0.96896 0.0
H685 H 0.95602 0.83749 0.92068 0.0
H686 H 0.99116 0.74538 0.90758 0.0
H687 H 0.97098 0.72946 0.95584 0.0
C688 C 0.0197 0.80959 0.84171 0.0
C689 C 0.99831 0.82323 0.82248 0.0
C690 C 1.01195 0.79835 0.86997 0.0
C691 C 0.98283 0.80115 0.87958 0.0
C692 C 0.9613 0.81347 0.85988 0.0
C693 C 0.9689 0.82414 0.83152 0.0
C694 C 0.94885 0.80517 0.95621 0.0
C695 C 0.95196 0.77445 0.96611 0.0
C696 C 0.95987 0.81401 0.92848 0.0
C697 C 0.97468 0.79247 0.9104 0.0
C698 C 0.97972 0.76232 0.92117 0.0
C699 C 0.96821 0.75329 0.94873 0.0
H700 H 0.4981 0.65182 0.18095 0.0
H701 H 0.47977 0.74225 0.21663 0.0
H702 H 0.48812 0.67123 0.13044 0.0
H703 H 0.46781 0.76129 0.16562 0.0
H704 H 0.48794 0.73121 0.04055 0.0
H705 H 0.5081 0.71952 0.09107 0.0
H706 H 0.42263 0.73617 0.12889 0.0
H707 H 0.40231 0.74547 0.07908 0.0
C708 C 0.49261 0.67606 0.17799 0.0
C709 C 0.49034 0.69564 0.20285 0.0
C710 C 0.48684 0.68711 0.14897 0.0
C711 C 0.47768 0.71781 0.14409 0.0
C712 C 0.4753 0.73758 0.16882 0.0
C713 C 0.48197 0.72668 0.19795 0.0
C714 C 0.47361 0.7326 0.05972 0.0
C715 C 0.44362 0.73995 0.0558 0.0
C716 C 0.48512 0.72607 0.08855 0.0
C717 C 0.46696 0.72767 0.11388 0.0
C718 C 0.43724 0.73559 0.1099 0.0
C719 C 0.42566 0.74111 0.08126 0.0
H720 H 0.20518 0.32616 0.3027 0.0
H721 H 0.17015 0.41067 0.34026 0.0
H722 H 0.21494 0.35348 0.25567 0.0
H723 H 0.18064 0.43783 0.29398 0.0
H724 H 0.16451 0.46906 0.20022 0.0
H725 H 0.15788 0.43593 0.24366 0.0
H726 H 0.245 0.39642 0.23225 0.0
H727 H 0.2514 0.42985 0.18802 0.0
C728 C 0.19986 0.35058 0.30106 0.0
C729 C 0.1867 0.36617 0.32525 0.0
C730 C 0.20563 0.36621 0.27421 0.0
C731 C 0.19809 0.39766 0.27096 0.0
C732 C 0.18618 0.41344 0.29558 0.0
C733 C 0.18054 0.39793 0.32232 0.0
C734 C 0.18204 0.45285 0.20659 0.0
C735 C 0.20852 0.452 0.19092 0.0
C736 C 0.17836 0.43408 0.23164 0.0
C737 C 0.20118 0.41413 0.24185 0.0
C738 C 0.22706 0.41167 0.22497 0.0
C739 C 0.2307 0.43057 0.19962 0.0
H740 H 0.9236 0.94796 0.57722 0.0
H741 H 0.84705 0.90203 0.60887 0.0
H742 H 0.89576 0.96676 0.53318 0.0
H743 H 0.81944 0.92102 0.56541 0.0
H744 H 0.76876 0.98649 0.50493 0.0
H745 H 0.80012 0.97119 0.54714 0.0
H746 H 0.87039 0.94815 0.48643 0.0
H747 H 0.83876 0.96391 0.44382 0.0
C748 C 0.90094 0.94171 0.57474 0.0
C749 C 0.88747 0.9238 0.59686 0.0
C750 C 0.88502 0.95252 0.54953 0.0
C751 C 0.85529 0.94574 0.54601 0.0
C752 C 0.8421 0.92729 0.56779 0.0
C753 C 0.85795 0.91645 0.59279 0.0
C754 C 0.79097 0.97839 0.50054 0.0
C755 C 0.80122 0.97608 0.47108 0.0
C756 C 0.80891 0.96947 0.52473 0.0
C757 C 0.83759 0.95796 0.52012 0.0
C758 C 0.84839 0.95695 0.49069 0.0
C759 C 0.83031 0.9659 0.46633 0.0
H760 H 0.36438 0.55389 0.70521 0.0
H761 H 0.27815 0.59501 0.6907 0.0
H762 H 0.37212 0.5875 0.7474 0.0
H763 H 0.28588 0.62912 0.73374 0.0
H764 H 0.33211 0.70037 0.8003 0.0
H765 H 0.31953 0.67217 0.75486 0.0
H766 H 0.34855 0.58714 0.798 0.0
H767 H 0.36163 0.61504 0.84281 0.0
C768 C 0.34719 0.57054 0.71081 0.0
C769 C 0.32055 0.57168 0.69487 0.0
C770 C 0.35155 0.58963 0.73517 0.0
C771 C 0.32935 0.61039 0.74438 0.0
C772 C 0.30331 0.61317 0.72723 0.0
C773 C 0.29891 0.59383 0.70259 0.0
C774 C 0.33561 0.67561 0.8001 0.0
C775 C 0.34809 0.66001 0.8252 0.0
C776 C 0.3282 0.6595 0.77416 0.0
C777 C 0.33344 0.62753 0.77272 0.0
C778 C 0.34465 0.61185 0.79826 0.0
C779 C 0.35186 0.62784 0.82412 0.0
H780 H 0.61233 0.13683 0.0683 0.0
H781 H 0.62822 0.04739 0.10938 0.0
H782 H 0.63468 0.11846 0.02223 0.0
H783 H 0.65064 0.02896 0.06313 0.0
H784 H 0.67291 1.00051 0.96642 0.0
H785 H 0.64334 0.01688 1.00937 0.0
H786 H 0.68437 0.10504 1.0077 0.0
H787 H 0.7133 0.0891 0.96507 0.0
C788 C 0.62059 0.11323 0.06752 0.0
C789 C 0.61878 0.09374 0.09274 0.0
C790 C 0.63338 0.10266 0.04106 0.0
C791 C 0.64478 0.0723 0.03903 0.0
C792 C 0.64189 0.05239 0.0638 0.0
C793 C 0.62905 0.06299 0.09035 0.0
C794 C 0.67535 0.02348 0.97508 0.0
C795 C 0.69558 0.04341 0.96227 0.0
C796 C 0.65855 0.03279 0.9998 0.0
C797 C 0.6614 0.06233 1.01199 0.0
C798 C 0.68121 0.08233 0.9987 0.0
C799 C 0.69803 0.07303 0.97428 0.0
H800 H 0.67589 0.09713 0.67766 0.0
H801 H 0.6789 0.18603 0.71981 0.0
H802 H 0.69473 0.07269 0.72321 0.0
H803 H 0.69755 0.16112 0.76606 0.0
H804 H 0.69568 0.08939 0.85004 0.0
H805 H 0.68218 0.12334 0.80721 0.0
H806 H 0.74137 0.07072 0.75113 0.0
H807 H 0.75399 0.03683 0.79328 0.0
C808 C 0.68092 0.11158 0.69651 0.0
C809 C 0.67625 0.14366 0.69475 0.0
C810 C 0.69171 0.09751 0.72275 0.0
C811 C 0.69812 0.115 0.74816 0.0
C812 C 0.69284 0.14703 0.74685 0.0
C813 C 0.68211 0.16124 0.72037 0.0
C814 C 0.70639 0.08588 0.82874 0.0
C815 C 0.72564 0.06045 0.82473 0.0
C816 C 0.69862 0.10515 0.80422 0.0
C817 C 0.71015 0.09918 0.77558 0.0
C818 C 0.73148 0.07544 0.77263 0.0
C819 C 0.73892 0.05619 0.79683 0.0
H820 H 0.17591 0.51932 0.05207 0.0
H821 H 0.20955 0.42528 0.05739 0.0
H822 H 0.14895 0.50707 1.00629 0.0
H823 H 0.18255 0.41319 1.01229 0.0
H824 H 0.16036 0.40863 0.9146 0.0
H825 H 0.18603 0.42564 0.95908 0.0
H826 H 0.10806 0.47581 0.98716 0.0
H827 H 0.08252 0.45962 0.94188 0.0
C828 C 0.17735 0.49602 0.04372 0.0
C829 C 0.19514 0.47338 0.05832 0.0
C830 C 0.16188 0.48902 0.01752 0.0
C831 C 0.164 0.45928 1.00541 0.0
C832 C 0.18101 0.43651 0.0206 0.0
C833 C 0.19636 0.44344 0.04666 0.0
C834 C 0.14881 0.42383 0.92987 0.0
C835 C 0.11933 0.43267 0.92467 0.0
C836 C 0.16343 0.43325 0.9556 0.0
C837 C 0.14895 0.45171 0.97688 0.0
C838 C 0.11982 0.46161 0.97119 0.0
C839 C 0.10514 0.45212 0.94539 0.0
H840 H 0.75795 0.91927 0.31978 0.0
H841 H 0.84689 0.94533 0.33748 0.0
H842 H 0.77463 0.89065 0.2758 0.0
H843 H 0.86354 0.91632 0.29434 0.0
H844 H 0.87572 0.90453 0.19462 0.0
H845 H 0.85861 0.92588 0.24148 0.0
H846 H 0.80427 0.84746 0.25508 0.0
H847 H 0.82065 0.8265 0.20709 0.0
C848 C 0.78111 0.9183 0.31471 0.0
C849 C 0.80103 0.93498 0.33182 0.0
C850 C 0.79068 0.90188 0.28953 0.0
C851 C 0.82035 0.90175 0.28115 0.0
C852 C 0.84042 0.91666 0.29961 0.0
C853 C 0.83088 0.93316 0.3245 0.0
C854 C 0.85989 0.89191 0.20735 0.0
C855 C 0.84945 0.86387 0.19692 0.0
C856 C 0.85037 0.90395 0.23454 0.0
C857 C 0.83026 0.88825 0.25228 0.0
C858 C 0.8197 0.86018 0.24192 0.0
C859 C 0.82929 0.84805 0.21457 0.0
H860 H 0.31098 0.59589 0.55504 0.0
H861 H 0.3599 0.50915 0.56029 0.0
H862 H 0.33718 0.60962 0.51016 0.0
H863 H 0.38628 0.52317 0.51473 0.0
H864 H 0.44647 0.58146 0.4505 0.0
H865 H 0.42209 0.56207 0.49519 0.0
H866 H 0.33833 0.5919 0.45779 0.0
H867 H 0.36248 0.6109 0.41319 0.0
C868 C 0.3274 0.57969 0.54674 0.0
C869 C 0.33314 0.55126 0.56135 0.0
C870 C 0.3423 0.58754 0.52076 0.0
C871 C 0.36351 0.56732 0.50859 0.0
C872 C 0.37003 0.53924 0.52357 0.0
C873 C 0.35488 0.53121 0.54963 0.0
C874 C 0.42281 0.58335 0.45157 0.0
C875 C 0.40648 0.59815 0.42838 0.0
C876 C 0.40886 0.57228 0.47721 0.0
C877 C 0.37833 0.57588 0.48024 0.0
C878 C 0.36196 0.58939 0.45646 0.0
C879 C 0.37582 0.60032 0.43088 0.0
H880 H 0.24284 0.25639 0.47742 0.0
H881 H 0.18897 0.19525 0.42726 0.0
H882 H 0.28408 0.24446 0.44504 0.0
H883 H 0.23093 0.18197 0.39517 0.0
H884 H 0.31243 0.17468 0.33446 0.0
H885 H 0.26815 0.19552 0.3585 0.0
H886 H 0.31576 0.20059 0.44225 0.0
H887 H 0.35984 0.18121 0.41813 0.0
C888 C 0.23975 0.24072 0.45902 0.0
C889 C 0.21282 0.22665 0.45488 0.0
C890 C 0.26351 0.23356 0.44064 0.0
C891 C 0.26123 0.21153 0.41796 0.0
C892 C 0.23355 0.19903 0.41241 0.0
C893 C 0.20946 0.20665 0.43069 0.0
C894 C 0.31351 0.18075 0.35789 0.0
C895 C 0.3398 0.17616 0.37433 0.0
C896 C 0.28801 0.19239 0.37175 0.0
C897 C 0.28824 0.19995 0.40234 0.0
C898 C 0.31468 0.19563 0.41855 0.0
C899 C 0.34001 0.18405 0.40478 0.0
H900 H 0.06085 0.11037 0.63454 0.0
H901 H 0.12687 0.05463 0.59007 0.0
H902 H 0.04065 0.06392 0.65663 0.0
H903 H 0.10651 1.00828 0.61188 0.0
H904 H 0.09202 0.94729 0.69666 0.0
H905 H 0.10675 0.99011 0.66544 0.0
H906 H 1.01601 0.01291 0.64501 0.0
H907 H 1.00107 0.96948 0.67648 0.0
C908 C 0.07082 0.08817 0.62923 0.0
C909 C 0.0956 0.08616 0.61078 0.0
C910 C 0.05907 0.06159 0.64162 0.0
C911 C 0.07208 0.0325 0.63607 0.0
C912 C 0.09614 0.03042 0.61669 0.0
C913 C 0.10769 0.05694 0.60407 0.0
C914 C 0.07514 0.96118 0.68528 0.0
C915 C 0.04536 0.95512 0.68917 0.0
C916 C 0.08362 0.9856 0.6672 0.0
C917 C 0.06255 1.00487 0.65276 0.0
C918 C 0.03271 0.99847 0.656 0.0
C919 C 0.02418 0.97357 0.67383 0.0
H920 H 0.22229 0.84086 0.82516 0.0
H921 H 0.17374 0.83597 0.90754 0.0
H922 H 0.26636 0.82096 0.85147 0.0
H923 H 0.21759 0.81735 0.93385 0.0
H924 H 0.29031 0.76266 0.9731 0.0
H925 H 0.24966 0.77321 0.93862 0.0
H926 H 0.30243 0.8368 0.88933 0.0
H927 H 0.34381 0.82505 0.92364 0.0
C928 C 0.22094 0.8353 0.84879 0.0
C929 C 0.19444 0.84007 0.86424 0.0
C930 C 0.24627 0.8242 0.86392 0.0
C931 C 0.24559 0.81737 0.89477 0.0
C932 C 0.21894 0.8218 0.91 0.0
C933 C 0.19377 0.83289 0.89497 0.0
C934 C 0.29345 0.77831 0.95442 0.0
C935 C 0.32003 0.79324 0.9511 0.0
C936 C 0.27006 0.78461 0.93482 0.0
C937 C 0.27241 0.80654 0.91168 0.0
C938 C 0.29982 0.81981 0.90694 0.0
C939 C 0.32356 0.81309 0.92649 0.0
H940 H 0.52148 0.0526 0.1794 0.0
H941 H 0.43986 0.05266 0.22771 0.0
H942 H 0.50405 1.01075 0.1479 0.0
H943 H 0.42285 1.01143 0.19669 0.0
H944 H 0.38718 0.96108 0.11808 0.0
H945 H 0.40802 1.00459 0.14361 0.0
H946 H 0.49037 0.95394 0.1538 0.0
H947 H 0.46936 0.90993 0.1285 0.0
C948 C 0.4999 0.04384 0.18327 0.0
C949 C 0.48213 0.05606 0.20613 0.0
C950 C 0.48999 0.0198 0.16534 0.0
C951 C 0.46197 1.00795 0.16967 0.0
C952 C 0.44434 0.02032 0.19244 0.0
C953 C 0.45427 0.0439 0.21042 0.0
C954 C 0.40971 0.95907 0.12581 0.0
C955 C 0.42638 0.93171 0.12168 0.0
C956 C 0.42169 0.9841 0.14034 0.0
C957 C 0.45074 0.98259 0.15104 0.0
C958 C 0.46797 0.95586 0.14567 0.0
C959 C 0.4559 0.93065 0.13119 0.0
H960 H 0.85435 0.30955 0.63339 0.0
H961 H 0.8116 0.37362 0.69338 0.0
H962 H 0.80674 0.29067 0.61816 0.0
H963 H 0.76397 0.35436 0.67852 0.0
H964 H 0.69201 0.34773 0.60344 0.0
H965 H 0.73651 0.36 0.63043 0.0
H966 H 0.76172 0.26344 0.63482 0.0
H967 H 0.71682 0.25104 0.60754 0.0
C968 C 0.83478 0.31935 0.64355 0.0
C969 C 0.83668 0.34331 0.66432 0.0
C970 C 0.80755 0.30828 0.63511 0.0
C971 C 0.78161 0.32109 0.64709 0.0
C972 C 0.78359 0.34418 0.66877 0.0
C973 C 0.81085 0.35509 0.67739 0.0
C974 C 0.70676 0.32902 0.6106 0.0
C975 C 0.70106 0.29844 0.60315 0.0
C976 C 0.7322 0.33605 0.62627 0.0
C977 C 0.75271 0.31271 0.63461 0.0
C978 C 0.74638 0.28192 0.62844 0.0
C979 C 0.72062 0.27481 0.61303 0.0
H980 H 0.96397 0.41702 0.84185 0.0
H981 H 0.99156 0.49059 0.78406 0.0
H982 H 0.95347 0.45466 0.88154 0.0
H983 H 0.98135 0.52775 0.82312 0.0
H984 H 0.97647 0.58855 0.90291 0.0
H985 H 0.99549 0.54569 0.87299 0.0
H986 H 0.91565 0.49731 0.88753 0.0
H987 H 0.89691 0.53982 0.9179 0.0
C988 C 0.96828 0.44107 0.83786 0.0
C989 C 0.97833 0.45094 0.80982 0.0
C990 C 0.96213 0.46264 0.86044 0.0
C991 C 0.9665 0.4943 0.85551 0.0
C992 C 0.978 0.50364 0.82792 0.0
C993 C 0.98366 0.48231 0.8054 0.0
C994 C 0.96321 0.56852 0.90022 0.0
C995 C 0.93499 0.56786 0.91249 0.0
C996 C 0.97403 0.54401 0.88291 0.0
C997 C 0.95701 0.5181 0.87764 0.0
C998 C 0.92944 0.51675 0.89125 0.0
C999 C 0.91855 0.54133 0.90836 0.0
H1000 H 0.82296 0.66693 0.07211 0.0
H1001 H 0.80959 0.75965 0.10429 0.0
H1002 H 0.7787 0.65154 0.09704 0.0
H1003 H 0.76443 0.74433 0.12876 0.0
H1004 H 0.69485 0.69785 0.18737 0.0
H1005 H 0.74211 0.71337 0.16789 0.0
H1006 H 0.72756 0.65987 0.08844 0.0
H1007 H 0.68142 0.64322 0.10842 0.0
C1008 C 0.81058 0.68408 0.08459 0.0
C1009 C 0.81965 0.71463 0.08589 0.0
C1010 C 0.78503 0.67526 0.09876 0.0
C1011 C 0.7676 0.69681 0.11442 0.0
C1012 C 0.77734 0.72711 0.11694 0.0
C1013 C 0.80319 0.73592 0.10288 0.0
C1014 C 0.70192 0.68916 0.16589 0.0
C1015 C 0.68424 0.66924 0.1495 0.0
C1016 C 0.72888 0.69834 0.15458 0.0
C1017 C 0.7388 0.68773 0.12667 0.0
C1018 C 0.72094 0.66809 0.11025 0.0
C1019 C 0.69416 0.65888 0.12154 0.0
H1020 H 0.58008 0.48816 0.45533 0.0
H1021 H 0.59483 0.43026 0.37855 0.0
H1022 H 0.56169 0.52984 0.4222 0.0
H1023 H 0.57766 0.47193 0.34563 0.0
H1024 H 0.52289 0.53762 0.29299 0.0
H1025 H 0.53311 0.49918 0.33187 0.0
H1026 H 0.57869 0.56647 0.38364 0.0
H1027 H 0.56734 0.60558 0.34463 0.0
C1028 C 0.57924 0.48425 0.43143 0.0
C1029 C 0.58892 0.4558 0.4196 0.0
C1030 C 0.56899 0.50825 0.41245 0.0
C1031 C 0.56799 0.50424 0.38125 0.0
C1032 C 0.5776 0.47574 0.36956 0.0
C1033 C 0.58783 0.45189 0.38844 0.0
C1034 C 0.53464 0.54437 0.31295 0.0
C1035 C 0.5447 0.57437 0.31569 0.0
C1036 C 0.5407 0.52227 0.33514 0.0
C1037 C 0.55747 0.52944 0.36051 0.0
C1038 C 0.56579 0.56015 0.36433 0.0
C1039 C 0.55932 0.58255 0.34207 0.0
H1040 H 0.36358 0.33342 0.22548 0.0
H1041 H 0.35085 0.28004 0.14562 0.0
H1042 H 0.39137 0.29027 0.24826 0.0
H1043 H 0.3796 0.23738 0.16796 0.0
H1044 H 0.42662 0.15955 0.21875 0.0
H1045 H 0.38616 0.19684 0.20736 0.0
H1046 H 0.44021 0.27073 0.23687 0.0
H1047 H 0.47985 0.23394 0.24806 0.0
C1048 C 0.36627 0.31234 0.21294 0.0
C1049 C 0.35539 0.31046 0.18349 0.0
C1050 C 0.38238 0.28764 0.22594 0.0
C1051 C 0.38803 0.26045 0.20982 0.0
C1052 C 0.37557 0.25786 0.1811 0.0
C1053 C 0.35946 0.28255 0.16811 0.0
C1054 C 0.42937 0.1837 0.2234 0.0
C1055 C 0.45636 0.19399 0.23394 0.0
C1056 C 0.40639 0.20506 0.21673 0.0
C1057 C 0.40998 0.23685 0.22106 0.0
C1058 C 0.43643 0.24653 0.23353 0.0
C1059 C 0.4593 0.22542 0.23973 0.0
H1060 H 0.91607 0.31712 0.75303 0.0
H1061 H 0.97765 0.2952 0.82476 0.0
H1062 H 0.88733 0.27269 0.76771 0.0
H1063 H 0.94911 0.25156 0.83929 0.0
H1064 H 0.91139 0.15743 0.8397 0.0
H1065 H 0.93781 0.20093 0.82011 0.0
H1066 H 0.85635 0.25319 0.80958 0.0
H1067 H 0.82977 0.20956 0.82948 0.0
C1068 C 0.92345 0.30299 0.77192 0.0
C1069 C 0.9493 0.30981 0.78759 0.0
C1070 C 0.90693 0.27757 0.78038 0.0
C1071 C 0.91607 0.25829 0.80449 0.0
C1072 C 0.94169 0.26545 0.82025 0.0
C1073 C 0.95799 0.29077 0.81199 0.0
C1074 C 0.89903 0.17816 0.83327 0.0
C1075 C 0.86842 0.18 0.8366 0.0
C1076 C 0.91421 0.20316 0.82199 0.0
C1077 C 0.89928 0.23078 0.81362 0.0
C1078 C 0.86854 0.23224 0.81565 0.0
C1079 C 0.8533 0.20717 0.82705 0.0
H1080 H 0.06843 0.61525 0.14133 0.0
H1081 H 0.09948 0.61752 0.05033 0.0
H1082 H 0.02044 0.63524 0.12426 0.0
H1083 H 0.05149 0.63697 0.03317 0.0
H1084 H 0.98675 0.72172 0.02956 0.0
H1085 H 0.02846 0.68703 0.03909 0.0
H1086 H 0.97472 0.62983 0.09449 0.0
H1087 H 0.93246 0.66529 0.08469 0.0
C1088 C 0.0648 0.61938 0.1176 0.0
C1089 C 0.08792 0.6154 0.09726 0.0
C1090 C 0.03723 0.63066 0.10777 0.0
C1091 C 0.03216 0.63804 0.07736 0.0
C1092 C 0.05479 0.6321 0.05682 0.0
C1093 C 0.08232 0.62105 0.06666 0.0
C1094 C 0.98362 0.70123 0.04306 0.0
C1095 C 0.95651 0.69611 0.05641 0.0
C1096 C 1.00753 0.68122 0.04848 0.0
C1097 C 1.00508 0.65567 0.06774 0.0
C1098 C 0.97737 0.64947 0.07975 0.0
C1099 C 0.95313 0.66947 0.07391 0.0
H1100 H 0.68129 0.84021 0.30273 0.0
H1101 H 0.606 0.85713 0.35888 0.0
H1102 H 0.66031 0.79207 0.28606 0.0
H1103 H 0.58468 0.81024 0.34126 0.0
H1104 H 0.56955 0.71003 0.33611 0.0
H1105 H 0.59492 0.75611 0.3495 0.0
H1106 H 0.61947 0.76935 0.25716 0.0
H1107 H 0.59426 0.72226 0.2437 0.0
C1108 C 0.66022 0.83386 0.31136 0.0
C1109 C 0.64545 0.85264 0.3323 0.0
C1110 C 0.64809 0.80639 0.30158 0.0
C1111 C 0.621 0.79704 0.31263 0.0
C1112 C 0.60587 0.81637 0.33273 0.0
C1113 C 0.61793 0.84364 0.3425 0.0
C1114 C 0.58056 0.72252 0.3186 0.0
C1115 C 0.57953 0.71267 0.28874 0.0
C1116 C 0.59496 0.74914 0.32628 0.0
C1117 C 0.60861 0.76693 0.30431 0.0
C1118 C 0.60908 0.75623 0.27462 0.0
C1119 C 0.59469 0.72926 0.2669 0.0
H1120 H 0.53052 0.29134 0.56374 0.0
H1121 H 0.59922 0.35264 0.58836 0.0
H1122 H 0.49389 0.32803 0.58218 0.0
H1123 H 0.56175 0.38992 0.60694 0.0
H1124 H 0.45206 0.43661 0.5882 0.0
H1125 H 0.49878 0.41314 0.57225 0.0
H1126 H 0.49883 0.35218 0.64899 0.0
H1127 H 0.45246 0.37576 0.66539 0.0
C1128 C 0.53779 0.31284 0.57287 0.0
C1129 C 0.56771 0.31902 0.575 0.0
C1130 C 0.51679 0.33377 0.58334 0.0
C1131 C 0.5252 0.36142 0.59609 0.0
C1132 C 0.55498 0.36856 0.59715 0.0
C1133 C 0.57625 0.34738 0.58655 0.0
C1134 C 0.46256 0.41899 0.60228 0.0
C1135 C 0.4484 0.40772 0.62786 0.0
C1136 C 0.4893 0.40571 0.59316 0.0
C1137 C 0.50227 0.38118 0.60961 0.0
C1138 C 0.48925 0.37137 0.63623 0.0
C1139 C 0.4626 0.38459 0.64536 0.0
H1140 H 0.18858 0.74053 0.65671 0.0
H1141 H 0.15804 0.6768 0.72355 0.0
H1142 H 0.15741 0.78123 0.67757 0.0
H1143 H 0.12806 0.71795 0.74541 0.0
H1144 H 0.0427 0.77684 0.73226 0.0
H1145 H 0.08333 0.7406 0.72553 0.0
H1146 H 0.14248 0.81595 0.71782 0.0
H1147 H 0.10101 0.85269 0.72409 0.0
C1148 C 0.17564 0.73536 0.67624 0.0
C1149 C 0.1752 0.70519 0.68796 0.0
C1150 C 0.1581 0.75885 0.68849 0.0
C1151 C 0.13983 0.75272 0.71285 0.0
C1152 C 0.14145 0.72325 0.72625 0.0
C1153 C 0.15886 0.6997 0.71388 0.0
C1154 C 0.0644 0.78575 0.72944 0.0
C1155 C 0.06867 0.81755 0.72823 0.0
C1156 C 0.08783 0.76491 0.72595 0.0
C1157 C 0.11624 0.7753 0.72116 0.0
C1158 C 0.1208 0.80723 0.72123 0.0
C1159 C 0.09716 0.82823 0.72486 0.0
H1160 H 0.46654 0.84517 0.02058 0.0
H1161 H 0.45168 0.82721 0.92682 0.0
H1162 H 0.51052 0.87329 1.00766 0.0
H1163 H 0.49533 0.85486 0.91405 0.0
H1164 H 0.56397 0.92453 0.89626 0.0
H1165 H 0.51697 0.90565 0.91289 0.0
H1166 H 0.56004 0.85928 0.98789 0.0
H1167 H 0.607 0.87874 0.97163 0.0
C1168 C 0.47233 0.84765 0.99723 0.0
C1169 C 0.4556 0.83385 0.97477 0.0
C1170 C 0.49768 0.86352 0.98984 0.0
C1171 C 0.50656 0.86629 0.9598 0.0
C1172 C 0.48907 0.85352 0.93736 0.0
C1173 C 0.46406 0.83746 0.94474 0.0
C1174 C 0.56338 0.91076 0.91659 0.0
C1175 C 0.58936 0.90301 0.93246 0.0
C1176 C 0.53644 0.89971 0.926 0.0
C1177 C 0.53469 0.88077 0.95166 0.0
C1178 C 0.5605 0.87397 0.96818 0.0
C1179 C 0.58749 0.88485 0.95864 0.0
H1180 H 0.94137 0.10458 0.47338 0.0
H1181 H 0.96051 0.12797 0.38147 0.0
H1182 H 0.9842 0.13225 0.48993 0.0
H1183 H 1.00406 0.15376 0.39777 0.0
H1184 H 0.06055 0.22673 0.43578 0.0
H1185 H 0.0178 0.19884 0.42153 0.0
H1186 H 0.03698 0.1316 0.49154 0.0
H1187 H 0.07977 0.16057 0.50672 0.0
C1188 C 0.9546 0.11567 0.45667 0.0
C1189 C 0.94727 0.11404 0.42602 0.0
C1190 C 0.97949 0.13114 0.46617 0.0
C1191 C 0.99774 0.14536 0.44527 0.0
C1192 C 0.9904 0.14357 0.41465 0.0
C1193 C 0.9655 0.12835 0.40521 0.0
C1194 C 0.05591 0.20592 0.44818 0.0
C1195 C 0.07388 0.19583 0.47232 0.0
C1196 C 0.0313 0.18974 0.43982 0.0
C1197 C 0.02392 0.16266 0.45508 0.0
C1198 C 0.04179 0.1525 0.47939 0.0
C1199 C 0.06646 0.16897 0.48798 0.0
loop_
_geom_bond_atom_site_label_1
_geom_bond_atom_site_label_2
_geom_bond_distance
_geom_bond_site_symmetry_2
_ccdc_geom_bond_type
Gd0 C3 2.818 . S
Gd0 O20 2.377 . S
Gd0 O22 2.448 . S
Gd0 O23 2.506 . S
Gd0 O24 2.435 . S
Gd0 O25 2.717 . S
Gd0 O27 2.395 . S
Gd0 O31 2.327 . S
Gd1 C12 2.818 . S
Gd1 O21 2.395 . S
Gd1 O25 2.327 . S
Gd1 O26 2.377 . S
Gd1 O28 2.448 . S
Gd1 O29 2.506 . S
Gd1 O30 2.435 . S
Gd1 O31 2.717 . S
C2 O20 1.240 . S
C2 O21 1.240 . S
C3 Gd0 2.818 . S
C3 C4 1.510 . S
C3 O22 1.249 . S
C3 O23 1.252 . S
C4 C3 1.510 . S
C4 C5 1.404 . S
C4 C6 1.352 . S
C5 C4 1.404 . S
C5 C9 1.389 . S
C5 H32 0.930 . S
C6 C4 1.352 . S
C6 C8 1.374 . S
C6 H33 0.931 . S
C7 C8 1.359 . S
C7 C9 1.364 . S
C8 C6 1.374 . S
C8 C7 1.359 . S
C8 H34 0.931 . S
C9 C5 1.389 . S
C9 C7 1.364 . S
C9 H35 0.931 . S
C10 O24 1.256 . S
C10 O25 1.257 . S
C11 O26 1.240 . S
C11 O27 1.240 . S
C12 Gd1 2.818 . S
C12 C13 1.510 . S
C12 O28 1.249 . S
C12 O29 1.252 . S
C13 C12 1.510 . S
C13 C14 1.404 . S
C13 C15 1.352 . S
C14 C13 1.404 . S
C14 C18 1.389 . S
C14 H36 0.930 . S
C15 C13 1.352 . S
C15 C17 1.374 . S
C15 H37 0.931 . S
C16 C17 1.359 . S
C16 C18 1.364 . S
C17 C15 1.374 . S
C17 C16 1.359 . S
C17 H38 0.931 . S
C18 C14 1.389 . S
C18 C16 1.364 . S
C18 H39 0.931 . S
C19 O30 1.256 . S
C19 O31 1.257 . S
O20 Gd0 2.377 . S
O20 C2 1.240 . S
O21 Gd1 2.395 . S
O21 C2 1.240 . S
O22 Gd0 2.448 . S
O22 C3 1.249 . S
O23 Gd0 2.506 . S
O23 C3 1.252 . S
O24 Gd0 2.435 . S
O24 C10 1.256 . S
O25 Gd0 2.717 . S
O25 Gd1 2.327 . S
O25 C10 1.257 . S
O26 Gd1 2.377 . S
O26 C11 1.240 . S
O27 Gd0 2.395 . S
O27 C11 1.240 . S
O28 Gd1 2.448 . S
O28 C12 1.249 . S
O29 Gd1 2.506 . S
O29 C12 1.252 . S
O30 Gd1 2.435 . S
O30 C19 1.256 . S
O31 Gd0 2.327 . S
O31 Gd1 2.717 . S
O31 C19 1.257 . S
H32 C5 0.930 . S
H33 C6 0.931 . S
H34 C8 0.931 . S
H35 C9 0.931 . S
H36 C14 0.930 . S
H37 C15 0.931 . S
H38 C17 0.931 . S
H39 C18 0.931 . S
Gd40 C43 2.818 . S
Gd40 O60 2.377 1_655 S
Gd40 O62 2.448 . S
Gd40 O63 2.506 . S
Gd40 O64 2.435 1_655 S
Gd40 O65 2.717 1_655 S
Gd40 O67 2.395 . S
Gd40 O71 2.327 . S
Gd41 C52 2.818 . S
Gd41 O61 2.395 . S
Gd41 O65 2.327 . S
Gd41 O66 2.377 . S
Gd41 O68 2.448 . S
Gd41 O69 2.506 . S
Gd41 O70 2.435 1_455 S
Gd41 O71 2.717 1_455 S
C42 O60 1.240 . S
C42 O61 1.240 . S
C43 Gd40 2.818 . S
C43 C44 1.510 . S
C43 O62 1.249 . S
C43 O63 1.252 . S
C44 C43 1.510 . S
C44 C45 1.404 . S
C44 C46 1.352 . S
C45 C44 1.404 . S
C45 C49 1.389 . S
C45 H72 0.930 . S
C46 C44 1.352 . S
C46 C48 1.374 . S
C46 H73 0.931 . S
C47 C48 1.359 . S
C47 C49 1.364 . S
C48 C46 1.374 . S
C48 C47 1.359 . S
C48 H74 0.931 . S
C49 C45 1.389 . S
C49 C47 1.364 . S
C49 H75 0.931 . S
C50 O64 1.256 . S
C50 O65 1.257 . S
C51 O66 1.240 1_655 S
C51 O67 1.240 . S
C52 Gd41 2.818 . S
C52 C53 1.510 . S
C52 O68 1.249 . S
C52 O69 1.252 . S
C53 C52 1.510 . S
C53 C54 1.404 . S
C53 C55 1.352 . S
C54 C53 1.404 . S
C54 C58 1.389 . S
C54 H76 0.930 . S
C55 C53 1.352 . S
C55 C57 1.374 . S
C55 H77 0.931 . S
C56 C57 1.359 . S
C56 C58 1.364 . S
C57 C55 1.374 . S
C57 C56 1.359 . S
C57 H78 0.931 . S
C58 C54 1.389 . S
C58 C56 1.364 . S
C58 H79 0.931 . S
C59 O70 1.256 . S
C59 O71 1.257 . S
O60 Gd40 2.377 1_455 S
O60 C42 1.240 . S
O61 Gd41 2.395 . S
O61 C42 1.240 . S
O62 Gd40 2.448 . S
O62 C43 1.249 . S
O63 Gd40 2.506 . S
O63 C43 1.252 . S
O64 Gd40 2.435 1_455 S
O64 C50 1.256 . S
O65 Gd40 2.717 1_455 S
O65 Gd41 2.327 . S
O65 C50 1.257 . S
O66 Gd41 2.377 . S
O66 C51 1.240 1_455 S
O67 Gd40 2.395 . S
O67 C51 1.240 . S
O68 Gd41 2.448 . S
O68 C52 1.249 . S
O69 Gd41 2.506 . S
O69 C52 1.252 . S
O70 Gd41 2.435 1_655 S
O70 C59 1.256 . S
O71 Gd40 2.327 . S
O71 Gd41 2.717 1_655 S
O71 C59 1.257 . S
H72 C45 0.930 . S
H73 C46 0.931 . S
H74 C48 0.931 . S
H75 C49 0.931 . S
H76 C54 0.930 . S
H77 C55 0.931 . S
H78 C57 0.931 . S
H79 C58 0.931 . S
Gd80 C83 2.818 . S
Gd80 O100 2.377 1_554 S
Gd80 O102 2.448 . S
Gd80 O103 2.506 . S
Gd80 O104 2.435 1_554 S
Gd80 O105 2.717 1_554 S
Gd80 O107 2.395 . S
Gd80 O111 2.327 . S
Gd81 C92 2.818 . S
Gd81 O101 2.395 . S
Gd81 O105 2.327 . S
Gd81 O106 2.377 . S
Gd81 O108 2.448 . S
Gd81 O109 2.506 . S
Gd81 O110 2.435 . S
Gd81 O111 2.717 1_556 S
C82 O100 1.240 . S
C82 O101 1.240 . S
C83 Gd80 2.818 . S
C83 C84 1.510 . S
C83 O102 1.249 . S
C83 O103 1.252 . S
C84 C83 1.510 . S
C84 C85 1.404 . S
C84 C86 1.352 . S
C85 C84 1.404 . S
C85 C89 1.389 . S
C85 H112 0.930 . S
C86 C84 1.352 . S
C86 C88 1.374 . S
C86 H113 0.931 . S
C87 C88 1.359 . S
C87 C89 1.364 . S
C88 C86 1.374 . S
C88 C87 1.359 . S
C88 H114 0.931 . S
C89 C85 1.389 . S
C89 C87 1.364 . S
C89 H115 0.931 . S
C90 O104 1.256 . S
C90 O105 1.257 . S
C91 O106 1.240 1_554 S
C91 O107 1.240 . S
C92 Gd81 2.818 . S
C92 C93 1.510 . S
C92 O108 1.249 . S
C92 O109 1.252 . S
C93 C92 1.510 . S
C93 C94 1.404 . S
C93 C95 1.352 . S
C94 C93 1.404 . S
C94 C98 1.389 . S
C94 H116 0.930 . S
C95 C93 1.352 . S
C95 C97 1.374 . S
C95 H117 0.931 . S
C96 C97 1.359 . S
C96 C98 1.364 . S
C97 C95 1.374 . S
C97 C96 1.359 . S
C97 H118 0.931 . S
C98 C94 1.389 . S
C98 C96 1.364 . S
C98 H119 0.931 . S
C99 O110 1.256 1_554 S
C99 O111 1.257 . S
O100 Gd80 2.377 1_556 S
O100 C82 1.240 . S
O101 Gd81 2.395 . S
O101 C82 1.240 . S
O102 Gd80 2.448 . S
O102 C83 1.249 . S
O103 Gd80 2.506 . S
O103 C83 1.252 . S
O104 Gd80 2.435 1_556 S
O104 C90 1.256 . S
O105 Gd80 2.717 1_556 S
O105 Gd81 2.327 . S
O105 C90 1.257 . S
O106 Gd81 2.377 . S
O106 C91 1.240 1_556 S
O107 Gd80 2.395 . S
O107 C91 1.240 . S
O108 Gd81 2.448 . S
O108 C92 1.249 . S
O109 Gd81 2.506 . S
O109 C92 1.252 . S
O110 Gd81 2.435 . S
O110 C99 1.256 1_556 S
O111 Gd80 2.327 . S
O111 Gd81 2.717 1_554 S
O111 C99 1.257 . S
H112 C85 0.930 . S
H113 C86 0.931 . S
H114 C88 0.931 . S
H115 C89 0.931 . S
H116 C94 0.930 . S
H117 C95 0.931 . S
H118 C97 0.931 . S
H119 C98 0.931 . S
Gd120 C123 2.818 . S
Gd120 O140 2.377 . S
Gd120 O142 2.448 . S
Gd120 O143 2.506 . S
Gd120 O144 2.435 . S
Gd120 O145 2.717 . S
Gd120 O147 2.395 . S
Gd120 O151 2.327 . S
Gd121 C132 2.818 . S
Gd121 O141 2.395 . S
Gd121 O145 2.327 . S
Gd121 O146 2.377 . S
Gd121 O148 2.448 . S
Gd121 O149 2.506 . S
Gd121 O150 2.435 . S
Gd121 O151 2.717 . S
C122 O140 1.240 . S
C122 O141 1.240 . S
C123 Gd120 2.818 . S
C123 C124 1.510 . S
C123 O142 1.249 . S
C123 O143 1.252 . S
C124 C123 1.510 . S
C124 C125 1.404 . S
C124 C126 1.352 . S
C125 C124 1.404 . S
C125 C129 1.389 . S
C125 H152 0.930 . S
C126 C124 1.352 . S
C126 C128 1.374 . S
C126 H153 0.931 . S
C127 C128 1.359 . S
C127 C129 1.364 . S
C128 C126 1.374 . S
C128 C127 1.359 . S
C128 H154 0.931 . S
C129 C125 1.389 . S
C129 C127 1.364 . S
C129 H155 0.931 . S
C130 O144 1.256 . S
C130 O145 1.257 . S
C131 O146 1.240 . S
C131 O147 1.240 . S
C132 Gd121 2.818 . S
C132 C133 1.510 . S
C132 O148 1.249 . S
C132 O149 1.252 . S
C133 C132 1.510 . S
C133 C134 1.404 . S
C133 C135 1.352 . S
C134 C133 1.404 . S
C134 C138 1.389 . S
C134 H156 0.930 . S
C135 C133 1.352 . S
C135 C137 1.374 . S
C135 H157 0.931 . S
C136 C137 1.359 . S
C136 C138 1.364 . S
C137 C135 1.374 . S
C137 C136 1.359 . S
C137 H158 0.931 . S
C138 C134 1.389 . S
C138 C136 1.364 . S
C138 H159 0.931 . S
C139 O150 1.256 . S
C139 O151 1.257 . S
O140 Gd120 2.377 . S
O140 C122 1.240 . S
O141 Gd121 2.395 . S
O141 C122 1.240 . S
O142 Gd120 2.448 . S
O142 C123 1.249 . S
O143 Gd120 2.506 . S
O143 C123 1.252 . S
O144 Gd120 2.435 . S
O144 C130 1.256 . S
O145 Gd120 2.717 . S
O145 Gd121 2.327 . S
O145 C130 1.257 . S
O146 Gd121 2.377 . S
O146 C131 1.240 . S
O147 Gd120 2.395 . S
O147 C131 1.240 . S
O148 Gd121 2.448 . S
O148 C132 1.249 . S
O149 Gd121 2.506 . S
O149 C132 1.252 . S
O150 Gd121 2.435 . S
O150 C139 1.256 . S
O151 Gd120 2.327 . S
O151 Gd121 2.717 . S
O151 C139 1.257 . S
H152 C125 0.930 . S
H153 C126 0.931 . S
H154 C128 0.931 . S
H155 C129 0.931 . S
H156 C134 0.930 . S
H157 C135 0.931 . S
H158 C137 0.931 . S
H159 C138 0.931 . S
Gd160 C163 2.818 . S
Gd160 O180 2.377 . S
Gd160 O182 2.448 . S
Gd160 O183 2.506 . S
Gd160 O184 2.435 . S
Gd160 O185 2.717 . S
Gd160 O187 2.395 . S
Gd160 O191 2.327 . S
Gd161 C172 2.818 . S
Gd161 O181 2.395 . S
Gd161 O185 2.327 . S
Gd161 O186 2.377 . S
Gd161 O188 2.448 . S
Gd161 O189 2.506 . S
Gd161 O190 2.435 . S
Gd161 O191 2.717 . S
C162 O180 1.240 . S
C162 O181 1.240 . S
C163 Gd160 2.818 . S
C163 C164 1.510 . S
C163 O182 1.249 . S
C163 O183 1.252 . S
C164 C163 1.510 . S
C164 C165 1.404 . S
C164 C166 1.352 . S
C165 C164 1.404 . S
C165 C169 1.389 . S
C165 H192 0.930 . S
C166 C164 1.352 . S
C166 C168 1.374 . S
C166 H193 0.931 . S
C167 C168 1.359 . S
C167 C169 1.364 . S
C168 C166 1.374 . S
C168 C167 1.359 . S
C168 H194 0.931 . S
C169 C165 1.389 . S
C169 C167 1.364 . S
C169 H195 0.931 . S
C170 O184 1.256 . S
C170 O185 1.257 . S
C171 O186 1.240 . S
C171 O187 1.240 . S
C172 Gd161 2.818 . S
C172 C173 1.510 . S
C172 O188 1.249 . S
C172 O189 1.252 . S
C173 C172 1.510 . S
C173 C174 1.404 . S
C173 C175 1.352 . S
C174 C173 1.404 . S
C174 C178 1.389 . S
C174 H196 0.930 . S
C175 C173 1.352 . S
C175 C177 1.374 . S
C175 H197 0.931 . S
C176 C177 1.359 . S
C176 C178 1.364 . S
C177 C175 1.374 . S
C177 C176 1.359 . S
C177 H198 0.931 . S
C178 C174 1.389 . S
C178 C176 1.364 . S
C178 H199 0.931 . S
C179 O190 1.256 . S
C179 O191 1.257 . S
O180 Gd160 2.377 . S
O180 C162 1.240 . S
O181 Gd161 2.395 . S
O181 C162 1.240 . S
O182 Gd160 2.448 . S
O182 C163 1.249 . S
O183 Gd160 2.506 . S
O183 C163 1.252 . S
O184 Gd160 2.435 . S
O184 C170 1.256 . S
O185 Gd160 2.717 . S
O185 Gd161 2.327 . S
O185 C170 1.257 . S
O186 Gd161 2.377 . S
O186 C171 1.240 . S
O187 Gd160 2.395 . S
O187 C171 1.240 . S
O188 Gd161 2.448 . S
O188 C172 1.249 . S
O189 Gd161 2.506 . S
O189 C172 1.252 . S
O190 Gd161 2.435 . S
O190 C179 1.256 . S
O191 Gd160 2.327 . S
O191 Gd161 2.717 . S
O191 C179 1.257 . S
H192 C165 0.930 . S
H193 C166 0.931 . S
H194 C168 0.931 . S
H195 C169 0.931 . S
H196 C174 0.930 . S
H197 C175 0.931 . S
H198 C177 0.931 . S
H199 C178 0.931 . S
Gd200 C203 2.818 . S
Gd200 O220 2.377 . S
Gd200 O222 2.448 . S
Gd200 O223 2.506 . S
Gd200 O224 2.435 . S
Gd200 O225 2.717 . S
Gd200 O227 2.395 1_655 S
Gd200 O231 2.327 . S
Gd201 C212 2.818 . S
Gd201 O221 2.395 1_455 S
Gd201 O225 2.327 1_455 S
Gd201 O226 2.377 . S
Gd201 O228 2.448 . S
Gd201 O229 2.506 . S
Gd201 O230 2.435 . S
Gd201 O231 2.717 1_455 S
C202 O220 1.240 . S
C202 O221 1.240 . S
C203 Gd200 2.818 . S
C203 C204 1.510 . S
C203 O222 1.249 . S
C203 O223 1.252 . S
C204 C203 1.510 . S
C204 C205 1.404 . S
C204 C206 1.352 . S
C205 C204 1.404 . S
C205 C209 1.389 . S
C205 H232 0.930 . S
C206 C204 1.352 . S
C206 C208 1.374 . S
C206 H233 0.931 . S
C207 C208 1.359 . S
C207 C209 1.364 . S
C208 C206 1.374 . S
C208 C207 1.359 . S
C208 H234 0.931 . S
C209 C205 1.389 . S
C209 C207 1.364 . S
C209 H235 0.931 . S
C210 O224 1.256 . S
C210 O225 1.257 . S
C211 O226 1.240 . S
C211 O227 1.240 . S
C212 Gd201 2.818 . S
C212 C213 1.510 . S
C212 O228 1.249 . S
C212 O229 1.252 . S
C213 C212 1.510 . S
C213 C214 1.404 . S
C213 C215 1.352 . S
C214 C213 1.404 . S
C214 C218 1.389 . S
C214 H236 0.930 . S
C215 C213 1.352 . S
C215 C217 1.374 . S
C215 H237 0.931 . S
C216 C217 1.359 . S
C216 C218 1.364 . S
C217 C215 1.374 . S
C217 C216 1.359 . S
C217 H238 0.931 . S
C218 C214 1.389 . S
C218 C216 1.364 . S
C218 H239 0.931 . S
C219 O230 1.256 . S
C219 O231 1.257 1_455 S
O220 Gd200 2.377 . S
O220 C202 1.240 . S
O221 Gd201 2.395 1_655 S
O221 C202 1.240 . S
O222 Gd200 2.448 . S
O222 C203 1.249 . S
O223 Gd200 2.506 . S
O223 C203 1.252 . S
O224 Gd200 2.435 . S
O224 C210 1.256 . S
O225 Gd200 2.717 . S
O225 Gd201 2.327 1_655 S
O225 C210 1.257 . S
O226 Gd201 2.377 . S
O226 C211 1.240 . S
O227 Gd200 2.395 1_455 S
O227 C211 1.240 . S
O228 Gd201 2.448 . S
O228 C212 1.249 . S
O229 Gd201 2.506 . S
O229 C212 1.252 . S
O230 Gd201 2.435 . S
O230 C219 1.256 . S
O231 Gd200 2.327 . S
O231 Gd201 2.717 1_655 S
O231 C219 1.257 1_655 S
H232 C205 0.930 . S
H233 C206 0.931 . S
H234 C208 0.931 . S
H235 C209 0.931 . S
H236 C214 0.930 . S
H237 C215 0.931 . S
H238 C217 0.931 . S
H239 C218 0.931 . S
Gd240 C243 2.818 . S
Gd240 O260 2.377 . S
Gd240 O262 2.448 . S
Gd240 O263 2.506 . S
Gd240 O264 2.435 . S
Gd240 O265 2.717 . S
Gd240 O267 2.395 1_554 S
Gd240 O271 2.323 1_554 S
Gd241 C252 2.818 . S
Gd241 O261 2.395 1_556 S
Gd241 O265 2.327 1_556 S
Gd241 O266 2.377 . S
Gd241 O268 2.448 . S
Gd241 O269 2.506 . S
Gd241 O270 2.435 . S
Gd241 O271 2.720 . S
C242 O260 1.240 . S
C242 O261 1.240 . S
C243 Gd240 2.818 . S
C243 C244 1.510 . S
C243 O262 1.249 . S
C243 O263 1.252 . S
C244 C243 1.510 . S
C244 C245 1.404 . S
C244 C246 1.352 . S
C245 C244 1.404 . S
C245 C249 1.389 . S
C245 H272 0.930 . S
C246 C244 1.352 . S
C246 C248 1.374 . S
C246 H273 0.931 . S
C247 C248 1.359 . S
C247 C249 1.364 . S
C248 C246 1.374 . S
C248 C247 1.359 . S
C248 H274 0.931 . S
C249 C245 1.389 . S
C249 C247 1.364 . S
C249 H275 0.931 . S
C250 O264 1.256 . S
C250 O265 1.257 . S
C251 O266 1.240 . S
C251 O267 1.240 . S
C252 Gd241 2.818 . S
C252 C253 1.510 . S
C252 O268 1.249 . S
C252 O269 1.252 . S
C253 C252 1.510 . S
C253 C254 1.404 . S
C253 C255 1.352 . S
C254 C253 1.404 . S
C254 C258 1.389 . S
C254 H276 0.930 . S
C255 C253 1.352 . S
C255 C257 1.374 . S
C255 H277 0.931 . S
C256 C257 1.359 . S
C256 C258 1.364 . S
C257 C255 1.374 . S
C257 C256 1.359 . S
C257 H278 0.931 . S
C258 C254 1.389 . S
C258 C256 1.364 . S
C258 H279 0.931 . S
C259 O270 1.256 . S
C259 O271 1.262 . S
O260 Gd240 2.377 . S
O260 C242 1.240 . S
O261 Gd241 2.395 1_554 S
O261 C242 1.240 . S
O262 Gd240 2.448 . S
O262 C243 1.249 . S
O263 Gd240 2.506 . S
O263 C243 1.252 . S
O264 Gd240 2.435 . S
O264 C250 1.256 . S
O265 Gd240 2.717 . S
O265 Gd241 2.327 1_554 S
O265 C250 1.257 . S
O266 Gd241 2.377 . S
O266 C251 1.240 . S
O267 Gd240 2.395 1_556 S
O267 C251 1.240 . S
O268 Gd241 2.448 . S
O268 C252 1.249 . S
O269 Gd241 2.506 . S
O269 C252 1.252 . S
O270 Gd241 2.435 . S
O270 C259 1.256 . S
O271 Gd240 2.323 1_556 S
O271 Gd241 2.720 . S
O271 C259 1.262 . S
H272 C245 0.930 . S
H273 C246 0.931 . S
H274 C248 0.931 . S
H275 C249 0.931 . S
H276 C254 0.930 . S
H277 C255 0.931 . S
H278 C257 0.931 . S
H279 C258 0.931 . S
Gd280 C283 2.818 . S
Gd280 O300 2.377 . S
Gd280 O302 2.448 . S
Gd280 O303 2.506 . S
Gd280 O304 2.435 . S
Gd280 O305 2.717 . S
Gd280 O307 2.395 . S
Gd280 O311 2.327 . S
Gd281 C292 2.818 . S
Gd281 O301 2.395 . S
Gd281 O305 2.327 . S
Gd281 O306 2.377 . S
Gd281 O308 2.448 . S
Gd281 O309 2.506 . S
Gd281 O310 2.435 . S
Gd281 O311 2.717 . S
C282 O300 1.240 . S
C282 O301 1.240 . S
C283 Gd280 2.818 . S
C283 C284 1.510 . S
C283 O302 1.249 . S
C283 O303 1.252 . S
C284 C283 1.510 . S
C284 C285 1.404 . S
C284 C286 1.352 . S
C285 C284 1.404 . S
C285 C289 1.389 . S
C285 H312 0.930 . S
C286 C284 1.352 . S
C286 C288 1.374 . S
C286 H313 0.931 . S
C287 C288 1.359 . S
C287 C289 1.364 . S
C288 C286 1.374 . S
C288 C287 1.359 . S
C288 H314 0.931 . S
C289 C285 1.389 . S
C289 C287 1.364 . S
C289 H315 0.931 . S
C290 O304 1.256 . S
C290 O305 1.257 . S
C291 O306 1.240 . S
C291 O307 1.240 . S
C292 Gd281 2.818 . S
C292 C293 1.510 . S
C292 O308 1.249 . S
C292 O309 1.252 . S
C293 C292 1.510 . S
C293 C294 1.404 . S
C293 C295 1.352 . S
C294 C293 1.404 . S
C294 C298 1.389 . S
C294 H316 0.930 . S
C295 C293 1.352 . S
C295 C297 1.374 . S
C295 H317 0.931 . S
C296 C297 1.359 . S
C296 C298 1.364 . S
C297 C295 1.374 . S
C297 C296 1.359 . S
C297 H318 0.931 . S
C298 C294 1.389 . S
C298 C296 1.364 . S
C298 H319 0.931 . S
C299 O310 1.256 . S
C299 O311 1.257 . S
O300 Gd280 2.377 . S
O300 C282 1.240 . S
O301 Gd281 2.395 . S
O301 C282 1.240 . S
O302 Gd280 2.448 . S
O302 C283 1.249 . S
O303 Gd280 2.506 . S
O303 C283 1.252 . S
O304 Gd280 2.435 . S
O304 C290 1.256 . S
O305 Gd280 2.717 . S
O305 Gd281 2.327 . S
O305 C290 1.257 . S
O306 Gd281 2.377 . S
O306 C291 1.240 . S
O307 Gd280 2.395 . S
O307 C291 1.240 . S
O308 Gd281 2.448 . S
O308 C292 1.249 . S
O309 Gd281 2.506 . S
O309 C292 1.252 . S
O310 Gd281 2.435 . S
O310 C299 1.256 . S
O311 Gd280 2.327 . S
O311 Gd281 2.717 . S
O311 C299 1.257 . S
H312 C285 0.930 . S
H313 C286 0.931 . S
H314 C288 0.931 . S
H315 C289 0.931 . S
H316 C294 0.930 . S
H317 C295 0.931 . S
H318 C297 0.931 . S
H319 C298 0.931 . S
Gd320 C323 2.818 . S
Gd320 O340 2.377 . S
Gd320 O342 2.448 . S
Gd320 O343 2.506 . S
Gd320 O344 2.435 . S
Gd320 O345 2.717 . S
Gd320 O347 2.395 . S
Gd320 O351 2.327 . S
Gd321 C332 2.818 . S
Gd321 O341 2.395 . S
Gd321 O345 2.327 . S
Gd321 O346 2.377 . S
Gd321 O348 2.448 . S
Gd321 O349 2.506 . S
Gd321 O350 2.435 . S
Gd321 O351 2.717 . S
C322 O340 1.240 . S
C322 O341 1.240 . S
C323 Gd320 2.818 . S
C323 C324 1.510 . S
C323 O342 1.249 . S
C323 O343 1.252 . S
C324 C323 1.510 . S
C324 C325 1.404 . S
C324 C326 1.352 . S
C325 C324 1.404 . S
C325 C329 1.389 . S
C325 H352 0.930 . S
C326 C324 1.352 . S
C326 C328 1.374 . S
C326 H353 0.931 . S
C327 C328 1.359 . S
C327 C329 1.364 . S
C328 C326 1.374 . S
C328 C327 1.359 . S
C328 H354 0.931 . S
C329 C325 1.389 . S
C329 C327 1.364 . S
C329 H355 0.931 . S
C330 O344 1.256 . S
C330 O345 1.257 . S
C331 O346 1.240 . S
C331 O347 1.240 . S
C332 Gd321 2.818 . S
C332 C333 1.510 . S
C332 O348 1.249 . S
C332 O349 1.252 . S
C333 C332 1.510 . S
C333 C334 1.404 . S
C333 C335 1.352 . S
C334 C333 1.404 . S
C334 C338 1.389 . S
C334 H356 0.930 . S
C335 C333 1.352 . S
C335 C337 1.374 . S
C335 H357 0.931 . S
C336 C337 1.359 . S
C336 C338 1.364 . S
C337 C335 1.374 . S
C337 C336 1.359 . S
C337 H358 0.931 . S
C338 C334 1.389 . S
C338 C336 1.364 . S
C338 H359 0.931 . S
C339 O350 1.256 . S
C339 O351 1.257 . S
O340 Gd320 2.377 . S
O340 C322 1.240 . S
O341 Gd321 2.395 . S
O341 C322 1.240 . S
O342 Gd320 2.448 . S
O342 C323 1.249 . S
O343 Gd320 2.506 . S
O343 C323 1.252 . S
O344 Gd320 2.435 . S
O344 C330 1.256 . S
O345 Gd320 2.717 . S
O345 Gd321 2.327 . S
O345 C330 1.257 . S
O346 Gd321 2.377 . S
O346 C331 1.240 . S
O347 Gd320 2.395 . S
O347 C331 1.240 . S
O348 Gd321 2.448 . S
O348 C332 1.249 . S
O349 Gd321 2.506 . S
O349 C332 1.252 . S
O350 Gd321 2.435 . S
O350 C339 1.256 . S
O351 Gd320 2.327 . S
O351 Gd321 2.717 . S
O351 C339 1.257 . S
H352 C325 0.930 . S
H353 C326 0.931 . S
H354 C328 0.931 . S
H355 C329 0.931 . S
H356 C334 0.930 . S
H357 C335 0.931 . S
H358 C337 0.931 . S
H359 C338 0.931 . S
Gd360 C363 2.818 . S
Gd360 O380 2.377 1_565 S
Gd360 O382 2.448 . S
Gd360 O383 2.506 . S
Gd360 O384 2.435 1_565 S
Gd360 O385 2.717 1_565 S
Gd360 O387 2.395 . S
Gd360 O391 2.327 . S
Gd361 C372 2.818 . S
Gd361 O381 2.395 . S
Gd361 O385 2.327 . S
Gd361 O386 2.377 . S
Gd361 O388 2.448 . S
Gd361 O389 2.506 . S
Gd361 O390 2.435 . S
Gd361 O391 2.717 1_545 S
C362 O380 1.240 . S
C362 O381 1.240 . S
C363 Gd360 2.818 . S
C363 C364 1.510 . S
C363 O382 1.249 . S
C363 O383 1.252 . S
C364 C363 1.510 . S
C364 C365 1.404 . S
C364 C366 1.352 . S
C365 C364 1.404 . S
C365 C369 1.389 . S
C365 H392 0.930 . S
C366 C364 1.352 . S
C366 C368 1.374 . S
C366 H393 0.931 . S
C367 C368 1.359 . S
C367 C369 1.364 . S
C368 C366 1.374 . S
C368 C367 1.359 . S
C368 H394 0.931 . S
C369 C365 1.389 . S
C369 C367 1.364 . S
C369 H395 0.931 . S
C370 O384 1.256 . S
C370 O385 1.257 . S
C371 O386 1.240 1_565 S
C371 O387 1.240 . S
C372 Gd361 2.818 . S
C372 C373 1.510 . S
C372 O388 1.249 . S
C372 O389 1.252 . S
C373 C372 1.510 . S
C373 C374 1.404 . S
C373 C375 1.352 . S
C374 C373 1.404 . S
C374 C378 1.389 . S
C374 H396 0.930 . S
C375 C373 1.352 . S
C375 C377 1.374 . S
C375 H397 0.931 . S
C376 C377 1.359 . S
C376 C378 1.364 . S
C377 C375 1.374 . S
C377 C376 1.359 . S
C377 H398 0.931 . S
C378 C374 1.389 . S
C378 C376 1.364 . S
C378 H399 0.931 . S
C379 O390 1.256 1_565 S
C379 O391 1.257 . S
O380 Gd360 2.377 1_545 S
O380 C362 1.240 . S
O381 Gd361 2.395 . S
O381 C362 1.240 . S
O382 Gd360 2.448 . S
O382 C363 1.249 . S
O383 Gd360 2.506 . S
O383 C363 1.252 . S
O384 Gd360 2.435 1_545 S
O384 C370 1.256 . S
O385 Gd360 2.717 1_545 S
O385 Gd361 2.327 . S
O385 C370 1.257 . S
O386 Gd361 2.377 . S
O386 C371 1.240 1_545 S
O387 Gd360 2.395 . S
O387 C371 1.240 . S
O388 Gd361 2.448 . S
O388 C372 1.249 . S
O389 Gd361 2.506 . S
O389 C372 1.252 . S
O390 Gd361 2.435 . S
O390 C379 1.256 1_545 S
O391 Gd360 2.327 . S
O391 Gd361 2.717 1_565 S
O391 C379 1.257 . S
H392 C365 0.930 . S
H393 C366 0.931 . S
H394 C368 0.931 . S
H395 C369 0.931 . S
H396 C374 0.930 . S
H397 C375 0.931 . S
H398 C377 0.931 . S
H399 C378 0.931 . S
Gd400 C403 2.818 . S
Gd400 O420 2.377 . S
Gd400 O422 2.448 . S
Gd400 O423 2.506 . S
Gd400 O424 2.435 . S
Gd400 O425 2.717 . S
Gd400 O427 2.395 1_565 S
Gd400 O431 2.327 . S
Gd401 C412 2.818 . S
Gd401 O421 2.395 1_545 S
Gd401 O425 2.327 1_545 S
Gd401 O426 2.377 . S
Gd401 O428 2.448 . S
Gd401 O429 2.506 . S
Gd401 O430 2.435 . S
Gd401 O431 2.717 1_545 S
C402 O420 1.240 . S
C402 O421 1.240 . S
C403 Gd400 2.818 . S
C403 C404 1.510 . S
C403 O422 1.249 . S
C403 O423 1.252 . S
C404 C403 1.510 . S
C404 C405 1.404 . S
C404 C406 1.352 . S
C405 C404 1.404 . S
C405 C409 1.389 . S
C405 H432 0.930 . S
C406 C404 1.352 . S
C406 C408 1.374 . S
C406 H433 0.931 . S
C407 C408 1.359 . S
C407 C409 1.364 . S
C408 C406 1.374 . S
C408 C407 1.359 . S
C408 H434 0.931 . S
C409 C405 1.389 . S
C409 C407 1.364 . S
C409 H435 0.931 . S
C410 O424 1.256 . S
C410 O425 1.257 . S
C411 O426 1.240 . S
C411 O427 1.240 . S
C412 Gd401 2.818 . S
C412 C413 1.510 . S
C412 O428 1.249 . S
C412 O429 1.252 . S
C413 C412 1.510 . S
C413 C414 1.404 . S
C413 C415 1.352 . S
C414 C413 1.404 . S
C414 C418 1.389 . S
C414 H436 0.930 . S
C415 C413 1.352 . S
C415 C417 1.374 . S
C415 H437 0.931 . S
C416 C417 1.359 . S
C416 C418 1.364 . S
C417 C415 1.374 . S
C417 C416 1.359 . S
C417 H438 0.931 . S
C418 C414 1.389 . S
C418 C416 1.364 . S
C418 H439 0.931 . S
C419 O430 1.256 . S
C419 O431 1.257 1_545 S
O420 Gd400 2.377 . S
O420 C402 1.240 . S
O421 Gd401 2.395 1_565 S
O421 C402 1.240 . S
O422 Gd400 2.448 . S
O422 C403 1.249 . S
O423 Gd400 2.506 . S
O423 C403 1.252 . S
O424 Gd400 2.435 . S
O424 C410 1.256 . S
O425 Gd400 2.717 . S
O425 Gd401 2.327 1_565 S
O425 C410 1.257 . S
O426 Gd401 2.377 . S
O426 C411 1.240 . S
O427 Gd400 2.395 1_545 S
O427 C411 1.240 . S
O428 Gd401 2.448 . S
O428 C412 1.249 . S
O429 Gd401 2.506 . S
O429 C412 1.252 . S
O430 Gd401 2.435 . S
O430 C419 1.256 . S
O431 Gd400 2.327 . S
O431 Gd401 2.717 1_565 S
O431 C419 1.257 1_565 S
H432 C405 0.930 . S
H433 C406 0.931 . S
H434 C408 0.931 . S
H435 C409 0.931 . S
H436 C414 0.930 . S
H437 C415 0.931 . S
H438 C417 0.931 . S
H439 C418 0.931 . S
Gd440 C443 2.818 . S
Gd440 O460 2.377 . S
Gd440 O462 2.448 . S
Gd440 O463 2.506 . S
Gd440 O464 2.435 . S
Gd440 O465 2.717 . S
Gd440 O467 2.395 . S
Gd440 O471 2.327 . S
Gd441 C452 2.818 . S
Gd441 O461 2.395 . S
Gd441 O465 2.327 . S
Gd441 O466 2.377 . S
Gd441 O468 2.448 . S
Gd441 O469 2.506 . S
Gd441 O470 2.435 . S
Gd441 O471 2.717 . S
C442 O460 1.240 . S
C442 O461 1.240 . S
C443 Gd440 2.818 . S
C443 C444 1.510 . S
C443 O462 1.249 . S
C443 O463 1.252 . S
C444 C443 1.510 . S
C444 C445 1.404 . S
C444 C446 1.352 . S
C445 C444 1.404 . S
C445 C449 1.389 . S
C445 H472 0.930 . S
C446 C444 1.352 . S
C446 C448 1.374 . S
C446 H473 0.931 . S
C447 C448 1.359 . S
C447 C449 1.364 . S
C448 C446 1.374 . S
C448 C447 1.359 . S
C448 H474 0.931 . S
C449 C445 1.389 . S
C449 C447 1.364 . S
C449 H475 0.931 . S
C450 O464 1.256 . S
C450 O465 1.257 . S
C451 O466 1.240 . S
C451 O467 1.240 . S
C452 Gd441 2.818 . S
C452 C453 1.510 . S
C452 O468 1.249 . S
C452 O469 1.252 . S
C453 C452 1.510 . S
C453 C454 1.404 . S
C453 C455 1.352 . S
C454 C453 1.404 . S
C454 C458 1.389 . S
C454 H476 0.930 . S
C455 C453 1.352 . S
C455 C457 1.374 . S
C455 H477 0.931 . S
C456 C457 1.359 . S
C456 C458 1.364 . S
C457 C455 1.374 . S
C457 C456 1.359 . S
C457 H478 0.931 . S
C458 C454 1.389 . S
C458 C456 1.364 . S
C458 H479 0.931 . S
C459 O470 1.256 . S
C459 O471 1.257 . S
O460 Gd440 2.377 . S
O460 C442 1.240 . S
O461 Gd441 2.395 . S
O461 C442 1.240 . S
O462 Gd440 2.448 . S
O462 C443 1.249 . S
O463 Gd440 2.506 . S
O463 C443 1.252 . S
O464 Gd440 2.435 . S
O464 C450 1.256 . S
O465 Gd440 2.717 . S
O465 Gd441 2.327 . S
O465 C450 1.257 . S
O466 Gd441 2.377 . S
O466 C451 1.240 . S
O467 Gd440 2.395 . S
O467 C451 1.240 . S
O468 Gd441 2.448 . S
O468 C452 1.249 . S
O469 Gd441 2.506 . S
O469 C452 1.252 . S
O470 Gd441 2.435 . S
O470 C459 1.256 . S
O471 Gd440 2.327 . S
O471 Gd441 2.717 . S
O471 C459 1.257 . S
H472 C445 0.930 . S
H473 C446 0.931 . S
H474 C448 0.931 . S
H475 C449 0.931 . S
H476 C454 0.930 . S
H477 C455 0.931 . S
H478 C457 0.931 . S
H479 C458 0.931 . S
H480 C488 0.950 . S
H481 C493 0.950 . S
H482 C490 0.950 . S
H483 C492 0.950 . S
H484 C494 0.950 . S
H485 C496 0.950 . S
H486 C498 0.950 . S
H487 C499 0.950 . S
C488 H480 0.950 . S
C488 C489 1.386 . S
C488 C490 1.391 . S
C489 C488 1.386 . S
C489 C493 1.393 . S
C490 H482 0.950 . S
C490 C488 1.391 . S
C490 C491 1.400 . S
C491 C490 1.400 . S
C491 C492 1.398 . S
C491 C497 1.491 . S
C492 H483 0.950 . S
C492 C491 1.398 . S
C492 C493 1.391 . S
C493 H481 0.950 . S
C493 C489 1.393 . S
C493 C492 1.391 . S
C494 H484 0.950 . S
C494 C495 1.386 . S
C494 C496 1.391 . S
C495 C494 1.386 . S
C495 C499 1.393 . S
C496 H485 0.950 . S
C496 C494 1.391 . S
C496 C497 1.400 . S
C497 C491 1.491 . S
C497 C496 1.400 . S
C497 C498 1.398 . S
C498 H486 0.950 . S
C498 C497 1.398 . S
C498 C499 1.391 . S
C499 H487 0.950 . S
C499 C495 1.393 . S
C499 C498 1.391 . S
H500 C508 0.950 . S
H501 C513 0.967 . S
H502 C510 0.950 . S
H503 C512 0.950 . S
H504 C514 0.950 . S
H505 C516 0.950 . S
H506 C518 0.950 . S
H507 C519 0.950 . S
C508 H500 0.950 . S
C508 C509 1.386 . S
C508 C510 1.391 . S
C509 C508 1.386 . S
C509 C513 1.393 . S
C510 H502 0.950 . S
C510 C508 1.391 . S
C510 C511 1.400 . S
C511 C510 1.400 . S
C511 C512 1.398 . S
C511 C517 1.491 . S
C512 H503 0.950 . S
C512 C511 1.398 . S
C512 C513 1.391 . S
C513 H501 0.967 . S
C513 C509 1.393 . S
C513 C512 1.391 . S
C514 H504 0.950 . S
C514 C515 1.386 . S
C514 C516 1.391 . S
C515 C514 1.386 . S
C515 C519 1.393 . S
C516 H505 0.950 . S
C516 C514 1.391 . S
C516 C517 1.400 . S
C517 C511 1.491 . S
C517 C516 1.400 . S
C517 C518 1.398 . S
C518 H506 0.950 . S
C518 C517 1.398 . S
C518 C519 1.391 . S
C519 H507 0.950 . S
C519 C515 1.393 . S
C519 C518 1.391 . S
H520 C528 0.950 . S
H521 C533 0.952 . S
H522 C530 0.950 . S
H523 C532 0.950 . S
H524 C534 0.950 . S
H525 C536 0.950 . S
H526 C538 0.950 . S
H527 C539 0.950 . S
C528 H520 0.950 . S
C528 C529 1.386 . S
C528 C530 1.391 . S
C529 C528 1.386 . S
C529 C533 1.392 1_554 S
C530 H522 0.950 . S
C530 C528 1.391 . S
C530 C531 1.400 . S
C531 C530 1.400 . S
C531 C532 1.398 . S
C531 C537 1.491 . S
C532 H523 0.950 . S
C532 C531 1.398 . S
C532 C533 1.389 1_554 S
C533 H521 0.952 . S
C533 C529 1.392 1_556 S
C533 C532 1.389 1_556 S
C534 H524 0.950 . S
C534 C535 1.386 . S
C534 C536 1.391 . S
C535 C534 1.386 . S
C535 C539 1.393 . S
C536 H525 0.950 . S
C536 C534 1.391 . S
C536 C537 1.400 . S
C537 C531 1.491 . S
C537 C536 1.400 . S
C537 C538 1.398 . S
C538 H526 0.950 . S
C538 C537 1.398 . S
C538 C539 1.391 . S
C539 H527 0.950 . S
C539 C535 1.393 . S
C539 C538 1.391 . S
H540 C548 0.950 . S
H541 C553 0.950 . S
H542 C550 0.950 . S
H543 C552 0.950 . S
H544 C554 0.950 1_565 S
H545 C556 0.950 1_565 S
H546 C558 0.950 . S
H547 C559 0.950 . S
C548 H540 0.950 . S
C548 C549 1.386 . S
C548 C550 1.391 . S
C549 C548 1.386 . S
C549 C553 1.393 . S
C550 H542 0.950 . S
C550 C548 1.391 . S
C550 C551 1.400 . S
C551 C550 1.400 . S
C551 C552 1.398 . S
C551 C557 1.491 . S
C552 H543 0.950 . S
C552 C551 1.398 . S
C552 C553 1.391 . S
C553 H541 0.950 . S
C553 C549 1.393 . S
C553 C552 1.391 . S
C554 H544 0.950 1_545 S
C554 C555 1.386 . S
C554 C556 1.391 . S
C555 C554 1.386 . S
C555 C559 1.393 . S
C556 H545 0.950 1_545 S
C556 C554 1.391 . S
C556 C557 1.400 . S
C557 C551 1.491 . S
C557 C556 1.400 . S
C557 C558 1.398 . S
C558 H546 0.950 . S
C558 C557 1.398 . S
C558 C559 1.391 . S
C559 H547 0.950 . S
C559 C555 1.393 . S
C559 C558 1.391 . S
H560 C568 0.950 . S
H561 C573 0.950 . S
H562 C570 0.950 . S
H563 C572 0.950 . S
H564 C574 0.950 . S
H565 C576 0.950 . S
H566 C578 0.950 . S
H567 C579 0.950 . S
C568 H560 0.950 . S
C568 C569 1.386 . S
C568 C570 1.391 . S
C569 C568 1.386 . S
C569 C573 1.393 . S
C570 H562 0.950 . S
C570 C568 1.391 . S
C570 C571 1.400 . S
C571 C570 1.400 . S
C571 C572 1.398 . S
C571 C577 1.491 . S
C572 H563 0.950 . S
C572 C571 1.398 . S
C572 C573 1.391 . S
C573 H561 0.950 . S
C573 C569 1.393 . S
C573 C572 1.391 . S
C574 H564 0.950 . S
C574 C575 1.386 . S
C574 C576 1.391 . S
C575 C574 1.386 . S
C575 C579 1.393 . S
C576 H565 0.950 . S
C576 C574 1.391 . S
C576 C577 1.400 . S
C577 C571 1.491 . S
C577 C576 1.400 . S
C577 C578 1.398 . S
C578 H566 0.950 . S
C578 C577 1.398 . S
C578 C579 1.391 . S
C579 H567 0.950 . S
C579 C575 1.393 . S
C579 C578 1.391 . S
H580 C588 0.950 . S
H581 C593 0.950 . S
H582 C590 0.950 . S
H583 C592 0.950 . S
H584 C594 0.950 . S
H585 C596 0.950 . S
H586 C598 0.950 . S
H587 C599 0.950 . S
C588 H580 0.950 . S
C588 C589 1.386 . S
C588 C590 1.391 . S
C589 C588 1.386 . S
C589 C593 1.393 . S
C590 H582 0.950 . S
C590 C588 1.391 . S
C590 C591 1.400 . S
C591 C590 1.400 . S
C591 C592 1.398 . S
C591 C597 1.491 . S
C592 H583 0.950 . S
C592 C591 1.398 . S
C592 C593 1.391 . S
C593 H581 0.950 . S
C593 C589 1.393 . S
C593 C592 1.391 . S
C594 H584 0.950 . S
C594 C595 1.386 . S
C594 C596 1.391 . S
C595 C594 1.386 . S
C595 C599 1.393 . S
C596 H585 0.950 . S
C596 C594 1.391 . S
C596 C597 1.400 . S
C597 C591 1.491 . S
C597 C596 1.400 . S
C597 C598 1.398 . S
C598 H586 0.950 . S
C598 C597 1.398 . S
C598 C599 1.391 . S
C599 H587 0.950 . S
C599 C595 1.393 . S
C599 C598 1.391 . S
H600 C608 0.950 . S
H601 C613 0.950 . S
H602 C610 0.950 . S
H603 C612 0.950 . S
H604 C614 0.950 1_554 S
H605 C616 0.950 . S
H606 C618 0.950 . S
H607 C619 0.950 . S
C608 H600 0.950 . S
C608 C609 1.386 . S
C608 C610 1.391 . S
C609 C608 1.386 . S
C609 C613 1.393 . S
C610 H602 0.950 . S
C610 C608 1.391 . S
C610 C611 1.400 . S
C611 C610 1.400 . S
C611 C612 1.398 . S
C611 C617 1.491 . S
C612 H603 0.950 . S
C612 C611 1.398 . S
C612 C613 1.391 . S
C613 H601 0.950 . S
C613 C609 1.393 . S
C613 C612 1.391 . S
C614 H604 0.950 1_556 S
C614 C615 1.386 . S
C614 C616 1.391 . S
C615 C614 1.386 . S
C615 C619 1.393 . S
C616 H605 0.950 . S
C616 C614 1.391 . S
C616 C617 1.400 . S
C617 C611 1.491 . S
C617 C616 1.400 . S
C617 C618 1.398 . S
C618 H606 0.950 . S
C618 C617 1.398 . S
C618 C619 1.391 . S
C619 H607 0.950 . S
C619 C615 1.393 . S
C619 C618 1.391 . S
H620 C628 0.950 . S
H621 C633 0.950 . S
H622 C630 0.950 . S
H623 C632 0.950 . S
H624 C634 0.950 . S
H625 C636 0.950 . S
H626 C638 0.950 . S
H627 C639 0.950 . S
C628 H620 0.950 . S
C628 C629 1.386 . S
C628 C630 1.391 . S
C629 C628 1.386 . S
C629 C633 1.393 . S
C630 H622 0.950 . S
C630 C628 1.391 . S
C630 C631 1.400 . S
C631 C630 1.400 . S
C631 C632 1.398 . S
C631 C637 1.491 . S
C632 H623 0.950 . S
C632 C631 1.398 . S
C632 C633 1.391 . S
C633 H621 0.950 . S
C633 C629 1.393 . S
C633 C632 1.391 . S
C634 H624 0.950 . S
C634 C635 1.386 . S
C634 C636 1.391 . S
C635 C634 1.386 . S
C635 C639 1.393 . S
C636 H625 0.950 . S
C636 C634 1.391 . S
C636 C637 1.400 . S
C637 C631 1.491 . S
C637 C636 1.400 . S
C637 C638 1.398 . S
C638 H626 0.950 . S
C638 C637 1.398 . S
C638 C639 1.391 . S
C639 H627 0.950 . S
C639 C635 1.393 . S
C639 C638 1.391 . S
H640 C648 0.950 . S
H641 C653 0.950 . S
H642 C650 0.950 . S
H643 C652 0.950 . S
H644 C654 0.950 . S
H645 C656 0.950 . S
H646 C658 0.950 . S
H647 C659 0.950 . S
C648 H640 0.950 . S
C648 C649 1.386 . S
C648 C650 1.391 . S
C649 C648 1.386 . S
C649 C653 1.393 . S
C650 H642 0.950 . S
C650 C648 1.391 . S
C650 C651 1.400 . S
C651 C650 1.400 . S
C651 C652 1.398 . S
C651 C657 1.491 . S
C652 H643 0.950 . S
C652 C651 1.398 . S
C652 C653 1.391 . S
C653 H641 0.950 . S
C653 C649 1.393 . S
C653 C652 1.391 . S
C654 H644 0.950 . S
C654 C655 1.386 . S
C654 C656 1.391 . S
C655 C654 1.386 . S
C655 C659 1.393 . S
C656 H645 0.950 . S
C656 C654 1.391 . S
C656 C657 1.400 . S
C657 C651 1.491 . S
C657 C656 1.400 . S
C657 C658 1.398 . S
C658 H646 0.950 . S
C658 C657 1.398 . S
C658 C659 1.391 . S
C659 H647 0.950 . S
C659 C655 1.393 . S
C659 C658 1.391 . S
H660 C668 0.950 . S
H661 C673 0.950 . S
H662 C670 0.950 . S
H663 C672 0.950 . S
H664 C674 0.950 1_655 S
H665 C676 0.950 1_655 S
H666 C678 0.950 . S
H667 C679 0.950 . S
C668 H660 0.950 . S
C668 C669 1.386 . S
C668 C670 1.391 . S
C669 C668 1.386 . S
C669 C673 1.393 . S
C670 H662 0.950 . S
C670 C668 1.391 . S
C670 C671 1.400 . S
C671 C670 1.400 . S
C671 C672 1.398 . S
C671 C677 1.491 . S
C672 H663 0.950 . S
C672 C671 1.398 . S
C672 C673 1.391 . S
C673 H661 0.950 . S
C673 C669 1.393 . S
C673 C672 1.391 . S
C674 H664 0.950 1_455 S
C674 C675 1.386 . S
C674 C676 1.391 . S
C675 C674 1.386 . S
C675 C679 1.393 . S
C676 H665 0.950 1_455 S
C676 C674 1.391 . S
C676 C677 1.400 . S
C677 C671 1.491 . S
C677 C676 1.400 . S
C677 C678 1.398 . S
C678 H666 0.950 . S
C678 C677 1.398 . S
C678 C679 1.391 . S
C679 H667 0.950 . S
C679 C675 1.393 . S
C679 C678 1.391 . S
H680 C688 0.917 1_455 S
H681 C693 0.950 . S
H682 C690 0.950 . S
H683 C692 0.950 . S
H684 C694 0.950 . S
H685 C696 0.950 . S
H686 C698 0.950 . S
H687 C699 0.950 . S
C688 H680 0.917 1_655 S
C688 C689 1.403 . S
C688 C690 1.407 . S
C689 C688 1.403 . S
C689 C693 1.393 . S
C690 H682 0.950 . S
C690 C688 1.407 . S
C690 C691 1.400 . S
C691 C690 1.400 . S
C691 C692 1.398 . S
C691 C697 1.491 . S
C692 H683 0.950 . S
C692 C691 1.398 . S
C692 C693 1.391 . S
C693 H681 0.950 . S
C693 C689 1.393 . S
C693 C692 1.391 . S
C694 H684 0.950 . S
C694 C695 1.386 . S
C694 C696 1.391 . S
C695 C694 1.386 . S
C695 C699 1.393 . S
C696 H685 0.950 . S
C696 C694 1.391 . S
C696 C697 1.400 . S
C697 C691 1.491 . S
C697 C696 1.400 . S
C697 C698 1.398 . S
C698 H686 0.950 . S
C698 C697 1.398 . S
C698 C699 1.391 . S
C699 H687 0.950 . S
C699 C695 1.393 . S
C699 C698 1.391 . S
H700 C708 0.950 . S
H701 C713 0.950 . S
H702 C710 0.950 . S
H703 C712 0.950 . S
H704 C714 0.950 . S
H705 C716 0.950 . S
H706 C718 0.950 . S
H707 C719 0.950 . S
C708 H700 0.950 . S
C708 C709 1.386 . S
C708 C710 1.391 . S
C709 C708 1.386 . S
C709 C713 1.393 . S
C710 H702 0.950 . S
C710 C708 1.391 . S
C710 C711 1.400 . S
C711 C710 1.400 . S
C711 C712 1.398 . S
C711 C717 1.491 . S
C712 H703 0.950 . S
C712 C711 1.398 . S
C712 C713 1.391 . S
C713 H701 0.950 . S
C713 C709 1.393 . S
C713 C712 1.391 . S
C714 H704 0.950 . S
C714 C715 1.386 . S
C714 C716 1.391 . S
C715 C714 1.386 . S
C715 C719 1.393 . S
C716 H705 0.950 . S
C716 C714 1.391 . S
C716 C717 1.400 . S
C717 C711 1.491 . S
C717 C716 1.400 . S
C717 C718 1.398 . S
C718 H706 0.950 . S
C718 C717 1.398 . S
C718 C719 1.391 . S
C719 H707 0.950 . S
C719 C715 1.393 . S
C719 C718 1.391 . S
H720 C728 0.950 . S
H721 C733 0.950 . S
H722 C730 0.950 . S
H723 C732 0.950 . S
H724 C734 0.950 . S
H725 C736 0.950 . S
H726 C738 0.950 . S
H727 C739 0.950 . S
C728 H720 0.950 . S
C728 C729 1.386 . S
C728 C730 1.391 . S
C729 C728 1.386 . S
C729 C733 1.393 . S
C730 H722 0.950 . S
C730 C728 1.391 . S
C730 C731 1.400 . S
C731 C730 1.400 . S
C731 C732 1.398 . S
C731 C737 1.491 . S
C732 H723 0.950 . S
C732 C731 1.398 . S
C732 C733 1.391 . S
C733 H721 0.950 . S
C733 C729 1.393 . S
C733 C732 1.391 . S
C734 H724 0.950 . S
C734 C735 1.386 . S
C734 C736 1.391 . S
C735 C734 1.386 . S
C735 C739 1.393 . S
C736 H725 0.950 . S
C736 C734 1.391 . S
C736 C737 1.400 . S
C737 C731 1.491 . S
C737 C736 1.400 . S
C737 C738 1.398 . S
C738 H726 0.950 . S
C738 C737 1.398 . S
C738 C739 1.391 . S
C739 H727 0.950 . S
C739 C735 1.393 . S
C739 C738 1.391 . S
H740 C748 0.950 . S
H741 C753 0.950 . S
H742 C750 0.950 . S
H743 C752 0.950 . S
H744 C754 0.950 . S
H745 C756 0.950 . S
H746 C758 0.950 . S
H747 C759 0.950 . S
C748 H740 0.950 . S
C748 C749 1.386 . S
C748 C750 1.391 . S
C749 C748 1.386 . S
C749 C753 1.393 . S
C750 H742 0.950 . S
C750 C748 1.391 . S
C750 C751 1.400 . S
C751 C750 1.400 . S
C751 C752 1.398 . S
C751 C757 1.491 . S
C752 H743 0.950 . S
C752 C751 1.398 . S
C752 C753 1.391 . S
C753 H741 0.950 . S
C753 C749 1.393 . S
C753 C752 1.391 . S
C754 H744 0.950 . S
C754 C755 1.386 . S
C754 C756 1.391 . S
C755 C754 1.386 . S
C755 C759 1.393 . S
C756 H745 0.950 . S
C756 C754 1.391 . S
C756 C757 1.400 . S
C757 C751 1.491 . S
C757 C756 1.400 . S
C757 C758 1.398 . S
C758 H746 0.950 . S
C758 C757 1.398 . S
C758 C759 1.391 . S
C759 H747 0.950 . S
C759 C755 1.393 . S
C759 C758 1.391 . S
H760 C768 0.950 . S
H761 C773 0.950 . S
H762 C770 0.950 . S
H763 C772 0.950 . S
H764 C774 0.950 . S
H765 C776 0.950 . S
H766 C778 0.950 . S
H767 C779 0.950 . S
C768 H760 0.950 . S
C768 C769 1.386 . S
C768 C770 1.391 . S
C769 C768 1.386 . S
C769 C773 1.393 . S
C770 H762 0.950 . S
C770 C768 1.391 . S
C770 C771 1.400 . S
C771 C770 1.400 . S
C771 C772 1.398 . S
C771 C777 1.491 . S
C772 H763 0.950 . S
C772 C771 1.398 . S
C772 C773 1.391 . S
C773 H761 0.950 . S
C773 C769 1.393 . S
C773 C772 1.391 . S
C774 H764 0.950 . S
C774 C775 1.386 . S
C774 C776 1.391 . S
C775 C774 1.386 . S
C775 C779 1.393 . S
C776 H765 0.950 . S
C776 C774 1.391 . S
C776 C777 1.400 . S
C777 C771 1.491 . S
C777 C776 1.400 . S
C777 C778 1.398 . S
C778 H766 0.950 . S
C778 C777 1.398 . S
C778 C779 1.391 . S
C779 H767 0.950 . S
C779 C775 1.393 . S
C779 C778 1.391 . S
H780 C788 0.950 . S
H781 C793 0.950 . S
H782 C790 0.950 . S
H783 C792 0.950 . S
H784 C794 0.950 1_565 S
H785 C796 0.950 1_554 S
H786 C798 0.950 . S
H787 C799 0.950 . S
C788 H780 0.950 . S
C788 C789 1.386 . S
C788 C790 1.391 . S
C789 C788 1.386 . S
C789 C793 1.393 . S
C790 H782 0.950 . S
C790 C788 1.391 . S
C790 C791 1.400 . S
C791 C790 1.400 . S
C791 C792 1.398 . S
C791 C797 1.491 1_554 S
C792 H783 0.950 . S
C792 C791 1.398 . S
C792 C793 1.391 . S
C793 H781 0.950 . S
C793 C789 1.393 . S
C793 C792 1.391 . S
C794 H784 0.950 1_545 S
C794 C795 1.386 . S
C794 C796 1.391 . S
C795 C794 1.386 . S
C795 C799 1.393 . S
C796 H785 0.950 1_556 S
C796 C794 1.391 . S
C796 C797 1.400 . S
C797 C791 1.491 1_556 S
C797 C796 1.400 . S
C797 C798 1.398 . S
C798 H786 0.950 . S
C798 C797 1.398 . S
C798 C799 1.391 . S
C799 H787 0.950 . S
C799 C795 1.393 . S
C799 C798 1.391 . S
H800 C808 0.950 . S
H801 C813 0.950 . S
H802 C810 0.950 . S
H803 C812 0.950 . S
H804 C814 0.950 . S
H805 C816 0.950 . S
H806 C818 0.950 . S
H807 C819 0.950 . S
C808 H800 0.950 . S
C808 C809 1.386 . S
C808 C810 1.391 . S
C809 C808 1.386 . S
C809 C813 1.393 . S
C810 H802 0.950 . S
C810 C808 1.391 . S
C810 C811 1.400 . S
C811 C810 1.400 . S
C811 C812 1.398 . S
C811 C817 1.491 . S
C812 H803 0.950 . S
C812 C811 1.398 . S
C812 C813 1.391 . S
C813 H801 0.950 . S
C813 C809 1.393 . S
C813 C812 1.391 . S
C814 H804 0.950 . S
C814 C815 1.386 . S
C814 C816 1.391 . S
C815 C814 1.386 . S
C815 C819 1.393 . S
C816 H805 0.950 . S
C816 C814 1.391 . S
C816 C817 1.400 . S
C817 C811 1.491 . S
C817 C816 1.400 . S
C817 C818 1.398 . S
C818 H806 0.950 . S
C818 C817 1.398 . S
C818 C819 1.391 . S
C819 H807 0.950 . S
C819 C815 1.393 . S
C819 C818 1.391 . S
H820 C828 0.950 . S
H821 C833 0.950 . S
H822 C830 0.950 . S
H823 C832 0.950 1_556 S
H824 C834 0.950 . S
H825 C836 0.950 . S
H826 C838 0.950 . S
H827 C839 0.950 . S
C828 H820 0.950 . S
C828 C829 1.386 . S
C828 C830 1.391 1_554 S
C829 C828 1.386 . S
C829 C833 1.393 . S
C830 H822 0.950 . S
C830 C828 1.391 1_556 S
C830 C831 1.400 . S
C831 C830 1.400 . S
C831 C832 1.398 1_556 S
C831 C837 1.491 . S
C832 H823 0.950 1_554 S
C832 C831 1.398 1_554 S
C832 C833 1.391 . S
C833 H821 0.950 . S
C833 C829 1.393 . S
C833 C832 1.391 . S
C834 H824 0.950 . S
C834 C835 1.386 . S
C834 C836 1.391 . S
C835 C834 1.386 . S
C835 C839 1.393 . S
C836 H825 0.950 . S
C836 C834 1.391 . S
C836 C837 1.400 . S
C837 C831 1.491 . S
C837 C836 1.400 . S
C837 C838 1.398 . S
C838 H826 0.950 . S
C838 C837 1.398 . S
C838 C839 1.391 . S
C839 H827 0.950 . S
C839 C835 1.393 . S
C839 C838 1.391 . S
H840 C848 0.950 . S
H841 C853 0.950 . S
H842 C850 0.950 . S
H843 C852 0.950 . S
H844 C854 0.950 . S
H845 C856 0.950 . S
H846 C858 0.950 . S
H847 C859 0.950 . S
C848 H840 0.950 . S
C848 C849 1.386 . S
C848 C850 1.391 . S
C849 C848 1.386 . S
C849 C853 1.393 . S
C850 H842 0.950 . S
C850 C848 1.391 . S
C850 C851 1.400 . S
C851 C850 1.400 . S
C851 C852 1.398 . S
C851 C857 1.491 . S
C852 H843 0.950 . S
C852 C851 1.398 . S
C852 C853 1.391 . S
C853 H841 0.950 . S
C853 C849 1.393 . S
C853 C852 1.391 . S
C854 H844 0.950 . S
C854 C855 1.386 . S
C854 C856 1.391 . S
C855 C854 1.386 . S
C855 C859 1.393 . S
C856 H845 0.950 . S
C856 C854 1.391 . S
C856 C857 1.400 . S
C857 C851 1.491 . S
C857 C856 1.400 . S
C857 C858 1.398 . S
C858 H846 0.950 . S
C858 C857 1.398 . S
C858 C859 1.391 . S
C859 H847 0.950 . S
C859 C855 1.393 . S
C859 C858 1.391 . S
H860 C868 0.950 . S
H861 C873 0.950 . S
H862 C870 0.950 . S
H863 C872 0.950 . S
H864 C874 0.950 . S
H865 C876 0.950 . S
H866 C878 0.950 . S
H867 C879 0.950 . S
C868 H860 0.950 . S
C868 C869 1.386 . S
C868 C870 1.391 . S
C869 C868 1.386 . S
C869 C873 1.393 . S
C870 H862 0.950 . S
C870 C868 1.391 . S
C870 C871 1.400 . S
C871 C870 1.400 . S
C871 C872 1.398 . S
C871 C877 1.491 . S
C872 H863 0.950 . S
C872 C871 1.398 . S
C872 C873 1.391 . S
C873 H861 0.950 . S
C873 C869 1.393 . S
C873 C872 1.391 . S
C874 H864 0.950 . S
C874 C875 1.386 . S
C874 C876 1.391 . S
C875 C874 1.386 . S
C875 C879 1.393 . S
C876 H865 0.950 . S
C876 C874 1.391 . S
C876 C877 1.400 . S
C877 C871 1.491 . S
C877 C876 1.400 . S
C877 C878 1.398 . S
C878 H866 0.950 . S
C878 C877 1.398 . S
C878 C879 1.391 . S
C879 H867 0.950 . S
C879 C875 1.393 . S
C879 C878 1.391 . S
H880 C888 0.950 . S
H881 C893 0.950 . S
H882 C890 0.950 . S
H883 C892 0.950 . S
H884 C894 0.950 . S
H885 C896 0.950 . S
H886 C898 0.950 . S
H887 C899 0.950 . S
C888 H880 0.950 . S
C888 C889 1.386 . S
C888 C890 1.391 . S
C889 C888 1.386 . S
C889 C893 1.393 . S
C890 H882 0.950 . S
C890 C888 1.391 . S
C890 C891 1.400 . S
C891 C890 1.400 . S
C891 C892 1.398 . S
C891 C897 1.491 . S
C892 H883 0.950 . S
C892 C891 1.398 . S
C892 C893 1.391 . S
C893 H881 0.950 . S
C893 C889 1.393 . S
C893 C892 1.391 . S
C894 H884 0.950 . S
C894 C895 1.386 . S
C894 C896 1.391 . S
C895 C894 1.386 . S
C895 C899 1.393 . S
C896 H885 0.950 . S
C896 C894 1.391 . S
C896 C897 1.400 . S
C897 C891 1.491 . S
C897 C896 1.400 . S
C897 C898 1.398 . S
C898 H886 0.950 . S
C898 C897 1.398 . S
C898 C899 1.391 . S
C899 H887 0.950 . S
C899 C895 1.393 . S
C899 C898 1.391 . S
H900 C908 0.950 . S
H901 C913 0.950 . S
H902 C910 0.950 . S
H903 C912 0.950 . S
H904 C914 0.950 . S
H905 C916 0.950 . S
H906 C918 0.950 1_655 S
H907 C919 0.950 1_655 S
C908 H900 0.950 . S
C908 C909 1.386 . S
C908 C910 1.391 . S
C909 C908 1.386 . S
C909 C913 1.393 . S
C910 H902 0.950 . S
C910 C908 1.391 . S
C910 C911 1.400 . S
C911 C910 1.400 . S
C911 C912 1.398 . S
C911 C917 1.491 1_545 S
C912 H903 0.950 . S
C912 C911 1.398 . S
C912 C913 1.391 . S
C913 H901 0.950 . S
C913 C909 1.393 . S
C913 C912 1.391 . S
C914 H904 0.950 . S
C914 C915 1.386 . S
C914 C916 1.391 . S
C915 C914 1.386 . S
C915 C919 1.393 . S
C916 H905 0.950 . S
C916 C914 1.391 . S
C916 C917 1.400 . S
C917 C911 1.491 1_565 S
C917 C916 1.400 . S
C917 C918 1.398 . S
C918 H906 0.950 1_455 S
C918 C917 1.398 . S
C918 C919 1.391 . S
C919 H907 0.950 1_455 S
C919 C915 1.393 . S
C919 C918 1.391 . S
H920 C928 0.950 . S
H921 C933 0.950 . S
H922 C930 0.950 . S
H923 C932 0.950 . S
H924 C934 0.950 . S
H925 C936 0.950 . S
H926 C938 0.950 . S
H927 C939 0.950 . S
C928 H920 0.950 . S
C928 C929 1.386 . S
C928 C930 1.391 . S
C929 C928 1.386 . S
C929 C933 1.393 . S
C930 H922 0.950 . S
C930 C928 1.391 . S
C930 C931 1.400 . S
C931 C930 1.400 . S
C931 C932 1.398 . S
C931 C937 1.491 . S
C932 H923 0.950 . S
C932 C931 1.398 . S
C932 C933 1.391 . S
C933 H921 0.950 . S
C933 C929 1.393 . S
C933 C932 1.391 . S
C934 H924 0.950 . S
C934 C935 1.386 . S
C934 C936 1.391 . S
C935 C934 1.386 . S
C935 C939 1.393 . S
C936 H925 0.950 . S
C936 C934 1.391 . S
C936 C937 1.400 . S
C937 C931 1.491 . S
C937 C936 1.400 . S
C937 C938 1.398 . S
C938 H926 0.950 . S
C938 C937 1.398 . S
C938 C939 1.391 . S
C939 H927 0.950 . S
C939 C935 1.393 . S
C939 C938 1.391 . S
H940 C948 0.950 . S
H941 C953 0.950 . S
H942 C950 0.950 1_565 S
H943 C952 0.950 . S
H944 C954 0.950 . S
H945 C956 0.933 1_545 S
H946 C958 0.950 . S
H947 C959 0.950 . S
C948 H940 0.950 . S
C948 C949 1.386 . S
C948 C950 1.391 . S
C949 C948 1.386 . S
C949 C953 1.393 . S
C950 H942 0.950 1_545 S
C950 C948 1.391 . S
C950 C951 1.400 . S
C951 C950 1.400 . S
C951 C952 1.398 . S
C951 C957 1.491 1_545 S
C952 H943 0.950 . S
C952 C951 1.398 . S
C952 C953 1.391 . S
C953 H941 0.950 . S
C953 C949 1.393 . S
C953 C952 1.391 . S
C954 H944 0.950 . S
C954 C955 1.386 . S
C954 C956 1.391 . S
C955 C954 1.386 . S
C955 C959 1.393 . S
C956 H945 0.933 1_565 S
C956 C954 1.391 . S
C956 C957 1.400 . S
C957 C951 1.491 1_565 S
C957 C956 1.400 . S
C957 C958 1.398 . S
C958 H946 0.950 . S
C958 C957 1.398 . S
C958 C959 1.391 . S
C959 H947 0.950 . S
C959 C955 1.393 . S
C959 C958 1.391 . S
H960 C968 0.950 . S
H961 C973 0.950 . S
H962 C970 0.950 . S
H963 C972 0.950 . S
H964 C974 0.950 . S
H965 C976 0.950 . S
H966 C978 0.950 . S
H967 C979 0.950 . S
C968 H960 0.950 . S
C968 C969 1.386 . S
C968 C970 1.391 . S
C969 C968 1.386 . S
C969 C973 1.393 . S
C970 H962 0.950 . S
C970 C968 1.391 . S
C970 C971 1.400 . S
C971 C970 1.400 . S
C971 C972 1.398 . S
C971 C977 1.491 . S
C972 H963 0.950 . S
C972 C971 1.398 . S
C972 C973 1.391 . S
C973 H961 0.950 . S
C973 C969 1.393 . S
C973 C972 1.391 . S
C974 H964 0.950 . S
C974 C975 1.386 . S
C974 C976 1.391 . S
C975 C974 1.386 . S
C975 C979 1.393 . S
C976 H965 0.950 . S
C976 C974 1.391 . S
C976 C977 1.400 . S
C977 C971 1.491 . S
C977 C976 1.400 . S
C977 C978 1.398 . S
C978 H966 0.950 . S
C978 C977 1.398 . S
C978 C979 1.391 . S
C979 H967 0.950 . S
C979 C975 1.393 . S
C979 C978 1.391 . S
H980 C988 0.950 . S
H981 C993 0.950 . S
H982 C990 0.950 . S
H983 C992 0.950 . S
H984 C994 0.950 . S
H985 C996 0.950 . S
H986 C998 0.950 . S
H987 C999 0.950 . S
C988 H980 0.950 . S
C988 C989 1.386 . S
C988 C990 1.391 . S
C989 C988 1.386 . S
C989 C993 1.393 . S
C990 H982 0.950 . S
C990 C988 1.391 . S
C990 C991 1.400 . S
C991 C990 1.400 . S
C991 C992 1.398 . S
C991 C997 1.491 . S
C992 H983 0.950 . S
C992 C991 1.398 . S
C992 C993 1.391 . S
C993 H981 0.950 . S
C993 C989 1.393 . S
C993 C992 1.391 . S
C994 H984 0.950 . S
C994 C995 1.386 . S
C994 C996 1.391 . S
C995 C994 1.386 . S
C995 C999 1.393 . S
C996 H985 0.950 . S
C996 C994 1.391 . S
C996 C997 1.400 . S
C997 C991 1.491 . S
C997 C996 1.400 . S
C997 C998 1.398 . S
C998 H986 0.950 . S
C998 C997 1.398 . S
C998 C999 1.391 . S
C999 H987 0.950 . S
C999 C995 1.393 . S
C999 C998 1.391 . S
H1000 C1008 0.950 . S
H1001 C1013 0.950 . S
H1002 C1010 0.950 . S
H1003 C1012 0.950 . S
H1004 C1014 0.950 . S
H1005 C1016 0.950 . S
H1006 C1018 0.950 . S
H1007 C1019 0.950 . S
C1008 H1000 0.950 . S
C1008 C1009 1.386 . S
C1008 C1010 1.391 . S
C1009 C1008 1.386 . S
C1009 C1013 1.393 . S
C1010 H1002 0.950 . S
C1010 C1008 1.391 . S
C1010 C1011 1.400 . S
C1011 C1010 1.400 . S
C1011 C1012 1.398 . S
C1011 C1017 1.491 . S
C1012 H1003 0.950 . S
C1012 C1011 1.398 . S
C1012 C1013 1.391 . S
C1013 H1001 0.950 . S
C1013 C1009 1.393 . S
C1013 C1012 1.391 . S
C1014 H1004 0.950 . S
C1014 C1015 1.386 . S
C1014 C1016 1.391 . S
C1015 C1014 1.386 . S
C1015 C1019 1.393 . S
C1016 H1005 0.950 . S
C1016 C1014 1.391 . S
C1016 C1017 1.400 . S
C1017 C1011 1.491 . S
C1017 C1016 1.400 . S
C1017 C1018 1.398 . S
C1018 H1006 0.950 . S
C1018 C1017 1.398 . S
C1018 C1019 1.391 . S
C1019 H1007 0.950 . S
C1019 C1015 1.393 . S
C1019 C1018 1.391 . S
H1020 C1028 0.950 . S
H1021 C1033 0.950 . S
H1022 C1030 0.950 . S
H1023 C1032 0.950 . S
H1024 C1034 0.950 . S
H1025 C1036 0.950 . S
H1026 C1038 0.950 . S
H1027 C1039 0.950 . S
C1028 H1020 0.950 . S
C1028 C1029 1.386 . S
C1028 C1030 1.391 . S
C1029 C1028 1.386 . S
C1029 C1033 1.393 . S
C1030 H1022 0.950 . S
C1030 C1028 1.391 . S
C1030 C1031 1.400 . S
C1031 C1030 1.400 . S
C1031 C1032 1.398 . S
C1031 C1037 1.491 . S
C1032 H1023 0.950 . S
C1032 C1031 1.398 . S
C1032 C1033 1.391 . S
C1033 H1021 0.950 . S
C1033 C1029 1.393 . S
C1033 C1032 1.391 . S
C1034 H1024 0.950 . S
C1034 C1035 1.386 . S
C1034 C1036 1.391 . S
C1035 C1034 1.386 . S
C1035 C1039 1.393 . S
C1036 H1025 0.950 . S
C1036 C1034 1.391 . S
C1036 C1037 1.400 . S
C1037 C1031 1.491 . S
C1037 C1036 1.400 . S
C1037 C1038 1.398 . S
C1038 H1026 0.950 . S
C1038 C1037 1.398 . S
C1038 C1039 1.391 . S
C1039 H1027 0.950 . S
C1039 C1035 1.393 . S
C1039 C1038 1.391 . S
H1040 C1048 0.950 . S
H1041 C1053 0.950 . S
H1042 C1050 0.950 . S
H1043 C1052 0.950 . S
H1044 C1054 0.950 . S
H1045 C1056 0.950 . S
H1046 C1058 0.950 . S
H1047 C1059 0.950 . S
C1048 H1040 0.950 . S
C1048 C1049 1.386 . S
C1048 C1050 1.391 . S
C1049 C1048 1.386 . S
C1049 C1053 1.393 . S
C1050 H1042 0.950 . S
C1050 C1048 1.391 . S
C1050 C1051 1.400 . S
C1051 C1050 1.400 . S
C1051 C1052 1.398 . S
C1051 C1057 1.491 . S
C1052 H1043 0.950 . S
C1052 C1051 1.398 . S
C1052 C1053 1.391 . S
C1053 H1041 0.950 . S
C1053 C1049 1.393 . S
C1053 C1052 1.391 . S
C1054 H1044 0.950 . S
C1054 C1055 1.386 . S
C1054 C1056 1.391 . S
C1055 C1054 1.386 . S
C1055 C1059 1.393 . S
C1056 H1045 0.950 . S
C1056 C1054 1.391 . S
C1056 C1057 1.400 . S
C1057 C1051 1.491 . S
C1057 C1056 1.400 . S
C1057 C1058 1.398 . S
C1058 H1046 0.950 . S
C1058 C1057 1.398 . S
C1058 C1059 1.391 . S
C1059 H1047 0.950 . S
C1059 C1055 1.393 . S
C1059 C1058 1.391 . S
H1060 C1068 0.950 . S
H1061 C1073 0.950 . S
H1062 C1070 0.950 . S
H1063 C1072 0.950 . S
H1064 C1074 0.950 . S
H1065 C1076 0.950 . S
H1066 C1078 0.950 . S
H1067 C1079 0.950 . S
C1068 H1060 0.950 . S
C1068 C1069 1.386 . S
C1068 C1070 1.391 . S
C1069 C1068 1.386 . S
C1069 C1073 1.393 . S
C1070 H1062 0.950 . S
C1070 C1068 1.391 . S
C1070 C1071 1.400 . S
C1071 C1070 1.400 . S
C1071 C1072 1.398 . S
C1071 C1077 1.491 . S
C1072 H1063 0.950 . S
C1072 C1071 1.398 . S
C1072 C1073 1.391 . S
C1073 H1061 0.950 . S
C1073 C1069 1.393 . S
C1073 C1072 1.391 . S
C1074 H1064 0.950 . S
C1074 C1075 1.386 . S
C1074 C1076 1.391 . S
C1075 C1074 1.386 . S
C1075 C1079 1.393 . S
C1076 H1065 0.950 . S
C1076 C1074 1.391 . S
C1076 C1077 1.400 . S
C1077 C1071 1.491 . S
C1077 C1076 1.400 . S
C1077 C1078 1.398 . S
C1078 H1066 0.950 . S
C1078 C1077 1.398 . S
C1078 C1079 1.391 . S
C1079 H1067 0.950 . S
C1079 C1075 1.393 . S
C1079 C1078 1.391 . S
H1080 C1088 0.950 . S
H1081 C1093 0.950 . S
H1082 C1090 0.950 . S
H1083 C1092 0.950 . S
H1084 C1094 0.950 1_556 S
H1085 C1096 0.950 . S
H1086 C1098 0.950 . S
H1087 C1099 0.950 . S
C1088 H1080 0.950 . S
C1088 C1089 1.386 . S
C1088 C1090 1.391 . S
C1089 C1088 1.386 . S
C1089 C1093 1.393 . S
C1090 H1082 0.950 . S
C1090 C1088 1.391 . S
C1090 C1091 1.400 . S
C1091 C1090 1.400 . S
C1091 C1092 1.398 . S
C1091 C1097 1.491 1_455 S
C1092 H1083 0.950 . S
C1092 C1091 1.398 . S
C1092 C1093 1.391 . S
C1093 H1081 0.950 . S
C1093 C1089 1.393 . S
C1093 C1092 1.391 . S
C1094 H1084 0.950 1_554 S
C1094 C1095 1.386 . S
C1094 C1096 1.391 . S
C1095 C1094 1.386 . S
C1095 C1099 1.393 . S
C1096 H1085 0.950 . S
C1096 C1094 1.391 . S
C1096 C1097 1.400 . S
C1097 C1091 1.491 1_655 S
C1097 C1096 1.400 . S
C1097 C1098 1.398 . S
C1098 H1086 0.950 . S
C1098 C1097 1.398 . S
C1098 C1099 1.391 . S
C1099 H1087 0.950 . S
C1099 C1095 1.393 . S
C1099 C1098 1.391 . S
H1100 C1108 0.950 . S
H1101 C1113 0.950 . S
H1102 C1110 0.950 . S
H1103 C1112 0.950 . S
H1104 C1114 0.950 . S
H1105 C1116 0.950 . S
H1106 C1118 0.950 . S
H1107 C1119 0.950 . S
C1108 H1100 0.950 . S
C1108 C1109 1.386 . S
C1108 C1110 1.391 . S
C1109 C1108 1.386 . S
C1109 C1113 1.393 . S
C1110 H1102 0.950 . S
C1110 C1108 1.391 . S
C1110 C1111 1.400 . S
C1111 C1110 1.400 . S
C1111 C1112 1.398 . S
C1111 C1117 1.491 . S
C1112 H1103 0.950 . S
C1112 C1111 1.398 . S
C1112 C1113 1.391 . S
C1113 H1101 0.950 . S
C1113 C1109 1.393 . S
C1113 C1112 1.391 . S
C1114 H1104 0.950 . S
C1114 C1115 1.386 . S
C1114 C1116 1.391 . S
C1115 C1114 1.386 . S
C1115 C1119 1.393 . S
C1116 H1105 0.950 . S
C1116 C1114 1.391 . S
C1116 C1117 1.400 . S
C1117 C1111 1.491 . S
C1117 C1116 1.400 . S
C1117 C1118 1.398 . S
C1118 H1106 0.950 . S
C1118 C1117 1.398 . S
C1118 C1119 1.391 . S
C1119 H1107 0.950 . S
C1119 C1115 1.393 . S
C1119 C1118 1.391 . S
H1120 C1128 0.950 . S
H1121 C1133 0.950 . S
H1122 C1130 0.950 . S
H1123 C1132 0.950 . S
H1124 C1134 0.950 . S
H1125 C1136 0.950 . S
H1126 C1138 0.950 . S
H1127 C1139 0.950 . S
C1128 H1120 0.950 . S
C1128 C1129 1.386 . S
C1128 C1130 1.391 . S
C1129 C1128 1.386 . S
C1129 C1133 1.393 . S
C1130 H1122 0.950 . S
C1130 C1128 1.391 . S
C1130 C1131 1.400 . S
C1131 C1130 1.400 . S
C1131 C1132 1.398 . S
C1131 C1137 1.491 . S
C1132 H1123 0.950 . S
C1132 C1131 1.398 . S
C1132 C1133 1.391 . S
C1133 H1121 0.950 . S
C1133 C1129 1.393 . S
C1133 C1132 1.391 . S
C1134 H1124 0.950 . S
C1134 C1135 1.386 . S
C1134 C1136 1.391 . S
C1135 C1134 1.386 . S
C1135 C1139 1.393 . S
C1136 H1125 0.950 . S
C1136 C1134 1.391 . S
C1136 C1137 1.400 . S
C1137 C1131 1.491 . S
C1137 C1136 1.400 . S
C1137 C1138 1.398 . S
C1138 H1126 0.950 . S
C1138 C1137 1.398 . S
C1138 C1139 1.391 . S
C1139 H1127 0.950 . S
C1139 C1135 1.393 . S
C1139 C1138 1.391 . S
H1140 C1148 0.950 . S
H1141 C1153 0.950 . S
H1142 C1150 0.950 . S
H1143 C1152 0.950 . S
H1144 C1154 0.950 . S
H1145 C1156 0.950 . S
H1146 C1158 0.950 . S
H1147 C1159 0.950 . S
C1148 H1140 0.950 . S
C1148 C1149 1.386 . S
C1148 C1150 1.391 . S
C1149 C1148 1.386 . S
C1149 C1153 1.393 . S
C1150 H1142 0.950 . S
C1150 C1148 1.391 . S
C1150 C1151 1.400 . S
C1151 C1150 1.400 . S
C1151 C1152 1.398 . S
C1151 C1157 1.491 . S
C1152 H1143 0.950 . S
C1152 C1151 1.398 . S
C1152 C1153 1.391 . S
C1153 H1141 0.950 . S
C1153 C1149 1.393 . S
C1153 C1152 1.391 . S
C1154 H1144 0.950 . S
C1154 C1155 1.386 . S
C1154 C1156 1.391 . S
C1155 C1154 1.386 . S
C1155 C1159 1.393 . S
C1156 H1145 0.950 . S
C1156 C1154 1.391 . S
C1156 C1157 1.400 . S
C1157 C1151 1.491 . S
C1157 C1156 1.400 . S
C1157 C1158 1.398 . S
C1158 H1146 0.950 . S
C1158 C1157 1.398 . S
C1158 C1159 1.391 . S
C1159 H1147 0.950 . S
C1159 C1155 1.393 . S
C1159 C1158 1.391 . S
H1160 C1168 0.950 . S
H1161 C1173 0.950 . S
H1162 C1170 0.950 . S
H1163 C1172 0.950 . S
H1164 C1174 0.950 . S
H1165 C1176 0.950 . S
H1166 C1178 0.950 . S
H1167 C1179 0.950 . S
C1168 H1160 0.950 . S
C1168 C1169 1.386 . S
C1168 C1170 1.391 . S
C1169 C1168 1.386 . S
C1169 C1173 1.393 . S
C1170 H1162 0.950 . S
C1170 C1168 1.391 . S
C1170 C1171 1.400 . S
C1171 C1170 1.400 . S
C1171 C1172 1.398 . S
C1171 C1177 1.491 . S
C1172 H1163 0.950 . S
C1172 C1171 1.398 . S
C1172 C1173 1.391 . S
C1173 H1161 0.950 . S
C1173 C1169 1.393 . S
C1173 C1172 1.391 . S
C1174 H1164 0.950 . S
C1174 C1175 1.386 . S
C1174 C1176 1.391 . S
C1175 C1174 1.386 . S
C1175 C1179 1.393 . S
C1176 H1165 0.950 . S
C1176 C1174 1.391 . S
C1176 C1177 1.400 . S
C1177 C1171 1.491 . S
C1177 C1176 1.400 . S
C1177 C1178 1.398 . S
C1178 H1166 0.950 . S
C1178 C1177 1.398 . S
C1178 C1179 1.391 . S
C1179 H1167 0.950 . S
C1179 C1175 1.393 . S
C1179 C1178 1.391 . S
H1180 C1188 0.950 . S
H1181 C1193 0.950 . S
H1182 C1190 0.950 . S
H1183 C1192 0.950 . S
H1184 C1194 0.950 . S
H1185 C1196 0.950 . S
H1186 C1198 0.950 . S
H1187 C1199 0.950 . S
C1188 H1180 0.950 . S
C1188 C1189 1.386 . S
C1188 C1190 1.391 . S
C1189 C1188 1.386 . S
C1189 C1193 1.393 . S
C1190 H1182 0.950 . S
C1190 C1188 1.391 . S
C1190 C1191 1.400 . S
C1191 C1190 1.400 . S
C1191 C1192 1.398 . S
C1191 C1197 1.491 . S
C1192 H1183 0.950 . S
C1192 C1191 1.398 . S
C1192 C1193 1.391 . S
C1193 H1181 0.950 . S
C1193 C1189 1.393 . S
C1193 C1192 1.391 . S
C1194 H1184 0.950 . S
C1194 C1195 1.386 . S
C1194 C1196 1.391 1_455 S
C1195 C1194 1.386 . S
C1195 C1199 1.393 . S
C1196 H1185 0.950 . S
C1196 C1194 1.391 1_655 S
C1196 C1197 1.400 . S
C1197 C1191 1.491 . S
C1197 C1196 1.400 . S
C1197 C1198 1.398 . S
C1198 H1186 0.950 . S
C1198 C1197 1.398 . S
C1198 C1199 1.391 1_655 S
C1199 H1187 0.950 . S
C1199 C1195 1.393 . S
C1199 C1198 1.391 1_455 S
C489 C11 1.243 . S
C495 C459 1.276 . S
C509 C371 1.818 . S
C515 C59 1.887 . S
C529 C91 1.284 . S
C535 C339 1.328 . S
C549 C139 2.001 . S
C555 C419 1.999 . S
C569 C179 1.805 . S
C575 C411 1.732 . S
C589 C211 1.465 . S
C595 C451 1.496 . S
C609 C379 1.903 . S
C615 C259 1.914 . S
C629 C291 1.566 . S
C635 C331 1.579 . S
C649 C131 1.597 . S
C655 C171 1.633 . S
C669 C19 1.587 . S
C675 C219 1.587 . S
C689 C51 1.593 . S
C695 C251 1.616 . S
C709 C299 1.803 . S
C715 C99 1.807 . S
C729 C16 1.936 . S
C735 C330 1.933 . S
C749 C47 1.293 . S
C755 C410 1.262 . S
C769 C450 1.946 . S
C775 C96 1.951 . S
C789 C127 1.568 . S
C795 C362 1.559 . S
C809 C167 1.171 . S
C815 C370 1.122 . S
C829 C322 2.157 . S
C835 C216 2.053 . S
C849 C402 1.444 . S
C855 C247 1.452 . S
C869 C442 2.171 . S
C875 C296 2.078 . S
C889 C10 2.394 . S
C895 C136 2.400 . S
C909 C7 1.753 . S
C915 C42 1.732 . S
C929 C56 2.162 . S
C935 C90 2.169 . S
C949 C122 1.608 . S
C955 C87 1.631 . S
C969 C207 1.538 . S
C975 C162 1.509 . S
C989 C210 1.341 . S
C995 C256 1.349 . S
C1009 C242 1.422 . S
C1015 C287 1.442 . S
C1029 C176 1.121 . S
C1035 C290 1.127 . S
C1049 C336 1.487 . S
C1055 C130 1.468 . S
C1069 C202 2.143 . S
C1075 C376 2.062 . S
C1089 C327 1.408 . S
C1095 C250 1.350 . S
C1109 C407 1.816 . S
C1115 C282 1.794 . S
C1129 C170 1.281 . S
C1135 C447 1.346 . S
C1149 C456 1.449 . S
C1155 C50 1.435 . S
C1169 C82 1.665 . S
C1175 C367 1.680 . S
C1189 C416 1.951 . S
C1195 C2 2.048 . S
