# Generated by pormake.
# Topology wfu, (7)-cn, num edge types: 1
# Building blocks:
#     Node 0, Type 0, BuildingBlock: NUHQUE_clean_sbu_2, # of connection points: 7
#     Node 1, Type 0, BuildingBlock: NUHQUE_clean_sbu_2, # of connection points: 7
#     Node 2, Type 0, BuildingBlock: NUHQUE_clean_sbu_2, # of connection points: 7
#     Node 3, Type 0, BuildingBlock: NUHQUE_clean_sbu_2, # of connection points: 7
#     Node 4, Type 0, BuildingBlock: NUHQUE_clean_sbu_2, # of connection points: 7
#     Node 5, Type 0, BuildingBlock: NUHQUE_clean_sbu_2, # of connection points: 7
#     Node 6, Type 0, BuildingBlock: NUHQUE_clean_sbu_2, # of connection points: 7
#     Node 7, Type 0, BuildingBlock: NUHQUE_clean_sbu_2, # of connection points: 7
#     Edge 8, Type (0, 0), BuildingBlock: TEMPAE_clean_linker_10, # of connection points: 2
#     Edge 9, Type (0, 0), BuildingBlock: TEMPAE_clean_linker_10, # of connection points: 2
#     Edge 10, Type (0, 0), BuildingBlock: TEMPAE_clean_linker_10, # of connection points: 2
#     Edge 11, Type (0, 0), BuildingBlock: TEMPAE_clean_linker_10, # of connection points: 2
#     Edge 12, Type (0, 0), BuildingBlock: TEMPAE_clean_linker_10, # of connection points: 2
#     Edge 13, Type (0, 0), BuildingBlock: TEMPAE_clean_linker_10, # of connection points: 2
#     Edge 14, Type (0, 0), BuildingBlock: TEMPAE_clean_linker_10, # of connection points: 2
#     Edge 15, Type (0, 0), BuildingBlock: TEMPAE_clean_linker_10, # of connection points: 2
#     Edge 16, Type (0, 0), BuildingBlock: TEMPAE_clean_linker_10, # of connection points: 2
#     Edge 17, Type (0, 0), BuildingBlock: TEMPAE_clean_linker_10, # of connection points: 2
#     Edge 18, Type (0, 0), BuildingBlock: TEMPAE_clean_linker_10, # of connection points: 2
#     Edge 19, Type (0, 0), BuildingBlock: TEMPAE_clean_linker_10, # of connection points: 2
#     Edge 20, Type (0, 0), BuildingBlock: TEMPAE_clean_linker_10, # of connection points: 2
#     Edge 21, Type (0, 0), BuildingBlock: TEMPAE_clean_linker_10, # of connection points: 2
#     Edge 22, Type (0, 0), BuildingBlock: TEMPAE_clean_linker_10, # of connection points: 2
#     Edge 23, Type (0, 0), BuildingBlock: TEMPAE_clean_linker_10, # of connection points: 2
#     Edge 24, Type (0, 0), BuildingBlock: TEMPAE_clean_linker_10, # of connection points: 2
#     Edge 25, Type (0, 0), BuildingBlock: TEMPAE_clean_linker_10, # of connection points: 2
#     Edge 26, Type (0, 0), BuildingBlock: TEMPAE_clean_linker_10, # of connection points: 2
#     Edge 27, Type (0, 0), BuildingBlock: TEMPAE_clean_linker_10, # of connection points: 2
#     Edge 28, Type (0, 0), BuildingBlock: TEMPAE_clean_linker_10, # of connection points: 2
#     Edge 29, Type (0, 0), BuildingBlock: TEMPAE_clean_linker_10, # of connection points: 2
#     Edge 30, Type (0, 0), BuildingBlock: TEMPAE_clean_linker_10, # of connection points: 2
#     Edge 31, Type (0, 0), BuildingBlock: TEMPAE_clean_linker_10, # of connection points: 2
#     Edge 32, Type (0, 0), BuildingBlock: TEMPAE_clean_linker_10, # of connection points: 2
#     Edge 33, Type (0, 0), BuildingBlock: TEMPAE_clean_linker_10, # of connection points: 2
#     Edge 34, Type (0, 0), BuildingBlock: TEMPAE_clean_linker_10, # of connection points: 2
#     Edge 35, Type (0, 0), BuildingBlock: TEMPAE_clean_linker_10, # of connection points: 2
# Relax obj value: 0.202
# Max RMSD: 0.201
# Mean RMSD: 0.201
data_MOF--net-wfu--node1-NUHQUE_clean_sbu_2--edge1-TEMPAE_clean_linker_10
_symmetry_space_group_name_H-M    P1
_symmetry_Int_Tables_number       1
_symmetry_cell_setting            triclinic
loop_
_symmetry_equiv_pos_as_xyz
'x, y, z'
_cell_length_a     37.109742
_cell_length_b     37.111434
_cell_length_c     31.29827
_cell_angle_alpha  90.342892
_cell_angle_beta   89.698381
_cell_angle_gamma 89.066539
loop_
_atom_site_label
_atom_site_type_symbol
_atom_site_fract_x
_atom_site_fract_y
_atom_site_fract_z
_atom_type_partial_charge
O0 O 0.33038 0.4687 0.19169 0.0
Tb1 Tb 0.36188 0.42765 0.15713 0.0
Eu2 Eu 0.35952 0.37523 0.25057 0.0
C3 C 0.34389 0.50134 0.19058 0.0
O4 O 0.37578 0.50491 0.17276 0.0
C5 C 0.41375 0.43874 0.2315 0.0
O6 O 0.40697 0.35525 0.21151 0.0
C7 C 0.35181 0.34294 0.32366 0.0
C8 C 0.40823 0.32438 0.19075 0.0
O9 O 0.38228 0.30115 0.19615 0.0
C10 C 0.31986 0.35789 0.16487 0.0
C11 C 0.33136 0.314 0.34505 0.0
C12 C 0.32111 0.3182 0.38844 0.0
C13 C 0.3045 0.28985 0.41036 0.0
C14 C 0.29741 0.25788 0.38825 0.0
C15 C 0.30769 0.2528 0.34538 0.0
C16 C 0.32429 0.28125 0.32367 0.0
O17 O 0.41229 0.43029 0.1908 0.0
O18 O 0.38801 0.42916 0.25847 0.0
O19 O 0.33667 0.44295 0.09711 0.0
O20 O 0.39354 0.44673 0.10282 0.0
C21 C 0.36624 0.4512 0.07735 0.0
O22 O 0.31345 0.36037 0.2062 0.0
O23 O 0.34934 0.37155 0.14936 0.0
O24 O 0.37557 0.33284 0.29439 0.0
O25 O 0.33411 0.37279 0.31375 0.0
H26 H 0.32699 0.34296 0.40536 0.0
H27 H 0.28342 0.23664 0.40486 0.0
H28 H 0.33258 0.27756 0.29066 0.0
O29 O 0.49417 0.7368 0.85151 0.0
Tb30 Tb 0.44198 0.71824 0.87197 0.0
Eu31 Eu 0.3793 0.68419 0.777 0.0
C32 C 0.50335 0.74203 0.81145 0.0
O33 O 0.48007 0.73597 0.78087 0.0
C34 C 0.45379 0.64983 0.81208 0.0
O35 O 0.36373 0.63199 0.80745 0.0
C36 C 0.3565 0.69797 0.70039 0.0
C37 C 0.36567 0.6323 0.84936 0.0
O38 O 0.37479 0.66231 0.86852 0.0
C39 C 0.36643 0.74228 0.84785 0.0
C40 C 0.32608 0.71759 0.68002 0.0
C41 C 0.33152 0.73608 0.64112 0.0
C42 C 0.30277 0.75502 0.62167 0.0
C43 C 0.26858 0.75403 0.64077 0.0
C44 C 0.26264 0.73569 0.67904 0.0
C45 C 0.29157 0.71806 0.69914 0.0
O46 O 0.45222 0.6626 0.85162 0.0
O47 O 0.43858 0.66693 0.77954 0.0
O48 O 0.45514 0.74778 0.93001 0.0
O49 O 0.42596 0.69938 0.93559 0.0
C50 C 0.44075 0.72555 0.95688 0.0
O51 O 0.34876 0.71935 0.8244 0.0
O52 O 0.40032 0.74684 0.83794 0.0
O53 O 0.34869 0.66823 0.72116 0.0
O54 O 0.38031 0.71795 0.72023 0.0
H55 H 0.35803 0.73609 0.62645 0.0
H56 H 0.24602 0.7677 0.62556 0.0
H57 H 0.28705 0.70424 0.72906 0.0
O58 O 0.72396 0.5496 0.2045 0.0
Tb59 Tb 0.70629 0.59749 0.17049 0.0
Eu60 Eu 0.66776 0.6637 0.25204 0.0
C61 C 0.70675 0.51952 0.1971 0.0
O62 O 0.6785 0.52072 0.17198 0.0
C63 C 0.63578 0.58883 0.2243 0.0
O64 O 0.61345 0.68102 0.22587 0.0
C65 C 0.68952 0.68793 0.32543 0.0
C66 C 0.61011 0.6753 0.18449 0.0
O67 O 0.6383 0.66234 0.16366 0.0
C68 C 0.72738 0.67571 0.18033 0.0
C69 C 0.71317 0.71666 0.34135 0.0
C70 C 0.73013 0.71342 0.38157 0.0
C71 C 0.75389 0.74018 0.39611 0.0
C72 C 0.75993 0.77002 0.36982 0.0
C73 C 0.74344 0.77341 0.32983 0.0
C74 C 0.71994 0.74678 0.31574 0.0
O75 O 0.64908 0.59148 0.18537 0.0
O76 O 0.6509 0.60547 0.25667 0.0
O77 O 0.73556 0.57123 0.11804 0.0
O78 O 0.69229 0.60708 0.10349 0.0
C79 C 0.71702 0.58569 0.08729 0.0
O80 O 0.69873 0.69002 0.19873 0.0
O81 O 0.73769 0.6431 0.19112 0.0
O82 O 0.65887 0.69827 0.30772 0.0
O83 O 0.70605 0.6616 0.30435 0.0
H84 H 0.7251 0.69003 0.40113 0.0
H85 H 0.7766 0.79176 0.3812 0.0
H86 H 0.70712 0.74942 0.28483 0.0
O87 O 0.54645 0.30403 0.79729 0.0
Tb88 Tb 0.58181 0.33106 0.84185 0.0
Eu89 Eu 0.65889 0.36605 0.77867 0.0
C90 C 0.51992 0.32159 0.77843 0.0
O91 O 0.51992 0.35696 0.77844 0.0
C92 C 0.58371 0.40688 0.79625 0.0
O93 O 0.68175 0.41464 0.81198 0.0
C94 C 0.69183 0.34276 0.70986 0.0
C95 C 0.67028 0.41913 0.85156 0.0
O96 O 0.64815 0.39521 0.8671 0.0
C97 C 0.66049 0.30356 0.85071 0.0
C98 C 0.72215 0.31922 0.69441 0.0
C99 C 0.71837 0.29972 0.65569 0.0
C100 C 0.74709 0.27835 0.63908 0.0
C101 C 0.77967 0.27745 0.66159 0.0
C102 C 0.78381 0.29543 0.70081 0.0
C103 C 0.75498 0.3167 0.71695 0.0
O104 O 0.58055 0.38932 0.83246 0.0
O105 O 0.60583 0.3954 0.76573 0.0
O106 O 0.53434 0.32228 0.88163 0.0
O107 O 0.58517 0.32658 0.91171 0.0
C108 C 0.55089 0.32181 0.91802 0.0
O109 O 0.67569 0.33244 0.83523 0.0
O110 O 0.62811 0.29416 0.83852 0.0
O111 O 0.7 0.37301 0.72964 0.0
O112 O 0.6636 0.32677 0.72654 0.0
H113 H 0.69307 0.30124 0.63862 0.0
H114 H 0.80266 0.26308 0.64791 0.0
H115 H 0.75799 0.33107 0.74693 0.0
O116 O 0.80083 0.03826 0.355 0.0
Tb117 Tb 0.81805 0.09144 0.37335 0.0
Eu118 Eu 0.8478 0.15616 0.27804 0.0
C119 C 0.79645 0.02811 0.31511 0.0
O120 O 0.80253 0.05094 0.28408 0.0
C121 C 0.88692 0.08127 0.31206 0.0
O122 O 0.89183 0.18277 0.31503 0.0
C123 C 0.8341 0.1791 0.20155 0.0
C124 C 0.88946 0.17618 0.35611 0.0
O125 O 0.86428 0.15442 0.36915 0.0
C126 C 0.78835 0.16507 0.34798 0.0
C127 C 0.81516 0.20989 0.18113 0.0
C128 C 0.79616 0.20459 0.14256 0.0
C129 C 0.77747 0.23353 0.12323 0.0
C130 C 0.77925 0.26778 0.14208 0.0
C131 C 0.79807 0.27357 0.18008 0.0
C132 C 0.81547 0.24445 0.20008 0.0
O133 O 0.87353 0.08181 0.35142 0.0
O134 O 0.87188 0.09879 0.27954 0.0
O135 O 0.78918 0.08029 0.43249 0.0
O136 O 0.83827 0.10855 0.43596 0.0
C137 C 0.8121 0.09498 0.45831 0.0
O138 O 0.80879 0.18434 0.32329 0.0
O139 O 0.78696 0.13075 0.3386 0.0
O140 O 0.86428 0.1861 0.22192 0.0
O141 O 0.81351 0.15605 0.22177 0.0
H142 H 0.79545 0.17799 0.12812 0.0
H143 H 0.76567 0.29044 0.12699 0.0
H144 H 0.82959 0.24882 0.22986 0.0
O145 O 0.06131 0.24361 0.71796 0.0
Tb146 Tb 0.08483 0.20071 0.67843 0.0
Eu147 Eu 0.15752 0.17507 0.74847 0.0
C148 C 0.03907 0.2366 0.74969 0.0
O149 O 0.04101 0.20493 0.76804 0.0
C150 C 0.07866 0.13233 0.74035 0.0
O151 O 0.18442 0.13524 0.70278 0.0
C152 C 0.19034 0.18382 0.82098 0.0
C153 C 0.16435 0.12225 0.67193 0.0
O154 O 0.13038 0.13228 0.67043 0.0
C155 C 0.16428 0.22275 0.66625 0.0
C156 C 0.21841 0.20566 0.84176 0.0
C157 C 0.21668 0.21195 0.8863 0.0
C158 C 0.24468 0.22996 0.90722 0.0
C159 C 0.27388 0.24217 0.88303 0.0
C160 C 0.27558 0.23748 0.83846 0.0
C161 C 0.24768 0.21889 0.818 0.0
O162 O 0.06567 0.15283 0.70971 0.0
O163 O 0.10983 0.13782 0.75965 0.0
O164 O 0.05704 0.23156 0.62889 0.0
O165 O 0.05822 0.17444 0.62501 0.0
C166 C 0.04738 0.20384 0.60649 0.0
O167 O 0.17035 0.22382 0.70753 0.0
O168 O 0.13867 0.20241 0.65177 0.0
O169 O 0.20126 0.16075 0.7913 0.0
O170 O 0.15968 0.20029 0.81164 0.0
H171 H 0.19415 0.20201 0.90472 0.0
H172 H 0.29565 0.2555 0.89942 0.0
H173 H 0.24866 0.21467 0.78372 0.0
O174 O 0.21961 0.98625 0.29855 0.0
Tb175 Tb 0.20397 0.94275 0.34088 0.0
Eu176 Eu 0.16479 0.8665 0.27815 0.0
C177 C 0.20123 0.01679 0.30195 0.0
O178 O 0.17211 0.01722 0.32597 0.0
C179 C 0.12651 0.94316 0.29766 0.0
O180 O 0.11545 0.84564 0.31156 0.0
C181 C 0.1861 0.83313 0.20879 0.0
C182 C 0.11172 0.85723 0.35117 0.0
O183 O 0.13681 0.87811 0.36661 0.0
C184 C 0.22951 0.86412 0.34604 0.0
C185 C 0.20994 0.80354 0.19175 0.0
C186 C 0.2311 0.81012 0.15489 0.0
C187 C 0.25262 0.78252 0.1362 0.0
C188 C 0.25205 0.74815 0.15437 0.0
C189 C 0.23117 0.7407 0.19053 0.0
C190 C 0.21044 0.7686 0.20976 0.0
O191 O 0.1454 0.94659 0.33302 0.0
O192 O 0.13677 0.92069 0.2668 0.0
O193 O 0.23107 0.97938 0.38459 0.0
O194 O 0.19595 0.94056 0.41033 0.0
C195 C 0.21725 0.96697 0.41959 0.0
O196 O 0.19947 0.84936 0.33348 0.0
O197 O 0.23882 0.89562 0.33097 0.0
O198 O 0.157 0.82433 0.23047 0.0
O199 O 0.20179 0.8622 0.22377 0.0
H200 H 0.23065 0.8367 0.1407 0.0
H201 H 0.26753 0.72634 0.13956 0.0
H202 H 0.19416 0.76287 0.23766 0.0
O203 O 0.98548 0.80833 0.70504 0.0
Tb204 Tb 0.93698 0.82627 0.67238 0.0
Eu205 Eu 0.86956 0.86621 0.75177 0.0
C206 C 1.01548 0.82519 0.69617 0.0
O207 O 1.0138 0.85293 0.67031 0.0
C208 C 0.94581 0.89726 0.72609 0.0
O209 O 0.85182 0.92001 0.72484 0.0
C210 C 0.84395 0.84491 0.82461 0.0
C211 C 0.858 0.92323 0.68357 0.0
O212 O 0.87262 0.8955 0.66335 0.0
C213 C 0.85875 0.80562 0.6812 0.0
C214 C 0.81471 0.82172 0.84004 0.0
C215 C 0.81722 0.80505 0.88043 0.0
C216 C 0.78994 0.78186 0.89477 0.0
C217 C 0.76028 0.77608 0.86805 0.0
C218 C 0.75766 0.79218 0.82774 0.0
C219 C 0.78485 0.81514 0.8139 0.0
O220 O 0.94425 0.88335 0.6873 0.0
O221 O 0.9276 0.88323 0.75796 0.0
O222 O 0.96158 0.79639 0.61934 0.0
O223 O 0.92661 0.84061 0.60567 0.0
C224 C 0.94702 0.81529 0.58897 0.0
O225 O 0.84424 0.83476 0.69821 0.0
O226 O 0.89108 0.79553 0.69339 0.0
O227 O 0.83425 0.87563 0.80663 0.0
O228 O 0.87037 0.82799 0.80414 0.0
H229 H 0.84049 0.80985 0.90031 0.0
H230 H 0.73814 0.75988 0.87928 0.0
H231 H 0.78285 0.8277 0.78278 0.0
C232 C 0.29786 0.34739 0.09147 0.0
C233 C 0.29701 0.33745 0.13464 0.0
C234 C 0.28232 0.32612 0.05968 0.0
C235 C 0.26505 0.29379 0.07102 0.0
C236 C 0.26187 0.28468 0.11493 0.0
C237 C 0.27801 0.30664 0.14638 0.0
C238 C 0.2865 0.33731 1.01355 0.0
C239 C 0.24321 0.25083 0.12859 0.0
C240 C 0.21678 0.25786 0.97332 0.0
C241 C 0.24452 0.23725 0.95415 0.0
C242 C 0.22133 0.27342 0.01416 0.0
C243 C 0.25444 0.26843 0.03601 0.0
C244 C 0.28082 0.24445 0.01859 0.0
C245 C 0.27549 0.22914 0.97802 0.0
C246 C 0.19208 0.29793 0.03201 0.0
C247 C 0.31645 0.238 0.04057 0.0
H248 H 0.31205 0.37145 0.08216 0.0
H249 H 0.27729 0.29873 0.17966 0.0
H250 H 0.30392 0.31738 0.9963 0.0
H251 H 0.25994 0.33789 0.99749 0.0
H252 H 0.29873 0.3643 1.01037 0.0
H253 H 0.23505 0.25215 0.16277 0.0
H254 H 0.21901 0.24594 0.10884 0.0
H255 H 0.26187 0.22743 0.12421 0.0
H256 H 0.19275 0.26417 0.9551 0.0
H257 H 0.29682 0.21282 0.96353 0.0
H258 H 0.19926 0.32639 0.02614 0.0
H259 H 0.18931 0.29443 0.06705 0.0
H260 H 0.16568 0.29287 0.01672 0.0
H261 H 0.33313 0.26245 0.03775 0.0
H262 H 0.33174 0.21489 0.02628 0.0
H263 H 0.3123 0.2328 0.07508 0.0
C264 C 0.36536 0.783 0.91247 0.0
C265 C 0.35181 0.75314 0.89044 0.0
C266 C 0.3512 0.79353 0.95265 0.0
C267 C 0.32362 0.77303 0.97186 0.0
C268 C 0.31032 0.74253 0.94992 0.0
C269 C 0.32414 0.73334 0.90936 0.0
C270 C 0.3658 0.82654 0.97449 0.0
C271 C 0.28185 0.71909 0.96961 0.0
C272 C 0.3082 0.77029 0.09191 0.0
C273 C 0.27433 0.78755 0.09625 0.0
C274 C 0.3255 0.76696 0.05202 0.0
C275 C 0.30919 0.78226 0.01544 0.0
C276 C 0.27675 0.80272 0.02026 0.0
C277 C 0.25953 0.80488 0.06052 0.0
C278 C 0.35991 0.7448 0.0486 0.0
C279 C 0.25904 0.82045 0.98236 0.0
H280 H 0.38672 0.79843 0.89801 0.0
H281 H 0.31369 0.71001 0.89282 0.0
H282 H 0.34337 0.84436 0.9858 0.0
H283 H 0.38159 0.81839 1.00292 0.0
H284 H 0.38356 0.84217 0.95304 0.0
H285 H 0.27493 0.69589 0.9488 0.0
H286 H 0.29141 0.70856 1.00075 0.0
H287 H 0.25697 0.73527 0.97593 0.0
H288 H 0.32037 0.75759 0.11953 0.0
H289 H 0.23347 0.81832 0.06338 0.0
H290 H 0.38115 0.7604 0.03242 0.0
H291 H 0.35521 0.72039 0.02885 0.0
H292 H 0.3701 0.73615 0.0803 0.0
H293 H 0.27926 0.83494 0.963 0.0
H294 H 0.23733 0.83977 0.99222 0.0
H295 H 0.2471 0.79954 0.96155 0.0
C296 C 0.80133 0.78333 0.97449 0.0
C297 C 0.79061 0.76436 0.93786 0.0
C298 C 0.79634 0.76892 0.01568 0.0
C299 C 0.77963 0.73505 0.02049 0.0
C300 C 0.77067 0.71495 0.98358 0.0
C301 C 0.77681 0.72954 0.94293 0.0
C302 C 0.8073 0.79077 0.05414 0.0
C303 C 0.75243 0.67893 0.98693 0.0
C304 C 0.7766 0.68281 0.12536 0.0
C305 C 0.74253 0.69291 0.14149 0.0
C306 C 0.78987 0.69755 0.08705 0.0
C307 C 0.76811 0.72212 0.06362 0.0
C308 C 0.73387 0.73264 0.0801 0.0
C309 C 0.72176 0.71832 0.11897 0.0
C310 C 0.82686 0.68627 0.07122 0.0
C311 C 0.70929 0.75799 0.05582 0.0
H312 H 0.81203 0.81017 0.97119 0.0
H313 H 0.76942 0.71408 0.91492 0.0
H314 H 0.78289 0.80172 0.07055 0.0
H315 H 0.82196 0.77352 0.07735 0.0
H316 H 0.82468 0.81366 0.04522 0.0
H317 H 0.74902 0.66575 0.95527 0.0
H318 H 0.76815 0.66047 1.00771 0.0
H319 H 0.72543 0.6827 1.00186 0.0
H320 H 0.79286 0.66328 0.14261 0.0
H321 H 0.69525 0.72609 0.13087 0.0
H322 H 0.84266 0.71031 0.06256 0.0
H323 H 0.8244 0.6695 0.04197 0.0
H324 H 0.84206 0.6705 0.09544 0.0
H325 H 0.72308 0.78372 0.04957 0.0
H326 H 0.68374 0.76401 0.07331 0.0
H327 H 0.70262 0.74592 0.02436 0.0
C328 C 0.72247 0.24712 0.08004 0.0
C329 C 0.75628 0.22977 0.08305 0.0
C330 C 0.70573 0.2525 0.04045 0.0
C331 C 0.72275 0.23945 1.00269 0.0
C332 C 0.75501 0.21857 1.00596 0.0
C333 C 0.77159 0.21418 0.04613 0.0
C334 C 0.67146 0.275 0.03882 0.0
C335 C 0.77336 0.20307 0.96671 0.0
C336 C 0.66607 0.25128 0.90189 0.0
C337 C 0.67889 0.28408 0.88619 0.0
C338 C 0.68148 0.23507 0.93833 0.0
C339 C 0.70969 0.25255 0.96025 0.0
C340 C 0.72339 0.28505 0.94368 0.0
C341 C 0.70816 0.3001 0.90679 0.0
C342 C 0.66666 0.19995 0.95417 0.0
C343 C 0.75295 0.30512 0.96624 0.0
H344 H 0.71011 0.2586 0.10862 0.0
H345 H 0.79761 0.20062 0.04815 0.0
H346 H 0.67712 0.30122 0.02348 0.0
H347 H 0.65084 0.26142 0.01926 0.0
H348 H 0.65999 0.28041 0.07113 0.0
H349 H 0.79375 0.18204 0.975 0.0
H350 H 0.75332 0.19123 0.94473 0.0
H351 H 0.78716 0.22487 0.94927 0.0
H352 H 0.64359 0.23855 0.88621 0.0
H353 H 0.71832 0.32548 0.89521 0.0
H354 H 0.64924 0.20514 0.98251 0.0
H355 H 0.6888 0.18143 0.96414 0.0
H356 H 0.65031 0.18632 0.92942 0.0
H357 H 0.74347 0.3137 0.99849 0.0
H358 H 0.76144 0.3294 0.94847 0.0
H359 H 0.77685 0.28722 0.97063 0.0
C360 C 0.79781 0.208 0.40887 0.0
C361 C 0.77862 0.17925 0.39125 0.0
C362 C 0.7896 0.22178 0.44973 0.0
C363 C 0.76031 0.2077 0.47321 0.0
C364 C 0.74045 0.17894 0.45538 0.0
C365 C 0.7503 0.16462 0.41498 0.0
C366 C 0.81278 0.25111 0.46807 0.0
C367 C 0.70895 0.16296 0.47884 0.0
C368 C 0.76327 0.2242 0.59339 0.0
C369 C 0.74481 0.2575 0.59783 0.0
C370 C 0.76757 0.20714 0.55342 0.0
C371 C 0.75164 0.22272 0.51679 0.0
C372 C 0.73029 0.2546 0.52154 0.0
C373 C 0.72746 0.27185 0.56181 0.0
C374 C 0.79049 0.17321 0.55021 0.0
C375 C 0.71151 0.27125 0.48367 0.0
H376 H 0.81999 0.21934 0.39104 0.0
H377 H 0.73537 0.14239 0.40163 0.0
H378 H 0.79638 0.27606 0.47298 0.0
H379 H 0.8233 0.24285 0.49973 0.0
H380 H 0.836 0.25742 0.447 0.0
H381 H 0.69072 0.14863 0.45667 0.0
H382 H 0.7191 0.14316 0.50248 0.0
H383 H 0.69312 0.18401 0.49633 0.0
H384 H 0.77565 0.21194 0.62114 0.0
H385 H 0.71297 0.29734 0.56456 0.0
H386 H 0.81192 0.17632 0.52569 0.0
H387 H 0.77353 0.15044 0.5401 0.0
H388 H 0.8034 0.16609 0.58105 0.0
H389 H 0.73178 0.28265 0.4616 0.0
H390 H 0.6923 0.29311 0.49336 0.0
H391 H 0.69665 0.25037 0.4657 0.0
C392 C 0.21724 0.26209 0.64599 0.0
C393 C 0.18887 0.2395 0.63432 0.0
C394 C 0.24021 0.27693 0.61465 0.0
C395 C 0.23495 0.2686 0.57078 0.0
C396 C 0.20618 0.24607 0.55907 0.0
C397 C 0.18358 0.23214 0.5907 0.0
C398 C 0.27034 0.3011 0.62845 0.0
C399 C 0.1996 0.23582 0.51294 0.0
C400 C 0.26822 0.31648 0.47138 0.0
C401 C 0.2944 0.29175 0.45652 0.0
C402 C 0.25107 0.31158 0.51126 0.0
C403 C 0.26017 0.28113 0.53654 0.0
C404 C 0.28918 0.25831 0.52341 0.0
C405 C 0.30592 0.26395 0.4837 0.0
C406 C 0.22082 0.33702 0.5243 0.0
C407 C 0.29996 0.22547 0.54887 0.0
H408 H 0.22154 0.2681 0.67949 0.0
H409 H 0.16186 0.21481 0.58092 0.0
H410 H 0.2967 0.28766 0.62177 0.0
H411 H 0.26958 0.3265 0.60992 0.0
H412 H 0.26883 0.30778 0.66307 0.0
H413 H 0.17578 0.21836 0.50912 0.0
H414 H 0.19534 0.26039 0.49348 0.0
H415 H 0.22355 0.22124 0.49972 0.0
H416 H 0.25915 0.33795 0.45049 0.0
H417 H 0.32632 0.24487 0.47239 0.0
H418 H 0.22166 0.34276 0.55911 0.0
H419 H 0.19462 0.32431 0.51736 0.0
H420 H 0.22198 0.36286 0.50664 0.0
H421 H 0.30115 0.23193 0.58346 0.0
H422 H 0.32654 0.21421 0.5385 0.0
H423 H 0.27945 0.20434 0.54452 0.0
C424 C 0.23363 0.81897 0.40486 0.0
C425 C 0.24942 0.84733 0.38232 0.0
C426 C 0.24927 0.80502 0.4421 0.0
C427 C 0.28216 0.81908 0.4571 0.0
C428 C 0.29932 0.84644 0.43337 0.0
C429 C 0.28253 0.86058 0.39656 0.0
C430 C 0.22951 0.77635 0.46658 0.0
C431 C 0.3348 0.8616 0.44757 0.0
C432 C 0.28957 0.80935 0.57713 0.0
C433 C 0.30656 0.77541 0.5809 0.0
C434 C 0.28381 0.82522 0.53711 0.0
C435 C 0.29612 0.80719 0.49966 0.0
C436 C 0.31675 0.77483 0.50359 0.0
C437 C 0.32152 0.75913 0.54419 0.0
C438 C 0.26151 0.85958 0.53481 0.0
C439 C 0.33145 0.75537 0.46465 0.0
H440 H 0.20805 0.80844 0.39441 0.0
H441 H 0.29507 0.88237 0.37937 0.0
H442 H 0.24732 0.75245 0.47133 0.0
H443 H 0.2218 0.78684 0.49869 0.0
H444 H 0.20473 0.76756 0.45001 0.0
H445 H 0.34783 0.87743 0.42191 0.0
H446 H 0.33029 0.87959 0.47558 0.0
H447 H 0.35356 0.83967 0.45755 0.0
H448 H 0.27856 0.82245 0.6055 0.0
H449 H 0.33479 0.733 0.54677 0.0
H450 H 0.23476 0.85358 0.52099 0.0
H451 H 0.27456 0.87938 0.51362 0.0
H452 H 0.25724 0.87219 0.56675 0.0
H453 H 0.30926 0.7412 0.44833 0.0
H454 H 0.35255 0.73512 0.47317 0.0
H455 H 0.34295 0.77473 0.44161 0.0
C456 C 0.81757 0.8104 0.61835 0.0
C457 C 0.8424 0.7899 0.64209 0.0
C458 C 0.80367 0.79756 0.57958 0.0
C459 C 0.814 0.76284 0.56439 0.0
C460 C 0.83812 0.74144 0.58892 0.0
C461 C 0.85246 0.75543 0.62714 0.0
C462 C 0.77884 0.82179 0.5541 0.0
C463 C 0.84921 0.704 0.57446 0.0
C464 C 0.75252 0.72892 0.47583 0.0
C465 C 0.77163 0.73895 0.43906 0.0
C466 C 0.76705 0.73415 0.51696 0.0
C467 C 0.8012 0.75038 0.52151 0.0
C468 C 0.82152 0.75839 0.48446 0.0
C469 C 0.80677 0.75203 0.44391 0.0
C470 C 0.74496 0.72417 0.55558 0.0
C471 C 0.85783 0.77608 0.48749 0.0
H472 H 0.80984 0.8372 0.62931 0.0
H473 H 0.87154 0.73938 0.64532 0.0
H474 H 0.75292 0.80822 0.54822 0.0
H475 H 0.77313 0.84791 0.57051 0.0
H476 H 0.79117 0.82735 0.52248 0.0
H477 H 0.86473 0.6893 0.59932 0.0
H478 H 0.82508 0.68818 0.56615 0.0
H479 H 0.86614 0.7056 0.54526 0.0
H480 H 0.72545 0.71876 0.47269 0.0
H481 H 0.82231 0.75891 0.41577 0.0
H482 H 0.73407 0.749 0.57116 0.0
H483 H 0.76199 0.70992 0.57936 0.0
H484 H 0.72199 0.70676 0.54699 0.0
H485 H 0.85438 0.80361 0.50114 0.0
H486 H 0.87134 0.77824 0.45587 0.0
H487 H 0.87584 0.76078 0.50923 0.0
C488 C 0.55235 0.30908 0.99645 0.0
C489 C 0.53282 0.3183 0.95982 0.0
C490 C 0.53498 0.30631 0.03634 0.0
C491 C 0.49752 0.314 0.03963 0.0
C492 C 0.47779 0.3232 1.00252 0.0
C493 C 0.49562 0.32473 0.963 0.0
C494 C 0.55674 0.29554 0.07496 0.0
C495 C 0.43801 0.33249 1.00471 0.0
C496 C 0.43773 0.28703 0.13274 0.0
C497 C 0.43512 0.31944 0.15589 0.0
C498 C 0.45981 0.28409 0.09616 0.0
C499 C 0.479 0.31452 0.08195 0.0
C500 C 0.47759 0.3468 0.10624 0.0
C501 C 0.45608 0.34869 0.14314 0.0
C502 C 0.46132 0.24893 0.07169 0.0
C503 C 0.49694 0.38016 0.09186 0.0
H504 H 0.58111 0.30383 0.99387 0.0
H505 H 0.48053 0.33196 0.93465 0.0
H506 H 0.55772 0.31842 0.09786 0.0
H507 H 0.54369 0.27287 0.09166 0.0
H508 H 0.5848 0.28736 0.06637 0.0
H509 H 0.42659 0.33883 0.97283 0.0
H510 H 0.42291 0.30974 0.01848 0.0
H511 H 0.43348 0.35615 0.02606 0.0
H512 H 0.42183 0.26423 0.14251 0.0
H513 H 0.45443 0.37384 0.16082 0.0
H514 H 0.48962 0.2415 0.06349 0.0
H515 H 0.44641 0.25192 0.04126 0.0
H516 H 0.44924 0.22657 0.09004 0.0
H517 H 0.52572 0.37385 0.08508 0.0
H518 H 0.49538 0.40219 0.11605 0.0
H519 H 0.48475 0.39012 0.06176 0.0
C520 C 0.39949 0.48236 0.01933 0.0
C521 C 0.36762 0.46725 0.03453 0.0
C522 C 0.39934 0.50342 0.98226 0.0
C523 C 0.36654 0.50927 0.96017 0.0
C524 C 0.33517 0.49108 0.97317 0.0
C525 C 0.33605 0.47034 1.01042 0.0
C526 C 0.43347 0.52211 0.96917 0.0
C527 C 0.29981 0.49621 0.95019 0.0
C528 C 0.35389 0.6039 0.91896 0.0
C529 C 0.36154 0.59971 0.87535 0.0
C530 C 0.35471 0.57445 0.94647 0.0
C531 C 0.36337 0.53978 0.92995 0.0
C532 C 0.36993 0.53504 0.8856 0.0
C533 C 0.3688 0.56523 0.8586 0.0
C534 C 0.34749 0.58079 0.99356 0.0
C535 C 0.37898 0.49838 0.86701 0.0
H536 H 0.42403 0.47956 0.03775 0.0
H537 H 0.3115 0.4581 0.02183 0.0
H538 H 0.43722 0.52104 0.93401 0.0
H539 H 0.43152 0.55094 0.97871 0.0
H540 H 0.45765 0.50998 0.98458 0.0
H541 H 0.28021 0.4751 0.9588 0.0
H542 H 0.28787 0.52286 0.95898 0.0
H543 H 0.30391 0.49583 0.91506 0.0
H544 H 0.34806 0.63055 0.93191 0.0
H545 H 0.37502 0.56208 0.82489 0.0
H546 H 0.37176 0.57327 1.01228 0.0
H547 H 0.32516 0.5636 1.00459 0.0
H548 H 0.34029 0.60935 1.0009 0.0
H549 H 0.4027 0.48646 0.88348 0.0
H550 H 0.38485 0.49949 0.83221 0.0
H551 H 0.35614 0.47999 0.87229 0.0
C552 C 0.44158 0.69473 0.02789 0.0
C553 C 0.45016 0.72453 1.00271 0.0
C554 C 0.45931 0.68858 0.06689 0.0
C555 C 0.48673 0.71229 0.08012 0.0
C556 C 0.492 0.74468 0.05738 0.0
C557 C 0.47338 0.75054 0.0191 0.0
C558 C 0.45139 0.65476 0.09145 0.0
C559 C 0.52061 0.77097 0.07037 0.0
C560 C 0.54646 0.70054 0.17853 0.0
C561 C 0.57638 0.68245 0.16043 0.0
C562 C 0.51586 0.70892 0.15358 0.0
C563 C 0.51559 0.69935 0.10961 0.0
C564 C 0.54517 0.67971 0.09195 0.0
C565 C 0.57488 0.67141 0.11753 0.0
C566 C 0.48459 0.72908 0.17402 0.0
C567 C 0.54629 0.66865 0.04534 0.0
H568 H 0.42302 0.6749 0.01577 0.0
H569 H 0.47958 0.774 1.00011 0.0
H570 H 0.47156 0.63352 0.08278 0.0
H571 H 0.45323 0.65963 0.12639 0.0
H572 H 0.42417 0.6445 0.08392 0.0
H573 H 0.51774 0.79706 0.05338 0.0
H574 H 0.5195 0.77619 0.10526 0.0
H575 H 0.54761 0.75922 0.06277 0.0
H576 H 0.54722 0.70884 0.21177 0.0
H577 H 0.59749 0.65681 0.10329 0.0
H578 H 0.45852 0.72077 0.16016 0.0
H579 H 0.48754 0.75836 0.16833 0.0
H580 H 0.4838 0.72481 0.20911 0.0
H581 H 0.52262 0.65203 0.03755 0.0
H582 H 0.57107 0.65293 0.0369 0.0
H583 H 0.54509 0.69295 0.02487 0.0
C584 C 0.66924 0.45049 0.92174 0.0
C585 C 0.68112 0.44964 0.87912 0.0
C586 C 0.67861 0.47838 0.94946 0.0
C587 C 0.70046 0.50654 0.93437 0.0
C588 C 0.71225 0.50634 0.8912 0.0
C589 C 0.70253 0.47769 0.86398 0.0
C590 C 0.66542 0.47728 0.99526 0.0
C591 C 0.73539 0.53605 0.87403 0.0
C592 C 0.69169 0.58298 1.01359 0.0
C593 C 0.71878 0.5732 0.04248 0.0
C594 C 0.68786 0.5641 0.97485 0.0
C595 C 0.71164 0.53485 0.96522 0.0
C596 C 0.74154 0.52792 0.99203 0.0
C597 C 0.74472 0.54721 0.03044 0.0
C598 C 0.65599 0.57283 0.9468 0.0
C599 C 0.76773 0.49724 0.98294 0.0
H600 H 0.65265 0.42902 0.93386 0.0
H601 H 0.71165 0.47727 0.83103 0.0
H602 H 0.68873 0.47605 0.0173 0.0
H603 H 0.64969 0.50216 1.00303 0.0
H604 H 0.64815 0.45371 1.00161 0.0
H605 H 0.73945 0.5338 0.83892 0.0
H606 H 0.72299 0.56276 0.88156 0.0
H607 H 0.76213 0.53506 0.88968 0.0
H608 H 0.67187 0.60347 0.02259 0.0
H609 H 0.76607 0.54 0.05247 0.0
H610 H 0.63417 0.5535 0.9534 0.0
H611 H 0.6633 0.57024 0.91249 0.0
H612 H 0.64526 0.60051 0.95298 0.0
H613 H 0.75506 0.47142 0.99175 0.0
H614 H 0.79296 0.49989 1.00158 0.0
H615 H 0.77468 0.49579 0.94847 0.0
C616 C 0.90133 0.19425 0.43042 0.0
C617 C 0.91367 0.19151 0.38812 0.0
C618 C 0.92486 0.202 0.46368 0.0
C619 C 0.96174 0.20703 0.45435 0.0
C620 C 0.97391 0.20706 0.41133 0.0
C621 C 0.94952 0.19934 0.37842 0.0
C622 C 0.91065 0.20187 0.50905 0.0
C623 C 1.01306 0.21255 0.40034 0.0
C624 C 1.01594 0.23837 0.54931 0.0
C625 C 0.0278 0.20531 0.56591 0.0
C626 C 0.99592 0.23969 0.51143 0.0
C627 C 0.98771 0.20716 0.49008 0.0
C628 C 1.00087 0.17384 0.50599 0.0
C629 C 0.02076 0.17335 0.54382 0.0
C630 C 0.98228 0.27563 0.49533 0.0
C631 C 0.99251 0.13851 0.48421 0.0
H632 H 0.87341 0.18866 0.43787 0.0
H633 H 0.95897 0.19721 0.34565 0.0
H634 H 0.92139 0.1778 0.52592 0.0
H635 H 0.91976 0.22602 0.52673 0.0
H636 H 0.88074 0.20122 0.51038 0.0
H637 H 0.01703 0.21786 0.36575 0.0
H638 H 0.0241 0.2353 0.41903 0.0
H639 H 0.02884 0.18798 0.40877 0.0
H640 H 0.02165 0.26313 0.56637 0.0
H641 H 0.03024 0.1478 0.55654 0.0
H642 H 0.95264 0.27759 0.49991 0.0
H643 H 0.98775 0.27818 0.46061 0.0
H644 H 0.99477 0.29857 0.51238 0.0
H645 H 0.9632 0.13336 0.48673 0.0
H646 H 1.00739 0.1154 0.49857 0.0
H647 H 0.99942 0.13973 0.44973 0.0
C648 C 0.21141 0.07888 0.6425 0.0
C649 C 0.17881 0.09807 0.63797 0.0
C650 C 0.22359 0.05482 0.6103 0.0
C651 C 0.20285 0.0504 0.57276 0.0
C652 C 0.17031 0.07031 0.56791 0.0
C653 C 0.15869 0.09367 0.60054 0.0
C654 C 0.25828 0.03381 0.6166 0.0
C655 C 0.14752 0.06691 0.52821 0.0
C656 C 0.23713 0.01796 0.46518 0.0
C657 C 0.2202 0.98459 0.46178 0.0
C658 C 0.23437 0.03859 0.50279 0.0
C659 C 0.2145 0.02528 0.5379 0.0
C660 C 0.20017 0.99014 0.53586 0.0
C661 C 0.20298 0.97025 0.49761 0.0
C662 C 0.24989 0.07596 0.5034 0.0
C663 C 0.17924 0.97472 0.57277 0.0
H664 H 0.22698 0.08214 0.67143 0.0
H665 H 0.13364 0.10868 0.59652 0.0
H666 H 0.25278 1.00451 0.61638 0.0
H667 H 0.27719 0.03896 0.58984 0.0
H668 H 0.27165 0.04083 0.64714 0.0
H669 H 0.12327 0.08486 0.52919 0.0
H670 H 0.16367 0.07365 0.49949 0.0
H671 H 0.13857 0.0387 0.52437 0.0
H672 H 0.25067 0.02903 0.43754 0.0
H673 H 0.19021 0.94425 0.49515 0.0
H674 H 0.26381 0.08122 0.53402 0.0
H675 H 0.22769 0.09619 0.50055 0.0
H676 H 0.26918 0.08005 0.47666 0.0
H677 H 0.19296 0.98017 0.60349 0.0
H678 H 0.1757 0.94518 0.56926 0.0
H679 H 0.15216 0.9878 0.57438 0.0
C680 C 0.08009 0.86057 0.42107 0.0
C681 C 0.08078 0.84787 0.37879 0.0
C682 C 0.05207 0.85208 0.449 0.0
C683 C 0.02359 0.83037 0.4344 0.0
C684 C 0.02346 0.81808 0.39143 0.0
C685 C 0.05228 0.82684 0.36404 0.0
C686 C 0.05348 0.86585 0.49456 0.0
C687 C 0.9934 0.79514 0.37468 0.0
C688 C 0.98405 0.78684 0.53139 0.0
C689 C 0.95854 0.81311 0.54386 0.0
C690 C 1.00271 0.78966 0.49255 0.0
C691 C 0.99557 0.81948 0.46571 0.0
C692 C 0.9666 0.84347 0.47575 0.0
C693 C 0.94841 0.84007 0.51497 0.0
C694 C 0.03306 0.76321 0.48297 0.0
C695 C 0.9575 0.87509 0.44747 0.0
H696 H 0.10185 0.87699 0.43283 0.0
H697 H 0.05256 0.81711 0.33132 0.0
H698 H 0.02875 0.88185 0.50222 0.0
H699 H 0.05466 0.84281 0.51698 0.0
H700 H 0.0772 0.88303 0.50046 0.0
H701 H 0.99395 0.79307 0.33926 0.0
H702 H 0.99606 0.76759 0.38796 0.0
H703 H 0.96678 0.80623 0.38499 0.0
H704 H 0.99147 0.76556 0.55341 0.0
H705 H 0.92822 0.86009 0.52429 0.0
H706 H 0.05915 0.7759 0.49063 0.0
H707 H 0.03363 0.75579 0.4486 0.0
H708 H 0.03078 0.73826 0.50216 0.0
H709 H 0.977 0.89691 0.45334 0.0
H710 H 0.92995 0.88595 0.45414 0.0
H711 H 0.95952 0.86741 0.41322 0.0
C712 C 0.84594 0.09026 0.52687 0.0
C713 C 0.81362 0.08676 0.50438 0.0
C714 C 0.85146 0.07161 0.56535 0.0
C715 C 0.82403 0.04908 0.58125 0.0
C716 C 0.78964 0.04998 0.56183 0.0
C717 C 0.78488 0.0688 0.52348 0.0
C718 C 0.88815 0.07245 0.58578 0.0
C719 C 0.75928 0.02716 0.57814 0.0
C720 C 0.85366 0.95543 0.6145 0.0
C721 C 0.8493 0.95634 0.65904 0.0
C722 C 0.84609 0.98561 0.58942 0.0
C723 C 0.83378 0.018 0.60915 0.0
C724 C 0.82954 0.01944 0.65422 0.0
C725 C 0.83739 0.98848 0.67875 0.0
C726 C 0.85087 0.98248 0.54149 0.0
C727 C 0.81709 0.05363 0.67646 0.0
H728 H 0.86805 0.10475 0.51257 0.0
H729 H 0.75954 0.06676 0.5066 0.0
H730 H 0.88589 0.07173 0.62111 0.0
H731 H 0.90405 0.04834 0.57536 0.0
H732 H 0.90317 0.09683 0.57634 0.0
H733 H 0.73279 0.03645 0.56559 0.0
H734 H 0.76393 0.99882 0.56767 0.0
H735 H 0.75817 0.02751 0.61356 0.0
H736 H 0.86285 0.93082 0.5988 0.0
H737 H 0.83431 0.98949 0.71319 0.0
H738 H 0.87004 1.00296 0.53004 0.0
H739 H 0.82473 0.98762 0.52539 0.0
H740 H 0.86115 0.95546 0.53135 0.0
H741 H 0.8387 0.07387 0.67463 0.0
H742 H 0.81051 0.04907 0.71065 0.0
H743 H 0.79304 0.06533 0.66045 0.0
C744 C 0.44201 0.49562 0.25702 0.0
C745 C 0.44547 0.45926 0.24525 0.0
C746 C 0.47245 0.5179 0.25848 0.0
C747 C 0.50708 0.50327 0.24832 0.0
C748 C 0.51072 0.46597 0.23903 0.0
C749 C 0.47986 0.44461 0.23706 0.0
C750 C 0.46719 0.55756 0.26787 0.0
C751 C 0.54696 0.44899 0.22845 0.0
C752 C 0.57917 0.56111 0.19687 0.0
C753 C 0.60228 0.56802 0.2312 0.0
C754 C 0.54755 0.54123 0.20244 0.0
C755 C 0.53897 0.52721 0.24322 0.0
C756 C 0.562 0.5344 0.27814 0.0
C757 C 0.59317 0.55498 0.27181 0.0
C758 C 0.52357 0.53482 0.16439 0.0
C759 C 0.55419 0.51957 0.32194 0.0
H760 H 0.4153 0.50719 0.26213 0.0
H761 H 0.48242 0.41662 0.22713 0.0
H762 H 0.48698 0.56673 0.29187 0.0
H763 H 0.47188 0.57314 0.23826 0.0
H764 H 0.43956 0.56398 0.27981 0.0
H765 H 0.54582 0.41911 0.22683 0.0
H766 H 0.55649 0.45897 0.19708 0.0
H767 H 0.5672 0.45668 0.25267 0.0
H768 H 0.58568 0.57145 0.16549 0.0
H769 H 0.61087 0.56014 0.29851 0.0
H770 H 0.49545 0.54332 0.172 0.0
H771 H 0.52328 0.50562 0.15662 0.0
H772 H 0.53264 0.54962 0.13562 0.0
H773 H 0.52664 0.52774 0.33242 0.0
H774 H 0.57377 0.52887 0.34619 0.0
H775 H 0.55516 0.48967 0.32073 0.0
C776 C 0.46581 0.59215 0.77073 0.0
C777 C 0.4745 0.61546 0.8045 0.0
C778 C 0.48334 0.55828 0.76573 0.0
C779 C 0.51083 0.54762 0.79463 0.0
C780 C 0.52046 0.57163 0.82793 0.0
C781 C 0.50199 0.6049 0.83271 0.0
C782 C 0.47154 0.53334 0.73041 0.0
C783 C 0.54989 0.56189 0.85916 0.0
C784 C 0.53216 0.44831 0.81636 0.0
C785 C 0.56371 0.44201 0.79222 0.0
C786 C 0.5141 0.48199 0.81612 0.0
C787 C 0.52816 0.51069 0.79182 0.0
C788 C 0.55968 0.50436 0.76676 0.0
C789 C 0.57685 0.47006 0.76691 0.0
C790 C 0.48031 0.48705 0.84276 0.0
C791 C 0.57604 0.53423 0.74097 0.0
H792 H 0.44437 0.59983 0.74904 0.0
H793 H 0.50911 0.62271 0.85879 0.0
H794 H 0.49506 0.52456 0.71075 0.0
H795 H 0.45975 0.50878 0.74446 0.0
H796 H 0.45119 0.5462 0.70925 0.0
H797 H 0.5562 0.58458 0.88106 0.0
H798 H 0.54154 0.53857 0.87866 0.0
H799 H 0.57485 0.55371 0.84172 0.0
H800 H 0.52158 0.42682 0.83584 0.0
H801 H 0.60134 0.46563 0.74847 0.0
H802 H 0.45825 0.49856 0.82303 0.0
H803 H 0.48531 0.50644 0.8691 0.0
H804 H 0.47108 0.46138 0.85689 0.0
H805 H 0.55562 0.5462 0.71928 0.0
H806 H 0.59953 0.5247 0.72162 0.0
H807 H 0.58496 0.556 0.76275 0.0
C808 C 0.94584 0.06854 0.2733 0.0
C809 C 0.92041 0.05896 0.30445 0.0
C810 C 0.97904 0.04955 0.26889 0.0
C811 C 0.98684 0.01958 0.2955 0.0
C812 C 0.96054 1.00893 0.32577 0.0
C813 C 0.92805 0.02892 0.33022 0.0
C814 C 1.00639 0.0625 0.23687 0.0
C815 C 0.96703 0.97679 0.35425 0.0
C816 C 0.06414 0.95331 0.26628 0.0
C817 C 0.09132 0.9636 0.29477 0.0
C818 C 0.03017 0.97127 0.26588 0.0
C819 C 0.02326 1.00086 0.29392 0.0
C820 C 0.05096 1.01189 0.32189 0.0
C821 C 0.08418 0.99293 0.32239 0.0
C822 C 1.00131 0.95793 0.23624 0.0
C823 C 0.0454 0.04356 0.35186 0.0
H824 H 0.94043 0.09183 0.25347 0.0
H825 H 0.90855 0.021 0.35415 0.0
H826 H 0.03071 0.07184 0.2539 0.0
H827 H 1.01505 0.04007 0.21541 0.0
H828 H 0.99571 0.08498 0.2171 0.0
H829 H 0.94275 0.96992 0.37324 0.0
H830 H 0.97533 0.95293 0.33481 0.0
H831 H 0.98933 0.98249 0.37664 0.0
H832 H 0.069 0.93052 0.24511 0.0
H833 H 0.10462 1.00119 0.34481 0.0
H834 H 0.99155 0.98016 0.21555 0.0
H835 H 0.97789 0.94873 0.25523 0.0
H836 H 1.01103 0.93529 0.21561 0.0
H837 H 0.03615 0.0676 0.33379 0.0
H838 H 0.07037 0.05044 0.36934 0.0
H839 H 0.0241 0.03739 0.37558 0.0
C840 C 0.07598 0.06763 0.76417 0.0
C841 C 0.05829 0.09887 0.74948 0.0
C842 C 0.05848 0.03414 0.76465 0.0
C843 C 0.02235 0.03183 0.75039 0.0
C844 C 1.00378 0.06368 0.73791 0.0
C845 C 0.02193 0.09664 0.73754 0.0
C846 C 0.07931 1.00092 0.77822 0.0
C847 C 0.9652 0.06271 0.72284 0.0
C848 C 0.9882 0.94485 0.70042 0.0
C849 C 0.96699 0.93061 0.73336 0.0
C850 C 1.00706 0.97712 0.706 0.0
C851 C 1.00465 0.996 0.74546 0.0
C852 C 0.98384 0.98149 0.77912 0.0
C853 C 0.96537 0.94901 0.77273 0.0
C854 C 0.029 0.99144 0.66924 0.0
C855 C 0.98037 1.00073 0.8216 0.0
H856 H 0.10412 0.06888 0.77308 0.0
H857 H 1.00786 0.1206 0.72637 0.0
H858 H 0.06354 0.98539 0.80179 0.0
H859 H 0.08411 0.98313 0.75006 0.0
H860 H 0.10576 1.00759 0.79244 0.0
H861 H 0.9536 0.09013 0.71778 0.0
H862 H 0.96385 0.04752 0.69225 0.0
H863 H 0.94817 0.04849 0.74636 0.0
H864 H 0.98985 0.93094 0.66991 0.0
H865 H 0.94909 0.93841 0.79845 0.0
H866 H 0.05706 0.99629 0.67961 0.0
H867 H 0.01745 0.01766 0.65871 0.0
H868 H 0.02972 0.97267 0.64145 0.0
H869 H 1.00745 1.00613 0.8348 0.0
H870 H 0.96488 0.98501 0.84532 0.0
H871 H 0.96659 0.02719 0.81715 0.0
C872 C 0.25178 0.05329 0.27121 0.0
C873 C 0.21712 0.05163 0.28918 0.0
C874 C 0.2697 0.08639 0.2682 0.0
C875 C 0.25291 0.11816 0.28464 0.0
C876 C 0.21672 0.117 0.29903 0.0
C877 C 0.19918 0.08389 0.30059 0.0
C878 C 0.30741 0.08696 0.25007 0.0
C879 C 0.19754 0.15018 0.31654 0.0
C880 C 0.30562 0.18561 0.34862 0.0
C881 C 0.30085 0.21722 0.32474 0.0
C882 C 0.292 0.15268 0.33458 0.0
C883 C 0.27448 0.15072 0.29457 0.0
C884 C 0.27333 0.18156 0.268 0.0
C885 C 0.28609 0.21467 0.28365 0.0
C886 C 0.29366 0.1208 0.36443 0.0
C887 C 0.25662 0.18052 0.22422 0.0
H888 H 0.26566 0.02862 0.26151 0.0
H889 H 0.17211 0.08309 0.31369 0.0
H890 H 0.31131 0.11141 0.23042 0.0
H891 H 0.32713 0.0877 0.27655 0.0
H892 H 0.31341 0.06269 0.23017 0.0
H893 H 0.16876 0.14522 0.32406 0.0
H894 H 0.21105 0.15923 0.34621 0.0
H895 H 0.19893 0.17249 0.29324 0.0
H896 H 0.31827 0.18705 0.37972 0.0
H897 H 0.28268 0.23878 0.26462 0.0
H898 H 0.30577 0.09698 0.34796 0.0
H899 H 0.26596 0.1136 0.37442 0.0
H900 H 0.30961 0.1264 0.3936 0.0
H901 H 0.25753 0.15304 0.21006 0.0
H902 H 0.27062 0.19919 0.20232 0.0
H903 H 0.22804 0.18961 0.22655 0.0
C904 C 0.19718 0.72588 0.67045 0.0
C905 C 0.22563 0.73612 0.69688 0.0
C906 C 0.1616 0.73617 0.68007 0.0
C907 C 0.1543 0.75694 0.71732 0.0
C908 C 0.18241 0.76356 0.74671 0.0
C909 C 0.218 0.75322 0.73597 0.0
C910 C 0.13258 0.72831 0.64782 0.0
C911 C 0.17554 0.78452 0.78745 0.0
C912 C 0.08248 0.82751 0.69521 0.0
C913 C 0.05113 0.8104 0.709 0.0
C914 C 0.11651 0.81131 0.70033 0.0
C915 C 0.11944 0.77728 0.72039 0.0
C916 C 0.08824 0.76122 0.73761 0.0
C917 C 0.05431 0.77785 0.7314 0.0
C918 C 0.14901 0.82951 0.68139 0.0
C919 C 0.09035 0.72551 0.76031 0.0
H920 H 0.20319 0.71234 0.64038 0.0
H921 H 0.24003 0.76109 0.75646 0.0
H922 H 0.10816 0.71802 0.66387 0.0
H923 H 0.12479 0.7536 0.63123 0.0
H924 H 0.14172 0.70827 0.6234 0.0
H925 H 0.19734 0.77981 0.81107 0.0
H926 H 0.17436 0.81374 0.78021 0.0
H927 H 0.14937 0.77718 0.80203 0.0
H928 H 0.0804 0.85291 0.6784 0.0
H929 H 0.03025 0.76462 0.74262 0.0
H930 H 0.1599 0.81306 0.65439 0.0
H931 H 0.17063 0.83168 0.70554 0.0
H932 H 0.14247 0.85695 0.66938 0.0
H933 H 0.0925 0.70342 0.73636 0.0
H934 H 0.06601 0.72098 0.78025 0.0
H935 H 0.11457 0.72385 0.7809 0.0
C936 C 0.78469 0.81851 0.29887 0.0
C937 C 0.74944 0.80661 0.30515 0.0
C938 C 0.79127 0.85447 0.28856 0.0
C939 C 0.76181 0.87892 0.28469 0.0
C940 C 0.72616 0.86584 0.28532 0.0
C941 C 0.72034 0.82962 0.29568 0.0
C942 C 0.82972 0.86709 0.28744 0.0
C943 C 0.69406 0.89088 0.28037 0.0
C944 C 0.77794 0.96775 0.34023 0.0
C945 C 0.78557 0.99066 0.30605 0.0
C946 C 0.7693 0.93169 0.33332 0.0
C947 C 0.76808 0.918 0.29103 0.0
C948 C 0.77472 0.94113 0.25615 0.0
C949 C 0.78354 0.9773 0.26408 0.0
C950 C 0.76236 0.90801 0.37158 0.0
C951 C 0.77357 0.92751 0.21067 0.0
H952 H 0.80717 0.80042 0.30563 0.0
H953 H 0.69306 0.82033 0.30033 0.0
H954 H 0.83368 0.88701 0.26164 0.0
H955 H 0.83604 0.8805 0.31824 0.0
H956 H 0.84913 0.8443 0.28263 0.0
H957 H 0.66937 0.87591 0.27198 0.0
H958 H 0.68902 0.90539 0.31099 0.0
H959 H 0.69914 0.91134 0.25545 0.0
H960 H 0.77919 0.97782 0.37276 0.0
H961 H 0.78936 0.99489 0.23749 0.0
H962 H 0.78279 0.88586 0.37265 0.0
H963 H 0.73551 0.89551 0.36895 0.0
H964 H 0.76336 0.92317 0.40226 0.0
H965 H 0.79791 0.91061 0.20402 0.0
H966 H 0.77285 0.94994 0.18732 0.0
H967 H 0.74974 0.91038 0.20555 0.0
C968 C 0.98348 0.25542 0.79058 0.0
C969 C 1.00497 0.25786 0.75372 0.0
C970 C 0.94744 0.26791 0.79081 0.0
C971 C 0.93218 0.28181 0.75279 0.0
C972 C 0.95458 0.28679 0.71655 0.0
C973 C 0.99082 0.27532 0.71772 0.0
C974 C 0.92505 0.26371 0.83079 0.0
C975 C 0.93949 0.30081 0.675 0.0
C976 C 0.83662 0.25777 0.72353 0.0
C977 C 0.81912 0.29159 0.72315 0.0
C978 C 0.87294 0.25411 0.73489 0.0
C979 C 0.89218 0.28486 0.74801 0.0
C980 C 0.87372 0.31851 0.75197 0.0
C981 C 0.83743 0.32161 0.73898 0.0
C982 C 0.89131 0.21767 0.72975 0.0
C983 C 0.89273 0.35163 0.76763 0.0
H984 H 0.99431 0.2422 0.81864 0.0
H985 H 1.0071 0.2772 0.68898 0.0
H986 H 0.90642 0.28713 0.83535 0.0
H987 H 0.90848 0.23922 0.82794 0.0
H988 H 0.94223 0.26088 0.85958 0.0
H989 H 0.96095 0.30606 0.65105 0.0
H990 H 0.92087 0.28069 0.66136 0.0
H991 H 0.92376 0.32607 0.6805 0.0
H992 H 0.82233 0.23423 0.71252 0.0
H993 H 0.82412 0.34783 0.73909 0.0
H994 H 0.90427 0.20948 0.76009 0.0
H995 H 0.91284 0.2192 0.7051 0.0
H996 H 0.87228 0.19633 0.7201 0.0
H997 H 0.91118 0.34494 0.79433 0.0
H998 H 0.87328 0.37289 0.77848 0.0
H999 H 0.90919 0.36279 0.74131 0.0
C1000 C 0.80765 0.33906 0.1714 0.0
C1001 C 0.79796 0.31056 0.19802 0.0
C1002 C 0.79713 0.37456 0.1811 0.0
C1003 C 0.77677 0.38174 0.21869 0.0
C1004 C 0.7709 0.35366 0.2483 0.0
C1005 C 0.78139 0.31813 0.23745 0.0
C1006 C 0.80421 0.40356 0.14859 0.0
C1007 C 0.75053 0.36043 0.28945 0.0
C1008 C 0.7548 0.48153 0.23222 0.0
C1009 C 0.72193 0.48414 0.21036 0.0
C1010 C 0.77189 0.44785 0.23854 0.0
C1011 C 0.75599 0.41632 0.22193 0.0
C1012 C 0.72163 0.41869 0.20253 0.0
C1013 C 0.70495 0.45248 0.19733 0.0
C1014 C 0.80792 0.44637 0.26061 0.0
C1015 C 0.70358 0.38581 0.18427 0.0
H1016 H 0.8208 0.3331 0.14107 0.0
H1017 H 0.77398 0.29608 0.25811 0.0
H1018 H 0.77859 0.41105 0.13249 0.0
H1019 H 0.81448 0.42814 0.16435 0.0
H1020 H 0.82397 0.39456 0.1238 0.0
H1021 H 0.75595 0.33883 0.31309 0.0
H1022 H 0.75771 0.38679 0.3037 0.0
H1023 H 0.72118 0.36114 0.28288 0.0
H1024 H 0.76792 0.50583 0.24289 0.0
H1025 H 0.67932 0.45413 0.18095 0.0
H1026 H 0.82973 0.44476 0.23627 0.0
H1027 H 0.81035 0.42213 0.28106 0.0
H1028 H 0.81221 0.47076 0.28058 0.0
H1029 H 0.71978 0.37492 0.15706 0.0
H1030 H 0.6759 0.39192 0.17273 0.0
H1031 H 0.70202 0.36435 0.20867 0.0
C1032 C 0.47656 0.27342 0.79606 0.0
C1033 C 0.48564 0.30286 0.77053 0.0
C1034 C 0.44106 0.2611 0.79786 0.0
C1035 C 0.41422 0.27777 0.77232 0.0
C1036 C 0.42415 0.30483 0.74299 0.0
C1037 C 0.45962 0.31767 0.74312 0.0
C1038 C 0.43169 0.23268 0.83028 0.0
C1039 C 0.39684 0.32197 0.71356 0.0
C1040 C 0.32422 0.23076 0.78192 0.0
C1041 C 0.30753 0.25114 0.81466 0.0
C1042 C 0.35778 0.2408 0.76486 0.0
C1043 C 0.37552 0.27112 0.782 0.0
C1044 C 0.35762 0.29309 0.81285 0.0
C1045 C 0.32357 0.28333 0.82788 0.0
C1046 C 0.37503 0.21777 0.73029 0.0
C1047 C 0.37549 0.32551 0.83248 0.0
H1048 H 0.49645 0.26195 0.81752 0.0
H1049 H 0.4666 0.34026 0.72306 0.0
H1050 H 0.41439 0.24492 0.85571 0.0
H1051 H 0.4162 0.21082 0.81509 0.0
H1052 H 0.45601 0.22062 0.84546 0.0
H1053 H 0.41007 0.33518 0.68599 0.0
H1054 H 0.37772 0.30169 0.70137 0.0
H1055 H 0.38099 0.34281 0.73133 0.0
H1056 H 0.31206 0.20602 0.77104 0.0
H1057 H 0.31024 0.30015 0.85179 0.0
H1058 H 0.39492 0.19893 0.74477 0.0
H1059 H 0.38957 0.2346 0.70684 0.0
H1060 H 0.35473 0.20156 0.71309 0.0
H1061 H 0.40028 0.3168 0.84951 0.0
H1062 H 0.35758 0.34012 0.85553 0.0
H1063 H 0.38366 0.34459 0.80724 0.0
C1064 C 0.24985 0.69364 0.24352 0.0
C1065 C 0.2318 0.70284 0.20583 0.0
C1066 C 0.26246 0.65804 0.25022 0.0
C1067 C 0.25754 0.63148 0.21803 0.0
C1068 C 0.23586 0.63997 0.18224 0.0
C1069 C 0.223 0.67542 0.17685 0.0
C1070 C 0.28411 0.64984 0.28971 0.0
C1071 C 0.22997 0.61293 0.14683 0.0
C1072 C 0.33579 0.56816 0.19092 0.0
C1073 C 0.32266 0.53433 0.20266 0.0
C1074 C 0.31528 0.59983 0.19711 0.0
C1075 C 0.28085 0.59814 0.21669 0.0
C1076 C 0.26815 0.56435 0.2309 0.0
C1077 C 0.28899 0.53272 0.22316 0.0
C1078 C 0.32993 0.63497 0.18067 0.0
C1079 C 0.23214 0.56139 0.25303 0.0
H1080 H 0.25686 0.71476 0.26593 0.0
H1081 H 0.20907 0.68255 0.14763 0.0
H1082 H 0.27825 0.62245 0.30171 0.0
H1083 H 0.31326 0.65065 0.28182 0.0
H1084 H 0.27847 0.66983 0.31556 0.0
H1085 H 0.20868 0.62203 0.12433 0.0
H1086 H 0.25546 0.60892 0.12855 0.0
H1087 H 0.22238 0.58646 0.16003 0.0
H1088 H 0.36177 0.56993 0.17517 0.0
H1089 H 0.27868 0.50679 0.23263 0.0
H1090 H 0.33104 0.65509 0.20694 0.0
H1091 H 0.31175 0.64611 0.1558 0.0
H1092 H 0.35737 0.63175 0.16666 0.0
H1093 H 0.22774 0.58401 0.27594 0.0
H1094 H 0.22981 0.53552 0.27042 0.0
H1095 H 0.21032 0.56283 0.229 0.0
C1096 C 0.56314 0.76299 0.83555 0.0
C1097 C 0.5405 0.7535 0.80176 0.0
C1098 C 0.59923 0.77133 0.8284 0.0
C1099 C 0.61324 0.77037 0.78622 0.0
C1100 C 0.59025 0.76232 0.75159 0.0
C1101 C 0.55403 0.75381 0.7598 0.0
C1102 C 0.62268 0.77991 0.86641 0.0
C1103 C 0.60406 0.76129 0.70617 0.0
C1104 C 0.70287 0.81561 0.79049 0.0
C1105 C 0.72476 0.78628 0.80233 0.0
C1106 C 0.66675 0.81043 0.77911 0.0
C1107 C 0.65258 0.77523 0.78006 0.0
C1108 C 0.67605 0.74529 0.78616 0.0
C1109 C 0.71196 0.75121 0.79728 0.0
C1110 C 0.64284 0.84294 0.77128 0.0
C1111 C 0.66227 0.70725 0.78663 0.0
H1112 H 0.55288 0.76326 0.86805 0.0
H1113 H 0.53665 0.74659 0.73348 0.0
H1114 H 0.64455 0.75931 0.86918 0.0
H1115 H 0.63554 0.80642 0.86207 0.0
H1116 H 0.60725 0.78065 0.89692 0.0
H1117 H 0.58172 0.76378 0.68282 0.0
H1118 H 0.62355 0.78309 0.70033 0.0
H1119 H 0.61827 0.7352 0.70022 0.0
H1120 H 0.71286 0.84275 0.794 0.0
H1121 H 0.72923 0.72849 0.80565 0.0
H1122 H 0.62785 0.84989 0.80106 0.0
H1123 H 0.62277 0.83725 0.74606 0.0
H1124 H 0.65878 0.8667 0.76175 0.0
H1125 H 0.64758 0.70266 0.81706 0.0
H1126 H 0.68458 0.687 0.78407 0.0
H1127 H 0.64316 0.70282 0.76008 0.0
loop_
_geom_bond_atom_site_label_1
_geom_bond_atom_site_label_2
_geom_bond_distance
_geom_bond_site_symmetry_2
_ccdc_geom_bond_type
O0 Tb1 2.292 . S
O0 C3 1.255 . S
Tb1 O0 2.292 . S
Tb1 O17 2.326 . S
Tb1 O19 2.500 . S
Tb1 O20 2.473 . S
Tb1 O23 2.324 . S
Eu2 O6 2.292 . S
Eu2 C7 2.852 . S
Eu2 O18 2.324 . S
Eu2 O22 2.326 . S
Eu2 O24 2.500 . S
Eu2 O25 2.473 . S
C3 O0 1.255 . S
C3 O4 1.247 . S
O4 C3 1.247 . S
C5 O17 1.242 . S
C5 O18 1.258 . S
O6 Eu2 2.292 . S
O6 C8 1.255 . S
C7 Eu2 2.852 . S
C7 C11 1.503 . S
C7 O24 1.273 . S
C7 O25 1.257 . S
C8 O6 1.255 . S
C8 O9 1.247 . S
O9 C8 1.247 . S
C10 O22 1.242 . S
C10 O23 1.258 . S
C11 C7 1.503 . S
C11 C12 1.379 . S
C11 C16 1.392 . S
C12 C11 1.379 . S
C12 C13 1.404 . S
C12 H26 0.929 . S
C13 C12 1.404 . S
C13 C14 1.389 . S
C14 C13 1.389 . S
C14 C15 1.399 . S
C14 H27 0.931 . S
C15 C14 1.399 . S
C15 C16 1.390 . S
C16 C11 1.392 . S
C16 C15 1.390 . S
C16 H28 0.929 . S
O17 Tb1 2.326 . S
O17 C5 1.242 . S
O18 Eu2 2.324 . S
O18 C5 1.258 . S
O19 Tb1 2.500 . S
O19 C21 1.273 . S
O20 Tb1 2.473 . S
O20 C21 1.257 . S
C21 O19 1.273 . S
C21 O20 1.257 . S
O22 Eu2 2.326 . S
O22 C10 1.242 . S
O23 Tb1 2.324 . S
O23 C10 1.258 . S
O24 Eu2 2.500 . S
O24 C7 1.273 . S
O25 Eu2 2.473 . S
O25 C7 1.257 . S
H26 C12 0.929 . S
H27 C14 0.931 . S
H28 C16 0.929 . S
O29 Tb30 2.292 . S
O29 C32 1.255 . S
Tb30 O29 2.292 . S
Tb30 O46 2.326 . S
Tb30 O48 2.500 . S
Tb30 O49 2.473 . S
Tb30 O52 2.324 . S
Eu31 O35 2.292 . S
Eu31 C36 2.852 . S
Eu31 O47 2.324 . S
Eu31 O51 2.326 . S
Eu31 O53 2.500 . S
Eu31 O54 2.473 . S
C32 O29 1.255 . S
C32 O33 1.247 . S
O33 C32 1.247 . S
C34 O46 1.242 . S
C34 O47 1.258 . S
O35 Eu31 2.292 . S
O35 C37 1.255 . S
C36 Eu31 2.852 . S
C36 C40 1.503 . S
C36 O53 1.273 . S
C36 O54 1.257 . S
C37 O35 1.255 . S
C37 O38 1.247 . S
O38 C37 1.247 . S
C39 O51 1.242 . S
C39 O52 1.258 . S
C40 C36 1.503 . S
C40 C41 1.379 . S
C40 C45 1.392 . S
C41 C40 1.379 . S
C41 C42 1.404 . S
C41 H55 0.929 . S
C42 C41 1.404 . S
C42 C43 1.389 . S
C43 C42 1.389 . S
C43 C44 1.399 . S
C43 H56 0.931 . S
C44 C43 1.399 . S
C44 C45 1.390 . S
C45 C40 1.392 . S
C45 C44 1.390 . S
C45 H57 0.929 . S
O46 Tb30 2.326 . S
O46 C34 1.242 . S
O47 Eu31 2.324 . S
O47 C34 1.258 . S
O48 Tb30 2.500 . S
O48 C50 1.273 . S
O49 Tb30 2.473 . S
O49 C50 1.257 . S
C50 O48 1.273 . S
C50 O49 1.257 . S
O51 Eu31 2.326 . S
O51 C39 1.242 . S
O52 Tb30 2.324 . S
O52 C39 1.258 . S
O53 Eu31 2.500 . S
O53 C36 1.273 . S
O54 Eu31 2.473 . S
O54 C36 1.257 . S
H55 C41 0.929 . S
H56 C43 0.931 . S
H57 C45 0.929 . S
O58 Tb59 2.292 . S
O58 C61 1.255 . S
Tb59 O58 2.292 . S
Tb59 O75 2.326 . S
Tb59 O77 2.500 . S
Tb59 O78 2.473 . S
Tb59 O81 2.324 . S
Eu60 O64 2.292 . S
Eu60 C65 2.852 . S
Eu60 O76 2.324 . S
Eu60 O80 2.326 . S
Eu60 O82 2.500 . S
Eu60 O83 2.473 . S
C61 O58 1.255 . S
C61 O62 1.247 . S
O62 C61 1.247 . S
C63 O75 1.242 . S
C63 O76 1.258 . S
O64 Eu60 2.292 . S
O64 C66 1.255 . S
C65 Eu60 2.852 . S
C65 C69 1.503 . S
C65 O82 1.273 . S
C65 O83 1.257 . S
C66 O64 1.255 . S
C66 O67 1.247 . S
O67 C66 1.247 . S
C68 O80 1.242 . S
C68 O81 1.258 . S
C69 C65 1.503 . S
C69 C70 1.379 . S
C69 C74 1.392 . S
C70 C69 1.379 . S
C70 C71 1.404 . S
C70 H84 0.929 . S
C71 C70 1.404 . S
C71 C72 1.389 . S
C72 C71 1.389 . S
C72 C73 1.399 . S
C72 H85 0.931 . S
C73 C72 1.399 . S
C73 C74 1.390 . S
C74 C69 1.392 . S
C74 C73 1.390 . S
C74 H86 0.929 . S
O75 Tb59 2.326 . S
O75 C63 1.242 . S
O76 Eu60 2.324 . S
O76 C63 1.258 . S
O77 Tb59 2.500 . S
O77 C79 1.273 . S
O78 Tb59 2.473 . S
O78 C79 1.257 . S
C79 O77 1.273 . S
C79 O78 1.257 . S
O80 Eu60 2.326 . S
O80 C68 1.242 . S
O81 Tb59 2.324 . S
O81 C68 1.258 . S
O82 Eu60 2.500 . S
O82 C65 1.273 . S
O83 Eu60 2.473 . S
O83 C65 1.257 . S
H84 C70 0.929 . S
H85 C72 0.931 . S
H86 C74 0.929 . S
O87 Tb88 2.292 . S
O87 C90 1.255 . S
Tb88 O87 2.292 . S
Tb88 O104 2.326 . S
Tb88 O106 2.500 . S
Tb88 O107 2.473 . S
Tb88 O110 2.324 . S
Eu89 O93 2.292 . S
Eu89 C94 2.852 . S
Eu89 O105 2.324 . S
Eu89 O109 2.326 . S
Eu89 O111 2.500 . S
Eu89 O112 2.473 . S
C90 O87 1.255 . S
C90 O91 1.247 . S
O91 C90 1.247 . S
C92 O104 1.242 . S
C92 O105 1.258 . S
O93 Eu89 2.292 . S
O93 C95 1.255 . S
C94 Eu89 2.852 . S
C94 C98 1.503 . S
C94 O111 1.273 . S
C94 O112 1.257 . S
C95 O93 1.255 . S
C95 O96 1.247 . S
O96 C95 1.247 . S
C97 O109 1.242 . S
C97 O110 1.258 . S
C98 C94 1.503 . S
C98 C99 1.379 . S
C98 C103 1.392 . S
C99 C98 1.379 . S
C99 C100 1.404 . S
C99 H113 0.929 . S
C100 C99 1.404 . S
C100 C101 1.389 . S
C101 C100 1.389 . S
C101 C102 1.399 . S
C101 H114 0.931 . S
C102 C101 1.399 . S
C102 C103 1.390 . S
C103 C98 1.392 . S
C103 C102 1.390 . S
C103 H115 0.929 . S
O104 Tb88 2.326 . S
O104 C92 1.242 . S
O105 Eu89 2.324 . S
O105 C92 1.258 . S
O106 Tb88 2.500 . S
O106 C108 1.273 . S
O107 Tb88 2.473 . S
O107 C108 1.257 . S
C108 O106 1.273 . S
C108 O107 1.257 . S
O109 Eu89 2.326 . S
O109 C97 1.242 . S
O110 Tb88 2.324 . S
O110 C97 1.258 . S
O111 Eu89 2.500 . S
O111 C94 1.273 . S
O112 Eu89 2.473 . S
O112 C94 1.257 . S
H113 C99 0.929 . S
H114 C101 0.931 . S
H115 C103 0.929 . S
O116 Tb117 2.289 1_565 S
O116 C119 1.255 . S
Tb117 O116 2.289 1_545 S
Tb117 O133 2.326 . S
Tb117 O135 2.500 1_545 S
Tb117 O136 2.473 . S
Tb117 O139 2.324 . S
Eu118 O122 2.292 . S
Eu118 C123 2.852 . S
Eu118 O134 2.324 . S
Eu118 O138 2.326 . S
Eu118 O140 2.500 . S
Eu118 O141 2.473 . S
C119 O116 1.255 . S
C119 O120 1.247 1_565 S
O120 C119 1.247 1_545 S
C121 O133 1.242 . S
C121 O134 1.258 . S
O122 Eu118 2.292 . S
O122 C124 1.255 . S
C123 Eu118 2.852 . S
C123 C127 1.503 . S
C123 O140 1.273 . S
C123 O141 1.257 . S
C124 O122 1.255 . S
C124 O125 1.247 . S
O125 C124 1.247 . S
C126 O138 1.242 . S
C126 O139 1.258 . S
C127 C123 1.503 . S
C127 C128 1.379 . S
C127 C132 1.392 . S
C128 C127 1.379 . S
C128 C129 1.404 . S
C128 H142 0.929 . S
C129 C128 1.404 . S
C129 C130 1.389 . S
C130 C129 1.389 . S
C130 C131 1.399 . S
C130 H143 0.931 . S
C131 C130 1.399 . S
C131 C132 1.390 . S
C132 C127 1.392 . S
C132 C131 1.390 . S
C132 H144 0.929 . S
O133 Tb117 2.326 . S
O133 C121 1.242 . S
O134 Eu118 2.324 . S
O134 C121 1.258 . S
O135 Tb117 2.500 1_565 S
O135 C137 1.273 1_565 S
O136 Tb117 2.473 . S
O136 C137 1.257 . S
C137 O135 1.273 1_545 S
C137 O136 1.257 . S
O138 Eu118 2.326 . S
O138 C126 1.242 . S
O139 Tb117 2.324 . S
O139 C126 1.258 . S
O140 Eu118 2.500 . S
O140 C123 1.273 . S
O141 Eu118 2.473 . S
O141 C123 1.257 . S
H142 C128 0.929 . S
H143 C130 0.931 . S
H144 C132 0.929 . S
O145 Tb146 2.289 1_655 S
O145 C148 1.255 . S
Tb146 O145 2.289 1_455 S
Tb146 O162 2.326 . S
Tb146 O164 2.500 1_455 S
Tb146 O165 2.473 . S
Tb146 O168 2.324 . S
Eu147 O151 2.292 . S
Eu147 C152 2.852 . S
Eu147 O163 2.324 . S
Eu147 O167 2.326 . S
Eu147 O169 2.500 . S
Eu147 O170 2.473 . S
C148 O145 1.255 . S
C148 O149 1.247 1_655 S
O149 C148 1.247 1_455 S
C150 O162 1.242 . S
C150 O163 1.258 . S
O151 Eu147 2.292 . S
O151 C153 1.255 . S
C152 Eu147 2.852 . S
C152 C156 1.503 . S
C152 O169 1.273 . S
C152 O170 1.257 . S
C153 O151 1.255 . S
C153 O154 1.247 . S
O154 C153 1.247 . S
C155 O167 1.242 . S
C155 O168 1.258 . S
C156 C152 1.503 . S
C156 C157 1.379 . S
C156 C161 1.392 . S
C157 C156 1.379 . S
C157 C158 1.404 . S
C157 H171 0.929 . S
C158 C157 1.404 . S
C158 C159 1.389 . S
C159 C158 1.389 . S
C159 C160 1.399 . S
C159 H172 0.931 . S
C160 C159 1.399 . S
C160 C161 1.390 . S
C161 C156 1.392 . S
C161 C160 1.390 . S
C161 H173 0.929 . S
O162 Tb146 2.326 . S
O162 C150 1.242 . S
O163 Eu147 2.324 . S
O163 C150 1.258 . S
O164 Tb146 2.500 1_655 S
O164 C166 1.273 1_655 S
O165 Tb146 2.473 . S
O165 C166 1.257 . S
C166 O164 1.273 1_455 S
C166 O165 1.257 . S
O167 Eu147 2.326 . S
O167 C155 1.242 . S
O168 Tb146 2.324 . S
O168 C155 1.258 . S
O169 Eu147 2.500 . S
O169 C152 1.273 . S
O170 Eu147 2.473 . S
O170 C152 1.257 . S
H171 C157 0.929 . S
H172 C159 0.931 . S
H173 C161 0.929 . S
O174 Tb175 2.289 1_545 S
O174 C177 1.255 . S
Tb175 O174 2.289 1_565 S
Tb175 O191 2.326 . S
Tb175 O193 2.500 1_565 S
Tb175 O194 2.473 . S
Tb175 O197 2.324 . S
Eu176 O180 2.292 . S
Eu176 C181 2.852 . S
Eu176 O192 2.324 . S
Eu176 O196 2.326 . S
Eu176 O198 2.500 . S
Eu176 O199 2.473 . S
C177 O174 1.255 . S
C177 O178 1.247 1_545 S
O178 C177 1.247 1_565 S
C179 O191 1.242 . S
C179 O192 1.258 . S
O180 Eu176 2.292 . S
O180 C182 1.255 . S
C181 Eu176 2.852 . S
C181 C185 1.503 . S
C181 O198 1.273 . S
C181 O199 1.257 . S
C182 O180 1.255 . S
C182 O183 1.247 . S
O183 C182 1.247 . S
C184 O196 1.242 . S
C184 O197 1.258 . S
C185 C181 1.503 . S
C185 C186 1.379 . S
C185 C190 1.392 . S
C186 C185 1.379 . S
C186 C187 1.404 . S
C186 H200 0.929 . S
C187 C186 1.404 . S
C187 C188 1.389 . S
C188 C187 1.389 . S
C188 C189 1.399 . S
C188 H201 0.931 . S
C189 C188 1.399 . S
C189 C190 1.390 . S
C190 C185 1.392 . S
C190 C189 1.390 . S
C190 H202 0.929 . S
O191 Tb175 2.326 . S
O191 C179 1.242 . S
O192 Eu176 2.324 . S
O192 C179 1.258 . S
O193 Tb175 2.500 1_545 S
O193 C195 1.273 1_545 S
O194 Tb175 2.473 . S
O194 C195 1.257 . S
C195 O193 1.273 1_565 S
C195 O194 1.257 . S
O196 Eu176 2.326 . S
O196 C184 1.242 . S
O197 Tb175 2.324 . S
O197 C184 1.258 . S
O198 Eu176 2.500 . S
O198 C181 1.273 . S
O199 Eu176 2.473 . S
O199 C181 1.257 . S
H200 C186 0.929 . S
H201 C188 0.931 . S
H202 C190 0.929 . S
O203 Tb204 2.289 1_455 S
O203 C206 1.255 . S
Tb204 O203 2.289 1_655 S
Tb204 O220 2.326 . S
Tb204 O222 2.500 1_655 S
Tb204 O223 2.473 . S
Tb204 O226 2.324 . S
Eu205 O209 2.292 . S
Eu205 C210 2.852 . S
Eu205 O221 2.324 . S
Eu205 O225 2.326 . S
Eu205 O227 2.500 . S
Eu205 O228 2.473 . S
C206 O203 1.255 . S
C206 O207 1.247 1_455 S
O207 C206 1.247 1_655 S
C208 O220 1.242 . S
C208 O221 1.258 . S
O209 Eu205 2.292 . S
O209 C211 1.255 . S
C210 Eu205 2.852 . S
C210 C214 1.503 . S
C210 O227 1.273 . S
C210 O228 1.257 . S
C211 O209 1.255 . S
C211 O212 1.247 . S
O212 C211 1.247 . S
C213 O225 1.242 . S
C213 O226 1.258 . S
C214 C210 1.503 . S
C214 C215 1.379 . S
C214 C219 1.392 . S
C215 C214 1.379 . S
C215 C216 1.404 . S
C215 H229 0.929 . S
C216 C215 1.404 . S
C216 C217 1.389 . S
C217 C216 1.389 . S
C217 C218 1.399 . S
C217 H230 0.931 . S
C218 C217 1.399 . S
C218 C219 1.390 . S
C219 C214 1.392 . S
C219 C218 1.390 . S
C219 H231 0.929 . S
O220 Tb204 2.326 . S
O220 C208 1.242 . S
O221 Eu205 2.324 . S
O221 C208 1.258 . S
O222 Tb204 2.500 1_455 S
O222 C224 1.273 1_455 S
O223 Tb204 2.473 . S
O223 C224 1.257 . S
C224 O222 1.273 1_655 S
C224 O223 1.257 . S
O225 Eu205 2.326 . S
O225 C213 1.242 . S
O226 Tb204 2.324 . S
O226 C213 1.258 . S
O227 Eu205 2.500 . S
O227 C210 1.273 . S
O228 Eu205 2.473 . S
O228 C210 1.257 . S
H229 C215 0.929 . S
H230 C217 0.931 . S
H231 C219 0.929 . S
C232 C233 1.391 . S
C232 C234 1.394 1_554 S
C232 H248 0.931 . S
C233 C232 1.391 . S
C233 C237 1.376 . S
C234 C232 1.394 1_556 S
C234 C235 1.369 . S
C234 C238 1.531 . S
C235 C234 1.369 . S
C235 C236 1.410 . S
C235 C243 1.503 . S
C236 C235 1.410 . S
C236 C237 1.392 1_556 S
C236 C239 1.511 . S
C237 C233 1.376 . S
C237 C236 1.392 1_554 S
C237 H249 0.929 . S
C238 C234 1.531 . S
C238 H250 0.960 . S
C238 H251 0.962 . S
C238 H252 0.960 . S
C239 C236 1.511 . S
C239 H253 0.961 1_556 S
C239 H254 0.961 . S
C239 H255 0.961 . S
C240 C241 1.370 . S
C240 C242 1.363 . S
C240 H256 0.931 . S
C241 C240 1.370 . S
C241 C245 1.408 . S
C242 C240 1.363 . S
C242 C243 1.370 . S
C242 C246 1.524 . S
C243 C235 1.503 . S
C243 C242 1.370 . S
C243 C244 1.403 . S
C244 C243 1.403 . S
C244 C245 1.404 . S
C244 C247 1.539 . S
C245 C241 1.408 . S
C245 C244 1.404 . S
C245 H257 0.930 . S
C246 C242 1.524 . S
C246 H258 0.956 . S
C246 H259 0.961 . S
C246 H260 0.961 . S
C247 C244 1.539 . S
C247 H261 0.958 . S
C247 H262 0.961 . S
C247 H263 0.960 . S
H248 C232 0.931 . S
H249 C237 0.929 . S
H250 C238 0.960 . S
H251 C238 0.962 . S
H252 C238 0.960 . S
H253 C239 0.961 1_554 S
H254 C239 0.961 . S
H255 C239 0.961 . S
H256 C240 0.931 . S
H257 C245 0.930 . S
H258 C246 0.956 . S
H259 C246 0.961 . S
H260 C246 0.961 . S
H261 C247 0.958 . S
H262 C247 0.961 . S
H263 C247 0.960 . S
C264 C265 1.391 . S
C264 C266 1.394 1_556 S
C264 H280 0.931 . S
C265 C264 1.391 . S
C265 C269 1.376 . S
C266 C264 1.394 1_554 S
C266 C267 1.369 . S
C266 C270 1.531 . S
C267 C266 1.369 . S
C267 C268 1.410 . S
C267 C275 1.503 . S
C268 C267 1.410 . S
C268 C269 1.392 1_554 S
C268 C271 1.511 . S
C269 C265 1.376 . S
C269 C268 1.392 1_556 S
C269 H281 0.929 . S
C270 C266 1.531 . S
C270 H282 0.960 . S
C270 H283 0.962 . S
C270 H284 0.960 . S
C271 C268 1.511 . S
C271 H285 0.961 . S
C271 H286 0.961 . S
C271 H287 0.961 . S
C272 C273 1.370 . S
C272 C274 1.363 . S
C272 H288 0.931 . S
C273 C272 1.370 . S
C273 C277 1.408 . S
C274 C272 1.363 . S
C274 C275 1.370 . S
C274 C278 1.524 . S
C275 C267 1.503 . S
C275 C274 1.370 . S
C275 C276 1.403 . S
C276 C275 1.403 . S
C276 C277 1.404 . S
C276 C279 1.539 . S
C277 C273 1.408 . S
C277 C276 1.404 . S
C277 H289 0.930 . S
C278 C274 1.524 . S
C278 H290 0.956 . S
C278 H291 0.961 . S
C278 H292 0.961 . S
C279 C276 1.539 . S
C279 H293 0.958 . S
C279 H294 0.961 . S
C279 H295 0.960 . S
H280 C264 0.931 . S
H281 C269 0.929 . S
H282 C270 0.960 . S
H283 C270 0.962 . S
H284 C270 0.960 . S
H285 C271 0.961 . S
H286 C271 0.961 . S
H287 C271 0.961 . S
H288 C272 0.931 . S
H289 C277 0.930 . S
H290 C278 0.956 . S
H291 C278 0.961 . S
H292 C278 0.961 . S
H293 C279 0.958 . S
H294 C279 0.961 . S
H295 C279 0.960 . S
C296 C297 1.391 . S
C296 C298 1.394 . S
C296 H312 0.931 . S
C297 C296 1.391 . S
C297 C301 1.376 . S
C298 C296 1.394 . S
C298 C299 1.369 . S
C298 C302 1.531 . S
C299 C298 1.369 . S
C299 C300 1.410 . S
C299 C307 1.503 . S
C300 C299 1.410 . S
C300 C301 1.392 . S
C300 C303 1.511 . S
C301 C297 1.376 . S
C301 C300 1.392 . S
C301 H313 0.929 . S
C302 C298 1.531 . S
C302 H314 0.960 . S
C302 H315 0.962 . S
C302 H316 0.960 . S
C303 C300 1.511 . S
C303 H317 0.961 . S
C303 H318 0.961 . S
C303 H319 0.961 . S
C304 C305 1.370 . S
C304 C306 1.363 1_554 S
C304 H320 0.931 . S
C305 C304 1.370 . S
C305 C309 1.408 . S
C306 C304 1.363 1_556 S
C306 C307 1.370 . S
C306 C310 1.524 . S
C307 C299 1.503 . S
C307 C306 1.370 . S
C307 C308 1.403 . S
C308 C307 1.403 . S
C308 C309 1.404 1_556 S
C308 C311 1.539 . S
C309 C305 1.408 . S
C309 C308 1.404 1_554 S
C309 H321 0.930 . S
C310 C306 1.524 . S
C310 H322 0.956 . S
C310 H323 0.961 . S
C310 H324 0.961 . S
C311 C308 1.539 . S
C311 H325 0.958 . S
C311 H326 0.961 . S
C311 H327 0.960 . S
H312 C296 0.931 . S
H313 C301 0.929 . S
H314 C302 0.960 . S
H315 C302 0.962 . S
H316 C302 0.960 . S
H317 C303 0.961 . S
H318 C303 0.961 . S
H319 C303 0.961 . S
H320 C304 0.931 . S
H321 C309 0.930 . S
H322 C310 0.956 . S
H323 C310 0.961 . S
H324 C310 0.961 . S
H325 C311 0.958 . S
H326 C311 0.961 . S
H327 C311 0.960 . S
C328 C329 1.391 . S
C328 C330 1.394 . S
C328 H344 0.931 . S
C329 C328 1.391 . S
C329 C333 1.376 . S
C330 C328 1.394 . S
C330 C331 1.369 . S
C330 C334 1.531 . S
C331 C330 1.369 . S
C331 C332 1.410 . S
C331 C339 1.503 . S
C332 C331 1.410 . S
C332 C333 1.392 . S
C332 C335 1.511 . S
C333 C329 1.376 . S
C333 C332 1.392 . S
C333 H345 0.929 . S
C334 C330 1.531 . S
C334 H346 0.960 . S
C334 H347 0.962 . S
C334 H348 0.960 . S
C335 C332 1.511 . S
C335 H349 0.961 . S
C335 H350 0.961 . S
C335 H351 0.961 . S
C336 C337 1.370 . S
C336 C338 1.363 1_556 S
C336 H352 0.931 . S
C337 C336 1.370 . S
C337 C341 1.408 . S
C338 C336 1.363 1_554 S
C338 C339 1.370 . S
C338 C342 1.524 . S
C339 C331 1.503 . S
C339 C338 1.370 . S
C339 C340 1.403 . S
C340 C339 1.403 . S
C340 C341 1.404 1_554 S
C340 C343 1.539 . S
C341 C337 1.408 . S
C341 C340 1.404 1_556 S
C341 H353 0.930 . S
C342 C338 1.524 . S
C342 H354 0.956 . S
C342 H355 0.961 . S
C342 H356 0.961 . S
C343 C340 1.539 . S
C343 H357 0.958 . S
C343 H358 0.961 . S
C343 H359 0.960 . S
H344 C328 0.931 . S
H345 C333 0.929 . S
H346 C334 0.960 . S
H347 C334 0.962 . S
H348 C334 0.960 . S
H349 C335 0.961 . S
H350 C335 0.961 . S
H351 C335 0.961 . S
H352 C336 0.931 . S
H353 C341 0.930 . S
H354 C342 0.956 . S
H355 C342 0.961 . S
H356 C342 0.961 . S
H357 C343 0.958 . S
H358 C343 0.961 . S
H359 C343 0.960 . S
C360 C361 1.391 . S
C360 C362 1.394 . S
C360 H376 0.931 . S
C361 C360 1.391 . S
C361 C365 1.376 . S
C362 C360 1.394 . S
C362 C363 1.369 . S
C362 C366 1.531 . S
C363 C362 1.369 . S
C363 C364 1.410 . S
C363 C371 1.503 . S
C364 C363 1.410 . S
C364 C365 1.392 . S
C364 C367 1.511 . S
C365 C361 1.376 . S
C365 C364 1.392 . S
C365 H377 0.929 . S
C366 C362 1.531 . S
C366 H378 0.960 . S
C366 H379 0.962 . S
C366 H380 0.960 . S
C367 C364 1.511 . S
C367 H381 0.961 . S
C367 H382 0.961 . S
C367 H383 0.961 . S
C368 C369 1.370 . S
C368 C370 1.363 . S
C368 H384 0.931 . S
C369 C368 1.370 . S
C369 C373 1.408 . S
C370 C368 1.363 . S
C370 C371 1.370 . S
C370 C374 1.524 . S
C371 C363 1.503 . S
C371 C370 1.370 . S
C371 C372 1.403 . S
C372 C371 1.403 . S
C372 C373 1.404 . S
C372 C375 1.539 . S
C373 C369 1.408 . S
C373 C372 1.404 . S
C373 H385 0.930 . S
C374 C370 1.524 . S
C374 H386 0.956 . S
C374 H387 0.961 . S
C374 H388 0.961 . S
C375 C372 1.539 . S
C375 H389 0.958 . S
C375 H390 0.961 . S
C375 H391 0.960 . S
H376 C360 0.931 . S
H377 C365 0.929 . S
H378 C366 0.960 . S
H379 C366 0.962 . S
H380 C366 0.960 . S
H381 C367 0.961 . S
H382 C367 0.961 . S
H383 C367 0.961 . S
H384 C368 0.931 . S
H385 C373 0.930 . S
H386 C374 0.956 . S
H387 C374 0.961 . S
H388 C374 0.961 . S
H389 C375 0.958 . S
H390 C375 0.961 . S
H391 C375 0.960 . S
C392 C393 1.391 . S
C392 C394 1.394 . S
C392 H408 0.931 . S
C393 C392 1.391 . S
C393 C397 1.376 . S
C394 C392 1.394 . S
C394 C395 1.369 . S
C394 C398 1.531 . S
C395 C394 1.369 . S
C395 C396 1.410 . S
C395 C403 1.503 . S
C396 C395 1.410 . S
C396 C397 1.392 . S
C396 C399 1.511 . S
C397 C393 1.376 . S
C397 C396 1.392 . S
C397 H409 0.929 . S
C398 C394 1.531 . S
C398 H410 0.960 . S
C398 H411 0.962 . S
C398 H412 0.960 . S
C399 C396 1.511 . S
C399 H413 0.961 . S
C399 H414 0.961 . S
C399 H415 0.961 . S
C400 C401 1.370 . S
C400 C402 1.363 . S
C400 H416 0.931 . S
C401 C400 1.370 . S
C401 C405 1.408 . S
C402 C400 1.363 . S
C402 C403 1.370 . S
C402 C406 1.524 . S
C403 C395 1.503 . S
C403 C402 1.370 . S
C403 C404 1.403 . S
C404 C403 1.403 . S
C404 C405 1.404 . S
C404 C407 1.539 . S
C405 C401 1.408 . S
C405 C404 1.404 . S
C405 H417 0.930 . S
C406 C402 1.524 . S
C406 H418 0.956 . S
C406 H419 0.961 . S
C406 H420 0.961 . S
C407 C404 1.539 . S
C407 H421 0.958 . S
C407 H422 0.961 . S
C407 H423 0.960 . S
H408 C392 0.931 . S
H409 C397 0.929 . S
H410 C398 0.960 . S
H411 C398 0.962 . S
H412 C398 0.960 . S
H413 C399 0.961 . S
H414 C399 0.961 . S
H415 C399 0.961 . S
H416 C400 0.931 . S
H417 C405 0.930 . S
H418 C406 0.956 . S
H419 C406 0.961 . S
H420 C406 0.961 . S
H421 C407 0.958 . S
H422 C407 0.961 . S
H423 C407 0.960 . S
C424 C425 1.391 . S
C424 C426 1.394 . S
C424 H440 0.931 . S
C425 C424 1.391 . S
C425 C429 1.376 . S
C426 C424 1.394 . S
C426 C427 1.369 . S
C426 C430 1.531 . S
C427 C426 1.369 . S
C427 C428 1.410 . S
C427 C435 1.503 . S
C428 C427 1.410 . S
C428 C429 1.392 . S
C428 C431 1.511 . S
C429 C425 1.376 . S
C429 C428 1.392 . S
C429 H441 0.929 . S
C430 C426 1.531 . S
C430 H442 0.960 . S
C430 H443 0.962 . S
C430 H444 0.960 . S
C431 C428 1.511 . S
C431 H445 0.961 . S
C431 H446 0.961 . S
C431 H447 0.961 . S
C432 C433 1.370 . S
C432 C434 1.363 . S
C432 H448 0.931 . S
C433 C432 1.370 . S
C433 C437 1.408 . S
C434 C432 1.363 . S
C434 C435 1.370 . S
C434 C438 1.524 . S
C435 C427 1.503 . S
C435 C434 1.370 . S
C435 C436 1.403 . S
C436 C435 1.403 . S
C436 C437 1.404 . S
C436 C439 1.539 . S
C437 C433 1.408 . S
C437 C436 1.404 . S
C437 H449 0.930 . S
C438 C434 1.524 . S
C438 H450 0.956 . S
C438 H451 0.961 . S
C438 H452 0.961 . S
C439 C436 1.539 . S
C439 H453 0.958 . S
C439 H454 0.961 . S
C439 H455 0.960 . S
H440 C424 0.931 . S
H441 C429 0.929 . S
H442 C430 0.960 . S
H443 C430 0.962 . S
H444 C430 0.960 . S
H445 C431 0.961 . S
H446 C431 0.961 . S
H447 C431 0.961 . S
H448 C432 0.931 . S
H449 C437 0.930 . S
H450 C438 0.956 . S
H451 C438 0.961 . S
H452 C438 0.961 . S
H453 C439 0.958 . S
H454 C439 0.961 . S
H455 C439 0.960 . S
C456 C457 1.391 . S
C456 C458 1.394 . S
C456 H472 0.931 . S
C457 C456 1.391 . S
C457 C461 1.376 . S
C458 C456 1.394 . S
C458 C459 1.369 . S
C458 C462 1.531 . S
C459 C458 1.369 . S
C459 C460 1.410 . S
C459 C467 1.503 . S
C460 C459 1.410 . S
C460 C461 1.392 . S
C460 C463 1.511 . S
C461 C457 1.376 . S
C461 C460 1.392 . S
C461 H473 0.929 . S
C462 C458 1.531 . S
C462 H474 0.960 . S
C462 H475 0.962 . S
C462 H476 0.960 . S
C463 C460 1.511 . S
C463 H477 0.961 . S
C463 H478 0.961 . S
C463 H479 0.961 . S
C464 C465 1.370 . S
C464 C466 1.363 . S
C464 H480 0.931 . S
C465 C464 1.370 . S
C465 C469 1.408 . S
C466 C464 1.363 . S
C466 C467 1.370 . S
C466 C470 1.524 . S
C467 C459 1.503 . S
C467 C466 1.370 . S
C467 C468 1.403 . S
C468 C467 1.403 . S
C468 C469 1.404 . S
C468 C471 1.539 . S
C469 C465 1.408 . S
C469 C468 1.404 . S
C469 H481 0.930 . S
C470 C466 1.524 . S
C470 H482 0.956 . S
C470 H483 0.961 . S
C470 H484 0.961 . S
C471 C468 1.539 . S
C471 H485 0.958 . S
C471 H486 0.961 . S
C471 H487 0.960 . S
H472 C456 0.931 . S
H473 C461 0.929 . S
H474 C462 0.960 . S
H475 C462 0.962 . S
H476 C462 0.960 . S
H477 C463 0.961 . S
H478 C463 0.961 . S
H479 C463 0.961 . S
H480 C464 0.931 . S
H481 C469 0.930 . S
H482 C470 0.956 . S
H483 C470 0.961 . S
H484 C470 0.961 . S
H485 C471 0.958 . S
H486 C471 0.961 . S
H487 C471 0.960 . S
C488 C489 1.391 . S
C488 C490 1.394 1_556 S
C488 H504 0.931 . S
C489 C488 1.391 . S
C489 C493 1.376 . S
C490 C488 1.394 1_554 S
C490 C491 1.369 1_554 S
C490 C494 1.531 . S
C491 C490 1.369 1_556 S
C491 C492 1.410 . S
C491 C499 1.503 1_556 S
C492 C491 1.410 . S
C492 C493 1.392 . S
C492 C495 1.511 . S
C493 C489 1.376 . S
C493 C492 1.392 . S
C493 H505 0.929 . S
C494 C490 1.531 . S
C494 H506 0.960 . S
C494 H507 0.962 . S
C494 H508 0.960 . S
C495 C492 1.511 . S
C495 H509 0.961 . S
C495 H510 0.961 . S
C495 H511 0.961 . S
C496 C497 1.370 . S
C496 C498 1.363 . S
C496 H512 0.931 . S
C497 C496 1.370 . S
C497 C501 1.408 . S
C498 C496 1.363 . S
C498 C499 1.370 . S
C498 C502 1.524 1_554 S
C499 C491 1.503 1_554 S
C499 C498 1.370 . S
C499 C500 1.403 . S
C500 C499 1.403 . S
C500 C501 1.404 . S
C500 C503 1.539 . S
C501 C497 1.408 . S
C501 C500 1.404 . S
C501 H513 0.930 . S
C502 C498 1.524 1_556 S
C502 H514 0.956 1_556 S
C502 H515 0.961 . S
C502 H516 0.961 . S
C503 C500 1.539 . S
C503 H517 0.958 . S
C503 H518 0.961 . S
C503 H519 0.960 1_554 S
H504 C488 0.931 . S
H505 C493 0.929 . S
H506 C494 0.960 . S
H507 C494 0.962 . S
H508 C494 0.960 . S
H509 C495 0.961 . S
H510 C495 0.961 . S
H511 C495 0.961 . S
H512 C496 0.931 . S
H513 C501 0.930 . S
H514 C502 0.956 1_554 S
H515 C502 0.961 . S
H516 C502 0.961 . S
H517 C503 0.958 . S
H518 C503 0.961 . S
H519 C503 0.960 1_556 S
C520 C521 1.391 . S
C520 C522 1.394 1_554 S
C520 H536 0.931 . S
C521 C520 1.391 . S
C521 C525 1.376 . S
C522 C520 1.394 1_556 S
C522 C523 1.369 1_556 S
C522 C526 1.531 . S
C523 C522 1.369 1_554 S
C523 C524 1.410 . S
C523 C531 1.503 1_554 S
C524 C523 1.410 . S
C524 C525 1.392 . S
C524 C527 1.511 . S
C525 C521 1.376 . S
C525 C524 1.392 . S
C525 H537 0.929 . S
C526 C522 1.531 . S
C526 H538 0.960 . S
C526 H539 0.962 . S
C526 H540 0.960 . S
C527 C524 1.511 . S
C527 H541 0.961 . S
C527 H542 0.961 . S
C527 H543 0.961 . S
C528 C529 1.370 . S
C528 C530 1.363 1_556 S
C528 H544 0.931 . S
C529 C528 1.370 . S
C529 C533 1.408 . S
C530 C528 1.363 1_554 S
C530 C531 1.370 1_554 S
C530 C534 1.524 . S
C531 C523 1.503 1_556 S
C531 C530 1.370 1_556 S
C531 C532 1.403 . S
C532 C531 1.403 . S
C532 C533 1.404 . S
C532 C535 1.539 . S
C533 C529 1.408 . S
C533 C532 1.404 . S
C533 H545 0.930 . S
C534 C530 1.524 . S
C534 H546 0.956 . S
C534 H547 0.961 . S
C534 H548 0.961 . S
C535 C532 1.539 . S
C535 H549 0.958 . S
C535 H550 0.961 . S
C535 H551 0.960 . S
H536 C520 0.931 . S
H537 C525 0.929 . S
H538 C526 0.960 . S
H539 C526 0.962 . S
H540 C526 0.960 . S
H541 C527 0.961 . S
H542 C527 0.961 . S
H543 C527 0.961 . S
H544 C528 0.931 . S
H545 C533 0.930 . S
H546 C534 0.956 . S
H547 C534 0.961 . S
H548 C534 0.961 . S
H549 C535 0.958 . S
H550 C535 0.961 . S
H551 C535 0.960 . S
C552 C553 1.391 . S
C552 C554 1.394 1_556 S
C552 H568 0.931 . S
C553 C552 1.391 . S
C553 C557 1.376 . S
C554 C552 1.394 1_554 S
C554 C555 1.370 1_554 S
C554 C558 1.529 . S
C555 C554 1.370 1_556 S
C555 C556 1.410 . S
C555 C563 1.503 1_556 S
C556 C555 1.410 . S
C556 C557 1.392 . S
C556 C559 1.511 . S
C557 C553 1.376 . S
C557 C556 1.392 . S
C557 H569 0.929 . S
C558 C554 1.529 . S
C558 H570 0.960 . S
C558 H571 0.962 . S
C558 H572 0.960 . S
C559 C556 1.511 . S
C559 H573 0.961 . S
C559 H574 0.961 . S
C559 H575 0.961 . S
C560 C561 1.370 . S
C560 C562 1.363 . S
C560 H576 0.931 . S
C561 C560 1.370 . S
C561 C565 1.408 . S
C562 C560 1.363 . S
C562 C563 1.370 . S
C562 C566 1.524 . S
C563 C555 1.503 1_554 S
C563 C562 1.370 . S
C563 C564 1.403 . S
C564 C563 1.403 . S
C564 C565 1.404 . S
C564 C567 1.539 1_554 S
C565 C561 1.408 . S
C565 C564 1.404 . S
C565 H577 0.930 . S
C566 C562 1.524 . S
C566 H578 0.956 . S
C566 H579 0.961 1_554 S
C566 H580 0.961 . S
C567 C564 1.539 1_556 S
C567 H581 0.958 1_556 S
C567 H582 0.961 . S
C567 H583 0.960 . S
H568 C552 0.931 . S
H569 C557 0.929 . S
H570 C558 0.960 . S
H571 C558 0.962 . S
H572 C558 0.960 . S
H573 C559 0.961 . S
H574 C559 0.961 . S
H575 C559 0.961 . S
H576 C560 0.931 . S
H577 C565 0.930 . S
H578 C566 0.956 . S
H579 C566 0.961 1_556 S
H580 C566 0.961 . S
H581 C567 0.958 1_554 S
H582 C567 0.961 . S
H583 C567 0.960 . S
C584 C585 1.391 . S
C584 C586 1.394 1_556 S
C584 H600 0.931 1_556 S
C585 C584 1.391 . S
C585 C589 1.376 . S
C586 C584 1.394 1_554 S
C586 C587 1.369 . S
C586 C590 1.531 . S
C587 C586 1.369 . S
C587 C588 1.410 1_554 S
C587 C595 1.503 . S
C588 C587 1.410 1_556 S
C588 C589 1.392 . S
C588 C591 1.511 . S
C589 C585 1.376 . S
C589 C588 1.392 . S
C589 H601 0.929 . S
C590 C586 1.531 . S
C590 H602 0.960 . S
C590 H603 0.962 . S
C590 H604 0.960 . S
C591 C588 1.511 . S
C591 H605 0.961 . S
C591 H606 0.961 . S
C591 H607 0.961 . S
C592 C593 1.370 . S
C592 C594 1.363 . S
C592 H608 0.931 . S
C593 C592 1.370 . S
C593 C597 1.408 . S
C594 C592 1.363 . S
C594 C595 1.370 . S
C594 C598 1.524 1_554 S
C595 C587 1.503 . S
C595 C594 1.370 . S
C595 C596 1.403 . S
C596 C595 1.403 . S
C596 C597 1.404 . S
C596 C599 1.539 . S
C597 C593 1.408 . S
C597 C596 1.404 . S
C597 H609 0.930 . S
C598 C594 1.524 1_556 S
C598 H610 0.956 1_556 S
C598 H611 0.961 . S
C598 H612 0.961 . S
C599 C596 1.539 . S
C599 H613 0.958 . S
C599 H614 0.961 . S
C599 H615 0.960 . S
H600 C584 0.931 1_554 S
H601 C589 0.929 . S
H602 C590 0.960 . S
H603 C590 0.962 . S
H604 C590 0.960 . S
H605 C591 0.961 . S
H606 C591 0.961 . S
H607 C591 0.961 . S
H608 C592 0.931 . S
H609 C597 0.930 . S
H610 C598 0.956 1_554 S
H611 C598 0.961 . S
H612 C598 0.961 . S
H613 C599 0.958 . S
H614 C599 0.961 . S
H615 C599 0.960 . S
C616 C617 1.391 . S
C616 C618 1.394 . S
C616 H632 0.931 . S
C617 C616 1.391 . S
C617 C621 1.376 . S
C618 C616 1.394 . S
C618 C619 1.369 . S
C618 C622 1.531 . S
C619 C618 1.369 . S
C619 C620 1.410 . S
C619 C627 1.503 . S
C620 C619 1.410 . S
C620 C621 1.392 . S
C620 C623 1.511 . S
C621 C617 1.376 . S
C621 C620 1.392 . S
C621 H633 0.929 . S
C622 C618 1.531 . S
C622 H634 0.960 . S
C622 H635 0.962 . S
C622 H636 0.960 . S
C623 C620 1.511 . S
C623 H637 0.961 . S
C623 H638 0.961 . S
C623 H639 0.961 . S
C624 C625 1.370 1_655 S
C624 C626 1.363 . S
C624 H640 0.931 . S
C625 C624 1.370 1_455 S
C625 C629 1.408 1_455 S
C626 C624 1.363 . S
C626 C627 1.370 . S
C626 C630 1.524 . S
C627 C619 1.503 . S
C627 C626 1.370 . S
C627 C628 1.403 . S
C628 C627 1.403 . S
C628 C629 1.404 . S
C628 C631 1.539 . S
C629 C625 1.408 1_655 S
C629 C628 1.404 . S
C629 H641 0.930 1_655 S
C630 C626 1.524 . S
C630 H642 0.956 . S
C630 H643 0.961 . S
C630 H644 0.961 . S
C631 C628 1.539 . S
C631 H645 0.958 . S
C631 H646 0.961 . S
C631 H647 0.960 . S
H632 C616 0.931 . S
H633 C621 0.929 . S
H634 C622 0.960 . S
H635 C622 0.962 . S
H636 C622 0.960 . S
H637 C623 0.961 . S
H638 C623 0.961 . S
H639 C623 0.961 . S
H640 C624 0.931 . S
H641 C629 0.930 1_455 S
H642 C630 0.956 . S
H643 C630 0.961 . S
H644 C630 0.961 . S
H645 C631 0.958 . S
H646 C631 0.961 . S
H647 C631 0.960 . S
C648 C649 1.391 . S
C648 C650 1.394 . S
C648 H664 0.931 . S
C649 C648 1.391 . S
C649 C653 1.376 . S
C650 C648 1.394 . S
C650 C651 1.369 . S
C650 C654 1.531 . S
C651 C650 1.369 . S
C651 C652 1.410 . S
C651 C659 1.503 . S
C652 C651 1.410 . S
C652 C653 1.392 . S
C652 C655 1.511 . S
C653 C649 1.376 . S
C653 C652 1.392 . S
C653 H665 0.929 . S
C654 C650 1.531 . S
C654 H666 0.960 . S
C654 H667 0.962 . S
C654 H668 0.960 . S
C655 C652 1.511 . S
C655 H669 0.961 . S
C655 H670 0.961 . S
C655 H671 0.961 . S
C656 C657 1.370 1_545 S
C656 C658 1.363 . S
C656 H672 0.931 . S
C657 C656 1.370 1_565 S
C657 C661 1.408 . S
C658 C656 1.363 . S
C658 C659 1.370 . S
C658 C662 1.524 . S
C659 C651 1.503 . S
C659 C658 1.370 . S
C659 C660 1.403 . S
C660 C659 1.403 . S
C660 C661 1.404 1_545 S
C660 C663 1.539 . S
C661 C657 1.408 . S
C661 C660 1.404 1_565 S
C661 H673 0.930 . S
C662 C658 1.524 . S
C662 H674 0.956 . S
C662 H675 0.961 . S
C662 H676 0.961 . S
C663 C660 1.539 . S
C663 H677 0.958 . S
C663 H678 0.961 . S
C663 H679 0.960 . S
H664 C648 0.931 . S
H665 C653 0.929 . S
H666 C654 0.960 . S
H667 C654 0.962 . S
H668 C654 0.960 . S
H669 C655 0.961 . S
H670 C655 0.961 . S
H671 C655 0.961 . S
H672 C656 0.931 . S
H673 C661 0.930 . S
H674 C662 0.956 . S
H675 C662 0.961 . S
H676 C662 0.961 . S
H677 C663 0.958 . S
H678 C663 0.961 . S
H679 C663 0.960 . S
C680 C681 1.391 . S
C680 C682 1.394 . S
C680 H696 0.931 . S
C681 C680 1.391 . S
C681 C685 1.376 . S
C682 C680 1.394 . S
C682 C683 1.369 . S
C682 C686 1.531 . S
C683 C682 1.369 . S
C683 C684 1.410 . S
C683 C691 1.503 . S
C684 C683 1.410 . S
C684 C685 1.392 . S
C684 C687 1.511 . S
C685 C681 1.376 . S
C685 C684 1.392 . S
C685 H697 0.929 . S
C686 C682 1.531 . S
C686 H698 0.960 . S
C686 H699 0.962 . S
C686 H700 0.960 . S
C687 C684 1.511 . S
C687 H701 0.961 . S
C687 H702 0.961 . S
C687 H703 0.961 . S
C688 C689 1.370 1_455 S
C688 C690 1.363 . S
C688 H704 0.931 . S
C689 C688 1.370 1_655 S
C689 C693 1.408 1_655 S
C690 C688 1.363 . S
C690 C691 1.370 . S
C690 C694 1.524 . S
C691 C683 1.503 . S
C691 C690 1.370 . S
C691 C692 1.403 . S
C692 C691 1.403 . S
C692 C693 1.404 . S
C692 C695 1.539 . S
C693 C689 1.408 1_455 S
C693 C692 1.404 . S
C693 H705 0.930 1_455 S
C694 C690 1.524 . S
C694 H706 0.956 . S
C694 H707 0.961 . S
C694 H708 0.961 . S
C695 C692 1.539 . S
C695 H709 0.958 . S
C695 H710 0.961 . S
C695 H711 0.960 . S
H696 C680 0.931 . S
H697 C685 0.929 . S
H698 C686 0.960 . S
H699 C686 0.962 . S
H700 C686 0.960 . S
H701 C687 0.961 . S
H702 C687 0.961 . S
H703 C687 0.961 . S
H704 C688 0.931 . S
H705 C693 0.930 1_655 S
H706 C694 0.956 . S
H707 C694 0.961 . S
H708 C694 0.961 . S
H709 C695 0.958 . S
H710 C695 0.961 . S
H711 C695 0.960 . S
C712 C713 1.391 1_565 S
C712 C714 1.394 . S
C712 H728 0.931 . S
C713 C712 1.391 1_545 S
C713 C717 1.376 1_545 S
C714 C712 1.394 . S
C714 C715 1.369 . S
C714 C718 1.531 . S
C715 C714 1.369 . S
C715 C716 1.410 . S
C715 C723 1.503 . S
C716 C715 1.410 . S
C716 C717 1.392 . S
C716 C719 1.511 . S
C717 C713 1.376 1_565 S
C717 C716 1.392 . S
C717 H729 0.929 1_565 S
C718 C714 1.531 . S
C718 H730 0.960 . S
C718 H731 0.962 . S
C718 H732 0.960 . S
C719 C716 1.511 . S
C719 H733 0.961 . S
C719 H734 0.961 . S
C719 H735 0.961 . S
C720 C721 1.370 . S
C720 C722 1.363 . S
C720 H736 0.931 . S
C721 C720 1.370 . S
C721 C725 1.408 . S
C722 C720 1.363 . S
C722 C723 1.370 . S
C722 C726 1.524 . S
C723 C715 1.503 . S
C723 C722 1.370 . S
C723 C724 1.403 . S
C724 C723 1.403 . S
C724 C725 1.404 . S
C724 C727 1.539 . S
C725 C721 1.408 . S
C725 C724 1.404 . S
C725 H737 0.930 . S
C726 C722 1.524 . S
C726 H738 0.956 . S
C726 H739 0.961 . S
C726 H740 0.961 . S
C727 C724 1.539 . S
C727 H741 0.958 . S
C727 H742 0.961 . S
C727 H743 0.960 . S
H728 C712 0.931 . S
H729 C717 0.929 1_545 S
H730 C718 0.960 . S
H731 C718 0.962 . S
H732 C718 0.960 . S
H733 C719 0.961 . S
H734 C719 0.961 . S
H735 C719 0.961 . S
H736 C720 0.931 . S
H737 C725 0.930 . S
H738 C726 0.956 . S
H739 C726 0.961 . S
H740 C726 0.961 . S
H741 C727 0.958 . S
H742 C727 0.961 . S
H743 C727 0.960 . S
C744 C745 1.391 . S
C744 C746 1.394 . S
C744 H760 0.931 . S
C745 C744 1.391 . S
C745 C749 1.376 . S
C746 C744 1.394 . S
C746 C747 1.369 . S
C746 C750 1.531 . S
C747 C746 1.369 . S
C747 C748 1.410 . S
C747 C755 1.503 . S
C748 C747 1.410 . S
C748 C749 1.392 . S
C748 C751 1.511 . S
C749 C745 1.376 . S
C749 C748 1.392 . S
C749 H761 0.929 . S
C750 C746 1.531 . S
C750 H762 0.960 . S
C750 H763 0.962 . S
C750 H764 0.960 . S
C751 C748 1.511 . S
C751 H765 0.961 . S
C751 H766 0.961 . S
C751 H767 0.961 . S
C752 C753 1.370 . S
C752 C754 1.363 . S
C752 H768 0.931 . S
C753 C752 1.370 . S
C753 C757 1.408 . S
C754 C752 1.363 . S
C754 C755 1.370 . S
C754 C758 1.524 . S
C755 C747 1.503 . S
C755 C754 1.370 . S
C755 C756 1.403 . S
C756 C755 1.403 . S
C756 C757 1.404 . S
C756 C759 1.539 . S
C757 C753 1.408 . S
C757 C756 1.404 . S
C757 H769 0.930 . S
C758 C754 1.524 . S
C758 H770 0.956 . S
C758 H771 0.961 . S
C758 H772 0.961 . S
C759 C756 1.539 . S
C759 H773 0.958 . S
C759 H774 0.961 . S
C759 H775 0.960 . S
H760 C744 0.931 . S
H761 C749 0.929 . S
H762 C750 0.960 . S
H763 C750 0.962 . S
H764 C750 0.960 . S
H765 C751 0.961 . S
H766 C751 0.961 . S
H767 C751 0.961 . S
H768 C752 0.931 . S
H769 C757 0.930 . S
H770 C758 0.956 . S
H771 C758 0.961 . S
H772 C758 0.961 . S
H773 C759 0.958 . S
H774 C759 0.961 . S
H775 C759 0.960 . S
C776 C777 1.391 . S
C776 C778 1.394 . S
C776 H792 0.931 . S
C777 C776 1.391 . S
C777 C781 1.376 . S
C778 C776 1.394 . S
C778 C779 1.369 . S
C778 C782 1.531 . S
C779 C778 1.369 . S
C779 C780 1.410 . S
C779 C787 1.503 . S
C780 C779 1.410 . S
C780 C781 1.392 . S
C780 C783 1.511 . S
C781 C777 1.376 . S
C781 C780 1.392 . S
C781 H793 0.929 . S
C782 C778 1.531 . S
C782 H794 0.960 . S
C782 H795 0.962 . S
C782 H796 0.960 . S
C783 C780 1.511 . S
C783 H797 0.961 . S
C783 H798 0.961 . S
C783 H799 0.961 . S
C784 C785 1.370 . S
C784 C786 1.363 . S
C784 H800 0.931 . S
C785 C784 1.370 . S
C785 C789 1.408 . S
C786 C784 1.363 . S
C786 C787 1.370 . S
C786 C790 1.524 . S
C787 C779 1.503 . S
C787 C786 1.370 . S
C787 C788 1.403 . S
C788 C787 1.403 . S
C788 C789 1.404 . S
C788 C791 1.539 . S
C789 C785 1.408 . S
C789 C788 1.404 . S
C789 H801 0.930 . S
C790 C786 1.524 . S
C790 H802 0.956 . S
C790 H803 0.961 . S
C790 H804 0.961 . S
C791 C788 1.539 . S
C791 H805 0.958 . S
C791 H806 0.961 . S
C791 H807 0.960 . S
H792 C776 0.931 . S
H793 C781 0.929 . S
H794 C782 0.960 . S
H795 C782 0.962 . S
H796 C782 0.960 . S
H797 C783 0.961 . S
H798 C783 0.961 . S
H799 C783 0.961 . S
H800 C784 0.931 . S
H801 C789 0.930 . S
H802 C790 0.956 . S
H803 C790 0.961 . S
H804 C790 0.961 . S
H805 C791 0.958 . S
H806 C791 0.961 . S
H807 C791 0.960 . S
C808 C809 1.391 . S
C808 C810 1.394 . S
C808 H824 0.931 . S
C809 C808 1.391 . S
C809 C813 1.376 1_545 S
C810 C808 1.394 . S
C810 C811 1.369 . S
C810 C814 1.531 . S
C811 C810 1.369 . S
C811 C812 1.410 1_545 S
C811 C819 1.503 1_645 S
C812 C811 1.410 1_565 S
C812 C813 1.392 . S
C812 C815 1.511 . S
C813 C809 1.376 1_565 S
C813 C812 1.392 . S
C813 H825 0.929 . S
C814 C810 1.531 . S
C814 H826 0.960 1_655 S
C814 H827 0.962 1_655 S
C814 H828 0.960 . S
C815 C812 1.511 . S
C815 H829 0.961 . S
C815 H830 0.961 . S
C815 H831 0.961 . S
C816 C817 1.370 . S
C816 C818 1.363 . S
C816 H832 0.931 . S
C817 C816 1.370 . S
C817 C821 1.408 . S
C818 C816 1.363 . S
C818 C819 1.370 . S
C818 C822 1.524 . S
C819 C811 1.503 1_465 S
C819 C818 1.370 . S
C819 C820 1.403 . S
C820 C819 1.403 . S
C820 C821 1.404 . S
C820 C823 1.539 . S
C821 C817 1.408 . S
C821 C820 1.404 . S
C821 H833 0.930 . S
C822 C818 1.524 . S
C822 H834 0.956 1_565 S
C822 H835 0.961 1_455 S
C822 H836 0.961 . S
C823 C820 1.539 . S
C823 H837 0.958 1_565 S
C823 H838 0.961 . S
C823 H839 0.960 1_455 S
H824 C808 0.931 . S
H825 C813 0.929 . S
H826 C814 0.960 1_455 S
H827 C814 0.962 1_455 S
H828 C814 0.960 . S
H829 C815 0.961 . S
H830 C815 0.961 . S
H831 C815 0.961 . S
H832 C816 0.931 . S
H833 C821 0.930 . S
H834 C822 0.956 1_545 S
H835 C822 0.961 1_655 S
H836 C822 0.961 . S
H837 C823 0.958 1_545 S
H838 C823 0.961 . S
H839 C823 0.960 1_655 S
C840 C841 1.391 . S
C840 C842 1.394 . S
C840 H856 0.931 . S
C841 C840 1.391 . S
C841 C845 1.376 1_455 S
C842 C840 1.394 . S
C842 C843 1.354 1_455 S
C842 C846 1.531 . S
C843 C842 1.354 1_655 S
C843 C844 1.419 . S
C843 C851 1.508 1_545 S
C844 C843 1.419 . S
C844 C845 1.392 . S
C844 C847 1.511 . S
C845 C841 1.376 1_655 S
C845 C844 1.392 . S
C845 H857 0.929 . S
C846 C842 1.531 . S
C846 H858 0.960 1_545 S
C846 H859 0.962 1_545 S
C846 H860 0.960 . S
C847 C844 1.511 . S
C847 H861 0.961 . S
C847 H862 0.961 . S
C847 H863 0.961 . S
C848 C849 1.370 1_455 S
C848 C850 1.363 . S
C848 H864 0.931 . S
C849 C848 1.370 1_655 S
C849 C853 1.408 . S
C850 C848 1.363 . S
C850 C851 1.370 1_455 S
C850 C854 1.524 . S
C851 C843 1.508 1_565 S
C851 C850 1.370 1_655 S
C851 C852 1.403 . S
C852 C851 1.403 . S
C852 C853 1.404 . S
C852 C855 1.539 . S
C853 C849 1.408 . S
C853 C852 1.404 . S
C853 H865 0.930 . S
C854 C850 1.524 . S
C854 H866 0.956 . S
C854 H867 0.961 . S
C854 H868 0.961 . S
C855 C852 1.539 . S
C855 H869 0.958 . S
C855 H870 0.961 . S
C855 H871 0.960 1_565 S
H856 C840 0.931 . S
H857 C845 0.929 . S
H858 C846 0.960 1_565 S
H859 C846 0.962 1_565 S
H860 C846 0.960 . S
H861 C847 0.961 . S
H862 C847 0.961 . S
H863 C847 0.961 . S
H864 C848 0.931 . S
H865 C853 0.930 . S
H866 C854 0.956 . S
H867 C854 0.961 . S
H868 C854 0.961 . S
H869 C855 0.958 . S
H870 C855 0.961 . S
H871 C855 0.960 1_545 S
C872 C873 1.391 . S
C872 C874 1.394 . S
C872 H888 0.931 . S
C873 C872 1.391 . S
C873 C877 1.376 . S
C874 C872 1.394 . S
C874 C875 1.369 . S
C874 C878 1.531 . S
C875 C874 1.369 . S
C875 C876 1.410 . S
C875 C883 1.503 . S
C876 C875 1.410 . S
C876 C877 1.392 . S
C876 C879 1.511 . S
C877 C873 1.376 . S
C877 C876 1.392 . S
C877 H889 0.929 . S
C878 C874 1.531 . S
C878 H890 0.960 . S
C878 H891 0.962 . S
C878 H892 0.960 . S
C879 C876 1.511 . S
C879 H893 0.961 . S
C879 H894 0.961 . S
C879 H895 0.961 . S
C880 C881 1.370 . S
C880 C882 1.363 . S
C880 H896 0.931 . S
C881 C880 1.370 . S
C881 C885 1.408 . S
C882 C880 1.363 . S
C882 C883 1.370 . S
C882 C886 1.524 . S
C883 C875 1.503 . S
C883 C882 1.370 . S
C883 C884 1.403 . S
C884 C883 1.403 . S
C884 C885 1.404 . S
C884 C887 1.539 . S
C885 C881 1.408 . S
C885 C884 1.404 . S
C885 H897 0.930 . S
C886 C882 1.524 . S
C886 H898 0.956 . S
C886 H899 0.961 . S
C886 H900 0.961 . S
C887 C884 1.539 . S
C887 H901 0.958 . S
C887 H902 0.961 . S
C887 H903 0.960 . S
H888 C872 0.931 . S
H889 C877 0.929 . S
H890 C878 0.960 . S
H891 C878 0.962 . S
H892 C878 0.960 . S
H893 C879 0.961 . S
H894 C879 0.961 . S
H895 C879 0.961 . S
H896 C880 0.931 . S
H897 C885 0.930 . S
H898 C886 0.956 . S
H899 C886 0.961 . S
H900 C886 0.961 . S
H901 C887 0.958 . S
H902 C887 0.961 . S
H903 C887 0.960 . S
C904 C905 1.391 . S
C904 C906 1.394 . S
C904 H920 0.931 . S
C905 C904 1.391 . S
C905 C909 1.376 . S
C906 C904 1.394 . S
C906 C907 1.369 . S
C906 C910 1.531 . S
C907 C906 1.369 . S
C907 C908 1.410 . S
C907 C915 1.503 . S
C908 C907 1.410 . S
C908 C909 1.392 . S
C908 C911 1.511 . S
C909 C905 1.376 . S
C909 C908 1.392 . S
C909 H921 0.929 . S
C910 C906 1.531 . S
C910 H922 0.960 . S
C910 H923 0.962 . S
C910 H924 0.960 . S
C911 C908 1.511 . S
C911 H925 0.961 . S
C911 H926 0.961 . S
C911 H927 0.961 . S
C912 C913 1.370 . S
C912 C914 1.363 . S
C912 H928 0.931 . S
C913 C912 1.370 . S
C913 C917 1.408 . S
C914 C912 1.363 . S
C914 C915 1.370 . S
C914 C918 1.524 . S
C915 C907 1.503 . S
C915 C914 1.370 . S
C915 C916 1.403 . S
C916 C915 1.403 . S
C916 C917 1.404 . S
C916 C919 1.539 . S
C917 C913 1.408 . S
C917 C916 1.404 . S
C917 H929 0.930 . S
C918 C914 1.524 . S
C918 H930 0.956 . S
C918 H931 0.961 . S
C918 H932 0.961 . S
C919 C916 1.539 . S
C919 H933 0.958 . S
C919 H934 0.961 . S
C919 H935 0.960 . S
H920 C904 0.931 . S
H921 C909 0.929 . S
H922 C910 0.960 . S
H923 C910 0.962 . S
H924 C910 0.960 . S
H925 C911 0.961 . S
H926 C911 0.961 . S
H927 C911 0.961 . S
H928 C912 0.931 . S
H929 C917 0.930 . S
H930 C918 0.956 . S
H931 C918 0.961 . S
H932 C918 0.961 . S
H933 C919 0.958 . S
H934 C919 0.961 . S
H935 C919 0.960 . S
C936 C937 1.391 . S
C936 C938 1.394 . S
C936 H952 0.931 . S
C937 C936 1.391 . S
C937 C941 1.376 . S
C938 C936 1.394 . S
C938 C939 1.369 . S
C938 C942 1.531 . S
C939 C938 1.369 . S
C939 C940 1.410 . S
C939 C947 1.503 . S
C940 C939 1.410 . S
C940 C941 1.392 . S
C940 C943 1.511 . S
C941 C937 1.376 . S
C941 C940 1.392 . S
C941 H953 0.929 . S
C942 C938 1.531 . S
C942 H954 0.960 . S
C942 H955 0.962 . S
C942 H956 0.960 . S
C943 C940 1.511 . S
C943 H957 0.961 . S
C943 H958 0.961 . S
C943 H959 0.961 . S
C944 C945 1.370 . S
C944 C946 1.363 . S
C944 H960 0.931 . S
C945 C944 1.370 . S
C945 C949 1.408 . S
C946 C944 1.363 . S
C946 C947 1.370 . S
C946 C950 1.524 . S
C947 C939 1.503 . S
C947 C946 1.370 . S
C947 C948 1.403 . S
C948 C947 1.403 . S
C948 C949 1.404 . S
C948 C951 1.539 . S
C949 C945 1.408 . S
C949 C948 1.404 . S
C949 H961 0.930 . S
C950 C946 1.524 . S
C950 H962 0.956 . S
C950 H963 0.961 . S
C950 H964 0.961 . S
C951 C948 1.539 . S
C951 H965 0.958 . S
C951 H966 0.961 . S
C951 H967 0.960 . S
H952 C936 0.931 . S
H953 C941 0.929 . S
H954 C942 0.960 . S
H955 C942 0.962 . S
H956 C942 0.960 . S
H957 C943 0.961 . S
H958 C943 0.961 . S
H959 C943 0.961 . S
H960 C944 0.931 . S
H961 C949 0.930 . S
H962 C950 0.956 . S
H963 C950 0.961 . S
H964 C950 0.961 . S
H965 C951 0.958 . S
H966 C951 0.961 . S
H967 C951 0.960 . S
C968 C969 1.391 . S
C968 C970 1.394 . S
C968 H984 0.931 . S
C969 C968 1.391 . S
C969 C973 1.376 . S
C970 C968 1.394 . S
C970 C971 1.369 . S
C970 C974 1.531 . S
C971 C970 1.369 . S
C971 C972 1.410 . S
C971 C979 1.503 . S
C972 C971 1.410 . S
C972 C973 1.392 . S
C972 C975 1.511 . S
C973 C969 1.376 . S
C973 C972 1.392 . S
C973 H985 0.929 . S
C974 C970 1.531 . S
C974 H986 0.960 . S
C974 H987 0.962 . S
C974 H988 0.960 . S
C975 C972 1.511 . S
C975 H989 0.961 . S
C975 H990 0.961 . S
C975 H991 0.961 . S
C976 C977 1.370 . S
C976 C978 1.363 . S
C976 H992 0.931 . S
C977 C976 1.370 . S
C977 C981 1.408 . S
C978 C976 1.363 . S
C978 C979 1.370 . S
C978 C982 1.524 . S
C979 C971 1.503 . S
C979 C978 1.370 . S
C979 C980 1.403 . S
C980 C979 1.403 . S
C980 C981 1.404 . S
C980 C983 1.539 . S
C981 C977 1.408 . S
C981 C980 1.404 . S
C981 H993 0.930 . S
C982 C978 1.524 . S
C982 H994 0.956 . S
C982 H995 0.961 . S
C982 H996 0.961 . S
C983 C980 1.539 . S
C983 H997 0.958 . S
C983 H998 0.961 . S
C983 H999 0.960 . S
H984 C968 0.931 . S
H985 C973 0.929 . S
H986 C974 0.960 . S
H987 C974 0.962 . S
H988 C974 0.960 . S
H989 C975 0.961 . S
H990 C975 0.961 . S
H991 C975 0.961 . S
H992 C976 0.931 . S
H993 C981 0.930 . S
H994 C982 0.956 . S
H995 C982 0.961 . S
H996 C982 0.961 . S
H997 C983 0.958 . S
H998 C983 0.961 . S
H999 C983 0.960 . S
C1000 C1001 1.391 . S
C1000 C1002 1.394 . S
C1000 H1016 0.931 . S
C1001 C1000 1.391 . S
C1001 C1005 1.376 . S
C1002 C1000 1.394 . S
C1002 C1003 1.369 . S
C1002 C1006 1.531 . S
C1003 C1002 1.369 . S
C1003 C1004 1.410 . S
C1003 C1011 1.503 . S
C1004 C1003 1.410 . S
C1004 C1005 1.392 . S
C1004 C1007 1.511 . S
C1005 C1001 1.376 . S
C1005 C1004 1.392 . S
C1005 H1017 0.929 . S
C1006 C1002 1.531 . S
C1006 H1018 0.960 . S
C1006 H1019 0.962 . S
C1006 H1020 0.960 . S
C1007 C1004 1.511 . S
C1007 H1021 0.961 . S
C1007 H1022 0.961 . S
C1007 H1023 0.961 . S
C1008 C1009 1.370 . S
C1008 C1010 1.363 . S
C1008 H1024 0.931 . S
C1009 C1008 1.370 . S
C1009 C1013 1.408 . S
C1010 C1008 1.363 . S
C1010 C1011 1.370 . S
C1010 C1014 1.524 . S
C1011 C1003 1.503 . S
C1011 C1010 1.370 . S
C1011 C1012 1.403 . S
C1012 C1011 1.403 . S
C1012 C1013 1.404 . S
C1012 C1015 1.539 . S
C1013 C1009 1.408 . S
C1013 C1012 1.404 . S
C1013 H1025 0.930 . S
C1014 C1010 1.524 . S
C1014 H1026 0.956 . S
C1014 H1027 0.961 . S
C1014 H1028 0.961 . S
C1015 C1012 1.539 . S
C1015 H1029 0.958 . S
C1015 H1030 0.961 . S
C1015 H1031 0.960 . S
H1016 C1000 0.931 . S
H1017 C1005 0.929 . S
H1018 C1006 0.960 . S
H1019 C1006 0.962 . S
H1020 C1006 0.960 . S
H1021 C1007 0.961 . S
H1022 C1007 0.961 . S
H1023 C1007 0.961 . S
H1024 C1008 0.931 . S
H1025 C1013 0.930 . S
H1026 C1014 0.956 . S
H1027 C1014 0.961 . S
H1028 C1014 0.961 . S
H1029 C1015 0.958 . S
H1030 C1015 0.961 . S
H1031 C1015 0.960 . S
C1032 C1033 1.391 . S
C1032 C1034 1.394 . S
C1032 H1048 0.931 . S
C1033 C1032 1.391 . S
C1033 C1037 1.376 . S
C1034 C1032 1.394 . S
C1034 C1035 1.369 . S
C1034 C1038 1.531 . S
C1035 C1034 1.369 . S
C1035 C1036 1.410 . S
C1035 C1043 1.503 . S
C1036 C1035 1.410 . S
C1036 C1037 1.392 . S
C1036 C1039 1.511 . S
C1037 C1033 1.376 . S
C1037 C1036 1.392 . S
C1037 H1049 0.929 . S
C1038 C1034 1.531 . S
C1038 H1050 0.960 . S
C1038 H1051 0.962 . S
C1038 H1052 0.960 . S
C1039 C1036 1.511 . S
C1039 H1053 0.961 . S
C1039 H1054 0.961 . S
C1039 H1055 0.961 . S
C1040 C1041 1.370 . S
C1040 C1042 1.363 . S
C1040 H1056 0.931 . S
C1041 C1040 1.370 . S
C1041 C1045 1.408 . S
C1042 C1040 1.363 . S
C1042 C1043 1.370 . S
C1042 C1046 1.524 . S
C1043 C1035 1.503 . S
C1043 C1042 1.370 . S
C1043 C1044 1.403 . S
C1044 C1043 1.403 . S
C1044 C1045 1.404 . S
C1044 C1047 1.539 . S
C1045 C1041 1.408 . S
C1045 C1044 1.404 . S
C1045 H1057 0.930 . S
C1046 C1042 1.524 . S
C1046 H1058 0.956 . S
C1046 H1059 0.961 . S
C1046 H1060 0.961 . S
C1047 C1044 1.539 . S
C1047 H1061 0.958 . S
C1047 H1062 0.961 . S
C1047 H1063 0.960 . S
H1048 C1032 0.931 . S
H1049 C1037 0.929 . S
H1050 C1038 0.960 . S
H1051 C1038 0.962 . S
H1052 C1038 0.960 . S
H1053 C1039 0.961 . S
H1054 C1039 0.961 . S
H1055 C1039 0.961 . S
H1056 C1040 0.931 . S
H1057 C1045 0.930 . S
H1058 C1046 0.956 . S
H1059 C1046 0.961 . S
H1060 C1046 0.961 . S
H1061 C1047 0.958 . S
H1062 C1047 0.961 . S
H1063 C1047 0.960 . S
C1064 C1065 1.391 . S
C1064 C1066 1.394 . S
C1064 H1080 0.931 . S
C1065 C1064 1.391 . S
C1065 C1069 1.376 . S
C1066 C1064 1.394 . S
C1066 C1067 1.369 . S
C1066 C1070 1.531 . S
C1067 C1066 1.369 . S
C1067 C1068 1.410 . S
C1067 C1075 1.503 . S
C1068 C1067 1.410 . S
C1068 C1069 1.392 . S
C1068 C1071 1.511 . S
C1069 C1065 1.376 . S
C1069 C1068 1.392 . S
C1069 H1081 0.929 . S
C1070 C1066 1.531 . S
C1070 H1082 0.960 . S
C1070 H1083 0.962 . S
C1070 H1084 0.960 . S
C1071 C1068 1.511 . S
C1071 H1085 0.961 . S
C1071 H1086 0.961 . S
C1071 H1087 0.961 . S
C1072 C1073 1.370 . S
C1072 C1074 1.363 . S
C1072 H1088 0.931 . S
C1073 C1072 1.370 . S
C1073 C1077 1.408 . S
C1074 C1072 1.363 . S
C1074 C1075 1.370 . S
C1074 C1078 1.524 . S
C1075 C1067 1.503 . S
C1075 C1074 1.370 . S
C1075 C1076 1.403 . S
C1076 C1075 1.403 . S
C1076 C1077 1.404 . S
C1076 C1079 1.539 . S
C1077 C1073 1.408 . S
C1077 C1076 1.404 . S
C1077 H1089 0.930 . S
C1078 C1074 1.524 . S
C1078 H1090 0.956 . S
C1078 H1091 0.961 . S
C1078 H1092 0.961 . S
C1079 C1076 1.539 . S
C1079 H1093 0.958 . S
C1079 H1094 0.961 . S
C1079 H1095 0.960 . S
H1080 C1064 0.931 . S
H1081 C1069 0.929 . S
H1082 C1070 0.960 . S
H1083 C1070 0.962 . S
H1084 C1070 0.960 . S
H1085 C1071 0.961 . S
H1086 C1071 0.961 . S
H1087 C1071 0.961 . S
H1088 C1072 0.931 . S
H1089 C1077 0.930 . S
H1090 C1078 0.956 . S
H1091 C1078 0.961 . S
H1092 C1078 0.961 . S
H1093 C1079 0.958 . S
H1094 C1079 0.961 . S
H1095 C1079 0.960 . S
C1096 C1097 1.391 . S
C1096 C1098 1.394 . S
C1096 H1112 0.931 . S
C1097 C1096 1.391 . S
C1097 C1101 1.376 . S
C1098 C1096 1.394 . S
C1098 C1099 1.369 . S
C1098 C1102 1.531 . S
C1099 C1098 1.369 . S
C1099 C1100 1.410 . S
C1099 C1107 1.503 . S
C1100 C1099 1.410 . S
C1100 C1101 1.392 . S
C1100 C1103 1.511 . S
C1101 C1097 1.376 . S
C1101 C1100 1.392 . S
C1101 H1113 0.929 . S
C1102 C1098 1.531 . S
C1102 H1114 0.960 . S
C1102 H1115 0.962 . S
C1102 H1116 0.960 . S
C1103 C1100 1.511 . S
C1103 H1117 0.961 . S
C1103 H1118 0.961 . S
C1103 H1119 0.961 . S
C1104 C1105 1.370 . S
C1104 C1106 1.363 . S
C1104 H1120 0.931 . S
C1105 C1104 1.370 . S
C1105 C1109 1.408 . S
C1106 C1104 1.363 . S
C1106 C1107 1.370 . S
C1106 C1110 1.524 . S
C1107 C1099 1.503 . S
C1107 C1106 1.370 . S
C1107 C1108 1.403 . S
C1108 C1107 1.403 . S
C1108 C1109 1.404 . S
C1108 C1111 1.539 . S
C1109 C1105 1.408 . S
C1109 C1108 1.404 . S
C1109 H1121 0.930 . S
C1110 C1106 1.524 . S
C1110 H1122 0.956 . S
C1110 H1123 0.961 . S
C1110 H1124 0.961 . S
C1111 C1108 1.539 . S
C1111 H1125 0.958 . S
C1111 H1126 0.961 . S
C1111 H1127 0.960 . S
H1112 C1096 0.931 . S
H1113 C1101 0.929 . S
H1114 C1102 0.960 . S
H1115 C1102 0.962 . S
H1116 C1102 0.960 . S
H1117 C1103 0.961 . S
H1118 C1103 0.961 . S
H1119 C1103 0.961 . S
H1120 C1104 0.931 . S
H1121 C1109 0.930 . S
H1122 C1110 0.956 . S
H1123 C1110 0.961 . S
H1124 C1110 0.961 . S
H1125 C1111 0.958 . S
H1126 C1111 0.961 . S
H1127 C1111 0.960 . S
C233 C10 2.333 . S
C241 C158 2.194 . S
C265 C39 2.354 . S
C273 C187 2.211 . S
C297 C216 2.174 . S
C305 C68 2.344 . S
C329 C129 2.170 . S
C337 C97 2.343 . S
C361 C126 2.356 . S
C369 C100 2.209 . S
C393 C155 2.351 . S
C401 C13 2.197 . S
C425 C184 2.356 . S
C433 C42 2.210 . S
C457 C213 2.314 . S
C465 C71 2.208 . S
C489 C108 0.688 . S
C497 C8 0.710 . S
C521 C21 0.518 . S
C529 C37 0.792 . S
C553 C50 0.676 . S
C561 C66 0.716 . S
C585 C95 0.870 . S
C593 C79 0.532 . S
C617 C124 0.642 . S
C625 C166 0.627 . S
C649 C153 0.673 . S
C657 C195 0.623 . S
C681 C182 0.643 . S
C689 C224 0.627 . S
C713 C137 0.674 . S
C721 C211 0.726 . S
C745 C5 2.851 . S
C753 C63 2.864 . S
C777 C34 2.863 . S
C785 C92 2.860 . S
C809 C121 2.831 . S
C817 C179 2.846 . S
C841 C150 2.873 . S
C849 C208 2.851 . S
C873 C177 1.496 . S
C881 C15 1.499 . S
C905 C44 1.473 . S
C913 C206 1.492 . S
C937 C73 1.491 . S
C945 C119 1.496 . S
C969 C148 1.489 . S
C977 C102 1.484 . S
C1001 C131 1.484 . S
C1009 C61 1.480 . S
C1033 C90 1.469 . S
C1041 C160 1.495 . S
C1065 C189 1.480 . S
C1073 C3 1.493 . S
C1097 C32 1.472 . S
C1105 C218 1.496 . S
