# Generated by pormake.
# Topology ukf, (4)-cn, num edge types: 1
# Building blocks:
#     Node 0, Type 0, BuildingBlock: ICAMEG_clean_sbu_1, # of connection points: 4
#     Node 1, Type 0, BuildingBlock: ICAMEG_clean_sbu_1, # of connection points: 4
#     Node 2, Type 0, BuildingBlock: ICAMEG_clean_sbu_1, # of connection points: 4
#     Node 3, Type 0, BuildingBlock: ICAMEG_clean_sbu_1, # of connection points: 4
#     Node 4, Type 0, BuildingBlock: ICAMEG_clean_sbu_1, # of connection points: 4
#     Node 5, Type 0, BuildingBlock: ICAMEG_clean_sbu_1, # of connection points: 4
#     Node 6, Type 0, BuildingBlock: ICAMEG_clean_sbu_1, # of connection points: 4
#     Node 7, Type 0, BuildingBlock: ICAMEG_clean_sbu_1, # of connection points: 4
#     Node 8, Type 0, BuildingBlock: ICAMEG_clean_sbu_1, # of connection points: 4
#     Node 9, Type 0, BuildingBlock: ICAMEG_clean_sbu_1, # of connection points: 4
#     Node 10, Type 0, BuildingBlock: ICAMEG_clean_sbu_1, # of connection points: 4
#     Node 11, Type 0, BuildingBlock: ICAMEG_clean_sbu_1, # of connection points: 4
#     Edge 12, Type (0, 0), BuildingBlock: XIVTED_clean_linker_0, # of connection points: 2
#     Edge 13, Type (0, 0), BuildingBlock: XIVTED_clean_linker_0, # of connection points: 2
#     Edge 14, Type (0, 0), BuildingBlock: XIVTED_clean_linker_0, # of connection points: 2
#     Edge 15, Type (0, 0), BuildingBlock: XIVTED_clean_linker_0, # of connection points: 2
#     Edge 16, Type (0, 0), BuildingBlock: XIVTED_clean_linker_0, # of connection points: 2
#     Edge 17, Type (0, 0), BuildingBlock: XIVTED_clean_linker_0, # of connection points: 2
#     Edge 18, Type (0, 0), BuildingBlock: XIVTED_clean_linker_0, # of connection points: 2
#     Edge 19, Type (0, 0), BuildingBlock: XIVTED_clean_linker_0, # of connection points: 2
#     Edge 20, Type (0, 0), BuildingBlock: XIVTED_clean_linker_0, # of connection points: 2
#     Edge 21, Type (0, 0), BuildingBlock: XIVTED_clean_linker_0, # of connection points: 2
#     Edge 22, Type (0, 0), BuildingBlock: XIVTED_clean_linker_0, # of connection points: 2
#     Edge 23, Type (0, 0), BuildingBlock: XIVTED_clean_linker_0, # of connection points: 2
#     Edge 24, Type (0, 0), BuildingBlock: XIVTED_clean_linker_0, # of connection points: 2
#     Edge 25, Type (0, 0), BuildingBlock: XIVTED_clean_linker_0, # of connection points: 2
#     Edge 26, Type (0, 0), BuildingBlock: XIVTED_clean_linker_0, # of connection points: 2
#     Edge 27, Type (0, 0), BuildingBlock: XIVTED_clean_linker_0, # of connection points: 2
#     Edge 28, Type (0, 0), BuildingBlock: XIVTED_clean_linker_0, # of connection points: 2
#     Edge 29, Type (0, 0), BuildingBlock: XIVTED_clean_linker_0, # of connection points: 2
#     Edge 30, Type (0, 0), BuildingBlock: XIVTED_clean_linker_0, # of connection points: 2
#     Edge 31, Type (0, 0), BuildingBlock: XIVTED_clean_linker_0, # of connection points: 2
#     Edge 32, Type (0, 0), BuildingBlock: XIVTED_clean_linker_0, # of connection points: 2
#     Edge 33, Type (0, 0), BuildingBlock: XIVTED_clean_linker_0, # of connection points: 2
#     Edge 34, Type (0, 0), BuildingBlock: XIVTED_clean_linker_0, # of connection points: 2
#     Edge 35, Type (0, 0), BuildingBlock: XIVTED_clean_linker_0, # of connection points: 2
# Relax obj value: 0.107
# Max RMSD: 0.105
# Mean RMSD: 0.105
data_MOF--net-ukf--node1-ICAMEG_clean_sbu_1--edge1-XIVTED_clean_linker_0
_symmetry_space_group_name_H-M    P1
_symmetry_Int_Tables_number       1
_symmetry_cell_setting            triclinic
loop_
_symmetry_equiv_pos_as_xyz
'x, y, z'
_cell_length_a     34.013842
_cell_length_b     34.038445
_cell_length_c     71.350232
_cell_angle_alpha  90.016411
_cell_angle_beta   90.03081
_cell_angle_gamma 120.11513
loop_
_atom_site_label
_atom_site_type_symbol
_atom_site_fract_x
_atom_site_fract_y
_atom_site_fract_z
_atom_type_partial_charge
Co0 Co 0.41244 0.24689 0.03998 0.0
Co1 Co 0.43247 0.18836 0.07395 0.0
O2 O 0.41713 0.23451 0.06648 0.0
C3 C 0.47151 0.34087 0.05471 0.0
O4 O 0.50043 0.32887 0.06077 0.0
C5 C 0.36195 0.18036 0.1019 0.0
O6 O 0.34736 0.20007 0.09029 0.0
O7 O 0.37985 0.14166 0.05927 0.0
O8 O 0.38827 0.18139 0.03304 0.0
H9 H 0.45747 0.05683 0.06244 0.0
H10 H 0.36907 0.27764 0.06798 0.0
O11 O 0.43544 0.31236 0.04619 0.0
H12 H 0.24463 0.17174 0.02656 0.0
H13 H 0.37758 0.32131 0.98656 0.0
H14 H 0.4353 0.21927 0.00404 0.0
H15 H 0.32312 0.18857 0.02112 0.0
H16 H 0.38203 0.30377 0.01976 0.0
O17 O 0.39364 0.17282 0.09709 0.0
H18 H 0.43971 0.11623 0.05361 0.0
H19 H 0.45571 0.16075 0.11017 0.0
H20 H 0.43112 0.23564 0.97067 0.0
H21 H 0.29116 0.26237 0.07372 0.0
H22 H 0.40207 0.28699 0.96174 0.0
H23 H 0.22824 0.20889 0.05298 0.0
O24 O 0.47573 0.25978 0.03545 0.0
H25 H 0.51085 0.321 0.118 0.0
H26 H 0.5305 0.21559 0.07692 0.0
H27 H 0.5966 0.27527 0.09399 0.0
H28 H 0.58698 0.32841 0.11476 0.0
H29 H 0.44577 0.26115 0.10055 0.0
H30 H 0.4733 0.10159 0.11963 0.0
H31 H 0.47445 0.04922 0.09567 0.0
O32 O 0.47279 0.20193 0.05155 0.0
C33 C 0.37216 0.14377 0.04188 0.0
C34 C 0.45722 0.07953 0.07301 0.0
C35 C 0.46605 0.10462 0.1051 0.0
N36 N 0.44701 0.1422 0.08132 0.0
C37 C 0.44729 0.11332 0.06808 0.0
C38 C 0.45596 0.138 0.09966 0.0
C39 C 0.4667 0.07525 0.09165 0.0
C40 C 0.34196 0.25463 0.05879 0.0
N41 N 0.35069 0.23389 0.0443 0.0
C42 C 0.29787 0.24597 0.06216 0.0
C43 C 0.26257 0.21591 0.05053 0.0
C44 C 0.27173 0.195 0.03573 0.0
C45 C 0.31624 0.20446 0.0328 0.0
C46 C 0.39022 0.29882 0.99027 0.0
C47 C 0.42241 0.24147 1.00027 0.0
C48 C 0.39291 0.28883 0.00905 0.0
N49 N 0.4086 0.26025 0.01383 0.0
C50 C 0.42022 0.2507 0.98135 0.0
C51 C 0.40395 0.27954 0.97635 0.0
C52 C 0.49131 0.23366 0.03945 0.0
C53 C 0.51542 0.29789 0.10908 0.0
C54 C 0.52599 0.23857 0.08593 0.0
C55 C 0.56357 0.27228 0.09557 0.0
C56 C 0.55815 0.30208 0.10723 0.0
N57 N 0.4841 0.23447 0.08791 0.0
C58 C 0.47861 0.26374 0.09923 0.0
Co59 Co 0.1659 0.41053 0.37025 0.0
Co60 Co 0.23898 0.42859 0.4062 0.0
O61 O 0.17915 0.41324 0.39688 0.0
C62 C 0.13165 0.46936 0.38471 0.0
O63 O 0.17229 0.49653 0.3916 0.0
C64 C 0.21588 0.35826 0.4358 0.0
O65 O 0.2455 0.34884 0.42835 0.0
O66 O 0.23661 0.37768 0.39129 0.0
O67 O 0.20737 0.38636 0.36443 0.0
H68 H 0.39766 0.45459 0.401 0.0
H69 H 0.09039 0.36572 0.39756 0.0
O70 O 0.12364 0.43393 0.37562 0.0
H71 H 0.07242 0.24405 0.35472 0.0
H72 H 0.06372 0.38064 0.31453 0.0
H73 H 0.22094 0.43489 0.33547 0.0
H74 H 0.13498 0.32273 0.3503 0.0
H75 H 0.08143 0.38268 0.34817 0.0
O76 O 0.2079 0.38728 0.42804 0.0
H77 H 0.32214 0.43632 0.38928 0.0
H78 H 0.28311 0.45229 0.44403 0.0
H79 H 0.2047 0.43307 0.30169 0.0
H80 H 0.02709 0.28756 0.40239 0.0
H81 H 0.12559 0.40578 0.29103 0.0
H82 H 0.01783 0.22608 0.38088 0.0
O83 O 0.21759 0.47362 0.36681 0.0
H84 H 0.17507 0.50109 0.44844 0.0
H85 H 0.3076 0.52704 0.41084 0.0
H86 H 0.30952 0.59112 0.42776 0.0
H87 H 0.24298 0.57833 0.44678 0.0
H88 H 0.1743 0.43805 0.43112 0.0
H89 H 0.35822 0.47072 0.45634 0.0
H90 H 0.41612 0.47196 0.43476 0.0
O91 O 0.27032 0.47071 0.38472 0.0
C92 C 0.22873 0.37081 0.3737 0.0
C93 C 0.37272 0.45416 0.41055 0.0
C94 C 0.3506 0.46323 0.4416 0.0
N95 N 0.2982 0.44321 0.41594 0.0
C96 C 0.32988 0.44382 0.40399 0.0
C97 C 0.30813 0.45277 0.43454 0.0
C98 C 0.38306 0.46391 0.42949 0.0
C99 C 0.08642 0.3392 0.38808 0.0
N100 N 0.11618 0.34883 0.37361 0.0
C101 C 0.05059 0.29499 0.39091 0.0
C102 C 0.04544 0.2605 0.37885 0.0
C103 C 0.07606 0.27055 0.36417 0.0
C104 C 0.11149 0.31515 0.36177 0.0
C105 C 0.09831 0.39251 0.319 0.0
C106 C 0.1864 0.42273 0.33093 0.0
C107 C 0.10856 0.39384 0.33803 0.0
N108 N 0.15212 0.40853 0.34376 0.0
C109 C 0.17742 0.42189 0.31179 0.0
C110 C 0.13304 0.40661 0.30582 0.0
C111 C 0.25872 0.48922 0.37195 0.0
C112 C 0.20435 0.50705 0.44026 0.0
C113 C 0.27841 0.52117 0.41903 0.0
C114 C 0.27976 0.5576 0.42862 0.0
C115 C 0.24243 0.5504 0.4393 0.0
N116 N 0.24101 0.47868 0.4201 0.0
C117 C 0.20422 0.47142 0.4305 0.0
Co118 Co 0.75585 0.17315 0.70431 0.0
Co119 Co 0.81063 0.24772 0.74059 0.0
O120 O 0.76773 0.18635 0.73126 0.0
C121 C 0.6631 0.12911 0.72131 0.0
O122 O 0.67698 0.16365 0.73281 0.0
C123 C 0.82269 0.18333 0.76624 0.0
O124 O 0.79859 0.14871 0.75513 0.0
O125 O 0.85954 0.25036 0.7243 0.0
O126 O 0.82082 0.21767 0.69798 0.0
H127 H 0.93139 0.41144 0.73311 0.0
H128 H 0.72721 0.09516 0.73009 0.0
O129 O 0.69032 0.12784 0.70941 0.0
H130 H 0.83753 0.08911 0.68711 0.0
H131 H 0.68635 0.07183 0.64809 0.0
H132 H 0.78203 0.22962 0.66993 0.0
H133 H 0.81742 0.14898 0.68383 0.0
H134 H 0.70268 0.08859 0.68174 0.0
O135 O 0.83106 0.22304 0.76178 0.0
H136 H 0.8761 0.33428 0.72221 0.0
H137 H 0.83764 0.29112 0.77844 0.0
H138 H 0.76682 0.21435 0.63613 0.0
H139 H 0.74585 0.03427 0.7337 0.0
H140 H 0.71867 0.13496 0.62501 0.0
H141 H 0.80153 0.03109 0.71215 0.0
O142 O 0.74005 0.22171 0.70168 0.0
H143 H 0.68053 0.1744 0.78628 0.0
H144 H 0.77643 0.31131 0.74877 0.0
H145 H 0.7155 0.30844 0.76838 0.0
H146 H 0.66716 0.2397 0.78743 0.0
H147 H 0.74111 0.17833 0.76618 0.0
H148 H 0.8928 0.3677 0.78994 0.0
H149 H 0.94002 0.42856 0.7672 0.0
O150 O 0.79208 0.27591 0.72031 0.0
C151 C 0.85803 0.24157 0.70683 0.0
C152 C 0.91091 0.38525 0.74315 0.0
C153 C 0.8893 0.36068 0.77505 0.0
N154 N 0.85343 0.30826 0.74965 0.0
C155 C 0.87946 0.34151 0.73706 0.0
C156 C 0.85821 0.31733 0.76845 0.0
C157 C 0.91577 0.39481 0.76228 0.0
C158 C 0.75122 0.09382 0.72058 0.0
N159 N 0.77131 0.12572 0.70683 0.0
C160 C 0.76176 0.05934 0.72273 0.0
C161 C 0.79305 0.05762 0.71065 0.0
C162 C 0.81331 0.0902 0.69662 0.0
C163 C 0.80197 0.1242 0.6949 0.0
C164 C 0.70746 0.10656 0.65275 0.0
C165 C 0.76126 0.19496 0.66519 0.0
C166 C 0.71677 0.11627 0.6718 0.0
N167 N 0.74359 0.16003 0.67779 0.0
C168 C 0.75267 0.18654 0.64604 0.0
C169 C 0.72561 0.14199 0.63981 0.0
C170 C 0.76164 0.26253 0.7076 0.0
C171 C 0.70154 0.20467 0.77814 0.0
C172 C 0.75542 0.28115 0.75688 0.0
C173 C 0.72104 0.27979 0.76804 0.0
C174 C 0.69398 0.24125 0.77874 0.0
N175 N 0.76285 0.24522 0.75641 0.0
C176 C 0.73626 0.20725 0.76682 0.0
Co177 Co 0.58998 0.75441 0.03951 0.0
Co178 Co 0.56851 0.81312 0.07289 0.0
O179 O 0.58432 0.76703 0.06588 0.0
C180 C 0.53062 0.66055 0.05423 0.0
O181 O 0.50146 0.67255 0.05997 0.0
C182 C 0.63902 0.82291 0.10122 0.0
O183 O 0.65483 0.8041 0.08972 0.0
O184 O 0.62159 0.85973 0.05849 0.0
O185 O 0.61423 0.81983 0.03241 0.0
H186 H 0.54369 0.94439 0.06037 0.0
H187 H 0.63255 0.72427 0.06815 0.0
O188 O 0.56694 0.68904 0.04588 0.0
H189 H 0.75825 0.82978 0.02723 0.0
H190 H 0.62702 0.67972 0.98688 0.0
H191 H 0.56831 0.78159 1.00319 0.0
H192 H 0.67989 0.81269 0.02115 0.0
H193 H 0.62132 0.69752 0.01992 0.0
O194 O 0.6065 0.82902 0.09628 0.0
H195 H 0.56191 0.88502 0.05206 0.0
H196 H 0.54374 0.84088 0.1087 0.0
H197 H 0.57376 0.76497 0.96996 0.0
H198 H 0.71032 0.7398 0.07453 0.0
H199 H 0.60331 0.71369 0.96162 0.0
H200 H 0.77387 0.79309 0.05405 0.0
O201 O 0.52678 0.74128 0.03444 0.0
H202 H 0.4891 0.68119 0.11711 0.0
H203 H 0.47022 0.78537 0.07497 0.0
H204 H 0.40364 0.72569 0.09176 0.0
H205 H 0.41287 0.67315 0.11305 0.0
H206 H 0.55467 0.74106 0.09992 0.0
H207 H 0.52567 0.90002 0.11765 0.0
H208 H 0.52538 0.95219 0.09338 0.0
O209 O 0.5291 0.79932 0.05017 0.0
C210 C 0.62991 0.8575 0.04119 0.0
C211 C 0.54355 0.92177 0.07106 0.0
C212 C 0.53349 0.8969 0.10321 0.0
N213 N 0.55352 0.85922 0.07984 0.0
C214 C 0.55372 0.88798 0.06643 0.0
C215 C 0.54384 0.86352 0.09806 0.0
C216 C 0.53332 0.92615 0.08959 0.0
C217 C 0.65993 0.74718 0.05907 0.0
N218 N 0.65163 0.76766 0.04434 0.0
C219 C 0.70394 0.756 0.0628 0.0
C220 C 0.73959 0.78594 0.05132 0.0
C221 C 0.73086 0.8066 0.03629 0.0
C222 C 0.68643 0.79699 0.03299 0.0
C223 C 0.61416 0.70217 0.99033 0.0
C224 C 0.58141 0.75943 0.99968 0.0
C225 C 0.61076 0.7123 0.00902 0.0
N226 N 0.5948 0.74084 0.01348 0.0
C227 C 0.58432 0.75006 0.98083 0.0
C228 C 0.60086 0.72125 0.97617 0.0
C229 C 0.51114 0.76753 0.03806 0.0
C230 C 0.48468 0.70402 0.10794 0.0
C231 C 0.47455 0.76264 0.0842 0.0
C232 C 0.43671 0.72894 0.09369 0.0
C233 C 0.44191 0.69948 0.10564 0.0
N234 N 0.51646 0.76706 0.08662 0.0
C235 C 0.52176 0.73815 0.09824 0.0
Co236 Co 0.84276 0.59592 0.37174 0.0
Co237 Co 0.76757 0.56939 0.40804 0.0
O238 O 0.82807 0.589 0.39829 0.0
C239 C 0.87715 0.53621 0.38472 0.0
O240 O 0.83634 0.50843 0.39128 0.0
C241 C 0.78782 0.63901 0.43784 0.0
O242 O 0.75627 0.6462 0.43081 0.0
O243 O 0.76472 0.61833 0.39347 0.0
O244 O 0.80103 0.61993 0.36692 0.0
H245 H 0.60446 0.53048 0.40409 0.0
H246 H 0.91671 0.63701 0.39997 0.0
O247 O 0.8853 0.5724 0.37623 0.0
H248 H 0.93512 0.76465 0.36089 0.0
H249 H 0.94835 0.63566 0.3166 0.0
H250 H 0.78975 0.57702 0.33655 0.0
H251 H 0.87358 0.68651 0.3544 0.0
H252 H 0.92863 0.62802 0.35019 0.0
O253 O 0.7975 0.61151 0.42978 0.0
H254 H 0.68089 0.55403 0.39178 0.0
H255 H 0.72566 0.54411 0.44623 0.0
H256 H 0.808 0.58441 0.30283 0.0
H257 H 0.97898 0.71458 0.40685 0.0
H258 H 0.88782 0.61393 0.29267 0.0
H259 H 0.98846 0.77906 0.38724 0.0
O260 O 0.79191 0.53336 0.36653 0.0
H261 H 0.84358 0.50622 0.44868 0.0
H262 H 0.70423 0.47005 0.41386 0.0
H263 H 0.70885 0.40896 0.43041 0.0
H264 H 0.7789 0.42692 0.44805 0.0
H265 H 0.83773 0.5661 0.4317 0.0
H266 H 0.64974 0.52052 0.45914 0.0
H267 H 0.5885 0.51356 0.438 0.0
O268 O 0.73774 0.52603 0.38665 0.0
C269 C 0.77569 0.63027 0.37638 0.0
C270 C 0.63086 0.53339 0.41344 0.0
C271 C 0.65627 0.5278 0.44434 0.0
N272 N 0.70772 0.55048 0.41826 0.0
C273 C 0.6742 0.54671 0.40655 0.0
C274 C 0.69919 0.54119 0.43695 0.0
C275 C 0.62193 0.5239 0.43247 0.0
C276 C 0.92079 0.66486 0.39131 0.0
N277 N 0.89171 0.6572 0.37674 0.0
C278 C 0.95603 0.70872 0.3953 0.0
C279 C 0.9613 0.74489 0.3843 0.0
C280 C 0.93137 0.73683 0.36952 0.0
C281 C 0.89652 0.69253 0.36595 0.0
C282 C 0.91346 0.62283 0.32086 0.0
C283 C 0.82459 0.59012 0.33224 0.0
C284 C 0.90207 0.61833 0.33985 0.0
N285 N 0.85812 0.60238 0.34532 0.0
C286 C 0.83471 0.59412 0.31312 0.0
C287 C 0.87948 0.61064 0.30743 0.0
C288 C 0.75102 0.51265 0.37252 0.0
C289 C 0.81284 0.49797 0.44108 0.0
C290 C 0.73494 0.47807 0.42133 0.0
C291 C 0.73729 0.44337 0.43078 0.0
C292 C 0.77657 0.45348 0.44069 0.0
N293 N 0.77061 0.52166 0.42178 0.0
C294 C 0.80924 0.53179 0.43148 0.0
Co295 Co 0.2449 0.83756 0.70715 0.0
Co296 Co 0.1987 0.75417 0.7417 0.0
O297 O 0.23624 0.81767 0.73347 0.0
C298 C 0.33923 0.87418 0.72188 0.0
O299 O 0.32477 0.83776 0.7323 0.0
C300 C 0.17192 0.80854 0.76673 0.0
O301 O 0.18771 0.84194 0.7546 0.0
O302 O 0.14721 0.74479 0.72503 0.0
O303 O 0.17864 0.7973 0.70221 0.0
H304 H 0.09695 0.58644 0.73167 0.0
H305 H 0.28085 0.90767 0.73702 0.0
O306 O 0.31185 0.87895 0.71123 0.0
H307 H 0.17028 0.93288 0.70212 0.0
H308 H 0.31036 0.95212 0.65486 0.0
H309 H 0.20936 0.79081 0.67079 0.0
H310 H 0.18524 0.87183 0.6928 0.0
H311 H 0.29895 0.9269 0.68781 0.0
O312 O 0.17232 0.77212 0.76306 0.0
H313 H 0.14429 0.66638 0.72196 0.0
H314 H 0.17397 0.70735 0.7789 0.0
H315 H 0.21954 0.81464 0.63767 0.0
H316 H 0.26761 0.9697 0.74662 0.0
H317 H 0.27036 0.89582 0.62953 0.0
H318 H 0.21177 0.98246 0.72917 0.0
O319 O 0.25676 0.78807 0.69934 0.0
H320 H 0.32379 0.83814 0.78876 0.0
H321 H 0.24483 0.70095 0.74943 0.0
H322 H 0.30901 0.7121 0.76926 0.0
H323 H 0.34888 0.78106 0.78918 0.0
H324 H 0.26004 0.826 0.7685 0.0
H325 H 0.12665 0.62793 0.78921 0.0
H326 H 0.08787 0.56679 0.76552 0.0
O327 O 0.22401 0.73368 0.72126 0.0
C328 C 0.14472 0.76341 0.70986 0.0
C329 C 0.11372 0.61277 0.74213 0.0
C330 C 0.13034 0.63606 0.77442 0.0
N331 N 0.16197 0.69153 0.74982 0.0
C332 C 0.14063 0.65809 0.73671 0.0
C333 C 0.15696 0.68101 0.76849 0.0
C334 C 0.10861 0.60177 0.76112 0.0
C335 C 0.25687 0.91331 0.72924 0.0
N336 N 0.23371 0.88603 0.71442 0.0
C337 C 0.24934 0.94835 0.7348 0.0
C338 C 0.21795 0.95544 0.72502 0.0
C339 C 0.19459 0.92758 0.70987 0.0
C340 C 0.20297 0.89286 0.70473 0.0
C341 C 0.28809 0.91666 0.65823 0.0
C342 C 0.23135 0.82624 0.66737 0.0
C343 C 0.28158 0.90214 0.67686 0.0
N344 N 0.25333 0.85744 0.68123 0.0
C345 C 0.23706 0.83951 0.64858 0.0
C346 C 0.26562 0.88506 0.64403 0.0
C347 C 0.24586 0.74914 0.70601 0.0
C348 C 0.30659 0.80787 0.7802 0.0
C349 C 0.2622 0.73119 0.75793 0.0
C350 C 0.2984 0.73723 0.76921 0.0
C351 C 0.32072 0.77589 0.7804 0.0
N352 N 0.24846 0.76266 0.75782 0.0
C353 C 0.27021 0.80065 0.76877 0.0
Co354 Co 0.76323 0.60344 0.63376 0.0
Co355 Co 0.80503 0.55951 0.60041 0.0
O356 O 0.76974 0.58804 0.60792 0.0
C357 C 0.66747 0.5425 0.62202 0.0
O358 O 0.67914 0.51291 0.61659 0.0
C359 C 0.83367 0.63874 0.57424 0.0
O360 O 0.82471 0.66077 0.58704 0.0
O361 O 0.8583 0.60332 0.61595 0.0
O362 O 0.82924 0.62731 0.63865 0.0
H363 H 0.90396 0.49117 0.61186 0.0
H364 H 0.72892 0.63615 0.60271 0.0
O365 O 0.69688 0.58011 0.62929 0.0
H366 H 0.84468 0.77438 0.63491 0.0
H367 H 0.70286 0.66326 0.6839 0.0
H368 H 0.79856 0.59557 0.67073 0.0
H369 H 0.82648 0.69856 0.64611 0.0
H370 H 0.71241 0.64406 0.65152 0.0
O371 O 0.82977 0.60033 0.57794 0.0
H372 H 0.85898 0.52676 0.62085 0.0
H373 H 0.82587 0.53127 0.56377 0.0
H374 H 0.79021 0.61456 0.7033 0.0
H375 H 0.74541 0.71123 0.59123 0.0
H376 H 0.74206 0.64867 0.71005 0.0
H377 H 0.80387 0.78105 0.6073 0.0
O378 O 0.74927 0.54234 0.64312 0.0
H379 H 0.67526 0.5137 0.55542 0.0
H380 H 0.75677 0.45907 0.59503 0.0
H381 H 0.68982 0.40392 0.57695 0.0
H382 H 0.64863 0.43118 0.55692 0.0
H383 H 0.74198 0.56755 0.57391 0.0
H384 H 0.8708 0.49608 0.55416 0.0
H385 H 0.91011 0.47563 0.57829 0.0
O386 O 0.78059 0.51705 0.62203 0.0
C387 C 0.86222 0.62563 0.63095 0.0
C388 C 0.88696 0.4999 0.60121 0.0
C389 C 0.86841 0.50272 0.56883 0.0
N390 N 0.83982 0.53112 0.59287 0.0
C391 C 0.8614 0.52001 0.60622 0.0
C392 C 0.84317 0.52283 0.57436 0.0
C393 C 0.89043 0.49122 0.58237 0.0
C394 C 0.75406 0.66634 0.6099 0.0
N395 N 0.77689 0.66297 0.62502 0.0
C396 C 0.76341 0.70878 0.60328 0.0
C397 C 0.79627 0.74793 0.61228 0.0
C398 C 0.81925 0.74422 0.62774 0.0
C399 C 0.80904 0.70121 0.63395 0.0
C400 C 0.72396 0.64846 0.68113 0.0
C401 C 0.77772 0.61059 0.67355 0.0
C402 C 0.7294 0.63739 0.66283 0.0
N403 N 0.7562 0.61891 0.65923 0.0
C404 C 0.77304 0.62118 0.69202 0.0
C405 C 0.74599 0.64028 0.6958 0.0
C406 C 0.75934 0.51305 0.63724 0.0
C407 C 0.69297 0.5014 0.56407 0.0
C408 C 0.73886 0.47115 0.58645 0.0
C409 C 0.70107 0.43979 0.57618 0.0
C410 C 0.67801 0.45511 0.56494 0.0
N411 N 0.75338 0.51652 0.58553 0.0
C412 C 0.73091 0.53178 0.57453 0.0
Co413 Co 0.16522 0.75466 0.96665 0.0
Co414 Co 0.24258 0.81351 0.93231 0.0
O415 O 0.18141 0.76683 0.94008 0.0
C416 C 0.13047 0.66084 0.95189 0.0
O417 O 0.17134 0.67337 0.94556 0.0
C418 C 0.17837 0.81947 0.90465 0.0
O419 O 0.14455 0.79965 0.91651 0.0
O420 O 0.23644 0.85993 0.947 0.0
O421 O 0.20645 0.82037 0.9734 0.0
H422 H 0.39911 0.94672 0.94305 0.0
H423 H 0.08985 0.72266 0.93908 0.0
O424 O 0.1229 0.689 0.96062 0.0
H425 H 0.07171 0.82823 0.98066 0.0
H426 H 0.05769 0.67997 0.02063 0.0
H427 H 0.21697 0.78328 1.00232 0.0
H428 H 0.13414 0.81244 0.98571 0.0
H429 H 0.07856 0.6972 0.98732 0.0
O430 O 0.2181 0.82802 0.90924 0.0
H431 H 0.32232 0.88667 0.95226 0.0
H432 H 0.29238 0.84123 0.89583 0.0
H433 H 0.19753 0.76723 0.0358 0.0
H434 H 0.02644 0.73687 0.93374 0.0
H435 H 0.11738 0.71525 0.04514 0.0
H436 H 0.01719 0.79019 0.95456 0.0
O437 O 0.21625 0.74263 0.97087 0.0
H438 H 0.18838 0.68028 0.88861 0.0
H439 H 0.31432 0.7878 0.92904 0.0
H440 H 0.32116 0.7285 0.91201 0.0
H441 H 0.25795 0.67429 0.89156 0.0
H442 H 0.18276 0.73977 0.90604 0.0
H443 H 0.36874 0.90103 0.886 0.0
H444 H 0.42278 0.95419 0.90971 0.0
O445 O 0.27042 0.80092 0.95461 0.0
C446 C 0.22735 0.85792 0.96446 0.0
C447 C 0.37592 0.92368 0.9326 0.0
C448 C 0.35886 0.89807 0.90058 0.0
N449 N 0.30297 0.86022 0.92464 0.0
C450 C 0.33242 0.88952 0.93774 0.0
C451 C 0.31561 0.86433 0.90623 0.0
C452 C 0.38917 0.92787 0.91389 0.0
C453 C 0.08586 0.74561 0.94831 0.0
N454 N 0.11586 0.76685 0.96263 0.0
C455 C 0.04997 0.75366 0.94516 0.0
C456 C 0.04484 0.78363 0.95683 0.0
C457 C 0.07547 0.80504 0.97145 0.0
C458 C 0.11095 0.79617 0.97417 0.0
C459 C 0.09272 0.70274 0.01674 0.0
C460 C 0.18198 0.7608 0.00627 0.0
C461 C 0.10477 0.71256 0.9979 0.0
N462 N 0.14891 0.74149 0.99288 0.0
C463 C 0.1712 0.75176 0.02525 0.0
C464 C 0.12622 0.72255 0.03048 0.0
C465 C 0.25785 0.7693 0.96672 0.0
C466 C 0.21627 0.70387 0.89739 0.0
C467 C 0.28664 0.76436 0.92018 0.0
C468 C 0.29074 0.73087 0.91055 0.0
C469 C 0.25527 0.70047 0.89908 0.0
N470 N 0.24838 0.76768 0.91836 0.0
C471 C 0.21337 0.73782 0.90722 0.0
Co472 Co 0.41628 0.16751 0.30105 0.0
Co473 Co 0.44118 0.24663 0.26586 0.0
O474 O 0.42168 0.18449 0.27439 0.0
C475 C 0.47042 0.12904 0.2845 0.0
O476 O 0.49144 0.16473 0.2736 0.0
C477 C 0.36395 0.18486 0.23996 0.0
O478 O 0.35067 0.15047 0.25145 0.0
O479 O 0.39448 0.24901 0.28207 0.0
O480 O 0.39242 0.20875 0.30732 0.0
H481 H 0.48683 0.41035 0.27543 0.0
H482 H 0.3744 0.09287 0.27316 0.0
O483 O 0.44002 0.12537 0.29591 0.0
H484 H 0.24766 0.07528 0.31267 0.0
H485 H 0.37793 0.05836 0.35483 0.0
H486 H 0.43713 0.21825 0.33693 0.0
H487 H 0.32591 0.13701 0.31874 0.0
H488 H 0.38431 0.08017 0.32154 0.0
O489 O 0.39704 0.22384 0.24427 0.0
H490 H 0.46304 0.33212 0.28533 0.0
H491 H 0.45972 0.29283 0.22857 0.0
H492 H 0.431 0.19787 0.37038 0.0
H493 H 0.29675 0.03013 0.26681 0.0
H494 H 0.40122 0.1174 0.37952 0.0
H495 H 0.23267 0.02117 0.28659 0.0
O496 O 0.47924 0.21758 0.30619 0.0
H497 H 0.49752 0.17446 0.21959 0.0
H498 H 0.53952 0.31003 0.25815 0.0
H499 H 0.5978 0.30722 0.23863 0.0
H500 H 0.57687 0.23911 0.21907 0.0
H501 H 0.44069 0.17836 0.23962 0.0
H502 H 0.48304 0.37049 0.21807 0.0
H503 H 0.49697 0.42995 0.24158 0.0
O504 O 0.48702 0.27266 0.2866 0.0
C505 C 0.38267 0.2358 0.29894 0.0
C506 C 0.48099 0.38477 0.26506 0.0
C507 C 0.47879 0.36238 0.23286 0.0
N508 N 0.46027 0.30797 0.25757 0.0
C509 C 0.46763 0.34044 0.27058 0.0
C510 C 0.46545 0.31841 0.2389 0.0
C511 C 0.48663 0.39573 0.24606 0.0
C512 C 0.34679 0.08892 0.28195 0.0
N513 N 0.35474 0.11868 0.29627 0.0
C514 C 0.30284 0.05345 0.27823 0.0
C515 C 0.2669 0.04849 0.28931 0.0
C516 C 0.27528 0.07889 0.30392 0.0
C517 C 0.31966 0.11397 0.30722 0.0
C518 C 0.39092 0.09353 0.35103 0.0
C519 C 0.42397 0.18314 0.34079 0.0
C520 C 0.39472 0.10612 0.33219 0.0
N521 N 0.41091 0.15045 0.32728 0.0
C522 C 0.42066 0.17181 0.35976 0.0
C523 C 0.40398 0.12667 0.36487 0.0
C524 C 0.50052 0.25849 0.30035 0.0
C525 C 0.50705 0.20439 0.228 0.0
C526 C 0.53027 0.28009 0.24988 0.0
C527 C 0.56336 0.27879 0.23875 0.0
C528 C 0.55158 0.24062 0.22775 0.0
N529 N 0.48663 0.24446 0.25007 0.0
C530 C 0.47488 0.20693 0.2393 0.0
Co531 Co 0.24839 0.41331 0.63383 0.0
Co532 Co 0.19716 0.44037 0.59848 0.0
O533 O 0.23839 0.41963 0.60721 0.0
C534 C 0.3431 0.47086 0.62013 0.0
O535 O 0.33137 0.49958 0.61359 0.0
C536 C 0.18027 0.36287 0.5727 0.0
O537 O 0.19417 0.34496 0.5855 0.0
O538 O 0.1465 0.39254 0.61376 0.0
O539 O 0.18304 0.39134 0.63979 0.0
H540 H 0.07833 0.48534 0.60684 0.0
H541 H 0.27952 0.36968 0.6061 0.0
O542 O 0.31404 0.43487 0.62852 0.0
H543 H 0.16667 0.2446 0.64533 0.0
H544 H 0.31571 0.37177 0.68788 0.0
H545 H 0.21935 0.43561 0.66955 0.0
H546 H 0.18573 0.32354 0.65134 0.0
H547 H 0.3013 0.37892 0.65452 0.0
O548 O 0.17822 0.39847 0.57626 0.0
H549 H 0.13152 0.46044 0.61726 0.0
H550 H 0.174 0.46299 0.56108 0.0
H551 H 0.23262 0.42879 0.70307 0.0
H552 H 0.26207 0.29131 0.59984 0.0
H553 H 0.2811 0.39666 0.71242 0.0
H554 H 0.20509 0.22807 0.61947 0.0
O555 O 0.26314 0.47681 0.639 0.0
H556 H 0.33135 0.50002 0.55506 0.0
H557 H 0.23417 0.53965 0.59229 0.0
H558 H 0.29835 0.5994 0.57445 0.0
H559 H 0.34742 0.5797 0.5556 0.0
H560 H 0.26716 0.4415 0.5733 0.0
H561 H 0.12099 0.48752 0.55004 0.0
H562 H 0.07281 0.49904 0.573 0.0
O563 O 0.21502 0.48423 0.61981 0.0
C564 C 0.14666 0.38143 0.63086 0.0
C565 C 0.09923 0.48055 0.5967 0.0
C566 C 0.12312 0.48171 0.56482 0.0
N567 N 0.15604 0.46051 0.58982 0.0
C568 C 0.12949 0.46656 0.60253 0.0
C569 C 0.15299 0.46768 0.57116 0.0
C570 C 0.09612 0.48819 0.57771 0.0
C571 C 0.25505 0.34243 0.61484 0.0
N572 N 0.23362 0.35123 0.62904 0.0
C573 C 0.24514 0.29808 0.61116 0.0
C574 C 0.21311 0.26261 0.62216 0.0
C575 C 0.19148 0.27185 0.63665 0.0
C576 C 0.20223 0.31662 0.63991 0.0
C577 C 0.29444 0.38574 0.68398 0.0
C578 C 0.24028 0.42135 0.6735 0.0
C579 C 0.28622 0.38994 0.66511 0.0
N580 N 0.2592 0.40733 0.66009 0.0
C581 C 0.24777 0.41769 0.69251 0.0
C582 C 0.27501 0.3997 0.69774 0.0
C583 C 0.24324 0.49797 0.63338 0.0
C584 C 0.31015 0.50902 0.56318 0.0
C585 C 0.25548 0.53085 0.58424 0.0
C586 C 0.29171 0.5648 0.57409 0.0
C587 C 0.31919 0.55372 0.56351 0.0
N588 N 0.24673 0.48703 0.58382 0.0
C589 C 0.2736 0.47595 0.57349 0.0
Co590 Co 0.8362 0.24628 0.96583 0.0
Co591 Co 0.7556 0.1875 0.9325 0.0
O592 O 0.81763 0.23384 0.93947 0.0
C593 C 0.87027 0.34026 0.9514 0.0
O594 O 0.82891 0.3281 0.9458 0.0
C595 C 0.81622 0.17786 0.90417 0.0
O596 O 0.85061 0.19573 0.91586 0.0
O597 O 0.7624 0.14096 0.94673 0.0
O598 O 0.79521 0.18072 0.97283 0.0
H599 H 0.59944 0.05547 0.94504 0.0
H600 H 0.90873 0.27721 0.93704 0.0
O601 O 0.87836 0.3118 0.95956 0.0
H602 H 0.92997 0.17191 0.97752 0.0
H603 H 0.94869 0.321 0.01836 0.0
H604 H 0.78767 0.21838 1.00222 0.0
H605 H 0.86845 0.18834 0.98388 0.0
H606 H 0.92478 0.30348 0.98533 0.0
O607 O 0.77767 0.17217 0.909 0.0
H608 H 0.67724 0.11504 0.95331 0.0
H609 H 0.70264 0.15984 0.89675 0.0
H610 H 0.81016 0.23472 0.03543 0.0
H611 H 0.97122 0.26235 0.93039 0.0
H612 H 0.8912 0.28637 0.04368 0.0
H613 H 0.98202 0.20917 0.95066 0.0
O614 O 0.78591 0.25887 0.97111 0.0
H615 H 0.80736 0.31972 0.88854 0.0
H616 H 0.68472 0.21469 0.93077 0.0
H617 H 0.67745 0.27432 0.91423 0.0
H618 H 0.73901 0.32728 0.89288 0.0
H619 H 0.81343 0.25988 0.90549 0.0
H620 H 0.62521 0.1005 0.88784 0.0
H621 H 0.57294 0.04791 0.91209 0.0
O622 O 0.73005 0.20073 0.95535 0.0
C623 C 0.77312 0.1431 0.964 0.0
C624 C 0.62184 0.07828 0.93436 0.0
C625 C 0.63633 0.10351 0.90225 0.0
N626 N 0.69437 0.14117 0.92558 0.0
C627 C 0.66591 0.11217 0.93897 0.0
C628 C 0.68018 0.13699 0.90738 0.0
C629 C 0.60701 0.07402 0.91586 0.0
C630 C 0.91344 0.25435 0.94604 0.0
N631 N 0.88482 0.23357 0.96079 0.0
C632 C 0.94878 0.24592 0.94215 0.0
C633 C 0.95478 0.21603 0.9535 0.0
C634 C 0.92554 0.19505 0.96856 0.0
C635 C 0.89057 0.20429 0.97202 0.0
C636 C 0.91329 0.29839 0.01494 0.0
C637 C 0.82303 0.24071 0.00569 0.0
C638 C 0.89952 0.28841 0.99626 0.0
N639 N 0.8549 0.25967 0.99185 0.0
C640 C 0.83555 0.24992 0.02452 0.0
C641 C 0.88101 0.27893 0.02914 0.0
C642 C 0.74392 0.23235 0.96753 0.0
C643 C 0.78021 0.29671 0.89773 0.0
C644 C 0.71168 0.23761 0.92152 0.0
C645 C 0.70734 0.27128 0.91217 0.0
C646 C 0.74188 0.30098 0.9002 0.0
N647 N 0.74928 0.23348 0.91895 0.0
C648 C 0.78336 0.2626 0.9073 0.0
Co649 Co 0.59157 0.83587 0.30159 0.0
Co650 Co 0.57373 0.75814 0.26743 0.0
O651 O 0.58867 0.81971 0.27494 0.0
C652 C 0.5399 0.87564 0.28369 0.0
O653 O 0.52009 0.84053 0.27242 0.0
C654 C 0.64429 0.8213 0.2395 0.0
O655 O 0.65652 0.85641 0.25051 0.0
O656 O 0.62557 0.76418 0.28259 0.0
O657 O 0.61487 0.79407 0.30872 0.0
H658 H 0.54821 0.60147 0.27926 0.0
H659 H 0.63709 0.91102 0.27421 0.0
O660 O 0.56879 0.87854 0.29576 0.0
H661 H 0.75853 0.92752 0.31689 0.0
H662 H 0.62384 0.94262 0.35585 0.0
H663 H 0.56522 0.78333 0.33705 0.0
H664 H 0.67951 0.86591 0.32148 0.0
H665 H 0.62173 0.92238 0.32253 0.0
O666 O 0.61391 0.78171 0.24467 0.0
H667 H 0.56542 0.67857 0.28799 0.0
H668 H 0.55261 0.70757 0.23114 0.0
H669 H 0.56705 0.80213 0.37053 0.0
H670 H 0.71558 0.97357 0.26928 0.0
H671 H 0.59654 0.88228 0.38012 0.0
H672 H 0.77699 0.98201 0.29067 0.0
O673 O 0.52792 0.78575 0.30513 0.0
H674 H 0.49785 0.81014 0.22105 0.0
H675 H 0.47576 0.68736 0.26406 0.0
H676 H 0.41067 0.67983 0.24591 0.0
H677 H 0.42152 0.7414 0.22413 0.0
H678 H 0.56177 0.81668 0.23971 0.0
H679 H 0.53559 0.63088 0.22179 0.0
H680 H 0.53312 0.57715 0.24595 0.0
O681 O 0.53226 0.73099 0.28953 0.0
C682 C 0.6317 0.77306 0.30008 0.0
C683 C 0.54904 0.62451 0.26861 0.0
C684 C 0.54202 0.64104 0.23636 0.0
N685 N 0.55968 0.69748 0.26013 0.0
C686 C 0.55866 0.6682 0.27348 0.0
C687 C 0.55177 0.68448 0.24174 0.0
C688 C 0.54062 0.61091 0.24992 0.0
C689 C 0.66355 0.91467 0.28366 0.0
N690 N 0.6537 0.88472 0.29806 0.0
C691 C 0.70797 0.95006 0.28076 0.0
C692 C 0.74242 0.95474 0.29275 0.0
C693 C 0.73209 0.92414 0.30745 0.0
C694 C 0.6873 0.88914 0.30991 0.0
C695 C 0.611 0.90758 0.35185 0.0
C696 C 0.57832 0.81832 0.34111 0.0
C697 C 0.60964 0.89589 0.333 0.0
N698 N 0.59367 0.85173 0.32785 0.0
C699 C 0.57917 0.82874 0.36009 0.0
C700 C 0.59568 0.87371 0.36546 0.0
C701 C 0.51292 0.74408 0.30126 0.0
C702 C 0.49274 0.78296 0.23041 0.0
C703 C 0.48078 0.71446 0.25471 0.0
C704 C 0.44378 0.70992 0.24441 0.0
C705 C 0.4499 0.74444 0.23218 0.0
N706 N 0.52277 0.75229 0.25285 0.0
C707 C 0.52895 0.78633 0.24093 0.0
H708 H 0.2739 0.94632 0.95173 0.0
H709 H 0.33034 0.05535 0.05453 0.0
H710 H 0.22132 0.86735 1.00235 0.0
H711 H 0.35583 0.1345 0.00403 0.0
H712 H 0.29222 0.98599 0.03565 0.0
H713 H 0.30615 0.01575 0.97061 0.0
C714 C 0.26882 0.94348 0.96676 0.0
C715 C 0.2448 0.90072 0.9754 0.0
C716 C 0.30594 0.01857 0.02873 0.0
C717 C 0.28215 0.98022 0.99715 0.0
C718 C 0.32773 0.05824 0.03952 0.0
C719 C 0.34647 0.10102 0.03093 0.0
C720 C 0.30318 0.02159 0.00916 0.0
C721 C 0.34203 0.10242 0.01135 0.0
C722 C 0.28729 0.98318 0.97755 0.0
C723 C 0.23955 0.89939 0.995 0.0
N724 N 0.32117 0.06341 1.00117 0.0
N725 N 0.25828 0.93842 0.00518 0.0
H726 H 0.22454 0.35677 0.33583 0.0
H727 H 0.36206 0.22411 0.33636 0.0
H728 H 0.27744 0.3312 0.38658 0.0
H729 H 0.34631 0.28793 0.28683 0.0
H730 H 0.32315 0.25471 0.35465 0.0
H731 H 0.26045 0.32296 0.31766 0.0
C732 C 0.24347 0.34383 0.34324 0.0
C733 C 0.24798 0.34708 0.36288 0.0
C734 C 0.32819 0.26201 0.33979 0.0
C735 C 0.2893 0.30801 0.34189 0.0
C736 C 0.35033 0.24443 0.32924 0.0
C737 C 0.35766 0.25343 0.30991 0.0
C738 C 0.31263 0.28846 0.331 0.0
C739 C 0.34154 0.28008 0.30164 0.0
C740 C 0.26416 0.32465 0.33276 0.0
C741 C 0.27298 0.32949 0.37152 0.0
N742 N 0.31967 0.29653 0.31222 0.0
N743 N 0.29267 0.31067 0.36096 0.0
H744 H 0.94627 0.28707 0.71987 0.0
H745 H 0.05924 0.34889 0.6178 0.0
H746 H 0.86808 0.2407 0.66872 0.0
H747 H 0.13459 0.36103 0.66833 0.0
H748 H 0.98896 0.31378 0.63624 0.0
H749 H 0.0161 0.31948 0.70124 0.0
C750 C 0.94369 0.2836 0.70476 0.0
C751 C 0.90105 0.26097 0.69592 0.0
C752 C 0.02093 0.32399 0.64324 0.0
C753 C 0.981 0.2984 0.67446 0.0
C754 C 0.0611 0.34404 0.63271 0.0
C755 C 0.10311 0.35801 0.64145 0.0
C756 C 0.02274 0.31833 0.66269 0.0
C757 C 0.10319 0.35088 0.66089 0.0
C758 C 0.98361 0.30206 0.69412 0.0
C759 C 0.90004 0.25769 0.67623 0.0
N760 N 0.0638 0.33185 0.67082 0.0
N761 N 0.93931 0.27634 0.6662 0.0
H762 H 0.67185 0.94587 0.0539 0.0
H763 H 0.72586 0.05476 0.95127 0.0
H764 H 0.6463 0.86669 0.00337 0.0
H765 H 0.78105 0.13377 1.00177 0.0
H766 H 0.69425 0.98537 0.97009 0.0
H767 H 0.70985 0.01521 0.03505 0.0
C768 C 0.67444 0.94297 0.03889 0.0
C769 C 0.65569 0.90019 0.03027 0.0
C770 C 0.71355 0.01793 0.97701 0.0
C771 C 0.69881 0.97958 0.00856 0.0
C772 C 0.73164 0.05761 0.96626 0.0
C773 C 0.75618 0.10036 0.97489 0.0
C774 C 0.71958 0.02091 0.99657 0.0
C775 C 0.76238 0.10172 0.99443 0.0
C776 C 0.69617 0.98262 0.02812 0.0
C777 C 0.66011 0.89877 0.0107 0.0
N778 N 0.74397 0.06269 0.00459 0.0
N779 N 0.68087 0.93777 1.00053 0.0
H780 H 0.6789 0.73208 0.28763 0.0
H781 H 0.71851 0.66013 0.38953 0.0
H782 H 0.63954 0.77268 0.33835 0.0
H783 H 0.78948 0.65734 0.33978 0.0
H784 H 0.68519 0.69744 0.37123 0.0
H785 H 0.7155 0.69987 0.3067 0.0
C786 C 0.67811 0.73446 0.30275 0.0
C787 C 0.65611 0.75526 0.31133 0.0
C788 C 0.70831 0.68879 0.36443 0.0
C789 C 0.6976 0.71792 0.33332 0.0
C790 C 0.72734 0.66753 0.37487 0.0
C791 C 0.75684 0.65536 0.36626 0.0
C792 C 0.71847 0.69744 0.34523 0.0
C793 C 0.76689 0.66579 0.34713 0.0
C794 C 0.69905 0.71606 0.31365 0.0
C795 C 0.65615 0.75711 0.33106 0.0
N796 N 0.74757 0.68584 0.33731 0.0
N797 N 0.67628 0.73845 0.34137 0.0
H798 H 0.92517 0.59799 0.63377 0.0
H799 H 0.10665 0.80823 0.69298 0.0
H800 H 0.89908 0.70384 0.65162 0.0
H801 H 0.0844 0.67365 0.70286 0.0
H802 H 0.0386 0.77559 0.67311 0.0
H803 H 0.99304 0.63088 0.65389 0.0
C804 C 0.93407 0.62851 0.64166 0.0
C805 C 0.90639 0.64822 0.641 0.0
C806 C 0.04849 0.75323 0.67973 0.0
C807 C 0.98387 0.68593 0.66391 0.0
C808 C 0.08722 0.77178 0.69106 0.0
C809 C 0.10092 0.74353 0.69969 0.0
C810 C 0.02404 0.70622 0.67651 0.0
C811 C 0.07461 0.69651 0.69668 0.0
C812 C 0.97247 0.64692 0.65327 0.0
C813 C 0.91932 0.68748 0.65173 0.0
N814 N 0.03771 0.67931 0.68512 0.0
N815 N 0.95726 0.70522 0.66263 0.0
H816 H 0.65988 0.1633 0.97599 0.0
H817 H 0.55732 0.30662 0.01935 0.0
H818 H 0.74741 0.30745 0.98425 0.0
H819 H 0.51527 0.169 0.03579 0.0
H820 H 0.62193 0.30962 1.00226 0.0
H821 H 0.60026 0.16656 0.99344 0.0
C822 C 0.66657 0.19577 0.98145 0.0
C823 C 0.70876 0.23518 0.97867 0.0
C824 C 0.59849 0.27903 0.00974 0.0
C825 C 0.64008 0.23913 0.99863 0.0
C826 C 0.56158 0.27715 0.01936 0.0
C827 C 0.53075 0.23748 0.029 0.0
C828 C 0.60371 0.24061 0.00947 0.0
C829 C 0.53805 0.20037 0.02865 0.0
C830 C 0.63251 0.19753 0.99149 0.0
C831 C 0.71543 0.27625 0.98622 0.0
N832 N 0.57339 0.20274 0.01894 0.0
N833 N 0.68119 0.27731 0.99577 0.0
H834 H 0.34756 0.5125 0.36965 0.0
H835 H 0.44218 0.74867 0.31799 0.0
H836 H 0.25403 0.55595 0.35177 0.0
H837 H 0.49515 0.65857 0.30871 0.0
H838 H 0.37812 0.68745 0.3355 0.0
H839 H 0.40833 0.57617 0.35281 0.0
C840 C 0.33979 0.5356 0.36227 0.0
C841 C 0.29552 0.52874 0.36205 0.0
C842 C 0.40386 0.68138 0.32952 0.0
C843 C 0.36537 0.60208 0.34285 0.0
C844 C 0.44038 0.71618 0.31966 0.0
C845 C 0.47391 0.7086 0.31186 0.0
C846 C 0.40186 0.63947 0.33194 0.0
C847 C 0.46997 0.66587 0.31436 0.0
C848 C 0.37452 0.57182 0.3526 0.0
C849 C 0.28763 0.55986 0.35216 0.0
N850 N 0.4349 0.63316 0.32431 0.0
N851 N 0.32239 0.59549 0.34299 0.0
H852 H 0.79178 0.34987 0.71924 0.0
H853 H 0.72982 0.427 0.62502 0.0
H854 H 0.71239 0.25437 0.67576 0.0
H855 H 0.76304 0.50723 0.67546 0.0
H856 H 0.72245 0.36313 0.64334 0.0
H857 H 0.78159 0.40775 0.70362 0.0
C858 C 0.77173 0.34078 0.70653 0.0
C859 C 0.75291 0.29696 0.69884 0.0
C860 C 0.73071 0.39444 0.65048 0.0
C861 C 0.74179 0.36373 0.68069 0.0
C862 C 0.7351 0.43098 0.64001 0.0
C863 C 0.74751 0.47256 0.64873 0.0
C864 C 0.73973 0.39975 0.66978 0.0
C865 C 0.75337 0.4757 0.66823 0.0
C866 C 0.76588 0.37397 0.69763 0.0
C867 C 0.72754 0.28759 0.68223 0.0
N868 N 0.75022 0.43997 0.67809 0.0
N869 N 0.72321 0.32086 0.67359 0.0
H870 H 0.34558 0.83615 0.97117 0.0
H871 H 0.4415 0.69248 0.02031 0.0
H872 H 0.25324 0.69608 0.98567 0.0
H873 H 0.49293 0.83496 0.03087 0.0
H874 H 0.37737 0.68968 1.00282 0.0
H875 H 0.40594 0.83275 0.98794 0.0
C876 C 0.33794 0.8045 0.97782 0.0
C877 C 0.2941 0.76635 0.97705 0.0
C878 C 0.40281 0.72135 0.00906 0.0
C879 C 0.36371 0.76228 0.99625 0.0
C880 C 0.43942 0.72307 0.0189 0.0
C881 C 0.47254 0.764 0.02708 0.0
C882 C 0.40027 0.7611 0.00708 0.0
C883 C 0.46814 0.8026 0.02493 0.0
C884 C 0.37249 0.8027 0.98747 0.0
C885 C 0.28647 0.72637 0.98605 0.0
N886 N 0.433 0.80025 0.01505 0.0
N887 N 0.32111 0.72523 0.99524 0.0
H888 H 0.57031 0.33884 0.28712 0.0
H889 H 0.66738 0.44646 0.38495 0.0
H890 H 0.5243 0.25609 0.33698 0.0
H891 H 0.75571 0.48561 0.3367 0.0
H892 H 0.61005 0.38077 0.36756 0.0
H893 H 0.63451 0.39741 0.30475 0.0
C894 C 0.57385 0.33268 0.30171 0.0
C895 C 0.54174 0.2923 0.31054 0.0
C896 C 0.64221 0.40353 0.3609 0.0
C897 C 0.61465 0.35996 0.33091 0.0
C898 C 0.67501 0.44114 0.37079 0.0
C899 C 0.71671 0.47164 0.36235 0.0
C900 C 0.65052 0.397 0.34225 0.0
C901 C 0.7242 0.463 0.34382 0.0
C902 C 0.61061 0.36617 0.31174 0.0
C903 C 0.5482 0.28656 0.32957 0.0
N904 N 0.69115 0.42683 0.33429 0.0
N905 N 0.58353 0.32037 0.33922 0.0
H906 H 0.22073 0.56084 0.62181 0.0
H907 H 0.25951 0.68169 0.71937 0.0
H908 H 0.28422 0.53056 0.66766 0.0
H909 H 0.25547 0.74621 0.66794 0.0
H910 H 0.26683 0.62495 0.70118 0.0
H911 H 0.23073 0.62725 0.63873 0.0
C912 C 0.2373 0.56834 0.63534 0.0
C913 C 0.25182 0.53993 0.64325 0.0
C914 C 0.26499 0.65188 0.69388 0.0
C915 C 0.26246 0.61587 0.66293 0.0
C916 C 0.26064 0.68423 0.70425 0.0
C917 C 0.25652 0.7186 0.69516 0.0
C918 C 0.26422 0.65324 0.67426 0.0
C919 C 0.25856 0.72034 0.67552 0.0
C920 C 0.24304 0.60645 0.64499 0.0
C921 C 0.2726 0.55146 0.66098 0.0
N922 N 0.26149 0.68762 0.6657 0.0
N923 N 0.27675 0.58823 0.67034 0.0
H924 H 0.33022 0.22648 0.12265 0.0
H925 H 0.32989 0.10661 0.21929 0.0
H926 H 0.3623 0.11917 0.12652 0.0
H927 H 0.36334 0.24654 0.21565 0.0
H928 H 0.31801 0.0995 0.18524 0.0
H929 H 0.31894 0.22244 0.15675 0.0
C930 C 0.33384 0.20138 0.1306 0.0
C931 C 0.34748 0.17329 0.12177 0.0
C932 C 0.32713 0.13147 0.19199 0.0
C933 C 0.33439 0.16837 0.16064 0.0
C934 C 0.33356 0.13546 0.21142 0.0
C935 C 0.34785 0.17731 0.22029 0.0
C936 C 0.33429 0.16935 0.18144 0.0
C937 C 0.35258 0.21374 0.20934 0.0
C938 C 0.32769 0.1993 0.15004 0.0
C939 C 0.3521 0.14165 0.1328 0.0
N940 N 0.34602 0.20899 0.19048 0.0
N941 N 0.34572 0.14013 0.15165 0.0
H942 H 0.14831 0.36428 0.45382 0.0
H943 H 0.21427 0.31414 0.55513 0.0
H944 H 0.24565 0.31985 0.46214 0.0
H945 H 0.13328 0.37713 0.54519 0.0
H946 H 0.21442 0.30115 0.52126 0.0
H947 H 0.1305 0.35367 0.48714 0.0
C948 C 0.16549 0.3516 0.46261 0.0
C949 C 0.19897 0.34349 0.45516 0.0
C950 C 0.19605 0.31717 0.52656 0.0
C951 C 0.17906 0.33178 0.49358 0.0
C952 C 0.1957 0.32433 0.54589 0.0
C953 C 0.17408 0.34714 0.55298 0.0
C954 C 0.17433 0.33265 0.5143 0.0
C955 C 0.15082 0.35987 0.54034 0.0
C956 C 0.15538 0.34567 0.48169 0.0
C957 C 0.21974 0.3267 0.46727 0.0
N958 N 0.15186 0.35277 0.52167 0.0
N959 N 0.20992 0.322 0.48593 0.0
H960 H 0.75268 0.11735 0.87997 0.0
H961 H 0.88825 0.24391 0.78991 0.0
H962 H 0.8941 0.22098 0.8831 0.0
H963 H 0.77554 0.1065 0.78751 0.0
H964 H 0.89245 0.23624 0.82386 0.0
H965 H 0.76058 0.11218 0.84613 0.0
C966 C 0.78561 0.13854 0.87355 0.0
C967 C 0.82277 0.16975 0.88434 0.0
C968 C 0.86742 0.20744 0.81586 0.0
C969 C 0.83179 0.16468 0.84554 0.0
C970 C 0.865 0.21178 0.79649 0.0
C971 C 0.83141 0.17582 0.78588 0.0
C972 C 0.8353 0.16725 0.82477 0.0
C973 C 0.80207 0.13502 0.79513 0.0
C974 C 0.79011 0.13548 0.85425 0.0
C975 C 0.86464 0.19636 0.87531 0.0
N976 N 0.8041 0.13214 0.8141 0.0
N977 N 0.86783 0.19385 0.85636 0.0
H978 H 0.6368 0.88416 0.12517 0.0
H979 H 0.64653 0.75945 0.21582 0.0
H980 H 0.67324 0.77981 0.12254 0.0
H981 H 0.6725 0.89714 0.21771 0.0
H982 H 0.65682 0.76592 0.18179 0.0
H983 H 0.65005 0.88991 0.15901 0.0
C984 C 0.64828 0.86293 0.13169 0.0
C985 C 0.65381 0.83135 0.12105 0.0
C986 C 0.66114 0.79502 0.18968 0.0
C987 C 0.66809 0.8371 0.15984 0.0
C988 C 0.65522 0.79134 0.2091 0.0
C989 C 0.65854 0.82778 0.21961 0.0
C990 C 0.66932 0.83502 0.18062 0.0
C991 C 0.6698 0.86828 0.21017 0.0
C992 C 0.65593 0.86631 0.151 0.0
C993 C 0.66874 0.80471 0.13021 0.0
N994 N 0.67393 0.87053 0.19117 0.0
N995 N 0.67455 0.80758 0.14916 0.0
H996 H 0.87622 0.61848 0.5468 0.0
H997 H 0.75966 0.67908 0.46415 0.0
H998 H 0.80375 0.69045 0.55635 0.0
H999 H 0.85573 0.63307 0.45568 0.0
H1000 H 0.78018 0.69055 0.49748 0.0
H1001 H 0.87426 0.6302 0.5132 0.0
C1002 C 0.86056 0.63748 0.54182 0.0
C1003 C 0.83999 0.65336 0.55439 0.0
C1004 C 0.79728 0.67867 0.48824 0.0
C1005 C 0.83661 0.66608 0.51575 0.0
C1006 C 0.78568 0.67225 0.46918 0.0
C1007 C 0.80551 0.65448 0.45709 0.0
C1008 C 0.82871 0.66698 0.49525 0.0
C1009 C 0.83901 0.64622 0.46446 0.0
C1010 C 0.85937 0.64414 0.52259 0.0
C1011 C 0.82019 0.6778 0.54714 0.0
N1012 N 0.84904 0.65195 0.48304 0.0
N1013 N 0.81829 0.68274 0.52826 0.0
H1014 H 0.1001 0.76946 0.88446 0.0
H1015 H 0.21082 0.8882 0.78655 0.0
H1016 H 0.23764 0.881 0.87942 0.0
H1017 H 0.11404 0.74512 0.79169 0.0
H1018 H 0.20661 0.89634 0.82059 0.0
H1019 H 0.09124 0.77112 0.85034 0.0
C1020 C 0.12802 0.795 0.87624 0.0
C1021 C 0.16975 0.82501 0.88475 0.0
C1022 C 0.18565 0.8634 0.81416 0.0
C1023 C 0.15968 0.82724 0.84587 0.0
C1024 C 0.18772 0.85878 0.79475 0.0
C1025 C 0.1628 0.81588 0.78632 0.0
C1026 C 0.15781 0.82503 0.82511 0.0
C1027 C 0.13391 0.77876 0.79767 0.0
C1028 C 0.12302 0.7957 0.8568 0.0
C1029 C 0.20499 0.85709 0.8734 0.0
N1030 N 0.13229 0.78414 0.81649 0.0
N1031 N 0.19921 0.85731 0.85454 0.0
H1032 H 0.44923 0.58373 0.06214 0.0
H1033 H 0.55271 0.41774 0.06288 0.0
H1034 H 0.59102 0.63002 0.05216 0.0
H1035 H 0.41121 0.37143 0.05205 0.0
H1036 H 0.56723 0.49593 0.0648 0.0
H1037 H 0.43468 0.50557 0.06429 0.0
C1038 C 0.47733 0.57753 0.06057 0.0
C1039 C 0.52132 0.61343 0.05683 0.0
C1040 C 0.53299 0.46854 0.06209 0.0
C1041 C 0.505 0.52429 0.05941 0.0
C1042 C 0.52466 0.42394 0.06107 0.0
C1043 C 0.48077 0.38803 0.05716 0.0
C1044 C 0.49705 0.4772 0.05948 0.0
C1045 C 0.44568 0.39809 0.05492 0.0
C1046 C 0.46899 0.53294 0.06172 0.0
C1047 C 0.55648 0.60336 0.05489 0.0
N1048 N 0.45457 0.44166 0.05612 0.0
N1049 N 0.54757 0.5598 0.05622 0.0
H1050 H 0.87025 0.45432 0.39303 0.0
H1051 H 0.13853 0.55104 0.39355 0.0
H1052 H 0.96841 0.59471 0.38164 0.0
H1053 H 0.04048 0.41102 0.38137 0.0
H1054 H 0.07621 0.56754 0.39555 0.0
H1055 H 0.93256 0.43786 0.3951 0.0
C1056 C 0.90487 0.48169 0.39109 0.0
C1057 C 0.91416 0.52582 0.38698 0.0
C1058 C 0.06847 0.53321 0.39252 0.0
C1059 C 0.98534 0.50739 0.38953 0.0
C1060 C 0.10393 0.52375 0.39145 0.0
C1061 C 0.09466 0.47972 0.38712 0.0
C1062 C 0.0235 0.4982 0.38958 0.0
C1063 C 0.04918 0.44558 0.38454 0.0
C1064 C 0.94033 0.47227 0.39222 0.0
C1065 C 0.95969 0.56007 0.38463 0.0
N1066 N 0.01528 0.45552 0.38583 0.0
N1067 N 0.9936 0.55015 0.38596 0.0
H1068 H 0.61425 0.07406 0.69236 0.0
H1069 H 0.4 0.89806 0.75097 0.0
H1070 H 0.6036 0.09815 0.75102 0.0
H1071 H 0.38798 0.93338 0.69402 0.0
H1072 H 0.47941 0.96094 0.75147 0.0
H1073 H 0.5355 0.01144 0.69288 0.0
C1074 C 0.59536 0.06606 0.70538 0.0
C1075 C 0.61538 0.09144 0.72167 0.0
C1076 C 0.45921 0.95472 0.73891 0.0
C1077 C 0.52562 0.0193 0.72238 0.0
C1078 C 0.41417 0.9188 0.73856 0.0
C1079 C 0.38748 0.91058 0.72243 0.0
C1080 C 0.47784 0.98163 0.72285 0.0
C1081 C 0.40732 0.93866 0.70677 0.0
C1082 C 0.55045 0.03046 0.70562 0.0
C1083 C 0.58926 0.07962 0.73813 0.0
N1084 N 0.4514 0.97262 0.70731 0.0
N1085 N 0.54574 0.04404 0.73813 0.0
H1086 H 0.63582 0.60205 0.62392 0.0
H1087 H 0.37455 0.4116 0.62445 0.0
H1088 H 0.59078 0.46005 0.61559 0.0
H1089 H 0.41983 0.55212 0.61215 0.0
H1090 H 0.45344 0.42871 0.62333 0.0
H1091 H 0.55693 0.58464 0.62178 0.0
C1092 C 0.60934 0.56718 0.62161 0.0
C1093 C 0.61992 0.53238 0.62001 0.0
C1094 C 0.44609 0.45573 0.62076 0.0
C1095 C 0.52945 0.51226 0.61769 0.0
C1096 C 0.40108 0.44606 0.62145 0.0
C1097 C 0.39057 0.48055 0.61845 0.0
C1098 C 0.48105 0.50038 0.61734 0.0
C1099 C 0.42636 0.52449 0.61453 0.0
C1100 C 0.56434 0.55734 0.62031 0.0
C1101 C 0.5842 0.48791 0.6169 0.0
N1102 N 0.47005 0.53325 0.61428 0.0
N1103 N 0.54051 0.47905 0.61602 0.0
H1104 H 0.13508 0.5846 0.9431 0.0
H1105 H 0.86524 0.41693 0.94414 0.0
H1106 H 0.03942 0.62945 0.95503 0.0
H1107 H 0.96147 0.37135 0.95314 0.0
H1108 H 0.92875 0.49537 0.94228 0.0
H1109 H 0.07148 0.50624 0.94095 0.0
C1110 C 0.10075 0.57805 0.94512 0.0
C1111 C 0.09261 0.61359 0.9494 0.0
C1112 C 0.93586 0.46809 0.94457 0.0
C1113 C 0.0198 0.52424 0.9468 0.0
C1114 C 0.89967 0.42335 0.94555 0.0
C1115 C 0.90801 0.38757 0.94894 0.0
C1116 C 0.98072 0.47702 0.94669 0.0
C1117 C 0.9534 0.39791 0.95068 0.0
C1118 C 0.06451 0.53335 0.94396 0.0
C1119 C 0.04735 0.60307 0.95188 0.0
N1120 N 0.988 0.44162 0.94953 0.0
N1121 N 0.0127 0.55943 0.95053 0.0
H1122 H 0.50883 0.90307 0.25363 0.0
H1123 H 0.4623 0.07228 0.31284 0.0
H1124 H 0.54605 0.93195 0.31194 0.0
H1125 H 0.50349 0.10211 0.25497 0.0
H1126 H 0.47893 0.01034 0.312 0.0
H1127 H 0.493 0.9663 0.25303 0.0
C1128 C 0.5134 0.9225 0.26629 0.0
C1129 C 0.52875 0.91235 0.28286 0.0
C1130 C 0.4844 0.03049 0.2995 0.0
C1131 C 0.51031 0.9837 0.2823 0.0
C1132 C 0.47483 0.06573 0.29993 0.0
C1133 C 0.48175 0.09246 0.28396 0.0
C1134 C 0.50005 0.0211 0.28286 0.0
C1135 C 0.4981 0.08249 0.26762 0.0
C1136 C 0.50471 0.95862 0.26589 0.0
C1137 C 0.53445 0.93873 0.29885 0.0
N1138 N 0.50635 0.04721 0.26742 0.0
N1139 N 0.52483 0.97287 0.29822 0.0
loop_
_geom_bond_atom_site_label_1
_geom_bond_atom_site_label_2
_geom_bond_distance
_geom_bond_site_symmetry_2
_ccdc_geom_bond_type
Co0 O2 2.143 . S
Co0 O8 2.074 . S
Co0 O11 2.093 . S
Co0 O24 2.097 . S
Co0 N41 2.151 . S
Co0 N49 2.214 1_554 S
Co1 O2 2.160 . S
Co1 O7 2.058 . S
Co1 O17 2.057 . S
Co1 O32 2.037 . S
Co1 N36 2.145 . S
Co1 N57 2.257 . S
O2 Co0 2.143 . S
O2 Co1 2.160 . S
C3 O4 1.278 . S
C3 O11 1.224 . S
O4 C3 1.278 . S
C5 O6 1.245 . S
C5 O17 1.232 . S
O6 C5 1.245 . S
O7 Co1 2.058 . S
O7 C33 1.269 . S
O8 Co0 2.074 . S
O8 C33 1.257 . S
H9 C34 0.930 . S
H10 C40 0.930 . S
O11 Co0 2.093 . S
O11 C3 1.224 . S
H12 C44 0.929 . S
H13 C46 0.930 . S
H14 C47 0.930 . S
H15 C45 0.929 . S
H16 C48 0.928 . S
O17 Co1 2.057 . S
O17 C5 1.232 . S
H18 C37 0.929 . S
H19 C38 0.929 . S
H20 C50 0.931 . S
H21 C42 0.929 . S
H22 C51 0.930 . S
H23 C43 0.931 . S
O24 Co0 2.097 . S
O24 C52 1.214 . S
H25 C53 0.929 . S
H26 C54 0.929 . S
H27 C55 0.930 . S
H28 C56 0.929 . S
H29 C58 0.930 . S
H30 C35 0.930 . S
H31 C39 0.930 . S
O32 Co1 2.037 . S
O32 C52 1.234 . S
C33 O7 1.269 . S
C33 O8 1.257 . S
C34 H9 0.930 . S
C34 C37 1.388 . S
C34 C39 1.418 . S
C35 H30 0.930 . S
C35 C38 1.404 . S
C35 C39 1.353 . S
N36 Co1 2.145 . S
N36 C37 1.397 . S
N36 C38 1.334 . S
C37 H18 0.929 . S
C37 C34 1.388 . S
C37 N36 1.397 . S
C38 H19 0.929 . S
C38 C35 1.404 . S
C38 N36 1.334 . S
C39 H31 0.930 . S
C39 C34 1.418 . S
C39 C35 1.353 . S
C40 H10 0.930 . S
C40 N41 1.330 . S
C40 C42 1.446 . S
N41 Co0 2.151 . S
N41 C40 1.330 . S
N41 C45 1.418 . S
C42 H21 0.929 . S
C42 C40 1.446 . S
C42 C43 1.332 . S
C43 H23 0.931 . S
C43 C42 1.332 . S
C43 C44 1.267 . S
C44 H12 0.929 . S
C44 C43 1.267 . S
C44 C45 1.251 . S
C45 H15 0.929 . S
C45 N41 1.418 . S
C45 C44 1.251 . S
C46 H13 0.930 . S
C46 C48 1.406 . S
C46 C51 1.261 . S
C47 H14 0.930 . S
C47 N49 1.325 . S
C47 C50 1.357 . S
C48 H16 0.928 . S
C48 C46 1.406 . S
C48 N49 1.261 . S
N49 Co0 2.214 1_556 S
N49 C47 1.325 . S
N49 C48 1.261 . S
C50 H20 0.931 . S
C50 C47 1.357 . S
C50 C51 1.312 . S
C51 H22 0.930 . S
C51 C46 1.261 . S
C51 C50 1.312 . S
C52 O24 1.214 . S
C52 O32 1.234 . S
C53 H25 0.929 . S
C53 C56 1.391 . S
C53 C58 1.391 . S
C54 H26 0.929 . S
C54 C55 1.390 . S
C54 N57 1.391 . S
C55 H27 0.930 . S
C55 C54 1.390 . S
C55 C56 1.392 . S
C56 H28 0.929 . S
C56 C53 1.391 . S
C56 C55 1.392 . S
N57 Co1 2.257 . S
N57 C54 1.391 . S
N57 C58 1.388 . S
C58 H29 0.930 . S
C58 C53 1.391 . S
C58 N57 1.388 . S
Co59 O61 2.143 . S
Co59 O67 2.074 . S
Co59 O70 2.093 . S
Co59 O83 2.097 . S
Co59 N100 2.151 . S
Co59 N108 2.214 . S
Co60 O61 2.160 . S
Co60 O66 2.058 . S
Co60 O76 2.057 . S
Co60 O91 2.037 . S
Co60 N95 2.145 . S
Co60 N116 2.257 . S
O61 Co59 2.143 . S
O61 Co60 2.160 . S
C62 O63 1.278 . S
C62 O70 1.224 . S
O63 C62 1.278 . S
C64 O65 1.245 . S
C64 O76 1.232 . S
O65 C64 1.245 . S
O66 Co60 2.058 . S
O66 C92 1.269 . S
O67 Co59 2.074 . S
O67 C92 1.257 . S
H68 C93 0.930 . S
H69 C99 0.930 . S
O70 Co59 2.093 . S
O70 C62 1.224 . S
H71 C103 0.929 . S
H72 C105 0.930 . S
H73 C106 0.930 . S
H74 C104 0.929 . S
H75 C107 0.928 . S
O76 Co60 2.057 . S
O76 C64 1.232 . S
H77 C96 0.929 . S
H78 C97 0.929 . S
H79 C109 0.931 . S
H80 C101 0.929 1_655 S
H81 C110 0.930 . S
H82 C102 0.931 1_655 S
O83 Co59 2.097 . S
O83 C111 1.214 . S
H84 C112 0.929 . S
H85 C113 0.929 . S
H86 C114 0.930 . S
H87 C115 0.929 . S
H88 C117 0.930 . S
H89 C94 0.930 . S
H90 C98 0.930 . S
O91 Co60 2.037 . S
O91 C111 1.234 . S
C92 O66 1.269 . S
C92 O67 1.257 . S
C93 H68 0.930 . S
C93 C96 1.388 . S
C93 C98 1.418 . S
C94 H89 0.930 . S
C94 C97 1.404 . S
C94 C98 1.353 . S
N95 Co60 2.145 . S
N95 C96 1.397 . S
N95 C97 1.334 . S
C96 H77 0.929 . S
C96 C93 1.388 . S
C96 N95 1.397 . S
C97 H78 0.929 . S
C97 C94 1.404 . S
C97 N95 1.334 . S
C98 H90 0.930 . S
C98 C93 1.418 . S
C98 C94 1.353 . S
C99 H69 0.930 . S
C99 N100 1.330 . S
C99 C101 1.446 . S
N100 Co59 2.151 . S
N100 C99 1.330 . S
N100 C104 1.418 . S
C101 H80 0.929 1_455 S
C101 C99 1.446 . S
C101 C102 1.332 . S
C102 H82 0.931 1_455 S
C102 C101 1.332 . S
C102 C103 1.267 . S
C103 H71 0.929 . S
C103 C102 1.267 . S
C103 C104 1.251 . S
C104 H74 0.929 . S
C104 N100 1.418 . S
C104 C103 1.251 . S
C105 H72 0.930 . S
C105 C107 1.406 . S
C105 C110 1.261 . S
C106 H73 0.930 . S
C106 N108 1.325 . S
C106 C109 1.357 . S
C107 H75 0.928 . S
C107 C105 1.406 . S
C107 N108 1.261 . S
N108 Co59 2.214 . S
N108 C106 1.325 . S
N108 C107 1.261 . S
C109 H79 0.931 . S
C109 C106 1.357 . S
C109 C110 1.312 . S
C110 H81 0.930 . S
C110 C105 1.261 . S
C110 C109 1.312 . S
C111 O83 1.214 . S
C111 O91 1.234 . S
C112 H84 0.929 . S
C112 C115 1.391 . S
C112 C117 1.391 . S
C113 H85 0.929 . S
C113 C114 1.390 . S
C113 N116 1.391 . S
C114 H86 0.930 . S
C114 C113 1.390 . S
C114 C115 1.392 . S
C115 H87 0.929 . S
C115 C112 1.391 . S
C115 C114 1.392 . S
N116 Co60 2.257 . S
N116 C113 1.391 . S
N116 C117 1.388 . S
C117 H88 0.930 . S
C117 C112 1.391 . S
C117 N116 1.388 . S
Co118 O120 2.143 . S
Co118 O126 2.074 . S
Co118 O129 2.093 . S
Co118 O142 2.097 . S
Co118 N159 2.151 . S
Co118 N167 2.214 . S
Co119 O120 2.160 . S
Co119 O125 2.058 . S
Co119 O135 2.057 . S
Co119 O150 2.037 . S
Co119 N154 2.145 . S
Co119 N175 2.257 . S
O120 Co118 2.143 . S
O120 Co119 2.160 . S
C121 O122 1.278 . S
C121 O129 1.224 . S
O122 C121 1.278 . S
C123 O124 1.245 . S
C123 O135 1.232 . S
O124 C123 1.245 . S
O125 Co119 2.058 . S
O125 C151 1.269 . S
O126 Co118 2.074 . S
O126 C151 1.257 . S
H127 C152 0.930 . S
H128 C158 0.930 . S
O129 Co118 2.093 . S
O129 C121 1.224 . S
H130 C162 0.929 . S
H131 C164 0.930 . S
H132 C165 0.930 . S
H133 C163 0.929 . S
H134 C166 0.928 . S
O135 Co119 2.057 . S
O135 C123 1.232 . S
H136 C155 0.929 . S
H137 C156 0.929 . S
H138 C168 0.931 . S
H139 C160 0.929 1_565 S
H140 C169 0.930 . S
H141 C161 0.931 1_565 S
O142 Co118 2.097 . S
O142 C170 1.214 . S
H143 C171 0.929 . S
H144 C172 0.929 . S
H145 C173 0.930 . S
H146 C174 0.929 . S
H147 C176 0.930 . S
H148 C153 0.930 . S
H149 C157 0.930 . S
O150 Co119 2.037 . S
O150 C170 1.234 . S
C151 O125 1.269 . S
C151 O126 1.257 . S
C152 H127 0.930 . S
C152 C155 1.388 . S
C152 C157 1.418 . S
C153 H148 0.930 . S
C153 C156 1.404 . S
C153 C157 1.353 . S
N154 Co119 2.145 . S
N154 C155 1.397 . S
N154 C156 1.334 . S
C155 H136 0.929 . S
C155 C152 1.388 . S
C155 N154 1.397 . S
C156 H137 0.929 . S
C156 C153 1.404 . S
C156 N154 1.334 . S
C157 H149 0.930 . S
C157 C152 1.418 . S
C157 C153 1.353 . S
C158 H128 0.930 . S
C158 N159 1.330 . S
C158 C160 1.446 . S
N159 Co118 2.151 . S
N159 C158 1.330 . S
N159 C163 1.418 . S
C160 H139 0.929 1_545 S
C160 C158 1.446 . S
C160 C161 1.332 . S
C161 H141 0.931 1_545 S
C161 C160 1.332 . S
C161 C162 1.267 . S
C162 H130 0.929 . S
C162 C161 1.267 . S
C162 C163 1.251 . S
C163 H133 0.929 . S
C163 N159 1.418 . S
C163 C162 1.251 . S
C164 H131 0.930 . S
C164 C166 1.406 . S
C164 C169 1.261 . S
C165 H132 0.930 . S
C165 N167 1.325 . S
C165 C168 1.357 . S
C166 H134 0.928 . S
C166 C164 1.406 . S
C166 N167 1.261 . S
N167 Co118 2.214 . S
N167 C165 1.325 . S
N167 C166 1.261 . S
C168 H138 0.931 . S
C168 C165 1.357 . S
C168 C169 1.312 . S
C169 H140 0.930 . S
C169 C164 1.261 . S
C169 C168 1.312 . S
C170 O142 1.214 . S
C170 O150 1.234 . S
C171 H143 0.929 . S
C171 C174 1.391 . S
C171 C176 1.391 . S
C172 H144 0.929 . S
C172 C173 1.390 . S
C172 N175 1.391 . S
C173 H145 0.930 . S
C173 C172 1.390 . S
C173 C174 1.392 . S
C174 H146 0.929 . S
C174 C171 1.391 . S
C174 C173 1.392 . S
N175 Co119 2.257 . S
N175 C172 1.391 . S
N175 C176 1.388 . S
C176 H147 0.930 . S
C176 C171 1.391 . S
C176 N175 1.388 . S
Co177 O179 2.143 . S
Co177 O185 2.074 . S
Co177 O188 2.093 . S
Co177 O201 2.097 . S
Co177 N218 2.151 . S
Co177 N226 2.214 1_554 S
Co178 O179 2.160 . S
Co178 O184 2.058 . S
Co178 O194 2.057 . S
Co178 O209 2.037 . S
Co178 N213 2.145 . S
Co178 N234 2.257 . S
O179 Co177 2.143 . S
O179 Co178 2.160 . S
C180 O181 1.278 . S
C180 O188 1.224 . S
O181 C180 1.278 . S
C182 O183 1.245 . S
C182 O194 1.232 . S
O183 C182 1.245 . S
O184 Co178 2.058 . S
O184 C210 1.269 . S
O185 Co177 2.074 . S
O185 C210 1.257 . S
H186 C211 0.930 . S
H187 C217 0.930 . S
O188 Co177 2.093 . S
O188 C180 1.224 . S
H189 C221 0.929 . S
H190 C223 0.930 . S
H191 C224 0.930 . S
H192 C222 0.929 . S
H193 C225 0.928 . S
O194 Co178 2.057 . S
O194 C182 1.232 . S
H195 C214 0.929 . S
H196 C215 0.929 . S
H197 C227 0.931 . S
H198 C219 0.929 . S
H199 C228 0.930 . S
H200 C220 0.931 . S
O201 Co177 2.097 . S
O201 C229 1.214 . S
H202 C230 0.929 . S
H203 C231 0.929 . S
H204 C232 0.930 . S
H205 C233 0.929 . S
H206 C235 0.930 . S
H207 C212 0.930 . S
H208 C216 0.930 . S
O209 Co178 2.037 . S
O209 C229 1.234 . S
C210 O184 1.269 . S
C210 O185 1.257 . S
C211 H186 0.930 . S
C211 C214 1.388 . S
C211 C216 1.418 . S
C212 H207 0.930 . S
C212 C215 1.404 . S
C212 C216 1.353 . S
N213 Co178 2.145 . S
N213 C214 1.397 . S
N213 C215 1.334 . S
C214 H195 0.929 . S
C214 C211 1.388 . S
C214 N213 1.397 . S
C215 H196 0.929 . S
C215 C212 1.404 . S
C215 N213 1.334 . S
C216 H208 0.930 . S
C216 C211 1.418 . S
C216 C212 1.353 . S
C217 H187 0.930 . S
C217 N218 1.330 . S
C217 C219 1.446 . S
N218 Co177 2.151 . S
N218 C217 1.330 . S
N218 C222 1.418 . S
C219 H198 0.929 . S
C219 C217 1.446 . S
C219 C220 1.332 . S
C220 H200 0.931 . S
C220 C219 1.332 . S
C220 C221 1.267 . S
C221 H189 0.929 . S
C221 C220 1.267 . S
C221 C222 1.251 . S
C222 H192 0.929 . S
C222 N218 1.418 . S
C222 C221 1.251 . S
C223 H190 0.930 . S
C223 C225 1.406 . S
C223 C228 1.261 . S
C224 H191 0.930 . S
C224 N226 1.325 . S
C224 C227 1.357 . S
C225 H193 0.928 . S
C225 C223 1.406 . S
C225 N226 1.261 . S
N226 Co177 2.214 1_556 S
N226 C224 1.325 . S
N226 C225 1.261 . S
C227 H197 0.931 . S
C227 C224 1.357 . S
C227 C228 1.312 . S
C228 H199 0.930 . S
C228 C223 1.261 . S
C228 C227 1.312 . S
C229 O201 1.214 . S
C229 O209 1.234 . S
C230 H202 0.929 . S
C230 C233 1.391 . S
C230 C235 1.391 . S
C231 H203 0.929 . S
C231 C232 1.390 . S
C231 N234 1.391 . S
C232 H204 0.930 . S
C232 C231 1.390 . S
C232 C233 1.392 . S
C233 H205 0.929 . S
C233 C230 1.391 . S
C233 C232 1.392 . S
N234 Co178 2.257 . S
N234 C231 1.391 . S
N234 C235 1.388 . S
C235 H206 0.930 . S
C235 C230 1.391 . S
C235 N234 1.388 . S
Co236 O238 2.143 . S
Co236 O244 2.074 . S
Co236 O247 2.093 . S
Co236 O260 2.097 . S
Co236 N277 2.151 . S
Co236 N285 2.214 . S
Co237 O238 2.160 . S
Co237 O243 2.058 . S
Co237 O253 2.057 . S
Co237 O268 2.037 . S
Co237 N272 2.145 . S
Co237 N293 2.257 . S
O238 Co236 2.143 . S
O238 Co237 2.160 . S
C239 O240 1.278 . S
C239 O247 1.224 . S
O240 C239 1.278 . S
C241 O242 1.245 . S
C241 O253 1.232 . S
O242 C241 1.245 . S
O243 Co237 2.058 . S
O243 C269 1.269 . S
O244 Co236 2.074 . S
O244 C269 1.257 . S
H245 C270 0.930 . S
H246 C276 0.930 . S
O247 Co236 2.093 . S
O247 C239 1.224 . S
H248 C280 0.929 . S
H249 C282 0.930 . S
H250 C283 0.930 . S
H251 C281 0.929 . S
H252 C284 0.928 . S
O253 Co237 2.057 . S
O253 C241 1.232 . S
H254 C273 0.929 . S
H255 C274 0.929 . S
H256 C286 0.931 . S
H257 C278 0.929 1_455 S
H258 C287 0.930 . S
H259 C279 0.931 1_455 S
O260 Co236 2.097 . S
O260 C288 1.214 . S
H261 C289 0.929 . S
H262 C290 0.929 . S
H263 C291 0.930 . S
H264 C292 0.929 . S
H265 C294 0.930 . S
H266 C271 0.930 . S
H267 C275 0.930 . S
O268 Co237 2.037 . S
O268 C288 1.234 . S
C269 O243 1.269 . S
C269 O244 1.257 . S
C270 H245 0.930 . S
C270 C273 1.388 . S
C270 C275 1.418 . S
C271 H266 0.930 . S
C271 C274 1.404 . S
C271 C275 1.353 . S
N272 Co237 2.145 . S
N272 C273 1.397 . S
N272 C274 1.334 . S
C273 H254 0.929 . S
C273 C270 1.388 . S
C273 N272 1.397 . S
C274 H255 0.929 . S
C274 C271 1.404 . S
C274 N272 1.334 . S
C275 H267 0.930 . S
C275 C270 1.418 . S
C275 C271 1.353 . S
C276 H246 0.930 . S
C276 N277 1.330 . S
C276 C278 1.446 . S
N277 Co236 2.151 . S
N277 C276 1.330 . S
N277 C281 1.418 . S
C278 H257 0.929 1_655 S
C278 C276 1.446 . S
C278 C279 1.332 . S
C279 H259 0.931 1_655 S
C279 C278 1.332 . S
C279 C280 1.267 . S
C280 H248 0.929 . S
C280 C279 1.267 . S
C280 C281 1.251 . S
C281 H251 0.929 . S
C281 N277 1.418 . S
C281 C280 1.251 . S
C282 H249 0.930 . S
C282 C284 1.406 . S
C282 C287 1.261 . S
C283 H250 0.930 . S
C283 N285 1.325 . S
C283 C286 1.357 . S
C284 H252 0.928 . S
C284 C282 1.406 . S
C284 N285 1.261 . S
N285 Co236 2.214 . S
N285 C283 1.325 . S
N285 C284 1.261 . S
C286 H256 0.931 . S
C286 C283 1.357 . S
C286 C287 1.312 . S
C287 H258 0.930 . S
C287 C282 1.261 . S
C287 C286 1.312 . S
C288 O260 1.214 . S
C288 O268 1.234 . S
C289 H261 0.929 . S
C289 C292 1.391 . S
C289 C294 1.391 . S
C290 H262 0.929 . S
C290 C291 1.390 . S
C290 N293 1.391 . S
C291 H263 0.930 . S
C291 C290 1.390 . S
C291 C292 1.392 . S
C292 H264 0.929 . S
C292 C289 1.391 . S
C292 C291 1.392 . S
N293 Co237 2.257 . S
N293 C290 1.391 . S
N293 C294 1.388 . S
C294 H265 0.930 . S
C294 C289 1.391 . S
C294 N293 1.388 . S
Co295 O297 2.143 . S
Co295 O303 2.074 . S
Co295 O306 2.093 . S
Co295 O319 2.097 . S
Co295 N336 2.151 . S
Co295 N344 2.214 . S
Co296 O297 2.160 . S
Co296 O302 2.058 . S
Co296 O312 2.057 . S
Co296 O327 2.037 . S
Co296 N331 2.145 . S
Co296 N352 2.257 . S
O297 Co295 2.143 . S
O297 Co296 2.160 . S
C298 O299 1.278 . S
C298 O306 1.224 . S
O299 C298 1.278 . S
C300 O301 1.245 . S
C300 O312 1.232 . S
O301 C300 1.245 . S
O302 Co296 2.058 . S
O302 C328 1.269 . S
O303 Co295 2.074 . S
O303 C328 1.257 . S
H304 C329 0.930 . S
H305 C335 0.930 . S
O306 Co295 2.093 . S
O306 C298 1.224 . S
H307 C339 0.929 . S
H308 C341 0.930 . S
H309 C342 0.930 . S
H310 C340 0.929 . S
H311 C343 0.928 . S
O312 Co296 2.057 . S
O312 C300 1.232 . S
H313 C332 0.929 . S
H314 C333 0.929 . S
H315 C345 0.931 . S
H316 C337 0.929 1_545 S
H317 C346 0.930 . S
H318 C338 0.931 1_545 S
O319 Co295 2.097 . S
O319 C347 1.214 . S
H320 C348 0.929 . S
H321 C349 0.929 . S
H322 C350 0.930 . S
H323 C351 0.929 . S
H324 C353 0.930 . S
H325 C330 0.930 . S
H326 C334 0.930 . S
O327 Co296 2.037 . S
O327 C347 1.234 . S
C328 O302 1.269 . S
C328 O303 1.257 . S
C329 H304 0.930 . S
C329 C332 1.388 . S
C329 C334 1.418 . S
C330 H325 0.930 . S
C330 C333 1.404 . S
C330 C334 1.353 . S
N331 Co296 2.145 . S
N331 C332 1.397 . S
N331 C333 1.334 . S
C332 H313 0.929 . S
C332 C329 1.388 . S
C332 N331 1.397 . S
C333 H314 0.929 . S
C333 C330 1.404 . S
C333 N331 1.334 . S
C334 H326 0.930 . S
C334 C329 1.418 . S
C334 C330 1.353 . S
C335 H305 0.930 . S
C335 N336 1.330 . S
C335 C337 1.446 . S
N336 Co295 2.151 . S
N336 C335 1.330 . S
N336 C340 1.418 . S
C337 H316 0.929 1_565 S
C337 C335 1.446 . S
C337 C338 1.332 . S
C338 H318 0.931 1_565 S
C338 C337 1.332 . S
C338 C339 1.267 . S
C339 H307 0.929 . S
C339 C338 1.267 . S
C339 C340 1.251 . S
C340 H310 0.929 . S
C340 N336 1.418 . S
C340 C339 1.251 . S
C341 H308 0.930 . S
C341 C343 1.406 . S
C341 C346 1.261 . S
C342 H309 0.930 . S
C342 N344 1.325 . S
C342 C345 1.357 . S
C343 H311 0.928 . S
C343 C341 1.406 . S
C343 N344 1.261 . S
N344 Co295 2.214 . S
N344 C342 1.325 . S
N344 C343 1.261 . S
C345 H315 0.931 . S
C345 C342 1.357 . S
C345 C346 1.312 . S
C346 H317 0.930 . S
C346 C341 1.261 . S
C346 C345 1.312 . S
C347 O319 1.214 . S
C347 O327 1.234 . S
C348 H320 0.929 . S
C348 C351 1.391 . S
C348 C353 1.391 . S
C349 H321 0.929 . S
C349 C350 1.390 . S
C349 N352 1.391 . S
C350 H322 0.930 . S
C350 C349 1.390 . S
C350 C351 1.392 . S
C351 H323 0.929 . S
C351 C348 1.391 . S
C351 C350 1.392 . S
N352 Co296 2.257 . S
N352 C349 1.391 . S
N352 C353 1.388 . S
C353 H324 0.930 . S
C353 C348 1.391 . S
C353 N352 1.388 . S
Co354 O356 2.143 . S
Co354 O362 2.074 . S
Co354 O365 2.093 . S
Co354 O378 2.097 . S
Co354 N395 2.151 . S
Co354 N403 2.214 . S
Co355 O356 2.160 . S
Co355 O361 2.058 . S
Co355 O371 2.057 . S
Co355 O386 2.037 . S
Co355 N390 2.145 . S
Co355 N411 2.257 . S
O356 Co354 2.143 . S
O356 Co355 2.160 . S
C357 O358 1.278 . S
C357 O365 1.224 . S
O358 C357 1.278 . S
C359 O360 1.245 . S
C359 O371 1.232 . S
O360 C359 1.245 . S
O361 Co355 2.058 . S
O361 C387 1.269 . S
O362 Co354 2.074 . S
O362 C387 1.257 . S
H363 C388 0.930 . S
H364 C394 0.930 . S
O365 Co354 2.093 . S
O365 C357 1.224 . S
H366 C398 0.929 . S
H367 C400 0.930 . S
H368 C401 0.930 . S
H369 C399 0.929 . S
H370 C402 0.928 . S
O371 Co355 2.057 . S
O371 C359 1.232 . S
H372 C391 0.929 . S
H373 C392 0.929 . S
H374 C404 0.931 . S
H375 C396 0.929 . S
H376 C405 0.930 . S
H377 C397 0.931 . S
O378 Co354 2.097 . S
O378 C406 1.214 . S
H379 C407 0.929 . S
H380 C408 0.929 . S
H381 C409 0.930 . S
H382 C410 0.929 . S
H383 C412 0.930 . S
H384 C389 0.930 . S
H385 C393 0.930 . S
O386 Co355 2.037 . S
O386 C406 1.234 . S
C387 O361 1.269 . S
C387 O362 1.257 . S
C388 H363 0.930 . S
C388 C391 1.388 . S
C388 C393 1.418 . S
C389 H384 0.930 . S
C389 C392 1.404 . S
C389 C393 1.353 . S
N390 Co355 2.145 . S
N390 C391 1.397 . S
N390 C392 1.334 . S
C391 H372 0.929 . S
C391 C388 1.388 . S
C391 N390 1.397 . S
C392 H373 0.929 . S
C392 C389 1.404 . S
C392 N390 1.334 . S
C393 H385 0.930 . S
C393 C388 1.418 . S
C393 C389 1.353 . S
C394 H364 0.930 . S
C394 N395 1.330 . S
C394 C396 1.446 . S
N395 Co354 2.151 . S
N395 C394 1.330 . S
N395 C399 1.418 . S
C396 H375 0.929 . S
C396 C394 1.446 . S
C396 C397 1.332 . S
C397 H377 0.931 . S
C397 C396 1.332 . S
C397 C398 1.267 . S
C398 H366 0.929 . S
C398 C397 1.267 . S
C398 C399 1.251 . S
C399 H369 0.929 . S
C399 N395 1.418 . S
C399 C398 1.251 . S
C400 H367 0.930 . S
C400 C402 1.406 . S
C400 C405 1.261 . S
C401 H368 0.930 . S
C401 N403 1.325 . S
C401 C404 1.357 . S
C402 H370 0.928 . S
C402 C400 1.406 . S
C402 N403 1.261 . S
N403 Co354 2.214 . S
N403 C401 1.325 . S
N403 C402 1.261 . S
C404 H374 0.931 . S
C404 C401 1.357 . S
C404 C405 1.312 . S
C405 H376 0.930 . S
C405 C400 1.261 . S
C405 C404 1.312 . S
C406 O378 1.214 . S
C406 O386 1.234 . S
C407 H379 0.929 . S
C407 C410 1.391 . S
C407 C412 1.391 . S
C408 H380 0.929 . S
C408 C409 1.390 . S
C408 N411 1.391 . S
C409 H381 0.930 . S
C409 C408 1.390 . S
C409 C410 1.392 . S
C410 H382 0.929 . S
C410 C407 1.391 . S
C410 C409 1.392 . S
N411 Co355 2.257 . S
N411 C408 1.391 . S
N411 C412 1.388 . S
C412 H383 0.930 . S
C412 C407 1.391 . S
C412 N411 1.388 . S
Co413 O415 2.143 . S
Co413 O421 2.074 . S
Co413 O424 2.093 . S
Co413 O437 2.097 . S
Co413 N454 2.151 . S
Co413 N462 2.214 1_556 S
Co414 O415 2.160 . S
Co414 O420 2.058 . S
Co414 O430 2.057 . S
Co414 O445 2.037 . S
Co414 N449 2.145 . S
Co414 N470 2.257 . S
O415 Co413 2.143 . S
O415 Co414 2.160 . S
C416 O417 1.278 . S
C416 O424 1.224 . S
O417 C416 1.278 . S
C418 O419 1.245 . S
C418 O430 1.232 . S
O419 C418 1.245 . S
O420 Co414 2.058 . S
O420 C446 1.269 . S
O421 Co413 2.074 . S
O421 C446 1.257 . S
H422 C447 0.930 . S
H423 C453 0.930 . S
O424 Co413 2.093 . S
O424 C416 1.224 . S
H425 C457 0.929 . S
H426 C459 0.930 . S
H427 C460 0.930 . S
H428 C458 0.929 . S
H429 C461 0.928 . S
O430 Co414 2.057 . S
O430 C418 1.232 . S
H431 C450 0.929 . S
H432 C451 0.929 . S
H433 C463 0.931 . S
H434 C455 0.929 1_655 S
H435 C464 0.930 . S
H436 C456 0.931 1_655 S
O437 Co413 2.097 . S
O437 C465 1.214 . S
H438 C466 0.929 . S
H439 C467 0.929 . S
H440 C468 0.930 . S
H441 C469 0.929 . S
H442 C471 0.930 . S
H443 C448 0.930 . S
H444 C452 0.930 . S
O445 Co414 2.037 . S
O445 C465 1.234 . S
C446 O420 1.269 . S
C446 O421 1.257 . S
C447 H422 0.930 . S
C447 C450 1.388 . S
C447 C452 1.418 . S
C448 H443 0.930 . S
C448 C451 1.404 . S
C448 C452 1.353 . S
N449 Co414 2.145 . S
N449 C450 1.397 . S
N449 C451 1.334 . S
C450 H431 0.929 . S
C450 C447 1.388 . S
C450 N449 1.397 . S
C451 H432 0.929 . S
C451 C448 1.404 . S
C451 N449 1.334 . S
C452 H444 0.930 . S
C452 C447 1.418 . S
C452 C448 1.353 . S
C453 H423 0.930 . S
C453 N454 1.330 . S
C453 C455 1.446 . S
N454 Co413 2.151 . S
N454 C453 1.330 . S
N454 C458 1.418 . S
C455 H434 0.929 1_455 S
C455 C453 1.446 . S
C455 C456 1.332 . S
C456 H436 0.931 1_455 S
C456 C455 1.332 . S
C456 C457 1.267 . S
C457 H425 0.929 . S
C457 C456 1.267 . S
C457 C458 1.251 . S
C458 H428 0.929 . S
C458 N454 1.418 . S
C458 C457 1.251 . S
C459 H426 0.930 . S
C459 C461 1.406 . S
C459 C464 1.261 . S
C460 H427 0.930 . S
C460 N462 1.325 . S
C460 C463 1.357 . S
C461 H429 0.928 . S
C461 C459 1.406 . S
C461 N462 1.261 . S
N462 Co413 2.214 1_554 S
N462 C460 1.325 . S
N462 C461 1.261 . S
C463 H433 0.931 . S
C463 C460 1.357 . S
C463 C464 1.312 . S
C464 H435 0.930 . S
C464 C459 1.261 . S
C464 C463 1.312 . S
C465 O437 1.214 . S
C465 O445 1.234 . S
C466 H438 0.929 . S
C466 C469 1.391 . S
C466 C471 1.391 . S
C467 H439 0.929 . S
C467 C468 1.390 . S
C467 N470 1.391 . S
C468 H440 0.930 . S
C468 C467 1.390 . S
C468 C469 1.392 . S
C469 H441 0.929 . S
C469 C466 1.391 . S
C469 C468 1.392 . S
N470 Co414 2.257 . S
N470 C467 1.391 . S
N470 C471 1.388 . S
C471 H442 0.930 . S
C471 C466 1.391 . S
C471 N470 1.388 . S
Co472 O474 2.143 . S
Co472 O480 2.074 . S
Co472 O483 2.093 . S
Co472 O496 2.097 . S
Co472 N513 2.151 . S
Co472 N521 2.214 . S
Co473 O474 2.160 . S
Co473 O479 2.058 . S
Co473 O489 2.057 . S
Co473 O504 2.037 . S
Co473 N508 2.145 . S
Co473 N529 2.257 . S
O474 Co472 2.143 . S
O474 Co473 2.160 . S
C475 O476 1.278 . S
C475 O483 1.224 . S
O476 C475 1.278 . S
C477 O478 1.245 . S
C477 O489 1.232 . S
O478 C477 1.245 . S
O479 Co473 2.058 . S
O479 C505 1.269 . S
O480 Co472 2.074 . S
O480 C505 1.257 . S
H481 C506 0.930 . S
H482 C512 0.930 . S
O483 Co472 2.093 . S
O483 C475 1.224 . S
H484 C516 0.929 . S
H485 C518 0.930 . S
H486 C519 0.930 . S
H487 C517 0.929 . S
H488 C520 0.928 . S
O489 Co473 2.057 . S
O489 C477 1.232 . S
H490 C509 0.929 . S
H491 C510 0.929 . S
H492 C522 0.931 . S
H493 C514 0.929 1_565 S
H494 C523 0.930 . S
H495 C515 0.931 1_565 S
O496 Co472 2.097 . S
O496 C524 1.214 . S
H497 C525 0.929 . S
H498 C526 0.929 . S
H499 C527 0.930 . S
H500 C528 0.929 . S
H501 C530 0.930 . S
H502 C507 0.930 . S
H503 C511 0.930 . S
O504 Co473 2.037 . S
O504 C524 1.234 . S
C505 O479 1.269 . S
C505 O480 1.257 . S
C506 H481 0.930 . S
C506 C509 1.388 . S
C506 C511 1.418 . S
C507 H502 0.930 . S
C507 C510 1.404 . S
C507 C511 1.353 . S
N508 Co473 2.145 . S
N508 C509 1.397 . S
N508 C510 1.334 . S
C509 H490 0.929 . S
C509 C506 1.388 . S
C509 N508 1.397 . S
C510 H491 0.929 . S
C510 C507 1.404 . S
C510 N508 1.334 . S
C511 H503 0.930 . S
C511 C506 1.418 . S
C511 C507 1.353 . S
C512 H482 0.930 . S
C512 N513 1.330 . S
C512 C514 1.446 . S
N513 Co472 2.151 . S
N513 C512 1.330 . S
N513 C517 1.418 . S
C514 H493 0.929 1_545 S
C514 C512 1.446 . S
C514 C515 1.332 . S
C515 H495 0.931 1_545 S
C515 C514 1.332 . S
C515 C516 1.267 . S
C516 H484 0.929 . S
C516 C515 1.267 . S
C516 C517 1.251 . S
C517 H487 0.929 . S
C517 N513 1.418 . S
C517 C516 1.251 . S
C518 H485 0.930 . S
C518 C520 1.406 . S
C518 C523 1.261 . S
C519 H486 0.930 . S
C519 N521 1.325 . S
C519 C522 1.357 . S
C520 H488 0.928 . S
C520 C518 1.406 . S
C520 N521 1.261 . S
N521 Co472 2.214 . S
N521 C519 1.325 . S
N521 C520 1.261 . S
C522 H492 0.931 . S
C522 C519 1.357 . S
C522 C523 1.312 . S
C523 H494 0.930 . S
C523 C518 1.261 . S
C523 C522 1.312 . S
C524 O496 1.214 . S
C524 O504 1.234 . S
C525 H497 0.929 . S
C525 C528 1.391 . S
C525 C530 1.391 . S
C526 H498 0.929 . S
C526 C527 1.390 . S
C526 N529 1.391 . S
C527 H499 0.930 . S
C527 C526 1.390 . S
C527 C528 1.392 . S
C528 H500 0.929 . S
C528 C525 1.391 . S
C528 C527 1.392 . S
N529 Co473 2.257 . S
N529 C526 1.391 . S
N529 C530 1.388 . S
C530 H501 0.930 . S
C530 C525 1.391 . S
C530 N529 1.388 . S
Co531 O533 2.143 . S
Co531 O539 2.074 . S
Co531 O542 2.093 . S
Co531 O555 2.097 . S
Co531 N572 2.151 . S
Co531 N580 2.214 . S
Co532 O533 2.160 . S
Co532 O538 2.058 . S
Co532 O548 2.057 . S
Co532 O563 2.037 . S
Co532 N567 2.145 . S
Co532 N588 2.257 . S
O533 Co531 2.143 . S
O533 Co532 2.160 . S
C534 O535 1.278 . S
C534 O542 1.224 . S
O535 C534 1.278 . S
C536 O537 1.245 . S
C536 O548 1.232 . S
O537 C536 1.245 . S
O538 Co532 2.058 . S
O538 C564 1.269 . S
O539 Co531 2.074 . S
O539 C564 1.257 . S
H540 C565 0.930 . S
H541 C571 0.930 . S
O542 Co531 2.093 . S
O542 C534 1.224 . S
H543 C575 0.929 . S
H544 C577 0.930 . S
H545 C578 0.930 . S
H546 C576 0.929 . S
H547 C579 0.928 . S
O548 Co532 2.057 . S
O548 C536 1.232 . S
H549 C568 0.929 . S
H550 C569 0.929 . S
H551 C581 0.931 . S
H552 C573 0.929 . S
H553 C582 0.930 . S
H554 C574 0.931 . S
O555 Co531 2.097 . S
O555 C583 1.214 . S
H556 C584 0.929 . S
H557 C585 0.929 . S
H558 C586 0.930 . S
H559 C587 0.929 . S
H560 C589 0.930 . S
H561 C566 0.930 . S
H562 C570 0.930 . S
O563 Co532 2.037 . S
O563 C583 1.234 . S
C564 O538 1.269 . S
C564 O539 1.257 . S
C565 H540 0.930 . S
C565 C568 1.388 . S
C565 C570 1.418 . S
C566 H561 0.930 . S
C566 C569 1.404 . S
C566 C570 1.353 . S
N567 Co532 2.145 . S
N567 C568 1.397 . S
N567 C569 1.334 . S
C568 H549 0.929 . S
C568 C565 1.388 . S
C568 N567 1.397 . S
C569 H550 0.929 . S
C569 C566 1.404 . S
C569 N567 1.334 . S
C570 H562 0.930 . S
C570 C565 1.418 . S
C570 C566 1.353 . S
C571 H541 0.930 . S
C571 N572 1.330 . S
C571 C573 1.446 . S
N572 Co531 2.151 . S
N572 C571 1.330 . S
N572 C576 1.418 . S
C573 H552 0.929 . S
C573 C571 1.446 . S
C573 C574 1.332 . S
C574 H554 0.931 . S
C574 C573 1.332 . S
C574 C575 1.267 . S
C575 H543 0.929 . S
C575 C574 1.267 . S
C575 C576 1.251 . S
C576 H546 0.929 . S
C576 N572 1.418 . S
C576 C575 1.251 . S
C577 H544 0.930 . S
C577 C579 1.406 . S
C577 C582 1.261 . S
C578 H545 0.930 . S
C578 N580 1.325 . S
C578 C581 1.357 . S
C579 H547 0.928 . S
C579 C577 1.406 . S
C579 N580 1.261 . S
N580 Co531 2.214 . S
N580 C578 1.325 . S
N580 C579 1.261 . S
C581 H551 0.931 . S
C581 C578 1.357 . S
C581 C582 1.312 . S
C582 H553 0.930 . S
C582 C577 1.261 . S
C582 C581 1.312 . S
C583 O555 1.214 . S
C583 O563 1.234 . S
C584 H556 0.929 . S
C584 C587 1.391 . S
C584 C589 1.391 . S
C585 H557 0.929 . S
C585 C586 1.390 . S
C585 N588 1.391 . S
C586 H558 0.930 . S
C586 C585 1.390 . S
C586 C587 1.392 . S
C587 H559 0.929 . S
C587 C584 1.391 . S
C587 C586 1.392 . S
N588 Co532 2.257 . S
N588 C585 1.391 . S
N588 C589 1.388 . S
C589 H560 0.930 . S
C589 C584 1.391 . S
C589 N588 1.388 . S
Co590 O592 2.143 . S
Co590 O598 2.074 . S
Co590 O601 2.093 . S
Co590 O614 2.097 . S
Co590 N631 2.151 . S
Co590 N639 2.214 1_556 S
Co591 O592 2.160 . S
Co591 O597 2.058 . S
Co591 O607 2.057 . S
Co591 O622 2.037 . S
Co591 N626 2.145 . S
Co591 N647 2.257 . S
O592 Co590 2.143 . S
O592 Co591 2.160 . S
C593 O594 1.278 . S
C593 O601 1.224 . S
O594 C593 1.278 . S
C595 O596 1.245 . S
C595 O607 1.232 . S
O596 C595 1.245 . S
O597 Co591 2.058 . S
O597 C623 1.269 . S
O598 Co590 2.074 . S
O598 C623 1.257 . S
H599 C624 0.930 . S
H600 C630 0.930 . S
O601 Co590 2.093 . S
O601 C593 1.224 . S
H602 C634 0.929 . S
H603 C636 0.930 . S
H604 C637 0.930 . S
H605 C635 0.929 . S
H606 C638 0.928 . S
O607 Co591 2.057 . S
O607 C595 1.232 . S
H608 C627 0.929 . S
H609 C628 0.929 . S
H610 C640 0.931 . S
H611 C632 0.929 1_455 S
H612 C641 0.930 . S
H613 C633 0.931 1_455 S
O614 Co590 2.097 . S
O614 C642 1.214 . S
H615 C643 0.929 . S
H616 C644 0.929 . S
H617 C645 0.930 . S
H618 C646 0.929 . S
H619 C648 0.930 . S
H620 C625 0.930 . S
H621 C629 0.930 . S
O622 Co591 2.037 . S
O622 C642 1.234 . S
C623 O597 1.269 . S
C623 O598 1.257 . S
C624 H599 0.930 . S
C624 C627 1.388 . S
C624 C629 1.418 . S
C625 H620 0.930 . S
C625 C628 1.404 . S
C625 C629 1.353 . S
N626 Co591 2.145 . S
N626 C627 1.397 . S
N626 C628 1.334 . S
C627 H608 0.929 . S
C627 C624 1.388 . S
C627 N626 1.397 . S
C628 H609 0.929 . S
C628 C625 1.404 . S
C628 N626 1.334 . S
C629 H621 0.930 . S
C629 C624 1.418 . S
C629 C625 1.353 . S
C630 H600 0.930 . S
C630 N631 1.330 . S
C630 C632 1.446 . S
N631 Co590 2.151 . S
N631 C630 1.330 . S
N631 C635 1.418 . S
C632 H611 0.929 1_655 S
C632 C630 1.446 . S
C632 C633 1.332 . S
C633 H613 0.931 1_655 S
C633 C632 1.332 . S
C633 C634 1.267 . S
C634 H602 0.929 . S
C634 C633 1.267 . S
C634 C635 1.251 . S
C635 H605 0.929 . S
C635 N631 1.418 . S
C635 C634 1.251 . S
C636 H603 0.930 . S
C636 C638 1.406 . S
C636 C641 1.261 . S
C637 H604 0.930 . S
C637 N639 1.325 . S
C637 C640 1.357 . S
C638 H606 0.928 . S
C638 C636 1.406 . S
C638 N639 1.261 . S
N639 Co590 2.214 1_554 S
N639 C637 1.325 . S
N639 C638 1.261 . S
C640 H610 0.931 . S
C640 C637 1.357 . S
C640 C641 1.312 . S
C641 H612 0.930 . S
C641 C636 1.261 . S
C641 C640 1.312 . S
C642 O614 1.214 . S
C642 O622 1.234 . S
C643 H615 0.929 . S
C643 C646 1.391 . S
C643 C648 1.391 . S
C644 H616 0.929 . S
C644 C645 1.390 . S
C644 N647 1.391 . S
C645 H617 0.930 . S
C645 C644 1.390 . S
C645 C646 1.392 . S
C646 H618 0.929 . S
C646 C643 1.391 . S
C646 C645 1.392 . S
N647 Co591 2.257 . S
N647 C644 1.391 . S
N647 C648 1.388 . S
C648 H619 0.930 . S
C648 C643 1.391 . S
C648 N647 1.388 . S
Co649 O651 2.143 . S
Co649 O657 2.074 . S
Co649 O660 2.093 . S
Co649 O673 2.097 . S
Co649 N690 2.151 . S
Co649 N698 2.214 . S
Co650 O651 2.160 . S
Co650 O656 2.058 . S
Co650 O666 2.057 . S
Co650 O681 2.037 . S
Co650 N685 2.145 . S
Co650 N706 2.257 . S
O651 Co649 2.143 . S
O651 Co650 2.160 . S
C652 O653 1.278 . S
C652 O660 1.224 . S
O653 C652 1.278 . S
C654 O655 1.245 . S
C654 O666 1.232 . S
O655 C654 1.245 . S
O656 Co650 2.058 . S
O656 C682 1.269 . S
O657 Co649 2.074 . S
O657 C682 1.257 . S
H658 C683 0.930 . S
H659 C689 0.930 . S
O660 Co649 2.093 . S
O660 C652 1.224 . S
H661 C693 0.929 . S
H662 C695 0.930 . S
H663 C696 0.930 . S
H664 C694 0.929 . S
H665 C697 0.928 . S
O666 Co650 2.057 . S
O666 C654 1.232 . S
H667 C686 0.929 . S
H668 C687 0.929 . S
H669 C699 0.931 . S
H670 C691 0.929 1_545 S
H671 C700 0.930 . S
H672 C692 0.931 1_545 S
O673 Co649 2.097 . S
O673 C701 1.214 . S
H674 C702 0.929 . S
H675 C703 0.929 . S
H676 C704 0.930 . S
H677 C705 0.929 . S
H678 C707 0.930 . S
H679 C684 0.930 . S
H680 C688 0.930 . S
O681 Co650 2.037 . S
O681 C701 1.234 . S
C682 O656 1.269 . S
C682 O657 1.257 . S
C683 H658 0.930 . S
C683 C686 1.388 . S
C683 C688 1.418 . S
C684 H679 0.930 . S
C684 C687 1.404 . S
C684 C688 1.353 . S
N685 Co650 2.145 . S
N685 C686 1.397 . S
N685 C687 1.334 . S
C686 H667 0.929 . S
C686 C683 1.388 . S
C686 N685 1.397 . S
C687 H668 0.929 . S
C687 C684 1.404 . S
C687 N685 1.334 . S
C688 H680 0.930 . S
C688 C683 1.418 . S
C688 C684 1.353 . S
C689 H659 0.930 . S
C689 N690 1.330 . S
C689 C691 1.446 . S
N690 Co649 2.151 . S
N690 C689 1.330 . S
N690 C694 1.418 . S
C691 H670 0.929 1_565 S
C691 C689 1.446 . S
C691 C692 1.332 . S
C692 H672 0.931 1_565 S
C692 C691 1.332 . S
C692 C693 1.267 . S
C693 H661 0.929 . S
C693 C692 1.267 . S
C693 C694 1.251 . S
C694 H664 0.929 . S
C694 N690 1.418 . S
C694 C693 1.251 . S
C695 H662 0.930 . S
C695 C697 1.406 . S
C695 C700 1.261 . S
C696 H663 0.930 . S
C696 N698 1.325 . S
C696 C699 1.357 . S
C697 H665 0.928 . S
C697 C695 1.406 . S
C697 N698 1.261 . S
N698 Co649 2.214 . S
N698 C696 1.325 . S
N698 C697 1.261 . S
C699 H669 0.931 . S
C699 C696 1.357 . S
C699 C700 1.312 . S
C700 H671 0.930 . S
C700 C695 1.261 . S
C700 C699 1.312 . S
C701 O673 1.214 . S
C701 O681 1.234 . S
C702 H674 0.929 . S
C702 C705 1.391 . S
C702 C707 1.391 . S
C703 H675 0.929 . S
C703 C704 1.390 . S
C703 N706 1.391 . S
C704 H676 0.930 . S
C704 C703 1.390 . S
C704 C705 1.392 . S
C705 H677 0.929 . S
C705 C702 1.391 . S
C705 C704 1.392 . S
N706 Co650 2.257 . S
N706 C703 1.391 . S
N706 C707 1.388 . S
C707 H678 0.930 . S
C707 C702 1.391 . S
C707 N706 1.388 . S
H708 C714 0.930 . S
H709 C718 0.930 . S
H710 C723 0.929 . S
H711 C721 0.929 . S
H712 C716 0.929 . S
H713 C722 0.929 . S
C714 H708 0.930 . S
C714 C715 1.367 . S
C714 C722 1.378 . S
C715 C714 1.367 . S
C715 C723 1.433 . S
C716 H712 0.929 . S
C716 C718 1.378 . S
C716 C720 1.350 . S
C717 C720 1.463 1_566 S
C717 C722 1.350 . S
C717 N725 1.433 . S
C718 H709 0.930 . S
C718 C716 1.378 . S
C718 C719 1.367 . S
C719 C718 1.367 . S
C719 C721 1.433 . S
C720 C716 1.350 . S
C720 C717 1.463 1_544 S
C720 N724 1.432 . S
C721 H711 0.929 . S
C721 C719 1.433 . S
C721 N724 1.393 . S
C722 H713 0.929 . S
C722 C714 1.378 . S
C722 C717 1.350 . S
C723 H710 0.929 . S
C723 C715 1.433 . S
C723 N725 1.394 . S
N724 C720 1.432 . S
N724 C721 1.393 . S
N725 C717 1.433 . S
N725 C723 1.394 . S
H726 C732 0.930 . S
H727 C736 0.930 . S
H728 C741 0.929 . S
H729 C739 0.929 . S
H730 C734 0.929 . S
H731 C740 0.929 . S
C732 H726 0.930 . S
C732 C733 1.367 . S
C732 C740 1.378 . S
C733 C732 1.367 . S
C733 C741 1.433 . S
C734 H730 0.929 . S
C734 C736 1.378 . S
C734 C738 1.350 . S
C735 C738 1.463 . S
C735 C740 1.350 . S
C735 N743 1.427 . S
C736 H727 0.930 . S
C736 C734 1.378 . S
C736 C737 1.367 . S
C737 C736 1.367 . S
C737 C739 1.433 . S
C738 C734 1.350 . S
C738 C735 1.463 . S
C738 N742 1.427 . S
C739 H729 0.929 . S
C739 C737 1.433 . S
C739 N742 1.384 . S
C740 H731 0.929 . S
C740 C732 1.378 . S
C740 C735 1.350 . S
C741 H728 0.929 . S
C741 C733 1.433 . S
C741 N743 1.384 . S
N742 C738 1.427 . S
N742 C739 1.384 . S
N743 C735 1.427 . S
N743 C741 1.384 . S
H744 C750 0.930 . S
H745 C754 0.930 . S
H746 C759 0.929 . S
H747 C757 0.929 . S
H748 C752 0.929 1_655 S
H749 C758 0.929 1_455 S
C750 H744 0.930 . S
C750 C751 1.367 . S
C750 C758 1.378 . S
C751 C750 1.367 . S
C751 C759 1.433 . S
C752 H748 0.929 1_455 S
C752 C754 1.378 . S
C752 C756 1.350 . S
C753 C756 1.463 1_655 S
C753 C758 1.350 . S
C753 N761 1.427 . S
C754 H745 0.930 . S
C754 C752 1.378 . S
C754 C755 1.367 . S
C755 C754 1.367 . S
C755 C757 1.433 . S
C756 C752 1.350 . S
C756 C753 1.463 1_455 S
C756 N760 1.427 . S
C757 H747 0.929 . S
C757 C755 1.433 . S
C757 N760 1.384 . S
C758 H749 0.929 1_655 S
C758 C750 1.378 . S
C758 C753 1.350 . S
C759 H746 0.929 . S
C759 C751 1.433 . S
C759 N761 1.384 . S
N760 C756 1.427 . S
N760 C757 1.384 . S
N761 C753 1.427 . S
N761 C759 1.384 . S
H762 C768 0.930 . S
H763 C772 0.930 . S
H764 C777 0.929 . S
H765 C775 0.929 . S
H766 C770 0.929 . S
H767 C776 0.929 . S
C768 H762 0.930 . S
C768 C769 1.367 . S
C768 C776 1.378 . S
C769 C768 1.367 . S
C769 C777 1.433 . S
C770 H766 0.929 . S
C770 C772 1.378 . S
C770 C774 1.350 . S
C771 C774 1.463 1_564 S
C771 C776 1.350 . S
C771 N779 1.427 . S
C772 H763 0.930 . S
C772 C770 1.378 . S
C772 C773 1.367 . S
C773 C772 1.367 . S
C773 C775 1.433 . S
C774 C770 1.350 . S
C774 C771 1.463 1_546 S
C774 N778 1.427 . S
C775 H765 0.929 . S
C775 C773 1.433 . S
C775 N778 1.384 . S
C776 H767 0.929 . S
C776 C768 1.378 . S
C776 C771 1.350 . S
C777 H764 0.929 . S
C777 C769 1.433 . S
C777 N779 1.384 . S
N778 C774 1.427 . S
N778 C775 1.384 . S
N779 C771 1.427 . S
N779 C777 1.384 . S
H780 C786 0.930 . S
H781 C790 0.930 . S
H782 C795 0.929 . S
H783 C793 0.929 . S
H784 C788 0.929 . S
H785 C794 0.929 . S
C786 H780 0.930 . S
C786 C787 1.367 . S
C786 C794 1.378 . S
C787 C786 1.367 . S
C787 C795 1.433 . S
C788 H784 0.929 . S
C788 C790 1.378 . S
C788 C792 1.350 . S
C789 C792 1.463 . S
C789 C794 1.350 . S
C789 N797 1.427 . S
C790 H781 0.930 . S
C790 C788 1.378 . S
C790 C791 1.367 . S
C791 C790 1.367 . S
C791 C793 1.433 . S
C792 C788 1.350 . S
C792 C789 1.463 . S
C792 N796 1.427 . S
C793 H783 0.929 . S
C793 C791 1.433 . S
C793 N796 1.384 . S
C794 H785 0.929 . S
C794 C786 1.378 . S
C794 C789 1.350 . S
C795 H782 0.929 . S
C795 C787 1.433 . S
C795 N797 1.384 . S
N796 C792 1.427 . S
N796 C793 1.384 . S
N797 C789 1.427 . S
N797 C795 1.384 . S
H798 C804 0.930 . S
H799 C808 0.930 . S
H800 C813 0.929 . S
H801 C811 0.929 . S
H802 C806 0.929 . S
H803 C812 0.929 . S
C804 H798 0.930 . S
C804 C805 1.367 . S
C804 C812 1.378 . S
C805 C804 1.367 . S
C805 C813 1.433 . S
C806 H802 0.929 . S
C806 C808 1.378 . S
C806 C810 1.350 . S
C807 C810 1.463 1_655 S
C807 C812 1.350 . S
C807 N815 1.427 . S
C808 H799 0.930 . S
C808 C806 1.378 . S
C808 C809 1.367 . S
C809 C808 1.367 . S
C809 C811 1.433 . S
C810 C806 1.350 . S
C810 C807 1.463 1_455 S
C810 N814 1.427 . S
C811 H801 0.929 . S
C811 C809 1.433 . S
C811 N814 1.384 . S
C812 H803 0.929 . S
C812 C804 1.378 . S
C812 C807 1.350 . S
C813 H800 0.929 . S
C813 C805 1.433 . S
C813 N815 1.384 . S
N814 C810 1.427 . S
N814 C811 1.384 . S
N815 C807 1.427 . S
N815 C813 1.384 . S
H816 C822 0.930 . S
H817 C826 0.930 . S
H818 C831 0.929 . S
H819 C829 0.929 . S
H820 C824 0.929 . S
H821 C830 0.929 . S
C822 H816 0.930 . S
C822 C823 1.367 . S
C822 C830 1.378 . S
C823 C822 1.367 . S
C823 C831 1.433 . S
C824 H820 0.929 . S
C824 C826 1.378 . S
C824 C828 1.350 . S
C825 C828 1.463 1_556 S
C825 C830 1.350 . S
C825 N833 1.429 . S
C826 H817 0.930 . S
C826 C824 1.378 . S
C826 C827 1.367 . S
C827 C826 1.367 . S
C827 C829 1.433 . S
C828 C824 1.350 . S
C828 C825 1.463 1_554 S
C828 N832 1.429 . S
C829 H819 0.929 . S
C829 C827 1.433 . S
C829 N832 1.388 . S
C830 H821 0.929 . S
C830 C822 1.378 . S
C830 C825 1.350 . S
C831 H818 0.929 . S
C831 C823 1.433 . S
C831 N833 1.387 . S
N832 C828 1.429 . S
N832 C829 1.388 . S
N833 C825 1.429 . S
N833 C831 1.387 . S
H834 C840 0.930 . S
H835 C844 0.930 . S
H836 C849 0.929 . S
H837 C847 0.929 . S
H838 C842 0.929 . S
H839 C848 0.929 . S
C840 H834 0.930 . S
C840 C841 1.367 . S
C840 C848 1.378 . S
C841 C840 1.367 . S
C841 C849 1.433 . S
C842 H838 0.929 . S
C842 C844 1.378 . S
C842 C846 1.350 . S
C843 C846 1.463 . S
C843 C848 1.350 . S
C843 N851 1.427 . S
C844 H835 0.930 . S
C844 C842 1.378 . S
C844 C845 1.367 . S
C845 C844 1.367 . S
C845 C847 1.433 . S
C846 C842 1.350 . S
C846 C843 1.463 . S
C846 N850 1.427 . S
C847 H837 0.929 . S
C847 C845 1.433 . S
C847 N850 1.384 . S
C848 H839 0.929 . S
C848 C840 1.378 . S
C848 C843 1.350 . S
C849 H836 0.929 . S
C849 C841 1.433 . S
C849 N851 1.384 . S
N850 C846 1.427 . S
N850 C847 1.384 . S
N851 C843 1.427 . S
N851 C849 1.384 . S
H852 C858 0.930 . S
H853 C862 0.930 . S
H854 C867 0.929 . S
H855 C865 0.929 . S
H856 C860 0.929 . S
H857 C866 0.929 . S
C858 H852 0.930 . S
C858 C859 1.367 . S
C858 C866 1.378 . S
C859 C858 1.367 . S
C859 C867 1.433 . S
C860 H856 0.929 . S
C860 C862 1.378 . S
C860 C864 1.350 . S
C861 C864 1.463 . S
C861 C866 1.350 . S
C861 N869 1.427 . S
C862 H853 0.930 . S
C862 C860 1.378 . S
C862 C863 1.367 . S
C863 C862 1.367 . S
C863 C865 1.433 . S
C864 C860 1.350 . S
C864 C861 1.463 . S
C864 N868 1.427 . S
C865 H855 0.929 . S
C865 C863 1.433 . S
C865 N868 1.384 . S
C866 H857 0.929 . S
C866 C858 1.378 . S
C866 C861 1.350 . S
C867 H854 0.929 . S
C867 C859 1.433 . S
C867 N869 1.384 . S
N868 C864 1.427 . S
N868 C865 1.384 . S
N869 C861 1.427 . S
N869 C867 1.384 . S
H870 C876 0.930 . S
H871 C880 0.930 . S
H872 C885 0.929 . S
H873 C883 0.929 . S
H874 C878 0.929 . S
H875 C884 0.929 . S
C876 H870 0.930 . S
C876 C877 1.367 . S
C876 C884 1.378 . S
C877 C876 1.367 . S
C877 C885 1.433 . S
C878 H874 0.929 . S
C878 C880 1.378 . S
C878 C882 1.350 . S
C879 C882 1.463 1_556 S
C879 C884 1.350 . S
C879 N887 1.427 . S
C880 H871 0.930 . S
C880 C878 1.378 . S
C880 C881 1.367 . S
C881 C880 1.367 . S
C881 C883 1.433 . S
C882 C878 1.350 . S
C882 C879 1.463 1_554 S
C882 N886 1.427 . S
C883 H873 0.929 . S
C883 C881 1.433 . S
C883 N886 1.384 . S
C884 H875 0.929 . S
C884 C876 1.378 . S
C884 C879 1.350 . S
C885 H872 0.929 . S
C885 C877 1.433 . S
C885 N887 1.384 . S
N886 C882 1.427 . S
N886 C883 1.384 . S
N887 C879 1.427 . S
N887 C885 1.384 . S
H888 C894 0.930 . S
H889 C898 0.930 . S
H890 C903 0.929 . S
H891 C901 0.929 . S
H892 C896 0.929 . S
H893 C902 0.929 . S
C894 H888 0.930 . S
C894 C895 1.367 . S
C894 C902 1.378 . S
C895 C894 1.367 . S
C895 C903 1.433 . S
C896 H892 0.929 . S
C896 C898 1.378 . S
C896 C900 1.350 . S
C897 C900 1.463 . S
C897 C902 1.350 . S
C897 N905 1.427 . S
C898 H889 0.930 . S
C898 C896 1.378 . S
C898 C899 1.367 . S
C899 C898 1.367 . S
C899 C901 1.433 . S
C900 C896 1.350 . S
C900 C897 1.463 . S
C900 N904 1.427 . S
C901 H891 0.929 . S
C901 C899 1.433 . S
C901 N904 1.384 . S
C902 H893 0.929 . S
C902 C894 1.378 . S
C902 C897 1.350 . S
C903 H890 0.929 . S
C903 C895 1.433 . S
C903 N905 1.384 . S
N904 C900 1.427 . S
N904 C901 1.384 . S
N905 C897 1.427 . S
N905 C903 1.384 . S
H906 C912 0.930 . S
H907 C916 0.930 . S
H908 C921 0.929 . S
H909 C919 0.929 . S
H910 C914 0.929 . S
H911 C920 0.929 . S
C912 H906 0.930 . S
C912 C913 1.367 . S
C912 C920 1.378 . S
C913 C912 1.367 . S
C913 C921 1.433 . S
C914 H910 0.929 . S
C914 C916 1.378 . S
C914 C918 1.350 . S
C915 C918 1.463 . S
C915 C920 1.350 . S
C915 N923 1.427 . S
C916 H907 0.930 . S
C916 C914 1.378 . S
C916 C917 1.367 . S
C917 C916 1.367 . S
C917 C919 1.433 . S
C918 C914 1.350 . S
C918 C915 1.463 . S
C918 N922 1.427 . S
C919 H909 0.929 . S
C919 C917 1.433 . S
C919 N922 1.384 . S
C920 H911 0.929 . S
C920 C912 1.378 . S
C920 C915 1.350 . S
C921 H908 0.929 . S
C921 C913 1.433 . S
C921 N923 1.384 . S
N922 C918 1.427 . S
N922 C919 1.384 . S
N923 C915 1.427 . S
N923 C921 1.384 . S
H924 C930 0.930 . S
H925 C934 0.930 . S
H926 C939 0.929 . S
H927 C937 0.929 . S
H928 C932 0.929 . S
H929 C938 0.929 . S
C930 H924 0.930 . S
C930 C931 1.367 . S
C930 C938 1.378 . S
C931 C930 1.367 . S
C931 C939 1.433 . S
C932 H928 0.929 . S
C932 C934 1.378 . S
C932 C936 1.350 . S
C933 C936 1.463 . S
C933 C938 1.350 . S
C933 N941 1.427 . S
C934 H925 0.930 . S
C934 C932 1.378 . S
C934 C935 1.367 . S
C935 C934 1.367 . S
C935 C937 1.433 . S
C936 C932 1.350 . S
C936 C933 1.463 . S
C936 N940 1.427 . S
C937 H927 0.929 . S
C937 C935 1.433 . S
C937 N940 1.384 . S
C938 H929 0.929 . S
C938 C930 1.378 . S
C938 C933 1.350 . S
C939 H926 0.929 . S
C939 C931 1.433 . S
C939 N941 1.384 . S
N940 C936 1.427 . S
N940 C937 1.384 . S
N941 C933 1.427 . S
N941 C939 1.384 . S
H942 C948 0.930 . S
H943 C952 0.930 . S
H944 C957 0.929 . S
H945 C955 0.929 . S
H946 C950 0.929 . S
H947 C956 0.929 . S
C948 H942 0.930 . S
C948 C949 1.367 . S
C948 C956 1.378 . S
C949 C948 1.367 . S
C949 C957 1.433 . S
C950 H946 0.929 . S
C950 C952 1.378 . S
C950 C954 1.350 . S
C951 C954 1.463 . S
C951 C956 1.350 . S
C951 N959 1.427 . S
C952 H943 0.930 . S
C952 C950 1.378 . S
C952 C953 1.367 . S
C953 C952 1.367 . S
C953 C955 1.433 . S
C954 C950 1.350 . S
C954 C951 1.463 . S
C954 N958 1.427 . S
C955 H945 0.929 . S
C955 C953 1.433 . S
C955 N958 1.384 . S
C956 H947 0.929 . S
C956 C948 1.378 . S
C956 C951 1.350 . S
C957 H944 0.929 . S
C957 C949 1.433 . S
C957 N959 1.384 . S
N958 C954 1.427 . S
N958 C955 1.384 . S
N959 C951 1.427 . S
N959 C957 1.384 . S
H960 C966 0.930 . S
H961 C970 0.930 . S
H962 C975 0.929 . S
H963 C973 0.929 . S
H964 C968 0.929 . S
H965 C974 0.929 . S
C966 H960 0.930 . S
C966 C967 1.367 . S
C966 C974 1.378 . S
C967 C966 1.367 . S
C967 C975 1.433 . S
C968 H964 0.929 . S
C968 C970 1.378 . S
C968 C972 1.350 . S
C969 C972 1.463 . S
C969 C974 1.350 . S
C969 N977 1.427 . S
C970 H961 0.930 . S
C970 C968 1.378 . S
C970 C971 1.367 . S
C971 C970 1.367 . S
C971 C973 1.433 . S
C972 C968 1.350 . S
C972 C969 1.463 . S
C972 N976 1.427 . S
C973 H963 0.929 . S
C973 C971 1.433 . S
C973 N976 1.384 . S
C974 H965 0.929 . S
C974 C966 1.378 . S
C974 C969 1.350 . S
C975 H962 0.929 . S
C975 C967 1.433 . S
C975 N977 1.384 . S
N976 C972 1.427 . S
N976 C973 1.384 . S
N977 C969 1.427 . S
N977 C975 1.384 . S
H978 C984 0.930 . S
H979 C988 0.930 . S
H980 C993 0.929 . S
H981 C991 0.929 . S
H982 C986 0.929 . S
H983 C992 0.929 . S
C984 H978 0.930 . S
C984 C985 1.367 . S
C984 C992 1.378 . S
C985 C984 1.367 . S
C985 C993 1.433 . S
C986 H982 0.929 . S
C986 C988 1.378 . S
C986 C990 1.350 . S
C987 C990 1.463 . S
C987 C992 1.350 . S
C987 N995 1.427 . S
C988 H979 0.930 . S
C988 C986 1.378 . S
C988 C989 1.367 . S
C989 C988 1.367 . S
C989 C991 1.433 . S
C990 C986 1.350 . S
C990 C987 1.463 . S
C990 N994 1.427 . S
C991 H981 0.929 . S
C991 C989 1.433 . S
C991 N994 1.384 . S
C992 H983 0.929 . S
C992 C984 1.378 . S
C992 C987 1.350 . S
C993 H980 0.929 . S
C993 C985 1.433 . S
C993 N995 1.384 . S
N994 C990 1.427 . S
N994 C991 1.384 . S
N995 C987 1.427 . S
N995 C993 1.384 . S
H996 C1002 0.930 . S
H997 C1006 0.930 . S
H998 C1011 0.929 . S
H999 C1009 0.929 . S
H1000 C1004 0.929 . S
H1001 C1010 0.929 . S
C1002 H996 0.930 . S
C1002 C1003 1.367 . S
C1002 C1010 1.378 . S
C1003 C1002 1.367 . S
C1003 C1011 1.433 . S
C1004 H1000 0.929 . S
C1004 C1006 1.378 . S
C1004 C1008 1.350 . S
C1005 C1008 1.463 . S
C1005 C1010 1.350 . S
C1005 N1013 1.427 . S
C1006 H997 0.930 . S
C1006 C1004 1.378 . S
C1006 C1007 1.367 . S
C1007 C1006 1.367 . S
C1007 C1009 1.433 . S
C1008 C1004 1.350 . S
C1008 C1005 1.463 . S
C1008 N1012 1.427 . S
C1009 H999 0.929 . S
C1009 C1007 1.433 . S
C1009 N1012 1.384 . S
C1010 H1001 0.929 . S
C1010 C1002 1.378 . S
C1010 C1005 1.350 . S
C1011 H998 0.929 . S
C1011 C1003 1.433 . S
C1011 N1013 1.384 . S
N1012 C1008 1.427 . S
N1012 C1009 1.384 . S
N1013 C1005 1.427 . S
N1013 C1011 1.384 . S
H1014 C1020 0.930 . S
H1015 C1024 0.930 . S
H1016 C1029 0.929 . S
H1017 C1027 0.929 . S
H1018 C1022 0.929 . S
H1019 C1028 0.929 . S
C1020 H1014 0.930 . S
C1020 C1021 1.367 . S
C1020 C1028 1.378 . S
C1021 C1020 1.367 . S
C1021 C1029 1.433 . S
C1022 H1018 0.929 . S
C1022 C1024 1.378 . S
C1022 C1026 1.350 . S
C1023 C1026 1.463 . S
C1023 C1028 1.350 . S
C1023 N1031 1.427 . S
C1024 H1015 0.930 . S
C1024 C1022 1.378 . S
C1024 C1025 1.367 . S
C1025 C1024 1.367 . S
C1025 C1027 1.433 . S
C1026 C1022 1.350 . S
C1026 C1023 1.463 . S
C1026 N1030 1.427 . S
C1027 H1017 0.929 . S
C1027 C1025 1.433 . S
C1027 N1030 1.384 . S
C1028 H1019 0.929 . S
C1028 C1020 1.378 . S
C1028 C1023 1.350 . S
C1029 H1016 0.929 . S
C1029 C1021 1.433 . S
C1029 N1031 1.384 . S
N1030 C1026 1.427 . S
N1030 C1027 1.384 . S
N1031 C1023 1.427 . S
N1031 C1029 1.384 . S
H1032 C1038 0.930 . S
H1033 C1042 0.930 . S
H1034 C1047 0.929 . S
H1035 C1045 0.929 . S
H1036 C1040 0.929 . S
H1037 C1046 0.929 . S
C1038 H1032 0.930 . S
C1038 C1039 1.367 . S
C1038 C1046 1.378 . S
C1039 C1038 1.367 . S
C1039 C1047 1.433 . S
C1040 H1036 0.929 . S
C1040 C1042 1.378 . S
C1040 C1044 1.350 . S
C1041 C1044 1.463 . S
C1041 C1046 1.350 . S
C1041 N1049 1.427 . S
C1042 H1033 0.930 . S
C1042 C1040 1.378 . S
C1042 C1043 1.367 . S
C1043 C1042 1.367 . S
C1043 C1045 1.433 . S
C1044 C1040 1.350 . S
C1044 C1041 1.463 . S
C1044 N1048 1.427 . S
C1045 H1035 0.929 . S
C1045 C1043 1.433 . S
C1045 N1048 1.384 . S
C1046 H1037 0.929 . S
C1046 C1038 1.378 . S
C1046 C1041 1.350 . S
C1047 H1034 0.929 . S
C1047 C1039 1.433 . S
C1047 N1049 1.384 . S
N1048 C1044 1.427 . S
N1048 C1045 1.384 . S
N1049 C1041 1.427 . S
N1049 C1047 1.384 . S
H1050 C1056 0.930 . S
H1051 C1060 0.930 . S
H1052 C1065 0.929 . S
H1053 C1063 0.929 . S
H1054 C1058 0.929 . S
H1055 C1064 0.929 . S
C1056 H1050 0.930 . S
C1056 C1057 1.367 . S
C1056 C1064 1.378 . S
C1057 C1056 1.367 . S
C1057 C1065 1.433 . S
C1058 H1054 0.929 . S
C1058 C1060 1.378 . S
C1058 C1062 1.350 . S
C1059 C1062 1.463 1_655 S
C1059 C1064 1.350 . S
C1059 N1067 1.427 1_655 S
C1060 H1051 0.930 . S
C1060 C1058 1.378 . S
C1060 C1061 1.367 . S
C1061 C1060 1.367 . S
C1061 C1063 1.433 . S
C1062 C1058 1.350 . S
C1062 C1059 1.463 1_455 S
C1062 N1066 1.427 1_455 S
C1063 H1053 0.929 . S
C1063 C1061 1.433 . S
C1063 N1066 1.384 1_455 S
C1064 H1055 0.929 . S
C1064 C1056 1.378 . S
C1064 C1059 1.350 . S
C1065 H1052 0.929 . S
C1065 C1057 1.433 . S
C1065 N1067 1.384 1_655 S
N1066 C1062 1.427 1_655 S
N1066 C1063 1.384 1_655 S
N1067 C1059 1.427 1_455 S
N1067 C1065 1.384 1_455 S
H1068 C1074 0.930 . S
H1069 C1078 0.930 . S
H1070 C1083 0.929 . S
H1071 C1081 0.929 . S
H1072 C1076 0.929 1_545 S
H1073 C1082 0.929 1_565 S
C1074 H1068 0.930 . S
C1074 C1075 1.367 . S
C1074 C1082 1.378 . S
C1075 C1074 1.367 . S
C1075 C1083 1.433 . S
C1076 H1072 0.929 1_565 S
C1076 C1078 1.378 . S
C1076 C1080 1.350 . S
C1077 C1080 1.463 1_545 S
C1077 C1082 1.350 . S
C1077 N1085 1.427 . S
C1078 H1069 0.930 . S
C1078 C1076 1.378 . S
C1078 C1079 1.367 . S
C1079 C1078 1.367 . S
C1079 C1081 1.433 . S
C1080 C1076 1.350 . S
C1080 C1077 1.463 1_565 S
C1080 N1084 1.427 . S
C1081 H1071 0.929 . S
C1081 C1079 1.433 . S
C1081 N1084 1.384 . S
C1082 H1073 0.929 1_545 S
C1082 C1074 1.378 . S
C1082 C1077 1.350 . S
C1083 H1070 0.929 . S
C1083 C1075 1.433 . S
C1083 N1085 1.384 . S
N1084 C1080 1.427 . S
N1084 C1081 1.384 . S
N1085 C1077 1.427 . S
N1085 C1083 1.384 . S
H1086 C1092 0.930 . S
H1087 C1096 0.930 . S
H1088 C1101 0.929 . S
H1089 C1099 0.929 . S
H1090 C1094 0.929 . S
H1091 C1100 0.929 . S
C1092 H1086 0.930 . S
C1092 C1093 1.367 . S
C1092 C1100 1.378 . S
C1093 C1092 1.367 . S
C1093 C1101 1.433 . S
C1094 H1090 0.929 . S
C1094 C1096 1.378 . S
C1094 C1098 1.350 . S
C1095 C1098 1.463 . S
C1095 C1100 1.350 . S
C1095 N1103 1.427 . S
C1096 H1087 0.930 . S
C1096 C1094 1.378 . S
C1096 C1097 1.367 . S
C1097 C1096 1.367 . S
C1097 C1099 1.433 . S
C1098 C1094 1.350 . S
C1098 C1095 1.463 . S
C1098 N1102 1.427 . S
C1099 H1089 0.929 . S
C1099 C1097 1.433 . S
C1099 N1102 1.384 . S
C1100 H1091 0.929 . S
C1100 C1092 1.378 . S
C1100 C1095 1.350 . S
C1101 H1088 0.929 . S
C1101 C1093 1.433 . S
C1101 N1103 1.384 . S
N1102 C1098 1.427 . S
N1102 C1099 1.384 . S
N1103 C1095 1.427 . S
N1103 C1101 1.384 . S
H1104 C1110 0.930 . S
H1105 C1114 0.930 . S
H1106 C1119 0.929 . S
H1107 C1117 0.929 . S
H1108 C1112 0.929 . S
H1109 C1118 0.929 . S
C1110 H1104 0.930 . S
C1110 C1111 1.367 . S
C1110 C1118 1.378 . S
C1111 C1110 1.367 . S
C1111 C1119 1.433 . S
C1112 H1108 0.929 . S
C1112 C1114 1.378 . S
C1112 C1116 1.350 . S
C1113 C1116 1.463 1_455 S
C1113 C1118 1.350 . S
C1113 N1121 1.427 1_455 S
C1114 H1105 0.930 . S
C1114 C1112 1.378 . S
C1114 C1115 1.367 . S
C1115 C1114 1.367 . S
C1115 C1117 1.433 . S
C1116 C1112 1.350 . S
C1116 C1113 1.463 1_655 S
C1116 N1120 1.427 1_655 S
C1117 H1107 0.929 . S
C1117 C1115 1.433 . S
C1117 N1120 1.384 1_655 S
C1118 H1109 0.929 . S
C1118 C1110 1.378 . S
C1118 C1113 1.350 . S
C1119 H1106 0.929 . S
C1119 C1111 1.433 . S
C1119 N1121 1.384 1_455 S
N1120 C1116 1.427 1_455 S
N1120 C1117 1.384 1_455 S
N1121 C1113 1.427 1_655 S
N1121 C1119 1.384 1_655 S
H1122 C1128 0.930 . S
H1123 C1132 0.930 . S
H1124 C1137 0.929 . S
H1125 C1135 0.929 . S
H1126 C1130 0.929 1_565 S
H1127 C1136 0.929 1_545 S
C1128 H1122 0.930 . S
C1128 C1129 1.367 . S
C1128 C1136 1.378 . S
C1129 C1128 1.367 . S
C1129 C1137 1.433 . S
C1130 H1126 0.929 1_545 S
C1130 C1132 1.378 . S
C1130 C1134 1.350 . S
C1131 C1134 1.463 1_565 S
C1131 C1136 1.350 . S
C1131 N1139 1.427 . S
C1132 H1123 0.930 . S
C1132 C1130 1.378 . S
C1132 C1133 1.367 . S
C1133 C1132 1.367 . S
C1133 C1135 1.433 . S
C1134 C1130 1.350 . S
C1134 C1131 1.463 1_545 S
C1134 N1138 1.427 . S
C1135 H1125 0.929 . S
C1135 C1133 1.433 . S
C1135 N1138 1.384 . S
C1136 H1127 0.929 1_565 S
C1136 C1128 1.378 . S
C1136 C1131 1.350 . S
C1137 H1124 0.929 . S
C1137 C1129 1.433 . S
C1137 N1139 1.384 . S
N1138 C1134 1.427 . S
N1138 C1135 1.384 . S
N1139 C1131 1.427 . S
N1139 C1137 1.384 . S
C715 C446 1.558 . S
C719 C33 1.553 . S
C733 C92 1.552 . S
C737 C505 1.552 . S
C751 C151 1.554 . S
C755 C564 1.556 . S
C769 C210 1.558 . S
C773 C623 1.552 . S
C787 C682 1.553 . S
C791 C269 1.557 . S
C805 C387 1.551 . S
C809 C328 1.557 . S
C823 C642 1.732 . S
C827 C52 1.732 . S
C841 C111 1.730 . S
C845 C701 1.730 . S
C859 C170 1.729 . S
C863 C406 1.729 . S
C877 C465 1.734 . S
C881 C229 1.734 . S
C895 C524 1.729 . S
C899 C288 1.729 . S
C913 C583 1.730 . S
C917 C347 1.730 . S
C931 C5 1.750 . S
C935 C477 1.750 . S
C949 C64 1.747 . S
C953 C536 1.752 . S
C967 C595 1.748 . S
C971 C123 1.748 . S
C985 C182 1.747 . S
C989 C654 1.750 . S
C1003 C359 1.747 . S
C1007 C241 1.751 . S
C1021 C418 1.750 . S
C1025 C300 1.749 . S
C1039 C180 1.271 . S
C1043 C3 1.271 . S
C1057 C239 1.271 . S
C1061 C62 1.271 . S
C1075 C121 1.279 . S
C1079 C298 1.281 . S
C1093 C357 1.283 . S
C1097 C534 1.283 . S
C1111 C416 1.271 . S
C1115 C593 1.271 . S
C1129 C652 1.281 . S
C1133 C475 1.278 . S
