# Generated by pormake.
# Topology snz, (6)-cn, num edge types: 1
# Building blocks:
#     Node 0, Type 0, BuildingBlock: INOVEN_clean_sbu_0, # of connection points: 6
#     Node 1, Type 0, BuildingBlock: INOVEN_clean_sbu_0, # of connection points: 6
#     Node 2, Type 0, BuildingBlock: INOVEN_clean_sbu_0, # of connection points: 6
#     Node 3, Type 0, BuildingBlock: INOVEN_clean_sbu_0, # of connection points: 6
#     Node 4, Type 0, BuildingBlock: INOVEN_clean_sbu_0, # of connection points: 6
#     Node 5, Type 0, BuildingBlock: INOVEN_clean_sbu_0, # of connection points: 6
#     Node 6, Type 0, BuildingBlock: INOVEN_clean_sbu_0, # of connection points: 6
#     Node 7, Type 0, BuildingBlock: INOVEN_clean_sbu_0, # of connection points: 6
#     Node 8, Type 0, BuildingBlock: INOVEN_clean_sbu_0, # of connection points: 6
#     Edge 9, Type (0, 0), BuildingBlock: XUDNAN_clean_linker_2, # of connection points: 2
#     Edge 10, Type (0, 0), BuildingBlock: XUDNAN_clean_linker_2, # of connection points: 2
#     Edge 11, Type (0, 0), BuildingBlock: XUDNAN_clean_linker_2, # of connection points: 2
#     Edge 12, Type (0, 0), BuildingBlock: XUDNAN_clean_linker_2, # of connection points: 2
#     Edge 13, Type (0, 0), BuildingBlock: XUDNAN_clean_linker_2, # of connection points: 2
#     Edge 14, Type (0, 0), BuildingBlock: XUDNAN_clean_linker_2, # of connection points: 2
#     Edge 15, Type (0, 0), BuildingBlock: XUDNAN_clean_linker_2, # of connection points: 2
#     Edge 16, Type (0, 0), BuildingBlock: XUDNAN_clean_linker_2, # of connection points: 2
#     Edge 17, Type (0, 0), BuildingBlock: XUDNAN_clean_linker_2, # of connection points: 2
#     Edge 18, Type (0, 0), BuildingBlock: XUDNAN_clean_linker_2, # of connection points: 2
#     Edge 19, Type (0, 0), BuildingBlock: XUDNAN_clean_linker_2, # of connection points: 2
#     Edge 20, Type (0, 0), BuildingBlock: XUDNAN_clean_linker_2, # of connection points: 2
#     Edge 21, Type (0, 0), BuildingBlock: XUDNAN_clean_linker_2, # of connection points: 2
#     Edge 22, Type (0, 0), BuildingBlock: XUDNAN_clean_linker_2, # of connection points: 2
#     Edge 23, Type (0, 0), BuildingBlock: XUDNAN_clean_linker_2, # of connection points: 2
#     Edge 24, Type (0, 0), BuildingBlock: XUDNAN_clean_linker_2, # of connection points: 2
#     Edge 25, Type (0, 0), BuildingBlock: XUDNAN_clean_linker_2, # of connection points: 2
#     Edge 26, Type (0, 0), BuildingBlock: XUDNAN_clean_linker_2, # of connection points: 2
#     Edge 27, Type (0, 0), BuildingBlock: XUDNAN_clean_linker_2, # of connection points: 2
#     Edge 28, Type (0, 0), BuildingBlock: XUDNAN_clean_linker_2, # of connection points: 2
#     Edge 29, Type (0, 0), BuildingBlock: XUDNAN_clean_linker_2, # of connection points: 2
#     Edge 30, Type (0, 0), BuildingBlock: XUDNAN_clean_linker_2, # of connection points: 2
#     Edge 31, Type (0, 0), BuildingBlock: XUDNAN_clean_linker_2, # of connection points: 2
#     Edge 32, Type (0, 0), BuildingBlock: XUDNAN_clean_linker_2, # of connection points: 2
#     Edge 33, Type (0, 0), BuildingBlock: XUDNAN_clean_linker_2, # of connection points: 2
#     Edge 34, Type (0, 0), BuildingBlock: XUDNAN_clean_linker_2, # of connection points: 2
#     Edge 35, Type (0, 0), BuildingBlock: XUDNAN_clean_linker_2, # of connection points: 2
# Relax obj value: 0.404
# Max RMSD: 0.267
# Mean RMSD: 0.173
data_MOF--net-snz--node1-INOVEN_clean_sbu_0--edge1-XUDNAN_clean_linker_2
_symmetry_space_group_name_H-M    P1
_symmetry_Int_Tables_number       1
_symmetry_cell_setting            triclinic
loop_
_symmetry_equiv_pos_as_xyz
'x, y, z'
_cell_length_a     67.823255
_cell_length_b     55.079511
_cell_length_c     15.989907
_cell_angle_alpha  96.549541
_cell_angle_beta   97.479394
_cell_angle_gamma 121.05706
loop_
_atom_site_label
_atom_site_type_symbol
_atom_site_fract_x
_atom_site_fract_y
_atom_site_fract_z
_atom_type_partial_charge
Gd0 Gd 0.12452 0.49953 0.21954 0.0
Gd1 Gd 0.08584 0.49963 0.21285 0.0
C2 C 0.07459 0.43686 0.16373 0.0
C3 C 0.15834 0.48948 0.25318 0.0
C4 C 0.16392 0.47008 0.2942 0.0
C5 C 0.1875 0.48014 0.33068 0.0
C6 C 0.14633 0.44154 0.29562 0.0
C7 C 0.17595 0.43349 0.36941 0.0
C8 C 0.15226 0.4235 0.33252 0.0
C9 C 0.19346 0.46216 0.36771 0.0
C10 C 0.11207 0.50524 1.04892 0.0
C11 C 0.13378 0.56263 0.25194 0.0
C12 C 0.05164 0.50903 0.1923 0.0
C13 C 0.04496 0.52937 0.16613 0.0
C14 C 0.04197 0.5464 0.2293 0.0
C15 C 0.03881 0.52965 0.07873 0.0
C16 C 0.02498 0.56155 0.11854 0.0
C17 C 0.02905 0.54571 1.05525 0.0
C18 C 0.0322 0.5623 0.2059 0.0
C19 C 0.09689 0.49034 0.37919 0.0
O20 O 0.09705 0.45076 0.20402 0.0
O21 O 0.0653 0.45223 0.15113 0.0
O22 O 0.14236 0.478 0.18151 0.0
O23 O 0.15665 0.50832 0.30347 0.0
O24 O 0.13312 0.51959 0.09872 0.0
O25 O 0.09817 0.4893 0.09475 0.0
O26 O 0.11123 0.54708 0.21438 0.0
O27 O 0.14431 0.54869 0.26835 0.0
O28 O 0.06695 0.51776 0.2647 0.0
O29 O 0.05426 0.49323 0.13325 0.0
O30 O 0.07684 0.47548 0.32338 0.0
O31 O 0.11154 0.50844 0.33919 0.0
H32 H 0.20144 0.50204 0.33045 0.0
H33 H 0.128 0.4331 0.26781 0.0
H34 H 0.1382 0.40152 0.33105 0.0
H35 H 0.21181 0.47097 0.39624 0.0
H36 H 0.04637 0.54655 0.29706 0.0
H37 H 0.04069 0.51662 1.02822 0.0
H38 H 0.02358 0.54453 0.9874 0.0
H39 H 0.02964 0.57459 0.25641 0.0
Gd40 Gd 0.62557 0.51032 1.04335 0.0
Gd41 Gd 0.59031 0.51673 1.01748 0.0
C42 C 0.63758 0.57679 1.06812 0.0
C43 C 0.66548 0.5133 1.04463 0.0
C44 C 0.68895 0.53132 1.02318 0.0
C45 C 0.69804 0.5178 0.97574 0.0
C46 C 0.70303 0.56157 1.05322 0.0
C47 C 0.73525 0.56425 0.99182 0.0
C48 C 0.72578 0.5778 1.0374 0.0
C49 C 0.72085 0.534 0.96021 0.0
C50 C 0.60952 0.50504 0.19997 0.0
C51 C 0.57681 0.45074 1.00096 0.0
C52 C 0.54992 0.51149 1.0185 0.0
C53 C 0.53237 0.49689 1.07058 0.0
C54 C 0.51067 0.49484 1.05489 0.0
C55 C 0.53707 0.48421 0.13538 0.0
C56 C 0.49813 0.46643 0.16573 0.0
C57 C 0.52011 0.46904 0.18214 0.0
C58 C 0.49372 0.47986 0.10239 0.0
C59 C 0.60537 0.51839 0.85797 0.0
O60 O 0.64485 0.55931 1.04623 0.0
O61 O 0.6153 0.56484 1.06999 0.0
O62 O 0.66096 0.52432 0.11033 0.0
O63 O 0.64708 0.49839 0.9808 0.0
O64 O 0.61493 0.48857 0.15746 0.0
O65 O 0.61147 0.52354 0.15291 0.0
O66 O 0.57106 0.46924 1.02796 0.0
O67 O 0.59861 0.46174 0.99158 0.0
O68 O 0.5526 0.49447 0.96424 0.0
O69 O 0.57012 0.53416 1.06085 0.0
O70 O 0.59945 0.53528 0.89418 0.0
O71 O 0.60355 0.50158 0.91039 0.0
H72 H 0.68767 0.49449 0.95227 0.0
H73 H 0.69665 0.57265 0.0903 0.0
H74 H 0.73599 0.60106 1.06158 0.0
H75 H 0.72744 0.52259 0.9258 0.0
H76 H 0.50673 0.5045 1.00522 0.0
H77 H 0.55381 0.4858 0.14934 0.0
H78 H 0.52421 0.45932 0.23127 0.0
H79 H 0.47692 0.47809 0.0879 0.0
Gd80 Gd 0.57911 0.04419 0.87582 0.0
Gd81 Gd 0.62265 0.08875 0.92975 0.0
C82 C 0.58342 0.10451 0.91569 0.0
C83 C 0.53374 1.00681 0.84672 0.0
C84 C 0.51564 0.99739 0.89881 0.0
C85 C 0.49183 0.98353 0.85745 0.0
C86 C 0.52184 1.00293 0.98937 0.0
C87 C 0.48043 0.98075 0.99637 0.0
C88 C 0.50438 0.99457 1.03771 0.0
C89 C 0.47441 0.97529 0.90559 0.0
C90 C 0.59746 0.05619 0.72488 0.0
C91 C 0.61377 0.02471 0.92777 0.0
C92 C 0.66795 0.12327 0.93329 0.0
C93 C 0.69045 0.12366 0.93355 0.0
C94 C 0.70883 0.13681 1.00807 0.0
C95 C 0.69492 0.11374 0.85712 0.0
C96 C 0.73539 0.1302 0.92987 0.0
C97 C 0.71692 0.11693 0.85534 0.0
C98 C 0.7308 0.13993 1.00639 0.0
C99 C 0.60508 0.07617 0.0816 0.0
O100 O 0.57094 0.07741 0.92218 0.0
O101 O 0.60574 0.11546 0.91133 0.0
O102 O 0.54944 1.00008 0.86299 0.0
O103 O 0.54312 0.03329 0.83585 0.0
O104 O 0.58616 0.03144 0.74707 0.0
O105 O 0.60042 0.07487 0.79026 0.0
O106 O 0.6292 0.0516 0.92338 0.0
O107 O 0.59167 0.01655 0.91981 0.0
O108 O 0.65922 0.12041 1.00226 0.0
O109 O 0.65129 0.10958 0.86341 0.0
O110 O 0.61834 0.10195 1.06614 0.0
O111 O 0.60112 0.05791 1.01318 0.0
H112 H 0.4867 0.97916 0.7877 0.0
H113 H 0.54019 0.01392 1.02265 0.0
H114 H 0.50966 0.99939 0.10746 0.0
H115 H 0.45616 0.96436 0.87151 0.0
H116 H 0.70643 0.14531 1.06773 0.0
H117 H 0.6815 0.10382 0.79773 0.0
H118 H 0.71934 0.10877 0.79522 0.0
H119 H 0.74443 0.15073 1.06519 0.0
Gd120 Gd 0.78358 0.85401 0.29638 0.0
Gd121 Gd 0.74805 0.85939 0.29236 0.0
C122 C 0.7342 0.79462 0.25786 0.0
C123 C 0.81415 0.8385 0.3104 0.0
C124 C 0.81988 0.81849 0.34598 0.0
C125 C 0.81063 0.79032 0.29849 0.0
C126 C 0.83674 0.82855 0.42371 0.0
C127 C 0.8354 0.78306 0.40458 0.0
C128 C 0.84436 0.81106 0.45271 0.0
C129 C 0.81819 0.77279 0.32765 0.0
C130 C 0.77354 0.86365 0.12987 0.0
C131 C 0.80089 0.91895 0.36361 0.0
C132 C 0.72178 0.87912 0.2453 0.0
C133 C 0.70818 0.89215 0.21521 0.0
C134 C 0.68539 0.88209 0.22884 0.0
C135 C 0.71807 0.91496 0.17084 0.0
C136 C 0.68247 0.9167 0.15176 0.0
C137 C 0.70546 0.92703 0.13974 0.0
C138 C 0.67273 0.89419 0.19761 0.0
C139 C 0.75839 0.85285 0.46283 0.0
O140 O 0.75575 0.80873 0.30514 0.0
O141 O 0.72621 0.81048 0.23209 0.0
O142 O 0.79618 0.8275 0.24539 0.0
O143 O 0.81605 0.85955 0.36454 0.0
O144 O 0.79358 0.87752 0.18528 0.0
O145 O 0.75846 0.84655 0.17062 0.0
O146 O 0.77788 0.90765 0.34624 0.0
O147 O 0.8084 0.90156 0.34992 0.0
O148 O 0.71473 0.85825 0.28828 0.0
O149 O 0.74256 0.88845 0.22879 0.0
O150 O 0.73743 0.84183 0.41466 0.0
O151 O 0.77333 0.86696 0.41702 0.0
H152 H 0.798 0.78203 0.23742 0.0
H153 H 0.84449 0.85027 0.46134 0.0
H154 H 0.85739 0.81958 0.5128 0.0
H155 H 0.8111 0.75151 0.28828 0.0
H156 H 0.67726 0.86473 0.26309 0.0
H157 H 0.73559 0.92339 0.159 0.0
H158 H 0.71357 0.94398 0.10408 0.0
H159 H 0.65524 0.88585 0.20963 0.0
Gd160 Gd 0.27626 0.83958 0.52038 0.0
Gd161 Gd 0.24075 0.84511 0.49461 0.0
C162 C 0.28886 0.90496 0.53395 0.0
C163 C 0.31754 0.84783 0.51972 0.0
C164 C 0.33367 0.86228 0.46261 0.0
C165 C 0.35822 0.87871 0.49413 0.0
C166 C 0.32451 0.86167 0.37783 0.0
C167 C 0.36423 0.89403 0.35698 0.0
C168 C 0.33956 0.87715 0.32556 0.0
C169 C 0.37337 0.8944 0.44186 0.0
C170 C 0.26064 0.83429 0.67817 0.0
C171 C 0.22974 0.77937 0.46401 0.0
C172 C 0.19999 0.83972 0.49527 0.0
C173 C 0.17851 0.82202 0.52882 0.0
C174 C 0.16263 0.83096 0.5347 0.0
C175 C 0.17327 0.79595 0.55307 0.0
C176 C 0.13603 0.78738 0.58465 0.0
C177 C 0.15229 0.77882 0.58032 0.0
C178 C 0.1417 0.81393 0.56247 0.0
C179 C 0.25594 0.84767 0.33548 0.0
O180 O 0.2945 0.88649 0.50609 0.0
O181 O 0.26715 0.89391 0.54408 0.0
O182 O 0.31425 0.86472 0.57183 0.0
O183 O 0.2978 0.82342 0.48325 0.0
O184 O 0.26688 0.81864 0.63672 0.0
O185 O 0.26193 0.8523 0.63033 0.0
O186 O 0.22251 0.79632 0.492 0.0
O187 O 0.25192 0.79192 0.45958 0.0
O188 O 0.20384 0.8262 0.43371 0.0
O189 O 0.21939 0.85854 0.55179 0.0
O190 O 0.24982 0.86434 0.37216 0.0
O191 O 0.25434 0.83077 0.38733 0.0
H192 H 0.36567 0.87987 0.55975 0.0
H193 H 0.30561 0.84949 0.35219 0.0
H194 H 0.33179 0.87582 0.26028 0.0
H195 H 0.3922 0.90737 0.46877 0.0
H196 H 0.16624 0.85097 0.51645 0.0
H197 H 0.18527 0.78865 0.55018 0.0
H198 H 0.14879 0.75878 0.59794 0.0
H199 H 0.12961 0.82117 0.56397 0.0
Gd200 Gd 0.23715 0.26108 0.58537 0.0
Gd201 Gd 0.27901 0.30789 0.63515 0.0
C202 C 0.24019 0.32076 0.59175 0.0
C203 C 0.19181 0.22327 0.57056 0.0
C204 C 0.17002 0.22304 0.58245 0.0
C205 C 0.15492 0.20417 0.62981 0.0
C206 C 0.16342 0.2404 0.54453 0.0
C207 C 0.12665 0.21898 0.59783 0.0
C208 C 0.14213 0.23838 0.55203 0.0
C209 C 0.13367 0.20223 0.63765 0.0
C210 C 0.2542 0.27225 0.43183 0.0
C211 C 0.27858 0.24962 0.60726 0.0
C212 C 0.32324 0.34899 0.65649 0.0
C213 C 0.33963 0.35951 0.59769 0.0
C214 C 0.35958 0.38792 0.61895 0.0
C215 C 0.33609 0.34076 0.52192 0.0
C216 C 0.37315 0.37804 0.49282 0.0
C217 C 0.35273 0.34988 0.47036 0.0
C218 C 0.37615 0.39718 0.56672 0.0
C219 C 0.26176 0.29288 0.78823 0.0
O220 O 0.22889 0.2958 0.61476 0.0
O221 O 0.26158 0.33005 0.58178 0.0
O222 O 0.20121 0.23353 0.50677 0.0
O223 O 0.20796 0.23081 0.63929 0.0
O224 O 0.24369 0.24756 0.45607 0.0
O225 O 0.25687 0.29135 0.49536 0.0
O226 O 0.28957 0.27611 0.5937 0.0
O227 O 0.25648 0.23802 0.61507 0.0
O228 O 0.31606 0.32292 0.6679 0.0
O229 O 0.30613 0.35354 0.64674 0.0
O230 O 0.27223 0.31849 0.77044 0.0
O231 O 0.26002 0.27609 0.72089 0.0
H232 H 0.15935 0.19042 0.65974 0.0
H233 H 0.17458 0.25539 0.50813 0.0
H234 H 0.13782 0.25213 0.5216 0.0
H235 H 0.12237 0.18685 0.67285 0.0
H236 H 0.36263 0.40274 0.67701 0.0
H237 H 0.32071 0.31882 0.50359 0.0
H238 H 0.34974 0.33475 0.41323 0.0
H239 H 0.39174 0.41895 0.58591 0.0
Gd240 Gd 0.43702 0.18054 0.69177 0.0
Gd241 Gd 0.42664 0.17446 0.84284 0.0
C242 C 0.3967 0.19312 0.73589 0.0
C243 C 0.43681 0.17018 0.53122 0.0
C244 C 0.43648 0.14461 0.48972 0.0
C245 C 0.45044 0.14669 0.43032 0.0
C246 C 0.4243 0.11859 0.51847 0.0
C247 C 0.43952 0.0967 0.42811 0.0
C248 C 0.42586 0.095 0.48846 0.0
C249 C 0.4518 0.12288 0.39919 0.0
C250 C 0.4659 0.23426 0.8027 0.0
C251 C 0.46913 0.16738 0.81055 0.0
C252 C 0.42456 0.1639 0.99413 0.0
C253 C 0.4229 0.13739 1.0132 0.0
C254 C 0.40759 0.11057 0.9544 0.0
C255 C 0.43958 0.13956 0.08016 0.0
C256 C 0.42624 0.08889 1.02761 0.0
C257 C 0.44115 0.11555 0.08765 0.0
C258 C 0.40925 0.08661 0.96151 0.0
C259 C 0.39896 0.12155 0.72757 0.0
O260 O 0.40454 0.18498 0.67337 0.0
O261 O 0.40573 0.195 0.81623 0.0
O262 O 0.41776 0.16456 0.55816 0.0
O263 O 0.45612 0.18915 0.58859 0.0
O264 O 0.47234 0.22289 0.74561 0.0
O265 O 0.44409 0.21666 0.79964 0.0
O266 O 0.46299 0.17989 0.8675 0.0
O267 O 0.45728 0.15953 0.73055 0.0
O268 O 0.40635 0.16006 0.94134 0.0
O269 O 0.44444 0.18238 0.97555 0.0
O270 O 0.39113 0.13369 0.7747 0.0
O271 O 0.42101 0.13919 0.73832 0.0
H272 H 0.46029 0.16667 0.40825 0.0
H273 H 0.41363 0.1166 0.56497 0.0
H274 H 0.41616 0.07529 0.51184 0.0
H275 H 0.46196 0.12479 0.35062 0.0
H276 H 0.39468 0.10818 0.90126 0.0
H277 H 0.45181 0.16002 0.12535 0.0
H278 H 0.45389 0.11784 0.14146 0.0
H279 H 0.39733 0.06638 0.91498 0.0
Gd280 Gd 0.93876 0.16492 0.83645 0.0
Gd281 Gd 0.92749 0.18898 0.71634 0.0
C282 C 0.88933 0.16312 0.82564 0.0
C283 C 0.95286 0.15455 0.97845 0.0
C284 C 0.9765 0.17047 1.03578 0.0
C285 C 0.99593 0.19153 1.00789 0.0
C286 C 0.97908 0.16847 0.1225 0.0
C287 C 1.01865 0.21202 0.15544 0.0
C288 C 1.00012 0.189 0.18198 0.0
C289 C 1.01682 0.21225 1.06726 0.0
C290 C 0.91257 0.12303 0.6889 0.0
C291 C 0.97446 0.18759 0.71412 0.0
C292 C 0.9237 0.21261 0.59029 0.0
C293 C 0.94301 0.23898 0.57125 0.0
C294 C 0.96212 0.25981 0.63881 0.0
C295 C 0.94483 0.24065 0.48573 0.0
C296 C 0.98614 0.28009 0.53545 0.0
C297 C 0.96621 0.26115 0.46785 0.0
C298 C 0.98348 0.28027 0.62102 0.0
C299 C 0.95702 0.23048 0.8646 0.0
O300 O 0.90691 0.16405 0.87654 0.0
O301 O 0.89158 0.16788 0.74778 0.0
O302 O 0.94271 0.16924 0.97494 0.0
O303 O 0.95074 0.14091 0.90228 0.0
O304 O 0.93132 0.12733 0.73734 0.0
O305 O 0.90799 0.14145 0.71971 0.0
O306 O 0.95636 0.18583 0.66494 0.0
O307 O 0.97344 0.18494 0.7942 0.0
O308 O 0.91735 0.21628 0.66183 0.0
O309 O 0.92607 0.19044 0.58069 0.0
O310 O 0.93758 0.22683 0.8248 0.0
O311 O 0.9592 0.21089 0.82691 0.0
H312 H 0.99441 0.1935 0.94142 0.0
H313 H 0.96427 0.15249 0.14536 0.0
H314 H 1.00089 0.1886 0.24989 0.0
H315 H 0.03073 0.22989 1.04534 0.0
H316 H 0.96121 0.25885 0.70556 0.0
H317 H 0.9304 0.22462 0.43289 0.0
H318 H 0.9677 0.26008 0.40109 0.0
H319 H 0.99846 0.29459 0.67426 0.0
Gd320 Gd 0.9219 0.64812 0.70736 0.0
Gd321 Gd 0.94487 0.70307 0.82242 0.0
C322 C 0.97818 0.69505 0.72046 0.0
C323 C 0.90758 0.60776 0.57262 0.0
C324 C 0.92166 0.60265 0.51857 0.0
C325 C 0.9178 0.60334 0.43077 0.0
C326 C 0.9422 0.60401 0.55714 0.0
C327 C 0.95736 0.6148 0.42826 0.0
C328 C 0.95989 0.60987 0.51177 0.0
C329 C 0.93562 0.60951 0.38587 0.0
C330 C 0.94173 0.64713 0.86405 0.0
C331 C 0.89099 0.65396 0.82957 0.0
C332 C 0.96526 0.74736 0.94914 0.0
C333 C 0.98739 0.75889 1.01224 0.0
C334 C 1.00615 0.75807 0.98662 0.0
C335 C 0.98701 0.76249 0.09969 0.0
C336 C 1.01897 0.75424 0.13069 0.0
C337 C 1.00259 0.76007 0.15854 0.0
C338 C 1.02201 0.75603 1.04583 0.0
C339 C 0.92189 0.70218 0.66761 0.0
O340 O 0.95799 0.6731 0.67067 0.0
O341 O 0.97799 0.70805 0.79394 0.0
O342 O 0.90977 0.60362 0.65131 0.0
O343 O 0.90821 0.63179 0.56942 0.0
O344 O 0.92087 0.62694 0.81957 0.0
O345 O 0.95126 0.66737 0.82391 0.0
O346 O 0.91143 0.67733 0.8721 0.0
O347 O 0.88945 0.63987 0.75401 0.0
O348 O 0.94835 0.72156 0.95429 0.0
O349 O 0.96696 0.74973 0.86968 0.0
O350 O 0.94277 0.72306 0.70862 0.0
O351 O 0.91431 0.68255 0.71011 0.0
H352 H 0.90213 0.60234 0.39971 0.0
H353 H 0.94571 0.60353 0.6248 0.0
H354 H 0.97656 0.61379 0.54515 0.0
H355 H 0.93345 0.61346 0.32145 0.0
H356 H 1.00714 0.7559 0.91939 0.0
H357 H 0.97277 0.76332 0.12073 0.0
H358 H 0.99943 0.75906 0.22298 0.0
H359 H 0.03497 0.75277 1.02277 0.0
H360 H 0.14158 0.53326 0.928 0.0
H361 H 0.07006 0.46578 0.92866 0.0
H362 H 0.06011 0.45588 0.76909 0.0
H363 H 0.12566 0.55925 0.74129 0.0
H364 H 0.15063 0.56618 0.69615 0.0
H365 H 0.15274 0.56833 0.81069 0.0
H366 H 0.1651 0.53121 0.80381 0.0
H367 H 0.16299 0.52893 0.68923 0.0
H368 H 0.14651 0.49654 0.72978 0.0
H369 H 0.05724 0.4519 0.60145 0.0
H370 H 0.06097 0.45504 0.45208 0.0
H371 H 0.13408 0.52597 0.54365 0.0
C372 C 0.12371 0.51634 0.89507 0.0
C373 C 0.1067 0.50039 0.94609 0.0
C374 C 0.08375 0.47865 0.89586 0.0
C375 C 0.07786 0.47277 0.80327 0.0
C376 C 0.0948 0.48862 0.75609 0.0
C377 C 0.11738 0.51019 0.80057 0.0
C378 C 0.13207 0.52406 0.73252 0.0
C379 C 0.14081 0.55639 0.74599 0.0
C380 C 0.15292 0.51996 0.73927 0.0
C381 C 0.11443 0.5071 0.64327 0.0
C382 C 0.09306 0.48666 0.6597 0.0
C383 C 0.074 0.46806 0.58963 0.0
C384 C 0.07641 0.47011 0.50281 0.0
C385 C 0.09771 0.49075 0.48003 0.0
C386 C 0.1172 0.50966 0.55428 0.0
H387 H 0.60317 0.54854 0.72059 0.0
H388 H 0.60987 0.47656 0.76265 0.0
H389 H 0.61123 0.46674 0.60931 0.0
H390 H 0.56614 0.51456 0.49775 0.0
H391 H 0.57993 0.54736 0.457 0.0
H392 H 0.57938 0.54927 0.56997 0.0
H393 H 0.62467 0.58354 0.61058 0.0
H394 H 0.62535 0.58174 0.49773 0.0
H395 H 0.64261 0.57243 0.56629 0.0
H396 H 0.61152 0.46355 0.44379 0.0
H397 H 0.61166 0.46759 0.29283 0.0
H398 H 0.60548 0.5422 0.34217 0.0
C399 C 0.60494 0.53062 0.69807 0.0
C400 C 0.60635 0.51337 0.7587 0.0
C401 C 0.60868 0.49039 0.72198 0.0
C402 C 0.60947 0.48457 0.63311 0.0
C403 C 0.608 0.50168 0.57631 0.0
C404 C 0.60583 0.52443 0.60759 0.0
C405 C 0.60475 0.53945 0.53135 0.0
C406 C 0.58115 0.53757 0.51296 0.0
C407 C 0.62557 0.57119 0.55278 0.0
C408 C 0.60667 0.52183 0.45265 0.0
C409 C 0.60845 0.50007 0.48129 0.0
C410 C 0.61021 0.48071 0.42242 0.0
C411 C 0.61028 0.48331 0.33455 0.0
C412 C 0.60874 0.50525 0.29975 0.0
C413 C 0.60681 0.52492 0.36245 0.0
H414 H 0.61425 0.1037 0.62338 0.0
H415 H 0.58168 1.01067 0.59099 0.0
H416 H 0.5799 1.00625 0.43574 0.0
H417 H 0.58087 0.10094 0.41403 0.0
H418 H 0.60535 0.13229 0.38988 0.0
H419 H 0.60427 0.12929 0.50058 0.0
H420 H 0.64517 0.13579 0.52609 0.0
H421 H 0.64636 0.13882 0.41548 0.0
H422 H 0.64993 0.11193 0.45705 0.0
H423 H 0.58069 1.01027 0.27375 0.0
H424 H 0.58533 0.02307 0.13124 0.0
H425 H 0.61828 0.11361 0.2519 0.0
C426 C 0.60669 0.08229 0.58421 0.0
C427 C 0.59795 0.05741 0.62539 0.0
C428 C 0.58851 0.03039 0.56656 0.0
C429 C 0.58738 0.02751 0.47586 0.0
C430 C 0.59586 0.05183 0.43816 0.0
C431 C 0.60551 0.0789 0.49061 0.0
C432 C 0.61359 0.10137 0.43111 0.0
C433 C 0.60023 0.11692 0.43412 0.0
C434 C 0.64036 0.1233 0.45913 0.0
C435 C 0.60699 0.08284 0.33849 0.0
C436 C 0.59667 0.05419 0.34494 0.0
C437 C 0.58887 0.0328 0.26944 0.0
C438 C 0.59161 0.04038 0.18697 0.0
C439 C 0.60226 0.06948 0.17536 0.0
C440 C 0.61002 0.09097 0.2548 0.0
H441 H 0.7279 0.82803 0.5834 0.0
H442 H 0.8015 0.88666 0.58179 0.0
H443 H 0.81165 0.89463 0.74091 0.0
H444 H 0.72816 0.86772 0.7875 0.0
H445 H 0.70891 0.8358 0.82554 0.0
H446 H 0.7068 0.83431 0.71123 0.0
H447 H 0.71299 0.79176 0.69657 0.0
H448 H 0.71509 0.79312 0.81083 0.0
H449 H 0.73859 0.79586 0.76282 0.0
H450 H 0.81459 0.8976 0.90755 0.0
H451 H 0.81071 0.89445 1.0566 0.0
H452 H 0.73529 0.83272 0.96656 0.0
C453 C 0.74625 0.8426 0.61606 0.0
C454 C 0.76381 0.85669 0.5651 0.0
C455 C 0.7874 0.87535 0.61475 0.0
C456 C 0.7934 0.88009 0.70699 0.0
C457 C 0.77591 0.86611 0.75415 0.0
C458 C 0.75269 0.84752 0.71014 0.0
C459 C 0.7375 0.83511 0.77811 0.0
C460 C 0.71924 0.84373 0.7754 0.0
C461 C 0.7253 0.80198 0.76104 0.0
C462 C 0.75562 0.84951 0.86683 0.0
C463 C 0.77766 0.8674 0.85014 0.0
C464 C 0.7973 0.88343 0.91964 0.0
C465 C 0.79479 0.88139 1.00627 0.0
C466 C 0.77278 0.86325 1.02927 0.0
C467 C 0.75271 0.84694 0.95562 0.0
H468 H 0.25568 0.8709 0.81898 0.0
H469 H 0.26397 0.79786 0.77259 0.0
H470 H 0.264 0.79414 0.92382 0.0
H471 H 0.29279 0.90227 1.04293 0.0
H472 H 0.27438 0.91276 0.08613 0.0
H473 H 0.27503 0.91066 0.97321 0.0
H474 H 0.22984 0.87534 0.93224 0.0
H475 H 0.22908 0.87736 1.04506 0.0
H476 H 0.21651 0.84265 0.97379 0.0
H477 H 0.26359 0.79741 0.08888 0.0
H478 H 0.2618 0.80699 0.24169 0.0
H479 H 0.25312 0.87741 0.19735 0.0
C480 C 0.25751 0.85404 0.83998 0.0
C481 C 0.25996 0.83469 0.77804 0.0
C482 C 0.26217 0.81331 0.81373 0.0
C483 C 0.2622 0.8109 0.90174 0.0
C484 C 0.2599 0.82991 0.95984 0.0
C485 C 0.2575 0.85115 0.93037 0.0
C486 C 0.25512 0.8685 1.00852 0.0
C487 C 0.27554 0.90046 1.02888 0.0
C488 C 0.23122 0.86582 0.98871 0.0
C489 C 0.25656 0.85383 0.08523 0.0
C490 C 0.25939 0.83157 1.05476 0.0
C491 C 0.2613 0.81484 0.11206 0.0
C492 C 0.26025 0.82053 0.20061 0.0
C493 C 0.25722 0.84298 0.23652 0.0
C494 C 0.25541 0.85989 0.17545 0.0
H495 H 0.27132 0.3292 0.95695 0.0
H496 H 0.24711 0.24076 0.84071 0.0
H497 H 0.24336 0.22792 0.98353 0.0
H498 H 0.30517 0.33278 0.16563 0.0
H499 H 0.29731 0.35384 0.23164 0.0
H500 H 0.29831 0.35684 0.1209 0.0
H501 H 0.25535 0.34384 0.09073 0.0
H502 H 0.25424 0.34082 0.2014 0.0
H503 H 0.23263 0.31083 0.11472 0.0
H504 H 0.24221 0.2236 0.14594 0.0
H505 H 0.243 0.22771 0.30092 0.0
H506 H 0.26742 0.3187 0.32806 0.0
C507 C 0.26518 0.30701 0.96087 0.0
C508 C 0.25957 0.28613 0.88244 0.0
C509 C 0.25165 0.2576 0.89552 0.0
C510 C 0.24945 0.25 0.97824 0.0
C511 C 0.25507 0.27077 1.05268 0.0
C512 C 0.26277 0.29886 1.04489 0.0
C513 C 0.26752 0.31682 0.1366 0.0
C514 C 0.29363 0.34156 0.1654 0.0
C515 C 0.25149 0.32881 0.13582 0.0
C516 C 0.26131 0.29467 0.19695 0.0
C517 C 0.25423 0.26824 0.14594 0.0
C518 C 0.24772 0.24436 0.18491 0.0
C519 C 0.24825 0.24702 0.27533 0.0
C520 C 0.25515 0.27338 0.33254 0.0
C521 C 0.26191 0.29781 0.29013 0.0
H522 H 0.47492 0.09285 0.37868 0.0
H523 H 0.40108 0.04075 0.38194 0.0
H524 H 0.39471 1.00525 0.25961 0.0
H525 H 0.48051 0.10653 0.23373 0.0
H526 H 0.49747 0.09694 0.17556 0.0
H527 H 0.50138 0.0996 0.2897 0.0
H528 H 0.49315 0.04861 0.26848 0.0
H529 H 0.48817 0.04472 0.15274 0.0
H530 H 0.46615 0.01842 0.20073 0.0
H531 H 0.38936 1.00258 0.10994 0.0
H532 H 0.38857 0.03395 1.01626 0.0
H533 H 0.46456 0.0855 1.07274 0.0
C534 C 0.4578 0.07296 0.3553 0.0
C535 C 0.43838 0.07031 0.3861 0.0
C536 C 0.4163 0.04387 0.35827 0.0
C537 C 0.41256 0.02326 0.28816 0.0
C538 C 0.43076 0.02987 0.24466 0.0
C539 C 0.45383 0.05283 0.2823 0.0
C540 C 0.46848 0.06022 0.21439 0.0
C541 C 0.48803 0.09278 0.2292 0.0
C542 C 0.4796 0.04189 0.20867 0.0
C543 C 0.44875 0.04925 0.13549 0.0
C544 C 0.42746 0.0277 0.15117 0.0
C545 C 0.40588 0.01943 0.09838 0.0
C546 C 0.40549 0.03755 1.04472 0.0
C547 C 0.42669 0.06299 1.04205 0.0
C548 C 0.44831 0.06637 0.07735 0.0
H549 H 1.00175 0.30921 0.4078 0.0
H550 H 0.02318 0.27868 0.61686 0.0
H551 H 0.05298 0.27866 0.54694 0.0
H552 H 0.99368 0.26791 0.25753 0.0
H553 H 1.00691 0.28855 0.17851 0.0
H554 H 0.99939 0.30399 0.26262 0.0
H555 H 0.04194 0.3478 0.3047 0.0
H556 H 0.05055 0.33182 0.22383 0.0
H557 H 0.06619 0.34319 0.33461 0.0
H558 H 0.06141 0.25629 0.43408 0.0
H559 H 0.04825 0.21888 0.3033 0.0
H560 H 0.02513 0.26415 0.15623 0.0
C561 C 1.01396 0.3045 0.44073 0.0
C562 C 1.00997 0.29356 0.51642 0.0
C563 C 0.02595 0.28736 0.55901 0.0
C564 C 0.04309 0.28729 0.51927 0.0
C565 C 0.04428 0.29385 0.43756 0.0
C566 C 0.03094 0.30393 0.40039 0.0
C567 C 0.03111 0.30287 0.30534 0.0
C568 C 1.0063 0.28996 0.24785 0.0
C569 C 0.04849 0.33327 0.29148 0.0
C570 C 0.04079 0.28368 0.29092 0.0
C571 C 0.05023 0.28087 0.36889 0.0
C572 C 0.05489 0.25902 0.3728 0.0
C573 C 0.04738 0.23777 0.29818 0.0
C574 C 0.0358 0.23894 0.22032 0.0
C575 C 0.03457 0.26351 0.2151 0.0
H576 H 0.98356 0.67229 0.47661 0.0
H577 H 0.97642 0.60042 0.30489 0.0
H578 H 1.00572 0.63513 0.23128 0.0
H579 H 0.97934 0.7051 0.32501 0.0
H580 H 0.99908 0.74204 0.38429 0.0
H581 H 0.98492 0.71366 0.44126 0.0
H582 H 0.0253 0.73034 0.52936 0.0
H583 H 0.04083 0.75754 0.46956 0.0
H584 H 0.04754 0.73015 0.47779 0.0
H585 H 1.0215 0.67283 0.14735 0.0
H586 H 0.0254 0.71036 1.0699 0.0
H587 H 0.02975 0.76181 0.30643 0.0
C588 C 0.98941 0.66412 0.42705 0.0
C589 C 0.9785 0.63405 0.39742 0.0
C590 C 0.98505 0.62353 0.32882 0.0
C591 C 1.00159 0.64302 0.28703 0.0
C592 C 1.01115 0.67268 0.31467 0.0
C593 C 1.00566 0.68326 0.38466 0.0
C594 C 1.01401 0.71485 0.39044 0.0
C595 C 0.9931 0.71912 0.38479 0.0
C596 C 0.03312 0.73434 0.47189 0.0
C597 C 0.02424 0.72017 0.31134 0.0
C598 C 1.02236 0.69561 0.26796 0.0
C599 C 0.02446 0.69281 0.18243 0.0
C600 C 0.02689 0.7146 0.13893 0.0
C601 C 0.02752 0.73915 0.18174 0.0
C602 C 0.02894 0.7432 0.27138 0.0
H603 H 0.25391 0.36613 0.50562 0.0
H604 H 0.19854 0.31016 0.62858 0.0
H605 H 0.17673 0.33311 0.58728 0.0
H606 H 0.25173 0.4307 0.562 0.0
H607 H 0.25648 0.44096 0.45989 0.0
H608 H 0.26834 0.42103 0.50215 0.0
H609 H 0.24666 0.38149 0.36112 0.0
H610 H 0.2347 0.40126 0.31853 0.0
H611 H 0.2152 0.364 0.32463 0.0
H612 H 0.16038 0.36169 0.53075 0.0
H613 H 0.15069 0.39336 0.46329 0.0
H614 H 0.2157 0.43011 0.37123 0.0
C615 C 0.23736 0.359 0.52496 0.0
C616 C 0.22813 0.33643 0.57141 0.0
C617 C 0.20615 0.32745 0.59369 0.0
C618 C 0.19357 0.34038 0.57036 0.0
C619 C 0.20302 0.36231 0.52407 0.0
C620 C 0.22441 0.37157 0.50147 0.0
C621 C 0.23017 0.39493 0.44911 0.0
C622 C 0.25304 0.42361 0.49611 0.0
C623 C 0.23177 0.38481 0.35795 0.0
C624 C 0.20876 0.39744 0.44623 0.0
C625 C 0.19335 0.37841 0.48997 0.0
C626 C 0.17231 0.37659 0.49607 0.0
C627 C 0.16685 0.39461 0.45668 0.0
C628 C 0.18223 0.41436 0.41088 0.0
C629 C 0.20355 0.41563 0.40616 0.0
H630 H 0.62908 0.62176 0.10261 0.0
H631 H 0.68554 0.6068 0.089 0.0
H632 H 0.7147 0.65927 0.13422 0.0
H633 H 0.65623 0.68892 1.01934 0.0
H634 H 0.64644 0.70669 0.08882 0.0
H635 H 0.62943 0.66769 1.05585 0.0
H636 H 0.63189 0.66355 0.21577 0.0
H637 H 0.64894 0.70254 0.24924 0.0
H638 H 0.66038 0.68187 0.28889 0.0
H639 H 0.73841 0.71297 0.18777 0.0
H640 H 0.75537 0.76501 0.23586 0.0
H641 H 0.68503 0.74948 0.209 0.0
C642 C 0.64758 0.62953 0.10879 0.0
C643 C 0.65478 0.6095 0.09215 0.0
C644 C 0.67927 0.62107 0.10112 0.0
C645 C 0.69611 0.6511 0.12706 0.0
C646 C 0.68852 0.67005 0.14339 0.0
C647 C 0.66484 0.65991 0.13379 0.0
C648 C 0.66182 0.68558 0.15453 0.0
C649 C 0.64763 0.68732 1.07488 0.0
C650 C 0.65005 0.68323 0.23169 0.0
C651 C 0.68747 0.71159 0.17778 0.0
C652 C 0.70241 0.70174 0.17138 0.0
C653 C 0.72682 0.72085 0.19219 0.0
C654 C 0.73633 0.75065 0.22 0.0
C655 C 0.72182 0.76201 0.22652 0.0
C656 C 0.69681 0.74191 0.20422 0.0
H657 H 0.47596 0.95514 0.13723 0.0
H658 H 0.44225 0.98619 0.96941 0.0
H659 H 0.4099 0.96917 1.04703 0.0
H660 H 0.42354 0.89126 0.14976 0.0
H661 H 0.43337 0.8926 0.26146 0.0
H662 H 0.45459 0.90863 0.19596 0.0
H663 H 0.47641 0.95776 0.30603 0.0
H664 H 0.45523 0.94192 0.37199 0.0
H665 H 0.46032 0.97399 0.33503 0.0
H666 H 0.38137 0.94938 0.14388 0.0
H667 H 0.35663 0.92364 0.24274 0.0
H668 H 0.40807 0.9039 0.34513 0.0
C669 C 0.46204 0.95894 0.11799 0.0
C670 C 0.46171 0.97205 1.04706 0.0
C671 C 0.44283 0.97596 1.02283 0.0
C672 C 0.42449 0.96668 1.06723 0.0
C673 C 0.42536 0.95385 0.13669 0.0
C674 C 0.44357 0.94983 0.16175 0.0
C675 C 0.43952 0.93387 0.23531 0.0
C676 C 0.43764 0.90487 0.20902 0.0
C677 C 0.45903 0.95303 0.31694 0.0
C678 C 0.41601 0.92915 0.24679 0.0
C679 C 0.40836 0.94126 0.1901 0.0
C680 C 0.3871 0.9396 0.18805 0.0
C681 C 0.37306 0.92469 0.24417 0.0
C682 C 0.38012 0.91127 0.30134 0.0
C683 C 0.40213 0.914 0.303 0.0
H684 H 0.53801 0.08302 0.82857 0.0
H685 H 0.60006 0.16237 0.98285 0.0
H686 H 0.57769 0.1867 0.97524 0.0
H687 H 0.51972 0.11817 0.68497 0.0
H688 H 0.48866 0.09241 0.67447 0.0
H689 H 0.50937 0.08141 0.69473 0.0
H690 H 0.49396 0.06416 0.82995 0.0
H691 H 0.47328 0.07519 0.81021 0.0
H692 H 0.49387 0.08915 0.91295 0.0
H693 H 0.54631 0.20107 0.95897 0.0
H694 H 0.51224 0.20619 0.91913 0.0
H695 H 0.47206 0.11927 0.7605 0.0
C696 C 0.547 0.1056 0.86071 0.0
C697 C 0.57096 0.12065 0.90714 0.0
C698 C 0.5819 0.15027 0.94692 0.0
C699 C 0.56919 0.16422 0.94316 0.0
C700 C 0.54554 0.1486 0.89753 0.0
C701 C 0.53476 0.12003 0.8554 0.0
C702 C 0.50955 0.10829 0.80732 0.0
C703 C 0.50666 0.09955 0.70957 0.0
C704 C 0.49161 0.08268 0.8422 0.0
C705 C 0.50758 0.13455 0.82921 0.0
C706 C 0.52838 0.15744 0.88281 0.0
C707 C 0.53021 0.18335 0.91585 0.0
C708 C 0.51065 0.18607 0.89303 0.0
C709 C 0.48944 0.16341 0.83556 0.0
C710 C 0.48808 0.13729 0.80329 0.0
H711 H 0.9582 0.28102 0.92035 0.0
H712 H 1.00223 0.24541 0.93132 0.0
H713 H 0.03651 0.29321 1.01207 0.0
H714 H 1.00107 0.35051 0.88797 0.0
H715 H 0.99234 0.37035 0.95471 0.0
H716 H 0.9711 0.33308 0.90162 0.0
H717 H 0.96222 0.32021 1.04871 0.0
H718 H 0.98339 0.35748 0.10233 0.0
H719 H 0.98612 0.32898 0.1358 0.0
H720 H 0.06713 0.34687 0.08549 0.0
H721 H 0.09004 0.39933 0.15141 0.0
H722 H 0.02634 0.40054 0.09328 0.0
C723 C 0.975 0.28317 0.94041 0.0
C724 C 0.97733 0.25913 0.91909 0.0
C725 C 0.99979 0.26322 0.9466 0.0
C726 C 1.01947 0.29046 0.99247 0.0
C727 C 1.01665 0.31379 1.01111 0.0
C728 C 0.99488 0.31031 0.9865 0.0
C729 C 0.9966 0.3389 1.0139 0.0
C730 C 0.98988 0.34879 0.93484 0.0
C731 C 0.98116 0.33623 0.07906 0.0
C732 C 1.02274 0.35915 1.05659 0.0
C733 C 0.03402 0.34424 1.05441 0.0
C734 C 0.05831 0.35855 0.08812 0.0
C735 C 0.07124 0.3885 0.12598 0.0
C736 C 0.06019 0.40443 0.12891 0.0
C737 C 0.03549 0.38923 0.09328 0.0
H738 H 0.84453 0.60874 0.75845 0.0
H739 H 0.88903 0.67675 0.98726 0.0
H740 H 0.85444 0.66131 1.05182 0.0
H741 H 0.79358 0.61441 0.75416 0.0
H742 H 0.77241 0.57592 0.71908 0.0
H743 H 0.80068 0.59204 0.6902 0.0
H744 H 0.80847 0.55654 0.75867 0.0
H745 H 0.78022 0.54033 0.78781 0.0
H746 H 0.80672 0.55464 0.86951 0.0
H747 H 0.81515 0.63855 0.09313 0.0
H748 H 0.77399 0.61018 0.10816 0.0
H749 H 0.75389 0.55714 0.85204 0.0
C750 C 0.84702 0.62037 0.82218 0.0
C751 C 0.8697 0.64406 0.86753 0.0
C752 C 0.87201 0.65862 0.95079 0.0
C753 C 0.85239 0.64999 0.98824 0.0
C754 C 0.83038 0.62669 0.94196 0.0
C755 C 0.82752 0.61205 0.86072 0.0
C756 C 0.80179 0.58776 0.82503 0.0
C757 C 0.79151 0.59285 0.7422 0.0
C758 C 0.79915 0.55806 0.80934 0.0
C759 C 0.7907 0.59105 0.89891 0.0
C760 C 0.80757 0.61367 0.96561 0.0
C761 C 0.80177 0.62092 1.04098 0.0
C762 C 0.77817 0.60473 1.04857 0.0
C763 C 0.76033 0.58142 0.98114 0.0
C764 C 0.76692 0.5746 0.90529 0.0
H765 H 0.9823 0.64834 0.85237 0.0
H766 H 0.92971 0.6263 1.00646 0.0
H767 H 0.94687 0.6044 0.09262 0.0
H768 H 0.97906 0.58213 0.83851 0.0
H769 H 1.00988 0.59679 0.84149 0.0
H770 H 0.9961 0.61476 0.79965 0.0
H771 H 0.02712 0.66262 0.90908 0.0
H772 H 0.04136 0.64481 0.94843 0.0
H773 H 0.03239 0.66239 1.02219 0.0
H774 H 0.96571 0.57934 0.14801 0.0
H775 H 0.98893 0.55797 0.18563 0.0
H776 H 0.02936 0.59448 0.99407 0.0
C777 C 0.97506 0.63987 0.90646 0.0
C778 C 0.95505 0.63958 0.92462 0.0
C779 C 0.94528 0.62715 0.99299 0.0
C780 C 0.95483 0.61455 1.04179 0.0
C781 C 0.97396 0.61414 1.02041 0.0
C782 C 0.98419 0.6267 0.95503 0.0
C783 C 1.00328 0.6209 0.94074 0.0
C784 C 0.99668 0.60256 0.8497 0.0
C785 C 0.02745 0.64937 0.9561 0.0
C786 C 1.00245 0.60363 1.00949 0.0
C787 C 0.98515 0.59972 1.05356 0.0
C788 C 0.9798 0.58298 0.11595 0.0
C789 C 0.99315 0.57096 0.13696 0.0
C790 C 1.01139 0.57506 0.09444 0.0
C791 C 1.01581 0.59131 1.02875 0.0
H792 H 0.57677 0.40314 0.91163 0.0
H793 H 0.53436 0.42402 1.04804 0.0
H794 H 0.50272 0.37229 1.01592 0.0
H795 H 0.52818 0.3468 0.74112 0.0
H796 H 0.53945 0.32349 0.73358 0.0
H797 H 0.55953 0.36215 0.76999 0.0
H798 H 0.5773 0.35446 0.91003 0.0
H799 H 0.55728 0.31576 0.87394 0.0
H800 H 0.55812 0.33377 0.97703 0.0
H801 H 0.4744 0.31733 0.96644 0.0
H802 H 0.45233 0.26471 0.9028 0.0
H803 H 0.51164 0.27747 0.79522 0.0
C804 C 0.56094 0.39682 0.93558 0.0
C805 C 0.55846 0.41829 0.98328 0.0
C806 C 0.53709 0.40857 1.01178 0.0
C807 C 0.51883 0.37896 0.99375 0.0
C808 C 0.52169 0.35852 0.94628 0.0
C809 C 0.54222 0.36699 0.91744 0.0
C810 C 0.54033 0.3404 0.86569 0.0
C811 C 0.54197 0.3434 0.77203 0.0
C812 C 0.55939 0.33584 0.90927 0.0
C813 C 0.51563 0.31586 0.86979 0.0
C814 C 0.50525 0.32687 0.917 0.0
C815 C 0.48247 0.3086 0.92951 0.0
C816 C 0.46997 0.27854 0.89298 0.0
C817 C 0.47997 0.26645 0.84362 0.0
C818 C 0.50329 0.2857 0.83251 0.0
H819 H 0.84954 0.16021 0.73755 0.0
H820 H 0.8786 0.15171 0.98263 0.0
H821 H 0.8429 0.14204 1.03411 0.0
H822 H 0.82242 0.19632 0.82423 0.0
H823 H 0.7967 0.17798 0.73658 0.0
H824 H 0.82433 0.18381 0.71818 0.0
H825 H 0.80412 0.12875 0.65871 0.0
H826 H 0.77643 0.12275 0.677 0.0
H827 H 0.78838 0.10354 0.72403 0.0
H828 H 0.80357 0.13345 1.06021 0.0
H829 H 0.7647 0.12681 1.05878 0.0
H830 H 0.76057 0.1414 0.79766 0.0
C831 C 0.84842 0.15623 0.80204 0.0
C832 C 0.8672 0.15675 0.85577 0.0
C833 C 0.86472 0.15146 0.93976 0.0
C834 C 0.84439 0.14592 0.96972 0.0
C835 C 0.82633 0.14564 0.91537 0.0
C836 C 0.82814 0.15064 0.83315 0.0
C837 C 0.8062 0.1493 0.788 0.0
C838 C 0.81281 0.1786 0.76542 0.0
C839 C 0.793 0.12462 0.70713 0.0
C840 C 0.7918 0.14286 0.85756 0.0
C841 C 0.80378 0.14083 0.9305 0.0
C842 C 0.79417 0.13515 1.00336 0.0
C843 C 0.77197 0.1316 1.00209 0.0
C844 C 0.75916 0.13372 0.92854 0.0
C845 C 0.76946 0.13932 0.85508 0.0
H846 H 0.65846 0.03641 0.99913 0.0
H847 H 0.58501 0.96625 0.9074 0.0
H848 H 0.59473 0.93178 0.95295 0.0
H849 H 0.684 0.99392 0.93857 0.0
H850 H 0.70764 0.01152 1.03369 0.0
H851 H 0.69534 0.03086 0.9902 0.0
H852 H 0.68666 0.04142 0.13827 0.0
H853 H 0.69879 0.02198 0.18212 0.0
H854 H 0.66917 0.01168 0.18774 0.0
H855 H 0.61167 0.90468 1.01241 0.0
H856 H 0.63503 0.88652 0.07816 0.0
H857 H 0.69787 0.97352 0.13619 0.0
C858 C 0.64452 0.01372 0.98739 0.0
C859 C 0.62091 1.00414 0.94897 0.0
C860 C 0.60319 0.97427 0.93637 0.0
C861 C 0.60854 0.95442 0.96216 0.0
C862 C 0.63177 0.96454 1.00103 0.0
C863 C 0.64956 0.99343 1.01345 0.0
C864 C 0.67293 0.99846 1.05919 0.0
C865 C 0.69105 1.00933 1.00199 0.0
C866 C 0.68245 0.01964 0.14704 0.0
C867 C 0.66543 0.96794 1.0704 0.0
C868 C 0.64158 0.94879 1.03631 0.0
C869 C 0.63038 0.91951 1.03942 0.0
C870 C 0.64383 0.90941 0.07784 0.0
C871 C 0.66841 0.92841 0.11337 0.0
C872 C 0.67922 0.95819 0.10923 0.0
H873 H 0.23829 0.73451 0.4304 0.0
H874 H 0.18163 0.74996 0.4283 0.0
H875 H 0.15242 0.69777 0.37326 0.0
H876 H 0.21032 0.67717 0.23716 0.0
H877 H 0.22042 0.65545 0.27868 0.0
H878 H 0.23746 0.69424 0.31763 0.0
H879 H 0.23592 0.68734 0.4744 0.0
H880 H 0.21896 0.64853 0.43596 0.0
H881 H 0.20773 0.66539 0.50129 0.0
H882 H 0.12886 0.64432 0.31213 0.0
H883 H 0.11206 0.59239 0.26152 0.0
H884 H 0.18249 0.60764 0.3085 0.0
C885 C 0.21973 0.72689 0.41866 0.0
C886 C 0.21248 0.74688 0.43422 0.0
C887 C 0.18791 0.73558 0.4179 0.0
C888 C 0.17106 0.70577 0.38602 0.0
C889 C 0.1787 0.68682 0.37107 0.0
C890 C 0.20243 0.69674 0.3878 0.0
C891 C 0.20551 0.67113 0.36776 0.0
C892 C 0.21925 0.67472 0.29605 0.0
C893 C 0.21776 0.66791 0.44974 0.0
C894 C 0.17986 0.64542 0.33664 0.0
C895 C 0.16485 0.65532 0.33852 0.0
C896 C 0.14048 0.63638 0.31107 0.0
C897 C 0.13107 0.60665 0.28182 0.0
C898 C 0.1457 0.59526 0.28039 0.0
C899 C 0.17063 0.61524 0.30861 0.0
H900 H 0.46955 0.47998 0.24074 0.0
H901 H 0.48494 0.41288 0.19606 0.0
H902 H 0.4547 0.38324 0.27382 0.0
H903 H 0.46035 0.47272 0.4558 0.0
H904 H 0.43664 0.479 0.44359 0.0
H905 H 0.4592 0.49487 0.38293 0.0
H906 H 0.42719 0.47064 0.24049 0.0
H907 H 0.40453 0.45472 0.30072 0.0
H908 H 0.40642 0.43193 0.21604 0.0
H909 H 0.42252 0.36047 0.35419 0.0
H910 H 0.39145 0.34678 0.43729 0.0
H911 H 0.3971 0.4288 0.43398 0.0
C912 C 0.46642 0.45896 0.24692 0.0
C913 C 0.47967 0.44877 0.21238 0.0
C914 C 0.47523 0.42129 0.22272 0.0
C915 C 0.45799 0.40422 0.26642 0.0
C916 C 0.44535 0.41493 0.29997 0.0
C917 C 0.44938 0.4417 0.29122 0.0
C918 C 0.43357 0.44825 0.33506 0.0
C919 C 0.44833 0.47531 0.40872 0.0
C920 C 0.41695 0.45157 0.26913 0.0
C921 C 0.42003 0.42096 0.36967 0.0
C922 C 0.42702 0.40198 0.34806 0.0
C923 C 0.4169 0.37516 0.37149 0.0
C924 C 0.39917 0.36751 0.41832 0.0
C925 C 0.39178 0.38665 0.44195 0.0
C926 C 0.40249 0.4138 0.41738 0.0
H927 H 0.93195 0.75321 0.62146 0.0
H928 H 0.8755 0.66322 0.58895 0.0
H929 H 0.8474 0.67341 0.51138 0.0
H930 H 0.89884 0.78296 0.66781 0.0
H931 H 0.91247 0.81209 0.61169 0.0
H932 H 0.92866 0.79714 0.65543 0.0
H933 H 0.93602 0.78615 0.50475 0.0
H934 H 0.92009 0.80142 0.46065 0.0
H935 H 0.91129 0.765 0.41373 0.0
H936 H 0.82488 0.69452 0.44706 0.0
H937 H 0.81 0.72438 0.39918 0.0
H938 H 0.88122 0.80071 0.47554 0.0
C939 C 0.91379 0.73548 0.59625 0.0
C940 C 0.90593 0.70733 0.61064 0.0
C941 C 0.88193 0.68488 0.57805 0.0
C942 C 0.86584 0.69049 0.53409 0.0
C943 C 0.87403 0.71868 0.52319 0.0
C944 C 0.89749 0.74076 0.55288 0.0
C945 C 0.90155 0.76951 0.53747 0.0
C946 C 0.91093 0.79172 0.62321 0.0
C947 C 0.91822 0.7812 0.47544 0.0
C948 C 0.87666 0.76029 0.4958 0.0
C949 C 0.86106 0.73086 0.48746 0.0
C950 C 0.83701 0.71753 0.45254 0.0
C951 C 0.82872 0.73469 0.42526 0.0
C952 C 0.84438 0.76496 0.4334 0.0
C953 C 0.86869 0.77774 0.46912 0.0
H954 H 0.35098 0.0797 0.70732 0.0
H955 H 0.41681 0.08892 0.67503 0.0
H956 H 0.39564 0.03601 0.61856 0.0
H957 H 0.32798 0.01166 0.78056 0.0
H958 H 0.29775 0.99664 0.72717 0.0
H959 H 0.31775 0.03538 0.76182 0.0
H960 H 0.30848 0.04143 0.60635 0.0
H961 H 0.2885 1.0027 0.57109 0.0
H962 H 0.31244 0.02192 0.5185 0.0
H963 H 0.36716 0.98174 0.5625 0.0
H964 H 0.33486 0.93045 0.52198 0.0
H965 H 0.28635 0.95361 0.59623 0.0
C966 C 0.36093 0.07061 0.68782 0.0
C967 C 0.3857 0.08903 0.69353 0.0
C968 C 0.3979 0.07581 0.66916 0.0
C969 C 0.38596 0.04557 0.63733 0.0
C970 C 0.36161 0.0282 0.63117 0.0
C971 C 0.34922 0.04016 0.65668 0.0
C972 C 0.32321 0.01623 0.6463 0.0
C973 C 0.31626 0.0149 0.73419 0.0
C974 C 0.30721 0.02085 0.58172 0.0
C975 C 0.32285 0.98897 0.61042 0.0
C976 C 0.34527 0.99661 0.60187 0.0
C977 C 0.34962 0.97565 0.56949 0.0
C978 C 0.33092 0.94629 0.54625 0.0
C979 C 0.30766 0.9373 0.55532 0.0
C980 C 0.30371 0.95932 0.58789 0.0
H981 H 1.01442 0.19065 0.79898 0.0
H982 H 0.98393 0.1981 0.55486 0.0
H983 H 1.0191 0.20716 0.49997 0.0
H984 H 0.0751 0.24698 0.80652 0.0
H985 H 0.08738 0.22817 0.85405 0.0
H986 H 0.0599 0.22242 0.87419 0.0
H987 H 0.03961 0.16719 0.81795 0.0
H988 H 0.067 0.17274 0.79748 0.0
H989 H 0.04085 0.15389 0.71162 0.0
H990 H 0.05736 0.21327 0.46913 0.0
H991 H 0.09611 0.21981 0.46803 0.0
H992 H 0.10266 0.20914 0.73298 0.0
C993 C 1.01507 0.19414 0.73386 0.0
C994 C 0.99605 0.19338 0.68121 0.0
C995 C 0.99795 0.19828 0.59657 0.0
C996 C 1.01796 0.20347 0.56472 0.0
C997 C 0.0362 0.20375 0.61792 0.0
C998 C 0.03498 0.19935 0.70095 0.0
C999 C 0.0571 0.20096 0.74512 0.0
C1000 C 0.07067 0.22613 0.82469 0.0
C1001 C 0.05075 0.17197 0.76947 0.0
C1002 C 0.07094 0.20679 0.67401 0.0
C1003 C 0.05851 0.20826 0.60116 0.0
C1004 C 0.06743 0.2129 0.52665 0.0
C1005 C 0.08963 0.21662 0.52677 0.0
C1006 C 0.103 0.21543 0.60061 0.0
C1007 C 0.09318 0.21022 0.67509 0.0
H1008 H 0.39051 0.22968 0.63982 0.0
H1009 H 0.35613 0.16582 0.79267 0.0
H1010 H 0.32184 0.17099 0.76906 0.0
H1011 H 0.37152 0.27648 0.72481 0.0
H1012 H 0.36765 0.28723 0.62469 0.0
H1013 H 0.38883 0.27709 0.6476 0.0
H1014 H 0.36864 0.23847 0.50479 0.0
H1015 H 0.34735 0.24845 0.48172 0.0
H1016 H 0.33751 0.21132 0.48428 0.0
H1017 H 0.2903 0.1825 0.72703 0.0
H1018 H 0.26665 0.20325 0.68497 0.0
H1019 H 0.32196 0.26325 0.56951 0.0
C1020 C 0.37563 0.21656 0.66741 0.0
C1021 C 0.37604 0.19687 0.7173 0.0
C1022 C 0.35634 0.18081 0.75388 0.0
C1023 C 0.33666 0.18359 0.74057 0.0
C1024 C 0.33675 0.20309 0.69161 0.0
C1025 C 0.35589 0.2197 0.65663 0.0
C1026 C 0.352 0.24049 0.6117 0.0
C1027 C 0.37114 0.2722 0.65477 0.0
C1028 C 0.35134 0.23431 0.51486 0.0
C1029 C 0.32775 0.23288 0.62652 0.0
C1030 C 0.31915 0.2109 0.67165 0.0
C1031 C 0.29701 0.19981 0.69197 0.0
C1032 C 0.28352 0.21168 0.66722 0.0
C1033 C 0.29209 0.23492 0.62335 0.0
C1034 C 0.31463 0.24545 0.60261 0.0
H1035 H 0.79761 0.96148 0.46736 0.0
H1036 H 0.84549 0.94925 0.33972 0.0
H1037 H 0.87694 1.00033 0.39891 0.0
H1038 H 0.82073 0.03743 0.44445 0.0
H1039 H 0.8182 0.04912 0.55028 0.0
H1040 H 0.79827 0.01193 0.49313 0.0
H1041 H 0.81031 0.99447 0.62234 0.0
H1042 H 0.83019 0.03157 0.67989 0.0
H1043 H 0.84106 1.00808 0.66239 0.0
H1044 H 0.90426 0.05149 0.4763 0.0
H1045 H 0.92658 0.09979 0.57294 0.0
H1046 H 0.86313 0.08243 0.6571 0.0
C1047 C 0.8146 0.96974 0.45081 0.0
C1048 C 0.81882 0.95098 0.39769 0.0
C1049 C 0.84158 0.96278 0.37969 0.0
C1050 C 0.85966 0.99198 0.41298 0.0
C1051 C 0.85513 1.00971 0.46547 0.0
C1052 C 0.83325 0.9992 0.48494 0.0
C1053 C 0.83396 0.02305 0.54763 0.0
C1054 C 0.81676 0.03084 0.5064 0.0
C1055 C 0.82856 0.01373 0.63313 0.0
C1056 C 0.85964 0.04831 0.56056 0.0
C1057 C 0.87129 0.03988 0.51154 0.0
C1058 C 0.89524 0.0584 0.5142 0.0
C1059 C 0.90781 0.08596 0.56931 0.0
C1060 C 0.89672 0.09542 0.62162 0.0
C1061 C 0.87207 0.07632 0.61621 0.0
H1062 H 1.01992 0.74866 0.76438 0.0
H1063 H 0.98906 0.65987 0.63253 0.0
H1064 H 0.02723 0.67271 0.59637 0.0
H1065 H 0.05369 0.78275 0.62016 0.0
H1066 H 0.07911 0.81153 0.6991 0.0
H1067 H 0.0504 0.7946 0.72411 0.0
H1068 H 0.06594 0.7826 0.85927 0.0
H1069 H 0.0948 0.79969 0.83485 0.0
H1070 H 0.08017 0.76274 0.84852 0.0
H1071 H 0.06779 0.69615 0.56461 0.0
H1072 H 0.10685 0.72817 0.5342 0.0
H1073 H 0.11208 0.80264 0.68587 0.0
C1074 C 1.02132 0.73189 0.72869 0.0
C1075 C 1.00133 0.70318 0.69951 0.0
C1076 C 1.00392 0.68196 0.65323 0.0
C1077 C 0.02569 0.68904 0.634 0.0
C1078 C 0.04498 0.71757 0.6625 0.0
C1079 C 0.04302 0.73873 0.70879 0.0
C1080 C 0.06597 0.76823 0.72582 0.0
C1081 C 0.06204 0.79056 0.69009 0.0
C1082 C 0.0774 0.77894 0.82288 0.0
C1083 C 0.0805 0.76074 0.67637 0.0
C1084 C 0.06833 0.73124 0.64286 0.0
C1085 C 0.07769 0.71918 0.59224 0.0
C1086 C 0.09998 0.73763 0.5753 0.0
C1087 C 0.11283 0.76804 0.60793 0.0
C1088 C 0.10282 0.77956 0.65964 0.0
loop_
_geom_bond_atom_site_label_1
_geom_bond_atom_site_label_2
_geom_bond_distance
_geom_bond_site_symmetry_2
_ccdc_geom_bond_type
Gd0 C3 2.818 . S
Gd0 O20 2.377 . S
Gd0 O22 2.448 . S
Gd0 O23 2.506 . S
Gd0 O24 2.435 1_554 S
Gd0 O25 2.717 1_554 S
Gd0 O27 2.395 . S
Gd0 O31 2.327 . S
Gd1 C12 2.818 1_455 S
Gd1 O21 2.395 . S
Gd1 O25 2.327 1_554 S
Gd1 O26 2.377 . S
Gd1 O28 2.448 1_455 S
Gd1 O29 2.506 1_554 S
Gd1 O30 2.435 . S
Gd1 O31 2.717 . S
C2 O20 1.240 . S
C2 O21 1.240 . S
C3 Gd0 2.818 . S
C3 C4 1.510 . S
C3 O22 1.249 . S
C3 O23 1.252 . S
C4 C3 1.510 . S
C4 C5 1.404 . S
C4 C6 1.352 . S
C5 C4 1.404 . S
C5 C9 1.389 . S
C5 H32 0.930 . S
C6 C4 1.352 . S
C6 C8 1.374 . S
C6 H33 0.931 . S
C7 C8 1.359 . S
C7 C9 1.364 . S
C8 C6 1.374 . S
C8 C7 1.359 . S
C8 H34 0.931 . S
C9 C5 1.389 . S
C9 C7 1.364 . S
C9 H35 0.931 . S
C10 O24 1.256 . S
C10 O25 1.257 . S
C11 O26 1.240 . S
C11 O27 1.240 . S
C12 Gd1 2.818 1_655 S
C12 C13 1.510 . S
C12 O28 1.249 . S
C12 O29 1.252 1_654 S
C13 C12 1.510 . S
C13 C14 1.404 . S
C13 C15 1.351 1_554 S
C14 C13 1.404 . S
C14 C18 1.389 . S
C14 H36 0.930 . S
C15 C13 1.351 1_556 S
C15 C17 1.371 . S
C15 H37 0.934 1_655 S
C16 C17 1.359 . S
C16 C18 1.364 1_556 S
C17 C15 1.371 . S
C17 C16 1.359 . S
C17 H38 0.941 . S
C18 C14 1.389 . S
C18 C16 1.364 1_554 S
C18 H39 0.931 . S
C19 O30 1.256 . S
C19 O31 1.257 . S
O20 Gd0 2.377 . S
O20 C2 1.240 . S
O21 Gd1 2.395 . S
O21 C2 1.240 . S
O22 Gd0 2.448 . S
O22 C3 1.249 . S
O23 Gd0 2.506 . S
O23 C3 1.252 . S
O24 Gd0 2.435 1_556 S
O24 C10 1.256 . S
O25 Gd0 2.717 1_556 S
O25 Gd1 2.327 1_556 S
O25 C10 1.257 . S
O26 Gd1 2.377 . S
O26 C11 1.240 . S
O27 Gd0 2.395 . S
O27 C11 1.240 . S
O28 Gd1 2.448 1_655 S
O28 C12 1.249 . S
O29 Gd1 2.506 1_556 S
O29 C12 1.252 1_456 S
O30 Gd1 2.435 . S
O30 C19 1.256 . S
O31 Gd0 2.327 . S
O31 Gd1 2.717 . S
O31 C19 1.257 . S
H32 C5 0.930 . S
H33 C6 0.931 . S
H34 C8 0.931 . S
H35 C9 0.931 . S
H36 C14 0.930 . S
H37 C15 0.934 1_455 S
H38 C17 0.941 . S
H39 C18 0.931 . S
Gd40 C43 2.818 . S
Gd40 O60 2.377 . S
Gd40 O62 2.448 . S
Gd40 O63 2.506 . S
Gd40 O64 2.435 . S
Gd40 O65 2.717 . S
Gd40 O67 2.395 . S
Gd40 O71 2.327 . S
Gd41 C52 2.818 . S
Gd41 O61 2.395 . S
Gd41 O65 2.327 . S
Gd41 O66 2.377 . S
Gd41 O68 2.448 . S
Gd41 O69 2.506 . S
Gd41 O70 2.435 1_554 S
Gd41 O71 2.717 . S
C42 O60 1.240 . S
C42 O61 1.240 . S
C43 Gd40 2.818 . S
C43 C44 1.510 . S
C43 O62 1.249 . S
C43 O63 1.252 . S
C44 C43 1.510 . S
C44 C45 1.404 . S
C44 C46 1.352 . S
C45 C44 1.404 . S
C45 C49 1.389 . S
C45 H72 0.930 . S
C46 C44 1.352 . S
C46 C48 1.374 . S
C46 H73 0.931 . S
C47 C48 1.359 . S
C47 C49 1.364 . S
C48 C46 1.374 . S
C48 C47 1.359 . S
C48 H74 0.931 . S
C49 C45 1.389 . S
C49 C47 1.364 . S
C49 H75 0.931 . S
C50 O64 1.256 . S
C50 O65 1.257 . S
C51 O66 1.240 . S
C51 O67 1.240 . S
C52 Gd41 2.818 . S
C52 C53 1.510 . S
C52 O68 1.249 . S
C52 O69 1.252 . S
C53 C52 1.510 . S
C53 C54 1.404 . S
C53 C55 1.352 . S
C54 C53 1.404 . S
C54 C58 1.389 . S
C54 H76 0.930 . S
C55 C53 1.352 . S
C55 C57 1.374 . S
C55 H77 0.931 . S
C56 C57 1.359 . S
C56 C58 1.364 . S
C57 C55 1.374 . S
C57 C56 1.359 . S
C57 H78 0.931 . S
C58 C54 1.389 . S
C58 C56 1.364 . S
C58 H79 0.931 . S
C59 O70 1.256 . S
C59 O71 1.257 1_556 S
O60 Gd40 2.377 . S
O60 C42 1.240 . S
O61 Gd41 2.395 . S
O61 C42 1.240 . S
O62 Gd40 2.448 . S
O62 C43 1.249 . S
O63 Gd40 2.506 . S
O63 C43 1.252 . S
O64 Gd40 2.435 . S
O64 C50 1.256 . S
O65 Gd40 2.717 . S
O65 Gd41 2.327 . S
O65 C50 1.257 . S
O66 Gd41 2.377 . S
O66 C51 1.240 . S
O67 Gd40 2.395 . S
O67 C51 1.240 . S
O68 Gd41 2.448 . S
O68 C52 1.249 . S
O69 Gd41 2.506 . S
O69 C52 1.252 . S
O70 Gd41 2.435 1_556 S
O70 C59 1.256 . S
O71 Gd40 2.327 . S
O71 Gd41 2.717 . S
O71 C59 1.257 1_554 S
H72 C45 0.930 . S
H73 C46 0.931 . S
H74 C48 0.931 . S
H75 C49 0.931 . S
H76 C54 0.930 . S
H77 C55 0.931 . S
H78 C57 0.931 . S
H79 C58 0.931 . S
Gd80 C83 2.818 . S
Gd80 O100 2.377 . S
Gd80 O102 2.448 . S
Gd80 O103 2.506 . S
Gd80 O104 2.435 . S
Gd80 O105 2.717 . S
Gd80 O107 2.395 . S
Gd80 O111 2.327 . S
Gd81 C92 2.818 . S
Gd81 O101 2.395 . S
Gd81 O105 2.327 . S
Gd81 O106 2.377 . S
Gd81 O108 2.448 . S
Gd81 O109 2.506 . S
Gd81 O110 2.435 . S
Gd81 O111 2.717 . S
C82 O100 1.240 . S
C82 O101 1.240 . S
C83 Gd80 2.818 . S
C83 C84 1.510 . S
C83 O102 1.249 . S
C83 O103 1.252 . S
C84 C83 1.510 . S
C84 C85 1.404 . S
C84 C86 1.352 . S
C85 C84 1.404 . S
C85 C89 1.389 . S
C85 H112 0.930 . S
C86 C84 1.352 . S
C86 C88 1.374 . S
C86 H113 0.931 . S
C87 C88 1.359 . S
C87 C89 1.364 . S
C88 C86 1.374 . S
C88 C87 1.359 . S
C88 H114 0.931 . S
C89 C85 1.389 . S
C89 C87 1.364 . S
C89 H115 0.931 . S
C90 O104 1.256 . S
C90 O105 1.257 . S
C91 O106 1.240 . S
C91 O107 1.240 . S
C92 Gd81 2.818 . S
C92 C93 1.510 . S
C92 O108 1.249 . S
C92 O109 1.252 . S
C93 C92 1.510 . S
C93 C94 1.404 . S
C93 C95 1.352 . S
C94 C93 1.404 . S
C94 C98 1.389 . S
C94 H116 0.930 . S
C95 C93 1.352 . S
C95 C97 1.374 . S
C95 H117 0.931 . S
C96 C97 1.359 . S
C96 C98 1.364 . S
C97 C95 1.374 . S
C97 C96 1.359 . S
C97 H118 0.931 . S
C98 C94 1.389 . S
C98 C96 1.364 . S
C98 H119 0.931 . S
C99 O110 1.256 . S
C99 O111 1.257 . S
O100 Gd80 2.377 . S
O100 C82 1.240 . S
O101 Gd81 2.395 . S
O101 C82 1.240 . S
O102 Gd80 2.448 . S
O102 C83 1.249 . S
O103 Gd80 2.506 . S
O103 C83 1.252 . S
O104 Gd80 2.435 . S
O104 C90 1.256 . S
O105 Gd80 2.717 . S
O105 Gd81 2.327 . S
O105 C90 1.257 . S
O106 Gd81 2.377 . S
O106 C91 1.240 . S
O107 Gd80 2.395 . S
O107 C91 1.240 . S
O108 Gd81 2.448 . S
O108 C92 1.249 . S
O109 Gd81 2.506 . S
O109 C92 1.252 . S
O110 Gd81 2.435 . S
O110 C99 1.256 . S
O111 Gd80 2.327 . S
O111 Gd81 2.717 . S
O111 C99 1.257 . S
H112 C85 0.930 . S
H113 C86 0.931 . S
H114 C88 0.931 . S
H115 C89 0.931 . S
H116 C94 0.930 . S
H117 C95 0.931 . S
H118 C97 0.931 . S
H119 C98 0.931 . S
Gd120 C123 2.818 . S
Gd120 O140 2.377 . S
Gd120 O142 2.448 . S
Gd120 O143 2.506 . S
Gd120 O144 2.435 . S
Gd120 O145 2.717 . S
Gd120 O147 2.395 . S
Gd120 O151 2.327 . S
Gd121 C132 2.818 . S
Gd121 O141 2.395 . S
Gd121 O145 2.327 . S
Gd121 O146 2.377 . S
Gd121 O148 2.448 . S
Gd121 O149 2.506 . S
Gd121 O150 2.435 . S
Gd121 O151 2.717 . S
C122 O140 1.240 . S
C122 O141 1.240 . S
C123 Gd120 2.818 . S
C123 C124 1.510 . S
C123 O142 1.249 . S
C123 O143 1.252 . S
C124 C123 1.510 . S
C124 C125 1.404 . S
C124 C126 1.352 . S
C125 C124 1.404 . S
C125 C129 1.389 . S
C125 H152 0.930 . S
C126 C124 1.352 . S
C126 C128 1.374 . S
C126 H153 0.931 . S
C127 C128 1.359 . S
C127 C129 1.364 . S
C128 C126 1.374 . S
C128 C127 1.359 . S
C128 H154 0.931 . S
C129 C125 1.389 . S
C129 C127 1.364 . S
C129 H155 0.931 . S
C130 O144 1.256 . S
C130 O145 1.257 . S
C131 O146 1.240 . S
C131 O147 1.240 . S
C132 Gd121 2.818 . S
C132 C133 1.510 . S
C132 O148 1.249 . S
C132 O149 1.252 . S
C133 C132 1.510 . S
C133 C134 1.404 . S
C133 C135 1.352 . S
C134 C133 1.404 . S
C134 C138 1.389 . S
C134 H156 0.930 . S
C135 C133 1.352 . S
C135 C137 1.374 . S
C135 H157 0.931 . S
C136 C137 1.359 . S
C136 C138 1.364 . S
C137 C135 1.374 . S
C137 C136 1.359 . S
C137 H158 0.931 . S
C138 C134 1.389 . S
C138 C136 1.364 . S
C138 H159 0.931 . S
C139 O150 1.256 . S
C139 O151 1.257 . S
O140 Gd120 2.377 . S
O140 C122 1.240 . S
O141 Gd121 2.395 . S
O141 C122 1.240 . S
O142 Gd120 2.448 . S
O142 C123 1.249 . S
O143 Gd120 2.506 . S
O143 C123 1.252 . S
O144 Gd120 2.435 . S
O144 C130 1.256 . S
O145 Gd120 2.717 . S
O145 Gd121 2.327 . S
O145 C130 1.257 . S
O146 Gd121 2.377 . S
O146 C131 1.240 . S
O147 Gd120 2.395 . S
O147 C131 1.240 . S
O148 Gd121 2.448 . S
O148 C132 1.249 . S
O149 Gd121 2.506 . S
O149 C132 1.252 . S
O150 Gd121 2.435 . S
O150 C139 1.256 . S
O151 Gd120 2.327 . S
O151 Gd121 2.717 . S
O151 C139 1.257 . S
H152 C125 0.930 . S
H153 C126 0.931 . S
H154 C128 0.931 . S
H155 C129 0.931 . S
H156 C134 0.930 . S
H157 C135 0.931 . S
H158 C137 0.931 . S
H159 C138 0.931 . S
Gd160 C163 2.818 . S
Gd160 O180 2.377 . S
Gd160 O182 2.448 . S
Gd160 O183 2.506 . S
Gd160 O184 2.435 . S
Gd160 O185 2.717 . S
Gd160 O187 2.395 . S
Gd160 O191 2.327 . S
Gd161 C172 2.818 . S
Gd161 O181 2.395 . S
Gd161 O185 2.327 . S
Gd161 O186 2.377 . S
Gd161 O188 2.448 . S
Gd161 O189 2.506 . S
Gd161 O190 2.435 . S
Gd161 O191 2.717 . S
C162 O180 1.240 . S
C162 O181 1.240 . S
C163 Gd160 2.818 . S
C163 C164 1.510 . S
C163 O182 1.249 . S
C163 O183 1.252 . S
C164 C163 1.510 . S
C164 C165 1.404 . S
C164 C166 1.352 . S
C165 C164 1.404 . S
C165 C169 1.389 . S
C165 H192 0.930 . S
C166 C164 1.352 . S
C166 C168 1.374 . S
C166 H193 0.931 . S
C167 C168 1.359 . S
C167 C169 1.364 . S
C168 C166 1.374 . S
C168 C167 1.359 . S
C168 H194 0.931 . S
C169 C165 1.389 . S
C169 C167 1.364 . S
C169 H195 0.931 . S
C170 O184 1.256 . S
C170 O185 1.257 . S
C171 O186 1.240 . S
C171 O187 1.240 . S
C172 Gd161 2.818 . S
C172 C173 1.510 . S
C172 O188 1.249 . S
C172 O189 1.252 . S
C173 C172 1.510 . S
C173 C174 1.404 . S
C173 C175 1.352 . S
C174 C173 1.404 . S
C174 C178 1.389 . S
C174 H196 0.930 . S
C175 C173 1.352 . S
C175 C177 1.374 . S
C175 H197 0.931 . S
C176 C177 1.359 . S
C176 C178 1.364 . S
C177 C175 1.374 . S
C177 C176 1.359 . S
C177 H198 0.931 . S
C178 C174 1.389 . S
C178 C176 1.364 . S
C178 H199 0.931 . S
C179 O190 1.256 . S
C179 O191 1.257 . S
O180 Gd160 2.377 . S
O180 C162 1.240 . S
O181 Gd161 2.395 . S
O181 C162 1.240 . S
O182 Gd160 2.448 . S
O182 C163 1.249 . S
O183 Gd160 2.506 . S
O183 C163 1.252 . S
O184 Gd160 2.435 . S
O184 C170 1.256 . S
O185 Gd160 2.717 . S
O185 Gd161 2.327 . S
O185 C170 1.257 . S
O186 Gd161 2.377 . S
O186 C171 1.240 . S
O187 Gd160 2.395 . S
O187 C171 1.240 . S
O188 Gd161 2.448 . S
O188 C172 1.249 . S
O189 Gd161 2.506 . S
O189 C172 1.252 . S
O190 Gd161 2.435 . S
O190 C179 1.256 . S
O191 Gd160 2.327 . S
O191 Gd161 2.717 . S
O191 C179 1.257 . S
H192 C165 0.930 . S
H193 C166 0.931 . S
H194 C168 0.931 . S
H195 C169 0.931 . S
H196 C174 0.930 . S
H197 C175 0.931 . S
H198 C177 0.931 . S
H199 C178 0.931 . S
Gd200 C203 2.818 . S
Gd200 O220 2.377 . S
Gd200 O222 2.448 . S
Gd200 O223 2.506 . S
Gd200 O224 2.435 . S
Gd200 O225 2.717 . S
Gd200 O227 2.395 . S
Gd200 O231 2.327 . S
Gd201 C212 2.818 . S
Gd201 O221 2.395 . S
Gd201 O225 2.327 . S
Gd201 O226 2.377 . S
Gd201 O228 2.448 . S
Gd201 O229 2.506 . S
Gd201 O230 2.435 . S
Gd201 O231 2.717 . S
C202 O220 1.240 . S
C202 O221 1.240 . S
C203 Gd200 2.818 . S
C203 C204 1.510 . S
C203 O222 1.249 . S
C203 O223 1.252 . S
C204 C203 1.510 . S
C204 C205 1.404 . S
C204 C206 1.352 . S
C205 C204 1.404 . S
C205 C209 1.389 . S
C205 H232 0.930 . S
C206 C204 1.352 . S
C206 C208 1.374 . S
C206 H233 0.931 . S
C207 C208 1.359 . S
C207 C209 1.364 . S
C208 C206 1.374 . S
C208 C207 1.359 . S
C208 H234 0.931 . S
C209 C205 1.389 . S
C209 C207 1.364 . S
C209 H235 0.931 . S
C210 O224 1.256 . S
C210 O225 1.257 . S
C211 O226 1.240 . S
C211 O227 1.240 . S
C212 Gd201 2.818 . S
C212 C213 1.510 . S
C212 O228 1.249 . S
C212 O229 1.252 . S
C213 C212 1.510 . S
C213 C214 1.404 . S
C213 C215 1.352 . S
C214 C213 1.404 . S
C214 C218 1.389 . S
C214 H236 0.930 . S
C215 C213 1.352 . S
C215 C217 1.374 . S
C215 H237 0.931 . S
C216 C217 1.359 . S
C216 C218 1.364 . S
C217 C215 1.374 . S
C217 C216 1.359 . S
C217 H238 0.931 . S
C218 C214 1.389 . S
C218 C216 1.364 . S
C218 H239 0.931 . S
C219 O230 1.256 . S
C219 O231 1.257 . S
O220 Gd200 2.377 . S
O220 C202 1.240 . S
O221 Gd201 2.395 . S
O221 C202 1.240 . S
O222 Gd200 2.448 . S
O222 C203 1.249 . S
O223 Gd200 2.506 . S
O223 C203 1.252 . S
O224 Gd200 2.435 . S
O224 C210 1.256 . S
O225 Gd200 2.717 . S
O225 Gd201 2.327 . S
O225 C210 1.257 . S
O226 Gd201 2.377 . S
O226 C211 1.240 . S
O227 Gd200 2.395 . S
O227 C211 1.240 . S
O228 Gd201 2.448 . S
O228 C212 1.249 . S
O229 Gd201 2.506 . S
O229 C212 1.252 . S
O230 Gd201 2.435 . S
O230 C219 1.256 . S
O231 Gd200 2.327 . S
O231 Gd201 2.717 . S
O231 C219 1.257 . S
H232 C205 0.930 . S
H233 C206 0.931 . S
H234 C208 0.931 . S
H235 C209 0.931 . S
H236 C214 0.930 . S
H237 C215 0.931 . S
H238 C217 0.931 . S
H239 C218 0.931 . S
Gd240 C243 2.818 . S
Gd240 O260 2.377 . S
Gd240 O262 2.448 . S
Gd240 O263 2.506 . S
Gd240 O264 2.435 . S
Gd240 O265 2.717 . S
Gd240 O267 2.395 . S
Gd240 O271 2.327 . S
Gd241 C252 2.818 . S
Gd241 O261 2.395 . S
Gd241 O265 2.327 . S
Gd241 O266 2.377 . S
Gd241 O268 2.448 . S
Gd241 O269 2.506 . S
Gd241 O270 2.435 . S
Gd241 O271 2.717 . S
C242 O260 1.240 . S
C242 O261 1.240 . S
C243 Gd240 2.818 . S
C243 C244 1.510 . S
C243 O262 1.249 . S
C243 O263 1.252 . S
C244 C243 1.510 . S
C244 C245 1.404 . S
C244 C246 1.352 . S
C245 C244 1.404 . S
C245 C249 1.389 . S
C245 H272 0.930 . S
C246 C244 1.352 . S
C246 C248 1.374 . S
C246 H273 0.931 . S
C247 C248 1.359 . S
C247 C249 1.364 . S
C248 C246 1.374 . S
C248 C247 1.359 . S
C248 H274 0.931 . S
C249 C245 1.389 . S
C249 C247 1.364 . S
C249 H275 0.931 . S
C250 O264 1.256 . S
C250 O265 1.257 . S
C251 O266 1.240 . S
C251 O267 1.240 . S
C252 Gd241 2.818 . S
C252 C253 1.515 . S
C252 O268 1.249 . S
C252 O269 1.252 . S
C253 C252 1.515 . S
C253 C254 1.402 1_556 S
C253 C255 1.350 1_556 S
C254 C253 1.402 1_554 S
C254 C258 1.389 . S
C254 H276 0.930 1_554 S
C255 C253 1.350 1_554 S
C255 C257 1.374 . S
C255 H277 0.931 . S
C256 C257 1.359 . S
C256 C258 1.364 . S
C257 C255 1.374 . S
C257 C256 1.359 . S
C257 H278 0.931 . S
C258 C254 1.389 . S
C258 C256 1.364 . S
C258 H279 0.931 . S
C259 O270 1.256 . S
C259 O271 1.257 . S
O260 Gd240 2.377 . S
O260 C242 1.240 . S
O261 Gd241 2.395 . S
O261 C242 1.240 . S
O262 Gd240 2.448 . S
O262 C243 1.249 . S
O263 Gd240 2.506 . S
O263 C243 1.252 . S
O264 Gd240 2.435 . S
O264 C250 1.256 . S
O265 Gd240 2.717 . S
O265 Gd241 2.327 . S
O265 C250 1.257 . S
O266 Gd241 2.377 . S
O266 C251 1.240 . S
O267 Gd240 2.395 . S
O267 C251 1.240 . S
O268 Gd241 2.448 . S
O268 C252 1.249 . S
O269 Gd241 2.506 . S
O269 C252 1.252 . S
O270 Gd241 2.435 . S
O270 C259 1.256 . S
O271 Gd240 2.327 . S
O271 Gd241 2.717 . S
O271 C259 1.257 . S
H272 C245 0.930 . S
H273 C246 0.931 . S
H274 C248 0.931 . S
H275 C249 0.931 . S
H276 C254 0.930 1_556 S
H277 C255 0.931 . S
H278 C257 0.931 . S
H279 C258 0.931 . S
Gd280 C283 2.818 . S
Gd280 O300 2.377 . S
Gd280 O302 2.448 . S
Gd280 O303 2.506 . S
Gd280 O304 2.435 . S
Gd280 O305 2.717 . S
Gd280 O307 2.395 . S
Gd280 O311 2.327 . S
Gd281 C292 2.818 . S
Gd281 O301 2.395 . S
Gd281 O305 2.327 . S
Gd281 O306 2.377 . S
Gd281 O308 2.448 . S
Gd281 O309 2.506 . S
Gd281 O310 2.435 . S
Gd281 O311 2.717 . S
C282 O300 1.240 . S
C282 O301 1.240 . S
C283 Gd280 2.818 . S
C283 C284 1.510 . S
C283 O302 1.249 . S
C283 O303 1.252 . S
C284 C283 1.510 . S
C284 C285 1.404 1_556 S
C284 C286 1.352 1_556 S
C285 C284 1.404 1_554 S
C285 C289 1.389 . S
C285 H312 0.930 1_554 S
C286 C284 1.352 1_554 S
C286 C288 1.374 . S
C286 H313 0.931 . S
C287 C288 1.359 . S
C287 C289 1.364 . S
C288 C286 1.374 . S
C288 C287 1.359 . S
C288 H314 0.931 . S
C289 C285 1.389 . S
C289 C287 1.364 . S
C289 H315 0.931 . S
C290 O304 1.256 . S
C290 O305 1.257 . S
C291 O306 1.240 . S
C291 O307 1.240 . S
C292 Gd281 2.818 . S
C292 C293 1.510 . S
C292 O308 1.249 . S
C292 O309 1.252 . S
C293 C292 1.510 . S
C293 C294 1.404 . S
C293 C295 1.352 . S
C294 C293 1.404 . S
C294 C298 1.389 . S
C294 H316 0.930 . S
C295 C293 1.352 . S
C295 C297 1.374 . S
C295 H317 0.931 . S
C296 C297 1.359 . S
C296 C298 1.364 . S
C297 C295 1.374 . S
C297 C296 1.359 . S
C297 H318 0.931 . S
C298 C294 1.389 . S
C298 C296 1.364 . S
C298 H319 0.931 . S
C299 O310 1.256 . S
C299 O311 1.257 . S
O300 Gd280 2.377 . S
O300 C282 1.240 . S
O301 Gd281 2.395 . S
O301 C282 1.240 . S
O302 Gd280 2.448 . S
O302 C283 1.249 . S
O303 Gd280 2.506 . S
O303 C283 1.252 . S
O304 Gd280 2.435 . S
O304 C290 1.256 . S
O305 Gd280 2.717 . S
O305 Gd281 2.327 . S
O305 C290 1.257 . S
O306 Gd281 2.377 . S
O306 C291 1.240 . S
O307 Gd280 2.395 . S
O307 C291 1.240 . S
O308 Gd281 2.448 . S
O308 C292 1.249 . S
O309 Gd281 2.506 . S
O309 C292 1.252 . S
O310 Gd281 2.435 . S
O310 C299 1.256 . S
O311 Gd280 2.327 . S
O311 Gd281 2.717 . S
O311 C299 1.257 . S
H312 C285 0.930 1_556 S
H313 C286 0.931 . S
H314 C288 0.931 . S
H315 C289 0.931 . S
H316 C294 0.930 . S
H317 C295 0.931 . S
H318 C297 0.931 . S
H319 C298 0.931 . S
Gd320 C323 2.818 . S
Gd320 O340 2.377 . S
Gd320 O342 2.448 . S
Gd320 O343 2.506 . S
Gd320 O344 2.435 . S
Gd320 O345 2.717 . S
Gd320 O347 2.395 . S
Gd320 O351 2.327 . S
Gd321 C332 2.818 . S
Gd321 O341 2.395 . S
Gd321 O345 2.327 . S
Gd321 O346 2.377 . S
Gd321 O348 2.448 . S
Gd321 O349 2.506 . S
Gd321 O350 2.435 . S
Gd321 O351 2.717 . S
C322 O340 1.240 . S
C322 O341 1.240 . S
C323 Gd320 2.818 . S
C323 C324 1.510 . S
C323 O342 1.249 . S
C323 O343 1.252 . S
C324 C323 1.510 . S
C324 C325 1.404 . S
C324 C326 1.352 . S
C325 C324 1.404 . S
C325 C329 1.389 . S
C325 H352 0.930 . S
C326 C324 1.352 . S
C326 C328 1.374 . S
C326 H353 0.931 . S
C327 C328 1.359 . S
C327 C329 1.364 . S
C328 C326 1.374 . S
C328 C327 1.359 . S
C328 H354 0.931 . S
C329 C325 1.389 . S
C329 C327 1.364 . S
C329 H355 0.931 . S
C330 O344 1.256 . S
C330 O345 1.257 . S
C331 O346 1.240 . S
C331 O347 1.240 . S
C332 Gd321 2.818 . S
C332 C333 1.510 1_556 S
C332 O348 1.249 . S
C332 O349 1.252 . S
C333 C332 1.510 1_554 S
C333 C334 1.404 . S
C333 C335 1.352 . S
C334 C333 1.404 . S
C334 C338 1.389 . S
C334 H356 0.930 . S
C335 C333 1.352 . S
C335 C337 1.374 . S
C335 H357 0.931 . S
C336 C337 1.359 . S
C336 C338 1.364 . S
C337 C335 1.374 . S
C337 C336 1.359 . S
C337 H358 0.931 . S
C338 C334 1.389 . S
C338 C336 1.364 . S
C338 H359 0.931 . S
C339 O350 1.256 . S
C339 O351 1.257 . S
O340 Gd320 2.377 . S
O340 C322 1.240 . S
O341 Gd321 2.395 . S
O341 C322 1.240 . S
O342 Gd320 2.448 . S
O342 C323 1.249 . S
O343 Gd320 2.506 . S
O343 C323 1.252 . S
O344 Gd320 2.435 . S
O344 C330 1.256 . S
O345 Gd320 2.717 . S
O345 Gd321 2.327 . S
O345 C330 1.257 . S
O346 Gd321 2.377 . S
O346 C331 1.240 . S
O347 Gd320 2.395 . S
O347 C331 1.240 . S
O348 Gd321 2.448 . S
O348 C332 1.249 . S
O349 Gd321 2.506 . S
O349 C332 1.252 . S
O350 Gd321 2.435 . S
O350 C339 1.256 . S
O351 Gd320 2.327 . S
O351 Gd321 2.717 . S
O351 C339 1.257 . S
H352 C325 0.930 . S
H353 C326 0.931 . S
H354 C328 0.931 . S
H355 C329 0.931 . S
H356 C334 0.930 . S
H357 C335 0.931 . S
H358 C337 0.931 . S
H359 C338 0.931 . S
H360 C372 0.930 . S
H361 C374 0.930 . S
H362 C375 0.930 . S
H363 C379 0.959 . S
H364 C379 0.959 . S
H365 C379 0.961 . S
H366 C380 0.960 . S
H367 C380 0.961 . S
H368 C380 0.959 . S
H369 C383 0.929 . S
H370 C384 0.931 . S
H371 C386 0.930 . S
C372 H360 0.930 . S
C372 C373 1.399 . S
C372 C377 1.399 . S
C373 C372 1.399 . S
C373 C374 1.376 . S
C374 H361 0.930 . S
C374 C373 1.376 . S
C374 C375 1.388 . S
C375 H362 0.930 . S
C375 C374 1.388 . S
C375 C376 1.390 . S
C376 C375 1.390 . S
C376 C377 1.394 . S
C376 C382 1.465 . S
C377 C372 1.399 . S
C377 C376 1.394 . S
C377 C378 1.516 . S
C378 C377 1.516 . S
C378 C379 1.502 . S
C378 C380 1.561 . S
C378 C381 1.526 . S
C379 H363 0.959 . S
C379 H364 0.959 . S
C379 H365 0.961 . S
C379 C378 1.502 . S
C380 H366 0.960 . S
C380 H367 0.961 . S
C380 H368 0.959 . S
C380 C378 1.561 . S
C381 C378 1.526 . S
C381 C382 1.396 . S
C381 C386 1.390 . S
C382 C376 1.465 . S
C382 C381 1.396 . S
C382 C383 1.399 . S
C383 H369 0.929 . S
C383 C382 1.399 . S
C383 C384 1.385 . S
C384 H370 0.931 . S
C384 C383 1.385 . S
C384 C385 1.389 . S
C385 C384 1.389 . S
C385 C386 1.387 . S
C386 H371 0.930 . S
C386 C381 1.390 . S
C386 C385 1.387 . S
H387 C399 0.930 . S
H388 C401 0.930 . S
H389 C402 0.930 . S
H390 C406 0.959 . S
H391 C406 0.959 . S
H392 C406 0.961 . S
H393 C407 0.960 . S
H394 C407 0.961 . S
H395 C407 0.959 . S
H396 C410 0.929 . S
H397 C411 0.931 . S
H398 C413 0.930 . S
C399 H387 0.930 . S
C399 C400 1.399 . S
C399 C404 1.399 . S
C400 C399 1.399 . S
C400 C401 1.376 . S
C401 H388 0.930 . S
C401 C400 1.376 . S
C401 C402 1.388 . S
C402 H389 0.930 . S
C402 C401 1.388 . S
C402 C403 1.390 . S
C403 C402 1.390 . S
C403 C404 1.394 . S
C403 C409 1.465 . S
C404 C399 1.399 . S
C404 C403 1.394 . S
C404 C405 1.516 . S
C405 C404 1.516 . S
C405 C406 1.502 . S
C405 C407 1.561 . S
C405 C408 1.526 . S
C406 H390 0.959 . S
C406 H391 0.959 . S
C406 H392 0.961 . S
C406 C405 1.502 . S
C407 H393 0.960 . S
C407 H394 0.961 . S
C407 H395 0.959 . S
C407 C405 1.561 . S
C408 C405 1.526 . S
C408 C409 1.396 . S
C408 C413 1.390 . S
C409 C403 1.465 . S
C409 C408 1.396 . S
C409 C410 1.399 . S
C410 H396 0.929 . S
C410 C409 1.399 . S
C410 C411 1.385 . S
C411 H397 0.931 . S
C411 C410 1.385 . S
C411 C412 1.389 . S
C412 C411 1.389 . S
C412 C413 1.387 . S
C413 H398 0.930 . S
C413 C408 1.390 . S
C413 C412 1.387 . S
H414 C426 0.930 . S
H415 C428 0.930 . S
H416 C429 0.930 . S
H417 C433 0.959 . S
H418 C433 0.959 . S
H419 C433 0.961 . S
H420 C434 0.960 . S
H421 C434 0.961 . S
H422 C434 0.959 . S
H423 C437 0.929 . S
H424 C438 0.931 . S
H425 C440 0.930 . S
C426 H414 0.930 . S
C426 C427 1.399 . S
C426 C431 1.399 . S
C427 C426 1.399 . S
C427 C428 1.376 . S
C428 H415 0.930 . S
C428 C427 1.376 . S
C428 C429 1.388 . S
C429 H416 0.930 . S
C429 C428 1.388 . S
C429 C430 1.390 . S
C430 C429 1.390 . S
C430 C431 1.394 . S
C430 C436 1.465 . S
C431 C426 1.399 . S
C431 C430 1.394 . S
C431 C432 1.516 . S
C432 C431 1.516 . S
C432 C433 1.502 . S
C432 C434 1.561 . S
C432 C435 1.526 . S
C433 H417 0.959 . S
C433 H418 0.959 . S
C433 H419 0.961 . S
C433 C432 1.502 . S
C434 H420 0.960 . S
C434 H421 0.961 . S
C434 H422 0.959 . S
C434 C432 1.561 . S
C435 C432 1.526 . S
C435 C436 1.396 . S
C435 C440 1.390 . S
C436 C430 1.465 . S
C436 C435 1.396 . S
C436 C437 1.399 . S
C437 H423 0.929 . S
C437 C436 1.399 . S
C437 C438 1.385 . S
C438 H424 0.931 . S
C438 C437 1.385 . S
C438 C439 1.389 . S
C439 C438 1.389 . S
C439 C440 1.387 . S
C440 H425 0.930 . S
C440 C435 1.390 . S
C440 C439 1.387 . S
H441 C453 0.930 . S
H442 C455 0.930 . S
H443 C456 0.930 . S
H444 C460 0.959 . S
H445 C460 0.959 . S
H446 C460 0.961 . S
H447 C461 0.960 . S
H448 C461 0.961 . S
H449 C461 0.959 . S
H450 C464 0.929 . S
H451 C465 0.931 1_554 S
H452 C467 0.930 . S
C453 H441 0.930 . S
C453 C454 1.399 . S
C453 C458 1.399 . S
C454 C453 1.399 . S
C454 C455 1.376 . S
C455 H442 0.930 . S
C455 C454 1.376 . S
C455 C456 1.388 . S
C456 H443 0.930 . S
C456 C455 1.388 . S
C456 C457 1.390 . S
C457 C456 1.390 . S
C457 C458 1.394 . S
C457 C463 1.465 . S
C458 C453 1.399 . S
C458 C457 1.394 . S
C458 C459 1.516 . S
C459 C458 1.516 . S
C459 C460 1.502 . S
C459 C461 1.561 . S
C459 C462 1.526 . S
C460 H444 0.959 . S
C460 H445 0.959 . S
C460 H446 0.961 . S
C460 C459 1.502 . S
C461 H447 0.960 . S
C461 H448 0.961 . S
C461 H449 0.959 . S
C461 C459 1.561 . S
C462 C459 1.526 . S
C462 C463 1.396 . S
C462 C467 1.390 . S
C463 C457 1.465 . S
C463 C462 1.396 . S
C463 C464 1.399 . S
C464 H450 0.929 . S
C464 C463 1.399 . S
C464 C465 1.385 . S
C465 H451 0.931 1_556 S
C465 C464 1.385 . S
C465 C466 1.389 . S
C466 C465 1.389 . S
C466 C467 1.387 . S
C467 H452 0.930 . S
C467 C462 1.390 . S
C467 C466 1.387 . S
H468 C480 0.930 . S
H469 C482 0.930 . S
H470 C483 0.930 . S
H471 C487 0.959 . S
H472 C487 0.959 . S
H473 C487 0.961 . S
H474 C488 0.960 . S
H475 C488 0.961 . S
H476 C488 0.959 . S
H477 C491 0.929 . S
H478 C492 0.931 . S
H479 C494 0.930 . S
C480 H468 0.930 . S
C480 C481 1.399 . S
C480 C485 1.399 . S
C481 C480 1.399 . S
C481 C482 1.376 . S
C482 H469 0.930 . S
C482 C481 1.376 . S
C482 C483 1.388 . S
C483 H470 0.930 . S
C483 C482 1.388 . S
C483 C484 1.390 . S
C484 C483 1.390 . S
C484 C485 1.394 . S
C484 C490 1.465 . S
C485 C480 1.399 . S
C485 C484 1.394 . S
C485 C486 1.516 . S
C486 C485 1.516 . S
C486 C487 1.502 . S
C486 C488 1.561 . S
C486 C489 1.526 . S
C487 H471 0.959 . S
C487 H472 0.959 . S
C487 H473 0.961 . S
C487 C486 1.502 . S
C488 H474 0.960 . S
C488 H475 0.961 . S
C488 H476 0.959 . S
C488 C486 1.561 . S
C489 C486 1.526 . S
C489 C490 1.396 . S
C489 C494 1.390 . S
C490 C484 1.465 . S
C490 C489 1.396 . S
C490 C491 1.399 . S
C491 H477 0.929 . S
C491 C490 1.399 . S
C491 C492 1.385 . S
C492 H478 0.931 . S
C492 C491 1.385 . S
C492 C493 1.389 . S
C493 C492 1.389 . S
C493 C494 1.387 . S
C494 H479 0.930 . S
C494 C489 1.390 . S
C494 C493 1.387 . S
H495 C507 0.930 . S
H496 C509 0.930 . S
H497 C510 0.930 . S
H498 C514 0.959 . S
H499 C514 0.959 . S
H500 C514 0.961 . S
H501 C515 0.960 . S
H502 C515 0.961 . S
H503 C515 0.959 . S
H504 C518 0.929 . S
H505 C519 0.931 . S
H506 C521 0.930 . S
C507 H495 0.930 . S
C507 C508 1.399 . S
C507 C512 1.399 . S
C508 C507 1.399 . S
C508 C509 1.376 . S
C509 H496 0.930 . S
C509 C508 1.376 . S
C509 C510 1.388 . S
C510 H497 0.930 . S
C510 C509 1.388 . S
C510 C511 1.390 . S
C511 C510 1.390 . S
C511 C512 1.394 . S
C511 C517 1.465 . S
C512 C507 1.399 . S
C512 C511 1.394 . S
C512 C513 1.516 . S
C513 C512 1.516 . S
C513 C514 1.502 . S
C513 C515 1.561 . S
C513 C516 1.526 . S
C514 H498 0.959 . S
C514 H499 0.959 . S
C514 H500 0.961 . S
C514 C513 1.502 . S
C515 H501 0.960 . S
C515 H502 0.961 . S
C515 H503 0.959 . S
C515 C513 1.561 . S
C516 C513 1.526 . S
C516 C517 1.396 . S
C516 C521 1.390 . S
C517 C511 1.465 . S
C517 C516 1.396 . S
C517 C518 1.399 . S
C518 H504 0.929 . S
C518 C517 1.399 . S
C518 C519 1.385 . S
C519 H505 0.931 . S
C519 C518 1.385 . S
C519 C520 1.389 . S
C520 C519 1.389 . S
C520 C521 1.387 . S
C521 H506 0.930 . S
C521 C516 1.390 . S
C521 C520 1.387 . S
H522 C534 0.930 . S
H523 C536 0.930 . S
H524 C537 0.930 . S
H525 C541 0.959 . S
H526 C541 0.959 . S
H527 C541 0.961 . S
H528 C542 0.960 . S
H529 C542 0.961 . S
H530 C542 0.959 . S
H531 C545 0.929 . S
H532 C546 0.931 . S
H533 C548 0.930 . S
C534 H522 0.930 . S
C534 C535 1.399 . S
C534 C539 1.399 . S
C535 C534 1.399 . S
C535 C536 1.376 . S
C536 H523 0.930 . S
C536 C535 1.376 . S
C536 C537 1.388 . S
C537 H524 0.930 . S
C537 C536 1.388 . S
C537 C538 1.390 . S
C538 C537 1.390 . S
C538 C539 1.394 . S
C538 C544 1.465 . S
C539 C534 1.399 . S
C539 C538 1.394 . S
C539 C540 1.516 . S
C540 C539 1.516 . S
C540 C541 1.502 . S
C540 C542 1.561 . S
C540 C543 1.526 . S
C541 H525 0.959 . S
C541 H526 0.959 . S
C541 H527 0.961 . S
C541 C540 1.502 . S
C542 H528 0.960 . S
C542 H529 0.961 . S
C542 H530 0.959 . S
C542 C540 1.561 . S
C543 C540 1.526 . S
C543 C544 1.396 . S
C543 C548 1.390 . S
C544 C538 1.465 . S
C544 C543 1.396 . S
C544 C545 1.399 . S
C545 H531 0.929 . S
C545 C544 1.399 . S
C545 C546 1.385 . S
C546 H532 0.931 . S
C546 C545 1.385 . S
C546 C547 1.389 . S
C547 C546 1.389 . S
C547 C548 1.387 . S
C548 H533 0.930 . S
C548 C543 1.390 . S
C548 C547 1.387 . S
H549 C561 0.930 . S
H550 C563 0.930 . S
H551 C564 0.930 . S
H552 C568 0.959 . S
H553 C568 0.959 . S
H554 C568 0.961 . S
H555 C569 0.960 . S
H556 C569 0.961 1_556 S
H557 C569 0.959 . S
H558 C572 0.929 . S
H559 C573 0.931 . S
H560 C575 0.930 . S
C561 H549 0.930 . S
C561 C562 1.399 . S
C561 C566 1.399 . S
C562 C561 1.399 . S
C562 C563 1.376 . S
C563 H550 0.930 . S
C563 C562 1.376 . S
C563 C564 1.388 . S
C564 H551 0.930 . S
C564 C563 1.388 . S
C564 C565 1.390 . S
C565 C564 1.390 . S
C565 C566 1.394 . S
C565 C571 1.465 . S
C566 C561 1.399 . S
C566 C565 1.394 . S
C566 C567 1.516 . S
C567 C566 1.516 . S
C567 C568 1.502 . S
C567 C569 1.561 . S
C567 C570 1.526 . S
C568 H552 0.959 . S
C568 H553 0.959 . S
C568 H554 0.961 . S
C568 C567 1.502 . S
C569 H555 0.960 . S
C569 H556 0.961 1_554 S
C569 H557 0.959 . S
C569 C567 1.561 . S
C570 C567 1.526 . S
C570 C571 1.396 . S
C570 C575 1.390 . S
C571 C565 1.465 . S
C571 C570 1.396 . S
C571 C572 1.399 . S
C572 H558 0.929 . S
C572 C571 1.399 . S
C572 C573 1.385 . S
C573 H559 0.931 . S
C573 C572 1.385 . S
C573 C574 1.389 . S
C574 C573 1.389 . S
C574 C575 1.387 . S
C575 H560 0.930 . S
C575 C570 1.390 . S
C575 C574 1.387 . S
H576 C588 0.930 . S
H577 C590 0.930 . S
H578 C591 0.930 . S
H579 C595 0.959 . S
H580 C595 0.959 . S
H581 C595 0.961 . S
H582 C596 0.960 . S
H583 C596 0.961 . S
H584 C596 0.959 . S
H585 C599 0.929 . S
H586 C600 0.931 . S
H587 C602 0.930 . S
C588 H576 0.930 . S
C588 C589 1.399 . S
C588 C593 1.399 . S
C589 C588 1.399 . S
C589 C590 1.376 . S
C590 H577 0.930 . S
C590 C589 1.376 . S
C590 C591 1.388 . S
C591 H578 0.930 . S
C591 C590 1.388 . S
C591 C592 1.390 . S
C592 C591 1.390 . S
C592 C593 1.394 . S
C592 C598 1.465 . S
C593 C588 1.399 . S
C593 C592 1.394 . S
C593 C594 1.516 . S
C594 C593 1.516 . S
C594 C595 1.502 . S
C594 C596 1.561 . S
C594 C597 1.526 . S
C595 H579 0.959 . S
C595 H580 0.959 . S
C595 H581 0.961 . S
C595 C594 1.502 . S
C596 H582 0.960 . S
C596 H583 0.961 . S
C596 H584 0.959 . S
C596 C594 1.561 . S
C597 C594 1.526 . S
C597 C598 1.396 . S
C597 C602 1.390 . S
C598 C592 1.465 . S
C598 C597 1.396 . S
C598 C599 1.399 . S
C599 H585 0.929 . S
C599 C598 1.399 . S
C599 C600 1.385 . S
C600 H586 0.931 . S
C600 C599 1.385 . S
C600 C601 1.389 . S
C601 C600 1.389 . S
C601 C602 1.387 . S
C602 H587 0.930 . S
C602 C597 1.390 . S
C602 C601 1.387 . S
H603 C615 0.930 . S
H604 C617 0.930 . S
H605 C618 0.930 . S
H606 C622 0.959 . S
H607 C622 0.959 . S
H608 C622 0.961 . S
H609 C623 0.960 . S
H610 C623 0.961 . S
H611 C623 0.959 . S
H612 C626 0.929 . S
H613 C627 0.931 . S
H614 C629 0.930 . S
C615 H603 0.930 . S
C615 C616 1.399 . S
C615 C620 1.399 . S
C616 C615 1.399 . S
C616 C617 1.376 . S
C617 H604 0.930 . S
C617 C616 1.376 . S
C617 C618 1.388 . S
C618 H605 0.930 . S
C618 C617 1.388 . S
C618 C619 1.390 . S
C619 C618 1.390 . S
C619 C620 1.394 . S
C619 C625 1.465 . S
C620 C615 1.399 . S
C620 C619 1.394 . S
C620 C621 1.516 . S
C621 C620 1.516 . S
C621 C622 1.502 . S
C621 C623 1.561 . S
C621 C624 1.526 . S
C622 H606 0.959 . S
C622 H607 0.959 . S
C622 H608 0.961 . S
C622 C621 1.502 . S
C623 H609 0.960 . S
C623 H610 0.961 . S
C623 H611 0.959 . S
C623 C621 1.561 . S
C624 C621 1.526 . S
C624 C625 1.396 . S
C624 C629 1.390 . S
C625 C619 1.465 . S
C625 C624 1.396 . S
C625 C626 1.399 . S
C626 H612 0.929 . S
C626 C625 1.399 . S
C626 C627 1.385 . S
C627 H613 0.931 . S
C627 C626 1.385 . S
C627 C628 1.389 . S
C628 C627 1.389 . S
C628 C629 1.387 . S
C629 H614 0.930 . S
C629 C624 1.390 . S
C629 C628 1.387 . S
H630 C642 0.930 . S
H631 C644 0.930 . S
H632 C645 0.930 . S
H633 C649 0.959 . S
H634 C649 0.959 . S
H635 C649 0.961 . S
H636 C650 0.960 . S
H637 C650 0.961 . S
H638 C650 0.959 . S
H639 C653 0.929 . S
H640 C654 0.931 . S
H641 C656 0.930 . S
C642 H630 0.930 . S
C642 C643 1.399 . S
C642 C647 1.399 . S
C643 C642 1.399 . S
C643 C644 1.376 . S
C644 H631 0.930 . S
C644 C643 1.376 . S
C644 C645 1.388 . S
C645 H632 0.930 . S
C645 C644 1.388 . S
C645 C646 1.390 . S
C646 C645 1.390 . S
C646 C647 1.394 . S
C646 C652 1.465 . S
C647 C642 1.399 . S
C647 C646 1.394 . S
C647 C648 1.516 . S
C648 C647 1.516 . S
C648 C649 1.502 . S
C648 C650 1.561 . S
C648 C651 1.526 . S
C649 H633 0.959 . S
C649 H634 0.959 . S
C649 H635 0.961 . S
C649 C648 1.502 . S
C650 H636 0.960 . S
C650 H637 0.961 . S
C650 H638 0.959 . S
C650 C648 1.561 . S
C651 C648 1.526 . S
C651 C652 1.396 . S
C651 C656 1.390 . S
C652 C646 1.465 . S
C652 C651 1.396 . S
C652 C653 1.399 . S
C653 H639 0.929 . S
C653 C652 1.399 . S
C653 C654 1.385 . S
C654 H640 0.931 . S
C654 C653 1.385 . S
C654 C655 1.389 . S
C655 C654 1.389 . S
C655 C656 1.387 . S
C656 H641 0.930 . S
C656 C651 1.390 . S
C656 C655 1.387 . S
H657 C669 0.937 . S
H658 C671 0.930 . S
H659 C672 0.930 . S
H660 C676 0.959 . S
H661 C676 0.959 . S
H662 C676 0.961 . S
H663 C677 0.960 . S
H664 C677 0.961 . S
H665 C677 0.988 . S
H666 C680 0.929 . S
H667 C681 0.931 . S
H668 C683 0.930 . S
C669 H657 0.937 . S
C669 C670 1.393 1_565 S
C669 C674 1.398 . S
C670 C669 1.393 1_545 S
C670 C671 1.376 . S
C671 H658 0.930 . S
C671 C670 1.376 . S
C671 C672 1.388 . S
C672 H659 0.930 . S
C672 C671 1.388 . S
C672 C673 1.362 1_545 S
C673 C672 1.362 1_565 S
C673 C674 1.427 . S
C673 C679 1.469 . S
C674 C669 1.398 . S
C674 C673 1.427 . S
C674 C675 1.516 . S
C675 C674 1.516 . S
C675 C676 1.502 . S
C675 C677 1.561 . S
C675 C678 1.526 . S
C676 H660 0.959 . S
C676 H661 0.959 . S
C676 H662 0.961 . S
C676 C675 1.502 . S
C677 H663 0.960 . S
C677 H664 0.961 . S
C677 H665 0.988 . S
C677 C675 1.561 . S
C678 C675 1.526 . S
C678 C679 1.396 . S
C678 C683 1.390 . S
C679 C673 1.469 . S
C679 C678 1.396 . S
C679 C680 1.399 . S
C680 H666 0.929 . S
C680 C679 1.399 . S
C680 C681 1.385 . S
C681 H667 0.931 . S
C681 C680 1.385 . S
C681 C682 1.389 . S
C682 C681 1.389 . S
C682 C683 1.387 . S
C683 H668 0.930 . S
C683 C678 1.390 . S
C683 C682 1.387 . S
H684 C696 0.930 . S
H685 C698 0.930 . S
H686 C699 0.930 . S
H687 C703 0.959 . S
H688 C703 0.959 . S
H689 C703 0.961 . S
H690 C704 0.960 . S
H691 C704 0.961 . S
H692 C704 0.959 . S
H693 C707 0.929 . S
H694 C708 0.931 . S
H695 C710 0.930 . S
C696 H684 0.930 . S
C696 C697 1.399 . S
C696 C701 1.399 . S
C697 C696 1.399 . S
C697 C698 1.376 . S
C698 H685 0.930 . S
C698 C697 1.376 . S
C698 C699 1.388 1_554 S
C699 H686 0.930 . S
C699 C698 1.388 1_556 S
C699 C700 1.390 . S
C700 C699 1.390 . S
C700 C701 1.394 1_556 S
C700 C706 1.465 . S
C701 C696 1.399 . S
C701 C700 1.394 1_554 S
C701 C702 1.516 1_554 S
C702 C701 1.516 1_556 S
C702 C703 1.502 1_556 S
C702 C704 1.561 . S
C702 C705 1.526 . S
C703 H687 0.959 . S
C703 H688 0.959 . S
C703 H689 0.961 . S
C703 C702 1.502 1_554 S
C704 H690 0.960 . S
C704 H691 0.961 . S
C704 H692 0.959 . S
C704 C702 1.561 . S
C705 C702 1.526 . S
C705 C706 1.396 . S
C705 C710 1.390 . S
C706 C700 1.465 . S
C706 C705 1.396 . S
C706 C707 1.399 . S
C707 H693 0.929 . S
C707 C706 1.399 . S
C707 C708 1.385 . S
C708 H694 0.931 . S
C708 C707 1.385 . S
C708 C709 1.389 . S
C709 C708 1.389 . S
C709 C710 1.387 . S
C710 H695 0.930 . S
C710 C705 1.390 . S
C710 C709 1.387 . S
H711 C723 0.930 . S
H712 C725 0.930 . S
H713 C726 0.930 . S
H714 C730 0.959 . S
H715 C730 0.959 . S
H716 C730 0.961 . S
H717 C731 0.960 . S
H718 C731 0.961 . S
H719 C731 0.959 . S
H720 C734 0.929 1_554 S
H721 C735 0.931 . S
H722 C737 0.930 . S
C723 H711 0.930 . S
C723 C724 1.399 . S
C723 C728 1.399 . S
C724 C723 1.399 . S
C724 C725 1.376 . S
C725 H712 0.930 . S
C725 C724 1.376 . S
C725 C726 1.388 . S
C726 H713 0.930 . S
C726 C725 1.388 . S
C726 C727 1.390 . S
C727 C726 1.390 . S
C727 C728 1.394 . S
C727 C733 1.465 . S
C728 C723 1.399 . S
C728 C727 1.394 . S
C728 C729 1.516 . S
C729 C728 1.516 . S
C729 C730 1.502 . S
C729 C731 1.561 . S
C729 C732 1.526 . S
C730 H714 0.959 . S
C730 H715 0.959 . S
C730 H716 0.961 . S
C730 C729 1.502 . S
C731 H717 0.960 . S
C731 H718 0.961 . S
C731 H719 0.959 . S
C731 C729 1.561 . S
C732 C729 1.526 . S
C732 C733 1.396 . S
C732 C737 1.390 . S
C733 C727 1.465 . S
C733 C732 1.396 . S
C733 C734 1.399 1_655 S
C734 H720 0.929 1_556 S
C734 C733 1.399 1_455 S
C734 C735 1.385 1_556 S
C735 H721 0.931 . S
C735 C734 1.385 1_554 S
C735 C736 1.389 . S
C736 C735 1.389 . S
C736 C737 1.387 1_454 S
C737 H722 0.930 . S
C737 C732 1.390 . S
C737 C736 1.387 1_656 S
H738 C750 0.930 . S
H739 C752 0.930 . S
H740 C753 0.930 . S
H741 C757 0.959 . S
H742 C757 0.959 . S
H743 C757 0.961 . S
H744 C758 0.960 . S
H745 C758 0.961 . S
H746 C758 0.959 . S
H747 C761 0.929 . S
H748 C762 0.931 . S
H749 C764 0.930 . S
C750 H738 0.930 . S
C750 C751 1.399 . S
C750 C755 1.399 . S
C751 C750 1.399 . S
C751 C752 1.376 . S
C752 H739 0.930 . S
C752 C751 1.376 . S
C752 C753 1.388 . S
C753 H740 0.930 . S
C753 C752 1.388 . S
C753 C754 1.390 . S
C754 C753 1.390 . S
C754 C755 1.394 . S
C754 C760 1.465 . S
C755 C750 1.399 . S
C755 C754 1.394 . S
C755 C756 1.516 . S
C756 C755 1.516 . S
C756 C757 1.502 . S
C756 C758 1.561 . S
C756 C759 1.526 . S
C757 H741 0.959 . S
C757 H742 0.959 . S
C757 H743 0.961 . S
C757 C756 1.502 . S
C758 H744 0.960 . S
C758 H745 0.961 . S
C758 H746 0.959 . S
C758 C756 1.561 . S
C759 C756 1.526 . S
C759 C760 1.396 . S
C759 C764 1.390 1_556 S
C760 C754 1.465 . S
C760 C759 1.396 . S
C760 C761 1.399 1_556 S
C761 H747 0.929 . S
C761 C760 1.399 1_554 S
C761 C762 1.385 . S
C762 H748 0.931 . S
C762 C761 1.385 . S
C762 C763 1.389 . S
C763 C762 1.389 . S
C763 C764 1.387 . S
C764 H749 0.930 . S
C764 C759 1.390 1_554 S
C764 C763 1.387 . S
H765 C777 0.930 . S
H766 C779 0.930 . S
H767 C780 0.930 . S
H768 C784 0.959 . S
H769 C784 0.959 1_455 S
H770 C784 0.956 . S
H771 C785 0.960 . S
H772 C785 0.961 1_455 S
H773 C785 0.959 . S
H774 C788 0.929 . S
H775 C789 0.931 . S
H776 C791 0.909 1_455 S
C777 H765 0.930 . S
C777 C778 1.399 . S
C777 C782 1.399 . S
C778 C777 1.399 . S
C778 C779 1.376 . S
C779 H766 0.930 . S
C779 C778 1.376 . S
C779 C780 1.388 . S
C780 H767 0.930 . S
C780 C779 1.388 . S
C780 C781 1.390 . S
C781 C780 1.390 . S
C781 C782 1.394 . S
C781 C787 1.465 . S
C782 C777 1.399 . S
C782 C781 1.394 . S
C782 C783 1.516 . S
C783 C782 1.516 . S
C783 C784 1.502 . S
C783 C785 1.561 . S
C783 C786 1.526 . S
C784 H768 0.959 . S
C784 H769 0.959 1_655 S
C784 H770 0.956 . S
C784 C783 1.502 . S
C785 H771 0.960 . S
C785 H772 0.961 1_655 S
C785 H773 0.959 . S
C785 C783 1.561 . S
C786 C783 1.526 . S
C786 C787 1.396 . S
C786 C791 1.390 . S
C787 C781 1.465 . S
C787 C786 1.396 . S
C787 C788 1.399 . S
C788 H774 0.929 . S
C788 C787 1.399 . S
C788 C789 1.385 . S
C789 H775 0.931 . S
C789 C788 1.385 . S
C789 C790 1.389 . S
C790 C789 1.389 . S
C790 C791 1.387 . S
C791 H776 0.909 1_655 S
C791 C786 1.390 . S
C791 C790 1.387 . S
H792 C804 0.930 . S
H793 C806 0.930 . S
H794 C807 0.930 . S
H795 C811 0.959 . S
H796 C811 0.959 . S
H797 C811 0.961 1_554 S
H798 C812 0.960 . S
H799 C812 0.961 . S
H800 C812 0.959 . S
H801 C815 0.929 . S
H802 C816 0.931 . S
H803 C818 0.930 . S
C804 H792 0.930 . S
C804 C805 1.399 . S
C804 C809 1.399 1_554 S
C805 C804 1.399 . S
C805 C806 1.376 1_554 S
C806 H793 0.930 . S
C806 C805 1.376 1_556 S
C806 C807 1.388 . S
C807 H794 0.930 . S
C807 C806 1.388 . S
C807 C808 1.390 . S
C808 C807 1.390 . S
C808 C809 1.394 . S
C808 C814 1.465 . S
C809 C804 1.399 1_556 S
C809 C808 1.394 . S
C809 C810 1.516 . S
C810 C809 1.516 . S
C810 C811 1.502 . S
C810 C812 1.561 1_556 S
C810 C813 1.526 . S
C811 H795 0.959 . S
C811 H796 0.959 . S
C811 H797 0.961 1_556 S
C811 C810 1.502 . S
C812 H798 0.960 . S
C812 H799 0.961 . S
C812 H800 0.959 . S
C812 C810 1.561 1_554 S
C813 C810 1.526 . S
C813 C814 1.396 . S
C813 C818 1.390 . S
C814 C808 1.465 . S
C814 C813 1.396 . S
C814 C815 1.399 . S
C815 H801 0.929 . S
C815 C814 1.399 . S
C815 C816 1.385 . S
C816 H802 0.931 . S
C816 C815 1.385 . S
C816 C817 1.389 . S
C817 C816 1.389 . S
C817 C818 1.387 . S
C818 H803 0.930 . S
C818 C813 1.390 . S
C818 C817 1.387 . S
H819 C831 0.930 . S
H820 C833 0.930 . S
H821 C834 0.930 . S
H822 C838 0.959 . S
H823 C838 0.959 . S
H824 C838 0.961 . S
H825 C839 0.960 . S
H826 C839 0.961 1_554 S
H827 C839 0.959 1_554 S
H828 C842 0.929 . S
H829 C843 0.931 . S
H830 C845 0.930 . S
C831 H819 0.930 . S
C831 C832 1.399 . S
C831 C836 1.399 . S
C832 C831 1.399 . S
C832 C833 1.376 . S
C833 H820 0.930 . S
C833 C832 1.376 . S
C833 C834 1.388 . S
C834 H821 0.930 . S
C834 C833 1.388 . S
C834 C835 1.390 . S
C835 C834 1.390 . S
C835 C836 1.394 . S
C835 C841 1.465 1_556 S
C836 C831 1.399 . S
C836 C835 1.394 . S
C836 C837 1.516 . S
C837 C836 1.516 . S
C837 C838 1.502 . S
C837 C839 1.561 . S
C837 C840 1.526 1_556 S
C838 H822 0.959 . S
C838 H823 0.959 . S
C838 H824 0.961 . S
C838 C837 1.502 . S
C839 H825 0.960 . S
C839 H826 0.961 1_556 S
C839 H827 0.959 1_556 S
C839 C837 1.561 . S
C840 C837 1.526 1_554 S
C840 C841 1.396 . S
C840 C845 1.390 . S
C841 C835 1.465 1_554 S
C841 C840 1.396 . S
C841 C842 1.399 . S
C842 H828 0.929 . S
C842 C841 1.399 . S
C842 C843 1.385 . S
C843 H829 0.931 . S
C843 C842 1.385 . S
C843 C844 1.389 . S
C844 C843 1.389 . S
C844 C845 1.387 . S
C845 H830 0.930 . S
C845 C840 1.390 . S
C845 C844 1.387 . S
H846 C858 0.930 . S
H847 C860 0.930 . S
H848 C861 0.930 1_565 S
H849 C865 0.959 . S
H850 C865 0.959 . S
H851 C865 0.961 . S
H852 C866 0.960 . S
H853 C866 0.961 . S
H854 C866 0.959 . S
H855 C869 0.929 . S
H856 C870 0.931 . S
H857 C872 0.930 . S
C858 H846 0.930 . S
C858 C859 1.399 . S
C858 C863 1.399 . S
C859 C858 1.399 . S
C859 C860 1.376 . S
C860 H847 0.930 . S
C860 C859 1.376 . S
C860 C861 1.388 . S
C861 H848 0.930 1_545 S
C861 C860 1.388 . S
C861 C862 1.390 . S
C862 C861 1.390 . S
C862 C863 1.394 . S
C862 C868 1.465 . S
C863 C858 1.399 . S
C863 C862 1.394 . S
C863 C864 1.516 . S
C864 C863 1.516 . S
C864 C865 1.502 . S
C864 C866 1.561 . S
C864 C867 1.526 . S
C865 H849 0.959 . S
C865 H850 0.959 . S
C865 H851 0.961 . S
C865 C864 1.502 . S
C866 H852 0.960 . S
C866 H853 0.961 . S
C866 H854 0.959 . S
C866 C864 1.561 . S
C867 C864 1.526 . S
C867 C868 1.396 . S
C867 C872 1.390 . S
C868 C862 1.465 . S
C868 C867 1.396 . S
C868 C869 1.399 1_545 S
C869 H855 0.929 . S
C869 C868 1.399 1_565 S
C869 C870 1.385 . S
C870 H856 0.931 . S
C870 C869 1.385 . S
C870 C871 1.389 . S
C871 C870 1.389 . S
C871 C872 1.387 1_565 S
C872 H857 0.930 . S
C872 C867 1.390 . S
C872 C871 1.387 1_545 S
H873 C885 0.930 . S
H874 C887 0.930 . S
H875 C888 0.930 . S
H876 C892 0.959 . S
H877 C892 0.959 . S
H878 C892 0.961 . S
H879 C893 0.960 . S
H880 C893 0.961 . S
H881 C893 0.959 . S
H882 C896 0.929 . S
H883 C897 0.931 . S
H884 C899 0.930 . S
C885 H873 0.930 . S
C885 C886 1.399 . S
C885 C890 1.399 . S
C886 C885 1.399 . S
C886 C887 1.376 . S
C887 H874 0.930 . S
C887 C886 1.376 . S
C887 C888 1.388 . S
C888 H875 0.930 . S
C888 C887 1.388 . S
C888 C889 1.390 . S
C889 C888 1.390 . S
C889 C890 1.394 . S
C889 C895 1.465 . S
C890 C885 1.399 . S
C890 C889 1.394 . S
C890 C891 1.516 . S
C891 C890 1.516 . S
C891 C892 1.502 . S
C891 C893 1.561 . S
C891 C894 1.526 . S
C892 H876 0.959 . S
C892 H877 0.959 . S
C892 H878 0.961 . S
C892 C891 1.502 . S
C893 H879 0.960 . S
C893 H880 0.961 . S
C893 H881 0.959 . S
C893 C891 1.561 . S
C894 C891 1.526 . S
C894 C895 1.396 . S
C894 C899 1.390 . S
C895 C889 1.465 . S
C895 C894 1.396 . S
C895 C896 1.399 . S
C896 H882 0.929 . S
C896 C895 1.399 . S
C896 C897 1.385 . S
C897 H883 0.931 . S
C897 C896 1.385 . S
C897 C898 1.389 . S
C898 C897 1.389 . S
C898 C899 1.387 . S
C899 H884 0.930 . S
C899 C894 1.390 . S
C899 C898 1.387 . S
H900 C912 0.930 . S
H901 C914 0.930 . S
H902 C915 0.930 . S
H903 C919 0.959 . S
H904 C919 0.959 . S
H905 C919 0.961 . S
H906 C920 0.960 . S
H907 C920 0.961 . S
H908 C920 0.959 . S
H909 C923 0.929 . S
H910 C924 0.931 . S
H911 C926 0.930 . S
C912 H900 0.930 . S
C912 C913 1.399 . S
C912 C917 1.399 . S
C913 C912 1.399 . S
C913 C914 1.376 . S
C914 H901 0.930 . S
C914 C913 1.376 . S
C914 C915 1.388 . S
C915 H902 0.930 . S
C915 C914 1.388 . S
C915 C916 1.390 . S
C916 C915 1.390 . S
C916 C917 1.394 . S
C916 C922 1.465 . S
C917 C912 1.399 . S
C917 C916 1.394 . S
C917 C918 1.516 . S
C918 C917 1.516 . S
C918 C919 1.502 . S
C918 C920 1.561 . S
C918 C921 1.526 . S
C919 H903 0.959 . S
C919 H904 0.959 . S
C919 H905 0.961 . S
C919 C918 1.502 . S
C920 H906 0.960 . S
C920 H907 0.961 . S
C920 H908 0.959 . S
C920 C918 1.561 . S
C921 C918 1.526 . S
C921 C922 1.396 . S
C921 C926 1.390 . S
C922 C916 1.465 . S
C922 C921 1.396 . S
C922 C923 1.399 . S
C923 H909 0.929 . S
C923 C922 1.399 . S
C923 C924 1.385 . S
C924 H910 0.931 . S
C924 C923 1.385 . S
C924 C925 1.389 . S
C925 C924 1.389 . S
C925 C926 1.387 . S
C926 H911 0.930 . S
C926 C921 1.390 . S
C926 C925 1.387 . S
H927 C939 0.930 . S
H928 C941 0.930 . S
H929 C942 0.930 . S
H930 C946 0.959 . S
H931 C946 0.959 . S
H932 C946 0.961 . S
H933 C947 0.960 . S
H934 C947 0.961 . S
H935 C947 0.959 . S
H936 C950 0.929 . S
H937 C951 0.931 . S
H938 C953 0.930 . S
C939 H927 0.930 . S
C939 C940 1.399 . S
C939 C944 1.399 . S
C940 C939 1.399 . S
C940 C941 1.376 . S
C941 H928 0.930 . S
C941 C940 1.376 . S
C941 C942 1.388 . S
C942 H929 0.930 . S
C942 C941 1.388 . S
C942 C943 1.390 . S
C943 C942 1.390 . S
C943 C944 1.394 . S
C943 C949 1.465 . S
C944 C939 1.399 . S
C944 C943 1.394 . S
C944 C945 1.516 . S
C945 C944 1.516 . S
C945 C946 1.502 . S
C945 C947 1.561 . S
C945 C948 1.526 . S
C946 H930 0.959 . S
C946 H931 0.959 . S
C946 H932 0.961 . S
C946 C945 1.502 . S
C947 H933 0.960 . S
C947 H934 0.961 . S
C947 H935 0.959 . S
C947 C945 1.561 . S
C948 C945 1.526 . S
C948 C949 1.396 . S
C948 C953 1.390 . S
C949 C943 1.465 . S
C949 C948 1.396 . S
C949 C950 1.399 . S
C950 H936 0.929 . S
C950 C949 1.399 . S
C950 C951 1.385 . S
C951 H937 0.931 . S
C951 C950 1.385 . S
C951 C952 1.389 . S
C952 C951 1.389 . S
C952 C953 1.387 . S
C953 H938 0.930 . S
C953 C948 1.390 . S
C953 C952 1.387 . S
H954 C966 0.930 . S
H955 C968 0.930 . S
H956 C969 0.930 . S
H957 C973 0.959 . S
H958 C973 0.959 . S
H959 C973 0.961 . S
H960 C974 0.960 . S
H961 C974 0.961 1_565 S
H962 C974 0.959 . S
H963 C977 0.929 1_545 S
H964 C978 0.931 . S
H965 C980 0.930 . S
C966 H954 0.930 . S
C966 C967 1.399 . S
C966 C971 1.399 . S
C967 C966 1.399 . S
C967 C968 1.376 . S
C968 H955 0.930 . S
C968 C967 1.376 . S
C968 C969 1.388 . S
C969 H956 0.930 . S
C969 C968 1.388 . S
C969 C970 1.390 . S
C970 C969 1.390 . S
C970 C971 1.394 . S
C970 C976 1.465 . S
C971 C966 1.399 . S
C971 C970 1.394 . S
C971 C972 1.516 . S
C972 C971 1.516 . S
C972 C973 1.502 1_545 S
C972 C974 1.561 . S
C972 C975 1.526 1_545 S
C973 H957 0.959 . S
C973 H958 0.959 . S
C973 H959 0.961 . S
C973 C972 1.502 1_565 S
C974 H960 0.960 . S
C974 H961 0.961 1_545 S
C974 H962 0.959 . S
C974 C972 1.561 . S
C975 C972 1.526 1_565 S
C975 C976 1.396 1_565 S
C975 C980 1.390 . S
C976 C970 1.465 . S
C976 C975 1.396 1_545 S
C976 C977 1.399 1_545 S
C977 H963 0.929 1_565 S
C977 C976 1.399 1_565 S
C977 C978 1.385 . S
C978 H964 0.931 . S
C978 C977 1.385 . S
C978 C979 1.389 . S
C979 C978 1.389 . S
C979 C980 1.387 . S
C980 H965 0.930 . S
C980 C975 1.390 . S
C980 C979 1.387 . S
H981 C993 0.930 . S
H982 C995 0.930 . S
H983 C996 0.930 1_455 S
H984 C1000 0.951 1_455 S
H985 C1000 0.933 1_455 S
H986 C1000 0.970 . S
H987 C1001 0.960 . S
H988 C1001 0.961 . S
H989 C1001 0.959 . S
H990 C1004 0.929 . S
H991 C1005 0.931 . S
H992 C1007 0.930 . S
C993 H981 0.930 . S
C993 C994 1.399 . S
C993 C998 1.399 . S
C994 C993 1.399 . S
C994 C995 1.376 . S
C995 H982 0.930 . S
C995 C994 1.376 . S
C995 C996 1.388 . S
C996 H983 0.930 1_655 S
C996 C995 1.388 . S
C996 C997 1.395 . S
C997 C996 1.395 . S
C997 C998 1.395 . S
C997 C1003 1.458 1_655 S
C998 C993 1.399 . S
C998 C997 1.395 . S
C998 C999 1.516 . S
C999 C998 1.516 . S
C999 C1000 1.510 . S
C999 C1001 1.561 . S
C999 C1002 1.526 1_655 S
C1000 H984 0.951 1_655 S
C1000 H985 0.933 1_655 S
C1000 H986 0.970 . S
C1000 C999 1.510 . S
C1001 H987 0.960 . S
C1001 H988 0.961 . S
C1001 H989 0.959 . S
C1001 C999 1.561 . S
C1002 C999 1.526 1_455 S
C1002 C1003 1.396 . S
C1002 C1007 1.390 . S
C1003 C997 1.458 1_455 S
C1003 C1002 1.396 . S
C1003 C1004 1.399 . S
C1004 H990 0.929 . S
C1004 C1003 1.399 . S
C1004 C1005 1.385 . S
C1005 H991 0.931 . S
C1005 C1004 1.385 . S
C1005 C1006 1.389 . S
C1006 C1005 1.389 . S
C1006 C1007 1.387 . S
C1007 H992 0.930 . S
C1007 C1002 1.390 . S
C1007 C1006 1.387 . S
H1008 C1020 0.930 . S
H1009 C1022 0.930 . S
H1010 C1023 0.930 . S
H1011 C1027 0.959 . S
H1012 C1027 0.959 . S
H1013 C1027 0.961 . S
H1014 C1028 0.960 . S
H1015 C1028 0.961 . S
H1016 C1028 0.959 . S
H1017 C1031 0.929 . S
H1018 C1032 0.931 . S
H1019 C1034 0.930 . S
C1020 H1008 0.930 . S
C1020 C1021 1.399 . S
C1020 C1025 1.399 . S
C1021 C1020 1.399 . S
C1021 C1022 1.376 . S
C1022 H1009 0.930 . S
C1022 C1021 1.376 . S
C1022 C1023 1.388 . S
C1023 H1010 0.930 . S
C1023 C1022 1.388 . S
C1023 C1024 1.390 . S
C1024 C1023 1.390 . S
C1024 C1025 1.394 . S
C1024 C1030 1.465 . S
C1025 C1020 1.399 . S
C1025 C1024 1.394 . S
C1025 C1026 1.516 . S
C1026 C1025 1.516 . S
C1026 C1027 1.502 . S
C1026 C1028 1.561 . S
C1026 C1029 1.526 . S
C1027 H1011 0.959 . S
C1027 H1012 0.959 . S
C1027 H1013 0.961 . S
C1027 C1026 1.502 . S
C1028 H1014 0.960 . S
C1028 H1015 0.961 . S
C1028 H1016 0.959 . S
C1028 C1026 1.561 . S
C1029 C1026 1.526 . S
C1029 C1030 1.396 . S
C1029 C1034 1.390 . S
C1030 C1024 1.465 . S
C1030 C1029 1.396 . S
C1030 C1031 1.399 . S
C1031 H1017 0.929 . S
C1031 C1030 1.399 . S
C1031 C1032 1.385 . S
C1032 H1018 0.931 . S
C1032 C1031 1.385 . S
C1032 C1033 1.389 . S
C1033 C1032 1.389 . S
C1033 C1034 1.387 . S
C1034 H1019 0.930 . S
C1034 C1029 1.390 . S
C1034 C1033 1.387 . S
H1035 C1047 0.930 . S
H1036 C1049 0.930 . S
H1037 C1050 0.930 . S
H1038 C1054 0.959 . S
H1039 C1054 0.959 . S
H1040 C1054 0.961 1_565 S
H1041 C1055 0.960 . S
H1042 C1055 0.961 1_545 S
H1043 C1055 0.959 1_545 S
H1044 C1058 0.929 . S
H1045 C1059 0.931 . S
H1046 C1061 0.930 . S
C1047 H1035 0.930 . S
C1047 C1048 1.399 . S
C1047 C1052 1.399 . S
C1048 C1047 1.399 . S
C1048 C1049 1.376 . S
C1049 H1036 0.930 . S
C1049 C1048 1.376 . S
C1049 C1050 1.388 1_565 S
C1050 H1037 0.930 . S
C1050 C1049 1.388 1_545 S
C1050 C1051 1.390 . S
C1051 C1050 1.390 . S
C1051 C1052 1.394 1_545 S
C1051 C1057 1.465 . S
C1052 C1047 1.399 . S
C1052 C1051 1.394 1_565 S
C1052 C1053 1.516 1_565 S
C1053 C1052 1.516 1_545 S
C1053 C1054 1.502 . S
C1053 C1055 1.561 1_545 S
C1053 C1056 1.526 . S
C1054 H1038 0.959 . S
C1054 H1039 0.959 . S
C1054 H1040 0.961 1_545 S
C1054 C1053 1.502 . S
C1055 H1041 0.960 . S
C1055 H1042 0.961 1_565 S
C1055 H1043 0.959 1_565 S
C1055 C1053 1.561 1_565 S
C1056 C1053 1.526 . S
C1056 C1057 1.396 . S
C1056 C1061 1.390 . S
C1057 C1051 1.465 . S
C1057 C1056 1.396 . S
C1057 C1058 1.399 . S
C1058 H1044 0.929 . S
C1058 C1057 1.399 . S
C1058 C1059 1.385 . S
C1059 H1045 0.931 . S
C1059 C1058 1.385 . S
C1059 C1060 1.389 . S
C1060 C1059 1.389 . S
C1060 C1061 1.387 . S
C1061 H1046 0.930 . S
C1061 C1056 1.390 . S
C1061 C1060 1.387 . S
H1062 C1074 0.930 . S
H1063 C1076 0.930 . S
H1064 C1077 0.930 . S
H1065 C1081 0.959 1_655 S
H1066 C1081 0.959 . S
H1067 C1081 0.961 . S
H1068 C1082 0.960 . S
H1069 C1082 0.961 . S
H1070 C1082 0.959 . S
H1071 C1085 0.929 1_655 S
H1072 C1086 0.931 . S
H1073 C1088 0.930 . S
C1074 H1062 0.930 . S
C1074 C1075 1.399 . S
C1074 C1079 1.399 . S
C1075 C1074 1.399 . S
C1075 C1076 1.376 . S
C1076 H1063 0.930 . S
C1076 C1075 1.376 . S
C1076 C1077 1.388 . S
C1077 H1064 0.930 . S
C1077 C1076 1.388 . S
C1077 C1078 1.390 . S
C1078 C1077 1.390 . S
C1078 C1079 1.394 . S
C1078 C1084 1.465 1_655 S
C1079 C1074 1.399 . S
C1079 C1078 1.394 . S
C1079 C1080 1.516 1_655 S
C1080 C1079 1.516 1_455 S
C1080 C1081 1.502 . S
C1080 C1082 1.561 . S
C1080 C1083 1.526 . S
C1081 H1065 0.959 1_455 S
C1081 H1066 0.959 . S
C1081 H1067 0.961 . S
C1081 C1080 1.502 . S
C1082 H1068 0.960 . S
C1082 H1069 0.961 . S
C1082 H1070 0.959 . S
C1082 C1080 1.561 . S
C1083 C1080 1.526 . S
C1083 C1084 1.396 . S
C1083 C1088 1.390 . S
C1084 C1078 1.465 1_455 S
C1084 C1083 1.396 . S
C1084 C1085 1.399 . S
C1085 H1071 0.929 1_455 S
C1085 C1084 1.399 . S
C1085 C1086 1.385 . S
C1086 H1072 0.931 . S
C1086 C1085 1.385 . S
C1086 C1087 1.389 . S
C1087 C1086 1.389 . S
C1087 C1088 1.387 . S
C1088 H1073 0.930 . S
C1088 C1083 1.390 . S
C1088 C1087 1.387 . S
C373 C10 3.401 . S
C385 C19 3.379 . S
C400 C59 3.467 . S
C412 C50 3.461 . S
C427 C90 3.506 1_556 S
C439 C99 3.500 . S
C454 C139 3.393 . S
C466 C130 3.389 1_556 S
C481 C170 3.469 . S
C493 C179 3.458 1_556 S
C508 C219 3.509 . S
C520 C210 3.496 1_556 S
C535 C247 2.540 . S
C547 C256 2.464 . S
C562 C296 2.873 . S
C574 C287 2.924 . S
C589 C327 2.008 . S
C601 C336 1.915 . S
C616 C202 1.780 . S
C628 C7 1.787 . S
C643 C42 2.748 . S
C655 C122 2.757 . S
C670 C87 1.255 . S
C682 C167 1.225 . S
C697 C82 2.899 . S
C709 C251 3.054 . S
C724 C299 1.214 . S
C736 C2 1.187 . S
C751 C331 1.885 . S
C763 C47 1.796 . S
C778 C330 0.841 . S
C790 C16 0.849 . S
C805 C51 2.138 . S
C817 C250 2.217 . S
C832 C282 2.818 . S
C844 C96 2.669 . S
C859 C91 1.760 . S
C871 C136 1.775 . S
C886 C171 2.739 . S
C898 C11 2.763 . S
C913 C56 1.244 . S
C925 C216 1.251 . S
C940 C339 0.842 . S
C952 C127 0.901 . S
C967 C259 2.220 . S
C979 C162 2.189 . S
C994 C291 2.822 . S
C1006 C207 2.635 . S
C1021 C242 3.051 . S
C1033 C211 2.899 . S
C1048 C131 1.183 . S
C1060 C290 1.203 . S
C1075 C322 1.891 . S
C1087 C176 1.788 . S
