# Generated by pormake.
# Topology ukf, (4)-cn, num edge types: 1
# Building blocks:
#     Node 0, Type 0, BuildingBlock: QUQFOY_clean_sbu_3, # of connection points: 4
#     Node 1, Type 0, BuildingBlock: QUQFOY_clean_sbu_3, # of connection points: 4
#     Node 2, Type 0, BuildingBlock: QUQFOY_clean_sbu_3, # of connection points: 4
#     Node 3, Type 0, BuildingBlock: QUQFOY_clean_sbu_3, # of connection points: 4
#     Node 4, Type 0, BuildingBlock: QUQFOY_clean_sbu_3, # of connection points: 4
#     Node 5, Type 0, BuildingBlock: QUQFOY_clean_sbu_3, # of connection points: 4
#     Node 6, Type 0, BuildingBlock: QUQFOY_clean_sbu_3, # of connection points: 4
#     Node 7, Type 0, BuildingBlock: QUQFOY_clean_sbu_3, # of connection points: 4
#     Node 8, Type 0, BuildingBlock: QUQFOY_clean_sbu_3, # of connection points: 4
#     Node 9, Type 0, BuildingBlock: QUQFOY_clean_sbu_3, # of connection points: 4
#     Node 10, Type 0, BuildingBlock: QUQFOY_clean_sbu_3, # of connection points: 4
#     Node 11, Type 0, BuildingBlock: QUQFOY_clean_sbu_3, # of connection points: 4
#     Edge 12, Type (0, 0), BuildingBlock: MIFKUJ_clean_linker_0, # of connection points: 2
#     Edge 13, Type (0, 0), BuildingBlock: MIFKUJ_clean_linker_0, # of connection points: 2
#     Edge 14, Type (0, 0), BuildingBlock: MIFKUJ_clean_linker_0, # of connection points: 2
#     Edge 15, Type (0, 0), BuildingBlock: MIFKUJ_clean_linker_0, # of connection points: 2
#     Edge 16, Type (0, 0), BuildingBlock: MIFKUJ_clean_linker_0, # of connection points: 2
#     Edge 17, Type (0, 0), BuildingBlock: MIFKUJ_clean_linker_0, # of connection points: 2
#     Edge 18, Type (0, 0), BuildingBlock: MIFKUJ_clean_linker_0, # of connection points: 2
#     Edge 19, Type (0, 0), BuildingBlock: MIFKUJ_clean_linker_0, # of connection points: 2
#     Edge 20, Type (0, 0), BuildingBlock: MIFKUJ_clean_linker_0, # of connection points: 2
#     Edge 21, Type (0, 0), BuildingBlock: MIFKUJ_clean_linker_0, # of connection points: 2
#     Edge 22, Type (0, 0), BuildingBlock: MIFKUJ_clean_linker_0, # of connection points: 2
#     Edge 23, Type (0, 0), BuildingBlock: MIFKUJ_clean_linker_0, # of connection points: 2
#     Edge 24, Type (0, 0), BuildingBlock: MIFKUJ_clean_linker_0, # of connection points: 2
#     Edge 25, Type (0, 0), BuildingBlock: MIFKUJ_clean_linker_0, # of connection points: 2
#     Edge 26, Type (0, 0), BuildingBlock: MIFKUJ_clean_linker_0, # of connection points: 2
#     Edge 27, Type (0, 0), BuildingBlock: MIFKUJ_clean_linker_0, # of connection points: 2
#     Edge 28, Type (0, 0), BuildingBlock: MIFKUJ_clean_linker_0, # of connection points: 2
#     Edge 29, Type (0, 0), BuildingBlock: MIFKUJ_clean_linker_0, # of connection points: 2
#     Edge 30, Type (0, 0), BuildingBlock: MIFKUJ_clean_linker_0, # of connection points: 2
#     Edge 31, Type (0, 0), BuildingBlock: MIFKUJ_clean_linker_0, # of connection points: 2
#     Edge 32, Type (0, 0), BuildingBlock: MIFKUJ_clean_linker_0, # of connection points: 2
#     Edge 33, Type (0, 0), BuildingBlock: MIFKUJ_clean_linker_0, # of connection points: 2
#     Edge 34, Type (0, 0), BuildingBlock: MIFKUJ_clean_linker_0, # of connection points: 2
#     Edge 35, Type (0, 0), BuildingBlock: MIFKUJ_clean_linker_0, # of connection points: 2
# Relax obj value: 0.129
# Max RMSD: 0.097
# Mean RMSD: 0.097
data_MOF--net-ukf--node1-QUQFOY_clean_sbu_3--edge1-MIFKUJ_clean_linker_0
_symmetry_space_group_name_H-M    P1
_symmetry_Int_Tables_number       1
_symmetry_cell_setting            triclinic
loop_
_symmetry_equiv_pos_as_xyz
'x, y, z'
_cell_length_a     41.390649
_cell_length_b     41.335085
_cell_length_c     87.826772
_cell_angle_alpha  90.10263
_cell_angle_beta   89.862811
_cell_angle_gamma 119.91997
loop_
_atom_site_label
_atom_site_type_symbol
_atom_site_fract_x
_atom_site_fract_y
_atom_site_fract_z
_atom_type_partial_charge
C0 C 0.3083 0.16182 0.03094 0.0
O1 O 0.31935 0.18876 0.02164 0.0
Cd2 Cd 0.37917 0.24345 0.02398 0.0
O3 O 0.3273 0.16452 0.04276 0.0
Cd4 Cd 0.38339 0.2125 0.05633 0.0
C5 C 0.43818 0.20754 0.02916 0.0
O6 O 0.38148 0.26816 0.04881 0.0
O7 O 0.43332 0.27715 0.0584 0.0
O8 O 0.34846 0.20137 0.07989 0.0
C9 C 0.41393 0.29094 0.0536 0.0
O10 O 0.42591 0.2239 0.02062 0.0
C11 C 0.36899 0.19314 0.08777 0.0
O12 O 0.42662 0.19877 0.0428 0.0
O13 O 0.39591 0.19285 0.0809 0.0
C14 C 0.13318 0.31609 0.36091 0.0
O15 O 0.12137 0.33061 0.35128 0.0
Cd16 Cd 0.12327 0.3888 0.35547 0.0
O17 O 0.14728 0.33249 0.37347 0.0
Cd18 Cd 0.16066 0.39066 0.38672 0.0
C19 C 0.2177 0.44594 0.35882 0.0
O20 O 0.10181 0.38809 0.3809 0.0
O21 O 0.14552 0.44018 0.38992 0.0
O22 O 0.14526 0.35514 0.41047 0.0
C23 C 0.11168 0.42034 0.38607 0.0
O24 O 0.188 0.43763 0.35151 0.0
C25 C 0.17275 0.38008 0.41788 0.0
O26 O 0.21623 0.4304 0.37151 0.0
O27 O 0.19532 0.40931 0.41063 0.0
C28 C 0.80655 0.12691 0.69462 0.0
O29 O 0.77807 0.11501 0.68612 0.0
Cd30 Cd 0.72249 0.11655 0.69263 0.0
O31 O 0.80747 0.14113 0.70761 0.0
Cd32 Cd 0.76742 0.15525 0.72395 0.0
C33 C 0.76166 0.21162 0.69718 0.0
O34 O 0.70893 0.09819 0.71863 0.0
O35 O 0.70545 0.14048 0.73183 0.0
O36 O 0.79113 0.13847 0.74626 0.0
C37 C 0.68893 0.10824 0.72594 0.0
O38 O 0.73994 0.18189 0.68992 0.0
C39 C 0.79786 0.16733 0.75386 0.0
O40 O 0.77745 0.21033 0.70943 0.0
O41 O 0.79223 0.19134 0.74722 0.0
C42 C 0.67496 0.81978 0.02761 0.0
O43 O 0.66302 0.7949 0.01732 0.0
Cd44 Cd 0.60427 0.73867 0.01937 0.0
O45 O 0.65639 0.81467 0.03983 0.0
Cd46 Cd 0.59845 0.76546 0.0518 0.0
C47 C 0.54497 0.7734 0.0249 0.0
O48 O 0.6002 0.70989 0.04359 0.0
O49 O 0.54727 0.70141 0.05186 0.0
O50 O 0.62948 0.77215 0.0761 0.0
C51 C 0.56698 0.68737 0.04768 0.0
O52 O 0.55679 0.75691 0.01615 0.0
C53 C 0.60884 0.78086 0.0837 0.0
O54 O 0.55682 0.78178 0.03851 0.0
O55 O 0.58359 0.78314 0.0764 0.0
C56 C 0.84579 0.67737 0.36091 0.0
O57 O 0.85986 0.66426 0.35161 0.0
Cd58 Cd 0.85453 0.60452 0.35459 0.0
O59 O 0.82927 0.65931 0.37291 0.0
Cd60 Cd 0.81703 0.60065 0.38571 0.0
C61 C 0.75955 0.54767 0.35768 0.0
O62 O 0.87557 0.60252 0.3798 0.0
O63 O 0.83038 0.54958 0.38742 0.0
O64 O 0.83377 0.63342 0.41014 0.0
C65 C 0.86466 0.56951 0.38423 0.0
O66 O 0.78903 0.55785 0.34985 0.0
C67 C 0.80543 0.60867 0.41722 0.0
O68 O 0.76134 0.5607 0.37098 0.0
O69 O 0.78176 0.58102 0.40948 0.0
C70 C 0.17112 0.86596 0.69187 0.0
O71 O 0.19717 0.87653 0.68205 0.0
Cd72 Cd 0.25546 0.87602 0.6828 0.0
O73 O 0.17336 0.8531 0.70478 0.0
Cd74 Cd 0.21724 0.84078 0.71895 0.0
C75 C 0.22212 0.78338 0.69054 0.0
O76 O 0.27354 0.88918 0.70834 0.0
O77 O 0.27434 0.88832 0.73259 0.0
O78 O 0.18118 0.83838 0.74121 0.0
C79 C 0.29182 0.90267 0.72038 0.0
O80 O 0.23657 0.81031 0.68107 0.0
C81 C 0.18796 0.81578 0.74846 0.0
O82 O 0.21399 0.78807 0.70411 0.0
O83 O 0.20642 0.80316 0.74152 0.0
C84 C 0.81268 0.66662 0.6355 0.0
O85 O 0.78578 0.65663 0.64476 0.0
Cd86 Cd 0.72928 0.59824 0.64199 0.0
O87 O 0.80939 0.64655 0.62394 0.0
Cd88 Cd 0.76168 0.58885 0.61141 0.0
C89 C 0.76377 0.53768 0.64061 0.0
O90 O 0.70677 0.59468 0.61654 0.0
O91 O 0.69664 0.54015 0.60981 0.0
O92 O 0.78342 0.62313 0.58751 0.0
C93 C 0.68365 0.56158 0.61251 0.0
O94 O 0.74471 0.54938 0.64773 0.0
C95 C 0.78326 0.59661 0.58015 0.0
O96 O 0.77611 0.54953 0.62728 0.0
O97 O 0.77419 0.56678 0.58746 0.0
C98 C 0.13504 0.81713 0.969 0.0
O99 O 0.11917 0.78832 0.97736 0.0
Cd100 Cd 0.12455 0.73436 0.97252 0.0
O101 O 0.15223 0.81719 0.95692 0.0
Cd102 Cd 0.16326 0.77276 0.94185 0.0
C103 C 0.21982 0.77259 0.96928 0.0
O104 O 0.10452 0.71581 0.94681 0.0
O105 O 0.14897 0.7087 0.93762 0.0
O106 O 0.14593 0.79274 0.91864 0.0
C107 C 0.11488 0.69419 0.9412 0.0
O108 O 0.19016 0.75277 0.97693 0.0
C109 C 0.17414 0.79772 0.91102 0.0
O110 O 0.2184 0.78529 0.95626 0.0
O111 O 0.19819 0.79277 0.91798 0.0
C112 C 0.30575 0.12839 0.30938 0.0
O113 O 0.32209 0.11661 0.31808 0.0
Cd114 Cd 0.38096 0.12216 0.31212 0.0
O115 O 0.31994 0.14288 0.29654 0.0
Cd116 Cd 0.37535 0.15558 0.28114 0.0
C117 C 0.43539 0.21667 0.30693 0.0
O118 O 0.37741 0.09894 0.28672 0.0
O119 O 0.42688 0.14415 0.27652 0.0
O120 O 0.34062 0.1336 0.25737 0.0
C121 C 0.40897 0.11021 0.28056 0.0
O122 O 0.42756 0.18835 0.31517 0.0
C123 C 0.35898 0.16441 0.25039 0.0
O124 O 0.41916 0.21292 0.29423 0.0
O125 O 0.38407 0.19155 0.25791 0.0
C126 C 0.16396 0.31817 0.6382 0.0
O127 O 0.19162 0.33195 0.64719 0.0
Cd128 Cd 0.24673 0.39043 0.64314 0.0
O129 O 0.16504 0.3349 0.62586 0.0
Cd130 Cd 0.21079 0.39187 0.61188 0.0
C131 C 0.20967 0.44827 0.6395 0.0
O132 O 0.26698 0.38905 0.61769 0.0
O133 O 0.27538 0.44095 0.60841 0.0
O134 O 0.19096 0.35577 0.58822 0.0
C135 C 0.28931 0.42107 0.61237 0.0
O136 O 0.22906 0.43821 0.6473 0.0
C137 C 0.18839 0.38057 0.58068 0.0
O138 O 0.19749 0.43428 0.6264 0.0
O139 O 0.19463 0.40983 0.58784 0.0
C140 C 0.85544 0.18081 0.97479 0.0
O141 O 0.8694 0.21053 0.98264 0.0
Cd142 Cd 0.86488 0.26374 0.97544 0.0
O143 O 0.83961 0.17884 0.96212 0.0
Cd144 Cd 0.82694 0.21977 0.94558 0.0
C145 C 0.76961 0.22253 0.9722 0.0
O146 O 0.88475 0.27846 0.94942 0.0
O147 O 0.83881 0.28236 0.93988 0.0
O148 O 0.84429 0.19645 0.92321 0.0
C149 C 0.87311 0.29838 0.94322 0.0
O150 O 0.79917 0.24481 0.97941 0.0
C151 C 0.81591 0.19017 0.91545 0.0
O152 O 0.77132 0.20747 0.9598 0.0
O153 O 0.79195 0.19614 0.92196 0.0
C154 C 0.67111 0.85709 0.30518 0.0
O155 O 0.65381 0.86797 0.31385 0.0
Cd156 Cd 0.59617 0.86464 0.3072 0.0
O157 O 0.65791 0.84282 0.29221 0.0
Cd158 Cd 0.60196 0.8272 0.27684 0.0
C159 C 0.54138 0.76985 0.30354 0.0
O160 O 0.6008 0.88459 0.28133 0.0
O161 O 0.55099 0.83926 0.27148 0.0
O162 O 0.63753 0.84655 0.25318 0.0
C163 C 0.56929 0.87341 0.27521 0.0
O164 O 0.54792 0.7995 0.31056 0.0
C165 C 0.61842 0.81559 0.24638 0.0
O166 O 0.55933 0.77153 0.29148 0.0
O167 O 0.59246 0.78934 0.25398 0.0
H168 H 0.0879 0.82422 0.98884 0.0
H169 H 0.09454 0.88216 -0.0007 0.0
H170 H 0.19292 0.94555 0.97168 0.0
H171 H 0.18513 0.88818 0.96067 0.0
H172 H 0.14295 0.92773 0.01642 0.0
H173 H 0.21525 0.03025 0.96469 0.0
H174 H 0.20501 0.03087 0.93709 0.0
H175 H 0.0903 0.94642 0.9427 0.0
H176 H 0.09962 0.94566 0.97037 0.0
H177 H 0.29448 0.09245 0.0384 0.0
H178 H 0.24404 0.0333 0.02921 0.0
H179 H 0.1946 0.091 0.00674 0.0
H180 H 0.24695 0.15076 0.01507 0.0
H181 H 0.1936 0.04698 0.98814 0.0
H182 H 0.14995 0.02572 0.03796 0.0
H183 H 0.15035 0.02453 0.06601 0.0
H184 H 0.18943 0.9459 0.06501 0.0
H185 H 0.18984 0.94701 0.03696 0.0
C186 C 0.1104 0.85064 0.98477 0.0
C187 C 0.13607 0.85174 0.97397 0.0
C188 C 0.11419 0.88372 0.99076 0.0
C189 C 0.14401 0.91841 0.9862 0.0
C190 C 0.16897 0.91938 0.97508 0.0
C191 C 0.16472 0.88644 0.96887 0.0
C192 C 0.15218 0.95332 0.99426 0.0
C193 C 0.15348 0.95377 0.01025 0.0
C194 C 0.16397 0.98717 0.98633 0.0
C195 C 0.15819 0.98786 0.96965 0.0
C196 C 0.18774 0.01203 0.96008 0.0
C197 C 0.18212 0.01234 0.9444 0.0
C198 C 0.14705 0.98868 0.93814 0.0
C199 C 0.11749 0.96468 0.94755 0.0
C200 C 0.12294 0.96426 0.96324 0.0
C201 C 0.27248 0.09246 0.03174 0.0
C202 C 0.27466 0.12609 0.02736 0.0
C203 C 0.2433 0.05851 0.0266 0.0
C204 C 0.21491 0.05735 0.01744 0.0
C205 C 0.21609 0.09101 0.01375 0.0
C206 C 0.24595 0.12512 0.01853 0.0
C207 C 0.1872 0.02159 0.01022 0.0
C208 C 0.18202 0.02095 0.99439 0.0
C209 C 0.17015 0.9875 0.01837 0.0
C210 C 0.16993 0.98649 0.0353 0.0
C211 C 0.15881 0.00831 0.04371 0.0
C212 C 0.15889 0.00764 0.05962 0.0
C213 C 0.1699 0.98515 0.06729 0.0
C214 C 0.18083 0.96325 0.05905 0.0
C215 C 0.18083 0.96382 0.04314 0.0
H216 H 0.16996 0.98469 0.07961 0.0
H217 H 0.14277 0.98895 0.926 0.0
H218 H 0.13774 0.2671 0.38037 0.0
H219 H 0.14873 0.21597 0.37361 0.0
H220 H 0.14247 0.23736 0.32593 0.0
H221 H 0.12986 0.28733 0.33262 0.0
H222 H 0.11728 0.16514 0.33005 0.0
H223 H 0.22613 0.28067 0.34551 0.0
H224 H 0.26332 0.33273 0.36312 0.0
H225 H 0.25893 0.25524 0.3967 0.0
H226 H 0.22129 0.20267 0.37933 0.0
H227 H 0.26302 0.15088 0.29394 0.0
H228 H 0.21558 0.1629 0.30466 0.0
H229 H 0.22523 0.1195 0.34798 0.0
H230 H 0.2728 0.10744 0.3374 0.0
H231 H 0.24036 0.19119 0.34957 0.0
H232 H 0.14326 0.07683 0.32971 0.0
H233 H 0.1096 0.02817 0.31037 0.0
H234 H 0.09574 0.10638 0.28302 0.0
H235 H 0.1298 0.15571 0.30209 0.0
C236 C 0.13791 0.26033 0.36846 0.0
C237 C 0.13367 0.28162 0.35701 0.0
C238 C 0.14415 0.23112 0.36461 0.0
C239 C 0.14735 0.2235 0.34926 0.0
C240 C 0.14024 0.24283 0.33785 0.0
C241 C 0.13324 0.27154 0.34169 0.0
C242 C 0.16292 0.19929 0.34505 0.0
C243 C 0.14416 0.17071 0.33431 0.0
C244 C 0.19773 0.20621 0.35081 0.0
C245 C 0.22053 0.23776 0.36121 0.0
C246 C 0.23291 0.27475 0.35669 0.0
C247 C 0.25408 0.30433 0.36661 0.0
C248 C 0.26337 0.29729 0.38104 0.0
C249 C 0.25162 0.26064 0.38554 0.0
C250 C 0.23038 0.23095 0.37566 0.0
C251 C 0.25443 0.14302 0.30564 0.0
C252 C 0.27218 0.12883 0.31489 0.0
C253 C 0.22705 0.14962 0.31172 0.0
C254 C 0.21692 0.14206 0.32711 0.0
C255 C 0.23266 0.12545 0.33607 0.0
C256 C 0.25992 0.11868 0.32999 0.0
C257 C 0.1951 0.15738 0.33435 0.0
C258 C 0.21292 0.18466 0.34562 0.0
C259 C 0.15989 0.14966 0.32883 0.0
C260 C 0.1393 0.12006 0.31732 0.0
C261 C 0.1333 0.08376 0.31952 0.0
C262 C 0.11409 0.05603 0.30861 0.0
C263 C 0.10058 0.06419 0.29547 0.0
C264 C 0.10621 0.1001 0.29321 0.0
C265 C 0.12542 0.12794 0.30408 0.0
H266 H 0.08571 0.04268 0.28704 0.0
H267 H 0.27977 0.32022 0.38871 0.0
H268 H 0.86274 0.12758 0.71102 0.0
H269 H 0.92408 0.14206 0.70151 0.0
H270 H 0.8892 0.14612 0.65561 0.0
H271 H 0.82733 0.12978 0.66498 0.0
H272 H 0.93911 0.12412 0.65495 0.0
H273 H 0.9296 0.2247 0.67867 0.0
H274 H 0.9149 0.25531 0.69954 0.0
H275 H -0.00646 0.24634 0.72849 0.0
H276 H 0.00836 0.21525 0.70782 0.0
H277 H 0.09792 0.2819 0.62263 0.0
H278 H 0.03827 0.23209 0.63223 0.0
H279 H 0.09168 0.22769 0.67366 0.0
H280 H 0.15136 0.27745 0.66422 0.0
H281 H 0.03532 0.2425 0.67843 0.0
H282 H 0.05322 0.15307 0.65084 0.0
H283 H 0.06749 0.12635 0.62844 0.0
H284 H 0.97336 0.11909 0.60484 0.0
H285 H 0.95881 0.14629 0.62702 0.0
C286 C 0.8679 0.13059 0.69887 0.0
C287 C 0.84059 0.12827 0.68876 0.0
C288 C 0.90292 0.13888 0.69345 0.0
C289 C 0.91153 0.14625 0.67791 0.0
C290 C 0.88326 0.14075 0.66766 0.0
C291 C 0.84794 0.13156 0.67304 0.0
C292 C 0.95075 0.16471 0.67262 0.0
C293 C 0.96022 0.15 0.66006 0.0
C294 C 0.97837 0.19832 0.67939 0.0
C295 C 0.96974 0.21728 0.69178 0.0
C296 C 0.94358 0.22908 0.68952 0.0
C297 C 0.93524 0.24651 0.70131 0.0
C298 C 0.95319 0.25265 0.71535 0.0
C299 C 0.97961 0.24148 0.71762 0.0
C300 C 0.98799 0.22396 0.70587 0.0
C301 C 0.09716 0.26979 0.63364 0.0
C302 C 0.12928 0.28409 0.64277 0.0
C303 C 0.06309 0.24112 0.63906 0.0
C304 C 0.06064 0.22624 0.65365 0.0
C305 C 0.09306 0.23882 0.66237 0.0
C306 C 0.12711 0.26737 0.65696 0.0
C307 C 0.02376 0.20213 0.66068 0.0
C308 C 0.0146 0.21608 0.67353 0.0
C309 C -0.00354 0.1684 0.65395 0.0
C310 C 0.00507 0.15197 0.64058 0.0
C311 C 0.03573 0.14607 0.64083 0.0
C312 C 0.04383 0.13077 0.62818 0.0
C313 C 0.02138 0.12109 0.61522 0.0
C314 C -0.00927 0.12661 0.61489 0.0
C315 C 0.98251 0.14192 0.62751 0.0
H316 H 0.02771 0.10924 0.60543 0.0
H317 H 0.94669 0.26615 0.72447 0.0
H318 H 0.71264 0.84589 0.0008 0.0
H319 H 0.76058 0.90962 0.99506 0.0
H320 H 0.76201 0.94021 0.04217 0.0
H321 H 0.71302 0.87654 0.04793 0.0
H322 H 0.75084 0.98406 0.02505 0.0
H323 H 0.84014 0.94437 0.0244 0.0
H324 H 0.86718 0.90467 0.01812 0.0
H325 H 0.86628 0.9283 0.97059 0.0
H326 H 0.83872 0.96772 0.97654 0.0
H327 H 0.87179 0.17014 0.00383 0.0
H328 H 0.8581 0.11099 0.01545 0.0
H329 H 0.82205 0.05598 0.97198 0.0
H330 H 0.83536 0.11494 0.96021 0.0
H331 H 0.86109 0.02892 0.99118 0.0
H332 H 0.75893 0.0558 0.9923 0.0
H333 H 0.73066 0.09455 0.99843 0.0
H334 H 0.75641 0.09381 0.04572 0.0
H335 H 0.7853 0.05544 0.03981 0.0
C336 C 0.72372 0.86591 0.01003 0.0
C337 C 0.70864 0.85629 0.02478 0.0
C338 C 0.75144 0.90238 0.00675 0.0
C339 C 0.76509 0.92975 0.0182 0.0
C340 C 0.75185 0.91956 0.03315 0.0
C341 C 0.72381 0.88317 0.03642 0.0
C342 C 0.78866 0.96964 0.01406 0.0
C343 C 0.77562 -0.00597 0.01803 0.0
C344 C 0.82053 0.98258 0.00461 0.0
C345 C 0.83715 0.95889 0.00093 0.0
C346 C 0.84544 0.9409 0.0126 0.0
C347 C 0.86092 0.91847 0.00909 0.0
C348 C 0.8684 0.91393 0.99396 0.0
C349 C 0.86048 0.93186 0.98231 0.0
C350 C 0.84499 0.9543 0.98574 0.0
C351 C 0.86181 0.14569 0.99664 0.0
C352 C 0.85404 0.14706 0.98114 0.0
C353 C 0.8541 0.11197 0.00331 0.0
C354 C 0.8388 0.07924 0.99457 0.0
C355 C 0.83393 0.08107 0.97887 0.0
C356 C 0.84129 0.11471 0.9722 0.0
C357 C 0.82275 0.04249 0.00206 0.0
C358 C 0.83701 0.01889 0.99861 0.0
C359 C 0.792 0.03011 0.01204 0.0
C360 C 0.77471 0.05322 0.01559 0.0
C361 C 0.75889 0.06423 0.00398 0.0
C362 C 0.74268 0.08604 0.00742 0.0
C363 C 0.74186 0.09675 0.02245 0.0
C364 C 0.75716 0.08558 0.03408 0.0
C365 C 0.77344 0.0638 0.03069 0.0
H366 H 0.72927 0.11361 0.02509 0.0
H367 H 0.88038 0.89655 0.99128 0.0
H368 H 0.69083 0.85622 0.33464 0.0
H369 H 0.73968 0.84477 0.34375 0.0
H370 H 0.77751 0.8488 0.29755 0.0
H371 H 0.72709 0.85817 0.28831 0.0
H372 H 0.76604 0.78895 0.30925 0.0
H373 H 0.83368 0.91359 0.32685 0.0
H374 H 0.84472 0.97143 0.33957 0.0
H375 H 0.8133 0.91438 0.38253 0.0
H376 H 0.80154 0.85603 0.37005 0.0
H377 H 0.88078 0.72421 0.33696 0.0
H378 H 0.87075 0.77421 0.3278 0.0
H379 H 0.8004 0.759 0.36655 0.0
H380 H 0.81051 0.70914 0.37594 0.0
H381 H 0.84207 0.83481 0.35625 0.0
H382 H 0.76091 0.70881 0.33637 0.0
H383 H 0.74988 0.65104 0.32353 0.0
H384 H 0.8091 0.71427 0.28408 0.0
H385 H 0.8209 0.77249 0.2968 0.0
C386 C 0.71011 0.85556 0.32645 0.0
C387 C 0.70491 0.85757 0.31076 0.0
C388 C 0.73836 0.84937 0.33169 0.0
C389 C 0.7626 0.84615 0.32137 0.0
C390 C 0.7591 0.85103 0.30574 0.0
C391 C 0.73028 0.85633 0.30047 0.0
C392 C 0.78707 0.83166 0.32662 0.0
C393 C 0.78359 0.79991 0.31925 0.0
C394 C 0.80943 0.84524 0.33987 0.0
C395 C 0.81657 0.88033 0.34748 0.0
C396 C 0.82888 0.91328 0.339 0.0
C397 C 0.83531 0.94619 0.34617 0.0
C398 C 0.82967 0.94657 0.36184 0.0
C399 C 0.81767 0.91405 0.37039 0.0
C400 C 0.81119 0.88106 0.36327 0.0
C401 C 0.86387 0.73204 0.34375 0.0
C402 C 0.84571 0.71211 0.357 0.0
C403 C 0.85836 0.76077 0.33852 0.0
C404 C 0.83442 0.76982 0.34639 0.0
C405 C 0.81899 0.75236 0.36033 0.0
C406 C 0.82458 0.72367 0.36561 0.0
C407 C 0.82032 0.79234 0.33894 0.0
C408 C 0.82549 0.82507 0.34596 0.0
C409 C 0.79964 0.77999 0.32529 0.0
C410 C 0.79215 0.74497 0.31759 0.0
C411 C 0.77178 0.71038 0.325 0.0
C412 C 0.76537 0.67758 0.31774 0.0
C413 C 0.77888 0.679 0.30302 0.0
C414 C 0.79872 0.71322 0.2955 0.0
C415 C 0.80528 0.74612 0.30272 0.0
H416 H 0.77389 0.65357 0.29742 0.0
H417 H 0.83465 0.97207 0.36737 0.0
H418 H 0.82987 0.71733 0.65858 0.0
H419 H 0.89212 0.76602 0.66636 0.0
H420 H 0.94001 0.7396 0.62799 0.0
H421 H 0.87811 0.69107 0.62007 0.0
H422 H 0.9667 0.73279 0.65606 0.0
H423 H 0.94651 0.8213 0.62873 0.0
H424 H 0.91294 0.85427 0.62159 0.0
H425 H 0.92263 0.89463 0.66738 0.0
H426 H 0.95579 0.86143 0.67486 0.0
H427 H 0.15573 0.89168 0.66569 0.0
H428 H 0.09377 0.87259 0.65561 0.0
H429 H 0.04401 0.81478 0.6975 0.0
H430 H 0.1056 0.83381 0.70777 0.0
H431 H 0.02033 0.86829 0.66608 0.0
H432 H -0.00865 0.72482 0.685 0.0
H433 H 0.02554 0.69233 0.6921 0.0
H434 H 0.11421 0.76214 0.66148 0.0
H435 H 0.08021 0.79451 0.65402 0.0
C436 C 0.85356 0.7224 0.65161 0.0
C437 C 0.84911 0.69994 0.63884 0.0
C438 C 0.88905 0.75038 0.65603 0.0
C439 C 0.92052 0.75623 0.64775 0.0
C440 C 0.91596 0.73541 0.6345 0.0
C441 C 0.88055 0.70765 0.63002 0.0
C442 C 0.95822 0.78001 0.65403 0.0
C443 C 0.97842 0.76245 0.65814 0.0
C444 C 0.97332 0.81862 0.65684 0.0
C445 C 0.95334 0.83857 0.65239 0.0
C446 C 0.94117 0.8369 0.63731 0.0
C447 C 0.92228 0.8557 0.6332 0.0
C448 C 0.91557 0.87645 0.64403 0.0
C449 C 0.92781 0.87851 0.659 0.0
C450 C 0.94669 0.85974 0.66318 0.0
C451 C 0.13171 0.87597 0.67297 0.0
C452 C 0.13552 0.86343 0.68739 0.0
C453 C 0.09637 0.86539 0.66722 0.0
C454 C 0.06455 0.842 0.67577 0.0
C455 C 0.06841 0.83284 0.69076 0.0
C456 C 0.10368 0.84359 0.69656 0.0
C457 C 0.02823 0.82081 0.66811 0.0
C458 C 0.0084 0.83868 0.66387 0.0
C459 C 0.01328 0.78238 0.66506 0.0
C460 C 0.03344 0.76233 0.6691 0.0
C461 C 0.01806 0.73308 0.67974 0.0
C462 C 0.0374 0.71469 0.68382 0.0
C463 C 0.07208 0.72525 0.67729 0.0
C464 C 0.0874 0.75407 0.66658 0.0
C465 C 0.06812 0.77246 0.66243 0.0
H466 H 0.08705 0.71103 0.68048 0.0
H467 H 0.90096 0.891 0.64082 0.0
H468 H 0.75294 0.23461 0.00103 0.0
H469 H 0.69307 0.22486 0.0105 0.0
H470 H 0.64398 0.18448 0.96634 0.0
H471 H 0.70363 0.19366 0.95678 0.0
H472 H 0.63293 0.24259 0.97942 0.0
H473 H 0.62105 0.1238 0.99266 0.0
H474 H 0.64293 0.08419 0.00455 0.0
H475 H 0.64304 0.1304 0.04838 0.0
H476 H 0.62183 0.17082 0.03671 0.0
H477 H 0.45126 0.19619 -0.00025 0.0
H478 H 0.50373 0.1909 0.98995 0.0
H479 H 0.54598 0.20103 0.03565 0.0
H480 H 0.49231 0.20413 0.04556 0.0
H481 H 0.55998 0.15578 0.02118 0.0
H482 H 0.57914 0.27724 0.00987 0.0
H483 H 0.56384 0.32351 -0.00037 0.0
H484 H 0.55702 0.28034 0.95452 0.0
H485 H 0.57182 0.23348 0.96453 0.0
C486 C 0.72935 0.22343 0.99335 0.0
C487 C 0.73302 0.21496 0.97814 0.0
C488 C 0.69518 0.21776 0.9988 0.0
C489 C 0.6642 0.20386 0.98911 0.0
C490 C 0.66764 0.19517 0.97397 0.0
C491 C 0.70167 0.20032 0.96856 0.0
C492 C 0.62864 0.19992 0.99464 0.0
C493 C 0.61654 0.22316 0.98836 0.0
C494 C 0.60827 0.17557 0.0067 0.0
C495 C 0.62013 0.15057 0.01378 0.0
C496 C 0.62598 0.12571 0.00482 0.0
C497 C 0.63824 0.10309 0.01152 0.0
C498 C 0.64444 0.10482 0.02721 0.0
C499 C 0.63825 0.12909 0.03623 0.0
C500 C 0.62608 0.15185 0.02958 0.0
C501 C 0.47153 0.19683 0.00771 0.0
C502 C 0.46792 0.2009 0.02339 0.0
C503 C 0.50164 0.19403 0.0021 0.0
C504 C 0.52947 0.19662 0.012 0.0
C505 C 0.52503 0.19912 0.02775 0.0
C506 C 0.49438 0.20096 0.03341 0.0
C507 C 0.56393 0.19846 0.00591 0.0
C508 C 0.57604 0.175 0.01213 0.0
C509 C 0.58498 0.22339 0.99404 0.0
C510 C 0.57619 0.25161 0.98797 0.0
C511 C 0.57412 0.27746 0.99778 0.0
C512 C 0.56558 0.3038 0.99202 0.0
C513 C 0.55936 0.30479 0.97644 0.0
C514 C 0.56178 0.2795 0.96659 0.0
C515 C 0.57027 0.25306 0.9723 0.0
H516 H 0.55275 0.32521 0.972 0.0
H517 H 0.65398 0.08733 0.03237 0.0
H518 H 0.23023 0.49552 0.33598 0.0
H519 H 0.28991 0.54483 0.32648 0.0
H520 H 0.34749 0.51056 0.35772 0.0
H521 H 0.28757 0.46182 0.36772 0.0
H522 H 0.37907 0.58164 0.35836 0.0
H523 H 0.34485 0.4941 0.31831 0.0
H524 H 0.3045 0.44924 0.2988 0.0
H525 H 0.2978 0.53673 0.27533 0.0
H526 H 0.33769 0.58206 0.29482 0.0
H527 H 0.52667 0.7 0.29481 0.0
H528 H 0.47751 0.63981 0.30445 0.0
H529 H 0.43978 0.69687 0.33455 0.0
H530 H 0.48932 0.75681 0.32538 0.0
H531 H 0.40586 0.60706 0.30322 0.0
H532 H 0.40293 0.65008 0.36639 0.0
H533 H 0.44737 0.69101 0.3859 0.0
H534 H 0.53612 0.6848 0.36321 0.0
H535 H 0.49214 0.64342 0.34368 0.0
C536 C 0.25555 0.49823 0.34077 0.0
C537 C 0.25412 0.47469 0.35261 0.0
C538 C 0.28974 0.52635 0.33525 0.0
C539 C 0.32332 0.5311 0.34118 0.0
C540 C 0.32199 0.50742 0.35293 0.0
C541 C 0.28772 0.47955 0.35862 0.0
C542 C 0.35959 0.56204 0.33563 0.0
C543 C 0.38503 0.58701 0.3463 0.0
C544 C 0.36804 0.56856 0.3199 0.0
C545 C 0.34411 0.54145 0.3081 0.0
C546 C 0.33458 0.50374 0.30905 0.0
C547 C 0.31182 0.47823 0.29798 0.0
C548 C 0.29855 0.49011 0.28585 0.0
C549 C 0.30809 0.52757 0.28474 0.0
C550 C 0.33083 0.5532 0.29578 0.0
C551 C 0.50805 0.69969 0.30357 0.0
C552 C 0.51206 0.73323 0.30938 0.0
C553 C 0.47993 0.66526 0.30905 0.0
C554 C 0.45525 0.66374 0.32041 0.0
C555 C 0.45903 0.69723 0.32609 0.0
C556 C 0.4873 0.73156 0.32075 0.0
C557 C 0.42454 0.62734 0.32596 0.0
C558 C 0.40015 0.60138 0.31528 0.0
C559 C 0.41766 0.61928 0.34169 0.0
C560 C 0.44423 0.64383 0.35351 0.0
C561 C 0.43188 0.65727 0.36561 0.0
C562 C 0.45701 0.6806 0.37666 0.0
C563 C 0.49456 0.69057 0.37577 0.0
C564 C 0.50705 0.67715 0.36386 0.0
C565 C 0.48204 0.6538 0.35278 0.0
H566 H 0.51397 0.70866 0.38434 0.0
H567 H 0.28093 0.47032 0.27729 0.0
H568 H 0.73461 0.22418 0.67092 0.0
H569 H 0.74079 0.28268 0.66194 0.0
H570 H 0.80706 0.33963 0.70133 0.0
H571 H 0.8014 0.28098 0.71039 0.0
H572 H 0.71608 0.32411 0.67505 0.0
H573 H 0.86807 0.43167 0.69084 0.0
H574 H 0.92876 0.43472 0.69399 0.0
H575 H 0.89516 0.34374 0.6626 0.0
H576 H 0.83451 0.3405 0.6591 0.0
H577 H 0.73936 0.50416 0.66838 0.0
H578 H 0.74496 0.45256 0.67892 0.0
H579 H 0.80749 0.45358 0.6394 0.0
H580 H 0.80236 0.50548 0.62878 0.0
H581 H 0.83549 0.44115 0.66585 0.0
H582 H 0.71699 0.39327 0.6407 0.0
H583 H 0.65633 0.38872 0.63551 0.0
H584 H 0.6229 0.35667 0.68191 0.0
H585 H 0.68362 0.36155 0.68743 0.0
C586 C 0.75075 0.24912 0.67767 0.0
C587 C 0.76741 0.24781 0.69142 0.0
C588 C 0.75416 0.28256 0.67252 0.0
C589 C 0.77438 0.31551 0.68095 0.0
C590 C 0.79162 0.31458 0.69457 0.0
C591 C 0.78827 0.28102 0.69975 0.0
C592 C 0.77598 0.35033 0.67566 0.0
C593 C 0.74222 0.34971 0.67311 0.0
C594 C 0.81007 0.38365 0.67298 0.0
C595 C 0.8466 0.38559 0.67485 0.0
C596 C 0.87369 0.4124 0.68458 0.0
C597 C 0.90807 0.41415 0.68642 0.0
C598 C 0.91575 0.38935 0.67854 0.0
C599 C 0.88911 0.36283 0.66875 0.0
C600 C 0.85471 0.36099 0.66685 0.0
C601 C 0.75467 0.49374 0.66197 0.0
C602 C 0.77006 0.50871 0.64764 0.0
C603 C 0.75783 0.46422 0.66803 0.0
C604 C 0.77627 0.449 0.65985 0.0
C605 C 0.79314 0.46495 0.64588 0.0
C606 C 0.79 0.49449 0.6398 0.0
C607 C 0.77561 0.41481 0.66534 0.0
C608 C 0.80943 0.41557 0.66794 0.0
C609 C 0.74158 0.38133 0.66782 0.0
C610 C 0.70498 0.37816 0.66451 0.0
C611 C 0.69681 0.38553 0.64982 0.0
C612 C 0.6624 0.38285 0.64682 0.0
C613 C 0.63581 0.37251 0.65838 0.0
C614 C 0.64354 0.36473 0.67297 0.0
C615 C 0.67794 0.36743 0.67604 0.0
H616 H 0.60919 0.37044 0.65603 0.0
H617 H 0.94237 0.39073 0.68 0.0
H618 H 0.23694 0.76488 0.99864 0.0
H619 H 0.29586 0.77231 0.00814 0.0
H620 H 0.34311 0.80218 0.96307 0.0
H621 H 0.28457 0.79539 0.95349 0.0
H622 H 0.34903 0.74298 0.9777 0.0
H623 H 0.37318 0.86791 0.98756 0.0
H624 H 0.35905 0.91466 0.99826 0.0
H625 H 0.3578 0.8741 0.04336 0.0
H626 H 0.37139 0.82671 0.0329 0.0
H627 H 0.52966 0.78183 0.99548 0.0
H628 H 0.47798 0.78885 0.98613 0.0
H629 H 0.44129 0.78703 0.03233 0.0
H630 H 0.4941 0.78185 0.04177 0.0
H631 H 0.43012 0.83362 0.0169 0.0
H632 H 0.40138 0.70769 0.00861 0.0
H633 H 0.4115 0.65708 -0.00067 0.0
H634 H 0.41594 0.69379 0.95328 0.0
H635 H 0.40633 0.74495 0.9623 0.0
C636 C 0.25998 0.77338 0.99077 0.0
C637 C 0.25607 0.77946 0.9753 0.0
C638 C 0.29362 0.77774 0.99624 0.0
C639 C 0.32375 0.78787 0.9863 0.0
C640 C 0.32013 0.79442 0.97091 0.0
C641 C 0.28671 0.79062 0.96548 0.0
C642 C 0.35828 0.78947 0.99177 0.0
C643 C 0.36717 0.76317 0.98608 0.0
C644 C 0.38096 0.81493 0.00312 0.0
C645 C 0.37295 0.84352 0.00943 0.0
C646 C 0.36956 0.86873 -0.00025 0.0
C647 C 0.36172 0.8954 0.00577 0.0
C648 C 0.35743 0.89729 0.02148 0.0
C649 C 0.36108 0.87257 0.03119 0.0
C650 C 0.36889 0.84583 0.02523 0.0
C651 C 0.51078 0.78331 0.00365 0.0
C652 C 0.51568 0.78093 0.01935 0.0
C653 C 0.48113 0.78713 0.99829 0.0
C654 C 0.45511 0.78747 0.0085 0.0
C655 C 0.46085 0.78664 0.02422 0.0
C656 C 0.49101 0.78362 0.0296 0.0
C657 C 0.42119 0.78718 0.00276 0.0
C658 C 0.41222 0.81354 0.00845 0.0
C659 C 0.39785 0.76118 0.99162 0.0
C660 C 0.40352 0.73037 0.98615 0.0
C661 C 0.40477 0.70512 0.99651 0.0
C662 C 0.41038 0.67632 0.9913 0.0
C663 C 0.41446 0.67229 0.97573 0.0
C664 C 0.41283 0.69699 0.96534 0.0
C665 C 0.40728 0.72588 0.97049 0.0
H666 H 0.4188 0.64997 0.97171 0.0
H667 H 0.35137 0.91796 0.02612 0.0
H668 H 0.47695 0.27783 0.28915 0.0
H669 H 0.52922 0.33815 0.29709 0.0
H670 H 0.51245 0.30066 0.34371 0.0
H671 H 0.46068 0.23989 0.33584 0.0
H672 H 0.52604 0.37906 0.33724 0.0
H673 H 0.57503 0.29507 0.32858 0.0
H674 H 0.58443 0.25059 0.3131 0.0
H675 H 0.63707 0.33337 0.27816 0.0
H676 H 0.62743 0.37817 0.29335 0.0
H677 H 0.69578 0.50329 0.37361 0.0
H678 H 0.63784 0.45139 0.36395 0.0
H679 H 0.68258 0.47513 0.31829 0.0
H680 H 0.74131 0.52613 0.32803 0.0
H681 H 0.65281 0.40543 0.32268 0.0
H682 H 0.61042 0.49179 0.33103 0.0
H683 H 0.59997 0.53762 0.34496 0.0
H684 H 0.53413 0.45442 0.37822 0.0
H685 H 0.5446 0.40819 0.36461 0.0
C686 C 0.48412 0.28255 0.30112 0.0
C687 C 0.46486 0.25408 0.31188 0.0
C688 C 0.51395 0.31697 0.30561 0.0
C689 C 0.52455 0.32368 0.32096 0.0
C690 C 0.50449 0.29592 0.33182 0.0
C691 C 0.47512 0.26122 0.32729 0.0
C692 C 0.55808 0.35875 0.32553 0.0
C693 C 0.55386 0.38488 0.33421 0.0
C694 C 0.59409 0.3666 0.32109 0.0
C695 C 0.6001 0.33978 0.31201 0.0
C696 C 0.58827 0.30365 0.31753 0.0
C697 C 0.59371 0.27842 0.30882 0.0
C698 C 0.61123 0.28911 0.29463 0.0
C699 C 0.62344 0.3251 0.28914 0.0
C700 C 0.61801 0.35043 0.29779 0.0
C701 C 0.69312 0.49777 0.36149 0.0
C702 C 0.72316 0.51875 0.35159 0.0
C703 C 0.65983 0.46817 0.35595 0.0
C704 C 0.65553 0.45949 0.34034 0.0
C705 C 0.68518 0.48116 0.33038 0.0
C706 C 0.71872 0.51037 0.33595 0.0
C707 C 0.62121 0.42627 0.33459 0.0
C708 C 0.62516 0.4002 0.32567 0.0
C709 C 0.58494 0.41888 0.33861 0.0
C710 C 0.57857 0.4466 0.34686 0.0
C711 C 0.59395 0.48333 0.34138 0.0
C712 C 0.58798 0.50937 0.34921 0.0
C713 C 0.56647 0.49896 0.36248 0.0
C714 C 0.55082 0.46246 0.36794 0.0
C715 C 0.55672 0.43631 0.36016 0.0
H716 H 0.56188 0.51916 0.36853 0.0
H717 H 0.61543 0.26954 0.2879 0.0
H718 H 0.19145 0.49315 0.62325 0.0
H719 H 0.18757 0.54693 0.63262 0.0
H720 H 0.20911 0.52468 0.6783 0.0
H721 H 0.21382 0.47122 0.669 0.0
H722 H 0.14915 0.54575 0.67414 0.0
H723 H 0.2785 0.58515 0.66282 0.0
H724 H 0.32915 0.5903 0.64632 0.0
H725 H 0.30212 0.6483 0.6127 0.0
H726 H 0.25089 0.64295 0.62891 0.0
H727 H 0.20717 0.72307 0.70839 0.0
H728 H 0.19926 0.66302 0.70009 0.0
H729 H 0.21245 0.69922 0.65329 0.0
H730 H 0.22147 0.75951 0.66151 0.0
H731 H 0.25312 0.66921 0.65812 0.0
H732 H 0.12665 0.6339 0.66877 0.0
H733 H 0.07393 0.62819 0.68399 0.0
H734 H 0.09156 0.56225 0.7171 0.0
H735 H 0.14481 0.56809 0.7022 0.0
C736 C 0.19483 0.49934 0.63533 0.0
C737 C 0.20321 0.47812 0.64538 0.0
C738 C 0.19261 0.53005 0.64064 0.0
C739 C 0.19815 0.53968 0.65612 0.0
C740 C 0.20466 0.51752 0.66632 0.0
C741 C 0.20754 0.48718 0.66097 0.0
C742 C 0.20026 0.57466 0.6614 0.0
C743 C 0.17201 0.57284 0.67082 0.0
C744 C 0.22965 0.60977 0.6567 0.0
C745 C 0.26061 0.61327 0.647 0.0
C746 C 0.28313 0.59868 0.65185 0.0
C747 C 0.31199 0.6017 0.64256 0.0
C748 C 0.31878 0.61951 0.62845 0.0
C749 C 0.29679 0.63445 0.62362 0.0
C750 C 0.26785 0.63145 0.63285 0.0
C751 C 0.20812 0.71812 0.69633 0.0
C752 C 0.21514 0.74615 0.68562 0.0
C753 C 0.20342 0.6837 0.69159 0.0
C754 C 0.20497 0.67644 0.67604 0.0
C755 C 0.21128 0.70418 0.66535 0.0
C756 C 0.2164 0.73866 0.67008 0.0
C757 C 0.20181 0.64071 0.6709 0.0
C758 C 0.23005 0.64229 0.66148 0.0
C759 C 0.17207 0.60545 0.67546 0.0
C760 C 0.13998 0.60176 0.68444 0.0
C761 C 0.11949 0.61844 0.67936 0.0
C762 C 0.08948 0.61514 0.68792 0.0
C763 C 0.07946 0.59494 0.70152 0.0
C764 C 0.09939 0.57793 0.70657 0.0
C765 C 0.12948 0.58122 0.69807 0.0
H766 H 0.0562 0.5924 0.70813 0.0
H767 H 0.34114 0.62183 0.62128 0.0
H768 H 0.32077 0.20278 0.10582 0.0
H769 H 0.31513 0.19769 0.1335 0.0
H770 H 0.39728 0.16251 0.13484 0.0
H771 H 0.40393 0.1687 0.10715 0.0
H772 H 0.29493 0.1448 0.15359 0.0
H773 H 0.45098 0.19713 0.16596 0.0
H774 H 0.51253 0.2382 0.15435 0.0
H775 H 0.46857 0.29938 0.13128 0.0
H776 H 0.40693 0.25901 0.14289 0.0
H777 H 0.32041 0.10806 0.23012 0.0
H778 H 0.31757 0.11312 0.20254 0.0
H779 H 0.38171 0.23323 0.20598 0.0
H780 H 0.38588 0.22821 0.23356 0.0
H781 H 0.40948 0.21229 0.18479 0.0
H782 H 0.28599 0.1845 0.19684 0.0
H783 H 0.22356 0.15005 0.20853 0.0
H784 H 0.20056 0.05198 0.18314 0.0
H785 H 0.26307 0.0857 0.17145 0.0
C786 C 0.33747 0.19371 0.11199 0.0
C787 C 0.36306 0.18647 0.10433 0.0
C788 C 0.33414 0.19073 0.12782 0.0
C789 C 0.3562 0.18031 0.13628 0.0
C790 C 0.38054 0.17138 0.12858 0.0
C791 C 0.38419 0.17475 0.11275 0.0
C792 C 0.35465 0.18005 0.15317 0.0
C793 C 0.31996 0.15952 0.16043 0.0
C794 C 0.38718 0.20009 0.1621 0.0
C795 C 0.42426 0.22479 0.15518 0.0
C796 C 0.4545 0.21943 0.15845 0.0
C797 C 0.48939 0.24258 0.15186 0.0
C798 C 0.49442 0.2713 0.14204 0.0
C799 C 0.46461 0.27704 0.13884 0.0
C800 C 0.42968 0.25401 0.1454 0.0
C801 C 0.33346 0.13557 0.22502 0.0
C802 C 0.35343 0.16775 0.23399 0.0
C803 C 0.33169 0.13844 0.20924 0.0
C804 C 0.34917 0.17358 0.20215 0.0
C805 C 0.3681 0.2058 0.21117 0.0
C806 C 0.37035 0.20292 0.22693 0.0
C807 C 0.34977 0.17661 0.18529 0.0
C808 C 0.38436 0.19761 0.178 0.0
C809 C 0.31701 0.15794 0.17638 0.0
C810 C 0.27935 0.13756 0.18336 0.0
C811 C 0.26773 0.15551 0.19383 0.0
C812 C 0.23231 0.13612 0.20044 0.0
C813 C 0.20814 0.09882 0.19661 0.0
C814 C 0.21932 0.08086 0.18612 0.0
C815 C 0.25473 0.10011 0.17948 0.0
H816 H 0.18073 0.08386 0.20174 0.0
H817 H 0.52145 0.28917 0.13695 0.0
H818 H 0.21567 0.43532 0.43787 0.0
H819 H 0.21741 0.43081 0.46549 0.0
H820 H 0.14115 0.31209 0.46291 0.0
H821 H 0.13796 0.31687 0.43523 0.0
H822 H 0.11966 0.33829 0.48443 0.0
H823 H 0.23712 0.35122 0.47188 0.0
H824 H 0.29888 0.37793 0.45967 0.0
H825 H 0.335 0.48142 0.48327 0.0
H826 H 0.27327 0.45552 0.49547 0.0
H827 H 0.16077 0.31732 0.56329 0.0
H828 H 0.15605 0.31308 0.53543 0.0
H829 H 0.19812 0.43162 0.53277 0.0
H830 H 0.20209 0.43602 0.56056 0.0
H831 H 0.23678 0.39997 0.51434 0.0
H832 H 0.11456 0.38371 0.52568 0.0
H833 H 0.053 0.35276 0.53821 0.0
H834 H 0.02709 0.24883 0.51707 0.0
H835 H 0.08877 0.27909 0.50458 0.0
C836 C 0.19964 0.40817 0.44316 0.0
C837 C 0.17675 0.37643 0.4344 0.0
C838 C 0.20078 0.40557 0.45898 0.0
C839 C 0.17984 0.37099 0.46633 0.0
C840 C 0.15756 0.33908 0.45753 0.0
C841 C 0.15588 0.3418 0.44171 0.0
C842 C 0.17977 0.36867 0.48323 0.0
C843 C 0.14536 0.3512 0.49092 0.0
C844 C 0.2132 0.38575 0.4918 0.0
C845 C 0.25043 0.40149 0.4845 0.0
C846 C 0.25813 0.37976 0.47438 0.0
C847 C 0.29316 0.39475 0.46748 0.0
C848 C 0.32082 0.43137 0.47067 0.0
C849 C 0.31353 0.45307 0.4808 0.0
C850 C 0.27854 0.43823 0.48773 0.0
C851 C 0.16849 0.34237 0.55677 0.0
C852 C 0.18177 0.377 0.56408 0.0
C853 C 0.1658 0.33989 0.54089 0.0
C854 C 0.17689 0.37208 0.53212 0.0
C855 C 0.18951 0.40652 0.53939 0.0
C856 C 0.19155 0.40892 0.55525 0.0
C857 C 0.17687 0.37025 0.51532 0.0
C858 C 0.21125 0.38684 0.50773 0.0
C859 C 0.14352 0.3517 0.50687 0.0
C860 C 0.10645 0.33355 0.51436 0.0
C861 C 0.0959 0.35417 0.52384 0.0
C862 C 0.06094 0.33678 0.5309 0.0
C863 C 0.0362 0.29882 0.52848 0.0
C864 C 0.04632 0.27821 0.51896 0.0
C865 C 0.08126 0.29547 0.51188 0.0
H866 H 0.00914 0.2854 0.53396 0.0
H867 H 0.34791 0.44292 0.46531 0.0
H868 H 0.76851 0.19219 0.89456 0.0
H869 H 0.7681 0.18265 0.86719 0.0
H870 H 0.8549 0.15445 0.87211 0.0
H871 H 0.85654 0.16566 0.89956 0.0
H872 H 0.87212 0.19968 0.84982 0.0
H873 H 0.76192 0.08767 0.86255 0.0
H874 H 0.70085 0.04698 0.87453 0.0
H875 H 0.6531 0.10182 0.84937 0.0
H876 H 0.71401 0.14322 0.8374 0.0
H877 H 0.82134 0.12649 0.77017 0.0
H878 H 0.82892 0.12679 0.79791 0.0
H879 H 0.80193 0.21452 0.80212 0.0
H880 H 0.79526 0.21519 0.77449 0.0
H881 H 0.75651 0.13129 0.8193 0.0
H882 H 0.87437 0.24973 0.81029 0.0
H883 H 0.93591 0.28562 0.79795 0.0
H884 H 0.96843 0.20954 0.81593 0.0
H885 H 0.9068 0.1729 0.82818 0.0
C886 C 0.78712 0.18339 0.88986 0.0
C887 C 0.81253 0.17963 0.89921 0.0
C888 C 0.78675 0.17775 0.87418 0.0
C889 C 0.81112 0.16729 0.86755 0.0
C890 C 0.83583 0.16248 0.87694 0.0
C891 C 0.83662 0.16873 0.89263 0.0
C892 C 0.81232 0.1639 0.85073 0.0
C893 C 0.84681 0.18412 0.84322 0.0
C894 C 0.77943 0.1436 0.84199 0.0
C895 C 0.74265 0.11873 0.84915 0.0
C896 C 0.73847 0.09124 0.85965 0.0
C897 C 0.70386 0.06802 0.86643 0.0
C898 C 0.67313 0.07186 0.86274 0.0
C899 C 0.67693 0.09889 0.85223 0.0
C900 C 0.71149 0.1222 0.84542 0.0
C901 C 0.81779 0.14637 0.77699 0.0
C902 C 0.80768 0.17081 0.77017 0.0
C903 C 0.8221 0.14646 0.79279 0.0
C904 C 0.81596 0.17068 0.80194 0.0
C905 C 0.80694 0.19579 0.79516 0.0
C906 C 0.80327 0.19619 0.77938 0.0
C907 C 0.81588 0.1679 0.81867 0.0
C908 C 0.78164 0.14634 0.82606 0.0
C909 C 0.84893 0.18628 0.82728 0.0
C910 C 0.88586 0.2083 0.81994 0.0
C911 C 0.89448 0.24041 0.81144 0.0
C912 C 0.92941 0.26095 0.80451 0.0
C913 C 0.95602 0.24978 0.8061 0.0
C914 C 0.94777 0.21811 0.81467 0.0
C915 C 0.91286 0.19746 0.82161 0.0
H916 H 0.98305 0.26573 0.80074 0.0
H917 H 0.64635 0.05385 0.868 0.0
H918 H 0.57465 0.80766 0.10238 0.0
H919 H 0.58072 0.81559 0.13002 0.0
H920 H 0.65776 0.77387 0.13028 0.0
H921 H 0.65271 0.76703 0.10263 0.0
H922 H 0.56275 0.7675 0.15172 0.0
H923 H 0.71865 0.81138 0.15948 0.0
H924 H 0.77821 0.84632 0.1456 0.0
H925 H 0.73591 0.9079 0.12169 0.0
H926 H 0.67632 0.87371 0.13557 0.0
H927 H 0.58902 0.75117 0.22969 0.0
H928 H 0.59221 0.74552 0.20206 0.0
H929 H 0.66166 0.86512 0.19845 0.0
H930 H 0.65981 0.87076 0.22606 0.0
H931 H 0.68402 0.83429 0.17864 0.0
H932 H 0.56525 0.8196 0.19257 0.0
H933 H 0.50534 0.79193 0.20636 0.0
H934 H 0.47277 0.68506 0.18642 0.0
H935 H 0.53272 0.71203 0.17266 0.0
C936 C 0.59312 0.80049 0.10832 0.0
C937 C 0.6133 0.78686 0.10033 0.0
C938 C 0.59647 0.80491 0.12412 0.0
C939 C 0.61993 0.79563 0.13224 0.0
C940 C 0.64005 0.78192 0.12426 0.0
C941 C 0.63701 0.77787 0.10845 0.0
C942 C 0.62244 0.79922 0.14908 0.0
C943 C 0.5893 0.78212 0.15759 0.0
C944 C 0.65702 0.81872 0.15677 0.0
C945 C 0.69288 0.83967 0.14845 0.0
C946 C 0.72211 0.83246 0.1513 0.0
C947 C 0.75587 0.85213 0.14343 0.0
C948 C 0.76079 0.87922 0.13274 0.0
C949 C 0.73201 0.8868 0.12993 0.0
C950 C 0.69822 0.86725 0.13778 0.0
C951 C 0.60544 0.77617 0.22302 0.0
C952 C 0.6239 0.81143 0.23002 0.0
C953 C 0.60708 0.77295 0.20722 0.0
C954 C 0.62647 0.80499 0.19813 0.0
C955 C 0.64642 0.84001 0.2052 0.0
C956 C 0.64527 0.8432 0.221 0.0
C957 C 0.62434 0.80238 0.18126 0.0
C958 C 0.65752 0.81956 0.17276 0.0
C959 C 0.58974 0.78398 0.17353 0.0
C960 C 0.55359 0.76775 0.18171 0.0
C961 C 0.54539 0.79015 0.19121 0.0
C962 C 0.51143 0.7746 0.199 0.0
C963 C 0.48531 0.73674 0.1973 0.0
C964 C 0.49306 0.71437 0.18775 0.0
C965 C 0.52701 0.72977 0.17994 0.0
H966 H 0.45903 0.72476 0.20335 0.0
H967 H 0.78694 0.8944 0.12665 0.0
H968 H 0.76047 0.53978 0.55975 0.0
H969 H 0.76691 0.54453 0.53212 0.0
H970 H 0.83023 0.66472 0.53563 0.0
H971 H 0.82188 0.66 0.56329 0.0
H972 H 0.78401 0.6486 0.51431 0.0
H973 H 0.87015 0.60759 0.52591 0.0
H974 H 0.89286 0.56827 0.53742 0.0
H975 H 0.81049 0.47315 0.51268 0.0
H976 H 0.78695 0.51178 0.50117 0.0
H977 H 0.84589 0.66803 0.43612 0.0
H978 H 0.84372 0.66857 0.46401 0.0
H979 H 0.75565 0.55359 0.46385 0.0
H980 H 0.75723 0.55291 0.43602 0.0
H981 H 0.81843 0.57023 0.48308 0.0
H982 H 0.73294 0.61522 0.47212 0.0
H983 H 0.71492 0.65795 0.4603 0.0
H984 H 0.80402 0.75075 0.48371 0.0
H985 H 0.8229 0.70861 0.49551 0.0
C986 C 0.77616 0.56719 0.55464 0.0
C987 C 0.79077 0.59953 0.56364 0.0
C988 C 0.78001 0.56991 0.53882 0.0
C989 C 0.79959 0.605 0.53173 0.0
C990 C 0.81497 0.63732 0.5408 0.0
C991 C 0.81035 0.63462 0.5566 0.0
C992 C 0.80225 0.60795 0.51484 0.0
C993 C 0.79222 0.63191 0.50754 0.0
C994 C 0.81247 0.58589 0.50589 0.0
C995 C 0.82659 0.56254 0.51277 0.0
C996 C 0.85671 0.57823 0.523 0.0
C997 C 0.86975 0.55607 0.52952 0.0
C998 C 0.85307 0.51822 0.52581 0.0
C999 C 0.82336 0.50246 0.51555 0.0
C1000 C 0.81018 0.52449 0.50902 0.0
C1001 C 0.82573 0.64303 0.44202 0.0
C1002 C 0.80172 0.61042 0.43389 0.0
C1003 C 0.82454 0.64339 0.45793 0.0
C1004 C 0.79959 0.61108 0.46593 0.0
C1005 C 0.77514 0.57874 0.45784 0.0
C1006 C 0.77596 0.57849 0.44195 0.0
C1007 C 0.7999 0.61046 0.48275 0.0
C1008 C 0.81053 0.58701 0.48997 0.0
C1009 C 0.79104 0.63352 0.49161 0.0
C1010 C 0.77957 0.65881 0.48457 0.0
C1011 C 0.7489 0.64478 0.47464 0.0
C1012 C 0.73848 0.66889 0.46796 0.0
C1013 C 0.75837 0.70706 0.47121 0.0
C1014 C 0.78867 0.72119 0.48118 0.0
C1015 C 0.79922 0.6972 0.48788 0.0
H1016 H 0.75026 0.72568 0.46604 0.0
H1017 H 0.86321 0.50111 0.53087 0.0
H1018 H 0.13002 0.81487 0.89366 0.0
H1019 H 0.13026 0.82 0.86592 0.0
H1020 H 0.22378 0.80124 0.86328 0.0
H1021 H 0.2244 0.79724 0.891 0.0
H1022 H 0.23215 0.85147 0.84323 0.0
H1023 H 0.1326 0.73017 0.85738 0.0
H1024 H 0.0754 0.68521 0.87094 0.0
H1025 H 0.01488 0.73217 0.84961 0.0
H1026 H 0.07189 0.77777 0.83607 0.0
H1027 H 0.21409 0.78374 0.76834 0.0
H1028 H 0.20829 0.78148 0.79606 0.0
H1029 H 0.13635 0.82888 0.79345 0.0
H1030 H 0.14249 0.83191 0.76562 0.0
H1031 H 0.11524 0.76658 0.81572 0.0
H1032 H 0.21737 0.88666 0.80064 0.0
H1033 H 0.27516 0.92799 0.78659 0.0
H1034 H 0.33159 0.87879 0.80956 0.0
H1035 H 0.2739 0.83669 0.82356 0.0
C1036 C 0.15096 0.81237 0.88717 0.0
C1037 C 0.17704 0.8054 0.8945 0.0
C1038 C 0.1509 0.81505 0.87131 0.0
C1039 C 0.17651 0.81018 0.86249 0.0
C1040 C 0.20364 0.80493 0.86984 0.0
C1041 C 0.20396 0.80263 0.88569 0.0
C1042 C 0.17436 0.80922 0.84562 0.0
C1043 C 0.20663 0.83268 0.83725 0.0
C1044 C 0.14092 0.78508 0.83776 0.0
C1045 C 0.1066 0.75764 0.84585 0.0
C1046 C 0.10716 0.73109 0.85567 0.0
C1047 C 0.07477 0.70547 0.86334 0.0
C1048 C 0.04156 0.70591 0.86117 0.0
C1049 C 0.04065 0.73191 0.8513 0.0
C1050 C 0.07298 0.75764 0.84362 0.0
C1051 C 0.19642 0.793 0.77361 0.0
C1052 C 0.17893 0.80824 0.76481 0.0
C1053 C 0.19326 0.7918 0.78945 0.0
C1054 C 0.17224 0.80539 0.79673 0.0
C1055 C 0.15276 0.81836 0.78797 0.0
C1056 C 0.15632 0.82008 0.77211 0.0
C1057 C 0.17301 0.80853 0.8135 0.0
C1058 C 0.14056 0.78551 0.82178 0.0
C1059 C 0.20636 0.83267 0.8213 0.0
C1060 C 0.24121 0.85827 0.81303 0.0
C1061 C 0.24201 0.88443 0.80259 0.0
C1062 C 0.27476 0.90803 0.79466 0.0
C1063 C 0.307 0.90595 0.79715 0.0
C1064 C 0.30658 0.88033 0.80762 0.0
C1065 C 0.27387 0.85661 0.81557 0.0
H1066 H 0.33233 0.92424 0.79099 0.0
H1067 H 0.01651 0.68604 0.86711 0.0
H1068 H 0.49396 0.63405 0.04539 0.0
H1069 H 0.46774 0.56645 0.04506 0.0
H1070 H 0.5784 0.58143 0.04885 0.0
H1071 H 0.60485 0.64921 0.04834 0.0
H1072 H 0.54043 0.52739 0.03032 0.0
H1073 H 0.51652 0.55826 0.08023 0.0
H1074 H 0.49318 0.58617 0.09901 0.0
H1075 H 0.3818 0.51803 0.08217 0.0
H1076 H 0.40456 0.49005 0.06315 0.0
H1077 H 0.4857 0.34573 0.05864 0.0
H1078 H 0.51136 0.41319 0.05653 0.0
H1079 H 0.40296 0.39544 0.04407 0.0
H1080 H 0.37703 0.3279 0.04609 0.0
H1081 H 0.43904 0.44994 0.06668 0.0
H1082 H 0.46528 0.41767 0.01721 0.0
H1083 H 0.4905 0.38912 -0.00038 0.0
H1084 H 0.60048 0.45976 0.01738 0.0
H1085 H 0.57582 0.48837 0.03523 0.0
C1086 C 0.51266 0.62287 0.04609 0.0
C1087 C 0.55137 0.64671 0.04702 0.0
C1088 C 0.49766 0.58426 0.04598 0.0
C1089 C 0.52103 0.56882 0.0473 0.0
C1090 C 0.55981 0.59269 0.04788 0.0
C1091 C 0.57489 0.63136 0.04763 0.0
C1092 C 0.50502 0.52784 0.04828 0.0
C1093 C 0.51859 0.51057 0.03841 0.0
C1094 C 0.47609 0.50571 0.05867 0.0
C1095 C 0.4623 0.52232 0.07018 0.0
C1096 C 0.48709 0.5494 0.08047 0.0
C1097 C 0.47396 0.56521 0.09117 0.0
C1098 C 0.43605 0.55395 0.09176 0.0
C1099 C 0.41117 0.52676 0.08169 0.0
C1100 C 0.42415 0.51089 0.07095 0.0
C1101 C 0.46733 0.35619 0.05545 0.0
C1102 C 0.42939 0.3316 0.0525 0.0
C1103 C 0.48205 0.39466 0.05419 0.0
C1104 C 0.45905 0.4091 0.05003 0.0
C1105 C 0.42109 0.38469 0.04726 0.0
C1106 C 0.40639 0.34619 0.04839 0.0
C1107 C 0.47453 0.44979 0.04877 0.0
C1108 C 0.46085 0.46691 0.0586 0.0
C1109 C 0.5037 0.47178 0.03852 0.0
C1110 C 0.51863 0.45492 0.02765 0.0
C1111 C 0.4948 0.42693 0.01744 0.0
C1112 C 0.509 0.41076 0.00741 0.0
C1113 C 0.54705 0.42255 0.00741 0.0
C1114 C 0.571 0.45062 0.01741 0.0
C1115 C 0.55693 0.46685 0.02747 0.0
H1116 H 0.55798 0.40997 -0.00035 0.0
H1117 H 0.42594 0.56623 0.10005 0.0
H1118 H 0.94055 0.60796 0.38429 0.0
H1119 H 0.98238 0.58222 0.38481 0.0
H1120 H 0.88748 0.47056 0.38453 0.0
H1121 H 0.84558 0.49622 0.38471 0.0
H1122 H 0.93555 0.47329 0.40369 0.0
H1123 H 0.9427 0.51289 0.35202 0.0
H1124 H 0.95207 0.55658 0.33115 0.0
H1125 H 0.06466 0.62897 0.34584 0.0
H1126 H 0.0558 0.58593 0.36693 0.0
H1127 H 0.03655 0.38229 0.38134 0.0
H1128 H -0.00577 0.40764 0.38132 0.0
H1129 H 0.08653 0.51739 0.39097 0.0
H1130 H 0.129 0.4923 0.39112 0.0
H1131 H 0.03989 0.51484 0.36685 0.0
H1132 H 0.03037 0.47217 0.4187 0.0
H1133 H 0.0193 0.4257 0.43859 0.0
H1134 H 0.90824 0.35517 0.42186 0.0
H1135 H 0.91884 0.40101 0.40173 0.0
C1136 C 0.92867 0.57793 0.38432 0.0
C1137 C 0.88989 0.55405 0.3844 0.0
C1138 C 0.95257 0.56325 0.38454 0.0
C1139 C 0.93808 0.52444 0.38443 0.0
C1140 C 0.89929 0.50058 0.3846 0.0
C1141 C 0.87539 0.51526 0.38467 0.0
C1142 C 0.9633 0.50867 0.38439 0.0
C1143 C 0.95801 0.48202 0.39548 0.0
C1144 C -0.00699 0.52046 0.37384 0.0
C1145 C -0.00154 0.54635 0.36114 0.0
C1146 C 0.96937 0.53826 0.35086 0.0
C1147 C 0.97461 0.56288 0.33898 0.0
C1148 C 0.00891 0.59557 0.33719 0.0
C1149 C 0.03809 0.60366 0.34725 0.0
C1150 C 0.03299 0.57914 0.35916 0.0
C1151 C 0.04779 0.4118 0.38349 0.0
C1152 C 0.08603 0.43534 0.38624 0.0
C1153 C 0.02362 0.42617 0.38351 0.0
C1154 C 0.03737 0.46428 0.38621 0.0
C1155 C 0.07552 0.48788 0.38887 0.0
C1156 C 0.09965 0.47349 0.389 0.0
C1157 C 0.01199 0.47967 0.3861 0.0
C1158 C 0.01731 0.50619 0.375 0.0
C1159 C 0.98199 0.46734 0.39647 0.0
C1160 C 0.97554 0.43985 0.40862 0.0
C1161 C 0.0037 0.44661 0.41919 0.0
C1162 C -0.00251 0.42041 0.43052 0.0
C1163 C 0.96312 0.38746 0.43147 0.0
C1164 C 0.93486 0.38068 0.4211 0.0
C1165 C 0.94095 0.40678 0.40974 0.0
H1166 H 0.95837 0.36721 0.44025 0.0
H1167 H 0.0129 0.6146 0.32799 0.0
H1168 H 0.64128 0.11326 0.7458 0.0
H1169 H 0.57307 0.07936 0.74483 0.0
H1170 H 0.57617 0.0203 0.70483 0.0
H1171 H 0.64452 0.05356 0.7059 0.0
H1172 H 0.53048 0.05827 0.70357 0.0
H1173 H 0.55118 0.97215 0.73361 0.0
H1174 H 0.57797 0.95496 0.75505 0.0
H1175 H 0.52323 0.99092 0.78681 0.0
H1176 H 0.49655 0.00885 0.76555 0.0
H1177 H 0.34031 0.92044 0.69677 0.0
H1178 H 0.40803 0.95892 0.69772 0.0
H1179 H 0.4012 0.98653 0.74463 0.0
H1180 H 0.33346 0.94642 0.74392 0.0
H1181 H 0.45005 0.96672 0.74265 0.0
H1182 H 0.42779 0.05171 0.71426 0.0
H1183 H 0.40192 0.07283 0.69382 0.0
H1184 H 0.45992 0.04514 0.6603 0.0
H1185 H 0.48575 0.02336 0.68053 0.0
C1186 C 0.62739 0.0928 0.73688 0.0
C1187 C 0.64802 0.08593 0.72593 0.0
C1188 C 0.58856 0.07354 0.73636 0.0
C1189 C 0.5699 0.04755 0.72475 0.0
C1190 C 0.59033 0.04038 0.71385 0.0
C1191 C 0.6292 0.05916 0.71453 0.0
C1192 C 0.52897 0.02847 0.72386 0.0
C1193 C 0.51268 0.03784 0.71196 0.0
C1194 C 0.50626 0.00309 0.73519 0.0
C1195 C 0.52221 0.99222 0.74799 0.0
C1196 C 0.54516 0.97674 0.74517 0.0
C1197 C 0.56025 0.96678 0.75729 0.0
C1198 C 0.5524 0.97195 0.77229 0.0
C1199 C 0.52934 0.98699 0.77519 0.0
C1200 C 0.5142 -0.00297 0.76311 0.0
C1201 C 0.35324 0.93527 0.70719 0.0
C1202 C 0.33179 0.93044 0.72029 0.0
C1203 C 0.39196 0.95742 0.70771 0.0
C1204 C 0.40977 0.97592 0.72122 0.0
C1205 C 0.3881 0.97242 0.73411 0.0
C1206 C 0.34944 0.94966 0.73368 0.0
C1207 C 0.45099 -0.00371 0.72226 0.0
C1208 C 0.46753 0.98722 0.73423 0.0
C1209 C 0.47393 0.02253 0.71113 0.0
C1210 C 0.45845 0.03559 0.69891 0.0
C1211 C 0.4348 0.04985 0.70252 0.0
C1212 C 0.42018 0.06199 0.69097 0.0
C1213 C 0.4292 0.06024 0.67577 0.0
C1214 C 0.45293 0.04643 0.67208 0.0
C1215 C 0.4676 0.03423 0.68359 0.0
H1216 H 0.41786 0.06966 0.66684 0.0
H1217 H 0.56411 0.96421 0.78165 0.0
H1218 H 0.64858 0.60252 0.61149 0.0
H1219 H 0.58144 0.57909 0.61098 0.0
H1220 H 0.56071 0.46594 0.61315 0.0
H1221 H 0.62773 0.48919 0.61295 0.0
H1222 H 0.516 0.46878 0.5937 0.0
H1223 H 0.55103 0.51309 0.64483 0.0
H1224 H 0.58687 0.55856 0.66497 0.0
H1225 H 0.54892 0.63182 0.64874 0.0
H1226 H 0.51322 0.58698 0.62837 0.0
H1227 H 0.32614 0.38281 0.61753 0.0
H1228 H 0.39357 0.40745 0.61706 0.0
H1229 H 0.41131 0.5168 0.60603 0.0
H1230 H 0.34396 0.49241 0.6064 0.0
H1231 H 0.45682 0.5162 0.62979 0.0
H1232 H 0.42009 0.46829 0.5788 0.0
H1233 H 0.38306 0.42005 0.55973 0.0
H1234 H 0.42316 0.34981 0.57744 0.0
H1235 H 0.46004 0.39744 0.59676 0.0
C1236 C 0.62964 0.57266 0.61186 0.0
C1237 C 0.64327 0.54765 0.61231 0.0
C1238 C 0.59131 0.5593 0.61165 0.0
C1239 C 0.56601 0.52076 0.61229 0.0
C1240 C 0.57968 0.49578 0.61265 0.0
C1241 C 0.61797 0.50909 0.61257 0.0
C1242 C 0.52528 0.50633 0.61241 0.0
C1243 C 0.50306 0.47884 0.60174 0.0
C1244 C 0.5084 0.51987 0.62272 0.0
C1245 C 0.52975 0.54684 0.63498 0.0
C1246 C 0.55054 0.53902 0.64549 0.0
C1247 C 0.5708 0.56466 0.65696 0.0
C1248 C 0.57025 0.5981 0.65811 0.0
C1249 C 0.54936 0.60592 0.64782 0.0
C1250 C 0.52908 0.58039 0.63632 0.0
C1251 C 0.34441 0.41208 0.61498 0.0
C1252 C 0.32985 0.4357 0.61198 0.0
C1253 C 0.38283 0.42605 0.61468 0.0
C1254 C 0.40721 0.46384 0.61143 0.0
C1255 C 0.39281 0.48754 0.60855 0.0
C1256 C 0.35439 0.47354 0.60872 0.0
C1257 C 0.44786 0.47874 0.61117 0.0
C1258 C 0.46995 0.50627 0.62179 0.0
C1259 C 0.46453 0.46484 0.60099 0.0
C1260 C 0.44255 0.43629 0.58932 0.0
C1261 C 0.42078 0.44243 0.57871 0.0
C1262 C 0.39986 0.41522 0.56784 0.0
C1263 C 0.40068 0.38185 0.5674 0.0
C1264 C 0.42252 0.37566 0.5778 0.0
C1265 C 0.44346 0.40277 0.58871 0.0
H1266 H 0.38447 0.36082 0.55897 0.0
H1267 H 0.58595 0.61792 0.667 0.0
H1268 H 0.03945 0.65676 0.94491 0.0
H1269 H -0.00276 0.58935 0.94373 0.0
H1270 H 0.09036 0.57277 0.93428 0.0
H1271 H 0.13256 0.64023 0.93496 0.0
H1272 H 0.03345 0.52812 0.91715 0.0
H1273 H 0.05174 0.55898 0.97014 0.0
H1274 H 0.05319 0.59277 0.99353 0.0
H1275 H 0.93598 0.55311 0.98923 0.0
H1276 H 0.93394 0.51949 0.96568 0.0
H1277 H 0.94901 0.33791 0.94303 0.0
H1278 H 0.98904 0.40577 0.94086 0.0
H1279 H 0.89174 0.41809 0.93789 0.0
H1280 H 0.85153 0.35028 0.93969 0.0
H1281 H 0.94926 0.46415 0.96083 0.0
H1282 H 0.93286 0.431 0.90762 0.0
H1283 H 0.93385 0.39598 0.88504 0.0
H1284 H 0.05117 0.43861 0.89106 0.0
H1285 H 0.05076 0.47345 0.91383 0.0
C1286 C 0.05089 0.63873 0.94254 0.0
C1287 C 0.08929 0.65365 0.94014 0.0
C1288 C 0.02678 0.60025 0.94192 0.0
C1289 C 0.04077 0.57605 0.93917 0.0
C1290 C 0.07901 0.59097 0.93645 0.0
C1291 C 0.10308 0.62948 0.93689 0.0
C1292 C 0.01564 0.53513 0.9394 0.0
C1293 C 0.01535 0.51412 0.92677 0.0
C1294 C -0.00832 0.51692 0.95189 0.0
C1295 C -0.00722 0.53705 0.96606 0.0
C1296 C 0.02634 0.55771 0.97412 0.0
C1297 C 0.02726 0.57679 0.98742 0.0
C1298 C -0.00528 0.57517 0.99284 0.0
C1299 C 0.96117 0.55438 0.985 0.0
C1300 C 0.96011 0.53529 0.97168 0.0
C1301 C 0.93621 0.35511 0.94183 0.0
C1302 C 0.89726 0.33897 0.94154 0.0
C1303 C 0.95903 0.39371 0.94055 0.0
C1304 C 0.94316 0.41662 0.93919 0.0
C1305 C 0.90432 0.40064 0.93891 0.0
C1306 C 0.88149 0.36202 0.9399 0.0
C1307 C 0.96718 0.45745 0.93861 0.0
C1308 C 0.9673 0.47834 0.95121 0.0
C1309 C -0.00864 0.4754 0.92623 0.0
C1310 C -0.00832 0.45449 0.91254 0.0
C1311 C 0.95879 0.4326 0.90423 0.0
C1312 C 0.95927 0.41285 0.89137 0.0
C1313 C -0.00747 0.41498 0.88664 0.0
C1314 C 0.02541 0.43694 0.89475 0.0
C1315 C 0.02508 0.45671 0.90762 0.0
H1316 H -0.00716 0.39969 0.87668 0.0
H1317 H -0.00451 0.58995 0.00314 0.0
H1318 H 0.49641 0.85301 0.27061 0.0
H1319 H 0.46929 0.89366 0.27027 0.0
H1320 H 0.57865 0.98983 0.2765 0.0
H1321 H 0.60566 0.94911 0.27748 0.0
H1322 H 0.53271 -0.00513 0.29467 0.0
H1323 H 0.53071 0.96837 0.24161 0.0
H1324 H 0.51703 0.92918 0.21868 0.0
H1325 H 0.39975 0.87751 0.22797 0.0
H1326 H 0.41275 0.91604 0.25109 0.0
H1327 H 0.48164 0.13083 0.27531 0.0
H1328 H 0.50857 0.09001 0.27335 0.0
H1329 H 0.3998 -0.00635 0.28014 0.0
H1330 H 0.37266 0.03431 0.28239 0.0
H1331 H 0.44526 0.9896 0.25489 0.0
H1332 H 0.45029 0.01753 0.30867 0.0
H1333 H 0.46644 0.05975 0.33074 0.0
H1334 H 0.58225 0.11267 0.31851 0.0
H1335 H 0.5667 0.07109 0.29622 0.0
C1336 C 0.51466 0.88284 0.27181 0.0
C1337 C 0.5531 0.89795 0.27411 0.0
C1338 C 0.49918 0.90607 0.27152 0.0
C1339 C 0.522 0.94486 0.27317 0.0
C1340 C 0.56051 0.95999 0.27523 0.0
C1341 C 0.57591 0.93673 0.27576 0.0
C1342 C 0.50558 0.96954 0.27346 0.0
C1343 C 0.51406 -0.00595 0.28583 0.0
C1344 C 0.48068 0.96805 0.26208 0.0
C1345 C 0.47274 0.94485 0.24817 0.0
C1346 C 0.50202 0.94844 0.23883 0.0
C1347 C 0.49438 0.92639 0.22579 0.0
C1348 C 0.45755 0.90081 0.22189 0.0
C1349 C 0.42827 0.8973 0.23101 0.0
C1350 C 0.43575 0.91927 0.24408 0.0
C1351 C 0.46345 0.10095 0.27635 0.0
C1352 C 0.42511 0.08568 0.27907 0.0
C1353 C 0.47886 0.07775 0.27524 0.0
C1354 C 0.45608 0.03899 0.27664 0.0
C1355 C 0.41769 0.02356 0.27902 0.0
C1356 C 0.40233 0.04679 0.28038 0.0
C1357 C 0.47259 0.01464 0.27602 0.0
C1358 C 0.46406 0.99029 0.26364 0.0
C1359 C 0.49788 0.01663 0.28724 0.0
C1360 C 0.50728 0.04148 0.30069 0.0
C1361 C 0.47916 0.0384 0.31061 0.0
C1362 C 0.48821 0.06216 0.32317 0.0
C1363 C 0.52534 0.08895 0.326 0.0
C1364 C 0.5535 0.09195 0.31629 0.0
C1365 C 0.54458 0.06828 0.3037 0.0
H1366 H 0.53229 0.10732 0.33574 0.0
H1367 H 0.4517 0.88376 0.21179 0.0
loop_
_geom_bond_atom_site_label_1
_geom_bond_atom_site_label_2
_geom_bond_distance
_geom_bond_site_symmetry_2
_ccdc_geom_bond_type
C0 O1 1.306 . S
C0 O3 1.160 . S
O1 C0 1.306 . S
O1 Cd2 2.228 . S
Cd2 O1 2.228 . S
Cd2 O6 2.273 . S
Cd2 O10 2.277 . S
O3 C0 1.160 . S
O3 Cd4 2.203 . S
Cd4 O3 2.203 . S
Cd4 O6 2.411 . S
Cd4 O7 2.333 . S
Cd4 O8 2.352 . S
Cd4 O12 2.277 . S
Cd4 O13 2.356 . S
C5 O10 1.209 . S
C5 O12 1.226 . S
O6 Cd2 2.273 . S
O6 Cd4 2.411 . S
O6 C9 1.320 . S
O7 Cd4 2.333 . S
O7 C9 1.214 . S
O8 Cd4 2.352 . S
O8 C11 1.258 . S
C9 O6 1.320 . S
C9 O7 1.214 . S
O10 Cd2 2.277 . S
O10 C5 1.209 . S
C11 O8 1.258 . S
C11 O13 1.282 . S
O12 Cd4 2.277 . S
O12 C5 1.226 . S
O13 Cd4 2.356 . S
O13 C11 1.282 . S
C14 O15 1.306 . S
C14 O17 1.160 . S
O15 C14 1.306 . S
O15 Cd16 2.228 . S
Cd16 O15 2.228 . S
Cd16 O20 2.273 . S
Cd16 O24 2.277 . S
O17 C14 1.160 . S
O17 Cd18 2.203 . S
Cd18 O17 2.203 . S
Cd18 O20 2.411 . S
Cd18 O21 2.333 . S
Cd18 O22 2.352 . S
Cd18 O26 2.277 . S
Cd18 O27 2.356 . S
C19 O24 1.209 . S
C19 O26 1.226 . S
O20 Cd16 2.273 . S
O20 Cd18 2.411 . S
O20 C23 1.320 . S
O21 Cd18 2.333 . S
O21 C23 1.214 . S
O22 Cd18 2.352 . S
O22 C25 1.258 . S
C23 O20 1.320 . S
C23 O21 1.214 . S
O24 Cd16 2.277 . S
O24 C19 1.209 . S
C25 O22 1.258 . S
C25 O27 1.282 . S
O26 Cd18 2.277 . S
O26 C19 1.226 . S
O27 Cd18 2.356 . S
O27 C25 1.282 . S
C28 O29 1.306 . S
C28 O31 1.160 . S
O29 C28 1.306 . S
O29 Cd30 2.228 . S
Cd30 O29 2.228 . S
Cd30 O34 2.273 . S
Cd30 O38 2.277 . S
O31 C28 1.160 . S
O31 Cd32 2.203 . S
Cd32 O31 2.203 . S
Cd32 O34 2.411 . S
Cd32 O35 2.333 . S
Cd32 O36 2.352 . S
Cd32 O40 2.277 . S
Cd32 O41 2.356 . S
C33 O38 1.209 . S
C33 O40 1.226 . S
O34 Cd30 2.273 . S
O34 Cd32 2.411 . S
O34 C37 1.320 . S
O35 Cd32 2.333 . S
O35 C37 1.214 . S
O36 Cd32 2.352 . S
O36 C39 1.258 . S
C37 O34 1.320 . S
C37 O35 1.214 . S
O38 Cd30 2.277 . S
O38 C33 1.209 . S
C39 O36 1.258 . S
C39 O41 1.282 . S
O40 Cd32 2.277 . S
O40 C33 1.226 . S
O41 Cd32 2.356 . S
O41 C39 1.282 . S
C42 O43 1.306 . S
C42 O45 1.160 . S
O43 C42 1.306 . S
O43 Cd44 2.228 . S
Cd44 O43 2.228 . S
Cd44 O48 2.273 . S
Cd44 O52 2.277 . S
O45 C42 1.160 . S
O45 Cd46 2.203 . S
Cd46 O45 2.203 . S
Cd46 O48 2.411 . S
Cd46 O49 2.333 . S
Cd46 O50 2.352 . S
Cd46 O54 2.277 . S
Cd46 O55 2.356 . S
C47 O52 1.209 . S
C47 O54 1.226 . S
O48 Cd44 2.273 . S
O48 Cd46 2.411 . S
O48 C51 1.320 . S
O49 Cd46 2.333 . S
O49 C51 1.214 . S
O50 Cd46 2.352 . S
O50 C53 1.258 . S
C51 O48 1.320 . S
C51 O49 1.214 . S
O52 Cd44 2.277 . S
O52 C47 1.209 . S
C53 O50 1.258 . S
C53 O55 1.282 . S
O54 Cd46 2.277 . S
O54 C47 1.226 . S
O55 Cd46 2.356 . S
O55 C53 1.282 . S
C56 O57 1.306 . S
C56 O59 1.160 . S
O57 C56 1.306 . S
O57 Cd58 2.228 . S
Cd58 O57 2.228 . S
Cd58 O62 2.273 . S
Cd58 O66 2.277 . S
O59 C56 1.160 . S
O59 Cd60 2.203 . S
Cd60 O59 2.203 . S
Cd60 O62 2.411 . S
Cd60 O63 2.333 . S
Cd60 O64 2.352 . S
Cd60 O68 2.277 . S
Cd60 O69 2.356 . S
C61 O66 1.209 . S
C61 O68 1.226 . S
O62 Cd58 2.273 . S
O62 Cd60 2.411 . S
O62 C65 1.320 . S
O63 Cd60 2.333 . S
O63 C65 1.214 . S
O64 Cd60 2.352 . S
O64 C67 1.258 . S
C65 O62 1.320 . S
C65 O63 1.214 . S
O66 Cd58 2.277 . S
O66 C61 1.209 . S
C67 O64 1.258 . S
C67 O69 1.282 . S
O68 Cd60 2.277 . S
O68 C61 1.226 . S
O69 Cd60 2.356 . S
O69 C67 1.282 . S
C70 O71 1.306 . S
C70 O73 1.160 . S
O71 C70 1.306 . S
O71 Cd72 2.228 . S
Cd72 O71 2.228 . S
Cd72 O76 2.273 . S
Cd72 O80 2.277 . S
O73 C70 1.160 . S
O73 Cd74 2.203 . S
Cd74 O73 2.203 . S
Cd74 O76 2.411 . S
Cd74 O77 2.333 . S
Cd74 O78 2.352 . S
Cd74 O82 2.277 . S
Cd74 O83 2.356 . S
C75 O80 1.209 . S
C75 O82 1.226 . S
O76 Cd72 2.273 . S
O76 Cd74 2.411 . S
O76 C79 1.320 . S
O77 Cd74 2.333 . S
O77 C79 1.214 . S
O78 Cd74 2.352 . S
O78 C81 1.258 . S
C79 O76 1.320 . S
C79 O77 1.214 . S
O80 Cd72 2.277 . S
O80 C75 1.209 . S
C81 O78 1.258 . S
C81 O83 1.282 . S
O82 Cd74 2.277 . S
O82 C75 1.226 . S
O83 Cd74 2.356 . S
O83 C81 1.282 . S
C84 O85 1.306 . S
C84 O87 1.160 . S
O85 C84 1.306 . S
O85 Cd86 2.228 . S
Cd86 O85 2.228 . S
Cd86 O90 2.273 . S
Cd86 O94 2.277 . S
O87 C84 1.160 . S
O87 Cd88 2.203 . S
Cd88 O87 2.203 . S
Cd88 O90 2.411 . S
Cd88 O91 2.333 . S
Cd88 O92 2.352 . S
Cd88 O96 2.277 . S
Cd88 O97 2.356 . S
C89 O94 1.209 . S
C89 O96 1.226 . S
O90 Cd86 2.273 . S
O90 Cd88 2.411 . S
O90 C93 1.320 . S
O91 Cd88 2.333 . S
O91 C93 1.214 . S
O92 Cd88 2.352 . S
O92 C95 1.258 . S
C93 O90 1.320 . S
C93 O91 1.214 . S
O94 Cd86 2.277 . S
O94 C89 1.209 . S
C95 O92 1.258 . S
C95 O97 1.282 . S
O96 Cd88 2.277 . S
O96 C89 1.226 . S
O97 Cd88 2.356 . S
O97 C95 1.282 . S
C98 O99 1.306 . S
C98 O101 1.160 . S
O99 C98 1.306 . S
O99 Cd100 2.228 . S
Cd100 O99 2.228 . S
Cd100 O104 2.273 . S
Cd100 O108 2.277 . S
O101 C98 1.160 . S
O101 Cd102 2.203 . S
Cd102 O101 2.203 . S
Cd102 O104 2.411 . S
Cd102 O105 2.333 . S
Cd102 O106 2.352 . S
Cd102 O110 2.277 . S
Cd102 O111 2.356 . S
C103 O108 1.209 . S
C103 O110 1.226 . S
O104 Cd100 2.273 . S
O104 Cd102 2.411 . S
O104 C107 1.320 . S
O105 Cd102 2.333 . S
O105 C107 1.214 . S
O106 Cd102 2.352 . S
O106 C109 1.258 . S
C107 O104 1.320 . S
C107 O105 1.214 . S
O108 Cd100 2.277 . S
O108 C103 1.209 . S
C109 O106 1.258 . S
C109 O111 1.282 . S
O110 Cd102 2.277 . S
O110 C103 1.226 . S
O111 Cd102 2.356 . S
O111 C109 1.282 . S
C112 O113 1.306 . S
C112 O115 1.160 . S
O113 C112 1.306 . S
O113 Cd114 2.228 . S
Cd114 O113 2.228 . S
Cd114 O118 2.273 . S
Cd114 O122 2.277 . S
O115 C112 1.160 . S
O115 Cd116 2.203 . S
Cd116 O115 2.203 . S
Cd116 O118 2.411 . S
Cd116 O119 2.333 . S
Cd116 O120 2.352 . S
Cd116 O124 2.277 . S
Cd116 O125 2.356 . S
C117 O122 1.209 . S
C117 O124 1.226 . S
O118 Cd114 2.273 . S
O118 Cd116 2.411 . S
O118 C121 1.320 . S
O119 Cd116 2.333 . S
O119 C121 1.214 . S
O120 Cd116 2.352 . S
O120 C123 1.258 . S
C121 O118 1.320 . S
C121 O119 1.214 . S
O122 Cd114 2.277 . S
O122 C117 1.209 . S
C123 O120 1.258 . S
C123 O125 1.282 . S
O124 Cd116 2.277 . S
O124 C117 1.226 . S
O125 Cd116 2.356 . S
O125 C123 1.282 . S
C126 O127 1.306 . S
C126 O129 1.160 . S
O127 C126 1.306 . S
O127 Cd128 2.228 . S
Cd128 O127 2.228 . S
Cd128 O132 2.273 . S
Cd128 O136 2.277 . S
O129 C126 1.160 . S
O129 Cd130 2.203 . S
Cd130 O129 2.203 . S
Cd130 O132 2.411 . S
Cd130 O133 2.333 . S
Cd130 O134 2.352 . S
Cd130 O138 2.277 . S
Cd130 O139 2.356 . S
C131 O136 1.209 . S
C131 O138 1.226 . S
O132 Cd128 2.273 . S
O132 Cd130 2.411 . S
O132 C135 1.320 . S
O133 Cd130 2.333 . S
O133 C135 1.214 . S
O134 Cd130 2.352 . S
O134 C137 1.258 . S
C135 O132 1.320 . S
C135 O133 1.214 . S
O136 Cd128 2.277 . S
O136 C131 1.209 . S
C137 O134 1.258 . S
C137 O139 1.282 . S
O138 Cd130 2.277 . S
O138 C131 1.226 . S
O139 Cd130 2.356 . S
O139 C137 1.282 . S
C140 O141 1.306 . S
C140 O143 1.160 . S
O141 C140 1.306 . S
O141 Cd142 2.228 . S
Cd142 O141 2.228 . S
Cd142 O146 2.273 . S
Cd142 O150 2.277 . S
O143 C140 1.160 . S
O143 Cd144 2.203 . S
Cd144 O143 2.203 . S
Cd144 O146 2.411 . S
Cd144 O147 2.333 . S
Cd144 O148 2.352 . S
Cd144 O152 2.277 . S
Cd144 O153 2.356 . S
C145 O150 1.209 . S
C145 O152 1.226 . S
O146 Cd142 2.273 . S
O146 Cd144 2.411 . S
O146 C149 1.320 . S
O147 Cd144 2.333 . S
O147 C149 1.214 . S
O148 Cd144 2.352 . S
O148 C151 1.258 . S
C149 O146 1.320 . S
C149 O147 1.214 . S
O150 Cd142 2.277 . S
O150 C145 1.209 . S
C151 O148 1.258 . S
C151 O153 1.282 . S
O152 Cd144 2.277 . S
O152 C145 1.226 . S
O153 Cd144 2.356 . S
O153 C151 1.282 . S
C154 O155 1.306 . S
C154 O157 1.160 . S
O155 C154 1.306 . S
O155 Cd156 2.228 . S
Cd156 O155 2.228 . S
Cd156 O160 2.273 . S
Cd156 O164 2.277 . S
O157 C154 1.160 . S
O157 Cd158 2.203 . S
Cd158 O157 2.203 . S
Cd158 O160 2.411 . S
Cd158 O161 2.333 . S
Cd158 O162 2.352 . S
Cd158 O166 2.277 . S
Cd158 O167 2.356 . S
C159 O164 1.209 . S
C159 O166 1.226 . S
O160 Cd156 2.273 . S
O160 Cd158 2.411 . S
O160 C163 1.320 . S
O161 Cd158 2.333 . S
O161 C163 1.214 . S
O162 Cd158 2.352 . S
O162 C165 1.258 . S
C163 O160 1.320 . S
C163 O161 1.214 . S
O164 Cd156 2.277 . S
O164 C159 1.209 . S
C165 O162 1.258 . S
C165 O167 1.282 . S
O166 Cd158 2.277 . S
O166 C159 1.226 . S
O167 Cd158 2.356 . S
O167 C165 1.282 . S
H168 C186 0.951 . S
H169 C188 0.951 . S
H170 C190 0.950 . S
H171 C191 0.950 . S
H172 C193 0.950 . S
H173 C196 0.950 . S
H174 C197 0.950 . S
H175 C199 0.950 . S
H176 C200 0.950 . S
H177 C201 0.951 . S
H178 C203 0.951 . S
H179 C205 0.950 . S
H180 C206 0.950 . S
H181 C208 0.950 . S
H182 C211 0.950 . S
H183 C212 0.950 . S
H184 C214 0.950 . S
H185 C215 0.950 . S
C186 H168 0.951 . S
C186 C187 1.366 . S
C186 C188 1.388 . S
C187 C186 1.366 . S
C187 C191 1.385 . S
C188 H169 0.951 . S
C188 C186 1.388 . S
C188 C189 1.366 . S
C189 C188 1.366 . S
C189 C190 1.414 . S
C189 C192 1.499 . S
C190 H170 0.950 . S
C190 C189 1.414 . S
C190 C191 1.374 . S
C191 H171 0.950 . S
C191 C187 1.385 . S
C191 C190 1.374 . S
C192 C189 1.499 . S
C192 C193 1.373 1_556 S
C192 C194 1.389 . S
C193 H172 0.950 . S
C193 C192 1.373 1_554 S
C193 C209 1.377 1_565 S
C194 C192 1.389 . S
C194 C195 1.524 . S
C194 C208 1.377 1_565 S
C195 C194 1.524 . S
C195 C196 1.397 . S
C195 C200 1.363 1_565 S
C196 H173 0.950 . S
C196 C195 1.397 . S
C196 C197 1.334 . S
C197 H174 0.950 . S
C197 C196 1.334 . S
C197 C198 1.287 . S
C198 C197 1.287 . S
C198 C199 1.524 1_565 S
C198 H217 0.913 . S
C199 H175 0.950 . S
C199 C198 1.524 1_545 S
C199 C200 1.415 . S
C200 H176 0.950 . S
C200 C195 1.363 1_545 S
C200 C199 1.415 . S
C201 H177 0.951 . S
C201 C202 1.366 . S
C201 C203 1.388 . S
C202 C201 1.366 . S
C202 C206 1.385 . S
C203 H178 0.951 . S
C203 C201 1.388 . S
C203 C204 1.366 . S
C204 C203 1.366 . S
C204 C205 1.414 . S
C204 C207 1.499 . S
C205 H179 0.950 . S
C205 C204 1.414 . S
C205 C206 1.374 . S
C206 H180 0.950 . S
C206 C202 1.385 . S
C206 C205 1.374 . S
C207 C204 1.499 . S
C207 C208 1.373 1_554 S
C207 C209 1.389 . S
C208 H181 0.950 . S
C208 C194 1.377 1_545 S
C208 C207 1.373 1_556 S
C209 C193 1.377 1_545 S
C209 C207 1.389 . S
C209 C210 1.524 . S
C210 C209 1.524 . S
C210 C211 1.397 . S
C210 C215 1.363 1_545 S
C211 H182 0.950 . S
C211 C210 1.397 . S
C211 C212 1.334 . S
C212 H183 0.950 . S
C212 C211 1.334 . S
C212 C213 1.287 . S
C213 C212 1.287 . S
C213 C214 1.524 1_545 S
C213 H216 0.999 . S
C214 H184 0.950 . S
C214 C213 1.524 1_565 S
C214 C215 1.415 . S
C215 H185 0.950 . S
C215 C210 1.363 1_565 S
C215 C214 1.415 . S
H216 C213 0.999 . S
H217 C198 0.913 . S
H218 C236 0.951 . S
H219 C238 0.951 . S
H220 C240 0.950 . S
H221 C241 0.950 . S
H222 C243 0.950 . S
H223 C246 0.950 . S
H224 C247 0.950 . S
H225 C249 0.950 . S
H226 C250 0.950 . S
H227 C251 0.951 . S
H228 C253 0.951 . S
H229 C255 0.950 . S
H230 C256 0.950 . S
H231 C258 0.950 . S
H232 C261 0.950 . S
H233 C262 0.950 . S
H234 C264 0.950 . S
H235 C265 0.950 . S
C236 H218 0.951 . S
C236 C237 1.366 . S
C236 C238 1.388 . S
C237 C236 1.366 . S
C237 C241 1.385 . S
C238 H219 0.951 . S
C238 C236 1.388 . S
C238 C239 1.366 . S
C239 C238 1.366 . S
C239 C240 1.414 . S
C239 C242 1.499 . S
C240 H220 0.950 . S
C240 C239 1.414 . S
C240 C241 1.374 . S
C241 H221 0.950 . S
C241 C237 1.385 . S
C241 C240 1.374 . S
C242 C239 1.499 . S
C242 C243 1.373 . S
C242 C244 1.389 . S
C243 H222 0.950 . S
C243 C242 1.373 . S
C243 C259 1.377 . S
C244 C242 1.389 . S
C244 C245 1.524 . S
C244 C258 1.377 . S
C245 C244 1.524 . S
C245 C246 1.397 . S
C245 C250 1.363 . S
C246 H223 0.950 . S
C246 C245 1.397 . S
C246 C247 1.334 . S
C247 H224 0.950 . S
C247 C246 1.334 . S
C247 C248 1.287 . S
C248 C247 1.287 . S
C248 C249 1.524 . S
C248 H267 0.913 . S
C249 H225 0.950 . S
C249 C248 1.524 . S
C249 C250 1.415 . S
C250 H226 0.950 . S
C250 C245 1.363 . S
C250 C249 1.415 . S
C251 H227 0.951 . S
C251 C252 1.366 . S
C251 C253 1.388 . S
C252 C251 1.366 . S
C252 C256 1.385 . S
C253 H228 0.951 . S
C253 C251 1.388 . S
C253 C254 1.366 . S
C254 C253 1.366 . S
C254 C255 1.414 . S
C254 C257 1.499 . S
C255 H229 0.950 . S
C255 C254 1.414 . S
C255 C256 1.374 . S
C256 H230 0.950 . S
C256 C252 1.385 . S
C256 C255 1.374 . S
C257 C254 1.499 . S
C257 C258 1.373 . S
C257 C259 1.389 . S
C258 H231 0.950 . S
C258 C244 1.377 . S
C258 C257 1.373 . S
C259 C243 1.377 . S
C259 C257 1.389 . S
C259 C260 1.524 . S
C260 C259 1.524 . S
C260 C261 1.397 . S
C260 C265 1.363 . S
C261 H232 0.950 . S
C261 C260 1.397 . S
C261 C262 1.334 . S
C262 H233 0.950 . S
C262 C261 1.334 . S
C262 C263 1.287 . S
C263 C262 1.287 . S
C263 C264 1.524 . S
C263 H266 0.999 . S
C264 H234 0.950 . S
C264 C263 1.524 . S
C264 C265 1.415 . S
C265 H235 0.950 . S
C265 C260 1.363 . S
C265 C264 1.415 . S
H266 C263 0.999 . S
H267 C248 0.913 . S
H268 C286 0.951 . S
H269 C288 0.951 . S
H270 C290 0.950 . S
H271 C291 0.950 . S
H272 C293 0.950 . S
H273 C296 0.950 . S
H274 C297 0.950 . S
H275 C299 0.950 . S
H276 C300 0.950 . S
H277 C301 0.951 . S
H278 C303 0.951 . S
H279 C305 0.950 . S
H280 C306 0.950 . S
H281 C308 0.950 . S
H282 C311 0.950 . S
H283 C312 0.950 . S
H284 C314 0.950 . S
H285 C315 0.950 . S
C286 H268 0.951 . S
C286 C287 1.366 . S
C286 C288 1.388 . S
C287 C286 1.366 . S
C287 C291 1.385 . S
C288 H269 0.951 . S
C288 C286 1.388 . S
C288 C289 1.366 . S
C289 C288 1.366 . S
C289 C290 1.414 . S
C289 C292 1.499 . S
C290 H270 0.950 . S
C290 C289 1.414 . S
C290 C291 1.374 . S
C291 H271 0.950 . S
C291 C287 1.385 . S
C291 C290 1.374 . S
C292 C289 1.499 . S
C292 C293 1.373 . S
C292 C294 1.389 . S
C293 H272 0.950 . S
C293 C292 1.373 . S
C293 C309 1.377 1_655 S
C294 C292 1.389 . S
C294 C295 1.524 . S
C294 C308 1.377 1_655 S
C295 C294 1.524 . S
C295 C296 1.401 . S
C295 C300 1.359 1_655 S
C296 H273 0.950 . S
C296 C295 1.401 . S
C296 C297 1.334 . S
C297 H274 0.950 . S
C297 C296 1.334 . S
C297 C298 1.278 1_655 S
C298 C297 1.278 1_455 S
C298 C299 1.535 . S
C298 H317 0.907 1_455 S
C299 H275 0.950 . S
C299 C298 1.535 . S
C299 C300 1.415 . S
C300 H276 0.950 . S
C300 C295 1.359 1_455 S
C300 C299 1.415 . S
C301 H277 0.951 . S
C301 C302 1.366 . S
C301 C303 1.388 . S
C302 C301 1.366 . S
C302 C306 1.385 . S
C303 H278 0.951 . S
C303 C301 1.388 . S
C303 C304 1.366 . S
C304 C303 1.366 . S
C304 C305 1.414 . S
C304 C307 1.499 . S
C305 H279 0.950 . S
C305 C304 1.414 . S
C305 C306 1.374 . S
C306 H280 0.950 . S
C306 C302 1.385 . S
C306 C305 1.374 . S
C307 C304 1.499 . S
C307 C308 1.373 . S
C307 C309 1.389 . S
C308 H281 0.950 . S
C308 C294 1.377 1_455 S
C308 C307 1.373 . S
C309 C293 1.377 1_455 S
C309 C307 1.389 . S
C309 C310 1.524 . S
C310 C309 1.524 . S
C310 C311 1.401 . S
C310 C315 1.359 1_455 S
C311 H282 0.950 . S
C311 C310 1.401 . S
C311 C312 1.334 . S
C312 H283 0.950 . S
C312 C311 1.334 . S
C312 C313 1.278 1_455 S
C313 C312 1.278 1_655 S
C313 C314 1.535 . S
C313 H316 0.997 . S
C314 H284 0.950 . S
C314 C313 1.535 . S
C314 C315 1.415 . S
C315 H285 0.950 . S
C315 C310 1.359 1_655 S
C315 C314 1.415 . S
H316 C313 0.997 . S
H317 C298 0.907 1_655 S
H318 C336 0.951 . S
H319 C338 0.951 1_556 S
H320 C340 0.950 . S
H321 C341 0.950 . S
H322 C343 0.950 . S
H323 C346 0.950 . S
H324 C347 0.983 . S
H325 C349 0.950 . S
H326 C350 0.950 . S
H327 C351 0.951 . S
H328 C353 0.951 1_554 S
H329 C355 0.950 . S
H330 C356 0.950 . S
H331 C358 0.950 . S
H332 C361 0.950 . S
H333 C362 0.983 . S
H334 C364 0.950 . S
H335 C365 0.950 . S
C336 H318 0.951 . S
C336 C337 1.366 . S
C336 C338 1.388 . S
C337 C336 1.366 . S
C337 C341 1.385 . S
C338 H319 0.951 1_554 S
C338 C336 1.388 . S
C338 C339 1.366 . S
C339 C338 1.366 . S
C339 C340 1.414 . S
C339 C342 1.499 . S
C340 H320 0.950 . S
C340 C339 1.414 . S
C340 C341 1.374 . S
C341 H321 0.950 . S
C341 C337 1.385 . S
C341 C340 1.374 . S
C342 C339 1.499 . S
C342 C343 1.373 . S
C342 C344 1.389 1_554 S
C343 H322 0.950 . S
C343 C342 1.373 . S
C343 C359 1.377 1_565 S
C344 C342 1.389 1_556 S
C344 C345 1.524 . S
C344 C358 1.377 1_565 S
C345 C344 1.524 . S
C345 C346 1.397 1_556 S
C345 C350 1.363 . S
C346 H323 0.950 . S
C346 C345 1.397 1_554 S
C346 C347 1.343 . S
C347 H324 0.983 . S
C347 C346 1.343 . S
C347 C348 1.245 1_554 S
C348 C347 1.245 1_556 S
C348 C349 1.524 . S
C348 H367 0.913 . S
C349 H325 0.950 . S
C349 C348 1.524 . S
C349 C350 1.415 . S
C350 H326 0.950 . S
C350 C345 1.363 . S
C350 C349 1.415 . S
C351 H327 0.951 . S
C351 C352 1.366 . S
C351 C353 1.388 . S
C352 C351 1.366 . S
C352 C356 1.385 . S
C353 H328 0.951 1_556 S
C353 C351 1.388 . S
C353 C354 1.366 . S
C354 C353 1.366 . S
C354 C355 1.414 . S
C354 C357 1.499 . S
C355 H329 0.950 . S
C355 C354 1.414 . S
C355 C356 1.374 . S
C356 H330 0.950 . S
C356 C352 1.385 . S
C356 C355 1.374 . S
C357 C354 1.499 . S
C357 C358 1.373 . S
C357 C359 1.389 1_556 S
C358 H331 0.950 . S
C358 C344 1.377 1_545 S
C358 C357 1.373 . S
C359 C343 1.377 1_545 S
C359 C357 1.389 1_554 S
C359 C360 1.524 . S
C360 C359 1.524 . S
C360 C361 1.397 1_554 S
C360 C365 1.363 . S
C361 H332 0.950 . S
C361 C360 1.397 1_556 S
C361 C362 1.343 . S
C362 H333 0.983 . S
C362 C361 1.343 . S
C362 C363 1.245 1_556 S
C363 C362 1.245 1_554 S
C363 C364 1.524 . S
C363 H366 0.999 . S
C364 H334 0.950 . S
C364 C363 1.524 . S
C364 C365 1.415 . S
C365 H335 0.950 . S
C365 C360 1.363 . S
C365 C364 1.415 . S
H366 C363 0.999 . S
H367 C348 0.913 . S
H368 C386 0.951 . S
H369 C388 0.951 . S
H370 C390 0.950 . S
H371 C391 0.950 . S
H372 C393 0.950 . S
H373 C396 0.950 . S
H374 C397 0.950 . S
H375 C399 0.950 . S
H376 C400 0.950 . S
H377 C401 0.951 . S
H378 C403 0.951 . S
H379 C405 0.950 . S
H380 C406 0.950 . S
H381 C408 0.950 . S
H382 C411 0.950 . S
H383 C412 0.950 . S
H384 C414 0.950 . S
H385 C415 0.950 . S
C386 H368 0.951 . S
C386 C387 1.366 . S
C386 C388 1.388 . S
C387 C386 1.366 . S
C387 C391 1.385 . S
C388 H369 0.951 . S
C388 C386 1.388 . S
C388 C389 1.366 . S
C389 C388 1.366 . S
C389 C390 1.414 . S
C389 C392 1.499 . S
C390 H370 0.950 . S
C390 C389 1.414 . S
C390 C391 1.374 . S
C391 H371 0.950 . S
C391 C387 1.385 . S
C391 C390 1.374 . S
C392 C389 1.499 . S
C392 C393 1.373 . S
C392 C394 1.389 . S
C393 H372 0.950 . S
C393 C392 1.373 . S
C393 C409 1.377 . S
C394 C392 1.389 . S
C394 C395 1.524 . S
C394 C408 1.377 . S
C395 C394 1.524 . S
C395 C396 1.397 . S
C395 C400 1.363 . S
C396 H373 0.950 . S
C396 C395 1.397 . S
C396 C397 1.334 . S
C397 H374 0.950 . S
C397 C396 1.334 . S
C397 C398 1.287 . S
C398 C397 1.287 . S
C398 C399 1.524 . S
C398 H417 0.913 . S
C399 H375 0.950 . S
C399 C398 1.524 . S
C399 C400 1.415 . S
C400 H376 0.950 . S
C400 C395 1.363 . S
C400 C399 1.415 . S
C401 H377 0.951 . S
C401 C402 1.366 . S
C401 C403 1.388 . S
C402 C401 1.366 . S
C402 C406 1.385 . S
C403 H378 0.951 . S
C403 C401 1.388 . S
C403 C404 1.366 . S
C404 C403 1.366 . S
C404 C405 1.414 . S
C404 C407 1.499 . S
C405 H379 0.950 . S
C405 C404 1.414 . S
C405 C406 1.374 . S
C406 H380 0.950 . S
C406 C402 1.385 . S
C406 C405 1.374 . S
C407 C404 1.499 . S
C407 C408 1.373 . S
C407 C409 1.389 . S
C408 H381 0.950 . S
C408 C394 1.377 . S
C408 C407 1.373 . S
C409 C393 1.377 . S
C409 C407 1.389 . S
C409 C410 1.524 . S
C410 C409 1.524 . S
C410 C411 1.397 . S
C410 C415 1.363 . S
C411 H382 0.950 . S
C411 C410 1.397 . S
C411 C412 1.334 . S
C412 H383 0.950 . S
C412 C411 1.334 . S
C412 C413 1.287 . S
C413 C412 1.287 . S
C413 C414 1.524 . S
C413 H416 0.999 . S
C414 H384 0.950 . S
C414 C413 1.524 . S
C414 C415 1.415 . S
C415 H385 0.950 . S
C415 C410 1.363 . S
C415 C414 1.415 . S
H416 C413 0.999 . S
H417 C398 0.913 . S
H418 C436 0.951 . S
H419 C438 0.951 . S
H420 C440 0.950 . S
H421 C441 0.950 . S
H422 C443 0.950 . S
H423 C446 0.950 . S
H424 C447 0.950 . S
H425 C449 0.950 . S
H426 C450 0.950 . S
H427 C451 0.951 . S
H428 C453 0.951 . S
H429 C455 0.950 . S
H430 C456 0.950 . S
H431 C458 0.950 . S
H432 C461 0.950 . S
H433 C462 0.950 . S
H434 C464 0.950 . S
H435 C465 0.950 . S
C436 H418 0.951 . S
C436 C437 1.366 . S
C436 C438 1.388 . S
C437 C436 1.366 . S
C437 C441 1.385 . S
C438 H419 0.951 . S
C438 C436 1.388 . S
C438 C439 1.366 . S
C439 C438 1.366 . S
C439 C440 1.414 . S
C439 C442 1.499 . S
C440 H420 0.950 . S
C440 C439 1.414 . S
C440 C441 1.374 . S
C441 H421 0.950 . S
C441 C437 1.385 . S
C441 C440 1.374 . S
C442 C439 1.499 . S
C442 C443 1.373 . S
C442 C444 1.389 . S
C443 H422 0.950 . S
C443 C442 1.373 . S
C443 C459 1.377 1_655 S
C444 C442 1.389 . S
C444 C445 1.524 . S
C444 C458 1.377 1_655 S
C445 C444 1.524 . S
C445 C446 1.397 . S
C445 C450 1.363 . S
C446 H423 0.950 . S
C446 C445 1.397 . S
C446 C447 1.334 . S
C447 H424 0.950 . S
C447 C446 1.334 . S
C447 C448 1.287 . S
C448 C447 1.287 . S
C448 C449 1.524 . S
C448 H467 0.913 . S
C449 H425 0.950 . S
C449 C448 1.524 . S
C449 C450 1.415 . S
C450 H426 0.950 . S
C450 C445 1.363 . S
C450 C449 1.415 . S
C451 H427 0.951 . S
C451 C452 1.366 . S
C451 C453 1.388 . S
C452 C451 1.366 . S
C452 C456 1.385 . S
C453 H428 0.951 . S
C453 C451 1.388 . S
C453 C454 1.366 . S
C454 C453 1.366 . S
C454 C455 1.414 . S
C454 C457 1.499 . S
C455 H429 0.950 . S
C455 C454 1.414 . S
C455 C456 1.374 . S
C456 H430 0.950 . S
C456 C452 1.385 . S
C456 C455 1.374 . S
C457 C454 1.499 . S
C457 C458 1.373 . S
C457 C459 1.389 . S
C458 H431 0.950 . S
C458 C444 1.377 1_455 S
C458 C457 1.373 . S
C459 C443 1.377 1_455 S
C459 C457 1.389 . S
C459 C460 1.524 . S
C460 C459 1.524 . S
C460 C461 1.397 . S
C460 C465 1.363 . S
C461 H432 0.950 . S
C461 C460 1.397 . S
C461 C462 1.334 . S
C462 H433 0.950 . S
C462 C461 1.334 . S
C462 C463 1.287 . S
C463 C462 1.287 . S
C463 C464 1.524 . S
C463 H466 0.999 . S
C464 H434 0.950 . S
C464 C463 1.524 . S
C464 C465 1.415 . S
C465 H435 0.950 . S
C465 C460 1.363 . S
C465 C464 1.415 . S
H466 C463 0.999 . S
H467 C448 0.913 . S
H468 C486 0.951 . S
H469 C488 0.951 . S
H470 C490 0.950 . S
H471 C491 0.950 . S
H472 C493 0.950 . S
H473 C496 0.950 . S
H474 C497 0.950 . S
H475 C499 0.950 . S
H476 C500 0.950 . S
H477 C501 0.951 . S
H478 C503 0.951 . S
H479 C505 0.950 . S
H480 C506 0.950 . S
H481 C508 0.950 . S
H482 C511 0.950 . S
H483 C512 0.950 . S
H484 C514 0.950 . S
H485 C515 0.950 . S
C486 H468 0.951 . S
C486 C487 1.366 . S
C486 C488 1.388 . S
C487 C486 1.366 . S
C487 C491 1.385 . S
C488 H469 0.951 . S
C488 C486 1.388 . S
C488 C489 1.366 . S
C489 C488 1.366 . S
C489 C490 1.414 . S
C489 C492 1.499 . S
C490 H470 0.950 . S
C490 C489 1.414 . S
C490 C491 1.374 . S
C491 H471 0.950 . S
C491 C487 1.385 . S
C491 C490 1.374 . S
C492 C489 1.499 . S
C492 C493 1.373 . S
C492 C494 1.389 1_556 S
C493 H472 0.950 . S
C493 C492 1.373 . S
C493 C509 1.377 . S
C494 C492 1.389 1_554 S
C494 C495 1.524 . S
C494 C508 1.377 . S
C495 C494 1.524 . S
C495 C496 1.397 . S
C495 C500 1.363 . S
C496 H473 0.950 . S
C496 C495 1.397 . S
C496 C497 1.334 . S
C497 H474 0.950 . S
C497 C496 1.334 . S
C497 C498 1.287 . S
C498 C497 1.287 . S
C498 C499 1.524 . S
C498 H517 0.913 . S
C499 H475 0.950 . S
C499 C498 1.524 . S
C499 C500 1.415 . S
C500 H476 0.950 . S
C500 C495 1.363 . S
C500 C499 1.415 . S
C501 H477 0.951 . S
C501 C502 1.366 . S
C501 C503 1.388 . S
C502 C501 1.366 . S
C502 C506 1.385 . S
C503 H478 0.951 . S
C503 C501 1.388 . S
C503 C504 1.366 . S
C504 C503 1.366 . S
C504 C505 1.414 . S
C504 C507 1.499 . S
C505 H479 0.950 . S
C505 C504 1.414 . S
C505 C506 1.374 . S
C506 H480 0.950 . S
C506 C502 1.385 . S
C506 C505 1.374 . S
C507 C504 1.499 . S
C507 C508 1.373 . S
C507 C509 1.389 1_554 S
C508 H481 0.950 . S
C508 C494 1.377 . S
C508 C507 1.373 . S
C509 C493 1.377 . S
C509 C507 1.389 1_556 S
C509 C510 1.524 . S
C510 C509 1.524 . S
C510 C511 1.397 . S
C510 C515 1.363 . S
C511 H482 0.950 . S
C511 C510 1.397 . S
C511 C512 1.334 . S
C512 H483 0.950 . S
C512 C511 1.334 . S
C512 C513 1.287 . S
C513 C512 1.287 . S
C513 C514 1.524 . S
C513 H516 0.999 . S
C514 H484 0.950 . S
C514 C513 1.524 . S
C514 C515 1.415 . S
C515 H485 0.950 . S
C515 C510 1.363 . S
C515 C514 1.415 . S
H516 C513 0.999 . S
H517 C498 0.913 . S
H518 C536 0.951 . S
H519 C538 0.951 . S
H520 C540 0.950 . S
H521 C541 0.950 . S
H522 C543 0.950 . S
H523 C546 0.950 . S
H524 C547 0.950 . S
H525 C549 0.950 . S
H526 C550 0.950 . S
H527 C551 0.951 . S
H528 C553 0.951 . S
H529 C555 0.950 . S
H530 C556 0.950 . S
H531 C558 0.950 . S
H532 C561 0.950 . S
H533 C562 0.950 . S
H534 C564 0.950 . S
H535 C565 0.950 . S
C536 H518 0.951 . S
C536 C537 1.366 . S
C536 C538 1.388 . S
C537 C536 1.366 . S
C537 C541 1.385 . S
C538 H519 0.951 . S
C538 C536 1.388 . S
C538 C539 1.366 . S
C539 C538 1.366 . S
C539 C540 1.414 . S
C539 C542 1.499 . S
C540 H520 0.950 . S
C540 C539 1.414 . S
C540 C541 1.374 . S
C541 H521 0.950 . S
C541 C537 1.385 . S
C541 C540 1.374 . S
C542 C539 1.499 . S
C542 C543 1.373 . S
C542 C544 1.389 . S
C543 H522 0.950 . S
C543 C542 1.373 . S
C543 C559 1.377 . S
C544 C542 1.389 . S
C544 C545 1.524 . S
C544 C558 1.377 . S
C545 C544 1.524 . S
C545 C546 1.397 . S
C545 C550 1.363 . S
C546 H523 0.950 . S
C546 C545 1.397 . S
C546 C547 1.334 . S
C547 H524 0.950 . S
C547 C546 1.334 . S
C547 C548 1.287 . S
C548 C547 1.287 . S
C548 C549 1.524 . S
C548 H567 0.913 . S
C549 H525 0.950 . S
C549 C548 1.524 . S
C549 C550 1.415 . S
C550 H526 0.950 . S
C550 C545 1.363 . S
C550 C549 1.415 . S
C551 H527 0.951 . S
C551 C552 1.366 . S
C551 C553 1.388 . S
C552 C551 1.366 . S
C552 C556 1.385 . S
C553 H528 0.951 . S
C553 C551 1.388 . S
C553 C554 1.366 . S
C554 C553 1.366 . S
C554 C555 1.414 . S
C554 C557 1.499 . S
C555 H529 0.950 . S
C555 C554 1.414 . S
C555 C556 1.374 . S
C556 H530 0.950 . S
C556 C552 1.385 . S
C556 C555 1.374 . S
C557 C554 1.499 . S
C557 C558 1.373 . S
C557 C559 1.389 . S
C558 H531 0.950 . S
C558 C544 1.377 . S
C558 C557 1.373 . S
C559 C543 1.377 . S
C559 C557 1.389 . S
C559 C560 1.524 . S
C560 C559 1.524 . S
C560 C561 1.397 . S
C560 C565 1.363 . S
C561 H532 0.950 . S
C561 C560 1.397 . S
C561 C562 1.334 . S
C562 H533 0.950 . S
C562 C561 1.334 . S
C562 C563 1.287 . S
C563 C562 1.287 . S
C563 C564 1.524 . S
C563 H566 0.999 . S
C564 H534 0.950 . S
C564 C563 1.524 . S
C564 C565 1.415 . S
C565 H535 0.950 . S
C565 C560 1.363 . S
C565 C564 1.415 . S
H566 C563 0.999 . S
H567 C548 0.913 . S
H568 C586 0.951 . S
H569 C588 0.951 . S
H570 C590 0.950 . S
H571 C591 0.950 . S
H572 C593 0.950 . S
H573 C596 0.950 . S
H574 C597 0.950 . S
H575 C599 0.950 . S
H576 C600 0.950 . S
H577 C601 0.951 . S
H578 C603 0.951 . S
H579 C605 0.950 . S
H580 C606 0.950 . S
H581 C608 0.950 . S
H582 C611 0.950 . S
H583 C612 0.950 . S
H584 C614 0.950 . S
H585 C615 0.950 . S
C586 H568 0.951 . S
C586 C587 1.366 . S
C586 C588 1.388 . S
C587 C586 1.366 . S
C587 C591 1.385 . S
C588 H569 0.951 . S
C588 C586 1.388 . S
C588 C589 1.366 . S
C589 C588 1.366 . S
C589 C590 1.414 . S
C589 C592 1.499 . S
C590 H570 0.950 . S
C590 C589 1.414 . S
C590 C591 1.374 . S
C591 H571 0.950 . S
C591 C587 1.385 . S
C591 C590 1.374 . S
C592 C589 1.499 . S
C592 C593 1.373 . S
C592 C594 1.389 . S
C593 H572 0.950 . S
C593 C592 1.373 . S
C593 C609 1.377 . S
C594 C592 1.389 . S
C594 C595 1.524 . S
C594 C608 1.377 . S
C595 C594 1.524 . S
C595 C596 1.397 . S
C595 C600 1.363 . S
C596 H573 0.950 . S
C596 C595 1.397 . S
C596 C597 1.334 . S
C597 H574 0.950 . S
C597 C596 1.334 . S
C597 C598 1.287 . S
C598 C597 1.287 . S
C598 C599 1.524 . S
C598 H617 0.913 . S
C599 H575 0.950 . S
C599 C598 1.524 . S
C599 C600 1.415 . S
C600 H576 0.950 . S
C600 C595 1.363 . S
C600 C599 1.415 . S
C601 H577 0.951 . S
C601 C602 1.366 . S
C601 C603 1.388 . S
C602 C601 1.366 . S
C602 C606 1.385 . S
C603 H578 0.951 . S
C603 C601 1.388 . S
C603 C604 1.366 . S
C604 C603 1.366 . S
C604 C605 1.414 . S
C604 C607 1.499 . S
C605 H579 0.950 . S
C605 C604 1.414 . S
C605 C606 1.374 . S
C606 H580 0.950 . S
C606 C602 1.385 . S
C606 C605 1.374 . S
C607 C604 1.499 . S
C607 C608 1.373 . S
C607 C609 1.389 . S
C608 H581 0.950 . S
C608 C594 1.377 . S
C608 C607 1.373 . S
C609 C593 1.377 . S
C609 C607 1.389 . S
C609 C610 1.524 . S
C610 C609 1.524 . S
C610 C611 1.397 . S
C610 C615 1.363 . S
C611 H582 0.950 . S
C611 C610 1.397 . S
C611 C612 1.334 . S
C612 H583 0.950 . S
C612 C611 1.334 . S
C612 C613 1.287 . S
C613 C612 1.287 . S
C613 C614 1.524 . S
C613 H616 0.999 . S
C614 H584 0.950 . S
C614 C613 1.524 . S
C614 C615 1.415 . S
C615 H585 0.950 . S
C615 C610 1.363 . S
C615 C614 1.415 . S
H616 C613 0.999 . S
H617 C598 0.913 . S
H618 C636 0.951 . S
H619 C638 0.951 1_554 S
H620 C640 0.950 . S
H621 C641 0.950 . S
H622 C643 0.950 . S
H623 C646 1.021 . S
H624 C647 0.950 . S
H625 C649 0.950 . S
H626 C650 0.950 . S
H627 C651 0.951 . S
H628 C653 0.951 1_556 S
H629 C655 0.950 . S
H630 C656 0.950 . S
H631 C658 0.950 . S
H632 C661 1.021 . S
H633 C662 0.950 . S
H634 C664 0.950 . S
H635 C665 0.950 . S
C636 H618 0.951 . S
C636 C637 1.366 . S
C636 C638 1.388 . S
C637 C636 1.366 . S
C637 C641 1.385 . S
C638 H619 0.951 1_556 S
C638 C636 1.388 . S
C638 C639 1.366 . S
C639 C638 1.366 . S
C639 C640 1.414 . S
C639 C642 1.499 . S
C640 H620 0.950 . S
C640 C639 1.414 . S
C640 C641 1.374 . S
C641 H621 0.950 . S
C641 C637 1.385 . S
C641 C640 1.374 . S
C642 C639 1.499 . S
C642 C643 1.373 . S
C642 C644 1.389 1_556 S
C643 H622 0.950 . S
C643 C642 1.373 . S
C643 C659 1.377 . S
C644 C642 1.389 1_554 S
C644 C645 1.524 . S
C644 C658 1.377 . S
C645 C644 1.524 . S
C645 C646 1.397 . S
C645 C650 1.363 . S
C646 H623 1.021 . S
C646 C645 1.397 . S
C646 C647 1.334 . S
C647 H624 0.950 . S
C647 C646 1.334 . S
C647 C648 1.287 . S
C648 C647 1.287 . S
C648 C649 1.524 . S
C648 H667 0.913 . S
C649 H625 0.950 . S
C649 C648 1.524 . S
C649 C650 1.415 . S
C650 H626 0.950 . S
C650 C645 1.363 . S
C650 C649 1.415 . S
C651 H627 0.951 . S
C651 C652 1.366 . S
C651 C653 1.388 . S
C652 C651 1.366 . S
C652 C656 1.385 . S
C653 H628 0.951 1_554 S
C653 C651 1.388 . S
C653 C654 1.366 . S
C654 C653 1.366 . S
C654 C655 1.414 . S
C654 C657 1.499 . S
C655 H629 0.950 . S
C655 C654 1.414 . S
C655 C656 1.374 . S
C656 H630 0.950 . S
C656 C652 1.385 . S
C656 C655 1.374 . S
C657 C654 1.499 . S
C657 C658 1.373 . S
C657 C659 1.389 1_554 S
C658 H631 0.950 . S
C658 C644 1.377 . S
C658 C657 1.373 . S
C659 C643 1.377 . S
C659 C657 1.389 1_556 S
C659 C660 1.524 . S
C660 C659 1.524 . S
C660 C661 1.397 . S
C660 C665 1.363 . S
C661 H632 1.021 . S
C661 C660 1.397 . S
C661 C662 1.334 . S
C662 H633 0.950 . S
C662 C661 1.334 . S
C662 C663 1.287 . S
C663 C662 1.287 . S
C663 C664 1.524 . S
C663 H666 0.999 . S
C664 H634 0.950 . S
C664 C663 1.524 . S
C664 C665 1.415 . S
C665 H635 0.950 . S
C665 C660 1.363 . S
C665 C664 1.415 . S
H666 C663 0.999 . S
H667 C648 0.913 . S
H668 C686 0.951 . S
H669 C688 0.951 . S
H670 C690 0.950 . S
H671 C691 0.950 . S
H672 C693 0.950 . S
H673 C696 0.950 . S
H674 C697 0.950 . S
H675 C699 0.950 . S
H676 C700 0.950 . S
H677 C701 0.951 . S
H678 C703 0.951 . S
H679 C705 0.950 . S
H680 C706 0.950 . S
H681 C708 0.950 . S
H682 C711 0.950 . S
H683 C712 0.950 . S
H684 C714 0.950 . S
H685 C715 0.950 . S
C686 H668 0.951 . S
C686 C687 1.366 . S
C686 C688 1.388 . S
C687 C686 1.366 . S
C687 C691 1.385 . S
C688 H669 0.951 . S
C688 C686 1.388 . S
C688 C689 1.366 . S
C689 C688 1.366 . S
C689 C690 1.414 . S
C689 C692 1.499 . S
C690 H670 0.950 . S
C690 C689 1.414 . S
C690 C691 1.374 . S
C691 H671 0.950 . S
C691 C687 1.385 . S
C691 C690 1.374 . S
C692 C689 1.499 . S
C692 C693 1.373 . S
C692 C694 1.389 . S
C693 H672 0.950 . S
C693 C692 1.373 . S
C693 C709 1.377 . S
C694 C692 1.389 . S
C694 C695 1.524 . S
C694 C708 1.377 . S
C695 C694 1.524 . S
C695 C696 1.397 . S
C695 C700 1.363 . S
C696 H673 0.950 . S
C696 C695 1.397 . S
C696 C697 1.334 . S
C697 H674 0.950 . S
C697 C696 1.334 . S
C697 C698 1.287 . S
C698 C697 1.287 . S
C698 C699 1.524 . S
C698 H717 0.913 . S
C699 H675 0.950 . S
C699 C698 1.524 . S
C699 C700 1.415 . S
C700 H676 0.950 . S
C700 C695 1.363 . S
C700 C699 1.415 . S
C701 H677 0.951 . S
C701 C702 1.366 . S
C701 C703 1.388 . S
C702 C701 1.366 . S
C702 C706 1.385 . S
C703 H678 0.951 . S
C703 C701 1.388 . S
C703 C704 1.366 . S
C704 C703 1.366 . S
C704 C705 1.414 . S
C704 C707 1.499 . S
C705 H679 0.950 . S
C705 C704 1.414 . S
C705 C706 1.374 . S
C706 H680 0.950 . S
C706 C702 1.385 . S
C706 C705 1.374 . S
C707 C704 1.499 . S
C707 C708 1.373 . S
C707 C709 1.389 . S
C708 H681 0.950 . S
C708 C694 1.377 . S
C708 C707 1.373 . S
C709 C693 1.377 . S
C709 C707 1.389 . S
C709 C710 1.524 . S
C710 C709 1.524 . S
C710 C711 1.397 . S
C710 C715 1.363 . S
C711 H682 0.950 . S
C711 C710 1.397 . S
C711 C712 1.334 . S
C712 H683 0.950 . S
C712 C711 1.334 . S
C712 C713 1.287 . S
C713 C712 1.287 . S
C713 C714 1.524 . S
C713 H716 0.999 . S
C714 H684 0.950 . S
C714 C713 1.524 . S
C714 C715 1.415 . S
C715 H685 0.950 . S
C715 C710 1.363 . S
C715 C714 1.415 . S
H716 C713 0.999 . S
H717 C698 0.913 . S
H718 C736 0.951 . S
H719 C738 0.951 . S
H720 C740 0.950 . S
H721 C741 0.950 . S
H722 C743 0.950 . S
H723 C746 0.950 . S
H724 C747 0.950 . S
H725 C749 0.950 . S
H726 C750 0.950 . S
H727 C751 0.951 . S
H728 C753 0.951 . S
H729 C755 0.950 . S
H730 C756 0.950 . S
H731 C758 0.950 . S
H732 C761 0.950 . S
H733 C762 0.950 . S
H734 C764 0.950 . S
H735 C765 0.950 . S
C736 H718 0.951 . S
C736 C737 1.366 . S
C736 C738 1.388 . S
C737 C736 1.366 . S
C737 C741 1.385 . S
C738 H719 0.951 . S
C738 C736 1.388 . S
C738 C739 1.366 . S
C739 C738 1.366 . S
C739 C740 1.414 . S
C739 C742 1.499 . S
C740 H720 0.950 . S
C740 C739 1.414 . S
C740 C741 1.374 . S
C741 H721 0.950 . S
C741 C737 1.385 . S
C741 C740 1.374 . S
C742 C739 1.499 . S
C742 C743 1.373 . S
C742 C744 1.389 . S
C743 H722 0.950 . S
C743 C742 1.373 . S
C743 C759 1.377 . S
C744 C742 1.389 . S
C744 C745 1.524 . S
C744 C758 1.377 . S
C745 C744 1.524 . S
C745 C746 1.397 . S
C745 C750 1.363 . S
C746 H723 0.950 . S
C746 C745 1.397 . S
C746 C747 1.334 . S
C747 H724 0.950 . S
C747 C746 1.334 . S
C747 C748 1.287 . S
C748 C747 1.287 . S
C748 C749 1.524 . S
C748 H767 0.913 . S
C749 H725 0.950 . S
C749 C748 1.524 . S
C749 C750 1.415 . S
C750 H726 0.950 . S
C750 C745 1.363 . S
C750 C749 1.415 . S
C751 H727 0.951 . S
C751 C752 1.366 . S
C751 C753 1.388 . S
C752 C751 1.366 . S
C752 C756 1.385 . S
C753 H728 0.951 . S
C753 C751 1.388 . S
C753 C754 1.366 . S
C754 C753 1.366 . S
C754 C755 1.414 . S
C754 C757 1.499 . S
C755 H729 0.950 . S
C755 C754 1.414 . S
C755 C756 1.374 . S
C756 H730 0.950 . S
C756 C752 1.385 . S
C756 C755 1.374 . S
C757 C754 1.499 . S
C757 C758 1.373 . S
C757 C759 1.389 . S
C758 H731 0.950 . S
C758 C744 1.377 . S
C758 C757 1.373 . S
C759 C743 1.377 . S
C759 C757 1.389 . S
C759 C760 1.524 . S
C760 C759 1.524 . S
C760 C761 1.397 . S
C760 C765 1.363 . S
C761 H732 0.950 . S
C761 C760 1.397 . S
C761 C762 1.334 . S
C762 H733 0.950 . S
C762 C761 1.334 . S
C762 C763 1.287 . S
C763 C762 1.287 . S
C763 C764 1.524 . S
C763 H766 0.999 . S
C764 H734 0.950 . S
C764 C763 1.524 . S
C764 C765 1.415 . S
C765 H735 0.950 . S
C765 C760 1.363 . S
C765 C764 1.415 . S
H766 C763 0.999 . S
H767 C748 0.913 . S
H768 C786 0.951 . S
H769 C788 0.951 . S
H770 C790 0.950 . S
H771 C791 0.950 . S
H772 C793 0.950 . S
H773 C796 0.950 . S
H774 C797 0.950 . S
H775 C799 0.950 . S
H776 C800 0.950 . S
H777 C801 0.951 . S
H778 C803 0.951 . S
H779 C805 0.950 . S
H780 C806 0.950 . S
H781 C808 0.950 . S
H782 C811 0.950 . S
H783 C812 0.950 . S
H784 C814 0.950 . S
H785 C815 0.950 . S
C786 H768 0.951 . S
C786 C787 1.366 . S
C786 C788 1.388 . S
C787 C786 1.366 . S
C787 C791 1.385 . S
C788 H769 0.951 . S
C788 C786 1.388 . S
C788 C789 1.366 . S
C789 C788 1.366 . S
C789 C790 1.414 . S
C789 C792 1.499 . S
C790 H770 0.950 . S
C790 C789 1.414 . S
C790 C791 1.374 . S
C791 H771 0.950 . S
C791 C787 1.385 . S
C791 C790 1.374 . S
C792 C789 1.499 . S
C792 C793 1.373 . S
C792 C794 1.389 . S
C793 H772 0.950 . S
C793 C792 1.373 . S
C793 C809 1.377 . S
C794 C792 1.389 . S
C794 C795 1.524 . S
C794 C808 1.377 . S
C795 C794 1.524 . S
C795 C796 1.397 . S
C795 C800 1.363 . S
C796 H773 0.950 . S
C796 C795 1.397 . S
C796 C797 1.334 . S
C797 H774 0.950 . S
C797 C796 1.334 . S
C797 C798 1.287 . S
C798 C797 1.287 . S
C798 C799 1.524 . S
C798 H817 0.913 . S
C799 H775 0.950 . S
C799 C798 1.524 . S
C799 C800 1.415 . S
C800 H776 0.950 . S
C800 C795 1.363 . S
C800 C799 1.415 . S
C801 H777 0.951 . S
C801 C802 1.366 . S
C801 C803 1.388 . S
C802 C801 1.366 . S
C802 C806 1.385 . S
C803 H778 0.951 . S
C803 C801 1.388 . S
C803 C804 1.366 . S
C804 C803 1.366 . S
C804 C805 1.414 . S
C804 C807 1.499 . S
C805 H779 0.950 . S
C805 C804 1.414 . S
C805 C806 1.374 . S
C806 H780 0.950 . S
C806 C802 1.385 . S
C806 C805 1.374 . S
C807 C804 1.499 . S
C807 C808 1.373 . S
C807 C809 1.389 . S
C808 H781 0.950 . S
C808 C794 1.377 . S
C808 C807 1.373 . S
C809 C793 1.377 . S
C809 C807 1.389 . S
C809 C810 1.524 . S
C810 C809 1.524 . S
C810 C811 1.397 . S
C810 C815 1.363 . S
C811 H782 0.950 . S
C811 C810 1.397 . S
C811 C812 1.334 . S
C812 H783 0.950 . S
C812 C811 1.334 . S
C812 C813 1.287 . S
C813 C812 1.287 . S
C813 C814 1.524 . S
C813 H816 0.999 . S
C814 H784 0.950 . S
C814 C813 1.524 . S
C814 C815 1.415 . S
C815 H785 0.950 . S
C815 C810 1.363 . S
C815 C814 1.415 . S
H816 C813 0.999 . S
H817 C798 0.913 . S
H818 C836 0.951 . S
H819 C838 0.951 . S
H820 C840 0.950 . S
H821 C841 0.950 . S
H822 C843 0.950 . S
H823 C846 0.950 . S
H824 C847 0.950 . S
H825 C849 0.950 . S
H826 C850 0.950 . S
H827 C851 0.951 . S
H828 C853 0.951 . S
H829 C855 0.950 . S
H830 C856 0.950 . S
H831 C858 0.950 . S
H832 C861 0.950 . S
H833 C862 0.950 . S
H834 C864 0.950 . S
H835 C865 0.950 . S
C836 H818 0.951 . S
C836 C837 1.366 . S
C836 C838 1.388 . S
C837 C836 1.366 . S
C837 C841 1.385 . S
C838 H819 0.951 . S
C838 C836 1.388 . S
C838 C839 1.366 . S
C839 C838 1.366 . S
C839 C840 1.414 . S
C839 C842 1.499 . S
C840 H820 0.950 . S
C840 C839 1.414 . S
C840 C841 1.374 . S
C841 H821 0.950 . S
C841 C837 1.385 . S
C841 C840 1.374 . S
C842 C839 1.499 . S
C842 C843 1.373 . S
C842 C844 1.389 . S
C843 H822 0.950 . S
C843 C842 1.373 . S
C843 C859 1.377 . S
C844 C842 1.389 . S
C844 C845 1.524 . S
C844 C858 1.377 . S
C845 C844 1.524 . S
C845 C846 1.397 . S
C845 C850 1.363 . S
C846 H823 0.950 . S
C846 C845 1.397 . S
C846 C847 1.334 . S
C847 H824 0.950 . S
C847 C846 1.334 . S
C847 C848 1.287 . S
C848 C847 1.287 . S
C848 C849 1.524 . S
C848 H867 0.913 . S
C849 H825 0.950 . S
C849 C848 1.524 . S
C849 C850 1.415 . S
C850 H826 0.950 . S
C850 C845 1.363 . S
C850 C849 1.415 . S
C851 H827 0.951 . S
C851 C852 1.366 . S
C851 C853 1.388 . S
C852 C851 1.366 . S
C852 C856 1.385 . S
C853 H828 0.951 . S
C853 C851 1.388 . S
C853 C854 1.366 . S
C854 C853 1.366 . S
C854 C855 1.414 . S
C854 C857 1.499 . S
C855 H829 0.950 . S
C855 C854 1.414 . S
C855 C856 1.374 . S
C856 H830 0.950 . S
C856 C852 1.385 . S
C856 C855 1.374 . S
C857 C854 1.499 . S
C857 C858 1.373 . S
C857 C859 1.389 . S
C858 H831 0.950 . S
C858 C844 1.377 . S
C858 C857 1.373 . S
C859 C843 1.377 . S
C859 C857 1.389 . S
C859 C860 1.524 . S
C860 C859 1.524 . S
C860 C861 1.397 . S
C860 C865 1.363 . S
C861 H832 0.950 . S
C861 C860 1.397 . S
C861 C862 1.334 . S
C862 H833 0.950 . S
C862 C861 1.334 . S
C862 C863 1.287 . S
C863 C862 1.287 . S
C863 C864 1.524 . S
C863 H866 0.999 . S
C864 H834 0.950 . S
C864 C863 1.524 . S
C864 C865 1.415 . S
C865 H835 0.950 . S
C865 C860 1.363 . S
C865 C864 1.415 . S
H866 C863 0.999 . S
H867 C848 0.913 . S
H868 C886 0.951 . S
H869 C888 0.951 . S
H870 C890 0.950 . S
H871 C891 0.950 . S
H872 C893 0.950 . S
H873 C896 0.950 . S
H874 C897 0.950 . S
H875 C899 0.950 . S
H876 C900 0.950 . S
H877 C901 0.951 . S
H878 C903 0.951 . S
H879 C905 0.950 . S
H880 C906 0.950 . S
H881 C908 0.950 . S
H882 C911 0.950 . S
H883 C912 0.950 . S
H884 C914 0.950 . S
H885 C915 0.950 . S
C886 H868 0.951 . S
C886 C887 1.366 . S
C886 C888 1.388 . S
C887 C886 1.366 . S
C887 C891 1.385 . S
C888 H869 0.951 . S
C888 C886 1.388 . S
C888 C889 1.366 . S
C889 C888 1.366 . S
C889 C890 1.414 . S
C889 C892 1.499 . S
C890 H870 0.950 . S
C890 C889 1.414 . S
C890 C891 1.374 . S
C891 H871 0.950 . S
C891 C887 1.385 . S
C891 C890 1.374 . S
C892 C889 1.499 . S
C892 C893 1.373 . S
C892 C894 1.389 . S
C893 H872 0.950 . S
C893 C892 1.373 . S
C893 C909 1.377 . S
C894 C892 1.389 . S
C894 C895 1.524 . S
C894 C908 1.377 . S
C895 C894 1.524 . S
C895 C896 1.397 . S
C895 C900 1.363 . S
C896 H873 0.950 . S
C896 C895 1.397 . S
C896 C897 1.334 . S
C897 H874 0.950 . S
C897 C896 1.334 . S
C897 C898 1.287 . S
C898 C897 1.287 . S
C898 C899 1.524 . S
C898 H917 0.913 . S
C899 H875 0.950 . S
C899 C898 1.524 . S
C899 C900 1.415 . S
C900 H876 0.950 . S
C900 C895 1.363 . S
C900 C899 1.415 . S
C901 H877 0.951 . S
C901 C902 1.366 . S
C901 C903 1.388 . S
C902 C901 1.366 . S
C902 C906 1.385 . S
C903 H878 0.951 . S
C903 C901 1.388 . S
C903 C904 1.366 . S
C904 C903 1.366 . S
C904 C905 1.414 . S
C904 C907 1.499 . S
C905 H879 0.950 . S
C905 C904 1.414 . S
C905 C906 1.374 . S
C906 H880 0.950 . S
C906 C902 1.385 . S
C906 C905 1.374 . S
C907 C904 1.499 . S
C907 C908 1.373 . S
C907 C909 1.389 . S
C908 H881 0.950 . S
C908 C894 1.377 . S
C908 C907 1.373 . S
C909 C893 1.377 . S
C909 C907 1.389 . S
C909 C910 1.524 . S
C910 C909 1.524 . S
C910 C911 1.397 . S
C910 C915 1.363 . S
C911 H882 0.950 . S
C911 C910 1.397 . S
C911 C912 1.334 . S
C912 H883 0.950 . S
C912 C911 1.334 . S
C912 C913 1.287 . S
C913 C912 1.287 . S
C913 C914 1.524 . S
C913 H916 0.999 . S
C914 H884 0.950 . S
C914 C913 1.524 . S
C914 C915 1.415 . S
C915 H885 0.950 . S
C915 C910 1.363 . S
C915 C914 1.415 . S
H916 C913 0.999 . S
H917 C898 0.913 . S
H918 C936 0.951 . S
H919 C938 0.951 . S
H920 C940 0.950 . S
H921 C941 0.950 . S
H922 C943 0.950 . S
H923 C946 0.950 . S
H924 C947 0.950 . S
H925 C949 0.950 . S
H926 C950 0.950 . S
H927 C951 0.951 . S
H928 C953 0.951 . S
H929 C955 0.950 . S
H930 C956 0.950 . S
H931 C958 0.950 . S
H932 C961 0.950 . S
H933 C962 0.950 . S
H934 C964 0.950 . S
H935 C965 0.950 . S
C936 H918 0.951 . S
C936 C937 1.366 . S
C936 C938 1.388 . S
C937 C936 1.366 . S
C937 C941 1.385 . S
C938 H919 0.951 . S
C938 C936 1.388 . S
C938 C939 1.366 . S
C939 C938 1.366 . S
C939 C940 1.414 . S
C939 C942 1.499 . S
C940 H920 0.950 . S
C940 C939 1.414 . S
C940 C941 1.374 . S
C941 H921 0.950 . S
C941 C937 1.385 . S
C941 C940 1.374 . S
C942 C939 1.499 . S
C942 C943 1.373 . S
C942 C944 1.389 . S
C943 H922 0.950 . S
C943 C942 1.373 . S
C943 C959 1.377 . S
C944 C942 1.389 . S
C944 C945 1.524 . S
C944 C958 1.377 . S
C945 C944 1.524 . S
C945 C946 1.397 . S
C945 C950 1.363 . S
C946 H923 0.950 . S
C946 C945 1.397 . S
C946 C947 1.334 . S
C947 H924 0.950 . S
C947 C946 1.334 . S
C947 C948 1.287 . S
C948 C947 1.287 . S
C948 C949 1.524 . S
C948 H967 0.913 . S
C949 H925 0.950 . S
C949 C948 1.524 . S
C949 C950 1.415 . S
C950 H926 0.950 . S
C950 C945 1.363 . S
C950 C949 1.415 . S
C951 H927 0.951 . S
C951 C952 1.366 . S
C951 C953 1.388 . S
C952 C951 1.366 . S
C952 C956 1.385 . S
C953 H928 0.951 . S
C953 C951 1.388 . S
C953 C954 1.366 . S
C954 C953 1.366 . S
C954 C955 1.414 . S
C954 C957 1.499 . S
C955 H929 0.950 . S
C955 C954 1.414 . S
C955 C956 1.374 . S
C956 H930 0.950 . S
C956 C952 1.385 . S
C956 C955 1.374 . S
C957 C954 1.499 . S
C957 C958 1.373 . S
C957 C959 1.389 . S
C958 H931 0.950 . S
C958 C944 1.377 . S
C958 C957 1.373 . S
C959 C943 1.377 . S
C959 C957 1.389 . S
C959 C960 1.524 . S
C960 C959 1.524 . S
C960 C961 1.397 . S
C960 C965 1.363 . S
C961 H932 0.950 . S
C961 C960 1.397 . S
C961 C962 1.334 . S
C962 H933 0.950 . S
C962 C961 1.334 . S
C962 C963 1.287 . S
C963 C962 1.287 . S
C963 C964 1.524 . S
C963 H966 0.999 . S
C964 H934 0.950 . S
C964 C963 1.524 . S
C964 C965 1.415 . S
C965 H935 0.950 . S
C965 C960 1.363 . S
C965 C964 1.415 . S
H966 C963 0.999 . S
H967 C948 0.913 . S
H968 C986 0.951 . S
H969 C988 0.951 . S
H970 C990 0.950 . S
H971 C991 0.950 . S
H972 C993 0.950 . S
H973 C996 0.950 . S
H974 C997 0.950 . S
H975 C999 0.950 . S
H976 C1000 0.950 . S
H977 C1001 0.951 . S
H978 C1003 0.951 . S
H979 C1005 0.950 . S
H980 C1006 0.950 . S
H981 C1008 0.950 . S
H982 C1011 0.950 . S
H983 C1012 0.950 . S
H984 C1014 0.950 . S
H985 C1015 0.950 . S
C986 H968 0.951 . S
C986 C987 1.366 . S
C986 C988 1.388 . S
C987 C986 1.366 . S
C987 C991 1.385 . S
C988 H969 0.951 . S
C988 C986 1.388 . S
C988 C989 1.366 . S
C989 C988 1.366 . S
C989 C990 1.414 . S
C989 C992 1.499 . S
C990 H970 0.950 . S
C990 C989 1.414 . S
C990 C991 1.374 . S
C991 H971 0.950 . S
C991 C987 1.385 . S
C991 C990 1.374 . S
C992 C989 1.499 . S
C992 C993 1.373 . S
C992 C994 1.389 . S
C993 H972 0.950 . S
C993 C992 1.373 . S
C993 C1009 1.377 . S
C994 C992 1.389 . S
C994 C995 1.524 . S
C994 C1008 1.377 . S
C995 C994 1.524 . S
C995 C996 1.397 . S
C995 C1000 1.363 . S
C996 H973 0.950 . S
C996 C995 1.397 . S
C996 C997 1.334 . S
C997 H974 0.950 . S
C997 C996 1.334 . S
C997 C998 1.287 . S
C998 C997 1.287 . S
C998 C999 1.524 . S
C998 H1017 0.913 . S
C999 H975 0.950 . S
C999 C998 1.524 . S
C999 C1000 1.415 . S
C1000 H976 0.950 . S
C1000 C995 1.363 . S
C1000 C999 1.415 . S
C1001 H977 0.951 . S
C1001 C1002 1.366 . S
C1001 C1003 1.388 . S
C1002 C1001 1.366 . S
C1002 C1006 1.385 . S
C1003 H978 0.951 . S
C1003 C1001 1.388 . S
C1003 C1004 1.366 . S
C1004 C1003 1.366 . S
C1004 C1005 1.414 . S
C1004 C1007 1.499 . S
C1005 H979 0.950 . S
C1005 C1004 1.414 . S
C1005 C1006 1.374 . S
C1006 H980 0.950 . S
C1006 C1002 1.385 . S
C1006 C1005 1.374 . S
C1007 C1004 1.499 . S
C1007 C1008 1.373 . S
C1007 C1009 1.389 . S
C1008 H981 0.950 . S
C1008 C994 1.377 . S
C1008 C1007 1.373 . S
C1009 C993 1.377 . S
C1009 C1007 1.389 . S
C1009 C1010 1.524 . S
C1010 C1009 1.524 . S
C1010 C1011 1.397 . S
C1010 C1015 1.363 . S
C1011 H982 0.950 . S
C1011 C1010 1.397 . S
C1011 C1012 1.334 . S
C1012 H983 0.950 . S
C1012 C1011 1.334 . S
C1012 C1013 1.287 . S
C1013 C1012 1.287 . S
C1013 C1014 1.524 . S
C1013 H1016 0.999 . S
C1014 H984 0.950 . S
C1014 C1013 1.524 . S
C1014 C1015 1.415 . S
C1015 H985 0.950 . S
C1015 C1010 1.363 . S
C1015 C1014 1.415 . S
H1016 C1013 0.999 . S
H1017 C998 0.913 . S
H1018 C1036 0.951 . S
H1019 C1038 0.951 . S
H1020 C1040 0.950 . S
H1021 C1041 0.950 . S
H1022 C1043 0.950 . S
H1023 C1046 0.950 . S
H1024 C1047 0.950 . S
H1025 C1049 0.950 . S
H1026 C1050 0.950 . S
H1027 C1051 0.951 . S
H1028 C1053 0.951 . S
H1029 C1055 0.950 . S
H1030 C1056 0.950 . S
H1031 C1058 0.950 . S
H1032 C1061 0.950 . S
H1033 C1062 0.950 . S
H1034 C1064 0.950 . S
H1035 C1065 0.950 . S
C1036 H1018 0.951 . S
C1036 C1037 1.366 . S
C1036 C1038 1.388 . S
C1037 C1036 1.366 . S
C1037 C1041 1.385 . S
C1038 H1019 0.951 . S
C1038 C1036 1.388 . S
C1038 C1039 1.366 . S
C1039 C1038 1.366 . S
C1039 C1040 1.414 . S
C1039 C1042 1.499 . S
C1040 H1020 0.950 . S
C1040 C1039 1.414 . S
C1040 C1041 1.374 . S
C1041 H1021 0.950 . S
C1041 C1037 1.385 . S
C1041 C1040 1.374 . S
C1042 C1039 1.499 . S
C1042 C1043 1.373 . S
C1042 C1044 1.389 . S
C1043 H1022 0.950 . S
C1043 C1042 1.373 . S
C1043 C1059 1.377 . S
C1044 C1042 1.389 . S
C1044 C1045 1.524 . S
C1044 C1058 1.377 . S
C1045 C1044 1.524 . S
C1045 C1046 1.397 . S
C1045 C1050 1.363 . S
C1046 H1023 0.950 . S
C1046 C1045 1.397 . S
C1046 C1047 1.334 . S
C1047 H1024 0.950 . S
C1047 C1046 1.334 . S
C1047 C1048 1.287 . S
C1048 C1047 1.287 . S
C1048 C1049 1.524 . S
C1048 H1067 0.913 . S
C1049 H1025 0.950 . S
C1049 C1048 1.524 . S
C1049 C1050 1.415 . S
C1050 H1026 0.950 . S
C1050 C1045 1.363 . S
C1050 C1049 1.415 . S
C1051 H1027 0.951 . S
C1051 C1052 1.366 . S
C1051 C1053 1.388 . S
C1052 C1051 1.366 . S
C1052 C1056 1.385 . S
C1053 H1028 0.951 . S
C1053 C1051 1.388 . S
C1053 C1054 1.366 . S
C1054 C1053 1.366 . S
C1054 C1055 1.414 . S
C1054 C1057 1.499 . S
C1055 H1029 0.950 . S
C1055 C1054 1.414 . S
C1055 C1056 1.374 . S
C1056 H1030 0.950 . S
C1056 C1052 1.385 . S
C1056 C1055 1.374 . S
C1057 C1054 1.499 . S
C1057 C1058 1.373 . S
C1057 C1059 1.389 . S
C1058 H1031 0.950 . S
C1058 C1044 1.377 . S
C1058 C1057 1.373 . S
C1059 C1043 1.377 . S
C1059 C1057 1.389 . S
C1059 C1060 1.524 . S
C1060 C1059 1.524 . S
C1060 C1061 1.397 . S
C1060 C1065 1.363 . S
C1061 H1032 0.950 . S
C1061 C1060 1.397 . S
C1061 C1062 1.334 . S
C1062 H1033 0.950 . S
C1062 C1061 1.334 . S
C1062 C1063 1.287 . S
C1063 C1062 1.287 . S
C1063 C1064 1.524 . S
C1063 H1066 0.999 . S
C1064 H1034 0.950 . S
C1064 C1063 1.524 . S
C1064 C1065 1.415 . S
C1065 H1035 0.950 . S
C1065 C1060 1.363 . S
C1065 C1064 1.415 . S
H1066 C1063 0.999 . S
H1067 C1048 0.913 . S
H1068 C1086 0.951 . S
H1069 C1088 0.951 . S
H1070 C1090 0.950 . S
H1071 C1091 0.950 . S
H1072 C1093 0.950 . S
H1073 C1096 0.950 . S
H1074 C1097 0.950 . S
H1075 C1099 0.950 . S
H1076 C1100 0.950 . S
H1077 C1101 0.951 . S
H1078 C1103 0.951 . S
H1079 C1105 0.950 . S
H1080 C1106 0.950 . S
H1081 C1108 0.950 . S
H1082 C1111 0.950 . S
H1083 C1112 0.950 . S
H1084 C1114 0.950 . S
H1085 C1115 0.950 . S
C1086 H1068 0.951 . S
C1086 C1087 1.366 . S
C1086 C1088 1.388 . S
C1087 C1086 1.366 . S
C1087 C1091 1.385 . S
C1088 H1069 0.951 . S
C1088 C1086 1.388 . S
C1088 C1089 1.366 . S
C1089 C1088 1.366 . S
C1089 C1090 1.414 . S
C1089 C1092 1.499 . S
C1090 H1070 0.950 . S
C1090 C1089 1.414 . S
C1090 C1091 1.374 . S
C1091 H1071 0.950 . S
C1091 C1087 1.385 . S
C1091 C1090 1.374 . S
C1092 C1089 1.499 . S
C1092 C1093 1.373 . S
C1092 C1094 1.389 . S
C1093 H1072 0.950 . S
C1093 C1092 1.373 . S
C1093 C1109 1.377 . S
C1094 C1092 1.389 . S
C1094 C1095 1.524 . S
C1094 C1108 1.377 . S
C1095 C1094 1.524 . S
C1095 C1096 1.397 . S
C1095 C1100 1.363 . S
C1096 H1073 0.950 . S
C1096 C1095 1.397 . S
C1096 C1097 1.334 . S
C1097 H1074 0.950 . S
C1097 C1096 1.334 . S
C1097 C1098 1.287 . S
C1098 C1097 1.287 . S
C1098 C1099 1.524 . S
C1098 H1117 0.913 . S
C1099 H1075 0.950 . S
C1099 C1098 1.524 . S
C1099 C1100 1.415 . S
C1100 H1076 0.950 . S
C1100 C1095 1.363 . S
C1100 C1099 1.415 . S
C1101 H1077 0.951 . S
C1101 C1102 1.366 . S
C1101 C1103 1.388 . S
C1102 C1101 1.366 . S
C1102 C1106 1.385 . S
C1103 H1078 0.951 . S
C1103 C1101 1.388 . S
C1103 C1104 1.366 . S
C1104 C1103 1.366 . S
C1104 C1105 1.414 . S
C1104 C1107 1.499 . S
C1105 H1079 0.950 . S
C1105 C1104 1.414 . S
C1105 C1106 1.374 . S
C1106 H1080 0.950 . S
C1106 C1102 1.385 . S
C1106 C1105 1.374 . S
C1107 C1104 1.499 . S
C1107 C1108 1.373 . S
C1107 C1109 1.389 . S
C1108 H1081 0.950 . S
C1108 C1094 1.377 . S
C1108 C1107 1.373 . S
C1109 C1093 1.377 . S
C1109 C1107 1.389 . S
C1109 C1110 1.524 . S
C1110 C1109 1.524 . S
C1110 C1111 1.397 . S
C1110 C1115 1.363 . S
C1111 H1082 0.950 . S
C1111 C1110 1.397 . S
C1111 C1112 1.334 . S
C1112 H1083 0.950 . S
C1112 C1111 1.334 . S
C1112 C1113 1.287 . S
C1113 C1112 1.287 . S
C1113 C1114 1.524 . S
C1113 H1116 0.999 . S
C1114 H1084 0.950 . S
C1114 C1113 1.524 . S
C1114 C1115 1.415 . S
C1115 H1085 0.950 . S
C1115 C1110 1.363 . S
C1115 C1114 1.415 . S
H1116 C1113 0.999 . S
H1117 C1098 0.913 . S
H1118 C1136 0.951 . S
H1119 C1138 0.951 . S
H1120 C1140 0.950 . S
H1121 C1141 0.950 . S
H1122 C1143 0.950 . S
H1123 C1146 0.950 1_655 S
H1124 C1147 0.950 . S
H1125 C1149 0.950 . S
H1126 C1150 0.950 . S
H1127 C1151 0.951 . S
H1128 C1153 0.951 . S
H1129 C1155 0.950 . S
H1130 C1156 0.950 . S
H1131 C1158 0.950 . S
H1132 C1161 0.950 1_455 S
H1133 C1162 0.950 . S
H1134 C1164 0.950 . S
H1135 C1165 0.950 . S
C1136 H1118 0.951 . S
C1136 C1137 1.366 . S
C1136 C1138 1.388 . S
C1137 C1136 1.366 . S
C1137 C1141 1.385 . S
C1138 H1119 0.951 . S
C1138 C1136 1.388 . S
C1138 C1139 1.366 . S
C1139 C1138 1.366 . S
C1139 C1140 1.414 . S
C1139 C1142 1.499 . S
C1140 H1120 0.950 . S
C1140 C1139 1.414 . S
C1140 C1141 1.374 . S
C1141 H1121 0.950 . S
C1141 C1137 1.385 . S
C1141 C1140 1.374 . S
C1142 C1139 1.499 . S
C1142 C1143 1.373 . S
C1142 C1144 1.389 1_655 S
C1143 H1122 0.950 . S
C1143 C1142 1.373 . S
C1143 C1159 1.377 . S
C1144 C1142 1.389 1_455 S
C1144 C1145 1.524 . S
C1144 C1158 1.377 . S
C1145 C1144 1.524 . S
C1145 C1146 1.397 . S
C1145 C1150 1.363 . S
C1146 H1123 0.950 1_455 S
C1146 C1145 1.397 . S
C1146 C1147 1.334 . S
C1147 H1124 0.950 . S
C1147 C1146 1.334 . S
C1147 C1148 1.287 . S
C1148 C1147 1.287 . S
C1148 C1149 1.524 . S
C1148 H1167 0.913 . S
C1149 H1125 0.950 . S
C1149 C1148 1.524 . S
C1149 C1150 1.415 . S
C1150 H1126 0.950 . S
C1150 C1145 1.363 . S
C1150 C1149 1.415 . S
C1151 H1127 0.951 . S
C1151 C1152 1.366 . S
C1151 C1153 1.388 . S
C1152 C1151 1.366 . S
C1152 C1156 1.385 . S
C1153 H1128 0.951 . S
C1153 C1151 1.388 . S
C1153 C1154 1.366 . S
C1154 C1153 1.366 . S
C1154 C1155 1.414 . S
C1154 C1157 1.499 . S
C1155 H1129 0.950 . S
C1155 C1154 1.414 . S
C1155 C1156 1.374 . S
C1156 H1130 0.950 . S
C1156 C1152 1.385 . S
C1156 C1155 1.374 . S
C1157 C1154 1.499 . S
C1157 C1158 1.373 . S
C1157 C1159 1.389 1_455 S
C1158 H1131 0.950 . S
C1158 C1144 1.377 . S
C1158 C1157 1.373 . S
C1159 C1143 1.377 . S
C1159 C1157 1.389 1_655 S
C1159 C1160 1.524 . S
C1160 C1159 1.524 . S
C1160 C1161 1.397 . S
C1160 C1165 1.363 . S
C1161 H1132 0.950 1_655 S
C1161 C1160 1.397 . S
C1161 C1162 1.334 . S
C1162 H1133 0.950 . S
C1162 C1161 1.334 . S
C1162 C1163 1.287 . S
C1163 C1162 1.287 . S
C1163 C1164 1.524 . S
C1163 H1166 0.999 . S
C1164 H1134 0.950 . S
C1164 C1163 1.524 . S
C1164 C1165 1.415 . S
C1165 H1135 0.950 . S
C1165 C1160 1.363 . S
C1165 C1164 1.415 . S
H1166 C1163 0.999 . S
H1167 C1148 0.913 . S
H1168 C1186 0.951 . S
H1169 C1188 0.951 . S
H1170 C1190 0.950 . S
H1171 C1191 0.950 . S
H1172 C1193 0.950 . S
H1173 C1196 0.950 . S
H1174 C1197 0.950 . S
H1175 C1199 0.950 . S
H1176 C1200 0.950 . S
H1177 C1201 0.951 . S
H1178 C1203 0.951 . S
H1179 C1205 0.950 . S
H1180 C1206 0.950 . S
H1181 C1208 0.950 . S
H1182 C1211 0.950 . S
H1183 C1212 0.950 . S
H1184 C1214 0.950 . S
H1185 C1215 0.950 . S
C1186 H1168 0.951 . S
C1186 C1187 1.366 . S
C1186 C1188 1.388 . S
C1187 C1186 1.366 . S
C1187 C1191 1.385 . S
C1188 H1169 0.951 . S
C1188 C1186 1.388 . S
C1188 C1189 1.366 . S
C1189 C1188 1.366 . S
C1189 C1190 1.414 . S
C1189 C1192 1.499 . S
C1190 H1170 0.950 . S
C1190 C1189 1.414 . S
C1190 C1191 1.374 . S
C1191 H1171 0.950 . S
C1191 C1187 1.385 . S
C1191 C1190 1.374 . S
C1192 C1189 1.499 . S
C1192 C1193 1.373 . S
C1192 C1194 1.389 . S
C1193 H1172 0.950 . S
C1193 C1192 1.373 . S
C1193 C1209 1.377 1_545 S
C1194 C1192 1.389 . S
C1194 C1195 1.524 . S
C1194 C1208 1.377 1_545 S
C1195 C1194 1.524 . S
C1195 C1196 1.397 1_545 S
C1195 C1200 1.363 . S
C1196 H1173 0.950 . S
C1196 C1195 1.397 1_565 S
C1196 C1197 1.334 . S
C1197 H1174 0.950 . S
C1197 C1196 1.334 . S
C1197 C1198 1.287 . S
C1198 C1197 1.287 . S
C1198 C1199 1.524 1_565 S
C1198 H1217 0.913 . S
C1199 H1175 0.950 . S
C1199 C1198 1.524 1_545 S
C1199 C1200 1.415 . S
C1200 H1176 0.950 . S
C1200 C1195 1.363 . S
C1200 C1199 1.415 . S
C1201 H1177 0.951 . S
C1201 C1202 1.366 . S
C1201 C1203 1.388 . S
C1202 C1201 1.366 . S
C1202 C1206 1.385 . S
C1203 H1178 0.951 . S
C1203 C1201 1.388 . S
C1203 C1204 1.366 . S
C1204 C1203 1.366 . S
C1204 C1205 1.414 . S
C1204 C1207 1.499 . S
C1205 H1179 0.950 . S
C1205 C1204 1.414 . S
C1205 C1206 1.374 . S
C1206 H1180 0.950 . S
C1206 C1202 1.385 . S
C1206 C1205 1.374 . S
C1207 C1204 1.499 . S
C1207 C1208 1.373 . S
C1207 C1209 1.389 . S
C1208 H1181 0.950 . S
C1208 C1194 1.377 1_565 S
C1208 C1207 1.373 . S
C1209 C1193 1.377 1_565 S
C1209 C1207 1.389 . S
C1209 C1210 1.524 . S
C1210 C1209 1.524 . S
C1210 C1211 1.397 1_565 S
C1210 C1215 1.363 . S
C1211 H1182 0.950 . S
C1211 C1210 1.397 1_545 S
C1211 C1212 1.334 . S
C1212 H1183 0.950 . S
C1212 C1211 1.334 . S
C1212 C1213 1.287 . S
C1213 C1212 1.287 . S
C1213 C1214 1.524 1_545 S
C1213 H1216 0.999 . S
C1214 H1184 0.950 . S
C1214 C1213 1.524 1_565 S
C1214 C1215 1.415 . S
C1215 H1185 0.950 . S
C1215 C1210 1.363 . S
C1215 C1214 1.415 . S
H1216 C1213 0.999 . S
H1217 C1198 0.913 . S
H1218 C1236 0.951 . S
H1219 C1238 0.951 . S
H1220 C1240 0.950 . S
H1221 C1241 0.950 . S
H1222 C1243 0.950 . S
H1223 C1246 0.950 . S
H1224 C1247 0.950 . S
H1225 C1249 0.950 . S
H1226 C1250 0.950 . S
H1227 C1251 0.951 . S
H1228 C1253 0.951 . S
H1229 C1255 0.950 . S
H1230 C1256 0.950 . S
H1231 C1258 0.950 . S
H1232 C1261 0.950 . S
H1233 C1262 0.950 . S
H1234 C1264 0.950 . S
H1235 C1265 0.950 . S
C1236 H1218 0.951 . S
C1236 C1237 1.366 . S
C1236 C1238 1.388 . S
C1237 C1236 1.366 . S
C1237 C1241 1.385 . S
C1238 H1219 0.951 . S
C1238 C1236 1.388 . S
C1238 C1239 1.366 . S
C1239 C1238 1.366 . S
C1239 C1240 1.414 . S
C1239 C1242 1.499 . S
C1240 H1220 0.950 . S
C1240 C1239 1.414 . S
C1240 C1241 1.374 . S
C1241 H1221 0.950 . S
C1241 C1237 1.385 . S
C1241 C1240 1.374 . S
C1242 C1239 1.499 . S
C1242 C1243 1.373 . S
C1242 C1244 1.389 . S
C1243 H1222 0.950 . S
C1243 C1242 1.373 . S
C1243 C1259 1.377 . S
C1244 C1242 1.389 . S
C1244 C1245 1.524 . S
C1244 C1258 1.377 . S
C1245 C1244 1.524 . S
C1245 C1246 1.397 . S
C1245 C1250 1.363 . S
C1246 H1223 0.950 . S
C1246 C1245 1.397 . S
C1246 C1247 1.334 . S
C1247 H1224 0.950 . S
C1247 C1246 1.334 . S
C1247 C1248 1.287 . S
C1248 C1247 1.287 . S
C1248 C1249 1.524 . S
C1248 H1267 0.913 . S
C1249 H1225 0.950 . S
C1249 C1248 1.524 . S
C1249 C1250 1.415 . S
C1250 H1226 0.950 . S
C1250 C1245 1.363 . S
C1250 C1249 1.415 . S
C1251 H1227 0.951 . S
C1251 C1252 1.366 . S
C1251 C1253 1.388 . S
C1252 C1251 1.366 . S
C1252 C1256 1.385 . S
C1253 H1228 0.951 . S
C1253 C1251 1.388 . S
C1253 C1254 1.366 . S
C1254 C1253 1.366 . S
C1254 C1255 1.414 . S
C1254 C1257 1.499 . S
C1255 H1229 0.950 . S
C1255 C1254 1.414 . S
C1255 C1256 1.374 . S
C1256 H1230 0.950 . S
C1256 C1252 1.385 . S
C1256 C1255 1.374 . S
C1257 C1254 1.499 . S
C1257 C1258 1.373 . S
C1257 C1259 1.389 . S
C1258 H1231 0.950 . S
C1258 C1244 1.377 . S
C1258 C1257 1.373 . S
C1259 C1243 1.377 . S
C1259 C1257 1.389 . S
C1259 C1260 1.524 . S
C1260 C1259 1.524 . S
C1260 C1261 1.397 . S
C1260 C1265 1.363 . S
C1261 H1232 0.950 . S
C1261 C1260 1.397 . S
C1261 C1262 1.334 . S
C1262 H1233 0.950 . S
C1262 C1261 1.334 . S
C1262 C1263 1.287 . S
C1263 C1262 1.287 . S
C1263 C1264 1.524 . S
C1263 H1266 0.999 . S
C1264 H1234 0.950 . S
C1264 C1263 1.524 . S
C1264 C1265 1.415 . S
C1265 H1235 0.950 . S
C1265 C1260 1.363 . S
C1265 C1264 1.415 . S
H1266 C1263 0.999 . S
H1267 C1248 0.913 . S
H1268 C1286 0.951 . S
H1269 C1288 0.951 . S
H1270 C1290 0.950 . S
H1271 C1291 0.950 . S
H1272 C1293 0.950 . S
H1273 C1296 0.950 . S
H1274 C1297 0.953 . S
H1275 C1299 0.950 1_655 S
H1276 C1300 0.950 . S
H1277 C1301 0.951 . S
H1278 C1303 0.951 . S
H1279 C1305 0.950 . S
H1280 C1306 0.950 . S
H1281 C1308 0.950 . S
H1282 C1311 0.950 . S
H1283 C1312 0.950 . S
H1284 C1314 0.950 1_455 S
H1285 C1315 0.950 . S
C1286 H1268 0.951 . S
C1286 C1287 1.366 . S
C1286 C1288 1.388 . S
C1287 C1286 1.366 . S
C1287 C1291 1.385 . S
C1288 H1269 0.951 . S
C1288 C1286 1.388 . S
C1288 C1289 1.366 . S
C1289 C1288 1.366 . S
C1289 C1290 1.414 . S
C1289 C1292 1.499 . S
C1290 H1270 0.950 . S
C1290 C1289 1.414 . S
C1290 C1291 1.374 . S
C1291 H1271 0.950 . S
C1291 C1287 1.385 . S
C1291 C1290 1.374 . S
C1292 C1289 1.499 . S
C1292 C1293 1.373 . S
C1292 C1294 1.389 . S
C1293 H1272 0.950 . S
C1293 C1292 1.373 . S
C1293 C1309 1.377 1_455 S
C1294 C1292 1.389 . S
C1294 C1295 1.524 . S
C1294 C1308 1.377 1_455 S
C1295 C1294 1.524 . S
C1295 C1296 1.397 . S
C1295 C1300 1.363 1_455 S
C1296 H1273 0.950 . S
C1296 C1295 1.397 . S
C1296 C1297 1.323 1_556 S
C1297 H1274 0.953 . S
C1297 C1296 1.323 1_554 S
C1297 C1298 1.296 . S
C1298 C1297 1.296 . S
C1298 C1299 1.524 . S
C1298 H1317 0.913 . S
C1299 H1275 0.950 1_455 S
C1299 C1298 1.524 . S
C1299 C1300 1.415 1_454 S
C1300 H1276 0.950 . S
C1300 C1295 1.363 1_655 S
C1300 C1299 1.415 1_656 S
C1301 H1277 0.951 . S
C1301 C1302 1.366 . S
C1301 C1303 1.388 . S
C1302 C1301 1.366 . S
C1302 C1306 1.385 . S
C1303 H1278 0.951 . S
C1303 C1301 1.388 . S
C1303 C1304 1.366 . S
C1304 C1303 1.366 . S
C1304 C1305 1.414 . S
C1304 C1307 1.499 . S
C1305 H1279 0.950 . S
C1305 C1304 1.414 . S
C1305 C1306 1.374 . S
C1306 H1280 0.950 . S
C1306 C1302 1.385 . S
C1306 C1305 1.374 . S
C1307 C1304 1.499 . S
C1307 C1308 1.373 . S
C1307 C1309 1.389 . S
C1308 H1281 0.950 . S
C1308 C1294 1.377 1_655 S
C1308 C1307 1.373 . S
C1309 C1293 1.377 1_655 S
C1309 C1307 1.389 . S
C1309 C1310 1.524 . S
C1310 C1309 1.524 . S
C1310 C1311 1.397 . S
C1310 C1315 1.363 1_655 S
C1311 H1282 0.950 . S
C1311 C1310 1.397 . S
C1311 C1312 1.334 . S
C1312 H1283 0.950 . S
C1312 C1311 1.334 . S
C1312 C1313 1.287 . S
C1313 C1312 1.287 . S
C1313 C1314 1.524 . S
C1313 H1316 0.999 . S
C1314 H1284 0.950 1_655 S
C1314 C1313 1.524 . S
C1314 C1315 1.415 1_655 S
C1315 H1285 0.950 . S
C1315 C1310 1.363 1_455 S
C1315 C1314 1.415 1_455 S
H1316 C1313 0.999 . S
H1317 C1298 0.913 . S
H1318 C1336 0.951 . S
H1319 C1338 0.951 . S
H1320 C1340 0.966 . S
H1321 C1341 0.950 . S
H1322 C1343 0.950 . S
H1323 C1346 0.950 . S
H1324 C1347 0.950 . S
H1325 C1349 0.950 . S
H1326 C1350 0.950 . S
H1327 C1351 0.951 . S
H1328 C1353 0.951 . S
H1329 C1355 0.966 . S
H1330 C1356 0.950 . S
H1331 C1358 0.950 . S
H1332 C1361 0.950 . S
H1333 C1362 0.950 . S
H1334 C1364 0.950 . S
H1335 C1365 0.950 . S
C1336 H1318 0.951 . S
C1336 C1337 1.366 . S
C1336 C1338 1.388 . S
C1337 C1336 1.366 . S
C1337 C1341 1.385 . S
C1338 H1319 0.951 . S
C1338 C1336 1.388 . S
C1338 C1339 1.366 . S
C1339 C1338 1.366 . S
C1339 C1340 1.414 . S
C1339 C1342 1.499 . S
C1340 H1320 0.966 . S
C1340 C1339 1.414 . S
C1340 C1341 1.374 . S
C1341 H1321 0.950 . S
C1341 C1337 1.385 . S
C1341 C1340 1.374 . S
C1342 C1339 1.499 . S
C1342 C1343 1.373 1_565 S
C1342 C1344 1.389 . S
C1343 H1322 0.950 . S
C1343 C1342 1.373 1_545 S
C1343 C1359 1.377 . S
C1344 C1342 1.389 . S
C1344 C1345 1.524 . S
C1344 C1358 1.377 . S
C1345 C1344 1.524 . S
C1345 C1346 1.397 . S
C1345 C1350 1.363 . S
C1346 H1323 0.950 . S
C1346 C1345 1.397 . S
C1346 C1347 1.334 . S
C1347 H1324 0.950 . S
C1347 C1346 1.334 . S
C1347 C1348 1.287 . S
C1348 C1347 1.287 . S
C1348 C1349 1.524 . S
C1348 H1367 0.913 . S
C1349 H1325 0.950 . S
C1349 C1348 1.524 . S
C1349 C1350 1.415 . S
C1350 H1326 0.950 . S
C1350 C1345 1.363 . S
C1350 C1349 1.415 . S
C1351 H1327 0.951 . S
C1351 C1352 1.366 . S
C1351 C1353 1.388 . S
C1352 C1351 1.366 . S
C1352 C1356 1.385 . S
C1353 H1328 0.951 . S
C1353 C1351 1.388 . S
C1353 C1354 1.366 . S
C1354 C1353 1.366 . S
C1354 C1355 1.414 . S
C1354 C1357 1.499 . S
C1355 H1329 0.966 . S
C1355 C1354 1.414 . S
C1355 C1356 1.374 . S
C1356 H1330 0.950 . S
C1356 C1352 1.385 . S
C1356 C1355 1.374 . S
C1357 C1354 1.499 . S
C1357 C1358 1.373 1_545 S
C1357 C1359 1.389 . S
C1358 H1331 0.950 . S
C1358 C1344 1.377 . S
C1358 C1357 1.373 1_565 S
C1359 C1343 1.377 . S
C1359 C1357 1.389 . S
C1359 C1360 1.524 . S
C1360 C1359 1.524 . S
C1360 C1361 1.397 . S
C1360 C1365 1.363 . S
C1361 H1332 0.950 . S
C1361 C1360 1.397 . S
C1361 C1362 1.334 . S
C1362 H1333 0.950 . S
C1362 C1361 1.334 . S
C1362 C1363 1.287 . S
C1363 C1362 1.287 . S
C1363 C1364 1.524 . S
C1363 H1366 0.999 . S
C1364 H1334 0.950 . S
C1364 C1363 1.524 . S
C1364 C1365 1.415 . S
C1365 H1335 0.950 . S
C1365 C1360 1.363 . S
C1365 C1364 1.415 . S
H1366 C1363 0.999 . S
H1367 C1348 0.913 . S
C187 C98 1.249 . S
C202 C0 1.249 . S
C237 C14 1.249 . S
C252 C112 1.249 . S
C287 C28 1.249 . S
C302 C126 1.249 . S
C337 C42 1.249 . S
C352 C140 1.250 . S
C387 C154 1.249 . S
C402 C56 1.249 . S
C437 C84 1.248 . S
C452 C70 1.249 . S
C487 C145 1.377 . S
C502 C5 1.377 . S
C537 C19 1.377 . S
C552 C159 1.377 . S
C587 C33 1.378 . S
C602 C89 1.377 . S
C637 C103 1.377 . S
C652 C47 1.377 . S
C687 C117 1.377 . S
C702 C61 1.377 . S
C737 C131 1.377 . S
C752 C75 1.378 . S
C787 C11 1.754 . S
C802 C123 1.753 . S
C837 C25 1.754 . S
C852 C137 1.754 . S
C887 C151 1.754 . S
C902 C39 1.754 . S
C937 C53 1.754 . S
C952 C165 1.754 . S
C987 C95 1.754 . S
C1002 C67 1.754 . S
C1037 C109 1.754 . S
C1052 C81 1.754 . S
C1087 C51 1.268 . S
C1102 C9 1.268 . S
C1137 C65 1.267 . S
C1152 C23 1.267 . S
C1187 C37 1.267 . S
C1202 C79 1.267 . S
C1237 C93 1.267 . S
C1252 C135 1.267 . S
C1287 C107 1.267 . S
C1302 C149 1.268 . S
C1337 C163 1.268 . S
C1352 C121 1.267 . S
