# Generated by pormake.
# Topology ukh, (4)-cn, num edge types: 1
# Building blocks:
#     Node 0, Type 0, BuildingBlock: GALJAG_clean_sbu_0, # of connection points: 4
#     Node 1, Type 0, BuildingBlock: GALJAG_clean_sbu_0, # of connection points: 4
#     Node 2, Type 0, BuildingBlock: GALJAG_clean_sbu_0, # of connection points: 4
#     Node 3, Type 0, BuildingBlock: GALJAG_clean_sbu_0, # of connection points: 4
#     Node 4, Type 0, BuildingBlock: GALJAG_clean_sbu_0, # of connection points: 4
#     Node 5, Type 0, BuildingBlock: GALJAG_clean_sbu_0, # of connection points: 4
#     Node 6, Type 0, BuildingBlock: GALJAG_clean_sbu_0, # of connection points: 4
#     Node 7, Type 0, BuildingBlock: GALJAG_clean_sbu_0, # of connection points: 4
#     Node 8, Type 0, BuildingBlock: GALJAG_clean_sbu_0, # of connection points: 4
#     Node 9, Type 0, BuildingBlock: GALJAG_clean_sbu_0, # of connection points: 4
#     Node 10, Type 0, BuildingBlock: GALJAG_clean_sbu_0, # of connection points: 4
#     Node 11, Type 0, BuildingBlock: GALJAG_clean_sbu_0, # of connection points: 4
#     Edge 12, Type (0, 0), BuildingBlock: XUDNAN_clean_linker_2, # of connection points: 2
#     Edge 13, Type (0, 0), BuildingBlock: XUDNAN_clean_linker_2, # of connection points: 2
#     Edge 14, Type (0, 0), BuildingBlock: XUDNAN_clean_linker_2, # of connection points: 2
#     Edge 15, Type (0, 0), BuildingBlock: XUDNAN_clean_linker_2, # of connection points: 2
#     Edge 16, Type (0, 0), BuildingBlock: XUDNAN_clean_linker_2, # of connection points: 2
#     Edge 17, Type (0, 0), BuildingBlock: XUDNAN_clean_linker_2, # of connection points: 2
#     Edge 18, Type (0, 0), BuildingBlock: XUDNAN_clean_linker_2, # of connection points: 2
#     Edge 19, Type (0, 0), BuildingBlock: XUDNAN_clean_linker_2, # of connection points: 2
#     Edge 20, Type (0, 0), BuildingBlock: XUDNAN_clean_linker_2, # of connection points: 2
#     Edge 21, Type (0, 0), BuildingBlock: XUDNAN_clean_linker_2, # of connection points: 2
#     Edge 22, Type (0, 0), BuildingBlock: XUDNAN_clean_linker_2, # of connection points: 2
#     Edge 23, Type (0, 0), BuildingBlock: XUDNAN_clean_linker_2, # of connection points: 2
#     Edge 24, Type (0, 0), BuildingBlock: XUDNAN_clean_linker_2, # of connection points: 2
#     Edge 25, Type (0, 0), BuildingBlock: XUDNAN_clean_linker_2, # of connection points: 2
#     Edge 26, Type (0, 0), BuildingBlock: XUDNAN_clean_linker_2, # of connection points: 2
#     Edge 27, Type (0, 0), BuildingBlock: XUDNAN_clean_linker_2, # of connection points: 2
#     Edge 28, Type (0, 0), BuildingBlock: XUDNAN_clean_linker_2, # of connection points: 2
#     Edge 29, Type (0, 0), BuildingBlock: XUDNAN_clean_linker_2, # of connection points: 2
#     Edge 30, Type (0, 0), BuildingBlock: XUDNAN_clean_linker_2, # of connection points: 2
#     Edge 31, Type (0, 0), BuildingBlock: XUDNAN_clean_linker_2, # of connection points: 2
#     Edge 32, Type (0, 0), BuildingBlock: XUDNAN_clean_linker_2, # of connection points: 2
#     Edge 33, Type (0, 0), BuildingBlock: XUDNAN_clean_linker_2, # of connection points: 2
#     Edge 34, Type (0, 0), BuildingBlock: XUDNAN_clean_linker_2, # of connection points: 2
#     Edge 35, Type (0, 0), BuildingBlock: XUDNAN_clean_linker_2, # of connection points: 2
# Relax obj value: 0.072
# Max RMSD: 0.081
# Mean RMSD: 0.081
data_MOF--net-ukh--node1-GALJAG_clean_sbu_0--edge1-XUDNAN_clean_linker_2
_symmetry_space_group_name_H-M    P1
_symmetry_Int_Tables_number       1
_symmetry_cell_setting            triclinic
loop_
_symmetry_equiv_pos_as_xyz
'x, y, z'
_cell_length_a     31.350185
_cell_length_b     31.287071
_cell_length_c     67.429211
_cell_angle_alpha  89.938575
_cell_angle_beta   90.087991
_cell_angle_gamma 120.28914
loop_
_atom_site_label
_atom_site_type_symbol
_atom_site_fract_x
_atom_site_fract_y
_atom_site_fract_z
_atom_type_partial_charge
In0 In 0.32455 0.23199 0.06255 0.0
O1 O 0.38094 0.30717 0.04789 0.0
O2 O 0.37876 0.30192 0.07913 0.0
C3 C 0.3454 0.17005 0.04195 0.0
C4 C 0.3026 0.20051 0.10039 0.0
C5 C 0.23816 0.21467 0.04651 0.0
O6 O 0.33918 0.20265 0.03369 0.0
O7 O 0.34592 0.17199 0.06059 0.0
O8 O 0.24776 0.18106 0.05043 0.0
O9 O 0.27152 0.25768 0.05149 0.0
C10 C 0.39811 0.32888 0.0642 0.0
O11 O 0.27276 0.20557 0.08937 0.0
O12 O 0.34326 0.21156 0.09235 0.0
In13 In 0.09555 0.31909 0.39342 0.0
O14 O 0.08255 0.26809 0.41968 0.0
O15 O 0.13569 0.3443 0.42329 0.0
C16 C 0.00869 0.24997 0.37761 0.0
C17 C 0.08103 0.39667 0.38835 0.0
C18 C 0.16783 0.31443 0.37367 0.0
O19 O 0.01396 0.2591 0.39599 0.0
O20 O 0.04692 0.27572 0.3674 0.0
O21 O 0.1239 0.27935 0.37472 0.0
O22 O 0.17677 0.35294 0.38313 0.0
C23 C 0.11335 0.30167 0.43097 0.0
O24 O 0.10228 0.38454 0.37557 0.0
O25 O 0.06943 0.37138 0.40403 0.0
In26 In 0.78107 0.09545 0.72938 0.0
O27 O 0.70846 0.09769 0.72791 0.0
O28 O 0.70492 0.02915 0.73375 0.0
C29 C 0.85407 0.17863 0.71252 0.0
C30 C 0.80919 0.10926 0.76776 0.0
C31 C 0.78661 0.03459 0.70276 0.0
O32 O 0.80899 0.16534 0.70999 0.0
O33 O 0.86149 0.15163 0.72424 0.0
O34 O 0.79191 0.03067 0.72116 0.0
O35 O 0.77843 0.0688 0.698 0.0
C36 C 0.6815 0.05162 0.73103 0.0
O37 O 0.81482 0.08038 0.7564 0.0
O38 O 0.78831 0.13064 0.75986 0.0
In39 In 0.69111 0.78825 0.05891 0.0
O40 O 0.71811 0.81212 0.0907 0.0
O41 O 0.64385 0.79163 0.08365 0.0
C42 C 0.77333 0.79734 0.04213 0.0
C43 C 0.63202 0.68902 0.06166 0.0
C44 C 0.68668 0.86067 0.03842 0.0
O45 O 0.77485 0.82209 0.05714 0.0
O46 O 0.73059 0.76732 0.03585 0.0
O47 O 0.6584 0.81537 0.03429 0.0
O48 O 0.71491 0.86829 0.05292 0.0
C49 C 0.67722 0.80599 0.09674 0.0
O50 O 0.62246 0.71425 0.0496 0.0
O51 O 0.67093 0.71382 0.07173 0.0
In52 In 0.90704 0.6762 0.39515 0.0
O53 O 0.90809 0.70188 0.42693 0.0
O54 O 0.85397 0.62794 0.41929 0.0
C55 C 0.99215 0.75295 0.38177 0.0
C56 C 0.93281 0.6073 0.38847 0.0
C57 C 0.83955 0.69112 0.37643 0.0
O58 O 0.98211 0.7464 0.40008 0.0
O59 O 0.95956 0.72088 0.37054 0.0
O60 O 0.83488 0.64858 0.37734 0.0
O61 O 0.87684 0.72467 0.38528 0.0
C62 C 0.87234 0.66085 0.43256 0.0
O63 O 0.90694 0.61528 0.37629 0.0
O64 O 0.94407 0.63277 0.40411 0.0
In65 In 0.23139 0.91346 0.7286 0.0
O66 O 0.28568 0.88507 0.72387 0.0
O67 O 0.31458 0.96023 0.73212 0.0
C68 C 0.14645 0.84382 0.71174 0.0
C69 C 0.21287 0.90639 0.768 0.0
C70 C 0.24117 0.98434 0.70329 0.0
O71 O 0.18317 0.83755 0.71357 0.0
O72 O 0.15255 0.8838 0.71885 0.0
O73 O 0.22756 0.98265 0.72108 0.0
O74 O 0.25058 0.95092 0.69853 0.0
C75 C 0.32353 0.92638 0.72783 0.0
O76 O 0.23387 0.94724 0.75893 0.0
O77 O 0.20051 0.86908 0.7572 0.0
In78 In 0.76953 0.68379 0.60957 0.0
O79 O 0.79729 0.70731 0.57792 0.0
O80 O 0.76782 0.63164 0.58553 0.0
C81 C 0.77715 0.76719 0.62391 0.0
C82 C 0.67018 0.62941 0.61279 0.0
C83 C 0.84582 0.69069 0.63083 0.0
O84 O 0.78215 0.76154 0.60563 0.0
O85 O 0.76793 0.7306 0.63479 0.0
O86 O 0.80292 0.65319 0.63235 0.0
O87 O 0.84976 0.7223 0.61827 0.0
C88 C 0.78674 0.66461 0.57232 0.0
O89 O 0.69772 0.61477 0.62025 0.0
O90 O 0.69276 0.6701 0.60372 0.0
In91 In 0.10773 0.78829 0.9461 0.0
O92 O 0.12943 0.72961 0.95203 0.0
O93 O 0.05654 0.70498 0.94174 0.0
C94 C 0.17768 0.86294 0.96834 0.0
C95 C 0.13711 0.81444 0.90815 0.0
C96 C 0.03202 0.79395 0.96218 0.0
O97 O 0.1651 0.81823 0.97161 0.0
O98 O 0.15531 0.86911 0.95412 0.0
O99 O 0.05344 0.81657 0.94651 0.0
O100 O 0.04746 0.76705 0.96941 0.0
C101 C 0.08787 0.69334 0.94719 0.0
O102 O 0.09198 0.7909 0.91286 0.0
O103 O 0.16659 0.82277 0.92228 0.0
In104 In 0.31385 0.08855 0.27694 0.0
O105 O 0.38993 0.09714 0.28293 0.0
O106 O 0.34234 0.04374 0.26169 0.0
C107 C 0.31304 0.16638 0.29349 0.0
C108 C 0.29611 0.10456 0.23947 0.0
C109 C 0.25617 0.01715 0.30299 0.0
O110 O 0.35228 0.16418 0.29298 0.0
O111 O 0.27608 0.13038 0.28547 0.0
O112 O 0.24382 0.01591 0.28505 0.0
O113 O 0.29756 0.05366 0.30752 0.0
C114 C 0.38319 0.06372 0.27066 0.0
O115 O 0.26326 0.07079 0.25019 0.0
O116 O 0.33786 0.13007 0.24767 0.0
In117 In 0.21934 0.31843 0.61078 0.0
O118 O 0.17569 0.26778 0.58513 0.0
O119 O 0.22188 0.34432 0.57876 0.0
C120 C 0.22308 0.23985 0.62526 0.0
C121 C 0.3123 0.39753 0.61431 0.0
C122 C 0.14567 0.32176 0.63073 0.0
O123 O 0.23228 0.25329 0.60737 0.0
O124 O 0.21127 0.26558 0.63578 0.0
O125 O 0.18239 0.32374 0.63929 0.0
O126 O 0.14686 0.31985 0.61209 0.0
C127 C 0.1918 0.30164 0.57223 0.0
O128 O 0.27453 0.40205 0.61395 0.0
O129 O 0.30312 0.35363 0.61294 0.0
In130 In 0.91452 0.23283 0.94525 0.0
O131 O 0.93351 0.20221 0.91823 0.0
O132 O 0.88323 0.22834 0.91412 0.0
C133 C 0.9786 0.21493 0.96517 0.0
C134 C 0.95631 0.33286 0.94461 0.0
C135 C 0.83016 0.16708 0.96456 0.0
O136 O 0.95223 0.18767 0.95112 0.0
O137 O 0.97291 0.25117 0.96899 0.0
O138 O 0.86788 0.19991 0.97346 0.0
O139 O 0.83331 0.17048 0.94597 0.0
C140 C 0.9059 0.20864 0.90643 0.0
O141 O 0.9116 0.30513 0.94959 0.0
O142 O 0.97811 0.31004 0.93961 0.0
In143 In 0.68113 0.91175 0.27573 0.0
O144 O 0.71353 0.91745 0.24463 0.0
O145 O 0.64191 0.85644 0.25142 0.0
C146 C 0.74128 0.98963 0.29841 0.0
C147 C 0.61267 0.93787 0.27089 0.0
C148 C 0.69306 0.84425 0.29568 0.0
O149 O 0.75422 0.98419 0.28119 0.0
O150 O 0.69851 0.95656 0.30361 0.0
O151 O 0.65096 0.8405 0.29424 0.0
O152 O 0.7276 0.8807 0.28672 0.0
C153 C 0.67532 0.87855 0.23857 0.0
O154 O 0.60783 0.90659 0.28398 0.0
O155 O 0.65144 0.95537 0.26055 0.0
H156 H 0.5621 0.61831 0.03623 0.0
H157 H 0.62972 0.63761 0.09425 0.0
H158 H 0.57834 0.54827 0.10053 0.0
H159 H 0.43897 0.5225 0.04998 0.0
H160 H 0.42763 0.48749 0.02742 0.0
H161 H 0.46914 0.55348 0.02729 0.0
H162 H 0.53828 0.54059 0.01279 0.0
H163 H 0.497 0.47454 0.01294 0.0
H164 H 0.55556 0.50097 0.0256 0.0
H165 H 0.51911 0.45861 0.10139 0.0
H166 H 0.45621 0.37115 0.09627 0.0
H167 H 0.42799 0.40557 0.03702 0.0
C168 C 0.56582 0.60358 0.05025 0.0
C169 C 0.59987 0.635 0.06479 0.0
C170 C 0.60409 0.61433 0.08287 0.0
C171 C 0.57499 0.56358 0.08661 0.0
C172 C 0.54211 0.53356 0.07202 0.0
C173 C 0.53743 0.55243 0.05414 0.0
C174 C 0.49968 0.51111 0.04096 0.0
C175 C 0.45628 0.51914 0.03613 0.0
C176 C 0.5241 0.50654 0.02194 0.0
C177 C 0.48359 0.46645 0.0544 0.0
C178 C 0.50862 0.48063 0.07225 0.0
C179 C 0.4995 0.4469 0.08742 0.0
C180 C 0.46364 0.39727 0.08437 0.0
C181 C 0.43745 0.38144 0.06622 0.0
C182 C 0.44791 0.41651 0.05094 0.0
H183 H 0.05251 0.44244 0.41537 0.0
H184 H 0.07204 0.43112 0.3523 0.0
H185 H 0.03447 0.48262 0.34528 0.0
H186 H 0.93704 0.43585 0.41297 0.0
H187 H 0.95033 0.48085 0.4322 0.0
H188 H 0.98038 0.4447 0.43237 0.0
H189 H 0.06618 0.52483 0.43285 0.0
H190 H 0.03638 0.56125 0.43302 0.0
H191 H 0.081 0.57132 0.41407 0.0
H192 H 0.98789 0.52914 0.34519 0.0
H193 H 0.94716 0.57781 0.35218 0.0
H194 H 0.96313 0.56287 0.4153 0.0
C195 C 0.04952 0.45144 0.4001 0.0
C196 C 0.06509 0.43288 0.38436 0.0
C197 C 0.06063 0.44534 0.36457 0.0
C198 C 0.03904 0.47424 0.36044 0.0
C199 C 0.02288 0.49095 0.3763 0.0
C200 C 0.02887 0.4809 0.39575 0.0
C201 C 0.00904 0.50383 0.4101 0.0
C202 C 0.96668 0.46392 0.42264 0.0
C203 C 0.05063 0.54262 0.42328 0.0
C204 C 0.99034 0.52778 0.39568 0.0
C205 C 0.99808 0.51944 0.37625 0.0
C206 C 0.98216 0.5364 0.36035 0.0
C207 C 0.95875 0.56362 0.36444 0.0
C208 C 0.95225 0.57409 0.38425 0.0
C209 C 0.96794 0.55559 0.40001 0.0
H210 H 0.40963 0.01552 0.72943 0.0
H211 H 0.35273 0.85735 0.72575 0.0
H212 H 0.43829 0.87264 0.72641 0.0
H213 H 0.51536 0.05197 0.69771 0.0
H214 H 0.55517 0.10685 0.71182 0.0
H215 H 0.48958 0.08335 0.71121 0.0
H216 H 0.48685 0.07924 0.74959 0.0
H217 H 0.55239 0.10258 0.75033 0.0
H218 H 0.51054 0.04486 0.76234 0.0
H219 H 0.5295 0.90504 0.72858 0.0
H220 H 0.62039 0.95192 0.73006 0.0
H221 H 0.6188 0.08984 0.73099 0.0
C222 C 0.41516 0.98407 0.72875 0.0
C223 C 0.37455 0.93514 0.72762 0.0
C224 C 0.3833 0.89505 0.72661 0.0
C225 C 0.43173 0.90342 0.72702 0.0
C226 C 0.47091 0.9521 0.72826 0.0
C227 C 0.4632 0.99179 0.72893 0.0
C228 C 0.51176 0.04051 0.7299 0.0
C229 C 0.51834 0.07255 0.71156 0.0
C230 C 0.51559 0.06843 0.74919 0.0
C231 C 0.54812 0.02205 0.72979 0.0
C232 C 0.52365 0.9709 0.72897 0.0
C233 C 0.54902 0.94506 0.72912 0.0
C234 C 0.60071 0.97211 0.73003 0.0
C235 C 0.62676 0.02459 0.73061 0.0
C236 C 0.59996 0.04981 0.73048 0.0
H237 H 0.60702 0.52977 0.61968 0.0
H238 H 0.61054 0.66844 0.60943 0.0
H239 H 0.5196 0.62493 0.61069 0.0
H240 H 0.50314 0.45738 0.58873 0.0
H241 H 0.47715 0.40307 0.60425 0.0
H242 H 0.54278 0.44551 0.60434 0.0
H243 H 0.54076 0.45555 0.64241 0.0
H244 H 0.47507 0.41305 0.64243 0.0
H245 H 0.49964 0.47408 0.65283 0.0
H246 H 0.42838 0.56658 0.61199 0.0
H247 H 0.34257 0.49609 0.61167 0.0
H248 H 0.39742 0.39455 0.61959 0.0
C249 C 0.58855 0.55092 0.618 0.0
C250 C 0.61576 0.60249 0.61459 0.0
C251 C 0.59036 0.62888 0.61207 0.0
C252 C 0.53871 0.60456 0.61283 0.0
C253 C 0.51283 0.55366 0.61596 0.0
C254 C 0.53674 0.527 0.61841 0.0
C255 C 0.49982 0.47213 0.62032 0.0
C256 C 0.50611 0.44281 0.6034 0.0
C257 C 0.50409 0.45256 0.64071 0.0
C258 C 0.45165 0.47222 0.61837 0.0
C259 C 0.46 0.5197 0.61611 0.0
C260 C 0.42131 0.52919 0.61381 0.0
C261 C 0.37273 0.48898 0.61365 0.0
C262 C 0.36336 0.43995 0.61558 0.0
C263 C 0.40344 0.43167 0.61809 0.0
H264 H 0.91874 0.39659 0.94441 0.0
H265 H 0.0553 0.39309 0.94707 0.0
H266 H 0.1029 0.48401 0.94881 0.0
H267 H 0.96694 0.50455 0.91283 0.0
H268 H 0.93271 0.52954 0.92465 0.0
H269 H 0.90848 0.46367 0.92449 0.0
H270 H 0.90207 0.46185 0.96281 0.0
H271 H 0.92632 0.52773 0.96308 0.0
H272 H 0.95615 0.50145 0.97736 0.0
H273 H 0.13634 0.57484 0.95077 0.0
H274 H 0.15379 0.66113 0.95066 0.0
H275 H 0.99699 0.60811 0.94486 0.0
C276 C 0.95861 0.41509 0.94546 0.0
C277 C 0.98328 0.38769 0.94567 0.0
C278 C 0.03556 0.41323 0.94682 0.0
C279 C 0.06301 0.46494 0.94789 0.0
C280 C 0.03783 0.49094 0.94757 0.0
C281 C 0.98688 0.46712 0.9462 0.0
C282 C 0.96954 0.50451 0.94534 0.0
C283 C 0.94284 0.50031 0.92566 0.0
C284 C 0.93657 0.49852 0.96321 0.0
C285 C 0.01865 0.55277 0.94649 0.0
C286 C 0.05746 0.54391 0.94796 0.0
C287 C 0.1063 0.58233 0.94954 0.0
C288 C 0.11586 0.63122 0.94949 0.0
C289 C 0.07687 0.64138 0.94766 0.0
C290 C 0.02762 0.60149 0.94615 0.0
H291 H 0.43909 0.04844 0.29793 0.0
H292 H 0.4065 0.0414 0.23511 0.0
H293 H 0.46209 0.00853 0.22845 0.0
H294 H 0.56791 0.08039 0.29378 0.0
H295 H 0.56402 0.04109 0.3141 0.0
H296 H 0.52501 0.06801 0.31375 0.0
H297 H 0.44783 0.98058 0.31714 0.0
H298 H 0.48657 0.95335 0.31729 0.0
H299 H 0.43755 0.9334 0.29931 0.0
H300 H 0.52169 0.97826 0.22847 0.0
H301 H 0.57876 0.94718 0.23533 0.0
H302 H 0.56634 0.96485 0.29844 0.0
C303 C 0.44456 0.04077 0.28278 0.0
C304 C 0.41946 0.04809 0.26693 0.0
C305 C 0.42597 0.03634 0.24735 0.0
C306 C 0.45735 0.01769 0.24345 0.0
C307 C 0.48103 0.01005 0.25938 0.0
C308 C 0.47478 0.02077 0.27868 0.0
C309 C 0.5023 0.00611 0.29314 0.0
C310 C 0.54218 0.05161 0.30435 0.0
C311 C 0.46641 0.96597 0.30757 0.0
C312 C 0.52511 0.98573 0.27893 0.0
C313 C 0.5128 0.98905 0.25951 0.0
C314 C 0.53118 0.97493 0.2436 0.0
C315 C 0.56341 0.95732 0.24762 0.0
C316 C 0.57594 0.95297 0.26737 0.0
C317 C 0.55621 0.96683 0.28324 0.0
H318 H 0.36413 0.15618 0.21064 0.0
H319 H 0.20645 0.0734 0.22193 0.0
H320 H 0.19057 0.0902 0.18764 0.0
H321 H 0.36582 0.25028 0.1796 0.0
H322 H 0.41207 0.25275 0.16303 0.0
H323 H 0.41084 0.23517 0.18855 0.0
H324 H 0.40539 0.15332 0.17736 0.0
H325 H 0.40672 0.17069 0.1518 0.0
H326 H 0.35673 0.11257 0.1607 0.0
H327 H 0.19242 0.1186 0.15231 0.0
H328 H 0.21157 0.15065 0.11792 0.0
H329 H 0.36769 0.21036 0.12943 0.0
C330 C 0.32627 0.14173 0.20591 0.0
C331 C 0.28648 0.11378 0.21892 0.0
C332 C 0.23743 0.09493 0.21215 0.0
C333 C 0.22808 0.1044 0.19274 0.0
C334 C 0.26819 0.13224 0.18027 0.0
C335 C 0.31629 0.15015 0.18653 0.0
C336 C 0.35277 0.17762 0.17005 0.0
C337 C 0.38741 0.23219 0.17565 0.0
C338 C 0.38211 0.152 0.16466 0.0
C339 C 0.31774 0.17262 0.15356 0.0
C340 C 0.26914 0.14677 0.15979 0.0
C341 C 0.23032 0.13861 0.14724 0.0
C342 C 0.24152 0.15703 0.12778 0.0
C343 C 0.29102 0.18267 0.12104 0.0
C344 C 0.32946 0.19051 0.13415 0.0
H345 H 0.17216 0.36893 0.4593 0.0
H346 H 0.07233 0.212 0.44948 0.0
H347 H 0.08322 0.19496 0.4843 0.0
H348 H 0.25637 0.35605 0.49256 0.0
H349 H 0.26602 0.40694 0.50816 0.0
H350 H 0.25172 0.40674 0.48225 0.0
H351 H 0.17711 0.41681 0.49158 0.0
H352 H 0.19111 0.41695 0.51749 0.0
H353 H 0.13064 0.37288 0.50821 0.0
H354 H 0.1029 0.19498 0.5203 0.0
H355 H 0.13043 0.21205 0.55517 0.0
H356 H 0.21751 0.36899 0.54186 0.0
C357 C 0.1529 0.33096 0.46445 0.0
C358 C 0.12146 0.29174 0.45168 0.0
C359 C 0.09662 0.2426 0.459 0.0
C360 C 0.10259 0.23254 0.47875 0.0
C361 C 0.13353 0.27202 0.491 0.0
C362 C 0.15835 0.32025 0.48417 0.0
C363 C 0.18854 0.35597 0.50057 0.0
C364 C 0.24395 0.38301 0.49558 0.0
C365 C 0.17077 0.39281 0.5047 0.0
C366 C 0.17657 0.32028 0.5177 0.0
C367 C 0.14485 0.27205 0.51183 0.0
C368 C 0.12788 0.23258 0.52506 0.0
C369 C 0.14369 0.24266 0.54484 0.0
C370 C 0.17613 0.2918 0.55122 0.0
C371 C 0.19282 0.33102 0.5374 0.0
H372 H 0.79185 0.16016 0.79688 0.0
H373 H 0.86931 0.08056 0.7851 0.0
H374 H 0.90384 0.09912 0.81898 0.0
H375 H 0.88601 0.25691 0.82668 0.0
H376 H 0.84327 0.25927 0.84387 0.0
H377 H 0.8246 0.24002 0.81864 0.0
H378 H 0.74988 0.15798 0.83106 0.0
H379 H 0.76817 0.1771 0.85634 0.0
H380 H 0.76016 0.11897 0.84773 0.0
H381 H 0.9313 0.12748 0.85376 0.0
H382 H 0.94606 0.15963 0.888 0.0
H383 H 0.84925 0.21915 0.87778 0.0
C384 C 0.81601 0.14659 0.80147 0.0
C385 C 0.82799 0.11898 0.78836 0.0
C386 C 0.85954 0.10166 0.79492 0.0
C387 C 0.87947 0.11215 0.81411 0.0
C388 C 0.86721 0.13969 0.82663 0.0
C389 C 0.83589 0.15633 0.82068 0.0
C390 C 0.82792 0.18431 0.83724 0.0
C391 C 0.84658 0.23833 0.83124 0.0
C392 C 0.77329 0.15801 0.84346 0.0
C393 C 0.85992 0.18105 0.85337 0.0
C394 C 0.8824 0.15534 0.84688 0.0
C395 C 0.9138 0.14756 0.85904 0.0
C396 C 0.92205 0.16607 0.87845 0.0
C397 C 0.89883 0.19187 0.88556 0.0
C398 C 0.86757 0.19962 0.87276 0.0
H399 H 0.74556 0.85878 0.12581 0.0
H400 H 0.58805 0.76804 0.11487 0.0
H401 H 0.57142 0.77581 0.15003 0.0
H402 H 0.74672 0.81356 0.17475 0.0
H403 H 0.79189 0.87314 0.1845 0.0
H404 H 0.79201 0.86004 0.1585 0.0
H405 H 0.7854 0.93703 0.14954 0.0
H406 H 0.78549 0.9505 0.17551 0.0
H407 H 0.73578 0.94337 0.15978 0.0
H408 H 0.57157 0.79 0.18621 0.0
H409 H 0.58761 0.81639 0.22111 0.0
H410 H 0.74486 0.90296 0.20891 0.0
C411 C 0.70762 0.84061 0.13087 0.0
C412 C 0.66802 0.8126 0.11768 0.0
C413 C 0.61887 0.78973 0.12473 0.0
C414 C 0.60907 0.79377 0.14468 0.0
C415 C 0.64883 0.82139 0.15733 0.0
C416 C 0.6971 0.84502 0.15072 0.0
C417 C 0.73276 0.87373 0.1674 0.0
C418 C 0.76792 0.85392 0.17153 0.0
C419 C 0.76155 0.92947 0.16278 0.0
C420 C 0.69692 0.86217 0.18442 0.0
C421 C 0.64877 0.83144 0.17823 0.0
C422 C 0.60905 0.81434 0.19122 0.0
C423 C 0.61862 0.8294 0.21104 0.0
C424 C 0.66746 0.86179 0.2177 0.0
C425 C 0.70715 0.87839 0.20418 0.0
H426 H 0.84167 0.73121 0.54336 0.0
H427 H 0.75028 0.57387 0.55503 0.0
H428 H 0.7619 0.55581 0.52042 0.0
H429 H 0.80043 0.72997 0.49372 0.0
H430 H 0.86054 0.77553 0.48466 0.0
H431 H 0.84496 0.7761 0.51032 0.0
H432 H 0.92159 0.77092 0.52112 0.0
H433 H 0.9375 0.77048 0.4955 0.0
H434 H 0.92957 0.72138 0.51185 0.0
H435 H 0.78101 0.55509 0.4843 0.0
H436 H 0.81065 0.57143 0.44966 0.0
H437 H 0.89263 0.72908 0.46194 0.0
C438 C 0.82415 0.69296 0.53862 0.0
C439 C 0.79491 0.65389 0.55181 0.0
C440 C 0.77286 0.60432 0.54514 0.0
C441 C 0.77915 0.59372 0.52552 0.0
C442 C 0.808 0.63311 0.51285 0.0
C443 C 0.83054 0.68171 0.51917 0.0
C444 C 0.86037 0.71714 0.50267 0.0
C445 C 0.84036 0.75171 0.49754 0.0
C446 C 0.91553 0.74671 0.50812 0.0
C447 C 0.8508 0.68088 0.48605 0.0
C448 C 0.82024 0.63262 0.4922 0.0
C449 C 0.80521 0.5927 0.47934 0.0
C450 C 0.8221 0.60235 0.4597 0.0
C451 C 0.85404 0.65147 0.45318 0.0
C452 C 0.86851 0.69114 0.46656 0.0
H453 H 0.09626 0.77464 0.87179 0.0
H454 H 0.21811 0.9026 0.90001 0.0
H455 H 0.24791 0.94178 0.86726 0.0
H456 H 0.16884 0.77285 0.83055 0.0
H457 H 0.11931 0.7526 0.81279 0.0
H458 H 0.10555 0.73586 0.83852 0.0
H459 H 0.04952 0.77468 0.83912 0.0
H460 H 0.06337 0.79181 0.81341 0.0
H461 H 0.0746 0.8383 0.83172 0.0
H462 H 0.2627 0.96854 0.83183 0.0
H463 H 0.26874 0.97643 0.79532 0.0
H464 H 0.14276 0.82797 0.78953 0.0
C465 C 0.12907 0.81095 0.87098 0.0
C466 C 0.15481 0.83591 0.88833 0.0
C467 C 0.19804 0.88297 0.88682 0.0
C468 C 0.21505 0.90562 0.86833 0.0
C469 C 0.18893 0.88024 0.85146 0.0
C470 C 0.14746 0.83356 0.85253 0.0
C471 C 0.12843 0.81313 0.83197 0.0
C472 C 0.13069 0.76581 0.82824 0.0
C473 C 0.07586 0.80395 0.82888 0.0
C474 C 0.16555 0.85571 0.81926 0.0
C475 C 0.19952 0.8944 0.83085 0.0
C476 C 0.2366 0.93837 0.82257 0.0
C477 C 0.23961 0.94261 0.80186 0.0
C478 C 0.20642 0.90274 0.78971 0.0
C479 C 0.16881 0.85886 0.79854 0.0
H480 H 0.20859 0.96032 0.96248 0.0
H481 H 0.22856 0.86148 1.0015 0.0
H482 H 0.28511 0.93312 0.02247 0.0
H483 H 0.33494 0.06766 0.9665 0.0
H484 H 0.31311 0.11105 0.96616 0.0
H485 H 0.27931 0.05301 0.95316 0.0
H486 H 0.20002 0.03258 0.97269 0.0
H487 H 0.23342 0.09057 0.98559 0.0
H488 H 0.20165 0.03358 0.99942 0.0
H489 H 0.33169 0.01471 0.04109 0.0
H490 H 0.36114 0.09703 0.05613 0.0
H491 H 0.31182 0.14187 0.00418 0.0
C492 C 0.22553 0.95371 0.97523 0.0
C493 C 0.21437 0.90533 0.98033 0.0
C494 C 0.23683 0.89828 0.99727 0.0
C495 C 0.26909 0.93878 0.00921 0.0
C496 C 0.27879 0.98602 0.00386 0.0
C497 C 0.25768 0.99353 0.9872 0.0
C498 C 0.27055 0.04697 0.98543 0.0
C499 C 0.30132 0.07109 0.9667 0.0
C500 C 0.22364 0.05114 0.98582 0.0
C501 C 0.30117 0.06836 0.00401 0.0
C502 C 0.30602 0.03285 0.01437 0.0
C503 C 0.32893 0.04298 0.0329 0.0
C504 C 0.34573 0.08992 0.04131 0.0
C505 C 0.3395 0.12614 0.0312 0.0
C506 C 0.31839 0.11552 0.01204 0.0
H507 H 0.1485 0.26271 0.3399 0.0
H508 H 0.268 0.35479 0.38001 0.0
H509 H 0.3242 0.33551 0.36095 0.0
H510 H 0.17227 0.16853 0.33547 0.0
H511 H 0.15608 0.15641 0.3096 0.0
H512 H 0.1288 0.18356 0.32466 0.0
H513 H 0.16039 0.2576 0.3003 0.0
H514 H 0.18772 0.2305 0.28505 0.0
H515 H 0.22518 0.29274 0.29425 0.0
H516 H 0.36266 0.29449 0.33988 0.0
H517 H 0.37936 0.23939 0.31882 0.0
H518 H 0.23406 0.17894 0.2924 0.0
C519 C 0.18682 0.27969 0.34443 0.0
C520 C 0.20414 0.31 0.36136 0.0
C521 C 0.25435 0.33169 0.36692 0.0
C522 C 0.28636 0.32089 0.35619 0.0
C523 C 0.26756 0.28946 0.33977 0.0
C524 C 0.21902 0.27003 0.33378 0.0
C525 C 0.20614 0.23482 0.31659 0.0
C526 C 0.16334 0.18278 0.32191 0.0
C527 C 0.19417 0.25515 0.29794 0.0
C528 C 0.25424 0.23537 0.31432 0.0
C529 C 0.28966 0.26736 0.32758 0.0
C530 C 0.3355 0.27019 0.32917 0.0
C531 C 0.34472 0.23885 0.31716 0.0
C532 C 0.30806 0.20511 0.30394 0.0
C533 C 0.26302 0.20462 0.30223 0.0
H534 H 0.95255 0.21599 0.7181 0.0
H535 H 0.8475 0.22493 0.67896 0.0
H536 H 0.91488 0.27411 0.65516 0.0
H537 H 0.06198 0.34107 0.70594 0.0
H538 H 0.10341 0.31701 0.70746 0.0
H539 H 0.04902 0.29128 0.72285 0.0
H540 H 0.02184 0.20397 0.70901 0.0
H541 H 0.07562 0.22934 0.69345 0.0
H542 H 0.01502 0.19376 0.68259 0.0
H543 H 0.9905 0.30851 0.63319 0.0
H544 H 0.06814 0.32904 0.61592 0.0
H545 H 0.12382 0.299 0.66987 0.0
C546 C 0.94398 0.22981 0.70485 0.0
C547 C 0.89486 0.21698 0.70043 0.0
C548 C 0.88498 0.23493 0.68277 0.0
C549 C 0.92304 0.26276 0.66914 0.0
C550 C 0.9708 0.2729 0.67358 0.0
C551 C 0.98145 0.25763 0.6912 0.0
C552 C 0.03442 0.26881 0.69169 0.0
C553 C 0.06396 0.30682 0.70795 0.0
C554 C 0.03682 0.22114 0.69433 0.0
C555 C 0.05144 0.29079 0.67124 0.0
C556 C 0.01446 0.29337 0.66106 0.0
C557 C 0.02008 0.30782 0.64121 0.0
C558 C 0.06424 0.31928 0.63149 0.0
C559 C 0.10222 0.31625 0.64164 0.0
C560 C 0.09594 0.30281 0.66187 0.0
H561 H 0.74669 0.95895 0.04565 0.0
H562 H 0.63788 0.85697 0.00377 0.0
H563 H 0.65406 0.92776 0.98213 0.0
H564 H 0.72436 0.06386 0.03807 0.0
H565 H 0.78922 0.10876 0.04033 0.0
H566 H 0.7633 0.05109 0.05372 0.0
H567 H 0.82774 0.03305 0.03771 0.0
H568 H 0.85381 0.09051 0.02436 0.0
H569 H 0.83266 0.03332 0.01107 0.0
H570 H 0.69074 0.00907 0.96315 0.0
H571 H 0.74515 0.09155 0.94842 0.0
H572 H 0.82924 0.13959 0.00311 0.0
C573 C 0.72523 0.95146 0.03217 0.0
C574 C 0.69069 0.9024 0.02646 0.0
C575 C 0.66413 0.89425 0.00853 0.0
C576 C 0.67308 0.93428 0.99618 0.0
C577 C 0.70837 0.98218 1.00206 0.0
C578 C 0.73378 0.99079 0.01974 0.0
C579 C 0.77316 0.04477 0.02193 0.0
C580 C 0.76181 0.06852 0.03956 0.0
C581 C 0.82487 0.05073 0.02387 0.0
C582 C 0.76726 0.06518 0.00241 0.0
C583 C 0.72927 0.02875 0.99124 0.0
C584 C 0.71987 0.03801 0.97195 0.0
C585 C 0.75092 0.08507 0.96371 0.0
C586 C 0.79106 0.12229 0.9747 0.0
C587 C 0.79816 0.11241 0.9945 0.0
H588 H 0.77984 0.86736 0.31288 0.0
H589 H 0.62891 0.74711 0.30625 0.0
H590 H 0.64905 0.69267 0.32624 0.0
H591 H 0.84002 0.79696 0.31021 0.0
H592 H 0.88541 0.83324 0.32877 0.0
H593 H 0.85858 0.86116 0.31371 0.0
H594 H 0.83094 0.88756 0.34539 0.0
H595 H 0.85776 0.85978 0.36056 0.0
H596 H 0.79363 0.84142 0.36356 0.0
H597 H 0.68926 0.65076 0.34582 0.0
H598 H 0.7425 0.62852 0.36549 0.0
H599 H 0.86355 0.77978 0.36065 0.0
C600 C 0.75098 0.82948 0.31554 0.0
C601 C 0.70301 0.81107 0.30788 0.0
C602 C 0.66597 0.76169 0.312 0.0
C603 C 0.67715 0.73062 0.32326 0.0
C604 C 0.72521 0.75001 0.33052 0.0
C605 C 0.7612 0.79863 0.327 0.0
C606 C 0.80949 0.81168 0.33689 0.0
C607 C 0.85079 0.82662 0.32147 0.0
C608 C 0.82376 0.85251 0.35253 0.0
C609 C 0.7955 0.76271 0.34643 0.0
C610 C 0.74701 0.7272 0.34248 0.0
C611 C 0.72705 0.67852 0.34918 0.0
C612 C 0.75746 0.66616 0.36026 0.0
C613 C 0.80676 0.70263 0.36476 0.0
C614 C 0.82569 0.75132 0.35773 0.0
H615 H 0.08694 0.86843 0.69202 0.0
H616 H 0.10406 0.74288 0.7064 0.0
H617 H 0.02641 0.68746 0.68807 0.0
H618 H 0.95517 0.80831 0.69504 0.0
H619 H 0.9501 0.84146 0.67415 0.0
H620 H 0.00506 0.86956 0.6892 0.0
H621 H 0.05858 0.88277 0.65799 0.0
H622 H 0.00382 0.85485 0.64283 0.0
H623 H 0.04514 0.83056 0.64246 0.0
H624 H 0.9431 0.64589 0.66875 0.0
H625 H 0.86991 0.62473 0.64753 0.0
H626 H 0.91512 0.78021 0.64416 0.0
C627 C 0.07418 0.82917 0.69147 0.0
C628 C 0.10091 0.80966 0.70082 0.0
C629 C 0.08378 0.75837 0.69938 0.0
C630 C 0.03972 0.72673 0.68907 0.0
C631 C 0.01404 0.74732 0.68004 0.0
C632 C 0.03132 0.79761 0.68094 0.0
C633 C 0.9992 0.81165 0.66918 0.0
C634 C 0.97601 0.83405 0.68271 0.0
C635 C 0.02843 0.84703 0.6521 0.0
C636 C 0.96076 0.76144 0.66153 0.0
C637 C 0.9691 0.72442 0.66812 0.0
C638 C 0.93669 0.67476 0.66335 0.0
C639 C 0.89523 0.663 0.65138 0.0
C640 C 0.88751 0.70095 0.64403 0.0
C641 C 0.92067 0.75053 0.64929 0.0
H642 H 0.05411 0.27886 0.98929 0.0
H643 H 0.9801 0.12846 0.96675 0.0
H644 H 0.03604 0.11106 0.9866 0.0
H645 H 0.17635 0.29646 0.98796 0.0
H646 H 0.19644 0.33342 0.0102 0.0
H647 H 0.14922 0.33319 0.99489 0.0
H648 H 0.09058 0.30692 0.0252 0.0
H649 H 0.13753 0.30676 0.04059 0.0
H650 H 0.07729 0.25204 0.03889 0.0
H651 H 0.09931 0.10999 0.00897 0.0
H652 H 0.17016 0.12678 0.0302 0.0
H653 H 0.20558 0.27917 0.0372 0.0
C654 C 0.0496 0.24221 0.98861 0.0
C655 C 0.0127 0.20484 0.9766 0.0
C656 C 0.00822 0.15755 0.97586 0.0
C657 C 0.03962 0.1473 0.98714 0.0
C658 C 0.07552 0.18492 0.9989 0.0
C659 C 0.08105 0.23158 0.99956 0.0
C660 C 0.12401 0.26604 0.01271 0.0
C661 C 0.16386 0.30985 1.00072 0.0
C662 C 0.10627 0.28398 0.0304 0.0
C663 C 0.14184 0.23146 0.01937 0.0
C664 C 0.11298 0.18472 0.01139 0.0
C665 C 0.12218 0.14642 0.0153 0.0
C666 C 0.16244 0.15633 0.02743 0.0
C667 C 0.19332 0.20428 0.03537 0.0
C668 C 0.18252 0.24215 0.0314 0.0
H669 H 0.8384 0.06292 0.29296 0.0
H670 H 0.71769 0.00612 0.33527 0.0
H671 H 0.77212 0.06832 0.35967 0.0
H672 H 0.93272 0.08607 0.32763 0.0
H673 H 0.97922 0.14249 0.31611 0.0
H674 H 0.93017 0.09533 0.30136 0.0
H675 H 0.90636 0.15905 0.28903 0.0
H676 H 0.95554 0.20649 0.30369 0.0
H677 H 0.89308 0.19365 0.30687 0.0
H678 H 0.84041 0.13273 0.38033 0.0
H679 H 0.91814 0.19812 0.39535 0.0
H680 H 0.99423 0.21467 0.33965 0.0
C681 C 0.82334 0.06406 0.30726 0.0
C682 C 0.77381 0.02971 0.31219 0.0
C683 C 0.75552 0.03209 0.33113 0.0
C684 C 0.78613 0.0673 0.34512 0.0
C685 C 0.83492 0.10015 0.33995 0.0
C686 C 0.85344 0.0992 0.32145 0.0
C687 C 0.90769 0.13805 0.31993 0.0
C688 C 0.9393 0.11403 0.31603 0.0
C689 C 0.91615 0.1766 0.30393 0.0
C690 C 0.91676 0.16032 0.34053 0.0
C691 C 0.87429 0.13794 0.35184 0.0
C692 C 0.87386 0.15095 0.37158 0.0
C693 C 0.91813 0.18797 0.38 0.0
C694 C 0.962 0.21156 0.36864 0.0
C695 C 0.9611 0.19759 0.34864 0.0
H696 H 0.77926 0.79134 0.66293 0.0
H697 H 0.78498 0.84611 0.60325 0.0
H698 H 0.79058 0.92199 0.61705 0.0
H699 H 0.70486 0.83538 0.6841 0.0
H700 H 0.7369 0.85179 0.70754 0.0
H701 H 0.73469 0.80257 0.69295 0.0
H702 H 0.83035 0.84686 0.69333 0.0
H703 H 0.83287 0.89626 0.70795 0.0
H704 H 0.86587 0.90994 0.68479 0.0
H705 H 0.79185 0.98977 0.63732 0.0
H706 H 0.7909 0.0462 0.66264 0.0
H707 H 0.78665 0.94804 0.70912 0.0
C708 C 0.78182 0.81936 0.65276 0.0
C709 C 0.78155 0.81294 0.63203 0.0
C710 C 0.78516 0.85043 0.61919 0.0
C711 C 0.78836 0.89358 0.62688 0.0
C712 C 0.78831 0.89865 0.64742 0.0
C713 C 0.78541 0.86271 0.66018 0.0
C714 C 0.78567 0.87702 0.68164 0.0
C715 C 0.73767 0.83946 0.69217 0.0
C716 C 0.83142 0.88288 0.69256 0.0
C717 C 0.78848 0.92639 0.67896 0.0
C718 C 0.78998 0.93817 0.65911 0.0
C719 C 0.79106 0.98115 0.6529 0.0
C720 C 0.79041 0.01287 0.66739 0.0
C721 C 0.78889 1.00149 0.68781 0.0
C722 C 0.78826 0.95785 0.69362 0.0
H723 H 0.79385 0.72853 0.02722 0.0
H724 H 0.8522 0.88645 0.03276 0.0
H725 H 0.92349 0.90259 0.01172 0.0
H726 H 0.91462 0.73737 0.03068 0.0
H727 H 0.89799 0.68694 0.01367 0.0
H728 H 0.85123 0.68815 0.02874 0.0
H729 H 0.80114 0.68107 0.99708 0.0
H730 H 0.84805 0.68048 0.98189 0.0
H731 H 0.82998 0.72601 0.97752 0.0
H732 H 0.98371 0.90089 0.98768 0.0
H733 H 0.0382 0.88266 0.9673 0.0
H734 H 0.94675 0.7265 0.98084 0.0
C735 C 0.82197 0.76643 0.02408 0.0
C736 C 0.81786 0.80639 0.03142 0.0
C737 C 0.8552 0.85554 0.02728 0.0
C738 C 0.89548 0.86497 0.01526 0.0
C739 C 0.89827 0.82477 0.00799 0.0
C740 C 0.86329 0.77652 0.01267 0.0
C741 C 0.87653 0.7402 0.00382 0.0
C742 C 0.88565 0.71149 0.02021 0.0
C743 C 0.83654 0.70487 0.98921 0.0
C744 C 0.92394 0.77554 0.99314 0.0
C745 C 0.93522 0.82407 0.99541 0.0
C746 C 0.97572 0.86315 0.98604 0.0
C747 C 0.00616 0.85246 0.9744 0.0
C748 C 0.99652 0.80333 0.97267 0.0
C749 C 0.95491 0.7644 0.98211 0.0
H750 H 0.01305 0.77999 0.34303 0.0
H751 H 0.07375 0.82135 0.40241 0.0
H752 H 0.14966 0.89227 0.38852 0.0
H753 H 0.12667 0.8119 0.31784 0.0
H754 H 0.11148 0.83541 0.29619 0.0
H755 H 0.06299 0.78724 0.31081 0.0
H756 H 0.02245 0.84121 0.31522 0.0
H757 H 0.07073 0.88949 0.30059 0.0
H758 H 0.05848 0.9028 0.32524 0.0
H759 H 0.21836 0.9588 0.36799 0.0
H760 H 0.27346 0.01797 0.3427 0.0
H761 H 0.16627 0.93348 0.2969 0.0
C762 C 0.04242 0.80376 0.35313 0.0
C763 C 0.03778 0.79515 0.37379 0.0
C764 C 0.07673 0.82735 0.38653 0.0
C765 C 0.11991 0.86757 0.37877 0.0
C766 C 0.12325 0.875 0.35829 0.0
C767 C 0.08542 0.8441 0.34567 0.0
C768 C 0.09735 0.86093 0.32432 0.0
C769 C 0.09978 0.82152 0.31154 0.0
C770 C 0.06004 0.87441 0.31585 0.0
C771 C 0.14788 0.90631 0.32686 0.0
C772 C 0.1623 0.91364 0.34654 0.0
C773 C 0.20746 0.95339 0.35254 0.0
C774 C 0.2385 0.98674 0.33806 0.0
C775 C 0.22409 0.98025 0.31785 0.0
C776 C 0.17828 0.93932 0.31223 0.0
H777 H 0.21817 0.05721 0.70922 0.0
H778 H 0.26877 0.99329 0.66448 0.0
H779 H 0.26914 0.05139 0.63961 0.0
H780 H 0.13701 0.07567 0.67764 0.0
H781 H 0.15094 0.13364 0.6888 0.0
H782 H 0.15568 0.08781 0.70328 0.0
H783 H 0.24658 0.15198 0.71193 0.0
H784 H 0.24203 0.19809 0.69756 0.0
H785 H 0.28994 0.18403 0.6922 0.0
H786 H 0.26247 0.1151 0.61944 0.0
H787 H 0.25165 0.18215 0.60558 0.0
H788 H 0.20551 0.20475 0.66339 0.0
C789 C 0.22963 0.05569 0.69422 0.0
C790 C 0.24354 0.02084 0.68877 0.0
C791 C 0.25808 0.01979 0.66898 0.0
C792 C 0.25833 0.05256 0.65474 0.0
C793 C 0.24398 0.08616 0.66053 0.0
C794 C 0.2301 0.08815 0.6798 0.0
C795 C 0.21609 0.12767 0.6821 0.0
C796 C 0.1617 0.10481 0.68832 0.0
C797 C 0.25074 0.16782 0.69682 0.0
C798 C 0.22419 0.14749 0.66111 0.0
C799 C 0.2402 0.12298 0.6489 0.0
C800 C 0.25003 0.13464 0.62886 0.0
C801 C 0.24369 0.17268 0.62111 0.0
C802 C 0.22774 0.19858 0.63341 0.0
C803 C 0.21771 0.18556 0.65363 0.0
loop_
_geom_bond_atom_site_label_1
_geom_bond_atom_site_label_2
_geom_bond_distance
_geom_bond_site_symmetry_2
_ccdc_geom_bond_type
In0 O1 2.294 . S
In0 O2 2.326 . S
In0 O6 2.266 . S
In0 O7 2.326 . S
In0 O8 2.266 . S
In0 O9 2.326 . S
In0 O11 2.294 . S
In0 O12 2.326 . S
O1 In0 2.294 . S
O1 C10 1.240 . S
O2 In0 2.326 . S
O2 C10 1.252 . S
C3 O6 1.252 . S
C3 O7 1.260 . S
C4 O11 1.240 . S
C4 O12 1.252 . S
C5 O8 1.252 . S
C5 O9 1.260 . S
O6 In0 2.266 . S
O6 C3 1.252 . S
O7 In0 2.326 . S
O7 C3 1.260 . S
O8 In0 2.266 . S
O8 C5 1.252 . S
O9 In0 2.326 . S
O9 C5 1.260 . S
C10 O1 1.240 . S
C10 O2 1.252 . S
O11 In0 2.294 . S
O11 C4 1.240 . S
O12 In0 2.326 . S
O12 C4 1.252 . S
In13 O14 2.294 . S
In13 O15 2.326 . S
In13 O19 2.266 . S
In13 O20 2.326 . S
In13 O21 2.266 . S
In13 O22 2.326 . S
In13 O24 2.294 . S
In13 O25 2.326 . S
O14 In13 2.294 . S
O14 C23 1.240 . S
O15 In13 2.326 . S
O15 C23 1.252 . S
C16 O19 1.252 . S
C16 O20 1.260 . S
C17 O24 1.240 . S
C17 O25 1.252 . S
C18 O21 1.252 . S
C18 O22 1.260 . S
O19 In13 2.266 . S
O19 C16 1.252 . S
O20 In13 2.326 . S
O20 C16 1.260 . S
O21 In13 2.266 . S
O21 C18 1.252 . S
O22 In13 2.326 . S
O22 C18 1.260 . S
C23 O14 1.240 . S
C23 O15 1.252 . S
O24 In13 2.294 . S
O24 C17 1.240 . S
O25 In13 2.326 . S
O25 C17 1.252 . S
In26 O27 2.294 . S
In26 O28 2.326 . S
In26 O32 2.266 . S
In26 O33 2.326 . S
In26 O34 2.266 . S
In26 O35 2.326 . S
In26 O37 2.294 . S
In26 O38 2.326 . S
O27 In26 2.294 . S
O27 C36 1.240 . S
O28 In26 2.326 . S
O28 C36 1.252 . S
C29 O32 1.252 . S
C29 O33 1.260 . S
C30 O37 1.240 . S
C30 O38 1.252 . S
C31 O34 1.252 . S
C31 O35 1.260 . S
O32 In26 2.266 . S
O32 C29 1.252 . S
O33 In26 2.326 . S
O33 C29 1.260 . S
O34 In26 2.266 . S
O34 C31 1.252 . S
O35 In26 2.326 . S
O35 C31 1.260 . S
C36 O27 1.240 . S
C36 O28 1.252 . S
O37 In26 2.294 . S
O37 C30 1.240 . S
O38 In26 2.326 . S
O38 C30 1.252 . S
In39 O40 2.294 . S
In39 O41 2.326 . S
In39 O45 2.266 . S
In39 O46 2.326 . S
In39 O47 2.266 . S
In39 O48 2.326 . S
In39 O50 2.294 . S
In39 O51 2.326 . S
O40 In39 2.294 . S
O40 C49 1.240 . S
O41 In39 2.326 . S
O41 C49 1.252 . S
C42 O45 1.252 . S
C42 O46 1.260 . S
C43 O50 1.240 . S
C43 O51 1.252 . S
C44 O47 1.252 . S
C44 O48 1.260 . S
O45 In39 2.266 . S
O45 C42 1.252 . S
O46 In39 2.326 . S
O46 C42 1.260 . S
O47 In39 2.266 . S
O47 C44 1.252 . S
O48 In39 2.326 . S
O48 C44 1.260 . S
C49 O40 1.240 . S
C49 O41 1.252 . S
O50 In39 2.294 . S
O50 C43 1.240 . S
O51 In39 2.326 . S
O51 C43 1.252 . S
In52 O53 2.294 . S
In52 O54 2.326 . S
In52 O58 2.266 . S
In52 O59 2.326 . S
In52 O60 2.266 . S
In52 O61 2.326 . S
In52 O63 2.294 . S
In52 O64 2.326 . S
O53 In52 2.294 . S
O53 C62 1.240 . S
O54 In52 2.326 . S
O54 C62 1.252 . S
C55 O58 1.252 . S
C55 O59 1.260 . S
C56 O63 1.240 . S
C56 O64 1.252 . S
C57 O60 1.252 . S
C57 O61 1.260 . S
O58 In52 2.266 . S
O58 C55 1.252 . S
O59 In52 2.326 . S
O59 C55 1.260 . S
O60 In52 2.266 . S
O60 C57 1.252 . S
O61 In52 2.326 . S
O61 C57 1.260 . S
C62 O53 1.240 . S
C62 O54 1.252 . S
O63 In52 2.294 . S
O63 C56 1.240 . S
O64 In52 2.326 . S
O64 C56 1.252 . S
In65 O66 2.294 . S
In65 O67 2.326 . S
In65 O71 2.266 . S
In65 O72 2.326 . S
In65 O73 2.266 . S
In65 O74 2.326 . S
In65 O76 2.294 . S
In65 O77 2.326 . S
O66 In65 2.294 . S
O66 C75 1.240 . S
O67 In65 2.326 . S
O67 C75 1.252 . S
C68 O71 1.252 . S
C68 O72 1.260 . S
C69 O76 1.240 . S
C69 O77 1.252 . S
C70 O73 1.252 . S
C70 O74 1.260 . S
O71 In65 2.266 . S
O71 C68 1.252 . S
O72 In65 2.326 . S
O72 C68 1.260 . S
O73 In65 2.266 . S
O73 C70 1.252 . S
O74 In65 2.326 . S
O74 C70 1.260 . S
C75 O66 1.240 . S
C75 O67 1.252 . S
O76 In65 2.294 . S
O76 C69 1.240 . S
O77 In65 2.326 . S
O77 C69 1.252 . S
In78 O79 2.294 . S
In78 O80 2.326 . S
In78 O84 2.266 . S
In78 O85 2.326 . S
In78 O86 2.266 . S
In78 O87 2.326 . S
In78 O89 2.294 . S
In78 O90 2.326 . S
O79 In78 2.294 . S
O79 C88 1.240 . S
O80 In78 2.326 . S
O80 C88 1.252 . S
C81 O84 1.252 . S
C81 O85 1.260 . S
C82 O89 1.240 . S
C82 O90 1.252 . S
C83 O86 1.252 . S
C83 O87 1.260 . S
O84 In78 2.266 . S
O84 C81 1.252 . S
O85 In78 2.326 . S
O85 C81 1.260 . S
O86 In78 2.266 . S
O86 C83 1.252 . S
O87 In78 2.326 . S
O87 C83 1.260 . S
C88 O79 1.240 . S
C88 O80 1.252 . S
O89 In78 2.294 . S
O89 C82 1.240 . S
O90 In78 2.326 . S
O90 C82 1.252 . S
In91 O92 2.294 . S
In91 O93 2.326 . S
In91 O97 2.266 . S
In91 O98 2.326 . S
In91 O99 2.266 . S
In91 O100 2.326 . S
In91 O102 2.294 . S
In91 O103 2.326 . S
O92 In91 2.294 . S
O92 C101 1.240 . S
O93 In91 2.326 . S
O93 C101 1.252 . S
C94 O97 1.252 . S
C94 O98 1.260 . S
C95 O102 1.240 . S
C95 O103 1.252 . S
C96 O99 1.252 . S
C96 O100 1.260 . S
O97 In91 2.266 . S
O97 C94 1.252 . S
O98 In91 2.326 . S
O98 C94 1.260 . S
O99 In91 2.266 . S
O99 C96 1.252 . S
O100 In91 2.326 . S
O100 C96 1.260 . S
C101 O92 1.240 . S
C101 O93 1.252 . S
O102 In91 2.294 . S
O102 C95 1.240 . S
O103 In91 2.326 . S
O103 C95 1.252 . S
In104 O105 2.294 . S
In104 O106 2.326 . S
In104 O110 2.266 . S
In104 O111 2.326 . S
In104 O112 2.266 . S
In104 O113 2.326 . S
In104 O115 2.294 . S
In104 O116 2.326 . S
O105 In104 2.294 . S
O105 C114 1.240 . S
O106 In104 2.326 . S
O106 C114 1.252 . S
C107 O110 1.252 . S
C107 O111 1.260 . S
C108 O115 1.240 . S
C108 O116 1.252 . S
C109 O112 1.252 . S
C109 O113 1.260 . S
O110 In104 2.266 . S
O110 C107 1.252 . S
O111 In104 2.326 . S
O111 C107 1.260 . S
O112 In104 2.266 . S
O112 C109 1.252 . S
O113 In104 2.326 . S
O113 C109 1.260 . S
C114 O105 1.240 . S
C114 O106 1.252 . S
O115 In104 2.294 . S
O115 C108 1.240 . S
O116 In104 2.326 . S
O116 C108 1.252 . S
In117 O118 2.294 . S
In117 O119 2.326 . S
In117 O123 2.266 . S
In117 O124 2.326 . S
In117 O125 2.266 . S
In117 O126 2.326 . S
In117 O128 2.294 . S
In117 O129 2.326 . S
O118 In117 2.294 . S
O118 C127 1.240 . S
O119 In117 2.326 . S
O119 C127 1.252 . S
C120 O123 1.252 . S
C120 O124 1.260 . S
C121 O128 1.240 . S
C121 O129 1.252 . S
C122 O125 1.252 . S
C122 O126 1.260 . S
O123 In117 2.266 . S
O123 C120 1.252 . S
O124 In117 2.326 . S
O124 C120 1.260 . S
O125 In117 2.266 . S
O125 C122 1.252 . S
O126 In117 2.326 . S
O126 C122 1.260 . S
C127 O118 1.240 . S
C127 O119 1.252 . S
O128 In117 2.294 . S
O128 C121 1.240 . S
O129 In117 2.326 . S
O129 C121 1.252 . S
In130 O131 2.294 . S
In130 O132 2.326 . S
In130 O136 2.266 . S
In130 O137 2.326 . S
In130 O138 2.266 . S
In130 O139 2.326 . S
In130 O141 2.294 . S
In130 O142 2.326 . S
O131 In130 2.294 . S
O131 C140 1.240 . S
O132 In130 2.326 . S
O132 C140 1.252 . S
C133 O136 1.252 . S
C133 O137 1.260 . S
C134 O141 1.240 . S
C134 O142 1.252 . S
C135 O138 1.252 . S
C135 O139 1.260 . S
O136 In130 2.266 . S
O136 C133 1.252 . S
O137 In130 2.326 . S
O137 C133 1.260 . S
O138 In130 2.266 . S
O138 C135 1.252 . S
O139 In130 2.326 . S
O139 C135 1.260 . S
C140 O131 1.240 . S
C140 O132 1.252 . S
O141 In130 2.294 . S
O141 C134 1.240 . S
O142 In130 2.326 . S
O142 C134 1.252 . S
In143 O144 2.294 . S
In143 O145 2.326 . S
In143 O149 2.266 . S
In143 O150 2.326 . S
In143 O151 2.266 . S
In143 O152 2.326 . S
In143 O154 2.294 . S
In143 O155 2.326 . S
O144 In143 2.294 . S
O144 C153 1.240 . S
O145 In143 2.326 . S
O145 C153 1.252 . S
C146 O149 1.252 . S
C146 O150 1.260 . S
C147 O154 1.240 . S
C147 O155 1.252 . S
C148 O151 1.252 . S
C148 O152 1.260 . S
O149 In143 2.266 . S
O149 C146 1.252 . S
O150 In143 2.326 . S
O150 C146 1.260 . S
O151 In143 2.266 . S
O151 C148 1.252 . S
O152 In143 2.326 . S
O152 C148 1.260 . S
C153 O144 1.240 . S
C153 O145 1.252 . S
O154 In143 2.294 . S
O154 C147 1.240 . S
O155 In143 2.326 . S
O155 C147 1.252 . S
H156 C168 0.930 . S
H157 C170 0.930 . S
H158 C171 0.930 . S
H159 C175 0.959 . S
H160 C175 0.959 . S
H161 C175 0.961 . S
H162 C176 0.960 . S
H163 C176 0.961 . S
H164 C176 0.959 . S
H165 C179 0.929 . S
H166 C180 0.931 . S
H167 C182 0.930 . S
C168 H156 0.930 . S
C168 C169 1.399 . S
C168 C173 1.399 . S
C169 C168 1.399 . S
C169 C170 1.376 . S
C170 H157 0.930 . S
C170 C169 1.376 . S
C170 C171 1.388 . S
C171 H158 0.930 . S
C171 C170 1.388 . S
C171 C172 1.390 . S
C172 C171 1.390 . S
C172 C173 1.394 . S
C172 C178 1.465 . S
C173 C168 1.399 . S
C173 C172 1.394 . S
C173 C174 1.516 . S
C174 C173 1.516 . S
C174 C175 1.502 . S
C174 C176 1.561 . S
C174 C177 1.526 . S
C175 H159 0.959 . S
C175 H160 0.959 . S
C175 H161 0.961 . S
C175 C174 1.502 . S
C176 H162 0.960 . S
C176 H163 0.961 . S
C176 H164 0.959 . S
C176 C174 1.561 . S
C177 C174 1.526 . S
C177 C178 1.396 . S
C177 C182 1.390 . S
C178 C172 1.465 . S
C178 C177 1.396 . S
C178 C179 1.399 . S
C179 H165 0.929 . S
C179 C178 1.399 . S
C179 C180 1.385 . S
C180 H166 0.931 . S
C180 C179 1.385 . S
C180 C181 1.389 . S
C181 C180 1.389 . S
C181 C182 1.387 . S
C182 H167 0.930 . S
C182 C177 1.390 . S
C182 C181 1.387 . S
H183 C195 0.930 . S
H184 C197 0.930 . S
H185 C198 0.930 . S
H186 C202 0.959 . S
H187 C202 0.959 . S
H188 C202 0.961 . S
H189 C203 0.973 . S
H190 C203 0.961 . S
H191 C203 0.959 1_455 S
H192 C206 0.929 . S
H193 C207 0.931 . S
H194 C209 0.930 . S
C195 H183 0.930 . S
C195 C196 1.399 . S
C195 C200 1.399 . S
C196 C195 1.399 . S
C196 C197 1.376 . S
C197 H184 0.930 . S
C197 C196 1.376 . S
C197 C198 1.388 . S
C198 H185 0.930 . S
C198 C197 1.388 . S
C198 C199 1.390 . S
C199 C198 1.390 . S
C199 C200 1.394 . S
C199 C205 1.465 . S
C200 C195 1.399 . S
C200 C199 1.394 . S
C200 C201 1.516 1_455 S
C201 C200 1.516 1_655 S
C201 C202 1.502 . S
C201 C203 1.561 . S
C201 C204 1.526 . S
C202 H186 0.959 . S
C202 H187 0.959 . S
C202 H188 0.961 . S
C202 C201 1.502 . S
C203 H189 0.973 . S
C203 H190 0.961 . S
C203 H191 0.959 1_655 S
C203 C201 1.561 . S
C204 C201 1.526 . S
C204 C205 1.396 1_655 S
C204 C209 1.390 . S
C205 C199 1.465 . S
C205 C204 1.396 1_455 S
C205 C206 1.399 . S
C206 H192 0.929 . S
C206 C205 1.399 . S
C206 C207 1.385 1_455 S
C207 H193 0.931 . S
C207 C206 1.385 1_655 S
C207 C208 1.389 . S
C208 C207 1.389 . S
C208 C209 1.387 . S
C209 H194 0.930 . S
C209 C204 1.390 . S
C209 C208 1.387 . S
H210 C222 0.930 . S
H211 C224 0.930 . S
H212 C225 0.930 . S
H213 C229 0.959 . S
H214 C229 0.959 . S
H215 C229 0.961 . S
H216 C230 0.960 . S
H217 C230 0.961 . S
H218 C230 0.959 1_565 S
H219 C233 0.929 . S
H220 C234 0.931 . S
H221 C236 0.930 . S
C222 H210 0.930 . S
C222 C223 1.399 . S
C222 C227 1.399 . S
C223 C222 1.399 . S
C223 C224 1.376 . S
C224 H211 0.930 . S
C224 C223 1.376 . S
C224 C225 1.388 . S
C225 H212 0.930 . S
C225 C224 1.388 . S
C225 C226 1.390 . S
C226 C225 1.390 . S
C226 C227 1.394 . S
C226 C232 1.465 . S
C227 C222 1.399 . S
C227 C226 1.394 . S
C227 C228 1.516 1_565 S
C228 C227 1.516 1_545 S
C228 C229 1.502 . S
C228 C230 1.561 . S
C228 C231 1.526 . S
C229 H213 0.959 . S
C229 H214 0.959 . S
C229 H215 0.961 . S
C229 C228 1.502 . S
C230 H216 0.960 . S
C230 H217 0.961 . S
C230 H218 0.959 1_545 S
C230 C228 1.561 . S
C231 C228 1.526 . S
C231 C232 1.396 1_545 S
C231 C236 1.390 . S
C232 C226 1.465 . S
C232 C231 1.396 1_565 S
C232 C233 1.399 . S
C233 H219 0.929 . S
C233 C232 1.399 . S
C233 C234 1.385 1_565 S
C234 H220 0.931 . S
C234 C233 1.385 1_545 S
C234 C235 1.389 . S
C235 C234 1.389 . S
C235 C236 1.387 . S
C236 H221 0.930 . S
C236 C231 1.390 . S
C236 C235 1.387 . S
H237 C249 0.930 . S
H238 C251 0.930 . S
H239 C252 0.930 . S
H240 C256 0.959 . S
H241 C256 0.959 . S
H242 C256 0.961 . S
H243 C257 0.960 . S
H244 C257 0.961 . S
H245 C257 0.959 . S
H246 C260 0.929 . S
H247 C261 0.931 . S
H248 C263 0.930 . S
C249 H237 0.930 . S
C249 C250 1.399 . S
C249 C254 1.399 . S
C250 C249 1.399 . S
C250 C251 1.376 . S
C251 H238 0.930 . S
C251 C250 1.376 . S
C251 C252 1.388 . S
C252 H239 0.930 . S
C252 C251 1.388 . S
C252 C253 1.390 . S
C253 C252 1.390 . S
C253 C254 1.394 . S
C253 C259 1.465 . S
C254 C249 1.399 . S
C254 C253 1.394 . S
C254 C255 1.516 . S
C255 C254 1.516 . S
C255 C256 1.502 . S
C255 C257 1.561 . S
C255 C258 1.526 . S
C256 H240 0.959 . S
C256 H241 0.959 . S
C256 H242 0.961 . S
C256 C255 1.502 . S
C257 H243 0.960 . S
C257 H244 0.961 . S
C257 H245 0.959 . S
C257 C255 1.561 . S
C258 C255 1.526 . S
C258 C259 1.396 . S
C258 C263 1.390 . S
C259 C253 1.465 . S
C259 C258 1.396 . S
C259 C260 1.399 . S
C260 H246 0.929 . S
C260 C259 1.399 . S
C260 C261 1.385 . S
C261 H247 0.931 . S
C261 C260 1.385 . S
C261 C262 1.389 . S
C262 C261 1.389 . S
C262 C263 1.387 . S
C263 H248 0.930 . S
C263 C258 1.390 . S
C263 C262 1.387 . S
H264 C276 0.930 . S
H265 C278 0.940 . S
H266 C279 0.930 . S
H267 C283 0.959 . S
H268 C283 0.959 . S
H269 C283 0.961 . S
H270 C284 0.960 . S
H271 C284 0.961 . S
H272 C284 0.959 . S
H273 C287 0.929 . S
H274 C288 0.931 . S
H275 C290 0.934 . S
C276 H264 0.930 . S
C276 C277 1.399 . S
C276 C281 1.399 . S
C277 C276 1.399 . S
C277 C278 1.376 . S
C278 H265 0.940 . S
C278 C277 1.376 . S
C278 C279 1.388 1_655 S
C279 H266 0.930 . S
C279 C278 1.388 1_455 S
C279 C280 1.390 . S
C280 C279 1.390 . S
C280 C281 1.394 1_455 S
C280 C286 1.465 . S
C281 C276 1.399 . S
C281 C280 1.394 1_655 S
C281 C282 1.516 . S
C282 C281 1.516 . S
C282 C283 1.502 . S
C282 C284 1.561 . S
C282 C285 1.526 1_655 S
C283 H267 0.959 . S
C283 H268 0.959 . S
C283 H269 0.961 . S
C283 C282 1.502 . S
C284 H270 0.960 . S
C284 H271 0.961 . S
C284 H272 0.959 . S
C284 C282 1.561 . S
C285 C282 1.526 1_455 S
C285 C286 1.396 . S
C285 C290 1.390 . S
C286 C280 1.465 . S
C286 C285 1.396 . S
C286 C287 1.399 . S
C287 H273 0.929 . S
C287 C286 1.399 . S
C287 C288 1.385 . S
C288 H274 0.931 . S
C288 C287 1.385 . S
C288 C289 1.389 . S
C289 C288 1.389 . S
C289 C290 1.387 . S
C290 H275 0.934 . S
C290 C285 1.390 . S
C290 C289 1.387 . S
H291 C303 0.930 . S
H292 C305 0.930 . S
H293 C306 0.930 1_565 S
H294 C310 0.959 . S
H295 C310 0.959 . S
H296 C310 0.961 . S
H297 C311 0.960 . S
H298 C311 0.961 . S
H299 C311 0.959 . S
H300 C314 0.929 . S
H301 C315 0.931 . S
H302 C317 0.930 . S
C303 H291 0.930 . S
C303 C304 1.399 . S
C303 C308 1.399 . S
C304 C303 1.399 . S
C304 C305 1.376 . S
C305 H292 0.930 . S
C305 C304 1.376 . S
C305 C306 1.388 . S
C306 H293 0.930 1_545 S
C306 C305 1.388 . S
C306 C307 1.391 1_545 S
C307 C306 1.391 1_565 S
C307 C308 1.395 1_565 S
C307 C313 1.463 . S
C308 C303 1.399 . S
C308 C307 1.395 1_545 S
C308 C309 1.516 . S
C309 C308 1.516 . S
C309 C310 1.502 . S
C309 C311 1.561 1_545 S
C309 C312 1.526 1_545 S
C310 H294 0.959 . S
C310 H295 0.959 . S
C310 H296 0.961 . S
C310 C309 1.502 . S
C311 H297 0.960 . S
C311 H298 0.961 . S
C311 H299 0.959 . S
C311 C309 1.561 1_565 S
C312 C309 1.526 1_565 S
C312 C313 1.396 . S
C312 C317 1.390 . S
C313 C307 1.463 . S
C313 C312 1.396 . S
C313 C314 1.399 . S
C314 H300 0.929 . S
C314 C313 1.399 . S
C314 C315 1.385 . S
C315 H301 0.931 . S
C315 C314 1.385 . S
C315 C316 1.389 . S
C316 C315 1.389 . S
C316 C317 1.387 . S
C317 H302 0.930 . S
C317 C312 1.390 . S
C317 C316 1.387 . S
H318 C330 0.930 . S
H319 C332 0.930 . S
H320 C333 0.930 . S
H321 C337 0.959 . S
H322 C337 0.959 . S
H323 C337 0.961 . S
H324 C338 0.960 . S
H325 C338 0.961 . S
H326 C338 0.959 . S
H327 C341 0.929 . S
H328 C342 0.931 . S
H329 C344 0.930 . S
C330 H318 0.930 . S
C330 C331 1.399 . S
C330 C335 1.399 . S
C331 C330 1.399 . S
C331 C332 1.376 . S
C332 H319 0.930 . S
C332 C331 1.376 . S
C332 C333 1.388 . S
C333 H320 0.930 . S
C333 C332 1.388 . S
C333 C334 1.390 . S
C334 C333 1.390 . S
C334 C335 1.394 . S
C334 C340 1.465 . S
C335 C330 1.399 . S
C335 C334 1.394 . S
C335 C336 1.516 . S
C336 C335 1.516 . S
C336 C337 1.502 . S
C336 C338 1.561 . S
C336 C339 1.526 . S
C337 H321 0.959 . S
C337 H322 0.959 . S
C337 H323 0.961 . S
C337 C336 1.502 . S
C338 H324 0.960 . S
C338 H325 0.961 . S
C338 H326 0.959 . S
C338 C336 1.561 . S
C339 C336 1.526 . S
C339 C340 1.396 . S
C339 C344 1.390 . S
C340 C334 1.465 . S
C340 C339 1.396 . S
C340 C341 1.399 . S
C341 H327 0.929 . S
C341 C340 1.399 . S
C341 C342 1.385 . S
C342 H328 0.931 . S
C342 C341 1.385 . S
C342 C343 1.389 . S
C343 C342 1.389 . S
C343 C344 1.387 . S
C344 H329 0.930 . S
C344 C339 1.390 . S
C344 C343 1.387 . S
H345 C357 0.930 . S
H346 C359 0.930 . S
H347 C360 0.930 . S
H348 C364 0.959 . S
H349 C364 0.959 . S
H350 C364 0.961 . S
H351 C365 0.960 . S
H352 C365 0.961 . S
H353 C365 0.959 . S
H354 C368 0.929 . S
H355 C369 0.931 . S
H356 C371 0.930 . S
C357 H345 0.930 . S
C357 C358 1.399 . S
C357 C362 1.399 . S
C358 C357 1.399 . S
C358 C359 1.376 . S
C359 H346 0.930 . S
C359 C358 1.376 . S
C359 C360 1.388 . S
C360 H347 0.930 . S
C360 C359 1.388 . S
C360 C361 1.390 . S
C361 C360 1.390 . S
C361 C362 1.394 . S
C361 C367 1.465 . S
C362 C357 1.399 . S
C362 C361 1.394 . S
C362 C363 1.516 . S
C363 C362 1.516 . S
C363 C364 1.502 . S
C363 C365 1.561 . S
C363 C366 1.526 . S
C364 H348 0.959 . S
C364 H349 0.959 . S
C364 H350 0.961 . S
C364 C363 1.502 . S
C365 H351 0.960 . S
C365 H352 0.961 . S
C365 H353 0.959 . S
C365 C363 1.561 . S
C366 C363 1.526 . S
C366 C367 1.396 . S
C366 C371 1.390 . S
C367 C361 1.465 . S
C367 C366 1.396 . S
C367 C368 1.399 . S
C368 H354 0.929 . S
C368 C367 1.399 . S
C368 C369 1.385 . S
C369 H355 0.931 . S
C369 C368 1.385 . S
C369 C370 1.389 . S
C370 C369 1.389 . S
C370 C371 1.387 . S
C371 H356 0.930 . S
C371 C366 1.390 . S
C371 C370 1.387 . S
H372 C384 0.930 . S
H373 C386 0.930 . S
H374 C387 0.930 . S
H375 C391 0.959 . S
H376 C391 0.959 . S
H377 C391 0.961 . S
H378 C392 0.960 . S
H379 C392 0.961 . S
H380 C392 0.959 . S
H381 C395 0.929 . S
H382 C396 0.931 . S
H383 C398 0.930 . S
C384 H372 0.930 . S
C384 C385 1.399 . S
C384 C389 1.399 . S
C385 C384 1.399 . S
C385 C386 1.376 . S
C386 H373 0.930 . S
C386 C385 1.376 . S
C386 C387 1.388 . S
C387 H374 0.930 . S
C387 C386 1.388 . S
C387 C388 1.390 . S
C388 C387 1.390 . S
C388 C389 1.394 . S
C388 C394 1.465 . S
C389 C384 1.399 . S
C389 C388 1.394 . S
C389 C390 1.516 . S
C390 C389 1.516 . S
C390 C391 1.502 . S
C390 C392 1.561 . S
C390 C393 1.526 . S
C391 H375 0.959 . S
C391 H376 0.959 . S
C391 H377 0.961 . S
C391 C390 1.502 . S
C392 H378 0.960 . S
C392 H379 0.961 . S
C392 H380 0.959 . S
C392 C390 1.561 . S
C393 C390 1.526 . S
C393 C394 1.396 . S
C393 C398 1.390 . S
C394 C388 1.465 . S
C394 C393 1.396 . S
C394 C395 1.399 . S
C395 H381 0.929 . S
C395 C394 1.399 . S
C395 C396 1.385 . S
C396 H382 0.931 . S
C396 C395 1.385 . S
C396 C397 1.389 . S
C397 C396 1.389 . S
C397 C398 1.387 . S
C398 H383 0.930 . S
C398 C393 1.390 . S
C398 C397 1.387 . S
H399 C411 0.930 . S
H400 C413 0.930 . S
H401 C414 0.930 . S
H402 C418 0.959 . S
H403 C418 0.959 . S
H404 C418 0.961 . S
H405 C419 0.960 . S
H406 C419 0.961 . S
H407 C419 0.959 . S
H408 C422 0.929 . S
H409 C423 0.931 . S
H410 C425 0.930 . S
C411 H399 0.930 . S
C411 C412 1.399 . S
C411 C416 1.399 . S
C412 C411 1.399 . S
C412 C413 1.376 . S
C413 H400 0.930 . S
C413 C412 1.376 . S
C413 C414 1.388 . S
C414 H401 0.930 . S
C414 C413 1.388 . S
C414 C415 1.390 . S
C415 C414 1.390 . S
C415 C416 1.394 . S
C415 C421 1.465 . S
C416 C411 1.399 . S
C416 C415 1.394 . S
C416 C417 1.516 . S
C417 C416 1.516 . S
C417 C418 1.502 . S
C417 C419 1.561 . S
C417 C420 1.526 . S
C418 H402 0.959 . S
C418 H403 0.959 . S
C418 H404 0.961 . S
C418 C417 1.502 . S
C419 H405 0.960 . S
C419 H406 0.961 . S
C419 H407 0.959 . S
C419 C417 1.561 . S
C420 C417 1.526 . S
C420 C421 1.396 . S
C420 C425 1.390 . S
C421 C415 1.465 . S
C421 C420 1.396 . S
C421 C422 1.399 . S
C422 H408 0.929 . S
C422 C421 1.399 . S
C422 C423 1.385 . S
C423 H409 0.931 . S
C423 C422 1.385 . S
C423 C424 1.389 . S
C424 C423 1.389 . S
C424 C425 1.387 . S
C425 H410 0.930 . S
C425 C420 1.390 . S
C425 C424 1.387 . S
H426 C438 0.930 . S
H427 C440 0.930 . S
H428 C441 0.930 . S
H429 C445 0.959 . S
H430 C445 0.959 . S
H431 C445 0.961 . S
H432 C446 0.960 . S
H433 C446 0.961 . S
H434 C446 0.959 . S
H435 C449 0.929 . S
H436 C450 0.931 . S
H437 C452 0.930 . S
C438 H426 0.930 . S
C438 C439 1.399 . S
C438 C443 1.399 . S
C439 C438 1.399 . S
C439 C440 1.376 . S
C440 H427 0.930 . S
C440 C439 1.376 . S
C440 C441 1.388 . S
C441 H428 0.930 . S
C441 C440 1.388 . S
C441 C442 1.390 . S
C442 C441 1.390 . S
C442 C443 1.394 . S
C442 C448 1.465 . S
C443 C438 1.399 . S
C443 C442 1.394 . S
C443 C444 1.516 . S
C444 C443 1.516 . S
C444 C445 1.502 . S
C444 C446 1.561 . S
C444 C447 1.526 . S
C445 H429 0.959 . S
C445 H430 0.959 . S
C445 H431 0.961 . S
C445 C444 1.502 . S
C446 H432 0.960 . S
C446 H433 0.961 . S
C446 H434 0.959 . S
C446 C444 1.561 . S
C447 C444 1.526 . S
C447 C448 1.396 . S
C447 C452 1.390 . S
C448 C442 1.465 . S
C448 C447 1.396 . S
C448 C449 1.399 . S
C449 H435 0.929 . S
C449 C448 1.399 . S
C449 C450 1.385 . S
C450 H436 0.931 . S
C450 C449 1.385 . S
C450 C451 1.389 . S
C451 C450 1.389 . S
C451 C452 1.387 . S
C452 H437 0.930 . S
C452 C447 1.390 . S
C452 C451 1.387 . S
H453 C465 0.930 . S
H454 C467 0.930 . S
H455 C468 0.930 . S
H456 C472 0.959 . S
H457 C472 0.959 . S
H458 C472 0.961 . S
H459 C473 0.960 . S
H460 C473 0.961 . S
H461 C473 0.959 . S
H462 C476 0.929 . S
H463 C477 0.931 . S
H464 C479 0.930 . S
C465 H453 0.930 . S
C465 C466 1.399 . S
C465 C470 1.399 . S
C466 C465 1.399 . S
C466 C467 1.376 . S
C467 H454 0.930 . S
C467 C466 1.376 . S
C467 C468 1.388 . S
C468 H455 0.930 . S
C468 C467 1.388 . S
C468 C469 1.390 . S
C469 C468 1.390 . S
C469 C470 1.394 . S
C469 C475 1.465 . S
C470 C465 1.399 . S
C470 C469 1.394 . S
C470 C471 1.516 . S
C471 C470 1.516 . S
C471 C472 1.502 . S
C471 C473 1.561 . S
C471 C474 1.526 . S
C472 H456 0.959 . S
C472 H457 0.959 . S
C472 H458 0.961 . S
C472 C471 1.502 . S
C473 H459 0.960 . S
C473 H460 0.961 . S
C473 H461 0.959 . S
C473 C471 1.561 . S
C474 C471 1.526 . S
C474 C475 1.396 . S
C474 C479 1.390 . S
C475 C469 1.465 . S
C475 C474 1.396 . S
C475 C476 1.399 . S
C476 H462 0.929 . S
C476 C475 1.399 . S
C476 C477 1.385 . S
C477 H463 0.931 . S
C477 C476 1.385 . S
C477 C478 1.389 . S
C478 C477 1.389 . S
C478 C479 1.387 . S
C479 H464 0.930 . S
C479 C474 1.390 . S
C479 C478 1.387 . S
H480 C492 0.930 . S
H481 C494 0.930 . S
H482 C495 0.930 . S
H483 C499 0.959 . S
H484 C499 0.959 . S
H485 C499 0.961 . S
H486 C500 0.960 . S
H487 C500 0.961 . S
H488 C500 0.959 . S
H489 C503 0.929 1_565 S
H490 C504 0.931 . S
H491 C506 0.926 . S
C492 H480 0.930 . S
C492 C493 1.399 . S
C492 C497 1.399 . S
C493 C492 1.399 . S
C493 C494 1.376 . S
C494 H481 0.930 . S
C494 C493 1.376 . S
C494 C495 1.388 1_556 S
C495 H482 0.930 . S
C495 C494 1.388 1_554 S
C495 C496 1.390 . S
C496 C495 1.390 . S
C496 C497 1.394 1_554 S
C496 C502 1.465 1_565 S
C497 C492 1.399 . S
C497 C496 1.394 1_556 S
C497 C498 1.516 1_565 S
C498 C497 1.516 1_545 S
C498 C499 1.502 . S
C498 C500 1.561 . S
C498 C501 1.526 1_556 S
C499 H483 0.959 . S
C499 H484 0.959 . S
C499 H485 0.961 . S
C499 C498 1.502 . S
C500 H486 0.960 . S
C500 H487 0.961 . S
C500 H488 0.959 . S
C500 C498 1.561 . S
C501 C498 1.526 1_554 S
C501 C502 1.396 . S
C501 C506 1.390 . S
C502 C496 1.465 1_545 S
C502 C501 1.396 . S
C502 C503 1.399 . S
C503 H489 0.929 1_545 S
C503 C502 1.399 . S
C503 C504 1.385 . S
C504 H490 0.931 . S
C504 C503 1.385 . S
C504 C505 1.389 . S
C505 C504 1.389 . S
C505 C506 1.387 . S
C506 H491 0.926 . S
C506 C501 1.390 . S
C506 C505 1.387 . S
H507 C519 0.930 . S
H508 C521 0.930 . S
H509 C522 0.930 . S
H510 C526 0.959 . S
H511 C526 0.959 . S
H512 C526 0.961 . S
H513 C527 0.960 . S
H514 C527 0.961 . S
H515 C527 0.959 . S
H516 C530 0.929 . S
H517 C531 0.931 . S
H518 C533 0.930 . S
C519 H507 0.930 . S
C519 C520 1.399 . S
C519 C524 1.399 . S
C520 C519 1.399 . S
C520 C521 1.376 . S
C521 H508 0.930 . S
C521 C520 1.376 . S
C521 C522 1.388 . S
C522 H509 0.930 . S
C522 C521 1.388 . S
C522 C523 1.390 . S
C523 C522 1.390 . S
C523 C524 1.394 . S
C523 C529 1.465 . S
C524 C519 1.399 . S
C524 C523 1.394 . S
C524 C525 1.516 . S
C525 C524 1.516 . S
C525 C526 1.502 . S
C525 C527 1.561 . S
C525 C528 1.526 . S
C526 H510 0.959 . S
C526 H511 0.959 . S
C526 H512 0.961 . S
C526 C525 1.502 . S
C527 H513 0.960 . S
C527 H514 0.961 . S
C527 H515 0.959 . S
C527 C525 1.561 . S
C528 C525 1.526 . S
C528 C529 1.396 . S
C528 C533 1.390 . S
C529 C523 1.465 . S
C529 C528 1.396 . S
C529 C530 1.399 . S
C530 H516 0.929 . S
C530 C529 1.399 . S
C530 C531 1.385 . S
C531 H517 0.931 . S
C531 C530 1.385 . S
C531 C532 1.389 . S
C532 C531 1.389 . S
C532 C533 1.387 . S
C533 H518 0.930 . S
C533 C528 1.390 . S
C533 C532 1.387 . S
H534 C546 0.930 . S
H535 C548 0.930 . S
H536 C549 0.930 . S
H537 C553 0.959 . S
H538 C553 0.959 . S
H539 C553 0.961 . S
H540 C554 0.960 . S
H541 C554 0.961 . S
H542 C554 0.959 . S
H543 C557 0.929 1_655 S
H544 C558 0.931 . S
H545 C560 0.930 . S
C546 H534 0.930 . S
C546 C547 1.399 . S
C546 C551 1.399 . S
C547 C546 1.399 . S
C547 C548 1.376 . S
C548 H535 0.930 . S
C548 C547 1.376 . S
C548 C549 1.388 . S
C549 H536 0.930 . S
C549 C548 1.388 . S
C549 C550 1.390 . S
C550 C549 1.390 . S
C550 C551 1.394 . S
C550 C556 1.465 1_655 S
C551 C546 1.399 . S
C551 C550 1.394 . S
C551 C552 1.516 1_655 S
C552 C551 1.516 1_455 S
C552 C553 1.502 . S
C552 C554 1.561 . S
C552 C555 1.526 . S
C553 H537 0.959 . S
C553 H538 0.959 . S
C553 H539 0.961 . S
C553 C552 1.502 . S
C554 H540 0.960 . S
C554 H541 0.961 . S
C554 H542 0.959 . S
C554 C552 1.561 . S
C555 C552 1.526 . S
C555 C556 1.396 . S
C555 C560 1.390 . S
C556 C550 1.465 1_455 S
C556 C555 1.396 . S
C556 C557 1.399 . S
C557 H543 0.929 1_455 S
C557 C556 1.399 . S
C557 C558 1.385 . S
C558 H544 0.931 . S
C558 C557 1.385 . S
C558 C559 1.389 . S
C559 C558 1.389 . S
C559 C560 1.387 . S
C560 H545 0.930 . S
C560 C555 1.390 . S
C560 C559 1.387 . S
H561 C573 0.930 . S
H562 C575 0.930 . S
H563 C576 0.930 . S
H564 C580 0.959 . S
H565 C580 0.959 . S
H566 C580 0.961 . S
H567 C581 0.960 . S
H568 C581 0.961 . S
H569 C581 0.959 . S
H570 C584 0.929 1_565 S
H571 C585 0.931 . S
H572 C587 0.930 . S
C573 H561 0.930 . S
C573 C574 1.399 . S
C573 C578 1.399 . S
C574 C573 1.399 . S
C574 C575 1.376 . S
C575 H562 0.930 . S
C575 C574 1.376 . S
C575 C576 1.388 1_554 S
C576 H563 0.930 . S
C576 C575 1.388 1_556 S
C576 C577 1.390 . S
C577 C576 1.390 . S
C577 C578 1.394 1_556 S
C577 C583 1.465 1_565 S
C578 C573 1.399 . S
C578 C577 1.394 1_554 S
C578 C579 1.516 1_565 S
C579 C578 1.516 1_545 S
C579 C580 1.502 . S
C579 C581 1.561 . S
C579 C582 1.526 1_554 S
C580 H564 0.959 . S
C580 H565 0.959 . S
C580 H566 0.961 . S
C580 C579 1.502 . S
C581 H567 0.960 . S
C581 H568 0.961 . S
C581 H569 0.959 . S
C581 C579 1.561 . S
C582 C579 1.526 1_556 S
C582 C583 1.396 . S
C582 C587 1.390 . S
C583 C577 1.465 1_545 S
C583 C582 1.396 . S
C583 C584 1.399 . S
C584 H570 0.929 1_545 S
C584 C583 1.399 . S
C584 C585 1.385 . S
C585 H571 0.931 . S
C585 C584 1.385 . S
C585 C586 1.389 . S
C586 C585 1.389 . S
C586 C587 1.387 . S
C587 H572 0.930 . S
C587 C582 1.390 . S
C587 C586 1.387 . S
H588 C600 0.930 . S
H589 C602 0.930 . S
H590 C603 0.930 . S
H591 C607 0.959 . S
H592 C607 0.959 . S
H593 C607 0.961 . S
H594 C608 0.960 . S
H595 C608 0.961 . S
H596 C608 0.959 . S
H597 C611 0.929 . S
H598 C612 0.931 . S
H599 C614 0.930 . S
C600 H588 0.930 . S
C600 C601 1.399 . S
C600 C605 1.399 . S
C601 C600 1.399 . S
C601 C602 1.376 . S
C602 H589 0.930 . S
C602 C601 1.376 . S
C602 C603 1.388 . S
C603 H590 0.930 . S
C603 C602 1.388 . S
C603 C604 1.390 . S
C604 C603 1.390 . S
C604 C605 1.394 . S
C604 C610 1.465 . S
C605 C600 1.399 . S
C605 C604 1.394 . S
C605 C606 1.516 . S
C606 C605 1.516 . S
C606 C607 1.502 . S
C606 C608 1.561 . S
C606 C609 1.526 . S
C607 H591 0.959 . S
C607 H592 0.959 . S
C607 H593 0.961 . S
C607 C606 1.502 . S
C608 H594 0.960 . S
C608 H595 0.961 . S
C608 H596 0.959 . S
C608 C606 1.561 . S
C609 C606 1.526 . S
C609 C610 1.396 . S
C609 C614 1.390 . S
C610 C604 1.465 . S
C610 C609 1.396 . S
C610 C611 1.399 . S
C611 H597 0.929 . S
C611 C610 1.399 . S
C611 C612 1.385 . S
C612 H598 0.931 . S
C612 C611 1.385 . S
C612 C613 1.389 . S
C613 C612 1.389 . S
C613 C614 1.387 . S
C614 H599 0.930 . S
C614 C609 1.390 . S
C614 C613 1.387 . S
H615 C627 0.930 . S
H616 C629 0.930 . S
H617 C630 0.930 . S
H618 C634 0.959 . S
H619 C634 0.959 . S
H620 C634 0.961 1_455 S
H621 C635 0.960 . S
H622 C635 0.961 . S
H623 C635 0.959 . S
H624 C638 0.929 . S
H625 C639 0.931 . S
H626 C641 0.930 . S
C627 H615 0.930 . S
C627 C628 1.399 . S
C627 C632 1.399 . S
C628 C627 1.399 . S
C628 C629 1.376 . S
C629 H616 0.930 . S
C629 C628 1.376 . S
C629 C630 1.388 . S
C630 H617 0.930 . S
C630 C629 1.388 . S
C630 C631 1.390 . S
C631 C630 1.390 . S
C631 C632 1.394 . S
C631 C637 1.465 1_455 S
C632 C627 1.399 . S
C632 C631 1.394 . S
C632 C633 1.516 . S
C633 C632 1.516 . S
C633 C634 1.502 1_455 S
C633 C635 1.561 . S
C633 C636 1.526 1_455 S
C634 H618 0.959 . S
C634 H619 0.959 . S
C634 H620 0.961 1_655 S
C634 C633 1.502 1_655 S
C635 H621 0.960 . S
C635 H622 0.961 . S
C635 H623 0.959 . S
C635 C633 1.561 . S
C636 C633 1.526 1_655 S
C636 C637 1.396 . S
C636 C641 1.390 . S
C637 C631 1.465 1_655 S
C637 C636 1.396 . S
C637 C638 1.399 . S
C638 H624 0.929 . S
C638 C637 1.399 . S
C638 C639 1.385 . S
C639 H625 0.931 . S
C639 C638 1.385 . S
C639 C640 1.389 . S
C640 C639 1.389 . S
C640 C641 1.387 . S
C641 H626 0.930 . S
C641 C636 1.390 . S
C641 C640 1.387 . S
H642 C654 0.930 . S
H643 C656 0.930 1_655 S
H644 C657 0.930 . S
H645 C661 0.959 . S
H646 C661 0.959 . S
H647 C661 0.961 . S
H648 C662 0.960 . S
H649 C662 0.961 . S
H650 C662 0.959 . S
H651 C665 0.929 . S
H652 C666 0.931 . S
H653 C668 0.930 . S
C654 H642 0.930 . S
C654 C655 1.399 . S
C654 C659 1.399 . S
C655 C654 1.399 . S
C655 C656 1.376 . S
C656 H643 0.930 1_455 S
C656 C655 1.376 . S
C656 C657 1.388 . S
C657 H644 0.930 . S
C657 C656 1.388 . S
C657 C658 1.390 . S
C658 C657 1.390 . S
C658 C659 1.394 . S
C658 C664 1.465 1_556 S
C659 C654 1.399 . S
C659 C658 1.394 . S
C659 C660 1.516 . S
C660 C659 1.516 . S
C660 C661 1.502 . S
C660 C662 1.561 1_556 S
C660 C663 1.526 1_556 S
C661 H645 0.959 . S
C661 H646 0.959 . S
C661 H647 0.961 . S
C661 C660 1.502 . S
C662 H648 0.960 . S
C662 H649 0.961 . S
C662 H650 0.959 . S
C662 C660 1.561 1_554 S
C663 C660 1.526 1_554 S
C663 C664 1.396 . S
C663 C668 1.390 . S
C664 C658 1.465 1_554 S
C664 C663 1.396 . S
C664 C665 1.399 . S
C665 H651 0.929 . S
C665 C664 1.399 . S
C665 C666 1.385 . S
C666 H652 0.931 . S
C666 C665 1.385 . S
C666 C667 1.389 . S
C667 C666 1.389 . S
C667 C668 1.387 . S
C668 H653 0.930 . S
C668 C663 1.390 . S
C668 C667 1.387 . S
H669 C681 0.930 . S
H670 C683 0.930 1_565 S
H671 C684 0.930 . S
H672 C688 0.959 . S
H673 C688 0.959 . S
H674 C688 0.961 . S
H675 C689 0.960 . S
H676 C689 0.961 . S
H677 C689 0.959 . S
H678 C692 0.929 . S
H679 C693 0.931 . S
H680 C695 0.930 . S
C681 H669 0.930 . S
C681 C682 1.399 . S
C681 C686 1.399 . S
C682 C681 1.399 . S
C682 C683 1.376 . S
C683 H670 0.930 1_545 S
C683 C682 1.376 . S
C683 C684 1.388 . S
C684 H671 0.930 . S
C684 C683 1.388 . S
C684 C685 1.390 . S
C685 C684 1.390 . S
C685 C686 1.394 . S
C685 C691 1.465 . S
C686 C681 1.399 . S
C686 C685 1.394 . S
C686 C687 1.516 . S
C687 C686 1.516 . S
C687 C688 1.502 . S
C687 C689 1.561 . S
C687 C690 1.526 . S
C688 H672 0.959 . S
C688 H673 0.959 . S
C688 H674 0.961 . S
C688 C687 1.502 . S
C689 H675 0.960 . S
C689 H676 0.961 . S
C689 H677 0.959 . S
C689 C687 1.561 . S
C690 C687 1.526 . S
C690 C691 1.396 . S
C690 C695 1.390 . S
C691 C685 1.465 . S
C691 C690 1.396 . S
C691 C692 1.399 . S
C692 H678 0.929 . S
C692 C691 1.399 . S
C692 C693 1.385 . S
C693 H679 0.931 . S
C693 C692 1.385 . S
C693 C694 1.389 . S
C694 C693 1.389 . S
C694 C695 1.387 . S
C695 H680 0.930 . S
C695 C690 1.390 . S
C695 C694 1.387 . S
H696 C708 0.930 . S
H697 C710 0.930 . S
H698 C711 0.930 . S
H699 C715 0.959 . S
H700 C715 0.959 . S
H701 C715 0.961 . S
H702 C716 0.960 . S
H703 C716 0.961 . S
H704 C716 0.959 . S
H705 C719 0.929 . S
H706 C720 0.931 . S
H707 C722 0.930 . S
C708 H696 0.930 . S
C708 C709 1.399 . S
C708 C713 1.399 . S
C709 C708 1.399 . S
C709 C710 1.376 . S
C710 H697 0.930 . S
C710 C709 1.376 . S
C710 C711 1.388 . S
C711 H698 0.930 . S
C711 C710 1.388 . S
C711 C712 1.390 . S
C712 C711 1.390 . S
C712 C713 1.394 . S
C712 C718 1.465 . S
C713 C708 1.399 . S
C713 C712 1.394 . S
C713 C714 1.516 . S
C714 C713 1.516 . S
C714 C715 1.502 . S
C714 C716 1.561 . S
C714 C717 1.526 . S
C715 H699 0.959 . S
C715 H700 0.959 . S
C715 H701 0.961 . S
C715 C714 1.502 . S
C716 H702 0.960 . S
C716 H703 0.961 . S
C716 H704 0.959 . S
C716 C714 1.561 . S
C717 C714 1.526 . S
C717 C718 1.396 . S
C717 C722 1.390 . S
C718 C712 1.465 . S
C718 C717 1.396 . S
C718 C719 1.399 . S
C719 H705 0.929 . S
C719 C718 1.399 . S
C719 C720 1.385 . S
C720 H706 0.931 . S
C720 C719 1.385 . S
C720 C721 1.389 . S
C721 C720 1.389 . S
C721 C722 1.387 . S
C722 H707 0.930 . S
C722 C717 1.390 . S
C722 C721 1.387 . S
H723 C735 0.930 . S
H724 C737 0.930 . S
H725 C738 0.917 1_556 S
H726 C742 0.959 . S
H727 C742 0.959 . S
H728 C742 0.961 . S
H729 C743 0.960 . S
H730 C743 0.961 . S
H731 C743 0.959 . S
H732 C746 0.929 . S
H733 C747 0.931 1_455 S
H734 C749 0.930 . S
C735 H723 0.930 . S
C735 C736 1.399 . S
C735 C740 1.399 . S
C736 C735 1.399 . S
C736 C737 1.376 . S
C737 H724 0.930 . S
C737 C736 1.376 . S
C737 C738 1.388 . S
C738 H725 0.917 1_554 S
C738 C737 1.388 . S
C738 C739 1.390 . S
C739 C738 1.390 . S
C739 C740 1.394 . S
C739 C745 1.465 1_554 S
C740 C735 1.399 . S
C740 C739 1.394 . S
C740 C741 1.516 . S
C741 C740 1.516 . S
C741 C742 1.502 . S
C741 C743 1.561 1_554 S
C741 C744 1.526 1_554 S
C742 H726 0.959 . S
C742 H727 0.959 . S
C742 H728 0.961 . S
C742 C741 1.502 . S
C743 H729 0.960 . S
C743 H730 0.961 . S
C743 H731 0.959 . S
C743 C741 1.561 1_556 S
C744 C741 1.526 1_556 S
C744 C745 1.396 . S
C744 C749 1.390 . S
C745 C739 1.465 1_556 S
C745 C744 1.396 . S
C745 C746 1.399 . S
C746 H732 0.929 . S
C746 C745 1.399 . S
C746 C747 1.385 . S
C747 H733 0.931 1_655 S
C747 C746 1.385 . S
C747 C748 1.389 . S
C748 C747 1.389 . S
C748 C749 1.387 . S
C749 H734 0.930 . S
C749 C744 1.390 . S
C749 C748 1.387 . S
H750 C762 0.930 . S
H751 C764 0.930 . S
H752 C765 0.930 . S
H753 C769 0.959 . S
H754 C769 0.959 . S
H755 C769 0.961 . S
H756 C770 0.960 . S
H757 C770 0.961 . S
H758 C770 0.959 . S
H759 C773 0.929 . S
H760 C774 0.934 . S
H761 C776 0.930 . S
C762 H750 0.930 . S
C762 C763 1.399 . S
C762 C767 1.399 . S
C763 C762 1.399 . S
C763 C764 1.376 . S
C764 H751 0.930 . S
C764 C763 1.376 . S
C764 C765 1.388 . S
C765 H752 0.930 . S
C765 C764 1.388 . S
C765 C766 1.390 . S
C766 C765 1.390 . S
C766 C767 1.394 . S
C766 C772 1.465 . S
C767 C762 1.399 . S
C767 C766 1.394 . S
C767 C768 1.516 . S
C768 C767 1.516 . S
C768 C769 1.502 . S
C768 C770 1.561 . S
C768 C771 1.526 . S
C769 H753 0.959 . S
C769 H754 0.959 . S
C769 H755 0.961 . S
C769 C768 1.502 . S
C770 H756 0.960 . S
C770 H757 0.961 . S
C770 H758 0.959 . S
C770 C768 1.561 . S
C771 C768 1.526 . S
C771 C772 1.396 . S
C771 C776 1.390 . S
C772 C766 1.465 . S
C772 C771 1.396 . S
C772 C773 1.399 . S
C773 H759 0.929 . S
C773 C772 1.399 . S
C773 C774 1.384 1_565 S
C774 H760 0.934 . S
C774 C773 1.384 1_545 S
C774 C775 1.387 1_545 S
C775 C774 1.387 1_565 S
C775 C776 1.387 . S
C776 H761 0.930 . S
C776 C771 1.390 . S
C776 C775 1.387 . S
H777 C789 0.930 . S
H778 C791 0.930 1_565 S
H779 C792 0.930 . S
H780 C796 0.959 . S
H781 C796 0.959 . S
H782 C796 0.961 . S
H783 C797 0.960 . S
H784 C797 0.961 . S
H785 C797 0.959 . S
H786 C800 0.929 . S
H787 C801 0.931 . S
H788 C803 0.930 . S
C789 H777 0.930 . S
C789 C790 1.399 . S
C789 C794 1.399 . S
C790 C789 1.399 . S
C790 C791 1.376 . S
C791 H778 0.930 1_545 S
C791 C790 1.376 . S
C791 C792 1.388 . S
C792 H779 0.930 . S
C792 C791 1.388 . S
C792 C793 1.390 . S
C793 C792 1.390 . S
C793 C794 1.394 . S
C793 C799 1.465 . S
C794 C789 1.399 . S
C794 C793 1.394 . S
C794 C795 1.516 . S
C795 C794 1.516 . S
C795 C796 1.502 . S
C795 C797 1.561 . S
C795 C798 1.526 . S
C796 H780 0.959 . S
C796 H781 0.959 . S
C796 H782 0.961 . S
C796 C795 1.502 . S
C797 H783 0.960 . S
C797 H784 0.961 . S
C797 H785 0.959 . S
C797 C795 1.561 . S
C798 C795 1.526 . S
C798 C799 1.396 . S
C798 C803 1.390 . S
C799 C793 1.465 . S
C799 C798 1.396 . S
C799 C800 1.399 . S
C800 H786 0.929 . S
C800 C799 1.399 . S
C800 C801 1.385 . S
C801 H787 0.931 . S
C801 C800 1.385 . S
C801 C802 1.389 . S
C802 C801 1.389 . S
C802 C803 1.387 . S
C803 H788 0.930 . S
C803 C798 1.390 . S
C803 C802 1.387 . S
C169 C43 1.538 . S
C181 C10 1.560 . S
C196 C17 1.570 . S
C208 C56 1.534 . S
C223 C75 1.571 . S
C235 C36 1.533 . S
C250 C82 1.536 . S
C262 C121 1.562 . S
C277 C134 1.528 . S
C289 C101 1.571 . S
C304 C114 1.535 . S
C316 C147 1.562 . S
C331 C108 1.647 . S
C343 C4 1.646 . S
C358 C23 1.644 . S
C370 C127 1.643 . S
C385 C30 1.647 . S
C397 C140 1.649 . S
C412 C49 1.655 . S
C424 C153 1.654 . S
C439 C88 1.654 . S
C451 C62 1.656 . S
C466 C95 1.643 . S
C478 C69 1.645 . S
C493 C94 1.261 . S
C505 C3 1.267 . S
C520 C18 1.281 . S
C532 C107 1.276 . S
C547 C29 1.258 . S
C559 C122 1.263 . S
C574 C44 1.254 . S
C586 C135 1.259 . S
C601 C148 1.292 . S
C613 C57 1.292 . S
C628 C68 1.292 . S
C640 C83 1.292 . S
C655 C133 1.396 1_455 S
C667 C5 1.398 . S
C682 C146 1.399 1_545 S
C694 C16 1.405 1_655 S
C709 C81 1.405 . S
C721 C31 1.400 1_565 S
C736 C42 1.396 . S
C748 C96 1.399 1_655 S
C763 C55 1.399 1_455 S
C775 C109 1.396 1_565 S
C790 C70 1.400 1_545 S
C802 C120 1.405 . S
