# Generated by pormake.
# Topology wju, (5)-cn, num edge types: 1
# Building blocks:
#     Node 0, Type 0, BuildingBlock: BEQFEK_clean_sbu_0, # of connection points: 5
#     Node 1, Type 0, BuildingBlock: BEQFEK_clean_sbu_0, # of connection points: 5
#     Node 2, Type 0, BuildingBlock: BEQFEK_clean_sbu_0, # of connection points: 5
#     Node 3, Type 0, BuildingBlock: BEQFEK_clean_sbu_0, # of connection points: 5
#     Node 4, Type 0, BuildingBlock: BEQFEK_clean_sbu_0, # of connection points: 5
#     Node 5, Type 0, BuildingBlock: BEQFEK_clean_sbu_0, # of connection points: 5
#     Node 6, Type 0, BuildingBlock: BEQFEK_clean_sbu_0, # of connection points: 5
#     Node 7, Type 0, BuildingBlock: BEQFEK_clean_sbu_0, # of connection points: 5
#     Node 8, Type 0, BuildingBlock: BEQFEK_clean_sbu_0, # of connection points: 5
#     Node 9, Type 0, BuildingBlock: BEQFEK_clean_sbu_0, # of connection points: 5
#     Node 10, Type 0, BuildingBlock: BEQFEK_clean_sbu_0, # of connection points: 5
#     Node 11, Type 0, BuildingBlock: BEQFEK_clean_sbu_0, # of connection points: 5
#     Edge 12, Type (0, 0), BuildingBlock: XUDNAN_clean_linker_2, # of connection points: 2
#     Edge 13, Type (0, 0), BuildingBlock: XUDNAN_clean_linker_2, # of connection points: 2
#     Edge 14, Type (0, 0), BuildingBlock: XUDNAN_clean_linker_2, # of connection points: 2
#     Edge 15, Type (0, 0), BuildingBlock: XUDNAN_clean_linker_2, # of connection points: 2
#     Edge 16, Type (0, 0), BuildingBlock: XUDNAN_clean_linker_2, # of connection points: 2
#     Edge 17, Type (0, 0), BuildingBlock: XUDNAN_clean_linker_2, # of connection points: 2
#     Edge 18, Type (0, 0), BuildingBlock: XUDNAN_clean_linker_2, # of connection points: 2
#     Edge 19, Type (0, 0), BuildingBlock: XUDNAN_clean_linker_2, # of connection points: 2
#     Edge 20, Type (0, 0), BuildingBlock: XUDNAN_clean_linker_2, # of connection points: 2
#     Edge 21, Type (0, 0), BuildingBlock: XUDNAN_clean_linker_2, # of connection points: 2
#     Edge 22, Type (0, 0), BuildingBlock: XUDNAN_clean_linker_2, # of connection points: 2
#     Edge 23, Type (0, 0), BuildingBlock: XUDNAN_clean_linker_2, # of connection points: 2
#     Edge 24, Type (0, 0), BuildingBlock: XUDNAN_clean_linker_2, # of connection points: 2
#     Edge 25, Type (0, 0), BuildingBlock: XUDNAN_clean_linker_2, # of connection points: 2
#     Edge 26, Type (0, 0), BuildingBlock: XUDNAN_clean_linker_2, # of connection points: 2
#     Edge 27, Type (0, 0), BuildingBlock: XUDNAN_clean_linker_2, # of connection points: 2
#     Edge 28, Type (0, 0), BuildingBlock: XUDNAN_clean_linker_2, # of connection points: 2
#     Edge 29, Type (0, 0), BuildingBlock: XUDNAN_clean_linker_2, # of connection points: 2
#     Edge 30, Type (0, 0), BuildingBlock: XUDNAN_clean_linker_2, # of connection points: 2
#     Edge 31, Type (0, 0), BuildingBlock: XUDNAN_clean_linker_2, # of connection points: 2
#     Edge 32, Type (0, 0), BuildingBlock: XUDNAN_clean_linker_2, # of connection points: 2
#     Edge 33, Type (0, 0), BuildingBlock: XUDNAN_clean_linker_2, # of connection points: 2
#     Edge 34, Type (0, 0), BuildingBlock: XUDNAN_clean_linker_2, # of connection points: 2
#     Edge 35, Type (0, 0), BuildingBlock: XUDNAN_clean_linker_2, # of connection points: 2
#     Edge 36, Type (0, 0), BuildingBlock: XUDNAN_clean_linker_2, # of connection points: 2
#     Edge 37, Type (0, 0), BuildingBlock: XUDNAN_clean_linker_2, # of connection points: 2
#     Edge 38, Type (0, 0), BuildingBlock: XUDNAN_clean_linker_2, # of connection points: 2
#     Edge 39, Type (0, 0), BuildingBlock: XUDNAN_clean_linker_2, # of connection points: 2
#     Edge 40, Type (0, 0), BuildingBlock: XUDNAN_clean_linker_2, # of connection points: 2
#     Edge 41, Type (0, 0), BuildingBlock: XUDNAN_clean_linker_2, # of connection points: 2
# Relax obj value: 0.122
# Max RMSD: 0.141
# Mean RMSD: 0.141
data_MOF--net-wju--node1-BEQFEK_clean_sbu_0--edge1-XUDNAN_clean_linker_2
_symmetry_space_group_name_H-M    P1
_symmetry_Int_Tables_number       1
_symmetry_cell_setting            triclinic
loop_
_symmetry_equiv_pos_as_xyz
'x, y, z'
_cell_length_a     26.910021
_cell_length_b     26.89446
_cell_length_c     111.18211
_cell_angle_alpha  89.915149
_cell_angle_beta   89.98001
_cell_angle_gamma 119.95959
loop_
_atom_site_label
_atom_site_type_symbol
_atom_site_fract_x
_atom_site_fract_y
_atom_site_fract_z
_atom_type_partial_charge
Co0 Co 0.30433 0.18068 0.1154 0.0
Co1 Co 0.31336 0.17346 0.08703 0.0
C2 C 0.20244 0.14384 0.09975 0.0
O3 O 0.22369 0.15155 0.11027 0.0
O4 O 0.23343 0.15328 0.09044 0.0
C5 C 0.27596 0.14446 0.14078 0.0
O6 O 0.2405 0.09288 0.13666 0.0
C7 C 0.27412 0.10702 0.06458 0.0
C8 C 0.34766 0.15347 0.05229 0.0
C9 C 0.29373 0.10502 0.0531 0.0
N10 N 0.31502 0.15354 0.07035 0.0
N11 N 0.35857 0.18157 0.06287 0.0
C12 C 0.21671 0.06681 0.06998 0.0
H13 H 0.19358 0.09061 0.07149 0.0
H14 H 0.22241 0.05141 0.07886 0.0
H15 H 0.1896 0.03003 0.06407 0.0
C16 C 0.35155 0.10139 0.11435 0.0
N17 N 0.33138 0.13295 0.10909 0.0
N18 N 0.33409 0.12914 0.09729 0.0
C19 C 0.35491 0.09394 0.09474 0.0
C20 C 0.36658 0.07527 0.10546 0.0
C21 C 0.36165 0.10065 0.12757 0.0
H22 H 0.37391 0.14293 0.13157 0.0
H23 H 0.32173 0.06727 0.13192 0.0
H24 H 0.39612 0.09039 0.12936 0.0
O25 O 0.35747 0.25965 0.10966 0.0
O26 O 0.36751 0.25756 0.08981 0.0
H27 H 0.39004 0.11548 0.07696 0.0
H28 H 0.37798 0.04661 0.08219 0.0
C29 C 0.36116 0.0767 0.08227 0.0
H30 H 0.31861 0.05481 0.07789 0.0
H31 H 0.39639 0.21905 0.06509 0.0
O32 O 0.30607 0.1849 0.13344 0.0
C33 C 0.38019 0.28485 0.09976 0.0
Co34 Co 0.12701 0.31419 0.4473 0.0
Co35 Co 0.13105 0.30645 0.41893 0.0
C36 C 0.08898 0.20249 0.43508 0.0
O37 O 0.09912 0.23282 0.44448 0.0
O38 O 0.09673 0.22466 0.42462 0.0
C39 C 0.10967 0.28741 0.47267 0.0
O40 O 0.07152 0.23623 0.46879 0.0
C41 C 0.16907 0.27485 0.39699 0.0
C42 C 0.16111 0.32867 0.38298 0.0
C43 C 0.17872 0.28884 0.38485 0.0
N44 N 0.14764 0.30558 0.40208 0.0
N45 N 0.14245 0.33728 0.39362 0.0
C46 C 0.17677 0.23063 0.40364 0.0
H47 H 0.13397 0.19224 0.40511 0.0
H48 H 0.19587 0.24724 0.41261 0.0
H49 H 0.20331 0.21691 0.39858 0.0
C50 C 0.25099 0.38607 0.44393 0.0
N51 N 0.19786 0.35625 0.43935 0.0
N52 N 0.20093 0.35364 0.42756 0.0
C53 C 0.25679 0.38285 0.42429 0.0
C54 C 0.29018 0.40361 0.43459 0.0
C55 C 0.26378 0.39508 0.45711 0.0
H56 H 0.23908 0.41371 0.46117 0.0
H57 H 0.24988 0.35305 0.4615 0.0
H58 H 0.3101 0.42434 0.45884 0.0
O59 O 0.0728 0.33764 0.44134 0.0
O60 O 0.07748 0.3381 0.42133 0.0
H61 H 0.25156 0.39495 0.40536 0.0
H62 H 0.32356 0.42102 0.41077 0.0
C63 C 0.27824 0.38655 0.41171 0.0
H64 H 0.27553 0.34532 0.4093 0.0
H65 H 0.12724 0.36561 0.39515 0.0
O66 O 0.13724 0.32738 0.46506 0.0
C67 C 0.05799 0.34704 0.43108 0.0
Co68 Co 0.8116 0.1346 0.77953 0.0
Co69 Co 0.81259 0.14695 0.7512 0.0
C70 C 0.84826 0.06973 0.76416 0.0
O71 O 0.84053 0.08264 0.77474 0.0
O72 O 0.83715 0.09054 0.75493 0.0
C73 C 0.81998 0.11276 0.80522 0.0
O74 O 0.8248 0.06873 0.80171 0.0
C75 C 0.88167 0.18165 0.72931 0.0
C76 C 0.82369 0.1831 0.71546 0.0
C77 C 0.8791 0.19365 0.71725 0.0
N78 N 0.83049 0.1653 0.73444 0.0
N79 N 0.79575 0.16569 0.72608 0.0
C80 C 0.9311 0.18301 0.73581 0.0
H81 H 0.92757 0.18783 0.74563 0.0
H82 H 0.97272 0.2181 0.73246 0.0
H83 H 0.93019 0.14185 0.73422 0.0
C84 C 0.89324 0.25834 0.77755 0.0
N85 N 0.85804 0.20724 0.77247 0.0
N86 N 0.85651 0.21383 0.76076 0.0
C87 C 0.89001 0.26998 0.75806 0.0
C88 C 0.91481 0.2997 0.76861 0.0
C89 C 0.90266 0.26745 0.79083 0.0
H90 H 0.86125 0.25566 0.79525 0.0
H91 H 0.91787 0.23889 0.79444 0.0
H92 H 0.93395 0.31263 0.7931 0.0
O93 O 0.73133 0.10689 0.77446 0.0
O94 O 0.72894 0.11509 0.75456 0.0
H95 H 0.85934 0.27151 0.7403 0.0
H96 H 0.91383 0.34084 0.74567 0.0
C97 C 0.89939 0.29442 0.74561 0.0
H98 H 0.93332 0.28919 0.74116 0.0
H99 H 0.75333 0.15504 0.72766 0.0
O100 O 0.81401 0.14386 0.79737 0.0
C101 C 0.70385 0.10196 0.76478 0.0
Co102 Co 0.68734 0.80939 0.11392 0.0
Co103 Co 0.67283 0.81046 0.08571 0.0
C104 C 0.78857 0.87462 0.0986 0.0
O105 O 0.76832 0.86056 0.10919 0.0
O106 O 0.75594 0.8563 0.08945 0.0
C107 C 0.71759 0.84291 0.13901 0.0
O108 O 0.76327 0.88765 0.13454 0.0
C109 C 0.69807 0.88141 0.06437 0.0
C110 C 0.66132 0.8194 0.04948 0.0
C111 C 0.69473 0.87765 0.05188 0.0
N112 N 0.66928 0.82821 0.06906 0.0
N113 N 0.64686 0.79125 0.06011 0.0
C114 C 0.72651 0.93464 0.0719 0.0
H115 H 0.70666 0.92641 0.08095 0.0
H116 H 0.72356 0.97008 0.06746 0.0
H117 H 0.77233 0.94816 0.07312 0.0
C118 C 0.60814 0.85571 0.11284 0.0
N119 N 0.64007 0.83651 0.10743 0.0
N120 N 0.6322 0.83519 0.09571 0.0
C121 C 0.59444 0.85294 0.09332 0.0
C122 C 0.57815 0.86666 0.10409 0.0
C123 C 0.60853 0.86552 0.1261 0.0
H124 H 0.65349 0.89092 0.12925 0.0
H125 H 0.58554 0.88879 0.12844 0.0
H126 H 0.58818 0.82356 0.13083 0.0
O127 O 0.65843 0.72964 0.10812 0.0
O128 O 0.64243 0.72648 0.08841 0.0
H129 H 0.52887 0.8497 0.08162 0.0
H130 H 0.60146 0.89471 0.07654 0.0
C131 C 0.57184 0.85356 0.08106 0.0
H132 H 0.56908 0.81789 0.07556 0.0
H133 H 0.62364 0.74679 0.06123 0.0
O134 O 0.68099 0.80561 0.13188 0.0
C135 C 0.6409 0.70155 0.09831 0.0
Co136 Co 0.87347 0.68118 0.44926 0.0
Co137 Co 0.86772 0.68372 0.42072 0.0
C138 C 0.94518 0.78873 0.43495 0.0
O139 O 0.9303 0.76008 0.44467 0.0
O140 O 0.92414 0.76491 0.42492 0.0
C141 C 0.87636 0.72789 0.47221 0.0
O142 O 0.88253 0.76987 0.46517 0.0
C143 C 0.83751 0.7234 0.39894 0.0
C144 C 0.84113 0.66863 0.38462 0.0
C145 C 0.83056 0.71357 0.38656 0.0
N146 N 0.8517 0.68652 0.40392 0.0
N147 N 0.85395 0.65395 0.3953 0.0
C148 C 0.82757 0.76438 0.40624 0.0
H149 H 0.82009 0.75099 0.41582 0.0
H150 H 0.79019 0.76677 0.40274 0.0
H151 H 0.86623 0.80767 0.40579 0.0
C152 C 0.74931 0.63399 0.44653 0.0
N153 N 0.80247 0.65937 0.44185 0.0
N154 N 0.79912 0.65759 0.43001 0.0
C155 C 0.74331 0.63015 0.42681 0.0
C156 C 0.71001 0.61451 0.43718 0.0
C157 C 0.73679 0.62546 0.45973 0.0
H158 H 0.76103 0.6673 0.46438 0.0
H159 H 0.69044 0.60725 0.46165 0.0
H160 H 0.75146 0.59651 0.46335 0.0
O161 O 0.89735 0.62624 0.44382 0.0
O162 O 0.89824 0.62949 0.42374 0.0
H163 H 0.67751 0.57533 0.41412 0.0
H164 H 0.72386 0.64812 0.40927 0.0
C165 C 0.72231 0.6116 0.41424 0.0
H166 H 0.75022 0.59839 0.40956 0.0
H167 H 0.86413 0.62169 0.39671 0.0
O168 O 0.86847 0.68146 0.46742 0.0
C169 C 0.9055 0.60955 0.43364 0.0
Co170 Co 0.1797 0.88579 0.78054 0.0
Co171 Co 0.17832 0.86801 0.75228 0.0
C172 C 0.11568 0.92194 0.76455 0.0
O173 O 0.12824 0.91477 0.77521 0.0
O174 O 0.13451 0.90765 0.75547 0.0
C175 C 0.14375 0.86967 0.8061 0.0
O176 O 0.09062 0.84126 0.80221 0.0
C177 C 0.11406 0.82686 0.72964 0.0
C178 C 0.17817 0.8297 0.71689 0.0
C179 C 0.12176 0.8173 0.71773 0.0
N180 N 0.16348 0.84425 0.73565 0.0
N181 N 0.20162 0.84551 0.72795 0.0
C182 C 0.05939 0.81701 0.73527 0.0
H183 H 0.06061 0.81278 0.74517 0.0
H184 H 0.02255 0.77762 0.7315 0.0
H185 H 0.0528 0.85348 0.73306 0.0
C186 C 0.13712 0.7597 0.77982 0.0
N187 N 0.15377 0.81062 0.77444 0.0
N188 N 0.15215 0.8036 0.76267 0.0
C189 C 0.13337 0.74801 0.76024 0.0
C190 C 0.12321 0.71856 0.77099 0.0
C191 C 0.13431 0.75049 0.79314 0.0
H192 H 0.09537 0.74954 0.79669 0.0
H193 H 0.13182 0.70924 0.79549 0.0
H194 H 0.17252 0.78621 0.79748 0.0
O195 O 0.25904 0.936 0.77461 0.0
O196 O 0.26218 0.92073 0.75504 0.0
H197 H 0.11951 0.6792 0.74809 0.0
H198 H 0.09305 0.72548 0.743 0.0
C199 C 0.12835 0.72414 0.74786 0.0
H200 H 0.16879 0.75087 0.74285 0.0
H201 H 0.24395 0.85814 0.7302 0.0
O202 O 0.18498 0.88988 0.79857 0.0
C203 C 0.2871 0.94525 0.76482 0.0
Co204 Co 0.8234 0.68876 0.58358 0.0
Co205 Co 0.81727 0.67534 0.6121 0.0
C206 C 0.85466 0.78846 0.59989 0.0
O207 O 0.85012 0.76818 0.58935 0.0
O208 O 0.84154 0.75647 0.60913 0.0
C209 C 0.87592 0.73667 0.561 0.0
O210 O 0.91164 0.77773 0.56819 0.0
C211 C 0.86935 0.70832 0.63611 0.0
C212 C 0.81825 0.63027 0.64699 0.0
C213 C 0.86467 0.68555 0.64753 0.0
N214 N 0.82773 0.66849 0.6291 0.0
N215 N 0.79701 0.62203 0.63571 0.0
C216 C 0.91611 0.76504 0.63163 0.0
H217 H 0.92537 0.76182 0.62203 0.0
H218 H 0.9558 0.77999 0.63701 0.0
H219 H 0.90195 0.79716 0.63246 0.0
C220 C 0.89272 0.6325 0.58661 0.0
N221 N 0.86568 0.65898 0.59119 0.0
N222 N 0.86381 0.65417 0.60301 0.0
C223 C 0.89047 0.62526 0.60629 0.0
C224 C 0.90895 0.61001 0.59604 0.0
C225 C 0.89539 0.6221 0.57346 0.0
H226 H 0.85191 0.60369 0.5695 0.0
H227 H 0.9235 0.66367 0.56892 0.0
H228 H 0.91232 0.59264 0.57179 0.0
O229 O 0.74141 0.63612 0.58741 0.0
O230 O 0.73528 0.62465 0.60734 0.0
H231 H 0.8518 0.57835 0.62242 0.0
H232 H 0.92292 0.58973 0.61964 0.0
C233 C 0.89516 0.60923 0.61897 0.0
H234 H 0.91391 0.64809 0.62468 0.0
H235 H 0.76233 0.58424 0.63245 0.0
O236 O 0.834 0.69207 0.56561 0.0
C237 C 0.71213 0.61327 0.59692 0.0
Co238 Co 0.13181 0.81756 0.91755 0.0
Co239 Co 0.13005 0.81641 0.94615 0.0
C240 C 0.05707 0.85006 0.93187 0.0
O241 O 0.07539 0.84049 0.92209 0.0
O242 O 0.07416 0.84255 0.94205 0.0
C243 C 0.15356 0.8745 0.89464 0.0
O244 O 0.16195 0.91804 0.9014 0.0
C245 C 0.14727 0.86145 0.97152 0.0
C246 C 0.16496 0.79904 0.98066 0.0
C247 C 0.1615 0.84807 0.98266 0.0
N248 N 0.14365 0.82258 0.96334 0.0
N249 N 0.15396 0.78534 0.96896 0.0
C250 C 0.13536 0.90908 0.96883 0.0
H251 H 0.10803 0.89916 0.96078 0.0
H252 H 0.17628 0.94925 0.96707 0.0
H253 H 0.11402 0.91647 0.97662 0.0
C254 C 0.25551 0.8982 0.92203 0.0
N255 N 0.20144 0.86361 0.92592 0.0
N256 N 0.20089 0.86367 0.93779 0.0
C257 C 0.25475 0.89891 0.94177 0.0
C258 C 0.29076 0.92213 0.93191 0.0
C259 C 0.27428 0.90487 0.90917 0.0
H260 H 0.2477 0.86439 0.9042 0.0
H261 H 0.26959 0.93969 0.90496 0.0
H262 H 0.32004 0.91663 0.90851 0.0
O263 O 0.10492 0.7369 0.92159 0.0
O264 O 0.10038 0.73306 0.94157 0.0
H265 H 0.25967 0.87118 0.95955 0.0
H266 H 0.31753 0.94221 0.95591 0.0
C267 C 0.27113 0.91162 0.95473 0.0
H268 H 0.24703 0.93071 0.9588 0.0
H269 H 0.15423 0.75082 0.96475 0.0
O270 O 0.14104 0.82699 0.89961 0.0
C271 C 0.0945 0.70874 0.93138 0.0
Co272 Co 0.29679 0.11394 0.25215 0.0
Co273 Co 0.312 0.11909 0.28044 0.0
C274 C 0.19686 0.07667 0.26862 0.0
O275 O 0.217 0.08493 0.25798 0.0
O276 O 0.22912 0.08695 0.27772 0.0
C277 C 0.27273 0.14804 0.22936 0.0
O278 O 0.25006 0.17108 0.23628 0.0
C279 C 0.30081 0.1585 0.30447 0.0
C280 C 0.3524 0.13381 0.31577 0.0
C281 C 0.31854 0.15934 0.3163 0.0
N282 N 0.32309 0.13368 0.29744 0.0
N283 N 0.35369 0.11883 0.30427 0.0
C284 C 0.26643 0.18385 0.29964 0.0
H285 H 0.2203 0.15401 0.30142 0.0
H286 H 0.27252 0.19042 0.28977 0.0
H287 H 0.27908 0.22539 0.3041 0.0
C288 C 0.38484 0.23797 0.25499 0.0
N289 N 0.34829 0.18566 0.25956 0.0
N290 N 0.35383 0.18766 0.27138 0.0
C291 C 0.39337 0.24132 0.27465 0.0
C292 C 0.41388 0.27472 0.26441 0.0
C293 C 0.39224 0.25259 0.24188 0.0
H294 H 0.35639 0.25858 0.23881 0.0
H295 H 0.43292 0.29292 0.24006 0.0
H296 H 0.39168 0.21722 0.23666 0.0
O297 O 0.3248 0.05979 0.25583 0.0
O298 O 0.33892 0.06486 0.27562 0.0
H299 H 0.45549 0.30093 0.28733 0.0
H300 H 0.38208 0.2653 0.29231 0.0
C301 C 0.41432 0.25964 0.28722 0.0
H302 H 0.42041 0.22636 0.29176 0.0
H303 H 0.37554 0.09856 0.30108 0.0
O304 O 0.29565 0.12147 0.23419 0.0
C305 C 0.34144 0.04546 0.26531 0.0
Co306 Co 0.18331 0.30365 0.58571 0.0
Co307 Co 0.19218 0.31756 0.61402 0.0
C308 C 0.12281 0.20229 0.60147 0.0
O309 O 0.13455 0.22289 0.59086 0.0
O310 O 0.14364 0.23431 0.61068 0.0
C311 C 0.14732 0.27292 0.56055 0.0
O312 O 0.1112 0.22128 0.5646 0.0
C313 C 0.13939 0.30286 0.63804 0.0
C314 C 0.21432 0.35829 0.64932 0.0
C315 C 0.15528 0.32205 0.64984 0.0
N316 N 0.18671 0.32684 0.63105 0.0
N317 N 0.23136 0.3596 0.63788 0.0
C318 C 0.08025 0.26547 0.63319 0.0
H319 H 0.0799 0.26936 0.62326 0.0
H320 H 0.04988 0.2773 0.63725 0.0
H321 H 0.0657 0.2201 0.63548 0.0
C322 C 0.13018 0.37553 0.58876 0.0
N323 N 0.15783 0.34967 0.59331 0.0
N324 N 0.163 0.35751 0.60505 0.0
C325 C 0.13947 0.38954 0.60826 0.0
C326 C 0.11766 0.40147 0.59808 0.0
C327 C 0.11088 0.37007 0.57597 0.0
H328 H 0.08653 0.32403 0.57346 0.0
H329 H 0.08359 0.38969 0.57449 0.0
H330 H 0.14904 0.39153 0.57002 0.0
O331 O 0.26484 0.33325 0.58974 0.0
O332 O 0.27413 0.34731 0.60949 0.0
H333 H 0.1747 0.41563 0.62599 0.0
H334 H 0.13277 0.44699 0.62076 0.0
C335 C 0.1362 0.40752 0.62082 0.0
H336 H 0.09739 0.37314 0.62529 0.0
H337 H 0.2734 0.38332 0.63472 0.0
O338 O 0.18017 0.31165 0.56791 0.0
C339 C 0.29593 0.35014 0.59915 0.0
Co340 Co 0.86601 0.18578 0.91829 0.0
Co341 Co 0.86927 0.18259 0.94673 0.0
C342 C 0.90532 0.11385 0.93118 0.0
O343 O 0.89388 0.13232 0.92164 0.0
O344 O 0.89998 0.13105 0.94153 0.0
C345 C 0.84888 0.14731 0.89347 0.0
O346 O 0.85146 0.10346 0.89794 0.0
C347 C 0.83654 0.12776 0.9709 0.0
C348 C 0.86923 0.20389 0.98262 0.0
C349 C 0.8424 0.14451 0.9829 0.0
N350 N 0.85882 0.17516 0.96391 0.0
N351 N 0.87775 0.22038 0.97101 0.0
C352 C 0.81401 0.0682 0.96621 0.0
H353 H 0.82067 0.06856 0.95637 0.0
H354 H 0.76737 0.04228 0.96806 0.0
H355 H 0.83536 0.04743 0.97089 0.0
C356 C 0.74439 0.14601 0.92315 0.0
N357 N 0.79761 0.16193 0.92699 0.0
N358 N 0.79809 0.16044 0.93884 0.0
C359 C 0.74481 0.14405 0.9429 0.0
C360 C 0.70921 0.13442 0.93309 0.0
C361 C 0.72754 0.13944 0.91017 0.0
H362 H 0.74225 0.11236 0.90564 0.0
H363 H 0.68049 0.11928 0.90899 0.0
H364 H 0.74916 0.18223 0.90577 0.0
O365 O 0.92254 0.26508 0.92297 0.0
O366 O 0.9236 0.2661 0.94296 0.0
H367 H 0.68743 0.13984 0.95703 0.0
H368 H 0.72557 0.10186 0.95995 0.0
C369 C 0.72904 0.14114 0.95589 0.0
H370 H 0.76286 0.17893 0.96073 0.0
H371 H 0.89775 0.26271 0.96794 0.0
O372 O 0.85308 0.18646 0.90053 0.0
C373 C 0.94043 0.29197 0.93287 0.0
Co374 Co 0.68117 0.85469 0.25277 0.0
Co375 Co 0.66775 0.8509 0.28107 0.0
C376 C 0.78143 0.92468 0.26835 0.0
O377 O 0.76116 0.90832 0.25783 0.0
O378 O 0.74929 0.90671 0.27762 0.0
C379 C 0.71423 0.87464 0.22729 0.0
O380 O 0.75842 0.92318 0.23085 0.0
C381 C 0.69851 0.82999 0.30522 0.0
C382 C 0.63516 0.83583 0.31685 0.0
C383 C 0.68196 0.8275 0.31711 0.0
N384 N 0.66278 0.83875 0.2982 0.0
N385 N 0.62481 0.8419 0.30523 0.0
C386 C 0.75035 0.82895 0.30069 0.0
H387 H 0.74752 0.82164 0.29083 0.0
H388 H 0.75496 0.79497 0.30535 0.0
H389 H 0.78911 0.87078 0.30269 0.0
C390 C 0.63935 0.73178 0.25671 0.0
N391 N 0.65429 0.7842 0.26094 0.0
N392 N 0.64696 0.78146 0.2727 0.0
C393 C 0.62641 0.72667 0.2763 0.0
C394 C 0.62154 0.69364 0.26628 0.0
C395 C 0.63911 0.7184 0.24364 0.0
H396 H 0.61175 0.73159 0.2387 0.0
H397 H 0.68332 0.74353 0.24 0.0
H398 H 0.6224 0.67206 0.24202 0.0
O399 O 0.62831 0.88425 0.25619 0.0
O400 O 0.61634 0.88123 0.27602 0.0
H401 H 0.59187 0.72716 0.29366 0.0
H402 H 0.58758 0.65976 0.28987 0.0
C403 C 0.61406 0.70703 0.28911 0.0
H404 H 0.65509 0.72044 0.29382 0.0
H405 H 0.5926 0.84948 0.30211 0.0
O406 O 0.67827 0.84113 0.23505 0.0
C407 C 0.60508 0.89176 0.26549 0.0
H408 H 0.28917 0.11469 0.02854 0.0
H409 H 0.24378 0.9897 0.05718 0.0
H410 H 0.19993 0.91124 0.04238 0.0
H411 H 0.16362 0.03224 1.00975 0.0
H412 H 0.20317 0.05417 0.99582 0.0
H413 H 0.22835 0.10102 1.00869 0.0
H414 H 0.32658 0.10544 1.00732 0.0
H415 H 0.30183 0.05897 0.9944 0.0
H416 H 0.32897 0.03963 1.00734 0.0
H417 H 0.16275 0.84631 0.02459 0.0
H418 H 0.13872 0.79885 1.00479 0.0
H419 H 0.21225 0.96522 0.9873 0.0
C420 C 0.26943 0.07072 0.03167 0.0
C421 C 0.26752 0.05817 0.04408 0.0
C422 C 0.24302 0.00024 0.04781 0.0
C423 C 0.21856 0.95537 0.03944 0.0
C424 C 0.2198 0.96903 0.02732 0.0
C425 C 0.24504 0.02524 0.02339 0.0
C426 C 0.24286 0.02791 1.00976 0.0
C427 C 0.20738 0.05547 1.00577 0.0
C428 C 0.30367 0.05987 1.00439 0.0
C429 C 0.21255 0.96445 1.00667 0.0
C430 C 0.19944 0.93137 0.01696 0.0
C431 C 0.17258 0.87176 1.01647 0.0
C432 C 0.15915 0.84519 1.00516 0.0
C433 C 0.1724 0.87798 0.99444 0.0
C434 C 0.19952 0.93855 0.99526 0.0
H435 H 0.14418 0.24909 0.36189 0.0
H436 H 0.28129 0.29289 0.38751 0.0
H437 H 0.33197 0.26566 0.37269 0.0
H438 H 0.14407 0.12564 0.34921 0.0
H439 H 0.13015 0.13955 0.33408 0.0
H440 H 0.10498 0.163 0.34666 0.0
H441 H 0.15866 0.26701 0.33839 0.0
H442 H 0.18434 0.2439 0.32582 0.0
H443 H 0.23454 0.30096 0.3354 0.0
H444 H 0.3677 0.23375 0.35517 0.0
H445 H 0.38582 0.198 0.33624 0.0
H446 H 0.22397 0.17162 0.32209 0.0
C447 C 0.1848 0.2527 0.36435 0.0
C448 C 0.20825 0.27166 0.37593 0.0
C449 C 0.2618 0.27668 0.37881 0.0
C450 C 0.29112 0.26185 0.37042 0.0
C451 C 0.26651 0.24243 0.35913 0.0
C452 C 0.21453 0.2377 0.35607 0.0
C453 C 0.19741 0.21502 0.34336 0.0
C454 C 0.1408 0.15737 0.34333 0.0
C455 C 0.19351 0.25937 0.33527 0.0
C456 C 0.24773 0.20752 0.33979 0.0
C457 C 0.28722 0.224 0.349 0.0
C458 C 0.33711 0.22085 0.34788 0.0
C459 C 0.34691 0.20029 0.33707 0.0
C460 C 0.30711 0.18291 0.32745 0.0
C461 C 0.2566 0.18635 0.32895 0.0
H462 H 0.88621 0.15479 0.69482 0.0
H463 H 0.97848 0.29474 0.71986 0.0
H464 H 0.05831 0.34231 0.70533 0.0
H465 H 0.01108 0.15111 0.6836 0.0
H466 H 0.98508 0.13494 0.66836 0.0
H467 H 0.93503 0.112 0.68071 0.0
H468 H 0.88632 0.16486 0.67121 0.0
H469 H 0.93652 0.1883 0.65888 0.0
H470 H 0.92895 0.24024 0.66773 0.0
H471 H 0.12715 0.37539 0.68808 0.0
H472 H 0.18238 0.39118 0.66944 0.0
H473 H 0.04817 0.22742 0.65577 0.0
C474 C 0.92342 0.19535 0.6972 0.0
C475 C 0.9269 0.22078 0.70852 0.0
C476 C 0.97581 0.27402 0.71135 0.0
C477 C 0.02108 0.30151 0.70312 0.0
C478 C 0.0168 0.27517 0.69208 0.0
C479 C 0.96944 0.22315 0.68911 0.0
C480 C 0.97632 0.20394 0.67668 0.0
C481 C 0.97693 0.14713 0.67739 0.0
C482 C 0.92922 0.19906 0.66812 0.0
C483 C 0.0347 0.25345 0.67313 0.0
C484 C 0.05702 0.29411 0.68213 0.0
C485 C 0.11011 0.34379 0.68096 0.0
C486 C 0.14126 0.35225 0.67031 0.0
C487 C 0.11962 0.31129 0.66089 0.0
C488 C 0.06562 0.26089 0.66245 0.0
H489 H 0.74578 0.04037 0.98849 0.0
H490 H 0.90992 0.17081 1.00261 0.0
H491 H 0.89032 0.11631 0.02156 0.0
H492 H 0.66793 0.01351 1.01603 0.0
H493 H 0.6239 0.93728 1.01372 0.0
H494 H 0.65137 0.98496 1.00098 0.0
H495 H 0.69822 0.92802 0.99274 0.0
H496 H 0.67058 0.8799 1.00542 0.0
H497 H 0.74636 0.91709 1.00219 0.0
H498 H 0.85449 0.0479 0.03875 0.0
H499 H 0.80305 0.97152 0.05359 0.0
H500 H 0.65902 0.88599 0.02912 0.0
C501 C 0.77811 0.05675 0.99546 0.0
C502 C 0.82996 0.10939 0.99398 0.0
C503 C 0.87009 0.1305 1.00352 0.0
C504 C 0.85941 0.09978 1.01431 0.0
C505 C 0.80805 0.04814 1.01549 0.0
C506 C 0.76788 0.02673 1.00637 0.0
C507 C 0.71531 0.97099 1.01021 0.0
C508 C 0.66145 0.97708 1.01024 0.0
C509 C 0.70715 0.92104 1.00216 0.0
C510 C 0.73232 0.96464 0.02291 0.0
C511 C 0.78614 0.00959 0.0257 0.0
C512 C 0.81184 0.01304 0.03676 0.0
C513 C 0.78165 0.96971 0.04526 0.0
C514 C 0.72572 0.92382 0.0428 0.0
C515 C 0.70124 0.92102 0.03137 0.0
H516 H 0.69575 0.73694 0.32381 0.0
H517 H 0.72951 0.90501 0.33515 0.0
H518 H 0.77472 0.89608 0.35383 0.0
H519 H 0.65668 0.67248 0.35305 0.0
H520 H 0.68831 0.62771 0.35102 0.0
H521 H 0.66241 0.64899 0.33819 0.0
H522 H 0.7623 0.69188 0.3281 0.0
H523 H 0.78849 0.67063 0.3409 0.0
H524 H 0.8249 0.74452 0.33607 0.0
H525 H 0.81844 0.8697 0.37094 0.0
H526 H 0.84967 0.82513 0.38616 0.0
H527 H 0.77879 0.66941 0.36483 0.0
C528 C 0.71344 0.77204 0.33019 0.0
C529 C 0.71022 0.82213 0.32804 0.0
C530 C 0.73219 0.86661 0.33666 0.0
C531 C 0.75798 0.86192 0.34725 0.0
C532 C 0.76052 0.81196 0.34915 0.0
C533 C 0.73833 0.76751 0.34093 0.0
C534 C 0.74365 0.71716 0.3455 0.0
C535 C 0.68422 0.66342 0.34703 0.0
C536 C 0.78213 0.70537 0.33715 0.0
C537 C 0.7722 0.74022 0.35757 0.0
C538 C 0.78219 0.79523 0.35941 0.0
C539 C 0.80959 0.8261 0.36972 0.0
C540 C 0.82636 0.7998 0.37848 0.0
C541 C 0.81438 0.74243 0.3771 0.0
C542 C 0.78776 0.7129 0.36634 0.0
H543 H 0.076 0.72554 0.70222 0.0
H544 H 0.07792 0.88384 0.71053 0.0
H545 H 0.01281 0.86768 0.69341 0.0
H546 H 0.07069 0.73352 0.66996 0.0
H547 H 0.02153 0.6579 0.66798 0.0
H548 H 0.0694 0.68252 0.68069 0.0
H549 H 0.9828 0.63038 0.69515 0.0
H550 H 0.93467 0.60554 0.68249 0.0
H551 H 0.92482 0.64562 0.69431 0.0
H552 H 0.95163 0.83686 0.67481 0.0
H553 H 0.89077 0.78876 0.6571 0.0
H554 H 0.92112 0.64608 0.66173 0.0
C555 C 0.06257 0.75663 0.70038 0.0
C556 C 0.08185 0.80602 0.70761 0.0
C557 C 0.06323 0.84566 0.70508 0.0
C558 C 0.0265 0.83692 0.69537 0.0
C559 C 0.00804 0.78779 0.68839 0.0
C560 C 0.02473 0.74783 0.69086 0.0
C561 C 0.99681 0.69764 0.68219 0.0
C562 C 0.04233 0.69263 0.67477 0.0
C563 C 0.95744 0.64147 0.68894 0.0
C564 C 0.96242 0.71595 0.6744 0.0
C565 C 0.97012 0.76846 0.67805 0.0
C566 C 0.94481 0.79547 0.67195 0.0
C567 C 0.91053 0.76802 0.66189 0.0
C568 C 0.90116 0.71378 0.65814 0.0
C569 C 0.92715 0.68729 0.66453 0.0
H570 H 0.58372 0.9605 0.09351 0.0
H571 H 0.48388 0.82246 0.11858 0.0
H572 H 0.4184 0.8611 0.12183 0.0
H573 H 0.57399 0.07038 0.10969 0.0
H574 H 0.56881 0.10575 0.09636 0.0
H575 H 0.60662 0.0663 0.09583 0.0
H576 H 0.5419 0.00483 0.07825 0.0
H577 H 0.50396 0.04419 0.0787 0.0
H578 H 0.46506 0.96711 0.08008 0.0
H579 H 0.36403 0.91487 0.1222 0.0
H580 H 0.32473 0.98021 0.11969 0.0
H581 H 0.4629 0.08497 0.09503 0.0
C582 C 0.54776 0.93834 0.09961 0.0
C583 C 0.53842 0.88874 0.10582 0.0
C584 C 0.49153 0.86084 0.11382 0.0
C585 C 0.45424 0.88235 0.11569 0.0
C586 C 0.46483 0.9318 0.1095 0.0
C587 C 0.51049 0.95949 0.10163 0.0
C588 C 0.513 0.01235 0.09624 0.0
C589 C 0.56893 0.06691 0.09974 0.0
C590 C 0.50552 0.00676 0.0825 0.0
C591 C 0.46157 0.01007 0.10229 0.0
C592 C 0.43419 0.96319 0.10986 0.0
C593 C 0.38516 0.95178 0.11631 0.0
C594 C 0.36332 0.98909 0.11488 0.0
C595 C 0.39065 0.03702 0.1071 0.0
C596 C 0.44075 0.04797 0.10088 0.0
H597 H 0.37809 0.50321 0.42525 0.0
H598 H 0.34113 0.3535 0.44657 0.0
H599 H 0.44496 0.39097 0.4494 0.0
H600 H 0.50482 0.51626 0.41024 0.0
H601 H 0.54275 0.5936 0.41044 0.0
H602 H 0.46551 0.55432 0.40985 0.0
H603 H 0.46142 0.60732 0.42895 0.0
H604 H 0.53858 0.64655 0.42963 0.0
H605 H 0.49755 0.60507 0.44242 0.0
H606 H 0.55148 0.4451 0.45034 0.0
H607 H 0.65586 0.51252 0.44901 0.0
H608 H 0.62471 0.62722 0.42696 0.0
C609 C 0.3922 0.47827 0.43039 0.0
C610 C 0.35223 0.42568 0.43572 0.0
C611 C 0.37158 0.39411 0.44249 0.0
C612 C 0.43024 0.41493 0.44412 0.0
C613 C 0.46878 0.46721 0.43884 0.0
C614 C 0.45075 0.49841 0.43206 0.0
C615 C 0.50129 0.5537 0.42751 0.0
C616 C 0.50373 0.55449 0.41369 0.0
C617 C 0.49959 0.60626 0.43243 0.0
C618 C 0.5504 0.5489 0.4329 0.0
C619 C 0.53059 0.4986 0.43939 0.0
C620 C 0.5676 0.48466 0.44531 0.0
C621 C 0.6266 0.52323 0.44457 0.0
C622 C 0.64771 0.575 0.43802 0.0
C623 C 0.60924 0.58785 0.43206 0.0
H624 H 0.01975 0.63279 0.76379 0.0
H625 H 0.17736 0.66646 0.78126 0.0
H626 H 0.14103 0.56172 0.78268 0.0
H627 H 0.92455 0.50666 0.78124 0.0
H628 H 0.87837 0.4705 0.76864 0.0
H629 H 0.91685 0.54772 0.76929 0.0
H630 H 0.96174 0.55189 0.74841 0.0
H631 H 0.92377 0.47467 0.74773 0.0
H632 H 0.0007 0.51423 0.74613 0.0
H633 H 0.08851 0.45372 0.78137 0.0
H634 H 0.02168 0.34976 0.77832 0.0
H635 H 0.89741 0.38781 0.76241 0.0
C636 C 0.0462 0.61778 0.76799 0.0
C637 C 0.10089 0.65678 0.77251 0.0
C638 C 0.13497 0.63652 0.77789 0.0
C639 C 0.11481 0.57743 0.77868 0.0
C640 C 0.06058 0.53978 0.77406 0.0
C641 C 0.02659 0.55916 0.76891 0.0
C642 C 0.97006 0.51003 0.76461 0.0
C643 C 0.91948 0.50866 0.77135 0.0
C644 C 0.96373 0.5129 0.75091 0.0
C645 C 0.97757 0.45987 0.76808 0.0
C646 C 0.03015 0.47785 0.77347 0.0
C647 C 0.04711 0.43913 0.77723 0.0
C648 C 0.00909 0.38044 0.77547 0.0
C649 C 0.95499 0.36146 0.77008 0.0
C650 C 0.93901 0.40159 0.7664 0.0
H651 H 0.13199 0.50015 0.58792 0.0
H652 H 0.01147 0.34832 0.6077 0.0
H653 H 0.9406 0.38137 0.60741 0.0
H654 H 0.10133 0.59625 0.60351 0.0
H655 H 0.10909 0.64019 0.59059 0.0
H656 H 0.14793 0.60184 0.59129 0.0
H657 H 0.10345 0.55299 0.57093 0.0
H658 H 0.06415 0.59102 0.57021 0.0
H659 H 0.02655 0.51381 0.56926 0.0
H660 H 0.88533 0.43178 0.60577 0.0
H661 H 0.85082 0.50117 0.60443 0.0
H662 H 0.00811 0.62285 0.5864 0.0
C663 C 0.09036 0.47393 0.59206 0.0
C664 C 0.0764 0.42187 0.5978 0.0
C665 C 0.02228 0.38844 0.60329 0.0
C666 C 0.98187 0.40662 0.60309 0.0
C667 C 0.99673 0.45835 0.59738 0.0
C668 C 0.04975 0.49186 0.59205 0.0
C669 C 0.05627 0.54774 0.58738 0.0
C670 C 0.10663 0.59955 0.59357 0.0
C671 C 0.06299 0.55159 0.57363 0.0
C672 C -0.00086 0.54088 0.59117 0.0
C673 C 0.96515 0.48848 0.59672 0.0
C674 C 0.91134 0.47282 0.6014 0.0
C675 C 0.89222 0.51238 0.60064 0.0
C676 C 0.92722 0.56697 0.59539 0.0
C677 C 0.9807 0.58103 0.59037 0.0
H678 H 0.62283 0.03936 0.94385 0.0
H679 H 0.65771 0.18717 0.92211 0.0
H680 H 0.55353 0.15132 0.92039 0.0
H681 H 0.50354 0.93852 0.9276 0.0
H682 H 0.4634 0.89697 0.94046 0.0
H683 H 0.54053 0.93688 0.94098 0.0
H684 H 0.53681 0.98997 0.9601 0.0
H685 H 0.45954 0.94988 0.95969 0.0
H686 H 0.49668 0.02721 0.95985 0.0
H687 H 0.4465 0.09568 0.91963 0.0
H688 H 0.34259 0.02507 0.9205 0.0
H689 H 0.37719 0.91348 0.94277 0.0
C690 C 0.6083 0.0646 0.93897 0.0
C691 C 0.64765 0.11585 0.9331 0.0
C692 C 0.62769 0.14762 0.9266 0.0
C693 C 0.56884 0.12772 0.92562 0.0
C694 C 0.53084 0.07623 0.93127 0.0
C695 C 0.54968 0.04527 0.93789 0.0
C696 C 0.49983 0.98978 0.94254 0.0
C697 C 0.50198 0.93746 0.9376 0.0
C698 C 0.49813 0.9892 0.95637 0.0
C699 C 0.45011 0.99383 0.93729 0.0
C700 C 0.46894 0.0442 0.93088 0.0
C701 C 0.43115 0.05645 0.92475 0.0
C702 C 0.37246 0.01616 0.92524 0.0
C703 C 0.35246 0.96459 0.9318 0.0
C704 C 0.39168 0.95329 0.9379 0.0
H705 H 0.39876 0.35998 0.27313 0.0
H706 H 0.52089 0.32726 0.25451 0.0
H707 H 0.59015 0.43195 0.25376 0.0
H708 H 0.42769 0.48474 0.25634 0.0
H709 H 0.41862 0.5213 0.26899 0.0
H710 H 0.38061 0.44409 0.26853 0.0
H711 H 0.42417 0.44147 0.28917 0.0
H712 H 0.46258 0.51877 0.28966 0.0
H713 H 0.50096 0.48005 0.29104 0.0
H714 H 0.64491 0.53986 0.25497 0.0
H715 H 0.67973 0.64386 0.25708 0.0
H716 H 0.51936 0.60516 0.27406 0.0
C717 C 0.44027 0.37517 0.26895 0.0
C718 C 0.45508 0.33649 0.26385 0.0
C719 C 0.50926 0.35699 0.25838 0.0
C720 C 0.54868 0.41604 0.25798 0.0
C721 C 0.53276 0.45342 0.26306 0.0
C722 C 0.47971 0.43381 0.26838 0.0
C723 C 0.47211 0.48284 0.27273 0.0
C724 C 0.42179 0.48326 0.26626 0.0
C725 C 0.46452 0.48063 0.28646 0.0
C726 C 0.52904 0.53322 0.26896 0.0
C727 C 0.56369 0.51539 0.26352 0.0
C728 C 0.6182 0.55432 0.25922 0.0
C729 C 0.63753 0.61305 0.26043 0.0
C730 C 0.60218 0.63192 0.26578 0.0
C731 C 0.54744 0.59156 0.27012 0.0
H732 H 0.26168 0.07351 0.21127 0.0
H733 H 0.29175 0.24522 0.21789 0.0
H734 H 0.29919 0.26392 0.19599 0.0
H735 H 0.35387 0.10575 0.18527 0.0
H736 H 0.3052 0.04097 0.17736 0.0
H737 H 0.30553 0.042 0.19357 0.0
H738 H 0.19682 0.00759 0.19369 0.0
H739 H 0.19614 0.00638 0.17749 0.0
H740 H 0.1708 0.04777 0.18545 0.0
H741 H 0.30664 0.26516 0.17347 0.0
H742 H 0.30284 0.24548 0.15169 0.0
H743 H 0.25865 0.06994 0.15941 0.0
C744 C 0.27019 0.1151 0.20807 0.0
C745 C 0.27664 0.15818 0.21623 0.0
C746 C 0.28666 0.21171 0.21176 0.0
C747 C 0.29119 0.22278 0.19935 0.0
C748 C 0.28446 0.17944 0.19152 0.0
C749 C 0.27328 0.12634 0.19567 0.0
C750 C 0.26438 0.08618 0.18527 0.0
C751 C 0.30997 0.06765 0.18538 0.0
C752 C 0.20341 0.03389 0.18549 0.0
C753 C 0.27267 0.12511 0.17465 0.0
C754 C 0.28513 0.179 0.17848 0.0
C755 C 0.29641 0.22298 0.17036 0.0
C756 C 0.29434 0.21147 0.15801 0.0
C757 C 0.27999 0.15612 0.15387 0.0
C758 C 0.26904 0.11246 0.16233 0.0
H759 H 0.0627 0.20914 0.49106 0.0
H760 H 0.18499 0.38838 0.48383 0.0
H761 H 0.20718 0.40434 0.50553 0.0
H762 H 0.00915 0.23086 0.5192 0.0
H763 H 0.00248 0.16705 0.52607 0.0
H764 H 0.99547 0.17014 0.51001 0.0
H765 H 0.07602 0.14527 0.50687 0.0
H766 H 0.08337 0.14224 0.52292 0.0
H767 H 0.14485 0.18914 0.51388 0.0
H768 H 0.21697 0.40036 0.52802 0.0
H769 H 0.21358 0.37702 0.54958 0.0
H770 H 0.08525 0.20009 0.5421 0.0
C771 C 0.09394 0.25188 0.49402 0.0
C772 C 0.12196 0.29758 0.48572 0.0
C773 C 0.16283 0.35272 0.49 0.0
C774 C 0.17575 0.3622 0.50231 0.0
C775 C 0.14752 0.31613 0.51024 0.0
C776 C 0.10744 0.26206 0.50626 0.0
C777 C 0.08378 0.21965 0.51661 0.0
C778 C 0.01887 0.19552 0.51805 0.0
C779 C 0.09787 0.17123 0.51497 0.0
C780 C 0.11683 0.25828 0.52703 0.0
C781 C 0.15334 0.31377 0.52316 0.0
C782 C 0.1885 0.35706 0.53114 0.0
C783 C 0.1863 0.34331 0.54338 0.0
C784 C 0.14921 0.28667 0.54756 0.0
C785 C 0.11405 0.24378 0.53922 0.0
H786 H 0.83062 0.05477 0.82458 0.0
H787 H 0.81414 0.20273 0.81525 0.0
H788 H 0.81853 0.22704 0.83675 0.0
H789 H 0.74403 0.01619 0.85152 0.0
H790 H 0.78833 0.99484 0.85964 0.0
H791 H 0.78353 0.98881 0.8435 0.0
H792 H 0.89414 0.05101 0.84188 0.0
H793 H 0.89927 0.0572 0.85801 0.0
H794 H 0.93026 0.12092 0.84879 0.0
H795 H 0.82595 0.23611 0.85934 0.0
H796 H 0.83566 0.22885 0.88129 0.0
H797 H 0.84656 0.07471 0.87586 0.0
C798 C 0.82782 0.09223 0.82704 0.0
C799 C 0.82205 0.12681 0.81818 0.0
C800 C 0.81858 0.17551 0.82183 0.0
C801 C 0.821 0.1897 0.83404 0.0
C802 C 0.82676 0.15476 0.84253 0.0
C803 C 0.83005 0.10699 0.8392 0.0
C804 C 0.83641 0.07675 0.8501 0.0
C805 C 0.785 0.01552 0.85125 0.0
C806 C 0.89341 0.07648 0.84967 0.0
C807 C 0.83644 0.11511 0.86007 0.0
C808 C 0.83079 0.15985 0.85553 0.0
C809 C 0.83028 0.20117 0.86301 0.0
C810 C 0.83586 0.19671 0.87547 0.0
C811 C 0.84185 0.15123 0.88033 0.0
C812 C 0.84189 0.10992 0.87247 0.0
H813 H 0.78464 0.91732 0.1568 0.0
H814 H 0.62801 0.75495 0.15112 0.0
H815 H 0.61093 0.74502 0.17303 0.0
H816 H 0.82815 0.87694 0.1841 0.0
H817 H 0.85549 0.94637 0.191 0.0
H818 H 0.85586 0.94047 0.17487 0.0
H819 H 0.79821 0.99364 0.17294 0.0
H820 H 0.79766 -0.00028 0.18906 0.0
H821 H 0.73106 0.96647 0.18084 0.0
H822 H 0.61048 0.75283 0.19556 0.0
H823 H 0.62605 0.77829 0.21706 0.0
H824 H 0.78267 0.93598 0.20815 0.0
C825 C 0.74681 0.87956 0.16015 0.0
C826 C 0.70774 0.83682 0.1522 0.0
C827 C 0.65865 0.78823 0.15699 0.0
C828 C 0.64856 0.78218 0.16944 0.0
C829 C 0.68787 0.82508 0.177 0.0
C830 C 0.73599 0.87287 0.17255 0.0
C831 C 0.77114 0.91305 0.18262 0.0
C832 C 0.83121 0.91957 0.18318 0.0
C833 C 0.7747 0.97168 0.18128 0.0
C834 C 0.73521 0.88043 0.19343 0.0
C835 C 0.68744 0.82974 0.18999 0.0
C836 C 0.64776 0.7924 0.19836 0.0
C837 C 0.65703 0.80728 0.21057 0.0
C838 C 0.70558 0.85917 0.21434 0.0
C839 C 0.74514 0.89602 0.2056 0.0
H840 H 0.82925 0.64856 0.49086 0.0
H841 H 0.93951 0.83001 0.48329 0.0
H842 H 0.95271 0.85028 0.50498 0.0
H843 H 0.7584 0.66954 0.51634 0.0
H844 H 0.7532 0.61016 0.52491 0.0
H845 H 0.75422 0.60844 0.50872 0.0
H846 H 0.84116 0.59204 0.50938 0.0
H847 H 0.8404 0.59371 0.52558 0.0
H848 H 0.90482 0.64187 0.51747 0.0
H849 H 0.95554 0.85213 0.52716 0.0
H850 H 0.94287 0.83638 0.549 0.0
H851 H 0.82643 0.6546 0.54302 0.0
C852 C 0.85647 0.69238 0.49381 0.0
C853 C 0.88359 0.73772 0.48537 0.0
C854 C 0.91816 0.79464 0.48957 0.0
C855 C 0.92615 0.80662 0.50188 0.0
C856 C 0.89872 0.76135 0.50997 0.0
C857 C 0.86414 0.7054 0.50618 0.0
C858 C 0.83777 0.6655 0.51692 0.0
C859 C 0.77199 0.63672 0.51671 0.0
C860 C 0.85721 0.62063 0.51736 0.0
C861 C 0.86317 0.70788 0.52726 0.0
C862 C 0.89862 0.76277 0.52297 0.0
C863 C 0.92775 0.80939 0.53065 0.0
C864 C 0.92033 0.79991 0.54307 0.0
C865 C 0.88354 0.74432 0.54777 0.0
C866 C 0.85458 0.69766 0.53971 0.0
H867 H 0.08925 0.79999 0.87666 0.0
H868 H 0.23781 0.96738 0.88306 0.0
H869 H 0.25363 0.98253 0.86112 0.0
H870 H 0.14155 0.76185 0.8501 0.0
H871 H 0.07327 0.72912 0.84252 0.0
H872 H 0.07599 0.72948 0.85871 0.0
H873 H 0.01456 0.77898 0.85949 0.0
H874 H 0.01165 0.77877 0.84331 0.0
H875 H 0.03815 0.84525 0.85142 0.0
H876 H 0.25466 0.9785 0.83854 0.0
H877 H 0.23502 0.96042 0.81679 0.0
H878 H 0.08021 0.79991 0.82485 0.0
C879 C 0.12539 0.83949 0.8734 0.0
C880 C 0.1628 0.88234 0.8815 0.0
C881 C 0.20885 0.93407 0.87696 0.0
C882 C 0.21826 0.94292 0.86453 0.0
C883 C 0.18048 0.90008 0.85675 0.0
C884 C 0.13445 0.84972 0.86098 0.0
C885 C 0.09809 0.81242 0.85066 0.0
C886 C 0.0972 0.75481 0.85049 0.0
C887 C 0.037 0.80334 0.85126 0.0
C888 C 0.13099 0.84956 0.83998 0.0
C889 C 0.17891 0.89948 0.84371 0.0
C890 C 0.21701 0.9398 0.83551 0.0
C891 C 0.2056 0.92909 0.82318 0.0
C892 C 0.15589 0.87909 0.81915 0.0
C893 C 0.11817 0.83887 0.82769 0.0
H894 H 0.56496 0.61939 0.08235 0.0
H895 H 0.65597 0.6402 0.1159 0.0
H896 H 0.6034 0.53576 0.11889 0.0
H897 H 0.43125 0.51054 0.09232 0.0
H898 H 0.41054 0.46946 0.0786 0.0
H899 H 0.45978 0.54559 0.0781 0.0
H900 H 0.53444 0.52843 0.06699 0.0
H901 H 0.48517 0.45215 0.06735 0.0
H902 H 0.55626 0.48087 0.07349 0.0
H903 H 0.53446 0.43272 0.11979 0.0
H904 H 0.45655 0.33289 0.11778 0.0
H905 H 0.40967 0.37348 0.0833 0.0
C906 C 0.57487 0.60176 0.09015 0.0
C907 C 0.61477 0.63819 0.09889 0.0
C908 C 0.62564 0.61342 0.10909 0.0
C909 C 0.59603 0.55402 0.11087 0.0
C910 C 0.55577 0.51952 0.10233 0.0
C911 C 0.54547 0.54204 0.09208 0.0
C912 C 0.49738 0.49483 0.08473 0.0
C913 C 0.44675 0.50578 0.08336 0.0
C914 C 0.51966 0.48871 0.07241 0.0
C915 C 0.48145 0.4428 0.09264 0.0
C916 C 0.516 0.45848 0.10273 0.0
C917 C 0.50771 0.41962 0.11185 0.0
C918 C 0.463 0.36306 0.11065 0.0
C919 C 0.42714 0.34534 0.10038 0.0
C920 C 0.43692 0.38569 0.09117 0.0
H921 H 0.05991 0.42958 0.41584 0.0
H922 H 0.97106 0.32163 0.44653 0.0
H923 H 0.91712 0.37251 0.44916 0.0
H924 H 0.07952 0.55666 0.42818 0.0
H925 H 0.06797 0.5863 0.41462 0.0
H926 H 0.09383 0.53628 0.41371 0.0
H927 H 0.00889 0.47026 0.39988 0.0
H928 H 0.98307 0.52048 0.40062 0.0
H929 H 0.93651 0.44647 0.40475 0.0
H930 H 0.88342 0.44158 0.45049 0.0
H931 H 0.86507 0.52226 0.44958 0.0
H932 H 0.97241 0.58759 0.41776 0.0
C933 C 0.02757 0.41548 0.42281 0.0
C934 C 0.01917 0.37122 0.43092 0.0
C935 C 0.97791 0.35516 0.4402 0.0
C936 C 0.94703 0.3838 0.44176 0.0
C937 C 0.9577 0.42856 0.43396 0.0
C938 C 0.99634 0.44413 0.42456 0.0
C939 C 0.00243 0.49695 0.41813 0.0
C940 C 0.06463 0.54699 0.4187 0.0
C941 C 0.98146 0.48267 0.40507 0.0
C942 C 0.96255 0.50936 0.42563 0.0
C943 C 0.93723 0.46897 0.43467 0.0
C944 C 0.90212 0.47292 0.44334 0.0
C945 C 0.89235 0.51926 0.44279 0.0
C946 C 0.91716 0.56117 0.43359 0.0
C947 C 0.95227 0.55575 0.42479 0.0
H948 H 0.3686 0.95228 0.74855 0.0
H949 H 0.34908 0.02001 0.78258 0.0
H950 H 0.45346 0.07092 0.78538 0.0
H951 H 0.47763 0.92608 0.75782 0.0
H952 H 0.5182 0.94769 0.74401 0.0
H953 H 0.44209 0.9209 0.74374 0.0
H954 H 0.45874 0.01371 0.73311 0.0
H955 H 0.53498 0.0406 0.73322 0.0
H956 H 0.50651 0.08245 0.73977 0.0
H957 H 0.55638 0.10439 0.78599 0.0
H958 H 0.65627 0.1272 0.78347 0.0
H959 H 0.61425 0.04299 0.74866 0.0
C960 C 0.38648 0.97903 0.75642 0.0
C961 C 0.35042 0.98202 0.76535 0.0
C962 C 0.37554 0.01676 0.77563 0.0
C963 C 0.43492 0.046 0.77731 0.0
C964 C 0.46901 0.04067 0.76859 0.0
C965 C 0.44616 0.00888 0.75825 0.0
C966 C 0.49301 0.0086 0.75064 0.0
C967 C 0.48206 0.94716 0.74896 0.0
C968 C 0.49864 0.03811 0.73846 0.0
C969 C 0.54525 0.04391 0.7585 0.0
C970 C 0.52997 0.06175 0.7688 0.0
C971 C 0.56918 0.09155 0.77788 0.0
C972 C 0.62577 0.10388 0.77639 0.0
C973 C 0.6431 0.087 0.76586 0.0
C974 C 0.60231 0.05699 0.75673 0.0
H975 H 0.6251 0.57495 0.61387 0.0
H976 H 0.66075 0.55131 0.57685 0.0
H977 H 0.56028 0.47573 0.57426 0.0
H978 H 0.52127 0.42486 0.62034 0.0
H979 H 0.47484 0.44133 0.62905 0.0
H980 H 0.55078 0.49162 0.62846 0.0
H981 H 0.53069 0.57117 0.62098 0.0
H982 H 0.45477 0.52128 0.62165 0.0
H983 H 0.48689 0.55853 0.60781 0.0
H984 H 0.45718 0.40467 0.57528 0.0
H985 H 0.35368 0.34774 0.57924 0.0
H986 H 0.38102 0.41773 0.6154 0.0
C987 C 0.61171 0.55358 0.60525 0.0
C988 C 0.65092 0.56906 0.59557 0.0
C989 C 0.63159 0.54055 0.58439 0.0
C990 C 0.57463 0.49717 0.58284 0.0
C991 C 0.53717 0.48286 0.59252 0.0
C992 C 0.55447 0.51047 0.60347 0.0
C993 C 0.5041 0.48891 0.61211 0.0
C994 C 0.51332 0.45996 0.62314 0.0
C995 C 0.49349 0.53789 0.61585 0.0
C996 C 0.45594 0.44538 0.60423 0.0
C997 C 0.47644 0.44222 0.59303 0.0
C998 C 0.44051 0.4066 0.58402 0.0
C999 C 0.38167 0.37439 0.58638 0.0
C1000 C 0.35901 0.37817 0.59763 0.0
C1001 C 0.39699 0.41335 0.60676 0.0
H1002 H 0.03585 0.6196 0.94783 0.0
H1003 H 0.12162 0.66004 0.91312 0.0
H1004 H 0.10007 0.56043 0.9111 0.0
H1005 H 0.07764 0.51414 0.95744 0.0
H1006 H 0.00909 0.46641 0.96422 0.0
H1007 H 0.03506 0.5425 0.96368 0.0
H1008 H 0.94223 0.52376 0.9528 0.0
H1009 H 0.91589 0.44771 0.95338 0.0
H1010 H 0.92107 0.48214 0.93914 0.0
H1011 H 0.06626 0.45728 0.91196 0.0
H1012 H 0.01515 0.35274 0.91506 0.0
H1013 H 0.94844 0.37406 0.94903 0.0
C1014 C 0.05051 0.60745 0.93988 0.0
C1015 C 0.0805 0.6479 0.93064 0.0
C1016 C 0.09828 0.63005 0.9203 0.0
C1017 C 0.08666 0.57352 0.91909 0.0
C1018 C 0.05687 0.53472 0.92826 0.0
C1019 C 0.0385 0.55043 0.93842 0.0
C1020 C 0.00356 0.49847 0.94646 0.0
C1021 C 0.03312 0.50584 0.95868 0.0
C1022 C 0.94204 0.48737 0.94803 0.0
C1023 C 0.0046 0.45134 0.93908 0.0
C1024 C 0.03636 0.47376 0.9287 0.0
C1025 C 0.04164 0.43916 0.92009 0.0
C1026 C 0.01242 0.37976 0.92194 0.0
C1027 C 0.97816 0.35519 0.93231 0.0
C1028 C 0.97529 0.39169 0.94114 0.0
H1029 H 0.56315 0.93896 0.28202 0.0
H1030 H 0.54695 0.88315 0.24487 0.0
H1031 H 0.47219 0.9087 0.24153 0.0
H1032 H 0.41197 0.89237 0.28708 0.0
H1033 H 0.42662 0.95437 0.29591 0.0
H1034 H 0.47696 0.92866 0.2958 0.0
H1035 H 0.55789 0.02896 0.28903 0.0
H1036 H 0.50793 0.05503 0.28923 0.0
H1037 H 0.54797 0.06151 0.27574 0.0
H1038 H 0.40107 0.94137 0.24184 0.0
H1039 H 0.34328 0.98764 0.2453 0.0
H1040 H 0.40571 0.0258 0.28207 0.0
C1041 C 0.54359 0.93186 0.27322 0.0
C1042 C 0.561 0.90891 0.26372 0.0
C1043 C 0.53474 0.90089 0.25228 0.0
C1044 C 0.49184 0.91489 0.2503 0.0
C1045 C 0.47563 0.93728 0.25981 0.0
C1046 C 0.50094 0.94637 0.27101 0.0
C1047 C 0.4776 0.97434 0.27942 0.0
C1048 C 0.44643 0.93508 0.29019 0.0
C1049 C 0.52571 0.03347 0.2836 0.0
C1050 C 0.43573 0.9799 0.27114 0.0
C1051 C 0.43491 0.9575 0.25992 0.0
C1052 C 0.40115 0.95895 0.2506 0.0
C1053 C 0.36838 0.98534 0.25267 0.0
C1054 C 0.36973 0.01041 0.26396 0.0
C1055 C 0.40312 0.00651 0.27338 0.0
H1056 H 0.11722 0.08443 0.11651 0.0
H1057 H 0.14542 0.13975 0.07918 0.0
H1058 H 0.04252 0.07762 0.07509 0.0
H1059 H 0.01711 0.94148 0.11157 0.0
H1060 H 0.97128 0.93272 0.12418 0.0
H1061 H 0.04632 0.98577 0.12474 0.0
H1062 H 0.02144 0.06543 0.12907 0.0
H1063 H 0.94622 0.01243 0.12878 0.0
H1064 H 0.9737 0.07445 0.1191 0.0
H1065 H 0.94129 -9e-05 0.07424 0.0
H1066 H 0.84209 0.9226 0.07734 0.0
H1067 H 0.87514 0.92202 0.11559 0.0
C1068 C 0.10148 0.08477 0.10756 0.0
C1069 C 0.1396 0.11637 0.09811 0.0
C1070 C 0.11729 0.1152 0.08651 0.0
C1071 C 0.05884 0.08011 0.08409 0.0
C1072 C 0.02296 0.04732 0.09343 0.0
C1073 C 0.04289 0.05036 0.10501 0.0
C1074 C 0.99492 0.00934 0.1133 0.0
C1075 C 0.00823 0.96469 0.11877 0.0
C1076 C 0.98339 0.04239 0.12314 0.0
C1077 C 0.9455 0.98178 0.10446 0.0
C1078 C 0.96297 0.0042 0.09305 0.0
C1079 C 0.92655 0.9831 0.08319 0.0
C1080 C 0.87015 0.93901 0.08506 0.0
C1081 C 0.85012 0.91705 0.09677 0.0
C1082 C 0.88875 0.93843 0.10657 0.0
H1083 H 0.03932 0.11353 0.41856 0.0
H1084 H 0.10524 0.15429 0.45505 0.0
H1085 H 0.08534 0.05553 0.45785 0.0
H1086 H 0.92275 0.97366 0.42568 0.0
H1087 H 0.92675 0.9411 0.41182 0.0
H1088 H 0.95005 0.01653 0.41223 0.0
H1089 H 0.04934 0.03969 0.40392 0.0
H1090 H 0.02638 0.96421 0.40361 0.0
H1091 H 0.09018 0.01326 0.41175 0.0
H1092 H 0.05709 0.95361 0.4572 0.0
H1093 H 0.01108 0.84958 0.45395 0.0
H1094 H 0.95971 0.87064 0.41812 0.0
C1095 C 0.04974 0.1016 0.4271 0.0
C1096 C 0.07394 0.14183 0.43657 0.0
C1097 C 0.0864 0.12438 0.44767 0.0
C1098 C 0.07577 0.06841 0.44933 0.0
C1099 C 0.05227 0.02998 0.43985 0.0
C1100 C 0.03857 0.04527 0.429 0.0
C1101 C 0.00972 0.99385 0.42066 0.0
C1102 C 0.9487 0.9805 0.41741 0.0
C1103 C 0.04609 0.00334 0.40931 0.0
C1104 C 0.0087 0.9474 0.42862 0.0
C1105 C 0.03446 0.96973 0.43956 0.0
C1106 C 0.03701 0.9355 0.44866 0.0
C1107 C 0.01076 0.87639 0.44671 0.0
C1108 C 0.98184 0.85184 0.43578 0.0
C1109 C 0.9822 0.88816 0.4265 0.0
H1110 H 0.89855 0.03411 0.78122 0.0
H1111 H 0.86703 0.03193 0.74282 0.0
H1112 H 0.93052 0.99253 0.73907 0.0
H1113 H 0.04408 0.07842 0.77927 0.0
H1114 H 0.04522 0.03379 0.79126 0.0
H1115 H 0.99261 0.0565 0.79136 0.0
H1116 H 0.91066 0.95075 0.79259 0.0
H1117 H 0.96306 0.92766 0.79272 0.0
H1118 H 0.90699 0.8999 0.78157 0.0
H1119 H 0.00616 0.96644 0.73903 0.0
H1120 H 0.08011 0.94056 0.74291 0.0
H1121 H 0.06001 0.95277 0.78139 0.0
C1122 C 0.90378 0.02391 0.77206 0.0
C1123 C 0.87781 0.03635 0.76232 0.0
C1124 C 0.88641 0.02298 0.75045 0.0
C1125 C 0.92256 0.00066 0.74819 0.0
C1126 C 0.94928 0.99116 0.75791 0.0
C1127 C 0.93957 0.0011 0.76963 0.0
C1128 C 0.97533 0.98852 0.77835 0.0
C1129 C 0.01676 0.04254 0.78548 0.0
C1130 C 0.9367 0.93873 0.78681 0.0
C1131 C 0.00749 0.9713 0.76964 0.0
C1132 C 0.99184 0.97352 0.75791 0.0
C1133 C 0.01776 0.96304 0.74819 0.0
C1134 C 0.0598 0.94828 0.75051 0.0
C1135 C 0.07503 0.94311 0.76246 0.0
C1136 C 0.04888 0.95557 0.77215 0.0
H1137 H 0.91512 0.87423 0.58335 0.0
H1138 H 0.85877 0.84462 0.62061 0.0
H1139 H 0.91978 0.94766 0.62479 0.0
H1140 H 0.0577 0.97433 0.58874 0.0
H1141 H 0.06707 0.02018 0.57608 0.0
H1142 H 0.01433 0.94503 0.57546 0.0
H1143 H 0.93476 0.96958 0.57076 0.0
H1144 H 0.98744 0.04492 0.57114 0.0
H1145 H 0.92477 0.01706 0.58062 0.0
H1146 H 0.99503 0.05006 0.62565 0.0
H1147 H 0.07154 0.14987 0.62258 0.0
H1148 H 0.07707 0.11576 0.58456 0.0
C1149 C 0.91436 0.88962 0.5923 0.0
C1150 C 0.88246 0.8512 0.60168 0.0
C1151 C 0.88323 0.87307 0.61331 0.0
C1152 C 0.91772 0.93157 0.61578 0.0
C1153 C 0.95056 0.96783 0.60649 0.0
C1154 C 0.94838 0.94812 0.59492 0.0
C1155 C 0.98974 0.99617 0.58671 0.0
C1156 C 0.03487 0.98312 0.58144 0.0
C1157 C 0.95722 0.00761 0.57672 0.0
C1158 C 0.01645 0.04548 0.59557 0.0
C1159 C 0.99321 0.02797 0.60692 0.0
C1160 C 0.01286 0.06467 0.61676 0.0
C1161 C 0.05665 0.12128 0.61492 0.0
C1162 C 0.08006 0.14096 0.60331 0.0
C1163 C 0.05976 0.10224 0.59353 0.0
H1164 H 0.95761 0.07734 0.94781 0.0
H1165 H 0.88581 0.04537 0.91178 0.0
H1166 H 0.90745 0.96773 0.90925 0.0
H1167 H 0.07472 0.05628 0.94044 0.0
H1168 H 0.07353 0.02158 0.95441 0.0
H1169 H 0.04818 0.07211 0.95394 0.0
H1170 H 0.95081 0.99503 0.96286 0.0
H1171 H 0.97583 0.94411 0.96324 0.0
H1172 H 0.91054 0.92679 0.9554 0.0
H1173 H 0.93975 0.89728 0.90989 0.0
H1174 H 0.98909 0.84223 0.91309 0.0
H1175 H 0.04256 0.91802 0.94854 0.0
C1176 C 0.94614 0.05366 0.93944 0.0
C1177 C 0.92004 0.06775 0.92999 0.0
C1178 C 0.9062 0.03602 0.91913 0.0
C1179 C 0.91783 0.99129 0.91763 0.0
C1180 C 0.94356 0.97855 0.92704 0.0
C1181 C 0.95812 0.00889 0.93771 0.0
C1182 C 0.98919 0.98841 0.946 0.0
C1183 C 0.05001 0.03751 0.94886 0.0
C1184 C 0.95451 0.96202 0.95756 0.0
C1185 C 0.99068 0.94286 0.93817 0.0
C1186 C 0.9632 0.9375 0.92736 0.0
C1187 C 0.96104 0.90064 0.91835 0.0
C1188 C 0.98924 0.86953 0.92026 0.0
C1189 C 0.01948 0.87553 0.93108 0.0
C1190 C 0.01894 0.91167 0.94028 0.0
H1191 H 0.10965 0.03845 0.25185 0.0
H1192 H 0.14528 0.07338 0.28997 0.0
H1193 H 0.04506 0.04748 0.2935 0.0
H1194 H 0.00754 0.08937 0.24914 0.0
H1195 H 0.96101 0.03289 0.23901 0.0
H1196 H 0.03681 0.05762 0.23917 0.0
H1197 H 0.01572 0.95391 0.24319 0.0
H1198 H 0.93996 0.92887 0.24291 0.0
H1199 H 0.97136 0.9145 0.25582 0.0
H1200 H 0.94152 0.01611 0.29318 0.0
H1201 H 0.83801 0.97191 0.28935 0.0
H1202 H 0.86708 0.9542 0.25153 0.0
C1203 C 0.09642 0.04088 0.26093 0.0
C1204 C 0.13565 0.05844 0.27061 0.0
C1205 C 0.11633 0.06037 0.28238 0.0
C1206 C 0.05944 0.046 0.28448 0.0
C1207 C 0.02209 0.02939 0.27475 0.0
C1208 C 0.03942 0.02606 0.26323 0.0
C1209 C 0.98944 0.00342 0.25453 0.0
C1210 C -0.00069 0.04853 0.24489 0.0
C1211 C 0.97848 0.94681 0.24878 0.0
C1212 C 0.94133 0.9939 0.26302 0.0
C1213 C 0.96145 0.00997 0.27461 0.0
C1214 C 0.92517 0.00354 0.28414 0.0
C1215 C 0.86637 0.97842 0.28185 0.0
C1216 C 0.84424 0.95957 0.27013 0.0
C1217 C 0.8826 0.96871 0.26056 0.0
loop_
_geom_bond_atom_site_label_1
_geom_bond_atom_site_label_2
_geom_bond_distance
_geom_bond_site_symmetry_2
_ccdc_geom_bond_type
Co0 O3 1.970 . S
Co0 N17 1.989 . S
Co0 O25 1.967 . S
Co0 O32 1.920 . S
Co1 O4 1.966 . S
Co1 N10 2.022 . S
Co1 N18 1.993 . S
Co1 O26 1.941 . S
C2 O3 1.258 . S
C2 O4 1.263 . S
O3 Co0 1.970 . S
O3 C2 1.258 . S
O4 Co1 1.966 . S
O4 C2 1.263 . S
C5 O6 1.235 . S
C5 O32 1.289 . S
O6 C5 1.235 . S
C7 C9 1.400 . S
C7 N10 1.351 . S
C7 C12 1.501 . S
C8 C9 1.387 . S
C8 N11 1.341 . S
C9 C7 1.400 . S
C9 C8 1.387 . S
N10 Co1 2.022 . S
N10 C7 1.351 . S
N10 N11 1.365 . S
N11 C8 1.341 . S
N11 N10 1.365 . S
N11 H31 0.862 . S
C12 C7 1.501 . S
C12 H13 0.961 . S
C12 H14 0.961 . S
C12 H15 0.960 . S
H13 C12 0.961 . S
H14 C12 0.961 . S
H15 C12 0.960 . S
C16 N17 1.342 . S
C16 C20 1.401 . S
C16 C21 1.499 . S
N17 Co0 1.989 . S
N17 C16 1.342 . S
N17 N18 1.388 . S
N18 Co1 1.993 . S
N18 N17 1.388 . S
N18 C19 1.346 . S
C19 N18 1.346 . S
C19 C20 1.396 . S
C19 C29 1.510 . S
C20 C16 1.401 . S
C20 C19 1.396 . S
C21 C16 1.499 . S
C21 H22 0.959 . S
C21 H23 0.960 . S
C21 H24 0.961 . S
H22 C21 0.959 . S
H23 C21 0.960 . S
H24 C21 0.961 . S
O25 Co0 1.967 . S
O25 C33 1.258 . S
O26 Co1 1.941 . S
O26 C33 1.266 . S
H27 C29 0.959 . S
H28 C29 0.961 . S
C29 C19 1.510 . S
C29 H27 0.959 . S
C29 H28 0.961 . S
C29 H30 0.960 . S
H30 C29 0.960 . S
H31 N11 0.862 . S
O32 Co0 1.920 . S
O32 C5 1.289 . S
C33 O25 1.258 . S
C33 O26 1.266 . S
Co34 O37 1.970 . S
Co34 N51 1.989 . S
Co34 O59 1.967 . S
Co34 O66 1.920 . S
Co35 O38 1.966 . S
Co35 N44 2.022 . S
Co35 N52 1.993 . S
Co35 O60 1.941 . S
C36 O37 1.258 . S
C36 O38 1.263 . S
O37 Co34 1.970 . S
O37 C36 1.258 . S
O38 Co35 1.966 . S
O38 C36 1.263 . S
C39 O40 1.235 . S
C39 O66 1.289 . S
O40 C39 1.235 . S
C41 C43 1.400 . S
C41 N44 1.351 . S
C41 C46 1.501 . S
C42 C43 1.387 . S
C42 N45 1.341 . S
C43 C41 1.400 . S
C43 C42 1.387 . S
N44 Co35 2.022 . S
N44 C41 1.351 . S
N44 N45 1.365 . S
N45 C42 1.341 . S
N45 N44 1.365 . S
N45 H65 0.862 . S
C46 C41 1.501 . S
C46 H47 0.961 . S
C46 H48 0.961 . S
C46 H49 0.960 . S
H47 C46 0.961 . S
H48 C46 0.961 . S
H49 C46 0.960 . S
C50 N51 1.342 . S
C50 C54 1.401 . S
C50 C55 1.499 . S
N51 Co34 1.989 . S
N51 C50 1.342 . S
N51 N52 1.388 . S
N52 Co35 1.993 . S
N52 N51 1.388 . S
N52 C53 1.346 . S
C53 N52 1.346 . S
C53 C54 1.396 . S
C53 C63 1.510 . S
C54 C50 1.401 . S
C54 C53 1.396 . S
C55 C50 1.499 . S
C55 H56 0.959 . S
C55 H57 0.960 . S
C55 H58 0.961 . S
H56 C55 0.959 . S
H57 C55 0.960 . S
H58 C55 0.961 . S
O59 Co34 1.967 . S
O59 C67 1.258 . S
O60 Co35 1.941 . S
O60 C67 1.266 . S
H61 C63 0.959 . S
H62 C63 0.961 . S
C63 C53 1.510 . S
C63 H61 0.959 . S
C63 H62 0.961 . S
C63 H64 0.960 . S
H64 C63 0.960 . S
H65 N45 0.862 . S
O66 Co34 1.920 . S
O66 C39 1.289 . S
C67 O59 1.258 . S
C67 O60 1.266 . S
Co68 O71 1.970 . S
Co68 N85 1.989 . S
Co68 O93 1.967 . S
Co68 O100 1.920 . S
Co69 O72 1.966 . S
Co69 N78 2.022 . S
Co69 N86 1.993 . S
Co69 O94 1.941 . S
C70 O71 1.258 . S
C70 O72 1.263 . S
O71 Co68 1.970 . S
O71 C70 1.258 . S
O72 Co69 1.966 . S
O72 C70 1.263 . S
C73 O74 1.235 . S
C73 O100 1.289 . S
O74 C73 1.235 . S
C75 C77 1.400 . S
C75 N78 1.351 . S
C75 C80 1.501 . S
C76 C77 1.387 . S
C76 N79 1.341 . S
C77 C75 1.400 . S
C77 C76 1.387 . S
N78 Co69 2.022 . S
N78 C75 1.351 . S
N78 N79 1.365 . S
N79 C76 1.341 . S
N79 N78 1.365 . S
N79 H99 0.862 . S
C80 C75 1.501 . S
C80 H81 0.961 . S
C80 H82 0.961 . S
C80 H83 0.960 . S
H81 C80 0.961 . S
H82 C80 0.961 . S
H83 C80 0.960 . S
C84 N85 1.342 . S
C84 C88 1.401 . S
C84 C89 1.499 . S
N85 Co68 1.989 . S
N85 C84 1.342 . S
N85 N86 1.388 . S
N86 Co69 1.993 . S
N86 N85 1.388 . S
N86 C87 1.346 . S
C87 N86 1.346 . S
C87 C88 1.396 . S
C87 C97 1.510 . S
C88 C84 1.401 . S
C88 C87 1.396 . S
C89 C84 1.499 . S
C89 H90 0.959 . S
C89 H91 0.960 . S
C89 H92 0.961 . S
H90 C89 0.959 . S
H91 C89 0.960 . S
H92 C89 0.961 . S
O93 Co68 1.967 . S
O93 C101 1.258 . S
O94 Co69 1.941 . S
O94 C101 1.266 . S
H95 C97 0.959 . S
H96 C97 0.961 . S
C97 C87 1.510 . S
C97 H95 0.959 . S
C97 H96 0.961 . S
C97 H98 0.960 . S
H98 C97 0.960 . S
H99 N79 0.862 . S
O100 Co68 1.920 . S
O100 C73 1.289 . S
C101 O93 1.258 . S
C101 O94 1.266 . S
Co102 O105 1.970 . S
Co102 N119 1.989 . S
Co102 O127 1.967 . S
Co102 O134 1.920 . S
Co103 O106 1.966 . S
Co103 N112 2.022 . S
Co103 N120 1.993 . S
Co103 O128 1.941 . S
C104 O105 1.258 . S
C104 O106 1.263 . S
O105 Co102 1.970 . S
O105 C104 1.258 . S
O106 Co103 1.966 . S
O106 C104 1.263 . S
C107 O108 1.235 . S
C107 O134 1.289 . S
O108 C107 1.235 . S
C109 C111 1.400 . S
C109 N112 1.351 . S
C109 C114 1.501 . S
C110 C111 1.387 . S
C110 N113 1.341 . S
C111 C109 1.400 . S
C111 C110 1.387 . S
N112 Co103 2.022 . S
N112 C109 1.351 . S
N112 N113 1.365 . S
N113 C110 1.341 . S
N113 N112 1.365 . S
N113 H133 0.862 . S
C114 C109 1.501 . S
C114 H115 0.961 . S
C114 H116 0.961 . S
C114 H117 0.960 . S
H115 C114 0.961 . S
H116 C114 0.961 . S
H117 C114 0.960 . S
C118 N119 1.342 . S
C118 C122 1.401 . S
C118 C123 1.499 . S
N119 Co102 1.989 . S
N119 C118 1.342 . S
N119 N120 1.388 . S
N120 Co103 1.993 . S
N120 N119 1.388 . S
N120 C121 1.346 . S
C121 N120 1.346 . S
C121 C122 1.396 . S
C121 C131 1.510 . S
C122 C118 1.401 . S
C122 C121 1.396 . S
C123 C118 1.499 . S
C123 H124 0.959 . S
C123 H125 0.960 . S
C123 H126 0.961 . S
H124 C123 0.959 . S
H125 C123 0.960 . S
H126 C123 0.961 . S
O127 Co102 1.967 . S
O127 C135 1.258 . S
O128 Co103 1.941 . S
O128 C135 1.266 . S
H129 C131 0.959 . S
H130 C131 0.961 . S
C131 C121 1.510 . S
C131 H129 0.959 . S
C131 H130 0.961 . S
C131 H132 0.960 . S
H132 C131 0.960 . S
H133 N113 0.862 . S
O134 Co102 1.920 . S
O134 C107 1.289 . S
C135 O127 1.258 . S
C135 O128 1.266 . S
Co136 O139 1.970 . S
Co136 N153 1.989 . S
Co136 O161 1.967 . S
Co136 O168 1.920 . S
Co137 O140 1.966 . S
Co137 N146 2.022 . S
Co137 N154 1.993 . S
Co137 O162 1.941 . S
C138 O139 1.258 . S
C138 O140 1.263 . S
O139 Co136 1.970 . S
O139 C138 1.258 . S
O140 Co137 1.966 . S
O140 C138 1.263 . S
C141 O142 1.235 . S
C141 O168 1.289 . S
O142 C141 1.235 . S
C143 C145 1.400 . S
C143 N146 1.351 . S
C143 C148 1.501 . S
C144 C145 1.387 . S
C144 N147 1.341 . S
C145 C143 1.400 . S
C145 C144 1.387 . S
N146 Co137 2.022 . S
N146 C143 1.351 . S
N146 N147 1.365 . S
N147 C144 1.341 . S
N147 N146 1.365 . S
N147 H167 0.862 . S
C148 C143 1.501 . S
C148 H149 0.961 . S
C148 H150 0.961 . S
C148 H151 0.960 . S
H149 C148 0.961 . S
H150 C148 0.961 . S
H151 C148 0.960 . S
C152 N153 1.342 . S
C152 C156 1.401 . S
C152 C157 1.499 . S
N153 Co136 1.989 . S
N153 C152 1.342 . S
N153 N154 1.388 . S
N154 Co137 1.993 . S
N154 N153 1.388 . S
N154 C155 1.346 . S
C155 N154 1.346 . S
C155 C156 1.396 . S
C155 C165 1.510 . S
C156 C152 1.401 . S
C156 C155 1.396 . S
C157 C152 1.499 . S
C157 H158 0.959 . S
C157 H159 0.960 . S
C157 H160 0.961 . S
H158 C157 0.959 . S
H159 C157 0.960 . S
H160 C157 0.961 . S
O161 Co136 1.967 . S
O161 C169 1.258 . S
O162 Co137 1.941 . S
O162 C169 1.266 . S
H163 C165 0.959 . S
H164 C165 0.961 . S
C165 C155 1.510 . S
C165 H163 0.959 . S
C165 H164 0.961 . S
C165 H166 0.960 . S
H166 C165 0.960 . S
H167 N147 0.862 . S
O168 Co136 1.920 . S
O168 C141 1.289 . S
C169 O161 1.258 . S
C169 O162 1.266 . S
Co170 O173 1.970 . S
Co170 N187 1.989 . S
Co170 O195 1.967 . S
Co170 O202 1.920 . S
Co171 O174 1.966 . S
Co171 N180 2.022 . S
Co171 N188 1.993 . S
Co171 O196 1.941 . S
C172 O173 1.258 . S
C172 O174 1.263 . S
O173 Co170 1.970 . S
O173 C172 1.258 . S
O174 Co171 1.966 . S
O174 C172 1.263 . S
C175 O176 1.235 . S
C175 O202 1.289 . S
O176 C175 1.235 . S
C177 C179 1.400 . S
C177 N180 1.351 . S
C177 C182 1.501 . S
C178 C179 1.387 . S
C178 N181 1.341 . S
C179 C177 1.400 . S
C179 C178 1.387 . S
N180 Co171 2.022 . S
N180 C177 1.351 . S
N180 N181 1.365 . S
N181 C178 1.341 . S
N181 N180 1.365 . S
N181 H201 0.862 . S
C182 C177 1.501 . S
C182 H183 0.961 . S
C182 H184 0.961 . S
C182 H185 0.960 . S
H183 C182 0.961 . S
H184 C182 0.961 . S
H185 C182 0.960 . S
C186 N187 1.342 . S
C186 C190 1.401 . S
C186 C191 1.499 . S
N187 Co170 1.989 . S
N187 C186 1.342 . S
N187 N188 1.388 . S
N188 Co171 1.993 . S
N188 N187 1.388 . S
N188 C189 1.346 . S
C189 N188 1.346 . S
C189 C190 1.396 . S
C189 C199 1.510 . S
C190 C186 1.401 . S
C190 C189 1.396 . S
C191 C186 1.499 . S
C191 H192 0.959 . S
C191 H193 0.960 . S
C191 H194 0.961 . S
H192 C191 0.959 . S
H193 C191 0.960 . S
H194 C191 0.961 . S
O195 Co170 1.967 . S
O195 C203 1.258 . S
O196 Co171 1.941 . S
O196 C203 1.266 . S
H197 C199 0.959 . S
H198 C199 0.961 . S
C199 C189 1.510 . S
C199 H197 0.959 . S
C199 H198 0.961 . S
C199 H200 0.960 . S
H200 C199 0.960 . S
H201 N181 0.862 . S
O202 Co170 1.920 . S
O202 C175 1.289 . S
C203 O195 1.258 . S
C203 O196 1.266 . S
Co204 O207 1.970 . S
Co204 N221 1.989 . S
Co204 O229 1.967 . S
Co204 O236 1.920 . S
Co205 O208 1.966 . S
Co205 N214 2.022 . S
Co205 N222 1.993 . S
Co205 O230 1.941 . S
C206 O207 1.258 . S
C206 O208 1.263 . S
O207 Co204 1.970 . S
O207 C206 1.258 . S
O208 Co205 1.966 . S
O208 C206 1.263 . S
C209 O210 1.235 . S
C209 O236 1.289 . S
O210 C209 1.235 . S
C211 C213 1.400 . S
C211 N214 1.351 . S
C211 C216 1.501 . S
C212 C213 1.387 . S
C212 N215 1.341 . S
C213 C211 1.400 . S
C213 C212 1.387 . S
N214 Co205 2.022 . S
N214 C211 1.351 . S
N214 N215 1.365 . S
N215 C212 1.341 . S
N215 N214 1.365 . S
N215 H235 0.862 . S
C216 C211 1.501 . S
C216 H217 0.961 . S
C216 H218 0.961 . S
C216 H219 0.960 . S
H217 C216 0.961 . S
H218 C216 0.961 . S
H219 C216 0.960 . S
C220 N221 1.342 . S
C220 C224 1.401 . S
C220 C225 1.499 . S
N221 Co204 1.989 . S
N221 C220 1.342 . S
N221 N222 1.388 . S
N222 Co205 1.993 . S
N222 N221 1.388 . S
N222 C223 1.346 . S
C223 N222 1.346 . S
C223 C224 1.396 . S
C223 C233 1.510 . S
C224 C220 1.401 . S
C224 C223 1.396 . S
C225 C220 1.499 . S
C225 H226 0.959 . S
C225 H227 0.960 . S
C225 H228 0.961 . S
H226 C225 0.959 . S
H227 C225 0.960 . S
H228 C225 0.961 . S
O229 Co204 1.967 . S
O229 C237 1.258 . S
O230 Co205 1.941 . S
O230 C237 1.266 . S
H231 C233 0.959 . S
H232 C233 0.961 . S
C233 C223 1.510 . S
C233 H231 0.959 . S
C233 H232 0.961 . S
C233 H234 0.960 . S
H234 C233 0.960 . S
H235 N215 0.862 . S
O236 Co204 1.920 . S
O236 C209 1.289 . S
C237 O229 1.258 . S
C237 O230 1.266 . S
Co238 O241 1.970 . S
Co238 N255 1.989 . S
Co238 O263 1.967 . S
Co238 O270 1.920 . S
Co239 O242 1.966 . S
Co239 N248 2.022 . S
Co239 N256 1.993 . S
Co239 O264 1.941 . S
C240 O241 1.258 . S
C240 O242 1.263 . S
O241 Co238 1.970 . S
O241 C240 1.258 . S
O242 Co239 1.966 . S
O242 C240 1.263 . S
C243 O244 1.235 . S
C243 O270 1.289 . S
O244 C243 1.235 . S
C245 C247 1.400 . S
C245 N248 1.351 . S
C245 C250 1.501 . S
C246 C247 1.387 . S
C246 N249 1.341 . S
C247 C245 1.400 . S
C247 C246 1.387 . S
N248 Co239 2.022 . S
N248 C245 1.351 . S
N248 N249 1.365 . S
N249 C246 1.341 . S
N249 N248 1.365 . S
N249 H269 0.862 . S
C250 C245 1.501 . S
C250 H251 0.961 . S
C250 H252 0.961 . S
C250 H253 0.960 . S
H251 C250 0.961 . S
H252 C250 0.961 . S
H253 C250 0.960 . S
C254 N255 1.342 . S
C254 C258 1.401 . S
C254 C259 1.499 . S
N255 Co238 1.989 . S
N255 C254 1.342 . S
N255 N256 1.388 . S
N256 Co239 1.993 . S
N256 N255 1.388 . S
N256 C257 1.346 . S
C257 N256 1.346 . S
C257 C258 1.396 . S
C257 C267 1.510 . S
C258 C254 1.401 . S
C258 C257 1.396 . S
C259 C254 1.499 . S
C259 H260 0.959 . S
C259 H261 0.960 . S
C259 H262 0.961 . S
H260 C259 0.959 . S
H261 C259 0.960 . S
H262 C259 0.961 . S
O263 Co238 1.967 . S
O263 C271 1.258 . S
O264 Co239 1.941 . S
O264 C271 1.266 . S
H265 C267 0.959 . S
H266 C267 0.961 . S
C267 C257 1.510 . S
C267 H265 0.959 . S
C267 H266 0.961 . S
C267 H268 0.960 . S
H268 C267 0.960 . S
H269 N249 0.862 . S
O270 Co238 1.920 . S
O270 C243 1.289 . S
C271 O263 1.258 . S
C271 O264 1.266 . S
Co272 O275 1.970 . S
Co272 N289 1.989 . S
Co272 O297 1.967 . S
Co272 O304 1.920 . S
Co273 O276 1.966 . S
Co273 N282 2.022 . S
Co273 N290 1.993 . S
Co273 O298 1.941 . S
C274 O275 1.258 . S
C274 O276 1.263 . S
O275 Co272 1.970 . S
O275 C274 1.258 . S
O276 Co273 1.966 . S
O276 C274 1.263 . S
C277 O278 1.235 . S
C277 O304 1.289 . S
O278 C277 1.235 . S
C279 C281 1.400 . S
C279 N282 1.351 . S
C279 C284 1.501 . S
C280 C281 1.387 . S
C280 N283 1.341 . S
C281 C279 1.400 . S
C281 C280 1.387 . S
N282 Co273 2.022 . S
N282 C279 1.351 . S
N282 N283 1.365 . S
N283 C280 1.341 . S
N283 N282 1.365 . S
N283 H303 0.862 . S
C284 C279 1.501 . S
C284 H285 0.961 . S
C284 H286 0.961 . S
C284 H287 0.960 . S
H285 C284 0.961 . S
H286 C284 0.961 . S
H287 C284 0.960 . S
C288 N289 1.342 . S
C288 C292 1.401 . S
C288 C293 1.499 . S
N289 Co272 1.989 . S
N289 C288 1.342 . S
N289 N290 1.388 . S
N290 Co273 1.993 . S
N290 N289 1.388 . S
N290 C291 1.346 . S
C291 N290 1.346 . S
C291 C292 1.396 . S
C291 C301 1.510 . S
C292 C288 1.401 . S
C292 C291 1.396 . S
C293 C288 1.499 . S
C293 H294 0.959 . S
C293 H295 0.960 . S
C293 H296 0.961 . S
H294 C293 0.959 . S
H295 C293 0.960 . S
H296 C293 0.961 . S
O297 Co272 1.967 . S
O297 C305 1.258 . S
O298 Co273 1.941 . S
O298 C305 1.266 . S
H299 C301 0.959 . S
H300 C301 0.961 . S
C301 C291 1.510 . S
C301 H299 0.959 . S
C301 H300 0.961 . S
C301 H302 0.960 . S
H302 C301 0.960 . S
H303 N283 0.862 . S
O304 Co272 1.920 . S
O304 C277 1.289 . S
C305 O297 1.258 . S
C305 O298 1.266 . S
Co306 O309 1.970 . S
Co306 N323 1.989 . S
Co306 O331 1.967 . S
Co306 O338 1.920 . S
Co307 O310 1.966 . S
Co307 N316 2.022 . S
Co307 N324 1.993 . S
Co307 O332 1.941 . S
C308 O309 1.258 . S
C308 O310 1.263 . S
O309 Co306 1.970 . S
O309 C308 1.258 . S
O310 Co307 1.966 . S
O310 C308 1.263 . S
C311 O312 1.235 . S
C311 O338 1.289 . S
O312 C311 1.235 . S
C313 C315 1.400 . S
C313 N316 1.351 . S
C313 C318 1.501 . S
C314 C315 1.387 . S
C314 N317 1.341 . S
C315 C313 1.400 . S
C315 C314 1.387 . S
N316 Co307 2.022 . S
N316 C313 1.351 . S
N316 N317 1.365 . S
N317 C314 1.341 . S
N317 N316 1.365 . S
N317 H337 0.862 . S
C318 C313 1.501 . S
C318 H319 0.961 . S
C318 H320 0.961 . S
C318 H321 0.960 . S
H319 C318 0.961 . S
H320 C318 0.961 . S
H321 C318 0.960 . S
C322 N323 1.342 . S
C322 C326 1.401 . S
C322 C327 1.499 . S
N323 Co306 1.989 . S
N323 C322 1.342 . S
N323 N324 1.388 . S
N324 Co307 1.993 . S
N324 N323 1.388 . S
N324 C325 1.346 . S
C325 N324 1.346 . S
C325 C326 1.396 . S
C325 C335 1.510 . S
C326 C322 1.401 . S
C326 C325 1.396 . S
C327 C322 1.499 . S
C327 H328 0.959 . S
C327 H329 0.960 . S
C327 H330 0.961 . S
H328 C327 0.959 . S
H329 C327 0.960 . S
H330 C327 0.961 . S
O331 Co306 1.967 . S
O331 C339 1.258 . S
O332 Co307 1.941 . S
O332 C339 1.266 . S
H333 C335 0.959 . S
H334 C335 0.961 . S
C335 C325 1.510 . S
C335 H333 0.959 . S
C335 H334 0.961 . S
C335 H336 0.960 . S
H336 C335 0.960 . S
H337 N317 0.862 . S
O338 Co306 1.920 . S
O338 C311 1.289 . S
C339 O331 1.258 . S
C339 O332 1.266 . S
Co340 O343 1.970 . S
Co340 N357 1.989 . S
Co340 O365 1.967 . S
Co340 O372 1.920 . S
Co341 O344 1.966 . S
Co341 N350 2.022 . S
Co341 N358 1.993 . S
Co341 O366 1.941 . S
C342 O343 1.258 . S
C342 O344 1.263 . S
O343 Co340 1.970 . S
O343 C342 1.258 . S
O344 Co341 1.966 . S
O344 C342 1.263 . S
C345 O346 1.235 . S
C345 O372 1.289 . S
O346 C345 1.235 . S
C347 C349 1.400 . S
C347 N350 1.351 . S
C347 C352 1.501 . S
C348 C349 1.387 . S
C348 N351 1.341 . S
C349 C347 1.400 . S
C349 C348 1.387 . S
N350 Co341 2.022 . S
N350 C347 1.351 . S
N350 N351 1.365 . S
N351 C348 1.341 . S
N351 N350 1.365 . S
N351 H371 0.862 . S
C352 C347 1.501 . S
C352 H353 0.961 . S
C352 H354 0.961 . S
C352 H355 0.960 . S
H353 C352 0.961 . S
H354 C352 0.961 . S
H355 C352 0.960 . S
C356 N357 1.342 . S
C356 C360 1.401 . S
C356 C361 1.499 . S
N357 Co340 1.989 . S
N357 C356 1.342 . S
N357 N358 1.388 . S
N358 Co341 1.993 . S
N358 N357 1.388 . S
N358 C359 1.346 . S
C359 N358 1.346 . S
C359 C360 1.396 . S
C359 C369 1.510 . S
C360 C356 1.401 . S
C360 C359 1.396 . S
C361 C356 1.499 . S
C361 H362 0.959 . S
C361 H363 0.960 . S
C361 H364 0.961 . S
H362 C361 0.959 . S
H363 C361 0.960 . S
H364 C361 0.961 . S
O365 Co340 1.967 . S
O365 C373 1.258 . S
O366 Co341 1.941 . S
O366 C373 1.266 . S
H367 C369 0.959 . S
H368 C369 0.961 . S
C369 C359 1.510 . S
C369 H367 0.959 . S
C369 H368 0.961 . S
C369 H370 0.960 . S
H370 C369 0.960 . S
H371 N351 0.862 . S
O372 Co340 1.920 . S
O372 C345 1.289 . S
C373 O365 1.258 . S
C373 O366 1.266 . S
Co374 O377 1.970 . S
Co374 N391 1.989 . S
Co374 O399 1.967 . S
Co374 O406 1.920 . S
Co375 O378 1.966 . S
Co375 N384 2.022 . S
Co375 N392 1.993 . S
Co375 O400 1.941 . S
C376 O377 1.258 . S
C376 O378 1.263 . S
O377 Co374 1.970 . S
O377 C376 1.258 . S
O378 Co375 1.966 . S
O378 C376 1.263 . S
C379 O380 1.235 . S
C379 O406 1.289 . S
O380 C379 1.235 . S
C381 C383 1.400 . S
C381 N384 1.351 . S
C381 C386 1.501 . S
C382 C383 1.387 . S
C382 N385 1.341 . S
C383 C381 1.400 . S
C383 C382 1.387 . S
N384 Co375 2.022 . S
N384 C381 1.351 . S
N384 N385 1.365 . S
N385 C382 1.341 . S
N385 N384 1.365 . S
N385 H405 0.862 . S
C386 C381 1.501 . S
C386 H387 0.961 . S
C386 H388 0.961 . S
C386 H389 0.960 . S
H387 C386 0.961 . S
H388 C386 0.961 . S
H389 C386 0.960 . S
C390 N391 1.342 . S
C390 C394 1.401 . S
C390 C395 1.499 . S
N391 Co374 1.989 . S
N391 C390 1.342 . S
N391 N392 1.388 . S
N392 Co375 1.993 . S
N392 N391 1.388 . S
N392 C393 1.346 . S
C393 N392 1.346 . S
C393 C394 1.396 . S
C393 C403 1.510 . S
C394 C390 1.401 . S
C394 C393 1.396 . S
C395 C390 1.499 . S
C395 H396 0.959 . S
C395 H397 0.960 . S
C395 H398 0.961 . S
H396 C395 0.959 . S
H397 C395 0.960 . S
H398 C395 0.961 . S
O399 Co374 1.967 . S
O399 C407 1.258 . S
O400 Co375 1.941 . S
O400 C407 1.266 . S
H401 C403 0.959 . S
H402 C403 0.961 . S
C403 C393 1.510 . S
C403 H401 0.959 . S
C403 H402 0.961 . S
C403 H404 0.960 . S
H404 C403 0.960 . S
H405 N385 0.862 . S
O406 Co374 1.920 . S
O406 C379 1.289 . S
C407 O399 1.258 . S
C407 O400 1.266 . S
H408 C420 0.930 . S
H409 C422 0.930 . S
H410 C423 0.930 . S
H411 C427 0.959 . S
H412 C427 0.959 . S
H413 C427 0.961 . S
H414 C428 0.960 . S
H415 C428 0.961 . S
H416 C428 0.959 . S
H417 C431 0.929 . S
H418 C432 0.931 . S
H419 C434 0.917 1_545 S
C420 H408 0.930 . S
C420 C421 1.399 . S
C420 C425 1.399 . S
C421 C420 1.399 . S
C421 C422 1.376 1_545 S
C422 H409 0.930 . S
C422 C421 1.376 1_565 S
C422 C423 1.388 . S
C423 H410 0.930 . S
C423 C422 1.388 . S
C423 C424 1.390 . S
C424 C423 1.390 . S
C424 C425 1.394 1_565 S
C424 C430 1.465 1_554 S
C425 C420 1.399 . S
C425 C424 1.394 1_545 S
C425 C426 1.516 1_554 S
C426 C425 1.516 1_556 S
C426 C427 1.502 . S
C426 C428 1.561 . S
C426 C429 1.526 . S
C427 H411 0.959 . S
C427 H412 0.959 . S
C427 H413 0.961 . S
C427 C426 1.502 . S
C428 H414 0.960 . S
C428 H415 0.961 . S
C428 H416 0.959 . S
C428 C426 1.561 . S
C429 C426 1.526 . S
C429 C430 1.396 1_545 S
C429 C434 1.388 1_545 S
C430 C424 1.465 1_556 S
C430 C429 1.396 1_565 S
C430 C431 1.399 . S
C431 H417 0.929 . S
C431 C430 1.399 . S
C431 C432 1.385 . S
C432 H418 0.931 . S
C432 C431 1.385 . S
C432 C433 1.389 . S
C433 C432 1.389 . S
C433 C434 1.402 . S
C434 H419 0.917 1_565 S
C434 C429 1.388 1_565 S
C434 C433 1.402 . S
H435 C447 0.930 . S
H436 C449 0.930 . S
H437 C450 0.930 . S
H438 C454 0.959 . S
H439 C454 0.959 . S
H440 C454 0.961 . S
H441 C455 0.960 . S
H442 C455 0.961 . S
H443 C455 0.959 . S
H444 C458 0.929 . S
H445 C459 0.931 . S
H446 C461 0.930 . S
C447 H435 0.930 . S
C447 C448 1.399 . S
C447 C452 1.399 . S
C448 C447 1.399 . S
C448 C449 1.376 . S
C449 H436 0.930 . S
C449 C448 1.376 . S
C449 C450 1.388 . S
C450 H437 0.930 . S
C450 C449 1.388 . S
C450 C451 1.390 . S
C451 C450 1.390 . S
C451 C452 1.394 . S
C451 C457 1.465 . S
C452 C447 1.399 . S
C452 C451 1.394 . S
C452 C453 1.516 . S
C453 C452 1.516 . S
C453 C454 1.502 . S
C453 C455 1.561 . S
C453 C456 1.526 . S
C454 H438 0.959 . S
C454 H439 0.959 . S
C454 H440 0.961 . S
C454 C453 1.502 . S
C455 H441 0.960 . S
C455 H442 0.961 . S
C455 H443 0.959 . S
C455 C453 1.561 . S
C456 C453 1.526 . S
C456 C457 1.396 . S
C456 C461 1.390 . S
C457 C451 1.465 . S
C457 C456 1.396 . S
C457 C458 1.399 . S
C458 H444 0.929 . S
C458 C457 1.399 . S
C458 C459 1.385 . S
C459 H445 0.931 . S
C459 C458 1.385 . S
C459 C460 1.389 . S
C460 C459 1.389 . S
C460 C461 1.387 . S
C461 H446 0.930 . S
C461 C456 1.390 . S
C461 C460 1.387 . S
H462 C474 0.930 . S
H463 C476 0.930 . S
H464 C477 0.930 . S
H465 C481 0.959 . S
H466 C481 0.959 . S
H467 C481 0.961 . S
H468 C482 0.960 . S
H469 C482 0.961 . S
H470 C482 0.959 . S
H471 C485 0.929 . S
H472 C486 0.931 . S
H473 C488 0.930 . S
C474 H462 0.930 . S
C474 C475 1.399 . S
C474 C479 1.399 . S
C475 C474 1.399 . S
C475 C476 1.376 . S
C476 H463 0.930 . S
C476 C475 1.376 . S
C476 C477 1.388 . S
C477 H464 0.930 . S
C477 C476 1.388 . S
C477 C478 1.390 . S
C478 C477 1.390 . S
C478 C479 1.394 . S
C478 C484 1.465 1_655 S
C479 C474 1.399 . S
C479 C478 1.394 . S
C479 C480 1.516 . S
C480 C479 1.516 . S
C480 C481 1.502 1_655 S
C480 C482 1.561 . S
C480 C483 1.526 1_655 S
C481 H465 0.959 . S
C481 H466 0.959 . S
C481 H467 0.961 . S
C481 C480 1.502 1_455 S
C482 H468 0.960 . S
C482 H469 0.961 . S
C482 H470 0.959 . S
C482 C480 1.561 . S
C483 C480 1.526 1_455 S
C483 C484 1.396 . S
C483 C488 1.390 . S
C484 C478 1.465 1_455 S
C484 C483 1.396 . S
C484 C485 1.399 . S
C485 H471 0.929 . S
C485 C484 1.399 . S
C485 C486 1.385 . S
C486 H472 0.931 . S
C486 C485 1.385 . S
C486 C487 1.389 . S
C487 C486 1.389 . S
C487 C488 1.387 . S
C488 H473 0.930 . S
C488 C483 1.390 . S
C488 C487 1.387 . S
H489 C501 0.930 1_565 S
H490 C503 0.930 . S
H491 C504 0.930 . S
H492 C508 0.959 . S
H493 C508 0.959 . S
H494 C508 0.961 . S
H495 C509 0.960 . S
H496 C509 0.961 . S
H497 C509 0.959 . S
H498 C512 0.929 . S
H499 C513 0.931 . S
H500 C515 0.930 . S
C501 H489 0.930 1_545 S
C501 C502 1.399 . S
C501 C506 1.399 1_545 S
C502 C501 1.399 . S
C502 C503 1.376 . S
C503 H490 0.930 . S
C503 C502 1.376 . S
C503 C504 1.388 . S
C504 H491 0.930 . S
C504 C503 1.388 . S
C504 C505 1.390 . S
C505 C504 1.390 . S
C505 C506 1.394 1_545 S
C505 C511 1.465 1_556 S
C506 C501 1.399 1_565 S
C506 C505 1.394 1_565 S
C506 C507 1.516 . S
C507 C506 1.516 . S
C507 C508 1.502 . S
C507 C509 1.561 . S
C507 C510 1.526 1_556 S
C508 H492 0.959 . S
C508 H493 0.959 . S
C508 H494 0.961 . S
C508 C507 1.502 . S
C509 H495 0.960 . S
C509 H496 0.961 . S
C509 H497 0.959 . S
C509 C507 1.561 . S
C510 C507 1.526 1_554 S
C510 C511 1.396 1_565 S
C510 C515 1.390 . S
C511 C505 1.465 1_554 S
C511 C510 1.396 1_545 S
C511 C512 1.399 . S
C512 H498 0.929 . S
C512 C511 1.399 . S
C512 C513 1.385 . S
C513 H499 0.931 . S
C513 C512 1.385 . S
C513 C514 1.389 1_545 S
C514 C513 1.389 1_565 S
C514 C515 1.387 . S
C515 H500 0.930 . S
C515 C510 1.390 . S
C515 C514 1.387 . S
H516 C528 0.930 . S
H517 C530 0.930 . S
H518 C531 0.930 . S
H519 C535 0.959 . S
H520 C535 0.959 . S
H521 C535 0.961 . S
H522 C536 0.960 . S
H523 C536 0.961 . S
H524 C536 0.959 . S
H525 C539 0.929 . S
H526 C540 0.931 . S
H527 C542 0.930 . S
C528 H516 0.930 . S
C528 C529 1.399 . S
C528 C533 1.399 . S
C529 C528 1.399 . S
C529 C530 1.376 . S
C530 H517 0.930 . S
C530 C529 1.376 . S
C530 C531 1.388 . S
C531 H518 0.930 . S
C531 C530 1.388 . S
C531 C532 1.390 . S
C532 C531 1.390 . S
C532 C533 1.394 . S
C532 C538 1.465 . S
C533 C528 1.399 . S
C533 C532 1.394 . S
C533 C534 1.516 . S
C534 C533 1.516 . S
C534 C535 1.502 . S
C534 C536 1.561 . S
C534 C537 1.526 . S
C535 H519 0.959 . S
C535 H520 0.959 . S
C535 H521 0.961 . S
C535 C534 1.502 . S
C536 H522 0.960 . S
C536 H523 0.961 . S
C536 H524 0.959 . S
C536 C534 1.561 . S
C537 C534 1.526 . S
C537 C538 1.396 . S
C537 C542 1.390 . S
C538 C532 1.465 . S
C538 C537 1.396 . S
C538 C539 1.399 . S
C539 H525 0.929 . S
C539 C538 1.399 . S
C539 C540 1.385 . S
C540 H526 0.931 . S
C540 C539 1.385 . S
C540 C541 1.389 . S
C541 C540 1.389 . S
C541 C542 1.387 . S
C542 H527 0.930 . S
C542 C537 1.390 . S
C542 C541 1.387 . S
H543 C555 0.930 . S
H544 C557 0.930 . S
H545 C558 0.930 . S
H546 C562 0.959 . S
H547 C562 0.959 . S
H548 C562 0.961 . S
H549 C563 0.960 . S
H550 C563 0.961 . S
H551 C563 0.959 . S
H552 C566 0.929 . S
H553 C567 0.931 . S
H554 C569 0.930 . S
C555 H543 0.930 . S
C555 C556 1.399 . S
C555 C560 1.399 . S
C556 C555 1.399 . S
C556 C557 1.376 . S
C557 H544 0.930 . S
C557 C556 1.376 . S
C557 C558 1.388 . S
C558 H545 0.930 . S
C558 C557 1.388 . S
C558 C559 1.390 . S
C559 C558 1.390 . S
C559 C560 1.394 . S
C559 C565 1.465 1_455 S
C560 C555 1.399 . S
C560 C559 1.394 . S
C560 C561 1.516 1_455 S
C561 C560 1.516 1_655 S
C561 C562 1.502 1_655 S
C561 C563 1.561 . S
C561 C564 1.526 . S
C562 H546 0.959 . S
C562 H547 0.959 . S
C562 H548 0.961 . S
C562 C561 1.502 1_455 S
C563 H549 0.960 . S
C563 H550 0.961 . S
C563 H551 0.959 . S
C563 C561 1.561 . S
C564 C561 1.526 . S
C564 C565 1.396 . S
C564 C569 1.390 . S
C565 C559 1.465 1_655 S
C565 C564 1.396 . S
C565 C566 1.399 . S
C566 H552 0.929 . S
C566 C565 1.399 . S
C566 C567 1.385 . S
C567 H553 0.931 . S
C567 C566 1.385 . S
C567 C568 1.389 . S
C568 C567 1.389 . S
C568 C569 1.387 . S
C569 H554 0.930 . S
C569 C564 1.390 . S
C569 C568 1.387 . S
H570 C582 0.930 . S
H571 C584 0.930 . S
H572 C585 0.930 . S
H573 C589 0.959 . S
H574 C589 0.959 . S
H575 C589 0.961 . S
H576 C590 0.960 . S
H577 C590 0.961 1_545 S
H578 C590 0.959 . S
H579 C593 0.929 1_565 S
H580 C594 0.931 . S
H581 C596 0.930 . S
C582 H570 0.930 . S
C582 C583 1.399 . S
C582 C587 1.399 . S
C583 C582 1.399 . S
C583 C584 1.376 . S
C584 H571 0.930 . S
C584 C583 1.376 . S
C584 C585 1.388 . S
C585 H572 0.930 . S
C585 C584 1.388 . S
C585 C586 1.390 . S
C586 C585 1.390 . S
C586 C587 1.394 . S
C586 C592 1.465 1_565 S
C587 C582 1.399 . S
C587 C586 1.394 . S
C587 C588 1.516 1_565 S
C588 C587 1.516 1_545 S
C588 C589 1.502 . S
C588 C590 1.561 1_545 S
C588 C591 1.526 . S
C589 H573 0.959 . S
C589 H574 0.959 . S
C589 H575 0.961 . S
C589 C588 1.502 . S
C590 H576 0.960 . S
C590 H577 0.961 1_565 S
C590 H578 0.959 . S
C590 C588 1.561 1_565 S
C591 C588 1.526 . S
C591 C592 1.396 . S
C591 C596 1.390 . S
C592 C586 1.465 1_545 S
C592 C591 1.396 . S
C592 C593 1.399 . S
C593 H579 0.929 1_545 S
C593 C592 1.399 . S
C593 C594 1.385 . S
C594 H580 0.931 . S
C594 C593 1.385 . S
C594 C595 1.389 . S
C595 C594 1.389 . S
C595 C596 1.387 . S
C596 H581 0.930 . S
C596 C591 1.390 . S
C596 C595 1.387 . S
H597 C609 0.930 . S
H598 C611 0.930 . S
H599 C612 0.930 . S
H600 C616 0.959 . S
H601 C616 0.959 . S
H602 C616 0.961 . S
H603 C617 0.960 . S
H604 C617 0.961 . S
H605 C617 0.959 . S
H606 C620 0.929 . S
H607 C621 0.931 . S
H608 C623 0.930 . S
C609 H597 0.930 . S
C609 C610 1.399 . S
C609 C614 1.399 . S
C610 C609 1.399 . S
C610 C611 1.376 . S
C611 H598 0.930 . S
C611 C610 1.376 . S
C611 C612 1.388 . S
C612 H599 0.930 . S
C612 C611 1.388 . S
C612 C613 1.390 . S
C613 C612 1.390 . S
C613 C614 1.394 . S
C613 C619 1.465 . S
C614 C609 1.399 . S
C614 C613 1.394 . S
C614 C615 1.516 . S
C615 C614 1.516 . S
C615 C616 1.502 . S
C615 C617 1.561 . S
C615 C618 1.526 . S
C616 H600 0.959 . S
C616 H601 0.959 . S
C616 H602 0.961 . S
C616 C615 1.502 . S
C617 H603 0.960 . S
C617 H604 0.961 . S
C617 H605 0.959 . S
C617 C615 1.561 . S
C618 C615 1.526 . S
C618 C619 1.396 . S
C618 C623 1.390 . S
C619 C613 1.465 . S
C619 C618 1.396 . S
C619 C620 1.399 . S
C620 H606 0.929 . S
C620 C619 1.399 . S
C620 C621 1.385 . S
C621 H607 0.931 . S
C621 C620 1.385 . S
C621 C622 1.389 . S
C622 C621 1.389 . S
C622 C623 1.387 . S
C623 H608 0.930 . S
C623 C618 1.390 . S
C623 C622 1.387 . S
H624 C636 0.930 . S
H625 C638 0.930 . S
H626 C639 0.930 . S
H627 C643 0.959 . S
H628 C643 0.959 . S
H629 C643 0.961 . S
H630 C644 0.960 . S
H631 C644 0.961 . S
H632 C644 0.959 . S
H633 C647 0.929 . S
H634 C648 0.931 . S
H635 C650 0.930 . S
C636 H624 0.930 . S
C636 C637 1.399 . S
C636 C641 1.399 . S
C637 C636 1.399 . S
C637 C638 1.376 . S
C638 H625 0.930 . S
C638 C637 1.376 . S
C638 C639 1.388 . S
C639 H626 0.930 . S
C639 C638 1.388 . S
C639 C640 1.390 . S
C640 C639 1.390 . S
C640 C641 1.394 . S
C640 C646 1.465 1_455 S
C641 C636 1.399 . S
C641 C640 1.394 . S
C641 C642 1.516 1_455 S
C642 C641 1.516 1_655 S
C642 C643 1.502 . S
C642 C644 1.561 1_655 S
C642 C645 1.526 . S
C643 H627 0.959 . S
C643 H628 0.959 . S
C643 H629 0.961 . S
C643 C642 1.502 . S
C644 H630 0.960 . S
C644 H631 0.961 . S
C644 H632 0.959 . S
C644 C642 1.561 1_455 S
C645 C642 1.526 . S
C645 C646 1.396 . S
C645 C650 1.390 . S
C646 C640 1.465 1_655 S
C646 C645 1.396 . S
C646 C647 1.399 . S
C647 H633 0.929 . S
C647 C646 1.399 . S
C647 C648 1.385 . S
C648 H634 0.931 . S
C648 C647 1.385 . S
C648 C649 1.389 . S
C649 C648 1.389 . S
C649 C650 1.387 . S
C650 H635 0.930 . S
C650 C645 1.390 . S
C650 C649 1.387 . S
H651 C663 0.930 . S
H652 C665 0.930 . S
H653 C666 0.930 . S
H654 C670 0.959 . S
H655 C670 0.959 . S
H656 C670 0.961 . S
H657 C671 0.960 . S
H658 C671 0.960 1_655 S
H659 C671 0.959 1_655 S
H660 C674 0.929 . S
H661 C675 0.931 . S
H662 C677 0.930 . S
C663 H651 0.930 . S
C663 C664 1.399 . S
C663 C668 1.399 . S
C664 C663 1.399 . S
C664 C665 1.376 . S
C665 H652 0.930 . S
C665 C664 1.376 . S
C665 C666 1.388 1_455 S
C666 H653 0.930 . S
C666 C665 1.388 1_655 S
C666 C667 1.390 . S
C667 C666 1.390 . S
C667 C668 1.394 1_655 S
C667 C673 1.465 . S
C668 C663 1.399 . S
C668 C667 1.394 1_455 S
C668 C669 1.516 . S
C669 C668 1.516 . S
C669 C670 1.502 . S
C669 C671 1.561 . S
C669 C672 1.526 1_455 S
C670 H654 0.959 . S
C670 H655 0.959 . S
C670 H656 0.961 . S
C670 C669 1.502 . S
C671 H657 0.960 . S
C671 H658 0.960 1_455 S
C671 H659 0.959 1_455 S
C671 C669 1.561 . S
C672 C669 1.526 1_655 S
C672 C673 1.396 . S
C672 C677 1.390 . S
C673 C667 1.465 . S
C673 C672 1.396 . S
C673 C674 1.399 . S
C674 H660 0.929 . S
C674 C673 1.399 . S
C674 C675 1.385 . S
C675 H661 0.931 . S
C675 C674 1.385 . S
C675 C676 1.389 . S
C676 C675 1.389 . S
C676 C677 1.387 . S
C677 H662 0.930 . S
C677 C672 1.390 . S
C677 C676 1.387 . S
H678 C690 0.930 . S
H679 C692 0.930 . S
H680 C693 0.930 . S
H681 C697 0.959 . S
H682 C697 0.959 . S
H683 C697 0.961 . S
H684 C698 0.960 . S
H685 C698 0.961 . S
H686 C698 0.959 . S
H687 C701 0.929 1_545 S
H688 C702 0.931 . S
H689 C704 0.930 . S
C690 H678 0.930 . S
C690 C691 1.399 . S
C690 C695 1.399 . S
C691 C690 1.399 . S
C691 C692 1.376 . S
C692 H679 0.930 . S
C692 C691 1.376 . S
C692 C693 1.388 . S
C693 H680 0.930 . S
C693 C692 1.388 . S
C693 C694 1.390 . S
C694 C693 1.390 . S
C694 C695 1.394 . S
C694 C700 1.465 1_545 S
C695 C690 1.399 . S
C695 C694 1.394 . S
C695 C696 1.516 1_545 S
C696 C695 1.516 1_565 S
C696 C697 1.502 . S
C696 C698 1.561 1_565 S
C696 C699 1.526 . S
C697 H681 0.959 . S
C697 H682 0.959 . S
C697 H683 0.961 . S
C697 C696 1.502 . S
C698 H684 0.960 . S
C698 H685 0.961 . S
C698 H686 0.959 . S
C698 C696 1.561 1_545 S
C699 C696 1.526 . S
C699 C700 1.396 . S
C699 C704 1.390 . S
C700 C694 1.465 1_565 S
C700 C699 1.396 . S
C700 C701 1.399 . S
C701 H687 0.929 1_565 S
C701 C700 1.399 . S
C701 C702 1.385 . S
C702 H688 0.931 . S
C702 C701 1.385 . S
C702 C703 1.389 . S
C703 C702 1.389 . S
C703 C704 1.387 . S
C704 H689 0.930 . S
C704 C699 1.390 . S
C704 C703 1.387 . S
H705 C717 0.930 . S
H706 C719 0.930 . S
H707 C720 0.930 . S
H708 C724 0.959 . S
H709 C724 0.959 . S
H710 C724 0.961 . S
H711 C725 0.960 . S
H712 C725 0.961 . S
H713 C725 0.959 . S
H714 C728 0.929 . S
H715 C729 0.931 . S
H716 C731 0.930 . S
C717 H705 0.930 . S
C717 C718 1.399 . S
C717 C722 1.399 . S
C718 C717 1.399 . S
C718 C719 1.376 . S
C719 H706 0.930 . S
C719 C718 1.376 . S
C719 C720 1.388 . S
C720 H707 0.930 . S
C720 C719 1.388 . S
C720 C721 1.390 . S
C721 C720 1.390 . S
C721 C722 1.394 . S
C721 C727 1.465 . S
C722 C717 1.399 . S
C722 C721 1.394 . S
C722 C723 1.516 . S
C723 C722 1.516 . S
C723 C724 1.502 . S
C723 C725 1.561 . S
C723 C726 1.526 . S
C724 H708 0.959 . S
C724 H709 0.959 . S
C724 H710 0.961 . S
C724 C723 1.502 . S
C725 H711 0.960 . S
C725 H712 0.961 . S
C725 H713 0.959 . S
C725 C723 1.561 . S
C726 C723 1.526 . S
C726 C727 1.396 . S
C726 C731 1.390 . S
C727 C721 1.465 . S
C727 C726 1.396 . S
C727 C728 1.399 . S
C728 H714 0.929 . S
C728 C727 1.399 . S
C728 C729 1.385 . S
C729 H715 0.931 . S
C729 C728 1.385 . S
C729 C730 1.389 . S
C730 C729 1.389 . S
C730 C731 1.387 . S
C731 H716 0.930 . S
C731 C726 1.390 . S
C731 C730 1.387 . S
H732 C744 0.930 . S
H733 C746 0.930 . S
H734 C747 0.930 . S
H735 C751 0.959 . S
H736 C751 0.959 . S
H737 C751 0.961 . S
H738 C752 0.960 . S
H739 C752 0.961 . S
H740 C752 0.959 . S
H741 C755 0.929 . S
H742 C756 0.931 . S
H743 C758 0.930 . S
C744 H732 0.930 . S
C744 C745 1.399 . S
C744 C749 1.399 . S
C745 C744 1.399 . S
C745 C746 1.376 . S
C746 H733 0.930 . S
C746 C745 1.376 . S
C746 C747 1.388 . S
C747 H734 0.930 . S
C747 C746 1.388 . S
C747 C748 1.390 . S
C748 C747 1.390 . S
C748 C749 1.394 . S
C748 C754 1.465 . S
C749 C744 1.399 . S
C749 C748 1.394 . S
C749 C750 1.516 . S
C750 C749 1.516 . S
C750 C751 1.502 . S
C750 C752 1.561 . S
C750 C753 1.526 . S
C751 H735 0.959 . S
C751 H736 0.959 . S
C751 H737 0.961 . S
C751 C750 1.502 . S
C752 H738 0.960 . S
C752 H739 0.961 . S
C752 H740 0.959 . S
C752 C750 1.561 . S
C753 C750 1.526 . S
C753 C754 1.396 . S
C753 C758 1.390 . S
C754 C748 1.465 . S
C754 C753 1.396 . S
C754 C755 1.399 . S
C755 H741 0.929 . S
C755 C754 1.399 . S
C755 C756 1.385 . S
C756 H742 0.931 . S
C756 C755 1.385 . S
C756 C757 1.389 . S
C757 C756 1.389 . S
C757 C758 1.387 . S
C758 H743 0.930 . S
C758 C753 1.390 . S
C758 C757 1.387 . S
H759 C771 0.930 . S
H760 C773 0.930 . S
H761 C774 0.930 . S
H762 C778 0.959 . S
H763 C778 0.959 . S
H764 C778 0.961 . S
H765 C779 0.960 . S
H766 C779 0.961 . S
H767 C779 0.959 . S
H768 C782 0.929 . S
H769 C783 0.931 . S
H770 C785 0.930 . S
C771 H759 0.930 . S
C771 C772 1.399 . S
C771 C776 1.399 . S
C772 C771 1.399 . S
C772 C773 1.376 . S
C773 H760 0.930 . S
C773 C772 1.376 . S
C773 C774 1.388 . S
C774 H761 0.930 . S
C774 C773 1.388 . S
C774 C775 1.390 . S
C775 C774 1.390 . S
C775 C776 1.394 . S
C775 C781 1.465 . S
C776 C771 1.399 . S
C776 C775 1.394 . S
C776 C777 1.516 . S
C777 C776 1.516 . S
C777 C778 1.502 . S
C777 C779 1.561 . S
C777 C780 1.526 . S
C778 H762 0.959 . S
C778 H763 0.959 . S
C778 H764 0.961 . S
C778 C777 1.502 . S
C779 H765 0.960 . S
C779 H766 0.961 . S
C779 H767 0.959 . S
C779 C777 1.561 . S
C780 C777 1.526 . S
C780 C781 1.396 . S
C780 C785 1.390 . S
C781 C775 1.465 . S
C781 C780 1.396 . S
C781 C782 1.399 . S
C782 H768 0.929 . S
C782 C781 1.399 . S
C782 C783 1.385 . S
C783 H769 0.931 . S
C783 C782 1.385 . S
C783 C784 1.389 . S
C784 C783 1.389 . S
C784 C785 1.387 . S
C785 H770 0.930 . S
C785 C780 1.390 . S
C785 C784 1.387 . S
H786 C798 0.930 . S
H787 C800 0.930 . S
H788 C801 0.930 . S
H789 C805 0.959 . S
H790 C805 0.959 . S
H791 C805 0.961 . S
H792 C806 0.960 . S
H793 C806 0.961 . S
H794 C806 0.959 . S
H795 C809 0.929 . S
H796 C810 0.931 . S
H797 C812 0.930 . S
C798 H786 0.930 . S
C798 C799 1.399 . S
C798 C803 1.399 . S
C799 C798 1.399 . S
C799 C800 1.376 . S
C800 H787 0.930 . S
C800 C799 1.376 . S
C800 C801 1.388 . S
C801 H788 0.930 . S
C801 C800 1.388 . S
C801 C802 1.390 . S
C802 C801 1.390 . S
C802 C803 1.394 . S
C802 C808 1.465 . S
C803 C798 1.399 . S
C803 C802 1.394 . S
C803 C804 1.516 . S
C804 C803 1.516 . S
C804 C805 1.502 . S
C804 C806 1.561 . S
C804 C807 1.526 . S
C805 H789 0.959 . S
C805 H790 0.959 . S
C805 H791 0.961 . S
C805 C804 1.502 . S
C806 H792 0.960 . S
C806 H793 0.961 . S
C806 H794 0.959 . S
C806 C804 1.561 . S
C807 C804 1.526 . S
C807 C808 1.396 . S
C807 C812 1.390 . S
C808 C802 1.465 . S
C808 C807 1.396 . S
C808 C809 1.399 . S
C809 H795 0.929 . S
C809 C808 1.399 . S
C809 C810 1.385 . S
C810 H796 0.931 . S
C810 C809 1.385 . S
C810 C811 1.389 . S
C811 C810 1.389 . S
C811 C812 1.387 . S
C812 H797 0.930 . S
C812 C807 1.390 . S
C812 C811 1.387 . S
H813 C825 0.930 . S
H814 C827 0.930 . S
H815 C828 0.930 . S
H816 C832 0.959 . S
H817 C832 0.959 . S
H818 C832 0.961 . S
H819 C833 0.960 . S
H820 C833 0.961 . S
H821 C833 0.959 . S
H822 C836 0.929 . S
H823 C837 0.931 . S
H824 C839 0.930 . S
C825 H813 0.930 . S
C825 C826 1.399 . S
C825 C830 1.399 . S
C826 C825 1.399 . S
C826 C827 1.376 . S
C827 H814 0.930 . S
C827 C826 1.376 . S
C827 C828 1.388 . S
C828 H815 0.930 . S
C828 C827 1.388 . S
C828 C829 1.390 . S
C829 C828 1.390 . S
C829 C830 1.394 . S
C829 C835 1.465 . S
C830 C825 1.399 . S
C830 C829 1.394 . S
C830 C831 1.516 . S
C831 C830 1.516 . S
C831 C832 1.502 . S
C831 C833 1.561 . S
C831 C834 1.526 . S
C832 H816 0.959 . S
C832 H817 0.959 . S
C832 H818 0.961 . S
C832 C831 1.502 . S
C833 H819 0.960 . S
C833 H820 0.961 . S
C833 H821 0.959 . S
C833 C831 1.561 . S
C834 C831 1.526 . S
C834 C835 1.396 . S
C834 C839 1.390 . S
C835 C829 1.465 . S
C835 C834 1.396 . S
C835 C836 1.399 . S
C836 H822 0.929 . S
C836 C835 1.399 . S
C836 C837 1.385 . S
C837 H823 0.931 . S
C837 C836 1.385 . S
C837 C838 1.389 . S
C838 C837 1.389 . S
C838 C839 1.387 . S
C839 H824 0.930 . S
C839 C834 1.390 . S
C839 C838 1.387 . S
H840 C852 0.930 . S
H841 C854 0.930 . S
H842 C855 0.930 . S
H843 C859 0.959 . S
H844 C859 0.959 . S
H845 C859 0.961 . S
H846 C860 0.960 . S
H847 C860 0.961 . S
H848 C860 0.959 . S
H849 C863 0.929 . S
H850 C864 0.931 . S
H851 C866 0.930 . S
C852 H840 0.930 . S
C852 C853 1.399 . S
C852 C857 1.399 . S
C853 C852 1.399 . S
C853 C854 1.376 . S
C854 H841 0.930 . S
C854 C853 1.376 . S
C854 C855 1.388 . S
C855 H842 0.930 . S
C855 C854 1.388 . S
C855 C856 1.390 . S
C856 C855 1.390 . S
C856 C857 1.394 . S
C856 C862 1.465 . S
C857 C852 1.399 . S
C857 C856 1.394 . S
C857 C858 1.516 . S
C858 C857 1.516 . S
C858 C859 1.502 . S
C858 C860 1.561 . S
C858 C861 1.526 . S
C859 H843 0.959 . S
C859 H844 0.959 . S
C859 H845 0.961 . S
C859 C858 1.502 . S
C860 H846 0.960 . S
C860 H847 0.961 . S
C860 H848 0.959 . S
C860 C858 1.561 . S
C861 C858 1.526 . S
C861 C862 1.396 . S
C861 C866 1.390 . S
C862 C856 1.465 . S
C862 C861 1.396 . S
C862 C863 1.399 . S
C863 H849 0.929 . S
C863 C862 1.399 . S
C863 C864 1.385 . S
C864 H850 0.931 . S
C864 C863 1.385 . S
C864 C865 1.389 . S
C865 C864 1.389 . S
C865 C866 1.387 . S
C866 H851 0.930 . S
C866 C861 1.390 . S
C866 C865 1.387 . S
H867 C879 0.930 . S
H868 C881 0.930 . S
H869 C882 0.930 . S
H870 C886 0.959 . S
H871 C886 0.959 . S
H872 C886 0.961 . S
H873 C887 0.960 . S
H874 C887 0.961 . S
H875 C887 0.959 . S
H876 C890 0.929 . S
H877 C891 0.931 . S
H878 C893 0.930 . S
C879 H867 0.930 . S
C879 C880 1.399 . S
C879 C884 1.399 . S
C880 C879 1.399 . S
C880 C881 1.376 . S
C881 H868 0.930 . S
C881 C880 1.376 . S
C881 C882 1.388 . S
C882 H869 0.930 . S
C882 C881 1.388 . S
C882 C883 1.390 . S
C883 C882 1.390 . S
C883 C884 1.394 . S
C883 C889 1.465 . S
C884 C879 1.399 . S
C884 C883 1.394 . S
C884 C885 1.516 . S
C885 C884 1.516 . S
C885 C886 1.502 . S
C885 C887 1.561 . S
C885 C888 1.526 . S
C886 H870 0.959 . S
C886 H871 0.959 . S
C886 H872 0.961 . S
C886 C885 1.502 . S
C887 H873 0.960 . S
C887 H874 0.961 . S
C887 H875 0.959 . S
C887 C885 1.561 . S
C888 C885 1.526 . S
C888 C889 1.396 . S
C888 C893 1.390 . S
C889 C883 1.465 . S
C889 C888 1.396 . S
C889 C890 1.399 . S
C890 H876 0.929 . S
C890 C889 1.399 . S
C890 C891 1.385 . S
C891 H877 0.931 . S
C891 C890 1.385 . S
C891 C892 1.389 . S
C892 C891 1.389 . S
C892 C893 1.387 . S
C893 H878 0.930 . S
C893 C888 1.390 . S
C893 C892 1.387 . S
H894 C906 0.930 . S
H895 C908 0.930 . S
H896 C909 0.930 . S
H897 C913 0.959 . S
H898 C913 0.959 . S
H899 C913 0.961 . S
H900 C914 0.960 . S
H901 C914 0.961 . S
H902 C914 0.959 . S
H903 C917 0.929 . S
H904 C918 0.931 . S
H905 C920 0.930 . S
C906 H894 0.930 . S
C906 C907 1.399 . S
C906 C911 1.399 . S
C907 C906 1.399 . S
C907 C908 1.376 . S
C908 H895 0.930 . S
C908 C907 1.376 . S
C908 C909 1.388 . S
C909 H896 0.930 . S
C909 C908 1.388 . S
C909 C910 1.390 . S
C910 C909 1.390 . S
C910 C911 1.394 . S
C910 C916 1.465 . S
C911 C906 1.399 . S
C911 C910 1.394 . S
C911 C912 1.516 . S
C912 C911 1.516 . S
C912 C913 1.502 . S
C912 C914 1.561 . S
C912 C915 1.526 . S
C913 H897 0.959 . S
C913 H898 0.959 . S
C913 H899 0.961 . S
C913 C912 1.502 . S
C914 H900 0.960 . S
C914 H901 0.961 . S
C914 H902 0.959 . S
C914 C912 1.561 . S
C915 C912 1.526 . S
C915 C916 1.396 . S
C915 C920 1.390 . S
C916 C910 1.465 . S
C916 C915 1.396 . S
C916 C917 1.399 . S
C917 H903 0.929 . S
C917 C916 1.399 . S
C917 C918 1.385 . S
C918 H904 0.931 . S
C918 C917 1.385 . S
C918 C919 1.389 . S
C919 C918 1.389 . S
C919 C920 1.387 . S
C920 H905 0.930 . S
C920 C915 1.390 . S
C920 C919 1.387 . S
H921 C933 0.930 . S
H922 C935 0.930 . S
H923 C936 0.930 1_655 S
H924 C940 0.959 . S
H925 C940 0.959 . S
H926 C940 0.961 . S
H927 C941 0.960 . S
H928 C941 0.961 . S
H929 C941 0.959 . S
H930 C944 0.929 . S
H931 C945 0.931 . S
H932 C947 0.930 . S
C933 H921 0.930 . S
C933 C934 1.399 . S
C933 C938 1.399 . S
C934 C933 1.399 . S
C934 C935 1.376 . S
C935 H922 0.930 . S
C935 C934 1.376 . S
C935 C936 1.388 . S
C936 H923 0.930 1_455 S
C936 C935 1.388 . S
C936 C937 1.390 1_455 S
C937 C936 1.390 1_655 S
C937 C938 1.394 1_655 S
C937 C943 1.465 . S
C938 C933 1.399 . S
C938 C937 1.394 1_455 S
C938 C939 1.516 . S
C939 C938 1.516 . S
C939 C940 1.502 . S
C939 C941 1.561 1_455 S
C939 C942 1.526 1_455 S
C940 H924 0.959 . S
C940 H925 0.959 . S
C940 H926 0.961 . S
C940 C939 1.502 . S
C941 H927 0.960 . S
C941 H928 0.961 . S
C941 H929 0.959 . S
C941 C939 1.561 1_655 S
C942 C939 1.526 1_655 S
C942 C943 1.396 . S
C942 C947 1.390 . S
C943 C937 1.465 . S
C943 C942 1.396 . S
C943 C944 1.399 . S
C944 H930 0.929 . S
C944 C943 1.399 . S
C944 C945 1.385 . S
C945 H931 0.931 . S
C945 C944 1.385 . S
C945 C946 1.389 . S
C946 C945 1.389 . S
C946 C947 1.387 . S
C947 H932 0.930 . S
C947 C942 1.390 . S
C947 C946 1.387 . S
H948 C960 0.930 . S
H949 C962 0.930 . S
H950 C963 0.930 . S
H951 C967 0.959 . S
H952 C967 0.959 . S
H953 C967 0.961 . S
H954 C968 0.960 1_565 S
H955 C968 0.961 . S
H956 C968 0.959 . S
H957 C971 0.929 . S
H958 C972 0.931 . S
H959 C974 0.930 . S
C960 H948 0.930 . S
C960 C961 1.399 . S
C960 C965 1.399 . S
C961 C960 1.399 . S
C961 C962 1.376 . S
C962 H949 0.930 . S
C962 C961 1.376 . S
C962 C963 1.388 1_565 S
C963 H950 0.930 . S
C963 C962 1.388 1_545 S
C963 C964 1.390 . S
C964 C963 1.390 . S
C964 C965 1.394 1_545 S
C964 C970 1.465 . S
C965 C960 1.399 . S
C965 C964 1.394 1_565 S
C965 C966 1.516 . S
C966 C965 1.516 . S
C966 C967 1.502 . S
C966 C968 1.561 1_565 S
C966 C969 1.526 1_565 S
C967 H951 0.959 . S
C967 H952 0.959 . S
C967 H953 0.961 . S
C967 C966 1.502 . S
C968 H954 0.960 1_545 S
C968 H955 0.961 . S
C968 H956 0.959 . S
C968 C966 1.561 1_545 S
C969 C966 1.526 1_545 S
C969 C970 1.396 . S
C969 C974 1.390 . S
C970 C964 1.465 . S
C970 C969 1.396 . S
C970 C971 1.399 . S
C971 H957 0.929 . S
C971 C970 1.399 . S
C971 C972 1.385 . S
C972 H958 0.931 . S
C972 C971 1.385 . S
C972 C973 1.389 . S
C973 C972 1.389 . S
C973 C974 1.387 . S
C974 H959 0.930 . S
C974 C969 1.390 . S
C974 C973 1.387 . S
H975 C987 0.930 . S
H976 C989 0.930 . S
H977 C990 0.930 . S
H978 C994 0.959 . S
H979 C994 0.959 . S
H980 C994 0.961 . S
H981 C995 0.960 . S
H982 C995 0.961 . S
H983 C995 0.959 . S
H984 C998 0.929 . S
H985 C999 0.931 . S
H986 C1001 0.930 . S
C987 H975 0.930 . S
C987 C988 1.399 . S
C987 C992 1.399 . S
C988 C987 1.399 . S
C988 C989 1.376 . S
C989 H976 0.930 . S
C989 C988 1.376 . S
C989 C990 1.388 . S
C990 H977 0.930 . S
C990 C989 1.388 . S
C990 C991 1.390 . S
C991 C990 1.390 . S
C991 C992 1.394 . S
C991 C997 1.465 . S
C992 C987 1.399 . S
C992 C991 1.394 . S
C992 C993 1.516 . S
C993 C992 1.516 . S
C993 C994 1.502 . S
C993 C995 1.561 . S
C993 C996 1.526 . S
C994 H978 0.959 . S
C994 H979 0.959 . S
C994 H980 0.961 . S
C994 C993 1.502 . S
C995 H981 0.960 . S
C995 H982 0.961 . S
C995 H983 0.959 . S
C995 C993 1.561 . S
C996 C993 1.526 . S
C996 C997 1.396 . S
C996 C1001 1.390 . S
C997 C991 1.465 . S
C997 C996 1.396 . S
C997 C998 1.399 . S
C998 H984 0.929 . S
C998 C997 1.399 . S
C998 C999 1.385 . S
C999 H985 0.931 . S
C999 C998 1.385 . S
C999 C1000 1.389 . S
C1000 C999 1.389 . S
C1000 C1001 1.387 . S
C1001 H986 0.930 . S
C1001 C996 1.390 . S
C1001 C1000 1.387 . S
H1002 C1014 0.930 . S
H1003 C1016 0.930 . S
H1004 C1017 0.930 . S
H1005 C1021 0.959 . S
H1006 C1021 0.959 1_655 S
H1007 C1021 0.961 . S
H1008 C1022 0.960 . S
H1009 C1022 0.961 . S
H1010 C1022 0.959 . S
H1011 C1025 0.929 . S
H1012 C1026 0.931 . S
H1013 C1028 0.930 . S
C1014 H1002 0.930 . S
C1014 C1015 1.399 . S
C1014 C1019 1.399 . S
C1015 C1014 1.399 . S
C1015 C1016 1.376 . S
C1016 H1003 0.930 . S
C1016 C1015 1.376 . S
C1016 C1017 1.388 . S
C1017 H1004 0.930 . S
C1017 C1016 1.388 . S
C1017 C1018 1.390 . S
C1018 C1017 1.390 . S
C1018 C1019 1.394 . S
C1018 C1024 1.465 1_455 S
C1019 C1014 1.399 . S
C1019 C1018 1.394 . S
C1019 C1020 1.516 1_455 S
C1020 C1019 1.516 1_655 S
C1020 C1021 1.502 1_655 S
C1020 C1022 1.561 . S
C1020 C1023 1.526 . S
C1021 H1005 0.959 . S
C1021 H1006 0.959 1_455 S
C1021 H1007 0.961 . S
C1021 C1020 1.502 1_455 S
C1022 H1008 0.960 . S
C1022 H1009 0.961 . S
C1022 H1010 0.959 . S
C1022 C1020 1.561 . S
C1023 C1020 1.526 . S
C1023 C1024 1.396 . S
C1023 C1028 1.390 . S
C1024 C1018 1.465 1_655 S
C1024 C1023 1.396 . S
C1024 C1025 1.399 . S
C1025 H1011 0.929 . S
C1025 C1024 1.399 . S
C1025 C1026 1.385 . S
C1026 H1012 0.931 . S
C1026 C1025 1.385 . S
C1026 C1027 1.389 . S
C1027 C1026 1.389 . S
C1027 C1028 1.387 . S
C1028 H1013 0.930 . S
C1028 C1023 1.390 . S
C1028 C1027 1.387 . S
H1029 C1041 0.930 . S
H1030 C1043 0.930 . S
H1031 C1044 0.930 1_545 S
H1032 C1048 0.959 . S
H1033 C1048 0.959 . S
H1034 C1048 0.961 . S
H1035 C1049 0.960 . S
H1036 C1049 0.961 . S
H1037 C1049 0.959 . S
H1038 C1052 0.929 . S
H1039 C1053 0.931 . S
H1040 C1055 0.930 . S
C1041 H1029 0.930 . S
C1041 C1042 1.399 . S
C1041 C1046 1.399 . S
C1042 C1041 1.399 . S
C1042 C1043 1.376 . S
C1043 H1030 0.930 . S
C1043 C1042 1.376 . S
C1043 C1044 1.388 . S
C1044 H1031 0.930 1_565 S
C1044 C1043 1.388 . S
C1044 C1045 1.390 . S
C1045 C1044 1.390 . S
C1045 C1046 1.394 . S
C1045 C1051 1.465 1_565 S
C1046 C1041 1.399 . S
C1046 C1045 1.394 . S
C1046 C1047 1.516 . S
C1047 C1046 1.516 . S
C1047 C1048 1.502 . S
C1047 C1049 1.561 1_565 S
C1047 C1050 1.526 1_565 S
C1048 H1032 0.959 . S
C1048 H1033 0.959 . S
C1048 H1034 0.961 . S
C1048 C1047 1.502 . S
C1049 H1035 0.960 . S
C1049 H1036 0.961 . S
C1049 H1037 0.959 . S
C1049 C1047 1.561 1_545 S
C1050 C1047 1.526 1_545 S
C1050 C1051 1.396 . S
C1050 C1055 1.390 . S
C1051 C1045 1.465 1_545 S
C1051 C1050 1.396 . S
C1051 C1052 1.399 . S
C1052 H1038 0.929 . S
C1052 C1051 1.399 . S
C1052 C1053 1.385 . S
C1053 H1039 0.931 . S
C1053 C1052 1.385 . S
C1053 C1054 1.389 . S
C1054 C1053 1.389 . S
C1054 C1055 1.387 . S
C1055 H1040 0.930 . S
C1055 C1050 1.390 . S
C1055 C1054 1.387 . S
H1056 C1068 0.930 . S
H1057 C1070 0.930 . S
H1058 C1071 0.930 . S
H1059 C1075 0.959 . S
H1060 C1075 0.959 1_655 S
H1061 C1075 0.961 . S
H1062 C1076 0.960 1_455 S
H1063 C1076 0.961 1_565 S
H1064 C1076 0.959 . S
H1065 C1079 0.929 1_545 S
H1066 C1080 0.931 . S
H1067 C1082 0.930 . S
C1068 H1056 0.930 . S
C1068 C1069 1.399 . S
C1068 C1073 1.399 . S
C1069 C1068 1.399 . S
C1069 C1070 1.376 . S
C1070 H1057 0.930 . S
C1070 C1069 1.376 . S
C1070 C1071 1.388 . S
C1071 H1058 0.930 . S
C1071 C1070 1.388 . S
C1071 C1072 1.390 . S
C1072 C1071 1.390 . S
C1072 C1073 1.394 . S
C1072 C1078 1.465 1_445 S
C1073 C1068 1.399 . S
C1073 C1072 1.394 . S
C1073 C1074 1.516 1_545 S
C1074 C1073 1.516 1_565 S
C1074 C1075 1.502 . S
C1074 C1076 1.561 1_465 S
C1074 C1077 1.526 1_455 S
C1075 H1059 0.959 . S
C1075 H1060 0.959 1_455 S
C1075 H1061 0.961 . S
C1075 C1074 1.502 . S
C1076 H1062 0.960 1_655 S
C1076 H1063 0.961 1_545 S
C1076 H1064 0.959 . S
C1076 C1074 1.561 1_645 S
C1077 C1074 1.526 1_655 S
C1077 C1078 1.396 . S
C1077 C1082 1.390 . S
C1078 C1072 1.465 1_665 S
C1078 C1077 1.396 . S
C1078 C1079 1.399 . S
C1079 H1065 0.929 1_565 S
C1079 C1078 1.399 . S
C1079 C1080 1.385 . S
C1080 H1066 0.931 . S
C1080 C1079 1.385 . S
C1080 C1081 1.389 . S
C1081 C1080 1.389 . S
C1081 C1082 1.387 . S
C1082 H1067 0.930 . S
C1082 C1077 1.390 . S
C1082 C1081 1.387 . S
H1083 C1095 0.930 1_655 S
H1084 C1097 0.930 . S
H1085 C1098 0.930 . S
H1086 C1102 0.959 . S
H1087 C1102 0.959 . S
H1088 C1102 0.961 1_545 S
H1089 C1103 0.960 1_545 S
H1090 C1103 0.961 . S
H1091 C1103 0.959 . S
H1092 C1106 0.929 . S
H1093 C1107 0.931 . S
H1094 C1109 0.930 . S
C1095 H1083 0.930 1_455 S
C1095 C1096 1.399 . S
C1095 C1100 1.399 1_455 S
C1096 C1095 1.399 . S
C1096 C1097 1.376 . S
C1097 H1084 0.930 . S
C1097 C1096 1.376 . S
C1097 C1098 1.388 . S
C1098 H1085 0.930 . S
C1098 C1097 1.388 . S
C1098 C1099 1.390 . S
C1099 C1098 1.390 . S
C1099 C1100 1.394 1_455 S
C1099 C1105 1.465 1_545 S
C1100 C1095 1.399 1_655 S
C1100 C1099 1.394 1_655 S
C1100 C1101 1.516 1_545 S
C1101 C1100 1.516 1_565 S
C1101 C1102 1.502 . S
C1101 C1103 1.561 . S
C1101 C1104 1.526 . S
C1102 H1086 0.959 . S
C1102 H1087 0.959 . S
C1102 H1088 0.961 1_565 S
C1102 C1101 1.502 . S
C1103 H1089 0.960 1_565 S
C1103 H1090 0.961 . S
C1103 H1091 0.959 . S
C1103 C1101 1.561 . S
C1104 C1101 1.526 . S
C1104 C1105 1.396 1_655 S
C1104 C1109 1.390 . S
C1105 C1099 1.465 1_565 S
C1105 C1104 1.396 1_455 S
C1105 C1106 1.399 . S
C1106 H1092 0.929 . S
C1106 C1105 1.399 . S
C1106 C1107 1.385 . S
C1107 H1093 0.931 . S
C1107 C1106 1.385 . S
C1107 C1108 1.389 1_455 S
C1108 C1107 1.389 1_655 S
C1108 C1109 1.387 . S
C1109 H1094 0.930 . S
C1109 C1104 1.390 . S
C1109 C1108 1.387 . S
H1110 C1122 0.930 . S
H1111 C1124 0.930 1_565 S
H1112 C1125 0.930 . S
H1113 C1129 0.959 . S
H1114 C1129 0.959 . S
H1115 C1129 0.961 . S
H1116 C1130 0.960 . S
H1117 C1130 0.961 . S
H1118 C1130 0.954 1_565 S
H1119 C1133 0.929 . S
H1120 C1134 0.931 . S
H1121 C1136 0.930 1_545 S
C1122 H1110 0.930 . S
C1122 C1123 1.399 . S
C1122 C1127 1.399 . S
C1123 C1122 1.399 . S
C1123 C1124 1.376 . S
C1124 H1111 0.930 1_545 S
C1124 C1123 1.376 . S
C1124 C1125 1.388 1_545 S
C1125 H1112 0.930 . S
C1125 C1124 1.388 1_565 S
C1125 C1126 1.390 . S
C1126 C1125 1.390 . S
C1126 C1127 1.394 1_565 S
C1126 C1132 1.465 . S
C1127 C1122 1.399 . S
C1127 C1126 1.394 1_545 S
C1127 C1128 1.516 1_655 S
C1128 C1127 1.516 1_455 S
C1128 C1129 1.502 . S
C1128 C1130 1.561 . S
C1128 C1131 1.526 1_545 S
C1129 H1113 0.959 . S
C1129 H1114 0.959 . S
C1129 H1115 0.961 . S
C1129 C1128 1.502 . S
C1130 H1116 0.960 . S
C1130 H1117 0.961 . S
C1130 H1118 0.954 1_545 S
C1130 C1128 1.561 . S
C1131 C1128 1.526 1_565 S
C1131 C1132 1.396 1_455 S
C1131 C1136 1.390 . S
C1132 C1126 1.465 . S
C1132 C1131 1.396 1_655 S
C1132 C1133 1.399 . S
C1133 H1119 0.929 . S
C1133 C1132 1.399 . S
C1133 C1134 1.385 1_655 S
C1134 H1120 0.931 . S
C1134 C1133 1.385 1_455 S
C1134 C1135 1.389 . S
C1135 C1134 1.389 . S
C1135 C1136 1.387 . S
C1136 H1121 0.930 1_565 S
C1136 C1131 1.390 . S
C1136 C1135 1.387 . S
H1137 C1149 0.930 . S
H1138 C1151 0.930 . S
H1139 C1152 0.930 . S
H1140 C1156 0.959 . S
H1141 C1156 0.959 1_545 S
H1142 C1156 0.961 . S
H1143 C1157 0.960 1_565 S
H1144 C1157 0.961 1_455 S
H1145 C1157 0.959 . S
H1146 C1160 0.929 1_655 S
H1147 C1161 0.931 . S
H1148 C1163 0.930 . S
C1149 H1137 0.930 . S
C1149 C1150 1.399 . S
C1149 C1154 1.399 . S
C1150 C1149 1.399 . S
C1150 C1151 1.376 . S
C1151 H1138 0.930 . S
C1151 C1150 1.376 . S
C1151 C1152 1.388 . S
C1152 H1139 0.930 . S
C1152 C1151 1.388 . S
C1152 C1153 1.390 . S
C1153 C1152 1.390 . S
C1153 C1154 1.394 . S
C1153 C1159 1.465 1_665 S
C1154 C1149 1.399 . S
C1154 C1153 1.394 . S
C1154 C1155 1.516 1_655 S
C1155 C1154 1.516 1_455 S
C1155 C1156 1.502 . S
C1155 C1157 1.561 1_465 S
C1155 C1158 1.526 1_565 S
C1156 H1140 0.959 . S
C1156 H1141 0.959 1_565 S
C1156 H1142 0.961 . S
C1156 C1155 1.502 . S
C1157 H1143 0.960 1_545 S
C1157 H1144 0.961 1_655 S
C1157 H1145 0.959 . S
C1157 C1155 1.561 1_645 S
C1158 C1155 1.526 1_545 S
C1158 C1159 1.396 . S
C1158 C1163 1.390 . S
C1159 C1153 1.465 1_445 S
C1159 C1158 1.396 . S
C1159 C1160 1.399 . S
C1160 H1146 0.929 1_455 S
C1160 C1159 1.399 . S
C1160 C1161 1.385 . S
C1161 H1147 0.931 . S
C1161 C1160 1.385 . S
C1161 C1162 1.389 . S
C1162 C1161 1.389 . S
C1162 C1163 1.387 . S
C1163 H1148 0.930 . S
C1163 C1158 1.390 . S
C1163 C1162 1.387 . S
H1164 C1176 0.930 . S
H1165 C1178 0.930 . S
H1166 C1179 0.930 . S
H1167 C1183 0.959 1_445 S
H1168 C1183 0.959 . S
H1169 C1183 0.961 . S
H1170 C1184 0.960 . S
H1171 C1184 0.961 . S
H1172 C1184 0.959 . S
H1173 C1187 0.929 1_545 S
H1174 C1188 0.931 . S
H1175 C1190 0.930 . S
C1176 H1164 0.930 . S
C1176 C1177 1.399 . S
C1176 C1181 1.399 . S
C1177 C1176 1.399 . S
C1177 C1178 1.376 . S
C1178 H1165 0.930 . S
C1178 C1177 1.376 . S
C1178 C1179 1.388 1_655 S
C1179 H1166 0.930 . S
C1179 C1178 1.388 1_455 S
C1179 C1180 1.390 1_455 S
C1180 C1179 1.390 1_655 S
C1180 C1181 1.394 . S
C1180 C1186 1.465 1_645 S
C1181 C1176 1.399 . S
C1181 C1180 1.394 . S
C1181 C1182 1.516 1_545 S
C1182 C1181 1.516 1_565 S
C1182 C1183 1.502 . S
C1182 C1184 1.561 . S
C1182 C1185 1.526 1_655 S
C1183 H1167 0.959 1_665 S
C1183 H1168 0.959 . S
C1183 H1169 0.961 . S
C1183 C1182 1.502 . S
C1184 H1170 0.960 . S
C1184 H1171 0.961 . S
C1184 H1172 0.959 . S
C1184 C1182 1.561 . S
C1185 C1182 1.526 1_455 S
C1185 C1186 1.396 . S
C1185 C1190 1.390 . S
C1186 C1180 1.465 1_465 S
C1186 C1185 1.396 . S
C1186 C1187 1.399 . S
C1187 H1173 0.929 1_565 S
C1187 C1186 1.399 . S
C1187 C1188 1.385 . S
C1188 H1174 0.931 . S
C1188 C1187 1.385 . S
C1188 C1189 1.389 . S
C1189 C1188 1.389 . S
C1189 C1190 1.387 . S
C1190 H1175 0.930 . S
C1190 C1185 1.390 . S
C1190 C1189 1.387 . S
H1191 C1203 0.930 . S
H1192 C1205 0.930 . S
H1193 C1206 0.930 . S
H1194 C1210 0.959 . S
H1195 C1210 0.959 . S
H1196 C1210 0.961 1_455 S
H1197 C1211 0.960 1_455 S
H1198 C1211 0.961 . S
H1199 C1211 0.959 . S
H1200 C1214 0.929 . S
H1201 C1215 0.931 . S
H1202 C1217 0.930 . S
C1203 H1191 0.930 . S
C1203 C1204 1.399 . S
C1203 C1208 1.398 . S
C1204 C1203 1.399 . S
C1204 C1205 1.376 . S
C1205 H1192 0.930 . S
C1205 C1204 1.376 . S
C1205 C1206 1.388 . S
C1206 H1193 0.930 . S
C1206 C1205 1.388 . S
C1206 C1207 1.390 . S
C1207 C1206 1.390 . S
C1207 C1208 1.396 . S
C1207 C1213 1.465 1_455 S
C1208 C1203 1.398 . S
C1208 C1207 1.396 . S
C1208 C1209 1.515 1_445 S
C1209 C1208 1.515 1_665 S
C1209 C1210 1.502 . S
C1209 C1211 1.561 . S
C1209 C1212 1.526 . S
C1210 H1194 0.959 . S
C1210 H1195 0.959 . S
C1210 H1196 0.961 1_655 S
C1210 C1209 1.502 . S
C1211 H1197 0.960 1_655 S
C1211 H1198 0.961 . S
C1211 H1199 0.959 . S
C1211 C1209 1.561 . S
C1212 C1209 1.526 . S
C1212 C1213 1.396 1_565 S
C1212 C1217 1.390 . S
C1213 C1207 1.465 1_655 S
C1213 C1212 1.396 1_545 S
C1213 C1214 1.399 . S
C1214 H1200 0.929 . S
C1214 C1213 1.399 . S
C1214 C1215 1.385 1_545 S
C1215 H1201 0.931 . S
C1215 C1214 1.385 1_565 S
C1215 C1216 1.389 . S
C1216 C1215 1.389 . S
C1216 C1217 1.387 . S
C1217 H1202 0.930 . S
C1217 C1212 1.390 . S
C1217 C1216 1.387 . S
C421 C9 1.474 . S
C433 C247 1.419 . S
C448 C43 1.485 . S
C460 C281 1.428 . S
C475 C77 1.428 . S
C487 C315 1.441 . S
C502 C349 1.440 . S
C514 C111 1.487 . S
C529 C383 1.447 . S
C541 C145 1.486 . S
C556 C179 1.479 . S
C568 C213 1.463 . S
C583 C122 0.596 . S
C595 C20 0.545 . S
C610 C54 0.559 . S
C622 C156 0.586 . S
C637 C190 0.591 . S
C649 C88 0.553 . S
C664 C326 0.530 . S
C676 C224 0.596 . S
C691 C360 0.593 . S
C703 C258 0.551 . S
C718 C292 0.602 . S
C730 C394 0.539 . S
C745 C277 1.478 . S
C757 C5 1.496 . S
C772 C39 1.493 . S
C784 C311 1.505 . S
C799 C73 1.484 . S
C811 C345 1.502 . S
C826 C107 1.505 . S
C838 C379 1.494 . S
C853 C141 1.486 . S
C865 C209 1.475 . S
C880 C243 1.475 . S
C892 C175 1.482 . S
C907 C135 2.238 . S
C919 C33 2.228 . S
C934 C67 2.238 . S
C946 C169 2.227 . S
C961 C203 2.239 . S
C973 C101 2.225 . S
C988 C237 2.234 . S
C1000 C339 2.232 . S
C1015 C271 2.233 . S
C1027 C373 2.232 . S
C1042 C407 2.237 . S
C1054 C305 2.228 . S
C1069 C2 1.487 . S
C1081 C104 1.456 . S
C1096 C36 1.440 . S
C1108 C138 1.491 . S
C1123 C70 1.492 . S
C1135 C172 1.445 . S
C1150 C206 1.487 . S
C1162 C308 1.456 . S
C1177 C342 1.469 . S
C1189 C240 1.452 . S
C1204 C274 1.461 . S
C1216 C376 1.483 . S
