# Generated by pormake.
# Topology unn, (4)-cn, num edge types: 1
# Building blocks:
#     Node 0, Type 0, BuildingBlock: CEKHIL_clean_sbu_0, # of connection points: 4
#     Node 1, Type 0, BuildingBlock: CEKHIL_clean_sbu_0, # of connection points: 4
#     Node 2, Type 0, BuildingBlock: CEKHIL_clean_sbu_0, # of connection points: 4
#     Node 3, Type 0, BuildingBlock: CEKHIL_clean_sbu_0, # of connection points: 4
#     Node 4, Type 0, BuildingBlock: CEKHIL_clean_sbu_0, # of connection points: 4
#     Node 5, Type 0, BuildingBlock: CEKHIL_clean_sbu_0, # of connection points: 4
#     Node 6, Type 0, BuildingBlock: CEKHIL_clean_sbu_0, # of connection points: 4
#     Node 7, Type 0, BuildingBlock: CEKHIL_clean_sbu_0, # of connection points: 4
#     Node 8, Type 0, BuildingBlock: CEKHIL_clean_sbu_0, # of connection points: 4
#     Node 9, Type 0, BuildingBlock: CEKHIL_clean_sbu_0, # of connection points: 4
#     Node 10, Type 0, BuildingBlock: CEKHIL_clean_sbu_0, # of connection points: 4
#     Node 11, Type 0, BuildingBlock: CEKHIL_clean_sbu_0, # of connection points: 4
#     Node 12, Type 0, BuildingBlock: CEKHIL_clean_sbu_0, # of connection points: 4
#     Node 13, Type 0, BuildingBlock: CEKHIL_clean_sbu_0, # of connection points: 4
#     Node 14, Type 0, BuildingBlock: CEKHIL_clean_sbu_0, # of connection points: 4
#     Node 15, Type 0, BuildingBlock: CEKHIL_clean_sbu_0, # of connection points: 4
#     Node 16, Type 0, BuildingBlock: CEKHIL_clean_sbu_0, # of connection points: 4
#     Node 17, Type 0, BuildingBlock: CEKHIL_clean_sbu_0, # of connection points: 4
#     Edge 18, Type (0, 0), BuildingBlock: TEMPAE_clean_linker_10, # of connection points: 2
#     Edge 19, Type (0, 0), BuildingBlock: TEMPAE_clean_linker_10, # of connection points: 2
#     Edge 20, Type (0, 0), BuildingBlock: TEMPAE_clean_linker_10, # of connection points: 2
#     Edge 21, Type (0, 0), BuildingBlock: TEMPAE_clean_linker_10, # of connection points: 2
#     Edge 22, Type (0, 0), BuildingBlock: TEMPAE_clean_linker_10, # of connection points: 2
#     Edge 23, Type (0, 0), BuildingBlock: TEMPAE_clean_linker_10, # of connection points: 2
#     Edge 24, Type (0, 0), BuildingBlock: TEMPAE_clean_linker_10, # of connection points: 2
#     Edge 25, Type (0, 0), BuildingBlock: TEMPAE_clean_linker_10, # of connection points: 2
#     Edge 26, Type (0, 0), BuildingBlock: TEMPAE_clean_linker_10, # of connection points: 2
#     Edge 27, Type (0, 0), BuildingBlock: TEMPAE_clean_linker_10, # of connection points: 2
#     Edge 28, Type (0, 0), BuildingBlock: TEMPAE_clean_linker_10, # of connection points: 2
#     Edge 29, Type (0, 0), BuildingBlock: TEMPAE_clean_linker_10, # of connection points: 2
#     Edge 30, Type (0, 0), BuildingBlock: TEMPAE_clean_linker_10, # of connection points: 2
#     Edge 31, Type (0, 0), BuildingBlock: TEMPAE_clean_linker_10, # of connection points: 2
#     Edge 32, Type (0, 0), BuildingBlock: TEMPAE_clean_linker_10, # of connection points: 2
#     Edge 33, Type (0, 0), BuildingBlock: TEMPAE_clean_linker_10, # of connection points: 2
#     Edge 34, Type (0, 0), BuildingBlock: TEMPAE_clean_linker_10, # of connection points: 2
#     Edge 35, Type (0, 0), BuildingBlock: TEMPAE_clean_linker_10, # of connection points: 2
#     Edge 36, Type (0, 0), BuildingBlock: TEMPAE_clean_linker_10, # of connection points: 2
#     Edge 37, Type (0, 0), BuildingBlock: TEMPAE_clean_linker_10, # of connection points: 2
#     Edge 38, Type (0, 0), BuildingBlock: TEMPAE_clean_linker_10, # of connection points: 2
#     Edge 39, Type (0, 0), BuildingBlock: TEMPAE_clean_linker_10, # of connection points: 2
#     Edge 40, Type (0, 0), BuildingBlock: TEMPAE_clean_linker_10, # of connection points: 2
#     Edge 41, Type (0, 0), BuildingBlock: TEMPAE_clean_linker_10, # of connection points: 2
#     Edge 42, Type (0, 0), BuildingBlock: TEMPAE_clean_linker_10, # of connection points: 2
#     Edge 43, Type (0, 0), BuildingBlock: TEMPAE_clean_linker_10, # of connection points: 2
#     Edge 44, Type (0, 0), BuildingBlock: TEMPAE_clean_linker_10, # of connection points: 2
#     Edge 45, Type (0, 0), BuildingBlock: TEMPAE_clean_linker_10, # of connection points: 2
#     Edge 46, Type (0, 0), BuildingBlock: TEMPAE_clean_linker_10, # of connection points: 2
#     Edge 47, Type (0, 0), BuildingBlock: TEMPAE_clean_linker_10, # of connection points: 2
#     Edge 48, Type (0, 0), BuildingBlock: TEMPAE_clean_linker_10, # of connection points: 2
#     Edge 49, Type (0, 0), BuildingBlock: TEMPAE_clean_linker_10, # of connection points: 2
#     Edge 50, Type (0, 0), BuildingBlock: TEMPAE_clean_linker_10, # of connection points: 2
#     Edge 51, Type (0, 0), BuildingBlock: TEMPAE_clean_linker_10, # of connection points: 2
#     Edge 52, Type (0, 0), BuildingBlock: TEMPAE_clean_linker_10, # of connection points: 2
#     Edge 53, Type (0, 0), BuildingBlock: TEMPAE_clean_linker_10, # of connection points: 2
# Relax obj value: 0.130
# Max RMSD: 0.232
# Mean RMSD: 0.225
data_MOF--net-unn--node1-CEKHIL_clean_sbu_0--edge1-TEMPAE_clean_linker_10
_symmetry_space_group_name_H-M    P1
_symmetry_Int_Tables_number       1
_symmetry_cell_setting            triclinic
loop_
_symmetry_equiv_pos_as_xyz
'x, y, z'
_cell_length_a     47.058975
_cell_length_b     46.970121
_cell_length_c     37.534692
_cell_angle_alpha  90.234593
_cell_angle_beta   89.871047
_cell_angle_gamma 120.14408
loop_
_atom_site_label
_atom_site_type_symbol
_atom_site_fract_x
_atom_site_fract_y
_atom_site_fract_z
_atom_type_partial_charge
Co0 Co 1.00777 0.77396 0.23437 0.0
O1 O 0.961 0.75014 0.2272 0.0
O2 O 0.99451 0.79533 0.19796 0.0
C3 C 1.00725 0.7723 0.29387 0.0
O4 O 0.05857 0.80383 0.23824 0.0
Co5 Co 0.0338 0.73051 0.26703 0.0
O6 O 0.07614 0.77298 0.26676 0.0
C7 C 1.00304 0.71587 0.19771 0.0
C8 C 0.96467 0.77062 0.20239 0.0
C9 C 0.08153 0.80014 0.25309 0.0
O10 O 0.0116 0.74636 0.19594 0.0
O11 O 1.00603 0.70266 0.22608 0.0
O12 O 1.0041 0.79515 0.27799 0.0
O13 O 1.00601 0.74962 0.2735 0.0
Co14 Co 0.33545 0.2991 0.21316 0.0
O15 O 0.32485 0.33084 0.23132 0.0
O16 O 0.28725 0.27981 0.22046 0.0
C17 C 0.3697 0.33471 0.17181 0.0
O18 O 0.34082 0.26072 0.19263 0.0
Co19 Co 0.40592 0.31658 0.22418 0.0
O20 O 0.39539 0.27969 0.19129 0.0
C21 C 0.36265 0.29819 0.28548 0.0
C22 C 0.2943 0.30877 0.2326 0.0
C23 C 0.36605 0.258 0.1835 0.0
O24 O 0.33899 0.2873 0.26317 0.0
O25 O 0.39278 0.31343 0.27581 0.0
O26 O 0.33871 0.31514 0.16544 0.0
O27 O 0.37903 0.33323 0.20387 0.0
Co28 Co 0.68502 0.94122 0.26025 0.0
O29 O 0.65494 0.89588 0.27176 0.0
O30 O 0.70233 0.92645 0.29913 0.0
C31 C 0.6847 0.93605 0.20112 0.0
O32 O 0.72174 0.98989 0.25265 0.0
Co33 Co 0.65409 0.97659 0.2188 0.0
O34 O 0.70065 0.01124 0.21368 0.0
C35 C 0.64299 0.96671 0.29534 0.0
C36 C 0.67522 0.89812 0.29625 0.0
C37 C 0.72443 0.0132 0.23179 0.0
O38 O 0.66233 0.9549 0.29588 0.0
O39 O 0.63492 0.97577 0.26686 0.0
O40 O 0.70281 0.92861 0.22058 0.0
O41 O 0.66368 0.94097 0.21836 0.0
Co42 Co 0.0345 0.35395 0.72811 0.0
O43 O 0.07495 0.38409 0.75164 0.0
O44 O 0.05831 0.33164 0.74527 0.0
C45 C 0.04405 0.38694 0.681 0.0
O46 O 0.99227 0.31692 0.70336 0.0
Co47 Co 0.98565 0.37838 0.72128 0.0
O48 O 0.96353 0.34141 0.68704 0.0
C49 C 0.99281 0.35447 0.79014 0.0
C50 C 0.08055 0.36041 0.75749 0.0
C51 C 0.96816 0.31693 0.68642 0.0
O52 O 0.0109 0.34497 0.77468 0.0
O53 O 0.9821 0.37135 0.77445 0.0
O54 O 0.05526 0.36679 0.68222 0.0
O55 O 0.03026 0.38928 0.70989 0.0
Co56 Co 0.81196 0.74021 0.74706 0.0
O57 O 0.83364 0.71519 0.7392 0.0
O58 O 0.8413 0.75664 0.7053 0.0
C59 C 0.81907 0.74736 0.80602 0.0
O60 O 0.79227 0.77116 0.75008 0.0
Co61 Co 0.74802 0.70392 0.79239 0.0
O62 O 0.74978 0.74692 0.78899 0.0
C63 C 0.74692 0.68309 0.7192 0.0
C64 C 0.84727 0.73273 0.71119 0.0
C65 C 0.76887 0.77089 0.76894 0.0
O66 O 0.77536 0.70875 0.7151 0.0
O67 O 0.73251 0.67447 0.74942 0.0
O68 O 0.84269 0.76677 0.78467 0.0
O69 O 0.7951 0.72173 0.79123 0.0
Co70 Co 0.26353 0.96354 0.77599 0.0
O71 O 0.29809 1.00569 0.76017 0.0
O72 O 0.24598 0.99181 0.76039 0.0
C73 C 0.28854 0.96123 0.82559 0.0
O74 O 0.22251 0.92034 0.7928 0.0
Co75 Co 0.28236 0.90894 0.7741 0.0
O76 O 0.24143 0.88515 0.80253 0.0
C77 C 0.276 0.93759 0.70822 0.0
C78 C 0.27633 0.01373 0.75257 0.0
C79 C 0.21914 0.89293 0.80506 0.0
O80 O 0.25893 0.94695 0.72606 0.0
O81 O 0.2902 0.92339 0.72264 0.0
O82 O 0.27273 0.97732 0.82533 0.0
O83 O 0.29222 0.95098 0.7948 0.0
Co84 Co 0.67508 0.11372 0.57586 0.0
O85 O 0.62783 0.09086 0.5728 0.0
O86 O 0.66027 0.13365 0.53962 0.0
C87 C 0.67849 0.11484 0.63518 0.0
O88 O 0.72623 0.14336 0.57551 0.0
Co89 Co 0.70396 0.07245 0.6077 0.0
O90 O 0.74562 0.11516 0.60611 0.0
C91 C 0.67434 0.05628 0.53748 0.0
C92 C 0.63044 0.11018 0.54709 0.0
C93 C 0.75004 0.14115 0.59048 0.0
O94 O 0.67521 0.08397 0.53751 0.0
O95 O 0.68249 0.04517 0.56418 0.0
O96 O 0.67491 0.13731 0.61903 0.0
O97 O 0.67568 0.091 0.61554 0.0
Co98 Co 0.03608 0.64217 0.54735 0.0
O99 O 0.06317 0.62653 0.52612 0.0
O100 O 0.01234 0.60978 0.50937 0.0
C101 C 0.04606 0.63541 0.60412 0.0
O102 O 1.00144 0.65387 0.56648 0.0
Co103 Co 0.07325 0.70656 0.59306 0.0
O104 O 0.02809 0.69187 0.60966 0.0
C105 C 0.07052 0.71153 0.51528 0.0
C106 C 0.03869 0.60739 0.50603 0.0
C107 C 1.00183 0.67199 0.59308 0.0
O108 O 0.05322 0.67995 0.51275 0.0
O109 O 0.0822 0.72694 0.54464 0.0
O110 O 0.02435 0.61066 0.58565 0.0
O111 O 0.06406 0.66203 0.58626 0.0
Co112 Co 0.37413 0.29979 0.60142 0.0
O113 O 0.38847 0.34415 0.58682 0.0
O114 O 0.4157 0.31848 0.57454 0.0
C115 C 0.36212 0.30516 0.65769 0.0
O116 O 0.36403 0.25279 0.61483 0.0
Co117 Co 0.29956 0.25901 0.61979 0.0
O118 O 0.31305 0.22846 0.63923 0.0
C119 C 0.31984 0.27453 0.54594 0.0
C120 C 0.41325 0.34485 0.57122 0.0
C121 C 0.33978 0.22894 0.63202 0.0
O122 O 0.34926 0.28393 0.55582 0.0
O123 O 0.29581 0.26582 0.56748 0.0
O124 O 0.39216 0.31432 0.6486 0.0
O125 O 0.34154 0.29744 0.63164 0.0
Co126 Co 0.67926 0.68434 0.05785 0.0
O127 O 0.63649 0.67263 0.03959 0.0
O128 O 0.66605 0.65219 0.01834 0.0
C129 C 0.66482 0.67733 0.11562 0.0
O130 O 0.7254 0.69248 0.0731 0.0
Co131 Co 0.71293 0.74824 0.10428 0.0
O132 O 0.74133 0.73016 0.11753 0.0
C133 C 0.71887 0.75366 0.02635 0.0
C134 C 0.63861 0.6528 0.01732 0.0
C135 C 0.74523 0.70965 0.09886 0.0
O136 O 0.70074 0.72223 0.02372 0.0
O137 O 0.72632 0.76926 0.05602 0.0
O138 O 0.6593 0.65245 0.09574 0.0
O139 O 0.67488 0.70484 0.09893 0.0
Co140 Co 0.46943 0.06555 0.07428 0.0
O141 O 0.49629 0.04556 0.06889 0.0
O142 O 0.49782 0.08246 0.03181 0.0
C143 C 0.47633 0.0755 0.13279 0.0
O144 O 0.44434 0.09171 0.07521 0.0
Co145 Co 0.40661 0.02515 0.12 0.0
O146 O 0.40368 0.06569 0.11584 0.0
C147 C 0.40786 1.00281 0.04811 0.0
C148 C 0.50811 0.0621 0.03992 0.0
C149 C 0.42038 0.08962 0.09468 0.0
O150 O 0.43489 0.03 0.04349 0.0
O151 O 0.39328 0.99428 0.07825 0.0
O152 O 0.49856 0.09596 0.11078 0.0
O153 O 0.45424 0.04799 0.11906 0.0
Co154 Co 0.93418 0.30499 0.11501 0.0
O155 O 0.96363 0.34988 0.10242 0.0
O156 O 0.91 0.32702 0.09866 0.0
C157 C 0.95896 0.30602 0.16585 0.0
O158 O 0.89842 0.25727 0.12845 0.0
Co159 Co 0.96917 0.26364 0.11352 0.0
O160 O 0.92815 0.23228 0.13877 0.0
C161 C 0.95774 0.28855 0.0477 0.0
C162 C 0.93896 0.35292 0.09333 0.0
C163 C 0.9013 0.23283 0.14045 0.0
O164 O 0.93587 0.29192 0.06449 0.0
O165 O 0.97704 0.28077 0.06324 0.0
O166 O 0.93797 0.31627 0.16543 0.0
O167 O 0.96739 0.30015 0.13521 0.0
Co168 Co 0.33765 0.44162 0.92845 0.0
O169 O 0.29079 0.41472 0.92277 0.0
O170 O 0.32118 0.4587 0.89051 0.0
C171 C 0.33715 0.44241 0.9882 0.0
O172 O 0.38804 0.4749 0.93009 0.0
Co173 Co 0.37058 0.40633 0.96643 0.0
O174 O 0.40851 0.452 0.96766 0.0
C175 C 0.34582 0.38764 0.894 0.0
C176 C 0.29212 0.43336 0.89693 0.0
C177 C 0.41181 0.4762 0.94905 0.0
O178 O 0.3437 0.4138 0.89202 0.0
O179 O 0.35278 0.37799 0.92281 0.0
O180 O 0.33233 0.46354 0.97085 0.0
O181 O 0.33846 0.42032 0.96916 0.0
Co182 Co 0.69585 0.9914 0.87707 0.0
O183 O 0.68423 0.02238 0.89578 0.0
O184 O 0.64873 0.96972 0.89085 0.0
C185 C 0.72318 0.02344 0.8303 0.0
O186 O 0.70186 0.9533 0.85726 0.0
Co187 Co 0.76947 0.01477 0.87608 0.0
O188 O 0.75592 0.97599 0.84484 0.0
C189 C 0.73416 0.99465 0.94348 0.0
C190 C 0.65454 0.99891 0.90062 0.0
C191 C 0.72654 0.95194 0.84351 0.0
O192 O 0.70739 0.98432 0.92601 0.0
O193 O 0.76263 0.01062 0.92921 0.0
O194 O 0.69178 1.00304 0.8289 0.0
O195 O 0.7368 0.02578 0.86087 0.0
Co196 Co 1.00714 0.60751 0.92615 0.0
O197 O 0.98122 0.56065 0.93263 0.0
O198 O 0.02463 0.59307 0.96524 0.0
C199 C 0.01099 0.60778 0.86712 0.0
O200 O 0.03977 0.65794 0.92334 0.0
Co201 Co 0.97035 0.63826 0.8883 0.0
O202 O 0.01494 0.67751 0.88733 0.0
C203 C 0.95593 0.62048 0.96263 0.0
C204 C 1.00029 0.56343 0.95872 0.0
C205 C 0.03976 0.68142 0.90504 0.0
O206 O 0.97915 0.61378 0.9617 0.0
O207 O 0.94646 0.62943 0.93513 0.0
O208 O 0.03026 0.60194 0.88665 0.0
O209 O 0.98678 0.60772 0.88373 0.0
Co210 Co 0.36483 0.01947 0.3901 0.0
O211 O 0.40607 0.05238 0.41007 0.0
O212 O 0.3925 1.00065 0.40521 0.0
C213 C 0.36933 0.05045 0.34255 0.0
O214 O 0.32259 0.97962 0.36833 0.0
Co215 Co 0.31095 0.03686 0.38575 0.0
O216 O 0.29157 1.001 0.35032 0.0
C217 C 0.32218 0.01462 0.45395 0.0
C218 C 0.41437 0.03047 0.4151 0.0
C219 C 0.29787 0.97768 0.35069 0.0
O220 O 0.34452 0.01099 0.43867 0.0
O221 O 0.30578 0.02565 0.43788 0.0
O222 O 0.38207 0.0316 0.34283 0.0
O223 O 0.35638 0.05248 0.37228 0.0
Co224 Co 0.13144 0.40023 0.41248 0.0
O225 O 0.15146 0.37332 0.40681 0.0
O226 O 0.15524 0.40927 0.36695 0.0
C227 C 0.14604 0.41466 0.46948 0.0
O228 O 0.11373 0.43294 0.41166 0.0
Co229 Co 0.07424 0.37631 0.46783 0.0
O230 O 0.07841 0.41966 0.45798 0.0
C231 C 0.06142 0.3441 0.39825 0.0
C232 C 0.16191 0.3864 0.37583 0.0
C233 C 0.09458 0.43836 0.43212 0.0
O234 O 0.09072 0.36521 0.38835 0.0
O235 O 0.05017 0.34305 0.42953 0.0
O236 O 0.16682 0.43107 0.44422 0.0
O237 O 0.11958 0.38858 0.45958 0.0
Co238 Co 0.60303 0.63751 0.44345 0.0
O239 O 0.63034 0.68431 0.43707 0.0
O240 O 0.57708 0.65662 0.42578 0.0
C241 C 0.6229 0.63469 0.49644 0.0
O242 O 0.56826 0.58827 0.44972 0.0
Co243 Co 0.64039 0.5987 0.44247 0.0
O244 O 0.59675 0.56151 0.45636 0.0
C245 C 0.63555 0.62967 0.37781 0.0
C246 C 0.60469 0.68469 0.42558 0.0
C247 C 0.5699 0.56203 0.45646 0.0
O248 O 0.6116 0.63069 0.39282 0.0
O249 O 0.6533 0.62049 0.39436 0.0
O250 O 0.60068 0.64335 0.49445 0.0
O251 O 0.6352 0.63257 0.46642 0.0
C252 C 1.00684 0.70467 0.13413 0.0
C253 C 0.98889 0.6957 0.16578 0.0
C254 C 0.99298 0.68723 0.10261 0.0
C255 C 0.9599 0.66104 0.10263 0.0
C256 C 0.94139 0.6524 0.13454 0.0
C257 C 0.95638 0.66958 0.16605 0.0
C258 C 0.01391 0.69675 0.06934 0.0
C259 C 0.90584 0.62536 0.13526 0.0
C260 C 0.93435 0.64517 0.00666 0.0
C261 C 0.94375 0.62194 -0.00153 0.0
C262 C 0.93494 0.65517 0.04213 0.0
C263 C 0.94592 0.6421 0.0693 0.0
C264 C 0.95076 0.61535 0.06161 0.0
C265 C 0.94897 0.60518 0.02627 0.0
C266 C 0.92771 0.68246 0.04983 0.0
C267 C 0.96276 0.60073 0.08949 0.0
H268 H 0.03187 0.72521 0.13418 0.0
H269 H 0.9424 0.66337 0.19064 0.0
H270 H 0.01456 0.67507 0.05847 0.0
H271 H 1.00313 0.70522 0.04859 0.0
H272 H 0.03956 0.7167 0.07436 0.0
H273 H 0.89407 0.62382 0.16142 0.0
H274 H 0.89184 0.62948 0.11413 0.0
H275 H 0.90395 0.60128 0.12964 0.0
H276 H 0.9297 0.6578 0.98534 0.0
H277 H 0.95529 0.58644 0.02007 0.0
H278 H 0.95111 0.70634 0.05071 0.0
H279 H 0.91544 0.67888 0.07605 0.0
H280 H 0.91191 0.68399 0.02885 0.0
H281 H 0.98945 0.61758 0.09385 0.0
H282 H 0.95906 0.57639 0.08105 0.0
H283 H 0.95018 0.59782 0.11532 0.0
C284 C 0.3224 0.41687 0.04695 0.0
C285 C 0.34368 0.44405 0.02642 0.0
C286 C 0.33354 0.40915 0.07793 0.0
C287 C 0.36707 0.42863 0.08763 0.0
C288 C 0.3873 0.45863 0.06974 0.0
C289 C 0.37518 0.46616 0.03916 0.0
C290 C 0.31051 0.37778 0.0974 0.0
C291 C 0.42271 0.48072 0.08018 0.0
C292 C 0.38287 0.39222 0.16891 0.0
C293 C 0.38463 0.36612 0.15289 0.0
C294 C 0.38088 0.41585 0.14802 0.0
C295 C 0.3816 0.41351 0.1105 0.0
C296 C 0.38884 0.39035 0.09475 0.0
C297 C 0.38949 0.36633 0.11619 0.0
C298 C 0.37335 0.44005 0.16608 0.0
C299 C 0.3914 0.38806 0.05485 0.0
H300 H 0.29799 0.39985 0.03693 0.0
H301 H 0.39141 0.48738 0.02322 0.0
H302 H 0.31632 0.35833 0.0901 0.0
H303 H 0.31353 0.38154 0.12665 0.0
H304 H 0.2844 0.3688 0.09051 0.0
H305 H 0.43144 0.50659 0.0723 0.0
H306 H 0.42641 0.47995 0.10925 0.0
H307 H 0.43806 0.47228 0.06636 0.0
H308 H 0.37872 0.39177 0.1974 0.0
H309 H 0.39064 0.34598 0.10391 0.0
H310 H 0.34633 0.42859 0.16913 0.0
H311 H 0.38228 0.46293 0.15037 0.0
H312 H 0.38444 0.44652 0.1931 0.0
H313 H 0.36644 0.3763 0.04296 0.0
H314 H 0.40282 0.37312 0.04745 0.0
H315 H 0.4061 0.41293 0.04305 0.0
C316 C 0.67961 0.96114 0.14476 0.0
C317 C 0.6926 0.94445 0.1633 0.0
C318 C 0.68919 0.97144 0.10959 0.0
C319 C 0.71169 0.96418 0.09254 0.0
C320 C 0.72477 0.94723 0.1111 0.0
C321 C 0.71517 0.93771 0.14637 0.0
C322 C 0.675 0.98977 0.09056 0.0
C323 C 0.74835 0.93857 0.09349 0.0
C324 C 0.7043 0.95634 0.99259 0.0
C325 C 0.73093 0.98639 0.9815 0.0
C326 C 0.69835 0.94856 0.02868 0.0
C327 C 0.71924 0.97171 0.05431 0.0
C328 C 0.74666 1.00189 0.04336 0.0
C329 C 0.75243 0.00877 0.00682 0.0
C330 C 0.66928 0.91583 0.03935 0.0
C331 C 0.76916 0.0272 0.07021 0.0
H332 H 0.66231 0.96656 0.15783 0.0
H333 H 0.72533 0.92486 0.16068 0.0
H334 H 0.69506 0.01307 0.07931 0.0
H335 H 0.6595 0.97473 0.06797 0.0
H336 H 0.65978 0.99563 0.10845 0.0
H337 H 0.75739 0.9266 0.11218 0.0
H338 H 0.73603 0.92161 0.07076 0.0
H339 H 0.76979 0.96102 0.08259 0.0
H340 H 0.68788 0.9389 0.97289 0.0
H341 H 0.77286 0.0321 -0.00189 0.0
H342 H 0.6514 0.91991 0.05459 0.0
H343 H 0.67741 0.90239 0.05699 0.0
H344 H 0.65646 0.89998 0.01597 0.0
H345 H 0.75505 0.03563 0.08652 0.0
H346 H 0.78995 0.04898 0.05733 0.0
H347 H 0.77922 0.01613 0.08874 0.0
C348 C 0.68488 0.03202 0.48398 0.0
C349 C 0.663 0.03673 0.5048 0.0
C350 C 0.6756 0.01771 0.45007 0.0
C351 C 0.64331 0.00694 0.43752 0.0
C352 C 0.6206 0.01016 0.45949 0.0
C353 C 0.63103 0.0258 0.49265 0.0
C354 C 0.70083 0.01554 0.42705 0.0
C355 C 0.58572 0.99821 0.44772 0.0
C356 C 0.63893 1.00543 0.3371 0.0
C357 C 0.63352 0.97383 0.33005 0.0
C358 C 0.63992 0.01603 0.37228 0.0
C359 C 0.6344 0.99404 0.40067 0.0
C360 C 0.62516 0.96095 0.3933 0.0
C361 C 0.62548 0.95137 0.35799 0.0
C362 C 0.65009 0.0516 0.3791 0.0
C363 C 0.61742 0.93637 0.4228 0.0
H364 H 0.70972 0.04106 0.49348 0.0
H365 H 0.61431 0.02982 0.509 0.0
H366 H 0.69204 0.98956 0.41959 0.0
H367 H 0.70448 0.02946 0.402 0.0
H368 H 0.72496 0.02554 0.44063 0.0
H369 H 0.56935 0.99424 0.47084 0.0
H370 H 0.58518 0.01695 0.4303 0.0
H371 H 0.57568 0.9749 0.43234 0.0
H372 H 0.64543 0.02281 0.3154 0.0
H373 H 0.62112 0.92682 0.35235 0.0
H374 H 0.67488 0.06442 0.39144 0.0
H375 H 0.63293 0.05339 0.39802 0.0
H376 H 0.65088 0.06472 0.35422 0.0
H377 H 0.64051 0.94155 0.43626 0.0
H378 H 0.60512 0.91068 0.41255 0.0
H379 H 0.60138 0.93847 0.44311 0.0
C380 C 0.06836 0.75838 0.48784 0.0
C381 C 0.07239 0.73091 0.48372 0.0
C382 C 0.06158 0.77227 0.45841 0.0
C383 C 0.05976 0.75888 0.42413 0.0
C384 C 0.06727 0.73341 0.41949 0.0
C385 C 0.07287 0.71925 0.4495 0.0
C386 C 0.05329 0.79907 0.46449 0.0
C387 C 0.06691 0.71942 0.3831 0.0
C388 C 0.99814 0.75032 0.35477 0.0
C389 C 0.01807 0.77493 0.33075 0.0
C390 C 0.01098 0.74681 0.38697 0.0
C391 C 0.04494 0.7674 0.39418 0.0
C392 C 0.06474 0.79353 0.37074 0.0
C393 C 0.05075 0.79737 0.33948 0.0
C394 C 0.98867 0.7195 0.41199 0.0
C395 C 0.10119 0.81547 0.37668 0.0
H396 H 0.06773 0.76728 0.51436 0.0
H397 H 0.07624 0.69817 0.44633 0.0
H398 H 0.06546 0.81884 0.44438 0.0
H399 H 0.02637 0.78853 0.46157 0.0
H400 H 0.06061 0.81012 0.4915 0.0
H401 H 0.07845 0.7038 0.38337 0.0
H402 H 0.04115 0.70414 0.37385 0.0
H403 H 0.08003 0.73952 0.3635 0.0
H404 H 0.97289 0.73288 0.3476 0.0
H405 H 0.06606 0.81627 0.32056 0.0
H406 H 0.9925 0.72863 0.43987 0.0
H407 H 0.99456 0.69941 0.41075 0.0
H408 H 0.96233 0.70902 0.40507 0.0
H409 H 0.10703 0.82151 0.40529 0.0
H410 H 0.1111 0.83874 0.36135 0.0
H411 H 0.11404 0.80238 0.36755 0.0
C412 C 0.30422 0.248 0.48666 0.0
C413 C 0.31528 0.27618 0.50775 0.0
C414 C 0.30923 0.25075 0.44967 0.0
C415 C 0.32574 0.28242 0.43393 0.0
C416 C 0.33504 0.31076 0.45508 0.0
C417 C 0.32986 0.30725 0.49189 0.0
C418 C 0.29897 0.22003 0.42787 0.0
C419 C 0.35249 0.34494 0.43934 0.0
C420 C 0.37534 0.29475 0.34967 0.0
C421 C 0.35374 0.29393 0.32359 0.0
C422 C 0.36632 0.2906 0.38578 0.0
C423 C 0.33525 0.28612 0.39585 0.0
C424 C 0.31361 0.28578 0.36967 0.0
C425 C 0.32301 0.28946 0.33386 0.0
C426 C 0.39 0.29106 0.41317 0.0
C427 C 0.28071 0.28199 0.37947 0.0
H428 H 0.29374 0.22412 0.49934 0.0
H429 H 0.33898 0.32899 0.50863 0.0
H430 H 0.28459 0.21958 0.40427 0.0
H431 H 0.32116 0.21996 0.41792 0.0
H432 H 0.28399 0.19725 0.44356 0.0
H433 H 0.35367 0.3637 0.45835 0.0
H434 H 0.37798 0.35169 0.43207 0.0
H435 H 0.34002 0.34584 0.41467 0.0
H436 H 0.39907 0.29826 0.34182 0.0
H437 H 0.30638 0.28941 0.31388 0.0
H438 H 0.37805 0.26789 0.42875 0.0
H439 H 0.39687 0.31164 0.43221 0.0
H440 H 0.41278 0.29392 0.40088 0.0
H441 H 0.26563 0.25852 0.39393 0.0
H442 H 0.26675 0.28228 0.35576 0.0
H443 H 0.28431 0.30222 0.39766 0.0
C444 C 0.97769 0.31293 0.83765 0.0
C445 C 0.98362 0.3441 0.82737 0.0
C446 C 0.97183 0.30305 0.87328 0.0
C447 C 0.97272 0.32524 0.89943 0.0
C448 C 0.97808 0.35659 0.88918 0.0
C449 C 0.98307 0.36554 0.85302 0.0
C450 C 0.96532 0.2691 0.883 0.0
C451 C 0.9797 0.38105 0.91652 0.0
C452 C 0.93401 0.29066 0.98923 0.0
C453 C 0.96129 0.29566 0.00922 0.0
C454 C 0.93735 0.30011 0.95342 0.0
C455 C 0.96886 0.31568 0.93753 0.0
C456 C 0.99654 0.32087 0.95761 0.0
C457 C 0.99234 0.31039 0.99317 0.0
C458 C 0.90716 0.29332 0.93256 0.0
C459 C 0.03062 0.33791 0.94168 0.0
H460 H 0.97783 0.29623 0.81769 0.0
H461 H 0.98794 0.38973 0.84502 0.0
H462 H 0.98551 0.27115 0.9 0.0
H463 H 0.94225 0.25584 0.89863 0.0
H464 H 0.96325 0.25408 0.85916 0.0
H465 H 0.98316 0.40402 0.90411 0.0
H466 H 0.95687 0.37002 0.93265 0.0
H467 H 1.00039 0.38751 0.93511 0.0
H468 H 0.90997 0.2793 0.00166 0.0
H469 H 0.01354 0.3148 0.00878 0.0
H470 H 0.90437 0.27777 0.90899 0.0
H471 H 0.90983 0.31671 0.92252 0.0
H472 H 0.88438 0.28062 0.94879 0.0
H473 H 0.03165 0.32338 0.91886 0.0
H474 H 0.04971 0.34131 0.96132 0.0
H475 H 0.03664 0.3624 0.93127 0.0
C476 C 0.77176 0.78798 -0.00418 0.0
C477 C 0.73736 0.77089 0.99425 0.0
C478 C 0.79047 0.79305 0.96489 0.0
C479 C 0.77422 0.78155 0.93182 0.0
C480 C 0.73992 0.76906 0.92959 0.0
C481 C 0.72169 0.76306 0.96107 0.0
C482 C 0.82699 0.80667 0.96838 0.0
C483 C 0.72201 0.75846 0.89444 0.0
C484 C 0.82007 0.79055 0.84527 0.0
C485 C 0.81446 0.75848 0.84101 0.0
C486 C 0.80799 0.7991 0.87525 0.0
C487 C 0.79107 0.77523 0.90193 0.0
C488 C 0.78785 0.74362 0.8989 0.0
C489 C 0.79897 0.73543 0.86805 0.0
C490 C 0.81102 0.83261 0.87664 0.0
C491 C 0.77095 0.71771 0.9273 0.0
H492 H 0.78387 0.79386 0.02156 0.0
H493 H 0.69506 0.75001 0.95991 0.0
H494 H 0.83208 0.78602 0.96764 0.0
H495 H 0.84048 0.82336 0.94594 0.0
H496 H 0.83667 0.82026 0.99386 0.0
H497 H 0.69716 0.75568 0.89618 0.0
H498 H 0.73618 0.77654 0.87326 0.0
H499 H 0.71918 0.73441 0.88639 0.0
H500 H 0.83168 0.80821 0.82397 0.0
H501 H 0.79459 0.71061 0.86451 0.0
H502 H 0.81431 0.84216 0.90429 0.0
H503 H 0.7881 0.83058 0.866 0.0
H504 H 0.83182 0.8507 0.86003 0.0
H505 H 0.78095 0.72809 0.954 0.0
H506 H 0.77387 0.69593 0.92276 0.0
H507 H 0.7443 0.70931 0.92757 0.0
C508 C 0.3583 0.95787 0.01702 0.0
C509 C 0.39132 0.98305 0.01596 0.0
C510 C 0.34036 0.94515 0.98538 0.0
C511 C 0.35574 0.95842 0.9523 0.0
C512 C 0.38999 0.98062 0.95104 0.0
C513 C 0.40744 0.99247 0.98292 0.0
C514 C 0.30421 0.9201 0.98755 0.0
C515 C 0.40751 0.99507 0.91631 0.0
C516 C 0.31359 0.93468 0.86186 0.0
C517 C 0.30361 0.95808 0.85852 0.0
C518 C 0.329 0.93296 0.8932 0.0
C519 C 0.33547 0.95596 0.92096 0.0
C520 C 0.32475 0.97914 0.91778 0.0
C521 C 0.30858 0.97956 0.88684 0.0
C522 C 0.33906 0.9072 0.89598 0.0
C523 C 0.3315 1.0045 0.94645 0.0
H524 H 0.3458 0.94975 0.0424 0.0
H525 H 0.43325 0.01112 0.98178 0.0
H526 H 0.28977 0.93277 0.98519 0.0
H527 H 0.29675 0.90201 0.9654 0.0
H528 H 0.29784 0.90671 0.01331 0.0
H529 H 0.43466 0.00821 0.91939 0.0
H530 H 0.4003 0.97556 0.89584 0.0
H531 H 0.40038 0.01283 0.90631 0.0
H532 H 0.30939 0.91779 0.84008 0.0
H533 H 0.30087 0.99767 0.88433 0.0
H534 H 0.33728 0.89854 0.9238 0.0
H535 H 0.36494 0.9179 0.8872 0.0
H536 H 0.32363 0.88567 0.8786 0.0
H537 H 0.32042 0.99213 0.97203 0.0
H538 H 0.32154 0.0208 0.93963 0.0
H539 H 0.35839 0.02009 0.95071 0.0
C540 C 0.28607 0.97797 0.66084 0.0
C541 C 0.28178 0.94721 0.67041 0.0
C542 C 0.29246 0.98895 0.62562 0.0
C543 C 0.29367 0.96823 0.59899 0.0
C544 C 0.28891 0.93687 0.60832 0.0
C545 C 0.28358 0.92692 0.6442 0.0
C546 C 0.29858 0.02303 0.61715 0.0
C547 C 0.28929 0.91386 0.58039 0.0
C548 C 0.28243 0.98853 0.50405 0.0
C549 C 0.31482 1.00434 0.49146 0.0
C550 C 0.27504 0.97584 0.53879 0.0
C551 C 0.3008 0.97997 0.5616 0.0
C552 C 0.33364 0.99664 0.5492 0.0
C553 C 0.34018 0.00819 0.51409 0.0
C554 C 0.23967 0.95768 0.55095 0.0
C555 C 0.3619 1.00253 0.57308 0.0
H556 H 0.28523 0.99395 0.68119 0.0
H557 H 0.28021 0.90314 0.65165 0.0
H558 H 0.32355 0.03816 0.60572 0.0
H559 H 0.2808 0.02161 0.59689 0.0
H560 H 0.29651 0.0359 0.64107 0.0
H561 H 0.28363 0.88977 0.59175 0.0
H562 H 0.27106 0.90951 0.55928 0.0
H563 H 0.31378 0.92522 0.56747 0.0
H564 H 0.26278 0.98514 0.48635 0.0
H565 H 0.36527 0.0205 0.50434 0.0
H566 H 0.23635 0.97087 0.5737 0.0
H567 H 0.23304 0.93274 0.56044 0.0
H568 H 0.22241 0.95516 0.5294 0.0
H569 H 0.36234 0.01669 0.59702 0.0
H570 H 0.38603 0.01628 0.55939 0.0
H571 H 0.35864 0.97871 0.58246 0.0
C572 C 0.09018 0.4382 0.65867 0.0
C573 C 0.05773 0.41266 0.65392 0.0
C574 C 0.11106 0.45209 0.62925 0.0
C575 C 0.09879 0.44003 0.59478 0.0
C576 C 0.06453 0.41894 0.58981 0.0
C577 C 0.04436 0.40491 0.61969 0.0
C578 C 0.14713 0.47549 0.63561 0.0
C579 C 0.05013 0.40707 0.5532 0.0
C580 C 0.14639 0.45748 0.50838 0.0
C581 C 0.14717 0.42821 0.50497 0.0
C582 C 0.13295 0.46356 0.53898 0.0
C583 C 0.12134 0.44022 0.56691 0.0
C584 C 0.12674 0.4131 0.56537 0.0
C585 C 0.13904 0.40713 0.53405 0.0
C586 C 0.12806 0.49292 0.53933 0.0
C587 C 0.11609 0.38818 0.59511 0.0
H588 H 0.10046 0.44405 0.68533 0.0
H589 H 0.01923 0.38509 0.61615 0.0
H590 H 0.16011 0.46128 0.6371 0.0
H591 H 0.15816 0.49342 0.61351 0.0
H592 H 0.15124 0.48911 0.66111 0.0
H593 H 0.023 0.39606 0.55325 0.0
H594 H 0.06097 0.42764 0.53384 0.0
H595 H 0.0559 0.38804 0.54398 0.0
H596 H 0.15298 0.47377 0.48575 0.0
H597 H 0.13975 0.3845 0.53121 0.0
H598 H 0.12653 0.50087 0.56679 0.0
H599 H 0.10481 0.48632 0.52532 0.0
H600 H 0.14833 0.51394 0.52492 0.0
H601 H 0.12455 0.40072 0.62125 0.0
H602 H 0.12582 0.37115 0.59157 0.0
H603 H 0.08885 0.3733 0.59583 0.0
C604 C 0.63456 0.6493 0.56018 0.0
C605 C 0.63591 0.63161 0.53081 0.0
C606 C 0.65076 0.6507 0.59187 0.0
C607 C 0.66774 0.63301 0.59451 0.0
C608 C 0.66673 0.61277 0.56592 0.0
C609 C 0.65135 0.61286 0.53396 0.0
C610 C 0.65175 0.67311 0.62146 0.0
C611 C 0.68323 0.59238 0.56834 0.0
C612 C 0.74196 0.67848 0.65316 0.0
C613 C 0.72886 0.6653 0.68672 0.0
C614 C 0.72294 0.66642 0.62233 0.0
C615 C 0.69027 0.63994 0.62498 0.0
C616 C 0.67809 0.62414 0.6581 0.0
C617 C 0.69743 0.63729 0.6888 0.0
C618 C 0.73689 0.68409 0.58751 0.0
C619 C 0.6439 0.59483 0.66154 0.0
H620 H 0.62252 0.66373 0.5577 0.0
H621 H 0.65185 0.59871 0.51133 0.0
H622 H 0.64349 0.65941 0.64689 0.0
H623 H 0.67739 0.69346 0.62535 0.0
H624 H 0.63605 0.68399 0.61571 0.0
H625 H 0.67294 0.57194 0.54858 0.0
H626 H 0.70986 0.60815 0.56284 0.0
H627 H 0.68055 0.58191 0.59541 0.0
H628 H 0.76644 0.69972 0.65108 0.0
H629 H 0.68735 0.62646 0.71452 0.0
H630 H 0.7235 0.69683 0.57925 0.0
H631 H 0.73357 0.66629 0.56619 0.0
H632 H 0.76346 0.70265 0.58952 0.0
H633 H 0.62576 0.60332 0.66192 0.0
H634 H 0.641 0.58099 0.6865 0.0
H635 H 0.63796 0.57789 0.63848 0.0
C636 C 0.34751 0.38512 0.82808 0.0
C637 C 0.34175 0.36906 0.8609 0.0
C638 C 0.34606 0.36886 0.79632 0.0
C639 C 0.33792 0.33549 0.79737 0.0
C640 C 0.33031 0.31855 0.83021 0.0
C641 C 0.33276 0.33572 0.8618 0.0
C642 C 0.35493 0.38799 0.76184 0.0
C643 C 0.32066 0.28271 0.83209 0.0
C644 C 0.32189 0.29989 0.70448 0.0
C645 C 0.35344 0.30651 0.69505 0.0
C646 C 0.31539 0.30632 0.73918 0.0
C647 C 0.34121 0.32004 0.76443 0.0
C648 C 0.3723 0.32415 0.75572 0.0
C649 C 0.37795 0.31709 0.72114 0.0
C650 C 0.28166 0.30072 0.74798 0.0
C651 C 0.40056 0.33887 0.78184 0.0
H652 H 0.35447 0.41089 0.82726 0.0
H653 H 0.32779 0.32312 0.88715 0.0
H654 H 0.37744 0.38951 0.75046 0.0
H655 H 0.33496 0.37519 0.74203 0.0
H656 H 0.35945 0.41341 0.76555 0.0
H657 H 0.3104 0.27188 0.85856 0.0
H658 H 0.30223 0.26827 0.81127 0.0
H659 H 0.34252 0.28017 0.82705 0.0
H660 H 0.30274 0.29114 0.68445 0.0
H661 H 0.40224 0.32167 0.71409 0.0
H662 H 0.28222 0.32461 0.74766 0.0
H663 H 0.274 0.2902 0.77507 0.0
H664 H 0.26295 0.28399 0.72844 0.0
H665 H 0.40869 0.36528 0.78606 0.0
H666 H 0.42192 0.337 0.77224 0.0
H667 H 0.39279 0.3265 0.80805 0.0
C668 C 0.67081 0.09468 0.69653 0.0
C669 C 0.69054 0.11836 0.67161 0.0
C670 C 0.68476 0.08932 0.72677 0.0
C671 C 0.71943 0.10703 0.73088 0.0
C672 C 0.73899 0.13329 0.70754 0.0
C673 C 0.72402 0.13909 0.67839 0.0
C674 C 0.66269 0.06209 0.752 0.0
C675 C 0.77592 0.15281 0.7105 0.0
C676 C 0.74041 0.0809 0.81634 0.0
C677 C 0.7369 0.0508 0.80519 0.0
C678 C 0.7389 0.10236 0.79157 0.0
C679 C 0.73445 0.09345 0.75513 0.0
C680 C 0.73631 0.06567 0.74353 0.0
C681 C 0.73671 0.04413 0.76891 0.0
C682 C 0.73741 0.1319 0.80496 0.0
C683 C 0.7333 0.05625 0.70464 0.0
H684 H 0.64486 0.07871 0.69103 0.0
H685 H 0.73907 0.15762 0.65906 0.0
H686 H 0.66517 0.04014 0.74694 0.0
H687 H 0.6698 0.0698 0.78007 0.0
H688 H 0.63644 0.05478 0.74854 0.0
H689 H 0.78561 0.17816 0.70014 0.0
H690 H 0.78443 0.15422 0.73832 0.0
H691 H 0.78651 0.14075 0.69401 0.0
H692 H 0.74024 0.08577 0.8446 0.0
H693 H 0.73393 0.02073 0.76051 0.0
H694 H 0.71129 0.12526 0.80759 0.0
H695 H 0.74942 0.15276 0.78606 0.0
H696 H 0.74925 0.14005 0.8315 0.0
H697 H 0.7072 0.04483 0.69633 0.0
H698 H 0.74165 0.03828 0.69952 0.0
H699 H 0.74791 0.07832 0.68786 0.0
C700 C 0.99879 0.62436 0.80847 0.0
C701 C 0.01833 0.61621 0.82926 0.0
C702 C 1.00554 0.63141 0.77211 0.0
C703 C 0.03226 0.63002 0.75654 0.0
C704 C 0.05277 0.62308 0.77778 0.0
C705 C 0.04555 0.61628 0.81392 0.0
C706 C 0.98337 0.63903 0.7501 0.0
C707 C 0.08143 0.62131 0.76204 0.0
C708 C 0.02455 0.60431 0.66018 0.0
C709 C 0.04497 0.63436 0.64326 0.0
C710 C 0.02017 0.60273 0.69705 0.0
C711 C 0.03659 0.63196 0.71747 0.0
C712 C 0.05771 0.66237 0.70071 0.0
C713 C 0.06185 0.66319 0.66363 0.0
C714 C 0.99776 0.56975 0.71411 0.0
C715 C 0.0755 0.69397 0.72188 0.0
H716 H 0.97798 0.62473 0.82042 0.0
H717 H 0.06097 0.61035 0.83 0.0
H718 H 0.99817 0.66119 0.73353 0.0
H719 H 0.9686 0.61822 0.73168 0.0
H720 H 0.9663 0.64318 0.7669 0.0
H721 H 0.0967 0.61861 0.7828 0.0
H722 H 0.07216 0.59995 0.74361 0.0
H723 H 0.0973 0.64374 0.74629 0.0
H724 H 0.01156 0.58194 0.64451 0.0
H725 H 0.07763 0.68646 0.65058 0.0
H726 H 0.97756 0.57054 0.72852 0.0
H727 H 0.01163 0.56407 0.73395 0.0
H728 H 0.9868 0.54938 0.6943 0.0
H729 H 0.05744 0.69859 0.73594 0.0
H730 H 0.0912 0.71553 0.70479 0.0
H731 H 0.09115 0.69183 0.74253 0.0
C732 C 0.62125 0.64766 0.32151 0.0
C733 C 0.6423 0.63974 0.33996 0.0
C734 C 0.62683 0.65733 0.2858 0.0
C735 C 0.65426 0.65932 0.26799 0.0
C736 C 0.67628 0.65248 0.28663 0.0
C737 C 0.66997 0.64261 0.32243 0.0
C738 C 0.60265 0.6642 0.26678 0.0
C739 C 0.70597 0.65468 0.26844 0.0
C740 C 0.64464 0.64206 0.1691 0.0
C741 C 0.66166 0.67379 0.15463 0.0
C742 C 0.64223 0.63717 0.20591 0.0
C743 C 0.65755 0.66472 0.22894 0.0
C744 C 0.67478 0.69694 0.21461 0.0
C745 C 0.67644 0.70114 0.17743 0.0
C746 C 0.62308 0.60245 0.22013 0.0
C747 C 0.6916 0.72681 0.23851 0.0
H748 H 0.59994 0.64586 0.33479 0.0
H749 H 0.68662 0.63702 0.33658 0.0
H750 H 0.61564 0.689 0.25452 0.0
H751 H 0.59053 0.64607 0.24494 0.0
H752 H 0.58333 0.66288 0.28492 0.0
H753 H 0.72251 0.65203 0.28751 0.0
H754 H 0.6979 0.63497 0.24802 0.0
H755 H 0.72012 0.67858 0.25448 0.0
H756 H 0.63301 0.62083 0.15155 0.0
H757 H 0.68976 0.72567 0.16625 0.0
H758 H 0.60265 0.59979 0.23727 0.0
H759 H 0.63921 0.59709 0.23688 0.0
H760 H 0.61261 0.58373 0.19852 0.0
H761 H 0.67335 0.72794 0.25632 0.0
H762 H 0.70451 0.7501 0.22315 0.0
H763 H 0.70971 0.72497 0.25579 0.0
C764 C 0.45765 0.06326 0.19507 0.0
C765 C 0.47045 0.08606 0.16744 0.0
C766 C 0.44402 0.06939 0.22521 0.0
C767 C 0.44187 0.09846 0.22687 0.0
C768 C 0.45673 0.12256 0.19996 0.0
C769 C 0.47142 0.11626 0.1707 0.0
C770 C 0.42992 0.04355 0.25408 0.0
C771 C 0.45453 0.15346 0.19994 0.0
C772 C 0.36724 0.06912 0.28219 0.0
C773 C 0.38195 0.07648 0.31581 0.0
C774 C 0.38657 0.08201 0.25151 0.0
C775 C 0.42118 0.10106 0.25513 0.0
C776 C 0.43505 0.11331 0.28904 0.0
C777 C 0.41495 0.1011 0.31923 0.0
C778 C 0.37062 0.07052 0.21549 0.0
C779 C 0.47168 0.1344 0.29407 0.0
H780 H 0.45703 0.03996 0.19237 0.0
H781 H 0.48116 0.13377 0.14901 0.0
H782 H 0.43787 0.0551 0.28077 0.0
H783 H 0.40269 0.03073 0.25321 0.0
H784 H 0.43755 0.0248 0.25094 0.0
H785 H 0.47624 0.17394 0.1866 0.0
H786 H 0.43243 0.14853 0.1846 0.0
H787 H 0.45224 0.16138 0.22715 0.0
H788 H 0.34162 0.05016 0.2796 0.0
H789 H 0.42622 0.10678 0.34544 0.0
H790 H 0.37094 0.04785 0.20777 0.0
H791 H 0.3841 0.08944 0.1948 0.0
H792 H 0.34463 0.06467 0.21608 0.0
H793 H 0.4827 0.11832 0.29458 0.0
H794 H 0.4777 0.14826 0.31962 0.0
H795 H 0.48313 0.15206 0.27184 0.0
C796 C 0.01226 0.32924 0.3626 0.0
C797 C 0.03845 0.32422 0.37023 0.0
C798 C 0.99601 0.31929 0.32985 0.0
C799 C 1.00554 0.3028 0.30506 0.0
C800 C 0.02927 0.29413 0.31466 0.0
C801 C 0.04624 0.30585 0.34691 0.0
C802 C 0.97159 0.32996 0.32028 0.0
C803 C 0.03873 0.27501 0.2897 0.0
C804 C 0.95307 0.27625 0.22199 0.0
C805 C 0.97254 0.30232 0.19915 0.0
C806 C 0.96456 0.27449 0.25584 0.0
C807 C 0.99535 0.30049 0.26742 0.0
C808 C 0.01532 0.32658 0.24389 0.0
C809 C 1.00379 0.32682 0.20964 0.0
C810 C 0.94327 0.2456 0.27956 0.0
C811 C 0.04795 0.35528 0.25554 0.0
H812 H 1.00672 0.34389 0.38069 0.0
H813 H 0.0666 0.30206 0.3531 0.0
H814 H 0.98251 0.34957 0.29979 0.0
H815 H 0.94898 0.30919 0.30874 0.0
H816 H 0.96464 0.33971 0.34368 0.0
H817 H 0.05084 0.26338 0.30418 0.0
H818 H 0.01686 0.25559 0.27547 0.0
H819 H 0.0562 0.29188 0.26943 0.0
H820 H 0.92864 0.25768 0.21366 0.0
H821 H 0.01842 0.34709 0.19174 0.0
H822 H 0.93178 0.25327 0.30047 0.0
H823 H 0.95829 0.23675 0.29317 0.0
H824 H 0.92336 0.22485 0.26434 0.0
H825 H 0.04423 0.36792 0.27861 0.0
H826 H 0.06027 0.37355 0.23394 0.0
H827 H 0.06464 0.34643 0.2643 0.0
C828 C 0.24952 0.92032 0.35204 0.0
C829 C 0.273 0.94713 0.3322 0.0
C830 C 0.21943 0.89638 0.3366 0.0
C831 C 0.21251 0.89917 0.30033 0.0
C832 C 0.23703 0.92521 0.27975 0.0
C833 C 0.26664 0.94894 0.29597 0.0
C834 C 0.19416 0.86939 0.35989 0.0
C835 C 0.23134 0.92907 0.24096 0.0
C836 C 0.14222 0.82247 0.2561 0.0
C837 C 0.11576 0.82837 0.2581 0.0
C838 C 0.17383 0.84558 0.26856 0.0
C839 C 0.17944 0.87545 0.28421 0.0
C840 C 0.15311 0.88215 0.28516 0.0
C841 C 0.12173 0.8587 0.27186 0.0
C842 C 0.20093 0.83733 0.26635 0.0
C843 C 0.15767 0.91342 0.30188 0.0
H844 H 0.2536 0.91939 0.38032 0.0
H845 H 0.28421 0.9701 0.28071 0.0
H846 H 0.17399 0.87449 0.36556 0.0
H847 H 0.18321 0.8452 0.34614 0.0
H848 H 0.20475 0.86764 0.38565 0.0
H849 H 0.25378 0.94877 0.22783 0.0
H850 H 0.22311 0.9056 0.2264 0.0
H851 H 0.21153 0.93522 0.23857 0.0
H852 H 0.13786 0.79899 0.24583 0.0
H853 H 0.10139 0.86325 0.27434 0.0
H854 H 0.20811 0.83432 0.2936 0.0
H855 H 0.22302 0.85774 0.25355 0.0
H856 H 0.1934 0.81431 0.25107 0.0
H857 H 0.16308 0.91371 0.33068 0.0
H858 H 0.13553 0.9159 0.29895 0.0
H859 H 0.17894 0.93515 0.28965 0.0
C860 C 0.23665 0.29715 0.24969 0.0
C861 C 0.27097 0.31744 0.2502 0.0
C862 C 0.21609 0.30685 0.26733 0.0
C863 C 0.23016 0.33721 0.28638 0.0
C864 C 0.26472 0.35755 0.28683 0.0
C865 C 0.28441 0.34761 0.26874 0.0
C866 C 0.17934 0.28453 0.26588 0.0
C867 C 0.28119 0.3897 0.30725 0.0
C868 C 0.18469 0.38218 0.31578 0.0
C869 C 0.17884 0.37383 0.352 0.0
C870 C 0.19975 0.36909 0.29357 0.0
C871 C 0.20956 0.34736 0.30786 0.0
C872 C 0.20324 0.33856 0.34427 0.0
C873 C 0.18795 0.3517 0.36566 0.0
C874 C 0.20581 0.37906 0.25492 0.0
C875 C 0.21371 0.31609 0.36109 0.0
H876 H 0.22592 0.27388 0.23553 0.0
H877 H 0.31084 0.36361 0.26981 0.0
H878 H 0.16973 0.27556 0.29303 0.0
H879 H 0.16751 0.2984 0.25627 0.0
H880 H 0.17203 0.26293 0.24817 0.0
H881 H 0.30835 0.40311 0.30429 0.0
H882 H 0.2719 0.40593 0.29797 0.0
H883 H 0.27518 0.38496 0.336 0.0
H884 H 0.17742 0.39886 0.30475 0.0
H885 H 0.18349 0.34483 0.39351 0.0
H886 H 0.19653 0.35694 0.23764 0.0
H887 H 0.23261 0.39442 0.25007 0.0
H888 H 0.19384 0.39329 0.2469 0.0
H889 H 0.20432 0.29306 0.34537 0.0
H890 H 0.20484 0.30959 0.38896 0.0
H891 H 0.24093 0.32831 0.36116 0.0
C892 C 0.68728 0.85734 0.32608 0.0
C893 C 0.66606 0.86961 0.32005 0.0
C894 C 0.67623 0.82719 0.3441 0.0
C895 C 0.6435 0.80946 0.35727 0.0
C896 C 0.62259 0.82273 0.35253 0.0
C897 C 0.63392 0.85222 0.33351 0.0
C898 C 0.69917 0.81369 0.34782 0.0
C899 C 0.58796 0.80543 0.36695 0.0
C900 C 0.60294 0.71657 0.3733 0.0
C901 C 0.60883 0.71538 0.40968 0.0
C902 C 0.6141 0.74695 0.35589 0.0
C903 C 0.63086 0.77685 0.37552 0.0
C904 C 0.63553 0.77552 0.41264 0.0
C905 C 0.6251 0.74491 0.42905 0.0
C906 C 0.60939 0.7471 0.31614 0.0
C907 C 0.6523 0.80649 0.43492 0.0
H908 H 0.71195 0.87044 0.31521 0.0
H909 H 0.61743 0.86167 0.32885 0.0
H910 H 0.7019 0.80929 0.37629 0.0
H911 H 0.68864 0.78961 0.33388 0.0
H912 H 0.72391 0.83054 0.33662 0.0
H913 H 0.57563 0.82011 0.36326 0.0
H914 H 0.57319 0.78138 0.35329 0.0
H915 H 0.58811 0.80036 0.39578 0.0
H916 H 0.59137 0.69387 0.35802 0.0
H917 H 0.6303 0.74407 0.45704 0.0
H918 H 0.63373 0.7593 0.30278 0.0
H919 H 0.59722 0.76141 0.30956 0.0
H920 H 0.59447 0.72186 0.30504 0.0
H921 H 0.67828 0.82179 0.42644 0.0
H922 H 0.65181 0.80113 0.46378 0.0
H923 H 0.64025 0.82137 0.43088 0.0
C924 C 0.75942 0.07288 0.24473 0.0
C925 C 0.75569 0.04466 0.22744 0.0
C926 C 0.78234 0.10475 0.23268 0.0
C927 C 0.80188 0.10864 0.20225 0.0
C928 C 0.79894 0.08013 0.18544 0.0
C929 C 0.77576 0.04857 0.19806 0.0
C930 C 0.78454 0.13423 0.25154 0.0
C931 C 0.81927 0.08288 0.15309 0.0
C932 C 0.84112 0.18857 0.14732 0.0
C933 C 0.87385 0.20385 0.15888 0.0
C934 C 0.81713 0.1579 0.16174 0.0
C935 C 0.82601 0.14241 0.18852 0.0
C936 C 0.85864 0.15873 0.20139 0.0
C937 C 0.88194 0.18888 0.18642 0.0
C938 C 0.78255 0.14146 0.14737 0.0
C939 C 0.86942 0.1437 0.23008 0.0
H940 H 0.74296 0.06997 0.26647 0.0
H941 H 0.77192 0.02687 0.18362 0.0
H942 H 0.81032 0.15171 0.25932 0.0
H943 H 0.77671 0.14748 0.23321 0.0
H944 H 0.76888 0.1272 0.27577 0.0
H945 H 0.81531 0.05857 0.14417 0.0
H946 H 0.81287 0.09411 0.13083 0.0
H947 H 0.84578 0.09924 0.15892 0.0
H948 H 0.83464 0.19968 0.12594 0.0
H949 H 0.90712 0.20041 0.19575 0.0
H950 H 0.76471 0.1347 0.16956 0.0
H951 H 0.77693 0.11834 0.13341 0.0
H952 H 0.77889 0.15747 0.12845 0.0
H953 H 0.85316 0.13742 0.25369 0.0
H954 H 0.89518 0.16042 0.23869 0.0
H955 H 0.86736 0.12047 0.22007 0.0
C956 C 0.80026 0.71623 0.08215 0.0
C957 C 0.77561 0.70869 0.10764 0.0
C958 C 0.83281 0.72582 0.09262 0.0
C959 C 0.84099 0.72837 0.1294 0.0
C960 C 0.81563 0.71899 0.15496 0.0
C961 C 0.78351 0.70922 0.1438 0.0
C962 C 0.85876 0.73486 0.06436 0.0
C963 C 0.82269 0.72081 0.19441 0.0
C964 C 0.91605 0.72901 0.16833 0.0
C965 C 0.93636 0.76217 0.17817 0.0
C966 C 0.88621 0.71816 0.15016 0.0
C967 C 0.87575 0.74083 0.14189 0.0
C968 C 0.897 0.77474 0.15007 0.0
C969 C 0.92721 0.78508 0.16785 0.0
C970 C 0.86511 0.68204 0.14134 0.0
C971 C 0.88689 0.79982 0.14195 0.0
H972 H 0.79466 0.71676 0.05424 0.0
H973 H 0.76472 0.70385 0.16369 0.0
H974 H 0.87594 0.76184 0.06495 0.0
H975 H 0.87339 0.72275 0.06965 0.0
H976 H 0.84795 0.72782 0.03725 0.0
H977 H 0.80019 0.71217 0.21086 0.0
H978 H 0.83396 0.70562 0.20088 0.0
H979 H 0.84058 0.74658 0.20207 0.0
H980 H 0.92317 0.71118 0.17578 0.0
H981 H 0.94267 0.81067 0.17542 0.0
H982 H 0.86003 0.67883 0.11231 0.0
H983 H 0.8411 0.67163 0.15521 0.0
H984 H 0.87692 0.66766 0.14919 0.0
H985 H 0.87857 0.79736 0.1139 0.0
H986 H 0.90722 0.82543 0.1465 0.0
H987 H 0.86586 0.79532 0.15921 0.0
C988 C 0.36804 0.22867 0.12856 0.0
C989 C 0.3626 0.22819 0.16539 0.0
C990 C 0.37564 0.20605 0.11235 0.0
C991 C 0.37882 0.1828 0.13353 0.0
C992 C 0.37173 0.1813 0.17057 0.0
C993 C 0.36399 0.20406 0.18591 0.0
C994 C 0.38159 0.20794 0.0727 0.0
C995 C 0.37439 0.15737 0.19511 0.0
C996 C 0.37775 0.10638 0.09584 0.0
C997 C 0.41125 0.11589 0.0952 0.0
C998 C 0.36704 0.12834 0.10625 0.0
C999 C 0.39024 0.16072 0.11729 0.0
C1000 C 0.42426 0.17101 0.11509 0.0
C1001 C 0.43436 0.14865 0.10366 0.0
C1002 C 0.33066 0.11609 0.10778 0.0
C1003 C 0.44993 0.20495 0.12733 0.0
H1004 H 0.36808 0.24791 0.11267 0.0
H1005 H 0.36103 0.20425 0.21457 0.0
H1006 H 0.40794 0.21683 0.06743 0.0
H1007 H 0.36723 0.18313 0.06047 0.0
H1008 H 0.37484 0.22482 0.05943 0.0
H1009 H 0.35566 0.14926 0.2166 0.0
H1010 H 0.37144 0.13525 0.18108 0.0
H1011 H 0.39887 0.17009 0.20809 0.0
H1012 H 0.35963 0.08102 0.0898 0.0
H1013 H 0.4602 0.15611 0.10396 0.0
H1014 H 0.32512 0.13405 0.09508 0.0
H1015 H 0.32276 0.11357 0.13604 0.0
H1016 H 0.31597 0.09183 0.09441 0.0
H1017 H 0.44731 0.22393 0.1126 0.0
H1018 H 0.4753 0.20954 0.12351 0.0
H1019 H 0.44624 0.20795 0.15603 0.0
C1020 C 0.81089 0.16461 0.58937 0.0
C1021 C 0.78419 0.16991 0.59358 0.0
C1022 C 0.84271 0.18762 0.60148 0.0
C1023 C 0.84826 0.21668 0.61916 0.0
C1024 C 0.82166 0.22282 0.62231 0.0
C1025 C 0.79011 0.1996 0.60918 0.0
C1026 C 0.87004 0.17994 0.59696 0.0
C1027 C 0.82606 0.25306 0.64146 0.0
C1028 C 0.91969 0.25939 0.68604 0.0
C1029 C 0.94236 0.2874 0.66713 0.0
C1030 C 0.88945 0.23578 0.67056 0.0
C1031 C 0.88155 0.24009 0.63515 0.0
C1032 C 0.90531 0.26739 0.61536 0.0
C1033 C 0.93503 0.29079 0.63166 0.0
C1034 C 0.86508 0.20756 0.69323 0.0
C1035 C 0.89874 0.27276 0.57736 0.0
H1036 H 0.80652 0.14152 0.5779 0.0
H1037 H 0.76959 0.20359 0.6135 0.0
H1038 H 0.89191 0.20119 0.58487 0.0
H1039 H 0.87751 0.17553 0.62346 0.0
H1040 H 0.86258 0.15785 0.58002 0.0
H1041 H 0.80367 0.25528 0.64016 0.0
H1042 H 0.83197 0.25202 0.66986 0.0
H1043 H 0.84696 0.27553 0.62987 0.0
H1044 H 0.92454 0.25711 0.7138 0.0
H1045 H 0.95206 0.31275 0.61711 0.0
H1046 H 0.8522 0.18437 0.67763 0.0
H1047 H 0.84632 0.21332 0.70319 0.0
H1048 H 0.87705 0.20351 0.7166 0.0
H1049 H 0.89083 0.25008 0.56137 0.0
H1050 H 0.9207 0.29341 0.56455 0.0
H1051 H 0.87843 0.27829 0.57671 0.0
C1052 C 0.96957 0.67722 0.64255 0.0
C1053 C 0.97187 0.67224 0.60593 0.0
C1054 C 0.94736 0.68634 0.65592 0.0
C1055 C 0.92607 0.69015 0.63232 0.0
C1056 C 0.92671 0.68313 0.5955 0.0
C1057 C 0.94976 0.67445 0.58266 0.0
C1058 C 0.94772 0.69323 0.69534 0.0
C1059 C 0.90393 0.686 0.56948 0.0
C1060 C 0.85481 0.68917 0.68197 0.0
C1061 C 0.86569 0.72285 0.68638 0.0
C1062 C 0.87292 0.67821 0.66212 0.0
C1063 C 0.90341 0.70141 0.64689 0.0
C1064 C 0.91393 0.73551 0.64997 0.0
C1065 C 0.89474 0.74582 0.66928 0.0
C1066 C 0.86006 0.64168 0.65894 0.0
C1067 C 0.94643 0.76121 0.63467 0.0
H1068 H 0.98648 0.6755 0.66081 0.0
H1069 H 0.95162 0.67117 0.55432 0.0
H1070 H 0.95315 0.71888 0.69956 0.0
H1071 H 0.92321 0.67663 0.70708 0.0
H1072 H 0.96628 0.68985 0.71001 0.0
H1073 H 0.90467 0.67613 0.54276 0.0
H1074 H 0.87829 0.67265 0.57954 0.0
H1075 H 0.91105 0.71226 0.56661 0.0
H1076 H 0.83213 0.67117 0.69467 0.0
H1077 H 0.90334 0.77184 0.67257 0.0
H1078 H 0.87503 0.63485 0.67581 0.0
H1079 H 0.86211 0.63499 0.63105 0.0
H1080 H 0.834 0.62688 0.66751 0.0
H1081 H 0.96671 0.76095 0.64942 0.0
H1082 H 0.94984 0.78636 0.63639 0.0
H1083 H 0.94844 0.75553 0.60638 0.0
C1084 C 0.26524 0.0573 0.72693 0.0
C1085 C 0.28675 0.04544 0.73356 0.0
C1086 C 0.27612 0.08743 0.70883 0.0
C1087 C 0.30917 0.106 0.69672 0.0
C1088 C 0.33069 0.09372 0.70283 0.0
C1089 C 0.31933 0.0639 0.72115 0.0
C1090 C 0.25232 0.0996 0.70291 0.0
C1091 C 0.36594 0.11226 0.69024 0.0
C1092 C 0.32936 0.17165 0.62531 0.0
C1093 C 0.34152 0.20041 0.64589 0.0
C1094 C 0.31962 0.1409 0.64127 0.0
C1095 C 0.32167 0.13877 0.67881 0.0
C1096 C 0.3354 0.16808 0.69941 0.0
C1097 C 0.34498 0.1984 0.68274 0.0
C1098 C 0.30575 0.11048 0.61813 0.0
C1099 C 0.33833 0.16723 0.73938 0.0
H1100 H 0.24005 0.04324 0.73613 0.0
H1101 H 0.33623 0.05495 0.72559 0.0
H1102 H 0.26149 0.12374 0.71634 0.0
H1103 H 0.25051 0.10344 0.67405 0.0
H1104 H 0.22737 0.08216 0.71322 0.0
H1105 H 0.37935 0.099 0.69625 0.0
H1106 H 0.36681 0.11633 0.66108 0.0
H1107 H 0.37905 0.13684 0.70317 0.0
H1108 H 0.32554 0.17289 0.59701 0.0
H1109 H 0.35324 0.22038 0.69889 0.0
H1110 H 0.28027 0.09262 0.62654 0.0
H1111 H 0.32052 0.09826 0.6214 0.0
H1112 H 0.30553 0.11616 0.58947 0.0
H1113 H 0.31347 0.15305 0.75134 0.0
H1114 H 0.35106 0.19228 0.75136 0.0
H1115 H 0.35199 0.15453 0.74661 0.0
C1116 C 0.16195 0.84467 0.80552 0.0
C1117 C 0.18921 0.86864 0.8244 0.0
C1118 C 0.13813 0.81538 0.82223 0.0
C1119 C 0.14175 0.80976 0.8587 0.0
C1120 C 0.16852 0.83469 0.87819 0.0
C1121 C 0.19195 0.86359 0.86077 0.0
C1122 C 0.11 0.78966 0.80034 0.0
C1123 C 0.17343 0.83013 0.91703 0.0
C1124 C 0.06506 0.74234 0.90486 0.0
C1125 C 0.06929 0.71484 0.9021 0.0
C1126 C 0.08895 0.77354 0.89233 0.0
C1127 C 0.11794 0.77758 0.87611 0.0
C1128 C 0.12322 0.7503 0.87502 0.0
C1129 C 0.09886 0.71926 0.88805 0.0
C1130 C 0.08221 0.80171 0.89456 0.0
C1131 C 0.15377 0.75341 0.85814 0.0
H1132 H 0.16034 0.84787 0.77715 0.0
H1133 H 0.21357 0.88158 0.87519 0.0
H1134 H 0.11205 0.76718 0.79832 0.0
H1135 H 0.08624 0.78254 0.81354 0.0
H1136 H 0.10956 0.79839 0.77299 0.0
H1137 H 0.19387 0.85279 0.92913 0.0
H1138 H 0.15061 0.82296 0.9323 0.0
H1139 H 0.17897 0.8099 0.91979 0.0
H1140 H 0.04205 0.739 0.91523 0.0
H1141 H 0.10196 0.69803 0.88494 0.0
H1142 H 0.0784 0.80836 0.86737 0.0
H1143 H 0.10358 0.8238 0.90624 0.0
H1144 H 0.06009 0.79545 0.91082 0.0
H1145 H 0.15363 0.75784 0.82914 0.0
H1146 H 0.15559 0.73094 0.86194 0.0
H1147 H 0.17602 0.77482 0.86952 0.0
C1148 C 0.12757 0.35035 0.77319 0.0
C1149 C 0.11068 0.36762 0.77808 0.0
C1150 C 0.15802 0.36062 0.79051 0.0
C1151 C 0.17166 0.38848 0.81366 0.0
C1152 C 0.15415 0.40534 0.81915 0.0
C1153 C 0.12428 0.3949 0.80129 0.0
C1154 C 0.17587 0.34197 0.78371 0.0
C1155 C 0.16692 0.43456 0.84407 0.0
C1156 C 0.23129 0.39855 0.88814 0.0
C1157 C 0.26181 0.42356 0.87527 0.0
C1158 C 0.20225 0.38644 0.86805 0.0
C1159 C 0.20324 0.39935 0.83376 0.0
C1160 C 0.23396 0.42454 0.82039 0.0
C1161 C 0.26282 0.43643 0.8413 0.0
C1162 C 0.17028 0.36005 0.8839 0.0
C1163 C 0.23628 0.43899 0.78397 0.0
H1164 H 0.11754 0.32952 0.75508 0.0
H1165 H 0.11143 0.40839 0.80554 0.0
H1166 H 0.2007 0.3589 0.77285 0.0
H1167 H 0.17927 0.33205 0.8091 0.0
H1168 H 0.16247 0.32125 0.7647 0.0
H1169 H 0.15045 0.44511 0.84538 0.0
H1170 H 0.16962 0.42716 0.87132 0.0
H1171 H 0.1916 0.45411 0.83529 0.0
H1172 H 0.23 0.38822 0.91427 0.0
H1173 H 0.28619 0.45536 0.83081 0.0
H1174 H 0.15838 0.33852 0.8657 0.0
H1175 H 0.1531 0.36958 0.88717 0.0
H1176 H 0.17377 0.35157 0.91027 0.0
H1177 H 0.22572 0.41907 0.76367 0.0
H1178 H 0.26203 0.45699 0.77645 0.0
H1179 H 0.22166 0.45156 0.78333 0.0
C1180 C 0.73032 0.79265 0.76631 0.0
C1181 C 0.76282 0.79916 0.76931 0.0
C1182 C 0.72165 0.81646 0.77524 0.0
C1183 C 0.74586 0.84758 0.7885 0.0
C1184 C 0.779 0.85474 0.7904 0.0
C1185 C 0.78714 0.8306 0.78044 0.0
C1186 C 0.68618 0.80767 0.7721 0.0
C1187 C 0.8056 0.88729 0.80489 0.0
C1188 C 0.73161 0.92106 0.792 0.0
C1189 C 0.72284 0.92115 0.82775 0.0
C1190 C 0.73781 0.89659 0.77854 0.0
C1191 C 0.73625 0.872 0.80161 0.0
C1192 C 0.7262 0.8713 0.8375 0.0
C1193 C 0.71956 0.89579 0.85006 0.0
C1194 C 0.74743 0.89794 0.73994 0.0
C1195 C 0.72456 0.84603 0.86342 0.0
H1196 H 0.71128 0.76824 0.75822 0.0
H1197 H 0.81212 0.83562 0.78359 0.0
H1198 H 0.67581 0.8061 0.79908 0.0
H1199 H 0.68435 0.82713 0.75738 0.0
H1200 H 0.67092 0.78376 0.75826 0.0
H1201 H 0.8303 0.88972 0.80331 0.0
H1202 H 0.80609 0.90789 0.79002 0.0
H1203 H 0.80027 0.88981 0.83318 0.0
H1204 H 0.73505 0.94109 0.77488 0.0
H1205 H 0.71399 0.89639 0.87801 0.0
H1206 H 0.7322 0.87354 0.72711 0.0
H1207 H 0.77343 0.90406 0.73816 0.0
H1208 H 0.74462 0.91662 0.72474 0.0
H1209 H 0.71214 0.82107 0.85134 0.0
H1210 H 0.71145 0.84537 0.88832 0.0
H1211 H 0.7499 0.85221 0.87051 0.0
C1212 C 0.46966 0.38839 0.55008 0.0
C1213 C 0.43541 0.374 0.5492 0.0
C1214 C 0.49014 0.41888 0.53313 0.0
C1215 C 0.476 0.4349 0.51416 0.0
C1216 C 0.44137 0.41948 0.51189 0.0
C1217 C 0.42163 0.38959 0.52973 0.0
C1218 C 0.52692 0.43457 0.53661 0.0
C1219 C 0.42506 0.43486 0.49116 0.0
C1220 C 0.52696 0.52839 0.50142 0.0
C1221 C 0.54044 0.53087 0.46747 0.0
C1222 C 0.50568 0.49739 0.51675 0.0
C1223 C 0.49727 0.46811 0.49746 0.0
C1224 C 0.50953 0.47067 0.46238 0.0
C1225 C 0.53137 0.50192 0.44812 0.0
C1226 C 0.49357 0.49597 0.55432 0.0
C1227 C 0.50061 0.44036 0.44036 0.0
H1228 H 0.48043 0.37665 0.56537 0.0
H1229 H 0.39513 0.37849 0.52877 0.0
H1230 H 0.53845 0.43955 0.50985 0.0
H1231 H 0.53697 0.4586 0.55056 0.0
H1232 H 0.53415 0.41885 0.5516 0.0
H1233 H 0.39787 0.41906 0.4907 0.0
H1234 H 0.43141 0.45898 0.50309 0.0
H1235 H 0.4342 0.4395 0.46331 0.0
H1236 H 0.53478 0.55064 0.51693 0.0
H1237 H 0.54239 0.50374 0.42221 0.0
H1238 H 0.50294 0.48347 0.57175 0.0
H1239 H 0.46635 0.48131 0.55512 0.0
H1240 H 0.50161 0.52084 0.56544 0.0
H1241 H 0.51141 0.42646 0.45255 0.0
H1242 H 0.50962 0.44653 0.4125 0.0
H1243 H 0.47356 0.4238 0.43989 0.0
C1244 C 0.56989 0.08765 0.54269 0.0
C1245 C 0.6006 0.10211 0.52566 0.0
C1246 C 0.54037 0.0748 0.52327 0.0
C1247 C 0.54115 0.07553 0.48551 0.0
C1248 C 0.57214 0.09 0.46805 0.0
C1249 C 0.60148 0.10337 0.4883 0.0
C1250 C 0.50824 0.06038 0.5433 0.0
C1251 C 0.57427 0.09077 0.42793 0.0
C1252 C 0.45866 0.01883 0.43837 0.0
C1253 C 0.44724 0.04074 0.43155 0.0
C1254 C 0.48966 0.02985 0.45479 0.0
C1255 C 0.50964 0.06349 0.46485 0.0
C1256 C 0.49834 0.08562 0.45735 0.0
C1257 C 0.46767 0.07409 0.44089 0.0
C1258 C 0.50088 1.00545 0.46182 0.0
C1259 C 0.51832 0.12156 0.46761 0.0
H1260 H 0.56893 0.0861 0.57153 0.0
H1261 H 0.62498 0.1135 0.47486 0.0
H1262 H 0.49543 0.07408 0.53664 0.0
H1263 H 0.4919 0.03439 0.53513 0.0
H1264 H 0.51171 0.06126 0.57263 0.0
H1265 H 0.60004 0.10228 0.4183 0.0
H1266 H 0.56025 0.06534 0.41717 0.0
H1267 H 0.56294 0.10465 0.41697 0.0
H1268 H 0.44336 0.99312 0.43117 0.0
H1269 H 0.45951 0.09155 0.43575 0.0
H1270 H 0.50308 1.00309 0.49094 0.0
H1271 H 0.52559 0.01439 0.45009 0.0
H1272 H 0.48367 0.98071 0.45066 0.0
H1273 H 0.52126 0.1239 0.49699 0.0
H1274 H 0.50675 0.13591 0.45871 0.0
H1275 H 0.54328 0.13272 0.45585 0.0
C1276 C 0.11208 0.49758 0.44231 0.0
C1277 C 0.08992 0.46713 0.42693 0.0
C1278 C 0.10277 0.52124 0.44998 0.0
C1279 C 0.07069 0.51473 0.44123 0.0
C1280 C 0.04932 0.48522 0.4227 0.0
C1281 C 0.05893 0.46161 0.41642 0.0
C1282 C 0.12635 0.55192 0.47027 0.0
C1283 C 0.01532 0.47744 0.41181 0.0
C1284 C 0.03381 0.55228 0.5037 0.0
C1285 C 0.04012 0.58094 0.48567 0.0
C1286 C 0.04272 0.53019 0.48906 0.0
C1287 C 0.05832 0.53669 0.45526 0.0
C1288 C 0.06343 0.56495 0.43619 0.0
C1289 C 0.05473 0.58699 0.45185 0.0
C1290 C 0.03709 0.5008 0.51079 0.0
C1291 C 0.07935 0.57267 0.39991 0.0
H1292 H 0.13588 0.50196 0.45089 0.0
H1293 H 0.04139 0.43787 0.40517 0.0
H1294 H 0.12797 0.57405 0.4578 0.0
H1295 H 0.11715 0.55037 0.49786 0.0
H1296 H 0.1514 0.55519 0.47164 0.0
H1297 H 1.00396 0.45662 0.39257 0.0
H1298 H 0.99934 0.47072 0.43571 0.0
H1299 H 0.01607 0.4993 0.39963 0.0
H1300 H 0.02343 0.54805 0.5303 0.0
H1301 H 0.06053 0.60959 0.43825 0.0
H1302 H 0.0611 0.50326 0.51792 0.0
H1303 H 0.02331 0.47784 0.49498 0.0
H1304 H 0.02326 0.49827 0.53573 0.0
H1305 H 0.10562 0.57996 0.40254 0.0
H1306 H 0.07786 0.59299 0.38668 0.0
H1307 H 0.06753 0.55052 0.38254 0.0
C1308 C 0.46309 0.52485 0.92245 0.0
C1309 C 0.4447 0.50682 0.9521 0.0
C1310 C 0.49645 0.55008 0.92622 0.0
C1311 C 0.51154 0.55775 0.96044 0.0
C1312 C 0.49251 0.54024 0.99036 0.0
C1313 C 0.45983 0.51503 0.98572 0.0
C1314 C 0.51588 0.56767 0.89349 0.0
C1315 C 0.50685 0.54776 0.02752 0.0
C1316 C 0.60319 0.59966 0.9832 0.0
C1317 C 0.60941 0.6307 0.99486 0.0
C1318 C 0.57218 0.57642 0.96889 0.0
C1319 C 0.54679 0.58436 0.9661 0.0
C1320 C 0.55406 0.61662 0.97513 0.0
C1321 C 0.58504 0.6392 0.98936 0.0
C1322 C 0.56582 0.54252 0.95925 0.0
C1323 C 0.5282 0.62656 0.97267 0.0
H1324 H 0.45198 0.51825 0.89624 0.0
H1325 H 0.44611 0.50102 0.00867 0.0
H1326 H 0.52828 0.59472 0.89736 0.0
H1327 H 0.53536 0.56134 0.88895 0.0
H1328 H 0.50019 0.56089 0.86932 0.0
H1329 H 0.48882 0.53204 0.04804 0.0
H1330 H 0.52832 0.54406 0.02886 0.0
H1331 H 0.51565 0.57391 0.03427 0.0
H1332 H 0.62172 0.59276 0.98731 0.0
H1333 H 0.58962 0.66323 -0.00213 0.0
H1334 H 0.55238 0.53424 0.9336 0.0
H1335 H 0.55017 0.52477 0.98002 0.0
H1336 H 0.58897 0.54174 0.95716 0.0
H1337 H 0.51486 0.61845 0.94697 0.0
H1338 H 0.53891 0.65362 0.97532 0.0
H1339 H 0.50992 0.6144 0.99429 0.0
C1340 C 0.64137 0.03923 0.92893 0.0
C1341 C 0.63028 0.00667 0.91765 0.0
C1342 C 0.62063 0.04829 0.9464 0.0
C1343 C 0.58739 0.02442 0.95278 0.0
C1344 C 0.57559 0.99158 0.94072 0.0
C1345 C 0.59717 0.98302 0.92348 0.0
C1346 C 0.63476 0.08342 0.95909 0.0
C1347 C 0.54026 0.96536 0.9466 0.0
C1348 C 0.54739 0.04129 0.03269 0.0
C1349 C 0.53 0.05513 0.01702 0.0
C1350 C 0.56556 0.03086 0.01213 0.0
C1351 C 0.5662 0.03368 0.97453 0.0
C1352 C 0.54866 0.04761 0.9584 0.0
C1353 C 0.531 0.05839 0.97981 0.0
C1354 C 0.58435 0.017 0.03083 0.0
C1355 C 0.54831 0.05082 0.91847 0.0
H1356 H 0.6668 0.05795 0.92471 0.0
H1357 H 0.58819 0.95788 0.91486 0.0
H1358 H 0.62007 0.09402 0.94856 0.0
H1359 H 0.63356 0.08398 0.98859 0.0
H1360 H 0.66074 0.0994 0.95077 0.0
H1361 H 0.53405 0.94184 0.93312 0.0
H1362 H 0.5355 0.96066 0.97555 0.0
H1363 H 0.52361 0.97388 0.93662 0.0
H1364 H 0.54673 0.03849 0.06139 0.0
H1365 H 0.51716 0.0684 0.96736 0.0
H1366 H 0.61097 0.0324 0.02494 0.0
H1367 H 0.57632 0.99182 0.02084 0.0
H1368 H 0.58093 0.01591 0.06019 0.0
H1369 H 0.57362 0.06741 0.90863 0.0
H1370 H 0.53237 0.06069 0.90983 0.0
H1371 H 0.53947 0.02644 0.90571 0.0
C1372 C 0.99804 0.53542 0.0169 0.0
C1373 C 0.99268 0.53375 0.98004 0.0
C1374 C 0.98709 0.50646 0.03724 0.0
C1375 C 0.97106 0.47514 0.0202 0.0
C1376 C 0.96611 0.47355 0.98287 0.0
C1377 C 0.97656 0.5027 0.96346 0.0
C1378 C 0.9926 0.50935 0.07697 0.0
C1379 C 0.95018 0.44102 0.96323 0.0
C1380 C 0.97722 0.40449 0.06118 0.0
C1381 C 0.94555 0.38394 0.07515 0.0
C1382 C 0.98572 0.43412 0.04388 0.0
C1383 C 0.96219 0.44424 0.04051 0.0
C1384 C 0.93013 0.42387 0.0547 0.0
C1385 C 0.92205 0.39376 0.07159 0.0
C1386 C 0.01988 0.45428 0.02849 0.0
C1387 C 0.90439 0.43389 0.05192 0.0
H1388 H 1.00986 0.55926 0.02999 0.0
H1389 H 0.97221 0.50119 0.93498 0.0
H1390 H 0.96906 0.49355 0.09105 0.0
H1391 H 1.00965 0.50047 0.08428 0.0
H1392 H 1.00307 0.53509 0.0866 0.0
H1393 H 0.94768 0.44391 0.93424 0.0
H1394 H 0.96501 0.42887 0.96678 0.0
H1395 H 0.92545 0.42431 0.97439 0.0
H1396 H 0.99563 0.39716 0.06326 0.0
H1397 H 0.89761 0.37821 0.0823 0.0
H1398 H 0.0321 0.4796 0.03962 0.0
H1399 H 0.01836 0.45636 -0.0008 0.0
H1400 H 0.03557 0.44335 0.03402 0.0
H1401 H 0.91392 0.45888 0.06337 0.0
H1402 H 0.8813 0.41648 0.06591 0.0
H1403 H 0.89866 0.43506 0.0235 0.0
loop_
_geom_bond_atom_site_label_1
_geom_bond_atom_site_label_2
_geom_bond_distance
_geom_bond_site_symmetry_2
_ccdc_geom_bond_type
Co0 O1 2.216 1_455 S
Co0 O2 2.091 1_455 S
Co0 O4 2.004 . S
Co0 O10 2.021 . S
Co0 O12 2.137 1_455 S
Co0 O13 2.244 . S
O1 Co0 2.216 1_655 S
O1 C8 1.247 . S
O2 Co0 2.091 1_655 S
O2 C8 1.261 . S
C3 O12 1.247 . S
C3 O13 1.272 1_655 S
O4 Co0 2.004 . S
O4 C9 1.259 . S
Co5 O6 2.061 . S
Co5 O11 2.052 . S
Co5 O13 2.135 . S
O6 Co5 2.061 . S
O6 C9 1.235 . S
C7 O10 1.238 . S
C7 O11 1.241 . S
C8 O1 1.247 . S
C8 O2 1.261 . S
C9 O4 1.259 . S
C9 O6 1.235 . S
O10 Co0 2.021 . S
O10 C7 1.238 . S
O11 Co5 2.052 . S
O11 C7 1.241 . S
O12 Co0 2.137 1_655 S
O12 C3 1.247 . S
O13 Co0 2.244 . S
O13 C3 1.272 1_455 S
O13 Co5 2.135 . S
Co14 O15 2.216 . S
Co14 O16 2.091 . S
Co14 O18 2.004 . S
Co14 O24 2.021 . S
Co14 O26 2.137 . S
Co14 O27 2.244 . S
O15 Co14 2.216 . S
O15 C22 1.247 . S
O16 Co14 2.091 . S
O16 C22 1.261 . S
C17 O26 1.247 . S
C17 O27 1.272 . S
O18 Co14 2.004 . S
O18 C23 1.259 . S
Co19 O20 2.061 . S
Co19 O25 2.052 . S
Co19 O27 2.135 . S
O20 Co19 2.061 . S
O20 C23 1.235 . S
C21 O24 1.238 . S
C21 O25 1.241 . S
C22 O15 1.247 . S
C22 O16 1.261 . S
C23 O18 1.259 . S
C23 O20 1.235 . S
O24 Co14 2.021 . S
O24 C21 1.238 . S
O25 Co19 2.052 . S
O25 C21 1.241 . S
O26 Co14 2.137 . S
O26 C17 1.247 . S
O27 Co14 2.244 . S
O27 C17 1.272 . S
O27 Co19 2.135 . S
Co28 O29 2.216 1_545 S
Co28 O30 2.091 1_545 S
Co28 O32 2.004 . S
Co28 O38 2.021 . S
Co28 O40 2.137 1_545 S
Co28 O41 2.244 . S
O29 Co28 2.216 1_565 S
O29 C36 1.247 . S
O30 Co28 2.091 1_565 S
O30 C36 1.261 . S
C31 O40 1.247 . S
C31 O41 1.272 1_565 S
O32 Co28 2.004 . S
O32 C37 1.259 . S
Co33 O34 2.061 . S
Co33 O39 2.052 . S
Co33 O41 2.135 . S
O34 Co33 2.061 . S
O34 C37 1.235 . S
C35 O38 1.238 . S
C35 O39 1.241 . S
C36 O29 1.247 . S
C36 O30 1.261 . S
C37 O32 1.259 . S
C37 O34 1.235 . S
O38 Co28 2.021 . S
O38 C35 1.238 . S
O39 Co33 2.052 . S
O39 C35 1.241 . S
O40 Co28 2.137 1_565 S
O40 C31 1.247 . S
O41 Co28 2.244 . S
O41 C31 1.272 1_545 S
O41 Co33 2.135 . S
Co42 O43 2.216 . S
Co42 O44 2.091 . S
Co42 O46 2.004 1_455 S
Co42 O52 2.021 1_455 S
Co42 O54 2.137 . S
Co42 O55 2.244 . S
O43 Co42 2.216 . S
O43 C50 1.247 . S
O44 Co42 2.091 . S
O44 C50 1.261 . S
C45 O54 1.247 . S
C45 O55 1.272 . S
O46 Co42 2.004 1_655 S
O46 C51 1.259 . S
Co47 O48 2.061 . S
Co47 O53 2.052 . S
Co47 O55 2.135 1_655 S
O48 Co47 2.061 . S
O48 C51 1.235 . S
C49 O52 1.238 . S
C49 O53 1.241 . S
C50 O43 1.247 . S
C50 O44 1.261 . S
C51 O46 1.259 . S
C51 O48 1.235 . S
O52 Co42 2.021 1_655 S
O52 C49 1.238 . S
O53 Co47 2.052 . S
O53 C49 1.241 . S
O54 Co42 2.137 . S
O54 C45 1.247 . S
O55 Co42 2.244 . S
O55 C45 1.272 . S
O55 Co47 2.135 1_455 S
Co56 O57 2.216 . S
Co56 O58 2.091 . S
Co56 O60 2.004 . S
Co56 O66 2.021 . S
Co56 O68 2.137 . S
Co56 O69 2.244 . S
O57 Co56 2.216 . S
O57 C64 1.247 . S
O58 Co56 2.091 . S
O58 C64 1.261 . S
C59 O68 1.247 . S
C59 O69 1.272 . S
O60 Co56 2.004 . S
O60 C65 1.259 . S
Co61 O62 2.061 . S
Co61 O67 2.052 . S
Co61 O69 2.135 . S
O62 Co61 2.061 . S
O62 C65 1.235 . S
C63 O66 1.238 . S
C63 O67 1.241 . S
C64 O57 1.247 . S
C64 O58 1.261 . S
C65 O60 1.259 . S
C65 O62 1.235 . S
O66 Co56 2.021 . S
O66 C63 1.238 . S
O67 Co61 2.052 . S
O67 C63 1.241 . S
O68 Co56 2.137 . S
O68 C59 1.247 . S
O69 Co56 2.244 . S
O69 C59 1.272 . S
O69 Co61 2.135 . S
Co70 O71 2.216 . S
Co70 O72 2.091 . S
Co70 O74 2.004 1_545 S
Co70 O80 2.021 1_545 S
Co70 O82 2.137 . S
Co70 O83 2.244 . S
O71 Co70 2.216 . S
O71 C78 1.247 . S
O72 Co70 2.091 . S
O72 C78 1.261 . S
C73 O82 1.247 . S
C73 O83 1.272 . S
O74 Co70 2.004 1_565 S
O74 C79 1.259 . S
Co75 O76 2.061 . S
Co75 O81 2.052 . S
Co75 O83 2.135 1_565 S
O76 Co75 2.061 . S
O76 C79 1.235 . S
C77 O80 1.238 . S
C77 O81 1.241 . S
C78 O71 1.247 . S
C78 O72 1.261 . S
C79 O74 1.259 . S
C79 O76 1.235 . S
O80 Co70 2.021 1_565 S
O80 C77 1.238 . S
O81 Co75 2.052 . S
O81 C77 1.241 . S
O82 Co70 2.137 . S
O82 C73 1.247 . S
O83 Co70 2.244 . S
O83 C73 1.272 . S
O83 Co75 2.135 1_545 S
Co84 O85 2.216 . S
Co84 O86 2.091 . S
Co84 O88 2.004 . S
Co84 O94 2.021 . S
Co84 O96 2.137 . S
Co84 O97 2.244 . S
O85 Co84 2.216 . S
O85 C92 1.247 . S
O86 Co84 2.091 . S
O86 C92 1.261 . S
C87 O96 1.247 . S
C87 O97 1.272 . S
O88 Co84 2.004 . S
O88 C93 1.259 . S
Co89 O90 2.061 . S
Co89 O95 2.052 . S
Co89 O97 2.135 . S
O90 Co89 2.061 . S
O90 C93 1.235 . S
C91 O94 1.238 . S
C91 O95 1.241 . S
C92 O85 1.247 . S
C92 O86 1.261 . S
C93 O88 1.259 . S
C93 O90 1.235 . S
O94 Co84 2.021 . S
O94 C91 1.238 . S
O95 Co89 2.052 . S
O95 C91 1.241 . S
O96 Co84 2.137 . S
O96 C87 1.247 . S
O97 Co84 2.244 . S
O97 C87 1.272 . S
O97 Co89 2.135 . S
Co98 O99 2.216 . S
Co98 O100 2.091 . S
Co98 O102 2.004 . S
Co98 O108 2.021 . S
Co98 O110 2.137 . S
Co98 O111 2.244 . S
O99 Co98 2.216 . S
O99 C106 1.247 . S
O100 Co98 2.091 . S
O100 C106 1.261 . S
C101 O110 1.247 . S
C101 O111 1.272 . S
O102 Co98 2.004 . S
O102 C107 1.259 . S
Co103 O104 2.061 . S
Co103 O109 2.052 . S
Co103 O111 2.135 . S
O104 Co103 2.061 . S
O104 C107 1.235 . S
C105 O108 1.238 . S
C105 O109 1.241 . S
C106 O99 1.247 . S
C106 O100 1.261 . S
C107 O102 1.259 . S
C107 O104 1.235 . S
O108 Co98 2.021 . S
O108 C105 1.238 . S
O109 Co103 2.052 . S
O109 C105 1.241 . S
O110 Co98 2.137 . S
O110 C101 1.247 . S
O111 Co98 2.244 . S
O111 C101 1.272 . S
O111 Co103 2.135 . S
Co112 O113 2.216 . S
Co112 O114 2.091 . S
Co112 O116 2.004 . S
Co112 O122 2.021 . S
Co112 O124 2.137 . S
Co112 O125 2.244 . S
O113 Co112 2.216 . S
O113 C120 1.247 . S
O114 Co112 2.091 . S
O114 C120 1.261 . S
C115 O124 1.247 . S
C115 O125 1.272 . S
O116 Co112 2.004 . S
O116 C121 1.259 . S
Co117 O118 2.061 . S
Co117 O123 2.052 . S
Co117 O125 2.135 . S
O118 Co117 2.061 . S
O118 C121 1.235 . S
C119 O122 1.238 . S
C119 O123 1.241 . S
C120 O113 1.247 . S
C120 O114 1.261 . S
C121 O116 1.259 . S
C121 O118 1.235 . S
O122 Co112 2.021 . S
O122 C119 1.238 . S
O123 Co117 2.052 . S
O123 C119 1.241 . S
O124 Co112 2.137 . S
O124 C115 1.247 . S
O125 Co112 2.244 . S
O125 C115 1.272 . S
O125 Co117 2.135 . S
Co126 O127 2.216 . S
Co126 O128 2.091 . S
Co126 O130 2.004 . S
Co126 O136 2.021 . S
Co126 O138 2.137 . S
Co126 O139 2.244 . S
O127 Co126 2.216 . S
O127 C134 1.247 . S
O128 Co126 2.091 . S
O128 C134 1.261 . S
C129 O138 1.247 . S
C129 O139 1.272 . S
O130 Co126 2.004 . S
O130 C135 1.259 . S
Co131 O132 2.061 . S
Co131 O137 2.052 . S
Co131 O139 2.135 . S
O132 Co131 2.061 . S
O132 C135 1.235 . S
C133 O136 1.238 . S
C133 O137 1.241 . S
C134 O127 1.247 . S
C134 O128 1.261 . S
C135 O130 1.259 . S
C135 O132 1.235 . S
O136 Co126 2.021 . S
O136 C133 1.238 . S
O137 Co131 2.052 . S
O137 C133 1.241 . S
O138 Co126 2.137 . S
O138 C129 1.247 . S
O139 Co126 2.244 . S
O139 C129 1.272 . S
O139 Co131 2.135 . S
Co140 O141 2.216 . S
Co140 O142 2.091 . S
Co140 O144 2.004 . S
Co140 O150 2.021 . S
Co140 O152 2.137 . S
Co140 O153 2.244 . S
O141 Co140 2.216 . S
O141 C148 1.247 . S
O142 Co140 2.091 . S
O142 C148 1.261 . S
C143 O152 1.247 . S
C143 O153 1.272 . S
O144 Co140 2.004 . S
O144 C149 1.259 . S
Co145 O146 2.061 . S
Co145 O151 2.052 . S
Co145 O153 2.135 . S
O146 Co145 2.061 . S
O146 C149 1.235 . S
C147 O150 1.238 . S
C147 O151 1.241 . S
C148 O141 1.247 . S
C148 O142 1.261 . S
C149 O144 1.259 . S
C149 O146 1.235 . S
O150 Co140 2.021 . S
O150 C147 1.238 . S
O151 Co145 2.052 . S
O151 C147 1.241 . S
O152 Co140 2.137 . S
O152 C143 1.247 . S
O153 Co140 2.244 . S
O153 C143 1.272 . S
O153 Co145 2.135 . S
Co154 O155 2.216 . S
Co154 O156 2.091 . S
Co154 O158 2.004 . S
Co154 O164 2.021 . S
Co154 O166 2.137 . S
Co154 O167 2.244 . S
O155 Co154 2.216 . S
O155 C162 1.247 . S
O156 Co154 2.091 . S
O156 C162 1.261 . S
C157 O166 1.247 . S
C157 O167 1.272 . S
O158 Co154 2.004 . S
O158 C163 1.259 . S
Co159 O160 2.061 . S
Co159 O165 2.052 . S
Co159 O167 2.135 . S
O160 Co159 2.061 . S
O160 C163 1.235 . S
C161 O164 1.238 . S
C161 O165 1.241 . S
C162 O155 1.247 . S
C162 O156 1.261 . S
C163 O158 1.259 . S
C163 O160 1.235 . S
O164 Co154 2.021 . S
O164 C161 1.238 . S
O165 Co159 2.052 . S
O165 C161 1.241 . S
O166 Co154 2.137 . S
O166 C157 1.247 . S
O167 Co154 2.244 . S
O167 C157 1.272 . S
O167 Co159 2.135 . S
Co168 O169 2.216 . S
Co168 O170 2.091 . S
Co168 O172 2.004 . S
Co168 O178 2.021 . S
Co168 O180 2.137 . S
Co168 O181 2.244 . S
O169 Co168 2.216 . S
O169 C176 1.247 . S
O170 Co168 2.091 . S
O170 C176 1.261 . S
C171 O180 1.247 . S
C171 O181 1.272 . S
O172 Co168 2.004 . S
O172 C177 1.259 . S
Co173 O174 2.061 . S
Co173 O179 2.052 . S
Co173 O181 2.135 . S
O174 Co173 2.061 . S
O174 C177 1.235 . S
C175 O178 1.238 . S
C175 O179 1.241 . S
C176 O169 1.247 . S
C176 O170 1.261 . S
C177 O172 1.259 . S
C177 O174 1.235 . S
O178 Co168 2.021 . S
O178 C175 1.238 . S
O179 Co173 2.052 . S
O179 C175 1.241 . S
O180 Co168 2.137 . S
O180 C171 1.247 . S
O181 Co168 2.244 . S
O181 C171 1.272 . S
O181 Co173 2.135 . S
Co182 O183 2.216 . S
Co182 O184 2.091 . S
Co182 O186 2.004 . S
Co182 O192 2.021 . S
Co182 O194 2.137 . S
Co182 O195 2.244 . S
O183 Co182 2.216 . S
O183 C190 1.247 . S
O184 Co182 2.091 . S
O184 C190 1.261 . S
C185 O194 1.247 . S
C185 O195 1.272 . S
O186 Co182 2.004 . S
O186 C191 1.259 . S
Co187 O188 2.061 . S
Co187 O193 2.052 . S
Co187 O195 2.135 . S
O188 Co187 2.061 . S
O188 C191 1.235 . S
C189 O192 1.238 . S
C189 O193 1.241 . S
C190 O183 1.247 . S
C190 O184 1.261 . S
C191 O186 1.259 . S
C191 O188 1.235 . S
O192 Co182 2.021 . S
O192 C189 1.238 . S
O193 Co187 2.052 . S
O193 C189 1.241 . S
O194 Co182 2.137 . S
O194 C185 1.247 . S
O195 Co182 2.244 . S
O195 C185 1.272 . S
O195 Co187 2.135 . S
Co196 O197 2.216 . S
Co196 O198 2.091 . S
Co196 O200 2.004 . S
Co196 O206 2.021 . S
Co196 O208 2.137 . S
Co196 O209 2.244 . S
O197 Co196 2.216 . S
O197 C204 1.247 . S
O198 Co196 2.091 . S
O198 C204 1.261 . S
C199 O208 1.247 . S
C199 O209 1.272 . S
O200 Co196 2.004 . S
O200 C205 1.259 . S
Co201 O202 2.061 . S
Co201 O207 2.052 . S
Co201 O209 2.135 . S
O202 Co201 2.061 . S
O202 C205 1.235 . S
C203 O206 1.238 . S
C203 O207 1.241 . S
C204 O197 1.247 . S
C204 O198 1.261 . S
C205 O200 1.259 . S
C205 O202 1.235 . S
O206 Co196 2.021 . S
O206 C203 1.238 . S
O207 Co201 2.052 . S
O207 C203 1.241 . S
O208 Co196 2.137 . S
O208 C199 1.247 . S
O209 Co196 2.244 . S
O209 C199 1.272 . S
O209 Co201 2.135 . S
Co210 O211 2.216 . S
Co210 O212 2.091 . S
Co210 O214 2.004 . S
Co210 O220 2.021 . S
Co210 O222 2.137 . S
Co210 O223 2.244 . S
O211 Co210 2.216 . S
O211 C218 1.247 . S
O212 Co210 2.091 . S
O212 C218 1.261 . S
C213 O222 1.247 . S
C213 O223 1.272 . S
O214 Co210 2.004 . S
O214 C219 1.259 . S
Co215 O216 2.061 . S
Co215 O221 2.052 . S
Co215 O223 2.135 . S
O216 Co215 2.061 . S
O216 C219 1.235 . S
C217 O220 1.238 . S
C217 O221 1.241 . S
C218 O211 1.247 . S
C218 O212 1.261 . S
C219 O214 1.259 . S
C219 O216 1.235 . S
O220 Co210 2.021 . S
O220 C217 1.238 . S
O221 Co215 2.052 . S
O221 C217 1.241 . S
O222 Co210 2.137 . S
O222 C213 1.247 . S
O223 Co210 2.244 . S
O223 C213 1.272 . S
O223 Co215 2.135 . S
Co224 O225 2.216 . S
Co224 O226 2.091 . S
Co224 O228 2.004 . S
Co224 O234 2.021 . S
Co224 O236 2.137 . S
Co224 O237 2.244 . S
O225 Co224 2.216 . S
O225 C232 1.247 . S
O226 Co224 2.091 . S
O226 C232 1.261 . S
C227 O236 1.247 . S
C227 O237 1.272 . S
O228 Co224 2.004 . S
O228 C233 1.259 . S
Co229 O230 2.061 . S
Co229 O235 2.052 . S
Co229 O237 2.135 . S
O230 Co229 2.061 . S
O230 C233 1.235 . S
C231 O234 1.238 . S
C231 O235 1.241 . S
C232 O225 1.247 . S
C232 O226 1.261 . S
C233 O228 1.259 . S
C233 O230 1.235 . S
O234 Co224 2.021 . S
O234 C231 1.238 . S
O235 Co229 2.052 . S
O235 C231 1.241 . S
O236 Co224 2.137 . S
O236 C227 1.247 . S
O237 Co224 2.244 . S
O237 C227 1.272 . S
O237 Co229 2.135 . S
Co238 O239 2.216 . S
Co238 O240 2.091 . S
Co238 O242 2.004 . S
Co238 O248 2.021 . S
Co238 O250 2.137 . S
Co238 O251 2.244 . S
O239 Co238 2.216 . S
O239 C246 1.247 . S
O240 Co238 2.091 . S
O240 C246 1.261 . S
C241 O250 1.247 . S
C241 O251 1.272 . S
O242 Co238 2.004 . S
O242 C247 1.259 . S
Co243 O244 2.061 . S
Co243 O249 2.052 . S
Co243 O251 2.135 . S
O244 Co243 2.061 . S
O244 C247 1.235 . S
C245 O248 1.238 . S
C245 O249 1.241 . S
C246 O239 1.247 . S
C246 O240 1.261 . S
C247 O242 1.259 . S
C247 O244 1.235 . S
O248 Co238 2.021 . S
O248 C245 1.238 . S
O249 Co243 2.052 . S
O249 C245 1.241 . S
O250 Co238 2.137 . S
O250 C241 1.247 . S
O251 Co238 2.244 . S
O251 C241 1.272 . S
O251 Co243 2.135 . S
C252 C253 1.391 . S
C252 C254 1.394 . S
C252 H268 0.931 . S
C253 C252 1.391 . S
C253 C257 1.376 . S
C254 C252 1.394 . S
C254 C255 1.369 . S
C254 C258 1.531 . S
C255 C254 1.369 . S
C255 C256 1.410 . S
C255 C263 1.503 . S
C256 C255 1.410 . S
C256 C257 1.392 . S
C256 C259 1.528 . S
C257 C253 1.376 . S
C257 C256 1.392 . S
C257 H269 0.890 1_455 S
C258 C254 1.531 . S
C258 H270 0.960 . S
C258 H271 0.962 . S
C258 H272 0.960 . S
C259 C256 1.528 . S
C259 H273 0.938 1_455 S
C259 H274 0.974 . S
C259 H275 0.955 1_455 S
C260 C261 1.376 . S
C260 C262 1.363 . S
C260 H276 0.931 1_554 S
C261 C260 1.376 . S
C261 C265 1.420 . S
C262 C260 1.363 . S
C262 C263 1.370 . S
C262 C266 1.524 . S
C263 C255 1.503 . S
C263 C262 1.370 . S
C263 C264 1.403 . S
C264 C263 1.403 . S
C264 C265 1.404 . S
C264 C267 1.539 . S
C265 C261 1.420 . S
C265 C264 1.404 . S
C265 H277 0.930 . S
C266 C262 1.524 . S
C266 H278 0.956 . S
C266 H279 0.961 . S
C266 H280 0.961 . S
C267 C264 1.539 . S
C267 H281 0.958 . S
C267 H282 0.961 . S
C267 H283 0.960 . S
H268 C252 0.931 . S
H269 C257 0.890 1_655 S
H270 C258 0.960 . S
H271 C258 0.962 . S
H272 C258 0.960 . S
H273 C259 0.938 1_655 S
H274 C259 0.974 . S
H275 C259 0.955 1_655 S
H276 C260 0.931 1_556 S
H277 C265 0.930 . S
H278 C266 0.956 . S
H279 C266 0.961 . S
H280 C266 0.961 . S
H281 C267 0.958 . S
H282 C267 0.961 . S
H283 C267 0.960 . S
C284 C285 1.391 1_554 S
C284 C286 1.394 . S
C284 H300 0.931 1_554 S
C285 C284 1.391 1_556 S
C285 C289 1.376 1_556 S
C286 C284 1.394 . S
C286 C287 1.369 . S
C286 C290 1.531 . S
C287 C286 1.369 . S
C287 C288 1.410 . S
C287 C295 1.503 . S
C288 C287 1.410 . S
C288 C289 1.392 . S
C288 C291 1.511 . S
C289 C285 1.376 1_554 S
C289 C288 1.392 . S
C289 H301 0.929 . S
C290 C286 1.531 . S
C290 H302 0.960 . S
C290 H303 0.962 . S
C290 H304 0.960 . S
C291 C288 1.511 . S
C291 H305 0.961 . S
C291 H306 0.961 . S
C291 H307 0.961 . S
C292 C293 1.370 . S
C292 C294 1.363 . S
C292 H308 0.931 . S
C293 C292 1.370 . S
C293 C297 1.408 . S
C294 C292 1.363 . S
C294 C295 1.370 . S
C294 C298 1.524 . S
C295 C287 1.503 . S
C295 C294 1.370 . S
C295 C296 1.403 . S
C296 C295 1.403 . S
C296 C297 1.404 . S
C296 C299 1.539 . S
C297 C293 1.408 . S
C297 C296 1.404 . S
C297 H309 0.930 . S
C298 C294 1.524 . S
C298 H310 0.956 . S
C298 H311 0.961 . S
C298 H312 0.961 . S
C299 C296 1.539 . S
C299 H313 0.958 . S
C299 H314 0.961 . S
C299 H315 0.960 . S
H300 C284 0.931 1_556 S
H301 C289 0.929 . S
H302 C290 0.960 . S
H303 C290 0.962 . S
H304 C290 0.960 . S
H305 C291 0.961 . S
H306 C291 0.961 . S
H307 C291 0.961 . S
H308 C292 0.931 . S
H309 C297 0.930 . S
H310 C298 0.956 . S
H311 C298 0.961 . S
H312 C298 0.961 . S
H313 C299 0.958 . S
H314 C299 0.961 . S
H315 C299 0.960 . S
C316 C317 1.391 1_545 S
C316 C318 1.394 1_545 S
C316 H332 0.931 . S
C317 C316 1.391 1_565 S
C317 C321 1.376 . S
C318 C316 1.394 1_565 S
C318 C319 1.369 . S
C318 C322 1.531 1_565 S
C319 C318 1.369 . S
C319 C320 1.410 . S
C319 C327 1.503 . S
C320 C319 1.410 . S
C320 C321 1.392 . S
C320 C323 1.511 . S
C321 C317 1.376 . S
C321 C320 1.392 . S
C321 H333 0.929 . S
C322 C318 1.531 1_545 S
C322 H334 0.960 . S
C322 H335 0.962 . S
C322 H336 0.960 . S
C323 C320 1.511 . S
C323 H337 0.961 . S
C323 H338 0.961 . S
C323 H339 0.961 . S
C324 C325 1.370 1_554 S
C324 C326 1.363 . S
C324 H340 0.931 . S
C325 C324 1.370 1_556 S
C325 C329 1.408 . S
C326 C324 1.363 . S
C326 C327 1.370 . S
C326 C330 1.524 . S
C327 C319 1.503 . S
C327 C326 1.370 . S
C327 C328 1.403 . S
C328 C327 1.403 . S
C328 C329 1.404 1_554 S
C328 C331 1.539 1_565 S
C329 C325 1.408 . S
C329 C328 1.404 1_556 S
C329 H341 0.930 . S
C330 C326 1.524 . S
C330 H342 0.956 . S
C330 H343 0.961 . S
C330 H344 0.961 . S
C331 C328 1.539 1_545 S
C331 H345 0.958 . S
C331 H346 0.961 . S
C331 H347 0.960 . S
H332 C316 0.931 . S
H333 C321 0.929 . S
H334 C322 0.960 . S
H335 C322 0.962 . S
H336 C322 0.960 . S
H337 C323 0.961 . S
H338 C323 0.961 . S
H339 C323 0.961 . S
H340 C324 0.931 . S
H341 C329 0.930 . S
H342 C330 0.956 . S
H343 C330 0.961 . S
H344 C330 0.961 . S
H345 C331 0.958 . S
H346 C331 0.961 . S
H347 C331 0.960 . S
C348 C349 1.391 . S
C348 C350 1.394 . S
C348 H364 0.931 . S
C349 C348 1.391 . S
C349 C353 1.376 . S
C350 C348 1.394 . S
C350 C351 1.369 . S
C350 C354 1.531 . S
C351 C350 1.369 . S
C351 C352 1.410 . S
C351 C359 1.503 . S
C352 C351 1.410 . S
C352 C353 1.392 . S
C352 C355 1.511 . S
C353 C349 1.376 . S
C353 C352 1.392 . S
C353 H365 0.929 . S
C354 C350 1.531 . S
C354 H366 0.960 . S
C354 H367 0.962 . S
C354 H368 0.960 . S
C355 C352 1.511 . S
C355 H369 0.961 . S
C355 H370 0.961 . S
C355 H371 0.961 1_545 S
C356 C357 1.370 . S
C356 C358 1.363 . S
C356 H372 0.931 . S
C357 C356 1.370 . S
C357 C361 1.408 . S
C358 C356 1.363 . S
C358 C359 1.370 . S
C358 C362 1.524 . S
C359 C351 1.503 . S
C359 C358 1.370 . S
C359 C360 1.403 . S
C360 C359 1.403 . S
C360 C361 1.404 . S
C360 C363 1.539 . S
C361 C357 1.408 . S
C361 C360 1.404 . S
C361 H373 0.930 . S
C362 C358 1.524 . S
C362 H374 0.956 . S
C362 H375 0.961 . S
C362 H376 0.961 . S
C363 C360 1.539 . S
C363 H377 0.958 . S
C363 H378 0.961 1_545 S
C363 H379 0.960 . S
H364 C348 0.931 . S
H365 C353 0.929 . S
H366 C354 0.960 . S
H367 C354 0.962 . S
H368 C354 0.960 . S
H369 C355 0.961 . S
H370 C355 0.961 . S
H371 C355 0.961 1_565 S
H372 C356 0.931 . S
H373 C361 0.930 . S
H374 C362 0.956 . S
H375 C362 0.961 . S
H376 C362 0.961 . S
H377 C363 0.958 . S
H378 C363 0.961 1_565 S
H379 C363 0.960 . S
C380 C381 1.391 . S
C380 C382 1.394 . S
C380 H396 0.931 . S
C381 C380 1.391 . S
C381 C385 1.376 . S
C382 C380 1.394 . S
C382 C383 1.369 . S
C382 C386 1.531 . S
C383 C382 1.369 . S
C383 C384 1.410 . S
C383 C391 1.503 . S
C384 C383 1.410 . S
C384 C385 1.392 . S
C384 C387 1.511 1_655 S
C385 C381 1.376 . S
C385 C384 1.392 . S
C385 H397 0.929 . S
C386 C382 1.531 . S
C386 H398 0.960 . S
C386 H399 0.962 . S
C386 H400 0.960 . S
C387 C384 1.511 1_455 S
C387 H401 0.961 . S
C387 H402 0.961 . S
C387 H403 0.961 . S
C388 C389 1.370 . S
C388 C390 1.363 . S
C388 H404 0.931 . S
C389 C388 1.370 . S
C389 C393 1.408 1_655 S
C390 C388 1.363 . S
C390 C391 1.370 . S
C390 C394 1.524 . S
C391 C383 1.503 . S
C391 C390 1.370 . S
C391 C392 1.403 1_655 S
C392 C391 1.403 1_455 S
C392 C393 1.404 . S
C392 C395 1.539 . S
C393 C389 1.408 1_455 S
C393 C392 1.404 . S
C393 H405 0.930 . S
C394 C390 1.524 . S
C394 H406 0.956 . S
C394 H407 0.961 . S
C394 H408 0.961 . S
C395 C392 1.539 . S
C395 H409 0.958 . S
C395 H410 0.961 . S
C395 H411 0.960 . S
H396 C380 0.931 . S
H397 C385 0.929 . S
H398 C386 0.960 . S
H399 C386 0.962 . S
H400 C386 0.960 . S
H401 C387 0.961 . S
H402 C387 0.961 . S
H403 C387 0.961 . S
H404 C388 0.931 . S
H405 C393 0.930 . S
H406 C394 0.956 . S
H407 C394 0.961 . S
H408 C394 0.961 . S
H409 C395 0.958 . S
H410 C395 0.961 . S
H411 C395 0.960 . S
C412 C413 1.391 . S
C412 C414 1.394 . S
C412 H428 0.931 . S
C413 C412 1.391 . S
C413 C417 1.376 . S
C414 C412 1.394 . S
C414 C415 1.369 . S
C414 C418 1.531 . S
C415 C414 1.369 . S
C415 C416 1.410 . S
C415 C423 1.503 . S
C416 C415 1.410 . S
C416 C417 1.392 . S
C416 C419 1.511 . S
C417 C413 1.376 . S
C417 C416 1.392 . S
C417 H429 0.929 . S
C418 C414 1.531 . S
C418 H430 0.960 . S
C418 H431 0.962 . S
C418 H432 0.960 . S
C419 C416 1.511 . S
C419 H433 0.961 . S
C419 H434 0.961 . S
C419 H435 0.961 . S
C420 C421 1.370 . S
C420 C422 1.363 . S
C420 H436 0.931 . S
C421 C420 1.370 . S
C421 C425 1.408 . S
C422 C420 1.363 . S
C422 C423 1.370 . S
C422 C426 1.524 . S
C423 C415 1.503 . S
C423 C422 1.370 . S
C423 C424 1.403 . S
C424 C423 1.403 . S
C424 C425 1.404 . S
C424 C427 1.539 . S
C425 C421 1.408 . S
C425 C424 1.404 . S
C425 H437 0.930 . S
C426 C422 1.524 . S
C426 H438 0.956 . S
C426 H439 0.961 . S
C426 H440 0.961 . S
C427 C424 1.539 . S
C427 H441 0.958 . S
C427 H442 0.961 . S
C427 H443 0.960 . S
H428 C412 0.931 . S
H429 C417 0.929 . S
H430 C418 0.960 . S
H431 C418 0.962 . S
H432 C418 0.960 . S
H433 C419 0.961 . S
H434 C419 0.961 . S
H435 C419 0.961 . S
H436 C420 0.931 . S
H437 C425 0.930 . S
H438 C426 0.956 . S
H439 C426 0.961 . S
H440 C426 0.961 . S
H441 C427 0.958 . S
H442 C427 0.961 . S
H443 C427 0.960 . S
C444 C445 1.391 . S
C444 C446 1.394 . S
C444 H460 0.931 . S
C445 C444 1.391 . S
C445 C449 1.376 . S
C446 C444 1.394 . S
C446 C447 1.369 . S
C446 C450 1.531 . S
C447 C446 1.369 . S
C447 C448 1.410 . S
C447 C455 1.503 . S
C448 C447 1.410 . S
C448 C449 1.392 . S
C448 C451 1.511 . S
C449 C445 1.376 . S
C449 C448 1.392 . S
C449 H461 0.929 . S
C450 C446 1.531 . S
C450 H462 0.960 . S
C450 H463 0.962 . S
C450 H464 0.960 . S
C451 C448 1.511 . S
C451 H465 0.961 . S
C451 H466 0.961 . S
C451 H467 0.961 . S
C452 C453 1.373 1_556 S
C452 C454 1.363 . S
C452 H468 0.931 . S
C453 C452 1.373 1_554 S
C453 C457 1.409 1_554 S
C454 C452 1.363 . S
C454 C455 1.370 . S
C454 C458 1.524 . S
C455 C447 1.503 . S
C455 C454 1.370 . S
C455 C456 1.403 . S
C456 C455 1.403 . S
C456 C457 1.404 . S
C456 C459 1.539 1_655 S
C457 C453 1.409 1_556 S
C457 C456 1.404 . S
C457 H469 0.930 1_556 S
C458 C454 1.524 . S
C458 H470 0.956 . S
C458 H471 0.961 . S
C458 H472 0.961 . S
C459 C456 1.539 1_455 S
C459 H473 0.958 . S
C459 H474 0.961 . S
C459 H475 0.960 . S
H460 C444 0.931 . S
H461 C449 0.929 . S
H462 C450 0.960 . S
H463 C450 0.962 . S
H464 C450 0.960 . S
H465 C451 0.961 . S
H466 C451 0.961 . S
H467 C451 0.961 . S
H468 C452 0.931 . S
H469 C457 0.930 1_554 S
H470 C458 0.956 . S
H471 C458 0.961 . S
H472 C458 0.961 . S
H473 C459 0.958 . S
H474 C459 0.961 . S
H475 C459 0.960 . S
C476 C477 1.390 1_556 S
C476 C478 1.394 . S
C476 H492 0.931 . S
C477 C476 1.390 1_554 S
C477 C481 1.375 1_554 S
C478 C476 1.394 . S
C478 C479 1.369 . S
C478 C482 1.531 . S
C479 C478 1.369 . S
C479 C480 1.410 . S
C479 C487 1.503 . S
C480 C479 1.410 . S
C480 C481 1.392 . S
C480 C483 1.511 . S
C481 C477 1.375 1_556 S
C481 C480 1.392 . S
C481 H493 0.929 . S
C482 C478 1.531 . S
C482 H494 0.960 . S
C482 H495 0.962 . S
C482 H496 0.960 . S
C483 C480 1.511 . S
C483 H497 0.961 . S
C483 H498 0.961 . S
C483 H499 0.961 . S
C484 C485 1.370 . S
C484 C486 1.363 . S
C484 H500 0.931 . S
C485 C484 1.370 . S
C485 C489 1.408 . S
C486 C484 1.363 . S
C486 C487 1.370 . S
C486 C490 1.524 . S
C487 C479 1.503 . S
C487 C486 1.370 . S
C487 C488 1.403 . S
C488 C487 1.403 . S
C488 C489 1.404 . S
C488 C491 1.539 . S
C489 C485 1.408 . S
C489 C488 1.404 . S
C489 H501 0.930 . S
C490 C486 1.524 . S
C490 H502 0.956 . S
C490 H503 0.961 . S
C490 H504 0.961 . S
C491 C488 1.539 . S
C491 H505 0.958 . S
C491 H506 0.961 . S
C491 H507 0.960 . S
H492 C476 0.931 . S
H493 C481 0.929 . S
H494 C482 0.960 . S
H495 C482 0.962 . S
H496 C482 0.960 . S
H497 C483 0.961 . S
H498 C483 0.961 . S
H499 C483 0.961 . S
H500 C484 0.931 . S
H501 C489 0.930 . S
H502 C490 0.956 . S
H503 C490 0.961 . S
H504 C490 0.961 . S
H505 C491 0.958 . S
H506 C491 0.961 . S
H507 C491 0.960 . S
C508 C509 1.391 1_556 S
C508 C510 1.394 . S
C508 H524 0.931 1_556 S
C509 C508 1.391 1_554 S
C509 C513 1.378 1_554 S
C510 C508 1.394 . S
C510 C511 1.369 . S
C510 C514 1.531 . S
C511 C510 1.369 . S
C511 C512 1.410 . S
C511 C519 1.503 . S
C512 C511 1.410 . S
C512 C513 1.392 . S
C512 C515 1.511 . S
C513 C509 1.378 1_556 S
C513 C512 1.392 . S
C513 H525 0.929 . S
C514 C510 1.531 . S
C514 H526 0.960 . S
C514 H527 0.962 . S
C514 H528 0.960 . S
C515 C512 1.511 . S
C515 H529 0.961 . S
C515 H530 0.961 . S
C515 H531 0.961 . S
C516 C517 1.370 . S
C516 C518 1.363 . S
C516 H532 0.931 1_545 S
C517 C516 1.370 . S
C517 C521 1.408 . S
C518 C516 1.363 . S
C518 C519 1.370 . S
C518 C522 1.524 1_545 S
C519 C511 1.503 . S
C519 C518 1.370 . S
C519 C520 1.403 . S
C520 C519 1.403 . S
C520 C521 1.404 . S
C520 C523 1.539 . S
C521 C517 1.408 . S
C521 C520 1.404 . S
C521 H533 0.930 . S
C522 C518 1.524 1_565 S
C522 H534 0.956 . S
C522 H535 0.961 . S
C522 H536 0.961 . S
C523 C520 1.539 . S
C523 H537 0.958 . S
C523 H538 0.961 . S
C523 H539 0.960 . S
H524 C508 0.931 1_554 S
H525 C513 0.929 . S
H526 C514 0.960 . S
H527 C514 0.962 . S
H528 C514 0.960 . S
H529 C515 0.961 . S
H530 C515 0.961 . S
H531 C515 0.961 . S
H532 C516 0.931 1_565 S
H533 C521 0.930 . S
H534 C522 0.956 . S
H535 C522 0.961 . S
H536 C522 0.961 . S
H537 C523 0.958 . S
H538 C523 0.961 . S
H539 C523 0.960 . S
C540 C541 1.391 . S
C540 C542 1.394 . S
C540 H556 0.931 1_565 S
C541 C540 1.391 . S
C541 C545 1.376 . S
C542 C540 1.394 . S
C542 C543 1.369 . S
C542 C546 1.531 1_565 S
C543 C542 1.369 . S
C543 C544 1.410 . S
C543 C551 1.503 . S
C544 C543 1.410 . S
C544 C545 1.392 . S
C544 C547 1.511 . S
C545 C541 1.376 . S
C545 C544 1.392 . S
C545 H557 0.929 . S
C546 C542 1.531 1_545 S
C546 H558 0.960 . S
C546 H559 0.962 1_545 S
C546 H560 0.960 . S
C547 C544 1.511 . S
C547 H561 0.961 . S
C547 H562 0.961 . S
C547 H563 0.961 . S
C548 C549 1.370 . S
C548 C550 1.363 . S
C548 H564 0.931 . S
C549 C548 1.370 . S
C549 C553 1.408 . S
C550 C548 1.363 . S
C550 C551 1.370 . S
C550 C554 1.524 . S
C551 C543 1.503 . S
C551 C550 1.370 . S
C551 C552 1.403 . S
C552 C551 1.403 . S
C552 C553 1.404 . S
C552 C555 1.539 1_565 S
C553 C549 1.408 . S
C553 C552 1.404 . S
C553 H565 0.930 . S
C554 C550 1.524 . S
C554 H566 0.956 . S
C554 H567 0.961 . S
C554 H568 0.961 . S
C555 C552 1.539 1_545 S
C555 H569 0.958 . S
C555 H570 0.961 . S
C555 H571 0.960 . S
H556 C540 0.931 1_545 S
H557 C545 0.929 . S
H558 C546 0.960 . S
H559 C546 0.962 1_565 S
H560 C546 0.960 . S
H561 C547 0.961 . S
H562 C547 0.961 . S
H563 C547 0.961 . S
H564 C548 0.931 . S
H565 C553 0.930 . S
H566 C554 0.956 . S
H567 C554 0.961 . S
H568 C554 0.961 . S
H569 C555 0.958 . S
H570 C555 0.961 . S
H571 C555 0.960 . S
C572 C573 1.391 . S
C572 C574 1.394 . S
C572 H588 0.931 . S
C573 C572 1.391 . S
C573 C577 1.376 . S
C574 C572 1.394 . S
C574 C575 1.369 . S
C574 C578 1.531 . S
C575 C574 1.369 . S
C575 C576 1.410 . S
C575 C583 1.503 . S
C576 C575 1.410 . S
C576 C577 1.392 . S
C576 C579 1.511 . S
C577 C573 1.376 . S
C577 C576 1.392 . S
C577 H589 0.929 . S
C578 C574 1.531 . S
C578 H590 0.960 . S
C578 H591 0.962 . S
C578 H592 0.960 . S
C579 C576 1.511 . S
C579 H593 0.961 . S
C579 H594 0.961 . S
C579 H595 0.961 . S
C580 C581 1.370 . S
C580 C582 1.363 . S
C580 H596 0.931 . S
C581 C580 1.370 . S
C581 C585 1.408 . S
C582 C580 1.363 . S
C582 C583 1.370 . S
C582 C586 1.524 . S
C583 C575 1.503 . S
C583 C582 1.370 . S
C583 C584 1.403 . S
C584 C583 1.403 . S
C584 C585 1.404 . S
C584 C587 1.539 . S
C585 C581 1.408 . S
C585 C584 1.404 . S
C585 H597 0.930 . S
C586 C582 1.524 . S
C586 H598 0.956 1_455 S
C586 H599 0.977 1_455 S
C586 H600 0.961 1_455 S
C587 C584 1.539 . S
C587 H601 0.958 . S
C587 H602 0.961 . S
C587 H603 0.960 . S
H588 C572 0.931 . S
H589 C577 0.929 . S
H590 C578 0.960 . S
H591 C578 0.962 . S
H592 C578 0.960 . S
H593 C579 0.961 . S
H594 C579 0.961 . S
H595 C579 0.961 . S
H596 C580 0.931 . S
H597 C585 0.930 . S
H598 C586 0.956 1_655 S
H599 C586 0.977 1_655 S
H600 C586 0.961 1_655 S
H601 C587 0.958 . S
H602 C587 0.961 . S
H603 C587 0.960 . S
C604 C605 1.391 . S
C604 C606 1.394 . S
C604 H620 0.931 . S
C605 C604 1.391 . S
C605 C609 1.376 . S
C606 C604 1.394 . S
C606 C607 1.369 . S
C606 C610 1.531 . S
C607 C606 1.369 . S
C607 C608 1.410 . S
C607 C615 1.503 . S
C608 C607 1.410 . S
C608 C609 1.392 . S
C608 C611 1.511 . S
C609 C605 1.376 . S
C609 C608 1.392 . S
C609 H621 0.929 . S
C610 C606 1.531 . S
C610 H622 0.960 . S
C610 H623 0.962 . S
C610 H624 0.960 . S
C611 C608 1.511 . S
C611 H625 0.961 . S
C611 H626 0.961 . S
C611 H627 0.961 . S
C612 C613 1.370 . S
C612 C614 1.363 . S
C612 H628 0.931 . S
C613 C612 1.370 . S
C613 C617 1.408 . S
C614 C612 1.363 . S
C614 C615 1.370 . S
C614 C618 1.524 . S
C615 C607 1.503 . S
C615 C614 1.370 . S
C615 C616 1.403 . S
C616 C615 1.403 . S
C616 C617 1.404 . S
C616 C619 1.539 . S
C617 C613 1.408 . S
C617 C616 1.404 . S
C617 H629 0.930 . S
C618 C614 1.524 . S
C618 H630 0.956 . S
C618 H631 0.961 . S
C618 H632 0.961 . S
C619 C616 1.539 . S
C619 H633 0.958 . S
C619 H634 0.961 . S
C619 H635 0.960 . S
H620 C604 0.931 . S
H621 C609 0.929 . S
H622 C610 0.960 . S
H623 C610 0.962 . S
H624 C610 0.960 . S
H625 C611 0.961 . S
H626 C611 0.961 . S
H627 C611 0.961 . S
H628 C612 0.931 . S
H629 C617 0.930 . S
H630 C618 0.956 . S
H631 C618 0.961 . S
H632 C618 0.961 . S
H633 C619 0.958 . S
H634 C619 0.961 . S
H635 C619 0.960 . S
C636 C637 1.391 . S
C636 C638 1.394 . S
C636 H652 0.931 . S
C637 C636 1.391 . S
C637 C641 1.376 . S
C638 C636 1.394 . S
C638 C639 1.369 . S
C638 C642 1.531 . S
C639 C638 1.369 . S
C639 C640 1.410 . S
C639 C647 1.503 . S
C640 C639 1.410 . S
C640 C641 1.392 . S
C640 C643 1.511 . S
C641 C637 1.376 . S
C641 C640 1.392 . S
C641 H653 0.929 . S
C642 C638 1.531 . S
C642 H654 0.960 . S
C642 H655 0.962 . S
C642 H656 0.960 . S
C643 C640 1.511 . S
C643 H657 0.961 . S
C643 H658 0.961 . S
C643 H659 0.961 . S
C644 C645 1.370 . S
C644 C646 1.363 . S
C644 H660 0.931 . S
C645 C644 1.370 . S
C645 C649 1.408 . S
C646 C644 1.363 . S
C646 C647 1.370 . S
C646 C650 1.524 . S
C647 C639 1.503 . S
C647 C646 1.370 . S
C647 C648 1.403 . S
C648 C647 1.403 . S
C648 C649 1.404 . S
C648 C651 1.539 . S
C649 C645 1.408 . S
C649 C648 1.404 . S
C649 H661 0.930 . S
C650 C646 1.524 . S
C650 H662 0.956 . S
C650 H663 0.961 . S
C650 H664 0.961 . S
C651 C648 1.539 . S
C651 H665 0.958 . S
C651 H666 0.961 . S
C651 H667 0.960 . S
H652 C636 0.931 . S
H653 C641 0.929 . S
H654 C642 0.960 . S
H655 C642 0.962 . S
H656 C642 0.960 . S
H657 C643 0.961 . S
H658 C643 0.961 . S
H659 C643 0.961 . S
H660 C644 0.931 . S
H661 C649 0.930 . S
H662 C650 0.956 . S
H663 C650 0.961 . S
H664 C650 0.961 . S
H665 C651 0.958 . S
H666 C651 0.961 . S
H667 C651 0.960 . S
C668 C669 1.391 . S
C668 C670 1.394 . S
C668 H684 0.931 . S
C669 C668 1.391 . S
C669 C673 1.376 . S
C670 C668 1.394 . S
C670 C671 1.369 . S
C670 C674 1.531 1_545 S
C671 C670 1.369 . S
C671 C672 1.410 . S
C671 C679 1.503 1_545 S
C672 C671 1.410 . S
C672 C673 1.392 . S
C672 C675 1.511 . S
C673 C669 1.376 . S
C673 C672 1.392 . S
C673 H685 0.929 . S
C674 C670 1.531 1_565 S
C674 H686 0.960 . S
C674 H687 0.962 . S
C674 H688 0.960 . S
C675 C672 1.511 . S
C675 H689 0.961 . S
C675 H690 0.961 . S
C675 H691 0.961 . S
C676 C677 1.370 . S
C676 C678 1.363 1_565 S
C676 H692 0.952 . S
C677 C676 1.370 . S
C677 C681 1.408 . S
C678 C676 1.363 1_545 S
C678 C679 1.370 1_545 S
C678 C682 1.524 . S
C679 C671 1.503 1_565 S
C679 C678 1.370 1_565 S
C679 C680 1.403 . S
C680 C679 1.403 . S
C680 C681 1.404 . S
C680 C683 1.539 . S
C681 C677 1.408 . S
C681 C680 1.404 . S
C681 H693 0.930 . S
C682 C678 1.524 . S
C682 H694 0.956 . S
C682 H695 0.961 . S
C682 H696 0.961 . S
C683 C680 1.539 . S
C683 H697 0.958 . S
C683 H698 0.961 . S
C683 H699 0.960 . S
H684 C668 0.931 . S
H685 C673 0.929 . S
H686 C674 0.960 . S
H687 C674 0.962 . S
H688 C674 0.960 . S
H689 C675 0.961 . S
H690 C675 0.961 . S
H691 C675 0.961 . S
H692 C676 0.952 . S
H693 C681 0.930 . S
H694 C682 0.956 . S
H695 C682 0.961 . S
H696 C682 0.961 . S
H697 C683 0.958 . S
H698 C683 0.961 . S
H699 C683 0.960 . S
C700 C701 1.391 . S
C700 C702 1.394 . S
C700 H716 0.931 . S
C701 C700 1.391 . S
C701 C705 1.376 . S
C702 C700 1.394 . S
C702 C703 1.369 . S
C702 C706 1.531 1_455 S
C703 C702 1.369 . S
C703 C704 1.410 . S
C703 C711 1.503 . S
C704 C703 1.410 . S
C704 C705 1.392 . S
C704 C707 1.511 . S
C705 C701 1.376 . S
C705 C704 1.392 . S
C705 H717 0.929 . S
C706 C702 1.531 1_655 S
C706 H718 0.960 . S
C706 H719 0.962 . S
C706 H720 0.960 1_655 S
C707 C704 1.511 . S
C707 H721 0.961 . S
C707 H722 0.961 . S
C707 H723 0.961 . S
C708 C709 1.370 . S
C708 C710 1.363 . S
C708 H724 0.931 . S
C709 C708 1.370 . S
C709 C713 1.408 1_655 S
C710 C708 1.363 . S
C710 C711 1.370 1_655 S
C710 C714 1.524 . S
C711 C703 1.503 . S
C711 C710 1.370 1_455 S
C711 C712 1.403 . S
C712 C711 1.403 . S
C712 C713 1.404 . S
C712 C715 1.539 . S
C713 C709 1.408 1_455 S
C713 C712 1.404 . S
C713 H725 0.930 . S
C714 C710 1.524 . S
C714 H726 0.956 . S
C714 H727 0.961 . S
C714 H728 0.961 . S
C715 C712 1.539 . S
C715 H729 0.958 . S
C715 H730 0.961 . S
C715 H731 0.960 . S
H716 C700 0.931 . S
H717 C705 0.929 . S
H718 C706 0.960 . S
H719 C706 0.962 . S
H720 C706 0.960 1_455 S
H721 C707 0.961 . S
H722 C707 0.961 . S
H723 C707 0.961 . S
H724 C708 0.931 . S
H725 C713 0.930 . S
H726 C714 0.956 . S
H727 C714 0.961 . S
H728 C714 0.961 . S
H729 C715 0.958 . S
H730 C715 0.961 . S
H731 C715 0.960 . S
C732 C733 1.391 . S
C732 C734 1.394 . S
C732 H748 0.931 . S
C733 C732 1.391 . S
C733 C737 1.376 . S
C734 C732 1.394 . S
C734 C735 1.369 . S
C734 C738 1.531 . S
C735 C734 1.369 . S
C735 C736 1.410 . S
C735 C743 1.503 . S
C736 C735 1.410 . S
C736 C737 1.392 . S
C736 C739 1.511 . S
C737 C733 1.376 . S
C737 C736 1.392 . S
C737 H749 0.929 . S
C738 C734 1.531 . S
C738 H750 0.960 . S
C738 H751 0.962 . S
C738 H752 0.960 . S
C739 C736 1.511 . S
C739 H753 0.961 . S
C739 H754 0.961 . S
C739 H755 0.961 . S
C740 C741 1.370 . S
C740 C742 1.363 . S
C740 H756 0.931 . S
C741 C740 1.370 . S
C741 C745 1.408 . S
C742 C740 1.363 . S
C742 C743 1.370 . S
C742 C746 1.524 . S
C743 C735 1.503 . S
C743 C742 1.370 . S
C743 C744 1.403 . S
C744 C743 1.403 . S
C744 C745 1.404 . S
C744 C747 1.539 . S
C745 C741 1.408 . S
C745 C744 1.404 . S
C745 H757 0.930 . S
C746 C742 1.524 . S
C746 H758 0.956 . S
C746 H759 0.961 . S
C746 H760 0.961 . S
C747 C744 1.539 . S
C747 H761 0.958 . S
C747 H762 0.961 . S
C747 H763 0.960 . S
H748 C732 0.931 . S
H749 C737 0.929 . S
H750 C738 0.960 . S
H751 C738 0.962 . S
H752 C738 0.960 . S
H753 C739 0.961 . S
H754 C739 0.961 . S
H755 C739 0.961 . S
H756 C740 0.931 . S
H757 C745 0.930 . S
H758 C746 0.956 . S
H759 C746 0.961 . S
H760 C746 0.961 . S
H761 C747 0.958 . S
H762 C747 0.961 . S
H763 C747 0.960 . S
C764 C765 1.391 . S
C764 C766 1.394 . S
C764 H780 0.931 . S
C765 C764 1.391 . S
C765 C769 1.376 . S
C766 C764 1.394 . S
C766 C767 1.369 . S
C766 C770 1.531 . S
C767 C766 1.369 . S
C767 C768 1.410 . S
C767 C775 1.510 . S
C768 C767 1.410 . S
C768 C769 1.392 . S
C768 C771 1.511 . S
C769 C765 1.376 . S
C769 C768 1.392 . S
C769 H781 0.929 . S
C770 C766 1.531 . S
C770 H782 0.960 . S
C770 H783 0.962 . S
C770 H784 0.960 . S
C771 C768 1.511 . S
C771 H785 0.961 1_545 S
C771 H786 0.961 1_545 S
C771 H787 0.961 . S
C772 C773 1.370 . S
C772 C774 1.363 . S
C772 H788 0.931 . S
C773 C772 1.370 . S
C773 C777 1.408 . S
C774 C772 1.363 . S
C774 C775 1.356 1_565 S
C774 C778 1.524 . S
C775 C767 1.510 . S
C775 C774 1.356 1_545 S
C775 C776 1.410 . S
C776 C775 1.410 . S
C776 C777 1.404 1_545 S
C776 C779 1.539 . S
C777 C773 1.408 . S
C777 C776 1.404 1_565 S
C777 H789 0.930 1_565 S
C778 C774 1.524 . S
C778 H790 0.956 . S
C778 H791 0.961 . S
C778 H792 0.961 . S
C779 C776 1.539 . S
C779 H793 0.958 . S
C779 H794 0.961 . S
C779 H795 0.960 . S
H780 C764 0.931 . S
H781 C769 0.929 . S
H782 C770 0.960 . S
H783 C770 0.962 . S
H784 C770 0.960 . S
H785 C771 0.961 1_565 S
H786 C771 0.961 1_565 S
H787 C771 0.961 . S
H788 C772 0.931 . S
H789 C777 0.930 1_545 S
H790 C778 0.956 . S
H791 C778 0.961 . S
H792 C778 0.961 . S
H793 C779 0.958 . S
H794 C779 0.961 . S
H795 C779 0.960 . S
C796 C797 1.391 . S
C796 C798 1.394 . S
C796 H812 0.931 . S
C797 C796 1.391 . S
C797 C801 1.376 . S
C798 C796 1.394 . S
C798 C799 1.369 . S
C798 C802 1.531 1_455 S
C799 C798 1.369 . S
C799 C800 1.410 . S
C799 C807 1.503 . S
C800 C799 1.410 . S
C800 C801 1.392 . S
C800 C803 1.511 . S
C801 C797 1.376 . S
C801 C800 1.392 . S
C801 H813 0.929 . S
C802 C798 1.531 1_655 S
C802 H814 0.960 . S
C802 H815 0.962 . S
C802 H816 0.960 1_655 S
C803 C800 1.511 . S
C803 H817 0.961 . S
C803 H818 0.961 . S
C803 H819 0.961 . S
C804 C805 1.370 . S
C804 C806 1.363 . S
C804 H820 0.931 . S
C805 C804 1.370 . S
C805 C809 1.413 . S
C806 C804 1.363 . S
C806 C807 1.370 1_655 S
C806 C810 1.524 . S
C807 C799 1.503 . S
C807 C806 1.370 1_455 S
C807 C808 1.403 . S
C808 C807 1.403 . S
C808 C809 1.400 1_455 S
C808 C811 1.539 . S
C809 C805 1.413 . S
C809 C808 1.400 1_655 S
C809 H821 0.929 1_655 S
C810 C806 1.524 . S
C810 H822 0.956 . S
C810 H823 0.961 . S
C810 H824 0.961 . S
C811 C808 1.539 . S
C811 H825 0.958 . S
C811 H826 0.961 . S
C811 H827 0.960 . S
H812 C796 0.931 . S
H813 C801 0.929 . S
H814 C802 0.960 . S
H815 C802 0.962 . S
H816 C802 0.960 1_455 S
H817 C803 0.961 . S
H818 C803 0.961 . S
H819 C803 0.961 . S
H820 C804 0.931 . S
H821 C809 0.929 1_455 S
H822 C810 0.956 . S
H823 C810 0.961 . S
H824 C810 0.961 . S
H825 C811 0.958 . S
H826 C811 0.961 . S
H827 C811 0.960 . S
C828 C829 1.391 . S
C828 C830 1.394 . S
C828 H844 0.931 . S
C829 C828 1.391 . S
C829 C833 1.376 . S
C830 C828 1.394 . S
C830 C831 1.369 . S
C830 C834 1.531 . S
C831 C830 1.369 . S
C831 C832 1.410 . S
C831 C839 1.503 . S
C832 C831 1.410 . S
C832 C833 1.392 . S
C832 C835 1.511 . S
C833 C829 1.376 . S
C833 C832 1.392 . S
C833 H845 0.929 . S
C834 C830 1.531 . S
C834 H846 0.960 . S
C834 H847 0.962 . S
C834 H848 0.960 . S
C835 C832 1.511 . S
C835 H849 0.961 . S
C835 H850 0.961 . S
C835 H851 0.961 . S
C836 C837 1.370 . S
C836 C838 1.363 . S
C836 H852 0.931 . S
C837 C836 1.370 . S
C837 C841 1.408 . S
C838 C836 1.363 . S
C838 C839 1.370 . S
C838 C842 1.524 . S
C839 C831 1.503 . S
C839 C838 1.370 . S
C839 C840 1.403 . S
C840 C839 1.403 . S
C840 C841 1.404 . S
C840 C843 1.539 . S
C841 C837 1.408 . S
C841 C840 1.404 . S
C841 H853 0.930 . S
C842 C838 1.524 . S
C842 H854 0.956 . S
C842 H855 0.961 . S
C842 H856 0.961 . S
C843 C840 1.539 . S
C843 H857 0.958 . S
C843 H858 0.961 . S
C843 H859 0.960 . S
H844 C828 0.931 . S
H845 C833 0.929 . S
H846 C834 0.960 . S
H847 C834 0.962 . S
H848 C834 0.960 . S
H849 C835 0.961 . S
H850 C835 0.961 . S
H851 C835 0.961 . S
H852 C836 0.931 . S
H853 C841 0.930 . S
H854 C842 0.956 . S
H855 C842 0.961 . S
H856 C842 0.961 . S
H857 C843 0.958 . S
H858 C843 0.961 . S
H859 C843 0.960 . S
C860 C861 1.391 . S
C860 C862 1.394 . S
C860 H876 0.931 . S
C861 C860 1.391 . S
C861 C865 1.376 . S
C862 C860 1.394 . S
C862 C863 1.369 . S
C862 C866 1.531 . S
C863 C862 1.369 . S
C863 C864 1.410 . S
C863 C871 1.503 . S
C864 C863 1.410 . S
C864 C865 1.392 . S
C864 C867 1.511 . S
C865 C861 1.376 . S
C865 C864 1.392 . S
C865 H877 0.929 . S
C866 C862 1.531 . S
C866 H878 0.960 . S
C866 H879 0.962 . S
C866 H880 0.960 . S
C867 C864 1.511 . S
C867 H881 0.961 . S
C867 H882 0.961 . S
C867 H883 0.961 . S
C868 C869 1.370 . S
C868 C870 1.363 . S
C868 H884 0.931 . S
C869 C868 1.370 . S
C869 C873 1.408 . S
C870 C868 1.363 . S
C870 C871 1.370 . S
C870 C874 1.524 . S
C871 C863 1.503 . S
C871 C870 1.370 . S
C871 C872 1.403 . S
C872 C871 1.403 . S
C872 C873 1.404 . S
C872 C875 1.539 . S
C873 C869 1.408 . S
C873 C872 1.404 . S
C873 H885 0.930 . S
C874 C870 1.524 . S
C874 H886 0.956 . S
C874 H887 0.961 . S
C874 H888 0.961 . S
C875 C872 1.539 . S
C875 H889 0.958 . S
C875 H890 0.961 . S
C875 H891 0.960 . S
H876 C860 0.931 . S
H877 C865 0.929 . S
H878 C866 0.960 . S
H879 C866 0.962 . S
H880 C866 0.960 . S
H881 C867 0.961 . S
H882 C867 0.961 . S
H883 C867 0.961 . S
H884 C868 0.931 . S
H885 C873 0.930 . S
H886 C874 0.956 . S
H887 C874 0.961 . S
H888 C874 0.961 . S
H889 C875 0.958 . S
H890 C875 0.961 . S
H891 C875 0.960 . S
C892 C893 1.391 . S
C892 C894 1.394 . S
C892 H908 0.931 . S
C893 C892 1.391 . S
C893 C897 1.376 . S
C894 C892 1.394 . S
C894 C895 1.369 . S
C894 C898 1.531 . S
C895 C894 1.369 . S
C895 C896 1.410 . S
C895 C903 1.503 . S
C896 C895 1.410 . S
C896 C897 1.392 . S
C896 C899 1.511 . S
C897 C893 1.376 . S
C897 C896 1.392 . S
C897 H909 0.929 . S
C898 C894 1.531 . S
C898 H910 0.960 . S
C898 H911 0.962 . S
C898 H912 0.960 . S
C899 C896 1.511 . S
C899 H913 0.961 . S
C899 H914 0.961 . S
C899 H915 0.961 . S
C900 C901 1.370 . S
C900 C902 1.363 . S
C900 H916 0.931 . S
C901 C900 1.370 . S
C901 C905 1.408 . S
C902 C900 1.363 . S
C902 C903 1.370 . S
C902 C906 1.524 . S
C903 C895 1.503 . S
C903 C902 1.370 . S
C903 C904 1.403 . S
C904 C903 1.403 . S
C904 C905 1.404 . S
C904 C907 1.539 . S
C905 C901 1.408 . S
C905 C904 1.404 . S
C905 H917 0.930 . S
C906 C902 1.524 . S
C906 H918 0.956 . S
C906 H919 0.961 . S
C906 H920 0.961 . S
C907 C904 1.539 . S
C907 H921 0.958 . S
C907 H922 0.961 . S
C907 H923 0.960 . S
H908 C892 0.931 . S
H909 C897 0.929 . S
H910 C898 0.960 . S
H911 C898 0.962 . S
H912 C898 0.960 . S
H913 C899 0.961 . S
H914 C899 0.961 . S
H915 C899 0.961 . S
H916 C900 0.931 . S
H917 C905 0.930 . S
H918 C906 0.956 . S
H919 C906 0.961 . S
H920 C906 0.961 . S
H921 C907 0.958 . S
H922 C907 0.961 . S
H923 C907 0.960 . S
C924 C925 1.391 . S
C924 C926 1.394 . S
C924 H940 0.931 . S
C925 C924 1.391 . S
C925 C929 1.376 . S
C926 C924 1.394 . S
C926 C927 1.369 . S
C926 C930 1.531 . S
C927 C926 1.369 . S
C927 C928 1.410 . S
C927 C935 1.503 . S
C928 C927 1.410 . S
C928 C929 1.392 . S
C928 C931 1.511 . S
C929 C925 1.376 . S
C929 C928 1.392 . S
C929 H941 0.929 . S
C930 C926 1.531 . S
C930 H942 0.960 . S
C930 H943 0.962 . S
C930 H944 0.960 . S
C931 C928 1.511 . S
C931 H945 0.961 . S
C931 H946 0.961 . S
C931 H947 0.961 . S
C932 C933 1.370 . S
C932 C934 1.363 . S
C932 H948 0.931 . S
C933 C932 1.370 . S
C933 C937 1.408 . S
C934 C932 1.363 . S
C934 C935 1.370 . S
C934 C938 1.524 . S
C935 C927 1.503 . S
C935 C934 1.370 . S
C935 C936 1.403 . S
C936 C935 1.403 . S
C936 C937 1.404 . S
C936 C939 1.539 . S
C937 C933 1.408 . S
C937 C936 1.404 . S
C937 H949 0.930 . S
C938 C934 1.524 . S
C938 H950 0.956 . S
C938 H951 0.961 . S
C938 H952 0.961 . S
C939 C936 1.539 . S
C939 H953 0.958 . S
C939 H954 0.961 . S
C939 H955 0.960 . S
H940 C924 0.931 . S
H941 C929 0.929 . S
H942 C930 0.960 . S
H943 C930 0.962 . S
H944 C930 0.960 . S
H945 C931 0.961 . S
H946 C931 0.961 . S
H947 C931 0.961 . S
H948 C932 0.931 . S
H949 C937 0.930 . S
H950 C938 0.956 . S
H951 C938 0.961 . S
H952 C938 0.961 . S
H953 C939 0.958 . S
H954 C939 0.961 . S
H955 C939 0.960 . S
C956 C957 1.391 . S
C956 C958 1.394 . S
C956 H972 0.931 . S
C957 C956 1.391 . S
C957 C961 1.376 . S
C958 C956 1.394 . S
C958 C959 1.369 . S
C958 C962 1.531 . S
C959 C958 1.369 . S
C959 C960 1.410 . S
C959 C967 1.503 . S
C960 C959 1.410 . S
C960 C961 1.392 . S
C960 C963 1.511 . S
C961 C957 1.376 . S
C961 C960 1.392 . S
C961 H973 0.929 . S
C962 C958 1.531 . S
C962 H974 0.960 . S
C962 H975 0.962 . S
C962 H976 0.960 . S
C963 C960 1.511 . S
C963 H977 0.961 . S
C963 H978 0.961 . S
C963 H979 0.961 . S
C964 C965 1.370 . S
C964 C966 1.363 . S
C964 H980 0.931 . S
C965 C964 1.370 . S
C965 C969 1.408 . S
C966 C964 1.363 . S
C966 C967 1.370 . S
C966 C970 1.524 . S
C967 C959 1.503 . S
C967 C966 1.370 . S
C967 C968 1.403 . S
C968 C967 1.403 . S
C968 C969 1.404 . S
C968 C971 1.539 . S
C969 C965 1.408 . S
C969 C968 1.404 . S
C969 H981 0.930 . S
C970 C966 1.524 . S
C970 H982 0.956 . S
C970 H983 0.961 . S
C970 H984 0.961 . S
C971 C968 1.539 . S
C971 H985 0.958 . S
C971 H986 0.961 . S
C971 H987 0.960 . S
H972 C956 0.931 . S
H973 C961 0.929 . S
H974 C962 0.960 . S
H975 C962 0.962 . S
H976 C962 0.960 . S
H977 C963 0.961 . S
H978 C963 0.961 . S
H979 C963 0.961 . S
H980 C964 0.931 . S
H981 C969 0.930 . S
H982 C970 0.956 . S
H983 C970 0.961 . S
H984 C970 0.961 . S
H985 C971 0.958 . S
H986 C971 0.961 . S
H987 C971 0.960 . S
C988 C989 1.391 . S
C988 C990 1.394 . S
C988 H1004 0.931 . S
C989 C988 1.391 . S
C989 C993 1.376 . S
C990 C988 1.394 . S
C990 C991 1.369 . S
C990 C994 1.531 . S
C991 C990 1.369 . S
C991 C992 1.410 . S
C991 C999 1.503 . S
C992 C991 1.410 . S
C992 C993 1.392 . S
C992 C995 1.511 . S
C993 C989 1.376 . S
C993 C992 1.392 . S
C993 H1005 0.929 . S
C994 C990 1.531 . S
C994 H1006 0.960 . S
C994 H1007 0.962 . S
C994 H1008 0.960 . S
C995 C992 1.511 . S
C995 H1009 0.961 . S
C995 H1010 0.961 . S
C995 H1011 0.961 . S
C996 C997 1.370 . S
C996 C998 1.363 . S
C996 H1012 0.931 . S
C997 C996 1.370 . S
C997 C1001 1.408 . S
C998 C996 1.363 . S
C998 C999 1.370 . S
C998 C1002 1.524 . S
C999 C991 1.503 . S
C999 C998 1.370 . S
C999 C1000 1.403 . S
C1000 C999 1.403 . S
C1000 C1001 1.404 . S
C1000 C1003 1.539 . S
C1001 C997 1.408 . S
C1001 C1000 1.404 . S
C1001 H1013 0.930 . S
C1002 C998 1.524 . S
C1002 H1014 0.956 . S
C1002 H1015 0.961 . S
C1002 H1016 0.961 . S
C1003 C1000 1.539 . S
C1003 H1017 0.958 . S
C1003 H1018 0.961 . S
C1003 H1019 0.960 . S
H1004 C988 0.931 . S
H1005 C993 0.929 . S
H1006 C994 0.960 . S
H1007 C994 0.962 . S
H1008 C994 0.960 . S
H1009 C995 0.961 . S
H1010 C995 0.961 . S
H1011 C995 0.961 . S
H1012 C996 0.931 . S
H1013 C1001 0.930 . S
H1014 C1002 0.956 . S
H1015 C1002 0.961 . S
H1016 C1002 0.961 . S
H1017 C1003 0.958 . S
H1018 C1003 0.961 . S
H1019 C1003 0.960 . S
C1020 C1021 1.391 . S
C1020 C1022 1.394 . S
C1020 H1036 0.931 . S
C1021 C1020 1.391 . S
C1021 C1025 1.376 . S
C1022 C1020 1.394 . S
C1022 C1023 1.369 . S
C1022 C1026 1.531 . S
C1023 C1022 1.369 . S
C1023 C1024 1.410 . S
C1023 C1031 1.503 . S
C1024 C1023 1.410 . S
C1024 C1025 1.392 . S
C1024 C1027 1.511 . S
C1025 C1021 1.376 . S
C1025 C1024 1.392 . S
C1025 H1037 0.929 . S
C1026 C1022 1.531 . S
C1026 H1038 0.960 . S
C1026 H1039 0.962 . S
C1026 H1040 0.960 . S
C1027 C1024 1.511 . S
C1027 H1041 0.961 . S
C1027 H1042 0.961 . S
C1027 H1043 0.961 . S
C1028 C1029 1.370 . S
C1028 C1030 1.363 . S
C1028 H1044 0.931 . S
C1029 C1028 1.370 . S
C1029 C1033 1.408 . S
C1030 C1028 1.363 . S
C1030 C1031 1.370 . S
C1030 C1034 1.524 . S
C1031 C1023 1.503 . S
C1031 C1030 1.370 . S
C1031 C1032 1.403 . S
C1032 C1031 1.403 . S
C1032 C1033 1.404 . S
C1032 C1035 1.539 . S
C1033 C1029 1.408 . S
C1033 C1032 1.404 . S
C1033 H1045 0.930 . S
C1034 C1030 1.524 . S
C1034 H1046 0.956 . S
C1034 H1047 0.961 . S
C1034 H1048 0.961 . S
C1035 C1032 1.539 . S
C1035 H1049 0.958 . S
C1035 H1050 0.961 . S
C1035 H1051 0.960 . S
H1036 C1020 0.931 . S
H1037 C1025 0.929 . S
H1038 C1026 0.960 . S
H1039 C1026 0.962 . S
H1040 C1026 0.960 . S
H1041 C1027 0.961 . S
H1042 C1027 0.961 . S
H1043 C1027 0.961 . S
H1044 C1028 0.931 . S
H1045 C1033 0.930 . S
H1046 C1034 0.956 . S
H1047 C1034 0.961 . S
H1048 C1034 0.961 . S
H1049 C1035 0.958 . S
H1050 C1035 0.961 . S
H1051 C1035 0.960 . S
C1052 C1053 1.391 . S
C1052 C1054 1.394 . S
C1052 H1068 0.931 . S
C1053 C1052 1.391 . S
C1053 C1057 1.376 . S
C1054 C1052 1.394 . S
C1054 C1055 1.369 . S
C1054 C1058 1.531 . S
C1055 C1054 1.369 . S
C1055 C1056 1.410 . S
C1055 C1063 1.503 . S
C1056 C1055 1.410 . S
C1056 C1057 1.392 . S
C1056 C1059 1.511 . S
C1057 C1053 1.376 . S
C1057 C1056 1.392 . S
C1057 H1069 0.929 . S
C1058 C1054 1.531 . S
C1058 H1070 0.960 . S
C1058 H1071 0.962 . S
C1058 H1072 0.960 . S
C1059 C1056 1.511 . S
C1059 H1073 0.961 . S
C1059 H1074 0.961 . S
C1059 H1075 0.961 . S
C1060 C1061 1.370 . S
C1060 C1062 1.363 . S
C1060 H1076 0.931 . S
C1061 C1060 1.370 . S
C1061 C1065 1.408 . S
C1062 C1060 1.363 . S
C1062 C1063 1.370 . S
C1062 C1066 1.524 . S
C1063 C1055 1.503 . S
C1063 C1062 1.370 . S
C1063 C1064 1.403 . S
C1064 C1063 1.403 . S
C1064 C1065 1.404 . S
C1064 C1067 1.539 . S
C1065 C1061 1.408 . S
C1065 C1064 1.404 . S
C1065 H1077 0.930 . S
C1066 C1062 1.524 . S
C1066 H1078 0.956 . S
C1066 H1079 0.961 . S
C1066 H1080 0.961 . S
C1067 C1064 1.539 . S
C1067 H1081 0.958 . S
C1067 H1082 0.961 . S
C1067 H1083 0.960 . S
H1068 C1052 0.931 . S
H1069 C1057 0.929 . S
H1070 C1058 0.960 . S
H1071 C1058 0.962 . S
H1072 C1058 0.960 . S
H1073 C1059 0.961 . S
H1074 C1059 0.961 . S
H1075 C1059 0.961 . S
H1076 C1060 0.931 . S
H1077 C1065 0.930 . S
H1078 C1066 0.956 . S
H1079 C1066 0.961 . S
H1080 C1066 0.961 . S
H1081 C1067 0.958 . S
H1082 C1067 0.961 . S
H1083 C1067 0.960 . S
C1084 C1085 1.391 . S
C1084 C1086 1.394 . S
C1084 H1100 0.931 . S
C1085 C1084 1.391 . S
C1085 C1089 1.376 . S
C1086 C1084 1.394 . S
C1086 C1087 1.369 . S
C1086 C1090 1.531 . S
C1087 C1086 1.369 . S
C1087 C1088 1.410 . S
C1087 C1095 1.503 . S
C1088 C1087 1.410 . S
C1088 C1089 1.392 . S
C1088 C1091 1.511 . S
C1089 C1085 1.376 . S
C1089 C1088 1.392 . S
C1089 H1101 0.929 . S
C1090 C1086 1.531 . S
C1090 H1102 0.960 . S
C1090 H1103 0.962 . S
C1090 H1104 0.960 . S
C1091 C1088 1.511 . S
C1091 H1105 0.961 . S
C1091 H1106 0.961 . S
C1091 H1107 0.961 . S
C1092 C1093 1.370 . S
C1092 C1094 1.363 . S
C1092 H1108 0.931 . S
C1093 C1092 1.370 . S
C1093 C1097 1.408 . S
C1094 C1092 1.363 . S
C1094 C1095 1.370 . S
C1094 C1098 1.524 . S
C1095 C1087 1.503 . S
C1095 C1094 1.370 . S
C1095 C1096 1.403 . S
C1096 C1095 1.403 . S
C1096 C1097 1.404 . S
C1096 C1099 1.539 . S
C1097 C1093 1.408 . S
C1097 C1096 1.404 . S
C1097 H1109 0.930 . S
C1098 C1094 1.524 . S
C1098 H1110 0.956 . S
C1098 H1111 0.961 . S
C1098 H1112 0.961 . S
C1099 C1096 1.539 . S
C1099 H1113 0.958 . S
C1099 H1114 0.961 . S
C1099 H1115 0.960 . S
H1100 C1084 0.931 . S
H1101 C1089 0.929 . S
H1102 C1090 0.960 . S
H1103 C1090 0.962 . S
H1104 C1090 0.960 . S
H1105 C1091 0.961 . S
H1106 C1091 0.961 . S
H1107 C1091 0.961 . S
H1108 C1092 0.931 . S
H1109 C1097 0.930 . S
H1110 C1098 0.956 . S
H1111 C1098 0.961 . S
H1112 C1098 0.961 . S
H1113 C1099 0.958 . S
H1114 C1099 0.961 . S
H1115 C1099 0.960 . S
C1116 C1117 1.391 . S
C1116 C1118 1.394 . S
C1116 H1132 0.931 . S
C1117 C1116 1.391 . S
C1117 C1121 1.376 . S
C1118 C1116 1.394 . S
C1118 C1119 1.369 . S
C1118 C1122 1.531 . S
C1119 C1118 1.369 . S
C1119 C1120 1.410 . S
C1119 C1127 1.503 . S
C1120 C1119 1.410 . S
C1120 C1121 1.392 . S
C1120 C1123 1.511 . S
C1121 C1117 1.376 . S
C1121 C1120 1.392 . S
C1121 H1133 0.929 . S
C1122 C1118 1.531 . S
C1122 H1134 0.960 . S
C1122 H1135 0.962 . S
C1122 H1136 0.960 . S
C1123 C1120 1.511 . S
C1123 H1137 0.961 . S
C1123 H1138 0.961 . S
C1123 H1139 0.961 . S
C1124 C1125 1.370 . S
C1124 C1126 1.363 . S
C1124 H1140 0.931 . S
C1125 C1124 1.370 . S
C1125 C1129 1.408 . S
C1126 C1124 1.363 . S
C1126 C1127 1.370 . S
C1126 C1130 1.524 . S
C1127 C1119 1.503 . S
C1127 C1126 1.370 . S
C1127 C1128 1.403 . S
C1128 C1127 1.403 . S
C1128 C1129 1.404 . S
C1128 C1131 1.539 . S
C1129 C1125 1.408 . S
C1129 C1128 1.404 . S
C1129 H1141 0.930 . S
C1130 C1126 1.524 . S
C1130 H1142 0.956 . S
C1130 H1143 0.961 . S
C1130 H1144 0.961 . S
C1131 C1128 1.539 . S
C1131 H1145 0.958 . S
C1131 H1146 0.961 . S
C1131 H1147 0.960 . S
H1132 C1116 0.931 . S
H1133 C1121 0.929 . S
H1134 C1122 0.960 . S
H1135 C1122 0.962 . S
H1136 C1122 0.960 . S
H1137 C1123 0.961 . S
H1138 C1123 0.961 . S
H1139 C1123 0.961 . S
H1140 C1124 0.931 . S
H1141 C1129 0.930 . S
H1142 C1130 0.956 . S
H1143 C1130 0.961 . S
H1144 C1130 0.961 . S
H1145 C1131 0.958 . S
H1146 C1131 0.961 . S
H1147 C1131 0.960 . S
C1148 C1149 1.391 . S
C1148 C1150 1.394 . S
C1148 H1164 0.931 . S
C1149 C1148 1.391 . S
C1149 C1153 1.376 . S
C1150 C1148 1.394 . S
C1150 C1151 1.369 . S
C1150 C1154 1.531 . S
C1151 C1150 1.369 . S
C1151 C1152 1.410 . S
C1151 C1159 1.503 . S
C1152 C1151 1.410 . S
C1152 C1153 1.392 . S
C1152 C1155 1.511 . S
C1153 C1149 1.376 . S
C1153 C1152 1.392 . S
C1153 H1165 0.929 . S
C1154 C1150 1.531 . S
C1154 H1166 0.960 . S
C1154 H1167 0.962 . S
C1154 H1168 0.960 . S
C1155 C1152 1.511 . S
C1155 H1169 0.961 . S
C1155 H1170 0.961 . S
C1155 H1171 0.961 . S
C1156 C1157 1.370 . S
C1156 C1158 1.363 . S
C1156 H1172 0.931 . S
C1157 C1156 1.370 . S
C1157 C1161 1.408 . S
C1158 C1156 1.363 . S
C1158 C1159 1.370 . S
C1158 C1162 1.524 . S
C1159 C1151 1.503 . S
C1159 C1158 1.370 . S
C1159 C1160 1.403 . S
C1160 C1159 1.403 . S
C1160 C1161 1.404 . S
C1160 C1163 1.539 . S
C1161 C1157 1.408 . S
C1161 C1160 1.404 . S
C1161 H1173 0.930 . S
C1162 C1158 1.524 . S
C1162 H1174 0.956 . S
C1162 H1175 0.961 . S
C1162 H1176 0.961 . S
C1163 C1160 1.539 . S
C1163 H1177 0.958 . S
C1163 H1178 0.961 . S
C1163 H1179 0.960 . S
H1164 C1148 0.931 . S
H1165 C1153 0.929 . S
H1166 C1154 0.960 . S
H1167 C1154 0.962 . S
H1168 C1154 0.960 . S
H1169 C1155 0.961 . S
H1170 C1155 0.961 . S
H1171 C1155 0.961 . S
H1172 C1156 0.931 . S
H1173 C1161 0.930 . S
H1174 C1162 0.956 . S
H1175 C1162 0.961 . S
H1176 C1162 0.961 . S
H1177 C1163 0.958 . S
H1178 C1163 0.961 . S
H1179 C1163 0.960 . S
C1180 C1181 1.391 . S
C1180 C1182 1.394 . S
C1180 H1196 0.931 . S
C1181 C1180 1.391 . S
C1181 C1185 1.376 . S
C1182 C1180 1.394 . S
C1182 C1183 1.369 . S
C1182 C1186 1.531 . S
C1183 C1182 1.369 . S
C1183 C1184 1.410 . S
C1183 C1191 1.503 . S
C1184 C1183 1.410 . S
C1184 C1185 1.392 . S
C1184 C1187 1.511 . S
C1185 C1181 1.376 . S
C1185 C1184 1.392 . S
C1185 H1197 0.929 . S
C1186 C1182 1.531 . S
C1186 H1198 0.960 . S
C1186 H1199 0.962 . S
C1186 H1200 0.960 . S
C1187 C1184 1.511 . S
C1187 H1201 0.961 . S
C1187 H1202 0.961 . S
C1187 H1203 0.961 . S
C1188 C1189 1.370 . S
C1188 C1190 1.363 . S
C1188 H1204 0.931 . S
C1189 C1188 1.370 . S
C1189 C1193 1.408 . S
C1190 C1188 1.363 . S
C1190 C1191 1.370 . S
C1190 C1194 1.524 . S
C1191 C1183 1.503 . S
C1191 C1190 1.370 . S
C1191 C1192 1.403 . S
C1192 C1191 1.403 . S
C1192 C1193 1.404 . S
C1192 C1195 1.539 . S
C1193 C1189 1.408 . S
C1193 C1192 1.404 . S
C1193 H1205 0.930 . S
C1194 C1190 1.524 . S
C1194 H1206 0.956 . S
C1194 H1207 0.961 . S
C1194 H1208 0.961 . S
C1195 C1192 1.539 . S
C1195 H1209 0.958 . S
C1195 H1210 0.961 . S
C1195 H1211 0.960 . S
H1196 C1180 0.931 . S
H1197 C1185 0.929 . S
H1198 C1186 0.960 . S
H1199 C1186 0.962 . S
H1200 C1186 0.960 . S
H1201 C1187 0.961 . S
H1202 C1187 0.961 . S
H1203 C1187 0.961 . S
H1204 C1188 0.931 . S
H1205 C1193 0.930 . S
H1206 C1194 0.956 . S
H1207 C1194 0.961 . S
H1208 C1194 0.961 . S
H1209 C1195 0.958 . S
H1210 C1195 0.961 . S
H1211 C1195 0.960 . S
C1212 C1213 1.391 . S
C1212 C1214 1.394 . S
C1212 H1228 0.931 . S
C1213 C1212 1.391 . S
C1213 C1217 1.376 . S
C1214 C1212 1.394 . S
C1214 C1215 1.369 . S
C1214 C1218 1.531 . S
C1215 C1214 1.369 . S
C1215 C1216 1.410 . S
C1215 C1223 1.503 . S
C1216 C1215 1.410 . S
C1216 C1217 1.392 . S
C1216 C1219 1.511 . S
C1217 C1213 1.376 . S
C1217 C1216 1.392 . S
C1217 H1229 0.929 . S
C1218 C1214 1.531 . S
C1218 H1230 0.960 . S
C1218 H1231 0.962 . S
C1218 H1232 0.960 . S
C1219 C1216 1.511 . S
C1219 H1233 0.961 . S
C1219 H1234 0.961 . S
C1219 H1235 0.961 . S
C1220 C1221 1.370 . S
C1220 C1222 1.363 . S
C1220 H1236 0.931 . S
C1221 C1220 1.370 . S
C1221 C1225 1.408 . S
C1222 C1220 1.363 . S
C1222 C1223 1.370 . S
C1222 C1226 1.524 . S
C1223 C1215 1.503 . S
C1223 C1222 1.370 . S
C1223 C1224 1.403 . S
C1224 C1223 1.403 . S
C1224 C1225 1.404 . S
C1224 C1227 1.539 . S
C1225 C1221 1.408 . S
C1225 C1224 1.404 . S
C1225 H1237 0.930 . S
C1226 C1222 1.524 . S
C1226 H1238 0.956 . S
C1226 H1239 0.961 . S
C1226 H1240 0.961 . S
C1227 C1224 1.539 . S
C1227 H1241 0.958 . S
C1227 H1242 0.961 . S
C1227 H1243 0.960 . S
H1228 C1212 0.931 . S
H1229 C1217 0.929 . S
H1230 C1218 0.960 . S
H1231 C1218 0.962 . S
H1232 C1218 0.960 . S
H1233 C1219 0.961 . S
H1234 C1219 0.961 . S
H1235 C1219 0.961 . S
H1236 C1220 0.931 . S
H1237 C1225 0.930 . S
H1238 C1226 0.956 . S
H1239 C1226 0.961 . S
H1240 C1226 0.961 . S
H1241 C1227 0.958 . S
H1242 C1227 0.961 . S
H1243 C1227 0.960 . S
C1244 C1245 1.391 . S
C1244 C1246 1.394 . S
C1244 H1260 0.931 . S
C1245 C1244 1.391 . S
C1245 C1249 1.376 . S
C1246 C1244 1.394 . S
C1246 C1247 1.369 . S
C1246 C1250 1.531 . S
C1247 C1246 1.369 . S
C1247 C1248 1.410 . S
C1247 C1255 1.503 1_545 S
C1248 C1247 1.410 . S
C1248 C1249 1.392 . S
C1248 C1251 1.511 . S
C1249 C1245 1.376 . S
C1249 C1248 1.392 . S
C1249 H1261 0.929 . S
C1250 C1246 1.531 . S
C1250 H1262 0.960 . S
C1250 H1263 0.962 . S
C1250 H1264 0.960 . S
C1251 C1248 1.511 . S
C1251 H1265 0.961 . S
C1251 H1266 0.970 . S
C1251 H1267 0.961 . S
C1252 C1253 1.370 . S
C1252 C1254 1.363 . S
C1252 H1268 0.931 . S
C1253 C1252 1.370 . S
C1253 C1257 1.408 . S
C1254 C1252 1.363 . S
C1254 C1255 1.370 . S
C1254 C1258 1.524 . S
C1255 C1247 1.503 1_565 S
C1255 C1254 1.370 . S
C1255 C1256 1.403 1_565 S
C1256 C1255 1.403 1_545 S
C1256 C1257 1.404 1_545 S
C1256 C1259 1.539 . S
C1257 C1253 1.408 . S
C1257 C1256 1.404 1_565 S
C1257 H1269 0.930 . S
C1258 C1254 1.524 . S
C1258 H1270 0.956 . S
C1258 H1271 0.961 . S
C1258 H1272 0.961 . S
C1259 C1256 1.539 . S
C1259 H1273 0.958 . S
C1259 H1274 0.961 . S
C1259 H1275 0.960 . S
H1260 C1244 0.931 . S
H1261 C1249 0.929 . S
H1262 C1250 0.960 . S
H1263 C1250 0.962 . S
H1264 C1250 0.960 . S
H1265 C1251 0.961 . S
H1266 C1251 0.970 . S
H1267 C1251 0.961 . S
H1268 C1252 0.931 . S
H1269 C1257 0.930 . S
H1270 C1258 0.956 . S
H1271 C1258 0.961 . S
H1272 C1258 0.961 . S
H1273 C1259 0.958 . S
H1274 C1259 0.961 . S
H1275 C1259 0.960 . S
C1276 C1277 1.391 . S
C1276 C1278 1.394 . S
C1276 H1292 0.931 . S
C1277 C1276 1.391 . S
C1277 C1281 1.376 . S
C1278 C1276 1.394 . S
C1278 C1279 1.369 . S
C1278 C1282 1.531 . S
C1279 C1278 1.369 . S
C1279 C1280 1.410 . S
C1279 C1287 1.503 . S
C1280 C1279 1.410 . S
C1280 C1281 1.392 . S
C1280 C1283 1.511 1_455 S
C1281 C1277 1.376 . S
C1281 C1280 1.392 . S
C1281 H1293 0.929 . S
C1282 C1278 1.531 . S
C1282 H1294 0.960 . S
C1282 H1295 0.962 . S
C1282 H1296 0.960 . S
C1283 C1280 1.511 1_655 S
C1283 H1297 0.961 . S
C1283 H1298 0.961 . S
C1283 H1299 0.961 . S
C1284 C1285 1.370 . S
C1284 C1286 1.363 . S
C1284 H1300 0.931 . S
C1285 C1284 1.370 . S
C1285 C1289 1.408 . S
C1286 C1284 1.363 . S
C1286 C1287 1.370 1_655 S
C1286 C1290 1.524 . S
C1287 C1279 1.503 . S
C1287 C1286 1.370 1_455 S
C1287 C1288 1.403 1_455 S
C1288 C1287 1.403 1_655 S
C1288 C1289 1.404 . S
C1288 C1291 1.539 1_655 S
C1289 C1285 1.408 . S
C1289 C1288 1.404 . S
C1289 H1301 0.930 . S
C1290 C1286 1.524 . S
C1290 H1302 0.956 1_655 S
C1290 H1303 0.961 . S
C1290 H1304 0.961 . S
C1291 C1288 1.539 1_455 S
C1291 H1305 0.958 . S
C1291 H1306 0.961 . S
C1291 H1307 0.960 . S
H1292 C1276 0.931 . S
H1293 C1281 0.929 . S
H1294 C1282 0.960 . S
H1295 C1282 0.962 . S
H1296 C1282 0.960 . S
H1297 C1283 0.961 . S
H1298 C1283 0.961 . S
H1299 C1283 0.961 . S
H1300 C1284 0.931 . S
H1301 C1289 0.930 . S
H1302 C1290 0.956 1_455 S
H1303 C1290 0.961 . S
H1304 C1290 0.961 . S
H1305 C1291 0.958 . S
H1306 C1291 0.961 . S
H1307 C1291 0.960 . S
C1308 C1309 1.391 . S
C1308 C1310 1.394 . S
C1308 H1324 0.931 . S
C1309 C1308 1.391 . S
C1309 C1313 1.376 . S
C1310 C1308 1.394 . S
C1310 C1311 1.369 . S
C1310 C1314 1.531 . S
C1311 C1310 1.369 . S
C1311 C1312 1.410 1_556 S
C1311 C1319 1.503 1_556 S
C1312 C1311 1.410 1_554 S
C1312 C1313 1.392 1_554 S
C1312 C1315 1.511 . S
C1313 C1309 1.376 . S
C1313 C1312 1.392 1_556 S
C1313 H1325 0.929 1_556 S
C1314 C1310 1.531 . S
C1314 H1326 0.960 . S
C1314 H1327 0.962 . S
C1314 H1328 0.960 . S
C1315 C1312 1.511 . S
C1315 H1329 0.961 . S
C1315 H1330 0.961 . S
C1315 H1331 0.961 . S
C1316 C1317 1.370 . S
C1316 C1318 1.363 . S
C1316 H1332 0.931 . S
C1317 C1316 1.370 . S
C1317 C1321 1.408 . S
C1318 C1316 1.363 . S
C1318 C1319 1.370 . S
C1318 C1322 1.524 1_554 S
C1319 C1311 1.503 1_554 S
C1319 C1318 1.370 . S
C1319 C1320 1.403 . S
C1320 C1319 1.403 . S
C1320 C1321 1.404 . S
C1320 C1323 1.539 . S
C1321 C1317 1.408 . S
C1321 C1320 1.404 . S
C1321 H1333 0.930 . S
C1322 C1318 1.524 1_556 S
C1322 H1334 0.956 . S
C1322 H1335 0.961 . S
C1322 H1336 0.961 . S
C1323 C1320 1.539 . S
C1323 H1337 0.958 . S
C1323 H1338 0.961 . S
C1323 H1339 0.960 . S
H1324 C1308 0.931 . S
H1325 C1313 0.929 1_554 S
H1326 C1314 0.960 . S
H1327 C1314 0.962 . S
H1328 C1314 0.960 . S
H1329 C1315 0.961 . S
H1330 C1315 0.961 . S
H1331 C1315 0.961 . S
H1332 C1316 0.931 . S
H1333 C1321 0.930 . S
H1334 C1322 0.956 . S
H1335 C1322 0.961 . S
H1336 C1322 0.961 . S
H1337 C1323 0.958 . S
H1338 C1323 0.961 . S
H1339 C1323 0.960 . S
C1340 C1341 1.391 . S
C1340 C1342 1.394 1_565 S
C1340 H1356 0.931 . S
C1341 C1340 1.391 . S
C1341 C1345 1.376 . S
C1342 C1340 1.394 1_545 S
C1342 C1343 1.369 1_545 S
C1342 C1346 1.531 . S
C1343 C1342 1.369 1_565 S
C1343 C1344 1.410 . S
C1343 C1351 1.503 1_566 S
C1344 C1343 1.410 . S
C1344 C1345 1.392 . S
C1344 C1347 1.511 . S
C1345 C1341 1.376 . S
C1345 C1344 1.392 . S
C1345 H1357 0.929 . S
C1346 C1342 1.531 . S
C1346 H1358 0.960 . S
C1346 H1359 0.962 1_556 S
C1346 H1360 0.960 . S
C1347 C1344 1.511 . S
C1347 H1361 0.961 . S
C1347 H1362 0.961 . S
C1347 H1363 0.961 . S
C1348 C1349 1.370 . S
C1348 C1350 1.363 . S
C1348 H1364 0.931 . S
C1349 C1348 1.370 . S
C1349 C1353 1.408 . S
C1350 C1348 1.363 . S
C1350 C1351 1.370 . S
C1350 C1354 1.524 1_545 S
C1351 C1343 1.503 1_544 S
C1351 C1350 1.370 . S
C1351 C1352 1.403 1_554 S
C1352 C1351 1.403 1_556 S
C1352 C1353 1.404 1_556 S
C1352 C1355 1.539 . S
C1353 C1349 1.408 . S
C1353 C1352 1.404 1_554 S
C1353 H1365 0.930 1_554 S
C1354 C1350 1.524 1_565 S
C1354 H1366 0.956 . S
C1354 H1367 0.961 . S
C1354 H1368 0.961 . S
C1355 C1352 1.539 . S
C1355 H1369 0.958 . S
C1355 H1370 0.961 . S
C1355 H1371 0.960 . S
H1356 C1340 0.931 . S
H1357 C1345 0.929 . S
H1358 C1346 0.960 . S
H1359 C1346 0.962 1_554 S
H1360 C1346 0.960 . S
H1361 C1347 0.961 . S
H1362 C1347 0.961 . S
H1363 C1347 0.961 . S
H1364 C1348 0.931 . S
H1365 C1353 0.930 1_556 S
H1366 C1354 0.956 . S
H1367 C1354 0.961 . S
H1368 C1354 0.961 . S
H1369 C1355 0.958 . S
H1370 C1355 0.961 . S
H1371 C1355 0.960 . S
C1372 C1373 1.391 . S
C1372 C1374 1.394 1_556 S
C1372 H1388 0.931 1_556 S
C1373 C1372 1.391 . S
C1373 C1377 1.376 . S
C1374 C1372 1.394 1_554 S
C1374 C1375 1.369 1_554 S
C1374 C1378 1.531 . S
C1375 C1374 1.369 1_556 S
C1375 C1376 1.410 . S
C1375 C1383 1.503 1_456 S
C1376 C1375 1.410 . S
C1376 C1377 1.392 . S
C1376 C1379 1.511 1_455 S
C1377 C1373 1.376 . S
C1377 C1376 1.392 . S
C1377 H1389 0.929 . S
C1378 C1374 1.531 . S
C1378 H1390 0.960 . S
C1378 H1391 0.962 . S
C1378 H1392 0.960 . S
C1379 C1376 1.511 1_655 S
C1379 H1393 0.961 . S
C1379 H1394 0.961 . S
C1379 H1395 0.961 . S
C1380 C1381 1.370 . S
C1380 C1382 1.363 . S
C1380 H1396 0.931 . S
C1381 C1380 1.370 . S
C1381 C1385 1.408 . S
C1382 C1380 1.363 . S
C1382 C1383 1.370 . S
C1382 C1386 1.524 1_654 S
C1383 C1375 1.503 1_654 S
C1383 C1382 1.370 . S
C1383 C1384 1.403 . S
C1384 C1383 1.403 . S
C1384 C1385 1.404 . S
C1384 C1387 1.539 . S
C1385 C1381 1.408 . S
C1385 C1384 1.404 . S
C1385 H1397 0.930 . S
C1386 C1382 1.524 1_456 S
C1386 H1398 0.956 . S
C1386 H1399 0.961 . S
C1386 H1400 0.961 . S
C1387 C1384 1.539 . S
C1387 H1401 0.958 . S
C1387 H1402 0.961 . S
C1387 H1403 0.960 . S
H1388 C1372 0.931 1_554 S
H1389 C1377 0.929 . S
H1390 C1378 0.960 . S
H1391 C1378 0.962 . S
H1392 C1378 0.960 . S
H1393 C1379 0.961 . S
H1394 C1379 0.961 . S
H1395 C1379 0.961 . S
H1396 C1380 0.931 . S
H1397 C1385 0.930 . S
H1398 C1386 0.956 . S
H1399 C1386 0.961 . S
H1400 C1386 0.961 . S
H1401 C1387 0.958 . S
H1402 C1387 0.961 . S
H1403 C1387 0.960 . S
C253 C7 1.144 . S
C261 C203 1.141 1_554 S
C285 C171 1.128 . S
C293 C17 1.116 . S
C317 C31 1.131 . S
C325 C189 1.124 . S
C349 C91 1.126 . S
C357 C35 1.158 . S
C381 C105 1.115 . S
C389 C3 1.143 . S
C413 C119 1.127 . S
C421 C21 1.160 . S
C445 C49 1.166 . S
C453 C161 1.148 . S
C477 C133 1.163 . S
C485 C59 1.156 . S
C509 C147 1.135 . S
C517 C73 1.147 . S
C541 C77 1.151 . S
C549 C217 1.159 . S
C573 C45 1.117 . S
C581 C227 1.115 . S
C605 C241 1.129 . S
C613 C63 1.123 . S
C637 C175 1.115 . S
C645 C115 1.137 . S
C669 C87 1.133 . S
C677 C185 1.125 . S
C701 C199 1.112 . S
C709 C101 1.125 . S
C733 C245 1.135 . S
C741 C129 1.135 . S
C765 C143 1.107 . S
C773 C213 1.124 . S
C797 C231 1.141 . S
C805 C157 1.139 . S
C829 C219 1.542 . S
C837 C9 1.610 . S
C861 C22 1.703 . S
C869 C232 1.671 . S
C893 C36 1.727 . S
C901 C246 1.715 . S
C925 C37 1.646 . S
C933 C163 1.579 . S
C957 C135 1.557 . S
C965 C8 1.745 . S
C989 C23 1.499 . S
C997 C149 1.569 . S
C1021 C93 1.593 . S
C1029 C51 1.542 . S
C1053 C107 1.514 . S
C1061 C64 1.697 . S
C1085 C78 1.726 . S
C1093 C121 1.624 . S
C1117 C79 1.564 . S
C1125 C205 1.620 . S
C1149 C50 1.666 . S
C1157 C176 1.707 . S
C1181 C65 1.528 . S
C1189 C191 1.596 . S
C1213 C120 1.720 . S
C1221 C247 1.612 . S
C1245 C92 1.761 . S
C1253 C218 1.721 . S
C1277 C233 1.584 . S
C1285 C106 1.664 . S
C1309 C177 1.603 . S
C1317 C134 1.669 . S
C1341 C190 1.668 . S
C1349 C148 1.687 . S
C1373 C204 1.713 . S
C1381 C162 1.758 . S
