# Generated by pormake.
# Topology fnh, (5)-cn, num edge types: 1
# Building blocks:
#     Node 0, Type 0, BuildingBlock: XOMCOT_clean_sbu_0, # of connection points: 5
#     Node 1, Type 0, BuildingBlock: XOMCOT_clean_sbu_0, # of connection points: 5
#     Node 2, Type 0, BuildingBlock: XOMCOT_clean_sbu_0, # of connection points: 5
#     Node 3, Type 0, BuildingBlock: XOMCOT_clean_sbu_0, # of connection points: 5
#     Node 4, Type 0, BuildingBlock: XOMCOT_clean_sbu_0, # of connection points: 5
#     Node 5, Type 0, BuildingBlock: XOMCOT_clean_sbu_0, # of connection points: 5
#     Node 6, Type 0, BuildingBlock: XOMCOT_clean_sbu_0, # of connection points: 5
#     Node 7, Type 0, BuildingBlock: XOMCOT_clean_sbu_0, # of connection points: 5
#     Node 8, Type 0, BuildingBlock: XOMCOT_clean_sbu_0, # of connection points: 5
#     Node 9, Type 0, BuildingBlock: XOMCOT_clean_sbu_0, # of connection points: 5
#     Node 10, Type 0, BuildingBlock: XOMCOT_clean_sbu_0, # of connection points: 5
#     Node 11, Type 0, BuildingBlock: XOMCOT_clean_sbu_0, # of connection points: 5
#     Node 12, Type 0, BuildingBlock: XOMCOT_clean_sbu_0, # of connection points: 5
#     Node 13, Type 0, BuildingBlock: XOMCOT_clean_sbu_0, # of connection points: 5
#     Node 14, Type 0, BuildingBlock: XOMCOT_clean_sbu_0, # of connection points: 5
#     Node 15, Type 0, BuildingBlock: XOMCOT_clean_sbu_0, # of connection points: 5
#     Node 16, Type 0, BuildingBlock: XOMCOT_clean_sbu_0, # of connection points: 5
#     Node 17, Type 0, BuildingBlock: XOMCOT_clean_sbu_0, # of connection points: 5
#     Edge 18, Type (0, 0), BuildingBlock: MIFKUJ_clean_linker_0, # of connection points: 2
#     Edge 19, Type (0, 0), BuildingBlock: MIFKUJ_clean_linker_0, # of connection points: 2
#     Edge 20, Type (0, 0), BuildingBlock: MIFKUJ_clean_linker_0, # of connection points: 2
#     Edge 21, Type (0, 0), BuildingBlock: MIFKUJ_clean_linker_0, # of connection points: 2
#     Edge 22, Type (0, 0), BuildingBlock: MIFKUJ_clean_linker_0, # of connection points: 2
#     Edge 23, Type (0, 0), BuildingBlock: MIFKUJ_clean_linker_0, # of connection points: 2
#     Edge 24, Type (0, 0), BuildingBlock: MIFKUJ_clean_linker_0, # of connection points: 2
#     Edge 25, Type (0, 0), BuildingBlock: MIFKUJ_clean_linker_0, # of connection points: 2
#     Edge 26, Type (0, 0), BuildingBlock: MIFKUJ_clean_linker_0, # of connection points: 2
#     Edge 27, Type (0, 0), BuildingBlock: MIFKUJ_clean_linker_0, # of connection points: 2
#     Edge 28, Type (0, 0), BuildingBlock: MIFKUJ_clean_linker_0, # of connection points: 2
#     Edge 29, Type (0, 0), BuildingBlock: MIFKUJ_clean_linker_0, # of connection points: 2
#     Edge 30, Type (0, 0), BuildingBlock: MIFKUJ_clean_linker_0, # of connection points: 2
#     Edge 31, Type (0, 0), BuildingBlock: MIFKUJ_clean_linker_0, # of connection points: 2
#     Edge 32, Type (0, 0), BuildingBlock: MIFKUJ_clean_linker_0, # of connection points: 2
#     Edge 33, Type (0, 0), BuildingBlock: MIFKUJ_clean_linker_0, # of connection points: 2
#     Edge 34, Type (0, 0), BuildingBlock: MIFKUJ_clean_linker_0, # of connection points: 2
#     Edge 35, Type (0, 0), BuildingBlock: MIFKUJ_clean_linker_0, # of connection points: 2
#     Edge 36, Type (0, 0), BuildingBlock: MIFKUJ_clean_linker_0, # of connection points: 2
#     Edge 37, Type (0, 0), BuildingBlock: MIFKUJ_clean_linker_0, # of connection points: 2
#     Edge 38, Type (0, 0), BuildingBlock: MIFKUJ_clean_linker_0, # of connection points: 2
#     Edge 39, Type (0, 0), BuildingBlock: MIFKUJ_clean_linker_0, # of connection points: 2
#     Edge 40, Type (0, 0), BuildingBlock: MIFKUJ_clean_linker_0, # of connection points: 2
#     Edge 41, Type (0, 0), BuildingBlock: MIFKUJ_clean_linker_0, # of connection points: 2
#     Edge 42, Type (0, 0), BuildingBlock: MIFKUJ_clean_linker_0, # of connection points: 2
#     Edge 43, Type (0, 0), BuildingBlock: MIFKUJ_clean_linker_0, # of connection points: 2
#     Edge 44, Type (0, 0), BuildingBlock: MIFKUJ_clean_linker_0, # of connection points: 2
#     Edge 45, Type (0, 0), BuildingBlock: MIFKUJ_clean_linker_0, # of connection points: 2
#     Edge 46, Type (0, 0), BuildingBlock: MIFKUJ_clean_linker_0, # of connection points: 2
#     Edge 47, Type (0, 0), BuildingBlock: MIFKUJ_clean_linker_0, # of connection points: 2
#     Edge 48, Type (0, 0), BuildingBlock: MIFKUJ_clean_linker_0, # of connection points: 2
#     Edge 49, Type (0, 0), BuildingBlock: MIFKUJ_clean_linker_0, # of connection points: 2
#     Edge 50, Type (0, 0), BuildingBlock: MIFKUJ_clean_linker_0, # of connection points: 2
#     Edge 51, Type (0, 0), BuildingBlock: MIFKUJ_clean_linker_0, # of connection points: 2
#     Edge 52, Type (0, 0), BuildingBlock: MIFKUJ_clean_linker_0, # of connection points: 2
#     Edge 53, Type (0, 0), BuildingBlock: MIFKUJ_clean_linker_0, # of connection points: 2
#     Edge 54, Type (0, 0), BuildingBlock: MIFKUJ_clean_linker_0, # of connection points: 2
#     Edge 55, Type (0, 0), BuildingBlock: MIFKUJ_clean_linker_0, # of connection points: 2
#     Edge 56, Type (0, 0), BuildingBlock: MIFKUJ_clean_linker_0, # of connection points: 2
#     Edge 57, Type (0, 0), BuildingBlock: MIFKUJ_clean_linker_0, # of connection points: 2
#     Edge 58, Type (0, 0), BuildingBlock: MIFKUJ_clean_linker_0, # of connection points: 2
#     Edge 59, Type (0, 0), BuildingBlock: MIFKUJ_clean_linker_0, # of connection points: 2
#     Edge 60, Type (0, 0), BuildingBlock: MIFKUJ_clean_linker_0, # of connection points: 2
#     Edge 61, Type (0, 0), BuildingBlock: MIFKUJ_clean_linker_0, # of connection points: 2
#     Edge 62, Type (0, 0), BuildingBlock: MIFKUJ_clean_linker_0, # of connection points: 2
# Relax obj value: 0.191
# Max RMSD: 0.209
# Mean RMSD: 0.209
data_MOF--net-fnh--node1-XOMCOT_clean_sbu_0--edge1-MIFKUJ_clean_linker_0
_symmetry_space_group_name_H-M    P1
_symmetry_Int_Tables_number       1
_symmetry_cell_setting            triclinic
loop_
_symmetry_equiv_pos_as_xyz
'x, y, z'
_cell_length_a     87.595573
_cell_length_b     87.558091
_cell_length_c     30.107384
_cell_angle_alpha  89.986076
_cell_angle_beta   90.029843
_cell_angle_gamma 120.00369
loop_
_atom_site_label
_atom_site_type_symbol
_atom_site_fract_x
_atom_site_fract_y
_atom_site_fract_z
_atom_type_partial_charge
Co0 Co 0.0949 0.18371 0.29148 0.0
C1 C 0.0709 0.18909 0.35075 0.0
C2 C 0.05727 0.1654 0.31248 0.0
C3 C 0.04502 0.16774 0.3356 0.0
N4 N 0.07349 0.17901 0.3214 0.0
N5 N 0.05368 0.1828 0.35922 0.0
H6 H 0.08125 0.20047 0.36694 0.0
H7 H 0.05451 0.15482 0.28954 0.0
C8 C 0.06971 0.18162 0.21589 0.0
O9 O 0.0669 0.19266 0.23923 0.0
N10 N 0.11587 0.18798 0.26098 0.0
C11 C 0.13267 0.19935 0.27242 0.0
C12 C 0.14361 0.19792 0.24195 0.0
C13 C 0.1167 0.17975 0.22419 0.0
N14 N 0.13352 0.18557 0.21165 0.0
C15 C 0.1103 0.2186 0.32814 0.0
C16 C 0.11341 0.23798 0.25332 0.0
C17 C 0.11917 0.247 0.29431 0.0
C18 C 0.11757 0.23683 0.33159 0.0
C19 C 0.1057 0.21928 0.25143 0.0
N20 N 0.10353 0.20959 0.28917 0.0
H21 H 0.11012 0.21181 0.35808 0.0
H22 H 0.10191 0.21278 0.21954 0.0
H23 H 0.13668 0.20795 0.30107 0.0
H24 H 0.10518 0.16979 0.2069 0.0
O25 O 0.10613 0.18392 0.3482 0.0
O26 O 0.09071 0.15986 0.31016 0.0
O27 O 0.08106 0.17746 0.23071 0.0
C28 C 0.10038 0.16722 0.34539 0.0
H29 H 0.03088 0.15908 0.33468 0.0
H30 H 0.15787 0.20521 0.24262 0.0
H31 H 0.11479 0.24526 0.2231 0.0
H32 H 0.12236 0.243 0.36368 0.0
Co33 Co 0.83524 0.91599 0.28582 0.0
C34 C 0.83386 0.88643 0.33929 0.0
C35 C 0.85898 0.90302 0.30907 0.0
C36 C 0.85937 0.88908 0.32913 0.0
N37 N 0.84293 0.9013 0.31514 0.0
N38 N 0.84354 0.87876 0.34798 0.0
H39 H 0.82029 0.88061 0.34906 0.0
H40 H 0.86947 0.91336 0.28978 0.0
C41 C 0.83888 0.89343 0.21224 0.0
O42 O 0.82967 0.87995 0.23868 0.0
N43 N 0.82836 0.93094 0.25559 0.0
C44 C 0.8139 0.93235 0.26243 0.0
C45 C 0.81397 0.94421 0.2322 0.0
C46 C 0.83718 0.94211 0.22218 0.0
N47 N 0.82865 0.95034 0.20721 0.0
C48 C 0.80173 0.89346 0.3265 0.0
C49 C 0.7812 0.87883 0.25216 0.0
C50 C 0.77273 0.87489 0.29405 0.0
C51 C 0.78353 0.88247 0.33118 0.0
C52 C 0.79984 0.88984 0.2489 0.0
N53 N 0.81005 0.89686 0.28613 0.0
H54 H 0.80915 0.89934 0.35638 0.0
H55 H 0.80588 0.89325 0.21641 0.0
H56 H 0.80396 0.9252 0.28738 0.0
H57 H 0.84943 0.94394 0.20861 0.0
O58 O 0.83455 0.92657 0.34276 0.0
O59 O 0.85827 0.93744 0.3024 0.0
O60 O 0.84146 0.90877 0.22441 0.0
C61 C 0.85084 0.93871 0.33884 0.0
H62 H 0.87036 0.88669 0.32979 0.0
H63 H 0.80412 0.94817 0.22906 0.0
H64 H 0.7735 0.8736 0.22214 0.0
H65 H 0.7779 0.88047 0.36414 0.0
Co66 Co 0.10051 0.92244 0.28375 0.0
C67 C 0.13244 0.95231 0.32582 0.0
C68 C 0.11213 0.95838 0.31128 0.0
C69 C 0.12691 0.97362 0.32457 0.0
N70 N 0.11551 0.94493 0.31219 0.0
N71 N 0.13959 0.96969 0.33345 0.0
H72 H 0.14007 0.94578 0.32715 0.0
H73 H 0.10006 0.95745 0.2993 0.0
C74 C 0.12358 0.94685 0.20761 0.0
O75 O 0.13726 0.94908 0.2307 0.0
N76 N 0.08535 0.90061 0.25399 0.0
C77 C 0.08089 0.88418 0.26707 0.0
C78 C 0.06873 0.87235 0.2374 0.0
C79 C 0.07597 0.89866 0.21695 0.0
N80 N 0.06573 0.88153 0.20595 0.0
C81 C 0.12369 0.91273 0.32604 0.0
C82 C 0.13544 0.90269 0.25288 0.0
C83 C 0.14054 0.89994 0.2954 0.0
C84 C 0.13441 0.90524 0.33195 0.0
C85 C 0.12473 0.91058 0.2483 0.0
N86 N 0.11921 0.91586 0.28479 0.0
H87 H 0.11895 0.9161 0.35542 0.0
H88 H 0.1204 0.91184 0.21556 0.0
H89 H 0.08592 0.88105 0.29641 0.0
H90 H 0.07619 0.90954 0.19932 0.0
O91 O 0.08972 0.91125 0.34082 0.0
O92 O 0.07927 0.92438 0.29979 0.0
O93 O 0.10794 0.9359 0.22251 0.0
C94 C 0.07769 0.91554 0.33616 0.0
H95 H 0.12832 0.9866 0.32709 0.0
H96 H 0.06256 0.85813 0.23888 0.0
H97 H 0.13955 0.89866 0.22336 0.0
H98 H 0.13734 0.90306 0.36552 0.0
Co99 Co 0.18732 0.09309 0.74416 0.0
C100 C 0.19219 0.06982 0.68141 0.0
C101 C 0.1682 0.05596 0.71851 0.0
C102 C 0.17008 0.04398 0.69292 0.0
N103 N 0.18223 0.07211 0.71173 0.0
N104 N 0.18529 0.05276 0.66989 0.0
H105 H 0.20399 0.08035 0.667 0.0
H106 H 0.15761 0.05305 0.74153 0.0
C107 C 0.18496 0.06643 0.8162 0.0
O108 O 0.19489 0.06292 0.79033 0.0
N109 N 0.19198 0.11372 0.77707 0.0
C110 C 0.20398 0.1306 0.76797 0.0
C111 C 0.20265 0.1412 0.79971 0.0
C112 C 0.18342 0.11418 0.81362 0.0
N113 N 0.18969 0.13082 0.82831 0.0
C114 C 0.22195 0.10969 0.70578 0.0
C115 C 0.24172 0.10869 0.77547 0.0
C116 C 0.25052 0.11627 0.73496 0.0
C117 C 0.24009 0.11691 0.70063 0.0
C118 C 0.22314 0.10162 0.77952 0.0
N119 N 0.21321 0.1015 0.74408 0.0
H120 H 0.21503 0.11065 0.67744 0.0
H121 H 0.21698 0.09654 0.8113 0.0
H122 H 0.21293 0.13493 0.74004 0.0
H123 H 0.17291 0.10253 0.82925 0.0
O124 O 0.18703 0.10499 0.68907 0.0
O125 O 0.16331 0.0892 0.7278 0.0
O126 O 0.18153 0.0786 0.80387 0.0
C127 C 0.17037 0.09919 0.69292 0.0
H128 H 0.16102 0.02992 0.69184 0.0
H129 H 0.21039 0.15544 0.80112 0.0
H130 H 0.24905 0.10816 0.80379 0.0
H131 H 0.24587 0.12328 0.66935 0.0
Co132 Co 0.92616 0.0968 0.74813 0.0
C133 C 0.95705 0.12845 0.70851 0.0
C134 C 0.96134 0.1066 0.7165 0.0
C135 C 0.97694 0.12101 0.70341 0.0
N136 N 0.94875 0.11116 0.71937 0.0
N137 N 0.97412 0.13466 0.69862 0.0
H138 H 0.95139 0.13688 0.71061 0.0
H139 H 0.95964 0.09388 0.72541 0.0
C140 C 0.95048 0.11973 0.82452 0.0
O141 O 0.95241 0.13341 0.80198 0.0
N142 N 0.90429 0.08225 0.77849 0.0
C143 C 0.88792 0.0784 0.76669 0.0
C144 C 0.87632 0.06772 0.79905 0.0
C145 C 0.90252 0.0739 0.81724 0.0
N146 N 0.88559 0.06501 0.83087 0.0
C147 C 0.91823 0.12112 0.70508 0.0
C148 C 0.90653 0.13188 0.77702 0.0
C149 C 0.90461 0.13743 0.73428 0.0
C150 C 0.91084 0.1319 0.69838 0.0
C151 C 0.91441 0.12119 0.78246 0.0
N152 N 0.92039 0.11605 0.7466 0.0
H153 H 0.92214 0.11664 0.67611 0.0
H154 H 0.91497 0.11646 0.81526 0.0
H155 H 0.88469 0.08316 0.737 0.0
H156 H 0.91342 0.07414 0.83476 0.0
O157 O 0.91485 0.08634 0.69106 0.0
O158 O 0.92703 0.07493 0.73215 0.0
O159 O 0.93977 0.10409 0.80916 0.0
C160 C 0.91858 0.07389 0.69542 0.0
H161 H 0.98937 0.12146 0.69799 0.0
H162 H 0.86223 0.06261 0.79945 0.0
H163 H 0.9018 0.13555 0.80602 0.0
H164 H 0.90935 0.13524 0.66463 0.0
Co165 Co 0.91918 0.83153 0.74108 0.0
C166 C 0.88597 0.82764 0.70703 0.0
C167 C 0.90806 0.85116 0.68129 0.0
C168 C 0.89286 0.84949 0.66335 0.0
N169 N 0.90373 0.83723 0.70806 0.0
N170 N 0.87903 0.83458 0.67924 0.0
H171 H 0.8782 0.81537 0.72471 0.0
H172 H 0.92128 0.86155 0.67378 0.0
C173 C 0.91029 0.85093 0.8102 0.0
O174 O 0.91862 0.86414 0.78241 0.0
N175 N 0.93434 0.82595 0.77485 0.0
C176 C 0.93961 0.81438 0.76396 0.0
C177 C 0.95053 0.8145 0.79703 0.0
C178 C 0.94204 0.83295 0.81404 0.0
N179 N 0.95199 0.82615 0.82846 0.0
C180 C 0.8966 0.79896 0.69725 0.0
C181 C 0.88522 0.77652 0.76939 0.0
C182 C 0.8808 0.76898 0.72641 0.0
C183 C 0.88638 0.78074 0.69042 0.0
C184 C 0.89553 0.79511 0.77492 0.0
N185 N 0.90127 0.80612 0.73887 0.0
H186 H 0.90104 0.80745 0.66841 0.0
H187 H 0.89948 0.80055 0.80794 0.0
H188 H 0.93572 0.80641 0.73417 0.0
H189 H 0.94063 0.84303 0.83122 0.0
O190 O 0.93145 0.83142 0.68667 0.0
O191 O 0.9401 0.85519 0.72624 0.0
O192 O 0.90913 0.83603 0.79978 0.0
C193 C 0.94286 0.84793 0.69138 0.0
H194 H 0.89213 0.85783 0.63786 0.0
H195 H 0.95673 0.80647 0.79812 0.0
H196 H 0.88136 0.76815 0.79848 0.0
H197 H 0.88306 0.77595 0.65666 0.0
Co198 Co 0.76342 0.51656 0.62019 0.0
C199 C 0.73669 0.51872 0.67762 0.0
C200 C 0.72648 0.49404 0.64354 0.0
C201 C 0.7128 0.4942 0.66563 0.0
N202 N 0.74143 0.50951 0.6506 0.0
N203 N 0.71936 0.50974 0.68688 0.0
H204 H 0.74527 0.53186 0.68951 0.0
H205 H 0.72549 0.48361 0.62232 0.0
C206 C 0.73705 0.51338 0.5474 0.0
O207 O 0.73319 0.52288 0.57393 0.0
N208 N 0.78488 0.52292 0.58901 0.0
C209 C 0.8012 0.53625 0.59801 0.0
C210 C 0.81256 0.53628 0.56635 0.0
C211 C 0.78647 0.51493 0.55262 0.0
N212 N 0.80327 0.52286 0.53774 0.0
C213 C 0.77576 0.5506 0.65966 0.0
C214 C 0.78004 0.57045 0.58487 0.0
C215 C 0.78514 0.57925 0.62626 0.0
C216 C 0.78283 0.56882 0.66363 0.0
C217 C 0.77258 0.55182 0.58239 0.0
N218 N 0.77005 0.54192 0.61991 0.0
H219 H 0.77496 0.5435 0.68959 0.0
H220 H 0.76946 0.54553 0.55018 0.0
H221 H 0.80456 0.5454 0.62532 0.0
H222 H 0.77549 0.50344 0.53775 0.0
O223 O 0.775 0.51713 0.67666 0.0
O224 O 0.76132 0.49332 0.63677 0.0
O225 O 0.74954 0.51037 0.55941 0.0
C226 C 0.7704 0.5007 0.6728 0.0
H227 H 0.69914 0.48378 0.66609 0.0
H228 H 0.82652 0.54569 0.56428 0.0
H229 H 0.78186 0.57788 0.55466 0.0
H230 H 0.78703 0.57476 0.69616 0.0
Co231 Co 0.50312 0.25179 0.62251 0.0
C232 C 0.49904 0.22346 0.68414 0.0
C233 C 0.52359 0.23536 0.649 0.0
C234 C 0.52237 0.22167 0.67418 0.0
N235 N 0.50886 0.23632 0.65489 0.0
N236 N 0.50684 0.21414 0.69602 0.0
H237 H 0.48658 0.22093 0.6971 0.0
H238 H 0.53423 0.24368 0.62672 0.0
C239 C 0.50594 0.22781 0.55017 0.0
O240 O 0.49637 0.21432 0.5763 0.0
N241 N 0.49781 0.26734 0.5897 0.0
C242 C 0.48518 0.27139 0.59843 0.0
C243 C 0.48621 0.28334 0.56715 0.0
C244 C 0.50643 0.27688 0.55375 0.0
N245 N 0.49958 0.28678 0.53909 0.0
C246 C 0.46867 0.23289 0.66156 0.0
C247 C 0.44888 0.21253 0.59136 0.0
C248 C 0.44009 0.21104 0.63206 0.0
C249 C 0.45054 0.22189 0.66669 0.0
C250 C 0.46745 0.22415 0.5873 0.0
N251 N 0.47737 0.2338 0.62292 0.0
H252 H 0.47564 0.24057 0.69014 0.0
H253 H 0.4736 0.22549 0.55539 0.0
H254 H 0.47593 0.26611 0.62567 0.0
H255 H 0.51768 0.27679 0.53929 0.0
O256 O 0.50314 0.26383 0.67765 0.0
O257 O 0.5269 0.27237 0.6387 0.0
O258 O 0.50909 0.24333 0.56256 0.0
C259 C 0.51971 0.27502 0.67372 0.0
H260 H 0.53201 0.21739 0.67544 0.0
H261 H 0.47762 0.28889 0.56507 0.0
H262 H 0.44156 0.20484 0.56282 0.0
H263 H 0.4448 0.22228 0.69818 0.0
Co264 Co 0.76869 0.2536 0.61744 0.0
C265 C 0.79799 0.27931 0.67492 0.0
C266 C 0.78514 0.29096 0.63966 0.0
C267 C 0.79902 0.30399 0.66328 0.0
N268 N 0.78459 0.27549 0.64681 0.0
N269 N 0.80713 0.29658 0.68506 0.0
H270 H 0.80092 0.26983 0.68907 0.0
H271 H 0.77623 0.29267 0.61808 0.0
C272 C 0.79181 0.27898 0.54263 0.0
O273 O 0.80547 0.28218 0.56731 0.0
N274 N 0.75269 0.23215 0.58731 0.0
C275 C 0.74953 0.21574 0.59617 0.0
C276 C 0.73745 0.20431 0.56579 0.0
C277 C 0.74241 0.23056 0.55241 0.0
N278 N 0.733 0.21368 0.5385 0.0
C279 C 0.78908 0.2397 0.65652 0.0
C280 C 0.80444 0.23486 0.58219 0.0
C281 C 0.80698 0.22863 0.62337 0.0
C282 C 0.79927 0.23159 0.66057 0.0
C283 C 0.79402 0.24319 0.57951 0.0
N284 N 0.78667 0.24589 0.61682 0.0
H285 H 0.78297 0.24076 0.68645 0.0
H286 H 0.79135 0.24676 0.54727 0.0
H287 H 0.75559 0.21231 0.62269 0.0
H288 H 0.74207 0.24156 0.53707 0.0
O289 O 0.75781 0.24256 0.67447 0.0
O290 O 0.74824 0.25677 0.63485 0.0
O291 O 0.77623 0.26722 0.55632 0.0
C292 C 0.7464 0.2477 0.67098 0.0
H293 H 0.80281 0.3178 0.66428 0.0
H294 H 0.73221 0.19021 0.56414 0.0
H295 H 0.80983 0.23271 0.55205 0.0
H296 H 0.80085 0.22744 0.69331 0.0
Co297 Co 0.85403 0.42584 0.08027 0.0
C298 C 0.85586 0.39654 0.03392 0.0
C299 C 0.82998 0.38937 0.05673 0.0
C300 C 0.82964 0.37443 0.04122 0.0
N301 N 0.84642 0.40329 0.05215 0.0
N302 N 0.84595 0.37908 0.02709 0.0
H303 H 0.86982 0.40361 0.02796 0.0
H304 H 0.81915 0.38989 0.07243 0.0
C305 C 0.85216 0.40101 0.15571 0.0
O306 O 0.86296 0.39822 0.1314 0.0
N307 N 0.86077 0.44773 0.10983 0.0
C308 C 0.87441 0.46389 0.10064 0.0
C309 C 0.87433 0.47566 0.13095 0.0
C310 C 0.85244 0.44983 0.14475 0.0
N311 N 0.86046 0.46675 0.15842 0.0
C312 C 0.88711 0.43605 0.03833 0.0
C313 C 0.90861 0.44476 0.11183 0.0
C314 C 0.91657 0.44804 0.06939 0.0
C315 C 0.9053 0.44341 0.03268 0.0
C316 C 0.88999 0.4369 0.11613 0.0
N317 N 0.87931 0.43227 0.0794 0.0
H318 H 0.8792 0.43328 1.00874 0.0
H319 H 0.8843 0.43521 0.14888 0.0
H320 H 0.88376 0.46687 0.07399 0.0
H321 H 0.84089 0.43911 0.1602 0.0
O322 O 0.85447 0.43685 0.02297 0.0
O323 O 0.83089 0.424 0.06385 0.0
O324 O 0.84798 0.41248 0.14175 0.0
C325 C 0.83816 0.43264 0.02724 0.0
H326 H 0.81838 0.3612 0.04052 0.0
H327 H 0.8836 0.48969 0.13237 0.0
H328 H 0.91668 0.44834 0.14147 0.0
H329 H 0.91055 0.44602 0.99923 0.0
Co330 Co 0.59387 0.43413 0.07715 0.0
C331 C 0.62425 0.46718 0.04638 0.0
C332 C 0.62528 0.44492 0.02026 0.0
C333 C 0.63962 0.46009 1.00485 0.0
N334 N 0.61546 0.44939 0.04571 0.0
N335 N 0.63882 0.47404 0.02102 0.0
H336 H 0.61983 0.47505 0.06391 0.0
H337 H 0.62218 0.43165 1.01229 0.0
C338 C 0.62109 0.44177 0.14827 0.0
O339 O 0.62532 0.43262 0.12156 0.0
N340 N 0.57268 0.41907 0.10947 0.0
C341 C 0.55597 0.413 0.09583 0.0
C342 C 0.54471 0.40154 0.1275 0.0
C343 C 0.57148 0.41143 0.14907 0.0
N344 N 0.55454 0.4007 0.16085 0.0
C345 C 0.58511 0.45752 0.0325 0.0
C346 C 0.57272 0.46806 0.10359 0.0
C347 C 0.57034 0.47296 0.06043 0.0
C348 C 0.57721 0.46781 0.02502 0.0
C349 C 0.5809 0.4577 0.10978 0.0
N350 N 0.58681 0.45236 0.07425 0.0
H351 H 0.5896 0.45332 1.00405 0.0
H352 H 0.58177 0.45336 0.14285 0.0
H353 H 0.55225 0.41643 0.06473 0.0
H354 H 0.58272 0.41317 0.16811 0.0
O355 O 0.58198 0.42215 0.0219 0.0
O356 O 0.59633 0.41302 0.06298 0.0
O357 O 0.60798 0.44383 0.13663 0.0
C358 C 0.58675 0.41051 0.02738 0.0
H359 H 0.6492 0.46078 0.98103 0.0
H360 H 0.53045 0.39432 0.12609 0.0
H361 H 0.56766 0.47155 0.13226 0.0
H362 H 0.5763 0.47148 0.9912 0.0
Co363 Co 0.58685 0.16665 0.0768 0.0
C364 C 0.55462 0.16582 0.04257 0.0
C365 C 0.57795 0.18992 0.02541 0.0
C366 C 0.56357 0.19056 1.00953 0.0
N367 N 0.57238 0.17426 0.04566 0.0
N368 N 0.5489 0.17536 0.02034 0.0
H369 H 0.54591 0.15293 0.05616 0.0
H370 H 0.59149 0.20031 0.02202 0.0
C371 C 0.56428 0.16768 0.15602 0.0
O372 O 0.5506 0.15414 0.13789 0.0
N373 N 0.60138 0.15964 0.10849 0.0
C374 C 0.60466 0.1466 0.09827 0.0
C375 C 0.61575 0.1462 0.13013 0.0
C376 C 0.6106 0.16715 0.14565 0.0
N377 N 0.61948 0.15915 0.15997 0.0
C378 C 0.56151 0.13463 0.03469 0.0
C379 C 0.55256 0.11179 0.1056 0.0
C380 C 0.54622 0.10448 0.06307 0.0
C381 C 0.55079 0.11644 0.02772 0.0
C382 C 0.56319 0.13032 0.11134 0.0
N383 N 0.56755 0.14163 0.07599 0.0
H384 H 0.56548 0.14319 1.006 0.0
H385 H 0.56855 0.13547 0.14386 0.0
H386 H 0.59923 0.13791 0.06996 0.0
H387 H 0.61094 0.17843 0.16131 0.0
O388 O 0.59756 0.16528 0.02055 0.0
O389 O 0.60874 0.18922 0.06046 0.0
O390 O 0.57956 0.1737 0.13714 0.0
C391 C 0.61004 0.18148 0.0246 0.0
H392 H 0.564 0.20118 0.9902 0.0
H393 H 0.62044 0.13689 0.13137 0.0
H394 H 0.54958 0.10327 0.13421 0.0
H395 H 0.54684 0.11178 0.99406 0.0
Co396 Co 0.43139 0.85215 0.94642 0.0
C397 C 0.405 0.85537 1.00189 0.0
C398 C 0.39419 0.8304 0.96909 0.0
C399 C 0.38082 0.83104 0.99148 0.0
N400 N 0.40935 0.84571 0.97552 0.0
N401 N 0.3877 0.84686 1.01171 0.0
H402 H 0.4141 0.86818 1.01471 0.0
H403 H 0.39291 0.81966 0.94862 0.0
C404 C 0.40586 0.8499 0.87232 0.0
O405 O 0.40244 0.85993 0.89804 0.0
N406 N 0.45298 0.85798 0.91646 0.0
C407 C 0.46926 0.87159 0.92463 0.0
C408 C 0.48073 0.87113 0.89405 0.0
C409 C 0.45471 0.84926 0.88185 0.0
N410 N 0.47151 0.85705 0.86743 0.0
C411 C 0.44485 0.88622 0.98664 0.0
C412 C 0.44971 0.90666 0.9127 0.0
C413 C 0.45582 0.9153 0.95406 0.0
C414 C 0.45286 0.90451 0.99108 0.0
C415 C 0.44151 0.88793 0.90963 0.0
N416 N 0.43882 0.87777 0.94671 0.0
H417 H 0.4436 0.87888 0.01644 0.0
H418 H 0.43804 0.88181 0.87725 0.0
H419 H 0.47257 0.88124 0.9507 0.0
H420 H 0.44382 0.83766 0.86699 0.0
O421 O 0.44217 0.85199 1.00377 0.0
O422 O 0.42848 0.82854 0.96253 0.0
O423 O 0.41793 0.84636 0.88507 0.0
C424 C 0.43719 0.8355 0.99927 0.0
H425 H 0.36714 0.82072 0.99256 0.0
H426 H 0.49475 0.88032 0.89174 0.0
H427 H 0.45187 0.91429 0.88271 0.0
H428 H 0.45688 0.91015 0.02395 0.0
Co429 Co 0.16815 0.58532 0.94913 0.0
C430 C 0.16608 0.55646 1.00609 0.0
C431 C 0.19094 0.57126 0.97297 0.0
C432 C 0.19065 0.55716 0.99411 0.0
N433 N 0.1754 0.57064 0.97989 0.0
N434 N 0.175 0.54803 1.01462 0.0
H435 H 0.15286 0.55169 0.01763 0.0
H436 H 0.2014 0.58082 0.95206 0.0
C437 C 0.17207 0.56205 0.87724 0.0
O438 O 0.16378 0.54876 0.90478 0.0
N439 N 0.16157 0.60023 0.91779 0.0
C440 C 0.14787 0.60272 0.92622 0.0
C441 C 0.1481 0.61456 0.89569 0.0
C442 C 0.17009 0.61067 0.88301 0.0
N443 N 0.16211 0.61954 0.86878 0.0
C444 C 0.13453 0.56433 0.99068 0.0
C445 C 0.11382 0.5479 0.91769 0.0
C446 C 0.10535 0.5457 0.95919 0.0
C447 C 0.1163 0.5539 0.99575 0.0
C448 C 0.13251 0.55855 0.91397 0.0
N449 N 0.14278 0.5666 0.95054 0.0
H450 H 0.14201 0.57068 0.02013 0.0
H451 H 0.13853 0.56087 0.88151 0.0
H452 H 0.13843 0.59647 0.95274 0.0
H453 H 0.18179 0.61159 0.8682 0.0
O454 O 0.16799 0.59689 1.00498 0.0
O455 O 0.19156 0.60653 0.9644 0.0
O456 O 0.17389 0.57723 0.8882 0.0
C457 C 0.18438 0.60863 1.00025 0.0
H458 H 0.20098 0.55379 0.99423 0.0
H459 H 0.13886 0.61934 0.89386 0.0
H460 H 0.10607 0.54204 0.88805 0.0
H461 H 0.11083 0.55248 0.02876 0.0
Co462 Co 0.4363 0.59147 0.95113 0.0
C463 C 0.46711 0.62016 1.0 0.0
C464 C 0.44882 0.6278 0.97663 0.0
C465 C 0.46307 0.64234 0.99484 0.0
N466 N 0.45129 0.61384 0.98001 0.0
N467 N 0.4746 0.6375 1.00937 0.0
H468 H 0.47335 0.61257 1.00709 0.0
H469 H 0.43771 0.62759 0.96032 0.0
C470 C 0.45894 0.61679 0.87587 0.0
O471 O 0.47268 0.62014 0.90035 0.0
N472 N 0.42116 0.56975 0.92099 0.0
C473 C 0.41837 0.5535 0.93001 0.0
C474 C 0.40699 0.54204 0.89848 0.0
C475 C 0.41142 0.56803 0.88489 0.0
N476 N 0.40266 0.55122 0.87002 0.0
C477 C 0.45885 0.58044 0.99138 0.0
C478 C 0.47244 0.5734 0.91674 0.0
C479 C 0.47674 0.56922 0.95864 0.0
C480 C 0.46964 0.57297 0.99593 0.0
C481 C 0.46157 0.58119 0.91358 0.0
N482 N 0.45515 0.58503 0.95093 0.0
H483 H 0.45347 0.58258 0.02139 0.0
H484 H 0.45782 0.58348 0.88112 0.0
H485 H 0.42439 0.55028 0.95707 0.0
H486 H 0.41078 0.57895 0.87013 0.0
O487 O 0.4258 0.58022 1.00829 0.0
O488 O 0.41498 0.5932 0.96821 0.0
O489 O 0.44343 0.60502 0.8899 0.0
C490 C 0.41369 0.58443 1.00454 0.0
H491 H 0.46491 0.6555 0.99624 0.0
H492 H 0.40261 0.52812 0.89629 0.0
H493 H 0.47728 0.57056 0.88659 0.0
H494 H 0.47185 0.5696 0.02899 0.0
Co495 Co 0.52021 0.75962 0.4052 0.0
C496 C 0.52282 0.73143 0.35546 0.0
C497 C 0.49691 0.72301 0.38018 0.0
C498 C 0.49699 0.70874 0.3613 0.0
N499 N 0.5131 0.73729 0.37637 0.0
N500 N 0.51336 0.71408 0.34594 0.0
H501 H 0.53653 0.73938 0.34766 0.0
H502 H 0.48593 0.72283 0.39709 0.0
C503 C 0.51811 0.73444 0.48026 0.0
O504 O 0.52842 0.73111 0.45543 0.0
N505 N 0.52658 0.78131 0.4353 0.0
C506 C 0.53949 0.79772 0.42519 0.0
C507 C 0.53964 0.80913 0.45701 0.0
C508 C 0.51898 0.78287 0.47245 0.0
N509 N 0.52675 0.79973 0.48679 0.0
C510 C 0.55367 0.7714 0.36369 0.0
C511 C 0.57481 0.77863 0.43743 0.0
C512 C 0.58309 0.78357 0.39533 0.0
C513 C 0.57193 0.77934 0.35846 0.0
C514 C 0.55612 0.77036 0.44128 0.0
N515 N 0.54563 0.76655 0.40438 0.0
H516 H 0.54594 0.76903 0.33396 0.0
H517 H 0.55025 0.76776 0.47397 0.0
H518 H 0.5483 0.8011 0.39712 0.0
H519 H 0.50787 0.77184 0.48833 0.0
O520 O 0.52025 0.77051 0.34785 0.0
O521 O 0.49687 0.75743 0.3895 0.0
O522 O 0.51432 0.74621 0.46655 0.0
C523 C 0.5039 0.76603 0.3527 0.0
H524 H 0.48592 0.69543 0.35992 0.0
H525 H 0.54878 0.82317 0.45849 0.0
H526 H 0.5827 0.78176 0.4673 0.0
H527 H 0.57721 0.78229 0.32508 0.0
Co528 Co 0.25964 0.76642 0.40838 0.0
C529 C 0.28808 0.79779 0.36095 0.0
C530 C 0.29606 0.77961 0.38322 0.0
C531 C 0.31066 0.79438 0.36703 0.0
N532 N 0.28186 0.7817 0.37937 0.0
N533 N 0.30551 0.80571 0.35325 0.0
H534 H 0.28063 0.80433 0.35528 0.0
H535 H 0.29598 0.76844 0.3988 0.0
C536 C 0.28474 0.78943 0.48379 0.0
O537 O 0.28746 0.80321 0.46033 0.0
N538 N 0.23806 0.75105 0.43873 0.0
C539 C 0.22171 0.74777 0.4289 0.0
C540 C 0.21029 0.73648 0.46057 0.0
C541 C 0.23646 0.74169 0.47551 0.0
N542 N 0.21961 0.73269 0.48995 0.0
C543 C 0.24816 0.7884 0.36741 0.0
C544 C 0.2398 0.80121 0.44144 0.0
C545 C 0.23504 0.80473 0.39931 0.0
C546 C 0.23983 0.79836 0.36231 0.0
C547 C 0.24837 0.79106 0.4452 0.0
N548 N 0.25267 0.78488 0.40818 0.0
H549 H 0.25101 0.78344 0.33761 0.0
H550 H 0.25076 0.78754 0.47784 0.0
H551 H 0.21837 0.75341 0.40117 0.0
H552 H 0.24748 0.74148 0.49106 0.0
O553 O 0.24822 0.75549 0.35164 0.0
O554 O 0.26198 0.74545 0.39162 0.0
O555 O 0.27334 0.77386 0.4693 0.0
C556 C 0.25284 0.74369 0.3557 0.0
H557 H 0.324 0.79667 0.36555 0.0
H558 H 0.1963 0.73179 0.4622 0.0
H559 H 0.23625 0.80556 0.47135 0.0
H560 H 0.23697 0.80086 0.32897 0.0
Co561 Co 0.25402 0.49873 0.41021 0.0
C562 C 0.22169 0.4937 0.36487 0.0
C563 C 0.24214 0.52076 0.36378 0.0
C564 C 0.22773 0.5192 0.34119 0.0
N565 N 0.23844 0.50465 0.37805 0.0
N566 N 0.21497 0.50211 0.34189 0.0
H567 H 0.21408 0.47988 0.37278 0.0
H568 H 0.25453 0.53282 0.36859 0.0
C569 C 0.23081 0.50263 0.48275 0.0
O570 O 0.21716 0.49313 0.45722 0.0
N571 N 0.26949 0.49305 0.44219 0.0
C572 C 0.27266 0.47979 0.4336 0.0
C573 C 0.28439 0.48023 0.46472 0.0
C574 C 0.27944 0.50155 0.47773 0.0
N575 N 0.28864 0.49394 0.49227 0.0
C576 C 0.23256 0.46524 0.36941 0.0
C577 C 0.21887 0.4441 0.44328 0.0
C578 C 0.21564 0.43585 0.40113 0.0
C579 C 0.22241 0.44699 0.36421 0.0
C580 C 0.22918 0.46281 0.44715 0.0
N581 N 0.23591 0.47323 0.41021 0.0
H582 H 0.23755 0.47306 0.33966 0.0
H583 H 0.23228 0.46878 0.47977 0.0
H584 H 0.26682 0.47045 0.40667 0.0
H585 H 0.27976 0.51291 0.49293 0.0
O586 O 0.26532 0.49816 0.35422 0.0
O587 O 0.27501 0.5221 0.39331 0.0
O588 O 0.24611 0.50508 0.47061 0.0
C589 C 0.27693 0.51467 0.35769 0.0
H590 H 0.227 0.52966 0.32394 0.0
H591 H 0.28958 0.47133 0.46661 0.0
H592 H 0.21407 0.43619 0.4731 0.0
H593 H 0.22001 0.44166 0.33085 0.0
H594 H 0.20884 0.16016 0.878 0.0
H595 H 0.19893 0.16924 0.94345 0.0
H596 H 0.1475 0.12286 0.93181 0.0
H597 H 0.15716 0.11397 0.86551 0.0
H598 H 0.14504 0.15176 0.94929 0.0
H599 H 0.1756 0.12409 1.0091 0.0
H600 H 0.20029 0.11839 0.01811 0.0
H601 H 0.23379 0.17171 0.06187 0.0
H602 H 0.20936 0.17781 0.0525 0.0
H603 H 0.1153 0.15454 0.16714 0.0
H604 H 0.12485 0.14537 0.1014 0.0
H605 H 0.17472 0.19391 0.10449 0.0
H606 H 0.16515 0.20348 0.16968 0.0
H607 H 0.17759 0.16352 0.09176 0.0
H608 H 0.14523 0.19019 0.03205 0.0
H609 H 0.11935 0.19413 0.02508 0.0
H610 H 0.0877 0.14026 0.98333 0.0
H611 H 0.11334 0.13593 0.99068 0.0
C612 C 0.19538 0.15198 0.88905 0.0
C613 C 0.18382 0.1363 0.86662 0.0
C614 C 0.18978 0.1571 0.9267 0.0
C615 C 0.17254 0.1466 0.94273 0.0
C616 C 0.16088 0.1311 0.92005 0.0
C617 C 0.16647 0.12596 0.88241 0.0
C618 C 0.16673 0.15181 0.98325 0.0
C619 C 0.15202 0.15413 0.98058 0.0
C620 C 0.17597 0.15507 0.02388 0.0
C621 C 0.1907 0.15146 0.02965 0.0
C622 C 0.18828 0.13464 0.02028 0.0
C623 C 0.20221 0.13133 0.02553 0.0
C624 C 0.21861 0.14469 0.04045 0.0
C625 C 0.22109 0.16138 0.05026 0.0
C626 C 0.2072 0.16477 0.04502 0.0
C627 C 0.12822 0.1634 0.15372 0.0
C628 C 0.13938 0.17985 0.17368 0.0
C629 C 0.13368 0.15808 0.11622 0.0
C630 C 0.15041 0.16905 0.09799 0.0
C631 C 0.16175 0.18527 0.1182 0.0
C632 C 0.15627 0.19068 0.15558 0.0
C633 C 0.15601 0.16359 0.05764 0.0
C634 C 0.17065 0.16119 0.0604 0.0
C635 C 0.14655 0.16003 0.01729 0.0
C636 C 0.13118 0.16269 1.01232 0.0
C637 C 0.13272 0.17915 0.0217 0.0
C638 C 0.1181 0.18146 0.01763 0.0
C639 C 0.10188 0.16744 1.00388 0.0
C640 C 0.10026 0.1511 0.99403 0.0
C641 C 0.11484 0.14872 0.9981 0.0
H642 H 0.09057 0.16924 1.00076 0.0
H643 H 0.22939 0.1421 0.0445 0.0
H644 H 0.90342 0.06976 0.90791 0.0
H645 H 0.89309 0.05127 0.9741 0.0
H646 H 0.84251 0.01875 0.91212 0.0
H647 H 0.85284 0.03714 0.84531 0.0
H648 H 0.84025 0.02637 1.00208 0.0
H649 H 0.87165 1.00467 0.91236 0.0
H650 H 0.89756 0.00863 0.87034 0.0
H651 H 0.92964 0.02859 0.98737 0.0
H652 H 0.90394 0.02487 0.02996 0.0
H653 H 0.80782 0.95203 0.14382 0.0
H654 H 0.8171 0.97259 0.08121 0.0
H655 H 0.87081 0.99788 0.12873 0.0
H656 H 0.86157 0.97664 0.18988 0.0
H657 H 0.87173 0.9948 0.04621 0.0
H658 H 0.84237 0.01648 0.13802 0.0
H659 H 0.81824 0.01524 0.18291 0.0
H660 H 0.78458 0.99901 0.06823 0.0
H661 H 0.80844 0.99992 0.02275 0.0
C662 C 0.89013 0.05863 0.90815 0.0
C663 C 0.87904 0.05477 0.87099 0.0
C664 C 0.88422 0.04813 0.94614 0.0
C665 C 0.86713 0.03351 0.94771 0.0
C666 C 0.85576 0.02998 0.91146 0.0
C667 C 0.86167 0.04051 0.87336 0.0
C668 C 0.86141 0.0215 0.98649 0.0
C669 C 0.84695 0.01926 1.01157 0.0
C670 C 0.87057 0.01276 0.99958 0.0
C671 C 0.88591 0.01458 0.97424 0.0
C672 C 0.88425 0.00995 0.92906 0.0
C673 C 0.89889 0.01214 0.90516 0.0
C674 C 0.91524 0.01887 0.92616 0.0
C675 C 0.91697 0.02336 0.97115 0.0
C676 C 0.90236 0.02118 0.99521 0.0
C677 C 0.82156 0.96208 0.14086 0.0
C678 C 0.834 0.96284 0.1715 0.0
C679 C 0.82687 0.97389 0.10528 0.0
C680 C 0.84464 0.98706 0.10052 0.0
C681 C 0.85704 0.98787 0.13151 0.0
C682 C 0.85178 0.97577 0.16643 0.0
C683 C 0.85045 0.99954 0.06238 0.0
C684 C 0.86495 1.00187 0.03717 0.0
C685 C 0.84154 0.00867 0.04985 0.0
C686 C 0.82715 0.00811 0.07708 0.0
C687 C 0.82978 0.01252 0.12244 0.0
C688 C 0.81616 0.0119 0.14798 0.0
C689 C 0.79987 1.007 0.12846 0.0
C690 C 0.79719 1.00277 0.08332 0.0
C691 C 0.81077 1.00336 0.05763 0.0
H692 H 0.78934 1.00653 0.14829 0.0
H693 H 0.92657 0.02058 0.90757 0.0
H694 H 0.06927 0.89675 0.12575 0.0
H695 H 0.04813 0.88577 0.06456 0.0
H696 H 0.01344 0.83983 0.142 0.0
H697 H 0.03475 0.85069 0.20314 0.0
H698 H 0.01422 0.83055 0.05953 0.0
H699 H 1.00537 0.87425 0.1299 0.0
H700 H 0.014 0.90342 0.1617 0.0
H701 H 0.03325 0.92759 0.03442 0.0
H702 H 0.02495 0.89858 1.00198 0.0
H703 H 0.94483 0.83675 0.90633 0.0
H704 H 0.96225 0.84436 0.97465 0.0
H705 H 0.99968 0.83335 0.91004 0.0
H706 H 0.98221 0.82555 0.84195 0.0
H707 H 0.99422 0.86937 0.99265 0.0
H708 H 0.01764 0.81788 0.98334 0.0
H709 H 1.00658 0.7875 0.95659 0.0
H710 H 0.95326 0.77648 0.97114 0.0
H711 H 0.96398 0.8067 0.99856 0.0
C712 C 0.05711 0.88434 0.12976 0.0
C713 C 0.05359 0.87464 0.16932 0.0
C714 C 0.04503 0.87808 0.09481 0.0
C715 C 0.02905 0.86213 0.09901 0.0
C716 C 0.02567 0.85219 0.13808 0.0
C717 C 0.03786 0.85838 0.17293 0.0
C718 C 0.01588 0.85592 0.0626 0.0
C719 C 1.00981 0.83901 0.04496 0.0
C720 C 1.00978 0.86679 0.04432 0.0
C721 C 0.01466 0.88425 0.0636 0.0
C722 C 1.01155 0.8858 0.10876 0.0
C723 C 0.01637 0.9023 0.12689 0.0
C724 C 0.0242 0.91735 0.10012 0.0
C725 C 0.02719 0.91592 0.05513 0.0
C726 C 0.02241 0.89945 0.03684 0.0
C727 C 0.95679 0.83599 0.9067 0.0
C728 C 0.96214 0.83051 0.86881 0.0
C729 C 0.96671 0.8403 0.94577 0.0
C730 C 0.98215 0.83922 0.94766 0.0
C731 C 0.98759 0.8339 0.90972 0.0
C732 C 0.97761 0.82946 0.87079 0.0
C733 C 0.9929 0.84417 0.9888 0.0
C734 C 0.99854 0.86085 1.00734 0.0
C735 C 0.99823 0.8329 1.00861 0.0
C736 C 0.99164 0.81462 0.99263 0.0
C737 C 1.00356 0.80895 0.98102 0.0
C738 C 0.99734 0.79176 0.9657 0.0
C739 C 0.97923 0.78008 0.96205 0.0
C740 C 0.96729 0.78556 0.97384 0.0
C741 C 0.97343 0.80272 0.98921 0.0
H742 H 0.97445 0.76679 0.95015 0.0
H743 H 0.02793 0.93012 0.11422 0.0
H744 H 0.85635 0.91556 0.13863 0.0
H745 H 0.86832 0.90874 0.07206 0.0
H746 H 0.85119 0.8567 0.12307 0.0
H747 H 0.83938 0.86335 0.18873 0.0
H748 H 0.8821 0.86752 0.08768 0.0
H749 H 0.82986 0.86616 0.03352 0.0
H750 H 0.81 0.87795 0.01883 0.0
H751 H 0.85036 0.92001 0.94166 0.0
H752 H 0.87055 0.90858 0.95638 0.0
H753 H 0.89383 0.82918 0.88507 0.0
H754 H 0.88192 0.836 0.95173 0.0
H755 H 0.89708 0.88726 0.89819 0.0
H756 H 0.90864 0.88051 0.83228 0.0
H757 H 0.86727 0.87692 0.93511 0.0
H758 H 0.91955 0.8787 0.9883 0.0
H759 H 0.93981 0.86734 1.00245 0.0
H760 H 0.90023 0.82536 0.08137 0.0
H761 H 0.87963 0.83632 0.06713 0.0
C762 C 0.85507 0.90264 0.13575 0.0
C763 C 0.84662 0.89009 0.16993 0.0
C764 C 0.86193 0.89865 0.09717 0.0
C765 C 0.86074 0.88198 0.09119 0.0
C766 C 0.85252 0.86965 0.12572 0.0
C767 C 0.84558 0.87354 0.16375 0.0
C768 C 0.86781 0.87714 0.04971 0.0
C769 C 0.8786 0.86945 0.05444 0.0
C770 C 0.86386 0.87974 1.00539 0.0
C771 C 0.85178 0.88663 0.99647 0.0
C772 C 0.83455 0.878 1.0137 0.0
C773 C 0.82322 0.8846 1.00533 0.0
C774 C 0.82894 0.89975 0.97945 0.0
C775 C 0.84597 0.9083 0.96178 0.0
C776 C 0.85735 0.90176 0.97011 0.0
C777 C 0.89463 0.8419 0.88737 0.0
C778 C 0.90242 0.85419 0.85235 0.0
C779 C 0.88785 0.84592 0.92604 0.0
C780 C 0.88855 0.8624 0.93142 0.0
C781 C 0.89612 0.87446 0.89607 0.0
C782 C 0.9029 0.87051 0.85785 0.0
C783 C 0.88157 0.86729 0.97302 0.0
C784 C 0.87079 0.875 0.96833 0.0
C785 C 0.88562 0.86479 0.01736 0.0
C786 C 0.89798 0.85821 0.02622 0.0
C787 C 0.91512 0.86697 1.0084 0.0
C788 C 0.92667 0.86061 0.01647 0.0
C789 C 0.92129 0.8456 0.04267 0.0
C790 C 0.90436 0.83696 0.06099 0.0
C791 C 0.89275 0.84324 0.05295 0.0
H792 H 0.93025 0.8407 0.04887 0.0
H793 H 0.82015 0.90484 0.97299 0.0
H794 H 0.15634 0.06068 0.87066 0.0
H795 H 0.14386 0.04062 0.93462 0.0
H796 H 0.1848 0.02722 0.92324 0.0
H797 H 0.19666 0.04646 0.85889 0.0
H798 H 0.15882 0.99902 0.94203 0.0
H799 H 0.17957 0.05507 1.01268 0.0
H800 H 0.18213 0.0841 0.02508 0.0
H801 H 0.12649 0.05904 0.04998 0.0
H802 H 0.12358 0.02985 0.03723 0.0
H803 H 0.15357 0.96183 0.1567 0.0
H804 H 0.16149 0.98138 0.09255 0.0
H805 H 0.11066 0.97773 0.09689 0.0
H806 H 0.10248 0.95769 0.16161 0.0
H807 H 0.13871 0.01349 0.08138 0.0
H808 H 0.11965 0.95689 1.01541 0.0
H809 H 0.11891 0.92858 1.00533 0.0
H810 H 0.17415 0.95619 0.97426 0.0
H811 H 0.17527 0.98468 0.98476 0.0
C812 C 0.16281 0.05361 0.882 0.0
C813 C 0.1777 0.05551 0.8588 0.0
C814 C 0.15564 0.04203 0.91919 0.0
C815 C 0.16324 0.03208 0.93544 0.0
C816 C 0.17827 0.03429 0.9124 0.0
C817 C 0.18522 0.04559 0.87516 0.0
C818 C 0.15566 0.01911 0.97503 0.0
C819 C 0.1547 1.00251 0.97249 0.0
C820 C 0.14962 0.02281 0.0155 0.0
C821 C 0.15133 0.0403 0.0235 0.0
C822 C 0.16787 0.05576 0.02053 0.0
C823 C 0.16939 0.07224 0.02765 0.0
C824 C 0.15448 0.07343 0.03814 0.0
C825 C 0.13803 0.05811 0.04174 0.0
C826 C 0.13643 0.04159 0.03461 0.0
C827 C 0.14386 0.96494 0.14408 0.0
C828 C 0.1272 0.95777 0.16501 0.0
C829 C 0.1485 0.9763 0.10689 0.0
C830 C 0.13683 0.98135 0.08875 0.0
C831 C 0.12013 0.97429 0.10956 0.0
C832 C 0.11533 0.96259 0.14664 0.0
C833 C 0.14225 0.99373 0.04822 0.0
C834 C 0.14282 0.01013 0.05069 0.0
C835 C 0.14823 0.99002 1.00786 0.0
C836 C 0.14757 0.97292 1.00123 0.0
C837 C 0.13166 0.95692 1.00673 0.0
C838 C 0.13117 0.94084 1.0009 0.0
C839 C 0.14648 0.94058 0.98926 0.0
C840 C 0.1623 0.95641 0.98332 0.0
C841 C 0.16287 0.97252 0.98916 0.0
H842 H 0.14607 0.92812 0.98476 0.0
H843 H 0.15568 0.08621 0.04359 0.0
H844 H 0.95975 0.09789 0.87302 0.0
H845 H 0.98008 0.10597 0.93667 0.0
H846 H 0.98677 0.15819 0.93641 0.0
H847 H 0.96723 0.1504 0.87263 0.0
H848 H 0.01676 0.1633 0.95142 0.0
H849 H 0.96159 0.12134 0.02005 0.0
H850 H 0.93463 0.09233 0.02803 0.0
H851 H 0.96605 0.06768 0.04514 0.0
H852 H 0.9932 0.09654 0.03675 0.0
H853 H 0.0523 0.19464 0.16681 0.0
H854 H 0.0331 0.18225 0.10229 0.0
H855 H 0.04188 0.13808 0.10296 0.0
H856 H 0.06154 0.15071 0.16807 0.0
H857 H 1.00561 0.12688 0.08653 0.0
H858 H 0.06057 0.169 0.02313 0.0
H859 H 0.08757 0.19789 1.01437 0.0
H860 H 0.05633 0.22205 0.98678 0.0
H861 H 0.02911 0.19333 0.99602 0.0
C862 C 0.96538 0.11103 0.88679 0.0
C863 C 0.96152 0.12335 0.86689 0.0
C864 C 0.97712 0.11573 0.92375 0.0
C865 C 0.98528 0.13287 0.94294 0.0
C866 C 0.98111 0.14495 0.9232 0.0
C867 C 0.96964 0.14036 0.88628 0.0
C868 C 0.99836 0.13865 0.98229 0.0
C869 C 0.014 0.15528 0.981 0.0
C870 C 0.99568 0.12833 0.02135 0.0
C871 C 0.97941 0.11106 0.02732 0.0
C872 C 0.96274 0.10972 0.02534 0.0
C873 C 0.94743 0.09331 0.02993 0.0
C874 C 0.94862 0.07816 0.03694 0.0
C875 C 0.96514 0.07942 0.03963 0.0
C876 C 0.9805 0.0958 0.03499 0.0
C877 C 0.05037 0.18234 0.15335 0.0
C878 C 0.05885 0.17392 0.17338 0.0
C879 C 0.03922 0.17517 0.11593 0.0
C880 C 0.03572 0.15905 0.09663 0.0
C881 C 0.04408 0.15047 0.11655 0.0
C882 C 0.05556 0.15784 0.15389 0.0
C883 C 0.0236 0.15165 0.05574 0.0
C884 C 1.00826 0.13481 0.05681 0.0
C885 C 0.02647 0.16175 0.01639 0.0
C886 C 0.04279 0.17904 1.01065 0.0
C887 C 0.05945 0.1805 0.01552 0.0
C888 C 0.0748 0.19684 1.01041 0.0
C889 C 0.07367 0.2118 1.00011 0.0
C890 C 0.05718 0.21044 0.9948 0.0
C891 C 0.04179 0.19414 0.99993 0.0
H892 H 0.08556 0.22444 0.99616 0.0
H893 H 0.93675 0.06546 0.04037 0.0
H894 H 0.78417 0.50274 0.46758 0.0
H895 H 0.79509 0.49406 0.40372 0.0
H896 H 0.84811 0.52385 0.45432 0.0
H897 H 0.83731 0.53221 0.51936 0.0
H898 H 0.84454 0.52905 0.3618 0.0
H899 H 0.8286 0.48183 0.46631 0.0
H900 H 0.80878 0.45871 0.51862 0.0
H901 H 0.77141 0.43245 0.41374 0.0
H902 H 0.79091 0.45557 0.3609 0.0
H903 H 0.88196 0.49304 0.21402 0.0
H904 H 0.87315 0.50373 0.27876 0.0
H905 H 0.81847 0.46693 0.24997 0.0
H906 H 0.82731 0.45595 0.18607 0.0
H907 H 0.82396 0.46584 0.33379 0.0
H908 H 0.8384 0.51253 0.22946 0.0
H909 H 0.85701 0.53576 0.17589 0.0
H910 H 0.89563 0.5631 0.27756 0.0
H911 H 0.87735 0.5399 0.33162 0.0
C912 C 0.79813 0.50733 0.46572 0.0
C913 C 0.80979 0.51809 0.49918 0.0
C914 C 0.80435 0.50242 0.4289 0.0
C915 C 0.82237 0.50823 0.42455 0.0
C916 C 0.83414 0.51927 0.45714 0.0
C917 C 0.82791 0.52407 0.49427 0.0
C918 C 0.82881 0.50252 0.38616 0.0
C919 C 0.84028 0.51527 0.35587 0.0
C920 C 0.82284 0.4845 0.37809 0.0
C921 C 0.81115 0.47052 0.40975 0.0
C922 C 0.81609 0.47121 0.45448 0.0
C923 C 0.80493 0.45809 0.48421 0.0
C924 C 0.78883 0.44414 0.46954 0.0
C925 C 0.78388 0.44327 0.42507 0.0
C926 C 0.79499 0.45637 0.3952 0.0
C927 C 0.86808 0.4874 0.22135 0.0
C928 C 0.85531 0.47367 0.19515 0.0
C929 C 0.86304 0.49352 0.25827 0.0
C930 C 0.84512 0.48626 0.26904 0.0
C931 C 0.83237 0.47268 0.24248 0.0
C932 C 0.83742 0.46641 0.20601 0.0
C933 C 0.8396 0.49234 0.30874 0.0
C934 C 0.8283 0.47965 0.3395 0.0
C935 C 0.84557 0.51041 0.31689 0.0
C936 C 0.85659 0.52438 0.28447 0.0
C937 C 0.85092 0.52342 0.24031 0.0
C938 C 0.8614 0.5366 0.20987 0.0
C939 C 0.87752 0.55087 0.22328 0.0
C940 C 0.88316 0.55202 0.2672 0.0
C941 C 0.87274 0.53887 0.29776 0.0
H942 H 0.88561 0.56106 0.19967 0.0
H943 H 0.7802 0.434 0.49261 0.0
H944 H 0.56745 0.40964 0.24385 0.0
H945 H 0.55764 0.39067 0.30971 0.0
H946 H 0.5185 0.34785 0.23036 0.0
H947 H 0.52778 0.36715 0.16519 0.0
H948 H 0.50481 0.34726 0.30549 0.0
H949 H 0.55996 0.35212 0.26109 0.0
H950 H 0.59158 0.36817 0.24197 0.0
H951 H 0.60412 0.39152 0.37188 0.0
H952 H 0.57255 0.37578 0.39158 0.0
H953 H 0.51761 0.28565 0.46696 0.0
H954 H 0.52705 0.3054 0.40297 0.0
H955 H 0.50392 0.33416 0.46088 0.0
H956 H 0.4947 0.3147 0.52541 0.0
H957 H 0.54874 0.34091 0.39577 0.0
H958 H 0.48558 0.34592 0.37655 0.0
H959 H 0.45365 0.3279 0.3912 0.0
H960 H 0.45675 0.28062 0.38028 0.0
H961 H 0.48861 0.29834 0.36497 0.0
C962 C 0.55672 0.39618 0.24077 0.0
C963 C 0.54838 0.38976 0.19967 0.0
C964 C 0.55117 0.38533 0.27823 0.0
C965 C 0.53757 0.36769 0.27485 0.0
C966 C 0.52902 0.36139 0.23385 0.0
C967 C 0.5343 0.37238 0.19666 0.0
C968 C 0.53237 0.35568 0.31373 0.0
C969 C 0.51445 0.34591 0.3252 0.0
C970 C 0.54487 0.35368 0.3392 0.0
C971 C 0.56388 0.36288 0.32767 0.0
C972 C 0.56946 0.36074 0.2855 0.0
C973 C 0.58737 0.36978 0.27457 0.0
C974 C 0.59985 0.38089 0.30565 0.0
C975 C 0.59444 0.38292 0.34782 0.0
C976 C 0.57654 0.37393 0.3589 0.0
C977 C 0.51469 0.29628 0.46646 0.0
C978 C 0.50533 0.29852 0.50142 0.0
C979 C 0.52006 0.30753 0.42974 0.0
C980 C 0.51606 0.32113 0.42708 0.0
C981 C 0.50692 0.32357 0.46205 0.0
C982 C 0.50159 0.31237 0.49885 0.0
C983 C 0.52127 0.33266 0.38744 0.0
C984 C 0.53916 0.34233 0.37599 0.0
C985 C 0.50871 0.33426 0.36135 0.0
C986 C 0.48951 0.32348 0.37012 0.0
C987 C 0.47943 0.33168 0.37715 0.0
C988 C 0.46135 0.32151 0.38558 0.0
C989 C 0.45319 0.30313 0.38684 0.0
C990 C 0.46309 0.29486 0.3795 0.0
C991 C 0.48117 0.30496 0.37101 0.0
H992 H 0.4392 0.29529 0.39339 0.0
H993 H 0.6137 0.3879 0.2971 0.0
H994 H 0.72768 0.18733 0.48266 0.0
H995 H 0.70773 0.1767 0.41857 0.0
H996 H 0.69123 0.21455 0.44706 0.0
H997 H 0.71122 0.22527 0.51106 0.0
H998 H 0.66307 0.17925 0.42844 0.0
H999 H 0.71874 0.22421 0.36843 0.0
H1000 H 0.75072 0.23837 0.35474 0.0
H1001 H 0.74323 0.19172 0.2883 0.0
H1002 H 0.71122 0.17718 0.3022 0.0
H1003 H 0.62028 0.17885 0.23087 0.0
H1004 H 0.63936 0.18685 0.29536 0.0
H1005 H 0.66223 0.15669 0.24476 0.0
H1006 H 0.64394 0.14948 0.17848 0.0
H1007 H 0.68708 0.18655 0.27575 0.0
H1008 H 0.63173 0.14161 0.33193 0.0
H1009 H 0.59974 0.12649 0.34616 0.0
H1010 H 0.60621 0.17118 0.42058 0.0
H1011 H 0.63822 0.18667 0.40629 0.0
C1012 C 0.71968 0.19326 0.47539 0.0
C1013 C 0.72099 0.20714 0.50162 0.0
C1014 C 0.70839 0.18726 0.43876 0.0
C1015 C 0.69811 0.19492 0.42815 0.0
C1016 C 0.6991 0.20851 0.45482 0.0
C1017 C 0.71058 0.21469 0.49106 0.0
C1018 C 0.68652 0.18897 0.38872 0.0
C1019 C 0.66827 0.18098 0.39497 0.0
C1020 C 0.69338 0.19079 0.34534 0.0
C1021 C 0.71261 0.19954 0.33681 0.0
C1022 C 0.72393 0.21691 0.35127 0.0
C1023 C 0.74206 0.22502 0.3434 0.0
C1024 C 0.74901 0.21593 0.32078 0.0
C1025 C 0.73784 0.19873 0.30589 0.0
C1026 C 0.7197 0.19056 0.31373 0.0
C1027 C 0.62946 0.17403 0.23288 0.0
C1028 C 0.63049 0.1635 0.199 0.0
C1029 C 0.64023 0.17844 0.27032 0.0
C1030 C 0.65202 0.17212 0.27535 0.0
C1031 C 0.65315 0.16164 0.24172 0.0
C1032 C 0.64253 0.15739 0.20392 0.0
C1033 C 0.66348 0.17687 0.3152 0.0
C1034 C 0.68177 0.18466 0.30912 0.0
C1035 C 0.65661 0.17467 0.35881 0.0
C1036 C 0.63737 0.16536 0.36771 0.0
C1037 C 0.62632 0.14826 0.35107 0.0
C1038 C 0.60818 0.13962 0.35919 0.0
C1039 C 0.60094 0.14789 0.38417 0.0
C1040 C 0.61183 0.1648 0.4012 0.0
C1041 C 0.62998 0.17351 0.39314 0.0
H1042 H 0.5869 0.14118 0.39041 0.0
H1043 H 0.76305 0.22224 0.31471 0.0
H1044 H 0.53558 0.1524 0.21133 0.0
H1045 H 0.5279 0.16436 0.27471 0.0
H1046 H 0.5768 0.21335 0.26128 0.0
H1047 H 0.58491 0.201 0.19756 0.0
H1048 H 0.57006 0.20887 0.34688 0.0
H1049 H 0.53351 0.2065 0.22772 0.0
H1050 H 0.51272 0.19359 0.16515 0.0
H1051 H 0.4738 0.15513 0.2527 0.0
H1052 H 0.49444 0.16766 0.31572 0.0
H1053 H 0.53519 0.25041 0.49684 0.0
H1054 H 0.54686 0.24277 0.43095 0.0
H1055 H 0.50422 0.18913 0.43894 0.0
H1056 H 0.49282 0.19656 0.50445 0.0
H1057 H 0.50925 0.19907 0.35305 0.0
H1058 H 0.54751 0.20215 0.47205 0.0
H1059 H 0.56872 0.21656 0.53315 0.0
H1060 H 0.6049 0.25617 0.44307 0.0
H1061 H 0.58378 0.24212 0.38152 0.0
C1062 C 0.5449 0.16575 0.22152 0.0
C1063 C 0.56095 0.17558 0.19806 0.0
C1064 C 0.54032 0.17275 0.25819 0.0
C1065 C 0.55133 0.19018 0.27328 0.0
C1066 C 0.56774 0.19995 0.25098 0.0
C1067 C 0.57245 0.19281 0.21415 0.0
C1068 C 0.54542 0.19785 0.31157 0.0
C1069 C 0.55682 0.20692 0.34749 0.0
C1070 C 0.52808 0.1955 0.31412 0.0
C1071 C 0.51559 0.18793 0.27638 0.0
C1072 C 0.52056 0.19522 0.23358 0.0
C1073 C 0.5088 0.18798 0.19804 0.0
C1074 C 0.49197 0.17352 0.20492 0.0
C1075 C 0.48685 0.16631 0.2474 0.0
C1076 C 0.49857 0.17349 0.28307 0.0
C1077 C 0.52818 0.23701 0.48445 0.0
C1078 C 0.51288 0.22422 0.50682 0.0
C1079 C 0.535 0.23255 0.44658 0.0
C1080 C 0.52667 0.21517 0.42905 0.0
C1081 C 0.51116 0.20261 0.45082 0.0
C1082 C 0.50458 0.20696 0.48885 0.0
C1083 C 0.53376 0.2098 0.38856 0.0
C1084 C 0.52253 0.20112 0.35223 0.0
C1085 C 0.55129 0.21277 0.38542 0.0
C1086 C 0.56398 0.22121 0.42231 0.0
C1087 C 0.55992 0.21402 0.46536 0.0
C1088 C 0.57194 0.2221 0.50005 0.0
C1089 C 0.58813 0.2373 0.49203 0.0
C1090 C 0.59235 0.24442 0.44926 0.0
C1091 C 0.58036 0.2364 0.41445 0.0
H1092 H 0.59742 0.24353 0.51893 0.0
H1093 H 0.48288 0.16794 0.17736 0.0
H1094 H 0.86667 0.38501 0.20448 0.0
H1095 H 0.85495 0.36505 0.26749 0.0
H1096 H 0.80866 0.37038 0.26715 0.0
H1097 H 0.82091 0.39124 0.20424 0.0
H1098 H 0.81409 0.36611 0.3499 0.0
H1099 H 0.81081 0.33183 0.22449 0.0
H1100 H 0.82121 0.32337 0.15785 0.0
H1101 H 0.85909 0.31797 0.23673 0.0
H1102 H 0.84911 0.32666 0.30377 0.0
H1103 H 0.76997 0.2884 0.49487 0.0
H1104 H 0.77785 0.30855 0.4306 0.0
H1105 H 0.82983 0.31486 0.42921 0.0
H1106 H 0.82217 0.29517 0.4931 0.0
H1107 H 0.81842 0.31182 0.34479 0.0
H1108 H 0.8209 0.34715 0.47052 0.0
H1109 H 0.80883 0.35465 0.53555 0.0
H1110 H 0.76956 0.35609 0.45305 0.0
H1111 H 0.78125 0.34834 0.3876 0.0
C1112 C 0.85401 0.38215 0.21769 0.0
C1113 C 0.84489 0.39 0.19822 0.0
C1114 C 0.84711 0.37036 0.25403 0.0
C1115 C 0.83041 0.36529 0.27246 0.0
C1116 C 0.82146 0.37361 0.25418 0.0
C1117 C 0.82855 0.38572 0.21787 0.0
C1118 C 0.82257 0.35134 0.30992 0.0
C1119 C 0.81485 0.35414 0.34806 0.0
C1120 C 0.82333 0.33541 0.30923 0.0
C1121 C 0.82931 0.33005 0.2691 0.0
C1122 C 0.82143 0.32894 0.22759 0.0
C1123 C 0.82725 0.3241 0.18974 0.0
C1124 C 0.84083 0.32017 0.19304 0.0
C1125 C 0.84859 0.32103 0.23422 0.0
C1126 C 0.84285 0.3259 0.27216 0.0
C1127 C 0.78302 0.2939 0.48066 0.0
C1128 C 0.7953 0.28983 0.49992 0.0
C1129 C 0.78765 0.30568 0.44378 0.0
C1130 C 0.80467 0.3137 0.4242 0.0
C1131 C 0.81665 0.30916 0.44277 0.0
C1132 C 0.81217 0.29773 0.47983 0.0
C1133 C 0.81025 0.32675 0.38492 0.0
C1134 C 0.81758 0.32375 0.34642 0.0
C1135 C 0.80882 0.34228 0.38503 0.0
C1136 C 0.80182 0.34696 0.42428 0.0
C1137 C 0.8096 0.34891 0.46632 0.0
C1138 C 0.80284 0.35324 0.50324 0.0
C1139 C 0.7884 0.35579 0.49847 0.0
C1140 C 0.78072 0.35407 0.45672 0.0
C1141 C 0.78741 0.34972 0.4197 0.0
H1142 H 0.7832 0.35915 0.52709 0.0
H1143 H 0.84532 0.31643 0.1637 0.0
H1144 H 0.61863 0.46229 0.21787 0.0
H1145 H 0.63745 0.47408 0.28443 0.0
H1146 H 0.66811 0.4508 0.24113 0.0
H1147 H 0.64937 0.43885 0.17612 0.0
H1148 H 0.66608 0.44664 0.32407 0.0
H1149 H 0.68183 0.49854 0.23707 0.0
H1150 H 0.67647 0.51991 0.19654 0.0
H1151 H 0.65615 0.53032 0.31542 0.0
H1152 H 0.66119 0.50884 0.35653 0.0
H1153 H 0.73911 0.49268 0.47788 0.0
H1154 H 0.72022 0.48101 0.41149 0.0
H1155 H 0.69025 0.50508 0.45451 0.0
H1156 H 0.70916 0.51701 0.51931 0.0
H1157 H 0.69178 0.5088 0.37188 0.0
H1158 H 0.67598 0.45693 0.45894 0.0
H1159 H 0.68119 0.43547 0.49953 0.0
H1160 H 0.70144 0.42491 0.38075 0.0
H1161 H 0.69654 0.44646 0.33957 0.0
C1162 C 0.62937 0.45966 0.22244 0.0
C1163 C 0.6322 0.44948 0.19055 0.0
C1164 C 0.64036 0.46658 0.2608 0.0
C1165 C 0.65476 0.46374 0.26881 0.0
C1166 C 0.65734 0.45341 0.23706 0.0
C1167 C 0.64644 0.44653 0.19913 0.0
C1168 C 0.66712 0.47122 0.30949 0.0
C1169 C 0.67179 0.46033 0.33388 0.0
C1170 C 0.6747 0.48902 0.32429 0.0
C1171 C 0.67171 0.50195 0.29973 0.0
C1172 C 0.67611 0.5053 0.25448 0.0
C1173 C 0.67315 0.51744 0.23142 0.0
C1174 C 0.66593 0.52643 0.25336 0.0
C1175 C 0.66171 0.52332 0.29845 0.0
C1176 C 0.66463 0.51118 0.32165 0.0
C1177 C 0.72853 0.49554 0.47325 0.0
C1178 C 0.72596 0.50596 0.50498 0.0
C1179 C 0.71748 0.48867 0.43501 0.0
C1180 C 0.70322 0.49173 0.42699 0.0
C1181 C 0.7009 0.50229 0.45857 0.0
C1182 C 0.7119 0.50917 0.49636 0.0
C1183 C 0.69076 0.48421 0.38647 0.0
C1184 C 0.68607 0.4951 0.3621 0.0
C1185 C 0.68315 0.46641 0.37171 0.0
C1186 C 0.68607 0.45344 0.39632 0.0
C1187 C 0.68165 0.45011 0.44156 0.0
C1188 C 0.68453 0.43792 0.46466 0.0
C1189 C 0.69168 0.42887 0.44276 0.0
C1190 C 0.69592 0.43195 0.39768 0.0
C1191 C 0.69309 0.44414 0.37444 0.0
H1192 H 0.6939 0.41944 0.4607 0.0
H1193 H 0.66364 0.53582 0.23546 0.0
H1194 H 0.50949 0.78083 0.56003 0.0
H1195 H 0.50089 0.79135 0.62492 0.0
H1196 H 0.52568 0.84372 0.56934 0.0
H1197 H 0.53399 0.83324 0.50341 0.0
H1198 H 0.53331 0.84239 0.66094 0.0
H1199 H 0.48294 0.8201 0.56281 0.0
H1200 H 0.45971 0.79764 0.51493 0.0
H1201 H 0.43923 0.76199 0.62548 0.0
H1202 H 0.46248 0.78417 0.67389 0.0
H1203 H 0.49605 0.87821 0.80799 0.0
H1204 H 0.5064 0.86899 0.7434 0.0
H1205 H 0.47249 0.81445 0.77993 0.0
H1206 H 0.46163 0.82373 0.84339 0.0
H1207 H 0.46991 0.81723 0.69662 0.0
H1208 H 0.51913 0.83772 0.79533 0.0
H1209 H 0.54262 0.85866 0.84527 0.0
H1210 H 0.56572 0.8956 0.73802 0.0
H1211 H 0.54223 0.87497 0.68755 0.0
C1212 C 0.51298 0.79455 0.56112 0.0
C1213 C 0.52228 0.80613 0.52602 0.0
C1214 C 0.50813 0.80055 0.59848 0.0
C1215 C 0.51252 0.81825 0.60164 0.0
C1216 C 0.52219 0.82999 0.56741 0.0
C1217 C 0.52696 0.82397 0.52981 0.0
C1218 C 0.50668 0.82437 0.64042 0.0
C1219 C 0.51946 0.8371 0.66856 0.0
C1220 C 0.48862 0.81703 0.65086 0.0
C1221 C 0.47454 0.80375 0.62186 0.0
C1222 C 0.47356 0.80743 0.57683 0.0
C1223 C 0.46037 0.79476 0.54961 0.0
C1224 C 0.44802 0.77838 0.56713 0.0
C1225 C 0.4488 0.77467 0.61194 0.0
C1226 C 0.46197 0.7873 0.63929 0.0
C1227 C 0.49096 0.86428 0.80228 0.0
C1228 C 0.47809 0.85166 0.83054 0.0
C1229 C 0.4969 0.85901 0.76551 0.0
C1230 C 0.49044 0.84101 0.75708 0.0
C1231 C 0.47766 0.8284 0.78562 0.0
C1232 C 0.47146 0.83368 0.82183 0.0
C1233 C 0.49653 0.83526 0.71777 0.0
C1234 C 0.48379 0.82258 0.68931 0.0
C1235 C 0.51465 0.84245 0.70753 0.0
C1236 C 0.52882 0.85487 0.73777 0.0
C1237 C 0.52915 0.85036 0.78247 0.0
C1238 C 0.54247 0.86217 0.81087 0.0
C1239 C 0.55563 0.87847 0.79486 0.0
C1240 C 0.55551 0.88298 0.75039 0.0
C1241 C 0.5422 0.87123 0.72187 0.0
H1242 H 0.56594 0.88759 0.81689 0.0
H1243 H 0.43783 0.76859 0.546 0.0
H1244 H 0.14082 0.62439 0.81275 0.0
H1245 H 0.14991 0.64453 0.74911 0.0
H1246 H 0.20445 0.66233 0.7788 0.0
H1247 H 0.19542 0.64219 0.84242 0.0
H1248 H 0.19678 0.68994 0.75911 0.0
H1249 H 0.1872 0.63453 0.70026 0.0
H1250 H 0.16996 0.60246 0.68719 0.0
H1251 H 0.13013 0.60865 0.62004 0.0
H1252 H 0.14702 0.64075 0.63334 0.0
H1253 H 0.23875 0.73233 0.56083 0.0
H1254 H 0.22793 0.71345 0.6257 0.0
H1255 H 0.17479 0.68988 0.57538 0.0
H1256 H 0.18563 0.70799 0.50871 0.0
H1257 H 0.18037 0.66537 0.60677 0.0
H1258 H 0.18988 0.72063 0.66206 0.0
H1259 H 0.20649 0.75271 0.67539 0.0
H1260 H 0.24536 0.7472 0.74943 0.0
H1261 H 0.22908 0.71508 0.73615 0.0
C1262 C 0.15473 0.63272 0.80588 0.0
C1263 C 0.16743 0.63171 0.83228 0.0
C1264 C 0.1599 0.64413 0.76952 0.0
C1265 C 0.17783 0.65481 0.75932 0.0
C1266 C 0.19055 0.65416 0.78624 0.0
C1267 C 0.18538 0.64258 0.82225 0.0
C1268 C 0.18332 0.66632 0.71976 0.0
C1269 C 0.19337 0.68462 0.72573 0.0
C1270 C 0.1784 0.65929 0.67648 0.0
C1271 C 0.16828 0.64001 0.66824 0.0
C1272 C 0.17469 0.62903 0.68307 0.0
C1273 C 0.165 0.61085 0.67555 0.0
C1274 C 0.14893 0.60351 0.65291 0.0
C1275 C 0.14256 0.61435 0.63764 0.0
C1276 C 0.15219 0.63254 0.64513 0.0
C1277 C 0.22478 0.72304 0.56298 0.0
C1278 C 0.21311 0.72175 0.52909 0.0
C1279 C 0.21857 0.71239 0.60063 0.0
C1280 C 0.2005 0.70047 0.60584 0.0
C1281 C 0.18879 0.69907 0.57219 0.0
C1282 C 0.19502 0.70958 0.53418 0.0
C1283 C 0.19395 0.68912 0.64586 0.0
C1284 C 0.18371 0.6708 0.64007 0.0
C1285 C 0.19857 0.69616 0.68935 0.0
C1286 C 0.20832 0.71545 0.69783 0.0
C1287 C 0.20202 0.72627 0.68098 0.0
C1288 C 0.21137 0.74445 0.68857 0.0
C1289 C 0.22698 0.75199 0.7132 0.0
C1290 C 0.23326 0.74134 0.73038 0.0
C1291 C 0.22396 0.72314 0.7229 0.0
H1292 H 0.23418 0.76607 0.71904 0.0
H1293 H 0.14145 0.58943 0.64711 0.0
H1294 H 0.29389 0.47268 0.5475 0.0
H1295 H 0.3138 0.48173 0.61158 0.0
H1296 H 0.32998 0.53618 0.58542 0.0
H1297 H 0.31007 0.52719 0.52131 0.0
H1298 H 0.35827 0.52943 0.6026 0.0
H1299 H 0.30251 0.51735 0.66467 0.0
H1300 H 0.27059 0.49908 0.6786 0.0
H1301 H 0.27881 0.45976 0.74154 0.0
H1302 H 0.31078 0.47769 0.72737 0.0
H1303 H 0.4011 0.57046 0.80087 0.0
H1304 H 0.38182 0.55962 0.7368 0.0
H1305 H 0.36004 0.50625 0.78432 0.0
H1306 H 0.37858 0.51708 0.85036 0.0
H1307 H 0.3347 0.51101 0.75514 0.0
H1308 H 0.39018 0.52277 0.69657 0.0
H1309 H 0.42212 0.54018 0.68201 0.0
H1310 H 0.41486 0.57876 0.61178 0.0
H1311 H 0.38287 0.56168 0.62636 0.0
C1312 C 0.30179 0.48658 0.55529 0.0
C1313 C 0.30044 0.49925 0.52959 0.0
C1314 C 0.31306 0.4917 0.59194 0.0
C1315 C 0.32326 0.5096 0.60319 0.0
C1316 C 0.32217 0.52231 0.57718 0.0
C1317 C 0.31073 0.51716 0.54088 0.0
C1318 C 0.33494 0.51505 0.64245 0.0
C1319 C 0.35316 0.52558 0.63605 0.0
C1320 C 0.32821 0.50953 0.68577 0.0
C1321 C 0.30901 0.49877 0.69451 0.0
C1322 C 0.2975 0.50474 0.68111 0.0
C1323 C 0.2794 0.49446 0.68913 0.0
C1324 C 0.27267 0.47825 0.71083 0.0
C1325 C 0.28404 0.47231 0.72467 0.0
C1326 C 0.30215 0.48253 0.71668 0.0
C1327 C 0.39212 0.55643 0.79833 0.0
C1328 C 0.39147 0.5447 0.83127 0.0
C1329 C 0.38123 0.55021 0.76109 0.0
C1330 C 0.3697 0.53209 0.75528 0.0
C1331 C 0.36893 0.5203 0.78798 0.0
C1332 C 0.37968 0.52653 0.82562 0.0
C1333 C 0.35816 0.52555 0.71555 0.0
C1334 C 0.33992 0.51479 0.72177 0.0
C1335 C 0.36491 0.53073 0.67198 0.0
C1336 C 0.38413 0.541 0.66286 0.0
C1337 C 0.3954 0.53502 0.67826 0.0
C1338 C 0.41351 0.54482 0.66997 0.0
C1339 C 0.42051 0.56058 0.64604 0.0
C1340 C 0.40941 0.56656 0.6303 0.0
C1341 C 0.39129 0.5568 0.63852 0.0
H1342 H 0.43453 0.56813 0.63959 0.0
H1343 H 0.25866 0.47031 0.71702 0.0
H1344 H 0.18724 0.5414 0.86984 0.0
H1345 H 0.19873 0.53379 0.80451 0.0
H1346 H 0.18641 0.5666 0.7232 0.0
H1347 H 0.17542 0.57488 0.78949 0.0
H1348 H 0.17417 0.52848 0.68939 0.0
H1349 H 0.22648 0.58136 0.73714 0.0
H1350 H 0.24907 0.60031 0.79165 0.0
H1351 H 0.26319 0.56037 0.81148 0.0
H1352 H 0.24048 0.54106 0.75755 0.0
H1353 H 0.20908 0.51649 0.48903 0.0
H1354 H 0.20131 0.52833 0.55263 0.0
H1355 H 0.23622 0.51932 0.63529 0.0
H1356 H 0.24499 0.50845 0.56987 0.0
H1357 H 0.23693 0.54554 0.6703 0.0
H1358 H 0.1857 0.49197 0.63108 0.0
H1359 H 0.162 0.46992 0.58346 0.0
H1360 H 0.1442 0.5066 0.55585 0.0
H1361 H 0.16794 0.52895 0.6029 0.0
C1362 C 0.1871 0.54725 0.83824 0.0
C1363 C 0.18034 0.55893 0.83581 0.0
C1364 C 0.19374 0.5428 0.80049 0.0
C1365 C 0.19357 0.54942 0.75794 0.0
C1366 C 0.18682 0.56114 0.75515 0.0
C1367 C 0.18059 0.56602 0.79342 0.0
C1368 C 0.20009 0.54377 0.71706 0.0
C1369 C 0.18797 0.53255 0.68489 0.0
C1370 C 0.21796 0.54808 0.71137 0.0
C1371 C 0.23165 0.55969 0.74364 0.0
C1372 C 0.23428 0.57655 0.75344 0.0
C1373 C 0.24714 0.58737 0.78416 0.0
C1374 C 0.25753 0.58153 0.80511 0.0
C1375 C 0.25512 0.56487 0.79527 0.0
C1376 C 0.24226 0.55398 0.7646 0.0
C1377 C 0.2153 0.51708 0.5206 0.0
C1378 C 0.22773 0.5113 0.52345 0.0
C1379 C 0.21056 0.52372 0.55777 0.0
C1380 C 0.21741 0.52431 0.60068 0.0
C1381 C 0.23033 0.51904 0.60346 0.0
C1382 C 0.23546 0.51276 0.56564 0.0
C1383 C 0.21103 0.53036 0.64162 0.0
C1384 C 0.22313 0.54153 0.67421 0.0
C1385 C 0.19299 0.52556 0.64849 0.0
C1386 C 0.17871 0.51219 0.62014 0.0
C1387 C 0.1768 0.49537 0.61461 0.0
C1388 C 0.16335 0.48281 0.58776 0.0
C1389 C 0.15163 0.48687 0.56654 0.0
C1390 C 0.15331 0.50348 0.57224 0.0
C1391 C 0.16675 0.5161 0.59903 0.0
H1392 H 0.14123 0.47714 0.54576 0.0
H1393 H 0.26748 0.58994 0.82888 0.0
H1394 H 0.488 0.7268 0.53112 0.0
H1395 H 0.47566 0.70679 0.59521 0.0
H1396 H 0.51961 0.69761 0.59188 0.0
H1397 H 0.53134 0.71674 0.52728 0.0
H1398 H 0.49476 0.6685 0.60977 0.0
H1399 H 0.50959 0.72419 0.67737 0.0
H1400 H 0.50864 0.75173 0.68595 0.0
H1401 H 0.45252 0.72183 0.70384 0.0
H1402 H 0.45312 0.69411 0.69484 0.0
H1403 H 0.48944 0.6334 0.82702 0.0
H1404 H 0.49678 0.65237 0.76186 0.0
H1405 H 0.44426 0.64466 0.76059 0.0
H1406 H 0.43667 0.62518 0.8263 0.0
H1407 H 0.47021 0.6809 0.74426 0.0
H1408 H 0.45622 0.62528 0.68202 0.0
H1409 H 0.45761 0.59798 0.67447 0.0
H1410 H 0.5131 0.62841 0.64735 0.0
H1411 H 0.51209 0.65594 0.65547 0.0
C1412 C 0.49517 0.7207 0.54432 0.0
C1413 C 0.51088 0.72374 0.52325 0.0
C1414 C 0.48808 0.70914 0.58161 0.0
C1415 C 0.49656 0.70037 0.60018 0.0
C1416 C 0.51238 0.70374 0.57927 0.0
C1417 C 0.51927 0.71498 0.54188 0.0
C1418 C 0.48913 0.68745 0.64 0.0
C1419 C 0.48968 0.67156 0.63919 0.0
C1420 C 0.48173 0.69049 0.67902 0.0
C1421 C 0.48138 0.7071 0.68496 0.0
C1422 C 0.49704 0.7235 0.68291 0.0
C1423 C 0.49657 0.73914 0.68786 0.0
C1424 C 0.48053 0.73854 0.69529 0.0
C1425 C 0.46493 0.72228 0.69799 0.0
C1426 C 0.46533 0.70661 0.693 0.0
C1427 C 0.47925 0.63549 0.81297 0.0
C1428 C 0.4623 0.62735 0.83267 0.0
C1429 C 0.48355 0.64652 0.77517 0.0
C1430 C 0.47123 0.65028 0.75514 0.0
C1431 C 0.45423 0.64224 0.7747 0.0
C1432 C 0.44979 0.63086 0.81239 0.0
C1433 C 0.47633 0.66236 0.714 0.0
C1434 C 0.47533 0.67798 0.71465 0.0
C1435 C 0.48345 0.65919 0.67488 0.0
C1436 C 0.48411 0.64268 0.66973 0.0
C1437 C 0.46875 0.62616 0.67477 0.0
C1438 C 0.46946 0.61064 0.67032 0.0
C1439 C 0.48544 0.61146 0.66049 0.0
C1440 C 0.50073 0.6278 0.655 0.0
C1441 C 0.5001 0.64337 0.65949 0.0
H1442 H 0.48596 0.59942 0.65706 0.0
H1443 H 0.48018 0.75066 0.69904 0.0
H1444 H 0.40033 0.82154 0.81653 0.0
H1445 H 0.37997 0.80902 0.753 0.0
H1446 H 0.3656 0.84917 0.76768 0.0
H1447 H 0.38524 0.86115 0.83122 0.0
H1448 H 0.3373 0.8223 0.74997 0.0
H1449 H 0.39352 0.84513 0.67664 0.0
H1450 H 0.42261 0.84812 0.66211 0.0
H1451 H 0.39791 0.79273 0.63382 0.0
H1452 H 0.36868 0.78937 0.64869 0.0
H1453 H 0.29909 0.81878 0.5372 0.0
H1454 H 0.31872 0.82629 0.60123 0.0
H1455 H 0.31642 0.77616 0.5912 0.0
H1456 H 0.2962 0.76834 0.52699 0.0
H1457 H 0.35203 0.80481 0.6069 0.0
H1458 H 0.29593 0.78248 0.67532 0.0
H1459 H 0.26679 0.77944 0.68879 0.0
H1460 H 0.29146 0.83403 0.72595 0.0
H1461 H 0.32078 0.83748 0.71203 0.0
C1462 C 0.393 0.82785 0.80597 0.0
C1463 C 0.39479 0.84258 0.82984 0.0
C1464 C 0.38123 0.82065 0.76907 0.0
C1465 C 0.3709 0.828 0.75393 0.0
C1466 C 0.37297 0.84283 0.77765 0.0
C1467 C 0.38451 0.84986 0.81445 0.0
C1468 C 0.3577 0.8204 0.71474 0.0
C1469 C 0.34084 0.81876 0.71869 0.0
C1470 C 0.36142 0.81497 0.67332 0.0
C1471 C 0.37894 0.81697 0.66427 0.0
C1472 C 0.39431 0.83357 0.66761 0.0
C1473 C 0.41081 0.83533 0.65927 0.0
C1474 C 0.41211 0.82061 0.64719 0.0
C1475 C 0.39689 0.80411 0.64327 0.0
C1476 C 0.38035 0.80227 0.65162 0.0
C1477 C 0.3025 0.80914 0.54863 0.0
C1478 C 0.29564 0.79277 0.52632 0.0
C1479 C 0.31391 0.81354 0.58569 0.0
C1480 C 0.31941 0.80196 0.60209 0.0
C1481 C 0.31265 0.78555 0.57989 0.0
C1482 C 0.30083 0.78095 0.5431 0.0
C1483 C 0.33198 0.80718 0.64221 0.0
C1484 C 0.34862 0.80836 0.63835 0.0
C1485 C 0.32813 0.81225 0.68375 0.0
C1486 C 0.31055 0.81028 0.69222 0.0
C1487 C 0.29514 0.79388 0.68601 0.0
C1488 C 0.27859 0.79207 0.6938 0.0
C1489 C 0.27726 0.80654 0.70814 0.0
C1490 C 0.2925 0.82284 0.7148 0.0
C1491 C 0.3091 0.82473 0.70699 0.0
H1492 H 0.26443 0.80511 0.71418 0.0
H1493 H 0.4249 0.822 0.64076 0.0
H1494 H 0.2229 0.41666 0.34091 0.0
H1495 H 0.20588 0.38541 0.32299 0.0
H1496 H 0.16908 0.37778 0.42726 0.0
H1497 H 0.18608 0.40947 0.44515 0.0
H1498 H 0.17581 0.35031 0.42483 0.0
H1499 H 0.15889 0.3793 0.31709 0.0
H1500 H 0.16379 0.40125 0.25931 0.0
H1501 H 0.18937 0.38072 0.17695 0.0
H1502 H 0.18485 0.3588 0.23455 0.0
H1503 H 0.11122 0.26454 0.35721 0.0
H1504 H 0.12661 0.29598 0.37457 0.0
H1505 H 0.1615 0.30611 0.26366 0.0
H1506 H 0.14571 0.27442 0.24552 0.0
H1507 H 0.15537 0.3325 0.26984 0.0
H1508 H 0.17326 0.3042 0.37687 0.0
H1509 H 0.16917 0.28244 0.43445 0.0
H1510 H 0.14282 0.30182 0.51787 0.0
H1511 H 0.14653 0.32354 0.4605 0.0
C1512 C 0.21111 0.4085 0.36004 0.0
C1513 C 0.20582 0.41598 0.39409 0.0
C1514 C 0.20132 0.39044 0.34964 0.0
C1515 C 0.18581 0.37901 0.37285 0.0
C1516 C 0.18086 0.38618 0.40834 0.0
C1517 C 0.19069 0.40439 0.41875 0.0
C1518 C 0.17489 0.35976 0.35953 0.0
C1519 C 0.17111 0.34647 0.39108 0.0
C1520 C 0.16904 0.35443 0.31517 0.0
C1521 C 0.17166 0.3675 0.28032 0.0
C1522 C 0.16567 0.37954 0.2868 0.0
C1523 C 0.16836 0.39197 0.25406 0.0
C1524 C 0.17692 0.39241 0.21453 0.0
C1525 C 0.18276 0.38038 0.20761 0.0
C1526 C 0.18012 0.36794 0.24028 0.0
C1527 C 0.12208 0.27343 0.33613 0.0
C1528 C 0.12721 0.26674 0.30001 0.0
C1529 C 0.13103 0.29154 0.34639 0.0
C1530 C 0.14572 0.3037 0.32146 0.0
C1531 C 0.15037 0.29719 0.28396 0.0
C1532 C 0.14125 0.27899 0.27336 0.0
C1533 C 0.15625 0.32298 0.33514 0.0
C1534 C 0.16 0.3363 0.30364 0.0
C1535 C 0.16217 0.32835 0.37951 0.0
C1536 C 0.16002 0.31539 0.4142 0.0
C1537 C 0.16649 0.30375 0.40737 0.0
C1538 C 0.16425 0.29143 0.43999 0.0
C1539 C 0.1557 0.29072 0.47975 0.0
C1540 C 0.14942 0.30237 0.48703 0.0
C1541 C 0.15159 0.31469 0.45449 0.0
H1542 H 0.15398 0.28117 0.50496 0.0
H1543 H 0.179 0.40204 0.18922 0.0
H1544 H 0.7547 0.85016 0.35898 0.0
H1545 H 0.72329 0.83483 0.37615 0.0
H1546 H 0.71377 0.85851 0.26183 0.0
H1547 H 0.74552 0.87437 0.24503 0.0
H1548 H 0.69562 0.86029 0.33128 0.0
H1549 H 0.70139 0.81314 0.26715 0.0
H1550 H 0.71432 0.79392 0.259 0.0
H1551 H 0.70045 0.77638 0.39379 0.0
H1552 H 0.68761 0.79565 0.4029 0.0
H1553 H 0.60254 0.80921 0.33315 0.0
H1554 H 0.63377 0.82331 0.31645 0.0
H1555 H 0.6412 0.79594 0.42585 0.0
H1556 H 0.60936 0.78082 0.44139 0.0
H1557 H 0.66068 0.796 0.36043 0.0
H1558 H 0.65507 0.84242 0.4262 0.0
H1559 H 0.64294 0.86218 0.43768 0.0
H1560 H 0.65735 0.88177 0.30456 0.0
H1561 H 0.66936 0.86195 0.29206 0.0
C1562 C 0.74599 0.85212 0.33716 0.0
C1563 C 0.75293 0.86369 0.3005 0.0
C1564 C 0.72784 0.84315 0.34695 0.0
C1565 C 0.71578 0.84522 0.32033 0.0
C1566 C 0.72259 0.85652 0.28316 0.0
C1567 C 0.74083 0.86551 0.27321 0.0
C1568 C 0.69632 0.83609 0.3322 0.0
C1569 C 0.68796 0.84617 0.33687 0.0
C1570 C 0.68617 0.81771 0.34139 0.0
C1571 C 0.69367 0.80595 0.3358 0.0
C1572 C 0.70119 0.80526 0.29512 0.0
C1573 C 0.70849 0.79434 0.29032 0.0
C1574 C 0.70824 0.78396 0.32589 0.0
C1575 C 0.70064 0.78443 0.36628 0.0
C1576 C 0.69333 0.79533 0.37126 0.0
C1577 C 0.61063 0.80591 0.3537 0.0
C1578 C 0.60299 0.79349 0.38851 0.0
C1579 C 0.62878 0.81433 0.34437 0.0
C1580 C 0.6403 0.81108 0.37001 0.0
C1581 C 0.63284 0.79886 0.40527 0.0
C1582 C 0.61452 0.79028 0.41451 0.0
C1583 C 0.65989 0.82018 0.35918 0.0
C1584 C 0.6683 0.81011 0.35479 0.0
C1585 C 0.67016 0.83862 0.3507 0.0
C1586 C 0.66297 0.85058 0.35807 0.0
C1587 C 0.65554 0.85085 0.39927 0.0
C1588 C 0.6487 0.86208 0.40597 0.0
C1589 C 0.64934 0.87319 0.37184 0.0
C1590 C 0.65685 0.87314 0.33095 0.0
C1591 C 0.66369 0.86192 0.32405 0.0
H1592 H 0.64404 0.88187 0.3771 0.0
H1593 H 0.71392 0.77554 0.32212 0.0
H1594 H 0.23758 0.8338 0.44431 0.0
H1595 H 0.22228 0.85026 0.42778 0.0
H1596 H 0.19374 0.81387 0.32204 0.0
H1597 H 0.20878 0.79749 0.33838 0.0
H1598 H 0.20425 0.84547 0.29235 0.0
H1599 H 0.17459 0.81497 0.42575 0.0
H1600 H 0.17233 0.80597 0.5042 0.0
H1601 H 0.19605 0.86008 0.54515 0.0
H1602 H 0.19865 0.86943 0.46686 0.0
H1603 H 0.13959 0.87162 0.2508 0.0
H1604 H 0.15553 0.85598 0.26849 0.0
H1605 H 0.1824 0.89242 0.37543 0.0
H1606 H 0.1665 0.90795 0.35812 0.0
H1607 H 0.17331 0.86137 0.4049 0.0
H1608 H 0.20278 0.89194 0.27189 0.0
H1609 H 0.20523 0.90109 0.19353 0.0
H1610 H 0.18221 0.84712 0.15188 0.0
H1611 H 0.17943 0.83762 0.23007 0.0
C1612 C 0.22789 0.82915 0.4179 0.0
C1613 C 0.22473 0.81429 0.39254 0.0
C1614 C 0.21909 0.83864 0.40832 0.0
C1615 C 0.20667 0.83349 0.37336 0.0
C1616 C 0.20329 0.81845 0.34878 0.0
C1617 C 0.21204 0.80903 0.35826 0.0
C1618 C 0.19737 0.84369 0.36156 0.0
C1619 C 0.19732 0.84872 0.31706 0.0
C1620 C 0.18855 0.84849 0.39339 0.0
C1621 C 0.18699 0.84291 0.44044 0.0
C1622 C 0.17945 0.82496 0.45147 0.0
C1623 C 0.17808 0.8198 0.49591 0.0
C1624 C 0.18409 0.83245 0.52963 0.0
C1625 C 0.19143 0.8503 0.51899 0.0
C1626 C 0.19284 0.85554 0.4746 0.0
C1627 C 0.14908 0.87651 0.27766 0.0
C1628 C 0.15155 0.89115 0.30294 0.0
C1629 C 0.15826 0.86748 0.28792 0.0
C1630 C 0.17043 0.87289 0.32346 0.0
C1631 C 0.1731 0.88768 0.34814 0.0
C1632 C 0.1639 0.89664 0.33806 0.0
C1633 C 0.18013 0.8631 0.33563 0.0
C1634 C 0.18026 0.85815 0.38018 0.0
C1635 C 0.18907 0.85839 0.30386 0.0
C1636 C 0.19073 0.86406 0.25685 0.0
C1637 C 0.19812 0.88201 0.24604 0.0
C1638 C 0.19959 0.88726 0.20165 0.0
C1639 C 0.19383 0.87469 0.16775 0.0
C1640 C 0.18664 0.85684 0.17817 0.0
C1641 C 0.18513 0.85152 0.22251 0.0
H1642 H 0.19499 0.87878 0.13341 0.0
H1643 H 0.18302 0.82843 0.56401 0.0
H1644 H 0.41179 0.1992 0.57238 0.0
H1645 H 0.38018 0.18164 0.58829 0.0
H1646 H 0.39175 0.17878 0.72626 0.0
H1647 H 0.42294 0.1945 0.70985 0.0
H1648 H 0.36547 0.15087 0.71383 0.0
H1649 H 0.37638 0.20852 0.67448 0.0
H1650 H 0.38633 0.23495 0.62765 0.0
H1651 H 0.34982 0.20342 0.52568 0.0
H1652 H 0.33979 0.17676 0.57173 0.0
H1653 H 0.2789 0.13307 0.79424 0.0
H1654 H 0.31065 0.14752 0.77753 0.0
H1655 H 0.29883 0.13194 0.64059 0.0
H1656 H 0.26748 0.11672 0.65709 0.0
H1657 H 0.32446 0.16908 0.65277 0.0
H1658 H 0.31327 0.11152 0.69975 0.0
H1659 H 0.30326 0.08678 0.75251 0.0
H1660 H 0.34088 0.12134 0.84877 0.0
H1661 H 0.35095 0.14635 0.79677 0.0
C1662 C 0.40767 0.1946 0.60599 0.0
C1663 C 0.42037 0.19893 0.63978 0.0
C1664 C 0.38938 0.18474 0.6154 0.0
C1665 C 0.38308 0.17917 0.65913 0.0
C1666 C 0.39579 0.18288 0.6923 0.0
C1667 C 0.41393 0.1923 0.68279 0.0
C1668 C 0.3635 0.16958 0.67092 0.0
C1669 C 0.35671 0.15518 0.70074 0.0
C1670 C 0.35149 0.17466 0.65411 0.0
C1671 C 0.35749 0.19063 0.62633 0.0
C1672 C 0.37056 0.20722 0.64195 0.0
C1673 C 0.3762 0.22224 0.61557 0.0
C1674 C 0.36875 0.22086 0.57366 0.0
C1675 C 0.3556 0.20446 0.55811 0.0
C1676 C 0.34993 0.18939 0.58434 0.0
C1677 C 0.28297 0.13241 0.7607 0.0
C1678 C 0.27021 0.12388 0.72707 0.0
C1679 C 0.30125 0.14086 0.75105 0.0
C1680 C 0.30734 0.14116 0.70745 0.0
C1681 C 0.29467 0.13227 0.67429 0.0
C1682 C 0.27655 0.1236 0.68397 0.0
C1683 C 0.32676 0.15073 0.69575 0.0
C1684 C 0.3334 0.165 0.66589 0.0
C1685 C 0.33872 0.14586 0.71342 0.0
C1686 C 0.33272 0.13083 0.74456 0.0
C1687 C 0.3193 0.11387 0.73232 0.0
C1688 C 0.31363 0.0998 0.76205 0.0
C1689 C 0.32139 0.1025 0.80401 0.0
C1690 C 0.33487 0.11928 0.81628 0.0
C1691 C 0.34056 0.1334 0.78668 0.0
H1692 H 0.31699 0.09159 0.82698 0.0
H1693 H 0.37313 0.2325 0.55329 0.0
H1694 H 0.87493 0.13499 0.77467 0.0
H1695 H 0.85905 0.15055 0.75514 0.0
H1696 H 0.89756 0.1795 0.65385 0.0
H1697 H 0.91364 0.16435 0.67383 0.0
H1698 H 0.88882 0.20113 0.69278 0.0
H1699 H 0.85569 0.14311 0.62996 0.0
H1700 H 0.83935 0.11059 0.63093 0.0
H1701 H 0.80211 0.11085 0.72316 0.0
H1702 H 0.81836 0.1434 0.72319 0.0
H1703 H 0.83795 0.23396 0.5827 0.0
H1704 H 0.85479 0.219 0.59868 0.0
H1705 H 0.81556 0.18589 0.69449 0.0
H1706 H 0.79847 0.20008 0.67727 0.0
H1707 H 0.8252 0.16645 0.65616 0.0
H1708 H 0.85841 0.22416 0.72128 0.0
H1709 H 0.87472 0.25669 0.72179 0.0
H1710 H 0.91166 0.25712 0.62736 0.0
H1711 H 0.89543 0.22458 0.62588 0.0
C1712 C 0.8802 0.14484 0.74868 0.0
C1713 C 0.89562 0.14816 0.72577 0.0
C1714 C 0.87094 0.15366 0.73707 0.0
C1715 C 0.87677 0.16613 0.70221 0.0
C1716 C 0.89254 0.16995 0.68059 0.0
C1717 C 0.90173 0.1611 0.69198 0.0
C1718 C 0.86642 0.17494 0.68762 0.0
C1719 C 0.87495 0.19347 0.68431 0.0
C1720 C 0.84817 0.16524 0.67702 0.0
C1721 C 0.83834 0.14568 0.67691 0.0
C1722 C 0.84408 0.13623 0.65069 0.0
C1723 C 0.83483 0.1178 0.65102 0.0
C1724 C 0.81973 0.10866 0.67718 0.0
C1725 C 0.81382 0.11794 0.70297 0.0
C1726 C 0.82304 0.13638 0.7028 0.0
C1727 C 0.83278 0.22334 0.60672 0.0
C1728 C 0.81686 0.21859 0.62907 0.0
C1729 C 0.84259 0.21487 0.61639 0.0
C1730 C 0.83685 0.20141 0.64885 0.0
C1731 C 0.8206 0.19623 0.66966 0.0
C1732 C 0.81082 0.20458 0.65994 0.0
C1733 C 0.84752 0.19271 0.66174 0.0
C1734 C 0.83906 0.17416 0.66464 0.0
C1735 C 0.8658 0.20241 0.6722 0.0
C1736 C 0.8756 0.22195 0.6731 0.0
C1737 C 0.86994 0.2312 0.70039 0.0
C1738 C 0.87918 0.24963 0.70089 0.0
C1739 C 0.89419 0.25897 0.67452 0.0
C1740 C 0.90002 0.24988 0.6477 0.0
C1741 C 0.89081 0.23144 0.64703 0.0
H1742 H 0.90133 0.27324 0.67495 0.0
H1743 H 0.81258 0.09439 0.67739 0.0
H1744 H 0.88598 0.75068 0.65908 0.0
H1745 H 0.86943 0.71932 0.64186 0.0
H1746 H 0.83678 0.71023 0.75696 0.0
H1747 H 0.85341 0.7419 0.77452 0.0
H1748 H 0.84388 0.6841 0.74972 0.0
H1749 H 0.82232 0.71069 0.64726 0.0
H1750 H 0.82464 0.73179 0.58969 0.0
H1751 H 0.84901 0.71192 0.50099 0.0
H1752 H 0.84707 0.69087 0.55829 0.0
H1753 H 0.77847 0.59723 0.69117 0.0
H1754 H 0.79393 0.62879 0.70685 0.0
H1755 H 0.82643 0.63833 0.59115 0.0
H1756 H 0.81073 0.6065 0.57496 0.0
H1757 H 0.81922 0.66428 0.59865 0.0
H1758 H 0.84119 0.63804 0.70121 0.0
H1759 H 0.83913 0.61707 0.75882 0.0
H1760 H 0.81417 0.63638 0.84727 0.0
H1761 H 0.81586 0.65732 0.78994 0.0
C1762 C 0.87517 0.74216 0.68072 0.0
C1763 C 0.87099 0.7492 0.71797 0.0
C1764 C 0.86563 0.72404 0.67069 0.0
C1765 C 0.85141 0.71213 0.69729 0.0
C1766 C 0.84754 0.71896 0.73544 0.0
C1767 C 0.85715 0.73718 0.7456 0.0
C1768 C 0.84075 0.69271 0.68515 0.0
C1769 C 0.83828 0.67984 0.71684 0.0
C1770 C 0.83367 0.68679 0.64191 0.0
C1771 C 0.8347 0.69931 0.60723 0.0
C1772 C 0.82828 0.7109 0.61558 0.0
C1773 C 0.82951 0.72284 0.58299 0.0
C1774 C 0.83701 0.72322 0.54175 0.0
C1775 C 0.84323 0.71162 0.53298 0.0
C1776 C 0.84205 0.69967 0.56549 0.0
C1777 C 0.78888 0.60598 0.66882 0.0
C1778 C 0.79338 0.59905 0.63194 0.0
C1779 C 0.79785 0.62417 0.67804 0.0
C1780 C 0.81185 0.63624 0.65108 0.0
C1781 C 0.81585 0.62949 0.61296 0.0
C1782 C 0.80676 0.61119 0.60353 0.0
C1783 C 0.82233 0.65568 0.66323 0.0
C1784 C 0.82479 0.66855 0.63154 0.0
C1785 C 0.82942 0.66161 0.70647 0.0
C1786 C 0.82851 0.64913 0.74113 0.0
C1787 C 0.83516 0.63774 0.73284 0.0
C1788 C 0.83407 0.62587 0.76546 0.0
C1789 C 0.82648 0.62536 0.80664 0.0
C1790 C 0.82002 0.63677 0.81534 0.0
C1791 C 0.82105 0.64865 0.78281 0.0
H1792 H 0.82565 0.61616 0.83185 0.0
H1793 H 0.83796 0.73248 0.51657 0.0
H1794 H 0.08542 0.55402 1.01421 0.0
H1795 H 0.05421 0.5368 0.0321 0.0
H1796 H 0.0479 0.4973 0.93707 0.0
H1797 H 0.07959 0.5145 0.91935 0.0
H1798 H 0.01967 0.50311 0.93398 0.0
H1799 H 0.04943 0.49052 0.04921 0.0
H1800 H 0.07147 0.49766 0.10837 0.0
H1801 H 0.04991 0.52463 0.18136 0.0
H1802 H 0.02789 0.51787 0.1223 0.0
H1803 H 0.93425 0.43924 1.00823 0.0
H1804 H 0.96554 0.45484 0.98952 0.0
H1805 H 0.9755 0.49262 0.09324 0.0
H1806 H 0.944 0.47673 0.11269 0.0
H1807 H 1.0021 0.48711 0.09128 0.0
H1808 H 0.97313 0.50086 0.97659 0.0
H1809 H 0.9513 0.49466 0.91743 0.0
H1810 H 0.97148 0.46665 0.84346 0.0
H1811 H 0.99328 0.47248 0.9025 0.0
C1812 C 0.07757 0.54159 0.99716 0.0
C1813 C 0.08545 0.53562 0.96581 0.0
C1814 C 0.05952 0.5317 1.00751 0.0
C1815 C 0.04846 0.51539 0.98692 0.0
C1816 C 0.056 0.50971 0.95396 0.0
C1817 C 0.07422 0.51965 0.94363 0.0
C1818 C 0.02923 0.50443 1.00044 0.0
C1819 C 0.01589 0.49938 0.9683 0.0
C1820 C 0.02396 0.49983 0.04542 0.0
C1821 C 0.0371 0.50382 0.08113 0.0
C1822 C 0.04946 0.49809 0.07772 0.0
C1823 C 0.06194 0.50205 0.11126 0.0
C1824 C 0.06211 0.51163 0.14855 0.0
C1825 C 0.04977 0.51723 0.15243 0.0
C1826 C 0.03728 0.51332 0.11895 0.0
C1827 C 0.94304 0.45086 0.02729 0.0
C1828 C 0.93632 0.45671 0.06186 0.0
C1829 C 0.96109 0.45991 0.01627 0.0
C1830 C 0.97319 0.47538 0.03887 0.0
C1831 C 0.96665 0.48086 0.07472 0.0
C1832 C 0.94854 0.47168 0.08606 0.0
C1833 C 0.99244 0.48578 0.02483 0.0
C1834 C 1.00583 0.49076 0.05691 0.0
C1835 C 0.99775 0.49042 0.97981 0.0
C1836 C 0.98472 0.48696 0.94417 0.0
C1837 C 0.97283 0.49328 0.94785 0.0
C1838 C 0.96047 0.48984 0.91432 0.0
C1839 C 0.95997 0.48023 0.87676 0.0
C1840 C 0.97186 0.47407 0.8726 0.0
C1841 C 0.98423 0.47745 0.90607 0.0
H1842 H 0.9504 0.47759 0.85084 0.0
H1843 H 0.07179 0.51468 0.17448 0.0
H1844 H 0.501 0.57516 0.02457 0.0
H1845 H 0.51646 0.55918 0.0406 0.0
H1846 H 0.49414 0.52757 0.92318 0.0
H1847 H 0.47789 0.54318 0.90785 0.0
H1848 H 0.49281 0.50669 0.98745 0.0
H1849 H 0.5396 0.56159 0.93338 0.0
H1850 H 0.5584 0.59392 0.92905 0.0
H1851 H 0.57428 0.59544 0.06468 0.0
H1852 H 0.55539 0.56313 0.07002 0.0
H1853 H 0.54826 0.46873 0.99016 0.0
H1854 H 0.53341 0.48519 0.97244 0.0
H1855 H 0.55404 0.51577 0.09203 0.0
H1856 H 0.56954 0.4996 0.10942 0.0
H1857 H 0.55635 0.53718 0.0261 0.0
H1858 H 0.50942 0.48222 0.07993 0.0
H1859 H 0.49066 0.44987 0.08394 0.0
H1860 H 0.47515 0.4485 0.94802 0.0
H1861 H 0.49401 0.48083 0.94301 0.0
C1862 C 0.49926 0.5648 1.00194 0.0
C1863 C 0.48792 0.56054 0.96486 0.0
C1864 C 0.50838 0.55571 1.01101 0.0
C1865 C 0.50682 0.5421 0.98308 0.0
C1866 C 0.49574 0.53796 0.94554 0.0
C1867 C 0.48653 0.54708 0.93644 0.0
C1868 C 0.51634 0.53201 0.99389 0.0
C1869 C 0.50678 0.51344 0.99513 0.0
C1870 C 0.53453 0.54053 1.00534 0.0
C1871 C 0.54595 0.55995 1.00221 0.0
C1872 C 0.547 0.56883 0.96238 0.0
C1873 C 0.55769 0.58715 0.95973 0.0
C1874 C 0.5675 0.59673 0.9966 0.0
C1875 C 0.56667 0.588 0.03616 0.0
C1876 C 0.55598 0.56968 0.03901 0.0
C1877 C 0.54986 0.47904 1.01279 0.0
C1878 C 0.5604 0.48276 0.05129 0.0
C1879 C 0.54108 0.48839 1.00274 0.0
C1880 C 0.54227 0.50178 0.03091 0.0
C1881 C 0.55274 0.50555 0.06948 0.0
C1882 C 0.56154 0.49613 0.07968 0.0
C1883 C 0.53282 0.51188 0.01963 0.0
C1884 C 0.54239 0.53045 0.01834 0.0
C1885 C 0.51465 0.50336 1.00805 0.0
C1886 C 0.50327 0.48393 1.01098 0.0
C1887 C 0.50212 0.475 0.0508 0.0
C1888 C 0.49145 0.45668 0.05327 0.0
C1889 C 0.48175 0.44713 0.01623 0.0
C1890 C 0.48268 0.45591 0.97667 0.0
C1891 C 0.49335 0.47423 0.97401 0.0
H1892 H 0.4735 0.43294 0.01821 0.0
H1893 H 0.57576 0.61092 0.99448 0.0
H1894 H 0.54952 0.07746 0.10206 0.0
H1895 H 0.5341 0.04603 0.08294 0.0
H1896 H 0.50401 0.055 0.98367 0.0
H1897 H 0.51891 0.08622 1.00354 0.0
H1898 H 0.48297 0.02476 0.0222 0.0
H1899 H 0.54072 0.04957 0.95821 0.0
H1900 H 0.57323 0.06586 0.95828 0.0
H1901 H 0.57355 0.0288 0.05118 0.0
H1902 H 0.54102 0.01241 0.05211 0.0
H1903 H 0.45041 0.94086 0.9131 0.0
H1904 H 0.46524 0.97268 0.9288 0.0
H1905 H 0.49821 0.96677 0.02554 0.0
H1906 H 0.4841 0.93545 1.00874 0.0
H1907 H 0.5177 0.99584 0.98597 0.0
H1908 H 0.46015 0.9714 0.05177 0.0
H1909 H 0.42764 0.9551 0.05262 0.0
H1910 H 0.42689 0.99127 0.95749 0.0
H1911 H 0.45942 1.00766 0.95567 0.0
C1912 C 0.53945 0.07277 0.07659 0.0
C1913 C 0.53574 0.08473 0.05428 0.0
C1914 C 0.53072 0.05468 0.06518 0.0
C1915 C 0.51797 0.04786 0.03098 0.0
C1916 C 0.51379 0.05966 1.00987 0.0
C1917 C 0.52251 0.07771 0.02117 0.0
C1918 C 0.50918 0.02864 0.01671 0.0
C1919 C 0.49065 0.01856 1.01378 0.0
C1920 C 0.5189 0.0201 1.0062 0.0
C1921 C 0.53844 0.02987 1.00556 0.0
C1922 C 0.54772 0.04497 0.97889 0.0
C1923 C 0.56615 0.05421 0.97871 0.0
C1924 C 0.57545 0.04839 1.0048 0.0
C1925 C 0.56633 0.0333 0.03103 0.0
C1926 C 0.5479 0.02403 0.03137 0.0
C1927 C 0.46096 0.94635 0.93731 0.0
C1928 C 0.46571 0.93523 0.96 0.0
C1929 C 0.46936 0.96464 0.94679 0.0
C1930 C 0.48277 0.97243 0.97935 0.0
C1931 C 0.48792 0.96141 1.00061 0.0
C1932 C 0.47962 0.94326 0.99113 0.0
C1933 C 0.49145 0.99186 0.99182 0.0
C1934 C 0.50999 1.00201 0.99436 0.0
C1935 C 0.48173 1.00043 1.00211 0.0
C1936 C 0.4622 0.99063 1.00323 0.0
C1937 C 0.45305 0.9758 0.03081 0.0
C1938 C 0.43462 0.96656 0.0315 0.0
C1939 C 0.4252 0.97211 1.00503 0.0
C1940 C 0.4342 0.98696 0.97791 0.0
C1941 C 0.45263 0.99624 0.97705 0.0
H1942 H 0.41094 0.96494 1.00561 0.0
H1943 H 0.58972 0.05556 1.00462 0.0
H1944 H 0.08412 0.1315 0.37077 0.0
H1945 H 0.09359 0.11817 0.42934 0.0
H1946 H 0.13884 0.16896 0.45638 0.0
H1947 H 0.12923 0.18229 0.3996 0.0
H1948 H 0.14758 0.14173 0.449 0.0
H1949 H 0.10748 0.15349 0.53297 0.0
H1950 H 0.07902 0.15157 0.54966 0.0
H1951 H 0.05345 0.09503 0.54976 0.0
H1952 H 0.08189 0.09665 0.53386 0.0
H1953 H 0.18466 0.12936 0.64385 0.0
H1954 H 0.17142 0.13888 0.5873 0.0
H1955 H 0.12166 0.09107 0.60549 0.0
H1956 H 0.13488 0.08199 0.66504 0.0
H1957 H 0.11338 0.114 0.58582 0.0
H1958 H 0.15374 0.10178 0.50747 0.0
H1959 H 0.18201 0.10346 0.48915 0.0
H1960 H 0.20656 0.15954 0.4732 0.0
H1961 H 0.17845 0.15824 0.49112 0.0
C1962 C 0.09608 0.13984 0.38916 0.0
C1963 C 0.10583 0.15809 0.37986 0.0
C1964 C 0.1015 0.13218 0.42303 0.0
C1965 C 0.11706 0.14244 0.44806 0.0
C1966 C 0.12684 0.16057 0.43816 0.0
C1967 C 0.12124 0.16823 0.40534 0.0
C1968 C 0.12353 0.13455 0.48377 0.0
C1969 C 0.1401 0.13577 0.47901 0.0
C1970 C 0.11383 0.12625 0.52287 0.0
C1971 C 0.09673 0.12518 0.53174 0.0
C1972 C 0.09575 0.14065 0.53621 0.0
C1973 C 0.07964 0.13962 0.54564 0.0
C1974 C 0.06439 0.12319 0.55029 0.0
C1975 C 0.06526 0.10775 0.54597 0.0
C1976 C 0.08139 0.10871 0.53699 0.0
C1977 C 0.17085 0.12078 0.63613 0.0
C1978 C 0.16101 0.10476 0.65945 0.0
C1979 C 0.16322 0.1262 0.60282 0.0
C1980 C 0.14547 0.11557 0.58966 0.0
C1981 C 0.1354 0.09968 0.6138 0.0
C1982 C 0.14299 0.09441 0.64821 0.0
C1983 C 0.13768 0.12127 0.55148 0.0
C1984 C 0.12087 0.11971 0.5557 0.0
C1985 C 0.14709 0.1291 0.51138 0.0
C1986 C 0.16403 0.12993 0.50101 0.0
C1987 C 0.1652 0.11448 0.50032 0.0
C1988 C 0.18118 0.11536 0.48997 0.0
C1989 C 0.19608 0.13158 0.48035 0.0
C1990 C 0.19501 0.14698 0.48076 0.0
C1991 C 0.17905 0.14618 0.49083 0.0
H1992 H 0.20843 0.13221 0.47242 0.0
H1993 H 0.05192 0.12242 0.55748 0.0
H1994 H 0.90346 0.07237 0.61469 0.0
H1995 H 0.89396 0.05027 0.55623 0.0
H1996 H 0.91131 0.02054 0.63421 0.0
H1997 H 0.92137 0.04318 0.69314 0.0
H1998 H 0.91808 0.01743 0.54982 0.0
H1999 H 0.86572 0.00854 0.62157 0.0
H2000 H 0.84468 0.01679 0.65188 0.0
H2001 H 0.83814 0.03317 0.52224 0.0
H2002 H 0.85933 0.02523 0.49125 0.0
H2003 H 0.83687 0.94084 0.41831 0.0
H2004 H 0.84953 0.96282 0.47699 0.0
H2005 H 0.8974 0.99145 0.4012 0.0
H2006 H 0.88473 0.96892 0.34219 0.0
H2007 H 0.85816 0.99425 0.48721 0.0
H2008 H 0.9326 0.01887 0.46971 0.0
H2009 H 0.95224 1.00775 0.44601 0.0
H2010 H 0.91209 0.95484 0.47751 0.0
H2011 H 0.8923 0.96566 0.50189 0.0
C2012 C 0.90534 0.06117 0.61984 0.0
C2013 C 0.91319 0.05977 0.65954 0.0
C2014 C 0.89972 0.04831 0.58597 0.0
C2015 C 0.9014 0.03317 0.59014 0.0
C2016 C 0.90963 0.03186 0.62939 0.0
C2017 C 0.91539 0.04489 0.66348 0.0
C2018 C 0.89429 0.01885 0.55396 0.0
C2019 C 0.90497 0.01246 0.53621 0.0
C2020 C 0.87703 0.01173 0.53575 0.0
C2021 C 0.86423 0.01644 0.55418 0.0
C2022 C 0.85988 0.014 0.59959 0.0
C2023 C 0.84792 0.01861 0.61688 0.0
C2024 C 0.84011 0.02554 0.58903 0.0
C2025 C 0.84422 0.02782 0.54379 0.0
C2026 C 0.85618 0.02326 0.52633 0.0
C2027 C 0.85017 0.95172 0.4138 0.0
C2028 C 0.85964 0.9528 0.37478 0.0
C2029 C 0.85746 0.96451 0.44783 0.0
C2030 C 0.87466 0.97914 0.44485 0.0
C2031 C 0.88425 0.98034 0.40573 0.0
C2032 C 0.87692 0.96739 0.37147 0.0
C2033 C 0.88202 0.99298 0.48227 0.0
C2034 C 0.87133 0.99928 0.50043 0.0
C2035 C 0.8991 0.99969 0.50138 0.0
C2036 C 0.91092 0.99306 0.48712 0.0
C2037 C 0.92799 1.00487 0.47167 0.0
C2038 C 0.93914 0.99862 0.45811 0.0
C2039 C 0.93339 0.98059 0.4601 0.0
C2040 C 0.9165 0.96879 0.47582 0.0
C2041 C 0.9053 0.97497 0.48946 0.0
H2042 H 0.94204 0.97578 0.44956 0.0
H2043 H 0.83086 0.0291 0.60248 0.0
H2044 H 0.05723 0.93084 0.35948 0.0
H2045 H 0.03478 0.92159 0.41881 0.0
H2046 H 0.04203 0.87763 0.44965 0.0
H2047 H 0.06473 0.88712 0.3921 0.0
H2048 H 1.00469 0.86878 0.44301 0.0
H2049 H 0.05923 0.91031 0.5166 0.0
H2050 H 0.08583 0.93945 0.52645 0.0
H2051 H 0.05361 0.96335 0.5408 0.0
H2052 H 0.02681 0.93437 0.53036 0.0
H2053 H 0.95797 0.83313 0.64131 0.0
H2054 H 0.98021 0.84596 0.58335 0.0
H2055 H 0.98353 0.89629 0.60313 0.0
H2056 H 0.9617 0.88345 0.66381 0.0
H2057 H 0.01442 0.90388 0.58008 0.0
H2058 H 0.9605 0.86529 0.50936 0.0
H2059 H 0.9325 0.83783 0.49526 0.0
H2060 H 0.96084 0.8106 0.46801 0.0
H2061 H 0.98902 0.83786 0.48256 0.0
C2062 C 0.05402 0.91917 0.37876 0.0
C2063 C 0.06299 0.90981 0.37043 0.0
C2064 C 0.04114 0.91388 0.41304 0.0
C2065 C 0.03645 0.89878 0.43948 0.0
C2066 C 0.04515 0.88927 0.43032 0.0
C2067 C 0.05827 0.89479 0.39709 0.0
C2068 C 0.02269 0.89278 0.47661 0.0
C2069 C 1.00695 0.87643 0.4731 0.0
C2070 C 0.02496 0.90284 0.51568 0.0
C2071 C 0.04104 0.92021 0.52218 0.0
C2072 C 0.05783 0.92181 0.52143 0.0
C2073 C 0.07294 0.93829 0.52721 0.0
C2074 C 0.07142 0.95325 0.53411 0.0
C2075 C 0.05477 0.95175 0.53537 0.0
C2076 C 0.03962 0.9353 0.52955 0.0
C2077 C 0.96344 0.84699 0.63374 0.0
C2078 C 0.95776 0.8571 0.65775 0.0
C2079 C 0.97619 0.85439 0.5997 0.0
C2080 C 0.98351 0.87217 0.58655 0.0
C2081 C 0.97825 0.88252 0.61147 0.0
C2082 C 0.96566 0.87515 0.64654 0.0
C2083 C 0.9964 0.87959 0.54707 0.0
C2084 C 0.01199 0.89619 0.55001 0.0
C2085 C 0.99376 0.86999 0.50671 0.0
C2086 C 0.97687 0.85359 0.49743 0.0
C2087 C 0.96076 0.85343 0.5006 0.0
C2088 C 0.94485 0.8379 0.49253 0.0
C2089 C 0.94489 0.82247 0.48087 0.0
C2090 C 0.96083 0.82256 0.4771 0.0
C2091 C 0.97678 0.83805 0.48521 0.0
H2092 H 0.93256 0.81046 0.47467 0.0
H2093 H 0.08313 0.966 0.53858 0.0
H2094 H 0.86056 0.79999 0.6578 0.0
H2095 H 0.83846 0.78786 0.5989 0.0
H2096 H 0.83722 0.83643 0.59455 0.0
H2097 H 0.85935 0.84861 0.65325 0.0
H2098 H 0.80466 0.8011 0.55527 0.0
H2099 H 0.87464 0.84624 0.53321 0.0
H2100 H 0.90369 0.85122 0.55801 0.0
H2101 H 0.88519 0.79577 0.5471 0.0
H2102 H 0.8561 0.79054 0.52185 0.0
H2103 H 0.82415 0.86949 0.42223 0.0
H2104 H 0.81714 0.84447 0.46978 0.0
H2105 H 0.84248 0.82656 0.37691 0.0
H2106 H 0.8504 0.8525 0.33036 0.0
H2107 H 0.85485 0.82707 0.44971 0.0
H2108 H 0.79619 0.79916 0.40946 0.0
H2109 H 0.76726 0.79484 0.38686 0.0
H2110 H 0.76096 0.81263 0.51476 0.0
H2111 H 0.78996 0.81738 0.53799 0.0
C2112 C 0.8548 0.80769 0.64614 0.0
C2113 C 0.86194 0.82543 0.65899 0.0
C2114 C 0.84209 0.80067 0.6126 0.0
C2115 C 0.83653 0.81139 0.59191 0.0
C2116 C 0.84139 0.82796 0.61017 0.0
C2117 C 0.85418 0.83502 0.6433 0.0
C2118 C 0.83184 0.809 0.54444 0.0
C2119 C 0.81531 0.80623 0.5313 0.0
C2120 C 0.84561 0.81485 0.51296 0.0
C2121 C 0.86331 0.81803 0.52556 0.0
C2122 C 0.87688 0.83517 0.53565 0.0
C2123 C 0.89331 0.83802 0.5499 0.0
C2124 C 0.89628 0.82382 0.55416 0.0
C2125 C 0.88288 0.80676 0.54377 0.0
C2126 C 0.86644 0.80384 0.52936 0.0
C2127 C 0.82789 0.86 0.41161 0.0
C2128 C 0.83796 0.86294 0.37312 0.0
C2129 C 0.82363 0.84547 0.43844 0.0
C2130 C 0.82891 0.83326 0.4267 0.0
C2131 C 0.83817 0.8357 0.38671 0.0
C2132 C 0.84282 0.85055 0.36035 0.0
C2133 C 0.82779 0.82035 0.46047 0.0
C2134 C 0.84347 0.82056 0.47138 0.0
C2135 C 0.81295 0.81147 0.48887 0.0
C2136 C 0.79532 0.80855 0.47557 0.0
C2137 C 0.78869 0.80222 0.43279 0.0
C2138 C 0.77225 0.7997 0.41984 0.0
C2139 C 0.76226 0.80343 0.44938 0.0
C2140 C 0.76868 0.80968 0.49196 0.0
C2141 C 0.78511 0.81223 0.5051 0.0
H2142 H 0.74955 0.80148 0.43926 0.0
H2143 H 0.90896 0.82604 0.56552 0.0
H2144 H 0.16171 1.00302 0.30629 0.0
H2145 H 0.18863 0.02465 0.34459 0.0
H2146 H 0.18232 0.9842 0.43743 0.0
H2147 H 0.15644 0.96271 0.3974 0.0
H2148 H 0.18525 0.03448 0.41694 0.0
H2149 H 0.21263 0.99211 0.50474 0.0
H2150 H 0.22535 0.97391 0.48129 0.0
H2151 H 0.23768 0.99896 0.35343 0.0
H2152 H 0.22533 0.01758 0.37624 0.0
H2153 H 0.16723 0.02191 0.62494 0.0
H2154 H 0.177 0.01386 0.55813 0.0
H2155 H 0.22842 0.06001 0.5709 0.0
H2156 H 0.2191 0.06785 0.63951 0.0
H2157 H 0.22116 0.02201 0.52249 0.0
H2158 H 0.21376 0.0735 0.51287 0.0
H2159 H 0.19977 0.08997 0.54154 0.0
H2160 H 0.14869 0.04662 0.50835 0.0
H2161 H 0.16237 0.02979 0.48029 0.0
C2162 C 0.16659 0.99879 0.33397 0.0
C2163 C 0.15696 0.98142 0.34977 0.0
C2164 C 0.182 0.01105 0.35561 0.0
C2165 C 0.1876 1.00622 0.39426 0.0
C2166 C 0.17876 0.98839 0.40726 0.0
C2167 C 0.16371 0.97607 0.38481 0.0
C2168 C 0.19883 0.01981 0.42737 0.0
C2169 C 0.1938 0.03224 0.43874 0.0
C2170 C 0.21039 0.01745 0.45587 0.0
C2171 C 0.21809 1.00637 0.44237 0.0
C2172 C 0.21825 0.99396 0.47181 0.0
C2173 C 0.22534 0.98349 0.45855 0.0
C2174 C 0.23233 0.98529 0.41592 0.0
C2175 C 0.23225 0.99757 0.38644 0.0
C2176 C 0.22518 0.00807 0.39951 0.0
C2177 C 0.18083 0.03002 0.6149 0.0
C2178 C 0.19213 0.04591 0.63673 0.0
C2179 C 0.18644 0.02532 0.57676 0.0
C2180 C 0.20333 0.0365 0.55958 0.0
C2181 C 0.21534 0.05127 0.58382 0.0
C2182 C 0.2098 0.0559 0.62247 0.0
C2183 C 0.20613 0.03495 0.51208 0.0
C2184 C 0.21372 0.02494 0.49861 0.0
C2185 C 0.19728 0.0398 0.48093 0.0
C2186 C 0.18911 0.05042 0.49444 0.0
C2187 C 0.19955 0.06752 0.51159 0.0
C2188 C 0.19167 0.07688 0.52789 0.0
C2189 C 0.17335 0.06931 0.52689 0.0
C2190 C 0.16288 0.05246 0.50912 0.0
C2191 C 0.1707 0.04302 0.49292 0.0
H2192 H 0.16725 0.07651 0.53985 0.0
H2193 H 0.2378 0.97716 0.40572 0.0
H2194 H 1.00862 0.15423 0.71996 0.0
H2195 H 0.03047 0.18106 0.68178 0.0
H2196 H 0.98879 0.1798 0.60192 0.0
H2197 H 0.96725 0.15401 0.64192 0.0
H2198 H 0.03778 0.17879 0.6059 0.0
H2199 H 0.99688 0.21209 0.54154 0.0
H2200 H 0.98141 0.22619 0.57503 0.0
H2201 H 1.01001 0.23406 0.69666 0.0
H2202 H 0.02593 0.22029 0.66377 0.0
H2203 H 0.022 0.16548 0.4008 0.0
H2204 H 0.01434 0.17503 0.46865 0.0
H2205 H 0.06176 0.22564 0.45925 0.0
H2206 H 0.06911 0.21664 0.38952 0.0
H2207 H 0.0255 0.21892 0.51587 0.0
H2208 H 0.07552 0.20895 0.5104 0.0
H2209 H 0.09045 0.19513 0.47198 0.0
H2210 H 0.04591 0.14383 0.49679 0.0
H2211 H 0.03062 0.15738 0.53471 0.0
C2212 C 1.00423 0.16018 0.69525 0.0
C2213 C 0.98641 0.152 0.68302 0.0
C2214 C 0.01665 0.17555 0.67368 0.0
C2215 C 1.01144 0.18256 0.63861 0.0
C2216 C 0.99334 0.17515 0.62941 0.0
C2217 C 0.98094 0.16015 0.65185 0.0
C2218 C 0.02437 0.19392 0.60442 0.0
C2219 C 0.03566 0.18823 0.58758 0.0
C2220 C 0.0222 0.20666 0.58038 0.0
C2221 C 0.01272 0.21517 0.59999 0.0
C2222 C 1.00008 0.21701 0.57523 0.0
C2223 C 0.99116 0.22489 0.5942 0.0
C2224 C 0.99473 0.23103 0.63792 0.0
C2225 C 1.00724 0.22929 0.66279 0.0
C2226 C 0.0162 0.22141 0.64401 0.0
C2227 C 0.03041 0.17893 0.41168 0.0
C2228 C 0.04663 0.18995 0.39095 0.0
C2229 C 0.02592 0.18445 0.45038 0.0
C2230 C 0.03772 0.20087 0.46916 0.0
C2231 C 0.05257 0.21289 0.44522 0.0
C2232 C 0.05694 0.20749 0.40596 0.0
C2233 C 0.03723 0.20249 0.51763 0.0
C2234 C 0.02842 0.21053 0.53641 0.0
C2235 C 0.04221 0.19248 0.54444 0.0
C2236 C 0.05197 0.18419 0.52543 0.0
C2237 C 0.06897 0.19472 0.50785 0.0
C2238 C 0.07745 0.18694 0.48599 0.0
C2239 C 0.06911 0.16862 0.48181 0.0
C2240 C 0.05234 0.15802 0.49998 0.0
C2241 C 0.04379 0.16574 0.5218 0.0
H2242 H 0.07565 0.16262 0.46466 0.0
H2243 H 0.98779 0.23712 0.65254 0.0
H2244 H 0.76417 0.46589 0.67784 0.0
H2245 H 0.77324 0.45249 0.73693 0.0
H2246 H 0.79823 0.50195 0.80725 0.0
H2247 H 0.78905 0.51511 0.7494 0.0
H2248 H 0.80264 0.4564 0.77051 0.0
H2249 H 0.79958 0.49743 0.91815 0.0
H2250 H 0.78237 0.51134 0.94151 0.0
H2251 H 0.73894 0.47497 0.86051 0.0
H2252 H 0.75579 0.4607 0.83714 0.0
H2253 H 0.85251 0.45096 0.95019 0.0
H2254 H 0.83943 0.46021 0.89232 0.0
H2255 H 0.79017 0.43592 0.96336 0.0
H2256 H 0.80351 0.42681 0.02251 0.0
H2257 H 0.79415 0.46516 0.92937 0.0
H2258 H 0.79809 0.41803 0.86282 0.0
H2259 H 0.81218 0.40103 0.83933 0.0
H2260 H 0.84858 0.44433 0.75811 0.0
H2261 H 0.83486 0.4617 0.78159 0.0
C2262 C 0.77151 0.4739 0.70598 0.0
C2263 C 0.77566 0.49169 0.70829 0.0
C2264 C 0.77681 0.4662 0.74003 0.0
C2265 C 0.78632 0.47592 0.77796 0.0
C2266 C 0.79061 0.49374 0.77967 0.0
C2267 C 0.78537 0.50137 0.7459 0.0
C2268 C 0.79196 0.46779 0.81532 0.0
C2269 C 0.80075 0.45841 0.80514 0.0
C2270 C 0.78934 0.46975 0.86129 0.0
C2271 C 0.77903 0.47811 0.87559 0.0
C2272 C 0.78633 0.49235 0.90548 0.0
C2273 C 0.77664 0.50031 0.91869 0.0
C2274 C 0.7596 0.49408 0.9024 0.0
C2275 C 0.75217 0.47983 0.87299 0.0
C2276 C 0.76179 0.47181 0.85971 0.0
C2277 C 0.83884 0.44744 0.95384 0.0
C2278 C 0.82919 0.43792 0.99168 0.0
C2279 C 0.83124 0.45272 0.92005 0.0
C2280 C 0.8135 0.44864 0.92195 0.0
C2281 C 0.80382 0.43933 0.96009 0.0
C2282 C 0.81148 0.43401 0.99419 0.0
C2283 C 0.8054 0.45432 0.88457 0.0
C2284 C 0.79611 0.4632 0.89474 0.0
C2285 C 0.80727 0.45163 0.8386 0.0
C2286 C 0.81553 0.44122 0.82426 0.0
C2287 C 0.80917 0.42397 0.84017 0.0
C2288 C 0.81708 0.41426 0.82683 0.0
C2289 C 0.83129 0.42161 0.79733 0.0
C2290 C 0.83759 0.43867 0.78101 0.0
C2291 C 0.82973 0.44844 0.79428 0.0
H2292 H 0.8374 0.41407 0.78704 0.0
H2293 H 0.75213 0.50027 0.91264 0.0
H2294 H 0.60353 0.3917 1.00134 0.0
H2295 H 0.59443 0.36915 0.94223 0.0
H2296 H 0.54784 0.37271 0.91855 0.0
H2297 H 0.5571 0.39544 0.97594 0.0
H2298 H 0.54088 0.33684 0.92239 0.0
H2299 H 0.58029 0.39166 0.84872 0.0
H2300 H 0.60875 0.41904 0.83851 0.0
H2301 H 0.63451 0.38875 0.81945 0.0
H2302 H 0.60623 0.36119 0.83043 0.0
H2303 H 0.50474 0.2897 0.72478 0.0
H2304 H 0.51754 0.31209 0.78239 0.0
H2305 H 0.56819 0.31643 0.76076 0.0
H2306 H 0.55536 0.29442 0.70039 0.0
H2307 H 0.57517 0.34739 0.78355 0.0
H2308 H 0.5377 0.29301 0.85572 0.0
H2309 H 0.51055 0.26485 0.87099 0.0
H2310 H 0.48287 0.29267 0.89897 0.0
H2311 H 0.50979 0.32099 0.8833 0.0
C2312 C 0.59129 0.3876 0.98379 0.0
C2313 C 0.58109 0.39554 0.99403 0.0
C2314 C 0.58609 0.37469 0.94958 0.0
C2315 C 0.57032 0.36898 0.92514 0.0
C2316 C 0.56001 0.37663 0.93632 0.0
C2317 C 0.56539 0.38976 0.96947 0.0
C2318 C 0.56443 0.35526 0.88793 0.0
C2319 C 0.54836 0.33928 0.89193 0.0
C2320 C 0.57424 0.35783 0.84823 0.0
C2321 C 0.59118 0.37437 0.84092 0.0
C2322 C 0.59205 0.39084 0.84275 0.0
C2323 C 0.60814 0.40639 0.83676 0.0
C2324 C 0.62344 0.40563 0.82845 0.0
C2325 C 0.62266 0.38932 0.82597 0.0
C2326 C 0.6066 0.37372 0.83207 0.0
C2327 C 0.51866 0.29539 0.7319 0.0
C2328 C 0.52884 0.28991 0.70749 0.0
C2329 C 0.52604 0.30825 0.76572 0.0
C2330 C 0.54392 0.31591 0.77826 0.0
C2331 C 0.55435 0.31086 0.75293 0.0
C2332 C 0.54697 0.29816 0.71806 0.0
C2333 C 0.55134 0.3289 0.81756 0.0
C2334 C 0.56768 0.34479 0.81402 0.0
C2335 C 0.54195 0.3261 0.85831 0.0
C2336 C 0.52573 0.30911 0.86796 0.0
C2337 C 0.52579 0.29311 0.86488 0.0
C2338 C 0.51045 0.27712 0.87363 0.0
C2339 C 0.49498 0.27697 0.88584 0.0
C2340 C 0.49485 0.29281 0.88946 0.0
C2341 C 0.51015 0.30884 0.88069 0.0
H2342 H 0.48312 0.26457 0.89259 0.0
H2343 H 0.63589 0.41769 0.82384 0.0
H2344 H 0.61374 0.16671 0.94784 0.0
H2345 H 0.6363 0.17938 0.89025 0.0
H2346 H 0.66182 0.22875 0.96103 0.0
H2347 H 0.63919 0.21586 0.01961 0.0
H2348 H 0.6465 0.20297 0.83046 0.0
H2349 H 0.70617 0.25273 0.93442 0.0
H2350 H 0.71744 0.25664 1.01117 0.0
H2351 H 0.68839 0.20057 0.03111 0.0
H2352 H 0.67713 0.19633 0.95434 0.0
H2353 H 0.71758 0.25358 0.67484 0.0
H2354 H 0.69505 0.24457 0.73353 0.0
H2355 H 0.72052 0.22135 0.80723 0.0
H2356 H 0.74296 0.23054 0.74969 0.0
H2357 H 0.71031 0.23506 0.86548 0.0
H2358 H 0.67963 0.19693 0.74276 0.0
H2359 H 0.66845 0.18956 0.66598 0.0
H2360 H 0.63955 0.21684 0.6837 0.0
H2361 H 0.65075 0.22456 0.76045 0.0
C2362 C 0.62413 0.18029 0.95155 0.0
C2363 C 0.62441 0.19008 0.98923 0.0
C2364 C 0.63716 0.18764 0.918 0.0
C2365 C 0.65125 0.20518 0.92034 0.0
C2366 C 0.65149 0.21512 0.95784 0.0
C2367 C 0.63838 0.20772 0.99162 0.0
C2368 C 0.66544 0.21269 0.88378 0.0
C2369 C 0.66043 0.2101 0.83851 0.0
C2370 C 0.68388 0.22186 0.89277 0.0
C2371 C 0.69064 0.22425 0.93884 0.0
C2372 C 0.70222 0.24124 0.95518 0.0
C2373 C 0.70861 0.24352 0.99867 0.0
C2374 C 0.70358 0.22887 0.02605 0.0
C2375 C 0.69221 0.21191 1.00993 0.0
C2376 C 0.68581 0.20957 0.96645 0.0
C2377 C 0.71843 0.24661 0.70358 0.0
C2378 C 0.73232 0.24285 0.70673 0.0
C2379 C 0.70535 0.24128 0.73739 0.0
C2380 C 0.70558 0.23191 0.77566 0.0
C2381 C 0.71966 0.22849 0.77885 0.0
C2382 C 0.73262 0.23376 0.74531 0.0
C2383 C 0.69137 0.22549 0.81215 0.0
C2384 C 0.69638 0.22818 0.85741 0.0
C2385 C 0.67293 0.21611 0.80316 0.0
C2386 C 0.66618 0.21149 0.75713 0.0
C2387 C 0.67099 0.20146 0.73016 0.0
C2388 C 0.66464 0.19721 0.68668 0.0
C2389 C 0.65334 0.20277 0.66993 0.0
C2390 C 0.64833 0.21256 0.69669 0.0
C2391 C 0.65467 0.21688 0.74018 0.0
H2392 H 0.64843 0.19946 0.63626 0.0
H2393 H 0.70853 0.23066 0.05972 0.0
H2394 H 0.53533 0.19605 0.99802 0.0
H2395 H 0.50902 0.18713 0.95467 0.0
H2396 H 0.49495 0.1325 0.96814 0.0
H2397 H 0.52211 0.14158 1.00918 0.0
H2398 H 0.4965 0.1382 0.88847 0.0
H2399 H 0.46288 0.14657 0.98989 0.0
H2400 H 0.45409 0.15797 0.05385 0.0
H2401 H 0.47199 0.20724 0.98644 0.0
H2402 H 0.48121 0.19636 0.92242 0.0
H2403 H 0.4725 0.1923 0.71929 0.0
H2404 H 0.46167 0.16996 0.77781 0.0
H2405 H 0.51466 0.1802 0.79971 0.0
H2406 H 0.52559 0.20267 0.74255 0.0
H2407 H 0.46999 0.17592 0.86318 0.0
H2408 H 0.51706 0.14693 0.82811 0.0
H2409 H 0.5242 0.13406 0.76429 0.0
H2410 H 0.47567 0.1225 0.70091 0.0
H2411 H 0.46804 0.13502 0.76469 0.0
C2412 C 0.52651 0.18211 0.99247 0.0
C2413 C 0.5312 0.16964 1.00564 0.0
C2414 C 0.51111 0.1769 0.96846 0.0
C2415 C 0.49984 0.15904 0.95777 0.0
C2416 C 0.50342 0.14635 0.97567 0.0
C2417 C 0.51902 0.1516 0.99925 0.0
C2418 C 0.48771 0.15471 0.91936 0.0
C2419 C 0.49028 0.14608 0.88323 0.0
C2420 C 0.47821 0.16369 0.91268 0.0
C2421 C 0.47261 0.17051 0.95094 0.0
C2422 C 0.46499 0.15986 0.98864 0.0
C2423 C 0.45994 0.16625 0.025 0.0
C2424 C 0.46243 0.18329 0.02415 0.0
C2425 C 0.46999 0.194 0.98695 0.0
C2426 C 0.47506 0.18769 0.95049 0.0
C2427 C 0.48186 0.18976 0.73645 0.0
C2428 C 0.50003 0.19954 0.72661 0.0
C2429 C 0.47556 0.17682 0.76951 0.0
C2430 C 0.48728 0.17322 0.79265 0.0
C2431 C 0.50526 0.18239 0.78147 0.0
C2432 C 0.51156 0.19537 0.7488 0.0
C2433 C 0.48174 0.16201 0.83285 0.0
C2434 C 0.47543 0.16737 0.86897 0.0
C2435 C 0.48739 0.14966 0.83966 0.0
C2436 C 0.49189 0.14183 0.80152 0.0
C2437 C 0.50776 0.14144 0.80092 0.0
C2438 C 0.51194 0.13426 0.7646 0.0
C2439 C 0.50038 0.12744 0.72861 0.0
C2440 C 0.48461 0.12779 0.72883 0.0
C2441 C 0.48036 0.13494 0.76505 0.0
H2442 H 0.50366 0.12191 0.70051 0.0
H2443 H 0.45853 0.18822 0.05236 0.0
H2444 H 0.83769 0.34614 0.05176 0.0
H2445 H 0.84392 0.32594 1.00936 0.0
H2446 H 0.87204 0.3671 0.91231 0.0
H2447 H 0.86689 0.38721 0.95613 0.0
H2448 H 0.82965 0.31378 0.94006 0.0
H2449 H 0.89485 0.36283 0.84021 0.0
H2450 H 0.92574 0.38407 0.85854 0.0
H2451 H 0.91953 0.35976 0.98613 0.0
H2452 H 0.88864 0.33811 0.96841 0.0
H2453 H 0.81553 0.32518 0.73577 0.0
H2454 H 0.83397 0.33396 0.80189 0.0
H2455 H 0.84843 0.29449 0.77514 0.0
H2456 H 0.83042 0.28596 0.70761 0.0
H2457 H 0.87568 0.33246 0.82379 0.0
H2458 H 0.82283 0.27693 0.83822 0.0
H2459 H 0.79203 0.25547 0.81871 0.0
H2460 H 0.77538 0.29081 0.86814 0.0
H2461 H 0.80613 0.31263 0.88708 0.0
C2462 C 0.84566 0.35085 0.02201 0.0
C2463 C 0.8516 0.36802 1.00651 0.0
C2464 C 0.84935 0.33941 0.99798 0.0
C2465 C 0.85852 0.34486 0.95742 0.0
C2466 C 0.86546 0.3625 0.94396 0.0
C2467 C 0.86225 0.37401 0.96863 0.0
C2468 C 0.85702 0.3317 0.92398 0.0
C2469 C 0.84001 0.3175 0.91568 0.0
C2470 C 0.87057 0.33577 0.89249 0.0
C2471 C 0.88934 0.34869 0.9028 0.0
C2472 C 0.90007 0.36179 0.87195 0.0
C2473 C 0.9176 0.37398 0.88233 0.0
C2474 C 0.9246 0.37325 0.92344 0.0
C2475 C 0.91408 0.36032 0.95429 0.0
C2476 C 0.89655 0.34809 0.94411 0.0
C2477 C 0.82315 0.31883 0.74275 0.0
C2478 C 0.82108 0.30452 0.71725 0.0
C2479 C 0.83371 0.32387 0.78054 0.0
C2480 C 0.84227 0.31465 0.79339 0.0
C2481 C 0.84183 0.30167 0.7656 0.0
C2482 C 0.83133 0.29667 0.72751 0.0
C2483 C 0.84823 0.3164 0.83966 0.0
C2484 C 0.86588 0.32822 0.84991 0.0
C2485 C 0.83547 0.30974 0.87369 0.0
C2486 C 0.8168 0.2964 0.86411 0.0
C2487 C 0.8126 0.28013 0.84483 0.0
C2488 C 0.79515 0.26792 0.83382 0.0
C2489 C 0.78175 0.27177 0.8422 0.0
C2490 C 0.78577 0.28783 0.86173 0.0
C2491 C 0.80321 0.30012 0.87269 0.0
H2492 H 0.76825 0.26231 0.83356 0.0
H2493 H 0.93816 0.38272 0.93141 0.0
H2494 H 0.62534 0.49508 1.00122 0.0
H2495 H 0.6375 0.51809 0.94465 0.0
H2496 H 0.68522 0.51527 0.94245 0.0
H2497 H 0.67315 0.49231 0.99908 0.0
H2498 H 0.68535 0.54961 0.90391 0.0
H2499 H 0.65772 0.47948 0.87496 0.0
H2500 H 0.63308 0.45047 0.89788 0.0
H2501 H 0.59773 0.47107 0.89437 0.0
H2502 H 0.62214 0.50011 0.87061 0.0
H2503 H 0.73085 0.52748 0.76344 0.0
H2504 H 0.71433 0.53524 0.81434 0.0
H2505 H 0.67055 0.51413 0.72238 0.0
H2506 H 0.68702 0.50546 0.67227 0.0
H2507 H 0.65889 0.50054 0.79501 0.0
H2508 H 0.69265 0.55991 0.75942 0.0
H2509 H 0.71865 0.58824 0.73895 0.0
H2510 H 0.7421 0.59071 0.86592 0.0
H2511 H 0.71642 0.56227 0.88699 0.0
C2512 C 0.63884 0.50012 0.99069 0.0
C2513 C 0.64817 0.49157 1.00323 0.0
C2514 C 0.6458 0.51337 0.95847 0.0
C2515 C 0.66202 0.51799 0.93872 0.0
C2516 C 0.67261 0.51178 0.95724 0.0
C2517 C 0.66564 0.4985 0.98916 0.0
C2518 C 0.66496 0.52295 0.89148 0.0
C2519 C 0.67937 0.53922 0.87928 0.0
C2520 C 0.6566 0.5095 0.8593 0.0
C2521 C 0.64169 0.49188 0.87111 0.0
C2522 C 0.64464 0.47773 0.87863 0.0
C2523 C 0.63074 0.46131 0.89182 0.0
C2524 C 0.61386 0.45894 0.89768 0.0
C2525 C 0.61081 0.47293 0.88982 0.0
C2526 C 0.62464 0.48934 0.87631 0.0
C2527 C 0.71784 0.52484 0.75379 0.0
C2528 C 0.71006 0.51572 0.71442 0.0
C2529 C 0.70845 0.52954 0.78256 0.0
C2530 C 0.69124 0.52565 0.77197 0.0
C2531 C 0.68382 0.51737 0.73126 0.0
C2532 C 0.69311 0.51227 0.70289 0.0
C2533 C 0.68016 0.52707 0.80719 0.0
C2534 C 0.66429 0.51172 0.81752 0.0
C2535 C 0.68695 0.54161 0.83685 0.0
C2536 C 0.70248 0.55891 0.82487 0.0
C2537 C 0.70336 0.56645 0.78298 0.0
C2538 C 0.71807 0.58254 0.77125 0.0
C2539 C 0.732 0.59128 0.80114 0.0
C2540 C 0.73126 0.58395 0.84286 0.0
C2541 C 0.71658 0.56786 0.85478 0.0
H2542 H 0.74339 0.60372 0.79196 0.0
H2543 H 0.60316 0.44627 0.90829 0.0
H2544 H 0.47806 0.77575 0.36165 0.0
H2545 H 0.46595 0.78654 0.30401 0.0
H2546 H 0.49587 0.77729 0.20461 0.0
H2547 H 0.50898 0.76805 0.26267 0.0
H2548 H 0.49681 0.80294 0.176 0.0
H2549 H 0.44476 0.75153 0.22668 0.0
H2550 H 0.42241 0.73135 0.28013 0.0
H2551 H 0.41079 0.77189 0.31635 0.0
H2552 H 0.43321 0.79237 0.26345 0.0
H2553 H 0.44458 0.80794 0.9914 0.0
H2554 H 0.45448 0.79506 0.05005 0.0
H2555 H 0.44946 0.82827 0.14739 0.0
H2556 H 0.44035 0.84159 0.08898 0.0
H2557 H 0.43496 0.79012 0.17494 0.0
H2558 H 0.488 0.8406 0.11797 0.0
H2559 H 0.50877 0.85804 0.05841 0.0
H2560 H 0.51632 0.81444 0.02685 0.0
H2561 H 0.49536 0.79665 0.08582 0.0
C2562 C 0.48191 0.77583 0.32744 0.0
C2563 C 0.49448 0.77077 0.31732 0.0
C2564 C 0.47481 0.78196 0.29385 0.0
C2565 C 0.47943 0.78264 0.24834 0.0
C2566 C 0.49183 0.77724 0.2386 0.0
C2567 C 0.49931 0.7717 0.27221 0.0
C2568 C 0.47203 0.78934 0.21118 0.0
C2569 C 0.48314 0.7997 0.17599 0.0
C2570 C 0.45423 0.78576 0.20958 0.0
C2571 C 0.44079 0.77353 0.24148 0.0
C2572 C 0.43751 0.75617 0.24626 0.0
C2573 C 0.42482 0.74467 0.27642 0.0
C2574 C 0.41522 0.75035 0.30172 0.0
C2575 C 0.41826 0.76752 0.2968 0.0
C2576 C 0.43094 0.77907 0.26671 0.0
C2577 C 0.4454 0.81239 0.02532 0.0
C2578 C 0.44151 0.82586 0.03496 0.0
C2579 C 0.45117 0.80503 0.05909 0.0
C2580 C 0.45281 0.81053 0.10393 0.0
C2581 C 0.44836 0.82357 0.11361 0.0
C2582 C 0.44311 0.83125 0.07983 0.0
C2583 C 0.45969 0.80331 0.14039 0.0
C2584 C 0.44854 0.79304 0.17529 0.0
C2585 C 0.47726 0.8065 0.14108 0.0
C2586 C 0.48997 0.81723 0.10596 0.0
C2587 C 0.49396 0.83468 0.09806 0.0
C2588 C 0.5058 0.84464 0.06447 0.0
C2589 C 0.51382 0.83733 0.03877 0.0
C2590 C 0.51007 0.82007 0.04673 0.0
C2591 C 0.49823 0.81005 0.08025 0.0
H2592 H 0.52298 0.84506 1.01277 0.0
H2593 H 0.40541 0.74143 0.32505 0.0
H2594 H 0.26854 0.72377 0.33033 0.0
H2595 H 0.25911 0.70137 0.27076 0.0
H2596 H 0.21427 0.70759 0.24379 0.0
H2597 H 0.22391 0.73023 0.30155 0.0
H2598 H 0.20606 0.67065 0.24953 0.0
H2599 H 0.24634 0.7252 0.1748 0.0
H2600 H 0.27513 0.75207 0.16344 0.0
H2601 H 0.29964 0.72054 0.14603 0.0
H2602 H 0.27101 0.69347 0.15797 0.0
H2603 H 0.16922 0.62279 0.05268 0.0
H2604 H 0.18207 0.64514 0.11044 0.0
H2605 H 0.2329 0.65016 0.08667 0.0
H2606 H 0.22004 0.62833 0.02603 0.0
H2607 H 0.24004 0.68052 0.11047 0.0
H2608 H 0.20236 0.62651 0.18314 0.0
H2609 H 0.17518 0.59849 0.19925 0.0
H2610 H 0.1479 0.62667 0.22773 0.0
H2611 H 0.17486 0.65486 0.21122 0.0
C2612 C 0.25664 0.72034 0.31185 0.0
C2613 C 0.24706 0.72901 0.32133 0.0
C2614 C 0.25125 0.7075 0.27742 0.0
C2615 C 0.23585 0.70254 0.25199 0.0
C2616 C 0.22614 0.71093 0.26231 0.0
C2617 C 0.23175 0.72401 0.29567 0.0
C2618 C 0.22968 0.68875 0.21486 0.0
C2619 C 0.21346 0.67294 0.219 0.0
C2620 C 0.23941 0.69109 0.17516 0.0
C2621 C 0.25658 0.70733 0.16781 0.0
C2622 C 0.2579 0.724 0.16899 0.0
C2623 C 0.27418 0.73927 0.16235 0.0
C2624 C 0.28922 0.73802 0.15416 0.0
C2625 C 0.28799 0.72149 0.15246 0.0
C2626 C 0.27173 0.70618 0.15914 0.0
C2627 C 0.18319 0.62864 0.05938 0.0
C2628 C 0.19343 0.62344 0.03422 0.0
C2629 C 0.1906 0.64145 0.09334 0.0
C2630 C 0.20857 0.6493 0.10535 0.0
C2631 C 0.21901 0.64448 0.07931 0.0
C2632 C 0.21161 0.63188 0.04427 0.0
C2633 C 0.21612 0.66232 0.1446 0.0
C2634 C 0.23259 0.67804 0.14096 0.0
C2635 C 0.20684 0.65969 0.18549 0.0
C2636 C 0.19059 0.64279 0.19555 0.0
C2637 C 0.19053 0.62673 0.19257 0.0
C2638 C 0.17517 0.61081 0.2018 0.0
C2639 C 0.15982 0.6108 0.2144 0.0
C2640 C 0.1598 0.6267 0.21791 0.0
C2641 C 0.17512 0.64266 0.20867 0.0
H2642 H 0.14794 0.59846 0.22152 0.0
H2643 H 0.30181 0.74985 0.14901 0.0
H2644 H 0.27956 0.5011 0.27798 0.0
H2645 H 0.30187 0.51409 0.22016 0.0
H2646 H 0.32965 0.56186 0.29674 0.0
H2647 H 0.30673 0.54886 0.35492 0.0
H2648 H 0.33322 0.57133 0.21241 0.0
H2649 H 0.34341 0.52922 0.28695 0.0
H2650 H 0.33596 0.50029 0.31837 0.0
H2651 H 0.32082 0.47673 0.18904 0.0
H2652 H 0.32797 0.50549 0.15693 0.0
H2653 H 0.41169 0.56863 0.08456 0.0
H2654 H 0.38949 0.559 0.14276 0.0
H2655 H 0.36038 0.57729 0.06543 0.0
H2656 H 0.38313 0.58749 1.00702 0.0
H2657 H 0.35838 0.53584 0.15309 0.0
H2658 H 0.33185 0.58404 0.1318 0.0
H2659 H 0.34229 0.61462 0.1075 0.0
H2660 H 0.39541 0.62889 0.14149 0.0
H2661 H 0.38526 0.59846 0.16648 0.0
C2662 C 0.29036 0.5144 0.28295 0.0
C2663 C 0.29113 0.52372 0.32206 0.0
C2664 C 0.30336 0.52189 0.24946 0.0
C2665 C 0.31806 0.53902 0.25345 0.0
C2666 C 0.3187 0.54861 0.29206 0.0
C2667 C 0.30551 0.54111 0.32573 0.0
C2668 C 0.33259 0.54651 0.21776 0.0
C2669 C 0.33863 0.56346 0.19954 0.0
C2670 C 0.34031 0.53677 0.20051 0.0
C2671 C 0.33607 0.51947 0.21962 0.0
C2672 C 0.33839 0.51784 0.26526 0.0
C2673 C 0.33423 0.50148 0.28319 0.0
C2674 C 0.32788 0.48667 0.25574 0.0
C2675 C 0.32572 0.48821 0.21027 0.0
C2676 C 0.32984 0.50454 0.19218 0.0
C2677 C 0.40066 0.57078 0.07965 0.0
C2678 C 0.39952 0.57902 0.04037 0.0
C2679 C 0.38773 0.5651 0.1134 0.0
C2680 C 0.37288 0.5673 0.10986 0.0
C2681 C 0.37165 0.57555 0.07046 0.0
C2682 C 0.38474 0.58137 0.03653 0.0
C2683 C 0.35886 0.56058 0.14692 0.0
C2684 C 0.35293 0.54372 0.16559 0.0
C2685 C 0.35159 0.5706 0.16516 0.0
C2686 C 0.35781 0.58893 0.15051 0.0
C2687 C 0.34575 0.59372 0.13418 0.0
C2688 C 0.35162 0.61102 0.12028 0.0
C2689 C 0.36951 0.62367 0.12279 0.0
C2690 C 0.38157 0.61906 0.13938 0.0
C2691 C 0.37576 0.60179 0.15337 0.0
H2692 H 0.37403 0.63705 0.11199 0.0
H2693 H 0.32467 0.47402 0.26968 0.0
H2694 H 0.19456 0.51611 0.32061 0.0
H2695 H 0.17135 0.50478 0.26447 0.0
H2696 H 0.17583 0.45817 0.24985 0.0
H2697 H 0.19906 0.46944 0.30568 0.0
H2698 H 0.18632 0.47931 0.17741 0.0
H2699 H 0.13484 0.45058 0.26031 0.0
H2700 H 0.11434 0.4445 0.32258 0.0
H2701 H 0.11208 0.4912 0.29179 0.0
H2702 H 0.13278 0.49777 0.22983 0.0
H2703 H 0.17213 0.51716 0.98972 0.0
H2704 H 0.16277 0.49106 0.03713 0.0
H2705 H 0.15548 0.51889 0.14627 0.0
H2706 H 0.16344 0.54408 0.09787 0.0
H2707 H 0.13381 0.48599 0.15749 0.0
H2708 H 0.19816 0.52069 0.11793 0.0
H2709 H 0.22234 0.53109 0.06324 0.0
H2710 H 0.2035 0.47772 0.02111 0.0
H2711 H 0.17914 0.46708 0.07542 0.0
C2712 C 0.1902 0.50322 0.30638 0.0
C2713 C 0.19886 0.49387 0.31679 0.0
C2714 C 0.17672 0.49657 0.27491 0.0
C2715 C 0.17184 0.48057 0.25312 0.0
C2716 C 0.17926 0.47041 0.26667 0.0
C2717 C 0.19263 0.47697 0.29845 0.0
C2718 C 0.16347 0.47764 0.20904 0.0
C2719 C 0.1744 0.48001 0.17262 0.0
C2720 C 0.14791 0.47841 0.20288 0.0
C2721 C 0.13534 0.47461 0.24008 0.0
C2722 C 0.13004 0.45961 0.26686 0.0
C2723 C 0.11837 0.45607 0.30215 0.0
C2724 C 0.11188 0.46744 0.31107 0.0
C2725 C 0.11706 0.48237 0.28473 0.0
C2726 C 0.12873 0.48598 0.24939 0.0
C2727 C 0.16823 0.51737 0.02373 0.0
C2728 C 0.16882 0.53252 0.04101 0.0
C2729 C 0.16281 0.50253 0.05064 0.0
C2730 C 0.15879 0.5031 0.09562 0.0
C2731 C 0.15842 0.51799 0.11174 0.0
C2732 C 0.16321 0.53249 0.08446 0.0
C2733 C 0.15802 0.49008 0.12827 0.0
C2734 C 0.14515 0.48427 0.16184 0.0
C2735 C 0.17224 0.48681 0.13271 0.0
C2736 C 0.18677 0.49315 0.10011 0.0
C2737 C 0.19918 0.51122 0.09683 0.0
C2738 C 0.21289 0.51715 0.06595 0.0
C2739 C 0.21442 0.50508 0.0386 0.0
C2740 C 0.20226 0.48706 0.04219 0.0
C2741 C 0.1885 0.48107 0.07297 0.0
H2742 H 0.22505 0.50968 1.01472 0.0
H2743 H 0.10285 0.46468 0.33843 0.0
H2744 H 0.49326 0.68336 0.30201 0.0
H2745 H 0.50349 0.66958 0.24941 0.0
H2746 H 0.55749 0.70799 0.27974 0.0
H2747 H 0.54736 0.72159 0.33414 0.0
H2748 H 0.55036 0.7088 0.19397 0.0
H2749 H 0.54708 0.66527 0.28585 0.0
H2750 H 0.53682 0.64318 0.34581 0.0
H2751 H 0.4885 0.61101 0.27527 0.0
H2752 H 0.49828 0.63299 0.21522 0.0
H2753 H 0.50206 0.63129 0.01894 0.0
H2754 H 0.52645 0.64594 0.07133 0.0
H2755 H 0.50909 0.68282 0.10396 0.0
H2756 H 0.48457 0.66807 0.05325 0.0
H2757 H 0.51993 0.64512 0.15713 0.0
H2758 H 0.53901 0.71983 0.13764 0.0
H2759 H 0.54922 0.74181 0.07754 0.0
H2760 H 0.56711 0.71188 1.00333 0.0
H2761 H 0.55728 0.68981 0.06332 0.0
C2762 C 0.50731 0.68857 0.29897 0.0
C2763 C 0.51941 0.70395 0.3215 0.0
C2764 C 0.51319 0.68056 0.26891 0.0
C2765 C 0.53129 0.68775 0.26068 0.0
C2766 C 0.54348 0.70224 0.28564 0.0
C2767 C 0.53759 0.71015 0.31622 0.0
C2768 C 0.53669 0.68233 0.21989 0.0
C2769 C 0.54413 0.6949 0.18583 0.0
C2770 C 0.52966 0.66428 0.20986 0.0
C2771 C 0.52354 0.6508 0.24571 0.0
C2772 C 0.53424 0.65351 0.28311 0.0
C2773 C 0.5285 0.641 0.31717 0.0
C2774 C 0.51204 0.62568 0.31429 0.0
C2775 C 0.50128 0.62285 0.27735 0.0
C2776 C 0.50696 0.63532 0.24319 0.0
C2777 C 0.5035 0.64263 0.0369 0.0
C2778 C 0.49094 0.64815 0.03278 0.0
C2779 C 0.51765 0.65114 0.06633 0.0
C2780 C 0.51968 0.66552 0.09137 0.0
C2781 C 0.50807 0.67198 0.08432 0.0
C2782 C 0.49387 0.66341 0.05536 0.0
C2783 C 0.53103 0.6715 0.13128 0.0
C2784 C 0.52701 0.65905 0.16519 0.0
C2785 C 0.54129 0.68966 0.14116 0.0
C2786 C 0.5475 0.70317 0.10532 0.0
C2787 C 0.54534 0.71801 0.10886 0.0
C2788 C 0.55099 0.73047 0.07466 0.0
C2789 C 0.55884 0.72826 0.03668 0.0
C2790 C 0.56103 0.71358 0.03279 0.0
C2791 C 0.5554 0.70108 0.06687 0.0
H2792 H 0.56319 0.73791 1.01023 0.0
H2793 H 0.50761 0.61601 0.34071 0.0
H2794 H 0.33826 0.83116 0.37651 0.0
H2795 H 0.35783 0.85731 0.33243 0.0
H2796 H 0.31598 0.84255 0.2364 0.0
H2797 H 0.29646 0.81759 0.28197 0.0
H2798 H 0.36966 0.85437 0.26369 0.0
H2799 H 0.31969 0.86856 0.16138 0.0
H2800 H 0.29838 0.87825 0.1783 0.0
H2801 H 0.32318 0.89818 0.30458 0.0
H2802 H 0.34491 0.88892 0.28824 0.0
H2803 H 0.3589 0.82672 0.06187 0.0
H2804 H 0.3494 0.83672 0.12594 0.0
H2805 H 0.38807 0.89067 0.09647 0.0
H2806 H 0.39728 0.88085 0.03084 0.0
H2807 H 0.35005 0.87982 0.14453 0.0
H2808 H 0.40605 0.88342 0.16058 0.0
H2809 H 0.42762 0.87408 0.14227 0.0
H2810 H 0.39264 0.82248 0.19457 0.0
H2811 H 0.37072 0.8314 0.21232 0.0
C2812 C 0.33325 0.83401 0.34665 0.0
C2813 C 0.31608 0.82236 0.33192 0.0
C2814 C 0.34433 0.84897 0.32164 0.0
C2815 C 0.33854 0.85208 0.28079 0.0
C2816 C 0.32085 0.84102 0.26817 0.0
C2817 C 0.30968 0.82647 0.29386 0.0
C2818 C 0.35144 0.86334 0.24639 0.0
C2819 C 0.36572 0.86062 0.23864 0.0
C2820 C 0.34707 0.87228 0.2139 0.0
C2821 C 0.33408 0.8781 0.22341 0.0
C2822 C 0.32082 0.87522 0.19253 0.0
C2823 C 0.30858 0.88058 0.20211 0.0
C2824 C 0.30944 0.88884 0.24246 0.0
C2825 C 0.32253 0.89177 0.27334 0.0
C2826 C 0.3348 0.88644 0.26395 0.0
C2827 C 0.36491 0.84075 0.06772 0.0
C2828 C 0.37923 0.85292 0.04216 0.0
C2829 C 0.35944 0.84646 0.10432 0.0
C2830 C 0.36827 0.86438 0.11598 0.0
C2831 C 0.3812 0.8768 0.08786 0.0
C2832 C 0.3866 0.8711 0.0509 0.0
C2833 C 0.36643 0.86894 0.16184 0.0
C2834 C 0.35447 0.87467 0.17124 0.0
C2835 C 0.37333 0.86338 0.19657 0.0
C2836 C 0.38676 0.85811 0.18782 0.0
C2837 C 0.40295 0.87007 0.16809 0.0
C2838 C 0.41523 0.86484 0.15775 0.0
C2839 C 0.41151 0.8477 0.16728 0.0
C2840 C 0.39552 0.83576 0.18728 0.0
C2841 C 0.38317 0.84091 0.19756 0.0
H2842 H 0.42101 0.84366 0.15917 0.0
H2843 H 0.29994 0.89296 0.24981 0.0
loop_
_geom_bond_atom_site_label_1
_geom_bond_atom_site_label_2
_geom_bond_distance
_geom_bond_site_symmetry_2
_ccdc_geom_bond_type
Co0 N4 2.148 . S
Co0 N10 2.128 . S
Co0 N20 2.194 . S
Co0 O25 2.351 . S
Co0 O26 2.155 . S
Co0 O27 2.096 . S
C1 N4 1.301 . S
C1 N5 1.328 . S
C1 H6 0.930 . S
C2 C3 1.333 . S
C2 N4 1.317 . S
C2 H7 0.930 . S
C3 C2 1.333 . S
C3 N5 1.350 . S
C3 H29 0.931 . S
N4 Co0 2.148 . S
N4 C1 1.301 . S
N4 C2 1.317 . S
N5 C1 1.328 . S
N5 C3 1.350 . S
H6 C1 0.930 . S
H7 C2 0.930 . S
C8 O9 1.224 . S
C8 O27 1.247 . S
O9 C8 1.224 . S
N10 Co0 2.128 . S
N10 C11 1.355 . S
N10 C13 1.311 . S
C11 N10 1.355 . S
C11 C12 1.363 . S
C11 H23 0.929 . S
C12 C11 1.363 . S
C12 N14 1.375 . S
C12 H30 0.931 . S
C13 N10 1.311 . S
C13 N14 1.347 . S
C13 H24 0.929 . S
N14 C12 1.375 . S
N14 C13 1.347 . S
C15 C18 1.365 . S
C15 N20 1.328 . S
C15 H21 0.929 . S
C16 C17 1.362 . S
C16 C19 1.378 . S
C16 H31 0.929 . S
C17 C16 1.362 . S
C17 C18 1.366 . S
C18 C15 1.365 . S
C18 C17 1.366 . S
C18 H32 0.930 . S
C19 C16 1.378 . S
C19 N20 1.315 . S
C19 H22 0.930 . S
N20 Co0 2.194 . S
N20 C15 1.328 . S
N20 C19 1.315 . S
H21 C15 0.929 . S
H22 C19 0.930 . S
H23 C11 0.929 . S
H24 C13 0.929 . S
O25 Co0 2.351 . S
O25 C28 1.244 . S
O26 Co0 2.155 . S
O26 C28 1.240 . S
O27 Co0 2.096 . S
O27 C8 1.247 . S
C28 O25 1.244 . S
C28 O26 1.240 . S
H29 C3 0.931 . S
H30 C12 0.931 . S
H31 C16 0.929 . S
H32 C18 0.930 . S
Co33 N37 2.148 . S
Co33 N43 2.128 . S
Co33 N53 2.194 . S
Co33 O58 2.351 . S
Co33 O59 2.155 . S
Co33 O60 2.096 . S
C34 N37 1.301 . S
C34 N38 1.328 . S
C34 H39 0.930 . S
C35 C36 1.333 . S
C35 N37 1.317 . S
C35 H40 0.930 . S
C36 C35 1.333 . S
C36 N38 1.350 . S
C36 H62 0.931 . S
N37 Co33 2.148 . S
N37 C34 1.301 . S
N37 C35 1.317 . S
N38 C34 1.328 . S
N38 C36 1.350 . S
H39 C34 0.930 . S
H40 C35 0.930 . S
C41 O42 1.224 . S
C41 O60 1.247 . S
O42 C41 1.224 . S
N43 Co33 2.128 . S
N43 C44 1.355 . S
N43 C46 1.311 . S
C44 N43 1.355 . S
C44 C45 1.363 . S
C44 H56 0.929 . S
C45 C44 1.363 . S
C45 N47 1.375 . S
C45 H63 0.931 . S
C46 N43 1.311 . S
C46 N47 1.347 . S
C46 H57 0.929 . S
N47 C45 1.375 . S
N47 C46 1.347 . S
C48 C51 1.365 . S
C48 N53 1.328 . S
C48 H54 0.929 . S
C49 C50 1.362 . S
C49 C52 1.378 . S
C49 H64 0.929 . S
C50 C49 1.362 . S
C50 C51 1.366 . S
C51 C48 1.365 . S
C51 C50 1.366 . S
C51 H65 0.930 . S
C52 C49 1.378 . S
C52 N53 1.315 . S
C52 H55 0.930 . S
N53 Co33 2.194 . S
N53 C48 1.328 . S
N53 C52 1.315 . S
H54 C48 0.929 . S
H55 C52 0.930 . S
H56 C44 0.929 . S
H57 C46 0.929 . S
O58 Co33 2.351 . S
O58 C61 1.244 . S
O59 Co33 2.155 . S
O59 C61 1.240 . S
O60 Co33 2.096 . S
O60 C41 1.247 . S
C61 O58 1.244 . S
C61 O59 1.240 . S
H62 C36 0.931 . S
H63 C45 0.931 . S
H64 C49 0.929 . S
H65 C51 0.930 . S
Co66 N70 2.148 . S
Co66 N76 2.128 . S
Co66 N86 2.194 . S
Co66 O91 2.351 . S
Co66 O92 2.155 . S
Co66 O93 2.096 . S
C67 N70 1.301 . S
C67 N71 1.328 . S
C67 H72 0.930 . S
C68 C69 1.333 . S
C68 N70 1.317 . S
C68 H73 0.930 . S
C69 C68 1.333 . S
C69 N71 1.350 . S
C69 H95 0.931 . S
N70 Co66 2.148 . S
N70 C67 1.301 . S
N70 C68 1.317 . S
N71 C67 1.328 . S
N71 C69 1.350 . S
H72 C67 0.930 . S
H73 C68 0.930 . S
C74 O75 1.224 . S
C74 O93 1.247 . S
O75 C74 1.224 . S
N76 Co66 2.128 . S
N76 C77 1.355 . S
N76 C79 1.311 . S
C77 N76 1.355 . S
C77 C78 1.363 . S
C77 H89 0.929 . S
C78 C77 1.363 . S
C78 N80 1.375 . S
C78 H96 0.931 . S
C79 N76 1.311 . S
C79 N80 1.347 . S
C79 H90 0.929 . S
N80 C78 1.375 . S
N80 C79 1.347 . S
C81 C84 1.365 . S
C81 N86 1.328 . S
C81 H87 0.929 . S
C82 C83 1.362 . S
C82 C85 1.378 . S
C82 H97 0.929 . S
C83 C82 1.362 . S
C83 C84 1.366 . S
C84 C81 1.365 . S
C84 C83 1.366 . S
C84 H98 0.930 . S
C85 C82 1.378 . S
C85 N86 1.315 . S
C85 H88 0.930 . S
N86 Co66 2.194 . S
N86 C81 1.328 . S
N86 C85 1.315 . S
H87 C81 0.929 . S
H88 C85 0.930 . S
H89 C77 0.929 . S
H90 C79 0.929 . S
O91 Co66 2.351 . S
O91 C94 1.244 . S
O92 Co66 2.155 . S
O92 C94 1.240 . S
O93 Co66 2.096 . S
O93 C74 1.247 . S
C94 O91 1.244 . S
C94 O92 1.240 . S
H95 C69 0.931 . S
H96 C78 0.931 . S
H97 C82 0.929 . S
H98 C84 0.930 . S
Co99 N103 2.148 . S
Co99 N109 2.128 . S
Co99 N119 2.194 . S
Co99 O124 2.351 . S
Co99 O125 2.155 . S
Co99 O126 2.096 . S
C100 N103 1.301 . S
C100 N104 1.328 . S
C100 H105 0.930 . S
C101 C102 1.333 . S
C101 N103 1.317 . S
C101 H106 0.930 . S
C102 C101 1.333 . S
C102 N104 1.350 . S
C102 H128 0.931 . S
N103 Co99 2.148 . S
N103 C100 1.301 . S
N103 C101 1.317 . S
N104 C100 1.328 . S
N104 C102 1.350 . S
H105 C100 0.930 . S
H106 C101 0.930 . S
C107 O108 1.224 . S
C107 O126 1.247 . S
O108 C107 1.224 . S
N109 Co99 2.128 . S
N109 C110 1.355 . S
N109 C112 1.311 . S
C110 N109 1.355 . S
C110 C111 1.363 . S
C110 H122 0.929 . S
C111 C110 1.363 . S
C111 N113 1.375 . S
C111 H129 0.931 . S
C112 N109 1.311 . S
C112 N113 1.347 . S
C112 H123 0.929 . S
N113 C111 1.375 . S
N113 C112 1.347 . S
C114 C117 1.365 . S
C114 N119 1.328 . S
C114 H120 0.929 . S
C115 C116 1.362 . S
C115 C118 1.378 . S
C115 H130 0.929 . S
C116 C115 1.362 . S
C116 C117 1.366 . S
C117 C114 1.365 . S
C117 C116 1.366 . S
C117 H131 0.930 . S
C118 C115 1.378 . S
C118 N119 1.315 . S
C118 H121 0.930 . S
N119 Co99 2.194 . S
N119 C114 1.328 . S
N119 C118 1.315 . S
H120 C114 0.929 . S
H121 C118 0.930 . S
H122 C110 0.929 . S
H123 C112 0.929 . S
O124 Co99 2.351 . S
O124 C127 1.244 . S
O125 Co99 2.155 . S
O125 C127 1.240 . S
O126 Co99 2.096 . S
O126 C107 1.247 . S
C127 O124 1.244 . S
C127 O125 1.240 . S
H128 C102 0.931 . S
H129 C111 0.931 . S
H130 C115 0.929 . S
H131 C117 0.930 . S
Co132 N136 2.148 . S
Co132 N142 2.128 . S
Co132 N152 2.194 . S
Co132 O157 2.351 . S
Co132 O158 2.155 . S
Co132 O159 2.096 . S
C133 N136 1.301 . S
C133 N137 1.328 . S
C133 H138 0.930 . S
C134 C135 1.333 . S
C134 N136 1.317 . S
C134 H139 0.930 . S
C135 C134 1.333 . S
C135 N137 1.350 . S
C135 H161 0.931 . S
N136 Co132 2.148 . S
N136 C133 1.301 . S
N136 C134 1.317 . S
N137 C133 1.328 . S
N137 C135 1.350 . S
H138 C133 0.930 . S
H139 C134 0.930 . S
C140 O141 1.224 . S
C140 O159 1.247 . S
O141 C140 1.224 . S
N142 Co132 2.128 . S
N142 C143 1.355 . S
N142 C145 1.311 . S
C143 N142 1.355 . S
C143 C144 1.363 . S
C143 H155 0.929 . S
C144 C143 1.363 . S
C144 N146 1.375 . S
C144 H162 0.931 . S
C145 N142 1.311 . S
C145 N146 1.347 . S
C145 H156 0.929 . S
N146 C144 1.375 . S
N146 C145 1.347 . S
C147 C150 1.365 . S
C147 N152 1.328 . S
C147 H153 0.929 . S
C148 C149 1.362 . S
C148 C151 1.378 . S
C148 H163 0.929 . S
C149 C148 1.362 . S
C149 C150 1.366 . S
C150 C147 1.365 . S
C150 C149 1.366 . S
C150 H164 0.930 . S
C151 C148 1.378 . S
C151 N152 1.315 . S
C151 H154 0.930 . S
N152 Co132 2.194 . S
N152 C147 1.328 . S
N152 C151 1.315 . S
H153 C147 0.929 . S
H154 C151 0.930 . S
H155 C143 0.929 . S
H156 C145 0.929 . S
O157 Co132 2.351 . S
O157 C160 1.244 . S
O158 Co132 2.155 . S
O158 C160 1.240 . S
O159 Co132 2.096 . S
O159 C140 1.247 . S
C160 O157 1.244 . S
C160 O158 1.240 . S
H161 C135 0.931 . S
H162 C144 0.931 . S
H163 C148 0.929 . S
H164 C150 0.930 . S
Co165 N169 2.148 . S
Co165 N175 2.128 . S
Co165 N185 2.194 . S
Co165 O190 2.351 . S
Co165 O191 2.155 . S
Co165 O192 2.096 . S
C166 N169 1.301 . S
C166 N170 1.328 . S
C166 H171 0.930 . S
C167 C168 1.333 . S
C167 N169 1.317 . S
C167 H172 0.930 . S
C168 C167 1.333 . S
C168 N170 1.350 . S
C168 H194 0.931 . S
N169 Co165 2.148 . S
N169 C166 1.301 . S
N169 C167 1.317 . S
N170 C166 1.328 . S
N170 C168 1.350 . S
H171 C166 0.930 . S
H172 C167 0.930 . S
C173 O174 1.224 . S
C173 O192 1.247 . S
O174 C173 1.224 . S
N175 Co165 2.128 . S
N175 C176 1.355 . S
N175 C178 1.311 . S
C176 N175 1.355 . S
C176 C177 1.363 . S
C176 H188 0.929 . S
C177 C176 1.363 . S
C177 N179 1.375 . S
C177 H195 0.931 . S
C178 N175 1.311 . S
C178 N179 1.347 . S
C178 H189 0.929 . S
N179 C177 1.375 . S
N179 C178 1.347 . S
C180 C183 1.365 . S
C180 N185 1.328 . S
C180 H186 0.929 . S
C181 C182 1.362 . S
C181 C184 1.378 . S
C181 H196 0.929 . S
C182 C181 1.362 . S
C182 C183 1.366 . S
C183 C180 1.365 . S
C183 C182 1.366 . S
C183 H197 0.930 . S
C184 C181 1.378 . S
C184 N185 1.315 . S
C184 H187 0.930 . S
N185 Co165 2.194 . S
N185 C180 1.328 . S
N185 C184 1.315 . S
H186 C180 0.929 . S
H187 C184 0.930 . S
H188 C176 0.929 . S
H189 C178 0.929 . S
O190 Co165 2.351 . S
O190 C193 1.244 . S
O191 Co165 2.155 . S
O191 C193 1.240 . S
O192 Co165 2.096 . S
O192 C173 1.247 . S
C193 O190 1.244 . S
C193 O191 1.240 . S
H194 C168 0.931 . S
H195 C177 0.931 . S
H196 C181 0.929 . S
H197 C183 0.930 . S
Co198 N202 2.148 . S
Co198 N208 2.128 . S
Co198 N218 2.194 . S
Co198 O223 2.351 . S
Co198 O224 2.155 . S
Co198 O225 2.096 . S
C199 N202 1.301 . S
C199 N203 1.328 . S
C199 H204 0.930 . S
C200 C201 1.333 . S
C200 N202 1.317 . S
C200 H205 0.930 . S
C201 C200 1.333 . S
C201 N203 1.350 . S
C201 H227 0.931 . S
N202 Co198 2.148 . S
N202 C199 1.301 . S
N202 C200 1.317 . S
N203 C199 1.328 . S
N203 C201 1.350 . S
H204 C199 0.930 . S
H205 C200 0.930 . S
C206 O207 1.224 . S
C206 O225 1.247 . S
O207 C206 1.224 . S
N208 Co198 2.128 . S
N208 C209 1.355 . S
N208 C211 1.311 . S
C209 N208 1.355 . S
C209 C210 1.363 . S
C209 H221 0.929 . S
C210 C209 1.363 . S
C210 N212 1.375 . S
C210 H228 0.931 . S
C211 N208 1.311 . S
C211 N212 1.347 . S
C211 H222 0.929 . S
N212 C210 1.375 . S
N212 C211 1.347 . S
C213 C216 1.365 . S
C213 N218 1.328 . S
C213 H219 0.929 . S
C214 C215 1.362 . S
C214 C217 1.378 . S
C214 H229 0.929 . S
C215 C214 1.362 . S
C215 C216 1.366 . S
C216 C213 1.365 . S
C216 C215 1.366 . S
C216 H230 0.930 . S
C217 C214 1.378 . S
C217 N218 1.315 . S
C217 H220 0.930 . S
N218 Co198 2.194 . S
N218 C213 1.328 . S
N218 C217 1.315 . S
H219 C213 0.929 . S
H220 C217 0.930 . S
H221 C209 0.929 . S
H222 C211 0.929 . S
O223 Co198 2.351 . S
O223 C226 1.244 . S
O224 Co198 2.155 . S
O224 C226 1.240 . S
O225 Co198 2.096 . S
O225 C206 1.247 . S
C226 O223 1.244 . S
C226 O224 1.240 . S
H227 C201 0.931 . S
H228 C210 0.931 . S
H229 C214 0.929 . S
H230 C216 0.930 . S
Co231 N235 2.148 . S
Co231 N241 2.128 . S
Co231 N251 2.194 . S
Co231 O256 2.351 . S
Co231 O257 2.155 . S
Co231 O258 2.096 . S
C232 N235 1.301 . S
C232 N236 1.328 . S
C232 H237 0.930 . S
C233 C234 1.333 . S
C233 N235 1.317 . S
C233 H238 0.930 . S
C234 C233 1.333 . S
C234 N236 1.350 . S
C234 H260 0.931 . S
N235 Co231 2.148 . S
N235 C232 1.301 . S
N235 C233 1.317 . S
N236 C232 1.328 . S
N236 C234 1.350 . S
H237 C232 0.930 . S
H238 C233 0.930 . S
C239 O240 1.224 . S
C239 O258 1.247 . S
O240 C239 1.224 . S
N241 Co231 2.128 . S
N241 C242 1.355 . S
N241 C244 1.311 . S
C242 N241 1.355 . S
C242 C243 1.363 . S
C242 H254 0.929 . S
C243 C242 1.363 . S
C243 N245 1.375 . S
C243 H261 0.931 . S
C244 N241 1.311 . S
C244 N245 1.347 . S
C244 H255 0.929 . S
N245 C243 1.375 . S
N245 C244 1.347 . S
C246 C249 1.365 . S
C246 N251 1.328 . S
C246 H252 0.929 . S
C247 C248 1.362 . S
C247 C250 1.378 . S
C247 H262 0.929 . S
C248 C247 1.362 . S
C248 C249 1.366 . S
C249 C246 1.365 . S
C249 C248 1.366 . S
C249 H263 0.930 . S
C250 C247 1.378 . S
C250 N251 1.315 . S
C250 H253 0.930 . S
N251 Co231 2.194 . S
N251 C246 1.328 . S
N251 C250 1.315 . S
H252 C246 0.929 . S
H253 C250 0.930 . S
H254 C242 0.929 . S
H255 C244 0.929 . S
O256 Co231 2.351 . S
O256 C259 1.244 . S
O257 Co231 2.155 . S
O257 C259 1.240 . S
O258 Co231 2.096 . S
O258 C239 1.247 . S
C259 O256 1.244 . S
C259 O257 1.240 . S
H260 C234 0.931 . S
H261 C243 0.931 . S
H262 C247 0.929 . S
H263 C249 0.930 . S
Co264 N268 2.148 . S
Co264 N274 2.128 . S
Co264 N284 2.194 . S
Co264 O289 2.351 . S
Co264 O290 2.155 . S
Co264 O291 2.096 . S
C265 N268 1.301 . S
C265 N269 1.328 . S
C265 H270 0.930 . S
C266 C267 1.333 . S
C266 N268 1.317 . S
C266 H271 0.930 . S
C267 C266 1.333 . S
C267 N269 1.350 . S
C267 H293 0.931 . S
N268 Co264 2.148 . S
N268 C265 1.301 . S
N268 C266 1.317 . S
N269 C265 1.328 . S
N269 C267 1.350 . S
H270 C265 0.930 . S
H271 C266 0.930 . S
C272 O273 1.224 . S
C272 O291 1.247 . S
O273 C272 1.224 . S
N274 Co264 2.128 . S
N274 C275 1.355 . S
N274 C277 1.311 . S
C275 N274 1.355 . S
C275 C276 1.363 . S
C275 H287 0.929 . S
C276 C275 1.363 . S
C276 N278 1.375 . S
C276 H294 0.931 . S
C277 N274 1.311 . S
C277 N278 1.347 . S
C277 H288 0.929 . S
N278 C276 1.375 . S
N278 C277 1.347 . S
C279 C282 1.365 . S
C279 N284 1.328 . S
C279 H285 0.929 . S
C280 C281 1.362 . S
C280 C283 1.378 . S
C280 H295 0.929 . S
C281 C280 1.362 . S
C281 C282 1.366 . S
C282 C279 1.365 . S
C282 C281 1.366 . S
C282 H296 0.930 . S
C283 C280 1.378 . S
C283 N284 1.315 . S
C283 H286 0.930 . S
N284 Co264 2.194 . S
N284 C279 1.328 . S
N284 C283 1.315 . S
H285 C279 0.929 . S
H286 C283 0.930 . S
H287 C275 0.929 . S
H288 C277 0.929 . S
O289 Co264 2.351 . S
O289 C292 1.244 . S
O290 Co264 2.155 . S
O290 C292 1.240 . S
O291 Co264 2.096 . S
O291 C272 1.247 . S
C292 O289 1.244 . S
C292 O290 1.240 . S
H293 C267 0.931 . S
H294 C276 0.931 . S
H295 C280 0.929 . S
H296 C282 0.930 . S
Co297 N301 2.148 . S
Co297 N307 2.128 . S
Co297 N317 2.194 . S
Co297 O322 2.351 . S
Co297 O323 2.155 . S
Co297 O324 2.096 . S
C298 N301 1.301 1_556 S
C298 N302 1.328 . S
C298 H303 0.930 . S
C299 C300 1.333 . S
C299 N301 1.317 . S
C299 H304 0.930 . S
C300 C299 1.333 . S
C300 N302 1.350 1_554 S
C300 H326 0.933 . S
N301 Co297 2.148 . S
N301 C298 1.301 1_554 S
N301 C299 1.317 . S
N302 C298 1.328 . S
N302 C300 1.350 1_556 S
H303 C298 0.930 . S
H304 C299 0.930 . S
C305 O306 1.224 . S
C305 O324 1.247 . S
O306 C305 1.224 . S
N307 Co297 2.128 . S
N307 C308 1.355 . S
N307 C310 1.311 . S
C308 N307 1.355 . S
C308 C309 1.363 . S
C308 H320 0.929 . S
C309 C308 1.363 . S
C309 N311 1.375 . S
C309 H327 0.931 . S
C310 N307 1.311 . S
C310 N311 1.347 . S
C310 H321 0.929 . S
N311 C309 1.375 . S
N311 C310 1.347 . S
C312 C315 1.365 . S
C312 N317 1.328 . S
C312 H318 0.929 . S
C313 C314 1.362 . S
C313 C316 1.378 . S
C313 H328 0.929 . S
C314 C313 1.362 . S
C314 C315 1.366 . S
C315 C312 1.365 . S
C315 C314 1.366 . S
C315 H329 0.930 . S
C316 C313 1.378 . S
C316 N317 1.315 . S
C316 H319 0.930 . S
N317 Co297 2.194 . S
N317 C312 1.328 . S
N317 C316 1.315 . S
H318 C312 0.929 . S
H319 C316 0.930 . S
H320 C308 0.929 . S
H321 C310 0.929 . S
O322 Co297 2.351 . S
O322 C325 1.244 . S
O323 Co297 2.155 . S
O323 C325 1.240 . S
O324 Co297 2.096 . S
O324 C305 1.247 . S
C325 O322 1.244 . S
C325 O323 1.240 . S
H326 C300 0.933 . S
H327 C309 0.931 . S
H328 C313 0.929 . S
H329 C315 0.930 . S
Co330 N334 2.148 . S
Co330 N340 2.128 . S
Co330 N350 2.194 . S
Co330 O355 2.351 . S
Co330 O356 2.155 . S
Co330 O357 2.096 . S
C331 N334 1.301 1_556 S
C331 N335 1.328 . S
C331 H336 0.930 . S
C332 C333 1.333 . S
C332 N334 1.317 . S
C332 H337 0.930 . S
C333 C332 1.333 . S
C333 N335 1.350 1_554 S
C333 H359 0.933 . S
N334 Co330 2.148 . S
N334 C331 1.301 1_554 S
N334 C332 1.317 . S
N335 C331 1.328 . S
N335 C333 1.350 1_556 S
H336 C331 0.930 . S
H337 C332 0.930 . S
C338 O339 1.224 . S
C338 O357 1.247 . S
O339 C338 1.224 . S
N340 Co330 2.128 . S
N340 C341 1.355 . S
N340 C343 1.311 . S
C341 N340 1.355 . S
C341 C342 1.363 . S
C341 H353 0.929 . S
C342 C341 1.363 . S
C342 N344 1.375 . S
C342 H360 0.931 . S
C343 N340 1.311 . S
C343 N344 1.347 . S
C343 H354 0.929 . S
N344 C342 1.375 . S
N344 C343 1.347 . S
C345 C348 1.365 . S
C345 N350 1.328 . S
C345 H351 0.929 . S
C346 C347 1.362 . S
C346 C349 1.378 . S
C346 H361 0.929 . S
C347 C346 1.362 . S
C347 C348 1.366 . S
C348 C345 1.365 . S
C348 C347 1.366 . S
C348 H362 0.930 . S
C349 C346 1.378 . S
C349 N350 1.315 . S
C349 H352 0.930 . S
N350 Co330 2.194 . S
N350 C345 1.328 . S
N350 C349 1.315 . S
H351 C345 0.929 . S
H352 C349 0.930 . S
H353 C341 0.929 . S
H354 C343 0.929 . S
O355 Co330 2.351 . S
O355 C358 1.244 . S
O356 Co330 2.155 . S
O356 C358 1.240 . S
O357 Co330 2.096 . S
O357 C338 1.247 . S
C358 O355 1.244 . S
C358 O356 1.240 . S
H359 C333 0.933 . S
H360 C342 0.931 . S
H361 C346 0.929 . S
H362 C348 0.930 . S
Co363 N367 2.148 . S
Co363 N373 2.128 . S
Co363 N383 2.194 . S
Co363 O388 2.351 . S
Co363 O389 2.155 . S
Co363 O390 2.096 . S
C364 N367 1.301 1_556 S
C364 N368 1.328 . S
C364 H369 0.930 . S
C365 C366 1.333 . S
C365 N367 1.317 . S
C365 H370 0.930 . S
C366 C365 1.333 . S
C366 N368 1.350 1_554 S
C366 H392 0.933 . S
N367 Co363 2.148 . S
N367 C364 1.301 1_554 S
N367 C365 1.317 . S
N368 C364 1.328 . S
N368 C366 1.350 1_556 S
H369 C364 0.930 . S
H370 C365 0.930 . S
C371 O372 1.224 . S
C371 O390 1.247 . S
O372 C371 1.224 . S
N373 Co363 2.128 . S
N373 C374 1.355 . S
N373 C376 1.311 . S
C374 N373 1.355 . S
C374 C375 1.363 . S
C374 H386 0.929 . S
C375 C374 1.363 . S
C375 N377 1.375 . S
C375 H393 0.931 . S
C376 N373 1.311 . S
C376 N377 1.347 . S
C376 H387 0.929 . S
N377 C375 1.375 . S
N377 C376 1.347 . S
C378 C381 1.365 . S
C378 N383 1.328 . S
C378 H384 0.929 . S
C379 C380 1.362 . S
C379 C382 1.378 . S
C379 H394 0.929 . S
C380 C379 1.362 . S
C380 C381 1.366 . S
C381 C378 1.365 . S
C381 C380 1.366 . S
C381 H395 0.930 . S
C382 C379 1.378 . S
C382 N383 1.315 . S
C382 H385 0.930 . S
N383 Co363 2.194 . S
N383 C378 1.328 . S
N383 C382 1.315 . S
H384 C378 0.929 . S
H385 C382 0.930 . S
H386 C374 0.929 . S
H387 C376 0.929 . S
O388 Co363 2.351 . S
O388 C391 1.244 . S
O389 Co363 2.155 . S
O389 C391 1.240 . S
O390 Co363 2.096 . S
O390 C371 1.247 . S
C391 O388 1.244 . S
C391 O389 1.240 . S
H392 C366 0.933 . S
H393 C375 0.931 . S
H394 C379 0.929 . S
H395 C381 0.930 . S
Co396 N400 2.148 . S
Co396 N406 2.128 . S
Co396 N416 2.194 . S
Co396 O421 2.351 . S
Co396 O422 2.155 . S
Co396 O423 2.096 . S
C397 N400 1.301 1_554 S
C397 N401 1.328 . S
C397 H402 0.930 . S
C398 C399 1.333 . S
C398 N400 1.317 . S
C398 H403 0.930 . S
C399 C398 1.333 . S
C399 N401 1.350 1_556 S
C399 H425 0.933 . S
N400 Co396 2.148 . S
N400 C397 1.301 1_556 S
N400 C398 1.317 . S
N401 C397 1.328 . S
N401 C399 1.350 1_554 S
H402 C397 0.930 . S
H403 C398 0.930 . S
C404 O405 1.224 . S
C404 O423 1.247 . S
O405 C404 1.224 . S
N406 Co396 2.128 . S
N406 C407 1.355 . S
N406 C409 1.311 . S
C407 N406 1.355 . S
C407 C408 1.363 . S
C407 H419 0.929 . S
C408 C407 1.363 . S
C408 N410 1.375 . S
C408 H426 0.931 . S
C409 N406 1.311 . S
C409 N410 1.347 . S
C409 H420 0.929 . S
N410 C408 1.375 . S
N410 C409 1.347 . S
C411 C414 1.365 . S
C411 N416 1.328 . S
C411 H417 0.929 . S
C412 C413 1.362 . S
C412 C415 1.378 . S
C412 H427 0.929 . S
C413 C412 1.362 . S
C413 C414 1.366 . S
C414 C411 1.365 . S
C414 C413 1.366 . S
C414 H428 0.930 . S
C415 C412 1.378 . S
C415 N416 1.315 . S
C415 H418 0.930 . S
N416 Co396 2.194 . S
N416 C411 1.328 . S
N416 C415 1.315 . S
H417 C411 0.929 . S
H418 C415 0.930 . S
H419 C407 0.929 . S
H420 C409 0.929 . S
O421 Co396 2.351 . S
O421 C424 1.244 . S
O422 Co396 2.155 . S
O422 C424 1.240 . S
O423 Co396 2.096 . S
O423 C404 1.247 . S
C424 O421 1.244 . S
C424 O422 1.240 . S
H425 C399 0.933 . S
H426 C408 0.931 . S
H427 C412 0.929 . S
H428 C414 0.930 . S
Co429 N433 2.148 . S
Co429 N439 2.128 . S
Co429 N449 2.194 . S
Co429 O454 2.351 . S
Co429 O455 2.155 . S
Co429 O456 2.096 . S
C430 N433 1.301 1_554 S
C430 N434 1.328 . S
C430 H435 0.930 . S
C431 C432 1.333 . S
C431 N433 1.317 . S
C431 H436 0.930 . S
C432 C431 1.333 . S
C432 N434 1.350 1_556 S
C432 H458 0.933 . S
N433 Co429 2.148 . S
N433 C430 1.301 1_556 S
N433 C431 1.317 . S
N434 C430 1.328 . S
N434 C432 1.350 1_554 S
H435 C430 0.930 . S
H436 C431 0.930 . S
C437 O438 1.224 . S
C437 O456 1.247 . S
O438 C437 1.224 . S
N439 Co429 2.128 . S
N439 C440 1.355 . S
N439 C442 1.311 . S
C440 N439 1.355 . S
C440 C441 1.363 . S
C440 H452 0.929 . S
C441 C440 1.363 . S
C441 N443 1.375 . S
C441 H459 0.931 . S
C442 N439 1.311 . S
C442 N443 1.347 . S
C442 H453 0.929 . S
N443 C441 1.375 . S
N443 C442 1.347 . S
C444 C447 1.365 . S
C444 N449 1.328 . S
C444 H450 0.929 . S
C445 C446 1.362 . S
C445 C448 1.378 . S
C445 H460 0.929 . S
C446 C445 1.362 . S
C446 C447 1.366 . S
C447 C444 1.365 . S
C447 C446 1.366 . S
C447 H461 0.930 . S
C448 C445 1.378 . S
C448 N449 1.315 . S
C448 H451 0.930 . S
N449 Co429 2.194 . S
N449 C444 1.328 . S
N449 C448 1.315 . S
H450 C444 0.929 . S
H451 C448 0.930 . S
H452 C440 0.929 . S
H453 C442 0.929 . S
O454 Co429 2.351 . S
O454 C457 1.244 . S
O455 Co429 2.155 . S
O455 C457 1.240 . S
O456 Co429 2.096 . S
O456 C437 1.247 . S
C457 O454 1.244 . S
C457 O455 1.240 . S
H458 C432 0.933 . S
H459 C441 0.931 . S
H460 C445 0.929 . S
H461 C447 0.930 . S
Co462 N466 2.148 . S
Co462 N472 2.128 . S
Co462 N482 2.194 . S
Co462 O487 2.351 . S
Co462 O488 2.155 . S
Co462 O489 2.096 . S
C463 N466 1.301 1_554 S
C463 N467 1.328 . S
C463 H468 0.930 . S
C464 C465 1.333 . S
C464 N466 1.317 . S
C464 H469 0.930 . S
C465 C464 1.333 . S
C465 N467 1.350 1_556 S
C465 H491 0.933 . S
N466 Co462 2.148 . S
N466 C463 1.301 1_556 S
N466 C464 1.317 . S
N467 C463 1.328 . S
N467 C465 1.350 1_554 S
H468 C463 0.930 . S
H469 C464 0.930 . S
C470 O471 1.224 . S
C470 O489 1.247 . S
O471 C470 1.224 . S
N472 Co462 2.128 . S
N472 C473 1.355 . S
N472 C475 1.311 . S
C473 N472 1.355 . S
C473 C474 1.363 . S
C473 H485 0.929 . S
C474 C473 1.363 . S
C474 N476 1.375 . S
C474 H492 0.931 . S
C475 N472 1.311 . S
C475 N476 1.347 . S
C475 H486 0.929 . S
N476 C474 1.375 . S
N476 C475 1.347 . S
C477 C480 1.365 . S
C477 N482 1.328 . S
C477 H483 0.929 . S
C478 C479 1.362 . S
C478 C481 1.378 . S
C478 H493 0.929 . S
C479 C478 1.362 . S
C479 C480 1.366 . S
C480 C477 1.365 . S
C480 C479 1.366 . S
C480 H494 0.930 . S
C481 C478 1.378 . S
C481 N482 1.315 . S
C481 H484 0.930 . S
N482 Co462 2.194 . S
N482 C477 1.328 . S
N482 C481 1.315 . S
H483 C477 0.929 . S
H484 C481 0.930 . S
H485 C473 0.929 . S
H486 C475 0.929 . S
O487 Co462 2.351 . S
O487 C490 1.244 . S
O488 Co462 2.155 . S
O488 C490 1.240 . S
O489 Co462 2.096 . S
O489 C470 1.247 . S
C490 O487 1.244 . S
C490 O488 1.240 . S
H491 C465 0.933 . S
H492 C474 0.931 . S
H493 C478 0.929 . S
H494 C480 0.930 . S
Co495 N499 2.148 . S
Co495 N505 2.128 . S
Co495 N515 2.194 . S
Co495 O520 2.351 . S
Co495 O521 2.155 . S
Co495 O522 2.096 . S
C496 N499 1.301 . S
C496 N500 1.328 . S
C496 H501 0.930 . S
C497 C498 1.333 . S
C497 N499 1.317 . S
C497 H502 0.930 . S
C498 C497 1.333 . S
C498 N500 1.350 . S
C498 H524 0.931 . S
N499 Co495 2.148 . S
N499 C496 1.301 . S
N499 C497 1.317 . S
N500 C496 1.328 . S
N500 C498 1.350 . S
H501 C496 0.930 . S
H502 C497 0.930 . S
C503 O504 1.224 . S
C503 O522 1.247 . S
O504 C503 1.224 . S
N505 Co495 2.128 . S
N505 C506 1.355 . S
N505 C508 1.311 . S
C506 N505 1.355 . S
C506 C507 1.363 . S
C506 H518 0.929 . S
C507 C506 1.363 . S
C507 N509 1.375 . S
C507 H525 0.931 . S
C508 N505 1.311 . S
C508 N509 1.347 . S
C508 H519 0.929 . S
N509 C507 1.375 . S
N509 C508 1.347 . S
C510 C513 1.365 . S
C510 N515 1.328 . S
C510 H516 0.929 . S
C511 C512 1.362 . S
C511 C514 1.378 . S
C511 H526 0.929 . S
C512 C511 1.362 . S
C512 C513 1.366 . S
C513 C510 1.365 . S
C513 C512 1.366 . S
C513 H527 0.930 . S
C514 C511 1.378 . S
C514 N515 1.315 . S
C514 H517 0.930 . S
N515 Co495 2.194 . S
N515 C510 1.328 . S
N515 C514 1.315 . S
H516 C510 0.929 . S
H517 C514 0.930 . S
H518 C506 0.929 . S
H519 C508 0.929 . S
O520 Co495 2.351 . S
O520 C523 1.244 . S
O521 Co495 2.155 . S
O521 C523 1.240 . S
O522 Co495 2.096 . S
O522 C503 1.247 . S
C523 O520 1.244 . S
C523 O521 1.240 . S
H524 C498 0.931 . S
H525 C507 0.931 . S
H526 C511 0.929 . S
H527 C513 0.930 . S
Co528 N532 2.148 . S
Co528 N538 2.128 . S
Co528 N548 2.194 . S
Co528 O553 2.351 . S
Co528 O554 2.155 . S
Co528 O555 2.096 . S
C529 N532 1.301 . S
C529 N533 1.328 . S
C529 H534 0.930 . S
C530 C531 1.333 . S
C530 N532 1.317 . S
C530 H535 0.930 . S
C531 C530 1.333 . S
C531 N533 1.350 . S
C531 H557 0.931 . S
N532 Co528 2.148 . S
N532 C529 1.301 . S
N532 C530 1.317 . S
N533 C529 1.328 . S
N533 C531 1.350 . S
H534 C529 0.930 . S
H535 C530 0.930 . S
C536 O537 1.224 . S
C536 O555 1.247 . S
O537 C536 1.224 . S
N538 Co528 2.128 . S
N538 C539 1.355 . S
N538 C541 1.311 . S
C539 N538 1.355 . S
C539 C540 1.363 . S
C539 H551 0.929 . S
C540 C539 1.363 . S
C540 N542 1.375 . S
C540 H558 0.931 . S
C541 N538 1.311 . S
C541 N542 1.347 . S
C541 H552 0.929 . S
N542 C540 1.375 . S
N542 C541 1.347 . S
C543 C546 1.365 . S
C543 N548 1.328 . S
C543 H549 0.929 . S
C544 C545 1.362 . S
C544 C547 1.378 . S
C544 H559 0.929 . S
C545 C544 1.362 . S
C545 C546 1.366 . S
C546 C543 1.365 . S
C546 C545 1.366 . S
C546 H560 0.930 . S
C547 C544 1.378 . S
C547 N548 1.315 . S
C547 H550 0.930 . S
N548 Co528 2.194 . S
N548 C543 1.328 . S
N548 C547 1.315 . S
H549 C543 0.929 . S
H550 C547 0.930 . S
H551 C539 0.929 . S
H552 C541 0.929 . S
O553 Co528 2.351 . S
O553 C556 1.244 . S
O554 Co528 2.155 . S
O554 C556 1.240 . S
O555 Co528 2.096 . S
O555 C536 1.247 . S
C556 O553 1.244 . S
C556 O554 1.240 . S
H557 C531 0.931 . S
H558 C540 0.931 . S
H559 C544 0.929 . S
H560 C546 0.930 . S
Co561 N565 2.148 . S
Co561 N571 2.128 . S
Co561 N581 2.194 . S
Co561 O586 2.351 . S
Co561 O587 2.155 . S
Co561 O588 2.096 . S
C562 N565 1.301 . S
C562 N566 1.328 . S
C562 H567 0.930 . S
C563 C564 1.333 . S
C563 N565 1.317 . S
C563 H568 0.930 . S
C564 C563 1.333 . S
C564 N566 1.350 . S
C564 H590 0.931 . S
N565 Co561 2.148 . S
N565 C562 1.301 . S
N565 C563 1.317 . S
N566 C562 1.328 . S
N566 C564 1.350 . S
H567 C562 0.930 . S
H568 C563 0.930 . S
C569 O570 1.224 . S
C569 O588 1.247 . S
O570 C569 1.224 . S
N571 Co561 2.128 . S
N571 C572 1.355 . S
N571 C574 1.311 . S
C572 N571 1.355 . S
C572 C573 1.363 . S
C572 H584 0.929 . S
C573 C572 1.363 . S
C573 N575 1.375 . S
C573 H591 0.931 . S
C574 N571 1.311 . S
C574 N575 1.347 . S
C574 H585 0.929 . S
N575 C573 1.375 . S
N575 C574 1.347 . S
C576 C579 1.365 . S
C576 N581 1.328 . S
C576 H582 0.929 . S
C577 C578 1.362 . S
C577 C580 1.378 . S
C577 H592 0.929 . S
C578 C577 1.362 . S
C578 C579 1.366 . S
C579 C576 1.365 . S
C579 C578 1.366 . S
C579 H593 0.930 . S
C580 C577 1.378 . S
C580 N581 1.315 . S
C580 H583 0.930 . S
N581 Co561 2.194 . S
N581 C576 1.328 . S
N581 C580 1.315 . S
H582 C576 0.929 . S
H583 C580 0.930 . S
H584 C572 0.929 . S
H585 C574 0.929 . S
O586 Co561 2.351 . S
O586 C589 1.244 . S
O587 Co561 2.155 . S
O587 C589 1.240 . S
O588 Co561 2.096 . S
O588 C569 1.247 . S
C589 O586 1.244 . S
C589 O587 1.240 . S
H590 C564 0.931 . S
H591 C573 0.931 . S
H592 C577 0.929 . S
H593 C579 0.930 . S
H594 C612 0.951 . S
H595 C614 0.951 . S
H596 C616 0.950 . S
H597 C617 0.950 . S
H598 C619 0.950 . S
H599 C622 0.950 . S
H600 C623 0.950 . S
H601 C625 0.950 . S
H602 C626 0.950 . S
H603 C627 0.951 . S
H604 C629 0.951 . S
H605 C631 0.950 . S
H606 C632 0.950 . S
H607 C634 0.950 . S
H608 C637 0.950 . S
H609 C638 0.950 . S
H610 C640 0.950 . S
H611 C641 0.950 . S
C612 H594 0.951 . S
C612 C613 1.366 . S
C612 C614 1.388 . S
C613 C612 1.366 . S
C613 C617 1.385 . S
C614 H595 0.951 . S
C614 C612 1.388 . S
C614 C615 1.366 . S
C615 C614 1.366 . S
C615 C616 1.414 . S
C615 C618 1.499 . S
C616 H596 0.950 . S
C616 C615 1.414 . S
C616 C617 1.374 . S
C617 H597 0.950 . S
C617 C613 1.385 . S
C617 C616 1.374 . S
C618 C615 1.499 . S
C618 C619 1.373 . S
C618 C620 1.389 1_556 S
C619 H598 0.950 . S
C619 C618 1.373 . S
C619 C635 1.377 . S
C620 C618 1.389 1_554 S
C620 C621 1.524 . S
C620 C634 1.377 . S
C621 C620 1.524 . S
C621 C622 1.397 . S
C621 C626 1.363 . S
C622 H599 0.950 . S
C622 C621 1.397 . S
C622 C623 1.334 . S
C623 H600 0.950 . S
C623 C622 1.334 . S
C623 C624 1.287 . S
C624 C623 1.287 . S
C624 C625 1.524 . S
C624 H643 0.913 . S
C625 H601 0.950 . S
C625 C624 1.524 . S
C625 C626 1.415 . S
C626 H602 0.950 . S
C626 C621 1.363 . S
C626 C625 1.415 . S
C627 H603 0.951 . S
C627 C628 1.366 . S
C627 C629 1.388 . S
C628 C627 1.366 . S
C628 C632 1.385 . S
C629 H604 0.951 . S
C629 C627 1.388 . S
C629 C630 1.366 . S
C630 C629 1.366 . S
C630 C631 1.414 . S
C630 C633 1.499 . S
C631 H605 0.950 . S
C631 C630 1.414 . S
C631 C632 1.374 . S
C632 H606 0.950 . S
C632 C628 1.385 . S
C632 C631 1.374 . S
C633 C630 1.499 . S
C633 C634 1.373 . S
C633 C635 1.389 1_554 S
C634 H607 0.950 . S
C634 C620 1.377 . S
C634 C633 1.373 . S
C635 C619 1.377 . S
C635 C633 1.389 1_556 S
C635 C636 1.524 . S
C636 C635 1.524 . S
C636 C637 1.397 . S
C636 C641 1.363 . S
C637 H608 0.950 . S
C637 C636 1.397 . S
C637 C638 1.334 . S
C638 H609 0.950 . S
C638 C637 1.334 . S
C638 C639 1.287 . S
C639 C638 1.287 . S
C639 C640 1.524 . S
C639 H642 0.999 . S
C640 H610 0.950 . S
C640 C639 1.524 . S
C640 C641 1.415 . S
C641 H611 0.950 . S
C641 C636 1.363 . S
C641 C640 1.415 . S
H642 C639 0.999 . S
H643 C624 0.913 . S
H644 C662 0.951 . S
H645 C664 0.951 . S
H646 C666 0.950 . S
H647 C667 0.950 . S
H648 C669 0.950 . S
H649 C672 0.950 . S
H650 C673 0.950 . S
H651 C675 0.933 1_554 S
H652 C676 0.950 . S
H653 C677 0.951 . S
H654 C679 0.951 . S
H655 C681 0.950 . S
H656 C682 0.950 . S
H657 C684 0.950 . S
H658 C687 0.950 . S
H659 C688 0.950 . S
H660 C690 0.933 1_556 S
H661 C691 0.950 . S
C662 H644 0.951 . S
C662 C663 1.366 . S
C662 C664 1.388 . S
C663 C662 1.366 . S
C663 C667 1.385 . S
C664 H645 0.951 . S
C664 C662 1.388 . S
C664 C665 1.366 . S
C665 C664 1.366 . S
C665 C666 1.414 . S
C665 C668 1.499 . S
C666 H646 0.950 . S
C666 C665 1.414 . S
C666 C667 1.374 . S
C667 H647 0.950 . S
C667 C663 1.385 . S
C667 C666 1.374 . S
C668 C665 1.499 . S
C668 C669 1.373 . S
C668 C670 1.389 . S
C669 H648 0.950 . S
C669 C668 1.373 . S
C669 C685 1.377 1_546 S
C670 C668 1.389 . S
C670 C671 1.524 . S
C670 C684 1.377 1_546 S
C671 C670 1.524 . S
C671 C672 1.397 . S
C671 C676 1.363 1_556 S
C672 H649 0.950 . S
C672 C671 1.397 . S
C672 C673 1.334 . S
C673 H650 0.950 . S
C673 C672 1.334 . S
C673 C674 1.287 . S
C674 C673 1.287 . S
C674 C675 1.549 . S
C674 H693 0.913 . S
C675 H651 0.933 1_556 S
C675 C674 1.549 . S
C675 C676 1.409 1_556 S
C676 H652 0.950 . S
C676 C671 1.363 1_554 S
C676 C675 1.409 1_554 S
C677 H653 0.951 . S
C677 C678 1.366 . S
C677 C679 1.388 . S
C678 C677 1.366 . S
C678 C682 1.385 . S
C679 H654 0.951 . S
C679 C677 1.388 . S
C679 C680 1.366 . S
C680 C679 1.366 . S
C680 C681 1.414 . S
C680 C683 1.499 . S
C681 H655 0.950 . S
C681 C680 1.414 . S
C681 C682 1.374 . S
C682 H656 0.950 . S
C682 C678 1.385 . S
C682 C681 1.374 . S
C683 C680 1.499 . S
C683 C684 1.373 . S
C683 C685 1.389 . S
C684 H657 0.950 . S
C684 C670 1.377 1_564 S
C684 C683 1.373 . S
C685 C669 1.377 1_564 S
C685 C683 1.389 . S
C685 C686 1.524 . S
C686 C685 1.524 . S
C686 C687 1.397 . S
C686 C691 1.363 1_554 S
C687 H658 0.950 . S
C687 C686 1.397 . S
C687 C688 1.334 . S
C688 H659 0.950 . S
C688 C687 1.334 . S
C688 C689 1.287 . S
C689 C688 1.287 . S
C689 C690 1.549 . S
C689 H692 0.999 . S
C690 H660 0.933 1_554 S
C690 C689 1.549 . S
C690 C691 1.409 1_554 S
C691 H661 0.950 . S
C691 C686 1.363 1_556 S
C691 C690 1.409 1_556 S
H692 C689 0.999 . S
H693 C674 0.913 . S
H694 C712 0.951 . S
H695 C714 0.951 . S
H696 C716 0.950 . S
H697 C717 0.950 . S
H698 C719 0.950 . S
H699 C722 0.950 . S
H700 C723 0.950 . S
H701 C725 0.950 . S
H702 C726 0.950 . S
H703 C727 0.951 . S
H704 C729 0.951 . S
H705 C731 0.950 . S
H706 C732 0.950 . S
H707 C734 0.950 . S
H708 C737 0.950 . S
H709 C738 0.950 . S
H710 C740 0.950 . S
H711 C741 0.950 . S
C712 H694 0.951 . S
C712 C713 1.366 . S
C712 C714 1.388 . S
C713 C712 1.366 . S
C713 C717 1.385 . S
C714 H695 0.951 . S
C714 C712 1.388 . S
C714 C715 1.366 . S
C715 C714 1.366 . S
C715 C716 1.414 . S
C715 C718 1.499 . S
C716 H696 0.950 . S
C716 C715 1.414 . S
C716 C717 1.374 . S
C717 H697 0.950 . S
C717 C713 1.385 . S
C717 C716 1.374 . S
C718 C715 1.499 . S
C718 C719 1.373 . S
C718 C720 1.389 . S
C719 H698 0.950 . S
C719 C718 1.373 . S
C719 C735 1.377 1_454 S
C720 C718 1.389 . S
C720 C721 1.524 . S
C720 C734 1.377 1_454 S
C721 C720 1.524 . S
C721 C722 1.397 . S
C721 C726 1.363 1_554 S
C722 H699 0.950 . S
C722 C721 1.397 . S
C722 C723 1.334 . S
C723 H700 0.950 . S
C723 C722 1.334 . S
C723 C724 1.287 . S
C724 C723 1.287 . S
C724 C725 1.524 1_554 S
C724 H743 0.913 . S
C725 H701 0.950 . S
C725 C724 1.524 1_556 S
C725 C726 1.415 . S
C726 H702 0.950 . S
C726 C721 1.363 1_556 S
C726 C725 1.415 . S
C727 H703 0.951 . S
C727 C728 1.366 . S
C727 C729 1.388 . S
C728 C727 1.366 . S
C728 C732 1.385 . S
C729 H704 0.951 . S
C729 C727 1.388 . S
C729 C730 1.366 . S
C730 C729 1.366 . S
C730 C731 1.414 . S
C730 C733 1.499 . S
C731 H705 0.950 . S
C731 C730 1.414 . S
C731 C732 1.374 . S
C732 H706 0.950 . S
C732 C728 1.385 . S
C732 C731 1.374 . S
C733 C730 1.499 . S
C733 C734 1.373 . S
C733 C735 1.389 . S
C734 H707 0.950 . S
C734 C720 1.377 1_656 S
C734 C733 1.373 . S
C735 C719 1.377 1_656 S
C735 C733 1.389 . S
C735 C736 1.524 . S
C736 C735 1.524 . S
C736 C737 1.397 . S
C736 C741 1.363 1_556 S
C737 H708 0.950 . S
C737 C736 1.397 . S
C737 C738 1.334 . S
C738 H709 0.950 . S
C738 C737 1.334 . S
C738 C739 1.287 . S
C739 C738 1.287 . S
C739 C740 1.524 1_556 S
C739 H742 0.999 . S
C740 H710 0.950 . S
C740 C739 1.524 1_554 S
C740 C741 1.415 . S
C741 H711 0.950 . S
C741 C736 1.363 1_554 S
C741 C740 1.415 . S
H742 C739 0.999 . S
H743 C724 0.913 . S
H744 C762 0.951 . S
H745 C764 0.951 . S
H746 C766 0.950 . S
H747 C767 0.950 . S
H748 C769 0.950 . S
H749 C772 0.950 . S
H750 C773 0.950 . S
H751 C775 0.950 . S
H752 C776 0.950 . S
H753 C777 0.951 . S
H754 C779 0.951 . S
H755 C781 0.950 . S
H756 C782 0.950 . S
H757 C784 0.950 . S
H758 C787 0.950 . S
H759 C788 0.950 . S
H760 C790 0.950 . S
H761 C791 0.950 . S
C762 H744 0.951 . S
C762 C763 1.366 . S
C762 C764 1.388 . S
C763 C762 1.366 . S
C763 C767 1.385 . S
C764 H745 0.951 . S
C764 C762 1.388 . S
C764 C765 1.366 . S
C765 C764 1.366 . S
C765 C766 1.414 . S
C765 C768 1.499 . S
C766 H746 0.950 . S
C766 C765 1.414 . S
C766 C767 1.374 . S
C767 H747 0.950 . S
C767 C763 1.385 . S
C767 C766 1.374 . S
C768 C765 1.499 . S
C768 C769 1.373 . S
C768 C770 1.389 1_554 S
C769 H748 0.950 . S
C769 C768 1.373 . S
C769 C785 1.377 . S
C770 C768 1.389 1_556 S
C770 C771 1.524 . S
C770 C784 1.377 . S
C771 C770 1.524 . S
C771 C772 1.397 1_556 S
C771 C776 1.363 . S
C772 H749 0.950 . S
C772 C771 1.397 1_554 S
C772 C773 1.334 . S
C773 H750 0.950 . S
C773 C772 1.334 . S
C773 C774 1.287 1_554 S
C774 C773 1.287 1_556 S
C774 C775 1.524 . S
C774 H793 0.913 . S
C775 H751 0.950 . S
C775 C774 1.524 . S
C775 C776 1.415 . S
C776 H752 0.950 . S
C776 C771 1.363 . S
C776 C775 1.415 . S
C777 H753 0.951 . S
C777 C778 1.366 . S
C777 C779 1.388 . S
C778 C777 1.366 . S
C778 C782 1.385 . S
C779 H754 0.951 . S
C779 C777 1.388 . S
C779 C780 1.366 . S
C780 C779 1.366 . S
C780 C781 1.414 . S
C780 C783 1.499 . S
C781 H755 0.950 . S
C781 C780 1.414 . S
C781 C782 1.374 . S
C782 H756 0.950 . S
C782 C778 1.385 . S
C782 C781 1.374 . S
C783 C780 1.499 . S
C783 C784 1.373 . S
C783 C785 1.389 1_556 S
C784 H757 0.950 . S
C784 C770 1.377 . S
C784 C783 1.373 . S
C785 C769 1.377 . S
C785 C783 1.389 1_554 S
C785 C786 1.524 . S
C786 C785 1.524 . S
C786 C787 1.397 1_554 S
C786 C791 1.363 . S
C787 H758 0.950 . S
C787 C786 1.397 1_556 S
C787 C788 1.334 . S
C788 H759 0.950 . S
C788 C787 1.334 . S
C788 C789 1.287 1_556 S
C789 C788 1.287 1_554 S
C789 C790 1.524 . S
C789 H792 0.999 . S
C790 H760 0.950 . S
C790 C789 1.524 . S
C790 C791 1.415 . S
C791 H761 0.950 . S
C791 C786 1.363 . S
C791 C790 1.415 . S
H792 C789 0.999 . S
H793 C774 0.913 . S
H794 C812 0.951 . S
H795 C814 0.951 . S
H796 C816 0.950 . S
H797 C817 0.950 . S
H798 C819 0.950 . S
H799 C822 0.950 . S
H800 C823 0.950 . S
H801 C825 0.950 . S
H802 C826 0.950 . S
H803 C827 0.951 . S
H804 C829 0.951 . S
H805 C831 0.950 . S
H806 C832 0.950 . S
H807 C834 0.950 . S
H808 C837 0.950 . S
H809 C838 0.950 . S
H810 C840 0.950 . S
H811 C841 0.950 . S
C812 H794 0.951 . S
C812 C813 1.366 . S
C812 C814 1.388 . S
C813 C812 1.366 . S
C813 C817 1.385 . S
C814 H795 0.951 . S
C814 C812 1.388 . S
C814 C815 1.366 . S
C815 C814 1.366 . S
C815 C816 1.414 . S
C815 C818 1.499 . S
C816 H796 0.950 . S
C816 C815 1.414 . S
C816 C817 1.374 . S
C817 H797 0.950 . S
C817 C813 1.385 . S
C817 C816 1.374 . S
C818 C815 1.499 . S
C818 C819 1.373 . S
C818 C820 1.389 . S
C819 H798 0.950 . S
C819 C818 1.373 . S
C819 C835 1.377 1_546 S
C820 C818 1.389 . S
C820 C821 1.524 . S
C820 C834 1.377 1_546 S
C821 C820 1.524 . S
C821 C822 1.397 . S
C821 C826 1.363 . S
C822 H799 0.950 . S
C822 C821 1.397 . S
C822 C823 1.334 . S
C823 H800 0.950 . S
C823 C822 1.334 . S
C823 C824 1.287 . S
C824 C823 1.287 . S
C824 C825 1.524 . S
C824 H843 0.913 . S
C825 H801 0.950 . S
C825 C824 1.524 . S
C825 C826 1.415 . S
C826 H802 0.950 . S
C826 C821 1.363 . S
C826 C825 1.415 . S
C827 H803 0.951 . S
C827 C828 1.366 . S
C827 C829 1.388 . S
C828 C827 1.366 . S
C828 C832 1.385 . S
C829 H804 0.951 . S
C829 C827 1.388 . S
C829 C830 1.366 . S
C830 C829 1.366 . S
C830 C831 1.414 . S
C830 C833 1.499 . S
C831 H805 0.950 . S
C831 C830 1.414 . S
C831 C832 1.374 . S
C832 H806 0.950 . S
C832 C828 1.385 . S
C832 C831 1.374 . S
C833 C830 1.499 . S
C833 C834 1.373 . S
C833 C835 1.389 . S
C834 H807 0.950 . S
C834 C820 1.377 1_564 S
C834 C833 1.373 . S
C835 C819 1.377 1_564 S
C835 C833 1.389 . S
C835 C836 1.524 . S
C836 C835 1.524 . S
C836 C837 1.397 . S
C836 C841 1.363 . S
C837 H808 0.950 . S
C837 C836 1.397 . S
C837 C838 1.334 . S
C838 H809 0.950 . S
C838 C837 1.334 . S
C838 C839 1.287 . S
C839 C838 1.287 . S
C839 C840 1.524 . S
C839 H842 0.999 . S
C840 H810 0.950 . S
C840 C839 1.524 . S
C840 C841 1.415 . S
C841 H811 0.950 . S
C841 C836 1.363 . S
C841 C840 1.415 . S
H842 C839 0.999 . S
H843 C824 0.913 . S
H844 C862 0.951 . S
H845 C864 0.951 . S
H846 C866 0.950 . S
H847 C867 0.950 . S
H848 C869 0.950 . S
H849 C872 0.950 . S
H850 C873 0.950 . S
H851 C875 0.950 . S
H852 C876 0.950 1_455 S
H853 C877 0.951 . S
H854 C879 0.951 . S
H855 C881 0.950 . S
H856 C882 0.950 . S
H857 C884 0.950 . S
H858 C887 0.950 . S
H859 C888 0.950 . S
H860 C890 0.950 . S
H861 C891 0.950 1_655 S
C862 H844 0.951 . S
C862 C863 1.366 . S
C862 C864 1.388 . S
C863 C862 1.366 . S
C863 C867 1.385 . S
C864 H845 0.951 . S
C864 C862 1.388 . S
C864 C865 1.366 . S
C865 C864 1.366 . S
C865 C866 1.414 . S
C865 C868 1.499 . S
C866 H846 0.950 . S
C866 C865 1.414 . S
C866 C867 1.374 . S
C867 H847 0.950 . S
C867 C863 1.385 . S
C867 C866 1.374 . S
C868 C865 1.499 . S
C868 C869 1.373 . S
C868 C870 1.389 . S
C869 H848 0.950 . S
C869 C868 1.373 . S
C869 C885 1.377 1_656 S
C870 C868 1.389 . S
C870 C871 1.524 . S
C870 C884 1.377 1_656 S
C871 C870 1.524 . S
C871 C872 1.397 . S
C871 C876 1.363 . S
C872 H849 0.950 . S
C872 C871 1.397 . S
C872 C873 1.334 . S
C873 H850 0.950 . S
C873 C872 1.334 . S
C873 C874 1.287 . S
C874 C873 1.287 . S
C874 C875 1.524 . S
C874 H893 0.913 . S
C875 H851 0.950 . S
C875 C874 1.524 . S
C875 C876 1.415 . S
C876 H852 0.950 1_655 S
C876 C871 1.363 . S
C876 C875 1.415 . S
C877 H853 0.951 . S
C877 C878 1.366 . S
C877 C879 1.388 . S
C878 C877 1.366 . S
C878 C882 1.385 . S
C879 H854 0.951 . S
C879 C877 1.388 . S
C879 C880 1.366 . S
C880 C879 1.366 . S
C880 C881 1.414 . S
C880 C883 1.499 . S
C881 H855 0.950 . S
C881 C880 1.414 . S
C881 C882 1.374 . S
C882 H856 0.950 . S
C882 C878 1.385 . S
C882 C881 1.374 . S
C883 C880 1.499 . S
C883 C884 1.373 . S
C883 C885 1.389 . S
C884 H857 0.950 . S
C884 C870 1.377 1_454 S
C884 C883 1.373 . S
C885 C869 1.377 1_454 S
C885 C883 1.389 . S
C885 C886 1.524 . S
C886 C885 1.524 . S
C886 C887 1.397 . S
C886 C891 1.363 . S
C887 H858 0.950 . S
C887 C886 1.397 . S
C887 C888 1.334 . S
C888 H859 0.950 . S
C888 C887 1.334 . S
C888 C889 1.287 . S
C889 C888 1.287 . S
C889 C890 1.524 . S
C889 H892 0.999 . S
C890 H860 0.950 . S
C890 C889 1.524 . S
C890 C891 1.415 . S
C891 H861 0.950 1_455 S
C891 C886 1.363 . S
C891 C890 1.415 . S
H892 C889 0.999 . S
H893 C874 0.913 . S
H894 C912 0.951 . S
H895 C914 0.951 . S
H896 C916 0.950 . S
H897 C917 0.950 . S
H898 C919 0.950 . S
H899 C922 0.950 . S
H900 C923 0.950 . S
H901 C925 0.950 . S
H902 C926 0.950 . S
H903 C927 0.951 . S
H904 C929 0.951 . S
H905 C931 0.950 . S
H906 C932 0.950 . S
H907 C934 0.950 . S
H908 C937 0.950 . S
H909 C938 0.950 . S
H910 C940 0.950 . S
H911 C941 0.950 . S
C912 H894 0.951 . S
C912 C913 1.366 . S
C912 C914 1.388 . S
C913 C912 1.366 . S
C913 C917 1.385 . S
C914 H895 0.951 . S
C914 C912 1.388 . S
C914 C915 1.366 . S
C915 C914 1.366 . S
C915 C916 1.414 . S
C915 C918 1.499 . S
C916 H896 0.950 . S
C916 C915 1.414 . S
C916 C917 1.374 . S
C917 H897 0.950 . S
C917 C913 1.385 . S
C917 C916 1.374 . S
C918 C915 1.499 . S
C918 C919 1.373 . S
C918 C920 1.389 . S
C919 H898 0.950 . S
C919 C918 1.373 . S
C919 C935 1.377 . S
C920 C918 1.389 . S
C920 C921 1.524 . S
C920 C934 1.377 . S
C921 C920 1.524 . S
C921 C922 1.397 . S
C921 C926 1.363 . S
C922 H899 0.950 . S
C922 C921 1.397 . S
C922 C923 1.334 . S
C923 H900 0.950 . S
C923 C922 1.334 . S
C923 C924 1.287 . S
C924 C923 1.287 . S
C924 C925 1.524 . S
C924 H943 0.913 . S
C925 H901 0.950 . S
C925 C924 1.524 . S
C925 C926 1.415 . S
C926 H902 0.950 . S
C926 C921 1.363 . S
C926 C925 1.415 . S
C927 H903 0.951 . S
C927 C928 1.366 . S
C927 C929 1.388 . S
C928 C927 1.366 . S
C928 C932 1.385 . S
C929 H904 0.951 . S
C929 C927 1.388 . S
C929 C930 1.366 . S
C930 C929 1.366 . S
C930 C931 1.414 . S
C930 C933 1.499 . S
C931 H905 0.950 . S
C931 C930 1.414 . S
C931 C932 1.374 . S
C932 H906 0.950 . S
C932 C928 1.385 . S
C932 C931 1.374 . S
C933 C930 1.499 . S
C933 C934 1.373 . S
C933 C935 1.389 . S
C934 H907 0.950 . S
C934 C920 1.377 . S
C934 C933 1.373 . S
C935 C919 1.377 . S
C935 C933 1.389 . S
C935 C936 1.524 . S
C936 C935 1.524 . S
C936 C937 1.397 . S
C936 C941 1.363 . S
C937 H908 0.950 . S
C937 C936 1.397 . S
C937 C938 1.334 . S
C938 H909 0.950 . S
C938 C937 1.334 . S
C938 C939 1.287 . S
C939 C938 1.287 . S
C939 C940 1.524 . S
C939 H942 0.999 . S
C940 H910 0.950 . S
C940 C939 1.524 . S
C940 C941 1.415 . S
C941 H911 0.950 . S
C941 C936 1.363 . S
C941 C940 1.415 . S
H942 C939 0.999 . S
H943 C924 0.913 . S
H944 C962 0.951 . S
H945 C964 0.951 . S
H946 C966 0.950 . S
H947 C967 0.950 . S
H948 C969 0.950 . S
H949 C972 0.950 . S
H950 C973 0.950 . S
H951 C975 0.950 . S
H952 C976 0.950 . S
H953 C977 0.951 . S
H954 C979 0.951 . S
H955 C981 0.950 . S
H956 C982 0.950 . S
H957 C984 0.950 . S
H958 C987 0.950 . S
H959 C988 0.950 . S
H960 C990 0.950 . S
H961 C991 0.950 . S
C962 H944 0.951 . S
C962 C963 1.366 . S
C962 C964 1.388 . S
C963 C962 1.366 . S
C963 C967 1.385 . S
C964 H945 0.951 . S
C964 C962 1.388 . S
C964 C965 1.366 . S
C965 C964 1.366 . S
C965 C966 1.414 . S
C965 C968 1.499 . S
C966 H946 0.950 . S
C966 C965 1.414 . S
C966 C967 1.374 . S
C967 H947 0.950 . S
C967 C963 1.385 . S
C967 C966 1.374 . S
C968 C965 1.499 . S
C968 C969 1.373 . S
C968 C970 1.389 . S
C969 H948 0.950 . S
C969 C968 1.373 . S
C969 C985 1.377 . S
C970 C968 1.389 . S
C970 C971 1.524 . S
C970 C984 1.377 . S
C971 C970 1.524 . S
C971 C972 1.397 . S
C971 C976 1.363 . S
C972 H949 0.950 . S
C972 C971 1.397 . S
C972 C973 1.334 . S
C973 H950 0.950 . S
C973 C972 1.334 . S
C973 C974 1.287 . S
C974 C973 1.287 . S
C974 C975 1.524 . S
C974 H993 0.913 . S
C975 H951 0.950 . S
C975 C974 1.524 . S
C975 C976 1.415 . S
C976 H952 0.950 . S
C976 C971 1.363 . S
C976 C975 1.415 . S
C977 H953 0.951 . S
C977 C978 1.366 . S
C977 C979 1.388 . S
C978 C977 1.366 . S
C978 C982 1.385 . S
C979 H954 0.951 . S
C979 C977 1.388 . S
C979 C980 1.366 . S
C980 C979 1.366 . S
C980 C981 1.414 . S
C980 C983 1.499 . S
C981 H955 0.950 . S
C981 C980 1.414 . S
C981 C982 1.374 . S
C982 H956 0.950 . S
C982 C978 1.385 . S
C982 C981 1.374 . S
C983 C980 1.499 . S
C983 C984 1.373 . S
C983 C985 1.389 . S
C984 H957 0.950 . S
C984 C970 1.377 . S
C984 C983 1.373 . S
C985 C969 1.377 . S
C985 C983 1.389 . S
C985 C986 1.524 . S
C986 C985 1.524 . S
C986 C987 1.397 . S
C986 C991 1.363 . S
C987 H958 0.950 . S
C987 C986 1.397 . S
C987 C988 1.334 . S
C988 H959 0.950 . S
C988 C987 1.334 . S
C988 C989 1.287 . S
C989 C988 1.287 . S
C989 C990 1.524 . S
C989 H992 0.999 . S
C990 H960 0.950 . S
C990 C989 1.524 . S
C990 C991 1.415 . S
C991 H961 0.950 . S
C991 C986 1.363 . S
C991 C990 1.415 . S
H992 C989 0.999 . S
H993 C974 0.913 . S
H994 C1012 0.951 . S
H995 C1014 0.951 . S
H996 C1016 0.950 . S
H997 C1017 0.950 . S
H998 C1019 0.950 . S
H999 C1022 0.950 . S
H1000 C1023 0.950 . S
H1001 C1025 0.950 . S
H1002 C1026 0.950 . S
H1003 C1027 0.951 . S
H1004 C1029 0.951 . S
H1005 C1031 0.950 . S
H1006 C1032 0.950 . S
H1007 C1034 0.950 . S
H1008 C1037 0.950 . S
H1009 C1038 0.950 . S
H1010 C1040 0.950 . S
H1011 C1041 0.950 . S
C1012 H994 0.951 . S
C1012 C1013 1.366 . S
C1012 C1014 1.388 . S
C1013 C1012 1.366 . S
C1013 C1017 1.385 . S
C1014 H995 0.951 . S
C1014 C1012 1.388 . S
C1014 C1015 1.366 . S
C1015 C1014 1.366 . S
C1015 C1016 1.414 . S
C1015 C1018 1.499 . S
C1016 H996 0.950 . S
C1016 C1015 1.414 . S
C1016 C1017 1.374 . S
C1017 H997 0.950 . S
C1017 C1013 1.385 . S
C1017 C1016 1.374 . S
C1018 C1015 1.499 . S
C1018 C1019 1.373 . S
C1018 C1020 1.389 . S
C1019 H998 0.950 . S
C1019 C1018 1.373 . S
C1019 C1035 1.377 . S
C1020 C1018 1.389 . S
C1020 C1021 1.524 . S
C1020 C1034 1.377 . S
C1021 C1020 1.524 . S
C1021 C1022 1.397 . S
C1021 C1026 1.363 . S
C1022 H999 0.950 . S
C1022 C1021 1.397 . S
C1022 C1023 1.334 . S
C1023 H1000 0.950 . S
C1023 C1022 1.334 . S
C1023 C1024 1.287 . S
C1024 C1023 1.287 . S
C1024 C1025 1.524 . S
C1024 H1043 0.913 . S
C1025 H1001 0.950 . S
C1025 C1024 1.524 . S
C1025 C1026 1.415 . S
C1026 H1002 0.950 . S
C1026 C1021 1.363 . S
C1026 C1025 1.415 . S
C1027 H1003 0.951 . S
C1027 C1028 1.366 . S
C1027 C1029 1.388 . S
C1028 C1027 1.366 . S
C1028 C1032 1.385 . S
C1029 H1004 0.951 . S
C1029 C1027 1.388 . S
C1029 C1030 1.366 . S
C1030 C1029 1.366 . S
C1030 C1031 1.414 . S
C1030 C1033 1.499 . S
C1031 H1005 0.950 . S
C1031 C1030 1.414 . S
C1031 C1032 1.374 . S
C1032 H1006 0.950 . S
C1032 C1028 1.385 . S
C1032 C1031 1.374 . S
C1033 C1030 1.499 . S
C1033 C1034 1.373 . S
C1033 C1035 1.389 . S
C1034 H1007 0.950 . S
C1034 C1020 1.377 . S
C1034 C1033 1.373 . S
C1035 C1019 1.377 . S
C1035 C1033 1.389 . S
C1035 C1036 1.524 . S
C1036 C1035 1.524 . S
C1036 C1037 1.397 . S
C1036 C1041 1.363 . S
C1037 H1008 0.950 . S
C1037 C1036 1.397 . S
C1037 C1038 1.334 . S
C1038 H1009 0.950 . S
C1038 C1037 1.334 . S
C1038 C1039 1.287 . S
C1039 C1038 1.287 . S
C1039 C1040 1.524 . S
C1039 H1042 0.999 . S
C1040 H1010 0.950 . S
C1040 C1039 1.524 . S
C1040 C1041 1.415 . S
C1041 H1011 0.950 . S
C1041 C1036 1.363 . S
C1041 C1040 1.415 . S
H1042 C1039 0.999 . S
H1043 C1024 0.913 . S
H1044 C1062 0.951 . S
H1045 C1064 0.951 . S
H1046 C1066 0.950 . S
H1047 C1067 0.950 . S
H1048 C1069 0.950 . S
H1049 C1072 0.950 . S
H1050 C1073 0.950 . S
H1051 C1075 0.950 . S
H1052 C1076 0.950 . S
H1053 C1077 0.951 . S
H1054 C1079 0.951 . S
H1055 C1081 0.950 . S
H1056 C1082 0.950 . S
H1057 C1084 0.950 . S
H1058 C1087 0.950 . S
H1059 C1088 0.950 . S
H1060 C1090 0.950 . S
H1061 C1091 0.950 . S
C1062 H1044 0.951 . S
C1062 C1063 1.366 . S
C1062 C1064 1.388 . S
C1063 C1062 1.366 . S
C1063 C1067 1.385 . S
C1064 H1045 0.951 . S
C1064 C1062 1.388 . S
C1064 C1065 1.366 . S
C1065 C1064 1.366 . S
C1065 C1066 1.414 . S
C1065 C1068 1.499 . S
C1066 H1046 0.950 . S
C1066 C1065 1.414 . S
C1066 C1067 1.374 . S
C1067 H1047 0.950 . S
C1067 C1063 1.385 . S
C1067 C1066 1.374 . S
C1068 C1065 1.499 . S
C1068 C1069 1.373 . S
C1068 C1070 1.389 . S
C1069 H1048 0.950 . S
C1069 C1068 1.373 . S
C1069 C1085 1.377 . S
C1070 C1068 1.389 . S
C1070 C1071 1.524 . S
C1070 C1084 1.377 . S
C1071 C1070 1.524 . S
C1071 C1072 1.397 . S
C1071 C1076 1.363 . S
C1072 H1049 0.950 . S
C1072 C1071 1.397 . S
C1072 C1073 1.334 . S
C1073 H1050 0.950 . S
C1073 C1072 1.334 . S
C1073 C1074 1.287 . S
C1074 C1073 1.287 . S
C1074 C1075 1.524 . S
C1074 H1093 0.913 . S
C1075 H1051 0.950 . S
C1075 C1074 1.524 . S
C1075 C1076 1.415 . S
C1076 H1052 0.950 . S
C1076 C1071 1.363 . S
C1076 C1075 1.415 . S
C1077 H1053 0.951 . S
C1077 C1078 1.366 . S
C1077 C1079 1.388 . S
C1078 C1077 1.366 . S
C1078 C1082 1.385 . S
C1079 H1054 0.951 . S
C1079 C1077 1.388 . S
C1079 C1080 1.366 . S
C1080 C1079 1.366 . S
C1080 C1081 1.414 . S
C1080 C1083 1.499 . S
C1081 H1055 0.950 . S
C1081 C1080 1.414 . S
C1081 C1082 1.374 . S
C1082 H1056 0.950 . S
C1082 C1078 1.385 . S
C1082 C1081 1.374 . S
C1083 C1080 1.499 . S
C1083 C1084 1.373 . S
C1083 C1085 1.389 . S
C1084 H1057 0.950 . S
C1084 C1070 1.377 . S
C1084 C1083 1.373 . S
C1085 C1069 1.377 . S
C1085 C1083 1.389 . S
C1085 C1086 1.524 . S
C1086 C1085 1.524 . S
C1086 C1087 1.397 . S
C1086 C1091 1.363 . S
C1087 H1058 0.950 . S
C1087 C1086 1.397 . S
C1087 C1088 1.334 . S
C1088 H1059 0.950 . S
C1088 C1087 1.334 . S
C1088 C1089 1.287 . S
C1089 C1088 1.287 . S
C1089 C1090 1.524 . S
C1089 H1092 0.999 . S
C1090 H1060 0.950 . S
C1090 C1089 1.524 . S
C1090 C1091 1.415 . S
C1091 H1061 0.950 . S
C1091 C1086 1.363 . S
C1091 C1090 1.415 . S
H1092 C1089 0.999 . S
H1093 C1074 0.913 . S
H1094 C1112 0.951 . S
H1095 C1114 0.951 . S
H1096 C1116 0.950 . S
H1097 C1117 0.950 . S
H1098 C1119 0.950 . S
H1099 C1122 0.950 . S
H1100 C1123 0.950 . S
H1101 C1125 0.950 . S
H1102 C1126 0.950 . S
H1103 C1127 0.951 . S
H1104 C1129 0.951 . S
H1105 C1131 0.950 . S
H1106 C1132 0.950 . S
H1107 C1134 0.950 . S
H1108 C1137 0.950 . S
H1109 C1138 0.950 . S
H1110 C1140 0.950 . S
H1111 C1141 0.950 . S
C1112 H1094 0.951 . S
C1112 C1113 1.366 . S
C1112 C1114 1.388 . S
C1113 C1112 1.366 . S
C1113 C1117 1.385 . S
C1114 H1095 0.951 . S
C1114 C1112 1.388 . S
C1114 C1115 1.366 . S
C1115 C1114 1.366 . S
C1115 C1116 1.414 . S
C1115 C1118 1.499 . S
C1116 H1096 0.950 . S
C1116 C1115 1.414 . S
C1116 C1117 1.374 . S
C1117 H1097 0.950 . S
C1117 C1113 1.385 . S
C1117 C1116 1.374 . S
C1118 C1115 1.499 . S
C1118 C1119 1.373 . S
C1118 C1120 1.389 . S
C1119 H1098 0.950 . S
C1119 C1118 1.373 . S
C1119 C1135 1.377 . S
C1120 C1118 1.389 . S
C1120 C1121 1.524 . S
C1120 C1134 1.377 . S
C1121 C1120 1.524 . S
C1121 C1122 1.397 . S
C1121 C1126 1.363 . S
C1122 H1099 0.950 . S
C1122 C1121 1.397 . S
C1122 C1123 1.334 . S
C1123 H1100 0.950 . S
C1123 C1122 1.334 . S
C1123 C1124 1.287 . S
C1124 C1123 1.287 . S
C1124 C1125 1.524 . S
C1124 H1143 0.913 . S
C1125 H1101 0.950 . S
C1125 C1124 1.524 . S
C1125 C1126 1.415 . S
C1126 H1102 0.950 . S
C1126 C1121 1.363 . S
C1126 C1125 1.415 . S
C1127 H1103 0.951 . S
C1127 C1128 1.366 . S
C1127 C1129 1.388 . S
C1128 C1127 1.366 . S
C1128 C1132 1.385 . S
C1129 H1104 0.951 . S
C1129 C1127 1.388 . S
C1129 C1130 1.366 . S
C1130 C1129 1.366 . S
C1130 C1131 1.414 . S
C1130 C1133 1.499 . S
C1131 H1105 0.950 . S
C1131 C1130 1.414 . S
C1131 C1132 1.374 . S
C1132 H1106 0.950 . S
C1132 C1128 1.385 . S
C1132 C1131 1.374 . S
C1133 C1130 1.499 . S
C1133 C1134 1.373 . S
C1133 C1135 1.389 . S
C1134 H1107 0.950 . S
C1134 C1120 1.377 . S
C1134 C1133 1.373 . S
C1135 C1119 1.377 . S
C1135 C1133 1.389 . S
C1135 C1136 1.524 . S
C1136 C1135 1.524 . S
C1136 C1137 1.397 . S
C1136 C1141 1.363 . S
C1137 H1108 0.950 . S
C1137 C1136 1.397 . S
C1137 C1138 1.334 . S
C1138 H1109 0.950 . S
C1138 C1137 1.334 . S
C1138 C1139 1.287 . S
C1139 C1138 1.287 . S
C1139 C1140 1.524 . S
C1139 H1142 0.999 . S
C1140 H1110 0.950 . S
C1140 C1139 1.524 . S
C1140 C1141 1.415 . S
C1141 H1111 0.950 . S
C1141 C1136 1.363 . S
C1141 C1140 1.415 . S
H1142 C1139 0.999 . S
H1143 C1124 0.913 . S
H1144 C1162 0.951 . S
H1145 C1164 0.951 . S
H1146 C1166 0.950 . S
H1147 C1167 0.950 . S
H1148 C1169 0.950 . S
H1149 C1172 0.950 . S
H1150 C1173 0.950 . S
H1151 C1175 0.950 . S
H1152 C1176 0.950 . S
H1153 C1177 0.951 . S
H1154 C1179 0.951 . S
H1155 C1181 0.950 . S
H1156 C1182 0.950 . S
H1157 C1184 0.950 . S
H1158 C1187 0.950 . S
H1159 C1188 0.950 . S
H1160 C1190 0.950 . S
H1161 C1191 0.950 . S
C1162 H1144 0.951 . S
C1162 C1163 1.366 . S
C1162 C1164 1.388 . S
C1163 C1162 1.366 . S
C1163 C1167 1.385 . S
C1164 H1145 0.951 . S
C1164 C1162 1.388 . S
C1164 C1165 1.366 . S
C1165 C1164 1.366 . S
C1165 C1166 1.414 . S
C1165 C1168 1.499 . S
C1166 H1146 0.950 . S
C1166 C1165 1.414 . S
C1166 C1167 1.374 . S
C1167 H1147 0.950 . S
C1167 C1163 1.385 . S
C1167 C1166 1.374 . S
C1168 C1165 1.499 . S
C1168 C1169 1.373 . S
C1168 C1170 1.389 . S
C1169 H1148 0.950 . S
C1169 C1168 1.373 . S
C1169 C1185 1.377 . S
C1170 C1168 1.389 . S
C1170 C1171 1.524 . S
C1170 C1184 1.377 . S
C1171 C1170 1.524 . S
C1171 C1172 1.397 . S
C1171 C1176 1.363 . S
C1172 H1149 0.950 . S
C1172 C1171 1.397 . S
C1172 C1173 1.334 . S
C1173 H1150 0.950 . S
C1173 C1172 1.334 . S
C1173 C1174 1.287 . S
C1174 C1173 1.287 . S
C1174 C1175 1.524 . S
C1174 H1193 0.913 . S
C1175 H1151 0.950 . S
C1175 C1174 1.524 . S
C1175 C1176 1.415 . S
C1176 H1152 0.950 . S
C1176 C1171 1.363 . S
C1176 C1175 1.415 . S
C1177 H1153 0.951 . S
C1177 C1178 1.366 . S
C1177 C1179 1.388 . S
C1178 C1177 1.366 . S
C1178 C1182 1.385 . S
C1179 H1154 0.951 . S
C1179 C1177 1.388 . S
C1179 C1180 1.366 . S
C1180 C1179 1.366 . S
C1180 C1181 1.414 . S
C1180 C1183 1.499 . S
C1181 H1155 0.950 . S
C1181 C1180 1.414 . S
C1181 C1182 1.374 . S
C1182 H1156 0.950 . S
C1182 C1178 1.385 . S
C1182 C1181 1.374 . S
C1183 C1180 1.499 . S
C1183 C1184 1.373 . S
C1183 C1185 1.389 . S
C1184 H1157 0.950 . S
C1184 C1170 1.377 . S
C1184 C1183 1.373 . S
C1185 C1169 1.377 . S
C1185 C1183 1.389 . S
C1185 C1186 1.524 . S
C1186 C1185 1.524 . S
C1186 C1187 1.397 . S
C1186 C1191 1.363 . S
C1187 H1158 0.950 . S
C1187 C1186 1.397 . S
C1187 C1188 1.334 . S
C1188 H1159 0.950 . S
C1188 C1187 1.334 . S
C1188 C1189 1.287 . S
C1189 C1188 1.287 . S
C1189 C1190 1.524 . S
C1189 H1192 0.999 . S
C1190 H1160 0.950 . S
C1190 C1189 1.524 . S
C1190 C1191 1.415 . S
C1191 H1161 0.950 . S
C1191 C1186 1.363 . S
C1191 C1190 1.415 . S
H1192 C1189 0.999 . S
H1193 C1174 0.913 . S
H1194 C1212 0.951 . S
H1195 C1214 0.951 . S
H1196 C1216 0.950 . S
H1197 C1217 0.950 . S
H1198 C1219 0.950 . S
H1199 C1222 0.950 . S
H1200 C1223 0.950 . S
H1201 C1225 0.950 . S
H1202 C1226 0.950 . S
H1203 C1227 0.951 . S
H1204 C1229 0.951 . S
H1205 C1231 0.950 . S
H1206 C1232 0.950 . S
H1207 C1234 0.950 . S
H1208 C1237 0.950 . S
H1209 C1238 0.950 . S
H1210 C1240 0.950 . S
H1211 C1241 0.950 . S
C1212 H1194 0.951 . S
C1212 C1213 1.366 . S
C1212 C1214 1.388 . S
C1213 C1212 1.366 . S
C1213 C1217 1.385 . S
C1214 H1195 0.951 . S
C1214 C1212 1.388 . S
C1214 C1215 1.366 . S
C1215 C1214 1.366 . S
C1215 C1216 1.414 . S
C1215 C1218 1.499 . S
C1216 H1196 0.950 . S
C1216 C1215 1.414 . S
C1216 C1217 1.374 . S
C1217 H1197 0.950 . S
C1217 C1213 1.385 . S
C1217 C1216 1.374 . S
C1218 C1215 1.499 . S
C1218 C1219 1.373 . S
C1218 C1220 1.389 . S
C1219 H1198 0.950 . S
C1219 C1218 1.373 . S
C1219 C1235 1.377 . S
C1220 C1218 1.389 . S
C1220 C1221 1.524 . S
C1220 C1234 1.377 . S
C1221 C1220 1.524 . S
C1221 C1222 1.397 . S
C1221 C1226 1.363 . S
C1222 H1199 0.950 . S
C1222 C1221 1.397 . S
C1222 C1223 1.334 . S
C1223 H1200 0.950 . S
C1223 C1222 1.334 . S
C1223 C1224 1.287 . S
C1224 C1223 1.287 . S
C1224 C1225 1.524 . S
C1224 H1243 0.913 . S
C1225 H1201 0.950 . S
C1225 C1224 1.524 . S
C1225 C1226 1.415 . S
C1226 H1202 0.950 . S
C1226 C1221 1.363 . S
C1226 C1225 1.415 . S
C1227 H1203 0.951 . S
C1227 C1228 1.366 . S
C1227 C1229 1.388 . S
C1228 C1227 1.366 . S
C1228 C1232 1.385 . S
C1229 H1204 0.951 . S
C1229 C1227 1.388 . S
C1229 C1230 1.366 . S
C1230 C1229 1.366 . S
C1230 C1231 1.414 . S
C1230 C1233 1.499 . S
C1231 H1205 0.950 . S
C1231 C1230 1.414 . S
C1231 C1232 1.374 . S
C1232 H1206 0.950 . S
C1232 C1228 1.385 . S
C1232 C1231 1.374 . S
C1233 C1230 1.499 . S
C1233 C1234 1.373 . S
C1233 C1235 1.389 . S
C1234 H1207 0.950 . S
C1234 C1220 1.377 . S
C1234 C1233 1.373 . S
C1235 C1219 1.377 . S
C1235 C1233 1.389 . S
C1235 C1236 1.524 . S
C1236 C1235 1.524 . S
C1236 C1237 1.397 . S
C1236 C1241 1.363 . S
C1237 H1208 0.950 . S
C1237 C1236 1.397 . S
C1237 C1238 1.334 . S
C1238 H1209 0.950 . S
C1238 C1237 1.334 . S
C1238 C1239 1.287 . S
C1239 C1238 1.287 . S
C1239 C1240 1.524 . S
C1239 H1242 0.999 . S
C1240 H1210 0.950 . S
C1240 C1239 1.524 . S
C1240 C1241 1.415 . S
C1241 H1211 0.950 . S
C1241 C1236 1.363 . S
C1241 C1240 1.415 . S
H1242 C1239 0.999 . S
H1243 C1224 0.913 . S
H1244 C1262 0.951 . S
H1245 C1264 0.951 . S
H1246 C1266 0.950 . S
H1247 C1267 0.950 . S
H1248 C1269 0.950 . S
H1249 C1272 0.950 . S
H1250 C1273 0.950 . S
H1251 C1275 0.950 . S
H1252 C1276 0.950 . S
H1253 C1277 0.951 . S
H1254 C1279 0.951 . S
H1255 C1281 0.950 . S
H1256 C1282 0.950 . S
H1257 C1284 0.950 . S
H1258 C1287 0.950 . S
H1259 C1288 0.950 . S
H1260 C1290 0.950 . S
H1261 C1291 0.950 . S
C1262 H1244 0.951 . S
C1262 C1263 1.366 . S
C1262 C1264 1.388 . S
C1263 C1262 1.366 . S
C1263 C1267 1.385 . S
C1264 H1245 0.951 . S
C1264 C1262 1.388 . S
C1264 C1265 1.366 . S
C1265 C1264 1.366 . S
C1265 C1266 1.414 . S
C1265 C1268 1.499 . S
C1266 H1246 0.950 . S
C1266 C1265 1.414 . S
C1266 C1267 1.374 . S
C1267 H1247 0.950 . S
C1267 C1263 1.385 . S
C1267 C1266 1.374 . S
C1268 C1265 1.499 . S
C1268 C1269 1.373 . S
C1268 C1270 1.389 . S
C1269 H1248 0.950 . S
C1269 C1268 1.373 . S
C1269 C1285 1.377 . S
C1270 C1268 1.389 . S
C1270 C1271 1.524 . S
C1270 C1284 1.377 . S
C1271 C1270 1.524 . S
C1271 C1272 1.397 . S
C1271 C1276 1.363 . S
C1272 H1249 0.950 . S
C1272 C1271 1.397 . S
C1272 C1273 1.334 . S
C1273 H1250 0.950 . S
C1273 C1272 1.334 . S
C1273 C1274 1.287 . S
C1274 C1273 1.287 . S
C1274 C1275 1.524 . S
C1274 H1293 0.913 . S
C1275 H1251 0.950 . S
C1275 C1274 1.524 . S
C1275 C1276 1.415 . S
C1276 H1252 0.950 . S
C1276 C1271 1.363 . S
C1276 C1275 1.415 . S
C1277 H1253 0.951 . S
C1277 C1278 1.366 . S
C1277 C1279 1.388 . S
C1278 C1277 1.366 . S
C1278 C1282 1.385 . S
C1279 H1254 0.951 . S
C1279 C1277 1.388 . S
C1279 C1280 1.366 . S
C1280 C1279 1.366 . S
C1280 C1281 1.414 . S
C1280 C1283 1.499 . S
C1281 H1255 0.950 . S
C1281 C1280 1.414 . S
C1281 C1282 1.374 . S
C1282 H1256 0.950 . S
C1282 C1278 1.385 . S
C1282 C1281 1.374 . S
C1283 C1280 1.499 . S
C1283 C1284 1.373 . S
C1283 C1285 1.389 . S
C1284 H1257 0.950 . S
C1284 C1270 1.377 . S
C1284 C1283 1.373 . S
C1285 C1269 1.377 . S
C1285 C1283 1.389 . S
C1285 C1286 1.524 . S
C1286 C1285 1.524 . S
C1286 C1287 1.397 . S
C1286 C1291 1.363 . S
C1287 H1258 0.950 . S
C1287 C1286 1.397 . S
C1287 C1288 1.334 . S
C1288 H1259 0.950 . S
C1288 C1287 1.334 . S
C1288 C1289 1.287 . S
C1289 C1288 1.287 . S
C1289 C1290 1.524 . S
C1289 H1292 0.999 . S
C1290 H1260 0.950 . S
C1290 C1289 1.524 . S
C1290 C1291 1.415 . S
C1291 H1261 0.950 . S
C1291 C1286 1.363 . S
C1291 C1290 1.415 . S
H1292 C1289 0.999 . S
H1293 C1274 0.913 . S
H1294 C1312 0.951 . S
H1295 C1314 0.951 . S
H1296 C1316 0.950 . S
H1297 C1317 0.950 . S
H1298 C1319 0.950 . S
H1299 C1322 0.950 . S
H1300 C1323 0.950 . S
H1301 C1325 0.950 . S
H1302 C1326 0.950 . S
H1303 C1327 0.951 . S
H1304 C1329 0.951 . S
H1305 C1331 0.950 . S
H1306 C1332 0.950 . S
H1307 C1334 0.950 . S
H1308 C1337 0.950 . S
H1309 C1338 0.950 . S
H1310 C1340 0.950 . S
H1311 C1341 0.950 . S
C1312 H1294 0.951 . S
C1312 C1313 1.366 . S
C1312 C1314 1.388 . S
C1313 C1312 1.366 . S
C1313 C1317 1.385 . S
C1314 H1295 0.951 . S
C1314 C1312 1.388 . S
C1314 C1315 1.366 . S
C1315 C1314 1.366 . S
C1315 C1316 1.414 . S
C1315 C1318 1.499 . S
C1316 H1296 0.950 . S
C1316 C1315 1.414 . S
C1316 C1317 1.374 . S
C1317 H1297 0.950 . S
C1317 C1313 1.385 . S
C1317 C1316 1.374 . S
C1318 C1315 1.499 . S
C1318 C1319 1.373 . S
C1318 C1320 1.389 . S
C1319 H1298 0.950 . S
C1319 C1318 1.373 . S
C1319 C1335 1.377 . S
C1320 C1318 1.389 . S
C1320 C1321 1.524 . S
C1320 C1334 1.377 . S
C1321 C1320 1.524 . S
C1321 C1322 1.397 . S
C1321 C1326 1.363 . S
C1322 H1299 0.950 . S
C1322 C1321 1.397 . S
C1322 C1323 1.334 . S
C1323 H1300 0.950 . S
C1323 C1322 1.334 . S
C1323 C1324 1.287 . S
C1324 C1323 1.287 . S
C1324 C1325 1.524 . S
C1324 H1343 0.913 . S
C1325 H1301 0.950 . S
C1325 C1324 1.524 . S
C1325 C1326 1.415 . S
C1326 H1302 0.950 . S
C1326 C1321 1.363 . S
C1326 C1325 1.415 . S
C1327 H1303 0.951 . S
C1327 C1328 1.366 . S
C1327 C1329 1.388 . S
C1328 C1327 1.366 . S
C1328 C1332 1.385 . S
C1329 H1304 0.951 . S
C1329 C1327 1.388 . S
C1329 C1330 1.366 . S
C1330 C1329 1.366 . S
C1330 C1331 1.414 . S
C1330 C1333 1.499 . S
C1331 H1305 0.950 . S
C1331 C1330 1.414 . S
C1331 C1332 1.374 . S
C1332 H1306 0.950 . S
C1332 C1328 1.385 . S
C1332 C1331 1.374 . S
C1333 C1330 1.499 . S
C1333 C1334 1.373 . S
C1333 C1335 1.389 . S
C1334 H1307 0.950 . S
C1334 C1320 1.377 . S
C1334 C1333 1.373 . S
C1335 C1319 1.377 . S
C1335 C1333 1.389 . S
C1335 C1336 1.524 . S
C1336 C1335 1.524 . S
C1336 C1337 1.397 . S
C1336 C1341 1.363 . S
C1337 H1308 0.950 . S
C1337 C1336 1.397 . S
C1337 C1338 1.334 . S
C1338 H1309 0.950 . S
C1338 C1337 1.334 . S
C1338 C1339 1.287 . S
C1339 C1338 1.287 . S
C1339 C1340 1.524 . S
C1339 H1342 0.999 . S
C1340 H1310 0.950 . S
C1340 C1339 1.524 . S
C1340 C1341 1.415 . S
C1341 H1311 0.950 . S
C1341 C1336 1.363 . S
C1341 C1340 1.415 . S
H1342 C1339 0.999 . S
H1343 C1324 0.913 . S
H1344 C1362 0.951 . S
H1345 C1364 0.951 . S
H1346 C1366 0.950 . S
H1347 C1367 0.950 . S
H1348 C1369 0.950 . S
H1349 C1372 0.950 . S
H1350 C1373 0.950 . S
H1351 C1375 0.950 . S
H1352 C1376 0.950 . S
H1353 C1377 0.951 . S
H1354 C1379 0.951 . S
H1355 C1381 0.950 . S
H1356 C1382 0.950 . S
H1357 C1384 0.950 . S
H1358 C1387 0.950 . S
H1359 C1388 0.950 . S
H1360 C1390 0.950 . S
H1361 C1391 0.950 . S
C1362 H1344 0.951 . S
C1362 C1363 1.366 . S
C1362 C1364 1.388 . S
C1363 C1362 1.366 . S
C1363 C1367 1.385 . S
C1364 H1345 0.951 . S
C1364 C1362 1.388 . S
C1364 C1365 1.366 . S
C1365 C1364 1.366 . S
C1365 C1366 1.414 . S
C1365 C1368 1.499 . S
C1366 H1346 0.950 . S
C1366 C1365 1.414 . S
C1366 C1367 1.374 . S
C1367 H1347 0.950 . S
C1367 C1363 1.385 . S
C1367 C1366 1.374 . S
C1368 C1365 1.499 . S
C1368 C1369 1.373 . S
C1368 C1370 1.389 . S
C1369 H1348 0.950 . S
C1369 C1368 1.373 . S
C1369 C1385 1.377 . S
C1370 C1368 1.389 . S
C1370 C1371 1.524 . S
C1370 C1384 1.377 . S
C1371 C1370 1.524 . S
C1371 C1372 1.397 . S
C1371 C1376 1.363 . S
C1372 H1349 0.950 . S
C1372 C1371 1.397 . S
C1372 C1373 1.334 . S
C1373 H1350 0.950 . S
C1373 C1372 1.334 . S
C1373 C1374 1.287 . S
C1374 C1373 1.287 . S
C1374 C1375 1.524 . S
C1374 H1393 0.913 . S
C1375 H1351 0.950 . S
C1375 C1374 1.524 . S
C1375 C1376 1.415 . S
C1376 H1352 0.950 . S
C1376 C1371 1.363 . S
C1376 C1375 1.415 . S
C1377 H1353 0.951 . S
C1377 C1378 1.366 . S
C1377 C1379 1.388 . S
C1378 C1377 1.366 . S
C1378 C1382 1.385 . S
C1379 H1354 0.951 . S
C1379 C1377 1.388 . S
C1379 C1380 1.366 . S
C1380 C1379 1.366 . S
C1380 C1381 1.414 . S
C1380 C1383 1.499 . S
C1381 H1355 0.950 . S
C1381 C1380 1.414 . S
C1381 C1382 1.374 . S
C1382 H1356 0.950 . S
C1382 C1378 1.385 . S
C1382 C1381 1.374 . S
C1383 C1380 1.499 . S
C1383 C1384 1.373 . S
C1383 C1385 1.389 . S
C1384 H1357 0.950 . S
C1384 C1370 1.377 . S
C1384 C1383 1.373 . S
C1385 C1369 1.377 . S
C1385 C1383 1.389 . S
C1385 C1386 1.524 . S
C1386 C1385 1.524 . S
C1386 C1387 1.397 . S
C1386 C1391 1.363 . S
C1387 H1358 0.950 . S
C1387 C1386 1.397 . S
C1387 C1388 1.334 . S
C1388 H1359 0.950 . S
C1388 C1387 1.334 . S
C1388 C1389 1.287 . S
C1389 C1388 1.287 . S
C1389 C1390 1.524 . S
C1389 H1392 0.999 . S
C1390 H1360 0.950 . S
C1390 C1389 1.524 . S
C1390 C1391 1.415 . S
C1391 H1361 0.950 . S
C1391 C1386 1.363 . S
C1391 C1390 1.415 . S
H1392 C1389 0.999 . S
H1393 C1374 0.913 . S
H1394 C1412 0.951 . S
H1395 C1414 0.951 . S
H1396 C1416 0.950 . S
H1397 C1417 0.950 . S
H1398 C1419 0.950 . S
H1399 C1422 0.950 . S
H1400 C1423 0.950 . S
H1401 C1425 0.950 . S
H1402 C1426 0.950 . S
H1403 C1427 0.951 . S
H1404 C1429 0.951 . S
H1405 C1431 0.950 . S
H1406 C1432 0.950 . S
H1407 C1434 0.950 . S
H1408 C1437 0.950 . S
H1409 C1438 0.950 . S
H1410 C1440 0.950 . S
H1411 C1441 0.950 . S
C1412 H1394 0.951 . S
C1412 C1413 1.366 . S
C1412 C1414 1.388 . S
C1413 C1412 1.366 . S
C1413 C1417 1.385 . S
C1414 H1395 0.951 . S
C1414 C1412 1.388 . S
C1414 C1415 1.366 . S
C1415 C1414 1.366 . S
C1415 C1416 1.414 . S
C1415 C1418 1.499 . S
C1416 H1396 0.950 . S
C1416 C1415 1.414 . S
C1416 C1417 1.374 . S
C1417 H1397 0.950 . S
C1417 C1413 1.385 . S
C1417 C1416 1.374 . S
C1418 C1415 1.499 . S
C1418 C1419 1.373 . S
C1418 C1420 1.389 . S
C1419 H1398 0.950 . S
C1419 C1418 1.373 . S
C1419 C1435 1.377 . S
C1420 C1418 1.389 . S
C1420 C1421 1.524 . S
C1420 C1434 1.377 . S
C1421 C1420 1.524 . S
C1421 C1422 1.397 . S
C1421 C1426 1.363 . S
C1422 H1399 0.950 . S
C1422 C1421 1.397 . S
C1422 C1423 1.334 . S
C1423 H1400 0.950 . S
C1423 C1422 1.334 . S
C1423 C1424 1.287 . S
C1424 C1423 1.287 . S
C1424 C1425 1.524 . S
C1424 H1443 0.913 . S
C1425 H1401 0.950 . S
C1425 C1424 1.524 . S
C1425 C1426 1.415 . S
C1426 H1402 0.950 . S
C1426 C1421 1.363 . S
C1426 C1425 1.415 . S
C1427 H1403 0.951 . S
C1427 C1428 1.366 . S
C1427 C1429 1.388 . S
C1428 C1427 1.366 . S
C1428 C1432 1.385 . S
C1429 H1404 0.951 . S
C1429 C1427 1.388 . S
C1429 C1430 1.366 . S
C1430 C1429 1.366 . S
C1430 C1431 1.414 . S
C1430 C1433 1.499 . S
C1431 H1405 0.950 . S
C1431 C1430 1.414 . S
C1431 C1432 1.374 . S
C1432 H1406 0.950 . S
C1432 C1428 1.385 . S
C1432 C1431 1.374 . S
C1433 C1430 1.499 . S
C1433 C1434 1.373 . S
C1433 C1435 1.389 . S
C1434 H1407 0.950 . S
C1434 C1420 1.377 . S
C1434 C1433 1.373 . S
C1435 C1419 1.377 . S
C1435 C1433 1.389 . S
C1435 C1436 1.524 . S
C1436 C1435 1.524 . S
C1436 C1437 1.397 . S
C1436 C1441 1.363 . S
C1437 H1408 0.950 . S
C1437 C1436 1.397 . S
C1437 C1438 1.334 . S
C1438 H1409 0.950 . S
C1438 C1437 1.334 . S
C1438 C1439 1.287 . S
C1439 C1438 1.287 . S
C1439 C1440 1.524 . S
C1439 H1442 0.999 . S
C1440 H1410 0.950 . S
C1440 C1439 1.524 . S
C1440 C1441 1.415 . S
C1441 H1411 0.950 . S
C1441 C1436 1.363 . S
C1441 C1440 1.415 . S
H1442 C1439 0.999 . S
H1443 C1424 0.913 . S
H1444 C1462 0.951 . S
H1445 C1464 0.951 . S
H1446 C1466 0.950 . S
H1447 C1467 0.950 . S
H1448 C1469 0.950 . S
H1449 C1472 0.950 . S
H1450 C1473 0.950 . S
H1451 C1475 0.950 . S
H1452 C1476 0.950 . S
H1453 C1477 0.951 . S
H1454 C1479 0.951 . S
H1455 C1481 0.950 . S
H1456 C1482 0.950 . S
H1457 C1484 0.950 . S
H1458 C1487 0.950 . S
H1459 C1488 0.950 . S
H1460 C1490 0.950 . S
H1461 C1491 0.950 . S
C1462 H1444 0.951 . S
C1462 C1463 1.366 . S
C1462 C1464 1.388 . S
C1463 C1462 1.366 . S
C1463 C1467 1.385 . S
C1464 H1445 0.951 . S
C1464 C1462 1.388 . S
C1464 C1465 1.366 . S
C1465 C1464 1.366 . S
C1465 C1466 1.414 . S
C1465 C1468 1.499 . S
C1466 H1446 0.950 . S
C1466 C1465 1.414 . S
C1466 C1467 1.374 . S
C1467 H1447 0.950 . S
C1467 C1463 1.385 . S
C1467 C1466 1.374 . S
C1468 C1465 1.499 . S
C1468 C1469 1.373 . S
C1468 C1470 1.389 . S
C1469 H1448 0.950 . S
C1469 C1468 1.373 . S
C1469 C1485 1.377 . S
C1470 C1468 1.389 . S
C1470 C1471 1.524 . S
C1470 C1484 1.377 . S
C1471 C1470 1.524 . S
C1471 C1472 1.397 . S
C1471 C1476 1.363 . S
C1472 H1449 0.950 . S
C1472 C1471 1.397 . S
C1472 C1473 1.334 . S
C1473 H1450 0.950 . S
C1473 C1472 1.334 . S
C1473 C1474 1.287 . S
C1474 C1473 1.287 . S
C1474 C1475 1.524 . S
C1474 H1493 0.913 . S
C1475 H1451 0.950 . S
C1475 C1474 1.524 . S
C1475 C1476 1.415 . S
C1476 H1452 0.950 . S
C1476 C1471 1.363 . S
C1476 C1475 1.415 . S
C1477 H1453 0.951 . S
C1477 C1478 1.366 . S
C1477 C1479 1.388 . S
C1478 C1477 1.366 . S
C1478 C1482 1.385 . S
C1479 H1454 0.951 . S
C1479 C1477 1.388 . S
C1479 C1480 1.366 . S
C1480 C1479 1.366 . S
C1480 C1481 1.414 . S
C1480 C1483 1.499 . S
C1481 H1455 0.950 . S
C1481 C1480 1.414 . S
C1481 C1482 1.374 . S
C1482 H1456 0.950 . S
C1482 C1478 1.385 . S
C1482 C1481 1.374 . S
C1483 C1480 1.499 . S
C1483 C1484 1.373 . S
C1483 C1485 1.389 . S
C1484 H1457 0.950 . S
C1484 C1470 1.377 . S
C1484 C1483 1.373 . S
C1485 C1469 1.377 . S
C1485 C1483 1.389 . S
C1485 C1486 1.524 . S
C1486 C1485 1.524 . S
C1486 C1487 1.397 . S
C1486 C1491 1.363 . S
C1487 H1458 0.950 . S
C1487 C1486 1.397 . S
C1487 C1488 1.334 . S
C1488 H1459 0.950 . S
C1488 C1487 1.334 . S
C1488 C1489 1.287 . S
C1489 C1488 1.287 . S
C1489 C1490 1.524 . S
C1489 H1492 0.999 . S
C1490 H1460 0.950 . S
C1490 C1489 1.524 . S
C1490 C1491 1.415 . S
C1491 H1461 0.950 . S
C1491 C1486 1.363 . S
C1491 C1490 1.415 . S
H1492 C1489 0.999 . S
H1493 C1474 0.913 . S
H1494 C1512 0.951 . S
H1495 C1514 0.951 . S
H1496 C1516 0.950 . S
H1497 C1517 0.950 . S
H1498 C1519 0.950 . S
H1499 C1522 0.950 . S
H1500 C1523 0.950 . S
H1501 C1525 0.950 . S
H1502 C1526 0.950 . S
H1503 C1527 0.951 . S
H1504 C1529 0.951 . S
H1505 C1531 0.950 . S
H1506 C1532 0.950 . S
H1507 C1534 0.950 . S
H1508 C1537 0.950 . S
H1509 C1538 0.950 . S
H1510 C1540 0.950 . S
H1511 C1541 0.950 . S
C1512 H1494 0.951 . S
C1512 C1513 1.366 . S
C1512 C1514 1.388 . S
C1513 C1512 1.366 . S
C1513 C1517 1.385 . S
C1514 H1495 0.951 . S
C1514 C1512 1.388 . S
C1514 C1515 1.366 . S
C1515 C1514 1.366 . S
C1515 C1516 1.414 . S
C1515 C1518 1.499 . S
C1516 H1496 0.950 . S
C1516 C1515 1.414 . S
C1516 C1517 1.374 . S
C1517 H1497 0.950 . S
C1517 C1513 1.385 . S
C1517 C1516 1.374 . S
C1518 C1515 1.499 . S
C1518 C1519 1.373 . S
C1518 C1520 1.389 . S
C1519 H1498 0.950 . S
C1519 C1518 1.373 . S
C1519 C1535 1.377 . S
C1520 C1518 1.389 . S
C1520 C1521 1.524 . S
C1520 C1534 1.377 . S
C1521 C1520 1.524 . S
C1521 C1522 1.397 . S
C1521 C1526 1.363 . S
C1522 H1499 0.950 . S
C1522 C1521 1.397 . S
C1522 C1523 1.334 . S
C1523 H1500 0.950 . S
C1523 C1522 1.334 . S
C1523 C1524 1.287 . S
C1524 C1523 1.287 . S
C1524 C1525 1.524 . S
C1524 H1543 0.913 . S
C1525 H1501 0.950 . S
C1525 C1524 1.524 . S
C1525 C1526 1.415 . S
C1526 H1502 0.950 . S
C1526 C1521 1.363 . S
C1526 C1525 1.415 . S
C1527 H1503 0.951 . S
C1527 C1528 1.366 . S
C1527 C1529 1.388 . S
C1528 C1527 1.366 . S
C1528 C1532 1.385 . S
C1529 H1504 0.951 . S
C1529 C1527 1.388 . S
C1529 C1530 1.366 . S
C1530 C1529 1.366 . S
C1530 C1531 1.414 . S
C1530 C1533 1.499 . S
C1531 H1505 0.950 . S
C1531 C1530 1.414 . S
C1531 C1532 1.374 . S
C1532 H1506 0.950 . S
C1532 C1528 1.385 . S
C1532 C1531 1.374 . S
C1533 C1530 1.499 . S
C1533 C1534 1.373 . S
C1533 C1535 1.389 . S
C1534 H1507 0.950 . S
C1534 C1520 1.377 . S
C1534 C1533 1.373 . S
C1535 C1519 1.377 . S
C1535 C1533 1.389 . S
C1535 C1536 1.524 . S
C1536 C1535 1.524 . S
C1536 C1537 1.397 . S
C1536 C1541 1.363 . S
C1537 H1508 0.950 . S
C1537 C1536 1.397 . S
C1537 C1538 1.334 . S
C1538 H1509 0.950 . S
C1538 C1537 1.334 . S
C1538 C1539 1.287 . S
C1539 C1538 1.287 . S
C1539 C1540 1.524 . S
C1539 H1542 0.999 . S
C1540 H1510 0.950 . S
C1540 C1539 1.524 . S
C1540 C1541 1.415 . S
C1541 H1511 0.950 . S
C1541 C1536 1.363 . S
C1541 C1540 1.415 . S
H1542 C1539 0.999 . S
H1543 C1524 0.913 . S
H1544 C1562 0.951 . S
H1545 C1564 0.951 . S
H1546 C1566 0.950 . S
H1547 C1567 0.950 . S
H1548 C1569 0.950 . S
H1549 C1572 0.950 . S
H1550 C1573 0.950 . S
H1551 C1575 0.950 . S
H1552 C1576 0.950 . S
H1553 C1577 0.951 . S
H1554 C1579 0.951 . S
H1555 C1581 0.950 . S
H1556 C1582 0.950 . S
H1557 C1584 0.950 . S
H1558 C1587 0.950 . S
H1559 C1588 0.950 . S
H1560 C1590 0.950 . S
H1561 C1591 0.950 . S
C1562 H1544 0.951 . S
C1562 C1563 1.366 . S
C1562 C1564 1.388 . S
C1563 C1562 1.366 . S
C1563 C1567 1.385 . S
C1564 H1545 0.951 . S
C1564 C1562 1.388 . S
C1564 C1565 1.366 . S
C1565 C1564 1.366 . S
C1565 C1566 1.414 . S
C1565 C1568 1.499 . S
C1566 H1546 0.950 . S
C1566 C1565 1.414 . S
C1566 C1567 1.374 . S
C1567 H1547 0.950 . S
C1567 C1563 1.385 . S
C1567 C1566 1.374 . S
C1568 C1565 1.499 . S
C1568 C1569 1.373 . S
C1568 C1570 1.389 . S
C1569 H1548 0.950 . S
C1569 C1568 1.373 . S
C1569 C1585 1.377 . S
C1570 C1568 1.389 . S
C1570 C1571 1.524 . S
C1570 C1584 1.377 . S
C1571 C1570 1.524 . S
C1571 C1572 1.397 . S
C1571 C1576 1.363 . S
C1572 H1549 0.950 . S
C1572 C1571 1.397 . S
C1572 C1573 1.334 . S
C1573 H1550 0.950 . S
C1573 C1572 1.334 . S
C1573 C1574 1.287 . S
C1574 C1573 1.287 . S
C1574 C1575 1.524 . S
C1574 H1593 0.913 . S
C1575 H1551 0.950 . S
C1575 C1574 1.524 . S
C1575 C1576 1.415 . S
C1576 H1552 0.950 . S
C1576 C1571 1.363 . S
C1576 C1575 1.415 . S
C1577 H1553 0.951 . S
C1577 C1578 1.366 . S
C1577 C1579 1.388 . S
C1578 C1577 1.366 . S
C1578 C1582 1.385 . S
C1579 H1554 0.951 . S
C1579 C1577 1.388 . S
C1579 C1580 1.366 . S
C1580 C1579 1.366 . S
C1580 C1581 1.414 . S
C1580 C1583 1.499 . S
C1581 H1555 0.950 . S
C1581 C1580 1.414 . S
C1581 C1582 1.374 . S
C1582 H1556 0.950 . S
C1582 C1578 1.385 . S
C1582 C1581 1.374 . S
C1583 C1580 1.499 . S
C1583 C1584 1.373 . S
C1583 C1585 1.389 . S
C1584 H1557 0.950 . S
C1584 C1570 1.377 . S
C1584 C1583 1.373 . S
C1585 C1569 1.377 . S
C1585 C1583 1.389 . S
C1585 C1586 1.524 . S
C1586 C1585 1.524 . S
C1586 C1587 1.397 . S
C1586 C1591 1.363 . S
C1587 H1558 0.950 . S
C1587 C1586 1.397 . S
C1587 C1588 1.334 . S
C1588 H1559 0.950 . S
C1588 C1587 1.334 . S
C1588 C1589 1.287 . S
C1589 C1588 1.287 . S
C1589 C1590 1.524 . S
C1589 H1592 0.999 . S
C1590 H1560 0.950 . S
C1590 C1589 1.524 . S
C1590 C1591 1.415 . S
C1591 H1561 0.950 . S
C1591 C1586 1.363 . S
C1591 C1590 1.415 . S
H1592 C1589 0.999 . S
H1593 C1574 0.913 . S
H1594 C1612 0.951 . S
H1595 C1614 0.951 . S
H1596 C1616 0.950 . S
H1597 C1617 0.950 . S
H1598 C1619 0.950 . S
H1599 C1622 0.950 . S
H1600 C1623 0.950 . S
H1601 C1625 0.950 . S
H1602 C1626 0.950 . S
H1603 C1627 0.951 . S
H1604 C1629 0.951 . S
H1605 C1631 0.950 . S
H1606 C1632 0.950 . S
H1607 C1634 0.950 . S
H1608 C1637 0.950 . S
H1609 C1638 0.950 . S
H1610 C1640 0.950 . S
H1611 C1641 0.950 . S
C1612 H1594 0.951 . S
C1612 C1613 1.366 . S
C1612 C1614 1.388 . S
C1613 C1612 1.366 . S
C1613 C1617 1.385 . S
C1614 H1595 0.951 . S
C1614 C1612 1.388 . S
C1614 C1615 1.366 . S
C1615 C1614 1.366 . S
C1615 C1616 1.414 . S
C1615 C1618 1.499 . S
C1616 H1596 0.950 . S
C1616 C1615 1.414 . S
C1616 C1617 1.374 . S
C1617 H1597 0.950 . S
C1617 C1613 1.385 . S
C1617 C1616 1.374 . S
C1618 C1615 1.499 . S
C1618 C1619 1.373 . S
C1618 C1620 1.389 . S
C1619 H1598 0.950 . S
C1619 C1618 1.373 . S
C1619 C1635 1.377 . S
C1620 C1618 1.389 . S
C1620 C1621 1.524 . S
C1620 C1634 1.377 . S
C1621 C1620 1.524 . S
C1621 C1622 1.397 . S
C1621 C1626 1.363 . S
C1622 H1599 0.950 . S
C1622 C1621 1.397 . S
C1622 C1623 1.334 . S
C1623 H1600 0.950 . S
C1623 C1622 1.334 . S
C1623 C1624 1.287 . S
C1624 C1623 1.287 . S
C1624 C1625 1.524 . S
C1624 H1643 0.913 . S
C1625 H1601 0.950 . S
C1625 C1624 1.524 . S
C1625 C1626 1.415 . S
C1626 H1602 0.950 . S
C1626 C1621 1.363 . S
C1626 C1625 1.415 . S
C1627 H1603 0.951 . S
C1627 C1628 1.366 . S
C1627 C1629 1.388 . S
C1628 C1627 1.366 . S
C1628 C1632 1.385 . S
C1629 H1604 0.951 . S
C1629 C1627 1.388 . S
C1629 C1630 1.366 . S
C1630 C1629 1.366 . S
C1630 C1631 1.414 . S
C1630 C1633 1.499 . S
C1631 H1605 0.950 . S
C1631 C1630 1.414 . S
C1631 C1632 1.374 . S
C1632 H1606 0.950 . S
C1632 C1628 1.385 . S
C1632 C1631 1.374 . S
C1633 C1630 1.499 . S
C1633 C1634 1.373 . S
C1633 C1635 1.389 . S
C1634 H1607 0.950 . S
C1634 C1620 1.377 . S
C1634 C1633 1.373 . S
C1635 C1619 1.377 . S
C1635 C1633 1.389 . S
C1635 C1636 1.524 . S
C1636 C1635 1.524 . S
C1636 C1637 1.397 . S
C1636 C1641 1.363 . S
C1637 H1608 0.950 . S
C1637 C1636 1.397 . S
C1637 C1638 1.334 . S
C1638 H1609 0.950 . S
C1638 C1637 1.334 . S
C1638 C1639 1.287 . S
C1639 C1638 1.287 . S
C1639 C1640 1.524 . S
C1639 H1642 0.999 . S
C1640 H1610 0.950 . S
C1640 C1639 1.524 . S
C1640 C1641 1.415 . S
C1641 H1611 0.950 . S
C1641 C1636 1.363 . S
C1641 C1640 1.415 . S
H1642 C1639 0.999 . S
H1643 C1624 0.913 . S
H1644 C1662 0.951 . S
H1645 C1664 0.951 . S
H1646 C1666 0.950 . S
H1647 C1667 0.950 . S
H1648 C1669 0.950 . S
H1649 C1672 0.950 . S
H1650 C1673 0.950 . S
H1651 C1675 0.950 . S
H1652 C1676 0.950 . S
H1653 C1677 0.951 . S
H1654 C1679 0.951 . S
H1655 C1681 0.950 . S
H1656 C1682 0.950 . S
H1657 C1684 0.950 . S
H1658 C1687 0.950 . S
H1659 C1688 0.950 . S
H1660 C1690 0.950 . S
H1661 C1691 0.950 . S
C1662 H1644 0.951 . S
C1662 C1663 1.366 . S
C1662 C1664 1.388 . S
C1663 C1662 1.366 . S
C1663 C1667 1.385 . S
C1664 H1645 0.951 . S
C1664 C1662 1.388 . S
C1664 C1665 1.366 . S
C1665 C1664 1.366 . S
C1665 C1666 1.414 . S
C1665 C1668 1.499 . S
C1666 H1646 0.950 . S
C1666 C1665 1.414 . S
C1666 C1667 1.374 . S
C1667 H1647 0.950 . S
C1667 C1663 1.385 . S
C1667 C1666 1.374 . S
C1668 C1665 1.499 . S
C1668 C1669 1.373 . S
C1668 C1670 1.389 . S
C1669 H1648 0.950 . S
C1669 C1668 1.373 . S
C1669 C1685 1.377 . S
C1670 C1668 1.389 . S
C1670 C1671 1.524 . S
C1670 C1684 1.377 . S
C1671 C1670 1.524 . S
C1671 C1672 1.397 . S
C1671 C1676 1.363 . S
C1672 H1649 0.950 . S
C1672 C1671 1.397 . S
C1672 C1673 1.334 . S
C1673 H1650 0.950 . S
C1673 C1672 1.334 . S
C1673 C1674 1.287 . S
C1674 C1673 1.287 . S
C1674 C1675 1.524 . S
C1674 H1693 0.913 . S
C1675 H1651 0.950 . S
C1675 C1674 1.524 . S
C1675 C1676 1.415 . S
C1676 H1652 0.950 . S
C1676 C1671 1.363 . S
C1676 C1675 1.415 . S
C1677 H1653 0.951 . S
C1677 C1678 1.366 . S
C1677 C1679 1.388 . S
C1678 C1677 1.366 . S
C1678 C1682 1.385 . S
C1679 H1654 0.951 . S
C1679 C1677 1.388 . S
C1679 C1680 1.366 . S
C1680 C1679 1.366 . S
C1680 C1681 1.414 . S
C1680 C1683 1.499 . S
C1681 H1655 0.950 . S
C1681 C1680 1.414 . S
C1681 C1682 1.374 . S
C1682 H1656 0.950 . S
C1682 C1678 1.385 . S
C1682 C1681 1.374 . S
C1683 C1680 1.499 . S
C1683 C1684 1.373 . S
C1683 C1685 1.389 . S
C1684 H1657 0.950 . S
C1684 C1670 1.377 . S
C1684 C1683 1.373 . S
C1685 C1669 1.377 . S
C1685 C1683 1.389 . S
C1685 C1686 1.524 . S
C1686 C1685 1.524 . S
C1686 C1687 1.397 . S
C1686 C1691 1.363 . S
C1687 H1658 0.950 . S
C1687 C1686 1.397 . S
C1687 C1688 1.334 . S
C1688 H1659 0.950 . S
C1688 C1687 1.334 . S
C1688 C1689 1.287 . S
C1689 C1688 1.287 . S
C1689 C1690 1.524 . S
C1689 H1692 0.999 . S
C1690 H1660 0.950 . S
C1690 C1689 1.524 . S
C1690 C1691 1.415 . S
C1691 H1661 0.950 . S
C1691 C1686 1.363 . S
C1691 C1690 1.415 . S
H1692 C1689 0.999 . S
H1693 C1674 0.913 . S
H1694 C1712 0.951 . S
H1695 C1714 0.951 . S
H1696 C1716 0.950 . S
H1697 C1717 0.950 . S
H1698 C1719 0.950 . S
H1699 C1722 0.950 . S
H1700 C1723 0.950 . S
H1701 C1725 0.950 . S
H1702 C1726 0.950 . S
H1703 C1727 0.951 . S
H1704 C1729 0.951 . S
H1705 C1731 0.950 . S
H1706 C1732 0.950 . S
H1707 C1734 0.950 . S
H1708 C1737 0.950 . S
H1709 C1738 0.950 . S
H1710 C1740 0.950 . S
H1711 C1741 0.950 . S
C1712 H1694 0.951 . S
C1712 C1713 1.366 . S
C1712 C1714 1.388 . S
C1713 C1712 1.366 . S
C1713 C1717 1.385 . S
C1714 H1695 0.951 . S
C1714 C1712 1.388 . S
C1714 C1715 1.366 . S
C1715 C1714 1.366 . S
C1715 C1716 1.414 . S
C1715 C1718 1.499 . S
C1716 H1696 0.950 . S
C1716 C1715 1.414 . S
C1716 C1717 1.374 . S
C1717 H1697 0.950 . S
C1717 C1713 1.385 . S
C1717 C1716 1.374 . S
C1718 C1715 1.499 . S
C1718 C1719 1.373 . S
C1718 C1720 1.389 . S
C1719 H1698 0.950 . S
C1719 C1718 1.373 . S
C1719 C1735 1.377 . S
C1720 C1718 1.389 . S
C1720 C1721 1.524 . S
C1720 C1734 1.377 . S
C1721 C1720 1.524 . S
C1721 C1722 1.397 . S
C1721 C1726 1.363 . S
C1722 H1699 0.950 . S
C1722 C1721 1.397 . S
C1722 C1723 1.334 . S
C1723 H1700 0.950 . S
C1723 C1722 1.334 . S
C1723 C1724 1.287 . S
C1724 C1723 1.287 . S
C1724 C1725 1.524 . S
C1724 H1743 0.913 . S
C1725 H1701 0.950 . S
C1725 C1724 1.524 . S
C1725 C1726 1.415 . S
C1726 H1702 0.950 . S
C1726 C1721 1.363 . S
C1726 C1725 1.415 . S
C1727 H1703 0.951 . S
C1727 C1728 1.366 . S
C1727 C1729 1.388 . S
C1728 C1727 1.366 . S
C1728 C1732 1.385 . S
C1729 H1704 0.951 . S
C1729 C1727 1.388 . S
C1729 C1730 1.366 . S
C1730 C1729 1.366 . S
C1730 C1731 1.414 . S
C1730 C1733 1.499 . S
C1731 H1705 0.950 . S
C1731 C1730 1.414 . S
C1731 C1732 1.374 . S
C1732 H1706 0.950 . S
C1732 C1728 1.385 . S
C1732 C1731 1.374 . S
C1733 C1730 1.499 . S
C1733 C1734 1.373 . S
C1733 C1735 1.389 . S
C1734 H1707 0.950 . S
C1734 C1720 1.377 . S
C1734 C1733 1.373 . S
C1735 C1719 1.377 . S
C1735 C1733 1.389 . S
C1735 C1736 1.524 . S
C1736 C1735 1.524 . S
C1736 C1737 1.397 . S
C1736 C1741 1.363 . S
C1737 H1708 0.950 . S
C1737 C1736 1.397 . S
C1737 C1738 1.334 . S
C1738 H1709 0.950 . S
C1738 C1737 1.334 . S
C1738 C1739 1.287 . S
C1739 C1738 1.287 . S
C1739 C1740 1.524 . S
C1739 H1742 0.999 . S
C1740 H1710 0.950 . S
C1740 C1739 1.524 . S
C1740 C1741 1.415 . S
C1741 H1711 0.950 . S
C1741 C1736 1.363 . S
C1741 C1740 1.415 . S
H1742 C1739 0.999 . S
H1743 C1724 0.913 . S
H1744 C1762 0.951 . S
H1745 C1764 0.951 . S
H1746 C1766 0.950 . S
H1747 C1767 0.950 . S
H1748 C1769 0.950 . S
H1749 C1772 0.950 . S
H1750 C1773 0.950 . S
H1751 C1775 0.950 . S
H1752 C1776 0.950 . S
H1753 C1777 0.951 . S
H1754 C1779 0.951 . S
H1755 C1781 0.950 . S
H1756 C1782 0.950 . S
H1757 C1784 0.950 . S
H1758 C1787 0.950 . S
H1759 C1788 0.950 . S
H1760 C1790 0.950 . S
H1761 C1791 0.950 . S
C1762 H1744 0.951 . S
C1762 C1763 1.366 . S
C1762 C1764 1.388 . S
C1763 C1762 1.366 . S
C1763 C1767 1.385 . S
C1764 H1745 0.951 . S
C1764 C1762 1.388 . S
C1764 C1765 1.366 . S
C1765 C1764 1.366 . S
C1765 C1766 1.414 . S
C1765 C1768 1.499 . S
C1766 H1746 0.950 . S
C1766 C1765 1.414 . S
C1766 C1767 1.374 . S
C1767 H1747 0.950 . S
C1767 C1763 1.385 . S
C1767 C1766 1.374 . S
C1768 C1765 1.499 . S
C1768 C1769 1.373 . S
C1768 C1770 1.389 . S
C1769 H1748 0.950 . S
C1769 C1768 1.373 . S
C1769 C1785 1.377 . S
C1770 C1768 1.389 . S
C1770 C1771 1.524 . S
C1770 C1784 1.377 . S
C1771 C1770 1.524 . S
C1771 C1772 1.397 . S
C1771 C1776 1.363 . S
C1772 H1749 0.950 . S
C1772 C1771 1.397 . S
C1772 C1773 1.334 . S
C1773 H1750 0.950 . S
C1773 C1772 1.334 . S
C1773 C1774 1.287 . S
C1774 C1773 1.287 . S
C1774 C1775 1.524 . S
C1774 H1793 0.913 . S
C1775 H1751 0.950 . S
C1775 C1774 1.524 . S
C1775 C1776 1.415 . S
C1776 H1752 0.950 . S
C1776 C1771 1.363 . S
C1776 C1775 1.415 . S
C1777 H1753 0.951 . S
C1777 C1778 1.366 . S
C1777 C1779 1.388 . S
C1778 C1777 1.366 . S
C1778 C1782 1.385 . S
C1779 H1754 0.951 . S
C1779 C1777 1.388 . S
C1779 C1780 1.366 . S
C1780 C1779 1.366 . S
C1780 C1781 1.414 . S
C1780 C1783 1.499 . S
C1781 H1755 0.950 . S
C1781 C1780 1.414 . S
C1781 C1782 1.374 . S
C1782 H1756 0.950 . S
C1782 C1778 1.385 . S
C1782 C1781 1.374 . S
C1783 C1780 1.499 . S
C1783 C1784 1.373 . S
C1783 C1785 1.389 . S
C1784 H1757 0.950 . S
C1784 C1770 1.377 . S
C1784 C1783 1.373 . S
C1785 C1769 1.377 . S
C1785 C1783 1.389 . S
C1785 C1786 1.524 . S
C1786 C1785 1.524 . S
C1786 C1787 1.397 . S
C1786 C1791 1.363 . S
C1787 H1758 0.950 . S
C1787 C1786 1.397 . S
C1787 C1788 1.334 . S
C1788 H1759 0.950 . S
C1788 C1787 1.334 . S
C1788 C1789 1.287 . S
C1789 C1788 1.287 . S
C1789 C1790 1.524 . S
C1789 H1792 0.999 . S
C1790 H1760 0.950 . S
C1790 C1789 1.524 . S
C1790 C1791 1.415 . S
C1791 H1761 0.950 . S
C1791 C1786 1.363 . S
C1791 C1790 1.415 . S
H1792 C1789 0.999 . S
H1793 C1774 0.913 . S
H1794 C1812 0.951 . S
H1795 C1814 0.951 1_554 S
H1796 C1816 0.950 . S
H1797 C1817 0.950 . S
H1798 C1819 0.950 . S
H1799 C1822 0.950 . S
H1800 C1823 0.950 . S
H1801 C1825 0.950 . S
H1802 C1826 0.950 . S
H1803 C1827 0.951 . S
H1804 C1829 0.951 1_556 S
H1805 C1831 0.950 . S
H1806 C1832 0.950 . S
H1807 C1834 0.950 . S
H1808 C1837 0.950 . S
H1809 C1838 0.950 . S
H1810 C1840 0.950 . S
H1811 C1841 0.950 . S
C1812 H1794 0.951 . S
C1812 C1813 1.366 . S
C1812 C1814 1.388 . S
C1813 C1812 1.366 . S
C1813 C1817 1.385 . S
C1814 H1795 0.951 1_556 S
C1814 C1812 1.388 . S
C1814 C1815 1.366 . S
C1815 C1814 1.366 . S
C1815 C1816 1.414 . S
C1815 C1818 1.499 . S
C1816 H1796 0.950 . S
C1816 C1815 1.414 . S
C1816 C1817 1.374 . S
C1817 H1797 0.950 . S
C1817 C1813 1.385 . S
C1817 C1816 1.374 . S
C1818 C1815 1.499 . S
C1818 C1819 1.373 . S
C1818 C1820 1.389 1_556 S
C1819 H1798 0.950 . S
C1819 C1818 1.373 . S
C1819 C1835 1.377 1_455 S
C1820 C1818 1.389 1_554 S
C1820 C1821 1.524 . S
C1820 C1834 1.377 1_455 S
C1821 C1820 1.524 . S
C1821 C1822 1.397 . S
C1821 C1826 1.363 . S
C1822 H1799 0.950 . S
C1822 C1821 1.397 . S
C1822 C1823 1.334 . S
C1823 H1800 0.950 . S
C1823 C1822 1.334 . S
C1823 C1824 1.287 . S
C1824 C1823 1.287 . S
C1824 C1825 1.524 . S
C1824 H1843 0.913 . S
C1825 H1801 0.950 . S
C1825 C1824 1.524 . S
C1825 C1826 1.415 . S
C1826 H1802 0.950 . S
C1826 C1821 1.363 . S
C1826 C1825 1.415 . S
C1827 H1803 0.951 . S
C1827 C1828 1.366 . S
C1827 C1829 1.388 . S
C1828 C1827 1.366 . S
C1828 C1832 1.385 . S
C1829 H1804 0.951 1_554 S
C1829 C1827 1.388 . S
C1829 C1830 1.366 . S
C1830 C1829 1.366 . S
C1830 C1831 1.414 . S
C1830 C1833 1.499 . S
C1831 H1805 0.950 . S
C1831 C1830 1.414 . S
C1831 C1832 1.374 . S
C1832 H1806 0.950 . S
C1832 C1828 1.385 . S
C1832 C1831 1.374 . S
C1833 C1830 1.499 . S
C1833 C1834 1.373 . S
C1833 C1835 1.389 1_554 S
C1834 H1807 0.950 . S
C1834 C1820 1.377 1_655 S
C1834 C1833 1.373 . S
C1835 C1819 1.377 1_655 S
C1835 C1833 1.389 1_556 S
C1835 C1836 1.524 . S
C1836 C1835 1.524 . S
C1836 C1837 1.397 . S
C1836 C1841 1.363 . S
C1837 H1808 0.950 . S
C1837 C1836 1.397 . S
C1837 C1838 1.334 . S
C1838 H1809 0.950 . S
C1838 C1837 1.334 . S
C1838 C1839 1.287 . S
C1839 C1838 1.287 . S
C1839 C1840 1.524 . S
C1839 H1842 0.999 . S
C1840 H1810 0.950 . S
C1840 C1839 1.524 . S
C1840 C1841 1.415 . S
C1841 H1811 0.950 . S
C1841 C1836 1.363 . S
C1841 C1840 1.415 . S
H1842 C1839 0.999 . S
H1843 C1824 0.913 . S
H1844 C1862 0.951 . S
H1845 C1864 0.951 1_554 S
H1846 C1866 0.950 . S
H1847 C1867 0.950 . S
H1848 C1869 0.950 . S
H1849 C1872 0.950 . S
H1850 C1873 0.950 . S
H1851 C1875 0.950 1_554 S
H1852 C1876 0.950 1_554 S
H1853 C1877 0.951 . S
H1854 C1879 0.951 1_556 S
H1855 C1881 0.950 . S
H1856 C1882 0.950 . S
H1857 C1884 0.950 . S
H1858 C1887 0.950 . S
H1859 C1888 0.950 . S
H1860 C1890 0.950 1_556 S
H1861 C1891 0.950 1_556 S
C1862 H1844 0.951 . S
C1862 C1863 1.366 . S
C1862 C1864 1.388 . S
C1863 C1862 1.366 . S
C1863 C1867 1.385 . S
C1864 H1845 0.951 1_556 S
C1864 C1862 1.388 . S
C1864 C1865 1.366 . S
C1865 C1864 1.366 . S
C1865 C1866 1.414 . S
C1865 C1868 1.499 . S
C1866 H1846 0.950 . S
C1866 C1865 1.414 . S
C1866 C1867 1.374 . S
C1867 H1847 0.950 . S
C1867 C1863 1.385 . S
C1867 C1866 1.374 . S
C1868 C1865 1.499 . S
C1868 C1869 1.373 . S
C1868 C1870 1.389 . S
C1869 H1848 0.950 . S
C1869 C1868 1.373 . S
C1869 C1885 1.377 1_556 S
C1870 C1868 1.389 . S
C1870 C1871 1.524 . S
C1870 C1884 1.377 1_556 S
C1871 C1870 1.524 . S
C1871 C1872 1.397 . S
C1871 C1876 1.363 . S
C1872 H1849 0.950 . S
C1872 C1871 1.397 . S
C1872 C1873 1.334 . S
C1873 H1850 0.950 . S
C1873 C1872 1.334 . S
C1873 C1874 1.287 . S
C1874 C1873 1.287 . S
C1874 C1875 1.524 . S
C1874 H1893 0.913 . S
C1875 H1851 0.950 1_556 S
C1875 C1874 1.524 . S
C1875 C1876 1.415 . S
C1876 H1852 0.950 1_556 S
C1876 C1871 1.363 . S
C1876 C1875 1.415 . S
C1877 H1853 0.951 . S
C1877 C1878 1.366 . S
C1877 C1879 1.388 . S
C1878 C1877 1.366 . S
C1878 C1882 1.385 . S
C1879 H1854 0.951 1_554 S
C1879 C1877 1.388 . S
C1879 C1880 1.366 . S
C1880 C1879 1.366 . S
C1880 C1881 1.414 . S
C1880 C1883 1.499 . S
C1881 H1855 0.950 . S
C1881 C1880 1.414 . S
C1881 C1882 1.374 . S
C1882 H1856 0.950 . S
C1882 C1878 1.385 . S
C1882 C1881 1.374 . S
C1883 C1880 1.499 . S
C1883 C1884 1.373 . S
C1883 C1885 1.389 . S
C1884 H1857 0.950 . S
C1884 C1870 1.377 1_554 S
C1884 C1883 1.373 . S
C1885 C1869 1.377 1_554 S
C1885 C1883 1.389 . S
C1885 C1886 1.524 . S
C1886 C1885 1.524 . S
C1886 C1887 1.397 . S
C1886 C1891 1.363 . S
C1887 H1858 0.950 . S
C1887 C1886 1.397 . S
C1887 C1888 1.334 . S
C1888 H1859 0.950 . S
C1888 C1887 1.334 . S
C1888 C1889 1.287 . S
C1889 C1888 1.287 . S
C1889 C1890 1.524 . S
C1889 H1892 0.999 . S
C1890 H1860 0.950 1_554 S
C1890 C1889 1.524 . S
C1890 C1891 1.415 . S
C1891 H1861 0.950 1_554 S
C1891 C1886 1.363 . S
C1891 C1890 1.415 . S
H1892 C1889 0.999 . S
H1893 C1874 0.913 . S
H1894 C1912 0.951 . S
H1895 C1914 0.951 . S
H1896 C1916 0.950 . S
H1897 C1917 0.950 . S
H1898 C1919 0.950 . S
H1899 C1922 0.950 . S
H1900 C1923 0.950 . S
H1901 C1925 0.950 . S
H1902 C1926 0.950 . S
H1903 C1927 0.951 . S
H1904 C1929 0.951 . S
H1905 C1931 0.950 . S
H1906 C1932 0.950 . S
H1907 C1934 0.950 . S
H1908 C1937 0.950 . S
H1909 C1938 0.950 . S
H1910 C1940 0.950 . S
H1911 C1941 0.950 . S
C1912 H1894 0.951 . S
C1912 C1913 1.366 . S
C1912 C1914 1.388 . S
C1913 C1912 1.366 . S
C1913 C1917 1.385 . S
C1914 H1895 0.951 . S
C1914 C1912 1.388 . S
C1914 C1915 1.366 . S
C1915 C1914 1.366 . S
C1915 C1916 1.414 . S
C1915 C1918 1.499 . S
C1916 H1896 0.950 . S
C1916 C1915 1.414 . S
C1916 C1917 1.374 . S
C1917 H1897 0.950 . S
C1917 C1913 1.385 . S
C1917 C1916 1.374 . S
C1918 C1915 1.499 . S
C1918 C1919 1.373 . S
C1918 C1920 1.389 1_554 S
C1919 H1898 0.950 . S
C1919 C1918 1.373 . S
C1919 C1935 1.377 1_545 S
C1920 C1918 1.389 1_556 S
C1920 C1921 1.524 . S
C1920 C1934 1.377 1_545 S
C1921 C1920 1.524 . S
C1921 C1922 1.397 . S
C1921 C1926 1.363 . S
C1922 H1899 0.950 . S
C1922 C1921 1.397 . S
C1922 C1923 1.334 . S
C1923 H1900 0.950 . S
C1923 C1922 1.334 . S
C1923 C1924 1.287 . S
C1924 C1923 1.287 . S
C1924 C1925 1.524 . S
C1924 H1943 0.913 . S
C1925 H1901 0.950 . S
C1925 C1924 1.524 . S
C1925 C1926 1.415 . S
C1926 H1902 0.950 . S
C1926 C1921 1.363 . S
C1926 C1925 1.415 . S
C1927 H1903 0.951 . S
C1927 C1928 1.366 . S
C1927 C1929 1.388 . S
C1928 C1927 1.366 . S
C1928 C1932 1.385 . S
C1929 H1904 0.951 . S
C1929 C1927 1.388 . S
C1929 C1930 1.366 . S
C1930 C1929 1.366 . S
C1930 C1931 1.414 . S
C1930 C1933 1.499 . S
C1931 H1905 0.950 . S
C1931 C1930 1.414 . S
C1931 C1932 1.374 . S
C1932 H1906 0.950 . S
C1932 C1928 1.385 . S
C1932 C1931 1.374 . S
C1933 C1930 1.499 . S
C1933 C1934 1.373 . S
C1933 C1935 1.389 1_556 S
C1934 H1907 0.950 . S
C1934 C1920 1.377 1_565 S
C1934 C1933 1.373 . S
C1935 C1919 1.377 1_565 S
C1935 C1933 1.389 1_554 S
C1935 C1936 1.524 . S
C1936 C1935 1.524 . S
C1936 C1937 1.397 . S
C1936 C1941 1.363 . S
C1937 H1908 0.950 . S
C1937 C1936 1.397 . S
C1937 C1938 1.334 . S
C1938 H1909 0.950 . S
C1938 C1937 1.334 . S
C1938 C1939 1.287 . S
C1939 C1938 1.287 . S
C1939 C1940 1.524 . S
C1939 H1942 0.999 . S
C1940 H1910 0.950 . S
C1940 C1939 1.524 . S
C1940 C1941 1.415 . S
C1941 H1911 0.950 . S
C1941 C1936 1.363 . S
C1941 C1940 1.415 . S
H1942 C1939 0.999 . S
H1943 C1924 0.913 . S
H1944 C1962 0.951 . S
H1945 C1964 0.951 . S
H1946 C1966 0.950 . S
H1947 C1967 0.950 . S
H1948 C1969 0.950 . S
H1949 C1972 0.950 . S
H1950 C1973 0.950 . S
H1951 C1975 0.950 . S
H1952 C1976 0.950 . S
H1953 C1977 0.951 . S
H1954 C1979 0.951 . S
H1955 C1981 0.950 . S
H1956 C1982 0.950 . S
H1957 C1984 0.950 . S
H1958 C1987 0.950 . S
H1959 C1988 0.950 . S
H1960 C1990 0.950 . S
H1961 C1991 0.950 . S
C1962 H1944 0.951 . S
C1962 C1963 1.366 . S
C1962 C1964 1.388 . S
C1963 C1962 1.366 . S
C1963 C1967 1.385 . S
C1964 H1945 0.951 . S
C1964 C1962 1.388 . S
C1964 C1965 1.366 . S
C1965 C1964 1.366 . S
C1965 C1966 1.414 . S
C1965 C1968 1.499 . S
C1966 H1946 0.950 . S
C1966 C1965 1.414 . S
C1966 C1967 1.374 . S
C1967 H1947 0.950 . S
C1967 C1963 1.385 . S
C1967 C1966 1.374 . S
C1968 C1965 1.499 . S
C1968 C1969 1.373 . S
C1968 C1970 1.389 . S
C1969 H1948 0.950 . S
C1969 C1968 1.373 . S
C1969 C1985 1.377 . S
C1970 C1968 1.389 . S
C1970 C1971 1.524 . S
C1970 C1984 1.377 . S
C1971 C1970 1.524 . S
C1971 C1972 1.397 . S
C1971 C1976 1.363 . S
C1972 H1949 0.950 . S
C1972 C1971 1.397 . S
C1972 C1973 1.334 . S
C1973 H1950 0.950 . S
C1973 C1972 1.334 . S
C1973 C1974 1.287 . S
C1974 C1973 1.287 . S
C1974 C1975 1.524 . S
C1974 H1993 0.913 . S
C1975 H1951 0.950 . S
C1975 C1974 1.524 . S
C1975 C1976 1.415 . S
C1976 H1952 0.950 . S
C1976 C1971 1.363 . S
C1976 C1975 1.415 . S
C1977 H1953 0.951 . S
C1977 C1978 1.366 . S
C1977 C1979 1.388 . S
C1978 C1977 1.366 . S
C1978 C1982 1.385 . S
C1979 H1954 0.951 . S
C1979 C1977 1.388 . S
C1979 C1980 1.366 . S
C1980 C1979 1.366 . S
C1980 C1981 1.414 . S
C1980 C1983 1.499 . S
C1981 H1955 0.950 . S
C1981 C1980 1.414 . S
C1981 C1982 1.374 . S
C1982 H1956 0.950 . S
C1982 C1978 1.385 . S
C1982 C1981 1.374 . S
C1983 C1980 1.499 . S
C1983 C1984 1.373 . S
C1983 C1985 1.389 . S
C1984 H1957 0.950 . S
C1984 C1970 1.377 . S
C1984 C1983 1.373 . S
C1985 C1969 1.377 . S
C1985 C1983 1.389 . S
C1985 C1986 1.524 . S
C1986 C1985 1.524 . S
C1986 C1987 1.397 . S
C1986 C1991 1.363 . S
C1987 H1958 0.950 . S
C1987 C1986 1.397 . S
C1987 C1988 1.334 . S
C1988 H1959 0.950 . S
C1988 C1987 1.334 . S
C1988 C1989 1.287 . S
C1989 C1988 1.287 . S
C1989 C1990 1.524 . S
C1989 H1992 0.999 . S
C1990 H1960 0.950 . S
C1990 C1989 1.524 . S
C1990 C1991 1.415 . S
C1991 H1961 0.950 . S
C1991 C1986 1.363 . S
C1991 C1990 1.415 . S
H1992 C1989 0.999 . S
H1993 C1974 0.913 . S
H1994 C2012 0.951 . S
H1995 C2014 0.951 . S
H1996 C2016 0.950 . S
H1997 C2017 0.950 . S
H1998 C2019 0.954 . S
H1999 C2022 0.950 . S
H2000 C2023 0.950 . S
H2001 C2025 0.950 . S
H2002 C2026 0.950 . S
H2003 C2027 0.951 . S
H2004 C2029 0.951 . S
H2005 C2031 0.950 . S
H2006 C2032 0.950 . S
H2007 C2034 0.954 . S
H2008 C2037 0.950 . S
H2009 C2038 0.950 . S
H2010 C2040 0.950 . S
H2011 C2041 0.950 . S
C2012 H1994 0.951 . S
C2012 C2013 1.366 . S
C2012 C2014 1.388 . S
C2013 C2012 1.366 . S
C2013 C2017 1.385 . S
C2014 H1995 0.951 . S
C2014 C2012 1.388 . S
C2014 C2015 1.366 . S
C2015 C2014 1.366 . S
C2015 C2016 1.414 . S
C2015 C2018 1.499 . S
C2016 H1996 0.950 . S
C2016 C2015 1.414 . S
C2016 C2017 1.374 . S
C2017 H1997 0.950 . S
C2017 C2013 1.385 . S
C2017 C2016 1.374 . S
C2018 C2015 1.499 . S
C2018 C2019 1.403 . S
C2018 C2020 1.389 . S
C2019 H1998 0.954 . S
C2019 C2018 1.403 . S
C2019 C2035 1.358 1_545 S
C2020 C2018 1.389 . S
C2020 C2021 1.524 . S
C2020 C2034 1.358 1_545 S
C2021 C2020 1.524 . S
C2021 C2022 1.397 . S
C2021 C2026 1.363 . S
C2022 H1999 0.950 . S
C2022 C2021 1.397 . S
C2022 C2023 1.334 . S
C2023 H2000 0.950 . S
C2023 C2022 1.334 . S
C2023 C2024 1.287 . S
C2024 C2023 1.287 . S
C2024 C2025 1.524 . S
C2024 H2043 0.913 . S
C2025 H2001 0.950 . S
C2025 C2024 1.524 . S
C2025 C2026 1.415 . S
C2026 H2002 0.950 . S
C2026 C2021 1.363 . S
C2026 C2025 1.415 . S
C2027 H2003 0.951 . S
C2027 C2028 1.366 . S
C2027 C2029 1.388 . S
C2028 C2027 1.366 . S
C2028 C2032 1.385 . S
C2029 H2004 0.951 . S
C2029 C2027 1.388 . S
C2029 C2030 1.366 . S
C2030 C2029 1.366 . S
C2030 C2031 1.414 . S
C2030 C2033 1.499 . S
C2031 H2005 0.950 . S
C2031 C2030 1.414 . S
C2031 C2032 1.374 . S
C2032 H2006 0.950 . S
C2032 C2028 1.385 . S
C2032 C2031 1.374 . S
C2033 C2030 1.499 . S
C2033 C2034 1.403 . S
C2033 C2035 1.389 . S
C2034 H2007 0.954 . S
C2034 C2020 1.358 1_565 S
C2034 C2033 1.403 . S
C2035 C2019 1.358 1_565 S
C2035 C2033 1.389 . S
C2035 C2036 1.524 . S
C2036 C2035 1.524 . S
C2036 C2037 1.397 . S
C2036 C2041 1.363 . S
C2037 H2008 0.950 . S
C2037 C2036 1.397 . S
C2037 C2038 1.334 . S
C2038 H2009 0.950 . S
C2038 C2037 1.334 . S
C2038 C2039 1.287 . S
C2039 C2038 1.287 . S
C2039 C2040 1.524 . S
C2039 H2042 0.999 . S
C2040 H2010 0.950 . S
C2040 C2039 1.524 . S
C2040 C2041 1.415 . S
C2041 H2011 0.950 . S
C2041 C2036 1.363 . S
C2041 C2040 1.415 . S
H2042 C2039 0.999 . S
H2043 C2024 0.913 . S
H2044 C2062 0.951 . S
H2045 C2064 0.951 . S
H2046 C2066 0.950 . S
H2047 C2067 0.950 . S
H2048 C2069 0.950 . S
H2049 C2072 0.950 . S
H2050 C2073 0.950 . S
H2051 C2075 0.950 . S
H2052 C2076 0.950 1_655 S
H2053 C2077 0.951 . S
H2054 C2079 0.951 . S
H2055 C2081 0.950 . S
H2056 C2082 0.950 . S
H2057 C2084 0.950 . S
H2058 C2087 0.950 . S
H2059 C2088 0.950 . S
H2060 C2090 0.950 . S
H2061 C2091 0.950 1_455 S
C2062 H2044 0.951 . S
C2062 C2063 1.366 . S
C2062 C2064 1.388 . S
C2063 C2062 1.366 . S
C2063 C2067 1.385 . S
C2064 H2045 0.951 . S
C2064 C2062 1.388 . S
C2064 C2065 1.366 . S
C2065 C2064 1.366 . S
C2065 C2066 1.414 . S
C2065 C2068 1.499 . S
C2066 H2046 0.950 . S
C2066 C2065 1.414 . S
C2066 C2067 1.374 . S
C2067 H2047 0.950 . S
C2067 C2063 1.385 . S
C2067 C2066 1.374 . S
C2068 C2065 1.499 . S
C2068 C2069 1.373 . S
C2068 C2070 1.389 . S
C2069 H2048 0.950 . S
C2069 C2068 1.373 . S
C2069 C2085 1.377 1_455 S
C2070 C2068 1.389 . S
C2070 C2071 1.524 . S
C2070 C2084 1.377 1_455 S
C2071 C2070 1.524 . S
C2071 C2072 1.397 . S
C2071 C2076 1.363 . S
C2072 H2049 0.950 . S
C2072 C2071 1.397 . S
C2072 C2073 1.334 . S
C2073 H2050 0.950 . S
C2073 C2072 1.334 . S
C2073 C2074 1.287 . S
C2074 C2073 1.287 . S
C2074 C2075 1.524 . S
C2074 H2093 0.913 . S
C2075 H2051 0.950 . S
C2075 C2074 1.524 . S
C2075 C2076 1.415 . S
C2076 H2052 0.950 1_455 S
C2076 C2071 1.363 . S
C2076 C2075 1.415 . S
C2077 H2053 0.951 . S
C2077 C2078 1.366 . S
C2077 C2079 1.388 . S
C2078 C2077 1.366 . S
C2078 C2082 1.385 . S
C2079 H2054 0.951 . S
C2079 C2077 1.388 . S
C2079 C2080 1.366 . S
C2080 C2079 1.366 . S
C2080 C2081 1.414 . S
C2080 C2083 1.499 . S
C2081 H2055 0.950 . S
C2081 C2080 1.414 . S
C2081 C2082 1.374 . S
C2082 H2056 0.950 . S
C2082 C2078 1.385 . S
C2082 C2081 1.374 . S
C2083 C2080 1.499 . S
C2083 C2084 1.373 . S
C2083 C2085 1.389 . S
C2084 H2057 0.950 . S
C2084 C2070 1.377 1_655 S
C2084 C2083 1.373 . S
C2085 C2069 1.377 1_655 S
C2085 C2083 1.389 . S
C2085 C2086 1.524 . S
C2086 C2085 1.524 . S
C2086 C2087 1.397 . S
C2086 C2091 1.363 . S
C2087 H2058 0.950 . S
C2087 C2086 1.397 . S
C2087 C2088 1.334 . S
C2088 H2059 0.950 . S
C2088 C2087 1.334 . S
C2088 C2089 1.287 . S
C2089 C2088 1.287 . S
C2089 C2090 1.524 . S
C2089 H2092 0.999 . S
C2090 H2060 0.950 . S
C2090 C2089 1.524 . S
C2090 C2091 1.415 . S
C2091 H2061 0.950 1_655 S
C2091 C2086 1.363 . S
C2091 C2090 1.415 . S
H2092 C2089 0.999 . S
H2093 C2074 0.913 . S
H2094 C2112 0.951 . S
H2095 C2114 0.951 . S
H2096 C2116 0.950 . S
H2097 C2117 0.950 . S
H2098 C2119 0.950 . S
H2099 C2122 0.950 . S
H2100 C2123 0.950 . S
H2101 C2125 0.950 . S
H2102 C2126 0.950 . S
H2103 C2127 0.951 . S
H2104 C2129 0.951 . S
H2105 C2131 0.950 . S
H2106 C2132 0.950 . S
H2107 C2134 0.950 . S
H2108 C2137 0.950 . S
H2109 C2138 0.950 . S
H2110 C2140 0.950 . S
H2111 C2141 0.950 . S
C2112 H2094 0.951 . S
C2112 C2113 1.366 . S
C2112 C2114 1.388 . S
C2113 C2112 1.366 . S
C2113 C2117 1.385 . S
C2114 H2095 0.951 . S
C2114 C2112 1.388 . S
C2114 C2115 1.366 . S
C2115 C2114 1.366 . S
C2115 C2116 1.414 . S
C2115 C2118 1.499 . S
C2116 H2096 0.950 . S
C2116 C2115 1.414 . S
C2116 C2117 1.374 . S
C2117 H2097 0.950 . S
C2117 C2113 1.385 . S
C2117 C2116 1.374 . S
C2118 C2115 1.499 . S
C2118 C2119 1.373 . S
C2118 C2120 1.389 . S
C2119 H2098 0.950 . S
C2119 C2118 1.373 . S
C2119 C2135 1.377 . S
C2120 C2118 1.389 . S
C2120 C2121 1.524 . S
C2120 C2134 1.377 . S
C2121 C2120 1.524 . S
C2121 C2122 1.397 . S
C2121 C2126 1.363 . S
C2122 H2099 0.950 . S
C2122 C2121 1.397 . S
C2122 C2123 1.334 . S
C2123 H2100 0.950 . S
C2123 C2122 1.334 . S
C2123 C2124 1.287 . S
C2124 C2123 1.287 . S
C2124 C2125 1.524 . S
C2124 H2143 0.913 . S
C2125 H2101 0.950 . S
C2125 C2124 1.524 . S
C2125 C2126 1.415 . S
C2126 H2102 0.950 . S
C2126 C2121 1.363 . S
C2126 C2125 1.415 . S
C2127 H2103 0.951 . S
C2127 C2128 1.366 . S
C2127 C2129 1.388 . S
C2128 C2127 1.366 . S
C2128 C2132 1.385 . S
C2129 H2104 0.951 . S
C2129 C2127 1.388 . S
C2129 C2130 1.366 . S
C2130 C2129 1.366 . S
C2130 C2131 1.414 . S
C2130 C2133 1.499 . S
C2131 H2105 0.950 . S
C2131 C2130 1.414 . S
C2131 C2132 1.374 . S
C2132 H2106 0.950 . S
C2132 C2128 1.385 . S
C2132 C2131 1.374 . S
C2133 C2130 1.499 . S
C2133 C2134 1.373 . S
C2133 C2135 1.389 . S
C2134 H2107 0.950 . S
C2134 C2120 1.377 . S
C2134 C2133 1.373 . S
C2135 C2119 1.377 . S
C2135 C2133 1.389 . S
C2135 C2136 1.524 . S
C2136 C2135 1.524 . S
C2136 C2137 1.397 . S
C2136 C2141 1.363 . S
C2137 H2108 0.950 . S
C2137 C2136 1.397 . S
C2137 C2138 1.334 . S
C2138 H2109 0.950 . S
C2138 C2137 1.334 . S
C2138 C2139 1.287 . S
C2139 C2138 1.287 . S
C2139 C2140 1.524 . S
C2139 H2142 0.999 . S
C2140 H2110 0.950 . S
C2140 C2139 1.524 . S
C2140 C2141 1.415 . S
C2141 H2111 0.950 . S
C2141 C2136 1.363 . S
C2141 C2140 1.415 . S
H2142 C2139 0.999 . S
H2143 C2124 0.913 . S
H2144 C2162 0.951 . S
H2145 C2164 0.951 . S
H2146 C2166 0.950 . S
H2147 C2167 0.950 . S
H2148 C2169 0.950 . S
H2149 C2172 0.950 . S
H2150 C2173 0.950 . S
H2151 C2175 0.950 . S
H2152 C2176 0.950 . S
H2153 C2177 0.951 . S
H2154 C2179 0.951 . S
H2155 C2181 0.950 . S
H2156 C2182 0.950 . S
H2157 C2184 0.950 . S
H2158 C2187 0.950 . S
H2159 C2188 0.950 . S
H2160 C2190 0.950 . S
H2161 C2191 0.950 . S
C2162 H2144 0.951 . S
C2162 C2163 1.366 . S
C2162 C2164 1.388 . S
C2163 C2162 1.366 . S
C2163 C2167 1.385 . S
C2164 H2145 0.951 . S
C2164 C2162 1.388 . S
C2164 C2165 1.366 . S
C2165 C2164 1.366 . S
C2165 C2166 1.414 . S
C2165 C2168 1.499 . S
C2166 H2146 0.950 . S
C2166 C2165 1.414 . S
C2166 C2167 1.374 . S
C2167 H2147 0.950 . S
C2167 C2163 1.385 . S
C2167 C2166 1.374 . S
C2168 C2165 1.499 . S
C2168 C2169 1.373 . S
C2168 C2170 1.389 . S
C2169 H2148 0.950 . S
C2169 C2168 1.373 . S
C2169 C2185 1.377 1_565 S
C2170 C2168 1.389 . S
C2170 C2171 1.524 . S
C2170 C2184 1.377 1_565 S
C2171 C2170 1.524 . S
C2171 C2172 1.397 . S
C2171 C2176 1.363 . S
C2172 H2149 0.950 . S
C2172 C2171 1.397 . S
C2172 C2173 1.334 . S
C2173 H2150 0.950 . S
C2173 C2172 1.334 . S
C2173 C2174 1.287 . S
C2174 C2173 1.287 . S
C2174 C2175 1.524 . S
C2174 H2193 0.913 . S
C2175 H2151 0.950 . S
C2175 C2174 1.524 . S
C2175 C2176 1.415 . S
C2176 H2152 0.950 . S
C2176 C2171 1.363 . S
C2176 C2175 1.415 . S
C2177 H2153 0.951 . S
C2177 C2178 1.366 . S
C2177 C2179 1.388 . S
C2178 C2177 1.366 . S
C2178 C2182 1.385 . S
C2179 H2154 0.951 . S
C2179 C2177 1.388 . S
C2179 C2180 1.366 . S
C2180 C2179 1.366 . S
C2180 C2181 1.414 . S
C2180 C2183 1.499 . S
C2181 H2155 0.950 . S
C2181 C2180 1.414 . S
C2181 C2182 1.374 . S
C2182 H2156 0.950 . S
C2182 C2178 1.385 . S
C2182 C2181 1.374 . S
C2183 C2180 1.499 . S
C2183 C2184 1.373 . S
C2183 C2185 1.389 . S
C2184 H2157 0.950 . S
C2184 C2170 1.377 1_545 S
C2184 C2183 1.373 . S
C2185 C2169 1.377 1_545 S
C2185 C2183 1.389 . S
C2185 C2186 1.524 . S
C2186 C2185 1.524 . S
C2186 C2187 1.397 . S
C2186 C2191 1.363 . S
C2187 H2158 0.950 . S
C2187 C2186 1.397 . S
C2187 C2188 1.334 . S
C2188 H2159 0.950 . S
C2188 C2187 1.334 . S
C2188 C2189 1.287 . S
C2189 C2188 1.287 . S
C2189 C2190 1.524 . S
C2189 H2192 0.999 . S
C2190 H2160 0.950 . S
C2190 C2189 1.524 . S
C2190 C2191 1.415 . S
C2191 H2161 0.950 . S
C2191 C2186 1.363 . S
C2191 C2190 1.415 . S
H2192 C2189 0.999 . S
H2193 C2174 0.913 . S
H2194 C2212 0.951 . S
H2195 C2214 0.951 . S
H2196 C2216 0.950 . S
H2197 C2217 0.950 . S
H2198 C2219 0.950 . S
H2199 C2222 0.950 . S
H2200 C2223 0.950 . S
H2201 C2225 0.970 . S
H2202 C2226 0.950 . S
H2203 C2227 0.951 . S
H2204 C2229 0.951 . S
H2205 C2231 0.950 . S
H2206 C2232 0.950 . S
H2207 C2234 0.950 . S
H2208 C2237 0.950 . S
H2209 C2238 0.950 . S
H2210 C2240 0.970 . S
H2211 C2241 0.950 . S
C2212 H2194 0.951 . S
C2212 C2213 1.366 . S
C2212 C2214 1.388 . S
C2213 C2212 1.366 . S
C2213 C2217 1.385 . S
C2214 H2195 0.951 . S
C2214 C2212 1.388 . S
C2214 C2215 1.366 . S
C2215 C2214 1.366 . S
C2215 C2216 1.414 . S
C2215 C2218 1.499 . S
C2216 H2196 0.950 . S
C2216 C2215 1.414 . S
C2216 C2217 1.374 . S
C2217 H2197 0.950 . S
C2217 C2213 1.385 . S
C2217 C2216 1.374 . S
C2218 C2215 1.499 . S
C2218 C2219 1.373 . S
C2218 C2220 1.389 . S
C2219 H2198 0.950 . S
C2219 C2218 1.373 . S
C2219 C2235 1.377 1_655 S
C2220 C2218 1.389 . S
C2220 C2221 1.524 . S
C2220 C2234 1.377 1_655 S
C2221 C2220 1.524 . S
C2221 C2222 1.397 . S
C2221 C2226 1.363 1_655 S
C2222 H2199 0.950 . S
C2222 C2221 1.397 . S
C2222 C2223 1.334 . S
C2223 H2200 0.950 . S
C2223 C2222 1.334 . S
C2223 C2224 1.287 . S
C2224 C2223 1.287 . S
C2224 C2225 1.461 1_655 S
C2224 H2243 0.913 . S
C2225 H2201 0.970 . S
C2225 C2224 1.461 1_455 S
C2225 C2226 1.458 . S
C2226 H2202 0.950 . S
C2226 C2221 1.363 1_455 S
C2226 C2225 1.458 . S
C2227 H2203 0.951 . S
C2227 C2228 1.366 . S
C2227 C2229 1.388 . S
C2228 C2227 1.366 . S
C2228 C2232 1.385 . S
C2229 H2204 0.951 . S
C2229 C2227 1.388 . S
C2229 C2230 1.366 . S
C2230 C2229 1.366 . S
C2230 C2231 1.414 . S
C2230 C2233 1.499 . S
C2231 H2205 0.950 . S
C2231 C2230 1.414 . S
C2231 C2232 1.374 . S
C2232 H2206 0.950 . S
C2232 C2228 1.385 . S
C2232 C2231 1.374 . S
C2233 C2230 1.499 . S
C2233 C2234 1.373 . S
C2233 C2235 1.389 . S
C2234 H2207 0.950 . S
C2234 C2220 1.377 1_455 S
C2234 C2233 1.373 . S
C2235 C2219 1.377 1_455 S
C2235 C2233 1.389 . S
C2235 C2236 1.524 . S
C2236 C2235 1.524 . S
C2236 C2237 1.397 . S
C2236 C2241 1.363 1_455 S
C2237 H2208 0.950 . S
C2237 C2236 1.397 . S
C2237 C2238 1.334 . S
C2238 H2209 0.950 . S
C2238 C2237 1.334 . S
C2238 C2239 1.287 . S
C2239 C2238 1.287 . S
C2239 C2240 1.461 1_455 S
C2239 H2242 0.999 . S
C2240 H2210 0.970 . S
C2240 C2239 1.461 1_655 S
C2240 C2241 1.458 . S
C2241 H2211 0.950 . S
C2241 C2236 1.363 1_655 S
C2241 C2240 1.458 . S
H2242 C2239 0.999 . S
H2243 C2224 0.913 . S
H2244 C2262 0.951 . S
H2245 C2264 0.951 . S
H2246 C2266 0.950 . S
H2247 C2267 0.950 . S
H2248 C2269 0.950 . S
H2249 C2272 0.950 . S
H2250 C2273 0.950 . S
H2251 C2275 0.950 . S
H2252 C2276 0.950 . S
H2253 C2277 0.951 . S
H2254 C2279 0.951 . S
H2255 C2281 0.950 . S
H2256 C2282 0.950 . S
H2257 C2284 0.950 . S
H2258 C2287 0.950 . S
H2259 C2288 0.950 . S
H2260 C2290 0.950 . S
H2261 C2291 0.950 . S
C2262 H2244 0.951 . S
C2262 C2263 1.366 . S
C2262 C2264 1.388 . S
C2263 C2262 1.366 . S
C2263 C2267 1.385 . S
C2264 H2245 0.951 . S
C2264 C2262 1.388 . S
C2264 C2265 1.366 . S
C2265 C2264 1.366 . S
C2265 C2266 1.414 . S
C2265 C2268 1.499 . S
C2266 H2246 0.950 . S
C2266 C2265 1.414 . S
C2266 C2267 1.374 . S
C2267 H2247 0.950 . S
C2267 C2263 1.385 . S
C2267 C2266 1.374 . S
C2268 C2265 1.499 . S
C2268 C2269 1.373 . S
C2268 C2270 1.389 . S
C2269 H2248 0.950 . S
C2269 C2268 1.373 . S
C2269 C2285 1.377 . S
C2270 C2268 1.389 . S
C2270 C2271 1.524 . S
C2270 C2284 1.377 . S
C2271 C2270 1.524 . S
C2271 C2272 1.397 . S
C2271 C2276 1.363 . S
C2272 H2249 0.950 . S
C2272 C2271 1.397 . S
C2272 C2273 1.334 . S
C2273 H2250 0.950 . S
C2273 C2272 1.334 . S
C2273 C2274 1.287 . S
C2274 C2273 1.287 . S
C2274 C2275 1.524 . S
C2274 H2293 0.913 . S
C2275 H2251 0.950 . S
C2275 C2274 1.524 . S
C2275 C2276 1.415 . S
C2276 H2252 0.950 . S
C2276 C2271 1.363 . S
C2276 C2275 1.415 . S
C2277 H2253 0.951 . S
C2277 C2278 1.366 . S
C2277 C2279 1.388 . S
C2278 C2277 1.366 . S
C2278 C2282 1.385 . S
C2279 H2254 0.951 . S
C2279 C2277 1.388 . S
C2279 C2280 1.366 . S
C2280 C2279 1.366 . S
C2280 C2281 1.414 . S
C2280 C2283 1.499 . S
C2281 H2255 0.950 . S
C2281 C2280 1.414 . S
C2281 C2282 1.374 . S
C2282 H2256 0.950 . S
C2282 C2278 1.385 . S
C2282 C2281 1.374 . S
C2283 C2280 1.499 . S
C2283 C2284 1.373 . S
C2283 C2285 1.389 . S
C2284 H2257 0.950 . S
C2284 C2270 1.377 . S
C2284 C2283 1.373 . S
C2285 C2269 1.377 . S
C2285 C2283 1.389 . S
C2285 C2286 1.524 . S
C2286 C2285 1.524 . S
C2286 C2287 1.397 . S
C2286 C2291 1.363 . S
C2287 H2258 0.950 . S
C2287 C2286 1.397 . S
C2287 C2288 1.334 . S
C2288 H2259 0.950 . S
C2288 C2287 1.334 . S
C2288 C2289 1.287 . S
C2289 C2288 1.287 . S
C2289 C2290 1.524 . S
C2289 H2292 0.999 . S
C2290 H2260 0.950 . S
C2290 C2289 1.524 . S
C2290 C2291 1.415 . S
C2291 H2261 0.950 . S
C2291 C2286 1.363 . S
C2291 C2290 1.415 . S
H2292 C2289 0.999 . S
H2293 C2274 0.913 . S
H2294 C2312 0.951 . S
H2295 C2314 0.951 . S
H2296 C2316 0.950 . S
H2297 C2317 0.950 . S
H2298 C2319 0.950 . S
H2299 C2322 0.950 . S
H2300 C2323 0.950 . S
H2301 C2325 0.950 . S
H2302 C2326 0.950 . S
H2303 C2327 0.951 . S
H2304 C2329 0.951 . S
H2305 C2331 0.950 . S
H2306 C2332 0.950 . S
H2307 C2334 0.950 . S
H2308 C2337 0.950 . S
H2309 C2338 0.950 . S
H2310 C2340 0.950 . S
H2311 C2341 0.950 . S
C2312 H2294 0.951 . S
C2312 C2313 1.366 . S
C2312 C2314 1.388 . S
C2313 C2312 1.366 . S
C2313 C2317 1.385 . S
C2314 H2295 0.951 . S
C2314 C2312 1.388 . S
C2314 C2315 1.366 . S
C2315 C2314 1.366 . S
C2315 C2316 1.414 . S
C2315 C2318 1.499 . S
C2316 H2296 0.950 . S
C2316 C2315 1.414 . S
C2316 C2317 1.374 . S
C2317 H2297 0.950 . S
C2317 C2313 1.385 . S
C2317 C2316 1.374 . S
C2318 C2315 1.499 . S
C2318 C2319 1.373 . S
C2318 C2320 1.389 . S
C2319 H2298 0.950 . S
C2319 C2318 1.373 . S
C2319 C2335 1.377 . S
C2320 C2318 1.389 . S
C2320 C2321 1.524 . S
C2320 C2334 1.377 . S
C2321 C2320 1.524 . S
C2321 C2322 1.397 . S
C2321 C2326 1.363 . S
C2322 H2299 0.950 . S
C2322 C2321 1.397 . S
C2322 C2323 1.334 . S
C2323 H2300 0.950 . S
C2323 C2322 1.334 . S
C2323 C2324 1.287 . S
C2324 C2323 1.287 . S
C2324 C2325 1.524 . S
C2324 H2343 0.913 . S
C2325 H2301 0.950 . S
C2325 C2324 1.524 . S
C2325 C2326 1.415 . S
C2326 H2302 0.950 . S
C2326 C2321 1.363 . S
C2326 C2325 1.415 . S
C2327 H2303 0.951 . S
C2327 C2328 1.366 . S
C2327 C2329 1.388 . S
C2328 C2327 1.366 . S
C2328 C2332 1.385 . S
C2329 H2304 0.951 . S
C2329 C2327 1.388 . S
C2329 C2330 1.366 . S
C2330 C2329 1.366 . S
C2330 C2331 1.414 . S
C2330 C2333 1.499 . S
C2331 H2305 0.950 . S
C2331 C2330 1.414 . S
C2331 C2332 1.374 . S
C2332 H2306 0.950 . S
C2332 C2328 1.385 . S
C2332 C2331 1.374 . S
C2333 C2330 1.499 . S
C2333 C2334 1.373 . S
C2333 C2335 1.389 . S
C2334 H2307 0.950 . S
C2334 C2320 1.377 . S
C2334 C2333 1.373 . S
C2335 C2319 1.377 . S
C2335 C2333 1.389 . S
C2335 C2336 1.524 . S
C2336 C2335 1.524 . S
C2336 C2337 1.397 . S
C2336 C2341 1.363 . S
C2337 H2308 0.950 . S
C2337 C2336 1.397 . S
C2337 C2338 1.334 . S
C2338 H2309 0.950 . S
C2338 C2337 1.334 . S
C2338 C2339 1.287 . S
C2339 C2338 1.287 . S
C2339 C2340 1.524 . S
C2339 H2342 0.999 . S
C2340 H2310 0.950 . S
C2340 C2339 1.524 . S
C2340 C2341 1.415 . S
C2341 H2311 0.950 . S
C2341 C2336 1.363 . S
C2341 C2340 1.415 . S
H2342 C2339 0.999 . S
H2343 C2324 0.913 . S
H2344 C2362 0.951 . S
H2345 C2364 0.951 . S
H2346 C2366 0.950 . S
H2347 C2367 0.950 . S
H2348 C2369 0.950 . S
H2349 C2372 0.950 . S
H2350 C2373 0.950 1_554 S
H2351 C2375 0.950 . S
H2352 C2376 0.950 . S
H2353 C2377 0.951 . S
H2354 C2379 0.951 . S
H2355 C2381 0.950 . S
H2356 C2382 0.950 . S
H2357 C2384 0.950 . S
H2358 C2387 0.950 . S
H2359 C2388 0.950 . S
H2360 C2390 0.950 . S
H2361 C2391 0.950 . S
C2362 H2344 0.951 . S
C2362 C2363 1.366 . S
C2362 C2364 1.388 . S
C2363 C2362 1.366 . S
C2363 C2367 1.385 . S
C2364 H2345 0.951 . S
C2364 C2362 1.388 . S
C2364 C2365 1.366 . S
C2365 C2364 1.366 . S
C2365 C2366 1.414 . S
C2365 C2368 1.499 . S
C2366 H2346 0.950 . S
C2366 C2365 1.414 . S
C2366 C2367 1.374 . S
C2367 H2347 0.950 . S
C2367 C2363 1.385 . S
C2367 C2366 1.374 . S
C2368 C2365 1.499 . S
C2368 C2369 1.373 . S
C2368 C2370 1.389 . S
C2369 H2348 0.950 . S
C2369 C2368 1.373 . S
C2369 C2385 1.377 . S
C2370 C2368 1.389 . S
C2370 C2371 1.524 . S
C2370 C2384 1.377 . S
C2371 C2370 1.524 . S
C2371 C2372 1.397 . S
C2371 C2376 1.363 . S
C2372 H2349 0.950 . S
C2372 C2371 1.397 . S
C2372 C2373 1.334 . S
C2373 H2350 0.950 1_556 S
C2373 C2372 1.334 . S
C2373 C2374 1.287 . S
C2374 C2373 1.287 . S
C2374 C2375 1.524 . S
C2374 H2393 0.913 1_556 S
C2375 H2351 0.950 . S
C2375 C2374 1.524 . S
C2375 C2376 1.415 . S
C2376 H2352 0.950 . S
C2376 C2371 1.363 . S
C2376 C2375 1.415 . S
C2377 H2353 0.951 . S
C2377 C2378 1.366 . S
C2377 C2379 1.388 . S
C2378 C2377 1.366 . S
C2378 C2382 1.385 . S
C2379 H2354 0.951 . S
C2379 C2377 1.388 . S
C2379 C2380 1.366 . S
C2380 C2379 1.366 . S
C2380 C2381 1.414 . S
C2380 C2383 1.499 . S
C2381 H2355 0.950 . S
C2381 C2380 1.414 . S
C2381 C2382 1.374 . S
C2382 H2356 0.950 . S
C2382 C2378 1.385 . S
C2382 C2381 1.374 . S
C2383 C2380 1.499 . S
C2383 C2384 1.373 . S
C2383 C2385 1.389 . S
C2384 H2357 0.950 . S
C2384 C2370 1.377 . S
C2384 C2383 1.373 . S
C2385 C2369 1.377 . S
C2385 C2383 1.389 . S
C2385 C2386 1.524 . S
C2386 C2385 1.524 . S
C2386 C2387 1.397 . S
C2386 C2391 1.363 . S
C2387 H2358 0.950 . S
C2387 C2386 1.397 . S
C2387 C2388 1.334 . S
C2388 H2359 0.950 . S
C2388 C2387 1.334 . S
C2388 C2389 1.287 . S
C2389 C2388 1.287 . S
C2389 C2390 1.524 . S
C2389 H2392 0.999 . S
C2390 H2360 0.950 . S
C2390 C2389 1.524 . S
C2390 C2391 1.415 . S
C2391 H2361 0.950 . S
C2391 C2386 1.363 . S
C2391 C2390 1.415 . S
H2392 C2389 0.999 . S
H2393 C2374 0.913 1_554 S
H2394 C2412 0.951 . S
H2395 C2414 0.951 . S
H2396 C2416 0.950 . S
H2397 C2417 0.950 . S
H2398 C2419 0.950 . S
H2399 C2422 0.950 . S
H2400 C2423 0.950 1_554 S
H2401 C2425 0.950 . S
H2402 C2426 0.950 . S
H2403 C2427 0.951 . S
H2404 C2429 0.951 . S
H2405 C2431 0.950 . S
H2406 C2432 0.950 . S
H2407 C2434 0.950 . S
H2408 C2437 0.950 . S
H2409 C2438 0.950 . S
H2410 C2440 0.950 . S
H2411 C2441 0.950 . S
C2412 H2394 0.951 . S
C2412 C2413 1.366 . S
C2412 C2414 1.388 . S
C2413 C2412 1.366 . S
C2413 C2417 1.385 . S
C2414 H2395 0.951 . S
C2414 C2412 1.388 . S
C2414 C2415 1.366 . S
C2415 C2414 1.366 . S
C2415 C2416 1.414 . S
C2415 C2418 1.499 . S
C2416 H2396 0.950 . S
C2416 C2415 1.414 . S
C2416 C2417 1.374 . S
C2417 H2397 0.950 . S
C2417 C2413 1.385 . S
C2417 C2416 1.374 . S
C2418 C2415 1.499 . S
C2418 C2419 1.373 . S
C2418 C2420 1.389 . S
C2419 H2398 0.950 . S
C2419 C2418 1.373 . S
C2419 C2435 1.377 . S
C2420 C2418 1.389 . S
C2420 C2421 1.524 . S
C2420 C2434 1.377 . S
C2421 C2420 1.524 . S
C2421 C2422 1.397 . S
C2421 C2426 1.363 . S
C2422 H2399 0.950 . S
C2422 C2421 1.397 . S
C2422 C2423 1.334 . S
C2423 H2400 0.950 1_556 S
C2423 C2422 1.334 . S
C2423 C2424 1.287 . S
C2424 C2423 1.287 . S
C2424 C2425 1.524 . S
C2424 H2443 0.894 1_556 S
C2425 H2401 0.950 . S
C2425 C2424 1.524 . S
C2425 C2426 1.415 . S
C2426 H2402 0.950 . S
C2426 C2421 1.363 . S
C2426 C2425 1.415 . S
C2427 H2403 0.951 . S
C2427 C2428 1.366 . S
C2427 C2429 1.388 . S
C2428 C2427 1.366 . S
C2428 C2432 1.385 . S
C2429 H2404 0.951 . S
C2429 C2427 1.388 . S
C2429 C2430 1.366 . S
C2430 C2429 1.366 . S
C2430 C2431 1.414 . S
C2430 C2433 1.499 . S
C2431 H2405 0.950 . S
C2431 C2430 1.414 . S
C2431 C2432 1.374 . S
C2432 H2406 0.950 . S
C2432 C2428 1.385 . S
C2432 C2431 1.374 . S
C2433 C2430 1.499 . S
C2433 C2434 1.373 . S
C2433 C2435 1.389 . S
C2434 H2407 0.950 . S
C2434 C2420 1.377 . S
C2434 C2433 1.373 . S
C2435 C2419 1.377 . S
C2435 C2433 1.389 . S
C2435 C2436 1.524 . S
C2436 C2435 1.524 . S
C2436 C2437 1.397 . S
C2436 C2441 1.363 . S
C2437 H2408 0.950 . S
C2437 C2436 1.397 . S
C2437 C2438 1.334 . S
C2438 H2409 0.950 . S
C2438 C2437 1.334 . S
C2438 C2439 1.287 . S
C2439 C2438 1.287 . S
C2439 C2440 1.524 . S
C2439 H2442 0.999 . S
C2440 H2410 0.950 . S
C2440 C2439 1.524 . S
C2440 C2441 1.415 . S
C2441 H2411 0.950 . S
C2441 C2436 1.363 . S
C2441 C2440 1.415 . S
H2442 C2439 0.999 . S
H2443 C2424 0.894 1_554 S
H2444 C2462 0.951 . S
H2445 C2464 0.951 . S
H2446 C2466 0.950 . S
H2447 C2467 0.950 . S
H2448 C2469 0.950 . S
H2449 C2472 0.950 . S
H2450 C2473 0.950 . S
H2451 C2475 0.950 . S
H2452 C2476 0.950 . S
H2453 C2477 0.951 . S
H2454 C2479 0.951 . S
H2455 C2481 0.950 . S
H2456 C2482 0.950 . S
H2457 C2484 0.950 . S
H2458 C2487 0.950 . S
H2459 C2488 0.950 . S
H2460 C2490 0.950 . S
H2461 C2491 0.950 . S
C2462 H2444 0.951 . S
C2462 C2463 1.366 . S
C2462 C2464 1.388 . S
C2463 C2462 1.366 . S
C2463 C2467 1.385 . S
C2464 H2445 0.951 . S
C2464 C2462 1.388 . S
C2464 C2465 1.366 . S
C2465 C2464 1.366 . S
C2465 C2466 1.414 . S
C2465 C2468 1.499 . S
C2466 H2446 0.950 . S
C2466 C2465 1.414 . S
C2466 C2467 1.374 . S
C2467 H2447 0.950 . S
C2467 C2463 1.385 . S
C2467 C2466 1.374 . S
C2468 C2465 1.499 . S
C2468 C2469 1.373 . S
C2468 C2470 1.389 . S
C2469 H2448 0.950 . S
C2469 C2468 1.373 . S
C2469 C2485 1.377 . S
C2470 C2468 1.389 . S
C2470 C2471 1.524 . S
C2470 C2484 1.377 . S
C2471 C2470 1.524 . S
C2471 C2472 1.397 . S
C2471 C2476 1.363 . S
C2472 H2449 0.950 . S
C2472 C2471 1.397 . S
C2472 C2473 1.334 . S
C2473 H2450 0.950 . S
C2473 C2472 1.334 . S
C2473 C2474 1.287 . S
C2474 C2473 1.287 . S
C2474 C2475 1.524 . S
C2474 H2493 0.913 . S
C2475 H2451 0.950 . S
C2475 C2474 1.524 . S
C2475 C2476 1.415 . S
C2476 H2452 0.950 . S
C2476 C2471 1.363 . S
C2476 C2475 1.415 . S
C2477 H2453 0.951 . S
C2477 C2478 1.366 . S
C2477 C2479 1.388 . S
C2478 C2477 1.366 . S
C2478 C2482 1.385 . S
C2479 H2454 0.951 . S
C2479 C2477 1.388 . S
C2479 C2480 1.366 . S
C2480 C2479 1.366 . S
C2480 C2481 1.414 . S
C2480 C2483 1.499 . S
C2481 H2455 0.950 . S
C2481 C2480 1.414 . S
C2481 C2482 1.374 . S
C2482 H2456 0.950 . S
C2482 C2478 1.385 . S
C2482 C2481 1.374 . S
C2483 C2480 1.499 . S
C2483 C2484 1.373 . S
C2483 C2485 1.389 . S
C2484 H2457 0.950 . S
C2484 C2470 1.377 . S
C2484 C2483 1.373 . S
C2485 C2469 1.377 . S
C2485 C2483 1.389 . S
C2485 C2486 1.524 . S
C2486 C2485 1.524 . S
C2486 C2487 1.397 . S
C2486 C2491 1.363 . S
C2487 H2458 0.950 . S
C2487 C2486 1.397 . S
C2487 C2488 1.334 . S
C2488 H2459 0.950 . S
C2488 C2487 1.334 . S
C2488 C2489 1.287 . S
C2489 C2488 1.287 . S
C2489 C2490 1.524 . S
C2489 H2492 0.999 . S
C2490 H2460 0.950 . S
C2490 C2489 1.524 . S
C2490 C2491 1.415 . S
C2491 H2461 0.950 . S
C2491 C2486 1.363 . S
C2491 C2490 1.415 . S
H2492 C2489 0.999 . S
H2493 C2474 0.913 . S
H2494 C2512 0.951 . S
H2495 C2514 0.951 . S
H2496 C2516 0.950 . S
H2497 C2517 0.950 . S
H2498 C2519 0.950 . S
H2499 C2522 0.950 . S
H2500 C2523 0.950 . S
H2501 C2525 0.950 . S
H2502 C2526 0.950 . S
H2503 C2527 0.951 . S
H2504 C2529 0.951 . S
H2505 C2531 0.950 . S
H2506 C2532 0.950 . S
H2507 C2534 0.950 . S
H2508 C2537 0.950 . S
H2509 C2538 0.950 . S
H2510 C2540 0.950 . S
H2511 C2541 0.950 . S
C2512 H2494 0.951 . S
C2512 C2513 1.366 . S
C2512 C2514 1.388 . S
C2513 C2512 1.366 . S
C2513 C2517 1.385 . S
C2514 H2495 0.951 . S
C2514 C2512 1.388 . S
C2514 C2515 1.366 . S
C2515 C2514 1.366 . S
C2515 C2516 1.414 . S
C2515 C2518 1.499 . S
C2516 H2496 0.950 . S
C2516 C2515 1.414 . S
C2516 C2517 1.374 . S
C2517 H2497 0.950 . S
C2517 C2513 1.385 . S
C2517 C2516 1.374 . S
C2518 C2515 1.499 . S
C2518 C2519 1.373 . S
C2518 C2520 1.389 . S
C2519 H2498 0.950 . S
C2519 C2518 1.373 . S
C2519 C2535 1.377 . S
C2520 C2518 1.389 . S
C2520 C2521 1.524 . S
C2520 C2534 1.377 . S
C2521 C2520 1.524 . S
C2521 C2522 1.397 . S
C2521 C2526 1.363 . S
C2522 H2499 0.950 . S
C2522 C2521 1.397 . S
C2522 C2523 1.334 . S
C2523 H2500 0.950 . S
C2523 C2522 1.334 . S
C2523 C2524 1.287 . S
C2524 C2523 1.287 . S
C2524 C2525 1.524 . S
C2524 H2543 0.913 . S
C2525 H2501 0.950 . S
C2525 C2524 1.524 . S
C2525 C2526 1.415 . S
C2526 H2502 0.950 . S
C2526 C2521 1.363 . S
C2526 C2525 1.415 . S
C2527 H2503 0.951 . S
C2527 C2528 1.366 . S
C2527 C2529 1.388 . S
C2528 C2527 1.366 . S
C2528 C2532 1.385 . S
C2529 H2504 0.951 . S
C2529 C2527 1.388 . S
C2529 C2530 1.366 . S
C2530 C2529 1.366 . S
C2530 C2531 1.414 . S
C2530 C2533 1.499 . S
C2531 H2505 0.950 . S
C2531 C2530 1.414 . S
C2531 C2532 1.374 . S
C2532 H2506 0.950 . S
C2532 C2528 1.385 . S
C2532 C2531 1.374 . S
C2533 C2530 1.499 . S
C2533 C2534 1.373 . S
C2533 C2535 1.389 . S
C2534 H2507 0.950 . S
C2534 C2520 1.377 . S
C2534 C2533 1.373 . S
C2535 C2519 1.377 . S
C2535 C2533 1.389 . S
C2535 C2536 1.524 . S
C2536 C2535 1.524 . S
C2536 C2537 1.397 . S
C2536 C2541 1.363 . S
C2537 H2508 0.950 . S
C2537 C2536 1.397 . S
C2537 C2538 1.334 . S
C2538 H2509 0.950 . S
C2538 C2537 1.334 . S
C2538 C2539 1.287 . S
C2539 C2538 1.287 . S
C2539 C2540 1.524 . S
C2539 H2542 0.999 . S
C2540 H2510 0.950 . S
C2540 C2539 1.524 . S
C2540 C2541 1.415 . S
C2541 H2511 0.950 . S
C2541 C2536 1.363 . S
C2541 C2540 1.415 . S
H2542 C2539 0.999 . S
H2543 C2524 0.913 . S
H2544 C2562 0.951 . S
H2545 C2564 0.951 . S
H2546 C2566 0.950 . S
H2547 C2567 0.950 . S
H2548 C2569 0.950 . S
H2549 C2572 0.950 . S
H2550 C2573 0.950 . S
H2551 C2575 0.950 . S
H2552 C2576 0.950 . S
H2553 C2577 0.951 1_556 S
H2554 C2579 0.951 . S
H2555 C2581 0.950 . S
H2556 C2582 0.950 . S
H2557 C2584 0.950 . S
H2558 C2587 0.950 . S
H2559 C2588 0.950 . S
H2560 C2590 0.950 . S
H2561 C2591 0.950 . S
C2562 H2544 0.951 . S
C2562 C2563 1.366 . S
C2562 C2564 1.388 . S
C2563 C2562 1.366 . S
C2563 C2567 1.385 . S
C2564 H2545 0.951 . S
C2564 C2562 1.388 . S
C2564 C2565 1.366 . S
C2565 C2564 1.366 . S
C2565 C2566 1.414 . S
C2565 C2568 1.499 . S
C2566 H2546 0.950 . S
C2566 C2565 1.414 . S
C2566 C2567 1.374 . S
C2567 H2547 0.950 . S
C2567 C2563 1.385 . S
C2567 C2566 1.374 . S
C2568 C2565 1.499 . S
C2568 C2569 1.373 . S
C2568 C2570 1.389 . S
C2569 H2548 0.950 . S
C2569 C2568 1.373 . S
C2569 C2585 1.377 . S
C2570 C2568 1.389 . S
C2570 C2571 1.524 . S
C2570 C2584 1.377 . S
C2571 C2570 1.524 . S
C2571 C2572 1.397 . S
C2571 C2576 1.363 . S
C2572 H2549 0.950 . S
C2572 C2571 1.397 . S
C2572 C2573 1.334 . S
C2573 H2550 0.950 . S
C2573 C2572 1.334 . S
C2573 C2574 1.287 . S
C2574 C2573 1.287 . S
C2574 C2575 1.524 . S
C2574 H2593 0.913 . S
C2575 H2551 0.950 . S
C2575 C2574 1.524 . S
C2575 C2576 1.415 . S
C2576 H2552 0.950 . S
C2576 C2571 1.363 . S
C2576 C2575 1.415 . S
C2577 H2553 0.951 1_554 S
C2577 C2578 1.366 . S
C2577 C2579 1.388 . S
C2578 C2577 1.366 . S
C2578 C2582 1.385 . S
C2579 H2554 0.951 . S
C2579 C2577 1.388 . S
C2579 C2580 1.366 . S
C2580 C2579 1.366 . S
C2580 C2581 1.414 . S
C2580 C2583 1.499 . S
C2581 H2555 0.950 . S
C2581 C2580 1.414 . S
C2581 C2582 1.374 . S
C2582 H2556 0.950 . S
C2582 C2578 1.385 . S
C2582 C2581 1.374 . S
C2583 C2580 1.499 . S
C2583 C2584 1.373 . S
C2583 C2585 1.389 . S
C2584 H2557 0.950 . S
C2584 C2570 1.377 . S
C2584 C2583 1.373 . S
C2585 C2569 1.377 . S
C2585 C2583 1.389 . S
C2585 C2586 1.524 . S
C2586 C2585 1.524 . S
C2586 C2587 1.397 . S
C2586 C2591 1.363 . S
C2587 H2558 0.950 . S
C2587 C2586 1.397 . S
C2587 C2588 1.334 . S
C2588 H2559 0.950 . S
C2588 C2587 1.334 . S
C2588 C2589 1.287 . S
C2589 C2588 1.287 . S
C2589 C2590 1.524 . S
C2589 H2592 0.999 . S
C2590 H2560 0.950 . S
C2590 C2589 1.524 . S
C2590 C2591 1.415 . S
C2591 H2561 0.950 . S
C2591 C2586 1.363 . S
C2591 C2590 1.415 . S
H2592 C2589 0.999 . S
H2593 C2574 0.913 . S
H2594 C2612 0.951 . S
H2595 C2614 0.951 . S
H2596 C2616 0.950 . S
H2597 C2617 0.950 . S
H2598 C2619 0.950 . S
H2599 C2622 0.950 . S
H2600 C2623 0.950 . S
H2601 C2625 0.950 . S
H2602 C2626 0.950 . S
H2603 C2627 0.951 . S
H2604 C2629 0.951 . S
H2605 C2631 0.950 . S
H2606 C2632 0.950 . S
H2607 C2634 0.950 . S
H2608 C2637 0.950 . S
H2609 C2638 0.950 . S
H2610 C2640 0.950 . S
H2611 C2641 0.950 . S
C2612 H2594 0.951 . S
C2612 C2613 1.366 . S
C2612 C2614 1.388 . S
C2613 C2612 1.366 . S
C2613 C2617 1.385 . S
C2614 H2595 0.951 . S
C2614 C2612 1.388 . S
C2614 C2615 1.366 . S
C2615 C2614 1.366 . S
C2615 C2616 1.414 . S
C2615 C2618 1.499 . S
C2616 H2596 0.950 . S
C2616 C2615 1.414 . S
C2616 C2617 1.374 . S
C2617 H2597 0.950 . S
C2617 C2613 1.385 . S
C2617 C2616 1.374 . S
C2618 C2615 1.499 . S
C2618 C2619 1.373 . S
C2618 C2620 1.389 . S
C2619 H2598 0.950 . S
C2619 C2618 1.373 . S
C2619 C2635 1.377 . S
C2620 C2618 1.389 . S
C2620 C2621 1.524 . S
C2620 C2634 1.377 . S
C2621 C2620 1.524 . S
C2621 C2622 1.397 . S
C2621 C2626 1.363 . S
C2622 H2599 0.950 . S
C2622 C2621 1.397 . S
C2622 C2623 1.334 . S
C2623 H2600 0.950 . S
C2623 C2622 1.334 . S
C2623 C2624 1.287 . S
C2624 C2623 1.287 . S
C2624 C2625 1.524 . S
C2624 H2643 0.913 . S
C2625 H2601 0.950 . S
C2625 C2624 1.524 . S
C2625 C2626 1.415 . S
C2626 H2602 0.950 . S
C2626 C2621 1.363 . S
C2626 C2625 1.415 . S
C2627 H2603 0.951 . S
C2627 C2628 1.366 . S
C2627 C2629 1.388 . S
C2628 C2627 1.366 . S
C2628 C2632 1.385 . S
C2629 H2604 0.951 . S
C2629 C2627 1.388 . S
C2629 C2630 1.366 . S
C2630 C2629 1.366 . S
C2630 C2631 1.414 . S
C2630 C2633 1.499 . S
C2631 H2605 0.950 . S
C2631 C2630 1.414 . S
C2631 C2632 1.374 . S
C2632 H2606 0.950 . S
C2632 C2628 1.385 . S
C2632 C2631 1.374 . S
C2633 C2630 1.499 . S
C2633 C2634 1.373 . S
C2633 C2635 1.389 . S
C2634 H2607 0.950 . S
C2634 C2620 1.377 . S
C2634 C2633 1.373 . S
C2635 C2619 1.377 . S
C2635 C2633 1.389 . S
C2635 C2636 1.524 . S
C2636 C2635 1.524 . S
C2636 C2637 1.397 . S
C2636 C2641 1.363 . S
C2637 H2608 0.950 . S
C2637 C2636 1.397 . S
C2637 C2638 1.334 . S
C2638 H2609 0.950 . S
C2638 C2637 1.334 . S
C2638 C2639 1.287 . S
C2639 C2638 1.287 . S
C2639 C2640 1.524 . S
C2639 H2642 0.999 . S
C2640 H2610 0.950 . S
C2640 C2639 1.524 . S
C2640 C2641 1.415 . S
C2641 H2611 0.950 . S
C2641 C2636 1.363 . S
C2641 C2640 1.415 . S
H2642 C2639 0.999 . S
H2643 C2624 0.913 . S
H2644 C2662 0.951 . S
H2645 C2664 0.951 . S
H2646 C2666 0.950 . S
H2647 C2667 0.950 . S
H2648 C2669 0.950 . S
H2649 C2672 0.950 . S
H2650 C2673 0.950 . S
H2651 C2675 0.950 . S
H2652 C2676 0.950 . S
H2653 C2677 0.951 . S
H2654 C2679 0.951 . S
H2655 C2681 0.950 . S
H2656 C2682 0.950 1_556 S
H2657 C2684 0.950 . S
H2658 C2687 0.950 . S
H2659 C2688 0.950 . S
H2660 C2690 0.950 . S
H2661 C2691 0.950 . S
C2662 H2644 0.951 . S
C2662 C2663 1.366 . S
C2662 C2664 1.388 . S
C2663 C2662 1.366 . S
C2663 C2667 1.385 . S
C2664 H2645 0.951 . S
C2664 C2662 1.388 . S
C2664 C2665 1.366 . S
C2665 C2664 1.366 . S
C2665 C2666 1.414 . S
C2665 C2668 1.499 . S
C2666 H2646 0.950 . S
C2666 C2665 1.414 . S
C2666 C2667 1.374 . S
C2667 H2647 0.950 . S
C2667 C2663 1.385 . S
C2667 C2666 1.374 . S
C2668 C2665 1.499 . S
C2668 C2669 1.373 . S
C2668 C2670 1.389 . S
C2669 H2648 0.950 . S
C2669 C2668 1.373 . S
C2669 C2685 1.377 . S
C2670 C2668 1.389 . S
C2670 C2671 1.524 . S
C2670 C2684 1.377 . S
C2671 C2670 1.524 . S
C2671 C2672 1.397 . S
C2671 C2676 1.363 . S
C2672 H2649 0.950 . S
C2672 C2671 1.397 . S
C2672 C2673 1.334 . S
C2673 H2650 0.950 . S
C2673 C2672 1.334 . S
C2673 C2674 1.287 . S
C2674 C2673 1.287 . S
C2674 C2675 1.524 . S
C2674 H2693 0.913 . S
C2675 H2651 0.950 . S
C2675 C2674 1.524 . S
C2675 C2676 1.415 . S
C2676 H2652 0.950 . S
C2676 C2671 1.363 . S
C2676 C2675 1.415 . S
C2677 H2653 0.951 . S
C2677 C2678 1.366 . S
C2677 C2679 1.388 . S
C2678 C2677 1.366 . S
C2678 C2682 1.385 . S
C2679 H2654 0.951 . S
C2679 C2677 1.388 . S
C2679 C2680 1.366 . S
C2680 C2679 1.366 . S
C2680 C2681 1.414 . S
C2680 C2683 1.499 . S
C2681 H2655 0.950 . S
C2681 C2680 1.414 . S
C2681 C2682 1.374 . S
C2682 H2656 0.950 1_554 S
C2682 C2678 1.385 . S
C2682 C2681 1.374 . S
C2683 C2680 1.499 . S
C2683 C2684 1.373 . S
C2683 C2685 1.389 . S
C2684 H2657 0.950 . S
C2684 C2670 1.377 . S
C2684 C2683 1.373 . S
C2685 C2669 1.377 . S
C2685 C2683 1.389 . S
C2685 C2686 1.524 . S
C2686 C2685 1.524 . S
C2686 C2687 1.397 . S
C2686 C2691 1.363 . S
C2687 H2658 0.950 . S
C2687 C2686 1.397 . S
C2687 C2688 1.334 . S
C2688 H2659 0.950 . S
C2688 C2687 1.334 . S
C2688 C2689 1.287 . S
C2689 C2688 1.287 . S
C2689 C2690 1.524 . S
C2689 H2692 0.999 . S
C2690 H2660 0.950 . S
C2690 C2689 1.524 . S
C2690 C2691 1.415 . S
C2691 H2661 0.950 . S
C2691 C2686 1.363 . S
C2691 C2690 1.415 . S
H2692 C2689 0.999 . S
H2693 C2674 0.913 . S
H2694 C2712 0.951 . S
H2695 C2714 0.951 . S
H2696 C2716 0.950 . S
H2697 C2717 0.950 . S
H2698 C2719 0.950 . S
H2699 C2722 0.950 . S
H2700 C2723 0.950 . S
H2701 C2725 0.950 . S
H2702 C2726 0.950 . S
H2703 C2727 0.951 . S
H2704 C2729 0.951 . S
H2705 C2731 0.950 . S
H2706 C2732 0.950 . S
H2707 C2734 0.950 . S
H2708 C2737 0.950 . S
H2709 C2738 0.950 . S
H2710 C2740 0.950 . S
H2711 C2741 0.950 . S
C2712 H2694 0.951 . S
C2712 C2713 1.366 . S
C2712 C2714 1.388 . S
C2713 C2712 1.366 . S
C2713 C2717 1.385 . S
C2714 H2695 0.951 . S
C2714 C2712 1.388 . S
C2714 C2715 1.366 . S
C2715 C2714 1.366 . S
C2715 C2716 1.414 . S
C2715 C2718 1.499 . S
C2716 H2696 0.950 . S
C2716 C2715 1.414 . S
C2716 C2717 1.374 . S
C2717 H2697 0.950 . S
C2717 C2713 1.385 . S
C2717 C2716 1.374 . S
C2718 C2715 1.499 . S
C2718 C2719 1.373 . S
C2718 C2720 1.389 . S
C2719 H2698 0.950 . S
C2719 C2718 1.373 . S
C2719 C2735 1.377 . S
C2720 C2718 1.389 . S
C2720 C2721 1.524 . S
C2720 C2734 1.377 . S
C2721 C2720 1.524 . S
C2721 C2722 1.397 . S
C2721 C2726 1.363 . S
C2722 H2699 0.950 . S
C2722 C2721 1.397 . S
C2722 C2723 1.334 . S
C2723 H2700 0.950 . S
C2723 C2722 1.334 . S
C2723 C2724 1.287 . S
C2724 C2723 1.287 . S
C2724 C2725 1.524 . S
C2724 H2743 0.913 . S
C2725 H2701 0.950 . S
C2725 C2724 1.524 . S
C2725 C2726 1.415 . S
C2726 H2702 0.950 . S
C2726 C2721 1.363 . S
C2726 C2725 1.415 . S
C2727 H2703 0.951 . S
C2727 C2728 1.366 . S
C2727 C2729 1.388 . S
C2728 C2727 1.366 . S
C2728 C2732 1.385 . S
C2729 H2704 0.951 . S
C2729 C2727 1.388 . S
C2729 C2730 1.366 . S
C2730 C2729 1.366 . S
C2730 C2731 1.414 . S
C2730 C2733 1.499 . S
C2731 H2705 0.950 . S
C2731 C2730 1.414 . S
C2731 C2732 1.374 . S
C2732 H2706 0.950 . S
C2732 C2728 1.385 . S
C2732 C2731 1.374 . S
C2733 C2730 1.499 . S
C2733 C2734 1.373 . S
C2733 C2735 1.389 . S
C2734 H2707 0.950 . S
C2734 C2720 1.377 . S
C2734 C2733 1.373 . S
C2735 C2719 1.377 . S
C2735 C2733 1.389 . S
C2735 C2736 1.524 . S
C2736 C2735 1.524 . S
C2736 C2737 1.397 . S
C2736 C2741 1.363 . S
C2737 H2708 0.950 . S
C2737 C2736 1.397 . S
C2737 C2738 1.334 . S
C2738 H2709 0.950 . S
C2738 C2737 1.334 . S
C2738 C2739 1.287 . S
C2739 C2738 1.287 . S
C2739 C2740 1.524 . S
C2739 H2742 0.999 1_554 S
C2740 H2710 0.950 . S
C2740 C2739 1.524 . S
C2740 C2741 1.415 . S
C2741 H2711 0.950 . S
C2741 C2736 1.363 . S
C2741 C2740 1.415 . S
H2742 C2739 0.999 1_556 S
H2743 C2724 0.913 . S
H2744 C2762 0.951 . S
H2745 C2764 0.951 . S
H2746 C2766 0.950 . S
H2747 C2767 0.950 . S
H2748 C2769 0.950 . S
H2749 C2772 0.950 . S
H2750 C2773 0.950 . S
H2751 C2775 0.950 . S
H2752 C2776 0.950 . S
H2753 C2777 0.951 . S
H2754 C2779 0.951 . S
H2755 C2781 0.950 . S
H2756 C2782 0.950 . S
H2757 C2784 0.950 . S
H2758 C2787 0.950 . S
H2759 C2788 0.950 . S
H2760 C2790 0.950 . S
H2761 C2791 0.950 . S
C2762 H2744 0.951 . S
C2762 C2763 1.366 . S
C2762 C2764 1.388 . S
C2763 C2762 1.366 . S
C2763 C2767 1.385 . S
C2764 H2745 0.951 . S
C2764 C2762 1.388 . S
C2764 C2765 1.366 . S
C2765 C2764 1.366 . S
C2765 C2766 1.414 . S
C2765 C2768 1.499 . S
C2766 H2746 0.950 . S
C2766 C2765 1.414 . S
C2766 C2767 1.374 . S
C2767 H2747 0.950 . S
C2767 C2763 1.385 . S
C2767 C2766 1.374 . S
C2768 C2765 1.499 . S
C2768 C2769 1.373 . S
C2768 C2770 1.389 . S
C2769 H2748 0.950 . S
C2769 C2768 1.373 . S
C2769 C2785 1.377 . S
C2770 C2768 1.389 . S
C2770 C2771 1.524 . S
C2770 C2784 1.377 . S
C2771 C2770 1.524 . S
C2771 C2772 1.397 . S
C2771 C2776 1.363 . S
C2772 H2749 0.950 . S
C2772 C2771 1.397 . S
C2772 C2773 1.334 . S
C2773 H2750 0.950 . S
C2773 C2772 1.334 . S
C2773 C2774 1.287 . S
C2774 C2773 1.287 . S
C2774 C2775 1.524 . S
C2774 H2793 0.913 . S
C2775 H2751 0.950 . S
C2775 C2774 1.524 . S
C2775 C2776 1.415 . S
C2776 H2752 0.950 . S
C2776 C2771 1.363 . S
C2776 C2775 1.415 . S
C2777 H2753 0.951 . S
C2777 C2778 1.366 . S
C2777 C2779 1.388 . S
C2778 C2777 1.366 . S
C2778 C2782 1.385 . S
C2779 H2754 0.951 . S
C2779 C2777 1.388 . S
C2779 C2780 1.366 . S
C2780 C2779 1.366 . S
C2780 C2781 1.414 . S
C2780 C2783 1.499 . S
C2781 H2755 0.950 . S
C2781 C2780 1.414 . S
C2781 C2782 1.374 . S
C2782 H2756 0.950 . S
C2782 C2778 1.385 . S
C2782 C2781 1.374 . S
C2783 C2780 1.499 . S
C2783 C2784 1.373 . S
C2783 C2785 1.389 . S
C2784 H2757 0.950 . S
C2784 C2770 1.377 . S
C2784 C2783 1.373 . S
C2785 C2769 1.377 . S
C2785 C2783 1.389 . S
C2785 C2786 1.524 . S
C2786 C2785 1.524 . S
C2786 C2787 1.397 . S
C2786 C2791 1.363 . S
C2787 H2758 0.950 . S
C2787 C2786 1.397 . S
C2787 C2788 1.334 . S
C2788 H2759 0.950 . S
C2788 C2787 1.334 . S
C2788 C2789 1.281 1_554 S
C2789 C2788 1.281 1_556 S
C2789 C2790 1.520 1_556 S
C2789 H2792 1.011 . S
C2790 H2760 0.950 . S
C2790 C2789 1.520 1_554 S
C2790 C2791 1.415 . S
C2791 H2761 0.950 . S
C2791 C2786 1.363 . S
C2791 C2790 1.415 . S
H2792 C2789 1.011 . S
H2793 C2774 0.913 . S
H2794 C2812 0.951 . S
H2795 C2814 0.951 . S
H2796 C2816 0.950 . S
H2797 C2817 0.950 . S
H2798 C2819 0.950 . S
H2799 C2822 0.950 . S
H2800 C2823 0.950 . S
H2801 C2825 0.950 . S
H2802 C2826 0.950 . S
H2803 C2827 0.951 . S
H2804 C2829 0.951 . S
H2805 C2831 0.950 . S
H2806 C2832 0.950 . S
H2807 C2834 0.950 . S
H2808 C2837 0.950 . S
H2809 C2838 0.950 . S
H2810 C2840 0.950 . S
H2811 C2841 0.950 . S
C2812 H2794 0.951 . S
C2812 C2813 1.366 . S
C2812 C2814 1.388 . S
C2813 C2812 1.366 . S
C2813 C2817 1.385 . S
C2814 H2795 0.951 . S
C2814 C2812 1.388 . S
C2814 C2815 1.366 . S
C2815 C2814 1.366 . S
C2815 C2816 1.414 . S
C2815 C2818 1.499 . S
C2816 H2796 0.950 . S
C2816 C2815 1.414 . S
C2816 C2817 1.374 . S
C2817 H2797 0.950 . S
C2817 C2813 1.385 . S
C2817 C2816 1.374 . S
C2818 C2815 1.499 . S
C2818 C2819 1.373 . S
C2818 C2820 1.389 . S
C2819 H2798 0.950 . S
C2819 C2818 1.373 . S
C2819 C2835 1.377 . S
C2820 C2818 1.389 . S
C2820 C2821 1.524 . S
C2820 C2834 1.377 . S
C2821 C2820 1.524 . S
C2821 C2822 1.397 . S
C2821 C2826 1.363 . S
C2822 H2799 0.950 . S
C2822 C2821 1.397 . S
C2822 C2823 1.334 . S
C2823 H2800 0.950 . S
C2823 C2822 1.334 . S
C2823 C2824 1.287 . S
C2824 C2823 1.287 . S
C2824 C2825 1.524 . S
C2824 H2843 0.913 . S
C2825 H2801 0.950 . S
C2825 C2824 1.524 . S
C2825 C2826 1.415 . S
C2826 H2802 0.950 . S
C2826 C2821 1.363 . S
C2826 C2825 1.415 . S
C2827 H2803 0.951 . S
C2827 C2828 1.366 . S
C2827 C2829 1.388 . S
C2828 C2827 1.366 . S
C2828 C2832 1.385 . S
C2829 H2804 0.951 . S
C2829 C2827 1.388 . S
C2829 C2830 1.366 . S
C2830 C2829 1.366 . S
C2830 C2831 1.414 . S
C2830 C2833 1.499 . S
C2831 H2805 0.950 . S
C2831 C2830 1.414 . S
C2831 C2832 1.374 . S
C2832 H2806 0.950 . S
C2832 C2828 1.385 . S
C2832 C2831 1.374 . S
C2833 C2830 1.499 . S
C2833 C2834 1.373 . S
C2833 C2835 1.389 . S
C2834 H2807 0.950 . S
C2834 C2820 1.377 . S
C2834 C2833 1.373 . S
C2835 C2819 1.377 . S
C2835 C2833 1.389 . S
C2835 C2836 1.524 . S
C2836 C2835 1.524 . S
C2836 C2837 1.397 . S
C2836 C2841 1.363 . S
C2837 H2808 0.950 . S
C2837 C2836 1.397 . S
C2837 C2838 1.334 . S
C2838 H2809 0.950 . S
C2838 C2837 1.334 . S
C2838 C2839 1.287 . S
C2839 C2838 1.287 . S
C2839 C2840 1.524 . S
C2839 H2842 0.999 . S
C2840 H2810 0.950 . S
C2840 C2839 1.524 . S
C2840 C2841 1.415 . S
C2841 H2811 0.950 . S
C2841 C2836 1.363 . S
C2841 C2840 1.415 . S
H2842 C2839 0.999 . S
H2843 C2824 0.913 . S
C613 N113 1.225 . S
C628 N14 1.225 . S
C663 N146 1.226 . S
C678 N47 1.226 . S
C713 N80 1.226 . S
C728 N179 1.226 . S
C763 C41 2.229 . S
C778 C173 2.229 . S
C813 C107 2.229 . S
C828 C74 2.229 . S
C863 C140 2.229 . S
C878 C8 2.229 . S
C913 N212 1.226 . S
C928 N311 1.226 . S
C963 N344 1.226 . S
C978 N245 1.225 . S
C1013 N278 1.225 . S
C1028 N377 1.225 . S
C1063 C371 2.229 . S
C1078 C239 2.229 . S
C1113 C305 2.229 . S
C1128 C272 2.229 . S
C1163 C338 2.229 . S
C1178 C206 2.229 . S
C1213 N509 1.226 . S
C1228 N410 1.226 . S
C1263 N443 1.225 . S
C1278 N542 1.225 . S
C1313 N575 1.225 . S
C1328 N476 1.225 . S
C1363 C437 2.229 . S
C1378 C569 2.229 . S
C1413 C503 2.229 . S
C1428 C470 2.229 . S
C1463 C404 2.229 . S
C1478 C536 2.229 . S
C1513 C578 1.464 . S
C1528 C17 1.464 . S
C1563 C50 1.463 . S
C1578 C512 1.463 . S
C1613 C545 1.463 . S
C1628 C83 1.463 . S
C1663 C248 1.463 . S
C1678 C116 1.463 . S
C1713 C149 1.463 . S
C1728 C281 1.463 . S
C1763 C182 1.464 . S
C1778 C215 1.464 . S
C1813 C446 1.464 . S
C1828 C314 1.464 . S
C1863 C479 1.463 . S
C1878 C347 1.463 . S
C1913 C380 1.464 . S
C1928 C413 1.464 . S
C1963 C28 1.863 . S
C1978 C127 1.863 . S
C2013 C160 1.863 . S
C2028 C61 1.863 . S
C2063 C94 1.863 . S
C2078 C193 1.863 . S
C2113 N170 0.561 . S
C2128 N38 0.560 . S
C2163 N71 0.558 . S
C2178 N104 0.559 . S
C2213 N137 0.559 . S
C2228 N5 0.560 . S
C2263 C226 1.863 . S
C2278 C325 1.863 1_556 S
C2313 C358 1.863 1_556 S
C2328 C259 1.863 . S
C2363 C391 1.863 1_556 S
C2378 C292 1.863 . S
C2413 N368 0.562 . S
C2428 N236 0.561 . S
C2463 N302 0.558 . S
C2478 N269 0.559 . S
C2513 N335 0.559 . S
C2528 N203 0.558 . S
C2563 C523 1.863 . S
C2578 C424 1.863 1_554 S
C2613 C556 1.863 . S
C2628 C457 1.863 1_554 S
C2663 C589 1.863 . S
C2678 C490 1.863 1_554 S
C2713 N566 0.560 . S
C2728 N434 0.561 . S
C2763 N500 0.561 . S
C2778 N467 0.562 . S
C2813 N533 0.558 . S
C2828 N401 0.559 . S
