# Generated by pormake.
# Topology uog, (4)-cn, num edge types: 1
# Building blocks:
#     Node 0, Type 0, BuildingBlock: KUFVIS_clean_sbu_0, # of connection points: 4
#     Node 1, Type 0, BuildingBlock: KUFVIS_clean_sbu_0, # of connection points: 4
#     Node 2, Type 0, BuildingBlock: KUFVIS_clean_sbu_0, # of connection points: 4
#     Node 3, Type 0, BuildingBlock: KUFVIS_clean_sbu_0, # of connection points: 4
#     Node 4, Type 0, BuildingBlock: KUFVIS_clean_sbu_0, # of connection points: 4
#     Node 5, Type 0, BuildingBlock: KUFVIS_clean_sbu_0, # of connection points: 4
#     Edge 6, Type (0, 0), BuildingBlock: ZUJKAS_clean_linker_0, # of connection points: 2
#     Edge 7, Type (0, 0), BuildingBlock: ZUJKAS_clean_linker_0, # of connection points: 2
#     Edge 8, Type (0, 0), BuildingBlock: ZUJKAS_clean_linker_0, # of connection points: 2
#     Edge 9, Type (0, 0), BuildingBlock: ZUJKAS_clean_linker_0, # of connection points: 2
#     Edge 10, Type (0, 0), BuildingBlock: ZUJKAS_clean_linker_0, # of connection points: 2
#     Edge 11, Type (0, 0), BuildingBlock: ZUJKAS_clean_linker_0, # of connection points: 2
#     Edge 12, Type (0, 0), BuildingBlock: ZUJKAS_clean_linker_0, # of connection points: 2
#     Edge 13, Type (0, 0), BuildingBlock: ZUJKAS_clean_linker_0, # of connection points: 2
#     Edge 14, Type (0, 0), BuildingBlock: ZUJKAS_clean_linker_0, # of connection points: 2
#     Edge 15, Type (0, 0), BuildingBlock: ZUJKAS_clean_linker_0, # of connection points: 2
#     Edge 16, Type (0, 0), BuildingBlock: ZUJKAS_clean_linker_0, # of connection points: 2
#     Edge 17, Type (0, 0), BuildingBlock: ZUJKAS_clean_linker_0, # of connection points: 2
# Relax obj value: 0.109
# Max RMSD: 0.207
# Mean RMSD: 0.206
data_MOF--net-uog--node1-KUFVIS_clean_sbu_0--edge1-ZUJKAS_clean_linker_0
_symmetry_space_group_name_H-M    P1
_symmetry_Int_Tables_number       1
_symmetry_cell_setting            triclinic
loop_
_symmetry_equiv_pos_as_xyz
'x, y, z'
_cell_length_a     37.024109
_cell_length_b     37.005692
_cell_length_c     53.930861
_cell_angle_alpha  90.01615
_cell_angle_beta   89.99208
_cell_angle_gamma 120.04608
loop_
_atom_site_label
_atom_site_type_symbol
_atom_site_fract_x
_atom_site_fract_y
_atom_site_fract_z
_atom_type_partial_charge
Mn0 Mn 0.60167 0.29074 0.15206 0.0
Mn1 Mn 0.68692 0.38681 0.15236 0.0
C2 C 0.63216 0.32172 0.11513 0.0
C3 C 0.57514 0.21896 0.15594 0.0
C4 C 0.59889 0.37048 0.16114 0.0
O5 O 0.62112 0.29962 0.1877 0.0
O6 O 0.68254 0.3597 0.18498 0.0
C7 C 0.75299 0.3642 0.15513 0.0
N8 N 0.73531 0.38397 0.14326 0.0
C9 C 0.78794 0.40902 0.11144 0.0
C10 C 0.80689 0.38918 0.12344 0.0
C11 C 0.78929 0.36662 0.14535 0.0
C12 C 0.75202 0.40584 0.12219 0.0
H13 H 0.73942 0.34664 0.17191 0.0
C14 C 0.65545 0.32762 0.19701 0.0
O15 O 0.55204 0.23544 0.16072 0.0
O16 O 0.61313 0.24412 0.14894 0.0
N17 N 0.69499 0.4162 0.12178 0.0
C18 C 0.67132 0.43111 0.11161 0.0
C19 C 0.68371 0.45304 0.08909 0.0
C20 C 0.72036 0.45961 0.07733 0.0
C21 C 0.74444 0.44436 0.08827 0.0
C22 C 0.73073 0.42303 0.11084 0.0
H23 H 0.64304 0.42605 0.1205 0.0
O24 O 0.59413 0.29061 0.11554 0.0
O25 O 0.65148 0.33286 0.1363 0.0
O26 O 0.57942 0.33133 0.15651 0.0
O27 O 0.63865 0.39315 0.1614 0.0
C28 C 0.78095 0.4486 0.07736 0.0
C29 C 0.80269 0.43096 0.08894 0.0
H30 H 0.8347 0.39068 0.11584 0.0
H31 H 0.8036 0.35102 0.15463 0.0
H32 H 0.66492 0.46466 0.08074 0.0
H33 H 0.72954 0.47611 0.05981 0.0
H34 H 0.7922 0.46479 0.05986 0.0
H35 H 0.83035 0.43388 0.08018 0.0
Mn36 Mn 0.30444 0.59603 0.48628 0.0
Mn37 Mn 0.29401 0.68155 0.4869 0.0
C38 C 0.29156 0.61945 0.44989 0.0
C39 C 0.34994 0.56956 0.48597 0.0
C40 C 0.22513 0.59559 0.50252 0.0
O41 O 0.32588 0.62126 0.51999 0.0
O42 O 0.32374 0.68082 0.5175 0.0
C43 C 0.3832 0.74564 0.48202 0.0
N44 N 0.3433 0.72763 0.47345 0.0
C45 C 0.36422 0.77621 0.43951 0.0
C46 C 0.4055 0.79549 0.44808 0.0
C47 C 0.41504 0.78005 0.46939 0.0
C48 C 0.33382 0.74204 0.45288 0.0
H49 H 0.39067 0.73379 0.49835 0.0
C50 C 0.33314 0.65617 0.52877 0.0
O51 O 0.31237 0.5478 0.49488 0.0
O52 O 0.36051 0.60606 0.4771 0.0
N53 N 0.26612 0.68688 0.45846 0.0
C54 C 0.22504 0.66384 0.45214 0.0
C55 C 0.21053 0.67461 0.43092 0.0
C56 C 0.23823 0.70923 0.41662 0.0
C57 C 0.28022 0.73286 0.42371 0.0
C58 C 0.29287 0.72068 0.44506 0.0
H59 H 0.20354 0.6373 0.46312 0.0
O60 O 0.28554 0.58182 0.45144 0.0
O61 O 0.30702 0.64302 0.4694 0.0
O62 O 0.24396 0.5755 0.49727 0.0
O63 O 0.24161 0.63516 0.50036 0.0
C64 C 0.3101 0.76779 0.41031 0.0
C65 C 0.35211 0.78928 0.41811 0.0
H66 H 0.43015 0.82199 0.43836 0.0
H67 H 0.44686 0.79463 0.47604 0.0
H68 H 0.17806 0.65626 0.4256 0.0
H69 H 0.22695 0.71733 0.40021 0.0
H70 H 0.30119 0.77821 0.39386 0.0
H71 H 0.37489 0.81573 0.40745 0.0
Mn72 Mn 0.70675 0.29636 0.82777 0.0
Mn73 Mn 0.72138 0.39388 0.8297 0.0
C74 C 0.72218 0.33125 0.86498 0.0
C75 C 0.65901 0.22473 0.8271 0.0
C76 C 0.78626 0.37345 0.81055 0.0
O77 O 0.68501 0.30314 0.79471 0.0
O78 O 0.68743 0.36463 0.80001 0.0
C79 C 0.63447 0.3741 0.8385 0.0
N80 N 0.67528 0.39395 0.84551 0.0
C81 C 0.6614 0.42604 0.88022 0.0
C82 C 0.61924 0.40614 0.87329 0.0
C83 C 0.6057 0.37992 0.8524 0.0
C84 C 0.68859 0.41898 0.86568 0.0
H85 H 0.624 0.35402 0.82241 0.0
C86 C 0.67721 0.33134 0.78761 0.0
O87 O 0.69615 0.23979 0.81769 0.0
O88 O 0.65009 0.2512 0.83703 0.0
N89 N 0.75347 0.42584 0.85756 0.0
C90 C 0.79455 0.44049 0.86266 0.0
C91 C 0.81269 0.46602 0.8835 0.0
C92 C 0.7886 0.47668 0.89867 0.0
C93 C 0.74648 0.4615 0.89294 0.0
C94 C 0.73007 0.43607 0.87198 0.0
H95 H 0.81332 0.43269 0.85096 0.0
O96 O 0.72654 0.29877 0.86231 0.0
O97 O 0.70697 0.34109 0.84609 0.0
O98 O 0.76714 0.33471 0.81622 0.0
O99 O 0.77092 0.39734 0.81356 0.0
C100 C 0.72001 0.47025 0.90732 0.0
C101 C 0.67743 0.45226 0.9011 0.0
H102 H 0.59695 0.41054 0.88397 0.0
H103 H 0.57319 0.36431 0.847 0.0
H104 H 0.84521 0.47757 0.88782 0.0
H105 H 0.80271 0.49638 0.91474 0.0
H106 H 0.73199 0.49042 0.92339 0.0
H107 H 0.65724 0.4586 0.91259 0.0
Mn108 Mn 0.40819 0.70861 0.15252 0.0
Mn109 Mn 0.32473 0.61198 0.14702 0.0
C110 C 0.3833 0.68208 0.11377 0.0
C111 C 0.43264 0.77965 0.15869 0.0
C112 C 0.41185 0.62908 0.15988 0.0
O113 O 0.38357 0.69484 0.18711 0.0
O114 O 0.32336 0.63481 0.18016 0.0
C115 C 0.25672 0.632 0.14734 0.0
N116 N 0.27711 0.6146 0.13586 0.0
C117 C 0.2296 0.59252 0.10133 0.0
C118 C 0.2079 0.60994 0.11287 0.0
C119 C 0.22157 0.62982 0.13595 0.0
C120 C 0.26418 0.5953 0.11368 0.0
H121 H 0.26726 0.64749 0.16503 0.0
C122 C 0.34805 0.66534 0.19413 0.0
O123 O 0.45569 0.76335 0.16413 0.0
O124 O 0.39575 0.75464 0.15001 0.0
N125 N 0.32229 0.5868 0.11557 0.0
C126 C 0.34836 0.57421 0.10614 0.0
C127 C 0.34006 0.55521 0.08268 0.0
C128 C 0.305 0.54919 0.06922 0.0
C129 C 0.27843 0.56208 0.07938 0.0
C130 C 0.28807 0.58051 0.10294 0.0
H131 H 0.37544 0.57886 0.11634 0.0
O132 O 0.42088 0.71342 0.11636 0.0
O133 O 0.36131 0.66801 0.13389 0.0
O134 O 0.43118 0.66864 0.15682 0.0
O135 O 0.37229 0.60583 0.15805 0.0
C136 C 0.24332 0.55826 0.06682 0.0
C137 C 0.21891 0.57344 0.07779 0.0
H138 H 0.181 0.60864 0.10405 0.0
H139 H 0.20513 0.64355 0.1449 0.0
H140 H 0.36077 0.54543 0.07494 0.0
H141 H 0.29898 0.53496 0.05101 0.0
H142 H 0.23521 0.54431 0.04853 0.0
H143 H 0.19238 0.57091 0.06778 0.0
Mn144 Mn 0.70183 0.41216 0.48826 0.0
Mn145 Mn 0.71386 0.32782 0.49149 0.0
C146 C 0.71079 0.38414 0.45244 0.0
C147 C 0.65551 0.43765 0.48785 0.0
C148 C 0.78258 0.41576 0.50394 0.0
O149 O 0.68398 0.39064 0.52312 0.0
O150 O 0.68466 0.33013 0.52195 0.0
C151 C 0.6254 0.261 0.48846 0.0
N152 N 0.66499 0.27968 0.47932 0.0
C153 C 0.64422 0.22917 0.44643 0.0
C154 C 0.60328 0.2092 0.4556 0.0
C155 C 0.59383 0.22524 0.47668 0.0
C156 C 0.67444 0.26451 0.45906 0.0
H157 H 0.61799 0.27339 0.50458 0.0
C158 C 0.67651 0.35613 0.53271 0.0
O159 O 0.69384 0.46085 0.49529 0.0
O160 O 0.64458 0.4002 0.48055 0.0
N161 N 0.74136 0.32173 0.46307 0.0
C162 C 0.78182 0.346 0.45579 0.0
C163 C 0.79608 0.33491 0.4346 0.0
C164 C 0.76872 0.29892 0.42119 0.0
C165 C 0.72727 0.27432 0.4291 0.0
C166 C 0.71494 0.28667 0.45052 0.0
H167 H 0.80303 0.37371 0.466 0.0
O168 O 0.71689 0.42188 0.45254 0.0
O169 O 0.69819 0.36355 0.47315 0.0
O170 O 0.7634 0.4349 0.4974 0.0
O171 O 0.76609 0.37605 0.50376 0.0
C172 C 0.69755 0.23841 0.41634 0.0
C173 C 0.65604 0.21589 0.42498 0.0
H174 H 0.57877 0.18177 0.44647 0.0
H175 H 0.56226 0.21014 0.48378 0.0
H176 H 0.82809 0.3541 0.42858 0.0
H177 H 0.77983 0.29059 0.40479 0.0
H178 H 0.70615 0.22815 0.39968 0.0
H179 H 0.63334 0.18867 0.41482 0.0
Mn180 Mn 0.30307 0.71553 0.82553 0.0
Mn181 Mn 0.28993 0.61856 0.82629 0.0
C182 C 0.28991 0.68032 0.86254 0.0
C183 C 0.34988 0.78739 0.82514 0.0
C184 C 0.22344 0.63798 0.80891 0.0
O185 O 0.32377 0.70959 0.79189 0.0
O186 O 0.32235 0.64841 0.79629 0.0
C187 C 0.37752 0.63931 0.83332 0.0
N188 N 0.33705 0.61902 0.84102 0.0
C189 C 0.35307 0.58718 0.87493 0.0
C190 C 0.39489 0.60754 0.8673 0.0
C191 C 0.40719 0.63385 0.84646 0.0
C192 C 0.32493 0.59388 0.86113 0.0
H193 H 0.38703 0.65946 0.81727 0.0
C194 C 0.33169 0.68175 0.78419 0.0
O195 O 0.31236 0.77195 0.81623 0.0
O196 O 0.35977 0.76115 0.83431 0.0
N197 N 0.25937 0.58623 0.85444 0.0
C198 C 0.2185 0.57124 0.86035 0.0
C199 C 0.20161 0.54566 0.8813 0.0
C200 C 0.2267 0.53532 0.89575 0.0
C201 C 0.26857 0.55087 0.88919 0.0
C202 C 0.28373 0.57635 0.86818 0.0
H203 H 0.19898 0.57882 0.84922 0.0
O204 O 0.28463 0.71233 0.86049 0.0
O205 O 0.30447 0.67104 0.84312 0.0
O206 O 0.24236 0.67666 0.81472 0.0
O207 O 0.23936 0.61449 0.81126 0.0
C208 C 0.29598 0.54246 0.90283 0.0
C209 C 0.33827 0.56087 0.89584 0.0
H210 H 0.41788 0.60343 0.8774 0.0
H211 H 0.43944 0.6498 0.84052 0.0
H212 H 0.16928 0.53383 0.88626 0.0
H213 H 0.21355 0.51561 0.91191 0.0
H214 H 0.28496 0.52226 0.91891 0.0
H215 H 0.35921 0.55481 0.90677 0.0
H216 H 0.49908 0.15749 0.17334 0.0
H217 H 0.4746 0.08245 0.1766 0.0
H218 H 0.59182 0.10348 0.1471 0.0
H219 H 0.61639 0.17795 0.14375 0.0
H220 H 0.51904 0.03813 0.12359 0.0
H221 H 0.51478 0.02282 0.22634 0.0
H222 H 0.48868 0.04846 0.2134 0.0
H223 H 0.54432 0.07249 0.21078 0.0
C224 C 0.51963 0.14608 0.16764 0.0
C225 C 0.55965 0.17366 0.15829 0.0
C226 C 0.50572 0.10331 0.16965 0.0
C227 C 0.53162 0.08757 0.16233 0.0
C228 C 0.57146 0.11505 0.15296 0.0
H229 H 0.50809 0.84153 0.17661 0.0
H230 H 0.53265 0.91675 0.17864 0.0
C231 C 0.5854 0.15763 0.15106 0.0
C232 C 0.51694 0.04227 0.16333 0.0
H233 H 0.48949 0.9605 0.20297 0.0
C234 C 0.51255 0.02114 0.14094 0.0
C235 C 0.50901 0.0204 0.18601 0.0
C236 C 0.51467 0.0421 0.21058 0.0
C237 C 0.49989 0.97852 0.1406 0.0
C238 C 0.49123 0.95646 0.16323 0.0
C239 C 0.49611 0.97761 0.18567 0.0
C240 C 0.47583 0.91105 0.16366 0.0
C241 C 0.49605 0.95733 0.11604 0.0
C242 C 0.43563 0.88316 0.15498 0.0
C243 C 0.42158 0.84049 0.15386 0.0
C244 C 0.44749 0.82478 0.16136 0.0
C245 C 0.48748 0.85269 0.17063 0.0
C246 C 0.50149 0.89557 0.17185 0.0
H247 H 0.51149 0.9802 0.1008 0.0
H248 H 0.50994 0.93685 0.11715 0.0
H249 H 0.46254 0.93746 0.1113 0.0
H250 H 0.4153 0.89454 0.14876 0.0
H251 H 0.39053 0.81989 0.14672 0.0
H252 H 0.34088 0.49763 0.50675 0.0
H253 H 0.39287 0.47492 0.5079 0.0
H254 H 0.47937 0.5852 0.46742 0.0
H255 H 0.42787 0.60787 0.46602 0.0
H256 H 0.47236 0.51117 0.44878 0.0
H257 H 0.50042 0.52645 0.5505 0.0
H258 H 0.44677 0.4952 0.54123 0.0
H259 H 0.47459 0.55011 0.53454 0.0
C260 C 0.37096 0.51696 0.49809 0.0
C261 C 0.38027 0.55457 0.48634 0.0
C262 C 0.40071 0.50411 0.4989 0.0
C263 C 0.44016 0.5287 0.48803 0.0
C264 C 0.4492 0.56588 0.47603 0.0
H265 H 0.66664 0.5131 0.50385 0.0
H266 H 0.61478 0.53604 0.50384 0.0
C267 C 0.41967 0.57877 0.47526 0.0
C268 C 0.47201 0.51559 0.48858 0.0
H269 H 0.53421 0.49745 0.52735 0.0
C270 C 0.48587 0.50813 0.46596 0.0
C271 C 0.49002 0.51231 0.51099 0.0
C272 C 0.47756 0.52175 0.53572 0.0
C273 C 0.51689 0.49693 0.46514 0.0
C274 C 0.53415 0.49259 0.48758 0.0
C275 C 0.52075 0.50062 0.5102 0.0
C276 C 0.56551 0.47885 0.48786 0.0
C277 C 0.53133 0.49035 0.44025 0.0
C278 C 0.55478 0.43902 0.47917 0.0
C279 C 0.58418 0.42593 0.47913 0.0
C280 C 0.62495 0.45234 0.48789 0.0
C281 C 0.63558 0.49214 0.49686 0.0
C282 C 0.60599 0.50522 0.49693 0.0
H283 H 0.52305 0.50511 0.42502 0.0
H284 H 0.56563 0.50326 0.4401 0.0
H285 H 0.51605 0.45639 0.43638 0.0
H286 H 0.52353 0.41793 0.47248 0.0
H287 H 0.57483 0.39497 0.47223 0.0
H288 H 0.82205 0.42832 0.77263 0.0
H289 H 0.89666 0.47124 0.76369 0.0
H290 H 0.92379 0.41097 0.82354 0.0
H291 H 0.84914 0.36614 0.8312 0.0
H292 H 0.95145 0.52741 0.7901 0.0
H293 H 0.00504 0.4145 0.77573 0.0
H294 H 0.95036 0.39845 0.77661 0.0
H295 H 0.97879 0.40427 0.80494 0.0
C296 C 0.84405 0.42335 0.78323 0.0
C297 C 0.83002 0.39359 0.80232 0.0
C298 C 0.88667 0.44806 0.77827 0.0
C299 C 0.91619 0.44423 0.79271 0.0
C300 C 0.90193 0.41374 0.81149 0.0
H301 H 0.16082 0.64467 0.83055 0.0
H302 H 0.086 0.59962 0.82348 0.0
C303 C 0.8592 0.38816 0.81597 0.0
C304 C 0.96158 0.47482 0.78987 0.0
H305 H 0.05771 0.48342 0.78937 0.0
C306 C 0.9746 0.51765 0.78946 0.0
C307 C 0.9921 0.46253 0.7885 0.0
C308 C 0.98073 0.4174 0.78617 0.0
C309 C 0.01703 0.54831 0.78874 0.0
C310 C 0.04758 0.53601 0.78969 0.0
C311 C 0.03455 0.49319 0.78906 0.0
C312 C 0.09301 0.56659 0.79229 0.0
C313 C 0.02836 0.59346 0.78666 0.0
C314 C 0.12225 0.56292 0.77747 0.0
C315 C 0.16498 0.58774 0.78209 0.0
C316 C 0.17938 0.61746 0.80122 0.0
C317 C 0.15045 0.62268 0.81529 0.0
C318 C 0.10763 0.59699 0.81115 0.0
H319 H 1.00386 0.59644 0.77651 0.0
H320 H 0.03067 0.60644 0.80552 0.0
H321 H 0.05854 0.61248 0.77693 0.0
H322 H 0.11198 0.53981 0.76282 0.0
H323 H 0.18677 0.58295 0.77115 0.0
H324 H 0.1642 0.52611 0.4799 0.0
H325 H 0.08879 0.49657 0.48443 0.0
H326 H 0.10996 0.58225 0.54442 0.0
H327 H 0.18539 0.61369 0.53865 0.0
H328 H 0.03231 0.45843 0.51699 0.0
H329 H 0.04178 0.61076 0.50151 0.0
H330 H 0.0864 0.60397 0.49814 0.0
H331 H 0.07063 0.61174 0.5284 0.0
C332 C 0.15262 0.5381 0.4943 0.0
C333 C 0.18042 0.57219 0.50888 0.0
C334 C 0.10953 0.52138 0.49683 0.0
C335 C 0.09351 0.53803 0.51425 0.0
C336 C 0.1214 0.56996 0.53015 0.0
H337 H 0.82365 0.40294 0.54161 0.0
H338 H 0.89927 0.43524 0.54682 0.0
C339 C 0.16448 0.58749 0.52713 0.0
C340 C 0.04785 0.52275 0.51517 0.0
H341 H 0.97583 0.5548 0.51373 0.0
C342 C 0.02 0.47954 0.51621 0.0
C343 C 0.03154 0.55016 0.51363 0.0
C344 C 0.05914 0.59666 0.51007 0.0
C345 C 0.97659 0.46297 0.51562 0.0
C346 C 0.9603 0.49046 0.5153 0.0
C347 C 0.98814 0.53368 0.51437 0.0
C348 C 0.91461 0.47504 0.51448 0.0
C349 C 0.94892 0.41614 0.51423 0.0
C350 C 0.89795 0.48911 0.49589 0.0
C351 C 0.85476 0.472 0.4936 0.0
C352 C 0.82751 0.44004 0.50962 0.0
C353 C 0.84413 0.42744 0.52896 0.0
C354 C 0.8873 0.44543 0.53169 0.0
H355 H 0.96604 0.40095 0.50678 0.0
H356 H 0.93801 0.40359 0.53313 0.0
H357 H 0.92129 0.40719 0.50228 0.0
H358 H 0.91824 0.51213 0.48246 0.0
H359 H 0.84265 0.48187 0.47837 0.0
H360 H 0.42912 0.82627 0.84332 0.0
H361 H 0.48044 0.90065 0.84276 0.0
H362 H 0.39228 0.92586 0.80562 0.0
H363 H 0.34048 0.85097 0.80589 0.0
H364 H 0.47429 0.96765 0.78481 0.0
H365 H 0.47707 0.98987 0.8867 0.0
H366 H 0.48542 0.94805 0.8773 0.0
H367 H 0.43603 0.94458 0.87126 0.0
C368 C 0.42047 0.84755 0.83507 0.0
C369 C 0.38057 0.8327 0.82478 0.0
C370 C 0.44986 0.89012 0.83487 0.0
C371 C 0.43999 0.91883 0.82448 0.0
C372 C 0.40042 0.90418 0.81385 0.0
H373 H 0.57994 0.18671 0.84552 0.0
H374 H 0.52708 0.11286 0.84372 0.0
C375 C 0.37085 0.86145 0.81408 0.0
C376 C 0.47127 0.96406 0.82465 0.0
H377 H 0.53018 0.04572 0.86343 0.0
C378 C 0.48641 0.98483 0.80197 0.0
C379 C 0.48674 0.98644 0.84708 0.0
C380 C 0.47026 0.96627 0.87198 0.0
C381 C 0.51724 0.02729 0.80113 0.0
C382 C 0.53365 0.04932 0.82358 0.0
C383 C 0.51792 0.02867 0.84624 0.0
C384 C 0.56608 0.09422 0.82409 0.0
C385 C 0.53148 0.04837 0.77625 0.0
C386 C 0.60584 0.10831 0.81385 0.0
C387 C 0.63631 0.15072 0.81485 0.0
C388 C 0.62752 0.17966 0.82622 0.0
C389 C 0.58778 0.16529 0.83661 0.0
C390 C 0.55746 0.12305 0.83561 0.0
H391 H 0.50902 0.03022 0.76129 0.0
H392 H 0.53564 0.08024 0.77669 0.0
H393 H 0.56198 0.05123 0.77153 0.0
H394 H 0.61344 0.08647 0.8053 0.0
H395 H 0.66665 0.16078 0.80674 0.0
H396 H 0.47943 0.63906 0.13408 0.0
H397 H 0.51055 0.59417 0.13591 0.0
H398 H 0.43005 0.52692 0.19739 0.0
H399 H 0.39708 0.56988 0.19434 0.0
H400 H 0.55221 0.57697 0.16655 0.0
H401 H 0.40163 0.43139 0.15342 0.0
H402 H 0.40644 0.48214 0.15088 0.0
H403 H 0.40077 0.4582 0.18085 0.0
C404 C 0.46887 0.61499 0.14815 0.0
C405 C 0.43586 0.6077 0.16401 0.0
C406 C 0.48647 0.5892 0.14914 0.0
C407 C 0.47177 0.55613 0.16628 0.0
C408 C 0.44079 0.55095 0.18331 0.0
H409 H 0.61245 0.42917 0.19576 0.0
H410 H 0.57975 0.47241 0.19827 0.0
C411 C 0.42239 0.5759 0.18183 0.0
C412 C 0.48838 0.52681 0.16608 0.0
H413 H 0.45905 0.4233 0.16566 0.0
C414 C 0.53179 0.54337 0.16621 0.0
C415 C 0.4619 0.48286 0.165 0.0
C416 C 0.41516 0.46265 0.16223 0.0
C417 C 0.54939 0.51743 0.1656 0.0
C418 C 0.52287 0.47346 0.16616 0.0
C419 C 0.47948 0.45691 0.1657 0.0
C420 C 0.53946 0.44412 0.16649 0.0
C421 C 0.59623 0.5377 0.1635 0.0
C422 C 0.52545 0.41149 0.14907 0.0
C423 C 0.5429 0.38555 0.14833 0.0
C424 C 0.57509 0.39224 0.16474 0.0
C425 C 0.58784 0.42363 0.1828 0.0
C426 C 0.56959 0.44874 0.18399 0.0
H427 H 0.61011 0.56919 0.15496 0.0
H428 H 0.60986 0.54164 0.1823 0.0
H429 H 0.6054 0.5185 0.1522 0.0
H430 H 0.50201 0.40695 0.13548 0.0
H431 H 0.53285 0.3618 0.13408 0.0
H432 H 0.66503 0.3421 0.89001 0.0
H433 H 0.66729 0.36006 0.9339 0.0
H434 H 0.78918 0.37269 0.94047 0.0
H435 H 0.78763 0.35635 0.89619 0.0
H436 H 0.71786 0.30734 0.97014 0.0
H437 H 0.74152 0.46696 0.98036 0.0
H438 H 0.7041 0.43486 0.95726 0.0
H439 H 0.75821 0.45037 0.95328 0.0
C440 C 0.69312 0.35084 0.90056 0.0
C441 C 0.72677 0.34936 0.88972 0.0
C442 C 0.69434 0.36088 0.92559 0.0
C443 C 0.72871 0.36834 0.94022 0.0
C444 C 0.7628 0.36782 0.92929 0.0
H445 H 0.70323 0.32409 0.10074 0.0
H446 H 0.73581 0.34251 0.05966 0.0
C447 C 0.76181 0.35835 0.90415 0.0
C448 C 0.72523 0.36864 0.96741 0.0
H449 H 0.71288 0.42153 0.01535 0.0
C450 C 0.71756 0.33256 0.98023 0.0
C451 C 0.72451 0.4015 0.98022 0.0
C452 C 0.73286 0.44085 0.96714 0.0
C453 C 0.70656 0.32728 0.00534 0.0
C454 C 0.70472 0.35977 0.01811 0.0
C455 C 0.71442 0.39675 0.00552 0.0
C456 C 0.68891 0.35424 0.04379 0.0
C457 C 0.69438 0.28588 0.01742 0.0
C458 C 0.65291 0.3566 0.04873 0.0
C459 C 0.6351 0.34731 0.07232 0.0
C460 C 0.65347 0.33623 0.09132 0.0
C461 C 0.68953 0.33407 0.08647 0.0
C462 C 0.7077 0.34391 0.06298 0.0
H463 H 0.68776 0.26117 0.00351 0.0
H464 H 0.72043 0.28935 0.02926 0.0
H465 H 0.66633 0.27524 0.02927 0.0
H466 H 0.63778 0.36425 0.03412 0.0
H467 H 0.60669 0.3482 0.07567 0.0
H468 H 0.39544 0.71607 0.23205 0.0
H469 H 0.37499 0.7135 0.27533 0.0
H470 H 0.25052 0.61491 0.25788 0.0
H471 H 0.27074 0.61658 0.21458 0.0
H472 H 0.3112 0.72174 0.29914 0.0
H473 H 0.29094 0.56309 0.31032 0.0
H474 H 0.3163 0.59538 0.28367 0.0
H475 H 0.26039 0.56802 0.28611 0.0
C476 C 0.36361 0.69398 0.23733 0.0
C477 C 0.33491 0.66602 0.21992 0.0
C478 C 0.35197 0.69272 0.26205 0.0
C479 C 0.31148 0.66362 0.26977 0.0
C480 C 0.28215 0.63707 0.25229 0.0
H481 H 0.22401 0.58532 0.42009 0.0
H482 H 0.22219 0.60101 0.37609 0.0
C483 C 0.29381 0.63808 0.22758 0.0
C484 C 0.30103 0.65924 0.29641 0.0
H485 H 0.27783 0.59265 0.34518 0.0
C486 C 0.30357 0.69346 0.30924 0.0
C487 C 0.2912 0.62226 0.30943 0.0
C488 C 0.28984 0.58517 0.2968 0.0
C489 C 0.29693 0.69175 0.33494 0.0
C490 C 0.28799 0.65512 0.34798 0.0
C491 C 0.28436 0.62059 0.33502 0.0
C492 C 0.28575 0.65255 0.37529 0.0
C493 C 0.29948 0.72895 0.348 0.0
C494 C 0.3218 0.67695 0.38941 0.0
C495 C 0.32283 0.66798 0.41445 0.0
C496 C 0.28766 0.63489 0.42566 0.0
C497 C 0.25112 0.61157 0.4118 0.0
C498 C 0.25005 0.62055 0.3868 0.0
H499 H 0.29682 0.75058 0.33483 0.0
H500 H 0.2744 0.71869 0.36211 0.0
H501 H 0.32997 0.74641 0.35763 0.0
H502 H 0.35005 0.70096 0.3807 0.0
H503 H 0.35178 0.68523 0.42465 0.0
H504 H 0.64772 0.3794 0.76722 0.0
H505 H 0.62449 0.37708 0.72455 0.0
H506 H 0.64004 0.27109 0.70975 0.0
H507 H 0.66227 0.27246 0.75232 0.0
H508 H 0.67655 0.3911 0.68713 0.0
H509 H 0.5348 0.23853 0.67161 0.0
H510 H 0.5531 0.25919 0.7023 0.0
H511 H 0.57493 0.23212 0.68591 0.0
C512 C 0.64531 0.355 0.75504 0.0
C513 C 0.65744 0.32648 0.76309 0.0
C514 C 0.63179 0.3536 0.73072 0.0
C515 C 0.63009 0.32365 0.71406 0.0
C516 C 0.64004 0.2938 0.72242 0.0
H517 H 0.6726 0.29678 0.56463 0.0
H518 H 0.6519 0.28769 0.60823 0.0
C519 C 0.65326 0.29497 0.74676 0.0
C520 C 0.62518 0.32784 0.68719 0.0
H521 H 0.57764 0.27164 0.6351 0.0
C522 C 0.65418 0.36537 0.67579 0.0
C523 C 0.59613 0.29413 0.67247 0.0
C524 C 0.56273 0.2539 0.68378 0.0
C525 C 0.65688 0.36922 0.64996 0.0
C526 C 0.62927 0.33476 0.63519 0.0
C527 C 0.59881 0.2979 0.64655 0.0
C528 C 0.63456 0.33551 0.60806 0.0
C529 C 0.69101 0.40923 0.63872 0.0
C530 C 0.6302 0.36438 0.59344 0.0
C531 C 0.64249 0.37005 0.56864 0.0
C532 C 0.6589 0.34657 0.55801 0.0
C533 C 0.6604 0.31558 0.5723 0.0
C534 C 0.64841 0.31019 0.59717 0.0
H535 H 0.71428 0.42972 0.65274 0.0
H536 H 0.70757 0.40246 0.62387 0.0
H537 H 0.67702 0.42675 0.63031 0.0
H538 H 0.6189 0.3837 0.60149 0.0
H539 H 0.64018 0.39365 0.55801 0.0
H540 H 0.34991 0.67125 0.88531 0.0
H541 H 0.35171 0.65412 0.92899 0.0
H542 H 0.22946 0.63895 0.93977 0.0
H543 H 0.22693 0.65445 0.89572 0.0
H544 H 0.30365 0.70599 0.96778 0.0
H545 H 0.28136 0.54655 0.97634 0.0
H546 H 0.31659 0.57888 0.9524 0.0
H547 H 0.26207 0.56266 0.95025 0.0
C548 C 0.32262 0.66213 0.89674 0.0
C549 C 0.28769 0.66265 0.88716 0.0
C550 C 0.32374 0.6526 0.92165 0.0
C551 C 0.29043 0.64468 0.93739 0.0
C552 C 0.25506 0.64422 0.92772 0.0
H553 H 0.31409 0.68194 0.09808 0.0
H554 H 0.28498 0.66771 0.05609 0.0
C555 C 0.25371 0.65319 0.90271 0.0
C556 C 0.2961 0.64467 0.96441 0.0
H557 H 0.31024 0.5914 0.01139 0.0
C558 C 0.30444 0.68073 0.9775 0.0
C559 C 0.29752 0.6118 0.97672 0.0
C560 C 0.28859 0.57254 0.96329 0.0
C561 C 0.31624 0.68574 0.00248 0.0
C562 C 0.31833 0.65306 0.0148 0.0
C563 C 0.30852 0.61632 0.00188 0.0
C564 C 0.33321 0.65761 0.04062 0.0
C565 C 0.32854 0.72687 0.01495 0.0
C566 C 0.36904 0.65514 0.04596 0.0
C567 C 0.385 0.66224 0.07002 0.0
C568 C 0.36484 0.67107 0.08904 0.0
C569 C 0.32919 0.67372 0.08372 0.0
C570 C 0.31297 0.66624 0.05975 0.0
H571 H 0.33558 0.75197 0.00126 0.0
H572 H 0.30236 0.7233 0.02671 0.0
H573 H 0.35634 0.73698 0.02696 0.0
H574 H 0.38522 0.64876 0.03139 0.0
H575 H 0.41312 0.66102 0.07378 0.0
H576 H 0.64536 0.31435 0.43383 0.0
H577 H 0.63752 0.28786 0.39139 0.0
H578 H 0.76218 0.38679 0.37432 0.0
H579 H 0.7705 0.41212 0.41706 0.0
H580 H 0.63951 0.33599 0.35383 0.0
H581 H 0.75899 0.29064 0.33655 0.0
H582 H 0.74101 0.29331 0.36726 0.0
H583 H 0.77952 0.34007 0.35198 0.0
C584 C 0.67166 0.32912 0.42125 0.0
C585 C 0.70901 0.36427 0.42869 0.0
C586 C 0.66711 0.3142 0.39704 0.0
C587 C 0.69956 0.33486 0.37983 0.0
C588 C 0.73728 0.36951 0.38748 0.0
H589 H 0.72326 0.38108 0.22499 0.0
H590 H 0.73347 0.37627 0.2694 0.0
C591 C 0.74189 0.38423 0.41176 0.0
C592 C 0.69149 0.32511 0.35315 0.0
H593 H 0.73148 0.30713 0.30059 0.0
C594 C 0.65907 0.3288 0.34227 0.0
C595 C 0.71725 0.31605 0.33813 0.0
C596 C 0.75092 0.30938 0.34908 0.0
C597 C 0.65286 0.32556 0.31661 0.0
C598 C 0.67957 0.31805 0.3015 0.0
C599 C 0.71124 0.31307 0.31235 0.0
C600 C 0.67609 0.31763 0.2743 0.0
C601 C 0.61891 0.33198 0.30571 0.0
C602 C 0.64093 0.28567 0.26244 0.0
C603 C 0.6348 0.28838 0.23716 0.0
C604 C 0.66383 0.32314 0.22331 0.0
C605 C 0.7001 0.3541 0.23511 0.0
C606 C 0.70615 0.35132 0.26043 0.0
H607 H 0.6055 0.34418 0.31959 0.0
H608 H 0.63114 0.35407 0.28986 0.0
H609 H 0.59336 0.30174 0.29866 0.0
H610 H 0.61759 0.25932 0.27293 0.0
H611 H 0.60675 0.26369 0.22866 0.0
H612 H 0.36278 0.63569 0.76298 0.0
H613 H 0.38557 0.63915 0.7201 0.0
H614 H 0.36537 0.74252 0.70632 0.0
H615 H 0.34351 0.74 0.74912 0.0
H616 H 0.33272 0.62399 0.68281 0.0
H617 H 0.47157 0.77922 0.66805 0.0
H618 H 0.45368 0.75766 0.69862 0.0
H619 H 0.43026 0.78345 0.68253 0.0
C620 C 0.36401 0.65973 0.75097 0.0
C621 C 0.35078 0.68722 0.7594 0.0
C622 C 0.37728 0.6618 0.72652 0.0
C623 C 0.37763 0.69139 0.71011 0.0
C624 C 0.36642 0.72015 0.7188 0.0
H625 H 0.33532 0.71578 0.55979 0.0
H626 H 0.35574 0.72645 0.60346 0.0
C627 C 0.35343 0.71832 0.74327 0.0
C628 C 0.38278 0.6879 0.68319 0.0
H629 H 0.43012 0.74514 0.63138 0.0
C630 C 0.35473 0.65015 0.67161 0.0
C631 C 0.41135 0.72217 0.66864 0.0
C632 C 0.44368 0.76275 0.68017 0.0
C633 C 0.35263 0.64646 0.64577 0.0
C634 C 0.37989 0.68133 0.63116 0.0
C635 C 0.40926 0.71856 0.6427 0.0
C636 C 0.37539 0.68037 0.60396 0.0
C637 C 0.31955 0.60604 0.63432 0.0
C638 C 0.38132 0.65213 0.58968 0.0
C639 C 0.36922 0.64556 0.56485 0.0
C640 C 0.35143 0.66751 0.55386 0.0
C641 C 0.34862 0.69817 0.56775 0.0
C642 C 0.36042 0.70444 0.59266 0.0
H643 H 0.29616 0.58515 0.64816 0.0
H644 H 0.30297 0.6122 0.61922 0.0
H645 H 0.33454 0.58923 0.62622 0.0
H646 H 0.39349 0.6338 0.59805 0.0
H647 H 0.37253 0.62228 0.55452 0.0
loop_
_geom_bond_atom_site_label_1
_geom_bond_atom_site_label_2
_geom_bond_distance
_geom_bond_site_symmetry_2
_ccdc_geom_bond_type
Mn0 O5 2.095 . S
Mn0 O15 2.162 . S
Mn0 O16 2.297 . S
Mn0 O24 2.385 . S
Mn0 O25 2.209 . S
Mn0 O26 2.094 . S
Mn1 O6 2.121 . S
Mn1 N8 2.257 . S
Mn1 N17 2.282 . S
Mn1 O25 2.215 . S
Mn1 O27 2.117 . S
C2 O24 1.234 . S
C2 O25 1.283 . S
C3 O15 1.281 . S
C3 O16 1.236 . S
C4 O26 1.240 . S
C4 O27 1.264 . S
O5 Mn0 2.095 . S
O5 C14 1.250 . S
O6 Mn1 2.121 . S
O6 C14 1.258 . S
C7 N8 1.326 . S
C7 C11 1.460 . S
C7 H13 0.929 . S
N8 Mn1 2.257 . S
N8 C7 1.326 . S
N8 C12 1.362 . S
C9 C10 1.258 . S
C9 C12 1.431 . S
C9 C29 1.449 . S
C10 C9 1.258 . S
C10 C11 1.477 . S
C10 H30 0.931 . S
C11 C7 1.460 . S
C11 C10 1.477 . S
C11 H31 0.930 . S
C12 N8 1.362 . S
C12 C9 1.431 . S
C12 C22 1.476 . S
H13 C7 0.929 . S
C14 O5 1.250 . S
C14 O6 1.258 . S
O15 Mn0 2.162 . S
O15 C3 1.281 . S
O16 Mn0 2.297 . S
O16 C3 1.236 . S
N17 Mn1 2.282 . S
N17 C18 1.328 . S
N17 C22 1.318 . S
C18 N17 1.328 . S
C18 C19 1.457 . S
C18 H23 0.929 . S
C19 C18 1.457 . S
C19 C20 1.291 . S
C19 H32 0.931 . S
C20 C19 1.291 . S
C20 C21 1.373 . S
C20 H33 0.929 . S
C21 C20 1.373 . S
C21 C22 1.396 . S
C21 C28 1.403 . S
C22 C12 1.476 . S
C22 N17 1.318 . S
C22 C21 1.396 . S
H23 C18 0.929 . S
O24 Mn0 2.385 . S
O24 C2 1.234 . S
O25 Mn0 2.209 . S
O25 Mn1 2.215 . S
O25 C2 1.283 . S
O26 Mn0 2.094 . S
O26 C4 1.240 . S
O27 Mn1 2.117 . S
O27 C4 1.264 . S
C28 C21 1.403 . S
C28 C29 1.399 . S
C28 H34 0.929 . S
C29 C9 1.449 . S
C29 C28 1.399 . S
C29 H35 0.930 . S
H30 C10 0.931 . S
H31 C11 0.930 . S
H32 C19 0.931 . S
H33 C20 0.929 . S
H34 C28 0.929 . S
H35 C29 0.930 . S
Mn36 O41 2.095 . S
Mn36 O51 2.162 . S
Mn36 O52 2.297 . S
Mn36 O60 2.385 . S
Mn36 O61 2.209 . S
Mn36 O62 2.094 . S
Mn37 O42 2.121 . S
Mn37 N44 2.257 . S
Mn37 N53 2.282 . S
Mn37 O61 2.215 . S
Mn37 O63 2.117 . S
C38 O60 1.234 . S
C38 O61 1.283 . S
C39 O51 1.281 . S
C39 O52 1.236 . S
C40 O62 1.240 . S
C40 O63 1.264 . S
O41 Mn36 2.095 . S
O41 C50 1.250 . S
O42 Mn37 2.121 . S
O42 C50 1.258 . S
C43 N44 1.326 . S
C43 C47 1.460 . S
C43 H49 0.929 . S
N44 Mn37 2.257 . S
N44 C43 1.326 . S
N44 C48 1.362 . S
C45 C46 1.258 . S
C45 C48 1.431 . S
C45 C65 1.449 . S
C46 C45 1.258 . S
C46 C47 1.477 . S
C46 H66 0.931 . S
C47 C43 1.460 . S
C47 C46 1.477 . S
C47 H67 0.930 . S
C48 N44 1.362 . S
C48 C45 1.431 . S
C48 C58 1.476 . S
H49 C43 0.929 . S
C50 O41 1.250 . S
C50 O42 1.258 . S
O51 Mn36 2.162 . S
O51 C39 1.281 . S
O52 Mn36 2.297 . S
O52 C39 1.236 . S
N53 Mn37 2.282 . S
N53 C54 1.328 . S
N53 C58 1.318 . S
C54 N53 1.328 . S
C54 C55 1.457 . S
C54 H59 0.929 . S
C55 C54 1.457 . S
C55 C56 1.291 . S
C55 H68 0.931 . S
C56 C55 1.291 . S
C56 C57 1.373 . S
C56 H69 0.929 . S
C57 C56 1.373 . S
C57 C58 1.396 . S
C57 C64 1.403 . S
C58 C48 1.476 . S
C58 N53 1.318 . S
C58 C57 1.396 . S
H59 C54 0.929 . S
O60 Mn36 2.385 . S
O60 C38 1.234 . S
O61 Mn36 2.209 . S
O61 Mn37 2.215 . S
O61 C38 1.283 . S
O62 Mn36 2.094 . S
O62 C40 1.240 . S
O63 Mn37 2.117 . S
O63 C40 1.264 . S
C64 C57 1.403 . S
C64 C65 1.399 . S
C64 H70 0.929 . S
C65 C45 1.449 . S
C65 C64 1.399 . S
C65 H71 0.930 . S
H66 C46 0.931 . S
H67 C47 0.930 . S
H68 C55 0.931 . S
H69 C56 0.929 . S
H70 C64 0.929 . S
H71 C65 0.930 . S
Mn72 O77 2.095 . S
Mn72 O87 2.162 . S
Mn72 O88 2.297 . S
Mn72 O96 2.385 . S
Mn72 O97 2.209 . S
Mn72 O98 2.094 . S
Mn73 O78 2.121 . S
Mn73 N80 2.257 . S
Mn73 N89 2.282 . S
Mn73 O97 2.215 . S
Mn73 O99 2.117 . S
C74 O96 1.234 . S
C74 O97 1.283 . S
C75 O87 1.281 . S
C75 O88 1.236 . S
C76 O98 1.240 . S
C76 O99 1.264 . S
O77 Mn72 2.095 . S
O77 C86 1.250 . S
O78 Mn73 2.121 . S
O78 C86 1.258 . S
C79 N80 1.326 . S
C79 C83 1.460 . S
C79 H85 0.929 . S
N80 Mn73 2.257 . S
N80 C79 1.326 . S
N80 C84 1.362 . S
C81 C82 1.258 . S
C81 C84 1.431 . S
C81 C101 1.449 . S
C82 C81 1.258 . S
C82 C83 1.477 . S
C82 H102 0.931 . S
C83 C79 1.460 . S
C83 C82 1.477 . S
C83 H103 0.930 . S
C84 N80 1.362 . S
C84 C81 1.431 . S
C84 C94 1.476 . S
H85 C79 0.929 . S
C86 O77 1.250 . S
C86 O78 1.258 . S
O87 Mn72 2.162 . S
O87 C75 1.281 . S
O88 Mn72 2.297 . S
O88 C75 1.236 . S
N89 Mn73 2.282 . S
N89 C90 1.328 . S
N89 C94 1.318 . S
C90 N89 1.328 . S
C90 C91 1.457 . S
C90 H95 0.929 . S
C91 C90 1.457 . S
C91 C92 1.291 . S
C91 H104 0.931 . S
C92 C91 1.291 . S
C92 C93 1.373 . S
C92 H105 0.929 . S
C93 C92 1.373 . S
C93 C94 1.396 . S
C93 C100 1.403 . S
C94 C84 1.476 . S
C94 N89 1.318 . S
C94 C93 1.396 . S
H95 C90 0.929 . S
O96 Mn72 2.385 . S
O96 C74 1.234 . S
O97 Mn72 2.209 . S
O97 Mn73 2.215 . S
O97 C74 1.283 . S
O98 Mn72 2.094 . S
O98 C76 1.240 . S
O99 Mn73 2.117 . S
O99 C76 1.264 . S
C100 C93 1.403 . S
C100 C101 1.399 . S
C100 H106 0.929 . S
C101 C81 1.449 . S
C101 C100 1.399 . S
C101 H107 0.930 . S
H102 C82 0.931 . S
H103 C83 0.930 . S
H104 C91 0.931 . S
H105 C92 0.929 . S
H106 C100 0.929 . S
H107 C101 0.930 . S
Mn108 O113 2.095 . S
Mn108 O123 2.162 . S
Mn108 O124 2.297 . S
Mn108 O132 2.385 . S
Mn108 O133 2.209 . S
Mn108 O134 2.094 . S
Mn109 O114 2.121 . S
Mn109 N116 2.257 . S
Mn109 N125 2.282 . S
Mn109 O133 2.215 . S
Mn109 O135 2.117 . S
C110 O132 1.234 . S
C110 O133 1.283 . S
C111 O123 1.281 . S
C111 O124 1.236 . S
C112 O134 1.240 . S
C112 O135 1.264 . S
O113 Mn108 2.095 . S
O113 C122 1.250 . S
O114 Mn109 2.121 . S
O114 C122 1.258 . S
C115 N116 1.326 . S
C115 C119 1.460 . S
C115 H121 0.929 . S
N116 Mn109 2.257 . S
N116 C115 1.326 . S
N116 C120 1.362 . S
C117 C118 1.258 . S
C117 C120 1.431 . S
C117 C137 1.449 . S
C118 C117 1.258 . S
C118 C119 1.477 . S
C118 H138 0.931 . S
C119 C115 1.460 . S
C119 C118 1.477 . S
C119 H139 0.930 . S
C120 N116 1.362 . S
C120 C117 1.431 . S
C120 C130 1.476 . S
H121 C115 0.929 . S
C122 O113 1.250 . S
C122 O114 1.258 . S
O123 Mn108 2.162 . S
O123 C111 1.281 . S
O124 Mn108 2.297 . S
O124 C111 1.236 . S
N125 Mn109 2.282 . S
N125 C126 1.328 . S
N125 C130 1.318 . S
C126 N125 1.328 . S
C126 C127 1.457 . S
C126 H131 0.929 . S
C127 C126 1.457 . S
C127 C128 1.291 . S
C127 H140 0.931 . S
C128 C127 1.291 . S
C128 C129 1.373 . S
C128 H141 0.929 . S
C129 C128 1.373 . S
C129 C130 1.396 . S
C129 C136 1.403 . S
C130 C120 1.476 . S
C130 N125 1.318 . S
C130 C129 1.396 . S
H131 C126 0.929 . S
O132 Mn108 2.385 . S
O132 C110 1.234 . S
O133 Mn108 2.209 . S
O133 Mn109 2.215 . S
O133 C110 1.283 . S
O134 Mn108 2.094 . S
O134 C112 1.240 . S
O135 Mn109 2.117 . S
O135 C112 1.264 . S
C136 C129 1.403 . S
C136 C137 1.399 . S
C136 H142 0.929 . S
C137 C117 1.449 . S
C137 C136 1.399 . S
C137 H143 0.930 . S
H138 C118 0.931 . S
H139 C119 0.930 . S
H140 C127 0.931 . S
H141 C128 0.929 . S
H142 C136 0.929 . S
H143 C137 0.930 . S
Mn144 O149 2.095 . S
Mn144 O159 2.162 . S
Mn144 O160 2.297 . S
Mn144 O168 2.385 . S
Mn144 O169 2.209 . S
Mn144 O170 2.094 . S
Mn145 O150 2.121 . S
Mn145 N152 2.257 . S
Mn145 N161 2.282 . S
Mn145 O169 2.215 . S
Mn145 O171 2.117 . S
C146 O168 1.234 . S
C146 O169 1.283 . S
C147 O159 1.281 . S
C147 O160 1.236 . S
C148 O170 1.240 . S
C148 O171 1.264 . S
O149 Mn144 2.095 . S
O149 C158 1.250 . S
O150 Mn145 2.121 . S
O150 C158 1.258 . S
C151 N152 1.326 . S
C151 C155 1.460 . S
C151 H157 0.929 . S
N152 Mn145 2.257 . S
N152 C151 1.326 . S
N152 C156 1.362 . S
C153 C154 1.258 . S
C153 C156 1.431 . S
C153 C173 1.449 . S
C154 C153 1.258 . S
C154 C155 1.477 . S
C154 H174 0.931 . S
C155 C151 1.460 . S
C155 C154 1.477 . S
C155 H175 0.930 . S
C156 N152 1.362 . S
C156 C153 1.431 . S
C156 C166 1.476 . S
H157 C151 0.929 . S
C158 O149 1.250 . S
C158 O150 1.258 . S
O159 Mn144 2.162 . S
O159 C147 1.281 . S
O160 Mn144 2.297 . S
O160 C147 1.236 . S
N161 Mn145 2.282 . S
N161 C162 1.328 . S
N161 C166 1.318 . S
C162 N161 1.328 . S
C162 C163 1.457 . S
C162 H167 0.929 . S
C163 C162 1.457 . S
C163 C164 1.291 . S
C163 H176 0.931 . S
C164 C163 1.291 . S
C164 C165 1.373 . S
C164 H177 0.929 . S
C165 C164 1.373 . S
C165 C166 1.396 . S
C165 C172 1.403 . S
C166 C156 1.476 . S
C166 N161 1.318 . S
C166 C165 1.396 . S
H167 C162 0.929 . S
O168 Mn144 2.385 . S
O168 C146 1.234 . S
O169 Mn144 2.209 . S
O169 Mn145 2.215 . S
O169 C146 1.283 . S
O170 Mn144 2.094 . S
O170 C148 1.240 . S
O171 Mn145 2.117 . S
O171 C148 1.264 . S
C172 C165 1.403 . S
C172 C173 1.399 . S
C172 H178 0.929 . S
C173 C153 1.449 . S
C173 C172 1.399 . S
C173 H179 0.930 . S
H174 C154 0.931 . S
H175 C155 0.930 . S
H176 C163 0.931 . S
H177 C164 0.929 . S
H178 C172 0.929 . S
H179 C173 0.930 . S
Mn180 O185 2.095 . S
Mn180 O195 2.162 . S
Mn180 O196 2.297 . S
Mn180 O204 2.385 . S
Mn180 O205 2.209 . S
Mn180 O206 2.094 . S
Mn181 O186 2.121 . S
Mn181 N188 2.257 . S
Mn181 N197 2.282 . S
Mn181 O205 2.215 . S
Mn181 O207 2.117 . S
C182 O204 1.234 . S
C182 O205 1.283 . S
C183 O195 1.281 . S
C183 O196 1.236 . S
C184 O206 1.240 . S
C184 O207 1.264 . S
O185 Mn180 2.095 . S
O185 C194 1.250 . S
O186 Mn181 2.121 . S
O186 C194 1.258 . S
C187 N188 1.326 . S
C187 C191 1.460 . S
C187 H193 0.929 . S
N188 Mn181 2.257 . S
N188 C187 1.326 . S
N188 C192 1.362 . S
C189 C190 1.258 . S
C189 C192 1.431 . S
C189 C209 1.449 . S
C190 C189 1.258 . S
C190 C191 1.477 . S
C190 H210 0.931 . S
C191 C187 1.460 . S
C191 C190 1.477 . S
C191 H211 0.930 . S
C192 N188 1.362 . S
C192 C189 1.431 . S
C192 C202 1.476 . S
H193 C187 0.929 . S
C194 O185 1.250 . S
C194 O186 1.258 . S
O195 Mn180 2.162 . S
O195 C183 1.281 . S
O196 Mn180 2.297 . S
O196 C183 1.236 . S
N197 Mn181 2.282 . S
N197 C198 1.328 . S
N197 C202 1.318 . S
C198 N197 1.328 . S
C198 C199 1.457 . S
C198 H203 0.929 . S
C199 C198 1.457 . S
C199 C200 1.291 . S
C199 H212 0.931 . S
C200 C199 1.291 . S
C200 C201 1.373 . S
C200 H213 0.929 . S
C201 C200 1.373 . S
C201 C202 1.396 . S
C201 C208 1.403 . S
C202 C192 1.476 . S
C202 N197 1.318 . S
C202 C201 1.396 . S
H203 C198 0.929 . S
O204 Mn180 2.385 . S
O204 C182 1.234 . S
O205 Mn180 2.209 . S
O205 Mn181 2.215 . S
O205 C182 1.283 . S
O206 Mn180 2.094 . S
O206 C184 1.240 . S
O207 Mn181 2.117 . S
O207 C184 1.264 . S
C208 C201 1.403 . S
C208 C209 1.399 . S
C208 H214 0.929 . S
C209 C189 1.449 . S
C209 C208 1.399 . S
C209 H215 0.930 . S
H210 C190 0.931 . S
H211 C191 0.930 . S
H212 C199 0.931 . S
H213 C200 0.929 . S
H214 C208 0.929 . S
H215 C209 0.930 . S
H216 C224 0.929 . S
H217 C226 0.930 . S
H218 C228 0.930 . S
H219 C231 0.929 . S
H220 C234 0.930 . S
H221 C236 0.960 . S
H222 C236 0.960 . S
H223 C236 0.960 . S
C224 H216 0.929 . S
C224 C225 1.377 . S
C224 C226 1.384 . S
C225 C224 1.377 . S
C225 C231 1.390 . S
C226 H217 0.930 . S
C226 C224 1.384 . S
C226 C227 1.372 . S
C227 C226 1.372 . S
C227 C228 1.400 . S
C227 C232 1.490 . S
C228 H218 0.930 . S
C228 C227 1.400 . S
C228 C231 1.386 . S
H229 C245 0.930 . S
H230 C246 0.931 . S
C231 H219 0.929 . S
C231 C225 1.390 . S
C231 C228 1.386 . S
C232 C227 1.490 . S
C232 C234 1.395 . S
C232 C235 1.403 . S
H233 C239 0.930 . S
C234 H220 0.930 . S
C234 C232 1.395 . S
C234 C237 1.403 1_545 S
C235 C232 1.403 . S
C235 C236 1.524 . S
C235 C239 1.400 1_545 S
C236 H221 0.960 . S
C236 H222 0.960 . S
C236 H223 0.960 . S
C236 C235 1.524 . S
C237 C234 1.403 1_565 S
C237 C238 1.392 . S
C237 C241 1.495 . S
C238 C237 1.392 . S
C238 C239 1.385 . S
C238 C240 1.478 . S
C239 H233 0.930 . S
C239 C235 1.400 1_565 S
C239 C238 1.385 . S
C240 C238 1.478 . S
C240 C242 1.381 . S
C240 C246 1.383 . S
C241 C237 1.495 . S
C241 H247 0.959 . S
C241 H248 0.961 . S
C241 H249 0.960 . S
C242 C240 1.381 . S
C242 C243 1.394 . S
C242 H250 0.930 . S
C243 C242 1.394 . S
C243 C244 1.383 . S
C243 H251 0.929 . S
C244 C243 1.383 . S
C244 C245 1.377 . S
C245 H229 0.930 . S
C245 C244 1.377 . S
C245 C246 1.379 . S
C246 H230 0.931 . S
C246 C240 1.383 . S
C246 C245 1.379 . S
H247 C241 0.959 . S
H248 C241 0.961 . S
H249 C241 0.960 . S
H250 C242 0.930 . S
H251 C243 0.929 . S
H252 C260 0.929 . S
H253 C262 0.930 . S
H254 C264 0.930 . S
H255 C267 0.929 . S
H256 C270 0.930 . S
H257 C272 0.960 . S
H258 C272 0.960 . S
H259 C272 0.960 . S
C260 H252 0.929 . S
C260 C261 1.377 . S
C260 C262 1.384 . S
C261 C260 1.377 . S
C261 C267 1.390 . S
C262 H253 0.930 . S
C262 C260 1.384 . S
C262 C263 1.372 . S
C263 C262 1.372 . S
C263 C264 1.400 . S
C263 C268 1.490 . S
C264 H254 0.930 . S
C264 C263 1.400 . S
C264 C267 1.386 . S
H265 C281 0.930 . S
H266 C282 0.931 . S
C267 H255 0.929 . S
C267 C261 1.390 . S
C267 C264 1.386 . S
C268 C263 1.490 . S
C268 C270 1.395 . S
C268 C271 1.403 . S
H269 C275 0.930 . S
C270 H256 0.930 . S
C270 C268 1.395 . S
C270 C273 1.403 . S
C271 C268 1.403 . S
C271 C272 1.524 . S
C271 C275 1.400 . S
C272 H257 0.960 . S
C272 H258 0.960 . S
C272 H259 0.960 . S
C272 C271 1.524 . S
C273 C270 1.403 . S
C273 C274 1.392 . S
C273 C277 1.495 . S
C274 C273 1.392 . S
C274 C275 1.385 . S
C274 C276 1.478 . S
C275 H269 0.930 . S
C275 C271 1.400 . S
C275 C274 1.385 . S
C276 C274 1.478 . S
C276 C278 1.381 . S
C276 C282 1.383 . S
C277 C273 1.495 . S
C277 H283 0.959 . S
C277 H284 0.961 . S
C277 H285 0.960 . S
C278 C276 1.381 . S
C278 C279 1.394 . S
C278 H286 0.930 . S
C279 C278 1.394 . S
C279 C280 1.383 . S
C279 H287 0.929 . S
C280 C279 1.383 . S
C280 C281 1.377 . S
C281 H265 0.930 . S
C281 C280 1.377 . S
C281 C282 1.379 . S
C282 H266 0.931 . S
C282 C276 1.383 . S
C282 C281 1.379 . S
H283 C277 0.959 . S
H284 C277 0.961 . S
H285 C277 0.960 . S
H286 C278 0.930 . S
H287 C279 0.929 . S
H288 C296 0.929 . S
H289 C298 0.930 . S
H290 C300 0.930 . S
H291 C303 0.929 . S
H292 C306 0.930 . S
H293 C308 0.960 1_455 S
H294 C308 0.960 . S
H295 C308 0.960 . S
C296 H288 0.929 . S
C296 C297 1.377 . S
C296 C298 1.384 . S
C297 C296 1.377 . S
C297 C303 1.390 . S
C298 H289 0.930 . S
C298 C296 1.384 . S
C298 C299 1.372 . S
C299 C298 1.372 . S
C299 C300 1.400 . S
C299 C304 1.490 . S
C300 H290 0.930 . S
C300 C299 1.400 . S
C300 C303 1.386 . S
H301 C317 0.930 . S
H302 C318 0.931 . S
C303 H291 0.929 . S
C303 C297 1.390 . S
C303 C300 1.386 . S
C304 C299 1.490 . S
C304 C306 1.395 . S
C304 C307 1.403 . S
H305 C311 0.930 . S
C306 H292 0.930 . S
C306 C304 1.395 . S
C306 C309 1.403 1_655 S
C307 C304 1.403 . S
C307 C308 1.524 . S
C307 C311 1.400 1_655 S
C308 H293 0.960 1_655 S
C308 H294 0.960 . S
C308 H295 0.960 . S
C308 C307 1.524 . S
C309 C306 1.403 1_455 S
C309 C310 1.392 . S
C309 C313 1.495 . S
C310 C309 1.392 . S
C310 C311 1.385 . S
C310 C312 1.478 . S
C311 H305 0.930 . S
C311 C307 1.400 1_455 S
C311 C310 1.385 . S
C312 C310 1.478 . S
C312 C314 1.381 . S
C312 C318 1.383 . S
C313 C309 1.495 . S
C313 H319 0.959 1_455 S
C313 H320 0.961 . S
C313 H321 0.960 . S
C314 C312 1.381 . S
C314 C315 1.394 . S
C314 H322 0.930 . S
C315 C314 1.394 . S
C315 C316 1.383 . S
C315 H323 0.929 . S
C316 C315 1.383 . S
C316 C317 1.377 . S
C317 H301 0.930 . S
C317 C316 1.377 . S
C317 C318 1.379 . S
C318 H302 0.931 . S
C318 C312 1.383 . S
C318 C317 1.379 . S
H319 C313 0.959 1_655 S
H320 C313 0.961 . S
H321 C313 0.960 . S
H322 C314 0.930 . S
H323 C315 0.929 . S
H324 C332 0.929 . S
H325 C334 0.930 . S
H326 C336 0.930 . S
H327 C339 0.929 . S
H328 C342 0.930 . S
H329 C344 0.960 . S
H330 C344 0.960 . S
H331 C344 0.960 . S
C332 H324 0.929 . S
C332 C333 1.377 . S
C332 C334 1.384 . S
C333 C332 1.377 . S
C333 C339 1.390 . S
C334 H325 0.930 . S
C334 C332 1.384 . S
C334 C335 1.372 . S
C335 C334 1.372 . S
C335 C336 1.400 . S
C335 C340 1.490 . S
C336 H326 0.930 . S
C336 C335 1.400 . S
C336 C339 1.386 . S
H337 C353 0.930 . S
H338 C354 0.931 . S
C339 H327 0.929 . S
C339 C333 1.390 . S
C339 C336 1.386 . S
C340 C335 1.490 . S
C340 C342 1.395 . S
C340 C343 1.403 . S
H341 C347 0.930 . S
C342 H328 0.930 . S
C342 C340 1.395 . S
C342 C345 1.403 1_455 S
C343 C340 1.403 . S
C343 C344 1.524 . S
C343 C347 1.400 1_455 S
C344 H329 0.960 . S
C344 H330 0.960 . S
C344 H331 0.960 . S
C344 C343 1.524 . S
C345 C342 1.403 1_655 S
C345 C346 1.392 . S
C345 C349 1.495 . S
C346 C345 1.392 . S
C346 C347 1.385 . S
C346 C348 1.478 . S
C347 H341 0.930 . S
C347 C343 1.400 1_655 S
C347 C346 1.385 . S
C348 C346 1.478 . S
C348 C350 1.381 . S
C348 C354 1.383 . S
C349 C345 1.495 . S
C349 H355 0.959 . S
C349 H356 0.961 . S
C349 H357 0.960 . S
C350 C348 1.381 . S
C350 C351 1.394 . S
C350 H358 0.930 . S
C351 C350 1.394 . S
C351 C352 1.383 . S
C351 H359 0.929 . S
C352 C351 1.383 . S
C352 C353 1.377 . S
C353 H337 0.930 . S
C353 C352 1.377 . S
C353 C354 1.379 . S
C354 H338 0.931 . S
C354 C348 1.383 . S
C354 C353 1.379 . S
H355 C349 0.959 . S
H356 C349 0.961 . S
H357 C349 0.960 . S
H358 C350 0.930 . S
H359 C351 0.929 . S
H360 C368 0.929 . S
H361 C370 0.930 . S
H362 C372 0.930 . S
H363 C375 0.929 . S
H364 C378 0.930 . S
H365 C380 0.960 . S
H366 C380 0.960 . S
H367 C380 0.960 . S
C368 H360 0.929 . S
C368 C369 1.377 . S
C368 C370 1.384 . S
C369 C368 1.377 . S
C369 C375 1.390 . S
C370 H361 0.930 . S
C370 C368 1.384 . S
C370 C371 1.372 . S
C371 C370 1.372 . S
C371 C372 1.400 . S
C371 C376 1.490 . S
C372 H362 0.930 . S
C372 C371 1.400 . S
C372 C375 1.386 . S
H373 C389 0.930 . S
H374 C390 0.931 . S
C375 H363 0.929 . S
C375 C369 1.390 . S
C375 C372 1.386 . S
C376 C371 1.490 . S
C376 C378 1.395 . S
C376 C379 1.403 . S
H377 C383 0.930 . S
C378 H364 0.930 . S
C378 C376 1.395 . S
C378 C381 1.403 1_565 S
C379 C376 1.403 . S
C379 C380 1.524 . S
C379 C383 1.400 1_565 S
C380 H365 0.960 . S
C380 H366 0.960 . S
C380 H367 0.960 . S
C380 C379 1.524 . S
C381 C378 1.403 1_545 S
C381 C382 1.392 . S
C381 C385 1.495 . S
C382 C381 1.392 . S
C382 C383 1.385 . S
C382 C384 1.478 . S
C383 H377 0.930 . S
C383 C379 1.400 1_545 S
C383 C382 1.385 . S
C384 C382 1.478 . S
C384 C386 1.381 . S
C384 C390 1.383 . S
C385 C381 1.495 . S
C385 H391 0.959 . S
C385 H392 0.961 . S
C385 H393 0.960 . S
C386 C384 1.381 . S
C386 C387 1.394 . S
C386 H394 0.930 . S
C387 C386 1.394 . S
C387 C388 1.383 . S
C387 H395 0.929 . S
C388 C387 1.383 . S
C388 C389 1.377 . S
C389 H373 0.930 . S
C389 C388 1.377 . S
C389 C390 1.379 . S
C390 H374 0.931 . S
C390 C384 1.383 . S
C390 C389 1.379 . S
H391 C385 0.959 . S
H392 C385 0.961 . S
H393 C385 0.960 . S
H394 C386 0.930 . S
H395 C387 0.929 . S
H396 C404 0.929 . S
H397 C406 0.930 . S
H398 C408 0.930 . S
H399 C411 0.929 . S
H400 C414 0.930 . S
H401 C416 0.960 . S
H402 C416 0.960 . S
H403 C416 0.960 . S
C404 H396 0.929 . S
C404 C405 1.377 . S
C404 C406 1.384 . S
C405 C404 1.377 . S
C405 C411 1.390 . S
C406 H397 0.930 . S
C406 C404 1.384 . S
C406 C407 1.372 . S
C407 C406 1.372 . S
C407 C408 1.400 . S
C407 C412 1.490 . S
C408 H398 0.930 . S
C408 C407 1.400 . S
C408 C411 1.386 . S
H409 C425 0.930 . S
H410 C426 0.931 . S
C411 H399 0.929 . S
C411 C405 1.390 . S
C411 C408 1.386 . S
C412 C407 1.490 . S
C412 C414 1.395 . S
C412 C415 1.403 . S
H413 C419 0.930 . S
C414 H400 0.930 . S
C414 C412 1.395 . S
C414 C417 1.403 . S
C415 C412 1.403 . S
C415 C416 1.524 . S
C415 C419 1.400 . S
C416 H401 0.960 . S
C416 H402 0.960 . S
C416 H403 0.960 . S
C416 C415 1.524 . S
C417 C414 1.403 . S
C417 C418 1.392 . S
C417 C421 1.495 . S
C418 C417 1.392 . S
C418 C419 1.385 . S
C418 C420 1.478 . S
C419 H413 0.930 . S
C419 C415 1.400 . S
C419 C418 1.385 . S
C420 C418 1.478 . S
C420 C422 1.381 . S
C420 C426 1.383 . S
C421 C417 1.495 . S
C421 H427 0.959 . S
C421 H428 0.961 . S
C421 H429 0.960 . S
C422 C420 1.381 . S
C422 C423 1.394 . S
C422 H430 0.930 . S
C423 C422 1.394 . S
C423 C424 1.383 . S
C423 H431 0.929 . S
C424 C423 1.383 . S
C424 C425 1.377 . S
C425 H409 0.930 . S
C425 C424 1.377 . S
C425 C426 1.379 . S
C426 H410 0.931 . S
C426 C420 1.383 . S
C426 C425 1.379 . S
H427 C421 0.959 . S
H428 C421 0.961 . S
H429 C421 0.960 . S
H430 C422 0.930 . S
H431 C423 0.929 . S
H432 C440 0.929 . S
H433 C442 0.930 . S
H434 C444 0.930 . S
H435 C447 0.929 . S
H436 C450 0.930 . S
H437 C452 0.960 . S
H438 C452 0.960 . S
H439 C452 0.960 . S
C440 H432 0.929 . S
C440 C441 1.377 . S
C440 C442 1.384 . S
C441 C440 1.377 . S
C441 C447 1.390 . S
C442 H433 0.930 . S
C442 C440 1.384 . S
C442 C443 1.372 . S
C443 C442 1.372 . S
C443 C444 1.400 . S
C443 C448 1.490 . S
C444 H434 0.930 . S
C444 C443 1.400 . S
C444 C447 1.386 . S
H445 C461 0.930 . S
H446 C462 0.931 . S
C447 H435 0.929 . S
C447 C441 1.390 . S
C447 C444 1.386 . S
C448 C443 1.490 . S
C448 C450 1.395 . S
C448 C451 1.403 . S
H449 C455 0.930 . S
C450 H436 0.930 . S
C450 C448 1.395 . S
C450 C453 1.403 1_556 S
C451 C448 1.403 . S
C451 C452 1.524 . S
C451 C455 1.400 1_556 S
C452 H437 0.960 . S
C452 H438 0.960 . S
C452 H439 0.960 . S
C452 C451 1.524 . S
C453 C450 1.403 1_554 S
C453 C454 1.392 . S
C453 C457 1.495 . S
C454 C453 1.392 . S
C454 C455 1.385 . S
C454 C456 1.478 . S
C455 H449 0.930 . S
C455 C451 1.400 1_554 S
C455 C454 1.385 . S
C456 C454 1.478 . S
C456 C458 1.381 . S
C456 C462 1.383 . S
C457 C453 1.495 . S
C457 H463 0.959 . S
C457 H464 0.961 . S
C457 H465 0.960 . S
C458 C456 1.381 . S
C458 C459 1.394 . S
C458 H466 0.930 . S
C459 C458 1.394 . S
C459 C460 1.383 . S
C459 H467 0.929 . S
C460 C459 1.383 . S
C460 C461 1.377 . S
C461 H445 0.930 . S
C461 C460 1.377 . S
C461 C462 1.379 . S
C462 H446 0.931 . S
C462 C456 1.383 . S
C462 C461 1.379 . S
H463 C457 0.959 . S
H464 C457 0.961 . S
H465 C457 0.960 . S
H466 C458 0.930 . S
H467 C459 0.929 . S
H468 C476 0.929 . S
H469 C478 0.930 . S
H470 C480 0.930 . S
H471 C483 0.929 . S
H472 C486 0.930 . S
H473 C488 0.960 . S
H474 C488 0.960 . S
H475 C488 0.960 . S
C476 H468 0.929 . S
C476 C477 1.377 . S
C476 C478 1.384 . S
C477 C476 1.377 . S
C477 C483 1.390 . S
C478 H469 0.930 . S
C478 C476 1.384 . S
C478 C479 1.372 . S
C479 C478 1.372 . S
C479 C480 1.400 . S
C479 C484 1.490 . S
C480 H470 0.930 . S
C480 C479 1.400 . S
C480 C483 1.386 . S
H481 C497 0.930 . S
H482 C498 0.931 . S
C483 H471 0.929 . S
C483 C477 1.390 . S
C483 C480 1.386 . S
C484 C479 1.490 . S
C484 C486 1.395 . S
C484 C487 1.403 . S
H485 C491 0.930 . S
C486 H472 0.930 . S
C486 C484 1.395 . S
C486 C489 1.403 . S
C487 C484 1.403 . S
C487 C488 1.524 . S
C487 C491 1.400 . S
C488 H473 0.960 . S
C488 H474 0.960 . S
C488 H475 0.960 . S
C488 C487 1.524 . S
C489 C486 1.403 . S
C489 C490 1.392 . S
C489 C493 1.495 . S
C490 C489 1.392 . S
C490 C491 1.385 . S
C490 C492 1.478 . S
C491 H485 0.930 . S
C491 C487 1.400 . S
C491 C490 1.385 . S
C492 C490 1.478 . S
C492 C494 1.381 . S
C492 C498 1.383 . S
C493 C489 1.495 . S
C493 H499 0.959 . S
C493 H500 0.961 . S
C493 H501 0.960 . S
C494 C492 1.381 . S
C494 C495 1.394 . S
C494 H502 0.930 . S
C495 C494 1.394 . S
C495 C496 1.383 . S
C495 H503 0.929 . S
C496 C495 1.383 . S
C496 C497 1.377 . S
C497 H481 0.930 . S
C497 C496 1.377 . S
C497 C498 1.379 . S
C498 H482 0.931 . S
C498 C492 1.383 . S
C498 C497 1.379 . S
H499 C493 0.959 . S
H500 C493 0.961 . S
H501 C493 0.960 . S
H502 C494 0.930 . S
H503 C495 0.929 . S
H504 C512 0.929 . S
H505 C514 0.930 . S
H506 C516 0.930 . S
H507 C519 0.929 . S
H508 C522 0.930 . S
H509 C524 0.960 . S
H510 C524 0.960 . S
H511 C524 0.960 . S
C512 H504 0.929 . S
C512 C513 1.377 . S
C512 C514 1.384 . S
C513 C512 1.377 . S
C513 C519 1.390 . S
C514 H505 0.930 . S
C514 C512 1.384 . S
C514 C515 1.372 . S
C515 C514 1.372 . S
C515 C516 1.400 . S
C515 C520 1.490 . S
C516 H506 0.930 . S
C516 C515 1.400 . S
C516 C519 1.386 . S
H517 C533 0.930 . S
H518 C534 0.931 . S
C519 H507 0.929 . S
C519 C513 1.390 . S
C519 C516 1.386 . S
C520 C515 1.490 . S
C520 C522 1.395 . S
C520 C523 1.403 . S
H521 C527 0.930 . S
C522 H508 0.930 . S
C522 C520 1.395 . S
C522 C525 1.403 . S
C523 C520 1.403 . S
C523 C524 1.524 . S
C523 C527 1.400 . S
C524 H509 0.960 . S
C524 H510 0.960 . S
C524 H511 0.960 . S
C524 C523 1.524 . S
C525 C522 1.403 . S
C525 C526 1.392 . S
C525 C529 1.495 . S
C526 C525 1.392 . S
C526 C527 1.385 . S
C526 C528 1.478 . S
C527 H521 0.930 . S
C527 C523 1.400 . S
C527 C526 1.385 . S
C528 C526 1.478 . S
C528 C530 1.381 . S
C528 C534 1.383 . S
C529 C525 1.495 . S
C529 H535 0.959 . S
C529 H536 0.961 . S
C529 H537 0.960 . S
C530 C528 1.381 . S
C530 C531 1.394 . S
C530 H538 0.930 . S
C531 C530 1.394 . S
C531 C532 1.383 . S
C531 H539 0.929 . S
C532 C531 1.383 . S
C532 C533 1.377 . S
C533 H517 0.930 . S
C533 C532 1.377 . S
C533 C534 1.379 . S
C534 H518 0.931 . S
C534 C528 1.383 . S
C534 C533 1.379 . S
H535 C529 0.959 . S
H536 C529 0.961 . S
H537 C529 0.960 . S
H538 C530 0.930 . S
H539 C531 0.929 . S
H540 C548 0.929 . S
H541 C550 0.930 . S
H542 C552 0.930 . S
H543 C555 0.929 . S
H544 C558 0.930 . S
H545 C560 0.960 . S
H546 C560 0.960 . S
H547 C560 0.960 . S
C548 H540 0.929 . S
C548 C549 1.377 . S
C548 C550 1.384 . S
C549 C548 1.377 . S
C549 C555 1.390 . S
C550 H541 0.930 . S
C550 C548 1.384 . S
C550 C551 1.372 . S
C551 C550 1.372 . S
C551 C552 1.400 . S
C551 C556 1.490 . S
C552 H542 0.930 . S
C552 C551 1.400 . S
C552 C555 1.386 . S
H553 C569 0.930 . S
H554 C570 0.931 . S
C555 H543 0.929 . S
C555 C549 1.390 . S
C555 C552 1.386 . S
C556 C551 1.490 . S
C556 C558 1.395 . S
C556 C559 1.403 . S
H557 C563 0.930 . S
C558 H544 0.930 . S
C558 C556 1.395 . S
C558 C561 1.403 1_556 S
C559 C556 1.403 . S
C559 C560 1.524 . S
C559 C563 1.400 1_556 S
C560 H545 0.960 . S
C560 H546 0.960 . S
C560 H547 0.960 . S
C560 C559 1.524 . S
C561 C558 1.403 1_554 S
C561 C562 1.392 . S
C561 C565 1.495 . S
C562 C561 1.392 . S
C562 C563 1.385 . S
C562 C564 1.478 . S
C563 H557 0.930 . S
C563 C559 1.400 1_554 S
C563 C562 1.385 . S
C564 C562 1.478 . S
C564 C566 1.381 . S
C564 C570 1.383 . S
C565 C561 1.495 . S
C565 H571 0.959 . S
C565 H572 0.961 . S
C565 H573 0.960 . S
C566 C564 1.381 . S
C566 C567 1.394 . S
C566 H574 0.930 . S
C567 C566 1.394 . S
C567 C568 1.383 . S
C567 H575 0.929 . S
C568 C567 1.383 . S
C568 C569 1.377 . S
C569 H553 0.930 . S
C569 C568 1.377 . S
C569 C570 1.379 . S
C570 H554 0.931 . S
C570 C564 1.383 . S
C570 C569 1.379 . S
H571 C565 0.959 . S
H572 C565 0.961 . S
H573 C565 0.960 . S
H574 C566 0.930 . S
H575 C567 0.929 . S
H576 C584 0.929 . S
H577 C586 0.930 . S
H578 C588 0.930 . S
H579 C591 0.929 . S
H580 C594 0.930 . S
H581 C596 0.960 . S
H582 C596 0.960 . S
H583 C596 0.960 . S
C584 H576 0.929 . S
C584 C585 1.377 . S
C584 C586 1.384 . S
C585 C584 1.377 . S
C585 C591 1.390 . S
C586 H577 0.930 . S
C586 C584 1.384 . S
C586 C587 1.372 . S
C587 C586 1.372 . S
C587 C588 1.400 . S
C587 C592 1.490 . S
C588 H578 0.930 . S
C588 C587 1.400 . S
C588 C591 1.386 . S
H589 C605 0.930 . S
H590 C606 0.931 . S
C591 H579 0.929 . S
C591 C585 1.390 . S
C591 C588 1.386 . S
C592 C587 1.490 . S
C592 C594 1.395 . S
C592 C595 1.403 . S
H593 C599 0.930 . S
C594 H580 0.930 . S
C594 C592 1.395 . S
C594 C597 1.403 . S
C595 C592 1.403 . S
C595 C596 1.524 . S
C595 C599 1.400 . S
C596 H581 0.960 . S
C596 H582 0.960 . S
C596 H583 0.960 . S
C596 C595 1.524 . S
C597 C594 1.403 . S
C597 C598 1.392 . S
C597 C601 1.495 . S
C598 C597 1.392 . S
C598 C599 1.385 . S
C598 C600 1.478 . S
C599 H593 0.930 . S
C599 C595 1.400 . S
C599 C598 1.385 . S
C600 C598 1.478 . S
C600 C602 1.381 . S
C600 C606 1.383 . S
C601 C597 1.495 . S
C601 H607 0.959 . S
C601 H608 0.961 . S
C601 H609 0.960 . S
C602 C600 1.381 . S
C602 C603 1.394 . S
C602 H610 0.930 . S
C603 C602 1.394 . S
C603 C604 1.383 . S
C603 H611 0.929 . S
C604 C603 1.383 . S
C604 C605 1.377 . S
C605 H589 0.930 . S
C605 C604 1.377 . S
C605 C606 1.379 . S
C606 H590 0.931 . S
C606 C600 1.383 . S
C606 C605 1.379 . S
H607 C601 0.959 . S
H608 C601 0.961 . S
H609 C601 0.960 . S
H610 C602 0.930 . S
H611 C603 0.929 . S
H612 C620 0.929 . S
H613 C622 0.930 . S
H614 C624 0.930 . S
H615 C627 0.929 . S
H616 C630 0.930 . S
H617 C632 0.960 . S
H618 C632 0.960 . S
H619 C632 0.960 . S
C620 H612 0.929 . S
C620 C621 1.377 . S
C620 C622 1.384 . S
C621 C620 1.377 . S
C621 C627 1.390 . S
C622 H613 0.930 . S
C622 C620 1.384 . S
C622 C623 1.372 . S
C623 C622 1.372 . S
C623 C624 1.400 . S
C623 C628 1.490 . S
C624 H614 0.930 . S
C624 C623 1.400 . S
C624 C627 1.386 . S
H625 C641 0.930 . S
H626 C642 0.931 . S
C627 H615 0.929 . S
C627 C621 1.390 . S
C627 C624 1.386 . S
C628 C623 1.490 . S
C628 C630 1.395 . S
C628 C631 1.403 . S
H629 C635 0.930 . S
C630 H616 0.930 . S
C630 C628 1.395 . S
C630 C633 1.403 . S
C631 C628 1.403 . S
C631 C632 1.524 . S
C631 C635 1.400 . S
C632 H617 0.960 . S
C632 H618 0.960 . S
C632 H619 0.960 . S
C632 C631 1.524 . S
C633 C630 1.403 . S
C633 C634 1.392 . S
C633 C637 1.495 . S
C634 C633 1.392 . S
C634 C635 1.385 . S
C634 C636 1.478 . S
C635 H629 0.930 . S
C635 C631 1.400 . S
C635 C634 1.385 . S
C636 C634 1.478 . S
C636 C638 1.381 . S
C636 C642 1.383 . S
C637 C633 1.495 . S
C637 H643 0.959 . S
C637 H644 0.961 . S
C637 H645 0.960 . S
C638 C636 1.381 . S
C638 C639 1.394 . S
C638 H646 0.930 . S
C639 C638 1.394 . S
C639 C640 1.383 . S
C639 H647 0.929 . S
C640 C639 1.383 . S
C640 C641 1.377 . S
C641 H625 0.930 . S
C641 C640 1.377 . S
C641 C642 1.379 . S
C642 H626 0.931 . S
C642 C636 1.383 . S
C642 C641 1.379 . S
H643 C637 0.959 . S
H644 C637 0.961 . S
H645 C637 0.960 . S
H646 C638 0.930 . S
H647 C639 0.929 . S
C225 C3 1.417 . S
C244 C111 1.417 . S
C261 C39 1.399 . S
C280 C147 1.393 . S
C297 C76 1.394 . S
C316 C184 1.405 . S
C333 C40 1.371 . S
C352 C148 1.361 . S
C369 C183 1.399 . S
C388 C75 1.393 . S
C405 C112 1.390 . S
C424 C4 1.373 . S
C441 C74 1.004 . S
C460 C2 0.992 . S
C477 C122 1.037 . S
C496 C38 1.056 . S
C513 C86 1.072 . S
C532 C158 1.050 . S
C549 C182 1.004 . S
C568 C110 1.001 . S
C585 C146 1.022 . S
C604 C14 1.019 . S
C621 C194 1.072 . S
C640 C50 1.056 . S
