# Generated by pormake.
# Topology lcy-a, (4)-cn, num edge types: 1
# Building blocks:
#     Node 0, Type 0, BuildingBlock: NAHDIM_clean_sbu_0, # of connection points: 4
#     Node 1, Type 0, BuildingBlock: NAHDIM_clean_sbu_0, # of connection points: 4
#     Node 2, Type 0, BuildingBlock: NAHDIM_clean_sbu_0, # of connection points: 4
#     Node 3, Type 0, BuildingBlock: NAHDIM_clean_sbu_0, # of connection points: 4
#     Node 4, Type 0, BuildingBlock: NAHDIM_clean_sbu_0, # of connection points: 4
#     Node 5, Type 0, BuildingBlock: NAHDIM_clean_sbu_0, # of connection points: 4
#     Node 6, Type 0, BuildingBlock: NAHDIM_clean_sbu_0, # of connection points: 4
#     Node 7, Type 0, BuildingBlock: NAHDIM_clean_sbu_0, # of connection points: 4
#     Node 8, Type 0, BuildingBlock: NAHDIM_clean_sbu_0, # of connection points: 4
#     Node 9, Type 0, BuildingBlock: NAHDIM_clean_sbu_0, # of connection points: 4
#     Node 10, Type 0, BuildingBlock: NAHDIM_clean_sbu_0, # of connection points: 4
#     Node 11, Type 0, BuildingBlock: NAHDIM_clean_sbu_0, # of connection points: 4
#     Node 12, Type 0, BuildingBlock: NAHDIM_clean_sbu_0, # of connection points: 4
#     Node 13, Type 0, BuildingBlock: NAHDIM_clean_sbu_0, # of connection points: 4
#     Node 14, Type 0, BuildingBlock: NAHDIM_clean_sbu_0, # of connection points: 4
#     Node 15, Type 0, BuildingBlock: NAHDIM_clean_sbu_0, # of connection points: 4
#     Node 16, Type 0, BuildingBlock: NAHDIM_clean_sbu_0, # of connection points: 4
#     Node 17, Type 0, BuildingBlock: NAHDIM_clean_sbu_0, # of connection points: 4
#     Node 18, Type 0, BuildingBlock: NAHDIM_clean_sbu_0, # of connection points: 4
#     Node 19, Type 0, BuildingBlock: NAHDIM_clean_sbu_0, # of connection points: 4
#     Node 20, Type 0, BuildingBlock: NAHDIM_clean_sbu_0, # of connection points: 4
#     Node 21, Type 0, BuildingBlock: NAHDIM_clean_sbu_0, # of connection points: 4
#     Node 22, Type 0, BuildingBlock: NAHDIM_clean_sbu_0, # of connection points: 4
#     Node 23, Type 0, BuildingBlock: NAHDIM_clean_sbu_0, # of connection points: 4
#     Edge 24, Type (0, 0), BuildingBlock: XUDNAN_clean_linker_2, # of connection points: 2
#     Edge 25, Type (0, 0), BuildingBlock: XUDNAN_clean_linker_2, # of connection points: 2
#     Edge 26, Type (0, 0), BuildingBlock: XUDNAN_clean_linker_2, # of connection points: 2
#     Edge 27, Type (0, 0), BuildingBlock: XUDNAN_clean_linker_2, # of connection points: 2
#     Edge 28, Type (0, 0), BuildingBlock: XUDNAN_clean_linker_2, # of connection points: 2
#     Edge 29, Type (0, 0), BuildingBlock: XUDNAN_clean_linker_2, # of connection points: 2
#     Edge 30, Type (0, 0), BuildingBlock: XUDNAN_clean_linker_2, # of connection points: 2
#     Edge 31, Type (0, 0), BuildingBlock: XUDNAN_clean_linker_2, # of connection points: 2
#     Edge 32, Type (0, 0), BuildingBlock: XUDNAN_clean_linker_2, # of connection points: 2
#     Edge 33, Type (0, 0), BuildingBlock: XUDNAN_clean_linker_2, # of connection points: 2
#     Edge 34, Type (0, 0), BuildingBlock: XUDNAN_clean_linker_2, # of connection points: 2
#     Edge 35, Type (0, 0), BuildingBlock: XUDNAN_clean_linker_2, # of connection points: 2
#     Edge 36, Type (0, 0), BuildingBlock: XUDNAN_clean_linker_2, # of connection points: 2
#     Edge 37, Type (0, 0), BuildingBlock: XUDNAN_clean_linker_2, # of connection points: 2
#     Edge 38, Type (0, 0), BuildingBlock: XUDNAN_clean_linker_2, # of connection points: 2
#     Edge 39, Type (0, 0), BuildingBlock: XUDNAN_clean_linker_2, # of connection points: 2
#     Edge 40, Type (0, 0), BuildingBlock: XUDNAN_clean_linker_2, # of connection points: 2
#     Edge 41, Type (0, 0), BuildingBlock: XUDNAN_clean_linker_2, # of connection points: 2
#     Edge 42, Type (0, 0), BuildingBlock: XUDNAN_clean_linker_2, # of connection points: 2
#     Edge 43, Type (0, 0), BuildingBlock: XUDNAN_clean_linker_2, # of connection points: 2
#     Edge 44, Type (0, 0), BuildingBlock: XUDNAN_clean_linker_2, # of connection points: 2
#     Edge 45, Type (0, 0), BuildingBlock: XUDNAN_clean_linker_2, # of connection points: 2
#     Edge 46, Type (0, 0), BuildingBlock: XUDNAN_clean_linker_2, # of connection points: 2
#     Edge 47, Type (0, 0), BuildingBlock: XUDNAN_clean_linker_2, # of connection points: 2
#     Edge 48, Type (0, 0), BuildingBlock: XUDNAN_clean_linker_2, # of connection points: 2
#     Edge 49, Type (0, 0), BuildingBlock: XUDNAN_clean_linker_2, # of connection points: 2
#     Edge 50, Type (0, 0), BuildingBlock: XUDNAN_clean_linker_2, # of connection points: 2
#     Edge 51, Type (0, 0), BuildingBlock: XUDNAN_clean_linker_2, # of connection points: 2
#     Edge 52, Type (0, 0), BuildingBlock: XUDNAN_clean_linker_2, # of connection points: 2
#     Edge 53, Type (0, 0), BuildingBlock: XUDNAN_clean_linker_2, # of connection points: 2
#     Edge 54, Type (0, 0), BuildingBlock: XUDNAN_clean_linker_2, # of connection points: 2
#     Edge 55, Type (0, 0), BuildingBlock: XUDNAN_clean_linker_2, # of connection points: 2
#     Edge 56, Type (0, 0), BuildingBlock: XUDNAN_clean_linker_2, # of connection points: 2
#     Edge 57, Type (0, 0), BuildingBlock: XUDNAN_clean_linker_2, # of connection points: 2
#     Edge 58, Type (0, 0), BuildingBlock: XUDNAN_clean_linker_2, # of connection points: 2
#     Edge 59, Type (0, 0), BuildingBlock: XUDNAN_clean_linker_2, # of connection points: 2
#     Edge 60, Type (0, 0), BuildingBlock: XUDNAN_clean_linker_2, # of connection points: 2
#     Edge 61, Type (0, 0), BuildingBlock: XUDNAN_clean_linker_2, # of connection points: 2
#     Edge 62, Type (0, 0), BuildingBlock: XUDNAN_clean_linker_2, # of connection points: 2
#     Edge 63, Type (0, 0), BuildingBlock: XUDNAN_clean_linker_2, # of connection points: 2
#     Edge 64, Type (0, 0), BuildingBlock: XUDNAN_clean_linker_2, # of connection points: 2
#     Edge 65, Type (0, 0), BuildingBlock: XUDNAN_clean_linker_2, # of connection points: 2
#     Edge 66, Type (0, 0), BuildingBlock: XUDNAN_clean_linker_2, # of connection points: 2
#     Edge 67, Type (0, 0), BuildingBlock: XUDNAN_clean_linker_2, # of connection points: 2
#     Edge 68, Type (0, 0), BuildingBlock: XUDNAN_clean_linker_2, # of connection points: 2
#     Edge 69, Type (0, 0), BuildingBlock: XUDNAN_clean_linker_2, # of connection points: 2
#     Edge 70, Type (0, 0), BuildingBlock: XUDNAN_clean_linker_2, # of connection points: 2
#     Edge 71, Type (0, 0), BuildingBlock: XUDNAN_clean_linker_2, # of connection points: 2
# Relax obj value: 0.396
# Max RMSD: 0.213
# Mean RMSD: 0.213
data_MOF--net-lcy-a--node1-NAHDIM_clean_sbu_0--edge1-XUDNAN_clean_linker_2
_symmetry_space_group_name_H-M    P1
_symmetry_Int_Tables_number       1
_symmetry_cell_setting            triclinic
loop_
_symmetry_equiv_pos_as_xyz
'x, y, z'
_cell_length_a     56.190461
_cell_length_b     56.181751
_cell_length_c     56.14627
_cell_angle_alpha  89.958128
_cell_angle_beta   89.960549
_cell_angle_gamma 89.97925
loop_
_atom_site_label
_atom_site_type_symbol
_atom_site_fract_x
_atom_site_fract_y
_atom_site_fract_z
_atom_type_partial_charge
C0 C 0.16874 0.27798 0.42085 0.0
O1 O 0.1865 0.2841 0.43476 0.0
O2 O 0.21999 0.26562 0.37769 0.0
Zn3 Zn 0.20112 0.29477 0.38638 0.0
O4 O 0.21823 0.3136 0.41151 0.0
C5 C 0.21236 0.31288 0.3406 0.0
O6 O 0.22918 0.29683 0.34299 0.0
O7 O 0.17006 0.28257 0.39874 0.0
C8 C 0.23916 0.32149 0.40822 0.0
O9 O 0.24991 0.31734 0.38786 0.0
C10 C 0.23541 0.25544 0.39072 0.0
O11 O 0.23993 0.26389 0.41205 0.0
O12 O 0.19714 0.31539 0.35718 0.0
C13 C 0.00502 0.96949 0.74408 0.0
O14 O 0.00901 0.99218 0.74803 0.0
O15 O 0.01596 0.99282 0.67769 0.0
Zn16 Zn 0.98793 0.98593 0.69858 0.0
O17 O 0.97365 0.01572 0.71236 0.0
C18 C 0.94722 0.95706 0.6818 0.0
O19 O 0.94396 0.95023 0.70394 0.0
O20 O 0.9964 0.96299 0.72423 0.0
C21 C 0.95701 0.01311 0.72748 0.0
O22 O 0.95081 0.99149 0.73387 0.0
C23 C 0.03691 -0.00023 0.68254 0.0
O24 O 0.04285 0.00425 0.70471 0.0
O25 O 0.96403 0.97129 0.67672 0.0
C26 C 0.33248 0.69643 0.94311 0.0
O27 O 0.32562 0.70318 0.92181 0.0
O28 O 0.27433 0.69224 0.92682 0.0
Zn29 Zn 0.2951 0.66432 0.9351 0.0
O30 O 0.27605 0.64354 0.95699 0.0
C31 C 0.30324 0.65895 0.8853 0.0
O32 O 0.29992 0.68206 0.88639 0.0
O33 O 0.32309 0.67805 0.95234 0.0
C34 C 0.25531 0.6378 0.95008 0.0
O35 O 0.24852 0.64384 0.92851 0.0
C36 C 0.25892 0.70106 0.94081 0.0
O37 O 0.25573 0.69175 0.96203 0.0
O38 O 0.30315 0.64695 0.90453 0.0
C39 C 0.54712 0.07944 0.1886 0.0
O40 O 0.54213 0.05823 0.19713 0.0
O41 O 0.54971 0.02712 0.15109 0.0
Zn42 Zn 0.57489 0.05184 0.15674 0.0
O43 O 0.59878 0.03744 0.17891 0.0
C44 C 0.57638 0.06676 0.10853 0.0
O45 O 0.55451 0.07312 0.11381 0.0
O46 O 0.5611 0.08128 0.17095 0.0
C47 C 0.60652 0.01686 0.17364 0.0
O48 O 0.59952 0.0069 0.15367 0.0
C49 C 0.52774 0.03019 0.14665 0.0
O50 O 0.51884 0.05181 0.14649 0.0
O51 O 0.58957 0.05836 0.12488 0.0
C52 C 0.64925 0.21516 0.57381 0.0
O53 O 0.64817 0.19302 0.56645 0.0
O54 O 0.71695 0.21384 0.60625 0.0
Zn55 Zn 0.68544 0.19718 0.60555 0.0
O56 O 0.69017 0.16854 0.58464 0.0
C57 C 0.68569 0.16907 0.64846 0.0
O58 O 0.69225 0.15223 0.63365 0.0
O59 O 0.66252 0.22037 0.59133 0.0
C60 C 0.67741 0.15001 0.58252 0.0
O61 O 0.65762 0.14805 0.59484 0.0
C62 C 0.73488 0.20125 0.61176 0.0
O63 O 0.73201 0.17833 0.61532 0.0
O64 O 0.67924 0.1891 0.64009 0.0
C65 C 0.0182 0.43183 0.80884 0.0
O66 O 0.00427 0.43798 0.8266 0.0
O67 O 0.00894 0.48722 0.83116 0.0
Zn68 Zn 0.04101 0.47544 0.82072 0.0
O69 O 0.0554 0.49769 0.7969 0.0
C70 C 0.05187 0.46681 0.86922 0.0
O71 O 0.02898 0.46208 0.86939 0.0
O72 O 0.03627 0.4445 0.80405 0.0
C73 C 0.0696 0.51449 0.802 0.0
O74 O 0.07521 0.51839 0.82437 0.0
C75 C 0.99586 0.50207 0.82028 0.0
O76 O 0.00352 0.51203 0.80053 0.0
O77 O 0.06186 0.47215 0.84963 0.0
C78 C 0.82723 0.80162 0.03951 0.0
O79 O 0.80749 0.81002 0.0302 0.0
O80 O 0.78616 0.79927 0.08825 0.0
Zn81 Zn 0.80904 0.82543 0.07932 0.0
O82 O 0.79087 0.85065 0.06159 0.0
C83 C 0.82451 0.82561 0.12751 0.0
O84 O 0.82117 0.80262 0.12485 0.0
O85 O 0.83358 0.8088 0.05997 0.0
C86 C 0.77536 0.86134 0.07414 0.0
O87 O 0.77378 0.85613 0.09691 0.0
C88 C 0.76629 0.79579 0.07805 0.0
O89 O 0.75924 0.81025 0.06108 0.0
O90 O 0.82214 0.83918 0.10957 0.0
C91 C 0.47814 0.57148 0.30705 0.0
O92 O 0.48312 0.56319 0.32836 0.0
O93 O 0.45951 0.51872 0.3268 0.0
Zn94 Zn 0.43707 0.54335 0.31429 0.0
O95 O 0.41578 0.52775 0.29029 0.0
C96 C 0.39888 0.54669 0.34758 0.0
O97 O 0.38907 0.53201 0.33226 0.0
O98 O 0.45772 0.56747 0.29821 0.0
C99 C 0.4106 0.53712 0.27036 0.0
O100 O 0.41888 0.55835 0.26511 0.0
C101 C 0.47475 0.50868 0.31343 0.0
O102 O 0.47465 0.51318 0.29046 0.0
O103 O 0.41904 0.55569 0.34267 0.0
C104 C 0.44009 0.20087 0.2524 0.0
O105 O 0.44097 0.22416 0.25071 0.0
O106 O 0.3831 0.22984 0.2412 0.0
Zn107 Zn 0.39565 0.21375 0.27082 0.0
O108 O 0.40872 0.23876 0.29299 0.0
C109 C 0.36857 0.19375 0.30956 0.0
O110 O 0.38828 0.19767 0.32147 0.0
O111 O 0.42163 0.1912 0.26124 0.0
C112 C 0.42639 0.23517 0.30664 0.0
O113 O 0.43681 0.21423 0.3067 0.0
C114 C 0.39067 0.25017 0.23476 0.0
O115 O 0.40682 0.26095 0.24776 0.0
O116 O 0.36822 0.19766 0.28726 0.0
C117 C 0.09023 0.14742 0.50311 0.0
O118 O 0.09426 0.1489 0.52611 0.0
O119 O 0.03239 0.0946 0.50501 0.0
Zn120 Zn 0.06189 0.10929 0.51911 0.0
O121 O 0.0518 0.12975 0.54654 0.0
C122 C 0.07795 0.06306 0.53387 0.0
O123 O 0.06082 0.05587 0.51968 0.0
O124 O 0.07762 0.13041 0.49526 0.0
C125 C 0.03735 0.12217 0.56219 0.0
O126 O 0.02842 0.10065 0.5602 0.0
C127 C 0.01328 0.10671 0.50479 0.0
O128 O 0.01357 0.12878 0.51249 0.0
O129 O 0.08352 0.08495 0.53388 0.0
C130 C 0.06279 0.82482 0.8161 0.0
O131 O 0.05426 0.80655 0.80426 0.0
O132 O 0.1117 0.78689 0.79261 0.0
Zn133 Zn 0.09864 0.79101 0.8257 0.0
O134 O 0.07641 0.76385 0.8328 0.0
C135 C 0.12625 0.78172 0.86866 0.0
O136 O 0.10616 0.77357 0.87743 0.0
O137 O 0.08201 0.82235 0.82769 0.0
C138 C 0.0586 0.76574 0.84661 0.0
O139 O 0.05452 0.78611 0.85735 0.0
C140 C 0.10081 0.77549 0.77639 0.0
O141 O 0.07968 0.76657 0.78093 0.0
O142 O 0.1266 0.79028 0.84773 0.0
C143 C 0.4216 0.82868 0.01222 0.0
O144 O 0.43213 0.84006 0.9947 0.0
O145 O 0.47537 0.85844 0.00934 0.0
Zn146 Zn 0.45962 0.84845 0.03996 0.0
O147 O 0.47952 0.82448 0.0574 0.0
C148 C 0.4749 0.88429 0.07023 0.0
O149 O 0.49443 0.87202 0.06633 0.0
O150 O 0.42905 0.83157 0.03335 0.0
C151 C 0.47176 0.81754 0.07749 0.0
O152 O 0.45199 0.82686 0.08585 0.0
C153 C 0.49498 0.85006 0.00182 0.0
O154 O 0.5061 0.83378 0.0144 0.0
O155 O 0.45567 0.87748 0.06051 0.0
C156 C 0.93714 0.31301 0.71144 0.0
O157 O 0.91663 0.30766 0.72136 0.0
O158 O 0.92215 0.2571 0.72783 0.0
Zn159 Zn 0.93182 0.26625 0.6947 0.0
O160 O 0.95605 0.24387 0.68098 0.0
C161 C 0.8867 0.25103 0.67967 0.0
O162 O 0.89049 0.23688 0.69791 0.0
O163 O 0.9466 0.29828 0.69717 0.0
C164 C 0.95143 0.2226 0.67485 0.0
O165 O 0.93 0.21402 0.67842 0.0
C166 C 0.93496 0.25458 0.74629 0.0
O167 O 0.9582 0.25654 0.74474 0.0
O168 O 0.90231 0.2665 0.67428 0.0
C169 C 0.86301 0.6535 0.95611 0.0
O170 O 0.86764 0.63204 0.96417 0.0
O171 O 0.91559 0.62527 0.94984 0.0
Zn172 Zn 0.89723 0.63936 0.92249 0.0
O173 O 0.92052 0.65987 0.90497 0.0
C174 C 0.88378 0.59245 0.90784 0.0
O175 O 0.88225 0.58874 0.9309 0.0
O176 O 0.87135 0.65968 0.93602 0.0
C177 C 0.93682 0.64963 0.89308 0.0
O178 O 0.93715 0.62627 0.89198 0.0
C179 C 0.92375 0.63935 0.96556 0.0
O180 O 0.91992 0.66232 0.96332 0.0
O181 O 0.88685 0.61355 0.90037 0.0
C182 C 0.58171 0.63293 0.1823 0.0
O183 O 0.56788 0.6442 0.16717 0.0
O184 O 0.62253 0.68953 0.20582 0.0
Zn185 Zn 0.61124 0.67379 0.17583 0.0
O186 O 0.58227 0.69143 0.16409 0.0
C187 C 0.6414 0.69831 0.14586 0.0
O188 O 0.62675 0.71481 0.15363 0.0
O189 O 0.60266 0.64066 0.18576 0.0
C190 C 0.57705 0.69458 0.14231 0.0
O191 O 0.59059 0.6852 0.12571 0.0
C192 C 0.61309 0.70806 0.21466 0.0
O193 O 0.59475 0.71788 0.204 0.0
O194 O 0.63834 0.6769 0.15256 0.0
C195 C 0.58196 0.31804 0.45054 0.0
O196 O 0.56488 0.30628 0.43977 0.0
O197 O 0.53768 0.37358 0.4589 0.0
Zn198 Zn 0.55643 0.35813 0.43273 0.0
O199 O 0.53404 0.33666 0.41512 0.0
C200 C 0.56609 0.40482 0.41518 0.0
O201 O 0.56256 0.41046 0.43761 0.0
O202 O 0.58306 0.34049 0.4482 0.0
C203 C 0.51496 0.34632 0.40778 0.0
O204 O 0.51125 0.36896 0.41236 0.0
C205 C 0.53088 0.36193 0.47707 0.0
O206 O 0.53629 0.33924 0.47882 0.0
O207 O 0.56693 0.383 0.40939 0.0
C208 C 0.23285 0.4026 0.13202 0.0
O209 O 0.23035 0.38151 0.14182 0.0
O210 O 0.26368 0.38848 0.18279 0.0
Zn211 Zn 0.27906 0.39933 0.15251 0.0
O212 O 0.30174 0.42558 0.16124 0.0
C213 C 0.31843 0.36991 0.138 0.0
O214 O 0.33041 0.38988 0.13994 0.0
O215 O 0.25319 0.41247 0.13214 0.0
C216 C 0.31335 0.42355 0.18055 0.0
O217 O 0.31098 0.40403 0.19325 0.0
C218 C 0.24867 0.4007 0.1945 0.0
O219 O 0.24241 0.42184 0.18668 0.0
O220 O 0.29588 0.37048 0.13958 0.0
C221 C 0.7663 0.12622 0.85603 0.0
O222 O 0.76271 0.14854 0.85001 0.0
O223 O 0.7872 0.15054 0.80571 0.0
Zn224 Zn 0.80802 0.13631 0.83118 0.0
O225 O 0.83222 0.11582 0.81476 0.0
C226 C 0.82112 0.18346 0.84503 0.0
O227 O 0.80017 0.18866 0.83604 0.0
O228 O 0.78648 0.11691 0.85184 0.0
C229 C 0.84665 0.12672 0.80112 0.0
O230 O 0.84457 0.1499 0.79866 0.0
C231 C 0.77698 0.13614 0.7916 0.0
O232 O 0.78131 0.11325 0.79366 0.0
O233 O 0.82648 0.16173 0.84813 0.0
C234 C 0.11553 0.52715 0.10284 0.0
O235 O 0.12684 0.54752 0.10098 0.0
O236 O 0.08535 0.52768 0.03563 0.0
Zn237 Zn 0.08838 0.54729 0.06526 0.0
O238 O 0.1158 0.56935 0.05898 0.0
C239 C 0.03896 0.5556 0.06243 0.0
O240 O 0.03966 0.53309 0.05613 0.0
O241 O 0.09636 0.52422 0.09126 0.0
C242 C 0.11686 0.57994 0.03902 0.0
O243 O 0.09879 0.57815 0.02428 0.0
C244 C 0.10362 0.51849 0.02596 0.0
O245 O 0.1246 0.52156 0.03582 0.0
O246 O 0.05799 0.56555 0.06946 0.0
C247 C 0.73319 0.89446 0.3423 0.0
O248 O 0.73165 0.91223 0.32717 0.0
O249 O 0.7444 0.8629 0.28119 0.0
Zn250 Zn 0.71622 0.86927 0.30218 0.0
O251 O 0.69944 0.89832 0.28995 0.0
C252 C 0.70017 0.82138 0.30851 0.0
O253 O 0.72057 0.81925 0.31974 0.0
O254 O 0.72703 0.87379 0.33567 0.0
C255 C 0.69244 0.89814 0.26845 0.0
O256 O 0.69598 0.87896 0.25554 0.0
C257 C 0.75814 0.87954 0.27439 0.0
O258 O 0.75424 0.90134 0.28187 0.0
O259 O 0.69428 0.84149 0.30002 0.0
C260 C 0.34344 0.49668 0.57428 0.0
O261 O 0.36259 0.50661 0.56523 0.0
O262 O 0.36138 0.48418 0.51581 0.0
Zn263 Zn 0.35469 0.45979 0.5412 0.0
O264 O 0.33308 0.4348 0.52785 0.0
C265 C 0.40499 0.45415 0.54678 0.0
O266 O 0.40505 0.47595 0.5383 0.0
O267 O 0.33761 0.47589 0.5677 0.0
C268 C 0.33832 0.42401 0.50868 0.0
O269 O 0.35836 0.42916 0.49775 0.0
C270 C 0.34629 0.48966 0.49989 0.0
O271 O 0.32541 0.47916 0.49973 0.0
O272 O 0.38521 0.44409 0.55111 0.0
C273 C 0.25066 0.61616 0.66095 0.0
O274 O 0.26514 0.63129 0.67133 0.0
O275 O 0.24139 0.63592 0.71969 0.0
Zn276 Zn 0.21654 0.63479 0.69416 0.0
O277 O 0.18875 0.61731 0.70831 0.0
C278 C 0.18567 0.67182 0.67742 0.0
O279 O 0.17264 0.65359 0.67081 0.0
O280 O 0.22885 0.61595 0.66678 0.0
C281 C 0.17547 0.60368 0.69612 0.0
O282 O 0.17962 0.60105 0.67324 0.0
C283 C 0.24888 0.61658 0.72877 0.0
O284 O 0.24089 0.59626 0.7204 0.0
O285 O 0.20623 0.66805 0.68603 0.0
C286 C 0.65164 0.00135 0.89572 0.0
O287 O 0.62908 0.00406 0.90118 0.0
O288 O 0.62832 0.98864 0.94929 0.0
Zn289 Zn 0.64574 0.96469 0.92914 0.0
O290 O 0.66893 0.94837 0.95105 0.0
C291 C 0.60139 0.94532 0.91148 0.0
O292 O 0.59578 0.96779 0.9083 0.0
O293 O 0.66275 0.98341 0.9039 0.0
C294 C 0.66013 0.94195 0.97092 0.0
O295 O 0.63733 0.94536 0.97485 0.0
C296 C 0.64063 0.00191 0.96282 0.0
O297 O 0.66391 -0.00026 0.96283 0.0
O298 O 0.62239 0.94006 0.91799 0.0
C299 C 0.80322 0.95326 0.49036 0.0
O300 O 0.80441 0.94427 0.51192 0.0
O301 O 0.83127 0.97826 0.54074 0.0
Zn302 Zn 0.82001 0.99665 0.51238 0.0
O303 O 0.79198 0.01653 0.52178 0.0
C304 C 0.8564 0.03327 0.51156 0.0
O305 O 0.84645 0.03999 0.53164 0.0
O306 O 0.80938 0.97471 0.48681 0.0
C307 C 0.78715 0.03667 0.51273 0.0
O308 O 0.80151 0.04594 0.49676 0.0
C309 C 0.85204 0.96938 0.54024 0.0
O310 O 0.86503 0.97182 0.52092 0.0
O311 O 0.84746 0.01601 0.50003 0.0
H312 H 0.11864 0.18534 0.51408 0.0
H313 H 0.07963 0.1529 0.45579 0.0
H314 H 0.09164 0.18595 0.42939 0.0
H315 H 0.10587 0.2472 0.49859 0.0
H316 H 0.13513 0.2573 0.50697 0.0
H317 H 0.12204 0.23203 0.5218 0.0
H318 H 0.15872 0.20622 0.5108 0.0
H319 H 0.172 0.23146 0.49628 0.0
H320 H 0.16781 0.2041 0.48008 0.0
H321 H 0.10927 0.22152 0.40899 0.0
H322 H 0.13453 0.25464 0.39506 0.0
H323 H 0.162 0.26353 0.46678 0.0
C324 C 0.1125 0.18522 0.4958 0.0
C325 C 0.09816 0.16658 0.487 0.0
C326 C 0.09066 0.16699 0.46291 0.0
C327 C 0.09722 0.18578 0.44784 0.0
C328 C 0.1112 0.20398 0.45716 0.0
C329 C 0.1189 0.20376 0.48054 0.0
C330 C 0.13505 0.22462 0.48577 0.0
C331 C 0.12384 0.24127 0.50438 0.0
C332 C 0.15986 0.21608 0.49368 0.0
C333 C 0.13581 0.23623 0.46149 0.0
C334 C 0.12158 0.22435 0.44534 0.0
C335 C 0.12034 0.2311 0.4215 0.0
C336 C 0.1347 0.24999 0.41378 0.0
C337 C 0.15026 0.26163 0.42984 0.0
C338 C 0.15019 0.25508 0.45411 0.0
H339 H 0.99425 0.92228 0.74291 0.0
H340 H 0.03082 0.97562 0.78512 0.0
H341 H 0.04508 0.9441 0.81236 0.0
H342 H 0.97807 0.88193 0.79333 0.0
H343 H 0.98312 0.85585 0.77535 0.0
H344 H 0.97268 0.88296 0.7617 0.0
H345 H 0.00836 0.882 0.7324 0.0
H346 H 0.01891 0.85502 0.74594 0.0
H347 H 0.03821 0.88057 0.74408 0.0
H348 H 0.06011 0.90641 0.83107 0.0
H349 H 0.07445 0.86579 0.83988 0.0
H350 H 0.02727 0.83754 0.78566 0.0
C351 C 0.00483 0.92744 0.75817 0.0
C352 C 0.01149 0.95136 0.76191 0.0
C353 C 0.02546 0.95738 0.78199 0.0
C354 C 0.03355 0.93962 0.79759 0.0
C355 C 0.02718 0.91608 0.79299 0.0
C356 C 0.01292 0.91003 0.77389 0.0
C357 C 0.0104 0.88337 0.77144 0.0
C358 C 0.98452 0.87557 0.77572 0.0
C359 C 0.01953 0.87475 0.74703 0.0
C360 C 0.02642 0.87528 0.79145 0.0
C361 C 0.03564 0.89437 0.80394 0.0
C362 C 0.05262 0.89131 0.82176 0.0
C363 C 0.06072 0.86819 0.82658 0.0
C364 C 0.05189 0.84853 0.8135 0.0
C365 C 0.03408 0.85216 0.7962 0.0
H366 H 0.35572 0.73633 0.9281 0.0
H367 H 0.34177 0.69348 0.99099 0.0
H368 H 0.36146 0.72385 0.01593 0.0
H369 H 0.41381 0.75778 0.9465 0.0
H370 H 0.40919 0.78676 0.9335 0.0
H371 H 0.39483 0.76109 0.92083 0.0
H372 H 0.35397 0.78206 0.92543 0.0
H373 H 0.36816 0.8076 0.93859 0.0
H374 H 0.3447 0.79241 0.95438 0.0
H375 H 0.3807 0.7599 0.03411 0.0
H376 H 0.40268 0.79663 0.04378 0.0
H377 H 0.40398 0.81555 0.96875 0.0
C378 C 0.35706 0.73314 0.94708 0.0
C379 C 0.34719 0.71257 0.95762 0.0
C380 C 0.34932 0.70907 0.98252 0.0
C381 C 0.3603 0.72629 0.99685 0.0
C382 C 0.36912 0.74675 0.98594 0.0
C383 C 0.36797 0.75005 0.96158 0.0
C384 C 0.3789 0.77352 0.95422 0.0
C385 C 0.40047 0.76954 0.9378 0.0
C386 C 0.36032 0.78985 0.94247 0.0
C387 C 0.38637 0.78296 0.97827 0.0
C388 C 0.38039 0.76737 0.99636 0.0
C389 C 0.38557 0.77221 0.0201 0.0
C390 C 0.39793 0.7932 0.02541 0.0
C391 C 0.40509 0.80894 0.007 0.0
C392 C 0.39871 0.80393 0.98322 0.0
H393 H 0.50783 0.08138 0.21734 0.0
H394 H 0.56023 0.12573 0.18178 0.0
H395 H 0.53983 0.16168 0.19665 0.0
H396 H 0.45838 0.11726 0.20352 0.0
H397 H 0.44324 0.11238 0.23142 0.0
H398 H 0.46318 0.09009 0.21995 0.0
H399 H 0.4874 0.09131 0.25921 0.0
H400 H 0.46747 0.1136 0.27084 0.0
H401 H 0.49901 0.11931 0.2697 0.0
H402 H 0.51291 0.19257 0.21354 0.0
H403 H 0.48038 0.2167 0.23036 0.0
H404 H 0.44482 0.15224 0.25408 0.0
C405 C 0.51524 0.09865 0.21301 0.0
C406 C 0.53568 0.10082 0.19855 0.0
C407 C 0.54459 0.1237 0.19288 0.0
C408 C 0.53319 0.1442 0.2013 0.0
C409 C 0.5129 0.14145 0.21528 0.0
C410 C 0.50395 0.11929 0.22107 0.0
C411 C 0.48102 0.12131 0.23509 0.0
C412 C 0.46023 0.10957 0.22169 0.0
C413 C 0.48391 0.11076 0.2602 0.0
C414 C 0.47831 0.14808 0.23595 0.0
C415 C 0.49704 0.15934 0.22464 0.0
C416 C 0.49821 0.18399 0.22257 0.0
C417 C 0.47962 0.19752 0.23217 0.0
C418 C 0.46006 0.18634 0.24351 0.0
C419 C 0.45956 0.1613 0.24557 0.0
H420 H 0.62044 0.21073 0.5347 0.0
H421 H 0.65562 0.26309 0.57939 0.0
H422 H 0.64357 0.29484 0.55161 0.0
H423 H 0.63622 0.23582 0.47922 0.0
H424 H 0.60817 0.2296 0.46496 0.0
H425 H 0.6185 0.21084 0.48883 0.0
H426 H 0.5795 0.21838 0.51234 0.0
H427 H 0.56884 0.23676 0.48832 0.0
H428 H 0.57018 0.24853 0.51814 0.0
H429 H 0.63024 0.32039 0.51785 0.0
H430 H 0.61142 0.33921 0.48297 0.0
H431 H 0.58414 0.27039 0.46069 0.0
C432 C 0.62532 0.22891 0.53884 0.0
C433 C 0.63904 0.23441 0.55916 0.0
C434 C 0.64507 0.25843 0.56395 0.0
C435 C 0.63845 0.27659 0.54821 0.0
C436 C 0.62565 0.27043 0.52793 0.0
C437 C 0.61874 0.24727 0.52342 0.0
C438 C 0.60485 0.24551 0.5004 0.0
C439 C 0.61772 0.22949 0.48229 0.0
C440 C 0.57933 0.23679 0.50509 0.0
C441 C 0.60521 0.27129 0.49262 0.0
C442 C 0.6175 0.28531 0.50865 0.0
C443 C 0.62042 0.30966 0.50524 0.0
C444 C 0.6098 0.32014 0.48527 0.0
C445 C 0.59626 0.30627 0.46914 0.0
C446 C 0.59438 0.28146 0.47269 0.0
H447 H 0.92741 0.34084 0.7501 0.0
H448 H 0.97946 0.32968 0.69399 0.0
H449 H 0.0062 0.3588 0.71311 0.0
H450 H 0.93849 0.40461 0.75856 0.0
H451 H 0.93442 0.40265 0.79035 0.0
H452 H 0.91871 0.38257 0.77093 0.0
H453 H 0.93629 0.34679 0.79421 0.0
H454 H 0.95246 0.36672 0.81337 0.0
H455 H 0.96812 0.34395 0.79707 0.0
H456 H 0.02827 0.38695 0.73972 0.0
H457 H 0.04282 0.41493 0.77029 0.0
H458 H 0.9765 0.40676 0.80926 0.0
C459 C 0.94418 0.3449 0.7415 0.0
C460 C 0.95135 0.33307 0.72053 0.0
C461 C 0.97361 0.33862 0.71004 0.0
C462 C 0.98894 0.35505 0.7208 0.0
C463 C 0.9817 0.36572 0.74197 0.0
C464 C 0.95974 0.3611 0.75206 0.0
C465 C 0.95656 0.37429 0.77531 0.0
C466 C 0.93582 0.39209 0.77368 0.0
C467 C 0.95316 0.35689 0.79622 0.0
C468 C 0.98026 0.3869 0.77682 0.0
C469 C 0.99451 0.38173 0.75743 0.0
C470 C 0.01724 0.39126 0.75493 0.0
C471 C 0.02538 0.40702 0.77244 0.0
C472 C 0.01079 0.41301 0.79214 0.0
C473 C 0.98812 0.40246 0.79448 0.0
H474 H 0.82441 0.78461 0.99387 0.0
H475 H 0.852 0.76795 0.06417 0.0
H476 H 0.86189 0.72742 0.05073 0.0
H477 H 0.79808 0.72927 0.9817 0.0
H478 H 0.80657 0.72818 0.95075 0.0
H479 H 0.80247 0.75648 0.96523 0.0
H480 H 0.84524 0.7693 0.95358 0.0
H481 H 0.84924 0.74129 0.9385 0.0
H482 H 0.86998 0.75035 0.96123 0.0
H483 H 0.86485 0.68777 0.0312 0.0
H484 H 0.86896 0.65349 0.00416 0.0
H485 H 0.84214 0.69633 0.94565 0.0
C486 C 0.83298 0.77257 0.00626 0.0
C487 C 0.83741 0.77939 0.03004 0.0
C488 C 0.84863 0.76317 0.0458 0.0
C489 C 0.85408 0.74003 0.03842 0.0
C490 C 0.84861 0.73356 0.01515 0.0
C491 C 0.839 0.74951 -0.00094 0.0
C492 C 0.8355 0.7381 0.97489 0.0
C493 C 0.80908 0.73801 0.96774 0.0
C494 C 0.85092 0.75049 0.95593 0.0
C495 C 0.84432 0.71317 0.98005 0.0
C496 C 0.8514 0.71086 0.0035 0.0
C497 C 0.85961 0.68938 0.01272 0.0
C498 C 0.8616 0.66994 0.99728 0.0
C499 C 0.85579 0.6723 0.97286 0.0
C500 C 0.84662 0.69407 0.96427 0.0
H501 H 0.53474 0.62103 0.1871 0.0
H502 H 0.60426 0.61012 0.21909 0.0
H503 H 0.58514 0.59245 0.25445 0.0
H504 H 0.50632 0.63984 0.2377 0.0
H505 H 0.4783 0.6253 0.23208 0.0
H506 H 0.49716 0.63366 0.20756 0.0
H507 H 0.49771 0.59017 0.19223 0.0
H508 H 0.47824 0.58175 0.21632 0.0
H509 H 0.50616 0.56648 0.21219 0.0
H510 H 0.5584 0.58133 0.28842 0.0
H511 H 0.52592 0.57185 0.31646 0.0
H512 H 0.47399 0.59014 0.26217 0.0
C513 C 0.54603 0.61421 0.20115 0.0
C514 C 0.571 0.61702 0.20032 0.0
C515 C 0.58509 0.60812 0.21928 0.0
C516 C 0.57439 0.59816 0.23951 0.0
C517 C 0.54966 0.59699 0.24035 0.0
C518 C 0.53566 0.60426 0.22146 0.0
C519 C 0.50945 0.6023 0.22736 0.0
C520 C 0.4971 0.62673 0.2261 0.0
C521 C 0.49717 0.58408 0.21106 0.0
C522 C 0.51092 0.59338 0.25273 0.0
C523 C 0.53424 0.59044 0.2599 0.0
C524 C 0.54005 0.58322 0.28291 0.0
C525 C 0.52147 0.57812 0.29877 0.0
C526 C 0.49742 0.58023 0.29149 0.0
C527 C 0.49218 0.58831 0.26826 0.0
H528 H 0.23133 0.45044 0.12391 0.0
H529 H 0.18644 0.38772 0.12849 0.0
H530 H 0.15073 0.4132 0.12431 0.0
H531 H 0.19421 0.48817 0.1585 0.0
H532 H 0.20031 0.5144 0.14101 0.0
H533 H 0.22229 0.49116 0.14323 0.0
H534 H 0.22367 0.4874 0.0972 0.0
H535 H 0.20214 0.51099 0.09484 0.0
H536 H 0.1964 0.48264 0.08098 0.0
H537 H 0.12002 0.44595 0.1195 0.0
H538 H 0.09714 0.48281 0.11193 0.0
H539 H 0.16276 0.52354 0.11309 0.0
C540 C 0.21405 0.44193 0.12367 0.0
C541 C 0.21166 0.41706 0.12635 0.0
C542 C 0.18866 0.40674 0.12631 0.0
C543 C 0.1683 0.42107 0.12411 0.0
C544 C 0.17132 0.44563 0.12221 0.0
C545 C 0.19365 0.45591 0.12185 0.0
C546 C 0.19223 0.48269 0.11986 0.0
C547 C 0.20289 0.49481 0.14197 0.0
C548 C 0.20432 0.49143 0.09685 0.0
C549 C 0.16557 0.48592 0.11887 0.0
C550 C 0.15376 0.46439 0.1203 0.0
C551 C 0.12907 0.46292 0.11854 0.0
C552 C 0.11622 0.48395 0.11436 0.0
C553 C 0.12814 0.50606 0.11211 0.0
C554 C 0.15305 0.50702 0.11514 0.0
H555 H 0.69989 0.00506 0.88854 0.0
H556 H 0.63336 0.04356 0.88008 0.0
H557 H 0.65567 0.07977 0.86948 0.0
H558 H 0.73185 0.05096 0.91558 0.0
H559 H 0.75968 0.04496 0.90076 0.0
H560 H 0.73872 0.02123 0.90564 0.0
H561 H 0.73818 0.01176 0.86048 0.0
H562 H 0.75956 0.03513 0.8555 0.0
H563 H 0.73177 0.0352 0.83949 0.0
H564 H 0.68492 0.11258 0.86367 0.0
H565 H 0.71943 0.13893 0.85759 0.0
H566 H 0.76705 0.07908 0.86909 0.0
C567 C 0.68998 0.02094 0.88391 0.0
C568 C 0.66487 0.02148 0.88519 0.0
C569 C 0.65259 0.04269 0.87922 0.0
C570 C 0.6651 0.0634 0.87327 0.0
C571 C 0.68985 0.06252 0.87316 0.0
C572 C 0.70218 0.04177 0.87785 0.0
C573 C 0.72881 0.04582 0.87697 0.0
C574 C 0.74044 0.04042 0.90118 0.0
C575 C 0.74025 0.03111 0.85691 0.0
C576 C 0.72947 0.07218 0.87143 0.0
C577 C 0.70679 0.08146 0.86942 0.0
C578 C 0.70278 0.1055 0.86493 0.0
C579 C 0.72252 0.12035 0.86169 0.0
C580 C 0.74595 0.11106 0.86281 0.0
C581 C 0.74938 0.08671 0.86811 0.0
H582 H 0.75193 0.9355 0.3601 0.0
H583 H 0.73644 0.86208 0.37875 0.0
H584 H 0.75347 0.8687 0.41879 0.0
H585 H 0.80781 0.93913 0.39043 0.0
H586 H 0.80332 0.9695 0.39976 0.0
H587 H 0.78975 0.95891 0.37273 0.0
H588 H 0.74824 0.97177 0.38834 0.0
H589 H 0.7617 0.9825 0.41536 0.0
H590 H 0.73803 0.96091 0.41679 0.0
H591 H 0.77188 0.88375 0.45703 0.0
H592 H 0.79005 0.90615 0.49034 0.0
H593 H 0.79376 0.96907 0.44549 0.0
C594 C 0.75203 0.92079 0.37258 0.0
C595 C 0.74284 0.89831 0.36637 0.0
C596 C 0.74341 0.8795 0.38319 0.0
C597 C 0.75305 0.88306 0.40594 0.0
C598 C 0.76208 0.90547 0.41144 0.0
C599 C 0.76165 0.92399 0.39522 0.0
C600 C 0.77246 0.94636 0.40541 0.0
C601 C 0.79466 0.9539 0.39124 0.0
C602 C 0.754 0.96657 0.40655 0.0
C603 C 0.77897 0.93758 0.42997 0.0
C604 C 0.77287 0.91398 0.43319 0.0
C605 C 0.77682 0.90223 0.4547 0.0
C606 C 0.78713 0.91506 0.47349 0.0
C607 C 0.79336 0.9393 0.47048 0.0
C608 C 0.78934 0.95052 0.44835 0.0
H609 H 0.29584 0.61166 0.64276 0.0
H610 H 0.22704 0.5765 0.64591 0.0
H611 H 0.24388 0.54173 0.62527 0.0
H612 H 0.3118 0.58971 0.58364 0.0
H613 H 0.34284 0.58645 0.59108 0.0
H614 H 0.32515 0.6089 0.60562 0.0
H615 H 0.3371 0.59148 0.64667 0.0
H616 H 0.35451 0.56874 0.63225 0.0
H617 H 0.3314 0.56052 0.65296 0.0
H618 H 0.26841 0.50991 0.6069 0.0
H619 H 0.29807 0.48466 0.58683 0.0
H620 H 0.35076 0.54079 0.59403 0.0
C621 C 0.28426 0.59677 0.63885 0.0
C622 C 0.26016 0.59678 0.646 0.0
C623 C 0.24555 0.57695 0.64054 0.0
C624 C 0.25497 0.55704 0.62895 0.0
C625 C 0.27892 0.55735 0.62271 0.0
C626 C 0.2933 0.57681 0.62705 0.0
C627 C 0.31839 0.57258 0.61814 0.0
C628 C 0.32492 0.59047 0.59845 0.0
C629 C 0.33641 0.57338 0.63874 0.0
C630 C 0.31586 0.54762 0.60833 0.0
C631 C 0.29299 0.53912 0.61139 0.0
C632 C 0.28634 0.5164 0.60419 0.0
C633 C 0.30338 0.50215 0.59293 0.0
C634 C 0.32671 0.5108 0.58878 0.0
C635 C 0.33306 0.53372 0.5969 0.0
H636 H 0.34101 0.40233 0.46499 0.0
H637 H 0.29702 0.40741 0.52842 0.0
H638 H 0.2676 0.38049 0.51012 0.0
H639 H 0.29369 0.40315 0.42341 0.0
H640 H 0.30727 0.38225 0.4032 0.0
H641 H 0.32565 0.40074 0.4218 0.0
H642 H 0.34641 0.36324 0.43889 0.0
H643 H 0.32815 0.34461 0.42026 0.0
H644 H 0.32866 0.33994 0.45202 0.0
H645 H 0.24219 0.35455 0.48442 0.0
H646 H 0.22251 0.33104 0.45301 0.0
H647 H 0.28296 0.34299 0.40624 0.0
C648 C 0.32533 0.39758 0.47515 0.0
C649 C 0.32134 0.40693 0.49816 0.0
C650 C 0.30047 0.40045 0.51077 0.0
C651 C 0.28366 0.38515 0.50055 0.0
C652 C 0.28801 0.37647 0.47774 0.0
C653 C 0.30833 0.38238 0.4652 0.0
C654 C 0.3083 0.37127 0.44064 0.0
C655 C 0.30875 0.39051 0.42112 0.0
C656 C 0.32911 0.35372 0.4378 0.0
C657 C 0.28464 0.35841 0.44125 0.0
C658 C 0.27328 0.36156 0.46285 0.0
C659 C 0.25096 0.35184 0.46747 0.0
C660 C 0.23991 0.33856 0.44949 0.0
C661 C 0.2512 0.33517 0.42717 0.0
C662 C 0.27391 0.34518 0.42313 0.0
H663 H 0.91959 0.01279 0.75861 0.0
H664 H 0.96473 0.06035 0.71762 0.0
H665 H 0.94166 0.09478 0.73243 0.0
H666 H 0.86523 0.04366 0.74848 0.0
H667 H 0.85366 0.03821 0.77793 0.0
H668 H 0.87421 0.01746 0.76472 0.0
H669 H 0.90226 0.02184 0.80109 0.0
H670 H 0.88175 0.04254 0.81446 0.0
H671 H 0.91234 0.05103 0.80979 0.0
H672 H 0.91296 0.12383 0.75099 0.0
H673 H 0.8812 0.14546 0.77232 0.0
H674 H 0.85499 0.0786 0.801 0.0
C675 C 0.92477 0.03043 0.75284 0.0
C676 C 0.94399 0.03389 0.73698 0.0
C677 C 0.95009 0.05729 0.7298 0.0
C678 C 0.93709 0.07694 0.7381 0.0
C679 C 0.91811 0.07285 0.75357 0.0
C680 C 0.91202 0.05018 0.76091 0.0
C681 C 0.89064 0.05052 0.77732 0.0
C682 C 0.8697 0.03665 0.76645 0.0
C683 C 0.89715 0.04092 0.80213 0.0
C684 C 0.88559 0.07695 0.77802 0.0
C685 C 0.90162 0.08953 0.76422 0.0
C686 C 0.90035 0.11417 0.76191 0.0
C687 C 0.88222 0.12628 0.77407 0.0
C688 C 0.86562 0.11372 0.78835 0.0
C689 C 0.86742 0.08872 0.79029 0.0
H690 H 0.20787 0.62983 0.94268 0.0
H691 H 0.26333 0.62378 0.99618 0.0
H692 H 0.23349 0.6101 0.02549 0.0
H693 H 0.16256 0.65195 0.98161 0.0
H694 H 0.13889 0.63573 0.96731 0.0
H695 H 0.16464 0.64467 0.95042 0.0
H696 H 0.17198 0.60087 0.9378 0.0
H697 H 0.14609 0.59185 0.95439 0.0
H698 H 0.17449 0.57818 0.96038 0.0
H699 H 0.1975 0.59728 0.04895 0.0
H700 H 0.15846 0.58401 0.06417 0.0
H701 H 0.12673 0.59913 0.99528 0.0
C702 C 0.21383 0.62544 0.96049 0.0
C703 C 0.23795 0.6278 0.96713 0.0
C704 C 0.24495 0.62203 0.99068 0.0
C705 C 0.22813 0.61436 0.00748 0.0
C706 C 0.20442 0.61262 0.00043 0.0
C707 C 0.19731 0.61787 0.97747 0.0
C708 C 0.17078 0.61445 0.97437 0.0
C709 C 0.1585 0.63811 0.96806 0.0
C710 C 0.16554 0.59519 0.95563 0.0
C711 C 0.1641 0.60623 -0.00086 0.0
C712 C 0.18371 0.60543 0.01396 0.0
C713 C 0.182 0.59788 0.03754 0.0
C714 C 0.15973 0.59046 0.04603 0.0
C715 C 0.13952 0.59058 0.03094 0.0
C716 C 0.14177 0.59897 0.00733 0.0
H717 H 0.62389 0.97166 0.1685 0.0
H718 H 0.62271 0.03159 0.21729 0.0
H719 H 0.64546 0.00802 0.24665 0.0
H720 H 0.61547 0.92679 0.21183 0.0
H721 H 0.63497 0.90559 0.1977 0.0
H722 H 0.61979 0.92759 0.18002 0.0
H723 H 0.66014 0.94211 0.16295 0.0
H724 H 0.67545 0.92003 0.18047 0.0
H725 H 0.68348 0.95098 0.18309 0.0
H726 H 0.66665 0.9772 0.27138 0.0
H727 H 0.68578 0.94181 0.28918 0.0
H728 H 0.673 0.90233 0.22396 0.0
C729 C 0.62862 0.97996 0.18524 0.0
C730 C 0.62155 0.00348 0.19059 0.0
C731 C 0.62799 0.01361 0.21278 0.0
C732 C 0.64088 0.00037 0.22957 0.0
C733 C 0.64725 0.9771 0.22385 0.0
C734 C 0.64146 0.96703 0.20216 0.0
C735 C 0.64987 0.9415 0.2006 0.0
C736 C 0.62876 0.92437 0.19735 0.0
C737 C 0.66834 0.93849 0.18059 0.0
C738 C 0.66113 0.93868 0.2249 0.0
C739 C 0.65947 0.95941 0.23804 0.0
C740 C 0.66818 0.96091 0.26121 0.0
C741 C 0.67895 0.94071 0.27118 0.0
C742 C 0.68091 0.91932 0.25795 0.0
C743 C 0.67187 0.91842 0.23451 0.0
H744 H 0.71416 0.15082 0.55089 0.0
H745 H 0.66271 0.10342 0.58374 0.0
H746 H 0.68308 0.06895 0.56546 0.0
H747 H 0.72277 0.11578 0.49498 0.0
H748 H 0.75406 0.12283 0.49413 0.0
H749 H 0.73323 0.14375 0.50672 0.0
H750 H 0.75761 0.14428 0.54588 0.0
H751 H 0.77832 0.12322 0.53358 0.0
H752 H 0.76337 0.11668 0.56123 0.0
H753 H 0.7126 0.03974 0.54913 0.0
H754 H 0.74744 0.01793 0.53352 0.0
H755 H 0.7789 0.08457 0.5104 0.0
C756 C 0.70678 0.13324 0.55376 0.0
C757 C 0.68687 0.12975 0.56873 0.0
C758 C 0.67786 0.10649 0.57219 0.0
C759 C 0.68932 0.08682 0.5619 0.0
C760 C 0.70947 0.09084 0.54795 0.0
C761 C 0.71788 0.11352 0.54355 0.0
C762 C 0.74087 0.11303 0.52949 0.0
C763 C 0.73752 0.12452 0.50486 0.0
C764 C 0.76123 0.125 0.54338 0.0
C765 C 0.74462 0.08647 0.52745 0.0
C766 C 0.72624 0.07397 0.53807 0.0
C767 C 0.72682 0.04929 0.5403 0.0
C768 C 0.74673 0.03709 0.53153 0.0
C769 C 0.76572 0.0496 0.52061 0.0
C770 C 0.76442 0.07455 0.51826 0.0
H771 H 0.16621 0.60036 0.74389 0.0
H772 H 0.14077 0.577 0.67474 0.0
H773 H 0.10903 0.5538 0.69443 0.0
H774 H 0.15805 0.5456 0.77331 0.0
H775 H 0.14881 0.55858 0.80117 0.0
H776 H 0.16827 0.57486 0.7816 0.0
H777 H 0.13857 0.61017 0.78122 0.0
H778 H 0.11899 0.59398 0.80083 0.0
H779 H 0.10806 0.60506 0.77275 0.0
H780 H 0.08151 0.53165 0.72157 0.0
H781 H 0.06067 0.5111 0.75426 0.0
H782 H 0.10439 0.54861 0.80579 0.0
C783 C 0.1538 0.59062 0.73285 0.0
C784 C 0.1559 0.59055 0.70776 0.0
C785 C 0.13948 0.57732 0.69398 0.0
C786 C 0.12135 0.56416 0.70499 0.0
C787 C 0.11992 0.56446 0.72976 0.0
C788 C 0.1357 0.57733 0.74353 0.0
C789 C 0.13108 0.57365 0.76985 0.0
C790 C 0.15284 0.5625 0.7822 0.0
C791 C 0.12373 0.59711 0.78186 0.0
C792 C 0.11047 0.55636 0.76874 0.0
C793 C 0.10417 0.55149 0.74545 0.0
C794 C 0.08616 0.53544 0.73988 0.0
C795 C 0.07445 0.52384 0.7586 0.0
C796 C 0.08089 0.52825 0.78261 0.0
C797 C 0.09895 0.54497 0.78766 0.0
H798 H 0.7044 0.92154 0.96658 0.0
H799 H 0.65003 0.94025 0.01828 0.0
H800 H 0.67503 0.92409 0.05052 0.0
H801 H 0.71976 0.86604 0.9933 0.0
H802 H 0.75107 0.86836 0.98668 0.0
H803 H 0.72963 0.88284 0.96777 0.0
H804 H 0.75113 0.92314 0.97414 0.0
H805 H 0.77259 0.90878 0.99318 0.0
H806 H 0.75587 0.93393 0.004 0.0
H807 H 0.70519 0.90542 0.07697 0.0
H808 H 0.73755 0.88271 0.09587 0.0
H809 H 0.77207 0.87471 0.02708 0.0
C810 C 0.69789 0.92239 0.98472 0.0
C811 C 0.67534 0.9322 0.98997 0.0
C812 C 0.66723 0.93273 0.01385 0.0
C813 C 0.68134 0.92373 0.03231 0.0
C814 C 0.70345 0.91413 0.02656 0.0
C815 C 0.71164 0.9132 0.00336 0.0
C816 C 0.7355 0.9007 0.00197 0.0
C817 C 0.73388 0.87814 0.98652 0.0
C818 C 0.75492 0.91766 0.99278 0.0
C819 C 0.7393 0.89458 0.02797 0.0
C820 C 0.72071 0.90277 0.04185 0.0
C821 C 0.71989 0.89895 0.06633 0.0
C822 C 0.7384 0.88605 0.0769 0.0
C823 C 0.75736 0.87693 0.06297 0.0
C824 C 0.75789 0.88155 0.03822 0.0
H825 H 0.33718 0.42588 0.22287 0.0
H826 H 0.32331 0.46582 0.15811 0.0
H827 H 0.34711 0.49933 0.17377 0.0
H828 H 0.3326 0.47476 0.2627 0.0
H829 H 0.35603 0.46448 0.28207 0.0
H830 H 0.33873 0.44336 0.26531 0.0
H831 H 0.37733 0.42618 0.2467 0.0
H832 H 0.39476 0.44717 0.2635 0.0
H833 H 0.39767 0.44587 0.23156 0.0
H834 H 0.3718 0.52883 0.19714 0.0
H835 H 0.39571 0.55176 0.22612 0.0
H836 H 0.3926 0.49222 0.27539 0.0
C837 C 0.33927 0.44158 0.21185 0.0
C838 C 0.32843 0.44323 0.18924 0.0
C839 C 0.33149 0.46416 0.17548 0.0
C840 C 0.34496 0.48328 0.18422 0.0
C841 C 0.3552 0.48114 0.20672 0.0
C842 C 0.35254 0.46079 0.22031 0.0
C843 C 0.36491 0.46308 0.24409 0.0
C844 C 0.34699 0.46132 0.26476 0.0
C845 C 0.38485 0.44448 0.2466 0.0
C846 C 0.37489 0.48795 0.24183 0.0
C847 C 0.36918 0.49809 0.22016 0.0
C848 C 0.37642 0.52106 0.21415 0.0
C849 C 0.38995 0.53392 0.23074 0.0
C850 C 0.39601 0.52379 0.25303 0.0
C851 C 0.38828 0.5005 0.25855 0.0
H852 H 0.51787 0.2996 0.39379 0.0
H853 H 0.47283 0.36231 0.38943 0.0
H854 H 0.44449 0.34016 0.36429 0.0
H855 H 0.50996 0.28074 0.33413 0.0
H856 H 0.5096 0.24942 0.34113 0.0
H857 H 0.52576 0.26978 0.35984 0.0
H858 H 0.50195 0.25519 0.3966 0.0
H859 H 0.48574 0.23473 0.378 0.0
H860 H 0.46988 0.25605 0.39599 0.0
H861 H 0.42204 0.31192 0.33818 0.0
H862 H 0.4067 0.27924 0.3132 0.0
H863 H 0.46624 0.23489 0.3348 0.0
C864 C 0.50195 0.30863 0.38773 0.0
C865 C 0.49756 0.33268 0.39358 0.0
C866 C 0.47657 0.34388 0.38519 0.0
C867 C 0.46035 0.33145 0.37092 0.0
C868 C 0.46533 0.30784 0.36529 0.0
C869 C 0.48556 0.2965 0.37349 0.0
C870 C 0.48702 0.27121 0.36431 0.0
C871 C 0.50941 0.26759 0.34894 0.0
C872 C 0.48608 0.25323 0.38496 0.0
C873 C 0.46461 0.27022 0.34941 0.0
C874 C 0.45231 0.29151 0.35029 0.0
C875 C 0.43142 0.29511 0.33746 0.0
C876 C 0.42288 0.27645 0.3233 0.0
C877 C 0.43524 0.2545 0.32208 0.0
C878 C 0.45631 0.2514 0.33545 0.0
H879 H 0.99579 0.12033 0.58747 0.0
H880 H 0.06158 0.16011 0.58014 0.0
H881 H 0.04805 0.18816 0.61117 0.0
H882 H 0.95894 0.17057 0.59279 0.0
H883 H 0.93867 0.1573 0.61386 0.0
H884 H 0.95461 0.13877 0.59315 0.0
H885 H 0.97158 0.114 0.6282 0.0
H886 H 0.95565 0.13246 0.64906 0.0
H887 H 0.9874 0.12882 0.65185 0.0
H888 H 0.02657 0.21314 0.64085 0.0
H889 H -0.00223 0.23463 0.66605 0.0
H890 H 0.94541 0.17922 0.65333 0.0
C891 C 0.00753 0.13466 0.59278 0.0
C892 C 0.0298 0.13799 0.58166 0.0
C893 C 0.04445 0.15728 0.58855 0.0
C894 C 0.03698 0.17321 0.6062 0.0
C895 C 0.01478 0.16964 0.61664 0.0
C896 C 0.0002 0.15092 0.61014 0.0
C897 C 0.97636 0.15229 0.62264 0.0
C898 C 0.95595 0.1549 0.60453 0.0
C899 C 0.97253 0.1306 0.63891 0.0
C900 C 0.97975 0.17483 0.63698 0.0
C901 C 0.00212 0.18441 0.63344 0.0
C902 C 0.00906 0.20574 0.64395 0.0
C903 C 0.99256 0.21782 0.65821 0.0
C904 C 0.96936 0.20858 0.6617 0.0
C905 C 0.96307 0.18662 0.6512 0.0
H906 H 0.94593 0.69716 0.89883 0.0
H907 H 0.97154 0.63375 0.86279 0.0
H908 H 0.00508 0.65683 0.84615 0.0
H909 H 0.96167 0.7395 0.85249 0.0
H910 H 0.97047 0.76214 0.87344 0.0
H911 H 0.94786 0.74086 0.88145 0.0
H912 H 0.97222 0.72896 0.91881 0.0
H913 H 0.99495 0.7501 0.91086 0.0
H914 H 0.00261 0.71927 0.91535 0.0
H915 H 0.03644 0.68654 0.83448 0.0
H916 H 0.06335 0.72073 0.82852 0.0
H917 H 0.01742 0.76443 0.8728 0.0
C918 C 0.95842 0.68817 0.88721 0.0
C919 C 0.95609 0.66368 0.88202 0.0
C920 C 0.97298 0.65251 0.86698 0.0
C921 C 0.99207 0.66546 0.85743 0.0
C922 C 0.994 0.68951 0.86316 0.0
C923 C 0.97761 0.70076 0.87766 0.0
C924 C 0.98415 0.72657 0.8817 0.0
C925 C 0.96489 0.74325 0.87166 0.0
C926 C 0.98876 0.7315 0.90825 0.0
C927 C 0.00687 0.72806 0.86731 0.0
C928 C 0.01219 0.70653 0.85667 0.0
C929 C 0.03242 0.7035 0.84267 0.0
C930 C 0.04761 0.72303 0.83942 0.0
C931 C 0.04251 0.74526 0.85022 0.0
C932 C 0.02184 0.7477 0.86433 0.0
H933 H 0.56967 0.71719 0.09973 0.0
H934 H 0.54061 0.7092 0.17095 0.0
H935 H 0.50966 0.73898 0.16163 0.0
H936 H 0.56248 0.77951 0.09652 0.0
H937 H 0.55474 0.78005 0.06537 0.0
H938 H 0.57339 0.75664 0.07683 0.0
H939 H 0.54412 0.72495 0.06052 0.0
H940 H 0.52546 0.74828 0.04883 0.0
H941 H 0.51314 0.72636 0.06879 0.0
H942 H 0.483 0.77067 0.14522 0.0
H943 H 0.46231 0.80226 0.12275 0.0
H944 H 0.50958 0.79045 0.06267 0.0
C945 C 0.55653 0.72138 0.11321 0.0
C946 C 0.5574 0.71078 0.136 0.0
C947 C 0.5402 0.71708 0.15334 0.0
C948 C 0.52256 0.73395 0.14822 0.0
C949 C 0.52246 0.7444 0.12573 0.0
C950 C 0.53896 0.73836 0.10848 0.0
C951 C 0.53566 0.7531 0.08615 0.0
C952 C 0.55789 0.76822 0.08092 0.0
C953 C 0.5292 0.73722 0.06481 0.0
C954 C 0.51484 0.76848 0.09361 0.0
C955 C 0.5074 0.76307 0.11644 0.0
C956 C 0.48859 0.77503 0.12729 0.0
C957 C 0.47698 0.79295 0.1144 0.0
C958 C 0.48435 0.79883 0.09099 0.0
C959 C 0.50357 0.78641 0.08055 0.0
H960 H 0.24018 0.30866 0.30119 0.0
H961 H 0.18463 0.35246 0.33229 0.0
H962 H 0.18687 0.37962 0.29757 0.0
H963 H 0.27522 0.35551 0.27862 0.0
H964 H 0.28371 0.33985 0.25193 0.0
H965 H 0.27671 0.32346 0.27857 0.0
H966 H 0.24477 0.29936 0.25557 0.0
H967 H 0.25177 0.31561 0.22881 0.0
H968 H 0.22161 0.31494 0.23975 0.0
H969 H 0.19706 0.40305 0.25999 0.0
H970 H 0.21324 0.41975 0.22248 0.0
H971 H 0.2616 0.35972 0.21697 0.0
C972 C 0.22831 0.32384 0.30069 0.0
C973 C 0.21224 0.32848 0.31944 0.0
C974 C 0.19703 0.34855 0.31805 0.0
C975 C 0.19821 0.36407 0.29844 0.0
C976 C 0.21455 0.35911 0.28041 0.0
C977 C 0.2292 0.33936 0.28135 0.0
C978 C 0.24559 0.33809 0.26008 0.0
C979 C 0.27185 0.33931 0.26777 0.0
C980 C 0.24062 0.31567 0.24517 0.0
C981 C 0.23812 0.36037 0.24706 0.0
C982 C 0.22021 0.37232 0.25896 0.0
C983 C 0.21097 0.39374 0.25045 0.0
C984 C 0.2203 0.40311 0.22919 0.0
C985 C 0.23862 0.391 0.21678 0.0
C986 C 0.2475 0.36936 0.22592 0.0
H987 H 0.89909 0.96511 0.55069 0.0
H988 H 0.8286 0.95248 0.57951 0.0
H989 H 0.84642 0.94109 0.61812 0.0
H990 H 0.93167 0.91844 0.58588 0.0
H991 H 0.95701 0.93774 0.58965 0.0
H992 H 0.93911 0.93981 0.56309 0.0
H993 H 0.93256 0.98479 0.57102 0.0
H994 H 0.95029 0.98284 0.59754 0.0
H995 H 0.9203 0.99415 0.59919 0.0
H996 H 0.87148 0.93641 0.65486 0.0
H997 H 0.9013 0.94122 0.68693 0.0
H998 H 0.95489 0.95857 0.63405 0.0
C999 C 0.88745 0.95913 0.56486 0.0
C1000 C 0.86252 0.95939 0.56211 0.0
C1001 C 0.84779 0.95224 0.58128 0.0
C1002 C 0.85775 0.94562 0.60321 0.0
C1003 C 0.88243 0.94628 0.6056 0.0
C1004 C 0.89708 0.95285 0.58689 0.0
C1005 C 0.92266 0.95537 0.59483 0.0
C1006 C 0.93855 0.93672 0.58264 0.0
C1007 C 0.93197 0.98079 0.59039 0.0
C1008 C 0.91996 0.95021 0.62111 0.0
C1009 C 0.89678 0.94439 0.62693 0.0
C1010 C 0.88977 0.94055 0.65047 0.0
C1011 C 0.9068 0.94332 0.66855 0.0
C1012 C 0.93033 0.9503 0.66292 0.0
C1013 C 0.93703 0.95315 0.63886 0.0
H1014 H 0.26827 0.65563 0.75016 0.0
H1015 H 0.26275 0.57886 0.75656 0.0
H1016 H 0.28268 0.58072 0.7957 0.0
H1017 H 0.32649 0.66215 0.78269 0.0
H1018 H 0.31672 0.68952 0.7963 0.0
H1019 H 0.30631 0.68157 0.76699 0.0
H1020 H 0.26267 0.68559 0.78148 0.0
H1021 H 0.27289 0.69342 0.81072 0.0
H1022 H 0.25293 0.6686 0.80694 0.0
H1023 H 0.29685 0.59172 0.8368 0.0
H1024 H 0.30411 0.61088 0.87576 0.0
H1025 H 0.30091 0.68023 0.84182 0.0
C1026 C 0.27186 0.63912 0.75945 0.0
C1027 C 0.26397 0.61711 0.75031 0.0
C1028 C 0.26874 0.59594 0.76317 0.0
C1029 C 0.28013 0.5968 0.7854 0.0
C1030 C 0.28693 0.61893 0.79431 0.0
C1031 C 0.28321 0.63968 0.78156 0.0
C1032 C 0.28977 0.66141 0.79599 0.0
C1033 C 0.3111 0.67442 0.78482 0.0
C1034 C 0.26829 0.67822 0.79896 0.0
C1035 C 0.29655 0.64976 0.81929 0.0
C1036 C 0.29525 0.62524 0.81791 0.0
C1037 C 0.29846 0.61087 0.83794 0.0
C1038 C 0.30255 0.62191 0.86001 0.0
C1039 C 0.30315 0.64705 0.86182 0.0
C1040 C 0.30083 0.66097 0.84102 0.0
H1041 H 0.62033 0.05436 0.09151 0.0
H1042 H 0.54925 0.07435 0.06878 0.0
H1043 H 0.55977 0.06441 0.02733 0.0
H1044 H 0.65203 0.07482 0.03609 0.0
H1045 H 0.67236 0.05002 0.03743 0.0
H1046 H 0.6605 0.06253 0.06452 0.0
H1047 H 0.64502 0.02085 0.07687 0.0
H1048 H 0.65655 0.00828 0.0498 0.0
H1049 H 0.62549 0.00486 0.05707 0.0
H1050 H 0.57543 0.04542 0.99018 0.0
H1051 H 0.59646 0.02201 0.95935 0.0
H1052 H 0.65783 0.01618 0.00577 0.0
C1053 C 0.6072 0.05735 0.07772 0.0
C1054 C 0.58398 0.06513 0.08339 0.0
C1055 C 0.56721 0.06853 0.06486 0.0
C1056 C 0.57301 0.06293 0.04124 0.0
C1057 C 0.59577 0.05437 0.0364 0.0
C1058 C 0.61276 0.05202 0.05405 0.0
C1059 C 0.63524 0.0406 0.04457 0.0
C1060 C 0.65628 0.05804 0.04572 0.0
C1061 C 0.64088 0.01727 0.05786 0.0
C1062 C 0.62786 0.03592 0.0191 0.0
C1063 C 0.60509 0.04411 0.01467 0.0
C1064 C 0.59351 0.03951 0.9932 0.0
C1065 C 0.6055 0.02611 0.97587 0.0
C1066 C 0.62884 0.01766 0.98012 0.0
C1067 C 0.64023 0.02299 0.00184 0.0
H1068 H 0.70375 0.13003 0.67109 0.0
H1069 H 0.68298 0.20348 0.68311 0.0
H1070 H 0.70157 0.20208 0.72291 0.0
H1071 H 0.69728 0.10924 0.73396 0.0
H1072 H 0.72302 0.09026 0.73139 0.0
H1073 H 0.7047 0.096 0.70568 0.0
H1074 H 0.74192 0.11072 0.68269 0.0
H1075 H 0.76028 0.10551 0.70839 0.0
H1076 H 0.75949 0.13462 0.69489 0.0
H1077 H 0.72778 0.19458 0.75854 0.0
H1078 H 0.75628 0.18026 0.78889 0.0
H1079 H 0.7594 0.1117 0.75345 0.0
C1080 C 0.7024 0.14561 0.68235 0.0
C1081 C 0.69186 0.16685 0.67397 0.0
C1082 C 0.69081 0.18694 0.68918 0.0
C1083 C 0.70139 0.18634 0.71181 0.0
C1084 C 0.71268 0.16545 0.71903 0.0
C1085 C 0.71286 0.14531 0.70491 0.0
C1086 C 0.72773 0.12572 0.71589 0.0
C1087 C 0.71226 0.10402 0.7221 0.0
C1088 C 0.74858 0.11875 0.69949 0.0
C1089 C 0.73645 0.13818 0.73808 0.0
C1090 C 0.72754 0.16106 0.73964 0.0
C1091 C 0.73449 0.17654 0.75774 0.0
C1092 C 0.75081 0.16831 0.77479 0.0
C1093 C 0.75992 0.14483 0.77359 0.0
C1094 C 0.7525 0.12963 0.75503 0.0
H1095 H 0.06277 0.50328 0.00463 0.0
H1096 H 0.13934 0.50652 0.99491 0.0
H1097 H 0.13488 0.48955 0.95454 0.0
H1098 H 0.05332 0.4474 0.97113 0.0
H1099 H 0.02549 0.4578 0.95901 0.0
H1100 H 0.0351 0.46778 0.98795 0.0
H1101 H 0.03129 0.51165 0.9741 0.0
H1102 H 0.02175 0.50185 0.94517 0.0
H1103 H 0.04711 0.5213 0.94786 0.0
H1104 H 0.12144 0.47706 0.91355 0.0
H1105 H 0.10021 0.46846 0.87592 0.0
H1106 H 0.03279 0.4719 0.91351 0.0
C1107 C 0.07866 0.50004 0.99419 0.0
C1108 C 0.10139 0.5062 0.00286 0.0
C1109 C 0.12174 0.50179 0.98863 0.0
C1110 C 0.11939 0.49216 0.9657 0.0
C1111 C 0.09663 0.48672 0.9575 0.0
C1112 C 0.07665 0.49026 0.97145 0.0
C1113 C 0.0541 0.48422 0.95811 0.0
C1114 C 0.04125 0.46304 0.96974 0.0
C1115 C 0.03761 0.50605 0.95619 0.0
C1116 C 0.06442 0.47748 0.93417 0.0
C1117 C 0.08898 0.47891 0.93416 0.0
C1118 C 0.10225 0.47541 0.91347 0.0
C1119 C 0.09006 0.4706 0.89219 0.0
C1120 C 0.0649 0.46925 0.89189 0.0
C1121 C 0.05206 0.47231 0.91327 0.0
H1122 H 0.77007 0.83658 0.25496 0.0
H1123 H 0.78676 0.91193 0.25171 0.0
H1124 H 0.81266 0.90463 0.21697 0.0
H1125 H 0.8297 0.8142 0.23308 0.0
H1126 H 0.81563 0.79067 0.21645 0.0
H1127 H 0.8025 0.80103 0.24387 0.0
H1128 H 0.76285 0.80931 0.22176 0.0
H1129 H 0.77581 0.79904 0.19441 0.0
H1130 H 0.76296 0.82841 0.19594 0.0
H1131 H 0.82999 0.89061 0.17855 0.0
H1132 H 0.83758 0.87087 0.13999 0.0
H1133 H 0.81086 0.80447 0.16895 0.0
C1134 C 0.77975 0.85145 0.24741 0.0
C1135 C 0.77641 0.87481 0.25605 0.0
C1136 C 0.78912 0.89385 0.24546 0.0
C1137 C 0.80396 0.88986 0.22578 0.0
C1138 C 0.8062 0.8667 0.21716 0.0
C1139 C 0.79465 0.84776 0.22784 0.0
C1140 C 0.79768 0.82512 0.21359 0.0
C1141 C 0.81225 0.80667 0.22759 0.0
C1142 C 0.77339 0.8149 0.20597 0.0
C1143 C 0.81156 0.83455 0.19251 0.0
C1144 C 0.81669 0.85848 0.19508 0.0
C1145 C 0.8267 0.87173 0.1766 0.0
C1146 C 0.8309 0.8604 0.15475 0.0
C1147 C 0.82507 0.83609 0.1516 0.0
C1148 C 0.81611 0.8229 0.17102 0.0
H1149 H 0.32798 0.49159 0.45495 0.0
H1150 H 0.38078 0.52386 0.50102 0.0
H1151 H 0.39522 0.54824 0.46736 0.0
H1152 H 0.36523 0.48377 0.4077 0.0
H1153 H 0.34353 0.48951 0.38476 0.0
H1154 H 0.33406 0.4786 0.4133 0.0
H1155 H 0.30564 0.51469 0.41779 0.0
H1156 H 0.31511 0.52577 0.38916 0.0
H1157 H 0.31729 0.54447 0.41515 0.0
H1158 H 0.40739 0.56483 0.42802 0.0
H1159 H 0.41848 0.56985 0.38582 0.0
H1160 H 0.3585 0.52586 0.36503 0.0
C1161 C 0.34204 0.50439 0.45811 0.0
C1162 C 0.35309 0.50611 0.48059 0.0
C1163 C 0.37199 0.52241 0.48392 0.0
C1164 C 0.38019 0.53644 0.46496 0.0
C1165 C 0.3693 0.53391 0.4428 0.0
C1166 C 0.35065 0.51824 0.43928 0.0
C1167 C 0.34429 0.51633 0.41316 0.0
C1168 C 0.34696 0.49054 0.40422 0.0
C1169 C 0.31909 0.52589 0.40855 0.0
C1170 C 0.36296 0.53254 0.40244 0.0
C1171 C 0.3768 0.54301 0.41986 0.0
C1172 C 0.39644 0.55707 0.41422 0.0
C1173 C 0.40259 0.55983 0.39016 0.0
C1174 C 0.38935 0.54825 0.3721 0.0
C1175 C 0.36882 0.53516 0.37838 0.0
H1176 H 0.28011 0.24198 0.40432 0.0
H1177 H 0.22455 0.22705 0.35292 0.0
H1178 H 0.25188 0.20068 0.33097 0.0
H1179 H 0.32337 0.25 0.36482 0.0
H1180 H 0.34736 0.23679 0.38155 0.0
H1181 H 0.32205 0.24877 0.39689 0.0
H1182 H 0.3151 0.20815 0.41766 0.0
H1183 H 0.34057 0.19599 0.40233 0.0
H1184 H 0.31201 0.18159 0.39993 0.0
H1185 H 0.28654 0.18389 0.31003 0.0
H1186 H 0.32597 0.17884 0.29141 0.0
H1187 H 0.35959 0.2041 0.35612 0.0
C1188 C 0.27343 0.23231 0.38904 0.0
C1189 C 0.25022 0.23636 0.3804 0.0
C1190 C 0.24228 0.22408 0.35989 0.0
C1191 C 0.25763 0.20892 0.3474 0.0
C1192 C 0.28081 0.20611 0.35573 0.0
C1193 C 0.28866 0.2173 0.37623 0.0
C1194 C 0.31531 0.21454 0.37921 0.0
C1195 C 0.32773 0.23896 0.38068 0.0
C1196 C 0.32108 0.19914 0.40108 0.0
C1197 C 0.32142 0.2016 0.35635 0.0
C1198 C 0.30119 0.19628 0.34339 0.0
C1199 C 0.30248 0.1873 0.32028 0.0
C1200 C 0.32495 0.18456 0.3098 0.0
C1201 C 0.34581 0.1909 0.3224 0.0
C1202 C 0.34399 0.19852 0.34629 0.0
H1203 H 0.03238 0.98497 0.63677 0.0
H1204 H 0.07819 0.02615 0.6832 0.0
H1205 H 0.10127 0.03959 0.64816 0.0
H1206 H 0.07911 0.97057 0.58941 0.0
H1207 H 0.05714 0.97379 0.56625 0.0
H1208 H 0.04858 0.96249 0.59509 0.0
H1209 H 0.01645 0.99545 0.59851 0.0
H1210 H 0.02482 0.00671 0.56986 0.0
H1211 H 0.02514 0.02619 0.59536 0.0
H1212 H 0.113 0.05547 0.60828 0.0
H1213 H 0.11132 0.07308 0.56811 0.0
H1214 H 0.05837 0.02088 0.54756 0.0
C1215 C 0.04776 0.9962 0.63967 0.0
C1216 C 0.05349 0.00457 0.66266 0.0
C1217 C 0.07359 0.01939 0.66574 0.0
C1218 C 0.08686 0.02702 0.64593 0.0
C1219 C 0.08005 0.01926 0.62331 0.0
C1220 C 0.06111 0.00387 0.62017 0.0
C1221 C 0.05497 0.0009 0.59412 0.0
C1222 C 0.06028 0.97542 0.58573 0.0
C1223 C 0.02883 0.00775 0.5892 0.0
C1224 C 0.07214 0.01847 0.58312 0.0
C1225 C 0.08698 0.02836 0.60012 0.0
C1226 C 0.10196 0.04739 0.59473 0.0
C1227 C 0.10088 0.05731 0.57181 0.0
C1228 C 0.08469 0.04835 0.55468 0.0
C1229 C 0.07122 0.02786 0.5601 0.0
H1230 H 0.21235 0.70839 0.95221 0.0
H1231 H 0.27015 0.73575 0.90897 0.0
H1232 H 0.24274 0.76479 0.89057 0.0
H1233 H 0.17139 0.70791 0.90745 0.0
H1234 H 0.14598 0.71609 0.92527 0.0
H1235 H 0.17083 0.70123 0.93886 0.0
H1236 H 0.175 0.7356 0.96932 0.0
H1237 H 0.15003 0.7506 0.95584 0.0
H1238 H 0.17812 0.76577 0.95882 0.0
H1239 H 0.20876 0.78667 0.87319 0.0
H1240 H 0.17016 0.79832 0.85606 0.0
H1241 H 0.13373 0.75571 0.90935 0.0
C1242 C 0.21933 0.72112 0.9395 0.0
C1243 C 0.24333 0.72021 0.9322 0.0
C1244 C 0.25179 0.7364 0.91486 0.0
C1245 C 0.23641 0.75302 0.90446 0.0
C1246 C 0.21264 0.75307 0.91154 0.0
C1247 C 0.20409 0.73752 0.92863 0.0
C1248 C 0.17723 0.73889 0.93053 0.0
C1249 C 0.1657 0.71459 0.9252 0.0
C1250 C 0.16966 0.74828 0.95509 0.0
C1251 C 0.17196 0.75688 0.91114 0.0
C1252 C 0.19269 0.76526 0.90085 0.0
C1253 C 0.19241 0.78057 0.88135 0.0
C1254 C 0.17037 0.78701 0.8717 0.0
C1255 C 0.14893 0.77793 0.88138 0.0
C1256 C 0.14979 0.7632 0.90176 0.0
H1257 H 0.54251 0.98424 0.14209 0.0
H1258 H 0.48061 0.02963 0.13317 0.0
H1259 H 0.45838 0.99562 0.11614 0.0
H1260 H 0.53768 0.9554 0.08822 0.0
H1261 H 0.54771 0.92687 0.09896 0.0
H1262 H 0.55733 0.95366 0.11354 0.0
H1263 H 0.54109 0.93793 0.15381 0.0
H1264 H 0.53151 0.91095 0.13938 0.0
H1265 H 0.51047 0.92861 0.15597 0.0
H1266 H 0.44445 0.95732 0.09637 0.0
H1267 H 0.44046 0.91879 0.07532 0.0
H1268 H 0.5121 0.89977 0.09702 0.0
C1269 C 0.52411 0.987 0.13707 0.0
C1270 C 0.51327 0.00958 0.13904 0.0
C1271 C 0.48925 0.01244 0.13193 0.0
C1272 C 0.47648 0.99322 0.12228 0.0
C1273 C 0.48798 0.97132 0.12002 0.0
C1274 C 0.51125 0.96816 0.12735 0.0
C1275 C 0.52037 0.94362 0.12127 0.0
C1276 C 0.54204 0.94499 0.1045 0.0
C1277 C 0.52619 0.92944 0.14396 0.0
C1278 C 0.49884 0.93359 0.10873 0.0
C1279 C 0.48017 0.94962 0.10844 0.0
C1280 C 0.45886 0.94454 0.09676 0.0
C1281 C 0.45676 0.92264 0.08485 0.0
C1282 C 0.47597 0.90632 0.08453 0.0
C1283 C 0.49706 0.91183 0.09697 0.0
H1284 H 0.77126 0.1824 0.63737 0.0
H1285 H 0.75027 0.2457 0.59836 0.0
H1286 H 0.78825 0.26508 0.60957 0.0
H1287 H 0.79599 0.21261 0.68598 0.0
H1288 H 0.81965 0.19145 0.69066 0.0
H1289 H 0.79208 0.18192 0.67749 0.0
H1290 H 0.81497 0.16545 0.64091 0.0
H1291 H 0.84267 0.1748 0.65403 0.0
H1292 H 0.83472 0.18478 0.62458 0.0
H1293 H 0.82842 0.27772 0.62641 0.0
H1294 H 0.86599 0.28312 0.64896 0.0
H1295 H 0.85843 0.21198 0.67813 0.0
C1296 C 0.7748 0.20018 0.63078 0.0
C1297 C 0.75801 0.21249 0.6168 0.0
C1298 C 0.76304 0.23594 0.60901 0.0
C1299 C 0.78454 0.24704 0.61524 0.0
C1300 C 0.80061 0.23446 0.62938 0.0
C1301 C 0.79588 0.21157 0.6371 0.0
C1302 C 0.81512 0.20238 0.65344 0.0
C1303 C 0.8051 0.19677 0.67836 0.0
C1304 C 0.82761 0.18057 0.64258 0.0
C1305 C 0.83138 0.22374 0.65392 0.0
C1306 C 0.82298 0.242 0.63973 0.0
C1307 C 0.83518 0.26352 0.63756 0.0
C1308 C 0.85645 0.26643 0.65037 0.0
C1309 C 0.86496 0.24803 0.66536 0.0
C1310 C 0.85226 0.22645 0.66697 0.0
H1311 H 0.97012 0.54258 0.81202 0.0
H1312 H 0.97 0.47702 0.85285 0.0
H1313 H 0.93393 0.49022 0.87408 0.0
H1314 H 0.95781 0.57883 0.85848 0.0
H1315 H 0.93931 0.59957 0.84245 0.0
H1316 H 0.96145 0.5827 0.8268 0.0
H1317 H 0.92888 0.56662 0.79826 0.0
H1318 H 0.90656 0.58338 0.81414 0.0
H1319 H 0.90317 0.5517 0.81038 0.0
H1320 H 0.90314 0.51308 0.89579 0.0
H1321 H 0.88195 0.54469 0.91767 0.0
H1322 H 0.90129 0.59535 0.86259 0.0
C1323 C 0.96198 0.53068 0.82483 0.0
C1324 C 0.9727 0.50876 0.8307 0.0
C1325 C 0.96201 0.49391 0.84807 0.0
C1326 C 0.94139 0.50115 0.86007 0.0
C1327 C 0.93161 0.52323 0.85442 0.0
C1328 C 0.94152 0.53777 0.83716 0.0
C1329 C 0.92982 0.56204 0.83696 0.0
C1330 C 0.94818 0.58193 0.84146 0.0
C1331 C 0.9163 0.56616 0.81354 0.0
C1332 C 0.91278 0.55931 0.85769 0.0
C1333 C 0.91363 0.5366 0.86714 0.0
C1334 C 0.90183 0.53075 0.88822 0.0
C1335 C 0.88982 0.54883 0.90055 0.0
C1336 C 0.88991 0.57248 0.89184 0.0
C1337 C 0.9005 0.57738 0.86952 0.0
H1338 H 0.64463 0.73633 0.11629 0.0
H1339 H 0.68528 0.67709 0.14451 0.0
H1340 H 0.72192 0.69385 0.12659 0.0
H1341 H 0.67958 0.74285 0.05968 0.0
H1342 H 0.67658 0.77479 0.06034 0.0
H1343 H 0.65338 0.75624 0.0725 0.0
H1344 H 0.65661 0.77872 0.11265 0.0
H1345 H 0.67999 0.79707 0.10081 0.0
H1346 H 0.68495 0.78014 0.12763 0.0
H1347 H 0.75463 0.72084 0.11193 0.0
H1348 H 0.7804 0.75349 0.09741 0.0
H1349 H 0.71788 0.79367 0.07659 0.0
C1350 C 0.66115 0.72656 0.11813 0.0
C1351 C 0.66226 0.70547 0.13172 0.0
C1352 C 0.68411 0.69317 0.13392 0.0
C1353 C 0.70498 0.7026 0.12388 0.0
C1354 C 0.70344 0.72397 0.1113 0.0
C1355 C 0.68196 0.73549 0.1079 0.0
C1356 C 0.68518 0.75884 0.09486 0.0
C1357 C 0.67296 0.75812 0.07039 0.0
C1358 C 0.67615 0.77992 0.1099 0.0
C1359 C 0.71195 0.75924 0.09238 0.0
C1360 C 0.72219 0.73897 0.10193 0.0
C1361 C 0.7468 0.73648 0.10384 0.0
C1362 C 0.76127 0.75515 0.09573 0.0
C1363 C 0.75105 0.77587 0.08566 0.0
C1364 C 0.72612 0.77775 0.08371 0.0
H1365 H 0.48609 0.50491 0.36047 0.0
H1366 H 0.50574 0.47868 0.29048 0.0
H1367 H 0.53647 0.45302 0.30888 0.0
H1368 H 0.54668 0.50466 0.38591 0.0
H1369 H 0.53608 0.49537 0.41476 0.0
H1370 H 0.51741 0.51333 0.39581 0.0
H1371 H 0.48393 0.48163 0.3984 0.0
H1372 H 0.50236 0.46383 0.41755 0.0
H1373 H 0.49049 0.45121 0.39054 0.0
H1374 H 0.56132 0.42679 0.33544 0.0
H1375 H 0.57746 0.40171 0.36783 0.0
H1376 H 0.54298 0.44706 0.41997 0.0
C1377 C 0.49699 0.49394 0.34895 0.0
C1378 C 0.49349 0.49366 0.32406 0.0
C1379 C 0.50816 0.47913 0.30961 0.0
C1380 C 0.52572 0.46462 0.31988 0.0
C1381 C 0.52861 0.46524 0.34455 0.0
C1382 C 0.51471 0.47965 0.35885 0.0
C1383 C 0.52019 0.476 0.38494 0.0
C1384 C 0.53072 0.49869 0.396 0.0
C1385 C 0.49793 0.46766 0.39865 0.0
C1386 C 0.53867 0.45653 0.3832 0.0
C1387 C 0.54353 0.45072 0.35976 0.0
C1388 C 0.55809 0.43152 0.35384 0.0
C1389 C 0.5672 0.41741 0.37233 0.0
C1390 C 0.56171 0.42264 0.39639 0.0
C1391 C 0.54804 0.44299 0.40181 0.0
H1392 H 0.4034 0.2934 0.21647 0.0
H1393 H 0.35461 0.23452 0.20576 0.0
H1394 H 0.33519 0.25671 0.17315 0.0
H1395 H 0.36249 0.33764 0.21081 0.0
H1396 H 0.38168 0.35844 0.19567 0.0
H1397 H 0.39429 0.33622 0.21487 0.0
H1398 H 0.42084 0.32132 0.18013 0.0
H1399 H 0.40809 0.3435 0.16072 0.0
H1400 H 0.40725 0.31252 0.15242 0.0
H1401 H 0.31697 0.28769 0.14687 0.0
H1402 H 0.30099 0.32507 0.13013 0.0
H1403 H 0.36254 0.36317 0.15684 0.0
C1404 C 0.38902 0.28489 0.20689 0.0
C1405 C 0.38055 0.26222 0.21365 0.0
C1406 C 0.36147 0.25185 0.20084 0.0
C1407 C 0.35042 0.26426 0.18219 0.0
C1408 C 0.35888 0.28686 0.17634 0.0
C1409 C 0.37788 0.29699 0.18822 0.0
C1410 C 0.38189 0.32246 0.18043 0.0
C1411 C 0.37995 0.33969 0.2017 0.0
C1412 C 0.40595 0.32509 0.16766 0.0
C1413 C 0.3614 0.32551 0.16324 0.0
C1414 C 0.34857 0.30466 0.16076 0.0
C1415 C 0.3272 0.30395 0.14816 0.0
C1416 C 0.31826 0.32527 0.13869 0.0
C1417 C 0.33066 0.34696 0.14195 0.0
C1418 C 0.35298 0.34678 0.15347 0.0
H1419 H 0.82115 0.22435 0.81921 0.0
H1420 H 0.86608 0.18012 0.86369 0.0
H1421 H 0.90156 0.20106 0.84853 0.0
H1422 H 0.85267 0.21813 0.7712 0.0
H1423 H 0.84908 0.24752 0.75882 0.0
H1424 H 0.82707 0.23596 0.77881 0.0
H1425 H 0.83231 0.27219 0.80681 0.0
H1426 H 0.85408 0.28433 0.78656 0.0
H1427 H 0.86156 0.27994 0.81746 0.0
H1428 H 0.93202 0.21911 0.8215 0.0
H1429 H 0.95407 0.23298 0.78589 0.0
H1430 H 0.88904 0.26362 0.75786 0.0
C1431 C 0.83831 0.21997 0.8268 0.0
C1432 C 0.84084 0.20072 0.84272 0.0
C1433 C 0.86372 0.19499 0.85163 0.0
C1434 C 0.884 0.20681 0.8431 0.0
C1435 C 0.88106 0.22442 0.82582 0.0
C1436 C 0.85868 0.23125 0.81806 0.0
C1437 C 0.86024 0.24713 0.79634 0.0
C1438 C 0.84647 0.23653 0.77507 0.0
C1439 C 0.85154 0.2724 0.80215 0.0
C1440 C 0.88678 0.24675 0.79208 0.0
C1441 C 0.89864 0.23425 0.80964 0.0
C1442 C 0.92299 0.22947 0.80799 0.0
C1443 C 0.93537 0.23731 0.78769 0.0
C1444 C 0.92319 0.24924 0.76916 0.0
C1445 C 0.8988 0.25455 0.77181 0.0
H1446 H 0.93679 0.59314 0.97412 0.0
H1447 H 0.94312 0.66479 0.00231 0.0
H1448 H 0.96925 0.64982 0.0343 0.0
H1449 H 0.93843 0.56161 0.03231 0.0
H1450 H 0.95579 0.53746 0.02026 0.0
H1451 H 0.93511 0.55328 0.00149 0.0
H1452 H 0.96908 0.56249 0.97158 0.0
H1453 H 0.98976 0.54665 0.99016 0.0
H1454 H 0.99565 0.57712 0.98203 0.0
H1455 H -0.00139 0.62806 0.0599 0.0
H1456 H 0.02919 0.60123 0.07667 0.0
H1457 H 0.00267 0.5437 0.03254 0.0
C1458 C 0.94328 0.60563 0.98729 0.0
C1459 C 0.9379 0.63013 0.98573 0.0
C1460 C 0.94699 0.64593 0.00315 0.0
C1461 C 0.96175 0.63758 0.02147 0.0
C1462 C 0.96704 0.61336 0.02226 0.0
C1463 C 0.95798 0.59759 0.00569 0.0
C1464 C 0.96791 0.57281 0.00927 0.0
C1465 C 0.94813 0.55525 0.01625 0.0
C1466 C 0.9814 0.56429 0.98694 0.0
C1467 C 0.98465 0.57729 0.02987 0.0
C1468 C 0.9837 0.60072 0.03732 0.0
C1469 C -0.00082 0.60956 0.05458 0.0
C1470 C 0.01649 0.59421 0.06399 0.0
C1471 C 0.01814 0.57034 0.0561 0.0
C1472 C 0.00152 0.56169 0.03935 0.0
H1473 H 0.6574 0.82023 0.28553 0.0
H1474 H 0.71094 0.77464 0.31754 0.0
H1475 H 0.69016 0.73932 0.30179 0.0
H1476 H 0.60566 0.77781 0.29266 0.0
H1477 H 0.59352 0.78672 0.26431 0.0
H1478 H 0.60976 0.80786 0.28216 0.0
H1479 H 0.63806 0.81596 0.2466 0.0
H1480 H 0.62213 0.79479 0.22876 0.0
H1481 H 0.65374 0.79142 0.23308 0.0
H1482 H 0.66819 0.7101 0.27664 0.0
H1483 H 0.64585 0.68903 0.24525 0.0
H1484 H 0.60623 0.75361 0.23016 0.0
C1485 C 0.66437 0.80279 0.28987 0.0
C1486 C 0.68579 0.80017 0.30275 0.0
C1487 C 0.69449 0.77706 0.3078 0.0
C1488 C 0.68277 0.75689 0.29898 0.0
C1489 C 0.6622 0.76016 0.28549 0.0
C1490 C 0.65287 0.78253 0.28126 0.0
C1491 C 0.63212 0.78151 0.26414 0.0
C1492 C 0.60889 0.78891 0.27657 0.0
C1493 C 0.63682 0.79681 0.24184 0.0
C1494 C 0.63209 0.75525 0.25831 0.0
C1495 C 0.6493 0.74316 0.27112 0.0
C1496 C 0.65427 0.71923 0.26695 0.0
C1497 C 0.64159 0.70746 0.24899 0.0
C1498 C 0.62422 0.71968 0.23539 0.0
C1499 C 0.61907 0.7437 0.24057 0.0
H1500 H 0.44548 0.4637 0.52191 0.0
H1501 H 0.41318 0.41128 0.56855 0.0
H1502 H 0.44643 0.38367 0.56042 0.0
H1503 H 0.45959 0.42535 0.47818 0.0
H1504 H 0.48737 0.43887 0.46951 0.0
H1505 H 0.46466 0.45662 0.48333 0.0
H1506 H 0.49421 0.46955 0.51629 0.0
H1507 H 0.5172 0.45201 0.50236 0.0
H1508 H 0.50983 0.44721 0.53325 0.0
H1509 H 0.4791 0.35959 0.54209 0.0
H1510 H 0.5083 0.34097 0.51499 0.0
H1511 H 0.51824 0.40882 0.47931 0.0
C1512 C 0.4459 0.44681 0.5312 0.0
C1513 C 0.42692 0.4397 0.54605 0.0
C1514 C 0.42768 0.41713 0.55726 0.0
C1515 C 0.44652 0.40137 0.55279 0.0
C1516 C 0.46443 0.4085 0.53714 0.0
C1517 C 0.46436 0.43079 0.52665 0.0
C1518 C 0.48369 0.43297 0.508 0.0
C1519 C 0.47319 0.43878 0.48331 0.0
C1520 C 0.50234 0.45153 0.51543 0.0
C1521 C 0.49388 0.40808 0.50879 0.0
C1522 C 0.48294 0.39438 0.52608 0.0
C1523 C 0.48812 0.37026 0.52882 0.0
C1524 C 0.50467 0.35983 0.51328 0.0
C1525 C 0.51553 0.37345 0.49504 0.0
C1526 C 0.51036 0.39797 0.49318 0.0
H1527 H 0.13845 0.6809 0.68267 0.0
H1528 H 0.2077 0.71481 0.68327 0.0
H1529 H 0.18986 0.75079 0.70097 0.0
H1530 H 0.10055 0.73817 0.67629 0.0
H1531 H 0.0787 0.72601 0.69642 0.0
H1532 H 0.09488 0.70659 0.67661 0.0
H1533 H 0.10827 0.68129 0.71276 0.0
H1534 H 0.09257 0.70067 0.73265 0.0
H1535 H 0.12394 0.69547 0.73692 0.0
H1536 H 0.16759 0.77783 0.72739 0.0
H1537 H 0.14286 0.79377 0.75993 0.0
H1538 H 0.08792 0.74214 0.74343 0.0
C1539 C 0.1496 0.69638 0.68532 0.0
C1540 C 0.17438 0.69521 0.6814 0.0
C1541 C 0.18861 0.71546 0.68595 0.0
C1542 C 0.17859 0.73601 0.69593 0.0
C1543 C 0.15432 0.73603 0.70116 0.0
C1544 C 0.1399 0.71683 0.69569 0.0
C1545 C 0.11555 0.71933 0.70705 0.0
C1546 C 0.09628 0.72274 0.68795 0.0
C1547 C 0.10979 0.69794 0.7233 0.0
C1548 C 0.11916 0.74191 0.72127 0.0
C1549 C 0.14136 0.75169 0.71703 0.0
C1550 C 0.14993 0.77076 0.73036 0.0
C1551 C 0.1358 0.77961 0.74893 0.0
C1552 C 0.11344 0.76922 0.75416 0.0
C1553 C 0.10473 0.75073 0.73956 0.0
H1554 H 0.54144 0.84629 0.98783 0.0
H1555 H 0.47392 0.87807 0.96803 0.0
H1556 H 0.49377 0.90007 0.93562 0.0
H1557 H 0.57381 0.89632 0.98327 0.0
H1558 H 0.60056 0.88295 0.97161 0.0
H1559 H 0.58041 0.86547 0.98919 0.0
H1560 H 0.57705 0.83475 0.95491 0.0
H1561 H 0.59726 0.85228 0.93714 0.0
H1562 H 0.56835 0.84455 0.9256 0.0
H1563 H 0.52147 0.92418 0.9111 0.0
H1564 H 0.55486 0.9493 0.8976 0.0
H1565 H 0.60453 0.90172 0.93274 0.0
C1566 C 0.5307 0.8572 0.97611 0.0
C1567 C 0.50615 0.86039 0.98035 0.0
C1568 C 0.49278 0.87534 0.96506 0.0
C1569 C 0.50386 0.88777 0.94648 0.0
C1570 C 0.52829 0.88492 0.94328 0.0
C1571 C 0.54155 0.86986 0.95759 0.0
C1572 C 0.56792 0.87256 0.95279 0.0
C1573 C 0.58144 0.87977 0.97555 0.0
C1574 C 0.57825 0.84967 0.94196 0.0
C1575 C 0.5675 0.89253 0.93467 0.0
C1576 C 0.54446 0.899 0.92894 0.0
C1577 C 0.53959 0.91891 0.91493 0.0
C1578 C 0.55867 0.93311 0.90737 0.0
C1579 C 0.58229 0.92741 0.914 0.0
C1580 C 0.58673 0.90628 0.92692 0.0
H1581 H 0.87824 0.07345 0.52866 0.0
H1582 H 0.88661 0.01622 0.47741 0.0
H1583 H 0.92677 0.03088 0.46755 0.0
H1584 H 0.91132 0.11886 0.49387 0.0
H1585 H 0.92423 0.1318 0.52023 0.0
H1586 H 0.89526 0.1181 0.52166 0.0
H1587 H 0.90997 0.09059 0.55571 0.0
H1588 H 0.93894 0.10412 0.55429 0.0
H1589 H 0.93596 0.07234 0.55105 0.0
H1590 H 0.96778 0.04835 0.46723 0.0
H1591 H 0.00569 0.06968 0.4742 0.0
H1592 H 0.96984 0.11697 0.5236 0.0
C1593 C 0.88835 0.06426 0.51505 0.0
C1594 C 0.87928 0.04369 0.50382 0.0
C1595 C 0.89311 0.0321 0.48617 0.0
C1596 C 0.91597 0.04027 0.48045 0.0
C1597 C 0.92459 0.06028 0.49223 0.0
C1598 C 0.91108 0.07236 0.5089 0.0
C1599 C 0.92489 0.09284 0.51966 0.0
C1600 C 0.91323 0.11682 0.51348 0.0
C1601 C 0.9276 0.08977 0.54678 0.0
C1602 C 0.94848 0.0899 0.50698 0.0
C1603 C 0.94797 0.07101 0.49124 0.0
C1604 C 0.96828 0.06353 0.47907 0.0
C1605 C 0.9897 0.07565 0.48318 0.0
C1606 C 0.99049 0.09516 0.49907 0.0
C1607 C 0.96955 0.10251 0.51084 0.0
loop_
_geom_bond_atom_site_label_1
_geom_bond_atom_site_label_2
_geom_bond_distance
_geom_bond_site_symmetry_2
_ccdc_geom_bond_type
C0 O1 1.160 . S
C0 O7 1.185 . S
O1 C0 1.160 . S
O2 Zn3 1.899 . S
O2 C10 1.284 . S
Zn3 O2 1.899 . S
Zn3 O4 2.032 . S
Zn3 O7 2.086 . S
Zn3 O12 1.977 . S
O4 Zn3 2.032 . S
O4 C8 1.278 . S
C5 O6 1.203 . S
C5 O12 1.267 . S
O6 C5 1.203 . S
O7 C0 1.185 . S
O7 Zn3 2.086 . S
C8 O4 1.278 . S
C8 O9 1.211 . S
O9 C8 1.211 . S
C10 O2 1.284 . S
C10 O11 1.273 . S
O11 C10 1.273 . S
O12 Zn3 1.977 . S
O12 C5 1.267 . S
C13 O14 1.160 . S
C13 O20 1.185 . S
O14 C13 1.160 . S
O15 Zn16 1.899 . S
O15 C23 1.284 . S
Zn16 O15 1.899 . S
Zn16 O17 2.032 . S
Zn16 O20 2.086 . S
Zn16 O25 1.977 . S
O17 Zn16 2.032 . S
O17 C21 1.278 . S
C18 O19 1.203 . S
C18 O25 1.267 . S
O19 C18 1.203 . S
O20 C13 1.185 . S
O20 Zn16 2.086 . S
C21 O17 1.278 . S
C21 O22 1.211 . S
O22 C21 1.211 . S
C23 O15 1.284 . S
C23 O24 1.273 . S
O24 C23 1.273 . S
O25 Zn16 1.977 . S
O25 C18 1.267 . S
C26 O27 1.160 . S
C26 O33 1.185 . S
O27 C26 1.160 . S
O28 Zn29 1.899 . S
O28 C36 1.284 . S
Zn29 O28 1.899 . S
Zn29 O30 2.032 . S
Zn29 O33 2.086 . S
Zn29 O38 1.977 . S
O30 Zn29 2.032 . S
O30 C34 1.278 . S
C31 O32 1.203 . S
C31 O38 1.267 . S
O32 C31 1.203 . S
O33 C26 1.185 . S
O33 Zn29 2.086 . S
C34 O30 1.278 . S
C34 O35 1.211 . S
O35 C34 1.211 . S
C36 O28 1.284 . S
C36 O37 1.273 . S
O37 C36 1.273 . S
O38 Zn29 1.977 . S
O38 C31 1.267 . S
C39 O40 1.160 . S
C39 O46 1.185 . S
O40 C39 1.160 . S
O41 Zn42 1.899 . S
O41 C49 1.284 . S
Zn42 O41 1.899 . S
Zn42 O43 2.032 . S
Zn42 O46 2.086 . S
Zn42 O51 1.977 . S
O43 Zn42 2.032 . S
O43 C47 1.278 . S
C44 O45 1.203 . S
C44 O51 1.267 . S
O45 C44 1.203 . S
O46 C39 1.185 . S
O46 Zn42 2.086 . S
C47 O43 1.278 . S
C47 O48 1.211 . S
O48 C47 1.211 . S
C49 O41 1.284 . S
C49 O50 1.273 . S
O50 C49 1.273 . S
O51 Zn42 1.977 . S
O51 C44 1.267 . S
C52 O53 1.160 . S
C52 O59 1.185 . S
O53 C52 1.160 . S
O54 Zn55 1.899 . S
O54 C62 1.284 . S
Zn55 O54 1.899 . S
Zn55 O56 2.032 . S
Zn55 O59 2.086 . S
Zn55 O64 1.977 . S
O56 Zn55 2.032 . S
O56 C60 1.278 . S
C57 O58 1.203 . S
C57 O64 1.267 . S
O58 C57 1.203 . S
O59 C52 1.185 . S
O59 Zn55 2.086 . S
C60 O56 1.278 . S
C60 O61 1.211 . S
O61 C60 1.211 . S
C62 O54 1.284 . S
C62 O63 1.273 . S
O63 C62 1.273 . S
O64 Zn55 1.977 . S
O64 C57 1.267 . S
C65 O66 1.160 . S
C65 O72 1.185 . S
O66 C65 1.160 . S
O67 Zn68 1.899 . S
O67 C75 1.284 . S
Zn68 O67 1.899 . S
Zn68 O69 2.032 . S
Zn68 O72 2.086 . S
Zn68 O77 1.977 . S
O69 Zn68 2.032 . S
O69 C73 1.278 . S
C70 O71 1.203 . S
C70 O77 1.267 . S
O71 C70 1.203 . S
O72 C65 1.185 . S
O72 Zn68 2.086 . S
C73 O69 1.278 . S
C73 O74 1.211 . S
O74 C73 1.211 . S
C75 O67 1.284 . S
C75 O76 1.273 . S
O76 C75 1.273 . S
O77 Zn68 1.977 . S
O77 C70 1.267 . S
C78 O79 1.160 . S
C78 O85 1.185 . S
O79 C78 1.160 . S
O80 Zn81 1.899 . S
O80 C88 1.284 . S
Zn81 O80 1.899 . S
Zn81 O82 2.032 . S
Zn81 O85 2.086 . S
Zn81 O90 1.977 . S
O82 Zn81 2.032 . S
O82 C86 1.278 . S
C83 O84 1.203 . S
C83 O90 1.267 . S
O84 C83 1.203 . S
O85 C78 1.185 . S
O85 Zn81 2.086 . S
C86 O82 1.278 . S
C86 O87 1.211 . S
O87 C86 1.211 . S
C88 O80 1.284 . S
C88 O89 1.273 . S
O89 C88 1.273 . S
O90 Zn81 1.977 . S
O90 C83 1.267 . S
C91 O92 1.160 . S
C91 O98 1.185 . S
O92 C91 1.160 . S
O93 Zn94 1.899 . S
O93 C101 1.284 . S
Zn94 O93 1.899 . S
Zn94 O95 2.032 . S
Zn94 O98 2.086 . S
Zn94 O103 1.977 . S
O95 Zn94 2.032 . S
O95 C99 1.278 . S
C96 O97 1.203 . S
C96 O103 1.267 . S
O97 C96 1.203 . S
O98 C91 1.185 . S
O98 Zn94 2.086 . S
C99 O95 1.278 . S
C99 O100 1.211 . S
O100 C99 1.211 . S
C101 O93 1.284 . S
C101 O102 1.273 . S
O102 C101 1.273 . S
O103 Zn94 1.977 . S
O103 C96 1.267 . S
C104 O105 1.160 . S
C104 O111 1.185 . S
O105 C104 1.160 . S
O106 Zn107 1.899 . S
O106 C114 1.284 . S
Zn107 O106 1.899 . S
Zn107 O108 2.032 . S
Zn107 O111 2.086 . S
Zn107 O116 1.977 . S
O108 Zn107 2.032 . S
O108 C112 1.278 . S
C109 O110 1.203 . S
C109 O116 1.267 . S
O110 C109 1.203 . S
O111 C104 1.185 . S
O111 Zn107 2.086 . S
C112 O108 1.278 . S
C112 O113 1.211 . S
O113 C112 1.211 . S
C114 O106 1.284 . S
C114 O115 1.273 . S
O115 C114 1.273 . S
O116 Zn107 1.977 . S
O116 C109 1.267 . S
C117 O118 1.160 . S
C117 O124 1.185 . S
O118 C117 1.160 . S
O119 Zn120 1.899 . S
O119 C127 1.284 . S
Zn120 O119 1.899 . S
Zn120 O121 2.032 . S
Zn120 O124 2.086 . S
Zn120 O129 1.977 . S
O121 Zn120 2.032 . S
O121 C125 1.278 . S
C122 O123 1.203 . S
C122 O129 1.267 . S
O123 C122 1.203 . S
O124 C117 1.185 . S
O124 Zn120 2.086 . S
C125 O121 1.278 . S
C125 O126 1.211 . S
O126 C125 1.211 . S
C127 O119 1.284 . S
C127 O128 1.273 . S
O128 C127 1.273 . S
O129 Zn120 1.977 . S
O129 C122 1.267 . S
C130 O131 1.160 . S
C130 O137 1.185 . S
O131 C130 1.160 . S
O132 Zn133 1.899 . S
O132 C140 1.284 . S
Zn133 O132 1.899 . S
Zn133 O134 2.032 . S
Zn133 O137 2.086 . S
Zn133 O142 1.977 . S
O134 Zn133 2.032 . S
O134 C138 1.278 . S
C135 O136 1.203 . S
C135 O142 1.267 . S
O136 C135 1.203 . S
O137 C130 1.185 . S
O137 Zn133 2.086 . S
C138 O134 1.278 . S
C138 O139 1.211 . S
O139 C138 1.211 . S
C140 O132 1.284 . S
C140 O141 1.273 . S
O141 C140 1.273 . S
O142 Zn133 1.977 . S
O142 C135 1.267 . S
C143 O144 1.160 . S
C143 O150 1.185 . S
O144 C143 1.160 . S
O145 Zn146 1.899 . S
O145 C153 1.284 . S
Zn146 O145 1.899 . S
Zn146 O147 2.032 . S
Zn146 O150 2.086 . S
Zn146 O155 1.977 . S
O147 Zn146 2.032 . S
O147 C151 1.278 . S
C148 O149 1.203 . S
C148 O155 1.267 . S
O149 C148 1.203 . S
O150 C143 1.185 . S
O150 Zn146 2.086 . S
C151 O147 1.278 . S
C151 O152 1.211 . S
O152 C151 1.211 . S
C153 O145 1.284 . S
C153 O154 1.273 . S
O154 C153 1.273 . S
O155 Zn146 1.977 . S
O155 C148 1.267 . S
C156 O157 1.160 . S
C156 O163 1.185 . S
O157 C156 1.160 . S
O158 Zn159 1.899 . S
O158 C166 1.284 . S
Zn159 O158 1.899 . S
Zn159 O160 2.032 . S
Zn159 O163 2.086 . S
Zn159 O168 1.977 . S
O160 Zn159 2.032 . S
O160 C164 1.278 . S
C161 O162 1.203 . S
C161 O168 1.267 . S
O162 C161 1.203 . S
O163 C156 1.185 . S
O163 Zn159 2.086 . S
C164 O160 1.278 . S
C164 O165 1.211 . S
O165 C164 1.211 . S
C166 O158 1.284 . S
C166 O167 1.273 . S
O167 C166 1.273 . S
O168 Zn159 1.977 . S
O168 C161 1.267 . S
C169 O170 1.160 . S
C169 O176 1.185 . S
O170 C169 1.160 . S
O171 Zn172 1.899 . S
O171 C179 1.284 . S
Zn172 O171 1.899 . S
Zn172 O173 2.032 . S
Zn172 O176 2.086 . S
Zn172 O181 1.977 . S
O173 Zn172 2.032 . S
O173 C177 1.278 . S
C174 O175 1.203 . S
C174 O181 1.267 . S
O175 C174 1.203 . S
O176 C169 1.185 . S
O176 Zn172 2.086 . S
C177 O173 1.278 . S
C177 O178 1.211 . S
O178 C177 1.211 . S
C179 O171 1.284 . S
C179 O180 1.273 . S
O180 C179 1.273 . S
O181 Zn172 1.977 . S
O181 C174 1.267 . S
C182 O183 1.160 . S
C182 O189 1.185 . S
O183 C182 1.160 . S
O184 Zn185 1.899 . S
O184 C192 1.284 . S
Zn185 O184 1.899 . S
Zn185 O186 2.032 . S
Zn185 O189 2.086 . S
Zn185 O194 1.977 . S
O186 Zn185 2.032 . S
O186 C190 1.278 . S
C187 O188 1.203 . S
C187 O194 1.267 . S
O188 C187 1.203 . S
O189 C182 1.185 . S
O189 Zn185 2.086 . S
C190 O186 1.278 . S
C190 O191 1.211 . S
O191 C190 1.211 . S
C192 O184 1.284 . S
C192 O193 1.273 . S
O193 C192 1.273 . S
O194 Zn185 1.977 . S
O194 C187 1.267 . S
C195 O196 1.160 . S
C195 O202 1.185 . S
O196 C195 1.160 . S
O197 Zn198 1.899 . S
O197 C205 1.284 . S
Zn198 O197 1.899 . S
Zn198 O199 2.032 . S
Zn198 O202 2.086 . S
Zn198 O207 1.977 . S
O199 Zn198 2.032 . S
O199 C203 1.278 . S
C200 O201 1.203 . S
C200 O207 1.267 . S
O201 C200 1.203 . S
O202 C195 1.185 . S
O202 Zn198 2.086 . S
C203 O199 1.278 . S
C203 O204 1.211 . S
O204 C203 1.211 . S
C205 O197 1.284 . S
C205 O206 1.273 . S
O206 C205 1.273 . S
O207 Zn198 1.977 . S
O207 C200 1.267 . S
C208 O209 1.160 . S
C208 O215 1.185 . S
O209 C208 1.160 . S
O210 Zn211 1.899 . S
O210 C218 1.284 . S
Zn211 O210 1.899 . S
Zn211 O212 2.032 . S
Zn211 O215 2.086 . S
Zn211 O220 1.977 . S
O212 Zn211 2.032 . S
O212 C216 1.278 . S
C213 O214 1.203 . S
C213 O220 1.267 . S
O214 C213 1.203 . S
O215 C208 1.185 . S
O215 Zn211 2.086 . S
C216 O212 1.278 . S
C216 O217 1.211 . S
O217 C216 1.211 . S
C218 O210 1.284 . S
C218 O219 1.273 . S
O219 C218 1.273 . S
O220 Zn211 1.977 . S
O220 C213 1.267 . S
C221 O222 1.160 . S
C221 O228 1.185 . S
O222 C221 1.160 . S
O223 Zn224 1.899 . S
O223 C231 1.284 . S
Zn224 O223 1.899 . S
Zn224 O225 2.032 . S
Zn224 O228 2.086 . S
Zn224 O233 1.977 . S
O225 Zn224 2.032 . S
O225 C229 1.278 . S
C226 O227 1.203 . S
C226 O233 1.267 . S
O227 C226 1.203 . S
O228 C221 1.185 . S
O228 Zn224 2.086 . S
C229 O225 1.278 . S
C229 O230 1.211 . S
O230 C229 1.211 . S
C231 O223 1.284 . S
C231 O232 1.273 . S
O232 C231 1.273 . S
O233 Zn224 1.977 . S
O233 C226 1.267 . S
C234 O235 1.160 . S
C234 O241 1.185 . S
O235 C234 1.160 . S
O236 Zn237 1.899 . S
O236 C244 1.284 . S
Zn237 O236 1.899 . S
Zn237 O238 2.032 . S
Zn237 O241 2.086 . S
Zn237 O246 1.977 . S
O238 Zn237 2.032 . S
O238 C242 1.278 . S
C239 O240 1.203 . S
C239 O246 1.267 . S
O240 C239 1.203 . S
O241 C234 1.185 . S
O241 Zn237 2.086 . S
C242 O238 1.278 . S
C242 O243 1.211 . S
O243 C242 1.211 . S
C244 O236 1.284 . S
C244 O245 1.273 . S
O245 C244 1.273 . S
O246 Zn237 1.977 . S
O246 C239 1.267 . S
C247 O248 1.160 . S
C247 O254 1.185 . S
O248 C247 1.160 . S
O249 Zn250 1.899 . S
O249 C257 1.284 . S
Zn250 O249 1.899 . S
Zn250 O251 2.032 . S
Zn250 O254 2.086 . S
Zn250 O259 1.977 . S
O251 Zn250 2.032 . S
O251 C255 1.278 . S
C252 O253 1.203 . S
C252 O259 1.267 . S
O253 C252 1.203 . S
O254 C247 1.185 . S
O254 Zn250 2.086 . S
C255 O251 1.278 . S
C255 O256 1.211 . S
O256 C255 1.211 . S
C257 O249 1.284 . S
C257 O258 1.273 . S
O258 C257 1.273 . S
O259 Zn250 1.977 . S
O259 C252 1.267 . S
C260 O261 1.160 . S
C260 O267 1.185 . S
O261 C260 1.160 . S
O262 Zn263 1.899 . S
O262 C270 1.284 . S
Zn263 O262 1.899 . S
Zn263 O264 2.032 . S
Zn263 O267 2.086 . S
Zn263 O272 1.977 . S
O264 Zn263 2.032 . S
O264 C268 1.278 . S
C265 O266 1.203 . S
C265 O272 1.267 . S
O266 C265 1.203 . S
O267 C260 1.185 . S
O267 Zn263 2.086 . S
C268 O264 1.278 . S
C268 O269 1.211 . S
O269 C268 1.211 . S
C270 O262 1.284 . S
C270 O271 1.273 . S
O271 C270 1.273 . S
O272 Zn263 1.977 . S
O272 C265 1.267 . S
C273 O274 1.160 . S
C273 O280 1.185 . S
O274 C273 1.160 . S
O275 Zn276 1.899 . S
O275 C283 1.284 . S
Zn276 O275 1.899 . S
Zn276 O277 2.032 . S
Zn276 O280 2.086 . S
Zn276 O285 1.977 . S
O277 Zn276 2.032 . S
O277 C281 1.278 . S
C278 O279 1.203 . S
C278 O285 1.267 . S
O279 C278 1.203 . S
O280 C273 1.185 . S
O280 Zn276 2.086 . S
C281 O277 1.278 . S
C281 O282 1.211 . S
O282 C281 1.211 . S
C283 O275 1.284 . S
C283 O284 1.273 . S
O284 C283 1.273 . S
O285 Zn276 1.977 . S
O285 C278 1.267 . S
C286 O287 1.160 . S
C286 O293 1.185 . S
O287 C286 1.160 . S
O288 Zn289 1.899 . S
O288 C296 1.284 . S
Zn289 O288 1.899 . S
Zn289 O290 2.032 . S
Zn289 O293 2.086 . S
Zn289 O298 1.977 . S
O290 Zn289 2.032 . S
O290 C294 1.278 . S
C291 O292 1.203 . S
C291 O298 1.267 . S
O292 C291 1.203 . S
O293 C286 1.185 . S
O293 Zn289 2.086 . S
C294 O290 1.278 . S
C294 O295 1.211 . S
O295 C294 1.211 . S
C296 O288 1.284 . S
C296 O297 1.273 . S
O297 C296 1.273 . S
O298 Zn289 1.977 . S
O298 C291 1.267 . S
C299 O300 1.160 . S
C299 O306 1.185 . S
O300 C299 1.160 . S
O301 Zn302 1.899 . S
O301 C309 1.284 . S
Zn302 O301 1.899 . S
Zn302 O303 2.032 . S
Zn302 O306 2.086 . S
Zn302 O311 1.977 . S
O303 Zn302 2.032 . S
O303 C307 1.278 . S
C304 O305 1.203 . S
C304 O311 1.267 . S
O305 C304 1.203 . S
O306 C299 1.185 . S
O306 Zn302 2.086 . S
C307 O303 1.278 . S
C307 O308 1.211 . S
O308 C307 1.211 . S
C309 O301 1.284 . S
C309 O310 1.273 . S
O310 C309 1.273 . S
O311 Zn302 1.977 . S
O311 C304 1.267 . S
H312 C324 0.930 . S
H313 C326 0.930 . S
H314 C327 0.930 . S
H315 C331 0.959 . S
H316 C331 0.959 . S
H317 C331 0.961 . S
H318 C332 0.960 . S
H319 C332 0.961 . S
H320 C332 0.959 . S
H321 C335 0.929 . S
H322 C336 0.931 . S
H323 C338 0.930 . S
C324 H312 0.930 . S
C324 C325 1.399 . S
C324 C329 1.399 . S
C325 C324 1.399 . S
C325 C326 1.376 . S
C326 H313 0.930 . S
C326 C325 1.376 . S
C326 C327 1.388 . S
C327 H314 0.930 . S
C327 C326 1.388 . S
C327 C328 1.390 . S
C328 C327 1.390 . S
C328 C329 1.394 . S
C328 C334 1.465 . S
C329 C324 1.399 . S
C329 C328 1.394 . S
C329 C330 1.516 . S
C330 C329 1.516 . S
C330 C331 1.502 . S
C330 C332 1.561 . S
C330 C333 1.526 . S
C331 H315 0.959 . S
C331 H316 0.959 . S
C331 H317 0.961 . S
C331 C330 1.502 . S
C332 H318 0.960 . S
C332 H319 0.961 . S
C332 H320 0.959 . S
C332 C330 1.561 . S
C333 C330 1.526 . S
C333 C334 1.396 . S
C333 C338 1.390 . S
C334 C328 1.465 . S
C334 C333 1.396 . S
C334 C335 1.399 . S
C335 H321 0.929 . S
C335 C334 1.399 . S
C335 C336 1.385 . S
C336 H322 0.931 . S
C336 C335 1.385 . S
C336 C337 1.389 . S
C337 C336 1.389 . S
C337 C338 1.387 . S
C338 H323 0.930 . S
C338 C333 1.390 . S
C338 C337 1.387 . S
H339 C351 0.930 . S
H340 C353 0.930 . S
H341 C354 0.930 . S
H342 C358 0.962 . S
H343 C358 0.956 1_455 S
H344 C358 0.967 . S
H345 C359 0.960 . S
H346 C359 0.961 . S
H347 C359 0.959 . S
H348 C362 0.929 . S
H349 C363 0.931 . S
H350 C365 0.930 . S
C351 H339 0.930 . S
C351 C352 1.399 . S
C351 C356 1.399 1_655 S
C352 C351 1.399 . S
C352 C353 1.376 1_655 S
C353 H340 0.930 . S
C353 C352 1.376 1_455 S
C353 C354 1.388 . S
C354 H341 0.930 . S
C354 C353 1.388 . S
C354 C355 1.390 . S
C355 C354 1.390 . S
C355 C356 1.394 . S
C355 C361 1.465 . S
C356 C351 1.399 1_455 S
C356 C355 1.394 . S
C356 C357 1.516 . S
C357 C356 1.516 . S
C357 C358 1.496 1_455 S
C357 C359 1.561 . S
C357 C360 1.526 . S
C358 H342 0.962 . S
C358 H343 0.956 1_655 S
C358 H344 0.967 . S
C358 C357 1.496 1_655 S
C359 H345 0.960 . S
C359 H346 0.961 . S
C359 H347 0.959 . S
C359 C357 1.561 . S
C360 C357 1.526 . S
C360 C361 1.396 . S
C360 C365 1.390 . S
C361 C355 1.465 . S
C361 C360 1.396 . S
C361 C362 1.399 . S
C362 H348 0.929 . S
C362 C361 1.399 . S
C362 C363 1.385 . S
C363 H349 0.931 . S
C363 C362 1.385 . S
C363 C364 1.389 . S
C364 C363 1.389 . S
C364 C365 1.387 . S
C365 H350 0.930 . S
C365 C360 1.390 . S
C365 C364 1.387 . S
H366 C378 0.930 . S
H367 C380 0.930 . S
H368 C381 0.930 . S
H369 C385 0.959 . S
H370 C385 0.959 . S
H371 C385 0.961 . S
H372 C386 0.960 . S
H373 C386 0.961 . S
H374 C386 0.959 . S
H375 C389 0.929 . S
H376 C390 0.931 . S
H377 C392 0.930 . S
C378 H366 0.930 . S
C378 C379 1.399 . S
C378 C383 1.399 . S
C379 C378 1.399 . S
C379 C380 1.376 . S
C380 H367 0.930 . S
C380 C379 1.376 . S
C380 C381 1.388 . S
C381 H368 0.930 . S
C381 C380 1.388 . S
C381 C382 1.390 . S
C382 C381 1.390 . S
C382 C383 1.394 . S
C382 C388 1.465 . S
C383 C378 1.399 . S
C383 C382 1.394 . S
C383 C384 1.516 . S
C384 C383 1.516 . S
C384 C385 1.502 . S
C384 C386 1.561 . S
C384 C387 1.526 . S
C385 H369 0.959 . S
C385 H370 0.959 . S
C385 H371 0.961 . S
C385 C384 1.502 . S
C386 H372 0.960 . S
C386 H373 0.961 . S
C386 H374 0.959 . S
C386 C384 1.561 . S
C387 C384 1.526 . S
C387 C388 1.396 . S
C387 C392 1.390 . S
C388 C382 1.465 . S
C388 C387 1.396 . S
C388 C389 1.399 1_556 S
C389 H375 0.929 . S
C389 C388 1.399 1_554 S
C389 C390 1.385 . S
C390 H376 0.931 . S
C390 C389 1.385 . S
C390 C391 1.389 . S
C391 C390 1.389 . S
C391 C392 1.387 1_554 S
C392 H377 0.930 . S
C392 C387 1.390 . S
C392 C391 1.387 1_556 S
H393 C405 0.930 . S
H394 C407 0.930 . S
H395 C408 0.930 . S
H396 C412 0.959 . S
H397 C412 0.959 . S
H398 C412 0.961 . S
H399 C413 0.960 . S
H400 C413 0.961 . S
H401 C413 0.959 . S
H402 C416 0.929 . S
H403 C417 0.931 . S
H404 C419 0.930 . S
C405 H393 0.930 . S
C405 C406 1.399 . S
C405 C410 1.399 . S
C406 C405 1.399 . S
C406 C407 1.376 . S
C407 H394 0.930 . S
C407 C406 1.376 . S
C407 C408 1.388 . S
C408 H395 0.930 . S
C408 C407 1.388 . S
C408 C409 1.390 . S
C409 C408 1.390 . S
C409 C410 1.394 . S
C409 C415 1.465 . S
C410 C405 1.399 . S
C410 C409 1.394 . S
C410 C411 1.516 . S
C411 C410 1.516 . S
C411 C412 1.502 . S
C411 C413 1.561 . S
C411 C414 1.526 . S
C412 H396 0.959 . S
C412 H397 0.959 . S
C412 H398 0.961 . S
C412 C411 1.502 . S
C413 H399 0.960 . S
C413 H400 0.961 . S
C413 H401 0.959 . S
C413 C411 1.561 . S
C414 C411 1.526 . S
C414 C415 1.396 . S
C414 C419 1.390 . S
C415 C409 1.465 . S
C415 C414 1.396 . S
C415 C416 1.399 . S
C416 H402 0.929 . S
C416 C415 1.399 . S
C416 C417 1.385 . S
C417 H403 0.931 . S
C417 C416 1.385 . S
C417 C418 1.389 . S
C418 C417 1.389 . S
C418 C419 1.387 . S
C419 H404 0.930 . S
C419 C414 1.390 . S
C419 C418 1.387 . S
H420 C432 0.930 . S
H421 C434 0.930 . S
H422 C435 0.930 . S
H423 C439 0.959 . S
H424 C439 0.959 . S
H425 C439 0.961 . S
H426 C440 0.960 . S
H427 C440 0.961 . S
H428 C440 0.959 . S
H429 C443 0.929 . S
H430 C444 0.931 . S
H431 C446 0.930 . S
C432 H420 0.930 . S
C432 C433 1.399 . S
C432 C437 1.399 . S
C433 C432 1.399 . S
C433 C434 1.376 . S
C434 H421 0.930 . S
C434 C433 1.376 . S
C434 C435 1.388 . S
C435 H422 0.930 . S
C435 C434 1.388 . S
C435 C436 1.390 . S
C436 C435 1.390 . S
C436 C437 1.394 . S
C436 C442 1.465 . S
C437 C432 1.399 . S
C437 C436 1.394 . S
C437 C438 1.516 . S
C438 C437 1.516 . S
C438 C439 1.502 . S
C438 C440 1.561 . S
C438 C441 1.526 . S
C439 H423 0.959 . S
C439 H424 0.959 . S
C439 H425 0.961 . S
C439 C438 1.502 . S
C440 H426 0.960 . S
C440 H427 0.961 . S
C440 H428 0.959 . S
C440 C438 1.561 . S
C441 C438 1.526 . S
C441 C442 1.396 . S
C441 C446 1.390 . S
C442 C436 1.465 . S
C442 C441 1.396 . S
C442 C443 1.399 . S
C443 H429 0.929 . S
C443 C442 1.399 . S
C443 C444 1.385 . S
C444 H430 0.931 . S
C444 C443 1.385 . S
C444 C445 1.389 . S
C445 C444 1.389 . S
C445 C446 1.387 . S
C446 H431 0.930 . S
C446 C441 1.390 . S
C446 C445 1.387 . S
H447 C459 0.930 . S
H448 C461 0.930 . S
H449 C462 0.930 . S
H450 C466 0.959 . S
H451 C466 0.959 . S
H452 C466 0.961 . S
H453 C467 0.960 . S
H454 C467 0.961 . S
H455 C467 0.959 . S
H456 C470 0.929 . S
H457 C471 0.931 . S
H458 C473 0.930 . S
C459 H447 0.930 . S
C459 C460 1.399 . S
C459 C464 1.399 . S
C460 C459 1.399 . S
C460 C461 1.376 . S
C461 H448 0.930 . S
C461 C460 1.376 . S
C461 C462 1.388 . S
C462 H449 0.930 . S
C462 C461 1.388 . S
C462 C463 1.390 . S
C463 C462 1.390 . S
C463 C464 1.394 . S
C463 C469 1.465 . S
C464 C459 1.399 . S
C464 C463 1.394 . S
C464 C465 1.516 . S
C465 C464 1.516 . S
C465 C466 1.502 . S
C465 C467 1.561 . S
C465 C468 1.526 . S
C466 H450 0.959 . S
C466 H451 0.959 . S
C466 H452 0.961 . S
C466 C465 1.502 . S
C467 H453 0.960 . S
C467 H454 0.961 . S
C467 H455 0.959 . S
C467 C465 1.561 . S
C468 C465 1.526 . S
C468 C469 1.396 . S
C468 C473 1.390 . S
C469 C463 1.465 . S
C469 C468 1.396 . S
C469 C470 1.399 1_655 S
C470 H456 0.929 . S
C470 C469 1.399 1_455 S
C470 C471 1.385 . S
C471 H457 0.931 . S
C471 C470 1.385 . S
C471 C472 1.389 . S
C472 C471 1.389 . S
C472 C473 1.387 1_455 S
C473 H458 0.930 . S
C473 C468 1.390 . S
C473 C472 1.387 1_655 S
H474 C486 0.930 . S
H475 C488 0.930 . S
H476 C489 0.930 . S
H477 C493 0.963 . S
H478 C493 0.959 . S
H479 C493 0.961 . S
H480 C494 0.960 . S
H481 C494 0.961 . S
H482 C494 0.959 1_554 S
H483 C497 0.929 . S
H484 C498 0.931 . S
H485 C500 0.930 . S
C486 H474 0.930 . S
C486 C487 1.399 . S
C486 C491 1.399 . S
C487 C486 1.399 . S
C487 C488 1.376 . S
C488 H475 0.930 . S
C488 C487 1.376 . S
C488 C489 1.388 . S
C489 H476 0.930 . S
C489 C488 1.388 . S
C489 C490 1.390 . S
C490 C489 1.390 . S
C490 C491 1.394 . S
C490 C496 1.465 . S
C491 C486 1.399 . S
C491 C490 1.394 . S
C491 C492 1.516 . S
C492 C491 1.516 . S
C492 C493 1.502 1_554 S
C492 C494 1.561 1_554 S
C492 C495 1.526 . S
C493 H477 0.963 . S
C493 H478 0.959 . S
C493 H479 0.961 . S
C493 C492 1.502 1_556 S
C494 H480 0.960 . S
C494 H481 0.961 . S
C494 H482 0.959 1_556 S
C494 C492 1.561 1_556 S
C495 C492 1.526 . S
C495 C496 1.396 . S
C495 C500 1.390 1_554 S
C496 C490 1.465 . S
C496 C495 1.396 . S
C496 C497 1.399 . S
C497 H483 0.929 . S
C497 C496 1.399 . S
C497 C498 1.385 . S
C498 H484 0.931 . S
C498 C497 1.385 . S
C498 C499 1.389 1_554 S
C499 C498 1.389 1_556 S
C499 C500 1.387 . S
C500 H485 0.930 . S
C500 C495 1.390 1_556 S
C500 C499 1.387 . S
H501 C513 0.930 . S
H502 C515 0.930 . S
H503 C516 0.930 . S
H504 C520 0.959 . S
H505 C520 0.959 . S
H506 C520 0.961 . S
H507 C521 0.960 . S
H508 C521 0.961 . S
H509 C521 0.959 . S
H510 C524 0.929 . S
H511 C525 0.931 . S
H512 C527 0.930 . S
C513 H501 0.930 . S
C513 C514 1.399 . S
C513 C518 1.399 . S
C514 C513 1.399 . S
C514 C515 1.376 . S
C515 H502 0.930 . S
C515 C514 1.376 . S
C515 C516 1.388 . S
C516 H503 0.930 . S
C516 C515 1.388 . S
C516 C517 1.390 . S
C517 C516 1.390 . S
C517 C518 1.394 . S
C517 C523 1.465 . S
C518 C513 1.399 . S
C518 C517 1.394 . S
C518 C519 1.516 . S
C519 C518 1.516 . S
C519 C520 1.502 . S
C519 C521 1.561 . S
C519 C522 1.526 . S
C520 H504 0.959 . S
C520 H505 0.959 . S
C520 H506 0.961 . S
C520 C519 1.502 . S
C521 H507 0.960 . S
C521 H508 0.961 . S
C521 H509 0.959 . S
C521 C519 1.561 . S
C522 C519 1.526 . S
C522 C523 1.396 . S
C522 C527 1.390 . S
C523 C517 1.465 . S
C523 C522 1.396 . S
C523 C524 1.399 . S
C524 H510 0.929 . S
C524 C523 1.399 . S
C524 C525 1.385 . S
C525 H511 0.931 . S
C525 C524 1.385 . S
C525 C526 1.389 . S
C526 C525 1.389 . S
C526 C527 1.387 . S
C527 H512 0.930 . S
C527 C522 1.390 . S
C527 C526 1.387 . S
H528 C540 0.930 . S
H529 C542 0.930 . S
H530 C543 0.930 . S
H531 C547 0.959 . S
H532 C547 0.959 . S
H533 C547 0.961 . S
H534 C548 0.960 . S
H535 C548 0.961 . S
H536 C548 0.959 . S
H537 C551 0.929 . S
H538 C552 0.931 . S
H539 C554 0.930 . S
C540 H528 0.930 . S
C540 C541 1.399 . S
C540 C545 1.399 . S
C541 C540 1.399 . S
C541 C542 1.376 . S
C542 H529 0.930 . S
C542 C541 1.376 . S
C542 C543 1.388 . S
C543 H530 0.930 . S
C543 C542 1.388 . S
C543 C544 1.390 . S
C544 C543 1.390 . S
C544 C545 1.394 . S
C544 C550 1.465 . S
C545 C540 1.399 . S
C545 C544 1.394 . S
C545 C546 1.516 . S
C546 C545 1.516 . S
C546 C547 1.502 . S
C546 C548 1.561 . S
C546 C549 1.526 . S
C547 H531 0.959 . S
C547 H532 0.959 . S
C547 H533 0.961 . S
C547 C546 1.502 . S
C548 H534 0.960 . S
C548 H535 0.961 . S
C548 H536 0.959 . S
C548 C546 1.561 . S
C549 C546 1.526 . S
C549 C550 1.396 . S
C549 C554 1.390 . S
C550 C544 1.465 . S
C550 C549 1.396 . S
C550 C551 1.399 . S
C551 H537 0.929 . S
C551 C550 1.399 . S
C551 C552 1.385 . S
C552 H538 0.931 . S
C552 C551 1.385 . S
C552 C553 1.389 . S
C553 C552 1.389 . S
C553 C554 1.387 . S
C554 H539 0.930 . S
C554 C549 1.390 . S
C554 C553 1.387 . S
H555 C567 0.930 . S
H556 C569 0.933 . S
H557 C570 0.930 . S
H558 C574 0.959 1_565 S
H559 C574 0.959 . S
H560 C574 0.961 1_565 S
H561 C575 0.960 . S
H562 C575 0.961 . S
H563 C575 0.959 . S
H564 C578 0.929 . S
H565 C579 0.931 . S
H566 C581 0.930 . S
C567 H555 0.930 . S
C567 C568 1.399 . S
C567 C572 1.399 1_565 S
C568 C567 1.399 . S
C568 C569 1.376 1_565 S
C569 H556 0.933 . S
C569 C568 1.376 1_545 S
C569 C570 1.388 . S
C570 H557 0.930 . S
C570 C569 1.388 . S
C570 C571 1.390 . S
C571 C570 1.390 . S
C571 C572 1.394 . S
C571 C577 1.465 . S
C572 C567 1.399 1_545 S
C572 C571 1.394 . S
C572 C573 1.516 . S
C573 C572 1.516 . S
C573 C574 1.502 . S
C573 C575 1.561 . S
C573 C576 1.526 . S
C574 H558 0.959 1_545 S
C574 H559 0.959 . S
C574 H560 0.961 1_545 S
C574 C573 1.502 . S
C575 H561 0.960 . S
C575 H562 0.961 . S
C575 H563 0.959 . S
C575 C573 1.561 . S
C576 C573 1.526 . S
C576 C577 1.396 . S
C576 C581 1.390 . S
C577 C571 1.465 . S
C577 C576 1.396 . S
C577 C578 1.399 . S
C578 H564 0.929 . S
C578 C577 1.399 . S
C578 C579 1.385 . S
C579 H565 0.931 . S
C579 C578 1.385 . S
C579 C580 1.389 . S
C580 C579 1.389 . S
C580 C581 1.387 . S
C581 H566 0.930 . S
C581 C576 1.390 . S
C581 C580 1.387 . S
H582 C594 0.930 . S
H583 C596 0.930 . S
H584 C597 0.930 . S
H585 C601 0.959 . S
H586 C601 0.959 . S
H587 C601 0.961 . S
H588 C602 0.954 1_565 S
H589 C602 0.961 . S
H590 C602 0.959 . S
H591 C605 0.929 . S
H592 C606 0.925 1_545 S
H593 C608 0.930 . S
C594 H582 0.930 . S
C594 C595 1.399 . S
C594 C599 1.399 . S
C595 C594 1.399 . S
C595 C596 1.376 . S
C596 H583 0.930 . S
C596 C595 1.376 . S
C596 C597 1.388 . S
C597 H584 0.930 . S
C597 C596 1.388 . S
C597 C598 1.390 . S
C598 C597 1.390 . S
C598 C599 1.394 . S
C598 C604 1.465 . S
C599 C594 1.399 . S
C599 C598 1.394 . S
C599 C600 1.516 . S
C600 C599 1.516 . S
C600 C601 1.502 . S
C600 C602 1.561 1_565 S
C600 C603 1.526 . S
C601 H585 0.959 . S
C601 H586 0.959 . S
C601 H587 0.961 . S
C601 C600 1.502 . S
C602 H588 0.954 1_545 S
C602 H589 0.961 . S
C602 H590 0.959 . S
C602 C600 1.561 1_545 S
C603 C600 1.526 . S
C603 C604 1.396 . S
C603 C608 1.390 1_565 S
C604 C598 1.465 . S
C604 C603 1.396 . S
C604 C605 1.399 . S
C605 H591 0.929 . S
C605 C604 1.399 . S
C605 C606 1.385 . S
C606 H592 0.925 1_565 S
C606 C605 1.385 . S
C606 C607 1.389 1_565 S
C607 C606 1.389 1_545 S
C607 C608 1.387 . S
C608 H593 0.930 . S
C608 C603 1.390 1_545 S
C608 C607 1.387 . S
H609 C621 0.930 . S
H610 C623 0.930 . S
H611 C624 0.930 . S
H612 C628 0.959 . S
H613 C628 0.959 . S
H614 C628 0.961 . S
H615 C629 0.960 . S
H616 C629 0.961 . S
H617 C629 0.959 . S
H618 C632 0.929 . S
H619 C633 0.931 . S
H620 C635 0.930 . S
C621 H609 0.930 . S
C621 C622 1.399 . S
C621 C626 1.399 . S
C622 C621 1.399 . S
C622 C623 1.376 . S
C623 H610 0.930 . S
C623 C622 1.376 . S
C623 C624 1.388 . S
C624 H611 0.930 . S
C624 C623 1.388 . S
C624 C625 1.390 . S
C625 C624 1.390 . S
C625 C626 1.394 . S
C625 C631 1.465 . S
C626 C621 1.399 . S
C626 C625 1.394 . S
C626 C627 1.516 . S
C627 C626 1.516 . S
C627 C628 1.502 . S
C627 C629 1.561 . S
C627 C630 1.526 . S
C628 H612 0.959 . S
C628 H613 0.959 . S
C628 H614 0.961 . S
C628 C627 1.502 . S
C629 H615 0.960 . S
C629 H616 0.961 . S
C629 H617 0.959 . S
C629 C627 1.561 . S
C630 C627 1.526 . S
C630 C631 1.396 . S
C630 C635 1.390 . S
C631 C625 1.465 . S
C631 C630 1.396 . S
C631 C632 1.399 . S
C632 H618 0.929 . S
C632 C631 1.399 . S
C632 C633 1.385 . S
C633 H619 0.931 . S
C633 C632 1.385 . S
C633 C634 1.389 . S
C634 C633 1.389 . S
C634 C635 1.387 . S
C635 H620 0.930 . S
C635 C630 1.390 . S
C635 C634 1.387 . S
H636 C648 0.930 . S
H637 C650 0.930 . S
H638 C651 0.930 . S
H639 C655 0.959 . S
H640 C655 0.959 . S
H641 C655 0.961 . S
H642 C656 0.960 . S
H643 C656 0.961 . S
H644 C656 0.959 . S
H645 C659 0.929 . S
H646 C660 0.931 . S
H647 C662 0.930 . S
C648 H636 0.930 . S
C648 C649 1.399 . S
C648 C653 1.399 . S
C649 C648 1.399 . S
C649 C650 1.376 . S
C650 H637 0.930 . S
C650 C649 1.376 . S
C650 C651 1.388 . S
C651 H638 0.930 . S
C651 C650 1.388 . S
C651 C652 1.390 . S
C652 C651 1.390 . S
C652 C653 1.394 . S
C652 C658 1.465 . S
C653 C648 1.399 . S
C653 C652 1.394 . S
C653 C654 1.516 . S
C654 C653 1.516 . S
C654 C655 1.502 . S
C654 C656 1.561 . S
C654 C657 1.526 . S
C655 H639 0.959 . S
C655 H640 0.959 . S
C655 H641 0.961 . S
C655 C654 1.502 . S
C656 H642 0.960 . S
C656 H643 0.961 . S
C656 H644 0.959 . S
C656 C654 1.561 . S
C657 C654 1.526 . S
C657 C658 1.396 . S
C657 C662 1.390 . S
C658 C652 1.465 . S
C658 C657 1.396 . S
C658 C659 1.399 . S
C659 H645 0.929 . S
C659 C658 1.399 . S
C659 C660 1.385 . S
C660 H646 0.931 . S
C660 C659 1.385 . S
C660 C661 1.389 . S
C661 C660 1.389 . S
C661 C662 1.387 . S
C662 H647 0.930 . S
C662 C657 1.390 . S
C662 C661 1.387 . S
H663 C675 0.930 . S
H664 C677 0.930 . S
H665 C678 0.930 . S
H666 C682 0.959 . S
H667 C682 0.959 . S
H668 C682 0.961 . S
H669 C683 0.960 . S
H670 C683 0.961 . S
H671 C683 0.959 1_545 S
H672 C686 0.929 . S
H673 C687 0.931 . S
H674 C689 0.930 . S
C675 H663 0.930 . S
C675 C676 1.399 . S
C675 C680 1.399 . S
C676 C675 1.399 . S
C676 C677 1.376 1_565 S
C677 H664 0.930 . S
C677 C676 1.376 1_545 S
C677 C678 1.388 . S
C678 H665 0.930 . S
C678 C677 1.388 . S
C678 C679 1.390 . S
C679 C678 1.390 . S
C679 C680 1.394 1_545 S
C679 C685 1.465 . S
C680 C675 1.399 . S
C680 C679 1.394 1_565 S
C680 C681 1.516 . S
C681 C680 1.516 . S
C681 C682 1.502 . S
C681 C683 1.561 . S
C681 C684 1.526 1_565 S
C682 H666 0.959 . S
C682 H667 0.959 . S
C682 H668 0.961 . S
C682 C681 1.502 . S
C683 H669 0.960 . S
C683 H670 0.961 . S
C683 H671 0.959 1_565 S
C683 C681 1.561 . S
C684 C681 1.526 1_545 S
C684 C685 1.396 . S
C684 C689 1.390 . S
C685 C679 1.465 . S
C685 C684 1.396 . S
C685 C686 1.399 . S
C686 H672 0.929 . S
C686 C685 1.399 . S
C686 C687 1.385 . S
C687 H673 0.931 . S
C687 C686 1.385 . S
C687 C688 1.389 . S
C688 C687 1.389 . S
C688 C689 1.387 . S
C689 H674 0.930 . S
C689 C684 1.390 . S
C689 C688 1.387 . S
H690 C702 0.930 . S
H691 C704 0.930 . S
H692 C705 0.930 . S
H693 C709 0.959 . S
H694 C709 0.959 . S
H695 C709 0.980 . S
H696 C710 0.960 . S
H697 C710 0.961 . S
H698 C710 0.959 . S
H699 C713 0.929 . S
H700 C714 0.931 . S
H701 C716 0.930 . S
C702 H690 0.930 . S
C702 C703 1.399 . S
C702 C707 1.399 . S
C703 C702 1.399 . S
C703 C704 1.376 . S
C704 H691 0.930 . S
C704 C703 1.376 . S
C704 C705 1.388 . S
C705 H692 0.930 . S
C705 C704 1.388 . S
C705 C706 1.390 . S
C706 C705 1.390 . S
C706 C707 1.394 . S
C706 C712 1.465 . S
C707 C702 1.399 . S
C707 C706 1.394 . S
C707 C708 1.516 . S
C708 C707 1.516 . S
C708 C709 1.502 1_556 S
C708 C710 1.561 . S
C708 C711 1.526 . S
C709 H693 0.959 . S
C709 H694 0.959 . S
C709 H695 0.980 . S
C709 C708 1.502 1_554 S
C710 H696 0.960 . S
C710 H697 0.961 . S
C710 H698 0.959 . S
C710 C708 1.561 . S
C711 C708 1.526 . S
C711 C712 1.396 . S
C711 C716 1.390 1_556 S
C712 C706 1.465 . S
C712 C711 1.396 . S
C712 C713 1.399 . S
C713 H699 0.929 . S
C713 C712 1.399 . S
C713 C714 1.385 1_556 S
C714 H700 0.931 . S
C714 C713 1.385 1_554 S
C714 C715 1.389 . S
C715 C714 1.389 . S
C715 C716 1.387 . S
C716 H701 0.930 . S
C716 C711 1.390 1_554 S
C716 C715 1.387 . S
H717 C729 0.930 . S
H718 C731 0.930 . S
H719 C732 0.930 . S
H720 C736 0.959 . S
H721 C736 0.959 . S
H722 C736 0.961 . S
H723 C737 0.960 . S
H724 C737 0.961 . S
H725 C737 0.959 . S
H726 C740 0.929 1_545 S
H727 C741 0.931 . S
H728 C743 0.930 . S
C729 H717 0.930 . S
C729 C730 1.399 1_565 S
C729 C734 1.399 . S
C730 C729 1.399 1_545 S
C730 C731 1.376 . S
C731 H718 0.930 . S
C731 C730 1.376 . S
C731 C732 1.388 . S
C732 H719 0.930 . S
C732 C731 1.388 . S
C732 C733 1.385 . S
C733 C732 1.385 . S
C733 C734 1.396 1_545 S
C733 C739 1.468 1_545 S
C734 C729 1.399 . S
C734 C733 1.396 1_565 S
C734 C735 1.516 . S
C735 C734 1.516 . S
C735 C736 1.502 . S
C735 C737 1.561 . S
C735 C738 1.526 . S
C736 H720 0.959 . S
C736 H721 0.959 . S
C736 H722 0.961 . S
C736 C735 1.502 . S
C737 H723 0.960 . S
C737 H724 0.961 . S
C737 H725 0.959 . S
C737 C735 1.561 . S
C738 C735 1.526 . S
C738 C739 1.396 . S
C738 C743 1.390 . S
C739 C733 1.468 1_565 S
C739 C738 1.396 . S
C739 C740 1.399 . S
C740 H726 0.929 1_565 S
C740 C739 1.399 . S
C740 C741 1.385 . S
C741 H727 0.931 . S
C741 C740 1.385 . S
C741 C742 1.389 . S
C742 C741 1.389 . S
C742 C743 1.387 . S
C743 H728 0.930 . S
C743 C738 1.390 . S
C743 C742 1.387 . S
H744 C756 0.930 . S
H745 C758 0.930 . S
H746 C759 0.930 . S
H747 C763 0.959 . S
H748 C763 0.959 . S
H749 C763 0.961 . S
H750 C764 0.960 . S
H751 C764 0.961 . S
H752 C764 0.959 . S
H753 C767 0.929 . S
H754 C768 0.931 . S
H755 C770 0.930 . S
C756 H744 0.930 . S
C756 C757 1.399 . S
C756 C761 1.399 . S
C757 C756 1.399 . S
C757 C758 1.376 . S
C758 H745 0.930 . S
C758 C757 1.376 . S
C758 C759 1.388 . S
C759 H746 0.930 . S
C759 C758 1.388 . S
C759 C760 1.390 . S
C760 C759 1.390 . S
C760 C761 1.394 . S
C760 C766 1.465 . S
C761 C756 1.399 . S
C761 C760 1.394 . S
C761 C762 1.516 . S
C762 C761 1.516 . S
C762 C763 1.502 . S
C762 C764 1.561 . S
C762 C765 1.526 . S
C763 H747 0.959 . S
C763 H748 0.959 . S
C763 H749 0.961 . S
C763 C762 1.502 . S
C764 H750 0.960 . S
C764 H751 0.961 . S
C764 H752 0.959 . S
C764 C762 1.561 . S
C765 C762 1.526 . S
C765 C766 1.396 . S
C765 C770 1.390 . S
C766 C760 1.465 . S
C766 C765 1.396 . S
C766 C767 1.399 . S
C767 H753 0.929 . S
C767 C766 1.399 . S
C767 C768 1.385 . S
C768 H754 0.931 . S
C768 C767 1.385 . S
C768 C769 1.389 . S
C769 C768 1.389 . S
C769 C770 1.387 . S
C770 H755 0.930 . S
C770 C765 1.390 . S
C770 C769 1.387 . S
H771 C783 0.930 . S
H772 C785 0.930 . S
H773 C786 0.930 . S
H774 C790 0.959 . S
H775 C790 0.959 . S
H776 C790 0.961 . S
H777 C791 0.960 . S
H778 C791 0.961 . S
H779 C791 0.959 . S
H780 C794 0.929 . S
H781 C795 0.931 . S
H782 C797 0.930 . S
C783 H771 0.930 . S
C783 C784 1.399 . S
C783 C788 1.399 . S
C784 C783 1.399 . S
C784 C785 1.376 . S
C785 H772 0.930 . S
C785 C784 1.376 . S
C785 C786 1.388 . S
C786 H773 0.930 . S
C786 C785 1.388 . S
C786 C787 1.390 . S
C787 C786 1.390 . S
C787 C788 1.394 . S
C787 C793 1.465 . S
C788 C783 1.399 . S
C788 C787 1.394 . S
C788 C789 1.516 . S
C789 C788 1.516 . S
C789 C790 1.502 . S
C789 C791 1.561 . S
C789 C792 1.526 . S
C790 H774 0.959 . S
C790 H775 0.959 . S
C790 H776 0.961 . S
C790 C789 1.502 . S
C791 H777 0.960 . S
C791 H778 0.961 . S
C791 H779 0.959 . S
C791 C789 1.561 . S
C792 C789 1.526 . S
C792 C793 1.396 . S
C792 C797 1.390 . S
C793 C787 1.465 . S
C793 C792 1.396 . S
C793 C794 1.399 . S
C794 H780 0.929 . S
C794 C793 1.399 . S
C794 C795 1.385 . S
C795 H781 0.931 . S
C795 C794 1.385 . S
C795 C796 1.389 . S
C796 C795 1.389 . S
C796 C797 1.387 . S
C797 H782 0.930 . S
C797 C792 1.390 . S
C797 C796 1.387 . S
H798 C810 0.930 . S
H799 C812 0.930 . S
H800 C813 0.930 . S
H801 C817 0.959 . S
H802 C817 0.959 . S
H803 C817 0.961 . S
H804 C818 0.960 1_556 S
H805 C818 0.961 . S
H806 C818 0.959 . S
H807 C821 0.929 . S
H808 C822 0.931 . S
H809 C824 0.930 . S
C810 H798 0.930 . S
C810 C811 1.399 . S
C810 C815 1.399 . S
C811 C810 1.399 . S
C811 C812 1.376 1_556 S
C812 H799 0.930 . S
C812 C811 1.376 1_554 S
C812 C813 1.388 . S
C813 H800 0.930 . S
C813 C812 1.388 . S
C813 C814 1.390 . S
C814 C813 1.390 . S
C814 C815 1.394 1_554 S
C814 C820 1.465 . S
C815 C810 1.399 . S
C815 C814 1.394 1_556 S
C815 C816 1.516 . S
C816 C815 1.516 . S
C816 C817 1.501 . S
C816 C818 1.561 1_556 S
C816 C819 1.527 1_556 S
C817 H801 0.959 . S
C817 H802 0.959 . S
C817 H803 0.961 . S
C817 C816 1.501 . S
C818 H804 0.960 1_554 S
C818 H805 0.961 . S
C818 H806 0.959 . S
C818 C816 1.561 1_554 S
C819 C816 1.527 1_554 S
C819 C820 1.396 . S
C819 C824 1.390 . S
C820 C814 1.465 . S
C820 C819 1.396 . S
C820 C821 1.399 . S
C821 H807 0.929 . S
C821 C820 1.399 . S
C821 C822 1.385 . S
C822 H808 0.931 . S
C822 C821 1.385 . S
C822 C823 1.389 . S
C823 C822 1.389 . S
C823 C824 1.387 . S
C824 H809 0.930 . S
C824 C819 1.390 . S
C824 C823 1.387 . S
H825 C837 0.930 . S
H826 C839 0.930 . S
H827 C840 0.930 . S
H828 C844 0.959 . S
H829 C844 0.959 . S
H830 C844 0.961 . S
H831 C845 0.960 . S
H832 C845 0.961 . S
H833 C845 0.959 . S
H834 C848 0.929 . S
H835 C849 0.931 . S
H836 C851 0.930 . S
C837 H825 0.930 . S
C837 C838 1.399 . S
C837 C842 1.399 . S
C838 C837 1.399 . S
C838 C839 1.376 . S
C839 H826 0.930 . S
C839 C838 1.376 . S
C839 C840 1.388 . S
C840 H827 0.930 . S
C840 C839 1.388 . S
C840 C841 1.390 . S
C841 C840 1.390 . S
C841 C842 1.394 . S
C841 C847 1.465 . S
C842 C837 1.399 . S
C842 C841 1.394 . S
C842 C843 1.516 . S
C843 C842 1.516 . S
C843 C844 1.502 . S
C843 C845 1.561 . S
C843 C846 1.526 . S
C844 H828 0.959 . S
C844 H829 0.959 . S
C844 H830 0.961 . S
C844 C843 1.502 . S
C845 H831 0.960 . S
C845 H832 0.961 . S
C845 H833 0.959 . S
C845 C843 1.561 . S
C846 C843 1.526 . S
C846 C847 1.396 . S
C846 C851 1.390 . S
C847 C841 1.465 . S
C847 C846 1.396 . S
C847 C848 1.399 . S
C848 H834 0.929 . S
C848 C847 1.399 . S
C848 C849 1.385 . S
C849 H835 0.931 . S
C849 C848 1.385 . S
C849 C850 1.389 . S
C850 C849 1.389 . S
C850 C851 1.387 . S
C851 H836 0.930 . S
C851 C846 1.390 . S
C851 C850 1.387 . S
H852 C864 0.930 . S
H853 C866 0.930 . S
H854 C867 0.930 . S
H855 C871 0.959 . S
H856 C871 0.959 . S
H857 C871 0.961 . S
H858 C872 0.960 . S
H859 C872 0.961 . S
H860 C872 0.959 . S
H861 C875 0.929 . S
H862 C876 0.931 . S
H863 C878 0.930 . S
C864 H852 0.930 . S
C864 C865 1.399 . S
C864 C869 1.399 . S
C865 C864 1.399 . S
C865 C866 1.376 . S
C866 H853 0.930 . S
C866 C865 1.376 . S
C866 C867 1.388 . S
C867 H854 0.930 . S
C867 C866 1.388 . S
C867 C868 1.390 . S
C868 C867 1.390 . S
C868 C869 1.394 . S
C868 C874 1.465 . S
C869 C864 1.399 . S
C869 C868 1.394 . S
C869 C870 1.516 . S
C870 C869 1.516 . S
C870 C871 1.502 . S
C870 C872 1.561 . S
C870 C873 1.526 . S
C871 H855 0.959 . S
C871 H856 0.959 . S
C871 H857 0.961 . S
C871 C870 1.502 . S
C872 H858 0.960 . S
C872 H859 0.961 . S
C872 H860 0.959 . S
C872 C870 1.561 . S
C873 C870 1.526 . S
C873 C874 1.396 . S
C873 C878 1.390 . S
C874 C868 1.465 . S
C874 C873 1.396 . S
C874 C875 1.399 . S
C875 H861 0.929 . S
C875 C874 1.399 . S
C875 C876 1.385 . S
C876 H862 0.931 . S
C876 C875 1.385 . S
C876 C877 1.389 . S
C877 C876 1.389 . S
C877 C878 1.387 . S
C878 H863 0.930 . S
C878 C873 1.390 . S
C878 C877 1.387 . S
H879 C891 0.930 . S
H880 C893 0.930 . S
H881 C894 0.930 . S
H882 C898 0.959 . S
H883 C898 0.959 . S
H884 C898 0.961 . S
H885 C899 0.960 . S
H886 C899 0.961 . S
H887 C899 0.959 . S
H888 C902 0.929 1_455 S
H889 C903 0.931 . S
H890 C905 0.930 . S
C891 H879 0.930 . S
C891 C892 1.399 1_655 S
C891 C896 1.399 . S
C892 C891 1.399 1_455 S
C892 C893 1.376 . S
C893 H880 0.930 . S
C893 C892 1.376 . S
C893 C894 1.388 . S
C894 H881 0.930 . S
C894 C893 1.388 . S
C894 C895 1.390 1_455 S
C895 C894 1.390 1_655 S
C895 C896 1.394 . S
C895 C901 1.465 . S
C896 C891 1.399 . S
C896 C895 1.394 . S
C896 C897 1.516 . S
C897 C896 1.516 . S
C897 C898 1.502 . S
C897 C899 1.561 . S
C897 C900 1.526 . S
C898 H882 0.959 . S
C898 H883 0.959 . S
C898 H884 0.961 . S
C898 C897 1.502 . S
C899 H885 0.960 . S
C899 H886 0.961 . S
C899 H887 0.959 . S
C899 C897 1.561 . S
C900 C897 1.526 . S
C900 C901 1.396 . S
C900 C905 1.390 . S
C901 C895 1.465 . S
C901 C900 1.396 . S
C901 C902 1.399 . S
C902 H888 0.929 1_655 S
C902 C901 1.399 . S
C902 C903 1.385 . S
C903 H889 0.931 . S
C903 C902 1.385 . S
C903 C904 1.389 . S
C904 C903 1.389 . S
C904 C905 1.387 . S
C905 H890 0.930 . S
C905 C900 1.390 . S
C905 C904 1.387 . S
H906 C918 0.930 . S
H907 C920 0.930 . S
H908 C921 0.930 . S
H909 C925 0.959 . S
H910 C925 0.959 . S
H911 C925 0.961 . S
H912 C926 0.960 . S
H913 C926 0.961 . S
H914 C926 0.959 1_455 S
H915 C929 0.929 . S
H916 C930 0.931 . S
H917 C932 0.930 . S
C918 H906 0.930 . S
C918 C919 1.399 . S
C918 C923 1.399 . S
C919 C918 1.399 . S
C919 C920 1.376 1_655 S
C920 H907 0.930 . S
C920 C919 1.376 1_455 S
C920 C921 1.388 . S
C921 H908 0.930 . S
C921 C920 1.388 . S
C921 C922 1.390 . S
C922 C921 1.390 . S
C922 C923 1.394 1_455 S
C922 C928 1.465 . S
C923 C918 1.399 . S
C923 C922 1.394 1_655 S
C923 C924 1.516 . S
C924 C923 1.516 . S
C924 C925 1.502 . S
C924 C926 1.561 . S
C924 C927 1.526 1_655 S
C925 H909 0.959 . S
C925 H910 0.959 . S
C925 H911 0.961 . S
C925 C924 1.502 . S
C926 H912 0.960 . S
C926 H913 0.961 . S
C926 H914 0.959 1_655 S
C926 C924 1.561 . S
C927 C924 1.526 1_455 S
C927 C928 1.396 . S
C927 C932 1.390 . S
C928 C922 1.465 . S
C928 C927 1.396 . S
C928 C929 1.399 . S
C929 H915 0.929 . S
C929 C928 1.399 . S
C929 C930 1.385 . S
C930 H916 0.931 . S
C930 C929 1.385 . S
C930 C931 1.389 . S
C931 C930 1.389 . S
C931 C932 1.387 . S
C932 H917 0.930 . S
C932 C927 1.390 . S
C932 C931 1.387 . S
H933 C945 0.930 . S
H934 C947 0.930 . S
H935 C948 0.930 . S
H936 C952 0.959 . S
H937 C952 0.959 . S
H938 C952 0.961 . S
H939 C953 0.960 . S
H940 C953 0.961 . S
H941 C953 0.959 . S
H942 C956 0.929 . S
H943 C957 0.931 . S
H944 C959 0.930 . S
C945 H933 0.930 . S
C945 C946 1.399 . S
C945 C950 1.399 . S
C946 C945 1.399 . S
C946 C947 1.376 . S
C947 H934 0.930 . S
C947 C946 1.376 . S
C947 C948 1.388 . S
C948 H935 0.930 . S
C948 C947 1.388 . S
C948 C949 1.390 . S
C949 C948 1.390 . S
C949 C950 1.394 . S
C949 C955 1.465 . S
C950 C945 1.399 . S
C950 C949 1.394 . S
C950 C951 1.516 . S
C951 C950 1.516 . S
C951 C952 1.502 . S
C951 C953 1.561 . S
C951 C954 1.526 . S
C952 H936 0.959 . S
C952 H937 0.959 . S
C952 H938 0.961 . S
C952 C951 1.502 . S
C953 H939 0.960 . S
C953 H940 0.961 . S
C953 H941 0.959 . S
C953 C951 1.561 . S
C954 C951 1.526 . S
C954 C955 1.396 . S
C954 C959 1.390 . S
C955 C949 1.465 . S
C955 C954 1.396 . S
C955 C956 1.399 . S
C956 H942 0.929 . S
C956 C955 1.399 . S
C956 C957 1.385 . S
C957 H943 0.931 . S
C957 C956 1.385 . S
C957 C958 1.389 . S
C958 C957 1.389 . S
C958 C959 1.387 . S
C959 H944 0.930 . S
C959 C954 1.390 . S
C959 C958 1.387 . S
H960 C972 0.930 . S
H961 C974 0.930 . S
H962 C975 0.930 . S
H963 C979 0.959 . S
H964 C979 0.959 . S
H965 C979 0.961 . S
H966 C980 0.960 . S
H967 C980 0.961 . S
H968 C980 0.959 . S
H969 C983 0.929 . S
H970 C984 0.931 . S
H971 C986 0.930 . S
C972 H960 0.930 . S
C972 C973 1.399 . S
C972 C977 1.399 . S
C973 C972 1.399 . S
C973 C974 1.376 . S
C974 H961 0.930 . S
C974 C973 1.376 . S
C974 C975 1.388 . S
C975 H962 0.930 . S
C975 C974 1.388 . S
C975 C976 1.390 . S
C976 C975 1.390 . S
C976 C977 1.394 . S
C976 C982 1.465 . S
C977 C972 1.399 . S
C977 C976 1.394 . S
C977 C978 1.516 . S
C978 C977 1.516 . S
C978 C979 1.502 . S
C978 C980 1.561 . S
C978 C981 1.526 . S
C979 H963 0.959 . S
C979 H964 0.959 . S
C979 H965 0.961 . S
C979 C978 1.502 . S
C980 H966 0.960 . S
C980 H967 0.961 . S
C980 H968 0.959 . S
C980 C978 1.561 . S
C981 C978 1.526 . S
C981 C982 1.396 . S
C981 C986 1.390 . S
C982 C976 1.465 . S
C982 C981 1.396 . S
C982 C983 1.399 . S
C983 H969 0.929 . S
C983 C982 1.399 . S
C983 C984 1.385 . S
C984 H970 0.931 . S
C984 C983 1.385 . S
C984 C985 1.389 . S
C985 C984 1.389 . S
C985 C986 1.387 . S
C986 H971 0.930 . S
C986 C981 1.390 . S
C986 C985 1.387 . S
H987 C999 0.930 . S
H988 C1001 0.930 . S
H989 C1002 0.930 . S
H990 C1006 0.959 . S
H991 C1006 0.959 . S
H992 C1006 0.961 1_545 S
H993 C1007 0.960 . S
H994 C1007 0.961 . S
H995 C1007 0.959 . S
H996 C1010 0.929 . S
H997 C1011 0.931 . S
H998 C1013 0.930 . S
C999 H987 0.930 . S
C999 C1000 1.399 . S
C999 C1004 1.399 1_545 S
C1000 C999 1.399 . S
C1000 C1001 1.376 1_545 S
C1001 H988 0.930 . S
C1001 C1000 1.376 1_565 S
C1001 C1002 1.388 . S
C1002 H989 0.930 . S
C1002 C1001 1.388 . S
C1002 C1003 1.390 . S
C1003 C1002 1.390 . S
C1003 C1004 1.394 . S
C1003 C1009 1.465 . S
C1004 C999 1.399 1_565 S
C1004 C1003 1.394 . S
C1004 C1005 1.516 . S
C1005 C1004 1.516 . S
C1005 C1006 1.502 . S
C1005 C1007 1.561 1_565 S
C1005 C1008 1.526 . S
C1006 H990 0.959 . S
C1006 H991 0.959 . S
C1006 H992 0.961 1_565 S
C1006 C1005 1.502 . S
C1007 H993 0.960 . S
C1007 H994 0.961 . S
C1007 H995 0.959 . S
C1007 C1005 1.561 1_545 S
C1008 C1005 1.526 . S
C1008 C1009 1.396 . S
C1008 C1013 1.390 . S
C1009 C1003 1.465 . S
C1009 C1008 1.396 . S
C1009 C1010 1.399 . S
C1010 H996 0.929 . S
C1010 C1009 1.399 . S
C1010 C1011 1.385 . S
C1011 H997 0.931 . S
C1011 C1010 1.385 . S
C1011 C1012 1.389 . S
C1012 C1011 1.389 . S
C1012 C1013 1.387 . S
C1013 H998 0.930 . S
C1013 C1008 1.390 . S
C1013 C1012 1.387 . S
H1014 C1026 0.930 . S
H1015 C1028 0.930 . S
H1016 C1029 0.930 . S
H1017 C1033 0.959 . S
H1018 C1033 0.959 . S
H1019 C1033 0.961 . S
H1020 C1034 0.960 . S
H1021 C1034 0.961 . S
H1022 C1034 0.959 . S
H1023 C1037 0.929 . S
H1024 C1038 0.931 . S
H1025 C1040 0.930 . S
C1026 H1014 0.930 . S
C1026 C1027 1.399 . S
C1026 C1031 1.399 . S
C1027 C1026 1.399 . S
C1027 C1028 1.376 . S
C1028 H1015 0.930 . S
C1028 C1027 1.376 . S
C1028 C1029 1.388 . S
C1029 H1016 0.930 . S
C1029 C1028 1.388 . S
C1029 C1030 1.390 . S
C1030 C1029 1.390 . S
C1030 C1031 1.394 . S
C1030 C1036 1.465 . S
C1031 C1026 1.399 . S
C1031 C1030 1.394 . S
C1031 C1032 1.516 . S
C1032 C1031 1.516 . S
C1032 C1033 1.502 . S
C1032 C1034 1.561 . S
C1032 C1035 1.526 . S
C1033 H1017 0.959 . S
C1033 H1018 0.959 . S
C1033 H1019 0.961 . S
C1033 C1032 1.502 . S
C1034 H1020 0.960 . S
C1034 H1021 0.961 . S
C1034 H1022 0.959 . S
C1034 C1032 1.561 . S
C1035 C1032 1.526 . S
C1035 C1036 1.396 . S
C1035 C1040 1.390 . S
C1036 C1030 1.465 . S
C1036 C1035 1.396 . S
C1036 C1037 1.399 . S
C1037 H1023 0.929 . S
C1037 C1036 1.399 . S
C1037 C1038 1.385 . S
C1038 H1024 0.931 . S
C1038 C1037 1.385 . S
C1038 C1039 1.389 . S
C1039 C1038 1.389 . S
C1039 C1040 1.387 . S
C1040 H1025 0.930 . S
C1040 C1035 1.390 . S
C1040 C1039 1.387 . S
H1041 C1053 0.930 . S
H1042 C1055 0.930 . S
H1043 C1056 0.930 1_565 S
H1044 C1060 0.959 . S
H1045 C1060 0.959 1_556 S
H1046 C1060 0.961 . S
H1047 C1061 0.960 . S
H1048 C1061 0.961 . S
H1049 C1061 0.959 . S
H1050 C1064 0.929 . S
H1051 C1065 0.931 . S
H1052 C1067 0.950 . S
C1053 H1041 0.930 . S
C1053 C1054 1.399 . S
C1053 C1058 1.399 . S
C1054 C1053 1.399 . S
C1054 C1055 1.376 . S
C1055 H1042 0.930 . S
C1055 C1054 1.376 . S
C1055 C1056 1.388 . S
C1056 H1043 0.930 1_545 S
C1056 C1055 1.388 . S
C1056 C1057 1.390 . S
C1057 C1056 1.390 . S
C1057 C1058 1.394 . S
C1057 C1063 1.465 . S
C1058 C1053 1.399 . S
C1058 C1057 1.394 . S
C1058 C1059 1.516 . S
C1059 C1058 1.516 . S
C1059 C1060 1.502 . S
C1059 C1061 1.561 . S
C1059 C1062 1.526 . S
C1060 H1044 0.959 . S
C1060 H1045 0.959 1_554 S
C1060 H1046 0.961 . S
C1060 C1059 1.502 . S
C1061 H1047 0.960 . S
C1061 H1048 0.961 . S
C1061 H1049 0.959 . S
C1061 C1059 1.561 . S
C1062 C1059 1.526 . S
C1062 C1063 1.396 . S
C1062 C1067 1.366 1_554 S
C1063 C1057 1.465 . S
C1063 C1062 1.396 . S
C1063 C1064 1.399 1_545 S
C1064 H1050 0.929 . S
C1064 C1063 1.399 1_565 S
C1064 C1065 1.385 . S
C1065 H1051 0.931 . S
C1065 C1064 1.385 . S
C1065 C1066 1.389 1_554 S
C1066 C1065 1.389 1_556 S
C1066 C1067 1.390 1_565 S
C1067 H1052 0.950 . S
C1067 C1062 1.366 1_556 S
C1067 C1066 1.390 1_545 S
H1068 C1080 0.930 . S
H1069 C1082 0.930 . S
H1070 C1083 0.930 . S
H1071 C1087 0.959 . S
H1072 C1087 0.959 . S
H1073 C1087 0.961 . S
H1074 C1088 0.960 . S
H1075 C1088 0.961 . S
H1076 C1088 0.959 . S
H1077 C1091 0.929 . S
H1078 C1092 0.931 . S
H1079 C1094 0.930 . S
C1080 H1068 0.930 . S
C1080 C1081 1.399 . S
C1080 C1085 1.399 . S
C1081 C1080 1.399 . S
C1081 C1082 1.376 . S
C1082 H1069 0.930 . S
C1082 C1081 1.376 . S
C1082 C1083 1.388 . S
C1083 H1070 0.930 . S
C1083 C1082 1.388 . S
C1083 C1084 1.390 . S
C1084 C1083 1.390 . S
C1084 C1085 1.394 . S
C1084 C1090 1.465 . S
C1085 C1080 1.399 . S
C1085 C1084 1.394 . S
C1085 C1086 1.516 . S
C1086 C1085 1.516 . S
C1086 C1087 1.502 . S
C1086 C1088 1.561 . S
C1086 C1089 1.526 . S
C1087 H1071 0.959 . S
C1087 H1072 0.959 . S
C1087 H1073 0.961 . S
C1087 C1086 1.502 . S
C1088 H1074 0.960 . S
C1088 H1075 0.961 . S
C1088 H1076 0.959 . S
C1088 C1086 1.561 . S
C1089 C1086 1.526 . S
C1089 C1090 1.396 . S
C1089 C1094 1.390 . S
C1090 C1084 1.465 . S
C1090 C1089 1.396 . S
C1090 C1091 1.399 . S
C1091 H1077 0.929 . S
C1091 C1090 1.399 . S
C1091 C1092 1.385 . S
C1092 H1078 0.931 . S
C1092 C1091 1.385 . S
C1092 C1093 1.389 . S
C1093 C1092 1.389 . S
C1093 C1094 1.387 . S
C1094 H1079 0.930 . S
C1094 C1089 1.390 . S
C1094 C1093 1.387 . S
H1095 C1107 0.927 1_554 S
H1096 C1109 0.930 . S
H1097 C1110 0.930 . S
H1098 C1114 0.959 . S
H1099 C1114 0.959 . S
H1100 C1114 0.961 . S
H1101 C1115 0.960 1_554 S
H1102 C1115 0.961 . S
H1103 C1115 0.959 . S
H1104 C1118 0.929 . S
H1105 C1119 0.931 . S
H1106 C1121 0.930 . S
C1107 H1095 0.927 1_556 S
C1107 C1108 1.398 1_556 S
C1107 C1112 1.403 . S
C1108 C1107 1.398 1_554 S
C1108 C1109 1.376 1_554 S
C1109 H1096 0.930 . S
C1109 C1108 1.376 1_556 S
C1109 C1110 1.388 . S
C1110 H1097 0.930 . S
C1110 C1109 1.388 . S
C1110 C1111 1.390 . S
C1111 C1110 1.390 . S
C1111 C1112 1.394 . S
C1111 C1117 1.465 . S
C1112 C1107 1.403 . S
C1112 C1111 1.394 . S
C1112 C1113 1.516 . S
C1113 C1112 1.516 . S
C1113 C1114 1.502 . S
C1113 C1115 1.561 . S
C1113 C1116 1.526 . S
C1114 H1098 0.959 . S
C1114 H1099 0.959 . S
C1114 H1100 0.961 . S
C1114 C1113 1.502 . S
C1115 H1101 0.960 1_556 S
C1115 H1102 0.961 . S
C1115 H1103 0.959 . S
C1115 C1113 1.561 . S
C1116 C1113 1.526 . S
C1116 C1117 1.396 . S
C1116 C1121 1.390 . S
C1117 C1111 1.465 . S
C1117 C1116 1.396 . S
C1117 C1118 1.399 . S
C1118 H1104 0.929 . S
C1118 C1117 1.399 . S
C1118 C1119 1.385 . S
C1119 H1105 0.931 . S
C1119 C1118 1.385 . S
C1119 C1120 1.389 . S
C1120 C1119 1.389 . S
C1120 C1121 1.387 . S
C1121 H1106 0.930 . S
C1121 C1116 1.390 . S
C1121 C1120 1.387 . S
H1122 C1134 0.930 . S
H1123 C1136 0.930 . S
H1124 C1137 0.930 . S
H1125 C1141 0.959 . S
H1126 C1141 0.959 . S
H1127 C1141 0.961 . S
H1128 C1142 0.960 . S
H1129 C1142 0.961 . S
H1130 C1142 0.959 . S
H1131 C1145 0.929 . S
H1132 C1146 0.931 . S
H1133 C1148 0.930 . S
C1134 H1122 0.930 . S
C1134 C1135 1.399 . S
C1134 C1139 1.399 . S
C1135 C1134 1.399 . S
C1135 C1136 1.376 . S
C1136 H1123 0.930 . S
C1136 C1135 1.376 . S
C1136 C1137 1.388 . S
C1137 H1124 0.930 . S
C1137 C1136 1.388 . S
C1137 C1138 1.390 . S
C1138 C1137 1.390 . S
C1138 C1139 1.394 . S
C1138 C1144 1.465 . S
C1139 C1134 1.399 . S
C1139 C1138 1.394 . S
C1139 C1140 1.516 . S
C1140 C1139 1.516 . S
C1140 C1141 1.502 . S
C1140 C1142 1.561 . S
C1140 C1143 1.526 . S
C1141 H1125 0.959 . S
C1141 H1126 0.959 . S
C1141 H1127 0.961 . S
C1141 C1140 1.502 . S
C1142 H1128 0.960 . S
C1142 H1129 0.961 . S
C1142 H1130 0.959 . S
C1142 C1140 1.561 . S
C1143 C1140 1.526 . S
C1143 C1144 1.396 . S
C1143 C1148 1.390 . S
C1144 C1138 1.465 . S
C1144 C1143 1.396 . S
C1144 C1145 1.399 . S
C1145 H1131 0.929 . S
C1145 C1144 1.399 . S
C1145 C1146 1.385 . S
C1146 H1132 0.931 . S
C1146 C1145 1.385 . S
C1146 C1147 1.389 . S
C1147 C1146 1.389 . S
C1147 C1148 1.387 . S
C1148 H1133 0.930 . S
C1148 C1143 1.390 . S
C1148 C1147 1.387 . S
H1149 C1161 0.930 . S
H1150 C1163 0.930 . S
H1151 C1164 0.930 . S
H1152 C1168 0.959 . S
H1153 C1168 0.959 . S
H1154 C1168 0.961 . S
H1155 C1169 0.960 . S
H1156 C1169 0.961 . S
H1157 C1169 0.959 . S
H1158 C1172 0.929 . S
H1159 C1173 0.931 . S
H1160 C1175 0.930 . S
C1161 H1149 0.930 . S
C1161 C1162 1.399 . S
C1161 C1166 1.399 . S
C1162 C1161 1.399 . S
C1162 C1163 1.376 . S
C1163 H1150 0.930 . S
C1163 C1162 1.376 . S
C1163 C1164 1.388 . S
C1164 H1151 0.930 . S
C1164 C1163 1.388 . S
C1164 C1165 1.390 . S
C1165 C1164 1.390 . S
C1165 C1166 1.394 . S
C1165 C1171 1.465 . S
C1166 C1161 1.399 . S
C1166 C1165 1.394 . S
C1166 C1167 1.516 . S
C1167 C1166 1.516 . S
C1167 C1168 1.502 . S
C1167 C1169 1.561 . S
C1167 C1170 1.526 . S
C1168 H1152 0.959 . S
C1168 H1153 0.959 . S
C1168 H1154 0.961 . S
C1168 C1167 1.502 . S
C1169 H1155 0.960 . S
C1169 H1156 0.961 . S
C1169 H1157 0.959 . S
C1169 C1167 1.561 . S
C1170 C1167 1.526 . S
C1170 C1171 1.396 . S
C1170 C1175 1.390 . S
C1171 C1165 1.465 . S
C1171 C1170 1.396 . S
C1171 C1172 1.399 . S
C1172 H1158 0.929 . S
C1172 C1171 1.399 . S
C1172 C1173 1.385 . S
C1173 H1159 0.931 . S
C1173 C1172 1.385 . S
C1173 C1174 1.389 . S
C1174 C1173 1.389 . S
C1174 C1175 1.387 . S
C1175 H1160 0.930 . S
C1175 C1170 1.390 . S
C1175 C1174 1.387 . S
H1176 C1188 0.930 . S
H1177 C1190 0.930 . S
H1178 C1191 0.930 . S
H1179 C1195 0.959 . S
H1180 C1195 0.959 . S
H1181 C1195 0.961 . S
H1182 C1196 0.960 . S
H1183 C1196 0.961 . S
H1184 C1196 0.959 . S
H1185 C1199 0.929 . S
H1186 C1200 0.931 . S
H1187 C1202 0.930 . S
C1188 H1176 0.930 . S
C1188 C1189 1.399 . S
C1188 C1193 1.399 . S
C1189 C1188 1.399 . S
C1189 C1190 1.376 . S
C1190 H1177 0.930 . S
C1190 C1189 1.376 . S
C1190 C1191 1.388 . S
C1191 H1178 0.930 . S
C1191 C1190 1.388 . S
C1191 C1192 1.390 . S
C1192 C1191 1.390 . S
C1192 C1193 1.394 . S
C1192 C1198 1.465 . S
C1193 C1188 1.399 . S
C1193 C1192 1.394 . S
C1193 C1194 1.516 . S
C1194 C1193 1.516 . S
C1194 C1195 1.502 . S
C1194 C1196 1.561 . S
C1194 C1197 1.526 . S
C1195 H1179 0.959 . S
C1195 H1180 0.959 . S
C1195 H1181 0.961 . S
C1195 C1194 1.502 . S
C1196 H1182 0.960 . S
C1196 H1183 0.961 . S
C1196 H1184 0.959 . S
C1196 C1194 1.561 . S
C1197 C1194 1.526 . S
C1197 C1198 1.396 . S
C1197 C1202 1.390 . S
C1198 C1192 1.465 . S
C1198 C1197 1.396 . S
C1198 C1199 1.399 . S
C1199 H1185 0.929 . S
C1199 C1198 1.399 . S
C1199 C1200 1.385 . S
C1200 H1186 0.931 . S
C1200 C1199 1.385 . S
C1200 C1201 1.389 . S
C1201 C1200 1.389 . S
C1201 C1202 1.387 . S
C1202 H1187 0.930 . S
C1202 C1197 1.390 . S
C1202 C1201 1.387 . S
H1203 C1215 0.923 1_565 S
H1204 C1217 0.930 . S
H1205 C1218 0.930 . S
H1206 C1222 0.959 . S
H1207 C1222 0.959 . S
H1208 C1222 0.961 1_565 S
H1209 C1223 0.960 1_655 S
H1210 C1223 0.961 . S
H1211 C1223 0.959 1_655 S
H1212 C1226 0.929 . S
H1213 C1227 0.931 . S
H1214 C1229 0.930 . S
C1215 H1203 0.923 1_545 S
C1215 C1216 1.398 1_445 S
C1215 C1220 1.407 . S
C1216 C1215 1.398 1_665 S
C1216 C1217 1.376 1_565 S
C1217 H1204 0.930 . S
C1217 C1216 1.376 1_545 S
C1217 C1218 1.388 1_655 S
C1218 H1205 0.930 . S
C1218 C1217 1.388 1_455 S
C1218 C1219 1.390 . S
C1219 C1218 1.390 . S
C1219 C1220 1.394 . S
C1219 C1225 1.465 . S
C1220 C1215 1.407 . S
C1220 C1219 1.394 . S
C1220 C1221 1.516 . S
C1221 C1220 1.516 . S
C1221 C1222 1.502 . S
C1221 C1223 1.561 . S
C1221 C1224 1.526 . S
C1222 H1206 0.959 . S
C1222 H1207 0.959 . S
C1222 H1208 0.961 1_545 S
C1222 C1221 1.502 . S
C1223 H1209 0.960 1_455 S
C1223 H1210 0.961 . S
C1223 H1211 0.959 1_455 S
C1223 C1221 1.561 . S
C1224 C1221 1.526 . S
C1224 C1225 1.396 . S
C1224 C1229 1.390 . S
C1225 C1219 1.465 . S
C1225 C1224 1.396 . S
C1225 C1226 1.399 . S
C1226 H1212 0.929 . S
C1226 C1225 1.399 . S
C1226 C1227 1.385 . S
C1227 H1213 0.931 . S
C1227 C1226 1.385 . S
C1227 C1228 1.389 . S
C1228 C1227 1.389 . S
C1228 C1229 1.387 . S
C1229 H1214 0.930 . S
C1229 C1224 1.390 . S
C1229 C1228 1.387 . S
H1230 C1242 0.930 . S
H1231 C1244 0.930 . S
H1232 C1245 0.930 . S
H1233 C1249 0.959 . S
H1234 C1249 0.959 . S
H1235 C1249 0.961 . S
H1236 C1250 0.960 . S
H1237 C1250 0.961 . S
H1238 C1250 0.959 . S
H1239 C1253 0.929 . S
H1240 C1254 0.931 . S
H1241 C1256 0.930 . S
C1242 H1230 0.930 . S
C1242 C1243 1.399 . S
C1242 C1247 1.399 . S
C1243 C1242 1.399 . S
C1243 C1244 1.376 . S
C1244 H1231 0.930 . S
C1244 C1243 1.376 . S
C1244 C1245 1.388 . S
C1245 H1232 0.930 . S
C1245 C1244 1.388 . S
C1245 C1246 1.390 . S
C1246 C1245 1.390 . S
C1246 C1247 1.394 . S
C1246 C1252 1.465 . S
C1247 C1242 1.399 . S
C1247 C1246 1.394 . S
C1247 C1248 1.516 . S
C1248 C1247 1.516 . S
C1248 C1249 1.502 . S
C1248 C1250 1.561 . S
C1248 C1251 1.526 . S
C1249 H1233 0.959 . S
C1249 H1234 0.959 . S
C1249 H1235 0.961 . S
C1249 C1248 1.502 . S
C1250 H1236 0.960 . S
C1250 H1237 0.961 . S
C1250 H1238 0.959 . S
C1250 C1248 1.561 . S
C1251 C1248 1.526 . S
C1251 C1252 1.396 . S
C1251 C1256 1.390 . S
C1252 C1246 1.465 . S
C1252 C1251 1.396 . S
C1252 C1253 1.399 . S
C1253 H1239 0.929 . S
C1253 C1252 1.399 . S
C1253 C1254 1.385 . S
C1254 H1240 0.931 . S
C1254 C1253 1.385 . S
C1254 C1255 1.389 . S
C1255 C1254 1.389 . S
C1255 C1256 1.387 . S
C1256 H1241 0.930 . S
C1256 C1251 1.390 . S
C1256 C1255 1.387 . S
H1257 C1269 0.929 . S
H1258 C1271 0.930 1_545 S
H1259 C1272 0.930 . S
H1260 C1276 0.959 . S
H1261 C1276 0.959 . S
H1262 C1276 0.961 . S
H1263 C1277 0.960 . S
H1264 C1277 0.961 . S
H1265 C1277 0.959 . S
H1266 C1280 0.929 . S
H1267 C1281 0.931 . S
H1268 C1283 0.930 . S
C1269 H1257 0.929 . S
C1269 C1270 1.399 1_565 S
C1269 C1274 1.399 . S
C1270 C1269 1.399 1_545 S
C1270 C1271 1.376 1_545 S
C1271 H1258 0.930 1_565 S
C1271 C1270 1.376 1_565 S
C1271 C1272 1.388 . S
C1272 H1259 0.930 . S
C1272 C1271 1.388 . S
C1272 C1273 1.390 . S
C1273 C1272 1.390 . S
C1273 C1274 1.394 . S
C1273 C1279 1.465 . S
C1274 C1269 1.399 . S
C1274 C1273 1.394 . S
C1274 C1275 1.516 . S
C1275 C1274 1.516 . S
C1275 C1276 1.502 . S
C1275 C1277 1.561 . S
C1275 C1278 1.526 . S
C1276 H1260 0.959 . S
C1276 H1261 0.959 . S
C1276 H1262 0.961 . S
C1276 C1275 1.502 . S
C1277 H1263 0.960 . S
C1277 H1264 0.961 . S
C1277 H1265 0.959 . S
C1277 C1275 1.561 . S
C1278 C1275 1.526 . S
C1278 C1279 1.396 . S
C1278 C1283 1.390 . S
C1279 C1273 1.465 . S
C1279 C1278 1.396 . S
C1279 C1280 1.399 . S
C1280 H1266 0.929 . S
C1280 C1279 1.399 . S
C1280 C1281 1.385 . S
C1281 H1267 0.931 . S
C1281 C1280 1.385 . S
C1281 C1282 1.389 . S
C1282 C1281 1.389 . S
C1282 C1283 1.387 . S
C1283 H1268 0.930 . S
C1283 C1278 1.390 . S
C1283 C1282 1.387 . S
H1284 C1296 0.930 . S
H1285 C1298 0.930 . S
H1286 C1299 0.930 . S
H1287 C1303 0.959 . S
H1288 C1303 0.959 . S
H1289 C1303 0.961 . S
H1290 C1304 0.960 . S
H1291 C1304 0.961 . S
H1292 C1304 0.959 . S
H1293 C1307 0.929 . S
H1294 C1308 0.931 . S
H1295 C1310 0.930 . S
C1296 H1284 0.930 . S
C1296 C1297 1.399 . S
C1296 C1301 1.399 . S
C1297 C1296 1.399 . S
C1297 C1298 1.376 . S
C1298 H1285 0.930 . S
C1298 C1297 1.376 . S
C1298 C1299 1.388 . S
C1299 H1286 0.930 . S
C1299 C1298 1.388 . S
C1299 C1300 1.390 . S
C1300 C1299 1.390 . S
C1300 C1301 1.394 . S
C1300 C1306 1.465 . S
C1301 C1296 1.399 . S
C1301 C1300 1.394 . S
C1301 C1302 1.516 . S
C1302 C1301 1.516 . S
C1302 C1303 1.502 . S
C1302 C1304 1.561 . S
C1302 C1305 1.526 . S
C1303 H1287 0.959 . S
C1303 H1288 0.959 . S
C1303 H1289 0.961 . S
C1303 C1302 1.502 . S
C1304 H1290 0.960 . S
C1304 H1291 0.961 . S
C1304 H1292 0.959 . S
C1304 C1302 1.561 . S
C1305 C1302 1.526 . S
C1305 C1306 1.396 . S
C1305 C1310 1.390 . S
C1306 C1300 1.465 . S
C1306 C1305 1.396 . S
C1306 C1307 1.399 . S
C1307 H1293 0.929 . S
C1307 C1306 1.399 . S
C1307 C1308 1.385 . S
C1308 H1294 0.931 . S
C1308 C1307 1.385 . S
C1308 C1309 1.389 . S
C1309 C1308 1.389 . S
C1309 C1310 1.387 . S
C1310 H1295 0.930 . S
C1310 C1305 1.390 . S
C1310 C1309 1.387 . S
H1311 C1323 0.933 . S
H1312 C1325 0.929 1_455 S
H1313 C1326 0.930 . S
H1314 C1330 0.959 1_455 S
H1315 C1330 0.959 . S
H1316 C1330 0.961 1_455 S
H1317 C1331 0.960 . S
H1318 C1331 0.961 . S
H1319 C1331 0.959 . S
H1320 C1334 0.929 . S
H1321 C1335 0.931 . S
H1322 C1337 0.930 . S
C1323 H1311 0.933 . S
C1323 C1324 1.402 . S
C1323 C1328 1.393 1_455 S
C1324 C1323 1.402 . S
C1324 C1325 1.375 1_455 S
C1325 H1312 0.929 1_655 S
C1325 C1324 1.375 1_655 S
C1325 C1326 1.391 . S
C1326 H1313 0.930 . S
C1326 C1325 1.391 . S
C1326 C1327 1.390 . S
C1327 C1326 1.390 . S
C1327 C1328 1.394 . S
C1327 C1333 1.465 . S
C1328 C1323 1.393 1_655 S
C1328 C1327 1.394 . S
C1328 C1329 1.516 . S
C1329 C1328 1.516 . S
C1329 C1330 1.502 . S
C1329 C1331 1.561 . S
C1329 C1332 1.526 . S
C1330 H1314 0.959 1_655 S
C1330 H1315 0.959 . S
C1330 H1316 0.961 1_655 S
C1330 C1329 1.502 . S
C1331 H1317 0.960 . S
C1331 H1318 0.961 . S
C1331 H1319 0.959 . S
C1331 C1329 1.561 . S
C1332 C1329 1.526 . S
C1332 C1333 1.396 . S
C1332 C1337 1.390 . S
C1333 C1327 1.465 . S
C1333 C1332 1.396 . S
C1333 C1334 1.399 . S
C1334 H1320 0.929 . S
C1334 C1333 1.399 . S
C1334 C1335 1.385 . S
C1335 H1321 0.931 . S
C1335 C1334 1.385 . S
C1335 C1336 1.389 . S
C1336 C1335 1.389 . S
C1336 C1337 1.387 . S
C1337 H1322 0.930 . S
C1337 C1332 1.390 . S
C1337 C1336 1.387 . S
H1338 C1350 0.930 . S
H1339 C1352 0.930 . S
H1340 C1353 0.930 . S
H1341 C1357 0.959 . S
H1342 C1357 0.959 . S
H1343 C1357 0.961 . S
H1344 C1358 0.960 . S
H1345 C1358 0.961 . S
H1346 C1358 0.959 . S
H1347 C1361 0.929 . S
H1348 C1362 0.931 . S
H1349 C1364 0.930 . S
C1350 H1338 0.930 . S
C1350 C1351 1.399 . S
C1350 C1355 1.399 . S
C1351 C1350 1.399 . S
C1351 C1352 1.376 . S
C1352 H1339 0.930 . S
C1352 C1351 1.376 . S
C1352 C1353 1.388 . S
C1353 H1340 0.930 . S
C1353 C1352 1.388 . S
C1353 C1354 1.390 . S
C1354 C1353 1.390 . S
C1354 C1355 1.394 . S
C1354 C1360 1.465 . S
C1355 C1350 1.399 . S
C1355 C1354 1.394 . S
C1355 C1356 1.516 . S
C1356 C1355 1.516 . S
C1356 C1357 1.502 . S
C1356 C1358 1.561 . S
C1356 C1359 1.526 . S
C1357 H1341 0.959 . S
C1357 H1342 0.959 . S
C1357 H1343 0.961 . S
C1357 C1356 1.502 . S
C1358 H1344 0.960 . S
C1358 H1345 0.961 . S
C1358 H1346 0.959 . S
C1358 C1356 1.561 . S
C1359 C1356 1.526 . S
C1359 C1360 1.396 . S
C1359 C1364 1.390 . S
C1360 C1354 1.465 . S
C1360 C1359 1.396 . S
C1360 C1361 1.399 . S
C1361 H1347 0.929 . S
C1361 C1360 1.399 . S
C1361 C1362 1.385 . S
C1362 H1348 0.931 . S
C1362 C1361 1.385 . S
C1362 C1363 1.389 . S
C1363 C1362 1.389 . S
C1363 C1364 1.387 . S
C1364 H1349 0.930 . S
C1364 C1359 1.390 . S
C1364 C1363 1.387 . S
H1365 C1377 0.930 . S
H1366 C1379 0.930 . S
H1367 C1380 0.930 . S
H1368 C1384 0.959 . S
H1369 C1384 0.959 . S
H1370 C1384 0.961 . S
H1371 C1385 0.960 . S
H1372 C1385 0.961 . S
H1373 C1385 0.959 . S
H1374 C1388 0.929 . S
H1375 C1389 0.931 . S
H1376 C1391 0.930 . S
C1377 H1365 0.930 . S
C1377 C1378 1.399 . S
C1377 C1382 1.399 . S
C1378 C1377 1.399 . S
C1378 C1379 1.376 . S
C1379 H1366 0.930 . S
C1379 C1378 1.376 . S
C1379 C1380 1.388 . S
C1380 H1367 0.930 . S
C1380 C1379 1.388 . S
C1380 C1381 1.390 . S
C1381 C1380 1.390 . S
C1381 C1382 1.394 . S
C1381 C1387 1.465 . S
C1382 C1377 1.399 . S
C1382 C1381 1.394 . S
C1382 C1383 1.516 . S
C1383 C1382 1.516 . S
C1383 C1384 1.502 . S
C1383 C1385 1.561 . S
C1383 C1386 1.526 . S
C1384 H1368 0.959 . S
C1384 H1369 0.959 . S
C1384 H1370 0.961 . S
C1384 C1383 1.502 . S
C1385 H1371 0.960 . S
C1385 H1372 0.961 . S
C1385 H1373 0.959 . S
C1385 C1383 1.561 . S
C1386 C1383 1.526 . S
C1386 C1387 1.396 . S
C1386 C1391 1.390 . S
C1387 C1381 1.465 . S
C1387 C1386 1.396 . S
C1387 C1388 1.399 . S
C1388 H1374 0.929 . S
C1388 C1387 1.399 . S
C1388 C1389 1.385 . S
C1389 H1375 0.931 . S
C1389 C1388 1.385 . S
C1389 C1390 1.389 . S
C1390 C1389 1.389 . S
C1390 C1391 1.387 . S
C1391 H1376 0.930 . S
C1391 C1386 1.390 . S
C1391 C1390 1.387 . S
H1392 C1404 0.930 . S
H1393 C1406 0.930 . S
H1394 C1407 0.930 . S
H1395 C1411 0.959 . S
H1396 C1411 0.959 . S
H1397 C1411 0.961 . S
H1398 C1412 0.960 . S
H1399 C1412 0.961 . S
H1400 C1412 0.959 . S
H1401 C1415 0.929 . S
H1402 C1416 0.931 . S
H1403 C1418 0.930 . S
C1404 H1392 0.930 . S
C1404 C1405 1.399 . S
C1404 C1409 1.399 . S
C1405 C1404 1.399 . S
C1405 C1406 1.376 . S
C1406 H1393 0.930 . S
C1406 C1405 1.376 . S
C1406 C1407 1.388 . S
C1407 H1394 0.930 . S
C1407 C1406 1.388 . S
C1407 C1408 1.390 . S
C1408 C1407 1.390 . S
C1408 C1409 1.394 . S
C1408 C1414 1.465 . S
C1409 C1404 1.399 . S
C1409 C1408 1.394 . S
C1409 C1410 1.516 . S
C1410 C1409 1.516 . S
C1410 C1411 1.502 . S
C1410 C1412 1.561 . S
C1410 C1413 1.526 . S
C1411 H1395 0.959 . S
C1411 H1396 0.959 . S
C1411 H1397 0.961 . S
C1411 C1410 1.502 . S
C1412 H1398 0.960 . S
C1412 H1399 0.961 . S
C1412 H1400 0.959 . S
C1412 C1410 1.561 . S
C1413 C1410 1.526 . S
C1413 C1414 1.396 . S
C1413 C1418 1.390 . S
C1414 C1408 1.465 . S
C1414 C1413 1.396 . S
C1414 C1415 1.399 . S
C1415 H1401 0.929 . S
C1415 C1414 1.399 . S
C1415 C1416 1.385 . S
C1416 H1402 0.931 . S
C1416 C1415 1.385 . S
C1416 C1417 1.389 . S
C1417 C1416 1.389 . S
C1417 C1418 1.387 . S
C1418 H1403 0.930 . S
C1418 C1413 1.390 . S
C1418 C1417 1.387 . S
H1419 C1431 0.930 . S
H1420 C1433 0.930 . S
H1421 C1434 0.930 . S
H1422 C1438 0.959 . S
H1423 C1438 0.959 . S
H1424 C1438 0.961 . S
H1425 C1439 0.960 . S
H1426 C1439 0.961 . S
H1427 C1439 0.959 . S
H1428 C1442 0.929 . S
H1429 C1443 0.931 . S
H1430 C1445 0.930 . S
C1431 H1419 0.930 . S
C1431 C1432 1.399 . S
C1431 C1436 1.399 . S
C1432 C1431 1.399 . S
C1432 C1433 1.376 . S
C1433 H1420 0.930 . S
C1433 C1432 1.376 . S
C1433 C1434 1.388 . S
C1434 H1421 0.930 . S
C1434 C1433 1.388 . S
C1434 C1435 1.390 . S
C1435 C1434 1.390 . S
C1435 C1436 1.394 . S
C1435 C1441 1.465 . S
C1436 C1431 1.399 . S
C1436 C1435 1.394 . S
C1436 C1437 1.516 . S
C1437 C1436 1.516 . S
C1437 C1438 1.502 . S
C1437 C1439 1.561 . S
C1437 C1440 1.526 . S
C1438 H1422 0.959 . S
C1438 H1423 0.959 . S
C1438 H1424 0.961 . S
C1438 C1437 1.502 . S
C1439 H1425 0.960 . S
C1439 H1426 0.961 . S
C1439 H1427 0.959 . S
C1439 C1437 1.561 . S
C1440 C1437 1.526 . S
C1440 C1441 1.396 . S
C1440 C1445 1.390 . S
C1441 C1435 1.465 . S
C1441 C1440 1.396 . S
C1441 C1442 1.399 . S
C1442 H1428 0.929 . S
C1442 C1441 1.399 . S
C1442 C1443 1.385 . S
C1443 H1429 0.931 . S
C1443 C1442 1.385 . S
C1443 C1444 1.389 . S
C1444 C1443 1.389 . S
C1444 C1445 1.387 . S
C1445 H1430 0.930 . S
C1445 C1440 1.390 . S
C1445 C1444 1.387 . S
H1446 C1458 0.930 1_655 S
H1447 C1460 0.930 . S
H1448 C1461 0.930 . S
H1449 C1465 0.959 . S
H1450 C1465 0.959 . S
H1451 C1465 0.961 . S
H1452 C1466 0.960 . S
H1453 C1466 0.964 . S
H1454 C1466 0.959 . S
H1455 C1469 0.929 . S
H1456 C1470 0.931 . S
H1457 C1472 0.930 . S
C1458 H1446 0.930 1_455 S
C1458 C1459 1.399 1_455 S
C1458 C1463 1.399 1_556 S
C1459 C1458 1.399 1_655 S
C1459 C1460 1.376 1_655 S
C1460 H1447 0.930 . S
C1460 C1459 1.376 1_455 S
C1460 C1461 1.388 1_556 S
C1461 H1448 0.930 . S
C1461 C1460 1.388 1_554 S
C1461 C1462 1.390 . S
C1462 C1461 1.390 . S
C1462 C1463 1.394 . S
C1462 C1468 1.465 . S
C1463 C1458 1.399 1_554 S
C1463 C1462 1.394 . S
C1463 C1464 1.516 . S
C1464 C1463 1.516 . S
C1464 C1465 1.502 . S
C1464 C1466 1.561 1_554 S
C1464 C1467 1.526 . S
C1465 H1449 0.959 . S
C1465 H1450 0.959 . S
C1465 H1451 0.961 . S
C1465 C1464 1.502 . S
C1466 H1452 0.960 . S
C1466 H1453 0.964 . S
C1466 H1454 0.959 . S
C1466 C1464 1.561 1_556 S
C1467 C1464 1.526 . S
C1467 C1468 1.396 . S
C1467 C1472 1.390 . S
C1468 C1462 1.465 . S
C1468 C1467 1.396 . S
C1468 C1469 1.399 . S
C1469 H1455 0.929 . S
C1469 C1468 1.399 . S
C1469 C1470 1.385 . S
C1470 H1456 0.931 . S
C1470 C1469 1.385 . S
C1470 C1471 1.389 . S
C1471 C1470 1.389 . S
C1471 C1472 1.387 . S
C1472 H1457 0.930 . S
C1472 C1467 1.390 . S
C1472 C1471 1.387 . S
H1473 C1485 0.930 . S
H1474 C1487 0.930 . S
H1475 C1488 0.930 . S
H1476 C1492 0.959 . S
H1477 C1492 0.959 . S
H1478 C1492 0.961 . S
H1479 C1493 0.960 . S
H1480 C1493 0.961 . S
H1481 C1493 0.959 . S
H1482 C1496 0.929 . S
H1483 C1497 0.931 . S
H1484 C1499 0.930 . S
C1485 H1473 0.930 . S
C1485 C1486 1.399 . S
C1485 C1490 1.399 . S
C1486 C1485 1.399 . S
C1486 C1487 1.376 . S
C1487 H1474 0.930 . S
C1487 C1486 1.376 . S
C1487 C1488 1.388 . S
C1488 H1475 0.930 . S
C1488 C1487 1.388 . S
C1488 C1489 1.390 . S
C1489 C1488 1.390 . S
C1489 C1490 1.394 . S
C1489 C1495 1.465 . S
C1490 C1485 1.399 . S
C1490 C1489 1.394 . S
C1490 C1491 1.516 . S
C1491 C1490 1.516 . S
C1491 C1492 1.502 . S
C1491 C1493 1.561 . S
C1491 C1494 1.526 . S
C1492 H1476 0.959 . S
C1492 H1477 0.959 . S
C1492 H1478 0.961 . S
C1492 C1491 1.502 . S
C1493 H1479 0.960 . S
C1493 H1480 0.961 . S
C1493 H1481 0.959 . S
C1493 C1491 1.561 . S
C1494 C1491 1.526 . S
C1494 C1495 1.396 . S
C1494 C1499 1.390 . S
C1495 C1489 1.465 . S
C1495 C1494 1.396 . S
C1495 C1496 1.399 . S
C1496 H1482 0.929 . S
C1496 C1495 1.399 . S
C1496 C1497 1.385 . S
C1497 H1483 0.931 . S
C1497 C1496 1.385 . S
C1497 C1498 1.389 . S
C1498 C1497 1.389 . S
C1498 C1499 1.387 . S
C1499 H1484 0.930 . S
C1499 C1494 1.390 . S
C1499 C1498 1.387 . S
H1500 C1512 0.930 . S
H1501 C1514 0.930 . S
H1502 C1515 0.930 . S
H1503 C1519 0.959 . S
H1504 C1519 0.959 . S
H1505 C1519 0.961 . S
H1506 C1520 0.960 . S
H1507 C1520 0.961 . S
H1508 C1520 0.959 . S
H1509 C1523 0.929 . S
H1510 C1524 0.931 . S
H1511 C1526 0.930 . S
C1512 H1500 0.930 . S
C1512 C1513 1.399 . S
C1512 C1517 1.399 . S
C1513 C1512 1.399 . S
C1513 C1514 1.376 . S
C1514 H1501 0.930 . S
C1514 C1513 1.376 . S
C1514 C1515 1.388 . S
C1515 H1502 0.930 . S
C1515 C1514 1.388 . S
C1515 C1516 1.390 . S
C1516 C1515 1.390 . S
C1516 C1517 1.394 . S
C1516 C1522 1.465 . S
C1517 C1512 1.399 . S
C1517 C1516 1.394 . S
C1517 C1518 1.516 . S
C1518 C1517 1.516 . S
C1518 C1519 1.502 . S
C1518 C1520 1.561 . S
C1518 C1521 1.526 . S
C1519 H1503 0.959 . S
C1519 H1504 0.959 . S
C1519 H1505 0.961 . S
C1519 C1518 1.502 . S
C1520 H1506 0.960 . S
C1520 H1507 0.961 . S
C1520 H1508 0.959 . S
C1520 C1518 1.561 . S
C1521 C1518 1.526 . S
C1521 C1522 1.396 . S
C1521 C1526 1.390 . S
C1522 C1516 1.465 . S
C1522 C1521 1.396 . S
C1522 C1523 1.399 . S
C1523 H1509 0.929 . S
C1523 C1522 1.399 . S
C1523 C1524 1.385 . S
C1524 H1510 0.931 . S
C1524 C1523 1.385 . S
C1524 C1525 1.389 . S
C1525 C1524 1.389 . S
C1525 C1526 1.387 . S
C1526 H1511 0.930 . S
C1526 C1521 1.390 . S
C1526 C1525 1.387 . S
H1527 C1539 0.930 . S
H1528 C1541 0.930 . S
H1529 C1542 0.930 . S
H1530 C1546 0.959 . S
H1531 C1546 0.959 . S
H1532 C1546 0.961 . S
H1533 C1547 0.960 . S
H1534 C1547 0.961 . S
H1535 C1547 0.959 . S
H1536 C1550 0.929 . S
H1537 C1551 0.931 . S
H1538 C1553 0.930 . S
C1539 H1527 0.930 . S
C1539 C1540 1.399 . S
C1539 C1544 1.399 . S
C1540 C1539 1.399 . S
C1540 C1541 1.376 . S
C1541 H1528 0.930 . S
C1541 C1540 1.376 . S
C1541 C1542 1.388 . S
C1542 H1529 0.930 . S
C1542 C1541 1.388 . S
C1542 C1543 1.390 . S
C1543 C1542 1.390 . S
C1543 C1544 1.394 . S
C1543 C1549 1.465 . S
C1544 C1539 1.399 . S
C1544 C1543 1.394 . S
C1544 C1545 1.516 . S
C1545 C1544 1.516 . S
C1545 C1546 1.502 . S
C1545 C1547 1.561 . S
C1545 C1548 1.526 . S
C1546 H1530 0.959 . S
C1546 H1531 0.959 . S
C1546 H1532 0.961 . S
C1546 C1545 1.502 . S
C1547 H1533 0.960 . S
C1547 H1534 0.961 . S
C1547 H1535 0.959 . S
C1547 C1545 1.561 . S
C1548 C1545 1.526 . S
C1548 C1549 1.396 . S
C1548 C1553 1.390 . S
C1549 C1543 1.465 . S
C1549 C1548 1.396 . S
C1549 C1550 1.399 . S
C1550 H1536 0.929 . S
C1550 C1549 1.399 . S
C1550 C1551 1.385 . S
C1551 H1537 0.931 . S
C1551 C1550 1.385 . S
C1551 C1552 1.389 . S
C1552 C1551 1.389 . S
C1552 C1553 1.387 . S
C1553 H1538 0.930 . S
C1553 C1548 1.390 . S
C1553 C1552 1.387 . S
H1554 C1566 0.930 . S
H1555 C1568 0.930 . S
H1556 C1569 0.930 . S
H1557 C1573 0.959 . S
H1558 C1573 0.959 . S
H1559 C1573 0.961 . S
H1560 C1574 0.960 . S
H1561 C1574 0.961 . S
H1562 C1574 0.959 . S
H1563 C1577 0.929 . S
H1564 C1578 0.931 . S
H1565 C1580 0.930 . S
C1566 H1554 0.930 . S
C1566 C1567 1.399 . S
C1566 C1571 1.399 1_554 S
C1567 C1566 1.399 . S
C1567 C1568 1.376 1_554 S
C1568 H1555 0.930 . S
C1568 C1567 1.376 1_556 S
C1568 C1569 1.388 . S
C1569 H1556 0.930 . S
C1569 C1568 1.388 . S
C1569 C1570 1.390 . S
C1570 C1569 1.390 . S
C1570 C1571 1.394 . S
C1570 C1576 1.465 . S
C1571 C1566 1.399 1_556 S
C1571 C1570 1.394 . S
C1571 C1572 1.516 . S
C1572 C1571 1.516 . S
C1572 C1573 1.502 1_556 S
C1572 C1574 1.561 . S
C1572 C1575 1.526 . S
C1573 H1557 0.959 . S
C1573 H1558 0.959 . S
C1573 H1559 0.961 . S
C1573 C1572 1.502 1_554 S
C1574 H1560 0.960 . S
C1574 H1561 0.961 . S
C1574 H1562 0.959 . S
C1574 C1572 1.561 . S
C1575 C1572 1.526 . S
C1575 C1576 1.396 . S
C1575 C1580 1.390 . S
C1576 C1570 1.465 . S
C1576 C1575 1.396 . S
C1576 C1577 1.399 . S
C1577 H1563 0.929 . S
C1577 C1576 1.399 . S
C1577 C1578 1.385 . S
C1578 H1564 0.931 . S
C1578 C1577 1.385 . S
C1578 C1579 1.389 . S
C1579 C1578 1.389 . S
C1579 C1580 1.387 . S
C1580 H1565 0.930 . S
C1580 C1575 1.390 . S
C1580 C1579 1.387 . S
H1581 C1593 0.930 . S
H1582 C1595 0.930 . S
H1583 C1596 0.930 . S
H1584 C1600 0.959 . S
H1585 C1600 0.959 . S
H1586 C1600 0.961 . S
H1587 C1601 0.960 . S
H1588 C1601 0.961 . S
H1589 C1601 0.959 . S
H1590 C1604 0.929 . S
H1591 C1605 0.931 1_455 S
H1592 C1607 0.945 . S
C1593 H1581 0.930 . S
C1593 C1594 1.399 . S
C1593 C1598 1.399 . S
C1594 C1593 1.399 . S
C1594 C1595 1.376 . S
C1595 H1582 0.930 . S
C1595 C1594 1.376 . S
C1595 C1596 1.388 . S
C1596 H1583 0.930 . S
C1596 C1595 1.388 . S
C1596 C1597 1.390 . S
C1597 C1596 1.390 . S
C1597 C1598 1.394 . S
C1597 C1603 1.465 . S
C1598 C1593 1.399 . S
C1598 C1597 1.394 . S
C1598 C1599 1.516 . S
C1599 C1598 1.516 . S
C1599 C1600 1.502 . S
C1599 C1601 1.561 . S
C1599 C1602 1.526 . S
C1600 H1584 0.959 . S
C1600 H1585 0.959 . S
C1600 H1586 0.961 . S
C1600 C1599 1.502 . S
C1601 H1587 0.960 . S
C1601 H1588 0.961 . S
C1601 H1589 0.959 . S
C1601 C1599 1.561 . S
C1602 C1599 1.526 . S
C1602 C1603 1.396 . S
C1602 C1607 1.390 . S
C1603 C1597 1.465 . S
C1603 C1602 1.396 . S
C1603 C1604 1.399 . S
C1604 H1590 0.929 . S
C1604 C1603 1.399 . S
C1604 C1605 1.385 . S
C1605 H1591 0.931 1_655 S
C1605 C1604 1.385 . S
C1605 C1606 1.389 1_655 S
C1606 C1605 1.389 1_455 S
C1606 C1607 1.387 1_455 S
C1607 H1592 0.945 . S
C1607 C1602 1.390 . S
C1607 C1606 1.387 1_655 S
C325 C117 1.155 . S
C337 C0 1.095 . S
C352 C13 1.068 . S
C364 C130 1.189 . S
C379 C26 1.078 . S
C391 C143 1.204 . S
C406 C39 1.199 . S
C418 C104 1.067 . S
C433 C52 1.161 . S
C445 C195 1.090 . S
C460 C156 1.171 . S
C472 C65 1.133 . S
C487 C78 1.170 . S
C499 C169 1.083 . S
C514 C182 1.201 . S
C526 C91 1.091 . S
C541 C208 1.066 . S
C553 C234 1.194 . S
C568 C286 1.067 . S
C580 C221 1.193 . S
C595 C247 1.206 . S
C607 C299 1.070 . S
C622 C273 1.107 . S
C634 C260 1.190 . S
C649 C268 1.488 . S
C661 C8 1.522 . S
C676 C21 1.504 . S
C688 C229 1.486 . S
C703 C34 1.496 . S
C715 C242 1.534 . S
C730 C47 1.532 . S
C742 C255 1.552 . S
C757 C60 1.486 . S
C769 C307 1.499 . S
C784 C281 1.504 . S
C796 C73 1.541 . S
C811 C294 1.495 . S
C823 C86 1.488 . S
C838 C216 1.549 . S
C850 C99 1.544 . S
C865 C203 1.486 . S
C877 C112 1.498 . S
C892 C125 1.513 . S
C904 C164 1.547 . S
C919 C177 1.502 . S
C931 C138 1.486 . S
C946 C190 1.545 . S
C958 C151 1.510 . S
C973 C5 0.977 . S
C985 C218 0.964 . S
C1000 C309 0.954 . S
C1012 C18 0.964 . S
C1027 C283 0.922 . S
C1039 C31 0.793 . S
C1054 C44 0.793 . S
C1066 C296 0.923 . S
C1081 C57 0.763 . S
C1093 C231 0.961 . S
C1108 C244 0.946 . S
C1120 C70 0.756 . S
C1135 C257 0.921 . S
C1147 C83 0.802 . S
C1162 C270 0.973 . S
C1174 C96 0.783 . S
C1189 C10 1.000 . S
C1201 C109 0.890 . S
C1216 C23 0.922 . S
C1228 C122 0.877 . S
C1243 C36 0.992 . S
C1255 C135 0.838 . S
C1270 C49 0.940 . S
C1282 C148 0.941 . S
C1297 C62 0.983 . S
C1309 C161 0.809 . S
C1324 C75 0.998 . S
C1336 C174 0.869 . S
C1351 C187 0.753 . S
C1363 C88 0.945 . S
C1378 C101 0.921 . S
C1390 C200 0.799 . S
C1405 C114 0.957 . S
C1417 C213 0.761 . S
C1432 C226 0.849 . S
C1444 C166 0.920 . S
C1459 C179 0.930 . S
C1471 C239 0.912 . S
C1486 C252 0.844 . S
C1498 C192 0.993 . S
C1513 C265 0.980 . S
C1525 C205 0.982 . S
C1540 C278 0.786 . S
C1552 C140 0.975 . S
C1567 C153 1.001 . S
C1579 C291 0.922 . S
C1594 C304 0.753 . S
C1606 C127 0.946 . S
