# Generated by pormake.
# Topology wmi, (6)-cn, num edge types: 1
# Building blocks:
#     Node 0, Type 0, BuildingBlock: PAMTUU_clean_sbu_0, # of connection points: 6
#     Node 1, Type 0, BuildingBlock: PAMTUU_clean_sbu_0, # of connection points: 6
#     Node 2, Type 0, BuildingBlock: PAMTUU_clean_sbu_0, # of connection points: 6
#     Node 3, Type 0, BuildingBlock: PAMTUU_clean_sbu_0, # of connection points: 6
#     Node 4, Type 0, BuildingBlock: PAMTUU_clean_sbu_0, # of connection points: 6
#     Node 5, Type 0, BuildingBlock: PAMTUU_clean_sbu_0, # of connection points: 6
#     Node 6, Type 0, BuildingBlock: PAMTUU_clean_sbu_0, # of connection points: 6
#     Node 7, Type 0, BuildingBlock: PAMTUU_clean_sbu_0, # of connection points: 6
#     Node 8, Type 0, BuildingBlock: PAMTUU_clean_sbu_0, # of connection points: 6
#     Node 9, Type 0, BuildingBlock: PAMTUU_clean_sbu_0, # of connection points: 6
#     Node 10, Type 0, BuildingBlock: PAMTUU_clean_sbu_0, # of connection points: 6
#     Node 11, Type 0, BuildingBlock: PAMTUU_clean_sbu_0, # of connection points: 6
#     Node 12, Type 0, BuildingBlock: PAMTUU_clean_sbu_0, # of connection points: 6
#     Node 13, Type 0, BuildingBlock: PAMTUU_clean_sbu_0, # of connection points: 6
#     Node 14, Type 0, BuildingBlock: PAMTUU_clean_sbu_0, # of connection points: 6
#     Node 15, Type 0, BuildingBlock: PAMTUU_clean_sbu_0, # of connection points: 6
#     Node 16, Type 0, BuildingBlock: PAMTUU_clean_sbu_0, # of connection points: 6
#     Node 17, Type 0, BuildingBlock: PAMTUU_clean_sbu_0, # of connection points: 6
#     Edge 18, Type (0, 0), BuildingBlock: OJICUG_clean_linker_0, # of connection points: 2
#     Edge 19, Type (0, 0), BuildingBlock: OJICUG_clean_linker_0, # of connection points: 2
#     Edge 20, Type (0, 0), BuildingBlock: OJICUG_clean_linker_0, # of connection points: 2
#     Edge 21, Type (0, 0), BuildingBlock: OJICUG_clean_linker_0, # of connection points: 2
#     Edge 22, Type (0, 0), BuildingBlock: OJICUG_clean_linker_0, # of connection points: 2
#     Edge 23, Type (0, 0), BuildingBlock: OJICUG_clean_linker_0, # of connection points: 2
#     Edge 24, Type (0, 0), BuildingBlock: OJICUG_clean_linker_0, # of connection points: 2
#     Edge 25, Type (0, 0), BuildingBlock: OJICUG_clean_linker_0, # of connection points: 2
#     Edge 26, Type (0, 0), BuildingBlock: OJICUG_clean_linker_0, # of connection points: 2
#     Edge 27, Type (0, 0), BuildingBlock: OJICUG_clean_linker_0, # of connection points: 2
#     Edge 28, Type (0, 0), BuildingBlock: OJICUG_clean_linker_0, # of connection points: 2
#     Edge 29, Type (0, 0), BuildingBlock: OJICUG_clean_linker_0, # of connection points: 2
#     Edge 30, Type (0, 0), BuildingBlock: OJICUG_clean_linker_0, # of connection points: 2
#     Edge 31, Type (0, 0), BuildingBlock: OJICUG_clean_linker_0, # of connection points: 2
#     Edge 32, Type (0, 0), BuildingBlock: OJICUG_clean_linker_0, # of connection points: 2
#     Edge 33, Type (0, 0), BuildingBlock: OJICUG_clean_linker_0, # of connection points: 2
#     Edge 34, Type (0, 0), BuildingBlock: OJICUG_clean_linker_0, # of connection points: 2
#     Edge 35, Type (0, 0), BuildingBlock: OJICUG_clean_linker_0, # of connection points: 2
#     Edge 36, Type (0, 0), BuildingBlock: OJICUG_clean_linker_0, # of connection points: 2
#     Edge 37, Type (0, 0), BuildingBlock: OJICUG_clean_linker_0, # of connection points: 2
#     Edge 38, Type (0, 0), BuildingBlock: OJICUG_clean_linker_0, # of connection points: 2
#     Edge 39, Type (0, 0), BuildingBlock: OJICUG_clean_linker_0, # of connection points: 2
#     Edge 40, Type (0, 0), BuildingBlock: OJICUG_clean_linker_0, # of connection points: 2
#     Edge 41, Type (0, 0), BuildingBlock: OJICUG_clean_linker_0, # of connection points: 2
#     Edge 42, Type (0, 0), BuildingBlock: OJICUG_clean_linker_0, # of connection points: 2
#     Edge 43, Type (0, 0), BuildingBlock: OJICUG_clean_linker_0, # of connection points: 2
#     Edge 44, Type (0, 0), BuildingBlock: OJICUG_clean_linker_0, # of connection points: 2
#     Edge 45, Type (0, 0), BuildingBlock: OJICUG_clean_linker_0, # of connection points: 2
#     Edge 46, Type (0, 0), BuildingBlock: OJICUG_clean_linker_0, # of connection points: 2
#     Edge 47, Type (0, 0), BuildingBlock: OJICUG_clean_linker_0, # of connection points: 2
#     Edge 48, Type (0, 0), BuildingBlock: OJICUG_clean_linker_0, # of connection points: 2
#     Edge 49, Type (0, 0), BuildingBlock: OJICUG_clean_linker_0, # of connection points: 2
#     Edge 50, Type (0, 0), BuildingBlock: OJICUG_clean_linker_0, # of connection points: 2
#     Edge 51, Type (0, 0), BuildingBlock: OJICUG_clean_linker_0, # of connection points: 2
#     Edge 52, Type (0, 0), BuildingBlock: OJICUG_clean_linker_0, # of connection points: 2
#     Edge 53, Type (0, 0), BuildingBlock: OJICUG_clean_linker_0, # of connection points: 2
#     Edge 54, Type (0, 0), BuildingBlock: OJICUG_clean_linker_0, # of connection points: 2
#     Edge 55, Type (0, 0), BuildingBlock: OJICUG_clean_linker_0, # of connection points: 2
#     Edge 56, Type (0, 0), BuildingBlock: OJICUG_clean_linker_0, # of connection points: 2
#     Edge 57, Type (0, 0), BuildingBlock: OJICUG_clean_linker_0, # of connection points: 2
#     Edge 58, Type (0, 0), BuildingBlock: OJICUG_clean_linker_0, # of connection points: 2
#     Edge 59, Type (0, 0), BuildingBlock: OJICUG_clean_linker_0, # of connection points: 2
#     Edge 60, Type (0, 0), BuildingBlock: OJICUG_clean_linker_0, # of connection points: 2
#     Edge 61, Type (0, 0), BuildingBlock: OJICUG_clean_linker_0, # of connection points: 2
#     Edge 62, Type (0, 0), BuildingBlock: OJICUG_clean_linker_0, # of connection points: 2
#     Edge 63, Type (0, 0), BuildingBlock: OJICUG_clean_linker_0, # of connection points: 2
#     Edge 64, Type (0, 0), BuildingBlock: OJICUG_clean_linker_0, # of connection points: 2
#     Edge 65, Type (0, 0), BuildingBlock: OJICUG_clean_linker_0, # of connection points: 2
#     Edge 66, Type (0, 0), BuildingBlock: OJICUG_clean_linker_0, # of connection points: 2
#     Edge 67, Type (0, 0), BuildingBlock: OJICUG_clean_linker_0, # of connection points: 2
#     Edge 68, Type (0, 0), BuildingBlock: OJICUG_clean_linker_0, # of connection points: 2
#     Edge 69, Type (0, 0), BuildingBlock: OJICUG_clean_linker_0, # of connection points: 2
#     Edge 70, Type (0, 0), BuildingBlock: OJICUG_clean_linker_0, # of connection points: 2
#     Edge 71, Type (0, 0), BuildingBlock: OJICUG_clean_linker_0, # of connection points: 2
# Relax obj value: 0.090
# Max RMSD: 0.228
# Mean RMSD: 0.228
data_MOF--net-wmi--node1-PAMTUU_clean_sbu_0--edge1-OJICUG_clean_linker_0
_symmetry_space_group_name_H-M    P1
_symmetry_Int_Tables_number       1
_symmetry_cell_setting            triclinic
loop_
_symmetry_equiv_pos_as_xyz
'x, y, z'
_cell_length_a     31.306689
_cell_length_b     31.51732
_cell_length_c     57.94093
_cell_angle_alpha  91.010184
_cell_angle_beta   90.012815
_cell_angle_gamma 119.69541
loop_
_atom_site_label
_atom_site_type_symbol
_atom_site_fract_x
_atom_site_fract_y
_atom_site_fract_z
_atom_type_partial_charge
Tb0 Tb 0.46101 1.01266 0.08477 0.0
Tb1 Tb 0.57384 0.07592 0.10673 0.0
C2 C 0.55283 0.04455 0.05441 0.0
C3 C 0.34462 0.90216 0.07415 0.0
C4 C 0.28804 0.79998 0.07866 0.0
C5 C 0.27958 0.82319 0.06008 0.0
C6 C 0.30763 0.87405 0.0579 0.0
C7 C 0.35408 0.87861 0.0922 0.0
C8 C 0.32607 0.82818 0.09445 0.0
C9 C 0.37309 0.95589 0.07284 0.0
O10 O 0.47693 0.95924 0.10076 0.0
O11 O 0.56154 1.00307 0.1019 0.0
O12 O 0.52012 0.03882 0.13449 0.0
O13 O 0.46259 0.04937 0.11662 0.0
O14 O 0.62452 0.13096 0.12949 0.0
O15 O 0.64556 0.08703 0.10866 0.0
O16 O 0.5518 0.12926 0.09916 0.0
O17 O 0.48516 0.08773 0.0741 0.0
O18 O 0.51031 1.00796 0.06022 0.0
O19 O 0.57888 0.0812 0.06895 0.0
C20 C 0.5201 0.96182 0.10271 0.0
O21 O 0.38625 0.97869 0.09277 0.0
O22 O 0.4092 0.97398 0.05817 0.0
C23 C 0.47775 0.03821 0.13517 0.0
C24 C 0.70857 0.16801 0.11701 0.0
C25 C 0.80216 0.24965 0.10766 0.0
C26 C 0.79391 0.20171 0.10501 0.0
C27 C 0.74785 0.16152 0.10972 0.0
C28 C 0.71656 0.21582 0.11964 0.0
C29 C 0.76275 0.25609 0.11504 0.0
C30 C 0.66077 0.12452 0.12272 0.0
C31 C 0.51987 0.1284 0.08412 0.0
H32 H 0.25028 0.80225 0.04772 0.0
H33 H 0.29992 0.89146 0.0438 0.0
H34 H 0.38253 0.89926 0.10495 0.0
H35 H 0.33384 0.81125 0.10874 0.0
H36 H 0.82294 0.19507 0.09912 0.0
H37 H 0.74299 0.12514 0.10772 0.0
H38 H 0.68733 0.22224 0.12546 0.0
H39 H 0.76775 0.29237 0.1177 0.0
Tb40 Tb 0.10646 0.48233 0.08348 0.0
Tb41 Tb 1.04693 0.53253 0.10809 0.0
C42 C 0.05034 0.51833 0.05395 0.0
C43 C 0.21253 0.4663 0.07214 0.0
C44 C 0.31458 0.50585 0.08037 0.0
C45 C 0.29565 0.49789 0.05767 0.0
C46 C 0.24515 0.47833 0.05362 0.0
C47 C 0.2313 0.47356 0.0948 0.0
C48 C 0.28165 0.49307 0.09887 0.0
C49 C 0.15996 0.44992 0.06776 0.0
O50 O 0.14857 0.56137 0.07869 0.0
O51 O 0.1244 0.58517 0.11133 0.0
O52 O 0.06666 0.49482 0.13458 0.0
O53 O 0.13708 0.50751 0.11739 0.0
O54 O 0.98929 0.52679 0.12907 0.0
O55 O 1.04043 0.59511 0.11388 0.0
O56 O 0.99147 0.46373 0.09322 0.0
O57 O 1.03487 0.42284 0.09505 0.0
O58 O 0.05709 0.48113 0.05742 0.0
O59 O 0.05309 0.54809 0.07091 0.0
C60 C 0.15456 0.5953 0.09397 0.0
O61 O 0.13022 0.43076 0.08511 0.0
O62 O 0.15108 0.48051 0.05674 0.0
C63 C 0.1089 0.49477 0.1354 0.0
C64 C 0.95906 0.57989 0.11871 0.0
C65 C 0.88144 0.59741 0.10612 0.0
C66 C 0.90409 0.61171 0.12806 0.0
C67 C 0.94239 0.60303 0.13425 0.0
C68 C 0.93708 0.56593 0.09672 0.0
C69 C 0.89874 0.57458 0.09049 0.0
C70 C 1.00003 0.57176 0.12556 0.0
C71 C 0.99266 0.42283 0.09436 0.0
H72 H 0.31984 0.50663 0.04301 0.0
H73 H 0.23165 0.47326 0.036 0.0
H74 H 0.2072 0.46493 0.10946 0.0
H75 H 0.29486 0.49916 0.11656 0.0
H76 H 0.89149 0.62864 0.14071 0.0
H77 H 0.9589 0.61424 0.1513 0.0
H78 H 0.94962 0.54837 0.08436 0.0
H79 H 0.88279 0.56354 0.07335 0.0
Tb80 Tb 0.63581 0.6571 0.08482 0.0
Tb81 Tb 0.59737 0.54714 0.10421 0.0
C82 C 0.59906 0.57056 0.05103 0.0
C83 C 0.63377 0.77081 0.07972 0.0
C84 C 0.58132 0.82016 0.09058 0.0
C85 C 0.59446 0.81694 0.06765 0.0
C86 C 0.62052 0.7926 0.0623 0.0
C87 C 0.62002 0.77338 0.10261 0.0
C88 C 0.59437 0.79803 0.10798 0.0
C89 C 0.65823 0.74227 0.07365 0.0
O90 O 0.55553 0.61648 0.08134 0.0
O91 O 0.53799 0.56234 0.11049 0.0
O92 O 0.63538 0.6022 0.1324 0.0
O93 O 0.61083 0.65413 0.11941 0.0
O94 O 0.5393 0.47631 0.10994 0.0
O95 O 0.61315 0.49715 0.12061 0.0
O96 O 0.66536 0.56819 0.08644 0.0
O97 O 0.70111 0.65037 0.09351 0.0
O98 O 0.63566 0.61452 0.05552 0.0
O99 O 0.57531 0.53959 0.06758 0.0
C100 C 0.52382 0.58349 0.09536 0.0
O101 O 0.67977 0.73279 0.09051 0.0
O102 O 0.63263 0.704 0.06036 0.0
C103 C 0.62918 0.64033 0.1358 0.0
C104 C 0.56157 0.41411 0.10813 0.0
C105 C 0.54594 0.32133 0.09271 0.0
C106 C 0.51351 0.33782 0.08608 0.0
C107 C 0.52121 0.38364 0.09368 0.0
C108 C 0.59406 0.39772 0.11462 0.0
C109 C 0.58645 0.35209 0.107 0.0
C110 C 0.56826 0.46112 0.1178 0.0
C111 C 0.70485 0.61079 0.08979 0.0
H112 H 0.5856 0.83423 0.05391 0.0
H113 H 0.63015 0.79058 0.04451 0.0
H114 H 0.62878 0.7561 0.1164 0.0
H115 H 0.58456 0.79965 0.12577 0.0
H116 H 0.4821 0.31531 0.07503 0.0
H117 H 0.4951 0.39481 0.08846 0.0
H118 H 0.62499 0.41985 0.12601 0.0
H119 H 0.61168 0.34035 0.11292 0.0
Tb120 Tb 1.02419 0.43188 0.92497 0.0
Tb121 Tb 0.09665 0.54168 0.90533 0.0
C122 C 0.07323 0.51905 0.95849 0.0
C123 C 0.90775 0.3194 0.93198 0.0
C124 C 0.80658 0.26681 0.92038 0.0
C125 C 0.83421 0.24278 0.92233 0.0
C126 C 0.88426 0.26883 0.92807 0.0
C127 C 0.88027 0.34358 0.9302 0.0
C128 C 0.83005 0.31745 0.92463 0.0
C129 C 0.96124 0.34702 0.93654 0.0
O130 O 0.98474 0.47277 0.92779 0.0
O131 O 1.02229 0.52678 0.89864 0.0
O132 O 0.08069 0.48619 0.87737 0.0
O133 O 1.00399 0.43535 0.89008 0.0
O134 O 0.10967 0.61244 0.89885 0.0
O135 O 0.16348 0.5916 0.88975 0.0
O136 O 0.14237 0.52004 0.92386 0.0
O137 O 0.09594 0.43782 0.91685 0.0
O138 O 0.06605 0.47503 0.95426 0.0
O139 O 0.08106 0.54986 0.94175 0.0
C140 C 0.98656 0.50577 0.91358 0.0
O141 O 0.98902 0.35603 0.91844 0.0
O142 O 0.97677 0.38535 0.95014 0.0
C143 C 1.03663 0.44773 0.87395 0.0
C144 C 0.19386 0.67498 0.90164 0.0
C145 C 0.26972 0.76845 0.91717 0.0
C146 C 0.22016 0.75265 0.92221 0.0
C147 C 0.18272 0.70655 0.91454 0.0
C148 C 0.24335 0.69065 0.89674 0.0
C149 C 0.28069 0.73659 0.90441 0.0
C150 C 0.15433 0.62762 0.8918 0.0
C151 C 0.13914 0.47728 0.92071 0.0
H152 H 0.81701 0.20363 0.91951 0.0
H153 H 0.90475 0.24953 0.92924 0.0
H154 H 0.89773 0.38277 0.93285 0.0
H155 H 0.80986 0.33699 0.92316 0.0
H156 H 0.21022 0.77593 0.93206 0.0
H157 H 0.14497 0.69601 0.91847 0.0
H158 H 0.25322 0.66772 0.88653 0.0
H159 H 0.3182 0.74768 0.89969 0.0
Tb160 Tb 0.66923 0.60617 0.92485 0.0
Tb161 Tb 0.55851 0.55617 0.90139 0.0
C162 C 0.57824 0.56974 0.95526 0.0
C163 C 0.79198 0.62273 0.93587 0.0
C164 C 0.85494 0.58366 0.92775 0.0
C165 C 0.8422 0.58964 0.9504 0.0
C166 C 0.81105 0.60898 0.9544 0.0
C167 C 0.80546 0.61769 0.91328 0.0
C168 C 0.83652 0.59836 0.90926 0.0
C169 C 0.75542 0.63871 0.94017 0.0
O170 O 0.63341 0.52693 0.92891 0.0
O171 O 0.58446 0.50455 0.89672 0.0
O172 O 0.61415 0.59611 0.87472 0.0
O173 O 0.67389 0.58405 0.89013 0.0
O174 O 0.50574 0.56157 0.88095 0.0
O175 O 0.48975 0.49325 0.89586 0.0
O176 O 0.57184 0.62474 0.91668 0.0
O177 O 0.65612 0.66587 0.91458 0.0
O178 O 0.62198 0.60686 0.95152 0.0
O179 O 0.5505 0.5401 0.93847 0.0
C180 C 0.60463 0.49341 0.91367 0.0
O181 O 0.74443 0.65755 0.92281 0.0
O182 O 0.71625 0.60801 0.95128 0.0
C183 C 0.65703 0.59774 0.87295 0.0
C184 C 0.42311 0.50781 0.89155 0.0
C185 C 0.32828 0.48987 0.90459 0.0
C186 C 0.33637 0.47599 0.8825 0.0
C187 C 0.38324 0.48488 0.87608 0.0
C188 C 0.41537 0.52131 0.9137 0.0
C189 C 0.36847 0.51244 0.92015 0.0
C190 C 0.47208 0.51642 0.88442 0.0
C191 C 0.61384 0.66572 0.91563 0.0
H192 H 0.85638 0.57946 0.96506 0.0
H193 H 0.80119 0.61246 0.97197 0.0
H194 H 0.79135 0.62786 0.89861 0.0
H195 H 0.84513 0.5939 0.89159 0.0
H196 H 0.30674 0.45931 0.8699 0.0
H197 H 0.38841 0.47407 0.85892 0.0
H198 H 0.44559 0.53874 0.92598 0.0
H199 H 0.3637 0.52317 0.93739 0.0
Tb200 Tb 0.49256 0.07825 0.92538 0.0
Tb201 Tb 0.54272 1.01436 0.90449 0.0
C202 C 0.55308 0.04838 0.95662 0.0
C203 C 0.48079 0.18654 0.9384 0.0
C204 C 0.52549 0.28844 0.93289 0.0
C205 C 0.47406 0.25871 0.93144 0.0
C206 C 0.45196 0.20824 0.93415 0.0
C207 C 0.53199 0.21625 0.94092 0.0
C208 C 0.55417 0.2669 0.93834 0.0
C209 C 0.45817 0.13312 0.93617 0.0
O210 O 0.56309 0.13207 0.91043 0.0
O211 O 0.60305 0.08725 0.90864 0.0
O212 O 0.52553 0.05026 0.87635 0.0
O213 O 0.45725 0.03845 0.89419 0.0
O214 O 0.53913 0.95951 0.88183 0.0
O215 O 0.60312 1.00276 0.90333 0.0
O216 O 0.46805 0.96037 0.91251 0.0
O217 O 0.44069 1.00294 0.93563 0.0
O218 O 0.54602 0.08427 0.95058 0.0
O219 O 0.54301 1.01136 0.94237 0.0
C220 C 0.60328 0.12879 0.90809 0.0
O221 O 0.45863 0.11778 0.91518 0.0
O222 O 0.47063 0.1109 0.95138 0.0
C223 C 0.48314 0.04949 0.87554 0.0
C224 C 0.58534 0.92185 0.89472 0.0
C225 C 0.59678 0.83967 0.90378 0.0
C226 C 0.63666 0.88746 0.90637 0.0
C227 C 0.63103 0.92791 0.90181 0.0
C228 C 0.54528 0.8742 0.89222 0.0
C229 C 0.55095 0.83366 0.89667 0.0
C230 C 0.58141 0.9656 0.88904 0.0
C231 C 0.43584 0.96183 0.92658 0.0
H232 H 0.45096 0.27436 0.92758 0.0
H233 H 0.4125 0.18588 0.93187 0.0
H234 H 0.55496 0.20004 0.94383 0.0
H235 H 0.59386 0.28883 0.93945 0.0
H236 H 0.67231 0.89378 0.91208 0.0
H237 H 0.66271 0.96416 0.90373 0.0
H238 H 0.50966 0.86812 0.88658 0.0
H239 H 0.51951 0.79752 0.89407 0.0
Tb240 Tb 0.13374 0.35786 0.4173 0.0
Tb241 Tb 0.24864 0.42088 0.43747 0.0
C242 C 0.22301 0.38833 0.38524 0.0
C243 C 1.01332 0.2496 0.40499 0.0
C244 C 0.95638 0.14735 0.40975 0.0
C245 C 0.93476 0.17713 0.41196 0.0
C246 C 0.96298 0.22774 0.40962 0.0
C247 C 1.03475 0.21992 0.40178 0.0
C248 C 1.00642 0.16913 0.40399 0.0
C249 C 1.04406 0.30304 0.40745 0.0
O250 O 0.15147 0.30336 0.43061 0.0
O251 O 0.23622 0.34807 0.43245 0.0
O252 O 0.1966 0.38343 0.46581 0.0
O253 O 0.13959 0.39618 0.44918 0.0
O254 O 0.32054 0.43218 0.43775 0.0
O255 O 0.30109 0.47575 0.45976 0.0
O256 O 0.22718 0.47504 0.43084 0.0
O257 O 0.15694 0.4337 0.40788 0.0
O258 O 0.18003 0.3526 0.39123 0.0
O259 O 0.25046 0.42488 0.39961 0.0
C260 C 0.19496 0.3065 0.43243 0.0
O261 O 0.06099 0.3179 0.42833 0.0
O262 O 0.07778 0.32579 0.39191 0.0
C263 C 0.15477 0.38374 0.46728 0.0
C264 C 0.38424 0.51317 0.44582 0.0
C265 C 0.47742 0.59504 0.43581 0.0
C266 C 0.43872 0.60137 0.44442 0.0
C267 C 0.39276 0.561 0.44936 0.0
C268 C 0.42279 0.50681 0.43725 0.0
C269 C 0.46862 0.54709 0.43223 0.0
C270 C 0.33683 0.46951 0.45199 0.0
C271 C 0.19331 0.47442 0.41717 0.0
H272 H 0.89615 0.16138 0.41605 0.0
H273 H 0.9459 0.25003 0.41244 0.0
H274 H 0.07378 0.23619 0.39857 0.0
H275 H 1.02419 0.14723 0.40229 0.0
H276 H 0.44415 0.63761 0.44781 0.0
H277 H 0.36416 0.56735 0.45618 0.0
H278 H 0.41759 0.47044 0.43452 0.0
H279 H 0.49705 0.54053 0.42538 0.0
Tb280 Tb 0.78295 0.82854 0.41319 0.0
Tb281 Tb 0.72086 0.87644 0.4375 0.0
C282 C 0.73254 0.86999 0.38346 0.0
C283 C 0.88916 0.81233 0.40211 0.0
C284 C 0.99087 0.85135 0.41091 0.0
C285 C 0.97261 0.84425 0.38812 0.0
C286 C 0.92228 0.82497 0.38378 0.0
C287 C 0.9072 0.81843 0.42486 0.0
C288 C 0.95741 0.83771 0.42922 0.0
C289 C 0.83688 0.79665 0.39745 0.0
O290 O 0.82698 0.90825 0.41081 0.0
O291 O 0.79795 0.92897 0.44279 0.0
O292 O 0.73753 0.83574 0.46352 0.0
O293 O 0.80981 0.84991 0.44787 0.0
O294 O 0.661 0.86819 0.45745 0.0
O295 O 0.71368 0.93832 0.44436 0.0
O296 O 0.66719 0.80936 0.42053 0.0
O297 O 0.71017 0.76825 0.42311 0.0
O298 O 0.73701 0.83133 0.38647 0.0
O299 O 0.73215 0.89699 0.40099 0.0
C300 C 0.83035 0.94097 0.42626 0.0
O301 O 0.80644 0.77673 0.41449 0.0
O302 O 0.82883 0.82813 0.38676 0.0
C303 C 0.77937 0.83506 0.46505 0.0
C304 C 0.63193 0.92245 0.44777 0.0
C305 C 0.55535 0.94084 0.43457 0.0
C306 C 0.57857 0.95645 0.45633 0.0
C307 C 0.61638 0.94733 0.46283 0.0
C308 C 0.60948 0.90728 0.42592 0.0
C309 C 0.57159 0.91635 0.41939 0.0
C310 C 0.67211 0.91356 0.455 0.0
C311 C 0.66802 0.76829 0.42176 0.0
H312 H 0.99721 0.85359 0.37359 0.0
H313 H 0.9093 0.82072 0.3661 0.0
H314 H 0.88265 0.80917 0.43936 0.0
H315 H 0.97012 0.84306 0.44698 0.0
H316 H 0.56673 0.97469 0.46863 0.0
H317 H 0.63332 0.95948 0.47974 0.0
H318 H 0.62122 0.88838 0.41394 0.0
H319 H 0.55509 0.90424 0.40241 0.0
Tb320 Tb 0.31124 1.00211 0.41362 0.0
Tb321 Tb 0.27331 0.89381 0.4356 0.0
C322 C 0.27129 0.91208 0.38185 0.0
C323 C 0.30873 0.11522 0.40685 0.0
C324 C 0.25717 0.16539 0.41818 0.0
C325 C 0.26773 0.16 0.39504 0.0
C326 C 0.29327 0.13518 0.38945 0.0
C327 C 0.29767 0.12008 0.42993 0.0
C328 C 0.27233 0.14492 0.43553 0.0
C329 C 0.33257 0.08605 0.40075 0.0
O330 O 0.23096 0.9617 0.41147 0.0
O331 O 0.21489 0.91055 0.44182 0.0
O332 O 0.31431 0.95139 0.4626 0.0
O333 O 0.28968 1.0024 0.44863 0.0
O334 O 0.28939 0.84391 0.45179 0.0
O335 O 0.21474 0.82423 0.44348 0.0
O336 O 0.3396 0.91249 0.41677 0.0
O337 O 0.37673 0.99546 0.42167 0.0
O338 O 0.30841 0.9563 0.38515 0.0
O339 O 0.24851 0.88317 0.39924 0.0
C340 C 0.20005 0.93037 0.42628 0.0
O341 O 0.35592 0.07822 0.41736 0.0
O342 O 0.30561 0.04649 0.38846 0.0
C343 C 0.31013 0.99097 0.46508 0.0
C344 C 0.23368 0.76036 0.44182 0.0
C345 C 0.21402 0.66644 0.42606 0.0
C346 C 0.18648 0.67154 0.44401 0.0
C347 C 0.19626 0.71791 0.45178 0.0
C348 C 0.26045 0.75563 0.42347 0.0
C349 C 0.25083 0.70919 0.41573 0.0
C350 C 0.24373 0.80877 0.4509 0.0
C351 C 0.37956 0.95518 0.4188 0.0
H352 H 0.25723 0.1759 0.38127 0.0
H353 H 0.30078 0.13139 0.37151 0.0
H354 H 0.30834 0.10444 0.44372 0.0
H355 H 0.26448 0.14798 0.45349 0.0
H356 H 0.15841 0.63972 0.45264 0.0
H357 H 0.17497 0.72063 0.46589 0.0
H358 H 0.28912 0.78779 0.41528 0.0
H359 H 0.27248 0.70677 0.40173 0.0
Tb360 Tb 0.69824 0.78316 0.25798 0.0
Tb361 Tb 0.76775 0.88965 0.2343 0.0
C362 C 0.75395 0.87535 0.28845 0.0
C363 C 0.58256 0.67069 0.26568 0.0
C364 C 0.4807 0.61914 0.25489 0.0
C365 C 0.49736 0.62303 0.27782 0.0
C366 C 0.54779 0.64849 0.28314 0.0
C367 C 0.56592 0.66755 0.24281 0.0
C368 C 0.51566 0.64191 0.23748 0.0
C369 C 0.63564 0.69986 0.27153 0.0
O370 O 0.66003 0.82514 0.26084 0.0
O371 O 0.69272 0.87455 0.22971 0.0
O372 O 0.74806 0.8306 0.20794 0.0
O373 O 0.67345 0.78191 0.2234 0.0
O374 O 0.77978 0.95936 0.22613 0.0
O375 O 0.83265 0.93747 0.21671 0.0
O376 O 0.81616 0.87097 0.2525 0.0
O377 O 0.76914 0.78788 0.24899 0.0
O378 O 0.74318 0.82968 0.28592 0.0
O379 O 0.75799 0.90285 0.27079 0.0
C380 C 0.65944 0.85581 0.2459 0.0
O381 O 0.66629 0.7069 0.2548 0.0
O382 O 0.64868 0.7399 0.28353 0.0
C383 C 0.70362 0.79202 0.20631 0.0
C384 C 0.86425 1.02147 0.22753 0.0
C385 C 0.94175 0.11427 0.24284 0.0
C386 C 0.8931 0.09752 0.24997 0.0
C387 C 0.85485 0.0517 0.24244 0.0
C388 C 0.91277 0.03827 0.22039 0.0
C389 C 0.95094 0.08389 0.22795 0.0
C390 C 0.82386 0.97377 0.21844 0.0
C391 C 0.81264 0.82784 0.251 0.0
H392 H 0.47146 0.60538 0.2916 0.0
H393 H 0.55965 0.65092 0.30092 0.0
H394 H 0.59172 0.68505 0.229 0.0
H395 H 0.50413 0.64001 0.21968 0.0
H396 H 0.88458 0.11968 0.26149 0.0
H397 H 0.81787 0.04021 0.24822 0.0
H398 H 0.9212 1.01631 0.20867 0.0
H399 H 0.98765 0.0958 0.22165 0.0
Tb400 Tb 0.33905 0.95018 0.25742 0.0
Tb401 Tb 0.22996 0.90064 0.23262 0.0
C402 C 0.24679 0.91264 0.28678 0.0
C403 C 0.46199 0.96883 0.26914 0.0
C404 C 0.52678 0.93207 0.26096 0.0
C405 C 0.51784 0.94246 0.28361 0.0
C406 C 0.48572 0.96066 0.28764 0.0
C407 C 0.47151 0.95921 0.24651 0.0
C408 C 0.50354 0.94111 0.24246 0.0
C409 C 0.42469 0.98361 0.27359 0.0
O410 O 0.30319 0.87079 0.26143 0.0
O411 O 0.25486 0.848 0.22894 0.0
O412 O 0.28742 0.9391 0.20627 0.0
O413 O 0.34551 0.92657 0.22328 0.0
O414 O 0.16104 0.83818 0.22657 0.0
O415 O 0.1783 0.90685 0.21169 0.0
O416 O 0.24272 0.96904 0.24788 0.0
O417 O 0.32681 1.00979 0.24605 0.0
O418 O 0.29039 0.95031 0.28351 0.0
O419 O 0.22022 0.88343 0.26961 0.0
C420 C 0.27467 0.8371 0.24615 0.0
O421 O 0.4139 1.00293 0.25637 0.0
O422 O 0.38531 0.95164 0.28415 0.0
C423 C 0.32991 0.93956 0.20538 0.0
C424 C 0.09527 0.85404 0.22217 0.0
C425 C 1.00094 0.83781 0.23521 0.0
C426 C 1.00803 0.82086 0.21368 0.0
C427 C 0.05465 0.82891 0.20726 0.0
C428 C 0.08848 0.8705 0.24379 0.0
C429 C 1.04187 0.86249 0.25024 0.0
C430 C 0.14406 0.86188 0.21508 0.0
C431 C 0.2847 1.00995 0.24679 0.0
H432 H 0.53567 0.93655 0.29823 0.0
H433 H 0.47878 0.96759 0.30524 0.0
H434 H 0.45349 0.96485 0.23192 0.0
H435 H 0.5091 0.93301 0.22483 0.0
H436 H 0.97781 0.8024 0.20149 0.0
H437 H 0.05903 0.81575 0.19052 0.0
H438 H 0.11925 0.88961 0.25566 0.0
H439 H 1.0379 0.87558 0.26706 0.0
Tb440 Tb 0.16573 0.423 0.2561 0.0
Tb441 Tb 0.21847 0.36155 0.23503 0.0
C442 C 0.22536 0.39244 0.28745 0.0
C443 C 0.15189 0.52986 0.26981 0.0
C444 C 0.19605 0.63195 0.26507 0.0
C445 C 0.14474 0.60187 0.26303 0.0
C446 C 0.12291 0.55132 0.26537 0.0
C447 C 0.2029 0.55988 0.27296 0.0
C448 C 0.2248 0.61063 0.27077 0.0
C449 C 0.12987 0.47658 0.26694 0.0
O450 O 0.2375 0.47851 0.24291 0.0
O451 O 0.27839 0.43458 0.24004 0.0
O452 O 0.2029 0.39918 0.20709 0.0
O453 O 0.13316 0.38574 0.22405 0.0
O454 O 0.21683 0.30839 0.21182 0.0
O455 O 0.27876 0.34968 0.23474 0.0
O456 O 0.1431 0.30679 0.2413 0.0
O457 O 0.11385 0.34673 0.26505 0.0
O458 O 0.21804 0.42829 0.28173 0.0
O459 O 0.21617 0.35619 0.27286 0.0
C460 C 0.27811 0.47593 0.24065 0.0
O461 O 0.1319 0.46259 0.24587 0.0
O462 O 0.14156 0.45364 0.2821 0.0
C463 C 0.16047 0.39834 0.20586 0.0
C464 C 0.26104 0.26904 0.22529 0.0
C465 C 0.27043 0.18553 0.23416 0.0
C466 C 0.31021 0.23297 0.23801 0.0
C467 C 0.30561 0.27407 0.23354 0.0
C468 C 0.22109 0.22173 0.22151 0.0
C469 C 0.22575 0.18055 0.22587 0.0
C470 C 0.25821 0.31355 0.21983 0.0
C471 C 0.10979 0.30656 0.25519 0.0
H472 H 0.12157 0.61733 0.25896 0.0
H473 H 0.08361 0.52875 0.26259 0.0
H474 H 0.22603 0.5439 0.276 0.0
H475 H 0.26441 0.63282 0.27232 0.0
H476 H 0.34497 0.23851 0.24465 0.0
H477 H 0.33721 0.31002 0.23647 0.0
H478 H 0.18634 0.21642 0.21495 0.0
H479 H 0.19446 0.14475 0.22229 0.0
Tb480 Tb 0.77984 0.66951 0.74769 0.0
Tb481 Tb 0.88987 0.74645 0.76962 0.0
C482 C 0.87246 0.70909 0.71715 0.0
C483 C 0.66447 0.5537 0.73256 0.0
C484 C 0.60378 0.4518 0.73719 0.0
C485 C 0.58374 0.48113 0.73057 0.0
C486 C 0.6138 0.53156 0.72832 0.0
C487 C 0.68516 0.52439 0.73796 0.0
C488 C 0.65507 0.47375 0.74013 0.0
C489 C 0.69333 0.60731 0.73495 0.0
O490 O 0.80858 0.62531 0.76331 0.0
O491 O 0.8916 0.68044 0.76186 0.0
O492 O 0.83938 0.70708 0.79819 0.0
O493 O 0.77153 0.699 0.77999 0.0
O494 O 0.94501 0.81955 0.77381 0.0
O495 O 0.95318 0.76251 0.7895 0.0
O496 O 0.84754 0.78362 0.76876 0.0
O497 O 0.79762 0.74371 0.73752 0.0
O498 O 0.83098 0.67067 0.72267 0.0
O499 O 0.89624 0.74673 0.73163 0.0
C500 C 0.85502 0.63575 0.76398 0.0
O501 O 0.70626 0.62331 0.75607 0.0
O502 O 0.72928 0.63094 0.72062 0.0
C503 C 0.79304 0.69677 0.79876 0.0
C504 C 1.0274 0.8356 0.77918 0.0
C505 C 0.13039 0.89741 0.77276 0.0
C506 C 0.11255 0.86095 0.7896 0.0
C507 C 0.06177 0.83063 0.79281 0.0
C508 C 1.04511 0.87062 0.76173 0.0
C509 C 0.09575 0.90104 0.7586 0.0
C510 C 0.97423 0.80907 0.7853 0.0
C511 C 0.82084 0.78278 0.75118 0.0
H512 H 0.54448 0.46524 0.72786 0.0
H513 H 0.59709 0.55358 0.72432 0.0
H514 H 0.72416 0.54097 0.74158 0.0
H515 H 0.6716 0.45225 0.74535 0.0
H516 H 0.13779 0.85638 0.80066 0.0
H517 H 0.04939 0.80432 0.80651 0.0
H518 H 1.01992 0.876 0.75101 0.0
H519 H 0.10754 0.92899 0.74571 0.0
Tb520 Tb 0.43787 0.1358 0.75699 0.0
Tb521 Tb 0.36422 0.17518 0.77716 0.0
C522 C 0.37348 0.15685 0.72462 0.0
C523 C 0.55332 0.13222 0.7471 0.0
C524 C 0.65659 0.17347 0.75121 0.0
C525 C 0.63486 0.17397 0.73004 0.0
C526 C 0.58379 0.1534 0.72799 0.0
C527 C 0.57511 0.13197 0.7683 0.0
C528 C 0.62607 0.15242 0.77032 0.0
C529 C 0.4992 0.11026 0.74472 0.0
O530 O 0.47497 0.21358 0.74907 0.0
O531 O 0.4357 0.24036 0.77421 0.0
O532 O 0.3854 0.14167 0.80489 0.0
O533 O 0.46102 0.16956 0.79052 0.0
O534 O 0.29333 0.16584 0.77874 0.0
O535 O 0.35232 0.22362 0.79853 0.0
O536 O 0.31627 0.09935 0.76748 0.0
O537 O 0.37055 0.06981 0.76789 0.0
O538 O 0.38432 0.12343 0.73067 0.0
O539 O 0.37266 0.18801 0.73985 0.0
C540 C 0.47123 0.24898 0.75964 0.0
O541 O 0.47362 0.0959 0.76365 0.0
O542 O 0.48343 0.13244 0.73121 0.0
C543 C 0.43062 0.14956 0.80739 0.0
C544 C 0.28602 0.23573 0.78614 0.0
C545 C 0.22891 0.27912 0.77347 0.0
C546 C 0.23273 0.2688 0.79669 0.0
C547 C 0.26086 0.24726 0.80291 0.0
C548 C 0.28509 0.24889 0.76318 0.0
C549 C 0.25691 0.27042 0.75693 0.0
C550 C 0.30619 0.20364 0.79232 0.0
C551 C 0.32541 0.06309 0.76812 0.0
H552 H 0.65723 0.18928 0.7149 0.0
H553 H 0.56809 0.1538 0.71139 0.0
H554 H 0.55287 0.11586 0.78339 0.0
H555 H 0.64162 0.15186 0.78694 0.0
H556 H 0.21143 0.27435 0.80991 0.0
H557 H 0.2607 0.23709 0.82069 0.0
H558 H 0.30415 0.24031 0.7499 0.0
H559 H 0.25552 0.27849 0.73894 0.0
Tb560 Tb 0.97834 0.32961 0.75094 0.0
Tb561 Tb 0.95045 0.21795 0.76494 0.0
C562 C 0.94517 0.24819 0.71431 0.0
C563 C 0.97351 0.44421 0.74664 0.0
C564 C 0.9278 0.50061 0.75563 0.0
C565 C 0.97676 0.52266 0.74799 0.0
C566 C 0.99935 0.49473 0.74356 0.0
C567 C 0.92447 0.42171 0.75405 0.0
C568 C 0.90168 0.44969 0.7584 0.0
C569 C 0.99843 0.41571 0.74238 0.0
O570 O 0.89802 0.28791 0.74831 0.0
O571 O 0.88062 0.21673 0.76694 0.0
O572 O 0.98559 0.27038 0.79444 0.0
O573 O 0.94877 0.31367 0.78496 0.0
O574 O 0.96568 0.16083 0.76004 0.0
O575 O 0.91418 0.15585 0.78603 0.0
O576 O 1.02223 0.25225 0.74935 0.0
O577 O 1.04768 0.33121 0.7601 0.0
O578 O 0.98128 0.29145 0.72038 0.0
O579 O 0.92285 0.21373 0.72962 0.0
C580 C 0.86667 0.24559 0.75737 0.0
O581 O 1.01421 0.40393 0.76069 0.0
O582 O 0.97677 0.37914 0.72772 0.0
C583 C 0.97182 0.30254 0.80018 0.0
C584 C 0.90285 0.08068 0.76912 0.0
C585 C 0.85714 0.97901 0.75819 0.0
C586 C 0.86492 0.99615 0.78131 0.0
C587 C 0.88745 0.04622 0.78665 0.0
C588 C 0.89338 0.06386 0.74599 0.0
C589 C 0.87081 1.01362 0.7406 0.0
C590 C 0.93414 0.13329 0.77536 0.0
C591 C 0.05759 0.29625 0.75461 0.0
H592 H 0.99765 0.56165 0.74527 0.0
H593 H 1.03712 0.51265 0.73779 0.0
H594 H 0.90399 0.38263 0.75659 0.0
H595 H 0.86406 0.4317 0.76435 0.0
H596 H 0.85588 0.9711 0.79541 0.0
H597 H 0.89481 0.05815 0.80459 0.0
H598 H 0.9049 0.08957 0.73205 0.0
H599 H 0.86499 1.002 0.72263 0.0
Tb600 Tb 0.36389 0.09647 0.58824 0.0
Tb601 Tb 0.43816 0.21142 0.57895 0.0
C602 C 0.40371 0.16861 0.62782 0.0
C603 C 0.24874 0.98042 0.58855 0.0
C604 C 0.14737 0.92737 0.57842 0.0
C605 C 0.17317 0.90312 0.58459 0.0
C606 C 0.22346 0.92948 0.58963 0.0
C607 C 0.2233 1.00489 0.58237 0.0
C608 C 0.17289 0.97856 0.57746 0.0
C609 C 0.30159 1.008 0.59375 0.0
O610 O 0.31967 0.13295 0.59338 0.0
O611 O 0.36626 0.20305 0.57304 0.0
O612 O 0.43085 0.16756 0.54712 0.0
O613 O 0.35109 0.11452 0.55452 0.0
O614 O 0.49517 0.27481 0.59381 0.0
O615 O 0.46631 0.27679 0.55959 0.0
O616 O 0.48506 0.18279 0.58906 0.0
O617 O 0.43532 0.10197 0.57921 0.0
O618 O 0.40397 0.13 0.61952 0.0
O619 O 0.40764 0.20253 0.61378 0.0
C620 C 0.32535 0.17288 0.58345 0.0
O621 O 0.33018 1.02391 0.57584 0.0
O622 O 0.31466 0.04152 0.60994 0.0
C623 C 0.38721 0.13225 0.54007 0.0
C624 C 0.53289 0.3541 0.57648 0.0
C625 C 0.59623 0.45622 0.58091 0.0
C626 C 0.55714 0.43664 0.56473 0.0
C627 C 0.52586 0.38604 0.56249 0.0
C628 C 0.57208 0.37354 0.59248 0.0
C629 C 0.60344 0.4239 0.59461 0.0
C630 C 0.49666 0.30138 0.57656 0.0
C631 C 0.47933 0.13973 0.58384 0.0
H632 H 0.1543 0.86371 0.58583 0.0
H633 H 0.24255 0.91011 0.5944 0.0
H634 H 0.24244 0.04432 0.58132 0.0
H635 H 0.15404 0.99813 0.57264 0.0
H636 H 0.5503 0.46044 0.55397 0.0
H637 H 0.4954 0.37204 0.55032 0.0
H638 H 0.57838 0.34981 0.60356 0.0
H639 H 0.63382 0.43738 0.6068 0.0
Tb640 Tb 1.01765 0.29058 0.58858 0.0
Tb641 Tb 0.90723 0.24218 0.56444 0.0
C642 C 0.92602 0.2557 0.61849 0.0
C643 C 0.13486 0.29632 0.60098 0.0
C644 C 0.19113 0.24891 0.59472 0.0
C645 C 0.18122 0.26006 0.61703 0.0
C646 C 0.15342 0.28356 0.62011 0.0
C647 C 0.14452 0.28492 0.57872 0.0
C648 C 0.17225 0.26158 0.57563 0.0
C649 C 0.10254 0.31795 0.60436 0.0
O650 O 0.98 0.21165 0.5932 0.0
O651 O 0.93104 0.18855 0.56097 0.0
O652 O 0.96403 0.28101 0.53793 0.0
O653 O 1.02101 0.26606 0.55417 0.0
O654 O 0.83967 0.17904 0.55713 0.0
O655 O 0.8534 0.2489 0.5453 0.0
O656 O 0.92205 0.31158 0.57954 0.0
O657 O 1.00666 0.35202 0.57848 0.0
O658 O 0.97015 0.29236 0.61486 0.0
O659 O 0.8982 0.22637 0.6016 0.0
C660 C 0.95113 0.17786 0.57813 0.0
O661 O 0.09404 0.33714 0.58632 0.0
O662 O 0.06245 0.29144 0.61588 0.0
C663 C 1.00612 0.28079 0.53667 0.0
C664 C 0.77034 0.19003 0.5539 0.0
C665 C 0.67185 0.16185 0.56614 0.0
C666 C 0.68534 0.16343 0.54284 0.0
C667 C 0.73392 0.17732 0.53683 0.0
C668 C 0.75721 0.18825 0.57718 0.0
C669 C 0.70859 0.17431 0.58323 0.0
C670 C 0.82094 0.20274 0.54703 0.0
C671 C 0.96449 0.35238 0.57908 0.0
H672 H 0.19561 0.25136 0.63211 0.0
H673 H 0.14612 0.29148 0.63746 0.0
H674 H 0.13027 0.29361 0.56361 0.0
H675 H 0.17851 0.25304 0.5582 0.0
H676 H 0.65861 0.15498 0.52914 0.0
H677 H 0.74308 0.17816 0.51875 0.0
H678 H 0.7845 0.19742 0.5907 0.0
H679 H 0.69978 0.17308 0.60136 0.0
Tb680 Tb 0.8336 0.7605 0.59065 0.0
Tb681 Tb 0.86647 0.68481 0.56709 0.0
C682 C 0.88514 0.71833 0.61958 0.0
C683 C 0.83363 0.8742 0.60765 0.0
C684 C 0.87716 0.9752 0.6 0.0
C685 C 0.82601 0.94642 0.60264 0.0
C686 C 0.80448 0.8964 0.60646 0.0
C687 C 0.88496 0.90307 0.60599 0.0
C688 C 0.90664 0.95336 0.60237 0.0
C689 C 0.8094 0.82061 0.60676 0.0
O690 O 0.90433 0.80626 0.5738 0.0
O691 O 0.93358 0.75191 0.57382 0.0
O692 O 0.85542 0.72468 0.53856 0.0
O693 O 0.79945 0.73948 0.55714 0.0
O694 O 0.84624 0.61137 0.5613 0.0
O695 O 0.91549 0.6684 0.5489 0.0
O696 O 0.78775 0.6519 0.56535 0.0
O697 O 0.77726 0.68528 0.59871 0.0
O698 O 0.88629 0.75862 0.61371 0.0
O699 O 0.86833 0.68054 0.60506 0.0
C700 C 0.94047 0.79624 0.57178 0.0
O701 O 0.79899 0.802 0.58597 0.0
O702 O 0.82795 0.79964 0.61931 0.0
C703 C 0.82159 0.73832 0.53831 0.0
C704 C 0.9107 0.59238 0.55868 0.0
C705 C 0.94155 0.52378 0.56937 0.0
C706 C 0.95067 0.54542 0.54755 0.0
C707 C 0.93525 0.57913 0.54227 0.0
C708 C 0.90388 0.57289 0.5809 0.0
C709 C 0.91906 0.539 0.58616 0.0
C710 C 0.88751 0.62148 0.55145 0.0
C711 C 0.76057 0.65002 0.58285 0.0
H712 H 0.8025 0.96245 0.60118 0.0
H713 H 0.76479 0.87462 0.60743 0.0
H714 H 0.908 0.8864 0.60648 0.0
H715 H 0.94612 0.97466 0.60031 0.0
H716 H 0.96742 0.53442 0.5341 0.0
H717 H 0.9407 0.59332 0.52497 0.0
H718 H 0.8852 0.58246 0.59397 0.0
H719 H 0.91204 0.52376 0.60326 0.0
C720 C 0.50263 0.88092 0.0864 0.0
C721 C 0.52443 0.91745 0.10363 0.0
H722 H 0.50392 0.82124 0.06856 0.0
C723 C 0.56012 0.91751 0.11833 0.0
H724 H 0.47565 0.88071 0.0746 0.0
C725 C 0.57623 0.88379 0.11494 0.0
C726 C 0.55758 0.84973 0.0965 0.0
H727 H 0.57787 0.94576 0.13157 0.0
H728 H 0.60581 0.8867 0.12578 0.0
C729 C 0.51937 0.84749 0.08274 0.0
C730 C 0.24341 0.71256 0.06442 0.0
C731 C 0.25581 0.74704 0.08252 0.0
H732 H 0.20248 0.63706 0.05398 0.0
C733 C 0.23682 0.73081 0.10461 0.0
H734 H 0.25786 0.72409 0.04728 0.0
C735 C 0.20516 0.68132 0.10844 0.0
C736 C 0.19214 0.64681 0.09032 0.0
H737 H 0.24543 0.75661 0.11885 0.0
H738 H 0.1903 0.6702 0.12555 0.0
C739 C 0.21215 0.66278 0.06833 0.0
C740 C 0.38551 0.50965 0.10259 0.0
C741 C 0.36836 0.52735 0.0848 0.0
H742 H 0.44764 0.51363 0.12002 0.0
C743 C 0.403 0.5656 0.0713 0.0
H744 H 0.35996 0.47992 0.11319 0.0
C745 C 0.45349 0.58497 0.07519 0.0
C746 C 0.47056 0.56651 0.09267 0.0
H747 H 0.39112 0.58068 0.05771 0.0
H748 H 0.47909 0.61382 0.0642 0.0
C749 C 0.43592 0.52898 0.10648 0.0
C750 C 0.91321 0.50306 0.93259 0.0
C751 C 0.95029 0.52284 0.91588 0.0
H752 H 0.85385 0.50631 0.94928 0.0
C753 C 0.95467 0.5617 0.9026 0.0
H754 H 0.90874 0.47311 0.94314 0.0
C755 C 0.92354 0.58108 0.90632 0.0
C756 C 0.88718 0.56207 0.92338 0.0
H757 H 0.98297 0.57808 0.88968 0.0
H758 H 0.92887 0.61187 0.8962 0.0
C759 C 0.88203 0.52244 0.93629 0.0
C760 C 0.58654 0.37716 0.94127 0.0
C761 C 0.54887 0.3411 0.9273 0.0
H762 H 0.63395 0.45381 0.94795 0.0
C763 C 0.5329 0.35556 0.90784 0.0
H764 H 0.59964 0.36706 0.95636 0.0
C765 C 0.55274 0.40492 0.90288 0.0
C766 C 0.58891 0.44124 0.91735 0.0
H767 H 0.50466 0.32859 0.89646 0.0
H768 H 0.53857 0.41453 0.88801 0.0
C769 C 0.6062 0.4268 0.93642 0.0
C770 C 0.68783 0.16986 0.8929 0.0
C771 C 0.65237 0.1726 0.90671 0.0
H772 H 0.7642 0.19789 0.8862 0.0
C773 C 0.66755 0.21139 0.92279 0.0
H774 H 0.67705 0.1403 0.88036 0.0
C775 C 0.71789 0.24423 0.92639 0.0
C776 C 0.75349 0.23851 0.91398 0.0
H777 H 0.641 0.21383 0.9339 0.0
H778 H 0.72895 0.27183 0.93997 0.0
C779 C 0.73776 0.20245 0.89645 0.0
C780 C 0.25291 0.22925 0.44284 0.0
C781 C 0.23381 0.19531 0.42435 0.0
H782 H 0.25437 0.29046 0.46015 0.0
C783 C 0.19507 0.19311 0.411 0.0
H784 H 0.28294 0.23231 0.45338 0.0
C785 C 0.17814 0.22628 0.41517 0.0
C786 C 0.2001 0.26244 0.43256 0.0
H787 H 0.17915 0.16695 0.39681 0.0
H788 H 0.1507 0.22603 0.40368 0.0
C789 C 0.23644 0.26253 0.4468 0.0
C790 C 0.89639 0.07862 0.43403 0.0
C791 C 0.92716 0.09429 0.4147 0.0
H792 H 0.84277 1.01843 0.4531 0.0
C793 C 0.92905 0.05899 0.40021 0.0
H794 H 0.89487 0.1049 0.44581 0.0
C795 C 0.89906 1.00903 0.40441 0.0
C796 C 0.86696 0.99342 0.42333 0.0
H797 H 0.95245 0.06995 0.38519 0.0
H798 H 0.90003 0.98271 0.39246 0.0
C799 C 0.86682 1.02892 0.43832 0.0
C800 C 0.11221 0.87518 0.43738 0.0
C801 C 0.14674 0.91317 0.42375 0.0
H802 H 1.03626 0.82531 0.44376 0.0
C803 C 0.12958 0.93178 0.40638 0.0
H804 H 0.12404 0.8597 0.45081 0.0
C805 C 0.07914 0.91208 0.40237 0.0
C806 C 1.04458 0.87325 0.41562 0.0
H807 H 0.1551 0.96103 0.39554 0.0
H808 H 0.06723 0.92732 0.38887 0.0
C809 C 0.06176 0.85545 0.43335 0.0
C810 C 0.55827 0.87507 0.27091 0.0
C811 C 0.55969 0.91131 0.2566 0.0
H812 H 0.58798 0.82864 0.27859 0.0
C813 C 0.59263 0.9274 0.23804 0.0
H814 H 0.53276 0.86124 0.28511 0.0
C815 C 0.62402 0.90837 0.23414 0.0
C816 C 0.62321 0.87278 0.24871 0.0
H817 H 0.59498 0.95556 0.2268 0.0
H818 H 0.64959 0.92235 0.21997 0.0
C819 C 0.58962 0.85601 0.267 0.0
C820 C 0.22392 0.74863 0.23507 0.0
C821 C 0.25911 0.78495 0.2499 0.0
H822 H 0.17674 0.67228 0.22827 0.0
C823 C 0.27553 0.77047 0.26927 0.0
H824 H 0.21043 0.75823 0.21995 0.0
C825 C 0.25599 0.72078 0.27404 0.0
C826 C 0.21929 0.68471 0.25967 0.0
H827 H 0.30249 0.79747 0.28109 0.0
H828 H 0.26842 0.71063 0.28934 0.0
C829 C 0.20419 0.69924 0.23994 0.0
C830 C 0.39077 0.58917 0.26277 0.0
C831 C 0.42745 0.58853 0.24891 0.0
H832 H 0.31361 0.55466 0.27044 0.0
C833 C 0.4129 0.55555 0.23003 0.0
H834 H 0.40079 0.61451 0.2773 0.0
C835 C 0.36332 0.5217 0.22612 0.0
C836 C 0.32696 0.52038 0.24076 0.0
H837 H 0.44003 0.55373 0.2191 0.0
H838 H 0.3536 0.49453 0.21241 0.0
C839 C 0.34084 0.55554 0.25863 0.0
C840 C 0.91454 0.60882 0.77459 0.0
C841 C 0.86823 0.59684 0.76547 0.0
H842 H 0.96896 0.58754 0.77909 0.0
C843 C 0.83883 0.5503 0.75535 0.0
H844 H 0.93781 0.64417 0.78279 0.0
C845 C 0.8571 0.51774 0.75299 0.0
C846 C 0.90494 0.53134 0.76076 0.0
H847 H 0.80312 0.54021 0.74806 0.0
H848 H 0.83488 0.48311 0.74402 0.0
C849 C 0.93258 0.57649 0.77234 0.0
C850 C 0.52881 0.38659 0.75632 0.0
C851 C 0.57069 0.39958 0.74287 0.0
H852 H 0.46533 0.32966 0.77228 0.0
C853 C 0.58064 0.36265 0.73541 0.0
H854 H 0.52053 0.41419 0.76271 0.0
C855 C 0.5487 0.31365 0.74091 0.0
C856 C 0.50659 0.30076 0.75427 0.0
H857 H 0.61264 0.37155 0.72502 0.0
H858 H 0.55696 0.28595 0.73466 0.0
C859 C 0.49734 0.33798 0.762 0.0
C860 C 0.74414 0.23704 0.74262 0.0
C861 C 0.71062 0.19318 0.75321 0.0
H862 H 0.81968 0.28841 0.73578 0.0
C863 C 0.72904 0.1676 0.76554 0.0
H864 H 0.73115 0.25787 0.73318 0.0
C865 C 0.77956 0.18505 0.76708 0.0
C866 C 0.81318 0.22866 0.75637 0.0
H867 H 0.7043 0.1334 0.77364 0.0
H868 H 0.79213 0.1639 0.77656 0.0
C869 C 0.79489 0.25468 0.74424 0.0
C870 C 0.25809 0.24313 0.57362 0.0
C871 C 0.22281 0.22624 0.59116 0.0
H872 H 0.317 0.23909 0.55726 0.0
C873 C 0.21911 0.18864 0.60533 0.0
H874 H 0.2625 0.27232 0.56254 0.0
C875 C 0.25074 0.16929 0.60227 0.0
C876 C 0.28701 0.18754 0.58515 0.0
H877 H 0.19194 0.17437 0.61884 0.0
H878 H 0.24787 0.1413 0.61378 0.0
C879 C 0.28964 0.22412 0.57067 0.0
C880 C 0.87757 0.03985 0.57549 0.0
C881 C 0.8989 1.02708 0.59347 0.0
H882 H 0.87785 0.09716 0.55625 0.0
C883 C 0.94015 0.06412 0.60523 0.0
H884 H 0.84622 1.01195 0.56587 0.0
C885 C 0.95833 0.11321 0.59977 0.0
C886 C 0.93598 0.12604 0.58221 0.0
H887 H 0.95732 0.05523 0.61914 0.0
H888 H 0.98919 0.14111 0.60963 0.0
C889 C 0.89602 0.08869 0.56985 0.0
C890 C 0.06087 0.91203 0.58302 0.0
C891 C 0.09392 0.89877 0.57328 0.0
H892 H 0.98524 0.88975 0.58993 0.0
C893 C 0.07529 0.85559 0.55993 0.0
H894 H 0.0743 0.94523 0.59337 0.0
C895 C 1.02483 0.82422 0.558 0.0
C896 C 0.99179 0.83538 0.56927 0.0
H897 H 0.09984 0.84507 0.55172 0.0
H898 H 1.01167 0.78991 0.54858 0.0
C899 C 1.00998 0.88048 0.581 0.0
C900 C 0.5892 0.091 0.01841 0.0
C901 C 0.56617 0.0464 0.02983 0.0
H902 H 0.60339 0.12646 0.98587 0.0
C903 C 0.54746 1.00261 0.01673 0.0
H904 H 0.6038 0.12524 0.02802 0.0
C905 C 0.54745 1.0032 0.99259 0.0
C906 C 0.56557 0.0476 0.98118 0.0
H907 H 0.5298 0.96763 0.02515 0.0
H908 H 0.52954 0.96881 0.98301 0.0
C909 C 0.58862 0.09158 0.99426 0.0
C910 C 0.09531 0.56845 0.99557 0.0
C911 C 0.0617 0.52845 0.98198 0.0
H912 H 0.1169 0.59728 0.03017 0.0
C913 C 1.01848 0.49202 0.99203 0.0
H914 H 0.12887 0.59684 0.98812 0.0
C915 C 1.01149 0.49241 0.01572 0.0
C916 C 1.04741 0.52946 0.02976 0.0
H917 H 0.99166 0.46117 0.98177 0.0
H918 H 0.98022 0.46139 0.02332 0.0
C919 C 0.08818 0.5689 0.0195 0.0
C920 C 0.56507 0.51994 0.99007 0.0
C921 C 0.56444 0.5595 0.97951 0.0
H922 H 0.57669 0.49211 0.02178 0.0
C923 C 0.56616 0.59725 0.99324 0.0
H924 H 0.56497 0.49104 0.97962 0.0
C925 C 0.5733 0.59808 0.01696 0.0
C926 C 0.57916 0.56134 0.02735 0.0
H927 H 0.56643 0.62835 0.98539 0.0
H928 H 0.57768 0.62935 0.027 0.0
C929 C 0.57228 0.52077 0.01405 0.0
C930 C 0.21556 0.34551 0.34754 0.0
C931 C 0.23596 0.38943 0.36064 0.0
H932 H 0.19722 0.31189 0.31377 0.0
C933 C 0.26132 0.43394 0.34925 0.0
H934 H 0.19616 0.31057 0.35594 0.0
C935 C 0.26152 0.43459 0.32512 0.0
C936 C 0.23701 0.39076 0.31201 0.0
H937 H 0.27735 0.46828 0.35887 0.0
H938 H 0.27813 0.46958 0.31671 0.0
C939 C 0.21638 0.34615 0.3234 0.0
C940 C 0.78768 0.9039 0.35046 0.0
C941 C 0.74114 0.88869 0.35999 0.0
H942 H 0.82853 0.91236 0.31954 0.0
C943 C 0.70163 0.87973 0.3455 0.0
H944 H 0.8184 0.91019 0.36143 0.0
C945 C 0.7077 0.88163 0.32153 0.0
C946 C 0.75314 0.89213 0.31203 0.0
H947 H 0.6653 0.86693 0.35254 0.0
H948 H 0.67579 0.87022 0.31045 0.0
C949 C 0.79359 0.90531 0.32658 0.0
C950 C 0.23898 0.86274 0.3208 0.0
C951 C 0.23306 0.89999 0.3109 0.0
H952 H 0.2559 0.837 0.35183 0.0
C953 C 0.23015 0.93458 0.32526 0.0
H954 H 0.24265 0.83648 0.30987 0.0
C955 C 0.23779 0.93492 0.34895 0.0
C956 C 0.24899 0.901 0.35863 0.0
H957 H 0.22656 0.96409 0.31793 0.0
H958 H 0.23892 0.96424 0.35947 0.0
C959 C 0.24696 0.86322 0.34469 0.0
C960 C 0.8675 0.66752 0.67926 0.0
C961 C 0.88807 0.71087 0.69288 0.0
H962 H 0.8511 0.63563 0.64514 0.0
C963 C 0.91669 0.75564 0.68211 0.0
H964 H 0.8459 0.63223 0.68711 0.0
C965 C 0.91982 0.7574 0.65803 0.0
C966 C 0.89449 0.71446 0.6443 0.0
H967 H 0.93326 0.78956 0.69207 0.0
H968 H 0.93913 0.79287 0.65011 0.0
C969 C 0.87073 0.66928 0.65518 0.0
C970 C 0.35984 0.12256 0.66231 0.0
C971 C 0.38926 0.16795 0.65209 0.0
H972 H 0.32979 0.08399 0.69336 0.0
C973 C 0.40529 0.21093 0.66547 0.0
H974 H 0.34572 0.08881 0.65235 0.0
C975 C 0.39591 0.20806 0.68929 0.0
C976 C 0.36993 0.16219 0.69966 0.0
H977 H 0.42753 0.24636 0.65786 0.0
H978 H 0.41214 0.24128 0.69977 0.0
C979 C 0.3501 0.11975 0.68577 0.0
C980 C 0.91814 0.28366 0.65717 0.0
C981 C 0.91227 0.24503 0.64276 0.0
H982 H 0.93234 0.31408 0.6913 0.0
C983 C 0.90835 0.20275 0.65262 0.0
H984 H 0.92176 0.31674 0.6499 0.0
C985 C 0.91515 0.20138 0.67653 0.0
C986 C 0.92627 0.24249 0.6905 0.0
H987 H 0.90493 0.17296 0.64168 0.0
H988 H 0.91584 0.17021 0.6837 0.0
C989 C 0.92494 0.28235 0.6808 0.0
C990 C 0.36164 0.99403 0.17082 0.0
C991 C 0.36537 0.96206 0.18615 0.0
H992 H 0.39478 0.04399 0.1432 0.0
C993 C 0.40717 0.9561 0.18483 0.0
H994 H 0.33046 1.00003 0.1715 0.0
C995 C 0.44475 0.9822 0.16903 0.0
C996 C 0.44125 1.0145 0.15385 0.0
H997 H 0.41107 0.93125 0.19616 0.0
H998 H 0.47595 0.97622 0.16838 0.0
C999 C 0.39902 1.01979 0.15484 0.0
C1000 C 0.08733 0.44102 0.17011 0.0
C1001 C 0.12257 0.4729 0.15465 0.0
H1002 H 0.07138 0.39157 0.19785 0.0
C1003 C 0.17051 0.47929 0.15585 0.0
H1004 H 0.05002 0.43465 0.1695 0.0
C1005 C 0.18267 0.45382 0.17176 0.0
C1006 C 0.14731 0.42164 0.1871 0.0
H1007 H 0.19884 0.50393 0.14432 0.0
H1008 H 0.21994 0.46009 0.17233 0.0
C1009 C 0.09956 0.41579 0.18613 0.0
C1010 C 0.63656 0.72898 0.18172 0.0
C1011 C 0.68704 0.75514 0.18719 0.0
H1012 H 0.57885 0.67123 0.1618 0.0
C1013 C 0.71816 0.73985 0.17707 0.0
H1014 H 0.61145 0.73937 0.18942 0.0
C1015 C 0.69887 0.69928 0.16165 0.0
C1016 C 0.6483 0.67367 0.15615 0.0
H1017 H 0.757 0.75856 0.18138 0.0
H1018 H 0.72365 0.68919 0.15334 0.0
C1019 C 0.61762 0.68922 0.1663 0.0
C1020 C 0.05631 0.40055 0.84371 0.0
C1021 C 1.02307 0.41295 0.85398 0.0
H1022 H 0.0659 0.35382 0.81898 0.0
C1023 C 0.97311 0.38562 0.84765 0.0
H1024 H 0.09483 0.42014 0.84863 0.0
C1025 C 0.95666 0.34751 0.8314 0.0
C1026 C 0.98939 0.33487 0.82101 0.0
H1027 H 0.94633 0.39368 0.85537 0.0
H1028 H 0.91809 0.32847 0.82648 0.0
C1029 C 1.03955 0.36168 0.82731 0.0
C1030 C 0.68181 0.64974 0.8376 0.0
C1031 C 0.69106 0.62216 0.8535 0.0
H1032 H 0.70754 0.69606 0.80833 0.0
C1033 C 0.73589 0.62174 0.85201 0.0
H1034 H 0.64817 0.65152 0.83838 0.0
C1035 C 0.77062 0.64827 0.83513 0.0
C1036 C 0.76105 0.67533 0.81909 0.0
H1037 H 0.74417 0.60056 0.86384 0.0
H1038 H 0.80405 0.64612 0.83414 0.0
C1039 C 0.71629 0.67583 0.82058 0.0
C1040 C 0.49169 0.13005 0.82564 0.0
C1041 C 0.44418 0.12488 0.82535 0.0
H1042 H 0.5411 0.10965 0.84117 0.0
C1043 C 0.40931 0.09276 0.84089 0.0
H1044 H 0.51957 0.15427 0.81381 0.0
C1045 C 0.42173 0.06693 0.85644 0.0
C1046 C 0.46929 0.07233 0.85684 0.0
H1047 H 0.37231 0.08725 0.84096 0.0
H1048 H 0.39399 0.04297 0.8684 0.0
C1049 C 0.50403 0.10399 0.84112 0.0
C1050 C 0.08402 0.29901 0.51619 0.0
C1051 C 1.04206 0.30468 0.51774 0.0
H1052 H 0.153 0.32012 0.49968 0.0
C1053 C 1.03848 0.33752 0.50294 0.0
H1054 H 0.08789 0.27367 0.52717 0.0
C1055 C 0.07605 0.36425 0.48721 0.0
C1056 C 0.11829 0.35902 0.48588 0.0
H1057 H 1.00723 0.34338 0.50383 0.0
H1058 H 0.07186 0.38908 0.47597 0.0
C1059 C 0.12174 0.32598 0.50058 0.0
C1060 C 0.75304 0.77958 0.49915 0.0
C1061 C 0.78997 0.81037 0.48405 0.0
H1062 H 0.73382 0.73118 0.52757 0.0
C1063 C 0.83667 0.81389 0.48578 0.0
H1064 H 0.71657 0.77532 0.49811 0.0
C1065 C 0.84628 0.78751 0.50224 0.0
C1066 C 0.8096 0.75755 0.51761 0.0
H1067 H 0.86623 0.83766 0.47456 0.0
H1068 H 0.88298 0.79244 0.50365 0.0
C1069 C 0.7628 0.75365 0.51576 0.0
C1070 C 0.31484 0.06022 0.48849 0.0
C1071 C 0.33237 1.02732 0.48452 0.0
H1072 H 0.32053 0.12079 0.50824 0.0
C1073 C 0.37358 0.03404 0.49733 0.0
H1074 H 0.28308 0.05627 0.47912 0.0
C1075 C 0.39577 0.07224 0.51404 0.0
C1076 C 0.37737 0.10449 0.51801 0.0
H1077 H 0.3885 1.00989 0.49449 0.0
H1078 H 0.42551 0.07494 0.52468 0.0
C1079 C 0.3369 0.09801 0.5049 0.0
C1080 C 0.48945 0.23038 0.08598 0.0
C1081 C 0.53705 0.27164 0.08572 0.0
H1082 H 0.44624 0.15181 0.08513 0.0
C1083 C 0.57699 0.2645 0.08066 0.0
H1084 H 0.45782 0.23441 0.0899 0.0
C1085 C 0.57026 0.21745 0.07804 0.0
C1086 C 0.52336 0.1762 0.08005 0.0
H1087 H 0.61394 0.2953 0.07969 0.0
H1088 H 0.6023 0.2132 0.07568 0.0
C1089 C 0.48266 0.183 0.08312 0.0
C1090 C 0.89542 0.29276 0.10858 0.0
C1091 C 0.85156 0.29273 0.10289 0.0
H1092 H 0.97443 0.33351 0.11019 0.0
C1093 C 0.85526 0.33476 0.09293 0.0
H1094 H 0.8942 0.26131 0.11648 0.0
C1095 C 0.90112 0.37611 0.08955 0.0
C1096 C 0.94483 0.37667 0.09583 0.0
H1097 H 0.82261 0.33591 0.08776 0.0
H1098 H 0.90221 0.408 0.08221 0.0
C1099 C 0.94153 0.33419 0.105 0.0
C1100 C 0.75625 0.57105 0.0833 0.0
C1101 C 0.75287 0.61164 0.09146 0.0
H1102 H 0.79832 0.53452 0.08163 0.0
C1103 C 0.79368 0.64944 0.1032 0.0
H1104 H 0.72565 0.54113 0.07418 0.0
C1105 C 0.8359 0.64559 0.10751 0.0
C1106 C 0.83846 0.60401 0.10003 0.0
H1107 H 0.7923 0.68107 0.10985 0.0
H1108 H 0.86632 0.67496 0.11696 0.0
C1109 C 0.79828 0.56732 0.08748 0.0
C1110 C 0.27557 0.52006 0.92342 0.0
C1111 C 0.27892 0.48329 0.91085 0.0
H1112 H 0.22926 0.54653 0.93665 0.0
C1113 C 0.23487 0.44176 0.90339 0.0
H1114 H 0.3084 0.5528 0.92926 0.0
C1115 C 0.18894 0.43812 0.90764 0.0
C1116 C 0.18605 0.47608 0.91932 0.0
H1117 H 0.2359 0.41235 0.89393 0.0
H1118 H 0.15597 0.4066 0.90095 0.0
C1119 C 0.22993 0.51653 0.92756 0.0
C1120 C 0.64655 0.79614 0.90219 0.0
C1121 C 0.60295 0.79632 0.90821 0.0
H1122 H 0.68456 0.75513 0.9 0.0
C1123 C 0.56476 0.75418 0.91812 0.0
H1124 H 0.67665 0.82763 0.8943 0.0
C1125 C 0.56919 0.71261 0.92115 0.0
C1126 C 0.61213 0.71196 0.91456 0.0
H1127 H 0.53114 0.75312 0.92352 0.0
H1128 H 0.53851 0.68064 0.92846 0.0
C1129 C 0.65116 0.75452 0.90543 0.0
C1130 C 0.39648 0.87293 0.9336 0.0
C1131 C 0.39115 0.91415 0.93037 0.0
H1132 H 0.36243 0.79504 0.93276 0.0
C1133 C 0.34407 0.90724 0.92575 0.0
H1134 H 0.43243 0.87722 0.93713 0.0
C1135 C 0.3038 0.85979 0.92263 0.0
C1136 C 0.30995 0.81846 0.9242 0.0
H1137 H 0.33911 0.93836 0.92273 0.0
H1138 H 0.26867 0.85572 0.91754 0.0
C1139 C 0.35642 0.82579 0.93075 0.0
C1140 C 0.24827 0.61125 0.41605 0.0
C1141 C 0.20707 0.61712 0.41961 0.0
H1142 H 0.27582 0.56155 0.41207 0.0
C1143 C 0.16001 0.57499 0.4189 0.0
H1144 H 0.28507 0.64249 0.41666 0.0
C1145 C 0.15465 0.52814 0.41602 0.0
C1146 C 0.1963 0.52251 0.41408 0.0
H1147 H 0.12738 0.57814 0.42131 0.0
H1148 H 0.1183 0.49635 0.41685 0.0
C1149 C 0.24295 0.56468 0.41345 0.0
C1150 C 0.61676 0.67906 0.43159 0.0
C1151 C 0.61997 0.72217 0.42329 0.0
H1152 H 0.5697 0.60568 0.44254 0.0
C1153 C 0.57605 0.72223 0.41812 0.0
H1154 H 0.64976 0.67781 0.43593 0.0
C1155 C 0.5302 0.68092 0.42174 0.0
C1156 C 0.5267 0.63822 0.4308 0.0
H1157 H 0.57694 0.75461 0.41152 0.0
H1158 H 0.49742 0.68262 0.41747 0.0
C1159 C 0.57071 0.63764 0.43536 0.0
C1160 C 0.47157 0.9101 0.41664 0.0
C1161 C 0.51268 0.94766 0.4283 0.0
H1162 H 0.39821 0.88344 0.40425 0.0
C1163 C 0.51126 0.99027 0.43491 0.0
H1164 H 0.47082 0.87655 0.41148 0.0
C1165 C 0.46915 0.9943 0.43073 0.0
C1166 C 0.42736 0.95565 0.41999 0.0
H1167 H 0.54246 1.02027 0.44366 0.0
H1168 H 0.46861 1.02676 0.43676 0.0
C1169 C 0.42963 0.91401 0.41259 0.0
C1170 C 0.8617 0.78687 0.23931 0.0
C1171 C 0.85947 0.82636 0.2497 0.0
H1172 H 0.90789 0.75917 0.22666 0.0
C1173 C 0.90382 0.86781 0.25672 0.0
H1174 H 0.82835 0.75452 0.23358 0.0
C1175 C 0.9492 0.87067 0.25266 0.0
C1176 C 0.95187 0.83222 0.24137 0.0
H1177 H 0.90369 0.899 0.26481 0.0
H1178 H 0.98234 0.90409 0.25754 0.0
C1179 C 0.9074 0.78984 0.23511 0.0
C1180 C 0.32351 0.09932 0.23723 0.0
C1181 C 0.28323 0.05633 0.24529 0.0
H1182 H 0.35091 0.17324 0.22685 0.0
C1183 C 0.2396 0.05687 0.25055 0.0
H1184 H 0.35752 0.1001 0.23284 0.0
C1185 C 0.23588 0.09882 0.24735 0.0
C1186 C 0.27553 0.14151 0.2386 0.0
H1187 H 0.20787 1.02459 0.257 0.0
H1188 H 0.20171 0.09765 0.25176 0.0
C1189 C 0.31966 0.14134 0.23384 0.0
C1190 C 1.02979 0.16982 0.25499 0.0
C1191 C 0.9829 0.16349 0.25028 0.0
H1192 H 0.10624 0.22007 0.26079 0.0
C1193 C 0.97695 0.20507 0.25118 0.0
H1194 H 1.0357 0.13875 0.2551 0.0
C1195 C 1.01767 0.25206 0.25496 0.0
C1196 C 0.06499 0.25824 0.25782 0.0
H1197 H 0.94144 0.20169 0.24759 0.0
H1198 H 1.01266 0.28361 0.25394 0.0
C1199 C 0.07021 0.21647 0.25856 0.0
C1200 C 0.79439 0.84101 0.76504 0.0
C1201 C 0.8174 0.82742 0.74799 0.0
H1202 H 0.78715 0.89877 0.78111 0.0
C1203 C 0.84854 0.86264 0.73232 0.0
H1204 H 0.77107 0.81477 0.77766 0.0
C1205 C 0.85899 0.91135 0.73464 0.0
C1206 C 0.83864 0.92588 0.75278 0.0
H1207 H 0.86798 0.85346 0.71949 0.0
H1208 H 0.88586 0.93816 0.72326 0.0
C1209 C 0.80441 0.88945 0.76726 0.0
C1210 C 0.2625 0.99175 0.78975 0.0
C1211 C 0.28199 1.01358 0.76856 0.0
H1212 H 0.19957 0.93846 0.80783 0.0
C1213 C 0.25337 0.99379 0.74846 0.0
H1214 H 0.28336 1.0073 0.80558 0.0
C1215 C 0.20535 0.95415 0.74961 0.0
C1216 C 0.1843 0.93393 0.77101 0.0
H1217 H 0.26723 1.01069 0.73196 0.0
H1218 H 0.18408 0.94064 0.73377 0.0
C1219 C 0.21427 0.95232 0.79098 0.0
C1220 C 0.16172 0.26998 0.7466 0.0
C1221 C 0.19117 0.29254 0.76628 0.0
H1222 H 0.09707 0.2544 0.72736 0.0
C1223 C 0.18027 0.3232 0.78014 0.0
H1224 H 0.16831 0.2457 0.73562 0.0
C1225 C 0.13912 0.3285 0.77521 0.0
C1226 C 0.10781 0.30277 0.7565 0.0
H1227 H 0.2024 0.34158 0.79531 0.0
H1228 H 0.12991 0.34982 0.78695 0.0
C1229 C 0.12059 0.27485 0.74186 0.0
C1230 C 0.53167 0.10879 0.56457 0.0
C1231 C 0.52545 0.1371 0.58184 0.0
H1232 H 0.58259 0.09408 0.54603 0.0
C1233 C 0.5668 0.16996 0.59511 0.0
H1234 H 0.50076 0.08357 0.55387 0.0
C1235 C 0.61349 0.17637 0.59056 0.0
C1236 C 0.62064 0.15027 0.57249 0.0
H1237 H 0.56344 0.19248 0.60853 0.0
H1238 H 0.6444 0.2038 0.60056 0.0
C1239 C 0.5788 0.11545 0.55989 0.0
C1240 C 0.92154 0.39986 0.58779 0.0
C1241 C 0.96298 0.39899 0.57895 0.0
H1242 H 0.88247 0.43912 0.59179 0.0
C1243 C 0.99951 0.44114 0.56827 0.0
H1244 H 0.89265 0.36817 0.59618 0.0
C1245 C 0.99344 0.48223 0.56559 0.0
C1246 C 0.9511 0.48239 0.57388 0.0
H1247 H 1.03172 0.44162 0.56113 0.0
H1248 H 1.02158 0.51365 0.55675 0.0
C1249 C 0.91581 0.44088 0.58541 0.0
C1250 C 0.64778 0.53677 0.56219 0.0
C1251 C 0.63168 0.50969 0.58245 0.0
H1252 H 0.70056 0.6032 0.54675 0.0
C1253 C 0.65335 0.53311 0.60372 0.0
H1254 H 0.63237 0.52016 0.54551 0.0
C1255 C 0.69293 0.58118 0.60441 0.0
C1256 C 0.71138 0.60632 0.58383 0.0
H1257 H 0.64112 0.51358 0.61973 0.0
H1258 H 0.71122 0.59717 0.62074 0.0
C1259 C 0.6871 0.58444 0.5629 0.0
loop_
_geom_bond_atom_site_label_1
_geom_bond_atom_site_label_2
_geom_bond_distance
_geom_bond_site_symmetry_2
_ccdc_geom_bond_type
Tb0 C9 2.764 . S
Tb0 O10 2.325 . S
Tb0 O13 2.303 . S
Tb0 O17 2.322 1_565 S
Tb0 O18 2.349 . S
Tb0 O21 2.415 . S
Tb0 O22 2.399 . S
Tb1 O11 2.322 1_545 S
Tb1 O12 2.349 . S
Tb1 O14 2.415 . S
Tb1 O15 2.399 . S
Tb1 O16 2.325 . S
Tb1 O19 2.303 . S
Tb1 C30 2.764 . S
C2 O18 1.261 1_545 S
C2 O19 1.257 . S
C3 C6 1.358 . S
C3 C7 1.332 . S
C3 C9 1.504 . S
C4 C5 1.373 . S
C4 C8 1.308 . S
C5 C4 1.373 . S
C5 C6 1.429 . S
C5 H32 0.932 . S
C6 C3 1.358 . S
C6 C5 1.429 . S
C6 H33 0.930 . S
C7 C3 1.332 . S
C7 C8 1.394 . S
C7 H34 0.932 . S
C8 C4 1.308 . S
C8 C7 1.394 . S
C8 H35 0.929 . S
C9 Tb0 2.764 . S
C9 C3 1.504 . S
C9 O21 1.239 . S
C9 O22 1.263 . S
O10 Tb0 2.325 . S
O10 C20 1.236 . S
O11 Tb1 2.322 1_565 S
O11 C20 1.257 . S
O12 Tb1 2.349 . S
O12 C23 1.263 . S
O13 Tb0 2.303 . S
O13 C23 1.257 1_565 S
O14 Tb1 2.415 . S
O14 C30 1.239 . S
O15 Tb1 2.399 . S
O15 C30 1.263 . S
O16 Tb1 2.325 . S
O16 C31 1.236 . S
O17 Tb0 2.322 1_545 S
O17 C31 1.257 . S
O18 Tb0 2.349 . S
O18 C2 1.261 1_565 S
O19 Tb1 2.303 . S
O19 C2 1.257 . S
C20 O10 1.236 . S
C20 O11 1.257 . S
O21 Tb0 2.415 . S
O21 C9 1.239 . S
O22 Tb0 2.399 . S
O22 C9 1.263 . S
C23 O12 1.263 . S
C23 O13 1.257 1_545 S
C24 C27 1.358 . S
C24 C28 1.332 . S
C24 C30 1.504 . S
C25 C26 1.373 . S
C25 C29 1.308 . S
C26 C25 1.373 . S
C26 C27 1.429 . S
C26 H36 0.932 . S
C27 C24 1.358 . S
C27 C26 1.429 . S
C27 H37 0.930 . S
C28 C24 1.332 . S
C28 C29 1.394 . S
C28 H38 0.932 . S
C29 C25 1.308 . S
C29 C28 1.394 . S
C29 H39 0.929 . S
C30 Tb1 2.764 . S
C30 O14 1.239 . S
C30 O15 1.263 . S
C30 C24 1.504 . S
C31 O16 1.236 . S
C31 O17 1.257 . S
H32 C5 0.932 . S
H33 C6 0.930 . S
H34 C7 0.932 . S
H35 C8 0.929 . S
H36 C26 0.932 . S
H37 C27 0.930 . S
H38 C28 0.932 . S
H39 C29 0.929 . S
Tb40 C49 2.764 . S
Tb40 O50 2.325 . S
Tb40 O53 2.303 . S
Tb40 O57 2.322 1_455 S
Tb40 O58 2.349 . S
Tb40 O61 2.415 . S
Tb40 O62 2.399 . S
Tb41 O51 2.322 1_655 S
Tb41 O52 2.349 1_655 S
Tb41 O54 2.415 . S
Tb41 O55 2.399 . S
Tb41 O56 2.325 . S
Tb41 O59 2.303 1_655 S
Tb41 C70 2.764 . S
C42 O58 1.261 . S
C42 O59 1.257 . S
C43 C46 1.358 . S
C43 C47 1.332 . S
C43 C49 1.504 . S
C44 C45 1.373 . S
C44 C48 1.308 . S
C45 C44 1.373 . S
C45 C46 1.429 . S
C45 H72 0.932 . S
C46 C43 1.358 . S
C46 C45 1.429 . S
C46 H73 0.930 . S
C47 C43 1.332 . S
C47 C48 1.394 . S
C47 H74 0.932 . S
C48 C44 1.308 . S
C48 C47 1.394 . S
C48 H75 0.929 . S
C49 Tb40 2.764 . S
C49 C43 1.504 . S
C49 O61 1.239 . S
C49 O62 1.263 . S
O50 Tb40 2.325 . S
O50 C60 1.236 . S
O51 Tb41 2.322 1_455 S
O51 C60 1.257 . S
O52 Tb41 2.349 1_455 S
O52 C63 1.261 . S
O53 Tb40 2.303 . S
O53 C63 1.257 . S
O54 Tb41 2.415 . S
O54 C70 1.239 . S
O55 Tb41 2.399 . S
O55 C70 1.263 . S
O56 Tb41 2.325 . S
O56 C71 1.236 . S
O57 Tb40 2.322 1_655 S
O57 C71 1.257 . S
O58 Tb40 2.349 . S
O58 C42 1.261 . S
O59 Tb41 2.303 1_455 S
O59 C42 1.257 . S
C60 O50 1.236 . S
C60 O51 1.257 . S
O61 Tb40 2.415 . S
O61 C49 1.239 . S
O62 Tb40 2.399 . S
O62 C49 1.263 . S
C63 O52 1.261 . S
C63 O53 1.257 . S
C64 C67 1.358 . S
C64 C68 1.332 . S
C64 C70 1.504 . S
C65 C66 1.373 . S
C65 C69 1.308 . S
C66 C65 1.373 . S
C66 C67 1.429 . S
C66 H76 0.932 . S
C67 C64 1.358 . S
C67 C66 1.429 . S
C67 H77 0.930 . S
C68 C64 1.332 . S
C68 C69 1.394 . S
C68 H78 0.932 . S
C69 C65 1.308 . S
C69 C68 1.394 . S
C69 H79 0.929 . S
C70 Tb41 2.764 . S
C70 O54 1.239 . S
C70 O55 1.263 . S
C70 C64 1.504 . S
C71 O56 1.236 . S
C71 O57 1.257 . S
H72 C45 0.932 . S
H73 C46 0.930 . S
H74 C47 0.932 . S
H75 C48 0.929 . S
H76 C66 0.932 . S
H77 C67 0.930 . S
H78 C68 0.932 . S
H79 C69 0.929 . S
Tb80 C89 2.764 . S
Tb80 O90 2.325 . S
Tb80 O93 2.303 . S
Tb80 O97 2.322 . S
Tb80 O98 2.349 . S
Tb80 O101 2.415 . S
Tb80 O102 2.399 . S
Tb81 O91 2.322 . S
Tb81 O92 2.349 . S
Tb81 O94 2.415 . S
Tb81 O95 2.399 . S
Tb81 O96 2.325 . S
Tb81 O99 2.303 . S
Tb81 C110 2.764 . S
C82 O98 1.261 . S
C82 O99 1.257 . S
C83 C86 1.358 . S
C83 C87 1.332 . S
C83 C89 1.504 . S
C84 C85 1.373 . S
C84 C88 1.308 . S
C85 C84 1.373 . S
C85 C86 1.429 . S
C85 H112 0.932 . S
C86 C83 1.358 . S
C86 C85 1.429 . S
C86 H113 0.930 . S
C87 C83 1.332 . S
C87 C88 1.394 . S
C87 H114 0.932 . S
C88 C84 1.308 . S
C88 C87 1.394 . S
C88 H115 0.929 . S
C89 Tb80 2.764 . S
C89 C83 1.504 . S
C89 O101 1.239 . S
C89 O102 1.263 . S
O90 Tb80 2.325 . S
O90 C100 1.236 . S
O91 Tb81 2.322 . S
O91 C100 1.257 . S
O92 Tb81 2.349 . S
O92 C103 1.261 . S
O93 Tb80 2.303 . S
O93 C103 1.257 . S
O94 Tb81 2.415 . S
O94 C110 1.239 . S
O95 Tb81 2.399 . S
O95 C110 1.263 . S
O96 Tb81 2.325 . S
O96 C111 1.236 . S
O97 Tb80 2.322 . S
O97 C111 1.257 . S
O98 Tb80 2.349 . S
O98 C82 1.261 . S
O99 Tb81 2.303 . S
O99 C82 1.257 . S
C100 O90 1.236 . S
C100 O91 1.257 . S
O101 Tb80 2.415 . S
O101 C89 1.239 . S
O102 Tb80 2.399 . S
O102 C89 1.263 . S
C103 O92 1.261 . S
C103 O93 1.257 . S
C104 C107 1.358 . S
C104 C108 1.332 . S
C104 C110 1.504 . S
C105 C106 1.373 . S
C105 C109 1.308 . S
C106 C105 1.373 . S
C106 C107 1.429 . S
C106 H116 0.932 . S
C107 C104 1.358 . S
C107 C106 1.429 . S
C107 H117 0.930 . S
C108 C104 1.332 . S
C108 C109 1.394 . S
C108 H118 0.932 . S
C109 C105 1.308 . S
C109 C108 1.394 . S
C109 H119 0.929 . S
C110 Tb81 2.764 . S
C110 O94 1.239 . S
C110 O95 1.263 . S
C110 C104 1.504 . S
C111 O96 1.236 . S
C111 O97 1.257 . S
H112 C85 0.932 . S
H113 C86 0.930 . S
H114 C87 0.932 . S
H115 C88 0.929 . S
H116 C106 0.932 . S
H117 C107 0.930 . S
H118 C108 0.932 . S
H119 C109 0.929 . S
Tb120 C129 2.764 . S
Tb120 O130 2.325 . S
Tb120 O133 2.303 . S
Tb120 O137 2.322 1_655 S
Tb120 O138 2.349 . S
Tb120 O141 2.415 . S
Tb120 O142 2.399 . S
Tb121 O131 2.322 1_455 S
Tb121 O132 2.349 . S
Tb121 O134 2.415 . S
Tb121 O135 2.399 . S
Tb121 O136 2.325 . S
Tb121 O139 2.303 . S
Tb121 C150 2.764 . S
C122 O138 1.261 1_455 S
C122 O139 1.257 . S
C123 C126 1.358 . S
C123 C127 1.332 . S
C123 C129 1.504 . S
C124 C125 1.373 . S
C124 C128 1.308 . S
C125 C124 1.373 . S
C125 C126 1.429 . S
C125 H152 0.932 . S
C126 C123 1.358 . S
C126 C125 1.429 . S
C126 H153 0.930 . S
C127 C123 1.332 . S
C127 C128 1.394 . S
C127 H154 0.932 . S
C128 C124 1.308 . S
C128 C127 1.394 . S
C128 H155 0.929 . S
C129 Tb120 2.764 . S
C129 C123 1.504 . S
C129 O141 1.239 . S
C129 O142 1.263 . S
O130 Tb120 2.325 . S
O130 C140 1.236 . S
O131 Tb121 2.322 1_655 S
O131 C140 1.257 . S
O132 Tb121 2.349 . S
O132 C143 1.263 . S
O133 Tb120 2.303 . S
O133 C143 1.257 1_655 S
O134 Tb121 2.415 . S
O134 C150 1.239 . S
O135 Tb121 2.399 . S
O135 C150 1.263 . S
O136 Tb121 2.325 . S
O136 C151 1.236 . S
O137 Tb120 2.322 1_455 S
O137 C151 1.257 . S
O138 Tb120 2.349 . S
O138 C122 1.261 1_655 S
O139 Tb121 2.303 . S
O139 C122 1.257 . S
C140 O130 1.236 . S
C140 O131 1.257 . S
O141 Tb120 2.415 . S
O141 C129 1.239 . S
O142 Tb120 2.399 . S
O142 C129 1.263 . S
C143 O132 1.263 . S
C143 O133 1.257 1_455 S
C144 C147 1.358 . S
C144 C148 1.332 . S
C144 C150 1.504 . S
C145 C146 1.373 . S
C145 C149 1.308 . S
C146 C145 1.373 . S
C146 C147 1.429 . S
C146 H156 0.932 . S
C147 C144 1.358 . S
C147 C146 1.429 . S
C147 H157 0.930 . S
C148 C144 1.332 . S
C148 C149 1.394 . S
C148 H158 0.932 . S
C149 C145 1.308 . S
C149 C148 1.394 . S
C149 H159 0.929 . S
C150 Tb121 2.764 . S
C150 O134 1.239 . S
C150 O135 1.263 . S
C150 C144 1.504 . S
C151 O136 1.236 . S
C151 O137 1.257 . S
H152 C125 0.932 . S
H153 C126 0.930 . S
H154 C127 0.932 . S
H155 C128 0.929 . S
H156 C146 0.932 . S
H157 C147 0.930 . S
H158 C148 0.932 . S
H159 C149 0.929 . S
Tb160 C169 2.764 . S
Tb160 O170 2.325 . S
Tb160 O173 2.303 . S
Tb160 O177 2.322 . S
Tb160 O178 2.349 . S
Tb160 O181 2.415 . S
Tb160 O182 2.399 . S
Tb161 O171 2.322 . S
Tb161 O172 2.349 . S
Tb161 O174 2.415 . S
Tb161 O175 2.399 . S
Tb161 O176 2.325 . S
Tb161 O179 2.303 . S
Tb161 C190 2.764 . S
C162 O178 1.261 . S
C162 O179 1.257 . S
C163 C166 1.358 . S
C163 C167 1.332 . S
C163 C169 1.504 . S
C164 C165 1.373 . S
C164 C168 1.308 . S
C165 C164 1.373 . S
C165 C166 1.429 . S
C165 H192 0.932 . S
C166 C163 1.358 . S
C166 C165 1.429 . S
C166 H193 0.930 . S
C167 C163 1.332 . S
C167 C168 1.394 . S
C167 H194 0.932 . S
C168 C164 1.308 . S
C168 C167 1.394 . S
C168 H195 0.929 . S
C169 Tb160 2.764 . S
C169 C163 1.504 . S
C169 O181 1.239 . S
C169 O182 1.263 . S
O170 Tb160 2.325 . S
O170 C180 1.236 . S
O171 Tb161 2.322 . S
O171 C180 1.257 . S
O172 Tb161 2.349 . S
O172 C183 1.261 . S
O173 Tb160 2.303 . S
O173 C183 1.257 . S
O174 Tb161 2.415 . S
O174 C190 1.239 . S
O175 Tb161 2.399 . S
O175 C190 1.263 . S
O176 Tb161 2.325 . S
O176 C191 1.236 . S
O177 Tb160 2.322 . S
O177 C191 1.257 . S
O178 Tb160 2.349 . S
O178 C162 1.261 . S
O179 Tb161 2.303 . S
O179 C162 1.257 . S
C180 O170 1.236 . S
C180 O171 1.257 . S
O181 Tb160 2.415 . S
O181 C169 1.239 . S
O182 Tb160 2.399 . S
O182 C169 1.263 . S
C183 O172 1.261 . S
C183 O173 1.257 . S
C184 C187 1.358 . S
C184 C188 1.332 . S
C184 C190 1.504 . S
C185 C186 1.373 . S
C185 C189 1.308 . S
C186 C185 1.373 . S
C186 C187 1.429 . S
C186 H196 0.932 . S
C187 C184 1.358 . S
C187 C186 1.429 . S
C187 H197 0.930 . S
C188 C184 1.332 . S
C188 C189 1.394 . S
C188 H198 0.932 . S
C189 C185 1.308 . S
C189 C188 1.394 . S
C189 H199 0.929 . S
C190 Tb161 2.764 . S
C190 O174 1.239 . S
C190 O175 1.263 . S
C190 C184 1.504 . S
C191 O176 1.236 . S
C191 O177 1.257 . S
H192 C165 0.932 . S
H193 C166 0.930 . S
H194 C167 0.932 . S
H195 C168 0.929 . S
H196 C186 0.932 . S
H197 C187 0.930 . S
H198 C188 0.932 . S
H199 C189 0.929 . S
Tb200 C209 2.764 . S
Tb200 O210 2.325 . S
Tb200 O213 2.303 . S
Tb200 O217 2.322 1_545 S
Tb200 O218 2.349 . S
Tb200 O221 2.415 . S
Tb200 O222 2.399 . S
Tb201 O211 2.322 1_565 S
Tb201 O212 2.349 1_565 S
Tb201 O214 2.415 . S
Tb201 O215 2.399 . S
Tb201 O216 2.325 . S
Tb201 O219 2.303 1_565 S
Tb201 C230 2.764 . S
C202 O218 1.261 . S
C202 O219 1.257 . S
C203 C206 1.358 . S
C203 C207 1.332 . S
C203 C209 1.504 . S
C204 C205 1.373 . S
C204 C208 1.308 . S
C205 C204 1.373 . S
C205 C206 1.429 . S
C205 H232 0.932 . S
C206 C203 1.358 . S
C206 C205 1.429 . S
C206 H233 0.930 . S
C207 C203 1.332 . S
C207 C208 1.394 . S
C207 H234 0.932 . S
C208 C204 1.308 . S
C208 C207 1.394 . S
C208 H235 0.929 . S
C209 Tb200 2.764 . S
C209 C203 1.504 . S
C209 O221 1.239 . S
C209 O222 1.263 . S
O210 Tb200 2.325 . S
O210 C220 1.236 . S
O211 Tb201 2.322 1_545 S
O211 C220 1.257 . S
O212 Tb201 2.349 1_545 S
O212 C223 1.261 . S
O213 Tb200 2.303 . S
O213 C223 1.257 . S
O214 Tb201 2.415 . S
O214 C230 1.239 . S
O215 Tb201 2.399 . S
O215 C230 1.263 . S
O216 Tb201 2.325 . S
O216 C231 1.236 . S
O217 Tb200 2.322 1_565 S
O217 C231 1.257 . S
O218 Tb200 2.349 . S
O218 C202 1.261 . S
O219 Tb201 2.303 1_545 S
O219 C202 1.257 . S
C220 O210 1.236 . S
C220 O211 1.257 . S
O221 Tb200 2.415 . S
O221 C209 1.239 . S
O222 Tb200 2.399 . S
O222 C209 1.263 . S
C223 O212 1.261 . S
C223 O213 1.257 . S
C224 C227 1.358 . S
C224 C228 1.332 . S
C224 C230 1.504 . S
C225 C226 1.373 . S
C225 C229 1.308 . S
C226 C225 1.373 . S
C226 C227 1.429 . S
C226 H236 0.932 . S
C227 C224 1.358 . S
C227 C226 1.429 . S
C227 H237 0.930 . S
C228 C224 1.332 . S
C228 C229 1.394 . S
C228 H238 0.932 . S
C229 C225 1.308 . S
C229 C228 1.394 . S
C229 H239 0.929 . S
C230 Tb201 2.764 . S
C230 O214 1.239 . S
C230 O215 1.263 . S
C230 C224 1.504 . S
C231 O216 1.236 . S
C231 O217 1.257 . S
H232 C205 0.932 . S
H233 C206 0.930 . S
H234 C207 0.932 . S
H235 C208 0.929 . S
H236 C226 0.932 . S
H237 C227 0.930 . S
H238 C228 0.932 . S
H239 C229 0.929 . S
Tb240 C249 2.764 . S
Tb240 O250 2.325 . S
Tb240 O253 2.303 . S
Tb240 O257 2.322 . S
Tb240 O258 2.349 . S
Tb240 O261 2.415 . S
Tb240 O262 2.399 . S
Tb241 O251 2.322 . S
Tb241 O252 2.349 . S
Tb241 O254 2.415 . S
Tb241 O255 2.399 . S
Tb241 O256 2.325 . S
Tb241 O259 2.303 . S
Tb241 C270 2.764 . S
C242 O258 1.261 . S
C242 O259 1.257 . S
C243 C246 1.358 . S
C243 C247 1.332 . S
C243 C249 1.504 1_655 S
C244 C245 1.373 . S
C244 C248 1.308 . S
C245 C244 1.373 . S
C245 C246 1.429 . S
C245 H272 0.932 . S
C246 C243 1.358 . S
C246 C245 1.429 . S
C246 H273 0.930 . S
C247 C243 1.332 . S
C247 C248 1.394 . S
C247 H274 0.932 . S
C248 C244 1.308 . S
C248 C247 1.394 . S
C248 H275 0.929 . S
C249 Tb240 2.764 . S
C249 C243 1.504 1_455 S
C249 O261 1.239 . S
C249 O262 1.263 . S
O250 Tb240 2.325 . S
O250 C260 1.236 . S
O251 Tb241 2.322 . S
O251 C260 1.257 . S
O252 Tb241 2.349 . S
O252 C263 1.261 . S
O253 Tb240 2.303 . S
O253 C263 1.257 . S
O254 Tb241 2.415 . S
O254 C270 1.239 . S
O255 Tb241 2.399 . S
O255 C270 1.263 . S
O256 Tb241 2.325 . S
O256 C271 1.236 . S
O257 Tb240 2.322 . S
O257 C271 1.257 . S
O258 Tb240 2.349 . S
O258 C242 1.261 . S
O259 Tb241 2.303 . S
O259 C242 1.257 . S
C260 O250 1.236 . S
C260 O251 1.257 . S
O261 Tb240 2.415 . S
O261 C249 1.239 . S
O262 Tb240 2.399 . S
O262 C249 1.263 . S
C263 O252 1.261 . S
C263 O253 1.257 . S
C264 C267 1.358 . S
C264 C268 1.332 . S
C264 C270 1.504 . S
C265 C266 1.373 . S
C265 C269 1.308 . S
C266 C265 1.373 . S
C266 C267 1.429 . S
C266 H276 0.932 . S
C267 C264 1.358 . S
C267 C266 1.429 . S
C267 H277 0.930 . S
C268 C264 1.332 . S
C268 C269 1.394 . S
C268 H278 0.932 . S
C269 C265 1.308 . S
C269 C268 1.394 . S
C269 H279 0.929 . S
C270 Tb241 2.764 . S
C270 O254 1.239 . S
C270 O255 1.263 . S
C270 C264 1.504 . S
C271 O256 1.236 . S
C271 O257 1.257 . S
H272 C245 0.932 . S
H273 C246 0.930 . S
H274 C247 0.932 . S
H275 C248 0.929 . S
H276 C266 0.932 . S
H277 C267 0.930 . S
H278 C268 0.932 . S
H279 C269 0.929 . S
Tb280 C289 2.764 . S
Tb280 O290 2.325 . S
Tb280 O293 2.303 . S
Tb280 O297 2.322 . S
Tb280 O298 2.349 . S
Tb280 O301 2.415 . S
Tb280 O302 2.399 . S
Tb281 O291 2.322 . S
Tb281 O292 2.349 . S
Tb281 O294 2.415 . S
Tb281 O295 2.399 . S
Tb281 O296 2.325 . S
Tb281 O299 2.303 . S
Tb281 C310 2.764 . S
C282 O298 1.261 . S
C282 O299 1.257 . S
C283 C286 1.358 . S
C283 C287 1.332 . S
C283 C289 1.504 . S
C284 C285 1.373 . S
C284 C288 1.308 . S
C285 C284 1.373 . S
C285 C286 1.429 . S
C285 H312 0.932 . S
C286 C283 1.358 . S
C286 C285 1.429 . S
C286 H313 0.930 . S
C287 C283 1.332 . S
C287 C288 1.394 . S
C287 H314 0.932 . S
C288 C284 1.308 . S
C288 C287 1.394 . S
C288 H315 0.929 . S
C289 Tb280 2.764 . S
C289 C283 1.504 . S
C289 O301 1.239 . S
C289 O302 1.263 . S
O290 Tb280 2.325 . S
O290 C300 1.236 . S
O291 Tb281 2.322 . S
O291 C300 1.257 . S
O292 Tb281 2.349 . S
O292 C303 1.261 . S
O293 Tb280 2.303 . S
O293 C303 1.257 . S
O294 Tb281 2.415 . S
O294 C310 1.239 . S
O295 Tb281 2.399 . S
O295 C310 1.263 . S
O296 Tb281 2.325 . S
O296 C311 1.236 . S
O297 Tb280 2.322 . S
O297 C311 1.257 . S
O298 Tb280 2.349 . S
O298 C282 1.261 . S
O299 Tb281 2.303 . S
O299 C282 1.257 . S
C300 O290 1.236 . S
C300 O291 1.257 . S
O301 Tb280 2.415 . S
O301 C289 1.239 . S
O302 Tb280 2.399 . S
O302 C289 1.263 . S
C303 O292 1.261 . S
C303 O293 1.257 . S
C304 C307 1.358 . S
C304 C308 1.332 . S
C304 C310 1.504 . S
C305 C306 1.373 . S
C305 C309 1.308 . S
C306 C305 1.373 . S
C306 C307 1.429 . S
C306 H316 0.932 . S
C307 C304 1.358 . S
C307 C306 1.429 . S
C307 H317 0.930 . S
C308 C304 1.332 . S
C308 C309 1.394 . S
C308 H318 0.932 . S
C309 C305 1.308 . S
C309 C308 1.394 . S
C309 H319 0.929 . S
C310 Tb281 2.764 . S
C310 O294 1.239 . S
C310 O295 1.263 . S
C310 C304 1.504 . S
C311 O296 1.236 . S
C311 O297 1.257 . S
H312 C285 0.932 . S
H313 C286 0.930 . S
H314 C287 0.932 . S
H315 C288 0.929 . S
H316 C306 0.932 . S
H317 C307 0.930 . S
H318 C308 0.932 . S
H319 C309 0.929 . S
Tb320 C329 2.764 1_565 S
Tb320 O330 2.325 . S
Tb320 O333 2.303 . S
Tb320 O337 2.322 . S
Tb320 O338 2.349 . S
Tb320 O341 2.415 1_565 S
Tb320 O342 2.399 1_565 S
Tb321 O331 2.322 . S
Tb321 O332 2.349 . S
Tb321 O334 2.415 . S
Tb321 O335 2.399 . S
Tb321 O336 2.325 . S
Tb321 O339 2.303 . S
Tb321 C350 2.764 . S
C322 O338 1.261 . S
C322 O339 1.257 . S
C323 C326 1.358 . S
C323 C327 1.332 . S
C323 C329 1.504 . S
C324 C325 1.373 . S
C324 C328 1.308 . S
C325 C324 1.373 . S
C325 C326 1.429 . S
C325 H352 0.932 . S
C326 C323 1.358 . S
C326 C325 1.429 . S
C326 H353 0.930 . S
C327 C323 1.332 . S
C327 C328 1.394 . S
C327 H354 0.932 . S
C328 C324 1.308 . S
C328 C327 1.394 . S
C328 H355 0.929 . S
C329 Tb320 2.764 1_545 S
C329 C323 1.504 . S
C329 O341 1.239 . S
C329 O342 1.263 . S
O330 Tb320 2.325 . S
O330 C340 1.236 . S
O331 Tb321 2.322 . S
O331 C340 1.257 . S
O332 Tb321 2.349 . S
O332 C343 1.261 . S
O333 Tb320 2.303 . S
O333 C343 1.257 . S
O334 Tb321 2.415 . S
O334 C350 1.239 . S
O335 Tb321 2.399 . S
O335 C350 1.263 . S
O336 Tb321 2.325 . S
O336 C351 1.236 . S
O337 Tb320 2.322 . S
O337 C351 1.257 . S
O338 Tb320 2.349 . S
O338 C322 1.261 . S
O339 Tb321 2.303 . S
O339 C322 1.257 . S
C340 O330 1.236 . S
C340 O331 1.257 . S
O341 Tb320 2.415 1_545 S
O341 C329 1.239 . S
O342 Tb320 2.399 1_545 S
O342 C329 1.263 . S
C343 O332 1.261 . S
C343 O333 1.257 . S
C344 C347 1.358 . S
C344 C348 1.332 . S
C344 C350 1.504 . S
C345 C346 1.373 . S
C345 C349 1.308 . S
C346 C345 1.373 . S
C346 C347 1.429 . S
C346 H356 0.932 . S
C347 C344 1.358 . S
C347 C346 1.429 . S
C347 H357 0.930 . S
C348 C344 1.332 . S
C348 C349 1.394 . S
C348 H358 0.932 . S
C349 C345 1.308 . S
C349 C348 1.394 . S
C349 H359 0.929 . S
C350 Tb321 2.764 . S
C350 O334 1.239 . S
C350 O335 1.263 . S
C350 C344 1.504 . S
C351 O336 1.236 . S
C351 O337 1.257 . S
H352 C325 0.932 . S
H353 C326 0.930 . S
H354 C327 0.932 . S
H355 C328 0.929 . S
H356 C346 0.932 . S
H357 C347 0.930 . S
H358 C348 0.932 . S
H359 C349 0.929 . S
Tb360 C369 2.764 . S
Tb360 O370 2.325 . S
Tb360 O373 2.303 . S
Tb360 O377 2.322 . S
Tb360 O378 2.349 . S
Tb360 O381 2.415 . S
Tb360 O382 2.399 . S
Tb361 O371 2.322 . S
Tb361 O372 2.349 . S
Tb361 O374 2.415 . S
Tb361 O375 2.399 . S
Tb361 O376 2.325 . S
Tb361 O379 2.303 . S
Tb361 C390 2.764 . S
C362 O378 1.261 . S
C362 O379 1.257 . S
C363 C366 1.358 . S
C363 C367 1.332 . S
C363 C369 1.504 . S
C364 C365 1.373 . S
C364 C368 1.308 . S
C365 C364 1.373 . S
C365 C366 1.429 . S
C365 H392 0.932 . S
C366 C363 1.358 . S
C366 C365 1.429 . S
C366 H393 0.930 . S
C367 C363 1.332 . S
C367 C368 1.394 . S
C367 H394 0.932 . S
C368 C364 1.308 . S
C368 C367 1.394 . S
C368 H395 0.929 . S
C369 Tb360 2.764 . S
C369 C363 1.504 . S
C369 O381 1.239 . S
C369 O382 1.263 . S
O370 Tb360 2.325 . S
O370 C380 1.236 . S
O371 Tb361 2.322 . S
O371 C380 1.257 . S
O372 Tb361 2.349 . S
O372 C383 1.261 . S
O373 Tb360 2.303 . S
O373 C383 1.257 . S
O374 Tb361 2.415 . S
O374 C390 1.239 . S
O375 Tb361 2.399 . S
O375 C390 1.263 . S
O376 Tb361 2.325 . S
O376 C391 1.236 . S
O377 Tb360 2.322 . S
O377 C391 1.257 . S
O378 Tb360 2.349 . S
O378 C362 1.261 . S
O379 Tb361 2.303 . S
O379 C362 1.257 . S
C380 O370 1.236 . S
C380 O371 1.257 . S
O381 Tb360 2.415 . S
O381 C369 1.239 . S
O382 Tb360 2.399 . S
O382 C369 1.263 . S
C383 O372 1.261 . S
C383 O373 1.257 . S
C384 C387 1.358 . S
C384 C388 1.332 . S
C384 C390 1.504 1_545 S
C385 C386 1.373 . S
C385 C389 1.308 . S
C386 C385 1.373 . S
C386 C387 1.429 . S
C386 H396 0.932 . S
C387 C384 1.358 . S
C387 C386 1.429 . S
C387 H397 0.930 . S
C388 C384 1.332 . S
C388 C389 1.394 . S
C388 H398 0.933 . S
C389 C385 1.308 . S
C389 C388 1.394 . S
C389 H399 0.929 . S
C390 Tb361 2.764 . S
C390 O374 1.239 . S
C390 O375 1.263 . S
C390 C384 1.504 1_565 S
C391 O376 1.236 . S
C391 O377 1.257 . S
H392 C365 0.932 . S
H393 C366 0.930 . S
H394 C367 0.932 . S
H395 C368 0.929 . S
H396 C386 0.932 . S
H397 C387 0.930 . S
H398 C388 0.933 . S
H399 C389 0.929 . S
Tb400 C409 2.764 . S
Tb400 O410 2.325 . S
Tb400 O413 2.303 . S
Tb400 O417 2.322 . S
Tb400 O418 2.349 . S
Tb400 O421 2.415 . S
Tb400 O422 2.399 . S
Tb401 O411 2.322 . S
Tb401 O412 2.349 . S
Tb401 O414 2.415 . S
Tb401 O415 2.399 . S
Tb401 O416 2.325 . S
Tb401 O419 2.303 . S
Tb401 C430 2.764 . S
C402 O418 1.261 . S
C402 O419 1.257 . S
C403 C406 1.358 . S
C403 C407 1.332 . S
C403 C409 1.504 . S
C404 C405 1.373 . S
C404 C408 1.308 . S
C405 C404 1.373 . S
C405 C406 1.429 . S
C405 H432 0.932 . S
C406 C403 1.358 . S
C406 C405 1.429 . S
C406 H433 0.930 . S
C407 C403 1.332 . S
C407 C408 1.394 . S
C407 H434 0.932 . S
C408 C404 1.308 . S
C408 C407 1.394 . S
C408 H435 0.929 . S
C409 Tb400 2.764 . S
C409 C403 1.504 . S
C409 O421 1.239 . S
C409 O422 1.263 . S
O410 Tb400 2.325 . S
O410 C420 1.236 . S
O411 Tb401 2.322 . S
O411 C420 1.257 . S
O412 Tb401 2.349 . S
O412 C423 1.261 . S
O413 Tb400 2.303 . S
O413 C423 1.257 . S
O414 Tb401 2.415 . S
O414 C430 1.239 . S
O415 Tb401 2.399 . S
O415 C430 1.263 . S
O416 Tb401 2.325 . S
O416 C431 1.236 . S
O417 Tb400 2.322 . S
O417 C431 1.257 . S
O418 Tb400 2.349 . S
O418 C402 1.261 . S
O419 Tb401 2.303 . S
O419 C402 1.257 . S
C420 O410 1.236 . S
C420 O411 1.257 . S
O421 Tb400 2.415 . S
O421 C409 1.239 . S
O422 Tb400 2.399 . S
O422 C409 1.263 . S
C423 O412 1.261 . S
C423 O413 1.257 . S
C424 C427 1.358 . S
C424 C428 1.332 . S
C424 C430 1.504 . S
C425 C426 1.373 . S
C425 C429 1.308 . S
C426 C425 1.373 . S
C426 C427 1.429 1_655 S
C426 H436 0.932 . S
C427 C424 1.358 . S
C427 C426 1.429 1_455 S
C427 H437 0.930 . S
C428 C424 1.332 . S
C428 C429 1.394 1_455 S
C428 H438 0.932 . S
C429 C425 1.308 . S
C429 C428 1.394 1_655 S
C429 H439 0.929 . S
C430 Tb401 2.764 . S
C430 O414 1.239 . S
C430 O415 1.263 . S
C430 C424 1.504 . S
C431 O416 1.236 . S
C431 O417 1.257 . S
H432 C405 0.932 . S
H433 C406 0.930 . S
H434 C407 0.932 . S
H435 C408 0.929 . S
H436 C426 0.932 . S
H437 C427 0.930 . S
H438 C428 0.932 . S
H439 C429 0.929 . S
Tb440 C449 2.764 . S
Tb440 O450 2.325 . S
Tb440 O453 2.303 . S
Tb440 O457 2.322 . S
Tb440 O458 2.349 . S
Tb440 O461 2.415 . S
Tb440 O462 2.399 . S
Tb441 O451 2.322 . S
Tb441 O452 2.349 . S
Tb441 O454 2.415 . S
Tb441 O455 2.399 . S
Tb441 O456 2.325 . S
Tb441 O459 2.303 . S
Tb441 C470 2.764 . S
C442 O458 1.261 . S
C442 O459 1.257 . S
C443 C446 1.358 . S
C443 C447 1.332 . S
C443 C449 1.504 . S
C444 C445 1.373 . S
C444 C448 1.308 . S
C445 C444 1.373 . S
C445 C446 1.429 . S
C445 H472 0.932 . S
C446 C443 1.358 . S
C446 C445 1.429 . S
C446 H473 0.930 . S
C447 C443 1.332 . S
C447 C448 1.394 . S
C447 H474 0.932 . S
C448 C444 1.308 . S
C448 C447 1.394 . S
C448 H475 0.929 . S
C449 Tb440 2.764 . S
C449 C443 1.504 . S
C449 O461 1.239 . S
C449 O462 1.263 . S
O450 Tb440 2.325 . S
O450 C460 1.236 . S
O451 Tb441 2.322 . S
O451 C460 1.257 . S
O452 Tb441 2.349 . S
O452 C463 1.261 . S
O453 Tb440 2.303 . S
O453 C463 1.257 . S
O454 Tb441 2.415 . S
O454 C470 1.239 . S
O455 Tb441 2.399 . S
O455 C470 1.263 . S
O456 Tb441 2.325 . S
O456 C471 1.236 . S
O457 Tb440 2.322 . S
O457 C471 1.257 . S
O458 Tb440 2.349 . S
O458 C442 1.261 . S
O459 Tb441 2.303 . S
O459 C442 1.257 . S
C460 O450 1.236 . S
C460 O451 1.257 . S
O461 Tb440 2.415 . S
O461 C449 1.239 . S
O462 Tb440 2.399 . S
O462 C449 1.263 . S
C463 O452 1.261 . S
C463 O453 1.257 . S
C464 C467 1.358 . S
C464 C468 1.332 . S
C464 C470 1.504 . S
C465 C466 1.373 . S
C465 C469 1.308 . S
C466 C465 1.373 . S
C466 C467 1.429 . S
C466 H476 0.932 . S
C467 C464 1.358 . S
C467 C466 1.429 . S
C467 H477 0.930 . S
C468 C464 1.332 . S
C468 C469 1.394 . S
C468 H478 0.932 . S
C469 C465 1.308 . S
C469 C468 1.394 . S
C469 H479 0.929 . S
C470 Tb441 2.764 . S
C470 O454 1.239 . S
C470 O455 1.263 . S
C470 C464 1.504 . S
C471 O456 1.236 . S
C471 O457 1.257 . S
H472 C445 0.932 . S
H473 C446 0.930 . S
H474 C447 0.932 . S
H475 C448 0.929 . S
H476 C466 0.932 . S
H477 C467 0.930 . S
H478 C468 0.932 . S
H479 C469 0.929 . S
Tb480 C489 2.764 . S
Tb480 O490 2.325 . S
Tb480 O493 2.303 . S
Tb480 O497 2.322 . S
Tb480 O498 2.349 . S
Tb480 O501 2.415 . S
Tb480 O502 2.399 . S
Tb481 O491 2.322 . S
Tb481 O492 2.349 . S
Tb481 O494 2.415 . S
Tb481 O495 2.399 . S
Tb481 O496 2.325 . S
Tb481 O499 2.303 . S
Tb481 C510 2.764 . S
C482 O498 1.261 . S
C482 O499 1.257 . S
C483 C486 1.358 . S
C483 C487 1.332 . S
C483 C489 1.504 . S
C484 C485 1.373 . S
C484 C488 1.308 . S
C485 C484 1.373 . S
C485 C486 1.429 . S
C485 H512 0.932 . S
C486 C483 1.358 . S
C486 C485 1.429 . S
C486 H513 0.930 . S
C487 C483 1.332 . S
C487 C488 1.394 . S
C487 H514 0.932 . S
C488 C484 1.308 . S
C488 C487 1.394 . S
C488 H515 0.929 . S
C489 Tb480 2.764 . S
C489 C483 1.504 . S
C489 O501 1.239 . S
C489 O502 1.263 . S
O490 Tb480 2.325 . S
O490 C500 1.236 . S
O491 Tb481 2.322 . S
O491 C500 1.257 . S
O492 Tb481 2.349 . S
O492 C503 1.261 . S
O493 Tb480 2.303 . S
O493 C503 1.257 . S
O494 Tb481 2.415 . S
O494 C510 1.239 . S
O495 Tb481 2.399 . S
O495 C510 1.263 . S
O496 Tb481 2.325 . S
O496 C511 1.236 . S
O497 Tb480 2.322 . S
O497 C511 1.257 . S
O498 Tb480 2.349 . S
O498 C482 1.261 . S
O499 Tb481 2.303 . S
O499 C482 1.257 . S
C500 O490 1.236 . S
C500 O491 1.257 . S
O501 Tb480 2.415 . S
O501 C489 1.239 . S
O502 Tb480 2.399 . S
O502 C489 1.263 . S
C503 O492 1.261 . S
C503 O493 1.257 . S
C504 C507 1.358 . S
C504 C508 1.332 . S
C504 C510 1.504 1_455 S
C505 C506 1.373 . S
C505 C509 1.308 . S
C506 C505 1.373 . S
C506 C507 1.429 . S
C506 H516 0.932 . S
C507 C504 1.358 . S
C507 C506 1.429 . S
C507 H517 0.930 . S
C508 C504 1.332 . S
C508 C509 1.394 . S
C508 H518 0.933 . S
C509 C505 1.308 . S
C509 C508 1.394 . S
C509 H519 0.929 . S
C510 Tb481 2.764 . S
C510 O494 1.239 . S
C510 O495 1.263 . S
C510 C504 1.504 1_655 S
C511 O496 1.236 . S
C511 O497 1.257 . S
H512 C485 0.932 . S
H513 C486 0.930 . S
H514 C487 0.932 . S
H515 C488 0.929 . S
H516 C506 0.932 . S
H517 C507 0.930 . S
H518 C508 0.933 . S
H519 C509 0.929 . S
Tb520 C529 2.764 . S
Tb520 O530 2.325 . S
Tb520 O533 2.303 . S
Tb520 O537 2.322 . S
Tb520 O538 2.349 . S
Tb520 O541 2.415 . S
Tb520 O542 2.399 . S
Tb521 O531 2.322 . S
Tb521 O532 2.349 . S
Tb521 O534 2.415 . S
Tb521 O535 2.399 . S
Tb521 O536 2.325 . S
Tb521 O539 2.303 . S
Tb521 C550 2.764 . S
C522 O538 1.261 . S
C522 O539 1.257 . S
C523 C526 1.358 . S
C523 C527 1.332 . S
C523 C529 1.504 . S
C524 C525 1.373 . S
C524 C528 1.308 . S
C525 C524 1.373 . S
C525 C526 1.429 . S
C525 H552 0.932 . S
C526 C523 1.358 . S
C526 C525 1.429 . S
C526 H553 0.930 . S
C527 C523 1.332 . S
C527 C528 1.394 . S
C527 H554 0.932 . S
C528 C524 1.308 . S
C528 C527 1.394 . S
C528 H555 0.929 . S
C529 Tb520 2.764 . S
C529 C523 1.504 . S
C529 O541 1.239 . S
C529 O542 1.263 . S
O530 Tb520 2.325 . S
O530 C540 1.236 . S
O531 Tb521 2.322 . S
O531 C540 1.257 . S
O532 Tb521 2.349 . S
O532 C543 1.261 . S
O533 Tb520 2.303 . S
O533 C543 1.257 . S
O534 Tb521 2.415 . S
O534 C550 1.239 . S
O535 Tb521 2.399 . S
O535 C550 1.263 . S
O536 Tb521 2.325 . S
O536 C551 1.236 . S
O537 Tb520 2.322 . S
O537 C551 1.257 . S
O538 Tb520 2.349 . S
O538 C522 1.261 . S
O539 Tb521 2.303 . S
O539 C522 1.257 . S
C540 O530 1.236 . S
C540 O531 1.257 . S
O541 Tb520 2.415 . S
O541 C529 1.239 . S
O542 Tb520 2.399 . S
O542 C529 1.263 . S
C543 O532 1.261 . S
C543 O533 1.257 . S
C544 C547 1.358 . S
C544 C548 1.332 . S
C544 C550 1.504 . S
C545 C546 1.373 . S
C545 C549 1.308 . S
C546 C545 1.373 . S
C546 C547 1.429 . S
C546 H556 0.932 . S
C547 C544 1.358 . S
C547 C546 1.429 . S
C547 H557 0.930 . S
C548 C544 1.332 . S
C548 C549 1.394 . S
C548 H558 0.932 . S
C549 C545 1.308 . S
C549 C548 1.394 . S
C549 H559 0.929 . S
C550 Tb521 2.764 . S
C550 O534 1.239 . S
C550 O535 1.263 . S
C550 C544 1.504 . S
C551 O536 1.236 . S
C551 O537 1.257 . S
H552 C525 0.932 . S
H553 C526 0.930 . S
H554 C527 0.932 . S
H555 C528 0.929 . S
H556 C546 0.932 . S
H557 C547 0.930 . S
H558 C548 0.932 . S
H559 C549 0.929 . S
Tb560 C569 2.764 . S
Tb560 O570 2.325 . S
Tb560 O573 2.303 . S
Tb560 O577 2.322 . S
Tb560 O578 2.349 . S
Tb560 O581 2.415 . S
Tb560 O582 2.399 . S
Tb561 O571 2.322 . S
Tb561 O572 2.349 . S
Tb561 O574 2.415 . S
Tb561 O575 2.399 . S
Tb561 O576 2.325 . S
Tb561 O579 2.303 . S
Tb561 C590 2.764 . S
C562 O578 1.261 . S
C562 O579 1.257 . S
C563 C566 1.358 . S
C563 C567 1.332 . S
C563 C569 1.504 . S
C564 C565 1.373 . S
C564 C568 1.308 . S
C565 C564 1.373 . S
C565 C566 1.429 . S
C565 H592 0.932 . S
C566 C563 1.358 . S
C566 C565 1.429 . S
C566 H593 0.930 . S
C567 C563 1.332 . S
C567 C568 1.394 . S
C567 H594 0.932 . S
C568 C564 1.308 . S
C568 C567 1.394 . S
C568 H595 0.929 . S
C569 Tb560 2.764 . S
C569 C563 1.504 . S
C569 O581 1.239 . S
C569 O582 1.263 . S
O570 Tb560 2.325 . S
O570 C580 1.236 . S
O571 Tb561 2.322 . S
O571 C580 1.257 . S
O572 Tb561 2.349 . S
O572 C583 1.261 . S
O573 Tb560 2.303 . S
O573 C583 1.257 . S
O574 Tb561 2.415 . S
O574 C590 1.239 . S
O575 Tb561 2.399 . S
O575 C590 1.263 . S
O576 Tb561 2.325 . S
O576 C591 1.236 . S
O577 Tb560 2.322 . S
O577 C591 1.257 . S
O578 Tb560 2.349 . S
O578 C562 1.261 . S
O579 Tb561 2.303 . S
O579 C562 1.257 . S
C580 O570 1.236 . S
C580 O571 1.257 . S
O581 Tb560 2.415 . S
O581 C569 1.239 . S
O582 Tb560 2.399 . S
O582 C569 1.263 . S
C583 O572 1.261 . S
C583 O573 1.257 . S
C584 C587 1.358 . S
C584 C588 1.332 . S
C584 C590 1.504 . S
C585 C586 1.373 . S
C585 C589 1.308 . S
C586 C585 1.373 . S
C586 C587 1.429 1_565 S
C586 H596 0.932 . S
C587 C584 1.358 . S
C587 C586 1.429 1_545 S
C587 H597 0.930 . S
C588 C584 1.332 . S
C588 C589 1.394 1_545 S
C588 H598 0.932 . S
C589 C585 1.308 . S
C589 C588 1.394 1_565 S
C589 H599 0.929 . S
C590 Tb561 2.764 . S
C590 O574 1.239 . S
C590 O575 1.263 . S
C590 C584 1.504 . S
C591 O576 1.236 . S
C591 O577 1.257 . S
H592 C565 0.932 . S
H593 C566 0.930 . S
H594 C567 0.932 . S
H595 C568 0.929 . S
H596 C586 0.932 . S
H597 C587 0.930 . S
H598 C588 0.932 . S
H599 C589 0.929 . S
Tb600 C609 2.764 . S
Tb600 O610 2.325 . S
Tb600 O613 2.303 . S
Tb600 O617 2.322 . S
Tb600 O618 2.349 . S
Tb600 O621 2.415 . S
Tb600 O622 2.399 . S
Tb601 O611 2.322 . S
Tb601 O612 2.349 . S
Tb601 O614 2.415 . S
Tb601 O615 2.399 . S
Tb601 O616 2.325 . S
Tb601 O619 2.303 . S
Tb601 C630 2.764 . S
C602 O618 1.261 . S
C602 O619 1.257 . S
C603 C606 1.358 . S
C603 C607 1.332 . S
C603 C609 1.504 1_565 S
C604 C605 1.373 . S
C604 C608 1.308 . S
C605 C604 1.373 . S
C605 C606 1.429 . S
C605 H632 0.932 . S
C606 C603 1.358 . S
C606 C605 1.429 . S
C606 H633 0.930 . S
C607 C603 1.332 . S
C607 C608 1.394 . S
C607 H634 0.932 . S
C608 C604 1.308 . S
C608 C607 1.394 . S
C608 H635 0.929 . S
C609 Tb600 2.764 . S
C609 C603 1.504 1_545 S
C609 O621 1.239 . S
C609 O622 1.263 . S
O610 Tb600 2.325 . S
O610 C620 1.236 . S
O611 Tb601 2.322 . S
O611 C620 1.257 . S
O612 Tb601 2.349 . S
O612 C623 1.261 . S
O613 Tb600 2.303 . S
O613 C623 1.257 . S
O614 Tb601 2.415 . S
O614 C630 1.239 . S
O615 Tb601 2.399 . S
O615 C630 1.263 . S
O616 Tb601 2.325 . S
O616 C631 1.236 . S
O617 Tb600 2.322 . S
O617 C631 1.257 . S
O618 Tb600 2.349 . S
O618 C602 1.261 . S
O619 Tb601 2.303 . S
O619 C602 1.257 . S
C620 O610 1.236 . S
C620 O611 1.257 . S
O621 Tb600 2.415 . S
O621 C609 1.239 . S
O622 Tb600 2.399 . S
O622 C609 1.263 . S
C623 O612 1.261 . S
C623 O613 1.257 . S
C624 C627 1.358 . S
C624 C628 1.332 . S
C624 C630 1.504 . S
C625 C626 1.373 . S
C625 C629 1.308 . S
C626 C625 1.373 . S
C626 C627 1.429 . S
C626 H636 0.932 . S
C627 C624 1.358 . S
C627 C626 1.429 . S
C627 H637 0.930 . S
C628 C624 1.332 . S
C628 C629 1.394 . S
C628 H638 0.932 . S
C629 C625 1.308 . S
C629 C628 1.394 . S
C629 H639 0.929 . S
C630 Tb601 2.764 . S
C630 O614 1.239 . S
C630 O615 1.263 . S
C630 C624 1.504 . S
C631 O616 1.236 . S
C631 O617 1.257 . S
H632 C605 0.932 . S
H633 C606 0.930 . S
H634 C607 0.932 . S
H635 C608 0.929 . S
H636 C626 0.932 . S
H637 C627 0.930 . S
H638 C628 0.932 . S
H639 C629 0.929 . S
Tb640 C649 2.764 1_655 S
Tb640 O650 2.325 . S
Tb640 O653 2.303 . S
Tb640 O657 2.322 . S
Tb640 O658 2.349 . S
Tb640 O661 2.415 1_655 S
Tb640 O662 2.399 1_655 S
Tb641 O651 2.322 . S
Tb641 O652 2.349 . S
Tb641 O654 2.415 . S
Tb641 O655 2.399 . S
Tb641 O656 2.325 . S
Tb641 O659 2.303 . S
Tb641 C670 2.764 . S
C642 O658 1.261 . S
C642 O659 1.257 . S
C643 C646 1.358 . S
C643 C647 1.332 . S
C643 C649 1.504 . S
C644 C645 1.373 . S
C644 C648 1.308 . S
C645 C644 1.373 . S
C645 C646 1.429 . S
C645 H672 0.932 . S
C646 C643 1.358 . S
C646 C645 1.429 . S
C646 H673 0.930 . S
C647 C643 1.332 . S
C647 C648 1.394 . S
C647 H674 0.932 . S
C648 C644 1.308 . S
C648 C647 1.394 . S
C648 H675 0.929 . S
C649 Tb640 2.764 1_455 S
C649 C643 1.504 . S
C649 O661 1.239 . S
C649 O662 1.263 . S
O650 Tb640 2.325 . S
O650 C660 1.236 . S
O651 Tb641 2.322 . S
O651 C660 1.257 . S
O652 Tb641 2.349 . S
O652 C663 1.261 . S
O653 Tb640 2.303 . S
O653 C663 1.257 . S
O654 Tb641 2.415 . S
O654 C670 1.239 . S
O655 Tb641 2.399 . S
O655 C670 1.263 . S
O656 Tb641 2.325 . S
O656 C671 1.236 . S
O657 Tb640 2.322 . S
O657 C671 1.257 . S
O658 Tb640 2.349 . S
O658 C642 1.261 . S
O659 Tb641 2.303 . S
O659 C642 1.257 . S
C660 O650 1.236 . S
C660 O651 1.257 . S
O661 Tb640 2.415 1_455 S
O661 C649 1.239 . S
O662 Tb640 2.399 1_455 S
O662 C649 1.263 . S
C663 O652 1.261 . S
C663 O653 1.257 . S
C664 C667 1.358 . S
C664 C668 1.332 . S
C664 C670 1.504 . S
C665 C666 1.373 . S
C665 C669 1.308 . S
C666 C665 1.373 . S
C666 C667 1.429 . S
C666 H676 0.932 . S
C667 C664 1.358 . S
C667 C666 1.429 . S
C667 H677 0.930 . S
C668 C664 1.332 . S
C668 C669 1.394 . S
C668 H678 0.932 . S
C669 C665 1.308 . S
C669 C668 1.394 . S
C669 H679 0.929 . S
C670 Tb641 2.764 . S
C670 O654 1.239 . S
C670 O655 1.263 . S
C670 C664 1.504 . S
C671 O656 1.236 . S
C671 O657 1.257 . S
H672 C645 0.932 . S
H673 C646 0.930 . S
H674 C647 0.932 . S
H675 C648 0.929 . S
H676 C666 0.932 . S
H677 C667 0.930 . S
H678 C668 0.932 . S
H679 C669 0.929 . S
Tb680 C689 2.764 . S
Tb680 O690 2.325 . S
Tb680 O693 2.303 . S
Tb680 O697 2.322 . S
Tb680 O698 2.349 . S
Tb680 O701 2.415 . S
Tb680 O702 2.399 . S
Tb681 O691 2.322 . S
Tb681 O692 2.349 . S
Tb681 O694 2.415 . S
Tb681 O695 2.399 . S
Tb681 O696 2.325 . S
Tb681 O699 2.303 . S
Tb681 C710 2.764 . S
C682 O698 1.261 . S
C682 O699 1.257 . S
C683 C686 1.358 . S
C683 C687 1.332 . S
C683 C689 1.504 . S
C684 C685 1.373 . S
C684 C688 1.308 . S
C685 C684 1.373 . S
C685 C686 1.429 . S
C685 H712 0.932 . S
C686 C683 1.358 . S
C686 C685 1.429 . S
C686 H713 0.930 . S
C687 C683 1.332 . S
C687 C688 1.394 . S
C687 H714 0.932 . S
C688 C684 1.308 . S
C688 C687 1.394 . S
C688 H715 0.929 . S
C689 Tb680 2.764 . S
C689 C683 1.504 . S
C689 O701 1.239 . S
C689 O702 1.263 . S
O690 Tb680 2.325 . S
O690 C700 1.236 . S
O691 Tb681 2.322 . S
O691 C700 1.257 . S
O692 Tb681 2.349 . S
O692 C703 1.261 . S
O693 Tb680 2.303 . S
O693 C703 1.257 . S
O694 Tb681 2.415 . S
O694 C710 1.239 . S
O695 Tb681 2.399 . S
O695 C710 1.263 . S
O696 Tb681 2.325 . S
O696 C711 1.236 . S
O697 Tb680 2.322 . S
O697 C711 1.257 . S
O698 Tb680 2.349 . S
O698 C682 1.261 . S
O699 Tb681 2.303 . S
O699 C682 1.257 . S
C700 O690 1.236 . S
C700 O691 1.257 . S
O701 Tb680 2.415 . S
O701 C689 1.239 . S
O702 Tb680 2.399 . S
O702 C689 1.263 . S
C703 O692 1.261 . S
C703 O693 1.257 . S
C704 C707 1.358 . S
C704 C708 1.332 . S
C704 C710 1.504 . S
C705 C706 1.373 . S
C705 C709 1.308 . S
C706 C705 1.373 . S
C706 C707 1.429 . S
C706 H716 0.932 . S
C707 C704 1.358 . S
C707 C706 1.429 . S
C707 H717 0.930 . S
C708 C704 1.332 . S
C708 C709 1.394 . S
C708 H718 0.932 . S
C709 C705 1.308 . S
C709 C708 1.394 . S
C709 H719 0.929 . S
C710 Tb681 2.764 . S
C710 O694 1.239 . S
C710 O695 1.263 . S
C710 C704 1.504 . S
C711 O696 1.236 . S
C711 O697 1.257 . S
H712 C685 0.932 . S
H713 C686 0.930 . S
H714 C687 0.932 . S
H715 C688 0.929 . S
H716 C706 0.932 . S
H717 C707 0.930 . S
H718 C708 0.932 . S
H719 C709 0.929 . S
C720 C721 1.387 . S
C720 H724 0.950 . S
C720 C729 1.390 . S
C721 C720 1.387 . S
C721 C723 1.387 . S
H722 C729 0.950 . S
C723 C721 1.387 . S
C723 C725 1.390 . S
C723 H727 0.950 . S
H724 C720 0.950 . S
C725 C723 1.390 . S
C725 C726 1.387 . S
C725 H728 0.950 . S
C726 C725 1.387 . S
C726 C729 1.387 . S
H727 C723 0.950 . S
H728 C725 0.950 . S
C729 C720 1.390 . S
C729 H722 0.950 . S
C729 C726 1.387 . S
C730 C731 1.387 . S
C730 H734 0.950 . S
C730 C739 1.390 . S
C731 C730 1.387 . S
C731 C733 1.387 . S
H732 C739 0.950 . S
C733 C731 1.387 . S
C733 C735 1.390 . S
C733 H737 0.950 . S
H734 C730 0.950 . S
C735 C733 1.390 . S
C735 C736 1.387 . S
C735 H738 0.950 . S
C736 C735 1.387 . S
C736 C739 1.387 . S
H737 C733 0.950 . S
H738 C735 0.950 . S
C739 C730 1.390 . S
C739 H732 0.950 . S
C739 C736 1.387 . S
C740 C741 1.387 . S
C740 H744 0.950 . S
C740 C749 1.390 . S
C741 C740 1.387 . S
C741 C743 1.387 . S
H742 C749 0.950 . S
C743 C741 1.387 . S
C743 C745 1.390 . S
C743 H747 0.950 . S
H744 C740 0.950 . S
C745 C743 1.390 . S
C745 C746 1.387 . S
C745 H748 0.950 . S
C746 C745 1.387 . S
C746 C749 1.387 . S
H747 C743 0.950 . S
H748 C745 0.950 . S
C749 C740 1.390 . S
C749 H742 0.950 . S
C749 C746 1.387 . S
C750 C751 1.387 . S
C750 H754 0.950 . S
C750 C759 1.390 . S
C751 C750 1.387 . S
C751 C753 1.387 . S
H752 C759 0.950 . S
C753 C751 1.387 . S
C753 C755 1.390 . S
C753 H757 0.950 . S
H754 C750 0.950 . S
C755 C753 1.390 . S
C755 C756 1.387 . S
C755 H758 0.950 . S
C756 C755 1.387 . S
C756 C759 1.387 . S
H757 C753 0.950 . S
H758 C755 0.950 . S
C759 C750 1.390 . S
C759 H752 0.950 . S
C759 C756 1.387 . S
C760 C761 1.387 . S
C760 H764 0.950 . S
C760 C769 1.390 . S
C761 C760 1.387 . S
C761 C763 1.387 . S
H762 C769 0.950 . S
C763 C761 1.387 . S
C763 C765 1.390 . S
C763 H767 0.950 . S
H764 C760 0.950 . S
C765 C763 1.390 . S
C765 C766 1.387 . S
C765 H768 0.950 . S
C766 C765 1.387 . S
C766 C769 1.387 . S
H767 C763 0.950 . S
H768 C765 0.950 . S
C769 C760 1.390 . S
C769 H762 0.950 . S
C769 C766 1.387 . S
C770 C771 1.387 . S
C770 H774 0.950 . S
C770 C779 1.390 . S
C771 C770 1.387 . S
C771 C773 1.387 . S
H772 C779 0.950 . S
C773 C771 1.387 . S
C773 C775 1.390 . S
C773 H777 0.950 . S
H774 C770 0.950 . S
C775 C773 1.390 . S
C775 C776 1.387 . S
C775 H778 0.950 . S
C776 C775 1.387 . S
C776 C779 1.387 . S
H777 C773 0.950 . S
H778 C775 0.950 . S
C779 C770 1.390 . S
C779 H772 0.950 . S
C779 C776 1.387 . S
C780 C781 1.387 . S
C780 H784 0.950 . S
C780 C789 1.390 . S
C781 C780 1.387 . S
C781 C783 1.387 . S
H782 C789 0.950 . S
C783 C781 1.387 . S
C783 C785 1.390 . S
C783 H787 0.950 . S
H784 C780 0.950 . S
C785 C783 1.390 . S
C785 C786 1.387 . S
C785 H788 0.950 . S
C786 C785 1.387 . S
C786 C789 1.387 . S
H787 C783 0.950 . S
H788 C785 0.950 . S
C789 C780 1.390 . S
C789 H782 0.950 . S
C789 C786 1.387 . S
C790 C791 1.387 . S
C790 H794 0.950 . S
C790 C799 1.390 1_545 S
C791 C790 1.387 . S
C791 C793 1.387 . S
H792 C799 0.950 . S
C793 C791 1.387 . S
C793 C795 1.390 1_545 S
C793 H797 0.950 . S
H794 C790 0.950 . S
C795 C793 1.390 1_565 S
C795 C796 1.387 . S
C795 H798 0.950 . S
C796 C795 1.387 . S
C796 C799 1.387 . S
H797 C793 0.950 . S
H798 C795 0.950 . S
C799 C790 1.390 1_565 S
C799 H792 0.950 . S
C799 C796 1.387 . S
C800 C801 1.387 . S
C800 H804 0.950 . S
C800 C809 1.390 . S
C801 C800 1.387 . S
C801 C803 1.387 . S
H802 C809 0.950 1_655 S
C803 C801 1.387 . S
C803 C805 1.390 . S
C803 H807 0.950 . S
H804 C800 0.950 . S
C805 C803 1.390 . S
C805 C806 1.387 1_455 S
C805 H808 0.950 . S
C806 C805 1.387 1_655 S
C806 C809 1.387 1_655 S
H807 C803 0.950 . S
H808 C805 0.950 . S
C809 C800 1.390 . S
C809 H802 0.950 1_455 S
C809 C806 1.387 1_455 S
C810 C811 1.387 . S
C810 H814 0.950 . S
C810 C819 1.390 . S
C811 C810 1.387 . S
C811 C813 1.387 . S
H812 C819 0.950 . S
C813 C811 1.387 . S
C813 C815 1.390 . S
C813 H817 0.950 . S
H814 C810 0.950 . S
C815 C813 1.390 . S
C815 C816 1.387 . S
C815 H818 0.950 . S
C816 C815 1.387 . S
C816 C819 1.387 . S
H817 C813 0.950 . S
H818 C815 0.950 . S
C819 C810 1.390 . S
C819 H812 0.950 . S
C819 C816 1.387 . S
C820 C821 1.387 . S
C820 H824 0.950 . S
C820 C829 1.390 . S
C821 C820 1.387 . S
C821 C823 1.387 . S
H822 C829 0.950 . S
C823 C821 1.387 . S
C823 C825 1.390 . S
C823 H827 0.950 . S
H824 C820 0.950 . S
C825 C823 1.390 . S
C825 C826 1.387 . S
C825 H828 0.950 . S
C826 C825 1.387 . S
C826 C829 1.387 . S
H827 C823 0.950 . S
H828 C825 0.950 . S
C829 C820 1.390 . S
C829 H822 0.950 . S
C829 C826 1.387 . S
C830 C831 1.387 . S
C830 H834 0.950 . S
C830 C839 1.390 . S
C831 C830 1.387 . S
C831 C833 1.387 . S
H832 C839 0.950 . S
C833 C831 1.387 . S
C833 C835 1.390 . S
C833 H837 0.950 . S
H834 C830 0.950 . S
C835 C833 1.390 . S
C835 C836 1.387 . S
C835 H838 0.950 . S
C836 C835 1.387 . S
C836 C839 1.387 . S
H837 C833 0.950 . S
H838 C835 0.950 . S
C839 C830 1.390 . S
C839 H832 0.950 . S
C839 C836 1.387 . S
C840 C841 1.387 . S
C840 H844 0.950 . S
C840 C849 1.390 . S
C841 C840 1.387 . S
C841 C843 1.387 . S
H842 C849 0.950 . S
C843 C841 1.387 . S
C843 C845 1.390 . S
C843 H847 0.950 . S
H844 C840 0.950 . S
C845 C843 1.390 . S
C845 C846 1.387 . S
C845 H848 0.950 . S
C846 C845 1.387 . S
C846 C849 1.387 . S
H847 C843 0.950 . S
H848 C845 0.950 . S
C849 C840 1.390 . S
C849 H842 0.950 . S
C849 C846 1.387 . S
C850 C851 1.387 . S
C850 H854 0.950 . S
C850 C859 1.390 . S
C851 C850 1.387 . S
C851 C853 1.387 . S
H852 C859 0.950 . S
C853 C851 1.387 . S
C853 C855 1.390 . S
C853 H857 0.950 . S
H854 C850 0.950 . S
C855 C853 1.390 . S
C855 C856 1.387 . S
C855 H858 0.950 . S
C856 C855 1.387 . S
C856 C859 1.387 . S
H857 C853 0.950 . S
H858 C855 0.950 . S
C859 C850 1.390 . S
C859 H852 0.950 . S
C859 C856 1.387 . S
C860 C861 1.387 . S
C860 H864 0.950 . S
C860 C869 1.390 . S
C861 C860 1.387 . S
C861 C863 1.387 . S
H862 C869 0.950 . S
C863 C861 1.387 . S
C863 C865 1.390 . S
C863 H867 0.950 . S
H864 C860 0.950 . S
C865 C863 1.390 . S
C865 C866 1.387 . S
C865 H868 0.950 . S
C866 C865 1.387 . S
C866 C869 1.387 . S
H867 C863 0.950 . S
H868 C865 0.950 . S
C869 C860 1.390 . S
C869 H862 0.950 . S
C869 C866 1.387 . S
C870 C871 1.387 . S
C870 H874 0.950 . S
C870 C879 1.390 . S
C871 C870 1.387 . S
C871 C873 1.387 . S
H872 C879 0.950 . S
C873 C871 1.387 . S
C873 C875 1.390 . S
C873 H877 0.950 . S
H874 C870 0.950 . S
C875 C873 1.390 . S
C875 C876 1.387 . S
C875 H878 0.950 . S
C876 C875 1.387 . S
C876 C879 1.387 . S
H877 C873 0.950 . S
H878 C875 0.950 . S
C879 C870 1.390 . S
C879 H872 0.950 . S
C879 C876 1.387 . S
C880 C881 1.387 1_545 S
C880 H884 0.950 . S
C880 C889 1.390 . S
C881 C880 1.387 1_565 S
C881 C883 1.387 1_565 S
H882 C889 0.950 . S
C883 C881 1.387 1_545 S
C883 C885 1.390 . S
C883 H887 0.950 1_545 S
H884 C880 0.950 . S
C885 C883 1.390 . S
C885 C886 1.387 . S
C885 H888 0.950 . S
C886 C885 1.387 . S
C886 C889 1.387 . S
H887 C883 0.950 1_565 S
H888 C885 0.950 . S
C889 C880 1.390 . S
C889 H882 0.950 . S
C889 C886 1.387 . S
C890 C891 1.387 . S
C890 H894 0.950 . S
C890 C899 1.390 1_455 S
C891 C890 1.387 . S
C891 C893 1.387 . S
H892 C899 0.950 . S
C893 C891 1.387 . S
C893 C895 1.390 1_455 S
C893 H897 0.950 . S
H894 C890 0.950 . S
C895 C893 1.390 1_655 S
C895 C896 1.387 . S
C895 H898 0.950 . S
C896 C895 1.387 . S
C896 C899 1.387 . S
H897 C893 0.950 . S
H898 C895 0.950 . S
C899 C890 1.390 1_655 S
C899 H892 0.950 . S
C899 C896 1.387 . S
C900 C901 1.387 . S
C900 H904 0.950 . S
C900 C909 1.390 1_554 S
C901 C900 1.387 . S
C901 C903 1.387 . S
H902 C909 0.950 . S
C903 C901 1.387 . S
C903 C905 1.390 1_554 S
C903 H907 0.950 . S
H904 C900 0.950 . S
C905 C903 1.390 1_556 S
C905 C906 1.387 . S
C905 H908 0.950 . S
C906 C905 1.387 . S
C906 C909 1.387 . S
H907 C903 0.950 . S
H908 C905 0.950 . S
C909 C900 1.390 1_556 S
C909 H902 0.950 . S
C909 C906 1.387 . S
C910 C911 1.387 . S
C910 H914 0.950 . S
C910 C919 1.390 1_556 S
C911 C910 1.387 . S
C911 C913 1.387 1_455 S
H912 C919 0.950 . S
C913 C911 1.387 1_655 S
C913 C915 1.390 1_556 S
C913 H917 0.950 . S
H914 C910 0.950 . S
C915 C913 1.390 1_554 S
C915 C916 1.387 1_655 S
C915 H918 0.950 . S
C916 C915 1.387 1_455 S
C916 C919 1.387 . S
H917 C913 0.950 . S
H918 C915 0.950 . S
C919 C910 1.390 1_554 S
C919 H912 0.950 . S
C919 C916 1.387 . S
C920 C921 1.387 . S
C920 H924 0.950 . S
C920 C929 1.390 1_556 S
C921 C920 1.387 . S
C921 C923 1.387 . S
H922 C929 0.950 . S
C923 C921 1.387 . S
C923 C925 1.390 1_556 S
C923 H927 0.950 . S
H924 C920 0.950 . S
C925 C923 1.390 1_554 S
C925 C926 1.387 . S
C925 H928 0.950 . S
C926 C925 1.387 . S
C926 C929 1.387 . S
H927 C923 0.950 . S
H928 C925 0.950 . S
C929 C920 1.390 1_554 S
C929 H922 0.950 . S
C929 C926 1.387 . S
C930 C931 1.387 . S
C930 H934 0.950 . S
C930 C939 1.390 . S
C931 C930 1.387 . S
C931 C933 1.387 . S
H932 C939 0.950 . S
C933 C931 1.387 . S
C933 C935 1.390 . S
C933 H937 0.950 . S
H934 C930 0.950 . S
C935 C933 1.390 . S
C935 C936 1.387 . S
C935 H938 0.950 . S
C936 C935 1.387 . S
C936 C939 1.387 . S
H937 C933 0.950 . S
H938 C935 0.950 . S
C939 C930 1.390 . S
C939 H932 0.950 . S
C939 C936 1.387 . S
C940 C941 1.387 . S
C940 H944 0.950 . S
C940 C949 1.390 . S
C941 C940 1.387 . S
C941 C943 1.387 . S
H942 C949 0.950 . S
C943 C941 1.387 . S
C943 C945 1.390 . S
C943 H947 0.950 . S
H944 C940 0.950 . S
C945 C943 1.390 . S
C945 C946 1.387 . S
C945 H948 0.950 . S
C946 C945 1.387 . S
C946 C949 1.387 . S
H947 C943 0.950 . S
H948 C945 0.950 . S
C949 C940 1.390 . S
C949 H942 0.950 . S
C949 C946 1.387 . S
C950 C951 1.387 . S
C950 H954 0.950 . S
C950 C959 1.390 . S
C951 C950 1.387 . S
C951 C953 1.387 . S
H952 C959 0.950 . S
C953 C951 1.387 . S
C953 C955 1.390 . S
C953 H957 0.950 . S
H954 C950 0.950 . S
C955 C953 1.390 . S
C955 C956 1.387 . S
C955 H958 0.950 . S
C956 C955 1.387 . S
C956 C959 1.387 . S
H957 C953 0.950 . S
H958 C955 0.950 . S
C959 C950 1.390 . S
C959 H952 0.950 . S
C959 C956 1.387 . S
C960 C961 1.387 . S
C960 H964 0.950 . S
C960 C969 1.390 . S
C961 C960 1.387 . S
C961 C963 1.387 . S
H962 C969 0.950 . S
C963 C961 1.387 . S
C963 C965 1.390 . S
C963 H967 0.950 . S
H964 C960 0.950 . S
C965 C963 1.390 . S
C965 C966 1.387 . S
C965 H968 0.950 . S
C966 C965 1.387 . S
C966 C969 1.387 . S
H967 C963 0.950 . S
H968 C965 0.950 . S
C969 C960 1.390 . S
C969 H962 0.950 . S
C969 C966 1.387 . S
C970 C971 1.387 . S
C970 H974 0.950 . S
C970 C979 1.390 . S
C971 C970 1.387 . S
C971 C973 1.387 . S
H972 C979 0.950 . S
C973 C971 1.387 . S
C973 C975 1.390 . S
C973 H977 0.950 . S
H974 C970 0.950 . S
C975 C973 1.390 . S
C975 C976 1.387 . S
C975 H978 0.950 . S
C976 C975 1.387 . S
C976 C979 1.387 . S
H977 C973 0.950 . S
H978 C975 0.950 . S
C979 C970 1.390 . S
C979 H972 0.950 . S
C979 C976 1.387 . S
C980 C981 1.387 . S
C980 H984 0.950 . S
C980 C989 1.390 . S
C981 C980 1.387 . S
C981 C983 1.387 . S
H982 C989 0.950 . S
C983 C981 1.387 . S
C983 C985 1.390 . S
C983 H987 0.950 . S
H984 C980 0.950 . S
C985 C983 1.390 . S
C985 C986 1.387 . S
C985 H988 0.950 . S
C986 C985 1.387 . S
C986 C989 1.387 . S
H987 C983 0.950 . S
H988 C985 0.950 . S
C989 C980 1.390 . S
C989 H982 0.950 . S
C989 C986 1.387 . S
C990 C991 1.387 . S
C990 H994 0.950 . S
C990 C999 1.390 . S
C991 C990 1.387 . S
C991 C993 1.387 . S
H992 C999 0.950 . S
C993 C991 1.387 . S
C993 C995 1.390 . S
C993 H997 0.950 . S
H994 C990 0.950 . S
C995 C993 1.390 . S
C995 C996 1.387 . S
C995 H998 0.950 . S
C996 C995 1.387 . S
C996 C999 1.387 . S
H997 C993 0.950 . S
H998 C995 0.950 . S
C999 C990 1.390 . S
C999 H992 0.950 . S
C999 C996 1.387 . S
C1000 C1001 1.387 . S
C1000 H1004 0.950 . S
C1000 C1009 1.390 . S
C1001 C1000 1.387 . S
C1001 C1003 1.387 . S
H1002 C1009 0.950 . S
C1003 C1001 1.387 . S
C1003 C1005 1.390 . S
C1003 H1007 0.950 . S
H1004 C1000 0.950 . S
C1005 C1003 1.390 . S
C1005 C1006 1.387 . S
C1005 H1008 0.950 . S
C1006 C1005 1.387 . S
C1006 C1009 1.387 . S
H1007 C1003 0.950 . S
H1008 C1005 0.950 . S
C1009 C1000 1.390 . S
C1009 H1002 0.950 . S
C1009 C1006 1.387 . S
C1010 C1011 1.387 . S
C1010 H1014 0.950 . S
C1010 C1019 1.390 . S
C1011 C1010 1.387 . S
C1011 C1013 1.387 . S
H1012 C1019 0.950 . S
C1013 C1011 1.387 . S
C1013 C1015 1.390 . S
C1013 H1017 0.950 . S
H1014 C1010 0.950 . S
C1015 C1013 1.390 . S
C1015 C1016 1.387 . S
C1015 H1018 0.950 . S
C1016 C1015 1.387 . S
C1016 C1019 1.387 . S
H1017 C1013 0.950 . S
H1018 C1015 0.950 . S
C1019 C1010 1.390 . S
C1019 H1012 0.950 . S
C1019 C1016 1.387 . S
C1020 C1021 1.387 . S
C1020 H1024 0.950 1_655 S
C1020 C1029 1.390 . S
C1021 C1020 1.387 . S
C1021 C1023 1.387 . S
H1022 C1029 0.950 . S
C1023 C1021 1.387 . S
C1023 C1025 1.390 . S
C1023 H1027 0.950 . S
H1024 C1020 0.950 1_455 S
C1025 C1023 1.390 . S
C1025 C1026 1.387 . S
C1025 H1028 0.950 . S
C1026 C1025 1.387 . S
C1026 C1029 1.387 . S
H1027 C1023 0.950 . S
H1028 C1025 0.950 . S
C1029 C1020 1.390 . S
C1029 H1022 0.950 . S
C1029 C1026 1.387 . S
C1030 C1031 1.387 . S
C1030 H1034 0.950 . S
C1030 C1039 1.390 . S
C1031 C1030 1.387 . S
C1031 C1033 1.387 . S
H1032 C1039 0.950 . S
C1033 C1031 1.387 . S
C1033 C1035 1.390 . S
C1033 H1037 0.950 . S
H1034 C1030 0.950 . S
C1035 C1033 1.390 . S
C1035 C1036 1.387 . S
C1035 H1038 0.950 . S
C1036 C1035 1.387 . S
C1036 C1039 1.387 . S
H1037 C1033 0.950 . S
H1038 C1035 0.950 . S
C1039 C1030 1.390 . S
C1039 H1032 0.950 . S
C1039 C1036 1.387 . S
C1040 C1041 1.387 . S
C1040 H1044 0.950 . S
C1040 C1049 1.390 . S
C1041 C1040 1.387 . S
C1041 C1043 1.387 . S
H1042 C1049 0.950 . S
C1043 C1041 1.387 . S
C1043 C1045 1.390 . S
C1043 H1047 0.950 . S
H1044 C1040 0.950 . S
C1045 C1043 1.390 . S
C1045 C1046 1.387 . S
C1045 H1048 0.950 . S
C1046 C1045 1.387 . S
C1046 C1049 1.387 . S
H1047 C1043 0.950 . S
H1048 C1045 0.950 . S
C1049 C1040 1.390 . S
C1049 H1042 0.950 . S
C1049 C1046 1.387 . S
C1050 C1051 1.387 . S
C1050 H1054 0.950 . S
C1050 C1059 1.390 1_655 S
C1051 C1050 1.387 . S
C1051 C1053 1.387 1_655 S
H1052 C1059 0.950 . S
C1053 C1051 1.387 1_455 S
C1053 C1055 1.390 . S
C1053 H1057 0.950 1_455 S
H1054 C1050 0.950 . S
C1055 C1053 1.390 . S
C1055 C1056 1.387 . S
C1055 H1058 0.950 . S
C1056 C1055 1.387 . S
C1056 C1059 1.387 . S
H1057 C1053 0.950 1_655 S
H1058 C1055 0.950 . S
C1059 C1050 1.390 1_455 S
C1059 H1052 0.950 . S
C1059 C1056 1.387 . S
C1060 C1061 1.387 . S
C1060 H1064 0.950 . S
C1060 C1069 1.390 . S
C1061 C1060 1.387 . S
C1061 C1063 1.387 . S
H1062 C1069 0.950 . S
C1063 C1061 1.387 . S
C1063 C1065 1.390 . S
C1063 H1067 0.950 . S
H1064 C1060 0.950 . S
C1065 C1063 1.390 . S
C1065 C1066 1.387 . S
C1065 H1068 0.950 . S
C1066 C1065 1.387 . S
C1066 C1069 1.387 . S
H1067 C1063 0.950 . S
H1068 C1065 0.950 . S
C1069 C1060 1.390 . S
C1069 H1062 0.950 . S
C1069 C1066 1.387 . S
C1070 C1071 1.387 . S
C1070 H1074 0.950 . S
C1070 C1079 1.390 1_565 S
C1071 C1070 1.387 . S
C1071 C1073 1.387 . S
H1072 C1079 0.950 . S
C1073 C1071 1.387 . S
C1073 C1075 1.390 1_565 S
C1073 H1077 0.950 . S
H1074 C1070 0.950 . S
C1075 C1073 1.390 1_545 S
C1075 C1076 1.387 . S
C1075 H1078 0.950 . S
C1076 C1075 1.387 . S
C1076 C1079 1.387 . S
H1077 C1073 0.950 . S
H1078 C1075 0.950 . S
C1079 C1070 1.390 1_545 S
C1079 H1072 0.950 . S
C1079 C1076 1.387 . S
C1080 C1081 1.387 . S
C1080 H1084 0.950 . S
C1080 C1089 1.390 . S
C1081 C1080 1.387 . S
C1081 C1083 1.387 . S
H1082 C1089 0.950 . S
C1083 C1081 1.387 . S
C1083 C1085 1.390 . S
C1083 H1087 0.950 . S
H1084 C1080 0.950 . S
C1085 C1083 1.390 . S
C1085 C1086 1.387 . S
C1085 H1088 0.950 . S
C1086 C1085 1.387 . S
C1086 C1089 1.387 . S
H1087 C1083 0.950 . S
H1088 C1085 0.950 . S
C1089 C1080 1.390 . S
C1089 H1082 0.950 . S
C1089 C1086 1.387 . S
C1090 C1091 1.387 . S
C1090 H1094 0.950 . S
C1090 C1099 1.390 . S
C1091 C1090 1.387 . S
C1091 C1093 1.387 . S
H1092 C1099 0.950 . S
C1093 C1091 1.387 . S
C1093 C1095 1.390 . S
C1093 H1097 0.950 . S
H1094 C1090 0.950 . S
C1095 C1093 1.390 . S
C1095 C1096 1.387 . S
C1095 H1098 0.950 . S
C1096 C1095 1.387 . S
C1096 C1099 1.387 . S
H1097 C1093 0.950 . S
H1098 C1095 0.950 . S
C1099 C1090 1.390 . S
C1099 H1092 0.950 . S
C1099 C1096 1.387 . S
C1100 C1101 1.387 . S
C1100 H1104 0.950 . S
C1100 C1109 1.390 . S
C1101 C1100 1.387 . S
C1101 C1103 1.387 . S
H1102 C1109 0.950 . S
C1103 C1101 1.387 . S
C1103 C1105 1.390 . S
C1103 H1107 0.950 . S
H1104 C1100 0.950 . S
C1105 C1103 1.390 . S
C1105 C1106 1.387 . S
C1105 H1108 0.950 . S
C1106 C1105 1.387 . S
C1106 C1109 1.387 . S
H1107 C1103 0.950 . S
H1108 C1105 0.950 . S
C1109 C1100 1.390 . S
C1109 H1102 0.950 . S
C1109 C1106 1.387 . S
C1110 C1111 1.387 . S
C1110 H1114 0.950 . S
C1110 C1119 1.390 . S
C1111 C1110 1.387 . S
C1111 C1113 1.387 . S
H1112 C1119 0.950 . S
C1113 C1111 1.387 . S
C1113 C1115 1.390 . S
C1113 H1117 0.950 . S
H1114 C1110 0.950 . S
C1115 C1113 1.390 . S
C1115 C1116 1.387 . S
C1115 H1118 0.950 . S
C1116 C1115 1.387 . S
C1116 C1119 1.387 . S
H1117 C1113 0.950 . S
H1118 C1115 0.950 . S
C1119 C1110 1.390 . S
C1119 H1112 0.950 . S
C1119 C1116 1.387 . S
C1120 C1121 1.387 . S
C1120 H1124 0.950 . S
C1120 C1129 1.390 . S
C1121 C1120 1.387 . S
C1121 C1123 1.387 . S
H1122 C1129 0.950 . S
C1123 C1121 1.387 . S
C1123 C1125 1.390 . S
C1123 H1127 0.950 . S
H1124 C1120 0.950 . S
C1125 C1123 1.390 . S
C1125 C1126 1.387 . S
C1125 H1128 0.950 . S
C1126 C1125 1.387 . S
C1126 C1129 1.387 . S
H1127 C1123 0.950 . S
H1128 C1125 0.950 . S
C1129 C1120 1.390 . S
C1129 H1122 0.950 . S
C1129 C1126 1.387 . S
C1130 C1131 1.387 . S
C1130 H1134 0.950 . S
C1130 C1139 1.390 . S
C1131 C1130 1.387 . S
C1131 C1133 1.387 . S
H1132 C1139 0.950 . S
C1133 C1131 1.387 . S
C1133 C1135 1.390 . S
C1133 H1137 0.950 . S
H1134 C1130 0.950 . S
C1135 C1133 1.390 . S
C1135 C1136 1.387 . S
C1135 H1138 0.950 . S
C1136 C1135 1.387 . S
C1136 C1139 1.387 . S
H1137 C1133 0.950 . S
H1138 C1135 0.950 . S
C1139 C1130 1.390 . S
C1139 H1132 0.950 . S
C1139 C1136 1.387 . S
C1140 C1141 1.387 . S
C1140 H1144 0.950 . S
C1140 C1149 1.390 . S
C1141 C1140 1.387 . S
C1141 C1143 1.387 . S
H1142 C1149 0.950 . S
C1143 C1141 1.387 . S
C1143 C1145 1.390 . S
C1143 H1147 0.950 . S
H1144 C1140 0.950 . S
C1145 C1143 1.390 . S
C1145 C1146 1.387 . S
C1145 H1148 0.950 . S
C1146 C1145 1.387 . S
C1146 C1149 1.387 . S
H1147 C1143 0.950 . S
H1148 C1145 0.950 . S
C1149 C1140 1.390 . S
C1149 H1142 0.950 . S
C1149 C1146 1.387 . S
C1150 C1151 1.387 . S
C1150 H1154 0.950 . S
C1150 C1159 1.390 . S
C1151 C1150 1.387 . S
C1151 C1153 1.387 . S
H1152 C1159 0.950 . S
C1153 C1151 1.387 . S
C1153 C1155 1.390 . S
C1153 H1157 0.950 . S
H1154 C1150 0.950 . S
C1155 C1153 1.390 . S
C1155 C1156 1.387 . S
C1155 H1158 0.950 . S
C1156 C1155 1.387 . S
C1156 C1159 1.387 . S
H1157 C1153 0.950 . S
H1158 C1155 0.950 . S
C1159 C1150 1.390 . S
C1159 H1152 0.950 . S
C1159 C1156 1.387 . S
C1160 C1161 1.387 . S
C1160 H1164 0.950 . S
C1160 C1169 1.390 . S
C1161 C1160 1.387 . S
C1161 C1163 1.387 . S
H1162 C1169 0.950 . S
C1163 C1161 1.387 . S
C1163 C1165 1.390 . S
C1163 H1167 0.950 . S
H1164 C1160 0.950 . S
C1165 C1163 1.390 . S
C1165 C1166 1.387 . S
C1165 H1168 0.950 . S
C1166 C1165 1.387 . S
C1166 C1169 1.387 . S
H1167 C1163 0.950 . S
H1168 C1165 0.950 . S
C1169 C1160 1.390 . S
C1169 H1162 0.950 . S
C1169 C1166 1.387 . S
C1170 C1171 1.387 . S
C1170 H1174 0.950 . S
C1170 C1179 1.390 . S
C1171 C1170 1.387 . S
C1171 C1173 1.387 . S
H1172 C1179 0.950 . S
C1173 C1171 1.387 . S
C1173 C1175 1.390 . S
C1173 H1177 0.950 . S
H1174 C1170 0.950 . S
C1175 C1173 1.390 . S
C1175 C1176 1.387 . S
C1175 H1178 0.950 . S
C1176 C1175 1.387 . S
C1176 C1179 1.387 . S
H1177 C1173 0.950 . S
H1178 C1175 0.950 . S
C1179 C1170 1.390 . S
C1179 H1172 0.950 . S
C1179 C1176 1.387 . S
C1180 C1181 1.387 1_545 S
C1180 H1184 0.950 1_545 S
C1180 C1189 1.390 . S
C1181 C1180 1.387 1_565 S
C1181 C1183 1.387 1_565 S
H1182 C1189 0.950 . S
C1183 C1181 1.387 1_545 S
C1183 C1185 1.390 . S
C1183 H1187 0.950 . S
H1184 C1180 0.950 1_565 S
C1185 C1183 1.390 . S
C1185 C1186 1.387 . S
C1185 H1188 0.950 . S
C1186 C1185 1.387 . S
C1186 C1189 1.387 . S
H1187 C1183 0.950 . S
H1188 C1185 0.950 . S
C1189 C1180 1.390 . S
C1189 H1182 0.950 . S
C1189 C1186 1.387 . S
C1190 C1191 1.387 . S
C1190 H1194 0.950 . S
C1190 C1199 1.390 1_655 S
C1191 C1190 1.387 . S
C1191 C1193 1.387 1_655 S
H1192 C1199 0.950 . S
C1193 C1191 1.387 1_455 S
C1193 C1195 1.390 . S
C1193 H1197 0.950 . S
H1194 C1190 0.950 . S
C1195 C1193 1.390 . S
C1195 C1196 1.387 . S
C1195 H1198 0.950 . S
C1196 C1195 1.387 . S
C1196 C1199 1.387 . S
H1197 C1193 0.950 . S
H1198 C1195 0.950 . S
C1199 C1190 1.390 1_455 S
C1199 H1192 0.950 . S
C1199 C1196 1.387 . S
C1200 C1201 1.387 . S
C1200 H1204 0.950 . S
C1200 C1209 1.390 . S
C1201 C1200 1.387 . S
C1201 C1203 1.387 . S
H1202 C1209 0.950 . S
C1203 C1201 1.387 . S
C1203 C1205 1.390 . S
C1203 H1207 0.950 . S
H1204 C1200 0.950 . S
C1205 C1203 1.390 . S
C1205 C1206 1.387 . S
C1205 H1208 0.950 . S
C1206 C1205 1.387 . S
C1206 C1209 1.387 . S
H1207 C1203 0.950 . S
H1208 C1205 0.950 . S
C1209 C1200 1.390 . S
C1209 H1202 0.950 . S
C1209 C1206 1.387 . S
C1210 C1211 1.387 . S
C1210 H1214 0.950 . S
C1210 C1219 1.390 . S
C1211 C1210 1.387 . S
C1211 C1213 1.387 . S
H1212 C1219 0.950 . S
C1213 C1211 1.387 . S
C1213 C1215 1.390 1_545 S
C1213 H1217 0.950 . S
H1214 C1210 0.950 . S
C1215 C1213 1.390 1_565 S
C1215 C1216 1.387 . S
C1215 H1218 0.950 . S
C1216 C1215 1.387 . S
C1216 C1219 1.387 1_565 S
H1217 C1213 0.950 . S
H1218 C1215 0.950 . S
C1219 C1210 1.390 . S
C1219 H1212 0.950 . S
C1219 C1216 1.387 1_545 S
C1220 C1221 1.387 . S
C1220 H1224 0.950 . S
C1220 C1229 1.390 1_455 S
C1221 C1220 1.387 . S
C1221 C1223 1.387 . S
H1222 C1229 0.950 . S
C1223 C1221 1.387 . S
C1223 C1225 1.390 . S
C1223 H1227 0.950 . S
H1224 C1220 0.950 . S
C1225 C1223 1.390 . S
C1225 C1226 1.387 1_455 S
C1225 H1228 0.950 . S
C1226 C1225 1.387 1_655 S
C1226 C1229 1.387 . S
H1227 C1223 0.950 . S
H1228 C1225 0.950 . S
C1229 C1220 1.390 1_655 S
C1229 H1222 0.950 . S
C1229 C1226 1.387 . S
C1230 C1231 1.387 . S
C1230 H1234 0.950 . S
C1230 C1239 1.390 . S
C1231 C1230 1.387 . S
C1231 C1233 1.387 . S
H1232 C1239 0.950 . S
C1233 C1231 1.387 . S
C1233 C1235 1.390 . S
C1233 H1237 0.950 . S
H1234 C1230 0.950 . S
C1235 C1233 1.390 . S
C1235 C1236 1.387 . S
C1235 H1238 0.950 . S
C1236 C1235 1.387 . S
C1236 C1239 1.387 . S
H1237 C1233 0.950 . S
H1238 C1235 0.950 . S
C1239 C1230 1.390 . S
C1239 H1232 0.950 . S
C1239 C1236 1.387 . S
C1240 C1241 1.387 . S
C1240 H1244 0.950 . S
C1240 C1249 1.390 . S
C1241 C1240 1.387 . S
C1241 C1243 1.387 . S
H1242 C1249 0.950 . S
C1243 C1241 1.387 . S
C1243 C1245 1.390 . S
C1243 H1247 0.950 . S
H1244 C1240 0.950 . S
C1245 C1243 1.390 . S
C1245 C1246 1.387 . S
C1245 H1248 0.950 . S
C1246 C1245 1.387 . S
C1246 C1249 1.387 . S
H1247 C1243 0.950 . S
H1248 C1245 0.950 . S
C1249 C1240 1.390 . S
C1249 H1242 0.950 . S
C1249 C1246 1.387 . S
C1250 C1251 1.387 . S
C1250 H1254 0.950 . S
C1250 C1259 1.390 . S
C1251 C1250 1.387 . S
C1251 C1253 1.387 . S
H1252 C1259 0.950 . S
C1253 C1251 1.387 . S
C1253 C1255 1.390 . S
C1253 H1257 0.950 . S
H1254 C1250 0.950 . S
C1255 C1253 1.390 . S
C1255 C1256 1.387 . S
C1255 H1258 0.950 . S
C1256 C1255 1.387 . S
C1256 C1259 1.387 . S
H1257 C1253 0.950 . S
H1258 C1255 0.950 . S
C1259 C1250 1.390 . S
C1259 H1252 0.950 . S
C1259 C1256 1.387 . S
C721 C20 1.247 . S
C726 C84 1.256 . S
C731 C4 1.255 . S
C736 C60 1.247 . S
C741 C44 1.252 . S
C746 C100 1.243 . S
C751 C140 1.248 . S
C756 C164 1.257 . S
C761 C204 1.254 . S
C766 C180 1.245 . S
C771 C220 1.245 . S
C776 C124 1.254 . S
C781 C324 1.253 . S
C786 C260 1.245 . S
C791 C244 1.253 . S
C796 C300 1.244 . S
C801 C340 1.244 . S
C806 C284 1.252 . S
C811 C404 1.256 . S
C816 C380 1.248 . S
C821 C420 1.246 . S
C826 C444 1.254 . S
C831 C364 1.256 . S
C836 C460 1.247 . S
C841 C500 1.245 . S
C846 C564 1.254 . S
C851 C484 1.253 . S
C856 C540 1.244 . S
C861 C524 1.256 . S
C866 C580 1.248 . S
C871 C644 1.252 . S
C876 C620 1.244 . S
C881 C684 1.254 . S
C886 C660 1.245 . S
C891 C604 1.254 . S
C896 C700 1.246 . S
C901 C2 1.684 . S
C906 C202 1.684 . S
C911 C122 1.686 . S
C916 C42 1.688 . S
C921 C162 1.688 . S
C926 C82 1.687 . S
C931 C242 1.684 . S
C936 C442 1.684 . S
C941 C282 1.685 . S
C946 C362 1.684 . S
C951 C402 1.687 . S
C956 C322 1.686 . S
C961 C482 1.684 . S
C966 C682 1.684 . S
C971 C602 1.686 . S
C976 C522 1.684 . S
C981 C642 1.684 . S
C986 C562 1.685 . S
C991 C423 2.473 . S
C996 C23 2.472 1_565 S
C1001 C63 2.473 . S
C1006 C463 2.473 . S
C1011 C383 2.472 . S
C1016 C103 2.472 . S
C1021 C143 2.473 1_655 S
C1026 C583 2.473 . S
C1031 C183 2.473 . S
C1036 C503 2.473 . S
C1041 C543 2.472 . S
C1046 C223 2.472 . S
C1051 C663 2.472 . S
C1056 C263 2.471 . S
C1061 C303 2.473 . S
C1066 C703 2.473 . S
C1071 C343 2.471 . S
C1076 C623 2.471 . S
C1081 C105 1.749 . S
C1086 C31 1.744 . S
C1091 C25 1.749 . S
C1096 C71 1.745 . S
C1101 C111 1.744 . S
C1106 C65 1.748 . S
C1111 C185 1.748 . S
C1116 C151 1.744 . S
C1121 C225 1.750 . S
C1126 C191 1.745 . S
C1131 C231 1.744 . S
C1136 C145 1.748 . S
C1141 C345 1.748 . S
C1146 C271 1.744 . S
C1151 C311 1.745 . S
C1156 C265 1.749 . S
C1161 C305 1.748 . S
C1166 C351 1.744 . S
C1171 C391 1.746 . S
C1176 C425 1.750 . S
C1181 C431 1.746 . S
C1186 C465 1.750 . S
C1191 C385 1.749 . S
C1196 C471 1.745 . S
C1201 C511 1.746 . S
C1206 C585 1.750 . S
C1211 C551 1.746 . S
C1216 C505 1.750 . S
C1221 C545 1.748 . S
C1226 C591 1.744 . S
C1231 C631 1.746 . S
C1236 C665 1.750 . S
C1241 C671 1.744 . S
C1246 C705 1.748 . S
C1251 C625 1.749 . S
C1256 C711 1.744 . S
