# Generated by pormake.
# Topology ukf, (4)-cn, num edge types: 1
# Building blocks:
#     Node 0, Type 0, BuildingBlock: GALJAG_clean_sbu_0, # of connection points: 4
#     Node 1, Type 0, BuildingBlock: GALJAG_clean_sbu_0, # of connection points: 4
#     Node 2, Type 0, BuildingBlock: GALJAG_clean_sbu_0, # of connection points: 4
#     Node 3, Type 0, BuildingBlock: GALJAG_clean_sbu_0, # of connection points: 4
#     Node 4, Type 0, BuildingBlock: GALJAG_clean_sbu_0, # of connection points: 4
#     Node 5, Type 0, BuildingBlock: GALJAG_clean_sbu_0, # of connection points: 4
#     Node 6, Type 0, BuildingBlock: GALJAG_clean_sbu_0, # of connection points: 4
#     Node 7, Type 0, BuildingBlock: GALJAG_clean_sbu_0, # of connection points: 4
#     Node 8, Type 0, BuildingBlock: GALJAG_clean_sbu_0, # of connection points: 4
#     Node 9, Type 0, BuildingBlock: GALJAG_clean_sbu_0, # of connection points: 4
#     Node 10, Type 0, BuildingBlock: GALJAG_clean_sbu_0, # of connection points: 4
#     Node 11, Type 0, BuildingBlock: GALJAG_clean_sbu_0, # of connection points: 4
#     Edge 12, Type (0, 0), BuildingBlock: XUDNAN_clean_linker_2, # of connection points: 2
#     Edge 13, Type (0, 0), BuildingBlock: XUDNAN_clean_linker_2, # of connection points: 2
#     Edge 14, Type (0, 0), BuildingBlock: XUDNAN_clean_linker_2, # of connection points: 2
#     Edge 15, Type (0, 0), BuildingBlock: XUDNAN_clean_linker_2, # of connection points: 2
#     Edge 16, Type (0, 0), BuildingBlock: XUDNAN_clean_linker_2, # of connection points: 2
#     Edge 17, Type (0, 0), BuildingBlock: XUDNAN_clean_linker_2, # of connection points: 2
#     Edge 18, Type (0, 0), BuildingBlock: XUDNAN_clean_linker_2, # of connection points: 2
#     Edge 19, Type (0, 0), BuildingBlock: XUDNAN_clean_linker_2, # of connection points: 2
#     Edge 20, Type (0, 0), BuildingBlock: XUDNAN_clean_linker_2, # of connection points: 2
#     Edge 21, Type (0, 0), BuildingBlock: XUDNAN_clean_linker_2, # of connection points: 2
#     Edge 22, Type (0, 0), BuildingBlock: XUDNAN_clean_linker_2, # of connection points: 2
#     Edge 23, Type (0, 0), BuildingBlock: XUDNAN_clean_linker_2, # of connection points: 2
#     Edge 24, Type (0, 0), BuildingBlock: XUDNAN_clean_linker_2, # of connection points: 2
#     Edge 25, Type (0, 0), BuildingBlock: XUDNAN_clean_linker_2, # of connection points: 2
#     Edge 26, Type (0, 0), BuildingBlock: XUDNAN_clean_linker_2, # of connection points: 2
#     Edge 27, Type (0, 0), BuildingBlock: XUDNAN_clean_linker_2, # of connection points: 2
#     Edge 28, Type (0, 0), BuildingBlock: XUDNAN_clean_linker_2, # of connection points: 2
#     Edge 29, Type (0, 0), BuildingBlock: XUDNAN_clean_linker_2, # of connection points: 2
#     Edge 30, Type (0, 0), BuildingBlock: XUDNAN_clean_linker_2, # of connection points: 2
#     Edge 31, Type (0, 0), BuildingBlock: XUDNAN_clean_linker_2, # of connection points: 2
#     Edge 32, Type (0, 0), BuildingBlock: XUDNAN_clean_linker_2, # of connection points: 2
#     Edge 33, Type (0, 0), BuildingBlock: XUDNAN_clean_linker_2, # of connection points: 2
#     Edge 34, Type (0, 0), BuildingBlock: XUDNAN_clean_linker_2, # of connection points: 2
#     Edge 35, Type (0, 0), BuildingBlock: XUDNAN_clean_linker_2, # of connection points: 2
# Relax obj value: 0.079
# Max RMSD: 0.071
# Mean RMSD: 0.071
data_MOF--net-ukf--node1-GALJAG_clean_sbu_0--edge1-XUDNAN_clean_linker_2
_symmetry_space_group_name_H-M    P1
_symmetry_Int_Tables_number       1
_symmetry_cell_setting            triclinic
loop_
_symmetry_equiv_pos_as_xyz
'x, y, z'
_cell_length_a     31.61542
_cell_length_b     31.496514
_cell_length_c     68.47481
_cell_angle_alpha  89.920003
_cell_angle_beta   90.141363
_cell_angle_gamma 120.14743
loop_
_atom_site_label
_atom_site_type_symbol
_atom_site_fract_x
_atom_site_fract_y
_atom_site_fract_z
_atom_type_partial_charge
In0 In 0.42851 0.2401 0.06278 0.0
O1 O 0.45673 0.21677 0.08859 0.0
O2 O 0.39743 0.22873 0.09409 0.0
C3 C 0.48961 0.24128 0.03546 0.0
C4 C 0.46713 0.33907 0.06291 0.0
C5 C 0.35038 0.15996 0.04723 0.0
O6 O 0.49353 0.23334 0.0533 0.0
O7 O 0.45533 0.24953 0.03147 0.0
O8 O 0.34839 0.19837 0.05101 0.0
O9 O 0.38973 0.16197 0.05214 0.0
C10 C 0.42761 0.21737 0.10098 0.0
O11 O 0.42294 0.31056 0.05797 0.0
O12 O 0.4896 0.31738 0.06809 0.0
In13 In 0.18874 0.4208 0.39628 0.0
O14 O 0.13777 0.43085 0.37553 0.0
O15 O 0.11833 0.42056 0.40534 0.0
C16 C 0.2032 0.35038 0.38014 0.0
C17 C 0.20928 0.42355 0.43476 0.0
C18 C 0.25563 0.50686 0.38049 0.0
O19 O 0.16066 0.3421 0.38412 0.0
O20 O 0.237 0.39221 0.38517 0.0
O21 O 0.24183 0.50312 0.398 0.0
O22 O 0.23558 0.46722 0.37096 0.0
C23 C 0.10951 0.43042 0.38852 0.0
O24 O 0.23432 0.4577 0.42293 0.0
O25 O 0.17354 0.38602 0.42714 0.0
In26 In 0.78077 0.17969 0.72153 0.0
O27 O 0.70754 0.15785 0.70735 0.0
O28 O 0.71004 0.10321 0.72434 0.0
C29 C 0.85338 0.17696 0.70152 0.0
C30 C 0.79619 0.17632 0.7603 0.0
C31 C 0.7946 0.26803 0.71045 0.0
O32 O 0.80867 0.14675 0.69828 0.0
O33 O 0.86101 0.20692 0.71512 0.0
O34 O 0.78851 0.25439 0.72808 0.0
O35 O 0.79506 0.23772 0.69858 0.0
C36 C 0.68424 0.11519 0.71423 0.0
O37 O 0.77647 0.19922 0.75325 0.0
O38 O 0.80755 0.15425 0.74783 0.0
In39 In 0.59904 0.78523 0.05992 0.0
O40 O 0.62982 0.73237 0.05925 0.0
O41 O 0.55529 0.70373 0.05206 0.0
C42 C 0.6742 0.85949 0.03988 0.0
C43 C 0.58833 0.78533 0.09928 0.0
C44 C 0.52983 0.80239 0.04552 0.0
O45 O 0.63905 0.82314 0.03153 0.0
O46 O 0.67325 0.8567 0.05827 0.0
O47 O 0.5638 0.83276 0.05645 0.0
O48 O 0.53056 0.76344 0.04207 0.0
C49 C 0.5895 0.69497 0.05479 0.0
O50 O 0.55307 0.76704 0.08745 0.0
O51 O 0.62989 0.8048 0.09135 0.0
In52 In 0.83439 0.60596 0.39777 0.0
O53 O 0.90943 0.62274 0.38641 0.0
O54 O 0.87171 0.56264 0.40593 0.0
C55 C 0.81819 0.67375 0.38054 0.0
C56 C 0.83047 0.62195 0.43633 0.0
C57 C 0.77237 0.53345 0.37394 0.0
O58 O 0.86099 0.68027 0.38227 0.0
O59 O 0.78506 0.63494 0.38836 0.0
O60 O 0.76176 0.53507 0.39165 0.0
O61 O 0.81405 0.56725 0.36877 0.0
C62 C 0.90857 0.58695 0.39521 0.0
O63 O 0.80224 0.58102 0.42838 0.0
O64 O 0.86027 0.6547 0.42482 0.0
In65 In 0.23591 0.81429 0.72969 0.0
O66 O 0.29201 0.8942 0.72115 0.0
O67 O 0.31893 0.84781 0.73003 0.0
C68 C 0.16178 0.81776 0.71102 0.0
C69 C 0.2304 0.80267 0.76896 0.0
C70 C 0.21592 0.72836 0.71343 0.0
O71 O 0.19452 0.81356 0.70231 0.0
O72 O 0.16772 0.82324 0.72929 0.0
O73 O 0.19371 0.7307 0.72832 0.0
O74 O 0.24873 0.76931 0.70695 0.0
C75 C 0.32896 0.88966 0.72415 0.0
O76 O 0.24193 0.77891 0.75748 0.0
O77 O 0.22097 0.8329 0.76067 0.0
In78 In 0.77804 0.60117 0.61804 0.0
O79 O 0.78367 0.57727 0.58695 0.0
O80 O 0.79788 0.65017 0.59112 0.0
C81 C 0.77677 0.53101 0.64101 0.0
C82 C 0.68385 0.5798 0.62077 0.0
C83 C 0.8596 0.67389 0.63518 0.0
O84 O 0.78754 0.53422 0.62308 0.0
O85 O 0.76567 0.56203 0.6469 0.0
O86 O 0.81803 0.66999 0.63728 0.0
O87 O 0.86011 0.64264 0.6238 0.0
C88 C 0.79507 0.61816 0.57928 0.0
O89 O 0.71942 0.62029 0.62642 0.0
O90 O 0.6959 0.55081 0.61335 0.0
In91 In 0.18393 0.78382 0.95133 0.0
O92 O 0.21825 0.77006 0.92483 0.0
O93 O 0.17112 0.79848 0.91937 0.0
C94 C 0.26267 0.79884 0.97213 0.0
C95 C 0.10564 0.69183 0.95438 0.0
C96 C 0.18327 0.8617 0.96808 0.0
O97 O 0.26546 0.82499 0.95772 0.0
O98 O 0.22023 0.764 0.97587 0.0
O99 O 0.15583 0.81836 0.97412 0.0
O100 O 0.20719 0.86467 0.95295 0.0
C101 C 0.19852 0.78394 0.91231 0.0
O102 O 0.10113 0.72886 0.95084 0.0
O103 O 0.14913 0.70166 0.95702 0.0
In104 In 0.42473 0.19377 0.28377 0.0
O105 O 0.46412 0.20234 0.25523 0.0
O106 O 0.38996 0.18465 0.25318 0.0
C107 C 0.5034 0.27512 0.29772 0.0
C108 C 0.43979 0.11956 0.29484 0.0
C109 C 0.35031 0.2028 0.29879 0.0
O110 O 0.49446 0.2679 0.27966 0.0
O111 O 0.47246 0.24171 0.30861 0.0
O112 O 0.34952 0.16224 0.29915 0.0
O113 O 0.38638 0.2366 0.28992 0.0
C114 C 0.42846 0.19323 0.24427 0.0
O115 O 0.45613 0.15927 0.30403 0.0
O116 O 0.41193 0.11503 0.28077 0.0
In117 In 0.23094 0.40577 0.61702 0.0
O118 O 0.23591 0.44977 0.59005 0.0
O119 O 0.225 0.37811 0.58551 0.0
C120 C 0.2021 0.46005 0.63735 0.0
C121 C 0.32672 0.43903 0.62594 0.0
C122 C 0.15453 0.31828 0.62814 0.0
O123 O 0.21799 0.47078 0.62009 0.0
O124 O 0.20023 0.42196 0.64412 0.0
O125 O 0.19481 0.33876 0.63725 0.0
O126 O 0.15408 0.34013 0.61276 0.0
C127 C 0.23082 0.41733 0.57796 0.0
O128 O 0.30143 0.39951 0.61662 0.0
O129 O 0.30322 0.45939 0.63121 0.0
In130 In 0.8211 0.23531 0.94085 0.0
O131 O 0.89447 0.30675 0.94857 0.0
O132 O 0.83491 0.31269 0.9377 0.0
C133 C 0.81792 0.15962 0.96131 0.0
C134 C 0.82951 0.21862 0.90266 0.0
C135 C 0.73871 0.22547 0.95635 0.0
O136 O 0.85026 0.2039 0.96447 0.0
O137 O 0.78921 0.15391 0.94745 0.0
O138 O 0.74214 0.21771 0.93849 0.0
O139 O 0.77661 0.23745 0.96641 0.0
C140 C 0.87816 0.33483 0.94396 0.0
O141 O 0.7937 0.2207 0.90955 0.0
O142 O 0.86178 0.22482 0.91508 0.0
In143 In 0.59335 0.82699 0.28131 0.0
O144 O 0.55438 0.78148 0.25479 0.0
O145 O 0.62597 0.84171 0.25016 0.0
C146 C 0.51902 0.77116 0.30554 0.0
C147 C 0.58272 0.90695 0.28365 0.0
C148 C 0.66302 0.81127 0.29728 0.0
O149 O 0.52235 0.75711 0.28865 0.0
O150 O 0.55317 0.81333 0.31018 0.0
O151 O 0.67296 0.85342 0.29144 0.0
O152 O 0.61955 0.77806 0.2942 0.0
C153 C 0.58801 0.80615 0.24275 0.0
O154 O 0.61651 0.90444 0.29253 0.0
O155 O 0.55661 0.87068 0.27285 0.0
H156 H 0.2717 0.94346 0.97135 0.0
H157 H 0.12263 0.87827 0.9921 0.0
H158 H 0.14688 0.95153 0.01309 0.0
H159 H 0.32509 0.98649 0.01756 0.0
H160 H 0.37777 0.04066 0.00815 0.0
H161 H 0.34668 0.9865 0.99322 0.0
H162 H 0.33482 0.03717 0.9661 0.0
H163 H 0.36589 0.09153 0.98098 0.0
H164 H 0.30522 0.0718 0.97189 0.0
H165 H 0.19048 0.03461 0.03225 0.0
H166 H 0.24917 0.11089 0.05006 0.0
H167 H 0.36908 0.11367 0.01851 0.0
C168 C 0.2438 0.94509 0.97994 0.0
C169 C 0.195 0.90592 0.97973 0.0
C170 C 0.16005 0.90838 0.99183 0.0
C171 C 0.17356 0.94985 1.00375 0.0
C172 C 0.22237 0.98786 1.0037 0.0
C173 C 0.25694 0.98516 0.99225 0.0
C174 C 0.30783 0.02757 0.99615 0.0
C175 C 0.34129 0.0092 1.00425 0.0
C176 C 0.3297 0.05887 0.97768 0.0
C177 C 0.29684 0.05508 0.01149 0.0
C178 C 0.24738 0.03246 0.01552 0.0
C179 C 0.22925 0.05231 0.02921 0.0
C180 C 0.26266 0.09567 0.03919 0.0
C181 C 0.31348 0.11776 0.03571 0.0
C182 C 0.33036 0.09726 0.02156 0.0
H183 H 0.28369 0.37644 0.35835 0.0
H184 H 0.14637 0.24955 0.37549 0.0
H185 H 0.167 0.19603 0.35578 0.0
H186 H 0.28132 0.33836 0.30876 0.0
H187 H 0.34669 0.36426 0.30772 0.0
H188 H 0.3209 0.39108 0.32349 0.0
H189 H 0.36597 0.38065 0.35317 0.0
H190 H 0.39208 0.35404 0.3375 0.0
H191 H 0.35741 0.32083 0.35866 0.0
H192 H 0.20745 0.15654 0.33507 0.0
H193 H 0.25977 0.13679 0.31431 0.0
H194 H 0.36549 0.2921 0.30943 0.0
C195 C 0.25795 0.33732 0.35809 0.0
C196 C 0.21373 0.31695 0.36865 0.0
C197 C 0.18061 0.26577 0.36757 0.0
C198 C 0.19207 0.23522 0.35643 0.0
C199 C 0.23629 0.25671 0.34618 0.0
C200 C 0.26827 0.30681 0.3468 0.0
C201 C 0.31278 0.32177 0.33424 0.0
C202 C 0.31555 0.35587 0.31756 0.0
C203 C 0.35982 0.34571 0.34664 0.0
C204 C 0.30154 0.27225 0.32657 0.0
C205 C 0.25757 0.23487 0.33366 0.0
C206 C 0.24154 0.18572 0.32926 0.0
C207 C 0.27138 0.17479 0.31746 0.0
C208 C 0.31625 0.21292 0.30999 0.0
C209 C 0.33091 0.26211 0.31454 0.0
H210 H 0.95143 0.23045 0.70905 0.0
H211 H 0.84655 0.1344 0.66584 0.0
H212 H 0.91448 0.15151 0.64334 0.0
H213 H 0.02925 0.32088 0.67732 0.0
H214 H 0.0851 0.33464 0.68968 0.0
H215 H 0.0289 0.30963 0.70316 0.0
H216 H 0.04035 0.2379 0.71511 0.0
H217 H 0.09678 0.26279 0.70163 0.0
H218 H 0.04886 0.20035 0.69749 0.0
H219 H 0.9928 0.19081 0.62367 0.0
H220 H 0.07503 0.24433 0.60951 0.0
H221 H 0.12925 0.30929 0.66636 0.0
C222 C 0.9428 0.21198 0.69504 0.0
C223 C 0.89371 0.18093 0.68921 0.0
C224 C 0.88389 0.15794 0.67068 0.0
C225 C 0.92227 0.16751 0.6578 0.0
C226 C 0.97028 0.1994 0.66382 0.0
C227 C 0.98064 0.22063 0.68215 0.0
C228 C 0.03494 0.25604 0.68467 0.0
C229 C 0.04511 0.30836 0.68895 0.0
C230 C 0.0565 0.23818 0.70068 0.0
C231 C 0.05345 0.25277 0.66467 0.0
C232 C 0.01564 0.21991 0.65281 0.0
C233 C 0.02292 0.2154 0.63299 0.0
C234 C 0.06967 0.24581 0.62506 0.0
C235 C 0.10868 0.27961 0.637 0.0
C236 C 0.10058 0.28217 0.65711 0.0
H237 H 0.66551 0.88671 1.00272 0.0
H238 H 0.76052 0.936 0.05348 0.0
H239 H 0.81292 0.01621 0.03747 0.0
H240 H 0.76075 0.9533 0.96519 0.0
H241 H 0.72133 0.96758 0.95105 0.0
H242 H 0.6955 0.91213 0.96539 0.0
H243 H 0.63962 0.938 0.9831 0.0
H244 H 0.66539 0.99354 0.96891 0.0
H245 H 0.66678 0.99672 0.9952 0.0
H246 H 0.85081 0.09407 0.01695 0.0
H247 H 0.86946 0.16246 0.99419 0.0
H248 H 0.74828 0.06258 0.95733 0.0
C249 C 0.69817 0.91384 0.01023 0.0
C250 C 0.70938 0.90477 0.02924 0.0
C251 C 0.75155 0.94189 0.03883 0.0
C252 C 0.78153 0.9876 0.02983 0.0
C253 C 0.7688 0.99581 0.01126 0.0
C254 C 0.72811 0.95984 1.00156 0.0
C255 C 0.71986 0.9792 0.98249 0.0
C256 C 0.72466 0.9514 0.96499 0.0
C257 C 0.66997 0.97672 0.98243 0.0
C258 C 0.76172 0.03186 0.9831 0.0
C259 C 0.78991 0.04068 0.99969 0.0
C260 C 0.82928 0.08735 1.00381 0.0
C261 C 0.83967 0.12601 0.99079 0.0
C262 C 0.81062 0.11793 0.9739 0.0
C263 C 0.77159 0.06996 0.96998 0.0
H264 H 0.64001 0.72846 0.31757 0.0
H265 H 0.7628 0.87121 0.30268 0.0
H266 H 0.81749 0.85291 0.32268 0.0
H267 H 0.67404 0.72841 0.36715 0.0
H268 H 0.65231 0.66343 0.36753 0.0
H269 H 0.62431 0.68749 0.35143 0.0
H270 H 0.64186 0.64761 0.32177 0.0
H271 H 0.66961 0.62313 0.3378 0.0
H272 H 0.70351 0.66087 0.31733 0.0
H273 H 0.85863 0.81613 0.34439 0.0
H274 H 0.88063 0.76662 0.36599 0.0
H275 H 0.72835 0.65157 0.36742 0.0
C276 C 0.6785 0.75586 0.31832 0.0
C277 C 0.69729 0.80111 0.3084 0.0
C278 C 0.74773 0.83618 0.31007 0.0
C279 C 0.77897 0.82607 0.32141 0.0
C280 C 0.75898 0.781 0.33113 0.0
C281 C 0.70974 0.74669 0.32971 0.0
C282 C 0.69638 0.70161 0.34187 0.0
C283 C 0.6596 0.69487 0.35795 0.0
C284 C 0.6767 0.6556 0.32892 0.0
C285 C 0.74579 0.71554 0.35039 0.0
C286 C 0.78173 0.76121 0.34399 0.0
C287 C 0.83057 0.78053 0.34957 0.0
C288 C 0.84277 0.75227 0.36185 0.0
C289 C 0.80615 0.70557 0.36859 0.0
C290 C 0.75714 0.68747 0.36281 0.0
H291 H 0.95328 0.69224 0.63097 0.0
H292 H 0.86413 0.73183 0.66595 0.0
H293 H 0.93468 0.78024 0.68789 0.0
H294 H 0.01415 0.67408 0.66936 0.0
H295 H 0.07226 0.69906 0.65714 0.0
H296 H 0.01665 0.67249 0.64309 0.0
H297 H 0.04927 0.75342 0.6235 0.0
H298 H 0.10521 0.78024 0.63746 0.0
H299 H 0.06958 0.81038 0.63636 0.0
H300 H 0.01243 0.81528 0.70842 0.0
H301 H 0.09135 0.83741 0.72441 0.0
H302 H 0.12989 0.77779 0.67499 0.0
C303 C 0.94887 0.71202 0.64298 0.0
C304 C 0.90325 0.70844 0.6467 0.0
C305 C 0.89886 0.7344 0.66271 0.0
C306 C 0.93873 0.76191 0.67528 0.0
C307 C 0.98293 0.76366 0.67147 0.0
C308 C 0.98832 0.7399 0.65553 0.0
C309 C 0.03865 0.74521 0.65516 0.0
C310 C 0.03519 0.69472 0.65626 0.0
C311 C 0.06738 0.77404 0.63704 0.0
C312 C 0.06038 0.77453 0.67366 0.0
C313 C 0.02784 0.78497 0.6829 0.0
C314 C 0.03855 0.8082 0.70109 0.0
C315 C 0.0834 0.82061 0.71008 0.0
C316 C 0.11707 0.81008 0.70081 0.0
C317 C 0.10547 0.78745 0.68224 0.0
H318 H 0.71929 0.23007 0.99484 0.0
H319 H 0.65977 0.21735 0.93657 0.0
H320 H 0.58898 0.21995 0.95047 0.0
H321 H 0.60286 0.15398 0.019 0.0
H322 H 0.62124 0.19107 0.0408 0.0
H323 H 0.66634 0.187 0.02617 0.0
H324 H 0.71539 0.28188 0.02316 0.0
H325 H 0.67026 0.28623 0.03764 0.0
H326 H 0.68558 0.31364 0.01369 0.0
H327 H 0.52713 0.22837 0.97068 0.0
H328 H 0.47556 0.23597 0.99596 0.0
H329 H 0.57476 0.24056 0.04092 0.0
C330 C 0.69118 0.22747 0.98502 0.0
C331 C 0.69489 0.22359 0.96465 0.0
C332 C 0.65742 0.22019 0.95224 0.0
C333 C 0.61723 0.22178 0.95999 0.0
C334 C 0.61501 0.22633 0.98015 0.0
C335 C 0.65072 0.22857 0.9925 0.0
C336 C 0.63975 0.23334 0.01361 0.0
C337 C 0.63208 0.18868 0.0256 0.0
C338 C 0.68015 0.28165 0.02254 0.0
C339 C 0.59252 0.23393 0.01119 0.0
C340 C 0.57895 0.2301 0.99178 0.0
C341 C 0.5372 0.23107 0.98594 0.0
C342 C 0.50831 0.23562 1.00036 0.0
C343 C 0.52125 0.23876 0.02033 0.0
C344 C 0.56392 0.23798 0.02575 0.0
H345 H 0.29258 0.52231 0.34354 0.0
H346 H 0.30425 0.59649 0.39837 0.0
H347 H 0.37047 0.67395 0.38449 0.0
H348 H 0.41882 0.58117 0.33366 0.0
H349 H 0.41232 0.58499 0.30766 0.0
H350 H 0.36367 0.53644 0.32147 0.0
H351 H 0.30296 0.56242 0.30838 0.0
H352 H 0.35146 0.61106 0.29449 0.0
H353 H 0.31672 0.62491 0.31154 0.0
H354 H 0.43832 0.74178 0.36525 0.0
H355 H 0.50283 0.79541 0.34194 0.0
H356 H 0.44609 0.67648 0.29977 0.0
C357 C 0.30869 0.55498 0.35256 0.0
C358 C 0.29336 0.55359 0.37199 0.0
C359 C 0.3155 0.59692 0.3834 0.0
C360 C 0.35302 0.64103 0.37565 0.0
C361 C 0.36766 0.64103 0.35648 0.0
C362 C 0.34608 0.59919 0.34506 0.0
C363 C 0.36976 0.60847 0.32516 0.0
C364 C 0.39249 0.57584 0.3218 0.0
C365 C 0.33303 0.6013 0.30894 0.0
C366 C 0.40863 0.66188 0.32728 0.0
C367 C 0.40666 0.68009 0.3454 0.0
C368 C 0.43999 0.72809 0.35096 0.0
C369 C 0.47648 0.75819 0.33765 0.0
C370 C 0.47925 0.74004 0.31908 0.0
C371 C 0.44461 0.69141 0.31383 0.0
H372 H 0.80807 0.30443 0.67326 0.0
H373 H 0.78378 0.33359 0.73289 0.0
H374 H 0.77836 0.40518 0.72152 0.0
H375 H 0.88187 0.43333 0.65819 0.0
H376 H 0.85593 0.42129 0.63398 0.0
H377 H 0.8609 0.37425 0.64702 0.0
H378 H 0.76791 0.31487 0.6424 0.0
H379 H 0.76253 0.36182 0.62953 0.0
H380 H 0.72525 0.33303 0.65072 0.0
H381 H 0.76984 0.46947 0.70353 0.0
H382 H 0.76391 0.52618 0.68037 0.0
H383 H 0.79503 0.45635 0.63229 0.0
C384 C 0.80234 0.32632 0.68396 0.0
C385 C 0.79643 0.31361 0.70397 0.0
C386 C 0.78865 0.34289 0.71751 0.0
C387 C 0.78541 0.3835 0.71119 0.0
C388 C 0.79039 0.39444 0.6913 0.0
C389 C 0.79922 0.36708 0.6779 0.0
C390 C 0.80206 0.38607 0.65731 0.0
C391 C 0.85324 0.40486 0.64862 0.0
C392 C 0.76205 0.34659 0.64423 0.0
C393 C 0.79259 0.42788 0.6612 0.0
C394 C 0.78598 0.43201 0.68091 0.0
C395 C 0.77539 0.46691 0.68808 0.0
C396 C 0.7719 0.49881 0.67479 0.0
C397 C 0.77908 0.49568 0.65453 0.0
C398 C 0.78952 0.45967 0.64769 0.0
H399 H 0.28064 0.73305 0.99096 0.0
H400 H 0.34154 0.88844 0.97959 0.0
H401 H 0.41449 0.90696 0.99934 0.0
H402 H 0.32711 0.74279 0.04045 0.0
H403 H 0.3409 0.69429 0.03704 0.0
H404 H 0.2916 0.69365 0.02353 0.0
H405 H 0.3309 0.68884 0.99104 0.0
H406 H 0.38017 0.68931 1.00444 0.0
H407 H 0.39334 0.73468 0.98577 0.0
H408 H 0.48062 0.90829 0.02028 0.0
H409 H 0.5395 0.89182 0.0378 0.0
H410 H 0.4383 0.73525 0.03303 0.0
C411 C 0.30917 0.77094 0.99286 0.0
C412 C 0.30564 0.80944 0.98399 0.0
C413 C 0.34389 0.85855 0.98634 0.0
C414 C 0.38519 0.8694 0.9976 0.0
C415 C 0.38783 0.83058 0.0061 0.0
C416 C 0.35117 0.7823 1.00364 0.0
C417 C 0.36474 0.74719 0.01299 0.0
C418 C 0.32896 0.71775 0.02948 0.0
C419 C 0.36746 0.71301 0.99764 0.0
C420 C 0.41484 0.78325 0.02099 0.0
C421 C 0.4271 0.8312 0.0172 0.0
C422 C 0.47149 0.87091 0.0233 0.0
C423 C 0.50457 0.86126 0.03327 0.0
C424 C 0.4933 0.81235 0.03664 0.0
C425 C 0.44778 0.77299 0.03054 0.0
H426 H 0.52379 0.30337 0.33591 0.0
H427 H 0.58259 0.34342 0.27726 0.0
H428 H 0.65839 0.41305 0.29065 0.0
H429 H 0.57344 0.42755 0.35376 0.0
H430 H 0.58578 0.4132 0.37785 0.0
H431 H 0.53624 0.36666 0.3636 0.0
H432 H 0.57316 0.30991 0.3674 0.0
H433 H 0.62302 0.35641 0.38153 0.0
H434 H 0.63543 0.33182 0.35995 0.0
H435 H 0.72815 0.47602 0.31034 0.0
H436 H 0.7861 0.53262 0.33483 0.0
H437 H 0.68122 0.45334 0.38082 0.0
C438 C 0.55257 0.32692 0.32589 0.0
C439 C 0.54754 0.31809 0.30556 0.0
C440 C 0.58579 0.34971 0.29288 0.0
C441 C 0.62895 0.38918 0.30035 0.0
C442 C 0.63295 0.39657 0.32049 0.0
C443 C 0.59567 0.36668 0.33308 0.0
C444 C 0.60907 0.3831 0.35409 0.0
C445 C 0.57405 0.39856 0.36283 0.0
C446 C 0.61024 0.34291 0.36647 0.0
C447 C 0.65989 0.42682 0.35136 0.0
C448 C 0.67296 0.43366 0.33186 0.0
C449 C 0.71829 0.47121 0.32564 0.0
C450 C 0.75098 0.50304 0.33969 0.0
C451 C 0.73809 0.49735 0.35972 0.0
C452 C 0.69201 0.45855 0.36561 0.0
H453 H 0.23482 0.55773 0.6324 0.0
H454 H 0.14581 0.43367 0.67009 0.0
H455 H 0.13466 0.48839 0.69269 0.0
H456 H 0.2989 0.63981 0.66989 0.0
H457 H 0.30248 0.69291 0.65826 0.0
H458 H 0.29779 0.64332 0.64363 0.0
H459 H 0.22068 0.63463 0.62643 0.0
H460 H 0.22543 0.68462 0.64089 0.0
H461 H 0.16949 0.62614 0.64094 0.0
H462 H 0.13818 0.5573 0.71227 0.0
H463 H 0.15725 0.63585 0.72775 0.0
H464 H 0.24729 0.71525 0.67801 0.0
C465 C 0.21192 0.54197 0.64514 0.0
C466 C 0.19069 0.49155 0.64946 0.0
C467 C 0.1621 0.47227 0.66653 0.0
C468 C 0.15551 0.503 0.6794 0.0
C469 C 0.17801 0.55287 0.67501 0.0
C470 C 0.20559 0.57226 0.65829 0.0
C471 C 0.22929 0.62762 0.65782 0.0
C472 C 0.28543 0.65235 0.65738 0.0
C473 C 0.21006 0.64422 0.64049 0.0
C474 C 0.21155 0.6364 0.67707 0.0
C475 C 0.18145 0.59279 0.68663 0.0
C476 C 0.16144 0.59168 0.70487 0.0
C477 C 0.17255 0.63641 0.71356 0.0
C478 C 0.20385 0.68147 0.70409 0.0
C479 C 0.22337 0.68131 0.6856 0.0
H480 H 0.36995 0.21605 0.1317 0.0
H481 H 0.49388 0.1979 0.11771 0.0
H482 H 0.50471 0.18679 0.15253 0.0
H483 H 0.4189 0.28407 0.17555 0.0
H484 H 0.36193 0.25533 0.18875 0.0
H485 H 0.36173 0.25961 0.16253 0.0
H486 H 0.30484 0.16539 0.16013 0.0
H487 H 0.30475 0.16083 0.18638 0.0
H488 H 0.32293 0.12539 0.17161 0.0
H489 H 0.50651 0.18331 0.18846 0.0
H490 H 0.4966 0.18351 0.22409 0.0
H491 H 0.36969 0.20055 0.21595 0.0
C492 C 0.39898 0.20921 0.13599 0.0
C493 C 0.43107 0.20784 0.12195 0.0
C494 C 0.46878 0.19904 0.12815 0.0
C495 C 0.47528 0.19267 0.14792 0.0
C496 C 0.44355 0.19477 0.1614 0.0
C497 C 0.40585 0.20238 0.1558 0.0
C498 C 0.37765 0.20372 0.17351 0.0
C499 C 0.38023 0.25366 0.17518 0.0
C500 C 0.32438 0.1613 0.17287 0.0
C501 C 0.40605 0.19657 0.18988 0.0
C502 C 0.44389 0.19154 0.18245 0.0
C503 C 0.47671 0.18667 0.19449 0.0
C504 C 0.47086 0.18701 0.21471 0.0
C505 C 0.43227 0.1918 0.22278 0.0
C506 C 0.39917 0.19626 0.21017 0.0
H507 H 0.1733 0.35304 0.46404 0.0
H508 H 0.26874 0.50893 0.45337 0.0
H509 H 0.28466 0.52313 0.48856 0.0
H510 H 0.12093 0.36433 0.50867 0.0
H511 H 0.12034 0.31301 0.52062 0.0
H512 H 0.11622 0.31406 0.4944 0.0
H513 H 0.19166 0.30285 0.49122 0.0
H514 H 0.19591 0.30159 0.51744 0.0
H515 H 0.24788 0.34526 0.50341 0.0
H516 H 0.28633 0.5224 0.52452 0.0
H517 H 0.27971 0.50539 0.55987 0.0
H518 H 0.18846 0.3495 0.54826 0.0
C519 C 0.19771 0.39002 0.46917 0.0
C520 C 0.21968 0.42989 0.45595 0.0
C521 C 0.25158 0.47778 0.46318 0.0
C522 C 0.26081 0.48632 0.48317 0.0
C523 C 0.23844 0.44652 0.49582 0.0
C524 C 0.20809 0.3992 0.4892 0.0
C525 C 0.1895 0.36319 0.50615 0.0
C526 C 0.13342 0.33712 0.50753 0.0
C527 C 0.20731 0.32603 0.50445 0.0
C528 C 0.21368 0.39791 0.52323 0.0
C529 C 0.24134 0.44583 0.51684 0.0
C530 C 0.26532 0.485 0.52974 0.0
C531 C 0.26118 0.475 0.54977 0.0
C532 C 0.23394 0.4262 0.55672 0.0
C533 C 0.21006 0.38709 0.54327 0.0
H534 H 0.7785 0.2293 0.87284 0.0
H535 H 0.88758 0.18787 0.88512 0.0
H536 H 0.88983 0.17034 0.84994 0.0
H537 H 0.7126 0.1402 0.8358 0.0
H538 H 0.70211 0.18148 0.82104 0.0
H539 H 0.7088 0.18985 0.84711 0.0
H540 H 0.77936 0.27935 0.84222 0.0
H541 H 0.77273 0.27135 0.81614 0.0
H542 H 0.83122 0.29091 0.82745 0.0
H543 H 0.87745 0.1548 0.81325 0.0
H544 H 0.85697 0.14936 0.77805 0.0
H545 H 0.75927 0.20529 0.79016 0.0
C546 C 0.80284 0.21647 0.86815 0.0
C547 C 0.83265 0.20959 0.88168 0.0
C548 C 0.86445 0.19335 0.87495 0.0
C549 C 0.86582 0.18317 0.85504 0.0
C550 C 0.83561 0.19005 0.84208 0.0
C551 C 0.80518 0.20691 0.84837 0.0
C552 C 0.77747 0.21284 0.83153 0.0
C553 C 0.72196 0.17907 0.83403 0.0
C554 C 0.79102 0.26682 0.8292 0.0
C555 C 0.79669 0.19632 0.81473 0.0
C556 C 0.82987 0.18288 0.82107 0.0
C557 C 0.85174 0.16552 0.80813 0.0
C558 C 0.83977 0.16238 0.7882 0.0
C559 C 0.80669 0.17705 0.7814 0.0
C560 C 0.78488 0.19404 0.79491 0.0
H561 H 0.65545 0.83661 0.12848 0.0
H562 H 0.50356 0.72622 0.1183 0.0
H563 H 0.48883 0.71818 0.15375 0.0
H564 H 0.6728 0.78298 0.17258 0.0
H565 H 0.70997 0.84109 0.18461 0.0
H566 H 0.70976 0.83751 0.15834 0.0
H567 H 0.68511 0.90433 0.15596 0.0
H568 H 0.68539 0.90822 0.18221 0.0
H569 H 0.63138 0.89557 0.16864 0.0
H570 H 0.48982 0.72085 0.18974 0.0
H571 H 0.50484 0.738 0.22485 0.0
H572 H 0.6553 0.84944 0.21278 0.0
C573 C 0.6192 0.81068 0.13378 0.0
C574 C 0.58064 0.78188 0.12065 0.0
C575 C 0.53359 0.74869 0.12808 0.0
C576 C 0.52488 0.74371 0.14819 0.0
C577 C 0.56349 0.77249 0.16075 0.0
C578 C 0.60963 0.80566 0.15393 0.0
C579 C 0.64395 0.83328 0.17075 0.0
C580 C 0.68665 0.82309 0.17162 0.0
C581 C 0.66254 0.88863 0.1693 0.0
C582 C 0.60975 0.81037 0.18802 0.0
C583 C 0.5637 0.77507 0.1818 0.0
C584 C 0.52568 0.74847 0.19482 0.0
C585 C 0.53467 0.75848 0.21476 0.0
C586 C 0.58122 0.79511 0.22159 0.0
C587 C 0.61936 0.82124 0.208 0.0
H588 H 0.77072 0.55149 0.54937 0.0
H589 H 0.84089 0.70761 0.56144 0.0
H590 H 0.85766 0.72539 0.52627 0.0
H591 H 0.8509 0.55838 0.51065 0.0
H592 H 0.80274 0.5108 0.49619 0.0
H593 H 0.79707 0.51025 0.52237 0.0
H594 H 0.71461 0.50849 0.51877 0.0
H595 H 0.72005 0.50907 0.49257 0.0
H596 H 0.71206 0.55543 0.50459 0.0
H597 H 0.86905 0.72646 0.48998 0.0
H598 H 0.87015 0.71058 0.45471 0.0
H599 H 0.78859 0.55374 0.46572 0.0
C600 C 0.78975 0.5894 0.54459 0.0
C601 C 0.80476 0.62823 0.55814 0.0
C602 C 0.82908 0.67732 0.55131 0.0
C603 C 0.83884 0.68778 0.53137 0.0
C604 C 0.82355 0.64873 0.51838 0.0
C605 C 0.79916 0.6005 0.52466 0.0
C606 C 0.78559 0.56538 0.50756 0.0
C607 C 0.81058 0.53438 0.5093 0.0
C608 C 0.72976 0.53267 0.50577 0.0
C609 C 0.80645 0.60143 0.49072 0.0
C610 C 0.82851 0.64932 0.49733 0.0
C611 C 0.85159 0.68911 0.48461 0.0
C612 C 0.8521 0.67974 0.46462 0.0
C613 C 0.82919 0.63099 0.45747 0.0
C614 C 0.80595 0.5914 0.47075 0.0
H615 H 0.17452 0.8259 0.88182 0.0
H616 H 0.24113 0.73755 0.89496 0.0
H617 H 0.25558 0.73296 0.85994 0.0
H618 H 0.11473 0.76431 0.83691 0.0
H619 H 0.1267 0.8197 0.82445 0.0
H620 H 0.12056 0.8158 0.85064 0.0
H621 H 0.20569 0.89398 0.85418 0.0
H622 H 0.2121 0.89811 0.828 0.0
H623 H 0.25811 0.89597 0.84288 0.0
H624 H 0.26204 0.73632 0.82402 0.0
H625 H 0.263 0.7499 0.78862 0.0
H626 H 0.19501 0.83865 0.79769 0.0
C627 C 0.19201 0.80552 0.87727 0.0
C628 C 0.20661 0.78196 0.89113 0.0
C629 C 0.22972 0.75595 0.88464 0.0
C630 C 0.23803 0.75304 0.86476 0.0
C631 C 0.22339 0.77666 0.85149 0.0
C632 C 0.20113 0.80265 0.85737 0.0
C633 C 0.19005 0.82536 0.83991 0.0
C634 C 0.13472 0.80506 0.83786 0.0
C635 C 0.21817 0.8817 0.84133 0.0
C636 C 0.20936 0.80776 0.82336 0.0
C637 C 0.22819 0.77956 0.83048 0.0
C638 C 0.24758 0.75847 0.81824 0.0
C639 C 0.24788 0.76638 0.79813 0.0
C640 C 0.22919 0.79542 0.79037 0.0
C641 C 0.20975 0.81648 0.8032 0.0
H642 H 0.50315 0.6089 0.04838 0.0
H643 H 0.65682 0.66619 0.06146 0.0
H644 H 0.64164 0.58141 0.06426 0.0
H645 H 0.45648 0.50917 0.0817 0.0
H646 H 0.40738 0.46674 0.0661 0.0
H647 H 0.43042 0.53171 0.06388 0.0
H648 H 0.44768 0.52816 0.02715 0.0
H649 H 0.4243 0.46306 0.0292 0.0
H650 H 0.48498 0.5026 0.01981 0.0
H651 H 0.60942 0.4915 0.06752 0.0
H652 H 0.56356 0.4015 0.06955 0.0
H653 H 0.42969 0.40036 0.05406 0.0
C654 C 0.53377 0.60361 0.05155 0.0
C655 C 0.58135 0.64427 0.05461 0.0
C656 C 0.62024 0.63573 0.05895 0.0
C657 C 0.61189 0.58768 0.06061 0.0
C658 C 0.56447 0.54851 0.05785 0.0
C659 C 0.52607 0.55582 0.05326 0.0
C660 C 0.4784 0.50715 0.05151 0.0
C661 C 0.44097 0.5035 0.0667 0.0
C662 C 0.45763 0.49982 0.03068 0.0
C663 C 0.49594 0.47128 0.05602 0.0
C664 C 0.54575 0.49617 0.05963 0.0
C665 C 0.5705 0.47163 0.06459 0.0
C666 C 0.54392 0.42033 0.06576 0.0
C667 C 0.49288 0.39361 0.06195 0.0
C668 C 0.46861 0.41962 0.057 0.0
H669 H 0.92888 0.52815 0.41824 0.0
H670 H 0.96693 0.60711 0.36322 0.0
H671 H 0.01785 0.57065 0.35467 0.0
H672 H 0.04959 0.54355 0.42711 0.0
H673 H 0.02541 0.48395 0.43826 0.0
H674 H 0.99193 0.51618 0.43982 0.0
H675 H 0.91626 0.44101 0.42464 0.0
H676 H 0.94983 0.40891 0.42269 0.0
H677 H 0.92183 0.41784 0.40131 0.0
H678 H 0.06032 0.52174 0.35128 0.0
H679 H 0.10345 0.47535 0.3555 0.0
H680 H 0.0424 0.43204 0.41369 0.0
C681 C 0.94839 0.53812 0.40449 0.0
C682 C 0.944 0.5704 0.39135 0.0
C683 C 0.97013 0.58276 0.37354 0.0
C684 C 0.99873 0.56187 0.36849 0.0
C685 C 1.00138 0.52928 0.38156 0.0
C686 C 0.97786 0.51835 0.39939 0.0
C687 C 0.98848 0.48384 0.41113 0.0
C688 C 0.01547 0.50836 0.43021 0.0
C689 C 0.94128 0.43501 0.41517 0.0
C690 C 0.02141 0.47682 0.39705 0.0
C691 C 0.02765 0.50272 0.37996 0.0
C692 C 0.05599 0.50161 0.36466 0.0
C693 C 0.08005 0.47479 0.36715 0.0
C694 C 0.07627 0.45 0.38492 0.0
C695 C 0.04578 0.45038 0.39991 0.0
H696 H 0.62143 0.02381 0.73011 0.0
H697 H 0.62506 0.13839 0.6936 0.0
H698 H 0.53508 0.09328 0.69212 0.0
H699 H 0.51664 0.92111 0.70564 0.0
H700 H 0.4918 0.88761 0.72803 0.0
H701 H 0.55683 0.92802 0.72564 0.0
H702 H 0.55673 0.9746 0.75678 0.0
H703 H 0.49166 0.93464 0.75916 0.0
H704 H 0.51701 1.00018 0.75796 0.0
H705 H 0.4446 0.03894 0.6963 0.0
H706 H 0.35945 0.97476 0.70363 0.0
H707 H 0.41354 0.89366 0.73638 0.0
C708 C 0.60326 0.03897 0.72158 0.0
C709 C 0.63039 0.08465 0.71195 0.0
C710 C 0.60518 0.10345 0.70107 0.0
C711 C 0.55398 0.07816 0.70017 0.0
C712 C 0.52826 0.03381 0.71012 0.0
C713 C 0.55192 0.01397 0.72042 0.0
C714 C 0.51527 0.96578 0.72991 0.0
C715 C 0.52045 0.9231 0.72181 0.0
C716 C 0.52049 0.96902 0.75228 0.0
C717 C 0.46753 0.96198 0.72343 0.0
C718 C 0.47588 1.0018 0.71214 0.0
C719 C 0.43755 0.00732 0.70498 0.0
C720 C 0.38934 0.97084 0.70929 0.0
C721 C 0.37989 0.92919 0.72048 0.0
C722 C 0.41963 0.92494 0.72765 0.0
H723 H 0.6014 0.49771 0.60717 0.0
H724 H 0.64925 0.6308 0.64093 0.0
H725 H 0.56308 0.6065 0.64713 0.0
H726 H 0.49796 0.49725 0.58447 0.0
H727 H 0.45964 0.43138 0.5852 0.0
H728 H 0.52508 0.45877 0.5837 0.0
H729 H 0.52426 0.4114 0.61478 0.0
H730 H 0.45884 0.38419 0.61648 0.0
H731 H 0.49714 0.41794 0.63687 0.0
H732 H 0.47263 0.56795 0.65 0.0
H733 H 0.38293 0.52094 0.64736 0.0
H734 H 0.392 0.41279 0.61112 0.0
C735 C 0.59371 0.52177 0.61584 0.0
C736 C 0.63208 0.56618 0.62361 0.0
C737 C 0.62052 0.59672 0.63481 0.0
C738 C 0.57168 0.5831 0.63848 0.0
C739 C 0.53477 0.53892 0.63078 0.0
C740 C 0.54506 0.50887 0.61954 0.0
C741 C 0.49833 0.46397 0.61258 0.0
C742 C 0.49507 0.4628 0.59016 0.0
C743 C 0.49443 0.41657 0.62067 0.0
C744 C 0.46014 0.47357 0.62164 0.0
C745 C 0.48217 0.51685 0.6322 0.0
C746 C 0.45497 0.53403 0.64177 0.0
C747 C 0.40393 0.50691 0.6402 0.0
C748 C 0.38032 0.46307 0.62906 0.0
C749 C 0.40892 0.44588 0.61987 0.0
H750 H 0.10857 0.60658 0.9592 0.0
H751 H 0.00876 0.66096 0.94851 0.0
H752 H 0.94023 0.57559 0.94575 0.0
H753 H 0.05491 0.50749 0.92548 0.0
H754 H 0.06382 0.46548 0.94044 0.0
H755 H 0.10479 0.53063 0.94272 0.0
H756 H 0.08641 0.52567 0.97974 0.0
H757 H 0.04553 0.46041 0.97761 0.0
H758 H 0.02394 0.49875 0.98785 0.0
H759 H 0.88367 0.48539 0.94245 0.0
H760 H 0.84122 0.39551 0.93967 0.0
H761 H 0.97666 0.39747 0.95276 0.0
C762 C 0.07217 0.60052 0.95652 0.0
C763 C 0.06397 0.64056 0.95414 0.0
C764 C 0.0159 0.631 0.95046 0.0
C765 C 0.97677 0.5826 0.94886 0.0
C766 C 0.98621 0.54407 0.95101 0.0
C767 C 0.03262 0.55235 0.95487 0.0
C768 C 0.03286 0.50423 0.95604 0.0
C769 C 0.06606 0.50184 0.94022 0.0
C770 C 0.04808 0.49684 0.97653 0.0
C771 C 0.97935 0.46757 0.95202 0.0
C772 C 0.95328 0.49158 0.94919 0.0
C773 C 0.90363 0.4662 0.94475 0.0
C774 C 0.87988 0.415 0.94316 0.0
C775 C 0.90549 0.38921 0.94602 0.0
C776 C 0.956 0.41602 0.9506 0.0
H777 H 0.51592 0.92258 0.26421 0.0
H778 H 0.61898 0.97649 0.31249 0.0
H779 H 0.58936 0.03289 0.3218 0.0
H780 H 0.52777 0.04036 0.25163 0.0
H781 H 0.46405 0.01366 0.24529 0.0
H782 H 0.49419 0.97841 0.24243 0.0
H783 H 0.42807 0.90988 0.26415 0.0
H784 H 0.39827 0.94536 0.2674 0.0
H785 H 0.41743 0.92467 0.2884 0.0
H786 H 0.5462 0.08071 0.32663 0.0
H787 H 0.50042 0.12487 0.32423 0.0
H788 H 0.42625 0.04114 0.27236 0.0
C789 C 0.53268 0.94669 0.2766 0.0
C790 C 0.56983 0.94524 0.28763 0.0
C791 C 0.59075 0.97725 0.30376 0.0
C792 C 0.57387 0.00909 0.30925 0.0
C793 C 0.53629 0.00866 0.29837 0.0
C794 C 0.51652 0.97893 0.28219 0.0
C795 C 0.47724 0.98634 0.27275 0.0
C796 C 0.49169 1.00587 0.25178 0.0
C797 C 0.4273 0.93872 0.27321 0.0
C798 C 0.47789 0.02486 0.28619 0.0
C799 C 0.51189 0.03679 0.30098 0.0
C800 C 0.51959 0.07176 0.31509 0.0
C801 C 0.49315 0.09643 0.31366 0.0
C802 C 0.45957 0.08633 0.29816 0.0
C803 C 0.45116 0.04925 0.28451 0.0
loop_
_geom_bond_atom_site_label_1
_geom_bond_atom_site_label_2
_geom_bond_distance
_geom_bond_site_symmetry_2
_ccdc_geom_bond_type
In0 O1 2.294 . S
In0 O2 2.326 . S
In0 O6 2.266 . S
In0 O7 2.326 . S
In0 O8 2.266 . S
In0 O9 2.326 . S
In0 O11 2.294 . S
In0 O12 2.326 . S
O1 In0 2.294 . S
O1 C10 1.240 . S
O2 In0 2.326 . S
O2 C10 1.252 . S
C3 O6 1.252 . S
C3 O7 1.260 . S
C4 O11 1.240 . S
C4 O12 1.252 . S
C5 O8 1.252 . S
C5 O9 1.260 . S
O6 In0 2.266 . S
O6 C3 1.252 . S
O7 In0 2.326 . S
O7 C3 1.260 . S
O8 In0 2.266 . S
O8 C5 1.252 . S
O9 In0 2.326 . S
O9 C5 1.260 . S
C10 O1 1.240 . S
C10 O2 1.252 . S
O11 In0 2.294 . S
O11 C4 1.240 . S
O12 In0 2.326 . S
O12 C4 1.252 . S
In13 O14 2.294 . S
In13 O15 2.326 . S
In13 O19 2.266 . S
In13 O20 2.326 . S
In13 O21 2.266 . S
In13 O22 2.326 . S
In13 O24 2.294 . S
In13 O25 2.326 . S
O14 In13 2.294 . S
O14 C23 1.240 . S
O15 In13 2.326 . S
O15 C23 1.252 . S
C16 O19 1.252 . S
C16 O20 1.260 . S
C17 O24 1.240 . S
C17 O25 1.252 . S
C18 O21 1.252 . S
C18 O22 1.260 . S
O19 In13 2.266 . S
O19 C16 1.252 . S
O20 In13 2.326 . S
O20 C16 1.260 . S
O21 In13 2.266 . S
O21 C18 1.252 . S
O22 In13 2.326 . S
O22 C18 1.260 . S
C23 O14 1.240 . S
C23 O15 1.252 . S
O24 In13 2.294 . S
O24 C17 1.240 . S
O25 In13 2.326 . S
O25 C17 1.252 . S
In26 O27 2.294 . S
In26 O28 2.326 . S
In26 O32 2.266 . S
In26 O33 2.326 . S
In26 O34 2.266 . S
In26 O35 2.326 . S
In26 O37 2.294 . S
In26 O38 2.326 . S
O27 In26 2.294 . S
O27 C36 1.240 . S
O28 In26 2.326 . S
O28 C36 1.252 . S
C29 O32 1.252 . S
C29 O33 1.260 . S
C30 O37 1.240 . S
C30 O38 1.252 . S
C31 O34 1.252 . S
C31 O35 1.260 . S
O32 In26 2.266 . S
O32 C29 1.252 . S
O33 In26 2.326 . S
O33 C29 1.260 . S
O34 In26 2.266 . S
O34 C31 1.252 . S
O35 In26 2.326 . S
O35 C31 1.260 . S
C36 O27 1.240 . S
C36 O28 1.252 . S
O37 In26 2.294 . S
O37 C30 1.240 . S
O38 In26 2.326 . S
O38 C30 1.252 . S
In39 O40 2.294 . S
In39 O41 2.326 . S
In39 O45 2.266 . S
In39 O46 2.326 . S
In39 O47 2.266 . S
In39 O48 2.326 . S
In39 O50 2.294 . S
In39 O51 2.326 . S
O40 In39 2.294 . S
O40 C49 1.240 . S
O41 In39 2.326 . S
O41 C49 1.252 . S
C42 O45 1.252 . S
C42 O46 1.260 . S
C43 O50 1.240 . S
C43 O51 1.252 . S
C44 O47 1.252 . S
C44 O48 1.260 . S
O45 In39 2.266 . S
O45 C42 1.252 . S
O46 In39 2.326 . S
O46 C42 1.260 . S
O47 In39 2.266 . S
O47 C44 1.252 . S
O48 In39 2.326 . S
O48 C44 1.260 . S
C49 O40 1.240 . S
C49 O41 1.252 . S
O50 In39 2.294 . S
O50 C43 1.240 . S
O51 In39 2.326 . S
O51 C43 1.252 . S
In52 O53 2.294 . S
In52 O54 2.326 . S
In52 O58 2.266 . S
In52 O59 2.326 . S
In52 O60 2.266 . S
In52 O61 2.326 . S
In52 O63 2.294 . S
In52 O64 2.326 . S
O53 In52 2.294 . S
O53 C62 1.240 . S
O54 In52 2.326 . S
O54 C62 1.252 . S
C55 O58 1.252 . S
C55 O59 1.260 . S
C56 O63 1.240 . S
C56 O64 1.252 . S
C57 O60 1.252 . S
C57 O61 1.260 . S
O58 In52 2.266 . S
O58 C55 1.252 . S
O59 In52 2.326 . S
O59 C55 1.260 . S
O60 In52 2.266 . S
O60 C57 1.252 . S
O61 In52 2.326 . S
O61 C57 1.260 . S
C62 O53 1.240 . S
C62 O54 1.252 . S
O63 In52 2.294 . S
O63 C56 1.240 . S
O64 In52 2.326 . S
O64 C56 1.252 . S
In65 O66 2.294 . S
In65 O67 2.326 . S
In65 O71 2.266 . S
In65 O72 2.326 . S
In65 O73 2.266 . S
In65 O74 2.326 . S
In65 O76 2.294 . S
In65 O77 2.326 . S
O66 In65 2.294 . S
O66 C75 1.240 . S
O67 In65 2.326 . S
O67 C75 1.252 . S
C68 O71 1.252 . S
C68 O72 1.260 . S
C69 O76 1.240 . S
C69 O77 1.252 . S
C70 O73 1.252 . S
C70 O74 1.260 . S
O71 In65 2.266 . S
O71 C68 1.252 . S
O72 In65 2.326 . S
O72 C68 1.260 . S
O73 In65 2.266 . S
O73 C70 1.252 . S
O74 In65 2.326 . S
O74 C70 1.260 . S
C75 O66 1.240 . S
C75 O67 1.252 . S
O76 In65 2.294 . S
O76 C69 1.240 . S
O77 In65 2.326 . S
O77 C69 1.252 . S
In78 O79 2.294 . S
In78 O80 2.326 . S
In78 O84 2.266 . S
In78 O85 2.326 . S
In78 O86 2.266 . S
In78 O87 2.326 . S
In78 O89 2.294 . S
In78 O90 2.326 . S
O79 In78 2.294 . S
O79 C88 1.240 . S
O80 In78 2.326 . S
O80 C88 1.252 . S
C81 O84 1.252 . S
C81 O85 1.260 . S
C82 O89 1.240 . S
C82 O90 1.252 . S
C83 O86 1.252 . S
C83 O87 1.260 . S
O84 In78 2.266 . S
O84 C81 1.252 . S
O85 In78 2.326 . S
O85 C81 1.260 . S
O86 In78 2.266 . S
O86 C83 1.252 . S
O87 In78 2.326 . S
O87 C83 1.260 . S
C88 O79 1.240 . S
C88 O80 1.252 . S
O89 In78 2.294 . S
O89 C82 1.240 . S
O90 In78 2.326 . S
O90 C82 1.252 . S
In91 O92 2.294 . S
In91 O93 2.326 . S
In91 O97 2.266 . S
In91 O98 2.326 . S
In91 O99 2.266 . S
In91 O100 2.326 . S
In91 O102 2.294 . S
In91 O103 2.326 . S
O92 In91 2.294 . S
O92 C101 1.240 . S
O93 In91 2.326 . S
O93 C101 1.252 . S
C94 O97 1.252 . S
C94 O98 1.260 . S
C95 O102 1.240 . S
C95 O103 1.252 . S
C96 O99 1.252 . S
C96 O100 1.260 . S
O97 In91 2.266 . S
O97 C94 1.252 . S
O98 In91 2.326 . S
O98 C94 1.260 . S
O99 In91 2.266 . S
O99 C96 1.252 . S
O100 In91 2.326 . S
O100 C96 1.260 . S
C101 O92 1.240 . S
C101 O93 1.252 . S
O102 In91 2.294 . S
O102 C95 1.240 . S
O103 In91 2.326 . S
O103 C95 1.252 . S
In104 O105 2.294 . S
In104 O106 2.326 . S
In104 O110 2.266 . S
In104 O111 2.326 . S
In104 O112 2.266 . S
In104 O113 2.326 . S
In104 O115 2.294 . S
In104 O116 2.326 . S
O105 In104 2.294 . S
O105 C114 1.240 . S
O106 In104 2.326 . S
O106 C114 1.252 . S
C107 O110 1.252 . S
C107 O111 1.260 . S
C108 O115 1.240 . S
C108 O116 1.252 . S
C109 O112 1.252 . S
C109 O113 1.260 . S
O110 In104 2.266 . S
O110 C107 1.252 . S
O111 In104 2.326 . S
O111 C107 1.260 . S
O112 In104 2.266 . S
O112 C109 1.252 . S
O113 In104 2.326 . S
O113 C109 1.260 . S
C114 O105 1.240 . S
C114 O106 1.252 . S
O115 In104 2.294 . S
O115 C108 1.240 . S
O116 In104 2.326 . S
O116 C108 1.252 . S
In117 O118 2.294 . S
In117 O119 2.326 . S
In117 O123 2.266 . S
In117 O124 2.326 . S
In117 O125 2.266 . S
In117 O126 2.326 . S
In117 O128 2.294 . S
In117 O129 2.326 . S
O118 In117 2.294 . S
O118 C127 1.240 . S
O119 In117 2.326 . S
O119 C127 1.252 . S
C120 O123 1.252 . S
C120 O124 1.260 . S
C121 O128 1.240 . S
C121 O129 1.252 . S
C122 O125 1.252 . S
C122 O126 1.260 . S
O123 In117 2.266 . S
O123 C120 1.252 . S
O124 In117 2.326 . S
O124 C120 1.260 . S
O125 In117 2.266 . S
O125 C122 1.252 . S
O126 In117 2.326 . S
O126 C122 1.260 . S
C127 O118 1.240 . S
C127 O119 1.252 . S
O128 In117 2.294 . S
O128 C121 1.240 . S
O129 In117 2.326 . S
O129 C121 1.252 . S
In130 O131 2.294 . S
In130 O132 2.326 . S
In130 O136 2.266 . S
In130 O137 2.326 . S
In130 O138 2.266 . S
In130 O139 2.326 . S
In130 O141 2.294 . S
In130 O142 2.326 . S
O131 In130 2.294 . S
O131 C140 1.240 . S
O132 In130 2.326 . S
O132 C140 1.252 . S
C133 O136 1.252 . S
C133 O137 1.260 . S
C134 O141 1.240 . S
C134 O142 1.252 . S
C135 O138 1.252 . S
C135 O139 1.260 . S
O136 In130 2.266 . S
O136 C133 1.252 . S
O137 In130 2.326 . S
O137 C133 1.260 . S
O138 In130 2.266 . S
O138 C135 1.252 . S
O139 In130 2.326 . S
O139 C135 1.260 . S
C140 O131 1.240 . S
C140 O132 1.252 . S
O141 In130 2.294 . S
O141 C134 1.240 . S
O142 In130 2.326 . S
O142 C134 1.252 . S
In143 O144 2.294 . S
In143 O145 2.326 . S
In143 O149 2.266 . S
In143 O150 2.326 . S
In143 O151 2.266 . S
In143 O152 2.326 . S
In143 O154 2.294 . S
In143 O155 2.326 . S
O144 In143 2.294 . S
O144 C153 1.240 . S
O145 In143 2.326 . S
O145 C153 1.252 . S
C146 O149 1.252 . S
C146 O150 1.260 . S
C147 O154 1.240 . S
C147 O155 1.252 . S
C148 O151 1.252 . S
C148 O152 1.260 . S
O149 In143 2.266 . S
O149 C146 1.252 . S
O150 In143 2.326 . S
O150 C146 1.260 . S
O151 In143 2.266 . S
O151 C148 1.252 . S
O152 In143 2.326 . S
O152 C148 1.260 . S
C153 O144 1.240 . S
C153 O145 1.252 . S
O154 In143 2.294 . S
O154 C147 1.240 . S
O155 In143 2.326 . S
O155 C147 1.252 . S
H156 C168 0.930 . S
H157 C170 0.930 . S
H158 C171 0.930 . S
H159 C175 0.959 . S
H160 C175 0.959 1_545 S
H161 C175 0.961 1_556 S
H162 C176 0.960 . S
H163 C176 0.961 . S
H164 C176 0.959 . S
H165 C179 0.929 . S
H166 C180 0.931 . S
H167 C182 0.930 . S
C168 H156 0.930 . S
C168 C169 1.399 . S
C168 C173 1.399 . S
C169 C168 1.399 . S
C169 C170 1.376 . S
C170 H157 0.930 . S
C170 C169 1.376 . S
C170 C171 1.388 . S
C171 H158 0.930 . S
C171 C170 1.388 . S
C171 C172 1.390 . S
C172 C171 1.390 . S
C172 C173 1.394 . S
C172 C178 1.465 1_566 S
C173 C168 1.399 . S
C173 C172 1.394 . S
C173 C174 1.516 1_565 S
C174 C173 1.516 1_545 S
C174 C175 1.502 1_546 S
C174 C176 1.561 . S
C174 C177 1.526 1_556 S
C175 H159 0.959 . S
C175 H160 0.959 1_565 S
C175 H161 0.961 1_554 S
C175 C174 1.502 1_564 S
C176 H162 0.960 . S
C176 H163 0.961 . S
C176 H164 0.959 . S
C176 C174 1.561 . S
C177 C174 1.526 1_554 S
C177 C178 1.396 . S
C177 C182 1.390 . S
C178 C172 1.465 1_544 S
C178 C177 1.396 . S
C178 C179 1.399 . S
C179 H165 0.929 . S
C179 C178 1.399 . S
C179 C180 1.385 . S
C180 H166 0.931 . S
C180 C179 1.385 . S
C180 C181 1.389 . S
C181 C180 1.389 . S
C181 C182 1.387 . S
C182 H167 0.930 . S
C182 C177 1.390 . S
C182 C181 1.387 . S
H183 C195 0.930 . S
H184 C197 0.930 . S
H185 C198 0.930 . S
H186 C202 0.959 . S
H187 C202 0.959 . S
H188 C202 0.961 . S
H189 C203 0.960 . S
H190 C203 0.961 . S
H191 C203 0.959 . S
H192 C206 0.929 . S
H193 C207 0.931 . S
H194 C209 0.930 . S
C195 H183 0.930 . S
C195 C196 1.399 . S
C195 C200 1.399 . S
C196 C195 1.399 . S
C196 C197 1.376 . S
C197 H184 0.930 . S
C197 C196 1.376 . S
C197 C198 1.388 . S
C198 H185 0.930 . S
C198 C197 1.388 . S
C198 C199 1.390 . S
C199 C198 1.390 . S
C199 C200 1.394 . S
C199 C205 1.465 . S
C200 C195 1.399 . S
C200 C199 1.394 . S
C200 C201 1.516 . S
C201 C200 1.516 . S
C201 C202 1.502 . S
C201 C203 1.561 . S
C201 C204 1.526 . S
C202 H186 0.959 . S
C202 H187 0.959 . S
C202 H188 0.961 . S
C202 C201 1.502 . S
C203 H189 0.960 . S
C203 H190 0.961 . S
C203 H191 0.959 . S
C203 C201 1.561 . S
C204 C201 1.526 . S
C204 C205 1.396 . S
C204 C209 1.390 . S
C205 C199 1.465 . S
C205 C204 1.396 . S
C205 C206 1.399 . S
C206 H192 0.929 . S
C206 C205 1.399 . S
C206 C207 1.385 . S
C207 H193 0.931 . S
C207 C206 1.385 . S
C207 C208 1.389 . S
C208 C207 1.389 . S
C208 C209 1.387 . S
C209 H194 0.930 . S
C209 C204 1.390 . S
C209 C208 1.387 . S
H210 C222 0.930 . S
H211 C224 0.930 . S
H212 C225 0.930 . S
H213 C229 0.959 . S
H214 C229 0.959 . S
H215 C229 0.961 . S
H216 C230 0.960 . S
H217 C230 0.961 . S
H218 C230 0.959 . S
H219 C233 0.929 1_655 S
H220 C234 0.931 . S
H221 C236 0.930 . S
C222 H210 0.930 . S
C222 C223 1.399 . S
C222 C227 1.399 . S
C223 C222 1.399 . S
C223 C224 1.376 . S
C224 H211 0.930 . S
C224 C223 1.376 . S
C224 C225 1.388 . S
C225 H212 0.930 . S
C225 C224 1.388 . S
C225 C226 1.390 . S
C226 C225 1.390 . S
C226 C227 1.394 . S
C226 C232 1.465 1_655 S
C227 C222 1.399 . S
C227 C226 1.394 . S
C227 C228 1.516 1_655 S
C228 C227 1.516 1_455 S
C228 C229 1.502 . S
C228 C230 1.561 . S
C228 C231 1.526 . S
C229 H213 0.959 . S
C229 H214 0.959 . S
C229 H215 0.961 . S
C229 C228 1.502 . S
C230 H216 0.960 . S
C230 H217 0.961 . S
C230 H218 0.959 . S
C230 C228 1.561 . S
C231 C228 1.526 . S
C231 C232 1.396 . S
C231 C236 1.390 . S
C232 C226 1.465 1_455 S
C232 C231 1.396 . S
C232 C233 1.399 . S
C233 H219 0.929 1_455 S
C233 C232 1.399 . S
C233 C234 1.385 . S
C234 H220 0.931 . S
C234 C233 1.385 . S
C234 C235 1.389 . S
C235 C234 1.389 . S
C235 C236 1.387 . S
C236 H221 0.930 . S
C236 C231 1.390 . S
C236 C235 1.387 . S
H237 C249 0.930 . S
H238 C251 0.930 . S
H239 C252 0.930 1_545 S
H240 C256 0.959 . S
H241 C256 0.959 . S
H242 C256 0.961 . S
H243 C257 0.960 . S
H244 C257 0.961 . S
H245 C257 0.959 . S
H246 C260 0.929 . S
H247 C261 0.931 . S
H248 C263 0.930 . S
C249 H237 0.930 . S
C249 C250 1.399 . S
C249 C254 1.399 . S
C250 C249 1.399 . S
C250 C251 1.376 . S
C251 H238 0.930 . S
C251 C250 1.376 . S
C251 C252 1.388 . S
C252 H239 0.930 1_565 S
C252 C251 1.388 . S
C252 C253 1.390 . S
C253 C252 1.390 . S
C253 C254 1.394 . S
C253 C259 1.501 1_565 S
C254 C249 1.399 . S
C254 C253 1.394 . S
C254 C255 1.516 1_554 S
C255 C254 1.516 1_556 S
C255 C256 1.502 . S
C255 C257 1.561 . S
C255 C258 1.526 1_565 S
C256 H240 0.959 . S
C256 H241 0.959 . S
C256 H242 0.961 . S
C256 C255 1.502 . S
C257 H243 0.960 . S
C257 H244 0.961 . S
C257 H245 0.959 . S
C257 C255 1.561 . S
C258 C255 1.526 1_545 S
C258 C259 1.341 1_556 S
C258 C263 1.390 . S
C259 C253 1.501 1_545 S
C259 C258 1.341 1_554 S
C259 C260 1.413 . S
C260 H246 0.929 . S
C260 C259 1.413 . S
C260 C261 1.385 1_554 S
C261 H247 0.931 . S
C261 C260 1.385 1_556 S
C261 C262 1.389 . S
C262 C261 1.389 . S
C262 C263 1.387 . S
C263 H248 0.930 . S
C263 C258 1.390 . S
C263 C262 1.387 . S
H264 C276 0.930 . S
H265 C278 0.930 . S
H266 C279 0.930 . S
H267 C283 0.959 . S
H268 C283 0.959 . S
H269 C283 0.961 . S
H270 C284 0.960 . S
H271 C284 0.961 . S
H272 C284 0.959 . S
H273 C287 0.929 . S
H274 C288 0.931 . S
H275 C290 0.930 . S
C276 H264 0.930 . S
C276 C277 1.399 . S
C276 C281 1.399 . S
C277 C276 1.399 . S
C277 C278 1.376 . S
C278 H265 0.930 . S
C278 C277 1.376 . S
C278 C279 1.388 . S
C279 H266 0.930 . S
C279 C278 1.388 . S
C279 C280 1.390 . S
C280 C279 1.390 . S
C280 C281 1.394 . S
C280 C286 1.465 . S
C281 C276 1.399 . S
C281 C280 1.394 . S
C281 C282 1.516 . S
C282 C281 1.516 . S
C282 C283 1.502 . S
C282 C284 1.561 . S
C282 C285 1.526 . S
C283 H267 0.959 . S
C283 H268 0.959 . S
C283 H269 0.961 . S
C283 C282 1.502 . S
C284 H270 0.960 . S
C284 H271 0.961 . S
C284 H272 0.959 . S
C284 C282 1.561 . S
C285 C282 1.526 . S
C285 C286 1.396 . S
C285 C290 1.390 . S
C286 C280 1.465 . S
C286 C285 1.396 . S
C286 C287 1.399 . S
C287 H273 0.929 . S
C287 C286 1.399 . S
C287 C288 1.385 . S
C288 H274 0.931 . S
C288 C287 1.385 . S
C288 C289 1.389 . S
C289 C288 1.389 . S
C289 C290 1.387 . S
C290 H275 0.930 . S
C290 C285 1.390 . S
C290 C289 1.387 . S
H291 C303 0.930 . S
H292 C305 0.930 . S
H293 C306 0.930 . S
H294 C310 0.959 . S
H295 C310 0.959 . S
H296 C310 0.961 . S
H297 C311 0.960 1_655 S
H298 C311 0.961 . S
H299 C311 0.959 1_655 S
H300 C314 0.929 1_655 S
H301 C315 0.931 . S
H302 C317 0.930 . S
C303 H291 0.930 . S
C303 C304 1.399 . S
C303 C308 1.399 . S
C304 C303 1.399 . S
C304 C305 1.376 . S
C305 H292 0.930 . S
C305 C304 1.376 . S
C305 C306 1.388 . S
C306 H293 0.930 . S
C306 C305 1.388 . S
C306 C307 1.390 . S
C307 C306 1.390 . S
C307 C308 1.394 . S
C307 C313 1.465 1_655 S
C308 C303 1.399 . S
C308 C307 1.394 . S
C308 C309 1.516 1_655 S
C309 C308 1.516 1_455 S
C309 C310 1.502 . S
C309 C311 1.561 . S
C309 C312 1.526 . S
C310 H294 0.959 . S
C310 H295 0.959 . S
C310 H296 0.961 . S
C310 C309 1.502 . S
C311 H297 0.960 1_455 S
C311 H298 0.961 . S
C311 H299 0.959 1_455 S
C311 C309 1.561 . S
C312 C309 1.526 . S
C312 C313 1.396 . S
C312 C317 1.390 . S
C313 C307 1.465 1_455 S
C313 C312 1.396 . S
C313 C314 1.399 . S
C314 H300 0.929 1_455 S
C314 C313 1.399 . S
C314 C315 1.385 . S
C315 H301 0.931 . S
C315 C314 1.385 . S
C315 C316 1.389 . S
C316 C315 1.389 . S
C316 C317 1.387 . S
C317 H302 0.930 . S
C317 C312 1.390 . S
C317 C316 1.387 . S
H318 C330 0.930 . S
H319 C332 0.930 . S
H320 C333 0.930 . S
H321 C337 0.959 . S
H322 C337 0.959 . S
H323 C337 0.961 . S
H324 C338 0.958 1_556 S
H325 C338 0.967 . S
H326 C338 0.951 1_556 S
H327 C341 0.929 . S
H328 C342 0.931 . S
H329 C344 0.930 . S
C330 H318 0.930 . S
C330 C331 1.399 . S
C330 C335 1.399 . S
C331 C330 1.399 . S
C331 C332 1.376 . S
C332 H319 0.930 . S
C332 C331 1.376 . S
C332 C333 1.388 . S
C333 H320 0.930 . S
C333 C332 1.388 . S
C333 C334 1.390 . S
C334 C333 1.390 . S
C334 C335 1.394 . S
C334 C340 1.465 . S
C335 C330 1.399 . S
C335 C334 1.394 . S
C335 C336 1.516 1_556 S
C336 C335 1.516 1_554 S
C336 C337 1.502 . S
C336 C338 1.565 . S
C336 C339 1.526 . S
C337 H321 0.959 . S
C337 H322 0.959 . S
C337 H323 0.961 . S
C337 C336 1.502 . S
C338 H324 0.958 1_554 S
C338 H325 0.967 . S
C338 H326 0.951 1_554 S
C338 C336 1.565 . S
C339 C336 1.526 . S
C339 C340 1.396 1_554 S
C339 C344 1.390 . S
C340 C334 1.465 . S
C340 C339 1.396 1_556 S
C340 C341 1.399 . S
C341 H327 0.929 . S
C341 C340 1.399 . S
C341 C342 1.385 1_556 S
C342 H328 0.931 . S
C342 C341 1.385 1_554 S
C342 C343 1.389 . S
C343 C342 1.389 . S
C343 C344 1.387 . S
C344 H329 0.930 . S
C344 C339 1.390 . S
C344 C343 1.387 . S
H345 C357 0.930 . S
H346 C359 0.930 . S
H347 C360 0.930 . S
H348 C364 0.959 . S
H349 C364 0.959 . S
H350 C364 0.961 . S
H351 C365 0.960 . S
H352 C365 0.961 . S
H353 C365 0.959 . S
H354 C368 0.929 . S
H355 C369 0.931 . S
H356 C371 0.930 . S
C357 H345 0.930 . S
C357 C358 1.399 . S
C357 C362 1.399 . S
C358 C357 1.399 . S
C358 C359 1.376 . S
C359 H346 0.930 . S
C359 C358 1.376 . S
C359 C360 1.388 . S
C360 H347 0.930 . S
C360 C359 1.388 . S
C360 C361 1.390 . S
C361 C360 1.390 . S
C361 C362 1.394 . S
C361 C367 1.465 . S
C362 C357 1.399 . S
C362 C361 1.394 . S
C362 C363 1.516 . S
C363 C362 1.516 . S
C363 C364 1.502 . S
C363 C365 1.561 . S
C363 C366 1.526 . S
C364 H348 0.959 . S
C364 H349 0.959 . S
C364 H350 0.961 . S
C364 C363 1.502 . S
C365 H351 0.960 . S
C365 H352 0.961 . S
C365 H353 0.959 . S
C365 C363 1.561 . S
C366 C363 1.526 . S
C366 C367 1.396 . S
C366 C371 1.390 . S
C367 C361 1.465 . S
C367 C366 1.396 . S
C367 C368 1.399 . S
C368 H354 0.929 . S
C368 C367 1.399 . S
C368 C369 1.385 . S
C369 H355 0.931 . S
C369 C368 1.385 . S
C369 C370 1.389 . S
C370 C369 1.389 . S
C370 C371 1.387 . S
C371 H356 0.930 . S
C371 C366 1.390 . S
C371 C370 1.387 . S
H372 C384 0.930 . S
H373 C386 0.930 . S
H374 C387 0.930 . S
H375 C391 0.959 . S
H376 C391 0.959 . S
H377 C391 0.961 . S
H378 C392 0.960 . S
H379 C392 0.961 . S
H380 C392 0.959 . S
H381 C395 0.929 . S
H382 C396 0.931 . S
H383 C398 0.930 . S
C384 H372 0.930 . S
C384 C385 1.399 . S
C384 C389 1.399 . S
C385 C384 1.399 . S
C385 C386 1.376 . S
C386 H373 0.930 . S
C386 C385 1.376 . S
C386 C387 1.388 . S
C387 H374 0.930 . S
C387 C386 1.388 . S
C387 C388 1.390 . S
C388 C387 1.390 . S
C388 C389 1.394 . S
C388 C394 1.465 . S
C389 C384 1.399 . S
C389 C388 1.394 . S
C389 C390 1.516 . S
C390 C389 1.516 . S
C390 C391 1.502 . S
C390 C392 1.561 . S
C390 C393 1.526 . S
C391 H375 0.959 . S
C391 H376 0.959 . S
C391 H377 0.961 . S
C391 C390 1.502 . S
C392 H378 0.960 . S
C392 H379 0.961 . S
C392 H380 0.959 . S
C392 C390 1.561 . S
C393 C390 1.526 . S
C393 C394 1.396 . S
C393 C398 1.390 . S
C394 C388 1.465 . S
C394 C393 1.396 . S
C394 C395 1.399 . S
C395 H381 0.929 . S
C395 C394 1.399 . S
C395 C396 1.385 . S
C396 H382 0.931 . S
C396 C395 1.385 . S
C396 C397 1.389 . S
C397 C396 1.389 . S
C397 C398 1.387 . S
C398 H383 0.930 . S
C398 C393 1.390 . S
C398 C397 1.387 . S
H399 C411 0.930 . S
H400 C413 0.930 . S
H401 C414 0.930 . S
H402 C418 0.959 . S
H403 C418 0.959 . S
H404 C418 0.961 . S
H405 C419 0.960 . S
H406 C419 0.961 . S
H407 C419 0.959 . S
H408 C422 0.929 . S
H409 C423 0.931 . S
H410 C425 0.930 . S
C411 H399 0.930 . S
C411 C412 1.399 . S
C411 C416 1.399 . S
C412 C411 1.399 . S
C412 C413 1.376 . S
C413 H400 0.930 . S
C413 C412 1.376 . S
C413 C414 1.388 . S
C414 H401 0.930 . S
C414 C413 1.388 . S
C414 C415 1.390 . S
C415 C414 1.390 . S
C415 C416 1.394 . S
C415 C421 1.465 1_556 S
C416 C411 1.399 . S
C416 C415 1.394 . S
C416 C417 1.500 1_556 S
C417 C416 1.500 1_554 S
C417 C418 1.532 . S
C417 C419 1.531 1_554 S
C417 C420 1.540 . S
C418 H402 0.959 . S
C418 H403 0.959 . S
C418 H404 0.961 . S
C418 C417 1.532 . S
C419 H405 0.960 . S
C419 H406 0.961 . S
C419 H407 0.959 . S
C419 C417 1.531 1_556 S
C420 C417 1.540 . S
C420 C421 1.396 . S
C420 C425 1.390 . S
C421 C415 1.465 1_554 S
C421 C420 1.396 . S
C421 C422 1.399 . S
C422 H408 0.929 . S
C422 C421 1.399 . S
C422 C423 1.385 . S
C423 H409 0.931 . S
C423 C422 1.385 . S
C423 C424 1.389 . S
C424 C423 1.389 . S
C424 C425 1.387 . S
C425 H410 0.930 . S
C425 C420 1.390 . S
C425 C424 1.387 . S
H426 C438 0.930 . S
H427 C440 0.930 . S
H428 C441 0.930 . S
H429 C445 0.959 . S
H430 C445 0.959 . S
H431 C445 0.961 . S
H432 C446 0.960 . S
H433 C446 0.961 . S
H434 C446 0.959 . S
H435 C449 0.929 . S
H436 C450 0.931 . S
H437 C452 0.930 . S
C438 H426 0.930 . S
C438 C439 1.399 . S
C438 C443 1.399 . S
C439 C438 1.399 . S
C439 C440 1.376 . S
C440 H427 0.930 . S
C440 C439 1.376 . S
C440 C441 1.388 . S
C441 H428 0.930 . S
C441 C440 1.388 . S
C441 C442 1.390 . S
C442 C441 1.390 . S
C442 C443 1.394 . S
C442 C448 1.465 . S
C443 C438 1.399 . S
C443 C442 1.394 . S
C443 C444 1.516 . S
C444 C443 1.516 . S
C444 C445 1.502 . S
C444 C446 1.561 . S
C444 C447 1.526 . S
C445 H429 0.959 . S
C445 H430 0.959 . S
C445 H431 0.961 . S
C445 C444 1.502 . S
C446 H432 0.960 . S
C446 H433 0.961 . S
C446 H434 0.959 . S
C446 C444 1.561 . S
C447 C444 1.526 . S
C447 C448 1.396 . S
C447 C452 1.390 . S
C448 C442 1.465 . S
C448 C447 1.396 . S
C448 C449 1.399 . S
C449 H435 0.929 . S
C449 C448 1.399 . S
C449 C450 1.385 . S
C450 H436 0.931 . S
C450 C449 1.385 . S
C450 C451 1.389 . S
C451 C450 1.389 . S
C451 C452 1.387 . S
C452 H437 0.930 . S
C452 C447 1.390 . S
C452 C451 1.387 . S
H453 C465 0.930 . S
H454 C467 0.930 . S
H455 C468 0.930 . S
H456 C472 0.959 . S
H457 C472 0.959 . S
H458 C472 0.961 . S
H459 C473 0.960 . S
H460 C473 0.961 . S
H461 C473 0.959 . S
H462 C476 0.929 . S
H463 C477 0.931 . S
H464 C479 0.930 . S
C465 H453 0.930 . S
C465 C466 1.399 . S
C465 C470 1.399 . S
C466 C465 1.399 . S
C466 C467 1.376 . S
C467 H454 0.930 . S
C467 C466 1.376 . S
C467 C468 1.388 . S
C468 H455 0.930 . S
C468 C467 1.388 . S
C468 C469 1.390 . S
C469 C468 1.390 . S
C469 C470 1.394 . S
C469 C475 1.465 . S
C470 C465 1.399 . S
C470 C469 1.394 . S
C470 C471 1.516 . S
C471 C470 1.516 . S
C471 C472 1.502 . S
C471 C473 1.561 . S
C471 C474 1.526 . S
C472 H456 0.959 . S
C472 H457 0.959 . S
C472 H458 0.961 . S
C472 C471 1.502 . S
C473 H459 0.960 . S
C473 H460 0.961 . S
C473 H461 0.959 . S
C473 C471 1.561 . S
C474 C471 1.526 . S
C474 C475 1.396 . S
C474 C479 1.390 . S
C475 C469 1.465 . S
C475 C474 1.396 . S
C475 C476 1.399 . S
C476 H462 0.929 . S
C476 C475 1.399 . S
C476 C477 1.385 . S
C477 H463 0.931 . S
C477 C476 1.385 . S
C477 C478 1.389 . S
C478 C477 1.389 . S
C478 C479 1.387 . S
C479 H464 0.930 . S
C479 C474 1.390 . S
C479 C478 1.387 . S
H480 C492 0.930 . S
H481 C494 0.930 . S
H482 C495 0.930 . S
H483 C499 0.959 . S
H484 C499 0.959 . S
H485 C499 0.961 . S
H486 C500 0.960 . S
H487 C500 0.961 . S
H488 C500 0.959 . S
H489 C503 0.929 . S
H490 C504 0.931 . S
H491 C506 0.930 . S
C492 H480 0.930 . S
C492 C493 1.399 . S
C492 C497 1.399 . S
C493 C492 1.399 . S
C493 C494 1.376 . S
C494 H481 0.930 . S
C494 C493 1.376 . S
C494 C495 1.388 . S
C495 H482 0.930 . S
C495 C494 1.388 . S
C495 C496 1.390 . S
C496 C495 1.390 . S
C496 C497 1.394 . S
C496 C502 1.465 . S
C497 C492 1.399 . S
C497 C496 1.394 . S
C497 C498 1.516 . S
C498 C497 1.516 . S
C498 C499 1.502 . S
C498 C500 1.561 . S
C498 C501 1.526 . S
C499 H483 0.959 . S
C499 H484 0.959 . S
C499 H485 0.961 . S
C499 C498 1.502 . S
C500 H486 0.960 . S
C500 H487 0.961 . S
C500 H488 0.959 . S
C500 C498 1.561 . S
C501 C498 1.526 . S
C501 C502 1.396 . S
C501 C506 1.390 . S
C502 C496 1.465 . S
C502 C501 1.396 . S
C502 C503 1.399 . S
C503 H489 0.929 . S
C503 C502 1.399 . S
C503 C504 1.385 . S
C504 H490 0.931 . S
C504 C503 1.385 . S
C504 C505 1.389 . S
C505 C504 1.389 . S
C505 C506 1.387 . S
C506 H491 0.930 . S
C506 C501 1.390 . S
C506 C505 1.387 . S
H507 C519 0.930 . S
H508 C521 0.930 . S
H509 C522 0.930 . S
H510 C526 0.959 . S
H511 C526 0.959 . S
H512 C526 0.961 . S
H513 C527 0.960 . S
H514 C527 0.961 . S
H515 C527 0.959 . S
H516 C530 0.929 . S
H517 C531 0.931 . S
H518 C533 0.930 . S
C519 H507 0.930 . S
C519 C520 1.399 . S
C519 C524 1.399 . S
C520 C519 1.399 . S
C520 C521 1.376 . S
C521 H508 0.930 . S
C521 C520 1.376 . S
C521 C522 1.388 . S
C522 H509 0.930 . S
C522 C521 1.388 . S
C522 C523 1.390 . S
C523 C522 1.390 . S
C523 C524 1.394 . S
C523 C529 1.465 . S
C524 C519 1.399 . S
C524 C523 1.394 . S
C524 C525 1.516 . S
C525 C524 1.516 . S
C525 C526 1.502 . S
C525 C527 1.561 . S
C525 C528 1.526 . S
C526 H510 0.959 . S
C526 H511 0.959 . S
C526 H512 0.961 . S
C526 C525 1.502 . S
C527 H513 0.960 . S
C527 H514 0.961 . S
C527 H515 0.959 . S
C527 C525 1.561 . S
C528 C525 1.526 . S
C528 C529 1.396 . S
C528 C533 1.390 . S
C529 C523 1.465 . S
C529 C528 1.396 . S
C529 C530 1.399 . S
C530 H516 0.929 . S
C530 C529 1.399 . S
C530 C531 1.385 . S
C531 H517 0.931 . S
C531 C530 1.385 . S
C531 C532 1.389 . S
C532 C531 1.389 . S
C532 C533 1.387 . S
C533 H518 0.930 . S
C533 C528 1.390 . S
C533 C532 1.387 . S
H534 C546 0.930 . S
H535 C548 0.930 . S
H536 C549 0.930 . S
H537 C553 0.959 . S
H538 C553 0.959 . S
H539 C553 0.961 . S
H540 C554 0.960 . S
H541 C554 0.961 . S
H542 C554 0.959 . S
H543 C557 0.929 . S
H544 C558 0.931 . S
H545 C560 0.930 . S
C546 H534 0.930 . S
C546 C547 1.399 . S
C546 C551 1.399 . S
C547 C546 1.399 . S
C547 C548 1.376 . S
C548 H535 0.930 . S
C548 C547 1.376 . S
C548 C549 1.388 . S
C549 H536 0.930 . S
C549 C548 1.388 . S
C549 C550 1.390 . S
C550 C549 1.390 . S
C550 C551 1.394 . S
C550 C556 1.465 . S
C551 C546 1.399 . S
C551 C550 1.394 . S
C551 C552 1.516 . S
C552 C551 1.516 . S
C552 C553 1.502 . S
C552 C554 1.561 . S
C552 C555 1.526 . S
C553 H537 0.959 . S
C553 H538 0.959 . S
C553 H539 0.961 . S
C553 C552 1.502 . S
C554 H540 0.960 . S
C554 H541 0.961 . S
C554 H542 0.959 . S
C554 C552 1.561 . S
C555 C552 1.526 . S
C555 C556 1.396 . S
C555 C560 1.390 . S
C556 C550 1.465 . S
C556 C555 1.396 . S
C556 C557 1.399 . S
C557 H543 0.929 . S
C557 C556 1.399 . S
C557 C558 1.385 . S
C558 H544 0.931 . S
C558 C557 1.385 . S
C558 C559 1.389 . S
C559 C558 1.389 . S
C559 C560 1.387 . S
C560 H545 0.930 . S
C560 C555 1.390 . S
C560 C559 1.387 . S
H561 C573 0.930 . S
H562 C575 0.930 . S
H563 C576 0.930 . S
H564 C580 0.959 . S
H565 C580 0.959 . S
H566 C580 0.961 . S
H567 C581 0.960 . S
H568 C581 0.961 . S
H569 C581 0.959 . S
H570 C584 0.929 . S
H571 C585 0.931 . S
H572 C587 0.930 . S
C573 H561 0.930 . S
C573 C574 1.399 . S
C573 C578 1.399 . S
C574 C573 1.399 . S
C574 C575 1.376 . S
C575 H562 0.930 . S
C575 C574 1.376 . S
C575 C576 1.388 . S
C576 H563 0.930 . S
C576 C575 1.388 . S
C576 C577 1.390 . S
C577 C576 1.390 . S
C577 C578 1.394 . S
C577 C583 1.465 . S
C578 C573 1.399 . S
C578 C577 1.394 . S
C578 C579 1.516 . S
C579 C578 1.516 . S
C579 C580 1.502 . S
C579 C581 1.561 . S
C579 C582 1.526 . S
C580 H564 0.959 . S
C580 H565 0.959 . S
C580 H566 0.961 . S
C580 C579 1.502 . S
C581 H567 0.960 . S
C581 H568 0.961 . S
C581 H569 0.959 . S
C581 C579 1.561 . S
C582 C579 1.526 . S
C582 C583 1.396 . S
C582 C587 1.390 . S
C583 C577 1.465 . S
C583 C582 1.396 . S
C583 C584 1.399 . S
C584 H570 0.929 . S
C584 C583 1.399 . S
C584 C585 1.385 . S
C585 H571 0.931 . S
C585 C584 1.385 . S
C585 C586 1.389 . S
C586 C585 1.389 . S
C586 C587 1.387 . S
C587 H572 0.930 . S
C587 C582 1.390 . S
C587 C586 1.387 . S
H588 C600 0.930 . S
H589 C602 0.930 . S
H590 C603 0.930 . S
H591 C607 0.959 . S
H592 C607 0.959 . S
H593 C607 0.961 . S
H594 C608 0.960 . S
H595 C608 0.961 . S
H596 C608 0.959 . S
H597 C611 0.929 . S
H598 C612 0.931 . S
H599 C614 0.930 . S
C600 H588 0.930 . S
C600 C601 1.399 . S
C600 C605 1.399 . S
C601 C600 1.399 . S
C601 C602 1.376 . S
C602 H589 0.930 . S
C602 C601 1.376 . S
C602 C603 1.388 . S
C603 H590 0.930 . S
C603 C602 1.388 . S
C603 C604 1.390 . S
C604 C603 1.390 . S
C604 C605 1.394 . S
C604 C610 1.465 . S
C605 C600 1.399 . S
C605 C604 1.394 . S
C605 C606 1.516 . S
C606 C605 1.516 . S
C606 C607 1.502 . S
C606 C608 1.561 . S
C606 C609 1.526 . S
C607 H591 0.959 . S
C607 H592 0.959 . S
C607 H593 0.961 . S
C607 C606 1.502 . S
C608 H594 0.960 . S
C608 H595 0.961 . S
C608 H596 0.959 . S
C608 C606 1.561 . S
C609 C606 1.526 . S
C609 C610 1.396 . S
C609 C614 1.390 . S
C610 C604 1.465 . S
C610 C609 1.396 . S
C610 C611 1.399 . S
C611 H597 0.929 . S
C611 C610 1.399 . S
C611 C612 1.385 . S
C612 H598 0.931 . S
C612 C611 1.385 . S
C612 C613 1.389 . S
C613 C612 1.389 . S
C613 C614 1.387 . S
C614 H599 0.930 . S
C614 C609 1.390 . S
C614 C613 1.387 . S
H615 C627 0.930 . S
H616 C629 0.930 . S
H617 C630 0.930 . S
H618 C634 0.959 . S
H619 C634 0.959 . S
H620 C634 0.961 . S
H621 C635 0.960 . S
H622 C635 0.961 . S
H623 C635 0.959 . S
H624 C638 0.929 . S
H625 C639 0.931 . S
H626 C641 0.930 . S
C627 H615 0.930 . S
C627 C628 1.399 . S
C627 C632 1.399 . S
C628 C627 1.399 . S
C628 C629 1.376 . S
C629 H616 0.930 . S
C629 C628 1.376 . S
C629 C630 1.388 . S
C630 H617 0.930 . S
C630 C629 1.388 . S
C630 C631 1.390 . S
C631 C630 1.390 . S
C631 C632 1.394 . S
C631 C637 1.465 . S
C632 C627 1.399 . S
C632 C631 1.394 . S
C632 C633 1.516 . S
C633 C632 1.516 . S
C633 C634 1.502 . S
C633 C635 1.561 . S
C633 C636 1.526 . S
C634 H618 0.959 . S
C634 H619 0.959 . S
C634 H620 0.961 . S
C634 C633 1.502 . S
C635 H621 0.960 . S
C635 H622 0.961 . S
C635 H623 0.959 . S
C635 C633 1.561 . S
C636 C633 1.526 . S
C636 C637 1.396 . S
C636 C641 1.390 . S
C637 C631 1.465 . S
C637 C636 1.396 . S
C637 C638 1.399 . S
C638 H624 0.929 . S
C638 C637 1.399 . S
C638 C639 1.385 . S
C639 H625 0.931 . S
C639 C638 1.385 . S
C639 C640 1.389 . S
C640 C639 1.389 . S
C640 C641 1.387 . S
C641 H626 0.930 . S
C641 C636 1.390 . S
C641 C640 1.387 . S
H642 C654 0.930 . S
H643 C656 0.930 . S
H644 C657 0.930 . S
H645 C661 0.959 . S
H646 C661 0.959 . S
H647 C661 0.961 . S
H648 C662 0.960 . S
H649 C662 0.961 . S
H650 C662 0.959 . S
H651 C665 0.929 . S
H652 C666 0.931 . S
H653 C668 0.930 . S
C654 H642 0.930 . S
C654 C655 1.399 . S
C654 C659 1.399 . S
C655 C654 1.399 . S
C655 C656 1.376 . S
C656 H643 0.930 . S
C656 C655 1.376 . S
C656 C657 1.388 . S
C657 H644 0.930 . S
C657 C656 1.388 . S
C657 C658 1.390 . S
C658 C657 1.390 . S
C658 C659 1.394 . S
C658 C664 1.465 . S
C659 C654 1.399 . S
C659 C658 1.394 . S
C659 C660 1.516 . S
C660 C659 1.516 . S
C660 C661 1.502 . S
C660 C662 1.561 . S
C660 C663 1.526 . S
C661 H645 0.959 . S
C661 H646 0.959 . S
C661 H647 0.961 . S
C661 C660 1.502 . S
C662 H648 0.960 . S
C662 H649 0.961 . S
C662 H650 0.959 . S
C662 C660 1.561 . S
C663 C660 1.526 . S
C663 C664 1.396 . S
C663 C668 1.390 . S
C664 C658 1.465 . S
C664 C663 1.396 . S
C664 C665 1.399 . S
C665 H651 0.929 . S
C665 C664 1.399 . S
C665 C666 1.385 . S
C666 H652 0.931 . S
C666 C665 1.385 . S
C666 C667 1.389 . S
C667 C666 1.389 . S
C667 C668 1.387 . S
C668 H653 0.930 . S
C668 C663 1.390 . S
C668 C667 1.387 . S
H669 C681 0.930 . S
H670 C683 0.930 . S
H671 C684 0.930 . S
H672 C688 0.959 . S
H673 C688 0.959 . S
H674 C688 0.961 . S
H675 C689 0.960 . S
H676 C689 0.961 1_455 S
H677 C689 0.959 . S
H678 C692 0.929 1_655 S
H679 C693 0.931 . S
H680 C695 0.930 . S
C681 H669 0.930 . S
C681 C682 1.399 . S
C681 C686 1.399 . S
C682 C681 1.399 . S
C682 C683 1.376 . S
C683 H670 0.930 . S
C683 C682 1.376 . S
C683 C684 1.388 . S
C684 H671 0.930 . S
C684 C683 1.388 . S
C684 C685 1.390 . S
C685 C684 1.390 . S
C685 C686 1.394 . S
C685 C691 1.465 1_655 S
C686 C681 1.399 . S
C686 C685 1.394 . S
C686 C687 1.516 1_655 S
C687 C686 1.516 1_455 S
C687 C688 1.502 . S
C687 C689 1.561 1_455 S
C687 C690 1.526 . S
C688 H672 0.959 . S
C688 H673 0.959 . S
C688 H674 0.961 . S
C688 C687 1.502 . S
C689 H675 0.960 . S
C689 H676 0.961 1_655 S
C689 H677 0.959 . S
C689 C687 1.561 1_655 S
C690 C687 1.526 . S
C690 C691 1.396 . S
C690 C695 1.390 . S
C691 C685 1.465 1_455 S
C691 C690 1.396 . S
C691 C692 1.399 . S
C692 H678 0.929 1_455 S
C692 C691 1.399 . S
C692 C693 1.385 . S
C693 H679 0.931 . S
C693 C692 1.385 . S
C693 C694 1.389 . S
C694 C693 1.389 . S
C694 C695 1.387 . S
C695 H680 0.930 . S
C695 C690 1.390 . S
C695 C694 1.387 . S
H696 C708 0.930 . S
H697 C710 0.930 . S
H698 C711 0.930 . S
H699 C715 0.959 . S
H700 C715 0.959 . S
H701 C715 0.961 . S
H702 C716 0.960 . S
H703 C716 0.961 1_565 S
H704 C716 0.959 . S
H705 C719 0.929 1_545 S
H706 C720 0.931 . S
H707 C722 0.930 . S
C708 H696 0.930 . S
C708 C709 1.399 . S
C708 C713 1.399 . S
C709 C708 1.399 . S
C709 C710 1.376 . S
C710 H697 0.930 . S
C710 C709 1.376 . S
C710 C711 1.388 . S
C711 H698 0.930 . S
C711 C710 1.388 . S
C711 C712 1.390 . S
C712 C711 1.390 . S
C712 C713 1.394 . S
C712 C718 1.465 1_545 S
C713 C708 1.399 . S
C713 C712 1.394 . S
C713 C714 1.516 1_545 S
C714 C713 1.516 1_565 S
C714 C715 1.502 . S
C714 C716 1.561 1_565 S
C714 C717 1.526 . S
C715 H699 0.959 . S
C715 H700 0.959 . S
C715 H701 0.961 . S
C715 C714 1.502 . S
C716 H702 0.960 . S
C716 H703 0.961 1_545 S
C716 H704 0.959 . S
C716 C714 1.561 1_545 S
C717 C714 1.526 . S
C717 C718 1.396 . S
C717 C722 1.390 . S
C718 C712 1.465 1_565 S
C718 C717 1.396 . S
C718 C719 1.399 . S
C719 H705 0.929 1_565 S
C719 C718 1.399 . S
C719 C720 1.385 . S
C720 H706 0.931 . S
C720 C719 1.385 . S
C720 C721 1.389 . S
C721 C720 1.389 . S
C721 C722 1.387 . S
C722 H707 0.930 . S
C722 C717 1.390 . S
C722 C721 1.387 . S
H723 C735 0.930 . S
H724 C737 0.930 . S
H725 C738 0.930 . S
H726 C742 0.959 . S
H727 C742 0.959 . S
H728 C742 0.961 . S
H729 C743 0.960 . S
H730 C743 0.961 . S
H731 C743 0.959 . S
H732 C746 0.929 . S
H733 C747 0.931 . S
H734 C749 0.930 . S
C735 H723 0.930 . S
C735 C736 1.399 . S
C735 C740 1.399 . S
C736 C735 1.399 . S
C736 C737 1.376 . S
C737 H724 0.930 . S
C737 C736 1.376 . S
C737 C738 1.388 . S
C738 H725 0.930 . S
C738 C737 1.388 . S
C738 C739 1.390 . S
C739 C738 1.390 . S
C739 C740 1.394 . S
C739 C745 1.465 . S
C740 C735 1.399 . S
C740 C739 1.394 . S
C740 C741 1.516 . S
C741 C740 1.516 . S
C741 C742 1.502 . S
C741 C743 1.561 . S
C741 C744 1.526 . S
C742 H726 0.959 . S
C742 H727 0.959 . S
C742 H728 0.961 . S
C742 C741 1.502 . S
C743 H729 0.960 . S
C743 H730 0.961 . S
C743 H731 0.959 . S
C743 C741 1.561 . S
C744 C741 1.526 . S
C744 C745 1.396 . S
C744 C749 1.390 . S
C745 C739 1.465 . S
C745 C744 1.396 . S
C745 C746 1.399 . S
C746 H732 0.929 . S
C746 C745 1.399 . S
C746 C747 1.385 . S
C747 H733 0.931 . S
C747 C746 1.385 . S
C747 C748 1.389 . S
C748 C747 1.389 . S
C748 C749 1.387 . S
C749 H734 0.930 . S
C749 C744 1.390 . S
C749 C748 1.387 . S
H750 C762 0.930 . S
H751 C764 0.930 . S
H752 C765 0.930 1_655 S
H753 C769 0.959 . S
H754 C769 0.959 . S
H755 C769 0.961 . S
H756 C770 0.960 1_455 S
H757 C770 0.961 . S
H758 C770 0.959 . S
H759 C773 0.929 . S
H760 C774 0.931 . S
H761 C776 0.930 . S
C762 H750 0.930 . S
C762 C763 1.399 . S
C762 C767 1.399 . S
C763 C762 1.399 . S
C763 C764 1.376 . S
C764 H751 0.930 . S
C764 C763 1.376 . S
C764 C765 1.388 . S
C765 H752 0.930 1_455 S
C765 C764 1.388 . S
C765 C766 1.390 . S
C766 C765 1.390 . S
C766 C767 1.394 . S
C766 C772 1.465 1_455 S
C767 C762 1.399 . S
C767 C766 1.394 . S
C767 C768 1.516 . S
C768 C767 1.516 . S
C768 C769 1.502 . S
C768 C770 1.561 1_455 S
C768 C771 1.526 1_455 S
C769 H753 0.959 . S
C769 H754 0.959 . S
C769 H755 0.961 . S
C769 C768 1.502 . S
C770 H756 0.960 1_655 S
C770 H757 0.961 . S
C770 H758 0.959 . S
C770 C768 1.561 1_655 S
C771 C768 1.526 1_655 S
C771 C772 1.396 . S
C771 C776 1.390 . S
C772 C766 1.465 1_655 S
C772 C771 1.396 . S
C772 C773 1.399 . S
C773 H759 0.929 . S
C773 C772 1.399 . S
C773 C774 1.385 . S
C774 H760 0.931 . S
C774 C773 1.385 . S
C774 C775 1.389 . S
C775 C774 1.389 . S
C775 C776 1.387 . S
C776 H761 0.930 . S
C776 C771 1.390 . S
C776 C775 1.387 . S
H777 C789 0.930 . S
H778 C791 0.930 . S
H779 C792 0.930 . S
H780 C796 0.959 . S
H781 C796 0.959 . S
H782 C796 0.961 . S
H783 C797 0.960 . S
H784 C797 0.961 . S
H785 C797 0.959 . S
H786 C800 0.923 1_565 S
H787 C801 0.931 . S
H788 C803 0.930 . S
C789 H777 0.930 . S
C789 C790 1.399 . S
C789 C794 1.399 . S
C790 C789 1.399 . S
C790 C791 1.376 . S
C791 H778 0.930 . S
C791 C790 1.376 . S
C791 C792 1.388 . S
C792 H779 0.930 . S
C792 C791 1.388 . S
C792 C793 1.390 . S
C793 C792 1.390 . S
C793 C794 1.394 . S
C793 C799 1.465 1_565 S
C794 C789 1.399 . S
C794 C793 1.394 . S
C794 C795 1.516 1_565 S
C795 C794 1.516 1_545 S
C795 C796 1.502 . S
C795 C797 1.561 1_545 S
C795 C798 1.526 . S
C796 H780 0.959 . S
C796 H781 0.959 . S
C796 H782 0.961 . S
C796 C795 1.502 . S
C797 H783 0.960 . S
C797 H784 0.961 . S
C797 H785 0.959 . S
C797 C795 1.561 1_565 S
C798 C795 1.526 . S
C798 C799 1.396 . S
C798 C803 1.390 . S
C799 C793 1.465 1_545 S
C799 C798 1.396 . S
C799 C800 1.399 . S
C800 H786 0.923 1_545 S
C800 C799 1.399 . S
C800 C801 1.385 . S
C801 H787 0.931 . S
C801 C800 1.385 . S
C801 C802 1.389 . S
C802 C801 1.389 . S
C802 C803 1.387 . S
C803 H788 0.930 . S
C803 C798 1.390 . S
C803 C802 1.387 . S
C169 C96 1.463 . S
C181 C5 1.463 . S
C196 C16 1.458 . S
C208 C109 1.446 . S
C223 C29 1.445 . S
C235 C122 1.457 . S
C250 C42 1.433 . S
C262 C133 1.422 . S
C277 C148 1.459 . S
C289 C55 1.464 . S
C304 C83 1.425 . S
C316 C68 1.438 . S
C331 C135 1.206 . S
C343 C3 1.221 . S
C358 C18 1.210 . S
C370 C146 1.228 . S
C385 C31 1.211 . S
C397 C81 1.228 . S
C412 C94 1.208 . S
C424 C44 1.216 . S
C439 C107 1.206 . S
C451 C57 1.221 . S
C466 C120 1.220 . S
C478 C70 1.207 . S
C493 C10 1.648 . S
C505 C114 1.646 . S
C520 C17 1.647 . S
C532 C127 1.654 . S
C547 C134 1.671 . S
C559 C30 1.674 . S
C574 C43 1.653 . S
C586 C153 1.647 . S
C601 C88 1.673 . S
C613 C56 1.668 . S
C628 C101 1.648 . S
C640 C69 1.646 . S
C655 C49 1.635 . S
C667 C4 1.606 . S
C682 C62 1.604 . S
C694 C23 1.631 . S
C709 C36 1.605 . S
C721 C75 1.629 . S
C736 C82 1.622 . S
C748 C121 1.612 . S
C763 C95 1.633 . S
C775 C140 1.608 . S
C790 C147 1.606 . S
C802 C108 1.628 . S
