# Generated by pormake.
# Topology fna, (5)-cn, num edge types: 1
# Building blocks:
#     Node 0, Type 0, BuildingBlock: XOMCOT_clean_sbu_1, # of connection points: 5
#     Node 1, Type 0, BuildingBlock: XOMCOT_clean_sbu_1, # of connection points: 5
#     Node 2, Type 0, BuildingBlock: XOMCOT_clean_sbu_1, # of connection points: 5
#     Node 3, Type 0, BuildingBlock: XOMCOT_clean_sbu_1, # of connection points: 5
#     Node 4, Type 0, BuildingBlock: XOMCOT_clean_sbu_1, # of connection points: 5
#     Node 5, Type 0, BuildingBlock: XOMCOT_clean_sbu_1, # of connection points: 5
#     Node 6, Type 0, BuildingBlock: XOMCOT_clean_sbu_1, # of connection points: 5
#     Node 7, Type 0, BuildingBlock: XOMCOT_clean_sbu_1, # of connection points: 5
#     Node 8, Type 0, BuildingBlock: XOMCOT_clean_sbu_1, # of connection points: 5
#     Node 9, Type 0, BuildingBlock: XOMCOT_clean_sbu_1, # of connection points: 5
#     Node 10, Type 0, BuildingBlock: XOMCOT_clean_sbu_1, # of connection points: 5
#     Node 11, Type 0, BuildingBlock: XOMCOT_clean_sbu_1, # of connection points: 5
#     Edge 12, Type (0, 0), BuildingBlock: XUDNAN_clean_linker_2, # of connection points: 2
#     Edge 13, Type (0, 0), BuildingBlock: XUDNAN_clean_linker_2, # of connection points: 2
#     Edge 14, Type (0, 0), BuildingBlock: XUDNAN_clean_linker_2, # of connection points: 2
#     Edge 15, Type (0, 0), BuildingBlock: XUDNAN_clean_linker_2, # of connection points: 2
#     Edge 16, Type (0, 0), BuildingBlock: XUDNAN_clean_linker_2, # of connection points: 2
#     Edge 17, Type (0, 0), BuildingBlock: XUDNAN_clean_linker_2, # of connection points: 2
#     Edge 18, Type (0, 0), BuildingBlock: XUDNAN_clean_linker_2, # of connection points: 2
#     Edge 19, Type (0, 0), BuildingBlock: XUDNAN_clean_linker_2, # of connection points: 2
#     Edge 20, Type (0, 0), BuildingBlock: XUDNAN_clean_linker_2, # of connection points: 2
#     Edge 21, Type (0, 0), BuildingBlock: XUDNAN_clean_linker_2, # of connection points: 2
#     Edge 22, Type (0, 0), BuildingBlock: XUDNAN_clean_linker_2, # of connection points: 2
#     Edge 23, Type (0, 0), BuildingBlock: XUDNAN_clean_linker_2, # of connection points: 2
#     Edge 24, Type (0, 0), BuildingBlock: XUDNAN_clean_linker_2, # of connection points: 2
#     Edge 25, Type (0, 0), BuildingBlock: XUDNAN_clean_linker_2, # of connection points: 2
#     Edge 26, Type (0, 0), BuildingBlock: XUDNAN_clean_linker_2, # of connection points: 2
#     Edge 27, Type (0, 0), BuildingBlock: XUDNAN_clean_linker_2, # of connection points: 2
#     Edge 28, Type (0, 0), BuildingBlock: XUDNAN_clean_linker_2, # of connection points: 2
#     Edge 29, Type (0, 0), BuildingBlock: XUDNAN_clean_linker_2, # of connection points: 2
#     Edge 30, Type (0, 0), BuildingBlock: XUDNAN_clean_linker_2, # of connection points: 2
#     Edge 31, Type (0, 0), BuildingBlock: XUDNAN_clean_linker_2, # of connection points: 2
#     Edge 32, Type (0, 0), BuildingBlock: XUDNAN_clean_linker_2, # of connection points: 2
#     Edge 33, Type (0, 0), BuildingBlock: XUDNAN_clean_linker_2, # of connection points: 2
#     Edge 34, Type (0, 0), BuildingBlock: XUDNAN_clean_linker_2, # of connection points: 2
#     Edge 35, Type (0, 0), BuildingBlock: XUDNAN_clean_linker_2, # of connection points: 2
#     Edge 36, Type (0, 0), BuildingBlock: XUDNAN_clean_linker_2, # of connection points: 2
#     Edge 37, Type (0, 0), BuildingBlock: XUDNAN_clean_linker_2, # of connection points: 2
#     Edge 38, Type (0, 0), BuildingBlock: XUDNAN_clean_linker_2, # of connection points: 2
#     Edge 39, Type (0, 0), BuildingBlock: XUDNAN_clean_linker_2, # of connection points: 2
#     Edge 40, Type (0, 0), BuildingBlock: XUDNAN_clean_linker_2, # of connection points: 2
#     Edge 41, Type (0, 0), BuildingBlock: XUDNAN_clean_linker_2, # of connection points: 2
# Relax obj value: 0.385
# Max RMSD: 0.208
# Mean RMSD: 0.208
data_MOF--net-fna--node1-XOMCOT_clean_sbu_1--edge1-XUDNAN_clean_linker_2
_symmetry_space_group_name_H-M    P1
_symmetry_Int_Tables_number       1
_symmetry_cell_setting            triclinic
loop_
_symmetry_equiv_pos_as_xyz
'x, y, z'
_cell_length_a     46.010731
_cell_length_b     45.935971
_cell_length_c     42.094543
_cell_angle_alpha  90.093895
_cell_angle_beta   89.854134
_cell_angle_gamma 119.89733
loop_
_atom_site_label
_atom_site_type_symbol
_atom_site_fract_x
_atom_site_fract_y
_atom_site_fract_z
_atom_type_partial_charge
C0 C 0.39973 0.3307 0.50823 0.0
C1 C 0.41102 0.34192 0.53825 0.0
N2 N 0.38441 0.33452 0.557 0.0
N3 N 0.36612 0.31646 0.50765 0.0
C4 C 0.35729 0.31885 0.53779 0.0
H5 H 0.4149 0.3314 0.48826 0.0
Co6 Co 0.34224 0.29259 0.4722 0.0
C7 C 0.2927 0.3148 0.4625 0.0
O8 O 0.30395 0.32276 0.43323 0.0
N9 N 0.31954 0.26625 0.43665 0.0
C10 C 0.2816 0.22826 0.40391 0.0
C11 C 0.28748 0.2522 0.42655 0.0
C12 C 0.33196 0.24926 0.42067 0.0
N13 N 0.3096 0.22613 0.40037 0.0
O14 O 0.31979 0.25327 0.49792 0.0
H15 H 0.26831 0.25636 0.43668 0.0
H16 H 0.35618 0.252 0.42598 0.0
O17 O 0.30584 0.30258 0.4812 0.0
C18 C 0.33793 0.24094 0.5063 0.0
O19 O 0.36848 0.25406 0.4948 0.0
N20 N 0.36652 0.33246 0.44741 0.0
C21 C 0.41559 0.3939 0.4223 0.0
C22 C 0.3949 0.39292 0.44711 0.0
C23 C 0.37053 0.36207 0.45926 0.0
C24 C 0.38588 0.33305 0.42249 0.0
C25 C 0.41023 0.36355 0.40922 0.0
H26 H 0.35651 0.36214 0.47985 0.0
H27 H 0.38433 0.31018 0.41405 0.0
H28 H 0.33156 0.30822 0.5456 0.0
H29 H 0.43682 0.3531 0.54589 0.0
H30 H 0.25781 0.21241 0.39243 0.0
H31 H 0.39842 0.41588 0.4579 0.0
H32 H 0.42617 0.36343 0.3903 0.0
C33 C 0.08561 0.39511 0.67747 0.0
C34 C 0.08399 0.40042 0.70939 0.0
N35 N 0.06171 0.37099 0.72266 0.0
N36 N 0.06459 0.36243 0.67087 0.0
C37 C 0.05026 0.34831 0.69891 0.0
H38 H 0.10256 0.41334 0.66046 0.0
Co39 Co 0.06507 0.34224 0.63297 0.0
C40 C 0.99138 0.29685 0.62393 0.0
O41 O 0.99282 0.31202 0.59703 0.0
N42 N 0.06829 0.32223 0.59487 0.0
C43 C 0.06365 0.28933 0.55387 0.0
C44 C 0.04661 0.29497 0.5778 0.0
C45 C 0.09846 0.33176 0.58131 0.0
N46 N 0.09628 0.31236 0.5564 0.0
O47 O 0.08055 0.31663 0.65563 0.0
H48 H 0.0205 0.27855 0.58303 0.0
H49 H 0.12182 0.3525 0.58974 0.0
O50 O 1.01816 0.30628 0.64007 0.0
C51 C 0.11186 0.33389 0.66107 0.0
O52 O 0.12852 0.36442 0.64932 0.0
N53 N 0.0521 0.37027 0.6112 0.0
C54 C 0.04478 0.42315 0.58729 0.0
C55 C 0.02448 0.40315 0.61223 0.0
C56 C 0.02855 0.37693 0.62387 0.0
C57 C 0.07186 0.38942 0.58672 0.0
C58 C 0.06823 0.41557 0.57408 0.0
H59 H 1.0137 0.36285 0.64411 0.0
H60 H 0.09192 0.38592 0.57791 0.0
H61 H 0.03406 0.32157 0.70235 0.0
H62 H 0.09917 0.42362 0.72219 0.0
H63 H 0.05318 0.26884 0.53695 0.0
H64 H 1.00607 0.40818 0.62312 0.0
H65 H 0.08491 0.43086 0.55523 0.0
C66 C 0.70079 0.07113 0.84283 0.0
C67 C 0.6925 0.06409 0.87443 0.0
N68 N 0.70483 0.04467 0.88477 0.0
N69 N 0.71828 0.05625 0.83344 0.0
C70 C 0.72037 0.04034 0.85952 0.0
H71 H 0.69513 0.08671 0.82776 0.0
Co72 Co 0.73893 0.06183 0.79411 0.0
C73 C 0.72932 0.991 0.78911 0.0
O74 O 0.70989 0.98141 0.76399 0.0
N75 N 0.76084 0.06922 0.75458 0.0
C76 C 0.77383 0.06774 0.70387 0.0
C77 C 0.75186 0.05018 0.72804 0.0
C78 C 0.78832 0.09832 0.74574 0.0
N79 N 0.79677 0.09809 0.71505 0.0
O80 O 0.78111 0.08516 0.81503 0.0
H81 H 0.72953 0.02607 0.72545 0.0
H82 H 0.80083 0.12009 0.76096 0.0
O83 O 0.74031 0.0204 0.80061 0.0
C84 C 0.78829 0.11393 0.82554 0.0
O85 O 0.76943 0.12663 0.81707 0.0
N86 N 0.69631 0.03999 0.77475 0.0
C87 C 0.63018 0.01971 0.7573 0.0
C88 C 0.63729 1.00049 0.77847 0.0
C89 C 0.67041 1.01115 0.78703 0.0
C90 C 0.69006 0.05847 0.75338 0.0
C91 C 0.65728 0.04853 0.74396 0.0
H92 H 0.67495 0.99758 0.80548 0.0
H93 H 0.71042 0.08212 0.74491 0.0
H94 H 0.7341 0.02692 0.86038 0.0
H95 H 0.67852 0.07256 0.88869 0.0
H96 H 0.77231 0.0592 0.67963 0.0
H97 H 0.61737 0.9786 0.79012 0.0
H98 H 0.65321 0.06409 0.72734 0.0
C99 C 0.64895 0.68797 0.01052 0.0
C100 C 0.64875 0.67869 0.04156 0.0
N101 N 0.68078 0.69196 0.05139 0.0
N102 N 0.68092 0.70682 0.00071 0.0
C103 C 0.69975 0.70887 0.02604 0.0
H104 H 0.62721 0.68245 0.99637 0.0
Co105 Co 0.69455 0.7291 0.96223 0.0
C106 C 0.75277 0.71968 0.94507 0.0
O107 O 0.74254 0.71116 0.9157 0.0
N108 N 0.7079 0.75275 0.92279 0.0
C109 C 0.71311 0.76674 0.87139 0.0
C110 C 0.70408 0.74088 0.89271 0.0
C111 C 0.71956 0.78606 0.91875 0.0
N112 N 0.72283 0.79516 0.88792 0.0
O113 O 0.71657 0.7705 0.98523 0.0
H114 H 0.69432 0.71487 0.88628 0.0
H115 H 0.72403 0.80342 0.93789 0.0
O116 O 0.73578 0.72678 0.96439 0.0
C117 C 0.69626 0.77985 0.99489 0.0
O118 O 0.6647 0.7622 0.9862 0.0
N119 N 0.67014 0.68746 0.94154 0.0
C120 C 0.62072 0.6231 0.92353 0.0
C121 C 0.65109 0.62854 0.93638 0.0
C122 C 0.67521 0.66084 0.94599 0.0
C123 C 0.641 0.68264 0.92837 0.0
C124 C 0.61593 0.65064 0.91919 0.0
H125 H 0.69664 0.66379 0.95907 0.0
H126 H 0.63648 0.70355 0.92664 0.0
H127 H 0.72683 0.72334 0.02603 0.0
H128 H 0.62664 0.66462 0.05611 0.0
H129 H 0.71197 0.76463 0.84575 0.0
H130 H 0.6552 0.60766 0.94089 0.0
H131 H 0.5926 0.64728 0.90966 0.0
C132 C 0.9602 0.63712 0.17158 0.0
C133 C 0.96139 0.6312 0.20344 0.0
N134 N 0.98071 0.66091 0.21785 0.0
N135 N 0.97854 0.67042 0.16614 0.0
C136 C 0.99092 0.68428 0.19477 0.0
H137 H 0.94493 0.6187 0.15392 0.0
Co138 Co 0.97581 0.69134 0.12958 0.0
C139 C 0.04568 0.74423 0.1181 0.0
O140 O 0.04223 0.73361 0.08858 0.0
N141 N 0.97036 0.71231 0.09334 0.0
C142 C 0.96589 0.75146 0.06587 0.0
C143 C 0.98408 0.74575 0.08837 0.0
C144 C 0.94311 0.69848 0.07415 0.0
N145 N 0.94021 0.72165 0.05695 0.0
O146 O 0.95688 0.71237 0.15433 0.0
H147 H 1.00365 0.7652 0.10257 0.0
H148 H 0.92345 0.6725 0.07553 0.0
O149 O 0.02098 0.72966 0.13738 0.0
C150 C 0.92604 0.69266 0.16025 0.0
O151 O 0.91092 0.6631 0.14635 0.0
N152 N 0.9933 0.66803 0.10583 0.0
C153 C 1.00896 0.62049 0.08218 0.0
C154 C 0.02859 0.64302 0.1059 0.0
C155 C 0.02046 0.66666 0.1173 0.0
C156 C 0.97432 0.64645 0.08229 0.0
C157 C 0.98214 0.62299 0.06967 0.0
H158 H 0.03467 0.68224 0.13709 0.0
H159 H 0.9516 0.6454 0.07459 0.0
H160 H 1.00436 0.71108 0.19913 0.0
H161 H 0.94768 0.60722 0.2154 0.0
H162 H 0.96982 0.77568 0.05828 0.0
H163 H 0.04931 0.64155 0.11637 0.0
H164 H 0.96596 0.60542 0.05178 0.0
C165 C 0.33099 0.95083 0.34594 0.0
C166 C 0.33684 0.95513 0.37814 0.0
N167 N 0.32344 0.97338 0.38933 0.0
N168 N 0.31434 0.96666 0.33693 0.0
C169 C 0.31018 0.98019 0.36381 0.0
H170 H 0.33713 0.93592 0.33036 0.0
Co171 Co 0.29475 0.96409 0.29777 0.0
C172 C 0.2855 0.0223 0.3016 0.0
O173 O 0.25383 1.00233 0.29436 0.0
N174 N 0.27433 0.9604 0.25878 0.0
C175 C 0.26198 0.96768 0.2096 0.0
C176 C 0.28342 0.98269 0.2348 0.0
C177 C 0.24755 0.93219 0.24775 0.0
N178 N 0.23943 0.93586 0.21782 0.0
O179 O 0.25289 0.94905 0.31904 0.0
H180 H 0.30469 1.00791 0.23536 0.0
H181 H 0.23514 0.90895 0.26101 0.0
O182 O 0.30557 1.01067 0.30232 0.0
C183 C 0.23997 0.91976 0.3308 0.0
O184 O 0.25408 0.90154 0.32479 0.0
N185 N 0.3358 0.97673 0.27763 0.0
C186 C 0.39579 0.97897 0.26152 0.0
C187 C 0.39601 1.00503 0.27929 0.0
C188 C 0.36559 1.00352 0.28699 0.0
C189 C 0.33533 0.95278 0.25821 0.0
C190 C 0.36501 0.95381 0.24934 0.0
H191 H 0.36585 0.02203 0.30307 0.0
H192 H 0.31167 0.93128 0.25151 0.0
H193 H 0.29649 0.99367 0.36475 0.0
H194 H 0.3485 0.94421 0.39241 0.0
H195 H 0.26316 0.97922 0.18688 0.0
H196 H 0.41906 0.02489 0.28932 0.0
H197 H 0.36356 0.93367 0.23479 0.0
C198 C 0.6917 0.63243 0.32151 0.0
C199 C 0.68619 0.62998 0.28925 0.0
N200 N 0.70438 0.66088 0.27656 0.0
N201 N 0.71289 0.6648 0.32907 0.0
C202 C 0.72017 0.68148 0.30124 0.0
H203 H 0.68191 0.61181 0.33821 0.0
Co204 Co 0.73289 0.68174 0.36808 0.0
C205 C 0.752 0.75271 0.35572 0.0
O206 O 0.78392 0.76198 0.35799 0.0
N207 N 0.75382 0.69807 0.40694 0.0
C208 C 0.78037 0.72852 0.44946 0.0
C209 C 0.758 0.72392 0.42547 0.0
C210 C 0.77291 0.68684 0.42051 0.0
N211 N 0.78943 0.70501 0.44615 0.0
O212 O 0.77555 0.70158 0.34774 0.0
H213 H 0.74654 0.73917 0.42133 0.0
H214 H 0.7758 0.66656 0.4109 0.0
O215 O 0.72974 0.72205 0.36039 0.0
C216 C 0.78529 0.68124 0.33935 0.0
O217 O 0.7672 0.64957 0.34778 0.0
N218 N 0.69053 0.65994 0.38746 0.0
C219 C 0.62446 0.60968 0.398 0.0
C220 C 0.63154 0.63934 0.38216 0.0
C221 C 0.66481 0.66427 0.37713 0.0
C222 C 0.68414 0.63271 0.40544 0.0
C223 C 0.65116 0.60729 0.41121 0.0
H224 H 0.66959 0.68503 0.36187 0.0
H225 H 0.70461 0.62899 0.41259 0.0
H226 H 0.73758 0.70812 0.29908 0.0
H227 H 0.6712 0.60704 0.27603 0.0
H228 H 0.78956 0.74778 0.46761 0.0
H229 H 0.6116 0.64219 0.37173 0.0
H230 H 0.64679 0.58467 0.42333 0.0
C231 C 0.08393 0.72196 0.47757 0.0
C232 C 0.07757 0.71411 0.44585 0.0
N233 N 0.04928 0.71435 0.43825 0.0
N234 N 0.05979 0.72715 0.4898 0.0
C235 C 0.03907 0.72247 0.46522 0.0
H236 H 0.10491 0.72398 0.49092 0.0
Co237 Co 0.05968 0.7411 0.53126 0.0
C238 C 0.9857 0.71008 0.54151 0.0
O239 O 0.98716 0.69365 0.56644 0.0
N240 N 0.06203 0.75749 0.573 0.0
C241 C 0.05614 0.78199 0.61645 0.0
C242 C 0.04015 0.76264 0.59031 0.0
C243 C 0.0914 0.77499 0.5889 0.0
N244 N 0.08846 0.79006 0.61527 0.0
O245 O 0.07445 0.78501 0.51518 0.0
H246 H 1.01505 0.75587 0.58345 0.0
H247 H 0.11495 0.7779 0.58059 0.0
O248 O 1.01258 0.73016 0.52653 0.0
C249 C 0.10604 0.80089 0.51094 0.0
O250 O 0.12336 0.78723 0.52148 0.0
N251 N 0.04711 0.69707 0.54577 0.0
C252 C 0.04119 0.63374 0.55353 0.0
C253 C 0.01934 0.63804 0.53357 0.0
C254 C 0.02292 0.66977 0.52975 0.0
C255 C 0.06766 0.69307 0.56649 0.0
C256 C 0.06486 0.66148 0.57103 0.0
H257 H 1.00746 0.67262 0.51219 0.0
H258 H 0.08794 0.71468 0.5779 0.0
H259 H 1.01721 0.72543 0.46685 0.0
H260 H 0.09227 0.70818 0.42974 0.0
H261 H 0.04548 0.79168 0.63357 0.0
H262 H 1.00063 0.6173 0.51968 0.0
H263 H 0.08257 0.65931 0.58633 0.0
C264 C 0.38379 0.05663 0.65543 0.0
C265 C 0.38365 0.04945 0.62371 0.0
N266 N 0.35155 0.03239 0.61381 0.0
N267 N 0.35192 0.04377 0.66557 0.0
C268 C 0.33283 0.02939 0.63967 0.0
H269 H 0.4057 0.07082 0.67011 0.0
Co270 Co 0.3391 0.04902 0.70602 0.0
C271 C 0.28235 0.97815 0.71795 0.0
O272 O 0.296 0.97488 0.74397 0.0
N273 N 0.32688 0.05624 0.74745 0.0
C274 C 0.31938 0.05609 0.79976 0.0
C275 C 0.3248 0.0401 0.77489 0.0
C276 C 0.32337 0.08266 0.75682 0.0
N277 N 0.31885 0.08329 0.78858 0.0
O278 O 0.31676 0.0704 0.68727 0.0
H279 H 0.32988 0.01976 0.77765 0.0
H280 H 0.32605 0.10228 0.74097 0.0
O281 O 0.29714 1.00533 0.7018 0.0
C282 C 0.33696 0.1005 0.67883 0.0
O283 O 0.36864 0.1139 0.68701 0.0
N284 N 0.36375 0.02987 0.72292 0.0
C285 C 0.41372 0.01383 0.73641 0.0
C286 C 0.38567 0.99227 0.718 0.0
C287 C 0.3611 1.00082 0.71137 0.0
C288 C 0.39045 0.05082 0.74132 0.0
C289 C 0.41531 0.04298 0.74887 0.0
H290 H 0.34137 0.98539 0.6949 0.0
H291 H 0.39335 0.07462 0.74896 0.0
H292 H 0.30576 0.01741 0.63972 0.0
H293 H 0.40554 0.05725 0.60885 0.0
H294 H 0.31746 0.04871 0.82438 0.0
H295 H 0.38365 0.97 0.70704 0.0
H296 H 0.43618 0.06032 0.76344 0.0
C297 C 0.34635 0.38357 0.82245 0.0
C298 C 0.36208 0.3885 0.79377 0.0
N299 N 0.35386 0.35829 0.78158 0.0
N300 N 0.32859 0.35039 0.82871 0.0
C301 C 0.33321 0.3354 0.80303 0.0
H302 H 0.34746 0.40303 0.83773 0.0
Co303 Co 0.30386 0.33476 0.86593 0.0
C304 C 0.3078 0.27379 0.88347 0.0
O305 O 0.31137 0.28253 0.91348 0.0
N306 N 0.27803 0.32068 0.90423 0.0
C307 C 0.26251 0.31727 0.95508 0.0
C308 C 0.28882 0.3252 0.93472 0.0
C309 C 0.24483 0.3101 0.90709 0.0
N310 N 0.23482 0.30796 0.93764 0.0
O311 O 0.26387 0.31412 0.84108 0.0
H312 H 0.31448 0.33477 0.9421 0.0
H313 H 0.22846 0.30612 0.88722 0.0
O314 O 0.30529 0.29266 0.86268 0.0
C315 C 0.25628 0.33474 0.82887 0.0
O316 O 0.27424 0.36673 0.83622 0.0
N317 N 0.34445 0.35757 0.88863 0.0
C318 C 0.41013 0.40739 0.90326 0.0
C319 C 0.40288 0.37509 0.89368 0.0
C320 C 0.37012 0.35091 0.88561 0.0
C321 C 0.3504 0.38765 0.90055 0.0
C322 C 0.38297 0.41295 0.9078 0.0
H323 H 0.3663 0.32819 0.87433 0.0
H324 H 0.33016 0.39321 0.90149 0.0
H325 H 0.32198 0.3085 0.80019 0.0
H326 H 0.37793 0.41245 0.78237 0.0
H327 H 0.26392 0.31916 0.98072 0.0
H328 H 0.42255 0.36895 0.89049 0.0
H329 H 0.38677 0.43733 0.91453 0.0
C330 C 0.95543 0.32721 0.98192 0.0
C331 C 0.96316 0.33554 0.9504 0.0
N332 N 0.98705 0.32821 0.94208 0.0
N333 N 0.97427 0.31457 0.99318 0.0
C334 C 0.99326 0.31548 0.96832 0.0
H335 H 0.9371 0.32995 0.99577 0.0
Co336 Co 0.97106 0.29754 0.0338 0.0
C337 C 0.04155 0.30634 0.03815 0.0
O338 O 0.05144 0.32544 0.06355 0.0
N339 N 0.96608 0.27943 0.07498 0.0
C340 C 0.96939 0.27162 0.12677 0.0
C341 C 0.98522 0.29221 0.10119 0.0
C342 C 0.93864 0.25126 0.08551 0.0
N343 N 0.93997 0.24583 0.11683 0.0
O344 O 0.94737 0.25361 0.01611 0.0
H345 H 1.00815 0.31605 0.10239 0.0
H346 H 0.91703 0.2359 0.07096 0.0
O347 O 1.01227 0.29599 0.02688 0.0
C348 C 0.91717 0.24356 0.00825 0.0
O349 O 0.90339 0.26136 0.01724 0.0
N350 N 0.99323 0.34177 0.04957 0.0
C351 C 1.01148 0.40916 0.05754 0.0
C352 C 0.03182 0.4002 0.04003 0.0
C353 C 0.02216 0.36637 0.03613 0.0
C354 C 0.9742 0.35006 0.06827 0.0
C355 C 0.98308 0.38367 0.0729 0.0
H356 H 0.03627 0.36004 0.01977 0.0
H357 H 0.95054 0.33046 0.07756 0.0
H358 H 1.01093 0.3065 0.96909 0.0
H359 H 0.95246 0.34655 0.93495 0.0
H360 H 0.97846 0.27595 0.15098 0.0
H361 H 0.05393 0.41908 0.02774 0.0
H362 H 0.96637 0.3894 0.08619 0.0
C363 C 0.64598 0.96256 0.15349 0.0
C364 C 0.64114 0.96622 0.12184 0.0
N365 N 0.67125 0.98658 0.10867 0.0
N366 N 0.67905 0.9804 0.16 0.0
C367 C 0.69383 0.99469 0.13213 0.0
H368 H 0.62699 0.94598 0.17015 0.0
Co369 Co 0.6994 0.97613 0.19643 0.0
C370 C 0.74656 0.04813 0.21029 0.0
O371 O 0.73315 0.04447 0.23866 0.0
N372 N 0.71987 0.96949 0.23237 0.0
C373 C 0.75627 0.96887 0.26687 0.0
C374 C 0.75039 0.98826 0.2458 0.0
C375 C 0.7084 0.93861 0.24507 0.0
N376 N 0.72976 0.93753 0.26633 0.0
O377 O 0.72344 0.9611 0.17035 0.0
H378 H 0.76874 0.01354 0.23921 0.0
H379 H 0.68555 0.91673 0.23727 0.0
O380 O 0.73568 0.02285 0.19164 0.0
C381 C 0.704 0.93084 0.16188 0.0
O382 O 0.67356 0.91485 0.17386 0.0
N383 N 0.67266 0.98857 0.22166 0.0
C384 C 0.61499 0.98848 0.24358 0.0
C385 C 0.63671 0.01288 0.22187 0.0
C386 C 0.66562 1.01271 0.21146 0.0
C387 C 0.65343 0.9668 0.24495 0.0
C388 C 0.62519 0.96698 0.25679 0.0
H389 H 0.68029 0.02975 0.19264 0.0
H390 H 0.65776 0.94703 0.25271 0.0
H391 H 0.7207 1.00806 0.12843 0.0
H392 H 0.61772 0.95307 0.10898 0.0
H393 H 0.77895 0.97694 0.28047 0.0
H394 H 0.63016 0.03011 0.21089 0.0
H395 H 0.61007 0.94847 0.27449 0.0
H396 H 0.37557 0.16442 0.65762 0.0
H397 H 0.27575 0.07785 0.64966 0.0
H398 H 0.26241 0.10692 0.60746 0.0
H399 H 0.35256 0.22971 0.63963 0.0
H400 H 0.39081 0.25442 0.61766 0.0
H401 H 0.39008 0.22912 0.65068 0.0
H402 H 0.41267 0.19932 0.61402 0.0
H403 H 0.41321 0.22421 0.5809 0.0
H404 H 0.39013 0.17903 0.57825 0.0
H405 H 0.26229 0.14449 0.56236 0.0
H406 H 0.27642 0.18534 0.51815 0.0
H407 H 0.37729 0.24414 0.55495 0.0
C408 C 0.35058 0.15178 0.64763 0.0
C409 C 0.32663 0.11894 0.65706 0.0
C410 C 0.29439 0.10318 0.64301 0.0
C411 C 0.2866 0.11951 0.61904 0.0
C412 C 0.31129 0.15158 0.6096 0.0
C413 C 0.34258 0.16755 0.6237 0.0
C414 C 0.36592 0.20048 0.60759 0.0
C415 C 0.3754 0.23019 0.63024 0.0
C416 C 0.39731 0.20074 0.59441 0.0
C417 C 0.3435 0.19995 0.58125 0.0
C418 C 0.31176 0.17212 0.58315 0.0
C419 C 0.28704 0.16641 0.56081 0.0
C420 C 0.29521 0.18959 0.53582 0.0
C421 C 0.32801 0.21738 0.53311 0.0
C422 C 0.35216 0.22272 0.55631 0.0
H423 H 0.17771 0.36718 0.67657 0.0
H424 H 0.08428 0.27609 0.69742 0.0
H425 H 0.11275 0.26258 0.74013 0.0
H426 H 0.23541 0.33527 0.69519 0.0
H427 H 0.26559 0.37488 0.7124 0.0
H428 H 0.23908 0.37378 0.68043 0.0
H429 H 0.21871 0.40675 0.71536 0.0
H430 H 0.24476 0.40764 0.7475 0.0
H431 H 0.20037 0.39028 0.75371 0.0
H432 H 0.1515 0.26223 0.78399 0.0
H433 H 0.19525 0.27652 0.82525 0.0
H434 H 0.26038 0.36962 0.77614 0.0
C435 C 0.16327 0.34394 0.68954 0.0
C436 C 0.12882 0.32259 0.68357 0.0
C437 C 0.11082 0.29266 0.70143 0.0
C438 C 0.12679 0.28481 0.7257 0.0
C439 C 0.16068 0.30711 0.7316 0.0
C440 C 0.17862 0.33601 0.71382 0.0
C441 C 0.21366 0.35775 0.72647 0.0
C442 C 0.23998 0.36057 0.70218 0.0
C443 C 0.2197 0.39264 0.73635 0.0
C444 C 0.21244 0.33727 0.7549 0.0
C445 C 0.18209 0.30771 0.75722 0.0
C446 C 0.17538 0.28523 0.78222 0.0
C447 C 0.20023 0.29347 0.8055 0.0
C448 C 0.2308 0.32427 0.80383 0.0
C449 C 0.23698 0.34608 0.77807 0.0
H450 H 0.78448 0.15185 0.87269 0.0
H451 H 0.84412 0.10892 0.83898 0.0
H452 H 0.88198 0.13352 0.88541 0.0
H453 H 0.84974 0.22845 0.90125 0.0
H454 H 0.82655 0.22949 0.93539 0.0
H455 H 0.8046 0.20772 0.90003 0.0
H456 H 0.76964 0.1534 0.93309 0.0
H457 H 0.79185 0.17494 0.96855 0.0
H458 H 0.7909 0.13684 0.95638 0.0
H459 H 0.9152 0.16676 0.93408 0.0
H460 H 0.94053 0.20513 0.97985 0.0
H461 H 0.85579 0.22205 0.98215 0.0
C462 C 0.80567 0.14782 0.87488 0.0
C463 C 0.81189 0.12909 0.85209 0.0
C464 C 0.83926 0.12354 0.85619 0.0
C465 C 0.86069 0.13725 0.88248 0.0
C466 C 0.85374 0.15561 0.90465 0.0
C467 C 0.82666 0.16057 0.90115 0.0
C468 C 0.82435 0.18116 0.92797 0.0
C469 C 0.82646 0.21362 0.9154 0.0
C470 C 0.79229 0.16034 0.94766 0.0
C471 C 0.85522 0.18836 0.94657 0.0
C472 C 0.87178 0.17323 0.93304 0.0
C473 C 0.90217 0.1783 0.94511 0.0
C474 C 0.91632 0.20006 0.97115 0.0
C475 C 0.90003 0.21643 0.98467 0.0
C476 C 0.8687 0.20966 0.97264 0.0
H477 H 0.65656 0.8016 0.02115 0.0
H478 H 0.75941 0.82227 0.01911 0.0
H479 H 0.77466 0.86725 0.05922 0.0
H480 H 0.67468 0.88807 0.0331 0.0
H481 H 0.63901 0.87479 0.05899 0.0
H482 H 0.63791 0.84744 0.02773 0.0
H483 H 0.62388 0.80047 0.06924 0.0
H484 H 0.62525 0.82779 0.10055 0.0
H485 H 0.65145 0.80896 0.10263 0.0
H486 H 0.77718 0.90861 0.10241 0.0
H487 H 0.76581 0.93903 0.14531 0.0
H488 H 0.66092 0.88775 0.11873 0.0
C489 C 0.68247 0.81587 0.02864 0.0
C490 C 0.70683 0.80855 0.01687 0.0
C491 C 0.74035 0.82762 0.0277 0.0
C492 C 0.74923 0.85323 0.05042 0.0
C493 C 0.72429 0.85938 0.06192 0.0
C494 C 0.6916 0.84113 0.05125 0.0
C495 C 0.66873 0.85054 0.0686 0.0
C496 C 0.65424 0.86615 0.04574 0.0
C497 C 0.6407 0.82014 0.0863 0.0
C498 C 0.69335 0.87637 0.09138 0.0
C499 C 0.72546 0.8818 0.08698 0.0
C500 C 0.75211 0.90453 0.10593 0.0
C501 C 0.74551 0.92169 0.13017 0.0
C502 C 0.71247 0.9153 0.13546 0.0
C503 C 0.68637 0.89273 0.1155 0.0
H504 H 0.87624 0.64641 0.19707 0.0
H505 H 0.93926 0.75388 0.18422 0.0
H506 H 0.91155 0.76367 0.23051 0.0
H507 H 0.80136 0.64522 0.2204 0.0
H508 H 0.79018 0.61232 0.24922 0.0
H509 H 0.81474 0.61473 0.21496 0.0
H510 H 0.86073 0.61643 0.25188 0.0
H511 H 0.83638 0.61432 0.28627 0.0
H512 H 0.87892 0.64828 0.2822 0.0
H513 H 0.87398 0.76058 0.27717 0.0
H514 H 0.83234 0.74513 0.32064 0.0
H515 H 0.79829 0.63977 0.30363 0.0
C516 C 0.88402 0.67206 0.20371 0.0
C517 C 0.90941 0.69944 0.18685 0.0
C518 C 0.91956 0.7326 0.19679 0.0
C519 C 0.90403 0.73834 0.22301 0.0
C520 C 0.87902 0.7106 0.23922 0.0
C521 C 0.86941 0.67815 0.23 0.0
C522 C 0.84267 0.6525 0.25153 0.0
C523 C 0.81033 0.62988 0.23291 0.0
C524 C 0.85545 0.63167 0.26901 0.0
C525 C 0.83807 0.67546 0.27406 0.0
C526 C 0.85907 0.7089 0.26666 0.0
C527 C 0.85775 0.73447 0.28339 0.0
C528 C 0.83409 0.72549 0.30802 0.0
C529 C 0.81241 0.69129 0.31576 0.0
C530 C 0.8149 0.66617 0.29874 0.0
H531 H 0.24911 0.90191 0.38892 0.0
H532 H 0.17892 0.91689 0.33283 0.0
H533 H 0.13832 0.89591 0.37781 0.0
H534 H 0.19303 0.82723 0.42259 0.0
H535 H 0.21312 0.83556 0.46086 0.0
H536 H 0.23742 0.85606 0.42613 0.0
H537 H 0.25791 0.91374 0.45291 0.0
H538 H 0.23316 0.89362 0.48771 0.0
H539 H 0.22774 0.92495 0.46713 0.0
H540 H 0.1026 0.86426 0.42589 0.0
H541 H 0.07608 0.82657 0.47194 0.0
H542 H 0.17222 0.83716 0.49717 0.0
C543 C 0.22534 0.90123 0.38638 0.0
C544 C 0.21664 0.91046 0.35763 0.0
C545 C 0.1857 0.90973 0.3549 0.0
C546 C 0.1627 0.89804 0.3803 0.0
C547 C 0.17173 0.88829 0.40833 0.0
C548 C 0.20265 0.89041 0.41157 0.0
C549 C 0.20572 0.87624 0.4429 0.0
C550 C 0.2127 0.84704 0.43779 0.0
C551 C 0.23274 0.9038 0.4639 0.0
C552 C 0.17107 0.86413 0.45624 0.0
C553 C 0.1518 0.87153 0.43628 0.0
C554 C 0.11772 0.85913 0.4421 0.0
C555 C 0.10286 0.8378 0.46835 0.0
C556 C 0.12213 0.82909 0.48824 0.0
C557 C 0.15686 0.84365 0.48269 0.0
H558 H 0.25971 0.16661 0.37653 0.0
H559 H 0.36801 0.22827 0.38354 0.0
H560 H 0.37413 0.18386 0.35672 0.0
H561 H 0.25418 0.08906 0.39152 0.0
H562 H 0.22078 0.06592 0.3636 0.0
H563 H 0.22508 0.10325 0.38199 0.0
H564 H 0.22783 0.12891 0.3265 0.0
H565 H 0.22342 0.09157 0.30791 0.0
H566 H 0.2586 0.13204 0.29803 0.0
H567 H 0.36804 0.13039 0.3323 0.0
H568 H 0.3501 0.07371 0.3108 0.0
H569 H 0.24619 0.04917 0.31765 0.0
C570 C 0.28483 0.17134 0.37203 0.0
C571 C 0.31335 0.20119 0.38253 0.0
C572 C 0.34565 0.20558 0.37632 0.0
C573 C 0.34942 0.18052 0.36086 0.0
C574 C 0.32071 0.15129 0.35133 0.0
C575 C 0.28906 0.14678 0.35644 0.0
C576 C 0.26214 0.11278 0.34466 0.0
C577 C 0.23921 0.09151 0.37208 0.0
C578 C 0.24181 0.11657 0.31767 0.0
C579 C 0.28354 0.09861 0.33253 0.0
C580 C 0.31728 0.12113 0.33656 0.0
C581 C 0.34169 0.11276 0.32865 0.0
C582 C 0.33128 0.08051 0.31648 0.0
C583 C 0.29678 0.05711 0.3122 0.0
C584 C 0.27278 0.06661 0.32009 0.0
H585 H 0.26926 0.31655 0.52284 0.0
H586 H 0.24679 0.31528 0.42253 0.0
H587 H 0.19487 0.31543 0.43602 0.0
H588 H 0.18463 0.26344 0.54964 0.0
H589 H 0.18931 0.28681 0.58555 0.0
H590 H 0.2251 0.2866 0.56837 0.0
H591 H 0.25704 0.35157 0.56634 0.0
H592 H 0.22134 0.35198 0.58353 0.0
H593 H 0.23845 0.37291 0.54626 0.0
H594 H 0.14381 0.31212 0.4596 0.0
H595 H 0.09832 0.31022 0.49271 0.0
H596 H 0.15452 0.31794 0.57774 0.0
C597 C 0.25338 0.31637 0.5038 0.0
C598 C 0.26211 0.31586 0.47162 0.0
C599 C 0.24081 0.31586 0.44735 0.0
C600 C 0.21114 0.31583 0.45474 0.0
C601 C 0.20319 0.31629 0.48655 0.0
C602 C 0.22377 0.31697 0.51077 0.0
C603 C 0.20932 0.31799 0.54297 0.0
C604 C 0.20163 0.28685 0.5628 0.0
C605 C 0.23295 0.35056 0.56082 0.0
C606 C 0.17732 0.3174 0.53293 0.0
C607 C 0.17422 0.31608 0.50025 0.0
C608 C 0.14611 0.31358 0.48521 0.0
C609 C 0.12042 0.31243 0.50408 0.0
C610 C 0.12327 0.31436 0.53752 0.0
C611 C 0.15218 0.31709 0.55212 0.0
H612 H 0.85802 0.1474 0.73576 0.0
H613 H 0.79307 0.11191 0.65326 0.0
H614 H 0.83573 0.15919 0.62186 0.0
H615 H 0.89277 0.23651 0.72115 0.0
H616 H 0.93445 0.24788 0.73401 0.0
H617 H 0.89868 0.21147 0.75058 0.0
H618 H 0.924 0.17452 0.73374 0.0
H619 H 0.95985 0.21083 0.71714 0.0
H620 H 0.93547 0.1743 0.69278 0.0
H621 H 0.884 0.21024 0.59956 0.0
H622 H 0.93703 0.26105 0.58624 0.0
H623 H 0.97317 0.26402 0.68211 0.0
C624 C 0.85282 0.14976 0.71113 0.0
C625 C 0.82218 0.12583 0.69693 0.0
C626 C 0.81643 0.12956 0.66454 0.0
C627 C 0.84044 0.1565 0.64656 0.0
C628 C 0.87031 0.17952 0.66117 0.0
C629 C 0.8768 0.17644 0.69263 0.0
C630 C 0.91149 0.20446 0.70207 0.0
C631 C 0.9092 0.22637 0.72852 0.0
C632 C 0.93403 0.19016 0.71201 0.0
C633 C 0.92331 0.22371 0.67098 0.0
C634 C 0.89891 0.20889 0.64789 0.0
C635 C 0.90337 0.22204 0.61738 0.0
C636 C 0.93364 0.25104 0.61009 0.0
C637 C 0.95939 0.2666 0.63307 0.0
C638 C 0.95407 0.25264 0.66398 0.0
H639 H 0.70282 0.92366 0.7766 0.0
H640 H 0.77022 1.00285 0.84056 0.0
H641 H 0.77829 0.9616 0.87103 0.0
H642 H 0.66265 0.861 0.83519 0.0
H643 H 0.65884 0.82708 0.81065 0.0
H644 H 0.66006 0.86317 0.79261 0.0
H645 H 0.71048 0.87235 0.75781 0.0
H646 H 0.70942 0.83624 0.77576 0.0
H647 H 0.74749 0.87637 0.77656 0.0
H648 H 0.77654 0.91121 0.89641 0.0
H649 H 0.76521 0.85541 0.91461 0.0
H650 H 0.6992 0.80907 0.83416 0.0
C651 C 0.71964 0.93247 0.79675 0.0
C652 C 0.73588 0.96658 0.80613 0.0
C653 C 0.75742 0.97689 0.83288 0.0
C654 C 0.76225 0.95364 0.85032 0.0
C655 C 0.74555 0.92017 0.84065 0.0
C656 C 0.72477 0.9096 0.81443 0.0
C657 C 0.70873 0.87196 0.80982 0.0
C658 C 0.6703 0.8548 0.81222 0.0
C659 C 0.7197 0.86376 0.7781 0.0
C660 C 0.72339 0.86295 0.83778 0.0
C661 C 0.74466 0.89114 0.8552 0.0
C662 C 0.76011 0.889 0.88282 0.0
C663 C 0.7534 0.85718 0.89307 0.0
C664 C 0.73141 0.82786 0.87579 0.0
C665 C 0.71659 0.83101 0.84757 0.0
H666 H 0.79232 0.75027 0.99715 0.0
H667 H 0.77718 0.68114 0.92021 0.0
H668 H 0.82262 0.67299 0.94144 0.0
H669 H 0.88264 0.7899 0.99769 0.0
H670 H 0.88587 0.79501 0.04023 0.0
H671 H 0.85143 0.79454 0.01954 0.0
H672 H 0.80934 0.74593 0.05553 0.0
H673 H 0.84366 0.74617 0.07628 0.0
H674 H 0.8117 0.708 0.05819 0.0
H675 H 0.86794 0.67017 0.97264 0.0
H676 H 0.91442 0.67824 0.00815 0.0
H677 H 0.90318 0.7524 0.06196 0.0
C678 C 0.79863 0.73346 0.98477 0.0
C679 C 0.78117 0.71627 0.95706 0.0
C680 C 0.79032 0.69471 0.94137 0.0
C681 C 0.81597 0.68976 0.95335 0.0
C682 C 0.83258 0.70693 0.9808 0.0
C683 C 0.82463 0.72874 0.99605 0.0
C684 C 0.84724 0.7451 0.02443 0.0
C685 C 0.86803 0.78341 0.0202 0.0
C686 C 0.82676 0.73573 0.05544 0.0
C687 C 0.86914 0.72909 0.02274 0.0
C688 C 0.85989 0.7067 0.99772 0.0
C689 C 0.87564 0.68792 0.99208 0.0
C690 C 0.90185 0.69251 0.0123 0.0
C691 C 0.91242 0.71615 0.0373 0.0
C692 C 0.89577 0.73456 0.04261 0.0
H693 H 0.17999 0.88244 0.23696 0.0
H694 H 0.24077 0.93106 0.15372 0.0
H695 H 0.19776 0.88709 0.11966 0.0
H696 H 0.14896 0.79705 0.21089 0.0
H697 H 0.10751 0.78157 0.22707 0.0
H698 H 0.14295 0.81688 0.24532 0.0
H699 H 0.114 0.85251 0.23901 0.0
H700 H 0.0784 0.81725 0.2209 0.0
H701 H 0.09993 0.85688 0.2003 0.0
H702 H 0.1494 0.83768 0.09467 0.0
H703 H 0.09702 0.78689 0.07962 0.0
H704 H 0.06612 0.76984 0.17863 0.0
C705 C 0.1843 0.88372 0.21159 0.0
C706 C 0.21382 0.91032 0.19801 0.0
C707 C 0.21826 0.91128 0.16464 0.0
C708 C 0.19405 0.88627 0.14511 0.0
C709 C 0.16537 0.86044 0.15922 0.0
C710 C 0.16021 0.859 0.19165 0.0
C711 C 0.1268 0.82864 0.20056 0.0
C712 C 0.13188 0.80462 0.22224 0.0
C713 C 0.1034 0.83948 0.2161 0.0
C714 C 0.11413 0.81327 0.16803 0.0
C715 C 0.13694 0.832 0.14462 0.0
C716 C 0.13127 0.82284 0.11275 0.0
C717 C 0.10141 0.79385 0.10446 0.0
C718 C 0.07735 0.77435 0.12789 0.0
C719 C 0.08392 0.78427 0.16014 0.0
H720 H 0.97186 0.75163 0.50517 0.0
H721 H 0.92489 0.65513 0.55304 0.0
H722 H 0.86945 0.64402 0.53463 0.0
H723 H 0.90639 0.77111 0.5241 0.0
H724 H 0.90945 0.79131 0.48657 0.0
H725 H 0.94575 0.79165 0.50299 0.0
H726 H 0.95261 0.76495 0.45131 0.0
H727 H 0.9164 0.76459 0.43468 0.0
H728 H 0.9179 0.72618 0.43701 0.0
H729 H 0.81951 0.64176 0.50868 0.0
H730 H 0.77768 0.65057 0.47961 0.0
H731 H 0.85555 0.74997 0.45213 0.0
C732 C 0.94987 0.72819 0.51174 0.0
C733 C 0.95267 0.7042 0.53051 0.0
C734 C 0.92333 0.67394 0.53883 0.0
C735 C 0.89172 0.66734 0.52842 0.0
C736 C 0.88974 0.69148 0.51007 0.0
C737 C 0.91794 0.72146 0.50205 0.0
C738 C 0.90861 0.74337 0.48258 0.0
C739 C 0.91811 0.77631 0.50012 0.0
C740 C 0.92484 0.75016 0.44943 0.0
C741 C 0.87085 0.72087 0.48071 0.0
C742 C 0.86058 0.69092 0.4965 0.0
C743 C 0.82716 0.66531 0.49667 0.0
C744 C 0.80362 0.67044 0.48022 0.0
C745 C 0.81351 0.70108 0.46443 0.0
C746 C 0.84747 0.72668 0.46481 0.0
H747 H 0.26068 0.95646 0.65667 0.0
H748 H 0.23189 0.93424 0.75573 0.0
H749 H 0.17942 0.88365 0.73993 0.0
H750 H 0.17693 0.9267 0.62453 0.0
H751 H 0.18416 0.90845 0.58957 0.0
H752 H 0.21867 0.94415 0.60841 0.0
H753 H 0.25018 0.91091 0.61347 0.0
H754 H 0.21567 0.87498 0.59491 0.0
H755 H 0.23026 0.87086 0.63344 0.0
H756 H 0.13003 0.83603 0.714 0.0
H757 H 0.08701 0.79273 0.67897 0.0
H758 H 0.14859 0.84247 0.59672 0.0
C759 C 0.24302 0.94117 0.67491 0.0
C760 C 0.25011 0.94941 0.70744 0.0
C761 C 0.22685 0.9284 0.7307 0.0
C762 C 0.19699 0.89963 0.72197 0.0
C763 C 0.19089 0.89183 0.68983 0.0
C764 C 0.21322 0.9118 0.66659 0.0
C765 C 0.20099 0.89667 0.63385 0.0
C766 C 0.19481 0.92041 0.61286 0.0
C767 C 0.22576 0.88783 0.61799 0.0
C768 C 0.16832 0.86523 0.64243 0.0
C769 C 0.16294 0.86319 0.67486 0.0
C770 C 0.13405 0.83718 0.68859 0.0
C771 C 0.10981 0.81273 0.66862 0.0
C772 C 0.11478 0.81408 0.63539 0.0
C773 C 0.14458 0.84054 0.62216 0.0
H774 H 0.30133 0.24593 0.82332 0.0
H775 H 0.31878 0.23309 0.92244 0.0
H776 H 0.32323 0.18363 0.90834 0.0
H777 H 0.2508 0.15693 0.80535 0.0
H778 H 0.2678 0.16059 0.76599 0.0
H779 H 0.26594 0.19549 0.78338 0.0
H780 H 0.32972 0.23359 0.77429 0.0
H781 H 0.3318 0.1988 0.75691 0.0
H782 H 0.35829 0.22116 0.79011 0.0
H783 H 0.32713 0.13683 0.88456 0.0
H784 H 0.32896 0.09354 0.85246 0.0
H785 H 0.30699 0.1334 0.76785 0.0
C786 C 0.30603 0.23266 0.84202 0.0
C787 C 0.30972 0.24359 0.87406 0.0
C788 C 0.31582 0.22541 0.89777 0.0
C789 C 0.31844 0.1972 0.89002 0.0
C790 C 0.31479 0.18716 0.85841 0.0
C791 C 0.3086 0.2041 0.8347 0.0
C792 C 0.30558 0.18746 0.80264 0.0
C793 C 0.27043 0.17433 0.78851 0.0
C794 C 0.33298 0.2117 0.77963 0.0
C795 C 0.31118 0.15868 0.81222 0.0
C796 C 0.31649 0.15925 0.84452 0.0
C797 C 0.32269 0.13586 0.85925 0.0
C798 C 0.32342 0.11102 0.84059 0.0
C799 C 0.31774 0.1093 0.80731 0.0
C800 C 0.31156 0.13373 0.79306 0.0
H801 H 0.10886 0.33209 0.04963 0.0
H802 H 0.02873 0.26563 0.98614 0.0
H803 H 0.06923 0.25741 0.9544 0.0
H804 H 0.17138 0.37218 0.99044 0.0
H805 H 0.20506 0.37507 0.01452 0.0
H806 H 0.16951 0.37453 0.03309 0.0
H807 H 0.15943 0.32339 0.06721 0.0
H808 H 0.19501 0.3238 0.04876 0.0
H809 H 0.15454 0.28615 0.0479 0.0
H810 H 0.1192 0.25861 0.92792 0.0
H811 H 0.17445 0.26812 0.9098 0.0
H812 H 0.22157 0.33324 0.99081 0.0
C813 C 0.0997 0.3155 0.02927 0.0
C814 C 0.06555 0.29963 0.02038 0.0
C815 C 0.05476 0.27827 0.99339 0.0
C816 C 0.07758 0.27335 0.97522 0.0
C817 C 0.11112 0.28975 0.9844 0.0
C818 C 0.12212 0.31023 0.0109 0.0
C819 C 0.15963 0.32557 0.01522 0.0
C820 C 0.17743 0.36412 0.01319 0.0
C821 C 0.16761 0.31403 0.04664 0.0
C822 C 0.16806 0.31074 0.98687 0.0
C823 C 0.13975 0.29014 0.96938 0.0
C824 C 0.1415 0.27453 0.94157 0.0
C825 C 0.173 0.28021 0.93136 0.0
C826 C 0.20238 0.30125 0.94893 0.0
C827 C 0.19961 0.3165 0.97714 0.0
H828 H 0.77828 0.06765 0.15199 0.0
H829 H 0.78199 0.10253 0.24867 0.0
H830 H 0.83206 0.15634 0.2352 0.0
H831 H 0.86732 0.10601 0.14023 0.0
H832 H 0.86628 0.11734 0.09944 0.0
H833 H 0.83048 0.0813 0.11644 0.0
H834 H 0.79266 0.10595 0.10096 0.0
H835 H 0.82832 0.14203 0.08385 0.0
H836 H 0.80368 0.14758 0.11407 0.0
H837 H 0.88227 0.20599 0.21194 0.0
H838 H 0.92792 0.24943 0.17954 0.0
H839 H 0.89207 0.18325 0.09762 0.0
C840 C 0.78961 0.08662 0.17031 0.0
C841 C 0.77616 0.08074 0.20145 0.0
C842 C 0.7917 0.10634 0.22465 0.0
C843 C 0.82025 0.13704 0.21727 0.0
C844 C 0.83297 0.14197 0.18649 0.0
C845 C 0.81809 0.11762 0.16328 0.0
C846 C 0.83673 0.12965 0.13194 0.0
C847 C 0.85106 0.10724 0.12141 0.0
C848 C 0.81399 0.13141 0.10619 0.0
C849 C 0.86445 0.16446 0.14129 0.0
C850 C 0.86183 0.17094 0.1729 0.0
C851 C 0.8846 0.20123 0.18715 0.0
C852 C 0.91065 0.2257 0.16857 0.0
C853 C 0.91376 0.21989 0.13598 0.0
C854 C 0.89026 0.18869 0.12233 0.0
H855 H 0.77997 0.92606 0.28483 0.0
H856 H 0.67181 0.88193 0.2835 0.0
H857 H 0.66565 0.83048 0.30841 0.0
H858 H 0.78159 0.85185 0.26549 0.0
H859 H 0.8165 0.86079 0.29096 0.0
H860 H 0.81241 0.89472 0.27454 0.0
H861 H 0.81444 0.91789 0.33117 0.0
H862 H 0.8186 0.88402 0.34778 0.0
H863 H 0.78513 0.89084 0.36086 0.0
H864 H 0.67131 0.78303 0.33179 0.0
H865 H 0.68823 0.74303 0.35116 0.0
H866 H 0.79281 0.81833 0.3375 0.0
C867 C 0.75499 0.90586 0.29026 0.0
C868 C 0.72634 0.90813 0.28223 0.0
C869 C 0.6941 0.88069 0.28915 0.0
C870 C 0.69037 0.85144 0.30347 0.0
C871 C 0.71912 0.84995 0.3108 0.0
C872 C 0.75082 0.87645 0.30446 0.0
C873 C 0.77761 0.868 0.3136 0.0
C874 C 0.79823 0.86889 0.28441 0.0
C875 C 0.80028 0.89159 0.33992 0.0
C876 C 0.75603 0.83251 0.32585 0.0
C877 C 0.72237 0.82262 0.32417 0.0
C878 C 0.69762 0.79058 0.33337 0.0
C879 C 0.7075 0.76798 0.34433 0.0
C880 C 0.74187 0.77743 0.34597 0.0
C881 C 0.76635 0.81031 0.3368 0.0
H882 H 0.46569 0.44 0.45975 0.0
H883 H 0.43071 0.42048 0.36236 0.0
H884 H 0.47894 0.47529 0.34612 0.0
H885 H 0.49753 0.52958 0.46037 0.0
H886 H 0.53362 0.53875 0.48419 0.0
H887 H 0.49559 0.49892 0.48827 0.0
H888 H 0.52844 0.46784 0.4765 0.0
H889 H 0.56657 0.50754 0.47252 0.0
H890 H 0.553 0.47738 0.44061 0.0
H891 H 0.5306 0.53234 0.34093 0.0
H892 H 0.58482 0.58489 0.3457 0.0
H893 H 0.58781 0.56595 0.44624 0.0
C894 C 0.46811 0.4475 0.43505 0.0
C895 C 0.44441 0.4264 0.41226 0.0
C896 C 0.44863 0.43648 0.38008 0.0
C897 C 0.4758 0.46754 0.37074 0.0
C898 C 0.49868 0.48789 0.39385 0.0
C899 C 0.49535 0.47808 0.42528 0.0
C900 C 0.52437 0.50367 0.44512 0.0
C901 C 0.51203 0.51861 0.47101 0.0
C902 C 0.54427 0.48818 0.45953 0.0
C903 C 0.54459 0.52952 0.41997 0.0
C904 C 0.52909 0.52012 0.39066 0.0
C905 C 0.54291 0.53995 0.36376 0.0
C906 C 0.5736 0.5699 0.36678 0.0
C907 C 0.59038 0.57966 0.39641 0.0
C908 C 0.57551 0.55916 0.42334 0.0
H909 H 0.04311 0.47217 0.62349 0.0
H910 H 0.0427 0.44138 0.52593 0.0
H911 H 0.04146 0.4917 0.50708 0.0
H912 H 0.98794 0.50652 0.61218 0.0
H913 H 1.01073 0.54107 0.63915 0.0
H914 H 1.01057 0.50215 0.645 0.0
H915 H 0.0755 0.53421 0.64394 0.0
H916 H 0.07588 0.57322 0.63794 0.0
H917 H 0.09728 0.56033 0.61028 0.0
H918 H 0.04026 0.54489 0.4988 0.0
H919 H 0.04043 0.59857 0.50124 0.0
H920 H 0.04303 0.59633 0.60422 0.0
C921 C 0.04234 0.47585 0.59817 0.0
C922 C 0.04278 0.45277 0.57611 0.0
C923 C 0.04246 0.45878 0.54318 0.0
C924 C 0.04167 0.48722 0.53228 0.0
C925 C 0.04147 0.50956 0.55462 0.0
C926 C 0.04191 0.50433 0.58687 0.0
C927 C 0.04251 0.53281 0.60578 0.0
C928 C 1.01106 0.51986 0.62676 0.0
C929 C 0.07471 0.55123 0.62565 0.0
C930 C 0.04225 0.55483 0.5791 0.0
C931 C 0.04147 0.54077 0.54982 0.0
C932 C 0.04078 0.55609 0.52157 0.0
C933 C 0.04072 0.58651 0.52323 0.0
C934 C 0.04146 0.60151 0.55291 0.0
C935 C 0.04253 0.58551 0.58121 0.0
H936 H 0.60623 0.0636 0.7502 0.0
H937 H 0.57367 0.95713 0.75233 0.0
H938 H 0.5148 0.94388 0.74815 0.0
H939 H 0.54012 0.06024 0.79549 0.0
H940 H 0.53653 0.09128 0.77237 0.0
H941 H 0.57618 0.09251 0.77484 0.0
H942 H 0.57902 0.09033 0.71345 0.0
H943 H 0.5396 0.0896 0.71076 0.0
H944 H 0.54456 0.057 0.69207 0.0
H945 H 0.45897 0.94245 0.74623 0.0
H946 H 0.41135 0.95287 0.743 0.0
H947 H 0.48129 0.06018 0.73839 0.0
C948 C 0.58692 0.03744 0.74908 0.0
C949 C 0.59484 1.01145 0.75166 0.0
C950 C 0.5684 0.97758 0.75085 0.0
C951 C 0.53483 0.96977 0.74834 0.0
C952 C 0.528 0.99605 0.74638 0.0
C953 C 0.55336 0.02919 0.74632 0.0
C954 C 0.53942 0.05282 0.74393 0.0
C955 C 0.54861 0.07554 0.77342 0.0
C956 C 0.55135 0.07366 0.71322 0.0
C957 C 0.50221 0.02781 0.74293 0.0
C958 C 0.49607 0.9952 0.74451 0.0
C959 C 0.46353 0.9679 0.74462 0.0
C960 C 0.4366 0.9741 0.74264 0.0
C961 C 0.44229 1.00736 0.74037 0.0
C962 C 0.47573 0.03444 0.74062 0.0
H963 H 0.55722 0.59251 0.94784 0.0
H964 H 0.62257 0.57588 0.88537 0.0
H965 H 0.57642 0.51799 0.87481 0.0
H966 H 0.51561 0.50885 0.98223 0.0
H967 H 0.47548 0.50668 0.9851 0.0
H968 H 0.51351 0.54672 0.9874 0.0
H969 H 0.49321 0.56887 0.94082 0.0
H970 H 0.45512 0.52894 0.93841 0.0
H971 H 0.48138 0.54609 0.9038 0.0
H972 H 0.52206 0.46355 0.8686 0.0
H973 H 0.4649 0.41553 0.8688 0.0
H974 H 0.4364 0.46534 0.94021 0.0
C975 C 0.56166 0.57664 0.93183 0.0
C976 C 0.5932 0.58857 0.91707 0.0
C977 C 0.59847 0.56708 0.89675 0.0
C978 C 0.57245 0.53426 0.89066 0.0
C979 C 0.54159 0.52322 0.90558 0.0
C980 C 0.5362 0.54364 0.92602 0.0
C981 C 0.50091 0.52548 0.93944 0.0
C982 C 0.50142 0.52171 0.97569 0.0
C983 C 0.48151 0.54341 0.93004 0.0
C984 C 0.48703 0.49184 0.92288 0.0
C985 C 0.51086 0.49114 0.90338 0.0
C986 C 0.50339 0.46354 0.88431 0.0
C987 C 0.47068 0.43603 0.88495 0.0
C988 C 0.44562 0.43583 0.90496 0.0
C989 C 0.45443 0.46425 0.92445 0.0
H990 H 1.00822 0.44775 0.10632 0.0
H991 H 0.02609 0.44867 0.00496 0.0
H992 H 0.03043 0.50422 0.00064 0.0
H993 H 0.95718 0.48494 0.1028 0.0
H994 H 0.97362 0.50974 0.13834 0.0
H995 H 0.97414 0.47101 0.13401 0.0
H996 H 0.03828 0.50256 0.1436 0.0
H997 H 0.03794 0.54142 0.14808 0.0
H998 H 0.06515 0.5382 0.11914 0.0
H999 H 0.02713 0.55694 0.00621 0.0
H1000 H 0.02076 0.60538 0.02245 0.0
H1001 H 1.0079 0.572 0.12032 0.0
C1002 C 1.01347 0.45987 0.08332 0.0
C1003 C 1.01715 0.44398 0.05604 0.0
C1004 C 0.02384 0.4606 0.02631 0.0
C1005 C 0.02614 0.49209 0.02356 0.0
C1006 C 0.02202 0.5069 0.0508 0.0
C1007 C 1.01626 0.49158 0.0802 0.0
C1008 C 1.0121 0.51267 0.1056 0.0
C1009 C 0.97719 0.49344 0.12109 0.0
C1010 C 0.04004 0.52441 0.13058 0.0
C1011 C 1.01576 0.54185 0.08577 0.0
C1012 C 0.02133 0.53797 0.05417 0.0
C1013 C 0.02338 0.56058 0.03097 0.0
C1014 C 0.01966 0.58791 0.04032 0.0
C1015 C 1.01443 0.59257 0.0726 0.0
C1016 C 1.01267 0.56934 0.09557 0.0
H1017 H 0.46289 0.0283 0.25356 0.0
H1018 H 0.39768 0.92075 0.26594 0.0
H1019 H 0.44633 0.91265 0.26316 0.0
H1020 H 0.52118 0.02349 0.19905 0.0
H1021 H 0.55785 0.05876 0.21585 0.0
H1022 H 0.51782 0.05681 0.21825 0.0
H1023 H 0.52362 0.06312 0.2794 0.0
H1024 H 0.56366 0.06502 0.27719 0.0
H1025 H 0.53088 0.03407 0.30205 0.0
H1026 H 0.50046 0.91494 0.25812 0.0
H1027 H 0.55834 0.9275 0.25157 0.0
H1028 H 0.5915 0.03413 0.24585 0.0
C1029 C 0.45888 1.00308 0.2557 0.0
C1030 C 0.42611 0.97511 0.25924 0.0
C1031 C 0.42216 0.94255 0.26212 0.0
C1032 C 0.44976 0.93764 0.26093 0.0
C1033 C 0.48146 0.96552 0.25721 0.0
C1034 C 0.48639 0.99764 0.25472 0.0
C1035 C 0.52353 0.02304 0.25106 0.0
C1036 C 0.53049 0.04162 0.21915 0.0
C1037 C 0.53617 0.04778 0.2791 0.0
C1038 C 0.53843 0.99999 0.25174 0.0
C1039 C 0.51349 0.96697 0.25533 0.0
C1040 C 0.52035 0.94075 0.2558 0.0
C1041 C 0.5536 0.94832 0.25244 0.0
C1042 C 0.58007 0.98198 0.24899 0.0
C1043 C 0.57213 1.00816 0.24861 0.0
H1044 H 0.31652 0.31391 0.73533 0.0
H1045 H 0.41678 0.39234 0.75982 0.0
H1046 H 0.43574 0.39202 0.70509 0.0
H1047 H 0.3435 0.26937 0.67728 0.0
H1048 H 0.3093 0.25973 0.65056 0.0
H1049 H 0.30401 0.26252 0.69272 0.0
H1050 H 0.28612 0.30695 0.68292 0.0
H1051 H 0.2914 0.30464 0.64077 0.0
H1052 H 0.31353 0.34448 0.66096 0.0
H1053 H 0.44202 0.3897 0.64779 0.0
H1054 H 0.43766 0.38119 0.59026 0.0
H1055 H 0.33391 0.30201 0.60085 0.0
C1056 C 0.34266 0.33005 0.72923 0.0
C1057 C 0.36538 0.35309 0.75159 0.0
C1058 C 0.3992 0.3746 0.74285 0.0
C1059 C 0.41013 0.37457 0.71191 0.0
C1060 C 0.38693 0.35267 0.69001 0.0
C1061 C 0.35404 0.33037 0.69818 0.0
C1062 C 0.33406 0.31107 0.66918 0.0
C1063 C 0.322 0.27343 0.67263 0.0
C1064 C 0.30454 0.31716 0.66311 0.0
C1065 C 0.36066 0.327 0.64347 0.0
C1066 C 0.3909 0.35078 0.65626 0.0
C1067 C 0.41877 0.37049 0.63749 0.0
C1068 C 0.41601 0.36533 0.60471 0.0
C1069 C 0.38567 0.3404 0.59079 0.0
C1070 C 0.35751 0.32116 0.61058 0.0
H1071 H 1.00255 0.34275 0.75379 0.0
H1072 H 0.10937 0.38431 0.76607 0.0
H1073 H 0.1012 0.3743 0.82407 0.0
H1074 H 0.99117 0.38083 0.8225 0.0
H1075 H 0.95055 0.34601 0.83256 0.0
H1076 H 0.96431 0.35311 0.79181 0.0
H1077 H 0.95454 0.29255 0.78813 0.0
H1078 H 0.94064 0.28521 0.82889 0.0
H1079 H 0.97453 0.27879 0.81639 0.0
H1080 H 0.08162 0.36098 0.88028 0.0
H1081 H 0.0525 0.34923 0.93209 0.0
H1082 H 0.95868 0.3198 0.88395 0.0
C1083 C 0.02397 0.34923 0.76886 0.0
C1084 C 0.05652 0.36406 0.75594 0.0
C1085 C 0.08432 0.37295 0.77596 0.0
C1086 C 0.07986 0.36721 0.80872 0.0
C1087 C 0.04746 0.35292 0.82096 0.0
C1088 C 0.01998 0.34429 0.80174 0.0
C1089 C 0.98824 0.33168 0.82124 0.0
C1090 C 0.97267 0.35426 0.81676 0.0
C1091 C 0.963 0.29487 0.81318 0.0
C1092 C 1.00226 0.335 0.8544 0.0
C1093 C 0.03636 0.34671 0.85363 0.0
C1094 C 0.05493 0.35178 0.88123 0.0
C1095 C 0.03823 0.34499 0.91048 0.0
C1096 C 1.0035 0.33381 0.91186 0.0
C1097 C 0.98533 0.32866 0.88344 0.0
H1098 H 0.70578 0.07506 0.94039 0.0
H1099 H 0.69809 0.98453 0.90022 0.0
H1100 H 0.69136 0.96067 0.95416 0.0
H1101 H 0.75274 0.07696 0.01117 0.0
H1102 H 0.73178 0.09241 0.03654 0.0
H1103 H 0.73738 0.10304 0.99494 0.0
H1104 H 0.67351 0.07897 0.98863 0.0
H1105 H 0.66753 0.0684 0.03019 0.0
H1106 H 0.64497 0.03639 0.00079 0.0
H1107 H 0.68124 0.94512 0.01182 0.0
H1108 H 0.67102 0.94011 0.07004 0.0
H1109 H 0.68703 0.04116 0.07296 0.0
C1110 C 0.70269 0.05024 0.94303 0.0
C1111 C 0.70225 0.03149 0.91624 0.0
C1112 C 0.6987 0.99931 0.92053 0.0
C1113 C 0.69478 0.98557 0.95101 0.0
C1114 C 0.69498 1.00458 0.97693 0.0
C1115 C 0.6992 0.03636 0.97331 0.0
C1116 C 0.69814 0.05139 0.00507 0.0
C1117 C 0.73203 0.08281 0.01235 0.0
C1118 C 0.66931 0.05923 0.00622 0.0
C1119 C 0.6916 0.02266 0.02702 0.0
C1120 C 0.69002 0.99594 0.0103 0.0
C1121 C 0.6828 0.96598 0.0252 0.0
C1122 C 0.67695 0.96326 0.05804 0.0
C1123 C 0.67844 0.9903 0.07541 0.0
C1124 C 0.68612 0.02041 0.05987 0.0
H1125 H 0.64564 0.64641 0.09767 0.0
H1126 H 0.7414 0.73552 0.0778 0.0
H1127 H 0.75896 0.73546 0.13294 0.0
H1128 H 0.63489 0.67173 0.17401 0.0
H1129 H 0.61557 0.63015 0.19085 0.0
H1130 H 0.61159 0.63545 0.14903 0.0
H1131 H 0.63637 0.597 0.13602 0.0
H1132 H 0.64036 0.59151 0.17784 0.0
H1133 H 0.6765 0.60689 0.15222 0.0
H1134 H 0.76487 0.72766 0.19123 0.0
H1135 H 0.75893 0.71204 0.2479 0.0
H1136 H 0.65851 0.62954 0.22994 0.0
C1137 C 0.67032 0.66595 0.10475 0.0
C1138 C 0.69202 0.69095 0.08313 0.0
C1139 C 0.72433 0.71577 0.09355 0.0
C1140 C 0.73454 0.71608 0.12497 0.0
C1141 C 0.71221 0.69142 0.1457 0.0
C1142 C 0.68082 0.66676 0.13599 0.0
C1143 C 0.66103 0.6439 0.16321 0.0
C1144 C 0.62888 0.64542 0.16965 0.0
C1145 C 0.65312 0.60768 0.15694 0.0
C1146 C 0.68604 0.65986 0.18989 0.0
C1147 C 0.71547 0.68712 0.17929 0.0
C1148 C 0.74196 0.70632 0.19979 0.0
C1149 C 0.73822 0.69743 0.232 0.0
C1150 C 0.70815 0.66966 0.2434 0.0
C1151 C 0.6819 0.65063 0.2219 0.0
H1152 H 0.03819 0.69932 0.24991 0.0
H1153 H 0.93085 0.63619 0.26109 0.0
H1154 H 0.9364 0.64631 0.31916 0.0
H1155 H 0.05986 0.67001 0.31912 0.0
H1156 H 0.0954 0.71014 0.32922 0.0
H1157 H 0.08256 0.70035 0.28841 0.0
H1158 H 0.07741 0.75387 0.28428 0.0
H1159 H 0.09023 0.76385 0.32512 0.0
H1160 H 0.05124 0.76018 0.31215 0.0
H1161 H 0.95389 0.6627 0.37586 0.0
H1162 H 0.98244 0.68015 0.42789 0.0
H1163 H 0.07882 0.72987 0.3802 0.0
C1164 C 1.01598 0.68797 0.26474 0.0
C1165 C 0.98412 0.66703 0.2514 0.0
C1166 C 0.95544 0.65209 0.2712 0.0
C1167 C 0.95837 0.65789 0.30405 0.0
C1168 C 0.99022 0.67841 0.31663 0.0
C1169 C 1.01858 0.69298 0.29766 0.0
C1170 C 0.05005 0.71208 0.31739 0.0
C1171 C 0.07333 0.69725 0.31329 0.0
C1172 C 0.0683 0.74973 0.30925 0.0
C1173 C 0.03499 0.70565 0.35044 0.0
C1174 C 1.00042 0.6867 0.34943 0.0
C1175 C 0.98095 0.67756 0.37696 0.0
C1176 C 0.99731 0.68766 0.40635 0.0
C1177 C 0.03274 0.70618 0.40794 0.0
C1178 C 0.05171 0.71546 0.37958 0.0
H1179 H 0.38246 0.0153 0.56861 0.0
H1180 H 0.29485 0.02518 0.58642 0.0
H1181 H 0.27699 1.00943 0.53073 0.0
H1182 H 0.40005 0.05068 0.49141 0.0
H1183 H 0.41317 0.02248 0.4758 0.0
H1184 H 0.41795 0.03269 0.51746 0.0
H1185 H 0.38354 0.96938 0.53154 0.0
H1186 H 0.37876 0.95898 0.48989 0.0
H1187 H 0.34226 0.9441 0.51493 0.0
H1188 H 0.27061 0.99575 0.47216 0.0
H1189 H 0.27452 0.98226 0.41611 0.0
H1190 H 0.36679 0.98213 0.43684 0.0
C1191 C 0.35952 0.01417 0.56083 0.0
C1192 C 0.3401 0.02154 0.58187 0.0
C1193 C 0.30995 0.01928 0.57085 0.0
C1194 C 0.29971 1.01054 0.53921 0.0
C1195 C 0.31978 1.00394 0.519 0.0
C1196 C 0.34891 1.00539 0.52946 0.0
C1197 C 0.36627 0.99763 0.50295 0.0
C1198 C 0.40143 0.02766 0.49653 0.0
C1199 C 0.36778 0.96562 0.51027 0.0
C1200 C 0.34264 0.99208 0.47577 0.0
C1201 C 0.31597 0.99582 0.48547 0.0
C1202 C 0.29136 0.99272 0.46431 0.0
C1203 C 0.29399 0.98537 0.43244 0.0
C1204 C 0.32108 0.98128 0.42202 0.0
C1205 C 0.3456 0.98468 0.44413 0.0
loop_
_geom_bond_atom_site_label_1
_geom_bond_atom_site_label_2
_geom_bond_distance
_geom_bond_site_symmetry_2
_ccdc_geom_bond_type
C0 C1 1.351 . S
C0 N3 1.368 . S
C0 H5 0.931 . S
C1 C0 1.351 . S
C1 N2 1.373 . S
C1 H29 0.930 . S
N2 C1 1.373 . S
N2 C4 1.340 . S
N3 C0 1.368 . S
N3 C4 1.321 . S
N3 Co6 2.135 . S
C4 N2 1.340 . S
C4 N3 1.321 . S
C4 H28 0.930 . S
H5 C0 0.931 . S
Co6 N3 2.135 . S
Co6 N9 2.121 . S
Co6 O14 2.055 . S
Co6 O17 2.039 . S
Co6 N20 2.140 . S
C7 O8 1.227 . S
C7 O17 1.265 . S
O8 C7 1.227 . S
N9 Co6 2.121 . S
N9 C11 1.375 . S
N9 C12 1.313 . S
C10 C11 1.338 . S
C10 N13 1.377 . S
C10 H30 0.930 . S
C11 N9 1.375 . S
C11 C10 1.338 . S
C11 H15 0.931 . S
C12 N9 1.313 . S
C12 N13 1.344 . S
C12 H16 0.930 . S
N13 C10 1.377 . S
N13 C12 1.344 . S
O14 Co6 2.055 . S
O14 C18 1.253 . S
H15 C11 0.931 . S
H16 C12 0.930 . S
O17 Co6 2.039 . S
O17 C7 1.265 . S
C18 O14 1.253 . S
C18 O19 1.227 . S
O19 C18 1.227 . S
N20 Co6 2.140 . S
N20 C23 1.346 . S
N20 C24 1.345 . S
C21 C22 1.387 . S
C21 C25 1.391 . S
C22 C21 1.387 . S
C22 C23 1.369 . S
C22 H31 0.929 . S
C23 N20 1.346 . S
C23 C22 1.369 . S
C23 H26 0.928 . S
C24 N20 1.345 . S
C24 C25 1.371 . S
C24 H27 0.931 . S
C25 C21 1.391 . S
C25 C24 1.371 . S
C25 H32 0.930 . S
H26 C23 0.928 . S
H27 C24 0.931 . S
H28 C4 0.930 . S
H29 C1 0.930 . S
H30 C10 0.930 . S
H31 C22 0.929 . S
H32 C25 0.930 . S
C33 C34 1.351 . S
C33 N36 1.368 . S
C33 H38 0.931 . S
C34 C33 1.351 . S
C34 N35 1.373 . S
C34 H62 0.930 . S
N35 C34 1.373 . S
N35 C37 1.340 . S
N36 C33 1.368 . S
N36 C37 1.321 . S
N36 Co39 2.135 . S
C37 N35 1.340 . S
C37 N36 1.321 . S
C37 H61 0.930 1_455 S
H38 C33 0.931 . S
Co39 N36 2.135 . S
Co39 N42 2.121 . S
Co39 O47 2.055 . S
Co39 O50 2.039 . S
Co39 N53 2.140 . S
C40 O41 1.227 . S
C40 O50 1.265 1_655 S
O41 C40 1.227 . S
N42 Co39 2.121 . S
N42 C44 1.375 . S
N42 C45 1.313 . S
C43 C44 1.338 . S
C43 N46 1.377 . S
C43 H63 0.930 . S
C44 N42 1.375 . S
C44 C43 1.338 . S
C44 H48 0.931 . S
C45 N42 1.313 . S
C45 N46 1.344 . S
C45 H49 0.930 . S
N46 C43 1.377 . S
N46 C45 1.344 . S
O47 Co39 2.055 . S
O47 C51 1.253 . S
H48 C44 0.931 . S
H49 C45 0.930 . S
O50 Co39 2.039 . S
O50 C40 1.265 1_455 S
C51 O47 1.253 . S
C51 O52 1.227 . S
O52 C51 1.227 . S
N53 Co39 2.140 . S
N53 C56 1.346 . S
N53 C57 1.345 . S
C54 C55 1.387 . S
C54 C58 1.391 . S
C55 C54 1.387 . S
C55 C56 1.369 . S
C55 H64 0.929 . S
C56 N53 1.346 . S
C56 C55 1.369 . S
C56 H59 0.928 . S
C57 N53 1.345 . S
C57 C58 1.371 . S
C57 H60 0.931 . S
C58 C54 1.391 . S
C58 C57 1.371 . S
C58 H65 0.930 . S
H59 C56 0.928 . S
H60 C57 0.931 . S
H61 C37 0.930 1_655 S
H62 C34 0.930 . S
H63 C43 0.930 . S
H64 C55 0.929 . S
H65 C58 0.930 . S
C66 C67 1.351 . S
C66 N69 1.368 . S
C66 H71 0.931 . S
C67 C66 1.351 . S
C67 N68 1.373 . S
C67 H95 0.930 . S
N68 C67 1.373 . S
N68 C70 1.340 . S
N69 C66 1.368 . S
N69 C70 1.321 . S
N69 Co72 2.135 . S
C70 N68 1.340 . S
C70 N69 1.321 . S
C70 H94 0.930 1_545 S
H71 C66 0.931 . S
Co72 N69 2.135 . S
Co72 N75 2.121 . S
Co72 O80 2.055 . S
Co72 O83 2.039 . S
Co72 N86 2.140 . S
C73 O74 1.227 . S
C73 O83 1.265 1_565 S
O74 C73 1.227 . S
N75 Co72 2.121 . S
N75 C77 1.375 . S
N75 C78 1.313 . S
C76 C77 1.338 . S
C76 N79 1.377 . S
C76 H96 0.930 . S
C77 N75 1.375 . S
C77 C76 1.338 . S
C77 H81 0.931 . S
C78 N75 1.313 . S
C78 N79 1.344 . S
C78 H82 0.930 . S
N79 C76 1.377 . S
N79 C78 1.344 . S
O80 Co72 2.055 . S
O80 C84 1.253 . S
H81 C77 0.931 . S
H82 C78 0.930 . S
O83 Co72 2.039 . S
O83 C73 1.265 1_545 S
C84 O80 1.253 . S
C84 O85 1.227 . S
O85 C84 1.227 . S
N86 Co72 2.140 . S
N86 C89 1.346 . S
N86 C90 1.345 . S
C87 C88 1.387 . S
C87 C91 1.391 . S
C88 C87 1.387 . S
C88 C89 1.369 . S
C88 H97 0.929 . S
C89 N86 1.346 . S
C89 C88 1.369 . S
C89 H92 0.928 . S
C90 N86 1.345 . S
C90 C91 1.371 . S
C90 H93 0.931 . S
C91 C87 1.391 . S
C91 C90 1.371 . S
C91 H98 0.930 . S
H92 C89 0.928 . S
H93 C90 0.931 . S
H94 C70 0.930 1_565 S
H95 C67 0.930 . S
H96 C76 0.930 . S
H97 C88 0.929 . S
H98 C91 0.930 . S
C99 C100 1.351 . S
C99 N102 1.368 . S
C99 H104 0.931 . S
C100 C99 1.351 . S
C100 N101 1.373 . S
C100 H128 0.930 . S
N101 C100 1.373 . S
N101 C103 1.340 . S
N102 C99 1.368 . S
N102 C103 1.321 . S
N102 Co105 2.135 1_554 S
C103 N101 1.340 . S
C103 N102 1.321 . S
C103 H127 0.930 . S
H104 C99 0.931 . S
Co105 N102 2.135 1_556 S
Co105 N108 2.121 . S
Co105 O113 2.055 1_556 S
Co105 O116 2.039 . S
Co105 N119 2.140 . S
C106 O107 1.227 . S
C106 O116 1.265 . S
O107 C106 1.227 . S
N108 Co105 2.121 . S
N108 C110 1.375 . S
N108 C111 1.313 . S
C109 C110 1.338 . S
C109 N112 1.377 . S
C109 H129 0.930 . S
C110 N108 1.375 . S
C110 C109 1.338 . S
C110 H114 0.931 . S
C111 N108 1.313 . S
C111 N112 1.344 . S
C111 H115 0.930 . S
N112 C109 1.377 . S
N112 C111 1.344 . S
O113 Co105 2.055 1_554 S
O113 C117 1.253 . S
H114 C110 0.931 . S
H115 C111 0.930 . S
O116 Co105 2.039 . S
O116 C106 1.265 . S
C117 O113 1.253 . S
C117 O118 1.227 1_554 S
O118 C117 1.227 1_556 S
N119 Co105 2.140 . S
N119 C122 1.346 . S
N119 C123 1.345 . S
C120 C121 1.387 . S
C120 C124 1.391 . S
C121 C120 1.387 . S
C121 C122 1.369 . S
C121 H130 0.929 . S
C122 N119 1.346 . S
C122 C121 1.369 . S
C122 H125 0.928 . S
C123 N119 1.345 . S
C123 C124 1.371 . S
C123 H126 0.931 . S
C124 C120 1.391 . S
C124 C123 1.371 . S
C124 H131 0.930 . S
H125 C122 0.928 . S
H126 C123 0.931 . S
H127 C103 0.930 . S
H128 C100 0.930 . S
H129 C109 0.930 . S
H130 C121 0.929 . S
H131 C124 0.930 . S
C132 C133 1.351 . S
C132 N135 1.368 . S
C132 H137 0.931 . S
C133 C132 1.351 . S
C133 N134 1.373 . S
C133 H161 0.930 . S
N134 C133 1.373 . S
N134 C136 1.340 . S
N135 C132 1.368 . S
N135 C136 1.321 . S
N135 Co138 2.135 . S
C136 N134 1.340 . S
C136 N135 1.321 . S
C136 H160 0.930 1_655 S
H137 C132 0.931 . S
Co138 N135 2.135 . S
Co138 N141 2.121 . S
Co138 O146 2.055 . S
Co138 O149 2.039 . S
Co138 N152 2.140 . S
C139 O140 1.227 . S
C139 O149 1.265 1_455 S
O140 C139 1.227 . S
N141 Co138 2.121 . S
N141 C143 1.375 . S
N141 C144 1.313 . S
C142 C143 1.338 . S
C142 N145 1.377 . S
C142 H162 0.930 . S
C143 N141 1.375 . S
C143 C142 1.338 . S
C143 H147 0.931 . S
C144 N141 1.313 . S
C144 N145 1.344 . S
C144 H148 0.930 . S
N145 C142 1.377 . S
N145 C144 1.344 . S
O146 Co138 2.055 . S
O146 C150 1.253 . S
H147 C143 0.931 . S
H148 C144 0.930 . S
O149 Co138 2.039 . S
O149 C139 1.265 1_655 S
C150 O146 1.253 . S
C150 O151 1.227 . S
O151 C150 1.227 . S
N152 Co138 2.140 . S
N152 C155 1.346 . S
N152 C156 1.345 . S
C153 C154 1.387 . S
C153 C157 1.391 . S
C154 C153 1.387 . S
C154 C155 1.369 . S
C154 H163 0.929 . S
C155 N152 1.346 . S
C155 C154 1.369 . S
C155 H158 0.928 . S
C156 N152 1.345 . S
C156 C157 1.371 . S
C156 H159 0.931 . S
C157 C153 1.391 . S
C157 C156 1.371 . S
C157 H164 0.930 . S
H158 C155 0.928 . S
H159 C156 0.931 . S
H160 C136 0.930 1_455 S
H161 C133 0.930 . S
H162 C142 0.930 . S
H163 C154 0.929 . S
H164 C157 0.930 . S
C165 C166 1.351 . S
C165 N168 1.368 . S
C165 H170 0.931 . S
C166 C165 1.351 . S
C166 N167 1.373 . S
C166 H194 0.930 . S
N167 C166 1.373 . S
N167 C169 1.340 . S
N168 C165 1.368 . S
N168 C169 1.321 . S
N168 Co171 2.135 . S
C169 N167 1.340 . S
C169 N168 1.321 . S
C169 H193 0.930 1_565 S
H170 C165 0.931 . S
Co171 N168 2.135 . S
Co171 N174 2.121 . S
Co171 O179 2.055 . S
Co171 O182 2.039 . S
Co171 N185 2.140 . S
C172 O173 1.227 . S
C172 O182 1.265 1_545 S
O173 C172 1.227 . S
N174 Co171 2.121 . S
N174 C176 1.375 . S
N174 C177 1.313 . S
C175 C176 1.338 . S
C175 N178 1.377 . S
C175 H195 0.930 . S
C176 N174 1.375 . S
C176 C175 1.338 . S
C176 H180 0.931 . S
C177 N174 1.313 . S
C177 N178 1.344 . S
C177 H181 0.930 . S
N178 C175 1.377 . S
N178 C177 1.344 . S
O179 Co171 2.055 . S
O179 C183 1.253 . S
H180 C176 0.931 . S
H181 C177 0.930 . S
O182 Co171 2.039 . S
O182 C172 1.265 1_565 S
C183 O179 1.253 . S
C183 O184 1.227 . S
O184 C183 1.227 . S
N185 Co171 2.140 . S
N185 C188 1.346 . S
N185 C189 1.345 . S
C186 C187 1.387 . S
C186 C190 1.391 . S
C187 C186 1.387 . S
C187 C188 1.369 . S
C187 H196 0.929 . S
C188 N185 1.346 . S
C188 C187 1.369 . S
C188 H191 0.928 . S
C189 N185 1.345 . S
C189 C190 1.371 . S
C189 H192 0.931 . S
C190 C186 1.391 . S
C190 C189 1.371 . S
C190 H197 0.930 . S
H191 C188 0.928 . S
H192 C189 0.931 . S
H193 C169 0.930 1_545 S
H194 C166 0.930 . S
H195 C175 0.930 . S
H196 C187 0.929 . S
H197 C190 0.930 . S
C198 C199 1.351 . S
C198 N201 1.368 . S
C198 H203 0.931 . S
C199 C198 1.351 . S
C199 N200 1.373 . S
C199 H227 0.930 . S
N200 C199 1.373 . S
N200 C202 1.340 . S
N201 C198 1.368 . S
N201 C202 1.321 . S
N201 Co204 2.135 . S
C202 N200 1.340 . S
C202 N201 1.321 . S
C202 H226 0.930 . S
H203 C198 0.931 . S
Co204 N201 2.135 . S
Co204 N207 2.121 . S
Co204 O212 2.055 . S
Co204 O215 2.039 . S
Co204 N218 2.140 . S
C205 O206 1.227 . S
C205 O215 1.265 . S
O206 C205 1.227 . S
N207 Co204 2.121 . S
N207 C209 1.375 . S
N207 C210 1.313 . S
C208 C209 1.338 . S
C208 N211 1.377 . S
C208 H228 0.930 . S
C209 N207 1.375 . S
C209 C208 1.338 . S
C209 H213 0.931 . S
C210 N207 1.313 . S
C210 N211 1.344 . S
C210 H214 0.930 . S
N211 C208 1.377 . S
N211 C210 1.344 . S
O212 Co204 2.055 . S
O212 C216 1.253 . S
H213 C209 0.931 . S
H214 C210 0.930 . S
O215 Co204 2.039 . S
O215 C205 1.265 . S
C216 O212 1.253 . S
C216 O217 1.227 . S
O217 C216 1.227 . S
N218 Co204 2.140 . S
N218 C221 1.346 . S
N218 C222 1.345 . S
C219 C220 1.387 . S
C219 C223 1.391 . S
C220 C219 1.387 . S
C220 C221 1.369 . S
C220 H229 0.929 . S
C221 N218 1.346 . S
C221 C220 1.369 . S
C221 H224 0.928 . S
C222 N218 1.345 . S
C222 C223 1.371 . S
C222 H225 0.931 . S
C223 C219 1.391 . S
C223 C222 1.371 . S
C223 H230 0.930 . S
H224 C221 0.928 . S
H225 C222 0.931 . S
H226 C202 0.930 . S
H227 C199 0.930 . S
H228 C208 0.930 . S
H229 C220 0.929 . S
H230 C223 0.930 . S
C231 C232 1.351 . S
C231 N234 1.368 . S
C231 H236 0.931 . S
C232 C231 1.351 . S
C232 N233 1.373 . S
C232 H260 0.930 . S
N233 C232 1.373 . S
N233 C235 1.340 . S
N234 C231 1.368 . S
N234 C235 1.321 . S
N234 Co237 2.135 . S
C235 N233 1.340 . S
C235 N234 1.321 . S
C235 H259 0.930 1_455 S
H236 C231 0.931 . S
Co237 N234 2.135 . S
Co237 N240 2.121 . S
Co237 O245 2.055 . S
Co237 O248 2.039 . S
Co237 N251 2.140 . S
C238 O239 1.227 . S
C238 O248 1.265 1_655 S
O239 C238 1.227 . S
N240 Co237 2.121 . S
N240 C242 1.375 . S
N240 C243 1.313 . S
C241 C242 1.338 . S
C241 N244 1.377 . S
C241 H261 0.930 . S
C242 N240 1.375 . S
C242 C241 1.338 . S
C242 H246 0.931 . S
C243 N240 1.313 . S
C243 N244 1.344 . S
C243 H247 0.930 . S
N244 C241 1.377 . S
N244 C243 1.344 . S
O245 Co237 2.055 . S
O245 C249 1.253 . S
H246 C242 0.931 . S
H247 C243 0.930 . S
O248 Co237 2.039 . S
O248 C238 1.265 1_455 S
C249 O245 1.253 . S
C249 O250 1.227 . S
O250 C249 1.227 . S
N251 Co237 2.140 . S
N251 C254 1.346 . S
N251 C255 1.345 . S
C252 C253 1.387 . S
C252 C256 1.391 . S
C253 C252 1.387 . S
C253 C254 1.369 . S
C253 H262 0.929 . S
C254 N251 1.346 . S
C254 C253 1.369 . S
C254 H257 0.928 . S
C255 N251 1.345 . S
C255 C256 1.371 . S
C255 H258 0.931 . S
C256 C252 1.391 . S
C256 C255 1.371 . S
C256 H263 0.930 . S
H257 C254 0.928 . S
H258 C255 0.931 . S
H259 C235 0.930 1_655 S
H260 C232 0.930 . S
H261 C241 0.930 . S
H262 C253 0.929 . S
H263 C256 0.930 . S
C264 C265 1.351 . S
C264 N267 1.368 . S
C264 H269 0.931 . S
C265 C264 1.351 . S
C265 N266 1.373 . S
C265 H293 0.930 . S
N266 C265 1.373 . S
N266 C268 1.340 . S
N267 C264 1.368 . S
N267 C268 1.321 . S
N267 Co270 2.135 . S
C268 N266 1.340 . S
C268 N267 1.321 . S
C268 H292 0.930 1_545 S
H269 C264 0.931 . S
Co270 N267 2.135 . S
Co270 N273 2.121 . S
Co270 O278 2.055 . S
Co270 O281 2.039 . S
Co270 N284 2.140 . S
C271 O272 1.227 . S
C271 O281 1.265 1_565 S
O272 C271 1.227 . S
N273 Co270 2.121 . S
N273 C275 1.375 . S
N273 C276 1.313 . S
C274 C275 1.338 . S
C274 N277 1.377 . S
C274 H294 0.930 . S
C275 N273 1.375 . S
C275 C274 1.338 . S
C275 H279 0.931 . S
C276 N273 1.313 . S
C276 N277 1.344 . S
C276 H280 0.930 . S
N277 C274 1.377 . S
N277 C276 1.344 . S
O278 Co270 2.055 . S
O278 C282 1.253 . S
H279 C275 0.931 . S
H280 C276 0.930 . S
O281 Co270 2.039 . S
O281 C271 1.265 1_545 S
C282 O278 1.253 . S
C282 O283 1.227 . S
O283 C282 1.227 . S
N284 Co270 2.140 . S
N284 C287 1.346 . S
N284 C288 1.345 . S
C285 C286 1.387 . S
C285 C289 1.391 . S
C286 C285 1.387 . S
C286 C287 1.369 . S
C286 H295 0.929 . S
C287 N284 1.346 . S
C287 C286 1.369 . S
C287 H290 0.928 . S
C288 N284 1.345 . S
C288 C289 1.371 . S
C288 H291 0.931 . S
C289 C285 1.391 . S
C289 C288 1.371 . S
C289 H296 0.930 . S
H290 C287 0.928 . S
H291 C288 0.931 . S
H292 C268 0.930 1_565 S
H293 C265 0.930 . S
H294 C274 0.930 . S
H295 C286 0.929 . S
H296 C289 0.930 . S
C297 C298 1.351 . S
C297 N300 1.368 . S
C297 H302 0.931 . S
C298 C297 1.351 . S
C298 N299 1.373 . S
C298 H326 0.930 . S
N299 C298 1.373 . S
N299 C301 1.340 . S
N300 C297 1.368 . S
N300 C301 1.321 . S
N300 Co303 2.135 . S
C301 N299 1.340 . S
C301 N300 1.321 . S
C301 H325 0.930 . S
H302 C297 0.931 . S
Co303 N300 2.135 . S
Co303 N306 2.121 . S
Co303 O311 2.055 . S
Co303 O314 2.039 . S
Co303 N317 2.140 . S
C304 O305 1.227 . S
C304 O314 1.265 . S
O305 C304 1.227 . S
N306 Co303 2.121 . S
N306 C308 1.375 . S
N306 C309 1.313 . S
C307 C308 1.338 . S
C307 N310 1.377 . S
C307 H327 0.930 . S
C308 N306 1.375 . S
C308 C307 1.338 . S
C308 H312 0.931 . S
C309 N306 1.313 . S
C309 N310 1.344 . S
C309 H313 0.930 . S
N310 C307 1.377 . S
N310 C309 1.344 . S
O311 Co303 2.055 . S
O311 C315 1.253 . S
H312 C308 0.931 . S
H313 C309 0.930 . S
O314 Co303 2.039 . S
O314 C304 1.265 . S
C315 O311 1.253 . S
C315 O316 1.227 . S
O316 C315 1.227 . S
N317 Co303 2.140 . S
N317 C320 1.346 . S
N317 C321 1.345 . S
C318 C319 1.387 . S
C318 C322 1.391 . S
C319 C318 1.387 . S
C319 C320 1.369 . S
C319 H328 0.929 . S
C320 N317 1.346 . S
C320 C319 1.369 . S
C320 H323 0.928 . S
C321 N317 1.345 . S
C321 C322 1.371 . S
C321 H324 0.931 . S
C322 C318 1.391 . S
C322 C321 1.371 . S
C322 H329 0.930 . S
H323 C320 0.928 . S
H324 C321 0.931 . S
H325 C301 0.930 . S
H326 C298 0.930 . S
H327 C307 0.930 . S
H328 C319 0.929 . S
H329 C322 0.930 . S
C330 C331 1.351 . S
C330 N333 1.368 . S
C330 H335 0.931 . S
C331 C330 1.351 . S
C331 N332 1.373 . S
C331 H359 0.930 . S
N332 C331 1.373 . S
N332 C334 1.340 . S
N333 C330 1.368 . S
N333 C334 1.321 . S
N333 Co336 2.135 1_556 S
C334 N332 1.340 . S
C334 N333 1.321 . S
C334 H358 0.930 1_655 S
H335 C330 0.931 . S
Co336 N333 2.135 1_554 S
Co336 N339 2.121 . S
Co336 O344 2.055 1_554 S
Co336 O347 2.039 . S
Co336 N350 2.140 . S
C337 O338 1.227 . S
C337 O347 1.265 1_455 S
O338 C337 1.227 . S
N339 Co336 2.121 . S
N339 C341 1.375 . S
N339 C342 1.313 . S
C340 C341 1.338 . S
C340 N343 1.377 . S
C340 H360 0.930 . S
C341 N339 1.375 . S
C341 C340 1.338 . S
C341 H345 0.931 . S
C342 N339 1.313 . S
C342 N343 1.344 . S
C342 H346 0.930 . S
N343 C340 1.377 . S
N343 C342 1.344 . S
O344 Co336 2.055 1_556 S
O344 C348 1.253 . S
H345 C341 0.931 . S
H346 C342 0.930 . S
O347 Co336 2.039 . S
O347 C337 1.265 1_655 S
C348 O344 1.253 . S
C348 O349 1.227 1_556 S
O349 C348 1.227 1_554 S
N350 Co336 2.140 . S
N350 C353 1.346 . S
N350 C354 1.345 . S
C351 C352 1.387 . S
C351 C355 1.391 . S
C352 C351 1.387 . S
C352 C353 1.369 . S
C352 H361 0.929 . S
C353 N350 1.346 . S
C353 C352 1.369 . S
C353 H356 0.928 . S
C354 N350 1.345 . S
C354 C355 1.371 . S
C354 H357 0.931 . S
C355 C351 1.391 . S
C355 C354 1.371 . S
C355 H362 0.930 . S
H356 C353 0.928 . S
H357 C354 0.931 . S
H358 C334 0.930 1_455 S
H359 C331 0.930 . S
H360 C340 0.930 . S
H361 C352 0.929 . S
H362 C355 0.930 . S
C363 C364 1.351 . S
C363 N366 1.368 . S
C363 H368 0.931 . S
C364 C363 1.351 . S
C364 N365 1.373 . S
C364 H392 0.930 . S
N365 C364 1.373 . S
N365 C367 1.340 . S
N366 C363 1.368 . S
N366 C367 1.321 . S
N366 Co369 2.135 . S
C367 N365 1.340 . S
C367 N366 1.321 . S
C367 H391 0.930 1_565 S
H368 C363 0.931 . S
Co369 N366 2.135 . S
Co369 N372 2.121 . S
Co369 O377 2.055 . S
Co369 O380 2.039 . S
Co369 N383 2.140 . S
C370 O371 1.227 . S
C370 O380 1.265 1_545 S
O371 C370 1.227 . S
N372 Co369 2.121 . S
N372 C374 1.375 . S
N372 C375 1.313 . S
C373 C374 1.338 . S
C373 N376 1.377 . S
C373 H393 0.930 . S
C374 N372 1.375 . S
C374 C373 1.338 . S
C374 H378 0.931 . S
C375 N372 1.313 . S
C375 N376 1.344 . S
C375 H379 0.930 . S
N376 C373 1.377 . S
N376 C375 1.344 . S
O377 Co369 2.055 . S
O377 C381 1.253 . S
H378 C374 0.931 . S
H379 C375 0.930 . S
O380 Co369 2.039 . S
O380 C370 1.265 1_565 S
C381 O377 1.253 . S
C381 O382 1.227 . S
O382 C381 1.227 . S
N383 Co369 2.140 . S
N383 C386 1.346 . S
N383 C387 1.345 . S
C384 C385 1.387 . S
C384 C388 1.391 . S
C385 C384 1.387 . S
C385 C386 1.369 . S
C385 H394 0.929 . S
C386 N383 1.346 . S
C386 C385 1.369 . S
C386 H389 0.928 . S
C387 N383 1.345 . S
C387 C388 1.371 . S
C387 H390 0.931 . S
C388 C384 1.391 . S
C388 C387 1.371 . S
C388 H395 0.930 . S
H389 C386 0.928 . S
H390 C387 0.931 . S
H391 C367 0.930 1_545 S
H392 C364 0.930 . S
H393 C373 0.930 . S
H394 C385 0.929 . S
H395 C388 0.930 . S
H396 C408 0.930 . S
H397 C410 0.930 . S
H398 C411 0.930 . S
H399 C415 0.959 . S
H400 C415 0.959 . S
H401 C415 0.961 . S
H402 C416 0.960 . S
H403 C416 0.961 . S
H404 C416 0.959 . S
H405 C419 0.929 . S
H406 C420 0.931 . S
H407 C422 0.930 . S
C408 H396 0.930 . S
C408 C409 1.399 . S
C408 C413 1.399 . S
C409 C408 1.399 . S
C409 C410 1.376 . S
C410 H397 0.930 . S
C410 C409 1.376 . S
C410 C411 1.388 . S
C411 H398 0.930 . S
C411 C410 1.388 . S
C411 C412 1.390 . S
C412 C411 1.390 . S
C412 C413 1.394 . S
C412 C418 1.465 . S
C413 C408 1.399 . S
C413 C412 1.394 . S
C413 C414 1.516 . S
C414 C413 1.516 . S
C414 C415 1.502 . S
C414 C416 1.561 . S
C414 C417 1.526 . S
C415 H399 0.959 . S
C415 H400 0.959 . S
C415 H401 0.961 . S
C415 C414 1.502 . S
C416 H402 0.960 . S
C416 H403 0.961 . S
C416 H404 0.959 . S
C416 C414 1.561 . S
C417 C414 1.526 . S
C417 C418 1.396 . S
C417 C422 1.390 . S
C418 C412 1.465 . S
C418 C417 1.396 . S
C418 C419 1.399 . S
C419 H405 0.929 . S
C419 C418 1.399 . S
C419 C420 1.385 . S
C420 H406 0.931 . S
C420 C419 1.385 . S
C420 C421 1.389 . S
C421 C420 1.389 . S
C421 C422 1.387 . S
C422 H407 0.930 . S
C422 C417 1.390 . S
C422 C421 1.387 . S
H423 C435 0.930 . S
H424 C437 0.930 . S
H425 C438 0.930 . S
H426 C442 0.959 . S
H427 C442 0.959 . S
H428 C442 0.961 . S
H429 C443 0.960 . S
H430 C443 0.961 . S
H431 C443 0.959 . S
H432 C446 0.929 . S
H433 C447 0.931 . S
H434 C449 0.930 . S
C435 H423 0.930 . S
C435 C436 1.399 . S
C435 C440 1.399 . S
C436 C435 1.399 . S
C436 C437 1.376 . S
C437 H424 0.930 . S
C437 C436 1.376 . S
C437 C438 1.388 . S
C438 H425 0.930 . S
C438 C437 1.388 . S
C438 C439 1.390 . S
C439 C438 1.390 . S
C439 C440 1.394 . S
C439 C445 1.465 . S
C440 C435 1.399 . S
C440 C439 1.394 . S
C440 C441 1.516 . S
C441 C440 1.516 . S
C441 C442 1.502 . S
C441 C443 1.561 . S
C441 C444 1.526 . S
C442 H426 0.959 . S
C442 H427 0.959 . S
C442 H428 0.961 . S
C442 C441 1.502 . S
C443 H429 0.960 . S
C443 H430 0.961 . S
C443 H431 0.959 . S
C443 C441 1.561 . S
C444 C441 1.526 . S
C444 C445 1.396 . S
C444 C449 1.390 . S
C445 C439 1.465 . S
C445 C444 1.396 . S
C445 C446 1.399 . S
C446 H432 0.929 . S
C446 C445 1.399 . S
C446 C447 1.385 . S
C447 H433 0.931 . S
C447 C446 1.385 . S
C447 C448 1.389 . S
C448 C447 1.389 . S
C448 C449 1.387 . S
C449 H434 0.930 . S
C449 C444 1.390 . S
C449 C448 1.387 . S
H450 C462 0.930 . S
H451 C464 0.930 . S
H452 C465 0.930 . S
H453 C469 0.959 . S
H454 C469 0.959 . S
H455 C469 0.961 . S
H456 C470 0.960 . S
H457 C470 0.961 . S
H458 C470 0.959 . S
H459 C473 0.929 . S
H460 C474 0.931 . S
H461 C476 0.930 . S
C462 H450 0.930 . S
C462 C463 1.399 . S
C462 C467 1.399 . S
C463 C462 1.399 . S
C463 C464 1.376 . S
C464 H451 0.930 . S
C464 C463 1.376 . S
C464 C465 1.388 . S
C465 H452 0.930 . S
C465 C464 1.388 . S
C465 C466 1.390 . S
C466 C465 1.390 . S
C466 C467 1.394 . S
C466 C472 1.465 . S
C467 C462 1.399 . S
C467 C466 1.394 . S
C467 C468 1.516 . S
C468 C467 1.516 . S
C468 C469 1.502 . S
C468 C470 1.561 . S
C468 C471 1.526 . S
C469 H453 0.959 . S
C469 H454 0.959 . S
C469 H455 0.961 . S
C469 C468 1.502 . S
C470 H456 0.960 . S
C470 H457 0.961 . S
C470 H458 0.959 . S
C470 C468 1.561 . S
C471 C468 1.526 . S
C471 C472 1.396 . S
C471 C476 1.390 . S
C472 C466 1.465 . S
C472 C471 1.396 . S
C472 C473 1.399 . S
C473 H459 0.929 . S
C473 C472 1.399 . S
C473 C474 1.385 . S
C474 H460 0.931 . S
C474 C473 1.385 . S
C474 C475 1.389 . S
C475 C474 1.389 . S
C475 C476 1.387 . S
C476 H461 0.930 . S
C476 C471 1.390 . S
C476 C475 1.387 . S
H477 C489 0.930 . S
H478 C491 0.930 . S
H479 C492 0.930 . S
H480 C496 0.959 . S
H481 C496 0.959 . S
H482 C496 0.961 . S
H483 C497 0.960 . S
H484 C497 0.961 . S
H485 C497 0.959 . S
H486 C500 0.929 . S
H487 C501 0.931 . S
H488 C503 0.930 . S
C489 H477 0.930 . S
C489 C490 1.399 . S
C489 C494 1.399 . S
C490 C489 1.399 . S
C490 C491 1.376 . S
C491 H478 0.930 . S
C491 C490 1.376 . S
C491 C492 1.388 . S
C492 H479 0.930 . S
C492 C491 1.388 . S
C492 C493 1.390 . S
C493 C492 1.390 . S
C493 C494 1.394 . S
C493 C499 1.465 . S
C494 C489 1.399 . S
C494 C493 1.394 . S
C494 C495 1.516 . S
C495 C494 1.516 . S
C495 C496 1.502 . S
C495 C497 1.561 . S
C495 C498 1.526 . S
C496 H480 0.959 . S
C496 H481 0.959 . S
C496 H482 0.961 . S
C496 C495 1.502 . S
C497 H483 0.960 . S
C497 H484 0.961 . S
C497 H485 0.959 . S
C497 C495 1.561 . S
C498 C495 1.526 . S
C498 C499 1.396 . S
C498 C503 1.390 . S
C499 C493 1.465 . S
C499 C498 1.396 . S
C499 C500 1.399 . S
C500 H486 0.929 . S
C500 C499 1.399 . S
C500 C501 1.385 . S
C501 H487 0.931 . S
C501 C500 1.385 . S
C501 C502 1.389 . S
C502 C501 1.389 . S
C502 C503 1.387 . S
C503 H488 0.930 . S
C503 C498 1.390 . S
C503 C502 1.387 . S
H504 C516 0.930 . S
H505 C518 0.930 . S
H506 C519 0.930 . S
H507 C523 0.959 . S
H508 C523 0.959 . S
H509 C523 0.961 . S
H510 C524 0.960 . S
H511 C524 0.961 . S
H512 C524 0.959 . S
H513 C527 0.929 . S
H514 C528 0.931 . S
H515 C530 0.930 . S
C516 H504 0.930 . S
C516 C517 1.399 . S
C516 C521 1.399 . S
C517 C516 1.399 . S
C517 C518 1.376 . S
C518 H505 0.930 . S
C518 C517 1.376 . S
C518 C519 1.388 . S
C519 H506 0.930 . S
C519 C518 1.388 . S
C519 C520 1.390 . S
C520 C519 1.390 . S
C520 C521 1.394 . S
C520 C526 1.465 . S
C521 C516 1.399 . S
C521 C520 1.394 . S
C521 C522 1.516 . S
C522 C521 1.516 . S
C522 C523 1.502 . S
C522 C524 1.561 . S
C522 C525 1.526 . S
C523 H507 0.959 . S
C523 H508 0.959 . S
C523 H509 0.961 . S
C523 C522 1.502 . S
C524 H510 0.960 . S
C524 H511 0.961 . S
C524 H512 0.959 . S
C524 C522 1.561 . S
C525 C522 1.526 . S
C525 C526 1.396 . S
C525 C530 1.390 . S
C526 C520 1.465 . S
C526 C525 1.396 . S
C526 C527 1.399 . S
C527 H513 0.929 . S
C527 C526 1.399 . S
C527 C528 1.385 . S
C528 H514 0.931 . S
C528 C527 1.385 . S
C528 C529 1.389 . S
C529 C528 1.389 . S
C529 C530 1.387 . S
C530 H515 0.930 . S
C530 C525 1.390 . S
C530 C529 1.387 . S
H531 C543 0.930 . S
H532 C545 0.930 . S
H533 C546 0.930 . S
H534 C550 0.959 . S
H535 C550 0.959 . S
H536 C550 0.961 . S
H537 C551 0.960 . S
H538 C551 0.961 . S
H539 C551 0.959 . S
H540 C554 0.929 . S
H541 C555 0.931 . S
H542 C557 0.930 . S
C543 H531 0.930 . S
C543 C544 1.399 . S
C543 C548 1.399 . S
C544 C543 1.399 . S
C544 C545 1.376 . S
C545 H532 0.930 . S
C545 C544 1.376 . S
C545 C546 1.388 . S
C546 H533 0.930 . S
C546 C545 1.388 . S
C546 C547 1.390 . S
C547 C546 1.390 . S
C547 C548 1.394 . S
C547 C553 1.465 . S
C548 C543 1.399 . S
C548 C547 1.394 . S
C548 C549 1.516 . S
C549 C548 1.516 . S
C549 C550 1.502 . S
C549 C551 1.561 . S
C549 C552 1.526 . S
C550 H534 0.959 . S
C550 H535 0.959 . S
C550 H536 0.961 . S
C550 C549 1.502 . S
C551 H537 0.960 . S
C551 H538 0.961 . S
C551 H539 0.959 . S
C551 C549 1.561 . S
C552 C549 1.526 . S
C552 C553 1.396 . S
C552 C557 1.390 . S
C553 C547 1.465 . S
C553 C552 1.396 . S
C553 C554 1.399 . S
C554 H540 0.929 . S
C554 C553 1.399 . S
C554 C555 1.385 . S
C555 H541 0.931 . S
C555 C554 1.385 . S
C555 C556 1.389 . S
C556 C555 1.389 . S
C556 C557 1.387 . S
C557 H542 0.930 . S
C557 C552 1.390 . S
C557 C556 1.387 . S
H558 C570 0.930 . S
H559 C572 0.930 . S
H560 C573 0.930 . S
H561 C577 0.959 . S
H562 C577 0.959 . S
H563 C577 0.961 . S
H564 C578 0.960 . S
H565 C578 0.961 . S
H566 C578 0.959 . S
H567 C581 0.929 . S
H568 C582 0.931 . S
H569 C584 0.930 . S
C570 H558 0.930 . S
C570 C571 1.399 . S
C570 C575 1.399 . S
C571 C570 1.399 . S
C571 C572 1.376 . S
C572 H559 0.930 . S
C572 C571 1.376 . S
C572 C573 1.388 . S
C573 H560 0.930 . S
C573 C572 1.388 . S
C573 C574 1.390 . S
C574 C573 1.390 . S
C574 C575 1.394 . S
C574 C580 1.465 . S
C575 C570 1.399 . S
C575 C574 1.394 . S
C575 C576 1.516 . S
C576 C575 1.516 . S
C576 C577 1.502 . S
C576 C578 1.561 . S
C576 C579 1.526 . S
C577 H561 0.959 . S
C577 H562 0.959 . S
C577 H563 0.961 . S
C577 C576 1.502 . S
C578 H564 0.960 . S
C578 H565 0.961 . S
C578 H566 0.959 . S
C578 C576 1.561 . S
C579 C576 1.526 . S
C579 C580 1.396 . S
C579 C584 1.390 . S
C580 C574 1.465 . S
C580 C579 1.396 . S
C580 C581 1.399 . S
C581 H567 0.929 . S
C581 C580 1.399 . S
C581 C582 1.385 . S
C582 H568 0.931 . S
C582 C581 1.385 . S
C582 C583 1.389 . S
C583 C582 1.389 . S
C583 C584 1.387 . S
C584 H569 0.930 . S
C584 C579 1.390 . S
C584 C583 1.387 . S
H585 C597 0.930 . S
H586 C599 0.930 . S
H587 C600 0.930 . S
H588 C604 0.959 . S
H589 C604 0.959 . S
H590 C604 0.961 . S
H591 C605 0.960 . S
H592 C605 0.961 . S
H593 C605 0.959 . S
H594 C608 0.929 . S
H595 C609 0.931 . S
H596 C611 0.930 . S
C597 H585 0.930 . S
C597 C598 1.399 . S
C597 C602 1.399 . S
C598 C597 1.399 . S
C598 C599 1.376 . S
C599 H586 0.930 . S
C599 C598 1.376 . S
C599 C600 1.388 . S
C600 H587 0.930 . S
C600 C599 1.388 . S
C600 C601 1.390 . S
C601 C600 1.390 . S
C601 C602 1.394 . S
C601 C607 1.465 . S
C602 C597 1.399 . S
C602 C601 1.394 . S
C602 C603 1.516 . S
C603 C602 1.516 . S
C603 C604 1.502 . S
C603 C605 1.561 . S
C603 C606 1.526 . S
C604 H588 0.959 . S
C604 H589 0.959 . S
C604 H590 0.961 . S
C604 C603 1.502 . S
C605 H591 0.960 . S
C605 H592 0.961 . S
C605 H593 0.959 . S
C605 C603 1.561 . S
C606 C603 1.526 . S
C606 C607 1.396 . S
C606 C611 1.390 . S
C607 C601 1.465 . S
C607 C606 1.396 . S
C607 C608 1.399 . S
C608 H594 0.929 . S
C608 C607 1.399 . S
C608 C609 1.385 . S
C609 H595 0.931 . S
C609 C608 1.385 . S
C609 C610 1.389 . S
C610 C609 1.389 . S
C610 C611 1.387 . S
C611 H596 0.930 . S
C611 C606 1.390 . S
C611 C610 1.387 . S
H612 C624 0.930 . S
H613 C626 0.930 . S
H614 C627 0.930 . S
H615 C631 0.959 . S
H616 C631 0.959 . S
H617 C631 0.961 . S
H618 C632 0.960 . S
H619 C632 0.961 . S
H620 C632 0.959 . S
H621 C635 0.929 . S
H622 C636 0.931 . S
H623 C638 0.930 . S
C624 H612 0.930 . S
C624 C625 1.399 . S
C624 C629 1.399 . S
C625 C624 1.399 . S
C625 C626 1.376 . S
C626 H613 0.930 . S
C626 C625 1.376 . S
C626 C627 1.388 . S
C627 H614 0.930 . S
C627 C626 1.388 . S
C627 C628 1.390 . S
C628 C627 1.390 . S
C628 C629 1.394 . S
C628 C634 1.465 . S
C629 C624 1.399 . S
C629 C628 1.394 . S
C629 C630 1.516 . S
C630 C629 1.516 . S
C630 C631 1.502 . S
C630 C632 1.561 . S
C630 C633 1.526 . S
C631 H615 0.959 . S
C631 H616 0.959 . S
C631 H617 0.961 . S
C631 C630 1.502 . S
C632 H618 0.960 . S
C632 H619 0.961 . S
C632 H620 0.959 . S
C632 C630 1.561 . S
C633 C630 1.526 . S
C633 C634 1.396 . S
C633 C638 1.390 . S
C634 C628 1.465 . S
C634 C633 1.396 . S
C634 C635 1.399 . S
C635 H621 0.929 . S
C635 C634 1.399 . S
C635 C636 1.385 . S
C636 H622 0.931 . S
C636 C635 1.385 . S
C636 C637 1.389 . S
C637 C636 1.389 . S
C637 C638 1.387 . S
C638 H623 0.930 . S
C638 C633 1.390 . S
C638 C637 1.387 . S
H639 C651 0.930 . S
H640 C653 0.930 . S
H641 C654 0.930 . S
H642 C658 0.959 . S
H643 C658 0.959 . S
H644 C658 0.961 . S
H645 C659 0.960 . S
H646 C659 0.961 . S
H647 C659 0.959 . S
H648 C662 0.929 . S
H649 C663 0.931 . S
H650 C665 0.930 . S
C651 H639 0.930 . S
C651 C652 1.399 . S
C651 C656 1.399 . S
C652 C651 1.399 . S
C652 C653 1.376 . S
C653 H640 0.930 . S
C653 C652 1.376 . S
C653 C654 1.388 . S
C654 H641 0.930 . S
C654 C653 1.388 . S
C654 C655 1.390 . S
C655 C654 1.390 . S
C655 C656 1.394 . S
C655 C661 1.465 . S
C656 C651 1.399 . S
C656 C655 1.394 . S
C656 C657 1.516 . S
C657 C656 1.516 . S
C657 C658 1.502 . S
C657 C659 1.561 . S
C657 C660 1.526 . S
C658 H642 0.959 . S
C658 H643 0.959 . S
C658 H644 0.961 . S
C658 C657 1.502 . S
C659 H645 0.960 . S
C659 H646 0.961 . S
C659 H647 0.959 . S
C659 C657 1.561 . S
C660 C657 1.526 . S
C660 C661 1.396 . S
C660 C665 1.390 . S
C661 C655 1.465 . S
C661 C660 1.396 . S
C661 C662 1.399 . S
C662 H648 0.929 . S
C662 C661 1.399 . S
C662 C663 1.385 . S
C663 H649 0.931 . S
C663 C662 1.385 . S
C663 C664 1.389 . S
C664 C663 1.389 . S
C664 C665 1.387 . S
C665 H650 0.930 . S
C665 C660 1.390 . S
C665 C664 1.387 . S
H666 C678 0.931 . S
H667 C680 0.930 . S
H668 C681 0.930 . S
H669 C685 0.959 1_556 S
H670 C685 0.959 . S
H671 C685 0.961 . S
H672 C686 0.960 . S
H673 C686 0.961 . S
H674 C686 0.959 . S
H675 C689 0.929 . S
H676 C690 0.931 . S
H677 C692 0.930 . S
C678 H666 0.931 . S
C678 C679 1.407 . S
C678 C683 1.390 1_556 S
C679 C678 1.407 . S
C679 C680 1.376 . S
C680 H667 0.930 . S
C680 C679 1.376 . S
C680 C681 1.388 1_556 S
C681 H668 0.930 . S
C681 C680 1.388 1_554 S
C681 C682 1.390 . S
C682 C681 1.390 . S
C682 C683 1.394 . S
C682 C688 1.465 . S
C683 C678 1.390 1_554 S
C683 C682 1.394 . S
C683 C684 1.516 . S
C684 C683 1.516 . S
C684 C685 1.502 . S
C684 C686 1.561 . S
C684 C687 1.526 . S
C685 H669 0.959 1_554 S
C685 H670 0.959 . S
C685 H671 0.961 . S
C685 C684 1.502 . S
C686 H672 0.960 . S
C686 H673 0.961 . S
C686 H674 0.959 . S
C686 C684 1.561 . S
C687 C684 1.526 . S
C687 C688 1.396 . S
C687 C692 1.390 . S
C688 C682 1.465 . S
C688 C687 1.396 . S
C688 C689 1.399 . S
C689 H675 0.929 . S
C689 C688 1.399 . S
C689 C690 1.385 . S
C690 H676 0.931 . S
C690 C689 1.385 . S
C690 C691 1.389 . S
C691 C690 1.389 . S
C691 C692 1.387 . S
C692 H677 0.930 . S
C692 C687 1.390 . S
C692 C691 1.387 . S
H693 C705 0.930 . S
H694 C707 0.930 . S
H695 C708 0.930 . S
H696 C712 0.959 . S
H697 C712 0.959 . S
H698 C712 0.961 . S
H699 C713 0.960 . S
H700 C713 0.961 . S
H701 C713 0.959 . S
H702 C716 0.929 . S
H703 C717 0.931 . S
H704 C719 0.930 . S
C705 H693 0.930 . S
C705 C706 1.399 . S
C705 C710 1.399 . S
C706 C705 1.399 . S
C706 C707 1.376 . S
C707 H694 0.930 . S
C707 C706 1.376 . S
C707 C708 1.388 . S
C708 H695 0.930 . S
C708 C707 1.388 . S
C708 C709 1.390 . S
C709 C708 1.390 . S
C709 C710 1.394 . S
C709 C715 1.465 . S
C710 C705 1.399 . S
C710 C709 1.394 . S
C710 C711 1.516 . S
C711 C710 1.516 . S
C711 C712 1.502 . S
C711 C713 1.561 . S
C711 C714 1.526 . S
C712 H696 0.959 . S
C712 H697 0.959 . S
C712 H698 0.961 . S
C712 C711 1.502 . S
C713 H699 0.960 . S
C713 H700 0.961 . S
C713 H701 0.959 . S
C713 C711 1.561 . S
C714 C711 1.526 . S
C714 C715 1.396 . S
C714 C719 1.390 . S
C715 C709 1.465 . S
C715 C714 1.396 . S
C715 C716 1.399 . S
C716 H702 0.929 . S
C716 C715 1.399 . S
C716 C717 1.385 . S
C717 H703 0.931 . S
C717 C716 1.385 . S
C717 C718 1.389 . S
C718 C717 1.389 . S
C718 C719 1.387 . S
C719 H704 0.930 . S
C719 C714 1.390 . S
C719 C718 1.387 . S
H720 C732 0.930 . S
H721 C734 0.930 . S
H722 C735 0.930 . S
H723 C739 0.959 . S
H724 C739 0.959 . S
H725 C739 0.961 . S
H726 C740 0.960 . S
H727 C740 0.961 . S
H728 C740 0.959 . S
H729 C743 0.929 . S
H730 C744 0.931 . S
H731 C746 0.930 . S
C732 H720 0.930 . S
C732 C733 1.399 . S
C732 C737 1.399 . S
C733 C732 1.399 . S
C733 C734 1.376 . S
C734 H721 0.930 . S
C734 C733 1.376 . S
C734 C735 1.388 . S
C735 H722 0.930 . S
C735 C734 1.388 . S
C735 C736 1.390 . S
C736 C735 1.390 . S
C736 C737 1.394 . S
C736 C742 1.465 . S
C737 C732 1.399 . S
C737 C736 1.394 . S
C737 C738 1.516 . S
C738 C737 1.516 . S
C738 C739 1.502 . S
C738 C740 1.561 . S
C738 C741 1.526 . S
C739 H723 0.959 . S
C739 H724 0.959 . S
C739 H725 0.961 . S
C739 C738 1.502 . S
C740 H726 0.960 . S
C740 H727 0.961 . S
C740 H728 0.959 . S
C740 C738 1.561 . S
C741 C738 1.526 . S
C741 C742 1.396 . S
C741 C746 1.390 . S
C742 C736 1.465 . S
C742 C741 1.396 . S
C742 C743 1.399 . S
C743 H729 0.929 . S
C743 C742 1.399 . S
C743 C744 1.385 . S
C744 H730 0.931 . S
C744 C743 1.385 . S
C744 C745 1.389 . S
C745 C744 1.389 . S
C745 C746 1.387 . S
C746 H731 0.930 . S
C746 C741 1.390 . S
C746 C745 1.387 . S
H747 C759 0.930 . S
H748 C761 0.930 . S
H749 C762 0.930 . S
H750 C766 0.959 . S
H751 C766 0.959 . S
H752 C766 0.961 . S
H753 C767 0.960 . S
H754 C767 0.961 . S
H755 C767 0.959 . S
H756 C770 0.929 . S
H757 C771 0.931 . S
H758 C773 0.930 . S
C759 H747 0.930 . S
C759 C760 1.399 . S
C759 C764 1.399 . S
C760 C759 1.399 . S
C760 C761 1.376 . S
C761 H748 0.930 . S
C761 C760 1.376 . S
C761 C762 1.388 . S
C762 H749 0.930 . S
C762 C761 1.388 . S
C762 C763 1.390 . S
C763 C762 1.390 . S
C763 C764 1.394 . S
C763 C769 1.465 . S
C764 C759 1.399 . S
C764 C763 1.394 . S
C764 C765 1.516 . S
C765 C764 1.516 . S
C765 C766 1.502 . S
C765 C767 1.561 . S
C765 C768 1.526 . S
C766 H750 0.959 . S
C766 H751 0.959 . S
C766 H752 0.961 . S
C766 C765 1.502 . S
C767 H753 0.960 . S
C767 H754 0.961 . S
C767 H755 0.959 . S
C767 C765 1.561 . S
C768 C765 1.526 . S
C768 C769 1.396 . S
C768 C773 1.390 . S
C769 C763 1.465 . S
C769 C768 1.396 . S
C769 C770 1.399 . S
C770 H756 0.929 . S
C770 C769 1.399 . S
C770 C771 1.385 . S
C771 H757 0.931 . S
C771 C770 1.385 . S
C771 C772 1.389 . S
C772 C771 1.389 . S
C772 C773 1.387 . S
C773 H758 0.930 . S
C773 C768 1.390 . S
C773 C772 1.387 . S
H774 C786 0.930 . S
H775 C788 0.930 . S
H776 C789 0.930 . S
H777 C793 0.959 . S
H778 C793 0.959 . S
H779 C793 0.961 . S
H780 C794 0.960 . S
H781 C794 0.961 . S
H782 C794 0.959 . S
H783 C797 0.929 . S
H784 C798 0.931 . S
H785 C800 0.930 . S
C786 H774 0.930 . S
C786 C787 1.399 . S
C786 C791 1.399 . S
C787 C786 1.399 . S
C787 C788 1.376 . S
C788 H775 0.930 . S
C788 C787 1.376 . S
C788 C789 1.388 . S
C789 H776 0.930 . S
C789 C788 1.388 . S
C789 C790 1.390 . S
C790 C789 1.390 . S
C790 C791 1.394 . S
C790 C796 1.465 . S
C791 C786 1.399 . S
C791 C790 1.394 . S
C791 C792 1.516 . S
C792 C791 1.516 . S
C792 C793 1.502 . S
C792 C794 1.561 . S
C792 C795 1.526 . S
C793 H777 0.959 . S
C793 H778 0.959 . S
C793 H779 0.961 . S
C793 C792 1.502 . S
C794 H780 0.960 . S
C794 H781 0.961 . S
C794 H782 0.959 . S
C794 C792 1.561 . S
C795 C792 1.526 . S
C795 C796 1.396 . S
C795 C800 1.390 . S
C796 C790 1.465 . S
C796 C795 1.396 . S
C796 C797 1.399 . S
C797 H783 0.929 . S
C797 C796 1.399 . S
C797 C798 1.385 . S
C798 H784 0.931 . S
C798 C797 1.385 . S
C798 C799 1.389 . S
C799 C798 1.389 . S
C799 C800 1.387 . S
C800 H785 0.930 . S
C800 C795 1.390 . S
C800 C799 1.387 . S
H801 C813 0.930 . S
H802 C815 0.930 . S
H803 C816 0.930 . S
H804 C820 0.959 . S
H805 C820 0.959 . S
H806 C820 0.961 1_554 S
H807 C821 0.960 . S
H808 C821 0.961 . S
H809 C821 0.959 . S
H810 C824 0.929 . S
H811 C825 0.931 . S
H812 C827 0.930 . S
C813 H801 0.930 . S
C813 C814 1.399 . S
C813 C818 1.399 . S
C814 C813 1.399 . S
C814 C815 1.376 1_554 S
C815 H802 0.930 . S
C815 C814 1.376 1_556 S
C815 C816 1.388 . S
C816 H803 0.930 . S
C816 C815 1.388 . S
C816 C817 1.390 . S
C817 C816 1.390 . S
C817 C818 1.394 1_556 S
C817 C823 1.465 . S
C818 C813 1.399 . S
C818 C817 1.394 1_554 S
C818 C819 1.516 . S
C819 C818 1.516 . S
C819 C820 1.502 1_554 S
C819 C821 1.561 . S
C819 C822 1.526 1_554 S
C820 H804 0.959 . S
C820 H805 0.959 . S
C820 H806 0.961 1_556 S
C820 C819 1.502 1_556 S
C821 H807 0.960 . S
C821 H808 0.961 . S
C821 H809 0.959 . S
C821 C819 1.561 . S
C822 C819 1.526 1_556 S
C822 C823 1.396 . S
C822 C827 1.390 . S
C823 C817 1.465 . S
C823 C822 1.396 . S
C823 C824 1.399 . S
C824 H810 0.929 . S
C824 C823 1.399 . S
C824 C825 1.385 . S
C825 H811 0.931 . S
C825 C824 1.385 . S
C825 C826 1.389 . S
C826 C825 1.389 . S
C826 C827 1.387 . S
C827 H812 0.930 . S
C827 C822 1.390 . S
C827 C826 1.387 . S
H828 C840 0.930 . S
H829 C842 0.930 . S
H830 C843 0.930 . S
H831 C847 0.959 . S
H832 C847 0.959 . S
H833 C847 0.961 . S
H834 C848 0.960 . S
H835 C848 0.961 . S
H836 C848 0.959 . S
H837 C851 0.929 . S
H838 C852 0.931 . S
H839 C854 0.930 . S
C840 H828 0.930 . S
C840 C841 1.399 . S
C840 C845 1.399 . S
C841 C840 1.399 . S
C841 C842 1.376 . S
C842 H829 0.930 . S
C842 C841 1.376 . S
C842 C843 1.388 . S
C843 H830 0.930 . S
C843 C842 1.388 . S
C843 C844 1.390 . S
C844 C843 1.390 . S
C844 C845 1.394 . S
C844 C850 1.465 . S
C845 C840 1.399 . S
C845 C844 1.394 . S
C845 C846 1.516 . S
C846 C845 1.516 . S
C846 C847 1.502 . S
C846 C848 1.561 . S
C846 C849 1.526 . S
C847 H831 0.959 . S
C847 H832 0.959 . S
C847 H833 0.961 . S
C847 C846 1.502 . S
C848 H834 0.960 . S
C848 H835 0.961 . S
C848 H836 0.959 . S
C848 C846 1.561 . S
C849 C846 1.526 . S
C849 C850 1.396 . S
C849 C854 1.390 . S
C850 C844 1.465 . S
C850 C849 1.396 . S
C850 C851 1.399 . S
C851 H837 0.929 . S
C851 C850 1.399 . S
C851 C852 1.385 . S
C852 H838 0.931 . S
C852 C851 1.385 . S
C852 C853 1.389 . S
C853 C852 1.389 . S
C853 C854 1.387 . S
C854 H839 0.930 . S
C854 C849 1.390 . S
C854 C853 1.387 . S
H855 C867 0.930 . S
H856 C869 0.930 . S
H857 C870 0.930 . S
H858 C874 0.959 . S
H859 C874 0.959 . S
H860 C874 0.961 . S
H861 C875 0.960 . S
H862 C875 0.961 . S
H863 C875 0.959 . S
H864 C878 0.929 . S
H865 C879 0.931 . S
H866 C881 0.930 . S
C867 H855 0.930 . S
C867 C868 1.399 . S
C867 C872 1.399 . S
C868 C867 1.399 . S
C868 C869 1.376 . S
C869 H856 0.930 . S
C869 C868 1.376 . S
C869 C870 1.388 . S
C870 H857 0.930 . S
C870 C869 1.388 . S
C870 C871 1.390 . S
C871 C870 1.390 . S
C871 C872 1.394 . S
C871 C877 1.465 . S
C872 C867 1.399 . S
C872 C871 1.394 . S
C872 C873 1.516 . S
C873 C872 1.516 . S
C873 C874 1.502 . S
C873 C875 1.561 . S
C873 C876 1.526 . S
C874 H858 0.959 . S
C874 H859 0.959 . S
C874 H860 0.961 . S
C874 C873 1.502 . S
C875 H861 0.960 . S
C875 H862 0.961 . S
C875 H863 0.959 . S
C875 C873 1.561 . S
C876 C873 1.526 . S
C876 C877 1.396 . S
C876 C881 1.390 . S
C877 C871 1.465 . S
C877 C876 1.396 . S
C877 C878 1.399 . S
C878 H864 0.929 . S
C878 C877 1.399 . S
C878 C879 1.385 . S
C879 H865 0.931 . S
C879 C878 1.385 . S
C879 C880 1.389 . S
C880 C879 1.389 . S
C880 C881 1.387 . S
C881 H866 0.930 . S
C881 C876 1.390 . S
C881 C880 1.387 . S
H882 C894 0.930 . S
H883 C896 0.930 . S
H884 C897 0.930 . S
H885 C901 0.959 . S
H886 C901 0.959 . S
H887 C901 0.961 . S
H888 C902 0.960 . S
H889 C902 0.961 . S
H890 C902 0.959 . S
H891 C905 0.929 . S
H892 C906 0.931 . S
H893 C908 0.930 . S
C894 H882 0.930 . S
C894 C895 1.399 . S
C894 C899 1.399 . S
C895 C894 1.399 . S
C895 C896 1.376 . S
C896 H883 0.930 . S
C896 C895 1.376 . S
C896 C897 1.388 . S
C897 H884 0.930 . S
C897 C896 1.388 . S
C897 C898 1.390 . S
C898 C897 1.390 . S
C898 C899 1.394 . S
C898 C904 1.465 . S
C899 C894 1.399 . S
C899 C898 1.394 . S
C899 C900 1.516 . S
C900 C899 1.516 . S
C900 C901 1.502 . S
C900 C902 1.561 . S
C900 C903 1.526 . S
C901 H885 0.959 . S
C901 H886 0.959 . S
C901 H887 0.961 . S
C901 C900 1.502 . S
C902 H888 0.960 . S
C902 H889 0.961 . S
C902 H890 0.959 . S
C902 C900 1.561 . S
C903 C900 1.526 . S
C903 C904 1.396 . S
C903 C908 1.390 . S
C904 C898 1.465 . S
C904 C903 1.396 . S
C904 C905 1.399 . S
C905 H891 0.929 . S
C905 C904 1.399 . S
C905 C906 1.385 . S
C906 H892 0.931 . S
C906 C905 1.385 . S
C906 C907 1.389 . S
C907 C906 1.389 . S
C907 C908 1.387 . S
C908 H893 0.930 . S
C908 C903 1.390 . S
C908 C907 1.387 . S
H909 C921 0.930 . S
H910 C923 0.930 . S
H911 C924 0.930 . S
H912 C928 0.959 . S
H913 C928 0.959 . S
H914 C928 0.961 . S
H915 C929 0.960 . S
H916 C929 0.961 . S
H917 C929 0.959 . S
H918 C932 0.929 . S
H919 C933 0.931 . S
H920 C935 0.930 . S
C921 H909 0.930 . S
C921 C922 1.399 . S
C921 C926 1.399 . S
C922 C921 1.399 . S
C922 C923 1.376 . S
C923 H910 0.930 . S
C923 C922 1.376 . S
C923 C924 1.388 . S
C924 H911 0.930 . S
C924 C923 1.388 . S
C924 C925 1.390 . S
C925 C924 1.390 . S
C925 C926 1.394 . S
C925 C931 1.465 . S
C926 C921 1.399 . S
C926 C925 1.394 . S
C926 C927 1.516 . S
C927 C926 1.516 . S
C927 C928 1.502 1_455 S
C927 C929 1.561 . S
C927 C930 1.526 . S
C928 H912 0.959 . S
C928 H913 0.959 . S
C928 H914 0.961 . S
C928 C927 1.502 1_655 S
C929 H915 0.960 . S
C929 H916 0.961 . S
C929 H917 0.959 . S
C929 C927 1.561 . S
C930 C927 1.526 . S
C930 C931 1.396 . S
C930 C935 1.390 . S
C931 C925 1.465 . S
C931 C930 1.396 . S
C931 C932 1.399 . S
C932 H918 0.929 . S
C932 C931 1.399 . S
C932 C933 1.385 . S
C933 H919 0.931 . S
C933 C932 1.385 . S
C933 C934 1.389 . S
C934 C933 1.389 . S
C934 C935 1.387 . S
C935 H920 0.930 . S
C935 C930 1.390 . S
C935 C934 1.387 . S
H936 C948 0.930 . S
H937 C950 0.930 1_565 S
H938 C951 0.930 1_565 S
H939 C955 0.959 . S
H940 C955 0.959 . S
H941 C955 0.961 . S
H942 C956 0.960 . S
H943 C956 0.961 . S
H944 C956 0.959 . S
H945 C959 0.929 1_565 S
H946 C960 0.931 1_565 S
H947 C962 0.930 . S
C948 H936 0.930 . S
C948 C949 1.399 . S
C948 C953 1.399 . S
C949 C948 1.399 . S
C949 C950 1.376 . S
C950 H937 0.930 1_545 S
C950 C949 1.376 . S
C950 C951 1.388 . S
C951 H938 0.930 1_545 S
C951 C950 1.388 . S
C951 C952 1.390 . S
C952 C951 1.390 . S
C952 C953 1.394 . S
C952 C958 1.465 . S
C953 C948 1.399 . S
C953 C952 1.394 . S
C953 C954 1.516 . S
C954 C953 1.516 . S
C954 C955 1.502 . S
C954 C956 1.561 . S
C954 C957 1.526 . S
C955 H939 0.959 . S
C955 H940 0.959 . S
C955 H941 0.961 . S
C955 C954 1.502 . S
C956 H942 0.960 . S
C956 H943 0.961 . S
C956 H944 0.959 . S
C956 C954 1.561 . S
C957 C954 1.526 . S
C957 C958 1.396 . S
C957 C962 1.390 . S
C958 C952 1.465 . S
C958 C957 1.396 . S
C958 C959 1.399 . S
C959 H945 0.929 1_545 S
C959 C958 1.399 . S
C959 C960 1.385 . S
C960 H946 0.931 1_545 S
C960 C959 1.385 . S
C960 C961 1.389 . S
C961 C960 1.389 . S
C961 C962 1.387 . S
C962 H947 0.930 . S
C962 C957 1.390 . S
C962 C961 1.387 . S
H963 C975 0.930 . S
H964 C977 0.930 . S
H965 C978 0.930 . S
H966 C982 0.959 . S
H967 C982 0.959 . S
H968 C982 0.961 . S
H969 C983 0.960 . S
H970 C983 0.961 . S
H971 C983 0.959 . S
H972 C986 0.929 . S
H973 C987 0.931 . S
H974 C989 0.930 . S
C975 H963 0.930 . S
C975 C976 1.399 . S
C975 C980 1.399 . S
C976 C975 1.399 . S
C976 C977 1.376 . S
C977 H964 0.930 . S
C977 C976 1.376 . S
C977 C978 1.388 . S
C978 H965 0.930 . S
C978 C977 1.388 . S
C978 C979 1.390 . S
C979 C978 1.390 . S
C979 C980 1.394 . S
C979 C985 1.465 . S
C980 C975 1.399 . S
C980 C979 1.394 . S
C980 C981 1.516 . S
C981 C980 1.516 . S
C981 C982 1.502 . S
C981 C983 1.561 . S
C981 C984 1.526 . S
C982 H966 0.959 . S
C982 H967 0.959 . S
C982 H968 0.961 . S
C982 C981 1.502 . S
C983 H969 0.960 . S
C983 H970 0.961 . S
C983 H971 0.959 . S
C983 C981 1.561 . S
C984 C981 1.526 . S
C984 C985 1.396 . S
C984 C989 1.390 . S
C985 C979 1.465 . S
C985 C984 1.396 . S
C985 C986 1.399 . S
C986 H972 0.929 . S
C986 C985 1.399 . S
C986 C987 1.385 . S
C987 H973 0.931 . S
C987 C986 1.385 . S
C987 C988 1.389 . S
C988 C987 1.389 . S
C988 C989 1.387 . S
C989 H974 0.930 . S
C989 C984 1.390 . S
C989 C988 1.387 . S
H990 C1002 0.930 . S
H991 C1004 0.930 . S
H992 C1005 0.930 . S
H993 C1009 0.959 . S
H994 C1009 0.959 . S
H995 C1009 0.961 . S
H996 C1010 0.960 . S
H997 C1010 0.961 . S
H998 C1010 0.959 . S
H999 C1013 0.929 . S
H1000 C1014 0.931 . S
H1001 C1016 0.930 . S
C1002 H990 0.930 . S
C1002 C1003 1.399 . S
C1002 C1007 1.399 . S
C1003 C1002 1.399 . S
C1003 C1004 1.376 . S
C1004 H991 0.930 . S
C1004 C1003 1.376 . S
C1004 C1005 1.388 . S
C1005 H992 0.930 . S
C1005 C1004 1.388 . S
C1005 C1006 1.390 . S
C1006 C1005 1.390 . S
C1006 C1007 1.394 . S
C1006 C1012 1.465 . S
C1007 C1002 1.399 . S
C1007 C1006 1.394 . S
C1007 C1008 1.516 . S
C1008 C1007 1.516 . S
C1008 C1009 1.502 . S
C1008 C1010 1.561 . S
C1008 C1011 1.526 . S
C1009 H993 0.959 . S
C1009 H994 0.959 . S
C1009 H995 0.961 . S
C1009 C1008 1.502 . S
C1010 H996 0.960 . S
C1010 H997 0.961 . S
C1010 H998 0.959 . S
C1010 C1008 1.561 . S
C1011 C1008 1.526 . S
C1011 C1012 1.396 . S
C1011 C1016 1.390 . S
C1012 C1006 1.465 . S
C1012 C1011 1.396 . S
C1012 C1013 1.399 . S
C1013 H999 0.929 . S
C1013 C1012 1.399 . S
C1013 C1014 1.385 . S
C1014 H1000 0.931 . S
C1014 C1013 1.385 . S
C1014 C1015 1.389 . S
C1015 C1014 1.389 . S
C1015 C1016 1.387 . S
C1016 H1001 0.930 . S
C1016 C1011 1.390 . S
C1016 C1015 1.387 . S
H1017 C1029 0.930 . S
H1018 C1031 0.930 . S
H1019 C1032 0.930 . S
H1020 C1036 0.959 1_565 S
H1021 C1036 0.959 . S
H1022 C1036 0.961 . S
H1023 C1037 0.960 . S
H1024 C1037 0.961 . S
H1025 C1037 0.959 . S
H1026 C1040 0.929 . S
H1027 C1041 0.931 . S
H1028 C1043 0.930 . S
C1029 H1017 0.930 . S
C1029 C1030 1.399 . S
C1029 C1034 1.399 . S
C1030 C1029 1.399 . S
C1030 C1031 1.376 . S
C1031 H1018 0.930 . S
C1031 C1030 1.376 . S
C1031 C1032 1.388 . S
C1032 H1019 0.930 . S
C1032 C1031 1.388 . S
C1032 C1033 1.390 . S
C1033 C1032 1.390 . S
C1033 C1034 1.394 . S
C1033 C1039 1.465 . S
C1034 C1029 1.399 . S
C1034 C1033 1.394 . S
C1034 C1035 1.516 . S
C1035 C1034 1.516 . S
C1035 C1036 1.502 1_565 S
C1035 C1037 1.561 1_565 S
C1035 C1038 1.526 . S
C1036 H1020 0.959 1_545 S
C1036 H1021 0.959 . S
C1036 H1022 0.961 . S
C1036 C1035 1.502 1_545 S
C1037 H1023 0.960 . S
C1037 H1024 0.961 . S
C1037 H1025 0.959 . S
C1037 C1035 1.561 1_545 S
C1038 C1035 1.526 . S
C1038 C1039 1.396 . S
C1038 C1043 1.390 . S
C1039 C1033 1.465 . S
C1039 C1038 1.396 . S
C1039 C1040 1.399 . S
C1040 H1026 0.929 . S
C1040 C1039 1.399 . S
C1040 C1041 1.385 . S
C1041 H1027 0.931 . S
C1041 C1040 1.385 . S
C1041 C1042 1.389 . S
C1042 C1041 1.389 . S
C1042 C1043 1.387 . S
C1043 H1028 0.930 . S
C1043 C1038 1.390 . S
C1043 C1042 1.387 . S
H1044 C1056 0.930 . S
H1045 C1058 0.930 . S
H1046 C1059 0.930 . S
H1047 C1063 0.959 . S
H1048 C1063 0.959 . S
H1049 C1063 0.961 . S
H1050 C1064 0.960 . S
H1051 C1064 0.961 . S
H1052 C1064 0.959 . S
H1053 C1067 0.929 . S
H1054 C1068 0.931 . S
H1055 C1070 0.930 . S
C1056 H1044 0.930 . S
C1056 C1057 1.399 . S
C1056 C1061 1.399 . S
C1057 C1056 1.399 . S
C1057 C1058 1.376 . S
C1058 H1045 0.930 . S
C1058 C1057 1.376 . S
C1058 C1059 1.388 . S
C1059 H1046 0.930 . S
C1059 C1058 1.388 . S
C1059 C1060 1.390 . S
C1060 C1059 1.390 . S
C1060 C1061 1.394 . S
C1060 C1066 1.465 . S
C1061 C1056 1.399 . S
C1061 C1060 1.394 . S
C1061 C1062 1.516 . S
C1062 C1061 1.516 . S
C1062 C1063 1.502 . S
C1062 C1064 1.561 . S
C1062 C1065 1.526 . S
C1063 H1047 0.959 . S
C1063 H1048 0.959 . S
C1063 H1049 0.961 . S
C1063 C1062 1.502 . S
C1064 H1050 0.960 . S
C1064 H1051 0.961 . S
C1064 H1052 0.959 . S
C1064 C1062 1.561 . S
C1065 C1062 1.526 . S
C1065 C1066 1.396 . S
C1065 C1070 1.390 . S
C1066 C1060 1.465 . S
C1066 C1065 1.396 . S
C1066 C1067 1.399 . S
C1067 H1053 0.929 . S
C1067 C1066 1.399 . S
C1067 C1068 1.385 . S
C1068 H1054 0.931 . S
C1068 C1067 1.385 . S
C1068 C1069 1.389 . S
C1069 C1068 1.389 . S
C1069 C1070 1.387 . S
C1070 H1055 0.930 . S
C1070 C1065 1.390 . S
C1070 C1069 1.387 . S
H1071 C1083 0.930 . S
H1072 C1085 0.930 . S
H1073 C1086 0.930 . S
H1074 C1090 0.959 . S
H1075 C1090 0.959 . S
H1076 C1090 0.961 . S
H1077 C1091 0.960 . S
H1078 C1091 0.961 . S
H1079 C1091 0.959 . S
H1080 C1094 0.929 . S
H1081 C1095 0.931 . S
H1082 C1097 0.930 . S
C1083 H1071 0.930 . S
C1083 C1084 1.399 1_655 S
C1083 C1088 1.399 . S
C1084 C1083 1.399 1_455 S
C1084 C1085 1.376 . S
C1085 H1072 0.930 . S
C1085 C1084 1.376 . S
C1085 C1086 1.388 . S
C1086 H1073 0.930 . S
C1086 C1085 1.388 . S
C1086 C1087 1.390 . S
C1087 C1086 1.390 . S
C1087 C1088 1.394 1_455 S
C1087 C1093 1.465 . S
C1088 C1083 1.399 . S
C1088 C1087 1.394 1_655 S
C1088 C1089 1.516 . S
C1089 C1088 1.516 . S
C1089 C1090 1.502 . S
C1089 C1091 1.561 . S
C1089 C1092 1.526 . S
C1090 H1074 0.959 . S
C1090 H1075 0.959 . S
C1090 H1076 0.961 . S
C1090 C1089 1.502 . S
C1091 H1077 0.960 . S
C1091 H1078 0.961 . S
C1091 H1079 0.959 . S
C1091 C1089 1.561 . S
C1092 C1089 1.526 . S
C1092 C1093 1.396 1_655 S
C1092 C1097 1.390 . S
C1093 C1087 1.465 . S
C1093 C1092 1.396 1_455 S
C1093 C1094 1.399 . S
C1094 H1080 0.929 . S
C1094 C1093 1.399 . S
C1094 C1095 1.385 . S
C1095 H1081 0.931 . S
C1095 C1094 1.385 . S
C1095 C1096 1.389 . S
C1096 C1095 1.389 . S
C1096 C1097 1.387 1_455 S
C1097 H1082 0.930 . S
C1097 C1092 1.390 . S
C1097 C1096 1.387 1_655 S
H1098 C1110 0.930 . S
H1099 C1112 0.930 . S
H1100 C1113 0.930 . S
H1101 C1117 0.959 . S
H1102 C1117 0.959 . S
H1103 C1117 0.961 1_556 S
H1104 C1118 0.960 1_556 S
H1105 C1118 0.961 . S
H1106 C1118 0.959 . S
H1107 C1121 0.929 . S
H1108 C1122 0.931 . S
H1109 C1124 0.930 . S
C1110 H1098 0.930 . S
C1110 C1111 1.397 1_545 S
C1110 C1115 1.399 . S
C1111 C1110 1.397 1_565 S
C1111 C1112 1.380 . S
C1112 H1099 0.930 . S
C1112 C1111 1.380 . S
C1112 C1113 1.388 . S
C1113 H1100 0.930 . S
C1113 C1112 1.388 . S
C1113 C1114 1.390 . S
C1114 C1113 1.390 . S
C1114 C1115 1.394 1_565 S
C1114 C1120 1.465 1_556 S
C1115 C1110 1.399 . S
C1115 C1114 1.394 1_545 S
C1115 C1116 1.487 1_556 S
C1116 C1115 1.487 1_554 S
C1116 C1117 1.503 . S
C1116 C1118 1.562 . S
C1116 C1119 1.554 . S
C1117 H1101 0.959 . S
C1117 H1102 0.959 . S
C1117 H1103 0.961 1_554 S
C1117 C1116 1.503 . S
C1118 H1104 0.960 1_554 S
C1118 H1105 0.961 . S
C1118 H1106 0.959 . S
C1118 C1116 1.562 . S
C1119 C1116 1.554 . S
C1119 C1120 1.396 1_545 S
C1119 C1124 1.390 . S
C1120 C1114 1.465 1_554 S
C1120 C1119 1.396 1_565 S
C1120 C1121 1.399 . S
C1121 H1107 0.929 . S
C1121 C1120 1.399 . S
C1121 C1122 1.385 . S
C1122 H1108 0.931 . S
C1122 C1121 1.385 . S
C1122 C1123 1.389 . S
C1123 C1122 1.389 . S
C1123 C1124 1.387 1_565 S
C1124 H1109 0.930 . S
C1124 C1119 1.390 . S
C1124 C1123 1.387 1_545 S
H1125 C1137 0.930 . S
H1126 C1139 0.930 . S
H1127 C1140 0.930 . S
H1128 C1144 0.959 . S
H1129 C1144 0.959 . S
H1130 C1144 0.961 . S
H1131 C1145 0.960 . S
H1132 C1145 0.961 . S
H1133 C1145 0.959 . S
H1134 C1148 0.929 . S
H1135 C1149 0.931 . S
H1136 C1151 0.930 . S
C1137 H1125 0.930 . S
C1137 C1138 1.399 . S
C1137 C1142 1.399 . S
C1138 C1137 1.399 . S
C1138 C1139 1.376 . S
C1139 H1126 0.930 . S
C1139 C1138 1.376 . S
C1139 C1140 1.388 . S
C1140 H1127 0.930 . S
C1140 C1139 1.388 . S
C1140 C1141 1.390 . S
C1141 C1140 1.390 . S
C1141 C1142 1.394 . S
C1141 C1147 1.465 . S
C1142 C1137 1.399 . S
C1142 C1141 1.394 . S
C1142 C1143 1.516 . S
C1143 C1142 1.516 . S
C1143 C1144 1.502 . S
C1143 C1145 1.561 . S
C1143 C1146 1.526 . S
C1144 H1128 0.959 . S
C1144 H1129 0.959 . S
C1144 H1130 0.961 . S
C1144 C1143 1.502 . S
C1145 H1131 0.960 . S
C1145 H1132 0.961 . S
C1145 H1133 0.959 . S
C1145 C1143 1.561 . S
C1146 C1143 1.526 . S
C1146 C1147 1.396 . S
C1146 C1151 1.390 . S
C1147 C1141 1.465 . S
C1147 C1146 1.396 . S
C1147 C1148 1.399 . S
C1148 H1134 0.929 . S
C1148 C1147 1.399 . S
C1148 C1149 1.385 . S
C1149 H1135 0.931 . S
C1149 C1148 1.385 . S
C1149 C1150 1.389 . S
C1150 C1149 1.389 . S
C1150 C1151 1.387 . S
C1151 H1136 0.930 . S
C1151 C1146 1.390 . S
C1151 C1150 1.387 . S
H1152 C1164 0.930 . S
H1153 C1166 0.930 . S
H1154 C1167 0.930 . S
H1155 C1171 0.959 . S
H1156 C1171 0.959 . S
H1157 C1171 0.961 . S
H1158 C1172 0.960 . S
H1159 C1172 0.961 . S
H1160 C1172 0.959 1_655 S
H1161 C1175 0.929 . S
H1162 C1176 0.931 . S
H1163 C1178 0.930 . S
C1164 H1152 0.930 . S
C1164 C1165 1.399 1_455 S
C1164 C1169 1.399 . S
C1165 C1164 1.399 1_655 S
C1165 C1166 1.376 . S
C1166 H1153 0.930 . S
C1166 C1165 1.376 . S
C1166 C1167 1.388 . S
C1167 H1154 0.930 . S
C1167 C1166 1.388 . S
C1167 C1168 1.390 . S
C1168 C1167 1.390 . S
C1168 C1169 1.394 1_655 S
C1168 C1174 1.465 . S
C1169 C1164 1.399 . S
C1169 C1168 1.394 1_455 S
C1169 C1170 1.516 . S
C1170 C1169 1.516 . S
C1170 C1171 1.502 . S
C1170 C1172 1.561 . S
C1170 C1173 1.526 . S
C1171 H1155 0.959 . S
C1171 H1156 0.959 . S
C1171 H1157 0.961 . S
C1171 C1170 1.502 . S
C1172 H1158 0.960 . S
C1172 H1159 0.961 . S
C1172 H1160 0.959 1_455 S
C1172 C1170 1.561 . S
C1173 C1170 1.526 . S
C1173 C1174 1.396 1_455 S
C1173 C1178 1.390 . S
C1174 C1168 1.465 . S
C1174 C1173 1.396 1_655 S
C1174 C1175 1.399 . S
C1175 H1161 0.929 . S
C1175 C1174 1.399 . S
C1175 C1176 1.385 . S
C1176 H1162 0.931 . S
C1176 C1175 1.385 . S
C1176 C1177 1.389 . S
C1177 C1176 1.389 . S
C1177 C1178 1.387 1_655 S
C1178 H1163 0.930 . S
C1178 C1173 1.390 . S
C1178 C1177 1.387 1_455 S
H1179 C1191 0.930 . S
H1180 C1193 0.930 . S
H1181 C1194 0.930 . S
H1182 C1198 0.959 . S
H1183 C1198 0.959 . S
H1184 C1198 0.961 . S
H1185 C1199 0.960 . S
H1186 C1199 0.961 . S
H1187 C1199 0.959 . S
H1188 C1202 0.929 . S
H1189 C1203 0.931 . S
H1190 C1205 0.930 . S
C1191 H1179 0.930 . S
C1191 C1192 1.399 1_565 S
C1191 C1196 1.399 . S
C1192 C1191 1.399 1_545 S
C1192 C1193 1.376 . S
C1193 H1180 0.930 . S
C1193 C1192 1.376 . S
C1193 C1194 1.388 . S
C1194 H1181 0.930 . S
C1194 C1193 1.388 . S
C1194 C1195 1.390 . S
C1195 C1194 1.390 . S
C1195 C1196 1.394 1_545 S
C1195 C1201 1.465 . S
C1196 C1191 1.399 . S
C1196 C1195 1.394 1_565 S
C1196 C1197 1.516 . S
C1197 C1196 1.516 . S
C1197 C1198 1.502 . S
C1197 C1199 1.561 . S
C1197 C1200 1.526 . S
C1198 H1182 0.959 . S
C1198 H1183 0.959 . S
C1198 H1184 0.961 . S
C1198 C1197 1.502 . S
C1199 H1185 0.960 . S
C1199 H1186 0.961 . S
C1199 H1187 0.959 . S
C1199 C1197 1.561 . S
C1200 C1197 1.526 . S
C1200 C1201 1.396 1_565 S
C1200 C1205 1.390 . S
C1201 C1195 1.465 . S
C1201 C1200 1.396 1_545 S
C1201 C1202 1.399 . S
C1202 H1188 0.929 . S
C1202 C1201 1.399 . S
C1202 C1203 1.385 . S
C1203 H1189 0.931 . S
C1203 C1202 1.385 . S
C1203 C1204 1.389 . S
C1204 C1203 1.389 . S
C1204 C1205 1.387 1_545 S
C1205 H1190 0.930 . S
C1205 C1200 1.390 . S
C1205 C1204 1.387 1_565 S
C409 C282 0.890 . S
C421 C18 0.938 . S
C436 C51 0.863 . S
C448 C315 0.949 . S
C463 C84 0.947 . S
C475 C348 0.852 . S
C490 C117 0.902 . S
C502 C381 0.930 . S
C517 C150 0.853 . S
C529 C216 0.921 . S
C544 C183 0.916 . S
C556 C249 0.857 . S
C571 N13 1.783 . S
C583 C172 1.698 . S
C598 C7 1.761 . S
C610 N46 1.790 . S
C625 N79 1.779 . S
C637 C40 1.760 . S
C652 C73 1.741 . S
C664 N112 1.768 . S
C679 C106 1.705 . S
C691 N145 1.790 . S
C706 N178 1.784 . S
C718 C139 1.762 . S
C733 C238 1.707 . S
C745 N211 1.792 . S
C760 C271 1.736 . S
C772 N244 1.798 . S
C787 C304 1.743 . S
C799 N277 1.797 . S
C814 C337 1.742 . S
C826 N310 1.768 . S
C841 C370 1.763 . S
C853 N343 1.786 . S
C868 N376 1.779 . S
C880 C205 1.696 . S
C895 C21 1.324 . S
C907 C219 1.300 . S
C922 C54 1.323 . S
C934 C252 1.301 . S
C949 C87 1.325 . S
C961 C285 1.310 . S
C976 C120 1.324 . S
C988 C318 1.300 . S
C1003 C351 1.297 . S
C1015 C153 1.335 . S
C1030 C186 1.300 . S
C1042 C384 1.323 . S
C1057 N299 0.660 . S
C1069 N2 0.869 . S
C1084 N35 0.631 . S
C1096 N332 0.855 1_455 S
C1111 N68 0.859 1_565 S
C1123 N365 0.699 . S
C1138 N101 0.735 . S
C1150 N200 0.714 . S
C1165 N134 0.662 . S
C1177 N233 0.868 1_655 S
C1192 N266 0.635 . S
C1204 N167 0.834 1_545 S
