# Generated by pormake.
# Topology mok, (4)-cn, num edge types: 1
# Building blocks:
#     Node 0, Type 0, BuildingBlock: QUQFOY_clean_sbu_1, # of connection points: 4
#     Node 1, Type 0, BuildingBlock: QUQFOY_clean_sbu_1, # of connection points: 4
#     Node 2, Type 0, BuildingBlock: QUQFOY_clean_sbu_1, # of connection points: 4
#     Node 3, Type 0, BuildingBlock: QUQFOY_clean_sbu_1, # of connection points: 4
#     Node 4, Type 0, BuildingBlock: QUQFOY_clean_sbu_1, # of connection points: 4
#     Node 5, Type 0, BuildingBlock: QUQFOY_clean_sbu_1, # of connection points: 4
#     Node 6, Type 0, BuildingBlock: QUQFOY_clean_sbu_1, # of connection points: 4
#     Node 7, Type 0, BuildingBlock: QUQFOY_clean_sbu_1, # of connection points: 4
#     Edge 8, Type (0, 0), BuildingBlock: UVAHIK_clean_linker_0, # of connection points: 2
#     Edge 9, Type (0, 0), BuildingBlock: UVAHIK_clean_linker_0, # of connection points: 2
#     Edge 10, Type (0, 0), BuildingBlock: UVAHIK_clean_linker_0, # of connection points: 2
#     Edge 11, Type (0, 0), BuildingBlock: UVAHIK_clean_linker_0, # of connection points: 2
#     Edge 12, Type (0, 0), BuildingBlock: UVAHIK_clean_linker_0, # of connection points: 2
#     Edge 13, Type (0, 0), BuildingBlock: UVAHIK_clean_linker_0, # of connection points: 2
#     Edge 14, Type (0, 0), BuildingBlock: UVAHIK_clean_linker_0, # of connection points: 2
#     Edge 15, Type (0, 0), BuildingBlock: UVAHIK_clean_linker_0, # of connection points: 2
#     Edge 16, Type (0, 0), BuildingBlock: UVAHIK_clean_linker_0, # of connection points: 2
#     Edge 17, Type (0, 0), BuildingBlock: UVAHIK_clean_linker_0, # of connection points: 2
#     Edge 18, Type (0, 0), BuildingBlock: UVAHIK_clean_linker_0, # of connection points: 2
#     Edge 19, Type (0, 0), BuildingBlock: UVAHIK_clean_linker_0, # of connection points: 2
#     Edge 20, Type (0, 0), BuildingBlock: UVAHIK_clean_linker_0, # of connection points: 2
#     Edge 21, Type (0, 0), BuildingBlock: UVAHIK_clean_linker_0, # of connection points: 2
#     Edge 22, Type (0, 0), BuildingBlock: UVAHIK_clean_linker_0, # of connection points: 2
#     Edge 23, Type (0, 0), BuildingBlock: UVAHIK_clean_linker_0, # of connection points: 2
# Relax obj value: 0.033
# Max RMSD: 0.079
# Mean RMSD: 0.079
data_MOF--net-mok--node1-QUQFOY_clean_sbu_1--edge1-UVAHIK_clean_linker_0
_symmetry_space_group_name_H-M    P1
_symmetry_Int_Tables_number       1
_symmetry_cell_setting            triclinic
loop_
_symmetry_equiv_pos_as_xyz
'x, y, z'
_cell_length_a     71.039135
_cell_length_b     20.014717
_cell_length_c     36.900323
_cell_angle_alpha  90.005675
_cell_angle_beta   89.949788
_cell_angle_gamma 89.992069
loop_
_atom_site_label
_atom_site_type_symbol
_atom_site_fract_x
_atom_site_fract_y
_atom_site_fract_z
_atom_type_partial_charge
O0 O 0.61318 0.30934 0.99996 0.0
Cd1 Cd 0.61847 0.25686 0.04701 0.0
Cd2 Cd 0.62227 0.38065 0.07353 0.0
O3 O 0.61086 0.40953 0.02444 0.0
O4 O 0.60655 0.16687 0.04083 0.0
O5 O 0.59672 0.24173 0.08065 0.0
C6 C 0.59454 0.18423 0.06537 0.0
C7 C 0.61002 0.41222 0.12962 0.0
C8 C 0.60964 0.37138 0.99695 0.0
C9 C 0.65712 0.2959 0.07019 0.0
O10 O 0.6503 0.35432 0.07355 0.0
O11 O 0.64642 0.24685 0.06252 0.0
O12 O 0.61919 0.45424 0.10979 0.0
O13 O 0.60708 0.35318 0.11672 0.0
O14 O 0.40257 0.69278 0.99906 0.0
Cd15 Cd 0.39761 0.7455 0.04622 0.0
Cd16 Cd 0.39334 0.62274 0.07271 0.0
O17 O 0.40423 0.59241 0.02348 0.0
O18 O 0.41023 0.83402 0.04025 0.0
O19 O 0.41938 0.75812 0.08013 0.0
C20 C 0.42203 0.81546 0.06487 0.0
C21 C 0.40448 0.58264 0.12806 0.0
C22 C 0.40566 0.63045 0.996 0.0
C23 C 0.3589 0.71059 0.06955 0.0
O24 O 0.36555 0.65204 0.07323 0.0
O25 O 0.36975 0.75893 0.06144 0.0
O26 O 0.3943 0.54592 0.10708 0.0
O27 O 0.40918 0.64134 0.11668 0.0
O28 O 0.61332 0.69483 0.63159 0.0
Cd29 Cd 0.61881 0.74417 0.58362 0.0
Cd30 Cd 0.62273 0.61893 0.55964 0.0
O31 O 0.61127 0.59296 0.60919 0.0
O32 O 0.60703 0.83465 0.58846 0.0
O33 O 0.59711 0.75809 0.54971 0.0
C34 C 0.595 0.81633 0.5642 0.0
C35 C 0.61057 0.58369 0.50419 0.0
C36 C 0.60988 0.63298 0.63585 0.0
C37 C 0.65756 0.70365 0.56156 0.0
O38 O 0.65077 0.64504 0.55925 0.0
O39 O 0.64682 0.75313 0.56821 0.0
O40 O 0.61962 0.54294 0.52495 0.0
O41 O 0.60771 0.64372 0.51576 0.0
O42 O 0.40284 0.30323 0.63115 0.0
Cd43 Cd 0.39788 0.25298 0.58323 0.0
Cd44 Cd 0.39344 0.37735 0.55901 0.0
O45 O 0.40418 0.40525 0.60874 0.0
O46 O 0.41036 0.16399 0.58829 0.0
O47 O 0.41973 0.24114 0.54931 0.0
C48 C 0.42226 0.18324 0.56399 0.0
C49 C 0.40477 0.41889 0.50413 0.0
C50 C 0.40577 0.36542 0.63543 0.0
C51 C 0.35911 0.28895 0.56058 0.0
O52 O 0.36568 0.34779 0.55793 0.0
O53 O 0.37001 0.24032 0.56787 0.0
O54 O 0.39458 0.4552 0.52535 0.0
O55 O 0.40939 0.35983 0.51506 0.0
O56 O 0.11349 0.8082 0.99938 0.0
Cd57 Cd 0.11872 0.75551 0.04642 0.0
Cd58 Cd 0.12249 0.87884 0.07309 0.0
O59 O 0.11165 0.90865 0.02372 0.0
O60 O 0.10638 0.66634 0.04059 0.0
O61 O 0.09709 0.74185 0.08059 0.0
C62 C 0.09459 0.6844 0.06538 0.0
C63 C 0.11062 0.91655 0.12845 0.0
C64 C 0.11027 0.87046 0.99628 0.0
C65 C 0.15728 0.79265 0.06987 0.0
O66 O 0.15038 0.85079 0.07383 0.0
O67 O 0.14666 0.74384 0.06149 0.0
O68 O 0.12077 0.9547 0.10812 0.0
O69 O 0.10647 0.85776 0.11647 0.0
O70 O 0.90255 0.19843 0.99909 0.0
Cd71 Cd 0.89745 0.24877 0.04695 0.0
Cd72 Cd 0.89318 0.12438 0.07136 0.0
O73 O 0.904 0.09651 0.02161 0.0
O74 O 0.90988 0.33784 0.04197 0.0
O75 O 0.9192 0.26072 0.081 0.0
C76 C 0.92173 0.31866 0.06635 0.0
C77 C 0.90443 0.08277 0.12629 0.0
C78 C 0.90555 0.13626 0.99488 0.0
C79 C 0.85871 0.21233 0.06957 0.0
O80 O 0.86539 0.15366 0.07239 0.0
O81 O 0.86954 0.26113 0.06216 0.0
O82 O 0.89429 0.04647 0.105 0.0
O83 O 0.90905 0.14187 0.1154 0.0
O84 O 0.1136 0.19517 0.63093 0.0
Cd85 Cd 0.11892 0.24561 0.58319 0.0
Cd86 Cd 0.12276 0.1207 0.5586 0.0
O87 O 0.11202 0.09318 0.60848 0.0
O88 O 0.10687 0.33545 0.58842 0.0
O89 O 0.09722 0.25918 0.54923 0.0
C90 C 0.09493 0.31712 0.564 0.0
C91 C 0.11064 0.08224 0.50369 0.0
C92 C 0.11051 0.13307 0.63518 0.0
C93 C 0.15753 0.20698 0.56021 0.0
O94 O 0.15064 0.14864 0.55721 0.0
O95 O 0.14689 0.2562 0.56789 0.0
O96 O 0.12076 0.04414 0.52409 0.0
O97 O 0.10664 0.14135 0.51541 0.0
O98 O 0.90289 0.80727 0.63163 0.0
Cd99 Cd 0.89786 0.75414 0.58465 0.0
Cd100 Cd 0.89352 0.87675 0.55784 0.0
O101 O 0.90437 0.90752 0.60702 0.0
O102 O 0.91058 0.6658 0.59057 0.0
O103 O 0.91952 0.74153 0.55039 0.0
C104 C 0.92226 0.68429 0.5657 0.0
C105 C 0.90449 0.91716 0.50237 0.0
C106 C 0.9059 0.86967 0.63456 0.0
C107 C 0.85911 0.78854 0.56149 0.0
O108 O 0.86576 0.84701 0.55746 0.0
O109 O 0.86997 0.74036 0.56984 0.0
O110 O 0.89427 0.95361 0.52346 0.0
O111 O 0.90934 0.85859 0.5137 0.0
C112 C 0.82613 0.16684 0.07711 0.0
C113 C 0.83811 0.22241 0.07334 0.0
C114 C 0.80664 0.17503 0.07867 0.0
C115 C 0.76919 0.29611 0.09862 0.0
H116 H 0.73856 0.1795 0.03891 0.0
C117 C 0.68974 0.3417 0.07692 0.0
C118 C 0.67774 0.28612 0.0738 0.0
C119 C 0.70925 0.33341 0.07853 0.0
C120 C 0.74684 0.2118 0.05622 0.0
H121 H 0.8389 0.33047 0.06908 0.0
H122 H 0.80471 0.34476 0.07211 0.0
H123 H 0.77266 0.16698 0.03875 0.0
H124 H 0.67688 0.17796 0.0708 0.0
H125 H 0.71092 0.16331 0.0745 0.0
H126 H 0.7434 0.3405 0.11646 0.0
C127 C 0.81053 0.29484 0.07384 0.0
C128 C 0.76641 0.20476 0.05599 0.0
C129 C 0.83009 0.28662 0.07198 0.0
C130 C 0.68571 0.22187 0.07301 0.0
C131 C 0.70526 0.21353 0.07488 0.0
C132 C 0.74958 0.30282 0.09908 0.0
C133 C 0.79859 0.239 0.07676 0.0
C134 C 0.7778 0.2469 0.07713 0.0
C135 C 0.71729 0.26927 0.07735 0.0
C136 C 0.73814 0.26089 0.07778 0.0
H137 H 0.83177 0.11662 0.07833 0.0
H138 H 0.79783 0.13113 0.08144 0.0
H139 H 0.77759 0.32876 0.11552 0.0
H140 H 0.68412 0.39199 0.07742 0.0
H141 H 0.71803 0.37757 0.07983 0.0
C142 C 0.1861 0.71939 0.07191 0.0
C143 C 0.17792 0.78331 0.07342 0.0
C144 C 0.20568 0.71181 0.07371 0.0
C145 C 0.24962 0.80278 0.0558 0.0
H146 H 0.27275 0.66828 0.11681 0.0
C147 C 0.33043 0.78542 0.07204 0.0
C148 C 0.33831 0.72106 0.07324 0.0
C149 C 0.31089 0.79415 0.07405 0.0
C150 C 0.26653 0.70561 0.09927 0.0
H151 H 0.18397 0.88931 0.07844 0.0
H152 H 0.21796 0.87591 0.08134 0.0
H153 H 0.23855 0.67952 0.11587 0.0
H154 H 0.33177 0.61539 0.07763 0.0
H155 H 0.29792 0.63043 0.08021 0.0
H156 H 0.27745 0.82809 0.03849 0.0
C157 C 0.20927 0.83174 0.0786 0.0
C158 C 0.24693 0.71204 0.09882 0.0
C159 C 0.18975 0.83928 0.07716 0.0
C160 C 0.32623 0.66578 0.07684 0.0
C161 C 0.30675 0.67444 0.07856 0.0
C162 C 0.2692 0.79599 0.05598 0.0
C163 C 0.21747 0.76803 0.07666 0.0
C164 C 0.23827 0.76072 0.0771 0.0
C165 C 0.29878 0.73866 0.07704 0.0
C166 C 0.27794 0.74726 0.07769 0.0
H167 H 0.1774 0.67526 0.06903 0.0
H168 H 0.21163 0.66209 0.07194 0.0
H169 H 0.24333 0.84023 0.03842 0.0
H170 H 0.33933 0.82909 0.06943 0.0
H171 H 0.30529 0.84444 0.07335 0.0
C172 C 0.83056 0.7139 0.56046 0.0
C173 C 0.83852 0.77806 0.55798 0.0
C174 C 0.811 0.70537 0.55876 0.0
C175 C 0.76678 0.79597 0.57503 0.0
H176 H 0.74398 0.65677 0.51672 0.0
C177 C 0.68614 0.77757 0.55775 0.0
C178 C 0.67818 0.71329 0.55796 0.0
C179 C 0.70569 0.78586 0.5559 0.0
C180 C 0.7501 0.69544 0.5335 0.0
H181 H 0.8321 0.88345 0.55121 0.0
H182 H 0.79817 0.86844 0.54841 0.0
H183 H 0.77816 0.6688 0.51761 0.0
H184 H 0.68461 0.60729 0.55617 0.0
H185 H 0.71852 0.62166 0.55379 0.0
H186 H 0.73887 0.82199 0.59156 0.0
C187 C 0.80701 0.8248 0.55191 0.0
C188 C 0.7697 0.70231 0.53394 0.0
C189 C 0.8265 0.83328 0.55329 0.0
C190 C 0.69022 0.65759 0.55587 0.0
C191 C 0.70972 0.66585 0.55428 0.0
C192 C 0.74721 0.7888 0.57483 0.0
C193 C 0.79902 0.7609 0.5549 0.0
C194 C 0.77824 0.75277 0.55464 0.0
C195 C 0.71774 0.73005 0.55447 0.0
C196 C 0.73859 0.73848 0.55404 0.0
H197 H 0.83941 0.67031 0.56408 0.0
H198 H 0.80523 0.65553 0.56134 0.0
H199 H 0.77297 0.83476 0.59166 0.0
H200 H 0.67728 0.82157 0.55916 0.0
H201 H 0.71134 0.83609 0.5555 0.0
C202 C 0.18637 0.28008 0.55761 0.0
C203 C 0.17816 0.21619 0.55638 0.0
C204 C 0.20595 0.28753 0.55566 0.0
C205 C 0.24987 0.19616 0.57346 0.0
H206 H 0.27304 0.33122 0.51282 0.0
C207 C 0.33069 0.21396 0.55738 0.0
C208 C 0.33853 0.2784 0.55666 0.0
C209 C 0.31116 0.20513 0.55521 0.0
C210 C 0.26681 0.2937 0.53024 0.0
H211 H 0.18417 0.11012 0.55159 0.0
H212 H 0.21816 0.1233 0.54836 0.0
H213 H 0.23885 0.31993 0.51369 0.0
H214 H 0.33193 0.3841 0.55286 0.0
H215 H 0.2981 0.36886 0.54994 0.0
H216 H 0.27769 0.17069 0.59069 0.0
C217 C 0.20948 0.16755 0.55105 0.0
C218 C 0.24721 0.28725 0.53066 0.0
C219 C 0.18997 0.16012 0.55269 0.0
C220 C 0.32642 0.33367 0.55331 0.0
C221 C 0.30696 0.3249 0.55139 0.0
C222 C 0.26945 0.20293 0.57328 0.0
C223 C 0.21771 0.23122 0.55279 0.0
C224 C 0.23853 0.23841 0.55228 0.0
C225 C 0.29903 0.26059 0.55248 0.0
C226 C 0.27819 0.25188 0.55172 0.0
H227 H 0.17769 0.3243 0.56045 0.0
H228 H 0.21191 0.33724 0.55728 0.0
H229 H 0.24356 0.15859 0.59077 0.0
H230 H 0.33962 0.17029 0.55979 0.0
H231 H 0.30559 0.1548 0.55558 0.0
C232 C 0.60562 0.4957 0.17956 0.0
C233 C 0.60447 0.42942 0.16714 0.0
C234 C 0.60252 0.51071 0.21611 0.0
C235 C 0.60805 0.43618 0.30494 0.0
H236 H 0.57817 0.58514 0.33965 0.0
C237 C 0.6047 0.49597 0.45718 0.0
C238 C 0.60502 0.56366 0.46713 0.0
C239 C 0.60153 0.47737 0.42118 0.0
C240 C 0.58676 0.54378 0.33045 0.0
H241 H 0.59853 0.32723 0.18308 0.0
H242 H 0.59344 0.35345 0.24702 0.0
H243 H 0.57838 0.55802 0.2751 0.0
H244 H 0.60178 0.66497 0.44736 0.0
H245 H 0.59699 0.633 0.38446 0.0
H246 H 0.61728 0.4235 0.35949 0.0
C247 C 0.59669 0.39369 0.2284 0.0
C248 C 0.58676 0.52811 0.29348 0.0
C249 C 0.59951 0.37881 0.19178 0.0
C250 C 0.6015 0.61232 0.44057 0.0
C251 C 0.59865 0.59383 0.40443 0.0
C252 C 0.60829 0.45241 0.34175 0.0
C253 C 0.59848 0.4596 0.24102 0.0
C254 C 0.59748 0.47432 0.28037 0.0
C255 C 0.59896 0.5261 0.39408 0.0
C256 C 0.59773 0.50669 0.35507 0.0
H257 H 0.6094 0.5358 0.16123 0.0
H258 H 0.60409 0.56189 0.22517 0.0
H259 H 0.61668 0.39507 0.29549 0.0
H260 H 0.60721 0.45729 0.47714 0.0
H261 H 0.60138 0.42468 0.41456 0.0
C262 C 0.42112 0.59802 0.18755 0.0
C263 C 0.40907 0.56034 0.16527 0.0
C264 C 0.42347 0.58111 0.22411 0.0
C265 C 0.39702 0.508 0.29777 0.0
H266 H 0.44452 0.49053 0.34877 0.0
C267 C 0.40045 0.49884 0.45283 0.0
C268 C 0.40941 0.442 0.46707 0.0
C269 C 0.40255 0.51567 0.41634 0.0
C270 C 0.43119 0.49538 0.33477 0.0
H271 H 0.39065 0.47387 0.16353 0.0
H272 H 0.39454 0.44535 0.22731 0.0
H273 H 0.44441 0.51234 0.28315 0.0
H274 H 0.42847 0.36044 0.45467 0.0
H275 H 0.43242 0.39094 0.39078 0.0
H276 H 0.38375 0.49212 0.34913 0.0
C277 C 0.40216 0.48776 0.21647 0.0
C278 C 0.43113 0.50803 0.29741 0.0
C279 C 0.40002 0.504 0.17991 0.0
C280 C 0.42136 0.40447 0.44447 0.0
C281 C 0.42367 0.42196 0.40798 0.0
C282 C 0.39709 0.49665 0.33506 0.0
C283 C 0.4136 0.5269 0.23907 0.0
C284 C 0.41402 0.51392 0.27858 0.0
C285 C 0.41386 0.47663 0.3934 0.0
C286 C 0.41414 0.49004 0.35392 0.0
H287 H 0.42829 0.64166 0.17704 0.0
H288 H 0.43233 0.61217 0.24105 0.0
H289 H 0.38365 0.51293 0.28395 0.0
H290 H 0.39116 0.52887 0.46947 0.0
H291 H 0.39497 0.55843 0.40579 0.0
C292 C 0.41182 0.5325 0.95512 0.0
C293 C 0.4098 0.60184 0.9598 0.0
C294 C 0.4141 0.50533 0.92047 0.0
C295 C 0.42611 0.54831 0.82531 0.0
H296 H 0.39581 0.39265 0.80285 0.0
C297 C 0.41074 0.46069 0.67872 0.0
C298 C 0.40987 0.39156 0.67216 0.0
C299 C 0.41295 0.48504 0.714 0.0
C300 C 0.4046 0.4355 0.80877 0.0
H301 H 0.40923 0.69712 0.93172 0.0
H302 H 0.41302 0.64975 0.87145 0.0
H303 H 0.39591 0.43693 0.86425 0.0
H304 H 0.41147 0.29381 0.69747 0.0
H305 H 0.41554 0.33625 0.75876 0.0
H306 H 0.43454 0.54735 0.76954 0.0
C307 C 0.41302 0.61634 0.89455 0.0
C308 C 0.40467 0.46087 0.84402 0.0
C309 C 0.41073 0.64351 0.92915 0.0
C310 C 0.41192 0.34736 0.70153 0.0
C311 C 0.41415 0.37169 0.73673 0.0
C312 C 0.42604 0.52289 0.78999 0.0
C313 C 0.41444 0.54688 0.88973 0.0
C314 C 0.41531 0.51786 0.85267 0.0
C315 C 0.41437 0.44078 0.74348 0.0
C316 C 0.41518 0.46643 0.78127 0.0
H317 H 0.41125 0.49895 0.97814 0.0
H318 H 0.41543 0.45167 0.91773 0.0
H319 H 0.43465 0.59178 0.83119 0.0
H320 H 0.40918 0.49615 0.65673 0.0
H321 H 0.41289 0.53856 0.71829 0.0
C322 C 0.60308 0.46886 0.95597 0.0
C323 C 0.60531 0.39963 0.96075 0.0
C324 C 0.60071 0.49576 0.92128 0.0
C325 C 0.5889 0.45188 0.82613 0.0
H326 H 0.61897 0.60799 0.80341 0.0
C327 C 0.60449 0.53825 0.67933 0.0
C328 C 0.60546 0.6073 0.67258 0.0
C329 C 0.60213 0.51429 0.71467 0.0
C330 C 0.61023 0.56503 0.80939 0.0
H331 H 0.60612 0.30422 0.93281 0.0
H332 H 0.60218 0.3511 0.87249 0.0
H333 H 0.61881 0.5643 0.86491 0.0
H334 H 0.60386 0.70532 0.69758 0.0
H335 H 0.5995 0.66359 0.75894 0.0
H336 H 0.58058 0.45214 0.77033 0.0
C337 C 0.60209 0.38464 0.89553 0.0
C338 C 0.61014 0.53997 0.84471 0.0
C339 C 0.60447 0.35776 0.93017 0.0
C340 C 0.60333 0.65182 0.70179 0.0
C341 C 0.60094 0.62789 0.73704 0.0
C342 C 0.58899 0.47699 0.79075 0.0
C343 C 0.60049 0.45403 0.8906 0.0
C344 C 0.59959 0.4828 0.85347 0.0
C345 C 0.60066 0.55886 0.74402 0.0
C346 C 0.59977 0.53362 0.78191 0.0
H347 H 0.60358 0.50257 0.97893 0.0
H348 H 0.59924 0.54936 0.91845 0.0
H349 H 0.58044 0.40823 0.83209 0.0
H350 H 0.60611 0.50255 0.65747 0.0
H351 H 0.60214 0.46082 0.71911 0.0
C352 C 0.11318 0.99551 0.18073 0.0
C353 C 0.10525 0.93769 0.1655 0.0
C354 C 0.10994 0.01175 0.21702 0.0
C355 C 0.09613 0.93301 0.30389 0.0
H356 H 0.09664 0.11667 0.33714 0.0
C357 C 0.11305 0.0027 0.45162 0.0
C358 C 0.10517 0.06073 0.46677 0.0
C359 C 0.10979 0.98629 0.41537 0.0
C360 C 0.09614 0.06504 0.32846 0.0
H361 H 0.08694 0.85321 0.17596 0.0
H362 H 0.08076 0.88265 0.23903 0.0
H363 H 0.09598 0.09326 0.27259 0.0
H364 H 0.08692 0.14533 0.45623 0.0
H365 H 0.08071 0.11558 0.39324 0.0
H366 H 0.09588 0.90478 0.35977 0.0
C367 C 0.08993 0.91456 0.22323 0.0
C368 C 0.09605 0.05157 0.29128 0.0
C369 C 0.09335 0.89793 0.18696 0.0
C370 C 0.09329 0.10046 0.44529 0.0
C371 C 0.08986 0.08365 0.40907 0.0
C372 C 0.096 0.94647 0.34107 0.0
C373 C 0.0985 0.97099 0.23896 0.0
C374 C 0.09648 0.98538 0.27846 0.0
C375 C 0.0984 0.02708 0.39339 0.0
C376 C 0.09643 0.01267 0.35389 0.0
H377 H 0.12251 0.02705 0.16502 0.0
H378 H 0.11704 0.05496 0.22816 0.0
H379 H 0.09663 0.88137 0.2952 0.0
H380 H 0.12236 0.97118 0.46735 0.0
H381 H 0.11687 0.94296 0.40428 0.0
C382 C 0.89974 0.99566 0.45055 0.0
C383 C 0.90895 0.93959 0.4651 0.0
C384 C 0.90178 0.01201 0.41399 0.0
C385 C 0.93075 0.99285 0.33286 0.0
H386 H 0.88334 0.00822 0.28139 0.0
C387 C 0.92092 0.09707 0.186 0.0
C388 C 0.909 0.0596 0.16335 0.0
C389 C 0.92321 0.07944 0.22247 0.0
C390 C 0.89668 0.00385 0.29539 0.0
H391 H 0.92835 0.85886 0.45311 0.0
H392 H 0.93222 0.88858 0.38909 0.0
H393 H 0.88329 0.98692 0.34653 0.0
H394 H 0.89077 0.9727 0.16087 0.0
H395 H 0.89455 0.94287 0.2245 0.0
H396 H 0.9441 0.01099 0.28147 0.0
C397 C 0.92331 0.91934 0.40611 0.0
C398 C 0.89665 0.99221 0.33266 0.0
C399 C 0.92105 0.90229 0.44268 0.0
C400 C 0.90004 0.00269 0.17754 0.0
C401 C 0.90212 0.98571 0.21401 0.0
C402 C 0.93078 0.00578 0.29552 0.0
C403 C 0.91329 0.97329 0.39126 0.0
C404 C 0.91366 0.98648 0.35176 0.0
C405 C 0.91341 0.02466 0.23699 0.0
C406 C 0.91372 0.01094 0.27645 0.0
H407 H 0.89032 0.02548 0.46704 0.0
H408 H 0.89404 0.05423 0.40324 0.0
H409 H 0.94405 0.98871 0.34705 0.0
H410 H 0.92803 0.14115 0.17586 0.0
H411 H 0.93194 0.11039 0.2397 0.0
C412 C 0.91191 0.96797 0.67528 0.0
C413 C 0.91001 0.89857 0.6707 0.0
C414 C 0.91415 0.99537 0.70987 0.0
C415 C 0.92624 0.95303 0.8051 0.0
H416 H 0.89573 0.1083 0.82744 0.0
C417 C 0.91069 0.04092 0.95166 0.0
C418 C 0.90972 0.11005 0.95815 0.0
C419 C 0.91295 0.01648 0.91639 0.0
C420 C 0.90458 0.06557 0.82156 0.0
H421 H 0.90963 0.80343 0.69893 0.0
H422 H 0.91335 0.85117 0.7591 0.0
H423 H 0.89591 0.06381 0.7661 0.0
H424 H 0.91118 0.20773 0.93273 0.0
H425 H 0.91534 0.16517 0.87148 0.0
H426 H 0.93464 0.95431 0.86085 0.0
C427 C 0.91329 0.88447 0.73596 0.0
C428 C 0.90469 0.04006 0.78633 0.0
C429 C 0.91104 0.85708 0.70141 0.0
C430 C 0.91171 0.15418 0.92873 0.0
C431 C 0.91399 0.12977 0.89354 0.0
C432 C 0.92612 0.97857 0.84039 0.0
C433 C 0.91458 0.95399 0.74068 0.0
C434 C 0.91541 0.9832 0.77771 0.0
C435 C 0.91431 0.06066 0.88685 0.0
C436 C 0.91518 0.0349 0.84908 0.0
H437 H 0.91126 0.0014 0.6522 0.0
H438 H 0.91539 0.04907 0.71253 0.0
H439 H 0.93484 0.90967 0.79925 0.0
H440 H 0.90918 0.00551 0.97368 0.0
H441 H 0.91298 0.96295 0.91215 0.0
C442 C 0.1052 0.85695 0.92946 0.0
C443 C 0.10609 0.89881 0.96004 0.0
C444 C 0.1029 0.88386 0.89481 0.0
C445 C 0.11114 0.03914 0.84399 0.0
H446 H 0.08153 0.95161 0.76957 0.0
C447 C 0.10415 0.15147 0.70121 0.0
C448 C 0.10629 0.10711 0.67193 0.0
C449 C 0.10184 0.12737 0.73645 0.0
C450 C 0.08996 0.97637 0.79 0.0
H451 H 0.10452 0.00179 0.9782 0.0
H452 H 0.10031 0.04864 0.91771 0.0
H453 H 0.08135 0.90765 0.83132 0.0
H454 H 0.10704 0.00243 0.65669 0.0
H455 H 0.10319 0.96039 0.71832 0.0
H456 H 0.12 0.10717 0.80271 0.0
C457 C 0.10169 0.99502 0.92054 0.0
C458 C 0.08985 0.95123 0.82538 0.0
C459 C 0.10399 0.96809 0.95524 0.0
C460 C 0.10542 0.03801 0.67861 0.0
C461 C 0.10313 0.01388 0.71393 0.0
C462 C 0.11125 0.06424 0.80868 0.0
C463 C 0.10141 0.95328 0.88986 0.0
C464 C 0.10055 0.98205 0.85273 0.0
C465 C 0.10163 0.05832 0.74334 0.0
C466 C 0.10076 0.03294 0.78119 0.0
H467 H 0.10676 0.80336 0.93211 0.0
H468 H 0.10295 0.8503 0.87178 0.0
H469 H 0.11983 0.06338 0.86419 0.0
H470 H 0.1046 0.205 0.69707 0.0
H471 H 0.10038 0.16296 0.75839 0.0
C472 C 0.44177 0.91771 0.05545 0.0
C473 C 0.43882 0.85659 0.07332 0.0
C474 C 0.45848 0.95341 0.06044 0.0
C475 C 0.50805 0.92844 0.08629 0.0
H476 H 0.50904 0.1221 0.08714 0.0
C477 C 0.5642 0.16362 0.09838 0.0
C478 C 0.57799 0.1418 0.07372 0.0
C479 C 0.54759 0.12713 0.10328 0.0
C480 C 0.50904 0.068 0.08741 0.0
H481 H 0.45087 0.78618 0.11148 0.0
H482 H 0.47999 0.8489 0.12048 0.0
H483 H 0.47893 0.06382 0.08781 0.0
H484 H 0.58541 0.06325 0.03581 0.0
H485 H 0.55645 0.99997 0.04416 0.0
H486 H 0.53818 0.93265 0.08591 0.0
C487 C 0.46946 0.86874 0.10219 0.0
C488 C 0.49176 0.03458 0.08737 0.0
C489 C 0.45271 0.83305 0.09724 0.0
C490 C 0.5751 0.08143 0.05507 0.0
C491 C 0.55851 0.04493 0.05999 0.0
C492 C 0.52535 0.96187 0.0863 0.0
C493 C 0.47267 0.92887 0.08342 0.0
C494 C 0.49103 0.96439 0.08633 0.0
C495 C 0.54439 0.06793 0.08368 0.0
C496 C 0.52606 0.0321 0.08641 0.0
H497 H 0.43138 0.93724 0.03676 0.0
H498 H 0.46054 0.9991 0.04522 0.0
H499 H 0.50804 0.87437 0.08514 0.0
H500 H 0.566 0.20981 0.11327 0.0
H501 H 0.53715 0.14573 0.12215 0.0
C502 C 0.57553 0.91932 0.57369 0.0
C503 C 0.57847 0.85856 0.55544 0.0
C504 C 0.55892 0.95559 0.56855 0.0
C505 C 0.50949 0.93154 0.54109 0.0
H506 H 0.5083 0.12515 0.54324 0.0
C507 C 0.45298 0.16616 0.53153 0.0
C508 C 0.43906 0.14223 0.55533 0.0
C509 C 0.46975 0.1306 0.52647 0.0
C510 C 0.50836 0.07109 0.54211 0.0
H511 H 0.56657 0.78965 0.5163 0.0
H512 H 0.5377 0.8534 0.50695 0.0
H513 H 0.53848 0.06724 0.54249 0.0
H514 H 0.43161 0.06106 0.59156 0.0
H515 H 0.46081 0.99951 0.58295 0.0
H516 H 0.47938 0.93536 0.54063 0.0
C517 C 0.54811 0.87246 0.52573 0.0
C518 C 0.52569 0.03785 0.54212 0.0
C519 C 0.56473 0.83616 0.53089 0.0
C520 C 0.44201 0.08088 0.57296 0.0
C521 C 0.45875 0.04535 0.56788 0.0
C522 C 0.49217 0.96476 0.54108 0.0
C523 C 0.54484 0.93202 0.54499 0.0
C524 C 0.52647 0.96763 0.5421 0.0
C525 C 0.47297 0.07027 0.54503 0.0
C526 C 0.49137 0.03495 0.54209 0.0
H527 H 0.5858 0.93795 0.59287 0.0
H528 H 0.55682 0.00082 0.58414 0.0
H529 H 0.50953 0.87744 0.54144 0.0
H530 H 0.45114 0.21321 0.51748 0.0
H531 H 0.48028 0.15074 0.50827 0.0
C532 C 0.07485 0.58221 0.0557 0.0
C533 C 0.07796 0.64267 0.07412 0.0
C534 C 0.05821 0.5462 0.061 0.0
C535 C 0.00892 0.57042 0.08932 0.0
H536 H 1.00767 0.37682 0.0869 0.0
C537 C 0.9524 0.33579 0.09887 0.0
C538 C 0.93849 0.35976 0.07511 0.0
C539 C 0.96915 0.3714 0.10397 0.0
C540 C 1.00774 0.43088 0.08812 0.0
H541 H 0.06629 0.71143 0.11364 0.0
H542 H 0.03734 0.64814 0.12322 0.0
H543 H 0.03787 0.43459 0.08737 0.0
H544 H 0.93102 0.44112 0.03905 0.0
H545 H 0.96018 0.50277 0.04772 0.0
H546 H 0.9788 0.56672 0.0901 0.0
C547 C 0.04766 0.62909 0.10423 0.0
C548 C 0.02508 0.46404 0.08795 0.0
C549 C 0.06432 0.66512 0.09893 0.0
C550 C 0.94141 0.42126 0.0576 0.0
C551 C 0.95813 0.45684 0.06272 0.0
C552 C 0.99158 0.53727 0.08948 0.0
C553 C 0.04425 0.56974 0.08487 0.0
C554 C 0.02588 0.53425 0.08803 0.0
C555 C 0.97235 0.43183 0.08549 0.0
C556 C 0.99077 0.46709 0.08837 0.0
H557 H 0.08503 0.56354 0.03632 0.0
H558 H 0.056 0.50115 0.04532 0.0
H559 H 0.00898 0.62453 0.08905 0.0
H560 H 0.95057 0.28864 0.11284 0.0
H561 H 0.97969 0.35118 0.12211 0.0
C562 C 0.06447 0.3362 0.53116 0.0
C563 C 0.07833 0.35906 0.55535 0.0
C564 C 0.04781 0.37238 0.52614 0.0
C565 C 0.0255 0.5381 0.54199 0.0
H566 H 0.97915 0.43581 0.54243 0.0
C567 C 0.94212 0.58229 0.57499 0.0
C568 C 0.93902 0.64316 0.55696 0.0
C569 C 0.9588 0.54659 0.56967 0.0
C570 C 0.99196 0.46515 0.54232 0.0
H571 H 0.08582 0.43909 0.59226 0.0
H572 H 0.05679 0.50176 0.58373 0.0
H573 H 0.0093 0.37775 0.54276 0.0
H574 H 0.95079 0.71308 0.51818 0.0
H575 H 0.97986 0.65032 0.50858 0.0
H576 H 0.00815 0.62551 0.54301 0.0
C577 C 0.05882 0.45626 0.56834 0.0
C578 C 0.00927 0.43185 0.54207 0.0
C579 C 0.07546 0.4201 0.57337 0.0
C580 C 0.95274 0.66642 0.53256 0.0
C581 C 0.96947 0.6307 0.52726 0.0
C582 C 0.00819 0.57142 0.54222 0.0
C583 C 0.04464 0.43229 0.54515 0.0
C584 C 0.02627 0.46788 0.54241 0.0
C585 C 0.97283 0.57084 0.54618 0.0
C586 C 0.9912 0.53536 0.54291 0.0
H587 H 0.06626 0.28945 0.51678 0.0
H588 H 0.03731 0.35299 0.50766 0.0
H589 H 0.03831 0.56743 0.54185 0.0
H590 H 0.93187 0.56298 0.59405 0.0
H591 H 0.96098 0.50113 0.58502 0.0
loop_
_geom_bond_atom_site_label_1
_geom_bond_atom_site_label_2
_geom_bond_distance
_geom_bond_site_symmetry_2
_ccdc_geom_bond_type
O0 Cd1 2.223 1_556 S
O0 C8 1.315 . S
Cd1 O0 2.223 1_554 S
Cd1 O4 2.297 . S
Cd1 O5 2.439 . S
Cd1 O11 2.240 . S
Cd2 O3 2.240 . S
Cd2 O10 2.223 . S
Cd2 O12 2.297 . S
Cd2 O13 2.439 . S
O3 Cd2 2.240 . S
O3 C8 1.279 1_554 S
O4 Cd1 2.297 . S
O4 C6 1.247 . S
O5 Cd1 2.439 . S
O5 C6 1.208 . S
C6 O4 1.247 . S
C6 O5 1.208 . S
C7 O12 1.247 . S
C7 O13 1.208 . S
C8 O0 1.315 . S
C8 O3 1.279 1_556 S
C9 O10 1.315 . S
C9 O11 1.279 . S
O10 Cd2 2.223 . S
O10 C9 1.315 . S
O11 Cd1 2.240 . S
O11 C9 1.279 . S
O12 Cd2 2.297 . S
O12 C7 1.247 . S
O13 Cd2 2.439 . S
O13 C7 1.208 . S
O14 Cd15 2.223 1_556 S
O14 C22 1.315 . S
Cd15 O14 2.223 1_554 S
Cd15 O18 2.297 . S
Cd15 O19 2.439 . S
Cd15 O25 2.240 . S
Cd16 O17 2.240 . S
Cd16 O24 2.223 . S
Cd16 O26 2.297 . S
Cd16 O27 2.439 . S
O17 Cd16 2.240 . S
O17 C22 1.279 1_554 S
O18 Cd15 2.297 . S
O18 C20 1.247 . S
O19 Cd15 2.439 . S
O19 C20 1.208 . S
C20 O18 1.247 . S
C20 O19 1.208 . S
C21 O26 1.247 . S
C21 O27 1.208 . S
C22 O14 1.315 . S
C22 O17 1.279 1_556 S
C23 O24 1.315 . S
C23 O25 1.279 . S
O24 Cd16 2.223 . S
O24 C23 1.315 . S
O25 Cd15 2.240 . S
O25 C23 1.279 . S
O26 Cd16 2.297 . S
O26 C21 1.247 . S
O27 Cd16 2.439 . S
O27 C21 1.208 . S
O28 Cd29 2.223 . S
O28 C36 1.315 . S
Cd29 O28 2.223 . S
Cd29 O32 2.297 . S
Cd29 O33 2.439 . S
Cd29 O39 2.240 . S
Cd30 O31 2.240 . S
Cd30 O38 2.223 . S
Cd30 O40 2.297 . S
Cd30 O41 2.439 . S
O31 Cd30 2.240 . S
O31 C36 1.279 . S
O32 Cd29 2.297 . S
O32 C34 1.247 . S
O33 Cd29 2.439 . S
O33 C34 1.208 . S
C34 O32 1.247 . S
C34 O33 1.208 . S
C35 O40 1.247 . S
C35 O41 1.208 . S
C36 O28 1.315 . S
C36 O31 1.279 . S
C37 O38 1.315 . S
C37 O39 1.279 . S
O38 Cd30 2.223 . S
O38 C37 1.315 . S
O39 Cd29 2.240 . S
O39 C37 1.279 . S
O40 Cd30 2.297 . S
O40 C35 1.247 . S
O41 Cd30 2.439 . S
O41 C35 1.208 . S
O42 Cd43 2.223 . S
O42 C50 1.315 . S
Cd43 O42 2.223 . S
Cd43 O46 2.297 . S
Cd43 O47 2.439 . S
Cd43 O53 2.240 . S
Cd44 O45 2.240 . S
Cd44 O52 2.223 . S
Cd44 O54 2.297 . S
Cd44 O55 2.439 . S
O45 Cd44 2.240 . S
O45 C50 1.279 . S
O46 Cd43 2.297 . S
O46 C48 1.247 . S
O47 Cd43 2.439 . S
O47 C48 1.208 . S
C48 O46 1.247 . S
C48 O47 1.208 . S
C49 O54 1.247 . S
C49 O55 1.208 . S
C50 O42 1.315 . S
C50 O45 1.279 . S
C51 O52 1.315 . S
C51 O53 1.279 . S
O52 Cd44 2.223 . S
O52 C51 1.315 . S
O53 Cd43 2.240 . S
O53 C51 1.279 . S
O54 Cd44 2.297 . S
O54 C49 1.247 . S
O55 Cd44 2.439 . S
O55 C49 1.208 . S
O56 Cd57 2.223 1_556 S
O56 C64 1.315 . S
Cd57 O56 2.223 1_554 S
Cd57 O60 2.297 . S
Cd57 O61 2.439 . S
Cd57 O67 2.240 . S
Cd58 O59 2.240 . S
Cd58 O66 2.223 . S
Cd58 O68 2.297 . S
Cd58 O69 2.439 . S
O59 Cd58 2.240 . S
O59 C64 1.279 1_554 S
O60 Cd57 2.297 . S
O60 C62 1.247 . S
O61 Cd57 2.439 . S
O61 C62 1.208 . S
C62 O60 1.247 . S
C62 O61 1.208 . S
C63 O68 1.247 . S
C63 O69 1.208 . S
C64 O56 1.315 . S
C64 O59 1.279 1_556 S
C65 O66 1.315 . S
C65 O67 1.279 . S
O66 Cd58 2.223 . S
O66 C65 1.315 . S
O67 Cd57 2.240 . S
O67 C65 1.279 . S
O68 Cd58 2.297 . S
O68 C63 1.247 . S
O69 Cd58 2.439 . S
O69 C63 1.208 . S
O70 Cd71 2.223 1_556 S
O70 C78 1.315 . S
Cd71 O70 2.223 1_554 S
Cd71 O74 2.297 . S
Cd71 O75 2.439 . S
Cd71 O81 2.240 . S
Cd72 O73 2.240 . S
Cd72 O80 2.223 . S
Cd72 O82 2.297 . S
Cd72 O83 2.439 . S
O73 Cd72 2.240 . S
O73 C78 1.279 1_554 S
O74 Cd71 2.297 . S
O74 C76 1.247 . S
O75 Cd71 2.439 . S
O75 C76 1.208 . S
C76 O74 1.247 . S
C76 O75 1.208 . S
C77 O82 1.247 . S
C77 O83 1.208 . S
C78 O70 1.315 . S
C78 O73 1.279 1_556 S
C79 O80 1.315 . S
C79 O81 1.279 . S
O80 Cd72 2.223 . S
O80 C79 1.315 . S
O81 Cd71 2.240 . S
O81 C79 1.279 . S
O82 Cd72 2.297 . S
O82 C77 1.247 . S
O83 Cd72 2.439 . S
O83 C77 1.208 . S
O84 Cd85 2.223 . S
O84 C92 1.315 . S
Cd85 O84 2.223 . S
Cd85 O88 2.297 . S
Cd85 O89 2.439 . S
Cd85 O95 2.240 . S
Cd86 O87 2.240 . S
Cd86 O94 2.223 . S
Cd86 O96 2.297 . S
Cd86 O97 2.439 . S
O87 Cd86 2.240 . S
O87 C92 1.279 . S
O88 Cd85 2.297 . S
O88 C90 1.247 . S
O89 Cd85 2.439 . S
O89 C90 1.208 . S
C90 O88 1.247 . S
C90 O89 1.208 . S
C91 O96 1.247 . S
C91 O97 1.208 . S
C92 O84 1.315 . S
C92 O87 1.279 . S
C93 O94 1.315 . S
C93 O95 1.279 . S
O94 Cd86 2.223 . S
O94 C93 1.315 . S
O95 Cd85 2.240 . S
O95 C93 1.279 . S
O96 Cd86 2.297 . S
O96 C91 1.247 . S
O97 Cd86 2.439 . S
O97 C91 1.208 . S
O98 Cd99 2.223 . S
O98 C106 1.315 . S
Cd99 O98 2.223 . S
Cd99 O102 2.297 . S
Cd99 O103 2.439 . S
Cd99 O109 2.240 . S
Cd100 O101 2.240 . S
Cd100 O108 2.223 . S
Cd100 O110 2.297 . S
Cd100 O111 2.439 . S
O101 Cd100 2.240 . S
O101 C106 1.279 . S
O102 Cd99 2.297 . S
O102 C104 1.247 . S
O103 Cd99 2.439 . S
O103 C104 1.208 . S
C104 O102 1.247 . S
C104 O103 1.208 . S
C105 O110 1.247 . S
C105 O111 1.208 . S
C106 O98 1.315 . S
C106 O101 1.279 . S
C107 O108 1.315 . S
C107 O109 1.279 . S
O108 Cd100 2.223 . S
O108 C107 1.315 . S
O109 Cd99 2.240 . S
O109 C107 1.279 . S
O110 Cd100 2.297 . S
O110 C105 1.247 . S
O111 Cd100 2.439 . S
O111 C105 1.208 . S
C112 C113 1.349 . S
C112 C114 1.327 . S
C112 H137 0.950 1_554 S
C113 C112 1.349 . S
C113 C129 1.349 . S
C114 C112 1.327 . S
C114 C133 1.429 . S
C114 H138 0.950 1_554 S
C115 C132 1.574 . S
C115 C134 1.368 . S
C115 H139 0.949 . S
H116 C120 0.949 1_556 S
C117 C118 1.349 . S
C117 C119 1.327 . S
C117 H140 0.950 . S
C118 C117 1.349 . S
C118 C130 1.349 . S
C119 C117 1.327 . S
C119 C135 1.429 . S
C119 H141 0.950 . S
C120 H116 0.949 1_554 S
C120 C128 1.574 . S
C120 C136 1.368 . S
H121 C129 0.950 . S
H122 C127 0.950 . S
H123 C128 0.949 1_556 S
H124 C130 0.950 1_556 S
H125 C131 0.950 1_556 S
H126 C132 0.949 . S
C127 H122 0.950 . S
C127 C129 1.327 . S
C127 C133 1.429 . S
C128 C120 1.574 . S
C128 H123 0.949 1_554 S
C128 C134 1.368 . S
C129 C113 1.349 . S
C129 H121 0.950 . S
C129 C127 1.327 . S
C130 C118 1.349 . S
C130 H124 0.950 1_554 S
C130 C131 1.327 . S
C131 H125 0.950 1_554 S
C131 C130 1.327 . S
C131 C135 1.429 . S
C132 C115 1.574 . S
C132 H126 0.949 . S
C132 C136 1.368 . S
C133 C114 1.429 . S
C133 C127 1.429 . S
C133 C134 1.523 . S
C134 C115 1.368 . S
C134 C128 1.368 . S
C134 C133 1.523 . S
C135 C119 1.429 . S
C135 C131 1.429 . S
C135 C136 1.523 . S
C136 C120 1.368 . S
C136 C132 1.368 . S
C136 C135 1.523 . S
H137 C112 0.950 1_556 S
H138 C114 0.950 1_556 S
H139 C115 0.949 . S
H140 C117 0.950 . S
H141 C119 0.950 . S
C142 C143 1.349 . S
C142 C144 1.327 . S
C142 H167 0.950 . S
C143 C142 1.349 . S
C143 C159 1.349 . S
C144 C142 1.327 . S
C144 C163 1.429 . S
C144 H168 0.950 . S
C145 C162 1.574 . S
C145 C164 1.368 . S
C145 H169 0.949 1_554 S
H146 C150 0.949 . S
C147 C148 1.349 . S
C147 C149 1.327 . S
C147 H170 0.950 1_554 S
C148 C147 1.349 . S
C148 C160 1.349 . S
C149 C147 1.327 . S
C149 C165 1.429 . S
C149 H171 0.950 1_554 S
C150 H146 0.949 . S
C150 C158 1.574 . S
C150 C166 1.368 . S
H151 C159 0.950 1_556 S
H152 C157 0.950 1_556 S
H153 C158 0.949 . S
H154 C160 0.950 . S
H155 C161 0.950 . S
H156 C162 0.949 1_556 S
C157 H152 0.950 1_554 S
C157 C159 1.327 . S
C157 C163 1.429 . S
C158 C150 1.574 . S
C158 H153 0.949 . S
C158 C164 1.368 . S
C159 C143 1.349 . S
C159 H151 0.950 1_554 S
C159 C157 1.327 . S
C160 C148 1.349 . S
C160 H154 0.950 . S
C160 C161 1.327 . S
C161 H155 0.950 . S
C161 C160 1.327 . S
C161 C165 1.429 . S
C162 C145 1.574 . S
C162 H156 0.949 1_554 S
C162 C166 1.368 . S
C163 C144 1.429 . S
C163 C157 1.429 . S
C163 C164 1.523 . S
C164 C145 1.368 . S
C164 C158 1.368 . S
C164 C163 1.523 . S
C165 C149 1.429 . S
C165 C161 1.429 . S
C165 C166 1.523 . S
C166 C150 1.368 . S
C166 C162 1.368 . S
C166 C165 1.523 . S
H167 C142 0.950 . S
H168 C144 0.950 . S
H169 C145 0.949 1_556 S
H170 C147 0.950 1_556 S
H171 C149 0.950 1_556 S
C172 C173 1.349 . S
C172 C174 1.327 . S
C172 H197 0.950 . S
C173 C172 1.349 . S
C173 C189 1.349 . S
C174 C172 1.327 . S
C174 C193 1.429 . S
C174 H198 0.950 . S
C175 C192 1.574 . S
C175 C194 1.368 . S
C175 H199 0.949 . S
H176 C180 0.949 . S
C177 C178 1.349 . S
C177 C179 1.327 . S
C177 H200 0.950 . S
C178 C177 1.349 . S
C178 C190 1.349 . S
C179 C177 1.327 . S
C179 C195 1.429 . S
C179 H201 0.950 . S
C180 H176 0.949 . S
C180 C188 1.574 . S
C180 C196 1.368 . S
H181 C189 0.950 . S
H182 C187 0.950 . S
H183 C188 0.949 . S
H184 C190 0.950 . S
H185 C191 0.950 . S
H186 C192 0.949 . S
C187 H182 0.950 . S
C187 C189 1.327 . S
C187 C193 1.429 . S
C188 C180 1.574 . S
C188 H183 0.949 . S
C188 C194 1.368 . S
C189 C173 1.349 . S
C189 H181 0.950 . S
C189 C187 1.327 . S
C190 C178 1.349 . S
C190 H184 0.950 . S
C190 C191 1.327 . S
C191 H185 0.950 . S
C191 C190 1.327 . S
C191 C195 1.429 . S
C192 C175 1.574 . S
C192 H186 0.949 . S
C192 C196 1.368 . S
C193 C174 1.429 . S
C193 C187 1.429 . S
C193 C194 1.523 . S
C194 C175 1.368 . S
C194 C188 1.368 . S
C194 C193 1.523 . S
C195 C179 1.429 . S
C195 C191 1.429 . S
C195 C196 1.523 . S
C196 C180 1.368 . S
C196 C192 1.368 . S
C196 C195 1.523 . S
H197 C172 0.950 . S
H198 C174 0.950 . S
H199 C175 0.949 . S
H200 C177 0.950 . S
H201 C179 0.950 . S
C202 C203 1.349 . S
C202 C204 1.327 . S
C202 H227 0.950 . S
C203 C202 1.349 . S
C203 C219 1.349 . S
C204 C202 1.327 . S
C204 C223 1.429 . S
C204 H228 0.950 . S
C205 C222 1.574 . S
C205 C224 1.368 . S
C205 H229 0.949 . S
H206 C210 0.949 . S
C207 C208 1.349 . S
C207 C209 1.327 . S
C207 H230 0.950 . S
C208 C207 1.349 . S
C208 C220 1.349 . S
C209 C207 1.327 . S
C209 C225 1.429 . S
C209 H231 0.950 . S
C210 H206 0.949 . S
C210 C218 1.574 . S
C210 C226 1.368 . S
H211 C219 0.950 . S
H212 C217 0.950 . S
H213 C218 0.949 . S
H214 C220 0.950 . S
H215 C221 0.950 . S
H216 C222 0.949 . S
C217 H212 0.950 . S
C217 C219 1.327 . S
C217 C223 1.429 . S
C218 C210 1.574 . S
C218 H213 0.949 . S
C218 C224 1.368 . S
C219 C203 1.349 . S
C219 H211 0.950 . S
C219 C217 1.327 . S
C220 C208 1.349 . S
C220 H214 0.950 . S
C220 C221 1.327 . S
C221 H215 0.950 . S
C221 C220 1.327 . S
C221 C225 1.429 . S
C222 C205 1.574 . S
C222 H216 0.949 . S
C222 C226 1.368 . S
C223 C204 1.429 . S
C223 C217 1.429 . S
C223 C224 1.523 . S
C224 C205 1.368 . S
C224 C218 1.368 . S
C224 C223 1.523 . S
C225 C209 1.429 . S
C225 C221 1.429 . S
C225 C226 1.523 . S
C226 C210 1.368 . S
C226 C222 1.368 . S
C226 C225 1.523 . S
H227 C202 0.950 . S
H228 C204 0.950 . S
H229 C205 0.949 . S
H230 C207 0.950 . S
H231 C209 0.950 . S
C232 C233 1.349 . S
C232 C234 1.327 . S
C232 H257 0.950 . S
C233 C232 1.349 . S
C233 C249 1.349 . S
C234 C232 1.327 . S
C234 C253 1.429 . S
C234 H258 0.950 . S
C235 C252 1.574 . S
C235 C254 1.368 . S
C235 H259 0.949 . S
H236 C240 0.949 . S
C237 C238 1.349 . S
C237 C239 1.327 . S
C237 H260 0.950 . S
C238 C237 1.349 . S
C238 C250 1.349 . S
C239 C237 1.327 . S
C239 C255 1.429 . S
C239 H261 0.950 . S
C240 H236 0.949 . S
C240 C248 1.574 . S
C240 C256 1.368 . S
H241 C249 0.950 . S
H242 C247 0.950 . S
H243 C248 0.949 . S
H244 C250 0.950 . S
H245 C251 0.950 . S
H246 C252 0.949 . S
C247 H242 0.950 . S
C247 C249 1.327 . S
C247 C253 1.429 . S
C248 C240 1.574 . S
C248 H243 0.949 . S
C248 C254 1.368 . S
C249 C233 1.349 . S
C249 H241 0.950 . S
C249 C247 1.327 . S
C250 C238 1.349 . S
C250 H244 0.950 . S
C250 C251 1.327 . S
C251 H245 0.950 . S
C251 C250 1.327 . S
C251 C255 1.429 . S
C252 C235 1.574 . S
C252 H246 0.949 . S
C252 C256 1.368 . S
C253 C234 1.429 . S
C253 C247 1.429 . S
C253 C254 1.523 . S
C254 C235 1.368 . S
C254 C248 1.368 . S
C254 C253 1.523 . S
C255 C239 1.429 . S
C255 C251 1.429 . S
C255 C256 1.523 . S
C256 C240 1.368 . S
C256 C252 1.368 . S
C256 C255 1.523 . S
H257 C232 0.950 . S
H258 C234 0.950 . S
H259 C235 0.949 . S
H260 C237 0.950 . S
H261 C239 0.950 . S
C262 C263 1.349 . S
C262 C264 1.327 . S
C262 H287 0.950 . S
C263 C262 1.349 . S
C263 C279 1.349 . S
C264 C262 1.327 . S
C264 C283 1.429 . S
C264 H288 0.950 . S
C265 C282 1.574 . S
C265 C284 1.368 . S
C265 H289 0.949 . S
H266 C270 0.949 . S
C267 C268 1.349 . S
C267 C269 1.327 . S
C267 H290 0.950 . S
C268 C267 1.349 . S
C268 C280 1.349 . S
C269 C267 1.327 . S
C269 C285 1.429 . S
C269 H291 0.950 . S
C270 H266 0.949 . S
C270 C278 1.574 . S
C270 C286 1.368 . S
H271 C279 0.950 . S
H272 C277 0.950 . S
H273 C278 0.949 . S
H274 C280 0.950 . S
H275 C281 0.950 . S
H276 C282 0.949 . S
C277 H272 0.950 . S
C277 C279 1.327 . S
C277 C283 1.429 . S
C278 C270 1.574 . S
C278 H273 0.949 . S
C278 C284 1.368 . S
C279 C263 1.349 . S
C279 H271 0.950 . S
C279 C277 1.327 . S
C280 C268 1.349 . S
C280 H274 0.950 . S
C280 C281 1.327 . S
C281 H275 0.950 . S
C281 C280 1.327 . S
C281 C285 1.429 . S
C282 C265 1.574 . S
C282 H276 0.949 . S
C282 C286 1.368 . S
C283 C264 1.429 . S
C283 C277 1.429 . S
C283 C284 1.523 . S
C284 C265 1.368 . S
C284 C278 1.368 . S
C284 C283 1.523 . S
C285 C269 1.429 . S
C285 C281 1.429 . S
C285 C286 1.523 . S
C286 C270 1.368 . S
C286 C282 1.368 . S
C286 C285 1.523 . S
H287 C262 0.950 . S
H288 C264 0.950 . S
H289 C265 0.949 . S
H290 C267 0.950 . S
H291 C269 0.950 . S
C292 C293 1.349 . S
C292 C294 1.327 . S
C292 H317 0.950 . S
C293 C292 1.349 . S
C293 C309 1.349 . S
C294 C292 1.327 . S
C294 C313 1.429 . S
C294 H318 0.950 . S
C295 C312 1.574 . S
C295 C314 1.368 . S
C295 H319 0.949 . S
H296 C300 0.949 . S
C297 C298 1.349 . S
C297 C299 1.327 . S
C297 H320 0.950 . S
C298 C297 1.349 . S
C298 C310 1.349 . S
C299 C297 1.327 . S
C299 C315 1.429 . S
C299 H321 0.950 . S
C300 H296 0.949 . S
C300 C308 1.574 . S
C300 C316 1.368 . S
H301 C309 0.950 . S
H302 C307 0.950 . S
H303 C308 0.949 . S
H304 C310 0.950 . S
H305 C311 0.950 . S
H306 C312 0.949 . S
C307 H302 0.950 . S
C307 C309 1.327 . S
C307 C313 1.429 . S
C308 C300 1.574 . S
C308 H303 0.949 . S
C308 C314 1.368 . S
C309 C293 1.349 . S
C309 H301 0.950 . S
C309 C307 1.327 . S
C310 C298 1.349 . S
C310 H304 0.950 . S
C310 C311 1.327 . S
C311 H305 0.950 . S
C311 C310 1.327 . S
C311 C315 1.429 . S
C312 C295 1.574 . S
C312 H306 0.949 . S
C312 C316 1.368 . S
C313 C294 1.429 . S
C313 C307 1.429 . S
C313 C314 1.523 . S
C314 C295 1.368 . S
C314 C308 1.368 . S
C314 C313 1.523 . S
C315 C299 1.429 . S
C315 C311 1.429 . S
C315 C316 1.523 . S
C316 C300 1.368 . S
C316 C312 1.368 . S
C316 C315 1.523 . S
H317 C292 0.950 . S
H318 C294 0.950 . S
H319 C295 0.949 . S
H320 C297 0.950 . S
H321 C299 0.950 . S
C322 C323 1.349 . S
C322 C324 1.327 . S
C322 H347 0.950 . S
C323 C322 1.349 . S
C323 C339 1.349 . S
C324 C322 1.327 . S
C324 C343 1.429 . S
C324 H348 0.950 . S
C325 C342 1.574 . S
C325 C344 1.368 . S
C325 H349 0.949 . S
H326 C330 0.949 . S
C327 C328 1.349 . S
C327 C329 1.327 . S
C327 H350 0.950 . S
C328 C327 1.349 . S
C328 C340 1.349 . S
C329 C327 1.327 . S
C329 C345 1.429 . S
C329 H351 0.950 . S
C330 H326 0.949 . S
C330 C338 1.574 . S
C330 C346 1.368 . S
H331 C339 0.950 . S
H332 C337 0.950 . S
H333 C338 0.949 . S
H334 C340 0.950 . S
H335 C341 0.950 . S
H336 C342 0.949 . S
C337 H332 0.950 . S
C337 C339 1.327 . S
C337 C343 1.429 . S
C338 C330 1.574 . S
C338 H333 0.949 . S
C338 C344 1.368 . S
C339 C323 1.349 . S
C339 H331 0.950 . S
C339 C337 1.327 . S
C340 C328 1.349 . S
C340 H334 0.950 . S
C340 C341 1.327 . S
C341 H335 0.950 . S
C341 C340 1.327 . S
C341 C345 1.429 . S
C342 C325 1.574 . S
C342 H336 0.949 . S
C342 C346 1.368 . S
C343 C324 1.429 . S
C343 C337 1.429 . S
C343 C344 1.523 . S
C344 C325 1.368 . S
C344 C338 1.368 . S
C344 C343 1.523 . S
C345 C329 1.429 . S
C345 C341 1.429 . S
C345 C346 1.523 . S
C346 C330 1.368 . S
C346 C342 1.368 . S
C346 C345 1.523 . S
H347 C322 0.950 . S
H348 C324 0.950 . S
H349 C325 0.949 . S
H350 C327 0.950 . S
H351 C329 0.950 . S
C352 C353 1.349 . S
C352 C354 1.327 . S
C352 H377 0.954 . S
C353 C352 1.349 . S
C353 C369 1.349 . S
C354 C352 1.327 . S
C354 C373 1.429 . S
C354 H378 0.950 1_565 S
C355 C372 1.574 . S
C355 C374 1.368 . S
C355 H379 0.949 . S
H356 C360 0.949 . S
C357 C358 1.349 . S
C357 C359 1.327 . S
C357 H380 0.954 . S
C358 C357 1.349 . S
C358 C370 1.349 . S
C359 C357 1.327 . S
C359 C375 1.429 . S
C359 H381 0.950 1_545 S
C360 H356 0.949 . S
C360 C368 1.574 . S
C360 C376 1.368 . S
H361 C369 0.950 . S
H362 C367 0.950 . S
H363 C368 0.949 . S
H364 C370 0.950 . S
H365 C371 0.950 . S
H366 C372 0.949 . S
C367 H362 0.950 . S
C367 C369 1.327 . S
C367 C373 1.429 . S
C368 C360 1.574 . S
C368 H363 0.949 . S
C368 C374 1.368 1_545 S
C369 C353 1.349 . S
C369 H361 0.950 . S
C369 C367 1.327 . S
C370 C358 1.349 . S
C370 H364 0.950 . S
C370 C371 1.327 . S
C371 H365 0.950 . S
C371 C370 1.327 . S
C371 C375 1.429 . S
C372 C355 1.574 . S
C372 H366 0.949 . S
C372 C376 1.368 1_565 S
C373 C354 1.429 . S
C373 C367 1.429 . S
C373 C374 1.523 . S
C374 C355 1.368 . S
C374 C368 1.368 1_565 S
C374 C373 1.523 . S
C375 C359 1.429 . S
C375 C371 1.429 . S
C375 C376 1.523 . S
C376 C360 1.368 . S
C376 C372 1.368 1_545 S
C376 C375 1.523 . S
H377 C352 0.954 . S
H378 C354 0.950 1_545 S
H379 C355 0.949 . S
H380 C357 0.954 . S
H381 C359 0.950 1_565 S
C382 C383 1.349 . S
C382 C384 1.327 . S
C382 H407 0.950 . S
C383 C382 1.349 . S
C383 C399 1.349 . S
C384 C382 1.327 . S
C384 C403 1.429 . S
C384 H408 0.950 . S
C385 C402 1.574 . S
C385 C404 1.368 1_545 S
C385 H409 0.949 . S
H386 C390 0.949 . S
C387 C388 1.349 . S
C387 C389 1.327 . S
C387 H410 0.950 . S
C388 C387 1.349 . S
C388 C400 1.349 . S
C389 C387 1.327 . S
C389 C405 1.429 . S
C389 H411 0.950 . S
C390 H386 0.949 . S
C390 C398 1.574 . S
C390 C406 1.368 1_565 S
H391 C399 0.950 . S
H392 C397 0.950 . S
H393 C398 0.949 . S
H394 C400 0.950 . S
H395 C401 0.950 . S
H396 C402 0.949 . S
C397 H392 0.950 . S
C397 C399 1.327 . S
C397 C403 1.429 . S
C398 C390 1.574 . S
C398 H393 0.949 . S
C398 C404 1.368 . S
C399 C383 1.349 . S
C399 H391 0.950 . S
C399 C397 1.327 . S
C400 C388 1.349 . S
C400 H394 0.950 . S
C400 C401 1.327 . S
C401 H395 0.950 . S
C401 C400 1.327 . S
C401 C405 1.429 . S
C402 C385 1.574 . S
C402 H396 0.949 . S
C402 C406 1.368 . S
C403 C384 1.429 . S
C403 C397 1.429 . S
C403 C404 1.523 . S
C404 C385 1.368 1_565 S
C404 C398 1.368 . S
C404 C403 1.523 . S
C405 C389 1.429 . S
C405 C401 1.429 . S
C405 C406 1.523 . S
C406 C390 1.368 1_545 S
C406 C402 1.368 . S
C406 C405 1.523 . S
H407 C382 0.950 . S
H408 C384 0.950 . S
H409 C385 0.949 . S
H410 C387 0.950 . S
H411 C389 0.950 . S
C412 C413 1.349 . S
C412 C414 1.327 . S
C412 H437 0.950 . S
C413 C412 1.349 . S
C413 C429 1.349 . S
C414 C412 1.327 . S
C414 C433 1.429 . S
C414 H438 0.950 . S
C415 C432 1.574 . S
C415 C434 1.368 . S
C415 H439 0.949 . S
H416 C420 0.949 . S
C417 C418 1.349 . S
C417 C419 1.327 . S
C417 H440 0.950 . S
C418 C417 1.349 . S
C418 C430 1.349 . S
C419 C417 1.327 . S
C419 C435 1.429 . S
C419 H441 0.950 . S
C420 H416 0.949 . S
C420 C428 1.574 . S
C420 C436 1.368 . S
H421 C429 0.950 . S
H422 C427 0.950 . S
H423 C428 0.949 . S
H424 C430 0.950 . S
H425 C431 0.950 . S
H426 C432 0.949 . S
C427 H422 0.950 . S
C427 C429 1.327 . S
C427 C433 1.429 . S
C428 C420 1.574 . S
C428 H423 0.949 . S
C428 C434 1.368 1_545 S
C429 C413 1.349 . S
C429 H421 0.950 . S
C429 C427 1.327 . S
C430 C418 1.349 . S
C430 H424 0.950 . S
C430 C431 1.327 . S
C431 H425 0.950 . S
C431 C430 1.327 . S
C431 C435 1.429 . S
C432 C415 1.574 . S
C432 H426 0.949 . S
C432 C436 1.368 1_565 S
C433 C414 1.429 . S
C433 C427 1.429 . S
C433 C434 1.523 . S
C434 C415 1.368 . S
C434 C428 1.368 1_565 S
C434 C433 1.523 . S
C435 C419 1.429 . S
C435 C431 1.429 . S
C435 C436 1.523 . S
C436 C420 1.368 . S
C436 C432 1.368 1_545 S
C436 C435 1.523 . S
H437 C412 0.950 . S
H438 C414 0.950 . S
H439 C415 0.949 . S
H440 C417 0.950 . S
H441 C419 0.950 . S
C442 C443 1.349 . S
C442 C444 1.327 . S
C442 H467 0.950 . S
C443 C442 1.349 . S
C443 C459 1.349 . S
C444 C442 1.327 . S
C444 C463 1.429 . S
C444 H468 0.950 . S
C445 C462 1.574 . S
C445 C464 1.368 1_545 S
C445 H469 0.949 . S
H446 C450 0.949 . S
C447 C448 1.349 . S
C447 C449 1.327 . S
C447 H470 0.950 . S
C448 C447 1.349 . S
C448 C460 1.349 . S
C449 C447 1.327 . S
C449 C465 1.429 . S
C449 H471 0.950 . S
C450 H446 0.949 . S
C450 C458 1.574 . S
C450 C466 1.368 1_565 S
H451 C459 0.950 . S
H452 C457 0.950 . S
H453 C458 0.949 . S
H454 C460 0.950 . S
H455 C461 0.950 . S
H456 C462 0.949 . S
C457 H452 0.950 . S
C457 C459 1.327 . S
C457 C463 1.429 . S
C458 C450 1.574 . S
C458 H453 0.949 . S
C458 C464 1.368 . S
C459 C443 1.349 . S
C459 H451 0.950 . S
C459 C457 1.327 . S
C460 C448 1.349 . S
C460 H454 0.950 . S
C460 C461 1.327 . S
C461 H455 0.950 . S
C461 C460 1.327 . S
C461 C465 1.429 . S
C462 C445 1.574 . S
C462 H456 0.949 . S
C462 C466 1.368 . S
C463 C444 1.429 . S
C463 C457 1.429 . S
C463 C464 1.523 . S
C464 C445 1.368 1_565 S
C464 C458 1.368 . S
C464 C463 1.523 . S
C465 C449 1.429 . S
C465 C461 1.429 . S
C465 C466 1.523 . S
C466 C450 1.368 1_545 S
C466 C462 1.368 . S
C466 C465 1.523 . S
H467 C442 0.950 . S
H468 C444 0.950 . S
H469 C445 0.949 . S
H470 C447 0.950 . S
H471 C449 0.950 . S
C472 C473 1.349 . S
C472 C474 1.327 . S
C472 H497 0.950 1_554 S
C473 C472 1.349 . S
C473 C489 1.349 . S
C474 C472 1.327 . S
C474 C493 1.429 . S
C474 H498 0.950 1_554 S
C475 C492 1.574 . S
C475 C494 1.368 . S
C475 H499 0.949 . S
H476 C480 0.949 1_556 S
C477 C478 1.349 . S
C477 C479 1.327 . S
C477 H500 0.950 . S
C478 C477 1.349 . S
C478 C490 1.349 . S
C479 C477 1.327 . S
C479 C495 1.429 . S
C479 H501 0.950 . S
C480 H476 0.949 1_554 S
C480 C488 1.574 . S
C480 C496 1.368 . S
H481 C489 0.950 . S
H482 C487 0.950 . S
H483 C488 0.949 1_556 S
H484 C490 0.950 1_556 S
H485 C491 0.950 1_556 S
H486 C492 0.949 . S
C487 H482 0.950 . S
C487 C489 1.327 . S
C487 C493 1.429 . S
C488 C480 1.574 . S
C488 H483 0.949 1_554 S
C488 C494 1.368 1_545 S
C489 C473 1.349 . S
C489 H481 0.950 . S
C489 C487 1.327 . S
C490 C478 1.349 . S
C490 H484 0.950 1_554 S
C490 C491 1.327 . S
C491 H485 0.950 1_554 S
C491 C490 1.327 . S
C491 C495 1.429 . S
C492 C475 1.574 . S
C492 H486 0.949 . S
C492 C496 1.368 1_565 S
C493 C474 1.429 . S
C493 C487 1.429 . S
C493 C494 1.523 . S
C494 C475 1.368 . S
C494 C488 1.368 1_565 S
C494 C493 1.523 . S
C495 C479 1.429 . S
C495 C491 1.429 . S
C495 C496 1.523 . S
C496 C480 1.368 . S
C496 C492 1.368 1_545 S
C496 C495 1.523 . S
H497 C472 0.950 1_556 S
H498 C474 0.950 1_556 S
H499 C475 0.949 . S
H500 C477 0.950 . S
H501 C479 0.950 . S
C502 C503 1.349 . S
C502 C504 1.327 . S
C502 H527 0.950 . S
C503 C502 1.349 . S
C503 C519 1.349 . S
C504 C502 1.327 . S
C504 C523 1.429 . S
C504 H528 0.950 . S
C505 C522 1.574 . S
C505 C524 1.368 . S
C505 H529 0.949 . S
H506 C510 0.949 . S
C507 C508 1.349 . S
C507 C509 1.327 . S
C507 H530 0.950 . S
C508 C507 1.349 . S
C508 C520 1.349 . S
C509 C507 1.327 . S
C509 C525 1.429 . S
C509 H531 0.950 . S
C510 H506 0.949 . S
C510 C518 1.574 . S
C510 C526 1.368 . S
H511 C519 0.950 . S
H512 C517 0.950 . S
H513 C518 0.949 . S
H514 C520 0.950 . S
H515 C521 0.950 . S
H516 C522 0.949 . S
C517 H512 0.950 . S
C517 C519 1.327 . S
C517 C523 1.429 . S
C518 C510 1.574 . S
C518 H513 0.949 . S
C518 C524 1.368 1_545 S
C519 C503 1.349 . S
C519 H511 0.950 . S
C519 C517 1.327 . S
C520 C508 1.349 . S
C520 H514 0.950 . S
C520 C521 1.327 . S
C521 H515 0.950 . S
C521 C520 1.327 . S
C521 C525 1.429 . S
C522 C505 1.574 . S
C522 H516 0.949 . S
C522 C526 1.368 1_565 S
C523 C504 1.429 . S
C523 C517 1.429 . S
C523 C524 1.523 . S
C524 C505 1.368 . S
C524 C518 1.368 1_565 S
C524 C523 1.523 . S
C525 C509 1.429 . S
C525 C521 1.429 . S
C525 C526 1.523 . S
C526 C510 1.368 . S
C526 C522 1.368 1_545 S
C526 C525 1.523 . S
H527 C502 0.950 . S
H528 C504 0.950 . S
H529 C505 0.949 . S
H530 C507 0.950 . S
H531 C509 0.950 . S
C532 C533 1.349 . S
C532 C534 1.327 . S
C532 H557 0.950 1_554 S
C533 C532 1.349 . S
C533 C549 1.349 . S
C534 C532 1.327 . S
C534 C553 1.429 . S
C534 H558 0.950 1_554 S
C535 C552 1.574 1_455 S
C535 C554 1.368 . S
C535 H559 0.949 . S
H536 C540 0.949 1_556 S
C537 C538 1.349 . S
C537 C539 1.327 . S
C537 H560 0.950 . S
C538 C537 1.349 . S
C538 C550 1.349 . S
C539 C537 1.327 . S
C539 C555 1.429 . S
C539 H561 0.950 . S
C540 H536 0.949 1_554 S
C540 C548 1.574 1_655 S
C540 C556 1.368 . S
H541 C549 0.950 . S
H542 C547 0.950 . S
H543 C548 0.949 1_556 S
H544 C550 0.950 1_556 S
H545 C551 0.950 1_556 S
H546 C552 0.949 . S
C547 H542 0.950 . S
C547 C549 1.327 . S
C547 C553 1.429 . S
C548 C540 1.574 1_455 S
C548 H543 0.949 1_554 S
C548 C554 1.368 . S
C549 C533 1.349 . S
C549 H541 0.950 . S
C549 C547 1.327 . S
C550 C538 1.349 . S
C550 H544 0.950 1_554 S
C550 C551 1.327 . S
C551 H545 0.950 1_554 S
C551 C550 1.327 . S
C551 C555 1.429 . S
C552 C535 1.574 1_655 S
C552 H546 0.949 . S
C552 C556 1.368 . S
C553 C534 1.429 . S
C553 C547 1.429 . S
C553 C554 1.523 . S
C554 C535 1.368 . S
C554 C548 1.368 . S
C554 C553 1.523 . S
C555 C539 1.429 . S
C555 C551 1.429 . S
C555 C556 1.523 . S
C556 C540 1.368 . S
C556 C552 1.368 . S
C556 C555 1.523 . S
H557 C532 0.950 1_556 S
H558 C534 0.950 1_556 S
H559 C535 0.949 . S
H560 C537 0.950 . S
H561 C539 0.950 . S
C562 C563 1.349 . S
C562 C564 1.327 . S
C562 H587 0.950 . S
C563 C562 1.349 . S
C563 C579 1.349 . S
C564 C562 1.327 . S
C564 C583 1.429 . S
C564 H588 0.950 . S
C565 C582 1.574 1_455 S
C565 C584 1.368 . S
C565 H589 0.949 . S
H566 C570 0.949 . S
C567 C568 1.349 . S
C567 C569 1.327 . S
C567 H590 0.950 . S
C568 C567 1.349 . S
C568 C580 1.349 . S
C569 C567 1.327 . S
C569 C585 1.429 . S
C569 H591 0.950 . S
C570 H566 0.949 . S
C570 C578 1.574 1_655 S
C570 C586 1.368 . S
H571 C579 0.950 . S
H572 C577 0.950 . S
H573 C578 0.949 . S
H574 C580 0.950 . S
H575 C581 0.950 . S
H576 C582 0.949 . S
C577 H572 0.950 . S
C577 C579 1.327 . S
C577 C583 1.429 . S
C578 C570 1.574 1_455 S
C578 H573 0.949 . S
C578 C584 1.368 . S
C579 C563 1.349 . S
C579 H571 0.950 . S
C579 C577 1.327 . S
C580 C568 1.349 . S
C580 H574 0.950 . S
C580 C581 1.327 . S
C581 H575 0.950 . S
C581 C580 1.327 . S
C581 C585 1.429 . S
C582 C565 1.574 1_655 S
C582 H576 0.949 . S
C582 C586 1.368 . S
C583 C564 1.429 . S
C583 C577 1.429 . S
C583 C584 1.523 . S
C584 C565 1.368 . S
C584 C578 1.368 . S
C584 C583 1.523 . S
C585 C569 1.429 . S
C585 C581 1.429 . S
C585 C586 1.523 . S
C586 C570 1.368 . S
C586 C582 1.368 . S
C586 C585 1.523 . S
H587 C562 0.950 . S
H588 C564 0.950 . S
H589 C565 0.949 . S
H590 C567 0.950 . S
H591 C569 0.950 . S
C113 C79 1.485 . S
C118 C9 1.485 . S
C143 C65 1.485 . S
C148 C23 1.485 . S
C173 C107 1.486 . S
C178 C37 1.486 . S
C203 C93 1.486 . S
C208 C51 1.486 . S
C233 C7 1.520 . S
C238 C35 1.520 . S
C263 C21 1.520 . S
C268 C49 1.520 . S
C293 C22 1.539 . S
C298 C50 1.539 . S
C323 C8 1.539 . S
C328 C36 1.539 . S
C353 C63 1.520 . S
C358 C91 1.520 . S
C383 C105 1.520 . S
C388 C77 1.520 . S
C413 C106 1.539 . S
C418 C78 1.539 . S
C443 C64 1.539 . S
C448 C92 1.539 . S
C473 C20 1.514 . S
C478 C6 1.514 . S
C503 C34 1.514 . S
C508 C48 1.514 . S
C533 C62 1.514 . S
C538 C76 1.514 . S
C563 C90 1.514 . S
C568 C104 1.514 . S
