# Generated by pormake.
# Topology ukd, (4)-cn, num edge types: 1
# Building blocks:
#     Node 0, Type 0, BuildingBlock: AZAVOO_clean_sbu_0, # of connection points: 4
#     Node 1, Type 0, BuildingBlock: AZAVOO_clean_sbu_0, # of connection points: 4
#     Node 2, Type 0, BuildingBlock: AZAVOO_clean_sbu_0, # of connection points: 4
#     Node 3, Type 0, BuildingBlock: AZAVOO_clean_sbu_0, # of connection points: 4
#     Node 4, Type 0, BuildingBlock: AZAVOO_clean_sbu_0, # of connection points: 4
#     Node 5, Type 0, BuildingBlock: AZAVOO_clean_sbu_0, # of connection points: 4
#     Node 6, Type 0, BuildingBlock: AZAVOO_clean_sbu_0, # of connection points: 4
#     Node 7, Type 0, BuildingBlock: AZAVOO_clean_sbu_0, # of connection points: 4
#     Node 8, Type 0, BuildingBlock: AZAVOO_clean_sbu_0, # of connection points: 4
#     Node 9, Type 0, BuildingBlock: AZAVOO_clean_sbu_0, # of connection points: 4
#     Node 10, Type 0, BuildingBlock: AZAVOO_clean_sbu_0, # of connection points: 4
#     Node 11, Type 0, BuildingBlock: AZAVOO_clean_sbu_0, # of connection points: 4
#     Node 12, Type 0, BuildingBlock: AZAVOO_clean_sbu_0, # of connection points: 4
#     Node 13, Type 0, BuildingBlock: AZAVOO_clean_sbu_0, # of connection points: 4
#     Node 14, Type 0, BuildingBlock: AZAVOO_clean_sbu_0, # of connection points: 4
#     Node 15, Type 0, BuildingBlock: AZAVOO_clean_sbu_0, # of connection points: 4
#     Node 16, Type 0, BuildingBlock: AZAVOO_clean_sbu_0, # of connection points: 4
#     Node 17, Type 0, BuildingBlock: AZAVOO_clean_sbu_0, # of connection points: 4
#     Node 18, Type 0, BuildingBlock: AZAVOO_clean_sbu_0, # of connection points: 4
#     Node 19, Type 0, BuildingBlock: AZAVOO_clean_sbu_0, # of connection points: 4
#     Node 20, Type 0, BuildingBlock: AZAVOO_clean_sbu_0, # of connection points: 4
#     Node 21, Type 0, BuildingBlock: AZAVOO_clean_sbu_0, # of connection points: 4
#     Node 22, Type 0, BuildingBlock: AZAVOO_clean_sbu_0, # of connection points: 4
#     Node 23, Type 0, BuildingBlock: AZAVOO_clean_sbu_0, # of connection points: 4
#     Node 24, Type 0, BuildingBlock: AZAVOO_clean_sbu_0, # of connection points: 4
#     Node 25, Type 0, BuildingBlock: AZAVOO_clean_sbu_0, # of connection points: 4
#     Node 26, Type 0, BuildingBlock: AZAVOO_clean_sbu_0, # of connection points: 4
#     Node 27, Type 0, BuildingBlock: AZAVOO_clean_sbu_0, # of connection points: 4
#     Node 28, Type 0, BuildingBlock: AZAVOO_clean_sbu_0, # of connection points: 4
#     Node 29, Type 0, BuildingBlock: AZAVOO_clean_sbu_0, # of connection points: 4
#     Node 30, Type 0, BuildingBlock: AZAVOO_clean_sbu_0, # of connection points: 4
#     Node 31, Type 0, BuildingBlock: AZAVOO_clean_sbu_0, # of connection points: 4
#     Edge 32, Type (0, 0), BuildingBlock: OJICUG_clean_linker_0, # of connection points: 2
#     Edge 33, Type (0, 0), BuildingBlock: OJICUG_clean_linker_0, # of connection points: 2
#     Edge 34, Type (0, 0), BuildingBlock: OJICUG_clean_linker_0, # of connection points: 2
#     Edge 35, Type (0, 0), BuildingBlock: OJICUG_clean_linker_0, # of connection points: 2
#     Edge 36, Type (0, 0), BuildingBlock: OJICUG_clean_linker_0, # of connection points: 2
#     Edge 37, Type (0, 0), BuildingBlock: OJICUG_clean_linker_0, # of connection points: 2
#     Edge 38, Type (0, 0), BuildingBlock: OJICUG_clean_linker_0, # of connection points: 2
#     Edge 39, Type (0, 0), BuildingBlock: OJICUG_clean_linker_0, # of connection points: 2
#     Edge 40, Type (0, 0), BuildingBlock: OJICUG_clean_linker_0, # of connection points: 2
#     Edge 41, Type (0, 0), BuildingBlock: OJICUG_clean_linker_0, # of connection points: 2
#     Edge 42, Type (0, 0), BuildingBlock: OJICUG_clean_linker_0, # of connection points: 2
#     Edge 43, Type (0, 0), BuildingBlock: OJICUG_clean_linker_0, # of connection points: 2
#     Edge 44, Type (0, 0), BuildingBlock: OJICUG_clean_linker_0, # of connection points: 2
#     Edge 45, Type (0, 0), BuildingBlock: OJICUG_clean_linker_0, # of connection points: 2
#     Edge 46, Type (0, 0), BuildingBlock: OJICUG_clean_linker_0, # of connection points: 2
#     Edge 47, Type (0, 0), BuildingBlock: OJICUG_clean_linker_0, # of connection points: 2
#     Edge 48, Type (0, 0), BuildingBlock: OJICUG_clean_linker_0, # of connection points: 2
#     Edge 49, Type (0, 0), BuildingBlock: OJICUG_clean_linker_0, # of connection points: 2
#     Edge 50, Type (0, 0), BuildingBlock: OJICUG_clean_linker_0, # of connection points: 2
#     Edge 51, Type (0, 0), BuildingBlock: OJICUG_clean_linker_0, # of connection points: 2
#     Edge 52, Type (0, 0), BuildingBlock: OJICUG_clean_linker_0, # of connection points: 2
#     Edge 53, Type (0, 0), BuildingBlock: OJICUG_clean_linker_0, # of connection points: 2
#     Edge 54, Type (0, 0), BuildingBlock: OJICUG_clean_linker_0, # of connection points: 2
#     Edge 55, Type (0, 0), BuildingBlock: OJICUG_clean_linker_0, # of connection points: 2
#     Edge 56, Type (0, 0), BuildingBlock: OJICUG_clean_linker_0, # of connection points: 2
#     Edge 57, Type (0, 0), BuildingBlock: OJICUG_clean_linker_0, # of connection points: 2
#     Edge 58, Type (0, 0), BuildingBlock: OJICUG_clean_linker_0, # of connection points: 2
#     Edge 59, Type (0, 0), BuildingBlock: OJICUG_clean_linker_0, # of connection points: 2
#     Edge 60, Type (0, 0), BuildingBlock: OJICUG_clean_linker_0, # of connection points: 2
#     Edge 61, Type (0, 0), BuildingBlock: OJICUG_clean_linker_0, # of connection points: 2
#     Edge 62, Type (0, 0), BuildingBlock: OJICUG_clean_linker_0, # of connection points: 2
#     Edge 63, Type (0, 0), BuildingBlock: OJICUG_clean_linker_0, # of connection points: 2
#     Edge 64, Type (0, 0), BuildingBlock: OJICUG_clean_linker_0, # of connection points: 2
#     Edge 65, Type (0, 0), BuildingBlock: OJICUG_clean_linker_0, # of connection points: 2
#     Edge 66, Type (0, 0), BuildingBlock: OJICUG_clean_linker_0, # of connection points: 2
#     Edge 67, Type (0, 0), BuildingBlock: OJICUG_clean_linker_0, # of connection points: 2
#     Edge 68, Type (0, 0), BuildingBlock: OJICUG_clean_linker_0, # of connection points: 2
#     Edge 69, Type (0, 0), BuildingBlock: OJICUG_clean_linker_0, # of connection points: 2
#     Edge 70, Type (0, 0), BuildingBlock: OJICUG_clean_linker_0, # of connection points: 2
#     Edge 71, Type (0, 0), BuildingBlock: OJICUG_clean_linker_0, # of connection points: 2
#     Edge 72, Type (0, 0), BuildingBlock: OJICUG_clean_linker_0, # of connection points: 2
#     Edge 73, Type (0, 0), BuildingBlock: OJICUG_clean_linker_0, # of connection points: 2
#     Edge 74, Type (0, 0), BuildingBlock: OJICUG_clean_linker_0, # of connection points: 2
#     Edge 75, Type (0, 0), BuildingBlock: OJICUG_clean_linker_0, # of connection points: 2
#     Edge 76, Type (0, 0), BuildingBlock: OJICUG_clean_linker_0, # of connection points: 2
#     Edge 77, Type (0, 0), BuildingBlock: OJICUG_clean_linker_0, # of connection points: 2
#     Edge 78, Type (0, 0), BuildingBlock: OJICUG_clean_linker_0, # of connection points: 2
#     Edge 79, Type (0, 0), BuildingBlock: OJICUG_clean_linker_0, # of connection points: 2
#     Edge 80, Type (0, 0), BuildingBlock: OJICUG_clean_linker_0, # of connection points: 2
#     Edge 81, Type (0, 0), BuildingBlock: OJICUG_clean_linker_0, # of connection points: 2
#     Edge 82, Type (0, 0), BuildingBlock: OJICUG_clean_linker_0, # of connection points: 2
#     Edge 83, Type (0, 0), BuildingBlock: OJICUG_clean_linker_0, # of connection points: 2
#     Edge 84, Type (0, 0), BuildingBlock: OJICUG_clean_linker_0, # of connection points: 2
#     Edge 85, Type (0, 0), BuildingBlock: OJICUG_clean_linker_0, # of connection points: 2
#     Edge 86, Type (0, 0), BuildingBlock: OJICUG_clean_linker_0, # of connection points: 2
#     Edge 87, Type (0, 0), BuildingBlock: OJICUG_clean_linker_0, # of connection points: 2
#     Edge 88, Type (0, 0), BuildingBlock: OJICUG_clean_linker_0, # of connection points: 2
#     Edge 89, Type (0, 0), BuildingBlock: OJICUG_clean_linker_0, # of connection points: 2
#     Edge 90, Type (0, 0), BuildingBlock: OJICUG_clean_linker_0, # of connection points: 2
#     Edge 91, Type (0, 0), BuildingBlock: OJICUG_clean_linker_0, # of connection points: 2
#     Edge 92, Type (0, 0), BuildingBlock: OJICUG_clean_linker_0, # of connection points: 2
#     Edge 93, Type (0, 0), BuildingBlock: OJICUG_clean_linker_0, # of connection points: 2
#     Edge 94, Type (0, 0), BuildingBlock: OJICUG_clean_linker_0, # of connection points: 2
#     Edge 95, Type (0, 0), BuildingBlock: OJICUG_clean_linker_0, # of connection points: 2
# Relax obj value: 0.167
# Max RMSD: 0.201
# Mean RMSD: 0.201
data_MOF--net-ukd--node1-AZAVOO_clean_sbu_0--edge1-OJICUG_clean_linker_0
_symmetry_space_group_name_H-M    P1
_symmetry_Int_Tables_number       1
_symmetry_cell_setting            triclinic
loop_
_symmetry_equiv_pos_as_xyz
'x, y, z'
_cell_length_a     30.195716
_cell_length_b     30.201984
_cell_length_c     59.765579
_cell_angle_alpha  89.992371
_cell_angle_beta   89.97512
_cell_angle_gamma 90.013352
loop_
_atom_site_label
_atom_site_type_symbol
_atom_site_fract_x
_atom_site_fract_y
_atom_site_fract_z
_atom_type_partial_charge
Mg0 Mg 0.2506 0.25343 0.33666 0.0
O1 O 0.19421 0.20347 0.33754 0.0
O2 O 0.13135 0.23407 0.32539 0.0
Mg3 Mg 0.14865 0.30589 0.31619 0.0
C4 C 0.153 0.20106 0.33303 0.0
C5 C 0.32998 0.19824 0.35647 0.0
O6 O 0.33247 0.23319 0.36949 0.0
O7 O 0.2545 0.2467 0.29879 0.0
O8 O 0.19247 0.28079 0.28771 0.0
O9 O 0.22979 0.27628 0.37095 0.0
O10 O 0.20578 0.30491 0.33909 0.0
C11 C 0.2285 0.26037 0.28339 0.0
C12 C 0.20399 0.30365 0.36053 0.0
O13 O 0.29994 0.19669 0.34158 0.0
Mg14 Mg 0.97289 0.99816 0.58654 0.0
O15 O 0.02932 0.94826 0.58814 0.0
O16 O 0.00725 0.88239 0.57532 0.0
Mg17 Mg 0.93447 0.89095 0.56501 0.0
C18 C 0.03693 0.90773 0.58354 0.0
C19 C 0.05014 0.05457 0.60824 0.0
O20 O 0.0502 0.02138 0.62246 0.0
O21 O 0.98202 0.00307 0.54888 0.0
O22 O 0.95647 0.93762 0.53699 0.0
O23 O 0.95045 0.97464 0.62041 0.0
O24 O 0.92723 0.94727 0.58813 0.0
C25 C 0.9729 0.97585 0.53317 0.0
C26 C 0.92726 0.9456 0.60958 0.0
O27 O 0.02238 0.05454 0.59225 0.0
Mg28 Mg 0.25361 0.74901 0.8375 0.0
O29 O 0.3102 0.79868 0.83816 0.0
O30 O 0.37269 0.76839 0.82532 0.0
Mg31 Mg 0.35464 0.69705 0.8156 0.0
C32 C 0.35127 0.80121 0.83334 0.0
C33 C 0.17342 0.80369 0.85731 0.0
O34 O 0.16915 0.76772 0.86949 0.0
O35 O 0.24868 0.75741 0.79983 0.0
O36 O 0.31046 0.72425 0.78771 0.0
O37 O 0.27538 0.72511 0.8714 0.0
O38 O 0.29842 0.69732 0.83916 0.0
C39 C 0.27433 0.74499 0.78402 0.0
C40 C 0.30091 0.69805 0.8606 0.0
O41 O 0.20474 0.80591 0.84313 0.0
Mg42 Mg 0.5088 0.00748 0.08725 0.0
O43 O 0.45829 0.06318 0.08665 0.0
O44 O 0.48851 0.12624 0.07458 0.0
Mg45 Mg 0.561 0.1093 0.06646 0.0
C46 C 0.45539 0.1042 0.08183 0.0
C47 C 0.452 0.92938 0.10741 0.0
O48 O 0.48554 0.92818 0.12139 0.0
O49 O 0.50431 0.002 0.0494 0.0
O50 O 0.53783 0.06417 0.03803 0.0
O51 O 0.52928 0.02997 0.12162 0.0
O52 O 0.55963 0.05303 0.08996 0.0
C53 C 0.51821 0.02761 0.03388 0.0
C54 C 0.55702 0.05564 0.11135 0.0
O55 O 0.45202 0.95802 0.09181 0.0
Mg56 Mg 0.24982 0.72854 0.13946 0.0
O57 O 0.19903 0.78412 0.13639 0.0
O58 O 0.13378 0.76189 0.15008 0.0
Mg59 Mg 0.14334 0.69037 0.16206 0.0
C60 C 0.15839 0.79126 0.14103 0.0
C61 C 0.30632 0.80544 0.11673 0.0
O62 O 0.27302 0.80597 0.1026 0.0
O63 O 0.25437 0.74152 0.1768 0.0
O64 O 0.18941 0.71621 0.18949 0.0
O65 O 0.22698 0.70262 0.10618 0.0
O66 O 0.19951 0.68213 0.13892 0.0
C67 C 0.22733 0.73378 0.19277 0.0
C68 C 0.19796 0.68024 0.11747 0.0
O69 O 0.306 0.77781 0.1328 0.0
Mg70 Mg 0.53319 0.99831 0.38806 0.0
O71 O 0.47681 0.94826 0.38647 0.0
O72 O 0.49889 0.88267 0.39966 0.0
Mg73 Mg 0.57156 0.89146 0.41011 0.0
C74 C 0.46926 0.90778 0.39122 0.0
C75 C 0.45574 0.05431 0.36611 0.0
O76 O 0.45521 0.02068 0.35217 0.0
O77 O 0.52379 0.00383 0.42572 0.0
O78 O 0.54945 0.9386 0.43785 0.0
O79 O 0.55604 0.97423 0.35436 0.0
O80 O 0.5789 0.94747 0.38683 0.0
C81 C 0.53298 0.97686 0.44153 0.0
C82 C 0.57909 0.94538 0.36539 0.0
O83 O 0.48379 0.05462 0.38198 0.0
Mg84 Mg 0.25409 0.25416 0.63899 0.0
O85 O 0.31051 0.20436 0.63744 0.0
O86 O 0.37322 0.23413 0.65033 0.0
Mg87 Mg 0.3557 0.30522 0.66072 0.0
C88 C 0.35166 0.20166 0.64206 0.0
C89 C 0.176 0.19848 0.61776 0.0
O90 O 0.17445 0.23284 0.6043 0.0
O91 O 0.24999 0.2447 0.67664 0.0
O92 O 0.31195 0.27759 0.6887 0.0
O93 O 0.27508 0.27907 0.60517 0.0
O94 O 0.299 0.30576 0.63748 0.0
C95 C 0.27586 0.25679 0.69241 0.0
C96 C 0.301 0.30566 0.61603 0.0
O97 O 0.20488 0.19763 0.63323 0.0
Mg98 Mg 0.97138 0.00505 0.88868 0.0
O99 O 0.02804 0.0548 0.88704 0.0
O100 O 0.00652 0.12041 0.90045 0.0
Mg101 Mg 0.93407 0.1118 0.91128 0.0
C102 C 0.03592 0.09517 0.89189 0.0
C103 C 0.04892 0.94878 0.86674 0.0
O104 O 0.0505 0.98285 0.85309 0.0
O105 O 0.98193 0.99927 0.92617 0.0
O106 O 0.95755 0.06462 0.93877 0.0
O107 O 0.9481 0.02943 0.85514 0.0
O108 O 0.92601 0.05626 0.88774 0.0
C109 C 0.97399 0.02624 0.94214 0.0
C110 C 0.92547 0.05844 0.8663 0.0
O111 O 0.02022 0.94834 0.88232 0.0
Mg112 Mg 0.75579 0.72237 0.63864 0.0
O113 O 0.80605 0.77854 0.63723 0.0
O114 O 0.87174 0.75597 0.65006 0.0
Mg115 Mg 0.86266 0.68317 0.66023 0.0
C116 C 0.84662 0.78587 0.64188 0.0
C117 C 0.69978 0.80015 0.6171 0.0
O118 O 0.73303 0.8003 0.60292 0.0
O119 O 0.75072 0.73112 0.67631 0.0
O120 O 0.81597 0.70517 0.68825 0.0
O121 O 0.77936 0.70023 0.60474 0.0
O122 O 0.80647 0.67649 0.63698 0.0
C123 C 0.77778 0.72174 0.69204 0.0
C124 C 0.80828 0.67682 0.61553 0.0
O125 O 0.69966 0.77217 0.63301 0.0
Mg126 Mg 0.00432 0.00343 0.38795 0.0
O127 O 0.95436 0.05974 0.38733 0.0
O128 O 0.98438 0.12236 0.40012 0.0
Mg129 Mg 0.05591 0.10473 0.40972 0.0
C130 C 0.95162 0.10077 0.39216 0.0
C131 C 0.94996 0.92284 0.36837 0.0
O132 O 0.98601 0.91854 0.35624 0.0
O133 O 0.99616 0.9985 0.42564 0.0
O134 O 0.02915 0.06041 0.43769 0.0
O135 O 0.02803 0.02522 0.35401 0.0
O136 O 0.05581 0.04845 0.38621 0.0
C137 C 0.0086 0.02418 0.44142 0.0
C138 C 0.05507 0.05084 0.36477 0.0
O139 O 0.94759 0.95432 0.38244 0.0
Mg140 Mg 0.7488 0.26088 0.13822 0.0
O141 O 0.6928 0.21065 0.13819 0.0
O142 O 0.62965 0.24092 0.15012 0.0
Mg143 Mg 0.64679 0.31312 0.15873 0.0
C144 C 0.65166 0.20788 0.14277 0.0
C145 C 0.82689 0.204 0.11812 0.0
O146 O 0.82839 0.23765 0.10421 0.0
O147 O 0.75335 0.25547 0.17607 0.0
O148 O 0.6911 0.28901 0.18729 0.0
O149 O 0.72718 0.2821 0.10384 0.0
O150 O 0.70355 0.31196 0.1355 0.0
C151 C 0.72745 0.2691 0.19153 0.0
C152 C 0.70134 0.30969 0.11409 0.0
O153 O 0.79809 0.204 0.13365 0.0
Mg154 Mg 0.49911 0.99906 0.88805 0.0
O155 O 0.54922 0.94283 0.88732 0.0
O156 O 0.51895 0.8801 0.89986 0.0
Mg157 Mg 0.44714 0.89735 0.90917 0.0
C158 C 0.55182 0.90172 0.89202 0.0
C159 C 0.55435 0.07823 0.86783 0.0
O160 O 0.51954 0.08052 0.8547 0.0
O161 O 0.50614 0.00367 0.92587 0.0
O162 O 0.47234 0.94177 0.93739 0.0
O163 O 0.47599 0.9776 0.85393 0.0
O164 O 0.44772 0.95405 0.88597 0.0
C165 C 0.4927 0.97795 0.94145 0.0
C166 C 0.44878 0.95191 0.86454 0.0
O167 O 0.55573 0.04844 0.88285 0.0
Mg168 Mg 0.7542 0.28207 0.83691 0.0
O169 O 0.80438 0.22585 0.83867 0.0
O170 O 0.87016 0.24822 0.8258 0.0
Mg171 Mg 0.86136 0.32092 0.81542 0.0
C172 C 0.84498 0.21846 0.83409 0.0
C173 C 0.69808 0.20439 0.85853 0.0
O174 O 0.73147 0.20404 0.87262 0.0
O175 O 0.74945 0.27292 0.79923 0.0
O176 O 0.81483 0.29886 0.7874 0.0
O177 O 0.77754 0.30471 0.87077 0.0
O178 O 0.80489 0.32792 0.83847 0.0
C179 C 0.77668 0.28228 0.78354 0.0
C180 C 0.80656 0.32792 0.85992 0.0
O181 O 0.69792 0.23244 0.84266 0.0
Mg182 Mg 0.50064 0.00467 0.58665 0.0
O183 O 0.55067 0.06092 0.5879 0.0
O184 O 0.52105 0.12361 0.57494 0.0
Mg185 Mg 0.44976 0.10625 0.56481 0.0
C186 C 0.55352 0.10199 0.58317 0.0
C187 C 0.55614 0.92634 0.60779 0.0
O188 O 0.52172 0.92469 0.62123 0.0
O189 O 0.50971 1.00023 0.549 0.0
O190 O 0.47693 0.06218 0.53686 0.0
O191 O 0.47604 0.02601 0.62049 0.0
O192 O 0.4492 0.04974 0.58818 0.0
C193 C 0.49756 0.02599 0.53319 0.0
C194 C 0.4494 0.05187 0.60962 0.0
O195 O 0.55708 0.95536 0.59239 0.0
Mg196 Mg 0.74906 0.72035 0.33701 0.0
O197 O 0.69908 0.7768 0.33874 0.0
O198 O 0.63359 0.75512 0.3252 0.0
Mg199 Mg 0.64255 0.68287 0.31418 0.0
C200 C 0.65868 0.78454 0.33386 0.0
C201 C 0.80507 0.79803 0.35906 0.0
O202 O 0.7709 0.79965 0.37264 0.0
O203 O 0.755 0.73141 0.29957 0.0
O204 O 0.68976 0.70699 0.28682 0.0
O205 O 0.72457 0.69668 0.37047 0.0
O206 O 0.69796 0.67482 0.33778 0.0
C207 C 0.72811 0.72364 0.28355 0.0
C208 C 0.69564 0.67412 0.35923 0.0
O209 O 0.80563 0.76928 0.34352 0.0
Mg210 Mg 0.02631 1.0007 0.08587 0.0
O211 O 0.97042 0.95028 0.08924 0.0
O212 O 0.9921 0.88483 0.07562 0.0
Mg213 Mg 0.06357 0.89384 0.06342 0.0
C214 C 0.96298 0.90967 0.08471 0.0
C215 C 0.94999 0.05773 0.1087 0.0
O216 O 0.94935 0.02446 0.12286 0.0
O217 O 0.01283 0.00497 0.04856 0.0
O218 O 0.03765 0.93978 0.03596 0.0
O219 O 0.05255 0.97802 0.11912 0.0
O220 O 0.07243 0.95016 0.08637 0.0
C221 C 0.02023 0.97774 0.03263 0.0
C222 C 0.07463 0.94881 0.10781 0.0
O223 O 0.97748 0.05721 0.09258 0.0
Mg224 Mg 0.74962 0.75308 0.83725 0.0
O225 O 0.69311 0.70332 0.83787 0.0
O226 O 0.63061 0.73353 0.82503 0.0
Mg227 Mg 0.64857 0.80493 0.81535 0.0
C228 C 0.65206 0.70072 0.83303 0.0
C229 C 0.82988 0.69855 0.85702 0.0
O230 O 0.83413 0.73457 0.86916 0.0
O231 O 0.7547 0.74483 0.79957 0.0
O232 O 0.69293 0.77796 0.78745 0.0
O233 O 0.72774 0.7769 0.87116 0.0
O234 O 0.70473 0.8047 0.83892 0.0
C235 C 0.72911 0.7573 0.78376 0.0
C236 C 0.70222 0.80397 0.86036 0.0
O237 O 0.79854 0.69624 0.84287 0.0
Mg238 Mg 0.49444 0.49977 0.08767 0.0
O239 O 0.54524 0.44432 0.08757 0.0
O240 O 0.51536 0.38089 0.07579 0.0
Mg241 Mg 0.44282 0.3972 0.06748 0.0
C242 C 0.54832 0.40321 0.08298 0.0
C243 C 0.55193 0.57689 0.10821 0.0
O244 O 0.51967 0.57633 0.12297 0.0
O245 O 0.49921 0.50426 0.04979 0.0
O246 O 0.46597 0.4417 0.0388 0.0
O247 O 0.4738 0.47804 0.12216 0.0
O248 O 0.4438 0.45406 0.09061 0.0
C249 C 0.48549 0.47821 0.03442 0.0
C250 C 0.44627 0.45199 0.11201 0.0
O251 O 0.55089 0.54967 0.09199 0.0
Mg252 Mg 0.75352 0.24776 0.33742 0.0
O253 O 0.81007 0.29755 0.33817 0.0
O254 O 0.87271 0.26686 0.32577 0.0
Mg255 Mg 0.85505 0.19516 0.3165 0.0
C256 C 0.85124 0.29987 0.33354 0.0
C257 C 0.67407 0.30305 0.35726 0.0
O258 O 0.67107 0.2679 0.37013 0.0
O259 O 0.74921 0.2548 0.29959 0.0
O260 O 0.81104 0.22072 0.2882 0.0
O261 O 0.77468 0.2247 0.3716 0.0
O262 O 0.79823 0.19615 0.33963 0.0
C263 C 0.77501 0.24128 0.28407 0.0
C264 C 0.80032 0.19735 0.36106 0.0
O265 O 0.70442 0.30464 0.34253 0.0
Mg266 Mg 0.03233 0.5066 0.5862 0.0
O267 O 0.97583 0.55647 0.58767 0.0
O268 O 0.99785 0.62218 0.57461 0.0
Mg269 Mg 0.07062 0.61354 0.56425 0.0
C270 C 0.96819 0.59694 0.58294 0.0
C271 C 0.95492 0.45027 0.60794 0.0
O272 O 0.95438 0.48373 0.62198 0.0
O273 O 0.02324 0.50117 0.54857 0.0
O274 O 0.04869 0.56645 0.53639 0.0
O275 O 0.05471 0.53052 0.61998 0.0
O276 O 0.0779 0.55759 0.58762 0.0
C277 C 0.03232 0.52813 0.53275 0.0
C278 C 0.07783 0.55951 0.60907 0.0
O279 O 0.983 0.45014 0.59208 0.0
Mg280 Mg 0.75083 0.2505 0.63826 0.0
O281 O 0.69442 0.30034 0.63693 0.0
O282 O 0.6317 0.27042 0.64973 0.0
Mg283 Mg 0.64919 0.19916 0.65985 0.0
C284 C 0.65329 0.303 0.64158 0.0
C285 C 0.82955 0.30593 0.61748 0.0
O286 O 0.83182 0.27116 0.60432 0.0
O287 O 0.75495 0.25946 0.67594 0.0
O288 O 0.69296 0.2264 0.68788 0.0
O289 O 0.72978 0.22601 0.60437 0.0
O290 O 0.70593 0.19892 0.63662 0.0
C291 C 0.72905 0.24713 0.69167 0.0
C292 C 0.70393 0.19924 0.61517 0.0
O293 O 0.79999 0.30712 0.63262 0.0
Mg294 Mg 0.03163 0.4973 0.88892 0.0
O295 O 0.97493 0.4476 0.88724 0.0
O296 O 0.99616 0.38213 0.90096 0.0
Mg297 Mg 0.06843 0.39082 0.91203 0.0
C298 C 0.96693 0.40728 0.89219 0.0
C299 C 0.95434 0.55349 0.86667 0.0
O300 O 0.95274 0.5193 0.85311 0.0
O301 O 0.02058 0.50362 0.92635 0.0
O302 O 0.04468 0.43844 0.9393 0.0
O303 O 0.05535 0.4725 0.85554 0.0
O304 O 0.07693 0.446 0.8883 0.0
C305 C 0.02826 0.47691 0.94246 0.0
C306 C 0.07776 0.44357 0.86686 0.0
O307 O 0.98297 0.55402 0.88227 0.0
Mg308 Mg 0.75334 0.77843 0.14009 0.0
O309 O 0.80435 0.72314 0.13668 0.0
O310 O 0.86961 0.74545 0.15029 0.0
Mg311 Mg 0.8598 0.81671 0.1626 0.0
C312 C 0.84505 0.71613 0.14118 0.0
C313 C 0.69665 0.70202 0.11709 0.0
O314 O 0.72934 0.70245 0.10257 0.0
O315 O 0.74921 0.76476 0.17736 0.0
O316 O 0.81416 0.79003 0.19005 0.0
O317 O 0.77578 0.80483 0.10685 0.0
O318 O 0.80345 0.82505 0.13958 0.0
C319 C 0.77634 0.77222 0.19331 0.0
C320 C 0.80486 0.82712 0.11814 0.0
O321 O 0.6974 0.72893 0.13345 0.0
Mg322 Mg 0.47097 0.5036 0.38808 0.0
O323 O 0.52743 0.55355 0.3864 0.0
O324 O 0.50533 0.61931 0.39937 0.0
Mg325 Mg 0.43256 0.61076 0.40973 0.0
C326 C 0.535 0.59407 0.39105 0.0
C327 C 0.54861 0.44735 0.36648 0.0
O328 O 0.54941 0.48092 0.35251 0.0
O329 O 0.48012 0.49857 0.42577 0.0
O330 O 0.45446 0.56397 0.43767 0.0
O331 O 0.44838 0.52729 0.35426 0.0
O332 O 0.42533 0.55447 0.38662 0.0
C333 C 0.47088 0.52575 0.44148 0.0
C334 C 0.42528 0.55628 0.36517 0.0
O335 O 0.52032 0.44714 0.38226 0.0
Mg336 Mg 0.25501 0.24608 0.13736 0.0
O337 O 0.31091 0.2964 0.13793 0.0
O338 O 0.37406 0.26577 0.14959 0.0
Mg339 Mg 0.35699 0.1932 0.15746 0.0
C340 C 0.35202 0.29908 0.14259 0.0
C341 C 0.17623 0.30278 0.11802 0.0
O342 O 0.17409 0.26882 0.10432 0.0
O343 O 0.25018 0.24998 0.17527 0.0
O344 O 0.31244 0.21608 0.18618 0.0
O345 O 0.2769 0.22614 0.10281 0.0
O346 O 0.30032 0.19517 0.13423 0.0
C347 C 0.27603 0.23574 0.1906 0.0
C348 C 0.30263 0.19815 0.11284 0.0
O349 O 0.2057 0.30307 0.13321 0.0
Mg350 Mg 0.5045 0.5035 0.8884 0.0
O351 O 0.45435 0.55967 0.88753 0.0
O352 O 0.48467 0.62262 0.89973 0.0
Mg353 Mg 0.55656 0.6056 0.90894 0.0
C354 C 0.45176 0.60085 0.89206 0.0
C355 C 0.44943 0.42393 0.86861 0.0
O356 O 0.48436 0.42146 0.85554 0.0
O357 O 0.49766 0.49957 0.92626 0.0
O358 O 0.53151 0.5617 0.9374 0.0
O359 O 0.52744 0.52438 0.85414 0.0
O360 O 0.55587 0.54848 0.88602 0.0
C361 C 0.51117 0.52559 0.94169 0.0
C362 C 0.55471 0.55024 0.86459 0.0
O363 O 0.4479 0.454 0.88348 0.0
Mg364 Mg 0.24934 0.78241 0.63899 0.0
O365 O 0.199 0.72636 0.63721 0.0
O366 O 0.13321 0.74886 0.64999 0.0
Mg367 Mg 0.1423 0.82145 0.66049 0.0
C368 C 0.15836 0.71906 0.64173 0.0
C369 C 0.3054 0.70484 0.6173 0.0
O370 O 0.27224 0.7049 0.60307 0.0
O371 O 0.25396 0.773 0.67664 0.0
O372 O 0.18862 0.79884 0.68852 0.0
O373 O 0.22617 0.80508 0.60513 0.0
O374 O 0.19875 0.82839 0.6374 0.0
C375 C 0.22672 0.78213 0.69234 0.0
C376 C 0.19714 0.82833 0.61594 0.0
O377 O 0.30546 0.73263 0.63328 0.0
Mg378 Mg 1.00063 0.49792 0.3877 0.0
O379 O 0.05056 0.44158 0.38718 0.0
O380 O 0.02063 0.37913 0.40025 0.0
Mg381 Mg 0.94921 0.39695 0.40999 0.0
C382 C 0.05333 0.40061 0.39213 0.0
C383 C 0.05471 0.57874 0.36803 0.0
O384 O 0.01835 0.58347 0.3562 0.0
O385 O 0.00903 0.50345 0.42534 0.0
O386 O 0.97615 0.44171 0.43772 0.0
O387 O 0.97666 0.47561 0.3539 0.0
O388 O 0.94911 0.45286 0.38624 0.0
C389 C 0.9967 0.47801 0.44126 0.0
C390 C 0.9497 0.45015 0.36482 0.0
O391 O 0.05735 0.54693 0.3819 0.0
Mg392 Mg 0.25565 0.78137 0.33679 0.0
O393 O 0.3055 0.7248 0.33833 0.0
O394 O 0.37106 0.74646 0.32486 0.0
Mg395 Mg 0.36229 0.81889 0.31407 0.0
C396 C 0.34589 0.717 0.33343 0.0
C397 C 0.1996 0.70355 0.35864 0.0
O398 O 0.23382 0.70182 0.37218 0.0
O399 O 0.2497 0.77094 0.2993 0.0
O400 O 0.31498 0.79546 0.28662 0.0
O401 O 0.28015 0.8046 0.37031 0.0
O402 O 0.30683 0.8268 0.33769 0.0
C403 C 0.27659 0.77899 0.28329 0.0
C404 C 0.3091 0.82729 0.35914 0.0
O405 O 0.19899 0.73245 0.34317 0.0
Mg406 Mg 0.97664 0.50603 0.08607 0.0
O407 O 0.03262 0.55647 0.08902 0.0
O408 O 0.01092 0.62166 0.0751 0.0
Mg409 Mg 0.93938 0.61242 0.06307 0.0
C410 C 0.04007 0.59699 0.08426 0.0
C411 C 0.05332 0.44927 0.10885 0.0
O412 O 0.05454 0.48288 0.12279 0.0
O413 O 0.98977 0.50088 0.04877 0.0
O414 O 0.96502 0.5658 0.0358 0.0
O415 O 0.95074 0.52943 0.11925 0.0
O416 O 0.93062 0.55668 0.08641 0.0
C417 C 0.98232 0.52771 0.03268 0.0
C418 C 0.92864 0.55847 0.10785 0.0
O419 O 0.0254 0.44954 0.09293 0.0
Mg420 Mg 0.24967 0.22018 0.83754 0.0
O421 O 0.19941 0.27635 0.83936 0.0
O422 O 0.13379 0.25399 0.82629 0.0
Mg423 Mg 0.14276 0.18141 0.81574 0.0
C424 C 0.15884 0.2837 0.83472 0.0
C425 C 0.30562 0.29789 0.85932 0.0
O426 O 0.27206 0.29842 0.87331 0.0
O427 O 0.25478 0.22971 0.79988 0.0
O428 O 0.18954 0.20382 0.78788 0.0
O429 O 0.226 0.19724 0.8713 0.0
O430 O 0.199 0.17429 0.8389 0.0
C431 C 0.2277 0.22047 0.78413 0.0
C432 C 0.19709 0.17413 0.86034 0.0
O433 O 0.3059 0.26976 0.84349 0.0
Mg434 Mg 0.50423 0.50011 0.58667 0.0
O435 O 0.45422 0.44388 0.58829 0.0
O436 O 0.48375 0.38104 0.57544 0.0
Mg437 Mg 0.55494 0.39824 0.56503 0.0
C438 C 0.45136 0.40274 0.5837 0.0
C439 C 0.44887 0.5785 0.60783 0.0
O440 O 0.48328 0.58004 0.62125 0.0
O441 O 0.49475 0.50404 0.54902 0.0
O442 O 0.52745 0.44193 0.53703 0.0
O443 O 0.52917 0.47918 0.6205 0.0
O444 O 0.5557 0.45508 0.58819 0.0
C445 C 0.50676 0.47804 0.53327 0.0
C446 C 0.55569 0.45319 0.60964 0.0
O447 O 0.44787 0.54951 0.59241 0.0
C448 C 0.12534 0.39669 0.37188 0.0
C449 C 0.09494 0.37705 0.38668 0.0
H450 H 0.18376 0.38838 0.35214 0.0
C451 C 0.10375 0.33426 0.39493 0.0
H452 H 0.11974 0.42955 0.36519 0.0
C453 C 0.14136 0.31099 0.38775 0.0
C454 C 0.17 0.33 0.37195 0.0
H455 H 0.08105 0.31835 0.40644 0.0
H456 H 0.14662 0.27739 0.39351 0.0
C457 C 0.16212 0.37321 0.36442 0.0
C458 C 0.86355 0.89472 0.6122 0.0
C459 C 0.90448 0.90869 0.6207 0.0
H460 H 0.8129 0.84561 0.61255 0.0
C461 C 0.92512 0.88392 0.63759 0.0
H462 H 0.84716 0.91333 0.5991 0.0
C463 C 0.90597 0.84422 0.645 0.0
C464 C 0.86553 0.8295 0.63593 0.0
H465 H 0.95702 0.89393 0.64415 0.0
H466 H 0.9232 0.82465 0.65744 0.0
C467 C 0.844 0.85589 0.61992 0.0
C468 C 0.38071 0.60534 0.87104 0.0
C469 C 0.41023 0.62437 0.88646 0.0
H470 H 0.323 0.61422 0.85084 0.0
C471 C 0.40073 0.66662 0.89519 0.0
H472 H 0.38695 0.57293 0.86394 0.0
C473 C 0.36316 0.68992 0.88799 0.0
C474 C 0.33533 0.67156 0.87164 0.0
H475 H 0.4228 0.68203 0.90716 0.0
H476 H 0.35727 0.72306 0.89424 0.0
C477 C 0.34402 0.62891 0.86353 0.0
C478 C 0.6263 0.09766 0.11608 0.0
C479 C 0.58252 0.09017 0.12285 0.0
H480 H 0.68261 0.14001 0.1174 0.0
C481 C 0.56237 0.11954 0.13793 0.0
H482 H 0.64235 0.07545 0.10437 0.0
C483 C 0.58514 0.15748 0.14509 0.0
C484 C 0.62855 0.16589 0.13755 0.0
H485 H 0.52834 0.11457 0.14309 0.0
H486 H 0.56839 0.18075 0.15597 0.0
C487 C 0.64926 0.13476 0.12354 0.0
C488 C 0.14504 0.61778 0.11675 0.0
C489 C 0.16109 0.65662 0.10676 0.0
H490 H 0.09475 0.56816 0.11719 0.0
C491 C 0.13878 0.67451 0.08826 0.0
H492 H 0.16172 0.60348 0.13108 0.0
C493 C 0.09959 0.65482 0.08058 0.0
C494 C 0.08294 0.61645 0.09098 0.0
H495 H 0.1504 0.70475 0.08047 0.0
H496 H 0.08201 0.66993 0.06675 0.0
C497 C 0.10671 0.59758 0.10877 0.0
C498 C 0.58145 0.88364 0.33743 0.0
C499 C 0.60172 0.90808 0.35456 0.0
H500 H 0.58333 0.82443 0.31756 0.0
C501 C 0.64198 0.89338 0.36356 0.0
H502 H 0.55006 0.8942 0.33048 0.0
C503 C 0.66119 0.85422 0.35609 0.0
C504 C 0.64001 0.82824 0.3398 0.0
H505 H 0.65809 0.91171 0.37686 0.0
H506 H 0.69176 0.84341 0.36382 0.0
C507 C 0.60027 0.84365 0.33024 0.0
C508 C 0.34514 0.37426 0.61358 0.0
C509 C 0.33538 0.33222 0.60498 0.0
H510 H 0.38881 0.4297 0.61331 0.0
C511 C 0.36209 0.3144 0.588 0.0
H512 H 0.325 0.38852 0.62675 0.0
C513 C 0.39957 0.3376 0.58059 0.0
C514 C 0.41008 0.37925 0.58975 0.0
H515 H 0.35538 0.28171 0.58135 0.0
H516 H 0.42073 0.32262 0.56806 0.0
C517 C 0.38173 0.39777 0.60587 0.0
C518 C 0.8627 0.11072 0.86467 0.0
C519 C 0.90274 0.09577 0.85552 0.0
H520 H 0.81277 0.16059 0.86477 0.0
C521 C 0.92252 0.11967 0.83803 0.0
H522 H 0.84694 0.09281 0.87822 0.0
C523 C 0.90345 0.15938 0.83061 0.0
C524 C 0.86386 0.17497 0.84025 0.0
H525 H 0.95372 0.10889 0.83093 0.0
H526 H 0.92001 0.17821 0.81765 0.0
C527 C 0.84317 0.14955 0.85694 0.0
C528 C 0.89842 0.59406 0.60512 0.0
C529 C 0.92452 0.61562 0.58899 0.0
H530 H 0.84117 0.59699 0.62611 0.0
C531 C 0.90946 0.65591 0.57988 0.0
H532 H 0.90894 0.56307 0.61252 0.0
C533 C 0.86974 0.67487 0.58738 0.0
C534 C 0.84526 0.65421 0.60439 0.0
H535 H 0.9288 0.67317 0.56735 0.0
H536 H 0.85948 0.70666 0.58078 0.0
C537 C 0.85955 0.61342 0.61292 0.0
C538 C 0.14821 0.1301 0.35412 0.0
C539 C 0.12929 0.15966 0.33869 0.0
H540 H 0.13905 0.07254 0.37441 0.0
C541 C 0.08693 0.15035 0.33001 0.0
H542 H 0.18068 0.13619 0.36117 0.0
C543 C 0.06344 0.11295 0.33729 0.0
C544 C 0.08169 0.0851 0.35366 0.0
H545 H 0.0716 0.17245 0.31803 0.0
H546 H 0.03023 0.10721 0.33109 0.0
C547 C 0.12444 0.09358 0.36171 0.0
C548 C 0.62179 0.40149 0.10191 0.0
C549 C 0.5906 0.3805 0.08804 0.0
H550 H 0.68135 0.39502 0.12093 0.0
C551 C 0.59922 0.33715 0.08051 0.0
H552 H 0.61639 0.43481 0.10803 0.0
C553 C 0.63738 0.31467 0.08758 0.0
C554 C 0.66678 0.33506 0.10255 0.0
H555 H 0.57591 0.3202 0.06973 0.0
H556 H 0.64247 0.28064 0.08247 0.0
C557 C 0.65913 0.37881 0.10928 0.0
C558 C 0.44101 0.8892 0.8374 0.0
C559 C 0.42229 0.91774 0.85332 0.0
H560 H 0.4333 0.82897 0.8187 0.0
C561 C 0.37925 0.90974 0.8611 0.0
H562 H 0.47448 0.89455 0.83145 0.0
C563 C 0.35565 0.87298 0.85373 0.0
C564 C 0.375 0.84271 0.83879 0.0
H565 H 0.36431 0.93132 0.87347 0.0
H566 H 0.32292 0.8673 0.86059 0.0
C567 C 0.41763 0.85159 0.83032 0.0
C568 C 0.89741 0.41011 0.86984 0.0
C569 C 0.92321 0.38874 0.88613 0.0
H570 H 0.8402 0.40718 0.84886 0.0
C571 C 0.90771 0.34887 0.89552 0.0
H572 H 0.90828 0.44078 0.86223 0.0
C573 C 0.86783 0.33009 0.88814 0.0
C574 C 0.84362 0.35053 0.87098 0.0
H575 H 0.92679 0.33178 0.9082 0.0
H576 H 0.85722 0.29857 0.89495 0.0
C577 C 0.85836 0.39093 0.86217 0.0
C578 C 0.35699 0.13222 0.61979 0.0
C579 C 0.37535 0.16054 0.63597 0.0
H580 H 0.36652 0.07568 0.59885 0.0
C581 C 0.41703 0.15017 0.64513 0.0
H582 H 0.32504 0.1392 0.61235 0.0
C583 C 0.44041 0.11285 0.63769 0.0
C584 C 0.42275 0.08618 0.62066 0.0
H585 H 0.43188 0.17131 0.6577 0.0
H586 H 0.4731 0.10623 0.64435 0.0
C587 C 0.38068 0.0958 0.61205 0.0
C588 C 0.64302 0.61158 0.36064 0.0
C589 C 0.65814 0.65143 0.36991 0.0
H590 H 0.59285 0.56192 0.36035 0.0
C591 C 0.63425 0.67114 0.38742 0.0
H592 H 0.66092 0.59588 0.34707 0.0
C593 C 0.59438 0.6522 0.39474 0.0
C594 C 0.57862 0.6128 0.38498 0.0
H595 H 0.64516 0.70221 0.39461 0.0
H596 H 0.57557 0.66871 0.40772 0.0
C597 C 0.60402 0.59217 0.36827 0.0
C598 C 0.15756 0.85787 0.1165 0.0
C599 C 0.13876 0.83403 0.1343 0.0
H600 H 0.15149 0.91285 0.09419 0.0
C601 C 0.10031 0.85051 0.1447 0.0
H602 H 0.18704 0.84602 0.10809 0.0
C603 C 0.08052 0.88963 0.13702 0.0
C604 C 0.09835 0.91202 0.11852 0.0
H605 H 0.08525 0.83286 0.15853 0.0
H606 H 0.05023 0.90114 0.14481 0.0
C607 C 0.13724 0.89611 0.10853 0.0
C608 C 0.64018 0.81242 0.88789 0.0
C609 C 0.6679 0.83058 0.87142 0.0
H610 H 0.58075 0.8206 0.90723 0.0
C611 C 0.65923 0.87319 0.86325 0.0
H612 H 0.64606 0.77931 0.8942 0.0
C613 C 0.62268 0.89691 0.87082 0.0
C614 C 0.59325 0.87808 0.88637 0.0
H615 H 0.68017 0.88774 0.85048 0.0
H616 H 0.61645 0.92928 0.86367 0.0
C617 C 0.60274 0.83586 0.89516 0.0
C618 C 0.37667 0.41097 0.11751 0.0
C619 C 0.42092 0.41757 0.12366 0.0
H620 H 0.32005 0.36908 0.11903 0.0
C621 C 0.44166 0.3871 0.13794 0.0
H622 H 0.3602 0.43403 0.10638 0.0
C623 C 0.41895 0.34895 0.14486 0.0
C624 C 0.37506 0.34136 0.13785 0.0
H625 H 0.47609 0.39136 0.14257 0.0
H626 H 0.43616 0.32481 0.15506 0.0
C627 C 0.3538 0.37362 0.12473 0.0
C628 C 0.90102 0.16693 0.39513 0.0
C629 C 0.90994 0.12424 0.38678 0.0
H630 H 0.85789 0.22361 0.39392 0.0
C631 C 0.87952 0.10458 0.37202 0.0
H632 H 0.92373 0.18284 0.40662 0.0
C633 C 0.84258 0.12795 0.36469 0.0
C634 C 0.83455 0.17106 0.37233 0.0
H635 H 0.88521 0.07179 0.36526 0.0
H636 H 0.82091 0.11278 0.35244 0.0
C637 C 0.86324 0.19008 0.38809 0.0
C638 C 0.16062 0.64981 0.61918 0.0
C639 C 0.13943 0.67559 0.63555 0.0
H640 H 0.15725 0.59287 0.59802 0.0
C641 C 0.09932 0.66041 0.64482 0.0
H642 H 0.19145 0.66048 0.61164 0.0
C643 C 0.08021 0.62079 0.6373 0.0
C644 C 0.10052 0.59656 0.62009 0.0
H645 H 0.08235 0.67953 0.65753 0.0
H646 H 0.0486 0.61037 0.64407 0.0
C647 C 0.14109 0.61105 0.61136 0.0
C648 C 0.605 0.16741 0.58002 0.0
C649 C 0.59488 0.12553 0.58904 0.0
H650 H 0.64888 0.22354 0.58084 0.0
C651 C 0.62369 0.10683 0.60489 0.0
H652 H 0.5835 0.18254 0.5677 0.0
C653 C 0.66031 0.13038 0.61251 0.0
C654 C 0.66963 0.17266 0.60408 0.0
H655 H 0.61695 0.07471 0.61222 0.0
H656 H 0.68078 0.11597 0.6255 0.0
C657 C 0.6425 0.19067 0.58734 0.0
C658 C 0.10063 0.34296 0.83104 0.0
C659 C 0.1398 0.32706 0.84096 0.0
H660 H 0.05057 0.39366 0.83109 0.0
C661 C 0.1599 0.35204 0.85798 0.0
H662 H 0.08452 0.32445 0.81782 0.0
C663 C 0.14022 0.3908 0.86571 0.0
C664 C 0.10062 0.40611 0.85624 0.0
H665 H 0.18996 0.34073 0.86604 0.0
H666 H 0.15553 0.40841 0.87948 0.0
C667 C 0.08142 0.3826 0.83846 0.0
C668 C 0.89645 0.90938 0.10933 0.0
C669 C 0.9201 0.89037 0.09152 0.0
H670 H 0.84146 0.90377 0.13169 0.0
C671 C 0.90327 0.85205 0.08116 0.0
H672 H 0.90857 0.93878 0.11771 0.0
C673 C 0.864 0.83257 0.08888 0.0
C674 C 0.84179 0.8506 0.10739 0.0
H675 H 0.92075 0.83684 0.06732 0.0
H676 H 0.85223 0.80237 0.08112 0.0
C677 C 0.85804 0.88937 0.11735 0.0
C678 C 0.4233 0.61805 0.33722 0.0
C679 C 0.40269 0.59343 0.35419 0.0
H680 H 0.42172 0.67742 0.31745 0.0
C681 C 0.36213 0.60787 0.36295 0.0
H682 H 0.45494 0.60769 0.33046 0.0
C683 C 0.34295 0.64701 0.35542 0.0
C684 C 0.36447 0.67322 0.33933 0.0
H685 H 0.34577 0.5894 0.37612 0.0
H686 H 0.31215 0.65763 0.36299 0.0
C687 C 0.40451 0.65803 0.32998 0.0
C688 C 0.40535 0.17099 0.07965 0.0
C689 C 0.41311 0.12715 0.08669 0.0
H690 H 0.36286 0.22803 0.08204 0.0
C691 C 0.38106 0.10586 0.09995 0.0
H692 H 0.42931 0.18822 0.06935 0.0
C693 C 0.34377 0.12867 0.10728 0.0
C694 C 0.33702 0.17288 0.10112 0.0
H695 H 0.38573 0.07214 0.10566 0.0
H696 H 0.32088 0.11216 0.1185 0.0
C697 C 0.36725 0.19364 0.0867 0.0
C698 C 0.62437 0.592 0.86072 0.0
C699 C 0.58114 0.58421 0.85318 0.0
H700 H 0.68082 0.63427 0.85996 0.0
C701 C 0.5622 0.61289 0.8374 0.0
H702 H 0.63948 0.57033 0.87299 0.0
C703 C 0.58557 0.65047 0.83023 0.0
C704 C 0.62838 0.65918 0.83849 0.0
H705 H 0.52859 0.60771 0.83164 0.0
H706 H 0.56972 0.67321 0.81874 0.0
C707 C 0.64795 0.62874 0.85327 0.0
C708 C 0.13559 0.83007 0.58788 0.0
C709 C 0.16013 0.85088 0.60481 0.0
H710 H 0.07639 0.83152 0.56798 0.0
C711 C 0.14579 0.89165 0.61333 0.0
H712 H 0.14589 0.79827 0.58131 0.0
C713 C 0.10681 0.91088 0.60559 0.0
C714 C 0.08067 0.88916 0.58955 0.0
H715 H 0.1642 0.90816 0.62647 0.0
H716 H 0.09625 0.94187 0.61298 0.0
C717 C 0.09576 0.84889 0.58045 0.0
C718 C 0.88039 0.40719 0.36219 0.0
C719 C 0.92295 0.41576 0.3539 0.0
H720 H 0.82417 0.36454 0.36194 0.0
C721 C 0.9409 0.38795 0.33742 0.0
H722 H 0.866 0.4282 0.37497 0.0
C723 C 0.91729 0.35054 0.33025 0.0
C724 C 0.87511 0.34119 0.33915 0.0
H725 H 0.97397 0.39375 0.33102 0.0
H726 H 0.93239 0.3285 0.31816 0.0
C727 C 0.8565 0.37068 0.35471 0.0
C728 C 0.37033 0.83033 0.3874 0.0
C729 C 0.34647 0.85004 0.36988 0.0
H730 H 0.42886 0.8329 0.40777 0.0
C731 C 0.36148 0.89001 0.36069 0.0
H732 H 0.3595 0.79919 0.39454 0.0
C733 C 0.40034 0.90954 0.36838 0.0
C734 C 0.42572 0.88892 0.38509 0.0
H735 H 0.34359 0.90571 0.34712 0.0
H736 H 0.41142 0.93988 0.36051 0.0
C737 C 0.41006 0.84941 0.39479 0.0
C738 C 0.92282 0.6177 0.13704 0.0
C739 C 0.9051 0.59552 0.11846 0.0
H740 H 0.918 0.67428 0.15867 0.0
C741 C 0.86641 0.61168 0.10838 0.0
H742 H 0.95294 0.60599 0.1449 0.0
C743 C 0.84613 0.64993 0.11639 0.0
C744 C 0.86478 0.6735 0.13431 0.0
H745 H 0.85224 0.5951 0.09398 0.0
H746 H 0.81676 0.66195 0.10794 0.0
C747 C 0.90307 0.65683 0.14475 0.0
C748 C 0.13522 0.17219 0.88825 0.0
C749 C 0.15981 0.1516 0.87126 0.0
H750 H 0.07578 0.17072 0.90798 0.0
C751 C 0.14519 0.11118 0.86243 0.0
H752 H 0.14572 0.20372 0.89506 0.0
C753 C 0.10592 0.09212 0.8699 0.0
C754 C 0.07977 0.11364 0.88602 0.0
H755 H 0.16363 0.09484 0.84924 0.0
H756 H 0.09517 0.06142 0.86228 0.0
C757 C 0.09513 0.15353 0.89543 0.0
C758 C 0.62459 0.40962 0.61217 0.0
C759 C 0.58236 0.41893 0.62068 0.0
H760 H 0.6803 0.36633 0.6124 0.0
C761 C 0.56448 0.39182 0.63748 0.0
H762 H 0.63889 0.43007 0.59913 0.0
C763 C 0.58782 0.35436 0.64478 0.0
C764 C 0.62966 0.34428 0.6357 0.0
H765 H 0.53165 0.39818 0.64404 0.0
H766 H 0.57279 0.33288 0.65715 0.0
C767 C 0.64823 0.37306 0.61978 0.0
C768 C 0.22395 0.26306 0.22012 0.0
C769 C 0.26366 0.24181 0.21432 0.0
H770 H 0.18166 0.28543 0.24639 0.0
C771 C 0.29155 0.22618 0.23146 0.0
H772 H 0.20168 0.27544 0.20737 0.0
C773 C 0.28008 0.23186 0.25389 0.0
C774 C 0.24046 0.25331 0.25968 0.0
H775 H 0.32241 0.20957 0.22759 0.0
H776 H 0.30238 0.21959 0.26665 0.0
C777 C 0.21248 0.26873 0.24254 0.0
C778 C 0.96984 0.95993 0.49212 0.0
C779 C 0.98172 0.98853 0.50971 0.0
H780 H 0.96888 0.94869 0.45682 0.0
C781 C 0.00223 0.02902 0.50463 0.0
H782 H 0.95391 0.92847 0.49542 0.0
C783 C 0.01087 0.04056 0.48245 0.0
C784 C 0.9991 0.0119 0.46487 0.0
H785 H 0.01183 0.05179 0.51776 0.0
H786 H 0.02683 0.07201 0.47915 0.0
C787 C 0.97839 0.97151 0.46995 0.0
C788 C 0.2795 0.75207 0.72084 0.0
C789 C 0.23919 0.77293 0.71578 0.0
H790 H 0.32218 0.72685 0.74628 0.0
C791 C 0.21057 0.78476 0.73339 0.0
H792 H 0.30228 0.74248 0.7077 0.0
C793 C 0.22197 0.77584 0.75554 0.0
C794 C 0.2622 0.7548 0.76059 0.0
H795 H 0.17924 0.80095 0.7301 0.0
H796 H 0.19915 0.78534 0.76868 0.0
C797 C 0.29086 0.74306 0.743 0.0
C798 C 0.49068 0.97481 0.00475 0.0
C799 C 0.51186 0.01473 0.01024 0.0
H800 H 0.46818 0.93185 0.9788 0.0
C801 C 0.52719 0.0423 -0.0071 0.0
H802 H 0.47853 0.95278 0.01767 0.0
C803 C 0.5213 0.0303 0.97056 0.0
C804 C 0.49995 0.99047 0.96507 0.0
H805 H 0.54374 0.0733 -0.00347 0.0
H806 H 0.53335 0.05236 0.95763 0.0
C807 C 0.4848 0.96281 0.98241 0.0
C808 C 0.22233 0.74855 0.25561 0.0
C809 C 0.26356 0.76811 0.26011 0.0
H810 H 0.17859 0.72233 0.2309 0.0
C811 C 0.29272 0.77656 0.24224 0.0
H812 H 0.19911 0.74156 0.26897 0.0
C813 C 0.281 0.76548 0.22038 0.0
C814 C 0.23987 0.7457 0.21589 0.0
H815 H 0.32478 0.79161 0.24509 0.0
H816 H 0.30428 0.77237 0.20703 0.0
C817 C 0.21062 0.73747 0.23375 0.0
C818 C 0.53624 0.96141 0.48261 0.0
C819 C 0.5243 0.98984 0.46496 0.0
H820 H 0.53733 0.95047 0.51793 0.0
C821 C 0.50395 0.03043 0.46996 0.0
H822 H 0.55209 0.92989 0.47938 0.0
C823 C 0.49545 0.0422 0.49212 0.0
C824 C 0.50721 0.01367 0.50977 0.0
H825 H 0.49434 0.05309 0.45678 0.0
H826 H 0.47955 0.0737 0.49538 0.0
C827 C 0.52783 0.97321 0.50476 0.0
C828 C 0.28092 0.24989 0.75561 0.0
C829 C 0.24044 0.22934 0.76068 0.0
H830 H 0.32387 0.27466 0.73014 0.0
C831 C 0.21189 0.21742 0.74308 0.0
H832 H 0.30368 0.25949 0.76875 0.0
C833 C 0.22345 0.22605 0.72091 0.0
C834 C 0.26379 0.24688 0.71585 0.0
H835 H 0.18044 0.20142 0.74636 0.0
H836 H 0.20062 0.21656 0.70779 0.0
C837 C 0.29246 0.2586 0.73344 0.0
C838 C 0.00457 0.97216 0.96987 0.0
C839 C 0.98506 0.01338 0.96532 0.0
H840 H 0.03103 0.92862 -0.00539 0.0
C841 C 0.97692 0.04272 0.98314 0.0
H842 H 0.01134 0.9488 0.95655 0.0
C843 C 0.98827 0.0312 0.005 0.0
C844 C 0.00802 0.99009 0.00952 0.0
H845 H 0.96192 0.07478 0.98026 0.0
H846 H 0.98162 0.05461 0.01831 0.0
C847 C 0.01593 0.96064 -0.00828 0.0
C848 C 0.79345 0.7184 0.73312 0.0
C849 C 0.76501 0.73046 0.7155 0.0
H850 H 0.8045 0.71728 0.76843 0.0
C851 C 0.72456 0.7511 0.72055 0.0
H852 H 0.82487 0.70237 0.72984 0.0
C853 C 0.71293 0.7597 0.74271 0.0
C854 C 0.74145 0.74777 0.76033 0.0
H855 H 0.7019 0.76084 0.70739 0.0
H856 H 0.68153 0.77577 0.74599 0.0
C857 C 0.78178 0.72692 0.75529 0.0
C858 C 0.77931 0.24035 0.22078 0.0
C859 C 0.73972 0.26204 0.21519 0.0
H860 H 0.82152 0.21691 0.24683 0.0
C861 C 0.7119 0.27718 0.23247 0.0
H862 H 0.80151 0.2283 0.20791 0.0
C863 C 0.72337 0.2707 0.25484 0.0
C864 C 0.76291 0.2489 0.26042 0.0
H865 H 0.68113 0.29409 0.22877 0.0
H866 H 0.70116 0.28268 0.26772 0.0
C867 C 0.79077 0.23387 0.24314 0.0
C868 C 0.72365 0.25323 0.75488 0.0
C869 C 0.76412 0.27368 0.76005 0.0
H870 H 0.68083 0.22883 0.72929 0.0
C871 C 0.7928 0.28577 0.74252 0.0
H872 H 0.7008 0.2435 0.76796 0.0
C873 C 0.78136 0.27743 0.72031 0.0
C874 C 0.74103 0.25671 0.71514 0.0
H875 H 0.82424 0.30169 0.74589 0.0
H876 H 0.80428 0.28704 0.70724 0.0
C877 C 0.71224 0.2448 0.73267 0.0
C878 C 0.78199 0.75533 0.256 0.0
C879 C 0.74095 0.73527 0.26043 0.0
H880 H 0.8253 0.78281 0.23142 0.0
C881 C 0.71172 0.72721 0.24256 0.0
H882 H 0.80525 0.76206 0.26937 0.0
C883 C 0.72316 0.73918 0.22077 0.0
C884 C 0.76408 0.75947 0.21637 0.0
H885 H 0.6798 0.7118 0.24535 0.0
H886 H 0.69983 0.73256 0.20742 0.0
C887 C 0.79343 0.7673 0.23421 0.0
C888 C 0.51309 0.53028 0.00496 0.0
C889 C 0.49194 0.49049 0.01071 0.0
H890 H 0.53561 0.57262 0.97874 0.0
C891 C 0.47672 0.46245 -0.00645 0.0
H892 H 0.52516 0.55266 0.01774 0.0
C893 C 0.48266 0.47389 0.97113 0.0
C894 C 0.50396 0.51361 0.96538 0.0
H895 H 0.4602 0.43152 -0.00263 0.0
H896 H 0.47067 0.45148 0.95834 0.0
C897 C 0.51902 0.54172 0.98255 0.0
C898 C 0.02685 0.53127 0.4695 0.0
C899 C 0.00625 0.49073 0.46463 0.0
H900 H 0.0512 0.57487 0.49476 0.0
C901 C 0.99456 0.46237 0.48236 0.0
H902 H 0.03629 0.55387 0.45626 0.0
C903 C 0.00316 0.47437 0.50448 0.0
C904 C 0.02355 0.51501 0.50935 0.0
H905 H 0.97868 0.43082 0.47922 0.0
H906 H 0.99362 0.45181 0.51772 0.0
C907 C 0.03536 0.5433 0.49161 0.0
C908 C 0.01385 0.47341 0.00534 0.0
C909 C 0.99433 0.51473 0.00963 0.0
H910 H 0.03998 0.42912 0.98085 0.0
C911 C 0.98648 0.54377 -0.00834 0.0
H912 H 0.02044 0.45029 0.01879 0.0
C913 C 0.99773 0.53167 0.96986 0.0
C914 C 0.01708 0.49027 0.96556 0.0
H915 H 0.97153 0.57592 -0.00564 0.0
H916 H 0.99106 0.55475 0.95641 0.0
C917 C 0.0251 0.46131 0.98355 0.0
C918 C 0.49992 0.47258 0.47009 0.0
C919 C 0.47954 0.51309 0.46495 0.0
H920 H 0.52448 0.42973 0.49563 0.0
C921 C 0.46767 0.54178 0.48251 0.0
H922 H 0.50948 0.44972 0.45698 0.0
C923 C 0.4762 0.53033 0.5047 0.0
C924 C 0.4969 0.48998 0.50983 0.0
H925 H 0.4518 0.57325 0.47917 0.0
H926 H 0.46677 0.55327 0.51779 0.0
C927 C 0.50854 0.46116 0.49228 0.0
C928 C 0.39475 0.16264 0.37567 0.0
C929 C 0.36206 0.16132 0.35894 0.0
H930 H 0.44984 0.13008 0.39107 0.0
C931 C 0.36051 0.12451 0.34455 0.0
H932 H 0.39693 0.19046 0.38705 0.0
C933 C 0.39097 0.08987 0.34683 0.0
C934 C 0.42364 0.09119 0.36357 0.0
H935 H 0.33578 0.1224 0.33147 0.0
H936 H 0.38879 0.06201 0.33547 0.0
C937 C 0.42514 0.12797 0.37798 0.0
C938 C 0.08188 0.12738 0.59574 0.0
C939 C 0.08237 0.09137 0.61066 0.0
H940 H 0.11092 0.18928 0.58624 0.0
C941 C 0.11413 0.09078 0.62786 0.0
H942 H 0.05792 0.1289 0.58227 0.0
C943 C 0.14461 0.1254 0.6301 0.0
C944 C 0.14402 0.16149 0.61522 0.0
H945 H 0.11553 0.06353 0.63962 0.0
H946 H 0.16856 0.12389 0.64356 0.0
C947 C 0.11232 0.16204 0.598 0.0
C948 C 0.14475 0.87848 0.84595 0.0
C949 C 0.14171 0.84092 0.85979 0.0
H950 H 0.11791 0.94179 0.83722 0.0
C951 C 0.10782 0.83915 0.8759 0.0
H952 H 0.17042 0.88096 0.83334 0.0
C953 C 0.07772 0.87409 0.87814 0.0
C954 C 0.08069 0.9116 0.86427 0.0
H955 H 0.10448 0.81075 0.88684 0.0
H956 H 0.05207 0.87162 0.89075 0.0
C957 C 0.11456 0.91337 0.84814 0.0
C958 C 0.34378 0.86857 0.09692 0.0
C959 C 0.34367 0.83703 0.11422 0.0
H960 H 0.37787 0.92242 0.08118 0.0
C961 C 0.37951 0.83617 0.12925 0.0
H962 H 0.31669 0.87022 0.08507 0.0
C963 C 0.4146 0.8661 0.12702 0.0
C964 C 0.41471 0.89767 0.10973 0.0
H965 H 0.38052 0.81236 0.14279 0.0
H966 H 0.44163 0.86446 0.1389 0.0
C967 C 0.37888 0.89855 0.0947 0.0
C968 C 0.62699 0.83189 0.62964 0.0
C969 C 0.66306 0.83248 0.61475 0.0
H970 H 0.5651 0.86091 0.63917 0.0
C971 C 0.66379 0.86444 0.59764 0.0
H972 H 0.62537 0.80778 0.64304 0.0
C973 C 0.62923 0.89499 0.59545 0.0
C974 C 0.59308 0.89429 0.61029 0.0
H975 H 0.69109 0.86593 0.5859 0.0
H976 H 0.63085 0.91909 0.58205 0.0
C977 C 0.5924 0.8624 0.62743 0.0
C978 C 0.87516 0.8941 0.37973 0.0
C979 C 0.9128 0.89101 0.36594 0.0
H980 H 0.81182 0.86722 0.38845 0.0
C981 C 0.91472 0.85699 0.34992 0.0
H982 H 0.87257 0.91987 0.39227 0.0
C983 C 0.87983 0.82681 0.34771 0.0
C984 C 0.84222 0.82984 0.36153 0.0
H985 H 0.94319 0.85361 0.33903 0.0
H986 H 0.88241 0.80107 0.33517 0.0
C987 C 0.84032 0.86383 0.37757 0.0
C988 C 0.8573 0.13069 0.13079 0.0
C989 C 0.85842 0.16659 0.11579 0.0
H990 H 0.88522 0.06832 0.14036 0.0
C991 C 0.89004 0.1664 0.09852 0.0
H992 H 0.83337 0.12975 0.14429 0.0
C993 C 0.91977 0.13116 0.09627 0.0
C994 C 0.91865 0.09525 0.11125 0.0
H995 H 0.89187 0.19348 0.08667 0.0
H996 H 0.94363 0.13211 0.08274 0.0
C997 C 0.88707 0.09545 0.12855 0.0
C998 C 0.62783 0.10905 0.87994 0.0
C999 C 0.59126 0.11035 0.86539 0.0
H1000 H 0.69006 0.13762 0.88924 0.0
C1001 C 0.59016 0.14287 0.84856 0.0
H1002 H 0.62977 0.08446 0.8931 0.0
C1003 C 0.62478 0.17336 0.84634 0.0
C1004 C 0.66129 0.17214 0.86093 0.0
H1005 H 0.56252 0.14485 0.83706 0.0
H1006 H 0.62283 0.19794 0.83318 0.0
C1007 C 0.66241 0.1396 0.87775 0.0
C1008 C 0.85859 0.62371 0.84575 0.0
C1009 C 0.86162 0.66135 0.85953 0.0
H1010 H 0.88544 0.56035 0.83711 0.0
C1011 C 0.8955 0.66321 0.87563 0.0
H1012 H 0.83293 0.62117 0.83315 0.0
C1013 C 0.92559 0.62828 0.87792 0.0
C1014 C 0.92263 0.59069 0.86411 0.0
H1015 H 0.89882 0.69167 0.88653 0.0
H1016 H 0.95122 0.63082 0.89053 0.0
C1017 C 0.88878 0.58884 0.84799 0.0
C1018 C 0.65845 0.64002 0.09675 0.0
C1019 C 0.65954 0.67015 0.11468 0.0
H1020 H 0.62379 0.58701 0.08063 0.0
C1021 C 0.62491 0.6693 0.13043 0.0
H1022 H 0.68458 0.63971 0.08434 0.0
C1023 C 0.59006 0.63907 0.12831 0.0
C1024 C 0.58896 0.60892 0.1104 0.0
H1025 H 0.62468 0.69198 0.14446 0.0
H1026 H 0.56399 0.63936 0.14076 0.0
C1027 C 0.62357 0.60976 0.09464 0.0
C1028 C 0.64407 0.37697 0.34533 0.0
C1029 C 0.64211 0.34008 0.35967 0.0
H1030 H 0.61617 0.43958 0.33617 0.0
C1031 C 0.60911 0.33881 0.37626 0.0
H1032 H 0.66905 0.37905 0.33236 0.0
C1033 C 0.57879 0.37356 0.37846 0.0
C1034 C 0.58066 0.4104 0.36409 0.0
H1035 H 0.60662 0.31093 0.38759 0.0
H1036 H 0.55382 0.37148 0.39144 0.0
C1037 C 0.61367 0.41168 0.3475 0.0
C1038 C 0.9241 0.37687 0.59576 0.0
C1039 C 0.92285 0.41333 0.61039 0.0
H1040 H 0.89579 0.31451 0.5865 0.0
C1041 C 0.89046 0.41426 0.62729 0.0
H1042 H 0.94857 0.37508 0.58254 0.0
C1043 C 0.86009 0.37953 0.62953 0.0
C1044 C 0.86144 0.343 0.61495 0.0
H1045 H 0.88845 0.44187 0.63881 0.0
H1046 H 0.83562 0.38132 0.64276 0.0
C1047 C 0.89379 0.3421 0.59803 0.0
C1048 C 0.11681 0.4118 0.12835 0.0
C1049 C 0.08457 0.41166 0.11138 0.0
H1050 H 0.17101 0.37772 0.14376 0.0
C1051 C 0.0827 0.37534 0.09668 0.0
H1052 H 0.11924 0.43926 0.13994 0.0
C1053 C 0.11238 0.34005 0.09887 0.0
C1054 C 0.14469 0.34021 0.1158 0.0
H1055 H 0.05831 0.37411 0.08341 0.0
H1056 H 0.10997 0.31266 0.08724 0.0
C1057 C 0.14654 0.3765 0.13053 0.0
C1058 C 0.41382 0.35904 0.84951 0.0
C1059 C 0.41255 0.39179 0.86621 0.0
H1060 H 0.38126 0.30383 0.83421 0.0
C1061 C 0.37579 0.39333 0.88065 0.0
H1062 H 0.4416 0.35686 0.83809 0.0
C1063 C 0.34118 0.36281 0.87847 0.0
C1064 C 0.34246 0.33007 0.86175 0.0
H1065 H 0.37371 0.41811 0.89372 0.0
H1066 H 0.31337 0.36499 0.88986 0.0
C1067 C 0.37918 0.32858 0.84729 0.0
C1068 C 0.41269 0.64239 0.62754 0.0
C1069 C 0.41199 0.6106 0.61036 0.0
H1070 H 0.37977 0.69697 0.64322 0.0
C1071 C 0.37586 0.61004 0.59551 0.0
H1072 H 0.43996 0.64378 0.63928 0.0
C1073 C 0.34135 0.64064 0.59774 0.0
C1074 C 0.34209 0.67249 0.61489 0.0
H1075 H 0.37423 0.58602 0.58208 0.0
H1076 H 0.31406 0.63925 0.586 0.0
C1077 C 0.37813 0.67294 0.62979 0.0
C1078 C 0.12978 0.60711 0.37913 0.0
C1079 C 0.0919 0.61052 0.36555 0.0
H1080 H 0.19329 0.63374 0.38768 0.0
C1081 C 0.08975 0.64486 0.3497 0.0
H1082 H 0.13255 0.58109 0.39153 0.0
C1083 C 0.12465 0.67504 0.34747 0.0
C1084 C 0.16247 0.67171 0.3611 0.0
H1085 H 0.06109 0.6485 0.33897 0.0
H1086 H 0.12189 0.70105 0.33508 0.0
C1087 C 0.16461 0.63738 0.37696 0.0
loop_
_geom_bond_atom_site_label_1
_geom_bond_atom_site_label_2
_geom_bond_distance
_geom_bond_site_symmetry_2
_ccdc_geom_bond_type
Mg0 O1 2.028 . S
Mg0 O7 1.986 . S
Mg0 O9 2.114 . S
Mg0 O10 2.251 . S
Mg0 O13 2.010 . S
O1 Mg0 2.028 . S
O1 C4 1.250 . S
O2 Mg3 2.028 . S
O2 C4 1.248 . S
Mg3 O2 2.028 . S
Mg3 O8 2.032 . S
Mg3 O10 2.079 . S
C4 O1 1.250 . S
C4 O2 1.248 . S
C5 O6 1.264 . S
C5 O13 1.249 . S
O6 C5 1.264 . S
O7 Mg0 1.986 . S
O7 C11 1.246 . S
O8 Mg3 2.032 . S
O8 C11 1.259 . S
O9 Mg0 2.114 . S
O9 C12 1.252 . S
O10 Mg0 2.251 . S
O10 Mg3 2.079 . S
O10 C12 1.273 . S
C11 O7 1.246 . S
C11 O8 1.259 . S
C12 O9 1.252 . S
C12 O10 1.273 . S
O13 Mg0 2.010 . S
O13 C5 1.249 . S
Mg14 O15 2.028 . S
Mg14 O21 1.986 . S
Mg14 O23 2.114 1_455 S
Mg14 O24 2.251 1_455 S
Mg14 O27 2.010 1_565 S
O15 Mg14 2.028 . S
O15 C18 1.250 . S
O16 Mg17 2.028 1_455 S
O16 C18 1.248 . S
Mg17 O16 2.028 1_655 S
Mg17 O22 2.032 1_655 S
Mg17 O24 2.079 . S
C18 O15 1.250 . S
C18 O16 1.248 . S
C19 O20 1.264 . S
C19 O27 1.249 . S
O20 C19 1.264 . S
O21 Mg14 1.986 . S
O21 C25 1.246 . S
O22 Mg17 2.032 1_455 S
O22 C25 1.259 . S
O23 Mg14 2.114 1_655 S
O23 C26 1.252 . S
O24 Mg14 2.251 1_655 S
O24 Mg17 2.079 . S
O24 C26 1.273 . S
C25 O21 1.246 . S
C25 O22 1.259 . S
C26 O23 1.252 . S
C26 O24 1.273 . S
O27 Mg14 2.010 1_545 S
O27 C19 1.249 . S
Mg28 O29 2.028 . S
Mg28 O35 1.986 . S
Mg28 O37 2.114 . S
Mg28 O38 2.251 . S
Mg28 O41 2.010 . S
O29 Mg28 2.028 . S
O29 C32 1.250 . S
O30 Mg31 2.028 . S
O30 C32 1.248 . S
Mg31 O30 2.028 . S
Mg31 O36 2.032 . S
Mg31 O38 2.079 . S
C32 O29 1.250 . S
C32 O30 1.248 . S
C33 O34 1.264 . S
C33 O41 1.249 . S
O34 C33 1.264 . S
O35 Mg28 1.986 . S
O35 C39 1.246 . S
O36 Mg31 2.032 . S
O36 C39 1.259 . S
O37 Mg28 2.114 . S
O37 C40 1.252 . S
O38 Mg28 2.251 . S
O38 Mg31 2.079 . S
O38 C40 1.273 . S
C39 O35 1.246 . S
C39 O36 1.259 . S
C40 O37 1.252 . S
C40 O38 1.273 . S
O41 Mg28 2.010 . S
O41 C33 1.249 . S
Mg42 O43 2.028 . S
Mg42 O49 1.986 . S
Mg42 O51 2.114 . S
Mg42 O52 2.251 . S
Mg42 O55 2.010 1_545 S
O43 Mg42 2.028 . S
O43 C46 1.250 . S
O44 Mg45 2.028 . S
O44 C46 1.248 . S
Mg45 O44 2.028 . S
Mg45 O50 2.032 . S
Mg45 O52 2.079 . S
C46 O43 1.250 . S
C46 O44 1.248 . S
C47 O48 1.264 . S
C47 O55 1.249 . S
O48 C47 1.264 . S
O49 Mg42 1.986 . S
O49 C53 1.246 . S
O50 Mg45 2.032 . S
O50 C53 1.259 . S
O51 Mg42 2.114 . S
O51 C54 1.252 . S
O52 Mg42 2.251 . S
O52 Mg45 2.079 . S
O52 C54 1.273 . S
C53 O49 1.246 . S
C53 O50 1.259 . S
C54 O51 1.252 . S
C54 O52 1.273 . S
O55 Mg42 2.010 1_565 S
O55 C47 1.249 . S
Mg56 O57 2.028 . S
Mg56 O63 1.986 . S
Mg56 O65 2.114 . S
Mg56 O66 2.251 . S
Mg56 O69 2.010 . S
O57 Mg56 2.028 . S
O57 C60 1.250 . S
O58 Mg59 2.028 . S
O58 C60 1.248 . S
Mg59 O58 2.028 . S
Mg59 O64 2.032 . S
Mg59 O66 2.079 . S
C60 O57 1.250 . S
C60 O58 1.248 . S
C61 O62 1.264 . S
C61 O69 1.249 . S
O62 C61 1.264 . S
O63 Mg56 1.986 . S
O63 C67 1.246 . S
O64 Mg59 2.032 . S
O64 C67 1.259 . S
O65 Mg56 2.114 . S
O65 C68 1.252 . S
O66 Mg56 2.251 . S
O66 Mg59 2.079 . S
O66 C68 1.273 . S
C67 O63 1.246 . S
C67 O64 1.259 . S
C68 O65 1.252 . S
C68 O66 1.273 . S
O69 Mg56 2.010 . S
O69 C61 1.249 . S
Mg70 O71 2.028 . S
Mg70 O77 1.986 . S
Mg70 O79 2.114 . S
Mg70 O80 2.251 . S
Mg70 O83 2.010 1_565 S
O71 Mg70 2.028 . S
O71 C74 1.250 . S
O72 Mg73 2.028 . S
O72 C74 1.248 . S
Mg73 O72 2.028 . S
Mg73 O78 2.032 . S
Mg73 O80 2.079 . S
C74 O71 1.250 . S
C74 O72 1.248 . S
C75 O76 1.264 . S
C75 O83 1.249 . S
O76 C75 1.264 . S
O77 Mg70 1.986 . S
O77 C81 1.246 . S
O78 Mg73 2.032 . S
O78 C81 1.259 . S
O79 Mg70 2.114 . S
O79 C82 1.252 . S
O80 Mg70 2.251 . S
O80 Mg73 2.079 . S
O80 C82 1.273 . S
C81 O77 1.246 . S
C81 O78 1.259 . S
C82 O79 1.252 . S
C82 O80 1.273 . S
O83 Mg70 2.010 1_545 S
O83 C75 1.249 . S
Mg84 O85 2.028 . S
Mg84 O91 1.986 . S
Mg84 O93 2.114 . S
Mg84 O94 2.251 . S
Mg84 O97 2.010 . S
O85 Mg84 2.028 . S
O85 C88 1.250 . S
O86 Mg87 2.028 . S
O86 C88 1.248 . S
Mg87 O86 2.028 . S
Mg87 O92 2.032 . S
Mg87 O94 2.079 . S
C88 O85 1.250 . S
C88 O86 1.248 . S
C89 O90 1.264 . S
C89 O97 1.249 . S
O90 C89 1.264 . S
O91 Mg84 1.986 . S
O91 C95 1.246 . S
O92 Mg87 2.032 . S
O92 C95 1.259 . S
O93 Mg84 2.114 . S
O93 C96 1.252 . S
O94 Mg84 2.251 . S
O94 Mg87 2.079 . S
O94 C96 1.273 . S
C95 O91 1.246 . S
C95 O92 1.259 . S
C96 O93 1.252 . S
C96 O94 1.273 . S
O97 Mg84 2.010 . S
O97 C89 1.249 . S
Mg98 O99 2.028 . S
Mg98 O105 1.986 . S
Mg98 O107 2.114 1_455 S
Mg98 O108 2.251 1_455 S
Mg98 O111 2.010 1_545 S
O99 Mg98 2.028 . S
O99 C102 1.250 . S
O100 Mg101 2.028 1_455 S
O100 C102 1.248 . S
Mg101 O100 2.028 1_655 S
Mg101 O106 2.032 1_655 S
Mg101 O108 2.079 . S
C102 O99 1.250 . S
C102 O100 1.248 . S
C103 O104 1.264 . S
C103 O111 1.249 . S
O104 C103 1.264 . S
O105 Mg98 1.986 . S
O105 C109 1.246 . S
O106 Mg101 2.032 1_455 S
O106 C109 1.259 . S
O107 Mg98 2.114 1_655 S
O107 C110 1.252 . S
O108 Mg98 2.251 1_655 S
O108 Mg101 2.079 . S
O108 C110 1.273 . S
C109 O105 1.246 . S
C109 O106 1.259 . S
C110 O107 1.252 . S
C110 O108 1.273 . S
O111 Mg98 2.010 1_565 S
O111 C103 1.249 . S
Mg112 O113 2.028 . S
Mg112 O119 1.986 . S
Mg112 O121 2.114 . S
Mg112 O122 2.251 . S
Mg112 O125 2.010 . S
O113 Mg112 2.028 . S
O113 C116 1.250 . S
O114 Mg115 2.028 . S
O114 C116 1.248 . S
Mg115 O114 2.028 . S
Mg115 O120 2.032 . S
Mg115 O122 2.079 . S
C116 O113 1.250 . S
C116 O114 1.248 . S
C117 O118 1.264 . S
C117 O125 1.249 . S
O118 C117 1.264 . S
O119 Mg112 1.986 . S
O119 C123 1.246 . S
O120 Mg115 2.032 . S
O120 C123 1.259 . S
O121 Mg112 2.114 . S
O121 C124 1.252 . S
O122 Mg112 2.251 . S
O122 Mg115 2.079 . S
O122 C124 1.273 . S
C123 O119 1.246 . S
C123 O120 1.259 . S
C124 O121 1.252 . S
C124 O122 1.273 . S
O125 Mg112 2.010 . S
O125 C117 1.249 . S
Mg126 O127 2.028 . S
Mg126 O133 1.986 . S
Mg126 O135 2.114 1_655 S
Mg126 O136 2.251 1_655 S
Mg126 O139 2.010 1_545 S
O127 Mg126 2.028 . S
O127 C130 1.250 . S
O128 Mg129 2.028 1_655 S
O128 C130 1.248 . S
Mg129 O128 2.028 1_455 S
Mg129 O134 2.032 1_455 S
Mg129 O136 2.079 . S
C130 O127 1.250 . S
C130 O128 1.248 . S
C131 O132 1.264 . S
C131 O139 1.249 . S
O132 C131 1.264 . S
O133 Mg126 1.986 . S
O133 C137 1.246 . S
O134 Mg129 2.032 1_655 S
O134 C137 1.259 . S
O135 Mg126 2.114 1_455 S
O135 C138 1.252 . S
O136 Mg126 2.251 1_455 S
O136 Mg129 2.079 . S
O136 C138 1.273 . S
C137 O133 1.246 . S
C137 O134 1.259 . S
C138 O135 1.252 . S
C138 O136 1.273 . S
O139 Mg126 2.010 1_565 S
O139 C131 1.249 . S
Mg140 O141 2.028 . S
Mg140 O147 1.986 . S
Mg140 O149 2.114 . S
Mg140 O150 2.251 . S
Mg140 O153 2.010 . S
O141 Mg140 2.028 . S
O141 C144 1.250 . S
O142 Mg143 2.028 . S
O142 C144 1.248 . S
Mg143 O142 2.028 . S
Mg143 O148 2.032 . S
Mg143 O150 2.079 . S
C144 O141 1.250 . S
C144 O142 1.248 . S
C145 O146 1.264 . S
C145 O153 1.249 . S
O146 C145 1.264 . S
O147 Mg140 1.986 . S
O147 C151 1.246 . S
O148 Mg143 2.032 . S
O148 C151 1.259 . S
O149 Mg140 2.114 . S
O149 C152 1.252 . S
O150 Mg140 2.251 . S
O150 Mg143 2.079 . S
O150 C152 1.273 . S
C151 O147 1.246 . S
C151 O148 1.259 . S
C152 O149 1.252 . S
C152 O150 1.273 . S
O153 Mg140 2.010 . S
O153 C145 1.249 . S
Mg154 O155 2.028 . S
Mg154 O161 1.986 . S
Mg154 O163 2.114 . S
Mg154 O164 2.251 . S
Mg154 O167 2.010 1_565 S
O155 Mg154 2.028 . S
O155 C158 1.250 . S
O156 Mg157 2.028 . S
O156 C158 1.248 . S
Mg157 O156 2.028 . S
Mg157 O162 2.032 . S
Mg157 O164 2.079 . S
C158 O155 1.250 . S
C158 O156 1.248 . S
C159 O160 1.264 . S
C159 O167 1.249 . S
O160 C159 1.264 . S
O161 Mg154 1.986 . S
O161 C165 1.246 . S
O162 Mg157 2.032 . S
O162 C165 1.259 . S
O163 Mg154 2.114 . S
O163 C166 1.252 . S
O164 Mg154 2.251 . S
O164 Mg157 2.079 . S
O164 C166 1.273 . S
C165 O161 1.246 . S
C165 O162 1.259 . S
C166 O163 1.252 . S
C166 O164 1.273 . S
O167 Mg154 2.010 1_545 S
O167 C159 1.249 . S
Mg168 O169 2.028 . S
Mg168 O175 1.986 . S
Mg168 O177 2.114 . S
Mg168 O178 2.251 . S
Mg168 O181 2.010 . S
O169 Mg168 2.028 . S
O169 C172 1.250 . S
O170 Mg171 2.028 . S
O170 C172 1.248 . S
Mg171 O170 2.028 . S
Mg171 O176 2.032 . S
Mg171 O178 2.079 . S
C172 O169 1.250 . S
C172 O170 1.248 . S
C173 O174 1.264 . S
C173 O181 1.249 . S
O174 C173 1.264 . S
O175 Mg168 1.986 . S
O175 C179 1.246 . S
O176 Mg171 2.032 . S
O176 C179 1.259 . S
O177 Mg168 2.114 . S
O177 C180 1.252 . S
O178 Mg168 2.251 . S
O178 Mg171 2.079 . S
O178 C180 1.273 . S
C179 O175 1.246 . S
C179 O176 1.259 . S
C180 O177 1.252 . S
C180 O178 1.273 . S
O181 Mg168 2.010 . S
O181 C173 1.249 . S
Mg182 O183 2.028 . S
Mg182 O189 1.986 . S
Mg182 O191 2.114 . S
Mg182 O192 2.251 . S
Mg182 O195 2.010 1_545 S
O183 Mg182 2.028 . S
O183 C186 1.250 . S
O184 Mg185 2.028 . S
O184 C186 1.248 . S
Mg185 O184 2.028 . S
Mg185 O190 2.032 . S
Mg185 O192 2.079 . S
C186 O183 1.250 . S
C186 O184 1.248 . S
C187 O188 1.264 . S
C187 O195 1.249 . S
O188 C187 1.264 . S
O189 Mg182 1.986 . S
O189 C193 1.246 . S
O190 Mg185 2.032 . S
O190 C193 1.259 . S
O191 Mg182 2.114 . S
O191 C194 1.252 . S
O192 Mg182 2.251 . S
O192 Mg185 2.079 . S
O192 C194 1.273 . S
C193 O189 1.246 . S
C193 O190 1.259 . S
C194 O191 1.252 . S
C194 O192 1.273 . S
O195 Mg182 2.010 1_565 S
O195 C187 1.249 . S
Mg196 O197 2.028 . S
Mg196 O203 1.986 . S
Mg196 O205 2.114 . S
Mg196 O206 2.251 . S
Mg196 O209 2.010 . S
O197 Mg196 2.028 . S
O197 C200 1.250 . S
O198 Mg199 2.028 . S
O198 C200 1.248 . S
Mg199 O198 2.028 . S
Mg199 O204 2.032 . S
Mg199 O206 2.079 . S
C200 O197 1.250 . S
C200 O198 1.248 . S
C201 O202 1.264 . S
C201 O209 1.249 . S
O202 C201 1.264 . S
O203 Mg196 1.986 . S
O203 C207 1.246 . S
O204 Mg199 2.032 . S
O204 C207 1.259 . S
O205 Mg196 2.114 . S
O205 C208 1.252 . S
O206 Mg196 2.251 . S
O206 Mg199 2.079 . S
O206 C208 1.273 . S
C207 O203 1.246 . S
C207 O204 1.259 . S
C208 O205 1.252 . S
C208 O206 1.273 . S
O209 Mg196 2.010 . S
O209 C201 1.249 . S
Mg210 O211 2.028 . S
Mg210 O217 1.986 . S
Mg210 O219 2.114 1_655 S
Mg210 O220 2.251 1_655 S
Mg210 O223 2.010 1_565 S
O211 Mg210 2.028 . S
O211 C214 1.250 . S
O212 Mg213 2.028 1_655 S
O212 C214 1.248 . S
Mg213 O212 2.028 1_455 S
Mg213 O218 2.032 1_455 S
Mg213 O220 2.079 . S
C214 O211 1.250 . S
C214 O212 1.248 . S
C215 O216 1.264 . S
C215 O223 1.249 . S
O216 C215 1.264 . S
O217 Mg210 1.986 . S
O217 C221 1.246 . S
O218 Mg213 2.032 1_655 S
O218 C221 1.259 . S
O219 Mg210 2.114 1_455 S
O219 C222 1.252 . S
O220 Mg210 2.251 1_455 S
O220 Mg213 2.079 . S
O220 C222 1.273 . S
C221 O217 1.246 . S
C221 O218 1.259 . S
C222 O219 1.252 . S
C222 O220 1.273 . S
O223 Mg210 2.010 1_545 S
O223 C215 1.249 . S
Mg224 O225 2.028 . S
Mg224 O231 1.986 . S
Mg224 O233 2.114 . S
Mg224 O234 2.251 . S
Mg224 O237 2.010 . S
O225 Mg224 2.028 . S
O225 C228 1.250 . S
O226 Mg227 2.028 . S
O226 C228 1.248 . S
Mg227 O226 2.028 . S
Mg227 O232 2.032 . S
Mg227 O234 2.079 . S
C228 O225 1.250 . S
C228 O226 1.248 . S
C229 O230 1.264 . S
C229 O237 1.249 . S
O230 C229 1.264 . S
O231 Mg224 1.986 . S
O231 C235 1.246 . S
O232 Mg227 2.032 . S
O232 C235 1.259 . S
O233 Mg224 2.114 . S
O233 C236 1.252 . S
O234 Mg224 2.251 . S
O234 Mg227 2.079 . S
O234 C236 1.273 . S
C235 O231 1.246 . S
C235 O232 1.259 . S
C236 O233 1.252 . S
C236 O234 1.273 . S
O237 Mg224 2.010 . S
O237 C229 1.249 . S
Mg238 O239 2.028 . S
Mg238 O245 1.986 . S
Mg238 O247 2.114 . S
Mg238 O248 2.251 . S
Mg238 O251 2.010 . S
O239 Mg238 2.028 . S
O239 C242 1.250 . S
O240 Mg241 2.028 . S
O240 C242 1.248 . S
Mg241 O240 2.028 . S
Mg241 O246 2.032 . S
Mg241 O248 2.079 . S
C242 O239 1.250 . S
C242 O240 1.248 . S
C243 O244 1.264 . S
C243 O251 1.249 . S
O244 C243 1.264 . S
O245 Mg238 1.986 . S
O245 C249 1.246 . S
O246 Mg241 2.032 . S
O246 C249 1.259 . S
O247 Mg238 2.114 . S
O247 C250 1.252 . S
O248 Mg238 2.251 . S
O248 Mg241 2.079 . S
O248 C250 1.273 . S
C249 O245 1.246 . S
C249 O246 1.259 . S
C250 O247 1.252 . S
C250 O248 1.273 . S
O251 Mg238 2.010 . S
O251 C243 1.249 . S
Mg252 O253 2.028 . S
Mg252 O259 1.986 . S
Mg252 O261 2.114 . S
Mg252 O262 2.251 . S
Mg252 O265 2.010 . S
O253 Mg252 2.028 . S
O253 C256 1.250 . S
O254 Mg255 2.028 . S
O254 C256 1.248 . S
Mg255 O254 2.028 . S
Mg255 O260 2.032 . S
Mg255 O262 2.079 . S
C256 O253 1.250 . S
C256 O254 1.248 . S
C257 O258 1.264 . S
C257 O265 1.249 . S
O258 C257 1.264 . S
O259 Mg252 1.986 . S
O259 C263 1.246 . S
O260 Mg255 2.032 . S
O260 C263 1.259 . S
O261 Mg252 2.114 . S
O261 C264 1.252 . S
O262 Mg252 2.251 . S
O262 Mg255 2.079 . S
O262 C264 1.273 . S
C263 O259 1.246 . S
C263 O260 1.259 . S
C264 O261 1.252 . S
C264 O262 1.273 . S
O265 Mg252 2.010 . S
O265 C257 1.249 . S
Mg266 O267 2.028 . S
Mg266 O273 1.986 . S
Mg266 O275 2.114 1_655 S
Mg266 O276 2.251 1_655 S
Mg266 O279 2.010 . S
O267 Mg266 2.028 . S
O267 C270 1.250 . S
O268 Mg269 2.028 1_655 S
O268 C270 1.248 . S
Mg269 O268 2.028 1_455 S
Mg269 O274 2.032 1_455 S
Mg269 O276 2.079 . S
C270 O267 1.250 . S
C270 O268 1.248 . S
C271 O272 1.264 . S
C271 O279 1.249 . S
O272 C271 1.264 . S
O273 Mg266 1.986 . S
O273 C277 1.246 . S
O274 Mg269 2.032 1_655 S
O274 C277 1.259 . S
O275 Mg266 2.114 1_455 S
O275 C278 1.252 . S
O276 Mg266 2.251 1_455 S
O276 Mg269 2.079 . S
O276 C278 1.273 . S
C277 O273 1.246 . S
C277 O274 1.259 . S
C278 O275 1.252 . S
C278 O276 1.273 . S
O279 Mg266 2.010 . S
O279 C271 1.249 . S
Mg280 O281 2.028 . S
Mg280 O287 1.986 . S
Mg280 O289 2.114 . S
Mg280 O290 2.251 . S
Mg280 O293 2.010 . S
O281 Mg280 2.028 . S
O281 C284 1.250 . S
O282 Mg283 2.028 . S
O282 C284 1.248 . S
Mg283 O282 2.028 . S
Mg283 O288 2.032 . S
Mg283 O290 2.079 . S
C284 O281 1.250 . S
C284 O282 1.248 . S
C285 O286 1.264 . S
C285 O293 1.249 . S
O286 C285 1.264 . S
O287 Mg280 1.986 . S
O287 C291 1.246 . S
O288 Mg283 2.032 . S
O288 C291 1.259 . S
O289 Mg280 2.114 . S
O289 C292 1.252 . S
O290 Mg280 2.251 . S
O290 Mg283 2.079 . S
O290 C292 1.273 . S
C291 O287 1.246 . S
C291 O288 1.259 . S
C292 O289 1.252 . S
C292 O290 1.273 . S
O293 Mg280 2.010 . S
O293 C285 1.249 . S
Mg294 O295 2.028 . S
Mg294 O301 1.986 . S
Mg294 O303 2.114 1_655 S
Mg294 O304 2.251 1_655 S
Mg294 O307 2.010 . S
O295 Mg294 2.028 . S
O295 C298 1.250 . S
O296 Mg297 2.028 1_655 S
O296 C298 1.248 . S
Mg297 O296 2.028 1_455 S
Mg297 O302 2.032 1_455 S
Mg297 O304 2.079 . S
C298 O295 1.250 . S
C298 O296 1.248 . S
C299 O300 1.264 . S
C299 O307 1.249 . S
O300 C299 1.264 . S
O301 Mg294 1.986 . S
O301 C305 1.246 . S
O302 Mg297 2.032 1_655 S
O302 C305 1.259 . S
O303 Mg294 2.114 1_455 S
O303 C306 1.252 . S
O304 Mg294 2.251 1_455 S
O304 Mg297 2.079 . S
O304 C306 1.273 . S
C305 O301 1.246 . S
C305 O302 1.259 . S
C306 O303 1.252 . S
C306 O304 1.273 . S
O307 Mg294 2.010 . S
O307 C299 1.249 . S
Mg308 O309 2.028 . S
Mg308 O315 1.986 . S
Mg308 O317 2.114 . S
Mg308 O318 2.251 . S
Mg308 O321 2.010 . S
O309 Mg308 2.028 . S
O309 C312 1.250 . S
O310 Mg311 2.028 . S
O310 C312 1.248 . S
Mg311 O310 2.028 . S
Mg311 O316 2.032 . S
Mg311 O318 2.079 . S
C312 O309 1.250 . S
C312 O310 1.248 . S
C313 O314 1.264 . S
C313 O321 1.249 . S
O314 C313 1.264 . S
O315 Mg308 1.986 . S
O315 C319 1.246 . S
O316 Mg311 2.032 . S
O316 C319 1.259 . S
O317 Mg308 2.114 . S
O317 C320 1.252 . S
O318 Mg308 2.251 . S
O318 Mg311 2.079 . S
O318 C320 1.273 . S
C319 O315 1.246 . S
C319 O316 1.259 . S
C320 O317 1.252 . S
C320 O318 1.273 . S
O321 Mg308 2.010 . S
O321 C313 1.249 . S
Mg322 O323 2.028 . S
Mg322 O329 1.986 . S
Mg322 O331 2.114 . S
Mg322 O332 2.251 . S
Mg322 O335 2.010 . S
O323 Mg322 2.028 . S
O323 C326 1.250 . S
O324 Mg325 2.028 . S
O324 C326 1.248 . S
Mg325 O324 2.028 . S
Mg325 O330 2.032 . S
Mg325 O332 2.079 . S
C326 O323 1.250 . S
C326 O324 1.248 . S
C327 O328 1.264 . S
C327 O335 1.249 . S
O328 C327 1.264 . S
O329 Mg322 1.986 . S
O329 C333 1.246 . S
O330 Mg325 2.032 . S
O330 C333 1.259 . S
O331 Mg322 2.114 . S
O331 C334 1.252 . S
O332 Mg322 2.251 . S
O332 Mg325 2.079 . S
O332 C334 1.273 . S
C333 O329 1.246 . S
C333 O330 1.259 . S
C334 O331 1.252 . S
C334 O332 1.273 . S
O335 Mg322 2.010 . S
O335 C327 1.249 . S
Mg336 O337 2.028 . S
Mg336 O343 1.986 . S
Mg336 O345 2.114 . S
Mg336 O346 2.251 . S
Mg336 O349 2.010 . S
O337 Mg336 2.028 . S
O337 C340 1.250 . S
O338 Mg339 2.028 . S
O338 C340 1.248 . S
Mg339 O338 2.028 . S
Mg339 O344 2.032 . S
Mg339 O346 2.079 . S
C340 O337 1.250 . S
C340 O338 1.248 . S
C341 O342 1.264 . S
C341 O349 1.249 . S
O342 C341 1.264 . S
O343 Mg336 1.986 . S
O343 C347 1.246 . S
O344 Mg339 2.032 . S
O344 C347 1.259 . S
O345 Mg336 2.114 . S
O345 C348 1.252 . S
O346 Mg336 2.251 . S
O346 Mg339 2.079 . S
O346 C348 1.273 . S
C347 O343 1.246 . S
C347 O344 1.259 . S
C348 O345 1.252 . S
C348 O346 1.273 . S
O349 Mg336 2.010 . S
O349 C341 1.249 . S
Mg350 O351 2.028 . S
Mg350 O357 1.986 . S
Mg350 O359 2.114 . S
Mg350 O360 2.251 . S
Mg350 O363 2.010 . S
O351 Mg350 2.028 . S
O351 C354 1.250 . S
O352 Mg353 2.028 . S
O352 C354 1.248 . S
Mg353 O352 2.028 . S
Mg353 O358 2.032 . S
Mg353 O360 2.079 . S
C354 O351 1.250 . S
C354 O352 1.248 . S
C355 O356 1.264 . S
C355 O363 1.249 . S
O356 C355 1.264 . S
O357 Mg350 1.986 . S
O357 C361 1.246 . S
O358 Mg353 2.032 . S
O358 C361 1.259 . S
O359 Mg350 2.114 . S
O359 C362 1.252 . S
O360 Mg350 2.251 . S
O360 Mg353 2.079 . S
O360 C362 1.273 . S
C361 O357 1.246 . S
C361 O358 1.259 . S
C362 O359 1.252 . S
C362 O360 1.273 . S
O363 Mg350 2.010 . S
O363 C355 1.249 . S
Mg364 O365 2.028 . S
Mg364 O371 1.986 . S
Mg364 O373 2.114 . S
Mg364 O374 2.251 . S
Mg364 O377 2.010 . S
O365 Mg364 2.028 . S
O365 C368 1.250 . S
O366 Mg367 2.028 . S
O366 C368 1.248 . S
Mg367 O366 2.028 . S
Mg367 O372 2.032 . S
Mg367 O374 2.079 . S
C368 O365 1.250 . S
C368 O366 1.248 . S
C369 O370 1.264 . S
C369 O377 1.249 . S
O370 C369 1.264 . S
O371 Mg364 1.986 . S
O371 C375 1.246 . S
O372 Mg367 2.032 . S
O372 C375 1.259 . S
O373 Mg364 2.114 . S
O373 C376 1.252 . S
O374 Mg364 2.251 . S
O374 Mg367 2.079 . S
O374 C376 1.273 . S
C375 O371 1.246 . S
C375 O372 1.259 . S
C376 O373 1.252 . S
C376 O374 1.273 . S
O377 Mg364 2.010 . S
O377 C369 1.249 . S
Mg378 O379 2.028 . S
Mg378 O385 1.986 . S
Mg378 O387 2.114 1_455 S
Mg378 O388 2.251 1_455 S
Mg378 O391 2.010 . S
O379 Mg378 2.028 . S
O379 C382 1.250 . S
O380 Mg381 2.028 1_455 S
O380 C382 1.248 . S
Mg381 O380 2.028 1_655 S
Mg381 O386 2.032 1_655 S
Mg381 O388 2.079 . S
C382 O379 1.250 . S
C382 O380 1.248 . S
C383 O384 1.264 . S
C383 O391 1.249 . S
O384 C383 1.264 . S
O385 Mg378 1.986 . S
O385 C389 1.246 . S
O386 Mg381 2.032 1_455 S
O386 C389 1.259 . S
O387 Mg378 2.114 1_655 S
O387 C390 1.252 . S
O388 Mg378 2.251 1_655 S
O388 Mg381 2.079 . S
O388 C390 1.273 . S
C389 O385 1.246 . S
C389 O386 1.259 . S
C390 O387 1.252 . S
C390 O388 1.273 . S
O391 Mg378 2.010 . S
O391 C383 1.249 . S
Mg392 O393 2.028 . S
Mg392 O399 1.986 . S
Mg392 O401 2.114 . S
Mg392 O402 2.251 . S
Mg392 O405 2.010 . S
O393 Mg392 2.028 . S
O393 C396 1.250 . S
O394 Mg395 2.028 . S
O394 C396 1.248 . S
Mg395 O394 2.028 . S
Mg395 O400 2.032 . S
Mg395 O402 2.079 . S
C396 O393 1.250 . S
C396 O394 1.248 . S
C397 O398 1.264 . S
C397 O405 1.249 . S
O398 C397 1.264 . S
O399 Mg392 1.986 . S
O399 C403 1.246 . S
O400 Mg395 2.032 . S
O400 C403 1.259 . S
O401 Mg392 2.114 . S
O401 C404 1.252 . S
O402 Mg392 2.251 . S
O402 Mg395 2.079 . S
O402 C404 1.273 . S
C403 O399 1.246 . S
C403 O400 1.259 . S
C404 O401 1.252 . S
C404 O402 1.273 . S
O405 Mg392 2.010 . S
O405 C397 1.249 . S
Mg406 O407 2.028 . S
Mg406 O413 1.986 . S
Mg406 O415 2.114 1_455 S
Mg406 O416 2.251 1_455 S
Mg406 O419 2.010 . S
O407 Mg406 2.028 . S
O407 C410 1.250 . S
O408 Mg409 2.028 1_455 S
O408 C410 1.248 . S
Mg409 O408 2.028 1_655 S
Mg409 O414 2.032 1_655 S
Mg409 O416 2.079 . S
C410 O407 1.250 . S
C410 O408 1.248 . S
C411 O412 1.264 . S
C411 O419 1.249 . S
O412 C411 1.264 . S
O413 Mg406 1.986 . S
O413 C417 1.246 . S
O414 Mg409 2.032 1_455 S
O414 C417 1.259 . S
O415 Mg406 2.114 1_655 S
O415 C418 1.252 . S
O416 Mg406 2.251 1_655 S
O416 Mg409 2.079 . S
O416 C418 1.273 . S
C417 O413 1.246 . S
C417 O414 1.259 . S
C418 O415 1.252 . S
C418 O416 1.273 . S
O419 Mg406 2.010 . S
O419 C411 1.249 . S
Mg420 O421 2.028 . S
Mg420 O427 1.986 . S
Mg420 O429 2.114 . S
Mg420 O430 2.251 . S
Mg420 O433 2.010 . S
O421 Mg420 2.028 . S
O421 C424 1.250 . S
O422 Mg423 2.028 . S
O422 C424 1.248 . S
Mg423 O422 2.028 . S
Mg423 O428 2.032 . S
Mg423 O430 2.079 . S
C424 O421 1.250 . S
C424 O422 1.248 . S
C425 O426 1.264 . S
C425 O433 1.249 . S
O426 C425 1.264 . S
O427 Mg420 1.986 . S
O427 C431 1.246 . S
O428 Mg423 2.032 . S
O428 C431 1.259 . S
O429 Mg420 2.114 . S
O429 C432 1.252 . S
O430 Mg420 2.251 . S
O430 Mg423 2.079 . S
O430 C432 1.273 . S
C431 O427 1.246 . S
C431 O428 1.259 . S
C432 O429 1.252 . S
C432 O430 1.273 . S
O433 Mg420 2.010 . S
O433 C425 1.249 . S
Mg434 O435 2.028 . S
Mg434 O441 1.986 . S
Mg434 O443 2.114 . S
Mg434 O444 2.251 . S
Mg434 O447 2.010 . S
O435 Mg434 2.028 . S
O435 C438 1.250 . S
O436 Mg437 2.028 . S
O436 C438 1.248 . S
Mg437 O436 2.028 . S
Mg437 O442 2.032 . S
Mg437 O444 2.079 . S
C438 O435 1.250 . S
C438 O436 1.248 . S
C439 O440 1.264 . S
C439 O447 1.249 . S
O440 C439 1.264 . S
O441 Mg434 1.986 . S
O441 C445 1.246 . S
O442 Mg437 2.032 . S
O442 C445 1.259 . S
O443 Mg434 2.114 . S
O443 C446 1.252 . S
O444 Mg434 2.251 . S
O444 Mg437 2.079 . S
O444 C446 1.273 . S
C445 O441 1.246 . S
C445 O442 1.259 . S
C446 O443 1.252 . S
C446 O444 1.273 . S
O447 Mg434 2.010 . S
O447 C439 1.249 . S
C448 C449 1.387 . S
C448 H452 0.950 . S
C448 C457 1.390 . S
C449 C448 1.387 . S
C449 C451 1.387 . S
H450 C457 0.950 . S
C451 C449 1.387 . S
C451 C453 1.390 . S
C451 H455 0.950 . S
H452 C448 0.950 . S
C453 C451 1.390 . S
C453 C454 1.387 . S
C453 H456 0.950 . S
C454 C453 1.387 . S
C454 C457 1.387 . S
H455 C451 0.950 . S
H456 C453 0.950 . S
C457 C448 1.390 . S
C457 H450 0.950 . S
C457 C454 1.387 . S
C458 C459 1.387 . S
C458 H462 0.950 . S
C458 C467 1.390 . S
C459 C458 1.387 . S
C459 C461 1.387 . S
H460 C467 0.950 . S
C461 C459 1.387 . S
C461 C463 1.390 . S
C461 H465 0.950 . S
H462 C458 0.950 . S
C463 C461 1.390 . S
C463 C464 1.387 . S
C463 H466 0.950 . S
C464 C463 1.387 . S
C464 C467 1.387 . S
H465 C461 0.950 . S
H466 C463 0.950 . S
C467 C458 1.390 . S
C467 H460 0.950 . S
C467 C464 1.387 . S
C468 C469 1.387 . S
C468 H472 0.950 . S
C468 C477 1.390 . S
C469 C468 1.387 . S
C469 C471 1.387 . S
H470 C477 0.950 . S
C471 C469 1.387 . S
C471 C473 1.390 . S
C471 H475 0.950 . S
H472 C468 0.950 . S
C473 C471 1.390 . S
C473 C474 1.387 . S
C473 H476 0.950 . S
C474 C473 1.387 . S
C474 C477 1.387 . S
H475 C471 0.950 . S
H476 C473 0.950 . S
C477 C468 1.390 . S
C477 H470 0.950 . S
C477 C474 1.387 . S
C478 C479 1.387 . S
C478 H482 0.950 . S
C478 C487 1.390 . S
C479 C478 1.387 . S
C479 C481 1.387 . S
H480 C487 0.950 . S
C481 C479 1.387 . S
C481 C483 1.390 . S
C481 H485 0.950 . S
H482 C478 0.950 . S
C483 C481 1.390 . S
C483 C484 1.387 . S
C483 H486 0.950 . S
C484 C483 1.387 . S
C484 C487 1.387 . S
H485 C481 0.950 . S
H486 C483 0.950 . S
C487 C478 1.390 . S
C487 H480 0.950 . S
C487 C484 1.387 . S
C488 C489 1.387 . S
C488 H492 0.950 . S
C488 C497 1.390 . S
C489 C488 1.387 . S
C489 C491 1.387 . S
H490 C497 0.950 . S
C491 C489 1.387 . S
C491 C493 1.390 . S
C491 H495 0.950 . S
H492 C488 0.950 . S
C493 C491 1.390 . S
C493 C494 1.387 . S
C493 H496 0.950 . S
C494 C493 1.387 . S
C494 C497 1.387 . S
H495 C491 0.950 . S
H496 C493 0.950 . S
C497 C488 1.390 . S
C497 H490 0.950 . S
C497 C494 1.387 . S
C498 C499 1.387 . S
C498 H502 0.950 . S
C498 C507 1.390 . S
C499 C498 1.387 . S
C499 C501 1.387 . S
H500 C507 0.950 . S
C501 C499 1.387 . S
C501 C503 1.390 . S
C501 H505 0.950 . S
H502 C498 0.950 . S
C503 C501 1.390 . S
C503 C504 1.387 . S
C503 H506 0.950 . S
C504 C503 1.387 . S
C504 C507 1.387 . S
H505 C501 0.950 . S
H506 C503 0.950 . S
C507 C498 1.390 . S
C507 H500 0.950 . S
C507 C504 1.387 . S
C508 C509 1.387 . S
C508 H512 0.950 . S
C508 C517 1.390 . S
C509 C508 1.387 . S
C509 C511 1.387 . S
H510 C517 0.950 . S
C511 C509 1.387 . S
C511 C513 1.390 . S
C511 H515 0.950 . S
H512 C508 0.950 . S
C513 C511 1.390 . S
C513 C514 1.387 . S
C513 H516 0.950 . S
C514 C513 1.387 . S
C514 C517 1.387 . S
H515 C511 0.950 . S
H516 C513 0.950 . S
C517 C508 1.390 . S
C517 H510 0.950 . S
C517 C514 1.387 . S
C518 C519 1.387 . S
C518 H522 0.950 . S
C518 C527 1.390 . S
C519 C518 1.387 . S
C519 C521 1.387 . S
H520 C527 0.950 . S
C521 C519 1.387 . S
C521 C523 1.390 . S
C521 H525 0.950 . S
H522 C518 0.950 . S
C523 C521 1.390 . S
C523 C524 1.387 . S
C523 H526 0.950 . S
C524 C523 1.387 . S
C524 C527 1.387 . S
H525 C521 0.950 . S
H526 C523 0.950 . S
C527 C518 1.390 . S
C527 H520 0.950 . S
C527 C524 1.387 . S
C528 C529 1.387 . S
C528 H532 0.950 . S
C528 C537 1.390 . S
C529 C528 1.387 . S
C529 C531 1.387 . S
H530 C537 0.950 . S
C531 C529 1.387 . S
C531 C533 1.390 . S
C531 H535 0.950 . S
H532 C528 0.950 . S
C533 C531 1.390 . S
C533 C534 1.387 . S
C533 H536 0.950 . S
C534 C533 1.387 . S
C534 C537 1.387 . S
H535 C531 0.950 . S
H536 C533 0.950 . S
C537 C528 1.390 . S
C537 H530 0.950 . S
C537 C534 1.387 . S
C538 C539 1.387 . S
C538 H542 0.950 . S
C538 C547 1.390 . S
C539 C538 1.387 . S
C539 C541 1.387 . S
H540 C547 0.950 . S
C541 C539 1.387 . S
C541 C543 1.390 . S
C541 H545 0.950 . S
H542 C538 0.950 . S
C543 C541 1.390 . S
C543 C544 1.387 . S
C543 H546 0.950 . S
C544 C543 1.387 . S
C544 C547 1.387 . S
H545 C541 0.950 . S
H546 C543 0.950 . S
C547 C538 1.390 . S
C547 H540 0.950 . S
C547 C544 1.387 . S
C548 C549 1.387 . S
C548 H552 0.950 . S
C548 C557 1.390 . S
C549 C548 1.387 . S
C549 C551 1.387 . S
H550 C557 0.950 . S
C551 C549 1.387 . S
C551 C553 1.390 . S
C551 H555 0.950 . S
H552 C548 0.950 . S
C553 C551 1.390 . S
C553 C554 1.387 . S
C553 H556 0.950 . S
C554 C553 1.387 . S
C554 C557 1.387 . S
H555 C551 0.950 . S
H556 C553 0.950 . S
C557 C548 1.390 . S
C557 H550 0.950 . S
C557 C554 1.387 . S
C558 C559 1.387 . S
C558 H562 0.950 . S
C558 C567 1.390 . S
C559 C558 1.387 . S
C559 C561 1.387 . S
H560 C567 0.950 . S
C561 C559 1.387 . S
C561 C563 1.390 . S
C561 H565 0.950 . S
H562 C558 0.950 . S
C563 C561 1.390 . S
C563 C564 1.387 . S
C563 H566 0.950 . S
C564 C563 1.387 . S
C564 C567 1.387 . S
H565 C561 0.950 . S
H566 C563 0.950 . S
C567 C558 1.390 . S
C567 H560 0.950 . S
C567 C564 1.387 . S
C568 C569 1.387 . S
C568 H572 0.950 . S
C568 C577 1.390 . S
C569 C568 1.387 . S
C569 C571 1.387 . S
H570 C577 0.950 . S
C571 C569 1.387 . S
C571 C573 1.390 . S
C571 H575 0.950 . S
H572 C568 0.950 . S
C573 C571 1.390 . S
C573 C574 1.387 . S
C573 H576 0.950 . S
C574 C573 1.387 . S
C574 C577 1.387 . S
H575 C571 0.950 . S
H576 C573 0.950 . S
C577 C568 1.390 . S
C577 H570 0.950 . S
C577 C574 1.387 . S
C578 C579 1.387 . S
C578 H582 0.950 . S
C578 C587 1.390 . S
C579 C578 1.387 . S
C579 C581 1.387 . S
H580 C587 0.950 . S
C581 C579 1.387 . S
C581 C583 1.390 . S
C581 H585 0.950 . S
H582 C578 0.950 . S
C583 C581 1.390 . S
C583 C584 1.387 . S
C583 H586 0.950 . S
C584 C583 1.387 . S
C584 C587 1.387 . S
H585 C581 0.950 . S
H586 C583 0.950 . S
C587 C578 1.390 . S
C587 H580 0.950 . S
C587 C584 1.387 . S
C588 C589 1.387 . S
C588 H592 0.950 . S
C588 C597 1.390 . S
C589 C588 1.387 . S
C589 C591 1.387 . S
H590 C597 0.950 . S
C591 C589 1.387 . S
C591 C593 1.390 . S
C591 H595 0.950 . S
H592 C588 0.950 . S
C593 C591 1.390 . S
C593 C594 1.387 . S
C593 H596 0.950 . S
C594 C593 1.387 . S
C594 C597 1.387 . S
H595 C591 0.950 . S
H596 C593 0.950 . S
C597 C588 1.390 . S
C597 H590 0.950 . S
C597 C594 1.387 . S
C598 C599 1.387 . S
C598 H602 0.950 . S
C598 C607 1.390 . S
C599 C598 1.387 . S
C599 C601 1.387 . S
H600 C607 0.950 . S
C601 C599 1.387 . S
C601 C603 1.390 . S
C601 H605 0.950 . S
H602 C598 0.950 . S
C603 C601 1.390 . S
C603 C604 1.387 . S
C603 H606 0.950 . S
C604 C603 1.387 . S
C604 C607 1.387 . S
H605 C601 0.950 . S
H606 C603 0.950 . S
C607 C598 1.390 . S
C607 H600 0.950 . S
C607 C604 1.387 . S
C608 C609 1.387 . S
C608 H612 0.950 . S
C608 C617 1.390 . S
C609 C608 1.387 . S
C609 C611 1.387 . S
H610 C617 0.950 . S
C611 C609 1.387 . S
C611 C613 1.390 . S
C611 H615 0.950 . S
H612 C608 0.950 . S
C613 C611 1.390 . S
C613 C614 1.387 . S
C613 H616 0.950 . S
C614 C613 1.387 . S
C614 C617 1.387 . S
H615 C611 0.950 . S
H616 C613 0.950 . S
C617 C608 1.390 . S
C617 H610 0.950 . S
C617 C614 1.387 . S
C618 C619 1.387 . S
C618 H622 0.950 . S
C618 C627 1.390 . S
C619 C618 1.387 . S
C619 C621 1.387 . S
H620 C627 0.950 . S
C621 C619 1.387 . S
C621 C623 1.390 . S
C621 H625 0.950 . S
H622 C618 0.950 . S
C623 C621 1.390 . S
C623 C624 1.387 . S
C623 H626 0.950 . S
C624 C623 1.387 . S
C624 C627 1.387 . S
H625 C621 0.950 . S
H626 C623 0.950 . S
C627 C618 1.390 . S
C627 H620 0.950 . S
C627 C624 1.387 . S
C628 C629 1.387 . S
C628 H632 0.950 . S
C628 C637 1.390 . S
C629 C628 1.387 . S
C629 C631 1.387 . S
H630 C637 0.950 . S
C631 C629 1.387 . S
C631 C633 1.390 . S
C631 H635 0.950 . S
H632 C628 0.950 . S
C633 C631 1.390 . S
C633 C634 1.387 . S
C633 H636 0.950 . S
C634 C633 1.387 . S
C634 C637 1.387 . S
H635 C631 0.950 . S
H636 C633 0.950 . S
C637 C628 1.390 . S
C637 H630 0.950 . S
C637 C634 1.387 . S
C638 C639 1.387 . S
C638 H642 0.950 . S
C638 C647 1.390 . S
C639 C638 1.387 . S
C639 C641 1.387 . S
H640 C647 0.950 . S
C641 C639 1.387 . S
C641 C643 1.390 . S
C641 H645 0.950 . S
H642 C638 0.950 . S
C643 C641 1.390 . S
C643 C644 1.387 . S
C643 H646 0.950 . S
C644 C643 1.387 . S
C644 C647 1.387 . S
H645 C641 0.950 . S
H646 C643 0.950 . S
C647 C638 1.390 . S
C647 H640 0.950 . S
C647 C644 1.387 . S
C648 C649 1.387 . S
C648 H652 0.950 . S
C648 C657 1.390 . S
C649 C648 1.387 . S
C649 C651 1.387 . S
H650 C657 0.950 . S
C651 C649 1.387 . S
C651 C653 1.390 . S
C651 H655 0.950 . S
H652 C648 0.950 . S
C653 C651 1.390 . S
C653 C654 1.387 . S
C653 H656 0.950 . S
C654 C653 1.387 . S
C654 C657 1.387 . S
H655 C651 0.950 . S
H656 C653 0.950 . S
C657 C648 1.390 . S
C657 H650 0.950 . S
C657 C654 1.387 . S
C658 C659 1.387 . S
C658 H662 0.950 . S
C658 C667 1.390 . S
C659 C658 1.387 . S
C659 C661 1.387 . S
H660 C667 0.950 . S
C661 C659 1.387 . S
C661 C663 1.390 . S
C661 H665 0.950 . S
H662 C658 0.950 . S
C663 C661 1.390 . S
C663 C664 1.387 . S
C663 H666 0.950 . S
C664 C663 1.387 . S
C664 C667 1.387 . S
H665 C661 0.950 . S
H666 C663 0.950 . S
C667 C658 1.390 . S
C667 H660 0.950 . S
C667 C664 1.387 . S
C668 C669 1.387 . S
C668 H672 0.950 . S
C668 C677 1.390 . S
C669 C668 1.387 . S
C669 C671 1.387 . S
H670 C677 0.950 . S
C671 C669 1.387 . S
C671 C673 1.390 . S
C671 H675 0.950 . S
H672 C668 0.950 . S
C673 C671 1.390 . S
C673 C674 1.387 . S
C673 H676 0.950 . S
C674 C673 1.387 . S
C674 C677 1.387 . S
H675 C671 0.950 . S
H676 C673 0.950 . S
C677 C668 1.390 . S
C677 H670 0.950 . S
C677 C674 1.387 . S
C678 C679 1.387 . S
C678 H682 0.950 . S
C678 C687 1.390 . S
C679 C678 1.387 . S
C679 C681 1.387 . S
H680 C687 0.950 . S
C681 C679 1.387 . S
C681 C683 1.390 . S
C681 H685 0.950 . S
H682 C678 0.950 . S
C683 C681 1.390 . S
C683 C684 1.387 . S
C683 H686 0.950 . S
C684 C683 1.387 . S
C684 C687 1.387 . S
H685 C681 0.950 . S
H686 C683 0.950 . S
C687 C678 1.390 . S
C687 H680 0.950 . S
C687 C684 1.387 . S
C688 C689 1.387 . S
C688 H692 0.950 . S
C688 C697 1.390 . S
C689 C688 1.387 . S
C689 C691 1.387 . S
H690 C697 0.950 . S
C691 C689 1.387 . S
C691 C693 1.390 . S
C691 H695 0.950 . S
H692 C688 0.950 . S
C693 C691 1.390 . S
C693 C694 1.387 . S
C693 H696 0.950 . S
C694 C693 1.387 . S
C694 C697 1.387 . S
H695 C691 0.950 . S
H696 C693 0.950 . S
C697 C688 1.390 . S
C697 H690 0.950 . S
C697 C694 1.387 . S
C698 C699 1.387 . S
C698 H702 0.950 . S
C698 C707 1.390 . S
C699 C698 1.387 . S
C699 C701 1.387 . S
H700 C707 0.950 . S
C701 C699 1.387 . S
C701 C703 1.390 . S
C701 H705 0.950 . S
H702 C698 0.950 . S
C703 C701 1.390 . S
C703 C704 1.387 . S
C703 H706 0.950 . S
C704 C703 1.387 . S
C704 C707 1.387 . S
H705 C701 0.950 . S
H706 C703 0.950 . S
C707 C698 1.390 . S
C707 H700 0.950 . S
C707 C704 1.387 . S
C708 C709 1.387 . S
C708 H712 0.950 . S
C708 C717 1.390 . S
C709 C708 1.387 . S
C709 C711 1.387 . S
H710 C717 0.950 . S
C711 C709 1.387 . S
C711 C713 1.390 . S
C711 H715 0.950 . S
H712 C708 0.950 . S
C713 C711 1.390 . S
C713 C714 1.387 . S
C713 H716 0.950 . S
C714 C713 1.387 . S
C714 C717 1.387 . S
H715 C711 0.950 . S
H716 C713 0.950 . S
C717 C708 1.390 . S
C717 H710 0.950 . S
C717 C714 1.387 . S
C718 C719 1.387 . S
C718 H722 0.950 . S
C718 C727 1.390 . S
C719 C718 1.387 . S
C719 C721 1.387 . S
H720 C727 0.950 . S
C721 C719 1.387 . S
C721 C723 1.390 . S
C721 H725 0.950 . S
H722 C718 0.950 . S
C723 C721 1.390 . S
C723 C724 1.387 . S
C723 H726 0.950 . S
C724 C723 1.387 . S
C724 C727 1.387 . S
H725 C721 0.950 . S
H726 C723 0.950 . S
C727 C718 1.390 . S
C727 H720 0.950 . S
C727 C724 1.387 . S
C728 C729 1.387 . S
C728 H732 0.950 . S
C728 C737 1.390 . S
C729 C728 1.387 . S
C729 C731 1.387 . S
H730 C737 0.950 . S
C731 C729 1.387 . S
C731 C733 1.390 . S
C731 H735 0.950 . S
H732 C728 0.950 . S
C733 C731 1.390 . S
C733 C734 1.387 . S
C733 H736 0.950 . S
C734 C733 1.387 . S
C734 C737 1.387 . S
H735 C731 0.950 . S
H736 C733 0.950 . S
C737 C728 1.390 . S
C737 H730 0.950 . S
C737 C734 1.387 . S
C738 C739 1.387 . S
C738 H742 0.950 . S
C738 C747 1.390 . S
C739 C738 1.387 . S
C739 C741 1.387 . S
H740 C747 0.950 . S
C741 C739 1.387 . S
C741 C743 1.390 . S
C741 H745 0.950 . S
H742 C738 0.950 . S
C743 C741 1.390 . S
C743 C744 1.387 . S
C743 H746 0.950 . S
C744 C743 1.387 . S
C744 C747 1.387 . S
H745 C741 0.950 . S
H746 C743 0.950 . S
C747 C738 1.390 . S
C747 H740 0.950 . S
C747 C744 1.387 . S
C748 C749 1.387 . S
C748 H752 0.950 . S
C748 C757 1.390 . S
C749 C748 1.387 . S
C749 C751 1.387 . S
H750 C757 0.950 . S
C751 C749 1.387 . S
C751 C753 1.390 . S
C751 H755 0.950 . S
H752 C748 0.950 . S
C753 C751 1.390 . S
C753 C754 1.387 . S
C753 H756 0.950 . S
C754 C753 1.387 . S
C754 C757 1.387 . S
H755 C751 0.950 . S
H756 C753 0.950 . S
C757 C748 1.390 . S
C757 H750 0.950 . S
C757 C754 1.387 . S
C758 C759 1.387 . S
C758 H762 0.950 . S
C758 C767 1.390 . S
C759 C758 1.387 . S
C759 C761 1.387 . S
H760 C767 0.950 . S
C761 C759 1.387 . S
C761 C763 1.390 . S
C761 H765 0.950 . S
H762 C758 0.950 . S
C763 C761 1.390 . S
C763 C764 1.387 . S
C763 H766 0.950 . S
C764 C763 1.387 . S
C764 C767 1.387 . S
H765 C761 0.950 . S
H766 C763 0.950 . S
C767 C758 1.390 . S
C767 H760 0.950 . S
C767 C764 1.387 . S
C768 C769 1.387 . S
C768 H772 0.950 . S
C768 C777 1.390 . S
C769 C768 1.387 . S
C769 C771 1.387 . S
H770 C777 0.950 . S
C771 C769 1.387 . S
C771 C773 1.390 . S
C771 H775 0.950 . S
H772 C768 0.950 . S
C773 C771 1.390 . S
C773 C774 1.387 . S
C773 H776 0.950 . S
C774 C773 1.387 . S
C774 C777 1.387 . S
H775 C771 0.950 . S
H776 C773 0.950 . S
C777 C768 1.390 . S
C777 H770 0.950 . S
C777 C774 1.387 . S
C778 C779 1.387 . S
C778 H782 0.950 . S
C778 C787 1.390 . S
C779 C778 1.387 . S
C779 C781 1.387 1_465 S
H780 C787 0.950 . S
C781 C779 1.387 1_645 S
C781 C783 1.390 . S
C781 H785 0.950 . S
H782 C778 0.950 . S
C783 C781 1.390 . S
C783 C784 1.387 . S
C783 H786 0.950 . S
C784 C783 1.387 . S
C784 C787 1.387 1_645 S
H785 C781 0.950 . S
H786 C783 0.950 . S
C787 C778 1.390 . S
C787 H780 0.950 . S
C787 C784 1.387 1_465 S
C788 C789 1.387 . S
C788 H792 0.950 . S
C788 C797 1.390 . S
C789 C788 1.387 . S
C789 C791 1.387 . S
H790 C797 0.950 . S
C791 C789 1.387 . S
C791 C793 1.390 . S
C791 H795 0.950 . S
H792 C788 0.950 . S
C793 C791 1.390 . S
C793 C794 1.387 . S
C793 H796 0.950 . S
C794 C793 1.387 . S
C794 C797 1.387 . S
H795 C791 0.950 . S
H796 C793 0.950 . S
C797 C788 1.390 . S
C797 H790 0.950 . S
C797 C794 1.387 . S
C798 C799 1.387 1_565 S
C798 H802 0.950 . S
C798 C807 1.390 1_554 S
C799 C798 1.387 1_545 S
C799 C801 1.387 . S
H800 C807 0.950 . S
C801 C799 1.387 . S
C801 C803 1.390 1_554 S
C801 H805 0.950 . S
H802 C798 0.950 . S
C803 C801 1.390 1_556 S
C803 C804 1.387 1_545 S
C803 H806 0.950 . S
C804 C803 1.387 1_565 S
C804 C807 1.387 . S
H805 C801 0.950 . S
H806 C803 0.950 . S
C807 C798 1.390 1_556 S
C807 H800 0.950 . S
C807 C804 1.387 . S
C808 C809 1.387 . S
C808 H812 0.950 . S
C808 C817 1.390 . S
C809 C808 1.387 . S
C809 C811 1.387 . S
H810 C817 0.950 . S
C811 C809 1.387 . S
C811 C813 1.390 . S
C811 H815 0.950 . S
H812 C808 0.950 . S
C813 C811 1.390 . S
C813 C814 1.387 . S
C813 H816 0.950 . S
C814 C813 1.387 . S
C814 C817 1.387 . S
H815 C811 0.950 . S
H816 C813 0.950 . S
C817 C808 1.390 . S
C817 H810 0.950 . S
C817 C814 1.387 . S
C818 C819 1.387 . S
C818 H822 0.950 . S
C818 C827 1.390 . S
C819 C818 1.387 . S
C819 C821 1.387 1_565 S
H820 C827 0.950 . S
C821 C819 1.387 1_545 S
C821 C823 1.390 . S
C821 H825 0.950 . S
H822 C818 0.950 . S
C823 C821 1.390 . S
C823 C824 1.387 . S
C823 H826 0.950 . S
C824 C823 1.387 . S
C824 C827 1.387 1_545 S
H825 C821 0.950 . S
H826 C823 0.950 . S
C827 C818 1.390 . S
C827 H820 0.950 . S
C827 C824 1.387 1_565 S
C828 C829 1.387 . S
C828 H832 0.950 . S
C828 C837 1.390 . S
C829 C828 1.387 . S
C829 C831 1.387 . S
H830 C837 0.950 . S
C831 C829 1.387 . S
C831 C833 1.390 . S
C831 H835 0.950 . S
H832 C828 0.950 . S
C833 C831 1.390 . S
C833 C834 1.387 . S
C833 H836 0.950 . S
C834 C833 1.387 . S
C834 C837 1.387 . S
H835 C831 0.950 . S
H836 C833 0.950 . S
C837 C828 1.390 . S
C837 H830 0.950 . S
C837 C834 1.387 . S
C838 C839 1.387 1_565 S
C838 H842 0.950 . S
C838 C847 1.390 1_556 S
C839 C838 1.387 1_545 S
C839 C841 1.387 1_455 S
H840 C847 0.950 . S
C841 C839 1.387 1_655 S
C841 C843 1.390 1_556 S
C841 H845 0.950 . S
H842 C838 0.950 . S
C843 C841 1.390 1_554 S
C843 C844 1.387 1_545 S
C843 H846 0.950 . S
C844 C843 1.387 1_565 S
C844 C847 1.387 1_655 S
H845 C841 0.950 . S
H846 C843 0.950 . S
C847 C838 1.390 1_554 S
C847 H840 0.950 . S
C847 C844 1.387 1_455 S
C848 C849 1.387 . S
C848 H852 0.950 . S
C848 C857 1.390 . S
C849 C848 1.387 . S
C849 C851 1.387 . S
H850 C857 0.950 . S
C851 C849 1.387 . S
C851 C853 1.390 . S
C851 H855 0.950 . S
H852 C848 0.950 . S
C853 C851 1.390 . S
C853 C854 1.387 . S
C853 H856 0.950 . S
C854 C853 1.387 . S
C854 C857 1.387 . S
H855 C851 0.950 . S
H856 C853 0.950 . S
C857 C848 1.390 . S
C857 H850 0.950 . S
C857 C854 1.387 . S
C858 C859 1.387 . S
C858 H862 0.950 . S
C858 C867 1.390 . S
C859 C858 1.387 . S
C859 C861 1.387 . S
H860 C867 0.950 . S
C861 C859 1.387 . S
C861 C863 1.390 . S
C861 H865 0.950 . S
H862 C858 0.950 . S
C863 C861 1.390 . S
C863 C864 1.387 . S
C863 H866 0.950 . S
C864 C863 1.387 . S
C864 C867 1.387 . S
H865 C861 0.950 . S
H866 C863 0.950 . S
C867 C858 1.390 . S
C867 H860 0.950 . S
C867 C864 1.387 . S
C868 C869 1.387 . S
C868 H872 0.950 . S
C868 C877 1.390 . S
C869 C868 1.387 . S
C869 C871 1.387 . S
H870 C877 0.950 . S
C871 C869 1.387 . S
C871 C873 1.390 . S
C871 H875 0.950 . S
H872 C868 0.950 . S
C873 C871 1.390 . S
C873 C874 1.387 . S
C873 H876 0.950 . S
C874 C873 1.387 . S
C874 C877 1.387 . S
H875 C871 0.950 . S
H876 C873 0.950 . S
C877 C868 1.390 . S
C877 H870 0.950 . S
C877 C874 1.387 . S
C878 C879 1.387 . S
C878 H882 0.950 . S
C878 C887 1.390 . S
C879 C878 1.387 . S
C879 C881 1.387 . S
H880 C887 0.950 . S
C881 C879 1.387 . S
C881 C883 1.390 . S
C881 H885 0.950 . S
H882 C878 0.950 . S
C883 C881 1.390 . S
C883 C884 1.387 . S
C883 H886 0.950 . S
C884 C883 1.387 . S
C884 C887 1.387 . S
H885 C881 0.950 . S
H886 C883 0.950 . S
C887 C878 1.390 . S
C887 H880 0.950 . S
C887 C884 1.387 . S
C888 C889 1.387 . S
C888 H892 0.950 . S
C888 C897 1.390 1_554 S
C889 C888 1.387 . S
C889 C891 1.387 . S
H890 C897 0.950 . S
C891 C889 1.387 . S
C891 C893 1.390 1_554 S
C891 H895 0.950 . S
H892 C888 0.950 . S
C893 C891 1.390 1_556 S
C893 C894 1.387 . S
C893 H896 0.950 . S
C894 C893 1.387 . S
C894 C897 1.387 . S
H895 C891 0.950 . S
H896 C893 0.950 . S
C897 C888 1.390 1_556 S
C897 H890 0.950 . S
C897 C894 1.387 . S
C898 C899 1.393 . S
C898 H902 0.950 . S
C898 C907 1.385 1_455 S
C899 C898 1.393 . S
C899 C901 1.387 . S
H900 C907 0.950 . S
C901 C899 1.387 . S
C901 C903 1.385 1_455 S
C901 H905 0.950 . S
H902 C898 0.950 . S
C903 C901 1.385 1_655 S
C903 C904 1.393 . S
C903 H906 0.950 . S
C904 C903 1.393 . S
C904 C907 1.387 . S
H905 C901 0.950 . S
H906 C903 0.950 . S
C907 C898 1.385 1_655 S
C907 H900 0.950 . S
C907 C904 1.387 . S
C908 C909 1.387 . S
C908 H912 0.950 . S
C908 C917 1.390 1_554 S
C909 C908 1.387 . S
C909 C911 1.387 1_455 S
H910 C917 0.950 . S
C911 C909 1.387 1_655 S
C911 C913 1.390 1_554 S
C911 H915 0.950 . S
H912 C908 0.950 . S
C913 C911 1.390 1_556 S
C913 C914 1.387 . S
C913 H916 0.950 . S
C914 C913 1.387 . S
C914 C917 1.387 1_655 S
H915 C911 0.950 . S
H916 C913 0.950 . S
C917 C908 1.390 1_556 S
C917 H910 0.950 . S
C917 C914 1.387 1_455 S
C918 C919 1.387 . S
C918 H922 0.950 . S
C918 C927 1.390 . S
C919 C918 1.387 . S
C919 C921 1.387 . S
H920 C927 0.950 . S
C921 C919 1.387 . S
C921 C923 1.390 . S
C921 H925 0.950 . S
H922 C918 0.950 . S
C923 C921 1.390 . S
C923 C924 1.387 . S
C923 H926 0.950 . S
C924 C923 1.387 . S
C924 C927 1.387 . S
H925 C921 0.950 . S
H926 C923 0.950 . S
C927 C918 1.390 . S
C927 H920 0.950 . S
C927 C924 1.387 . S
C928 C929 1.387 . S
C928 H932 0.950 . S
C928 C937 1.390 . S
C929 C928 1.387 . S
C929 C931 1.387 . S
H930 C937 0.950 . S
C931 C929 1.387 . S
C931 C933 1.390 . S
C931 H935 0.950 . S
H932 C928 0.950 . S
C933 C931 1.390 . S
C933 C934 1.387 . S
C933 H936 0.950 . S
C934 C933 1.387 . S
C934 C937 1.387 . S
H935 C931 0.950 . S
H936 C933 0.950 . S
C937 C928 1.390 . S
C937 H930 0.950 . S
C937 C934 1.387 . S
C938 C939 1.387 . S
C938 H942 0.950 . S
C938 C947 1.390 . S
C939 C938 1.387 . S
C939 C941 1.387 . S
H940 C947 0.950 . S
C941 C939 1.387 . S
C941 C943 1.390 . S
C941 H945 0.950 . S
H942 C938 0.950 . S
C943 C941 1.390 . S
C943 C944 1.387 . S
C943 H946 0.950 . S
C944 C943 1.387 . S
C944 C947 1.387 . S
H945 C941 0.950 . S
H946 C943 0.950 . S
C947 C938 1.390 . S
C947 H940 0.950 . S
C947 C944 1.387 . S
C948 C949 1.387 . S
C948 H952 0.950 . S
C948 C957 1.390 . S
C949 C948 1.387 . S
C949 C951 1.387 . S
H950 C957 0.950 . S
C951 C949 1.387 . S
C951 C953 1.390 . S
C951 H955 0.950 . S
H952 C948 0.950 . S
C953 C951 1.390 . S
C953 C954 1.387 . S
C953 H956 0.950 . S
C954 C953 1.387 . S
C954 C957 1.387 . S
H955 C951 0.950 . S
H956 C953 0.950 . S
C957 C948 1.390 . S
C957 H950 0.950 . S
C957 C954 1.387 . S
C958 C959 1.387 . S
C958 H962 0.950 . S
C958 C967 1.390 . S
C959 C958 1.387 . S
C959 C961 1.387 . S
H960 C967 0.950 . S
C961 C959 1.387 . S
C961 C963 1.390 . S
C961 H965 0.950 . S
H962 C958 0.950 . S
C963 C961 1.390 . S
C963 C964 1.387 . S
C963 H966 0.950 . S
C964 C963 1.387 . S
C964 C967 1.387 . S
H965 C961 0.950 . S
H966 C963 0.950 . S
C967 C958 1.390 . S
C967 H960 0.950 . S
C967 C964 1.387 . S
C968 C969 1.387 . S
C968 H972 0.950 . S
C968 C977 1.390 . S
C969 C968 1.387 . S
C969 C971 1.387 . S
H970 C977 0.950 . S
C971 C969 1.387 . S
C971 C973 1.390 . S
C971 H975 0.950 . S
H972 C968 0.950 . S
C973 C971 1.390 . S
C973 C974 1.387 . S
C973 H976 0.950 . S
C974 C973 1.387 . S
C974 C977 1.387 . S
H975 C971 0.950 . S
H976 C973 0.950 . S
C977 C968 1.390 . S
C977 H970 0.950 . S
C977 C974 1.387 . S
C978 C979 1.387 . S
C978 H982 0.950 . S
C978 C987 1.390 . S
C979 C978 1.387 . S
C979 C981 1.387 . S
H980 C987 0.950 . S
C981 C979 1.387 . S
C981 C983 1.390 . S
C981 H985 0.950 . S
H982 C978 0.950 . S
C983 C981 1.390 . S
C983 C984 1.387 . S
C983 H986 0.950 . S
C984 C983 1.387 . S
C984 C987 1.387 . S
H985 C981 0.950 . S
H986 C983 0.950 . S
C987 C978 1.390 . S
C987 H980 0.950 . S
C987 C984 1.387 . S
C988 C989 1.387 . S
C988 H992 0.950 . S
C988 C997 1.390 . S
C989 C988 1.387 . S
C989 C991 1.387 . S
H990 C997 0.950 . S
C991 C989 1.387 . S
C991 C993 1.390 . S
C991 H995 0.950 . S
H992 C988 0.950 . S
C993 C991 1.390 . S
C993 C994 1.387 . S
C993 H996 0.950 . S
C994 C993 1.387 . S
C994 C997 1.387 . S
H995 C991 0.950 . S
H996 C993 0.950 . S
C997 C988 1.390 . S
C997 H990 0.950 . S
C997 C994 1.387 . S
C998 C999 1.387 . S
C998 H1002 0.950 . S
C998 C1007 1.390 . S
C999 C998 1.387 . S
C999 C1001 1.387 . S
H1000 C1007 0.950 . S
C1001 C999 1.387 . S
C1001 C1003 1.390 . S
C1001 H1005 0.950 . S
H1002 C998 0.950 . S
C1003 C1001 1.390 . S
C1003 C1004 1.387 . S
C1003 H1006 0.950 . S
C1004 C1003 1.387 . S
C1004 C1007 1.387 . S
H1005 C1001 0.950 . S
H1006 C1003 0.950 . S
C1007 C998 1.390 . S
C1007 H1000 0.950 . S
C1007 C1004 1.387 . S
C1008 C1009 1.387 . S
C1008 H1012 0.950 . S
C1008 C1017 1.390 . S
C1009 C1008 1.387 . S
C1009 C1011 1.387 . S
H1010 C1017 0.950 . S
C1011 C1009 1.387 . S
C1011 C1013 1.390 . S
C1011 H1015 0.950 . S
H1012 C1008 0.950 . S
C1013 C1011 1.390 . S
C1013 C1014 1.387 . S
C1013 H1016 0.950 . S
C1014 C1013 1.387 . S
C1014 C1017 1.387 . S
H1015 C1011 0.950 . S
H1016 C1013 0.950 . S
C1017 C1008 1.390 . S
C1017 H1010 0.950 . S
C1017 C1014 1.387 . S
C1018 C1019 1.387 . S
C1018 H1022 0.950 . S
C1018 C1027 1.390 . S
C1019 C1018 1.387 . S
C1019 C1021 1.387 . S
H1020 C1027 0.950 . S
C1021 C1019 1.387 . S
C1021 C1023 1.390 . S
C1021 H1025 0.950 . S
H1022 C1018 0.950 . S
C1023 C1021 1.390 . S
C1023 C1024 1.387 . S
C1023 H1026 0.950 . S
C1024 C1023 1.387 . S
C1024 C1027 1.387 . S
H1025 C1021 0.950 . S
H1026 C1023 0.950 . S
C1027 C1018 1.390 . S
C1027 H1020 0.950 . S
C1027 C1024 1.387 . S
C1028 C1029 1.387 . S
C1028 H1032 0.950 . S
C1028 C1037 1.390 . S
C1029 C1028 1.387 . S
C1029 C1031 1.387 . S
H1030 C1037 0.950 . S
C1031 C1029 1.387 . S
C1031 C1033 1.390 . S
C1031 H1035 0.950 . S
H1032 C1028 0.950 . S
C1033 C1031 1.390 . S
C1033 C1034 1.387 . S
C1033 H1036 0.950 . S
C1034 C1033 1.387 . S
C1034 C1037 1.387 . S
H1035 C1031 0.950 . S
H1036 C1033 0.950 . S
C1037 C1028 1.390 . S
C1037 H1030 0.950 . S
C1037 C1034 1.387 . S
C1038 C1039 1.387 . S
C1038 H1042 0.950 . S
C1038 C1047 1.390 . S
C1039 C1038 1.387 . S
C1039 C1041 1.387 . S
H1040 C1047 0.950 . S
C1041 C1039 1.387 . S
C1041 C1043 1.390 . S
C1041 H1045 0.950 . S
H1042 C1038 0.950 . S
C1043 C1041 1.390 . S
C1043 C1044 1.387 . S
C1043 H1046 0.950 . S
C1044 C1043 1.387 . S
C1044 C1047 1.387 . S
H1045 C1041 0.950 . S
H1046 C1043 0.950 . S
C1047 C1038 1.390 . S
C1047 H1040 0.950 . S
C1047 C1044 1.387 . S
C1048 C1049 1.387 . S
C1048 H1052 0.950 . S
C1048 C1057 1.390 . S
C1049 C1048 1.387 . S
C1049 C1051 1.387 . S
H1050 C1057 0.950 . S
C1051 C1049 1.387 . S
C1051 C1053 1.390 . S
C1051 H1055 0.950 . S
H1052 C1048 0.950 . S
C1053 C1051 1.390 . S
C1053 C1054 1.387 . S
C1053 H1056 0.950 . S
C1054 C1053 1.387 . S
C1054 C1057 1.387 . S
H1055 C1051 0.950 . S
H1056 C1053 0.950 . S
C1057 C1048 1.390 . S
C1057 H1050 0.950 . S
C1057 C1054 1.387 . S
C1058 C1059 1.387 . S
C1058 H1062 0.950 . S
C1058 C1067 1.390 . S
C1059 C1058 1.387 . S
C1059 C1061 1.387 . S
H1060 C1067 0.950 . S
C1061 C1059 1.387 . S
C1061 C1063 1.390 . S
C1061 H1065 0.950 . S
H1062 C1058 0.950 . S
C1063 C1061 1.390 . S
C1063 C1064 1.387 . S
C1063 H1066 0.950 . S
C1064 C1063 1.387 . S
C1064 C1067 1.387 . S
H1065 C1061 0.950 . S
H1066 C1063 0.950 . S
C1067 C1058 1.390 . S
C1067 H1060 0.950 . S
C1067 C1064 1.387 . S
C1068 C1069 1.387 . S
C1068 H1072 0.950 . S
C1068 C1077 1.390 . S
C1069 C1068 1.387 . S
C1069 C1071 1.387 . S
H1070 C1077 0.950 . S
C1071 C1069 1.387 . S
C1071 C1073 1.390 . S
C1071 H1075 0.950 . S
H1072 C1068 0.950 . S
C1073 C1071 1.390 . S
C1073 C1074 1.387 . S
C1073 H1076 0.950 . S
C1074 C1073 1.387 . S
C1074 C1077 1.387 . S
H1075 C1071 0.950 . S
H1076 C1073 0.950 . S
C1077 C1068 1.390 . S
C1077 H1070 0.950 . S
C1077 C1074 1.387 . S
C1078 C1079 1.387 . S
C1078 H1082 0.950 . S
C1078 C1087 1.390 . S
C1079 C1078 1.387 . S
C1079 C1081 1.387 . S
H1080 C1087 0.950 . S
C1081 C1079 1.387 . S
C1081 C1083 1.390 . S
C1081 H1085 0.950 . S
H1082 C1078 0.950 . S
C1083 C1081 1.390 . S
C1083 C1084 1.387 . S
C1083 H1086 0.950 . S
C1084 C1083 1.387 . S
C1084 C1087 1.387 . S
H1085 C1081 0.950 . S
H1086 C1083 0.950 . S
C1087 C1078 1.390 . S
C1087 H1080 0.950 . S
C1087 C1084 1.387 . S
C449 C382 1.492 . S
C454 C12 1.459 . S
C459 C26 1.459 . S
C464 C116 1.492 . S
C469 C354 1.492 . S
C474 C40 1.459 . S
C479 C54 1.458 . S
C484 C144 1.492 . S
C489 C68 1.459 . S
C494 C410 1.492 . S
C499 C82 1.456 . S
C504 C200 1.494 . S
C509 C96 1.459 . S
C514 C438 1.492 . S
C519 C110 1.459 . S
C524 C172 1.492 . S
C529 C270 1.493 . S
C534 C124 1.456 . S
C539 C4 1.493 . S
C544 C138 1.456 . S
C549 C242 1.493 . S
C554 C152 1.456 . S
C559 C166 1.459 . S
C564 C32 1.492 . S
C569 C298 1.494 . S
C574 C180 1.456 . S
C579 C88 1.494 . S
C584 C194 1.456 . S
C589 C208 1.456 . S
C594 C326 1.493 . S
C599 C60 1.494 . S
C604 C222 1.456 . S
C609 C236 1.456 . S
C614 C158 1.493 . S
C619 C250 1.457 . S
C624 C340 1.493 . S
C629 C130 1.493 . S
C634 C264 1.456 . S
C639 C368 1.492 . S
C644 C278 1.458 . S
C649 C186 1.493 . S
C654 C292 1.456 . S
C659 C424 1.494 . S
C664 C306 1.456 . S
C669 C214 1.492 . S
C674 C320 1.459 . S
C679 C334 1.456 . S
C684 C396 1.494 . S
C689 C46 1.492 . S
C694 C348 1.459 . S
C699 C362 1.456 . S
C704 C228 1.494 . S
C709 C376 1.459 . S
C714 C18 1.492 . S
C719 C390 1.456 . S
C724 C256 1.493 . S
C729 C404 1.459 . S
C734 C74 1.492 . S
C739 C418 1.459 . S
C744 C312 1.492 . S
C749 C432 1.459 . S
C754 C102 1.492 . S
C759 C446 1.456 . S
C764 C284 1.494 . S
C769 C347 1.504 . S
C774 C11 1.504 . S
C779 C25 1.505 . S
C784 C137 1.505 . S
C789 C375 1.504 . S
C794 C39 1.504 . S
C799 C53 1.503 . S
C804 C165 1.503 . S
C809 C403 1.503 . S
C814 C67 1.503 . S
C819 C81 1.505 . S
C824 C193 1.505 . S
C829 C431 1.503 . S
C834 C95 1.503 . S
C839 C109 1.503 . S
C844 C221 1.503 . S
C849 C123 1.505 . S
C854 C235 1.505 . S
C859 C151 1.505 . S
C864 C263 1.505 . S
C869 C179 1.504 . S
C874 C291 1.504 . S
C879 C207 1.505 . S
C884 C319 1.505 . S
C889 C249 1.503 . S
C894 C361 1.503 . S
C899 C389 1.505 . S
C904 C277 1.505 . S
C909 C417 1.504 . S
C914 C305 1.504 . S
C919 C333 1.503 . S
C924 C445 1.503 . S
C929 C5 1.059 . S
C934 C75 1.066 . S
C939 C19 1.066 . S
C944 C89 1.060 . S
C949 C33 1.066 . S
C954 C103 1.060 . S
C959 C61 1.059 . S
C964 C47 1.066 . S
C969 C117 1.059 . S
C974 C187 1.066 . S
C979 C131 1.060 . S
C984 C201 1.066 . S
C989 C145 1.059 . S
C994 C215 1.066 . S
C999 C159 1.059 . S
C1004 C173 1.066 . S
C1009 C229 1.066 . S
C1014 C299 1.060 . S
C1019 C313 1.059 . S
C1024 C243 1.066 . S
C1029 C257 1.066 . S
C1034 C327 1.059 . S
C1039 C271 1.066 . S
C1044 C285 1.059 . S
C1049 C411 1.066 . S
C1054 C341 1.059 . S
C1059 C355 1.066 . S
C1064 C425 1.060 . S
C1069 C439 1.066 . S
C1074 C369 1.059 . S
C1079 C383 1.060 . S
C1084 C397 1.063 . S
