# Generated by pormake.
# Topology whw, (6)-cn, num edge types: 1
# Building blocks:
#     Node 0, Type 0, BuildingBlock: BETDAH_clean_sbu_0, # of connection points: 6
#     Node 1, Type 0, BuildingBlock: BETDAH_clean_sbu_0, # of connection points: 6
#     Node 2, Type 0, BuildingBlock: BETDAH_clean_sbu_0, # of connection points: 6
#     Node 3, Type 0, BuildingBlock: BETDAH_clean_sbu_0, # of connection points: 6
#     Node 4, Type 0, BuildingBlock: BETDAH_clean_sbu_0, # of connection points: 6
#     Node 5, Type 0, BuildingBlock: BETDAH_clean_sbu_0, # of connection points: 6
#     Node 6, Type 0, BuildingBlock: BETDAH_clean_sbu_0, # of connection points: 6
#     Node 7, Type 0, BuildingBlock: BETDAH_clean_sbu_0, # of connection points: 6
#     Node 8, Type 0, BuildingBlock: BETDAH_clean_sbu_0, # of connection points: 6
#     Node 9, Type 0, BuildingBlock: BETDAH_clean_sbu_0, # of connection points: 6
#     Node 10, Type 0, BuildingBlock: BETDAH_clean_sbu_0, # of connection points: 6
#     Node 11, Type 0, BuildingBlock: BETDAH_clean_sbu_0, # of connection points: 6
#     Node 12, Type 0, BuildingBlock: BETDAH_clean_sbu_0, # of connection points: 6
#     Node 13, Type 0, BuildingBlock: BETDAH_clean_sbu_0, # of connection points: 6
#     Node 14, Type 0, BuildingBlock: BETDAH_clean_sbu_0, # of connection points: 6
#     Node 15, Type 0, BuildingBlock: BETDAH_clean_sbu_0, # of connection points: 6
#     Edge 16, Type (0, 0), BuildingBlock: CIFDUS_clean_linker_0, # of connection points: 2
#     Edge 17, Type (0, 0), BuildingBlock: CIFDUS_clean_linker_0, # of connection points: 2
#     Edge 18, Type (0, 0), BuildingBlock: CIFDUS_clean_linker_0, # of connection points: 2
#     Edge 19, Type (0, 0), BuildingBlock: CIFDUS_clean_linker_0, # of connection points: 2
#     Edge 20, Type (0, 0), BuildingBlock: CIFDUS_clean_linker_0, # of connection points: 2
#     Edge 21, Type (0, 0), BuildingBlock: CIFDUS_clean_linker_0, # of connection points: 2
#     Edge 22, Type (0, 0), BuildingBlock: CIFDUS_clean_linker_0, # of connection points: 2
#     Edge 23, Type (0, 0), BuildingBlock: CIFDUS_clean_linker_0, # of connection points: 2
#     Edge 24, Type (0, 0), BuildingBlock: CIFDUS_clean_linker_0, # of connection points: 2
#     Edge 25, Type (0, 0), BuildingBlock: CIFDUS_clean_linker_0, # of connection points: 2
#     Edge 26, Type (0, 0), BuildingBlock: CIFDUS_clean_linker_0, # of connection points: 2
#     Edge 27, Type (0, 0), BuildingBlock: CIFDUS_clean_linker_0, # of connection points: 2
#     Edge 28, Type (0, 0), BuildingBlock: CIFDUS_clean_linker_0, # of connection points: 2
#     Edge 29, Type (0, 0), BuildingBlock: CIFDUS_clean_linker_0, # of connection points: 2
#     Edge 30, Type (0, 0), BuildingBlock: CIFDUS_clean_linker_0, # of connection points: 2
#     Edge 31, Type (0, 0), BuildingBlock: CIFDUS_clean_linker_0, # of connection points: 2
#     Edge 32, Type (0, 0), BuildingBlock: CIFDUS_clean_linker_0, # of connection points: 2
#     Edge 33, Type (0, 0), BuildingBlock: CIFDUS_clean_linker_0, # of connection points: 2
#     Edge 34, Type (0, 0), BuildingBlock: CIFDUS_clean_linker_0, # of connection points: 2
#     Edge 35, Type (0, 0), BuildingBlock: CIFDUS_clean_linker_0, # of connection points: 2
#     Edge 36, Type (0, 0), BuildingBlock: CIFDUS_clean_linker_0, # of connection points: 2
#     Edge 37, Type (0, 0), BuildingBlock: CIFDUS_clean_linker_0, # of connection points: 2
#     Edge 38, Type (0, 0), BuildingBlock: CIFDUS_clean_linker_0, # of connection points: 2
#     Edge 39, Type (0, 0), BuildingBlock: CIFDUS_clean_linker_0, # of connection points: 2
#     Edge 40, Type (0, 0), BuildingBlock: CIFDUS_clean_linker_0, # of connection points: 2
#     Edge 41, Type (0, 0), BuildingBlock: CIFDUS_clean_linker_0, # of connection points: 2
#     Edge 42, Type (0, 0), BuildingBlock: CIFDUS_clean_linker_0, # of connection points: 2
#     Edge 43, Type (0, 0), BuildingBlock: CIFDUS_clean_linker_0, # of connection points: 2
#     Edge 44, Type (0, 0), BuildingBlock: CIFDUS_clean_linker_0, # of connection points: 2
#     Edge 45, Type (0, 0), BuildingBlock: CIFDUS_clean_linker_0, # of connection points: 2
#     Edge 46, Type (0, 0), BuildingBlock: CIFDUS_clean_linker_0, # of connection points: 2
#     Edge 47, Type (0, 0), BuildingBlock: CIFDUS_clean_linker_0, # of connection points: 2
#     Edge 48, Type (0, 0), BuildingBlock: CIFDUS_clean_linker_0, # of connection points: 2
#     Edge 49, Type (0, 0), BuildingBlock: CIFDUS_clean_linker_0, # of connection points: 2
#     Edge 50, Type (0, 0), BuildingBlock: CIFDUS_clean_linker_0, # of connection points: 2
#     Edge 51, Type (0, 0), BuildingBlock: CIFDUS_clean_linker_0, # of connection points: 2
#     Edge 52, Type (0, 0), BuildingBlock: CIFDUS_clean_linker_0, # of connection points: 2
#     Edge 53, Type (0, 0), BuildingBlock: CIFDUS_clean_linker_0, # of connection points: 2
#     Edge 54, Type (0, 0), BuildingBlock: CIFDUS_clean_linker_0, # of connection points: 2
#     Edge 55, Type (0, 0), BuildingBlock: CIFDUS_clean_linker_0, # of connection points: 2
#     Edge 56, Type (0, 0), BuildingBlock: CIFDUS_clean_linker_0, # of connection points: 2
#     Edge 57, Type (0, 0), BuildingBlock: CIFDUS_clean_linker_0, # of connection points: 2
#     Edge 58, Type (0, 0), BuildingBlock: CIFDUS_clean_linker_0, # of connection points: 2
#     Edge 59, Type (0, 0), BuildingBlock: CIFDUS_clean_linker_0, # of connection points: 2
#     Edge 60, Type (0, 0), BuildingBlock: CIFDUS_clean_linker_0, # of connection points: 2
#     Edge 61, Type (0, 0), BuildingBlock: CIFDUS_clean_linker_0, # of connection points: 2
#     Edge 62, Type (0, 0), BuildingBlock: CIFDUS_clean_linker_0, # of connection points: 2
#     Edge 63, Type (0, 0), BuildingBlock: CIFDUS_clean_linker_0, # of connection points: 2
# Relax obj value: 0.359
# Max RMSD: 0.246
# Mean RMSD: 0.213
data_MOF--net-whw--node1-BETDAH_clean_sbu_0--edge1-CIFDUS_clean_linker_0
_symmetry_space_group_name_H-M    P1
_symmetry_Int_Tables_number       1
_symmetry_cell_setting            triclinic
loop_
_symmetry_equiv_pos_as_xyz
'x, y, z'
_cell_length_a     40.093224
_cell_length_b     40.177082
_cell_length_c     31.054591
_cell_angle_alpha  89.820669
_cell_angle_beta   96.881545
_cell_angle_gamma 93.974713
loop_
_atom_site_label
_atom_site_type_symbol
_atom_site_fract_x
_atom_site_fract_y
_atom_site_fract_z
_atom_type_partial_charge
Ho0 Ho 0.07798 0.13665 0.15845 0.0
Ho1 Ho 0.00369 0.13713 0.1699 0.0
C2 C 0.0239 0.16975 0.08221 0.0
C3 C 0.1324 0.1179 0.13263 0.0
C4 C 0.13935 0.10023 0.09365 0.0
C5 C 0.11962 0.07135 0.07866 0.0
C6 C 0.12231 0.0582 1.03787 0.0
C7 C 0.14476 0.07373 1.01143 0.0
C8 C 0.16645 0.10092 1.02797 0.0
C9 C 0.16371 0.1141 0.06882 0.0
C10 C 0.06426 0.18922 0.20334 0.0
C11 C 0.0601 0.12935 0.25709 0.0
C12 C 0.94612 0.13621 0.19814 0.0
C13 C 0.94026 0.13953 0.24383 0.0
C14 C 0.92251 0.16579 0.25715 0.0
C15 C 0.92155 0.17176 0.30137 0.0
C16 C 0.93853 0.15165 0.33284 0.0
C17 C 0.9557 0.12508 0.31918 0.0
C18 C 0.95636 0.11895 0.27536 0.0
C19 C 0.02024 0.08783 0.11942 0.0
O20 O 0.05285 0.15495 0.09203 0.0
O21 O 0.00175 0.17027 0.11072 0.0
O22 O 0.12234 0.14811 0.12625 0.0
O23 O 0.11509 0.10039 0.15911 0.0
O24 O 0.09432 0.17876 0.20537 0.0
O25 O 0.04526 0.17514 0.17239 0.0
O26 O 0.02836 0.13263 0.24041 0.0
O27 O 0.084 0.12658 0.23135 0.0
O28 O 0.96006 0.10906 0.18866 0.0
O29 O 0.95942 0.16293 0.18072 0.0
O30 O 0.99362 0.10414 0.11122 0.0
O31 O 0.03664 0.09752 0.15507 0.0
H32 H 0.10094 0.05985 0.09744 0.0
H33 H 0.1055 0.03706 1.02599 0.0
H34 H 0.18373 0.11363 1.0081 0.0
H35 H 0.17926 0.13626 0.07993 0.0
H36 H 0.91025 0.18221 0.23345 0.0
H37 H 0.90778 0.19224 0.31087 0.0
H38 H 0.96965 0.10951 0.34238 0.0
H39 H 0.97074 0.09874 0.26644 0.0
Ho40 Ho 0.17385 0.79312 0.45598 0.0
Ho41 Ho 0.1687 0.7257 0.41186 0.0
C42 C 0.17363 0.72593 0.51263 0.0
C43 C 0.17022 0.8443 0.5053 0.0
C44 C 0.15433 0.85122 0.54424 0.0
C45 C 0.13232 0.82714 0.56075 0.0
C46 C 0.11618 0.83451 0.59669 0.0
C47 C 0.12156 0.86622 0.61657 0.0
C48 C 0.14405 0.89009 0.60014 0.0
C49 C 0.16028 0.88262 0.56427 0.0
C50 C 0.23072 0.77532 0.42578 0.0
C51 C 0.1591 0.7939 0.35412 0.0
C52 C 0.1742 0.67545 0.36198 0.0
C53 C 0.15798 0.66543 0.31825 0.0
C54 C 0.15809 0.68746 0.28303 0.0
C55 C 0.13993 0.67874 0.24293 0.0
C56 C 0.12132 0.64775 0.23712 0.0
C57 C 0.12187 0.62545 0.27216 0.0
C58 C 0.14004 0.63421 0.31228 0.0
C59 C 0.10978 0.74317 0.43637 0.0
O60 O 0.16282 0.75615 0.50761 0.0
O61 O 0.1849 0.71058 0.48027 0.0
O62 O 0.19502 0.82459 0.51037 0.0
O63 O 0.14945 0.83732 0.47025 0.0
O64 O 0.22106 0.80541 0.42466 0.0
O65 O 0.21088 0.75655 0.44509 0.0
O66 O 0.16444 0.76165 0.35505 0.0
O67 O 0.15796 0.81124 0.38978 0.0
O68 O 0.15413 0.67466 0.39216 0.0
O69 O 0.19526 0.70197 0.36487 0.0
O70 O 0.11859 0.71286 0.43509 0.0
O71 O 0.13144 0.76251 0.42091 0.0
H72 H 0.12731 0.8028 0.54554 0.0
H73 H 0.09948 0.81534 0.60891 0.0
H74 H 0.1485 0.91483 0.61432 0.0
H75 H 0.1771 0.90154 0.55175 0.0
H76 H 0.1717 0.71168 0.28664 0.0
H77 H 0.13983 0.69665 0.21677 0.0
H78 H 0.10825 0.60118 0.2686 0.0
H79 H 0.13958 0.61679 0.33896 0.0
Ho80 Ho 0.48965 0.87537 0.70842 0.0
Ho81 Ho 0.52712 0.8555 0.62122 0.0
C82 C 0.56734 0.90532 0.69318 0.0
C83 C 0.47978 0.87795 0.79118 0.0
C84 C 0.47055 0.86115 0.83311 0.0
C85 C 0.48783 0.83437 0.85254 0.0
C86 C 0.4816 0.8216 0.89381 0.0
C87 C 0.45828 0.83537 0.9185 0.0
C88 C 0.4412 0.86236 0.8992 0.0
C89 C 0.4471 0.8748 0.85754 0.0
C90 C 0.48027 0.91352 0.6352 0.0
C91 C 0.4497 0.82901 0.6371 0.0
C92 C 0.54147 0.83845 0.54395 0.0
C93 C 0.54971 0.82688 0.49936 0.0
C94 C 0.55615 0.84918 0.46543 0.0
C95 C 0.56386 0.8377 0.42444 0.0
C96 C 0.56535 0.80325 0.41504 0.0
C97 C 0.5582 0.78116 0.4491 0.0
C98 C 0.55099 0.79265 0.48998 0.0
C99 C 0.5441 0.82742 0.69784 0.0
O100 O 0.54171 0.90147 0.71702 0.0
O101 O 0.567 0.89282 0.65325 0.0
O102 O 0.45667 0.88402 0.75892 0.0
O103 O 0.50825 0.87182 0.77707 0.0
O104 O 0.45997 0.91308 0.6653 0.0
O105 O 0.50489 0.89748 0.64883 0.0
O106 O 0.4716 0.83941 0.61008 0.0
O107 O 0.45425 0.83446 0.67931 0.0
O108 O 0.53659 0.81725 0.57525 0.0
O109 O 0.53875 0.86965 0.5552 0.0
O110 O 0.56394 0.83031 0.66755 0.0
O111 O 0.51471 0.83419 0.6834 0.0
H112 H 0.50691 0.82354 0.83633 0.0
H113 H 0.49598 0.80127 0.90691 0.0
H114 H 0.42291 0.87389 0.91618 0.0
H115 H 0.43366 0.89585 0.84475 0.0
H116 H 0.55551 0.87576 0.47061 0.0
H117 H 0.56923 0.85619 0.40038 0.0
H118 H 0.5578 0.75448 0.44451 0.0
H119 H 0.5464 0.77434 0.51458 0.0
Ho120 Ho 0.34287 0.19086 0.90863 0.0
Ho121 Ho 0.34417 0.25879 0.86646 0.0
C122 C 0.34255 0.25785 0.96666 0.0
C123 C 0.34805 0.13992 0.95983 0.0
C124 C 0.36393 0.13325 1.00397 0.0
C125 C 0.38682 0.15698 1.02645 0.0
C126 C 0.40302 0.14964 0.06748 0.0
C127 C 0.39667 0.11842 0.08682 0.0
C128 C 0.37309 0.09505 0.06448 0.0
C129 C 0.35693 0.10241 1.0234 0.0
C130 C 0.28582 0.20397 0.85711 0.0
C131 C 0.36088 0.19247 0.81298 0.0
C132 C 0.33582 0.30796 0.81289 0.0
C133 C 0.34524 0.31521 0.76899 0.0
C134 C 0.33735 0.29219 0.7346 0.0
C135 C 0.34866 0.29877 0.69423 0.0
C136 C 0.36822 0.32838 0.68753 0.0
C137 C 0.37548 0.35157 0.72179 0.0
C138 C 0.36405 0.34507 0.76198 0.0
C139 C 0.404 0.2446 0.9103 0.0
O140 O 0.35263 0.22743 0.96387 0.0
O141 O 0.33046 0.27397 0.93159 0.0
O142 O 0.32256 0.15878 0.95681 0.0
O143 O 0.36873 0.14754 0.9312 0.0
O144 O 0.2979 0.17495 0.8608 0.0
O145 O 0.3033 0.22415 0.88341 0.0
O146 O 0.35201 0.22374 0.81153 0.0
O147 O 0.36322 0.17526 0.84929 0.0
O148 O 0.36089 0.30743 0.84374 0.0
O149 O 0.31275 0.28383 0.81655 0.0
O150 O 0.39258 0.27399 0.90784 0.0
O151 O 0.38375 0.22448 0.88731 0.0
H152 H 0.39248 0.18099 1.01204 0.0
H153 H 0.42062 0.16842 0.08403 0.0
H154 H 0.36782 0.07071 0.07821 0.0
H155 H 0.33935 0.08379 1.00647 0.0
H156 H 0.32296 0.26888 0.73904 0.0
H157 H 0.34284 0.28029 0.66862 0.0
H158 H 0.39006 0.37481 0.71752 0.0
H159 H 0.3704 0.36321 0.78794 0.0
Ho160 Ho 0.05687 0.90226 0.93776 0.0
Ho161 Ho 0.98718 0.89495 0.88962 0.0
C162 C 0.99216 0.87852 0.98943 0.0
C163 C 0.10872 0.91561 0.99404 0.0
C164 C 0.11893 0.89759 1.03403 0.0
C165 C 0.1044 0.86535 1.03993 0.0
C166 C 0.11252 0.84831 0.07848 0.0
C167 C 0.13512 0.8633 0.11202 0.0
C168 C 0.14977 0.89561 0.10596 0.0
C169 C 0.14172 0.91265 0.06713 0.0
C170 C 0.04124 0.84106 0.90185 0.0
C171 C 0.05162 0.91014 0.83814 0.0
C172 C 0.93415 0.88336 0.83369 0.0
C173 C 0.92594 0.86984 0.78925 0.0
C174 C 0.94783 0.8496 0.77112 0.0
C175 C 0.93864 0.83532 0.72995 0.0
C176 C 0.90741 0.84103 0.70603 0.0
C177 C 0.88609 0.86225 0.72382 0.0
C178 C 0.89527 0.87643 0.76508 0.0
C179 C 0.00381 0.9538 0.93176 0.0
O180 O 0.02419 0.88977 0.99124 0.0
O181 O 0.97252 0.87498 0.95222 0.0
O182 O 0.10995 0.89896 0.95827 0.0
O183 O 0.08074 0.9305 0.99375 0.0
O184 O 0.07108 0.85601 0.90652 0.0
O185 O 0.02142 0.85833 0.91946 0.0
O186 O 0.02244 0.89287 0.8387 0.0
O187 O 0.06769 0.92369 0.87407 0.0
O188 O 0.95148 0.9122 0.83769 0.0
O189 O 0.94453 0.8622 0.86365 0.0
O190 O 0.97437 0.9381 0.92944 0.0
O191 O 0.02256 0.93854 0.90998 0.0
H192 H 0.08636 0.85353 1.01484 0.0
H193 H 0.10039 0.82374 0.08249 0.0
H194 H 0.16738 0.90768 0.13127 0.0
H195 H 0.15294 0.93761 0.06314 0.0
H196 H 0.97176 0.84438 0.78908 0.0
H197 H 0.9559 0.81953 0.71695 0.0
H198 H 0.86181 0.86698 0.7065 0.0
H199 H 0.87806 0.89205 0.77851 0.0
Ho200 Ho 0.43809 0.7941 0.27629 0.0
Ho201 Ho 0.42914 0.72311 0.2412 0.0
C202 C 0.4602 0.73073 0.34093 0.0
C203 C 0.42641 0.84704 0.31716 0.0
C204 C 0.40653 0.84911 0.35349 0.0
C205 C 0.38697 0.82075 0.36377 0.0
C206 C 0.36805 0.82093 0.39832 0.0
C207 C 0.37104 0.84854 0.42645 0.0
C208 C 0.39002 0.87765 0.41526 0.0
C209 C 0.40727 0.87803 0.37857 0.0
C210 C 0.49228 0.77393 0.2439 0.0
C211 C 0.42949 0.7856 0.17075 0.0
C212 C 0.42258 0.66647 0.20102 0.0
C213 C 0.42168 0.65841 0.15507 0.0
C214 C 0.43767 0.68078 0.12832 0.0
C215 C 0.433 0.67653 0.08372 0.0
C216 C 0.41103 0.65049 0.06476 0.0
C217 C 0.39577 0.62725 0.09157 0.0
C218 C 0.40112 0.63123 0.13667 0.0
C219 C 0.37768 0.74304 0.28154 0.0
O220 O 0.44953 0.7617 0.33828 0.0
O221 O 0.45828 0.712 0.30551 0.0
O222 O 0.4543 0.83184 0.32554 0.0
O223 O 0.40873 0.83661 0.281 0.0
O224 O 0.48501 0.80501 0.24389 0.0
O225 O 0.47235 0.75691 0.26479 0.0
O226 O 0.43069 0.75296 0.17784 0.0
O227 O 0.42915 0.80658 0.2039 0.0
O228 O 0.39712 0.68268 0.20994 0.0
O229 O 0.4514 0.67929 0.22037 0.0
O230 O 0.38959 0.71403 0.28618 0.0
O231 O 0.39359 0.76029 0.25556 0.0
H232 H 0.38761 0.79792 0.34596 0.0
H233 H 0.35325 0.79835 0.40486 0.0
H234 H 0.39361 0.89937 0.43624 0.0
H235 H 0.42247 0.90019 0.37116 0.0
H236 H 0.45261 0.70244 0.14179 0.0
H237 H 0.44587 0.69428 0.06398 0.0
H238 H 0.37873 0.60693 0.07771 0.0
H239 H 0.3881 0.61404 0.15699 0.0
Ho240 Ho 0.47124 0.08106 0.42824 0.0
Ho241 Ho 0.53953 0.08367 0.39503 0.0
C242 C 0.53974 0.09911 0.49554 0.0
C243 C 0.41955 0.07274 0.47061 0.0
C244 C 0.41008 0.08907 0.5094 0.0
C245 C 0.43163 0.09007 0.54859 0.0
C246 C 0.42349 0.10729 0.58433 0.0
C247 C 0.39344 0.12364 0.58192 0.0
C248 C 0.37174 0.12247 0.5428 0.0
C249 C 0.38 0.10529 0.50685 0.0
C250 C 0.49089 0.14094 0.3959 0.0
C251 C 0.47126 0.07284 0.32877 0.0
C252 C 0.5902 0.09496 0.35118 0.0
C253 C 0.59787 0.11104 0.31011 0.0
C254 C 0.58251 0.0993 0.2693 0.0
C255 C 0.59112 0.1146 0.2311 0.0
C256 C 0.61504 0.14205 0.23294 0.0
C257 C 0.63036 0.15361 0.27377 0.0
C258 C 0.62197 0.13821 0.31182 0.0
C259 C 0.52331 0.0256 0.43429 0.0
O260 O 0.50693 0.09074 0.48965 0.0
O261 O 0.55818 0.10096 0.46287 0.0
O262 O 0.41994 0.09136 0.43616 0.0
O263 O 0.4455 0.05464 0.47656 0.0
O264 O 0.46001 0.12882 0.39323 0.0
O265 O 0.50946 0.12182 0.41834 0.0
O266 O 0.50179 0.08777 0.33593 0.0
O267 O 0.45584 0.06066 0.36126 0.0
O268 O 0.57106 0.0671 0.34855 0.0
O269 O 0.58339 0.11479 0.38182 0.0
O270 O 0.55356 0.03892 0.43346 0.0
O271 O 0.50271 0.04202 0.4099 0.0
H272 H 0.45499 0.0778 0.55164 0.0
H273 H 0.44099 0.1081 0.61379 0.0
H274 H 0.34823 0.1345 0.54012 0.0
H275 H 0.36301 0.10485 0.47694 0.0
H276 H 0.56382 0.07838 0.26682 0.0
H277 H 0.57863 0.10536 0.20015 0.0
H278 H 0.64912 0.17447 0.2763 0.0
H279 H 0.63444 0.14754 0.34274 0.0
Ho280 Ho 0.10309 0.19659 0.60194 0.0
Ho281 Ho 0.12598 0.26564 0.57595 0.0
C282 C 0.09798 0.25852 0.67031 0.0
C283 C 0.0949 0.13868 0.63677 0.0
C284 C 0.09576 0.12421 0.68023 0.0
C285 C 0.11232 0.09492 0.68933 0.0
C286 C 0.11311 0.08047 0.73034 0.0
C287 C 0.09699 0.09498 0.76255 0.0
C288 C 0.08029 0.12425 0.75329 0.0
C289 C 0.07981 0.13887 0.71252 0.0
C290 C 0.05395 0.23067 0.55654 0.0
C291 C 0.11436 0.20464 0.50189 0.0
C292 C 0.1408 0.32333 0.54299 0.0
C293 C 0.14188 0.34076 0.50145 0.0
C294 C 0.13451 0.3239 0.46159 0.0
C295 C 0.1348 0.34161 0.42265 0.0
C296 C 0.14237 0.3764 0.42309 0.0
C297 C 0.15082 0.39283 0.46321 0.0
C298 C 0.15059 0.37514 0.50198 0.0
C299 C 0.17027 0.23737 0.6348 0.0
O300 O 0.09965 0.22569 0.66526 0.0
O301 O 0.10322 0.27911 0.6375 0.0
O302 O 0.07025 0.1577 0.62502 0.0
O303 O 0.12377 0.1506 0.62537 0.0
O304 O 0.05775 0.19913 0.55182 0.0
O305 O 0.07725 0.24177 0.58462 0.0
O306 O 0.11895 0.23724 0.51054 0.0
O307 O 0.11161 0.18294 0.53362 0.0
O308 O 0.16247 0.30065 0.5517 0.0
O309 O 0.111 0.31426 0.5541 0.0
O310 O 0.16523 0.26871 0.63286 0.0
O311 O 0.15349 0.22218 0.60241 0.0
H312 H 0.1247 0.08329 0.66471 0.0
H313 H 0.12622 0.05798 0.73688 0.0
H314 H 0.06829 0.13628 0.77794 0.0
H315 H 0.06708 0.16164 0.70637 0.0
H316 H 0.12789 0.29729 0.4606 0.0
H317 H 0.12764 0.32832 0.39228 0.0
H318 H 0.15686 0.41953 0.46462 0.0
H319 H 0.15667 0.38847 0.53251 0.0
Ho320 Ho 0.92937 0.31114 0.77663 0.0
Ho321 Ho 0.92701 0.23731 0.75358 0.0
C322 C 0.95305 0.25503 0.85222 0.0
C323 C 0.91377 0.36787 0.80463 0.0
C324 C 0.89499 0.37898 0.83939 0.0
C325 C 0.86121 0.36759 0.8412 0.0
C326 C 0.84591 0.37248 0.87852 0.0
C327 C 0.86382 0.39002 0.91381 0.0
C328 C 0.89612 0.40488 0.9099 0.0
C329 C 0.91169 0.39918 0.87304 0.0
C330 C 0.98582 0.29258 0.74712 0.0
C331 C 0.922 0.2928 0.67337 0.0
C332 C 0.927 0.17871 0.72009 0.0
C333 C 0.92922 0.16884 0.67511 0.0
C334 C 0.9528 0.14651 0.66572 0.0
C335 C 0.95709 0.13982 0.62261 0.0
C336 C 0.93797 0.15562 0.58863 0.0
C337 C 0.91396 0.17734 0.5982 0.0
C338 C 0.90962 0.18389 0.64096 0.0
C339 C 0.87378 0.25646 0.79078 0.0
O340 O 0.93999 0.28461 0.84345 0.0
O341 O 0.95516 0.23362 0.82046 0.0
O342 O 0.94253 0.35504 0.81717 0.0
O343 O 0.89604 0.35108 0.77269 0.0
O344 O 0.97604 0.32273 0.74407 0.0
O345 O 0.96739 0.276 0.7707 0.0
O346 O 0.92498 0.26135 0.68616 0.0
O347 O 0.92065 0.3168 0.70248 0.0
O348 O 0.89951 0.1926 0.72681 0.0
O349 O 0.95405 0.19434 0.7401 0.0
O350 O 0.8879 0.22883 0.79893 0.0
O351 O 0.88791 0.27255 0.76201 0.0
H352 H 0.8472 0.35343 0.8148 0.0
H353 H 0.82106 0.3607 0.88096 0.0
H354 H 0.91062 0.41816 0.93704 0.0
H355 H 0.93751 0.40882 0.87202 0.0
H356 H 0.96839 0.13492 0.69166 0.0
H357 H 0.97578 0.12296 0.61584 0.0
H358 H 0.89846 0.1893 0.5725 0.0
H359 H 0.89127 0.20128 0.64717 0.0
Ho360 Ho 0.62783 0.69795 0.10149 0.0
Ho361 Ho 0.63297 0.76975 0.07245 0.0
C362 C 0.6107 0.75776 0.16864 0.0
C363 C 0.63924 0.64349 0.14307 0.0
C364 C 0.65353 0.63852 0.18803 0.0
C365 C 0.66877 0.66596 0.21219 0.0
C366 C 0.68129 0.66246 0.25551 0.0
C367 C 0.67702 0.6317 0.27656 0.0
C368 C 0.66179 0.60399 0.25197 0.0
C369 C 0.65043 0.60735 0.20786 0.0
C370 C 0.56989 0.71894 0.05979 0.0
C371 C 0.62496 0.7085 0.99843 0.0
C372 C 0.63686 0.82839 1.03792 0.0
C373 C 0.63474 0.84609 0.9964 0.0
C374 C 0.62875 0.829 0.95664 0.0
C375 C 0.62894 0.84667 0.9177 0.0
C376 C 0.63521 0.88165 0.91802 0.0
C377 C 0.64146 0.89846 0.9581 0.0
C378 C 0.64125 0.88081 0.99687 0.0
C379 C 0.68651 0.75115 0.12638 0.0
O380 O 0.62024 0.72675 0.16433 0.0
O381 O 0.6096 0.77836 0.13474 0.0
O382 O 0.60991 0.65629 0.13863 0.0
O383 O 0.66013 0.65788 0.1182 0.0
O384 O 0.57892 0.68851 0.05821 0.0
O385 O 0.59155 0.73527 0.08564 0.0
O386 O 0.62347 0.74074 1.00775 0.0
O387 O 0.63144 0.68672 1.03015 0.0
O388 O 0.66237 0.8098 0.04579 0.0
O389 O 0.60896 0.81453 0.05016 0.0
O390 O 0.67408 0.77986 0.12666 0.0
O391 O 0.67087 0.73367 0.09534 0.0
H392 H 0.67019 0.69038 0.19777 0.0
H393 H 0.6933 0.6843 0.27269 0.0
H394 H 0.65719 0.58003 0.26696 0.0
H395 H 0.6382 0.58598 0.18972 0.0
H396 H 0.62398 0.80213 0.95574 0.0
H397 H 0.62338 0.83305 0.88735 0.0
H398 H 0.64652 0.92529 0.95948 0.0
H399 H 0.64641 0.89431 1.02738 0.0
Ho400 Ho 0.65396 0.28038 0.94725 0.0
Ho401 Ho 0.66338 0.21648 0.89955 0.0
C402 C 0.65739 0.21154 1.00194 0.0
C403 C 0.63929 0.32822 0.99599 0.0
C404 C 0.62223 0.3342 1.035 0.0
C405 C 0.63893 0.33101 0.07722 0.0
C406 C 0.62354 0.33949 0.11356 0.0
C407 C 0.59111 0.35139 0.10861 0.0
C408 C 0.57441 0.35434 0.06638 0.0
C409 C 0.5898 0.34598 1.03012 0.0
C410 C 0.71618 0.27403 0.92271 0.0
C411 C 0.64929 0.28339 0.84544 0.0
C412 C 0.68132 0.16595 0.85924 0.0
C413 C 0.67199 0.15407 0.81378 0.0
C414 C 0.68687 0.16939 0.77924 0.0
C415 C 0.67516 0.16064 0.73617 0.0
C416 C 0.64824 0.13645 0.72662 0.0
C417 C 0.63434 0.12016 0.76116 0.0
C418 C 0.64617 0.12875 0.80418 0.0
C419 C 0.59861 0.23244 0.89363 0.0
O420 O 0.65075 0.24329 1.00077 0.0
O421 O 0.66522 0.19582 0.96747 0.0
O422 O 0.66796 0.31408 1.00162 0.0
O423 O 0.62025 0.31785 0.96062 0.0
O424 O 0.70115 0.30155 0.9202 0.0
O425 O 0.69791 0.25178 0.93876 0.0
O426 O 0.66599 0.25597 0.84773 0.0
O427 O 0.63665 0.29481 0.87937 0.0
O428 O 0.6571 0.1638 0.88418 0.0
O429 O 0.69993 0.19414 0.8648 0.0
O430 O 0.61228 0.21897 0.86293 0.0
O431 O 0.61984 0.23595 0.9271 0.0
H432 H 0.66407 0.32234 0.08228 0.0
H433 H 0.63699 0.33652 0.14558 0.0
H434 H 0.54961 0.36381 0.06123 0.0
H435 H 0.57646 0.34931 0.99812 0.0
H436 H 0.70693 0.18889 0.78532 0.0
H437 H 0.68634 0.17373 0.71032 0.0
H438 H 0.61397 0.10099 0.75491 0.0
H439 H 0.63439 0.11617 0.82995 0.0
Ho440 Ho 0.84792 0.70217 0.41065 0.0
Ho441 Ho 0.85456 0.7697 0.36691 0.0
C442 C 0.84729 0.77033 0.46601 0.0
C443 C 0.84784 0.65126 0.46203 0.0
C444 C 0.86171 0.64394 0.50678 0.0
C445 C 0.88605 0.66603 0.52973 0.0
C446 C 0.90106 0.65758 0.5709 0.0
C447 C 0.89205 0.62685 0.58985 0.0
C448 C 0.86673 0.60536 0.56733 0.0
C449 C 0.85175 0.61383 0.52605 0.0
C450 C 0.79414 0.71777 0.35474 0.0
C451 C 0.869 0.7014 0.3166 0.0
C452 C 0.8503 0.81844 0.3122 0.0
C453 C 0.86148 0.82428 0.26897 0.0
C454 C 0.85436 0.80042 0.2355 0.0
C455 C 0.86746 0.80547 0.19597 0.0
C456 C 0.88801 0.8344 0.18921 0.0
C457 C 0.89453 0.85845 0.22252 0.0
C458 C 0.88137 0.85344 0.26192 0.0
C459 C 0.91196 0.75285 0.41458 0.0
O460 O 0.85664 0.73947 0.46529 0.0
O461 O 0.83807 0.78626 0.42959 0.0
O462 O 0.82376 0.67182 0.45744 0.0
O463 O 0.87006 0.65733 0.43489 0.0
O464 O 0.80434 0.68805 0.35988 0.0
O465 O 0.8115 0.73731 0.38188 0.0
O466 O 0.86138 0.73299 0.31372 0.0
O467 O 0.87005 0.68482 0.35339 0.0
O468 O 0.87439 0.81719 0.34424 0.0
O469 O 0.82588 0.79552 0.31512 0.0
O470 O 0.9028 0.78306 0.40962 0.0
O471 O 0.89117 0.73332 0.39154 0.0
H472 H 0.89398 0.68944 0.5154 0.0
H473 H 0.92007 0.67494 0.58772 0.0
H474 H 0.85939 0.58147 0.5809 0.0
H475 H 0.83297 0.5965 0.50872 0.0
H476 H 0.83915 0.77763 0.24005 0.0
H477 H 0.86215 0.78635 0.1711 0.0
H478 H 0.90982 0.88122 0.21812 0.0
H479 H 0.88718 0.87217 0.28723 0.0
Ho480 Ho 0.57505 0.62024 0.65373 0.0
Ho481 Ho 0.50706 0.64095 0.673 0.0
C482 C 0.52944 0.66565 0.58342 0.0
C483 C 0.62306 0.58485 0.63569 0.0
C484 C 0.63745 0.58168 0.59496 0.0
C485 C 0.6202 0.594 0.55706 0.0
C486 C 0.63464 0.59458 0.51869 0.0
C487 C 0.66686 0.58328 0.51755 0.0
C488 C 0.68376 0.56962 0.55499 0.0
C489 C 0.66908 0.56896 0.5938 0.0
C490 C 0.57635 0.68385 0.6763 0.0
C491 C 0.5624 0.62612 0.75771 0.0
C492 C 0.45097 0.65595 0.69757 0.0
C493 C 0.43757 0.66672 0.73644 0.0
C494 C 0.4577 0.68609 0.76833 0.0
C495 C 0.44572 0.69234 0.80764 0.0
C496 C 0.41387 0.67866 0.81553 0.0
C497 C 0.39331 0.66038 0.78297 0.0
C498 C 0.40505 0.65467 0.74342 0.0
C499 C 0.50649 0.58676 0.62052 0.0
O500 O 0.55101 0.64129 0.58768 0.0
O501 O 0.51451 0.67445 0.61694 0.0
O502 O 0.62827 0.6144 0.65361 0.0
O503 O 0.59177 0.57302 0.63483 0.0
O504 O 0.59545 0.67344 0.64875 0.0
O505 O 0.55897 0.65996 0.69006 0.0
O506 O 0.53239 0.63683 0.74304 0.0
O507 O 0.58228 0.61572 0.72929 0.0
O508 O 0.46124 0.62563 0.69931 0.0
O509 O 0.4712 0.67761 0.67979 0.0
O510 O 0.48535 0.60946 0.61514 0.0
O511 O 0.52616 0.59287 0.65478 0.0
H512 H 0.59594 0.60417 0.5574 0.0
H513 H 0.62097 0.6048 0.48999 0.0
H514 H 0.70863 0.56075 0.55457 0.0
H515 H 0.68272 0.55951 0.623 0.0
H516 H 0.48308 0.69499 0.76361 0.0
H517 H 0.46213 0.70596 0.83286 0.0
H518 H 0.36884 0.64938 0.78888 0.0
H519 H 0.38938 0.63949 0.71906 0.0
Ho520 Ho 0.98136 0.38376 0.20777 0.0
Ho521 Ho 0.01973 0.36348 0.12161 0.0
C522 C 0.06282 0.40461 0.19995 0.0
C523 C 0.96784 0.37724 0.28842 0.0
C524 C 0.96103 0.37044 0.33542 0.0
C525 C 0.96529 0.3387 0.35453 0.0
C526 C 0.95977 0.33203 0.39825 0.0
C527 C 0.94961 0.35676 0.42542 0.0
C528 C 0.94505 0.38847 0.4059 0.0
C529 C 0.95073 0.39515 0.3622 0.0
C530 C 0.97823 0.42494 0.1379 0.0
C531 C 0.93687 0.35094 0.12635 0.0
C532 C 0.03464 0.34691 0.04463 0.0
C533 C 0.04273 0.33497 1.00029 0.0
C534 C 0.05303 0.35681 0.96773 0.0
C535 C 0.06002 0.34471 0.9267 0.0
C536 C 0.05702 0.31014 0.91607 0.0
C537 C 0.04634 0.28871 0.94897 0.0
C538 C 0.03952 0.3007 0.98965 0.0
C539 C 0.02825 0.3291 0.19518 0.0
O540 O 0.03657 0.40058 0.22278 0.0
O541 O 0.06213 0.39544 0.15847 0.0
O542 O 0.9701 0.40659 0.26942 0.0
O543 O 0.97182 0.35256 0.26259 0.0
O544 O 0.95594 0.42421 0.16578 0.0
O545 O 0.00153 0.40692 0.15155 0.0
O546 O 0.96332 0.35441 0.10409 0.0
O547 O 0.93757 0.35795 0.16802 0.0
O548 O 0.02656 0.32553 0.07435 0.0
O549 O 0.03533 0.37824 0.05748 0.0
O550 O 0.05049 0.33149 0.16786 0.0
O551 O 0.00142 0.34101 0.17939 0.0
H552 H 0.97337 0.31876 0.3357 0.0
H553 H 0.96421 0.3074 0.41088 0.0
H554 H 0.93664 0.40848 0.42419 0.0
H555 H 0.94692 0.41986 0.34934 0.0
H556 H 0.05582 0.38342 0.97395 0.0
H557 H 0.06833 0.36274 0.90363 0.0
H558 H 0.04279 0.26216 0.9437 0.0
H559 H 0.03153 0.2827 1.01301 0.0
Ho560 Ho 0.53316 0.39796 0.43306 0.0
Ho561 Ho 0.46242 0.39539 0.38444 0.0
C562 C 0.46729 0.37751 0.48437 0.0
C563 C 0.58587 0.4089 0.48908 0.0
C564 C 0.59775 0.39093 0.52869 0.0
C565 C 0.61872 0.40756 0.56235 0.0
C566 C 0.62899 0.3907 0.60065 0.0
C567 C 0.61855 0.35688 0.60572 0.0
C568 C 0.59774 0.34027 0.57169 0.0
C569 C 0.58726 0.35719 0.53364 0.0
C570 C 0.51239 0.3379 0.3966 0.0
C571 C 0.5279 0.40421 0.33268 0.0
C572 C 0.40918 0.3878 0.32813 0.0
C573 C 0.39967 0.37537 0.28306 0.0
C574 C 0.4064 0.34316 0.27054 0.0
C575 C 0.39586 0.33154 0.22827 0.0
C576 C 0.37857 0.35188 0.19723 0.0
C577 C 0.37218 0.38423 0.20987 0.0
C578 C 0.38252 0.39576 0.25226 0.0
C579 C 0.48263 0.45228 0.42987 0.0
O580 O 0.49983 0.38691 0.48615 0.0
O581 O 0.44728 0.37536 0.44718 0.0
O582 O 0.58602 0.39263 0.45275 0.0
O583 O 0.55815 0.42399 0.49035 0.0
O584 O 0.54346 0.34965 0.40275 0.0
O585 O 0.49439 0.35712 0.41405 0.0
O586 O 0.49721 0.39012 0.3334 0.0
O587 O 0.54525 0.41695 0.36842 0.0
O588 O 0.42834 0.41558 0.33292 0.0
O589 O 0.41755 0.36582 0.35805 0.0
O590 O 0.45212 0.43882 0.42498 0.0
O591 O 0.50048 0.43633 0.40731 0.0
H592 H 0.6269 0.43363 0.55916 0.0
H593 H 0.64514 0.40408 0.6263 0.0
H594 H 0.58885 0.3144 0.57492 0.0
H595 H 0.57066 0.34401 0.5082 0.0
H596 H 0.4195 0.32676 0.29347 0.0
H597 H 0.40081 0.30629 0.22023 0.0
H598 H 0.35942 0.40085 0.18692 0.0
H599 H 0.37699 0.42068 0.26107 0.0
Ho600 Ho 0.96956 0.58721 0.93041 0.0
Ho601 Ho 0.0355 0.59279 0.89311 0.0
C602 C 0.03902 0.61098 0.99261 0.0
C603 C 0.91994 0.57544 0.97566 0.0
C604 C 0.91064 0.5912 1.01476 0.0
C605 C 0.93446 0.59693 0.05142 0.0
C606 C 0.92618 0.61385 0.08726 0.0
C607 C 0.8939 0.62541 0.08722 0.0
C608 C 0.86998 0.61958 0.05064 0.0
C609 C 0.8783 0.6025 1.01469 0.0
C610 C 0.98339 0.64784 0.89567 0.0
C611 C 0.96671 0.57959 0.8301 0.0
C612 C 0.08543 0.60467 0.84812 0.0
C613 C 0.09398 0.62245 0.80855 0.0
C614 C 0.11209 0.65372 0.81249 0.0
C615 C 0.12229 0.67004 0.77601 0.0
C616 C 0.11489 0.65539 0.73461 0.0
C617 C 0.09685 0.62404 0.73056 0.0
C618 C 0.08649 0.60772 0.76715 0.0
C619 C 0.02332 0.53441 0.9348 0.0
O620 O 0.00703 0.59944 0.99015 0.0
O621 O 0.05488 0.61427 0.95787 0.0
O622 O 0.91795 0.59387 0.94094 0.0
O623 O 0.94735 0.55946 0.98061 0.0
O624 O 0.95359 0.63332 0.89531 0.0
O625 O 0.00444 0.63036 0.91707 0.0
O626 O 0.99648 0.59606 0.83586 0.0
O627 O 0.95285 0.56666 0.86348 0.0
O628 O 0.065 0.57772 0.84333 0.0
O629 O 0.07983 0.62318 0.8807 0.0
O630 O 0.05269 0.54943 0.93306 0.0
O631 O 0.00165 0.54958 0.91063 0.0
H632 H 0.95967 0.58874 0.05228 0.0
H633 H 0.94527 0.61839 0.11477 0.0
H634 H 0.84484 0.628 0.04997 0.0
H635 H 0.85963 0.59846 0.98662 0.0
H636 H 0.11882 0.66548 0.84398 0.0
H637 H 0.13654 0.69394 0.78036 0.0
H638 H 0.09048 0.61225 0.69905 0.0
H639 H 0.07289 0.58348 0.76298 0.0
H640 H 0.08693 0.066 0.95788 0.0
H641 H 0.19468 0.06613 0.95993 0.0
H642 H 0.18857 0.06752 0.88056 0.0
H643 H 0.15323 0.0781 0.81229 0.0
H644 H 0.04593 0.08183 0.81172 0.0
H645 H 0.05107 0.06903 0.88909 0.0
C646 C 0.10899 0.06509 0.94096 0.0
C647 C 0.14121 0.06611 0.96455 0.0
C648 C 0.10533 0.06712 0.89572 0.0
C649 C 0.16966 0.06562 0.94226 0.0
C650 C 0.16616 0.06653 0.89701 0.0
C651 C 0.13093 0.07516 0.82896 0.0
C652 C 0.09932 0.0812 0.80677 0.0
C653 C 0.13423 0.06875 0.87358 0.0
C654 C 0.07055 0.07768 0.82854 0.0
C655 C 0.07348 0.07034 0.87264 0.0
H656 H 0.15987 0.76812 0.27306 0.0
H657 H 0.14749 0.85942 0.34062 0.0
H658 H 0.14027 0.88895 0.27202 0.0
H659 H 0.13649 0.88894 0.19279 0.0
H660 H 0.14862 0.79798 0.1247 0.0
H661 H 0.15679 0.76822 0.19358 0.0
C662 C 0.15558 0.79443 0.27283 0.0
C663 C 0.15419 0.81137 0.31205 0.0
C664 C 0.15142 0.81139 0.23316 0.0
C665 C 0.14863 0.84559 0.31101 0.0
C666 C 0.14454 0.86261 0.27176 0.0
C667 C 0.14141 0.86272 0.19309 0.0
C668 C 0.14207 0.84572 0.15381 0.0
C669 C 0.14589 0.84578 0.23267 0.0
C670 C 0.1478 0.81156 0.15459 0.0
C671 C 0.15253 0.79456 0.19391 0.0
H672 H 0.37086 0.79128 0.47381 0.0
H673 H 0.35117 0.8954 0.48173 0.0
H674 H 0.36355 0.89339 0.56049 0.0
H675 H 0.39921 0.86795 0.61961 0.0
H676 H 0.42758 0.76758 0.60573 0.0
H677 H 0.39049 0.76123 0.53763 0.0
C678 C 0.3675 0.81335 0.49229 0.0
C679 C 0.3621 0.84409 0.47141 0.0
C680 C 0.37648 0.81244 0.53705 0.0
C681 C 0.35712 0.87185 0.49679 0.0
C682 C 0.36415 0.8707 0.5419 0.0
C683 C 0.39544 0.84407 0.60281 0.0
C684 C 0.41614 0.8184 0.61665 0.0
C685 C 0.37692 0.84202 0.56165 0.0
C686 C 0.41171 0.78755 0.59523 0.0
C687 C 0.39101 0.78425 0.55591 0.0
H688 H 0.3525 0.21535 0.72956 0.0
H689 H 0.38771 0.13259 0.80745 0.0
H690 H 0.40014 0.1042 0.74296 0.0
H691 H 0.40051 0.10213 0.6648 0.0
H692 H 0.36662 0.18449 0.58567 0.0
H693 H 0.3536 0.21348 0.65025 0.0
C694 C 0.36301 0.19119 0.73242 0.0
C695 C 0.3691 0.17619 0.77336 0.0
C696 C 0.37009 0.17476 0.69499 0.0
C697 C 0.38262 0.14476 0.77642 0.0
C698 C 0.38977 0.12842 0.73953 0.0
C699 C 0.39061 0.12659 0.66166 0.0
C700 C 0.38473 0.14119 0.62057 0.0
C701 C 0.38354 0.14312 0.69873 0.0
C702 C 0.37112 0.17257 0.61695 0.0
C703 C 0.36388 0.18924 0.65387 0.0
H704 H 0.9521 0.85711 0.17884 0.0
H705 H 0.8574 0.82283 0.10649 0.0
H706 H 0.88147 0.83239 1.03842 0.0
H707 H 0.92893 0.85207 0.99941 0.0
H708 H 0.02357 0.88657 0.07219 0.0
H709 H -0.0001 0.87552 0.13996 0.0
C710 C 0.93665 0.85194 0.14816 0.0
C711 C 0.90292 0.83947 0.14781 0.0
C712 C 0.95063 0.85757 0.10917 0.0
C713 C 0.88348 0.83224 0.10775 0.0
C714 C 0.89719 0.83785 0.06879 0.0
C715 C 0.94446 0.85708 1.03006 0.0
C716 C 0.97799 0.87025 1.0305 0.0
C717 C 0.93068 0.8507 0.06909 0.0
C718 C 0.9977 0.87645 0.07067 0.0
C719 C 0.98417 0.87019 0.10956 0.0
H720 H 0.9965 0.20676 0.88036 0.0
H721 H 0.93588 0.27908 0.92955 0.0
H722 H 0.95149 0.25938 1.00366 0.0
H723 H 0.98165 0.22027 0.05547 0.0
H724 H 0.04579 0.15141 1.00593 0.0
H725 H 0.02967 0.1709 0.93216 0.0
C726 C 0.98659 0.21834 0.90718 0.0
C727 C 0.96459 0.24448 0.89852 0.0
C728 C 0.9963 0.2072 0.95025 0.0
C729 C 0.95277 0.25914 0.93447 0.0
C730 C 0.96164 0.24767 0.97714 0.0
C731 C 0.99222 0.20953 1.0286 0.0
C732 C 0.01501 0.18397 1.03705 0.0
C733 C 0.98328 0.22153 0.98562 0.0
C734 C 0.02846 0.17099 1.00123 0.0
C735 C 0.01905 0.1821 0.95867 0.0
H736 H 0.58209 0.1299 0.69471 0.0
H737 H 0.68155 0.12752 0.65567 0.0
H738 H 0.65709 0.11647 0.58053 0.0
H739 H 0.60706 0.10679 0.52591 0.0
H740 H 0.50799 0.10991 0.56642 0.0
H741 H 0.53265 0.12101 0.64071 0.0
C742 C 0.59845 0.12662 0.66987 0.0
C743 C 0.6336 0.1293 0.68091 0.0
C744 C 0.58424 0.12037 0.62684 0.0
C745 C 0.6544 0.12573 0.64805 0.0
C746 C 0.64042 0.11931 0.60509 0.0
C747 C 0.59089 0.11002 0.55096 0.0
C748 C 0.55562 0.10715 0.54039 0.0
C749 C 0.60532 0.11657 0.59405 0.0
C750 C 0.53513 0.11144 0.57343 0.0
C751 C 0.54923 0.11794 0.61609 0.0
H752 H 0.56092 0.83264 0.33124 0.0
H753 H 0.59303 0.74349 0.39744 0.0
H754 H 0.60783 0.72159 0.33014 0.0
H755 H 0.61354 0.72696 0.25087 0.0
H756 H 0.58437 0.81717 0.18558 0.0
H757 H 0.56767 0.83854 0.25268 0.0
C758 C 0.57136 0.8085 0.33161 0.0
C759 C 0.57499 0.79018 0.37128 0.0
C760 C 0.58088 0.79575 0.29189 0.0
C761 C 0.58855 0.75863 0.36878 0.0
C762 C 0.59758 0.74587 0.32968 0.0
C763 C 0.60353 0.75133 0.25106 0.0
C764 C 0.6005 0.77008 0.21187 0.0
C765 C 0.594 0.76406 0.29077 0.0
C766 C 0.58745 0.80175 0.21424 0.0
C767 C 0.57771 0.81418 0.2531 0.0
H768 H 0.69721 0.57804 0.32596 0.0
H769 H 0.6734 0.68103 0.33635 0.0
H770 H 0.67758 0.67634 0.41407 0.0
H771 H 0.67683 0.64108 0.47737 0.0
H772 H 0.69082 0.53621 0.46774 0.0
H773 H 0.70167 0.54341 0.3919 0.0
C774 C 0.69293 0.59949 0.34511 0.0
C775 C 0.68468 0.62971 0.32459 0.0
C776 C 0.69325 0.59618 0.39019 0.0
C777 C 0.68037 0.65749 0.35049 0.0
C778 C 0.68231 0.65481 0.3953 0.0
C779 C 0.68305 0.61999 0.45881 0.0
C780 C 0.68258 0.58817 0.47736 0.0
C781 C 0.68723 0.62401 0.41514 0.0
C782 C 0.69103 0.56093 0.45372 0.0
C783 C 0.69682 0.56503 0.41037 0.0
H784 H 0.65734 0.26192 0.76415 0.0
H785 H 0.63007 0.34672 0.8341 0.0
H786 H 0.61974 0.37725 0.76653 0.0
H787 H 0.61628 0.37941 0.68737 0.0
H788 H 0.6417 0.29453 0.61642 0.0
H789 H 0.65476 0.26451 0.68442 0.0
C790 C 0.64935 0.28716 0.7646 0.0
C791 C 0.64442 0.30193 0.80417 0.0
C792 C 0.64296 0.30455 0.72541 0.0
C793 C 0.63386 0.3346 0.80413 0.0
C794 C 0.62798 0.35217 0.76548 0.0
C795 C 0.62512 0.35451 0.68685 0.0
C796 C 0.62812 0.33926 0.64699 0.0
C797 C 0.63217 0.33732 0.72593 0.0
C798 C 0.63899 0.30672 0.64674 0.0
C799 C 0.64654 0.28959 0.68559 0.0
H800 H 0.89374 0.39749 0.108 0.0
H801 H 0.90996 0.29495 0.08317 0.0
H802 H 0.87359 0.29641 1.01427 0.0
H803 H 0.85549 0.33178 0.95337 0.0
H804 H 0.85324 0.43767 0.9725 0.0
H805 H 0.86437 0.4305 0.05101 0.0
C806 C 0.88767 0.37509 0.08838 0.0
C807 C 0.90426 0.34623 0.09999 0.0
C808 C 0.86984 0.37733 0.04698 0.0
C809 C 0.89706 0.31729 0.07459 0.0
C810 C 0.87673 0.31836 1.03496 0.0
C811 C 0.85569 0.35298 0.97504 0.0
C812 C 0.85402 0.3852 0.95766 0.0
C813 C 0.86554 0.34899 1.01939 0.0
C814 C 0.85459 0.41269 0.98554 0.0
C815 C 0.86145 0.40858 1.03029 0.0
H816 H 0.85332 0.71893 0.23239 0.0
H817 H 0.90101 0.64415 0.31373 0.0
H818 H 0.91205 0.61381 0.24977 0.0
H819 H 0.90807 0.60827 0.17113 0.0
H820 H 0.8609 0.68269 0.08898 0.0
H821 H 0.84928 0.71329 0.15301 0.0
C822 C 0.8664 0.69618 0.23607 0.0
C823 C 0.87653 0.68393 0.27768 0.0
C824 C 0.87248 0.67867 0.19912 0.0
C825 C 0.89293 0.6541 0.28202 0.0
C826 C 0.89927 0.63671 0.2455 0.0
C827 C 0.89545 0.63132 0.16726 0.0
C828 C 0.88551 0.64334 0.12555 0.0
C829 C 0.88913 0.64875 0.20398 0.0
C830 C 0.86855 0.67285 0.12087 0.0
C831 C 0.86211 0.69043 0.1574 0.0
H832 H 0.40379 0.35168 0.49569 0.0
H833 H 0.49986 0.3843 0.56643 0.0
H834 H 0.47783 0.3718 0.63474 0.0
H835 H 0.43141 0.35208 0.67496 0.0
H836 H 0.3353 0.31903 0.60539 0.0
H837 H 0.35732 0.33086 0.53632 0.0
C838 C 0.41992 0.35604 0.52603 0.0
C839 C 0.45346 0.36902 0.52566 0.0
C840 C 0.40711 0.34865 0.56556 0.0
C841 C 0.47397 0.37434 0.56545 0.0
C842 C 0.46139 0.36722 0.60471 0.0
C843 C 0.41519 0.34769 0.64469 0.0
C844 C 0.38168 0.33491 0.6454 0.0
C845 C 0.428 0.35452 0.60519 0.0
C846 C 0.36123 0.32869 0.6058 0.0
C847 C 0.37377 0.33559 0.56629 0.0
H848 H 0.53386 0.64674 0.49704 0.0
H849 H 0.4999 0.72467 0.5729 0.0
H850 H 0.47605 0.75158 0.50728 0.0
H851 H 0.46268 0.75326 0.42695 0.0
H852 H 0.49585 0.67504 0.35087 0.0
H853 H 0.52182 0.64933 0.41635 0.0
C854 C 0.52176 0.66987 0.4993 0.0
C855 C 0.51905 0.68322 0.54083 0.0
C856 C 0.50747 0.68564 0.46064 0.0
C857 C 0.50259 0.71321 0.5421 0.0
C858 C 0.48866 0.72885 0.50421 0.0
C859 C 0.47559 0.73063 0.42454 0.0
C860 C 0.47664 0.71634 0.38311 0.0
C861 C 0.49058 0.7153 0.46308 0.0
C862 C 0.4939 0.68689 0.38166 0.0
C863 C 0.50906 0.67196 0.41946 0.0
H864 H 0.13942 0.65877 0.15635 0.0
H865 H 0.05788 0.61678 0.22276 0.0
H866 H 0.02494 0.60204 0.15321 0.0
H867 H 0.01955 0.60072 0.07337 0.0
H868 H 0.10126 0.64352 1.00765 0.0
H869 H 0.13356 0.65859 0.07703 0.0
C870 C 0.11431 0.64669 0.15566 0.0
C871 C 0.10123 0.63886 0.19477 0.0
C872 C 0.09546 0.63843 0.11561 0.0
C873 C 0.06881 0.62269 0.19318 0.0
C874 C 0.04985 0.61443 0.15341 0.0
C875 C 0.04428 0.61356 0.07418 0.0
C876 C 0.05781 0.62095 1.03519 0.0
C877 C 0.06295 0.62212 0.11438 0.0
C878 C 0.09013 0.63737 1.03702 0.0
C879 C 0.10871 0.64605 0.07675 0.0
H880 H 0.09338 0.22721 0.75056 0.0
H881 H 0.08356 0.32278 0.68866 0.0
H882 H 0.06994 0.34673 0.75617 0.0
H883 H 0.06025 0.34125 0.83398 0.0
H884 H 0.07408 0.24599 0.89641 0.0
H885 H 0.0855 0.22226 0.82881 0.0
C886 C 0.08835 0.25334 0.7516 0.0
C887 C 0.0897 0.27281 0.71336 0.0
C888 C 0.08071 0.26744 0.79139 0.0
C889 C 0.08305 0.30674 0.71669 0.0
C890 C 0.07511 0.32063 0.75573 0.0
C891 C 0.06602 0.31535 0.83351 0.0
C892 C 0.06532 0.29603 0.87222 0.0
C893 C 0.07386 0.30136 0.79362 0.0
C894 C 0.07291 0.26223 0.86858 0.0
C895 C 0.08005 0.24829 0.82929 0.0
H896 H 0.98666 0.29354 0.24207 0.0
H897 H 0.08645 0.34009 0.25005 0.0
H898 H 0.10987 0.29094 0.28285 0.0
H899 H 0.10197 0.23293 0.25721 0.0
H900 H 0.00202 0.18693 0.23114 0.0
H901 H 0.97841 0.23481 0.25967 0.0
C902 C 0.01319 0.2937 0.25437 0.0
C903 C 0.03552 0.31831 0.24013 0.0
C904 C 0.0264 0.26372 0.26812 0.0
C905 C 0.06932 0.31993 0.25821 0.0
C906 C 0.08272 0.29143 0.27654 0.0
C907 C 0.0752 0.23301 0.25978 0.0
C908 C 0.05294 0.20877 0.23774 0.0
C909 C 0.06197 0.26191 0.27332 0.0
C910 C 0.01885 0.2073 0.24381 0.0
C911 C 0.00555 0.2345 0.2611 0.0
H912 H 0.96583 0.79762 0.42879 0.0
H913 H 0.93733 0.69208 0.42795 0.0
H914 H 0.99678 0.67998 0.43947 0.0
H915 H 0.05642 0.69933 0.44268 0.0
H916 H 0.08483 0.80466 0.43728 0.0
H917 H 0.02571 0.8171 0.43559 0.0
C918 C 0.97263 0.77198 0.43175 0.0
C919 C 0.94735 0.7457 0.42734 0.0
C920 C 0.00677 0.76527 0.43683 0.0
C921 C 0.95645 0.71263 0.43108 0.0
C922 C 0.99038 0.70575 0.43753 0.0
C923 C 0.04971 0.72504 0.44157 0.0
C924 C 0.07482 0.75109 0.43975 0.0
C925 C 0.0157 0.73185 0.43932 0.0
C926 C 0.06584 0.78425 0.43842 0.0
C927 C 0.03209 0.79131 0.4374 0.0
H928 H 0.54028 0.70426 0.73573 0.0
H929 H 0.63259 0.72725 0.68002 0.0
H930 H 0.64022 0.78097 0.71812 0.0
H931 H 0.6077 0.82582 0.73782 0.0
H932 H 0.50574 0.80425 0.76173 0.0
H933 H 0.51665 0.74645 0.77658 0.0
C934 C 0.56274 0.7205 0.73335 0.0
C935 C 0.58494 0.71317 0.70368 0.0
C936 C 0.56557 0.75164 0.75293 0.0
C937 C 0.61432 0.73367 0.70108 0.0
C938 C 0.61896 0.76394 0.72352 0.0
C939 C 0.58852 0.80838 0.74836 0.0
C940 C 0.55505 0.81689 0.74225 0.0
C941 C 0.59289 0.77442 0.74547 0.0
C942 C 0.53127 0.79694 0.76203 0.0
C943 C 0.53718 0.76345 0.76876 0.0
H944 H 0.56201 0.26132 0.95037 0.0
H945 H 0.5527 0.19749 0.83739 0.0
H946 H 0.4919 0.19174 0.83662 0.0
H947 H 0.44093 0.20718 0.86498 0.0
H948 H 0.44844 0.27558 0.97279 0.0
H949 H 0.51011 0.27674 0.97936 0.0
C950 C 0.54655 0.24614 0.92576 0.0
C951 C 0.56178 0.22995 0.89399 0.0
C952 C 0.51125 0.24352 0.9248 0.0
C953 C 0.54158 0.21043 0.86208 0.0
C954 C 0.50676 0.20695 0.86167 0.0
C955 C 0.45611 0.22175 0.89047 0.0
C956 C 0.44042 0.24093 0.91872 0.0
C957 C 0.4913 0.22359 0.89257 0.0
C958 C 0.46021 0.26038 0.95099 0.0
C959 C 0.49539 0.26124 0.95451 0.0
H960 H 0.98149 0.8043 0.8884 0.0
H961 H 0.08889 0.79643 0.89914 0.0
H962 H 0.08067 0.7357 0.89586 0.0
H963 H 0.043 0.68452 0.89573 0.0
H964 H 0.9355 0.69251 0.88135 0.0
H965 H 0.94366 0.7532 0.87983 0.0
C966 C 0.003 0.78923 0.88956 0.0
C967 C 0.03568 0.80473 0.89463 0.0
C968 C 0.99811 0.75427 0.88724 0.0
C969 C 0.06342 0.78504 0.89551 0.0
C970 C 0.05878 0.75028 0.89377 0.0
C971 C 0.02143 0.69961 0.8918 0.0
C972 C 0.98879 0.68414 0.88933 0.0
C973 C 0.02626 0.73458 0.89054 0.0
C974 C 0.96096 0.70387 0.88364 0.0
C975 C 0.96556 0.73861 0.88288 0.0
H976 H 0.52795 0.68019 0.10103 0.0
H977 H 0.53453 0.77237 1.03114 0.0
H978 H 0.51407 0.8018 0.09064 0.0
H979 H 0.50513 0.80244 0.16792 0.0
H980 H 0.51296 0.71183 0.24225 0.0
H981 H 0.52247 0.6811 0.17765 0.0
C982 C 0.52362 0.70654 0.09821 0.0
C983 C 0.5351 0.7248 0.06384 0.0
C984 C 0.51814 0.7239 0.13519 0.0
C985 C 0.52715 0.75815 0.05859 0.0
C986 C 0.51711 0.77525 0.0934 0.0
C987 C 0.50938 0.77608 0.16996 0.0
C988 C 0.5075 0.75895 0.20906 0.0
C989 C 0.5147 0.75867 0.13283 0.0
C990 C 0.51377 0.72511 0.21192 0.0
C991 C 0.51871 0.70752 0.17507 0.0
H992 H 0.44898 0.19049 0.37878 0.0
H993 H 0.55407 0.17071 0.39795 0.0
H994 H 0.57 0.23041 0.39419 0.0
H995 H 0.55396 0.2882 0.39272 0.0
H996 H 0.44897 0.30823 0.38083 0.0
H997 H 0.4329 0.2484 0.37405 0.0
C998 C 0.47536 0.19926 0.38155 0.0
C999 C 0.50039 0.17638 0.38873 0.0
C1000 C 0.48424 0.23363 0.38098 0.0
C1001 C 0.53444 0.18795 0.39246 0.0
C1002 C 0.54352 0.22205 0.39045 0.0
C1003 C 0.52756 0.27947 0.38807 0.0
C1004 C 0.50261 0.30242 0.38745 0.0
C1005 C 0.51863 0.24512 0.3858 0.0
C1006 C 0.46853 0.29089 0.38155 0.0
C1007 C 0.45938 0.25675 0.37779 0.0
H1008 H 0.01067 0.19657 0.60071 0.0
H1009 H 0.02462 0.28873 0.53236 0.0
H1010 H 0.00665 0.31953 0.59254 0.0
H1011 H 0.99852 0.32063 0.67029 0.0
H1012 H 0.00622 0.23017 0.74437 0.0
H1013 H 0.00911 0.19817 0.67811 0.0
C1014 C 0.00843 0.22332 0.59829 0.0
C1015 C 0.02081 0.24071 0.56366 0.0
C1016 C 0.00497 0.24107 0.63582 0.0
C1017 C 0.01618 0.27494 0.55955 0.0
C1018 C 0.00746 0.29267 0.59473 0.0
C1019 C 0.00122 0.29397 0.67192 0.0
C1020 C -0.00032 0.27695 0.7113 0.0
C1021 C 0.00426 0.27617 0.63409 0.0
C1022 C 0.00483 0.24291 0.71352 0.0
C1023 C 0.00626 0.22476 0.67582 0.0
H1024 H 0.01855 0.09002 1.03283 0.0
H1025 H 0.03748 0.02488 0.14209 0.0
H1026 H 0.03672 0.97705 0.09272 0.0
H1027 H 0.02283 0.95318 1.01864 0.0
H1028 H 0.00665 0.01898 0.90952 0.0
H1029 H 0.01412 0.0674 0.95851 0.0
C1030 C 0.02332 0.06543 0.04569 0.0
C1031 C 0.02789 0.06076 0.09088 0.0
C1032 C 0.02288 0.03828 1.01713 0.0
C1033 C 0.03413 0.02897 0.10739 0.0
C1034 C 0.03339 0.00165 0.07916 0.0
C1035 C 0.02198 0.9782 1.00561 0.0
C1036 C 0.01441 0.98271 0.96061 0.0
C1037 C 0.02668 0.00586 1.03402 0.0
C1038 C 0.01269 0.0151 0.94404 0.0
C1039 C 0.0168 0.04269 0.97205 0.0
H1040 H 0.25779 0.80686 0.35932 0.0
H1041 H 0.2633 0.71814 0.4376 0.0
H1042 H 0.30852 0.69986 0.39869 0.0
H1043 H 0.34766 0.71005 0.34409 0.0
H1044 H 0.34082 0.79749 0.26353 0.0
H1045 H 0.29457 0.81519 0.30117 0.0
C1046 C 0.26894 0.78353 0.36782 0.0
C1047 C 0.25757 0.76401 0.40164 0.0
C1048 C 0.29444 0.77289 0.34467 0.0
C1049 C 0.2718 0.73362 0.41187 0.0
C1050 C 0.29759 0.72317 0.38959 0.0
C1051 C 0.33582 0.73282 0.33446 0.0
C1052 C 0.34787 0.75264 0.30139 0.0
C1053 C 0.30925 0.7427 0.35614 0.0
C1054 C 0.3321 0.78193 0.28903 0.0
C1055 C 0.30574 0.79207 0.31064 0.0
H1056 H 0.46237 0.00039 0.46245 0.0
H1057 H 0.56904 0.9876 0.47505 0.0
H1058 H 0.56411 0.9511 0.53628 0.0
H1059 H 0.53229 0.92864 0.59166 0.0
H1060 H 0.42645 0.94268 0.58728 0.0
H1061 H 0.42856 0.97505 0.51966 0.0
C1062 C 0.48452 0.99044 0.47947 0.0
C1063 C 0.51635 -0.00155 0.46543 0.0
C1064 C 0.48187 0.97042 0.51683 0.0
C1065 C 0.54437 0.98281 0.48562 0.0
C1066 C 0.54169 0.96198 0.52096 0.0
C1067 C 0.5094 0.93829 0.57581 0.0
C1068 C 0.47928 0.93318 0.59448 0.0
C1069 C 0.51097 0.95665 0.53773 0.0
C1070 C 0.45008 0.9465 0.57373 0.0
C1071 C 0.4513 0.96479 0.53495 0.0
H1072 H 0.26279 0.16745 0.7841 0.0
H1073 H 0.25275 0.26099 0.84757 0.0
H1074 H 0.21517 0.27829 0.78484 0.0
H1075 H 0.18751 0.26816 0.71138 0.0
H1076 H 0.19612 0.17504 0.64629 0.0
H1077 H 0.23166 0.15588 0.71065 0.0
C1078 C 0.25211 0.19151 0.78432 0.0
C1079 C 0.26093 0.21319 0.82034 0.0
C1080 C 0.23043 0.20129 0.74792 0.0
C1081 C 0.24676 0.24412 0.82016 0.0
C1082 C 0.22525 0.25397 0.7843 0.0
C1083 C 0.19706 0.24355 0.71107 0.0
C1084 C 0.18949 0.22317 0.67375 0.0
C1085 C 0.21734 0.23298 0.74786 0.0
C1086 C 0.20162 0.19122 0.67444 0.0
C1087 C 0.22202 0.18039 0.71121 0.0
H1088 H 0.74227 0.30782 0.85643 0.0
H1089 H 0.75892 0.22587 0.94461 0.0
H1090 H 0.80966 0.21418 0.91246 0.0
H1091 H 0.84888 0.22668 0.85902 0.0
H1092 H 0.83048 0.3051 0.76609 0.0
H1093 H 0.78083 0.31884 0.80014 0.0
C1094 C 0.75721 0.28757 0.8687 0.0
C1095 C 0.74714 0.26791 0.90317 0.0
C1096 C 0.78592 0.28037 0.84912 0.0
C1097 C 0.76628 0.24138 0.91826 0.0
C1098 C 0.79526 0.23469 0.89987 0.0
C1099 C 0.83403 0.24683 0.84618 0.0
C1100 C 0.84369 0.26533 0.81059 0.0
C1101 C 0.80524 0.25393 0.86524 0.0
C1102 C 0.82391 0.29096 0.79398 0.0
C1103 C 0.79546 0.29868 0.81334 0.0
H1104 H 0.78383 0.68687 0.27569 0.0
H1105 H 0.75758 0.77233 0.3449 0.0
H1106 H 0.72271 0.78999 0.27983 0.0
H1107 H 0.69922 0.78087 0.20437 0.0
H1108 H 0.72542 0.69649 0.13307 0.0
H1109 H 0.76139 0.67877 0.19787 0.0
C1110 C 0.77037 0.70932 0.27647 0.0
C1111 C 0.77303 0.72824 0.31519 0.0
C1112 C 0.75077 0.71958 0.23859 0.0
C1113 C 0.75584 0.75741 0.31561 0.0
C1114 C 0.73598 0.76749 0.2784 0.0
C1115 C 0.71292 0.75865 0.20271 0.0
C1116 C 0.70945 0.73985 0.16394 0.0
C1117 C 0.73322 0.74875 0.23986 0.0
C1118 C 0.72748 0.71123 0.16252 0.0
C1119 C 0.74801 0.70117 0.19958 0.0
H1120 H 0.54651 0.56651 0.56162 0.0
H1121 H 0.45568 0.53941 0.61842 0.0
H1122 H 0.44113 0.49437 0.56532 0.0
H1123 H 0.45154 0.46602 0.49925 0.0
H1124 H 0.54188 0.49217 0.44069 0.0
H1125 H 0.55965 0.53412 0.49798 0.0
C1126 C 0.52421 0.54996 0.56315 0.0
C1127 C 0.50255 0.55567 0.59452 0.0
C1128 C 0.51565 0.52445 0.53168 0.0
C1129 C 0.47299 0.53498 0.59513 0.0
C1130 C 0.46453 0.50945 0.56452 0.0
C1131 C 0.4752 0.48081 0.499 0.0
C1132 C 0.49512 0.47639 0.46535 0.0
C1133 C 0.4852 0.50453 0.53202 0.0
C1134 C 0.52598 0.49534 0.46602 0.0
C1135 C 0.53611 0.51927 0.4988 0.0
H1136 H 0.96316 0.50557 0.96016 0.0
H1137 H 0.07123 0.50352 0.98402 0.0
H1138 H 0.06616 0.46852 0.04688 0.0
H1139 H 0.03252 0.4432 0.09945 0.0
H1140 H 0.92509 0.45018 0.08488 0.0
H1141 H 0.92831 0.48029 1.01596 0.0
C1142 C 0.98551 0.49839 0.98001 0.0
C1143 C 0.0176 0.50877 0.96842 0.0
C1144 C 0.98257 0.47969 1.01836 0.0
C1145 C 0.04622 0.49675 0.99251 0.0
C1146 C 0.04343 0.47681 1.02877 0.0
C1147 C 0.00968 0.45123 0.08125 0.0
C1148 C 0.97861 0.44442 0.09721 0.0
C1149 C 0.01194 0.46904 0.04274 0.0
C1150 C 0.94935 0.45525 0.07335 0.0
C1151 C 0.95124 0.47233 1.03387 0.0
H1152 H 0.10991 0.17353 0.29792 0.0
H1153 H 0.0299 0.10263 0.32558 0.0
H1154 H 0.04038 0.11794 0.40276 0.0
H1155 H 0.07134 0.15308 0.46324 0.0
H1156 H 0.14595 0.22929 0.43334 0.0
H1157 H 0.1385 0.21079 0.35737 0.0
C1158 C 0.09506 0.16101 0.32087 0.0
C1159 C 0.0695 0.13613 0.30539 0.0
C1160 C 0.10022 0.17126 0.36537 0.0
C1161 C 0.05 0.12129 0.33605 0.0
C1162 C 0.05596 0.13024 0.38043 0.0
C1163 C 0.08628 0.16548 0.44026 0.0
C1164 C 0.10984 0.19238 0.45497 0.0
C1165 C 0.08089 0.15539 0.39566 0.0
C1166 C 0.12799 0.20847 0.42377 0.0
C1167 C 0.1237 0.19779 0.38002 0.0
H1168 H 0.1458 0.90177 0.69009 0.0
H1169 H 0.05573 0.84951 0.62615 0.0
H1170 H 0.02572 0.86074 0.68772 0.0
H1171 H 0.02557 0.88311 0.76052 0.0
H1172 H 0.11528 0.9352 0.82564 0.0
H1173 H 0.14456 0.92724 0.76207 0.0
C1174 C 0.11949 0.89321 0.68938 0.0
C1175 C 0.10321 0.87446 0.65365 0.0
C1176 C 0.10225 0.89989 0.72493 0.0
C1177 C 0.06915 0.86334 0.65354 0.0
C1178 C 0.05185 0.86998 0.6886 0.0
C1179 C 0.05145 0.89306 0.76084 0.0
C1180 C 0.06824 0.90956 0.79802 0.0
C1181 C 0.06826 0.88787 0.72463 0.0
C1182 C 0.10172 0.92239 0.79753 0.0
C1183 C 0.11854 0.91768 0.76125 0.0
H1184 H 0.43685 0.75235 0.09334 0.0
H1185 H 0.42767 0.85093 0.14289 0.0
H1186 H 0.43438 0.87454 0.07152 0.0
H1187 H 0.44483 0.8682 0.99413 0.0
H1188 H 0.45687 0.76973 0.94591 0.0
H1189 H 0.44768 0.74602 1.01626 0.0
C1190 C 0.43595 0.77899 0.08871 0.0
C1191 C 0.43148 0.79945 0.12475 0.0
C1192 C 0.44066 0.79284 0.047 0.0
C1193 C 0.4309 0.83407 0.11682 0.0
C1194 C 0.43489 0.84778 0.07556 0.0
C1195 C 0.44519 0.84147 0.99861 0.0
C1196 C 0.45176 0.82119 0.96333 0.0
C1197 C 0.44009 0.82758 0.04022 0.0
C1198 C 0.4524 0.78656 0.97143 0.0
C1199 C 0.44677 0.77272 1.01207 0.0
H1200 H 0.49594 0.09791 0.25695 0.0
H1201 H 0.4053 0.05228 0.30057 0.0
H1202 H 0.37435 0.06143 0.22908 0.0
H1203 H 0.37241 0.08562 0.15546 0.0
H1204 H 0.46348 0.13186 0.1137 0.0
H1205 H 0.49468 0.11968 0.18355 0.0
C1206 C 0.46945 0.08964 0.25094 0.0
C1207 C 0.45299 0.07449 0.28433 0.0
C1208 C 0.45174 0.09555 0.21018 0.0
C1209 C 0.41868 0.06394 0.27556 0.0
C1210 C 0.40091 0.06934 0.23471 0.0
C1211 C 0.39915 0.09274 0.16151 0.0
C1212 C 0.41545 0.10998 0.12939 0.0
C1213 C 0.41707 0.08562 0.20197 0.0
C1214 C 0.45009 0.11921 0.13801 0.0
C1215 C 0.46804 0.11202 0.17787 0.0
H1216 H 0.87203 0.74559 0.54368 0.0
H1217 H 0.83537 0.83544 0.48431 0.0
H1218 H 0.84998 0.86522 0.5536 0.0
H1219 H 0.8759 0.86616 0.63048 0.0
H1220 H 0.91371 0.77587 0.68717 0.0
H1221 H 0.89639 0.74606 0.61912 0.0
C1222 C 0.86689 0.77165 0.54564 0.0
C1223 C 0.85253 0.78817 0.50854 0.0
C1224 C 0.87605 0.78869 0.5851 0.0
C1225 C 0.84626 0.82199 0.51221 0.0
C1226 C 0.85478 0.83908 0.55183 0.0
C1227 C 0.88014 0.83992 0.62796 0.0
C1228 C 0.89643 0.82341 0.66394 0.0
C1229 C 0.87012 0.82278 0.5884 0.0
C1230 C 0.90188 0.78941 0.65994 0.0
C1231 C 0.89173 0.77224 0.62108 0.0
H1232 H 0.94582 0.20167 0.52644 0.0
H1233 H 0.93882 0.09555 0.54885 0.0
H1234 H 0.93797 0.08508 0.47115 0.0
H1235 H 0.93509 0.10609 0.39714 0.0
H1236 H 0.94404 0.21229 0.37437 0.0
H1237 H 0.94671 0.22283 0.45221 0.0
C1238 C 0.94426 0.17629 0.51417 0.0
C1239 C 0.94208 0.14936 0.54293 0.0
C1240 C 0.94335 0.17053 0.46962 0.0
C1241 C 0.94069 0.11658 0.52713 0.0
C1242 C 0.93987 0.11062 0.48279 0.0
C1243 C 0.93814 0.13158 0.40911 0.0
C1244 C 0.93923 0.15835 0.37987 0.0
C1245 C 0.94056 0.13742 0.45376 0.0
C1246 C 0.94246 0.19122 0.39604 0.0
C1247 C 0.94439 0.19727 0.44055 0.0
H1248 H 0.64751 0.23761 0.07951 0.0
H1249 H 0.65688 0.14377 1.01622 0.0
H1250 H 0.64443 0.11383 0.08193 0.0
H1251 H 0.62909 0.11441 0.15705 0.0
H1252 H 0.61983 0.2089 0.21869 0.0
H1253 H 0.63386 0.23838 0.1538 0.0
C1254 C 0.64703 0.21058 0.07992 0.0
C1255 C 0.65306 0.19302 0.04271 0.0
C1256 C 0.63963 0.19359 0.11755 0.0
C1257 C 0.65248 0.158 0.0443 0.0
C1258 C 0.64516 0.14084 0.08185 0.0
C1259 C 0.63002 0.14144 0.15611 0.0
C1260 C 0.62343 0.15942 0.19276 0.0
C1261 C 0.63831 0.15837 0.11855 0.0
C1262 C 0.62512 0.19446 0.1912 0.0
C1263 C 0.63305 0.21136 0.15404 0.0
H1264 H 0.57812 0.955 0.75249 0.0
H1265 H 0.62831 0.87918 0.69316 0.0
H1266 H 0.66085 0.86822 0.76267 0.0
H1267 H 0.65987 0.86731 0.84224 0.0
H1268 H 0.6037 0.939 0.90118 0.0
H1269 H 0.58825 0.96388 0.83075 0.0
C1270 C 0.59758 0.93737 0.75442 0.0
C1271 C 0.59955 0.91665 0.71854 0.0
C1272 C 0.61361 0.92901 0.79524 0.0
C1273 C 0.62564 0.8949 0.72066 0.0
C1274 C 0.64359 0.88792 0.76081 0.0
C1275 C 0.64481 0.8888 0.8397 0.0
C1276 C 0.63224 0.9007 0.87678 0.0
C1277 C 0.63522 0.90254 0.79876 0.0
C1278 C 0.61354 0.92914 0.87321 0.0
C1279 C 0.60459 0.94339 0.83284 0.0
H1280 H 0.54828 0.67851 0.80778 0.0
H1281 H 0.61051 0.59509 0.81361 0.0
H1282 H 0.63486 0.61179 0.88766 0.0
H1283 H 0.63895 0.6512 0.95208 0.0
H1284 H 0.58109 0.73813 0.93927 0.0
H1285 H 0.5556 0.71944 0.86762 0.0
C1286 C 0.56714 0.66374 0.82499 0.0
C1287 C 0.57685 0.63496 0.80445 0.0
C1288 C 0.58235 0.67454 0.86694 0.0
C1289 C 0.60193 0.61697 0.82801 0.0
C1290 C 0.61606 0.62672 0.87063 0.0
C1291 C 0.62097 0.66622 0.93356 0.0
C1292 C 0.61234 0.69644 0.95219 0.0
C1293 C 0.60663 0.65564 0.89068 0.0
C1294 C 0.58888 0.71516 0.92668 0.0
C1295 C 0.57391 0.7043 0.88535 0.0
H1296 H 0.49971 0.37641 0.25611 0.0
H1297 H 0.5931 0.42322 0.3187 0.0
H1298 H 0.62086 0.41132 0.2549 0.0
H1299 H 0.61904 0.38553 0.18218 0.0
H1300 H 0.5255 0.33751 0.12177 0.0
H1301 H 0.49751 0.35204 0.18389 0.0
C1302 C 0.5261 0.38435 0.25588 0.0
C1303 C 0.54423 0.40072 0.29242 0.0
C1304 C 0.54199 0.37696 0.21946 0.0
C1305 C 0.57842 0.41071 0.29114 0.0
C1306 C 0.59438 0.40372 0.25469 0.0
C1307 C 0.59258 0.37807 0.18273 0.0
C1308 C 0.57447 0.36042 0.14712 0.0
C1309 C 0.57653 0.38642 0.21888 0.0
C1310 C 0.54004 0.35142 0.14828 0.0
C1311 C 0.524 0.35961 0.18395 0.0
H1312 H 0.93164 0.29665 0.4674 0.0
H1313 H 0.95665 0.40127 0.49509 0.0
H1314 H 0.94844 0.39201 0.57068 0.0
H1315 H 0.9355 0.35409 0.63176 0.0
H1316 H 0.91286 0.24945 0.60423 0.0
H1317 H 0.91904 0.25893 0.52797 0.0
C1318 C 0.93555 0.31766 0.48961 0.0
C1319 C 0.94453 0.35 0.47352 0.0
C1320 C 0.93107 0.31215 0.53433 0.0
C1321 C 0.94899 0.37623 0.50452 0.0
C1322 C 0.94451 0.3709 0.54859 0.0
C1323 C 0.93137 0.33334 0.60911 0.0
C1324 C 0.92323 0.30082 0.62503 0.0
C1325 C 0.93546 0.33899 0.56422 0.0
C1326 C 0.91885 0.27465 0.59413 0.0
C1327 C 0.92252 0.28012 0.54994 0.0
H1328 H 0.99157 0.59826 0.75619 0.0
H1329 H 0.89905 0.56363 0.8051 0.0
H1330 H 0.86759 0.57384 0.73404 0.0
H1331 H 0.86624 0.59708 0.65961 0.0
H1332 H 0.95957 0.6331 0.6137 0.0
H1333 H 0.99076 0.61846 0.68247 0.0
C1334 C 0.96452 0.59263 0.75145 0.0
C1335 C 0.94768 0.58041 0.78613 0.0
C1336 C 0.94667 0.59939 0.71119 0.0
C1337 C 0.91268 0.57297 0.77899 0.0
C1338 C 0.89467 0.57907 0.73845 0.0
C1339 C 0.89342 0.60142 0.66461 0.0
C1340 C 0.91048 0.61664 0.63171 0.0
C1341 C 0.91134 0.59298 0.70456 0.0
C1342 C 0.94572 0.62216 0.63874 0.0
C1343 C 0.96363 0.61354 0.67794 0.0
H1344 H 0.41143 0.31192 0.14815 0.0
H1345 H 0.32027 0.36354 0.14398 0.0
H1346 H 0.30164 0.34145 0.0711 0.0
H1347 H 0.31014 0.30471 1.00899 0.0
H1348 H 0.40018 0.2508 1.01813 0.0
H1349 H 0.41981 0.27606 0.08817 0.0
C1350 C 0.38726 0.31812 0.13172 0.0
C1351 C 0.36732 0.33926 0.15207 0.0
C1352 C 0.37628 0.3047 0.09031 0.0
C1353 C 0.33648 0.34761 0.12925 0.0
C1354 C 0.32562 0.33477 0.08752 0.0
C1355 C 0.33407 0.29874 1.02634 0.0
C1356 C 0.35345 0.27565 1.00836 0.0
C1357 C 0.34517 0.31297 0.06773 0.0
C1358 C 0.38445 0.26811 1.03133 0.0
C1359 C 0.39585 0.28262 0.07149 0.0
H1360 H 0.39871 0.70192 1.01056 0.0
H1361 H 0.40647 0.59531 1.01236 0.0
H1362 H 0.40236 0.59445 0.93313 0.0
H1363 H 0.40462 0.62513 0.86494 0.0
H1364 H 0.40451 0.73239 0.86472 0.0
H1365 H 0.3977 0.73217 0.94217 0.0
C1366 C 0.39959 0.6785 0.99358 0.0
C1367 C 0.40369 0.64883 1.01711 0.0
C1368 C 0.39884 0.67848 0.94856 0.0
C1369 C 0.40346 0.61846 0.99483 0.0
C1370 C 0.40138 0.61802 0.94966 0.0
C1371 C 0.40238 0.64831 0.88188 0.0
C1372 C 0.40477 0.67872 0.85978 0.0
C1373 C 0.40019 0.64801 0.92643 0.0
C1374 C 0.40255 0.70881 0.88157 0.0
C1375 C 0.39888 0.70864 0.92564 0.0
H1376 H 0.15176 0.75139 0.58392 0.0
H1377 H 0.18287 0.66015 0.53302 0.0
H1378 H 0.16767 0.63017 0.59749 0.0
H1379 H 0.14323 0.62965 0.66712 0.0
H1380 H 0.11081 0.72124 0.71536 0.0
H1381 H 0.12871 0.75125 0.65284 0.0
C1382 C 0.15547 0.72497 0.58681 0.0
C1383 C 0.16836 0.70806 0.55345 0.0
C1384 C 0.14616 0.70788 0.62341 0.0
C1385 C 0.17311 0.67384 0.55819 0.0
C1386 C 0.16421 0.65664 0.59495 0.0
C1387 C 0.13993 0.65613 0.66376 0.0
C1388 C 0.1257 0.67316 0.69596 0.0
C1389 C 0.15023 0.67332 0.62748 0.0
C1390 C 0.12202 0.70758 0.6914 0.0
C1391 C 0.13215 0.72476 0.65557 0.0
H1392 H 0.07402 0.44985 0.26461 0.0
H1393 H 0.12382 0.37853 0.19656 0.0
H1394 H 0.15971 0.36662 0.2634 0.0
H1395 H 0.16287 0.36372 0.34384 0.0
H1396 H 0.10931 0.43297 0.41099 0.0
H1397 H 0.08868 0.45799 0.34245 0.0
C1398 C 0.09393 0.43293 0.26402 0.0
C1399 C 0.0952 0.41382 0.22651 0.0
C1400 C 0.11259 0.42454 0.30311 0.0
C1401 C 0.1219 0.39311 0.22534 0.0
C1402 C 0.14187 0.38564 0.26395 0.0
C1403 C 0.14737 0.38483 0.34342 0.0
C1404 C 0.137 0.39593 0.38241 0.0
C1405 C 0.1351 0.39894 0.30357 0.0
C1406 C 0.11754 0.42378 0.38154 0.0
C1407 C 0.1056 0.43809 0.34226 0.0
loop_
_geom_bond_atom_site_label_1
_geom_bond_atom_site_label_2
_geom_bond_distance
_geom_bond_site_symmetry_2
_ccdc_geom_bond_type
Ho0 C3 2.811 . S
Ho0 O20 2.322 1_455 S
Ho0 O22 2.378 . S
Ho0 O23 2.524 . S
Ho0 O24 2.381 . S
Ho0 O25 2.669 1_455 S
Ho0 O27 2.346 . S
Ho0 O31 2.305 . S
Ho1 C12 2.811 . S
Ho1 O21 2.346 . S
Ho1 O25 2.305 . S
Ho1 O26 2.322 1_655 S
Ho1 O28 2.378 . S
Ho1 O29 2.524 . S
Ho1 O30 2.381 . S
Ho1 O31 2.669 1_655 S
C2 O20 1.259 . S
C2 O21 1.268 . S
C3 Ho0 2.811 . S
C3 C4 1.488 1_554 S
C3 O22 1.215 . S
C3 O23 1.289 . S
C4 C3 1.488 1_556 S
C4 C5 1.348 . S
C4 C9 1.413 . S
C5 C4 1.348 . S
C5 C6 1.442 . S
C5 H32 0.930 . S
C6 C5 1.442 . S
C6 C7 1.381 . S
C6 H33 0.931 . S
C7 C6 1.381 . S
C7 C8 1.321 . S
C8 C7 1.321 . S
C8 C9 1.403 . S
C8 H34 0.934 . S
C9 C4 1.413 . S
C9 C8 1.403 . S
C9 H35 0.930 . S
C10 O24 1.275 . S
C10 O25 1.256 1_455 S
C11 O26 1.259 . S
C11 O27 1.268 . S
C12 Ho1 2.811 . S
C12 C13 1.488 . S
C12 O28 1.215 . S
C12 O29 1.289 . S
C13 C12 1.488 . S
C13 C14 1.348 . S
C13 C18 1.413 . S
C14 C13 1.348 . S
C14 C15 1.442 . S
C14 H36 0.930 . S
C15 C14 1.442 . S
C15 C16 1.381 . S
C15 H37 0.931 . S
C16 C15 1.381 . S
C16 C17 1.321 . S
C17 C16 1.321 . S
C17 C18 1.403 . S
C17 H38 0.934 . S
C18 C13 1.413 . S
C18 C17 1.403 . S
C18 H39 0.930 . S
C19 O30 1.275 . S
C19 O31 1.256 1_655 S
O20 Ho0 2.322 1_655 S
O20 C2 1.259 . S
O21 Ho1 2.346 . S
O21 C2 1.268 . S
O22 Ho0 2.378 . S
O22 C3 1.215 . S
O23 Ho0 2.524 . S
O23 C3 1.289 . S
O24 Ho0 2.381 . S
O24 C10 1.275 . S
O25 Ho0 2.669 1_655 S
O25 Ho1 2.305 . S
O25 C10 1.256 1_655 S
O26 Ho1 2.322 1_455 S
O26 C11 1.259 . S
O27 Ho0 2.346 . S
O27 C11 1.268 . S
O28 Ho1 2.378 . S
O28 C12 1.215 . S
O29 Ho1 2.524 . S
O29 C12 1.289 . S
O30 Ho1 2.381 . S
O30 C19 1.275 . S
O31 Ho0 2.305 . S
O31 Ho1 2.669 1_455 S
O31 C19 1.256 1_455 S
H32 C5 0.930 . S
H33 C6 0.931 . S
H34 C8 0.934 . S
H35 C9 0.930 . S
H36 C14 0.930 . S
H37 C15 0.931 . S
H38 C17 0.934 . S
H39 C18 0.930 . S
Ho40 C43 2.811 . S
Ho40 O60 2.322 . S
Ho40 O62 2.378 . S
Ho40 O63 2.524 . S
Ho40 O64 2.381 . S
Ho40 O65 2.669 . S
Ho40 O67 2.346 . S
Ho40 O71 2.305 . S
Ho41 C52 2.811 . S
Ho41 O61 2.346 . S
Ho41 O65 2.305 . S
Ho41 O66 2.322 . S
Ho41 O68 2.378 . S
Ho41 O69 2.524 . S
Ho41 O70 2.381 . S
Ho41 O71 2.669 . S
C42 O60 1.259 . S
C42 O61 1.268 . S
C43 Ho40 2.811 . S
C43 C44 1.488 . S
C43 O62 1.215 . S
C43 O63 1.289 . S
C44 C43 1.488 . S
C44 C45 1.348 . S
C44 C49 1.413 . S
C45 C44 1.348 . S
C45 C46 1.442 . S
C45 H72 0.930 . S
C46 C45 1.442 . S
C46 C47 1.381 . S
C46 H73 0.931 . S
C47 C46 1.381 . S
C47 C48 1.321 . S
C48 C47 1.321 . S
C48 C49 1.403 . S
C48 H74 0.934 . S
C49 C44 1.413 . S
C49 C48 1.403 . S
C49 H75 0.930 . S
C50 O64 1.275 . S
C50 O65 1.256 . S
C51 O66 1.259 . S
C51 O67 1.268 . S
C52 Ho41 2.811 . S
C52 C53 1.488 . S
C52 O68 1.215 . S
C52 O69 1.289 . S
C53 C52 1.488 . S
C53 C54 1.348 . S
C53 C58 1.413 . S
C54 C53 1.348 . S
C54 C55 1.442 . S
C54 H76 0.930 . S
C55 C54 1.442 . S
C55 C56 1.381 . S
C55 H77 0.931 . S
C56 C55 1.381 . S
C56 C57 1.321 . S
C57 C56 1.321 . S
C57 C58 1.403 . S
C57 H78 0.934 . S
C58 C53 1.413 . S
C58 C57 1.403 . S
C58 H79 0.930 . S
C59 O70 1.275 . S
C59 O71 1.256 . S
O60 Ho40 2.322 . S
O60 C42 1.259 . S
O61 Ho41 2.346 . S
O61 C42 1.268 . S
O62 Ho40 2.378 . S
O62 C43 1.215 . S
O63 Ho40 2.524 . S
O63 C43 1.289 . S
O64 Ho40 2.381 . S
O64 C50 1.275 . S
O65 Ho40 2.669 . S
O65 Ho41 2.305 . S
O65 C50 1.256 . S
O66 Ho41 2.322 . S
O66 C51 1.259 . S
O67 Ho40 2.346 . S
O67 C51 1.268 . S
O68 Ho41 2.378 . S
O68 C52 1.215 . S
O69 Ho41 2.524 . S
O69 C52 1.289 . S
O70 Ho41 2.381 . S
O70 C59 1.275 . S
O71 Ho40 2.305 . S
O71 Ho41 2.669 . S
O71 C59 1.256 . S
H72 C45 0.930 . S
H73 C46 0.931 . S
H74 C48 0.934 . S
H75 C49 0.930 . S
H76 C54 0.930 . S
H77 C55 0.931 . S
H78 C57 0.934 . S
H79 C58 0.930 . S
Ho80 C83 2.811 . S
Ho80 O100 2.322 . S
Ho80 O102 2.378 . S
Ho80 O103 2.524 . S
Ho80 O104 2.381 . S
Ho80 O105 2.669 . S
Ho80 O107 2.346 . S
Ho80 O111 2.305 . S
Ho81 C92 2.811 . S
Ho81 O101 2.346 . S
Ho81 O105 2.305 . S
Ho81 O106 2.322 . S
Ho81 O108 2.378 . S
Ho81 O109 2.524 . S
Ho81 O110 2.381 . S
Ho81 O111 2.669 . S
C82 O100 1.259 . S
C82 O101 1.268 . S
C83 Ho80 2.811 . S
C83 C84 1.488 . S
C83 O102 1.215 . S
C83 O103 1.289 . S
C84 C83 1.488 . S
C84 C85 1.348 . S
C84 C89 1.413 . S
C85 C84 1.348 . S
C85 C86 1.442 . S
C85 H112 0.930 . S
C86 C85 1.442 . S
C86 C87 1.381 . S
C86 H113 0.931 . S
C87 C86 1.381 . S
C87 C88 1.321 . S
C88 C87 1.321 . S
C88 C89 1.403 . S
C88 H114 0.934 . S
C89 C84 1.413 . S
C89 C88 1.403 . S
C89 H115 0.930 . S
C90 O104 1.275 . S
C90 O105 1.256 . S
C91 O106 1.259 . S
C91 O107 1.268 . S
C92 Ho81 2.811 . S
C92 C93 1.488 . S
C92 O108 1.215 . S
C92 O109 1.289 . S
C93 C92 1.488 . S
C93 C94 1.348 . S
C93 C98 1.413 . S
C94 C93 1.348 . S
C94 C95 1.442 . S
C94 H116 0.930 . S
C95 C94 1.442 . S
C95 C96 1.381 . S
C95 H117 0.931 . S
C96 C95 1.381 . S
C96 C97 1.321 . S
C97 C96 1.321 . S
C97 C98 1.403 . S
C97 H118 0.934 . S
C98 C93 1.413 . S
C98 C97 1.403 . S
C98 H119 0.930 . S
C99 O110 1.275 . S
C99 O111 1.256 . S
O100 Ho80 2.322 . S
O100 C82 1.259 . S
O101 Ho81 2.346 . S
O101 C82 1.268 . S
O102 Ho80 2.378 . S
O102 C83 1.215 . S
O103 Ho80 2.524 . S
O103 C83 1.289 . S
O104 Ho80 2.381 . S
O104 C90 1.275 . S
O105 Ho80 2.669 . S
O105 Ho81 2.305 . S
O105 C90 1.256 . S
O106 Ho81 2.322 . S
O106 C91 1.259 . S
O107 Ho80 2.346 . S
O107 C91 1.268 . S
O108 Ho81 2.378 . S
O108 C92 1.215 . S
O109 Ho81 2.524 . S
O109 C92 1.289 . S
O110 Ho81 2.381 . S
O110 C99 1.275 . S
O111 Ho80 2.305 . S
O111 Ho81 2.669 . S
O111 C99 1.256 . S
H112 C85 0.930 . S
H113 C86 0.931 . S
H114 C88 0.934 . S
H115 C89 0.930 . S
H116 C94 0.930 . S
H117 C95 0.931 . S
H118 C97 0.934 . S
H119 C98 0.930 . S
Ho120 C123 2.811 . S
Ho120 O140 2.322 . S
Ho120 O142 2.378 . S
Ho120 O143 2.524 . S
Ho120 O144 2.381 . S
Ho120 O145 2.669 . S
Ho120 O147 2.346 . S
Ho120 O151 2.305 . S
Ho121 C132 2.811 . S
Ho121 O141 2.346 . S
Ho121 O145 2.305 . S
Ho121 O146 2.322 . S
Ho121 O148 2.378 . S
Ho121 O149 2.524 . S
Ho121 O150 2.381 . S
Ho121 O151 2.669 . S
C122 O140 1.259 . S
C122 O141 1.268 . S
C123 Ho120 2.811 . S
C123 C124 1.488 . S
C123 O142 1.215 . S
C123 O143 1.289 . S
C124 C123 1.488 . S
C124 C125 1.348 1_556 S
C124 C129 1.413 1_556 S
C125 C124 1.348 1_554 S
C125 C126 1.442 . S
C125 H152 0.930 . S
C126 C125 1.442 . S
C126 C127 1.381 . S
C126 H153 0.931 . S
C127 C126 1.381 . S
C127 C128 1.321 . S
C128 C127 1.321 . S
C128 C129 1.403 . S
C128 H154 0.934 . S
C129 C124 1.413 1_554 S
C129 C128 1.403 . S
C129 H155 0.930 1_554 S
C130 O144 1.275 . S
C130 O145 1.256 . S
C131 O146 1.259 . S
C131 O147 1.268 . S
C132 Ho121 2.811 . S
C132 C133 1.488 . S
C132 O148 1.215 . S
C132 O149 1.289 . S
C133 C132 1.488 . S
C133 C134 1.348 . S
C133 C138 1.413 . S
C134 C133 1.348 . S
C134 C135 1.442 . S
C134 H156 0.930 . S
C135 C134 1.442 . S
C135 C136 1.381 . S
C135 H157 0.931 . S
C136 C135 1.381 . S
C136 C137 1.321 . S
C137 C136 1.321 . S
C137 C138 1.403 . S
C137 H158 0.934 . S
C138 C133 1.413 . S
C138 C137 1.403 . S
C138 H159 0.930 . S
C139 O150 1.275 . S
C139 O151 1.256 . S
O140 Ho120 2.322 . S
O140 C122 1.259 . S
O141 Ho121 2.346 . S
O141 C122 1.268 . S
O142 Ho120 2.378 . S
O142 C123 1.215 . S
O143 Ho120 2.524 . S
O143 C123 1.289 . S
O144 Ho120 2.381 . S
O144 C130 1.275 . S
O145 Ho120 2.669 . S
O145 Ho121 2.305 . S
O145 C130 1.256 . S
O146 Ho121 2.322 . S
O146 C131 1.259 . S
O147 Ho120 2.346 . S
O147 C131 1.268 . S
O148 Ho121 2.378 . S
O148 C132 1.215 . S
O149 Ho121 2.524 . S
O149 C132 1.289 . S
O150 Ho121 2.381 . S
O150 C139 1.275 . S
O151 Ho120 2.305 . S
O151 Ho121 2.669 . S
O151 C139 1.256 . S
H152 C125 0.930 . S
H153 C126 0.931 . S
H154 C128 0.934 . S
H155 C129 0.930 1_556 S
H156 C134 0.930 . S
H157 C135 0.931 . S
H158 C137 0.934 . S
H159 C138 0.930 . S
Ho160 C163 2.811 1_556 S
Ho160 O180 2.322 . S
Ho160 O182 2.378 . S
Ho160 O183 2.524 . S
Ho160 O184 2.381 . S
Ho160 O185 2.669 . S
Ho160 O187 2.346 . S
Ho160 O191 2.305 . S
Ho161 C172 2.811 . S
Ho161 O181 2.346 . S
Ho161 O185 2.305 1_655 S
Ho161 O186 2.322 1_655 S
Ho161 O188 2.378 . S
Ho161 O189 2.524 . S
Ho161 O190 2.381 . S
Ho161 O191 2.669 1_655 S
C162 O180 1.259 1_655 S
C162 O181 1.268 . S
C163 Ho160 2.811 1_554 S
C163 C164 1.488 . S
C163 O182 1.215 1_554 S
C163 O183 1.289 1_554 S
C164 C163 1.488 . S
C164 C165 1.348 . S
C164 C169 1.413 . S
C165 C164 1.348 . S
C165 C166 1.442 . S
C165 H192 0.930 . S
C166 C165 1.442 . S
C166 C167 1.381 . S
C166 H193 0.931 . S
C167 C166 1.381 . S
C167 C168 1.321 . S
C168 C167 1.321 . S
C168 C169 1.403 . S
C168 H194 0.934 . S
C169 C164 1.413 . S
C169 C168 1.403 . S
C169 H195 0.930 . S
C170 O184 1.275 . S
C170 O185 1.256 . S
C171 O186 1.259 . S
C171 O187 1.268 . S
C172 Ho161 2.811 . S
C172 C173 1.488 . S
C172 O188 1.215 . S
C172 O189 1.289 . S
C173 C172 1.488 . S
C173 C174 1.348 . S
C173 C178 1.413 . S
C174 C173 1.348 . S
C174 C175 1.442 . S
C174 H196 0.930 . S
C175 C174 1.442 . S
C175 C176 1.381 . S
C175 H197 0.931 . S
C176 C175 1.381 . S
C176 C177 1.321 . S
C177 C176 1.321 . S
C177 C178 1.403 . S
C177 H198 0.934 . S
C178 C173 1.413 . S
C178 C177 1.403 . S
C178 H199 0.930 . S
C179 O190 1.275 1_455 S
C179 O191 1.256 . S
O180 Ho160 2.322 . S
O180 C162 1.259 1_455 S
O181 Ho161 2.346 . S
O181 C162 1.268 . S
O182 Ho160 2.378 . S
O182 C163 1.215 1_556 S
O183 Ho160 2.524 . S
O183 C163 1.289 1_556 S
O184 Ho160 2.381 . S
O184 C170 1.275 . S
O185 Ho160 2.669 . S
O185 Ho161 2.305 1_455 S
O185 C170 1.256 . S
O186 Ho161 2.322 1_455 S
O186 C171 1.259 . S
O187 Ho160 2.346 . S
O187 C171 1.268 . S
O188 Ho161 2.378 . S
O188 C172 1.215 . S
O189 Ho161 2.524 . S
O189 C172 1.289 . S
O190 Ho161 2.381 . S
O190 C179 1.275 1_655 S
O191 Ho160 2.305 . S
O191 Ho161 2.669 1_455 S
O191 C179 1.256 . S
H192 C165 0.930 . S
H193 C166 0.931 . S
H194 C168 0.934 . S
H195 C169 0.930 . S
H196 C174 0.930 . S
H197 C175 0.931 . S
H198 C177 0.934 . S
H199 C178 0.930 . S
Ho200 C203 2.811 . S
Ho200 O220 2.322 . S
Ho200 O222 2.378 . S
Ho200 O223 2.524 . S
Ho200 O224 2.381 . S
Ho200 O225 2.669 . S
Ho200 O227 2.346 . S
Ho200 O231 2.305 . S
Ho201 C212 2.811 . S
Ho201 O221 2.346 . S
Ho201 O225 2.305 . S
Ho201 O226 2.322 . S
Ho201 O228 2.378 . S
Ho201 O229 2.524 . S
Ho201 O230 2.381 . S
Ho201 O231 2.669 . S
C202 O220 1.259 . S
C202 O221 1.268 . S
C203 Ho200 2.811 . S
C203 C204 1.488 . S
C203 O222 1.215 . S
C203 O223 1.289 . S
C204 C203 1.488 . S
C204 C205 1.348 . S
C204 C209 1.413 . S
C205 C204 1.348 . S
C205 C206 1.442 . S
C205 H232 0.930 . S
C206 C205 1.442 . S
C206 C207 1.381 . S
C206 H233 0.931 . S
C207 C206 1.381 . S
C207 C208 1.321 . S
C208 C207 1.321 . S
C208 C209 1.403 . S
C208 H234 0.934 . S
C209 C204 1.413 . S
C209 C208 1.403 . S
C209 H235 0.930 . S
C210 O224 1.275 . S
C210 O225 1.256 . S
C211 O226 1.259 . S
C211 O227 1.268 . S
C212 Ho201 2.811 . S
C212 C213 1.488 . S
C212 O228 1.215 . S
C212 O229 1.289 . S
C213 C212 1.488 . S
C213 C214 1.348 . S
C213 C218 1.413 . S
C214 C213 1.348 . S
C214 C215 1.442 1_554 S
C214 H236 0.930 . S
C215 C214 1.442 1_556 S
C215 C216 1.381 . S
C215 H237 0.931 . S
C216 C215 1.381 . S
C216 C217 1.321 . S
C217 C216 1.321 . S
C217 C218 1.403 1_556 S
C217 H238 0.934 . S
C218 C213 1.413 . S
C218 C217 1.403 1_554 S
C218 H239 0.930 . S
C219 O230 1.275 . S
C219 O231 1.256 . S
O220 Ho200 2.322 . S
O220 C202 1.259 . S
O221 Ho201 2.346 . S
O221 C202 1.268 . S
O222 Ho200 2.378 . S
O222 C203 1.215 . S
O223 Ho200 2.524 . S
O223 C203 1.289 . S
O224 Ho200 2.381 . S
O224 C210 1.275 . S
O225 Ho200 2.669 . S
O225 Ho201 2.305 . S
O225 C210 1.256 . S
O226 Ho201 2.322 . S
O226 C211 1.259 . S
O227 Ho200 2.346 . S
O227 C211 1.268 . S
O228 Ho201 2.378 . S
O228 C212 1.215 . S
O229 Ho201 2.524 . S
O229 C212 1.289 . S
O230 Ho201 2.381 . S
O230 C219 1.275 . S
O231 Ho200 2.305 . S
O231 Ho201 2.669 . S
O231 C219 1.256 . S
H232 C205 0.930 . S
H233 C206 0.931 . S
H234 C208 0.934 . S
H235 C209 0.930 . S
H236 C214 0.930 . S
H237 C215 0.931 . S
H238 C217 0.934 . S
H239 C218 0.930 . S
Ho240 C243 2.811 . S
Ho240 O260 2.322 . S
Ho240 O262 2.378 . S
Ho240 O263 2.524 . S
Ho240 O264 2.381 . S
Ho240 O265 2.669 . S
Ho240 O267 2.346 . S
Ho240 O271 2.305 . S
Ho241 C252 2.811 . S
Ho241 O261 2.346 . S
Ho241 O265 2.305 . S
Ho241 O266 2.322 . S
Ho241 O268 2.378 . S
Ho241 O269 2.524 . S
Ho241 O270 2.381 . S
Ho241 O271 2.669 . S
C242 O260 1.259 . S
C242 O261 1.268 . S
C243 Ho240 2.811 . S
C243 C244 1.488 . S
C243 O262 1.215 . S
C243 O263 1.289 . S
C244 C243 1.488 . S
C244 C245 1.348 . S
C244 C249 1.413 . S
C245 C244 1.348 . S
C245 C246 1.442 . S
C245 H272 0.930 . S
C246 C245 1.442 . S
C246 C247 1.381 . S
C246 H273 0.931 . S
C247 C246 1.381 . S
C247 C248 1.321 . S
C248 C247 1.321 . S
C248 C249 1.403 . S
C248 H274 0.934 . S
C249 C244 1.413 . S
C249 C248 1.403 . S
C249 H275 0.930 . S
C250 O264 1.275 . S
C250 O265 1.256 . S
C251 O266 1.259 . S
C251 O267 1.268 . S
C252 Ho241 2.811 . S
C252 C253 1.488 . S
C252 O268 1.215 . S
C252 O269 1.289 . S
C253 C252 1.488 . S
C253 C254 1.348 . S
C253 C258 1.413 . S
C254 C253 1.348 . S
C254 C255 1.442 . S
C254 H276 0.930 . S
C255 C254 1.442 . S
C255 C256 1.381 . S
C255 H277 0.931 . S
C256 C255 1.381 . S
C256 C257 1.321 . S
C257 C256 1.321 . S
C257 C258 1.403 . S
C257 H278 0.934 . S
C258 C253 1.413 . S
C258 C257 1.403 . S
C258 H279 0.930 . S
C259 O270 1.275 . S
C259 O271 1.256 . S
O260 Ho240 2.322 . S
O260 C242 1.259 . S
O261 Ho241 2.346 . S
O261 C242 1.268 . S
O262 Ho240 2.378 . S
O262 C243 1.215 . S
O263 Ho240 2.524 . S
O263 C243 1.289 . S
O264 Ho240 2.381 . S
O264 C250 1.275 . S
O265 Ho240 2.669 . S
O265 Ho241 2.305 . S
O265 C250 1.256 . S
O266 Ho241 2.322 . S
O266 C251 1.259 . S
O267 Ho240 2.346 . S
O267 C251 1.268 . S
O268 Ho241 2.378 . S
O268 C252 1.215 . S
O269 Ho241 2.524 . S
O269 C252 1.289 . S
O270 Ho241 2.381 . S
O270 C259 1.275 . S
O271 Ho240 2.305 . S
O271 Ho241 2.669 . S
O271 C259 1.256 . S
H272 C245 0.930 . S
H273 C246 0.931 . S
H274 C248 0.934 . S
H275 C249 0.930 . S
H276 C254 0.930 . S
H277 C255 0.931 . S
H278 C257 0.934 . S
H279 C258 0.930 . S
Ho280 C283 2.811 . S
Ho280 O300 2.322 . S
Ho280 O302 2.378 . S
Ho280 O303 2.524 . S
Ho280 O304 2.381 . S
Ho280 O305 2.669 . S
Ho280 O307 2.346 . S
Ho280 O311 2.305 . S
Ho281 C292 2.811 . S
Ho281 O301 2.346 . S
Ho281 O305 2.305 . S
Ho281 O306 2.322 . S
Ho281 O308 2.378 . S
Ho281 O309 2.524 . S
Ho281 O310 2.381 . S
Ho281 O311 2.669 . S
C282 O300 1.259 . S
C282 O301 1.268 . S
C283 Ho280 2.811 . S
C283 C284 1.488 . S
C283 O302 1.215 . S
C283 O303 1.289 . S
C284 C283 1.488 . S
C284 C285 1.348 . S
C284 C289 1.413 . S
C285 C284 1.348 . S
C285 C286 1.442 . S
C285 H312 0.930 . S
C286 C285 1.442 . S
C286 C287 1.381 . S
C286 H313 0.931 . S
C287 C286 1.381 . S
C287 C288 1.321 . S
C288 C287 1.321 . S
C288 C289 1.403 . S
C288 H314 0.934 . S
C289 C284 1.413 . S
C289 C288 1.403 . S
C289 H315 0.930 . S
C290 O304 1.275 . S
C290 O305 1.256 . S
C291 O306 1.259 . S
C291 O307 1.268 . S
C292 Ho281 2.811 . S
C292 C293 1.488 . S
C292 O308 1.215 . S
C292 O309 1.289 . S
C293 C292 1.488 . S
C293 C294 1.348 . S
C293 C298 1.413 . S
C294 C293 1.348 . S
C294 C295 1.442 . S
C294 H316 0.930 . S
C295 C294 1.442 . S
C295 C296 1.381 . S
C295 H317 0.931 . S
C296 C295 1.381 . S
C296 C297 1.321 . S
C297 C296 1.321 . S
C297 C298 1.403 . S
C297 H318 0.934 . S
C298 C293 1.413 . S
C298 C297 1.403 . S
C298 H319 0.930 . S
C299 O310 1.275 . S
C299 O311 1.256 . S
O300 Ho280 2.322 . S
O300 C282 1.259 . S
O301 Ho281 2.346 . S
O301 C282 1.268 . S
O302 Ho280 2.378 . S
O302 C283 1.215 . S
O303 Ho280 2.524 . S
O303 C283 1.289 . S
O304 Ho280 2.381 . S
O304 C290 1.275 . S
O305 Ho280 2.669 . S
O305 Ho281 2.305 . S
O305 C290 1.256 . S
O306 Ho281 2.322 . S
O306 C291 1.259 . S
O307 Ho280 2.346 . S
O307 C291 1.268 . S
O308 Ho281 2.378 . S
O308 C292 1.215 . S
O309 Ho281 2.524 . S
O309 C292 1.289 . S
O310 Ho281 2.381 . S
O310 C299 1.275 . S
O311 Ho280 2.305 . S
O311 Ho281 2.669 . S
O311 C299 1.256 . S
H312 C285 0.930 . S
H313 C286 0.931 . S
H314 C288 0.934 . S
H315 C289 0.930 . S
H316 C294 0.930 . S
H317 C295 0.931 . S
H318 C297 0.934 . S
H319 C298 0.930 . S
Ho320 C323 2.811 . S
Ho320 O340 2.322 . S
Ho320 O342 2.378 . S
Ho320 O343 2.524 . S
Ho320 O344 2.381 . S
Ho320 O345 2.669 . S
Ho320 O347 2.346 . S
Ho320 O351 2.305 . S
Ho321 C332 2.811 . S
Ho321 O341 2.346 . S
Ho321 O345 2.305 . S
Ho321 O346 2.322 . S
Ho321 O348 2.378 . S
Ho321 O349 2.524 . S
Ho321 O350 2.381 . S
Ho321 O351 2.669 . S
C322 O340 1.259 . S
C322 O341 1.268 . S
C323 Ho320 2.811 . S
C323 C324 1.488 . S
C323 O342 1.215 . S
C323 O343 1.289 . S
C324 C323 1.488 . S
C324 C325 1.348 . S
C324 C329 1.413 . S
C325 C324 1.348 . S
C325 C326 1.442 . S
C325 H352 0.930 . S
C326 C325 1.442 . S
C326 C327 1.381 . S
C326 H353 0.931 . S
C327 C326 1.381 . S
C327 C328 1.321 . S
C328 C327 1.321 . S
C328 C329 1.403 . S
C328 H354 0.934 . S
C329 C324 1.413 . S
C329 C328 1.403 . S
C329 H355 0.930 . S
C330 O344 1.275 . S
C330 O345 1.256 . S
C331 O346 1.259 . S
C331 O347 1.268 . S
C332 Ho321 2.811 . S
C332 C333 1.488 . S
C332 O348 1.215 . S
C332 O349 1.289 . S
C333 C332 1.488 . S
C333 C334 1.348 . S
C333 C338 1.413 . S
C334 C333 1.348 . S
C334 C335 1.442 . S
C334 H356 0.930 . S
C335 C334 1.442 . S
C335 C336 1.381 . S
C335 H357 0.931 . S
C336 C335 1.381 . S
C336 C337 1.321 . S
C337 C336 1.321 . S
C337 C338 1.403 . S
C337 H358 0.934 . S
C338 C333 1.413 . S
C338 C337 1.403 . S
C338 H359 0.930 . S
C339 O350 1.275 . S
C339 O351 1.256 . S
O340 Ho320 2.322 . S
O340 C322 1.259 . S
O341 Ho321 2.346 . S
O341 C322 1.268 . S
O342 Ho320 2.378 . S
O342 C323 1.215 . S
O343 Ho320 2.524 . S
O343 C323 1.289 . S
O344 Ho320 2.381 . S
O344 C330 1.275 . S
O345 Ho320 2.669 . S
O345 Ho321 2.305 . S
O345 C330 1.256 . S
O346 Ho321 2.322 . S
O346 C331 1.259 . S
O347 Ho320 2.346 . S
O347 C331 1.268 . S
O348 Ho321 2.378 . S
O348 C332 1.215 . S
O349 Ho321 2.524 . S
O349 C332 1.289 . S
O350 Ho321 2.381 . S
O350 C339 1.275 . S
O351 Ho320 2.305 . S
O351 Ho321 2.669 . S
O351 C339 1.256 . S
H352 C325 0.930 . S
H353 C326 0.931 . S
H354 C328 0.934 . S
H355 C329 0.930 . S
H356 C334 0.930 . S
H357 C335 0.931 . S
H358 C337 0.934 . S
H359 C338 0.930 . S
Ho360 C363 2.811 . S
Ho360 O380 2.322 . S
Ho360 O382 2.378 . S
Ho360 O383 2.524 . S
Ho360 O384 2.381 . S
Ho360 O385 2.669 . S
Ho360 O387 2.346 . S
Ho360 O391 2.305 . S
Ho361 C372 2.811 1_554 S
Ho361 O381 2.346 . S
Ho361 O385 2.305 . S
Ho361 O386 2.322 . S
Ho361 O388 2.378 . S
Ho361 O389 2.524 1_554 S
Ho361 O390 2.381 . S
Ho361 O391 2.669 . S
C362 O380 1.259 . S
C362 O381 1.268 . S
C363 Ho360 2.811 . S
C363 C364 1.488 . S
C363 O382 1.215 . S
C363 O383 1.289 . S
C364 C363 1.488 . S
C364 C365 1.348 . S
C364 C369 1.413 . S
C365 C364 1.348 . S
C365 C366 1.442 . S
C365 H392 0.930 . S
C366 C365 1.442 . S
C366 C367 1.381 . S
C366 H393 0.931 . S
C367 C366 1.381 . S
C367 C368 1.321 . S
C368 C367 1.321 . S
C368 C369 1.403 . S
C368 H394 0.934 . S
C369 C364 1.413 . S
C369 C368 1.403 . S
C369 H395 0.930 . S
C370 O384 1.275 . S
C370 O385 1.256 . S
C371 O386 1.259 . S
C371 O387 1.268 . S
C372 Ho361 2.811 1_556 S
C372 C373 1.488 . S
C372 O388 1.215 1_556 S
C372 O389 1.289 . S
C373 C372 1.488 . S
C373 C374 1.348 . S
C373 C378 1.413 . S
C374 C373 1.348 . S
C374 C375 1.442 . S
C374 H396 0.930 . S
C375 C374 1.442 . S
C375 C376 1.381 . S
C375 H397 0.931 . S
C376 C375 1.381 . S
C376 C377 1.321 . S
C377 C376 1.321 . S
C377 C378 1.403 . S
C377 H398 0.934 . S
C378 C373 1.413 . S
C378 C377 1.403 . S
C378 H399 0.930 . S
C379 O390 1.275 . S
C379 O391 1.256 . S
O380 Ho360 2.322 . S
O380 C362 1.259 . S
O381 Ho361 2.346 . S
O381 C362 1.268 . S
O382 Ho360 2.378 . S
O382 C363 1.215 . S
O383 Ho360 2.524 . S
O383 C363 1.289 . S
O384 Ho360 2.381 . S
O384 C370 1.275 . S
O385 Ho360 2.669 . S
O385 Ho361 2.305 . S
O385 C370 1.256 . S
O386 Ho361 2.322 . S
O386 C371 1.259 . S
O387 Ho360 2.346 . S
O387 C371 1.268 . S
O388 Ho361 2.378 . S
O388 C372 1.215 1_554 S
O389 Ho361 2.524 1_556 S
O389 C372 1.289 . S
O390 Ho361 2.381 . S
O390 C379 1.275 . S
O391 Ho360 2.305 . S
O391 Ho361 2.669 . S
O391 C379 1.256 . S
H392 C365 0.930 . S
H393 C366 0.931 . S
H394 C368 0.934 . S
H395 C369 0.930 . S
H396 C374 0.930 . S
H397 C375 0.931 . S
H398 C377 0.934 . S
H399 C378 0.930 . S
Ho400 C403 2.811 . S
Ho400 O420 2.322 . S
Ho400 O422 2.378 . S
Ho400 O423 2.524 . S
Ho400 O424 2.381 . S
Ho400 O425 2.669 . S
Ho400 O427 2.346 . S
Ho400 O431 2.305 . S
Ho401 C412 2.811 . S
Ho401 O421 2.346 . S
Ho401 O425 2.305 . S
Ho401 O426 2.322 . S
Ho401 O428 2.378 . S
Ho401 O429 2.524 . S
Ho401 O430 2.381 . S
Ho401 O431 2.669 . S
C402 O420 1.259 . S
C402 O421 1.268 . S
C403 Ho400 2.811 . S
C403 C404 1.488 1_556 S
C403 O422 1.215 . S
C403 O423 1.289 . S
C404 C403 1.488 1_554 S
C404 C405 1.348 . S
C404 C409 1.413 . S
C405 C404 1.348 . S
C405 C406 1.442 . S
C405 H432 0.930 . S
C406 C405 1.442 . S
C406 C407 1.381 . S
C406 H433 0.931 . S
C407 C406 1.381 . S
C407 C408 1.321 . S
C408 C407 1.321 . S
C408 C409 1.403 . S
C408 H434 0.934 . S
C409 C404 1.413 . S
C409 C408 1.403 . S
C409 H435 0.930 . S
C410 O424 1.275 . S
C410 O425 1.256 . S
C411 O426 1.259 . S
C411 O427 1.268 . S
C412 Ho401 2.811 . S
C412 C413 1.488 . S
C412 O428 1.215 . S
C412 O429 1.289 . S
C413 C412 1.488 . S
C413 C414 1.348 . S
C413 C418 1.413 . S
C414 C413 1.348 . S
C414 C415 1.442 . S
C414 H436 0.930 . S
C415 C414 1.442 . S
C415 C416 1.381 . S
C415 H437 0.931 . S
C416 C415 1.381 . S
C416 C417 1.321 . S
C417 C416 1.321 . S
C417 C418 1.403 . S
C417 H438 0.934 . S
C418 C413 1.413 . S
C418 C417 1.403 . S
C418 H439 0.930 . S
C419 O430 1.275 . S
C419 O431 1.256 . S
O420 Ho400 2.322 . S
O420 C402 1.259 . S
O421 Ho401 2.346 . S
O421 C402 1.268 . S
O422 Ho400 2.378 . S
O422 C403 1.215 . S
O423 Ho400 2.524 . S
O423 C403 1.289 . S
O424 Ho400 2.381 . S
O424 C410 1.275 . S
O425 Ho400 2.669 . S
O425 Ho401 2.305 . S
O425 C410 1.256 . S
O426 Ho401 2.322 . S
O426 C411 1.259 . S
O427 Ho400 2.346 . S
O427 C411 1.268 . S
O428 Ho401 2.378 . S
O428 C412 1.215 . S
O429 Ho401 2.524 . S
O429 C412 1.289 . S
O430 Ho401 2.381 . S
O430 C419 1.275 . S
O431 Ho400 2.305 . S
O431 Ho401 2.669 . S
O431 C419 1.256 . S
H432 C405 0.930 . S
H433 C406 0.931 . S
H434 C408 0.934 . S
H435 C409 0.930 . S
H436 C414 0.930 . S
H437 C415 0.931 . S
H438 C417 0.934 . S
H439 C418 0.930 . S
Ho440 C443 2.811 . S
Ho440 O460 2.322 . S
Ho440 O462 2.378 . S
Ho440 O463 2.524 . S
Ho440 O464 2.381 . S
Ho440 O465 2.669 . S
Ho440 O467 2.346 . S
Ho440 O471 2.305 . S
Ho441 C452 2.811 . S
Ho441 O461 2.346 . S
Ho441 O465 2.305 . S
Ho441 O466 2.322 . S
Ho441 O468 2.378 . S
Ho441 O469 2.524 . S
Ho441 O470 2.381 . S
Ho441 O471 2.669 . S
C442 O460 1.259 . S
C442 O461 1.268 . S
C443 Ho440 2.811 . S
C443 C444 1.488 . S
C443 O462 1.215 . S
C443 O463 1.289 . S
C444 C443 1.488 . S
C444 C445 1.348 . S
C444 C449 1.413 . S
C445 C444 1.348 . S
C445 C446 1.442 . S
C445 H472 0.930 . S
C446 C445 1.442 . S
C446 C447 1.381 . S
C446 H473 0.931 . S
C447 C446 1.381 . S
C447 C448 1.321 . S
C448 C447 1.321 . S
C448 C449 1.403 . S
C448 H474 0.934 . S
C449 C444 1.413 . S
C449 C448 1.403 . S
C449 H475 0.930 . S
C450 O464 1.275 . S
C450 O465 1.256 . S
C451 O466 1.259 . S
C451 O467 1.268 . S
C452 Ho441 2.811 . S
C452 C453 1.488 . S
C452 O468 1.215 . S
C452 O469 1.289 . S
C453 C452 1.488 . S
C453 C454 1.348 . S
C453 C458 1.413 . S
C454 C453 1.348 . S
C454 C455 1.442 . S
C454 H476 0.930 . S
C455 C454 1.442 . S
C455 C456 1.381 . S
C455 H477 0.931 . S
C456 C455 1.381 . S
C456 C457 1.321 . S
C457 C456 1.321 . S
C457 C458 1.403 . S
C457 H478 0.934 . S
C458 C453 1.413 . S
C458 C457 1.403 . S
C458 H479 0.930 . S
C459 O470 1.275 . S
C459 O471 1.256 . S
O460 Ho440 2.322 . S
O460 C442 1.259 . S
O461 Ho441 2.346 . S
O461 C442 1.268 . S
O462 Ho440 2.378 . S
O462 C443 1.215 . S
O463 Ho440 2.524 . S
O463 C443 1.289 . S
O464 Ho440 2.381 . S
O464 C450 1.275 . S
O465 Ho440 2.669 . S
O465 Ho441 2.305 . S
O465 C450 1.256 . S
O466 Ho441 2.322 . S
O466 C451 1.259 . S
O467 Ho440 2.346 . S
O467 C451 1.268 . S
O468 Ho441 2.378 . S
O468 C452 1.215 . S
O469 Ho441 2.524 . S
O469 C452 1.289 . S
O470 Ho441 2.381 . S
O470 C459 1.275 . S
O471 Ho440 2.305 . S
O471 Ho441 2.669 . S
O471 C459 1.256 . S
H472 C445 0.930 . S
H473 C446 0.931 . S
H474 C448 0.934 . S
H475 C449 0.930 . S
H476 C454 0.930 . S
H477 C455 0.931 . S
H478 C457 0.934 . S
H479 C458 0.930 . S
Ho480 C483 2.811 . S
Ho480 O500 2.322 . S
Ho480 O502 2.378 . S
Ho480 O503 2.524 . S
Ho480 O504 2.381 . S
Ho480 O505 2.669 . S
Ho480 O507 2.346 . S
Ho480 O511 2.305 . S
Ho481 C492 2.811 . S
Ho481 O501 2.346 . S
Ho481 O505 2.305 . S
Ho481 O506 2.322 . S
Ho481 O508 2.378 . S
Ho481 O509 2.524 . S
Ho481 O510 2.381 . S
Ho481 O511 2.669 . S
C482 O500 1.259 . S
C482 O501 1.268 . S
C483 Ho480 2.811 . S
C483 C484 1.488 . S
C483 O502 1.215 . S
C483 O503 1.289 . S
C484 C483 1.488 . S
C484 C485 1.348 . S
C484 C489 1.413 . S
C485 C484 1.348 . S
C485 C486 1.442 . S
C485 H512 0.930 . S
C486 C485 1.442 . S
C486 C487 1.381 . S
C486 H513 0.931 . S
C487 C486 1.381 . S
C487 C488 1.321 . S
C488 C487 1.321 . S
C488 C489 1.403 . S
C488 H514 0.934 . S
C489 C484 1.413 . S
C489 C488 1.403 . S
C489 H515 0.930 . S
C490 O504 1.275 . S
C490 O505 1.256 . S
C491 O506 1.259 . S
C491 O507 1.268 . S
C492 Ho481 2.811 . S
C492 C493 1.488 . S
C492 O508 1.215 . S
C492 O509 1.289 . S
C493 C492 1.488 . S
C493 C494 1.348 . S
C493 C498 1.413 . S
C494 C493 1.348 . S
C494 C495 1.442 . S
C494 H516 0.930 . S
C495 C494 1.442 . S
C495 C496 1.381 . S
C495 H517 0.931 . S
C496 C495 1.381 . S
C496 C497 1.321 . S
C497 C496 1.321 . S
C497 C498 1.403 . S
C497 H518 0.934 . S
C498 C493 1.413 . S
C498 C497 1.403 . S
C498 H519 0.930 . S
C499 O510 1.275 . S
C499 O511 1.256 . S
O500 Ho480 2.322 . S
O500 C482 1.259 . S
O501 Ho481 2.346 . S
O501 C482 1.268 . S
O502 Ho480 2.378 . S
O502 C483 1.215 . S
O503 Ho480 2.524 . S
O503 C483 1.289 . S
O504 Ho480 2.381 . S
O504 C490 1.275 . S
O505 Ho480 2.669 . S
O505 Ho481 2.305 . S
O505 C490 1.256 . S
O506 Ho481 2.322 . S
O506 C491 1.259 . S
O507 Ho480 2.346 . S
O507 C491 1.268 . S
O508 Ho481 2.378 . S
O508 C492 1.215 . S
O509 Ho481 2.524 . S
O509 C492 1.289 . S
O510 Ho481 2.381 . S
O510 C499 1.275 . S
O511 Ho480 2.305 . S
O511 Ho481 2.669 . S
O511 C499 1.256 . S
H512 C485 0.930 . S
H513 C486 0.931 . S
H514 C488 0.934 . S
H515 C489 0.930 . S
H516 C494 0.930 . S
H517 C495 0.931 . S
H518 C497 0.934 . S
H519 C498 0.930 . S
Ho520 C523 2.811 . S
Ho520 O540 2.322 1_655 S
Ho520 O542 2.378 . S
Ho520 O543 2.524 . S
Ho520 O544 2.381 . S
Ho520 O545 2.669 1_655 S
Ho520 O547 2.346 . S
Ho520 O551 2.305 1_655 S
Ho521 C532 2.811 . S
Ho521 O541 2.346 . S
Ho521 O545 2.305 . S
Ho521 O546 2.322 . S
Ho521 O548 2.378 . S
Ho521 O549 2.524 . S
Ho521 O550 2.381 . S
Ho521 O551 2.669 . S
C522 O540 1.259 . S
C522 O541 1.268 . S
C523 Ho520 2.811 . S
C523 C524 1.488 . S
C523 O542 1.215 . S
C523 O543 1.289 . S
C524 C523 1.488 . S
C524 C525 1.348 . S
C524 C529 1.413 . S
C525 C524 1.348 . S
C525 C526 1.442 . S
C525 H552 0.930 . S
C526 C525 1.442 . S
C526 C527 1.381 . S
C526 H553 0.931 . S
C527 C526 1.381 . S
C527 C528 1.321 . S
C528 C527 1.321 . S
C528 C529 1.403 . S
C528 H554 0.934 . S
C529 C524 1.413 . S
C529 C528 1.403 . S
C529 H555 0.930 . S
C530 O544 1.275 1_455 S
C530 O545 1.256 . S
C531 O546 1.259 1_655 S
C531 O547 1.268 . S
C532 Ho521 2.811 . S
C532 C533 1.488 1_554 S
C532 O548 1.215 . S
C532 O549 1.289 . S
C533 C532 1.488 1_556 S
C533 C534 1.348 . S
C533 C538 1.413 . S
C534 C533 1.348 . S
C534 C535 1.442 . S
C534 H556 0.930 . S
C535 C534 1.442 . S
C535 C536 1.381 . S
C535 H557 0.931 . S
C536 C535 1.381 . S
C536 C537 1.321 . S
C537 C536 1.321 . S
C537 C538 1.403 . S
C537 H558 0.934 . S
C538 C533 1.413 . S
C538 C537 1.403 . S
C538 H559 0.930 . S
C539 O550 1.275 . S
C539 O551 1.256 . S
O540 Ho520 2.322 1_455 S
O540 C522 1.259 . S
O541 Ho521 2.346 . S
O541 C522 1.268 . S
O542 Ho520 2.378 . S
O542 C523 1.215 . S
O543 Ho520 2.524 . S
O543 C523 1.289 . S
O544 Ho520 2.381 . S
O544 C530 1.275 1_655 S
O545 Ho520 2.669 1_455 S
O545 Ho521 2.305 . S
O545 C530 1.256 . S
O546 Ho521 2.322 . S
O546 C531 1.259 1_455 S
O547 Ho520 2.346 . S
O547 C531 1.268 . S
O548 Ho521 2.378 . S
O548 C532 1.215 . S
O549 Ho521 2.524 . S
O549 C532 1.289 . S
O550 Ho521 2.381 . S
O550 C539 1.275 . S
O551 Ho520 2.305 1_455 S
O551 Ho521 2.669 . S
O551 C539 1.256 . S
H552 C525 0.930 . S
H553 C526 0.931 . S
H554 C528 0.934 . S
H555 C529 0.930 . S
H556 C534 0.930 . S
H557 C535 0.931 . S
H558 C537 0.934 . S
H559 C538 0.930 . S
Ho560 C563 2.811 . S
Ho560 O580 2.322 . S
Ho560 O582 2.378 . S
Ho560 O583 2.524 . S
Ho560 O584 2.381 . S
Ho560 O585 2.669 . S
Ho560 O587 2.346 . S
Ho560 O591 2.305 . S
Ho561 C572 2.811 . S
Ho561 O581 2.346 . S
Ho561 O585 2.305 . S
Ho561 O586 2.322 . S
Ho561 O588 2.378 . S
Ho561 O589 2.524 . S
Ho561 O590 2.381 . S
Ho561 O591 2.669 . S
C562 O580 1.259 . S
C562 O581 1.268 . S
C563 Ho560 2.811 . S
C563 C564 1.488 . S
C563 O582 1.215 . S
C563 O583 1.289 . S
C564 C563 1.488 . S
C564 C565 1.348 . S
C564 C569 1.413 . S
C565 C564 1.348 . S
C565 C566 1.442 . S
C565 H592 0.930 . S
C566 C565 1.442 . S
C566 C567 1.381 . S
C566 H593 0.931 . S
C567 C566 1.381 . S
C567 C568 1.321 . S
C568 C567 1.321 . S
C568 C569 1.403 . S
C568 H594 0.934 . S
C569 C564 1.413 . S
C569 C568 1.403 . S
C569 H595 0.930 . S
C570 O584 1.275 . S
C570 O585 1.256 . S
C571 O586 1.259 . S
C571 O587 1.268 . S
C572 Ho561 2.811 . S
C572 C573 1.488 . S
C572 O588 1.215 . S
C572 O589 1.289 . S
C573 C572 1.488 . S
C573 C574 1.348 . S
C573 C578 1.413 . S
C574 C573 1.348 . S
C574 C575 1.442 . S
C574 H596 0.930 . S
C575 C574 1.442 . S
C575 C576 1.381 . S
C575 H597 0.931 . S
C576 C575 1.381 . S
C576 C577 1.321 . S
C577 C576 1.321 . S
C577 C578 1.403 . S
C577 H598 0.934 . S
C578 C573 1.413 . S
C578 C577 1.403 . S
C578 H599 0.930 . S
C579 O590 1.275 . S
C579 O591 1.256 . S
O580 Ho560 2.322 . S
O580 C562 1.259 . S
O581 Ho561 2.346 . S
O581 C562 1.268 . S
O582 Ho560 2.378 . S
O582 C563 1.215 . S
O583 Ho560 2.524 . S
O583 C563 1.289 . S
O584 Ho560 2.381 . S
O584 C570 1.275 . S
O585 Ho560 2.669 . S
O585 Ho561 2.305 . S
O585 C570 1.256 . S
O586 Ho561 2.322 . S
O586 C571 1.259 . S
O587 Ho560 2.346 . S
O587 C571 1.268 . S
O588 Ho561 2.378 . S
O588 C572 1.215 . S
O589 Ho561 2.524 . S
O589 C572 1.289 . S
O590 Ho561 2.381 . S
O590 C579 1.275 . S
O591 Ho560 2.305 . S
O591 Ho561 2.669 . S
O591 C579 1.256 . S
H592 C565 0.930 . S
H593 C566 0.931 . S
H594 C568 0.934 . S
H595 C569 0.930 . S
H596 C574 0.930 . S
H597 C575 0.931 . S
H598 C577 0.934 . S
H599 C578 0.930 . S
Ho600 C603 2.811 . S
Ho600 O620 2.322 1_655 S
Ho600 O622 2.378 . S
Ho600 O623 2.524 . S
Ho600 O624 2.381 . S
Ho600 O625 2.669 1_655 S
Ho600 O627 2.346 . S
Ho600 O631 2.305 1_655 S
Ho601 C612 2.811 . S
Ho601 O621 2.346 . S
Ho601 O625 2.305 . S
Ho601 O626 2.322 . S
Ho601 O628 2.378 . S
Ho601 O629 2.524 . S
Ho601 O630 2.381 . S
Ho601 O631 2.669 . S
C602 O620 1.259 . S
C602 O621 1.268 . S
C603 Ho600 2.811 . S
C603 C604 1.488 1_556 S
C603 O622 1.215 . S
C603 O623 1.289 . S
C604 C603 1.488 1_554 S
C604 C605 1.348 . S
C604 C609 1.413 . S
C605 C604 1.348 . S
C605 C606 1.442 . S
C605 H632 0.930 . S
C606 C605 1.442 . S
C606 C607 1.381 . S
C606 H633 0.931 . S
C607 C606 1.381 . S
C607 C608 1.321 . S
C608 C607 1.321 . S
C608 C609 1.403 . S
C608 H634 0.934 . S
C609 C604 1.413 . S
C609 C608 1.403 . S
C609 H635 0.930 . S
C610 O624 1.275 1_455 S
C610 O625 1.256 . S
C611 O626 1.259 1_655 S
C611 O627 1.268 . S
C612 Ho601 2.811 . S
C612 C613 1.488 . S
C612 O628 1.215 . S
C612 O629 1.289 . S
C613 C612 1.488 . S
C613 C614 1.348 . S
C613 C618 1.413 . S
C614 C613 1.348 . S
C614 C615 1.442 . S
C614 H636 0.930 . S
C615 C614 1.442 . S
C615 C616 1.381 . S
C615 H637 0.931 . S
C616 C615 1.381 . S
C616 C617 1.321 . S
C617 C616 1.321 . S
C617 C618 1.403 . S
C617 H638 0.934 . S
C618 C613 1.413 . S
C618 C617 1.403 . S
C618 H639 0.930 . S
C619 O630 1.275 . S
C619 O631 1.256 . S
O620 Ho600 2.322 1_455 S
O620 C602 1.259 . S
O621 Ho601 2.346 . S
O621 C602 1.268 . S
O622 Ho600 2.378 . S
O622 C603 1.215 . S
O623 Ho600 2.524 . S
O623 C603 1.289 . S
O624 Ho600 2.381 . S
O624 C610 1.275 1_655 S
O625 Ho600 2.669 1_455 S
O625 Ho601 2.305 . S
O625 C610 1.256 . S
O626 Ho601 2.322 . S
O626 C611 1.259 1_455 S
O627 Ho600 2.346 . S
O627 C611 1.268 . S
O628 Ho601 2.378 . S
O628 C612 1.215 . S
O629 Ho601 2.524 . S
O629 C612 1.289 . S
O630 Ho601 2.381 . S
O630 C619 1.275 . S
O631 Ho600 2.305 1_455 S
O631 Ho601 2.669 . S
O631 C619 1.256 . S
H632 C605 0.930 . S
H633 C606 0.931 . S
H634 C608 0.934 . S
H635 C609 0.930 . S
H636 C614 0.930 . S
H637 C615 0.931 . S
H638 C617 0.934 . S
H639 C618 0.930 . S
H640 C646 0.930 . S
H641 C649 0.930 . S
H642 C650 0.930 . S
H643 C651 0.930 . S
H644 C654 0.930 . S
H645 C655 0.930 . S
C646 H640 0.930 . S
C646 C647 1.355 . S
C646 C648 1.415 . S
C647 C646 1.355 . S
C647 C649 1.419 . S
C648 C646 1.415 . S
C648 C653 1.425 . S
C648 C655 1.409 . S
C649 H641 0.930 . S
C649 C647 1.419 . S
C649 C650 1.362 . S
C650 H642 0.930 . S
C650 C649 1.362 . S
C650 C653 1.409 . S
C651 H643 0.930 . S
C651 C652 1.355 . S
C651 C653 1.415 . S
C652 C651 1.355 . S
C652 C654 1.419 . S
C653 C648 1.425 . S
C653 C650 1.409 . S
C653 C651 1.415 . S
C654 H644 0.930 . S
C654 C652 1.419 . S
C654 C655 1.362 . S
C655 H645 0.930 . S
C655 C648 1.409 . S
C655 C654 1.362 . S
H656 C662 0.930 . S
H657 C665 0.930 . S
H658 C666 0.930 . S
H659 C667 0.930 . S
H660 C670 0.930 . S
H661 C671 0.930 . S
C662 H656 0.930 . S
C662 C663 1.355 . S
C662 C664 1.415 . S
C663 C662 1.355 . S
C663 C665 1.419 . S
C664 C662 1.415 . S
C664 C669 1.425 . S
C664 C671 1.409 . S
C665 H657 0.930 . S
C665 C663 1.419 . S
C665 C666 1.362 . S
C666 H658 0.930 . S
C666 C665 1.362 . S
C666 C669 1.409 . S
C667 H659 0.930 . S
C667 C668 1.355 . S
C667 C669 1.415 . S
C668 C667 1.355 . S
C668 C670 1.419 . S
C669 C664 1.425 . S
C669 C666 1.409 . S
C669 C667 1.415 . S
C670 H660 0.930 . S
C670 C668 1.419 . S
C670 C671 1.362 . S
C671 H661 0.930 . S
C671 C664 1.409 . S
C671 C670 1.362 . S
H672 C678 0.930 . S
H673 C681 0.930 . S
H674 C682 0.930 . S
H675 C683 0.930 . S
H676 C686 0.930 . S
H677 C687 0.930 . S
C678 H672 0.930 . S
C678 C679 1.355 . S
C678 C680 1.415 . S
C679 C678 1.355 . S
C679 C681 1.419 . S
C680 C678 1.415 . S
C680 C685 1.425 . S
C680 C687 1.409 . S
C681 H673 0.930 . S
C681 C679 1.419 . S
C681 C682 1.362 . S
C682 H674 0.930 . S
C682 C681 1.362 . S
C682 C685 1.409 . S
C683 H675 0.930 . S
C683 C684 1.355 . S
C683 C685 1.415 . S
C684 C683 1.355 . S
C684 C686 1.419 . S
C685 C680 1.425 . S
C685 C682 1.409 . S
C685 C683 1.415 . S
C686 H676 0.930 . S
C686 C684 1.419 . S
C686 C687 1.362 . S
C687 H677 0.930 . S
C687 C680 1.409 . S
C687 C686 1.362 . S
H688 C694 0.930 . S
H689 C697 0.930 . S
H690 C698 0.930 . S
H691 C699 0.930 . S
H692 C702 0.930 . S
H693 C703 0.930 . S
C694 H688 0.930 . S
C694 C695 1.355 . S
C694 C696 1.415 . S
C695 C694 1.355 . S
C695 C697 1.419 . S
C696 C694 1.415 . S
C696 C701 1.425 . S
C696 C703 1.409 . S
C697 H689 0.930 . S
C697 C695 1.419 . S
C697 C698 1.362 . S
C698 H690 0.930 . S
C698 C697 1.362 . S
C698 C701 1.409 . S
C699 H691 0.930 . S
C699 C700 1.355 . S
C699 C701 1.415 . S
C700 C699 1.355 . S
C700 C702 1.419 . S
C701 C696 1.425 . S
C701 C698 1.409 . S
C701 C699 1.415 . S
C702 H692 0.930 . S
C702 C700 1.419 . S
C702 C703 1.362 . S
C703 H693 0.930 . S
C703 C696 1.409 . S
C703 C702 1.362 . S
H704 C710 0.930 . S
H705 C713 0.930 . S
H706 C714 0.930 1_556 S
H707 C715 0.930 . S
H708 C718 0.930 1_455 S
H709 C719 0.930 1_455 S
C710 H704 0.930 . S
C710 C711 1.355 . S
C710 C712 1.415 . S
C711 C710 1.355 . S
C711 C713 1.419 . S
C712 C710 1.415 . S
C712 C717 1.425 . S
C712 C719 1.409 . S
C713 H705 0.930 . S
C713 C711 1.419 . S
C713 C714 1.362 . S
C714 H706 0.930 1_554 S
C714 C713 1.362 . S
C714 C717 1.409 . S
C715 H707 0.930 . S
C715 C716 1.355 . S
C715 C717 1.415 1_556 S
C716 C715 1.355 . S
C716 C718 1.419 1_556 S
C717 C712 1.425 . S
C717 C714 1.409 . S
C717 C715 1.415 1_554 S
C718 H708 0.930 1_655 S
C718 C716 1.419 1_554 S
C718 C719 1.362 . S
C719 H709 0.930 1_655 S
C719 C712 1.409 . S
C719 C718 1.362 . S
H720 C726 0.930 . S
H721 C729 0.930 . S
H722 C730 0.930 . S
H723 C731 0.930 . S
H724 C734 0.930 . S
H725 C735 0.930 . S
C726 H720 0.930 . S
C726 C727 1.355 . S
C726 C728 1.415 . S
C727 C726 1.355 . S
C727 C729 1.419 . S
C728 C726 1.415 . S
C728 C733 1.425 . S
C728 C735 1.409 . S
C729 H721 0.930 . S
C729 C727 1.419 . S
C729 C730 1.362 . S
C730 H722 0.930 . S
C730 C729 1.362 . S
C730 C733 1.409 . S
C731 H723 0.930 . S
C731 C732 1.355 . S
C731 C733 1.415 . S
C732 C731 1.355 . S
C732 C734 1.419 . S
C733 C728 1.425 . S
C733 C730 1.409 . S
C733 C731 1.415 . S
C734 H724 0.930 . S
C734 C732 1.419 . S
C734 C735 1.362 . S
C735 H725 0.930 . S
C735 C728 1.409 . S
C735 C734 1.362 . S
H736 C742 0.930 . S
H737 C745 0.930 . S
H738 C746 0.930 . S
H739 C747 0.930 . S
H740 C750 0.930 . S
H741 C751 0.930 . S
C742 H736 0.930 . S
C742 C743 1.355 . S
C742 C744 1.415 . S
C743 C742 1.355 . S
C743 C745 1.419 . S
C744 C742 1.415 . S
C744 C749 1.425 . S
C744 C751 1.409 . S
C745 H737 0.930 . S
C745 C743 1.419 . S
C745 C746 1.362 . S
C746 H738 0.930 . S
C746 C745 1.362 . S
C746 C749 1.409 . S
C747 H739 0.930 . S
C747 C748 1.355 . S
C747 C749 1.415 . S
C748 C747 1.355 . S
C748 C750 1.419 . S
C749 C744 1.425 . S
C749 C746 1.409 . S
C749 C747 1.415 . S
C750 H740 0.930 . S
C750 C748 1.419 . S
C750 C751 1.362 . S
C751 H741 0.930 . S
C751 C744 1.409 . S
C751 C750 1.362 . S
H752 C758 0.930 . S
H753 C761 0.930 . S
H754 C762 0.930 . S
H755 C763 0.930 . S
H756 C766 0.930 . S
H757 C767 0.930 . S
C758 H752 0.930 . S
C758 C759 1.355 . S
C758 C760 1.415 . S
C759 C758 1.355 . S
C759 C761 1.419 . S
C760 C758 1.415 . S
C760 C765 1.425 . S
C760 C767 1.409 . S
C761 H753 0.930 . S
C761 C759 1.419 . S
C761 C762 1.362 . S
C762 H754 0.930 . S
C762 C761 1.362 . S
C762 C765 1.409 . S
C763 H755 0.930 . S
C763 C764 1.355 . S
C763 C765 1.415 . S
C764 C763 1.355 . S
C764 C766 1.419 . S
C765 C760 1.425 . S
C765 C762 1.409 . S
C765 C763 1.415 . S
C766 H756 0.930 . S
C766 C764 1.419 . S
C766 C767 1.362 . S
C767 H757 0.930 . S
C767 C760 1.409 . S
C767 C766 1.362 . S
H768 C774 0.930 . S
H769 C777 0.930 . S
H770 C778 0.930 . S
H771 C779 0.930 . S
H772 C782 0.930 . S
H773 C783 0.930 . S
C774 H768 0.930 . S
C774 C775 1.355 . S
C774 C776 1.415 . S
C775 C774 1.355 . S
C775 C777 1.419 . S
C776 C774 1.415 . S
C776 C781 1.425 . S
C776 C783 1.409 . S
C777 H769 0.930 . S
C777 C775 1.419 . S
C777 C778 1.362 . S
C778 H770 0.930 . S
C778 C777 1.362 . S
C778 C781 1.409 . S
C779 H771 0.930 . S
C779 C780 1.355 . S
C779 C781 1.415 . S
C780 C779 1.355 . S
C780 C782 1.419 . S
C781 C776 1.425 . S
C781 C778 1.409 . S
C781 C779 1.415 . S
C782 H772 0.930 . S
C782 C780 1.419 . S
C782 C783 1.362 . S
C783 H773 0.930 . S
C783 C776 1.409 . S
C783 C782 1.362 . S
H784 C790 0.930 . S
H785 C793 0.930 . S
H786 C794 0.930 . S
H787 C795 0.930 . S
H788 C798 0.930 . S
H789 C799 0.930 . S
C790 H784 0.930 . S
C790 C791 1.355 . S
C790 C792 1.415 . S
C791 C790 1.355 . S
C791 C793 1.419 . S
C792 C790 1.415 . S
C792 C797 1.425 . S
C792 C799 1.409 . S
C793 H785 0.930 . S
C793 C791 1.419 . S
C793 C794 1.362 . S
C794 H786 0.930 . S
C794 C793 1.362 . S
C794 C797 1.409 . S
C795 H787 0.930 . S
C795 C796 1.355 . S
C795 C797 1.415 . S
C796 C795 1.355 . S
C796 C798 1.419 . S
C797 C792 1.425 . S
C797 C794 1.409 . S
C797 C795 1.415 . S
C798 H788 0.930 . S
C798 C796 1.419 . S
C798 C799 1.362 . S
C799 H789 0.930 . S
C799 C792 1.409 . S
C799 C798 1.362 . S
H800 C806 0.930 . S
H801 C809 0.930 . S
H802 C810 0.930 . S
H803 C811 0.930 . S
H804 C814 0.930 . S
H805 C815 0.930 . S
C806 H800 0.930 . S
C806 C807 1.355 . S
C806 C808 1.415 1_554 S
C807 C806 1.355 . S
C807 C809 1.419 1_655 S
C808 C806 1.415 1_556 S
C808 C813 1.425 . S
C808 C815 1.409 . S
C809 H801 0.930 . S
C809 C807 1.419 1_455 S
C809 C810 1.362 1_454 S
C810 H802 0.930 . S
C810 C809 1.362 1_656 S
C810 C813 1.409 . S
C811 H803 0.930 . S
C811 C812 1.355 . S
C811 C813 1.415 . S
C812 C811 1.355 . S
C812 C814 1.419 . S
C813 C808 1.425 . S
C813 C810 1.409 . S
C813 C811 1.415 . S
C814 H804 0.930 . S
C814 C812 1.419 . S
C814 C815 1.362 . S
C815 H805 0.930 . S
C815 C808 1.409 . S
C815 C814 1.362 . S
H816 C822 0.930 . S
H817 C825 0.930 . S
H818 C826 0.930 . S
H819 C827 0.930 . S
H820 C830 0.930 . S
H821 C831 0.930 . S
C822 H816 0.930 . S
C822 C823 1.355 . S
C822 C824 1.415 . S
C823 C822 1.355 . S
C823 C825 1.419 . S
C824 C822 1.415 . S
C824 C829 1.425 . S
C824 C831 1.409 . S
C825 H817 0.930 . S
C825 C823 1.419 . S
C825 C826 1.362 . S
C826 H818 0.930 . S
C826 C825 1.362 . S
C826 C829 1.409 . S
C827 H819 0.930 . S
C827 C828 1.355 . S
C827 C829 1.415 . S
C828 C827 1.355 . S
C828 C830 1.419 . S
C829 C824 1.425 . S
C829 C826 1.409 . S
C829 C827 1.415 . S
C830 H820 0.930 . S
C830 C828 1.419 . S
C830 C831 1.362 . S
C831 H821 0.930 . S
C831 C824 1.409 . S
C831 C830 1.362 . S
H832 C838 0.930 . S
H833 C841 0.930 . S
H834 C842 0.930 . S
H835 C843 0.930 . S
H836 C846 0.930 . S
H837 C847 0.930 . S
C838 H832 0.930 . S
C838 C839 1.355 . S
C838 C840 1.415 . S
C839 C838 1.355 . S
C839 C841 1.419 . S
C840 C838 1.415 . S
C840 C845 1.425 . S
C840 C847 1.409 . S
C841 H833 0.930 . S
C841 C839 1.419 . S
C841 C842 1.362 . S
C842 H834 0.930 . S
C842 C841 1.362 . S
C842 C845 1.409 . S
C843 H835 0.930 . S
C843 C844 1.355 . S
C843 C845 1.415 . S
C844 C843 1.355 . S
C844 C846 1.419 . S
C845 C840 1.425 . S
C845 C842 1.409 . S
C845 C843 1.415 . S
C846 H836 0.930 . S
C846 C844 1.419 . S
C846 C847 1.362 . S
C847 H837 0.930 . S
C847 C840 1.409 . S
C847 C846 1.362 . S
H848 C854 0.930 . S
H849 C857 0.930 . S
H850 C858 0.930 . S
H851 C859 0.930 . S
H852 C862 0.930 . S
H853 C863 0.930 . S
C854 H848 0.930 . S
C854 C855 1.355 . S
C854 C856 1.415 . S
C855 C854 1.355 . S
C855 C857 1.419 . S
C856 C854 1.415 . S
C856 C861 1.425 . S
C856 C863 1.409 . S
C857 H849 0.930 . S
C857 C855 1.419 . S
C857 C858 1.362 . S
C858 H850 0.930 . S
C858 C857 1.362 . S
C858 C861 1.409 . S
C859 H851 0.930 . S
C859 C860 1.355 . S
C859 C861 1.415 . S
C860 C859 1.355 . S
C860 C862 1.419 . S
C861 C856 1.425 . S
C861 C858 1.409 . S
C861 C859 1.415 . S
C862 H852 0.930 . S
C862 C860 1.419 . S
C862 C863 1.362 . S
C863 H853 0.930 . S
C863 C856 1.409 . S
C863 C862 1.362 . S
H864 C870 0.930 . S
H865 C873 0.930 . S
H866 C874 0.930 . S
H867 C875 0.930 . S
H868 C878 0.930 . S
H869 C879 0.930 . S
C870 H864 0.930 . S
C870 C871 1.355 . S
C870 C872 1.415 . S
C871 C870 1.355 . S
C871 C873 1.419 . S
C872 C870 1.415 . S
C872 C877 1.425 . S
C872 C879 1.409 . S
C873 H865 0.930 . S
C873 C871 1.419 . S
C873 C874 1.362 . S
C874 H866 0.930 . S
C874 C873 1.362 . S
C874 C877 1.409 . S
C875 H867 0.930 . S
C875 C876 1.355 1_554 S
C875 C877 1.415 . S
C876 C875 1.355 1_556 S
C876 C878 1.419 . S
C877 C872 1.425 . S
C877 C874 1.409 . S
C877 C875 1.415 . S
C878 H868 0.930 . S
C878 C876 1.419 . S
C878 C879 1.362 1_556 S
C879 H869 0.930 . S
C879 C872 1.409 . S
C879 C878 1.362 1_554 S
H880 C886 0.930 . S
H881 C889 0.930 . S
H882 C890 0.930 . S
H883 C891 0.930 . S
H884 C894 0.930 . S
H885 C895 0.930 . S
C886 H880 0.930 . S
C886 C887 1.355 . S
C886 C888 1.415 . S
C887 C886 1.355 . S
C887 C889 1.419 . S
C888 C886 1.415 . S
C888 C893 1.425 . S
C888 C895 1.409 . S
C889 H881 0.930 . S
C889 C887 1.419 . S
C889 C890 1.362 . S
C890 H882 0.930 . S
C890 C889 1.362 . S
C890 C893 1.409 . S
C891 H883 0.930 . S
C891 C892 1.355 . S
C891 C893 1.415 . S
C892 C891 1.355 . S
C892 C894 1.419 . S
C893 C888 1.425 . S
C893 C890 1.409 . S
C893 C891 1.415 . S
C894 H884 0.930 . S
C894 C892 1.419 . S
C894 C895 1.362 . S
C895 H885 0.930 . S
C895 C888 1.409 . S
C895 C894 1.362 . S
H896 C902 0.930 . S
H897 C905 0.930 . S
H898 C906 0.930 . S
H899 C907 0.930 . S
H900 C910 0.930 . S
H901 C911 0.930 . S
C902 H896 0.930 . S
C902 C903 1.355 1_655 S
C902 C904 1.415 . S
C903 C902 1.355 1_455 S
C903 C905 1.419 . S
C904 C902 1.415 . S
C904 C909 1.425 1_655 S
C904 C911 1.409 . S
C905 H897 0.930 . S
C905 C903 1.419 . S
C905 C906 1.362 . S
C906 H898 0.930 . S
C906 C905 1.362 . S
C906 C909 1.409 . S
C907 H899 0.930 . S
C907 C908 1.347 1_455 S
C907 C909 1.415 . S
C908 C907 1.347 1_655 S
C908 C910 1.429 . S
C909 C904 1.425 1_455 S
C909 C906 1.409 . S
C909 C907 1.415 . S
C910 H900 0.930 . S
C910 C908 1.429 . S
C910 C911 1.362 . S
C911 H901 0.930 . S
C911 C904 1.409 . S
C911 C910 1.362 . S
H912 C918 0.930 . S
H913 C921 0.930 . S
H914 C922 0.930 . S
H915 C923 0.930 . S
H916 C926 0.930 . S
H917 C927 0.930 . S
C918 H912 0.930 . S
C918 C919 1.355 . S
C918 C920 1.415 1_655 S
C919 C918 1.355 . S
C919 C921 1.419 . S
C920 C918 1.415 1_455 S
C920 C925 1.425 . S
C920 C927 1.409 . S
C921 H913 0.930 . S
C921 C919 1.419 . S
C921 C922 1.362 1_655 S
C922 H914 0.930 . S
C922 C921 1.362 1_455 S
C922 C925 1.409 . S
C923 H915 0.930 . S
C923 C924 1.355 . S
C923 C925 1.415 . S
C924 C923 1.355 . S
C924 C926 1.419 . S
C925 C920 1.425 . S
C925 C922 1.409 . S
C925 C923 1.415 . S
C926 H916 0.930 . S
C926 C924 1.419 . S
C926 C927 1.362 . S
C927 H917 0.930 . S
C927 C920 1.409 . S
C927 C926 1.362 . S
H928 C934 0.930 . S
H929 C937 0.930 . S
H930 C938 0.930 . S
H931 C939 0.930 . S
H932 C942 0.930 . S
H933 C943 0.930 . S
C934 H928 0.930 . S
C934 C935 1.355 . S
C934 C936 1.415 . S
C935 C934 1.355 . S
C935 C937 1.419 . S
C936 C934 1.415 . S
C936 C941 1.425 . S
C936 C943 1.409 . S
C937 H929 0.930 . S
C937 C935 1.419 . S
C937 C938 1.362 . S
C938 H930 0.930 . S
C938 C937 1.362 . S
C938 C941 1.409 . S
C939 H931 0.930 . S
C939 C940 1.355 . S
C939 C941 1.415 . S
C940 C939 1.355 . S
C940 C942 1.419 . S
C941 C936 1.425 . S
C941 C938 1.409 . S
C941 C939 1.415 . S
C942 H932 0.930 . S
C942 C940 1.419 . S
C942 C943 1.362 . S
C943 H933 0.930 . S
C943 C936 1.409 . S
C943 C942 1.362 . S
H944 C950 0.930 . S
H945 C953 0.930 . S
H946 C954 0.930 . S
H947 C955 0.930 . S
H948 C958 0.930 . S
H949 C959 0.930 . S
C950 H944 0.930 . S
C950 C951 1.355 . S
C950 C952 1.415 . S
C951 C950 1.355 . S
C951 C953 1.419 . S
C952 C950 1.415 . S
C952 C957 1.425 . S
C952 C959 1.409 . S
C953 H945 0.930 . S
C953 C951 1.419 . S
C953 C954 1.362 . S
C954 H946 0.930 . S
C954 C953 1.362 . S
C954 C957 1.409 . S
C955 H947 0.930 . S
C955 C956 1.355 . S
C955 C957 1.415 . S
C956 C955 1.355 . S
C956 C958 1.419 . S
C957 C952 1.425 . S
C957 C954 1.409 . S
C957 C955 1.415 . S
C958 H948 0.930 . S
C958 C956 1.419 . S
C958 C959 1.362 . S
C959 H949 0.930 . S
C959 C952 1.409 . S
C959 C958 1.362 . S
H960 C966 0.930 1_655 S
H961 C969 0.930 . S
H962 C970 0.930 . S
H963 C971 0.930 . S
H964 C974 0.934 . S
H965 C975 0.930 . S
C966 H960 0.930 1_455 S
C966 C967 1.355 . S
C966 C968 1.415 . S
C967 C966 1.355 . S
C967 C969 1.419 . S
C968 C966 1.415 . S
C968 C973 1.425 . S
C968 C975 1.409 1_455 S
C969 H961 0.930 . S
C969 C967 1.419 . S
C969 C970 1.362 . S
C970 H962 0.930 . S
C970 C969 1.362 . S
C970 C973 1.409 . S
C971 H963 0.930 . S
C971 C972 1.355 . S
C971 C973 1.415 . S
C972 C971 1.355 . S
C972 C974 1.413 1_455 S
C973 C968 1.425 . S
C973 C970 1.409 . S
C973 C971 1.415 . S
C974 H964 0.934 . S
C974 C972 1.413 1_655 S
C974 C975 1.365 . S
C975 H965 0.930 . S
C975 C968 1.409 1_655 S
C975 C974 1.365 . S
H976 C982 0.930 . S
H977 C985 0.930 . S
H978 C986 0.930 . S
H979 C987 0.930 . S
H980 C990 0.930 . S
H981 C991 0.930 . S
C982 H976 0.930 . S
C982 C983 1.355 . S
C982 C984 1.415 . S
C983 C982 1.355 . S
C983 C985 1.419 . S
C984 C982 1.415 . S
C984 C989 1.425 . S
C984 C991 1.409 . S
C985 H977 0.930 . S
C985 C983 1.419 . S
C985 C986 1.362 . S
C986 H978 0.930 . S
C986 C985 1.362 . S
C986 C989 1.409 . S
C987 H979 0.930 . S
C987 C988 1.355 . S
C987 C989 1.415 . S
C988 C987 1.355 . S
C988 C990 1.419 . S
C989 C984 1.425 . S
C989 C986 1.409 . S
C989 C987 1.415 . S
C990 H980 0.930 . S
C990 C988 1.419 . S
C990 C991 1.362 . S
C991 H981 0.930 . S
C991 C984 1.409 . S
C991 C990 1.362 . S
H992 C998 0.930 . S
H993 C1001 0.930 . S
H994 C1002 0.930 . S
H995 C1003 0.930 . S
H996 C1006 0.930 . S
H997 C1007 0.930 . S
C998 H992 0.930 . S
C998 C999 1.355 . S
C998 C1000 1.415 . S
C999 C998 1.355 . S
C999 C1001 1.419 . S
C1000 C998 1.415 . S
C1000 C1005 1.425 . S
C1000 C1007 1.409 . S
C1001 H993 0.930 . S
C1001 C999 1.419 . S
C1001 C1002 1.362 . S
C1002 H994 0.930 . S
C1002 C1001 1.362 . S
C1002 C1005 1.409 . S
C1003 H995 0.930 . S
C1003 C1004 1.355 . S
C1003 C1005 1.415 . S
C1004 C1003 1.355 . S
C1004 C1006 1.419 . S
C1005 C1000 1.425 . S
C1005 C1002 1.409 . S
C1005 C1003 1.415 . S
C1006 H996 0.930 . S
C1006 C1004 1.419 . S
C1006 C1007 1.362 . S
C1007 H997 0.930 . S
C1007 C1000 1.409 . S
C1007 C1006 1.362 . S
H1008 C1014 0.930 . S
H1009 C1017 0.930 . S
H1010 C1018 0.930 . S
H1011 C1019 0.929 1_455 S
H1012 C1022 0.930 . S
H1013 C1023 0.930 . S
C1014 H1008 0.930 . S
C1014 C1015 1.355 . S
C1014 C1016 1.415 . S
C1015 C1014 1.355 . S
C1015 C1017 1.419 . S
C1016 C1014 1.415 . S
C1016 C1021 1.425 . S
C1016 C1023 1.409 1_455 S
C1017 H1009 0.930 . S
C1017 C1015 1.419 . S
C1017 C1018 1.362 . S
C1018 H1010 0.930 . S
C1018 C1017 1.362 . S
C1018 C1021 1.409 . S
C1019 H1011 0.929 1_655 S
C1019 C1020 1.355 . S
C1019 C1021 1.414 1_655 S
C1020 C1019 1.355 . S
C1020 C1022 1.419 . S
C1021 C1016 1.425 . S
C1021 C1018 1.409 . S
C1021 C1019 1.414 1_455 S
C1022 H1012 0.930 . S
C1022 C1020 1.419 . S
C1022 C1023 1.362 . S
C1023 H1013 0.930 . S
C1023 C1016 1.409 1_655 S
C1023 C1022 1.362 . S
H1024 C1030 0.930 . S
H1025 C1033 0.930 . S
H1026 C1034 0.930 . S
H1027 C1035 0.930 . S
H1028 C1038 0.930 1_545 S
H1029 C1039 0.930 . S
C1030 H1024 0.930 . S
C1030 C1031 1.355 1_655 S
C1030 C1032 1.415 1_554 S
C1031 C1030 1.355 1_455 S
C1031 C1033 1.419 1_545 S
C1032 C1030 1.415 1_556 S
C1032 C1037 1.425 1_645 S
C1032 C1039 1.409 . S
C1033 H1025 0.930 . S
C1033 C1031 1.419 1_565 S
C1033 C1034 1.362 . S
C1034 H1026 0.930 . S
C1034 C1033 1.362 . S
C1034 C1037 1.408 1_554 S
C1035 H1027 0.930 . S
C1035 C1036 1.355 . S
C1035 C1037 1.416 . S
C1036 C1035 1.355 . S
C1036 C1038 1.419 1_455 S
C1037 C1032 1.425 1_465 S
C1037 C1034 1.408 1_556 S
C1037 C1035 1.416 . S
C1038 H1028 0.930 1_565 S
C1038 C1036 1.419 1_655 S
C1038 C1039 1.362 1_565 S
C1039 H1029 0.930 . S
C1039 C1032 1.409 . S
C1039 C1038 1.362 1_545 S
H1040 C1046 0.930 . S
H1041 C1049 0.930 . S
H1042 C1050 0.930 . S
H1043 C1051 0.930 . S
H1044 C1054 0.930 . S
H1045 C1055 0.930 . S
C1046 H1040 0.930 . S
C1046 C1047 1.355 . S
C1046 C1048 1.415 . S
C1047 C1046 1.355 . S
C1047 C1049 1.419 . S
C1048 C1046 1.415 . S
C1048 C1053 1.425 . S
C1048 C1055 1.409 . S
C1049 H1041 0.930 . S
C1049 C1047 1.419 . S
C1049 C1050 1.362 . S
C1050 H1042 0.930 . S
C1050 C1049 1.362 . S
C1050 C1053 1.409 . S
C1051 H1043 0.930 . S
C1051 C1052 1.355 . S
C1051 C1053 1.415 . S
C1052 C1051 1.355 . S
C1052 C1054 1.419 . S
C1053 C1048 1.425 . S
C1053 C1050 1.409 . S
C1053 C1051 1.415 . S
C1054 H1044 0.930 . S
C1054 C1052 1.419 . S
C1054 C1055 1.362 . S
C1055 H1045 0.930 . S
C1055 C1048 1.409 . S
C1055 C1054 1.362 . S
H1056 C1062 0.930 . S
H1057 C1065 0.930 . S
H1058 C1066 0.930 . S
H1059 C1067 0.930 . S
H1060 C1070 0.930 . S
H1061 C1071 0.930 . S
C1062 H1056 0.930 . S
C1062 C1063 1.355 1_565 S
C1062 C1064 1.415 . S
C1063 C1062 1.355 1_545 S
C1063 C1065 1.419 . S
C1064 C1062 1.415 . S
C1064 C1069 1.425 1_565 S
C1064 C1071 1.409 . S
C1065 H1057 0.930 . S
C1065 C1063 1.419 . S
C1065 C1066 1.362 . S
C1066 H1058 0.930 . S
C1066 C1065 1.362 . S
C1066 C1069 1.409 . S
C1067 H1059 0.930 . S
C1067 C1068 1.355 1_545 S
C1067 C1069 1.415 . S
C1068 C1067 1.355 1_565 S
C1068 C1070 1.419 . S
C1069 C1064 1.425 1_545 S
C1069 C1066 1.409 . S
C1069 C1067 1.415 . S
C1070 H1060 0.930 . S
C1070 C1068 1.419 . S
C1070 C1071 1.362 . S
C1071 H1061 0.930 . S
C1071 C1064 1.409 . S
C1071 C1070 1.362 . S
H1072 C1078 0.930 . S
H1073 C1081 0.930 . S
H1074 C1082 0.930 . S
H1075 C1083 0.930 . S
H1076 C1086 0.930 . S
H1077 C1087 0.930 . S
C1078 H1072 0.930 . S
C1078 C1079 1.355 . S
C1078 C1080 1.415 . S
C1079 C1078 1.355 . S
C1079 C1081 1.419 . S
C1080 C1078 1.415 . S
C1080 C1085 1.425 . S
C1080 C1087 1.409 . S
C1081 H1073 0.930 . S
C1081 C1079 1.419 . S
C1081 C1082 1.362 . S
C1082 H1074 0.930 . S
C1082 C1081 1.362 . S
C1082 C1085 1.409 . S
C1083 H1075 0.930 . S
C1083 C1084 1.355 . S
C1083 C1085 1.415 . S
C1084 C1083 1.355 . S
C1084 C1086 1.419 . S
C1085 C1080 1.425 . S
C1085 C1082 1.409 . S
C1085 C1083 1.415 . S
C1086 H1076 0.930 . S
C1086 C1084 1.419 . S
C1086 C1087 1.362 . S
C1087 H1077 0.930 . S
C1087 C1080 1.409 . S
C1087 C1086 1.362 . S
H1088 C1094 0.930 . S
H1089 C1097 0.930 . S
H1090 C1098 0.930 . S
H1091 C1099 0.930 . S
H1092 C1102 0.930 . S
H1093 C1103 0.930 . S
C1094 H1088 0.930 . S
C1094 C1095 1.355 . S
C1094 C1096 1.415 . S
C1095 C1094 1.355 . S
C1095 C1097 1.419 . S
C1096 C1094 1.415 . S
C1096 C1101 1.425 . S
C1096 C1103 1.409 . S
C1097 H1089 0.930 . S
C1097 C1095 1.419 . S
C1097 C1098 1.362 . S
C1098 H1090 0.930 . S
C1098 C1097 1.362 . S
C1098 C1101 1.409 . S
C1099 H1091 0.930 . S
C1099 C1100 1.355 . S
C1099 C1101 1.415 . S
C1100 C1099 1.355 . S
C1100 C1102 1.419 . S
C1101 C1096 1.425 . S
C1101 C1098 1.409 . S
C1101 C1099 1.415 . S
C1102 H1092 0.930 . S
C1102 C1100 1.419 . S
C1102 C1103 1.362 . S
C1103 H1093 0.930 . S
C1103 C1096 1.409 . S
C1103 C1102 1.362 . S
H1104 C1110 0.930 . S
H1105 C1113 0.930 . S
H1106 C1114 0.930 . S
H1107 C1115 0.930 . S
H1108 C1118 0.930 . S
H1109 C1119 0.930 . S
C1110 H1104 0.930 . S
C1110 C1111 1.355 . S
C1110 C1112 1.415 . S
C1111 C1110 1.355 . S
C1111 C1113 1.419 . S
C1112 C1110 1.415 . S
C1112 C1117 1.425 . S
C1112 C1119 1.409 . S
C1113 H1105 0.930 . S
C1113 C1111 1.419 . S
C1113 C1114 1.362 . S
C1114 H1106 0.930 . S
C1114 C1113 1.362 . S
C1114 C1117 1.409 . S
C1115 H1107 0.930 . S
C1115 C1116 1.355 . S
C1115 C1117 1.415 . S
C1116 C1115 1.355 . S
C1116 C1118 1.419 . S
C1117 C1112 1.425 . S
C1117 C1114 1.409 . S
C1117 C1115 1.415 . S
C1118 H1108 0.930 . S
C1118 C1116 1.419 . S
C1118 C1119 1.362 . S
C1119 H1109 0.930 . S
C1119 C1112 1.409 . S
C1119 C1118 1.362 . S
H1120 C1126 0.930 . S
H1121 C1129 0.930 . S
H1122 C1130 0.930 . S
H1123 C1131 0.930 . S
H1124 C1134 0.930 . S
H1125 C1135 0.930 . S
C1126 H1120 0.930 . S
C1126 C1127 1.355 . S
C1126 C1128 1.415 . S
C1127 C1126 1.355 . S
C1127 C1129 1.419 . S
C1128 C1126 1.415 . S
C1128 C1133 1.425 . S
C1128 C1135 1.409 . S
C1129 H1121 0.930 . S
C1129 C1127 1.419 . S
C1129 C1130 1.362 . S
C1130 H1122 0.930 . S
C1130 C1129 1.362 . S
C1130 C1133 1.409 . S
C1131 H1123 0.930 . S
C1131 C1132 1.355 . S
C1131 C1133 1.415 . S
C1132 C1131 1.355 . S
C1132 C1134 1.419 . S
C1133 C1128 1.425 . S
C1133 C1130 1.409 . S
C1133 C1131 1.415 . S
C1134 H1124 0.930 . S
C1134 C1132 1.419 . S
C1134 C1135 1.362 . S
C1135 H1125 0.930 . S
C1135 C1128 1.409 . S
C1135 C1134 1.362 . S
H1136 C1142 0.946 . S
H1137 C1145 0.930 . S
H1138 C1146 0.930 1_554 S
H1139 C1147 0.930 . S
H1140 C1150 0.930 . S
H1141 C1151 0.930 1_556 S
C1142 H1136 0.946 . S
C1142 C1143 1.339 1_655 S
C1142 C1144 1.414 1_655 S
C1143 C1142 1.339 1_455 S
C1143 C1145 1.419 . S
C1144 C1142 1.414 1_455 S
C1144 C1149 1.425 1_556 S
C1144 C1151 1.409 1_456 S
C1145 H1137 0.930 . S
C1145 C1143 1.419 . S
C1145 C1146 1.362 . S
C1146 H1138 0.930 1_556 S
C1146 C1145 1.362 . S
C1146 C1149 1.409 1_556 S
C1147 H1139 0.930 . S
C1147 C1148 1.355 . S
C1147 C1149 1.415 . S
C1148 C1147 1.355 . S
C1148 C1150 1.419 1_455 S
C1149 C1144 1.425 1_554 S
C1149 C1146 1.409 1_554 S
C1149 C1147 1.415 . S
C1150 H1140 0.930 . S
C1150 C1148 1.419 1_655 S
C1150 C1151 1.362 . S
C1151 H1141 0.930 1_554 S
C1151 C1144 1.409 1_654 S
C1151 C1150 1.362 . S
H1152 C1158 0.930 . S
H1153 C1161 0.930 . S
H1154 C1162 0.930 . S
H1155 C1163 0.930 . S
H1156 C1166 0.930 . S
H1157 C1167 0.930 . S
C1158 H1152 0.930 . S
C1158 C1159 1.355 . S
C1158 C1160 1.415 . S
C1159 C1158 1.355 . S
C1159 C1161 1.419 . S
C1160 C1158 1.415 . S
C1160 C1165 1.425 . S
C1160 C1167 1.409 . S
C1161 H1153 0.930 . S
C1161 C1159 1.419 . S
C1161 C1162 1.362 . S
C1162 H1154 0.930 . S
C1162 C1161 1.362 . S
C1162 C1165 1.409 . S
C1163 H1155 0.930 . S
C1163 C1164 1.355 . S
C1163 C1165 1.415 . S
C1164 C1163 1.355 . S
C1164 C1166 1.419 . S
C1165 C1160 1.425 . S
C1165 C1162 1.409 . S
C1165 C1163 1.415 . S
C1166 H1156 0.930 . S
C1166 C1164 1.419 . S
C1166 C1167 1.362 . S
C1167 H1157 0.930 . S
C1167 C1160 1.409 . S
C1167 C1166 1.362 . S
H1168 C1174 0.930 . S
H1169 C1177 0.930 . S
H1170 C1178 0.930 . S
H1171 C1179 0.930 . S
H1172 C1182 0.930 . S
H1173 C1183 0.930 . S
C1174 H1168 0.930 . S
C1174 C1175 1.355 . S
C1174 C1176 1.415 . S
C1175 C1174 1.355 . S
C1175 C1177 1.419 . S
C1176 C1174 1.415 . S
C1176 C1181 1.425 . S
C1176 C1183 1.409 . S
C1177 H1169 0.930 . S
C1177 C1175 1.419 . S
C1177 C1178 1.362 . S
C1178 H1170 0.930 . S
C1178 C1177 1.362 . S
C1178 C1181 1.409 . S
C1179 H1171 0.930 . S
C1179 C1180 1.355 . S
C1179 C1181 1.415 . S
C1180 C1179 1.355 . S
C1180 C1182 1.419 . S
C1181 C1176 1.425 . S
C1181 C1178 1.409 . S
C1181 C1179 1.415 . S
C1182 H1172 0.930 . S
C1182 C1180 1.419 . S
C1182 C1183 1.362 . S
C1183 H1173 0.930 . S
C1183 C1176 1.409 . S
C1183 C1182 1.362 . S
H1184 C1190 0.930 . S
H1185 C1193 0.930 . S
H1186 C1194 0.930 . S
H1187 C1195 0.930 . S
H1188 C1198 0.930 . S
H1189 C1199 0.930 . S
C1190 H1184 0.930 . S
C1190 C1191 1.355 . S
C1190 C1192 1.415 1_554 S
C1191 C1190 1.355 . S
C1191 C1193 1.419 . S
C1192 C1190 1.415 1_556 S
C1192 C1197 1.425 . S
C1192 C1199 1.409 . S
C1193 H1185 0.930 . S
C1193 C1191 1.419 . S
C1193 C1194 1.362 . S
C1194 H1186 0.930 . S
C1194 C1193 1.362 . S
C1194 C1197 1.409 1_554 S
C1195 H1187 0.930 . S
C1195 C1196 1.355 . S
C1195 C1197 1.415 . S
C1196 C1195 1.355 . S
C1196 C1198 1.419 . S
C1197 C1192 1.425 . S
C1197 C1194 1.409 1_556 S
C1197 C1195 1.415 . S
C1198 H1188 0.930 . S
C1198 C1196 1.419 . S
C1198 C1199 1.362 . S
C1199 H1189 0.930 . S
C1199 C1192 1.409 . S
C1199 C1198 1.362 . S
H1200 C1206 0.930 . S
H1201 C1209 0.930 . S
H1202 C1210 0.930 . S
H1203 C1211 0.930 . S
H1204 C1214 0.930 . S
H1205 C1215 0.930 . S
C1206 H1200 0.930 . S
C1206 C1207 1.355 . S
C1206 C1208 1.415 . S
C1207 C1206 1.355 . S
C1207 C1209 1.419 . S
C1208 C1206 1.415 . S
C1208 C1213 1.425 . S
C1208 C1215 1.409 . S
C1209 H1201 0.930 . S
C1209 C1207 1.419 . S
C1209 C1210 1.362 . S
C1210 H1202 0.930 . S
C1210 C1209 1.362 . S
C1210 C1213 1.409 . S
C1211 H1203 0.930 . S
C1211 C1212 1.355 . S
C1211 C1213 1.415 . S
C1212 C1211 1.355 . S
C1212 C1214 1.419 . S
C1213 C1208 1.425 . S
C1213 C1210 1.409 . S
C1213 C1211 1.415 . S
C1214 H1204 0.930 . S
C1214 C1212 1.419 . S
C1214 C1215 1.362 . S
C1215 H1205 0.930 . S
C1215 C1208 1.409 . S
C1215 C1214 1.362 . S
H1216 C1222 0.930 . S
H1217 C1225 0.930 . S
H1218 C1226 0.930 . S
H1219 C1227 0.930 . S
H1220 C1230 0.930 . S
H1221 C1231 0.930 . S
C1222 H1216 0.930 . S
C1222 C1223 1.355 . S
C1222 C1224 1.415 . S
C1223 C1222 1.355 . S
C1223 C1225 1.419 . S
C1224 C1222 1.415 . S
C1224 C1229 1.425 . S
C1224 C1231 1.409 . S
C1225 H1217 0.930 . S
C1225 C1223 1.419 . S
C1225 C1226 1.362 . S
C1226 H1218 0.930 . S
C1226 C1225 1.362 . S
C1226 C1229 1.409 . S
C1227 H1219 0.930 . S
C1227 C1228 1.355 . S
C1227 C1229 1.415 . S
C1228 C1227 1.355 . S
C1228 C1230 1.419 . S
C1229 C1224 1.425 . S
C1229 C1226 1.409 . S
C1229 C1227 1.415 . S
C1230 H1220 0.930 . S
C1230 C1228 1.419 . S
C1230 C1231 1.362 . S
C1231 H1221 0.930 . S
C1231 C1224 1.409 . S
C1231 C1230 1.362 . S
H1232 C1238 0.930 . S
H1233 C1241 0.930 . S
H1234 C1242 0.930 . S
H1235 C1243 0.930 . S
H1236 C1246 0.930 . S
H1237 C1247 0.930 . S
C1238 H1232 0.930 . S
C1238 C1239 1.355 . S
C1238 C1240 1.415 . S
C1239 C1238 1.355 . S
C1239 C1241 1.419 . S
C1240 C1238 1.415 . S
C1240 C1245 1.425 . S
C1240 C1247 1.409 . S
C1241 H1233 0.930 . S
C1241 C1239 1.419 . S
C1241 C1242 1.362 . S
C1242 H1234 0.930 . S
C1242 C1241 1.362 . S
C1242 C1245 1.409 . S
C1243 H1235 0.930 . S
C1243 C1244 1.355 . S
C1243 C1245 1.415 . S
C1244 C1243 1.355 . S
C1244 C1246 1.419 . S
C1245 C1240 1.425 . S
C1245 C1242 1.409 . S
C1245 C1243 1.415 . S
C1246 H1236 0.930 . S
C1246 C1244 1.419 . S
C1246 C1247 1.362 . S
C1247 H1237 0.930 . S
C1247 C1240 1.409 . S
C1247 C1246 1.362 . S
H1248 C1254 0.930 . S
H1249 C1257 0.930 1_556 S
H1250 C1258 0.930 . S
H1251 C1259 0.930 . S
H1252 C1262 0.930 . S
H1253 C1263 0.930 . S
C1254 H1248 0.930 . S
C1254 C1255 1.355 . S
C1254 C1256 1.415 . S
C1255 C1254 1.355 . S
C1255 C1257 1.419 . S
C1256 C1254 1.415 . S
C1256 C1261 1.425 . S
C1256 C1263 1.409 . S
C1257 H1249 0.930 1_554 S
C1257 C1255 1.419 . S
C1257 C1258 1.362 . S
C1258 H1250 0.930 . S
C1258 C1257 1.362 . S
C1258 C1261 1.409 . S
C1259 H1251 0.930 . S
C1259 C1260 1.355 . S
C1259 C1261 1.415 . S
C1260 C1259 1.355 . S
C1260 C1262 1.419 . S
C1261 C1256 1.425 . S
C1261 C1258 1.409 . S
C1261 C1259 1.415 . S
C1262 H1252 0.930 . S
C1262 C1260 1.419 . S
C1262 C1263 1.362 . S
C1263 H1253 0.930 . S
C1263 C1256 1.409 . S
C1263 C1262 1.362 . S
H1264 C1270 0.930 . S
H1265 C1273 0.930 . S
H1266 C1274 0.930 . S
H1267 C1275 0.930 . S
H1268 C1278 0.930 . S
H1269 C1279 0.930 . S
C1270 H1264 0.930 . S
C1270 C1271 1.355 . S
C1270 C1272 1.415 . S
C1271 C1270 1.355 . S
C1271 C1273 1.419 . S
C1272 C1270 1.415 . S
C1272 C1277 1.425 . S
C1272 C1279 1.409 . S
C1273 H1265 0.930 . S
C1273 C1271 1.419 . S
C1273 C1274 1.362 . S
C1274 H1266 0.930 . S
C1274 C1273 1.362 . S
C1274 C1277 1.409 . S
C1275 H1267 0.930 . S
C1275 C1276 1.355 . S
C1275 C1277 1.415 . S
C1276 C1275 1.355 . S
C1276 C1278 1.419 . S
C1277 C1272 1.425 . S
C1277 C1274 1.409 . S
C1277 C1275 1.415 . S
C1278 H1268 0.930 . S
C1278 C1276 1.419 . S
C1278 C1279 1.362 . S
C1279 H1269 0.930 . S
C1279 C1272 1.409 . S
C1279 C1278 1.362 . S
H1280 C1286 0.930 . S
H1281 C1289 0.930 . S
H1282 C1290 0.930 . S
H1283 C1291 0.930 . S
H1284 C1294 0.930 . S
H1285 C1295 0.930 . S
C1286 H1280 0.930 . S
C1286 C1287 1.355 . S
C1286 C1288 1.415 . S
C1287 C1286 1.355 . S
C1287 C1289 1.419 . S
C1288 C1286 1.415 . S
C1288 C1293 1.425 . S
C1288 C1295 1.409 . S
C1289 H1281 0.930 . S
C1289 C1287 1.419 . S
C1289 C1290 1.362 . S
C1290 H1282 0.930 . S
C1290 C1289 1.362 . S
C1290 C1293 1.409 . S
C1291 H1283 0.930 . S
C1291 C1292 1.355 . S
C1291 C1293 1.415 . S
C1292 C1291 1.355 . S
C1292 C1294 1.419 . S
C1293 C1288 1.425 . S
C1293 C1290 1.409 . S
C1293 C1291 1.415 . S
C1294 H1284 0.930 . S
C1294 C1292 1.419 . S
C1294 C1295 1.362 . S
C1295 H1285 0.930 . S
C1295 C1288 1.409 . S
C1295 C1294 1.362 . S
H1296 C1302 0.930 . S
H1297 C1305 0.930 . S
H1298 C1306 0.930 . S
H1299 C1307 0.930 . S
H1300 C1310 0.930 . S
H1301 C1311 0.930 . S
C1302 H1296 0.930 . S
C1302 C1303 1.355 . S
C1302 C1304 1.415 . S
C1303 C1302 1.355 . S
C1303 C1305 1.419 . S
C1304 C1302 1.415 . S
C1304 C1309 1.425 . S
C1304 C1311 1.409 . S
C1305 H1297 0.930 . S
C1305 C1303 1.419 . S
C1305 C1306 1.362 . S
C1306 H1298 0.930 . S
C1306 C1305 1.362 . S
C1306 C1309 1.409 . S
C1307 H1299 0.930 . S
C1307 C1308 1.355 . S
C1307 C1309 1.415 . S
C1308 C1307 1.355 . S
C1308 C1310 1.419 . S
C1309 C1304 1.425 . S
C1309 C1306 1.409 . S
C1309 C1307 1.415 . S
C1310 H1300 0.930 . S
C1310 C1308 1.419 . S
C1310 C1311 1.362 . S
C1311 H1301 0.930 . S
C1311 C1304 1.409 . S
C1311 C1310 1.362 . S
H1312 C1318 0.930 . S
H1313 C1321 0.930 . S
H1314 C1322 0.930 . S
H1315 C1323 0.930 . S
H1316 C1326 0.930 . S
H1317 C1327 0.930 . S
C1318 H1312 0.930 . S
C1318 C1319 1.355 . S
C1318 C1320 1.415 . S
C1319 C1318 1.355 . S
C1319 C1321 1.419 . S
C1320 C1318 1.415 . S
C1320 C1325 1.425 . S
C1320 C1327 1.409 . S
C1321 H1313 0.930 . S
C1321 C1319 1.419 . S
C1321 C1322 1.362 . S
C1322 H1314 0.930 . S
C1322 C1321 1.362 . S
C1322 C1325 1.409 . S
C1323 H1315 0.930 . S
C1323 C1324 1.355 . S
C1323 C1325 1.415 . S
C1324 C1323 1.355 . S
C1324 C1326 1.419 . S
C1325 C1320 1.425 . S
C1325 C1322 1.409 . S
C1325 C1323 1.415 . S
C1326 H1316 0.930 . S
C1326 C1324 1.419 . S
C1326 C1327 1.362 . S
C1327 H1317 0.930 . S
C1327 C1320 1.409 . S
C1327 C1326 1.362 . S
H1328 C1334 0.930 . S
H1329 C1337 0.930 . S
H1330 C1338 0.930 . S
H1331 C1339 0.930 . S
H1332 C1342 0.930 . S
H1333 C1343 0.930 . S
C1334 H1328 0.930 . S
C1334 C1335 1.355 . S
C1334 C1336 1.415 . S
C1335 C1334 1.355 . S
C1335 C1337 1.419 . S
C1336 C1334 1.415 . S
C1336 C1341 1.425 . S
C1336 C1343 1.409 . S
C1337 H1329 0.930 . S
C1337 C1335 1.419 . S
C1337 C1338 1.362 . S
C1338 H1330 0.930 . S
C1338 C1337 1.362 . S
C1338 C1341 1.409 . S
C1339 H1331 0.930 . S
C1339 C1340 1.355 . S
C1339 C1341 1.415 . S
C1340 C1339 1.355 . S
C1340 C1342 1.419 . S
C1341 C1336 1.425 . S
C1341 C1338 1.409 . S
C1341 C1339 1.415 . S
C1342 H1332 0.930 . S
C1342 C1340 1.419 . S
C1342 C1343 1.362 . S
C1343 H1333 0.930 . S
C1343 C1336 1.409 . S
C1343 C1342 1.362 . S
H1344 C1350 0.930 . S
H1345 C1353 0.930 . S
H1346 C1354 0.930 . S
H1347 C1355 0.930 . S
H1348 C1358 0.930 . S
H1349 C1359 0.930 . S
C1350 H1344 0.930 . S
C1350 C1351 1.355 . S
C1350 C1352 1.415 . S
C1351 C1350 1.355 . S
C1351 C1353 1.419 . S
C1352 C1350 1.415 . S
C1352 C1357 1.425 . S
C1352 C1359 1.409 . S
C1353 H1345 0.930 . S
C1353 C1351 1.419 . S
C1353 C1354 1.362 . S
C1354 H1346 0.930 . S
C1354 C1353 1.362 . S
C1354 C1357 1.409 . S
C1355 H1347 0.930 . S
C1355 C1356 1.355 . S
C1355 C1357 1.415 1_556 S
C1356 C1355 1.355 . S
C1356 C1358 1.419 . S
C1357 C1352 1.425 . S
C1357 C1354 1.409 . S
C1357 C1355 1.415 1_554 S
C1358 H1348 0.930 . S
C1358 C1356 1.419 . S
C1358 C1359 1.362 1_556 S
C1359 H1349 0.930 . S
C1359 C1352 1.409 . S
C1359 C1358 1.362 1_554 S
H1360 C1366 0.930 . S
H1361 C1369 0.930 . S
H1362 C1370 0.930 . S
H1363 C1371 0.930 . S
H1364 C1374 0.930 . S
H1365 C1375 0.930 . S
C1366 H1360 0.930 . S
C1366 C1367 1.355 . S
C1366 C1368 1.415 . S
C1367 C1366 1.355 . S
C1367 C1369 1.419 . S
C1368 C1366 1.415 . S
C1368 C1373 1.425 . S
C1368 C1375 1.409 . S
C1369 H1361 0.930 . S
C1369 C1367 1.419 . S
C1369 C1370 1.362 . S
C1370 H1362 0.930 . S
C1370 C1369 1.362 . S
C1370 C1373 1.409 . S
C1371 H1363 0.930 . S
C1371 C1372 1.355 . S
C1371 C1373 1.415 . S
C1372 C1371 1.355 . S
C1372 C1374 1.419 . S
C1373 C1368 1.425 . S
C1373 C1370 1.409 . S
C1373 C1371 1.415 . S
C1374 H1364 0.930 . S
C1374 C1372 1.419 . S
C1374 C1375 1.362 . S
C1375 H1365 0.930 . S
C1375 C1368 1.409 . S
C1375 C1374 1.362 . S
H1376 C1382 0.930 . S
H1377 C1385 0.930 . S
H1378 C1386 0.930 . S
H1379 C1387 0.930 . S
H1380 C1390 0.930 . S
H1381 C1391 0.930 . S
C1382 H1376 0.930 . S
C1382 C1383 1.355 . S
C1382 C1384 1.415 . S
C1383 C1382 1.355 . S
C1383 C1385 1.419 . S
C1384 C1382 1.415 . S
C1384 C1389 1.425 . S
C1384 C1391 1.409 . S
C1385 H1377 0.930 . S
C1385 C1383 1.419 . S
C1385 C1386 1.362 . S
C1386 H1378 0.930 . S
C1386 C1385 1.362 . S
C1386 C1389 1.409 . S
C1387 H1379 0.930 . S
C1387 C1388 1.355 . S
C1387 C1389 1.415 . S
C1388 C1387 1.355 . S
C1388 C1390 1.419 . S
C1389 C1384 1.425 . S
C1389 C1386 1.409 . S
C1389 C1387 1.415 . S
C1390 H1380 0.930 . S
C1390 C1388 1.419 . S
C1390 C1391 1.362 . S
C1391 H1381 0.930 . S
C1391 C1384 1.409 . S
C1391 C1390 1.362 . S
H1392 C1398 0.930 . S
H1393 C1401 0.930 . S
H1394 C1402 0.930 . S
H1395 C1403 0.930 . S
H1396 C1406 0.930 . S
H1397 C1407 0.930 . S
C1398 H1392 0.930 . S
C1398 C1399 1.355 . S
C1398 C1400 1.415 . S
C1399 C1398 1.355 . S
C1399 C1401 1.419 . S
C1400 C1398 1.415 . S
C1400 C1405 1.425 . S
C1400 C1407 1.409 . S
C1401 H1393 0.930 . S
C1401 C1399 1.419 . S
C1401 C1402 1.362 . S
C1402 H1394 0.930 . S
C1402 C1401 1.362 . S
C1402 C1405 1.409 . S
C1403 H1395 0.930 . S
C1403 C1404 1.355 . S
C1403 C1405 1.415 . S
C1404 C1403 1.355 . S
C1404 C1406 1.419 . S
C1405 C1400 1.425 . S
C1405 C1402 1.409 . S
C1405 C1403 1.415 . S
C1406 H1396 0.930 . S
C1406 C1404 1.419 . S
C1406 C1407 1.362 . S
C1407 H1397 0.930 . S
C1407 C1400 1.409 . S
C1407 C1406 1.362 . S
C647 C7 0.769 . S
C652 C287 0.895 . S
C663 C51 1.111 . S
C668 C167 1.044 . S
C679 C207 0.602 . S
C684 C91 0.336 . S
C695 C131 0.999 . S
C700 C247 0.936 . S
C711 C456 1.041 . S
C716 C162 1.010 . S
C727 C322 2.834 . S
C732 C2 2.748 1_556 S
C743 C416 1.055 . S
C748 C242 1.030 . S
C759 C96 2.002 . S
C764 C362 2.016 . S
C775 C367 0.926 . S
C780 C487 0.820 . S
C791 C411 1.048 . S
C796 C567 1.037 . S
C807 C531 0.381 . S
C812 C327 0.625 . S
C823 C451 1.030 . S
C828 C607 0.950 . S
C839 C562 1.006 . S
C844 C136 1.041 . S
C855 C482 2.753 . S
C860 C202 2.810 . S
C871 C56 0.983 . S
C876 C602 1.049 . S
C887 C282 1.981 . S
C892 C536 2.023 . S
C903 C539 0.602 . S
C908 C10 0.588 1_655 S
C919 C459 0.419 . S
C924 C59 0.559 . S
C935 C490 0.511 . S
C940 C99 0.677 . S
C951 C419 0.404 . S
C956 C139 0.450 . S
C967 C170 0.372 . S
C972 C610 0.533 . S
C983 C370 0.949 . S
C988 C210 1.112 . S
C999 C250 0.573 . S
C1004 C570 0.408 . S
C1015 C290 0.930 . S
C1020 C330 1.104 . S
C1031 C19 1.695 1_455 S
C1036 C179 1.655 . S
C1047 C50 1.552 . S
C1052 C219 1.572 . S
C1063 C259 1.665 . S
C1068 C90 1.668 . S
C1079 C130 1.940 . S
C1084 C299 1.911 . S
C1095 C410 1.538 . S
C1100 C339 1.560 . S
C1111 C450 1.942 . S
C1116 C379 1.914 . S
C1127 C499 1.638 . S
C1132 C579 1.661 . S
C1143 C619 1.668 . S
C1148 C530 1.668 . S
C1159 C11 3.623 . S
C1164 C291 3.651 . S
C1175 C47 1.971 . S
C1180 C171 2.091 . S
C1191 C211 2.899 . S
C1196 C87 2.838 . S
C1207 C251 2.052 . S
C1212 C127 1.936 . S
C1223 C442 2.047 . S
C1228 C176 1.940 . S
C1239 C336 0.726 . S
C1244 C16 0.629 . S
C1255 C402 2.057 1_554 S
C1260 C256 1.978 . S
C1271 C82 0.996 . S
C1276 C376 0.932 . S
C1287 C491 3.622 . S
C1292 C371 3.649 1_556 S
C1303 C571 2.097 . S
C1308 C407 2.021 . S
C1319 C527 2.849 . S
C1324 C331 2.900 . S
C1335 C611 2.054 . S
C1340 C447 1.953 . S
C1351 C576 1.997 . S
C1356 C122 2.069 . S
C1367 C216 0.604 . S
C1372 C496 0.552 . S
C1383 C42 2.063 . S
C1388 C616 1.954 . S
C1399 C522 1.008 . S
C1404 C296 0.921 . S
