# Generated by pormake.
# Topology dft, (4)-cn, num edge types: 1
# Building blocks:
#     Node 0, Type 0, BuildingBlock: QUQFOY_clean_sbu_1, # of connection points: 4
#     Node 1, Type 0, BuildingBlock: QUQFOY_clean_sbu_1, # of connection points: 4
#     Node 2, Type 0, BuildingBlock: QUQFOY_clean_sbu_1, # of connection points: 4
#     Node 3, Type 0, BuildingBlock: QUQFOY_clean_sbu_1, # of connection points: 4
#     Node 4, Type 0, BuildingBlock: QUQFOY_clean_sbu_1, # of connection points: 4
#     Node 5, Type 0, BuildingBlock: QUQFOY_clean_sbu_1, # of connection points: 4
#     Node 6, Type 0, BuildingBlock: QUQFOY_clean_sbu_1, # of connection points: 4
#     Node 7, Type 0, BuildingBlock: QUQFOY_clean_sbu_1, # of connection points: 4
#     Edge 8, Type (0, 0), BuildingBlock: ZUJKAS_clean_linker_0, # of connection points: 2
#     Edge 9, Type (0, 0), BuildingBlock: ZUJKAS_clean_linker_0, # of connection points: 2
#     Edge 10, Type (0, 0), BuildingBlock: ZUJKAS_clean_linker_0, # of connection points: 2
#     Edge 11, Type (0, 0), BuildingBlock: ZUJKAS_clean_linker_0, # of connection points: 2
#     Edge 12, Type (0, 0), BuildingBlock: ZUJKAS_clean_linker_0, # of connection points: 2
#     Edge 13, Type (0, 0), BuildingBlock: ZUJKAS_clean_linker_0, # of connection points: 2
#     Edge 14, Type (0, 0), BuildingBlock: ZUJKAS_clean_linker_0, # of connection points: 2
#     Edge 15, Type (0, 0), BuildingBlock: ZUJKAS_clean_linker_0, # of connection points: 2
#     Edge 16, Type (0, 0), BuildingBlock: ZUJKAS_clean_linker_0, # of connection points: 2
#     Edge 17, Type (0, 0), BuildingBlock: ZUJKAS_clean_linker_0, # of connection points: 2
#     Edge 18, Type (0, 0), BuildingBlock: ZUJKAS_clean_linker_0, # of connection points: 2
#     Edge 19, Type (0, 0), BuildingBlock: ZUJKAS_clean_linker_0, # of connection points: 2
#     Edge 20, Type (0, 0), BuildingBlock: ZUJKAS_clean_linker_0, # of connection points: 2
#     Edge 21, Type (0, 0), BuildingBlock: ZUJKAS_clean_linker_0, # of connection points: 2
#     Edge 22, Type (0, 0), BuildingBlock: ZUJKAS_clean_linker_0, # of connection points: 2
#     Edge 23, Type (0, 0), BuildingBlock: ZUJKAS_clean_linker_0, # of connection points: 2
# Relax obj value: 0.205
# Max RMSD: 0.222
# Mean RMSD: 0.222
data_MOF--net-dft--node1-QUQFOY_clean_sbu_1--edge1-ZUJKAS_clean_linker_0
_symmetry_space_group_name_H-M    P1
_symmetry_Int_Tables_number       1
_symmetry_cell_setting            triclinic
loop_
_symmetry_equiv_pos_as_xyz
'x, y, z'
_cell_length_a     47.214116
_cell_length_b     47.214705
_cell_length_c     51.826963
_cell_angle_alpha  90.016619
_cell_angle_beta   89.921823
_cell_angle_gamma 89.96951
loop_
_atom_site_label
_atom_site_type_symbol
_atom_site_fract_x
_atom_site_fract_y
_atom_site_fract_z
_atom_type_partial_charge
O0 O 0.35879 0.07252 0.15161 0.0
Cd1 Cd 0.35682 0.0761 0.19114 0.0
Cd2 Cd 0.31394 0.03557 0.18678 0.0
O3 O 0.3299 0.03592 0.14971 0.0
O4 O 0.39372 0.09203 0.20228 0.0
O5 O 0.37952 0.04861 0.21211 0.0
C6 C 0.39891 0.06792 0.21301 0.0
C7 C 0.29625 0.99151 0.19992 0.0
C8 C 0.34676 0.05308 0.13874 0.0
C9 C 0.29925 0.0941 0.2079 0.0
O10 O 0.2909 0.06991 0.20024 0.0
O11 O 0.32531 0.10066 0.20689 0.0
O12 O 0.2839 0.00648 0.18254 0.0
O13 O 0.31905 0.0015 0.21019 0.0
O14 O 0.01614 0.35862 0.6481 0.0
Cd15 Cd 0.01233 0.35654 0.68762 0.0
Cd16 Cd 0.05117 0.31239 0.68301 0.0
O17 O 0.051 0.32765 0.64574 0.0
O18 O 0.9971 0.39373 0.69889 0.0
O19 O 0.04007 0.37847 0.70901 0.0
C20 C 0.02114 0.39825 0.70996 0.0
C21 C 0.09485 0.29426 0.69662 0.0
C22 C 0.03465 0.34544 0.63497 0.0
C23 C 0.99232 0.29956 0.70416 0.0
O24 O 0.01629 0.29041 0.69664 0.0
O25 O 0.9866 0.32582 0.70307 0.0
O26 O 0.07976 0.28174 0.67944 0.0
O27 O 0.0852 0.31749 0.7064 0.0
O28 O 0.73146 0.01812 0.14595 0.0
Cd29 Cd 0.73361 0.01394 0.18548 0.0
Cd30 Cd 0.77924 0.05224 0.18007 0.0
O31 O 0.76507 0.05033 0.14255 0.0
O32 O 0.69729 0.99601 0.19581 0.0
O33 O 0.70918 0.03968 0.20701 0.0
C34 C 0.69084 0.01936 0.20729 0.0
C35 C 0.79698 0.09641 0.1927 0.0
C36 C 0.74611 0.03497 0.13228 0.0
C37 C 0.79096 0.99413 0.20279 0.0
O38 O 0.80052 0.0179 0.19528 0.0
O39 O 0.76471 0.98856 0.20106 0.0
O40 O 0.81004 0.0806 0.17635 0.0
O41 O 0.77341 0.08721 0.20216 0.0
O42 O 0.06941 0.7331 0.65207 0.0
Cd43 Cd 0.074 0.73368 0.69161 0.0
Cd44 Cd 0.03541 0.77933 0.6878 0.0
O45 O 0.03814 0.76774 0.64956 0.0
O46 O 0.09229 0.69708 0.70047 0.0
O47 O 0.0487 0.70829 0.7126 0.0
C48 C 0.06915 0.69008 0.71205 0.0
C49 C 0.99106 0.79645 0.70088 0.0
C50 C 0.05318 0.74881 0.63877 0.0
C51 C 0.09339 0.79012 0.71132 0.0
O52 O 0.06934 0.79967 0.70464 0.0
O53 O 0.09948 0.76416 0.70802 0.0
O54 O 0.00758 0.81082 0.68612 0.0
O55 O 0.99956 0.77176 0.70828 0.0
O56 O 0.35655 0.02244 0.84971 0.0
Cd57 Cd 0.35402 0.01724 0.81032 0.0
Cd58 Cd 0.30907 0.05608 0.81535 0.0
O59 O 0.32479 0.05658 0.85243 0.0
O60 O 0.39007 0.99866 0.80013 0.0
O61 O 0.37835 0.042 0.78779 0.0
C62 C 0.39652 0.02151 0.78786 0.0
C63 C 0.29064 0.09922 0.80064 0.0
C64 C 0.3432 0.04074 0.86295 0.0
C65 C 0.29637 0.99689 0.79528 0.0
O66 O 0.28712 0.02085 0.80266 0.0
O67 O 0.32271 0.99147 0.79593 0.0
O68 O 0.27823 0.08458 0.81825 0.0
O69 O 0.31407 0.08952 0.79126 0.0
O70 O 0.0684 0.35723 0.3464 0.0
Cd71 Cd 0.07288 0.35569 0.30691 0.0
Cd72 Cd 0.03312 0.31209 0.3106 0.0
O73 O 0.0326 0.32732 0.3479 0.0
O74 O 0.08881 0.39284 0.29641 0.0
O75 O 0.04573 0.3785 0.28562 0.0
C76 C 0.06495 0.39801 0.28525 0.0
C77 C 0.98977 0.29418 0.29595 0.0
C78 C 0.04919 0.34456 0.35908 0.0
C79 C 0.09214 0.29861 0.28997 0.0
O80 O 0.06799 0.28981 0.2973 0.0
O81 O 0.09827 0.32475 0.29127 0.0
O82 O 0.00439 0.28152 0.31339 0.0
O83 O 0.99962 0.31757 0.28667 0.0
O84 O 0.73012 0.06703 0.84393 0.0
Cd85 Cd 0.73134 0.07232 0.80449 0.0
Cd86 Cd 0.77722 0.03464 0.80836 0.0
O87 O 0.76507 0.03615 0.84655 0.0
O88 O 0.69386 0.08843 0.79525 0.0
O89 O 0.70816 0.04593 0.78267 0.0
C90 C 0.68856 0.06506 0.78331 0.0
C91 C 0.79495 0.99085 0.7945 0.0
C92 C 0.74572 0.05072 0.85725 0.0
C93 C 0.7874 0.09337 0.78584 0.0
O94 O 0.79716 0.06932 0.79231 0.0
O95 O 0.7613 0.09903 0.78887 0.0
O96 O 0.80904 0.00717 0.80964 0.0
O97 O 0.77022 0.99924 0.78714 0.0
O98 O 0.0204 0.73328 0.34965 0.0
Cd99 Cd 0.01541 0.73426 0.31015 0.0
Cd100 Cd 0.05384 0.78026 0.31409 0.0
O101 O 0.05229 0.76733 0.352 0.0
O102 O 0.99694 0.69779 0.30115 0.0
O103 O 0.04041 0.70896 0.28872 0.0
C104 C 0.01993 0.69081 0.28931 0.0
C105 C 0.09764 0.79805 0.30034 0.0
C106 C 0.03721 0.74848 0.36282 0.0
C107 C 0.9954 0.79112 0.29164 0.0
O108 O 0.01929 0.80086 0.29857 0.0
O109 O 0.98978 0.76496 0.29419 0.0
O110 O 0.08187 0.81152 0.31645 0.0
O111 O 0.08868 0.77392 0.29193 0.0
H112 H 0.33225 0.00906 0.10742 0.0
H113 H 0.3371 0.00609 0.06065 0.0
H114 H 0.37598 0.08875 0.05939 0.0
H115 H 0.37185 0.09162 0.10641 0.0
H116 H 0.31195 0.04073 0.02671 0.0
H117 H 0.42832 0.04413 0.0124 0.0
H118 H 0.41231 0.03739 0.04345 0.0
H119 H 0.41493 0.073 0.03138 0.0
C120 C 0.34215 0.0265 0.09727 0.0
C121 C 0.35158 0.05063 0.11062 0.0
C122 C 0.34495 0.02473 0.07053 0.0
C123 C 0.35715 0.04706 0.05656 0.0
C124 C 0.36707 0.07099 0.06984 0.0
H125 H 0.32248 0.08087 0.89589 0.0
H126 H 0.32769 0.08281 0.94269 0.0
C127 C 0.36451 0.07269 0.09669 0.0
C128 C 0.35723 0.04612 0.028 0.0
H129 H 0.39979 0.05011 0.97478 0.0
C130 C 0.33119 0.04263 0.01538 0.0
C131 C 0.38238 0.04833 0.01327 0.0
C132 C 0.41111 0.05064 0.02579 0.0
C133 C 0.32951 0.04165 0.98843 0.0
C134 C 0.3545 0.04494 0.97366 0.0
C135 C 0.38065 0.04794 0.98621 0.0
C136 C 0.35368 0.04516 0.94514 0.0
C137 C 0.30102 0.03666 0.97603 0.0
C138 C 0.36758 0.024 0.93094 0.0
C139 C 0.36484 0.02292 0.9041 0.0
C140 C 0.34815 0.04303 0.89106 0.0
C141 C 0.33521 0.06484 0.90533 0.0
C142 C 0.33808 0.06597 0.93209 0.0
H143 H 0.2857 0.0271 0.98978 0.0
H144 H 0.29218 0.05722 0.96948 0.0
H145 H 0.30297 0.02254 0.95898 0.0
H146 H 0.37985 0.00785 0.9407 0.0
H147 H 0.37518 0.00593 0.89367 0.0
H148 H 0.9982 0.37469 0.60356 0.0
H149 H 6e-05 0.37832 0.55642 0.0
H150 H 0.07787 0.33046 0.55567 0.0
H151 H 0.07599 0.32626 0.60255 0.0
H152 H 0.04103 0.39984 0.52207 0.0
H153 H 0.02533 0.28425 0.50921 0.0
H154 H 0.01961 0.30183 0.53969 0.0
H155 H 0.05492 0.29295 0.52941 0.0
C156 C 0.01579 0.36508 0.59337 0.0
C157 C 0.03674 0.34985 0.60678 0.0
C158 C 0.01683 0.36722 0.56647 0.0
C159 C 0.03881 0.35419 0.5526 0.0
C160 C 0.0604 0.34012 0.56601 0.0
H161 H 0.08593 0.37201 0.39149 0.0
H162 H 0.08228 0.37657 0.43841 0.0
C163 C 0.0593 0.33781 0.59282 0.0
C164 C 0.03873 0.35434 0.52407 0.0
H165 H 0.03787 0.31043 0.47184 0.0
C166 C 0.0402 0.38034 0.51102 0.0
C167 C 0.0372 0.32887 0.50977 0.0
C168 C 0.03389 0.3004 0.52269 0.0
C169 C 0.04081 0.38149 0.48393 0.0
C170 C 0.04041 0.35592 0.46969 0.0
C171 C 0.03841 0.33 0.4828 0.0
C172 C 0.04178 0.35528 0.44115 0.0
C173 C 0.04145 0.41002 0.47085 0.0
C174 C 0.02043 0.3415 0.42717 0.0
C175 C 0.02265 0.33848 0.40048 0.0
C176 C 0.04629 0.34925 0.38718 0.0
C177 C 0.06739 0.36361 0.40114 0.0
C178 C 0.06524 0.36642 0.42794 0.0
H179 H 0.03368 0.42707 0.48383 0.0
H180 H 0.06359 0.41514 0.46537 0.0
H181 H 0.02837 0.40996 0.45306 0.0
H182 H 0.00219 0.33267 0.437 0.0
H183 H 0.00595 0.32742 0.39031 0.0
H184 H 0.77964 0.02411 0.89231 0.0
H185 H 0.77291 0.02081 0.93885 0.0
H186 H 0.69519 0.06839 0.93275 0.0
H187 H 0.70211 0.07245 0.88608 0.0
H188 H 0.7276 0.08768 0.97126 0.0
H189 H 0.71942 0.97125 0.97913 0.0
H190 H 0.75123 0.98157 0.96271 0.0
H191 H 0.71729 0.98948 0.94859 0.0
C192 C 0.761 0.03375 0.90079 0.0
C193 C 0.74136 0.04848 0.88545 0.0
C194 C 0.75707 0.03163 0.92741 0.0
C195 C 0.73321 0.04378 0.9392 0.0
C196 C 0.71362 0.05863 0.92399 0.0
H197 H 0.70386 0.01024 0.10377 0.0
H198 H 0.69668 0.01347 0.05704 0.0
C199 C 0.71764 0.06097 0.89734 0.0
C200 C 0.72971 0.04226 0.96757 0.0
H201 H 0.73082 0.99625 0.01832 0.0
C202 C 0.72789 0.06767 0.98153 0.0
C203 C 0.72947 0.01615 0.98096 0.0
C204 C 0.72914 0.98808 0.96704 0.0
C205 C 0.72735 0.06771 0.00859 0.0
C206 C 0.72941 0.04169 0.02199 0.0
C207 C 0.72968 0.01622 0.00803 0.0
C208 C 0.73296 0.0405 0.05036 0.0
C209 C 0.72475 0.09567 0.02251 0.0
C210 C 0.75593 0.05429 0.062 0.0
C211 C 0.75999 0.05264 0.08859 0.0
C212 C 0.74139 0.03678 0.1041 0.0
C213 C 0.71855 0.02266 0.09237 0.0
C214 C 0.71439 0.0245 0.0657 0.0
H215 H 0.71389 0.11173 0.01036 0.0
H216 H 0.71289 0.09338 0.0409 0.0
H217 H 0.74625 0.10383 0.02693 0.0
H218 H 0.77101 0.06606 0.05045 0.0
H219 H 0.77796 0.06356 0.09693 0.0
H220 H 0.01456 0.70585 0.39231 0.0
H221 H 0.01765 0.70034 0.43922 0.0
H222 H 0.0667 0.77721 0.44408 0.0
H223 H 0.0644 0.78248 0.39736 0.0
H224 H 0.08881 0.73536 0.47366 0.0
H225 H 0.97323 0.74591 0.49175 0.0
H226 H 0.98281 0.71778 0.47012 0.0
H227 H 0.98906 0.75396 0.46093 0.0
C228 C 0.02599 0.72158 0.40339 0.0
C229 C 0.0391 0.74469 0.39111 0.0
C230 C 0.02762 0.71846 0.43019 0.0
C231 C 0.04203 0.73861 0.44515 0.0
C232 C 0.05544 0.76144 0.43289 0.0
H233 H 0.02765 0.78381 0.60399 0.0
H234 H 0.02558 0.7785 0.55724 0.0
C235 C 0.05404 0.76444 0.40616 0.0
C236 C 0.04322 0.73627 0.47363 0.0
H237 H 0.00222 0.73716 0.5279 0.0
C238 C 0.0699 0.7356 0.48555 0.0
C239 C 0.01848 0.73684 0.48905 0.0
C240 C 0.98927 0.73892 0.47739 0.0
C241 C 0.07256 0.73612 0.51251 0.0
C242 C 0.04781 0.73659 0.52792 0.0
C243 C 0.02113 0.73662 0.516 0.0
C244 C 0.04907 0.73914 0.55638 0.0
C245 C 0.10182 0.73738 0.52414 0.0
C246 C 0.06278 0.71862 0.57147 0.0
C247 C 0.06429 0.72175 0.59827 0.0
C248 C 0.05172 0.74525 0.61044 0.0
C249 C 0.03756 0.76546 0.59526 0.0
C250 C 0.03631 0.76244 0.56852 0.0
H251 H 0.11805 0.74375 0.50973 0.0
H252 H 0.1025 0.75256 0.54051 0.0
H253 H 0.10764 0.71612 0.53155 0.0
H254 H 0.07224 0.70015 0.56255 0.0
H255 H 0.0751 0.70567 0.60945 0.0
H256 H 0.42054 0.01683 0.22834 0.0
H257 H 0.47003 0.00619 0.23862 0.0
H258 H 0.49098 0.09472 0.23146 0.0
H259 H 0.44172 0.10556 0.22132 0.0
H260 H 0.51183 0.01848 0.20193 0.0
H261 H 0.53689 0.07038 0.29509 0.0
H262 H 0.50107 0.06225 0.28528 0.0
H263 H 0.5188 0.09292 0.27257 0.0
C264 C 0.43553 0.03412 0.22965 0.0
C265 C 0.42728 0.062 0.22381 0.0
C266 C 0.46378 0.02801 0.23554 0.0
C267 C 0.48411 0.0497 0.23603 0.0
C268 C 0.47557 0.07774 0.23169 0.0
H269 H 0.6634 0.06905 0.21807 0.0
H270 H 0.61317 0.07476 0.22895 0.0
C271 C 0.44741 0.08385 0.22568 0.0
C272 C 0.51467 0.04272 0.237 0.0
H273 H 0.57645 0.05752 0.26844 0.0
C274 C 0.52592 0.02657 0.21672 0.0
C275 C 0.53297 0.0537 0.2561 0.0
C276 C 0.52183 0.07058 0.27863 0.0
C277 C 0.55512 0.02198 0.21442 0.0
C278 C 0.57356 0.03317 0.23339 0.0
C279 C 0.56227 0.04887 0.254 0.0
C280 C 0.60468 0.02978 0.23121 0.0
C281 C 0.56601 0.00634 0.19098 0.0
C282 C 0.61678 0.00267 0.23006 0.0
C283 C 0.64527 0.99936 0.22349 0.0
C284 C 0.6623 0.02314 0.21849 0.0
C285 C 0.65075 0.05035 0.22176 0.0
C286 C 0.62208 0.05364 0.22798 0.0
H287 H 0.55001 0.00556 0.1753 0.0
H288 H 0.58551 0.01644 0.1833 0.0
H289 H 0.57119 0.98421 0.19644 0.0
H290 H 0.60388 0.98401 0.23313 0.0
H291 H 0.6537 0.97813 0.22147 0.0
H292 H 0.07248 0.41896 0.7256 0.0
H293 H 0.08354 0.46801 0.73728 0.0
H294 H 0.99515 0.48996 0.73094 0.0
H295 H 0.98392 0.44116 0.7194 0.0
H296 H 0.07138 0.51128 0.7019 0.0
H297 H 0.02 0.53323 0.79602 0.0
H298 H 0.02799 0.49775 0.78507 0.0
H299 H 0.99727 0.51602 0.77311 0.0
C300 C 0.05531 0.43406 0.72738 0.0
C301 C 0.02736 0.42626 0.72138 0.0
C302 C 0.06167 0.46205 0.73406 0.0
C303 C 0.04013 0.48254 0.73521 0.0
C304 C 0.01202 0.4744 0.73067 0.0
H305 H 0.01985 0.6619 0.72253 0.0
H306 H 0.01473 0.61133 0.73212 0.0
C307 C 0.00568 0.44652 0.72385 0.0
C308 C 0.0473 0.51298 0.73713 0.0
H309 H 0.03256 0.57369 0.7704 0.0
C310 C 0.06336 0.52488 0.71713 0.0
C311 C 0.03641 0.53063 0.75683 0.0
C312 C 0.01965 0.51876 0.77912 0.0
C313 C 0.06788 0.55415 0.71563 0.0
C314 C 0.05671 0.57196 0.73515 0.0
C315 C 0.04118 0.55999 0.75554 0.0
C316 C 0.05981 0.60315 0.73373 0.0
C317 C 0.08337 0.5658 0.69242 0.0
C318 C 0.08679 0.61551 0.73264 0.0
C319 C 0.08976 0.6442 0.72678 0.0
C320 C 0.06576 0.66118 0.72247 0.0
C321 C 0.03871 0.6493 0.72569 0.0
C322 C 0.03576 0.62044 0.73119 0.0
H323 H 0.08418 0.55027 0.67632 0.0
H324 H 0.07312 0.58546 0.68528 0.0
H325 H 0.10548 0.57093 0.69791 0.0
H326 H 0.10561 0.60268 0.73521 0.0
H327 H 0.11089 0.65288 0.72479 0.0
H328 H 0.64485 0.10253 0.77945 0.0
H329 H 0.59554 0.09198 0.76918 0.0
H330 H 0.61789 0.00518 0.75316 0.0
H331 H 0.66745 0.01547 0.76366 0.0
H332 H 0.56599 0.06605 0.72533 0.0
H333 H 0.56253 0.00263 0.81593 0.0
H334 H 0.59107 0.02679 0.80882 0.0
H335 H 0.5893 0.99312 0.7928 0.0
C336 C 0.63943 0.08129 0.77331 0.0
C337 C 0.65998 0.05971 0.77275 0.0
C338 C 0.61124 0.07535 0.76733 0.0
C339 C 0.60308 0.04775 0.76077 0.0
C340 C 0.62381 0.02657 0.75846 0.0
H341 H 0.43316 0.97939 0.77485 0.0
H342 H 0.48274 0.98428 0.76219 0.0
C343 C 0.65209 0.0325 0.76441 0.0
C344 C 0.5726 0.04072 0.75934 0.0
H345 H 0.52017 0.00777 0.79317 0.0
C346 C 0.55592 0.05303 0.73994 0.0
C347 C 0.55961 0.02387 0.77853 0.0
C348 C 0.5764 0.01095 0.80035 0.0
C349 C 0.52641 0.04905 0.73935 0.0
C350 C 0.51333 0.03288 0.75902 0.0
C351 C 0.5302 0.02005 0.77801 0.0
C352 C 0.48213 0.03011 0.76153 0.0
C353 C 0.50961 0.06216 0.7177 0.0
C354 C 0.46502 0.05424 0.76464 0.0
C355 C 0.43651 0.05148 0.7716 0.0
C356 C 0.42484 0.02455 0.77606 0.0
C357 C 0.44163 0.00043 0.77172 0.0
C358 C 0.46996 0.00319 0.76444 0.0
H359 H 0.52292 0.06525 0.70023 0.0
H360 H 0.49106 0.04891 0.71251 0.0
H361 H 0.50184 0.08328 0.7239 0.0
H362 H 0.47406 0.07525 0.76314 0.0
H363 H 0.42412 0.07044 0.77499 0.0
H364 H 0.01396 0.41999 0.27006 0.0
H365 H 0.00364 0.46956 0.25972 0.0
H366 H 0.09233 0.4899 0.26663 0.0
H367 H 0.10284 0.44057 0.27687 0.0
H368 H 0.01672 0.51156 0.29643 0.0
H369 H 0.06784 0.53551 0.20258 0.0
H370 H 0.05918 0.49987 0.2126 0.0
H371 H 0.09027 0.51709 0.22497 0.0
C372 C 0.03135 0.43486 0.26868 0.0
C373 C 0.05918 0.42643 0.27448 0.0
C374 C 0.02542 0.46316 0.26277 0.0
C375 C 0.04725 0.48332 0.26218 0.0
C376 C 0.07524 0.4746 0.26648 0.0
H377 H 0.06902 0.66252 0.27808 0.0
H378 H 0.07385 0.61208 0.26774 0.0
C379 C 0.08116 0.44641 0.27256 0.0
C380 C 0.04052 0.51392 0.26108 0.0
H381 H 0.05558 0.57533 0.22906 0.0
C382 C 0.02476 0.52547 0.28147 0.0
C383 C 0.05145 0.53198 0.24173 0.0
C384 C 0.06794 0.5205 0.21909 0.0
C385 C 0.02054 0.55475 0.28365 0.0
C386 C 0.03168 0.57294 0.26443 0.0
C387 C 0.04696 0.56134 0.24369 0.0
C388 C 0.02873 0.60412 0.26646 0.0
C389 C 0.00536 0.56594 0.30722 0.0
C390 C 0.0018 0.61658 0.268 0.0
C391 C 0.999 0.6452 0.27429 0.0
C392 C 0.0231 0.662 0.27858 0.0
C393 C 0.05008 0.65005 0.27494 0.0
C394 C 0.05287 0.62126 0.26903 0.0
H395 H 0.00469 0.55006 0.32302 0.0
H396 H 0.01575 0.5854 0.31463 0.0
H397 H 0.9832 0.57128 0.30204 0.0
H398 H 0.98291 0.6039 0.26542 0.0
H399 H 0.97793 0.65394 0.27659 0.0
H400 H 0.14768 0.30859 0.27762 0.0
H401 H 0.18312 0.27415 0.2635 0.0
H402 H 0.12041 0.20784 0.26639 0.0
H403 H 0.08493 0.24197 0.28101 0.0
H404 H 0.17004 0.19289 0.29015 0.0
H405 H 0.19194 0.23744 0.19308 0.0
H406 H 0.19609 0.26254 0.21881 0.0
H407 H 0.16168 0.24799 0.21211 0.0
C408 C 0.14134 0.28673 0.27507 0.0
C409 C 0.11343 0.27807 0.28039 0.0
C410 C 0.16161 0.2671 0.26686 0.0
C411 C 0.15428 0.23853 0.26352 0.0
C412 C 0.12646 0.22983 0.26875 0.0
H413 H 0.2425 0.08616 0.21589 0.0
H414 H 0.20768 0.12115 0.2302 0.0
C415 C 0.10621 0.24939 0.27708 0.0
C416 C 0.17585 0.21746 0.25553 0.0
H417 H 0.22277 0.20098 0.20761 0.0
C418 C 0.18148 0.19458 0.27205 0.0
C419 C 0.19075 0.21974 0.23191 0.0
C420 C 0.18467 0.24309 0.21282 0.0
C421 C 0.20189 0.1741 0.26574 0.0
C422 C 0.21683 0.17647 0.2422 0.0
C423 C 0.2113 0.19935 0.2257 0.0
C424 C 0.23804 0.15516 0.23416 0.0
C425 C 0.20765 0.15032 0.28446 0.0
C426 C 0.26657 0.16284 0.23139 0.0
C427 C 0.28656 0.14291 0.22323 0.0
C428 C 0.27829 0.11499 0.21744 0.0
C429 C 0.24962 0.10743 0.22024 0.0
C430 C 0.22969 0.12735 0.22852 0.0
H431 H 0.19911 0.15499 0.304 0.0
H432 H 0.19739 0.13068 0.27734 0.0
H433 H 0.23075 0.14622 0.28604 0.0
H434 H 0.27335 0.18428 0.23556 0.0
H435 H 0.30842 0.14949 0.22118 0.0
H436 H 0.93741 0.31072 0.71804 0.0
H437 H 0.90148 0.27683 0.73241 0.0
H438 H 0.96207 0.20888 0.72564 0.0
H439 H 0.99817 0.24248 0.7114 0.0
H440 H 0.882 0.22771 0.70475 0.0
H441 H 0.92955 0.20038 0.7995 0.0
H442 H 0.93943 0.23171 0.78164 0.0
H443 H 0.95334 0.19772 0.77251 0.0
C444 C 0.94318 0.2886 0.71977 0.0
C445 C 0.97072 0.27933 0.71364 0.0
C446 C 0.9226 0.26929 0.72793 0.0
C447 C 0.92926 0.24047 0.73034 0.0
C448 C 0.95667 0.23113 0.72428 0.0
H449 H 0.84326 0.08699 0.77339 0.0
H450 H 0.87631 0.12339 0.75888 0.0
C451 C 0.97723 0.25037 0.71604 0.0
C452 C 0.90736 0.21994 0.7385 0.0
H453 H 0.89135 0.17173 0.78529 0.0
C454 C 0.88386 0.21558 0.72245 0.0
C455 C 0.90998 0.20421 0.76156 0.0
C456 C 0.93429 0.20883 0.77996 0.0
C457 C 0.86324 0.1952 0.72848 0.0
C458 C 0.86601 0.17924 0.75144 0.0
C459 C 0.88934 0.18394 0.76766 0.0
C460 C 0.8453 0.15714 0.75888 0.0
C461 C 0.83919 0.19032 0.70986 0.0
C462 C 0.81685 0.16405 0.76362 0.0
C463 C 0.79779 0.14322 0.7718 0.0
C464 C 0.80697 0.11518 0.77565 0.0
C465 C 0.83546 0.10835 0.77066 0.0
C466 C 0.85442 0.12914 0.76239 0.0
H467 H 0.84401 0.19895 0.6904 0.0
H468 H 0.8344 0.16739 0.708 0.0
H469 H 0.81992 0.20115 0.71717 0.0
H470 H 0.8095 0.18566 0.76152 0.0
H471 H 0.77605 0.14923 0.77564 0.0
H472 H 0.94016 0.77933 0.27941 0.0
H473 H 0.90424 0.81232 0.26332 0.0
H474 H 0.96553 0.87997 0.2643 0.0
H475 H 0.00157 0.8473 0.28025 0.0
H476 H 0.88607 0.86404 0.2882 0.0
H477 H 0.93123 0.88275 0.19068 0.0
H478 H 0.94107 0.85273 0.21032 0.0
H479 H 0.95584 0.88706 0.2168 0.0
C480 C 0.94608 0.80118 0.27602 0.0
C481 C 0.97378 0.81065 0.28106 0.0
C482 C 0.92551 0.81998 0.26689 0.0
C483 C 0.93237 0.84844 0.26237 0.0
C484 C 0.95997 0.85795 0.26728 0.0
H485 H 0.8476 7e-05 0.21224 0.0
H486 H 0.88065 0.964 0.2275 0.0
C487 C 0.98049 0.83925 0.27652 0.0
C488 C 0.9105 0.86855 0.25335 0.0
H489 H 0.894 0.91331 0.20395 0.0
C490 C 0.8876 0.87468 0.2697 0.0
C491 C 0.91272 0.88236 0.22925 0.0
C492 C 0.93639 0.87578 0.2106 0.0
C493 C 0.86722 0.895 0.26289 0.0
C494 C 0.86959 0.90906 0.23888 0.0
C495 C 0.8923 0.90257 0.22239 0.0
C496 C 0.84907 0.93098 0.2306 0.0
C497 C 0.84389 0.9019 0.28181 0.0
C498 C 0.82035 0.92434 0.22724 0.0
C499 C 0.80132 0.94496 0.21864 0.0
C500 C 0.81077 0.97254 0.21297 0.0
C501 C 0.83958 0.97908 0.21641 0.0
C502 C 0.85853 0.95848 0.22511 0.0
H503 H 0.84918 0.89475 0.30166 0.0
H504 H 0.83959 0.92502 0.28227 0.0
H505 H 0.82418 0.89094 0.27581 0.0
H506 H 0.81272 0.90308 0.23086 0.0
H507 H 0.77933 0.93915 0.21603 0.0
H508 H 0.08635 0.84591 0.72386 0.0
H509 H 0.12226 0.87908 0.73922 0.0
H510 H 0.18466 0.81239 0.73852 0.0
H511 H 0.14891 0.77893 0.72302 0.0
H512 H 0.15756 0.87519 0.78478 0.0
H513 H 0.21925 0.87668 0.69321 0.0
H514 H 0.18332 0.86372 0.69492 0.0
H515 H 0.21198 0.84235 0.70669 0.0
C516 C 0.10768 0.8382 0.72703 0.0
C517 C 0.11479 0.80977 0.72206 0.0
C518 C 0.12814 0.85721 0.73583 0.0
C519 C 0.15612 0.84823 0.73964 0.0
C520 C 0.16323 0.81977 0.7353 0.0
H521 H 0.30793 0.94197 0.78184 0.0
H522 H 0.27419 0.90523 0.7692 0.0
C523 C 0.14273 0.80068 0.72658 0.0
C524 C 0.17782 0.86883 0.74801 0.0
H525 H 0.23727 0.90352 0.72788 0.0
C526 C 0.17504 0.88139 0.7724 0.0
C527 C 0.20056 0.87673 0.73178 0.0
C528 C 0.204 0.86439 0.70509 0.0
C529 C 0.19454 0.90166 0.78109 0.0
C530 C 0.21701 0.90999 0.76466 0.0
C531 C 0.21999 0.89712 0.74039 0.0
C532 C 0.23738 0.93236 0.77212 0.0
C533 C 0.19113 0.91367 0.8079 0.0
C534 C 0.2279 0.95992 0.77745 0.0
C535 C 0.24709 0.98095 0.78475 0.0
C536 C 0.27619 0.97487 0.78661 0.0
C537 C 0.28568 0.94737 0.78066 0.0
C538 C 0.26644 0.92633 0.77345 0.0
H539 H 0.17821 0.89955 0.82039 0.0
H540 H 0.21202 0.91705 0.81722 0.0
H541 H 0.18014 0.93441 0.8067 0.0
H542 H 0.20564 0.96519 0.77592 0.0
H543 H 0.23906 0.00194 0.78899 0.0
H544 H 0.84902 0.97316 0.80147 0.0
H545 H 0.87125 0.93021 0.7855 0.0
H546 H 0.7919 0.90359 0.75217 0.0
H547 H 0.76949 0.9475 0.76752 0.0
H548 H 0.86146 0.87494 0.79447 0.0
H549 H 0.84408 0.89953 0.69054 0.0
H550 H 0.83742 0.92523 0.71555 0.0
H551 H 0.81304 0.89657 0.71044 0.0
C552 C 0.83617 0.95822 0.79079 0.0
C553 C 0.80752 0.96387 0.78557 0.0
C554 C 0.84892 0.93355 0.78175 0.0
C555 C 0.83337 0.91376 0.76741 0.0
C556 C 0.80447 0.91882 0.76277 0.0
H557 H 0.94779 0.77065 0.72778 0.0
H558 H 0.90358 0.7927 0.74287 0.0
C559 C 0.79167 0.94383 0.77162 0.0
C560 C 0.84838 0.88871 0.75675 0.0
H561 H 0.87414 0.86178 0.70029 0.0
C562 C 0.86388 0.87164 0.77387 0.0
C563 C 0.85136 0.88443 0.72986 0.0
C564 C 0.83579 0.90245 0.71044 0.0
C565 C 0.88408 0.85215 0.7649 0.0
C566 C 0.88822 0.84902 0.73801 0.0
C567 C 0.87094 0.8643 0.72089 0.0
C568 C 0.91334 0.83414 0.72731 0.0
C569 C 0.90233 0.83684 0.78432 0.0
C570 C 0.93296 0.84978 0.71283 0.0
C571 C 0.9578 0.83723 0.70393 0.0
C572 C 0.96379 0.80871 0.70944 0.0
C573 C 0.94387 0.79275 0.72345 0.0
C574 C 0.91868 0.80534 0.73216 0.0
H575 H 0.89947 0.84523 0.80418 0.0
H576 H 0.89664 0.81405 0.78449 0.0
H577 H 0.92507 0.83863 0.77907 0.0
H578 H 0.92939 0.87204 0.70889 0.0
H579 H 0.97263 0.85017 0.69317 0.0
H580 H 0.30327 0.96362 0.24591 0.0
H581 H 0.27575 0.92299 0.2615 0.0
H582 H 0.23346 0.91766 0.18791 0.0
H583 H 0.2601 0.95858 0.17263 0.0
H584 H 0.19679 0.92244 0.22655 0.0
H585 H 0.27409 0.83794 0.25015 0.0
H586 H 0.28222 0.87136 0.26492 0.0
H587 H 0.28311 0.86811 0.23035 0.0
C588 C 0.28856 0.95333 0.23293 0.0
C589 C 0.28357 0.96441 0.20819 0.0
C590 C 0.27298 0.93 0.24177 0.0
C591 C 0.25266 0.91714 0.2258 0.0
C592 C 0.249 0.92723 0.20057 0.0
H593 H 0.1311 0.78155 0.25953 0.0
H594 H 0.17154 0.80763 0.24132 0.0
C595 C 0.2642 0.95067 0.19189 0.0
C596 C 0.23245 0.89599 0.23625 0.0
H597 H 0.22705 0.83221 0.26712 0.0
C598 C 0.20347 0.90257 0.23512 0.0
C599 C 0.24112 0.87002 0.24739 0.0
C600 C 0.27182 0.86126 0.24808 0.0
C601 C 0.18301 0.88429 0.2453 0.0
C602 C 0.19171 0.85892 0.25734 0.0
C603 C 0.22056 0.85182 0.25798 0.0
C604 C 0.17079 0.84054 0.27034 0.0
C605 C 0.15214 0.89239 0.24339 0.0
C606 C 0.1577 0.85009 0.29299 0.0
C607 C 0.13466 0.83549 0.30326 0.0
C608 C 0.12433 0.81095 0.29112 0.0
C609 C 0.13855 0.80043 0.26925 0.0
C610 C 0.16166 0.81522 0.25889 0.0
H611 H 0.14859 0.90948 0.22901 0.0
H612 H 0.13906 0.87378 0.23799 0.0
H613 H 0.14468 0.9001 0.26246 0.0
H614 H 0.16457 0.86957 0.3021 0.0
H615 H 0.12438 0.844 0.32028 0.0
H616 H 0.12373 0.30353 0.74178 0.0
H617 H 0.1642 0.27629 0.7581 0.0
H618 H 0.16702 0.2289 0.68696 0.0
H619 H 0.12635 0.25535 0.67094 0.0
H620 H 0.16263 0.19513 0.72825 0.0
H621 H 0.24909 0.27267 0.7442 0.0
H622 H 0.21613 0.28238 0.75912 0.0
H623 H 0.21849 0.28049 0.72454 0.0
C624 C 0.13341 0.28771 0.72947 0.0
C625 C 0.12173 0.28133 0.70523 0.0
C626 C 0.15665 0.27229 0.73873 0.0
C627 C 0.16877 0.25067 0.72367 0.0
C628 C 0.15802 0.24547 0.6989 0.0
H629 H 0.30483 0.13029 0.75766 0.0
H630 H 0.27785 0.16983 0.73897 0.0
C631 C 0.13471 0.26056 0.68981 0.0
C632 C 0.19 0.23094 0.73471 0.0
H633 H 0.25524 0.22672 0.76303 0.0
C634 C 0.18297 0.20208 0.73561 0.0
C635 C 0.21658 0.23998 0.74424 0.0
C636 C 0.2257 0.27054 0.7428 0.0
C637 C 0.20151 0.18208 0.74615 0.0
C638 C 0.22762 0.19119 0.75649 0.0
C639 C 0.23507 0.21992 0.75519 0.0
C640 C 0.24662 0.17088 0.76952 0.0
C641 C 0.19295 0.15127 0.74635 0.0
C642 C 0.23835 0.15911 0.79315 0.0
C643 C 0.25347 0.13658 0.80372 0.0
C644 C 0.27726 0.12544 0.79089 0.0
C645 C 0.28654 0.13838 0.76794 0.0
C646 C 0.27124 0.16097 0.75729 0.0
H647 H 0.17502 0.14702 0.73304 0.0
H648 H 0.21107 0.13755 0.74079 0.0
H649 H 0.18628 0.14524 0.76614 0.0
H650 H 0.21944 0.1666 0.80288 0.0
H651 H 0.24592 0.1273 0.82156 0.0
H652 H 0.9602 0.25116 0.31791 0.0
H653 H 0.92104 0.2245 0.29924 0.0
H654 H 0.92061 0.28009 0.23329 0.0
H655 H 0.95996 0.30728 0.25201 0.0
H656 H 0.8629 0.25926 0.25552 0.0
H657 H 0.94286 0.17645 0.23247 0.0
H658 H 0.94293 0.189 0.26523 0.0
H659 H 0.95248 0.21264 0.23951 0.0
C660 C 0.95153 0.25808 0.29962 0.0
C661 C 0.96343 0.28108 0.28623 0.0
C662 C 0.92908 0.24286 0.28905 0.0
C663 C 0.9182 0.25022 0.26484 0.0
C664 C 0.92878 0.27419 0.25205 0.0
H665 H 0.83745 0.12637 0.16753 0.0
H666 H 0.86344 0.16751 0.18314 0.0
C667 C 0.95126 0.28961 0.26272 0.0
C668 C 0.89829 0.23078 0.25184 0.0
H669 H 0.89486 0.16439 0.22627 0.0
C670 C 0.86979 0.23858 0.2489 0.0
C671 C 0.90753 0.20399 0.24308 0.0
C672 C 0.93815 0.19498 0.24499 0.0
C673 C 0.85007 0.21981 0.23785 0.0
C674 C 0.8592 0.19262 0.22989 0.0
C675 C 0.88785 0.18521 0.23243 0.0
C676 C 0.83981 0.17115 0.21879 0.0
C677 C 0.81978 0.22928 0.2346 0.0
C678 C 0.81732 0.15995 0.23335 0.0
C679 C 0.80218 0.13643 0.22432 0.0
C680 C 0.80969 0.12356 0.20083 0.0
C681 C 0.83134 0.13565 0.18583 0.0
C682 C 0.84618 0.15923 0.19468 0.0
H683 H 0.81789 0.25273 0.2351 0.0
H684 H 0.81086 0.2214 0.21613 0.0
H685 H 0.80684 0.22055 0.25061 0.0
H686 H 0.8124 0.16845 0.25224 0.0
H687 H 0.78565 0.12747 0.23631 0.0
loop_
_geom_bond_atom_site_label_1
_geom_bond_atom_site_label_2
_geom_bond_distance
_geom_bond_site_symmetry_2
_ccdc_geom_bond_type
O0 Cd1 2.223 . S
O0 C8 1.315 . S
Cd1 O0 2.223 . S
Cd1 O4 2.297 . S
Cd1 O5 2.439 . S
Cd1 O11 2.240 . S
Cd2 O3 2.240 . S
Cd2 O10 2.223 . S
Cd2 O12 2.297 1_545 S
Cd2 O13 2.439 1_545 S
O3 Cd2 2.240 . S
O3 C8 1.279 . S
O4 Cd1 2.297 . S
O4 C6 1.247 . S
O5 Cd1 2.439 . S
O5 C6 1.208 . S
C6 O4 1.247 . S
C6 O5 1.208 . S
C7 O12 1.247 . S
C7 O13 1.208 . S
C8 O0 1.315 . S
C8 O3 1.279 . S
C9 O10 1.315 . S
C9 O11 1.279 . S
O10 Cd2 2.223 . S
O10 C9 1.315 . S
O11 Cd1 2.240 . S
O11 C9 1.279 . S
O12 Cd2 2.297 1_565 S
O12 C7 1.247 . S
O13 Cd2 2.439 1_565 S
O13 C7 1.208 . S
O14 Cd15 2.223 . S
O14 C22 1.315 . S
Cd15 O14 2.223 . S
Cd15 O18 2.297 . S
Cd15 O19 2.439 . S
Cd15 O25 2.240 . S
Cd16 O17 2.240 . S
Cd16 O24 2.223 . S
Cd16 O26 2.297 . S
Cd16 O27 2.439 . S
O17 Cd16 2.240 . S
O17 C22 1.279 . S
O18 Cd15 2.297 . S
O18 C20 1.247 . S
O19 Cd15 2.439 . S
O19 C20 1.208 . S
C20 O18 1.247 . S
C20 O19 1.208 . S
C21 O26 1.247 . S
C21 O27 1.208 . S
C22 O14 1.315 . S
C22 O17 1.279 . S
C23 O24 1.315 . S
C23 O25 1.279 . S
O24 Cd16 2.223 . S
O24 C23 1.315 . S
O25 Cd15 2.240 . S
O25 C23 1.279 . S
O26 Cd16 2.297 . S
O26 C21 1.247 . S
O27 Cd16 2.439 . S
O27 C21 1.208 . S
O28 Cd29 2.223 . S
O28 C36 1.315 . S
Cd29 O28 2.223 . S
Cd29 O32 2.297 . S
Cd29 O33 2.439 . S
Cd29 O39 2.240 . S
Cd30 O31 2.240 . S
Cd30 O38 2.223 . S
Cd30 O40 2.297 . S
Cd30 O41 2.439 . S
O31 Cd30 2.240 . S
O31 C36 1.279 . S
O32 Cd29 2.297 . S
O32 C34 1.247 . S
O33 Cd29 2.439 . S
O33 C34 1.208 . S
C34 O32 1.247 . S
C34 O33 1.208 . S
C35 O40 1.247 . S
C35 O41 1.208 . S
C36 O28 1.315 . S
C36 O31 1.279 . S
C37 O38 1.315 . S
C37 O39 1.279 . S
O38 Cd30 2.223 . S
O38 C37 1.315 . S
O39 Cd29 2.240 . S
O39 C37 1.279 . S
O40 Cd30 2.297 . S
O40 C35 1.247 . S
O41 Cd30 2.439 . S
O41 C35 1.208 . S
O42 Cd43 2.223 . S
O42 C50 1.315 . S
Cd43 O42 2.223 . S
Cd43 O46 2.297 . S
Cd43 O47 2.439 . S
Cd43 O53 2.240 . S
Cd44 O45 2.240 . S
Cd44 O52 2.223 . S
Cd44 O54 2.297 1_455 S
Cd44 O55 2.439 1_455 S
O45 Cd44 2.240 . S
O45 C50 1.279 . S
O46 Cd43 2.297 . S
O46 C48 1.247 . S
O47 Cd43 2.439 . S
O47 C48 1.208 . S
C48 O46 1.247 . S
C48 O47 1.208 . S
C49 O54 1.247 . S
C49 O55 1.208 . S
C50 O42 1.315 . S
C50 O45 1.279 . S
C51 O52 1.315 . S
C51 O53 1.279 . S
O52 Cd44 2.223 . S
O52 C51 1.315 . S
O53 Cd43 2.240 . S
O53 C51 1.279 . S
O54 Cd44 2.297 1_655 S
O54 C49 1.247 . S
O55 Cd44 2.439 1_655 S
O55 C49 1.208 . S
O56 Cd57 2.223 . S
O56 C64 1.315 . S
Cd57 O56 2.223 . S
Cd57 O60 2.297 . S
Cd57 O61 2.439 . S
Cd57 O67 2.240 . S
Cd58 O59 2.240 . S
Cd58 O66 2.223 . S
Cd58 O68 2.297 . S
Cd58 O69 2.439 . S
O59 Cd58 2.240 . S
O59 C64 1.279 . S
O60 Cd57 2.297 . S
O60 C62 1.247 . S
O61 Cd57 2.439 . S
O61 C62 1.208 . S
C62 O60 1.247 . S
C62 O61 1.208 . S
C63 O68 1.247 . S
C63 O69 1.208 . S
C64 O56 1.315 . S
C64 O59 1.279 . S
C65 O66 1.315 . S
C65 O67 1.279 . S
O66 Cd58 2.223 . S
O66 C65 1.315 . S
O67 Cd57 2.240 . S
O67 C65 1.279 . S
O68 Cd58 2.297 . S
O68 C63 1.247 . S
O69 Cd58 2.439 . S
O69 C63 1.208 . S
O70 Cd71 2.223 . S
O70 C78 1.315 . S
Cd71 O70 2.223 . S
Cd71 O74 2.297 . S
Cd71 O75 2.439 . S
Cd71 O81 2.240 . S
Cd72 O73 2.240 . S
Cd72 O80 2.223 . S
Cd72 O82 2.297 1_455 S
Cd72 O83 2.439 1_455 S
O73 Cd72 2.240 . S
O73 C78 1.279 . S
O74 Cd71 2.297 . S
O74 C76 1.247 . S
O75 Cd71 2.439 . S
O75 C76 1.208 . S
C76 O74 1.247 . S
C76 O75 1.208 . S
C77 O82 1.247 . S
C77 O83 1.208 . S
C78 O70 1.315 . S
C78 O73 1.279 . S
C79 O80 1.315 . S
C79 O81 1.279 . S
O80 Cd72 2.223 . S
O80 C79 1.315 . S
O81 Cd71 2.240 . S
O81 C79 1.279 . S
O82 Cd72 2.297 1_655 S
O82 C77 1.247 . S
O83 Cd72 2.439 1_655 S
O83 C77 1.208 . S
O84 Cd85 2.223 . S
O84 C92 1.315 . S
Cd85 O84 2.223 . S
Cd85 O88 2.297 . S
Cd85 O89 2.439 . S
Cd85 O95 2.240 . S
Cd86 O87 2.240 . S
Cd86 O94 2.223 . S
Cd86 O96 2.297 1_545 S
Cd86 O97 2.439 1_545 S
O87 Cd86 2.240 . S
O87 C92 1.279 . S
O88 Cd85 2.297 . S
O88 C90 1.247 . S
O89 Cd85 2.439 . S
O89 C90 1.208 . S
C90 O88 1.247 . S
C90 O89 1.208 . S
C91 O96 1.247 . S
C91 O97 1.208 . S
C92 O84 1.315 . S
C92 O87 1.279 . S
C93 O94 1.315 . S
C93 O95 1.279 . S
O94 Cd86 2.223 . S
O94 C93 1.315 . S
O95 Cd85 2.240 . S
O95 C93 1.279 . S
O96 Cd86 2.297 1_565 S
O96 C91 1.247 . S
O97 Cd86 2.439 1_565 S
O97 C91 1.208 . S
O98 Cd99 2.223 . S
O98 C106 1.315 . S
Cd99 O98 2.223 . S
Cd99 O102 2.297 . S
Cd99 O103 2.439 . S
Cd99 O109 2.240 . S
Cd100 O101 2.240 . S
Cd100 O108 2.223 . S
Cd100 O110 2.297 . S
Cd100 O111 2.439 . S
O101 Cd100 2.240 . S
O101 C106 1.279 . S
O102 Cd99 2.297 . S
O102 C104 1.247 . S
O103 Cd99 2.439 . S
O103 C104 1.208 . S
C104 O102 1.247 . S
C104 O103 1.208 . S
C105 O110 1.247 . S
C105 O111 1.208 . S
C106 O98 1.315 . S
C106 O101 1.279 . S
C107 O108 1.315 . S
C107 O109 1.279 . S
O108 Cd100 2.223 . S
O108 C107 1.315 . S
O109 Cd99 2.240 . S
O109 C107 1.279 . S
O110 Cd100 2.297 . S
O110 C105 1.247 . S
O111 Cd100 2.439 . S
O111 C105 1.208 . S
H112 C120 0.929 . S
H113 C122 0.930 . S
H114 C124 0.930 . S
H115 C127 0.929 . S
H116 C130 0.930 . S
H117 C132 0.960 . S
H118 C132 0.960 . S
H119 C132 0.960 . S
C120 H112 0.929 . S
C120 C121 1.377 . S
C120 C122 1.384 . S
C121 C120 1.377 . S
C121 C127 1.390 . S
C122 H113 0.930 . S
C122 C120 1.384 . S
C122 C123 1.372 . S
C123 C122 1.372 . S
C123 C124 1.400 . S
C123 C128 1.490 . S
C124 H114 0.930 . S
C124 C123 1.400 . S
C124 C127 1.386 . S
H125 C141 0.930 . S
H126 C142 0.931 . S
C127 H115 0.929 . S
C127 C121 1.390 . S
C127 C124 1.386 . S
C128 C123 1.490 . S
C128 C130 1.395 . S
C128 C131 1.403 . S
H129 C135 0.930 . S
C130 H116 0.930 . S
C130 C128 1.395 . S
C130 C133 1.403 1_554 S
C131 C128 1.403 . S
C131 C132 1.524 . S
C131 C135 1.400 1_554 S
C132 H117 0.960 . S
C132 H118 0.960 . S
C132 H119 0.960 . S
C132 C131 1.524 . S
C133 C130 1.403 1_556 S
C133 C134 1.392 . S
C133 C137 1.495 1_545 S
C134 C133 1.392 . S
C134 C135 1.385 . S
C134 C136 1.478 . S
C135 H129 0.930 . S
C135 C131 1.400 1_556 S
C135 C134 1.385 . S
C136 C134 1.478 . S
C136 C138 1.381 . S
C136 C142 1.383 . S
C137 C133 1.495 1_565 S
C137 H143 0.959 . S
C137 H144 0.961 . S
C137 H145 0.960 . S
C138 C136 1.381 . S
C138 C139 1.394 . S
C138 H146 0.930 . S
C139 C138 1.394 . S
C139 C140 1.383 . S
C139 H147 0.929 . S
C140 C139 1.383 . S
C140 C141 1.377 . S
C141 H125 0.930 . S
C141 C140 1.377 . S
C141 C142 1.379 . S
C142 H126 0.931 . S
C142 C136 1.383 . S
C142 C141 1.379 . S
H143 C137 0.959 . S
H144 C137 0.961 . S
H145 C137 0.960 . S
H146 C138 0.930 . S
H147 C139 0.929 . S
H148 C156 0.929 1_655 S
H149 C158 0.930 1_655 S
H150 C160 0.930 . S
H151 C163 0.929 . S
H152 C166 0.930 . S
H153 C168 0.960 . S
H154 C168 0.960 . S
H155 C168 0.960 . S
C156 H148 0.929 1_455 S
C156 C157 1.377 . S
C156 C158 1.384 . S
C157 C156 1.377 . S
C157 C163 1.390 . S
C158 H149 0.930 1_455 S
C158 C156 1.384 . S
C158 C159 1.372 . S
C159 C158 1.372 . S
C159 C160 1.400 . S
C159 C164 1.490 . S
C160 H150 0.930 . S
C160 C159 1.400 . S
C160 C163 1.386 . S
H161 C177 0.930 . S
H162 C178 0.931 . S
C163 H151 0.929 . S
C163 C157 1.390 . S
C163 C160 1.386 . S
C164 C159 1.490 . S
C164 C166 1.395 . S
C164 C167 1.403 . S
H165 C171 0.930 . S
C166 H152 0.930 . S
C166 C164 1.395 . S
C166 C169 1.403 . S
C167 C164 1.403 . S
C167 C168 1.524 . S
C167 C171 1.400 . S
C168 H153 0.960 . S
C168 H154 0.960 . S
C168 H155 0.960 . S
C168 C167 1.524 . S
C169 C166 1.403 . S
C169 C170 1.392 . S
C169 C173 1.495 . S
C170 C169 1.392 . S
C170 C171 1.385 . S
C170 C172 1.478 . S
C171 H165 0.930 . S
C171 C167 1.400 . S
C171 C170 1.385 . S
C172 C170 1.478 . S
C172 C174 1.381 . S
C172 C178 1.383 . S
C173 C169 1.495 . S
C173 H179 0.959 1_455 S
C173 H180 0.961 . S
C173 H181 0.960 1_455 S
C174 C172 1.381 . S
C174 C175 1.394 . S
C174 H182 0.930 . S
C175 C174 1.394 . S
C175 C176 1.383 . S
C175 H183 0.929 . S
C176 C175 1.383 . S
C176 C177 1.377 . S
C177 H161 0.930 . S
C177 C176 1.377 . S
C177 C178 1.379 . S
C178 H162 0.931 . S
C178 C172 1.383 . S
C178 C177 1.379 . S
H179 C173 0.959 1_655 S
H180 C173 0.961 . S
H181 C173 0.960 1_655 S
H182 C174 0.930 . S
H183 C175 0.929 . S
H184 C192 0.929 . S
H185 C194 0.930 . S
H186 C196 0.930 . S
H187 C199 0.929 . S
H188 C202 0.930 . S
H189 C204 0.960 . S
H190 C204 0.960 . S
H191 C204 0.960 . S
C192 H184 0.929 . S
C192 C193 1.377 . S
C192 C194 1.384 . S
C193 C192 1.377 . S
C193 C199 1.390 . S
C194 H185 0.930 . S
C194 C192 1.384 . S
C194 C195 1.372 . S
C195 C194 1.372 . S
C195 C196 1.400 . S
C195 C200 1.490 . S
C196 H186 0.930 . S
C196 C195 1.400 . S
C196 C199 1.386 . S
H197 C213 0.930 . S
H198 C214 0.931 . S
C199 H187 0.929 . S
C199 C193 1.390 . S
C199 C196 1.386 . S
C200 C195 1.490 . S
C200 C202 1.395 . S
C200 C203 1.403 . S
H201 C207 0.930 . S
C202 H188 0.930 . S
C202 C200 1.395 . S
C202 C205 1.403 1_556 S
C203 C200 1.403 . S
C203 C204 1.524 1_545 S
C203 C207 1.400 1_556 S
C204 H189 0.960 . S
C204 H190 0.960 . S
C204 H191 0.960 . S
C204 C203 1.524 1_565 S
C205 C202 1.403 1_554 S
C205 C206 1.392 . S
C205 C209 1.495 . S
C206 C205 1.392 . S
C206 C207 1.385 . S
C206 C208 1.478 . S
C207 H201 0.930 . S
C207 C203 1.400 1_554 S
C207 C206 1.385 . S
C208 C206 1.478 . S
C208 C210 1.381 . S
C208 C214 1.383 . S
C209 C205 1.495 . S
C209 H215 0.959 . S
C209 H216 0.961 . S
C209 H217 0.960 . S
C210 C208 1.381 . S
C210 C211 1.394 . S
C210 H218 0.930 . S
C211 C210 1.394 . S
C211 C212 1.383 . S
C211 H219 0.929 . S
C212 C211 1.383 . S
C212 C213 1.377 . S
C213 H197 0.930 . S
C213 C212 1.377 . S
C213 C214 1.379 . S
C214 H198 0.931 . S
C214 C208 1.383 . S
C214 C213 1.379 . S
H215 C209 0.959 . S
H216 C209 0.961 . S
H217 C209 0.960 . S
H218 C210 0.930 . S
H219 C211 0.929 . S
H220 C228 0.929 . S
H221 C230 0.930 . S
H222 C232 0.930 . S
H223 C235 0.929 . S
H224 C238 0.930 . S
H225 C240 0.960 . S
H226 C240 0.960 . S
H227 C240 0.960 . S
C228 H220 0.929 . S
C228 C229 1.377 . S
C228 C230 1.384 . S
C229 C228 1.377 . S
C229 C235 1.390 . S
C230 H221 0.930 . S
C230 C228 1.384 . S
C230 C231 1.372 . S
C231 C230 1.372 . S
C231 C232 1.400 . S
C231 C236 1.490 . S
C232 H222 0.930 . S
C232 C231 1.400 . S
C232 C235 1.386 . S
H233 C249 0.930 . S
H234 C250 0.931 . S
C235 H223 0.929 . S
C235 C229 1.390 . S
C235 C232 1.386 . S
C236 C231 1.490 . S
C236 C238 1.395 . S
C236 C239 1.403 . S
H237 C243 0.930 . S
C238 H224 0.930 . S
C238 C236 1.395 . S
C238 C241 1.403 . S
C239 C236 1.403 . S
C239 C240 1.524 1_455 S
C239 C243 1.400 . S
C240 H225 0.960 . S
C240 H226 0.960 . S
C240 H227 0.960 . S
C240 C239 1.524 1_655 S
C241 C238 1.403 . S
C241 C242 1.392 . S
C241 C245 1.495 . S
C242 C241 1.392 . S
C242 C243 1.385 . S
C242 C244 1.478 . S
C243 H237 0.930 . S
C243 C239 1.400 . S
C243 C242 1.385 . S
C244 C242 1.478 . S
C244 C246 1.381 . S
C244 C250 1.383 . S
C245 C241 1.495 . S
C245 H251 0.959 . S
C245 H252 0.961 . S
C245 H253 0.960 . S
C246 C244 1.381 . S
C246 C247 1.394 . S
C246 H254 0.930 . S
C247 C246 1.394 . S
C247 C248 1.383 . S
C247 H255 0.929 . S
C248 C247 1.383 . S
C248 C249 1.377 . S
C249 H233 0.930 . S
C249 C248 1.377 . S
C249 C250 1.379 . S
C250 H234 0.931 . S
C250 C244 1.383 . S
C250 C249 1.379 . S
H251 C245 0.959 . S
H252 C245 0.961 . S
H253 C245 0.960 . S
H254 C246 0.930 . S
H255 C247 0.929 . S
H256 C264 0.929 . S
H257 C266 0.930 . S
H258 C268 0.930 . S
H259 C271 0.929 . S
H260 C274 0.930 1_565 S
H261 C276 0.960 . S
H262 C276 0.960 . S
H263 C276 0.960 . S
C264 H256 0.929 . S
C264 C265 1.377 . S
C264 C266 1.384 . S
C265 C264 1.377 . S
C265 C271 1.390 . S
C266 H257 0.930 . S
C266 C264 1.384 . S
C266 C267 1.372 . S
C267 C266 1.372 . S
C267 C268 1.400 . S
C267 C272 1.490 . S
C268 H258 0.930 . S
C268 C267 1.400 . S
C268 C271 1.386 . S
H269 C285 0.930 . S
H270 C286 0.931 . S
C271 H259 0.929 . S
C271 C265 1.390 . S
C271 C268 1.386 . S
C272 C267 1.490 . S
C272 C274 1.395 . S
C272 C275 1.403 . S
H273 C279 0.930 . S
C274 H260 0.930 1_545 S
C274 C272 1.395 . S
C274 C277 1.403 . S
C275 C272 1.403 . S
C275 C276 1.524 . S
C275 C279 1.400 . S
C276 H261 0.960 . S
C276 H262 0.960 . S
C276 H263 0.960 . S
C276 C275 1.524 . S
C277 C274 1.403 . S
C277 C278 1.392 . S
C277 C281 1.495 1_545 S
C278 C277 1.392 . S
C278 C279 1.385 . S
C278 C280 1.478 . S
C279 H273 0.930 . S
C279 C275 1.400 . S
C279 C278 1.385 . S
C280 C278 1.478 . S
C280 C282 1.381 . S
C280 C286 1.383 . S
C281 C277 1.495 1_565 S
C281 H287 0.959 . S
C281 H288 0.961 . S
C281 H289 0.960 . S
C282 C280 1.381 . S
C282 C283 1.394 . S
C282 H290 0.930 . S
C283 C282 1.394 . S
C283 C284 1.383 . S
C283 H291 0.929 . S
C284 C283 1.383 . S
C284 C285 1.377 . S
C285 H269 0.930 . S
C285 C284 1.377 . S
C285 C286 1.379 . S
C286 H270 0.931 . S
C286 C280 1.383 . S
C286 C285 1.379 . S
H287 C281 0.959 . S
H288 C281 0.961 . S
H289 C281 0.960 . S
H290 C282 0.930 . S
H291 C283 0.929 . S
H292 C300 0.929 . S
H293 C302 0.930 . S
H294 C304 0.930 . S
H295 C307 0.929 . S
H296 C310 0.930 . S
H297 C312 0.960 . S
H298 C312 0.960 . S
H299 C312 0.960 . S
C300 H292 0.929 . S
C300 C301 1.377 . S
C300 C302 1.384 . S
C301 C300 1.377 . S
C301 C307 1.390 . S
C302 H293 0.930 . S
C302 C300 1.384 . S
C302 C303 1.372 . S
C303 C302 1.372 . S
C303 C304 1.400 . S
C303 C308 1.490 . S
C304 H294 0.930 . S
C304 C303 1.400 . S
C304 C307 1.386 . S
H305 C321 0.930 1_655 S
H306 C322 0.931 1_655 S
C307 H295 0.929 . S
C307 C301 1.390 . S
C307 C304 1.386 . S
C308 C303 1.490 . S
C308 C310 1.395 . S
C308 C311 1.403 . S
H309 C315 0.930 . S
C310 H296 0.930 . S
C310 C308 1.395 . S
C310 C313 1.403 . S
C311 C308 1.403 . S
C311 C312 1.524 . S
C311 C315 1.400 . S
C312 H297 0.960 . S
C312 H298 0.960 . S
C312 H299 0.960 . S
C312 C311 1.524 . S
C313 C310 1.403 . S
C313 C314 1.392 . S
C313 C317 1.495 . S
C314 C313 1.392 . S
C314 C315 1.385 . S
C314 C316 1.478 . S
C315 H309 0.930 . S
C315 C311 1.400 . S
C315 C314 1.385 . S
C316 C314 1.478 . S
C316 C318 1.381 . S
C316 C322 1.383 . S
C317 C313 1.495 . S
C317 H323 0.959 . S
C317 H324 0.961 . S
C317 H325 0.960 . S
C318 C316 1.381 . S
C318 C319 1.394 . S
C318 H326 0.930 . S
C319 C318 1.394 . S
C319 C320 1.383 . S
C319 H327 0.929 . S
C320 C319 1.383 . S
C320 C321 1.377 . S
C321 H305 0.930 1_455 S
C321 C320 1.377 . S
C321 C322 1.379 . S
C322 H306 0.931 1_455 S
C322 C316 1.383 . S
C322 C321 1.379 . S
H323 C317 0.959 . S
H324 C317 0.961 . S
H325 C317 0.960 . S
H326 C318 0.930 . S
H327 C319 0.929 . S
H328 C336 0.929 . S
H329 C338 0.930 . S
H330 C340 0.930 . S
H331 C343 0.918 1_565 S
H332 C346 0.930 . S
H333 C348 0.960 . S
H334 C348 0.960 . S
H335 C348 0.960 . S
C336 H328 0.929 . S
C336 C337 1.377 . S
C336 C338 1.384 . S
C337 C336 1.377 . S
C337 C343 1.390 . S
C338 H329 0.930 . S
C338 C336 1.384 . S
C338 C339 1.372 . S
C339 C338 1.372 . S
C339 C340 1.400 . S
C339 C344 1.490 . S
C340 H330 0.930 . S
C340 C339 1.400 . S
C340 C343 1.386 . S
H341 C357 0.930 . S
H342 C358 0.931 . S
C343 H331 0.918 1_545 S
C343 C337 1.390 . S
C343 C340 1.386 . S
C344 C339 1.490 . S
C344 C346 1.395 . S
C344 C347 1.403 . S
H345 C351 0.930 . S
C346 H332 0.930 . S
C346 C344 1.395 . S
C346 C349 1.403 . S
C347 C344 1.403 . S
C347 C348 1.524 1_545 S
C347 C351 1.400 . S
C348 H333 0.960 . S
C348 H334 0.960 . S
C348 H335 0.960 . S
C348 C347 1.524 1_565 S
C349 C346 1.403 . S
C349 C350 1.392 . S
C349 C353 1.495 . S
C350 C349 1.392 . S
C350 C351 1.385 . S
C350 C352 1.478 . S
C351 H345 0.930 . S
C351 C347 1.400 . S
C351 C350 1.385 . S
C352 C350 1.478 . S
C352 C354 1.381 . S
C352 C358 1.383 . S
C353 C349 1.495 . S
C353 H359 0.959 . S
C353 H360 0.961 . S
C353 H361 0.960 . S
C354 C352 1.381 . S
C354 C355 1.394 . S
C354 H362 0.930 . S
C355 C354 1.394 . S
C355 C356 1.383 . S
C355 H363 0.929 . S
C356 C355 1.383 . S
C356 C357 1.377 . S
C357 H341 0.930 . S
C357 C356 1.377 . S
C357 C358 1.379 . S
C358 H342 0.931 . S
C358 C352 1.383 . S
C358 C357 1.379 . S
H359 C353 0.959 . S
H360 C353 0.961 . S
H361 C353 0.960 . S
H362 C354 0.930 . S
H363 C355 0.929 . S
H364 C372 0.929 1_655 S
H365 C374 0.930 1_655 S
H366 C376 0.930 . S
H367 C379 0.929 . S
H368 C382 0.930 . S
H369 C384 0.960 . S
H370 C384 0.960 . S
H371 C384 0.960 . S
C372 H364 0.929 1_455 S
C372 C373 1.377 . S
C372 C374 1.384 . S
C373 C372 1.377 . S
C373 C379 1.390 . S
C374 H365 0.930 1_455 S
C374 C372 1.384 . S
C374 C375 1.372 . S
C375 C374 1.372 . S
C375 C376 1.400 . S
C375 C380 1.490 . S
C376 H366 0.930 . S
C376 C375 1.400 . S
C376 C379 1.386 . S
H377 C393 0.930 . S
H378 C394 0.931 . S
C379 H367 0.929 . S
C379 C373 1.390 . S
C379 C376 1.386 . S
C380 C375 1.490 . S
C380 C382 1.395 . S
C380 C383 1.403 . S
H381 C387 0.930 . S
C382 H368 0.930 . S
C382 C380 1.395 . S
C382 C385 1.403 . S
C383 C380 1.403 . S
C383 C384 1.524 . S
C383 C387 1.400 . S
C384 H369 0.960 . S
C384 H370 0.960 . S
C384 H371 0.960 . S
C384 C383 1.524 . S
C385 C382 1.403 . S
C385 C386 1.392 . S
C385 C389 1.495 . S
C386 C385 1.392 . S
C386 C387 1.385 . S
C386 C388 1.478 . S
C387 H381 0.930 . S
C387 C383 1.400 . S
C387 C386 1.385 . S
C388 C386 1.478 . S
C388 C390 1.381 . S
C388 C394 1.383 . S
C389 C385 1.495 . S
C389 H395 0.959 . S
C389 H396 0.961 . S
C389 H397 0.960 . S
C390 C388 1.381 . S
C390 C391 1.394 . S
C390 H398 0.930 . S
C391 C390 1.394 . S
C391 C392 1.383 . S
C391 H399 0.929 . S
C392 C391 1.383 . S
C392 C393 1.377 . S
C393 H377 0.930 . S
C393 C392 1.377 . S
C393 C394 1.379 . S
C394 H378 0.931 . S
C394 C388 1.383 . S
C394 C393 1.379 . S
H395 C389 0.959 . S
H396 C389 0.961 . S
H397 C389 0.960 . S
H398 C390 0.930 . S
H399 C391 0.929 . S
H400 C408 0.929 . S
H401 C410 0.930 . S
H402 C412 0.930 . S
H403 C415 0.929 . S
H404 C418 0.930 . S
H405 C420 0.960 . S
H406 C420 0.960 . S
H407 C420 0.960 . S
C408 H400 0.929 . S
C408 C409 1.377 . S
C408 C410 1.384 . S
C409 C408 1.377 . S
C409 C415 1.390 . S
C410 H401 0.930 . S
C410 C408 1.384 . S
C410 C411 1.372 . S
C411 C410 1.372 . S
C411 C412 1.400 . S
C411 C416 1.490 . S
C412 H402 0.930 . S
C412 C411 1.400 . S
C412 C415 1.386 . S
H413 C429 0.930 . S
H414 C430 0.931 . S
C415 H403 0.929 . S
C415 C409 1.390 . S
C415 C412 1.386 . S
C416 C411 1.490 . S
C416 C418 1.395 . S
C416 C419 1.403 . S
H417 C423 0.930 . S
C418 H404 0.930 . S
C418 C416 1.395 . S
C418 C421 1.403 . S
C419 C416 1.403 . S
C419 C420 1.524 . S
C419 C423 1.400 . S
C420 H405 0.960 . S
C420 H406 0.960 . S
C420 H407 0.960 . S
C420 C419 1.524 . S
C421 C418 1.403 . S
C421 C422 1.392 . S
C421 C425 1.495 . S
C422 C421 1.392 . S
C422 C423 1.385 . S
C422 C424 1.478 . S
C423 H417 0.930 . S
C423 C419 1.400 . S
C423 C422 1.385 . S
C424 C422 1.478 . S
C424 C426 1.381 . S
C424 C430 1.383 . S
C425 C421 1.495 . S
C425 H431 0.959 . S
C425 H432 0.961 . S
C425 H433 0.960 . S
C426 C424 1.381 . S
C426 C427 1.394 . S
C426 H434 0.930 . S
C427 C426 1.394 . S
C427 C428 1.383 . S
C427 H435 0.929 . S
C428 C427 1.383 . S
C428 C429 1.377 . S
C429 H413 0.930 . S
C429 C428 1.377 . S
C429 C430 1.379 . S
C430 H414 0.931 . S
C430 C424 1.383 . S
C430 C429 1.379 . S
H431 C425 0.959 . S
H432 C425 0.961 . S
H433 C425 0.960 . S
H434 C426 0.930 . S
H435 C427 0.929 . S
H436 C444 0.929 . S
H437 C446 0.930 . S
H438 C448 0.930 . S
H439 C451 0.929 . S
H440 C454 0.930 . S
H441 C456 0.960 . S
H442 C456 0.960 . S
H443 C456 0.960 . S
C444 H436 0.929 . S
C444 C445 1.377 . S
C444 C446 1.384 . S
C445 C444 1.377 . S
C445 C451 1.390 . S
C446 H437 0.930 . S
C446 C444 1.384 . S
C446 C447 1.372 . S
C447 C446 1.372 . S
C447 C448 1.400 . S
C447 C452 1.490 . S
C448 H438 0.930 . S
C448 C447 1.400 . S
C448 C451 1.386 . S
H449 C465 0.930 . S
H450 C466 0.931 . S
C451 H439 0.929 . S
C451 C445 1.390 . S
C451 C448 1.386 . S
C452 C447 1.490 . S
C452 C454 1.395 . S
C452 C455 1.403 . S
H453 C459 0.930 . S
C454 H440 0.930 . S
C454 C452 1.395 . S
C454 C457 1.403 . S
C455 C452 1.403 . S
C455 C456 1.524 . S
C455 C459 1.400 . S
C456 H441 0.960 . S
C456 H442 0.960 . S
C456 H443 0.960 . S
C456 C455 1.524 . S
C457 C454 1.403 . S
C457 C458 1.392 . S
C457 C461 1.495 . S
C458 C457 1.392 . S
C458 C459 1.385 . S
C458 C460 1.478 . S
C459 H453 0.930 . S
C459 C455 1.400 . S
C459 C458 1.385 . S
C460 C458 1.478 . S
C460 C462 1.381 . S
C460 C466 1.383 . S
C461 C457 1.495 . S
C461 H467 0.959 . S
C461 H468 0.961 . S
C461 H469 0.960 . S
C462 C460 1.381 . S
C462 C463 1.394 . S
C462 H470 0.930 . S
C463 C462 1.394 . S
C463 C464 1.383 . S
C463 H471 0.929 . S
C464 C463 1.383 . S
C464 C465 1.377 . S
C465 H449 0.930 . S
C465 C464 1.377 . S
C465 C466 1.379 . S
C466 H450 0.931 . S
C466 C460 1.383 . S
C466 C465 1.379 . S
H467 C461 0.959 . S
H468 C461 0.961 . S
H469 C461 0.960 . S
H470 C462 0.930 . S
H471 C463 0.929 . S
H472 C480 0.929 . S
H473 C482 0.930 . S
H474 C484 0.930 . S
H475 C487 0.929 1_455 S
H476 C490 0.930 . S
H477 C492 0.960 . S
H478 C492 0.960 . S
H479 C492 0.960 . S
C480 H472 0.929 . S
C480 C481 1.377 . S
C480 C482 1.384 . S
C481 C480 1.377 . S
C481 C487 1.390 . S
C482 H473 0.930 . S
C482 C480 1.384 . S
C482 C483 1.372 . S
C483 C482 1.372 . S
C483 C484 1.400 . S
C483 C488 1.490 . S
C484 H474 0.930 . S
C484 C483 1.400 . S
C484 C487 1.386 . S
H485 C501 0.930 1_545 S
H486 C502 0.931 . S
C487 H475 0.929 1_655 S
C487 C481 1.390 . S
C487 C484 1.386 . S
C488 C483 1.490 . S
C488 C490 1.395 . S
C488 C491 1.403 . S
H489 C495 0.930 . S
C490 H476 0.930 . S
C490 C488 1.395 . S
C490 C493 1.403 . S
C491 C488 1.403 . S
C491 C492 1.524 . S
C491 C495 1.400 . S
C492 H477 0.960 . S
C492 H478 0.960 . S
C492 H479 0.960 . S
C492 C491 1.524 . S
C493 C490 1.403 . S
C493 C494 1.392 . S
C493 C497 1.495 . S
C494 C493 1.392 . S
C494 C495 1.385 . S
C494 C496 1.478 . S
C495 H489 0.930 . S
C495 C491 1.400 . S
C495 C494 1.385 . S
C496 C494 1.478 . S
C496 C498 1.381 . S
C496 C502 1.383 . S
C497 C493 1.495 . S
C497 H503 0.959 . S
C497 H504 0.961 . S
C497 H505 0.960 . S
C498 C496 1.381 . S
C498 C499 1.394 . S
C498 H506 0.930 . S
C499 C498 1.394 . S
C499 C500 1.383 . S
C499 H507 0.929 . S
C500 C499 1.383 . S
C500 C501 1.377 . S
C501 H485 0.930 1_565 S
C501 C500 1.377 . S
C501 C502 1.379 . S
C502 H486 0.931 . S
C502 C496 1.383 . S
C502 C501 1.379 . S
H503 C497 0.959 . S
H504 C497 0.961 . S
H505 C497 0.960 . S
H506 C498 0.930 . S
H507 C499 0.929 . S
H508 C516 0.929 . S
H509 C518 0.930 . S
H510 C520 0.930 . S
H511 C523 0.929 . S
H512 C526 0.930 . S
H513 C528 0.960 . S
H514 C528 0.960 . S
H515 C528 0.960 . S
C516 H508 0.929 . S
C516 C517 1.377 . S
C516 C518 1.384 . S
C517 C516 1.377 . S
C517 C523 1.390 . S
C518 H509 0.930 . S
C518 C516 1.384 . S
C518 C519 1.372 . S
C519 C518 1.372 . S
C519 C520 1.400 . S
C519 C524 1.490 . S
C520 H510 0.930 . S
C520 C519 1.400 . S
C520 C523 1.386 . S
H521 C537 0.930 . S
H522 C538 0.931 . S
C523 H511 0.929 . S
C523 C517 1.390 . S
C523 C520 1.386 . S
C524 C519 1.490 . S
C524 C526 1.395 . S
C524 C527 1.403 . S
H525 C531 0.930 . S
C526 H512 0.930 . S
C526 C524 1.395 . S
C526 C529 1.403 . S
C527 C524 1.403 . S
C527 C528 1.524 . S
C527 C531 1.400 . S
C528 H513 0.960 . S
C528 H514 0.960 . S
C528 H515 0.960 . S
C528 C527 1.524 . S
C529 C526 1.403 . S
C529 C530 1.392 . S
C529 C533 1.495 . S
C530 C529 1.392 . S
C530 C531 1.385 . S
C530 C532 1.478 . S
C531 H525 0.930 . S
C531 C527 1.400 . S
C531 C530 1.385 . S
C532 C530 1.478 . S
C532 C534 1.381 . S
C532 C538 1.383 . S
C533 C529 1.495 . S
C533 H539 0.959 . S
C533 H540 0.961 . S
C533 H541 0.960 . S
C534 C532 1.381 . S
C534 C535 1.394 . S
C534 H542 0.930 . S
C535 C534 1.394 . S
C535 C536 1.383 . S
C535 H543 0.929 1_565 S
C536 C535 1.383 . S
C536 C537 1.377 . S
C537 H521 0.930 . S
C537 C536 1.377 . S
C537 C538 1.379 . S
C538 H522 0.931 . S
C538 C532 1.383 . S
C538 C537 1.379 . S
H539 C533 0.959 . S
H540 C533 0.961 . S
H541 C533 0.960 . S
H542 C534 0.930 . S
H543 C535 0.929 1_545 S
H544 C552 0.937 . S
H545 C554 0.930 . S
H546 C556 0.930 . S
H547 C559 0.929 . S
H548 C562 0.930 . S
H549 C564 0.960 . S
H550 C564 0.960 . S
H551 C564 0.960 . S
C552 H544 0.937 . S
C552 C553 1.377 . S
C552 C554 1.384 . S
C553 C552 1.377 . S
C553 C559 1.390 . S
C554 H545 0.930 . S
C554 C552 1.384 . S
C554 C555 1.372 . S
C555 C554 1.372 . S
C555 C556 1.400 . S
C555 C560 1.490 . S
C556 H546 0.930 . S
C556 C555 1.400 . S
C556 C559 1.386 . S
H557 C573 0.930 . S
H558 C574 0.931 . S
C559 H547 0.929 . S
C559 C553 1.390 . S
C559 C556 1.386 . S
C560 C555 1.490 . S
C560 C562 1.395 . S
C560 C563 1.403 . S
H561 C567 0.930 . S
C562 H548 0.930 . S
C562 C560 1.395 . S
C562 C565 1.403 . S
C563 C560 1.403 . S
C563 C564 1.524 . S
C563 C567 1.400 . S
C564 H549 0.960 . S
C564 H550 0.960 . S
C564 H551 0.960 . S
C564 C563 1.524 . S
C565 C562 1.403 . S
C565 C566 1.392 . S
C565 C569 1.495 . S
C566 C565 1.392 . S
C566 C567 1.385 . S
C566 C568 1.478 . S
C567 H561 0.930 . S
C567 C563 1.400 . S
C567 C566 1.385 . S
C568 C566 1.478 . S
C568 C570 1.381 . S
C568 C574 1.383 . S
C569 C565 1.495 . S
C569 H575 0.959 . S
C569 H576 0.961 . S
C569 H577 0.960 . S
C570 C568 1.381 . S
C570 C571 1.394 . S
C570 H578 0.930 . S
C571 C570 1.394 . S
C571 C572 1.383 . S
C571 H579 0.929 . S
C572 C571 1.383 . S
C572 C573 1.377 . S
C573 H557 0.930 . S
C573 C572 1.377 . S
C573 C574 1.379 . S
C574 H558 0.931 . S
C574 C568 1.383 . S
C574 C573 1.379 . S
H575 C569 0.959 . S
H576 C569 0.961 . S
H577 C569 0.960 . S
H578 C570 0.930 . S
H579 C571 0.929 . S
H580 C588 0.929 . S
H581 C590 0.930 . S
H582 C592 0.930 . S
H583 C595 0.929 . S
H584 C598 0.930 . S
H585 C600 0.960 . S
H586 C600 0.960 . S
H587 C600 0.960 . S
C588 H580 0.929 . S
C588 C589 1.377 . S
C588 C590 1.384 . S
C589 C588 1.377 . S
C589 C595 1.390 . S
C590 H581 0.930 . S
C590 C588 1.384 . S
C590 C591 1.372 . S
C591 C590 1.372 . S
C591 C592 1.400 . S
C591 C596 1.490 . S
C592 H582 0.930 . S
C592 C591 1.400 . S
C592 C595 1.386 . S
H593 C609 0.930 . S
H594 C610 0.931 . S
C595 H583 0.929 . S
C595 C589 1.390 . S
C595 C592 1.386 . S
C596 C591 1.490 . S
C596 C598 1.395 . S
C596 C599 1.403 . S
H597 C603 0.930 . S
C598 H584 0.930 . S
C598 C596 1.395 . S
C598 C601 1.403 . S
C599 C596 1.403 . S
C599 C600 1.524 . S
C599 C603 1.400 . S
C600 H585 0.960 . S
C600 H586 0.960 . S
C600 H587 0.960 . S
C600 C599 1.524 . S
C601 C598 1.403 . S
C601 C602 1.392 . S
C601 C605 1.495 . S
C602 C601 1.392 . S
C602 C603 1.385 . S
C602 C604 1.478 . S
C603 H597 0.930 . S
C603 C599 1.400 . S
C603 C602 1.385 . S
C604 C602 1.478 . S
C604 C606 1.381 . S
C604 C610 1.383 . S
C605 C601 1.495 . S
C605 H611 0.959 . S
C605 H612 0.961 . S
C605 H613 0.960 . S
C606 C604 1.381 . S
C606 C607 1.394 . S
C606 H614 0.930 . S
C607 C606 1.394 . S
C607 C608 1.383 . S
C607 H615 0.929 . S
C608 C607 1.383 . S
C608 C609 1.377 . S
C609 H593 0.930 . S
C609 C608 1.377 . S
C609 C610 1.379 . S
C610 H594 0.931 . S
C610 C604 1.383 . S
C610 C609 1.379 . S
H611 C605 0.959 . S
H612 C605 0.961 . S
H613 C605 0.960 . S
H614 C606 0.930 . S
H615 C607 0.929 . S
H616 C624 0.929 . S
H617 C626 0.930 . S
H618 C628 0.930 . S
H619 C631 0.929 . S
H620 C634 0.930 . S
H621 C636 0.960 . S
H622 C636 0.960 . S
H623 C636 0.960 . S
C624 H616 0.929 . S
C624 C625 1.377 . S
C624 C626 1.384 . S
C625 C624 1.377 . S
C625 C631 1.390 . S
C626 H617 0.930 . S
C626 C624 1.384 . S
C626 C627 1.372 . S
C627 C626 1.372 . S
C627 C628 1.400 . S
C627 C632 1.490 . S
C628 H618 0.930 . S
C628 C627 1.400 . S
C628 C631 1.386 . S
H629 C645 0.930 . S
H630 C646 0.931 . S
C631 H619 0.929 . S
C631 C625 1.390 . S
C631 C628 1.386 . S
C632 C627 1.490 . S
C632 C634 1.395 . S
C632 C635 1.403 . S
H633 C639 0.930 . S
C634 H620 0.930 . S
C634 C632 1.395 . S
C634 C637 1.403 . S
C635 C632 1.403 . S
C635 C636 1.524 . S
C635 C639 1.400 . S
C636 H621 0.960 . S
C636 H622 0.960 . S
C636 H623 0.960 . S
C636 C635 1.524 . S
C637 C634 1.403 . S
C637 C638 1.392 . S
C637 C641 1.495 . S
C638 C637 1.392 . S
C638 C639 1.385 . S
C638 C640 1.478 . S
C639 H633 0.930 . S
C639 C635 1.400 . S
C639 C638 1.385 . S
C640 C638 1.478 . S
C640 C642 1.381 . S
C640 C646 1.383 . S
C641 C637 1.495 . S
C641 H647 0.959 . S
C641 H648 0.961 . S
C641 H649 0.960 . S
C642 C640 1.381 . S
C642 C643 1.394 . S
C642 H650 0.930 . S
C643 C642 1.394 . S
C643 C644 1.383 . S
C643 H651 0.929 . S
C644 C643 1.383 . S
C644 C645 1.377 . S
C645 H629 0.930 . S
C645 C644 1.377 . S
C645 C646 1.379 . S
C646 H630 0.931 . S
C646 C640 1.383 . S
C646 C645 1.379 . S
H647 C641 0.959 . S
H648 C641 0.961 . S
H649 C641 0.960 . S
H650 C642 0.930 . S
H651 C643 0.929 . S
H652 C660 0.929 . S
H653 C662 0.930 . S
H654 C664 0.930 . S
H655 C667 0.929 . S
H656 C670 0.930 . S
H657 C672 0.960 . S
H658 C672 0.960 . S
H659 C672 0.960 . S
C660 H652 0.929 . S
C660 C661 1.377 . S
C660 C662 1.384 . S
C661 C660 1.377 . S
C661 C667 1.390 . S
C662 H653 0.930 . S
C662 C660 1.384 . S
C662 C663 1.372 . S
C663 C662 1.372 . S
C663 C664 1.400 . S
C663 C668 1.490 . S
C664 H654 0.930 . S
C664 C663 1.400 . S
C664 C667 1.386 . S
H665 C681 0.930 . S
H666 C682 0.931 . S
C667 H655 0.929 . S
C667 C661 1.390 . S
C667 C664 1.386 . S
C668 C663 1.490 . S
C668 C670 1.395 . S
C668 C671 1.403 . S
H669 C675 0.930 . S
C670 H656 0.930 . S
C670 C668 1.395 . S
C670 C673 1.403 . S
C671 C668 1.403 . S
C671 C672 1.524 . S
C671 C675 1.400 . S
C672 H657 0.960 . S
C672 H658 0.960 . S
C672 H659 0.960 . S
C672 C671 1.524 . S
C673 C670 1.403 . S
C673 C674 1.392 . S
C673 C677 1.495 . S
C674 C673 1.392 . S
C674 C675 1.385 . S
C674 C676 1.478 . S
C675 H669 0.930 . S
C675 C671 1.400 . S
C675 C674 1.385 . S
C676 C674 1.478 . S
C676 C678 1.381 . S
C676 C682 1.383 . S
C677 C673 1.495 . S
C677 H683 0.959 . S
C677 H684 0.961 . S
C677 H685 0.960 . S
C678 C676 1.381 . S
C678 C679 1.394 . S
C678 H686 0.930 . S
C679 C678 1.394 . S
C679 C680 1.383 . S
C679 H687 0.929 . S
C680 C679 1.383 . S
C680 C681 1.377 . S
C681 H665 0.930 . S
C681 C680 1.377 . S
C681 C682 1.379 . S
C682 H666 0.931 . S
C682 C676 1.383 . S
C682 C681 1.379 . S
H683 C677 0.959 . S
H684 C677 0.961 . S
H685 C677 0.960 . S
H686 C678 0.930 . S
H687 C679 0.929 . S
C121 C8 1.687 . S
C140 C64 1.690 . S
C157 C22 1.691 . S
C176 C78 1.673 . S
C193 C92 1.691 . S
C212 C36 1.680 . S
C229 C106 1.688 . S
C248 C50 1.687 . S
C265 C6 1.238 . S
C284 C34 1.202 . S
C301 C20 1.243 . S
C320 C48 1.213 . S
C337 C90 1.240 . S
C356 C62 1.271 . S
C373 C76 1.245 . S
C392 C104 1.223 . S
C409 C79 2.170 . S
C428 C9 2.150 . S
C445 C23 2.165 1_655 S
C464 C93 2.175 . S
C481 C107 2.168 1_655 S
C500 C37 2.166 1_565 S
C517 C51 2.165 . S
C536 C65 2.170 1_565 S
C553 C91 0.742 . S
C572 C49 0.775 . S
C589 C7 0.749 . S
C608 C105 0.713 . S
C625 C21 0.748 . S
C644 C63 0.719 . S
C661 C77 0.718 . S
C680 C35 0.733 . S
