# Generated by pormake.
# Topology fdc, (5)-cn, num edge types: 1
# Building blocks:
#     Node 0, Type 0, BuildingBlock: XOMCOT_clean_sbu_0, # of connection points: 5
#     Node 1, Type 0, BuildingBlock: XOMCOT_clean_sbu_0, # of connection points: 5
#     Node 2, Type 0, BuildingBlock: XOMCOT_clean_sbu_0, # of connection points: 5
#     Node 3, Type 0, BuildingBlock: XOMCOT_clean_sbu_0, # of connection points: 5
#     Node 4, Type 0, BuildingBlock: XOMCOT_clean_sbu_0, # of connection points: 5
#     Node 5, Type 0, BuildingBlock: XOMCOT_clean_sbu_0, # of connection points: 5
#     Node 6, Type 0, BuildingBlock: XOMCOT_clean_sbu_0, # of connection points: 5
#     Node 7, Type 0, BuildingBlock: XOMCOT_clean_sbu_0, # of connection points: 5
#     Node 8, Type 0, BuildingBlock: XOMCOT_clean_sbu_0, # of connection points: 5
#     Node 9, Type 0, BuildingBlock: XOMCOT_clean_sbu_0, # of connection points: 5
#     Node 10, Type 0, BuildingBlock: XOMCOT_clean_sbu_0, # of connection points: 5
#     Node 11, Type 0, BuildingBlock: XOMCOT_clean_sbu_0, # of connection points: 5
#     Node 12, Type 0, BuildingBlock: XOMCOT_clean_sbu_0, # of connection points: 5
#     Node 13, Type 0, BuildingBlock: XOMCOT_clean_sbu_0, # of connection points: 5
#     Node 14, Type 0, BuildingBlock: XOMCOT_clean_sbu_0, # of connection points: 5
#     Node 15, Type 0, BuildingBlock: XOMCOT_clean_sbu_0, # of connection points: 5
#     Node 16, Type 0, BuildingBlock: XOMCOT_clean_sbu_0, # of connection points: 5
#     Node 17, Type 0, BuildingBlock: XOMCOT_clean_sbu_0, # of connection points: 5
#     Node 18, Type 0, BuildingBlock: XOMCOT_clean_sbu_0, # of connection points: 5
#     Node 19, Type 0, BuildingBlock: XOMCOT_clean_sbu_0, # of connection points: 5
#     Node 20, Type 0, BuildingBlock: XOMCOT_clean_sbu_0, # of connection points: 5
#     Node 21, Type 0, BuildingBlock: XOMCOT_clean_sbu_0, # of connection points: 5
#     Node 22, Type 0, BuildingBlock: XOMCOT_clean_sbu_0, # of connection points: 5
#     Node 23, Type 0, BuildingBlock: XOMCOT_clean_sbu_0, # of connection points: 5
#     Node 24, Type 0, BuildingBlock: XOMCOT_clean_sbu_0, # of connection points: 5
#     Node 25, Type 0, BuildingBlock: XOMCOT_clean_sbu_0, # of connection points: 5
#     Node 26, Type 0, BuildingBlock: XOMCOT_clean_sbu_0, # of connection points: 5
#     Node 27, Type 0, BuildingBlock: XOMCOT_clean_sbu_0, # of connection points: 5
#     Node 28, Type 0, BuildingBlock: XOMCOT_clean_sbu_0, # of connection points: 5
#     Node 29, Type 0, BuildingBlock: XOMCOT_clean_sbu_0, # of connection points: 5
#     Node 30, Type 0, BuildingBlock: XOMCOT_clean_sbu_0, # of connection points: 5
#     Node 31, Type 0, BuildingBlock: XOMCOT_clean_sbu_0, # of connection points: 5
#     Node 32, Type 0, BuildingBlock: XOMCOT_clean_sbu_0, # of connection points: 5
#     Node 33, Type 0, BuildingBlock: XOMCOT_clean_sbu_0, # of connection points: 5
#     Node 34, Type 0, BuildingBlock: XOMCOT_clean_sbu_0, # of connection points: 5
#     Node 35, Type 0, BuildingBlock: XOMCOT_clean_sbu_0, # of connection points: 5
#     Node 36, Type 0, BuildingBlock: XOMCOT_clean_sbu_0, # of connection points: 5
#     Node 37, Type 0, BuildingBlock: XOMCOT_clean_sbu_0, # of connection points: 5
#     Node 38, Type 0, BuildingBlock: XOMCOT_clean_sbu_0, # of connection points: 5
#     Node 39, Type 0, BuildingBlock: XOMCOT_clean_sbu_0, # of connection points: 5
#     Node 40, Type 0, BuildingBlock: XOMCOT_clean_sbu_0, # of connection points: 5
#     Node 41, Type 0, BuildingBlock: XOMCOT_clean_sbu_0, # of connection points: 5
#     Node 42, Type 0, BuildingBlock: XOMCOT_clean_sbu_0, # of connection points: 5
#     Node 43, Type 0, BuildingBlock: XOMCOT_clean_sbu_0, # of connection points: 5
#     Node 44, Type 0, BuildingBlock: XOMCOT_clean_sbu_0, # of connection points: 5
#     Node 45, Type 0, BuildingBlock: XOMCOT_clean_sbu_0, # of connection points: 5
#     Node 46, Type 0, BuildingBlock: XOMCOT_clean_sbu_0, # of connection points: 5
#     Node 47, Type 0, BuildingBlock: XOMCOT_clean_sbu_0, # of connection points: 5
#     Node 48, Type 0, BuildingBlock: XOMCOT_clean_sbu_0, # of connection points: 5
#     Node 49, Type 0, BuildingBlock: XOMCOT_clean_sbu_0, # of connection points: 5
#     Node 50, Type 0, BuildingBlock: XOMCOT_clean_sbu_0, # of connection points: 5
#     Node 51, Type 0, BuildingBlock: XOMCOT_clean_sbu_0, # of connection points: 5
#     Node 52, Type 0, BuildingBlock: XOMCOT_clean_sbu_0, # of connection points: 5
#     Node 53, Type 0, BuildingBlock: XOMCOT_clean_sbu_0, # of connection points: 5
#     Node 54, Type 0, BuildingBlock: XOMCOT_clean_sbu_0, # of connection points: 5
#     Node 55, Type 0, BuildingBlock: XOMCOT_clean_sbu_0, # of connection points: 5
#     Node 56, Type 0, BuildingBlock: XOMCOT_clean_sbu_0, # of connection points: 5
#     Node 57, Type 0, BuildingBlock: XOMCOT_clean_sbu_0, # of connection points: 5
#     Node 58, Type 0, BuildingBlock: XOMCOT_clean_sbu_0, # of connection points: 5
#     Node 59, Type 0, BuildingBlock: XOMCOT_clean_sbu_0, # of connection points: 5
#     Node 60, Type 0, BuildingBlock: XOMCOT_clean_sbu_0, # of connection points: 5
#     Node 61, Type 0, BuildingBlock: XOMCOT_clean_sbu_0, # of connection points: 5
#     Node 62, Type 0, BuildingBlock: XOMCOT_clean_sbu_0, # of connection points: 5
#     Node 63, Type 0, BuildingBlock: XOMCOT_clean_sbu_0, # of connection points: 5
#     Node 64, Type 0, BuildingBlock: XOMCOT_clean_sbu_0, # of connection points: 5
#     Node 65, Type 0, BuildingBlock: XOMCOT_clean_sbu_0, # of connection points: 5
#     Node 66, Type 0, BuildingBlock: XOMCOT_clean_sbu_0, # of connection points: 5
#     Node 67, Type 0, BuildingBlock: XOMCOT_clean_sbu_0, # of connection points: 5
#     Node 68, Type 0, BuildingBlock: XOMCOT_clean_sbu_0, # of connection points: 5
#     Node 69, Type 0, BuildingBlock: XOMCOT_clean_sbu_0, # of connection points: 5
#     Node 70, Type 0, BuildingBlock: XOMCOT_clean_sbu_0, # of connection points: 5
#     Node 71, Type 0, BuildingBlock: XOMCOT_clean_sbu_0, # of connection points: 5
#     Node 72, Type 0, BuildingBlock: XOMCOT_clean_sbu_0, # of connection points: 5
#     Node 73, Type 0, BuildingBlock: XOMCOT_clean_sbu_0, # of connection points: 5
#     Node 74, Type 0, BuildingBlock: XOMCOT_clean_sbu_0, # of connection points: 5
#     Node 75, Type 0, BuildingBlock: XOMCOT_clean_sbu_0, # of connection points: 5
#     Node 76, Type 0, BuildingBlock: XOMCOT_clean_sbu_0, # of connection points: 5
#     Node 77, Type 0, BuildingBlock: XOMCOT_clean_sbu_0, # of connection points: 5
#     Node 78, Type 0, BuildingBlock: XOMCOT_clean_sbu_0, # of connection points: 5
#     Node 79, Type 0, BuildingBlock: XOMCOT_clean_sbu_0, # of connection points: 5
#     Node 80, Type 0, BuildingBlock: XOMCOT_clean_sbu_0, # of connection points: 5
#     Node 81, Type 0, BuildingBlock: XOMCOT_clean_sbu_0, # of connection points: 5
#     Node 82, Type 0, BuildingBlock: XOMCOT_clean_sbu_0, # of connection points: 5
#     Node 83, Type 0, BuildingBlock: XOMCOT_clean_sbu_0, # of connection points: 5
#     Node 84, Type 0, BuildingBlock: XOMCOT_clean_sbu_0, # of connection points: 5
#     Node 85, Type 0, BuildingBlock: XOMCOT_clean_sbu_0, # of connection points: 5
#     Node 86, Type 0, BuildingBlock: XOMCOT_clean_sbu_0, # of connection points: 5
#     Node 87, Type 0, BuildingBlock: XOMCOT_clean_sbu_0, # of connection points: 5
#     Node 88, Type 0, BuildingBlock: XOMCOT_clean_sbu_0, # of connection points: 5
#     Node 89, Type 0, BuildingBlock: XOMCOT_clean_sbu_0, # of connection points: 5
#     Node 90, Type 0, BuildingBlock: XOMCOT_clean_sbu_0, # of connection points: 5
#     Node 91, Type 0, BuildingBlock: XOMCOT_clean_sbu_0, # of connection points: 5
#     Node 92, Type 0, BuildingBlock: XOMCOT_clean_sbu_0, # of connection points: 5
#     Node 93, Type 0, BuildingBlock: XOMCOT_clean_sbu_0, # of connection points: 5
#     Node 94, Type 0, BuildingBlock: XOMCOT_clean_sbu_0, # of connection points: 5
#     Node 95, Type 0, BuildingBlock: XOMCOT_clean_sbu_0, # of connection points: 5
#     Edge 96, Type (0, 0), None
#     Edge 97, Type (0, 0), None
#     Edge 98, Type (0, 0), None
#     Edge 99, Type (0, 0), None
#     Edge 100, Type (0, 0), None
#     Edge 101, Type (0, 0), None
#     Edge 102, Type (0, 0), None
#     Edge 103, Type (0, 0), None
#     Edge 104, Type (0, 0), None
#     Edge 105, Type (0, 0), None
#     Edge 106, Type (0, 0), None
#     Edge 107, Type (0, 0), None
#     Edge 108, Type (0, 0), None
#     Edge 109, Type (0, 0), None
#     Edge 110, Type (0, 0), None
#     Edge 111, Type (0, 0), None
#     Edge 112, Type (0, 0), None
#     Edge 113, Type (0, 0), None
#     Edge 114, Type (0, 0), None
#     Edge 115, Type (0, 0), None
#     Edge 116, Type (0, 0), None
#     Edge 117, Type (0, 0), None
#     Edge 118, Type (0, 0), None
#     Edge 119, Type (0, 0), None
#     Edge 120, Type (0, 0), None
#     Edge 121, Type (0, 0), None
#     Edge 122, Type (0, 0), None
#     Edge 123, Type (0, 0), None
#     Edge 124, Type (0, 0), None
#     Edge 125, Type (0, 0), None
#     Edge 126, Type (0, 0), None
#     Edge 127, Type (0, 0), None
#     Edge 128, Type (0, 0), None
#     Edge 129, Type (0, 0), None
#     Edge 130, Type (0, 0), None
#     Edge 131, Type (0, 0), None
#     Edge 132, Type (0, 0), None
#     Edge 133, Type (0, 0), None
#     Edge 134, Type (0, 0), None
#     Edge 135, Type (0, 0), None
#     Edge 136, Type (0, 0), None
#     Edge 137, Type (0, 0), None
#     Edge 138, Type (0, 0), None
#     Edge 139, Type (0, 0), None
#     Edge 140, Type (0, 0), None
#     Edge 141, Type (0, 0), None
#     Edge 142, Type (0, 0), None
#     Edge 143, Type (0, 0), None
#     Edge 144, Type (0, 0), None
#     Edge 145, Type (0, 0), None
#     Edge 146, Type (0, 0), None
#     Edge 147, Type (0, 0), None
#     Edge 148, Type (0, 0), None
#     Edge 149, Type (0, 0), None
#     Edge 150, Type (0, 0), None
#     Edge 151, Type (0, 0), None
#     Edge 152, Type (0, 0), None
#     Edge 153, Type (0, 0), None
#     Edge 154, Type (0, 0), None
#     Edge 155, Type (0, 0), None
#     Edge 156, Type (0, 0), None
#     Edge 157, Type (0, 0), None
#     Edge 158, Type (0, 0), None
#     Edge 159, Type (0, 0), None
#     Edge 160, Type (0, 0), None
#     Edge 161, Type (0, 0), None
#     Edge 162, Type (0, 0), None
#     Edge 163, Type (0, 0), None
#     Edge 164, Type (0, 0), None
#     Edge 165, Type (0, 0), None
#     Edge 166, Type (0, 0), None
#     Edge 167, Type (0, 0), None
#     Edge 168, Type (0, 0), None
#     Edge 169, Type (0, 0), None
#     Edge 170, Type (0, 0), None
#     Edge 171, Type (0, 0), None
#     Edge 172, Type (0, 0), None
#     Edge 173, Type (0, 0), None
#     Edge 174, Type (0, 0), None
#     Edge 175, Type (0, 0), None
#     Edge 176, Type (0, 0), None
#     Edge 177, Type (0, 0), None
#     Edge 178, Type (0, 0), None
#     Edge 179, Type (0, 0), None
#     Edge 180, Type (0, 0), None
#     Edge 181, Type (0, 0), None
#     Edge 182, Type (0, 0), None
#     Edge 183, Type (0, 0), None
#     Edge 184, Type (0, 0), None
#     Edge 185, Type (0, 0), None
#     Edge 186, Type (0, 0), None
#     Edge 187, Type (0, 0), None
#     Edge 188, Type (0, 0), None
#     Edge 189, Type (0, 0), None
#     Edge 190, Type (0, 0), None
#     Edge 191, Type (0, 0), None
#     Edge 192, Type (0, 0), None
#     Edge 193, Type (0, 0), None
#     Edge 194, Type (0, 0), None
#     Edge 195, Type (0, 0), None
#     Edge 196, Type (0, 0), None
#     Edge 197, Type (0, 0), None
#     Edge 198, Type (0, 0), None
#     Edge 199, Type (0, 0), None
#     Edge 200, Type (0, 0), None
#     Edge 201, Type (0, 0), None
#     Edge 202, Type (0, 0), None
#     Edge 203, Type (0, 0), None
#     Edge 204, Type (0, 0), None
#     Edge 205, Type (0, 0), None
#     Edge 206, Type (0, 0), None
#     Edge 207, Type (0, 0), None
#     Edge 208, Type (0, 0), None
#     Edge 209, Type (0, 0), None
#     Edge 210, Type (0, 0), None
#     Edge 211, Type (0, 0), None
#     Edge 212, Type (0, 0), None
#     Edge 213, Type (0, 0), None
#     Edge 214, Type (0, 0), None
#     Edge 215, Type (0, 0), None
#     Edge 216, Type (0, 0), None
#     Edge 217, Type (0, 0), None
#     Edge 218, Type (0, 0), None
#     Edge 219, Type (0, 0), None
#     Edge 220, Type (0, 0), None
#     Edge 221, Type (0, 0), None
#     Edge 222, Type (0, 0), None
#     Edge 223, Type (0, 0), None
#     Edge 224, Type (0, 0), None
#     Edge 225, Type (0, 0), None
#     Edge 226, Type (0, 0), None
#     Edge 227, Type (0, 0), None
#     Edge 228, Type (0, 0), None
#     Edge 229, Type (0, 0), None
#     Edge 230, Type (0, 0), None
#     Edge 231, Type (0, 0), None
#     Edge 232, Type (0, 0), None
#     Edge 233, Type (0, 0), None
#     Edge 234, Type (0, 0), None
#     Edge 235, Type (0, 0), None
#     Edge 236, Type (0, 0), None
#     Edge 237, Type (0, 0), None
#     Edge 238, Type (0, 0), None
#     Edge 239, Type (0, 0), None
#     Edge 240, Type (0, 0), None
#     Edge 241, Type (0, 0), None
#     Edge 242, Type (0, 0), None
#     Edge 243, Type (0, 0), None
#     Edge 244, Type (0, 0), None
#     Edge 245, Type (0, 0), None
#     Edge 246, Type (0, 0), None
#     Edge 247, Type (0, 0), None
#     Edge 248, Type (0, 0), None
#     Edge 249, Type (0, 0), None
#     Edge 250, Type (0, 0), None
#     Edge 251, Type (0, 0), None
#     Edge 252, Type (0, 0), None
#     Edge 253, Type (0, 0), None
#     Edge 254, Type (0, 0), None
#     Edge 255, Type (0, 0), None
#     Edge 256, Type (0, 0), None
#     Edge 257, Type (0, 0), None
#     Edge 258, Type (0, 0), None
#     Edge 259, Type (0, 0), None
#     Edge 260, Type (0, 0), None
#     Edge 261, Type (0, 0), None
#     Edge 262, Type (0, 0), None
#     Edge 263, Type (0, 0), None
#     Edge 264, Type (0, 0), None
#     Edge 265, Type (0, 0), None
#     Edge 266, Type (0, 0), None
#     Edge 267, Type (0, 0), None
#     Edge 268, Type (0, 0), None
#     Edge 269, Type (0, 0), None
#     Edge 270, Type (0, 0), None
#     Edge 271, Type (0, 0), None
#     Edge 272, Type (0, 0), None
#     Edge 273, Type (0, 0), None
#     Edge 274, Type (0, 0), None
#     Edge 275, Type (0, 0), None
#     Edge 276, Type (0, 0), None
#     Edge 277, Type (0, 0), None
#     Edge 278, Type (0, 0), None
#     Edge 279, Type (0, 0), None
#     Edge 280, Type (0, 0), None
#     Edge 281, Type (0, 0), None
#     Edge 282, Type (0, 0), None
#     Edge 283, Type (0, 0), None
#     Edge 284, Type (0, 0), None
#     Edge 285, Type (0, 0), None
#     Edge 286, Type (0, 0), None
#     Edge 287, Type (0, 0), None
#     Edge 288, Type (0, 0), None
#     Edge 289, Type (0, 0), None
#     Edge 290, Type (0, 0), None
#     Edge 291, Type (0, 0), None
#     Edge 292, Type (0, 0), None
#     Edge 293, Type (0, 0), None
#     Edge 294, Type (0, 0), None
#     Edge 295, Type (0, 0), None
#     Edge 296, Type (0, 0), None
#     Edge 297, Type (0, 0), None
#     Edge 298, Type (0, 0), None
#     Edge 299, Type (0, 0), None
#     Edge 300, Type (0, 0), None
#     Edge 301, Type (0, 0), None
#     Edge 302, Type (0, 0), None
#     Edge 303, Type (0, 0), None
#     Edge 304, Type (0, 0), None
#     Edge 305, Type (0, 0), None
#     Edge 306, Type (0, 0), None
#     Edge 307, Type (0, 0), None
#     Edge 308, Type (0, 0), None
#     Edge 309, Type (0, 0), None
#     Edge 310, Type (0, 0), None
#     Edge 311, Type (0, 0), None
#     Edge 312, Type (0, 0), None
#     Edge 313, Type (0, 0), None
#     Edge 314, Type (0, 0), None
#     Edge 315, Type (0, 0), None
#     Edge 316, Type (0, 0), None
#     Edge 317, Type (0, 0), None
#     Edge 318, Type (0, 0), None
#     Edge 319, Type (0, 0), None
#     Edge 320, Type (0, 0), None
#     Edge 321, Type (0, 0), None
#     Edge 322, Type (0, 0), None
#     Edge 323, Type (0, 0), None
#     Edge 324, Type (0, 0), None
#     Edge 325, Type (0, 0), None
#     Edge 326, Type (0, 0), None
#     Edge 327, Type (0, 0), None
#     Edge 328, Type (0, 0), None
#     Edge 329, Type (0, 0), None
#     Edge 330, Type (0, 0), None
#     Edge 331, Type (0, 0), None
#     Edge 332, Type (0, 0), None
#     Edge 333, Type (0, 0), None
#     Edge 334, Type (0, 0), None
#     Edge 335, Type (0, 0), None
# Relax obj value: 0.361
# Max RMSD: 0.264
# Mean RMSD: 0.264
data_MOF--net-fdc--node1-XOMCOT_clean_sbu_0--edge1-none
_symmetry_space_group_name_H-M    P1
_symmetry_Int_Tables_number       1
_symmetry_cell_setting            triclinic
loop_
_symmetry_equiv_pos_as_xyz
'x, y, z'
_cell_length_a     38.604038
_cell_length_b     38.599537
_cell_length_c     38.584569
_cell_angle_alpha  89.999927
_cell_angle_beta   90.00281
_cell_angle_gamma 90.001852
loop_
_atom_site_label
_atom_site_type_symbol
_atom_site_fract_x
_atom_site_fract_y
_atom_site_fract_z
_atom_type_partial_charge
Co0 Co 0.07712 0.09255 0.38558 0.0
C1 C 0.07867 0.06156 0.31099 0.0
C2 C 0.08352 1.02429 0.35178 0.0
C3 C 0.08373 1.00673 0.32049 0.0
N4 N 0.08019 0.05873 0.3464 0.0
N5 N 0.08069 0.02995 0.29467 0.0
H6 H 0.0758 0.08602 0.2976 0.0
H7 H 0.08557 1.01247 0.37711 0.0
C8 C 1.02125 0.06784 0.43416 0.0
O9 O 0.0281 0.07019 0.46734 0.0
N10 N 0.07331 0.12298 0.42802 0.0
C11 C 0.04699 0.145 0.43671 0.0
C12 C 0.04365 0.14798 0.47197 0.0
C13 C 0.08523 0.11318 0.46006 0.0
N14 N 0.06771 0.12817 0.48714 0.0
C15 C 0.03808 0.14623 0.36035 0.0
C16 C 0.97821 0.10793 0.35346 0.0
C17 C 0.97776 0.14393 0.34908 0.0
C18 C 1.00815 0.16321 0.35342 0.0
C19 C 1.00972 0.09206 0.35826 0.0
N20 N 0.03739 0.11167 0.36637 0.0
H21 H 0.06084 0.1617 0.36514 0.0
H22 H 1.01211 0.06429 0.35687 0.0
H23 H 0.02681 0.15462 0.42041 0.0
H24 H 0.1035 0.09218 0.46355 0.0
O25 O 0.10706 0.12461 0.36021 0.0
O26 O 0.12756 0.08519 0.39476 0.0
O27 O 0.04611 0.05811 0.41337 0.0
C28 C 0.13382 0.11052 0.3728 0.0
H29 H 0.08624 0.97903 0.31708 0.0
H30 H 1.02244 0.16062 0.48532 0.0
H31 H 0.95554 0.09219 0.3483 0.0
H32 H 1.00998 0.19081 0.34872 0.0
Co33 Co 0.20978 0.82721 0.63552 0.0
C34 C 0.24074 0.82876 0.56092 0.0
C35 C 0.27802 0.83357 0.60171 0.0
C36 C 0.29557 0.83378 0.57041 0.0
N37 N 0.24358 0.83027 0.59633 0.0
N38 N 0.27235 0.83077 0.5446 0.0
H39 H 0.21628 0.82593 0.54753 0.0
H40 H 0.28985 0.8356 0.62703 0.0
C41 C 0.23451 0.77134 0.68411 0.0
O42 O 0.23219 0.77819 0.71729 0.0
N43 N 0.17939 0.82343 0.67797 0.0
C44 C 0.15736 0.79711 0.68669 0.0
C45 C 0.15441 0.79378 0.72196 0.0
C46 C 0.18923 0.83534 0.71 0.0
N47 N 0.17426 0.81782 0.73709 0.0
C48 C 0.15607 0.78819 0.61034 0.0
C49 C 0.19433 0.72828 0.60352 0.0
C50 C 0.15833 0.72784 0.59913 0.0
C51 C 0.13907 0.75824 0.60346 0.0
C52 C 0.21022 0.75979 0.60825 0.0
N53 N 0.19063 0.78749 0.61634 0.0
H54 H 0.14061 0.81096 0.61512 0.0
H55 H 0.23798 0.76217 0.60683 0.0
H56 H 0.1477 0.77695 0.67041 0.0
H57 H 0.21023 0.85362 0.71346 0.0
O58 O 0.17772 0.85716 0.61016 0.0
O59 O 0.21717 0.87766 0.64468 0.0
O60 O 0.24422 0.79621 0.66331 0.0
C61 C 0.19182 0.88392 0.62274 0.0
H62 H 0.32327 0.83627 0.567 0.0
H63 H 0.14175 0.77259 0.73533 0.0
H64 H 0.21004 0.70559 0.59838 0.0
H65 H 0.11147 0.76009 0.59877 0.0
Co66 Co 0.47533 0.95989 0.88558 0.0
C67 C 0.47382 0.99086 0.81097 0.0
C68 C 0.46901 0.02814 0.85177 0.0
C69 C 0.46881 0.0457 0.82047 0.0
N70 N 0.47231 0.99369 0.84638 0.0
N71 N 0.47182 1.02248 0.79465 0.0
H72 H 0.47665 0.96641 0.79757 0.0
H73 H 0.46697 0.03996 0.87709 0.0
C74 C 0.53123 0.9846 0.93414 0.0
O75 O 0.52437 0.98214 0.96731 0.0
N76 N 0.47908 0.92949 0.92805 0.0
C77 C 0.50539 0.90747 0.93677 0.0
C78 C 0.50869 0.90449 0.97204 0.0
C79 C 0.46714 0.93931 0.96007 0.0
N80 N 0.48463 0.92432 0.98717 0.0
C81 C 0.51429 0.9061 0.86044 0.0
C82 C 0.57426 0.94428 0.85371 0.0
C83 C 0.57464 0.90827 0.84931 0.0
C84 C 0.54421 0.88905 0.85363 0.0
C85 C 0.54276 0.96022 0.85836 0.0
N86 N 0.51502 0.94068 0.8664 0.0
H87 H 0.49149 0.89067 0.8652 0.0
H88 H 0.54042 0.98799 0.85692 0.0
H89 H 0.5256 0.89787 0.92052 0.0
H90 H 0.44886 0.96031 0.96353 0.0
O91 O 0.44536 0.92785 0.86023 0.0
O92 O 0.42489 0.96732 0.89473 0.0
O93 O 0.50637 0.99432 0.91335 0.0
C94 C 0.4186 0.94197 0.8728 0.0
H95 H 0.46632 0.07341 0.81707 0.0
H96 H 0.52989 0.89185 0.98542 0.0
H97 H 0.59698 0.95996 0.84859 0.0
H98 H 0.54234 0.86145 0.84895 0.0
Co99 Co 0.34256 0.22532 0.13553 0.0
C100 C 0.31158 0.22379 0.06093 0.0
C101 C 0.27431 0.21894 0.10172 0.0
C102 C 0.25676 0.21874 0.07042 0.0
N103 N 0.30875 0.22227 0.09634 0.0
N104 N 0.27997 0.22178 0.04461 0.0
H105 H 0.33603 0.22664 0.04753 0.0
H106 H 0.26249 0.21689 0.12705 0.0
C107 C 0.31785 0.28121 0.18409 0.0
O108 O 0.3202 0.27437 0.21728 0.0
N109 N 0.37295 0.22911 0.17799 0.0
C110 C 0.39496 0.25544 0.1867 0.0
C111 C 0.39792 0.25876 0.22197 0.0
C112 C 0.36313 0.21718 0.21002 0.0
N113 N 0.3781 0.2347 0.23711 0.0
C114 C 0.3963 0.2643 0.11036 0.0
C115 C 0.35808 0.32423 0.10349 0.0
C116 C 0.39408 0.32464 0.09911 0.0
C117 C 0.41332 0.29423 0.10347 0.0
C118 C 0.34217 0.29273 0.10824 0.0
N119 N 0.36173 0.26503 0.11634 0.0
H120 H 0.41174 0.24152 0.11516 0.0
H121 H 0.3144 0.29037 0.10681 0.0
H122 H 0.40457 0.27563 0.17043 0.0
H123 H 0.34214 0.19889 0.21348 0.0
O124 O 0.3746 0.19536 0.11018 0.0
O125 O 0.33515 0.17488 0.14471 0.0
O126 O 0.30812 0.25635 0.16331 0.0
C127 C 0.36049 0.1686 0.12277 0.0
H128 H 0.22905 0.21624 0.06702 0.0
H129 H 0.41056 0.27997 0.23534 0.0
H130 H 0.34238 0.34693 0.09834 0.0
H131 H 0.44092 0.29236 0.09878 0.0
Co132 Co 0.07715 0.95972 0.16736 0.0
C133 C 0.07869 0.99067 0.24198 0.0
C134 C 0.08343 0.02797 0.20119 0.0
C135 C 0.08364 0.04552 0.23249 0.0
N136 N 0.08017 0.99352 0.20657 0.0
N137 N 0.08068 1.02229 0.2583 0.0
H138 H 0.07588 0.96621 0.25537 0.0
H139 H 0.08544 0.0398 0.17586 0.0
C140 C 1.02127 0.98445 0.11878 0.0
O141 O 0.0281 0.9821 0.0856 0.0
N142 N 0.07339 0.92934 0.12489 0.0
C143 C 0.04708 0.90732 0.11615 0.0
C144 C 0.04376 0.90439 0.08088 0.0
C145 C 0.08531 0.9392 0.09287 0.0
N146 N 0.0678 0.92424 0.06576 0.0
C147 C 0.03814 0.90596 0.19248 0.0
C148 C 0.9782 0.94418 0.1992 0.0
C149 C 0.97779 0.90817 0.2036 0.0
C150 C 1.0082 0.88893 0.19929 0.0
C151 C 1.00971 0.96009 0.19457 0.0
N152 N 0.03743 0.94054 0.18652 0.0
H153 H 0.06093 0.89052 0.18773 0.0
H154 H 1.01207 0.98786 0.19602 0.0
H155 H 0.0269 0.89767 0.13241 0.0
H156 H 0.10358 0.96021 0.08942 0.0
O157 O 0.1071 0.92767 0.19272 0.0
O158 O 0.12758 0.96715 0.15822 0.0
O159 O 0.04615 0.99417 0.13956 0.0
C160 C 0.13385 0.9418 0.18016 0.0
H161 H 0.08611 0.07323 0.2359 0.0
H162 H 1.02256 0.89175 0.0675 0.0
H163 H 0.95549 0.95988 0.20432 0.0
H164 H 1.01005 0.86133 0.20396 0.0
Co165 Co 0.34259 0.82719 0.41732 0.0
C166 C 0.31161 0.82876 0.49191 0.0
C167 C 0.27433 0.83357 0.45111 0.0
C168 C 0.25678 0.83378 0.48241 0.0
N169 N 0.30878 0.83026 0.4565 0.0
N170 N 0.28 0.83078 0.50822 0.0
H171 H 0.33607 0.82592 0.5053 0.0
H172 H 0.26251 0.83559 0.42578 0.0
C173 C 0.31788 0.77132 0.36873 0.0
O174 O 0.32019 0.77815 0.33554 0.0
N175 N 0.373 0.82339 0.37487 0.0
C176 C 0.39501 0.79706 0.36618 0.0
C177 C 0.39797 0.79372 0.33091 0.0
C178 C 0.36318 0.8353 0.34284 0.0
N179 N 0.37816 0.81778 0.31576 0.0
C180 C 0.39627 0.78816 0.44252 0.0
C181 C 0.35799 0.72827 0.44939 0.0
C182 C 0.39399 0.72782 0.45376 0.0
C183 C 0.41326 0.75821 0.44941 0.0
C184 C 0.34211 0.75978 0.44463 0.0
N185 N 0.36171 0.78747 0.43652 0.0
H186 H 0.41174 0.81092 0.43774 0.0
H187 H 0.31435 0.76217 0.44604 0.0
H188 H 0.40463 0.77688 0.38246 0.0
H189 H 0.34219 0.85358 0.33936 0.0
O190 O 0.37464 0.85713 0.44268 0.0
O191 O 0.33521 0.87763 0.40813 0.0
O192 O 0.30815 0.7962 0.38951 0.0
C193 C 0.36055 0.8839 0.43009 0.0
H194 H 0.22908 0.83627 0.48582 0.0
H195 H 0.41061 0.7725 0.31755 0.0
H196 H 0.34226 0.70559 0.45455 0.0
H197 H 0.44086 0.76005 0.4541 0.0
Co198 Co 0.47529 0.09275 0.66736 0.0
C199 C 0.4738 0.06178 0.74197 0.0
C200 C 0.46904 1.0245 0.70117 0.0
C201 C 0.46884 1.00694 0.73247 0.0
N202 N 0.4723 0.05895 0.70656 0.0
N203 N 0.47182 0.03016 0.75828 0.0
H204 H 0.4766 0.08624 0.75537 0.0
H205 H 0.46702 1.01267 0.67584 0.0
C206 C 0.53119 0.06806 0.61878 0.0
O207 O 0.52435 0.07047 0.58561 0.0
N208 N 0.47902 0.12314 0.62488 0.0
C209 C 0.50531 0.14518 0.61615 0.0
C210 C 0.50862 0.14813 0.58088 0.0
C211 C 0.4671 0.11328 0.59286 0.0
N212 N 0.48459 0.12826 0.56576 0.0
C213 C 0.51426 0.14655 0.69248 0.0
C214 C 0.57425 0.1084 0.69911 0.0
C215 C 0.57463 0.1444 0.70352 0.0
C216 C 0.54419 0.16361 0.69923 0.0
C217 C 0.54275 0.09245 0.69452 0.0
N218 N 0.51499 0.11198 0.68651 0.0
H219 H 0.49145 0.16197 0.68775 0.0
H220 H 0.54041 0.06468 0.69599 0.0
H221 H 0.52548 0.15485 0.6324 0.0
H222 H 0.44885 0.09225 0.58942 0.0
O223 O 0.44532 0.12478 0.69272 0.0
O224 O 0.42486 0.0853 0.65821 0.0
O225 O 0.50632 0.05833 0.63956 0.0
C226 C 0.41857 0.11065 0.68014 0.0
H227 H 0.46638 0.97923 0.73587 0.0
H228 H 0.52981 0.16078 0.5675 0.0
H229 H 0.59698 0.09273 0.7042 0.0
H230 H 0.54233 0.19121 0.70391 0.0
Co231 Co 0.20972 0.22534 0.91732 0.0
C232 C 0.24069 0.22378 0.99192 0.0
C233 C 0.27797 0.21902 0.95113 0.0
C234 C 0.29552 0.2188 0.98243 0.0
N235 N 0.24352 0.22229 0.95651 0.0
N236 N 0.2723 0.22178 1.00824 0.0
H237 H 0.21624 0.22659 1.00532 0.0
H238 H 0.28979 0.217 0.9258 0.0
C239 C 0.23443 0.28122 0.86875 0.0
O240 O 0.23208 0.27439 0.83556 0.0
N241 N 0.17932 0.22911 0.87486 0.0
C242 C 0.15731 0.25543 0.86614 0.0
C243 C 0.15436 0.25875 0.83087 0.0
C244 C 0.18916 0.21718 0.84284 0.0
N245 N 0.1742 0.2347 0.81574 0.0
C246 C 0.15599 0.26435 0.94248 0.0
C247 C 0.19423 0.32427 0.94929 0.0
C248 C 0.15823 0.32469 0.95368 0.0
C249 C 0.13897 0.29428 0.94933 0.0
C250 C 0.21013 0.29276 0.94459 0.0
N251 N 0.19056 0.26505 0.9365 0.0
H252 H 0.14054 0.24157 0.9377 0.0
H253 H 0.23789 0.29039 0.94602 0.0
H254 H 0.14767 0.27561 0.88241 0.0
H255 H 0.21016 0.1989 0.83938 0.0
O256 O 0.17767 0.19538 0.94269 0.0
O257 O 0.21712 0.17489 0.90816 0.0
O258 O 0.24415 0.25634 0.88952 0.0
C259 C 0.19178 0.16862 0.9301 0.0
H260 H 0.32323 0.21633 0.98583 0.0
H261 H 0.14173 0.27996 0.8175 0.0
H262 H 0.20993 0.34697 0.95444 0.0
H263 H 0.11138 0.29243 0.95401 0.0
Co264 Co 0.38522 0.07704 0.09285 0.0
C265 C 0.31065 0.07856 0.06186 0.0
C266 C 0.35141 0.08337 1.02456 0.0
C267 C 0.32013 0.08357 1.007 0.0
N268 N 0.34604 0.08008 0.05902 0.0
N269 N 0.29433 0.08055 0.03023 0.0
H270 H 0.29726 0.07572 0.08633 0.0
H271 H 0.37672 0.08542 1.01273 0.0
C272 C 0.43388 1.02131 0.06808 0.0
O273 O 0.46705 0.02817 0.07036 0.0
N274 N 0.42767 0.0733 0.12326 0.0
C275 C 0.43644 0.04699 0.14528 0.0
C276 C 0.4717 0.04373 0.14824 0.0
C277 C 0.45967 0.08528 0.11342 0.0
N278 N 0.48678 0.0678 0.12839 0.0
C279 C 0.36016 0.03789 0.14652 0.0
C280 C 0.3533 0.97804 0.10813 0.0
C281 C 0.34896 0.97754 0.14416 0.0
C282 C 0.35333 1.00791 0.16348 0.0
C283 C 0.35803 1.00959 0.09229 0.0
N284 N 0.36612 0.03725 0.11193 0.0
H285 H 0.36491 0.06064 0.16201 0.0
H286 H 0.35661 1.01201 0.06452 0.0
H287 H 0.42021 0.02679 0.15495 0.0
H288 H 0.46309 0.10358 0.09243 0.0
O289 O 0.35983 0.10693 0.12495 0.0
O290 O 0.39432 0.12749 0.0855 0.0
O291 O 0.41308 0.04615 0.05836 0.0
C292 C 0.37238 0.13372 0.11086 0.0
H293 H 0.31672 0.08606 0.97928 0.0
H294 H 0.48511 1.02256 0.1609 0.0
H295 H 0.34813 0.95539 0.09237 0.0
H296 H 0.34869 1.0097 0.1911 0.0
Co297 Co 0.22537 0.13527 0.3429 0.0
C298 C 0.22388 0.06069 0.31191 0.0
C299 C 0.21907 0.10146 0.27461 0.0
C300 C 0.21889 0.07018 0.25705 0.0
N301 N 0.22236 0.09609 0.30907 0.0
N302 N 0.2219 0.04437 0.28028 0.0
H303 H 0.22671 0.04731 0.33638 0.0
H304 H 0.21703 0.12678 0.26278 0.0
C305 C 0.28113 0.18394 0.31814 0.0
O306 O 0.27427 0.21711 0.32046 0.0
N307 N 0.22909 0.17773 0.37331 0.0
C308 C 0.25536 0.18649 0.39537 0.0
C309 C 0.25863 0.22176 0.39831 0.0
C310 C 0.21714 0.20972 0.36344 0.0
N311 N 0.2346 0.23684 0.37841 0.0
C312 C 0.26451 0.11021 0.39658 0.0
C313 C 0.32438 0.10346 0.35823 0.0
C314 C 0.32487 0.0991 0.39426 0.0
C315 C 0.29449 0.10342 0.41356 0.0
C316 C 0.29283 0.10813 0.34238 0.0
N317 N 0.26515 0.11618 0.362 0.0
H318 H 0.24174 0.11493 0.41207 0.0
H319 H 0.29042 0.1067 0.3146 0.0
H320 H 0.27552 0.17026 0.4051 0.0
H321 H 0.19887 0.21314 0.34241 0.0
O322 O 0.19548 0.10987 0.37499 0.0
O323 O 0.17493 0.14436 0.33553 0.0
O324 O 0.25627 0.16314 0.30842 0.0
C325 C 0.1687 0.12242 0.36089 0.0
H326 H 0.21641 0.06677 0.22933 0.0
H327 H 0.27978 0.23517 0.41102 0.0
H328 H 0.34705 0.09833 0.34249 0.0
H329 H 0.29269 0.09877 0.44118 0.0
Co330 Co 0.16709 0.97547 0.59281 0.0
C331 C 0.24167 0.97394 0.56184 0.0
C332 C 0.20091 0.96913 0.52453 0.0
C333 C 0.2322 0.96893 0.50698 0.0
N334 N 0.20627 0.97243 0.55899 0.0
N335 N 0.25799 0.97195 0.53022 0.0
H336 H 0.25505 0.97678 0.58631 0.0
H337 H 0.1756 0.9671 0.51269 0.0
C338 C 0.11844 0.03121 0.56803 0.0
O339 O 0.08528 1.02434 0.57035 0.0
N340 N 0.12464 0.97922 0.62323 0.0
C341 C 0.11588 1.00554 0.64525 0.0
C342 C 0.08062 1.00879 0.64822 0.0
C343 C 0.09264 0.96724 0.61341 0.0
N344 N 0.06553 0.98471 0.62838 0.0
C345 C 0.19216 1.01464 0.64647 0.0
C346 C 0.19906 0.07446 0.60807 0.0
C347 C 0.20341 0.07497 0.64409 0.0
C348 C 0.199 0.04461 0.66343 0.0
C349 C 0.1943 0.04292 0.59224 0.0
N350 N 0.18619 1.01526 0.61189 0.0
H351 H 0.18739 0.99189 0.66197 0.0
H352 H 0.19571 0.04049 0.56446 0.0
H353 H 0.13211 1.02575 0.65489 0.0
H354 H 0.08921 0.94894 0.59242 0.0
O355 O 0.19248 0.94559 0.62492 0.0
O356 O 0.15798 0.92502 0.58547 0.0
O357 O 0.13924 1.00637 0.55832 0.0
C358 C 0.17992 0.9188 0.61083 0.0
H359 H 0.23561 0.96645 0.47926 0.0
H360 H 0.06722 0.02997 0.66088 0.0
H361 H 0.20425 0.09711 0.5923 0.0
H362 H 0.20365 0.04282 0.69105 0.0
Co363 Co 0.32705 0.91722 0.84289 0.0
C364 C 0.32853 0.99179 0.81187 0.0
C365 C 0.3334 0.95101 0.77459 0.0
C366 C 0.33358 0.98229 0.75702 0.0
N367 N 0.33008 0.95639 0.80905 0.0
N368 N 0.33053 1.0081 0.78024 0.0
H369 H 0.32567 1.00518 0.83633 0.0
H370 H 0.33547 0.92569 0.76277 0.0
C371 C 0.27129 0.86855 0.81814 0.0
O372 O 0.27813 0.83538 0.82043 0.0
N373 N 0.32331 0.87477 0.87332 0.0
C374 C 0.29703 0.86603 0.89537 0.0
C375 C 0.29373 0.83077 0.89832 0.0
C376 C 0.33525 0.84277 0.86346 0.0
N377 N 0.31777 0.81566 0.87844 0.0
C378 C 0.2879 0.94233 0.89654 0.0
C379 C 0.22807 0.94915 0.85814 0.0
C380 C 0.22756 0.95351 0.89416 0.0
C381 C 0.25793 0.94918 0.91349 0.0
C382 C 0.25961 0.94441 0.84231 0.0
N383 N 0.28727 0.93633 0.86196 0.0
H384 H 0.31066 0.9376 0.91204 0.0
H385 H 0.26204 0.94582 0.81453 0.0
H386 H 0.27688 0.88228 0.9051 0.0
H387 H 0.35352 0.83933 0.84244 0.0
O388 O 0.35694 0.94263 0.87498 0.0
O389 O 0.37749 0.90811 0.83554 0.0
O390 O 0.29615 0.88934 0.80842 0.0
C391 C 0.38372 0.93007 0.86089 0.0
H392 H 0.33608 0.9857 0.7293 0.0
H393 H 0.27258 0.81738 0.91102 0.0
H394 H 0.20541 0.95429 0.84237 0.0
H395 H 0.25972 0.95385 0.94111 0.0
Co396 Co 0.38528 0.97545 0.45999 0.0
C397 C 0.31068 0.97394 0.49094 0.0
C398 C 0.35143 0.96914 0.52826 0.0
C399 C 0.32014 0.96894 0.54581 0.0
N400 N 0.34607 0.97243 0.4938 0.0
N401 N 0.29435 0.97194 0.52256 0.0
H402 H 0.2973 0.97677 0.46647 0.0
H403 H 0.37674 0.96711 0.54011 0.0
C404 C 0.43392 0.03118 0.48479 0.0
O405 O 0.46709 1.02432 0.48251 0.0
N406 N 0.42775 0.97919 0.42961 0.0
C407 C 0.43653 1.00549 0.40759 0.0
C408 C 0.47179 1.00875 0.40464 0.0
C409 C 0.45974 0.96721 0.43946 0.0
N410 N 0.48686 0.98468 0.4245 0.0
C411 C 0.36027 1.01459 0.40629 0.0
C412 C 0.35345 0.07447 0.44463 0.0
C413 C 0.34914 0.07494 0.40861 0.0
C414 C 0.35353 0.04457 0.38929 0.0
C415 C 0.35811 0.04292 0.4605 0.0
N416 N 0.36619 1.01524 0.44088 0.0
H417 H 0.36502 0.99182 0.39081 0.0
H418 H 0.35665 0.04051 0.48827 0.0
H419 H 0.42032 1.0257 0.39792 0.0
H420 H 0.46315 0.94891 0.46046 0.0
O421 O 0.3599 0.94556 0.42788 0.0
O422 O 0.39437 0.92501 0.46737 0.0
O423 O 0.41312 1.00634 0.4945 0.0
C424 C 0.37244 0.91878 0.442 0.0
H425 H 0.31673 0.96646 0.57352 0.0
H426 H 0.4852 0.02992 0.39198 0.0
H427 H 0.34826 0.09714 0.46037 0.0
H428 H 0.34892 0.04278 0.36167 0.0
Co429 Co 0.32699 0.13537 0.70996 0.0
C430 C 0.32853 0.06077 0.74094 0.0
C431 C 0.33323 0.10155 0.77825 0.0
C432 C 0.33344 0.07026 0.7958 0.0
N433 N 0.32999 0.09617 0.74378 0.0
N434 N 0.3305 0.04446 0.77257 0.0
H435 H 0.32575 0.04738 0.71647 0.0
H436 H 0.33522 0.12687 0.79008 0.0
C437 C 0.2712 0.18399 0.73471 0.0
O438 O 0.27806 0.21716 0.73237 0.0
N439 N 0.32328 0.17784 0.67957 0.0
C440 C 0.29699 0.1866 0.65752 0.0
C441 C 0.29371 0.22186 0.65458 0.0
C442 C 0.33523 0.20984 0.68943 0.0
N443 N 0.31775 0.23696 0.67445 0.0
C444 C 0.28793 0.11032 0.65621 0.0
C445 C 0.228 0.10357 0.69448 0.0
C446 C 0.22758 0.09923 0.65845 0.0
C447 C 0.25797 0.10357 0.63918 0.0
C448 C 0.25953 0.10821 0.71038 0.0
N449 N 0.28724 0.11626 0.6908 0.0
H450 H 0.31071 0.11506 0.64075 0.0
H451 H 0.26191 0.10675 0.73816 0.0
H452 H 0.27679 0.17037 0.64785 0.0
H453 H 0.3535 0.21327 0.71044 0.0
O454 O 0.35692 0.10999 0.67789 0.0
O455 O 0.37743 0.14447 0.71738 0.0
O456 O 0.29605 0.1632 0.74443 0.0
C457 C 0.38369 0.12254 0.69203 0.0
H458 H 0.33589 0.06686 0.82353 0.0
H459 H 0.27253 0.23526 0.64191 0.0
H460 H 0.20531 0.09842 0.71019 0.0
H461 H 0.25979 0.09894 0.61156 0.0
Co462 Co 0.16705 0.07706 0.95998 0.0
C463 C 0.24165 0.07856 0.99094 0.0
C464 C 0.20089 0.08336 0.02825 0.0
C465 C 0.23218 0.08356 0.0458 0.0
N466 N 0.20626 0.08007 0.99378 0.0
N467 N 0.25797 0.08056 1.02256 0.0
H468 H 0.25503 0.07574 0.96647 0.0
H469 H 0.17558 0.08539 0.04009 0.0
C470 C 0.11844 1.02129 0.98477 0.0
O471 O 0.08528 0.02814 0.98245 0.0
N472 N 0.12457 0.07332 0.9296 0.0
C473 C 0.11579 0.04701 0.90758 0.0
C474 C 0.08053 0.04375 0.90464 0.0
C475 C 0.09258 0.0853 0.93945 0.0
N476 N 0.06546 0.06783 0.92449 0.0
C477 C 0.19204 0.03795 0.90624 0.0
C478 C 0.19892 0.97806 0.94454 0.0
C479 C 0.20324 0.97762 0.90852 0.0
C480 C 0.19882 1.00799 0.88922 0.0
C481 C 0.19423 1.00959 0.96043 0.0
N482 N 0.18614 0.03728 0.94083 0.0
H483 H 0.18727 0.06073 0.89077 0.0
H484 H 0.19571 1.01199 0.98821 0.0
H485 H 0.132 0.02679 0.89794 0.0
H486 H 0.08917 0.1036 0.96045 0.0
O487 O 0.19242 0.10696 0.92788 0.0
O488 O 0.15796 0.1275 0.96737 0.0
O489 O 0.13924 0.04615 0.99448 0.0
C490 C 0.17988 0.13374 0.942 0.0
H491 H 0.23559 0.08603 0.07352 0.0
H492 H 0.06712 1.02258 0.89199 0.0
H493 H 0.20413 0.95538 0.96027 0.0
H494 H 0.20342 1.00981 0.8616 0.0
Co495 Co 0.22542 0.9171 0.21002 0.0
C496 C 0.2239 0.99169 0.24099 0.0
C497 C 0.21913 0.95092 0.2783 0.0
C498 C 0.21893 0.98221 0.29585 0.0
N499 N 0.22241 0.9563 0.24383 0.0
N500 N 0.22191 1.00801 0.27262 0.0
H501 H 0.22672 1.00508 0.21652 0.0
H502 H 0.21711 0.92561 0.29013 0.0
C503 C 0.28119 0.86848 0.23479 0.0
O504 O 0.27433 0.83531 0.23243 0.0
N505 N 0.22914 0.87462 0.17963 0.0
C506 C 0.25545 0.86585 0.15761 0.0
C507 C 0.2587 0.83059 0.15466 0.0
C508 C 0.21716 0.84263 0.18947 0.0
N509 N 0.23462 0.81551 0.1745 0.0
C510 C 0.26449 0.94211 0.15627 0.0
C511 C 0.32441 0.94892 0.19455 0.0
C512 C 0.32483 0.95325 0.15852 0.0
C513 C 0.29445 0.94887 0.13924 0.0
C514 C 0.29288 0.94426 0.21045 0.0
N515 N 0.26517 0.9362 0.19087 0.0
H516 H 0.24171 0.93735 0.14082 0.0
H517 H 0.2905 0.94573 0.23823 0.0
H518 H 0.27567 0.88206 0.14798 0.0
H519 H 0.19886 0.83921 0.21047 0.0
O520 O 0.1955 0.94247 0.17794 0.0
O521 O 0.17498 0.90799 0.21743 0.0
O522 O 0.25634 0.88927 0.24451 0.0
C523 C 0.16873 0.92992 0.19206 0.0
H524 H 0.21645 0.98562 0.32357 0.0
H525 H 0.27987 0.81718 0.14201 0.0
H526 H 0.3471 0.9541 0.21026 0.0
H527 H 0.29262 0.95348 0.11162 0.0
Co528 Co 0.09254 0.38534 0.0773 0.0
C529 C 0.06158 0.31076 0.07886 0.0
C530 C 1.0243 0.35153 0.0837 0.0
C531 C 1.00676 0.32023 0.08392 0.0
N532 N 0.05874 0.34616 0.08038 0.0
N533 N 0.02998 0.29444 0.08088 0.0
H534 H 0.08604 0.29738 0.07601 0.0
H535 H 1.01247 0.37684 0.08575 0.0
C536 C 0.06777 0.43397 1.02153 0.0
O537 O 0.06996 0.46715 0.02838 0.0
N538 N 0.12293 0.42779 0.07349 0.0
C539 C 0.14489 0.43654 0.04713 0.0
C540 C 0.14785 0.4718 0.04384 0.0
C541 C 0.11311 0.4598 0.08547 0.0
N542 N 0.12806 0.4869 0.06795 0.0
C543 C 0.14619 0.36027 0.03817 0.0
C544 C 0.10784 0.35324 0.97831 0.0
C545 C 0.14385 0.34895 0.97784 0.0
C546 C 0.16316 0.35341 1.0082 0.0
C547 C 0.09199 0.35804 1.00985 0.0
N548 N 0.11162 0.3662 0.03751 0.0
H549 H 0.16167 0.36509 0.06092 0.0
H550 H 0.06423 0.35661 1.01227 0.0
H551 H 0.15449 0.4203 0.02689 0.0
H552 H 0.09216 0.46324 0.1038 0.0
O553 O 0.12463 0.35997 0.1072 0.0
O554 O 0.08521 0.39448 0.12776 0.0
O555 O 0.05806 0.41316 0.04638 0.0
C556 C 0.11056 0.37254 0.13399 0.0
H557 H 0.97905 0.31682 0.08643 0.0
H558 H 0.16047 0.48519 1.02263 0.0
H559 H 0.0921 0.34798 0.95565 0.0
H560 H 0.19077 0.3488 1.01001 0.0
Co561 Co 0.59255 0.16713 0.97554 0.0
C562 C 0.56162 0.24173 0.97396 0.0
C563 C 0.52431 0.20097 0.96916 0.0
C564 C 0.50678 0.23227 0.96894 0.0
N565 N 0.55876 0.20633 0.97246 0.0
N566 N 0.53002 0.25806 0.97195 0.0
H567 H 0.58608 0.25511 0.97679 0.0
H568 H 0.51247 0.17566 0.96713 0.0
C569 C 0.56778 0.11857 0.03137 0.0
O570 O 0.57005 0.08539 1.02452 0.0
N571 N 0.62292 0.12467 0.97936 0.0
C572 C 0.64486 0.11594 1.00575 0.0
C573 C 0.64784 0.08068 1.00905 0.0
C574 C 0.61314 0.09265 0.96739 0.0
N575 N 0.62809 0.06556 0.98491 0.0
C576 C 0.64625 0.19222 1.0146 0.0
C577 C 0.60796 0.19928 0.07449 0.0
C578 C 0.64397 0.20362 0.07493 0.0
C579 C 0.66324 0.19914 0.04455 0.0
C580 C 0.59208 0.19446 0.04297 0.0
N581 N 0.61168 0.18629 1.01529 0.0
H582 H 0.66172 0.18737 0.99184 0.0
H583 H 0.56432 0.1959 0.04057 0.0
H584 H 0.65439 0.13218 1.02601 0.0
H585 H 0.59219 0.08919 0.94904 0.0
O586 O 0.62463 0.19246 0.94561 0.0
O587 O 0.58517 0.15797 0.92508 0.0
O588 O 0.55807 0.13936 1.00651 0.0
C589 C 0.61053 0.17989 0.91883 0.0
H590 H 0.47908 0.23569 0.96645 0.0
H591 H 0.66043 0.06731 0.03029 0.0
H592 H 0.59224 0.20452 0.09716 0.0
H593 H 0.69085 0.20378 0.04271 0.0
Co594 Co 0.13526 0.34257 0.22555 0.0
C595 C 0.0607 0.31159 0.224 0.0
C596 C 0.10146 0.2743 0.21909 0.0
C597 C 0.07017 0.25676 0.21889 0.0
N598 N 0.09609 0.30875 0.22244 0.0
N599 N 0.04438 0.27998 0.22197 0.0
H600 H 0.04732 0.33604 0.22689 0.0
H601 H 0.12677 0.26248 0.21701 0.0
C602 C 0.18389 0.31781 0.28131 0.0
O603 O 0.21707 0.32 0.27449 0.0
N604 N 0.1777 0.37298 0.22936 0.0
C605 C 0.18643 0.39496 0.25572 0.0
C606 C 0.22169 0.39793 0.25901 0.0
C607 C 0.2097 0.36317 0.2174 0.0
N608 N 0.2368 0.37813 0.23491 0.0
C609 C 0.11015 0.39616 0.26473 0.0
C610 C 0.103 0.35771 0.32451 0.0
C611 C 0.0987 0.39373 0.32504 0.0
C612 C 0.10319 0.41308 0.2947 0.0
C613 C 0.1079 0.34192 0.29296 0.0
N614 N 0.11611 0.36159 0.26535 0.0
H615 H 0.11499 0.41168 0.242 0.0
H616 H 0.10651 0.31415 0.2905 0.0
H617 H 0.17018 0.40459 0.27593 0.0
H618 H 0.21315 0.34221 0.19907 0.0
O619 O 0.10988 0.37467 0.19567 0.0
O620 O 0.14441 0.33527 0.17508 0.0
O621 O 0.16311 0.30809 0.25644 0.0
C622 C 0.12246 0.36062 0.16887 0.0
H623 H 0.06675 0.22905 0.21637 0.0
H624 H 0.23508 0.41057 0.28021 0.0
H625 H 0.09774 0.34193 0.34714 0.0
H626 H 0.09855 0.44069 0.29292 0.0
Co627 Co 0.95988 0.88536 0.47558 0.0
C628 C 0.99082 0.81077 0.474 0.0
C629 C 0.02811 0.85152 0.46917 0.0
C630 C 0.04565 0.82023 0.46896 0.0
N631 N 0.99367 0.84616 0.47249 0.0
N632 N 1.02242 0.79444 0.47198 0.0
H633 H 0.96636 0.79739 0.47685 0.0
H634 H 0.03995 0.87683 0.46713 0.0
C635 C 0.98466 0.93394 0.5314 0.0
O636 O 0.98242 0.96711 0.52455 0.0
N637 N 0.9295 0.92782 0.4794 0.0
C638 C 0.90756 0.93655 0.50579 0.0
C639 C 0.90459 0.97181 0.50908 0.0
C640 C 0.9393 0.95983 0.46743 0.0
N641 N 0.92435 0.98693 0.48495 0.0
C642 C 0.9062 0.86026 0.51466 0.0
C643 C 0.94452 0.8532 0.57453 0.0
C644 C 0.90851 0.84887 0.57499 0.0
C645 C 0.88922 0.85335 0.54461 0.0
C646 C 0.96038 0.85803 0.543 0.0
N647 N 0.94077 0.8662 0.51534 0.0
H648 H 0.89073 0.86511 0.4919 0.0
H649 H 0.98814 0.8566 0.5406 0.0
H650 H 0.89802 0.92031 0.52604 0.0
H651 H 0.96025 0.96329 0.44909 0.0
O652 O 0.92779 0.86003 0.44566 0.0
O653 O 0.96724 0.89453 0.42512 0.0
O654 O 0.99436 0.91314 0.50654 0.0
C655 C 0.94188 0.8726 0.41887 0.0
H656 H 0.07335 0.8168 0.46645 0.0
H657 H 0.89201 0.98519 0.53032 0.0
H658 H 0.96025 0.84796 0.5972 0.0
H659 H 0.86161 0.84872 0.54278 0.0
Co660 Co 0.91708 0.20981 0.2256 0.0
C661 C 0.99168 0.24072 0.22401 0.0
C662 C 0.95093 0.27803 0.21926 0.0
C663 C 0.98223 0.29556 0.21903 0.0
N664 N 0.95629 0.24358 0.22254 0.0
N665 N 1.00802 0.27233 0.222 0.0
H666 H 1.00506 0.21626 0.22682 0.0
H667 H 0.92563 0.28988 0.21725 0.0
C668 C 0.86852 0.2346 0.28141 0.0
O669 O 0.83535 0.23235 0.27457 0.0
N670 N 0.87459 0.17945 0.2294 0.0
C671 C 0.86582 0.15752 0.25578 0.0
C672 C 0.83057 0.15457 0.25906 0.0
C673 C 0.84259 0.18927 0.21741 0.0
N674 N 0.81548 0.17435 0.23492 0.0
C675 C 0.94208 0.15606 0.26467 0.0
C676 C 0.94915 0.19434 0.32457 0.0
C677 C 0.95344 0.15832 0.32499 0.0
C678 C 0.94893 0.13904 0.29462 0.0
C679 C 0.94438 0.21023 0.29305 0.0
N680 N 0.93621 0.19065 0.26536 0.0
H681 H 0.93723 0.14061 0.2419 0.0
H682 H 0.94585 0.238 0.29066 0.0
H683 H 0.88204 0.14797 0.27606 0.0
H684 H 0.83917 0.21022 0.19906 0.0
O685 O 0.9424 0.17772 0.19567 0.0
O686 O 0.90794 0.2172 0.17515 0.0
O687 O 0.88931 0.2443 0.25655 0.0
C688 C 0.92985 0.19184 0.16889 0.0
H689 H 0.98565 0.32327 0.21654 0.0
H690 H 0.81717 0.14199 0.28028 0.0
H691 H 0.95442 0.21005 0.34725 0.0
H692 H 0.95352 0.11143 0.29278 0.0
Co693 Co 0.45979 0.66722 0.57732 0.0
C694 C 0.49075 0.7418 0.5789 0.0
C695 C 0.52803 0.70104 0.58367 0.0
C696 C 0.54558 0.73233 0.58389 0.0
N697 N 0.49359 0.70641 0.58038 0.0
N698 N 0.52236 0.75812 0.5809 0.0
H699 H 0.46629 0.75519 0.57608 0.0
H700 H 0.53986 0.67572 0.5857 0.0
C701 C 0.48455 0.61861 0.52152 0.0
O702 O 0.4823 0.58543 0.52838 0.0
N703 N 0.42941 0.62476 0.57354 0.0
C704 C 0.40744 0.616 0.54719 0.0
C705 C 0.40448 0.58074 0.54391 0.0
C706 C 0.43924 0.59276 0.58552 0.0
N707 N 0.42429 0.56565 0.56802 0.0
C708 C 0.40609 0.69227 0.53824 0.0
C709 C 0.44438 0.69924 0.47833 0.0
C710 C 0.40837 0.70354 0.4779 0.0
C711 C 0.38909 0.6991 0.50828 0.0
C712 C 0.46026 0.69448 0.50986 0.0
N713 N 0.44067 0.68635 0.53756 0.0
H714 H 0.39063 0.68746 0.56101 0.0
H715 H 0.48802 0.69593 0.51226 0.0
H716 H 0.39784 0.63223 0.52695 0.0
H717 H 0.4602 0.58932 0.60385 0.0
O718 O 0.42771 0.69257 0.60725 0.0
O719 O 0.46716 0.65808 0.62779 0.0
O720 O 0.49426 0.63941 0.54638 0.0
C721 C 0.44181 0.68001 0.63403 0.0
H722 H 0.57328 0.73574 0.58639 0.0
H723 H 0.39185 0.56734 0.52271 0.0
H724 H 0.46009 0.70447 0.45565 0.0
H725 H 0.36148 0.70371 0.51011 0.0
Co726 Co 0.13528 0.70985 0.32731 0.0
C727 C 0.06071 0.7408 0.32888 0.0
C728 C 0.10146 0.7781 0.33373 0.0
C729 C 0.07018 0.79564 0.33395 0.0
N730 N 0.0961 0.74365 0.33039 0.0
N731 N 0.04438 0.77241 0.33091 0.0
H732 H 0.04733 0.71635 0.32601 0.0
H733 H 0.12677 0.78993 0.33579 0.0
C734 C 0.18388 0.73464 0.27153 0.0
O735 O 0.21706 0.73243 0.27837 0.0
N736 N 0.17772 0.67947 0.3235 0.0
C737 C 0.18647 0.65748 0.29715 0.0
C738 C 0.22172 0.65453 0.29386 0.0
C739 C 0.20972 0.6893 0.33547 0.0
N740 N 0.23682 0.67435 0.31796 0.0
C741 C 0.1102 0.65621 0.28816 0.0
C742 C 0.10312 0.69459 0.22833 0.0
C743 C 0.09879 0.65858 0.22784 0.0
C744 C 0.10329 0.63926 0.25819 0.0
C745 C 0.10796 0.71042 0.25987 0.0
N746 N 0.11614 0.69078 0.28752 0.0
H747 H 0.11503 0.64072 0.31091 0.0
H748 H 0.10654 0.73819 0.26231 0.0
H749 H 0.17023 0.64786 0.27693 0.0
H750 H 0.21316 0.71026 0.35379 0.0
O751 O 0.10992 0.67775 0.3572 0.0
O752 O 0.14443 0.71719 0.37776 0.0
O753 O 0.16309 0.74434 0.29639 0.0
C754 C 0.12249 0.69183 0.384 0.0
H755 H 0.06676 0.82334 0.33647 0.0
H756 H 0.23512 0.64189 0.27267 0.0
H757 H 0.09786 0.71035 0.20568 0.0
H758 H 0.09866 0.61165 0.26 0.0
Co759 Co 0.4171 0.34264 0.82728 0.0
C760 C 0.49166 0.3117 0.82886 0.0
C761 C 0.45091 0.27439 0.8337 0.0
C762 C 0.4822 0.25686 0.83391 0.0
N763 N 0.45627 0.30884 0.83037 0.0
N764 N 0.50799 0.28009 0.83088 0.0
H765 H 0.50504 0.33616 0.826 0.0
H766 H 0.4256 0.26256 0.83574 0.0
C767 C 0.36846 0.31785 0.77152 0.0
O768 O 0.33529 0.32007 0.77837 0.0
N769 N 0.37465 0.37303 0.82348 0.0
C770 C 0.3659 0.39502 0.79713 0.0
C771 C 0.33064 0.39798 0.79385 0.0
C772 C 0.34265 0.36321 0.83545 0.0
N773 N 0.31555 0.37817 0.81795 0.0
C774 C 0.44217 0.39625 0.7881 0.0
C775 C 0.44923 0.35783 0.72829 0.0
C776 C 0.45355 0.39384 0.72777 0.0
C777 C 0.44906 0.41319 0.75812 0.0
C778 C 0.44439 0.34202 0.75984 0.0
N779 N 0.43622 0.36168 0.78748 0.0
H780 H 0.43735 0.41176 0.81084 0.0
H781 H 0.44581 0.31426 0.76229 0.0
H782 H 0.38214 0.40466 0.77691 0.0
H783 H 0.33922 0.34225 0.85378 0.0
O784 O 0.44247 0.37476 0.85716 0.0
O785 O 0.40796 0.33533 0.87775 0.0
O786 O 0.38926 0.30815 0.79639 0.0
C787 C 0.42991 0.36068 0.88396 0.0
H788 H 0.48563 0.22916 0.83643 0.0
H789 H 0.31724 0.41064 0.77267 0.0
H790 H 0.45449 0.34206 0.70565 0.0
H791 H 0.45369 0.4408 0.7599 0.0
Co792 Co 0.97528 0.95985 0.66736 0.0
C793 C 0.97369 0.99084 0.74194 0.0
C794 C 0.96898 0.02813 0.70114 0.0
C795 C 0.96876 0.04568 0.73244 0.0
N796 N 0.97223 0.99368 0.70653 0.0
N797 N 0.97171 1.02246 0.75826 0.0
H798 H 0.97649 0.96638 0.75534 0.0
H799 H 0.96698 0.03995 0.67581 0.0
C800 C 0.03114 0.98455 0.61875 0.0
O801 O 1.02435 0.9823 0.58554 0.0
N802 N 0.97906 0.92942 0.62492 0.0
C803 C 1.00533 0.90734 0.61623 0.0
C804 C 1.00872 0.90441 0.58096 0.0
C805 C 0.96721 0.9393 0.59288 0.0
N806 N 0.98476 0.92434 0.56581 0.0
C807 C 1.01432 0.90618 0.69259 0.0
C808 C 0.07421 0.94448 0.69937 0.0
C809 C 0.07467 0.90847 0.70376 0.0
C810 C 0.04427 0.8892 0.69946 0.0
C811 C 0.04269 0.96035 0.69463 0.0
N812 N 1.01501 0.94074 0.68655 0.0
H813 H 0.99156 0.89071 0.68785 0.0
H814 H 0.0403 0.98812 0.69602 0.0
H815 H 1.02541 0.89756 0.63254 0.0
H816 H 0.94896 0.96032 0.5894 0.0
O817 O 0.94534 0.9278 0.69275 0.0
O818 O 0.92484 0.96722 0.65819 0.0
O819 O 1.00626 0.99427 0.63952 0.0
C820 C 0.91858 0.94189 0.68016 0.0
H821 H 0.9663 0.07339 0.73584 0.0
H822 H 0.02989 0.89169 0.56761 0.0
H823 H 0.0969 0.96021 0.70449 0.0
H824 H 0.04244 0.8616 0.70417 0.0
Co825 Co 0.84268 0.2253 0.4174 0.0
C826 C 0.81173 0.22374 0.49201 0.0
C827 C 0.77443 0.21903 0.45121 0.0
C828 C 0.75689 0.21881 0.48251 0.0
N829 N 0.80888 0.22227 0.45659 0.0
N830 N 0.78012 0.22176 0.50833 0.0
H831 H 0.83619 0.22652 0.5054 0.0
H832 H 0.7626 0.21704 0.42589 0.0
C833 C 0.81797 0.28119 0.36881 0.0
O834 O 0.82028 0.27436 0.33563 0.0
N835 N 0.87307 0.22906 0.37493 0.0
C836 C 0.89514 0.25533 0.36622 0.0
C837 C 0.89806 0.25869 0.33095 0.0
C838 C 0.86317 0.21718 0.34291 0.0
N839 N 0.87812 0.23472 0.31582 0.0
C840 C 0.89642 0.2643 0.44256 0.0
C841 C 0.85822 0.32426 0.44925 0.0
C842 C 0.89422 0.32467 0.45365 0.0
C843 C 0.91345 0.29424 0.44937 0.0
C844 C 0.8423 0.29274 0.4446 0.0
N845 N 0.86186 0.26501 0.43657 0.0
H846 H 0.91187 0.2415 0.43783 0.0
H847 H 0.81454 0.29038 0.44604 0.0
H848 H 0.9049 0.27544 0.3825 0.0
H849 H 0.84216 0.19892 0.33945 0.0
O850 O 0.87472 0.19534 0.44274 0.0
O851 O 0.83525 0.17486 0.40823 0.0
O852 O 0.80825 0.25632 0.3896 0.0
C853 C 0.8606 0.16858 0.43016 0.0
H854 H 0.72918 0.21636 0.48592 0.0
H855 H 0.91077 0.27985 0.31758 0.0
H856 H 0.84252 0.34697 0.45435 0.0
H857 H 0.94105 0.29239 0.45406 0.0
Co858 Co 0.57706 0.09268 0.16735 0.0
C859 C 0.57862 0.06169 0.24195 0.0
C860 C 0.58333 1.02441 0.20114 0.0
C861 C 0.58354 1.00685 0.23244 0.0
N862 N 0.58008 0.05886 0.20654 0.0
N863 N 0.58059 0.03007 0.25826 0.0
H864 H 0.57583 0.08615 0.25535 0.0
H865 H 0.58532 1.01259 0.17581 0.0
C866 C 0.52117 0.06799 0.11875 0.0
O867 O 0.52797 0.07031 0.08556 0.0
N868 N 0.57331 0.12309 0.1249 0.0
C869 C 0.54705 0.14518 0.11618 0.0
C870 C 0.54369 0.14811 0.08091 0.0
C871 C 0.58518 0.1132 0.09287 0.0
N872 N 0.56765 0.12816 0.06578 0.0
C873 C 0.53806 0.14641 0.19253 0.0
C874 C 0.47812 0.10818 0.19924 0.0
C875 C 0.4777 0.14418 0.20363 0.0
C876 C 0.50811 0.16343 0.19935 0.0
C877 C 0.50963 0.09227 0.19458 0.0
N878 N 0.53735 0.11184 0.18653 0.0
H879 H 0.56084 0.16186 0.1878 0.0
H880 H 0.512 0.0645 0.196 0.0
H881 H 0.52695 0.15495 0.13247 0.0
H882 H 0.60343 0.09218 0.08941 0.0
O883 O 0.60702 0.12472 0.19273 0.0
O884 O 0.6275 0.08527 0.15819 0.0
O885 O 0.54605 0.05826 0.13952 0.0
C886 C 0.63377 0.11061 0.18014 0.0
H887 H 0.58599 0.97914 0.23584 0.0
H888 H 0.52253 0.16083 0.06755 0.0
H889 H 0.45542 0.09247 0.20435 0.0
H890 H 0.50996 0.19103 0.20404 0.0
Co891 Co 0.70978 0.82718 0.91736 0.0
C892 C 0.74074 0.82872 0.99198 0.0
C893 C 0.77802 0.83349 0.95119 0.0
C894 C 0.79557 0.8337 0.98249 0.0
N895 N 0.74357 0.83021 0.95657 0.0
N896 N 0.77235 0.83071 1.0083 0.0
H897 H 0.71628 0.8259 1.00537 0.0
H898 H 0.78984 0.83552 0.92586 0.0
C899 C 0.73449 0.77126 0.86882 0.0
O900 O 0.73208 0.77811 0.83565 0.0
N901 N 0.6794 0.82342 0.87488 0.0
C902 C 0.65741 0.79708 0.86616 0.0
C903 C 0.65444 0.79377 0.8309 0.0
C904 C 0.68923 0.83535 0.84285 0.0
N905 N 0.67425 0.81784 0.81576 0.0
C906 C 0.65598 0.78825 0.9425 0.0
C907 C 0.69413 0.72826 0.94927 0.0
C908 C 0.65812 0.7279 0.95368 0.0
C909 C 0.63892 0.75833 0.94933 0.0
C910 C 0.71008 0.75976 0.94461 0.0
N911 N 0.69055 0.7875 0.93654 0.0
H912 H 0.64056 0.81105 0.93771 0.0
H913 H 0.73784 0.76209 0.94606 0.0
H914 H 0.64782 0.77686 0.88242 0.0
H915 H 0.71022 0.85363 0.8394 0.0
O916 O 0.67775 0.85717 0.94268 0.0
O917 O 0.71723 0.87763 0.90819 0.0
O918 O 0.74421 0.79612 0.88961 0.0
C919 C 0.69188 0.88392 0.93011 0.0
H920 H 0.82327 0.83618 0.98589 0.0
H921 H 0.64182 0.77255 0.81752 0.0
H922 H 0.7098 0.70554 0.95441 0.0
H923 H 0.61132 0.76021 0.95401 0.0
Co924 Co 0.97523 0.09272 0.88554 0.0
C925 C 0.9737 0.06174 0.81094 0.0
C926 C 0.96884 1.02446 0.85174 0.0
C927 C 0.96864 1.00691 0.82044 0.0
N928 N 0.97217 0.05891 0.84635 0.0
N929 N 0.97168 0.03013 0.79463 0.0
H930 H 0.97657 0.08619 0.79755 0.0
H931 H 0.96679 1.01264 0.87706 0.0
C932 C 0.03108 0.06799 0.93414 0.0
O933 O 1.0243 0.07027 0.96734 0.0
N934 N 0.97901 0.12311 0.928 0.0
C935 C 1.00533 0.14513 0.93672 0.0
C936 C 1.00867 0.14806 0.97199 0.0
C937 C 0.96711 0.11326 0.96003 0.0
N938 N 0.98462 0.12822 0.98712 0.0
C939 C 1.01426 0.14642 0.86038 0.0
C940 C 0.07415 0.10814 0.85354 0.0
C941 C 0.0746 0.14415 0.84917 0.0
C942 C 0.04421 0.16342 0.85352 0.0
C943 C 0.04264 0.09226 0.85827 0.0
N944 N 1.01496 0.11185 0.86637 0.0
H945 H 0.9915 0.16188 0.86516 0.0
H946 H 0.04025 0.06449 0.85685 0.0
H947 H 1.0255 0.15479 0.92045 0.0
H948 H 0.94883 0.09226 0.96348 0.0
O949 O 0.9453 0.12477 0.86016 0.0
O950 O 0.92479 0.08533 0.8947 0.0
O951 O 1.0062 0.05827 0.91337 0.0
C952 C 0.91853 0.11067 0.87274 0.0
H953 H 0.96613 0.9792 0.81703 0.0
H954 H 0.02987 0.16071 0.98537 0.0
H955 H 0.09684 0.09242 0.8484 0.0
H956 H 0.04237 0.19102 0.84884 0.0
Co957 Co 0.70987 0.22531 0.63561 0.0
C958 C 0.74085 0.22376 0.56102 0.0
C959 C 0.77812 0.21887 0.60181 0.0
C960 C 0.79567 0.21866 0.57051 0.0
N961 N 0.74368 0.22222 0.59643 0.0
N962 N 0.77246 0.22172 0.5447 0.0
H963 H 0.7164 0.22666 0.54763 0.0
H964 H 0.78994 0.2168 0.62714 0.0
C965 C 0.73459 0.28119 0.68417 0.0
O966 O 0.73225 0.27435 0.71736 0.0
N967 N 0.67946 0.22913 0.67806 0.0
C968 C 0.65748 0.25548 0.68675 0.0
C969 C 0.65449 0.25881 0.72202 0.0
C970 C 0.68925 0.21719 0.7101 0.0
N971 N 0.67427 0.23472 0.73718 0.0
C972 C 0.65618 0.26432 0.61041 0.0
C973 C 0.69445 0.32421 0.60347 0.0
C974 C 0.65844 0.32464 0.5991 0.0
C975 C 0.63918 0.29425 0.60348 0.0
C976 C 0.71033 0.2927 0.60827 0.0
N977 N 0.69074 0.26502 0.6164 0.0
H978 H 0.64071 0.24156 0.61522 0.0
H979 H 0.7381 0.29032 0.60686 0.0
H980 H 0.64792 0.27569 0.67047 0.0
H981 H 0.71022 0.19889 0.71358 0.0
O982 O 0.67782 0.19536 0.61026 0.0
O983 O 0.71725 0.17487 0.64481 0.0
O984 O 0.74432 0.25632 0.6634 0.0
C985 C 0.69191 0.16859 0.62286 0.0
H986 H 0.82337 0.21614 0.5671 0.0
H987 H 0.64188 0.28004 0.73537 0.0
H988 H 0.71017 0.34689 0.59829 0.0
H989 H 0.61158 0.2924 0.5988 0.0
Co990 Co 0.57712 0.95979 0.38555 0.0
C991 C 0.57861 0.99078 0.31094 0.0
C992 C 0.58345 0.02805 0.35174 0.0
C993 C 0.58365 0.04561 0.32045 0.0
N994 N 0.58014 0.99361 0.34635 0.0
N995 N 0.58062 1.0224 0.29463 0.0
H996 H 0.57576 0.96633 0.29755 0.0
H997 H 0.5855 0.03987 0.37707 0.0
C998 C 0.52124 0.9845 0.43414 0.0
O999 O 0.52804 0.98218 0.46733 0.0
N1000 N 0.57336 0.9294 0.42801 0.0
C1001 C 0.54707 0.90736 0.43674 0.0
C1002 C 0.54374 0.90443 0.47201 0.0
C1003 C 0.58527 0.93927 0.46004 0.0
N1004 N 0.56776 0.92429 0.48714 0.0
C1005 C 0.53812 0.90605 0.3604 0.0
C1006 C 0.47818 0.94426 0.35365 0.0
C1007 C 0.47777 0.90825 0.34926 0.0
C1008 C 0.50818 0.88902 0.35358 0.0
C1009 C 0.50969 0.96018 0.35831 0.0
N1010 N 0.5374 0.94062 0.36638 0.0
H1011 H 0.56091 0.89061 0.36516 0.0
H1012 H 0.51204 0.98795 0.35688 0.0
H1013 H 0.52691 0.89768 0.42047 0.0
H1014 H 0.60352 0.96028 0.46349 0.0
O1015 O 0.60707 0.92776 0.36017 0.0
O1016 O 0.62755 0.96721 0.3947 0.0
O1017 O 0.54612 0.99422 0.41337 0.0
C1018 C 0.63383 0.94187 0.37276 0.0
H1019 H 0.58614 0.07332 0.31704 0.0
H1020 H 0.52254 0.89177 0.48538 0.0
H1021 H 0.45547 0.95996 0.34853 0.0
H1022 H 0.51004 0.86142 0.34891 0.0
Co1023 Co 0.8426 0.82717 0.13559 0.0
C1024 C 0.81162 0.82871 0.06099 0.0
C1025 C 0.77435 0.83355 0.10178 0.0
C1026 C 0.7568 0.83375 0.07048 0.0
N1027 N 0.80879 0.83023 0.0964 0.0
N1028 N 0.78001 0.83073 0.04467 0.0
H1029 H 0.83607 0.82586 0.0476 0.0
H1030 H 0.76253 0.83559 0.12711 0.0
C1031 C 0.81787 0.77128 0.18415 0.0
O1032 O 0.82024 0.77812 0.21733 0.0
N1033 N 0.87299 0.82338 0.17806 0.0
C1034 C 0.89497 0.79703 0.18678 0.0
C1035 C 0.89794 0.79372 0.22205 0.0
C1036 C 0.86318 0.83532 0.21009 0.0
N1037 N 0.87815 0.81781 0.23718 0.0
C1038 C 0.89633 0.78818 0.11044 0.0
C1039 C 0.85811 0.72825 0.10357 0.0
C1040 C 0.89411 0.72784 0.0992 0.0
C1041 C 0.91336 0.75825 0.10357 0.0
C1042 C 0.8422 0.75976 0.1083 0.0
N1043 N 0.86177 0.78746 0.1164 0.0
H1044 H 0.91178 0.81096 0.11524 0.0
H1045 H 0.81444 0.76212 0.10687 0.0
H1046 H 0.90454 0.77681 0.17052 0.0
H1047 H 0.8422 0.85362 0.21355 0.0
O1048 O 0.87464 0.85713 0.11025 0.0
O1049 O 0.8352 0.87761 0.14477 0.0
O1050 O 0.80815 0.79615 0.16337 0.0
C1051 C 0.86054 0.88389 0.12283 0.0
H1052 H 0.72909 0.83625 0.06707 0.0
H1053 H 0.91055 0.7725 0.23542 0.0
H1054 H 0.84241 0.70556 0.09841 0.0
H1055 H 0.94096 0.76011 0.0989 0.0
Co1056 Co 0.66716 0.97546 0.96006 0.0
C1057 C 0.74171 0.97394 0.9911 0.0
C1058 C 0.70093 0.96908 0.02838 0.0
C1059 C 0.73221 0.96889 0.04595 0.0
N1060 N 0.70631 0.9724 0.99392 0.0
N1061 N 0.75801 0.97194 1.02273 0.0
H1062 H 0.75509 0.9768 0.96663 0.0
H1063 H 0.67561 0.96703 0.0402 0.0
C1064 C 0.61846 0.03117 0.98482 0.0
O1065 O 0.58526 1.02438 0.98269 0.0
N1066 N 0.62473 0.97922 0.92962 0.0
C1067 C 0.616 1.00549 0.90753 0.0
C1068 C 0.58073 1.00882 0.90462 0.0
C1069 C 0.59273 0.96732 0.93952 0.0
N1070 N 0.56564 0.98485 0.92458 0.0
C1071 C 0.6923 1.01467 0.90649 0.0
C1072 C 0.69919 0.07445 0.94496 0.0
C1073 C 0.70351 0.07502 0.90893 0.0
C1074 C 0.69916 0.04467 0.88957 0.0
C1075 C 0.6944 0.04289 0.96075 0.0
N1076 N 0.68628 1.01527 0.94106 0.0
H1077 H 0.68755 0.99194 0.89096 0.0
H1078 H 0.69578 0.04043 0.98852 0.0
H1079 H 0.63227 1.02557 0.89771 0.0
H1080 H 0.5893 0.94904 0.96053 0.0
O1081 O 0.69259 0.9456 0.92796 0.0
O1082 O 0.65804 0.92502 0.96737 0.0
O1083 O 0.63924 1.00631 0.99453 0.0
C1084 C 0.68001 0.9188 0.94203 0.0
H1085 H 0.73561 0.9664 0.07367 0.0
H1086 H 0.56735 0.02995 0.89187 0.0
H1087 H 0.70437 0.09709 0.96075 0.0
H1088 H 0.70382 0.0429 0.86195 0.0
Co1089 Co 0.82702 0.91718 0.71005 0.0
C1090 C 0.82848 0.99176 0.74104 0.0
C1091 C 0.83334 0.95099 0.77834 0.0
C1092 C 0.83351 0.98228 0.7959 0.0
N1093 N 0.83003 0.95637 0.74388 0.0
N1094 N 0.83047 1.00808 0.77267 0.0
H1095 H 0.82563 1.00515 0.71658 0.0
H1096 H 0.8354 0.92568 0.79017 0.0
C1097 C 0.77123 0.86854 0.7348 0.0
O1098 O 0.77809 0.83538 0.73244 0.0
N1099 N 0.82329 0.87472 0.67964 0.0
C1100 C 0.79701 0.86597 0.65758 0.0
C1101 C 0.79373 0.83071 0.65462 0.0
C1102 C 0.83524 0.84272 0.68949 0.0
N1103 N 0.81777 0.81561 0.6745 0.0
C1104 C 0.78791 0.94226 0.65634 0.0
C1105 C 0.72802 0.949 0.69466 0.0
C1106 C 0.72755 0.95337 0.65864 0.0
C1107 C 0.75794 0.94904 0.63935 0.0
C1108 C 0.75956 0.94433 0.71054 0.0
N1109 N 0.78725 0.93629 0.69093 0.0
H1110 H 0.81068 0.93753 0.64087 0.0
H1111 H 0.76196 0.94577 0.73831 0.0
H1112 H 0.77684 0.88221 0.64788 0.0
H1113 H 0.85351 0.83929 0.71051 0.0
O1114 O 0.85692 0.94257 0.67797 0.0
O1115 O 0.87746 0.90807 0.71743 0.0
O1116 O 0.79609 0.88933 0.74452 0.0
C1117 C 0.8837 0.93001 0.69207 0.0
H1118 H 0.83599 0.98569 0.82362 0.0
H1119 H 0.77257 0.81731 0.64193 0.0
H1120 H 0.70534 0.95413 0.7104 0.0
H1121 H 0.75975 0.9537 0.61173 0.0
Co1122 Co 0.88532 0.07704 0.46009 0.0
C1123 C 0.81077 0.07859 0.4911 0.0
C1124 C 0.85154 0.0834 0.5284 0.0
C1125 C 0.82025 0.0836 0.54596 0.0
N1126 N 0.84616 0.08011 0.49394 0.0
N1127 N 0.79445 0.08058 0.52272 0.0
H1128 H 0.79738 0.07575 0.46663 0.0
H1129 H 0.87685 0.08544 0.54023 0.0
C1130 C 0.93399 1.02131 0.48485 0.0
O1131 O 0.96719 0.0281 0.48269 0.0
N1132 N 0.92775 0.07327 0.42965 0.0
C1133 C 0.93647 0.04699 0.40757 0.0
C1134 C 0.97173 0.04365 0.40464 0.0
C1135 C 0.95976 0.08517 0.43953 0.0
N1136 N 0.98684 0.06764 0.42458 0.0
C1137 C 0.86017 0.03784 0.40651 0.0
C1138 C 0.85323 0.97806 0.44498 0.0
C1139 C 0.8489 0.97751 0.40896 0.0
C1140 C 0.85328 1.00785 0.38959 0.0
C1141 C 0.85805 1.00962 0.46077 0.0
N1142 N 0.86619 0.03723 0.44108 0.0
H1143 H 0.86493 0.06057 0.39098 0.0
H1144 H 0.85667 1.01208 0.48855 0.0
H1145 H 0.9202 0.02689 0.39778 0.0
H1146 H 0.96321 0.10345 0.46054 0.0
O1147 O 0.85991 0.10691 0.42799 0.0
O1148 O 0.89445 0.12748 0.46741 0.0
O1149 O 0.91322 0.04618 0.49457 0.0
C1150 C 0.87249 0.1337 0.44207 0.0
H1151 H 0.81684 0.08608 0.57368 0.0
H1152 H 0.98511 1.0225 0.39192 0.0
H1153 H 0.84803 0.95544 0.46078 0.0
H1154 H 0.84862 1.00962 0.36198 0.0
Co1155 Co 0.72533 0.13533 0.21005 0.0
C1156 C 0.72385 0.06077 0.24108 0.0
C1157 C 0.71895 0.10154 0.27836 0.0
C1158 C 0.71878 0.07026 0.29593 0.0
N1159 N 0.72228 0.09616 0.2439 0.0
N1160 N 0.72185 0.04445 0.27271 0.0
H1161 H 0.72673 0.04738 0.21662 0.0
H1162 H 0.71687 0.12686 0.29018 0.0
C1163 C 0.7811 0.18399 0.23478 0.0
O1164 O 0.77431 0.21717 0.23253 0.0
N1165 N 0.72908 0.17776 0.17961 0.0
C1166 C 0.75535 0.18649 0.15753 0.0
C1167 C 0.75867 0.22175 0.15458 0.0
C1168 C 0.71718 0.20978 0.18947 0.0
N1169 N 0.73466 0.23687 0.17448 0.0
C1170 C 0.76448 0.11017 0.15642 0.0
C1171 C 0.82429 0.10333 0.19485 0.0
C1172 C 0.82482 0.09898 0.15882 0.0
C1173 C 0.79446 0.10331 0.13948 0.0
C1174 C 0.79274 0.10808 0.21066 0.0
N1175 N 0.76511 0.11619 0.191 0.0
H1176 H 0.74173 0.11491 0.14091 0.0
H1177 H 0.79031 0.1067 0.23844 0.0
H1178 H 0.77548 0.17021 0.14778 0.0
H1179 H 0.69892 0.21323 0.2105 0.0
O1180 O 0.69544 0.10991 0.17797 0.0
O1181 O 0.67489 0.14446 0.21739 0.0
O1182 O 0.75622 0.16322 0.24451 0.0
C1183 C 0.66865 0.1225 0.19205 0.0
H1184 H 0.71628 0.06686 0.32365 0.0
H1185 H 0.77984 0.23512 0.14187 0.0
H1186 H 0.84694 0.09818 0.21063 0.0
H1187 H 0.79268 0.09863 0.11187 0.0
Co1188 Co 0.66717 0.07705 0.59295 0.0
C1189 C 0.74176 0.07858 0.562 0.0
C1190 C 0.70101 0.08336 0.52468 0.0
C1191 C 0.7323 0.08357 0.50714 0.0
N1192 N 0.70637 0.08007 0.55915 0.0
N1193 N 0.75809 0.08058 0.53038 0.0
H1194 H 0.75514 0.07575 0.58647 0.0
H1195 H 0.6757 0.08539 0.51283 0.0
C1196 C 0.61849 1.02134 0.56813 0.0
O1197 O 0.58532 0.0282 0.57034 0.0
N1198 N 0.6247 0.07332 0.62333 0.0
C1199 C 0.61591 0.04703 0.64537 0.0
C1200 C 0.58065 0.04375 0.64829 0.0
C1201 C 0.59271 0.08527 0.61344 0.0
N1202 N 0.56559 0.06777 0.62836 0.0
C1203 C 0.69217 0.03788 0.64663 0.0
C1204 C 0.69899 0.97802 0.60826 0.0
C1205 C 0.70329 0.97754 0.64429 0.0
C1206 C 0.69891 1.0079 0.66362 0.0
C1207 C 0.69431 1.00957 0.59241 0.0
N1208 N 0.68624 0.03725 0.61204 0.0
H1209 H 0.68743 0.06065 0.66212 0.0
H1210 H 0.69577 1.01199 0.56464 0.0
H1211 H 0.63213 0.02687 0.65512 0.0
H1212 H 0.58931 0.10358 0.59245 0.0
O1213 O 0.69256 0.10693 0.62506 0.0
O1214 O 0.65809 0.12749 0.58559 0.0
O1215 O 0.63931 0.04619 0.55844 0.0
C1216 C 0.68002 0.13372 0.61096 0.0
H1217 H 0.73572 0.08605 0.47942 0.0
H1218 H 0.56722 1.02262 0.661 0.0
H1219 H 0.70417 0.95535 0.59252 0.0
H1220 H 0.70351 1.00969 0.69124 0.0
Co1221 Co 0.72541 0.91715 0.34296 0.0
C1222 C 0.72387 0.99177 0.31201 0.0
C1223 C 0.71921 0.951 0.27469 0.0
C1224 C 0.71899 0.98229 0.25714 0.0
N1225 N 0.72243 0.95637 0.30916 0.0
N1226 N 0.7219 1.00809 0.28038 0.0
H1227 H 0.72663 1.00516 0.33649 0.0
H1228 H 0.71723 0.92569 0.26285 0.0
C1229 C 0.78122 0.86855 0.31819 0.0
O1230 O 0.77433 0.83539 0.3206 0.0
N1231 N 0.72911 0.87466 0.37333 0.0
C1232 C 0.75541 0.86587 0.39535 0.0
C1233 C 0.75865 0.83061 0.39831 0.0
C1234 C 0.71712 0.84266 0.36348 0.0
N1235 N 0.73457 0.81554 0.37846 0.0
C1236 C 0.76443 0.94214 0.39678 0.0
C1237 C 0.82441 0.94884 0.35858 0.0
C1238 C 0.82479 0.95319 0.3946 0.0
C1239 C 0.79438 0.94884 0.41384 0.0
C1240 C 0.79289 0.94426 0.34263 0.0
N1241 N 0.76515 0.93624 0.36218 0.0
H1242 H 0.74163 0.93739 0.4122 0.0
H1243 H 0.79054 0.94575 0.31486 0.0
H1244 H 0.77565 0.88207 0.40498 0.0
H1245 H 0.69883 0.83925 0.34248 0.0
O1246 O 0.69547 0.94251 0.37503 0.0
O1247 O 0.67497 0.90806 0.3355 0.0
O1248 O 0.75637 0.88935 0.30848 0.0
C1249 C 0.66871 0.92998 0.36087 0.0
H1250 H 0.71655 0.9857 0.22942 0.0
H1251 H 0.77983 0.8172 0.41095 0.0
H1252 H 0.84712 0.95398 0.3429 0.0
H1253 H 0.79254 0.95345 0.44147 0.0
Co1254 Co 0.88529 0.97546 0.09297 0.0
C1255 C 0.81069 0.97394 0.06202 0.0
C1256 C 0.85145 0.9692 1.02471 0.0
C1257 C 0.82016 0.96899 1.00716 0.0
N1258 N 0.84608 0.97246 0.05918 0.0
N1259 N 0.79437 0.97195 0.03039 0.0
H1260 H 0.79731 0.97674 0.08649 0.0
H1261 H 0.87676 0.96718 1.01287 0.0
C1262 C 0.93391 0.03122 0.06817 0.0
O1263 O 0.96708 1.02436 0.07046 0.0
N1264 N 0.92777 0.97917 0.12334 0.0
C1265 C 0.93657 1.00546 0.14538 0.0
C1266 C 0.97183 1.00873 0.1483 0.0
C1267 C 0.95975 0.96721 0.11345 0.0
N1268 N 0.98688 0.9847 0.12837 0.0
C1269 C 0.86032 1.01455 0.14672 0.0
C1270 C 0.85349 0.07447 0.10845 0.0
C1271 C 0.84916 0.07489 0.14447 0.0
C1272 C 0.85358 0.04451 0.16375 0.0
C1273 C 0.85815 0.04294 0.09254 0.0
N1274 N 0.86622 1.01523 0.11213 0.0
H1275 H 0.86509 0.99177 0.16218 0.0
H1276 H 0.85666 0.04055 0.06477 0.0
H1277 H 0.92036 1.02565 0.1551 0.0
H1278 H 0.96315 0.9489 0.09246 0.0
O1279 O 0.85991 0.94555 0.12507 0.0
O1280 O 0.89436 0.92501 0.08557 0.0
O1281 O 0.91311 1.00636 0.05847 0.0
C1282 C 0.87244 0.91877 0.11094 0.0
H1283 H 0.81675 0.96652 0.97944 0.0
H1284 H 0.98526 0.02988 0.16099 0.0
H1285 H 0.84829 0.09716 0.09273 0.0
H1286 H 0.84898 0.04269 0.19138 0.0
Co1287 Co 0.82696 0.13539 0.84291 0.0
C1288 C 0.82846 0.06077 0.81196 0.0
C1289 C 0.83319 0.10153 0.77465 0.0
C1290 C 0.8334 0.07024 0.7571 0.0
N1291 N 0.82993 0.09617 0.80912 0.0
N1292 N 0.83044 0.04444 0.78034 0.0
H1293 H 0.82567 0.04738 0.83644 0.0
H1294 H 0.8352 0.12684 0.76281 0.0
C1295 C 0.77116 0.18399 0.81812 0.0
O1296 O 0.77806 0.21714 0.82055 0.0
N1297 N 0.82325 0.17788 0.87327 0.0
C1298 C 0.79693 0.18668 0.89526 0.0
C1299 C 0.79372 0.22195 0.89822 0.0
C1300 C 0.83527 0.20987 0.86344 0.0
N1301 N 0.81782 0.237 0.8784 0.0
C1302 C 0.78793 0.11044 0.89673 0.0
C1303 C 0.72795 0.10371 0.85854 0.0
C1304 C 0.72758 0.09937 0.89457 0.0
C1305 C 0.75799 0.10375 0.91381 0.0
C1306 C 0.75946 0.10828 0.84259 0.0
N1307 N 0.78722 0.11631 0.86213 0.0
H1308 H 0.81074 0.11519 0.91216 0.0
H1309 H 0.76181 0.10677 0.81481 0.0
H1310 H 0.77666 0.1705 0.90484 0.0
H1311 H 0.85358 0.21327 0.84245 0.0
O1312 O 0.85689 0.11003 0.87499 0.0
O1313 O 0.87739 0.14448 0.83546 0.0
O1314 O 0.796 0.16318 0.80841 0.0
C1315 C 0.88365 0.12256 0.86084 0.0
H1316 H 0.83586 0.06683 0.72938 0.0
H1317 H 0.77254 0.23537 0.91084 0.0
H1318 H 0.70523 0.09855 0.84287 0.0
H1319 H 0.75984 0.09916 0.94143 0.0
Co1320 Co 0.95983 0.66718 0.97559 0.0
C1321 C 0.9908 0.74176 0.97401 0.0
C1322 C 0.02808 0.70099 0.96919 0.0
C1323 C 0.04562 0.73228 0.96897 0.0
N1324 N 0.99363 0.70636 0.97251 0.0
N1325 N 1.0224 0.75807 0.97199 0.0
H1326 H 0.96634 0.75514 0.97687 0.0
H1327 H 0.0399 0.67567 0.96714 0.0
C1328 C 0.9846 0.61857 0.03137 0.0
O1329 O 0.98244 0.58538 1.02454 0.0
N1330 N 0.92945 0.62473 0.9794 0.0
C1331 C 0.90749 0.61599 1.00577 0.0
C1332 C 0.90454 0.58073 1.00908 0.0
C1333 C 0.93927 0.59273 0.96744 0.0
N1334 N 0.92434 0.56563 0.98497 0.0
C1335 C 0.90618 0.69226 1.0147 0.0
C1336 C 0.94452 0.69932 0.07457 0.0
C1337 C 0.90851 0.7036 0.07503 0.0
C1338 C 0.8892 0.69914 0.04467 0.0
C1339 C 0.96037 0.69451 0.04303 0.0
N1340 N 0.94075 0.68633 1.01537 0.0
H1341 H 0.8907 0.68743 0.99195 0.0
H1342 H 0.98813 0.69594 0.04061 0.0
H1343 H 0.89788 0.63223 1.026 0.0
H1344 H 0.96023 0.58929 0.94911 0.0
O1345 O 0.92774 0.69255 0.94569 0.0
O1346 O 0.96717 0.65804 0.92513 0.0
O1347 O 0.99431 0.63937 1.00651 0.0
C1348 C 0.94182 0.67998 0.91889 0.0
H1349 H 0.07333 0.73569 0.96646 0.0
H1350 H 0.89193 0.56734 0.03029 0.0
H1351 H 0.96025 0.70458 0.09723 0.0
H1352 H 0.86159 0.70375 0.04285 0.0
Co1353 Co 0.45981 0.88535 0.07736 0.0
C1354 C 0.49075 0.81077 0.07896 0.0
C1355 C 0.52806 0.85153 0.08374 0.0
C1356 C 0.54559 0.82024 0.08396 0.0
N1357 N 0.49361 0.84617 0.08045 0.0
N1358 N 0.52236 0.79444 0.08096 0.0
H1359 H 0.46629 0.7974 0.07613 0.0
H1360 H 0.5399 0.87685 0.08575 0.0
C1361 C 0.48457 0.93397 1.02157 0.0
O1362 O 0.48244 0.96717 0.02836 0.0
N1363 N 0.42941 0.9278 0.07354 0.0
C1364 C 0.4074 0.93652 0.0472 0.0
C1365 C 0.40447 0.97178 0.04385 0.0
C1366 C 0.43926 0.95982 0.08545 0.0
N1367 N 0.42433 0.9869 0.06789 0.0
C1368 C 0.40618 0.86023 0.03823 0.0
C1369 C 0.44454 0.85319 0.97839 0.0
C1370 C 0.40854 0.84886 0.9779 0.0
C1371 C 0.38923 0.85332 1.00827 0.0
C1372 C 0.46038 0.85803 1.00993 0.0
N1373 N 0.44075 0.8662 0.03758 0.0
H1374 H 0.39069 0.86505 0.06098 0.0
H1375 H 0.48814 0.85662 1.01236 0.0
H1376 H 0.39772 0.92025 0.02703 0.0
H1377 H 0.46022 0.96328 0.10377 0.0
O1378 O 0.42772 0.85999 0.10726 0.0
O1379 O 0.46715 0.89452 0.12781 0.0
O1380 O 0.49427 0.91319 0.04645 0.0
C1381 C 0.44181 0.87257 0.13405 0.0
H1382 H 0.57329 0.81682 0.08644 0.0
H1383 H 0.39179 0.98515 1.02266 0.0
H1384 H 0.4603 0.84796 0.95574 0.0
H1385 H 0.36162 0.84867 1.01008 0.0
Co1386 Co 0.91712 0.70994 0.82733 0.0
C1387 C 0.99169 0.7409 0.82888 0.0
C1388 C 0.95094 0.77819 0.83377 0.0
C1389 C 0.98223 0.79573 0.83397 0.0
N1390 N 0.9563 0.74375 0.83042 0.0
N1391 N 1.00802 0.77251 0.8309 0.0
H1392 H 1.00506 0.71645 0.82599 0.0
H1393 H 0.92563 0.79003 0.83584 0.0
C1394 C 0.86848 0.7347 0.77157 0.0
O1395 O 0.83531 0.73246 0.77841 0.0
N1396 N 0.87467 0.67953 0.82353 0.0
C1397 C 0.86593 0.65755 0.79718 0.0
C1398 C 0.83067 0.65457 0.79391 0.0
C1399 C 0.84267 0.68933 0.83552 0.0
N1400 N 0.81557 0.67436 0.81802 0.0
C1401 C 0.9422 0.65632 0.78816 0.0
C1402 C 0.94927 0.69473 0.72835 0.0
C1403 C 0.95358 0.65872 0.72784 0.0
C1404 C 0.9491 0.63938 0.75819 0.0
C1405 C 0.94442 0.71055 0.7599 0.0
N1406 N 0.93625 0.69089 0.78754 0.0
H1407 H 0.93737 0.64082 0.81091 0.0
H1408 H 0.94584 0.73831 0.76235 0.0
H1409 H 0.88216 0.64795 0.77695 0.0
H1410 H 0.83923 0.71029 0.85386 0.0
O1411 O 0.94249 0.67783 0.85722 0.0
O1412 O 0.90798 0.71725 0.8778 0.0
O1413 O 0.88928 0.74442 0.79643 0.0
C1414 C 0.92992 0.6919 0.88402 0.0
H1415 H 0.98565 0.82344 0.83649 0.0
H1416 H 0.81727 0.64193 0.77271 0.0
H1417 H 0.95452 0.7105 0.70571 0.0
H1418 H 0.95373 0.61177 0.75998 0.0
Co1419 Co 0.09251 0.16716 0.57731 0.0
C1420 C 0.06156 0.24173 0.57891 0.0
C1421 C 1.02426 0.20097 0.58373 0.0
C1422 C 1.00673 0.23227 0.58395 0.0
N1423 N 0.0587 0.20633 0.58041 0.0
N1424 N 0.02996 0.25806 0.58093 0.0
H1425 H 0.08601 0.2551 0.57605 0.0
H1426 H 1.01242 0.17566 0.58577 0.0
C1427 C 0.06773 0.11852 0.52154 0.0
O1428 O 0.06984 0.08532 0.52834 0.0
N1429 N 0.12291 0.12472 0.57348 0.0
C1430 C 0.14492 0.116 0.54714 0.0
C1431 C 0.14786 0.08074 0.54379 0.0
C1432 C 0.11307 0.0927 0.58539 0.0
N1433 N 0.12799 0.06562 0.56783 0.0
C1434 C 0.14609 0.1923 0.53815 0.0
C1435 C 0.10768 0.19938 0.47834 0.0
C1436 C 0.14369 0.2037 0.47782 0.0
C1437 C 0.16302 0.19923 0.50818 0.0
C1438 C 0.09187 0.19451 0.50989 0.0
N1439 N 0.11153 0.18632 0.53751 0.0
H1440 H 0.1616 0.18748 0.56089 0.0
H1441 H 0.06411 0.19589 0.51233 0.0
H1442 H 0.15461 0.13228 0.52699 0.0
H1443 H 0.0921 0.08924 0.60372 0.0
O1444 O 0.1246 0.19253 0.6072 0.0
O1445 O 0.0852 0.15799 0.62776 0.0
O1446 O 0.05803 0.13931 0.54641 0.0
C1447 C 0.11054 0.17994 0.63399 0.0
H1448 H 0.97902 0.23569 0.58646 0.0
H1449 H 0.16053 0.06737 0.52261 0.0
H1450 H 0.09191 0.20462 0.4557 0.0
H1451 H 0.19063 0.20388 0.50998 0.0
Co1452 Co 0.13531 0.84269 0.82728 0.0
C1453 C 0.06071 0.81176 0.82887 0.0
C1454 C 0.10146 0.77445 0.83362 0.0
C1455 C 0.07017 0.75692 0.83385 0.0
N1456 N 0.09611 0.8089 0.83034 0.0
N1457 N 0.04438 0.78016 0.83088 0.0
H1458 H 0.04734 0.83623 0.82605 0.0
H1459 H 0.12677 0.7626 0.83563 0.0
C1460 C 0.1839 0.81789 0.77149 0.0
O1461 O 0.21709 0.82009 0.7783 0.0
N1462 N 0.17779 0.87305 0.82349 0.0
C1463 C 0.18655 0.89503 0.79714 0.0
C1464 C 0.22181 0.89797 0.79384 0.0
C1465 C 0.20979 0.8632 0.83545 0.0
N1466 N 0.23689 0.87812 0.81791 0.0
C1467 C 0.1103 0.89639 0.78818 0.0
C1468 C 0.10328 0.85808 0.72829 0.0
C1469 C 0.09899 0.8941 0.72785 0.0
C1470 C 0.10348 0.91339 0.75822 0.0
C1471 C 0.10803 0.84221 0.75983 0.0
N1472 N 0.11619 0.86181 0.78751 0.0
H1473 H 0.11512 0.91185 0.81095 0.0
H1474 H 0.10657 0.81444 0.76223 0.0
H1475 H 0.17032 0.90467 0.77692 0.0
H1476 H 0.21322 0.84225 0.85379 0.0
O1477 O 0.10997 0.87478 0.85719 0.0
O1478 O 0.14445 0.83531 0.87773 0.0
O1479 O 0.16312 0.8082 0.79636 0.0
C1480 C 0.12253 0.86067 0.88398 0.0
H1481 H 0.06675 0.72921 0.83633 0.0
H1482 H 0.23521 0.91062 0.77265 0.0
H1483 H 0.09802 0.84236 0.70562 0.0
H1484 H 0.09889 0.94101 0.76004 0.0
Co1485 Co 0.5926 0.38529 0.47556 0.0
C1486 C 0.56164 0.3107 0.47399 0.0
C1487 C 0.52436 0.35148 0.46921 0.0
C1488 C 0.50681 0.32019 0.46899 0.0
N1489 N 0.5588 0.3461 0.4725 0.0
N1490 N 0.53003 0.29439 0.47198 0.0
H1491 H 0.58609 0.29732 0.47681 0.0
H1492 H 0.51253 0.3768 0.46718 0.0
C1493 C 0.56786 0.43388 0.53139 0.0
O1494 O 0.57007 0.46706 0.52455 0.0
N1495 N 0.62298 0.42775 0.47936 0.0
C1496 C 0.64494 0.4365 0.50572 0.0
C1497 C 0.64788 0.47176 0.50902 0.0
C1498 C 0.61314 0.45975 0.4674 0.0
N1499 N 0.62808 0.48685 0.48492 0.0
C1500 C 0.64631 0.36022 0.51463 0.0
C1501 C 0.60804 0.3532 0.57453 0.0
C1502 C 0.64405 0.34891 0.57496 0.0
C1503 C 0.66332 0.35336 0.54458 0.0
C1504 C 0.59215 0.35798 0.54301 0.0
N1505 N 0.61173 0.36614 0.51532 0.0
H1506 H 0.66177 0.36505 0.49186 0.0
H1507 H 0.56439 0.35653 0.54062 0.0
H1508 H 0.65454 0.42026 0.52595 0.0
H1509 H 0.59218 0.46319 0.44907 0.0
O1510 O 0.62467 0.35994 0.44563 0.0
O1511 O 0.58522 0.39444 0.4251 0.0
O1512 O 0.55814 0.41308 0.50653 0.0
C1513 C 0.61057 0.37251 0.41885 0.0
H1514 H 0.4791 0.31679 0.4665 0.0
H1515 H 0.66051 0.48515 0.53023 0.0
H1516 H 0.59233 0.34796 0.59721 0.0
H1517 H 0.69093 0.34875 0.54274 0.0
Co1518 Co 0.91709 0.34263 0.72558 0.0
C1519 C 0.99168 0.31168 0.72402 0.0
C1520 C 0.95092 0.2744 0.71915 0.0
C1521 C 0.9822 0.25685 0.71894 0.0
N1522 N 0.95628 0.30884 0.72249 0.0
N1523 N 1.008 0.28008 0.72199 0.0
H1524 H 1.00506 0.33614 0.72689 0.0
H1525 H 0.92561 0.26257 0.71709 0.0
C1526 C 0.86853 0.31785 0.78139 0.0
O1527 O 0.83536 0.3201 0.77455 0.0
N1528 N 0.87464 0.37301 0.72939 0.0
C1529 C 0.86589 0.39497 0.75576 0.0
C1530 C 0.83064 0.39793 0.75905 0.0
C1531 C 0.84263 0.36319 0.71741 0.0
N1532 N 0.81554 0.37814 0.73493 0.0
C1533 C 0.94217 0.39633 0.76466 0.0
C1534 C 0.94925 0.35802 0.82453 0.0
C1535 C 0.95358 0.39403 0.82499 0.0
C1536 C 0.94908 0.41332 0.79461 0.0
C1537 C 0.94443 0.34215 0.79301 0.0
N1538 N 0.93625 0.36175 0.76534 0.0
H1539 H 0.93731 0.4118 0.74191 0.0
H1540 H 0.94587 0.31438 0.7906 0.0
H1541 H 0.88213 0.40454 0.77601 0.0
H1542 H 0.83919 0.34224 0.69908 0.0
O1543 O 0.94242 0.37473 0.69566 0.0
O1544 O 0.90793 0.33527 0.67512 0.0
O1545 O 0.88932 0.30815 0.75653 0.0
C1546 C 0.92985 0.36063 0.66888 0.0
H1547 H 0.98562 0.22915 0.71641 0.0
H1548 H 0.81725 0.41054 0.78026 0.0
H1549 H 0.95451 0.34228 0.84719 0.0
H1550 H 0.9537 0.44093 0.79278 0.0
Co1551 Co 0.6353 0.70987 0.22561 0.0
C1552 C 0.56071 0.7408 0.22404 0.0
C1553 C 0.60146 0.7781 0.21921 0.0
C1554 C 0.57017 0.79564 0.21899 0.0
N1555 N 0.5961 0.74365 0.22253 0.0
N1556 N 0.54439 0.77241 0.22202 0.0
H1557 H 0.54734 0.71634 0.2269 0.0
H1558 H 0.62677 0.78994 0.21716 0.0
C1559 C 0.68388 0.73466 0.28141 0.0
O1560 O 0.71706 0.7324 0.27456 0.0
N1561 N 0.67775 0.67949 0.22942 0.0
C1562 C 0.68651 0.65753 0.25579 0.0
C1563 C 0.72176 0.65457 0.25906 0.0
C1564 C 0.70975 0.6893 0.21743 0.0
N1565 N 0.73686 0.67435 0.23493 0.0
C1566 C 0.61024 0.65619 0.26473 0.0
C1567 C 0.60318 0.69453 0.32458 0.0
C1568 C 0.59885 0.65852 0.32506 0.0
C1569 C 0.60335 0.63922 0.29469 0.0
C1570 C 0.60799 0.71039 0.29305 0.0
N1571 N 0.61616 0.69077 0.26539 0.0
H1572 H 0.61508 0.64071 0.24198 0.0
H1573 H 0.60655 0.73815 0.29063 0.0
H1574 H 0.67028 0.64796 0.27604 0.0
H1575 H 0.71319 0.71026 0.19909 0.0
O1576 O 0.60995 0.67776 0.1957 0.0
O1577 O 0.64444 0.71722 0.17515 0.0
O1578 O 0.66309 0.74436 0.25654 0.0
C1579 C 0.62251 0.69185 0.16891 0.0
H1580 H 0.56675 0.82334 0.21649 0.0
H1581 H 0.73517 0.64195 0.28026 0.0
H1582 H 0.59793 0.71028 0.34724 0.0
H1583 H 0.59874 0.6116 0.29287 0.0
Co1584 Co 0.57711 0.59265 0.88559 0.0
C1585 C 0.57863 0.56166 0.81098 0.0
C1586 C 0.58346 0.52439 0.85178 0.0
C1587 C 0.58367 0.50683 0.82049 0.0
N1588 N 0.58015 0.55884 0.84639 0.0
N1589 N 0.58064 0.53004 0.79467 0.0
H1590 H 0.57579 0.58611 0.79758 0.0
H1591 H 0.58551 0.51257 0.87711 0.0
C1592 C 0.5212 0.56795 0.93414 0.0
O1593 O 0.52805 0.57034 0.96732 0.0
N1594 N 0.57334 0.62305 0.92805 0.0
C1595 C 0.54702 0.64507 0.93675 0.0
C1596 C 0.5437 0.64805 0.97202 0.0
C1597 C 0.58525 0.61323 0.96008 0.0
N1598 N 0.56774 0.62822 0.98717 0.0
C1599 C 0.53814 0.6464 0.8604 0.0
C1600 C 0.4782 0.60819 0.85358 0.0
C1601 C 0.4778 0.64419 0.84919 0.0
C1602 C 0.50822 0.66343 0.85352 0.0
C1603 C 0.5097 0.59227 0.85831 0.0
N1604 N 0.53741 0.61183 0.86639 0.0
H1605 H 0.56092 0.66184 0.86518 0.0
H1606 H 0.51206 0.5645 0.85688 0.0
H1607 H 0.52684 0.65469 0.92047 0.0
H1608 H 0.60352 0.59222 0.96355 0.0
O1609 O 0.60709 0.62468 0.86024 0.0
O1610 O 0.62755 0.58522 0.89477 0.0
O1611 O 0.54607 0.55822 0.91336 0.0
C1612 C 0.63384 0.61057 0.87282 0.0
H1613 H 0.58616 0.47912 0.81709 0.0
H1614 H 0.52248 0.66069 0.98538 0.0
H1615 H 0.4555 0.59249 0.84845 0.0
H1616 H 0.51008 0.69103 0.84882 0.0
Co1617 Co 0.70983 0.32716 0.13554 0.0
C1618 C 0.74081 0.32873 0.06094 0.0
C1619 C 0.77809 0.33354 0.10174 0.0
C1620 C 0.79564 0.33376 0.07044 0.0
N1621 N 0.74364 0.33023 0.09635 0.0
N1622 N 0.77242 0.33075 0.04463 0.0
H1623 H 0.71636 0.3259 0.04754 0.0
H1624 H 0.78991 0.33557 0.12707 0.0
C1625 C 0.73455 0.27126 0.18411 0.0
O1626 O 0.73223 0.27808 0.2173 0.0
N1627 N 0.67943 0.32336 0.17799 0.0
C1628 C 0.65742 0.29703 0.1867 0.0
C1629 C 0.65445 0.2937 0.22196 0.0
C1630 C 0.68926 0.33527 0.21003 0.0
N1631 N 0.67428 0.31775 0.23711 0.0
C1632 C 0.65612 0.28815 0.11036 0.0
C1633 C 0.69437 0.22824 0.10345 0.0
C1634 C 0.65837 0.22783 0.09913 0.0
C1635 C 0.6391 0.25822 0.10349 0.0
C1636 C 0.71027 0.25975 0.10821 0.0
N1637 N 0.69069 0.28744 0.11633 0.0
H1638 H 0.64067 0.31093 0.11516 0.0
H1639 H 0.73804 0.26213 0.10679 0.0
H1640 H 0.64779 0.27685 0.17042 0.0
H1641 H 0.71026 0.35355 0.2135 0.0
O1642 O 0.67779 0.35712 0.11018 0.0
O1643 O 0.71722 0.37761 0.14472 0.0
O1644 O 0.74427 0.29614 0.16333 0.0
C1645 C 0.69188 0.38388 0.12277 0.0
H1646 H 0.82334 0.33626 0.06704 0.0
H1647 H 0.6418 0.27249 0.23533 0.0
H1648 H 0.71008 0.20555 0.09826 0.0
H1649 H 0.6115 0.26006 0.09883 0.0
Co1650 Co 0.9753 0.45981 0.38556 0.0
C1651 C 0.97377 0.49076 0.31093 0.0
C1652 C 0.96898 0.52804 0.35172 0.0
C1653 C 0.96876 0.54559 0.32043 0.0
N1654 N 0.97228 0.49359 0.34634 0.0
N1655 N 0.97177 0.52237 0.29462 0.0
H1656 H 0.9766 0.4663 0.29754 0.0
H1657 H 0.96694 0.53986 0.37705 0.0
C1658 C 0.0312 0.48455 0.4341 0.0
O1659 O 1.02434 0.48215 0.46727 0.0
N1660 N 0.97906 0.42944 0.42805 0.0
C1661 C 1.00541 0.40746 0.43679 0.0
C1662 C 1.0087 0.4045 0.47206 0.0
C1663 C 0.96711 0.43927 0.46007 0.0
N1664 N 0.98462 0.42431 0.48718 0.0
C1665 C 1.01423 0.40598 0.36047 0.0
C1666 C 0.07423 0.44413 0.35369 0.0
C1667 C 0.07457 0.40812 0.34933 0.0
C1668 C 0.04415 0.3889 0.35368 0.0
C1669 C 0.04274 0.46009 0.35833 0.0
N1670 N 1.01499 0.44057 0.36639 0.0
H1671 H 0.99143 0.39057 0.36526 0.0
H1672 H 0.04041 0.48785 0.35685 0.0
H1673 H 1.02564 0.39789 0.42055 0.0
H1674 H 0.94882 0.46025 0.46351 0.0
O1675 O 0.94532 0.42776 0.36023 0.0
O1676 O 0.92486 0.46725 0.39471 0.0
O1677 O 1.00634 0.49426 0.4133 0.0
C1678 C 0.91857 0.4419 0.37279 0.0
H1679 H 0.96627 0.5733 0.31702 0.0
H1680 H 0.02992 0.3919 0.48544 0.0
H1681 H 0.09695 0.45979 0.34853 0.0
H1682 H 0.04227 0.3613 0.34904 0.0
Co1683 Co 0.84262 0.72535 0.63557 0.0
C1684 C 0.81164 0.72377 0.56097 0.0
C1685 C 0.77436 0.71901 0.60176 0.0
C1686 C 0.75681 0.71878 0.57047 0.0
N1687 N 0.80881 0.72229 0.59638 0.0
N1688 N 0.78003 0.72176 0.54465 0.0
H1689 H 0.8361 0.72658 0.54757 0.0
H1690 H 0.76254 0.717 0.62709 0.0
C1691 C 0.81789 0.78123 0.68415 0.0
O1692 O 0.82013 0.77444 0.71735 0.0
N1693 N 0.87301 0.72914 0.67804 0.0
C1694 C 0.89503 0.75546 0.68675 0.0
C1695 C 0.89796 0.75883 0.72202 0.0
C1696 C 0.86314 0.71726 0.71008 0.0
N1697 N 0.87808 0.73483 0.73716 0.0
C1698 C 0.89634 0.76435 0.61042 0.0
C1699 C 0.8581 0.82428 0.60353 0.0
C1700 C 0.89411 0.82468 0.5992 0.0
C1701 C 0.91336 0.79428 0.60356 0.0
C1702 C 0.8422 0.79277 0.60826 0.0
N1703 N 0.86177 0.76507 0.61638 0.0
H1704 H 0.91178 0.74157 0.61521 0.0
H1705 H 0.81443 0.7904 0.60683 0.0
H1706 H 0.90472 0.77561 0.67047 0.0
H1707 H 0.84216 0.69897 0.71354 0.0
O1708 O 0.87466 0.6954 0.61021 0.0
O1709 O 0.83521 0.67491 0.64474 0.0
O1710 O 0.80818 0.75635 0.66337 0.0
C1711 C 0.86055 0.66863 0.62279 0.0
H1712 H 0.72911 0.7163 0.56706 0.0
H1713 H 0.91062 0.78003 0.73538 0.0
H1714 H 0.8424 0.84697 0.59834 0.0
H1715 H 0.94096 0.79243 0.59891 0.0
Co1716 Co 0.57712 0.45977 0.66738 0.0
C1717 C 0.57865 0.49075 0.74199 0.0
C1718 C 0.5834 0.52803 0.70119 0.0
C1719 C 0.5836 0.54559 0.73248 0.0
N1720 N 0.58014 0.49358 0.70657 0.0
N1721 N 0.58064 0.52237 0.7583 0.0
H1722 H 0.57585 0.46629 0.75538 0.0
H1723 H 0.58541 0.53985 0.67586 0.0
C1724 C 0.52123 0.48447 0.61879 0.0
O1725 O 0.52807 0.48211 0.58561 0.0
N1726 N 0.57337 0.42937 0.62491 0.0
C1727 C 0.5471 0.40729 0.61619 0.0
C1728 C 0.54376 0.40435 0.58092 0.0
C1729 C 0.58526 0.43924 0.59288 0.0
N1730 N 0.56773 0.42427 0.5658 0.0
C1731 C 0.53813 0.40601 0.69253 0.0
C1732 C 0.47816 0.44421 0.69919 0.0
C1733 C 0.47776 0.40821 0.70355 0.0
C1734 C 0.50818 0.38896 0.69929 0.0
C1735 C 0.50967 0.46013 0.69457 0.0
N1736 N 0.53741 0.44058 0.68655 0.0
H1737 H 0.56092 0.39057 0.68781 0.0
H1738 H 0.51203 0.4879 0.69603 0.0
H1739 H 0.52697 0.39756 0.63247 0.0
H1740 H 0.60352 0.46025 0.58943 0.0
O1741 O 0.60708 0.42773 0.69274 0.0
O1742 O 0.62755 0.4672 0.65822 0.0
O1743 O 0.54611 0.4942 0.63957 0.0
C1744 C 0.63383 0.44186 0.68016 0.0
H1745 H 0.58606 0.5733 0.73588 0.0
H1746 H 0.52259 0.39164 0.56755 0.0
H1747 H 0.45544 0.4599 0.7043 0.0
H1748 H 0.51003 0.36136 0.70397 0.0
Co1749 Co 0.84269 0.32723 0.91736 0.0
C1750 C 0.8117 0.32878 0.99194 0.0
C1751 C 0.77442 0.33356 0.95114 0.0
C1752 C 0.75687 0.33376 0.98244 0.0
N1753 N 0.80887 0.33028 0.95653 0.0
N1754 N 0.78009 0.33077 1.00826 0.0
H1755 H 0.83615 0.32595 1.00534 0.0
H1756 H 0.7626 0.33558 0.92581 0.0
C1757 C 0.81798 0.27138 0.86874 0.0
O1758 O 0.82017 0.27815 0.83553 0.0
N1759 N 0.8731 0.32346 0.87491 0.0
C1760 C 0.89517 0.29718 0.86621 0.0
C1761 C 0.89807 0.29378 0.83094 0.0
C1762 C 0.8632 0.3353 0.84287 0.0
N1763 N 0.87814 0.31774 0.8158 0.0
C1764 C 0.89636 0.28819 0.94256 0.0
C1765 C 0.85807 0.22829 0.94935 0.0
C1766 C 0.89407 0.22784 0.95373 0.0
C1767 C 0.91335 0.25824 0.94943 0.0
C1768 C 0.8422 0.25981 0.94463 0.0
N1769 N 0.8618 0.2875 0.93654 0.0
H1770 H 0.91183 0.31096 0.93781 0.0
H1771 H 0.81444 0.2622 0.94603 0.0
H1772 H 0.90495 0.2771 0.88251 0.0
H1773 H 0.84218 0.35356 0.83941 0.0
O1774 O 0.87473 0.35717 0.94274 0.0
O1775 O 0.8353 0.37767 0.90819 0.0
O1776 O 0.80826 0.29628 0.8895 0.0
C1777 C 0.86063 0.38393 0.93015 0.0
H1778 H 0.72916 0.33623 0.98584 0.0
H1779 H 0.91078 0.27261 0.81759 0.0
H1780 H 0.84234 0.2056 0.95447 0.0
H1781 H 0.94094 0.26007 0.95413 0.0
Co1782 Co 0.97526 0.59266 0.16734 0.0
C1783 C 0.97374 0.56166 0.24193 0.0
C1784 C 0.96893 0.52439 0.20113 0.0
C1785 C 0.96873 0.50683 0.23243 0.0
N1786 N 0.97222 0.55884 0.20652 0.0
N1787 N 0.97174 0.53004 0.25824 0.0
H1788 H 0.97658 0.58612 0.25533 0.0
H1789 H 0.96689 0.51257 0.1758 0.0
C1790 C 0.03113 0.56796 0.11875 0.0
O1791 O 1.0243 0.57027 0.08557 0.0
N1792 N 0.97902 0.62307 0.12489 0.0
C1793 C 1.00532 0.64513 0.11619 0.0
C1794 C 1.00868 0.64807 0.08092 0.0
C1795 C 0.96714 0.61322 0.09285 0.0
N1796 N 0.98469 0.62818 0.06578 0.0
C1797 C 1.01424 0.6464 0.19253 0.0
C1798 C 0.0742 0.60819 0.19926 0.0
C1799 C 0.07459 0.6442 0.20363 0.0
C1800 C 0.04417 0.66344 0.19934 0.0
C1801 C 0.04269 0.59227 0.19458 0.0
N1802 N 1.01496 0.61183 0.18653 0.0
H1803 H 0.99145 0.66184 0.18778 0.0
H1804 H 0.04033 0.5645 0.19602 0.0
H1805 H 1.02545 0.65483 0.13247 0.0
H1806 H 0.94888 0.59221 0.08938 0.0
O1807 O 0.94529 0.62469 0.1927 0.0
O1808 O 0.92482 0.58524 0.15816 0.0
O1809 O 1.00627 0.55823 0.13953 0.0
C1810 C 0.91854 0.61058 0.18011 0.0
H1811 H 0.96626 0.47912 0.23583 0.0
H1812 H 0.02987 0.66076 0.06756 0.0
H1813 H 0.0969 0.5925 0.2044 0.0
H1814 H 0.04232 0.69104 0.20402 0.0
Co1815 Co 0.70975 0.72528 0.41738 0.0
C1816 C 0.74075 0.72373 0.49196 0.0
C1817 C 0.77802 0.7189 0.45117 0.0
C1818 C 0.79557 0.7187 0.48246 0.0
N1819 N 0.74357 0.72221 0.45655 0.0
N1820 N 0.77236 0.72172 0.50828 0.0
H1821 H 0.7163 0.7266 0.50536 0.0
H1822 H 0.78983 0.71685 0.42584 0.0
C1823 C 0.73445 0.78116 0.36879 0.0
O1824 O 0.73224 0.7744 0.33558 0.0
N1825 N 0.67935 0.72907 0.37493 0.0
C1826 C 0.65729 0.75536 0.36623 0.0
C1827 C 0.65437 0.75875 0.33096 0.0
C1828 C 0.68923 0.71722 0.34289 0.0
N1829 N 0.67429 0.73478 0.31582 0.0
C1830 C 0.65607 0.7643 0.44259 0.0
C1831 C 0.69436 0.82419 0.44948 0.0
C1832 C 0.65835 0.82463 0.45385 0.0
C1833 C 0.63908 0.79424 0.4495 0.0
C1834 C 0.71023 0.79267 0.4447 0.0
N1835 N 0.69063 0.765 0.43658 0.0
H1836 H 0.64061 0.74153 0.4378 0.0
H1837 H 0.738 0.79029 0.4461 0.0
H1838 H 0.64753 0.77546 0.38254 0.0
H1839 H 0.71024 0.69895 0.33942 0.0
O1840 O 0.67771 0.69533 0.44274 0.0
O1841 O 0.71714 0.67484 0.40819 0.0
O1842 O 0.74417 0.75626 0.38954 0.0
C1843 C 0.6918 0.66857 0.43014 0.0
H1844 H 0.82328 0.71621 0.48587 0.0
H1845 H 0.64167 0.77993 0.3176 0.0
H1846 H 0.71008 0.84687 0.45463 0.0
H1847 H 0.61149 0.79239 0.4542 0.0
Co1848 Co 0.88525 0.57707 0.5929 0.0
C1849 C 0.81066 0.57855 0.56192 0.0
C1850 C 0.85142 0.58337 0.52462 0.0
C1851 C 0.82014 0.58356 0.50706 0.0
N1852 N 0.84606 0.58008 0.55908 0.0
N1853 N 0.79434 0.58053 0.53029 0.0
H1854 H 0.79728 0.57571 0.58639 0.0
H1855 H 0.87673 0.58542 0.51278 0.0
C1856 C 0.93388 0.5213 0.56813 0.0
O1857 O 0.96704 0.52817 0.57048 0.0
N1858 N 0.92771 0.57335 0.6233 0.0
C1859 C 0.93648 0.54706 0.64534 0.0
C1860 C 0.97174 0.54381 0.6483 0.0
C1861 C 0.9597 0.58532 0.61345 0.0
N1862 N 0.98682 0.56787 0.62843 0.0
C1863 C 0.86021 0.53796 0.64661 0.0
C1864 C 0.85341 0.47807 0.6083 0.0
C1865 C 0.84905 0.4776 0.64432 0.0
C1866 C 0.85343 0.50799 0.66361 0.0
C1867 C 0.85809 0.5096 0.59242 0.0
N1868 N 0.86616 0.53729 0.61203 0.0
H1869 H 0.86496 0.56073 0.66209 0.0
H1870 H 0.85665 0.512 0.56465 0.0
H1871 H 0.92026 0.52686 0.65502 0.0
H1872 H 0.96312 0.60361 0.59244 0.0
O1873 O 0.85987 0.60697 0.62499 0.0
O1874 O 0.89435 0.62751 0.58551 0.0
O1875 O 0.91308 0.54615 0.55841 0.0
C1876 C 0.87242 0.63375 0.61088 0.0
H1877 H 0.81673 0.58604 0.47934 0.0
H1878 H 0.98515 0.52265 0.66098 0.0
H1879 H 0.84825 0.45539 0.59257 0.0
H1880 H 0.84879 0.50981 0.69123 0.0
Co1881 Co 0.7254 0.6353 0.84295 0.0
C1882 C 0.72388 0.56072 0.81196 0.0
C1883 C 0.71915 0.60149 0.77465 0.0
C1884 C 0.71895 0.57021 0.75709 0.0
N1885 N 0.72239 0.59611 0.80912 0.0
N1886 N 0.72191 0.5444 0.78032 0.0
H1887 H 0.72667 0.54733 0.83643 0.0
H1888 H 0.71714 0.62681 0.76282 0.0
C1889 C 0.78118 0.68396 0.8182 0.0
O1890 O 0.77435 0.71715 0.82045 0.0
N1891 N 0.72912 0.67775 0.87336 0.0
C1892 C 0.75537 0.6865 0.89547 0.0
C1893 C 0.75868 0.72177 0.89838 0.0
C1894 C 0.71722 0.70975 0.86345 0.0
N1895 N 0.73472 0.73685 0.8784 0.0
C1896 C 0.76452 0.6102 0.89663 0.0
C1897 C 0.8244 0.60347 0.8583 0.0
C1898 C 0.82488 0.59911 0.89432 0.0
C1899 C 0.7945 0.60342 0.91362 0.0
C1900 C 0.79286 0.60814 0.84243 0.0
N1901 N 0.76518 0.61619 0.86206 0.0
H1902 H 0.74175 0.61492 0.91211 0.0
H1903 H 0.79046 0.60672 0.81466 0.0
H1904 H 0.77547 0.67025 0.90529 0.0
H1905 H 0.69896 0.71317 0.84242 0.0
O1906 O 0.6955 0.60989 0.87503 0.0
O1907 O 0.67496 0.6444 0.83557 0.0
O1908 O 0.75631 0.66317 0.80848 0.0
C1909 C 0.66872 0.62245 0.86092 0.0
H1910 H 0.71649 0.5668 0.72937 0.0
H1911 H 0.77981 0.73517 0.91113 0.0
H1912 H 0.84708 0.59835 0.84256 0.0
H1913 H 0.79269 0.59876 0.94123 0.0
Co1914 Co 0.66714 0.47545 0.09288 0.0
C1915 C 0.74173 0.47395 0.06192 0.0
C1916 C 0.70097 0.46919 1.0246 0.0
C1917 C 0.73227 0.46899 1.00706 0.0
N1918 N 0.70634 0.47245 0.05907 0.0
N1919 N 0.75806 0.47198 0.0303 0.0
H1920 H 0.75511 0.47675 0.0864 0.0
H1921 H 0.67567 0.46716 1.01276 0.0
C1922 C 0.61848 0.53121 0.0681 0.0
O1923 O 0.58533 0.52433 0.07045 0.0
N1924 N 0.62467 0.47917 0.12327 0.0
C1925 C 0.61589 0.50546 0.14531 0.0
C1926 C 0.58063 0.50871 0.14826 0.0
C1927 C 0.59268 0.46718 0.11343 0.0
N1928 N 0.56556 0.48464 0.1284 0.0
C1929 C 0.69216 0.51457 0.14659 0.0
C1930 C 0.69892 0.57447 0.10828 0.0
C1931 C 0.70329 0.57494 0.1443 0.0
C1932 C 0.69893 0.54455 0.16359 0.0
C1933 C 0.69426 0.54293 0.0924 0.0
N1934 N 0.68622 0.51523 0.11201 0.0
H1935 H 0.68742 0.4918 0.16207 0.0
H1936 H 0.69571 0.54054 0.06462 0.0
H1937 H 0.63211 0.52567 0.15497 0.0
H1938 H 0.58926 0.44889 0.09243 0.0
O1939 O 0.69252 0.44555 0.12498 0.0
O1940 O 0.65805 0.425 0.0855 0.0
O1941 O 0.63929 0.50637 0.05839 0.0
C1942 C 0.67999 0.41876 0.11086 0.0
H1943 H 0.73568 0.46653 0.97934 0.0
H1944 H 0.56722 0.52987 0.16093 0.0
H1945 H 0.70407 0.59715 0.09254 0.0
H1946 H 0.70356 0.54274 0.19121 0.0
Co1947 Co 0.82701 0.41716 0.3429 0.0
C1948 C 0.82851 0.49174 0.31191 0.0
C1949 C 0.83329 0.45096 0.27461 0.0
C1950 C 0.83349 0.48225 0.25705 0.0
N1951 N 0.83002 0.45634 0.30907 0.0
N1952 N 0.83049 0.50805 0.28028 0.0
H1953 H 0.82569 0.50513 0.33638 0.0
H1954 H 0.83533 0.42565 0.26278 0.0
C1955 C 0.77124 0.36849 0.31815 0.0
O1956 O 0.7781 0.33532 0.32045 0.0
N1957 N 0.82328 0.3747 0.37332 0.0
C1958 C 0.79701 0.36594 0.39538 0.0
C1959 C 0.79372 0.33068 0.39832 0.0
C1960 C 0.83523 0.34271 0.36344 0.0
N1961 N 0.81773 0.3156 0.37839 0.0
C1962 C 0.78789 0.44224 0.39659 0.0
C1963 C 0.72802 0.44902 0.35824 0.0
C1964 C 0.72754 0.45339 0.39426 0.0
C1965 C 0.75792 0.44904 0.41357 0.0
C1966 C 0.75955 0.44432 0.34238 0.0
N1967 N 0.78723 0.43626 0.36201 0.0
H1968 H 0.81065 0.4375 0.41207 0.0
H1969 H 0.76196 0.44574 0.31461 0.0
H1970 H 0.77687 0.38219 0.40513 0.0
H1971 H 0.85351 0.33928 0.34244 0.0
O1972 O 0.85691 0.44256 0.37499 0.0
O1973 O 0.87745 0.40806 0.33553 0.0
O1974 O 0.79609 0.38929 0.30843 0.0
C1975 C 0.88369 0.43001 0.36088 0.0
H1976 H 0.83596 0.48565 0.22933 0.0
H1977 H 0.77258 0.31727 0.41103 0.0
H1978 H 0.70534 0.45416 0.3425 0.0
H1979 H 0.75973 0.45371 0.44118 0.0
Co1980 Co 0.88533 0.47548 0.96005 0.0
C1981 C 0.81074 0.47396 0.99102 0.0
C1982 C 0.8515 0.46915 0.02833 0.0
C1983 C 0.82021 0.46895 0.04588 0.0
N1984 N 0.84614 0.47245 0.99387 0.0
N1985 N 0.79442 0.47196 1.02264 0.0
H1986 H 0.79737 0.4768 0.96655 0.0
H1987 H 0.87681 0.46712 0.04017 0.0
C1988 C 0.93396 0.53124 0.98483 0.0
O1989 O 0.96714 0.52442 0.98253 0.0
N1990 N 0.92779 0.47923 0.92965 0.0
C1991 C 0.93656 0.50552 0.90761 0.0
C1992 C 0.97181 0.50879 0.90466 0.0
C1993 C 0.95979 0.46726 0.9395 0.0
N1994 N 0.9869 0.48473 0.92452 0.0
C1995 C 0.8603 0.51461 0.90635 0.0
C1996 C 0.85346 0.57448 0.9447 0.0
C1997 C 0.84916 0.57495 0.90867 0.0
C1998 C 0.85355 0.54459 0.88936 0.0
C1999 C 0.85813 0.54294 0.96057 0.0
N2000 N 0.86623 0.51526 0.94094 0.0
H2001 H 0.86506 0.49184 0.89087 0.0
H2002 H 0.85668 0.54053 0.98834 0.0
H2003 H 0.92033 0.52572 0.89794 0.0
H2004 H 0.96322 0.44898 0.96051 0.0
O2005 O 0.85995 0.44559 0.92795 0.0
O2006 O 0.89445 0.42505 0.96742 0.0
O2007 O 0.91318 0.50637 0.99454 0.0
C2008 C 0.87251 0.41881 0.94206 0.0
H2009 H 0.8168 0.46647 0.0736 0.0
H2010 H 0.98521 0.52996 0.89199 0.0
H2011 H 0.84826 0.59715 0.96044 0.0
H2012 H 0.84894 0.54279 0.86173 0.0
Co2013 Co 0.82699 0.63531 0.20999 0.0
C2014 C 0.8285 0.56073 0.24098 0.0
C2015 C 0.83328 0.6015 0.27829 0.0
C2016 C 0.83348 0.57022 0.29584 0.0
N2017 N 0.83001 0.59613 0.24382 0.0
N2018 N 0.83049 0.54441 0.27261 0.0
H2019 H 0.82568 0.54734 0.21651 0.0
H2020 H 0.83531 0.62682 0.29012 0.0
C2021 C 0.77124 0.68397 0.23477 0.0
O2022 O 0.77805 0.71716 0.23256 0.0
N2023 N 0.82325 0.67778 0.17959 0.0
C2024 C 0.79699 0.68654 0.15751 0.0
C2025 C 0.79368 0.7218 0.1546 0.0
C2026 C 0.83516 0.70978 0.1895 0.0
N2027 N 0.81766 0.73688 0.17456 0.0
C2028 C 0.78784 0.61025 0.15632 0.0
C2029 C 0.72798 0.60347 0.19468 0.0
C2030 C 0.72749 0.59916 0.15865 0.0
C2031 C 0.75786 0.6035 0.13933 0.0
C2032 C 0.75952 0.60814 0.21053 0.0
N2033 N 0.7872 0.61621 0.1909 0.0
H2034 H 0.81061 0.61498 0.14083 0.0
H2035 H 0.76194 0.6067 0.23831 0.0
H2036 H 0.77688 0.67029 0.14771 0.0
H2037 H 0.85344 0.7132 0.21052 0.0
O2038 O 0.85688 0.60991 0.1779 0.0
O2039 O 0.87742 0.64442 0.21736 0.0
O2040 O 0.79611 0.66319 0.24448 0.0
C2041 C 0.88366 0.62247 0.19201 0.0
H2042 H 0.83595 0.56681 0.32356 0.0
H2043 H 0.77254 0.7352 0.14188 0.0
H2044 H 0.70531 0.5983 0.21042 0.0
H2045 H 0.75965 0.59888 0.11171 0.0
Co2046 Co 0.66708 0.57701 0.46001 0.0
C2047 C 0.74167 0.57854 0.491 0.0
C2048 C 0.7009 0.5833 0.5283 0.0
C2049 C 0.73219 0.5835 0.54586 0.0
N2050 N 0.70627 0.58003 0.49383 0.0
N2051 N 0.75798 0.58053 0.52262 0.0
H2052 H 0.75505 0.57573 0.46653 0.0
H2053 H 0.67559 0.58531 0.54014 0.0
C2054 C 0.61845 0.52124 0.48478 0.0
O2055 O 0.58527 0.52805 0.48248 0.0
N2056 N 0.62461 0.57327 0.42962 0.0
C2057 C 0.61584 0.54697 0.40759 0.0
C2058 C 0.58058 0.54372 0.40464 0.0
C2059 C 0.59263 0.58525 0.43947 0.0
N2060 N 0.5655 0.56779 0.4245 0.0
C2061 C 0.69209 0.53788 0.4063 0.0
C2062 C 0.69897 0.47801 0.44465 0.0
C2063 C 0.70327 0.47754 0.40862 0.0
C2064 C 0.69886 0.50791 0.38931 0.0
C2065 C 0.69428 0.50955 0.46051 0.0
N2066 N 0.68618 0.53723 0.4409 0.0
H2067 H 0.68733 0.56065 0.39083 0.0
H2068 H 0.69574 0.51196 0.48829 0.0
H2069 H 0.63205 0.52677 0.39792 0.0
H2070 H 0.58921 0.60354 0.46047 0.0
O2071 O 0.69246 0.60691 0.42792 0.0
O2072 O 0.65798 0.62745 0.4674 0.0
O2073 O 0.63923 0.54611 0.49449 0.0
C2074 C 0.67991 0.63369 0.44204 0.0
H2075 H 0.73559 0.58597 0.57358 0.0
H2076 H 0.56716 0.52255 0.39197 0.0
H2077 H 0.70417 0.45534 0.46039 0.0
H2078 H 0.70347 0.50971 0.36168 0.0
Co2079 Co 0.72539 0.41715 0.71003 0.0
C2080 C 0.72389 0.49173 0.74103 0.0
C2081 C 0.71906 0.45095 0.77832 0.0
C2082 C 0.71886 0.48224 0.79588 0.0
N2083 N 0.72236 0.45633 0.74386 0.0
N2084 N 0.72188 0.50804 0.77266 0.0
H2085 H 0.72674 0.50512 0.71656 0.0
H2086 H 0.71701 0.42564 0.79015 0.0
C2087 C 0.78116 0.3685 0.7348 0.0
O2088 O 0.77436 0.33531 0.7326 0.0
N2089 N 0.72914 0.37469 0.67962 0.0
C2090 C 0.75541 0.36595 0.65754 0.0
C2091 C 0.75875 0.33069 0.65463 0.0
C2092 C 0.71725 0.34268 0.68952 0.0
N2093 N 0.73477 0.31559 0.67457 0.0
C2094 C 0.76451 0.44224 0.65636 0.0
C2095 C 0.82438 0.44907 0.69471 0.0
C2096 C 0.82485 0.45338 0.65868 0.0
C2097 C 0.79448 0.44903 0.63937 0.0
C2098 C 0.79284 0.44436 0.71057 0.0
N2099 N 0.76517 0.43627 0.69094 0.0
H2100 H 0.74175 0.4375 0.64087 0.0
H2101 H 0.79043 0.44579 0.73834 0.0
H2102 H 0.77552 0.38221 0.64776 0.0
H2103 H 0.69898 0.33925 0.71053 0.0
O2104 O 0.69549 0.44254 0.67795 0.0
O2105 O 0.67496 0.40802 0.7174 0.0
O2106 O 0.75629 0.38929 0.74451 0.0
C2107 C 0.66872 0.42997 0.69205 0.0
H2108 H 0.71638 0.48564 0.8236 0.0
H2109 H 0.7799 0.31731 0.64191 0.0
H2110 H 0.84705 0.45424 0.71045 0.0
H2111 H 0.79268 0.45366 0.61175 0.0
Co2112 Co 0.59258 0.88539 0.57736 0.0
C2113 C 0.56162 0.8108 0.5789 0.0
C2114 C 0.52434 0.85157 0.58379 0.0
C2115 C 0.5068 0.82028 0.58399 0.0
N2116 N 0.55878 0.8462 0.58044 0.0
N2117 N 0.53001 0.79448 0.58094 0.0
H2118 H 0.58607 0.79742 0.57601 0.0
H2119 H 0.51252 0.87689 0.58585 0.0
C2120 C 0.56782 0.93396 0.52153 0.0
O2121 O 0.57002 0.96716 0.52831 0.0
N2122 N 0.62296 0.92784 0.57354 0.0
C2123 C 0.64496 0.93658 0.5472 0.0
C2124 C 0.6479 0.97183 0.54388 0.0
C2125 C 0.61312 0.95985 0.58548 0.0
N2126 N 0.62805 0.98694 0.56793 0.0
C2127 C 0.64626 0.8603 0.53828 0.0
C2128 C 0.60796 0.85322 0.4784 0.0
C2129 C 0.64397 0.84893 0.47797 0.0
C2130 C 0.66326 0.85341 0.50833 0.0
C2131 C 0.59209 0.85804 0.50993 0.0
N2132 N 0.61169 0.86622 0.5376 0.0
H2133 H 0.66173 0.86514 0.56105 0.0
H2134 H 0.56433 0.8566 0.51233 0.0
H2135 H 0.65461 0.92032 0.527 0.0
H2136 H 0.59216 0.9633 0.6038 0.0
O2137 O 0.62466 0.86004 0.60728 0.0
O2138 O 0.58522 0.89455 0.62781 0.0
O2139 O 0.55812 0.91319 0.54641 0.0
C2140 C 0.61057 0.87262 0.63407 0.0
H2141 H 0.47909 0.81687 0.58651 0.0
H2142 H 0.66057 0.98522 0.52269 0.0
H2143 H 0.59224 0.84795 0.45573 0.0
H2144 H 0.69087 0.8488 0.51017 0.0
Co2145 Co 0.09259 0.66714 0.47557 0.0
C2146 C 0.06166 0.74174 0.474 0.0
C2147 C 1.02436 0.70099 0.46916 0.0
C2148 C 1.00683 0.73228 0.46894 0.0
N2149 N 0.0588 0.70634 0.47249 0.0
N2150 N 0.03006 0.75807 0.47197 0.0
H2151 H 0.08612 0.75511 0.47687 0.0
H2152 H 1.01252 0.67568 0.46711 0.0
C2153 C 0.0678 0.61856 0.53137 0.0
O2154 O 0.07006 0.58538 0.52454 0.0
N2155 N 0.12296 0.62467 0.47938 0.0
C2156 C 0.1449 0.61592 0.50576 0.0
C2157 C 0.14786 0.58066 0.50903 0.0
C2158 C 0.11315 0.59267 0.46739 0.0
N2159 N 0.12809 0.56556 0.4849 0.0
C2160 C 0.14627 0.69218 0.51468 0.0
C2161 C 0.10793 0.69927 0.57455 0.0
C2162 C 0.14395 0.70355 0.575 0.0
C2163 C 0.16325 0.69905 0.54465 0.0
C2164 C 0.09208 0.69446 0.54301 0.0
N2165 N 0.11169 0.68628 0.51534 0.0
H2166 H 0.16174 0.68734 0.49193 0.0
H2167 H 0.06432 0.69592 0.54059 0.0
H2168 H 0.15446 0.63214 0.52602 0.0
H2169 H 0.0922 0.58923 0.44904 0.0
O2170 O 0.12468 0.69249 0.44566 0.0
O2171 O 0.08523 0.65799 0.42511 0.0
O2172 O 0.0581 0.63935 0.5065 0.0
C2173 C 0.11059 0.67992 0.41887 0.0
H2174 H 0.97913 0.73571 0.46643 0.0
H2175 H 0.16046 0.56726 0.53025 0.0
H2176 H 0.0922 0.70454 0.5972 0.0
H2177 H 0.19086 0.70365 0.54283 0.0
Co2178 Co 0.63527 0.84267 0.72563 0.0
C2179 C 0.5607 0.81172 0.72405 0.0
C2180 C 0.60145 0.77442 0.71922 0.0
C2181 C 0.57016 0.75688 0.71901 0.0
N2182 N 0.59609 0.80887 0.72254 0.0
N2183 N 0.54437 0.78011 0.72203 0.0
H2184 H 0.54732 0.83618 0.7269 0.0
H2185 H 0.62676 0.76259 0.71718 0.0
C2186 C 0.68391 0.81787 0.78137 0.0
O2187 O 0.71711 0.81996 0.77459 0.0
N2188 N 0.67773 0.87306 0.72944 0.0
C2189 C 0.68649 0.89505 0.75578 0.0
C2190 C 0.72174 0.89797 0.75911 0.0
C2191 C 0.70973 0.86319 0.7175 0.0
N2192 N 0.73683 0.8781 0.73505 0.0
C2193 C 0.61022 0.89629 0.76481 0.0
C2194 C 0.60313 0.85787 0.82462 0.0
C2195 C 0.59887 0.89389 0.82513 0.0
C2196 C 0.60335 0.91323 0.79479 0.0
C2197 C 0.60795 0.84206 0.79306 0.0
N2198 N 0.61615 0.86171 0.76543 0.0
H2199 H 0.61504 0.91179 0.74206 0.0
H2200 H 0.60652 0.81429 0.79061 0.0
H2201 H 0.67024 0.90475 0.77596 0.0
H2202 H 0.71316 0.84224 0.69916 0.0
O2203 O 0.6099 0.87478 0.69575 0.0
O2204 O 0.64441 0.83536 0.67517 0.0
O2205 O 0.66312 0.80818 0.75649 0.0
C2206 C 0.62247 0.86071 0.66895 0.0
H2207 H 0.56674 0.72918 0.7165 0.0
H2208 H 0.73514 0.91064 0.78028 0.0
H2209 H 0.59786 0.84211 0.84726 0.0
H2210 H 0.59876 0.94085 0.793 0.0
Co2211 Co 0.45984 0.38536 0.97555 0.0
C2212 C 0.49077 0.31076 0.97398 0.0
C2213 C 0.52807 0.35151 0.9691 0.0
C2214 C 0.5456 0.32022 0.96888 0.0
N2215 N 0.49362 0.34615 0.97245 0.0
N2216 N 0.52237 0.29443 0.97193 0.0
H2217 H 0.46632 0.29738 0.97686 0.0
H2218 H 0.5399 0.37682 0.96704 0.0
C2219 C 0.48462 0.43392 0.03137 0.0
O2220 O 0.48238 0.4671 1.02453 0.0
N2221 N 0.42947 0.42782 0.97938 0.0
C2222 C 0.40753 0.43656 1.00577 0.0
C2223 C 0.40456 0.47182 1.00905 0.0
C2224 C 0.43927 0.45983 0.9674 0.0
N2225 N 0.42432 0.48693 0.98492 0.0
C2226 C 0.40616 0.36029 1.01465 0.0
C2227 C 0.4445 0.35317 0.07451 0.0
C2228 C 0.40848 0.3489 0.07496 0.0
C2229 C 0.38918 0.35339 0.0446 0.0
C2230 C 0.46035 0.358 0.04297 0.0
N2231 N 0.44074 0.36619 1.01531 0.0
H2232 H 0.39068 0.36515 0.99189 0.0
H2233 H 0.48811 0.35655 0.04056 0.0
H2234 H 0.39798 0.42033 1.02602 0.0
H2235 H 0.46021 0.46328 0.94905 0.0
O2236 O 0.42774 0.36002 0.94563 0.0
O2237 O 0.46718 0.39452 0.92509 0.0
O2238 O 0.49433 0.41313 1.0065 0.0
C2239 C 0.44182 0.37259 0.91884 0.0
H2240 H 0.5733 0.3168 0.96635 0.0
H2241 H 0.39196 0.48521 0.03028 0.0
H2242 H 0.46023 0.34789 0.09716 0.0
H2243 H 0.36157 0.34879 0.04278 0.0
Co2244 Co 0.4171 0.70992 0.72561 0.0
C2245 C 0.49168 0.74086 0.72405 0.0
C2246 C 0.45093 0.77816 0.71922 0.0
C2247 C 0.48223 0.7957 0.719 0.0
N2248 N 0.45629 0.74371 0.72254 0.0
N2249 N 0.50801 0.77246 0.72203 0.0
H2250 H 0.50506 0.7164 0.72691 0.0
H2251 H 0.42563 0.79 0.71718 0.0
C2252 C 0.36849 0.7347 0.78138 0.0
O2253 O 0.33532 0.7325 0.77454 0.0
N2254 N 0.37463 0.67954 0.72941 0.0
C2255 C 0.36588 0.65759 0.75578 0.0
C2256 C 0.33062 0.65463 0.75906 0.0
C2257 C 0.34264 0.68936 0.71743 0.0
N2258 N 0.31553 0.67442 0.73494 0.0
C2259 C 0.44214 0.65625 0.76474 0.0
C2260 C 0.44925 0.6946 0.82459 0.0
C2261 C 0.45353 0.65858 0.82505 0.0
C2262 C 0.44902 0.63927 0.7947 0.0
C2263 C 0.44442 0.71045 0.79306 0.0
N2264 N 0.43623 0.69083 0.7654 0.0
H2265 H 0.43729 0.64077 0.74199 0.0
H2266 H 0.44586 0.73822 0.79063 0.0
H2267 H 0.3821 0.64801 0.77603 0.0
H2268 H 0.3392 0.71031 0.69908 0.0
O2269 O 0.44246 0.67782 0.69571 0.0
O2270 O 0.40797 0.71726 0.67515 0.0
O2271 O 0.38929 0.74441 0.75653 0.0
C2272 C 0.4299 0.69191 0.66892 0.0
H2273 H 0.48565 0.8234 0.7165 0.0
H2274 H 0.31722 0.64202 0.78027 0.0
H2275 H 0.45454 0.71034 0.84725 0.0
H2276 H 0.45362 0.61166 0.79289 0.0
Co2277 Co 0.95977 0.16717 0.07731 0.0
C2278 C 0.99072 0.24176 0.07887 0.0
C2279 C 0.02801 0.20099 0.0837 0.0
C2280 C 0.04555 0.23229 0.08392 0.0
N2281 N 0.99357 0.20636 0.08038 0.0
N2282 N 1.02233 0.25808 0.0809 0.0
H2283 H 0.96627 0.25514 0.07602 0.0
H2284 H 0.03984 0.17568 0.08575 0.0
C2285 C 0.98455 0.11856 1.02152 0.0
O2286 O 0.98237 0.08537 0.02831 0.0
N2287 N 0.9294 0.12472 0.07352 0.0
C2288 C 0.90738 0.11596 0.0472 0.0
C2289 C 0.90446 0.0807 0.04389 0.0
C2290 C 0.93927 0.09272 0.08546 0.0
N2291 N 0.92435 0.06562 0.06794 0.0
C2292 C 0.90611 0.19223 0.03819 0.0
C2293 C 0.94445 0.19925 0.97832 0.0
C2294 C 0.90844 0.20353 0.97786 0.0
C2295 C 0.88913 0.19906 1.00821 0.0
C2296 C 0.9603 0.19447 1.00987 0.0
N2297 N 0.94069 0.18631 0.03753 0.0
H2298 H 0.89064 0.18741 0.06095 0.0
H2299 H 0.98806 0.19592 1.01229 0.0
H2300 H 0.89768 0.1322 0.02702 0.0
H2301 H 0.96024 0.08929 0.10378 0.0
O2302 O 0.92768 0.19254 0.10722 0.0
O2303 O 0.96712 0.15803 0.12777 0.0
O2304 O 0.99425 0.13935 0.0464 0.0
C2305 C 0.94177 0.17996 0.13401 0.0
H2306 H 0.07326 0.2357 0.08642 0.0
H2307 H 0.89177 0.06729 1.02273 0.0
H2308 H 0.96018 0.2045 0.95566 0.0
H2309 H 0.86152 0.20366 1.01002 0.0
Co2310 Co 0.63523 0.20989 0.82728 0.0
C2311 C 0.56067 0.24085 0.82887 0.0
C2312 C 0.60143 0.27815 0.8337 0.0
C2313 C 0.57014 0.29568 0.83391 0.0
N2314 N 0.59606 0.2437 0.83038 0.0
N2315 N 0.54435 0.27245 0.83089 0.0
H2316 H 0.5473 0.21639 0.82601 0.0
H2317 H 0.62674 0.28998 0.83573 0.0
C2318 C 0.68391 0.23469 0.77157 0.0
O2319 O 0.71711 0.23263 0.77837 0.0
N2320 N 0.67767 0.17949 0.82348 0.0
C2321 C 0.68641 0.15744 0.79717 0.0
C2322 C 0.72167 0.15453 0.79384 0.0
C2323 C 0.70967 0.18937 0.83539 0.0
N2324 N 0.73675 0.17445 0.81785 0.0
C2325 C 0.61014 0.15633 0.78805 0.0
C2326 C 0.60311 0.19478 0.72826 0.0
C2327 C 0.59885 0.15877 0.72772 0.0
C2328 C 0.6033 0.1394 0.75806 0.0
C2329 C 0.60794 0.21057 0.75983 0.0
N2330 N 0.6161 0.19089 0.78745 0.0
H2331 H 0.61493 0.14081 0.81079 0.0
H2332 H 0.60653 0.23834 0.7623 0.0
H2333 H 0.67015 0.14767 0.77705 0.0
H2334 H 0.7131 0.21035 0.85371 0.0
O2335 O 0.60983 0.17777 0.85714 0.0
O2336 O 0.64437 0.21717 0.87774 0.0
O2337 O 0.66311 0.24438 0.79644 0.0
C2338 C 0.62242 0.19182 0.88395 0.0
H2339 H 0.56672 0.32339 0.83641 0.0
H2340 H 0.73506 0.1418 0.7727 0.0
H2341 H 0.59785 0.21056 0.70563 0.0
H2342 H 0.59869 0.11179 0.75982 0.0
Co2343 Co 0.91715 0.84264 0.32732 0.0
C2344 C 0.99171 0.81167 0.3289 0.0
C2345 C 0.95095 0.77438 0.33371 0.0
C2346 C 0.98223 0.75683 0.33392 0.0
N2347 N 0.95632 0.80883 0.3304 0.0
N2348 N 1.00803 0.78006 0.33091 0.0
H2349 H 1.00509 0.83613 0.32605 0.0
H2350 H 0.92563 0.76255 0.33574 0.0
C2351 C 0.86849 0.81786 0.27158 0.0
O2352 O 0.83529 0.81998 0.27836 0.0
N2353 N 0.87471 0.87304 0.32353 0.0
C2354 C 0.86596 0.89509 0.29722 0.0
C2355 C 0.8307 0.89801 0.29391 0.0
C2356 C 0.84272 0.86316 0.33545 0.0
N2357 N 0.81562 0.87809 0.31792 0.0
C2358 C 0.94223 0.89623 0.28812 0.0
C2359 C 0.94927 0.8578 0.22831 0.0
C2360 C 0.95355 0.89381 0.22779 0.0
C2361 C 0.94909 0.91317 0.25813 0.0
C2362 C 0.94445 0.84199 0.25987 0.0
N2363 N 0.93628 0.86166 0.2875 0.0
H2364 H 0.93743 0.91174 0.31086 0.0
H2365 H 0.94586 0.81423 0.26233 0.0
H2366 H 0.88221 0.90485 0.27709 0.0
H2367 H 0.83929 0.84218 0.35376 0.0
O2368 O 0.94255 0.87475 0.35719 0.0
O2369 O 0.90803 0.83534 0.37778 0.0
O2370 O 0.88927 0.80816 0.29646 0.0
C2371 C 0.92998 0.86068 0.38399 0.0
H2372 H 0.98565 0.72913 0.33641 0.0
H2373 H 0.81731 0.91073 0.27276 0.0
H2374 H 0.95453 0.84202 0.20568 0.0
H2375 H 0.9537 0.94078 0.25991 0.0
Co2376 Co 0.47527 0.45978 0.16735 0.0
C2377 C 0.47372 0.49077 0.24195 0.0
C2378 C 0.46899 0.52805 0.20114 0.0
C2379 C 0.46878 0.54561 0.23244 0.0
N2380 N 0.47225 0.4936 0.20654 0.0
N2381 N 0.47174 0.5224 0.25826 0.0
H2382 H 0.47652 0.46632 0.25535 0.0
H2383 H 0.46699 0.53987 0.17581 0.0
C2384 C 0.53117 0.48447 0.11876 0.0
O2385 O 0.52438 0.4822 0.08556 0.0
N2386 N 0.47903 0.42938 0.12489 0.0
C2387 C 0.5053 0.40729 0.11619 0.0
C2388 C 0.50868 0.40438 0.08092 0.0
C2389 C 0.46718 0.43927 0.09286 0.0
N2390 N 0.48473 0.42432 0.06578 0.0
C2391 C 0.51426 0.40605 0.19255 0.0
C2392 C 0.5742 0.44428 0.19929 0.0
C2393 C 0.57462 0.40827 0.20368 0.0
C2394 C 0.5442 0.38903 0.19939 0.0
C2395 C 0.54269 0.46019 0.1946 0.0
N2396 N 0.51498 0.44061 0.18654 0.0
H2397 H 0.49148 0.3906 0.1878 0.0
H2398 H 0.54033 0.48795 0.19602 0.0
H2399 H 0.52539 0.39752 0.13249 0.0
H2400 H 0.44894 0.4603 0.08939 0.0
O2401 O 0.44531 0.42775 0.19272 0.0
O2402 O 0.42484 0.4672 0.15818 0.0
O2403 O 0.50629 0.4942 0.13953 0.0
C2404 C 0.41855 0.44187 0.18013 0.0
H2405 H 0.46632 0.57332 0.23583 0.0
H2406 H 0.52985 0.39166 0.06757 0.0
H2407 H 0.59691 0.45998 0.2044 0.0
H2408 H 0.54235 0.36143 0.20409 0.0
Co2409 Co 0.34261 0.72536 0.91737 0.0
C2410 C 0.31164 0.72377 0.99197 0.0
C2411 C 0.27436 0.71905 0.95117 0.0
C2412 C 0.25681 0.71882 0.98247 0.0
N2413 N 0.3088 0.72231 0.95656 0.0
N2414 N 0.28003 0.72178 1.00828 0.0
H2415 H 0.3361 0.72656 1.00537 0.0
H2416 H 0.26253 0.71706 0.92584 0.0
C2417 C 0.31791 0.78127 0.8688 0.0
O2418 O 0.32021 0.77447 0.83561 0.0
N2419 N 0.373 0.72913 0.87491 0.0
C2420 C 0.39506 0.75543 0.8662 0.0
C2421 C 0.398 0.75879 0.83093 0.0
C2422 C 0.36313 0.71726 0.84287 0.0
N2423 N 0.37809 0.7348 0.81579 0.0
C2424 C 0.39635 0.76433 0.94254 0.0
C2425 C 0.35815 0.82429 0.94932 0.0
C2426 C 0.39416 0.82468 0.95367 0.0
C2427 C 0.4134 0.79427 0.94935 0.0
C2428 C 0.34223 0.79278 0.94464 0.0
N2429 N 0.36179 0.76506 0.93656 0.0
H2430 H 0.41179 0.74154 0.93777 0.0
H2431 H 0.31446 0.79043 0.94608 0.0
H2432 H 0.40478 0.77556 0.88249 0.0
H2433 H 0.34212 0.69899 0.8394 0.0
O2434 O 0.37464 0.69538 0.94272 0.0
O2435 O 0.33519 0.67492 0.90819 0.0
O2436 O 0.30819 0.75639 0.88957 0.0
C2437 C 0.36053 0.66863 0.93013 0.0
H2438 H 0.2291 0.71635 0.98587 0.0
H2439 H 0.41069 0.77997 0.81757 0.0
H2440 H 0.34247 0.847 0.95448 0.0
H2441 H 0.441 0.79241 0.95401 0.0
Co2442 Co 0.07708 0.59277 0.66737 0.0
C2443 C 0.07865 0.5618 0.74198 0.0
C2444 C 0.08335 0.52451 0.70118 0.0
C2445 C 0.08358 0.50696 0.73248 0.0
N2446 N 0.08011 0.55896 0.70657 0.0
N2447 N 0.08063 0.53018 0.7583 0.0
H2448 H 0.07586 0.58626 0.75538 0.0
H2449 H 0.08535 0.51269 0.67585 0.0
C2450 C 1.0212 0.56804 0.61879 0.0
O2451 O 0.028 0.57031 0.58559 0.0
N2452 N 0.07333 0.62314 0.62489 0.0
C2453 C 0.04704 0.64519 0.61616 0.0
C2454 C 0.04368 0.6481 0.58089 0.0
C2455 C 0.08521 0.61324 0.59287 0.0
N2456 N 0.06767 0.62817 0.56578 0.0
C2457 C 0.0381 0.64653 0.69249 0.0
C2458 C 0.97814 0.60833 0.69925 0.0
C2459 C 0.97776 0.64434 0.70359 0.0
C2460 C 1.00817 0.66358 0.69928 0.0
C2461 C 1.00965 0.59241 0.6946 0.0
N2462 N 0.03737 0.61196 0.68654 0.0
H2463 H 0.0609 0.66196 0.68774 0.0
H2464 H 1.012 0.56464 0.69605 0.0
H2465 H 0.02691 0.65493 0.63243 0.0
H2466 H 0.10348 0.59223 0.58943 0.0
O2467 O 0.10705 0.62481 0.69273 0.0
O2468 O 0.12752 0.58533 0.65822 0.0
O2469 O 0.04608 0.55833 0.63957 0.0
C2470 C 0.1338 0.61068 0.68015 0.0
H2471 H 0.08604 0.47925 0.73588 0.0
H2472 H 1.02251 0.66079 0.56751 0.0
H2473 H 0.95543 0.59265 0.70438 0.0
H2474 H 1.01003 0.69119 0.70393 0.0
Co2475 Co 0.20972 0.32714 0.41732 0.0
C2476 C 0.24067 0.32873 0.49195 0.0
C2477 C 0.27796 0.3334 0.45115 0.0
C2478 C 0.29551 0.33363 0.48245 0.0
N2479 N 0.24351 0.33016 0.45653 0.0
N2480 N 0.27228 0.3307 0.50827 0.0
H2481 H 0.21621 0.32596 0.50534 0.0
H2482 H 0.28979 0.33537 0.42582 0.0
C2483 C 0.23444 0.27123 0.36877 0.0
O2484 O 0.23213 0.27803 0.33558 0.0
N2485 N 0.17935 0.32337 0.37484 0.0
C2486 C 0.15733 0.29705 0.36611 0.0
C2487 C 0.1544 0.29369 0.33084 0.0
C2488 C 0.18921 0.33526 0.3428 0.0
N2489 N 0.17428 0.31771 0.31571 0.0
C2490 C 0.15592 0.28819 0.44244 0.0
C2491 C 0.19408 0.2282 0.44921 0.0
C2492 C 0.15807 0.22784 0.45356 0.0
C2493 C 0.13886 0.25826 0.44922 0.0
C2494 C 0.21003 0.2597 0.44457 0.0
N2495 N 0.1905 0.28744 0.4365 0.0
H2496 H 0.14051 0.31099 0.43766 0.0
H2497 H 0.23779 0.26204 0.44604 0.0
H2498 H 0.14766 0.27688 0.38238 0.0
H2499 H 0.2102 0.35355 0.33935 0.0
O2500 O 0.17769 0.35712 0.44266 0.0
O2501 O 0.21717 0.37757 0.40816 0.0
O2502 O 0.24415 0.29611 0.38955 0.0
C2503 C 0.19183 0.38387 0.43009 0.0
H2504 H 0.32322 0.33608 0.48586 0.0
H2505 H 0.14175 0.27249 0.31747 0.0
H2506 H 0.20974 0.20548 0.45436 0.0
H2507 H 0.11125 0.26013 0.45386 0.0
Co2508 Co 0.47526 0.59268 0.38554 0.0
C2509 C 0.47373 0.56169 0.31094 0.0
C2510 C 0.4689 0.52442 0.35174 0.0
C2511 C 0.46869 0.50686 0.32045 0.0
N2512 N 0.47221 0.55886 0.34635 0.0
N2513 N 0.47172 0.53007 0.29463 0.0
H2514 H 0.47659 0.58614 0.29754 0.0
H2515 H 0.46685 0.5126 0.37707 0.0
C2516 C 0.53112 0.56796 0.43414 0.0
O2517 O 0.52432 0.57026 0.46734 0.0
N2518 N 0.47903 0.62309 0.42799 0.0
C2519 C 0.50532 0.64516 0.4367 0.0
C2520 C 0.50867 0.6481 0.47197 0.0
C2521 C 0.46715 0.61322 0.46002 0.0
N2522 N 0.48469 0.62819 0.48711 0.0
C2523 C 0.51428 0.64639 0.36036 0.0
C2524 C 0.5742 0.60813 0.35358 0.0
C2525 C 0.57462 0.64414 0.34924 0.0
C2526 C 0.54422 0.66341 0.35354 0.0
C2527 C 0.54268 0.59224 0.35828 0.0
N2528 N 0.51498 0.61182 0.36635 0.0
H2529 H 0.4915 0.66185 0.36511 0.0
H2530 H 0.5403 0.56447 0.35685 0.0
H2531 H 0.52544 0.65489 0.42042 0.0
H2532 H 0.44888 0.59222 0.46349 0.0
O2533 O 0.44531 0.62473 0.36016 0.0
O2534 O 0.42483 0.58529 0.39471 0.0
O2535 O 0.50624 0.55825 0.41337 0.0
C2536 C 0.41855 0.61063 0.37275 0.0
H2537 H 0.4662 0.47915 0.31705 0.0
H2538 H 0.52984 0.66081 0.48534 0.0
H2539 H 0.59689 0.59242 0.34844 0.0
H2540 H 0.54239 0.69101 0.34887 0.0
Co2541 Co 0.20976 0.72527 0.13556 0.0
C2542 C 0.24075 0.72374 0.06097 0.0
C2543 C 0.27802 0.71888 0.10177 0.0
C2544 C 0.29557 0.71868 0.07047 0.0
N2545 N 0.24358 0.72221 0.09638 0.0
N2546 N 0.27236 0.72173 0.04466 0.0
H2547 H 0.2163 0.72662 0.04758 0.0
H2548 H 0.28984 0.71682 0.1271 0.0
C2549 C 0.23448 0.78112 0.18416 0.0
O2550 O 0.23226 0.77435 0.21737 0.0
N2551 N 0.17936 0.72906 0.17801 0.0
C2552 C 0.15731 0.75536 0.18671 0.0
C2553 C 0.15439 0.75874 0.22198 0.0
C2554 C 0.18923 0.71719 0.21005 0.0
N2555 N 0.17428 0.73475 0.23712 0.0
C2556 C 0.15608 0.7643 0.11036 0.0
C2557 C 0.19436 0.82419 0.10351 0.0
C2558 C 0.15835 0.82463 0.09912 0.0
C2559 C 0.13909 0.79423 0.10347 0.0
C2560 C 0.21024 0.79268 0.10826 0.0
N2561 N 0.19064 0.76499 0.11637 0.0
H2562 H 0.14062 0.74153 0.11514 0.0
H2563 H 0.238 0.79029 0.10686 0.0
H2564 H 0.14758 0.77548 0.17041 0.0
H2565 H 0.21023 0.69892 0.21352 0.0
O2566 O 0.17772 0.69533 0.11019 0.0
O2567 O 0.21715 0.67483 0.14475 0.0
O2568 O 0.2442 0.75624 0.1634 0.0
C2569 C 0.19182 0.66856 0.12279 0.0
H2570 H 0.32328 0.71618 0.06707 0.0
H2571 H 0.1417 0.77993 0.23533 0.0
H2572 H 0.21008 0.84688 0.09837 0.0
H2573 H 0.11149 0.79239 0.09877 0.0
Co2574 Co 0.07714 0.45988 0.88556 0.0
C2575 C 0.07865 0.49089 0.81098 0.0
C2576 C 0.08353 0.52816 0.85178 0.0
C2577 C 0.08373 0.54572 0.82048 0.0
N2578 N 0.0802 0.49371 0.84639 0.0
N2579 N 0.08067 0.52251 0.79467 0.0
H2580 H 0.07577 0.46644 0.79758 0.0
H2581 H 0.08559 0.53997 0.87711 0.0
C2582 C 1.02128 0.4846 0.93416 0.0
O2583 O 0.02807 0.48236 0.96736 0.0
N2584 N 0.07335 0.42947 0.92801 0.0
C2585 C 0.04704 0.40742 0.9367 0.0
C2586 C 0.04367 0.40448 0.97197 0.0
C2587 C 0.08522 0.43933 0.96005 0.0
N2588 N 0.06766 0.42437 0.98712 0.0
C2589 C 0.03813 0.40618 0.86036 0.0
C2590 C 0.97822 0.44444 0.85351 0.0
C2591 C 0.9778 0.40843 0.84917 0.0
C2592 C 1.0082 0.38916 0.8535 0.0
C2593 C 1.00972 0.46033 0.85826 0.0
N2594 N 0.03742 0.44075 0.86636 0.0
H2595 H 0.06091 0.39073 0.86513 0.0
H2596 H 1.0121 0.4881 0.85685 0.0
H2597 H 0.02692 0.39771 0.92041 0.0
H2598 H 0.10349 0.46033 0.96352 0.0
O2599 O 0.10709 0.42785 0.86019 0.0
O2600 O 0.12757 0.46727 0.89475 0.0
O2601 O 0.04616 0.49432 0.91339 0.0
C2602 C 0.13385 0.44194 0.87279 0.0
H2603 H 0.08623 0.57343 0.81708 0.0
H2604 H 1.02248 0.39179 0.98532 0.0
H2605 H 0.95552 0.46014 0.84835 0.0
H2606 H 1.01005 0.36156 0.84882 0.0
Co2607 Co 0.34256 0.32723 0.63555 0.0
C2608 C 0.31156 0.32874 0.56095 0.0
C2609 C 0.2743 0.33367 0.60175 0.0
C2610 C 0.25675 0.33386 0.57045 0.0
N2611 N 0.30874 0.33031 0.59636 0.0
N2612 N 0.27995 0.33077 0.54464 0.0
H2613 H 0.33601 0.32583 0.54756 0.0
H2614 H 0.26249 0.33575 0.62708 0.0
C2615 C 0.31786 0.27134 0.68412 0.0
O2616 O 0.32009 0.27811 0.71732 0.0
N2617 N 0.37296 0.32342 0.678 0.0
C2618 C 0.395 0.2971 0.68669 0.0
C2619 C 0.39793 0.29373 0.72196 0.0
C2620 C 0.36311 0.33529 0.71004 0.0
N2621 N 0.37805 0.31773 0.73711 0.0
C2622 C 0.39625 0.28822 0.61034 0.0
C2623 C 0.35798 0.22833 0.6034 0.0
C2624 C 0.39398 0.2279 0.59903 0.0
C2625 C 0.41325 0.2583 0.60341 0.0
C2626 C 0.3421 0.25984 0.60819 0.0
N2627 N 0.36169 0.28752 0.61634 0.0
H2628 H 0.41171 0.31099 0.61515 0.0
H2629 H 0.31433 0.26222 0.60679 0.0
H2630 H 0.40469 0.27697 0.67039 0.0
H2631 H 0.34212 0.35358 0.71351 0.0
O2632 O 0.3746 0.35718 0.61019 0.0
O2633 O 0.33518 0.37767 0.64475 0.0
O2634 O 0.30813 0.29623 0.66336 0.0
C2635 C 0.36051 0.38394 0.6228 0.0
H2636 H 0.22904 0.33638 0.56705 0.0
H2637 H 0.41061 0.27253 0.73532 0.0
H2638 H 0.34226 0.20565 0.59823 0.0
H2639 H 0.44084 0.26015 0.59872 0.0
Co2640 Co 0.16713 0.47542 0.46001 0.0
C2641 C 0.24169 0.47394 0.49103 0.0
C2642 C 0.20092 0.46908 0.52832 0.0
C2643 C 0.2322 0.46891 0.54588 0.0
N2644 N 0.2063 0.47239 0.49386 0.0
N2645 N 0.258 0.47195 0.52266 0.0
H2646 H 0.25508 0.47679 0.46657 0.0
H2647 H 0.1756 0.46703 0.54014 0.0
C2648 C 0.11846 0.53117 0.48476 0.0
O2649 O 0.08527 0.52438 0.48256 0.0
N2650 N 0.1247 0.47916 0.42958 0.0
C2651 C 0.11595 0.5054 0.40747 0.0
C2652 C 0.08069 0.50873 0.40455 0.0
C2653 C 0.0927 0.46727 0.43949 0.0
N2654 N 0.0656 0.48477 0.42453 0.0
C2655 C 0.19224 0.51458 0.40638 0.0
C2656 C 0.19908 0.57442 0.44477 0.0
C2657 C 0.20342 0.57493 0.40874 0.0
C2658 C 0.19907 0.54456 0.38942 0.0
C2659 C 0.19434 0.54287 0.4606 0.0
N2660 N 0.18625 0.51522 0.44095 0.0
H2661 H 0.18751 0.49182 0.39087 0.0
H2662 H 0.19574 0.54045 0.48838 0.0
H2663 H 0.13222 0.52549 0.39763 0.0
H2664 H 0.08927 0.44901 0.46052 0.0
O2665 O 0.19254 0.44554 0.42792 0.0
O2666 O 0.15801 0.42498 0.46735 0.0
O2667 O 0.13924 0.5063 0.49447 0.0
C2668 C 0.17996 0.41875 0.44201 0.0
H2669 H 0.2356 0.46642 0.5736 0.0
H2670 H 0.0673 0.52985 0.39179 0.0
H2671 H 0.20424 0.59708 0.46053 0.0
H2672 H 0.20373 0.54277 0.3618 0.0
Co2673 Co 0.32698 0.41717 0.21 0.0
C2674 C 0.3285 0.49175 0.241 0.0
C2675 C 0.33326 0.45097 0.2783 0.0
C2676 C 0.33345 0.48226 0.29586 0.0
N2677 N 0.33 0.45635 0.24383 0.0
N2678 N 0.33047 0.50806 0.27263 0.0
H2679 H 0.32569 0.50514 0.21653 0.0
H2680 H 0.33528 0.42565 0.29013 0.0
C2681 C 0.27119 0.36852 0.23475 0.0
O2682 O 0.27801 0.33534 0.23246 0.0
N2683 N 0.32325 0.37472 0.17958 0.0
C2684 C 0.297 0.36598 0.15748 0.0
C2685 C 0.29368 0.33071 0.15455 0.0
C2686 C 0.33516 0.34271 0.18947 0.0
N2687 N 0.31765 0.31562 0.17451 0.0
C2688 C 0.28788 0.44228 0.15631 0.0
C2689 C 0.22799 0.44901 0.19463 0.0
C2690 C 0.22752 0.45338 0.15861 0.0
C2691 C 0.25791 0.44907 0.13931 0.0
C2692 C 0.25953 0.44434 0.2105 0.0
N2693 N 0.28722 0.43629 0.19088 0.0
H2694 H 0.31065 0.43756 0.14083 0.0
H2695 H 0.26193 0.44576 0.23828 0.0
H2696 H 0.27689 0.38224 0.14769 0.0
H2697 H 0.35342 0.33928 0.2105 0.0
O2698 O 0.3569 0.44256 0.17793 0.0
O2699 O 0.37742 0.40805 0.21739 0.0
O2700 O 0.29605 0.38931 0.24446 0.0
C2701 C 0.38367 0.42999 0.19203 0.0
H2702 H 0.33592 0.48566 0.32358 0.0
H2703 H 0.27254 0.31733 0.14181 0.0
H2704 H 0.20532 0.45413 0.21037 0.0
H2705 H 0.25972 0.45373 0.1117 0.0
Co2706 Co 0.38526 0.57707 0.96003 0.0
C2707 C 0.31069 0.57858 0.99102 0.0
C2708 C 0.35145 0.58337 0.02833 0.0
C2709 C 0.32017 0.58356 0.04588 0.0
N2710 N 0.34608 0.58009 0.99386 0.0
N2711 N 0.29437 0.58056 1.02265 0.0
H2712 H 0.29731 0.57576 0.96655 0.0
H2713 H 0.37676 0.5854 0.04017 0.0
C2714 C 0.43394 0.52132 0.98479 0.0
O2715 O 0.46712 0.52813 0.9826 0.0
N2716 N 0.4277 0.57333 0.92961 0.0
C2717 C 0.43645 0.54708 0.90752 0.0
C2718 C 0.47171 0.54375 0.9046 0.0
C2719 C 0.4597 0.58524 0.93951 0.0
N2720 N 0.4868 0.56773 0.92456 0.0
C2721 C 0.36016 0.5379 0.90639 0.0
C2722 C 0.35335 0.47806 0.94479 0.0
C2723 C 0.349 0.47755 0.90876 0.0
C2724 C 0.35335 0.50792 0.88943 0.0
C2725 C 0.35807 0.50961 0.96062 0.0
N2726 N 0.36615 0.53727 0.94097 0.0
H2727 H 0.36489 0.56066 0.89089 0.0
H2728 H 0.35667 0.51204 0.9884 0.0
H2729 H 0.42019 0.52697 0.89771 0.0
H2730 H 0.46313 0.60351 0.96053 0.0
O2731 O 0.35985 0.60696 0.92794 0.0
O2732 O 0.39436 0.62751 0.96738 0.0
O2733 O 0.41315 0.54619 0.9945 0.0
C2734 C 0.37241 0.63374 0.94203 0.0
H2735 H 0.31675 0.58602 0.0736 0.0
H2736 H 0.4851 0.52262 0.89186 0.0
H2737 H 0.3482 0.45541 0.96055 0.0
H2738 H 0.3487 0.50971 0.86182 0.0
Co2739 Co 0.22536 0.63539 0.71004 0.0
C2740 C 0.22386 0.56082 0.74105 0.0
C2741 C 0.21905 0.60159 0.77835 0.0
C2742 C 0.21887 0.57031 0.79591 0.0
N2743 N 0.22234 0.59622 0.74388 0.0
N2744 N 0.22188 0.5445 0.77268 0.0
H2745 H 0.2267 0.54743 0.71658 0.0
H2746 H 0.21701 0.62691 0.79018 0.0
C2747 C 0.28114 0.68404 0.73478 0.0
O2748 O 0.27434 0.71723 0.73252 0.0
N2749 N 0.22911 0.67783 0.67961 0.0
C2750 C 0.25537 0.68657 0.65753 0.0
C2751 C 0.25869 0.72183 0.65459 0.0
C2752 C 0.2172 0.70984 0.68949 0.0
N2753 N 0.23471 0.73694 0.67453 0.0
C2754 C 0.26449 0.61026 0.65638 0.0
C2755 C 0.32434 0.60346 0.69475 0.0
C2756 C 0.32483 0.5991 0.65873 0.0
C2757 C 0.29446 0.60344 0.63941 0.0
C2758 C 0.2928 0.60818 0.7106 0.0
N2759 N 0.26514 0.61626 0.69096 0.0
H2760 H 0.24173 0.615 0.64089 0.0
H2761 H 0.29039 0.60678 0.73838 0.0
H2762 H 0.27548 0.6703 0.64775 0.0
H2763 H 0.19893 0.71328 0.71051 0.0
O2764 O 0.19546 0.60999 0.67796 0.0
O2765 O 0.17493 0.64451 0.7174 0.0
O2766 O 0.25627 0.66327 0.7445 0.0
C2767 C 0.16868 0.62256 0.69206 0.0
H2768 H 0.21639 0.5669 0.82363 0.0
H2769 H 0.27984 0.73522 0.64186 0.0
H2770 H 0.347 0.59831 0.71051 0.0
H2771 H 0.29266 0.59877 0.6118 0.0
Co2772 Co 0.1671 0.57702 0.09289 0.0
C2773 C 0.24168 0.57855 0.06193 0.0
C2774 C 0.20092 0.58333 1.02461 0.0
C2775 C 0.23221 0.58354 1.00707 0.0
N2776 N 0.20629 0.58005 0.05908 0.0
N2777 N 0.25801 0.58056 0.03031 0.0
H2778 H 0.25506 0.57573 0.0864 0.0
H2779 H 0.17562 0.58536 1.01277 0.0
C2780 C 0.11844 0.52128 0.06809 0.0
O2781 O 0.08526 0.5281 0.07033 0.0
N2782 N 0.12463 0.57328 0.12328 0.0
C2783 C 0.11586 0.547 0.14534 0.0
C2784 C 0.0806 0.54371 0.14826 0.0
C2785 C 0.09264 0.58523 0.1134 0.0
N2786 N 0.06553 0.56773 0.12834 0.0
C2787 C 0.19212 0.53788 0.14658 0.0
C2788 C 0.19895 0.47801 0.10822 0.0
C2789 C 0.20325 0.47753 0.14425 0.0
C2790 C 0.19886 0.5079 0.16357 0.0
C2791 C 0.19427 0.50955 0.09236 0.0
N2792 N 0.18619 0.53723 0.11199 0.0
H2793 H 0.18736 0.56064 0.16206 0.0
H2794 H 0.19573 0.51197 0.06459 0.0
H2795 H 0.13208 0.52684 0.15508 0.0
H2796 H 0.08922 0.60352 0.0924 0.0
O2797 O 0.19248 0.60691 0.12499 0.0
O2798 O 0.15799 0.62746 0.08552 0.0
O2799 O 0.13923 0.54615 0.0584 0.0
C2800 C 0.17993 0.63369 0.11088 0.0
H2801 H 0.23563 0.58602 0.97935 0.0
H2802 H 0.06719 0.52257 0.16097 0.0
H2803 H 0.20414 0.45534 0.09248 0.0
H2804 H 0.20346 0.50969 0.19119 0.0
Co2805 Co 0.2254 0.41721 0.84293 0.0
C2806 C 0.22389 0.49182 0.81197 0.0
C2807 C 0.21914 0.45105 0.77466 0.0
C2808 C 0.21893 0.48234 0.75711 0.0
N2809 N 0.2224 0.45642 0.80913 0.0
N2810 N 0.2219 0.50814 0.78035 0.0
H2811 H 0.22669 0.5052 0.83644 0.0
H2812 H 0.21713 0.42574 0.76282 0.0
C2813 C 0.28116 0.36857 0.81813 0.0
O2814 O 0.27433 0.33539 0.82041 0.0
N2815 N 0.22912 0.37473 0.87331 0.0
C2816 C 0.2554 0.36594 0.89536 0.0
C2817 C 0.25868 0.33068 0.89828 0.0
C2818 C 0.21717 0.34274 0.86341 0.0
N2819 N 0.23467 0.31562 0.87834 0.0
C2820 C 0.26451 0.44221 0.89667 0.0
C2821 C 0.32442 0.44894 0.85838 0.0
C2822 C 0.32486 0.45326 0.89441 0.0
C2823 C 0.29448 0.44891 0.91369 0.0
C2824 C 0.29288 0.44434 0.84249 0.0
N2825 N 0.26517 0.43629 0.86208 0.0
H2826 H 0.24172 0.43748 0.91213 0.0
H2827 H 0.2905 0.44581 0.81471 0.0
H2828 H 0.27556 0.38216 0.90511 0.0
H2829 H 0.19888 0.33933 0.8424 0.0
O2830 O 0.1955 0.44259 0.87502 0.0
O2831 O 0.17497 0.40812 0.83553 0.0
O2832 O 0.2563 0.38937 0.80844 0.0
C2833 C 0.16872 0.43005 0.86089 0.0
H2834 H 0.21647 0.48575 0.72939 0.0
H2835 H 0.27982 0.31726 0.91098 0.0
H2836 H 0.34711 0.4541 0.84267 0.0
H2837 H 0.29266 0.45352 0.94132 0.0
Co2838 Co 0.38526 0.4755 0.59294 0.0
C2839 C 0.31067 0.47396 0.56196 0.0
C2840 C 0.35144 0.46925 0.52466 0.0
C2841 C 0.32016 0.46903 0.5071 0.0
N2842 N 0.34607 0.4725 0.55913 0.0
N2843 N 0.29436 0.47198 0.53033 0.0
H2844 H 0.29728 0.47675 0.58644 0.0
H2845 H 0.37676 0.46725 0.51282 0.0
C2846 C 0.43391 0.53126 0.56817 0.0
O2847 O 0.46709 0.52444 0.57042 0.0
N2848 N 0.42773 0.47922 0.62333 0.0
C2849 C 0.43652 0.5055 0.64538 0.0
C2850 C 0.47179 0.50877 0.64829 0.0
C2851 C 0.45971 0.46726 0.61343 0.0
N2852 N 0.48684 0.48475 0.62837 0.0
C2853 C 0.36027 0.51462 0.64666 0.0
C2854 C 0.35343 0.57451 0.60834 0.0
C2855 C 0.34913 0.57496 0.64437 0.0
C2856 C 0.35352 0.54459 0.66367 0.0
C2857 C 0.35809 0.54297 0.59246 0.0
N2858 N 0.36618 0.51528 0.61207 0.0
H2859 H 0.36503 0.49184 0.66213 0.0
H2860 H 0.35663 0.54057 0.56469 0.0
H2861 H 0.42031 0.52567 0.65511 0.0
H2862 H 0.46311 0.44896 0.59244 0.0
O2863 O 0.35987 0.4456 0.62503 0.0
O2864 O 0.39435 0.42506 0.58555 0.0
O2865 O 0.41312 0.50639 0.55846 0.0
C2866 C 0.37241 0.41882 0.61091 0.0
H2867 H 0.31675 0.46657 0.47938 0.0
H2868 H 0.48521 0.52991 0.661 0.0
H2869 H 0.34824 0.59719 0.59262 0.0
H2870 H 0.34892 0.54278 0.6913 0.0
Co2871 Co 0.32699 0.63534 0.3429 0.0
C2872 C 0.32848 0.56074 0.31193 0.0
C2873 C 0.33329 0.60151 0.27463 0.0
C2874 C 0.33349 0.57023 0.25707 0.0
N2875 N 0.33 0.59614 0.30909 0.0
N2876 N 0.33048 0.54442 0.2803 0.0
H2877 H 0.32565 0.54736 0.3364 0.0
H2878 H 0.33533 0.62683 0.26279 0.0
C2879 C 0.27121 0.68397 0.31812 0.0
O2880 O 0.27803 0.71715 0.32038 0.0
N2881 N 0.32325 0.67782 0.37329 0.0
C2882 C 0.29697 0.68658 0.39534 0.0
C2883 C 0.29367 0.72185 0.39826 0.0
C2884 C 0.33518 0.70982 0.3634 0.0
N2885 N 0.31768 0.73693 0.37833 0.0
C2886 C 0.28791 0.61031 0.39664 0.0
C2887 C 0.22799 0.60354 0.35836 0.0
C2888 C 0.22756 0.59922 0.39438 0.0
C2889 C 0.25795 0.60358 0.41367 0.0
C2890 C 0.25952 0.60817 0.34246 0.0
N2891 N 0.28723 0.61624 0.36205 0.0
H2892 H 0.31069 0.61506 0.4121 0.0
H2893 H 0.2619 0.60671 0.31468 0.0
H2894 H 0.27681 0.67035 0.40507 0.0
H2895 H 0.35347 0.71324 0.3424 0.0
O2896 O 0.3569 0.60997 0.37499 0.0
O2897 O 0.37742 0.64445 0.3355 0.0
O2898 O 0.29607 0.66318 0.30842 0.0
C2899 C 0.38367 0.62252 0.36086 0.0
H2900 H 0.33597 0.56682 0.22935 0.0
H2901 H 0.27251 0.73525 0.41095 0.0
H2902 H 0.2053 0.59837 0.34264 0.0
H2903 H 0.25977 0.59896 0.44129 0.0
Co2904 Co 0.45978 0.16714 0.47554 0.0
C2905 C 0.49075 0.24172 0.47399 0.0
C2906 C 0.52802 0.20095 0.4691 0.0
C2907 C 0.54557 0.23223 0.46889 0.0
N2908 N 0.49358 0.20632 0.47245 0.0
N2909 N 0.52236 0.25803 0.47195 0.0
H2910 H 0.4663 0.25511 0.47687 0.0
H2911 H 0.53984 0.17563 0.46704 0.0
C2912 C 0.48454 0.11857 0.53137 0.0
O2913 O 0.48239 0.08537 0.5246 0.0
N2914 N 0.42941 0.12468 0.47935 0.0
C2915 C 0.40742 0.11595 0.5057 0.0
C2916 C 0.4045 0.08069 0.50904 0.0
C2917 C 0.43927 0.09267 0.46744 0.0
N2918 N 0.42436 0.06559 0.485 0.0
C2919 C 0.4061 0.19223 0.5146 0.0
C2920 C 0.4444 0.19933 0.57448 0.0
C2921 C 0.40838 0.20362 0.57491 0.0
C2922 C 0.3891 0.19912 0.54454 0.0
C2923 C 0.46027 0.19451 0.54296 0.0
N2924 N 0.44067 0.18631 0.51529 0.0
H2925 H 0.39063 0.18737 0.49184 0.0
H2926 H 0.48803 0.19595 0.54055 0.0
H2927 H 0.39775 0.1322 0.52589 0.0
H2928 H 0.46023 0.08923 0.44911 0.0
O2929 O 0.42771 0.19249 0.44561 0.0
O2930 O 0.46714 0.15797 0.42508 0.0
O2931 O 0.49425 0.13934 0.50648 0.0
C2932 C 0.4418 0.17991 0.41882 0.0
H2933 H 0.57328 0.23564 0.46638 0.0
H2934 H 0.39183 0.06731 0.53023 0.0
H2935 H 0.46011 0.2046 0.59715 0.0
H2936 H 0.36149 0.20373 0.5427 0.0
Co2937 Co 0.95978 0.38534 0.57732 0.0
C2938 C 0.99072 0.31076 0.57891 0.0
C2939 C 0.02802 0.35151 0.58373 0.0
C2940 C 0.04555 0.32022 0.58395 0.0
N2941 N 0.99358 0.34616 0.58041 0.0
N2942 N 1.02232 0.29443 0.58094 0.0
H2943 H 0.96626 0.29739 0.57605 0.0
H2944 H 0.03986 0.37682 0.58576 0.0
C2945 C 0.98456 0.43398 0.52156 0.0
O2946 O 0.98244 0.46718 0.52834 0.0
N2947 N 0.92939 0.42779 0.57351 0.0
C2948 C 0.90737 0.43654 0.54718 0.0
C2949 C 0.90445 0.4718 0.54385 0.0
C2950 C 0.93925 0.4598 0.58544 0.0
N2951 N 0.92433 0.48689 0.56789 0.0
C2952 C 0.90618 0.36026 0.53814 0.0
C2953 C 0.94459 0.3532 0.47832 0.0
C2954 C 0.90858 0.34893 0.47781 0.0
C2955 C 0.88924 0.35341 0.50815 0.0
C2956 C 0.9604 0.35802 0.50988 0.0
N2957 N 0.94075 0.3662 0.53752 0.0
H2958 H 0.89067 0.36508 0.56088 0.0
H2959 H 0.98816 0.35659 0.51234 0.0
H2960 H 0.89766 0.42028 0.52702 0.0
H2961 H 0.96022 0.46324 0.60377 0.0
O2962 O 0.92768 0.35996 0.6072 0.0
O2963 O 0.96709 0.39448 0.62777 0.0
O2964 O 0.99426 0.4132 0.54645 0.0
C2965 C 0.94175 0.37253 0.634 0.0
H2966 H 0.07325 0.31679 0.58646 0.0
H2967 H 0.89177 0.48519 0.52268 0.0
H2968 H 0.96036 0.34793 0.45569 0.0
H2969 H 0.86162 0.3488 0.50994 0.0
Co2970 Co 0.41709 0.20984 0.32726 0.0
C2971 C 0.49168 0.24078 0.32882 0.0
C2972 C 0.45093 0.27808 0.33365 0.0
C2973 C 0.48222 0.29562 0.33387 0.0
N2974 N 0.45629 0.24363 0.33033 0.0
N2975 N 0.50801 0.27239 0.33084 0.0
H2976 H 0.50505 0.21632 0.32597 0.0
H2977 H 0.42562 0.28992 0.3357 0.0
C2978 C 0.36846 0.23464 0.27151 0.0
O2979 O 0.33527 0.23248 0.27831 0.0
N2980 N 0.37463 0.17946 0.32346 0.0
C2981 C 0.36587 0.15747 0.29711 0.0
C2982 C 0.33061 0.15453 0.29382 0.0
C2983 C 0.34263 0.18931 0.33542 0.0
N2984 N 0.31553 0.17439 0.31788 0.0
C2985 C 0.44212 0.1562 0.2881 0.0
C2986 C 0.44915 0.19457 0.22825 0.0
C2987 C 0.45342 0.15855 0.22777 0.0
C2988 C 0.44894 0.13923 0.25812 0.0
C2989 C 0.44437 0.21041 0.2598 0.0
N2990 N 0.43621 0.19077 0.28746 0.0
H2991 H 0.43731 0.14071 0.31085 0.0
H2992 H 0.44582 0.23817 0.26224 0.0
H2993 H 0.3821 0.1478 0.27691 0.0
H2994 H 0.3392 0.21026 0.35376 0.0
O2995 O 0.44246 0.17773 0.35715 0.0
O2996 O 0.40796 0.21717 0.37772 0.0
O2997 O 0.38925 0.24433 0.29638 0.0
C2998 C 0.4299 0.19182 0.38394 0.0
H2999 H 0.48564 0.32332 0.33637 0.0
H3000 H 0.31721 0.14187 0.27264 0.0
H3001 H 0.45441 0.21032 0.2056 0.0
H3002 H 0.45353 0.11161 0.25992 0.0
Co3003 Co 0.59255 0.66717 0.07734 0.0
C3004 C 0.5616 0.74175 0.07894 0.0
C3005 C 0.52431 0.70099 0.08381 0.0
C3006 C 0.50677 0.73229 0.08404 0.0
N3007 N 0.55875 0.70635 0.08046 0.0
N3008 N 0.53 0.75808 0.08099 0.0
H3009 H 0.58605 0.75512 0.07605 0.0
H3010 H 0.51247 0.67568 0.08587 0.0
C3011 C 0.56776 0.61855 1.02156 0.0
O3012 O 0.56988 0.58535 0.02835 0.0
N3013 N 0.62294 0.62472 0.07351 0.0
C3014 C 0.64495 0.616 0.04717 0.0
C3015 C 0.64789 0.58074 0.04383 0.0
C3016 C 0.61309 0.59271 0.08543 0.0
N3017 N 0.62802 0.56563 0.06787 0.0
C3018 C 0.64614 0.69229 0.03818 0.0
C3019 C 0.60772 0.69943 0.97838 0.0
C3020 C 0.64373 0.70369 0.97787 0.0
C3021 C 0.66308 0.6992 1.00821 0.0
C3022 C 0.59191 0.69455 1.00993 0.0
N3023 N 0.61157 0.68633 0.03755 0.0
H3024 H 0.66165 0.68745 0.06092 0.0
H3025 H 0.56415 0.69596 1.01238 0.0
H3026 H 0.65464 0.63226 0.02701 0.0
H3027 H 0.59214 0.58926 0.10376 0.0
O3028 O 0.62465 0.69254 0.10723 0.0
O3029 O 0.58525 0.658 0.1278 0.0
O3030 O 0.55807 0.63934 0.04644 0.0
C3031 C 0.61059 0.67995 0.13403 0.0
H3032 H 0.47907 0.73571 0.08656 0.0
H3033 H 0.66057 0.56736 1.02266 0.0
H3034 H 0.59196 0.70471 0.95574 0.0
H3035 H 0.69069 0.70382 1.01 0.0
Co3036 Co 0.63528 0.34259 0.32727 0.0
C3037 C 0.5607 0.31164 0.32883 0.0
C3038 C 0.60145 0.27434 0.33365 0.0
C3039 C 0.57016 0.2568 0.33386 0.0
N3040 N 0.59609 0.30879 0.33034 0.0
N3041 N 0.54437 0.28003 0.33085 0.0
H3042 H 0.54733 0.3361 0.32598 0.0
H3043 H 0.62676 0.2625 0.33568 0.0
C3044 C 0.68392 0.3178 0.27151 0.0
O3045 O 0.7171 0.31996 0.27833 0.0
N3046 N 0.67774 0.37297 0.32348 0.0
C3047 C 0.6865 0.39497 0.29715 0.0
C3048 C 0.72176 0.39791 0.29385 0.0
C3049 C 0.70974 0.36312 0.33544 0.0
N3050 N 0.73684 0.37805 0.31791 0.0
C3051 C 0.61024 0.39624 0.28813 0.0
C3052 C 0.60318 0.35788 0.22827 0.0
C3053 C 0.59891 0.39389 0.22781 0.0
C3054 C 0.60339 0.41321 0.25816 0.0
C3055 C 0.60799 0.34203 0.25982 0.0
N3056 N 0.61616 0.36166 0.28748 0.0
H3057 H 0.61506 0.41172 0.31089 0.0
H3058 H 0.60655 0.31427 0.26224 0.0
H3059 H 0.67026 0.40464 0.27695 0.0
H3060 H 0.71317 0.34216 0.35377 0.0
O3061 O 0.60991 0.37469 0.35717 0.0
O3062 O 0.64441 0.33525 0.37773 0.0
O3063 O 0.66312 0.30811 0.29638 0.0
C3064 C 0.62247 0.3606 0.38396 0.0
H3065 H 0.56674 0.22909 0.33635 0.0
H3066 H 0.73515 0.41058 0.27267 0.0
H3067 H 0.59791 0.34213 0.20562 0.0
H3068 H 0.5988 0.44083 0.25997 0.0
Co3069 Co 0.09262 0.88533 0.97556 0.0
C3070 C 0.06167 0.81075 0.974 0.0
C3071 C 1.02438 0.85152 0.96916 0.0
C3072 C 1.00684 0.82023 0.96894 0.0
N3073 N 0.05883 0.84615 0.97248 0.0
N3074 N 0.03006 0.79443 0.97198 0.0
H3075 H 0.08612 0.79737 0.97687 0.0
H3076 H 1.01256 0.87684 0.96711 0.0
C3077 C 0.06785 0.93392 0.03137 0.0
O3078 O 0.07 0.96712 1.0246 0.0
N3079 N 0.123 0.92779 0.97937 0.0
C3080 C 0.14501 0.93654 1.0057 0.0
C3081 C 0.14791 0.9718 1.00903 0.0
C3082 C 0.11311 0.95979 0.96744 0.0
N3083 N 0.12802 0.98689 0.98499 0.0
C3084 C 0.14629 0.86026 1.01467 0.0
C3085 C 0.10796 0.8532 0.07453 0.0
C3086 C 0.14397 0.84892 0.07499 0.0
C3087 C 0.16328 0.8534 0.04463 0.0
C3088 C 0.09211 0.85799 0.04299 0.0
N3089 N 0.11172 0.86618 1.01534 0.0
H3090 H 0.16177 0.8651 0.99191 0.0
H3091 H 0.06434 0.85655 0.04058 0.0
H3092 H 0.15471 0.92029 1.02586 0.0
H3093 H 0.09214 0.96322 0.94912 0.0
O3094 O 0.12471 0.85997 0.94565 0.0
O3095 O 0.08527 0.89449 0.92511 0.0
O3096 O 0.05816 0.91315 1.00648 0.0
C3097 C 0.11062 0.87255 0.91886 0.0
H3098 H 0.97914 0.81682 0.96644 0.0
H3099 H 0.16059 0.9852 0.0302 0.0
H3100 H 0.09223 0.84793 0.09719 0.0
H3101 H 0.19089 0.8488 0.04282 0.0
Co3102 Co 0.41713 0.84261 0.22561 0.0
C3103 C 0.4917 0.81166 0.22404 0.0
C3104 C 0.45095 0.77436 0.2192 0.0
C3105 C 0.48224 0.75682 0.21898 0.0
N3106 N 0.45631 0.80881 0.22252 0.0
N3107 N 0.50803 0.78005 0.22201 0.0
H3108 H 0.50508 0.83612 0.2269 0.0
H3109 H 0.42564 0.76253 0.21716 0.0
C3110 C 0.3685 0.81781 0.28136 0.0
O3111 O 0.33531 0.81992 0.27456 0.0
N3112 N 0.37468 0.873 0.22942 0.0
C3113 C 0.36594 0.89501 0.25575 0.0
C3114 C 0.33068 0.89793 0.25907 0.0
C3115 C 0.34268 0.86312 0.21749 0.0
N3116 N 0.31559 0.87804 0.23503 0.0
C3117 C 0.4422 0.89624 0.26477 0.0
C3118 C 0.44925 0.85785 0.32461 0.0
C3119 C 0.45351 0.89387 0.3251 0.0
C3120 C 0.44905 0.9132 0.29475 0.0
C3121 C 0.44444 0.84202 0.29306 0.0
N3122 N 0.43627 0.86166 0.26541 0.0
H3123 H 0.43739 0.91173 0.24202 0.0
H3124 H 0.44587 0.81426 0.29062 0.0
H3125 H 0.38218 0.90472 0.27591 0.0
H3126 H 0.33925 0.84216 0.19916 0.0
O3127 O 0.4425 0.87472 0.19573 0.0
O3128 O 0.40798 0.83529 0.17515 0.0
O3129 O 0.38929 0.80812 0.25649 0.0
C3130 C 0.42992 0.86064 0.16893 0.0
H3131 H 0.48565 0.72912 0.21648 0.0
H3132 H 0.31729 0.91061 0.28024 0.0
H3133 H 0.45451 0.8421 0.34726 0.0
H3134 H 0.45365 0.94082 0.29295 0.0
Co3135 Co 0.13525 0.20985 0.72556 0.0
C3136 C 0.06067 0.24081 0.72399 0.0
C3137 C 0.10143 0.27811 0.71919 0.0
C3138 C 0.07015 0.29565 0.71898 0.0
N3139 N 0.09606 0.24366 0.72249 0.0
N3140 N 0.04435 0.27242 0.72198 0.0
H3141 H 0.04729 0.21635 0.72684 0.0
H3142 H 0.12675 0.28994 0.71716 0.0
C3143 C 0.18386 0.23464 0.78135 0.0
O3144 O 0.21705 0.23247 0.77456 0.0
N3145 N 0.1777 0.17947 0.72936 0.0
C3146 C 0.18646 0.15746 0.75568 0.0
C3147 C 0.22172 0.15454 0.759 0.0
C3148 C 0.2097 0.18935 0.71742 0.0
N3149 N 0.2368 0.17443 0.73496 0.0
C3150 C 0.11019 0.15619 0.76469 0.0
C3151 C 0.10315 0.19454 0.82455 0.0
C3152 C 0.09887 0.15853 0.82502 0.0
C3153 C 0.10334 0.13921 0.79466 0.0
C3154 C 0.10794 0.21039 0.79301 0.0
N3155 N 0.11612 0.19077 0.76535 0.0
H3156 H 0.11501 0.14071 0.74194 0.0
H3157 H 0.1065 0.23816 0.79058 0.0
H3158 H 0.17022 0.14776 0.77586 0.0
H3159 H 0.21313 0.21032 0.6991 0.0
O3160 O 0.10988 0.17776 0.69566 0.0
O3161 O 0.14438 0.2172 0.67511 0.0
O3162 O 0.16308 0.24433 0.75647 0.0
C3163 C 0.12245 0.19185 0.66887 0.0
H3164 H 0.06674 0.32336 0.71649 0.0
H3165 H 0.23511 0.14185 0.78016 0.0
H3166 H 0.0979 0.21028 0.84721 0.0
H3167 H 0.09874 0.1116 0.79285 0.0
loop_
_geom_bond_atom_site_label_1
_geom_bond_atom_site_label_2
_geom_bond_distance
_geom_bond_site_symmetry_2
_ccdc_geom_bond_type
Co0 N4 2.148 . S
Co0 N10 2.128 . S
Co0 N20 2.194 . S
Co0 O25 2.351 . S
Co0 O26 2.155 . S
Co0 O27 2.096 . S
C1 N4 1.301 . S
C1 N5 1.328 1_545 S
C1 H6 0.930 . S
C2 C3 1.333 . S
C2 N4 1.317 1_565 S
C2 H7 0.930 . S
C3 C2 1.333 . S
C3 N5 1.350 . S
C3 H29 0.931 . S
N4 Co0 2.148 . S
N4 C1 1.301 . S
N4 C2 1.317 1_545 S
N5 C1 1.328 1_565 S
N5 C3 1.350 . S
H6 C1 0.930 . S
H7 C2 0.930 . S
C8 O9 1.224 . S
C8 O27 1.247 1_655 S
O9 C8 1.224 . S
N10 Co0 2.128 . S
N10 C11 1.355 . S
N10 C13 1.311 . S
C11 N10 1.355 . S
C11 C12 1.363 . S
C11 H23 0.929 . S
C12 C11 1.363 . S
C12 N14 1.375 . S
C12 H30 0.931 . S
C13 N10 1.311 . S
C13 N14 1.347 . S
C13 H24 0.929 . S
N14 C12 1.375 . S
N14 C13 1.347 . S
C15 C18 1.365 . S
C15 N20 1.328 . S
C15 H21 0.929 . S
C16 C17 1.362 . S
C16 C19 1.378 . S
C16 H31 0.929 . S
C17 C16 1.362 . S
C17 C18 1.366 1_655 S
C18 C15 1.365 . S
C18 C17 1.366 1_455 S
C18 H32 0.930 . S
C19 C16 1.378 . S
C19 N20 1.315 1_655 S
C19 H22 0.930 . S
N20 Co0 2.194 . S
N20 C15 1.328 . S
N20 C19 1.315 1_455 S
H21 C15 0.929 . S
H22 C19 0.930 . S
H23 C11 0.929 . S
H24 C13 0.929 . S
O25 Co0 2.351 . S
O25 C28 1.244 . S
O26 Co0 2.155 . S
O26 C28 1.240 . S
O27 Co0 2.096 . S
O27 C8 1.247 1_455 S
C28 O25 1.244 . S
C28 O26 1.240 . S
H29 C3 0.931 . S
H30 C12 0.931 . S
H31 C16 0.929 . S
H32 C18 0.930 . S
Co33 N37 2.148 . S
Co33 N43 2.128 . S
Co33 N53 2.194 . S
Co33 O58 2.351 . S
Co33 O59 2.155 . S
Co33 O60 2.096 . S
C34 N37 1.301 . S
C34 N38 1.328 . S
C34 H39 0.930 . S
C35 C36 1.333 . S
C35 N37 1.317 . S
C35 H40 0.930 . S
C36 C35 1.333 . S
C36 N38 1.350 . S
C36 H62 0.931 . S
N37 Co33 2.148 . S
N37 C34 1.301 . S
N37 C35 1.317 . S
N38 C34 1.328 . S
N38 C36 1.350 . S
H39 C34 0.930 . S
H40 C35 0.930 . S
C41 O42 1.224 . S
C41 O60 1.247 . S
O42 C41 1.224 . S
N43 Co33 2.128 . S
N43 C44 1.355 . S
N43 C46 1.311 . S
C44 N43 1.355 . S
C44 C45 1.363 . S
C44 H56 0.929 . S
C45 C44 1.363 . S
C45 N47 1.375 . S
C45 H63 0.931 . S
C46 N43 1.311 . S
C46 N47 1.347 . S
C46 H57 0.929 . S
N47 C45 1.375 . S
N47 C46 1.347 . S
C48 C51 1.365 . S
C48 N53 1.328 . S
C48 H54 0.929 . S
C49 C50 1.362 . S
C49 C52 1.378 . S
C49 H64 0.929 . S
C50 C49 1.362 . S
C50 C51 1.366 . S
C51 C48 1.365 . S
C51 C50 1.366 . S
C51 H65 0.930 . S
C52 C49 1.378 . S
C52 N53 1.315 . S
C52 H55 0.930 . S
N53 Co33 2.194 . S
N53 C48 1.328 . S
N53 C52 1.315 . S
H54 C48 0.929 . S
H55 C52 0.930 . S
H56 C44 0.929 . S
H57 C46 0.929 . S
O58 Co33 2.351 . S
O58 C61 1.244 . S
O59 Co33 2.155 . S
O59 C61 1.240 . S
O60 Co33 2.096 . S
O60 C41 1.247 . S
C61 O58 1.244 . S
C61 O59 1.240 . S
H62 C36 0.931 . S
H63 C45 0.931 . S
H64 C49 0.929 . S
H65 C51 0.930 . S
Co66 N70 2.148 . S
Co66 N76 2.128 . S
Co66 N86 2.194 . S
Co66 O91 2.351 . S
Co66 O92 2.155 . S
Co66 O93 2.096 . S
C67 N70 1.301 . S
C67 N71 1.328 1_565 S
C67 H72 0.930 . S
C68 C69 1.333 . S
C68 N70 1.317 1_545 S
C68 H73 0.930 . S
C69 C68 1.333 . S
C69 N71 1.350 . S
C69 H95 0.931 . S
N70 Co66 2.148 . S
N70 C67 1.301 . S
N70 C68 1.317 1_565 S
N71 C67 1.328 1_545 S
N71 C69 1.350 . S
H72 C67 0.930 . S
H73 C68 0.930 . S
C74 O75 1.224 . S
C74 O93 1.247 . S
O75 C74 1.224 . S
N76 Co66 2.128 . S
N76 C77 1.355 . S
N76 C79 1.311 . S
C77 N76 1.355 . S
C77 C78 1.363 . S
C77 H89 0.929 . S
C78 C77 1.363 . S
C78 N80 1.375 . S
C78 H96 0.931 . S
C79 N76 1.311 . S
C79 N80 1.347 . S
C79 H90 0.929 . S
N80 C78 1.375 . S
N80 C79 1.347 . S
C81 C84 1.365 . S
C81 N86 1.328 . S
C81 H87 0.929 . S
C82 C83 1.362 . S
C82 C85 1.378 . S
C82 H97 0.929 . S
C83 C82 1.362 . S
C83 C84 1.366 . S
C84 C81 1.365 . S
C84 C83 1.366 . S
C84 H98 0.930 . S
C85 C82 1.378 . S
C85 N86 1.315 . S
C85 H88 0.930 . S
N86 Co66 2.194 . S
N86 C81 1.328 . S
N86 C85 1.315 . S
H87 C81 0.929 . S
H88 C85 0.930 . S
H89 C77 0.929 . S
H90 C79 0.929 . S
O91 Co66 2.351 . S
O91 C94 1.244 . S
O92 Co66 2.155 . S
O92 C94 1.240 . S
O93 Co66 2.096 . S
O93 C74 1.247 . S
C94 O91 1.244 . S
C94 O92 1.240 . S
H95 C69 0.931 . S
H96 C78 0.931 . S
H97 C82 0.929 . S
H98 C84 0.930 . S
Co99 N103 2.148 . S
Co99 N109 2.128 . S
Co99 N119 2.194 . S
Co99 O124 2.351 . S
Co99 O125 2.155 . S
Co99 O126 2.096 . S
C100 N103 1.301 . S
C100 N104 1.328 . S
C100 H105 0.930 . S
C101 C102 1.333 . S
C101 N103 1.317 . S
C101 H106 0.930 . S
C102 C101 1.333 . S
C102 N104 1.350 . S
C102 H128 0.931 . S
N103 Co99 2.148 . S
N103 C100 1.301 . S
N103 C101 1.317 . S
N104 C100 1.328 . S
N104 C102 1.350 . S
H105 C100 0.930 . S
H106 C101 0.930 . S
C107 O108 1.224 . S
C107 O126 1.247 . S
O108 C107 1.224 . S
N109 Co99 2.128 . S
N109 C110 1.355 . S
N109 C112 1.311 . S
C110 N109 1.355 . S
C110 C111 1.363 . S
C110 H122 0.929 . S
C111 C110 1.363 . S
C111 N113 1.375 . S
C111 H129 0.931 . S
C112 N109 1.311 . S
C112 N113 1.347 . S
C112 H123 0.929 . S
N113 C111 1.375 . S
N113 C112 1.347 . S
C114 C117 1.365 . S
C114 N119 1.328 . S
C114 H120 0.929 . S
C115 C116 1.362 . S
C115 C118 1.378 . S
C115 H130 0.929 . S
C116 C115 1.362 . S
C116 C117 1.366 . S
C117 C114 1.365 . S
C117 C116 1.366 . S
C117 H131 0.930 . S
C118 C115 1.378 . S
C118 N119 1.315 . S
C118 H121 0.930 . S
N119 Co99 2.194 . S
N119 C114 1.328 . S
N119 C118 1.315 . S
H120 C114 0.929 . S
H121 C118 0.930 . S
H122 C110 0.929 . S
H123 C112 0.929 . S
O124 Co99 2.351 . S
O124 C127 1.244 . S
O125 Co99 2.155 . S
O125 C127 1.240 . S
O126 Co99 2.096 . S
O126 C107 1.247 . S
C127 O124 1.244 . S
C127 O125 1.240 . S
H128 C102 0.931 . S
H129 C111 0.931 . S
H130 C115 0.929 . S
H131 C117 0.930 . S
Co132 N136 2.148 . S
Co132 N142 2.128 . S
Co132 N152 2.194 . S
Co132 O157 2.351 . S
Co132 O158 2.155 . S
Co132 O159 2.096 . S
C133 N136 1.301 . S
C133 N137 1.328 1_565 S
C133 H138 0.930 . S
C134 C135 1.333 . S
C134 N136 1.317 1_545 S
C134 H139 0.930 . S
C135 C134 1.333 . S
C135 N137 1.350 . S
C135 H161 0.931 . S
N136 Co132 2.148 . S
N136 C133 1.301 . S
N136 C134 1.317 1_565 S
N137 C133 1.328 1_545 S
N137 C135 1.350 . S
H138 C133 0.930 . S
H139 C134 0.930 . S
C140 O141 1.224 . S
C140 O159 1.247 1_655 S
O141 C140 1.224 . S
N142 Co132 2.128 . S
N142 C143 1.355 . S
N142 C145 1.311 . S
C143 N142 1.355 . S
C143 C144 1.363 . S
C143 H155 0.929 . S
C144 C143 1.363 . S
C144 N146 1.375 . S
C144 H162 0.931 . S
C145 N142 1.311 . S
C145 N146 1.347 . S
C145 H156 0.929 . S
N146 C144 1.375 . S
N146 C145 1.347 . S
C147 C150 1.365 . S
C147 N152 1.328 . S
C147 H153 0.929 . S
C148 C149 1.362 . S
C148 C151 1.378 . S
C148 H163 0.929 . S
C149 C148 1.362 . S
C149 C150 1.366 1_655 S
C150 C147 1.365 . S
C150 C149 1.366 1_455 S
C150 H164 0.930 . S
C151 C148 1.378 . S
C151 N152 1.315 1_655 S
C151 H154 0.930 . S
N152 Co132 2.194 . S
N152 C147 1.328 . S
N152 C151 1.315 1_455 S
H153 C147 0.929 . S
H154 C151 0.930 . S
H155 C143 0.929 . S
H156 C145 0.929 . S
O157 Co132 2.351 . S
O157 C160 1.244 . S
O158 Co132 2.155 . S
O158 C160 1.240 . S
O159 Co132 2.096 . S
O159 C140 1.247 1_455 S
C160 O157 1.244 . S
C160 O158 1.240 . S
H161 C135 0.931 . S
H162 C144 0.931 . S
H163 C148 0.929 . S
H164 C150 0.930 . S
Co165 N169 2.148 . S
Co165 N175 2.128 . S
Co165 N185 2.194 . S
Co165 O190 2.351 . S
Co165 O191 2.155 . S
Co165 O192 2.096 . S
C166 N169 1.301 . S
C166 N170 1.328 . S
C166 H171 0.930 . S
C167 C168 1.333 . S
C167 N169 1.317 . S
C167 H172 0.930 . S
C168 C167 1.333 . S
C168 N170 1.350 . S
C168 H194 0.931 . S
N169 Co165 2.148 . S
N169 C166 1.301 . S
N169 C167 1.317 . S
N170 C166 1.328 . S
N170 C168 1.350 . S
H171 C166 0.930 . S
H172 C167 0.930 . S
C173 O174 1.224 . S
C173 O192 1.247 . S
O174 C173 1.224 . S
N175 Co165 2.128 . S
N175 C176 1.355 . S
N175 C178 1.311 . S
C176 N175 1.355 . S
C176 C177 1.363 . S
C176 H188 0.929 . S
C177 C176 1.363 . S
C177 N179 1.375 . S
C177 H195 0.931 . S
C178 N175 1.311 . S
C178 N179 1.347 . S
C178 H189 0.929 . S
N179 C177 1.375 . S
N179 C178 1.347 . S
C180 C183 1.365 . S
C180 N185 1.328 . S
C180 H186 0.929 . S
C181 C182 1.362 . S
C181 C184 1.378 . S
C181 H196 0.929 . S
C182 C181 1.362 . S
C182 C183 1.366 . S
C183 C180 1.365 . S
C183 C182 1.366 . S
C183 H197 0.930 . S
C184 C181 1.378 . S
C184 N185 1.315 . S
C184 H187 0.930 . S
N185 Co165 2.194 . S
N185 C180 1.328 . S
N185 C184 1.315 . S
H186 C180 0.929 . S
H187 C184 0.930 . S
H188 C176 0.929 . S
H189 C178 0.929 . S
O190 Co165 2.351 . S
O190 C193 1.244 . S
O191 Co165 2.155 . S
O191 C193 1.240 . S
O192 Co165 2.096 . S
O192 C173 1.247 . S
C193 O190 1.244 . S
C193 O191 1.240 . S
H194 C168 0.931 . S
H195 C177 0.931 . S
H196 C181 0.929 . S
H197 C183 0.930 . S
Co198 N202 2.148 . S
Co198 N208 2.128 . S
Co198 N218 2.194 . S
Co198 O223 2.351 . S
Co198 O224 2.155 . S
Co198 O225 2.096 . S
C199 N202 1.301 . S
C199 N203 1.328 1_545 S
C199 H204 0.930 . S
C200 C201 1.333 . S
C200 N202 1.317 1_565 S
C200 H205 0.930 . S
C201 C200 1.333 . S
C201 N203 1.350 . S
C201 H227 0.931 . S
N202 Co198 2.148 . S
N202 C199 1.301 . S
N202 C200 1.317 1_545 S
N203 C199 1.328 1_565 S
N203 C201 1.350 . S
H204 C199 0.930 . S
H205 C200 0.930 . S
C206 O207 1.224 . S
C206 O225 1.247 . S
O207 C206 1.224 . S
N208 Co198 2.128 . S
N208 C209 1.355 . S
N208 C211 1.311 . S
C209 N208 1.355 . S
C209 C210 1.363 . S
C209 H221 0.929 . S
C210 C209 1.363 . S
C210 N212 1.375 . S
C210 H228 0.931 . S
C211 N208 1.311 . S
C211 N212 1.347 . S
C211 H222 0.929 . S
N212 C210 1.375 . S
N212 C211 1.347 . S
C213 C216 1.365 . S
C213 N218 1.328 . S
C213 H219 0.929 . S
C214 C215 1.362 . S
C214 C217 1.378 . S
C214 H229 0.929 . S
C215 C214 1.362 . S
C215 C216 1.366 . S
C216 C213 1.365 . S
C216 C215 1.366 . S
C216 H230 0.930 . S
C217 C214 1.378 . S
C217 N218 1.315 . S
C217 H220 0.930 . S
N218 Co198 2.194 . S
N218 C213 1.328 . S
N218 C217 1.315 . S
H219 C213 0.929 . S
H220 C217 0.930 . S
H221 C209 0.929 . S
H222 C211 0.929 . S
O223 Co198 2.351 . S
O223 C226 1.244 . S
O224 Co198 2.155 . S
O224 C226 1.240 . S
O225 Co198 2.096 . S
O225 C206 1.247 . S
C226 O223 1.244 . S
C226 O224 1.240 . S
H227 C201 0.931 . S
H228 C210 0.931 . S
H229 C214 0.929 . S
H230 C216 0.930 . S
Co231 N235 2.148 . S
Co231 N241 2.128 . S
Co231 N251 2.194 . S
Co231 O256 2.351 . S
Co231 O257 2.155 . S
Co231 O258 2.096 . S
C232 N235 1.301 . S
C232 N236 1.328 . S
C232 H237 0.930 . S
C233 C234 1.333 . S
C233 N235 1.317 . S
C233 H238 0.930 . S
C234 C233 1.333 . S
C234 N236 1.350 . S
C234 H260 0.931 . S
N235 Co231 2.148 . S
N235 C232 1.301 . S
N235 C233 1.317 . S
N236 C232 1.328 . S
N236 C234 1.350 . S
H237 C232 0.930 . S
H238 C233 0.930 . S
C239 O240 1.224 . S
C239 O258 1.247 . S
O240 C239 1.224 . S
N241 Co231 2.128 . S
N241 C242 1.355 . S
N241 C244 1.311 . S
C242 N241 1.355 . S
C242 C243 1.363 . S
C242 H254 0.929 . S
C243 C242 1.363 . S
C243 N245 1.375 . S
C243 H261 0.931 . S
C244 N241 1.311 . S
C244 N245 1.347 . S
C244 H255 0.929 . S
N245 C243 1.375 . S
N245 C244 1.347 . S
C246 C249 1.365 . S
C246 N251 1.328 . S
C246 H252 0.929 . S
C247 C248 1.362 . S
C247 C250 1.378 . S
C247 H262 0.929 . S
C248 C247 1.362 . S
C248 C249 1.366 . S
C249 C246 1.365 . S
C249 C248 1.366 . S
C249 H263 0.930 . S
C250 C247 1.378 . S
C250 N251 1.315 . S
C250 H253 0.930 . S
N251 Co231 2.194 . S
N251 C246 1.328 . S
N251 C250 1.315 . S
H252 C246 0.929 . S
H253 C250 0.930 . S
H254 C242 0.929 . S
H255 C244 0.929 . S
O256 Co231 2.351 . S
O256 C259 1.244 . S
O257 Co231 2.155 . S
O257 C259 1.240 . S
O258 Co231 2.096 . S
O258 C239 1.247 . S
C259 O256 1.244 . S
C259 O257 1.240 . S
H260 C234 0.931 . S
H261 C243 0.931 . S
H262 C247 0.929 . S
H263 C249 0.930 . S
Co264 N268 2.148 . S
Co264 N274 2.128 . S
Co264 N284 2.194 . S
Co264 O289 2.351 . S
Co264 O290 2.155 . S
Co264 O291 2.096 . S
C265 N268 1.301 . S
C265 N269 1.328 1_554 S
C265 H270 0.930 . S
C266 C267 1.333 . S
C266 N268 1.317 1_556 S
C266 H271 0.930 . S
C267 C266 1.333 . S
C267 N269 1.350 . S
C267 H293 0.931 . S
N268 Co264 2.148 . S
N268 C265 1.301 . S
N268 C266 1.317 1_554 S
N269 C265 1.328 1_556 S
N269 C267 1.350 . S
H270 C265 0.930 . S
H271 C266 0.930 . S
C272 O273 1.224 . S
C272 O291 1.247 1_565 S
O273 C272 1.224 . S
N274 Co264 2.128 . S
N274 C275 1.355 . S
N274 C277 1.311 . S
C275 N274 1.355 . S
C275 C276 1.363 . S
C275 H287 0.929 . S
C276 C275 1.363 . S
C276 N278 1.375 . S
C276 H294 0.931 . S
C277 N274 1.311 . S
C277 N278 1.347 . S
C277 H288 0.929 . S
N278 C276 1.375 . S
N278 C277 1.347 . S
C279 C282 1.365 . S
C279 N284 1.328 . S
C279 H285 0.929 . S
C280 C281 1.362 . S
C280 C283 1.378 . S
C280 H295 0.929 . S
C281 C280 1.362 . S
C281 C282 1.366 1_565 S
C282 C279 1.365 . S
C282 C281 1.366 1_545 S
C282 H296 0.930 . S
C283 C280 1.378 . S
C283 N284 1.315 1_565 S
C283 H286 0.930 . S
N284 Co264 2.194 . S
N284 C279 1.328 . S
N284 C283 1.315 1_545 S
H285 C279 0.929 . S
H286 C283 0.930 . S
H287 C275 0.929 . S
H288 C277 0.929 . S
O289 Co264 2.351 . S
O289 C292 1.244 . S
O290 Co264 2.155 . S
O290 C292 1.240 . S
O291 Co264 2.096 . S
O291 C272 1.247 1_545 S
C292 O289 1.244 . S
C292 O290 1.240 . S
H293 C267 0.931 . S
H294 C276 0.931 . S
H295 C280 0.929 . S
H296 C282 0.930 . S
Co297 N301 2.148 . S
Co297 N307 2.128 . S
Co297 N317 2.194 . S
Co297 O322 2.351 . S
Co297 O323 2.155 . S
Co297 O324 2.096 . S
C298 N301 1.301 . S
C298 N302 1.328 . S
C298 H303 0.930 . S
C299 C300 1.333 . S
C299 N301 1.317 . S
C299 H304 0.930 . S
C300 C299 1.333 . S
C300 N302 1.350 . S
C300 H326 0.931 . S
N301 Co297 2.148 . S
N301 C298 1.301 . S
N301 C299 1.317 . S
N302 C298 1.328 . S
N302 C300 1.350 . S
H303 C298 0.930 . S
H304 C299 0.930 . S
C305 O306 1.224 . S
C305 O324 1.247 . S
O306 C305 1.224 . S
N307 Co297 2.128 . S
N307 C308 1.355 . S
N307 C310 1.311 . S
C308 N307 1.355 . S
C308 C309 1.363 . S
C308 H320 0.929 . S
C309 C308 1.363 . S
C309 N311 1.375 . S
C309 H327 0.931 . S
C310 N307 1.311 . S
C310 N311 1.347 . S
C310 H321 0.929 . S
N311 C309 1.375 . S
N311 C310 1.347 . S
C312 C315 1.365 . S
C312 N317 1.328 . S
C312 H318 0.929 . S
C313 C314 1.362 . S
C313 C316 1.378 . S
C313 H328 0.929 . S
C314 C313 1.362 . S
C314 C315 1.366 . S
C315 C312 1.365 . S
C315 C314 1.366 . S
C315 H329 0.930 . S
C316 C313 1.378 . S
C316 N317 1.315 . S
C316 H319 0.930 . S
N317 Co297 2.194 . S
N317 C312 1.328 . S
N317 C316 1.315 . S
H318 C312 0.929 . S
H319 C316 0.930 . S
H320 C308 0.929 . S
H321 C310 0.929 . S
O322 Co297 2.351 . S
O322 C325 1.244 . S
O323 Co297 2.155 . S
O323 C325 1.240 . S
O324 Co297 2.096 . S
O324 C305 1.247 . S
C325 O322 1.244 . S
C325 O323 1.240 . S
H326 C300 0.931 . S
H327 C309 0.931 . S
H328 C313 0.929 . S
H329 C315 0.930 . S
Co330 N334 2.148 . S
Co330 N340 2.128 . S
Co330 N350 2.194 . S
Co330 O355 2.351 . S
Co330 O356 2.155 . S
Co330 O357 2.096 . S
C331 N334 1.301 . S
C331 N335 1.328 . S
C331 H336 0.930 . S
C332 C333 1.333 . S
C332 N334 1.317 . S
C332 H337 0.930 . S
C333 C332 1.333 . S
C333 N335 1.350 . S
C333 H359 0.931 . S
N334 Co330 2.148 . S
N334 C331 1.301 . S
N334 C332 1.317 . S
N335 C331 1.328 . S
N335 C333 1.350 . S
H336 C331 0.930 . S
H337 C332 0.930 . S
C338 O339 1.224 . S
C338 O357 1.247 1_545 S
O339 C338 1.224 . S
N340 Co330 2.128 . S
N340 C341 1.355 . S
N340 C343 1.311 . S
C341 N340 1.355 . S
C341 C342 1.363 . S
C341 H353 0.929 . S
C342 C341 1.363 . S
C342 N344 1.375 . S
C342 H360 0.931 . S
C343 N340 1.311 . S
C343 N344 1.347 . S
C343 H354 0.929 . S
N344 C342 1.375 . S
N344 C343 1.347 . S
C345 C348 1.365 . S
C345 N350 1.328 . S
C345 H351 0.929 . S
C346 C347 1.362 . S
C346 C349 1.378 . S
C346 H361 0.929 . S
C347 C346 1.362 . S
C347 C348 1.366 1_545 S
C348 C345 1.365 . S
C348 C347 1.366 1_565 S
C348 H362 0.930 . S
C349 C346 1.378 . S
C349 N350 1.315 1_545 S
C349 H352 0.930 . S
N350 Co330 2.194 . S
N350 C345 1.328 . S
N350 C349 1.315 1_565 S
H351 C345 0.929 . S
H352 C349 0.930 . S
H353 C341 0.929 . S
H354 C343 0.929 . S
O355 Co330 2.351 . S
O355 C358 1.244 . S
O356 Co330 2.155 . S
O356 C358 1.240 . S
O357 Co330 2.096 . S
O357 C338 1.247 1_565 S
C358 O355 1.244 . S
C358 O356 1.240 . S
H359 C333 0.931 . S
H360 C342 0.931 . S
H361 C346 0.929 . S
H362 C348 0.930 . S
Co363 N367 2.148 . S
Co363 N373 2.128 . S
Co363 N383 2.194 . S
Co363 O388 2.351 . S
Co363 O389 2.155 . S
Co363 O390 2.096 . S
C364 N367 1.301 . S
C364 N368 1.328 . S
C364 H369 0.930 . S
C365 C366 1.333 . S
C365 N367 1.317 . S
C365 H370 0.930 . S
C366 C365 1.333 . S
C366 N368 1.350 . S
C366 H392 0.931 . S
N367 Co363 2.148 . S
N367 C364 1.301 . S
N367 C365 1.317 . S
N368 C364 1.328 . S
N368 C366 1.350 . S
H369 C364 0.930 . S
H370 C365 0.930 . S
C371 O372 1.224 . S
C371 O390 1.247 . S
O372 C371 1.224 . S
N373 Co363 2.128 . S
N373 C374 1.355 . S
N373 C376 1.311 . S
C374 N373 1.355 . S
C374 C375 1.363 . S
C374 H386 0.929 . S
C375 C374 1.363 . S
C375 N377 1.375 . S
C375 H393 0.931 . S
C376 N373 1.311 . S
C376 N377 1.347 . S
C376 H387 0.929 . S
N377 C375 1.375 . S
N377 C376 1.347 . S
C378 C381 1.365 . S
C378 N383 1.328 . S
C378 H384 0.929 . S
C379 C380 1.362 . S
C379 C382 1.378 . S
C379 H394 0.929 . S
C380 C379 1.362 . S
C380 C381 1.366 . S
C381 C378 1.365 . S
C381 C380 1.366 . S
C381 H395 0.930 . S
C382 C379 1.378 . S
C382 N383 1.315 . S
C382 H385 0.930 . S
N383 Co363 2.194 . S
N383 C378 1.328 . S
N383 C382 1.315 . S
H384 C378 0.929 . S
H385 C382 0.930 . S
H386 C374 0.929 . S
H387 C376 0.929 . S
O388 Co363 2.351 . S
O388 C391 1.244 . S
O389 Co363 2.155 . S
O389 C391 1.240 . S
O390 Co363 2.096 . S
O390 C371 1.247 . S
C391 O388 1.244 . S
C391 O389 1.240 . S
H392 C366 0.931 . S
H393 C375 0.931 . S
H394 C379 0.929 . S
H395 C381 0.930 . S
Co396 N400 2.148 . S
Co396 N406 2.128 . S
Co396 N416 2.194 . S
Co396 O421 2.351 . S
Co396 O422 2.155 . S
Co396 O423 2.096 . S
C397 N400 1.301 . S
C397 N401 1.328 . S
C397 H402 0.930 . S
C398 C399 1.333 . S
C398 N400 1.317 . S
C398 H403 0.930 . S
C399 C398 1.333 . S
C399 N401 1.350 . S
C399 H425 0.931 . S
N400 Co396 2.148 . S
N400 C397 1.301 . S
N400 C398 1.317 . S
N401 C397 1.328 . S
N401 C399 1.350 . S
H402 C397 0.930 . S
H403 C398 0.930 . S
C404 O405 1.224 . S
C404 O423 1.247 1_545 S
O405 C404 1.224 . S
N406 Co396 2.128 . S
N406 C407 1.355 . S
N406 C409 1.311 . S
C407 N406 1.355 . S
C407 C408 1.363 . S
C407 H419 0.929 . S
C408 C407 1.363 . S
C408 N410 1.375 . S
C408 H426 0.931 . S
C409 N406 1.311 . S
C409 N410 1.347 . S
C409 H420 0.929 . S
N410 C408 1.375 . S
N410 C409 1.347 . S
C411 C414 1.365 . S
C411 N416 1.328 . S
C411 H417 0.929 . S
C412 C413 1.362 . S
C412 C415 1.378 . S
C412 H427 0.929 . S
C413 C412 1.362 . S
C413 C414 1.366 1_545 S
C414 C411 1.365 . S
C414 C413 1.366 1_565 S
C414 H428 0.930 . S
C415 C412 1.378 . S
C415 N416 1.315 1_545 S
C415 H418 0.930 . S
N416 Co396 2.194 . S
N416 C411 1.328 . S
N416 C415 1.315 1_565 S
H417 C411 0.929 . S
H418 C415 0.930 . S
H419 C407 0.929 . S
H420 C409 0.929 . S
O421 Co396 2.351 . S
O421 C424 1.244 . S
O422 Co396 2.155 . S
O422 C424 1.240 . S
O423 Co396 2.096 . S
O423 C404 1.247 1_565 S
C424 O421 1.244 . S
C424 O422 1.240 . S
H425 C399 0.931 . S
H426 C408 0.931 . S
H427 C412 0.929 . S
H428 C414 0.930 . S
Co429 N433 2.148 . S
Co429 N439 2.128 . S
Co429 N449 2.194 . S
Co429 O454 2.351 . S
Co429 O455 2.155 . S
Co429 O456 2.096 . S
C430 N433 1.301 . S
C430 N434 1.328 . S
C430 H435 0.930 . S
C431 C432 1.333 . S
C431 N433 1.317 . S
C431 H436 0.930 . S
C432 C431 1.333 . S
C432 N434 1.350 . S
C432 H458 0.931 . S
N433 Co429 2.148 . S
N433 C430 1.301 . S
N433 C431 1.317 . S
N434 C430 1.328 . S
N434 C432 1.350 . S
H435 C430 0.930 . S
H436 C431 0.930 . S
C437 O438 1.224 . S
C437 O456 1.247 . S
O438 C437 1.224 . S
N439 Co429 2.128 . S
N439 C440 1.355 . S
N439 C442 1.311 . S
C440 N439 1.355 . S
C440 C441 1.363 . S
C440 H452 0.929 . S
C441 C440 1.363 . S
C441 N443 1.375 . S
C441 H459 0.931 . S
C442 N439 1.311 . S
C442 N443 1.347 . S
C442 H453 0.929 . S
N443 C441 1.375 . S
N443 C442 1.347 . S
C444 C447 1.365 . S
C444 N449 1.328 . S
C444 H450 0.929 . S
C445 C446 1.362 . S
C445 C448 1.378 . S
C445 H460 0.929 . S
C446 C445 1.362 . S
C446 C447 1.366 . S
C447 C444 1.365 . S
C447 C446 1.366 . S
C447 H461 0.930 . S
C448 C445 1.378 . S
C448 N449 1.315 . S
C448 H451 0.930 . S
N449 Co429 2.194 . S
N449 C444 1.328 . S
N449 C448 1.315 . S
H450 C444 0.929 . S
H451 C448 0.930 . S
H452 C440 0.929 . S
H453 C442 0.929 . S
O454 Co429 2.351 . S
O454 C457 1.244 . S
O455 Co429 2.155 . S
O455 C457 1.240 . S
O456 Co429 2.096 . S
O456 C437 1.247 . S
C457 O454 1.244 . S
C457 O455 1.240 . S
H458 C432 0.931 . S
H459 C441 0.931 . S
H460 C445 0.929 . S
H461 C447 0.930 . S
Co462 N466 2.148 . S
Co462 N472 2.128 . S
Co462 N482 2.194 . S
Co462 O487 2.351 . S
Co462 O488 2.155 . S
Co462 O489 2.096 . S
C463 N466 1.301 . S
C463 N467 1.328 1_556 S
C463 H468 0.930 . S
C464 C465 1.333 . S
C464 N466 1.317 1_554 S
C464 H469 0.930 . S
C465 C464 1.333 . S
C465 N467 1.350 . S
C465 H491 0.931 . S
N466 Co462 2.148 . S
N466 C463 1.301 . S
N466 C464 1.317 1_556 S
N467 C463 1.328 1_554 S
N467 C465 1.350 . S
H468 C463 0.930 . S
H469 C464 0.930 . S
C470 O471 1.224 . S
C470 O489 1.247 1_565 S
O471 C470 1.224 . S
N472 Co462 2.128 . S
N472 C473 1.355 . S
N472 C475 1.311 . S
C473 N472 1.355 . S
C473 C474 1.363 . S
C473 H485 0.929 . S
C474 C473 1.363 . S
C474 N476 1.375 . S
C474 H492 0.931 . S
C475 N472 1.311 . S
C475 N476 1.347 . S
C475 H486 0.929 . S
N476 C474 1.375 . S
N476 C475 1.347 . S
C477 C480 1.365 . S
C477 N482 1.328 . S
C477 H483 0.929 . S
C478 C479 1.362 . S
C478 C481 1.378 . S
C478 H493 0.929 . S
C479 C478 1.362 . S
C479 C480 1.366 1_565 S
C480 C477 1.365 . S
C480 C479 1.366 1_545 S
C480 H494 0.930 . S
C481 C478 1.378 . S
C481 N482 1.315 1_565 S
C481 H484 0.930 . S
N482 Co462 2.194 . S
N482 C477 1.328 . S
N482 C481 1.315 1_545 S
H483 C477 0.929 . S
H484 C481 0.930 . S
H485 C473 0.929 . S
H486 C475 0.929 . S
O487 Co462 2.351 . S
O487 C490 1.244 . S
O488 Co462 2.155 . S
O488 C490 1.240 . S
O489 Co462 2.096 . S
O489 C470 1.247 1_545 S
C490 O487 1.244 . S
C490 O488 1.240 . S
H491 C465 0.931 . S
H492 C474 0.931 . S
H493 C478 0.929 . S
H494 C480 0.930 . S
Co495 N499 2.148 . S
Co495 N505 2.128 . S
Co495 N515 2.194 . S
Co495 O520 2.351 . S
Co495 O521 2.155 . S
Co495 O522 2.096 . S
C496 N499 1.301 . S
C496 N500 1.328 . S
C496 H501 0.930 . S
C497 C498 1.333 . S
C497 N499 1.317 . S
C497 H502 0.930 . S
C498 C497 1.333 . S
C498 N500 1.350 . S
C498 H524 0.931 . S
N499 Co495 2.148 . S
N499 C496 1.301 . S
N499 C497 1.317 . S
N500 C496 1.328 . S
N500 C498 1.350 . S
H501 C496 0.930 . S
H502 C497 0.930 . S
C503 O504 1.224 . S
C503 O522 1.247 . S
O504 C503 1.224 . S
N505 Co495 2.128 . S
N505 C506 1.355 . S
N505 C508 1.311 . S
C506 N505 1.355 . S
C506 C507 1.363 . S
C506 H518 0.929 . S
C507 C506 1.363 . S
C507 N509 1.375 . S
C507 H525 0.931 . S
C508 N505 1.311 . S
C508 N509 1.347 . S
C508 H519 0.929 . S
N509 C507 1.375 . S
N509 C508 1.347 . S
C510 C513 1.365 . S
C510 N515 1.328 . S
C510 H516 0.929 . S
C511 C512 1.362 . S
C511 C514 1.378 . S
C511 H526 0.929 . S
C512 C511 1.362 . S
C512 C513 1.366 . S
C513 C510 1.365 . S
C513 C512 1.366 . S
C513 H527 0.930 . S
C514 C511 1.378 . S
C514 N515 1.315 . S
C514 H517 0.930 . S
N515 Co495 2.194 . S
N515 C510 1.328 . S
N515 C514 1.315 . S
H516 C510 0.929 . S
H517 C514 0.930 . S
H518 C506 0.929 . S
H519 C508 0.929 . S
O520 Co495 2.351 . S
O520 C523 1.244 . S
O521 Co495 2.155 . S
O521 C523 1.240 . S
O522 Co495 2.096 . S
O522 C503 1.247 . S
C523 O520 1.244 . S
C523 O521 1.240 . S
H524 C498 0.931 . S
H525 C507 0.931 . S
H526 C511 0.929 . S
H527 C513 0.930 . S
Co528 N532 2.148 . S
Co528 N538 2.128 . S
Co528 N548 2.194 . S
Co528 O553 2.351 . S
Co528 O554 2.155 . S
Co528 O555 2.096 . S
C529 N532 1.301 . S
C529 N533 1.328 1_455 S
C529 H534 0.930 . S
C530 C531 1.333 . S
C530 N532 1.317 1_655 S
C530 H535 0.930 . S
C531 C530 1.333 . S
C531 N533 1.350 . S
C531 H557 0.931 . S
N532 Co528 2.148 . S
N532 C529 1.301 . S
N532 C530 1.317 1_455 S
N533 C529 1.328 1_655 S
N533 C531 1.350 . S
H534 C529 0.930 . S
H535 C530 0.930 . S
C536 O537 1.224 . S
C536 O555 1.247 1_556 S
O537 C536 1.224 . S
N538 Co528 2.128 . S
N538 C539 1.355 . S
N538 C541 1.311 . S
C539 N538 1.355 . S
C539 C540 1.363 . S
C539 H551 0.929 . S
C540 C539 1.363 . S
C540 N542 1.375 . S
C540 H558 0.931 . S
C541 N538 1.311 . S
C541 N542 1.347 . S
C541 H552 0.929 . S
N542 C540 1.375 . S
N542 C541 1.347 . S
C543 C546 1.365 . S
C543 N548 1.328 . S
C543 H549 0.929 . S
C544 C545 1.362 . S
C544 C547 1.378 . S
C544 H559 0.929 . S
C545 C544 1.362 . S
C545 C546 1.366 1_556 S
C546 C543 1.365 . S
C546 C545 1.366 1_554 S
C546 H560 0.930 . S
C547 C544 1.378 . S
C547 N548 1.315 1_556 S
C547 H550 0.930 . S
N548 Co528 2.194 . S
N548 C543 1.328 . S
N548 C547 1.315 1_554 S
H549 C543 0.929 . S
H550 C547 0.930 . S
H551 C539 0.929 . S
H552 C541 0.929 . S
O553 Co528 2.351 . S
O553 C556 1.244 . S
O554 Co528 2.155 . S
O554 C556 1.240 . S
O555 Co528 2.096 . S
O555 C536 1.247 1_554 S
C556 O553 1.244 . S
C556 O554 1.240 . S
H557 C531 0.931 . S
H558 C540 0.931 . S
H559 C544 0.929 . S
H560 C546 0.930 . S
Co561 N565 2.148 . S
Co561 N571 2.128 . S
Co561 N581 2.194 . S
Co561 O586 2.351 . S
Co561 O587 2.155 . S
Co561 O588 2.096 . S
C562 N565 1.301 . S
C562 N566 1.328 . S
C562 H567 0.930 . S
C563 C564 1.333 . S
C563 N565 1.317 . S
C563 H568 0.930 . S
C564 C563 1.333 . S
C564 N566 1.350 . S
C564 H590 0.931 . S
N565 Co561 2.148 . S
N565 C562 1.301 . S
N565 C563 1.317 . S
N566 C562 1.328 . S
N566 C564 1.350 . S
H567 C562 0.930 . S
H568 C563 0.930 . S
C569 O570 1.224 . S
C569 O588 1.247 1_554 S
O570 C569 1.224 . S
N571 Co561 2.128 . S
N571 C572 1.355 . S
N571 C574 1.311 . S
C572 N571 1.355 . S
C572 C573 1.363 . S
C572 H584 0.929 . S
C573 C572 1.363 . S
C573 N575 1.375 . S
C573 H591 0.931 . S
C574 N571 1.311 . S
C574 N575 1.347 . S
C574 H585 0.929 . S
N575 C573 1.375 . S
N575 C574 1.347 . S
C576 C579 1.365 . S
C576 N581 1.328 . S
C576 H582 0.929 . S
C577 C578 1.362 . S
C577 C580 1.378 . S
C577 H592 0.929 . S
C578 C577 1.362 . S
C578 C579 1.366 1_554 S
C579 C576 1.365 . S
C579 C578 1.366 1_556 S
C579 H593 0.930 . S
C580 C577 1.378 . S
C580 N581 1.315 1_554 S
C580 H583 0.930 . S
N581 Co561 2.194 . S
N581 C576 1.328 . S
N581 C580 1.315 1_556 S
H582 C576 0.929 . S
H583 C580 0.930 . S
H584 C572 0.929 . S
H585 C574 0.929 . S
O586 Co561 2.351 . S
O586 C589 1.244 . S
O587 Co561 2.155 . S
O587 C589 1.240 . S
O588 Co561 2.096 . S
O588 C569 1.247 1_556 S
C589 O586 1.244 . S
C589 O587 1.240 . S
H590 C564 0.931 . S
H591 C573 0.931 . S
H592 C577 0.929 . S
H593 C579 0.930 . S
Co594 N598 2.148 . S
Co594 N604 2.128 . S
Co594 N614 2.194 . S
Co594 O619 2.351 . S
Co594 O620 2.155 . S
Co594 O621 2.096 . S
C595 N598 1.301 . S
C595 N599 1.328 . S
C595 H600 0.930 . S
C596 C597 1.333 . S
C596 N598 1.317 . S
C596 H601 0.930 . S
C597 C596 1.333 . S
C597 N599 1.350 . S
C597 H623 0.931 . S
N598 Co594 2.148 . S
N598 C595 1.301 . S
N598 C596 1.317 . S
N599 C595 1.328 . S
N599 C597 1.350 . S
H600 C595 0.930 . S
H601 C596 0.930 . S
C602 O603 1.224 . S
C602 O621 1.247 . S
O603 C602 1.224 . S
N604 Co594 2.128 . S
N604 C605 1.355 . S
N604 C607 1.311 . S
C605 N604 1.355 . S
C605 C606 1.363 . S
C605 H617 0.929 . S
C606 C605 1.363 . S
C606 N608 1.375 . S
C606 H624 0.931 . S
C607 N604 1.311 . S
C607 N608 1.347 . S
C607 H618 0.929 . S
N608 C606 1.375 . S
N608 C607 1.347 . S
C609 C612 1.365 . S
C609 N614 1.328 . S
C609 H615 0.929 . S
C610 C611 1.362 . S
C610 C613 1.378 . S
C610 H625 0.929 . S
C611 C610 1.362 . S
C611 C612 1.366 . S
C612 C609 1.365 . S
C612 C611 1.366 . S
C612 H626 0.930 . S
C613 C610 1.378 . S
C613 N614 1.315 . S
C613 H616 0.930 . S
N614 Co594 2.194 . S
N614 C609 1.328 . S
N614 C613 1.315 . S
H615 C609 0.929 . S
H616 C613 0.930 . S
H617 C605 0.929 . S
H618 C607 0.929 . S
O619 Co594 2.351 . S
O619 C622 1.244 . S
O620 Co594 2.155 . S
O620 C622 1.240 . S
O621 Co594 2.096 . S
O621 C602 1.247 . S
C622 O619 1.244 . S
C622 O620 1.240 . S
H623 C597 0.931 . S
H624 C606 0.931 . S
H625 C610 0.929 . S
H626 C612 0.930 . S
Co627 N631 2.148 . S
Co627 N637 2.128 . S
Co627 N647 2.194 . S
Co627 O652 2.351 . S
Co627 O653 2.155 . S
Co627 O654 2.096 . S
C628 N631 1.301 . S
C628 N632 1.328 1_655 S
C628 H633 0.930 . S
C629 C630 1.333 . S
C629 N631 1.317 1_455 S
C629 H634 0.930 . S
C630 C629 1.333 . S
C630 N632 1.350 . S
C630 H656 0.931 . S
N631 Co627 2.148 . S
N631 C628 1.301 . S
N631 C629 1.317 1_655 S
N632 C628 1.328 1_455 S
N632 C630 1.350 . S
H633 C628 0.930 . S
H634 C629 0.930 . S
C635 O636 1.224 . S
C635 O654 1.247 . S
O636 C635 1.224 . S
N637 Co627 2.128 . S
N637 C638 1.355 . S
N637 C640 1.311 . S
C638 N637 1.355 . S
C638 C639 1.363 . S
C638 H650 0.929 . S
C639 C638 1.363 . S
C639 N641 1.375 . S
C639 H657 0.931 . S
C640 N637 1.311 . S
C640 N641 1.347 . S
C640 H651 0.929 . S
N641 C639 1.375 . S
N641 C640 1.347 . S
C642 C645 1.365 . S
C642 N647 1.328 . S
C642 H648 0.929 . S
C643 C644 1.362 . S
C643 C646 1.378 . S
C643 H658 0.929 . S
C644 C643 1.362 . S
C644 C645 1.366 . S
C645 C642 1.365 . S
C645 C644 1.366 . S
C645 H659 0.930 . S
C646 C643 1.378 . S
C646 N647 1.315 . S
C646 H649 0.930 . S
N647 Co627 2.194 . S
N647 C642 1.328 . S
N647 C646 1.315 . S
H648 C642 0.929 . S
H649 C646 0.930 . S
H650 C638 0.929 . S
H651 C640 0.929 . S
O652 Co627 2.351 . S
O652 C655 1.244 . S
O653 Co627 2.155 . S
O653 C655 1.240 . S
O654 Co627 2.096 . S
O654 C635 1.247 . S
C655 O652 1.244 . S
C655 O653 1.240 . S
H656 C630 0.931 . S
H657 C639 0.931 . S
H658 C643 0.929 . S
H659 C645 0.930 . S
Co660 N664 2.148 . S
Co660 N670 2.128 . S
Co660 N680 2.194 . S
Co660 O685 2.351 . S
Co660 O686 2.155 . S
Co660 O687 2.096 . S
C661 N664 1.301 . S
C661 N665 1.328 . S
C661 H666 0.930 . S
C662 C663 1.333 . S
C662 N664 1.317 . S
C662 H667 0.930 . S
C663 C662 1.333 . S
C663 N665 1.350 . S
C663 H689 0.931 . S
N664 Co660 2.148 . S
N664 C661 1.301 . S
N664 C662 1.317 . S
N665 C661 1.328 . S
N665 C663 1.350 . S
H666 C661 0.930 . S
H667 C662 0.930 . S
C668 O669 1.224 . S
C668 O687 1.247 . S
O669 C668 1.224 . S
N670 Co660 2.128 . S
N670 C671 1.355 . S
N670 C673 1.311 . S
C671 N670 1.355 . S
C671 C672 1.363 . S
C671 H683 0.929 . S
C672 C671 1.363 . S
C672 N674 1.375 . S
C672 H690 0.931 . S
C673 N670 1.311 . S
C673 N674 1.347 . S
C673 H684 0.929 . S
N674 C672 1.375 . S
N674 C673 1.347 . S
C675 C678 1.365 . S
C675 N680 1.328 . S
C675 H681 0.929 . S
C676 C677 1.362 . S
C676 C679 1.378 . S
C676 H691 0.929 . S
C677 C676 1.362 . S
C677 C678 1.366 . S
C678 C675 1.365 . S
C678 C677 1.366 . S
C678 H692 0.930 . S
C679 C676 1.378 . S
C679 N680 1.315 . S
C679 H682 0.930 . S
N680 Co660 2.194 . S
N680 C675 1.328 . S
N680 C679 1.315 . S
H681 C675 0.929 . S
H682 C679 0.930 . S
H683 C671 0.929 . S
H684 C673 0.929 . S
O685 Co660 2.351 . S
O685 C688 1.244 . S
O686 Co660 2.155 . S
O686 C688 1.240 . S
O687 Co660 2.096 . S
O687 C668 1.247 . S
C688 O685 1.244 . S
C688 O686 1.240 . S
H689 C663 0.931 . S
H690 C672 0.931 . S
H691 C676 0.929 . S
H692 C678 0.930 . S
Co693 N697 2.148 . S
Co693 N703 2.128 . S
Co693 N713 2.194 . S
Co693 O718 2.351 . S
Co693 O719 2.155 . S
Co693 O720 2.096 . S
C694 N697 1.301 . S
C694 N698 1.328 . S
C694 H699 0.930 . S
C695 C696 1.333 . S
C695 N697 1.317 . S
C695 H700 0.930 . S
C696 C695 1.333 . S
C696 N698 1.350 . S
C696 H722 0.931 . S
N697 Co693 2.148 . S
N697 C694 1.301 . S
N697 C695 1.317 . S
N698 C694 1.328 . S
N698 C696 1.350 . S
H699 C694 0.930 . S
H700 C695 0.930 . S
C701 O702 1.224 . S
C701 O720 1.247 . S
O702 C701 1.224 . S
N703 Co693 2.128 . S
N703 C704 1.355 . S
N703 C706 1.311 . S
C704 N703 1.355 . S
C704 C705 1.363 . S
C704 H716 0.929 . S
C705 C704 1.363 . S
C705 N707 1.375 . S
C705 H723 0.931 . S
C706 N703 1.311 . S
C706 N707 1.347 . S
C706 H717 0.929 . S
N707 C705 1.375 . S
N707 C706 1.347 . S
C708 C711 1.365 . S
C708 N713 1.328 . S
C708 H714 0.929 . S
C709 C710 1.362 . S
C709 C712 1.378 . S
C709 H724 0.929 . S
C710 C709 1.362 . S
C710 C711 1.366 . S
C711 C708 1.365 . S
C711 C710 1.366 . S
C711 H725 0.930 . S
C712 C709 1.378 . S
C712 N713 1.315 . S
C712 H715 0.930 . S
N713 Co693 2.194 . S
N713 C708 1.328 . S
N713 C712 1.315 . S
H714 C708 0.929 . S
H715 C712 0.930 . S
H716 C704 0.929 . S
H717 C706 0.929 . S
O718 Co693 2.351 . S
O718 C721 1.244 . S
O719 Co693 2.155 . S
O719 C721 1.240 . S
O720 Co693 2.096 . S
O720 C701 1.247 . S
C721 O718 1.244 . S
C721 O719 1.240 . S
H722 C696 0.931 . S
H723 C705 0.931 . S
H724 C709 0.929 . S
H725 C711 0.930 . S
Co726 N730 2.148 . S
Co726 N736 2.128 . S
Co726 N746 2.194 . S
Co726 O751 2.351 . S
Co726 O752 2.155 . S
Co726 O753 2.096 . S
C727 N730 1.301 . S
C727 N731 1.328 . S
C727 H732 0.930 . S
C728 C729 1.333 . S
C728 N730 1.317 . S
C728 H733 0.930 . S
C729 C728 1.333 . S
C729 N731 1.350 . S
C729 H755 0.931 . S
N730 Co726 2.148 . S
N730 C727 1.301 . S
N730 C728 1.317 . S
N731 C727 1.328 . S
N731 C729 1.350 . S
H732 C727 0.930 . S
H733 C728 0.930 . S
C734 O735 1.224 . S
C734 O753 1.247 . S
O735 C734 1.224 . S
N736 Co726 2.128 . S
N736 C737 1.355 . S
N736 C739 1.311 . S
C737 N736 1.355 . S
C737 C738 1.363 . S
C737 H749 0.929 . S
C738 C737 1.363 . S
C738 N740 1.375 . S
C738 H756 0.931 . S
C739 N736 1.311 . S
C739 N740 1.347 . S
C739 H750 0.929 . S
N740 C738 1.375 . S
N740 C739 1.347 . S
C741 C744 1.365 . S
C741 N746 1.328 . S
C741 H747 0.929 . S
C742 C743 1.362 . S
C742 C745 1.378 . S
C742 H757 0.929 . S
C743 C742 1.362 . S
C743 C744 1.366 . S
C744 C741 1.365 . S
C744 C743 1.366 . S
C744 H758 0.930 . S
C745 C742 1.378 . S
C745 N746 1.315 . S
C745 H748 0.930 . S
N746 Co726 2.194 . S
N746 C741 1.328 . S
N746 C745 1.315 . S
H747 C741 0.929 . S
H748 C745 0.930 . S
H749 C737 0.929 . S
H750 C739 0.929 . S
O751 Co726 2.351 . S
O751 C754 1.244 . S
O752 Co726 2.155 . S
O752 C754 1.240 . S
O753 Co726 2.096 . S
O753 C734 1.247 . S
C754 O751 1.244 . S
C754 O752 1.240 . S
H755 C729 0.931 . S
H756 C738 0.931 . S
H757 C742 0.929 . S
H758 C744 0.930 . S
Co759 N763 2.148 . S
Co759 N769 2.128 . S
Co759 N779 2.194 . S
Co759 O784 2.351 . S
Co759 O785 2.155 . S
Co759 O786 2.096 . S
C760 N763 1.301 . S
C760 N764 1.328 . S
C760 H765 0.930 . S
C761 C762 1.333 . S
C761 N763 1.317 . S
C761 H766 0.930 . S
C762 C761 1.333 . S
C762 N764 1.350 . S
C762 H788 0.931 . S
N763 Co759 2.148 . S
N763 C760 1.301 . S
N763 C761 1.317 . S
N764 C760 1.328 . S
N764 C762 1.350 . S
H765 C760 0.930 . S
H766 C761 0.930 . S
C767 O768 1.224 . S
C767 O786 1.247 . S
O768 C767 1.224 . S
N769 Co759 2.128 . S
N769 C770 1.355 . S
N769 C772 1.311 . S
C770 N769 1.355 . S
C770 C771 1.363 . S
C770 H782 0.929 . S
C771 C770 1.363 . S
C771 N773 1.375 . S
C771 H789 0.931 . S
C772 N769 1.311 . S
C772 N773 1.347 . S
C772 H783 0.929 . S
N773 C771 1.375 . S
N773 C772 1.347 . S
C774 C777 1.365 . S
C774 N779 1.328 . S
C774 H780 0.929 . S
C775 C776 1.362 . S
C775 C778 1.378 . S
C775 H790 0.929 . S
C776 C775 1.362 . S
C776 C777 1.366 . S
C777 C774 1.365 . S
C777 C776 1.366 . S
C777 H791 0.930 . S
C778 C775 1.378 . S
C778 N779 1.315 . S
C778 H781 0.930 . S
N779 Co759 2.194 . S
N779 C774 1.328 . S
N779 C778 1.315 . S
H780 C774 0.929 . S
H781 C778 0.930 . S
H782 C770 0.929 . S
H783 C772 0.929 . S
O784 Co759 2.351 . S
O784 C787 1.244 . S
O785 Co759 2.155 . S
O785 C787 1.240 . S
O786 Co759 2.096 . S
O786 C767 1.247 . S
C787 O784 1.244 . S
C787 O785 1.240 . S
H788 C762 0.931 . S
H789 C771 0.931 . S
H790 C775 0.929 . S
H791 C777 0.930 . S
Co792 N796 2.148 . S
Co792 N802 2.128 . S
Co792 N812 2.194 . S
Co792 O817 2.351 . S
Co792 O818 2.155 . S
Co792 O819 2.096 . S
C793 N796 1.301 . S
C793 N797 1.328 1_565 S
C793 H798 0.930 . S
C794 C795 1.333 . S
C794 N796 1.317 1_545 S
C794 H799 0.930 . S
C795 C794 1.333 . S
C795 N797 1.350 . S
C795 H821 0.931 . S
N796 Co792 2.148 . S
N796 C793 1.301 . S
N796 C794 1.317 1_565 S
N797 C793 1.328 1_545 S
N797 C795 1.350 . S
H798 C793 0.930 . S
H799 C794 0.930 . S
C800 O801 1.224 . S
C800 O819 1.247 1_455 S
O801 C800 1.224 . S
N802 Co792 2.128 . S
N802 C803 1.355 . S
N802 C805 1.311 . S
C803 N802 1.355 . S
C803 C804 1.363 . S
C803 H815 0.929 . S
C804 C803 1.363 . S
C804 N806 1.375 . S
C804 H822 0.931 . S
C805 N802 1.311 . S
C805 N806 1.347 . S
C805 H816 0.929 . S
N806 C804 1.375 . S
N806 C805 1.347 . S
C807 C810 1.365 . S
C807 N812 1.328 . S
C807 H813 0.929 . S
C808 C809 1.362 . S
C808 C811 1.378 . S
C808 H823 0.929 . S
C809 C808 1.362 . S
C809 C810 1.366 1_455 S
C810 C807 1.365 . S
C810 C809 1.366 1_655 S
C810 H824 0.930 . S
C811 C808 1.378 . S
C811 N812 1.315 1_455 S
C811 H814 0.930 . S
N812 Co792 2.194 . S
N812 C807 1.328 . S
N812 C811 1.315 1_655 S
H813 C807 0.929 . S
H814 C811 0.930 . S
H815 C803 0.929 . S
H816 C805 0.929 . S
O817 Co792 2.351 . S
O817 C820 1.244 . S
O818 Co792 2.155 . S
O818 C820 1.240 . S
O819 Co792 2.096 . S
O819 C800 1.247 1_655 S
C820 O817 1.244 . S
C820 O818 1.240 . S
H821 C795 0.931 . S
H822 C804 0.931 . S
H823 C808 0.929 . S
H824 C810 0.930 . S
Co825 N829 2.148 . S
Co825 N835 2.128 . S
Co825 N845 2.194 . S
Co825 O850 2.351 . S
Co825 O851 2.155 . S
Co825 O852 2.096 . S
C826 N829 1.301 . S
C826 N830 1.328 . S
C826 H831 0.930 . S
C827 C828 1.333 . S
C827 N829 1.317 . S
C827 H832 0.930 . S
C828 C827 1.333 . S
C828 N830 1.350 . S
C828 H854 0.931 . S
N829 Co825 2.148 . S
N829 C826 1.301 . S
N829 C827 1.317 . S
N830 C826 1.328 . S
N830 C828 1.350 . S
H831 C826 0.930 . S
H832 C827 0.930 . S
C833 O834 1.224 . S
C833 O852 1.247 . S
O834 C833 1.224 . S
N835 Co825 2.128 . S
N835 C836 1.355 . S
N835 C838 1.311 . S
C836 N835 1.355 . S
C836 C837 1.363 . S
C836 H848 0.929 . S
C837 C836 1.363 . S
C837 N839 1.375 . S
C837 H855 0.931 . S
C838 N835 1.311 . S
C838 N839 1.347 . S
C838 H849 0.929 . S
N839 C837 1.375 . S
N839 C838 1.347 . S
C840 C843 1.365 . S
C840 N845 1.328 . S
C840 H846 0.929 . S
C841 C842 1.362 . S
C841 C844 1.378 . S
C841 H856 0.929 . S
C842 C841 1.362 . S
C842 C843 1.366 . S
C843 C840 1.365 . S
C843 C842 1.366 . S
C843 H857 0.930 . S
C844 C841 1.378 . S
C844 N845 1.315 . S
C844 H847 0.930 . S
N845 Co825 2.194 . S
N845 C840 1.328 . S
N845 C844 1.315 . S
H846 C840 0.929 . S
H847 C844 0.930 . S
H848 C836 0.929 . S
H849 C838 0.929 . S
O850 Co825 2.351 . S
O850 C853 1.244 . S
O851 Co825 2.155 . S
O851 C853 1.240 . S
O852 Co825 2.096 . S
O852 C833 1.247 . S
C853 O850 1.244 . S
C853 O851 1.240 . S
H854 C828 0.931 . S
H855 C837 0.931 . S
H856 C841 0.929 . S
H857 C843 0.930 . S
Co858 N862 2.148 . S
Co858 N868 2.128 . S
Co858 N878 2.194 . S
Co858 O883 2.351 . S
Co858 O884 2.155 . S
Co858 O885 2.096 . S
C859 N862 1.301 . S
C859 N863 1.328 1_545 S
C859 H864 0.930 . S
C860 C861 1.333 . S
C860 N862 1.317 1_565 S
C860 H865 0.930 . S
C861 C860 1.333 . S
C861 N863 1.350 . S
C861 H887 0.931 . S
N862 Co858 2.148 . S
N862 C859 1.301 . S
N862 C860 1.317 1_545 S
N863 C859 1.328 1_565 S
N863 C861 1.350 . S
H864 C859 0.930 . S
H865 C860 0.930 . S
C866 O867 1.224 . S
C866 O885 1.247 . S
O867 C866 1.224 . S
N868 Co858 2.128 . S
N868 C869 1.355 . S
N868 C871 1.311 . S
C869 N868 1.355 . S
C869 C870 1.363 . S
C869 H881 0.929 . S
C870 C869 1.363 . S
C870 N872 1.375 . S
C870 H888 0.931 . S
C871 N868 1.311 . S
C871 N872 1.347 . S
C871 H882 0.929 . S
N872 C870 1.375 . S
N872 C871 1.347 . S
C873 C876 1.365 . S
C873 N878 1.328 . S
C873 H879 0.929 . S
C874 C875 1.362 . S
C874 C877 1.378 . S
C874 H889 0.929 . S
C875 C874 1.362 . S
C875 C876 1.366 . S
C876 C873 1.365 . S
C876 C875 1.366 . S
C876 H890 0.930 . S
C877 C874 1.378 . S
C877 N878 1.315 . S
C877 H880 0.930 . S
N878 Co858 2.194 . S
N878 C873 1.328 . S
N878 C877 1.315 . S
H879 C873 0.929 . S
H880 C877 0.930 . S
H881 C869 0.929 . S
H882 C871 0.929 . S
O883 Co858 2.351 . S
O883 C886 1.244 . S
O884 Co858 2.155 . S
O884 C886 1.240 . S
O885 Co858 2.096 . S
O885 C866 1.247 . S
C886 O883 1.244 . S
C886 O884 1.240 . S
H887 C861 0.931 . S
H888 C870 0.931 . S
H889 C874 0.929 . S
H890 C876 0.930 . S
Co891 N895 2.148 . S
Co891 N901 2.128 . S
Co891 N911 2.194 . S
Co891 O916 2.351 . S
Co891 O917 2.155 . S
Co891 O918 2.096 . S
C892 N895 1.301 . S
C892 N896 1.328 . S
C892 H897 0.930 . S
C893 C894 1.333 . S
C893 N895 1.317 . S
C893 H898 0.930 . S
C894 C893 1.333 . S
C894 N896 1.350 . S
C894 H920 0.931 . S
N895 Co891 2.148 . S
N895 C892 1.301 . S
N895 C893 1.317 . S
N896 C892 1.328 . S
N896 C894 1.350 . S
H897 C892 0.930 . S
H898 C893 0.930 . S
C899 O900 1.224 . S
C899 O918 1.247 . S
O900 C899 1.224 . S
N901 Co891 2.128 . S
N901 C902 1.355 . S
N901 C904 1.311 . S
C902 N901 1.355 . S
C902 C903 1.363 . S
C902 H914 0.929 . S
C903 C902 1.363 . S
C903 N905 1.375 . S
C903 H921 0.931 . S
C904 N901 1.311 . S
C904 N905 1.347 . S
C904 H915 0.929 . S
N905 C903 1.375 . S
N905 C904 1.347 . S
C906 C909 1.365 . S
C906 N911 1.328 . S
C906 H912 0.929 . S
C907 C908 1.362 . S
C907 C910 1.378 . S
C907 H922 0.929 . S
C908 C907 1.362 . S
C908 C909 1.366 . S
C909 C906 1.365 . S
C909 C908 1.366 . S
C909 H923 0.930 . S
C910 C907 1.378 . S
C910 N911 1.315 . S
C910 H913 0.930 . S
N911 Co891 2.194 . S
N911 C906 1.328 . S
N911 C910 1.315 . S
H912 C906 0.929 . S
H913 C910 0.930 . S
H914 C902 0.929 . S
H915 C904 0.929 . S
O916 Co891 2.351 . S
O916 C919 1.244 . S
O917 Co891 2.155 . S
O917 C919 1.240 . S
O918 Co891 2.096 . S
O918 C899 1.247 . S
C919 O916 1.244 . S
C919 O917 1.240 . S
H920 C894 0.931 . S
H921 C903 0.931 . S
H922 C907 0.929 . S
H923 C909 0.930 . S
Co924 N928 2.148 . S
Co924 N934 2.128 . S
Co924 N944 2.194 . S
Co924 O949 2.351 . S
Co924 O950 2.155 . S
Co924 O951 2.096 . S
C925 N928 1.301 . S
C925 N929 1.328 1_545 S
C925 H930 0.930 . S
C926 C927 1.333 . S
C926 N928 1.317 1_565 S
C926 H931 0.930 . S
C927 C926 1.333 . S
C927 N929 1.350 . S
C927 H953 0.931 . S
N928 Co924 2.148 . S
N928 C925 1.301 . S
N928 C926 1.317 1_545 S
N929 C925 1.328 1_565 S
N929 C927 1.350 . S
H930 C925 0.930 . S
H931 C926 0.930 . S
C932 O933 1.224 . S
C932 O951 1.247 1_455 S
O933 C932 1.224 . S
N934 Co924 2.128 . S
N934 C935 1.355 . S
N934 C937 1.311 . S
C935 N934 1.355 . S
C935 C936 1.363 . S
C935 H947 0.929 . S
C936 C935 1.363 . S
C936 N938 1.375 . S
C936 H954 0.931 . S
C937 N934 1.311 . S
C937 N938 1.347 . S
C937 H948 0.929 . S
N938 C936 1.375 . S
N938 C937 1.347 . S
C939 C942 1.365 . S
C939 N944 1.328 . S
C939 H945 0.929 . S
C940 C941 1.362 . S
C940 C943 1.378 . S
C940 H955 0.929 . S
C941 C940 1.362 . S
C941 C942 1.366 1_455 S
C942 C939 1.365 . S
C942 C941 1.366 1_655 S
C942 H956 0.930 . S
C943 C940 1.378 . S
C943 N944 1.315 1_455 S
C943 H946 0.930 . S
N944 Co924 2.194 . S
N944 C939 1.328 . S
N944 C943 1.315 1_655 S
H945 C939 0.929 . S
H946 C943 0.930 . S
H947 C935 0.929 . S
H948 C937 0.929 . S
O949 Co924 2.351 . S
O949 C952 1.244 . S
O950 Co924 2.155 . S
O950 C952 1.240 . S
O951 Co924 2.096 . S
O951 C932 1.247 1_655 S
C952 O949 1.244 . S
C952 O950 1.240 . S
H953 C927 0.931 . S
H954 C936 0.931 . S
H955 C940 0.929 . S
H956 C942 0.930 . S
Co957 N961 2.148 . S
Co957 N967 2.128 . S
Co957 N977 2.194 . S
Co957 O982 2.351 . S
Co957 O983 2.155 . S
Co957 O984 2.096 . S
C958 N961 1.301 . S
C958 N962 1.328 . S
C958 H963 0.930 . S
C959 C960 1.333 . S
C959 N961 1.317 . S
C959 H964 0.930 . S
C960 C959 1.333 . S
C960 N962 1.350 . S
C960 H986 0.931 . S
N961 Co957 2.148 . S
N961 C958 1.301 . S
N961 C959 1.317 . S
N962 C958 1.328 . S
N962 C960 1.350 . S
H963 C958 0.930 . S
H964 C959 0.930 . S
C965 O966 1.224 . S
C965 O984 1.247 . S
O966 C965 1.224 . S
N967 Co957 2.128 . S
N967 C968 1.355 . S
N967 C970 1.311 . S
C968 N967 1.355 . S
C968 C969 1.363 . S
C968 H980 0.929 . S
C969 C968 1.363 . S
C969 N971 1.375 . S
C969 H987 0.931 . S
C970 N967 1.311 . S
C970 N971 1.347 . S
C970 H981 0.929 . S
N971 C969 1.375 . S
N971 C970 1.347 . S
C972 C975 1.365 . S
C972 N977 1.328 . S
C972 H978 0.929 . S
C973 C974 1.362 . S
C973 C976 1.378 . S
C973 H988 0.929 . S
C974 C973 1.362 . S
C974 C975 1.366 . S
C975 C972 1.365 . S
C975 C974 1.366 . S
C975 H989 0.930 . S
C976 C973 1.378 . S
C976 N977 1.315 . S
C976 H979 0.930 . S
N977 Co957 2.194 . S
N977 C972 1.328 . S
N977 C976 1.315 . S
H978 C972 0.929 . S
H979 C976 0.930 . S
H980 C968 0.929 . S
H981 C970 0.929 . S
O982 Co957 2.351 . S
O982 C985 1.244 . S
O983 Co957 2.155 . S
O983 C985 1.240 . S
O984 Co957 2.096 . S
O984 C965 1.247 . S
C985 O982 1.244 . S
C985 O983 1.240 . S
H986 C960 0.931 . S
H987 C969 0.931 . S
H988 C973 0.929 . S
H989 C975 0.930 . S
Co990 N994 2.148 . S
Co990 N1000 2.128 . S
Co990 N1010 2.194 . S
Co990 O1015 2.351 . S
Co990 O1016 2.155 . S
Co990 O1017 2.096 . S
C991 N994 1.301 . S
C991 N995 1.328 1_565 S
C991 H996 0.930 . S
C992 C993 1.333 . S
C992 N994 1.317 1_545 S
C992 H997 0.930 . S
C993 C992 1.333 . S
C993 N995 1.350 . S
C993 H1019 0.931 . S
N994 Co990 2.148 . S
N994 C991 1.301 . S
N994 C992 1.317 1_565 S
N995 C991 1.328 1_545 S
N995 C993 1.350 . S
H996 C991 0.930 . S
H997 C992 0.930 . S
C998 O999 1.224 . S
C998 O1017 1.247 . S
O999 C998 1.224 . S
N1000 Co990 2.128 . S
N1000 C1001 1.355 . S
N1000 C1003 1.311 . S
C1001 N1000 1.355 . S
C1001 C1002 1.363 . S
C1001 H1013 0.929 . S
C1002 C1001 1.363 . S
C1002 N1004 1.375 . S
C1002 H1020 0.931 . S
C1003 N1000 1.311 . S
C1003 N1004 1.347 . S
C1003 H1014 0.929 . S
N1004 C1002 1.375 . S
N1004 C1003 1.347 . S
C1005 C1008 1.365 . S
C1005 N1010 1.328 . S
C1005 H1011 0.929 . S
C1006 C1007 1.362 . S
C1006 C1009 1.378 . S
C1006 H1021 0.929 . S
C1007 C1006 1.362 . S
C1007 C1008 1.366 . S
C1008 C1005 1.365 . S
C1008 C1007 1.366 . S
C1008 H1022 0.930 . S
C1009 C1006 1.378 . S
C1009 N1010 1.315 . S
C1009 H1012 0.930 . S
N1010 Co990 2.194 . S
N1010 C1005 1.328 . S
N1010 C1009 1.315 . S
H1011 C1005 0.929 . S
H1012 C1009 0.930 . S
H1013 C1001 0.929 . S
H1014 C1003 0.929 . S
O1015 Co990 2.351 . S
O1015 C1018 1.244 . S
O1016 Co990 2.155 . S
O1016 C1018 1.240 . S
O1017 Co990 2.096 . S
O1017 C998 1.247 . S
C1018 O1015 1.244 . S
C1018 O1016 1.240 . S
H1019 C993 0.931 . S
H1020 C1002 0.931 . S
H1021 C1006 0.929 . S
H1022 C1008 0.930 . S
Co1023 N1027 2.148 . S
Co1023 N1033 2.128 . S
Co1023 N1043 2.194 . S
Co1023 O1048 2.351 . S
Co1023 O1049 2.155 . S
Co1023 O1050 2.096 . S
C1024 N1027 1.301 . S
C1024 N1028 1.328 . S
C1024 H1029 0.930 . S
C1025 C1026 1.333 . S
C1025 N1027 1.317 . S
C1025 H1030 0.930 . S
C1026 C1025 1.333 . S
C1026 N1028 1.350 . S
C1026 H1052 0.931 . S
N1027 Co1023 2.148 . S
N1027 C1024 1.301 . S
N1027 C1025 1.317 . S
N1028 C1024 1.328 . S
N1028 C1026 1.350 . S
H1029 C1024 0.930 . S
H1030 C1025 0.930 . S
C1031 O1032 1.224 . S
C1031 O1050 1.247 . S
O1032 C1031 1.224 . S
N1033 Co1023 2.128 . S
N1033 C1034 1.355 . S
N1033 C1036 1.311 . S
C1034 N1033 1.355 . S
C1034 C1035 1.363 . S
C1034 H1046 0.929 . S
C1035 C1034 1.363 . S
C1035 N1037 1.375 . S
C1035 H1053 0.931 . S
C1036 N1033 1.311 . S
C1036 N1037 1.347 . S
C1036 H1047 0.929 . S
N1037 C1035 1.375 . S
N1037 C1036 1.347 . S
C1038 C1041 1.365 . S
C1038 N1043 1.328 . S
C1038 H1044 0.929 . S
C1039 C1040 1.362 . S
C1039 C1042 1.378 . S
C1039 H1054 0.929 . S
C1040 C1039 1.362 . S
C1040 C1041 1.366 . S
C1041 C1038 1.365 . S
C1041 C1040 1.366 . S
C1041 H1055 0.930 . S
C1042 C1039 1.378 . S
C1042 N1043 1.315 . S
C1042 H1045 0.930 . S
N1043 Co1023 2.194 . S
N1043 C1038 1.328 . S
N1043 C1042 1.315 . S
H1044 C1038 0.929 . S
H1045 C1042 0.930 . S
H1046 C1034 0.929 . S
H1047 C1036 0.929 . S
O1048 Co1023 2.351 . S
O1048 C1051 1.244 . S
O1049 Co1023 2.155 . S
O1049 C1051 1.240 . S
O1050 Co1023 2.096 . S
O1050 C1031 1.247 . S
C1051 O1048 1.244 . S
C1051 O1049 1.240 . S
H1052 C1026 0.931 . S
H1053 C1035 0.931 . S
H1054 C1039 0.929 . S
H1055 C1041 0.930 . S
Co1056 N1060 2.148 . S
Co1056 N1066 2.128 . S
Co1056 N1076 2.194 . S
Co1056 O1081 2.351 . S
Co1056 O1082 2.155 . S
Co1056 O1083 2.096 . S
C1057 N1060 1.301 . S
C1057 N1061 1.328 1_556 S
C1057 H1062 0.930 . S
C1058 C1059 1.333 . S
C1058 N1060 1.317 1_554 S
C1058 H1063 0.930 . S
C1059 C1058 1.333 . S
C1059 N1061 1.350 . S
C1059 H1085 0.931 . S
N1060 Co1056 2.148 . S
N1060 C1057 1.301 . S
N1060 C1058 1.317 1_556 S
N1061 C1057 1.328 1_554 S
N1061 C1059 1.350 . S
H1062 C1057 0.930 . S
H1063 C1058 0.930 . S
C1064 O1065 1.224 . S
C1064 O1083 1.247 1_545 S
O1065 C1064 1.224 . S
N1066 Co1056 2.128 . S
N1066 C1067 1.355 . S
N1066 C1069 1.311 . S
C1067 N1066 1.355 . S
C1067 C1068 1.363 . S
C1067 H1079 0.929 . S
C1068 C1067 1.363 . S
C1068 N1070 1.375 . S
C1068 H1086 0.931 . S
C1069 N1066 1.311 . S
C1069 N1070 1.347 . S
C1069 H1080 0.929 . S
N1070 C1068 1.375 . S
N1070 C1069 1.347 . S
C1071 C1074 1.365 . S
C1071 N1076 1.328 . S
C1071 H1077 0.929 . S
C1072 C1073 1.362 . S
C1072 C1075 1.378 . S
C1072 H1087 0.929 . S
C1073 C1072 1.362 . S
C1073 C1074 1.366 1_545 S
C1074 C1071 1.365 . S
C1074 C1073 1.366 1_565 S
C1074 H1088 0.930 . S
C1075 C1072 1.378 . S
C1075 N1076 1.315 1_545 S
C1075 H1078 0.930 . S
N1076 Co1056 2.194 . S
N1076 C1071 1.328 . S
N1076 C1075 1.315 1_565 S
H1077 C1071 0.929 . S
H1078 C1075 0.930 . S
H1079 C1067 0.929 . S
H1080 C1069 0.929 . S
O1081 Co1056 2.351 . S
O1081 C1084 1.244 . S
O1082 Co1056 2.155 . S
O1082 C1084 1.240 . S
O1083 Co1056 2.096 . S
O1083 C1064 1.247 1_565 S
C1084 O1081 1.244 . S
C1084 O1082 1.240 . S
H1085 C1059 0.931 . S
H1086 C1068 0.931 . S
H1087 C1072 0.929 . S
H1088 C1074 0.930 . S
Co1089 N1093 2.148 . S
Co1089 N1099 2.128 . S
Co1089 N1109 2.194 . S
Co1089 O1114 2.351 . S
Co1089 O1115 2.155 . S
Co1089 O1116 2.096 . S
C1090 N1093 1.301 . S
C1090 N1094 1.328 . S
C1090 H1095 0.930 . S
C1091 C1092 1.333 . S
C1091 N1093 1.317 . S
C1091 H1096 0.930 . S
C1092 C1091 1.333 . S
C1092 N1094 1.350 . S
C1092 H1118 0.931 . S
N1093 Co1089 2.148 . S
N1093 C1090 1.301 . S
N1093 C1091 1.317 . S
N1094 C1090 1.328 . S
N1094 C1092 1.350 . S
H1095 C1090 0.930 . S
H1096 C1091 0.930 . S
C1097 O1098 1.224 . S
C1097 O1116 1.247 . S
O1098 C1097 1.224 . S
N1099 Co1089 2.128 . S
N1099 C1100 1.355 . S
N1099 C1102 1.311 . S
C1100 N1099 1.355 . S
C1100 C1101 1.363 . S
C1100 H1112 0.929 . S
C1101 C1100 1.363 . S
C1101 N1103 1.375 . S
C1101 H1119 0.931 . S
C1102 N1099 1.311 . S
C1102 N1103 1.347 . S
C1102 H1113 0.929 . S
N1103 C1101 1.375 . S
N1103 C1102 1.347 . S
C1104 C1107 1.365 . S
C1104 N1109 1.328 . S
C1104 H1110 0.929 . S
C1105 C1106 1.362 . S
C1105 C1108 1.378 . S
C1105 H1120 0.929 . S
C1106 C1105 1.362 . S
C1106 C1107 1.366 . S
C1107 C1104 1.365 . S
C1107 C1106 1.366 . S
C1107 H1121 0.930 . S
C1108 C1105 1.378 . S
C1108 N1109 1.315 . S
C1108 H1111 0.930 . S
N1109 Co1089 2.194 . S
N1109 C1104 1.328 . S
N1109 C1108 1.315 . S
H1110 C1104 0.929 . S
H1111 C1108 0.930 . S
H1112 C1100 0.929 . S
H1113 C1102 0.929 . S
O1114 Co1089 2.351 . S
O1114 C1117 1.244 . S
O1115 Co1089 2.155 . S
O1115 C1117 1.240 . S
O1116 Co1089 2.096 . S
O1116 C1097 1.247 . S
C1117 O1114 1.244 . S
C1117 O1115 1.240 . S
H1118 C1092 0.931 . S
H1119 C1101 0.931 . S
H1120 C1105 0.929 . S
H1121 C1107 0.930 . S
Co1122 N1126 2.148 . S
Co1122 N1132 2.128 . S
Co1122 N1142 2.194 . S
Co1122 O1147 2.351 . S
Co1122 O1148 2.155 . S
Co1122 O1149 2.096 . S
C1123 N1126 1.301 . S
C1123 N1127 1.328 . S
C1123 H1128 0.930 . S
C1124 C1125 1.333 . S
C1124 N1126 1.317 . S
C1124 H1129 0.930 . S
C1125 C1124 1.333 . S
C1125 N1127 1.350 . S
C1125 H1151 0.931 . S
N1126 Co1122 2.148 . S
N1126 C1123 1.301 . S
N1126 C1124 1.317 . S
N1127 C1123 1.328 . S
N1127 C1125 1.350 . S
H1128 C1123 0.930 . S
H1129 C1124 0.930 . S
C1130 O1131 1.224 . S
C1130 O1149 1.247 1_565 S
O1131 C1130 1.224 . S
N1132 Co1122 2.128 . S
N1132 C1133 1.355 . S
N1132 C1135 1.311 . S
C1133 N1132 1.355 . S
C1133 C1134 1.363 . S
C1133 H1145 0.929 . S
C1134 C1133 1.363 . S
C1134 N1136 1.375 . S
C1134 H1152 0.931 . S
C1135 N1132 1.311 . S
C1135 N1136 1.347 . S
C1135 H1146 0.929 . S
N1136 C1134 1.375 . S
N1136 C1135 1.347 . S
C1137 C1140 1.365 . S
C1137 N1142 1.328 . S
C1137 H1143 0.929 . S
C1138 C1139 1.362 . S
C1138 C1141 1.378 . S
C1138 H1153 0.929 . S
C1139 C1138 1.362 . S
C1139 C1140 1.366 1_565 S
C1140 C1137 1.365 . S
C1140 C1139 1.366 1_545 S
C1140 H1154 0.930 . S
C1141 C1138 1.378 . S
C1141 N1142 1.315 1_565 S
C1141 H1144 0.930 . S
N1142 Co1122 2.194 . S
N1142 C1137 1.328 . S
N1142 C1141 1.315 1_545 S
H1143 C1137 0.929 . S
H1144 C1141 0.930 . S
H1145 C1133 0.929 . S
H1146 C1135 0.929 . S
O1147 Co1122 2.351 . S
O1147 C1150 1.244 . S
O1148 Co1122 2.155 . S
O1148 C1150 1.240 . S
O1149 Co1122 2.096 . S
O1149 C1130 1.247 1_545 S
C1150 O1147 1.244 . S
C1150 O1148 1.240 . S
H1151 C1125 0.931 . S
H1152 C1134 0.931 . S
H1153 C1138 0.929 . S
H1154 C1140 0.930 . S
Co1155 N1159 2.148 . S
Co1155 N1165 2.128 . S
Co1155 N1175 2.194 . S
Co1155 O1180 2.351 . S
Co1155 O1181 2.155 . S
Co1155 O1182 2.096 . S
C1156 N1159 1.301 . S
C1156 N1160 1.328 . S
C1156 H1161 0.930 . S
C1157 C1158 1.333 . S
C1157 N1159 1.317 . S
C1157 H1162 0.930 . S
C1158 C1157 1.333 . S
C1158 N1160 1.350 . S
C1158 H1184 0.931 . S
N1159 Co1155 2.148 . S
N1159 C1156 1.301 . S
N1159 C1157 1.317 . S
N1160 C1156 1.328 . S
N1160 C1158 1.350 . S
H1161 C1156 0.930 . S
H1162 C1157 0.930 . S
C1163 O1164 1.224 . S
C1163 O1182 1.247 . S
O1164 C1163 1.224 . S
N1165 Co1155 2.128 . S
N1165 C1166 1.355 . S
N1165 C1168 1.311 . S
C1166 N1165 1.355 . S
C1166 C1167 1.363 . S
C1166 H1178 0.929 . S
C1167 C1166 1.363 . S
C1167 N1169 1.375 . S
C1167 H1185 0.931 . S
C1168 N1165 1.311 . S
C1168 N1169 1.347 . S
C1168 H1179 0.929 . S
N1169 C1167 1.375 . S
N1169 C1168 1.347 . S
C1170 C1173 1.365 . S
C1170 N1175 1.328 . S
C1170 H1176 0.929 . S
C1171 C1172 1.362 . S
C1171 C1174 1.378 . S
C1171 H1186 0.929 . S
C1172 C1171 1.362 . S
C1172 C1173 1.366 . S
C1173 C1170 1.365 . S
C1173 C1172 1.366 . S
C1173 H1187 0.930 . S
C1174 C1171 1.378 . S
C1174 N1175 1.315 . S
C1174 H1177 0.930 . S
N1175 Co1155 2.194 . S
N1175 C1170 1.328 . S
N1175 C1174 1.315 . S
H1176 C1170 0.929 . S
H1177 C1174 0.930 . S
H1178 C1166 0.929 . S
H1179 C1168 0.929 . S
O1180 Co1155 2.351 . S
O1180 C1183 1.244 . S
O1181 Co1155 2.155 . S
O1181 C1183 1.240 . S
O1182 Co1155 2.096 . S
O1182 C1163 1.247 . S
C1183 O1180 1.244 . S
C1183 O1181 1.240 . S
H1184 C1158 0.931 . S
H1185 C1167 0.931 . S
H1186 C1171 0.929 . S
H1187 C1173 0.930 . S
Co1188 N1192 2.148 . S
Co1188 N1198 2.128 . S
Co1188 N1208 2.194 . S
Co1188 O1213 2.351 . S
Co1188 O1214 2.155 . S
Co1188 O1215 2.096 . S
C1189 N1192 1.301 . S
C1189 N1193 1.328 . S
C1189 H1194 0.930 . S
C1190 C1191 1.333 . S
C1190 N1192 1.317 . S
C1190 H1195 0.930 . S
C1191 C1190 1.333 . S
C1191 N1193 1.350 . S
C1191 H1217 0.931 . S
N1192 Co1188 2.148 . S
N1192 C1189 1.301 . S
N1192 C1190 1.317 . S
N1193 C1189 1.328 . S
N1193 C1191 1.350 . S
H1194 C1189 0.930 . S
H1195 C1190 0.930 . S
C1196 O1197 1.224 . S
C1196 O1215 1.247 1_565 S
O1197 C1196 1.224 . S
N1198 Co1188 2.128 . S
N1198 C1199 1.355 . S
N1198 C1201 1.311 . S
C1199 N1198 1.355 . S
C1199 C1200 1.363 . S
C1199 H1211 0.929 . S
C1200 C1199 1.363 . S
C1200 N1202 1.375 . S
C1200 H1218 0.931 . S
C1201 N1198 1.311 . S
C1201 N1202 1.347 . S
C1201 H1212 0.929 . S
N1202 C1200 1.375 . S
N1202 C1201 1.347 . S
C1203 C1206 1.365 . S
C1203 N1208 1.328 . S
C1203 H1209 0.929 . S
C1204 C1205 1.362 . S
C1204 C1207 1.378 . S
C1204 H1219 0.929 . S
C1205 C1204 1.362 . S
C1205 C1206 1.366 1_565 S
C1206 C1203 1.365 . S
C1206 C1205 1.366 1_545 S
C1206 H1220 0.930 . S
C1207 C1204 1.378 . S
C1207 N1208 1.315 1_565 S
C1207 H1210 0.930 . S
N1208 Co1188 2.194 . S
N1208 C1203 1.328 . S
N1208 C1207 1.315 1_545 S
H1209 C1203 0.929 . S
H1210 C1207 0.930 . S
H1211 C1199 0.929 . S
H1212 C1201 0.929 . S
O1213 Co1188 2.351 . S
O1213 C1216 1.244 . S
O1214 Co1188 2.155 . S
O1214 C1216 1.240 . S
O1215 Co1188 2.096 . S
O1215 C1196 1.247 1_545 S
C1216 O1213 1.244 . S
C1216 O1214 1.240 . S
H1217 C1191 0.931 . S
H1218 C1200 0.931 . S
H1219 C1204 0.929 . S
H1220 C1206 0.930 . S
Co1221 N1225 2.148 . S
Co1221 N1231 2.128 . S
Co1221 N1241 2.194 . S
Co1221 O1246 2.351 . S
Co1221 O1247 2.155 . S
Co1221 O1248 2.096 . S
C1222 N1225 1.301 . S
C1222 N1226 1.328 . S
C1222 H1227 0.930 . S
C1223 C1224 1.333 . S
C1223 N1225 1.317 . S
C1223 H1228 0.930 . S
C1224 C1223 1.333 . S
C1224 N1226 1.350 . S
C1224 H1250 0.931 . S
N1225 Co1221 2.148 . S
N1225 C1222 1.301 . S
N1225 C1223 1.317 . S
N1226 C1222 1.328 . S
N1226 C1224 1.350 . S
H1227 C1222 0.930 . S
H1228 C1223 0.930 . S
C1229 O1230 1.224 . S
C1229 O1248 1.247 . S
O1230 C1229 1.224 . S
N1231 Co1221 2.128 . S
N1231 C1232 1.355 . S
N1231 C1234 1.311 . S
C1232 N1231 1.355 . S
C1232 C1233 1.363 . S
C1232 H1244 0.929 . S
C1233 C1232 1.363 . S
C1233 N1235 1.375 . S
C1233 H1251 0.931 . S
C1234 N1231 1.311 . S
C1234 N1235 1.347 . S
C1234 H1245 0.929 . S
N1235 C1233 1.375 . S
N1235 C1234 1.347 . S
C1236 C1239 1.365 . S
C1236 N1241 1.328 . S
C1236 H1242 0.929 . S
C1237 C1238 1.362 . S
C1237 C1240 1.378 . S
C1237 H1252 0.929 . S
C1238 C1237 1.362 . S
C1238 C1239 1.366 . S
C1239 C1236 1.365 . S
C1239 C1238 1.366 . S
C1239 H1253 0.930 . S
C1240 C1237 1.378 . S
C1240 N1241 1.315 . S
C1240 H1243 0.930 . S
N1241 Co1221 2.194 . S
N1241 C1236 1.328 . S
N1241 C1240 1.315 . S
H1242 C1236 0.929 . S
H1243 C1240 0.930 . S
H1244 C1232 0.929 . S
H1245 C1234 0.929 . S
O1246 Co1221 2.351 . S
O1246 C1249 1.244 . S
O1247 Co1221 2.155 . S
O1247 C1249 1.240 . S
O1248 Co1221 2.096 . S
O1248 C1229 1.247 . S
C1249 O1246 1.244 . S
C1249 O1247 1.240 . S
H1250 C1224 0.931 . S
H1251 C1233 0.931 . S
H1252 C1237 0.929 . S
H1253 C1239 0.930 . S
Co1254 N1258 2.148 . S
Co1254 N1264 2.128 . S
Co1254 N1274 2.194 . S
Co1254 O1279 2.351 . S
Co1254 O1280 2.155 . S
Co1254 O1281 2.096 . S
C1255 N1258 1.301 . S
C1255 N1259 1.328 1_554 S
C1255 H1260 0.930 . S
C1256 C1257 1.333 . S
C1256 N1258 1.317 1_556 S
C1256 H1261 0.930 . S
C1257 C1256 1.333 . S
C1257 N1259 1.350 . S
C1257 H1283 0.931 . S
N1258 Co1254 2.148 . S
N1258 C1255 1.301 . S
N1258 C1256 1.317 1_554 S
N1259 C1255 1.328 1_556 S
N1259 C1257 1.350 . S
H1260 C1255 0.930 . S
H1261 C1256 0.930 . S
C1262 O1263 1.224 . S
C1262 O1281 1.247 1_545 S
O1263 C1262 1.224 . S
N1264 Co1254 2.128 . S
N1264 C1265 1.355 . S
N1264 C1267 1.311 . S
C1265 N1264 1.355 . S
C1265 C1266 1.363 . S
C1265 H1277 0.929 . S
C1266 C1265 1.363 . S
C1266 N1268 1.375 . S
C1266 H1284 0.931 . S
C1267 N1264 1.311 . S
C1267 N1268 1.347 . S
C1267 H1278 0.929 . S
N1268 C1266 1.375 . S
N1268 C1267 1.347 . S
C1269 C1272 1.365 . S
C1269 N1274 1.328 . S
C1269 H1275 0.929 . S
C1270 C1271 1.362 . S
C1270 C1273 1.378 . S
C1270 H1285 0.929 . S
C1271 C1270 1.362 . S
C1271 C1272 1.366 1_545 S
C1272 C1269 1.365 . S
C1272 C1271 1.366 1_565 S
C1272 H1286 0.930 . S
C1273 C1270 1.378 . S
C1273 N1274 1.315 1_545 S
C1273 H1276 0.930 . S
N1274 Co1254 2.194 . S
N1274 C1269 1.328 . S
N1274 C1273 1.315 1_565 S
H1275 C1269 0.929 . S
H1276 C1273 0.930 . S
H1277 C1265 0.929 . S
H1278 C1267 0.929 . S
O1279 Co1254 2.351 . S
O1279 C1282 1.244 . S
O1280 Co1254 2.155 . S
O1280 C1282 1.240 . S
O1281 Co1254 2.096 . S
O1281 C1262 1.247 1_565 S
C1282 O1279 1.244 . S
C1282 O1280 1.240 . S
H1283 C1257 0.931 . S
H1284 C1266 0.931 . S
H1285 C1270 0.929 . S
H1286 C1272 0.930 . S
Co1287 N1291 2.148 . S
Co1287 N1297 2.128 . S
Co1287 N1307 2.194 . S
Co1287 O1312 2.351 . S
Co1287 O1313 2.155 . S
Co1287 O1314 2.096 . S
C1288 N1291 1.301 . S
C1288 N1292 1.328 . S
C1288 H1293 0.930 . S
C1289 C1290 1.333 . S
C1289 N1291 1.317 . S
C1289 H1294 0.930 . S
C1290 C1289 1.333 . S
C1290 N1292 1.350 . S
C1290 H1316 0.931 . S
N1291 Co1287 2.148 . S
N1291 C1288 1.301 . S
N1291 C1289 1.317 . S
N1292 C1288 1.328 . S
N1292 C1290 1.350 . S
H1293 C1288 0.930 . S
H1294 C1289 0.930 . S
C1295 O1296 1.224 . S
C1295 O1314 1.247 . S
O1296 C1295 1.224 . S
N1297 Co1287 2.128 . S
N1297 C1298 1.355 . S
N1297 C1300 1.311 . S
C1298 N1297 1.355 . S
C1298 C1299 1.363 . S
C1298 H1310 0.929 . S
C1299 C1298 1.363 . S
C1299 N1301 1.375 . S
C1299 H1317 0.931 . S
C1300 N1297 1.311 . S
C1300 N1301 1.347 . S
C1300 H1311 0.929 . S
N1301 C1299 1.375 . S
N1301 C1300 1.347 . S
C1302 C1305 1.365 . S
C1302 N1307 1.328 . S
C1302 H1308 0.929 . S
C1303 C1304 1.362 . S
C1303 C1306 1.378 . S
C1303 H1318 0.929 . S
C1304 C1303 1.362 . S
C1304 C1305 1.366 . S
C1305 C1302 1.365 . S
C1305 C1304 1.366 . S
C1305 H1319 0.930 . S
C1306 C1303 1.378 . S
C1306 N1307 1.315 . S
C1306 H1309 0.930 . S
N1307 Co1287 2.194 . S
N1307 C1302 1.328 . S
N1307 C1306 1.315 . S
H1308 C1302 0.929 . S
H1309 C1306 0.930 . S
H1310 C1298 0.929 . S
H1311 C1300 0.929 . S
O1312 Co1287 2.351 . S
O1312 C1315 1.244 . S
O1313 Co1287 2.155 . S
O1313 C1315 1.240 . S
O1314 Co1287 2.096 . S
O1314 C1295 1.247 . S
C1315 O1312 1.244 . S
C1315 O1313 1.240 . S
H1316 C1290 0.931 . S
H1317 C1299 0.931 . S
H1318 C1303 0.929 . S
H1319 C1305 0.930 . S
Co1320 N1324 2.148 . S
Co1320 N1330 2.128 . S
Co1320 N1340 2.194 . S
Co1320 O1345 2.351 . S
Co1320 O1346 2.155 . S
Co1320 O1347 2.096 . S
C1321 N1324 1.301 . S
C1321 N1325 1.328 1_655 S
C1321 H1326 0.930 . S
C1322 C1323 1.333 . S
C1322 N1324 1.317 1_455 S
C1322 H1327 0.930 . S
C1323 C1322 1.333 . S
C1323 N1325 1.350 . S
C1323 H1349 0.931 . S
N1324 Co1320 2.148 . S
N1324 C1321 1.301 . S
N1324 C1322 1.317 1_655 S
N1325 C1321 1.328 1_455 S
N1325 C1323 1.350 . S
H1326 C1321 0.930 . S
H1327 C1322 0.930 . S
C1328 O1329 1.224 . S
C1328 O1347 1.247 1_554 S
O1329 C1328 1.224 . S
N1330 Co1320 2.128 . S
N1330 C1331 1.355 . S
N1330 C1333 1.311 . S
C1331 N1330 1.355 . S
C1331 C1332 1.363 . S
C1331 H1343 0.929 . S
C1332 C1331 1.363 . S
C1332 N1334 1.375 . S
C1332 H1350 0.931 . S
C1333 N1330 1.311 . S
C1333 N1334 1.347 . S
C1333 H1344 0.929 . S
N1334 C1332 1.375 . S
N1334 C1333 1.347 . S
C1335 C1338 1.365 . S
C1335 N1340 1.328 . S
C1335 H1341 0.929 . S
C1336 C1337 1.362 . S
C1336 C1339 1.378 . S
C1336 H1351 0.929 . S
C1337 C1336 1.362 . S
C1337 C1338 1.366 1_554 S
C1338 C1335 1.365 . S
C1338 C1337 1.366 1_556 S
C1338 H1352 0.930 . S
C1339 C1336 1.378 . S
C1339 N1340 1.315 1_554 S
C1339 H1342 0.930 . S
N1340 Co1320 2.194 . S
N1340 C1335 1.328 . S
N1340 C1339 1.315 1_556 S
H1341 C1335 0.929 . S
H1342 C1339 0.930 . S
H1343 C1331 0.929 . S
H1344 C1333 0.929 . S
O1345 Co1320 2.351 . S
O1345 C1348 1.244 . S
O1346 Co1320 2.155 . S
O1346 C1348 1.240 . S
O1347 Co1320 2.096 . S
O1347 C1328 1.247 1_556 S
C1348 O1345 1.244 . S
C1348 O1346 1.240 . S
H1349 C1323 0.931 . S
H1350 C1332 0.931 . S
H1351 C1336 0.929 . S
H1352 C1338 0.930 . S
Co1353 N1357 2.148 . S
Co1353 N1363 2.128 . S
Co1353 N1373 2.194 . S
Co1353 O1378 2.351 . S
Co1353 O1379 2.155 . S
Co1353 O1380 2.096 . S
C1354 N1357 1.301 . S
C1354 N1358 1.328 . S
C1354 H1359 0.930 . S
C1355 C1356 1.333 . S
C1355 N1357 1.317 . S
C1355 H1360 0.930 . S
C1356 C1355 1.333 . S
C1356 N1358 1.350 . S
C1356 H1382 0.931 . S
N1357 Co1353 2.148 . S
N1357 C1354 1.301 . S
N1357 C1355 1.317 . S
N1358 C1354 1.328 . S
N1358 C1356 1.350 . S
H1359 C1354 0.930 . S
H1360 C1355 0.930 . S
C1361 O1362 1.224 . S
C1361 O1380 1.247 1_556 S
O1362 C1361 1.224 . S
N1363 Co1353 2.128 . S
N1363 C1364 1.355 . S
N1363 C1366 1.311 . S
C1364 N1363 1.355 . S
C1364 C1365 1.363 . S
C1364 H1376 0.929 . S
C1365 C1364 1.363 . S
C1365 N1367 1.375 . S
C1365 H1383 0.931 . S
C1366 N1363 1.311 . S
C1366 N1367 1.347 . S
C1366 H1377 0.929 . S
N1367 C1365 1.375 . S
N1367 C1366 1.347 . S
C1368 C1371 1.365 . S
C1368 N1373 1.328 . S
C1368 H1374 0.929 . S
C1369 C1370 1.362 . S
C1369 C1372 1.378 . S
C1369 H1384 0.929 . S
C1370 C1369 1.362 . S
C1370 C1371 1.366 1_556 S
C1371 C1368 1.365 . S
C1371 C1370 1.366 1_554 S
C1371 H1385 0.930 . S
C1372 C1369 1.378 . S
C1372 N1373 1.315 1_556 S
C1372 H1375 0.930 . S
N1373 Co1353 2.194 . S
N1373 C1368 1.328 . S
N1373 C1372 1.315 1_554 S
H1374 C1368 0.929 . S
H1375 C1372 0.930 . S
H1376 C1364 0.929 . S
H1377 C1366 0.929 . S
O1378 Co1353 2.351 . S
O1378 C1381 1.244 . S
O1379 Co1353 2.155 . S
O1379 C1381 1.240 . S
O1380 Co1353 2.096 . S
O1380 C1361 1.247 1_554 S
C1381 O1378 1.244 . S
C1381 O1379 1.240 . S
H1382 C1356 0.931 . S
H1383 C1365 0.931 . S
H1384 C1369 0.929 . S
H1385 C1371 0.930 . S
Co1386 N1390 2.148 . S
Co1386 N1396 2.128 . S
Co1386 N1406 2.194 . S
Co1386 O1411 2.351 . S
Co1386 O1412 2.155 . S
Co1386 O1413 2.096 . S
C1387 N1390 1.301 . S
C1387 N1391 1.328 . S
C1387 H1392 0.930 . S
C1388 C1389 1.333 . S
C1388 N1390 1.317 . S
C1388 H1393 0.930 . S
C1389 C1388 1.333 . S
C1389 N1391 1.350 . S
C1389 H1415 0.931 . S
N1390 Co1386 2.148 . S
N1390 C1387 1.301 . S
N1390 C1388 1.317 . S
N1391 C1387 1.328 . S
N1391 C1389 1.350 . S
H1392 C1387 0.930 . S
H1393 C1388 0.930 . S
C1394 O1395 1.224 . S
C1394 O1413 1.247 . S
O1395 C1394 1.224 . S
N1396 Co1386 2.128 . S
N1396 C1397 1.355 . S
N1396 C1399 1.311 . S
C1397 N1396 1.355 . S
C1397 C1398 1.363 . S
C1397 H1409 0.929 . S
C1398 C1397 1.363 . S
C1398 N1400 1.375 . S
C1398 H1416 0.931 . S
C1399 N1396 1.311 . S
C1399 N1400 1.347 . S
C1399 H1410 0.929 . S
N1400 C1398 1.375 . S
N1400 C1399 1.347 . S
C1401 C1404 1.365 . S
C1401 N1406 1.328 . S
C1401 H1407 0.929 . S
C1402 C1403 1.362 . S
C1402 C1405 1.378 . S
C1402 H1417 0.929 . S
C1403 C1402 1.362 . S
C1403 C1404 1.366 . S
C1404 C1401 1.365 . S
C1404 C1403 1.366 . S
C1404 H1418 0.930 . S
C1405 C1402 1.378 . S
C1405 N1406 1.315 . S
C1405 H1408 0.930 . S
N1406 Co1386 2.194 . S
N1406 C1401 1.328 . S
N1406 C1405 1.315 . S
H1407 C1401 0.929 . S
H1408 C1405 0.930 . S
H1409 C1397 0.929 . S
H1410 C1399 0.929 . S
O1411 Co1386 2.351 . S
O1411 C1414 1.244 . S
O1412 Co1386 2.155 . S
O1412 C1414 1.240 . S
O1413 Co1386 2.096 . S
O1413 C1394 1.247 . S
C1414 O1411 1.244 . S
C1414 O1412 1.240 . S
H1415 C1389 0.931 . S
H1416 C1398 0.931 . S
H1417 C1402 0.929 . S
H1418 C1404 0.930 . S
Co1419 N1423 2.148 . S
Co1419 N1429 2.128 . S
Co1419 N1439 2.194 . S
Co1419 O1444 2.351 . S
Co1419 O1445 2.155 . S
Co1419 O1446 2.096 . S
C1420 N1423 1.301 . S
C1420 N1424 1.328 1_455 S
C1420 H1425 0.930 . S
C1421 C1422 1.333 . S
C1421 N1423 1.317 1_655 S
C1421 H1426 0.930 . S
C1422 C1421 1.333 . S
C1422 N1424 1.350 . S
C1422 H1448 0.931 . S
N1423 Co1419 2.148 . S
N1423 C1420 1.301 . S
N1423 C1421 1.317 1_455 S
N1424 C1420 1.328 1_655 S
N1424 C1422 1.350 . S
H1425 C1420 0.930 . S
H1426 C1421 0.930 . S
C1427 O1428 1.224 . S
C1427 O1446 1.247 . S
O1428 C1427 1.224 . S
N1429 Co1419 2.128 . S
N1429 C1430 1.355 . S
N1429 C1432 1.311 . S
C1430 N1429 1.355 . S
C1430 C1431 1.363 . S
C1430 H1442 0.929 . S
C1431 C1430 1.363 . S
C1431 N1433 1.375 . S
C1431 H1449 0.931 . S
C1432 N1429 1.311 . S
C1432 N1433 1.347 . S
C1432 H1443 0.929 . S
N1433 C1431 1.375 . S
N1433 C1432 1.347 . S
C1434 C1437 1.365 . S
C1434 N1439 1.328 . S
C1434 H1440 0.929 . S
C1435 C1436 1.362 . S
C1435 C1438 1.378 . S
C1435 H1450 0.929 . S
C1436 C1435 1.362 . S
C1436 C1437 1.366 . S
C1437 C1434 1.365 . S
C1437 C1436 1.366 . S
C1437 H1451 0.930 . S
C1438 C1435 1.378 . S
C1438 N1439 1.315 . S
C1438 H1441 0.930 . S
N1439 Co1419 2.194 . S
N1439 C1434 1.328 . S
N1439 C1438 1.315 . S
H1440 C1434 0.929 . S
H1441 C1438 0.930 . S
H1442 C1430 0.929 . S
H1443 C1432 0.929 . S
O1444 Co1419 2.351 . S
O1444 C1447 1.244 . S
O1445 Co1419 2.155 . S
O1445 C1447 1.240 . S
O1446 Co1419 2.096 . S
O1446 C1427 1.247 . S
C1447 O1444 1.244 . S
C1447 O1445 1.240 . S
H1448 C1422 0.931 . S
H1449 C1431 0.931 . S
H1450 C1435 0.929 . S
H1451 C1437 0.930 . S
Co1452 N1456 2.148 . S
Co1452 N1462 2.128 . S
Co1452 N1472 2.194 . S
Co1452 O1477 2.351 . S
Co1452 O1478 2.155 . S
Co1452 O1479 2.096 . S
C1453 N1456 1.301 . S
C1453 N1457 1.328 . S
C1453 H1458 0.930 . S
C1454 C1455 1.333 . S
C1454 N1456 1.317 . S
C1454 H1459 0.930 . S
C1455 C1454 1.333 . S
C1455 N1457 1.350 . S
C1455 H1481 0.931 . S
N1456 Co1452 2.148 . S
N1456 C1453 1.301 . S
N1456 C1454 1.317 . S
N1457 C1453 1.328 . S
N1457 C1455 1.350 . S
H1458 C1453 0.930 . S
H1459 C1454 0.930 . S
C1460 O1461 1.224 . S
C1460 O1479 1.247 . S
O1461 C1460 1.224 . S
N1462 Co1452 2.128 . S
N1462 C1463 1.355 . S
N1462 C1465 1.311 . S
C1463 N1462 1.355 . S
C1463 C1464 1.363 . S
C1463 H1475 0.929 . S
C1464 C1463 1.363 . S
C1464 N1466 1.375 . S
C1464 H1482 0.931 . S
C1465 N1462 1.311 . S
C1465 N1466 1.347 . S
C1465 H1476 0.929 . S
N1466 C1464 1.375 . S
N1466 C1465 1.347 . S
C1467 C1470 1.365 . S
C1467 N1472 1.328 . S
C1467 H1473 0.929 . S
C1468 C1469 1.362 . S
C1468 C1471 1.378 . S
C1468 H1483 0.929 . S
C1469 C1468 1.362 . S
C1469 C1470 1.366 . S
C1470 C1467 1.365 . S
C1470 C1469 1.366 . S
C1470 H1484 0.930 . S
C1471 C1468 1.378 . S
C1471 N1472 1.315 . S
C1471 H1474 0.930 . S
N1472 Co1452 2.194 . S
N1472 C1467 1.328 . S
N1472 C1471 1.315 . S
H1473 C1467 0.929 . S
H1474 C1471 0.930 . S
H1475 C1463 0.929 . S
H1476 C1465 0.929 . S
O1477 Co1452 2.351 . S
O1477 C1480 1.244 . S
O1478 Co1452 2.155 . S
O1478 C1480 1.240 . S
O1479 Co1452 2.096 . S
O1479 C1460 1.247 . S
C1480 O1477 1.244 . S
C1480 O1478 1.240 . S
H1481 C1455 0.931 . S
H1482 C1464 0.931 . S
H1483 C1468 0.929 . S
H1484 C1470 0.930 . S
Co1485 N1489 2.148 . S
Co1485 N1495 2.128 . S
Co1485 N1505 2.194 . S
Co1485 O1510 2.351 . S
Co1485 O1511 2.155 . S
Co1485 O1512 2.096 . S
C1486 N1489 1.301 . S
C1486 N1490 1.328 . S
C1486 H1491 0.930 . S
C1487 C1488 1.333 . S
C1487 N1489 1.317 . S
C1487 H1492 0.930 . S
C1488 C1487 1.333 . S
C1488 N1490 1.350 . S
C1488 H1514 0.931 . S
N1489 Co1485 2.148 . S
N1489 C1486 1.301 . S
N1489 C1487 1.317 . S
N1490 C1486 1.328 . S
N1490 C1488 1.350 . S
H1491 C1486 0.930 . S
H1492 C1487 0.930 . S
C1493 O1494 1.224 . S
C1493 O1512 1.247 . S
O1494 C1493 1.224 . S
N1495 Co1485 2.128 . S
N1495 C1496 1.355 . S
N1495 C1498 1.311 . S
C1496 N1495 1.355 . S
C1496 C1497 1.363 . S
C1496 H1508 0.929 . S
C1497 C1496 1.363 . S
C1497 N1499 1.375 . S
C1497 H1515 0.931 . S
C1498 N1495 1.311 . S
C1498 N1499 1.347 . S
C1498 H1509 0.929 . S
N1499 C1497 1.375 . S
N1499 C1498 1.347 . S
C1500 C1503 1.365 . S
C1500 N1505 1.328 . S
C1500 H1506 0.929 . S
C1501 C1502 1.362 . S
C1501 C1504 1.378 . S
C1501 H1516 0.929 . S
C1502 C1501 1.362 . S
C1502 C1503 1.366 . S
C1503 C1500 1.365 . S
C1503 C1502 1.366 . S
C1503 H1517 0.930 . S
C1504 C1501 1.378 . S
C1504 N1505 1.315 . S
C1504 H1507 0.930 . S
N1505 Co1485 2.194 . S
N1505 C1500 1.328 . S
N1505 C1504 1.315 . S
H1506 C1500 0.929 . S
H1507 C1504 0.930 . S
H1508 C1496 0.929 . S
H1509 C1498 0.929 . S
O1510 Co1485 2.351 . S
O1510 C1513 1.244 . S
O1511 Co1485 2.155 . S
O1511 C1513 1.240 . S
O1512 Co1485 2.096 . S
O1512 C1493 1.247 . S
C1513 O1510 1.244 . S
C1513 O1511 1.240 . S
H1514 C1488 0.931 . S
H1515 C1497 0.931 . S
H1516 C1501 0.929 . S
H1517 C1503 0.930 . S
Co1518 N1522 2.148 . S
Co1518 N1528 2.128 . S
Co1518 N1538 2.194 . S
Co1518 O1543 2.351 . S
Co1518 O1544 2.155 . S
Co1518 O1545 2.096 . S
C1519 N1522 1.301 . S
C1519 N1523 1.328 . S
C1519 H1524 0.930 . S
C1520 C1521 1.333 . S
C1520 N1522 1.317 . S
C1520 H1525 0.930 . S
C1521 C1520 1.333 . S
C1521 N1523 1.350 . S
C1521 H1547 0.931 . S
N1522 Co1518 2.148 . S
N1522 C1519 1.301 . S
N1522 C1520 1.317 . S
N1523 C1519 1.328 . S
N1523 C1521 1.350 . S
H1524 C1519 0.930 . S
H1525 C1520 0.930 . S
C1526 O1527 1.224 . S
C1526 O1545 1.247 . S
O1527 C1526 1.224 . S
N1528 Co1518 2.128 . S
N1528 C1529 1.355 . S
N1528 C1531 1.311 . S
C1529 N1528 1.355 . S
C1529 C1530 1.363 . S
C1529 H1541 0.929 . S
C1530 C1529 1.363 . S
C1530 N1532 1.375 . S
C1530 H1548 0.931 . S
C1531 N1528 1.311 . S
C1531 N1532 1.347 . S
C1531 H1542 0.929 . S
N1532 C1530 1.375 . S
N1532 C1531 1.347 . S
C1533 C1536 1.365 . S
C1533 N1538 1.328 . S
C1533 H1539 0.929 . S
C1534 C1535 1.362 . S
C1534 C1537 1.378 . S
C1534 H1549 0.929 . S
C1535 C1534 1.362 . S
C1535 C1536 1.366 . S
C1536 C1533 1.365 . S
C1536 C1535 1.366 . S
C1536 H1550 0.930 . S
C1537 C1534 1.378 . S
C1537 N1538 1.315 . S
C1537 H1540 0.930 . S
N1538 Co1518 2.194 . S
N1538 C1533 1.328 . S
N1538 C1537 1.315 . S
H1539 C1533 0.929 . S
H1540 C1537 0.930 . S
H1541 C1529 0.929 . S
H1542 C1531 0.929 . S
O1543 Co1518 2.351 . S
O1543 C1546 1.244 . S
O1544 Co1518 2.155 . S
O1544 C1546 1.240 . S
O1545 Co1518 2.096 . S
O1545 C1526 1.247 . S
C1546 O1543 1.244 . S
C1546 O1544 1.240 . S
H1547 C1521 0.931 . S
H1548 C1530 0.931 . S
H1549 C1534 0.929 . S
H1550 C1536 0.930 . S
Co1551 N1555 2.148 . S
Co1551 N1561 2.128 . S
Co1551 N1571 2.194 . S
Co1551 O1576 2.351 . S
Co1551 O1577 2.155 . S
Co1551 O1578 2.096 . S
C1552 N1555 1.301 . S
C1552 N1556 1.328 . S
C1552 H1557 0.930 . S
C1553 C1554 1.333 . S
C1553 N1555 1.317 . S
C1553 H1558 0.930 . S
C1554 C1553 1.333 . S
C1554 N1556 1.350 . S
C1554 H1580 0.931 . S
N1555 Co1551 2.148 . S
N1555 C1552 1.301 . S
N1555 C1553 1.317 . S
N1556 C1552 1.328 . S
N1556 C1554 1.350 . S
H1557 C1552 0.930 . S
H1558 C1553 0.930 . S
C1559 O1560 1.224 . S
C1559 O1578 1.247 . S
O1560 C1559 1.224 . S
N1561 Co1551 2.128 . S
N1561 C1562 1.355 . S
N1561 C1564 1.311 . S
C1562 N1561 1.355 . S
C1562 C1563 1.363 . S
C1562 H1574 0.929 . S
C1563 C1562 1.363 . S
C1563 N1565 1.375 . S
C1563 H1581 0.931 . S
C1564 N1561 1.311 . S
C1564 N1565 1.347 . S
C1564 H1575 0.929 . S
N1565 C1563 1.375 . S
N1565 C1564 1.347 . S
C1566 C1569 1.365 . S
C1566 N1571 1.328 . S
C1566 H1572 0.929 . S
C1567 C1568 1.362 . S
C1567 C1570 1.378 . S
C1567 H1582 0.929 . S
C1568 C1567 1.362 . S
C1568 C1569 1.366 . S
C1569 C1566 1.365 . S
C1569 C1568 1.366 . S
C1569 H1583 0.930 . S
C1570 C1567 1.378 . S
C1570 N1571 1.315 . S
C1570 H1573 0.930 . S
N1571 Co1551 2.194 . S
N1571 C1566 1.328 . S
N1571 C1570 1.315 . S
H1572 C1566 0.929 . S
H1573 C1570 0.930 . S
H1574 C1562 0.929 . S
H1575 C1564 0.929 . S
O1576 Co1551 2.351 . S
O1576 C1579 1.244 . S
O1577 Co1551 2.155 . S
O1577 C1579 1.240 . S
O1578 Co1551 2.096 . S
O1578 C1559 1.247 . S
C1579 O1576 1.244 . S
C1579 O1577 1.240 . S
H1580 C1554 0.931 . S
H1581 C1563 0.931 . S
H1582 C1567 0.929 . S
H1583 C1569 0.930 . S
Co1584 N1588 2.148 . S
Co1584 N1594 2.128 . S
Co1584 N1604 2.194 . S
Co1584 O1609 2.351 . S
Co1584 O1610 2.155 . S
Co1584 O1611 2.096 . S
C1585 N1588 1.301 . S
C1585 N1589 1.328 . S
C1585 H1590 0.930 . S
C1586 C1587 1.333 . S
C1586 N1588 1.317 . S
C1586 H1591 0.930 . S
C1587 C1586 1.333 . S
C1587 N1589 1.350 . S
C1587 H1613 0.931 . S
N1588 Co1584 2.148 . S
N1588 C1585 1.301 . S
N1588 C1586 1.317 . S
N1589 C1585 1.328 . S
N1589 C1587 1.350 . S
H1590 C1585 0.930 . S
H1591 C1586 0.930 . S
C1592 O1593 1.224 . S
C1592 O1611 1.247 . S
O1593 C1592 1.224 . S
N1594 Co1584 2.128 . S
N1594 C1595 1.355 . S
N1594 C1597 1.311 . S
C1595 N1594 1.355 . S
C1595 C1596 1.363 . S
C1595 H1607 0.929 . S
C1596 C1595 1.363 . S
C1596 N1598 1.375 . S
C1596 H1614 0.931 . S
C1597 N1594 1.311 . S
C1597 N1598 1.347 . S
C1597 H1608 0.929 . S
N1598 C1596 1.375 . S
N1598 C1597 1.347 . S
C1599 C1602 1.365 . S
C1599 N1604 1.328 . S
C1599 H1605 0.929 . S
C1600 C1601 1.362 . S
C1600 C1603 1.378 . S
C1600 H1615 0.929 . S
C1601 C1600 1.362 . S
C1601 C1602 1.366 . S
C1602 C1599 1.365 . S
C1602 C1601 1.366 . S
C1602 H1616 0.930 . S
C1603 C1600 1.378 . S
C1603 N1604 1.315 . S
C1603 H1606 0.930 . S
N1604 Co1584 2.194 . S
N1604 C1599 1.328 . S
N1604 C1603 1.315 . S
H1605 C1599 0.929 . S
H1606 C1603 0.930 . S
H1607 C1595 0.929 . S
H1608 C1597 0.929 . S
O1609 Co1584 2.351 . S
O1609 C1612 1.244 . S
O1610 Co1584 2.155 . S
O1610 C1612 1.240 . S
O1611 Co1584 2.096 . S
O1611 C1592 1.247 . S
C1612 O1609 1.244 . S
C1612 O1610 1.240 . S
H1613 C1587 0.931 . S
H1614 C1596 0.931 . S
H1615 C1600 0.929 . S
H1616 C1602 0.930 . S
Co1617 N1621 2.148 . S
Co1617 N1627 2.128 . S
Co1617 N1637 2.194 . S
Co1617 O1642 2.351 . S
Co1617 O1643 2.155 . S
Co1617 O1644 2.096 . S
C1618 N1621 1.301 . S
C1618 N1622 1.328 . S
C1618 H1623 0.930 . S
C1619 C1620 1.333 . S
C1619 N1621 1.317 . S
C1619 H1624 0.930 . S
C1620 C1619 1.333 . S
C1620 N1622 1.350 . S
C1620 H1646 0.931 . S
N1621 Co1617 2.148 . S
N1621 C1618 1.301 . S
N1621 C1619 1.317 . S
N1622 C1618 1.328 . S
N1622 C1620 1.350 . S
H1623 C1618 0.930 . S
H1624 C1619 0.930 . S
C1625 O1626 1.224 . S
C1625 O1644 1.247 . S
O1626 C1625 1.224 . S
N1627 Co1617 2.128 . S
N1627 C1628 1.355 . S
N1627 C1630 1.311 . S
C1628 N1627 1.355 . S
C1628 C1629 1.363 . S
C1628 H1640 0.929 . S
C1629 C1628 1.363 . S
C1629 N1631 1.375 . S
C1629 H1647 0.931 . S
C1630 N1627 1.311 . S
C1630 N1631 1.347 . S
C1630 H1641 0.929 . S
N1631 C1629 1.375 . S
N1631 C1630 1.347 . S
C1632 C1635 1.365 . S
C1632 N1637 1.328 . S
C1632 H1638 0.929 . S
C1633 C1634 1.362 . S
C1633 C1636 1.378 . S
C1633 H1648 0.929 . S
C1634 C1633 1.362 . S
C1634 C1635 1.366 . S
C1635 C1632 1.365 . S
C1635 C1634 1.366 . S
C1635 H1649 0.930 . S
C1636 C1633 1.378 . S
C1636 N1637 1.315 . S
C1636 H1639 0.930 . S
N1637 Co1617 2.194 . S
N1637 C1632 1.328 . S
N1637 C1636 1.315 . S
H1638 C1632 0.929 . S
H1639 C1636 0.930 . S
H1640 C1628 0.929 . S
H1641 C1630 0.929 . S
O1642 Co1617 2.351 . S
O1642 C1645 1.244 . S
O1643 Co1617 2.155 . S
O1643 C1645 1.240 . S
O1644 Co1617 2.096 . S
O1644 C1625 1.247 . S
C1645 O1642 1.244 . S
C1645 O1643 1.240 . S
H1646 C1620 0.931 . S
H1647 C1629 0.931 . S
H1648 C1633 0.929 . S
H1649 C1635 0.930 . S
Co1650 N1654 2.148 . S
Co1650 N1660 2.128 . S
Co1650 N1670 2.194 . S
Co1650 O1675 2.351 . S
Co1650 O1676 2.155 . S
Co1650 O1677 2.096 . S
C1651 N1654 1.301 . S
C1651 N1655 1.328 . S
C1651 H1656 0.930 . S
C1652 C1653 1.333 . S
C1652 N1654 1.317 . S
C1652 H1657 0.930 . S
C1653 C1652 1.333 . S
C1653 N1655 1.350 . S
C1653 H1679 0.931 . S
N1654 Co1650 2.148 . S
N1654 C1651 1.301 . S
N1654 C1652 1.317 . S
N1655 C1651 1.328 . S
N1655 C1653 1.350 . S
H1656 C1651 0.930 . S
H1657 C1652 0.930 . S
C1658 O1659 1.224 . S
C1658 O1677 1.247 1_455 S
O1659 C1658 1.224 . S
N1660 Co1650 2.128 . S
N1660 C1661 1.355 . S
N1660 C1663 1.311 . S
C1661 N1660 1.355 . S
C1661 C1662 1.363 . S
C1661 H1673 0.929 . S
C1662 C1661 1.363 . S
C1662 N1664 1.375 . S
C1662 H1680 0.931 . S
C1663 N1660 1.311 . S
C1663 N1664 1.347 . S
C1663 H1674 0.929 . S
N1664 C1662 1.375 . S
N1664 C1663 1.347 . S
C1665 C1668 1.365 . S
C1665 N1670 1.328 . S
C1665 H1671 0.929 . S
C1666 C1667 1.362 . S
C1666 C1669 1.378 . S
C1666 H1681 0.929 . S
C1667 C1666 1.362 . S
C1667 C1668 1.366 1_455 S
C1668 C1665 1.365 . S
C1668 C1667 1.366 1_655 S
C1668 H1682 0.930 . S
C1669 C1666 1.378 . S
C1669 N1670 1.315 1_455 S
C1669 H1672 0.930 . S
N1670 Co1650 2.194 . S
N1670 C1665 1.328 . S
N1670 C1669 1.315 1_655 S
H1671 C1665 0.929 . S
H1672 C1669 0.930 . S
H1673 C1661 0.929 . S
H1674 C1663 0.929 . S
O1675 Co1650 2.351 . S
O1675 C1678 1.244 . S
O1676 Co1650 2.155 . S
O1676 C1678 1.240 . S
O1677 Co1650 2.096 . S
O1677 C1658 1.247 1_655 S
C1678 O1675 1.244 . S
C1678 O1676 1.240 . S
H1679 C1653 0.931 . S
H1680 C1662 0.931 . S
H1681 C1666 0.929 . S
H1682 C1668 0.930 . S
Co1683 N1687 2.148 . S
Co1683 N1693 2.128 . S
Co1683 N1703 2.194 . S
Co1683 O1708 2.351 . S
Co1683 O1709 2.155 . S
Co1683 O1710 2.096 . S
C1684 N1687 1.301 . S
C1684 N1688 1.328 . S
C1684 H1689 0.930 . S
C1685 C1686 1.333 . S
C1685 N1687 1.317 . S
C1685 H1690 0.930 . S
C1686 C1685 1.333 . S
C1686 N1688 1.350 . S
C1686 H1712 0.931 . S
N1687 Co1683 2.148 . S
N1687 C1684 1.301 . S
N1687 C1685 1.317 . S
N1688 C1684 1.328 . S
N1688 C1686 1.350 . S
H1689 C1684 0.930 . S
H1690 C1685 0.930 . S
C1691 O1692 1.224 . S
C1691 O1710 1.247 . S
O1692 C1691 1.224 . S
N1693 Co1683 2.128 . S
N1693 C1694 1.355 . S
N1693 C1696 1.311 . S
C1694 N1693 1.355 . S
C1694 C1695 1.363 . S
C1694 H1706 0.929 . S
C1695 C1694 1.363 . S
C1695 N1697 1.375 . S
C1695 H1713 0.931 . S
C1696 N1693 1.311 . S
C1696 N1697 1.347 . S
C1696 H1707 0.929 . S
N1697 C1695 1.375 . S
N1697 C1696 1.347 . S
C1698 C1701 1.365 . S
C1698 N1703 1.328 . S
C1698 H1704 0.929 . S
C1699 C1700 1.362 . S
C1699 C1702 1.378 . S
C1699 H1714 0.929 . S
C1700 C1699 1.362 . S
C1700 C1701 1.366 . S
C1701 C1698 1.365 . S
C1701 C1700 1.366 . S
C1701 H1715 0.930 . S
C1702 C1699 1.378 . S
C1702 N1703 1.315 . S
C1702 H1705 0.930 . S
N1703 Co1683 2.194 . S
N1703 C1698 1.328 . S
N1703 C1702 1.315 . S
H1704 C1698 0.929 . S
H1705 C1702 0.930 . S
H1706 C1694 0.929 . S
H1707 C1696 0.929 . S
O1708 Co1683 2.351 . S
O1708 C1711 1.244 . S
O1709 Co1683 2.155 . S
O1709 C1711 1.240 . S
O1710 Co1683 2.096 . S
O1710 C1691 1.247 . S
C1711 O1708 1.244 . S
C1711 O1709 1.240 . S
H1712 C1686 0.931 . S
H1713 C1695 0.931 . S
H1714 C1699 0.929 . S
H1715 C1701 0.930 . S
Co1716 N1720 2.148 . S
Co1716 N1726 2.128 . S
Co1716 N1736 2.194 . S
Co1716 O1741 2.351 . S
Co1716 O1742 2.155 . S
Co1716 O1743 2.096 . S
C1717 N1720 1.301 . S
C1717 N1721 1.328 . S
C1717 H1722 0.930 . S
C1718 C1719 1.333 . S
C1718 N1720 1.317 . S
C1718 H1723 0.930 . S
C1719 C1718 1.333 . S
C1719 N1721 1.350 . S
C1719 H1745 0.931 . S
N1720 Co1716 2.148 . S
N1720 C1717 1.301 . S
N1720 C1718 1.317 . S
N1721 C1717 1.328 . S
N1721 C1719 1.350 . S
H1722 C1717 0.930 . S
H1723 C1718 0.930 . S
C1724 O1725 1.224 . S
C1724 O1743 1.247 . S
O1725 C1724 1.224 . S
N1726 Co1716 2.128 . S
N1726 C1727 1.355 . S
N1726 C1729 1.311 . S
C1727 N1726 1.355 . S
C1727 C1728 1.363 . S
C1727 H1739 0.929 . S
C1728 C1727 1.363 . S
C1728 N1730 1.375 . S
C1728 H1746 0.931 . S
C1729 N1726 1.311 . S
C1729 N1730 1.347 . S
C1729 H1740 0.929 . S
N1730 C1728 1.375 . S
N1730 C1729 1.347 . S
C1731 C1734 1.365 . S
C1731 N1736 1.328 . S
C1731 H1737 0.929 . S
C1732 C1733 1.362 . S
C1732 C1735 1.378 . S
C1732 H1747 0.929 . S
C1733 C1732 1.362 . S
C1733 C1734 1.366 . S
C1734 C1731 1.365 . S
C1734 C1733 1.366 . S
C1734 H1748 0.930 . S
C1735 C1732 1.378 . S
C1735 N1736 1.315 . S
C1735 H1738 0.930 . S
N1736 Co1716 2.194 . S
N1736 C1731 1.328 . S
N1736 C1735 1.315 . S
H1737 C1731 0.929 . S
H1738 C1735 0.930 . S
H1739 C1727 0.929 . S
H1740 C1729 0.929 . S
O1741 Co1716 2.351 . S
O1741 C1744 1.244 . S
O1742 Co1716 2.155 . S
O1742 C1744 1.240 . S
O1743 Co1716 2.096 . S
O1743 C1724 1.247 . S
C1744 O1741 1.244 . S
C1744 O1742 1.240 . S
H1745 C1719 0.931 . S
H1746 C1728 0.931 . S
H1747 C1732 0.929 . S
H1748 C1734 0.930 . S
Co1749 N1753 2.148 . S
Co1749 N1759 2.128 . S
Co1749 N1769 2.194 . S
Co1749 O1774 2.351 . S
Co1749 O1775 2.155 . S
Co1749 O1776 2.096 . S
C1750 N1753 1.301 . S
C1750 N1754 1.328 . S
C1750 H1755 0.930 . S
C1751 C1752 1.333 . S
C1751 N1753 1.317 . S
C1751 H1756 0.930 . S
C1752 C1751 1.333 . S
C1752 N1754 1.350 . S
C1752 H1778 0.931 . S
N1753 Co1749 2.148 . S
N1753 C1750 1.301 . S
N1753 C1751 1.317 . S
N1754 C1750 1.328 . S
N1754 C1752 1.350 . S
H1755 C1750 0.930 . S
H1756 C1751 0.930 . S
C1757 O1758 1.224 . S
C1757 O1776 1.247 . S
O1758 C1757 1.224 . S
N1759 Co1749 2.128 . S
N1759 C1760 1.355 . S
N1759 C1762 1.311 . S
C1760 N1759 1.355 . S
C1760 C1761 1.363 . S
C1760 H1772 0.929 . S
C1761 C1760 1.363 . S
C1761 N1763 1.375 . S
C1761 H1779 0.931 . S
C1762 N1759 1.311 . S
C1762 N1763 1.347 . S
C1762 H1773 0.929 . S
N1763 C1761 1.375 . S
N1763 C1762 1.347 . S
C1764 C1767 1.365 . S
C1764 N1769 1.328 . S
C1764 H1770 0.929 . S
C1765 C1766 1.362 . S
C1765 C1768 1.378 . S
C1765 H1780 0.929 . S
C1766 C1765 1.362 . S
C1766 C1767 1.366 . S
C1767 C1764 1.365 . S
C1767 C1766 1.366 . S
C1767 H1781 0.930 . S
C1768 C1765 1.378 . S
C1768 N1769 1.315 . S
C1768 H1771 0.930 . S
N1769 Co1749 2.194 . S
N1769 C1764 1.328 . S
N1769 C1768 1.315 . S
H1770 C1764 0.929 . S
H1771 C1768 0.930 . S
H1772 C1760 0.929 . S
H1773 C1762 0.929 . S
O1774 Co1749 2.351 . S
O1774 C1777 1.244 . S
O1775 Co1749 2.155 . S
O1775 C1777 1.240 . S
O1776 Co1749 2.096 . S
O1776 C1757 1.247 . S
C1777 O1774 1.244 . S
C1777 O1775 1.240 . S
H1778 C1752 0.931 . S
H1779 C1761 0.931 . S
H1780 C1765 0.929 . S
H1781 C1767 0.930 . S
Co1782 N1786 2.148 . S
Co1782 N1792 2.128 . S
Co1782 N1802 2.194 . S
Co1782 O1807 2.351 . S
Co1782 O1808 2.155 . S
Co1782 O1809 2.096 . S
C1783 N1786 1.301 . S
C1783 N1787 1.328 . S
C1783 H1788 0.930 . S
C1784 C1785 1.333 . S
C1784 N1786 1.317 . S
C1784 H1789 0.930 . S
C1785 C1784 1.333 . S
C1785 N1787 1.350 . S
C1785 H1811 0.931 . S
N1786 Co1782 2.148 . S
N1786 C1783 1.301 . S
N1786 C1784 1.317 . S
N1787 C1783 1.328 . S
N1787 C1785 1.350 . S
H1788 C1783 0.930 . S
H1789 C1784 0.930 . S
C1790 O1791 1.224 . S
C1790 O1809 1.247 1_455 S
O1791 C1790 1.224 . S
N1792 Co1782 2.128 . S
N1792 C1793 1.355 . S
N1792 C1795 1.311 . S
C1793 N1792 1.355 . S
C1793 C1794 1.363 . S
C1793 H1805 0.929 . S
C1794 C1793 1.363 . S
C1794 N1796 1.375 . S
C1794 H1812 0.931 . S
C1795 N1792 1.311 . S
C1795 N1796 1.347 . S
C1795 H1806 0.929 . S
N1796 C1794 1.375 . S
N1796 C1795 1.347 . S
C1797 C1800 1.365 . S
C1797 N1802 1.328 . S
C1797 H1803 0.929 . S
C1798 C1799 1.362 . S
C1798 C1801 1.378 . S
C1798 H1813 0.929 . S
C1799 C1798 1.362 . S
C1799 C1800 1.366 1_455 S
C1800 C1797 1.365 . S
C1800 C1799 1.366 1_655 S
C1800 H1814 0.930 . S
C1801 C1798 1.378 . S
C1801 N1802 1.315 1_455 S
C1801 H1804 0.930 . S
N1802 Co1782 2.194 . S
N1802 C1797 1.328 . S
N1802 C1801 1.315 1_655 S
H1803 C1797 0.929 . S
H1804 C1801 0.930 . S
H1805 C1793 0.929 . S
H1806 C1795 0.929 . S
O1807 Co1782 2.351 . S
O1807 C1810 1.244 . S
O1808 Co1782 2.155 . S
O1808 C1810 1.240 . S
O1809 Co1782 2.096 . S
O1809 C1790 1.247 1_655 S
C1810 O1807 1.244 . S
C1810 O1808 1.240 . S
H1811 C1785 0.931 . S
H1812 C1794 0.931 . S
H1813 C1798 0.929 . S
H1814 C1800 0.930 . S
Co1815 N1819 2.148 . S
Co1815 N1825 2.128 . S
Co1815 N1835 2.194 . S
Co1815 O1840 2.351 . S
Co1815 O1841 2.155 . S
Co1815 O1842 2.096 . S
C1816 N1819 1.301 . S
C1816 N1820 1.328 . S
C1816 H1821 0.930 . S
C1817 C1818 1.333 . S
C1817 N1819 1.317 . S
C1817 H1822 0.930 . S
C1818 C1817 1.333 . S
C1818 N1820 1.350 . S
C1818 H1844 0.931 . S
N1819 Co1815 2.148 . S
N1819 C1816 1.301 . S
N1819 C1817 1.317 . S
N1820 C1816 1.328 . S
N1820 C1818 1.350 . S
H1821 C1816 0.930 . S
H1822 C1817 0.930 . S
C1823 O1824 1.224 . S
C1823 O1842 1.247 . S
O1824 C1823 1.224 . S
N1825 Co1815 2.128 . S
N1825 C1826 1.355 . S
N1825 C1828 1.311 . S
C1826 N1825 1.355 . S
C1826 C1827 1.363 . S
C1826 H1838 0.929 . S
C1827 C1826 1.363 . S
C1827 N1829 1.375 . S
C1827 H1845 0.931 . S
C1828 N1825 1.311 . S
C1828 N1829 1.347 . S
C1828 H1839 0.929 . S
N1829 C1827 1.375 . S
N1829 C1828 1.347 . S
C1830 C1833 1.365 . S
C1830 N1835 1.328 . S
C1830 H1836 0.929 . S
C1831 C1832 1.362 . S
C1831 C1834 1.378 . S
C1831 H1846 0.929 . S
C1832 C1831 1.362 . S
C1832 C1833 1.366 . S
C1833 C1830 1.365 . S
C1833 C1832 1.366 . S
C1833 H1847 0.930 . S
C1834 C1831 1.378 . S
C1834 N1835 1.315 . S
C1834 H1837 0.930 . S
N1835 Co1815 2.194 . S
N1835 C1830 1.328 . S
N1835 C1834 1.315 . S
H1836 C1830 0.929 . S
H1837 C1834 0.930 . S
H1838 C1826 0.929 . S
H1839 C1828 0.929 . S
O1840 Co1815 2.351 . S
O1840 C1843 1.244 . S
O1841 Co1815 2.155 . S
O1841 C1843 1.240 . S
O1842 Co1815 2.096 . S
O1842 C1823 1.247 . S
C1843 O1840 1.244 . S
C1843 O1841 1.240 . S
H1844 C1818 0.931 . S
H1845 C1827 0.931 . S
H1846 C1831 0.929 . S
H1847 C1833 0.930 . S
Co1848 N1852 2.148 . S
Co1848 N1858 2.128 . S
Co1848 N1868 2.194 . S
Co1848 O1873 2.351 . S
Co1848 O1874 2.155 . S
Co1848 O1875 2.096 . S
C1849 N1852 1.301 . S
C1849 N1853 1.328 . S
C1849 H1854 0.930 . S
C1850 C1851 1.333 . S
C1850 N1852 1.317 . S
C1850 H1855 0.930 . S
C1851 C1850 1.333 . S
C1851 N1853 1.350 . S
C1851 H1877 0.931 . S
N1852 Co1848 2.148 . S
N1852 C1849 1.301 . S
N1852 C1850 1.317 . S
N1853 C1849 1.328 . S
N1853 C1851 1.350 . S
H1854 C1849 0.930 . S
H1855 C1850 0.930 . S
C1856 O1857 1.224 . S
C1856 O1875 1.247 . S
O1857 C1856 1.224 . S
N1858 Co1848 2.128 . S
N1858 C1859 1.355 . S
N1858 C1861 1.311 . S
C1859 N1858 1.355 . S
C1859 C1860 1.363 . S
C1859 H1871 0.929 . S
C1860 C1859 1.363 . S
C1860 N1862 1.375 . S
C1860 H1878 0.931 . S
C1861 N1858 1.311 . S
C1861 N1862 1.347 . S
C1861 H1872 0.929 . S
N1862 C1860 1.375 . S
N1862 C1861 1.347 . S
C1863 C1866 1.365 . S
C1863 N1868 1.328 . S
C1863 H1869 0.929 . S
C1864 C1865 1.362 . S
C1864 C1867 1.378 . S
C1864 H1879 0.929 . S
C1865 C1864 1.362 . S
C1865 C1866 1.366 . S
C1866 C1863 1.365 . S
C1866 C1865 1.366 . S
C1866 H1880 0.930 . S
C1867 C1864 1.378 . S
C1867 N1868 1.315 . S
C1867 H1870 0.930 . S
N1868 Co1848 2.194 . S
N1868 C1863 1.328 . S
N1868 C1867 1.315 . S
H1869 C1863 0.929 . S
H1870 C1867 0.930 . S
H1871 C1859 0.929 . S
H1872 C1861 0.929 . S
O1873 Co1848 2.351 . S
O1873 C1876 1.244 . S
O1874 Co1848 2.155 . S
O1874 C1876 1.240 . S
O1875 Co1848 2.096 . S
O1875 C1856 1.247 . S
C1876 O1873 1.244 . S
C1876 O1874 1.240 . S
H1877 C1851 0.931 . S
H1878 C1860 0.931 . S
H1879 C1864 0.929 . S
H1880 C1866 0.930 . S
Co1881 N1885 2.148 . S
Co1881 N1891 2.128 . S
Co1881 N1901 2.194 . S
Co1881 O1906 2.351 . S
Co1881 O1907 2.155 . S
Co1881 O1908 2.096 . S
C1882 N1885 1.301 . S
C1882 N1886 1.328 . S
C1882 H1887 0.930 . S
C1883 C1884 1.333 . S
C1883 N1885 1.317 . S
C1883 H1888 0.930 . S
C1884 C1883 1.333 . S
C1884 N1886 1.350 . S
C1884 H1910 0.931 . S
N1885 Co1881 2.148 . S
N1885 C1882 1.301 . S
N1885 C1883 1.317 . S
N1886 C1882 1.328 . S
N1886 C1884 1.350 . S
H1887 C1882 0.930 . S
H1888 C1883 0.930 . S
C1889 O1890 1.224 . S
C1889 O1908 1.247 . S
O1890 C1889 1.224 . S
N1891 Co1881 2.128 . S
N1891 C1892 1.355 . S
N1891 C1894 1.311 . S
C1892 N1891 1.355 . S
C1892 C1893 1.363 . S
C1892 H1904 0.929 . S
C1893 C1892 1.363 . S
C1893 N1895 1.375 . S
C1893 H1911 0.931 . S
C1894 N1891 1.311 . S
C1894 N1895 1.347 . S
C1894 H1905 0.929 . S
N1895 C1893 1.375 . S
N1895 C1894 1.347 . S
C1896 C1899 1.365 . S
C1896 N1901 1.328 . S
C1896 H1902 0.929 . S
C1897 C1898 1.362 . S
C1897 C1900 1.378 . S
C1897 H1912 0.929 . S
C1898 C1897 1.362 . S
C1898 C1899 1.366 . S
C1899 C1896 1.365 . S
C1899 C1898 1.366 . S
C1899 H1913 0.930 . S
C1900 C1897 1.378 . S
C1900 N1901 1.315 . S
C1900 H1903 0.930 . S
N1901 Co1881 2.194 . S
N1901 C1896 1.328 . S
N1901 C1900 1.315 . S
H1902 C1896 0.929 . S
H1903 C1900 0.930 . S
H1904 C1892 0.929 . S
H1905 C1894 0.929 . S
O1906 Co1881 2.351 . S
O1906 C1909 1.244 . S
O1907 Co1881 2.155 . S
O1907 C1909 1.240 . S
O1908 Co1881 2.096 . S
O1908 C1889 1.247 . S
C1909 O1906 1.244 . S
C1909 O1907 1.240 . S
H1910 C1884 0.931 . S
H1911 C1893 0.931 . S
H1912 C1897 0.929 . S
H1913 C1899 0.930 . S
Co1914 N1918 2.148 . S
Co1914 N1924 2.128 . S
Co1914 N1934 2.194 . S
Co1914 O1939 2.351 . S
Co1914 O1940 2.155 . S
Co1914 O1941 2.096 . S
C1915 N1918 1.301 . S
C1915 N1919 1.328 1_554 S
C1915 H1920 0.930 . S
C1916 C1917 1.333 . S
C1916 N1918 1.317 1_556 S
C1916 H1921 0.930 . S
C1917 C1916 1.333 . S
C1917 N1919 1.350 . S
C1917 H1943 0.931 . S
N1918 Co1914 2.148 . S
N1918 C1915 1.301 . S
N1918 C1916 1.317 1_554 S
N1919 C1915 1.328 1_556 S
N1919 C1917 1.350 . S
H1920 C1915 0.930 . S
H1921 C1916 0.930 . S
C1922 O1923 1.224 . S
C1922 O1941 1.247 . S
O1923 C1922 1.224 . S
N1924 Co1914 2.128 . S
N1924 C1925 1.355 . S
N1924 C1927 1.311 . S
C1925 N1924 1.355 . S
C1925 C1926 1.363 . S
C1925 H1937 0.929 . S
C1926 C1925 1.363 . S
C1926 N1928 1.375 . S
C1926 H1944 0.931 . S
C1927 N1924 1.311 . S
C1927 N1928 1.347 . S
C1927 H1938 0.929 . S
N1928 C1926 1.375 . S
N1928 C1927 1.347 . S
C1929 C1932 1.365 . S
C1929 N1934 1.328 . S
C1929 H1935 0.929 . S
C1930 C1931 1.362 . S
C1930 C1933 1.378 . S
C1930 H1945 0.929 . S
C1931 C1930 1.362 . S
C1931 C1932 1.366 . S
C1932 C1929 1.365 . S
C1932 C1931 1.366 . S
C1932 H1946 0.930 . S
C1933 C1930 1.378 . S
C1933 N1934 1.315 . S
C1933 H1936 0.930 . S
N1934 Co1914 2.194 . S
N1934 C1929 1.328 . S
N1934 C1933 1.315 . S
H1935 C1929 0.929 . S
H1936 C1933 0.930 . S
H1937 C1925 0.929 . S
H1938 C1927 0.929 . S
O1939 Co1914 2.351 . S
O1939 C1942 1.244 . S
O1940 Co1914 2.155 . S
O1940 C1942 1.240 . S
O1941 Co1914 2.096 . S
O1941 C1922 1.247 . S
C1942 O1939 1.244 . S
C1942 O1940 1.240 . S
H1943 C1917 0.931 . S
H1944 C1926 0.931 . S
H1945 C1930 0.929 . S
H1946 C1932 0.930 . S
Co1947 N1951 2.148 . S
Co1947 N1957 2.128 . S
Co1947 N1967 2.194 . S
Co1947 O1972 2.351 . S
Co1947 O1973 2.155 . S
Co1947 O1974 2.096 . S
C1948 N1951 1.301 . S
C1948 N1952 1.328 . S
C1948 H1953 0.930 . S
C1949 C1950 1.333 . S
C1949 N1951 1.317 . S
C1949 H1954 0.930 . S
C1950 C1949 1.333 . S
C1950 N1952 1.350 . S
C1950 H1976 0.931 . S
N1951 Co1947 2.148 . S
N1951 C1948 1.301 . S
N1951 C1949 1.317 . S
N1952 C1948 1.328 . S
N1952 C1950 1.350 . S
H1953 C1948 0.930 . S
H1954 C1949 0.930 . S
C1955 O1956 1.224 . S
C1955 O1974 1.247 . S
O1956 C1955 1.224 . S
N1957 Co1947 2.128 . S
N1957 C1958 1.355 . S
N1957 C1960 1.311 . S
C1958 N1957 1.355 . S
C1958 C1959 1.363 . S
C1958 H1970 0.929 . S
C1959 C1958 1.363 . S
C1959 N1961 1.375 . S
C1959 H1977 0.931 . S
C1960 N1957 1.311 . S
C1960 N1961 1.347 . S
C1960 H1971 0.929 . S
N1961 C1959 1.375 . S
N1961 C1960 1.347 . S
C1962 C1965 1.365 . S
C1962 N1967 1.328 . S
C1962 H1968 0.929 . S
C1963 C1964 1.362 . S
C1963 C1966 1.378 . S
C1963 H1978 0.929 . S
C1964 C1963 1.362 . S
C1964 C1965 1.366 . S
C1965 C1962 1.365 . S
C1965 C1964 1.366 . S
C1965 H1979 0.930 . S
C1966 C1963 1.378 . S
C1966 N1967 1.315 . S
C1966 H1969 0.930 . S
N1967 Co1947 2.194 . S
N1967 C1962 1.328 . S
N1967 C1966 1.315 . S
H1968 C1962 0.929 . S
H1969 C1966 0.930 . S
H1970 C1958 0.929 . S
H1971 C1960 0.929 . S
O1972 Co1947 2.351 . S
O1972 C1975 1.244 . S
O1973 Co1947 2.155 . S
O1973 C1975 1.240 . S
O1974 Co1947 2.096 . S
O1974 C1955 1.247 . S
C1975 O1972 1.244 . S
C1975 O1973 1.240 . S
H1976 C1950 0.931 . S
H1977 C1959 0.931 . S
H1978 C1963 0.929 . S
H1979 C1965 0.930 . S
Co1980 N1984 2.148 . S
Co1980 N1990 2.128 . S
Co1980 N2000 2.194 . S
Co1980 O2005 2.351 . S
Co1980 O2006 2.155 . S
Co1980 O2007 2.096 . S
C1981 N1984 1.301 . S
C1981 N1985 1.328 1_556 S
C1981 H1986 0.930 . S
C1982 C1983 1.333 . S
C1982 N1984 1.317 1_554 S
C1982 H1987 0.930 . S
C1983 C1982 1.333 . S
C1983 N1985 1.350 . S
C1983 H2009 0.931 . S
N1984 Co1980 2.148 . S
N1984 C1981 1.301 . S
N1984 C1982 1.317 1_556 S
N1985 C1981 1.328 1_554 S
N1985 C1983 1.350 . S
H1986 C1981 0.930 . S
H1987 C1982 0.930 . S
C1988 O1989 1.224 . S
C1988 O2007 1.247 . S
O1989 C1988 1.224 . S
N1990 Co1980 2.128 . S
N1990 C1991 1.355 . S
N1990 C1993 1.311 . S
C1991 N1990 1.355 . S
C1991 C1992 1.363 . S
C1991 H2003 0.929 . S
C1992 C1991 1.363 . S
C1992 N1994 1.375 . S
C1992 H2010 0.931 . S
C1993 N1990 1.311 . S
C1993 N1994 1.347 . S
C1993 H2004 0.929 . S
N1994 C1992 1.375 . S
N1994 C1993 1.347 . S
C1995 C1998 1.365 . S
C1995 N2000 1.328 . S
C1995 H2001 0.929 . S
C1996 C1997 1.362 . S
C1996 C1999 1.378 . S
C1996 H2011 0.929 . S
C1997 C1996 1.362 . S
C1997 C1998 1.366 . S
C1998 C1995 1.365 . S
C1998 C1997 1.366 . S
C1998 H2012 0.930 . S
C1999 C1996 1.378 . S
C1999 N2000 1.315 . S
C1999 H2002 0.930 . S
N2000 Co1980 2.194 . S
N2000 C1995 1.328 . S
N2000 C1999 1.315 . S
H2001 C1995 0.929 . S
H2002 C1999 0.930 . S
H2003 C1991 0.929 . S
H2004 C1993 0.929 . S
O2005 Co1980 2.351 . S
O2005 C2008 1.244 . S
O2006 Co1980 2.155 . S
O2006 C2008 1.240 . S
O2007 Co1980 2.096 . S
O2007 C1988 1.247 . S
C2008 O2005 1.244 . S
C2008 O2006 1.240 . S
H2009 C1983 0.931 . S
H2010 C1992 0.931 . S
H2011 C1996 0.929 . S
H2012 C1998 0.930 . S
Co2013 N2017 2.148 . S
Co2013 N2023 2.128 . S
Co2013 N2033 2.194 . S
Co2013 O2038 2.351 . S
Co2013 O2039 2.155 . S
Co2013 O2040 2.096 . S
C2014 N2017 1.301 . S
C2014 N2018 1.328 . S
C2014 H2019 0.930 . S
C2015 C2016 1.333 . S
C2015 N2017 1.317 . S
C2015 H2020 0.930 . S
C2016 C2015 1.333 . S
C2016 N2018 1.350 . S
C2016 H2042 0.931 . S
N2017 Co2013 2.148 . S
N2017 C2014 1.301 . S
N2017 C2015 1.317 . S
N2018 C2014 1.328 . S
N2018 C2016 1.350 . S
H2019 C2014 0.930 . S
H2020 C2015 0.930 . S
C2021 O2022 1.224 . S
C2021 O2040 1.247 . S
O2022 C2021 1.224 . S
N2023 Co2013 2.128 . S
N2023 C2024 1.355 . S
N2023 C2026 1.311 . S
C2024 N2023 1.355 . S
C2024 C2025 1.363 . S
C2024 H2036 0.929 . S
C2025 C2024 1.363 . S
C2025 N2027 1.375 . S
C2025 H2043 0.931 . S
C2026 N2023 1.311 . S
C2026 N2027 1.347 . S
C2026 H2037 0.929 . S
N2027 C2025 1.375 . S
N2027 C2026 1.347 . S
C2028 C2031 1.365 . S
C2028 N2033 1.328 . S
C2028 H2034 0.929 . S
C2029 C2030 1.362 . S
C2029 C2032 1.378 . S
C2029 H2044 0.929 . S
C2030 C2029 1.362 . S
C2030 C2031 1.366 . S
C2031 C2028 1.365 . S
C2031 C2030 1.366 . S
C2031 H2045 0.930 . S
C2032 C2029 1.378 . S
C2032 N2033 1.315 . S
C2032 H2035 0.930 . S
N2033 Co2013 2.194 . S
N2033 C2028 1.328 . S
N2033 C2032 1.315 . S
H2034 C2028 0.929 . S
H2035 C2032 0.930 . S
H2036 C2024 0.929 . S
H2037 C2026 0.929 . S
O2038 Co2013 2.351 . S
O2038 C2041 1.244 . S
O2039 Co2013 2.155 . S
O2039 C2041 1.240 . S
O2040 Co2013 2.096 . S
O2040 C2021 1.247 . S
C2041 O2038 1.244 . S
C2041 O2039 1.240 . S
H2042 C2016 0.931 . S
H2043 C2025 0.931 . S
H2044 C2029 0.929 . S
H2045 C2031 0.930 . S
Co2046 N2050 2.148 . S
Co2046 N2056 2.128 . S
Co2046 N2066 2.194 . S
Co2046 O2071 2.351 . S
Co2046 O2072 2.155 . S
Co2046 O2073 2.096 . S
C2047 N2050 1.301 . S
C2047 N2051 1.328 . S
C2047 H2052 0.930 . S
C2048 C2049 1.333 . S
C2048 N2050 1.317 . S
C2048 H2053 0.930 . S
C2049 C2048 1.333 . S
C2049 N2051 1.350 . S
C2049 H2075 0.931 . S
N2050 Co2046 2.148 . S
N2050 C2047 1.301 . S
N2050 C2048 1.317 . S
N2051 C2047 1.328 . S
N2051 C2049 1.350 . S
H2052 C2047 0.930 . S
H2053 C2048 0.930 . S
C2054 O2055 1.224 . S
C2054 O2073 1.247 . S
O2055 C2054 1.224 . S
N2056 Co2046 2.128 . S
N2056 C2057 1.355 . S
N2056 C2059 1.311 . S
C2057 N2056 1.355 . S
C2057 C2058 1.363 . S
C2057 H2069 0.929 . S
C2058 C2057 1.363 . S
C2058 N2060 1.375 . S
C2058 H2076 0.931 . S
C2059 N2056 1.311 . S
C2059 N2060 1.347 . S
C2059 H2070 0.929 . S
N2060 C2058 1.375 . S
N2060 C2059 1.347 . S
C2061 C2064 1.365 . S
C2061 N2066 1.328 . S
C2061 H2067 0.929 . S
C2062 C2063 1.362 . S
C2062 C2065 1.378 . S
C2062 H2077 0.929 . S
C2063 C2062 1.362 . S
C2063 C2064 1.366 . S
C2064 C2061 1.365 . S
C2064 C2063 1.366 . S
C2064 H2078 0.930 . S
C2065 C2062 1.378 . S
C2065 N2066 1.315 . S
C2065 H2068 0.930 . S
N2066 Co2046 2.194 . S
N2066 C2061 1.328 . S
N2066 C2065 1.315 . S
H2067 C2061 0.929 . S
H2068 C2065 0.930 . S
H2069 C2057 0.929 . S
H2070 C2059 0.929 . S
O2071 Co2046 2.351 . S
O2071 C2074 1.244 . S
O2072 Co2046 2.155 . S
O2072 C2074 1.240 . S
O2073 Co2046 2.096 . S
O2073 C2054 1.247 . S
C2074 O2071 1.244 . S
C2074 O2072 1.240 . S
H2075 C2049 0.931 . S
H2076 C2058 0.931 . S
H2077 C2062 0.929 . S
H2078 C2064 0.930 . S
Co2079 N2083 2.148 . S
Co2079 N2089 2.128 . S
Co2079 N2099 2.194 . S
Co2079 O2104 2.351 . S
Co2079 O2105 2.155 . S
Co2079 O2106 2.096 . S
C2080 N2083 1.301 . S
C2080 N2084 1.328 . S
C2080 H2085 0.930 . S
C2081 C2082 1.333 . S
C2081 N2083 1.317 . S
C2081 H2086 0.930 . S
C2082 C2081 1.333 . S
C2082 N2084 1.350 . S
C2082 H2108 0.931 . S
N2083 Co2079 2.148 . S
N2083 C2080 1.301 . S
N2083 C2081 1.317 . S
N2084 C2080 1.328 . S
N2084 C2082 1.350 . S
H2085 C2080 0.930 . S
H2086 C2081 0.930 . S
C2087 O2088 1.224 . S
C2087 O2106 1.247 . S
O2088 C2087 1.224 . S
N2089 Co2079 2.128 . S
N2089 C2090 1.355 . S
N2089 C2092 1.311 . S
C2090 N2089 1.355 . S
C2090 C2091 1.363 . S
C2090 H2102 0.929 . S
C2091 C2090 1.363 . S
C2091 N2093 1.375 . S
C2091 H2109 0.931 . S
C2092 N2089 1.311 . S
C2092 N2093 1.347 . S
C2092 H2103 0.929 . S
N2093 C2091 1.375 . S
N2093 C2092 1.347 . S
C2094 C2097 1.365 . S
C2094 N2099 1.328 . S
C2094 H2100 0.929 . S
C2095 C2096 1.362 . S
C2095 C2098 1.378 . S
C2095 H2110 0.929 . S
C2096 C2095 1.362 . S
C2096 C2097 1.366 . S
C2097 C2094 1.365 . S
C2097 C2096 1.366 . S
C2097 H2111 0.930 . S
C2098 C2095 1.378 . S
C2098 N2099 1.315 . S
C2098 H2101 0.930 . S
N2099 Co2079 2.194 . S
N2099 C2094 1.328 . S
N2099 C2098 1.315 . S
H2100 C2094 0.929 . S
H2101 C2098 0.930 . S
H2102 C2090 0.929 . S
H2103 C2092 0.929 . S
O2104 Co2079 2.351 . S
O2104 C2107 1.244 . S
O2105 Co2079 2.155 . S
O2105 C2107 1.240 . S
O2106 Co2079 2.096 . S
O2106 C2087 1.247 . S
C2107 O2104 1.244 . S
C2107 O2105 1.240 . S
H2108 C2082 0.931 . S
H2109 C2091 0.931 . S
H2110 C2095 0.929 . S
H2111 C2097 0.930 . S
Co2112 N2116 2.148 . S
Co2112 N2122 2.128 . S
Co2112 N2132 2.194 . S
Co2112 O2137 2.351 . S
Co2112 O2138 2.155 . S
Co2112 O2139 2.096 . S
C2113 N2116 1.301 . S
C2113 N2117 1.328 . S
C2113 H2118 0.930 . S
C2114 C2115 1.333 . S
C2114 N2116 1.317 . S
C2114 H2119 0.930 . S
C2115 C2114 1.333 . S
C2115 N2117 1.350 . S
C2115 H2141 0.931 . S
N2116 Co2112 2.148 . S
N2116 C2113 1.301 . S
N2116 C2114 1.317 . S
N2117 C2113 1.328 . S
N2117 C2115 1.350 . S
H2118 C2113 0.930 . S
H2119 C2114 0.930 . S
C2120 O2121 1.224 . S
C2120 O2139 1.247 . S
O2121 C2120 1.224 . S
N2122 Co2112 2.128 . S
N2122 C2123 1.355 . S
N2122 C2125 1.311 . S
C2123 N2122 1.355 . S
C2123 C2124 1.363 . S
C2123 H2135 0.929 . S
C2124 C2123 1.363 . S
C2124 N2126 1.375 . S
C2124 H2142 0.931 . S
C2125 N2122 1.311 . S
C2125 N2126 1.347 . S
C2125 H2136 0.929 . S
N2126 C2124 1.375 . S
N2126 C2125 1.347 . S
C2127 C2130 1.365 . S
C2127 N2132 1.328 . S
C2127 H2133 0.929 . S
C2128 C2129 1.362 . S
C2128 C2131 1.378 . S
C2128 H2143 0.929 . S
C2129 C2128 1.362 . S
C2129 C2130 1.366 . S
C2130 C2127 1.365 . S
C2130 C2129 1.366 . S
C2130 H2144 0.930 . S
C2131 C2128 1.378 . S
C2131 N2132 1.315 . S
C2131 H2134 0.930 . S
N2132 Co2112 2.194 . S
N2132 C2127 1.328 . S
N2132 C2131 1.315 . S
H2133 C2127 0.929 . S
H2134 C2131 0.930 . S
H2135 C2123 0.929 . S
H2136 C2125 0.929 . S
O2137 Co2112 2.351 . S
O2137 C2140 1.244 . S
O2138 Co2112 2.155 . S
O2138 C2140 1.240 . S
O2139 Co2112 2.096 . S
O2139 C2120 1.247 . S
C2140 O2137 1.244 . S
C2140 O2138 1.240 . S
H2141 C2115 0.931 . S
H2142 C2124 0.931 . S
H2143 C2128 0.929 . S
H2144 C2130 0.930 . S
Co2145 N2149 2.148 . S
Co2145 N2155 2.128 . S
Co2145 N2165 2.194 . S
Co2145 O2170 2.351 . S
Co2145 O2171 2.155 . S
Co2145 O2172 2.096 . S
C2146 N2149 1.301 . S
C2146 N2150 1.328 1_455 S
C2146 H2151 0.930 . S
C2147 C2148 1.333 . S
C2147 N2149 1.317 1_655 S
C2147 H2152 0.930 . S
C2148 C2147 1.333 . S
C2148 N2150 1.350 . S
C2148 H2174 0.931 . S
N2149 Co2145 2.148 . S
N2149 C2146 1.301 . S
N2149 C2147 1.317 1_455 S
N2150 C2146 1.328 1_655 S
N2150 C2148 1.350 . S
H2151 C2146 0.930 . S
H2152 C2147 0.930 . S
C2153 O2154 1.224 . S
C2153 O2172 1.247 . S
O2154 C2153 1.224 . S
N2155 Co2145 2.128 . S
N2155 C2156 1.355 . S
N2155 C2158 1.311 . S
C2156 N2155 1.355 . S
C2156 C2157 1.363 . S
C2156 H2168 0.929 . S
C2157 C2156 1.363 . S
C2157 N2159 1.375 . S
C2157 H2175 0.931 . S
C2158 N2155 1.311 . S
C2158 N2159 1.347 . S
C2158 H2169 0.929 . S
N2159 C2157 1.375 . S
N2159 C2158 1.347 . S
C2160 C2163 1.365 . S
C2160 N2165 1.328 . S
C2160 H2166 0.929 . S
C2161 C2162 1.362 . S
C2161 C2164 1.378 . S
C2161 H2176 0.929 . S
C2162 C2161 1.362 . S
C2162 C2163 1.366 . S
C2163 C2160 1.365 . S
C2163 C2162 1.366 . S
C2163 H2177 0.930 . S
C2164 C2161 1.378 . S
C2164 N2165 1.315 . S
C2164 H2167 0.930 . S
N2165 Co2145 2.194 . S
N2165 C2160 1.328 . S
N2165 C2164 1.315 . S
H2166 C2160 0.929 . S
H2167 C2164 0.930 . S
H2168 C2156 0.929 . S
H2169 C2158 0.929 . S
O2170 Co2145 2.351 . S
O2170 C2173 1.244 . S
O2171 Co2145 2.155 . S
O2171 C2173 1.240 . S
O2172 Co2145 2.096 . S
O2172 C2153 1.247 . S
C2173 O2170 1.244 . S
C2173 O2171 1.240 . S
H2174 C2148 0.931 . S
H2175 C2157 0.931 . S
H2176 C2161 0.929 . S
H2177 C2163 0.930 . S
Co2178 N2182 2.148 . S
Co2178 N2188 2.128 . S
Co2178 N2198 2.194 . S
Co2178 O2203 2.351 . S
Co2178 O2204 2.155 . S
Co2178 O2205 2.096 . S
C2179 N2182 1.301 . S
C2179 N2183 1.328 . S
C2179 H2184 0.930 . S
C2180 C2181 1.333 . S
C2180 N2182 1.317 . S
C2180 H2185 0.930 . S
C2181 C2180 1.333 . S
C2181 N2183 1.350 . S
C2181 H2207 0.931 . S
N2182 Co2178 2.148 . S
N2182 C2179 1.301 . S
N2182 C2180 1.317 . S
N2183 C2179 1.328 . S
N2183 C2181 1.350 . S
H2184 C2179 0.930 . S
H2185 C2180 0.930 . S
C2186 O2187 1.224 . S
C2186 O2205 1.247 . S
O2187 C2186 1.224 . S
N2188 Co2178 2.128 . S
N2188 C2189 1.355 . S
N2188 C2191 1.311 . S
C2189 N2188 1.355 . S
C2189 C2190 1.363 . S
C2189 H2201 0.929 . S
C2190 C2189 1.363 . S
C2190 N2192 1.375 . S
C2190 H2208 0.931 . S
C2191 N2188 1.311 . S
C2191 N2192 1.347 . S
C2191 H2202 0.929 . S
N2192 C2190 1.375 . S
N2192 C2191 1.347 . S
C2193 C2196 1.365 . S
C2193 N2198 1.328 . S
C2193 H2199 0.929 . S
C2194 C2195 1.362 . S
C2194 C2197 1.378 . S
C2194 H2209 0.929 . S
C2195 C2194 1.362 . S
C2195 C2196 1.366 . S
C2196 C2193 1.365 . S
C2196 C2195 1.366 . S
C2196 H2210 0.930 . S
C2197 C2194 1.378 . S
C2197 N2198 1.315 . S
C2197 H2200 0.930 . S
N2198 Co2178 2.194 . S
N2198 C2193 1.328 . S
N2198 C2197 1.315 . S
H2199 C2193 0.929 . S
H2200 C2197 0.930 . S
H2201 C2189 0.929 . S
H2202 C2191 0.929 . S
O2203 Co2178 2.351 . S
O2203 C2206 1.244 . S
O2204 Co2178 2.155 . S
O2204 C2206 1.240 . S
O2205 Co2178 2.096 . S
O2205 C2186 1.247 . S
C2206 O2203 1.244 . S
C2206 O2204 1.240 . S
H2207 C2181 0.931 . S
H2208 C2190 0.931 . S
H2209 C2194 0.929 . S
H2210 C2196 0.930 . S
Co2211 N2215 2.148 . S
Co2211 N2221 2.128 . S
Co2211 N2231 2.194 . S
Co2211 O2236 2.351 . S
Co2211 O2237 2.155 . S
Co2211 O2238 2.096 . S
C2212 N2215 1.301 . S
C2212 N2216 1.328 . S
C2212 H2217 0.930 . S
C2213 C2214 1.333 . S
C2213 N2215 1.317 . S
C2213 H2218 0.930 . S
C2214 C2213 1.333 . S
C2214 N2216 1.350 . S
C2214 H2240 0.931 . S
N2215 Co2211 2.148 . S
N2215 C2212 1.301 . S
N2215 C2213 1.317 . S
N2216 C2212 1.328 . S
N2216 C2214 1.350 . S
H2217 C2212 0.930 . S
H2218 C2213 0.930 . S
C2219 O2220 1.224 . S
C2219 O2238 1.247 1_554 S
O2220 C2219 1.224 . S
N2221 Co2211 2.128 . S
N2221 C2222 1.355 . S
N2221 C2224 1.311 . S
C2222 N2221 1.355 . S
C2222 C2223 1.363 . S
C2222 H2234 0.929 . S
C2223 C2222 1.363 . S
C2223 N2225 1.375 . S
C2223 H2241 0.931 . S
C2224 N2221 1.311 . S
C2224 N2225 1.347 . S
C2224 H2235 0.929 . S
N2225 C2223 1.375 . S
N2225 C2224 1.347 . S
C2226 C2229 1.365 . S
C2226 N2231 1.328 . S
C2226 H2232 0.929 . S
C2227 C2228 1.362 . S
C2227 C2230 1.378 . S
C2227 H2242 0.929 . S
C2228 C2227 1.362 . S
C2228 C2229 1.366 1_554 S
C2229 C2226 1.365 . S
C2229 C2228 1.366 1_556 S
C2229 H2243 0.930 . S
C2230 C2227 1.378 . S
C2230 N2231 1.315 1_554 S
C2230 H2233 0.930 . S
N2231 Co2211 2.194 . S
N2231 C2226 1.328 . S
N2231 C2230 1.315 1_556 S
H2232 C2226 0.929 . S
H2233 C2230 0.930 . S
H2234 C2222 0.929 . S
H2235 C2224 0.929 . S
O2236 Co2211 2.351 . S
O2236 C2239 1.244 . S
O2237 Co2211 2.155 . S
O2237 C2239 1.240 . S
O2238 Co2211 2.096 . S
O2238 C2219 1.247 1_556 S
C2239 O2236 1.244 . S
C2239 O2237 1.240 . S
H2240 C2214 0.931 . S
H2241 C2223 0.931 . S
H2242 C2227 0.929 . S
H2243 C2229 0.930 . S
Co2244 N2248 2.148 . S
Co2244 N2254 2.128 . S
Co2244 N2264 2.194 . S
Co2244 O2269 2.351 . S
Co2244 O2270 2.155 . S
Co2244 O2271 2.096 . S
C2245 N2248 1.301 . S
C2245 N2249 1.328 . S
C2245 H2250 0.930 . S
C2246 C2247 1.333 . S
C2246 N2248 1.317 . S
C2246 H2251 0.930 . S
C2247 C2246 1.333 . S
C2247 N2249 1.350 . S
C2247 H2273 0.931 . S
N2248 Co2244 2.148 . S
N2248 C2245 1.301 . S
N2248 C2246 1.317 . S
N2249 C2245 1.328 . S
N2249 C2247 1.350 . S
H2250 C2245 0.930 . S
H2251 C2246 0.930 . S
C2252 O2253 1.224 . S
C2252 O2271 1.247 . S
O2253 C2252 1.224 . S
N2254 Co2244 2.128 . S
N2254 C2255 1.355 . S
N2254 C2257 1.311 . S
C2255 N2254 1.355 . S
C2255 C2256 1.363 . S
C2255 H2267 0.929 . S
C2256 C2255 1.363 . S
C2256 N2258 1.375 . S
C2256 H2274 0.931 . S
C2257 N2254 1.311 . S
C2257 N2258 1.347 . S
C2257 H2268 0.929 . S
N2258 C2256 1.375 . S
N2258 C2257 1.347 . S
C2259 C2262 1.365 . S
C2259 N2264 1.328 . S
C2259 H2265 0.929 . S
C2260 C2261 1.362 . S
C2260 C2263 1.378 . S
C2260 H2275 0.929 . S
C2261 C2260 1.362 . S
C2261 C2262 1.366 . S
C2262 C2259 1.365 . S
C2262 C2261 1.366 . S
C2262 H2276 0.930 . S
C2263 C2260 1.378 . S
C2263 N2264 1.315 . S
C2263 H2266 0.930 . S
N2264 Co2244 2.194 . S
N2264 C2259 1.328 . S
N2264 C2263 1.315 . S
H2265 C2259 0.929 . S
H2266 C2263 0.930 . S
H2267 C2255 0.929 . S
H2268 C2257 0.929 . S
O2269 Co2244 2.351 . S
O2269 C2272 1.244 . S
O2270 Co2244 2.155 . S
O2270 C2272 1.240 . S
O2271 Co2244 2.096 . S
O2271 C2252 1.247 . S
C2272 O2269 1.244 . S
C2272 O2270 1.240 . S
H2273 C2247 0.931 . S
H2274 C2256 0.931 . S
H2275 C2260 0.929 . S
H2276 C2262 0.930 . S
Co2277 N2281 2.148 . S
Co2277 N2287 2.128 . S
Co2277 N2297 2.194 . S
Co2277 O2302 2.351 . S
Co2277 O2303 2.155 . S
Co2277 O2304 2.096 . S
C2278 N2281 1.301 . S
C2278 N2282 1.328 1_655 S
C2278 H2283 0.930 . S
C2279 C2280 1.333 . S
C2279 N2281 1.317 1_455 S
C2279 H2284 0.930 . S
C2280 C2279 1.333 . S
C2280 N2282 1.350 . S
C2280 H2306 0.931 . S
N2281 Co2277 2.148 . S
N2281 C2278 1.301 . S
N2281 C2279 1.317 1_655 S
N2282 C2278 1.328 1_455 S
N2282 C2280 1.350 . S
H2283 C2278 0.930 . S
H2284 C2279 0.930 . S
C2285 O2286 1.224 . S
C2285 O2304 1.247 1_556 S
O2286 C2285 1.224 . S
N2287 Co2277 2.128 . S
N2287 C2288 1.355 . S
N2287 C2290 1.311 . S
C2288 N2287 1.355 . S
C2288 C2289 1.363 . S
C2288 H2300 0.929 . S
C2289 C2288 1.363 . S
C2289 N2291 1.375 . S
C2289 H2307 0.931 . S
C2290 N2287 1.311 . S
C2290 N2291 1.347 . S
C2290 H2301 0.929 . S
N2291 C2289 1.375 . S
N2291 C2290 1.347 . S
C2292 C2295 1.365 . S
C2292 N2297 1.328 . S
C2292 H2298 0.929 . S
C2293 C2294 1.362 . S
C2293 C2296 1.378 . S
C2293 H2308 0.929 . S
C2294 C2293 1.362 . S
C2294 C2295 1.366 1_556 S
C2295 C2292 1.365 . S
C2295 C2294 1.366 1_554 S
C2295 H2309 0.930 . S
C2296 C2293 1.378 . S
C2296 N2297 1.315 1_556 S
C2296 H2299 0.930 . S
N2297 Co2277 2.194 . S
N2297 C2292 1.328 . S
N2297 C2296 1.315 1_554 S
H2298 C2292 0.929 . S
H2299 C2296 0.930 . S
H2300 C2288 0.929 . S
H2301 C2290 0.929 . S
O2302 Co2277 2.351 . S
O2302 C2305 1.244 . S
O2303 Co2277 2.155 . S
O2303 C2305 1.240 . S
O2304 Co2277 2.096 . S
O2304 C2285 1.247 1_554 S
C2305 O2302 1.244 . S
C2305 O2303 1.240 . S
H2306 C2280 0.931 . S
H2307 C2289 0.931 . S
H2308 C2293 0.929 . S
H2309 C2295 0.930 . S
Co2310 N2314 2.148 . S
Co2310 N2320 2.128 . S
Co2310 N2330 2.194 . S
Co2310 O2335 2.351 . S
Co2310 O2336 2.155 . S
Co2310 O2337 2.096 . S
C2311 N2314 1.301 . S
C2311 N2315 1.328 . S
C2311 H2316 0.930 . S
C2312 C2313 1.333 . S
C2312 N2314 1.317 . S
C2312 H2317 0.930 . S
C2313 C2312 1.333 . S
C2313 N2315 1.350 . S
C2313 H2339 0.931 . S
N2314 Co2310 2.148 . S
N2314 C2311 1.301 . S
N2314 C2312 1.317 . S
N2315 C2311 1.328 . S
N2315 C2313 1.350 . S
H2316 C2311 0.930 . S
H2317 C2312 0.930 . S
C2318 O2319 1.224 . S
C2318 O2337 1.247 . S
O2319 C2318 1.224 . S
N2320 Co2310 2.128 . S
N2320 C2321 1.355 . S
N2320 C2323 1.311 . S
C2321 N2320 1.355 . S
C2321 C2322 1.363 . S
C2321 H2333 0.929 . S
C2322 C2321 1.363 . S
C2322 N2324 1.375 . S
C2322 H2340 0.931 . S
C2323 N2320 1.311 . S
C2323 N2324 1.347 . S
C2323 H2334 0.929 . S
N2324 C2322 1.375 . S
N2324 C2323 1.347 . S
C2325 C2328 1.365 . S
C2325 N2330 1.328 . S
C2325 H2331 0.929 . S
C2326 C2327 1.362 . S
C2326 C2329 1.378 . S
C2326 H2341 0.929 . S
C2327 C2326 1.362 . S
C2327 C2328 1.366 . S
C2328 C2325 1.365 . S
C2328 C2327 1.366 . S
C2328 H2342 0.930 . S
C2329 C2326 1.378 . S
C2329 N2330 1.315 . S
C2329 H2332 0.930 . S
N2330 Co2310 2.194 . S
N2330 C2325 1.328 . S
N2330 C2329 1.315 . S
H2331 C2325 0.929 . S
H2332 C2329 0.930 . S
H2333 C2321 0.929 . S
H2334 C2323 0.929 . S
O2335 Co2310 2.351 . S
O2335 C2338 1.244 . S
O2336 Co2310 2.155 . S
O2336 C2338 1.240 . S
O2337 Co2310 2.096 . S
O2337 C2318 1.247 . S
C2338 O2335 1.244 . S
C2338 O2336 1.240 . S
H2339 C2313 0.931 . S
H2340 C2322 0.931 . S
H2341 C2326 0.929 . S
H2342 C2328 0.930 . S
Co2343 N2347 2.148 . S
Co2343 N2353 2.128 . S
Co2343 N2363 2.194 . S
Co2343 O2368 2.351 . S
Co2343 O2369 2.155 . S
Co2343 O2370 2.096 . S
C2344 N2347 1.301 . S
C2344 N2348 1.328 . S
C2344 H2349 0.930 . S
C2345 C2346 1.333 . S
C2345 N2347 1.317 . S
C2345 H2350 0.930 . S
C2346 C2345 1.333 . S
C2346 N2348 1.350 . S
C2346 H2372 0.931 . S
N2347 Co2343 2.148 . S
N2347 C2344 1.301 . S
N2347 C2345 1.317 . S
N2348 C2344 1.328 . S
N2348 C2346 1.350 . S
H2349 C2344 0.930 . S
H2350 C2345 0.930 . S
C2351 O2352 1.224 . S
C2351 O2370 1.247 . S
O2352 C2351 1.224 . S
N2353 Co2343 2.128 . S
N2353 C2354 1.355 . S
N2353 C2356 1.311 . S
C2354 N2353 1.355 . S
C2354 C2355 1.363 . S
C2354 H2366 0.929 . S
C2355 C2354 1.363 . S
C2355 N2357 1.375 . S
C2355 H2373 0.931 . S
C2356 N2353 1.311 . S
C2356 N2357 1.347 . S
C2356 H2367 0.929 . S
N2357 C2355 1.375 . S
N2357 C2356 1.347 . S
C2358 C2361 1.365 . S
C2358 N2363 1.328 . S
C2358 H2364 0.929 . S
C2359 C2360 1.362 . S
C2359 C2362 1.378 . S
C2359 H2374 0.929 . S
C2360 C2359 1.362 . S
C2360 C2361 1.366 . S
C2361 C2358 1.365 . S
C2361 C2360 1.366 . S
C2361 H2375 0.930 . S
C2362 C2359 1.378 . S
C2362 N2363 1.315 . S
C2362 H2365 0.930 . S
N2363 Co2343 2.194 . S
N2363 C2358 1.328 . S
N2363 C2362 1.315 . S
H2364 C2358 0.929 . S
H2365 C2362 0.930 . S
H2366 C2354 0.929 . S
H2367 C2356 0.929 . S
O2368 Co2343 2.351 . S
O2368 C2371 1.244 . S
O2369 Co2343 2.155 . S
O2369 C2371 1.240 . S
O2370 Co2343 2.096 . S
O2370 C2351 1.247 . S
C2371 O2368 1.244 . S
C2371 O2369 1.240 . S
H2372 C2346 0.931 . S
H2373 C2355 0.931 . S
H2374 C2359 0.929 . S
H2375 C2361 0.930 . S
Co2376 N2380 2.148 . S
Co2376 N2386 2.128 . S
Co2376 N2396 2.194 . S
Co2376 O2401 2.351 . S
Co2376 O2402 2.155 . S
Co2376 O2403 2.096 . S
C2377 N2380 1.301 . S
C2377 N2381 1.328 . S
C2377 H2382 0.930 . S
C2378 C2379 1.333 . S
C2378 N2380 1.317 . S
C2378 H2383 0.930 . S
C2379 C2378 1.333 . S
C2379 N2381 1.350 . S
C2379 H2405 0.931 . S
N2380 Co2376 2.148 . S
N2380 C2377 1.301 . S
N2380 C2378 1.317 . S
N2381 C2377 1.328 . S
N2381 C2379 1.350 . S
H2382 C2377 0.930 . S
H2383 C2378 0.930 . S
C2384 O2385 1.224 . S
C2384 O2403 1.247 . S
O2385 C2384 1.224 . S
N2386 Co2376 2.128 . S
N2386 C2387 1.355 . S
N2386 C2389 1.311 . S
C2387 N2386 1.355 . S
C2387 C2388 1.363 . S
C2387 H2399 0.929 . S
C2388 C2387 1.363 . S
C2388 N2390 1.375 . S
C2388 H2406 0.931 . S
C2389 N2386 1.311 . S
C2389 N2390 1.347 . S
C2389 H2400 0.929 . S
N2390 C2388 1.375 . S
N2390 C2389 1.347 . S
C2391 C2394 1.365 . S
C2391 N2396 1.328 . S
C2391 H2397 0.929 . S
C2392 C2393 1.362 . S
C2392 C2395 1.378 . S
C2392 H2407 0.929 . S
C2393 C2392 1.362 . S
C2393 C2394 1.366 . S
C2394 C2391 1.365 . S
C2394 C2393 1.366 . S
C2394 H2408 0.930 . S
C2395 C2392 1.378 . S
C2395 N2396 1.315 . S
C2395 H2398 0.930 . S
N2396 Co2376 2.194 . S
N2396 C2391 1.328 . S
N2396 C2395 1.315 . S
H2397 C2391 0.929 . S
H2398 C2395 0.930 . S
H2399 C2387 0.929 . S
H2400 C2389 0.929 . S
O2401 Co2376 2.351 . S
O2401 C2404 1.244 . S
O2402 Co2376 2.155 . S
O2402 C2404 1.240 . S
O2403 Co2376 2.096 . S
O2403 C2384 1.247 . S
C2404 O2401 1.244 . S
C2404 O2402 1.240 . S
H2405 C2379 0.931 . S
H2406 C2388 0.931 . S
H2407 C2392 0.929 . S
H2408 C2394 0.930 . S
Co2409 N2413 2.148 . S
Co2409 N2419 2.128 . S
Co2409 N2429 2.194 . S
Co2409 O2434 2.351 . S
Co2409 O2435 2.155 . S
Co2409 O2436 2.096 . S
C2410 N2413 1.301 . S
C2410 N2414 1.328 . S
C2410 H2415 0.930 . S
C2411 C2412 1.333 . S
C2411 N2413 1.317 . S
C2411 H2416 0.930 . S
C2412 C2411 1.333 . S
C2412 N2414 1.350 . S
C2412 H2438 0.931 . S
N2413 Co2409 2.148 . S
N2413 C2410 1.301 . S
N2413 C2411 1.317 . S
N2414 C2410 1.328 . S
N2414 C2412 1.350 . S
H2415 C2410 0.930 . S
H2416 C2411 0.930 . S
C2417 O2418 1.224 . S
C2417 O2436 1.247 . S
O2418 C2417 1.224 . S
N2419 Co2409 2.128 . S
N2419 C2420 1.355 . S
N2419 C2422 1.311 . S
C2420 N2419 1.355 . S
C2420 C2421 1.363 . S
C2420 H2432 0.929 . S
C2421 C2420 1.363 . S
C2421 N2423 1.375 . S
C2421 H2439 0.931 . S
C2422 N2419 1.311 . S
C2422 N2423 1.347 . S
C2422 H2433 0.929 . S
N2423 C2421 1.375 . S
N2423 C2422 1.347 . S
C2424 C2427 1.365 . S
C2424 N2429 1.328 . S
C2424 H2430 0.929 . S
C2425 C2426 1.362 . S
C2425 C2428 1.378 . S
C2425 H2440 0.929 . S
C2426 C2425 1.362 . S
C2426 C2427 1.366 . S
C2427 C2424 1.365 . S
C2427 C2426 1.366 . S
C2427 H2441 0.930 . S
C2428 C2425 1.378 . S
C2428 N2429 1.315 . S
C2428 H2431 0.930 . S
N2429 Co2409 2.194 . S
N2429 C2424 1.328 . S
N2429 C2428 1.315 . S
H2430 C2424 0.929 . S
H2431 C2428 0.930 . S
H2432 C2420 0.929 . S
H2433 C2422 0.929 . S
O2434 Co2409 2.351 . S
O2434 C2437 1.244 . S
O2435 Co2409 2.155 . S
O2435 C2437 1.240 . S
O2436 Co2409 2.096 . S
O2436 C2417 1.247 . S
C2437 O2434 1.244 . S
C2437 O2435 1.240 . S
H2438 C2412 0.931 . S
H2439 C2421 0.931 . S
H2440 C2425 0.929 . S
H2441 C2427 0.930 . S
Co2442 N2446 2.148 . S
Co2442 N2452 2.128 . S
Co2442 N2462 2.194 . S
Co2442 O2467 2.351 . S
Co2442 O2468 2.155 . S
Co2442 O2469 2.096 . S
C2443 N2446 1.301 . S
C2443 N2447 1.328 . S
C2443 H2448 0.930 . S
C2444 C2445 1.333 . S
C2444 N2446 1.317 . S
C2444 H2449 0.930 . S
C2445 C2444 1.333 . S
C2445 N2447 1.350 . S
C2445 H2471 0.931 . S
N2446 Co2442 2.148 . S
N2446 C2443 1.301 . S
N2446 C2444 1.317 . S
N2447 C2443 1.328 . S
N2447 C2445 1.350 . S
H2448 C2443 0.930 . S
H2449 C2444 0.930 . S
C2450 O2451 1.224 . S
C2450 O2469 1.247 1_655 S
O2451 C2450 1.224 . S
N2452 Co2442 2.128 . S
N2452 C2453 1.355 . S
N2452 C2455 1.311 . S
C2453 N2452 1.355 . S
C2453 C2454 1.363 . S
C2453 H2465 0.929 . S
C2454 C2453 1.363 . S
C2454 N2456 1.375 . S
C2454 H2472 0.931 . S
C2455 N2452 1.311 . S
C2455 N2456 1.347 . S
C2455 H2466 0.929 . S
N2456 C2454 1.375 . S
N2456 C2455 1.347 . S
C2457 C2460 1.365 . S
C2457 N2462 1.328 . S
C2457 H2463 0.929 . S
C2458 C2459 1.362 . S
C2458 C2461 1.378 . S
C2458 H2473 0.929 . S
C2459 C2458 1.362 . S
C2459 C2460 1.366 1_655 S
C2460 C2457 1.365 . S
C2460 C2459 1.366 1_455 S
C2460 H2474 0.930 . S
C2461 C2458 1.378 . S
C2461 N2462 1.315 1_655 S
C2461 H2464 0.930 . S
N2462 Co2442 2.194 . S
N2462 C2457 1.328 . S
N2462 C2461 1.315 1_455 S
H2463 C2457 0.929 . S
H2464 C2461 0.930 . S
H2465 C2453 0.929 . S
H2466 C2455 0.929 . S
O2467 Co2442 2.351 . S
O2467 C2470 1.244 . S
O2468 Co2442 2.155 . S
O2468 C2470 1.240 . S
O2469 Co2442 2.096 . S
O2469 C2450 1.247 1_455 S
C2470 O2467 1.244 . S
C2470 O2468 1.240 . S
H2471 C2445 0.931 . S
H2472 C2454 0.931 . S
H2473 C2458 0.929 . S
H2474 C2460 0.930 . S
Co2475 N2479 2.148 . S
Co2475 N2485 2.128 . S
Co2475 N2495 2.194 . S
Co2475 O2500 2.351 . S
Co2475 O2501 2.155 . S
Co2475 O2502 2.096 . S
C2476 N2479 1.301 . S
C2476 N2480 1.328 . S
C2476 H2481 0.930 . S
C2477 C2478 1.333 . S
C2477 N2479 1.317 . S
C2477 H2482 0.930 . S
C2478 C2477 1.333 . S
C2478 N2480 1.350 . S
C2478 H2504 0.931 . S
N2479 Co2475 2.148 . S
N2479 C2476 1.301 . S
N2479 C2477 1.317 . S
N2480 C2476 1.328 . S
N2480 C2478 1.350 . S
H2481 C2476 0.930 . S
H2482 C2477 0.930 . S
C2483 O2484 1.224 . S
C2483 O2502 1.247 . S
O2484 C2483 1.224 . S
N2485 Co2475 2.128 . S
N2485 C2486 1.355 . S
N2485 C2488 1.311 . S
C2486 N2485 1.355 . S
C2486 C2487 1.363 . S
C2486 H2498 0.929 . S
C2487 C2486 1.363 . S
C2487 N2489 1.375 . S
C2487 H2505 0.931 . S
C2488 N2485 1.311 . S
C2488 N2489 1.347 . S
C2488 H2499 0.929 . S
N2489 C2487 1.375 . S
N2489 C2488 1.347 . S
C2490 C2493 1.365 . S
C2490 N2495 1.328 . S
C2490 H2496 0.929 . S
C2491 C2492 1.362 . S
C2491 C2494 1.378 . S
C2491 H2506 0.929 . S
C2492 C2491 1.362 . S
C2492 C2493 1.366 . S
C2493 C2490 1.365 . S
C2493 C2492 1.366 . S
C2493 H2507 0.930 . S
C2494 C2491 1.378 . S
C2494 N2495 1.315 . S
C2494 H2497 0.930 . S
N2495 Co2475 2.194 . S
N2495 C2490 1.328 . S
N2495 C2494 1.315 . S
H2496 C2490 0.929 . S
H2497 C2494 0.930 . S
H2498 C2486 0.929 . S
H2499 C2488 0.929 . S
O2500 Co2475 2.351 . S
O2500 C2503 1.244 . S
O2501 Co2475 2.155 . S
O2501 C2503 1.240 . S
O2502 Co2475 2.096 . S
O2502 C2483 1.247 . S
C2503 O2500 1.244 . S
C2503 O2501 1.240 . S
H2504 C2478 0.931 . S
H2505 C2487 0.931 . S
H2506 C2491 0.929 . S
H2507 C2493 0.930 . S
Co2508 N2512 2.148 . S
Co2508 N2518 2.128 . S
Co2508 N2528 2.194 . S
Co2508 O2533 2.351 . S
Co2508 O2534 2.155 . S
Co2508 O2535 2.096 . S
C2509 N2512 1.301 . S
C2509 N2513 1.328 . S
C2509 H2514 0.930 . S
C2510 C2511 1.333 . S
C2510 N2512 1.317 . S
C2510 H2515 0.930 . S
C2511 C2510 1.333 . S
C2511 N2513 1.350 . S
C2511 H2537 0.931 . S
N2512 Co2508 2.148 . S
N2512 C2509 1.301 . S
N2512 C2510 1.317 . S
N2513 C2509 1.328 . S
N2513 C2511 1.350 . S
H2514 C2509 0.930 . S
H2515 C2510 0.930 . S
C2516 O2517 1.224 . S
C2516 O2535 1.247 . S
O2517 C2516 1.224 . S
N2518 Co2508 2.128 . S
N2518 C2519 1.355 . S
N2518 C2521 1.311 . S
C2519 N2518 1.355 . S
C2519 C2520 1.363 . S
C2519 H2531 0.929 . S
C2520 C2519 1.363 . S
C2520 N2522 1.375 . S
C2520 H2538 0.931 . S
C2521 N2518 1.311 . S
C2521 N2522 1.347 . S
C2521 H2532 0.929 . S
N2522 C2520 1.375 . S
N2522 C2521 1.347 . S
C2523 C2526 1.365 . S
C2523 N2528 1.328 . S
C2523 H2529 0.929 . S
C2524 C2525 1.362 . S
C2524 C2527 1.378 . S
C2524 H2539 0.929 . S
C2525 C2524 1.362 . S
C2525 C2526 1.366 . S
C2526 C2523 1.365 . S
C2526 C2525 1.366 . S
C2526 H2540 0.930 . S
C2527 C2524 1.378 . S
C2527 N2528 1.315 . S
C2527 H2530 0.930 . S
N2528 Co2508 2.194 . S
N2528 C2523 1.328 . S
N2528 C2527 1.315 . S
H2529 C2523 0.929 . S
H2530 C2527 0.930 . S
H2531 C2519 0.929 . S
H2532 C2521 0.929 . S
O2533 Co2508 2.351 . S
O2533 C2536 1.244 . S
O2534 Co2508 2.155 . S
O2534 C2536 1.240 . S
O2535 Co2508 2.096 . S
O2535 C2516 1.247 . S
C2536 O2533 1.244 . S
C2536 O2534 1.240 . S
H2537 C2511 0.931 . S
H2538 C2520 0.931 . S
H2539 C2524 0.929 . S
H2540 C2526 0.930 . S
Co2541 N2545 2.148 . S
Co2541 N2551 2.128 . S
Co2541 N2561 2.194 . S
Co2541 O2566 2.351 . S
Co2541 O2567 2.155 . S
Co2541 O2568 2.096 . S
C2542 N2545 1.301 . S
C2542 N2546 1.328 . S
C2542 H2547 0.930 . S
C2543 C2544 1.333 . S
C2543 N2545 1.317 . S
C2543 H2548 0.930 . S
C2544 C2543 1.333 . S
C2544 N2546 1.350 . S
C2544 H2570 0.931 . S
N2545 Co2541 2.148 . S
N2545 C2542 1.301 . S
N2545 C2543 1.317 . S
N2546 C2542 1.328 . S
N2546 C2544 1.350 . S
H2547 C2542 0.930 . S
H2548 C2543 0.930 . S
C2549 O2550 1.224 . S
C2549 O2568 1.247 . S
O2550 C2549 1.224 . S
N2551 Co2541 2.128 . S
N2551 C2552 1.355 . S
N2551 C2554 1.311 . S
C2552 N2551 1.355 . S
C2552 C2553 1.363 . S
C2552 H2564 0.929 . S
C2553 C2552 1.363 . S
C2553 N2555 1.375 . S
C2553 H2571 0.931 . S
C2554 N2551 1.311 . S
C2554 N2555 1.347 . S
C2554 H2565 0.929 . S
N2555 C2553 1.375 . S
N2555 C2554 1.347 . S
C2556 C2559 1.365 . S
C2556 N2561 1.328 . S
C2556 H2562 0.929 . S
C2557 C2558 1.362 . S
C2557 C2560 1.378 . S
C2557 H2572 0.929 . S
C2558 C2557 1.362 . S
C2558 C2559 1.366 . S
C2559 C2556 1.365 . S
C2559 C2558 1.366 . S
C2559 H2573 0.930 . S
C2560 C2557 1.378 . S
C2560 N2561 1.315 . S
C2560 H2563 0.930 . S
N2561 Co2541 2.194 . S
N2561 C2556 1.328 . S
N2561 C2560 1.315 . S
H2562 C2556 0.929 . S
H2563 C2560 0.930 . S
H2564 C2552 0.929 . S
H2565 C2554 0.929 . S
O2566 Co2541 2.351 . S
O2566 C2569 1.244 . S
O2567 Co2541 2.155 . S
O2567 C2569 1.240 . S
O2568 Co2541 2.096 . S
O2568 C2549 1.247 . S
C2569 O2566 1.244 . S
C2569 O2567 1.240 . S
H2570 C2544 0.931 . S
H2571 C2553 0.931 . S
H2572 C2557 0.929 . S
H2573 C2559 0.930 . S
Co2574 N2578 2.148 . S
Co2574 N2584 2.128 . S
Co2574 N2594 2.194 . S
Co2574 O2599 2.351 . S
Co2574 O2600 2.155 . S
Co2574 O2601 2.096 . S
C2575 N2578 1.301 . S
C2575 N2579 1.328 . S
C2575 H2580 0.930 . S
C2576 C2577 1.333 . S
C2576 N2578 1.317 . S
C2576 H2581 0.930 . S
C2577 C2576 1.333 . S
C2577 N2579 1.350 . S
C2577 H2603 0.931 . S
N2578 Co2574 2.148 . S
N2578 C2575 1.301 . S
N2578 C2576 1.317 . S
N2579 C2575 1.328 . S
N2579 C2577 1.350 . S
H2580 C2575 0.930 . S
H2581 C2576 0.930 . S
C2582 O2583 1.224 . S
C2582 O2601 1.247 1_655 S
O2583 C2582 1.224 . S
N2584 Co2574 2.128 . S
N2584 C2585 1.355 . S
N2584 C2587 1.311 . S
C2585 N2584 1.355 . S
C2585 C2586 1.363 . S
C2585 H2597 0.929 . S
C2586 C2585 1.363 . S
C2586 N2588 1.375 . S
C2586 H2604 0.931 . S
C2587 N2584 1.311 . S
C2587 N2588 1.347 . S
C2587 H2598 0.929 . S
N2588 C2586 1.375 . S
N2588 C2587 1.347 . S
C2589 C2592 1.365 . S
C2589 N2594 1.328 . S
C2589 H2595 0.929 . S
C2590 C2591 1.362 . S
C2590 C2593 1.378 . S
C2590 H2605 0.929 . S
C2591 C2590 1.362 . S
C2591 C2592 1.366 1_655 S
C2592 C2589 1.365 . S
C2592 C2591 1.366 1_455 S
C2592 H2606 0.930 . S
C2593 C2590 1.378 . S
C2593 N2594 1.315 1_655 S
C2593 H2596 0.930 . S
N2594 Co2574 2.194 . S
N2594 C2589 1.328 . S
N2594 C2593 1.315 1_455 S
H2595 C2589 0.929 . S
H2596 C2593 0.930 . S
H2597 C2585 0.929 . S
H2598 C2587 0.929 . S
O2599 Co2574 2.351 . S
O2599 C2602 1.244 . S
O2600 Co2574 2.155 . S
O2600 C2602 1.240 . S
O2601 Co2574 2.096 . S
O2601 C2582 1.247 1_455 S
C2602 O2599 1.244 . S
C2602 O2600 1.240 . S
H2603 C2577 0.931 . S
H2604 C2586 0.931 . S
H2605 C2590 0.929 . S
H2606 C2592 0.930 . S
Co2607 N2611 2.148 . S
Co2607 N2617 2.128 . S
Co2607 N2627 2.194 . S
Co2607 O2632 2.351 . S
Co2607 O2633 2.155 . S
Co2607 O2634 2.096 . S
C2608 N2611 1.301 . S
C2608 N2612 1.328 . S
C2608 H2613 0.930 . S
C2609 C2610 1.333 . S
C2609 N2611 1.317 . S
C2609 H2614 0.930 . S
C2610 C2609 1.333 . S
C2610 N2612 1.350 . S
C2610 H2636 0.931 . S
N2611 Co2607 2.148 . S
N2611 C2608 1.301 . S
N2611 C2609 1.317 . S
N2612 C2608 1.328 . S
N2612 C2610 1.350 . S
H2613 C2608 0.930 . S
H2614 C2609 0.930 . S
C2615 O2616 1.224 . S
C2615 O2634 1.247 . S
O2616 C2615 1.224 . S
N2617 Co2607 2.128 . S
N2617 C2618 1.355 . S
N2617 C2620 1.311 . S
C2618 N2617 1.355 . S
C2618 C2619 1.363 . S
C2618 H2630 0.929 . S
C2619 C2618 1.363 . S
C2619 N2621 1.375 . S
C2619 H2637 0.931 . S
C2620 N2617 1.311 . S
C2620 N2621 1.347 . S
C2620 H2631 0.929 . S
N2621 C2619 1.375 . S
N2621 C2620 1.347 . S
C2622 C2625 1.365 . S
C2622 N2627 1.328 . S
C2622 H2628 0.929 . S
C2623 C2624 1.362 . S
C2623 C2626 1.378 . S
C2623 H2638 0.929 . S
C2624 C2623 1.362 . S
C2624 C2625 1.366 . S
C2625 C2622 1.365 . S
C2625 C2624 1.366 . S
C2625 H2639 0.930 . S
C2626 C2623 1.378 . S
C2626 N2627 1.315 . S
C2626 H2629 0.930 . S
N2627 Co2607 2.194 . S
N2627 C2622 1.328 . S
N2627 C2626 1.315 . S
H2628 C2622 0.929 . S
H2629 C2626 0.930 . S
H2630 C2618 0.929 . S
H2631 C2620 0.929 . S
O2632 Co2607 2.351 . S
O2632 C2635 1.244 . S
O2633 Co2607 2.155 . S
O2633 C2635 1.240 . S
O2634 Co2607 2.096 . S
O2634 C2615 1.247 . S
C2635 O2632 1.244 . S
C2635 O2633 1.240 . S
H2636 C2610 0.931 . S
H2637 C2619 0.931 . S
H2638 C2623 0.929 . S
H2639 C2625 0.930 . S
Co2640 N2644 2.148 . S
Co2640 N2650 2.128 . S
Co2640 N2660 2.194 . S
Co2640 O2665 2.351 . S
Co2640 O2666 2.155 . S
Co2640 O2667 2.096 . S
C2641 N2644 1.301 . S
C2641 N2645 1.328 . S
C2641 H2646 0.930 . S
C2642 C2643 1.333 . S
C2642 N2644 1.317 . S
C2642 H2647 0.930 . S
C2643 C2642 1.333 . S
C2643 N2645 1.350 . S
C2643 H2669 0.931 . S
N2644 Co2640 2.148 . S
N2644 C2641 1.301 . S
N2644 C2642 1.317 . S
N2645 C2641 1.328 . S
N2645 C2643 1.350 . S
H2646 C2641 0.930 . S
H2647 C2642 0.930 . S
C2648 O2649 1.224 . S
C2648 O2667 1.247 . S
O2649 C2648 1.224 . S
N2650 Co2640 2.128 . S
N2650 C2651 1.355 . S
N2650 C2653 1.311 . S
C2651 N2650 1.355 . S
C2651 C2652 1.363 . S
C2651 H2663 0.929 . S
C2652 C2651 1.363 . S
C2652 N2654 1.375 . S
C2652 H2670 0.931 . S
C2653 N2650 1.311 . S
C2653 N2654 1.347 . S
C2653 H2664 0.929 . S
N2654 C2652 1.375 . S
N2654 C2653 1.347 . S
C2655 C2658 1.365 . S
C2655 N2660 1.328 . S
C2655 H2661 0.929 . S
C2656 C2657 1.362 . S
C2656 C2659 1.378 . S
C2656 H2671 0.929 . S
C2657 C2656 1.362 . S
C2657 C2658 1.366 . S
C2658 C2655 1.365 . S
C2658 C2657 1.366 . S
C2658 H2672 0.930 . S
C2659 C2656 1.378 . S
C2659 N2660 1.315 . S
C2659 H2662 0.930 . S
N2660 Co2640 2.194 . S
N2660 C2655 1.328 . S
N2660 C2659 1.315 . S
H2661 C2655 0.929 . S
H2662 C2659 0.930 . S
H2663 C2651 0.929 . S
H2664 C2653 0.929 . S
O2665 Co2640 2.351 . S
O2665 C2668 1.244 . S
O2666 Co2640 2.155 . S
O2666 C2668 1.240 . S
O2667 Co2640 2.096 . S
O2667 C2648 1.247 . S
C2668 O2665 1.244 . S
C2668 O2666 1.240 . S
H2669 C2643 0.931 . S
H2670 C2652 0.931 . S
H2671 C2656 0.929 . S
H2672 C2658 0.930 . S
Co2673 N2677 2.148 . S
Co2673 N2683 2.128 . S
Co2673 N2693 2.194 . S
Co2673 O2698 2.351 . S
Co2673 O2699 2.155 . S
Co2673 O2700 2.096 . S
C2674 N2677 1.301 . S
C2674 N2678 1.328 . S
C2674 H2679 0.930 . S
C2675 C2676 1.333 . S
C2675 N2677 1.317 . S
C2675 H2680 0.930 . S
C2676 C2675 1.333 . S
C2676 N2678 1.350 . S
C2676 H2702 0.931 . S
N2677 Co2673 2.148 . S
N2677 C2674 1.301 . S
N2677 C2675 1.317 . S
N2678 C2674 1.328 . S
N2678 C2676 1.350 . S
H2679 C2674 0.930 . S
H2680 C2675 0.930 . S
C2681 O2682 1.224 . S
C2681 O2700 1.247 . S
O2682 C2681 1.224 . S
N2683 Co2673 2.128 . S
N2683 C2684 1.355 . S
N2683 C2686 1.311 . S
C2684 N2683 1.355 . S
C2684 C2685 1.363 . S
C2684 H2696 0.929 . S
C2685 C2684 1.363 . S
C2685 N2687 1.375 . S
C2685 H2703 0.931 . S
C2686 N2683 1.311 . S
C2686 N2687 1.347 . S
C2686 H2697 0.929 . S
N2687 C2685 1.375 . S
N2687 C2686 1.347 . S
C2688 C2691 1.365 . S
C2688 N2693 1.328 . S
C2688 H2694 0.929 . S
C2689 C2690 1.362 . S
C2689 C2692 1.378 . S
C2689 H2704 0.929 . S
C2690 C2689 1.362 . S
C2690 C2691 1.366 . S
C2691 C2688 1.365 . S
C2691 C2690 1.366 . S
C2691 H2705 0.930 . S
C2692 C2689 1.378 . S
C2692 N2693 1.315 . S
C2692 H2695 0.930 . S
N2693 Co2673 2.194 . S
N2693 C2688 1.328 . S
N2693 C2692 1.315 . S
H2694 C2688 0.929 . S
H2695 C2692 0.930 . S
H2696 C2684 0.929 . S
H2697 C2686 0.929 . S
O2698 Co2673 2.351 . S
O2698 C2701 1.244 . S
O2699 Co2673 2.155 . S
O2699 C2701 1.240 . S
O2700 Co2673 2.096 . S
O2700 C2681 1.247 . S
C2701 O2698 1.244 . S
C2701 O2699 1.240 . S
H2702 C2676 0.931 . S
H2703 C2685 0.931 . S
H2704 C2689 0.929 . S
H2705 C2691 0.930 . S
Co2706 N2710 2.148 . S
Co2706 N2716 2.128 . S
Co2706 N2726 2.194 . S
Co2706 O2731 2.351 . S
Co2706 O2732 2.155 . S
Co2706 O2733 2.096 . S
C2707 N2710 1.301 . S
C2707 N2711 1.328 1_556 S
C2707 H2712 0.930 . S
C2708 C2709 1.333 . S
C2708 N2710 1.317 1_554 S
C2708 H2713 0.930 . S
C2709 C2708 1.333 . S
C2709 N2711 1.350 . S
C2709 H2735 0.931 . S
N2710 Co2706 2.148 . S
N2710 C2707 1.301 . S
N2710 C2708 1.317 1_556 S
N2711 C2707 1.328 1_554 S
N2711 C2709 1.350 . S
H2712 C2707 0.930 . S
H2713 C2708 0.930 . S
C2714 O2715 1.224 . S
C2714 O2733 1.247 . S
O2715 C2714 1.224 . S
N2716 Co2706 2.128 . S
N2716 C2717 1.355 . S
N2716 C2719 1.311 . S
C2717 N2716 1.355 . S
C2717 C2718 1.363 . S
C2717 H2729 0.929 . S
C2718 C2717 1.363 . S
C2718 N2720 1.375 . S
C2718 H2736 0.931 . S
C2719 N2716 1.311 . S
C2719 N2720 1.347 . S
C2719 H2730 0.929 . S
N2720 C2718 1.375 . S
N2720 C2719 1.347 . S
C2721 C2724 1.365 . S
C2721 N2726 1.328 . S
C2721 H2727 0.929 . S
C2722 C2723 1.362 . S
C2722 C2725 1.378 . S
C2722 H2737 0.929 . S
C2723 C2722 1.362 . S
C2723 C2724 1.366 . S
C2724 C2721 1.365 . S
C2724 C2723 1.366 . S
C2724 H2738 0.930 . S
C2725 C2722 1.378 . S
C2725 N2726 1.315 . S
C2725 H2728 0.930 . S
N2726 Co2706 2.194 . S
N2726 C2721 1.328 . S
N2726 C2725 1.315 . S
H2727 C2721 0.929 . S
H2728 C2725 0.930 . S
H2729 C2717 0.929 . S
H2730 C2719 0.929 . S
O2731 Co2706 2.351 . S
O2731 C2734 1.244 . S
O2732 Co2706 2.155 . S
O2732 C2734 1.240 . S
O2733 Co2706 2.096 . S
O2733 C2714 1.247 . S
C2734 O2731 1.244 . S
C2734 O2732 1.240 . S
H2735 C2709 0.931 . S
H2736 C2718 0.931 . S
H2737 C2722 0.929 . S
H2738 C2724 0.930 . S
Co2739 N2743 2.148 . S
Co2739 N2749 2.128 . S
Co2739 N2759 2.194 . S
Co2739 O2764 2.351 . S
Co2739 O2765 2.155 . S
Co2739 O2766 2.096 . S
C2740 N2743 1.301 . S
C2740 N2744 1.328 . S
C2740 H2745 0.930 . S
C2741 C2742 1.333 . S
C2741 N2743 1.317 . S
C2741 H2746 0.930 . S
C2742 C2741 1.333 . S
C2742 N2744 1.350 . S
C2742 H2768 0.931 . S
N2743 Co2739 2.148 . S
N2743 C2740 1.301 . S
N2743 C2741 1.317 . S
N2744 C2740 1.328 . S
N2744 C2742 1.350 . S
H2745 C2740 0.930 . S
H2746 C2741 0.930 . S
C2747 O2748 1.224 . S
C2747 O2766 1.247 . S
O2748 C2747 1.224 . S
N2749 Co2739 2.128 . S
N2749 C2750 1.355 . S
N2749 C2752 1.311 . S
C2750 N2749 1.355 . S
C2750 C2751 1.363 . S
C2750 H2762 0.929 . S
C2751 C2750 1.363 . S
C2751 N2753 1.375 . S
C2751 H2769 0.931 . S
C2752 N2749 1.311 . S
C2752 N2753 1.347 . S
C2752 H2763 0.929 . S
N2753 C2751 1.375 . S
N2753 C2752 1.347 . S
C2754 C2757 1.365 . S
C2754 N2759 1.328 . S
C2754 H2760 0.929 . S
C2755 C2756 1.362 . S
C2755 C2758 1.378 . S
C2755 H2770 0.929 . S
C2756 C2755 1.362 . S
C2756 C2757 1.366 . S
C2757 C2754 1.365 . S
C2757 C2756 1.366 . S
C2757 H2771 0.930 . S
C2758 C2755 1.378 . S
C2758 N2759 1.315 . S
C2758 H2761 0.930 . S
N2759 Co2739 2.194 . S
N2759 C2754 1.328 . S
N2759 C2758 1.315 . S
H2760 C2754 0.929 . S
H2761 C2758 0.930 . S
H2762 C2750 0.929 . S
H2763 C2752 0.929 . S
O2764 Co2739 2.351 . S
O2764 C2767 1.244 . S
O2765 Co2739 2.155 . S
O2765 C2767 1.240 . S
O2766 Co2739 2.096 . S
O2766 C2747 1.247 . S
C2767 O2764 1.244 . S
C2767 O2765 1.240 . S
H2768 C2742 0.931 . S
H2769 C2751 0.931 . S
H2770 C2755 0.929 . S
H2771 C2757 0.930 . S
Co2772 N2776 2.148 . S
Co2772 N2782 2.128 . S
Co2772 N2792 2.194 . S
Co2772 O2797 2.351 . S
Co2772 O2798 2.155 . S
Co2772 O2799 2.096 . S
C2773 N2776 1.301 . S
C2773 N2777 1.328 1_554 S
C2773 H2778 0.930 . S
C2774 C2775 1.333 . S
C2774 N2776 1.317 1_556 S
C2774 H2779 0.930 . S
C2775 C2774 1.333 . S
C2775 N2777 1.350 . S
C2775 H2801 0.931 . S
N2776 Co2772 2.148 . S
N2776 C2773 1.301 . S
N2776 C2774 1.317 1_554 S
N2777 C2773 1.328 1_556 S
N2777 C2775 1.350 . S
H2778 C2773 0.930 . S
H2779 C2774 0.930 . S
C2780 O2781 1.224 . S
C2780 O2799 1.247 . S
O2781 C2780 1.224 . S
N2782 Co2772 2.128 . S
N2782 C2783 1.355 . S
N2782 C2785 1.311 . S
C2783 N2782 1.355 . S
C2783 C2784 1.363 . S
C2783 H2795 0.929 . S
C2784 C2783 1.363 . S
C2784 N2786 1.375 . S
C2784 H2802 0.931 . S
C2785 N2782 1.311 . S
C2785 N2786 1.347 . S
C2785 H2796 0.929 . S
N2786 C2784 1.375 . S
N2786 C2785 1.347 . S
C2787 C2790 1.365 . S
C2787 N2792 1.328 . S
C2787 H2793 0.929 . S
C2788 C2789 1.362 . S
C2788 C2791 1.378 . S
C2788 H2803 0.929 . S
C2789 C2788 1.362 . S
C2789 C2790 1.366 . S
C2790 C2787 1.365 . S
C2790 C2789 1.366 . S
C2790 H2804 0.930 . S
C2791 C2788 1.378 . S
C2791 N2792 1.315 . S
C2791 H2794 0.930 . S
N2792 Co2772 2.194 . S
N2792 C2787 1.328 . S
N2792 C2791 1.315 . S
H2793 C2787 0.929 . S
H2794 C2791 0.930 . S
H2795 C2783 0.929 . S
H2796 C2785 0.929 . S
O2797 Co2772 2.351 . S
O2797 C2800 1.244 . S
O2798 Co2772 2.155 . S
O2798 C2800 1.240 . S
O2799 Co2772 2.096 . S
O2799 C2780 1.247 . S
C2800 O2797 1.244 . S
C2800 O2798 1.240 . S
H2801 C2775 0.931 . S
H2802 C2784 0.931 . S
H2803 C2788 0.929 . S
H2804 C2790 0.930 . S
Co2805 N2809 2.148 . S
Co2805 N2815 2.128 . S
Co2805 N2825 2.194 . S
Co2805 O2830 2.351 . S
Co2805 O2831 2.155 . S
Co2805 O2832 2.096 . S
C2806 N2809 1.301 . S
C2806 N2810 1.328 . S
C2806 H2811 0.930 . S
C2807 C2808 1.333 . S
C2807 N2809 1.317 . S
C2807 H2812 0.930 . S
C2808 C2807 1.333 . S
C2808 N2810 1.350 . S
C2808 H2834 0.931 . S
N2809 Co2805 2.148 . S
N2809 C2806 1.301 . S
N2809 C2807 1.317 . S
N2810 C2806 1.328 . S
N2810 C2808 1.350 . S
H2811 C2806 0.930 . S
H2812 C2807 0.930 . S
C2813 O2814 1.224 . S
C2813 O2832 1.247 . S
O2814 C2813 1.224 . S
N2815 Co2805 2.128 . S
N2815 C2816 1.355 . S
N2815 C2818 1.311 . S
C2816 N2815 1.355 . S
C2816 C2817 1.363 . S
C2816 H2828 0.929 . S
C2817 C2816 1.363 . S
C2817 N2819 1.375 . S
C2817 H2835 0.931 . S
C2818 N2815 1.311 . S
C2818 N2819 1.347 . S
C2818 H2829 0.929 . S
N2819 C2817 1.375 . S
N2819 C2818 1.347 . S
C2820 C2823 1.365 . S
C2820 N2825 1.328 . S
C2820 H2826 0.929 . S
C2821 C2822 1.362 . S
C2821 C2824 1.378 . S
C2821 H2836 0.929 . S
C2822 C2821 1.362 . S
C2822 C2823 1.366 . S
C2823 C2820 1.365 . S
C2823 C2822 1.366 . S
C2823 H2837 0.930 . S
C2824 C2821 1.378 . S
C2824 N2825 1.315 . S
C2824 H2827 0.930 . S
N2825 Co2805 2.194 . S
N2825 C2820 1.328 . S
N2825 C2824 1.315 . S
H2826 C2820 0.929 . S
H2827 C2824 0.930 . S
H2828 C2816 0.929 . S
H2829 C2818 0.929 . S
O2830 Co2805 2.351 . S
O2830 C2833 1.244 . S
O2831 Co2805 2.155 . S
O2831 C2833 1.240 . S
O2832 Co2805 2.096 . S
O2832 C2813 1.247 . S
C2833 O2830 1.244 . S
C2833 O2831 1.240 . S
H2834 C2808 0.931 . S
H2835 C2817 0.931 . S
H2836 C2821 0.929 . S
H2837 C2823 0.930 . S
Co2838 N2842 2.148 . S
Co2838 N2848 2.128 . S
Co2838 N2858 2.194 . S
Co2838 O2863 2.351 . S
Co2838 O2864 2.155 . S
Co2838 O2865 2.096 . S
C2839 N2842 1.301 . S
C2839 N2843 1.328 . S
C2839 H2844 0.930 . S
C2840 C2841 1.333 . S
C2840 N2842 1.317 . S
C2840 H2845 0.930 . S
C2841 C2840 1.333 . S
C2841 N2843 1.350 . S
C2841 H2867 0.931 . S
N2842 Co2838 2.148 . S
N2842 C2839 1.301 . S
N2842 C2840 1.317 . S
N2843 C2839 1.328 . S
N2843 C2841 1.350 . S
H2844 C2839 0.930 . S
H2845 C2840 0.930 . S
C2846 O2847 1.224 . S
C2846 O2865 1.247 . S
O2847 C2846 1.224 . S
N2848 Co2838 2.128 . S
N2848 C2849 1.355 . S
N2848 C2851 1.311 . S
C2849 N2848 1.355 . S
C2849 C2850 1.363 . S
C2849 H2861 0.929 . S
C2850 C2849 1.363 . S
C2850 N2852 1.375 . S
C2850 H2868 0.931 . S
C2851 N2848 1.311 . S
C2851 N2852 1.347 . S
C2851 H2862 0.929 . S
N2852 C2850 1.375 . S
N2852 C2851 1.347 . S
C2853 C2856 1.365 . S
C2853 N2858 1.328 . S
C2853 H2859 0.929 . S
C2854 C2855 1.362 . S
C2854 C2857 1.378 . S
C2854 H2869 0.929 . S
C2855 C2854 1.362 . S
C2855 C2856 1.366 . S
C2856 C2853 1.365 . S
C2856 C2855 1.366 . S
C2856 H2870 0.930 . S
C2857 C2854 1.378 . S
C2857 N2858 1.315 . S
C2857 H2860 0.930 . S
N2858 Co2838 2.194 . S
N2858 C2853 1.328 . S
N2858 C2857 1.315 . S
H2859 C2853 0.929 . S
H2860 C2857 0.930 . S
H2861 C2849 0.929 . S
H2862 C2851 0.929 . S
O2863 Co2838 2.351 . S
O2863 C2866 1.244 . S
O2864 Co2838 2.155 . S
O2864 C2866 1.240 . S
O2865 Co2838 2.096 . S
O2865 C2846 1.247 . S
C2866 O2863 1.244 . S
C2866 O2864 1.240 . S
H2867 C2841 0.931 . S
H2868 C2850 0.931 . S
H2869 C2854 0.929 . S
H2870 C2856 0.930 . S
Co2871 N2875 2.148 . S
Co2871 N2881 2.128 . S
Co2871 N2891 2.194 . S
Co2871 O2896 2.351 . S
Co2871 O2897 2.155 . S
Co2871 O2898 2.096 . S
C2872 N2875 1.301 . S
C2872 N2876 1.328 . S
C2872 H2877 0.930 . S
C2873 C2874 1.333 . S
C2873 N2875 1.317 . S
C2873 H2878 0.930 . S
C2874 C2873 1.333 . S
C2874 N2876 1.350 . S
C2874 H2900 0.931 . S
N2875 Co2871 2.148 . S
N2875 C2872 1.301 . S
N2875 C2873 1.317 . S
N2876 C2872 1.328 . S
N2876 C2874 1.350 . S
H2877 C2872 0.930 . S
H2878 C2873 0.930 . S
C2879 O2880 1.224 . S
C2879 O2898 1.247 . S
O2880 C2879 1.224 . S
N2881 Co2871 2.128 . S
N2881 C2882 1.355 . S
N2881 C2884 1.311 . S
C2882 N2881 1.355 . S
C2882 C2883 1.363 . S
C2882 H2894 0.929 . S
C2883 C2882 1.363 . S
C2883 N2885 1.375 . S
C2883 H2901 0.931 . S
C2884 N2881 1.311 . S
C2884 N2885 1.347 . S
C2884 H2895 0.929 . S
N2885 C2883 1.375 . S
N2885 C2884 1.347 . S
C2886 C2889 1.365 . S
C2886 N2891 1.328 . S
C2886 H2892 0.929 . S
C2887 C2888 1.362 . S
C2887 C2890 1.378 . S
C2887 H2902 0.929 . S
C2888 C2887 1.362 . S
C2888 C2889 1.366 . S
C2889 C2886 1.365 . S
C2889 C2888 1.366 . S
C2889 H2903 0.930 . S
C2890 C2887 1.378 . S
C2890 N2891 1.315 . S
C2890 H2893 0.930 . S
N2891 Co2871 2.194 . S
N2891 C2886 1.328 . S
N2891 C2890 1.315 . S
H2892 C2886 0.929 . S
H2893 C2890 0.930 . S
H2894 C2882 0.929 . S
H2895 C2884 0.929 . S
O2896 Co2871 2.351 . S
O2896 C2899 1.244 . S
O2897 Co2871 2.155 . S
O2897 C2899 1.240 . S
O2898 Co2871 2.096 . S
O2898 C2879 1.247 . S
C2899 O2896 1.244 . S
C2899 O2897 1.240 . S
H2900 C2874 0.931 . S
H2901 C2883 0.931 . S
H2902 C2887 0.929 . S
H2903 C2889 0.930 . S
Co2904 N2908 2.148 . S
Co2904 N2914 2.128 . S
Co2904 N2924 2.194 . S
Co2904 O2929 2.351 . S
Co2904 O2930 2.155 . S
Co2904 O2931 2.096 . S
C2905 N2908 1.301 . S
C2905 N2909 1.328 . S
C2905 H2910 0.930 . S
C2906 C2907 1.333 . S
C2906 N2908 1.317 . S
C2906 H2911 0.930 . S
C2907 C2906 1.333 . S
C2907 N2909 1.350 . S
C2907 H2933 0.931 . S
N2908 Co2904 2.148 . S
N2908 C2905 1.301 . S
N2908 C2906 1.317 . S
N2909 C2905 1.328 . S
N2909 C2907 1.350 . S
H2910 C2905 0.930 . S
H2911 C2906 0.930 . S
C2912 O2913 1.224 . S
C2912 O2931 1.247 . S
O2913 C2912 1.224 . S
N2914 Co2904 2.128 . S
N2914 C2915 1.355 . S
N2914 C2917 1.311 . S
C2915 N2914 1.355 . S
C2915 C2916 1.363 . S
C2915 H2927 0.929 . S
C2916 C2915 1.363 . S
C2916 N2918 1.375 . S
C2916 H2934 0.931 . S
C2917 N2914 1.311 . S
C2917 N2918 1.347 . S
C2917 H2928 0.929 . S
N2918 C2916 1.375 . S
N2918 C2917 1.347 . S
C2919 C2922 1.365 . S
C2919 N2924 1.328 . S
C2919 H2925 0.929 . S
C2920 C2921 1.362 . S
C2920 C2923 1.378 . S
C2920 H2935 0.929 . S
C2921 C2920 1.362 . S
C2921 C2922 1.366 . S
C2922 C2919 1.365 . S
C2922 C2921 1.366 . S
C2922 H2936 0.930 . S
C2923 C2920 1.378 . S
C2923 N2924 1.315 . S
C2923 H2926 0.930 . S
N2924 Co2904 2.194 . S
N2924 C2919 1.328 . S
N2924 C2923 1.315 . S
H2925 C2919 0.929 . S
H2926 C2923 0.930 . S
H2927 C2915 0.929 . S
H2928 C2917 0.929 . S
O2929 Co2904 2.351 . S
O2929 C2932 1.244 . S
O2930 Co2904 2.155 . S
O2930 C2932 1.240 . S
O2931 Co2904 2.096 . S
O2931 C2912 1.247 . S
C2932 O2929 1.244 . S
C2932 O2930 1.240 . S
H2933 C2907 0.931 . S
H2934 C2916 0.931 . S
H2935 C2920 0.929 . S
H2936 C2922 0.930 . S
Co2937 N2941 2.148 . S
Co2937 N2947 2.128 . S
Co2937 N2957 2.194 . S
Co2937 O2962 2.351 . S
Co2937 O2963 2.155 . S
Co2937 O2964 2.096 . S
C2938 N2941 1.301 . S
C2938 N2942 1.328 1_655 S
C2938 H2943 0.930 . S
C2939 C2940 1.333 . S
C2939 N2941 1.317 1_455 S
C2939 H2944 0.930 . S
C2940 C2939 1.333 . S
C2940 N2942 1.350 . S
C2940 H2966 0.931 . S
N2941 Co2937 2.148 . S
N2941 C2938 1.301 . S
N2941 C2939 1.317 1_655 S
N2942 C2938 1.328 1_455 S
N2942 C2940 1.350 . S
H2943 C2938 0.930 . S
H2944 C2939 0.930 . S
C2945 O2946 1.224 . S
C2945 O2964 1.247 . S
O2946 C2945 1.224 . S
N2947 Co2937 2.128 . S
N2947 C2948 1.355 . S
N2947 C2950 1.311 . S
C2948 N2947 1.355 . S
C2948 C2949 1.363 . S
C2948 H2960 0.929 . S
C2949 C2948 1.363 . S
C2949 N2951 1.375 . S
C2949 H2967 0.931 . S
C2950 N2947 1.311 . S
C2950 N2951 1.347 . S
C2950 H2961 0.929 . S
N2951 C2949 1.375 . S
N2951 C2950 1.347 . S
C2952 C2955 1.365 . S
C2952 N2957 1.328 . S
C2952 H2958 0.929 . S
C2953 C2954 1.362 . S
C2953 C2956 1.378 . S
C2953 H2968 0.929 . S
C2954 C2953 1.362 . S
C2954 C2955 1.366 . S
C2955 C2952 1.365 . S
C2955 C2954 1.366 . S
C2955 H2969 0.930 . S
C2956 C2953 1.378 . S
C2956 N2957 1.315 . S
C2956 H2959 0.930 . S
N2957 Co2937 2.194 . S
N2957 C2952 1.328 . S
N2957 C2956 1.315 . S
H2958 C2952 0.929 . S
H2959 C2956 0.930 . S
H2960 C2948 0.929 . S
H2961 C2950 0.929 . S
O2962 Co2937 2.351 . S
O2962 C2965 1.244 . S
O2963 Co2937 2.155 . S
O2963 C2965 1.240 . S
O2964 Co2937 2.096 . S
O2964 C2945 1.247 . S
C2965 O2962 1.244 . S
C2965 O2963 1.240 . S
H2966 C2940 0.931 . S
H2967 C2949 0.931 . S
H2968 C2953 0.929 . S
H2969 C2955 0.930 . S
Co2970 N2974 2.148 . S
Co2970 N2980 2.128 . S
Co2970 N2990 2.194 . S
Co2970 O2995 2.351 . S
Co2970 O2996 2.155 . S
Co2970 O2997 2.096 . S
C2971 N2974 1.301 . S
C2971 N2975 1.328 . S
C2971 H2976 0.930 . S
C2972 C2973 1.333 . S
C2972 N2974 1.317 . S
C2972 H2977 0.930 . S
C2973 C2972 1.333 . S
C2973 N2975 1.350 . S
C2973 H2999 0.931 . S
N2974 Co2970 2.148 . S
N2974 C2971 1.301 . S
N2974 C2972 1.317 . S
N2975 C2971 1.328 . S
N2975 C2973 1.350 . S
H2976 C2971 0.930 . S
H2977 C2972 0.930 . S
C2978 O2979 1.224 . S
C2978 O2997 1.247 . S
O2979 C2978 1.224 . S
N2980 Co2970 2.128 . S
N2980 C2981 1.355 . S
N2980 C2983 1.311 . S
C2981 N2980 1.355 . S
C2981 C2982 1.363 . S
C2981 H2993 0.929 . S
C2982 C2981 1.363 . S
C2982 N2984 1.375 . S
C2982 H3000 0.931 . S
C2983 N2980 1.311 . S
C2983 N2984 1.347 . S
C2983 H2994 0.929 . S
N2984 C2982 1.375 . S
N2984 C2983 1.347 . S
C2985 C2988 1.365 . S
C2985 N2990 1.328 . S
C2985 H2991 0.929 . S
C2986 C2987 1.362 . S
C2986 C2989 1.378 . S
C2986 H3001 0.929 . S
C2987 C2986 1.362 . S
C2987 C2988 1.366 . S
C2988 C2985 1.365 . S
C2988 C2987 1.366 . S
C2988 H3002 0.930 . S
C2989 C2986 1.378 . S
C2989 N2990 1.315 . S
C2989 H2992 0.930 . S
N2990 Co2970 2.194 . S
N2990 C2985 1.328 . S
N2990 C2989 1.315 . S
H2991 C2985 0.929 . S
H2992 C2989 0.930 . S
H2993 C2981 0.929 . S
H2994 C2983 0.929 . S
O2995 Co2970 2.351 . S
O2995 C2998 1.244 . S
O2996 Co2970 2.155 . S
O2996 C2998 1.240 . S
O2997 Co2970 2.096 . S
O2997 C2978 1.247 . S
C2998 O2995 1.244 . S
C2998 O2996 1.240 . S
H2999 C2973 0.931 . S
H3000 C2982 0.931 . S
H3001 C2986 0.929 . S
H3002 C2988 0.930 . S
Co3003 N3007 2.148 . S
Co3003 N3013 2.128 . S
Co3003 N3023 2.194 . S
Co3003 O3028 2.351 . S
Co3003 O3029 2.155 . S
Co3003 O3030 2.096 . S
C3004 N3007 1.301 . S
C3004 N3008 1.328 . S
C3004 H3009 0.930 . S
C3005 C3006 1.333 . S
C3005 N3007 1.317 . S
C3005 H3010 0.930 . S
C3006 C3005 1.333 . S
C3006 N3008 1.350 . S
C3006 H3032 0.931 . S
N3007 Co3003 2.148 . S
N3007 C3004 1.301 . S
N3007 C3005 1.317 . S
N3008 C3004 1.328 . S
N3008 C3006 1.350 . S
H3009 C3004 0.930 . S
H3010 C3005 0.930 . S
C3011 O3012 1.224 . S
C3011 O3030 1.247 1_556 S
O3012 C3011 1.224 . S
N3013 Co3003 2.128 . S
N3013 C3014 1.355 . S
N3013 C3016 1.311 . S
C3014 N3013 1.355 . S
C3014 C3015 1.363 . S
C3014 H3026 0.929 . S
C3015 C3014 1.363 . S
C3015 N3017 1.375 . S
C3015 H3033 0.931 . S
C3016 N3013 1.311 . S
C3016 N3017 1.347 . S
C3016 H3027 0.929 . S
N3017 C3015 1.375 . S
N3017 C3016 1.347 . S
C3018 C3021 1.365 . S
C3018 N3023 1.328 . S
C3018 H3024 0.929 . S
C3019 C3020 1.362 . S
C3019 C3022 1.378 . S
C3019 H3034 0.929 . S
C3020 C3019 1.362 . S
C3020 C3021 1.366 1_556 S
C3021 C3018 1.365 . S
C3021 C3020 1.366 1_554 S
C3021 H3035 0.930 . S
C3022 C3019 1.378 . S
C3022 N3023 1.315 1_556 S
C3022 H3025 0.930 . S
N3023 Co3003 2.194 . S
N3023 C3018 1.328 . S
N3023 C3022 1.315 1_554 S
H3024 C3018 0.929 . S
H3025 C3022 0.930 . S
H3026 C3014 0.929 . S
H3027 C3016 0.929 . S
O3028 Co3003 2.351 . S
O3028 C3031 1.244 . S
O3029 Co3003 2.155 . S
O3029 C3031 1.240 . S
O3030 Co3003 2.096 . S
O3030 C3011 1.247 1_554 S
C3031 O3028 1.244 . S
C3031 O3029 1.240 . S
H3032 C3006 0.931 . S
H3033 C3015 0.931 . S
H3034 C3019 0.929 . S
H3035 C3021 0.930 . S
Co3036 N3040 2.148 . S
Co3036 N3046 2.128 . S
Co3036 N3056 2.194 . S
Co3036 O3061 2.351 . S
Co3036 O3062 2.155 . S
Co3036 O3063 2.096 . S
C3037 N3040 1.301 . S
C3037 N3041 1.328 . S
C3037 H3042 0.930 . S
C3038 C3039 1.333 . S
C3038 N3040 1.317 . S
C3038 H3043 0.930 . S
C3039 C3038 1.333 . S
C3039 N3041 1.350 . S
C3039 H3065 0.931 . S
N3040 Co3036 2.148 . S
N3040 C3037 1.301 . S
N3040 C3038 1.317 . S
N3041 C3037 1.328 . S
N3041 C3039 1.350 . S
H3042 C3037 0.930 . S
H3043 C3038 0.930 . S
C3044 O3045 1.224 . S
C3044 O3063 1.247 . S
O3045 C3044 1.224 . S
N3046 Co3036 2.128 . S
N3046 C3047 1.355 . S
N3046 C3049 1.311 . S
C3047 N3046 1.355 . S
C3047 C3048 1.363 . S
C3047 H3059 0.929 . S
C3048 C3047 1.363 . S
C3048 N3050 1.375 . S
C3048 H3066 0.931 . S
C3049 N3046 1.311 . S
C3049 N3050 1.347 . S
C3049 H3060 0.929 . S
N3050 C3048 1.375 . S
N3050 C3049 1.347 . S
C3051 C3054 1.365 . S
C3051 N3056 1.328 . S
C3051 H3057 0.929 . S
C3052 C3053 1.362 . S
C3052 C3055 1.378 . S
C3052 H3067 0.929 . S
C3053 C3052 1.362 . S
C3053 C3054 1.366 . S
C3054 C3051 1.365 . S
C3054 C3053 1.366 . S
C3054 H3068 0.930 . S
C3055 C3052 1.378 . S
C3055 N3056 1.315 . S
C3055 H3058 0.930 . S
N3056 Co3036 2.194 . S
N3056 C3051 1.328 . S
N3056 C3055 1.315 . S
H3057 C3051 0.929 . S
H3058 C3055 0.930 . S
H3059 C3047 0.929 . S
H3060 C3049 0.929 . S
O3061 Co3036 2.351 . S
O3061 C3064 1.244 . S
O3062 Co3036 2.155 . S
O3062 C3064 1.240 . S
O3063 Co3036 2.096 . S
O3063 C3044 1.247 . S
C3064 O3061 1.244 . S
C3064 O3062 1.240 . S
H3065 C3039 0.931 . S
H3066 C3048 0.931 . S
H3067 C3052 0.929 . S
H3068 C3054 0.930 . S
Co3069 N3073 2.148 . S
Co3069 N3079 2.128 . S
Co3069 N3089 2.194 . S
Co3069 O3094 2.351 . S
Co3069 O3095 2.155 . S
Co3069 O3096 2.096 . S
C3070 N3073 1.301 . S
C3070 N3074 1.328 1_455 S
C3070 H3075 0.930 . S
C3071 C3072 1.333 . S
C3071 N3073 1.317 1_655 S
C3071 H3076 0.930 . S
C3072 C3071 1.333 . S
C3072 N3074 1.350 . S
C3072 H3098 0.931 . S
N3073 Co3069 2.148 . S
N3073 C3070 1.301 . S
N3073 C3071 1.317 1_455 S
N3074 C3070 1.328 1_655 S
N3074 C3072 1.350 . S
H3075 C3070 0.930 . S
H3076 C3071 0.930 . S
C3077 O3078 1.224 . S
C3077 O3096 1.247 1_554 S
O3078 C3077 1.224 . S
N3079 Co3069 2.128 . S
N3079 C3080 1.355 . S
N3079 C3082 1.311 . S
C3080 N3079 1.355 . S
C3080 C3081 1.363 . S
C3080 H3092 0.929 . S
C3081 C3080 1.363 . S
C3081 N3083 1.375 . S
C3081 H3099 0.931 . S
C3082 N3079 1.311 . S
C3082 N3083 1.347 . S
C3082 H3093 0.929 . S
N3083 C3081 1.375 . S
N3083 C3082 1.347 . S
C3084 C3087 1.365 . S
C3084 N3089 1.328 . S
C3084 H3090 0.929 . S
C3085 C3086 1.362 . S
C3085 C3088 1.378 . S
C3085 H3100 0.929 . S
C3086 C3085 1.362 . S
C3086 C3087 1.366 1_554 S
C3087 C3084 1.365 . S
C3087 C3086 1.366 1_556 S
C3087 H3101 0.930 . S
C3088 C3085 1.378 . S
C3088 N3089 1.315 1_554 S
C3088 H3091 0.930 . S
N3089 Co3069 2.194 . S
N3089 C3084 1.328 . S
N3089 C3088 1.315 1_556 S
H3090 C3084 0.929 . S
H3091 C3088 0.930 . S
H3092 C3080 0.929 . S
H3093 C3082 0.929 . S
O3094 Co3069 2.351 . S
O3094 C3097 1.244 . S
O3095 Co3069 2.155 . S
O3095 C3097 1.240 . S
O3096 Co3069 2.096 . S
O3096 C3077 1.247 1_556 S
C3097 O3094 1.244 . S
C3097 O3095 1.240 . S
H3098 C3072 0.931 . S
H3099 C3081 0.931 . S
H3100 C3085 0.929 . S
H3101 C3087 0.930 . S
Co3102 N3106 2.148 . S
Co3102 N3112 2.128 . S
Co3102 N3122 2.194 . S
Co3102 O3127 2.351 . S
Co3102 O3128 2.155 . S
Co3102 O3129 2.096 . S
C3103 N3106 1.301 . S
C3103 N3107 1.328 . S
C3103 H3108 0.930 . S
C3104 C3105 1.333 . S
C3104 N3106 1.317 . S
C3104 H3109 0.930 . S
C3105 C3104 1.333 . S
C3105 N3107 1.350 . S
C3105 H3131 0.931 . S
N3106 Co3102 2.148 . S
N3106 C3103 1.301 . S
N3106 C3104 1.317 . S
N3107 C3103 1.328 . S
N3107 C3105 1.350 . S
H3108 C3103 0.930 . S
H3109 C3104 0.930 . S
C3110 O3111 1.224 . S
C3110 O3129 1.247 . S
O3111 C3110 1.224 . S
N3112 Co3102 2.128 . S
N3112 C3113 1.355 . S
N3112 C3115 1.311 . S
C3113 N3112 1.355 . S
C3113 C3114 1.363 . S
C3113 H3125 0.929 . S
C3114 C3113 1.363 . S
C3114 N3116 1.375 . S
C3114 H3132 0.931 . S
C3115 N3112 1.311 . S
C3115 N3116 1.347 . S
C3115 H3126 0.929 . S
N3116 C3114 1.375 . S
N3116 C3115 1.347 . S
C3117 C3120 1.365 . S
C3117 N3122 1.328 . S
C3117 H3123 0.929 . S
C3118 C3119 1.362 . S
C3118 C3121 1.378 . S
C3118 H3133 0.929 . S
C3119 C3118 1.362 . S
C3119 C3120 1.366 . S
C3120 C3117 1.365 . S
C3120 C3119 1.366 . S
C3120 H3134 0.930 . S
C3121 C3118 1.378 . S
C3121 N3122 1.315 . S
C3121 H3124 0.930 . S
N3122 Co3102 2.194 . S
N3122 C3117 1.328 . S
N3122 C3121 1.315 . S
H3123 C3117 0.929 . S
H3124 C3121 0.930 . S
H3125 C3113 0.929 . S
H3126 C3115 0.929 . S
O3127 Co3102 2.351 . S
O3127 C3130 1.244 . S
O3128 Co3102 2.155 . S
O3128 C3130 1.240 . S
O3129 Co3102 2.096 . S
O3129 C3110 1.247 . S
C3130 O3127 1.244 . S
C3130 O3128 1.240 . S
H3131 C3105 0.931 . S
H3132 C3114 0.931 . S
H3133 C3118 0.929 . S
H3134 C3120 0.930 . S
Co3135 N3139 2.148 . S
Co3135 N3145 2.128 . S
Co3135 N3155 2.194 . S
Co3135 O3160 2.351 . S
Co3135 O3161 2.155 . S
Co3135 O3162 2.096 . S
C3136 N3139 1.301 . S
C3136 N3140 1.328 . S
C3136 H3141 0.930 . S
C3137 C3138 1.333 . S
C3137 N3139 1.317 . S
C3137 H3142 0.930 . S
C3138 C3137 1.333 . S
C3138 N3140 1.350 . S
C3138 H3164 0.931 . S
N3139 Co3135 2.148 . S
N3139 C3136 1.301 . S
N3139 C3137 1.317 . S
N3140 C3136 1.328 . S
N3140 C3138 1.350 . S
H3141 C3136 0.930 . S
H3142 C3137 0.930 . S
C3143 O3144 1.224 . S
C3143 O3162 1.247 . S
O3144 C3143 1.224 . S
N3145 Co3135 2.128 . S
N3145 C3146 1.355 . S
N3145 C3148 1.311 . S
C3146 N3145 1.355 . S
C3146 C3147 1.363 . S
C3146 H3158 0.929 . S
C3147 C3146 1.363 . S
C3147 N3149 1.375 . S
C3147 H3165 0.931 . S
C3148 N3145 1.311 . S
C3148 N3149 1.347 . S
C3148 H3159 0.929 . S
N3149 C3147 1.375 . S
N3149 C3148 1.347 . S
C3150 C3153 1.365 . S
C3150 N3155 1.328 . S
C3150 H3156 0.929 . S
C3151 C3152 1.362 . S
C3151 C3154 1.378 . S
C3151 H3166 0.929 . S
C3152 C3151 1.362 . S
C3152 C3153 1.366 . S
C3153 C3150 1.365 . S
C3153 C3152 1.366 . S
C3153 H3167 0.930 . S
C3154 C3151 1.378 . S
C3154 N3155 1.315 . S
C3154 H3157 0.930 . S
N3155 Co3135 2.194 . S
N3155 C3150 1.328 . S
N3155 C3154 1.315 . S
H3156 C3150 0.929 . S
H3157 C3154 0.930 . S
H3158 C3146 0.929 . S
H3159 C3148 0.929 . S
O3160 Co3135 2.351 . S
O3160 C3163 1.244 . S
O3161 Co3135 2.155 . S
O3161 C3163 1.240 . S
O3162 Co3135 2.096 . S
O3162 C3143 1.247 . S
C3163 O3160 1.244 . S
C3163 O3161 1.240 . S
H3164 C3138 0.931 . S
H3165 C3147 0.931 . S
H3166 C3151 0.929 . S
H3167 C3153 0.930 . S
N14 C1427 2.451 . S
N47 C1460 2.451 . S
N80 C1361 2.451 . S
N113 C2978 2.451 . S
C3077 N146 2.451 . S
N179 C3110 2.451 . S
N212 C2912 2.451 . S
N245 C3143 2.451 . S
N278 C866 2.451 . S
C2483 N311 2.451 . S
C800 N344 2.451 . S
C2417 N377 2.451 . S
N410 C998 2.451 . S
N443 C2615 2.451 . S
C932 N476 2.451 . S
N509 C2549 2.451 . S
N542 C2780 2.451 . S
C1064 N575 2.451 . S
C2681 N608 2.451 . S
C1130 N641 2.451 . S
C1163 N674 2.451 . S
C2846 N707 2.451 . S
C2879 N740 2.451 . S
C2813 N773 2.451 . S
C635 N806 2.451 . S
C668 N839 2.451 . S
N872 C569 2.451 . S
C2186 N905 2.451 . S
N938 C2285 2.451 . S
C2318 N971 2.451 . S
N1004 C2120 2.451 . S
C2351 N1037 2.451 . S
C74 N1070 2.451 . S
N1103 C1691 2.451 . S
C8 N1136 2.451 . S
N1169 C1625 2.451 . S
N1202 C206 2.451 . S
N1235 C1823 2.451 . S
N1268 C140 2.451 . S
C1757 N1301 2.451 . S
C1988 N1334 2.451 . S
N1367 C272 2.451 . S
C1889 N1400 2.451 . S
N1433 C338 2.451 . S
N1466 C371 2.451 . S
N1499 C2054 2.451 . S
N1532 C2087 2.451 . S
N1565 C2021 2.451 . S
C3011 N1598 2.451 . S
N1631 C3044 2.451 . S
C2945 N1664 2.451 . S
N1697 C1394 2.451 . S
N1730 C1493 2.451 . S
C1526 N1763 2.451 . S
C1328 N1796 2.451 . S
N1829 C1559 2.451 . S
N1862 C2450 2.451 . S
C899 N1895 2.451 . S
N1928 C2384 2.451 . S
N1961 C833 2.451 . S
N1994 C2582 2.451 . S
N2027 C1031 2.451 . S
N2060 C2516 2.451 . S
C965 N2093 2.451 . S
N2126 C1196 2.451 . S
C2648 N2159 2.451 . S
N2192 C1097 2.451 . S
C2714 N2225 2.451 . S
N2258 C2747 2.451 . S
N2291 C1262 2.451 . S
N2324 C1295 2.451 . S
C1229 N2357 2.451 . S
N2390 C2219 2.451 . S
C2252 N2423 2.451 . S
N2456 C2153 2.451 . S
C602 N2489 2.451 . S
C701 N2522 2.451 . S
C734 N2555 2.451 . S
C536 N2588 2.451 . S
N2621 C767 2.451 . S
N2654 C1658 2.451 . S
C107 N2687 2.451 . S
C1592 N2720 2.451 . S
C41 N2753 2.451 . S
N2786 C1790 2.451 . S
N2819 C239 2.451 . S
N2852 C1724 2.451 . S
C173 N2885 2.451 . S
N2918 C404 2.451 . S
N2951 C1856 2.451 . S
C305 N2984 2.451 . S
C1922 N3017 2.451 . S
C1955 N3050 2.451 . S
N3083 C470 2.451 . S
C503 N3116 2.451 . S
C437 N3149 2.451 . S
C28 C325 3.443 . S
C358 C61 3.443 . S
C391 C94 3.443 . S
C127 C292 3.443 . S
C523 C160 3.443 . S
C424 C193 3.443 . S
C226 C457 3.443 . S
C259 C490 3.443 . S
C556 C622 3.443 . S
C2338 C589 3.443 . S
C655 C2371 3.443 . S
C688 C2305 3.443 . S
C2272 C721 3.443 . S
C2173 C754 3.443 . S
C2239 C787 3.443 . S
C1117 C820 3.443 . S
C853 C1150 3.443 . S
C1183 C886 3.443 . S
C919 C1084 3.443 . S
C1315 C952 3.443 . S
C985 C1216 3.443 . S
C1018 C1249 3.443 . S
C1282 C1051 3.443 . S
C1414 C1348 3.443 . S
C3130 C1381 3.443 . S
C3163 C1447 3.443 . S
C1480 C3097 3.443 . S
C1513 C3064 3.443 . S
C2965 C1546 3.443 . S
C1579 C3031 3.443 . S
C1612 C1909 3.443 . S
C1645 C1942 3.443 . S
C1975 C1678 3.443 . S
C1876 C1711 3.443 . S
C2107 C1744 3.443 . S
C1777 C2008 3.443 . S
C2041 C1810 3.443 . S
C2074 C1843 3.443 . S
C2206 C2140 3.443 . S
C2404 C2701 3.443 . S
C2734 C2437 3.443 . S
C2470 C2767 3.443 . S
C2668 C2503 3.443 . S
C2536 C2899 3.443 . S
C2800 C2569 3.443 . S
C2602 C2833 3.443 . S
C2866 C2635 3.443 . S
C2998 C2932 3.443 . S
C17 C677 1.376 . S
C2162 C50 1.376 . S
C83 C2195 1.376 . S
C116 C2228 1.376 . S
C2360 C149 1.376 . S
C182 C710 1.376 . S
C215 C2327 1.376 . S
C248 C545 1.376 . S
C512 C281 1.376 . S
C314 C413 1.376 . S
C446 C347 1.376 . S
C380 C479 1.376 . S
C1634 C578 1.376 . S
C611 C1667 1.376 . S
C1700 C644 1.376 . S
C1799 C743 1.376 . S
C1733 C776 1.376 . S
C809 C1469 1.376 . S
C2954 C842 1.376 . S
C2987 C875 1.376 . S
C908 C3020 1.376 . S
C941 C3152 1.376 . S
C1502 C974 1.376 . S
C1007 C3119 1.376 . S
C1337 C1040 1.376 . S
C1304 C1073 1.376 . S
C1205 C1106 1.376 . S
C1139 C1238 1.376 . S
C1271 C1172 1.376 . S
C2426 C1370 1.376 . S
C2459 C1403 1.376 . S
C1436 C2492 1.376 . S
C2591 C1535 1.376 . S
C2525 C1568 1.376 . S
C2261 C1601 1.376 . S
C2294 C1766 1.376 . S
C2129 C1832 1.376 . S
C2096 C1865 1.376 . S
C1898 C1997 1.376 . S
C2030 C1931 1.376 . S
C1964 C2063 1.376 . S
C2393 C3053 1.376 . S
C3086 C2558 1.376 . S
C2921 C2624 1.376 . S
C2888 C2657 1.376 . S
C2690 C2789 1.376 . S
C2822 C2723 1.376 . S
C2855 C2756 1.376 . S
N137 N5 2.286 1_545 S
N170 N38 2.286 . S
N71 N203 2.286 1_545 S
N236 N104 2.286 1_556 S
N269 N467 2.286 1_556 S
N302 N500 2.286 1_545 S
N335 N401 2.286 . S
N368 N434 2.286 1_565 S
N533 N2282 2.286 1_655 S
N566 N2216 2.286 . S
N665 N599 2.286 1_655 S
N632 N2150 2.286 1_455 S
N2117 N698 2.286 . S
N731 N2348 2.286 1_455 S
N2315 N764 2.286 . S
N797 N929 2.286 1_545 S
N830 N962 2.286 . S
N863 N995 2.286 1_565 S
N896 N1028 2.286 1_556 S
N1259 N1061 2.286 1_556 S
N1094 N1292 2.286 1_565 S
N1193 N1127 2.286 . S
N1226 N1160 2.286 1_565 S
N1325 N3074 2.286 1_455 S
N3008 N1358 2.286 . S
N1391 N1457 2.286 1_655 S
N1424 N2942 2.286 1_655 S
N2909 N1490 2.286 . S
N1523 N3140 2.286 1_655 S
N1556 N3107 2.286 . S
N1589 N1721 2.286 . S
N1622 N1754 2.286 1_554 S
N1655 N1787 2.286 . S
N1688 N1820 2.286 . S
N1853 N2051 2.286 . S
N2084 N1886 2.286 . S
N1919 N1985 2.286 1_556 S
N2018 N1952 2.286 . S
N2249 N2183 2.286 . S
N2513 N2381 2.286 . S
N2546 N2414 2.286 1_554 S
N2447 N2579 2.286 . S
N2480 N2612 2.286 . S
N2645 N2843 2.286 . S
N2876 N2678 2.286 . S
N2711 N2777 2.286 1_554 S
N2744 N2810 2.286 . S
N2975 N3041 2.286 . S
